# Generated by pormake.
# Topology pcu-i, (5)-cn, num edge types: 1
# Building blocks:
#     Node 0, Type 0, BuildingBlock: XOMCOT_clean_sbu_0, # of connection points: 5
#     Node 1, Type 0, BuildingBlock: XOMCOT_clean_sbu_0, # of connection points: 5
#     Node 2, Type 0, BuildingBlock: XOMCOT_clean_sbu_0, # of connection points: 5
#     Node 3, Type 0, BuildingBlock: XOMCOT_clean_sbu_0, # of connection points: 5
#     Node 4, Type 0, BuildingBlock: XOMCOT_clean_sbu_0, # of connection points: 5
#     Node 5, Type 0, BuildingBlock: XOMCOT_clean_sbu_0, # of connection points: 5
#     Node 6, Type 0, BuildingBlock: XOMCOT_clean_sbu_0, # of connection points: 5
#     Node 7, Type 0, BuildingBlock: XOMCOT_clean_sbu_0, # of connection points: 5
#     Node 8, Type 0, BuildingBlock: XOMCOT_clean_sbu_0, # of connection points: 5
#     Node 9, Type 0, BuildingBlock: XOMCOT_clean_sbu_0, # of connection points: 5
#     Node 10, Type 0, BuildingBlock: XOMCOT_clean_sbu_0, # of connection points: 5
#     Node 11, Type 0, BuildingBlock: XOMCOT_clean_sbu_0, # of connection points: 5
#     Node 12, Type 0, BuildingBlock: XOMCOT_clean_sbu_0, # of connection points: 5
#     Node 13, Type 0, BuildingBlock: XOMCOT_clean_sbu_0, # of connection points: 5
#     Node 14, Type 0, BuildingBlock: XOMCOT_clean_sbu_0, # of connection points: 5
#     Node 15, Type 0, BuildingBlock: XOMCOT_clean_sbu_0, # of connection points: 5
#     Node 16, Type 0, BuildingBlock: XOMCOT_clean_sbu_0, # of connection points: 5
#     Node 17, Type 0, BuildingBlock: XOMCOT_clean_sbu_0, # of connection points: 5
#     Node 18, Type 0, BuildingBlock: XOMCOT_clean_sbu_0, # of connection points: 5
#     Node 19, Type 0, BuildingBlock: XOMCOT_clean_sbu_0, # of connection points: 5
#     Node 20, Type 0, BuildingBlock: XOMCOT_clean_sbu_0, # of connection points: 5
#     Node 21, Type 0, BuildingBlock: XOMCOT_clean_sbu_0, # of connection points: 5
#     Node 22, Type 0, BuildingBlock: XOMCOT_clean_sbu_0, # of connection points: 5
#     Node 23, Type 0, BuildingBlock: XOMCOT_clean_sbu_0, # of connection points: 5
#     Edge 24, Type (0, 0), BuildingBlock: UVAHIK_clean_linker_0, # of connection points: 2
#     Edge 25, Type (0, 0), BuildingBlock: UVAHIK_clean_linker_0, # of connection points: 2
#     Edge 26, Type (0, 0), BuildingBlock: UVAHIK_clean_linker_0, # of connection points: 2
#     Edge 27, Type (0, 0), BuildingBlock: UVAHIK_clean_linker_0, # of connection points: 2
#     Edge 28, Type (0, 0), BuildingBlock: UVAHIK_clean_linker_0, # of connection points: 2
#     Edge 29, Type (0, 0), BuildingBlock: UVAHIK_clean_linker_0, # of connection points: 2
#     Edge 30, Type (0, 0), BuildingBlock: UVAHIK_clean_linker_0, # of connection points: 2
#     Edge 31, Type (0, 0), BuildingBlock: UVAHIK_clean_linker_0, # of connection points: 2
#     Edge 32, Type (0, 0), BuildingBlock: UVAHIK_clean_linker_0, # of connection points: 2
#     Edge 33, Type (0, 0), BuildingBlock: UVAHIK_clean_linker_0, # of connection points: 2
#     Edge 34, Type (0, 0), BuildingBlock: UVAHIK_clean_linker_0, # of connection points: 2
#     Edge 35, Type (0, 0), BuildingBlock: UVAHIK_clean_linker_0, # of connection points: 2
#     Edge 36, Type (0, 0), BuildingBlock: UVAHIK_clean_linker_0, # of connection points: 2
#     Edge 37, Type (0, 0), BuildingBlock: UVAHIK_clean_linker_0, # of connection points: 2
#     Edge 38, Type (0, 0), BuildingBlock: UVAHIK_clean_linker_0, # of connection points: 2
#     Edge 39, Type (0, 0), BuildingBlock: UVAHIK_clean_linker_0, # of connection points: 2
#     Edge 40, Type (0, 0), BuildingBlock: UVAHIK_clean_linker_0, # of connection points: 2
#     Edge 41, Type (0, 0), BuildingBlock: UVAHIK_clean_linker_0, # of connection points: 2
#     Edge 42, Type (0, 0), BuildingBlock: UVAHIK_clean_linker_0, # of connection points: 2
#     Edge 43, Type (0, 0), BuildingBlock: UVAHIK_clean_linker_0, # of connection points: 2
#     Edge 44, Type (0, 0), BuildingBlock: UVAHIK_clean_linker_0, # of connection points: 2
#     Edge 45, Type (0, 0), BuildingBlock: UVAHIK_clean_linker_0, # of connection points: 2
#     Edge 46, Type (0, 0), BuildingBlock: UVAHIK_clean_linker_0, # of connection points: 2
#     Edge 47, Type (0, 0), BuildingBlock: UVAHIK_clean_linker_0, # of connection points: 2
#     Edge 48, Type (0, 0), BuildingBlock: UVAHIK_clean_linker_0, # of connection points: 2
#     Edge 49, Type (0, 0), BuildingBlock: UVAHIK_clean_linker_0, # of connection points: 2
#     Edge 50, Type (0, 0), BuildingBlock: UVAHIK_clean_linker_0, # of connection points: 2
#     Edge 51, Type (0, 0), BuildingBlock: UVAHIK_clean_linker_0, # of connection points: 2
#     Edge 52, Type (0, 0), BuildingBlock: UVAHIK_clean_linker_0, # of connection points: 2
#     Edge 53, Type (0, 0), BuildingBlock: UVAHIK_clean_linker_0, # of connection points: 2
#     Edge 54, Type (0, 0), BuildingBlock: UVAHIK_clean_linker_0, # of connection points: 2
#     Edge 55, Type (0, 0), BuildingBlock: UVAHIK_clean_linker_0, # of connection points: 2
#     Edge 56, Type (0, 0), BuildingBlock: UVAHIK_clean_linker_0, # of connection points: 2
#     Edge 57, Type (0, 0), BuildingBlock: UVAHIK_clean_linker_0, # of connection points: 2
#     Edge 58, Type (0, 0), BuildingBlock: UVAHIK_clean_linker_0, # of connection points: 2
#     Edge 59, Type (0, 0), BuildingBlock: UVAHIK_clean_linker_0, # of connection points: 2
#     Edge 60, Type (0, 0), BuildingBlock: UVAHIK_clean_linker_0, # of connection points: 2
#     Edge 61, Type (0, 0), BuildingBlock: UVAHIK_clean_linker_0, # of connection points: 2
#     Edge 62, Type (0, 0), BuildingBlock: UVAHIK_clean_linker_0, # of connection points: 2
#     Edge 63, Type (0, 0), BuildingBlock: UVAHIK_clean_linker_0, # of connection points: 2
#     Edge 64, Type (0, 0), BuildingBlock: UVAHIK_clean_linker_0, # of connection points: 2
#     Edge 65, Type (0, 0), BuildingBlock: UVAHIK_clean_linker_0, # of connection points: 2
#     Edge 66, Type (0, 0), BuildingBlock: UVAHIK_clean_linker_0, # of connection points: 2
#     Edge 67, Type (0, 0), BuildingBlock: UVAHIK_clean_linker_0, # of connection points: 2
#     Edge 68, Type (0, 0), BuildingBlock: UVAHIK_clean_linker_0, # of connection points: 2
#     Edge 69, Type (0, 0), BuildingBlock: UVAHIK_clean_linker_0, # of connection points: 2
#     Edge 70, Type (0, 0), BuildingBlock: UVAHIK_clean_linker_0, # of connection points: 2
#     Edge 71, Type (0, 0), BuildingBlock: UVAHIK_clean_linker_0, # of connection points: 2
#     Edge 72, Type (0, 0), BuildingBlock: UVAHIK_clean_linker_0, # of connection points: 2
#     Edge 73, Type (0, 0), BuildingBlock: UVAHIK_clean_linker_0, # of connection points: 2
#     Edge 74, Type (0, 0), BuildingBlock: UVAHIK_clean_linker_0, # of connection points: 2
#     Edge 75, Type (0, 0), BuildingBlock: UVAHIK_clean_linker_0, # of connection points: 2
#     Edge 76, Type (0, 0), BuildingBlock: UVAHIK_clean_linker_0, # of connection points: 2
#     Edge 77, Type (0, 0), BuildingBlock: UVAHIK_clean_linker_0, # of connection points: 2
#     Edge 78, Type (0, 0), BuildingBlock: UVAHIK_clean_linker_0, # of connection points: 2
#     Edge 79, Type (0, 0), BuildingBlock: UVAHIK_clean_linker_0, # of connection points: 2
#     Edge 80, Type (0, 0), BuildingBlock: UVAHIK_clean_linker_0, # of connection points: 2
#     Edge 81, Type (0, 0), BuildingBlock: UVAHIK_clean_linker_0, # of connection points: 2
#     Edge 82, Type (0, 0), BuildingBlock: UVAHIK_clean_linker_0, # of connection points: 2
#     Edge 83, Type (0, 0), BuildingBlock: UVAHIK_clean_linker_0, # of connection points: 2
# Relax obj value: 0.303
# Max RMSD: 0.283
# Mean RMSD: 0.283
data_MOF--net-pcu-i--node1-XOMCOT_clean_sbu_0--edge1-UVAHIK_clean_linker_0
_symmetry_space_group_name_H-M    P1
_symmetry_Int_Tables_number       1
_symmetry_cell_setting            triclinic
loop_
_symmetry_equiv_pos_as_xyz
'x, y, z'
_cell_length_a     70.640535
_cell_length_b     70.599594
_cell_length_c     70.601179
_cell_angle_alpha  89.994825
_cell_angle_beta   89.980092
_cell_angle_gamma 89.992786
loop_
_atom_site_label
_atom_site_type_symbol
_atom_site_fract_x
_atom_site_fract_y
_atom_site_fract_z
_atom_type_partial_charge
Co0 Co 0.13877 0.16355 0.3428 0.0
C1 C 0.09588 0.15862 0.34208 0.0
C2 C 0.10855 0.16763 0.31603 0.0
C3 C 0.08976 0.16466 0.3128 0.0
N4 N 0.11255 0.16431 0.33443 0.0
N5 N 0.08177 0.15891 0.3291 0.0
H6 H 0.09407 0.15327 0.35625 0.0
H7 H 0.11889 0.17126 0.30533 0.0
C8 C 0.13345 0.20186 0.32723 0.0
O9 O 0.1189 0.20285 0.3388 0.0
N10 N 0.16526 0.16248 0.3492 0.0
C11 C 0.17383 0.15431 0.36417 0.0
C12 C 0.19316 0.15427 0.36093 0.0
C13 C 0.17924 0.16733 0.33725 0.0
N14 N 0.1964 0.1626 0.34403 0.0
C15 C 0.12352 0.17121 0.37941 0.0
C16 C 0.14791 0.20061 0.38788 0.0
C17 C 0.13758 0.19215 0.40257 0.0
C18 C 0.12464 0.17784 0.39795 0.0
C19 C 0.14625 0.19363 0.36942 0.0
N20 N 0.13446 0.17877 0.36541 0.0
H21 H 0.11548 0.15854 0.37698 0.0
H22 H 0.15579 0.19904 0.35876 0.0
H23 H 0.16654 0.14805 0.3761 0.0
H24 H 0.17683 0.17299 0.32321 0.0
O25 O 0.13491 0.13937 0.35432 0.0
O26 O 0.14294 0.14344 0.32426 0.0
O27 O 0.14368 0.1869 0.3269 0.0
C28 C 0.13903 0.13181 0.33813 0.0
H29 H 0.08256 0.16633 0.29937 0.0
H30 H 0.2039 0.14805 0.36993 0.0
H31 H 0.15816 0.21163 0.39083 0.0
H32 H 0.11681 0.17041 0.40885 0.0
Co33 Co 0.84913 0.13767 0.33757 0.0
C34 C 0.85252 0.09422 0.33968 0.0
C35 C 0.85483 0.10672 0.3121 0.0
C36 C 0.85566 0.08753 0.31006 0.0
N37 N 0.85281 0.11118 0.33058 0.0
N38 N 0.85414 0.07963 0.3273 0.0
H39 H 0.8503 0.09226 0.35466 0.0
H40 H 0.85501 0.11687 0.30063 0.0
C41 C 0.81291 0.1254 0.321 0.0
O42 O 0.81377 0.11111 0.33289 0.0
N43 N 0.84564 0.16432 0.34243 0.0
C44 C 0.85035 0.1747 0.35773 0.0
C45 C 0.84787 0.19365 0.35331 0.0
C46 C 0.84045 0.17688 0.32908 0.0
N47 N 0.84161 0.19491 0.33527 0.0
C48 C 0.84378 0.12344 0.37478 0.0
C49 C 0.81041 0.14259 0.38192 0.0
C50 C 0.82044 0.13471 0.39716 0.0
C51 C 0.8369 0.12436 0.39323 0.0
C52 C 0.81768 0.1411 0.36352 0.0
N53 N 0.83444 0.13197 0.36018 0.0
H54 H 0.85762 0.11735 0.37258 0.0
H55 H 0.81074 0.14885 0.35231 0.0
H56 H 0.85589 0.16898 0.37081 0.0
H57 H 0.8371 0.17291 0.31466 0.0
O58 O 0.87336 0.13856 0.34964 0.0
O59 O 0.86866 0.14432 0.31915 0.0
O60 O 0.82594 0.13795 0.32099 0.0
C61 C 0.88042 0.14311 0.33335 0.0
H62 H 0.85711 0.0799 0.29683 0.0
H63 H 0.85093 0.20555 0.36248 0.0
H64 H 0.7977 0.15083 0.38433 0.0
H65 H 0.84545 0.11849 0.40453 0.0
Co66 Co 0.87183 0.84774 0.34082 0.0
C67 C 0.9143 0.85141 0.34173 0.0
C68 C 0.90429 0.83267 0.32014 0.0
C69 C 0.92324 0.83529 0.31751 0.0
N70 N 0.89849 0.84224 0.33568 0.0
N71 N 0.92957 0.84729 0.33085 0.0
H72 H 0.91435 0.8622 0.3526 0.0
H73 H 0.89522 0.82575 0.31 0.0
C74 C 0.87032 0.80718 0.32969 0.0
O75 O 0.88262 0.8043 0.34336 0.0
N76 N 0.84536 0.85363 0.34435 0.0
C77 C 0.83715 0.86415 0.35802 0.0
C78 C 0.81826 0.86653 0.35349 0.0
C79 C 0.83154 0.84978 0.33182 0.0
N80 N 0.81485 0.85738 0.33707 0.0
C81 C 0.88404 0.83952 0.37875 0.0
C82 C 0.85234 0.81851 0.38814 0.0
C83 C 0.86414 0.82508 0.40263 0.0
C84 C 0.88065 0.83492 0.39772 0.0
C85 C 0.85637 0.82318 0.36937 0.0
N86 N 0.87165 0.83422 0.36489 0.0
H87 H 0.89571 0.84877 0.37551 0.0
H88 H 0.84624 0.81926 0.35859 0.0
H89 H 0.84447 0.87008 0.37009 0.0
H90 H 0.83385 0.84234 0.31862 0.0
O91 O 0.87846 0.87209 0.35071 0.0
O92 O 0.87238 0.86633 0.32043 0.0
O93 O 0.86429 0.82399 0.32644 0.0
C94 C 0.87665 0.87858 0.33363 0.0
H95 H 0.93148 0.82968 0.30585 0.0
H96 H 0.80791 0.87454 0.36148 0.0
H97 H 0.83946 0.81084 0.39139 0.0
H98 H 0.88999 0.84044 0.40856 0.0
Co99 Co 0.1584 0.87377 0.34703 0.0
C100 C 0.15704 0.91636 0.34787 0.0
C101 C 0.17543 0.90523 0.32652 0.0
C102 C 0.17378 0.92426 0.32367 0.0
N103 N 0.16545 0.90006 0.34204 0.0
N104 N 0.16205 0.93127 0.33688 0.0
H105 H 0.14611 0.91708 0.35857 0.0
H106 H 0.18187 0.89574 0.31645 0.0
C107 C 0.19884 0.86987 0.33626 0.0
O108 O 0.20234 0.88196 0.34998 0.0
N109 N 0.15108 0.84765 0.35011 0.0
C110 C 0.14313 0.83856 0.36491 0.0
C111 C 0.13937 0.82008 0.35948 0.0
C112 C 0.1517 0.83496 0.33597 0.0
N113 N 0.14465 0.81805 0.34122 0.0
C114 C 0.16721 0.88576 0.38478 0.0
C115 C 0.18622 0.85298 0.39476 0.0
C116 C 0.18043 0.8655 0.409 0.0
C117 C 0.17164 0.88249 0.40378 0.0
C118 C 0.18188 0.85698 0.37589 0.0
N119 N 0.17173 0.87281 0.37117 0.0
H120 H 0.15868 0.8979 0.38136 0.0
H121 H 0.18521 0.84647 0.36527 0.0
H122 H 0.14006 0.84494 0.3785 0.0
H123 H 0.15699 0.83817 0.32194 0.0
O124 O 0.13438 0.88154 0.35686 0.0
O125 O 0.13999 0.87565 0.32654 0.0
O126 O 0.18174 0.86491 0.3328 0.0
C127 C 0.12786 0.88031 0.33974 0.0
H128 H 0.17971 0.93213 0.31192 0.0
H129 H 0.13271 0.80923 0.36802 0.0
H130 H 0.19302 0.83969 0.3983 0.0
H131 H 0.16672 0.89237 0.41444 0.0
Co132 Co 0.1296 0.8475 0.66744 0.0
C133 C 0.08733 0.84884 0.66613 0.0
C134 C 0.09771 0.82787 0.68537 0.0
C135 C 0.07861 0.82949 0.68793 0.0
N136 N 0.10338 0.83964 0.67136 0.0
N137 N 0.07209 0.84287 0.67608 0.0
H138 H 0.08704 0.86094 0.65674 0.0
H139 H 0.10684 0.82012 0.69481 0.0
C140 C 0.13481 0.80633 0.67579 0.0
O141 O 0.1241 0.80267 0.66103 0.0
N142 N 0.15554 0.85565 0.6648 0.0
C143 C 0.16298 0.86749 0.65179 0.0
C144 C 0.18178 0.87051 0.6562 0.0
C145 C 0.16971 0.85167 0.67687 0.0
N146 N 0.18591 0.86043 0.6719 0.0
C147 C 0.11841 0.8414 0.6288 0.0
C148 C 0.15164 0.82346 0.61833 0.0
C149 C 0.13938 0.82998 0.60421 0.0
C150 C 0.12219 0.83828 0.60959 0.0
C151 C 0.14722 0.82659 0.63732 0.0
N152 N 0.13109 0.83608 0.64238 0.0
H153 H 0.10606 0.8495 0.63254 0.0
H154 H 0.15755 0.8227 0.64791 0.0
H155 H 0.15522 0.87367 0.64012 0.0
H156 H 0.16805 0.84304 0.68943 0.0
O157 O 0.12136 0.87222 0.65974 0.0
O158 O 0.12745 0.86382 0.68944 0.0
O159 O 0.13863 0.82349 0.6802 0.0
C160 C 0.1225 0.87701 0.67747 0.0
H161 H 0.0704 0.82233 0.69872 0.0
H162 H 0.19163 0.8794 0.64851 0.0
H163 H 0.16506 0.81698 0.61469 0.0
H164 H 0.11249 0.84374 0.59904 0.0
Co165 Co 0.15306 0.12797 0.65255 0.0
C166 C 0.1497 0.08621 0.65846 0.0
C167 C 0.17736 0.09463 0.64918 0.0
C168 C 0.17754 0.07546 0.65254 0.0
N169 N 0.15991 0.10139 0.65284 0.0
N170 N 0.16015 0.07015 0.65842 0.0
H171 H 0.13503 0.08684 0.6627 0.0
H172 H 0.18933 0.10318 0.64491 0.0
C173 C 0.18579 0.14726 0.67382 0.0
O174 O 0.18052 0.16434 0.66877 0.0
N175 N 0.14602 0.15446 0.6524 0.0
C176 C 0.14167 0.16543 0.63741 0.0
C177 C 0.13626 0.18302 0.64393 0.0
C178 C 0.14219 0.16511 0.66775 0.0
N179 N 0.13678 0.18285 0.66306 0.0
C180 C 0.15915 0.1209 0.61363 0.0
C181 C 0.18486 0.14965 0.60707 0.0
C182 C 0.17626 0.14073 0.59154 0.0
C183 C 0.16392 0.12557 0.59505 0.0
C184 C 0.17968 0.14451 0.62548 0.0
N185 N 0.16621 0.13096 0.62852 0.0
H186 H 0.14871 0.10997 0.61603 0.0
H187 H 0.18549 0.15248 0.63698 0.0
H188 H 0.14225 0.16099 0.62277 0.0
H189 H 0.14433 0.16009 0.68206 0.0
O190 O 0.12838 0.12234 0.64253 0.0
O191 O 0.13519 0.1241 0.67314 0.0
O192 O 0.17687 0.13259 0.66801 0.0
C193 C 0.12246 0.12186 0.65994 0.0
H194 H 0.18978 0.06631 0.65138 0.0
H195 H 0.1323 0.19496 0.63518 0.0
H196 H 0.19477 0.16118 0.60503 0.0
H197 H 0.15684 0.11825 0.5836 0.0
Co198 Co 0.86856 0.15481 0.64882 0.0
C199 C 0.91075 0.15151 0.65102 0.0
C200 C 0.90138 0.17991 0.64574 0.0
C201 C 0.92076 0.18001 0.64751 0.0
N202 N 0.89506 0.16205 0.64793 0.0
N203 N 0.92668 0.16214 0.65088 0.0
H204 H 0.91058 0.13642 0.65346 0.0
H205 H 0.89244 0.19214 0.64347 0.0
C206 C 0.84967 0.18668 0.67167 0.0
O207 O 0.83261 0.18194 0.66609 0.0
N208 N 0.84219 0.14739 0.65027 0.0
C209 C 0.82968 0.14419 0.63622 0.0
C210 C 0.81239 0.13976 0.64421 0.0
C211 C 0.83273 0.14368 0.66642 0.0
N212 N 0.81431 0.13975 0.66324 0.0
C213 C 0.87503 0.16292 0.61033 0.0
C214 C 0.84459 0.18666 0.60411 0.0
C215 C 0.85465 0.17959 0.5885 0.0
C216 C 0.87053 0.16823 0.5919 0.0
C217 C 0.84979 0.18121 0.62248 0.0
N218 N 0.86427 0.16868 0.62532 0.0
H219 H 0.88657 0.15311 0.61248 0.0
H220 H 0.84121 0.18596 0.63403 0.0
H221 H 0.83272 0.14537 0.62125 0.0
H222 H 0.8391 0.14488 0.6803 0.0
O223 O 0.87386 0.13068 0.63744 0.0
O224 O 0.87401 0.13614 0.66836 0.0
O225 O 0.86434 0.17792 0.66553 0.0
C226 C 0.87566 0.12402 0.65447 0.0
H227 H 0.92967 0.19246 0.64698 0.0
H228 H 0.79928 0.13758 0.63659 0.0
H229 H 0.83232 0.19564 0.60211 0.0
H230 H 0.87867 0.16226 0.58034 0.0
Co231 Co 0.84523 0.86876 0.66008 0.0
C232 C 0.84776 0.9109 0.65599 0.0
C233 C 0.82611 0.90246 0.6754 0.0
C234 C 0.82832 0.92164 0.67677 0.0
N235 N 0.83798 0.89547 0.66207 0.0
N236 N 0.84209 0.92695 0.66478 0.0
H237 H 0.85999 0.91025 0.64678 0.0
H238 H 0.81792 0.89431 0.68533 0.0
C239 C 0.80454 0.86401 0.67099 0.0
O240 O 0.79987 0.87294 0.65535 0.0
N241 N 0.85277 0.84245 0.65967 0.0
C242 C 0.86082 0.83227 0.64564 0.0
C243 C 0.86399 0.81409 0.65222 0.0
C244 C 0.85168 0.83066 0.67461 0.0
N245 N 0.85833 0.81327 0.67046 0.0
C246 C 0.8364 0.87799 0.62163 0.0
C247 C 0.81875 0.84405 0.61318 0.0
C248 C 0.82387 0.85623 0.5984 0.0
C249 C 0.83203 0.87372 0.60283 0.0
C250 C 0.82289 0.84909 0.63188 0.0
N251 N 0.83235 0.86554 0.63586 0.0
H252 H 0.84441 0.89063 0.62445 0.0
H253 H 0.8198 0.83907 0.64304 0.0
H254 H 0.86409 0.83766 0.63167 0.0
H255 H 0.84608 0.83475 0.68828 0.0
O256 O 0.86945 0.87562 0.65005 0.0
O257 O 0.86298 0.87274 0.68069 0.0
O258 O 0.82199 0.86121 0.67499 0.0
C259 C 0.8754 0.87624 0.66743 0.0
H260 H 0.82137 0.93078 0.68694 0.0
H261 H 0.87031 0.80252 0.64439 0.0
H262 H 0.81246 0.83037 0.61024 0.0
H263 H 0.83643 0.88336 0.59172 0.0
Co264 Co 0.3314 0.13122 0.15247 0.0
C265 C 0.33195 0.0889 0.15353 0.0
C266 C 0.31379 0.10079 0.17472 0.0
C267 C 0.31188 0.08149 0.17515 0.0
N268 N 0.32651 0.10557 0.1613 0.0
N269 N 0.32324 0.07391 0.1618 0.0
H270 H 0.34143 0.0878 0.14158 0.0
H271 H 0.30531 0.11051 0.18289 0.0
C272 C 0.31543 0.15694 0.18398 0.0
O273 O 0.32112 0.17266 0.17592 0.0
N274 N 0.33558 0.15679 0.14317 0.0
C275 C 0.35193 0.16641 0.1408 0.0
C276 C 0.34771 0.18454 0.13481 0.0
C277 C 0.32185 0.1688 0.1375 0.0
N278 N 0.32879 0.18593 0.1328 0.0
C279 C 0.36986 0.11994 0.15601 0.0
C280 C 0.38051 0.14667 0.18254 0.0
C281 C 0.39455 0.13707 0.17234 0.0
C282 C 0.38901 0.12283 0.15971 0.0
C283 C 0.36143 0.14337 0.17837 0.0
N284 N 0.35634 0.13093 0.1644 0.0
H285 H 0.36607 0.10982 0.14524 0.0
H286 H 0.35116 0.15216 0.18525 0.0
H287 H 0.36594 0.16092 0.14352 0.0
H288 H 0.30689 0.16559 0.13836 0.0
O289 O 0.33874 0.12191 0.128 0.0
O290 O 0.30933 0.1294 0.136 0.0
O291 O 0.31894 0.14077 0.17656 0.0
C292 C 0.32113 0.12341 0.12311 0.0
H293 H 0.3019 0.07383 0.18387 0.0
H294 H 0.3577 0.19595 0.13258 0.0
H295 H 0.38421 0.15777 0.19246 0.0
H296 H 0.39945 0.11479 0.15184 0.0
Co297 Co 0.86714 0.33378 0.14578 0.0
C298 C 0.90924 0.33748 0.14641 0.0
C299 C 0.89887 0.31355 0.16205 0.0
C300 C 0.91824 0.313 0.16215 0.0
N301 N 0.89318 0.32892 0.15235 0.0
N302 N 0.92487 0.328 0.15231 0.0
H303 H 0.9094 0.34995 0.1375 0.0
H304 H 0.88959 0.3028 0.16773 0.0
C305 C 0.84629 0.32644 0.18266 0.0
O306 O 0.83499 0.34087 0.17943 0.0
N307 N 0.84075 0.33745 0.13916 0.0
C308 C 0.83237 0.35066 0.12813 0.0
C309 C 0.8137 0.34555 0.12527 0.0
C310 C 0.82724 0.32435 0.14231 0.0
N311 N 0.81057 0.32908 0.13438 0.0
C312 C 0.86934 0.37393 0.14328 0.0
C313 C 0.86996 0.38233 0.18147 0.0
C314 C 0.86887 0.39713 0.16827 0.0
C315 C 0.86915 0.39273 0.14902 0.0
C316 C 0.8707 0.36349 0.17501 0.0
N317 N 0.86905 0.35945 0.15611 0.0
H318 H 0.86936 0.37121 0.1283 0.0
H319 H 0.8725 0.35232 0.18527 0.0
H320 H 0.83928 0.36271 0.1218 0.0
H321 H 0.82978 0.31114 0.14967 0.0
O322 O 0.87454 0.33952 0.12028 0.0
O323 O 0.86687 0.31083 0.13025 0.0
O324 O 0.85946 0.32232 0.17092 0.0
C325 C 0.87205 0.3218 0.11632 0.0
H326 H 0.92669 0.30168 0.16809 0.0
H327 H 0.80333 0.35317 0.11695 0.0
H328 H 0.87036 0.3853 0.19651 0.0
H329 H 0.86861 0.40379 0.13839 0.0
Co330 Co 0.65442 0.86841 0.15996 0.0
C331 C 0.65792 0.91054 0.15634 0.0
C332 C 0.65269 0.90151 0.18487 0.0
C333 C 0.65455 0.92088 0.18476 0.0
N334 N 0.65486 0.89497 0.16708 0.0
N335 N 0.65785 0.92661 0.1668 0.0
H336 H 0.66 0.91022 0.1412 0.0
H337 H 0.65004 0.89275 0.19715 0.0
C338 C 0.67351 0.84831 0.19357 0.0
O339 O 0.66804 0.83143 0.18809 0.0
N340 N 0.65428 0.84197 0.15265 0.0
C341 C 0.63947 0.83126 0.14722 0.0
C342 C 0.6461 0.81365 0.14196 0.0
C343 C 0.6697 0.83113 0.14964 0.0
N344 N 0.66516 0.81353 0.14366 0.0
C345 C 0.61589 0.87738 0.16528 0.0
C346 C 0.60645 0.84766 0.18891 0.0
C347 C 0.5919 0.85844 0.18072 0.0
C348 C 0.59692 0.87395 0.16938 0.0
C349 C 0.62536 0.85168 0.1845 0.0
N350 N 0.6298 0.86586 0.17212 0.0
H351 H 0.61934 0.88866 0.15553 0.0
H352 H 0.63607 0.84245 0.18998 0.0
H353 H 0.62489 0.83592 0.14692 0.0
H354 H 0.68391 0.83597 0.15264 0.0
O355 O 0.6453 0.87446 0.13511 0.0
O356 O 0.67568 0.87222 0.14281 0.0
O357 O 0.66884 0.86317 0.18429 0.0
C358 C 0.66288 0.87492 0.12975 0.0
H359 H 0.65388 0.92994 0.19709 0.0
H360 H 0.63746 0.80194 0.13718 0.0
H361 H 0.60323 0.83569 0.19796 0.0
H362 H 0.58627 0.88261 0.16255 0.0
Co363 Co 0.12634 0.66594 0.15892 0.0
C364 C 0.08367 0.66618 0.15564 0.0
C365 C 0.09537 0.69052 0.1694 0.0
C366 C 0.07633 0.69329 0.16743 0.0
N367 N 0.10008 0.67334 0.16252 0.0
N368 N 0.06888 0.67801 0.15878 0.0
H369 H 0.08258 0.6532 0.14771 0.0
H370 H 0.10535 0.70092 0.17457 0.0
C371 C 0.12368 0.67599 0.19957 0.0
O372 O 0.10893 0.66466 0.20023 0.0
N373 N 0.15267 0.66007 0.15521 0.0
C374 C 0.16062 0.64486 0.14689 0.0
C375 C 0.17992 0.64788 0.14575 0.0
C376 C 0.16697 0.67204 0.15892 0.0
N377 N 0.18382 0.665 0.15335 0.0
C378 C 0.11281 0.62781 0.16101 0.0
C379 C 0.13776 0.61633 0.18887 0.0
C380 C 0.12828 0.60251 0.17826 0.0
C381 C 0.11505 0.60852 0.16473 0.0
C382 C 0.1352 0.63548 0.18462 0.0
N383 N 0.1231 0.64109 0.17055 0.0
H384 H 0.10437 0.63174 0.14897 0.0
H385 H 0.14448 0.64555 0.1914 0.0
H386 H 0.15291 0.63273 0.1416 0.0
H387 H 0.16486 0.68609 0.16467 0.0
O388 O 0.12107 0.65882 0.13321 0.0
O389 O 0.12946 0.6877 0.14233 0.0
O390 O 0.13282 0.67803 0.18405 0.0
C391 C 0.12495 0.67619 0.12861 0.0
H392 H 0.0688 0.70614 0.17103 0.0
H393 H 0.19017 0.63837 0.13948 0.0
H394 H 0.14809 0.6124 0.19949 0.0
H395 H 0.10775 0.59843 0.15578 0.0
Co396 Co 0.35138 0.86481 0.84383 0.0
C397 C 0.34752 0.90688 0.84545 0.0
C398 C 0.35773 0.89716 0.81855 0.0
C399 C 0.35561 0.91651 0.81772 0.0
N400 N 0.35281 0.89111 0.83599 0.0
N401 N 0.34911 0.92257 0.83462 0.0
H402 H 0.34249 0.90704 0.85989 0.0
H403 H 0.36215 0.88804 0.80705 0.0
C404 C 0.3298 0.84574 0.81121 0.0
O405 O 0.33393 0.82855 0.8169 0.0
N406 N 0.34951 0.83866 0.85183 0.0
C407 C 0.36345 0.82665 0.85697 0.0
C408 C 0.35536 0.80971 0.86252 0.0
C409 C 0.33326 0.82928 0.85522 0.0
N410 N 0.3364 0.81142 0.86114 0.0
C411 C 0.39046 0.87006 0.83731 0.0
C412 C 0.39611 0.84038 0.81244 0.0
C413 C 0.4119 0.84998 0.81971 0.0
C414 C 0.4088 0.86539 0.83185 0.0
C415 C 0.37791 0.84557 0.81828 0.0
N416 N 0.37531 0.85985 0.83107 0.0
H417 H 0.38845 0.88143 0.84736 0.0
H418 H 0.36625 0.8373 0.8133 0.0
H419 H 0.37841 0.82987 0.85659 0.0
H420 H 0.31936 0.83522 0.85265 0.0
O421 O 0.36166 0.87076 0.86829 0.0
O422 O 0.331 0.87074 0.86137 0.0
O423 O 0.33597 0.86032 0.82004 0.0
C424 C 0.34433 0.87281 0.87401 0.0
H425 H 0.35812 0.92535 0.80545 0.0
H426 H 0.36282 0.79693 0.86653 0.0
H427 H 0.39783 0.82851 0.80288 0.0
H428 H 0.42049 0.87313 0.83807 0.0
Co429 Co 0.13393 0.33764 0.84412 0.0
C430 C 0.09223 0.34308 0.84836 0.0
C431 C 0.09916 0.32296 0.82681 0.0
C432 C 0.08004 0.32235 0.82975 0.0
N433 N 0.10699 0.3363 0.8381 0.0
N434 N 0.07569 0.33481 0.84347 0.0
H435 H 0.09371 0.35239 0.86043 0.0
H436 H 0.10679 0.31275 0.81841 0.0
C437 C 0.13558 0.32923 0.80272 0.0
O438 O 0.12553 0.34461 0.79975 0.0
N439 N 0.16049 0.33754 0.85038 0.0
C440 C 0.17118 0.35104 0.85865 0.0
C441 C 0.18943 0.34416 0.86051 0.0
C442 C 0.17206 0.32267 0.84775 0.0
N443 N 0.18978 0.32629 0.85375 0.0
C444 C 0.12554 0.37706 0.83869 0.0
C445 C 0.15754 0.38498 0.81751 0.0
C446 C 0.14659 0.39997 0.82441 0.0
C447 C 0.13002 0.39586 0.83448 0.0
C448 C 0.15237 0.36637 0.82171 0.0
N449 N 0.13684 0.36258 0.83267 0.0
H450 H 0.11379 0.37435 0.84798 0.0
H451 H 0.16167 0.35504 0.81728 0.0
H452 H 0.16609 0.36482 0.86298 0.0
H453 H 0.16755 0.3094 0.84152 0.0
O454 O 0.12816 0.34572 0.86943 0.0
O455 O 0.13074 0.31569 0.86028 0.0
O456 O 0.14018 0.32446 0.81957 0.0
C457 C 0.12771 0.32785 0.87385 0.0
H458 H 0.07028 0.31253 0.82316 0.0
H459 H 0.20136 0.35152 0.86671 0.0
H460 H 0.17051 0.38764 0.80975 0.0
H461 H 0.12139 0.40712 0.84035 0.0
Co462 Co 0.66382 0.1306 0.84908 0.0
C463 C 0.65715 0.08879 0.85117 0.0
C464 C 0.67693 0.09606 0.82943 0.0
C465 C 0.67588 0.0767 0.83046 0.0
N466 N 0.6646 0.10385 0.84186 0.0
N467 N 0.66353 0.07217 0.84418 0.0
H468 H 0.64813 0.08982 0.86351 0.0
H469 H 0.68737 0.10363 0.82126 0.0
C470 C 0.67169 0.13376 0.80773 0.0
O471 O 0.65614 0.12394 0.80493 0.0
N472 N 0.66428 0.15685 0.8566 0.0
C473 C 0.6518 0.16629 0.86749 0.0
C474 C 0.65883 0.18423 0.8708 0.0
C475 C 0.67868 0.16894 0.85357 0.0
N476 N 0.6758 0.18584 0.86208 0.0
C477 C 0.62433 0.123 0.84365 0.0
C478 C 0.61632 0.15572 0.82366 0.0
C479 C 0.60131 0.14431 0.82985 0.0
C480 C 0.60557 0.12751 0.83952 0.0
C481 C 0.63497 0.15056 0.82789 0.0
N482 N 0.63881 0.13447 0.83802 0.0
H483 H 0.62699 0.11094 0.85253 0.0
H484 H 0.64629 0.16005 0.82389 0.0
H485 H 0.63877 0.1604 0.87299 0.0
H486 H 0.69115 0.16521 0.84551 0.0
O487 O 0.65558 0.12375 0.87397 0.0
O488 O 0.68571 0.12632 0.86524 0.0
O489 O 0.67693 0.13774 0.82462 0.0
C490 C 0.67334 0.12279 0.87853 0.0
H491 H 0.68467 0.06673 0.82281 0.0
H492 H 0.65221 0.19496 0.87951 0.0
H493 H 0.61366 0.16885 0.81618 0.0
H494 H 0.59443 0.11852 0.84503 0.0
Co495 Co 0.87193 0.64725 0.84442 0.0
C496 C 0.914 0.64501 0.84807 0.0
C497 C 0.90513 0.64854 0.81927 0.0
C498 C 0.92448 0.65018 0.81997 0.0
N499 N 0.89841 0.64538 0.8369 0.0
N500 N 0.93001 0.64811 0.83808 0.0
H501 H 0.91374 0.64392 0.86333 0.0
H502 H 0.89666 0.65098 0.80681 0.0
C503 C 0.85341 0.6664 0.81091 0.0
O504 O 0.83896 0.65474 0.81216 0.0
N505 N 0.84565 0.64997 0.852 0.0
C506 C 0.83397 0.63756 0.86071 0.0
C507 C 0.81718 0.64661 0.86495 0.0
C508 C 0.83602 0.66646 0.85172 0.0
N509 N 0.81853 0.66471 0.8591 0.0
C510 C 0.86249 0.60821 0.84014 0.0
C511 C 0.85934 0.60693 0.80119 0.0
C512 C 0.85391 0.59119 0.81189 0.0
C513 C 0.85604 0.59174 0.83149 0.0
C514 C 0.86567 0.62331 0.8105 0.0
N515 N 0.8661 0.62424 0.8299 0.0
H516 H 0.864 0.60803 0.8553 0.0
H517 H 0.86982 0.63514 0.80189 0.0
H518 H 0.83735 0.62314 0.86437 0.0
H519 H 0.84187 0.67963 0.84651 0.0
O520 O 0.87733 0.63545 0.86841 0.0
O521 O 0.87828 0.66634 0.86331 0.0
O522 O 0.86744 0.66488 0.82225 0.0
C523 C 0.87959 0.65233 0.87527 0.0
H524 H 0.93369 0.65363 0.8082 0.0
H525 H 0.80493 0.64035 0.8717 0.0
H526 H 0.85837 0.6067 0.78588 0.0
H527 H 0.85249 0.57956 0.84013 0.0
Co528 Co 0.15452 0.35077 0.12489 0.0
C529 C 0.14963 0.34351 0.08344 0.0
C530 C 0.17811 0.35094 0.09102 0.0
C531 C 0.17783 0.34614 0.07216 0.0
N532 N 0.16048 0.34919 0.09816 0.0
N533 N 0.15996 0.34149 0.06749 0.0
H534 H 0.13476 0.34004 0.0844 0.0
H535 H 0.19049 0.35476 0.09917 0.0
C536 C 0.18826 0.33053 0.14368 0.0
O537 O 0.18452 0.33714 0.16065 0.0
N538 N 0.14862 0.35187 0.15162 0.0
C539 C 0.14559 0.36711 0.16274 0.0
C540 C 0.14169 0.3609 0.18087 0.0
C541 C 0.14551 0.33673 0.1628 0.0
N542 N 0.14171 0.34179 0.1808 0.0
C543 C 0.16096 0.38885 0.11492 0.0
C544 C 0.18645 0.39776 0.14319 0.0
C545 C 0.17778 0.41249 0.13305 0.0
C546 C 0.16563 0.40774 0.11811 0.0
C547 C 0.18147 0.37895 0.13941 0.0
N548 N 0.168 0.37481 0.12617 0.0
H549 H 0.15053 0.38561 0.10422 0.0
H550 H 0.18733 0.36814 0.14825 0.0
H551 H 0.14623 0.38169 0.15808 0.0
H552 H 0.14707 0.32225 0.15801 0.0
O553 O 0.12983 0.36102 0.11968 0.0
O554 O 0.13617 0.33037 0.12248 0.0
O555 O 0.17812 0.33506 0.12936 0.0
C556 C 0.12363 0.34372 0.11997 0.0
H557 H 0.18987 0.34578 0.06267 0.0
H558 H 0.13911 0.36973 0.19313 0.0
H559 H 0.1962 0.40078 0.15464 0.0
H560 H 0.15851 0.41855 0.10989 0.0
Co561 Co 0.15447 0.65425 0.87634 0.0
C562 C 0.15293 0.65932 0.91834 0.0
C563 C 0.1806 0.6517 0.90839 0.0
C564 C 0.18168 0.65524 0.92751 0.0
N565 N 0.16259 0.6543 0.90259 0.0
N566 N 0.16429 0.66004 0.9337 0.0
H567 H 0.13814 0.66321 0.91858 0.0
H568 H 0.1923 0.64806 0.89919 0.0
C569 C 0.18624 0.67612 0.85597 0.0
O570 O 0.18033 0.67147 0.83899 0.0
N571 N 0.14614 0.65467 0.85018 0.0
C572 C 0.14117 0.64002 0.83901 0.0
C573 C 0.13548 0.64707 0.8217 0.0
C574 C 0.14224 0.67033 0.84001 0.0
N575 N 0.13639 0.66619 0.82227 0.0
C576 C 0.16319 0.61575 0.88375 0.0
C577 C 0.18526 0.60939 0.85204 0.0
C578 C 0.17943 0.59397 0.86302 0.0
C579 C 0.16894 0.59733 0.87948 0.0
C580 C 0.17961 0.62766 0.85709 0.0
N581 N 0.16799 0.63057 0.87228 0.0
H582 H 0.15393 0.61801 0.89572 0.0
H583 H 0.18331 0.63905 0.8478 0.0
H584 H 0.14171 0.62527 0.84308 0.0
H585 H 0.14483 0.68448 0.84528 0.0
O586 O 0.13036 0.64352 0.88296 0.0
O587 O 0.13641 0.67435 0.88143 0.0
O588 O 0.1778 0.67014 0.87086 0.0
C589 C 0.1241 0.6608 0.88398 0.0
H590 H 0.19432 0.65458 0.93615 0.0
H591 H 0.13118 0.63868 0.80963 0.0
H592 H 0.19333 0.60723 0.83916 0.0
H593 H 0.16405 0.58569 0.8882 0.0
Co594 Co 0.34311 0.14635 0.8693 0.0
C595 C 0.33952 0.14277 0.91139 0.0
C596 C 0.34113 0.17168 0.90231 0.0
C597 C 0.33788 0.17143 0.92148 0.0
N598 N 0.34213 0.15372 0.89585 0.0
N599 N 0.33674 0.15326 0.92716 0.0
H600 H 0.33875 0.12749 0.91118 0.0
H601 H 0.34184 0.18427 0.89368 0.0
C602 C 0.3313 0.18197 0.84862 0.0
O603 O 0.34454 0.17944 0.83578 0.0
N604 N 0.34328 0.13916 0.84278 0.0
C605 C 0.35623 0.12939 0.83266 0.0
C606 C 0.34907 0.12616 0.81473 0.0
C607 C 0.32835 0.14123 0.83108 0.0
N608 N 0.33161 0.1338 0.81382 0.0
C609 C 0.38332 0.14459 0.8674 0.0
C610 C 0.39125 0.18279 0.86488 0.0
C611 C 0.40614 0.16974 0.86433 0.0
C612 C 0.402 0.1505 0.86587 0.0
C613 C 0.37257 0.17624 0.86687 0.0
N614 N 0.36864 0.15722 0.86733 0.0
H615 H 0.38089 0.12959 0.8684 0.0
H616 H 0.36155 0.18665 0.86816 0.0
H617 H 0.3697 0.12445 0.83786 0.0
H618 H 0.31512 0.14775 0.83526 0.0
O619 O 0.35031 0.12103 0.87615 0.0
O620 O 0.32067 0.13047 0.87239 0.0
O621 O 0.32971 0.17065 0.86265 0.0
C622 C 0.3325 0.11673 0.87583 0.0
H623 H 0.3361 0.18372 0.93047 0.0
H624 H 0.35615 0.11883 0.80327 0.0
H625 H 0.39404 0.19786 0.86409 0.0
H626 H 0.41318 0.13999 0.86559 0.0
Co627 Co 0.85005 0.35233 0.86765 0.0
C628 C 0.84592 0.34465 0.90835 0.0
C629 C 0.83746 0.37324 0.9027 0.0
C630 C 0.83688 0.37028 0.92196 0.0
N631 N 0.84347 0.35721 0.89409 0.0
N632 N 0.84225 0.35233 0.92544 0.0
H633 H 0.85113 0.33037 0.9064 0.0
H634 H 0.83369 0.38633 0.89589 0.0
C635 C 0.8109 0.33773 0.87201 0.0
O636 O 0.80672 0.35375 0.88049 0.0
N637 N 0.85686 0.34685 0.84177 0.0
C638 C 0.86643 0.35818 0.82977 0.0
C639 C 0.86919 0.34856 0.81301 0.0
C640 C 0.85388 0.33057 0.83225 0.0
N641 N 0.86126 0.33125 0.81461 0.0
C642 C 0.84415 0.39165 0.86191 0.0
C643 C 0.81649 0.38855 0.8344 0.0
C644 C 0.82504 0.40613 0.83765 0.0
C645 C 0.83865 0.40766 0.8519 0.0
C646 C 0.82253 0.37269 0.84475 0.0
N647 N 0.83621 0.37436 0.85841 0.0
H648 H 0.85554 0.39308 0.872 0.0
H649 H 0.81723 0.35894 0.84071 0.0
H650 H 0.87118 0.37237 0.83303 0.0
H651 H 0.84688 0.31833 0.83825 0.0
O652 O 0.87405 0.36453 0.87141 0.0
O653 O 0.86888 0.33393 0.87591 0.0
O654 O 0.82752 0.33503 0.86543 0.0
C655 C 0.88069 0.34811 0.87619 0.0
H656 H 0.83308 0.38062 0.93263 0.0
H657 H 0.87635 0.35394 0.80056 0.0
H658 H 0.8062 0.38684 0.82315 0.0
H659 H 0.84564 0.42103 0.85469 0.0
Co660 Co 0.65803 0.84495 0.87517 0.0
C661 C 0.66112 0.84706 0.9174 0.0
C662 C 0.65755 0.81866 0.90719 0.0
C663 C 0.6591 0.81808 0.92658 0.0
N664 N 0.6587 0.83682 0.9014 0.0
N665 N 0.66138 0.83593 0.93298 0.0
H666 H 0.66249 0.86229 0.9178 0.0
H667 H 0.65581 0.80661 0.89788 0.0
C668 C 0.68346 0.81607 0.85481 0.0
O669 O 0.67806 0.82151 0.8379 0.0
N670 N 0.65755 0.85328 0.84904 0.0
C671 C 0.64244 0.85581 0.83769 0.0
C672 C 0.64871 0.86202 0.82028 0.0
C673 C 0.67257 0.85912 0.83883 0.0
N674 N 0.66776 0.86381 0.8209 0.0
C675 C 0.62057 0.83266 0.88178 0.0
C676 C 0.61755 0.80763 0.85184 0.0
C677 C 0.60117 0.81267 0.86188 0.0
C678 C 0.60302 0.82481 0.87749 0.0
C679 C 0.63493 0.81579 0.85669 0.0
N680 N 0.63612 0.82875 0.87101 0.0
H681 H 0.6215 0.84278 0.89322 0.0
H682 H 0.64694 0.81256 0.84803 0.0
H683 H 0.6279 0.85312 0.84167 0.0
H684 H 0.68691 0.85851 0.84415 0.0
O685 O 0.64448 0.86759 0.88166 0.0
O686 O 0.67577 0.86534 0.88057 0.0
O687 O 0.67658 0.82364 0.86978 0.0
C688 C 0.6608 0.87591 0.88305 0.0
H689 H 0.6589 0.80545 0.93526 0.0
H690 H 0.63987 0.86462 0.80805 0.0
H691 H 0.61682 0.79815 0.83981 0.0
H692 H 0.5908 0.82932 0.88558 0.0
Co693 Co 0.84255 0.65416 0.12969 0.0
C694 C 0.84598 0.65052 0.08757 0.0
C695 C 0.82337 0.66891 0.09579 0.0
C696 C 0.82585 0.67053 0.07666 0.0
N697 N 0.83569 0.65606 0.10287 0.0
N698 N 0.84021 0.65919 0.07149 0.0
H699 H 0.8586 0.64187 0.08836 0.0
H700 H 0.81458 0.67835 0.10391 0.0
C701 C 0.80119 0.66307 0.13392 0.0
O702 O 0.79719 0.64756 0.12445 0.0
N703 N 0.84955 0.65382 0.15611 0.0
C704 C 0.85915 0.64067 0.16603 0.0
C705 C 0.86169 0.64736 0.18425 0.0
C706 C 0.84666 0.6683 0.16816 0.0
N707 N 0.85379 0.66477 0.18554 0.0
C708 C 0.83677 0.61526 0.12025 0.0
C709 C 0.81807 0.60556 0.15327 0.0
C710 C 0.82489 0.59109 0.14149 0.0
C711 C 0.83368 0.5962 0.12443 0.0
C712 C 0.82127 0.62452 0.14844 0.0
N713 N 0.83109 0.62918 0.13239 0.0
H714 H 0.84515 0.61867 0.10799 0.0
H715 H 0.81704 0.63542 0.15833 0.0
H716 H 0.86404 0.62729 0.16039 0.0
H717 H 0.84004 0.68145 0.16396 0.0
O718 O 0.86746 0.64573 0.12304 0.0
O719 O 0.85908 0.67588 0.12642 0.0
O720 O 0.81843 0.66761 0.13706 0.0
C721 C 0.87229 0.66346 0.12281 0.0
H722 H 0.81862 0.68045 0.06747 0.0
H723 H 0.86885 0.63995 0.19559 0.0
H724 H 0.81109 0.60226 0.16653 0.0
H725 H 0.83949 0.58555 0.11504 0.0
Co726 Co 0.33685 0.84471 0.12965 0.0
C727 C 0.33896 0.84735 0.08688 0.0
C728 C 0.31412 0.83368 0.09756 0.0
C729 C 0.31228 0.83542 0.07839 0.0
N730 N 0.33104 0.84062 0.10302 0.0
N731 N 0.32788 0.84399 0.07155 0.0
H732 H 0.35187 0.85544 0.08634 0.0
H733 H 0.30317 0.82875 0.10707 0.0
C734 C 0.32621 0.80421 0.12758 0.0
O735 O 0.3386 0.80295 0.11373 0.0
N736 N 0.3409 0.84889 0.15628 0.0
C737 C 0.35585 0.85641 0.16539 0.0
C738 C 0.35154 0.85736 0.18448 0.0
C739 C 0.3278 0.84554 0.16967 0.0
N740 N 0.33387 0.85047 0.1871 0.0
C741 C 0.37542 0.84058 0.11792 0.0
C742 C 0.38487 0.81322 0.14427 0.0
C743 C 0.39942 0.82239 0.13435 0.0
C744 C 0.3944 0.83577 0.12056 0.0
C745 C 0.36605 0.81852 0.14125 0.0
N746 N 0.36146 0.83222 0.12832 0.0
H747 H 0.37231 0.8524 0.10885 0.0
H748 H 0.35539 0.81268 0.15052 0.0
H749 H 0.3688 0.86103 0.15865 0.0
H750 H 0.31379 0.84024 0.16649 0.0
O751 O 0.34526 0.86996 0.12419 0.0
O752 O 0.31555 0.86214 0.13082 0.0
O753 O 0.32363 0.82008 0.13595 0.0
C754 C 0.32786 0.87527 0.12663 0.0
H755 H 0.29977 0.83176 0.07036 0.0
H756 H 0.36069 0.8628 0.1955 0.0
H757 H 0.38802 0.80281 0.15508 0.0
H758 H 0.40508 0.84371 0.11294 0.0
Co759 Co 0.64956 0.15217 0.13072 0.0
C760 C 0.6542 0.14873 0.08879 0.0
C761 C 0.64372 0.17596 0.09729 0.0
C762 C 0.64595 0.17597 0.07794 0.0
N763 N 0.64875 0.15885 0.1041 0.0
N764 N 0.65259 0.15886 0.07264 0.0
H765 H 0.65926 0.1343 0.08931 0.0
H766 H 0.63905 0.18777 0.10586 0.0
C767 C 0.66993 0.18568 0.14931 0.0
O768 O 0.66585 0.17989 0.16648 0.0
N769 N 0.65066 0.14533 0.15727 0.0
C770 C 0.63631 0.14155 0.16931 0.0
C771 C 0.64384 0.13608 0.1865 0.0
C772 C 0.66656 0.14115 0.16692 0.0
N773 N 0.66287 0.13587 0.18488 0.0
C774 C 0.6104 0.15702 0.12415 0.0
C775 C 0.60328 0.18346 0.15213 0.0
C776 C 0.58798 0.17522 0.14255 0.0
C777 C 0.59179 0.16228 0.12799 0.0
C778 C 0.62179 0.17793 0.14769 0.0
N779 N 0.62509 0.16433 0.13432 0.0
H780 H 0.613 0.14639 0.11345 0.0
H781 H 0.63315 0.18375 0.15589 0.0
H782 H 0.62143 0.14246 0.16587 0.0
H783 H 0.68064 0.14277 0.16109 0.0
O784 O 0.64046 0.12702 0.12556 0.0
O785 O 0.67077 0.13522 0.12622 0.0
O786 O 0.66401 0.17666 0.13475 0.0
C787 C 0.65809 0.12189 0.1245 0.0
H788 H 0.64334 0.18782 0.06857 0.0
H789 H 0.63596 0.1324 0.19912 0.0
H790 H 0.60096 0.19364 0.16337 0.0
H791 H 0.58044 0.1554 0.1203 0.0
C792 C 0.17744 0.1683 0.56911 0.0
C793 C 0.17804 0.14858 0.57207 0.0
C794 C 0.17547 0.1757 0.55084 0.0
C795 C 0.15377 0.16256 0.50623 0.0
H796 H 0.17987 0.20595 0.48489 0.0
C797 C 0.12843 0.1948 0.43683 0.0
C798 C 0.14252 0.19542 0.42277 0.0
C799 C 0.13336 0.19283 0.45588 0.0
C800 C 0.17244 0.19388 0.49075 0.0
H801 H 0.17868 0.12129 0.55796 0.0
H802 H 0.17495 0.13423 0.52612 0.0
H803 H 0.18926 0.19376 0.5161 0.0
H804 H 0.17287 0.19611 0.41794 0.0
H805 H 0.18139 0.19301 0.45121 0.0
H806 H 0.13701 0.1625 0.48106 0.0
C807 C 0.17576 0.14391 0.538 0.0
C808 C 0.17779 0.18693 0.50856 0.0
C809 C 0.17788 0.13651 0.55623 0.0
C810 C 0.16164 0.19586 0.42838 0.0
C811 C 0.16655 0.194 0.44747 0.0
C812 C 0.14829 0.16962 0.48863 0.0
C813 C 0.17392 0.16353 0.5352 0.0
C814 C 0.16862 0.17106 0.51634 0.0
C815 C 0.15246 0.19157 0.46128 0.0
C816 C 0.15759 0.18529 0.48065 0.0
H817 H 0.17728 0.17802 0.58097 0.0
H818 H 0.17401 0.19087 0.54909 0.0
H819 H 0.14627 0.15049 0.512 0.0
H820 H 0.11359 0.19475 0.43299 0.0
H821 H 0.1222 0.19135 0.46631 0.0
C822 C 0.81841 0.12615 0.4316 0.0
C823 C 0.81586 0.1396 0.41713 0.0
C824 C 0.81871 0.13175 0.45057 0.0
C825 C 0.80896 0.17047 0.48451 0.0
H826 H 0.85472 0.15208 0.50866 0.0
C827 C 0.82836 0.17845 0.5646 0.0
C828 C 0.84756 0.18176 0.56879 0.0
C829 C 0.82244 0.17604 0.54582 0.0
C830 C 0.84195 0.15745 0.50208 0.0
H831 H 0.8101 0.16924 0.41141 0.0
H832 H 0.81035 0.17892 0.44459 0.0
H833 H 0.84653 0.14102 0.4771 0.0
H834 H 0.87518 0.18704 0.55649 0.0
H835 H 0.86486 0.18275 0.5238 0.0
H836 H 0.8045 0.18693 0.50975 0.0
C837 C 0.81215 0.16407 0.44121 0.0
C838 C 0.83711 0.1509 0.4841 0.0
C839 C 0.81193 0.15848 0.42219 0.0
C840 C 0.86037 0.18417 0.55374 0.0
C841 C 0.85447 0.18168 0.53504 0.0
C842 C 0.8137 0.17688 0.50271 0.0
C843 C 0.81637 0.15089 0.45551 0.0
C844 C 0.8206 0.15734 0.47508 0.0
C845 C 0.83562 0.17683 0.53094 0.0
C846 C 0.83036 0.17054 0.51158 0.0
H847 H 0.82117 0.11145 0.42818 0.0
H848 H 0.82162 0.12121 0.46134 0.0
H849 H 0.79616 0.17569 0.47785 0.0
H850 H 0.81816 0.17636 0.57587 0.0
H851 H 0.80783 0.17229 0.54308 0.0
C852 C 0.83977 0.83126 0.42744 0.0
C853 C 0.8578 0.82431 0.42263 0.0
C854 C 0.83428 0.83273 0.44637 0.0
C855 C 0.84033 0.81494 0.49371 0.0
H856 H 0.83052 0.86623 0.51069 0.0
C857 C 0.83392 0.8338 0.5731 0.0
C858 C 0.82341 0.84979 0.57848 0.0
C859 C 0.8362 0.82925 0.55397 0.0
C860 C 0.83272 0.85173 0.50623 0.0
H861 H 0.88398 0.81289 0.43377 0.0
H862 H 0.87403 0.81489 0.46713 0.0
H863 H 0.83803 0.86035 0.47761 0.0
H864 H 0.80625 0.87302 0.56835 0.0
H865 H 0.8091 0.86448 0.53496 0.0
H866 H 0.83441 0.80607 0.52204 0.0
C867 C 0.86431 0.81932 0.45612 0.0
C868 C 0.83722 0.84844 0.48725 0.0
C869 C 0.86999 0.81823 0.43713 0.0
C870 C 0.81444 0.86063 0.56449 0.0
C871 C 0.81633 0.85583 0.54535 0.0
C872 C 0.83538 0.81814 0.51265 0.0
C873 C 0.84655 0.82694 0.46087 0.0
C874 C 0.84126 0.83007 0.48089 0.0
C875 C 0.82773 0.8404 0.53975 0.0
C876 C 0.8317 0.83664 0.51927 0.0
H877 H 0.8302 0.8363 0.41656 0.0
H878 H 0.82054 0.83867 0.44974 0.0
H879 H 0.84325 0.80062 0.48902 0.0
H880 H 0.84122 0.8254 0.58366 0.0
H881 H 0.84534 0.81748 0.5504 0.0
C882 C 0.16301 0.83955 0.57982 0.0
C883 C 0.14575 0.83069 0.58425 0.0
C884 C 0.16851 0.84195 0.56099 0.0
C885 C 0.16535 0.82389 0.5137 0.0
H886 H 0.16993 0.87588 0.49659 0.0
C887 C 0.17158 0.84277 0.43446 0.0
C888 C 0.18066 0.85962 0.42911 0.0
C889 C 0.16922 0.83826 0.45357 0.0
C890 C 0.1692 0.86126 0.50112 0.0
H891 H 0.12092 0.81701 0.57261 0.0
H892 H 0.13096 0.82066 0.53941 0.0
H893 H 0.16224 0.86935 0.52955 0.0
H894 H 0.19516 0.88457 0.43934 0.0
H895 H 0.19212 0.87624 0.47279 0.0
H896 H 0.17296 0.81561 0.48561 0.0
C897 C 0.14005 0.82585 0.55062 0.0
C898 C 0.16458 0.85757 0.52 0.0
C899 C 0.13431 0.82381 0.56951 0.0
C900 C 0.18808 0.87151 0.44317 0.0
C901 C 0.1861 0.86679 0.46233 0.0
C902 C 0.17041 0.82754 0.49489 0.0
C903 C 0.15705 0.83522 0.54625 0.0
C904 C 0.16241 0.83889 0.52637 0.0
C905 C 0.17619 0.85034 0.46783 0.0
C906 C 0.17217 0.84631 0.48823 0.0
H907 H 0.17195 0.8452 0.59093 0.0
H908 H 0.18166 0.84923 0.5579 0.0
H909 H 0.16393 0.80936 0.51843 0.0
H910 H 0.16544 0.83353 0.42386 0.0
H911 H 0.16119 0.82569 0.45707 0.0
C912 C 0.42385 0.147 0.15542 0.0
C913 C 0.41447 0.14368 0.17265 0.0
C914 C 0.44219 0.15423 0.15518 0.0
C915 C 0.48575 0.15682 0.18206 0.0
H916 H 0.4983 0.19601 0.14563 0.0
C917 C 0.56329 0.17798 0.16797 0.0
C918 C 0.56813 0.17853 0.14866 0.0
C919 C 0.54429 0.17788 0.17358 0.0
C920 C 0.49506 0.18505 0.15587 0.0
H921 H 0.41694 0.14535 0.20319 0.0
H922 H 0.44951 0.15771 0.20278 0.0
H923 H 0.46528 0.18723 0.15065 0.0
H924 H 0.55691 0.18078 0.12018 0.0
H925 H 0.52389 0.18027 0.12985 0.0
H926 H 0.51555 0.15391 0.1866 0.0
C927 C 0.44246 0.15474 0.18948 0.0
C928 C 0.47615 0.18007 0.15877 0.0
C929 C 0.42389 0.14772 0.18972 0.0
C930 C 0.55362 0.18013 0.13516 0.0
C931 C 0.53467 0.18004 0.14074 0.0
C932 C 0.50471 0.16171 0.17906 0.0
C933 C 0.45169 0.15823 0.17217 0.0
C934 C 0.47136 0.16551 0.17146 0.0
C935 C 0.52975 0.17838 0.15999 0.0
C936 C 0.50962 0.17548 0.16549 0.0
H937 H 0.41684 0.14436 0.14202 0.0
H938 H 0.44903 0.15652 0.14163 0.0
H939 H 0.48245 0.14548 0.19186 0.0
H940 H 0.57414 0.17661 0.17872 0.0
H941 H 0.54098 0.17684 0.18852 0.0
C942 C 0.82177 0.55627 0.13474 0.0
C943 C 0.82505 0.57096 0.14777 0.0
C944 C 0.82508 0.53741 0.13977 0.0
C945 C 0.83425 0.50462 0.18001 0.0
H946 H 0.86214 0.47678 0.14179 0.0
C947 C 0.84971 0.4234 0.18223 0.0
C948 C 0.86662 0.41721 0.17381 0.0
C949 C 0.84504 0.44271 0.1823 0.0
C950 C 0.85456 0.48438 0.15274 0.0
H951 H 0.83353 0.57719 0.17664 0.0
H952 H 0.83927 0.54426 0.18541 0.0
H953 H 0.85163 0.50879 0.13513 0.0
H954 H 0.89261 0.42622 0.16035 0.0
H955 H 0.88486 0.4599 0.16103 0.0
H956 H 0.83746 0.48005 0.19768 0.0
C957 C 0.83399 0.54732 0.17134 0.0
C958 C 0.84823 0.50267 0.14879 0.0
C959 C 0.83065 0.56622 0.16631 0.0
C960 C 0.8795 0.43069 0.16695 0.0
C961 C 0.87493 0.44993 0.16713 0.0
C962 C 0.84054 0.48618 0.18396 0.0
C963 C 0.83181 0.53275 0.15794 0.0
C964 C 0.83796 0.51304 0.16232 0.0
C965 C 0.85725 0.45609 0.17395 0.0
C966 C 0.85087 0.47589 0.17038 0.0
H967 H 0.81718 0.55942 0.12044 0.0
H968 H 0.82283 0.52649 0.12924 0.0
H969 H 0.82632 0.51221 0.19073 0.0
H970 H 0.83945 0.41321 0.18737 0.0
H971 H 0.83131 0.44696 0.18764 0.0
C972 C 0.55719 0.86601 0.18245 0.0
C973 C 0.57174 0.85243 0.18184 0.0
C974 C 0.53837 0.86071 0.17956 0.0
C975 C 0.50526 0.84714 0.15585 0.0
H976 H 0.47927 0.80425 0.1783 0.0
C977 C 0.43418 0.82139 0.1265 0.0
C978 C 0.41961 0.82015 0.14004 0.0
C979 C 0.45308 0.8227 0.13218 0.0
C980 C 0.48641 0.81623 0.17191 0.0
H981 H 0.57767 0.82239 0.17898 0.0
H982 H 0.54471 0.81313 0.17437 0.0
H983 H 0.5113 0.81254 0.18901 0.0
H984 H 0.41376 0.81829 0.1702 0.0
H985 H 0.44675 0.8201 0.17997 0.0
H986 H 0.48057 0.85089 0.13875 0.0
C987 C 0.54795 0.82789 0.177 0.0
C988 C 0.50469 0.82094 0.178 0.0
C989 C 0.56683 0.83322 0.17973 0.0
C990 C 0.42455 0.81896 0.15933 0.0
C991 C 0.44348 0.82008 0.16498 0.0
C992 C 0.48716 0.84229 0.14961 0.0
C993 C 0.53365 0.84168 0.17618 0.0
C994 C 0.51421 0.83656 0.17013 0.0
C995 C 0.45787 0.82259 0.1515 0.0
C996 C 0.47751 0.82685 0.15761 0.0
H997 H 0.56043 0.88088 0.18442 0.0
H998 H 0.52756 0.87159 0.17937 0.0
H999 H 0.51235 0.85908 0.14933 0.0
H1000 H 0.43093 0.82199 0.11153 0.0
H1001 H 0.46395 0.82431 0.12146 0.0
C1002 C 0.17899 0.44741 0.12629 0.0
C1003 C 0.17902 0.4325 0.1395 0.0
C1004 C 0.17591 0.46604 0.13219 0.0
C1005 C 0.17405 0.49826 0.17341 0.0
H1006 H 0.13451 0.52298 0.14436 0.0
C1007 C 0.15351 0.57754 0.18043 0.0
C1008 C 0.13418 0.58227 0.17904 0.0
C1009 C 0.15953 0.55884 0.17803 0.0
C1010 C 0.14544 0.51621 0.15272 0.0
H1011 H 0.17713 0.42573 0.16944 0.0
H1012 H 0.17209 0.4583 0.1797 0.0
H1013 H 0.14585 0.49187 0.13472 0.0
H1014 H 0.10598 0.57073 0.17531 0.0
H1015 H 0.11656 0.5381 0.17087 0.0
H1016 H 0.17355 0.52274 0.19143 0.0
C1017 C 0.17441 0.45553 0.16479 0.0
C1018 C 0.15214 0.49851 0.14703 0.0
C1019 C 0.1774 0.43686 0.15889 0.0
C1020 C 0.12097 0.56765 0.17617 0.0
C1021 C 0.12703 0.54897 0.17362 0.0
C1022 C 0.16746 0.51612 0.17901 0.0
C1023 C 0.17291 0.47019 0.15143 0.0
C1024 C 0.16652 0.48934 0.15728 0.0
C1025 C 0.14641 0.54447 0.17402 0.0
C1026 C 0.15303 0.52523 0.16874 0.0
H1027 H 0.18053 0.44457 0.1113 0.0
H1028 H 0.17522 0.47713 0.12161 0.0
H1029 H 0.18513 0.49151 0.18157 0.0
H1030 H 0.16416 0.58841 0.18228 0.0
H1031 H 0.17457 0.55584 0.17825 0.0
C1032 C 0.44669 0.85562 0.81533 0.0
C1033 C 0.43147 0.84286 0.81664 0.0
C1034 C 0.4653 0.84917 0.81676 0.0
C1035 C 0.49778 0.80911 0.81506 0.0
H1036 H 0.52121 0.83336 0.85845 0.0
C1037 C 0.57779 0.8091 0.83539 0.0
C1038 C 0.58201 0.80764 0.85482 0.0
C1039 C 0.55901 0.80894 0.82915 0.0
C1040 C 0.51479 0.82634 0.84641 0.0
H1041 H 0.424 0.81309 0.8188 0.0
H1042 H 0.45664 0.80185 0.82079 0.0
H1043 H 0.4897 0.84313 0.84842 0.0
H1044 H 0.56994 0.80266 0.88264 0.0
H1045 H 0.53714 0.80284 0.87176 0.0
H1046 H 0.52332 0.79265 0.81286 0.0
C1047 C 0.45404 0.81684 0.81882 0.0
C1048 C 0.49689 0.83209 0.84054 0.0
C1049 C 0.43536 0.82332 0.81761 0.0
C1050 C 0.56715 0.80425 0.86764 0.0
C1051 C 0.5484 0.80428 0.86143 0.0
C1052 C 0.51598 0.80358 0.82073 0.0
C1053 C 0.46907 0.82981 0.81923 0.0
C1054 C 0.48824 0.8236 0.82481 0.0
C1055 C 0.54415 0.80745 0.84226 0.0
C1056 C 0.52457 0.81213 0.83653 0.0
H1057 H 0.4442 0.87071 0.81414 0.0
H1058 H 0.47673 0.8594 0.81681 0.0
H1059 H 0.49129 0.80234 0.80292 0.0
H1060 H 0.58886 0.81186 0.82513 0.0
H1061 H 0.55608 0.81149 0.81431 0.0
C1062 C 0.14201 0.43452 0.81748 0.0
C1063 C 0.15371 0.41965 0.8236 0.0
C1064 C 0.1481 0.45331 0.81904 0.0
C1065 C 0.17328 0.48297 0.8502 0.0
H1066 H 0.17891 0.51934 0.80947 0.0
C1067 C 0.19062 0.5606 0.86723 0.0
C1068 C 0.18179 0.57441 0.85605 0.0
C1069 C 0.19056 0.54162 0.86155 0.0
C1070 C 0.17717 0.50948 0.82107 0.0
H1071 H 0.18093 0.41261 0.83589 0.0
H1072 H 0.1913 0.44555 0.83913 0.0
H1073 H 0.1715 0.48634 0.80211 0.0
H1074 H 0.16617 0.57952 0.83021 0.0
H1075 H 0.16512 0.54646 0.82071 0.0
H1076 H 0.17755 0.5059 0.86932 0.0
C1077 C 0.17765 0.4426 0.83278 0.0
C1078 C 0.17307 0.49057 0.81678 0.0
C1079 C 0.17176 0.42383 0.83084 0.0
C1080 C 0.17332 0.56909 0.83891 0.0
C1081 C 0.17283 0.55009 0.83345 0.0
C1082 C 0.1769 0.50191 0.85453 0.0
C1083 C 0.16577 0.45746 0.82713 0.0
C1084 C 0.17103 0.47723 0.83133 0.0
C1085 C 0.18115 0.53599 0.84485 0.0
C1086 C 0.17877 0.51552 0.84005 0.0
H1087 H 0.12801 0.43161 0.81193 0.0
H1088 H 0.13867 0.46464 0.81475 0.0
H1089 H 0.17156 0.47288 0.86164 0.0
H1090 H 0.19726 0.56446 0.88051 0.0
H1091 H 0.19759 0.53134 0.87049 0.0
C1092 C 0.43244 0.18292 0.84465 0.0
C1093 C 0.4261 0.17545 0.86195 0.0
C1094 C 0.45184 0.18335 0.84047 0.0
C1095 C 0.49367 0.15551 0.85261 0.0
H1096 H 0.52204 0.193 0.82424 0.0
C1097 C 0.56697 0.13753 0.82398 0.0
C1098 C 0.58131 0.15064 0.82823 0.0
C1099 C 0.54794 0.14256 0.82576 0.0
C1100 C 0.51427 0.18243 0.83219 0.0
H1101 H 0.4348 0.16414 0.88905 0.0
H1102 H 0.46861 0.16537 0.88207 0.0
H1103 H 0.48927 0.19974 0.83374 0.0
H1104 H 0.58689 0.17965 0.83663 0.0
H1105 H 0.55359 0.18844 0.83974 0.0
H1106 H 0.51843 0.13825 0.85131 0.0
C1107 C 0.45872 0.17048 0.87152 0.0
C1108 C 0.49552 0.18626 0.83755 0.0
C1109 C 0.43941 0.16994 0.87561 0.0
C1110 C 0.57618 0.16927 0.83309 0.0
C1111 C 0.55709 0.17431 0.8349 0.0
C1112 C 0.51224 0.15166 0.84718 0.0
C1113 C 0.4651 0.17631 0.85358 0.0
C1114 C 0.48509 0.17286 0.84796 0.0
C1115 C 0.54279 0.1608 0.83189 0.0
C1116 C 0.52278 0.16503 0.8369 0.0
H1117 H 0.42236 0.18704 0.83384 0.0
H1118 H 0.45632 0.1879 0.82652 0.0
H1119 H 0.48594 0.14472 0.86031 0.0
H1120 H 0.57048 0.12316 0.8199 0.0
H1121 H 0.53723 0.13196 0.82292 0.0
C1122 C 0.82631 0.57051 0.80531 0.0
C1123 C 0.84572 0.57409 0.80322 0.0
C1124 C 0.81902 0.5525 0.80159 0.0
C1125 C 0.83123 0.50429 0.78334 0.0
H1126 H 0.80195 0.48774 0.82676 0.0
C1127 C 0.83686 0.43054 0.81535 0.0
C1128 C 0.82159 0.42263 0.82529 0.0
C1129 C 0.83508 0.44813 0.80658 0.0
C1130 C 0.80964 0.49209 0.81423 0.0
H1131 H 0.87265 0.56229 0.79479 0.0
H1132 H 0.86008 0.53065 0.78847 0.0
H1133 H 0.80767 0.52123 0.82197 0.0
H1134 H 0.79213 0.42608 0.83286 0.0
H1135 H 0.78889 0.45712 0.81743 0.0
H1136 H 0.83401 0.47491 0.77626 0.0
C1137 C 0.85032 0.54175 0.79257 0.0
C1138 C 0.81297 0.51139 0.81147 0.0
C1139 C 0.85758 0.55983 0.79619 0.0
C1140 C 0.80407 0.43196 0.82523 0.0
C1141 C 0.80229 0.44972 0.81652 0.0
C1142 C 0.82788 0.48495 0.78611 0.0
C1143 C 0.83109 0.53768 0.79598 0.0
C1144 C 0.82442 0.51768 0.79641 0.0
C1145 C 0.818 0.45828 0.80765 0.0
C1146 C 0.8177 0.47859 0.80203 0.0
H1147 H 0.81699 0.58136 0.81087 0.0
H1148 H 0.80411 0.54993 0.80407 0.0
H1149 H 0.8398 0.50869 0.77141 0.0
H1150 H 0.85051 0.42352 0.81522 0.0
H1151 H 0.84754 0.45431 0.80011 0.0
C1152 C 0.15133 0.95947 0.31952 0.0
C1153 C 0.15458 0.95023 0.33685 0.0
C1154 C 0.14696 0.97868 0.31901 0.0
C1155 C 0.13073 0.01942 0.34704 0.0
H1156 H 0.16176 0.04826 0.31198 0.0
C1157 C 0.13816 0.09994 0.3529 0.0
C1158 C 0.1395 0.11097 0.33638 0.0
C1159 C 0.13837 0.08027 0.35197 0.0
C1160 C 0.15272 0.04043 0.32159 0.0
H1161 H 0.15457 0.95347 0.36729 0.0
H1162 H 0.14679 0.98743 0.36651 0.0
H1163 H 0.1643 0.01387 0.31278 0.0
H1164 H 0.14215 0.10999 0.30584 0.0
H1165 H 0.14223 0.07525 0.30409 0.0
H1166 H 0.11912 0.04595 0.35585 0.0
C1167 C 0.14771 0.97968 0.3533 0.0
C1168 C 0.15423 0.02071 0.32211 0.0
C1169 C 0.15212 0.96032 0.35379 0.0
C1170 C 0.14113 0.10184 0.3188 0.0
C1171 C 0.14123 0.08198 0.31784 0.0
C1172 C 0.1291 0.03914 0.34642 0.0
C1173 C 0.14567 0.98915 0.33584 0.0
C1174 C 0.14339 0.01001 0.33496 0.0
C1175 C 0.13979 0.07098 0.33446 0.0
C1176 C 0.14029 0.04992 0.33388 0.0
H1177 H 0.15264 0.95189 0.30625 0.0
H1178 H 0.14499 0.98546 0.30539 0.0
H1179 H 0.12203 0.01152 0.3569 0.0
H1180 H 0.13709 0.1065 0.36673 0.0
H1181 H 0.13774 0.07234 0.36509 0.0
C1182 C 0.91062 0.1438 0.31458 0.0
C1183 C 0.90089 0.14661 0.33168 0.0
C1184 C 0.93042 0.14513 0.3141 0.0
C1185 C 0.97142 0.16451 0.3399 0.0
H1186 H 0.99907 0.12253 0.31781 0.0
C1187 C 0.05234 0.15844 0.34804 0.0
C1188 C 0.06217 0.15392 0.33137 0.0
C1189 C 0.03265 0.15627 0.3489 0.0
C1190 C 0.99158 0.13445 0.3239 0.0
H1191 H 0.90393 0.1539 0.36138 0.0
H1192 H 0.93821 0.15648 0.36044 0.0
H1193 H 0.96458 0.12316 0.31591 0.0
H1194 H 0.05942 0.1422 0.30313 0.0
H1195 H 0.02529 0.13881 0.30442 0.0
H1196 H 0.99833 0.17599 0.34767 0.0
C1197 C 0.93073 0.15314 0.34747 0.0
C1198 C 0.97184 0.13483 0.32273 0.0
C1199 C 0.9111 0.15156 0.34801 0.0
C1200 C 0.05215 0.14613 0.31605 0.0
C1201 C 0.03258 0.14398 0.31687 0.0
C1202 C 0.99116 0.16422 0.34095 0.0
C1203 C 0.94063 0.14962 0.33062 0.0
C1204 C 0.96158 0.14984 0.33075 0.0
C1205 C 0.02251 0.14947 0.33312 0.0
C1206 C 0.00148 0.14918 0.33297 0.0
H1207 H 0.90304 0.1399 0.30183 0.0
H1208 H 0.93775 0.14248 0.30089 0.0
H1209 H 0.96385 0.17632 0.34611 0.0
H1210 H 0.05975 0.16447 0.36003 0.0
H1211 H 0.02533 0.16032 0.36176 0.0
C1212 C 0.88671 0.91066 0.34389 0.0
C1213 C 0.87759 0.89922 0.33042 0.0
C1214 C 0.88488 0.93032 0.34333 0.0
C1215 C 0.86971 0.97073 0.31351 0.0
H1216 H 0.86068 0.99484 0.36211 0.0
C1217 C 0.84451 0.0476 0.31785 0.0
C1218 C 0.85382 0.05955 0.33074 0.0
C1219 C 0.84687 0.02803 0.31871 0.0
C1220 C 0.86337 0.98836 0.34846 0.0
H1221 H 0.8601 0.89937 0.30525 0.0
H1222 H 0.85674 0.9339 0.30425 0.0
H1223 H 0.86686 0.96087 0.36071 0.0
H1224 H 0.87202 0.06041 0.35533 0.0
H1225 H 0.87625 0.02587 0.35696 0.0
H1226 H 0.8661 0.99819 0.30126 0.0
C1227 C 0.86547 0.92764 0.3152 0.0
C1228 C 0.86696 0.96889 0.34763 0.0
C1229 C 0.86742 0.90788 0.31571 0.0
C1230 C 0.86462 0.05145 0.34532 0.0
C1231 C 0.86707 0.03173 0.34617 0.0
C1232 C 0.86609 0.99017 0.31434 0.0
C1233 C 0.87375 0.93905 0.32935 0.0
C1234 C 0.87017 0.95982 0.33014 0.0
C1235 C 0.85867 0.01988 0.33247 0.0
C1236 C 0.86278 0.99921 0.33181 0.0
H1237 H 0.89479 0.90437 0.35532 0.0
H1238 H 0.89186 0.93866 0.35414 0.0
H1239 H 0.87239 0.96428 0.29985 0.0
H1240 H 0.83584 0.05352 0.30667 0.0
H1241 H 0.83976 0.0193 0.3083 0.0
C1242 C 0.95712 0.86038 0.34832 0.0
C1243 C 0.94821 0.85564 0.33118 0.0
C1244 C 0.9761 0.86633 0.34842 0.0
C1245 C 0.01935 0.86042 0.32049 0.0
H1246 H 0.03932 0.90222 0.34987 0.0
C1247 C 0.09908 0.87803 0.31878 0.0
C1248 C 0.10729 0.88235 0.33636 0.0
C1249 C 0.07932 0.87763 0.3168 0.0
C1250 C 0.03402 0.89038 0.34169 0.0
H1251 H 0.95168 0.8551 0.30062 0.0
H1252 H 0.98454 0.8651 0.30087 0.0
H1253 H 0.00531 0.89583 0.35014 0.0
H1254 H 0.10123 0.89048 0.3654 0.0
H1255 H 0.06721 0.88927 0.36213 0.0
H1256 H 0.04789 0.85439 0.31256 0.0
C1257 C 0.97711 0.86382 0.31425 0.0
C1258 C 0.01453 0.88676 0.34187 0.0
C1259 C 0.95828 0.85802 0.31414 0.0
C1260 C 0.0954 0.88705 0.35163 0.0
C1261 C 0.07577 0.88652 0.34971 0.0
C1262 C 0.03881 0.86387 0.32049 0.0
C1263 C 0.9864 0.86758 0.33138 0.0
C1264 C 0.00701 0.87171 0.33129 0.0
C1265 C 0.06741 0.88142 0.3324 0.0
C1266 C 0.04647 0.87882 0.33118 0.0
H1267 H 0.94969 0.85871 0.36163 0.0
H1268 H 0.98293 0.86916 0.36186 0.0
H1269 H 0.01398 0.84856 0.31237 0.0
H1270 H 0.10788 0.87438 0.30675 0.0
H1271 H 0.0734 0.87398 0.30314 0.0
C1272 C 0.13864 0.04879 0.67629 0.0
C1273 C 0.15435 0.05141 0.66428 0.0
C1274 C 0.13329 0.03061 0.68211 0.0
C1275 C 0.15163 0.98192 0.68727 0.0
H1276 H 0.09918 0.96652 0.68232 0.0
C1277 C 0.11096 0.90954 0.6707 0.0
C1278 C 0.12044 0.89706 0.68292 0.0
C1279 C 0.11227 0.92907 0.6733 0.0
C1280 C 0.11385 0.97067 0.68395 0.0
H1281 H 0.17643 0.03672 0.64873 0.0
H1282 H 0.16724 0.00522 0.65902 0.0
H1283 H 0.10794 0.99955 0.67675 0.0
H1284 H 0.13765 0.89507 0.70823 0.0
H1285 H 0.14004 0.9294 0.7128 0.0
H1286 H 0.15773 0.95294 0.69359 0.0
C1287 C 0.15924 0.01727 0.66417 0.0
C1288 C 0.11885 0.98959 0.68087 0.0
C1289 C 0.16451 0.03538 0.65825 0.0
C1290 C 0.13016 0.9044 0.69863 0.0
C1291 C 0.13165 0.92402 0.70114 0.0
C1292 C 0.14663 0.96305 0.69045 0.0
C1293 C 0.1436 0.01467 0.67618 0.0
C1294 C 0.13788 0.99527 0.68193 0.0
C1295 C 0.12324 0.93655 0.68811 0.0
C1296 C 0.12777 0.9571 0.68829 0.0
H1297 H 0.13061 0.06076 0.68148 0.0
H1298 H 0.12122 0.02905 0.69145 0.0
H1299 H 0.16638 0.98595 0.68845 0.0
H1300 H 0.1033 0.90423 0.6585 0.0
H1301 H 0.10574 0.93829 0.66292 0.0
C1302 C 0.09444 0.12803 0.6808 0.0
C1303 C 0.10203 0.12046 0.66405 0.0
C1304 C 0.0748 0.12984 0.68295 0.0
C1305 C 0.03579 0.14651 0.67428 0.0
H1306 H 0.99937 0.1096 0.65615 0.0
C1307 C 0.96133 0.16731 0.64887 0.0
C1308 C 0.9459 0.15599 0.65444 0.0
C1309 C 0.97989 0.16168 0.65268 0.0
C1310 C 0.00933 0.11998 0.66147 0.0
H1311 H 0.09514 0.10768 0.637 0.0
H1312 H 0.06102 0.11059 0.64082 0.0
H1313 H 0.03269 0.10072 0.65926 0.0
H1314 H 0.93821 0.12972 0.66854 0.0
H1315 H 0.97065 0.11976 0.67474 0.0
H1316 H 0.01256 0.16592 0.676 0.0
C1317 C 0.07011 0.11519 0.65229 0.0
C1318 C 0.02841 0.11493 0.66315 0.0
C1319 C 0.08967 0.11362 0.65006 0.0
C1320 C 0.94962 0.13874 0.66376 0.0
C1321 C 0.96825 0.13303 0.66742 0.0
C1322 C 0.01676 0.1516 0.67244 0.0
C1323 C 0.06246 0.12385 0.66849 0.0
C1324 C 0.0419 0.12825 0.66924 0.0
C1325 C 0.98357 0.1445 0.66201 0.0
C1326 C 0.00339 0.13851 0.66566 0.0
H1327 H 0.10366 0.13352 0.69176 0.0
H1328 H 0.06928 0.13644 0.69565 0.0
H1329 H 0.04585 0.15715 0.67883 0.0
H1330 H 0.95915 0.18047 0.64136 0.0
H1331 H 0.99142 0.17065 0.648 0.0
C1332 C 0.85672 0.95376 0.64758 0.0
C1333 C 0.85103 0.94525 0.66461 0.0
C1334 C 0.86329 0.97252 0.64749 0.0
C1335 C 0.8586 0.01604 0.67584 0.0
H1336 H 0.89832 0.03549 0.64336 0.0
C1337 C 0.87686 0.09541 0.67558 0.0
C1338 C 0.87844 0.1035 0.65749 0.0
C1339 C 0.87704 0.07569 0.67775 0.0
C1340 C 0.88715 0.03027 0.65248 0.0
H1341 H 0.84934 0.94892 0.69504 0.0
H1342 H 0.86094 0.98133 0.69496 0.0
H1343 H 0.89191 0.00145 0.64408 0.0
H1344 H 0.8825 0.09738 0.62764 0.0
H1345 H 0.88255 0.06323 0.63137 0.0
H1346 H 0.85341 0.04473 0.68389 0.0
C1347 C 0.85977 0.9739 0.68158 0.0
C1348 C 0.88348 0.01078 0.65285 0.0
C1349 C 0.85313 0.95534 0.68163 0.0
C1350 C 0.88117 0.09158 0.64178 0.0
C1351 C 0.88135 0.07195 0.64394 0.0
C1352 C 0.86224 0.03546 0.67545 0.0
C1353 C 0.86439 0.98294 0.66448 0.0
C1354 C 0.86905 0.00347 0.66445 0.0
C1355 C 0.87883 0.06372 0.66187 0.0
C1356 C 0.87642 0.04286 0.66363 0.0
H1357 H 0.85525 0.94622 0.63431 0.0
H1358 H 0.86671 0.9791 0.63406 0.0
H1359 H 0.84714 0.01094 0.68468 0.0
H1360 H 0.8748 0.10425 0.68795 0.0
H1361 H 0.87535 0.06979 0.69181 0.0
C1362 C 0.04349 0.85183 0.69393 0.0
C1363 C 0.05347 0.85116 0.67671 0.0
C1364 C 0.0249 0.85835 0.69454 0.0
C1365 C 0.98827 0.88499 0.66857 0.0
H1366 H 0.95394 0.85202 0.69603 0.0
C1367 C 0.90786 0.88418 0.65638 0.0
C1368 C 0.89569 0.87933 0.67136 0.0
C1369 C 0.92741 0.88436 0.65896 0.0
C1370 C 0.96332 0.86166 0.68866 0.0
H1371 H 0.05216 0.85774 0.64681 0.0
H1372 H 0.01931 0.86911 0.6478 0.0
H1373 H 0.98767 0.84541 0.69626 0.0
H1374 H 0.89434 0.87207 0.70113 0.0
H1375 H 0.92868 0.87268 0.70581 0.0
H1376 H 0.96379 0.90109 0.66075 0.0
C1377 C 0.02601 0.8646 0.66084 0.0
C1378 C 0.98269 0.8578 0.68871 0.0
C1379 C 0.04475 0.85807 0.66023 0.0
C1380 C 0.9034 0.87578 0.68932 0.0
C1381 C 0.92306 0.87599 0.69193 0.0
C1382 C 0.96885 0.88892 0.6686 0.0
C1383 C 0.01578 0.86438 0.67796 0.0
C1384 C 0.99535 0.86927 0.67849 0.0
C1385 C 0.9353 0.87975 0.67663 0.0
C1386 C 0.95611 0.87712 0.67842 0.0
H1387 H 0.05001 0.84719 0.70699 0.0
H1388 H 0.01756 0.85845 0.70802 0.0
H1389 H 0.99772 0.89421 0.66078 0.0
H1390 H 0.90234 0.88711 0.64236 0.0
H1391 H 0.93634 0.88713 0.6468 0.0
C1392 C 0.33883 0.12925 0.95264 0.0
C1393 C 0.33194 0.14665 0.94588 0.0
C1394 C 0.33474 0.1233 0.97111 0.0
C1395 C 0.30249 0.13147 0.01179 0.0
H1396 H 0.3454 0.11516 0.0418 0.0
C1397 C 0.30378 0.133 0.09384 0.0
C1398 C 0.31578 0.12026 0.10323 0.0
C1399 C 0.30276 0.13292 0.07401 0.0
C1400 C 0.3331 0.11925 0.03361 0.0
H1401 H 0.31458 0.171 0.95291 0.0
H1402 H 0.30762 0.16076 0.98509 0.0
H1403 H 0.34947 0.12103 0.00819 0.0
H1404 H 0.3347 0.09641 0.09971 0.0
H1405 H 0.33221 0.09559 0.06532 0.0
H1406 H 0.28617 0.12995 0.03735 0.0
C1407 C 0.31617 0.15168 0.97615 0.0
C1408 C 0.3355 0.12267 0.01429 0.0
C1409 C 0.32039 0.15768 0.95779 0.0
C1410 C 0.32544 0.10645 0.09272 0.0
C1411 C 0.32416 0.10614 0.073 0.0
C1412 C 0.30004 0.1279 0.03115 0.0
C1413 C 0.32349 0.13455 0.98312 0.0
C1414 C 0.32031 0.12911 0.00321 0.0
C1415 C 0.31355 0.11995 0.06332 0.0
C1416 C 0.3154 0.12201 0.04238 0.0
H1417 H 0.34778 0.12047 0.94381 0.0
H1418 H 0.34048 0.10996 0.97605 0.0
H1419 H 0.29046 0.13623 0.00356 0.0
H1420 H 0.2964 0.14394 0.10167 0.0
H1421 H 0.29452 0.14384 0.06708 0.0
C1422 C 0.88477 0.32615 0.08399 0.0
C1423 C 0.8735 0.31555 0.09644 0.0
C1424 C 0.88331 0.32367 0.06449 0.0
C1425 C 0.84799 0.30962 0.02917 0.0
H1426 H 0.88879 0.32326 0.99501 0.0
C1427 C 0.84126 0.32493 0.94729 0.0
C1428 C 0.84586 0.34397 0.94367 0.0
C1429 C 0.84512 0.31685 0.96502 0.0
C1430 C 0.87732 0.31919 0.00435 0.0
H1431 H 0.8527 0.29313 0.0984 0.0
H1432 H 0.85024 0.28849 0.06399 0.0
H1433 H 0.89597 0.31512 0.02782 0.0
H1434 H 0.85844 0.36932 0.95543 0.0
H1435 H 0.86568 0.35509 0.98618 0.0
H1436 H 0.8294 0.31402 0.00548 0.0
C1437 C 0.86009 0.29893 0.06939 0.0
C1438 C 0.88137 0.31463 0.02317 0.0
C1439 C 0.86164 0.30139 0.08907 0.0
C1440 C 0.85456 0.3547 0.95795 0.0
C1441 C 0.85883 0.34654 0.97543 0.0
C1442 C 0.84399 0.31386 0.0102 0.0
C1443 C 0.87049 0.31049 0.05684 0.0
C1444 C 0.86668 0.31066 0.03606 0.0
C1445 C 0.85413 0.32758 0.97913 0.0
C1446 C 0.85856 0.31941 0.99789 0.0
H1447 H 0.89405 0.33716 0.0893 0.0
H1448 H 0.89138 0.33305 0.05543 0.0
H1449 H 0.83629 0.30679 0.03866 0.0
H1450 H 0.83451 0.31643 0.93646 0.0
H1451 H 0.84135 0.30221 0.96763 0.0
C1452 C 0.65512 0.83112 0.96702 0.0
C1453 C 0.66345 0.84177 0.95243 0.0
C1454 C 0.6569 0.83675 0.98587 0.0
C1455 C 0.65191 0.85913 0.02199 0.0
H1456 H 0.69989 0.87437 0.04395 0.0
C1457 C 0.65424 0.88611 0.09765 0.0
C1458 C 0.66741 0.87713 0.10951 0.0
C1459 C 0.6559 0.88483 0.07804 0.0
C1460 C 0.68642 0.87016 0.03797 0.0
H1461 H 0.68059 0.86649 0.94626 0.0
H1462 H 0.68362 0.87643 0.97936 0.0
H1463 H 0.69834 0.86533 0.0104 0.0
H1464 H 0.6934 0.8609 0.11029 0.0
H1465 H 0.69625 0.8584 0.07573 0.0
H1466 H 0.63995 0.86351 0.04939 0.0
C1467 C 0.67573 0.86369 0.97611 0.0
C1468 C 0.6855 0.86512 0.01878 0.0
C1469 C 0.67382 0.85811 0.95717 0.0
C1470 C 0.68313 0.86804 0.10141 0.0
C1471 C 0.68472 0.8666 0.08166 0.0
C1472 C 0.65278 0.86427 0.04102 0.0
C1473 C 0.66713 0.85314 0.99063 0.0
C1474 C 0.66825 0.85936 0.01068 0.0
C1475 C 0.67067 0.87433 0.06982 0.0
C1476 C 0.67004 0.86978 0.04928 0.0
H1477 H 0.64691 0.81857 0.96385 0.0
H1478 H 0.65026 0.82823 0.99677 0.0
H1479 H 0.63837 0.85495 0.01611 0.0
H1480 H 0.6421 0.89342 0.10356 0.0
H1481 H 0.64511 0.89133 0.06929 0.0
C1482 C 0.11437 0.67189 0.09536 0.0
C1483 C 0.12563 0.68168 0.1085 0.0
C1484 C 0.11711 0.67442 0.07596 0.0
C1485 C 0.15508 0.68331 0.04321 0.0
H1486 H 0.11524 0.68608 0.00555 0.0
C1487 C 0.17201 0.67626 0.96368 0.0
C1488 C 0.15921 0.66589 0.95256 0.0
C1489 C 0.16728 0.68165 0.98212 0.0
C1490 C 0.12654 0.68511 0.01586 0.0
H1491 H 0.14803 0.70234 0.11181 0.0
H1492 H 0.15316 0.70649 0.07764 0.0
H1493 H 0.10753 0.69022 0.03901 0.0
H1494 H 0.13141 0.65306 0.95194 0.0
H1495 H 0.12332 0.66175 0.98439 0.0
H1496 H 0.17396 0.67709 0.02044 0.0
C1497 C 0.14209 0.69702 0.08244 0.0
C1498 C 0.12212 0.68766 0.035 0.0
C1499 C 0.13908 0.69475 0.10193 0.0
C1500 C 0.14147 0.66118 0.96018 0.0
C1501 C 0.13683 0.66629 0.97875 0.0
C1502 C 0.15947 0.68049 0.02412 0.0
C1503 C 0.1314 0.68653 0.0693 0.0
C1504 C 0.13631 0.6865 0.04888 0.0
C1505 C 0.14973 0.67651 0.99004 0.0
C1506 C 0.14522 0.68105 0.01019 0.0
H1507 H 0.1039 0.66172 0.1001 0.0
H1508 H 0.10878 0.66604 0.06617 0.0
H1509 H 0.16626 0.68203 0.05363 0.0
H1510 H 0.18565 0.68039 0.95801 0.0
H1511 H 0.17743 0.68986 0.99016 0.0
C1512 C 0.32032 0.8408 0.03756 0.0
C1513 C 0.33066 0.84972 0.05209 0.0
C1514 C 0.32157 0.8471 0.01892 0.0
C1515 C 0.35194 0.86937 0.98483 0.0
H1516 H 0.30536 0.87897 0.95732 0.0
C1517 C 0.35406 0.88555 0.90531 0.0
C1518 C 0.34038 0.87646 0.89415 0.0
C1519 C 0.35205 0.88639 0.92495 0.0
C1520 C 0.3185 0.87621 0.96471 0.0
H1521 H 0.3511 0.87192 0.05801 0.0
H1522 H 0.35384 0.88242 0.02503 0.0
H1523 H 0.3042 0.87205 0.99117 0.0
H1524 H 0.3135 0.86178 0.89449 0.0
H1525 H 0.31022 0.86254 0.92889 0.0
H1526 H 0.36625 0.87231 0.95838 0.0
C1527 C 0.34446 0.87077 0.02842 0.0
C1528 C 0.31783 0.87239 0.98412 0.0
C1529 C 0.34297 0.86465 0.04726 0.0
C1530 C 0.32416 0.86902 0.90282 0.0
C1531 C 0.3223 0.86952 0.92255 0.0
C1532 C 0.35262 0.8729 0.96536 0.0
C1533 C 0.33348 0.86223 0.01419 0.0
C1534 C 0.3345 0.86861 0.99426 0.0
C1535 C 0.3365 0.87777 0.93392 0.0
C1536 C 0.33587 0.87604 0.95496 0.0
H1537 H 0.31116 0.8289 0.04053 0.0
H1538 H 0.31332 0.83998 0.00812 0.0
H1539 H 0.36497 0.86631 0.99233 0.0
H1540 H 0.36663 0.89158 0.89889 0.0
H1541 H 0.363 0.89334 0.93313 0.0
C1542 C 0.11557 0.33401 0.90628 0.0
C1543 C 0.12534 0.32209 0.89373 0.0
C1544 C 0.11604 0.33059 0.92573 0.0
C1545 C 0.14908 0.31396 0.96009 0.0
H1546 H 0.10776 0.31934 0.99585 0.0
C1547 C 0.16466 0.3215 0.03938 0.0
C1548 C 0.15363 0.33457 0.04947 0.0
C1549 C 0.1592 0.31559 0.02133 0.0
C1550 C 0.11949 0.31797 0.98608 0.0
H1551 H 0.14245 0.29674 0.89138 0.0
H1552 H 0.14374 0.29102 0.92565 0.0
H1553 H 0.10095 0.31636 0.96204 0.0
H1554 H 0.1281 0.3514 0.04904 0.0
H1555 H 0.11892 0.34197 0.01705 0.0
H1556 H 0.16775 0.31698 0.98356 0.0
C1557 C 0.13553 0.30285 0.92035 0.0
C1558 C 0.11554 0.31607 0.96675 0.0
C1559 C 0.13472 0.30606 0.90081 0.0
C1560 C 0.13675 0.34126 0.04146 0.0
C1561 C 0.13148 0.3357 0.02319 0.0
C1562 C 0.15305 0.31621 0.97931 0.0
C1563 C 0.1266 0.31539 0.93299 0.0
C1564 C 0.13033 0.31436 0.95358 0.0
C1565 C 0.14281 0.323 0.01274 0.0
C1566 C 0.13834 0.3186 0.99257 0.0
H1567 H 0.10818 0.34643 0.90111 0.0
H1568 H 0.10918 0.34056 0.93517 0.0
H1569 H 0.16076 0.31301 0.95018 0.0
H1570 H 0.17756 0.3159 0.04548 0.0
H1571 H 0.16802 0.30539 0.01403 0.0
C1572 C 0.64742 0.16051 0.03814 0.0
C1573 C 0.65718 0.15286 0.05368 0.0
C1574 C 0.65168 0.15469 0.01974 0.0
C1575 C 0.65469 0.13049 0.98463 0.0
H1576 H 0.70627 0.12752 0.96594 0.0
C1577 C 0.66736 0.10697 0.90913 0.0
C1578 C 0.67848 0.11943 0.8984 0.0
C1579 C 0.66805 0.10741 0.92885 0.0
C1580 C 0.69181 0.12823 0.971 0.0
H1581 H 0.6794 0.13339 0.06207 0.0
H1582 H 0.6868 0.12311 0.02978 0.0
H1583 H 0.70036 0.1364 0.99903 0.0
H1584 H 0.7001 0.1411 0.89956 0.0
H1585 H 0.70111 0.14221 0.93426 0.0
H1586 H 0.64596 0.12295 0.95674 0.0
C1587 C 0.67585 0.13363 0.03192 0.0
C1588 C 0.68844 0.13319 0.98994 0.0
C1589 C 0.67147 0.13937 0.05039 0.0
C1590 C 0.69155 0.13121 0.90761 0.0
C1591 C 0.69207 0.13186 0.92745 0.0
C1592 C 0.65804 0.12545 0.96585 0.0
C1593 C 0.66587 0.14113 0.01643 0.0
C1594 C 0.6698 0.13466 0.99682 0.0
C1595 C 0.67961 0.12061 0.93824 0.0
C1596 C 0.67661 0.12442 0.95873 0.0
H1597 H 0.63626 0.1708 0.0402 0.0
H1598 H 0.64389 0.16087 0.00807 0.0
H1599 H 0.64019 0.13129 0.98958 0.0
H1600 H 0.65725 0.09768 0.90227 0.0
H1601 H 0.65864 0.09822 0.93675 0.0
C1602 C 0.88484 0.63925 0.90762 0.0
C1603 C 0.88218 0.65509 0.89586 0.0
C1604 C 0.88444 0.64111 0.92729 0.0
C1605 C 0.86334 0.6716 0.96349 0.0
H1606 H 0.8926 0.64068 0.99823 0.0
C1607 C 0.85101 0.67663 0.04333 0.0
C1608 C 0.84948 0.6595 0.05333 0.0
C1609 C 0.85818 0.67697 0.02495 0.0
C1610 C 0.88426 0.64932 0.98869 0.0
H1611 H 0.87812 0.6855 0.89547 0.0
H1612 H 0.8776 0.68884 0.92998 0.0
H1613 H 0.90023 0.64048 0.96443 0.0
H1614 H 0.85516 0.62943 0.05239 0.0
H1615 H 0.86748 0.62985 0.01983 0.0
H1616 H 0.84708 0.68012 0.9875 0.0
C1617 C 0.87972 0.6749 0.92393 0.0
C1618 C 0.88865 0.64925 0.96934 0.0
C1619 C 0.88016 0.67304 0.90418 0.0
C1620 C 0.85618 0.64278 0.04491 0.0
C1621 C 0.86325 0.64308 0.02634 0.0
C1622 C 0.85896 0.67167 0.98276 0.0
C1623 C 0.88135 0.65887 0.9357 0.0
C1624 C 0.87811 0.66026 0.95649 0.0
C1625 C 0.86387 0.66015 0.01599 0.0
C1626 C 0.86926 0.66043 0.99561 0.0
H1627 H 0.8865 0.62521 0.90164 0.0
H1628 H 0.88557 0.62844 0.93587 0.0
H1629 H 0.85464 0.67992 0.95398 0.0
H1630 H 0.84644 0.68982 0.04968 0.0
H1631 H 0.85895 0.69043 0.01762 0.0
C1632 C 0.94976 0.3421 0.13168 0.0
C1633 C 0.94453 0.33139 0.14768 0.0
C1634 C 0.96885 0.34368 0.12642 0.0
C1635 C 0.01346 0.31805 0.12929 0.0
H1636 H 0.03859 0.36643 0.12334 0.0
C1637 C 0.09494 0.3247 0.12824 0.0
C1638 C 0.10317 0.33992 0.11851 0.0
C1639 C 0.07521 0.32306 0.12933 0.0
C1640 C 0.03178 0.35275 0.12449 0.0
H1641 H 0.95562 0.31508 0.17133 0.0
H1642 H 0.98852 0.31731 0.16173 0.0
H1643 H 0.00468 0.36549 0.12968 0.0
H1644 H 0.09748 0.36463 0.10125 0.0
H1645 H 0.06321 0.36126 0.10224 0.0
H1646 H 0.04029 0.30516 0.12387 0.0
C1647 C 0.97784 0.32425 0.15317 0.0
C1648 C 0.01234 0.35228 0.12823 0.0
C1649 C 0.95892 0.32294 0.1586 0.0
C1650 C 0.09144 0.35284 0.109 0.0
C1651 C 0.07178 0.351 0.10975 0.0
C1652 C 0.03281 0.31848 0.12522 0.0
C1653 C 0.98298 0.33437 0.1369 0.0
C1654 C 0.0031 0.33494 0.13103 0.0
C1655 C 0.06333 0.33643 0.12042 0.0
C1656 C 0.04236 0.33585 0.12312 0.0
H1657 H 0.93914 0.34876 0.12289 0.0
H1658 H 0.97253 0.35165 0.11383 0.0
H1659 H 0.00656 0.30447 0.13121 0.0
H1660 H 0.1037 0.31469 0.13588 0.0
H1661 H 0.06935 0.31178 0.13789 0.0
C1662 C 0.95956 0.66657 0.83779 0.0
C1663 C 0.9486 0.65188 0.84548 0.0
C1664 C 0.9777 0.67025 0.84468 0.0
C1665 C 0.01086 0.65944 0.8845 0.0
H1666 H 0.04864 0.67363 0.84725 0.0
C1667 C 0.09175 0.65023 0.89312 0.0
C1668 C 0.10362 0.66439 0.88575 0.0
C1669 C 0.07211 0.65166 0.89132 0.0
C1670 C 0.0382 0.67001 0.85789 0.0
H1671 H 0.94778 0.6297 0.86656 0.0
H1672 H 0.97992 0.63548 0.87818 0.0
H1673 H 0.01596 0.66951 0.8375 0.0
H1674 H 0.10433 0.69164 0.87167 0.0
H1675 H 0.06989 0.69405 0.86828 0.0
H1676 H 0.03361 0.65898 0.90465 0.0
C1677 C 0.97435 0.64455 0.86714 0.0
C1678 C 0.01939 0.66765 0.85232 0.0
C1679 C 0.95601 0.6411 0.86043 0.0
C1680 C 0.09548 0.68059 0.87758 0.0
C1681 C 0.07582 0.68188 0.87551 0.0
C1682 C 0.02978 0.66154 0.89002 0.0
C1683 C 0.98552 0.65909 0.85922 0.0
C1684 C 0.00544 0.66223 0.86551 0.0
C1685 C 0.064 0.66715 0.88186 0.0
C1686 C 0.04364 0.66675 0.87672 0.0
H1687 H 0.95399 0.6754 0.82656 0.0
H1688 H 0.98557 0.6819 0.83856 0.0
H1689 H 0.00051 0.65558 0.89513 0.0
H1690 H 0.09768 0.6376 0.89951 0.0
H1691 H 0.06338 0.64005 0.89625 0.0
C1692 C 0.31353 0.08875 0.86546 0.0
C1693 C 0.32683 0.09681 0.87783 0.0
C1694 C 0.31253 0.06901 0.86346 0.0
C1695 C 0.31166 0.02514 0.86499 0.0
H1696 H 0.3628 0.0057 0.85983 0.0
C1697 C 0.33045 0.94552 0.85348 0.0
C1698 C 0.34453 0.94175 0.83989 0.0
C1699 C 0.32632 0.96416 0.85881 0.0
C1700 C 0.34843 0.0109 0.86115 0.0
H1701 H 0.34795 0.09091 0.89924 0.0
H1702 H 0.34577 0.05662 0.89626 0.0
H1703 H 0.35791 0.03838 0.86934 0.0
H1704 H 0.36518 0.95459 0.82117 0.0
H1705 H 0.35799 0.98706 0.83044 0.0
H1706 H 0.30232 0.99749 0.85639 0.0
C1707 C 0.33653 0.06537 0.88769 0.0
C1708 C 0.3456 0.02957 0.86686 0.0
C1709 C 0.33768 0.08497 0.88951 0.0
C1710 C 0.3542 0.95702 0.83158 0.0
C1711 C 0.35018 0.9756 0.83701 0.0
C1712 C 0.31451 0.00629 0.8594 0.0
C1713 C 0.32474 0.0572 0.87391 0.0
C1714 C 0.32721 0.03695 0.8688 0.0
C1715 C 0.33632 0.97937 0.85079 0.0
C1716 C 0.33296 0.99908 0.85724 0.0
H1717 H 0.30518 0.09766 0.85617 0.0
H1718 H 0.3033 0.06312 0.85272 0.0
H1719 H 0.29734 0.03045 0.86635 0.0
H1720 H 0.32256 0.93408 0.85994 0.0
H1721 H 0.31563 0.96664 0.86953 0.0
C1722 C 0.91158 0.36218 0.88522 0.0
C1723 C 0.90096 0.34601 0.88061 0.0
C1724 C 0.93123 0.36121 0.8866 0.0
C1725 C 0.97242 0.32859 0.88835 0.0
H1726 H 0.99696 0.36884 0.8601 0.0
C1727 C 0.04556 0.3207 0.85402 0.0
C1728 C 0.05766 0.33647 0.85283 0.0
C1729 C 0.02752 0.32243 0.8618 0.0
C1730 C 0.99045 0.35771 0.86841 0.0
H1731 H 0.90236 0.31591 0.87493 0.0
H1732 H 0.93692 0.31422 0.87694 0.0
H1733 H 0.96314 0.3704 0.86596 0.0
H1734 H 0.0607 0.36618 0.85968 0.0
H1735 H 0.02896 0.36928 0.87343 0.0
H1736 H 0.99978 0.31562 0.89019 0.0
C1737 C 0.93001 0.32762 0.87973 0.0
C1738 C 0.97101 0.35857 0.87176 0.0
C1739 C 0.91024 0.32857 0.87852 0.0
C1740 C 0.05162 0.35384 0.86037 0.0
C1741 C 0.03345 0.35561 0.86812 0.0
C1742 C 0.99192 0.32773 0.88499 0.0
C1743 C 0.94074 0.34408 0.88319 0.0
C1744 C 0.9617 0.34386 0.88146 0.0
C1745 C 0.0211 0.33997 0.86861 0.0
C1746 C 0.00106 0.34209 0.87462 0.0
H1747 H 0.90475 0.37578 0.88719 0.0
H1748 H 0.93902 0.37404 0.88974 0.0
H1749 H 0.96571 0.31718 0.8961 0.0
H1750 H 0.04994 0.307 0.84874 0.0
H1751 H 0.01834 0.31014 0.86178 0.0
C1752 C 0.6608 0.04971 0.8709 0.0
C1753 C 0.66035 0.0534 0.85135 0.0
C1754 C 0.65999 0.03103 0.87757 0.0
C1755 C 0.67262 0.98916 0.88337 0.0
H1756 H 0.63462 0.95476 0.86371 0.0
C1757 C 0.67849 0.90679 0.8823 0.0
C1758 C 0.66176 0.89663 0.88583 0.0
C1759 C 0.67821 0.92664 0.88177 0.0
C1760 C 0.64521 0.96421 0.8695 0.0
H1761 H 0.65806 0.04082 0.82353 0.0
H1762 H 0.65607 0.00825 0.83512 0.0
H1763 H 0.63319 0.98828 0.85552 0.0
H1764 H 0.632 0.89924 0.89304 0.0
H1765 H 0.63156 0.93367 0.89212 0.0
H1766 H 0.68499 0.96484 0.89687 0.0
C1767 C 0.65723 0.01969 0.84529 0.0
C1768 C 0.64444 0.98336 0.86472 0.0
C1769 C 0.65841 0.03825 0.83865 0.0
C1770 C 0.6451 0.90665 0.89004 0.0
C1771 C 0.6448 0.92638 0.88948 0.0
C1772 C 0.67355 0.96987 0.88797 0.0
C1773 C 0.65831 0.01587 0.86478 0.0
C1774 C 0.65823 0.99598 0.87143 0.0
C1775 C 0.66118 0.93657 0.88471 0.0
C1776 C 0.65991 0.9572 0.88096 0.0
H1777 H 0.66253 0.06119 0.88092 0.0
H1778 H 0.66079 0.02842 0.89267 0.0
H1779 H 0.68351 0.99861 0.8886 0.0
H1780 H 0.69153 0.89943 0.87898 0.0
H1781 H 0.69103 0.93416 0.87801 0.0
C1782 C 0.03516 0.68662 0.16187 0.0
C1783 C 0.04944 0.67611 0.15277 0.0
C1784 C 0.01655 0.68612 0.15538 0.0
C1785 C 0.98245 0.65728 0.1301 0.0
H1786 H 0.95496 0.70457 0.12471 0.0
C1787 C 0.90412 0.65656 0.10968 0.0
C1788 C 0.89228 0.66863 0.12012 0.0
C1789 C 0.9237 0.65901 0.10997 0.0
C1790 C 0.96236 0.69123 0.12626 0.0
H1791 H 0.05503 0.65634 0.1299 0.0
H1792 H 0.02219 0.65503 0.11891 0.0
H1793 H 0.98852 0.70508 0.13289 0.0
H1794 H 0.89138 0.69329 0.13828 0.0
H1795 H 0.9257 0.69733 0.13936 0.0
H1796 H 0.95628 0.64331 0.12443 0.0
C1797 C 0.02566 0.66384 0.13097 0.0
C1798 C 0.9816 0.69154 0.13087 0.0
C1799 C 0.04443 0.66451 0.13735 0.0
C1800 C 0.90024 0.68391 0.12998 0.0
C1801 C 0.91992 0.68619 0.13056 0.0
C1802 C 0.96317 0.65695 0.12571 0.0
C1803 C 0.01162 0.67489 0.13978 0.0
C1804 C 0.99174 0.67456 0.13312 0.0
C1805 C 0.93192 0.67337 0.12105 0.0
C1806 C 0.9528 0.67392 0.12398 0.0
H1807 H 0.03833 0.69531 0.17408 0.0
H1808 H 0.00593 0.69441 0.16273 0.0
H1809 H 0.98989 0.64398 0.13195 0.0
H1810 H 0.89826 0.64476 0.1018 0.0
H1811 H 0.93243 0.64922 0.10202 0.0
C1812 C 0.31704 0.04012 0.16888 0.0
C1813 C 0.32396 0.05413 0.15646 0.0
C1814 C 0.3162 0.02118 0.16336 0.0
C1815 C 0.33756 0.98603 0.13293 0.0
H1816 H 0.29044 0.95859 0.13959 0.0
C1817 C 0.3332 0.90738 0.11343 0.0
C1818 C 0.32308 0.89554 0.12576 0.0
C1819 C 0.33137 0.92702 0.11459 0.0
C1820 C 0.30377 0.96594 0.13782 0.0
H1821 H 0.33603 0.05871 0.12851 0.0
H1822 H 0.33522 0.02538 0.11922 0.0
H1823 H 0.29189 0.99231 0.14709 0.0
H1824 H 0.30264 0.89472 0.14855 0.0
H1825 H 0.29992 0.92911 0.15124 0.0
H1826 H 0.34985 0.9597 0.12466 0.0
C1827 C 0.33016 0.02936 0.13315 0.0
C1828 C 0.30454 0.98528 0.14201 0.0
C1829 C 0.33072 0.04845 0.13856 0.0
C1830 C 0.31042 0.9036 0.13875 0.0
C1831 C 0.30889 0.92333 0.14023 0.0
C1832 C 0.3369 0.96663 0.12904 0.0
C1833 C 0.3226 0.01562 0.14541 0.0
C1834 C 0.32149 0.99545 0.13975 0.0
C1835 C 0.31975 0.93532 0.12849 0.0
C1836 C 0.32002 0.95625 0.13155 0.0
H1837 H 0.31219 0.04371 0.18295 0.0
H1838 H 0.31069 0.0108 0.17323 0.0
H1839 H 0.35085 0.99351 0.13127 0.0
H1840 H 0.34295 0.90143 0.10317 0.0
H1841 H 0.33949 0.93567 0.10489 0.0
C1842 C 0.68048 0.09494 0.13001 0.0
C1843 C 0.6631 0.10165 0.12307 0.0
C1844 C 0.68365 0.07543 0.13181 0.0
C1845 C 0.6655 0.02799 0.118 0.0
H1846 H 0.68097 0.01326 0.1686 0.0
C1847 C 0.6553 0.96129 0.17162 0.0
C1848 C 0.6609 0.94582 0.16035 0.0
C1849 C 0.65846 0.97986 0.16562 0.0
C1850 C 0.67671 0.01715 0.15438 0.0
H1851 H 0.63596 0.09338 0.1114 0.0
H1852 H 0.64155 0.05948 0.11432 0.0
H1853 H 0.68206 0.04656 0.1594 0.0
H1854 H 0.67439 0.9381 0.13377 0.0
H1855 H 0.67944 0.97058 0.12317 0.0
H1856 H 0.6595 0.99861 0.11325 0.0
C1857 C 0.65273 0.06915 0.11841 0.0
C1858 C 0.67754 0.03619 0.14904 0.0
C1859 C 0.64948 0.08858 0.11684 0.0
C1860 C 0.66962 0.94953 0.14278 0.0
C1861 C 0.67262 0.96817 0.1367 0.0
C1862 C 0.66482 0.00891 0.1233 0.0
C1863 C 0.6696 0.06235 0.12645 0.0
C1864 C 0.67151 0.04189 0.13095 0.0
C1865 C 0.66715 0.98352 0.14811 0.0
C1866 C 0.66995 0.00337 0.14171 0.0
H1867 H 0.69118 0.10472 0.13502 0.0
H1868 H 0.69685 0.07058 0.13793 0.0
H1869 H 0.66087 0.03196 0.10392 0.0
H1870 H 0.64822 0.95915 0.18502 0.0
H1871 H 0.65374 0.9914 0.17456 0.0
C1872 C 0.1519 0.21691 0.30076 0.0
C1873 C 0.13685 0.21754 0.31376 0.0
C1874 C 0.15414 0.23133 0.28732 0.0
C1875 C 0.147 0.25619 0.25286 0.0
H1876 H 0.13465 0.30838 0.26478 0.0
C1877 C 0.13298 0.31083 0.19432 0.0
C1878 C 0.14028 0.32917 0.19673 0.0
C1879 C 0.13328 0.29786 0.20923 0.0
C1880 C 0.13834 0.29392 0.26123 0.0
H1881 H 0.11261 0.23399 0.32312 0.0
H1882 H 0.1163 0.25874 0.29965 0.0
H1883 H 0.13556 0.28487 0.29001 0.0
H1884 H 0.15334 0.34842 0.21671 0.0
H1885 H 0.15404 0.32572 0.24279 0.0
H1886 H 0.1501 0.26528 0.22415 0.0
C1887 C 0.12659 0.24737 0.29994 0.0
C1888 C 0.13867 0.28039 0.27567 0.0
C1889 C 0.1244 0.23305 0.31335 0.0
C1890 C 0.14741 0.33446 0.21453 0.0
C1891 C 0.14783 0.32143 0.22944 0.0
C1892 C 0.14675 0.26973 0.23844 0.0
C1893 C 0.14136 0.24662 0.28664 0.0
C1894 C 0.14272 0.26131 0.27161 0.0
C1895 C 0.14102 0.30288 0.22687 0.0
C1896 C 0.14213 0.2887 0.2424 0.0
H1897 H 0.16179 0.20518 0.30078 0.0
H1898 H 0.16582 0.23045 0.27742 0.0
H1899 H 0.15001 0.2416 0.24919 0.0
H1900 H 0.12713 0.30648 0.18084 0.0
H1901 H 0.12747 0.28386 0.20689 0.0
C1902 C 0.69463 0.12541 0.19481 0.0
C1903 C 0.67666 0.13252 0.19949 0.0
C1904 C 0.70877 0.12407 0.20852 0.0
C1905 C 0.71744 0.12386 0.26014 0.0
H1906 H 0.76772 0.14005 0.24506 0.0
C1907 C 0.79491 0.14245 0.29558 0.0
C1908 C 0.79679 0.12682 0.30776 0.0
C1909 C 0.77977 0.14347 0.28287 0.0
C1910 C 0.75373 0.13566 0.24956 0.0
H1911 H 0.65922 0.14327 0.22233 0.0
H1912 H 0.68396 0.14099 0.24637 0.0
H1913 H 0.74203 0.14069 0.2221 0.0
H1914 H 0.78421 0.10007 0.31622 0.0
H1915 H 0.75804 0.10175 0.29394 0.0
H1916 H 0.72911 0.11918 0.28772 0.0
C1917 C 0.68706 0.13628 0.23211 0.0
C1918 C 0.73906 0.13577 0.23632 0.0
C1919 C 0.67288 0.13757 0.21836 0.0
C1920 C 0.78316 0.11234 0.30708 0.0
C1921 C 0.76807 0.11335 0.29438 0.0
C1922 C 0.73213 0.12376 0.27339 0.0
C1923 C 0.70527 0.12986 0.22724 0.0
C1924 C 0.72077 0.12977 0.24143 0.0
C1925 C 0.76623 0.12888 0.28208 0.0
C1926 C 0.75046 0.12958 0.26822 0.0
H1927 H 0.69783 0.12107 0.18045 0.0
H1928 H 0.72251 0.11863 0.20442 0.0
H1929 H 0.70354 0.11906 0.26449 0.0
H1930 H 0.80513 0.15389 0.29583 0.0
H1931 H 0.77862 0.15574 0.27373 0.0
C1932 C 0.87521 0.77396 0.3185 0.0
C1933 C 0.86589 0.79145 0.3165 0.0
C1934 C 0.87256 0.75953 0.30526 0.0
C1935 C 0.84101 0.74167 0.26799 0.0
H1936 H 0.88671 0.71813 0.24864 0.0
C1937 C 0.84073 0.69268 0.20238 0.0
C1938 C 0.85367 0.67752 0.20159 0.0
C1939 C 0.84133 0.70579 0.21719 0.0
C1940 C 0.87376 0.72426 0.2541 0.0
H1941 H 0.84584 0.8072 0.29938 0.0
H1942 H 0.84107 0.78178 0.27623 0.0
H1943 H 0.889 0.74243 0.27296 0.0
H1944 H 0.87701 0.66407 0.21635 0.0
H1945 H 0.8776 0.68649 0.2425 0.0
H1946 H 0.82573 0.72336 0.2493 0.0
C1947 C 0.8505 0.77935 0.28808 0.0
C1948 C 0.8751 0.73828 0.26799 0.0
C1949 C 0.85328 0.79391 0.30129 0.0
C1950 C 0.8668 0.67548 0.21642 0.0
C1951 C 0.86729 0.68853 0.23134 0.0
C1952 C 0.83965 0.72749 0.2542 0.0
C1953 C 0.86041 0.76215 0.28975 0.0
C1954 C 0.85876 0.74717 0.27506 0.0
C1955 C 0.85474 0.70403 0.23178 0.0
C1956 C 0.85603 0.71864 0.247 0.0
H1957 H 0.88496 0.77149 0.33008 0.0
H1958 H 0.88017 0.74633 0.30708 0.0
H1959 H 0.82817 0.74815 0.27332 0.0
H1960 H 0.83013 0.69458 0.1915 0.0
H1961 H 0.83153 0.71758 0.2169 0.0
C1962 C 0.30734 0.83734 0.20583 0.0
C1963 C 0.32296 0.84962 0.20438 0.0
C1964 C 0.29558 0.83773 0.22171 0.0
C1965 C 0.28149 0.8696 0.26079 0.0
H1966 H 0.25526 0.82493 0.27913 0.0
C1967 C 0.23249 0.87241 0.32564 0.0
C1968 C 0.21438 0.86449 0.32323 0.0
C1969 C 0.2468 0.86901 0.31246 0.0
C1970 C 0.26244 0.83751 0.27409 0.0
H1971 H 0.33892 0.87131 0.21914 0.0
H1972 H 0.31881 0.87152 0.24716 0.0
H1973 H 0.27915 0.82178 0.2543 0.0
H1974 H 0.19739 0.84605 0.30549 0.0
H1975 H 0.22258 0.83999 0.28244 0.0
H1976 H 0.26484 0.88529 0.28066 0.0
C1977 C 0.31534 0.86194 0.23571 0.0
C1978 C 0.2761 0.83575 0.25984 0.0
C1979 C 0.32705 0.86166 0.21971 0.0
C1980 C 0.21116 0.85241 0.30772 0.0
C1981 C 0.22559 0.84889 0.29457 0.0
C1982 C 0.268 0.87132 0.27514 0.0
C1983 C 0.29922 0.85026 0.23674 0.0
C1984 C 0.28567 0.85181 0.25286 0.0
C1985 C 0.24343 0.85749 0.29662 0.0
C1986 C 0.25822 0.85533 0.28184 0.0
H1987 H 0.30395 0.82755 0.19454 0.0
H1988 H 0.28325 0.82861 0.22187 0.0
H1989 H 0.28821 0.88234 0.25554 0.0
H1990 H 0.23553 0.88169 0.33747 0.0
H1991 H 0.26049 0.87561 0.31454 0.0
C1992 C 0.13657 0.77193 0.68418 0.0
C1993 C 0.13889 0.79097 0.68945 0.0
C1994 C 0.13781 0.75752 0.69771 0.0
C1995 C 0.15213 0.74775 0.74776 0.0
H1996 H 0.11565 0.70692 0.74329 0.0
C1997 C 0.13299 0.69896 0.81015 0.0
C1998 C 0.13446 0.67937 0.8067 0.0
C1999 C 0.13365 0.71193 0.79524 0.0
C2000 C 0.12599 0.71817 0.74462 0.0
H2001 H 0.14501 0.8098 0.71294 0.0
H2002 H 0.14658 0.78487 0.73657 0.0
H2003 H 0.11788 0.73066 0.71828 0.0
H2004 H 0.1368 0.65822 0.78444 0.0
H2005 H 0.13727 0.68092 0.75846 0.0
H2006 H 0.15964 0.73554 0.77451 0.0
C2007 C 0.14422 0.78089 0.72196 0.0
C2008 C 0.1274 0.73173 0.73025 0.0
C2009 C 0.14326 0.79525 0.70838 0.0
C2010 C 0.13553 0.67311 0.78778 0.0
C2011 C 0.13589 0.68612 0.77283 0.0
C2012 C 0.1505 0.73436 0.76225 0.0
C2013 C 0.14114 0.76185 0.71688 0.0
C2014 C 0.14042 0.74678 0.73167 0.0
C2015 C 0.13542 0.70565 0.77648 0.0
C2016 C 0.13734 0.71953 0.76087 0.0
H2017 H 0.13336 0.76817 0.66965 0.0
H2018 H 0.13583 0.74301 0.69316 0.0
H2019 H 0.1626 0.75885 0.74922 0.0
H2020 H 0.13163 0.70442 0.82439 0.0
H2021 H 0.13287 0.72693 0.79839 0.0
C2022 C 0.20982 0.16068 0.69609 0.0
C2023 C 0.20248 0.145 0.68631 0.0
C2024 C 0.22522 0.15862 0.70831 0.0
C2025 C 0.25177 0.12246 0.73579 0.0
H2026 H 0.28758 0.16369 0.74157 0.0
C2027 C 0.31761 0.11905 0.78528 0.0
C2028 C 0.31899 0.13442 0.79784 0.0
C2029 C 0.30466 0.11952 0.77026 0.0
C2030 C 0.27768 0.15207 0.74008 0.0
H2031 H 0.2058 0.11485 0.68143 0.0
H2032 H 0.23304 0.11132 0.70237 0.0
H2033 H 0.26286 0.16585 0.7176 0.0
H2034 H 0.30846 0.16252 0.80423 0.0
H2035 H 0.2861 0.16347 0.77789 0.0
H2036 H 0.26687 0.10869 0.75827 0.0
C2037 C 0.22662 0.12517 0.70094 0.0
C2038 C 0.26343 0.15332 0.72643 0.0
C2039 C 0.21105 0.1272 0.68885 0.0
C2040 C 0.30754 0.15041 0.79486 0.0
C2041 C 0.29487 0.15101 0.77971 0.0
C2042 C 0.26621 0.12111 0.74929 0.0
C2043 C 0.23386 0.14084 0.71092 0.0
C2044 C 0.25002 0.13872 0.72436 0.0
C2045 C 0.29318 0.13553 0.76734 0.0
C2046 C 0.27907 0.13607 0.75181 0.0
H2047 H 0.20345 0.17456 0.6946 0.0
H2048 H 0.23007 0.17095 0.71603 0.0
H2049 H 0.24161 0.11103 0.7348 0.0
H2050 H 0.32622 0.10654 0.78736 0.0
H2051 H 0.30366 0.10742 0.76088 0.0
C2052 C 0.87593 0.31443 0.78765 0.0
C2053 C 0.86088 0.31653 0.80048 0.0
C2054 C 0.87554 0.30017 0.7739 0.0
C2055 C 0.85097 0.25509 0.76145 0.0
H2056 H 0.87185 0.26495 0.71159 0.0
C2057 C 0.83608 0.20742 0.69692 0.0
C2058 C 0.85176 0.20186 0.68597 0.0
C2059 C 0.83796 0.22121 0.71095 0.0
C2060 C 0.86612 0.26196 0.72551 0.0
H2061 H 0.83348 0.3056 0.80879 0.0
H2062 H 0.83246 0.28109 0.78452 0.0
H2063 H 0.87335 0.28947 0.73591 0.0
H2064 H 0.88168 0.20665 0.68101 0.0
H2065 H 0.88486 0.23116 0.7054 0.0
H2066 H 0.84322 0.22778 0.75074 0.0
C2067 C 0.84488 0.29003 0.78535 0.0
C2068 C 0.86702 0.27597 0.7395 0.0
C2069 C 0.84539 0.30413 0.79925 0.0
C2070 C 0.86934 0.21062 0.68922 0.0
C2071 C 0.87115 0.22467 0.70311 0.0
C2072 C 0.84985 0.2412 0.74739 0.0
C2073 C 0.85997 0.28781 0.7725 0.0
C2074 C 0.85939 0.27276 0.75766 0.0
C2075 C 0.8555 0.22997 0.71422 0.0
C2076 C 0.85734 0.24452 0.72927 0.0
H2077 H 0.88816 0.32362 0.78844 0.0
H2078 H 0.8876 0.29872 0.76454 0.0
H2079 H 0.84531 0.25188 0.77534 0.0
H2080 H 0.82236 0.20089 0.69487 0.0
H2081 H 0.82563 0.22515 0.71919 0.0
C2082 C 0.69995 0.87015 0.80839 0.0
C2083 C 0.68061 0.86654 0.80516 0.0
C2084 C 0.71289 0.86998 0.79343 0.0
C2085 C 0.71822 0.87474 0.74223 0.0
H2086 H 0.7616 0.84169 0.74871 0.0
C2087 C 0.77064 0.86181 0.68105 0.0
C2088 C 0.78995 0.86096 0.68571 0.0
C2089 C 0.75685 0.86129 0.69525 0.0
C2090 C 0.74974 0.85119 0.74671 0.0
H2091 H 0.65978 0.86105 0.78316 0.0
H2092 H 0.68233 0.86141 0.75713 0.0
H2093 H 0.73865 0.84498 0.77427 0.0
H2094 H 0.80995 0.85838 0.70887 0.0
H2095 H 0.78605 0.85808 0.7336 0.0
H2096 H 0.72949 0.88149 0.71496 0.0
C2097 C 0.68739 0.86408 0.77136 0.0
C2098 C 0.73657 0.85302 0.76136 0.0
C2099 C 0.67445 0.86396 0.78635 0.0
C2100 C 0.79517 0.85893 0.70479 0.0
C2101 C 0.78141 0.85869 0.71901 0.0
C2102 C 0.73154 0.87314 0.72766 0.0
C2103 C 0.70678 0.86658 0.77484 0.0
C2104 C 0.72072 0.86484 0.75927 0.0
C2105 C 0.76206 0.86019 0.71446 0.0
C2106 C 0.74751 0.86136 0.72971 0.0
H2107 H 0.70527 0.87272 0.82251 0.0
H2108 H 0.72775 0.87232 0.79643 0.0
H2109 H 0.70616 0.88402 0.74032 0.0
H2110 H 0.76618 0.86322 0.66644 0.0
H2111 H 0.74211 0.862 0.69114 0.0
C2112 C 0.22639 0.14828 0.33314 0.0
C2113 C 0.21377 0.16363 0.33346 0.0
C2114 C 0.24122 0.14782 0.31997 0.0
C2115 C 0.26824 0.17682 0.28537 0.0
H2116 H 0.26805 0.13094 0.2552 0.0
C2117 C 0.29778 0.17446 0.20925 0.0
C2118 C 0.30653 0.15776 0.20292 0.0
C2119 C 0.2891 0.17513 0.22704 0.0
C2120 C 0.26862 0.14373 0.26364 0.0
H2121 H 0.20751 0.19112 0.32146 0.0
H2122 H 0.23339 0.19048 0.29862 0.0
H2123 H 0.2494 0.13237 0.28412 0.0
H2124 H 0.31385 0.12895 0.21066 0.0
H2125 H 0.29892 0.13015 0.2417 0.0
H2126 H 0.28722 0.1883 0.26471 0.0
C2127 C 0.2319 0.17875 0.3084 0.0
C2128 C 0.25792 0.14453 0.28026 0.0
C2129 C 0.21702 0.17909 0.32138 0.0
C2130 C 0.30682 0.14189 0.21493 0.0
C2131 C 0.29828 0.14259 0.23276 0.0
C2132 C 0.27905 0.17598 0.26879 0.0
C2133 C 0.24377 0.16284 0.30711 0.0
C2134 C 0.2573 0.16121 0.2911 0.0
C2135 C 0.28914 0.15916 0.23898 0.0
C2136 C 0.27905 0.15956 0.2575 0.0
H2137 H 0.2241 0.13614 0.34223 0.0
H2138 H 0.25027 0.13545 0.3194 0.0
H2139 H 0.26818 0.1898 0.29355 0.0
H2140 H 0.29731 0.18693 0.20031 0.0
H2141 H 0.28195 0.18804 0.23122 0.0
C2142 C 0.83005 0.31905 0.21359 0.0
C2143 C 0.84453 0.3153 0.20042 0.0
C2144 C 0.82864 0.30845 0.23033 0.0
C2145 C 0.82268 0.27563 0.25826 0.0
H2146 H 0.86866 0.26036 0.28408 0.0
C2147 C 0.82648 0.2113 0.30835 0.0
C2148 C 0.83903 0.21163 0.3238 0.0
C2149 C 0.82564 0.22645 0.29566 0.0
C2150 C 0.85564 0.26471 0.27727 0.0
H2151 H 0.86879 0.29734 0.19459 0.0
H2152 H 0.86625 0.27895 0.22349 0.0
H2153 H 0.87047 0.28222 0.25748 0.0
H2154 H 0.85989 0.22862 0.33853 0.0
H2155 H 0.85828 0.25528 0.31647 0.0
H2156 H 0.80786 0.25798 0.27801 0.0
C2157 C 0.85614 0.29023 0.22109 0.0
C2158 C 0.8567 0.27707 0.26184 0.0
C2159 C 0.85751 0.30073 0.20439 0.0
C2160 C 0.85005 0.22794 0.32681 0.0
C2161 C 0.84925 0.24312 0.31405 0.0
C2162 C 0.82161 0.26322 0.2737 0.0
C2163 C 0.84173 0.29396 0.2343 0.0
C2164 C 0.84029 0.28236 0.25188 0.0
C2165 C 0.83734 0.24237 0.29807 0.0
C2166 C 0.83812 0.25731 0.28317 0.0
H2167 H 0.81981 0.33016 0.21098 0.0
H2168 H 0.81742 0.31174 0.24026 0.0
H2169 H 0.80976 0.27936 0.25088 0.0
H2170 H 0.81761 0.19906 0.3058 0.0
H2171 H 0.81641 0.22528 0.28347 0.0
C2172 C 0.69398 0.83402 0.21872 0.0
C2173 C 0.68546 0.85012 0.21072 0.0
C2174 C 0.70582 0.83567 0.23447 0.0
C2175 C 0.73499 0.87069 0.26056 0.0
H2176 H 0.73796 0.83008 0.29744 0.0
C2177 C 0.78588 0.87286 0.32497 0.0
C2178 C 0.79758 0.85682 0.3263 0.0
C2179 C 0.77016 0.8728 0.31288 0.0
C2180 C 0.73724 0.84154 0.28726 0.0
H2181 H 0.68235 0.88058 0.2133 0.0
H2182 H 0.7026 0.88341 0.24112 0.0
H2183 H 0.71402 0.82885 0.27259 0.0
H2184 H 0.80159 0.82794 0.31685 0.0
H2185 H 0.774 0.82769 0.296 0.0
H2186 H 0.75826 0.88333 0.27537 0.0
C2187 C 0.70049 0.86953 0.23496 0.0
C2188 C 0.72361 0.84081 0.27294 0.0
C2189 C 0.68879 0.8679 0.21905 0.0
C2190 C 0.79285 0.84051 0.31596 0.0
C2191 C 0.77701 0.84033 0.30415 0.0
C2192 C 0.74847 0.87153 0.27504 0.0
C2193 C 0.70929 0.85344 0.24279 0.0
C2194 C 0.72258 0.85515 0.25912 0.0
C2195 C 0.76569 0.85658 0.30223 0.0
C2196 C 0.74999 0.85677 0.28829 0.0
H2197 H 0.69184 0.82012 0.21258 0.0
H2198 H 0.71261 0.823 0.23981 0.0
H2199 H 0.73483 0.88188 0.25008 0.0
H2200 H 0.78931 0.88565 0.33269 0.0
H2201 H 0.76161 0.88549 0.3117 0.0
C2202 C 0.11601 0.68886 0.23163 0.0
C2203 C 0.12873 0.68737 0.21639 0.0
C2204 C 0.11988 0.70087 0.24684 0.0
C2205 C 0.13345 0.72268 0.28114 0.0
H2206 H 0.15523 0.77121 0.26767 0.0
C2207 C 0.14594 0.78345 0.33572 0.0
C2208 C 0.14246 0.80187 0.32907 0.0
C2209 C 0.14556 0.76805 0.32318 0.0
C2210 C 0.14902 0.75777 0.27168 0.0
H2211 H 0.15599 0.69652 0.20565 0.0
H2212 H 0.16304 0.71711 0.23248 0.0
H2213 H 0.15267 0.74666 0.24384 0.0
H2214 H 0.13463 0.81853 0.30455 0.0
H2215 H 0.13345 0.79185 0.28288 0.0
H2216 H 0.12887 0.73434 0.30879 0.0
C2217 C 0.14979 0.7094 0.23243 0.0
C2218 C 0.14784 0.74353 0.25805 0.0
C2219 C 0.14581 0.69753 0.21708 0.0
C2220 C 0.13779 0.80452 0.30994 0.0
C2221 C 0.13722 0.78923 0.29752 0.0
C2222 C 0.13447 0.73704 0.29477 0.0
C2223 C 0.13668 0.71155 0.24731 0.0
C2224 C 0.13973 0.7259 0.26248 0.0
C2225 C 0.14153 0.77085 0.30384 0.0
C2226 C 0.1419 0.7549 0.29007 0.0
H2227 H 0.1027 0.68125 0.23151 0.0
H2228 H 0.1093 0.70234 0.25784 0.0
H2229 H 0.12742 0.70916 0.28516 0.0
H2230 H 0.14964 0.7811 0.35041 0.0
H2231 H 0.14896 0.75408 0.32852 0.0
C2232 C 0.31539 0.86629 0.78604 0.0
C2233 C 0.31787 0.84828 0.79418 0.0
C2234 C 0.30366 0.86866 0.77026 0.0
C2235 C 0.27923 0.84175 0.73205 0.0
H2236 H 0.24498 0.88469 0.73189 0.0
C2237 C 0.20894 0.84292 0.69131 0.0
C2238 C 0.20355 0.85966 0.68203 0.0
C2239 C 0.22525 0.84242 0.70241 0.0
C2240 C 0.25468 0.8728 0.73156 0.0
H2241 H 0.31004 0.81864 0.79208 0.0
H2242 H 0.28932 0.82282 0.76495 0.0
H2243 H 0.26908 0.88221 0.75647 0.0
H2244 H 0.21115 0.88889 0.67671 0.0
H2245 H 0.23976 0.8881 0.69639 0.0
H2246 H 0.26422 0.83199 0.70758 0.0
C2247 C 0.29674 0.83507 0.77042 0.0
C2248 C 0.26851 0.87137 0.74563 0.0
C2249 C 0.30854 0.83269 0.78609 0.0
C2250 C 0.21508 0.87579 0.68364 0.0
C2251 C 0.23132 0.87537 0.69498 0.0
C2252 C 0.26531 0.84311 0.71808 0.0
C2253 C 0.29408 0.85309 0.76235 0.0
C2254 C 0.2807 0.85562 0.74628 0.0
C2255 C 0.23644 0.85871 0.70462 0.0
C2256 C 0.25266 0.85846 0.71792 0.0
H2257 H 0.32248 0.87858 0.79186 0.0
H2258 H 0.30212 0.88269 0.76426 0.0
H2259 H 0.28866 0.82966 0.73187 0.0
H2260 H 0.20038 0.83025 0.69014 0.0
H2261 H 0.22874 0.82943 0.7098 0.0
C2262 C 0.13561 0.32126 0.76817 0.0
C2263 C 0.13863 0.31573 0.78704 0.0
C2264 C 0.13661 0.30796 0.75354 0.0
C2265 C 0.15211 0.25853 0.74287 0.0
H2266 H 0.1146 0.26213 0.70289 0.0
C2267 C 0.13253 0.19563 0.69544 0.0
C2268 C 0.13457 0.19868 0.67584 0.0
C2269 C 0.13296 0.21077 0.7081 0.0
C2270 C 0.12521 0.26107 0.71392 0.0
H2271 H 0.14549 0.29202 0.80535 0.0
H2272 H 0.14659 0.26881 0.78008 0.0
H2273 H 0.11668 0.28715 0.72669 0.0
H2274 H 0.13756 0.22049 0.65428 0.0
H2275 H 0.13759 0.24693 0.67648 0.0
H2276 H 0.16001 0.232 0.73047 0.0
C2277 C 0.14394 0.28345 0.77638 0.0
C2278 C 0.12653 0.27543 0.72748 0.0
C2279 C 0.14321 0.29678 0.79094 0.0
C2280 C 0.13588 0.21746 0.6692 0.0
C2281 C 0.13599 0.23266 0.6819 0.0
C2282 C 0.15056 0.24406 0.72952 0.0
C2283 C 0.14041 0.2888 0.7575 0.0
C2284 C 0.13988 0.27425 0.74226 0.0
C2285 C 0.13504 0.22937 0.70146 0.0
C2286 C 0.13699 0.24512 0.71506 0.0
H2287 H 0.1322 0.33582 0.76472 0.0
H2288 H 0.13421 0.31269 0.73915 0.0
H2289 H 0.16286 0.25732 0.75373 0.0
H2290 H 0.13093 0.18151 0.70115 0.0
H2291 H 0.13184 0.20795 0.72314 0.0
C2292 C 0.70218 0.14628 0.79443 0.0
C2293 C 0.6847 0.13719 0.79164 0.0
C2294 C 0.71524 0.14769 0.77961 0.0
C2295 C 0.7287 0.12381 0.73538 0.0
H2296 H 0.75889 0.16884 0.72679 0.0
C2297 C 0.78214 0.12991 0.6733 0.0
C2298 C 0.79944 0.13893 0.67725 0.0
C2299 C 0.76744 0.13004 0.68661 0.0
C2300 C 0.75071 0.15608 0.72913 0.0
H2301 H 0.66693 0.12316 0.77084 0.0
H2302 H 0.68968 0.12571 0.74504 0.0
H2303 H 0.73437 0.16912 0.75111 0.0
H2304 H 0.81463 0.15535 0.69838 0.0
H2305 H 0.78944 0.15499 0.72162 0.0
H2306 H 0.74523 0.11064 0.71365 0.0
C2307 C 0.69339 0.1315 0.75875 0.0
C2308 C 0.73664 0.15627 0.74304 0.0
C2309 C 0.6803 0.13016 0.77353 0.0
C2310 C 0.8017 0.14794 0.69489 0.0
C2311 C 0.78708 0.14803 0.70816 0.0
C2312 C 0.74283 0.12359 0.72152 0.0
C2313 C 0.71112 0.13999 0.76171 0.0
C2314 C 0.72555 0.14011 0.7464 0.0
C2315 C 0.76971 0.13922 0.70416 0.0
C2316 C 0.75412 0.13967 0.71833 0.0
H2317 H 0.706 0.15187 0.8082 0.0
H2318 H 0.72884 0.15422 0.78236 0.0
H2319 H 0.72057 0.11104 0.73782 0.0
H2320 H 0.77993 0.12278 0.65992 0.0
H2321 H 0.75418 0.12323 0.68302 0.0
C2322 C 0.86568 0.69678 0.79752 0.0
C2323 C 0.85401 0.6808 0.7957 0.0
C2324 C 0.86648 0.71036 0.78314 0.0
C2325 C 0.84113 0.7268 0.73962 0.0
H2326 H 0.88791 0.75446 0.7317 0.0
C2327 C 0.85429 0.77915 0.6771 0.0
C2328 C 0.85934 0.7974 0.68318 0.0
C2329 C 0.8541 0.76401 0.68992 0.0
C2330 C 0.87478 0.7468 0.73377 0.0
H2331 H 0.83419 0.66634 0.7773 0.0
H2332 H 0.83616 0.68955 0.75182 0.0
H2333 H 0.88668 0.72951 0.75552 0.0
H2334 H 0.86877 0.81409 0.70709 0.0
H2335 H 0.86903 0.78751 0.72939 0.0
H2336 H 0.82955 0.74393 0.71733 0.0
C2337 C 0.84427 0.69202 0.76459 0.0
C2338 C 0.87396 0.7326 0.74754 0.0
C2339 C 0.8432 0.67862 0.77916 0.0
C2340 C 0.86472 0.80016 0.70213 0.0
C2341 C 0.86495 0.78498 0.71482 0.0
C2342 C 0.84209 0.74075 0.72556 0.0
C2343 C 0.85592 0.70813 0.76636 0.0
C2344 C 0.85704 0.72259 0.75092 0.0
C2345 C 0.85943 0.76682 0.7089 0.0
C2346 C 0.85884 0.75105 0.72272 0.0
H2347 H 0.87405 0.69895 0.81019 0.0
H2348 H 0.87524 0.72274 0.78536 0.0
H2349 H 0.82775 0.7197 0.7419 0.0
H2350 H 0.84998 0.77676 0.66258 0.0
H2351 H 0.84983 0.7501 0.68504 0.0
C2352 C 0.32263 0.2196 0.13968 0.0
C2353 C 0.31775 0.20283 0.13015 0.0
C2354 C 0.31033 0.23512 0.13958 0.0
C2355 C 0.27096 0.25783 0.11498 0.0
H2356 H 0.25436 0.27357 0.1649 0.0
C2357 C 0.20521 0.30535 0.12536 0.0
C2358 C 0.20452 0.3176 0.14102 0.0
C2359 C 0.22018 0.29257 0.12322 0.0
C2360 C 0.25907 0.26974 0.15082 0.0
H2361 H 0.29683 0.18939 0.11229 0.0
H2362 H 0.2755 0.21681 0.11159 0.0
H2363 H 0.27915 0.24986 0.16185 0.0
H2364 H 0.21931 0.32657 0.16635 0.0
H2365 H 0.24585 0.30499 0.16223 0.0
H2366 H 0.25128 0.27793 0.10382 0.0
C2367 C 0.28873 0.21785 0.11928 0.0
C2368 C 0.27324 0.25605 0.14912 0.0
C2369 C 0.30085 0.2022 0.11971 0.0
C2370 C 0.21934 0.31714 0.15425 0.0
C2371 C 0.23451 0.30463 0.15192 0.0
C2372 C 0.25703 0.27183 0.11665 0.0
C2373 C 0.29313 0.23426 0.12962 0.0
C2374 C 0.27915 0.24981 0.1312 0.0
C2375 C 0.23504 0.29196 0.13651 0.0
C2376 C 0.25068 0.27782 0.13461 0.0
H2377 H 0.33546 0.22033 0.14802 0.0
H2378 H 0.31403 0.24765 0.14763 0.0
H2379 H 0.27538 0.2533 0.101 0.0
H2380 H 0.19393 0.3053 0.11497 0.0
H2381 H 0.21979 0.28286 0.11137 0.0
C2382 C 0.20941 0.69901 0.84224 0.0
C2383 C 0.20308 0.68841 0.85783 0.0
C2384 C 0.22516 0.71082 0.84385 0.0
C2385 C 0.25542 0.73532 0.87921 0.0
H2386 H 0.28743 0.74285 0.83519 0.0
C2387 C 0.32376 0.78255 0.87648 0.0
C2388 C 0.32253 0.79658 0.86242 0.0
C2389 C 0.31028 0.768 0.87731 0.0
C2390 C 0.27864 0.74079 0.84761 0.0
H2391 H 0.20844 0.68172 0.88732 0.0
H2392 H 0.23636 0.7019 0.89 0.0
H2393 H 0.2622 0.71936 0.83407 0.0
H2394 H 0.30662 0.80623 0.83801 0.0
H2395 H 0.28343 0.78067 0.8392 0.0
H2396 H 0.27228 0.75676 0.8927 0.0
C2397 C 0.22889 0.70144 0.87662 0.0
C2398 C 0.26407 0.72747 0.84695 0.0
C2399 C 0.21293 0.68979 0.87507 0.0
C2400 C 0.30776 0.79574 0.84913 0.0
C2401 C 0.2946 0.78105 0.84971 0.0
C2402 C 0.27025 0.74846 0.87995 0.0
C2403 C 0.2352 0.71213 0.86102 0.0
C2404 C 0.25192 0.72491 0.86255 0.0
C2405 C 0.29573 0.76707 0.86377 0.0
C2406 C 0.28166 0.7516 0.86399 0.0
H2407 H 0.20201 0.69844 0.82882 0.0
H2408 H 0.22923 0.71917 0.83165 0.0
H2409 H 0.24629 0.7339 0.89144 0.0
H2410 H 0.33502 0.78297 0.88686 0.0
H2411 H 0.31139 0.75732 0.88826 0.0
C2412 C 0.30032 0.19693 0.85617 0.0
C2413 C 0.31802 0.19804 0.84716 0.0
C2414 C 0.28754 0.21191 0.85501 0.0
C2415 C 0.28321 0.2623 0.85088 0.0
H2416 H 0.23211 0.2515 0.834 0.0
C2417 C 0.22373 0.31949 0.84856 0.0
C2418 C 0.20543 0.3133 0.85325 0.0
C2419 C 0.23851 0.30639 0.84654 0.0
C2420 C 0.24624 0.25475 0.83898 0.0
H2421 H 0.33633 0.21577 0.83005 0.0
H2422 H 0.31394 0.24242 0.82849 0.0
H2423 H 0.25612 0.22681 0.83255 0.0
H2424 H 0.1884 0.28891 0.86058 0.0
H2425 H 0.21409 0.26621 0.85777 0.0
H2426 H 0.27315 0.28998 0.85821 0.0
C2427 C 0.31004 0.22976 0.83623 0.0
C2428 C 0.26 0.24063 0.83797 0.0
C2429 C 0.32275 0.21453 0.83705 0.0
C2430 C 0.20231 0.29397 0.85658 0.0
C2431 C 0.21704 0.28097 0.85483 0.0
C2432 C 0.26932 0.27641 0.85218 0.0
C2433 C 0.29229 0.22847 0.8451 0.0
C2434 C 0.2785 0.24417 0.8442 0.0
C2435 C 0.23526 0.28691 0.84938 0.0
C2436 C 0.25055 0.27266 0.84661 0.0
H2437 H 0.29624 0.18438 0.864 0.0
H2438 H 0.27397 0.21066 0.86206 0.0
H2439 H 0.2974 0.26528 0.85587 0.0
H2440 H 0.22642 0.33433 0.84582 0.0
H2441 H 0.25232 0.31148 0.84225 0.0
C2442 C 0.6821 0.22008 0.86706 0.0
C2443 C 0.68862 0.2018 0.86247 0.0
C2444 C 0.6946 0.23546 0.86749 0.0
C2445 C 0.74073 0.2515 0.84924 0.0
H2446 H 0.74 0.28609 0.89187 0.0
C2447 C 0.80095 0.305 0.86252 0.0
C2448 C 0.79624 0.3229 0.86985 0.0
C2449 C 0.78723 0.29083 0.86099 0.0
C2450 C 0.74023 0.27676 0.8797 0.0
H2451 H 0.7137 0.18553 0.85512 0.0
H2452 H 0.73521 0.21229 0.85556 0.0
H2453 H 0.71691 0.26046 0.89027 0.0
H2454 H 0.77331 0.34006 0.88097 0.0
H2455 H 0.7493 0.31549 0.87793 0.0
H2456 H 0.76394 0.26776 0.83857 0.0
C2457 C 0.72038 0.21473 0.85861 0.0
C2458 C 0.727 0.26205 0.87882 0.0
C2459 C 0.70796 0.19936 0.85832 0.0
C2460 C 0.77744 0.32639 0.87537 0.0
C2461 C 0.76369 0.31225 0.87373 0.0
C2462 C 0.75387 0.26627 0.85004 0.0
C2463 C 0.71386 0.23294 0.8632 0.0
C2464 C 0.72724 0.24915 0.86368 0.0
C2465 C 0.76842 0.29424 0.86663 0.0
C2466 C 0.75392 0.27898 0.86538 0.0
H2467 H 0.66731 0.2226 0.87012 0.0
H2468 H 0.68913 0.24938 0.87092 0.0
H2469 H 0.74108 0.24193 0.83724 0.0
H2470 H 0.81532 0.30182 0.85819 0.0
H2471 H 0.79147 0.27706 0.85573 0.0
C2472 C 0.70769 0.79458 0.84067 0.0
C2473 C 0.69698 0.80018 0.85646 0.0
C2474 C 0.72017 0.77933 0.84191 0.0
C2475 C 0.74603 0.74907 0.87624 0.0
H2476 H 0.75168 0.71664 0.83225 0.0
C2477 C 0.79138 0.68015 0.87494 0.0
C2478 C 0.80417 0.67912 0.85973 0.0
C2479 C 0.77754 0.69434 0.87544 0.0
C2480 C 0.75025 0.72561 0.84462 0.0
H2481 H 0.691 0.79421 0.886 0.0
H2482 H 0.71245 0.76718 0.88804 0.0
H2483 H 0.72873 0.74236 0.83161 0.0
H2484 H 0.81231 0.69177 0.83298 0.0
H2485 H 0.78805 0.71637 0.83373 0.0
H2486 H 0.76749 0.73195 0.88926 0.0
C2487 C 0.71148 0.77483 0.87478 0.0
C2488 C 0.73719 0.74043 0.84424 0.0
C2489 C 0.69912 0.79027 0.8736 0.0
C2490 C 0.80276 0.69238 0.84496 0.0
C2491 C 0.78879 0.70632 0.84531 0.0
C2492 C 0.75895 0.73406 0.87669 0.0
C2493 C 0.7221 0.7691 0.8589 0.0
C2494 C 0.73515 0.75258 0.8599 0.0
C2495 C 0.77608 0.70747 0.86055 0.0
C2496 C 0.76139 0.72241 0.86076 0.0
H2497 H 0.70654 0.80206 0.82733 0.0
H2498 H 0.72844 0.77567 0.82952 0.0
H2499 H 0.74498 0.75824 0.88849 0.0
H2500 H 0.79227 0.67015 0.88653 0.0
H2501 H 0.76785 0.69491 0.88732 0.0
C2502 C 0.69762 0.80046 0.14062 0.0
C2503 C 0.6779 0.79762 0.14147 0.0
C2504 C 0.71005 0.78509 0.14039 0.0
C2505 C 0.71454 0.73497 0.12885 0.0
H2506 H 0.75558 0.73568 0.16533 0.0
C2507 C 0.76693 0.67242 0.13508 0.0
C2508 C 0.78608 0.67708 0.13779 0.0
C2509 C 0.75285 0.68624 0.13695 0.0
C2510 C 0.74436 0.73532 0.15489 0.0
H2511 H 0.65599 0.77599 0.142 0.0
H2512 H 0.67777 0.74926 0.141 0.0
H2513 H 0.73297 0.76173 0.16455 0.0
H2514 H 0.8054 0.69985 0.14507 0.0
H2515 H 0.78108 0.72393 0.14776 0.0
H2516 H 0.72624 0.70896 0.11867 0.0
C2517 C 0.68347 0.7635 0.14073 0.0
C2518 C 0.73138 0.75023 0.15451 0.0
C2519 C 0.67099 0.77889 0.14123 0.0
C2520 C 0.79078 0.69572 0.14295 0.0
C2521 C 0.77676 0.70956 0.1446 0.0
C2522 C 0.7277 0.72016 0.12904 0.0
C2523 C 0.70311 0.76648 0.14069 0.0
C2524 C 0.71644 0.75028 0.14139 0.0
C2525 C 0.75762 0.70509 0.14139 0.0
C2526 C 0.7429 0.72022 0.14196 0.0
H2527 H 0.70359 0.81454 0.14028 0.0
H2528 H 0.72515 0.78777 0.14 0.0
H2529 H 0.7032 0.73474 0.11853 0.0
H2530 H 0.76282 0.65816 0.13122 0.0
H2531 H 0.73824 0.68217 0.13475 0.0
C2532 C 0.21555 0.67134 0.13985 0.0
C2533 C 0.20162 0.67498 0.15359 0.0
C2534 C 0.23172 0.68273 0.1387 0.0
C2535 C 0.25918 0.72003 0.16421 0.0
H2536 H 0.27203 0.7362 0.11332 0.0
C2537 C 0.30132 0.78834 0.14739 0.0
C2538 C 0.31462 0.78751 0.1326 0.0
C2539 C 0.28963 0.77282 0.15124 0.0
C2540 C 0.26883 0.73163 0.12762 0.0
H2541 H 0.19448 0.69251 0.17779 0.0
H2542 H 0.22222 0.71266 0.17543 0.0
H2543 H 0.2483 0.71169 0.11787 0.0
H2544 H 0.32652 0.76949 0.11069 0.0
H2545 H 0.30615 0.74252 0.11743 0.0
H2546 H 0.27934 0.74055 0.17389 0.0
C2547 C 0.22082 0.70098 0.16559 0.0
C2548 C 0.25525 0.71751 0.13023 0.0
C2549 C 0.20474 0.68957 0.16678 0.0
C2550 C 0.31634 0.77067 0.12211 0.0
C2551 C 0.30462 0.75522 0.12591 0.0
C2552 C 0.27269 0.73426 0.16158 0.0
C2553 C 0.23429 0.698 0.15125 0.0
C2554 C 0.25008 0.71168 0.14856 0.0
C2555 C 0.29097 0.75621 0.14033 0.0
C2556 C 0.2775 0.74034 0.14326 0.0
H2557 H 0.21362 0.66025 0.12947 0.0
H2558 H 0.24199 0.67983 0.12768 0.0
H2559 H 0.25574 0.71568 0.17851 0.0
H2560 H 0.29969 0.80109 0.15577 0.0
H2561 H 0.27913 0.77404 0.16236 0.0
C2562 C 0.68393 0.21118 0.12881 0.0
C2563 C 0.68156 0.20296 0.1468 0.0
C2564 C 0.69545 0.22714 0.12647 0.0
C2565 C 0.71959 0.26553 0.15361 0.0
H2566 H 0.75303 0.26707 0.11007 0.0
C2567 C 0.78888 0.30808 0.15173 0.0
C2568 C 0.79344 0.31811 0.13518 0.0
C2569 C 0.773 0.29634 0.15231 0.0
C2570 C 0.74356 0.267 0.12214 0.0
H2571 H 0.68939 0.20511 0.17643 0.0
H2572 H 0.70977 0.23248 0.17231 0.0
H2573 H 0.72949 0.24193 0.11261 0.0
H2574 H 0.78487 0.32403 0.10635 0.0
H2575 H 0.75707 0.30315 0.10724 0.0
H2576 H 0.73432 0.29014 0.16349 0.0
C2577 C 0.70241 0.22697 0.16004 0.0
C2578 C 0.73004 0.25261 0.12361 0.0
C2579 C 0.69079 0.21115 0.1624 0.0
C2580 C 0.78157 0.31651 0.1193 0.0
C2581 C 0.76579 0.3045 0.11978 0.0
C2582 C 0.73323 0.27978 0.15222 0.0
C2583 C 0.70497 0.23515 0.14204 0.0
C2584 C 0.71811 0.25147 0.13955 0.0
C2585 C 0.76145 0.2942 0.13627 0.0
C2586 C 0.74558 0.28046 0.13664 0.0
H2587 H 0.67691 0.20529 0.11651 0.0
H2588 H 0.69688 0.23319 0.11246 0.0
H2589 H 0.71036 0.26539 0.16586 0.0
H2590 H 0.79772 0.30921 0.1642 0.0
H2591 H 0.77012 0.28846 0.16516 0.0
loop_
_geom_bond_atom_site_label_1
_geom_bond_atom_site_label_2
_geom_bond_distance
_geom_bond_site_symmetry_2
_ccdc_geom_bond_type
Co0 N4 2.148 . S
Co0 N10 2.128 . S
Co0 N20 2.194 . S
Co0 O25 2.351 . S
Co0 O26 2.155 . S
Co0 O27 2.096 . S
C1 N4 1.301 . S
C1 N5 1.328 . S
C1 H6 0.930 . S
C2 C3 1.333 . S
C2 N4 1.317 . S
C2 H7 0.930 . S
C3 C2 1.333 . S
C3 N5 1.350 . S
C3 H29 0.931 . S
N4 Co0 2.148 . S
N4 C1 1.301 . S
N4 C2 1.317 . S
N5 C1 1.328 . S
N5 C3 1.350 . S
H6 C1 0.930 . S
H7 C2 0.930 . S
C8 O9 1.224 . S
C8 O27 1.247 . S
O9 C8 1.224 . S
N10 Co0 2.128 . S
N10 C11 1.355 . S
N10 C13 1.311 . S
C11 N10 1.355 . S
C11 C12 1.363 . S
C11 H23 0.929 . S
C12 C11 1.363 . S
C12 N14 1.375 . S
C12 H30 0.931 . S
C13 N10 1.311 . S
C13 N14 1.347 . S
C13 H24 0.929 . S
N14 C12 1.375 . S
N14 C13 1.347 . S
C15 C18 1.365 . S
C15 N20 1.328 . S
C15 H21 0.929 . S
C16 C17 1.362 . S
C16 C19 1.378 . S
C16 H31 0.929 . S
C17 C16 1.362 . S
C17 C18 1.366 . S
C18 C15 1.365 . S
C18 C17 1.366 . S
C18 H32 0.930 . S
C19 C16 1.378 . S
C19 N20 1.315 . S
C19 H22 0.930 . S
N20 Co0 2.194 . S
N20 C15 1.328 . S
N20 C19 1.315 . S
H21 C15 0.929 . S
H22 C19 0.930 . S
H23 C11 0.929 . S
H24 C13 0.929 . S
O25 Co0 2.351 . S
O25 C28 1.244 . S
O26 Co0 2.155 . S
O26 C28 1.240 . S
O27 Co0 2.096 . S
O27 C8 1.247 . S
C28 O25 1.244 . S
C28 O26 1.240 . S
H29 C3 0.931 . S
H30 C12 0.931 . S
H31 C16 0.929 . S
H32 C18 0.930 . S
Co33 N37 2.148 . S
Co33 N43 2.128 . S
Co33 N53 2.194 . S
Co33 O58 2.351 . S
Co33 O59 2.155 . S
Co33 O60 2.096 . S
C34 N37 1.301 . S
C34 N38 1.328 . S
C34 H39 0.930 . S
C35 C36 1.333 . S
C35 N37 1.317 . S
C35 H40 0.930 . S
C36 C35 1.333 . S
C36 N38 1.350 . S
C36 H62 0.931 . S
N37 Co33 2.148 . S
N37 C34 1.301 . S
N37 C35 1.317 . S
N38 C34 1.328 . S
N38 C36 1.350 . S
H39 C34 0.930 . S
H40 C35 0.930 . S
C41 O42 1.224 . S
C41 O60 1.247 . S
O42 C41 1.224 . S
N43 Co33 2.128 . S
N43 C44 1.355 . S
N43 C46 1.311 . S
C44 N43 1.355 . S
C44 C45 1.363 . S
C44 H56 0.929 . S
C45 C44 1.363 . S
C45 N47 1.375 . S
C45 H63 0.931 . S
C46 N43 1.311 . S
C46 N47 1.347 . S
C46 H57 0.929 . S
N47 C45 1.375 . S
N47 C46 1.347 . S
C48 C51 1.365 . S
C48 N53 1.328 . S
C48 H54 0.929 . S
C49 C50 1.362 . S
C49 C52 1.378 . S
C49 H64 0.929 . S
C50 C49 1.362 . S
C50 C51 1.366 . S
C51 C48 1.365 . S
C51 C50 1.366 . S
C51 H65 0.930 . S
C52 C49 1.378 . S
C52 N53 1.315 . S
C52 H55 0.930 . S
N53 Co33 2.194 . S
N53 C48 1.328 . S
N53 C52 1.315 . S
H54 C48 0.929 . S
H55 C52 0.930 . S
H56 C44 0.929 . S
H57 C46 0.929 . S
O58 Co33 2.351 . S
O58 C61 1.244 . S
O59 Co33 2.155 . S
O59 C61 1.240 . S
O60 Co33 2.096 . S
O60 C41 1.247 . S
C61 O58 1.244 . S
C61 O59 1.240 . S
H62 C36 0.931 . S
H63 C45 0.931 . S
H64 C49 0.929 . S
H65 C51 0.930 . S
Co66 N70 2.148 . S
Co66 N76 2.128 . S
Co66 N86 2.194 . S
Co66 O91 2.351 . S
Co66 O92 2.155 . S
Co66 O93 2.096 . S
C67 N70 1.301 . S
C67 N71 1.328 . S
C67 H72 0.930 . S
C68 C69 1.333 . S
C68 N70 1.317 . S
C68 H73 0.930 . S
C69 C68 1.333 . S
C69 N71 1.350 . S
C69 H95 0.931 . S
N70 Co66 2.148 . S
N70 C67 1.301 . S
N70 C68 1.317 . S
N71 C67 1.328 . S
N71 C69 1.350 . S
H72 C67 0.930 . S
H73 C68 0.930 . S
C74 O75 1.224 . S
C74 O93 1.247 . S
O75 C74 1.224 . S
N76 Co66 2.128 . S
N76 C77 1.355 . S
N76 C79 1.311 . S
C77 N76 1.355 . S
C77 C78 1.363 . S
C77 H89 0.929 . S
C78 C77 1.363 . S
C78 N80 1.375 . S
C78 H96 0.931 . S
C79 N76 1.311 . S
C79 N80 1.347 . S
C79 H90 0.929 . S
N80 C78 1.375 . S
N80 C79 1.347 . S
C81 C84 1.365 . S
C81 N86 1.328 . S
C81 H87 0.929 . S
C82 C83 1.362 . S
C82 C85 1.378 . S
C82 H97 0.929 . S
C83 C82 1.362 . S
C83 C84 1.366 . S
C84 C81 1.365 . S
C84 C83 1.366 . S
C84 H98 0.930 . S
C85 C82 1.378 . S
C85 N86 1.315 . S
C85 H88 0.930 . S
N86 Co66 2.194 . S
N86 C81 1.328 . S
N86 C85 1.315 . S
H87 C81 0.929 . S
H88 C85 0.930 . S
H89 C77 0.929 . S
H90 C79 0.929 . S
O91 Co66 2.351 . S
O91 C94 1.244 . S
O92 Co66 2.155 . S
O92 C94 1.240 . S
O93 Co66 2.096 . S
O93 C74 1.247 . S
C94 O91 1.244 . S
C94 O92 1.240 . S
H95 C69 0.931 . S
H96 C78 0.931 . S
H97 C82 0.929 . S
H98 C84 0.930 . S
Co99 N103 2.148 . S
Co99 N109 2.128 . S
Co99 N119 2.194 . S
Co99 O124 2.351 . S
Co99 O125 2.155 . S
Co99 O126 2.096 . S
C100 N103 1.301 . S
C100 N104 1.328 . S
C100 H105 0.930 . S
C101 C102 1.333 . S
C101 N103 1.317 . S
C101 H106 0.930 . S
C102 C101 1.333 . S
C102 N104 1.350 . S
C102 H128 0.931 . S
N103 Co99 2.148 . S
N103 C100 1.301 . S
N103 C101 1.317 . S
N104 C100 1.328 . S
N104 C102 1.350 . S
H105 C100 0.930 . S
H106 C101 0.930 . S
C107 O108 1.224 . S
C107 O126 1.247 . S
O108 C107 1.224 . S
N109 Co99 2.128 . S
N109 C110 1.355 . S
N109 C112 1.311 . S
C110 N109 1.355 . S
C110 C111 1.363 . S
C110 H122 0.929 . S
C111 C110 1.363 . S
C111 N113 1.375 . S
C111 H129 0.931 . S
C112 N109 1.311 . S
C112 N113 1.347 . S
C112 H123 0.929 . S
N113 C111 1.375 . S
N113 C112 1.347 . S
C114 C117 1.365 . S
C114 N119 1.328 . S
C114 H120 0.929 . S
C115 C116 1.362 . S
C115 C118 1.378 . S
C115 H130 0.929 . S
C116 C115 1.362 . S
C116 C117 1.366 . S
C117 C114 1.365 . S
C117 C116 1.366 . S
C117 H131 0.930 . S
C118 C115 1.378 . S
C118 N119 1.315 . S
C118 H121 0.930 . S
N119 Co99 2.194 . S
N119 C114 1.328 . S
N119 C118 1.315 . S
H120 C114 0.929 . S
H121 C118 0.930 . S
H122 C110 0.929 . S
H123 C112 0.929 . S
O124 Co99 2.351 . S
O124 C127 1.244 . S
O125 Co99 2.155 . S
O125 C127 1.240 . S
O126 Co99 2.096 . S
O126 C107 1.247 . S
C127 O124 1.244 . S
C127 O125 1.240 . S
H128 C102 0.931 . S
H129 C111 0.931 . S
H130 C115 0.929 . S
H131 C117 0.930 . S
Co132 N136 2.148 . S
Co132 N142 2.128 . S
Co132 N152 2.194 . S
Co132 O157 2.351 . S
Co132 O158 2.155 . S
Co132 O159 2.096 . S
C133 N136 1.301 . S
C133 N137 1.328 . S
C133 H138 0.930 . S
C134 C135 1.333 . S
C134 N136 1.317 . S
C134 H139 0.930 . S
C135 C134 1.333 . S
C135 N137 1.350 . S
C135 H161 0.931 . S
N136 Co132 2.148 . S
N136 C133 1.301 . S
N136 C134 1.317 . S
N137 C133 1.328 . S
N137 C135 1.350 . S
H138 C133 0.930 . S
H139 C134 0.930 . S
C140 O141 1.224 . S
C140 O159 1.247 . S
O141 C140 1.224 . S
N142 Co132 2.128 . S
N142 C143 1.355 . S
N142 C145 1.311 . S
C143 N142 1.355 . S
C143 C144 1.363 . S
C143 H155 0.929 . S
C144 C143 1.363 . S
C144 N146 1.375 . S
C144 H162 0.931 . S
C145 N142 1.311 . S
C145 N146 1.347 . S
C145 H156 0.929 . S
N146 C144 1.375 . S
N146 C145 1.347 . S
C147 C150 1.365 . S
C147 N152 1.328 . S
C147 H153 0.929 . S
C148 C149 1.362 . S
C148 C151 1.378 . S
C148 H163 0.929 . S
C149 C148 1.362 . S
C149 C150 1.366 . S
C150 C147 1.365 . S
C150 C149 1.366 . S
C150 H164 0.930 . S
C151 C148 1.378 . S
C151 N152 1.315 . S
C151 H154 0.930 . S
N152 Co132 2.194 . S
N152 C147 1.328 . S
N152 C151 1.315 . S
H153 C147 0.929 . S
H154 C151 0.930 . S
H155 C143 0.929 . S
H156 C145 0.929 . S
O157 Co132 2.351 . S
O157 C160 1.244 . S
O158 Co132 2.155 . S
O158 C160 1.240 . S
O159 Co132 2.096 . S
O159 C140 1.247 . S
C160 O157 1.244 . S
C160 O158 1.240 . S
H161 C135 0.931 . S
H162 C144 0.931 . S
H163 C148 0.929 . S
H164 C150 0.930 . S
Co165 N169 2.148 . S
Co165 N175 2.128 . S
Co165 N185 2.194 . S
Co165 O190 2.351 . S
Co165 O191 2.155 . S
Co165 O192 2.096 . S
C166 N169 1.301 . S
C166 N170 1.328 . S
C166 H171 0.930 . S
C167 C168 1.333 . S
C167 N169 1.317 . S
C167 H172 0.930 . S
C168 C167 1.333 . S
C168 N170 1.350 . S
C168 H194 0.931 . S
N169 Co165 2.148 . S
N169 C166 1.301 . S
N169 C167 1.317 . S
N170 C166 1.328 . S
N170 C168 1.350 . S
H171 C166 0.930 . S
H172 C167 0.930 . S
C173 O174 1.224 . S
C173 O192 1.247 . S
O174 C173 1.224 . S
N175 Co165 2.128 . S
N175 C176 1.355 . S
N175 C178 1.311 . S
C176 N175 1.355 . S
C176 C177 1.363 . S
C176 H188 0.929 . S
C177 C176 1.363 . S
C177 N179 1.375 . S
C177 H195 0.931 . S
C178 N175 1.311 . S
C178 N179 1.347 . S
C178 H189 0.929 . S
N179 C177 1.375 . S
N179 C178 1.347 . S
C180 C183 1.365 . S
C180 N185 1.328 . S
C180 H186 0.929 . S
C181 C182 1.362 . S
C181 C184 1.378 . S
C181 H196 0.929 . S
C182 C181 1.362 . S
C182 C183 1.366 . S
C183 C180 1.365 . S
C183 C182 1.366 . S
C183 H197 0.930 . S
C184 C181 1.378 . S
C184 N185 1.315 . S
C184 H187 0.930 . S
N185 Co165 2.194 . S
N185 C180 1.328 . S
N185 C184 1.315 . S
H186 C180 0.929 . S
H187 C184 0.930 . S
H188 C176 0.929 . S
H189 C178 0.929 . S
O190 Co165 2.351 . S
O190 C193 1.244 . S
O191 Co165 2.155 . S
O191 C193 1.240 . S
O192 Co165 2.096 . S
O192 C173 1.247 . S
C193 O190 1.244 . S
C193 O191 1.240 . S
H194 C168 0.931 . S
H195 C177 0.931 . S
H196 C181 0.929 . S
H197 C183 0.930 . S
Co198 N202 2.148 . S
Co198 N208 2.128 . S
Co198 N218 2.194 . S
Co198 O223 2.351 . S
Co198 O224 2.155 . S
Co198 O225 2.096 . S
C199 N202 1.301 . S
C199 N203 1.328 . S
C199 H204 0.930 . S
C200 C201 1.333 . S
C200 N202 1.317 . S
C200 H205 0.930 . S
C201 C200 1.333 . S
C201 N203 1.350 . S
C201 H227 0.931 . S
N202 Co198 2.148 . S
N202 C199 1.301 . S
N202 C200 1.317 . S
N203 C199 1.328 . S
N203 C201 1.350 . S
H204 C199 0.930 . S
H205 C200 0.930 . S
C206 O207 1.224 . S
C206 O225 1.247 . S
O207 C206 1.224 . S
N208 Co198 2.128 . S
N208 C209 1.355 . S
N208 C211 1.311 . S
C209 N208 1.355 . S
C209 C210 1.363 . S
C209 H221 0.929 . S
C210 C209 1.363 . S
C210 N212 1.375 . S
C210 H228 0.931 . S
C211 N208 1.311 . S
C211 N212 1.347 . S
C211 H222 0.929 . S
N212 C210 1.375 . S
N212 C211 1.347 . S
C213 C216 1.365 . S
C213 N218 1.328 . S
C213 H219 0.929 . S
C214 C215 1.362 . S
C214 C217 1.378 . S
C214 H229 0.929 . S
C215 C214 1.362 . S
C215 C216 1.366 . S
C216 C213 1.365 . S
C216 C215 1.366 . S
C216 H230 0.930 . S
C217 C214 1.378 . S
C217 N218 1.315 . S
C217 H220 0.930 . S
N218 Co198 2.194 . S
N218 C213 1.328 . S
N218 C217 1.315 . S
H219 C213 0.929 . S
H220 C217 0.930 . S
H221 C209 0.929 . S
H222 C211 0.929 . S
O223 Co198 2.351 . S
O223 C226 1.244 . S
O224 Co198 2.155 . S
O224 C226 1.240 . S
O225 Co198 2.096 . S
O225 C206 1.247 . S
C226 O223 1.244 . S
C226 O224 1.240 . S
H227 C201 0.931 . S
H228 C210 0.931 . S
H229 C214 0.929 . S
H230 C216 0.930 . S
Co231 N235 2.148 . S
Co231 N241 2.128 . S
Co231 N251 2.194 . S
Co231 O256 2.351 . S
Co231 O257 2.155 . S
Co231 O258 2.096 . S
C232 N235 1.301 . S
C232 N236 1.328 . S
C232 H237 0.930 . S
C233 C234 1.333 . S
C233 N235 1.317 . S
C233 H238 0.930 . S
C234 C233 1.333 . S
C234 N236 1.350 . S
C234 H260 0.931 . S
N235 Co231 2.148 . S
N235 C232 1.301 . S
N235 C233 1.317 . S
N236 C232 1.328 . S
N236 C234 1.350 . S
H237 C232 0.930 . S
H238 C233 0.930 . S
C239 O240 1.224 . S
C239 O258 1.247 . S
O240 C239 1.224 . S
N241 Co231 2.128 . S
N241 C242 1.355 . S
N241 C244 1.311 . S
C242 N241 1.355 . S
C242 C243 1.363 . S
C242 H254 0.929 . S
C243 C242 1.363 . S
C243 N245 1.375 . S
C243 H261 0.931 . S
C244 N241 1.311 . S
C244 N245 1.347 . S
C244 H255 0.929 . S
N245 C243 1.375 . S
N245 C244 1.347 . S
C246 C249 1.365 . S
C246 N251 1.328 . S
C246 H252 0.929 . S
C247 C248 1.362 . S
C247 C250 1.378 . S
C247 H262 0.929 . S
C248 C247 1.362 . S
C248 C249 1.366 . S
C249 C246 1.365 . S
C249 C248 1.366 . S
C249 H263 0.930 . S
C250 C247 1.378 . S
C250 N251 1.315 . S
C250 H253 0.930 . S
N251 Co231 2.194 . S
N251 C246 1.328 . S
N251 C250 1.315 . S
H252 C246 0.929 . S
H253 C250 0.930 . S
H254 C242 0.929 . S
H255 C244 0.929 . S
O256 Co231 2.351 . S
O256 C259 1.244 . S
O257 Co231 2.155 . S
O257 C259 1.240 . S
O258 Co231 2.096 . S
O258 C239 1.247 . S
C259 O256 1.244 . S
C259 O257 1.240 . S
H260 C234 0.931 . S
H261 C243 0.931 . S
H262 C247 0.929 . S
H263 C249 0.930 . S
Co264 N268 2.148 . S
Co264 N274 2.128 . S
Co264 N284 2.194 . S
Co264 O289 2.351 . S
Co264 O290 2.155 . S
Co264 O291 2.096 . S
C265 N268 1.301 . S
C265 N269 1.328 . S
C265 H270 0.930 . S
C266 C267 1.333 . S
C266 N268 1.317 . S
C266 H271 0.930 . S
C267 C266 1.333 . S
C267 N269 1.350 . S
C267 H293 0.931 . S
N268 Co264 2.148 . S
N268 C265 1.301 . S
N268 C266 1.317 . S
N269 C265 1.328 . S
N269 C267 1.350 . S
H270 C265 0.930 . S
H271 C266 0.930 . S
C272 O273 1.224 . S
C272 O291 1.247 . S
O273 C272 1.224 . S
N274 Co264 2.128 . S
N274 C275 1.355 . S
N274 C277 1.311 . S
C275 N274 1.355 . S
C275 C276 1.363 . S
C275 H287 0.929 . S
C276 C275 1.363 . S
C276 N278 1.375 . S
C276 H294 0.931 . S
C277 N274 1.311 . S
C277 N278 1.347 . S
C277 H288 0.929 . S
N278 C276 1.375 . S
N278 C277 1.347 . S
C279 C282 1.365 . S
C279 N284 1.328 . S
C279 H285 0.929 . S
C280 C281 1.362 . S
C280 C283 1.378 . S
C280 H295 0.929 . S
C281 C280 1.362 . S
C281 C282 1.366 . S
C282 C279 1.365 . S
C282 C281 1.366 . S
C282 H296 0.930 . S
C283 C280 1.378 . S
C283 N284 1.315 . S
C283 H286 0.930 . S
N284 Co264 2.194 . S
N284 C279 1.328 . S
N284 C283 1.315 . S
H285 C279 0.929 . S
H286 C283 0.930 . S
H287 C275 0.929 . S
H288 C277 0.929 . S
O289 Co264 2.351 . S
O289 C292 1.244 . S
O290 Co264 2.155 . S
O290 C292 1.240 . S
O291 Co264 2.096 . S
O291 C272 1.247 . S
C292 O289 1.244 . S
C292 O290 1.240 . S
H293 C267 0.931 . S
H294 C276 0.931 . S
H295 C280 0.929 . S
H296 C282 0.930 . S
Co297 N301 2.148 . S
Co297 N307 2.128 . S
Co297 N317 2.194 . S
Co297 O322 2.351 . S
Co297 O323 2.155 . S
Co297 O324 2.096 . S
C298 N301 1.301 . S
C298 N302 1.328 . S
C298 H303 0.930 . S
C299 C300 1.333 . S
C299 N301 1.317 . S
C299 H304 0.930 . S
C300 C299 1.333 . S
C300 N302 1.350 . S
C300 H326 0.931 . S
N301 Co297 2.148 . S
N301 C298 1.301 . S
N301 C299 1.317 . S
N302 C298 1.328 . S
N302 C300 1.350 . S
H303 C298 0.930 . S
H304 C299 0.930 . S
C305 O306 1.224 . S
C305 O324 1.247 . S
O306 C305 1.224 . S
N307 Co297 2.128 . S
N307 C308 1.355 . S
N307 C310 1.311 . S
C308 N307 1.355 . S
C308 C309 1.363 . S
C308 H320 0.929 . S
C309 C308 1.363 . S
C309 N311 1.375 . S
C309 H327 0.931 . S
C310 N307 1.311 . S
C310 N311 1.347 . S
C310 H321 0.929 . S
N311 C309 1.375 . S
N311 C310 1.347 . S
C312 C315 1.365 . S
C312 N317 1.328 . S
C312 H318 0.929 . S
C313 C314 1.362 . S
C313 C316 1.378 . S
C313 H328 0.929 . S
C314 C313 1.362 . S
C314 C315 1.366 . S
C315 C312 1.365 . S
C315 C314 1.366 . S
C315 H329 0.930 . S
C316 C313 1.378 . S
C316 N317 1.315 . S
C316 H319 0.930 . S
N317 Co297 2.194 . S
N317 C312 1.328 . S
N317 C316 1.315 . S
H318 C312 0.929 . S
H319 C316 0.930 . S
H320 C308 0.929 . S
H321 C310 0.929 . S
O322 Co297 2.351 . S
O322 C325 1.244 . S
O323 Co297 2.155 . S
O323 C325 1.240 . S
O324 Co297 2.096 . S
O324 C305 1.247 . S
C325 O322 1.244 . S
C325 O323 1.240 . S
H326 C300 0.931 . S
H327 C309 0.931 . S
H328 C313 0.929 . S
H329 C315 0.930 . S
Co330 N334 2.148 . S
Co330 N340 2.128 . S
Co330 N350 2.194 . S
Co330 O355 2.351 . S
Co330 O356 2.155 . S
Co330 O357 2.096 . S
C331 N334 1.301 . S
C331 N335 1.328 . S
C331 H336 0.930 . S
C332 C333 1.333 . S
C332 N334 1.317 . S
C332 H337 0.930 . S
C333 C332 1.333 . S
C333 N335 1.350 . S
C333 H359 0.931 . S
N334 Co330 2.148 . S
N334 C331 1.301 . S
N334 C332 1.317 . S
N335 C331 1.328 . S
N335 C333 1.350 . S
H336 C331 0.930 . S
H337 C332 0.930 . S
C338 O339 1.224 . S
C338 O357 1.247 . S
O339 C338 1.224 . S
N340 Co330 2.128 . S
N340 C341 1.355 . S
N340 C343 1.311 . S
C341 N340 1.355 . S
C341 C342 1.363 . S
C341 H353 0.929 . S
C342 C341 1.363 . S
C342 N344 1.375 . S
C342 H360 0.931 . S
C343 N340 1.311 . S
C343 N344 1.347 . S
C343 H354 0.929 . S
N344 C342 1.375 . S
N344 C343 1.347 . S
C345 C348 1.365 . S
C345 N350 1.328 . S
C345 H351 0.929 . S
C346 C347 1.362 . S
C346 C349 1.378 . S
C346 H361 0.929 . S
C347 C346 1.362 . S
C347 C348 1.366 . S
C348 C345 1.365 . S
C348 C347 1.366 . S
C348 H362 0.930 . S
C349 C346 1.378 . S
C349 N350 1.315 . S
C349 H352 0.930 . S
N350 Co330 2.194 . S
N350 C345 1.328 . S
N350 C349 1.315 . S
H351 C345 0.929 . S
H352 C349 0.930 . S
H353 C341 0.929 . S
H354 C343 0.929 . S
O355 Co330 2.351 . S
O355 C358 1.244 . S
O356 Co330 2.155 . S
O356 C358 1.240 . S
O357 Co330 2.096 . S
O357 C338 1.247 . S
C358 O355 1.244 . S
C358 O356 1.240 . S
H359 C333 0.931 . S
H360 C342 0.931 . S
H361 C346 0.929 . S
H362 C348 0.930 . S
Co363 N367 2.148 . S
Co363 N373 2.128 . S
Co363 N383 2.194 . S
Co363 O388 2.351 . S
Co363 O389 2.155 . S
Co363 O390 2.096 . S
C364 N367 1.301 . S
C364 N368 1.328 . S
C364 H369 0.930 . S
C365 C366 1.333 . S
C365 N367 1.317 . S
C365 H370 0.930 . S
C366 C365 1.333 . S
C366 N368 1.350 . S
C366 H392 0.931 . S
N367 Co363 2.148 . S
N367 C364 1.301 . S
N367 C365 1.317 . S
N368 C364 1.328 . S
N368 C366 1.350 . S
H369 C364 0.930 . S
H370 C365 0.930 . S
C371 O372 1.224 . S
C371 O390 1.247 . S
O372 C371 1.224 . S
N373 Co363 2.128 . S
N373 C374 1.355 . S
N373 C376 1.311 . S
C374 N373 1.355 . S
C374 C375 1.363 . S
C374 H386 0.929 . S
C375 C374 1.363 . S
C375 N377 1.375 . S
C375 H393 0.931 . S
C376 N373 1.311 . S
C376 N377 1.347 . S
C376 H387 0.929 . S
N377 C375 1.375 . S
N377 C376 1.347 . S
C378 C381 1.365 . S
C378 N383 1.328 . S
C378 H384 0.929 . S
C379 C380 1.362 . S
C379 C382 1.378 . S
C379 H394 0.929 . S
C380 C379 1.362 . S
C380 C381 1.366 . S
C381 C378 1.365 . S
C381 C380 1.366 . S
C381 H395 0.930 . S
C382 C379 1.378 . S
C382 N383 1.315 . S
C382 H385 0.930 . S
N383 Co363 2.194 . S
N383 C378 1.328 . S
N383 C382 1.315 . S
H384 C378 0.929 . S
H385 C382 0.930 . S
H386 C374 0.929 . S
H387 C376 0.929 . S
O388 Co363 2.351 . S
O388 C391 1.244 . S
O389 Co363 2.155 . S
O389 C391 1.240 . S
O390 Co363 2.096 . S
O390 C371 1.247 . S
C391 O388 1.244 . S
C391 O389 1.240 . S
H392 C366 0.931 . S
H393 C375 0.931 . S
H394 C379 0.929 . S
H395 C381 0.930 . S
Co396 N400 2.148 . S
Co396 N406 2.128 . S
Co396 N416 2.194 . S
Co396 O421 2.351 . S
Co396 O422 2.155 . S
Co396 O423 2.096 . S
C397 N400 1.301 . S
C397 N401 1.328 . S
C397 H402 0.930 . S
C398 C399 1.333 . S
C398 N400 1.317 . S
C398 H403 0.930 . S
C399 C398 1.333 . S
C399 N401 1.350 . S
C399 H425 0.931 . S
N400 Co396 2.148 . S
N400 C397 1.301 . S
N400 C398 1.317 . S
N401 C397 1.328 . S
N401 C399 1.350 . S
H402 C397 0.930 . S
H403 C398 0.930 . S
C404 O405 1.224 . S
C404 O423 1.247 . S
O405 C404 1.224 . S
N406 Co396 2.128 . S
N406 C407 1.355 . S
N406 C409 1.311 . S
C407 N406 1.355 . S
C407 C408 1.363 . S
C407 H419 0.929 . S
C408 C407 1.363 . S
C408 N410 1.375 . S
C408 H426 0.931 . S
C409 N406 1.311 . S
C409 N410 1.347 . S
C409 H420 0.929 . S
N410 C408 1.375 . S
N410 C409 1.347 . S
C411 C414 1.365 . S
C411 N416 1.328 . S
C411 H417 0.929 . S
C412 C413 1.362 . S
C412 C415 1.378 . S
C412 H427 0.929 . S
C413 C412 1.362 . S
C413 C414 1.366 . S
C414 C411 1.365 . S
C414 C413 1.366 . S
C414 H428 0.930 . S
C415 C412 1.378 . S
C415 N416 1.315 . S
C415 H418 0.930 . S
N416 Co396 2.194 . S
N416 C411 1.328 . S
N416 C415 1.315 . S
H417 C411 0.929 . S
H418 C415 0.930 . S
H419 C407 0.929 . S
H420 C409 0.929 . S
O421 Co396 2.351 . S
O421 C424 1.244 . S
O422 Co396 2.155 . S
O422 C424 1.240 . S
O423 Co396 2.096 . S
O423 C404 1.247 . S
C424 O421 1.244 . S
C424 O422 1.240 . S
H425 C399 0.931 . S
H426 C408 0.931 . S
H427 C412 0.929 . S
H428 C414 0.930 . S
Co429 N433 2.148 . S
Co429 N439 2.128 . S
Co429 N449 2.194 . S
Co429 O454 2.351 . S
Co429 O455 2.155 . S
Co429 O456 2.096 . S
C430 N433 1.301 . S
C430 N434 1.328 . S
C430 H435 0.930 . S
C431 C432 1.333 . S
C431 N433 1.317 . S
C431 H436 0.930 . S
C432 C431 1.333 . S
C432 N434 1.350 . S
C432 H458 0.931 . S
N433 Co429 2.148 . S
N433 C430 1.301 . S
N433 C431 1.317 . S
N434 C430 1.328 . S
N434 C432 1.350 . S
H435 C430 0.930 . S
H436 C431 0.930 . S
C437 O438 1.224 . S
C437 O456 1.247 . S
O438 C437 1.224 . S
N439 Co429 2.128 . S
N439 C440 1.355 . S
N439 C442 1.311 . S
C440 N439 1.355 . S
C440 C441 1.363 . S
C440 H452 0.929 . S
C441 C440 1.363 . S
C441 N443 1.375 . S
C441 H459 0.931 . S
C442 N439 1.311 . S
C442 N443 1.347 . S
C442 H453 0.929 . S
N443 C441 1.375 . S
N443 C442 1.347 . S
C444 C447 1.365 . S
C444 N449 1.328 . S
C444 H450 0.929 . S
C445 C446 1.362 . S
C445 C448 1.378 . S
C445 H460 0.929 . S
C446 C445 1.362 . S
C446 C447 1.366 . S
C447 C444 1.365 . S
C447 C446 1.366 . S
C447 H461 0.930 . S
C448 C445 1.378 . S
C448 N449 1.315 . S
C448 H451 0.930 . S
N449 Co429 2.194 . S
N449 C444 1.328 . S
N449 C448 1.315 . S
H450 C444 0.929 . S
H451 C448 0.930 . S
H452 C440 0.929 . S
H453 C442 0.929 . S
O454 Co429 2.351 . S
O454 C457 1.244 . S
O455 Co429 2.155 . S
O455 C457 1.240 . S
O456 Co429 2.096 . S
O456 C437 1.247 . S
C457 O454 1.244 . S
C457 O455 1.240 . S
H458 C432 0.931 . S
H459 C441 0.931 . S
H460 C445 0.929 . S
H461 C447 0.930 . S
Co462 N466 2.148 . S
Co462 N472 2.128 . S
Co462 N482 2.194 . S
Co462 O487 2.351 . S
Co462 O488 2.155 . S
Co462 O489 2.096 . S
C463 N466 1.301 . S
C463 N467 1.328 . S
C463 H468 0.930 . S
C464 C465 1.333 . S
C464 N466 1.317 . S
C464 H469 0.930 . S
C465 C464 1.333 . S
C465 N467 1.350 . S
C465 H491 0.931 . S
N466 Co462 2.148 . S
N466 C463 1.301 . S
N466 C464 1.317 . S
N467 C463 1.328 . S
N467 C465 1.350 . S
H468 C463 0.930 . S
H469 C464 0.930 . S
C470 O471 1.224 . S
C470 O489 1.247 . S
O471 C470 1.224 . S
N472 Co462 2.128 . S
N472 C473 1.355 . S
N472 C475 1.311 . S
C473 N472 1.355 . S
C473 C474 1.363 . S
C473 H485 0.929 . S
C474 C473 1.363 . S
C474 N476 1.375 . S
C474 H492 0.931 . S
C475 N472 1.311 . S
C475 N476 1.347 . S
C475 H486 0.929 . S
N476 C474 1.375 . S
N476 C475 1.347 . S
C477 C480 1.365 . S
C477 N482 1.328 . S
C477 H483 0.929 . S
C478 C479 1.362 . S
C478 C481 1.378 . S
C478 H493 0.929 . S
C479 C478 1.362 . S
C479 C480 1.366 . S
C480 C477 1.365 . S
C480 C479 1.366 . S
C480 H494 0.930 . S
C481 C478 1.378 . S
C481 N482 1.315 . S
C481 H484 0.930 . S
N482 Co462 2.194 . S
N482 C477 1.328 . S
N482 C481 1.315 . S
H483 C477 0.929 . S
H484 C481 0.930 . S
H485 C473 0.929 . S
H486 C475 0.929 . S
O487 Co462 2.351 . S
O487 C490 1.244 . S
O488 Co462 2.155 . S
O488 C490 1.240 . S
O489 Co462 2.096 . S
O489 C470 1.247 . S
C490 O487 1.244 . S
C490 O488 1.240 . S
H491 C465 0.931 . S
H492 C474 0.931 . S
H493 C478 0.929 . S
H494 C480 0.930 . S
Co495 N499 2.148 . S
Co495 N505 2.128 . S
Co495 N515 2.194 . S
Co495 O520 2.351 . S
Co495 O521 2.155 . S
Co495 O522 2.096 . S
C496 N499 1.301 . S
C496 N500 1.328 . S
C496 H501 0.930 . S
C497 C498 1.333 . S
C497 N499 1.317 . S
C497 H502 0.930 . S
C498 C497 1.333 . S
C498 N500 1.350 . S
C498 H524 0.931 . S
N499 Co495 2.148 . S
N499 C496 1.301 . S
N499 C497 1.317 . S
N500 C496 1.328 . S
N500 C498 1.350 . S
H501 C496 0.930 . S
H502 C497 0.930 . S
C503 O504 1.224 . S
C503 O522 1.247 . S
O504 C503 1.224 . S
N505 Co495 2.128 . S
N505 C506 1.355 . S
N505 C508 1.311 . S
C506 N505 1.355 . S
C506 C507 1.363 . S
C506 H518 0.929 . S
C507 C506 1.363 . S
C507 N509 1.375 . S
C507 H525 0.931 . S
C508 N505 1.311 . S
C508 N509 1.347 . S
C508 H519 0.929 . S
N509 C507 1.375 . S
N509 C508 1.347 . S
C510 C513 1.365 . S
C510 N515 1.328 . S
C510 H516 0.929 . S
C511 C512 1.362 . S
C511 C514 1.378 . S
C511 H526 0.929 . S
C512 C511 1.362 . S
C512 C513 1.366 . S
C513 C510 1.365 . S
C513 C512 1.366 . S
C513 H527 0.930 . S
C514 C511 1.378 . S
C514 N515 1.315 . S
C514 H517 0.930 . S
N515 Co495 2.194 . S
N515 C510 1.328 . S
N515 C514 1.315 . S
H516 C510 0.929 . S
H517 C514 0.930 . S
H518 C506 0.929 . S
H519 C508 0.929 . S
O520 Co495 2.351 . S
O520 C523 1.244 . S
O521 Co495 2.155 . S
O521 C523 1.240 . S
O522 Co495 2.096 . S
O522 C503 1.247 . S
C523 O520 1.244 . S
C523 O521 1.240 . S
H524 C498 0.931 . S
H525 C507 0.931 . S
H526 C511 0.929 . S
H527 C513 0.930 . S
Co528 N532 2.148 . S
Co528 N538 2.128 . S
Co528 N548 2.194 . S
Co528 O553 2.351 . S
Co528 O554 2.155 . S
Co528 O555 2.096 . S
C529 N532 1.301 . S
C529 N533 1.328 . S
C529 H534 0.930 . S
C530 C531 1.333 . S
C530 N532 1.317 . S
C530 H535 0.930 . S
C531 C530 1.333 . S
C531 N533 1.350 . S
C531 H557 0.931 . S
N532 Co528 2.148 . S
N532 C529 1.301 . S
N532 C530 1.317 . S
N533 C529 1.328 . S
N533 C531 1.350 . S
H534 C529 0.930 . S
H535 C530 0.930 . S
C536 O537 1.224 . S
C536 O555 1.247 . S
O537 C536 1.224 . S
N538 Co528 2.128 . S
N538 C539 1.355 . S
N538 C541 1.311 . S
C539 N538 1.355 . S
C539 C540 1.363 . S
C539 H551 0.929 . S
C540 C539 1.363 . S
C540 N542 1.375 . S
C540 H558 0.931 . S
C541 N538 1.311 . S
C541 N542 1.347 . S
C541 H552 0.929 . S
N542 C540 1.375 . S
N542 C541 1.347 . S
C543 C546 1.365 . S
C543 N548 1.328 . S
C543 H549 0.929 . S
C544 C545 1.362 . S
C544 C547 1.378 . S
C544 H559 0.929 . S
C545 C544 1.362 . S
C545 C546 1.366 . S
C546 C543 1.365 . S
C546 C545 1.366 . S
C546 H560 0.930 . S
C547 C544 1.378 . S
C547 N548 1.315 . S
C547 H550 0.930 . S
N548 Co528 2.194 . S
N548 C543 1.328 . S
N548 C547 1.315 . S
H549 C543 0.929 . S
H550 C547 0.930 . S
H551 C539 0.929 . S
H552 C541 0.929 . S
O553 Co528 2.351 . S
O553 C556 1.244 . S
O554 Co528 2.155 . S
O554 C556 1.240 . S
O555 Co528 2.096 . S
O555 C536 1.247 . S
C556 O553 1.244 . S
C556 O554 1.240 . S
H557 C531 0.931 . S
H558 C540 0.931 . S
H559 C544 0.929 . S
H560 C546 0.930 . S
Co561 N565 2.148 . S
Co561 N571 2.128 . S
Co561 N581 2.194 . S
Co561 O586 2.351 . S
Co561 O587 2.155 . S
Co561 O588 2.096 . S
C562 N565 1.301 . S
C562 N566 1.328 . S
C562 H567 0.930 . S
C563 C564 1.333 . S
C563 N565 1.317 . S
C563 H568 0.930 . S
C564 C563 1.333 . S
C564 N566 1.350 . S
C564 H590 0.931 . S
N565 Co561 2.148 . S
N565 C562 1.301 . S
N565 C563 1.317 . S
N566 C562 1.328 . S
N566 C564 1.350 . S
H567 C562 0.930 . S
H568 C563 0.930 . S
C569 O570 1.224 . S
C569 O588 1.247 . S
O570 C569 1.224 . S
N571 Co561 2.128 . S
N571 C572 1.355 . S
N571 C574 1.311 . S
C572 N571 1.355 . S
C572 C573 1.363 . S
C572 H584 0.929 . S
C573 C572 1.363 . S
C573 N575 1.375 . S
C573 H591 0.931 . S
C574 N571 1.311 . S
C574 N575 1.347 . S
C574 H585 0.929 . S
N575 C573 1.375 . S
N575 C574 1.347 . S
C576 C579 1.365 . S
C576 N581 1.328 . S
C576 H582 0.929 . S
C577 C578 1.362 . S
C577 C580 1.378 . S
C577 H592 0.929 . S
C578 C577 1.362 . S
C578 C579 1.366 . S
C579 C576 1.365 . S
C579 C578 1.366 . S
C579 H593 0.930 . S
C580 C577 1.378 . S
C580 N581 1.315 . S
C580 H583 0.930 . S
N581 Co561 2.194 . S
N581 C576 1.328 . S
N581 C580 1.315 . S
H582 C576 0.929 . S
H583 C580 0.930 . S
H584 C572 0.929 . S
H585 C574 0.929 . S
O586 Co561 2.351 . S
O586 C589 1.244 . S
O587 Co561 2.155 . S
O587 C589 1.240 . S
O588 Co561 2.096 . S
O588 C569 1.247 . S
C589 O586 1.244 . S
C589 O587 1.240 . S
H590 C564 0.931 . S
H591 C573 0.931 . S
H592 C577 0.929 . S
H593 C579 0.930 . S
Co594 N598 2.148 . S
Co594 N604 2.128 . S
Co594 N614 2.194 . S
Co594 O619 2.351 . S
Co594 O620 2.155 . S
Co594 O621 2.096 . S
C595 N598 1.301 . S
C595 N599 1.328 . S
C595 H600 0.930 . S
C596 C597 1.333 . S
C596 N598 1.317 . S
C596 H601 0.930 . S
C597 C596 1.333 . S
C597 N599 1.350 . S
C597 H623 0.931 . S
N598 Co594 2.148 . S
N598 C595 1.301 . S
N598 C596 1.317 . S
N599 C595 1.328 . S
N599 C597 1.350 . S
H600 C595 0.930 . S
H601 C596 0.930 . S
C602 O603 1.224 . S
C602 O621 1.247 . S
O603 C602 1.224 . S
N604 Co594 2.128 . S
N604 C605 1.355 . S
N604 C607 1.311 . S
C605 N604 1.355 . S
C605 C606 1.363 . S
C605 H617 0.929 . S
C606 C605 1.363 . S
C606 N608 1.375 . S
C606 H624 0.931 . S
C607 N604 1.311 . S
C607 N608 1.347 . S
C607 H618 0.929 . S
N608 C606 1.375 . S
N608 C607 1.347 . S
C609 C612 1.365 . S
C609 N614 1.328 . S
C609 H615 0.929 . S
C610 C611 1.362 . S
C610 C613 1.378 . S
C610 H625 0.929 . S
C611 C610 1.362 . S
C611 C612 1.366 . S
C612 C609 1.365 . S
C612 C611 1.366 . S
C612 H626 0.930 . S
C613 C610 1.378 . S
C613 N614 1.315 . S
C613 H616 0.930 . S
N614 Co594 2.194 . S
N614 C609 1.328 . S
N614 C613 1.315 . S
H615 C609 0.929 . S
H616 C613 0.930 . S
H617 C605 0.929 . S
H618 C607 0.929 . S
O619 Co594 2.351 . S
O619 C622 1.244 . S
O620 Co594 2.155 . S
O620 C622 1.240 . S
O621 Co594 2.096 . S
O621 C602 1.247 . S
C622 O619 1.244 . S
C622 O620 1.240 . S
H623 C597 0.931 . S
H624 C606 0.931 . S
H625 C610 0.929 . S
H626 C612 0.930 . S
Co627 N631 2.148 . S
Co627 N637 2.128 . S
Co627 N647 2.194 . S
Co627 O652 2.351 . S
Co627 O653 2.155 . S
Co627 O654 2.096 . S
C628 N631 1.301 . S
C628 N632 1.328 . S
C628 H633 0.930 . S
C629 C630 1.333 . S
C629 N631 1.317 . S
C629 H634 0.930 . S
C630 C629 1.333 . S
C630 N632 1.350 . S
C630 H656 0.931 . S
N631 Co627 2.148 . S
N631 C628 1.301 . S
N631 C629 1.317 . S
N632 C628 1.328 . S
N632 C630 1.350 . S
H633 C628 0.930 . S
H634 C629 0.930 . S
C635 O636 1.224 . S
C635 O654 1.247 . S
O636 C635 1.224 . S
N637 Co627 2.128 . S
N637 C638 1.355 . S
N637 C640 1.311 . S
C638 N637 1.355 . S
C638 C639 1.363 . S
C638 H650 0.929 . S
C639 C638 1.363 . S
C639 N641 1.375 . S
C639 H657 0.931 . S
C640 N637 1.311 . S
C640 N641 1.347 . S
C640 H651 0.929 . S
N641 C639 1.375 . S
N641 C640 1.347 . S
C642 C645 1.365 . S
C642 N647 1.328 . S
C642 H648 0.929 . S
C643 C644 1.362 . S
C643 C646 1.378 . S
C643 H658 0.929 . S
C644 C643 1.362 . S
C644 C645 1.366 . S
C645 C642 1.365 . S
C645 C644 1.366 . S
C645 H659 0.930 . S
C646 C643 1.378 . S
C646 N647 1.315 . S
C646 H649 0.930 . S
N647 Co627 2.194 . S
N647 C642 1.328 . S
N647 C646 1.315 . S
H648 C642 0.929 . S
H649 C646 0.930 . S
H650 C638 0.929 . S
H651 C640 0.929 . S
O652 Co627 2.351 . S
O652 C655 1.244 . S
O653 Co627 2.155 . S
O653 C655 1.240 . S
O654 Co627 2.096 . S
O654 C635 1.247 . S
C655 O652 1.244 . S
C655 O653 1.240 . S
H656 C630 0.931 . S
H657 C639 0.931 . S
H658 C643 0.929 . S
H659 C645 0.930 . S
Co660 N664 2.148 . S
Co660 N670 2.128 . S
Co660 N680 2.194 . S
Co660 O685 2.351 . S
Co660 O686 2.155 . S
Co660 O687 2.096 . S
C661 N664 1.301 . S
C661 N665 1.328 . S
C661 H666 0.930 . S
C662 C663 1.333 . S
C662 N664 1.317 . S
C662 H667 0.930 . S
C663 C662 1.333 . S
C663 N665 1.350 . S
C663 H689 0.931 . S
N664 Co660 2.148 . S
N664 C661 1.301 . S
N664 C662 1.317 . S
N665 C661 1.328 . S
N665 C663 1.350 . S
H666 C661 0.930 . S
H667 C662 0.930 . S
C668 O669 1.224 . S
C668 O687 1.247 . S
O669 C668 1.224 . S
N670 Co660 2.128 . S
N670 C671 1.355 . S
N670 C673 1.311 . S
C671 N670 1.355 . S
C671 C672 1.363 . S
C671 H683 0.929 . S
C672 C671 1.363 . S
C672 N674 1.375 . S
C672 H690 0.931 . S
C673 N670 1.311 . S
C673 N674 1.347 . S
C673 H684 0.929 . S
N674 C672 1.375 . S
N674 C673 1.347 . S
C675 C678 1.365 . S
C675 N680 1.328 . S
C675 H681 0.929 . S
C676 C677 1.362 . S
C676 C679 1.378 . S
C676 H691 0.929 . S
C677 C676 1.362 . S
C677 C678 1.366 . S
C678 C675 1.365 . S
C678 C677 1.366 . S
C678 H692 0.930 . S
C679 C676 1.378 . S
C679 N680 1.315 . S
C679 H682 0.930 . S
N680 Co660 2.194 . S
N680 C675 1.328 . S
N680 C679 1.315 . S
H681 C675 0.929 . S
H682 C679 0.930 . S
H683 C671 0.929 . S
H684 C673 0.929 . S
O685 Co660 2.351 . S
O685 C688 1.244 . S
O686 Co660 2.155 . S
O686 C688 1.240 . S
O687 Co660 2.096 . S
O687 C668 1.247 . S
C688 O685 1.244 . S
C688 O686 1.240 . S
H689 C663 0.931 . S
H690 C672 0.931 . S
H691 C676 0.929 . S
H692 C678 0.930 . S
Co693 N697 2.148 . S
Co693 N703 2.128 . S
Co693 N713 2.194 . S
Co693 O718 2.351 . S
Co693 O719 2.155 . S
Co693 O720 2.096 . S
C694 N697 1.301 . S
C694 N698 1.328 . S
C694 H699 0.930 . S
C695 C696 1.333 . S
C695 N697 1.317 . S
C695 H700 0.930 . S
C696 C695 1.333 . S
C696 N698 1.350 . S
C696 H722 0.931 . S
N697 Co693 2.148 . S
N697 C694 1.301 . S
N697 C695 1.317 . S
N698 C694 1.328 . S
N698 C696 1.350 . S
H699 C694 0.930 . S
H700 C695 0.930 . S
C701 O702 1.224 . S
C701 O720 1.247 . S
O702 C701 1.224 . S
N703 Co693 2.128 . S
N703 C704 1.355 . S
N703 C706 1.311 . S
C704 N703 1.355 . S
C704 C705 1.363 . S
C704 H716 0.929 . S
C705 C704 1.363 . S
C705 N707 1.375 . S
C705 H723 0.931 . S
C706 N703 1.311 . S
C706 N707 1.347 . S
C706 H717 0.929 . S
N707 C705 1.375 . S
N707 C706 1.347 . S
C708 C711 1.365 . S
C708 N713 1.328 . S
C708 H714 0.929 . S
C709 C710 1.362 . S
C709 C712 1.378 . S
C709 H724 0.929 . S
C710 C709 1.362 . S
C710 C711 1.366 . S
C711 C708 1.365 . S
C711 C710 1.366 . S
C711 H725 0.930 . S
C712 C709 1.378 . S
C712 N713 1.315 . S
C712 H715 0.930 . S
N713 Co693 2.194 . S
N713 C708 1.328 . S
N713 C712 1.315 . S
H714 C708 0.929 . S
H715 C712 0.930 . S
H716 C704 0.929 . S
H717 C706 0.929 . S
O718 Co693 2.351 . S
O718 C721 1.244 . S
O719 Co693 2.155 . S
O719 C721 1.240 . S
O720 Co693 2.096 . S
O720 C701 1.247 . S
C721 O718 1.244 . S
C721 O719 1.240 . S
H722 C696 0.931 . S
H723 C705 0.931 . S
H724 C709 0.929 . S
H725 C711 0.930 . S
Co726 N730 2.148 . S
Co726 N736 2.128 . S
Co726 N746 2.194 . S
Co726 O751 2.351 . S
Co726 O752 2.155 . S
Co726 O753 2.096 . S
C727 N730 1.301 . S
C727 N731 1.328 . S
C727 H732 0.930 . S
C728 C729 1.333 . S
C728 N730 1.317 . S
C728 H733 0.930 . S
C729 C728 1.333 . S
C729 N731 1.350 . S
C729 H755 0.931 . S
N730 Co726 2.148 . S
N730 C727 1.301 . S
N730 C728 1.317 . S
N731 C727 1.328 . S
N731 C729 1.350 . S
H732 C727 0.930 . S
H733 C728 0.930 . S
C734 O735 1.224 . S
C734 O753 1.247 . S
O735 C734 1.224 . S
N736 Co726 2.128 . S
N736 C737 1.355 . S
N736 C739 1.311 . S
C737 N736 1.355 . S
C737 C738 1.363 . S
C737 H749 0.929 . S
C738 C737 1.363 . S
C738 N740 1.375 . S
C738 H756 0.931 . S
C739 N736 1.311 . S
C739 N740 1.347 . S
C739 H750 0.929 . S
N740 C738 1.375 . S
N740 C739 1.347 . S
C741 C744 1.365 . S
C741 N746 1.328 . S
C741 H747 0.929 . S
C742 C743 1.362 . S
C742 C745 1.378 . S
C742 H757 0.929 . S
C743 C742 1.362 . S
C743 C744 1.366 . S
C744 C741 1.365 . S
C744 C743 1.366 . S
C744 H758 0.930 . S
C745 C742 1.378 . S
C745 N746 1.315 . S
C745 H748 0.930 . S
N746 Co726 2.194 . S
N746 C741 1.328 . S
N746 C745 1.315 . S
H747 C741 0.929 . S
H748 C745 0.930 . S
H749 C737 0.929 . S
H750 C739 0.929 . S
O751 Co726 2.351 . S
O751 C754 1.244 . S
O752 Co726 2.155 . S
O752 C754 1.240 . S
O753 Co726 2.096 . S
O753 C734 1.247 . S
C754 O751 1.244 . S
C754 O752 1.240 . S
H755 C729 0.931 . S
H756 C738 0.931 . S
H757 C742 0.929 . S
H758 C744 0.930 . S
Co759 N763 2.148 . S
Co759 N769 2.128 . S
Co759 N779 2.194 . S
Co759 O784 2.351 . S
Co759 O785 2.155 . S
Co759 O786 2.096 . S
C760 N763 1.301 . S
C760 N764 1.328 . S
C760 H765 0.930 . S
C761 C762 1.333 . S
C761 N763 1.317 . S
C761 H766 0.930 . S
C762 C761 1.333 . S
C762 N764 1.350 . S
C762 H788 0.931 . S
N763 Co759 2.148 . S
N763 C760 1.301 . S
N763 C761 1.317 . S
N764 C760 1.328 . S
N764 C762 1.350 . S
H765 C760 0.930 . S
H766 C761 0.930 . S
C767 O768 1.224 . S
C767 O786 1.247 . S
O768 C767 1.224 . S
N769 Co759 2.128 . S
N769 C770 1.355 . S
N769 C772 1.311 . S
C770 N769 1.355 . S
C770 C771 1.363 . S
C770 H782 0.929 . S
C771 C770 1.363 . S
C771 N773 1.375 . S
C771 H789 0.931 . S
C772 N769 1.311 . S
C772 N773 1.347 . S
C772 H783 0.929 . S
N773 C771 1.375 . S
N773 C772 1.347 . S
C774 C777 1.365 . S
C774 N779 1.328 . S
C774 H780 0.929 . S
C775 C776 1.362 . S
C775 C778 1.378 . S
C775 H790 0.929 . S
C776 C775 1.362 . S
C776 C777 1.366 . S
C777 C774 1.365 . S
C777 C776 1.366 . S
C777 H791 0.930 . S
C778 C775 1.378 . S
C778 N779 1.315 . S
C778 H781 0.930 . S
N779 Co759 2.194 . S
N779 C774 1.328 . S
N779 C778 1.315 . S
H780 C774 0.929 . S
H781 C778 0.930 . S
H782 C770 0.929 . S
H783 C772 0.929 . S
O784 Co759 2.351 . S
O784 C787 1.244 . S
O785 Co759 2.155 . S
O785 C787 1.240 . S
O786 Co759 2.096 . S
O786 C767 1.247 . S
C787 O784 1.244 . S
C787 O785 1.240 . S
H788 C762 0.931 . S
H789 C771 0.931 . S
H790 C775 0.929 . S
H791 C777 0.930 . S
C792 C793 1.349 . S
C792 C794 1.327 . S
C792 H817 0.950 . S
C793 C792 1.349 . S
C793 C809 1.349 . S
C794 C792 1.327 . S
C794 C813 1.429 . S
C794 H818 0.950 . S
C795 C812 1.574 . S
C795 C814 1.368 . S
C795 H819 0.949 . S
H796 C800 0.949 . S
C797 C798 1.349 . S
C797 C799 1.327 . S
C797 H820 0.950 . S
C798 C797 1.349 . S
C798 C810 1.349 . S
C799 C797 1.327 . S
C799 C815 1.429 . S
C799 H821 0.950 . S
C800 H796 0.949 . S
C800 C808 1.574 . S
C800 C816 1.368 . S
H801 C809 0.950 . S
H802 C807 0.950 . S
H803 C808 0.949 . S
H804 C810 0.950 . S
H805 C811 0.950 . S
H806 C812 0.949 . S
C807 H802 0.950 . S
C807 C809 1.327 . S
C807 C813 1.429 . S
C808 C800 1.574 . S
C808 H803 0.949 . S
C808 C814 1.368 . S
C809 C793 1.349 . S
C809 H801 0.950 . S
C809 C807 1.327 . S
C810 C798 1.349 . S
C810 H804 0.950 . S
C810 C811 1.327 . S
C811 H805 0.950 . S
C811 C810 1.327 . S
C811 C815 1.429 . S
C812 C795 1.574 . S
C812 H806 0.949 . S
C812 C816 1.368 . S
C813 C794 1.429 . S
C813 C807 1.429 . S
C813 C814 1.523 . S
C814 C795 1.368 . S
C814 C808 1.368 . S
C814 C813 1.523 . S
C815 C799 1.429 . S
C815 C811 1.429 . S
C815 C816 1.523 . S
C816 C800 1.368 . S
C816 C812 1.368 . S
C816 C815 1.523 . S
H817 C792 0.950 . S
H818 C794 0.950 . S
H819 C795 0.949 . S
H820 C797 0.950 . S
H821 C799 0.950 . S
C822 C823 1.349 . S
C822 C824 1.327 . S
C822 H847 0.950 . S
C823 C822 1.349 . S
C823 C839 1.349 . S
C824 C822 1.327 . S
C824 C843 1.429 . S
C824 H848 0.950 . S
C825 C842 1.574 . S
C825 C844 1.368 . S
C825 H849 0.949 . S
H826 C830 0.949 . S
C827 C828 1.349 . S
C827 C829 1.327 . S
C827 H850 0.950 . S
C828 C827 1.349 . S
C828 C840 1.349 . S
C829 C827 1.327 . S
C829 C845 1.429 . S
C829 H851 0.950 . S
C830 H826 0.949 . S
C830 C838 1.574 . S
C830 C846 1.368 . S
H831 C839 0.950 . S
H832 C837 0.950 . S
H833 C838 0.949 . S
H834 C840 0.950 . S
H835 C841 0.950 . S
H836 C842 0.949 . S
C837 H832 0.950 . S
C837 C839 1.327 . S
C837 C843 1.429 . S
C838 C830 1.574 . S
C838 H833 0.949 . S
C838 C844 1.368 . S
C839 C823 1.349 . S
C839 H831 0.950 . S
C839 C837 1.327 . S
C840 C828 1.349 . S
C840 H834 0.950 . S
C840 C841 1.327 . S
C841 H835 0.950 . S
C841 C840 1.327 . S
C841 C845 1.429 . S
C842 C825 1.574 . S
C842 H836 0.949 . S
C842 C846 1.368 . S
C843 C824 1.429 . S
C843 C837 1.429 . S
C843 C844 1.523 . S
C844 C825 1.368 . S
C844 C838 1.368 . S
C844 C843 1.523 . S
C845 C829 1.429 . S
C845 C841 1.429 . S
C845 C846 1.523 . S
C846 C830 1.368 . S
C846 C842 1.368 . S
C846 C845 1.523 . S
H847 C822 0.950 . S
H848 C824 0.950 . S
H849 C825 0.949 . S
H850 C827 0.950 . S
H851 C829 0.950 . S
C852 C853 1.349 . S
C852 C854 1.327 . S
C852 H877 0.950 . S
C853 C852 1.349 . S
C853 C869 1.349 . S
C854 C852 1.327 . S
C854 C873 1.429 . S
C854 H878 0.950 . S
C855 C872 1.574 . S
C855 C874 1.368 . S
C855 H879 0.949 . S
H856 C860 0.949 . S
C857 C858 1.349 . S
C857 C859 1.327 . S
C857 H880 0.950 . S
C858 C857 1.349 . S
C858 C870 1.349 . S
C859 C857 1.327 . S
C859 C875 1.429 . S
C859 H881 0.950 . S
C860 H856 0.949 . S
C860 C868 1.574 . S
C860 C876 1.368 . S
H861 C869 0.950 . S
H862 C867 0.950 . S
H863 C868 0.949 . S
H864 C870 0.950 . S
H865 C871 0.950 . S
H866 C872 0.949 . S
C867 H862 0.950 . S
C867 C869 1.327 . S
C867 C873 1.429 . S
C868 C860 1.574 . S
C868 H863 0.949 . S
C868 C874 1.368 . S
C869 C853 1.349 . S
C869 H861 0.950 . S
C869 C867 1.327 . S
C870 C858 1.349 . S
C870 H864 0.950 . S
C870 C871 1.327 . S
C871 H865 0.950 . S
C871 C870 1.327 . S
C871 C875 1.429 . S
C872 C855 1.574 . S
C872 H866 0.949 . S
C872 C876 1.368 . S
C873 C854 1.429 . S
C873 C867 1.429 . S
C873 C874 1.523 . S
C874 C855 1.368 . S
C874 C868 1.368 . S
C874 C873 1.523 . S
C875 C859 1.429 . S
C875 C871 1.429 . S
C875 C876 1.523 . S
C876 C860 1.368 . S
C876 C872 1.368 . S
C876 C875 1.523 . S
H877 C852 0.950 . S
H878 C854 0.950 . S
H879 C855 0.949 . S
H880 C857 0.950 . S
H881 C859 0.950 . S
C882 C883 1.349 . S
C882 C884 1.327 . S
C882 H907 0.950 . S
C883 C882 1.349 . S
C883 C899 1.349 . S
C884 C882 1.327 . S
C884 C903 1.429 . S
C884 H908 0.950 . S
C885 C902 1.574 . S
C885 C904 1.368 . S
C885 H909 0.949 . S
H886 C890 0.949 . S
C887 C888 1.349 . S
C887 C889 1.327 . S
C887 H910 0.950 . S
C888 C887 1.349 . S
C888 C900 1.349 . S
C889 C887 1.327 . S
C889 C905 1.429 . S
C889 H911 0.950 . S
C890 H886 0.949 . S
C890 C898 1.574 . S
C890 C906 1.368 . S
H891 C899 0.950 . S
H892 C897 0.950 . S
H893 C898 0.949 . S
H894 C900 0.950 . S
H895 C901 0.950 . S
H896 C902 0.949 . S
C897 H892 0.950 . S
C897 C899 1.327 . S
C897 C903 1.429 . S
C898 C890 1.574 . S
C898 H893 0.949 . S
C898 C904 1.368 . S
C899 C883 1.349 . S
C899 H891 0.950 . S
C899 C897 1.327 . S
C900 C888 1.349 . S
C900 H894 0.950 . S
C900 C901 1.327 . S
C901 H895 0.950 . S
C901 C900 1.327 . S
C901 C905 1.429 . S
C902 C885 1.574 . S
C902 H896 0.949 . S
C902 C906 1.368 . S
C903 C884 1.429 . S
C903 C897 1.429 . S
C903 C904 1.523 . S
C904 C885 1.368 . S
C904 C898 1.368 . S
C904 C903 1.523 . S
C905 C889 1.429 . S
C905 C901 1.429 . S
C905 C906 1.523 . S
C906 C890 1.368 . S
C906 C902 1.368 . S
C906 C905 1.523 . S
H907 C882 0.950 . S
H908 C884 0.950 . S
H909 C885 0.949 . S
H910 C887 0.950 . S
H911 C889 0.950 . S
C912 C913 1.349 . S
C912 C914 1.327 . S
C912 H937 0.950 . S
C913 C912 1.349 . S
C913 C929 1.349 . S
C914 C912 1.327 . S
C914 C933 1.429 . S
C914 H938 0.950 . S
C915 C932 1.574 . S
C915 C934 1.368 . S
C915 H939 0.949 . S
H916 C920 0.949 . S
C917 C918 1.349 . S
C917 C919 1.327 . S
C917 H940 0.950 . S
C918 C917 1.349 . S
C918 C930 1.349 . S
C919 C917 1.327 . S
C919 C935 1.429 . S
C919 H941 0.950 . S
C920 H916 0.949 . S
C920 C928 1.574 . S
C920 C936 1.368 . S
H921 C929 0.950 . S
H922 C927 0.950 . S
H923 C928 0.949 . S
H924 C930 0.950 . S
H925 C931 0.950 . S
H926 C932 0.949 . S
C927 H922 0.950 . S
C927 C929 1.327 . S
C927 C933 1.429 . S
C928 C920 1.574 . S
C928 H923 0.949 . S
C928 C934 1.368 . S
C929 C913 1.349 . S
C929 H921 0.950 . S
C929 C927 1.327 . S
C930 C918 1.349 . S
C930 H924 0.950 . S
C930 C931 1.327 . S
C931 H925 0.950 . S
C931 C930 1.327 . S
C931 C935 1.429 . S
C932 C915 1.574 . S
C932 H926 0.949 . S
C932 C936 1.368 . S
C933 C914 1.429 . S
C933 C927 1.429 . S
C933 C934 1.523 . S
C934 C915 1.368 . S
C934 C928 1.368 . S
C934 C933 1.523 . S
C935 C919 1.429 . S
C935 C931 1.429 . S
C935 C936 1.523 . S
C936 C920 1.368 . S
C936 C932 1.368 . S
C936 C935 1.523 . S
H937 C912 0.950 . S
H938 C914 0.950 . S
H939 C915 0.949 . S
H940 C917 0.950 . S
H941 C919 0.950 . S
C942 C943 1.349 . S
C942 C944 1.327 . S
C942 H967 0.950 . S
C943 C942 1.349 . S
C943 C959 1.349 . S
C944 C942 1.327 . S
C944 C963 1.429 . S
C944 H968 0.950 . S
C945 C962 1.574 . S
C945 C964 1.368 . S
C945 H969 0.949 . S
H946 C950 0.949 . S
C947 C948 1.349 . S
C947 C949 1.327 . S
C947 H970 0.950 . S
C948 C947 1.349 . S
C948 C960 1.349 . S
C949 C947 1.327 . S
C949 C965 1.429 . S
C949 H971 0.950 . S
C950 H946 0.949 . S
C950 C958 1.574 . S
C950 C966 1.368 . S
H951 C959 0.950 . S
H952 C957 0.950 . S
H953 C958 0.949 . S
H954 C960 0.950 . S
H955 C961 0.950 . S
H956 C962 0.949 . S
C957 H952 0.950 . S
C957 C959 1.327 . S
C957 C963 1.429 . S
C958 C950 1.574 . S
C958 H953 0.949 . S
C958 C964 1.368 . S
C959 C943 1.349 . S
C959 H951 0.950 . S
C959 C957 1.327 . S
C960 C948 1.349 . S
C960 H954 0.950 . S
C960 C961 1.327 . S
C961 H955 0.950 . S
C961 C960 1.327 . S
C961 C965 1.429 . S
C962 C945 1.574 . S
C962 H956 0.949 . S
C962 C966 1.368 . S
C963 C944 1.429 . S
C963 C957 1.429 . S
C963 C964 1.523 . S
C964 C945 1.368 . S
C964 C958 1.368 . S
C964 C963 1.523 . S
C965 C949 1.429 . S
C965 C961 1.429 . S
C965 C966 1.523 . S
C966 C950 1.368 . S
C966 C962 1.368 . S
C966 C965 1.523 . S
H967 C942 0.950 . S
H968 C944 0.950 . S
H969 C945 0.949 . S
H970 C947 0.950 . S
H971 C949 0.950 . S
C972 C973 1.349 . S
C972 C974 1.327 . S
C972 H997 0.950 . S
C973 C972 1.349 . S
C973 C989 1.349 . S
C974 C972 1.327 . S
C974 C993 1.429 . S
C974 H998 0.950 . S
C975 C992 1.574 . S
C975 C994 1.368 . S
C975 H999 0.949 . S
H976 C980 0.949 . S
C977 C978 1.349 . S
C977 C979 1.327 . S
C977 H1000 0.950 . S
C978 C977 1.349 . S
C978 C990 1.349 . S
C979 C977 1.327 . S
C979 C995 1.429 . S
C979 H1001 0.950 . S
C980 H976 0.949 . S
C980 C988 1.574 . S
C980 C996 1.368 . S
H981 C989 0.950 . S
H982 C987 0.950 . S
H983 C988 0.949 . S
H984 C990 0.950 . S
H985 C991 0.950 . S
H986 C992 0.949 . S
C987 H982 0.950 . S
C987 C989 1.327 . S
C987 C993 1.429 . S
C988 C980 1.574 . S
C988 H983 0.949 . S
C988 C994 1.368 . S
C989 C973 1.349 . S
C989 H981 0.950 . S
C989 C987 1.327 . S
C990 C978 1.349 . S
C990 H984 0.950 . S
C990 C991 1.327 . S
C991 H985 0.950 . S
C991 C990 1.327 . S
C991 C995 1.429 . S
C992 C975 1.574 . S
C992 H986 0.949 . S
C992 C996 1.368 . S
C993 C974 1.429 . S
C993 C987 1.429 . S
C993 C994 1.523 . S
C994 C975 1.368 . S
C994 C988 1.368 . S
C994 C993 1.523 . S
C995 C979 1.429 . S
C995 C991 1.429 . S
C995 C996 1.523 . S
C996 C980 1.368 . S
C996 C992 1.368 . S
C996 C995 1.523 . S
H997 C972 0.950 . S
H998 C974 0.950 . S
H999 C975 0.949 . S
H1000 C977 0.950 . S
H1001 C979 0.950 . S
C1002 C1003 1.349 . S
C1002 C1004 1.327 . S
C1002 H1027 0.950 . S
C1003 C1002 1.349 . S
C1003 C1019 1.349 . S
C1004 C1002 1.327 . S
C1004 C1023 1.429 . S
C1004 H1028 0.950 . S
C1005 C1022 1.574 . S
C1005 C1024 1.368 . S
C1005 H1029 0.949 . S
H1006 C1010 0.949 . S
C1007 C1008 1.349 . S
C1007 C1009 1.327 . S
C1007 H1030 0.950 . S
C1008 C1007 1.349 . S
C1008 C1020 1.349 . S
C1009 C1007 1.327 . S
C1009 C1025 1.429 . S
C1009 H1031 0.950 . S
C1010 H1006 0.949 . S
C1010 C1018 1.574 . S
C1010 C1026 1.368 . S
H1011 C1019 0.950 . S
H1012 C1017 0.950 . S
H1013 C1018 0.949 . S
H1014 C1020 0.950 . S
H1015 C1021 0.950 . S
H1016 C1022 0.949 . S
C1017 H1012 0.950 . S
C1017 C1019 1.327 . S
C1017 C1023 1.429 . S
C1018 C1010 1.574 . S
C1018 H1013 0.949 . S
C1018 C1024 1.368 . S
C1019 C1003 1.349 . S
C1019 H1011 0.950 . S
C1019 C1017 1.327 . S
C1020 C1008 1.349 . S
C1020 H1014 0.950 . S
C1020 C1021 1.327 . S
C1021 H1015 0.950 . S
C1021 C1020 1.327 . S
C1021 C1025 1.429 . S
C1022 C1005 1.574 . S
C1022 H1016 0.949 . S
C1022 C1026 1.368 . S
C1023 C1004 1.429 . S
C1023 C1017 1.429 . S
C1023 C1024 1.523 . S
C1024 C1005 1.368 . S
C1024 C1018 1.368 . S
C1024 C1023 1.523 . S
C1025 C1009 1.429 . S
C1025 C1021 1.429 . S
C1025 C1026 1.523 . S
C1026 C1010 1.368 . S
C1026 C1022 1.368 . S
C1026 C1025 1.523 . S
H1027 C1002 0.950 . S
H1028 C1004 0.950 . S
H1029 C1005 0.949 . S
H1030 C1007 0.950 . S
H1031 C1009 0.950 . S
C1032 C1033 1.349 . S
C1032 C1034 1.327 . S
C1032 H1057 0.950 . S
C1033 C1032 1.349 . S
C1033 C1049 1.349 . S
C1034 C1032 1.327 . S
C1034 C1053 1.429 . S
C1034 H1058 0.950 . S
C1035 C1052 1.574 . S
C1035 C1054 1.368 . S
C1035 H1059 0.949 . S
H1036 C1040 0.949 . S
C1037 C1038 1.349 . S
C1037 C1039 1.327 . S
C1037 H1060 0.950 . S
C1038 C1037 1.349 . S
C1038 C1050 1.349 . S
C1039 C1037 1.327 . S
C1039 C1055 1.429 . S
C1039 H1061 0.950 . S
C1040 H1036 0.949 . S
C1040 C1048 1.574 . S
C1040 C1056 1.368 . S
H1041 C1049 0.950 . S
H1042 C1047 0.950 . S
H1043 C1048 0.949 . S
H1044 C1050 0.950 . S
H1045 C1051 0.950 . S
H1046 C1052 0.949 . S
C1047 H1042 0.950 . S
C1047 C1049 1.327 . S
C1047 C1053 1.429 . S
C1048 C1040 1.574 . S
C1048 H1043 0.949 . S
C1048 C1054 1.368 . S
C1049 C1033 1.349 . S
C1049 H1041 0.950 . S
C1049 C1047 1.327 . S
C1050 C1038 1.349 . S
C1050 H1044 0.950 . S
C1050 C1051 1.327 . S
C1051 H1045 0.950 . S
C1051 C1050 1.327 . S
C1051 C1055 1.429 . S
C1052 C1035 1.574 . S
C1052 H1046 0.949 . S
C1052 C1056 1.368 . S
C1053 C1034 1.429 . S
C1053 C1047 1.429 . S
C1053 C1054 1.523 . S
C1054 C1035 1.368 . S
C1054 C1048 1.368 . S
C1054 C1053 1.523 . S
C1055 C1039 1.429 . S
C1055 C1051 1.429 . S
C1055 C1056 1.523 . S
C1056 C1040 1.368 . S
C1056 C1052 1.368 . S
C1056 C1055 1.523 . S
H1057 C1032 0.950 . S
H1058 C1034 0.950 . S
H1059 C1035 0.949 . S
H1060 C1037 0.950 . S
H1061 C1039 0.950 . S
C1062 C1063 1.349 . S
C1062 C1064 1.327 . S
C1062 H1087 0.950 . S
C1063 C1062 1.349 . S
C1063 C1079 1.349 . S
C1064 C1062 1.327 . S
C1064 C1083 1.429 . S
C1064 H1088 0.950 . S
C1065 C1082 1.574 . S
C1065 C1084 1.368 . S
C1065 H1089 0.949 . S
H1066 C1070 0.949 . S
C1067 C1068 1.349 . S
C1067 C1069 1.327 . S
C1067 H1090 0.950 . S
C1068 C1067 1.349 . S
C1068 C1080 1.349 . S
C1069 C1067 1.327 . S
C1069 C1085 1.429 . S
C1069 H1091 0.950 . S
C1070 H1066 0.949 . S
C1070 C1078 1.574 . S
C1070 C1086 1.368 . S
H1071 C1079 0.950 . S
H1072 C1077 0.950 . S
H1073 C1078 0.949 . S
H1074 C1080 0.950 . S
H1075 C1081 0.950 . S
H1076 C1082 0.949 . S
C1077 H1072 0.950 . S
C1077 C1079 1.327 . S
C1077 C1083 1.429 . S
C1078 C1070 1.574 . S
C1078 H1073 0.949 . S
C1078 C1084 1.368 . S
C1079 C1063 1.349 . S
C1079 H1071 0.950 . S
C1079 C1077 1.327 . S
C1080 C1068 1.349 . S
C1080 H1074 0.950 . S
C1080 C1081 1.327 . S
C1081 H1075 0.950 . S
C1081 C1080 1.327 . S
C1081 C1085 1.429 . S
C1082 C1065 1.574 . S
C1082 H1076 0.949 . S
C1082 C1086 1.368 . S
C1083 C1064 1.429 . S
C1083 C1077 1.429 . S
C1083 C1084 1.523 . S
C1084 C1065 1.368 . S
C1084 C1078 1.368 . S
C1084 C1083 1.523 . S
C1085 C1069 1.429 . S
C1085 C1081 1.429 . S
C1085 C1086 1.523 . S
C1086 C1070 1.368 . S
C1086 C1082 1.368 . S
C1086 C1085 1.523 . S
H1087 C1062 0.950 . S
H1088 C1064 0.950 . S
H1089 C1065 0.949 . S
H1090 C1067 0.950 . S
H1091 C1069 0.950 . S
C1092 C1093 1.349 . S
C1092 C1094 1.327 . S
C1092 H1117 0.950 . S
C1093 C1092 1.349 . S
C1093 C1109 1.349 . S
C1094 C1092 1.327 . S
C1094 C1113 1.429 . S
C1094 H1118 0.950 . S
C1095 C1112 1.574 . S
C1095 C1114 1.368 . S
C1095 H1119 0.949 . S
H1096 C1100 0.949 . S
C1097 C1098 1.349 . S
C1097 C1099 1.327 . S
C1097 H1120 0.950 . S
C1098 C1097 1.349 . S
C1098 C1110 1.349 . S
C1099 C1097 1.327 . S
C1099 C1115 1.429 . S
C1099 H1121 0.950 . S
C1100 H1096 0.949 . S
C1100 C1108 1.574 . S
C1100 C1116 1.368 . S
H1101 C1109 0.950 . S
H1102 C1107 0.950 . S
H1103 C1108 0.949 . S
H1104 C1110 0.950 . S
H1105 C1111 0.950 . S
H1106 C1112 0.949 . S
C1107 H1102 0.950 . S
C1107 C1109 1.327 . S
C1107 C1113 1.429 . S
C1108 C1100 1.574 . S
C1108 H1103 0.949 . S
C1108 C1114 1.368 . S
C1109 C1093 1.349 . S
C1109 H1101 0.950 . S
C1109 C1107 1.327 . S
C1110 C1098 1.349 . S
C1110 H1104 0.950 . S
C1110 C1111 1.327 . S
C1111 H1105 0.950 . S
C1111 C1110 1.327 . S
C1111 C1115 1.429 . S
C1112 C1095 1.574 . S
C1112 H1106 0.949 . S
C1112 C1116 1.368 . S
C1113 C1094 1.429 . S
C1113 C1107 1.429 . S
C1113 C1114 1.523 . S
C1114 C1095 1.368 . S
C1114 C1108 1.368 . S
C1114 C1113 1.523 . S
C1115 C1099 1.429 . S
C1115 C1111 1.429 . S
C1115 C1116 1.523 . S
C1116 C1100 1.368 . S
C1116 C1112 1.368 . S
C1116 C1115 1.523 . S
H1117 C1092 0.950 . S
H1118 C1094 0.950 . S
H1119 C1095 0.949 . S
H1120 C1097 0.950 . S
H1121 C1099 0.950 . S
C1122 C1123 1.349 . S
C1122 C1124 1.327 . S
C1122 H1147 0.950 . S
C1123 C1122 1.349 . S
C1123 C1139 1.349 . S
C1124 C1122 1.327 . S
C1124 C1143 1.429 . S
C1124 H1148 0.950 . S
C1125 C1142 1.574 . S
C1125 C1144 1.368 . S
C1125 H1149 0.949 . S
H1126 C1130 0.949 . S
C1127 C1128 1.349 . S
C1127 C1129 1.327 . S
C1127 H1150 0.950 . S
C1128 C1127 1.349 . S
C1128 C1140 1.349 . S
C1129 C1127 1.327 . S
C1129 C1145 1.429 . S
C1129 H1151 0.950 . S
C1130 H1126 0.949 . S
C1130 C1138 1.574 . S
C1130 C1146 1.368 . S
H1131 C1139 0.950 . S
H1132 C1137 0.950 . S
H1133 C1138 0.949 . S
H1134 C1140 0.950 . S
H1135 C1141 0.950 . S
H1136 C1142 0.949 . S
C1137 H1132 0.950 . S
C1137 C1139 1.327 . S
C1137 C1143 1.429 . S
C1138 C1130 1.574 . S
C1138 H1133 0.949 . S
C1138 C1144 1.368 . S
C1139 C1123 1.349 . S
C1139 H1131 0.950 . S
C1139 C1137 1.327 . S
C1140 C1128 1.349 . S
C1140 H1134 0.950 . S
C1140 C1141 1.327 . S
C1141 H1135 0.950 . S
C1141 C1140 1.327 . S
C1141 C1145 1.429 . S
C1142 C1125 1.574 . S
C1142 H1136 0.949 . S
C1142 C1146 1.368 . S
C1143 C1124 1.429 . S
C1143 C1137 1.429 . S
C1143 C1144 1.523 . S
C1144 C1125 1.368 . S
C1144 C1138 1.368 . S
C1144 C1143 1.523 . S
C1145 C1129 1.429 . S
C1145 C1141 1.429 . S
C1145 C1146 1.523 . S
C1146 C1130 1.368 . S
C1146 C1142 1.368 . S
C1146 C1145 1.523 . S
H1147 C1122 0.950 . S
H1148 C1124 0.950 . S
H1149 C1125 0.949 . S
H1150 C1127 0.950 . S
H1151 C1129 0.950 . S
C1152 C1153 1.349 . S
C1152 C1154 1.327 . S
C1152 H1177 0.950 . S
C1153 C1152 1.349 . S
C1153 C1169 1.349 . S
C1154 C1152 1.327 . S
C1154 C1173 1.429 . S
C1154 H1178 0.950 . S
C1155 C1172 1.574 . S
C1155 C1174 1.368 1_545 S
C1155 H1179 0.947 . S
H1156 C1160 0.949 . S
C1157 C1158 1.349 . S
C1157 C1159 1.327 . S
C1157 H1180 0.950 . S
C1158 C1157 1.349 . S
C1158 C1170 1.349 . S
C1159 C1157 1.327 . S
C1159 C1175 1.429 . S
C1159 H1181 0.950 . S
C1160 H1156 0.949 . S
C1160 C1168 1.574 . S
C1160 C1176 1.368 . S
H1161 C1169 0.950 . S
H1162 C1167 0.950 . S
H1163 C1168 0.949 1_565 S
H1164 C1170 0.950 . S
H1165 C1171 0.950 . S
H1166 C1172 0.949 . S
C1167 H1162 0.950 . S
C1167 C1169 1.327 . S
C1167 C1173 1.429 . S
C1168 C1160 1.574 . S
C1168 H1163 0.949 1_545 S
C1168 C1174 1.368 1_545 S
C1169 C1153 1.349 . S
C1169 H1161 0.950 . S
C1169 C1167 1.327 . S
C1170 C1158 1.349 . S
C1170 H1164 0.950 . S
C1170 C1171 1.327 . S
C1171 H1165 0.950 . S
C1171 C1170 1.327 . S
C1171 C1175 1.429 . S
C1172 C1155 1.574 . S
C1172 H1166 0.949 . S
C1172 C1176 1.368 . S
C1173 C1154 1.429 . S
C1173 C1167 1.429 . S
C1173 C1174 1.523 . S
C1174 C1155 1.368 1_565 S
C1174 C1168 1.368 1_565 S
C1174 C1173 1.523 . S
C1175 C1159 1.429 . S
C1175 C1171 1.429 . S
C1175 C1176 1.523 . S
C1176 C1160 1.368 . S
C1176 C1172 1.368 . S
C1176 C1175 1.523 . S
H1177 C1152 0.950 . S
H1178 C1154 0.950 . S
H1179 C1155 0.947 . S
H1180 C1157 0.950 . S
H1181 C1159 0.950 . S
C1182 C1183 1.349 . S
C1182 C1184 1.327 . S
C1182 H1207 0.950 . S
C1183 C1182 1.349 . S
C1183 C1199 1.349 . S
C1184 C1182 1.327 . S
C1184 C1203 1.429 . S
C1184 H1208 0.950 . S
C1185 C1202 1.574 . S
C1185 C1204 1.368 . S
C1185 H1209 0.949 . S
H1186 C1190 0.949 1_455 S
C1187 C1188 1.349 . S
C1187 C1189 1.327 . S
C1187 H1210 0.950 . S
C1188 C1187 1.349 . S
C1188 C1200 1.349 . S
C1189 C1187 1.327 . S
C1189 C1205 1.429 . S
C1189 H1211 0.950 . S
C1190 H1186 0.949 1_655 S
C1190 C1198 1.574 . S
C1190 C1206 1.368 1_655 S
H1191 C1199 0.950 . S
H1192 C1197 0.950 . S
H1193 C1198 0.949 . S
H1194 C1200 0.950 . S
H1195 C1201 0.950 . S
H1196 C1202 0.927 1_455 S
C1197 H1192 0.950 . S
C1197 C1199 1.327 . S
C1197 C1203 1.429 . S
C1198 C1190 1.574 . S
C1198 H1193 0.949 . S
C1198 C1204 1.368 . S
C1199 C1183 1.349 . S
C1199 H1191 0.950 . S
C1199 C1197 1.327 . S
C1200 C1188 1.349 . S
C1200 H1194 0.950 . S
C1200 C1201 1.327 . S
C1201 H1195 0.950 . S
C1201 C1200 1.327 . S
C1201 C1205 1.429 . S
C1202 C1185 1.574 . S
C1202 H1196 0.927 1_655 S
C1202 C1206 1.368 1_655 S
C1203 C1184 1.429 . S
C1203 C1197 1.429 . S
C1203 C1204 1.523 . S
C1204 C1185 1.368 . S
C1204 C1198 1.368 . S
C1204 C1203 1.523 . S
C1205 C1189 1.429 . S
C1205 C1201 1.429 . S
C1205 C1206 1.523 . S
C1206 C1190 1.368 1_455 S
C1206 C1202 1.368 1_455 S
C1206 C1205 1.523 . S
H1207 C1182 0.950 . S
H1208 C1184 0.950 . S
H1209 C1185 0.949 . S
H1210 C1187 0.950 . S
H1211 C1189 0.950 . S
C1212 C1213 1.349 . S
C1212 C1214 1.327 . S
C1212 H1237 0.950 . S
C1213 C1212 1.349 . S
C1213 C1229 1.349 . S
C1214 C1212 1.327 . S
C1214 C1233 1.429 . S
C1214 H1238 0.950 . S
C1215 C1232 1.574 . S
C1215 C1234 1.368 . S
C1215 H1239 0.949 . S
H1216 C1220 0.949 1_545 S
C1217 C1218 1.349 . S
C1217 C1219 1.327 . S
C1217 H1240 0.950 . S
C1218 C1217 1.349 . S
C1218 C1230 1.349 . S
C1219 C1217 1.327 . S
C1219 C1235 1.429 . S
C1219 H1241 0.950 . S
C1220 H1216 0.949 1_565 S
C1220 C1228 1.574 . S
C1220 C1236 1.368 1_565 S
H1221 C1229 0.950 . S
H1222 C1227 0.950 . S
H1223 C1228 0.949 . S
H1224 C1230 0.950 . S
H1225 C1231 0.950 . S
H1226 C1232 0.949 1_545 S
C1227 H1222 0.950 . S
C1227 C1229 1.327 . S
C1227 C1233 1.429 . S
C1228 C1220 1.574 . S
C1228 H1223 0.949 . S
C1228 C1234 1.368 . S
C1229 C1213 1.349 . S
C1229 H1221 0.950 . S
C1229 C1227 1.327 . S
C1230 C1218 1.349 . S
C1230 H1224 0.950 . S
C1230 C1231 1.327 . S
C1231 H1225 0.950 . S
C1231 C1230 1.327 . S
C1231 C1235 1.429 . S
C1232 C1215 1.574 . S
C1232 H1226 0.949 1_565 S
C1232 C1236 1.368 1_565 S
C1233 C1214 1.429 . S
C1233 C1227 1.429 . S
C1233 C1234 1.523 . S
C1234 C1215 1.368 . S
C1234 C1228 1.368 . S
C1234 C1233 1.523 . S
C1235 C1219 1.429 . S
C1235 C1231 1.429 . S
C1235 C1236 1.523 . S
C1236 C1220 1.368 1_545 S
C1236 C1232 1.368 1_545 S
C1236 C1235 1.523 . S
H1237 C1212 0.950 . S
H1238 C1214 0.950 . S
H1239 C1215 0.949 . S
H1240 C1217 0.950 . S
H1241 C1219 0.950 . S
C1242 C1243 1.349 . S
C1242 C1244 1.327 . S
C1242 H1267 0.950 . S
C1243 C1242 1.349 . S
C1243 C1259 1.349 . S
C1244 C1242 1.327 . S
C1244 C1263 1.429 . S
C1244 H1268 0.950 . S
C1245 C1262 1.574 . S
C1245 C1264 1.368 1_455 S
C1245 H1269 0.949 1_455 S
H1246 C1250 0.949 . S
C1247 C1248 1.349 . S
C1247 C1249 1.327 . S
C1247 H1270 0.950 . S
C1248 C1247 1.349 . S
C1248 C1260 1.349 . S
C1249 C1247 1.327 . S
C1249 C1265 1.429 . S
C1249 H1271 0.950 . S
C1250 H1246 0.949 . S
C1250 C1258 1.574 . S
C1250 C1266 1.368 . S
H1251 C1259 0.950 . S
H1252 C1257 0.950 . S
H1253 C1258 0.949 1_655 S
H1254 C1260 0.950 . S
H1255 C1261 0.950 . S
H1256 C1262 0.949 . S
C1257 H1252 0.950 . S
C1257 C1259 1.327 . S
C1257 C1263 1.429 . S
C1258 C1250 1.574 . S
C1258 H1253 0.949 1_455 S
C1258 C1264 1.368 1_455 S
C1259 C1243 1.349 . S
C1259 H1251 0.950 . S
C1259 C1257 1.327 . S
C1260 C1248 1.349 . S
C1260 H1254 0.950 . S
C1260 C1261 1.327 . S
C1261 H1255 0.950 . S
C1261 C1260 1.327 . S
C1261 C1265 1.429 . S
C1262 C1245 1.574 . S
C1262 H1256 0.949 . S
C1262 C1266 1.368 . S
C1263 C1244 1.429 . S
C1263 C1257 1.429 . S
C1263 C1264 1.523 . S
C1264 C1245 1.368 1_655 S
C1264 C1258 1.368 1_655 S
C1264 C1263 1.523 . S
C1265 C1249 1.429 . S
C1265 C1261 1.429 . S
C1265 C1266 1.523 . S
C1266 C1250 1.368 . S
C1266 C1262 1.368 . S
C1266 C1265 1.523 . S
H1267 C1242 0.950 . S
H1268 C1244 0.950 . S
H1269 C1245 0.949 1_655 S
H1270 C1247 0.950 . S
H1271 C1249 0.950 . S
C1272 C1273 1.349 . S
C1272 C1274 1.327 . S
C1272 H1297 0.950 . S
C1273 C1272 1.349 . S
C1273 C1289 1.349 . S
C1274 C1272 1.327 . S
C1274 C1293 1.429 . S
C1274 H1298 0.950 . S
C1275 C1292 1.574 . S
C1275 C1294 1.368 1_565 S
C1275 H1299 0.923 1_565 S
H1276 C1280 0.949 . S
C1277 C1278 1.349 . S
C1277 C1279 1.327 . S
C1277 H1300 0.950 . S
C1278 C1277 1.349 . S
C1278 C1290 1.349 . S
C1279 C1277 1.327 . S
C1279 C1295 1.429 . S
C1279 H1301 0.950 . S
C1280 H1276 0.949 . S
C1280 C1288 1.574 . S
C1280 C1296 1.368 . S
H1281 C1289 0.950 . S
H1282 C1287 0.950 . S
H1283 C1288 0.949 1_545 S
H1284 C1290 0.950 . S
H1285 C1291 0.950 . S
H1286 C1292 0.949 . S
C1287 H1282 0.950 . S
C1287 C1289 1.327 . S
C1287 C1293 1.429 . S
C1288 C1280 1.574 . S
C1288 H1283 0.949 1_565 S
C1288 C1294 1.368 1_565 S
C1289 C1273 1.349 . S
C1289 H1281 0.950 . S
C1289 C1287 1.327 . S
C1290 C1278 1.349 . S
C1290 H1284 0.950 . S
C1290 C1291 1.327 . S
C1291 H1285 0.950 . S
C1291 C1290 1.327 . S
C1291 C1295 1.429 . S
C1292 C1275 1.574 . S
C1292 H1286 0.949 . S
C1292 C1296 1.368 . S
C1293 C1274 1.429 . S
C1293 C1287 1.429 . S
C1293 C1294 1.523 . S
C1294 C1275 1.368 1_545 S
C1294 C1288 1.368 1_545 S
C1294 C1293 1.523 . S
C1295 C1279 1.429 . S
C1295 C1291 1.429 . S
C1295 C1296 1.523 . S
C1296 C1280 1.368 . S
C1296 C1292 1.368 . S
C1296 C1295 1.523 . S
H1297 C1272 0.950 . S
H1298 C1274 0.950 . S
H1299 C1275 0.923 1_545 S
H1300 C1277 0.950 . S
H1301 C1279 0.950 . S
C1302 C1303 1.349 . S
C1302 C1304 1.327 . S
C1302 H1327 0.950 . S
C1303 C1302 1.349 . S
C1303 C1319 1.349 . S
C1304 C1302 1.327 . S
C1304 C1323 1.429 . S
C1304 H1328 0.950 . S
C1305 C1322 1.574 . S
C1305 C1324 1.368 . S
C1305 H1329 0.949 . S
H1306 C1310 0.949 1_655 S
C1307 C1308 1.349 . S
C1307 C1309 1.327 . S
C1307 H1330 0.950 . S
C1308 C1307 1.349 . S
C1308 C1320 1.349 . S
C1309 C1307 1.327 . S
C1309 C1325 1.429 . S
C1309 H1331 0.950 . S
C1310 H1306 0.949 1_455 S
C1310 C1318 1.574 . S
C1310 C1326 1.368 1_455 S
H1311 C1319 0.950 . S
H1312 C1317 0.950 . S
H1313 C1318 0.949 . S
H1314 C1320 0.950 . S
H1315 C1321 0.950 . S
H1316 C1322 0.949 1_655 S
C1317 H1312 0.950 . S
C1317 C1319 1.327 . S
C1317 C1323 1.429 . S
C1318 C1310 1.574 . S
C1318 H1313 0.949 . S
C1318 C1324 1.368 . S
C1319 C1303 1.349 . S
C1319 H1311 0.950 . S
C1319 C1317 1.327 . S
C1320 C1308 1.349 . S
C1320 H1314 0.950 . S
C1320 C1321 1.327 . S
C1321 H1315 0.950 . S
C1321 C1320 1.327 . S
C1321 C1325 1.429 . S
C1322 C1305 1.574 . S
C1322 H1316 0.949 1_455 S
C1322 C1326 1.368 1_455 S
C1323 C1304 1.429 . S
C1323 C1317 1.429 . S
C1323 C1324 1.523 . S
C1324 C1305 1.368 . S
C1324 C1318 1.368 . S
C1324 C1323 1.523 . S
C1325 C1309 1.429 . S
C1325 C1321 1.429 . S
C1325 C1326 1.523 . S
C1326 C1310 1.368 1_655 S
C1326 C1322 1.368 1_655 S
C1326 C1325 1.523 . S
H1327 C1302 0.950 . S
H1328 C1304 0.950 . S
H1329 C1305 0.949 . S
H1330 C1307 0.950 . S
H1331 C1309 0.950 . S
C1332 C1333 1.349 . S
C1332 C1334 1.327 . S
C1332 H1357 0.950 . S
C1333 C1332 1.349 . S
C1333 C1349 1.349 . S
C1334 C1332 1.327 . S
C1334 C1353 1.429 . S
C1334 H1358 0.950 . S
C1335 C1352 1.574 . S
C1335 C1354 1.368 1_545 S
C1335 H1359 0.949 1_545 S
H1336 C1340 0.949 . S
C1337 C1338 1.349 . S
C1337 C1339 1.327 . S
C1337 H1360 0.950 . S
C1338 C1337 1.349 . S
C1338 C1350 1.349 . S
C1339 C1337 1.327 . S
C1339 C1355 1.429 . S
C1339 H1361 0.950 . S
C1340 H1336 0.949 . S
C1340 C1348 1.574 . S
C1340 C1356 1.368 . S
H1341 C1349 0.950 . S
H1342 C1347 0.950 . S
H1343 C1348 0.956 . S
H1344 C1350 0.950 . S
H1345 C1351 0.950 . S
H1346 C1352 0.949 . S
C1347 H1342 0.950 . S
C1347 C1349 1.327 . S
C1347 C1353 1.429 . S
C1348 C1340 1.574 . S
C1348 H1343 0.956 . S
C1348 C1354 1.368 1_545 S
C1349 C1333 1.349 . S
C1349 H1341 0.950 . S
C1349 C1347 1.327 . S
C1350 C1338 1.349 . S
C1350 H1344 0.950 . S
C1350 C1351 1.327 . S
C1351 H1345 0.950 . S
C1351 C1350 1.327 . S
C1351 C1355 1.429 . S
C1352 C1335 1.574 . S
C1352 H1346 0.949 . S
C1352 C1356 1.368 . S
C1353 C1334 1.429 . S
C1353 C1347 1.429 . S
C1353 C1354 1.523 . S
C1354 C1335 1.368 1_565 S
C1354 C1348 1.368 1_565 S
C1354 C1353 1.523 . S
C1355 C1339 1.429 . S
C1355 C1351 1.429 . S
C1355 C1356 1.523 . S
C1356 C1340 1.368 . S
C1356 C1352 1.368 . S
C1356 C1355 1.523 . S
H1357 C1332 0.950 . S
H1358 C1334 0.950 . S
H1359 C1335 0.949 1_565 S
H1360 C1337 0.950 . S
H1361 C1339 0.950 . S
C1362 C1363 1.349 . S
C1362 C1364 1.327 . S
C1362 H1387 0.950 . S
C1363 C1362 1.349 . S
C1363 C1379 1.349 . S
C1364 C1362 1.327 . S
C1364 C1383 1.429 . S
C1364 H1388 0.950 . S
C1365 C1382 1.574 . S
C1365 C1384 1.368 1_655 S
C1365 H1389 0.942 1_655 S
H1366 C1370 0.949 . S
C1367 C1368 1.349 . S
C1367 C1369 1.327 . S
C1367 H1390 0.950 . S
C1368 C1367 1.349 . S
C1368 C1380 1.349 . S
C1369 C1367 1.327 . S
C1369 C1385 1.429 . S
C1369 H1391 0.950 . S
C1370 H1366 0.949 . S
C1370 C1378 1.574 . S
C1370 C1386 1.368 . S
H1371 C1379 0.950 . S
H1372 C1377 0.950 . S
H1373 C1378 0.949 1_455 S
H1374 C1380 0.950 . S
H1375 C1381 0.950 . S
H1376 C1382 0.949 . S
C1377 H1372 0.950 . S
C1377 C1379 1.327 . S
C1377 C1383 1.429 . S
C1378 C1370 1.574 . S
C1378 H1373 0.949 1_655 S
C1378 C1384 1.368 1_655 S
C1379 C1363 1.349 . S
C1379 H1371 0.950 . S
C1379 C1377 1.327 . S
C1380 C1368 1.349 . S
C1380 H1374 0.950 . S
C1380 C1381 1.327 . S
C1381 H1375 0.950 . S
C1381 C1380 1.327 . S
C1381 C1385 1.429 . S
C1382 C1365 1.574 . S
C1382 H1376 0.949 . S
C1382 C1386 1.368 . S
C1383 C1364 1.429 . S
C1383 C1377 1.429 . S
C1383 C1384 1.523 . S
C1384 C1365 1.368 1_455 S
C1384 C1378 1.368 1_455 S
C1384 C1383 1.523 . S
C1385 C1369 1.429 . S
C1385 C1381 1.429 . S
C1385 C1386 1.523 . S
C1386 C1370 1.368 . S
C1386 C1382 1.368 . S
C1386 C1385 1.523 . S
H1387 C1362 0.950 . S
H1388 C1364 0.950 . S
H1389 C1365 0.942 1_455 S
H1390 C1367 0.950 . S
H1391 C1369 0.950 . S
C1392 C1393 1.349 . S
C1392 C1394 1.327 . S
C1392 H1417 0.950 . S
C1393 C1392 1.349 . S
C1393 C1409 1.349 . S
C1394 C1392 1.327 . S
C1394 C1413 1.429 . S
C1394 H1418 0.950 . S
C1395 C1412 1.574 . S
C1395 C1414 1.368 1_554 S
C1395 H1419 0.949 1_554 S
H1396 C1400 0.949 . S
C1397 C1398 1.349 . S
C1397 C1399 1.327 . S
C1397 H1420 0.950 . S
C1398 C1397 1.349 . S
C1398 C1410 1.349 . S
C1399 C1397 1.327 . S
C1399 C1415 1.429 . S
C1399 H1421 0.950 . S
C1400 H1396 0.949 . S
C1400 C1408 1.574 . S
C1400 C1416 1.368 . S
H1401 C1409 0.950 . S
H1402 C1407 0.950 . S
H1403 C1408 0.949 1_556 S
H1404 C1410 0.950 . S
H1405 C1411 0.950 . S
H1406 C1412 0.949 . S
C1407 H1402 0.950 . S
C1407 C1409 1.327 . S
C1407 C1413 1.429 . S
C1408 C1400 1.574 . S
C1408 H1403 0.949 1_554 S
C1408 C1414 1.368 1_554 S
C1409 C1393 1.349 . S
C1409 H1401 0.950 . S
C1409 C1407 1.327 . S
C1410 C1398 1.349 . S
C1410 H1404 0.950 . S
C1410 C1411 1.327 . S
C1411 H1405 0.950 . S
C1411 C1410 1.327 . S
C1411 C1415 1.429 . S
C1412 C1395 1.574 . S
C1412 H1406 0.949 . S
C1412 C1416 1.368 . S
C1413 C1394 1.429 . S
C1413 C1407 1.429 . S
C1413 C1414 1.523 . S
C1414 C1395 1.368 1_556 S
C1414 C1408 1.368 1_556 S
C1414 C1413 1.523 . S
C1415 C1399 1.429 . S
C1415 C1411 1.429 . S
C1415 C1416 1.523 . S
C1416 C1400 1.368 . S
C1416 C1412 1.368 . S
C1416 C1415 1.523 . S
H1417 C1392 0.950 . S
H1418 C1394 0.950 . S
H1419 C1395 0.949 1_556 S
H1420 C1397 0.950 . S
H1421 C1399 0.950 . S
C1422 C1423 1.349 . S
C1422 C1424 1.327 . S
C1422 H1447 0.950 . S
C1423 C1422 1.349 . S
C1423 C1439 1.349 . S
C1424 C1422 1.327 . S
C1424 C1443 1.429 . S
C1424 H1448 0.950 . S
C1425 C1442 1.574 . S
C1425 C1444 1.368 . S
C1425 H1449 0.949 . S
H1426 C1430 0.949 1_556 S
C1427 C1428 1.349 . S
C1427 C1429 1.327 . S
C1427 H1450 0.950 . S
C1428 C1427 1.349 . S
C1428 C1440 1.349 . S
C1429 C1427 1.327 . S
C1429 C1445 1.429 . S
C1429 H1451 0.950 . S
C1430 H1426 0.949 1_554 S
C1430 C1438 1.574 . S
C1430 C1446 1.368 1_554 S
H1431 C1439 0.950 . S
H1432 C1437 0.950 . S
H1433 C1438 0.949 . S
H1434 C1440 0.950 . S
H1435 C1441 0.950 . S
H1436 C1442 0.949 1_556 S
C1437 H1432 0.950 . S
C1437 C1439 1.327 . S
C1437 C1443 1.429 . S
C1438 C1430 1.574 . S
C1438 H1433 0.949 . S
C1438 C1444 1.368 . S
C1439 C1423 1.349 . S
C1439 H1431 0.950 . S
C1439 C1437 1.327 . S
C1440 C1428 1.349 . S
C1440 H1434 0.950 . S
C1440 C1441 1.327 . S
C1441 H1435 0.950 . S
C1441 C1440 1.327 . S
C1441 C1445 1.429 . S
C1442 C1425 1.574 . S
C1442 H1436 0.949 1_554 S
C1442 C1446 1.368 1_554 S
C1443 C1424 1.429 . S
C1443 C1437 1.429 . S
C1443 C1444 1.523 . S
C1444 C1425 1.368 . S
C1444 C1438 1.368 . S
C1444 C1443 1.523 . S
C1445 C1429 1.429 . S
C1445 C1441 1.429 . S
C1445 C1446 1.523 . S
C1446 C1430 1.368 1_556 S
C1446 C1442 1.368 1_556 S
C1446 C1445 1.523 . S
H1447 C1422 0.950 . S
H1448 C1424 0.950 . S
H1449 C1425 0.949 . S
H1450 C1427 0.950 . S
H1451 C1429 0.950 . S
C1452 C1453 1.349 . S
C1452 C1454 1.327 . S
C1452 H1477 0.950 . S
C1453 C1452 1.349 . S
C1453 C1469 1.349 . S
C1454 C1452 1.327 . S
C1454 C1473 1.429 . S
C1454 H1478 0.950 . S
C1455 C1472 1.574 . S
C1455 C1474 1.368 1_554 S
C1455 H1479 0.949 1_554 S
H1456 C1460 0.949 . S
C1457 C1458 1.349 . S
C1457 C1459 1.327 . S
C1457 H1480 0.950 . S
C1458 C1457 1.349 . S
C1458 C1470 1.349 . S
C1459 C1457 1.327 . S
C1459 C1475 1.429 . S
C1459 H1481 0.950 . S
C1460 H1456 0.949 . S
C1460 C1468 1.574 . S
C1460 C1476 1.368 . S
H1461 C1469 0.950 . S
H1462 C1467 0.950 . S
H1463 C1468 0.949 1_556 S
H1464 C1470 0.950 . S
H1465 C1471 0.950 . S
H1466 C1472 0.949 . S
C1467 H1462 0.950 . S
C1467 C1469 1.327 . S
C1467 C1473 1.429 . S
C1468 C1460 1.574 . S
C1468 H1463 0.949 1_554 S
C1468 C1474 1.368 1_554 S
C1469 C1453 1.349 . S
C1469 H1461 0.950 . S
C1469 C1467 1.327 . S
C1470 C1458 1.349 . S
C1470 H1464 0.950 . S
C1470 C1471 1.327 . S
C1471 H1465 0.950 . S
C1471 C1470 1.327 . S
C1471 C1475 1.429 . S
C1472 C1455 1.574 . S
C1472 H1466 0.949 . S
C1472 C1476 1.368 . S
C1473 C1454 1.429 . S
C1473 C1467 1.429 . S
C1473 C1474 1.523 . S
C1474 C1455 1.368 1_556 S
C1474 C1468 1.368 1_556 S
C1474 C1473 1.523 . S
C1475 C1459 1.429 . S
C1475 C1471 1.429 . S
C1475 C1476 1.523 . S
C1476 C1460 1.368 . S
C1476 C1472 1.368 . S
C1476 C1475 1.523 . S
H1477 C1452 0.950 . S
H1478 C1454 0.950 . S
H1479 C1455 0.949 1_556 S
H1480 C1457 0.950 . S
H1481 C1459 0.950 . S
C1482 C1483 1.349 . S
C1482 C1484 1.327 . S
C1482 H1507 0.950 . S
C1483 C1482 1.349 . S
C1483 C1499 1.349 . S
C1484 C1482 1.327 . S
C1484 C1503 1.429 . S
C1484 H1508 0.950 . S
C1485 C1502 1.574 . S
C1485 C1504 1.368 . S
C1485 H1509 0.949 . S
H1486 C1490 0.949 1_556 S
C1487 C1488 1.349 . S
C1487 C1489 1.327 . S
C1487 H1510 0.950 . S
C1488 C1487 1.349 . S
C1488 C1500 1.349 . S
C1489 C1487 1.327 . S
C1489 C1505 1.429 . S
C1489 H1511 0.950 . S
C1490 H1486 0.949 1_554 S
C1490 C1498 1.574 . S
C1490 C1506 1.368 1_554 S
H1491 C1499 0.950 . S
H1492 C1497 0.950 . S
H1493 C1498 0.949 . S
H1494 C1500 0.950 . S
H1495 C1501 0.950 . S
H1496 C1502 0.949 1_556 S
C1497 H1492 0.950 . S
C1497 C1499 1.327 . S
C1497 C1503 1.429 . S
C1498 C1490 1.574 . S
C1498 H1493 0.949 . S
C1498 C1504 1.368 . S
C1499 C1483 1.349 . S
C1499 H1491 0.950 . S
C1499 C1497 1.327 . S
C1500 C1488 1.349 . S
C1500 H1494 0.950 . S
C1500 C1501 1.327 . S
C1501 H1495 0.950 . S
C1501 C1500 1.327 . S
C1501 C1505 1.429 . S
C1502 C1485 1.574 . S
C1502 H1496 0.949 1_554 S
C1502 C1506 1.368 1_554 S
C1503 C1484 1.429 . S
C1503 C1497 1.429 . S
C1503 C1504 1.523 . S
C1504 C1485 1.368 . S
C1504 C1498 1.368 . S
C1504 C1503 1.523 . S
C1505 C1489 1.429 . S
C1505 C1501 1.429 . S
C1505 C1506 1.523 . S
C1506 C1490 1.368 1_556 S
C1506 C1502 1.368 1_556 S
C1506 C1505 1.523 . S
H1507 C1482 0.950 . S
H1508 C1484 0.950 . S
H1509 C1485 0.949 . S
H1510 C1487 0.950 . S
H1511 C1489 0.950 . S
C1512 C1513 1.349 . S
C1512 C1514 1.327 . S
C1512 H1537 0.950 . S
C1513 C1512 1.349 . S
C1513 C1529 1.349 . S
C1514 C1512 1.327 . S
C1514 C1533 1.429 . S
C1514 H1538 0.950 . S
C1515 C1532 1.574 . S
C1515 C1534 1.368 1_556 S
C1515 H1539 0.949 1_556 S
H1516 C1520 0.949 . S
C1517 C1518 1.349 . S
C1517 C1519 1.327 . S
C1517 H1540 0.950 . S
C1518 C1517 1.349 . S
C1518 C1530 1.349 . S
C1519 C1517 1.327 . S
C1519 C1535 1.429 . S
C1519 H1541 0.950 . S
C1520 H1516 0.949 . S
C1520 C1528 1.574 . S
C1520 C1536 1.368 . S
H1521 C1529 0.950 . S
H1522 C1527 0.950 . S
H1523 C1528 0.949 1_554 S
H1524 C1530 0.950 . S
H1525 C1531 0.950 . S
H1526 C1532 0.949 . S
C1527 H1522 0.950 . S
C1527 C1529 1.327 . S
C1527 C1533 1.429 . S
C1528 C1520 1.574 . S
C1528 H1523 0.949 1_556 S
C1528 C1534 1.368 1_556 S
C1529 C1513 1.349 . S
C1529 H1521 0.950 . S
C1529 C1527 1.327 . S
C1530 C1518 1.349 . S
C1530 H1524 0.950 . S
C1530 C1531 1.327 . S
C1531 H1525 0.950 . S
C1531 C1530 1.327 . S
C1531 C1535 1.429 . S
C1532 C1515 1.574 . S
C1532 H1526 0.949 . S
C1532 C1536 1.368 . S
C1533 C1514 1.429 . S
C1533 C1527 1.429 . S
C1533 C1534 1.523 . S
C1534 C1515 1.368 1_554 S
C1534 C1528 1.368 1_554 S
C1534 C1533 1.523 . S
C1535 C1519 1.429 . S
C1535 C1531 1.429 . S
C1535 C1536 1.523 . S
C1536 C1520 1.368 . S
C1536 C1532 1.368 . S
C1536 C1535 1.523 . S
H1537 C1512 0.950 . S
H1538 C1514 0.950 . S
H1539 C1515 0.949 1_554 S
H1540 C1517 0.950 . S
H1541 C1519 0.950 . S
C1542 C1543 1.349 . S
C1542 C1544 1.327 . S
C1542 H1567 0.950 . S
C1543 C1542 1.349 . S
C1543 C1559 1.349 . S
C1544 C1542 1.327 . S
C1544 C1563 1.429 . S
C1544 H1568 0.950 . S
C1545 C1562 1.574 . S
C1545 C1564 1.368 . S
C1545 H1569 0.949 . S
H1546 C1550 0.949 1_554 S
C1547 C1548 1.349 . S
C1547 C1549 1.327 . S
C1547 H1570 0.950 . S
C1548 C1547 1.349 . S
C1548 C1560 1.349 . S
C1549 C1547 1.327 . S
C1549 C1565 1.429 . S
C1549 H1571 0.950 . S
C1550 H1546 0.949 1_556 S
C1550 C1558 1.574 . S
C1550 C1566 1.368 1_556 S
H1551 C1559 0.950 . S
H1552 C1557 0.950 . S
H1553 C1558 0.949 . S
H1554 C1560 0.950 . S
H1555 C1561 0.950 . S
H1556 C1562 0.949 1_554 S
C1557 H1552 0.950 . S
C1557 C1559 1.327 . S
C1557 C1563 1.429 . S
C1558 C1550 1.574 . S
C1558 H1553 0.949 . S
C1558 C1564 1.368 . S
C1559 C1543 1.349 . S
C1559 H1551 0.950 . S
C1559 C1557 1.327 . S
C1560 C1548 1.349 . S
C1560 H1554 0.950 . S
C1560 C1561 1.327 . S
C1561 H1555 0.950 . S
C1561 C1560 1.327 . S
C1561 C1565 1.429 . S
C1562 C1545 1.574 . S
C1562 H1556 0.949 1_556 S
C1562 C1566 1.368 1_556 S
C1563 C1544 1.429 . S
C1563 C1557 1.429 . S
C1563 C1564 1.523 . S
C1564 C1545 1.368 . S
C1564 C1558 1.368 . S
C1564 C1563 1.523 . S
C1565 C1549 1.429 . S
C1565 C1561 1.429 . S
C1565 C1566 1.523 . S
C1566 C1550 1.368 1_554 S
C1566 C1562 1.368 1_554 S
C1566 C1565 1.523 . S
H1567 C1542 0.950 . S
H1568 C1544 0.950 . S
H1569 C1545 0.949 . S
H1570 C1547 0.950 . S
H1571 C1549 0.950 . S
C1572 C1573 1.349 . S
C1572 C1574 1.327 . S
C1572 H1597 0.950 . S
C1573 C1572 1.349 . S
C1573 C1589 1.349 . S
C1574 C1572 1.327 . S
C1574 C1593 1.429 . S
C1574 H1598 0.950 . S
C1575 C1592 1.574 . S
C1575 C1594 1.368 1_556 S
C1575 H1599 0.949 1_556 S
H1576 C1580 0.949 . S
C1577 C1578 1.349 . S
C1577 C1579 1.327 . S
C1577 H1600 0.950 . S
C1578 C1577 1.349 . S
C1578 C1590 1.349 . S
C1579 C1577 1.327 . S
C1579 C1595 1.429 . S
C1579 H1601 0.950 . S
C1580 H1576 0.949 . S
C1580 C1588 1.574 . S
C1580 C1596 1.368 . S
H1581 C1589 0.950 . S
H1582 C1587 0.950 . S
H1583 C1588 0.949 1_554 S
H1584 C1590 0.950 . S
H1585 C1591 0.950 . S
H1586 C1592 0.949 . S
C1587 H1582 0.950 . S
C1587 C1589 1.327 . S
C1587 C1593 1.429 . S
C1588 C1580 1.574 . S
C1588 H1583 0.949 1_556 S
C1588 C1594 1.368 1_556 S
C1589 C1573 1.349 . S
C1589 H1581 0.950 . S
C1589 C1587 1.327 . S
C1590 C1578 1.349 . S
C1590 H1584 0.950 . S
C1590 C1591 1.327 . S
C1591 H1585 0.950 . S
C1591 C1590 1.327 . S
C1591 C1595 1.429 . S
C1592 C1575 1.574 . S
C1592 H1586 0.949 . S
C1592 C1596 1.368 . S
C1593 C1574 1.429 . S
C1593 C1587 1.429 . S
C1593 C1594 1.523 . S
C1594 C1575 1.368 1_554 S
C1594 C1588 1.368 1_554 S
C1594 C1593 1.523 . S
C1595 C1579 1.429 . S
C1595 C1591 1.429 . S
C1595 C1596 1.523 . S
C1596 C1580 1.368 . S
C1596 C1592 1.368 . S
C1596 C1595 1.523 . S
H1597 C1572 0.950 . S
H1598 C1574 0.950 . S
H1599 C1575 0.949 1_554 S
H1600 C1577 0.950 . S
H1601 C1579 0.950 . S
C1602 C1603 1.349 . S
C1602 C1604 1.327 . S
C1602 H1627 0.950 . S
C1603 C1602 1.349 . S
C1603 C1619 1.349 . S
C1604 C1602 1.327 . S
C1604 C1623 1.429 . S
C1604 H1628 0.950 . S
C1605 C1622 1.574 . S
C1605 C1624 1.368 . S
C1605 H1629 0.949 . S
H1606 C1610 0.949 1_554 S
C1607 C1608 1.349 . S
C1607 C1609 1.327 . S
C1607 H1630 0.950 . S
C1608 C1607 1.349 . S
C1608 C1620 1.349 . S
C1609 C1607 1.327 . S
C1609 C1625 1.429 . S
C1609 H1631 0.950 . S
C1610 H1606 0.949 1_556 S
C1610 C1618 1.574 . S
C1610 C1626 1.368 1_556 S
H1611 C1619 0.950 . S
H1612 C1617 0.950 . S
H1613 C1618 0.949 . S
H1614 C1620 0.950 . S
H1615 C1621 0.950 . S
H1616 C1622 0.949 1_554 S
C1617 H1612 0.950 . S
C1617 C1619 1.327 . S
C1617 C1623 1.429 . S
C1618 C1610 1.574 . S
C1618 H1613 0.949 . S
C1618 C1624 1.368 . S
C1619 C1603 1.349 . S
C1619 H1611 0.950 . S
C1619 C1617 1.327 . S
C1620 C1608 1.349 . S
C1620 H1614 0.950 . S
C1620 C1621 1.327 . S
C1621 H1615 0.950 . S
C1621 C1620 1.327 . S
C1621 C1625 1.429 . S
C1622 C1605 1.574 . S
C1622 H1616 0.949 1_556 S
C1622 C1626 1.368 1_556 S
C1623 C1604 1.429 . S
C1623 C1617 1.429 . S
C1623 C1624 1.523 . S
C1624 C1605 1.368 . S
C1624 C1618 1.368 . S
C1624 C1623 1.523 . S
C1625 C1609 1.429 . S
C1625 C1621 1.429 . S
C1625 C1626 1.523 . S
C1626 C1610 1.368 1_554 S
C1626 C1622 1.368 1_554 S
C1626 C1625 1.523 . S
H1627 C1602 0.950 . S
H1628 C1604 0.950 . S
H1629 C1605 0.949 . S
H1630 C1607 0.950 . S
H1631 C1609 0.950 . S
C1632 C1633 1.349 . S
C1632 C1634 1.327 . S
C1632 H1657 0.950 . S
C1633 C1632 1.349 . S
C1633 C1649 1.349 . S
C1634 C1632 1.327 . S
C1634 C1653 1.429 . S
C1634 H1658 0.950 . S
C1635 C1652 1.574 . S
C1635 C1654 1.368 1_455 S
C1635 H1659 0.949 1_455 S
H1636 C1640 0.949 . S
C1637 C1638 1.349 . S
C1637 C1639 1.327 . S
C1637 H1660 0.950 . S
C1638 C1637 1.349 . S
C1638 C1650 1.349 . S
C1639 C1637 1.327 . S
C1639 C1655 1.429 . S
C1639 H1661 0.950 . S
C1640 H1636 0.949 . S
C1640 C1648 1.574 . S
C1640 C1656 1.368 . S
H1641 C1649 0.950 . S
H1642 C1647 0.950 . S
H1643 C1648 0.949 1_655 S
H1644 C1650 0.950 . S
H1645 C1651 0.950 . S
H1646 C1652 0.949 . S
C1647 H1642 0.950 . S
C1647 C1649 1.327 . S
C1647 C1653 1.429 . S
C1648 C1640 1.574 . S
C1648 H1643 0.949 1_455 S
C1648 C1654 1.368 1_455 S
C1649 C1633 1.349 . S
C1649 H1641 0.950 . S
C1649 C1647 1.327 . S
C1650 C1638 1.349 . S
C1650 H1644 0.950 . S
C1650 C1651 1.327 . S
C1651 H1645 0.950 . S
C1651 C1650 1.327 . S
C1651 C1655 1.429 . S
C1652 C1635 1.574 . S
C1652 H1646 0.949 . S
C1652 C1656 1.368 . S
C1653 C1634 1.429 . S
C1653 C1647 1.429 . S
C1653 C1654 1.523 . S
C1654 C1635 1.368 1_655 S
C1654 C1648 1.368 1_655 S
C1654 C1653 1.523 . S
C1655 C1639 1.429 . S
C1655 C1651 1.429 . S
C1655 C1656 1.523 . S
C1656 C1640 1.368 . S
C1656 C1652 1.368 . S
C1656 C1655 1.523 . S
H1657 C1632 0.950 . S
H1658 C1634 0.950 . S
H1659 C1635 0.949 1_655 S
H1660 C1637 0.950 . S
H1661 C1639 0.950 . S
C1662 C1663 1.349 . S
C1662 C1664 1.327 . S
C1662 H1687 0.950 . S
C1663 C1662 1.349 . S
C1663 C1679 1.349 . S
C1664 C1662 1.327 . S
C1664 C1683 1.429 . S
C1664 H1688 0.950 . S
C1665 C1682 1.574 . S
C1665 C1684 1.368 1_455 S
C1665 H1689 0.949 1_455 S
H1666 C1670 0.949 . S
C1667 C1668 1.349 . S
C1667 C1669 1.327 . S
C1667 H1690 0.950 . S
C1668 C1667 1.349 . S
C1668 C1680 1.349 . S
C1669 C1667 1.327 . S
C1669 C1685 1.429 . S
C1669 H1691 0.950 . S
C1670 H1666 0.949 . S
C1670 C1678 1.574 . S
C1670 C1686 1.368 . S
H1671 C1679 0.950 . S
H1672 C1677 0.950 . S
H1673 C1678 0.949 1_655 S
H1674 C1680 0.950 . S
H1675 C1681 0.950 . S
H1676 C1682 0.949 . S
C1677 H1672 0.950 . S
C1677 C1679 1.327 . S
C1677 C1683 1.429 . S
C1678 C1670 1.574 . S
C1678 H1673 0.949 1_455 S
C1678 C1684 1.368 1_455 S
C1679 C1663 1.349 . S
C1679 H1671 0.950 . S
C1679 C1677 1.327 . S
C1680 C1668 1.349 . S
C1680 H1674 0.950 . S
C1680 C1681 1.327 . S
C1681 H1675 0.950 . S
C1681 C1680 1.327 . S
C1681 C1685 1.429 . S
C1682 C1665 1.574 . S
C1682 H1676 0.949 . S
C1682 C1686 1.368 . S
C1683 C1664 1.429 . S
C1683 C1677 1.429 . S
C1683 C1684 1.523 . S
C1684 C1665 1.368 1_655 S
C1684 C1678 1.368 1_655 S
C1684 C1683 1.523 . S
C1685 C1669 1.429 . S
C1685 C1681 1.429 . S
C1685 C1686 1.523 . S
C1686 C1670 1.368 . S
C1686 C1682 1.368 . S
C1686 C1685 1.523 . S
H1687 C1662 0.950 . S
H1688 C1664 0.950 . S
H1689 C1665 0.949 1_655 S
H1690 C1667 0.950 . S
H1691 C1669 0.950 . S
C1692 C1693 1.349 . S
C1692 C1694 1.327 . S
C1692 H1717 0.950 . S
C1693 C1692 1.349 . S
C1693 C1709 1.349 . S
C1694 C1692 1.327 . S
C1694 C1713 1.429 . S
C1694 H1718 0.950 . S
C1695 C1712 1.574 . S
C1695 C1714 1.368 . S
C1695 H1719 0.949 . S
H1696 C1700 0.941 1_565 S
C1697 C1698 1.349 . S
C1697 C1699 1.327 . S
C1697 H1720 0.950 . S
C1698 C1697 1.349 . S
C1698 C1710 1.349 . S
C1699 C1697 1.327 . S
C1699 C1715 1.429 . S
C1699 H1721 0.950 . S
C1700 H1696 0.941 1_545 S
C1700 C1708 1.574 . S
C1700 C1716 1.368 1_545 S
H1701 C1709 0.950 . S
H1702 C1707 0.950 . S
H1703 C1708 0.949 . S
H1704 C1710 0.950 . S
H1705 C1711 0.950 . S
H1706 C1712 0.949 1_565 S
C1707 H1702 0.950 . S
C1707 C1709 1.327 . S
C1707 C1713 1.429 . S
C1708 C1700 1.574 . S
C1708 H1703 0.949 . S
C1708 C1714 1.368 . S
C1709 C1693 1.349 . S
C1709 H1701 0.950 . S
C1709 C1707 1.327 . S
C1710 C1698 1.349 . S
C1710 H1704 0.950 . S
C1710 C1711 1.327 . S
C1711 H1705 0.950 . S
C1711 C1710 1.327 . S
C1711 C1715 1.429 . S
C1712 C1695 1.574 . S
C1712 H1706 0.949 1_545 S
C1712 C1716 1.368 1_545 S
C1713 C1694 1.429 . S
C1713 C1707 1.429 . S
C1713 C1714 1.523 . S
C1714 C1695 1.368 . S
C1714 C1708 1.368 . S
C1714 C1713 1.523 . S
C1715 C1699 1.429 . S
C1715 C1711 1.429 . S
C1715 C1716 1.523 . S
C1716 C1700 1.368 1_565 S
C1716 C1712 1.368 1_565 S
C1716 C1715 1.523 . S
H1717 C1692 0.950 . S
H1718 C1694 0.950 . S
H1719 C1695 0.949 . S
H1720 C1697 0.950 . S
H1721 C1699 0.950 . S
C1722 C1723 1.349 . S
C1722 C1724 1.327 . S
C1722 H1747 0.950 . S
C1723 C1722 1.349 . S
C1723 C1739 1.349 . S
C1724 C1722 1.327 . S
C1724 C1743 1.429 . S
C1724 H1748 0.950 . S
C1725 C1742 1.574 . S
C1725 C1744 1.368 . S
C1725 H1749 0.949 . S
H1726 C1730 0.949 1_455 S
C1727 C1728 1.349 . S
C1727 C1729 1.327 . S
C1727 H1750 0.950 . S
C1728 C1727 1.349 . S
C1728 C1740 1.349 . S
C1729 C1727 1.327 . S
C1729 C1745 1.429 . S
C1729 H1751 0.950 . S
C1730 H1726 0.949 1_655 S
C1730 C1738 1.574 . S
C1730 C1746 1.368 1_655 S
H1731 C1739 0.950 . S
H1732 C1737 0.950 . S
H1733 C1738 0.949 . S
H1734 C1740 0.950 . S
H1735 C1741 0.950 . S
H1736 C1742 0.949 1_455 S
C1737 H1732 0.950 . S
C1737 C1739 1.327 . S
C1737 C1743 1.429 . S
C1738 C1730 1.574 . S
C1738 H1733 0.949 . S
C1738 C1744 1.368 . S
C1739 C1723 1.349 . S
C1739 H1731 0.950 . S
C1739 C1737 1.327 . S
C1740 C1728 1.349 . S
C1740 H1734 0.950 . S
C1740 C1741 1.327 . S
C1741 H1735 0.950 . S
C1741 C1740 1.327 . S
C1741 C1745 1.429 . S
C1742 C1725 1.574 . S
C1742 H1736 0.949 1_655 S
C1742 C1746 1.368 1_655 S
C1743 C1724 1.429 . S
C1743 C1737 1.429 . S
C1743 C1744 1.523 . S
C1744 C1725 1.368 . S
C1744 C1738 1.368 . S
C1744 C1743 1.523 . S
C1745 C1729 1.429 . S
C1745 C1741 1.429 . S
C1745 C1746 1.523 . S
C1746 C1730 1.368 1_455 S
C1746 C1742 1.368 1_455 S
C1746 C1745 1.523 . S
H1747 C1722 0.950 . S
H1748 C1724 0.950 . S
H1749 C1725 0.949 . S
H1750 C1727 0.950 . S
H1751 C1729 0.950 . S
C1752 C1753 1.349 . S
C1752 C1754 1.327 . S
C1752 H1777 0.950 . S
C1753 C1752 1.349 . S
C1753 C1769 1.349 . S
C1754 C1752 1.327 . S
C1754 C1773 1.429 . S
C1754 H1778 0.950 . S
C1755 C1772 1.574 . S
C1755 C1774 1.368 1_565 S
C1755 H1779 0.949 1_565 S
H1756 C1760 0.949 . S
C1757 C1758 1.349 . S
C1757 C1759 1.327 . S
C1757 H1780 0.950 . S
C1758 C1757 1.349 . S
C1758 C1770 1.349 . S
C1759 C1757 1.327 . S
C1759 C1775 1.429 . S
C1759 H1781 0.950 . S
C1760 H1756 0.949 . S
C1760 C1768 1.574 . S
C1760 C1776 1.368 . S
H1761 C1769 0.950 . S
H1762 C1767 0.950 . S
H1763 C1768 0.949 1_545 S
H1764 C1770 0.950 . S
H1765 C1771 0.950 . S
H1766 C1772 0.949 . S
C1767 H1762 0.950 . S
C1767 C1769 1.327 . S
C1767 C1773 1.429 . S
C1768 C1760 1.574 . S
C1768 H1763 0.949 1_565 S
C1768 C1774 1.368 1_565 S
C1769 C1753 1.349 . S
C1769 H1761 0.950 . S
C1769 C1767 1.327 . S
C1770 C1758 1.349 . S
C1770 H1764 0.950 . S
C1770 C1771 1.327 . S
C1771 H1765 0.950 . S
C1771 C1770 1.327 . S
C1771 C1775 1.429 . S
C1772 C1755 1.574 . S
C1772 H1766 0.949 . S
C1772 C1776 1.368 . S
C1773 C1754 1.429 . S
C1773 C1767 1.429 . S
C1773 C1774 1.523 . S
C1774 C1755 1.368 1_545 S
C1774 C1768 1.368 1_545 S
C1774 C1773 1.523 . S
C1775 C1759 1.429 . S
C1775 C1771 1.429 . S
C1775 C1776 1.523 . S
C1776 C1760 1.368 . S
C1776 C1772 1.368 . S
C1776 C1775 1.523 . S
H1777 C1752 0.950 . S
H1778 C1754 0.950 . S
H1779 C1755 0.949 1_545 S
H1780 C1757 0.950 . S
H1781 C1759 0.950 . S
C1782 C1783 1.349 . S
C1782 C1784 1.327 . S
C1782 H1807 0.950 . S
C1783 C1782 1.349 . S
C1783 C1799 1.349 . S
C1784 C1782 1.327 . S
C1784 C1803 1.429 . S
C1784 H1808 0.950 . S
C1785 C1802 1.574 . S
C1785 C1804 1.368 1_655 S
C1785 H1809 0.949 1_655 S
H1786 C1790 0.949 . S
C1787 C1788 1.349 . S
C1787 C1789 1.327 . S
C1787 H1810 0.950 . S
C1788 C1787 1.349 . S
C1788 C1800 1.349 . S
C1789 C1787 1.327 . S
C1789 C1805 1.429 . S
C1789 H1811 0.950 . S
C1790 H1786 0.949 . S
C1790 C1798 1.574 . S
C1790 C1806 1.368 . S
H1791 C1799 0.950 . S
H1792 C1797 0.950 . S
H1793 C1798 0.949 1_455 S
H1794 C1800 0.950 . S
H1795 C1801 0.950 . S
H1796 C1802 0.949 . S
C1797 H1792 0.950 . S
C1797 C1799 1.327 . S
C1797 C1803 1.429 . S
C1798 C1790 1.574 . S
C1798 H1793 0.949 1_655 S
C1798 C1804 1.368 1_655 S
C1799 C1783 1.349 . S
C1799 H1791 0.950 . S
C1799 C1797 1.327 . S
C1800 C1788 1.349 . S
C1800 H1794 0.950 . S
C1800 C1801 1.327 . S
C1801 H1795 0.950 . S
C1801 C1800 1.327 . S
C1801 C1805 1.429 . S
C1802 C1785 1.574 . S
C1802 H1796 0.949 . S
C1802 C1806 1.368 . S
C1803 C1784 1.429 . S
C1803 C1797 1.429 . S
C1803 C1804 1.523 . S
C1804 C1785 1.368 1_455 S
C1804 C1798 1.368 1_455 S
C1804 C1803 1.523 . S
C1805 C1789 1.429 . S
C1805 C1801 1.429 . S
C1805 C1806 1.523 . S
C1806 C1790 1.368 . S
C1806 C1802 1.368 . S
C1806 C1805 1.523 . S
H1807 C1782 0.950 . S
H1808 C1784 0.950 . S
H1809 C1785 0.949 1_455 S
H1810 C1787 0.950 . S
H1811 C1789 0.950 . S
C1812 C1813 1.349 . S
C1812 C1814 1.327 . S
C1812 H1837 0.950 . S
C1813 C1812 1.349 . S
C1813 C1829 1.349 . S
C1814 C1812 1.327 . S
C1814 C1833 1.429 . S
C1814 H1838 0.950 . S
C1815 C1832 1.574 . S
C1815 C1834 1.368 1_565 S
C1815 H1839 0.949 1_565 S
H1816 C1820 0.949 . S
C1817 C1818 1.349 . S
C1817 C1819 1.327 . S
C1817 H1840 0.950 . S
C1818 C1817 1.349 . S
C1818 C1830 1.349 . S
C1819 C1817 1.327 . S
C1819 C1835 1.429 . S
C1819 H1841 0.950 . S
C1820 H1816 0.949 . S
C1820 C1828 1.574 . S
C1820 C1836 1.368 . S
H1821 C1829 0.950 . S
H1822 C1827 0.950 . S
H1823 C1828 0.949 1_545 S
H1824 C1830 0.950 . S
H1825 C1831 0.950 . S
H1826 C1832 0.949 . S
C1827 H1822 0.950 . S
C1827 C1829 1.327 . S
C1827 C1833 1.429 . S
C1828 C1820 1.574 . S
C1828 H1823 0.949 1_565 S
C1828 C1834 1.368 1_565 S
C1829 C1813 1.349 . S
C1829 H1821 0.950 . S
C1829 C1827 1.327 . S
C1830 C1818 1.349 . S
C1830 H1824 0.950 . S
C1830 C1831 1.327 . S
C1831 H1825 0.950 . S
C1831 C1830 1.327 . S
C1831 C1835 1.429 . S
C1832 C1815 1.574 . S
C1832 H1826 0.949 . S
C1832 C1836 1.368 . S
C1833 C1814 1.429 . S
C1833 C1827 1.429 . S
C1833 C1834 1.523 . S
C1834 C1815 1.368 1_545 S
C1834 C1828 1.368 1_545 S
C1834 C1833 1.523 . S
C1835 C1819 1.429 . S
C1835 C1831 1.429 . S
C1835 C1836 1.523 . S
C1836 C1820 1.368 . S
C1836 C1832 1.368 . S
C1836 C1835 1.523 . S
H1837 C1812 0.950 . S
H1838 C1814 0.950 . S
H1839 C1815 0.949 1_545 S
H1840 C1817 0.950 . S
H1841 C1819 0.950 . S
C1842 C1843 1.349 . S
C1842 C1844 1.327 . S
C1842 H1867 0.950 . S
C1843 C1842 1.349 . S
C1843 C1859 1.349 . S
C1844 C1842 1.327 . S
C1844 C1863 1.429 . S
C1844 H1868 0.950 . S
C1845 C1862 1.574 . S
C1845 C1864 1.368 . S
C1845 H1869 0.949 . S
H1846 C1850 0.949 1_565 S
C1847 C1848 1.349 . S
C1847 C1849 1.327 . S
C1847 H1870 0.950 . S
C1848 C1847 1.349 . S
C1848 C1860 1.349 . S
C1849 C1847 1.327 . S
C1849 C1865 1.429 . S
C1849 H1871 0.950 . S
C1850 H1846 0.949 1_545 S
C1850 C1858 1.574 . S
C1850 C1866 1.368 1_545 S
H1851 C1859 0.950 . S
H1852 C1857 0.950 . S
H1853 C1858 0.949 . S
H1854 C1860 0.950 . S
H1855 C1861 0.950 . S
H1856 C1862 0.945 1_565 S
C1857 H1852 0.950 . S
C1857 C1859 1.327 . S
C1857 C1863 1.429 . S
C1858 C1850 1.574 . S
C1858 H1853 0.949 . S
C1858 C1864 1.368 . S
C1859 C1843 1.349 . S
C1859 H1851 0.950 . S
C1859 C1857 1.327 . S
C1860 C1848 1.349 . S
C1860 H1854 0.950 . S
C1860 C1861 1.327 . S
C1861 H1855 0.950 . S
C1861 C1860 1.327 . S
C1861 C1865 1.429 . S
C1862 C1845 1.574 . S
C1862 H1856 0.945 1_545 S
C1862 C1866 1.368 1_545 S
C1863 C1844 1.429 . S
C1863 C1857 1.429 . S
C1863 C1864 1.523 . S
C1864 C1845 1.368 . S
C1864 C1858 1.368 . S
C1864 C1863 1.523 . S
C1865 C1849 1.429 . S
C1865 C1861 1.429 . S
C1865 C1866 1.523 . S
C1866 C1850 1.368 1_565 S
C1866 C1862 1.368 1_565 S
C1866 C1865 1.523 . S
H1867 C1842 0.950 . S
H1868 C1844 0.950 . S
H1869 C1845 0.949 . S
H1870 C1847 0.950 . S
H1871 C1849 0.950 . S
C1872 C1873 1.349 . S
C1872 C1874 1.327 . S
C1872 H1897 0.950 . S
C1873 C1872 1.349 . S
C1873 C1889 1.349 . S
C1874 C1872 1.327 . S
C1874 C1893 1.429 . S
C1874 H1898 0.950 . S
C1875 C1892 1.574 . S
C1875 C1894 1.368 . S
C1875 H1899 0.949 . S
H1876 C1880 0.949 . S
C1877 C1878 1.349 . S
C1877 C1879 1.327 . S
C1877 H1900 0.950 . S
C1878 C1877 1.349 . S
C1878 C1890 1.349 . S
C1879 C1877 1.327 . S
C1879 C1895 1.429 . S
C1879 H1901 0.950 . S
C1880 H1876 0.949 . S
C1880 C1888 1.574 . S
C1880 C1896 1.368 . S
H1881 C1889 0.950 . S
H1882 C1887 0.950 . S
H1883 C1888 0.949 . S
H1884 C1890 0.950 . S
H1885 C1891 0.950 . S
H1886 C1892 0.949 . S
C1887 H1882 0.950 . S
C1887 C1889 1.327 . S
C1887 C1893 1.429 . S
C1888 C1880 1.574 . S
C1888 H1883 0.949 . S
C1888 C1894 1.368 . S
C1889 C1873 1.349 . S
C1889 H1881 0.950 . S
C1889 C1887 1.327 . S
C1890 C1878 1.349 . S
C1890 H1884 0.950 . S
C1890 C1891 1.327 . S
C1891 H1885 0.950 . S
C1891 C1890 1.327 . S
C1891 C1895 1.429 . S
C1892 C1875 1.574 . S
C1892 H1886 0.949 . S
C1892 C1896 1.368 . S
C1893 C1874 1.429 . S
C1893 C1887 1.429 . S
C1893 C1894 1.523 . S
C1894 C1875 1.368 . S
C1894 C1888 1.368 . S
C1894 C1893 1.523 . S
C1895 C1879 1.429 . S
C1895 C1891 1.429 . S
C1895 C1896 1.523 . S
C1896 C1880 1.368 . S
C1896 C1892 1.368 . S
C1896 C1895 1.523 . S
H1897 C1872 0.950 . S
H1898 C1874 0.950 . S
H1899 C1875 0.949 . S
H1900 C1877 0.950 . S
H1901 C1879 0.950 . S
C1902 C1903 1.349 . S
C1902 C1904 1.327 . S
C1902 H1927 0.950 . S
C1903 C1902 1.349 . S
C1903 C1919 1.349 . S
C1904 C1902 1.327 . S
C1904 C1923 1.429 . S
C1904 H1928 0.950 . S
C1905 C1922 1.574 . S
C1905 C1924 1.368 . S
C1905 H1929 0.949 . S
H1906 C1910 0.949 . S
C1907 C1908 1.349 . S
C1907 C1909 1.327 . S
C1907 H1930 0.950 . S
C1908 C1907 1.349 . S
C1908 C1920 1.349 . S
C1909 C1907 1.327 . S
C1909 C1925 1.429 . S
C1909 H1931 0.950 . S
C1910 H1906 0.949 . S
C1910 C1918 1.574 . S
C1910 C1926 1.368 . S
H1911 C1919 0.950 . S
H1912 C1917 0.950 . S
H1913 C1918 0.949 . S
H1914 C1920 0.950 . S
H1915 C1921 0.950 . S
H1916 C1922 0.949 . S
C1917 H1912 0.950 . S
C1917 C1919 1.327 . S
C1917 C1923 1.429 . S
C1918 C1910 1.574 . S
C1918 H1913 0.949 . S
C1918 C1924 1.368 . S
C1919 C1903 1.349 . S
C1919 H1911 0.950 . S
C1919 C1917 1.327 . S
C1920 C1908 1.349 . S
C1920 H1914 0.950 . S
C1920 C1921 1.327 . S
C1921 H1915 0.950 . S
C1921 C1920 1.327 . S
C1921 C1925 1.429 . S
C1922 C1905 1.574 . S
C1922 H1916 0.949 . S
C1922 C1926 1.368 . S
C1923 C1904 1.429 . S
C1923 C1917 1.429 . S
C1923 C1924 1.523 . S
C1924 C1905 1.368 . S
C1924 C1918 1.368 . S
C1924 C1923 1.523 . S
C1925 C1909 1.429 . S
C1925 C1921 1.429 . S
C1925 C1926 1.523 . S
C1926 C1910 1.368 . S
C1926 C1922 1.368 . S
C1926 C1925 1.523 . S
H1927 C1902 0.950 . S
H1928 C1904 0.950 . S
H1929 C1905 0.949 . S
H1930 C1907 0.950 . S
H1931 C1909 0.950 . S
C1932 C1933 1.349 . S
C1932 C1934 1.327 . S
C1932 H1957 0.950 . S
C1933 C1932 1.349 . S
C1933 C1949 1.349 . S
C1934 C1932 1.327 . S
C1934 C1953 1.429 . S
C1934 H1958 0.950 . S
C1935 C1952 1.574 . S
C1935 C1954 1.368 . S
C1935 H1959 0.949 . S
H1936 C1940 0.949 . S
C1937 C1938 1.349 . S
C1937 C1939 1.327 . S
C1937 H1960 0.950 . S
C1938 C1937 1.349 . S
C1938 C1950 1.349 . S
C1939 C1937 1.327 . S
C1939 C1955 1.429 . S
C1939 H1961 0.950 . S
C1940 H1936 0.949 . S
C1940 C1948 1.574 . S
C1940 C1956 1.368 . S
H1941 C1949 0.950 . S
H1942 C1947 0.950 . S
H1943 C1948 0.949 . S
H1944 C1950 0.950 . S
H1945 C1951 0.950 . S
H1946 C1952 0.949 . S
C1947 H1942 0.950 . S
C1947 C1949 1.327 . S
C1947 C1953 1.429 . S
C1948 C1940 1.574 . S
C1948 H1943 0.949 . S
C1948 C1954 1.368 . S
C1949 C1933 1.349 . S
C1949 H1941 0.950 . S
C1949 C1947 1.327 . S
C1950 C1938 1.349 . S
C1950 H1944 0.950 . S
C1950 C1951 1.327 . S
C1951 H1945 0.950 . S
C1951 C1950 1.327 . S
C1951 C1955 1.429 . S
C1952 C1935 1.574 . S
C1952 H1946 0.949 . S
C1952 C1956 1.368 . S
C1953 C1934 1.429 . S
C1953 C1947 1.429 . S
C1953 C1954 1.523 . S
C1954 C1935 1.368 . S
C1954 C1948 1.368 . S
C1954 C1953 1.523 . S
C1955 C1939 1.429 . S
C1955 C1951 1.429 . S
C1955 C1956 1.523 . S
C1956 C1940 1.368 . S
C1956 C1952 1.368 . S
C1956 C1955 1.523 . S
H1957 C1932 0.950 . S
H1958 C1934 0.950 . S
H1959 C1935 0.949 . S
H1960 C1937 0.950 . S
H1961 C1939 0.950 . S
C1962 C1963 1.349 . S
C1962 C1964 1.327 . S
C1962 H1987 0.950 . S
C1963 C1962 1.349 . S
C1963 C1979 1.349 . S
C1964 C1962 1.327 . S
C1964 C1983 1.429 . S
C1964 H1988 0.950 . S
C1965 C1982 1.574 . S
C1965 C1984 1.368 . S
C1965 H1989 0.949 . S
H1966 C1970 0.949 . S
C1967 C1968 1.349 . S
C1967 C1969 1.327 . S
C1967 H1990 0.950 . S
C1968 C1967 1.349 . S
C1968 C1980 1.349 . S
C1969 C1967 1.327 . S
C1969 C1985 1.429 . S
C1969 H1991 0.950 . S
C1970 H1966 0.949 . S
C1970 C1978 1.574 . S
C1970 C1986 1.368 . S
H1971 C1979 0.950 . S
H1972 C1977 0.950 . S
H1973 C1978 0.949 . S
H1974 C1980 0.950 . S
H1975 C1981 0.950 . S
H1976 C1982 0.949 . S
C1977 H1972 0.950 . S
C1977 C1979 1.327 . S
C1977 C1983 1.429 . S
C1978 C1970 1.574 . S
C1978 H1973 0.949 . S
C1978 C1984 1.368 . S
C1979 C1963 1.349 . S
C1979 H1971 0.950 . S
C1979 C1977 1.327 . S
C1980 C1968 1.349 . S
C1980 H1974 0.950 . S
C1980 C1981 1.327 . S
C1981 H1975 0.950 . S
C1981 C1980 1.327 . S
C1981 C1985 1.429 . S
C1982 C1965 1.574 . S
C1982 H1976 0.949 . S
C1982 C1986 1.368 . S
C1983 C1964 1.429 . S
C1983 C1977 1.429 . S
C1983 C1984 1.523 . S
C1984 C1965 1.368 . S
C1984 C1978 1.368 . S
C1984 C1983 1.523 . S
C1985 C1969 1.429 . S
C1985 C1981 1.429 . S
C1985 C1986 1.523 . S
C1986 C1970 1.368 . S
C1986 C1982 1.368 . S
C1986 C1985 1.523 . S
H1987 C1962 0.950 . S
H1988 C1964 0.950 . S
H1989 C1965 0.949 . S
H1990 C1967 0.950 . S
H1991 C1969 0.950 . S
C1992 C1993 1.349 . S
C1992 C1994 1.327 . S
C1992 H2017 0.950 . S
C1993 C1992 1.349 . S
C1993 C2009 1.349 . S
C1994 C1992 1.327 . S
C1994 C2013 1.429 . S
C1994 H2018 0.950 . S
C1995 C2012 1.574 . S
C1995 C2014 1.368 . S
C1995 H2019 0.949 . S
H1996 C2000 0.949 . S
C1997 C1998 1.349 . S
C1997 C1999 1.327 . S
C1997 H2020 0.950 . S
C1998 C1997 1.349 . S
C1998 C2010 1.349 . S
C1999 C1997 1.327 . S
C1999 C2015 1.429 . S
C1999 H2021 0.950 . S
C2000 H1996 0.949 . S
C2000 C2008 1.574 . S
C2000 C2016 1.368 . S
H2001 C2009 0.950 . S
H2002 C2007 0.950 . S
H2003 C2008 0.949 . S
H2004 C2010 0.950 . S
H2005 C2011 0.950 . S
H2006 C2012 0.949 . S
C2007 H2002 0.950 . S
C2007 C2009 1.327 . S
C2007 C2013 1.429 . S
C2008 C2000 1.574 . S
C2008 H2003 0.949 . S
C2008 C2014 1.368 . S
C2009 C1993 1.349 . S
C2009 H2001 0.950 . S
C2009 C2007 1.327 . S
C2010 C1998 1.349 . S
C2010 H2004 0.950 . S
C2010 C2011 1.327 . S
C2011 H2005 0.950 . S
C2011 C2010 1.327 . S
C2011 C2015 1.429 . S
C2012 C1995 1.574 . S
C2012 H2006 0.949 . S
C2012 C2016 1.368 . S
C2013 C1994 1.429 . S
C2013 C2007 1.429 . S
C2013 C2014 1.523 . S
C2014 C1995 1.368 . S
C2014 C2008 1.368 . S
C2014 C2013 1.523 . S
C2015 C1999 1.429 . S
C2015 C2011 1.429 . S
C2015 C2016 1.523 . S
C2016 C2000 1.368 . S
C2016 C2012 1.368 . S
C2016 C2015 1.523 . S
H2017 C1992 0.950 . S
H2018 C1994 0.950 . S
H2019 C1995 0.949 . S
H2020 C1997 0.950 . S
H2021 C1999 0.950 . S
C2022 C2023 1.349 . S
C2022 C2024 1.327 . S
C2022 H2047 0.950 . S
C2023 C2022 1.349 . S
C2023 C2039 1.349 . S
C2024 C2022 1.327 . S
C2024 C2043 1.429 . S
C2024 H2048 0.950 . S
C2025 C2042 1.574 . S
C2025 C2044 1.368 . S
C2025 H2049 0.949 . S
H2026 C2030 0.949 . S
C2027 C2028 1.349 . S
C2027 C2029 1.327 . S
C2027 H2050 0.950 . S
C2028 C2027 1.349 . S
C2028 C2040 1.349 . S
C2029 C2027 1.327 . S
C2029 C2045 1.429 . S
C2029 H2051 0.950 . S
C2030 H2026 0.949 . S
C2030 C2038 1.574 . S
C2030 C2046 1.368 . S
H2031 C2039 0.950 . S
H2032 C2037 0.950 . S
H2033 C2038 0.949 . S
H2034 C2040 0.950 . S
H2035 C2041 0.950 . S
H2036 C2042 0.949 . S
C2037 H2032 0.950 . S
C2037 C2039 1.327 . S
C2037 C2043 1.429 . S
C2038 C2030 1.574 . S
C2038 H2033 0.949 . S
C2038 C2044 1.368 . S
C2039 C2023 1.349 . S
C2039 H2031 0.950 . S
C2039 C2037 1.327 . S
C2040 C2028 1.349 . S
C2040 H2034 0.950 . S
C2040 C2041 1.327 . S
C2041 H2035 0.950 . S
C2041 C2040 1.327 . S
C2041 C2045 1.429 . S
C2042 C2025 1.574 . S
C2042 H2036 0.949 . S
C2042 C2046 1.368 . S
C2043 C2024 1.429 . S
C2043 C2037 1.429 . S
C2043 C2044 1.523 . S
C2044 C2025 1.368 . S
C2044 C2038 1.368 . S
C2044 C2043 1.523 . S
C2045 C2029 1.429 . S
C2045 C2041 1.429 . S
C2045 C2046 1.523 . S
C2046 C2030 1.368 . S
C2046 C2042 1.368 . S
C2046 C2045 1.523 . S
H2047 C2022 0.950 . S
H2048 C2024 0.950 . S
H2049 C2025 0.949 . S
H2050 C2027 0.950 . S
H2051 C2029 0.950 . S
C2052 C2053 1.349 . S
C2052 C2054 1.327 . S
C2052 H2077 0.950 . S
C2053 C2052 1.349 . S
C2053 C2069 1.349 . S
C2054 C2052 1.327 . S
C2054 C2073 1.429 . S
C2054 H2078 0.950 . S
C2055 C2072 1.574 . S
C2055 C2074 1.368 . S
C2055 H2079 0.949 . S
H2056 C2060 0.949 . S
C2057 C2058 1.349 . S
C2057 C2059 1.327 . S
C2057 H2080 0.950 . S
C2058 C2057 1.349 . S
C2058 C2070 1.349 . S
C2059 C2057 1.327 . S
C2059 C2075 1.429 . S
C2059 H2081 0.950 . S
C2060 H2056 0.949 . S
C2060 C2068 1.574 . S
C2060 C2076 1.368 . S
H2061 C2069 0.950 . S
H2062 C2067 0.950 . S
H2063 C2068 0.949 . S
H2064 C2070 0.950 . S
H2065 C2071 0.950 . S
H2066 C2072 0.949 . S
C2067 H2062 0.950 . S
C2067 C2069 1.327 . S
C2067 C2073 1.429 . S
C2068 C2060 1.574 . S
C2068 H2063 0.949 . S
C2068 C2074 1.368 . S
C2069 C2053 1.349 . S
C2069 H2061 0.950 . S
C2069 C2067 1.327 . S
C2070 C2058 1.349 . S
C2070 H2064 0.950 . S
C2070 C2071 1.327 . S
C2071 H2065 0.950 . S
C2071 C2070 1.327 . S
C2071 C2075 1.429 . S
C2072 C2055 1.574 . S
C2072 H2066 0.949 . S
C2072 C2076 1.368 . S
C2073 C2054 1.429 . S
C2073 C2067 1.429 . S
C2073 C2074 1.523 . S
C2074 C2055 1.368 . S
C2074 C2068 1.368 . S
C2074 C2073 1.523 . S
C2075 C2059 1.429 . S
C2075 C2071 1.429 . S
C2075 C2076 1.523 . S
C2076 C2060 1.368 . S
C2076 C2072 1.368 . S
C2076 C2075 1.523 . S
H2077 C2052 0.950 . S
H2078 C2054 0.950 . S
H2079 C2055 0.949 . S
H2080 C2057 0.950 . S
H2081 C2059 0.950 . S
C2082 C2083 1.349 . S
C2082 C2084 1.327 . S
C2082 H2107 0.950 . S
C2083 C2082 1.349 . S
C2083 C2099 1.349 . S
C2084 C2082 1.327 . S
C2084 C2103 1.429 . S
C2084 H2108 0.950 . S
C2085 C2102 1.574 . S
C2085 C2104 1.368 . S
C2085 H2109 0.949 . S
H2086 C2090 0.949 . S
C2087 C2088 1.349 . S
C2087 C2089 1.327 . S
C2087 H2110 0.950 . S
C2088 C2087 1.349 . S
C2088 C2100 1.349 . S
C2089 C2087 1.327 . S
C2089 C2105 1.429 . S
C2089 H2111 0.950 . S
C2090 H2086 0.949 . S
C2090 C2098 1.574 . S
C2090 C2106 1.368 . S
H2091 C2099 0.950 . S
H2092 C2097 0.950 . S
H2093 C2098 0.949 . S
H2094 C2100 0.950 . S
H2095 C2101 0.950 . S
H2096 C2102 0.949 . S
C2097 H2092 0.950 . S
C2097 C2099 1.327 . S
C2097 C2103 1.429 . S
C2098 C2090 1.574 . S
C2098 H2093 0.949 . S
C2098 C2104 1.368 . S
C2099 C2083 1.349 . S
C2099 H2091 0.950 . S
C2099 C2097 1.327 . S
C2100 C2088 1.349 . S
C2100 H2094 0.950 . S
C2100 C2101 1.327 . S
C2101 H2095 0.950 . S
C2101 C2100 1.327 . S
C2101 C2105 1.429 . S
C2102 C2085 1.574 . S
C2102 H2096 0.949 . S
C2102 C2106 1.368 . S
C2103 C2084 1.429 . S
C2103 C2097 1.429 . S
C2103 C2104 1.523 . S
C2104 C2085 1.368 . S
C2104 C2098 1.368 . S
C2104 C2103 1.523 . S
C2105 C2089 1.429 . S
C2105 C2101 1.429 . S
C2105 C2106 1.523 . S
C2106 C2090 1.368 . S
C2106 C2102 1.368 . S
C2106 C2105 1.523 . S
H2107 C2082 0.950 . S
H2108 C2084 0.950 . S
H2109 C2085 0.949 . S
H2110 C2087 0.950 . S
H2111 C2089 0.950 . S
C2112 C2113 1.349 . S
C2112 C2114 1.327 . S
C2112 H2137 0.950 . S
C2113 C2112 1.349 . S
C2113 C2129 1.349 . S
C2114 C2112 1.327 . S
C2114 C2133 1.429 . S
C2114 H2138 0.950 . S
C2115 C2132 1.574 . S
C2115 C2134 1.368 . S
C2115 H2139 0.949 . S
H2116 C2120 0.949 . S
C2117 C2118 1.349 . S
C2117 C2119 1.327 . S
C2117 H2140 0.950 . S
C2118 C2117 1.349 . S
C2118 C2130 1.349 . S
C2119 C2117 1.327 . S
C2119 C2135 1.429 . S
C2119 H2141 0.950 . S
C2120 H2116 0.949 . S
C2120 C2128 1.574 . S
C2120 C2136 1.368 . S
H2121 C2129 0.950 . S
H2122 C2127 0.950 . S
H2123 C2128 0.949 . S
H2124 C2130 0.950 . S
H2125 C2131 0.950 . S
H2126 C2132 0.949 . S
C2127 H2122 0.950 . S
C2127 C2129 1.327 . S
C2127 C2133 1.429 . S
C2128 C2120 1.574 . S
C2128 H2123 0.949 . S
C2128 C2134 1.368 . S
C2129 C2113 1.349 . S
C2129 H2121 0.950 . S
C2129 C2127 1.327 . S
C2130 C2118 1.349 . S
C2130 H2124 0.950 . S
C2130 C2131 1.327 . S
C2131 H2125 0.950 . S
C2131 C2130 1.327 . S
C2131 C2135 1.429 . S
C2132 C2115 1.574 . S
C2132 H2126 0.949 . S
C2132 C2136 1.368 . S
C2133 C2114 1.429 . S
C2133 C2127 1.429 . S
C2133 C2134 1.523 . S
C2134 C2115 1.368 . S
C2134 C2128 1.368 . S
C2134 C2133 1.523 . S
C2135 C2119 1.429 . S
C2135 C2131 1.429 . S
C2135 C2136 1.523 . S
C2136 C2120 1.368 . S
C2136 C2132 1.368 . S
C2136 C2135 1.523 . S
H2137 C2112 0.950 . S
H2138 C2114 0.950 . S
H2139 C2115 0.949 . S
H2140 C2117 0.950 . S
H2141 C2119 0.950 . S
C2142 C2143 1.349 . S
C2142 C2144 1.327 . S
C2142 H2167 0.950 . S
C2143 C2142 1.349 . S
C2143 C2159 1.349 . S
C2144 C2142 1.327 . S
C2144 C2163 1.429 . S
C2144 H2168 0.950 . S
C2145 C2162 1.574 . S
C2145 C2164 1.368 . S
C2145 H2169 0.949 . S
H2146 C2150 0.949 . S
C2147 C2148 1.349 . S
C2147 C2149 1.327 . S
C2147 H2170 0.950 . S
C2148 C2147 1.349 . S
C2148 C2160 1.349 . S
C2149 C2147 1.327 . S
C2149 C2165 1.429 . S
C2149 H2171 0.950 . S
C2150 H2146 0.949 . S
C2150 C2158 1.574 . S
C2150 C2166 1.368 . S
H2151 C2159 0.950 . S
H2152 C2157 0.950 . S
H2153 C2158 0.949 . S
H2154 C2160 0.950 . S
H2155 C2161 0.950 . S
H2156 C2162 0.949 . S
C2157 H2152 0.950 . S
C2157 C2159 1.327 . S
C2157 C2163 1.429 . S
C2158 C2150 1.574 . S
C2158 H2153 0.949 . S
C2158 C2164 1.368 . S
C2159 C2143 1.349 . S
C2159 H2151 0.950 . S
C2159 C2157 1.327 . S
C2160 C2148 1.349 . S
C2160 H2154 0.950 . S
C2160 C2161 1.327 . S
C2161 H2155 0.950 . S
C2161 C2160 1.327 . S
C2161 C2165 1.429 . S
C2162 C2145 1.574 . S
C2162 H2156 0.949 . S
C2162 C2166 1.368 . S
C2163 C2144 1.429 . S
C2163 C2157 1.429 . S
C2163 C2164 1.523 . S
C2164 C2145 1.368 . S
C2164 C2158 1.368 . S
C2164 C2163 1.523 . S
C2165 C2149 1.429 . S
C2165 C2161 1.429 . S
C2165 C2166 1.523 . S
C2166 C2150 1.368 . S
C2166 C2162 1.368 . S
C2166 C2165 1.523 . S
H2167 C2142 0.950 . S
H2168 C2144 0.950 . S
H2169 C2145 0.949 . S
H2170 C2147 0.950 . S
H2171 C2149 0.950 . S
C2172 C2173 1.349 . S
C2172 C2174 1.327 . S
C2172 H2197 0.950 . S
C2173 C2172 1.349 . S
C2173 C2189 1.349 . S
C2174 C2172 1.327 . S
C2174 C2193 1.429 . S
C2174 H2198 0.950 . S
C2175 C2192 1.574 . S
C2175 C2194 1.368 . S
C2175 H2199 0.949 . S
H2176 C2180 0.949 . S
C2177 C2178 1.349 . S
C2177 C2179 1.327 . S
C2177 H2200 0.950 . S
C2178 C2177 1.349 . S
C2178 C2190 1.349 . S
C2179 C2177 1.327 . S
C2179 C2195 1.429 . S
C2179 H2201 0.950 . S
C2180 H2176 0.949 . S
C2180 C2188 1.574 . S
C2180 C2196 1.368 . S
H2181 C2189 0.950 . S
H2182 C2187 0.950 . S
H2183 C2188 0.949 . S
H2184 C2190 0.950 . S
H2185 C2191 0.950 . S
H2186 C2192 0.949 . S
C2187 H2182 0.950 . S
C2187 C2189 1.327 . S
C2187 C2193 1.429 . S
C2188 C2180 1.574 . S
C2188 H2183 0.949 . S
C2188 C2194 1.368 . S
C2189 C2173 1.349 . S
C2189 H2181 0.950 . S
C2189 C2187 1.327 . S
C2190 C2178 1.349 . S
C2190 H2184 0.950 . S
C2190 C2191 1.327 . S
C2191 H2185 0.950 . S
C2191 C2190 1.327 . S
C2191 C2195 1.429 . S
C2192 C2175 1.574 . S
C2192 H2186 0.949 . S
C2192 C2196 1.368 . S
C2193 C2174 1.429 . S
C2193 C2187 1.429 . S
C2193 C2194 1.523 . S
C2194 C2175 1.368 . S
C2194 C2188 1.368 . S
C2194 C2193 1.523 . S
C2195 C2179 1.429 . S
C2195 C2191 1.429 . S
C2195 C2196 1.523 . S
C2196 C2180 1.368 . S
C2196 C2192 1.368 . S
C2196 C2195 1.523 . S
H2197 C2172 0.950 . S
H2198 C2174 0.950 . S
H2199 C2175 0.949 . S
H2200 C2177 0.950 . S
H2201 C2179 0.950 . S
C2202 C2203 1.349 . S
C2202 C2204 1.327 . S
C2202 H2227 0.950 . S
C2203 C2202 1.349 . S
C2203 C2219 1.349 . S
C2204 C2202 1.327 . S
C2204 C2223 1.429 . S
C2204 H2228 0.950 . S
C2205 C2222 1.574 . S
C2205 C2224 1.368 . S
C2205 H2229 0.949 . S
H2206 C2210 0.949 . S
C2207 C2208 1.349 . S
C2207 C2209 1.327 . S
C2207 H2230 0.950 . S
C2208 C2207 1.349 . S
C2208 C2220 1.349 . S
C2209 C2207 1.327 . S
C2209 C2225 1.429 . S
C2209 H2231 0.950 . S
C2210 H2206 0.949 . S
C2210 C2218 1.574 . S
C2210 C2226 1.368 . S
H2211 C2219 0.950 . S
H2212 C2217 0.950 . S
H2213 C2218 0.949 . S
H2214 C2220 0.950 . S
H2215 C2221 0.950 . S
H2216 C2222 0.949 . S
C2217 H2212 0.950 . S
C2217 C2219 1.327 . S
C2217 C2223 1.429 . S
C2218 C2210 1.574 . S
C2218 H2213 0.949 . S
C2218 C2224 1.368 . S
C2219 C2203 1.349 . S
C2219 H2211 0.950 . S
C2219 C2217 1.327 . S
C2220 C2208 1.349 . S
C2220 H2214 0.950 . S
C2220 C2221 1.327 . S
C2221 H2215 0.950 . S
C2221 C2220 1.327 . S
C2221 C2225 1.429 . S
C2222 C2205 1.574 . S
C2222 H2216 0.949 . S
C2222 C2226 1.368 . S
C2223 C2204 1.429 . S
C2223 C2217 1.429 . S
C2223 C2224 1.523 . S
C2224 C2205 1.368 . S
C2224 C2218 1.368 . S
C2224 C2223 1.523 . S
C2225 C2209 1.429 . S
C2225 C2221 1.429 . S
C2225 C2226 1.523 . S
C2226 C2210 1.368 . S
C2226 C2222 1.368 . S
C2226 C2225 1.523 . S
H2227 C2202 0.950 . S
H2228 C2204 0.950 . S
H2229 C2205 0.949 . S
H2230 C2207 0.950 . S
H2231 C2209 0.950 . S
C2232 C2233 1.349 . S
C2232 C2234 1.327 . S
C2232 H2257 0.950 . S
C2233 C2232 1.349 . S
C2233 C2249 1.349 . S
C2234 C2232 1.327 . S
C2234 C2253 1.429 . S
C2234 H2258 0.950 . S
C2235 C2252 1.574 . S
C2235 C2254 1.368 . S
C2235 H2259 0.949 . S
H2236 C2240 0.949 . S
C2237 C2238 1.349 . S
C2237 C2239 1.327 . S
C2237 H2260 0.950 . S
C2238 C2237 1.349 . S
C2238 C2250 1.349 . S
C2239 C2237 1.327 . S
C2239 C2255 1.429 . S
C2239 H2261 0.950 . S
C2240 H2236 0.949 . S
C2240 C2248 1.574 . S
C2240 C2256 1.368 . S
H2241 C2249 0.950 . S
H2242 C2247 0.950 . S
H2243 C2248 0.949 . S
H2244 C2250 0.950 . S
H2245 C2251 0.950 . S
H2246 C2252 0.949 . S
C2247 H2242 0.950 . S
C2247 C2249 1.327 . S
C2247 C2253 1.429 . S
C2248 C2240 1.574 . S
C2248 H2243 0.949 . S
C2248 C2254 1.368 . S
C2249 C2233 1.349 . S
C2249 H2241 0.950 . S
C2249 C2247 1.327 . S
C2250 C2238 1.349 . S
C2250 H2244 0.950 . S
C2250 C2251 1.327 . S
C2251 H2245 0.950 . S
C2251 C2250 1.327 . S
C2251 C2255 1.429 . S
C2252 C2235 1.574 . S
C2252 H2246 0.949 . S
C2252 C2256 1.368 . S
C2253 C2234 1.429 . S
C2253 C2247 1.429 . S
C2253 C2254 1.523 . S
C2254 C2235 1.368 . S
C2254 C2248 1.368 . S
C2254 C2253 1.523 . S
C2255 C2239 1.429 . S
C2255 C2251 1.429 . S
C2255 C2256 1.523 . S
C2256 C2240 1.368 . S
C2256 C2252 1.368 . S
C2256 C2255 1.523 . S
H2257 C2232 0.950 . S
H2258 C2234 0.950 . S
H2259 C2235 0.949 . S
H2260 C2237 0.950 . S
H2261 C2239 0.950 . S
C2262 C2263 1.349 . S
C2262 C2264 1.327 . S
C2262 H2287 0.950 . S
C2263 C2262 1.349 . S
C2263 C2279 1.349 . S
C2264 C2262 1.327 . S
C2264 C2283 1.429 . S
C2264 H2288 0.950 . S
C2265 C2282 1.574 . S
C2265 C2284 1.368 . S
C2265 H2289 0.949 . S
H2266 C2270 0.949 . S
C2267 C2268 1.349 . S
C2267 C2269 1.327 . S
C2267 H2290 0.950 . S
C2268 C2267 1.349 . S
C2268 C2280 1.349 . S
C2269 C2267 1.327 . S
C2269 C2285 1.429 . S
C2269 H2291 0.950 . S
C2270 H2266 0.949 . S
C2270 C2278 1.574 . S
C2270 C2286 1.368 . S
H2271 C2279 0.950 . S
H2272 C2277 0.950 . S
H2273 C2278 0.949 . S
H2274 C2280 0.950 . S
H2275 C2281 0.950 . S
H2276 C2282 0.949 . S
C2277 H2272 0.950 . S
C2277 C2279 1.327 . S
C2277 C2283 1.429 . S
C2278 C2270 1.574 . S
C2278 H2273 0.949 . S
C2278 C2284 1.368 . S
C2279 C2263 1.349 . S
C2279 H2271 0.950 . S
C2279 C2277 1.327 . S
C2280 C2268 1.349 . S
C2280 H2274 0.950 . S
C2280 C2281 1.327 . S
C2281 H2275 0.950 . S
C2281 C2280 1.327 . S
C2281 C2285 1.429 . S
C2282 C2265 1.574 . S
C2282 H2276 0.949 . S
C2282 C2286 1.368 . S
C2283 C2264 1.429 . S
C2283 C2277 1.429 . S
C2283 C2284 1.523 . S
C2284 C2265 1.368 . S
C2284 C2278 1.368 . S
C2284 C2283 1.523 . S
C2285 C2269 1.429 . S
C2285 C2281 1.429 . S
C2285 C2286 1.523 . S
C2286 C2270 1.368 . S
C2286 C2282 1.368 . S
C2286 C2285 1.523 . S
H2287 C2262 0.950 . S
H2288 C2264 0.950 . S
H2289 C2265 0.949 . S
H2290 C2267 0.950 . S
H2291 C2269 0.950 . S
C2292 C2293 1.349 . S
C2292 C2294 1.327 . S
C2292 H2317 0.950 . S
C2293 C2292 1.349 . S
C2293 C2309 1.349 . S
C2294 C2292 1.327 . S
C2294 C2313 1.429 . S
C2294 H2318 0.950 . S
C2295 C2312 1.574 . S
C2295 C2314 1.368 . S
C2295 H2319 0.949 . S
H2296 C2300 0.949 . S
C2297 C2298 1.349 . S
C2297 C2299 1.327 . S
C2297 H2320 0.950 . S
C2298 C2297 1.349 . S
C2298 C2310 1.349 . S
C2299 C2297 1.327 . S
C2299 C2315 1.429 . S
C2299 H2321 0.950 . S
C2300 H2296 0.949 . S
C2300 C2308 1.574 . S
C2300 C2316 1.368 . S
H2301 C2309 0.950 . S
H2302 C2307 0.950 . S
H2303 C2308 0.949 . S
H2304 C2310 0.950 . S
H2305 C2311 0.950 . S
H2306 C2312 0.949 . S
C2307 H2302 0.950 . S
C2307 C2309 1.327 . S
C2307 C2313 1.429 . S
C2308 C2300 1.574 . S
C2308 H2303 0.949 . S
C2308 C2314 1.368 . S
C2309 C2293 1.349 . S
C2309 H2301 0.950 . S
C2309 C2307 1.327 . S
C2310 C2298 1.349 . S
C2310 H2304 0.950 . S
C2310 C2311 1.327 . S
C2311 H2305 0.950 . S
C2311 C2310 1.327 . S
C2311 C2315 1.429 . S
C2312 C2295 1.574 . S
C2312 H2306 0.949 . S
C2312 C2316 1.368 . S
C2313 C2294 1.429 . S
C2313 C2307 1.429 . S
C2313 C2314 1.523 . S
C2314 C2295 1.368 . S
C2314 C2308 1.368 . S
C2314 C2313 1.523 . S
C2315 C2299 1.429 . S
C2315 C2311 1.429 . S
C2315 C2316 1.523 . S
C2316 C2300 1.368 . S
C2316 C2312 1.368 . S
C2316 C2315 1.523 . S
H2317 C2292 0.950 . S
H2318 C2294 0.950 . S
H2319 C2295 0.949 . S
H2320 C2297 0.950 . S
H2321 C2299 0.950 . S
C2322 C2323 1.349 . S
C2322 C2324 1.327 . S
C2322 H2347 0.950 . S
C2323 C2322 1.349 . S
C2323 C2339 1.349 . S
C2324 C2322 1.327 . S
C2324 C2343 1.429 . S
C2324 H2348 0.950 . S
C2325 C2342 1.574 . S
C2325 C2344 1.368 . S
C2325 H2349 0.949 . S
H2326 C2330 0.949 . S
C2327 C2328 1.349 . S
C2327 C2329 1.327 . S
C2327 H2350 0.950 . S
C2328 C2327 1.349 . S
C2328 C2340 1.349 . S
C2329 C2327 1.327 . S
C2329 C2345 1.429 . S
C2329 H2351 0.950 . S
C2330 H2326 0.949 . S
C2330 C2338 1.574 . S
C2330 C2346 1.368 . S
H2331 C2339 0.950 . S
H2332 C2337 0.950 . S
H2333 C2338 0.949 . S
H2334 C2340 0.950 . S
H2335 C2341 0.950 . S
H2336 C2342 0.949 . S
C2337 H2332 0.950 . S
C2337 C2339 1.327 . S
C2337 C2343 1.429 . S
C2338 C2330 1.574 . S
C2338 H2333 0.949 . S
C2338 C2344 1.368 . S
C2339 C2323 1.349 . S
C2339 H2331 0.950 . S
C2339 C2337 1.327 . S
C2340 C2328 1.349 . S
C2340 H2334 0.950 . S
C2340 C2341 1.327 . S
C2341 H2335 0.950 . S
C2341 C2340 1.327 . S
C2341 C2345 1.429 . S
C2342 C2325 1.574 . S
C2342 H2336 0.949 . S
C2342 C2346 1.368 . S
C2343 C2324 1.429 . S
C2343 C2337 1.429 . S
C2343 C2344 1.523 . S
C2344 C2325 1.368 . S
C2344 C2338 1.368 . S
C2344 C2343 1.523 . S
C2345 C2329 1.429 . S
C2345 C2341 1.429 . S
C2345 C2346 1.523 . S
C2346 C2330 1.368 . S
C2346 C2342 1.368 . S
C2346 C2345 1.523 . S
H2347 C2322 0.950 . S
H2348 C2324 0.950 . S
H2349 C2325 0.949 . S
H2350 C2327 0.950 . S
H2351 C2329 0.950 . S
C2352 C2353 1.349 . S
C2352 C2354 1.327 . S
C2352 H2377 0.950 . S
C2353 C2352 1.349 . S
C2353 C2369 1.349 . S
C2354 C2352 1.327 . S
C2354 C2373 1.429 . S
C2354 H2378 0.950 . S
C2355 C2372 1.574 . S
C2355 C2374 1.368 . S
C2355 H2379 0.949 . S
H2356 C2360 0.949 . S
C2357 C2358 1.349 . S
C2357 C2359 1.327 . S
C2357 H2380 0.950 . S
C2358 C2357 1.349 . S
C2358 C2370 1.349 . S
C2359 C2357 1.327 . S
C2359 C2375 1.429 . S
C2359 H2381 0.950 . S
C2360 H2356 0.949 . S
C2360 C2368 1.574 . S
C2360 C2376 1.368 . S
H2361 C2369 0.950 . S
H2362 C2367 0.950 . S
H2363 C2368 0.949 . S
H2364 C2370 0.950 . S
H2365 C2371 0.950 . S
H2366 C2372 0.949 . S
C2367 H2362 0.950 . S
C2367 C2369 1.327 . S
C2367 C2373 1.429 . S
C2368 C2360 1.574 . S
C2368 H2363 0.949 . S
C2368 C2374 1.368 . S
C2369 C2353 1.349 . S
C2369 H2361 0.950 . S
C2369 C2367 1.327 . S
C2370 C2358 1.349 . S
C2370 H2364 0.950 . S
C2370 C2371 1.327 . S
C2371 H2365 0.950 . S
C2371 C2370 1.327 . S
C2371 C2375 1.429 . S
C2372 C2355 1.574 . S
C2372 H2366 0.949 . S
C2372 C2376 1.368 . S
C2373 C2354 1.429 . S
C2373 C2367 1.429 . S
C2373 C2374 1.523 . S
C2374 C2355 1.368 . S
C2374 C2368 1.368 . S
C2374 C2373 1.523 . S
C2375 C2359 1.429 . S
C2375 C2371 1.429 . S
C2375 C2376 1.523 . S
C2376 C2360 1.368 . S
C2376 C2372 1.368 . S
C2376 C2375 1.523 . S
H2377 C2352 0.950 . S
H2378 C2354 0.950 . S
H2379 C2355 0.949 . S
H2380 C2357 0.950 . S
H2381 C2359 0.950 . S
C2382 C2383 1.349 . S
C2382 C2384 1.327 . S
C2382 H2407 0.950 . S
C2383 C2382 1.349 . S
C2383 C2399 1.349 . S
C2384 C2382 1.327 . S
C2384 C2403 1.429 . S
C2384 H2408 0.950 . S
C2385 C2402 1.574 . S
C2385 C2404 1.368 . S
C2385 H2409 0.949 . S
H2386 C2390 0.949 . S
C2387 C2388 1.349 . S
C2387 C2389 1.327 . S
C2387 H2410 0.950 . S
C2388 C2387 1.349 . S
C2388 C2400 1.349 . S
C2389 C2387 1.327 . S
C2389 C2405 1.429 . S
C2389 H2411 0.950 . S
C2390 H2386 0.949 . S
C2390 C2398 1.574 . S
C2390 C2406 1.368 . S
H2391 C2399 0.950 . S
H2392 C2397 0.950 . S
H2393 C2398 0.949 . S
H2394 C2400 0.950 . S
H2395 C2401 0.950 . S
H2396 C2402 0.949 . S
C2397 H2392 0.950 . S
C2397 C2399 1.327 . S
C2397 C2403 1.429 . S
C2398 C2390 1.574 . S
C2398 H2393 0.949 . S
C2398 C2404 1.368 . S
C2399 C2383 1.349 . S
C2399 H2391 0.950 . S
C2399 C2397 1.327 . S
C2400 C2388 1.349 . S
C2400 H2394 0.950 . S
C2400 C2401 1.327 . S
C2401 H2395 0.950 . S
C2401 C2400 1.327 . S
C2401 C2405 1.429 . S
C2402 C2385 1.574 . S
C2402 H2396 0.949 . S
C2402 C2406 1.368 . S
C2403 C2384 1.429 . S
C2403 C2397 1.429 . S
C2403 C2404 1.523 . S
C2404 C2385 1.368 . S
C2404 C2398 1.368 . S
C2404 C2403 1.523 . S
C2405 C2389 1.429 . S
C2405 C2401 1.429 . S
C2405 C2406 1.523 . S
C2406 C2390 1.368 . S
C2406 C2402 1.368 . S
C2406 C2405 1.523 . S
H2407 C2382 0.950 . S
H2408 C2384 0.950 . S
H2409 C2385 0.949 . S
H2410 C2387 0.950 . S
H2411 C2389 0.950 . S
C2412 C2413 1.349 . S
C2412 C2414 1.327 . S
C2412 H2437 0.950 . S
C2413 C2412 1.349 . S
C2413 C2429 1.349 . S
C2414 C2412 1.327 . S
C2414 C2433 1.429 . S
C2414 H2438 0.950 . S
C2415 C2432 1.574 . S
C2415 C2434 1.368 . S
C2415 H2439 0.949 . S
H2416 C2420 0.949 . S
C2417 C2418 1.349 . S
C2417 C2419 1.327 . S
C2417 H2440 0.950 . S
C2418 C2417 1.349 . S
C2418 C2430 1.349 . S
C2419 C2417 1.327 . S
C2419 C2435 1.429 . S
C2419 H2441 0.950 . S
C2420 H2416 0.949 . S
C2420 C2428 1.574 . S
C2420 C2436 1.368 . S
H2421 C2429 0.950 . S
H2422 C2427 0.950 . S
H2423 C2428 0.949 . S
H2424 C2430 0.950 . S
H2425 C2431 0.950 . S
H2426 C2432 0.949 . S
C2427 H2422 0.950 . S
C2427 C2429 1.327 . S
C2427 C2433 1.429 . S
C2428 C2420 1.574 . S
C2428 H2423 0.949 . S
C2428 C2434 1.368 . S
C2429 C2413 1.349 . S
C2429 H2421 0.950 . S
C2429 C2427 1.327 . S
C2430 C2418 1.349 . S
C2430 H2424 0.950 . S
C2430 C2431 1.327 . S
C2431 H2425 0.950 . S
C2431 C2430 1.327 . S
C2431 C2435 1.429 . S
C2432 C2415 1.574 . S
C2432 H2426 0.949 . S
C2432 C2436 1.368 . S
C2433 C2414 1.429 . S
C2433 C2427 1.429 . S
C2433 C2434 1.523 . S
C2434 C2415 1.368 . S
C2434 C2428 1.368 . S
C2434 C2433 1.523 . S
C2435 C2419 1.429 . S
C2435 C2431 1.429 . S
C2435 C2436 1.523 . S
C2436 C2420 1.368 . S
C2436 C2432 1.368 . S
C2436 C2435 1.523 . S
H2437 C2412 0.950 . S
H2438 C2414 0.950 . S
H2439 C2415 0.949 . S
H2440 C2417 0.950 . S
H2441 C2419 0.950 . S
C2442 C2443 1.349 . S
C2442 C2444 1.327 . S
C2442 H2467 0.950 . S
C2443 C2442 1.349 . S
C2443 C2459 1.349 . S
C2444 C2442 1.327 . S
C2444 C2463 1.429 . S
C2444 H2468 0.950 . S
C2445 C2462 1.574 . S
C2445 C2464 1.368 . S
C2445 H2469 0.949 . S
H2446 C2450 0.949 . S
C2447 C2448 1.349 . S
C2447 C2449 1.327 . S
C2447 H2470 0.950 . S
C2448 C2447 1.349 . S
C2448 C2460 1.349 . S
C2449 C2447 1.327 . S
C2449 C2465 1.429 . S
C2449 H2471 0.950 . S
C2450 H2446 0.949 . S
C2450 C2458 1.574 . S
C2450 C2466 1.368 . S
H2451 C2459 0.950 . S
H2452 C2457 0.950 . S
H2453 C2458 0.949 . S
H2454 C2460 0.950 . S
H2455 C2461 0.950 . S
H2456 C2462 0.949 . S
C2457 H2452 0.950 . S
C2457 C2459 1.327 . S
C2457 C2463 1.429 . S
C2458 C2450 1.574 . S
C2458 H2453 0.949 . S
C2458 C2464 1.368 . S
C2459 C2443 1.349 . S
C2459 H2451 0.950 . S
C2459 C2457 1.327 . S
C2460 C2448 1.349 . S
C2460 H2454 0.950 . S
C2460 C2461 1.327 . S
C2461 H2455 0.950 . S
C2461 C2460 1.327 . S
C2461 C2465 1.429 . S
C2462 C2445 1.574 . S
C2462 H2456 0.949 . S
C2462 C2466 1.368 . S
C2463 C2444 1.429 . S
C2463 C2457 1.429 . S
C2463 C2464 1.523 . S
C2464 C2445 1.368 . S
C2464 C2458 1.368 . S
C2464 C2463 1.523 . S
C2465 C2449 1.429 . S
C2465 C2461 1.429 . S
C2465 C2466 1.523 . S
C2466 C2450 1.368 . S
C2466 C2462 1.368 . S
C2466 C2465 1.523 . S
H2467 C2442 0.950 . S
H2468 C2444 0.950 . S
H2469 C2445 0.949 . S
H2470 C2447 0.950 . S
H2471 C2449 0.950 . S
C2472 C2473 1.349 . S
C2472 C2474 1.327 . S
C2472 H2497 0.950 . S
C2473 C2472 1.349 . S
C2473 C2489 1.349 . S
C2474 C2472 1.327 . S
C2474 C2493 1.429 . S
C2474 H2498 0.950 . S
C2475 C2492 1.574 . S
C2475 C2494 1.368 . S
C2475 H2499 0.949 . S
H2476 C2480 0.949 . S
C2477 C2478 1.349 . S
C2477 C2479 1.327 . S
C2477 H2500 0.950 . S
C2478 C2477 1.349 . S
C2478 C2490 1.349 . S
C2479 C2477 1.327 . S
C2479 C2495 1.429 . S
C2479 H2501 0.950 . S
C2480 H2476 0.949 . S
C2480 C2488 1.574 . S
C2480 C2496 1.368 . S
H2481 C2489 0.950 . S
H2482 C2487 0.950 . S
H2483 C2488 0.949 . S
H2484 C2490 0.950 . S
H2485 C2491 0.950 . S
H2486 C2492 0.949 . S
C2487 H2482 0.950 . S
C2487 C2489 1.327 . S
C2487 C2493 1.429 . S
C2488 C2480 1.574 . S
C2488 H2483 0.949 . S
C2488 C2494 1.368 . S
C2489 C2473 1.349 . S
C2489 H2481 0.950 . S
C2489 C2487 1.327 . S
C2490 C2478 1.349 . S
C2490 H2484 0.950 . S
C2490 C2491 1.327 . S
C2491 H2485 0.950 . S
C2491 C2490 1.327 . S
C2491 C2495 1.429 . S
C2492 C2475 1.574 . S
C2492 H2486 0.949 . S
C2492 C2496 1.368 . S
C2493 C2474 1.429 . S
C2493 C2487 1.429 . S
C2493 C2494 1.523 . S
C2494 C2475 1.368 . S
C2494 C2488 1.368 . S
C2494 C2493 1.523 . S
C2495 C2479 1.429 . S
C2495 C2491 1.429 . S
C2495 C2496 1.523 . S
C2496 C2480 1.368 . S
C2496 C2492 1.368 . S
C2496 C2495 1.523 . S
H2497 C2472 0.950 . S
H2498 C2474 0.950 . S
H2499 C2475 0.949 . S
H2500 C2477 0.950 . S
H2501 C2479 0.950 . S
C2502 C2503 1.349 . S
C2502 C2504 1.327 . S
C2502 H2527 0.950 . S
C2503 C2502 1.349 . S
C2503 C2519 1.349 . S
C2504 C2502 1.327 . S
C2504 C2523 1.429 . S
C2504 H2528 0.950 . S
C2505 C2522 1.574 . S
C2505 C2524 1.368 . S
C2505 H2529 0.949 . S
H2506 C2510 0.949 . S
C2507 C2508 1.349 . S
C2507 C2509 1.327 . S
C2507 H2530 0.950 . S
C2508 C2507 1.349 . S
C2508 C2520 1.349 . S
C2509 C2507 1.327 . S
C2509 C2525 1.429 . S
C2509 H2531 0.950 . S
C2510 H2506 0.949 . S
C2510 C2518 1.574 . S
C2510 C2526 1.368 . S
H2511 C2519 0.950 . S
H2512 C2517 0.950 . S
H2513 C2518 0.949 . S
H2514 C2520 0.950 . S
H2515 C2521 0.950 . S
H2516 C2522 0.949 . S
C2517 H2512 0.950 . S
C2517 C2519 1.327 . S
C2517 C2523 1.429 . S
C2518 C2510 1.574 . S
C2518 H2513 0.949 . S
C2518 C2524 1.368 . S
C2519 C2503 1.349 . S
C2519 H2511 0.950 . S
C2519 C2517 1.327 . S
C2520 C2508 1.349 . S
C2520 H2514 0.950 . S
C2520 C2521 1.327 . S
C2521 H2515 0.950 . S
C2521 C2520 1.327 . S
C2521 C2525 1.429 . S
C2522 C2505 1.574 . S
C2522 H2516 0.949 . S
C2522 C2526 1.368 . S
C2523 C2504 1.429 . S
C2523 C2517 1.429 . S
C2523 C2524 1.523 . S
C2524 C2505 1.368 . S
C2524 C2518 1.368 . S
C2524 C2523 1.523 . S
C2525 C2509 1.429 . S
C2525 C2521 1.429 . S
C2525 C2526 1.523 . S
C2526 C2510 1.368 . S
C2526 C2522 1.368 . S
C2526 C2525 1.523 . S
H2527 C2502 0.950 . S
H2528 C2504 0.950 . S
H2529 C2505 0.949 . S
H2530 C2507 0.950 . S
H2531 C2509 0.950 . S
C2532 C2533 1.349 . S
C2532 C2534 1.327 . S
C2532 H2557 0.950 . S
C2533 C2532 1.349 . S
C2533 C2549 1.349 . S
C2534 C2532 1.327 . S
C2534 C2553 1.429 . S
C2534 H2558 0.950 . S
C2535 C2552 1.574 . S
C2535 C2554 1.368 . S
C2535 H2559 0.949 . S
H2536 C2540 0.949 . S
C2537 C2538 1.349 . S
C2537 C2539 1.327 . S
C2537 H2560 0.950 . S
C2538 C2537 1.349 . S
C2538 C2550 1.349 . S
C2539 C2537 1.327 . S
C2539 C2555 1.429 . S
C2539 H2561 0.950 . S
C2540 H2536 0.949 . S
C2540 C2548 1.574 . S
C2540 C2556 1.368 . S
H2541 C2549 0.950 . S
H2542 C2547 0.950 . S
H2543 C2548 0.949 . S
H2544 C2550 0.950 . S
H2545 C2551 0.950 . S
H2546 C2552 0.949 . S
C2547 H2542 0.950 . S
C2547 C2549 1.327 . S
C2547 C2553 1.429 . S
C2548 C2540 1.574 . S
C2548 H2543 0.949 . S
C2548 C2554 1.368 . S
C2549 C2533 1.349 . S
C2549 H2541 0.950 . S
C2549 C2547 1.327 . S
C2550 C2538 1.349 . S
C2550 H2544 0.950 . S
C2550 C2551 1.327 . S
C2551 H2545 0.950 . S
C2551 C2550 1.327 . S
C2551 C2555 1.429 . S
C2552 C2535 1.574 . S
C2552 H2546 0.949 . S
C2552 C2556 1.368 . S
C2553 C2534 1.429 . S
C2553 C2547 1.429 . S
C2553 C2554 1.523 . S
C2554 C2535 1.368 . S
C2554 C2548 1.368 . S
C2554 C2553 1.523 . S
C2555 C2539 1.429 . S
C2555 C2551 1.429 . S
C2555 C2556 1.523 . S
C2556 C2540 1.368 . S
C2556 C2552 1.368 . S
C2556 C2555 1.523 . S
H2557 C2532 0.950 . S
H2558 C2534 0.950 . S
H2559 C2535 0.949 . S
H2560 C2537 0.950 . S
H2561 C2539 0.950 . S
C2562 C2563 1.349 . S
C2562 C2564 1.327 . S
C2562 H2587 0.950 . S
C2563 C2562 1.349 . S
C2563 C2579 1.349 . S
C2564 C2562 1.327 . S
C2564 C2583 1.429 . S
C2564 H2588 0.950 . S
C2565 C2582 1.574 . S
C2565 C2584 1.368 . S
C2565 H2589 0.949 . S
H2566 C2570 0.949 . S
C2567 C2568 1.349 . S
C2567 C2569 1.327 . S
C2567 H2590 0.950 . S
C2568 C2567 1.349 . S
C2568 C2580 1.349 . S
C2569 C2567 1.327 . S
C2569 C2585 1.429 . S
C2569 H2591 0.950 . S
C2570 H2566 0.949 . S
C2570 C2578 1.574 . S
C2570 C2586 1.368 . S
H2571 C2579 0.950 . S
H2572 C2577 0.950 . S
H2573 C2578 0.949 . S
H2574 C2580 0.950 . S
H2575 C2581 0.950 . S
H2576 C2582 0.949 . S
C2577 H2572 0.950 . S
C2577 C2579 1.327 . S
C2577 C2583 1.429 . S
C2578 C2570 1.574 . S
C2578 H2573 0.949 . S
C2578 C2584 1.368 . S
C2579 C2563 1.349 . S
C2579 H2571 0.950 . S
C2579 C2577 1.327 . S
C2580 C2568 1.349 . S
C2580 H2574 0.950 . S
C2580 C2581 1.327 . S
C2581 H2575 0.950 . S
C2581 C2580 1.327 . S
C2581 C2585 1.429 . S
C2582 C2565 1.574 . S
C2582 H2576 0.949 . S
C2582 C2586 1.368 . S
C2583 C2564 1.429 . S
C2583 C2577 1.429 . S
C2583 C2584 1.523 . S
C2584 C2565 1.368 . S
C2584 C2578 1.368 . S
C2584 C2583 1.523 . S
C2585 C2569 1.429 . S
C2585 C2581 1.429 . S
C2585 C2586 1.523 . S
C2586 C2570 1.368 . S
C2586 C2582 1.368 . S
C2586 C2585 1.523 . S
H2587 C2562 0.950 . S
H2588 C2564 0.950 . S
H2589 C2565 0.949 . S
H2590 C2567 0.950 . S
H2591 C2569 0.950 . S
C793 C182 0.812 . S
C798 C17 0.812 . S
C823 C50 0.812 . S
C828 C215 0.812 . S
C853 C83 0.812 . S
C858 C248 0.812 . S
C883 C149 0.812 . S
C888 C116 0.812 . S
C913 C281 0.812 . S
C918 C776 0.812 . S
C943 C710 0.812 . S
C948 C314 0.812 . S
C973 C347 0.812 . S
C978 C743 0.812 . S
C1003 C545 0.812 . S
C1008 C380 0.812 . S
C1033 C413 0.812 . S
C1038 C677 0.812 . S
C1063 C446 0.812 . S
C1068 C578 0.812 . S
C1093 C611 0.812 . S
C1098 C479 0.812 . S
C1123 C512 0.812 . S
C1128 C644 0.812 . S
C1153 N104 1.656 . S
C1158 C28 1.732 . S
C1183 C61 1.732 . S
C1188 N5 1.656 . S
C1213 C94 1.732 . S
C1218 N38 1.656 . S
C1243 N71 1.656 . S
C1248 C127 1.732 . S
C1273 N170 1.656 . S
C1278 C160 1.732 . S
C1303 C193 1.732 . S
C1308 N203 1.656 . S
C1333 N236 1.656 . S
C1338 C226 1.732 . S
C1363 N137 1.656 . S
C1368 C259 1.732 . S
C1393 N599 1.656 . S
C1398 C292 1.732 . S
C1423 C325 1.732 . S
C1428 N632 1.656 . S
C1453 N665 1.656 . S
C1458 C358 1.732 . S
C1483 C391 1.732 . S
C1488 N566 1.656 . S
C1513 N731 1.656 . S
C1518 C424 1.732 . S
C1543 C457 1.732 . S
C1548 N533 1.656 . S
C1573 N764 1.656 . S
C1578 C490 1.732 . S
C1603 C523 1.732 . S
C1608 N698 1.656 . S
C1633 N302 1.656 . S
C1638 C556 1.732 . S
C1663 N500 1.656 . S
C1668 C589 1.732 . S
C1693 C622 1.732 . S
C1698 N401 1.656 . S
C1723 C655 1.732 . S
C1728 N434 1.656 . S
C1753 N467 1.656 . S
C1758 C688 1.732 . S
C1783 N368 1.656 . S
C1788 C721 1.732 . S
C1813 N269 1.656 . S
C1818 C754 1.732 . S
C1843 C787 1.732 . S
C1848 N335 1.656 . S
C1873 C8 1.083 . S
C1878 N542 1.054 . S
C1903 N773 1.054 . S
C1908 C41 1.083 . S
C1933 C74 1.083 . S
C1938 N707 1.054 . S
C1963 N740 1.054 . S
C1968 C107 1.083 . S
C1993 C140 1.083 . S
C1998 N575 1.054 . S
C2023 C173 1.083 . S
C2028 N608 1.054 . S
C2053 N641 1.054 . S
C2058 C206 1.083 . S
C2083 N674 1.054 . S
C2088 C239 1.083 . S
C2113 N14 1.054 . S
C2118 C272 1.083 . S
C2143 C305 1.083 . S
C2148 N47 1.054 . S
C2173 C338 1.083 . S
C2178 N80 1.054 . S
C2203 C371 1.083 . S
C2208 N113 1.054 . S
C2233 C404 1.083 . S
C2238 N146 1.054 . S
C2263 C437 1.083 . S
C2268 N179 1.054 . S
C2293 C470 1.083 . S
C2298 N212 1.054 . S
C2323 C503 1.083 . S
C2328 N245 1.054 . S
C2353 N278 1.054 . S
C2358 C536 1.083 . S
C2383 C569 1.083 . S
C2388 N410 1.054 . S
C2413 C602 1.083 . S
C2418 N443 1.054 . S
C2443 N476 1.054 . S
C2448 C635 1.083 . S
C2473 C668 1.083 . S
C2478 N509 1.054 . S
C2503 N344 1.054 . S
C2508 C701 1.083 . S
C2533 N377 1.054 . S
C2538 C734 1.083 . S
C2563 C767 1.083 . S
C2568 N311 1.054 . S
