# Generated by pormake.
# Topology som, (6)-cn, num edge types: 1
# Building blocks:
#     Node 0, Type 0, BuildingBlock: CUKXOW_clean_sbu_0, # of connection points: 6
#     Node 1, Type 0, BuildingBlock: CUKXOW_clean_sbu_0, # of connection points: 6
#     Node 2, Type 0, BuildingBlock: CUKXOW_clean_sbu_0, # of connection points: 6
#     Node 3, Type 0, BuildingBlock: CUKXOW_clean_sbu_0, # of connection points: 6
#     Node 4, Type 0, BuildingBlock: CUKXOW_clean_sbu_0, # of connection points: 6
#     Node 5, Type 0, BuildingBlock: CUKXOW_clean_sbu_0, # of connection points: 6
#     Node 6, Type 0, BuildingBlock: CUKXOW_clean_sbu_0, # of connection points: 6
#     Node 7, Type 0, BuildingBlock: CUKXOW_clean_sbu_0, # of connection points: 6
#     Node 8, Type 0, BuildingBlock: CUKXOW_clean_sbu_0, # of connection points: 6
#     Node 9, Type 0, BuildingBlock: CUKXOW_clean_sbu_0, # of connection points: 6
#     Node 10, Type 0, BuildingBlock: CUKXOW_clean_sbu_0, # of connection points: 6
#     Node 11, Type 0, BuildingBlock: CUKXOW_clean_sbu_0, # of connection points: 6
#     Node 12, Type 0, BuildingBlock: CUKXOW_clean_sbu_0, # of connection points: 6
#     Node 13, Type 0, BuildingBlock: CUKXOW_clean_sbu_0, # of connection points: 6
#     Node 14, Type 0, BuildingBlock: CUKXOW_clean_sbu_0, # of connection points: 6
#     Node 15, Type 0, BuildingBlock: CUKXOW_clean_sbu_0, # of connection points: 6
#     Node 16, Type 0, BuildingBlock: CUKXOW_clean_sbu_0, # of connection points: 6
#     Node 17, Type 0, BuildingBlock: CUKXOW_clean_sbu_0, # of connection points: 6
#     Node 18, Type 0, BuildingBlock: CUKXOW_clean_sbu_0, # of connection points: 6
#     Node 19, Type 0, BuildingBlock: CUKXOW_clean_sbu_0, # of connection points: 6
#     Node 20, Type 0, BuildingBlock: CUKXOW_clean_sbu_0, # of connection points: 6
#     Node 21, Type 0, BuildingBlock: CUKXOW_clean_sbu_0, # of connection points: 6
#     Node 22, Type 0, BuildingBlock: CUKXOW_clean_sbu_0, # of connection points: 6
#     Node 23, Type 0, BuildingBlock: CUKXOW_clean_sbu_0, # of connection points: 6
#     Node 24, Type 0, BuildingBlock: CUKXOW_clean_sbu_0, # of connection points: 6
#     Node 25, Type 0, BuildingBlock: CUKXOW_clean_sbu_0, # of connection points: 6
#     Node 26, Type 0, BuildingBlock: CUKXOW_clean_sbu_0, # of connection points: 6
#     Node 27, Type 0, BuildingBlock: CUKXOW_clean_sbu_0, # of connection points: 6
#     Node 28, Type 0, BuildingBlock: CUKXOW_clean_sbu_0, # of connection points: 6
#     Node 29, Type 0, BuildingBlock: CUKXOW_clean_sbu_0, # of connection points: 6
#     Node 30, Type 0, BuildingBlock: CUKXOW_clean_sbu_0, # of connection points: 6
#     Node 31, Type 0, BuildingBlock: CUKXOW_clean_sbu_0, # of connection points: 6
#     Edge 32, Type (0, 0), BuildingBlock: EZIPEK_clean_linker_0, # of connection points: 2
#     Edge 33, Type (0, 0), BuildingBlock: EZIPEK_clean_linker_0, # of connection points: 2
#     Edge 34, Type (0, 0), BuildingBlock: EZIPEK_clean_linker_0, # of connection points: 2
#     Edge 35, Type (0, 0), BuildingBlock: EZIPEK_clean_linker_0, # of connection points: 2
#     Edge 36, Type (0, 0), BuildingBlock: EZIPEK_clean_linker_0, # of connection points: 2
#     Edge 37, Type (0, 0), BuildingBlock: EZIPEK_clean_linker_0, # of connection points: 2
#     Edge 38, Type (0, 0), BuildingBlock: EZIPEK_clean_linker_0, # of connection points: 2
#     Edge 39, Type (0, 0), BuildingBlock: EZIPEK_clean_linker_0, # of connection points: 2
#     Edge 40, Type (0, 0), BuildingBlock: EZIPEK_clean_linker_0, # of connection points: 2
#     Edge 41, Type (0, 0), BuildingBlock: EZIPEK_clean_linker_0, # of connection points: 2
#     Edge 42, Type (0, 0), BuildingBlock: EZIPEK_clean_linker_0, # of connection points: 2
#     Edge 43, Type (0, 0), BuildingBlock: EZIPEK_clean_linker_0, # of connection points: 2
#     Edge 44, Type (0, 0), BuildingBlock: EZIPEK_clean_linker_0, # of connection points: 2
#     Edge 45, Type (0, 0), BuildingBlock: EZIPEK_clean_linker_0, # of connection points: 2
#     Edge 46, Type (0, 0), BuildingBlock: EZIPEK_clean_linker_0, # of connection points: 2
#     Edge 47, Type (0, 0), BuildingBlock: EZIPEK_clean_linker_0, # of connection points: 2
#     Edge 48, Type (0, 0), BuildingBlock: EZIPEK_clean_linker_0, # of connection points: 2
#     Edge 49, Type (0, 0), BuildingBlock: EZIPEK_clean_linker_0, # of connection points: 2
#     Edge 50, Type (0, 0), BuildingBlock: EZIPEK_clean_linker_0, # of connection points: 2
#     Edge 51, Type (0, 0), BuildingBlock: EZIPEK_clean_linker_0, # of connection points: 2
#     Edge 52, Type (0, 0), BuildingBlock: EZIPEK_clean_linker_0, # of connection points: 2
#     Edge 53, Type (0, 0), BuildingBlock: EZIPEK_clean_linker_0, # of connection points: 2
#     Edge 54, Type (0, 0), BuildingBlock: EZIPEK_clean_linker_0, # of connection points: 2
#     Edge 55, Type (0, 0), BuildingBlock: EZIPEK_clean_linker_0, # of connection points: 2
#     Edge 56, Type (0, 0), BuildingBlock: EZIPEK_clean_linker_0, # of connection points: 2
#     Edge 57, Type (0, 0), BuildingBlock: EZIPEK_clean_linker_0, # of connection points: 2
#     Edge 58, Type (0, 0), BuildingBlock: EZIPEK_clean_linker_0, # of connection points: 2
#     Edge 59, Type (0, 0), BuildingBlock: EZIPEK_clean_linker_0, # of connection points: 2
#     Edge 60, Type (0, 0), BuildingBlock: EZIPEK_clean_linker_0, # of connection points: 2
#     Edge 61, Type (0, 0), BuildingBlock: EZIPEK_clean_linker_0, # of connection points: 2
#     Edge 62, Type (0, 0), BuildingBlock: EZIPEK_clean_linker_0, # of connection points: 2
#     Edge 63, Type (0, 0), BuildingBlock: EZIPEK_clean_linker_0, # of connection points: 2
#     Edge 64, Type (0, 0), BuildingBlock: EZIPEK_clean_linker_0, # of connection points: 2
#     Edge 65, Type (0, 0), BuildingBlock: EZIPEK_clean_linker_0, # of connection points: 2
#     Edge 66, Type (0, 0), BuildingBlock: EZIPEK_clean_linker_0, # of connection points: 2
#     Edge 67, Type (0, 0), BuildingBlock: EZIPEK_clean_linker_0, # of connection points: 2
#     Edge 68, Type (0, 0), BuildingBlock: EZIPEK_clean_linker_0, # of connection points: 2
#     Edge 69, Type (0, 0), BuildingBlock: EZIPEK_clean_linker_0, # of connection points: 2
#     Edge 70, Type (0, 0), BuildingBlock: EZIPEK_clean_linker_0, # of connection points: 2
#     Edge 71, Type (0, 0), BuildingBlock: EZIPEK_clean_linker_0, # of connection points: 2
#     Edge 72, Type (0, 0), BuildingBlock: EZIPEK_clean_linker_0, # of connection points: 2
#     Edge 73, Type (0, 0), BuildingBlock: EZIPEK_clean_linker_0, # of connection points: 2
#     Edge 74, Type (0, 0), BuildingBlock: EZIPEK_clean_linker_0, # of connection points: 2
#     Edge 75, Type (0, 0), BuildingBlock: EZIPEK_clean_linker_0, # of connection points: 2
#     Edge 76, Type (0, 0), BuildingBlock: EZIPEK_clean_linker_0, # of connection points: 2
#     Edge 77, Type (0, 0), BuildingBlock: EZIPEK_clean_linker_0, # of connection points: 2
#     Edge 78, Type (0, 0), BuildingBlock: EZIPEK_clean_linker_0, # of connection points: 2
#     Edge 79, Type (0, 0), BuildingBlock: EZIPEK_clean_linker_0, # of connection points: 2
#     Edge 80, Type (0, 0), BuildingBlock: EZIPEK_clean_linker_0, # of connection points: 2
#     Edge 81, Type (0, 0), BuildingBlock: EZIPEK_clean_linker_0, # of connection points: 2
#     Edge 82, Type (0, 0), BuildingBlock: EZIPEK_clean_linker_0, # of connection points: 2
#     Edge 83, Type (0, 0), BuildingBlock: EZIPEK_clean_linker_0, # of connection points: 2
#     Edge 84, Type (0, 0), BuildingBlock: EZIPEK_clean_linker_0, # of connection points: 2
#     Edge 85, Type (0, 0), BuildingBlock: EZIPEK_clean_linker_0, # of connection points: 2
#     Edge 86, Type (0, 0), BuildingBlock: EZIPEK_clean_linker_0, # of connection points: 2
#     Edge 87, Type (0, 0), BuildingBlock: EZIPEK_clean_linker_0, # of connection points: 2
#     Edge 88, Type (0, 0), BuildingBlock: EZIPEK_clean_linker_0, # of connection points: 2
#     Edge 89, Type (0, 0), BuildingBlock: EZIPEK_clean_linker_0, # of connection points: 2
#     Edge 90, Type (0, 0), BuildingBlock: EZIPEK_clean_linker_0, # of connection points: 2
#     Edge 91, Type (0, 0), BuildingBlock: EZIPEK_clean_linker_0, # of connection points: 2
#     Edge 92, Type (0, 0), BuildingBlock: EZIPEK_clean_linker_0, # of connection points: 2
#     Edge 93, Type (0, 0), BuildingBlock: EZIPEK_clean_linker_0, # of connection points: 2
#     Edge 94, Type (0, 0), BuildingBlock: EZIPEK_clean_linker_0, # of connection points: 2
#     Edge 95, Type (0, 0), BuildingBlock: EZIPEK_clean_linker_0, # of connection points: 2
#     Edge 96, Type (0, 0), BuildingBlock: EZIPEK_clean_linker_0, # of connection points: 2
#     Edge 97, Type (0, 0), BuildingBlock: EZIPEK_clean_linker_0, # of connection points: 2
#     Edge 98, Type (0, 0), BuildingBlock: EZIPEK_clean_linker_0, # of connection points: 2
#     Edge 99, Type (0, 0), BuildingBlock: EZIPEK_clean_linker_0, # of connection points: 2
#     Edge 100, Type (0, 0), BuildingBlock: EZIPEK_clean_linker_0, # of connection points: 2
#     Edge 101, Type (0, 0), BuildingBlock: EZIPEK_clean_linker_0, # of connection points: 2
#     Edge 102, Type (0, 0), BuildingBlock: EZIPEK_clean_linker_0, # of connection points: 2
#     Edge 103, Type (0, 0), BuildingBlock: EZIPEK_clean_linker_0, # of connection points: 2
#     Edge 104, Type (0, 0), BuildingBlock: EZIPEK_clean_linker_0, # of connection points: 2
#     Edge 105, Type (0, 0), BuildingBlock: EZIPEK_clean_linker_0, # of connection points: 2
#     Edge 106, Type (0, 0), BuildingBlock: EZIPEK_clean_linker_0, # of connection points: 2
#     Edge 107, Type (0, 0), BuildingBlock: EZIPEK_clean_linker_0, # of connection points: 2
#     Edge 108, Type (0, 0), BuildingBlock: EZIPEK_clean_linker_0, # of connection points: 2
#     Edge 109, Type (0, 0), BuildingBlock: EZIPEK_clean_linker_0, # of connection points: 2
#     Edge 110, Type (0, 0), BuildingBlock: EZIPEK_clean_linker_0, # of connection points: 2
#     Edge 111, Type (0, 0), BuildingBlock: EZIPEK_clean_linker_0, # of connection points: 2
#     Edge 112, Type (0, 0), BuildingBlock: EZIPEK_clean_linker_0, # of connection points: 2
#     Edge 113, Type (0, 0), BuildingBlock: EZIPEK_clean_linker_0, # of connection points: 2
#     Edge 114, Type (0, 0), BuildingBlock: EZIPEK_clean_linker_0, # of connection points: 2
#     Edge 115, Type (0, 0), BuildingBlock: EZIPEK_clean_linker_0, # of connection points: 2
#     Edge 116, Type (0, 0), BuildingBlock: EZIPEK_clean_linker_0, # of connection points: 2
#     Edge 117, Type (0, 0), BuildingBlock: EZIPEK_clean_linker_0, # of connection points: 2
#     Edge 118, Type (0, 0), BuildingBlock: EZIPEK_clean_linker_0, # of connection points: 2
#     Edge 119, Type (0, 0), BuildingBlock: EZIPEK_clean_linker_0, # of connection points: 2
#     Edge 120, Type (0, 0), BuildingBlock: EZIPEK_clean_linker_0, # of connection points: 2
#     Edge 121, Type (0, 0), BuildingBlock: EZIPEK_clean_linker_0, # of connection points: 2
#     Edge 122, Type (0, 0), BuildingBlock: EZIPEK_clean_linker_0, # of connection points: 2
#     Edge 123, Type (0, 0), BuildingBlock: EZIPEK_clean_linker_0, # of connection points: 2
#     Edge 124, Type (0, 0), BuildingBlock: EZIPEK_clean_linker_0, # of connection points: 2
#     Edge 125, Type (0, 0), BuildingBlock: EZIPEK_clean_linker_0, # of connection points: 2
#     Edge 126, Type (0, 0), BuildingBlock: EZIPEK_clean_linker_0, # of connection points: 2
#     Edge 127, Type (0, 0), BuildingBlock: EZIPEK_clean_linker_0, # of connection points: 2
# Relax obj value: 0.130
# Max RMSD: 0.182
# Mean RMSD: 0.182
data_MOF--net-som--node1-CUKXOW_clean_sbu_0--edge1-EZIPEK_clean_linker_0
_symmetry_space_group_name_H-M    P1
_symmetry_Int_Tables_number       1
_symmetry_cell_setting            triclinic
loop_
_symmetry_equiv_pos_as_xyz
'x, y, z'
_cell_length_a     10.525876
_cell_length_b     55.173823
_cell_length_c     89.865426
_cell_angle_alpha  89.939092
_cell_angle_beta   90.115723
_cell_angle_gamma 89.780764
loop_
_atom_site_label
_atom_site_type_symbol
_atom_site_fract_x
_atom_site_fract_y
_atom_site_fract_z
_atom_type_partial_charge
Tb0 Tb 0.07436 0.47028 0.05844 0.0
C1 C 0.12279 0.4962 0.08967 0.0
Tb2 Tb 0.08091 0.52382 0.05961 0.0
O3 O 0.26709 0.46742 0.0496 0.0
O4 O 0.21998 0.49624 0.06316 0.0
O5 O 0.08379 0.47619 0.08277 0.0
C6 C 0.127 0.57152 0.05766 0.0
O7 O 0.14437 0.51656 0.08227 0.0
C8 C 0.84997 0.50514 0.06324 0.0
C9 C 0.05786 0.49828 0.02817 0.0
O10 O 1.03515 0.5616 0.06498 0.0
O11 O 0.19394 0.5546 0.05139 0.0
O12 O 0.89104 0.52468 0.06953 0.0
O13 O 0.93561 0.49786 0.05443 0.0
O14 O 0.08933 0.5183 0.03545 0.0
O15 O 1.02866 0.47795 0.03521 0.0
C16 C 1.00435 0.42359 0.06028 0.0
O17 O 0.10027 0.43179 0.05283 0.0
O18 O 0.94871 0.4416 0.06684 0.0
C19 C 0.3062 0.48802 0.05476 0.0
Tb20 Tb 0.2552 0.77697 0.0561 0.0
C21 C 0.21569 0.75262 0.08776 0.0
Tb22 Tb 0.25141 0.72345 0.05843 0.0
O23 O 0.06474 0.77813 0.04641 0.0
O24 O 0.11026 0.75101 0.06145 0.0
O25 O 0.25445 0.77217 0.08044 0.0
C26 C 0.21198 0.67536 0.05747 0.0
O27 O 0.18753 0.73217 0.08081 0.0
C28 C 0.48099 0.74295 0.06156 0.0
C29 C 0.27767 0.74767 0.02661 0.0
O30 O 0.14799 0.69152 0.05012 0.0
O31 O 0.29725 0.68625 0.06537 0.0
O32 O 0.44325 0.72326 0.06794 0.0
O33 O 0.39398 0.74949 0.05275 0.0
O34 O 0.24314 0.72809 0.03417 0.0
O35 O 0.30666 0.76827 0.03332 0.0
C36 C 0.32151 0.82384 0.05722 0.0
O37 O 0.38314 0.80607 0.06335 0.0
O38 O 0.22166 0.81532 0.05063 0.0
C39 C 1.02446 0.75839 0.05263 0.0
Tb40 Tb 0.09481 0.77842 0.18276 0.0
C41 C 0.12853 0.75326 0.15124 0.0
Tb42 Tb 0.09565 0.72512 0.18095 0.0
O43 O 0.28284 0.7787 0.19298 0.0
O44 O 0.23852 0.75204 0.17759 0.0
O45 O 0.09332 0.77314 0.15847 0.0
C46 C 0.12949 0.6769 0.18221 0.0
O47 O 0.15393 0.73269 0.15824 0.0
C48 C 0.86795 0.74526 0.17733 0.0
C49 C 0.06951 0.75013 0.21258 0.0
O50 O 1.02988 0.68796 0.17716 0.0
O51 O 0.21083 0.69297 0.18662 0.0
O52 O 0.90718 0.72586 0.17068 0.0
O53 O 0.95381 0.75162 0.18632 0.0
O54 O 0.10301 0.73026 0.20521 0.0
O55 O 1.04359 0.77078 0.20567 0.0
C56 C 1.03802 0.82571 0.18084 0.0
O57 O 0.96562 0.80813 0.17651 0.0
O58 O 0.14258 0.81672 0.18613 0.0
C59 C 0.32372 0.75917 0.18654 0.0
Tb60 Tb 0.29955 0.4681 0.18312 0.0
C61 C 0.2489 0.49503 0.15262 0.0
Tb62 Tb 0.27813 0.52633 0.18265 0.0
O63 O 0.0936 0.46065 0.18261 0.0
O64 O 0.16017 0.49544 0.18291 0.0
O65 O 0.28659 0.47465 0.15924 0.0
C66 C 0.20616 0.57276 0.18238 0.0
O67 O 0.23212 0.51609 0.15961 0.0
C68 C 0.51938 0.51069 0.18335 0.0
C69 C 0.28976 0.49824 0.21347 0.0
O70 O 0.27448 0.56217 0.17227 0.0
O71 O 0.1747 0.557 0.1925 0.0
O72 O 0.48562 0.53332 0.18305 0.0
O73 O 0.417 0.49895 0.18341 0.0
O74 O 0.26268 0.51884 0.2064 0.0
O75 O 0.31413 0.4772 0.20675 0.0
C76 C 0.4093 0.4246 0.18302 0.0
O77 O 0.3072 0.43028 0.19033 0.0
O78 O 0.44888 0.44326 0.17555 0.0
C79 C 0.05841 0.48334 0.18322 0.0
Tb80 Tb 1.02003 0.4752 0.93213 0.0
C81 C 1.03279 0.50027 0.96347 0.0
Tb82 Tb 1.02077 0.52839 0.93374 0.0
O83 O 0.20534 0.47561 0.92124 0.0
O84 O 0.16355 0.50153 0.93717 0.0
O85 O 0.98736 0.48157 0.95594 0.0
C86 C 0.07909 0.57544 0.93222 0.0
O87 O 0.07615 0.51967 0.95648 0.0
C88 C 0.79053 0.50959 0.93707 0.0
C89 C 0.98974 0.50297 0.90203 0.0
O90 O 0.98872 0.56627 0.94016 0.0
O91 O 0.13594 0.55823 0.92503 0.0
O92 O 0.82814 0.52986 0.9428 0.0
O93 O 0.87812 0.50221 0.92862 0.0
O94 O 1.01568 0.52328 0.90939 0.0
O95 O 0.97647 0.48185 0.90884 0.0
C96 C 0.98697 0.42728 0.93396 0.0
O97 O 0.90248 0.44269 0.92932 0.0
O98 O 0.08887 0.43878 0.9377 0.0
C99 C 0.24707 0.4948 0.92793 0.0
Tb100 Tb 0.87613 0.27623 0.93305 0.0
C101 C 0.86296 0.24641 0.9631 0.0
Tb102 Tb 0.86395 0.22033 0.93151 0.0
O103 O 0.68129 0.27904 0.94079 0.0
O104 O 0.73462 0.24982 0.92753 0.0
O105 O 0.88289 0.26778 0.95671 0.0
C106 C 0.7698 0.17563 0.93075 0.0
O107 O 0.85127 0.22598 0.95546 0.0
C108 C 0.10383 0.23377 0.93421 0.0
C109 C 0.90099 0.25001 0.90168 0.0
O110 O 0.72331 0.19345 0.93848 0.0
O111 O 0.86765 0.18305 0.92331 0.0
O112 O 0.06753 0.21135 0.93351 0.0
O113 O 1.00503 0.24691 0.93376 0.0
O114 O 0.87035 0.22893 0.90788 0.0
O115 O 0.91277 0.27037 0.90943 0.0
C116 C 0.93349 0.32314 0.93239 0.0
O117 O 0.84023 0.31311 0.92528 0.0
O118 O 0.99708 0.30667 0.93965 0.0
C119 C 0.64488 0.25838 0.93546 0.0
Tb120 Tb 0.99874 0.27421 0.80633 0.0
C121 C 1.01441 0.24545 0.77609 0.0
Tb122 Tb 1.01615 0.22044 0.80805 0.0
O123 O 0.19369 0.27747 0.7986 0.0
O124 O 0.14494 0.24914 0.81267 0.0
O125 O 0.99873 0.26696 0.78248 0.0
C126 C 0.0984 0.17462 0.80704 0.0
O127 O 1.0225 0.22506 0.78389 0.0
C128 C 0.78038 0.23699 0.80943 0.0
C129 C 0.99126 0.24827 0.83772 0.0
O130 O 0.15983 0.19323 0.80201 0.0
O131 O 0.99094 0.18173 0.81255 0.0
O132 O 0.81923 0.21686 0.81534 0.0
O133 O 0.86985 0.24553 0.80161 0.0
O134 O 1.04433 0.2291 0.83142 0.0
O135 O 0.95141 0.26706 0.82972 0.0
C136 C 0.941 0.32146 0.80774 0.0
O137 O 1.04178 0.31129 0.81323 0.0
O138 O 0.87071 0.30491 0.80163 0.0
C139 C 0.23411 0.25765 0.80475 0.0
Tb140 Tb 0.84743 0.47445 0.80965 0.0
C141 C 0.82473 0.49821 0.77799 0.0
Tb142 Tb 0.84567 0.52719 0.80724 0.0
O143 O 0.65613 0.47483 0.81906 0.0
O144 O 0.70427 0.50045 0.80358 0.0
O145 O 0.87082 0.47948 0.78554 0.0
C146 C 0.7968 0.57492 0.80887 0.0
O147 O 0.78233 0.51779 0.78492 0.0
C148 C 0.07608 0.50855 0.80409 0.0
C149 C 0.88283 0.50323 0.83881 0.0
O150 O 0.85255 0.56397 0.79795 0.0
O151 O 0.76945 0.55909 0.819 0.0
O152 O 1.03526 0.52803 0.79765 0.0
O153 O 0.99091 0.50131 0.81282 0.0
O154 O 0.83514 0.52208 0.83152 0.0
O155 O 0.91973 0.48347 0.83167 0.0
C156 C 0.87437 0.42592 0.80876 0.0
O157 O 0.82978 0.43838 0.81976 0.0
O158 O 0.90476 0.44078 0.7982 0.0
C159 C 0.61678 0.49389 0.8121 0.0
Tb160 Tb 0.05957 0.96929 0.55716 0.0
C161 C 0.10774 0.9975 0.58749 0.0
Tb162 Tb 0.07682 0.02601 0.55685 0.0
O163 O 0.25969 0.96503 0.56307 0.0
O164 O 0.20018 0.99601 0.55218 0.0
O165 O 0.07154 0.97688 0.58105 0.0
C166 C 0.14931 0.07222 0.5561 0.0
O167 O 0.11895 0.01826 0.58013 0.0
C168 C 0.83526 0.01127 0.55946 0.0
C169 C 0.05075 0.99791 0.5266 0.0
O170 O 0.18974 0.05615 0.56561 0.0
O171 O 0.0706 0.06215 0.54689 0.0
O172 O 0.87031 0.03374 0.55885 0.0
O173 O 0.93698 -0.00081 0.55896 0.0
O174 O 0.09967 0.01715 0.53333 0.0
O175 O 1.01364 0.97829 0.534 0.0
C176 C 0.981 0.92343 0.55583 0.0
O177 O 0.07445 0.93244 0.5482 0.0
O178 O 0.93165 0.94025 0.56413 0.0
C179 C 0.29352 0.98676 0.55917 0.0
Tb180 Tb 0.26464 0.27701 0.55568 0.0
C181 C 0.2173 0.25275 0.58741 0.0
Tb182 Tb 0.26763 0.22375 0.55796 0.0
O183 O 0.0755 0.27748 0.5457 0.0
O184 O 0.12308 0.25051 0.56077 0.0
O185 O 0.24843 0.27274 0.57999 0.0
C186 C 0.23334 0.17573 0.55675 0.0
O187 O 0.20561 0.23157 0.58058 0.0
C188 C 0.49426 0.24406 0.56138 0.0
C189 C 0.29065 0.24828 0.5261 0.0
O190 O 0.32802 0.18655 0.56301 0.0
O191 O 0.15721 0.19184 0.55115 0.0
O192 O 0.45658 0.22464 0.56808 0.0
O193 O 0.40768 0.25025 0.5524 0.0
O194 O 0.25969 0.22845 0.53364 0.0
O195 O 0.31575 0.26903 0.53282 0.0
C196 C 0.3318 0.32359 0.55737 0.0
O197 O 0.23243 0.31542 0.55049 0.0
O198 O 0.39218 0.30565 0.56348 0.0
C199 C 1.03723 0.25751 0.55187 0.0
Tb200 Tb 0.06635 0.27755 0.6817 0.0
C201 C 0.098 0.25273 0.65042 0.0
Tb202 Tb 0.08209 0.21971 0.67965 0.0
O203 O 0.27383 0.28462 0.68089 0.0
O204 O 0.20414 0.24997 0.68051 0.0
O205 O 0.05747 0.27208 0.65779 0.0
C206 C 0.15415 0.1736 0.67854 0.0
O207 O 0.12577 0.23156 0.65689 0.0
C208 C 0.84279 0.23532 0.68066 0.0
C209 C 0.05406 0.24541 0.71127 0.0
O210 O 0.07238 0.18383 0.66969 0.0
O211 O 0.19946 0.1896 0.68776 0.0
O212 O 0.87516 0.21271 0.67956 0.0
O213 O 0.94479 0.24724 0.68096 0.0
O214 O 0.07714 0.22506 0.70374 0.0
O215 O 1.03833 0.267 0.70486 0.0
C216 C 0.97223 0.32221 0.68199 0.0
O217 O 0.05622 0.31386 0.69129 0.0
O218 O 0.93997 0.3054 0.67264 0.0
C219 C 0.30633 0.26186 0.68043 0.0
Tb220 Tb 0.26352 0.96848 0.68067 0.0
C221 C 0.23683 0.99497 0.65063 0.0
Tb222 Tb 0.25078 0.0218 0.68162 0.0
O223 O 0.06793 0.96496 0.6731 0.0
O224 O 0.11778 0.99397 0.68671 0.0
O225 O 0.29093 0.97606 0.65714 0.0
C226 C 0.20737 0.06931 0.67928 0.0
O227 O 0.19818 0.01399 0.65846 0.0
C228 C 0.48427 0.00466 0.68368 0.0
C229 C 0.26475 0.99428 0.71226 0.0
O230 O 0.29896 0.05758 0.67292 0.0
O231 O 0.1377 0.05423 0.68676 0.0
O232 O 0.44477 0.02452 0.68977 0.0
O233 O 0.3953 0.99637 0.67565 0.0
O234 O 0.24783 0.01552 0.70558 0.0
O235 O 0.27284 0.97369 0.70474 0.0
C236 C 0.33953 0.92252 0.68245 0.0
O237 O 0.40581 0.94104 0.68666 0.0
O238 O 0.23104 0.92977 0.67728 0.0
C239 C 1.02914 0.98516 0.67883 0.0
Tb240 Tb 0.97867 0.97285 0.43022 0.0
C241 C 1.00202 0.99676 0.46217 0.0
Tb242 Tb 0.98405 0.02565 0.43232 0.0
O243 O 0.16765 0.97263 0.42013 0.0
O244 O 0.1238 0.99835 0.43603 0.0
O245 O 0.97056 0.97708 0.45454 0.0
C246 C 0.05105 0.07223 0.43094 0.0
O247 O 1.02842 0.01752 0.45546 0.0
C248 C 0.7528 0.00769 0.43566 0.0
C249 C 0.94513 0.00137 0.40062 0.0
O250 O 0.1199 0.05412 0.42658 0.0
O251 O 0.94374 0.06423 0.43591 0.0
O252 O 0.7939 0.0273 0.44193 0.0
O253 O 0.83794 0.00022 0.42685 0.0
O254 O 0.98407 0.0209 0.40793 0.0
O255 O 0.91705 0.981 0.40764 0.0
C256 C 0.93797 0.92513 0.4312 0.0
O257 O 1.03277 0.93563 0.42479 0.0
O258 O 0.86497 0.94146 0.43711 0.0
C259 C 0.20901 0.99156 0.42706 0.0
Tb260 Tb 0.84021 0.77338 0.43279 0.0
C261 C 0.8212 0.74628 0.4629 0.0
Tb262 Tb 0.83842 0.71989 0.43158 0.0
O263 O 0.64666 0.77466 0.44119 0.0
O264 O 0.69983 0.747 0.42689 0.0
O265 O 0.85486 0.76681 0.45647 0.0
C266 C 0.78024 0.67276 0.43246 0.0
O267 O 0.79909 0.72622 0.45525 0.0
C268 C 0.06847 0.73842 0.42942 0.0
C269 C 0.87273 0.7473 0.40156 0.0
O270 O 0.87862 0.68257 0.43869 0.0
O271 O 0.71453 0.68946 0.42578 0.0
O272 O 1.03187 0.71847 0.42314 0.0
O273 O 0.97899 0.74614 0.43755 0.0
O274 O 0.83735 0.7267 0.40784 0.0
O275 O 0.89151 0.76731 0.40943 0.0
C276 C 0.87878 0.82115 0.4317 0.0
O277 O 0.79829 0.80932 0.42361 0.0
O278 O 0.93932 0.80612 0.44027 0.0
C279 C 0.61089 0.75457 0.43511 0.0
Tb280 Tb 0.96543 0.776 0.30721 0.0
C281 C 1.00473 0.74829 0.27667 0.0
Tb282 Tb 0.98055 0.71965 0.30734 0.0
O283 O 0.17183 0.78386 0.30773 0.0
O284 O 0.10528 0.74912 0.30823 0.0
O285 O 0.98566 0.76945 0.28341 0.0
C286 C 0.063 0.67412 0.3063 0.0
O287 O 1.00879 0.72712 0.28374 0.0
C288 C 0.7476 0.73766 0.31028 0.0
C289 C 0.95234 0.7466 0.33757 0.0
O290 O 0.95861 0.68198 0.30021 0.0
O291 O 0.12119 0.69188 0.31282 0.0
O292 O 0.7841 0.71653 0.31505 0.0
O293 O 0.83811 0.74662 0.30277 0.0
O294 O 0.99973 0.72719 0.33092 0.0
O295 O 0.91543 0.76632 0.33017 0.0
C296 C 0.89476 0.82241 0.30658 0.0
O297 O 0.9653 0.81238 0.31671 0.0
O298 O 0.85947 0.80609 0.29703 0.0
C299 C 0.20619 0.76132 0.30829 0.0
Tb300 Tb 0.81868 0.9745 0.30687 0.0
C301 C 0.80689 0.00051 0.27584 0.0
Tb302 Tb 0.81437 0.0276 0.3058 0.0
O303 O 0.63273 0.9743 0.31764 0.0
O304 O 0.6736 0.00078 0.30206 0.0
O305 O 0.85501 0.98179 0.28321 0.0
C306 C 0.75003 0.07432 0.30779 0.0
O307 O 0.75956 0.01939 0.28302 0.0
C308 C 1.04639 0.00928 0.30243 0.0
C309 C 0.84531 0.00154 0.33724 0.0
O310 O 0.84246 0.06572 0.29989 0.0
O311 O 0.69415 0.05671 0.31467 0.0
O312 O 1.00694 0.02954 0.29675 0.0
O313 O 0.95914 0.00148 0.31076 0.0
O314 O 0.81888 0.022 0.33005 0.0
O315 O 0.86064 0.9806 0.33028 0.0
C316 C 0.85049 0.92662 0.30437 0.0
O317 O 0.9304 0.94131 0.31058 0.0
O318 O 0.75387 0.9388 0.29952 0.0
C319 C 0.59034 0.99372 0.31119 0.0
Tb320 Tb 0.58658 0.46873 0.55834 0.0
C321 C 0.6299 0.49506 0.58848 0.0
Tb322 Tb 0.59566 0.52265 0.55766 0.0
O323 O 0.78236 0.46556 0.56607 0.0
O324 O 0.72981 0.49474 0.55266 0.0
O325 O 0.58737 0.475 0.5822 0.0
C326 C 0.64576 0.57029 0.55944 0.0
O327 O 0.65344 0.515 0.58073 0.0
C328 C 0.36294 0.50462 0.5553 0.0
C329 C 0.58131 0.49595 0.52712 0.0
O330 O 0.58521 0.55761 0.56927 0.0
O331 O 0.67959 0.55601 0.54872 0.0
O332 O 0.39789 0.52551 0.55023 0.0
O333 O 0.45337 0.49659 0.56313 0.0
O334 O 0.61525 0.51623 0.53388 0.0
O335 O 0.55483 0.47584 0.53457 0.0
C336 C 0.50664 0.42286 0.55756 0.0
O337 O 0.6079 0.43095 0.55104 0.0
O338 O 0.45054 0.44049 0.56444 0.0
C339 C 0.81987 0.48597 0.56036 0.0
Tb340 Tb 0.75807 0.77615 0.55767 0.0
C341 C 0.72135 0.75067 0.58828 0.0
Tb342 Tb 0.75481 0.72227 0.55773 0.0
O343 O 0.5636 0.77872 0.56561 0.0
O344 O 0.61696 0.74953 0.55228 0.0
O345 O 0.75593 0.77093 0.58156 0.0
C346 C 0.7193 0.67439 0.56019 0.0
O347 O 0.70443 0.73006 0.58093 0.0
C348 C 0.98342 0.74146 0.55478 0.0
C349 C 0.77298 0.7476 0.52699 0.0
O350 O 0.81114 0.68647 0.56623 0.0
O351 O 0.64657 0.68918 0.55285 0.0
O352 O 0.94806 0.72105 0.54906 0.0
O353 O 0.89443 0.74908 0.56297 0.0
O354 O 0.73922 0.72745 0.53389 0.0
O355 O 0.79581 0.76812 0.53416 0.0
C356 C 0.82744 0.82268 0.55612 0.0
O357 O 0.72926 0.81336 0.54954 0.0
O358 O 0.8863 0.80587 0.5635 0.0
C359 C 0.52685 0.75824 0.56 0.0
Tb360 Tb 0.59809 0.77802 0.68259 0.0
C361 C 0.62816 0.75143 0.65185 0.0
Tb362 Tb 0.61187 0.72003 0.68168 0.0
O363 O 0.80564 0.78473 0.68158 0.0
O364 O 0.73474 0.75017 0.6819 0.0
O365 O 0.59005 0.77142 0.65878 0.0
C366 C 0.68357 0.67398 0.68182 0.0
O367 O 0.65465 0.73056 0.65872 0.0
C368 C 0.37338 0.73594 0.6824 0.0
C369 C 0.58337 0.74726 0.71263 0.0
O370 O 0.60574 0.68375 0.67231 0.0
O371 O 0.72555 0.69036 0.69099 0.0
O372 O 0.40489 0.71324 0.68168 0.0
O373 O 0.47566 0.74778 0.68248 0.0
O374 O 0.60708 0.72657 0.70555 0.0
O375 O 0.56985 0.76859 0.70589 0.0
C376 C 0.5076 0.82296 0.68305 0.0
O377 O 0.59863 0.81482 0.69146 0.0
O378 O 0.4667 0.80579 0.67442 0.0
C379 C 0.83729 0.76193 0.68152 0.0
Tb380 Tb 0.75171 0.46904 0.68356 0.0
C381 C 0.71501 0.495 0.65227 0.0
Tb382 Tb 0.7534 0.52172 0.68228 0.0
O383 O 0.56494 0.46851 0.69391 0.0
O384 O 0.60788 0.49551 0.67862 0.0
O385 O 0.75185 0.47495 0.65926 0.0
C386 C 0.73117 0.5699 0.68353 0.0
O387 O 0.68984 0.51522 0.6596 0.0
C388 C 0.98 0.50148 0.67851 0.0
C389 C 0.77544 0.49614 0.71377 0.0
O390 O 0.82544 0.55807 0.6779 0.0
O391 O 0.64803 0.55467 0.68856 0.0
O392 O 0.94022 0.52074 0.67177 0.0
O393 O 0.89497 0.49514 0.68757 0.0
O394 O 0.7448 0.51632 0.70652 0.0
O395 O 0.79989 0.47562 0.70672 0.0
C396 C 0.81027 0.42212 0.68141 0.0
O397 O 0.88378 0.43985 0.67766 0.0
O398 O 0.70325 0.43071 0.68617 0.0
C399 C 0.52365 0.48812 0.68757 0.0
Tb400 Tb 0.53877 0.4694 0.43167 0.0
C401 C 0.56526 0.4946 0.46242 0.0
Tb402 Tb 0.55405 0.52574 0.43278 0.0
O403 O 0.73875 0.46635 0.43858 0.0
O404 O 0.67771 0.49656 0.42726 0.0
O405 O 0.51639 0.47581 0.4553 0.0
C406 C 0.6411 0.57122 0.43298 0.0
O407 O 0.60751 0.5142 0.45536 0.0
C408 C 0.31344 0.51201 0.43499 0.0
C409 C 0.48422 0.50006 0.40218 0.0
O410 O 0.56719 0.56174 0.44292 0.0
O411 O 0.66746 0.55498 0.42301 0.0
O412 O 0.35039 0.53442 0.43477 0.0
O413 O 0.41237 0.49901 0.43399 0.0
O414 O 0.51799 0.52055 0.40896 0.0
O415 O 0.48017 0.47867 0.40901 0.0
C416 C 0.49068 0.42233 0.42898 0.0
O417 O 0.57165 0.43438 0.42106 0.0
O418 O 0.43401 0.43684 0.43824 0.0
C419 C 0.77221 0.4877 0.43404 0.0
Tb420 Tb 0.34533 0.27318 0.43043 0.0
C421 C 0.32343 0.24603 0.46154 0.0
Tb422 Tb 0.32935 0.21517 0.43143 0.0
O423 O 0.13786 0.28042 0.43079 0.0
O424 O 0.20825 0.24577 0.43141 0.0
O425 O 0.34694 0.26672 0.45439 0.0
C426 C 0.23169 0.17086 0.43145 0.0
O427 O 0.30526 0.22485 0.45478 0.0
C428 C 0.56949 0.23065 0.43018 0.0
C429 C 0.35779 0.24147 0.40063 0.0
O430 O 0.31771 0.17858 0.44066 0.0
O431 O 0.19995 0.18807 0.4223 0.0
O432 O 0.53709 0.20791 0.43041 0.0
O433 O 0.46693 0.24261 0.43045 0.0
O434 O 0.31903 0.22167 0.40763 0.0
O435 O 0.38532 0.26224 0.40745 0.0
C436 C 0.43385 0.31849 0.42839 0.0
O437 O 0.34512 0.30902 0.42021 0.0
O438 O 0.46919 0.30236 0.43815 0.0
C439 C 0.10583 0.25773 0.4314 0.0
Tb440 Tb 0.5282 0.27413 0.30862 0.0
C441 C 0.54687 0.25045 0.27656 0.0
Tb442 Tb 0.52657 0.2213 0.30594 0.0
O443 O 0.71605 0.27283 0.31889 0.0
O444 O 0.66989 0.24785 0.30272 0.0
O445 O 0.51589 0.27006 0.2843 0.0
C446 C 0.59047 0.17455 0.3077 0.0
O447 O 0.57569 0.22965 0.28308 0.0
C448 C 0.29846 0.24085 0.30238 0.0
C449 C 0.47914 0.2447 0.33782 0.0
O450 O 0.49209 0.1831 0.30075 0.0
O451 O 0.65265 0.19223 0.31371 0.0
O452 O 0.33742 0.2211 0.296 0.0
O453 O 0.38395 0.24754 0.31136 0.0
O454 O 0.51281 0.225 0.33027 0.0
O455 O 0.46438 0.26594 0.3311 0.0
C456 C 0.4996 0.32233 0.30796 0.0
O457 O 0.59204 0.31071 0.31422 0.0
O458 O 0.42217 0.30689 0.30202 0.0
C459 C 0.7555 0.25387 0.31184 0.0
Tb460 Tb 0.35906 0.4724 0.30832 0.0
C461 C 0.33975 0.50063 0.27786 0.0
Tb462 Tb 0.33925 0.53032 0.30848 0.0
O463 O 0.15201 0.46549 0.30682 0.0
O464 O 0.22058 0.49981 0.30754 0.0
O465 O 0.37633 0.48031 0.28462 0.0
C466 C 0.24594 0.57519 0.30788 0.0
O467 O 0.30881 0.52084 0.28506 0.0
C468 C 0.58052 0.51521 0.30969 0.0
C469 C 0.36154 0.50217 0.33894 0.0
O470 O 0.32236 0.56595 0.29807 0.0
O471 O 0.2218 0.55913 0.31807 0.0
O472 O 0.54562 0.53786 0.30942 0.0
O473 O 0.47934 0.503 0.30942 0.0
O474 O 0.32514 0.5225 0.33219 0.0
O475 O 0.38854 0.48158 0.33181 0.0
C476 C 0.43332 0.4263 0.30867 0.0
O477 O 0.35076 0.43594 0.3176 0.0
O478 O 0.47768 0.44281 0.29975 0.0
C479 C 0.11814 0.48813 0.30728 0.0
Tb480 Tb 0.55948 0.97048 0.05726 0.0
C481 C 0.60053 0.99653 0.08758 0.0
Tb482 Tb 0.57637 0.02486 0.05686 0.0
O483 O 0.75849 0.96661 0.06432 0.0
O484 O 0.7037 0.99618 0.05162 0.0
O485 O 0.55161 0.97717 0.08109 0.0
C486 C 0.63238 0.07211 0.05846 0.0
O487 O 0.632 0.01621 0.07988 0.0
C488 C 0.34182 0.00775 0.0545 0.0
C489 C 0.54838 0.9984 0.02634 0.0
O490 O 0.53849 0.06159 0.06514 0.0
O491 O 0.69646 0.05597 0.0511 0.0
O492 O 0.37988 0.02813 0.04898 0.0
O493 O 0.43161 -0.00079 0.06233 0.0
O494 O 0.59107 0.01818 0.03304 0.0
O495 O 0.51479 0.97871 0.0339 0.0
C496 C 0.48279 0.92425 0.05624 0.0
O497 O 0.58241 0.93284 0.04963 0.0
O498 O 0.42611 0.94165 0.0633 0.0
C499 C 0.79576 0.98718 0.05887 0.0
Tb500 Tb 0.75721 0.27756 0.05674 0.0
C501 C 0.7008 0.25338 0.08822 0.0
Tb502 Tb 0.75769 0.22396 0.0591 0.0
O503 O 0.56829 0.27836 0.04658 0.0
O504 O 0.61419 0.25113 0.06146 0.0
O505 O 0.73789 0.27317 0.08101 0.0
C506 C 0.71722 0.17598 0.05824 0.0
O507 O 0.68684 0.23235 0.0813 0.0
C508 C 0.98576 0.24402 0.06278 0.0
C509 C 0.79225 0.24822 0.0273 0.0
O510 O 0.80097 0.18685 0.06638 0.0
O511 O 0.65601 0.19209 0.0505 0.0
O512 O 0.94786 0.22426 0.06909 0.0
O513 O 0.89903 0.25042 0.05389 0.0
O514 O 0.75903 0.22842 0.03477 0.0
O515 O 0.81343 0.26916 0.03405 0.0
C516 C 0.82664 0.32412 0.05901 0.0
O517 O 0.88299 0.30595 0.06539 0.0
O518 O 0.73045 0.31615 0.05143 0.0
C519 C 0.52882 0.25831 0.05255 0.0
Tb520 Tb 0.56011 0.27495 0.18157 0.0
C521 C 0.564 0.25409 0.15033 0.0
Tb522 Tb 0.5885 0.2278 0.18074 0.0
O523 O 0.73811 0.25614 0.18159 0.0
O524 O 0.7363 0.25644 0.18143 0.0
O525 O 0.50943 0.27129 0.15822 0.0
C526 C 0.64093 0.18029 0.18292 0.0
O527 O 0.61462 0.23508 0.15702 0.0
C528 C 0.3491 0.24 0.17584 0.0
C529 C 0.55922 0.25244 0.21219 0.0
O530 O 0.53876 0.19086 0.18753 0.0
O531 O 0.71556 0.19646 0.17726 0.0
O532 O 0.41079 0.22378 0.16843 0.0
O533 O 0.41997 0.24883 0.18561 0.0
O534 O 0.60101 0.23312 0.20493 0.0
O535 O 0.52051 0.27188 0.20495 0.0
C536 C 0.55465 0.32366 0.1807 0.0
O537 O 0.55908 0.31052 0.19265 0.0
O538 O 0.55895 0.30937 0.16933 0.0
C539 C 0.81345 0.25943 0.17047 0.0
Tb540 Tb 0.78731 0.97127 0.18117 0.0
C541 C 0.72814 -0.00081 0.15082 0.0
Tb542 Tb 0.76987 0.0292 0.18086 0.0
O543 O 0.58191 0.96349 0.18215 0.0
O544 O 0.64719 0.9987 0.18198 0.0
O545 O 0.76045 0.97842 0.15747 0.0
C546 C 0.7051 0.07602 0.18172 0.0
O547 O 0.72159 0.02041 0.15785 0.0
C548 C 1.01039 0.01312 0.18016 0.0
C549 C 0.78422 0.00099 0.21113 0.0
O550 O 0.71229 0.06291 0.16975 0.0
O551 O 0.73019 0.06257 0.19321 0.0
O552 O 0.97861 0.0358 0.18047 0.0
O553 O 0.90756 0.00164 0.18018 0.0
O554 O 0.73463 0.01994 0.20404 0.0
O555 O 0.83057 0.98166 0.2041 0.0
C556 C 0.88249 0.92649 0.18057 0.0
O557 O 0.80179 0.93465 0.19029 0.0
O558 O 0.91129 0.94367 0.17125 0.0
C559 C 0.54676 0.98611 0.18226 0.0
Tb560 Tb 0.50438 0.97275 0.93083 0.0
C561 C 0.52397 -0.00098 0.96159 0.0
Tb562 Tb 0.52085 0.03048 0.93241 0.0
O563 O 0.71256 0.96589 0.92944 0.0
O564 O 0.64188 0.0002 0.93029 0.0
O565 O 0.4699 0.98097 0.95418 0.0
C566 C 0.61092 0.07542 0.93233 0.0
O567 O 0.57171 0.01844 0.95485 0.0
C568 C 0.28037 0.01569 0.93383 0.0
C569 C 0.46797 0.00425 0.90131 0.0
O570 O 0.53354 0.06662 0.94217 0.0
O571 O 0.63968 0.05878 0.92264 0.0
O572 O 0.31526 0.03827 0.93407 0.0
O573 O 0.38135 0.00317 0.93312 0.0
O574 O 0.49292 0.02481 0.90853 0.0
O575 O 0.46673 0.98246 0.90771 0.0
C576 C 0.43959 0.92616 0.93102 0.0
O577 O 0.40523 0.94179 0.92092 0.0
O578 O 0.50651 0.93694 0.94114 0.0
C579 C 0.74465 0.98852 0.92975 0.0
Tb580 Tb 0.33228 0.7748 0.93214 0.0
C581 C 0.31402 0.74667 0.96221 0.0
Tb582 Tb 0.3205 0.72114 0.93046 0.0
O583 O 0.13856 0.77758 0.94044 0.0
O584 O 0.18784 0.74949 0.92621 0.0
O585 O 0.33786 0.76785 0.95588 0.0
C586 C 0.23756 0.67555 0.93103 0.0
O587 O 0.29742 0.72658 0.95439 0.0
C588 C 0.55484 0.73717 0.92819 0.0
C589 C 0.36227 0.74942 0.90067 0.0
O590 O 0.34267 0.68308 0.93694 0.0
O591 O 0.17866 0.69362 0.92485 0.0
O592 O 0.5142 0.71689 0.92264 0.0
O593 O 0.46696 0.74625 0.93623 0.0
O594 O 0.33162 0.72833 0.90675 0.0
O595 O 0.37292 0.76949 0.90861 0.0
C596 C 0.38118 0.82211 0.93064 0.0
O597 O 0.28495 0.81141 0.92461 0.0
O598 O 0.45162 0.80622 0.93747 0.0
C599 C 0.0992 0.75773 0.93434 0.0
Tb600 Tb 0.49088 0.77487 0.80665 0.0
C601 C 0.52368 0.74502 0.77681 0.0
Tb602 Tb 0.51806 0.71841 0.80798 0.0
O603 O 0.69068 0.77944 0.80085 0.0
O604 O 0.63521 0.74908 0.81238 0.0
O605 O 0.48642 0.76575 0.783 0.0
C606 C 0.62229 0.67444 0.80928 0.0
O607 O 0.54803 0.72498 0.78445 0.0
C608 C 0.27287 0.73124 0.80499 0.0
C609 C 0.46482 0.74743 0.83729 0.0
O610 O 0.6623 0.69212 0.80099 0.0
O611 O 0.52411 0.68149 0.81687 0.0
O612 O 0.31497 0.70905 0.80507 0.0
O613 O 0.37148 0.74428 0.80555 0.0
O614 O 0.5196 0.72788 0.83151 0.0
O615 O 0.43031 0.76659 0.82927 0.0
C616 C 0.4332 0.8219 0.80808 0.0
O617 O 0.5108 0.81056 0.81693 0.0
O618 O 0.3853 0.80666 0.79861 0.0
C619 C 0.72822 0.7584 0.80552 0.0
Tb620 Tb 0.32387 0.97426 0.80901 0.0
C621 C 0.30254 0.99717 0.77676 0.0
Tb622 Tb 0.31647 0.02689 0.8061 0.0
O623 O 0.13248 0.97467 0.81818 0.0
O624 O 0.18016 -0.00059 0.80195 0.0
O625 O 0.33956 0.97813 0.78472 0.0
C626 C 0.25945 0.07425 0.80729 0.0
O627 O 0.26754 0.01767 0.78325 0.0
C628 C 0.54993 0.00888 0.80476 0.0
C629 C 0.34463 0.00373 0.83831 0.0
O630 O 0.3399 0.0643 0.79827 0.0
O631 O 0.2118 0.05763 0.81578 0.0
O632 O 0.50959 0.02759 0.79743 0.0
O633 O 0.461 0.00189 0.81302 0.0
O634 O 0.30403 0.02269 0.83049 0.0
O635 O 0.37805 0.98324 0.83172 0.0
C636 C 0.36364 0.92618 0.80807 0.0
O637 O 0.27503 0.93713 0.81544 0.0
O638 O 0.43061 0.94231 0.80116 0.0
C639 C 0.09188 0.99285 0.81041 0.0
C640 C 0.94213 0.38522 0.07358 0.0
C641 C 0.95792 0.39819 0.06006 0.0
C642 C 0.8979 0.36196 0.0459 0.0
C643 C 0.87105 0.34966 0.05941 0.0
N644 N 0.848 0.3507 0.08611 0.0
N645 N 0.92513 0.40055 0.0335 0.0
C646 C 0.88803 0.36158 0.07327 0.0
C647 C 0.92882 0.38701 0.04625 0.0
N648 N 0.98322 0.39512 0.08667 0.0
N649 N 0.89976 0.34948 0.03276 0.0
H650 H 0.94412 0.41908 0.03326 0.0
H651 H 0.89089 0.39395 0.0234 0.0
H652 H 0.8808 0.33099 0.032 0.0
H653 H 0.93241 0.35691 0.02282 0.0
H654 H 0.98736 0.38554 0.09665 0.0
H655 H 1.02371 0.41231 0.08735 0.0
H656 H 0.84507 0.35949 0.09635 0.0
H657 H 0.80686 0.33354 0.08634 0.0
C658 C 0.4348 0.88591 0.0702 0.0
C659 C 0.44338 0.89845 0.05643 0.0
C660 C 0.38423 0.86132 0.04312 0.0
C661 C 0.36322 0.84953 0.05696 0.0
N662 N 0.34972 0.85156 0.08372 0.0
N663 N 0.40791 0.89939 0.02992 0.0
C664 C 0.38369 0.86207 0.07053 0.0
C665 C 0.41334 0.8865 0.04291 0.0
N666 N 0.4804 0.8964 0.08291 0.0
N667 N 0.38208 0.84825 0.0302 0.0
H668 H 0.42834 0.91785 0.02929 0.0
H669 H 0.37259 0.89233 0.02 0.0
H670 H 0.36355 0.82971 0.02987 0.0
H671 H 0.41032 0.85525 0.01997 0.0
H672 H 0.48965 0.88718 0.09297 0.0
H673 H 0.52033 0.91367 0.08313 0.0
H674 H 0.34906 0.8608 0.09382 0.0
H675 H 0.3112 0.83421 0.08443 0.0
C676 C 0.91595 0.88691 0.16716 0.0
C677 C 0.93094 0.90122 0.18017 0.0
C678 C 1.00912 0.86565 0.19382 0.0
C679 C 1.00379 0.85181 0.18053 0.0
N680 N 0.97641 0.85042 0.15388 0.0
N681 N 1.01785 0.90563 0.20487 0.0
C682 C 0.96416 0.86277 0.16699 0.0
C683 C 0.98522 0.891 0.19321 0.0
N684 N 0.85012 0.89585 0.15521 0.0
N685 N 1.03038 0.85446 0.20719 0.0
H686 H 1.00463 0.92438 0.20472 0.0
H687 H 0.06975 0.89956 0.21404 0.0
H688 H 1.0447 0.83583 0.20826 0.0
H689 H 1.02132 0.86326 0.21738 0.0
H690 H 0.82387 0.88529 0.14612 0.0
H691 H 0.81149 0.91326 0.1549 0.0
H692 H 0.96193 0.85839 0.1435 0.0
H693 H 1.01284 0.83285 0.15326 0.0
C694 C 0.55188 0.39054 0.19125 0.0
C695 C 0.45811 0.39963 0.18137 0.0
C696 C 0.42803 0.3592 0.17085 0.0
C697 C 0.5268 0.3501 0.18022 0.0
N698 N 0.70129 0.35821 0.19692 0.0
N699 N 0.32867 0.39433 0.1595 0.0
C700 C 0.59416 0.36611 0.18975 0.0
C701 C 0.40372 0.3845 0.1704 0.0
N702 N 0.59865 0.40513 0.20224 0.0
N703 N 0.35068 0.34373 0.16317 0.0
H704 H 0.3063 0.41276 0.15898 0.0
H705 H 0.29842 0.38465 0.1502 0.0
H706 H 0.35984 0.32498 0.16338 0.0
H707 H 0.26832 0.34935 0.15771 0.0
H708 H 0.6564 0.39886 0.21086 0.0
H709 H 0.57301 0.42334 0.20328 0.0
H710 H 0.76125 0.36958 0.2029 0.0
H711 H 0.7374 0.34069 0.1957 0.0
C712 C 0.14619 0.61333 0.94542 0.0
C713 C 0.11576 0.60129 0.93193 0.0
C714 C 0.17218 0.63765 0.91774 0.0
C715 C 0.19248 0.65023 0.9313 0.0
N716 N 0.17488 0.65171 0.95804 0.0
N717 N 0.07683 0.60309 0.90548 0.0
C718 C 0.1727 0.63854 0.94515 0.0
C719 C 0.12243 0.61374 0.91813 0.0
N720 N 0.156 0.60048 0.95841 0.0
N721 N 0.20544 0.64813 0.90452 0.0
H722 H 1.0379 0.58573 0.90533 0.0
H723 H 0.0666 0.61224 0.8954 0.0
H724 H 0.24295 0.66555 0.90374 0.0
H725 H 0.20634 0.63882 0.89444 0.0
H726 H 0.19144 0.60781 0.96824 0.0
H727 H 0.14034 0.58187 0.95909 0.0
H728 H 0.14746 0.64471 0.96831 0.0
H729 H 0.19247 0.6703 0.95829 0.0
C730 C 0.6774 0.13923 0.91814 0.0
C731 C 0.72567 0.15022 0.93124 0.0
C732 C 0.71061 0.11147 0.94453 0.0
C733 C 0.65294 0.10099 0.9318 0.0
N734 N 0.55918 0.10591 0.90743 0.0
N735 N 0.77534 0.14792 0.95747 0.0
C736 C 0.63099 0.11508 0.9188 0.0
C737 C 0.73745 0.13671 0.94464 0.0
N738 N 0.67524 0.15192 0.90505 0.0
N739 N 0.74636 0.09701 0.95621 0.0
H740 H 0.80481 0.16591 0.95789 0.0
H741 H 0.77007 0.13983 0.96792 0.0
H742 H 0.7316 0.07833 0.95639 0.0
H743 H 0.80123 0.10301 0.96511 0.0
H744 H 0.65659 0.14399 0.89477 0.0
H745 H 0.69957 0.17019 0.90429 0.0
H746 H 0.52803 0.11619 0.8984 0.0
H747 H 0.52012 0.08858 0.9076 0.0
C748 C 0.17717 0.13787 0.8207 0.0
C749 C 0.14486 0.14928 0.80703 0.0
C750 C 0.17909 0.11107 0.79373 0.0
C751 C 0.22119 0.10013 0.8072 0.0
N752 N 0.28206 0.10408 0.83297 0.0
N753 N 0.1331 0.14816 0.78023 0.0
C754 C 0.22566 0.11375 0.82057 0.0
C755 C 0.15234 0.13635 0.79344 0.0
N756 N 0.16161 0.15007 0.83381 0.0
N757 N 0.1567 0.09706 0.78146 0.0
H758 H 0.10729 0.1664 0.77956 0.0
H759 H 0.15185 0.14037 0.76991 0.0
H760 H 0.16995 0.07833 0.78133 0.0
H761 H 0.11293 0.10355 0.77184 0.0
H762 H 0.16827 0.14181 0.84421 0.0
H763 H 0.13439 0.16825 0.83435 0.0
H764 H 0.30061 0.11397 0.84259 0.0
H765 H 0.32124 0.0867 0.83324 0.0
C766 C 0.73619 0.63982 0.82162 0.0
C767 C 0.67222 0.64936 0.80899 0.0
C768 C 0.68232 0.60971 0.79678 0.0
C769 C 0.7554 0.60062 0.80888 0.0
N770 N 0.86941 0.60778 0.83175 0.0
N771 N 0.59988 0.64475 0.78363 0.0
C772 C 0.78672 0.61585 0.82107 0.0
C773 C 0.65102 0.63476 0.79624 0.0
N774 N 0.74847 0.65366 0.83415 0.0
N775 N 0.6352 0.59416 0.7863 0.0
H776 H 0.56806 0.66263 0.783 0.0
H777 H 0.59721 0.63578 0.77345 0.0
H778 H 0.65086 0.5755 0.78653 0.0
H779 H 0.56963 0.5993 0.77819 0.0
H780 H 0.78049 0.64688 0.84431 0.0
H781 H 0.71939 0.67174 0.83467 0.0
H782 H 0.90656 0.61878 0.84008 0.0
H783 H 0.91001 0.59051 0.83159 0.0
C784 C 0.93294 0.88482 0.56944 0.0
C785 C 0.94145 0.89765 0.55578 0.0
C786 C 0.88497 0.86065 0.54217 0.0
C787 C 0.86396 0.84861 0.5559 0.0
N788 N 0.84265 0.85074 0.58262 0.0
N789 N 0.90381 0.89907 0.52928 0.0
C790 C 0.88092 0.8611 0.56955 0.0
C791 C 0.91166 0.88593 0.54216 0.0
N792 N 0.98002 0.89477 0.58223 0.0
N793 N 0.88484 0.84779 0.52917 0.0
H794 H 0.92047 0.91768 0.52882 0.0
H795 H 0.86927 0.89201 0.51933 0.0
H796 H 0.86763 0.8292 0.52872 0.0
H797 H 0.91326 0.85507 0.51902 0.0
H798 H 0.98861 0.88516 0.59217 0.0
H799 H 1.02285 0.91176 0.58262 0.0
H800 H 0.84025 0.86007 0.59269 0.0
H801 H 0.80095 0.83365 0.5832 0.0
C802 C 0.39677 0.36107 0.57113 0.0
C803 C 0.37489 0.34911 0.5574 0.0
C804 C 0.42958 0.38623 0.54382 0.0
C805 C 0.46254 0.39743 0.55747 0.0
N806 N 0.49794 0.39449 0.58395 0.0
N807 N 0.3932 0.34865 0.53061 0.0
C808 C 0.45154 0.3846 0.5711 0.0
C809 C 0.3971 0.36124 0.5437 0.0
N810 N 0.36075 0.35035 0.58418 0.0
N811 N 0.42468 0.39965 0.53103 0.0
H812 H 0.37258 0.33021 0.53002 0.0
H813 H 0.42215 0.35591 0.52047 0.0
H814 H 0.44728 0.41803 0.53065 0.0
H815 H 0.38741 0.39315 0.52106 0.0
H816 H 0.36146 0.35924 0.59439 0.0
H817 H 0.31905 0.33325 0.58466 0.0
H818 H 0.50543 0.38496 0.59392 0.0
H819 H 0.53983 0.41158 0.58438 0.0
C820 C 0.86858 0.35752 0.69446 0.0
C821 C 0.92597 0.34746 0.68161 0.0
C822 C 0.8918 0.38549 0.66808 0.0
C823 C 0.84706 0.3963 0.68139 0.0
N824 N 0.81514 0.39402 0.70799 0.0
N825 N 1.01286 0.35284 0.65697 0.0
C826 C 0.84088 0.3827 0.69479 0.0
C827 C 0.94285 0.36165 0.66859 0.0
N828 N 0.83682 0.3429 0.70616 0.0
N829 N 0.88178 0.39769 0.65487 0.0
H830 H 0.05412 0.33563 0.65696 0.0
H831 H 1.04008 0.36338 0.64791 0.0
H832 H 0.84353 0.41511 0.65402 0.0
H833 H 0.90025 0.38974 0.64459 0.0
H834 H 0.7825 0.3488 0.71514 0.0
H835 H 0.8542 0.32427 0.70626 0.0
H836 H 0.82322 0.38546 0.71828 0.0
H837 H 0.79772 0.41257 0.70885 0.0
C838 C 0.46144 0.86147 0.66925 0.0
C839 C 0.4625 0.84833 0.68284 0.0
C840 C 0.3956 0.88474 0.69638 0.0
C841 C 0.38338 0.89715 0.68263 0.0
N842 N 0.3889 0.89696 0.65577 0.0
N843 N 0.40923 0.8459 0.70891 0.0
C844 C 0.41069 0.88534 0.66899 0.0
C845 C 0.4244 0.85956 0.69633 0.0
N846 N 0.51605 0.85175 0.6568 0.0
N847 N 0.37955 0.89698 0.70947 0.0
H848 H 0.42553 0.82725 0.70923 0.0
H849 H 0.36901 0.85253 0.71868 0.0
H850 H 0.35252 0.91517 0.70996 0.0
H851 H 0.40162 0.88961 0.71983 0.0
H852 H 0.53063 0.86149 0.64702 0.0
H853 H 0.55842 0.83465 0.65658 0.0
H854 H 0.39171 0.88825 0.6455 0.0
H855 H 0.35989 0.91502 0.65505 0.0
C856 C 0.09031 0.11131 0.44438 0.0
C857 C 0.09196 0.09782 0.43094 0.0
C858 C 0.19272 0.1318 0.41804 0.0
C859 C 0.1809 0.14596 0.43114 0.0
N860 N 0.09589 0.151 0.45586 0.0
N861 N 0.1217 0.09657 0.40433 0.0
C862 C 0.12318 0.13624 0.44406 0.0
C863 C 0.13669 0.10844 0.41757 0.0
N864 N 0.06384 0.1001 0.45759 0.0
N865 N 0.26246 0.14015 0.40629 0.0
H866 H 0.07912 0.07959 0.40347 0.0
H867 H 0.14021 0.10452 0.39404 0.0
H868 H 0.30695 0.157 0.40624 0.0
H869 H 0.28612 0.12949 0.39714 0.0
H870 H 0.07503 0.10846 0.46789 0.0
H871 H 1.04244 0.08172 0.45844 0.0
H872 H 1.04155 0.14549 0.46492 0.0
H873 H 0.117 0.16946 0.45598 0.0
C874 C 0.71988 0.63468 0.419 0.0
C875 C 0.74937 0.64656 0.43256 0.0
C876 C 0.72823 0.608 0.44589 0.0
C877 C 0.68212 0.59694 0.43269 0.0
N878 N 0.60858 0.60155 0.4073 0.0
N879 N 0.75814 0.64546 0.45942 0.0
C880 C 0.67129 0.61071 0.41938 0.0
C881 C 0.7475 0.63349 0.44617 0.0
N882 N 0.74257 0.64588 0.40569 0.0
N883 N 0.75838 0.59412 0.45801 0.0
H884 H 0.76842 0.6642 0.46018 0.0
H885 H 0.74384 0.6371 0.46968 0.0
H886 H 0.75039 0.57529 0.4581 0.0
H887 H 0.80408 0.601 0.46738 0.0
H888 H 0.73493 0.63703 0.39549 0.0
H889 H 0.78222 0.66311 0.40486 0.0
H890 H 0.58698 0.61188 0.39791 0.0
H891 H 0.56576 0.58456 0.40722 0.0
C892 C 0.06722 0.60543 0.31011 0.0
C893 C 0.19809 0.60048 0.30768 0.0
C894 C 0.23492 0.64341 0.30232 0.0
C895 C 0.10768 0.64869 0.30635 0.0
N896 N 0.90991 0.63531 0.31717 0.0
N897 N 0.41194 0.61576 0.30503 0.0
C898 C 1.02546 0.62988 0.31107 0.0
C899 C 0.28364 0.61973 0.30474 0.0
N900 N 0.98158 0.58692 0.31095 0.0
N901 N 0.30822 0.66074 0.2957 0.0
H902 H 0.45252 0.599 0.30756 0.0
H903 H 0.47829 0.6297 0.30442 0.0
H904 H 0.275 0.67815 0.29329 0.0
H905 H 0.39733 0.65708 0.29118 0.0
H906 H 0.88361 0.58969 0.31099 0.0
H907 H 1.00709 0.56872 0.31021 0.0
H908 H 0.85242 0.62241 0.32226 0.0
H909 H 0.87674 0.65299 0.31855 0.0
C910 C 0.69893 0.11266 0.32155 0.0
C911 C 0.70804 0.09989 0.30789 0.0
C912 C 0.6515 0.13672 0.29414 0.0
C913 C 0.63081 0.14889 0.30783 0.0
N914 N 0.61491 0.14766 0.3346 0.0
N915 N 0.66763 0.09821 0.28145 0.0
C916 C 0.64923 0.13667 0.32157 0.0
C917 C 0.67744 0.11148 0.29424 0.0
N918 N 0.74236 0.10223 0.33441 0.0
N919 N 0.65207 0.14945 0.28107 0.0
H920 H 0.68262 0.07953 0.28105 0.0
H921 H 0.63223 0.10528 0.27151 0.0
H922 H 0.63638 0.1681 0.2805 0.0
H923 H 0.68051 0.14197 0.27097 0.0
H924 H 0.75109 0.1116 0.34441 0.0
H925 H 0.78033 0.08476 0.33483 0.0
H926 H 0.61314 0.13872 0.34481 0.0
H927 H 0.57736 0.16516 0.33507 0.0
C928 C 0.28143 0.50127 0.11054 0.0
C929 C 0.15623 0.49526 0.10579 0.0
C930 C 0.09787 0.48614 0.13165 0.0
C931 C 0.2191 0.49419 0.13648 0.0
N932 N 0.4219 0.51201 0.13093 0.0
N933 N 0.93863 0.48667 0.11213 0.0
C934 C 0.30954 0.50253 0.12603 0.0
C935 C 0.06273 0.4888 0.11643 0.0
N936 N 0.3751 0.50488 0.10027 0.0
N937 N 1.0163 0.47584 0.14161 0.0
H938 H 0.90861 0.48957 0.10122 0.0
H939 H 0.86375 0.48451 0.11956 0.0
H940 H 1.03752 0.47408 0.15288 0.0
H941 H 0.93235 0.46725 0.13853 0.0
H942 H 0.47097 0.50633 0.10298 0.0
H943 H 0.35911 0.50446 0.08885 0.0
H944 H 0.4853 0.5212 0.12409 0.0
H945 H 0.44825 0.51209 0.14212 0.0
C946 C 0.067 0.75478 0.10949 0.0
C947 C 0.19338 0.75405 0.10399 0.0
C948 C 0.27657 0.75533 0.12948 0.0
C949 C 0.15033 0.75443 0.13499 0.0
N950 N 0.92573 0.7501 0.13061 0.0
N951 N 0.4182 0.74996 0.10846 0.0
C952 C 1.04543 0.75343 0.12509 0.0
C953 C 0.2983 0.75349 0.11391 0.0
N954 N 0.96773 0.75712 0.09976 0.0
N955 N 0.37559 0.75821 0.13917 0.0
H956 H 0.43733 0.74821 0.09714 0.0
H957 H 0.49753 0.74678 0.11513 0.0
H958 H 0.36339 0.75854 0.15066 0.0
H959 H 0.4683 0.7619 0.13588 0.0
H960 H 0.87455 0.76062 0.10299 0.0
H961 H 0.97996 0.75712 0.08827 0.0
H962 H 0.84656 0.74655 0.12402 0.0
H963 H 0.90656 0.74907 0.14197 0.0
C964 C 1.02939 0.5118 0.86015 0.0
C965 C 0.9071 0.50501 0.85501 0.0
C966 C 0.83554 0.49961 0.88075 0.0
C967 C 0.96121 0.50422 0.88584 0.0
N968 N 0.18227 0.51087 0.88037 0.0
N969 N 0.69652 0.49019 0.85997 0.0
C970 C 0.05933 0.50948 0.87554 0.0
C971 C 0.81071 0.49837 0.8652 0.0
N972 N 0.11646 0.5207 0.85031 0.0
N973 N 0.73911 0.49708 0.8908 0.0
H974 H 0.67325 0.48996 0.84868 0.0
H975 H 0.62779 0.48222 0.86668 0.0
H976 H 0.75364 0.4973 0.90226 0.0
H977 H 0.64343 0.49657 0.88787 0.0
H978 H 0.20243 0.52839 0.85351 0.0
H979 H 0.09826 0.5222 0.83894 0.0
H980 H 0.26001 0.51224 0.87328 0.0
H981 H 0.20779 0.50836 0.89147 0.0
C982 C 0.88405 0.23238 0.86079 0.0
C983 C 0.97207 0.24853 0.85414 0.0
C984 C 1.02401 0.26441 0.87892 0.0
C985 C 0.923 0.25062 0.88523 0.0
N986 N 0.7327 0.22727 0.88061 0.0
N987 N 0.11095 0.28302 0.85675 0.0
C988 C 0.84614 0.23622 0.87573 0.0
C989 C 1.03649 0.26567 0.86315 0.0
N990 N 0.83592 0.21327 0.85299 0.0
N991 N 0.11332 0.27507 0.8878 0.0
H992 H 0.12784 0.28396 0.84534 0.0
H993 H 0.14797 0.2976 0.8627 0.0
H994 H 0.11434 0.27366 0.89934 0.0
H995 H 0.19547 0.28303 0.88362 0.0
H996 H 0.78123 0.19977 0.85793 0.0
H997 H 0.86033 0.20953 0.84204 0.0
H998 H 0.66813 0.21865 0.8736 0.0
H999 H 0.69552 0.23113 0.89107 0.0
C1000 C 0.24922 0.01041 0.60915 0.0
C1001 C 0.1426 0.99713 0.6037 0.0
C1002 C 0.12106 0.97837 0.6283 0.0
C1003 C 0.2124 0.99454 0.63429 0.0
N1004 N 0.3505 0.02885 0.63053 0.0
N1005 N 0.95497 0.97428 0.61006 0.0
C1006 C 0.27168 0.01161 0.62477 0.0
C1007 C 0.07255 0.98263 0.61381 0.0
N1008 N 0.33418 0.02064 0.59955 0.0
N1009 N 0.07888 0.95902 0.63634 0.0
H1010 H 0.90972 0.97935 0.60025 0.0
H1011 H 0.89578 0.96538 0.61756 0.0
H1012 H 0.11277 0.95477 0.64689 0.0
H1013 H 1.02027 0.94573 0.63181 0.0
H1014 H 0.41924 0.02838 0.60307 0.0
H1015 H 0.32894 0.01885 0.58805 0.0
H1016 H 0.38448 0.04334 0.62426 0.0
H1017 H 0.37426 0.02974 0.64178 0.0
C1018 C 0.06838 0.24275 0.60853 0.0
C1019 C 0.1801 0.25453 0.6034 0.0
C1020 C 0.21263 0.27089 0.62847 0.0
C1021 C 0.11797 0.25504 0.6341 0.0
N1022 N 0.95704 0.22492 0.62938 0.0
N1023 N 0.37171 0.2764 0.60952 0.0
C1024 C 1.04672 0.24055 0.6241 0.0
C1025 C 0.25519 0.26791 0.6136 0.0
N1026 N 0.97885 0.23498 0.59859 0.0
N1027 N 0.26341 0.28869 0.63718 0.0
H1028 H 0.41073 0.27322 0.5991 0.0
H1029 H 0.43552 0.28405 0.61704 0.0
H1030 H 0.24015 0.29119 0.64832 0.0
H1031 H 0.3222 0.30219 0.63294 0.0
H1032 H 0.89051 0.22833 0.60179 0.0
H1033 H 0.98593 0.23792 0.58717 0.0
H1034 H 0.91329 0.21192 0.62274 0.0
H1035 H 0.93153 0.22399 0.64058 0.0
C1036 C 0.79297 0.00412 0.37915 0.0
C1037 C 0.92026 0.00281 0.38439 0.0
C1038 C 0.99829 0.0027 0.35868 0.0
C1039 C 0.87074 0.00244 0.35347 0.0
N1040 N 0.64668 -0.00052 0.35843 0.0
N1041 N 0.14353 0.99757 0.3795 0.0
C1042 C 0.76793 0.00235 0.36362 0.0
C1043 C 1.02299 0.00136 0.37425 0.0
N1044 N 0.69612 0.0074 0.38905 0.0
N1045 N 0.09578 0.00456 0.34873 0.0
H1046 H 0.165 0.99658 0.39081 0.0
H1047 H 0.22103 0.99362 0.37273 0.0
H1048 H 0.08144 0.00449 0.33726 0.0
H1049 H 0.1898 0.00772 0.35174 0.0
H1050 H 0.60297 0.01141 0.38598 0.0
H1051 H 0.71078 0.0077 0.4005 0.0
H1052 H 0.56826 0.99673 0.36525 0.0
H1053 H 0.6253 0.99791 0.34714 0.0
C1054 C 1.01231 0.76129 0.36315 0.0
C1055 C 0.93695 0.74609 0.35401 0.0
C1056 C 0.80964 0.73491 0.37567 0.0
C1057 C 0.89406 0.74761 0.38515 0.0
N1058 N 0.09901 0.76682 0.3878 0.0
N1059 N 0.78981 0.71245 0.35285 0.0
C1060 C 1.00178 0.75932 0.37889 0.0
C1061 C 0.84431 0.7309 0.36066 0.0
N1062 N 0.09619 0.77715 0.35691 0.0
N1063 N 0.6932 0.7277 0.38067 0.0
H1064 H 0.81357 0.70842 0.34192 0.0
H1065 H 0.73016 0.69973 0.3578 0.0
H1066 H 0.65906 0.73198 0.39123 0.0
H1067 H 0.62469 0.72021 0.37367 0.0
H1068 H 0.14349 0.79034 0.36308 0.0
H1069 H 0.11195 0.77826 0.34548 0.0
H1070 H 0.18422 0.77363 0.38369 0.0
H1071 H 0.10148 0.76316 0.39914 0.0
C1072 C 0.54652 0.4953 0.61463 0.0
C1073 C 0.65205 0.49518 0.60482 0.0
C1074 C 0.79848 0.49629 0.62617 0.0
C1075 C 0.6934 0.49458 0.63595 0.0
N1076 N 0.46821 0.49037 0.63984 0.0
N1077 N 0.87845 0.49259 0.60103 0.0
C1078 C 0.56751 0.49352 0.63026 0.0
C1079 C 0.7781 0.49493 0.61054 0.0
N1080 N 0.42644 0.49806 0.60899 0.0
N1081 N 0.91746 0.50009 0.63184 0.0
H1082 H 0.86739 0.49199 0.58955 0.0
H1083 H 0.97155 0.48944 0.60446 0.0
H1084 H 0.93623 0.50084 0.64323 0.0
H1085 H 0.99608 0.50436 0.62535 0.0
H1086 H 0.34625 0.50091 0.61552 0.0
H1087 H 0.40745 0.49933 0.59761 0.0
H1088 H 0.3758 0.48655 0.63646 0.0
H1089 H 0.47984 0.49007 0.65135 0.0
C1090 C 0.58262 0.74102 0.61036 0.0
C1091 C 0.69542 0.75143 0.60456 0.0
C1092 C 0.74591 0.76681 0.62941 0.0
C1093 C 0.64667 0.75255 0.63553 0.0
N1094 N 0.47716 0.72375 0.63175 0.0
N1095 N 0.89888 0.76999 0.60952 0.0
C1096 C 0.56785 0.73871 0.62599 0.0
C1097 C 0.78101 0.76329 0.61432 0.0
N1098 N 0.48509 0.73511 0.60105 0.0
N1099 N 0.80696 0.78375 0.63785 0.0
H1100 H 0.93209 0.76637 0.59882 0.0
H1101 H 0.96878 0.77658 0.61666 0.0
H1102 H 0.7872 0.78671 0.64905 0.0
H1103 H 0.87071 0.79617 0.63335 0.0
H1104 H 0.39664 0.72927 0.60477 0.0
H1105 H 0.48697 0.73939 0.58979 0.0
H1106 H 0.42676 0.71143 0.62525 0.0
H1107 H 0.45838 0.72242 0.6431 0.0
C1108 C 0.49298 0.51585 0.36073 0.0
C1109 C 0.38605 0.50299 0.35526 0.0
C1110 C 0.3347 0.49031 0.38081 0.0
C1111 C 0.44965 0.50097 0.38601 0.0
N1112 N 0.65299 0.51838 0.37993 0.0
N1113 N 0.21114 0.47599 0.35975 0.0
C1114 C 0.53233 0.51244 0.37572 0.0
C1115 C 0.30897 0.48956 0.36521 0.0
N1116 N 0.55862 0.53119 0.35162 0.0
N1117 N 0.24738 0.48175 0.39074 0.0
H1118 H 0.1847 0.47626 0.34857 0.0
H1119 H 0.16123 0.46341 0.36608 0.0
H1120 H 0.26109 0.48194 0.40221 0.0
H1121 H 0.15602 0.47646 0.38774 0.0
H1122 H 0.62769 0.54309 0.35552 0.0
H1123 H 0.53783 0.53351 0.34038 0.0
H1124 H 0.72214 0.52438 0.37252 0.0
H1125 H 0.68893 0.51444 0.39043 0.0
C1126 C 0.47792 0.22525 0.37859 0.0
C1127 C 0.379 0.2401 0.38433 0.0
C1128 C 0.32845 0.25333 0.35897 0.0
C1129 C 0.44244 0.24236 0.35375 0.0
N1130 N 0.63903 0.22173 0.35968 0.0
N1131 N 0.2154 0.27015 0.38 0.0
C1132 C 0.52032 0.22913 0.36381 0.0
C1133 C 0.30621 0.25482 0.37453 0.0
N1134 N 0.53331 0.20767 0.38716 0.0
N1135 N 0.23779 0.26106 0.34912 0.0
H1136 H 0.19156 0.271 0.39124 0.0
H1137 H 0.16994 0.28318 0.37347 0.0
H1138 H 0.24573 0.25869 0.33765 0.0
H1139 H 0.14818 0.26708 0.35239 0.0
H1140 H 0.59596 0.19481 0.38284 0.0
H1141 H 0.51034 0.20468 0.39827 0.0
H1142 H 0.70436 0.21419 0.36711 0.0
H1143 H 0.67776 0.22579 0.34935 0.0
C1144 C 0.75982 0.98289 0.12478 0.0
C1145 C 0.69289 0.99843 0.13466 0.0
C1146 C 0.5678 0.01363 0.11339 0.0
C1147 C 0.62515 0.99608 0.10397 0.0
N1148 N 0.75051 0.95912 0.10236 0.0
N1149 N 0.50596 0.02353 0.13853 0.0
C1150 C 0.71188 0.979 0.11021 0.0
C1151 C 0.58934 0.01249 0.12903 0.0
N1152 N 0.87398 0.97298 0.12882 0.0
N1153 N 0.49091 0.03125 0.10755 0.0
H1154 H 0.51088 0.02193 0.15005 0.0
H1155 H 0.42217 0.03182 0.13495 0.0
H1156 H 0.46514 0.03196 0.09636 0.0
H1157 H 0.45963 0.04612 0.1137 0.0
H1158 H 0.93166 0.96349 0.1214 0.0
H1159 H 0.91892 0.97676 0.13887 0.0
H1160 H 0.80315 0.94511 0.10718 0.0
H1161 H 0.72172 0.95543 0.09154 0.0
C1162 C 0.73911 0.2665 0.11467 0.0
C1163 C 0.65891 0.25542 0.10398 0.0
C1164 C 0.50706 0.24512 0.12375 0.0
C1165 C 0.58466 0.25732 0.13417 0.0
N1166 N 0.75339 0.28581 0.13874 0.0
N1167 N 0.45002 0.2401 0.09785 0.0
C1168 C 0.69369 0.27007 0.12936 0.0
C1169 C 0.53789 0.24639 0.10836 0.0
N1170 N 0.86147 0.27227 0.11114 0.0
N1171 N 0.40455 0.23219 0.12854 0.0
H1172 H 0.46642 0.24164 0.08647 0.0
H1173 H 0.35627 0.23577 0.10037 0.0
H1174 H 0.37475 0.23222 0.1396 0.0
H1175 H 0.35349 0.22049 0.1217 0.0
H1176 H 0.9278 0.27807 0.11897 0.0
H1177 H 0.9008 0.26871 0.10075 0.0
H1178 H 0.82692 0.29715 0.13538 0.0
H1179 H 0.71969 0.28957 0.14938 0.0
C1180 C 0.29463 0.99224 0.86464 0.0
C1181 C 0.36796 0.00606 0.85453 0.0
C1182 C 0.50898 0.01864 0.87492 0.0
C1183 C 0.432 0.0057 0.88523 0.0
N1184 N 0.23467 0.98479 0.89019 0.0
N1185 N 0.53352 0.0353 0.8501 0.0
C1186 C 0.32018 0.99375 0.88016 0.0
C1187 C 0.47083 0.02033 0.85972 0.0
N1188 N 0.20089 0.97741 0.85939 0.0
N1189 N 0.62288 0.02803 0.87939 0.0
H1190 H 0.5151 0.03589 0.8387 0.0
H1191 H 0.598 0.04844 0.85352 0.0
H1192 H 0.65557 0.0273 0.89029 0.0
H1193 H 0.69057 0.03483 0.87208 0.0
H1194 H 0.15595 0.96438 0.86589 0.0
H1195 H 0.1729 0.97708 0.84826 0.0
H1196 H 0.14485 0.97855 0.88724 0.0
H1197 H 0.24705 0.98577 0.90167 0.0
C1198 C 0.50904 0.76431 0.86266 0.0
C1199 C 0.44057 0.74804 0.8535 0.0
C1200 C 0.30671 0.73685 0.87461 0.0
C1201 C 0.38603 0.75041 0.88432 0.0
N1202 N 0.57654 0.77474 0.88751 0.0
N1203 N 0.28789 0.71578 0.85118 0.0
C1204 C 0.49034 0.76376 0.87834 0.0
C1205 C 0.34412 0.73329 0.85963 0.0
N1206 N 0.59334 0.78014 0.85641 0.0
N1207 N 0.19147 0.72859 0.8794 0.0
H1208 H 0.31149 0.71284 0.8401 0.0
H1209 H 0.22662 0.70282 0.85555 0.0
H1210 H 0.15557 0.73223 0.88996 0.0
H1211 H 0.12476 0.72071 0.87234 0.0
H1212 H 0.63289 0.79464 0.86219 0.0
H1213 H 0.61773 0.77982 0.84517 0.0
H1214 H 0.66153 0.78212 0.88375 0.0
H1215 H 0.57217 0.7744 0.89906 0.0
C1216 C 0.17266 0.63627 0.07099 0.0
C1217 C 0.18963 0.64878 0.05733 0.0
C1218 C 0.15928 0.61064 0.04367 0.0
C1219 C 0.154 0.59791 0.05739 0.0
N1220 N 0.18276 0.5979 0.08403 0.0
N1221 N 0.22158 0.64732 0.03075 0.0
C1222 C 0.1683 0.61053 0.07103 0.0
C1223 C 0.18889 0.63583 0.04366 0.0
N1224 N 0.15471 0.64898 0.08387 0.0
N1225 N 0.13103 0.59894 0.03068 0.0
H1226 H 0.24559 0.66562 0.03027 0.0
H1227 H 0.23613 0.63827 0.02073 0.0
H1228 H 0.10866 0.58056 0.03021 0.0
H1229 H 0.11916 0.60785 0.02055 0.0
H1230 H 0.12838 0.64087 0.09387 0.0
H1231 H 0.15313 0.66787 0.0843 0.0
H1232 H 0.20708 0.60605 0.09409 0.0
H1233 H 0.18347 0.57901 0.08453 0.0
C1234 C 0.12659 0.63655 0.16928 0.0
C1235 C 0.14768 0.6502 0.18244 0.0
C1236 C 0.2124 0.6131 0.19554 0.0
C1237 C 0.1794 0.5992 0.18281 0.0
N1238 N 0.08073 0.59726 0.15859 0.0
N1239 N 0.18551 0.65084 0.20894 0.0
C1240 C 0.12936 0.61081 0.16997 0.0
C1241 C 0.18349 0.63831 0.19583 0.0
N1242 N 0.11025 0.64811 0.15594 0.0
N1243 N 0.27751 0.60262 0.20707 0.0
H1244 H 0.16301 0.66922 0.2097 0.0
H1245 H 0.1974 0.64251 0.21926 0.0
H1246 H 0.30421 0.58442 0.20723 0.0
H1247 H 0.31608 0.61252 0.21584 0.0
H1248 H 0.10802 0.63905 0.14578 0.0
H1249 H 0.11209 0.66691 0.1548 0.0
H1250 H 1.03088 0.60475 0.14966 0.0
H1251 H 0.07887 0.57837 0.15878 0.0
C1252 C 0.96972 0.36264 0.91947 0.0
C1253 C 0.95568 0.3496 0.93297 0.0
C1254 C 0.97399 0.38739 0.94718 0.0
C1255 C 0.97496 0.4006 0.93364 0.0
N1256 N 0.96381 0.40145 0.9068 0.0
N1257 N 0.9237 0.34963 0.95958 0.0
C1258 C 0.96926 0.38841 0.91974 0.0
C1259 C 0.95343 0.36193 0.94684 0.0
N1260 N 0.9896 0.35033 0.90646 0.0
N1261 N 0.99211 0.39917 0.9604 0.0
H1262 H 0.90534 0.33109 0.95985 0.0
H1263 H 0.90613 0.35809 0.96973 0.0
H1264 H 0.99982 0.41797 0.96122 0.0
H1265 H 1.00793 0.39024 0.97045 0.0
H1266 H 1.01383 0.35868 0.89647 0.0
H1267 H 0.9937 0.33146 0.90589 0.0
H1268 H 0.9437 0.39378 0.89648 0.0
H1269 H 0.97184 0.42027 0.9064 0.0
C1270 C 0.85013 0.38574 0.79572 0.0
C1271 C 0.88856 0.3991 0.80845 0.0
C1272 C 0.93609 0.36102 0.82143 0.0
C1273 C 0.91504 0.34796 0.80806 0.0
N1274 N 0.87645 0.34887 0.78151 0.0
N1275 N 0.99507 0.39938 0.83232 0.0
C1276 C 0.87832 0.36053 0.79492 0.0
C1277 C 0.93872 0.38674 0.82103 0.0
N1278 N 0.78213 0.39676 0.78463 0.0
N1279 N 0.94941 0.34894 0.83463 0.0
H1280 H 1.00582 0.41815 0.83217 0.0
H1281 H 1.04399 0.391 0.84102 0.0
H1282 H 0.94274 0.33014 0.83553 0.0
H1283 H 0.95269 0.35773 0.84488 0.0
H1284 H 0.74115 0.38724 0.77585 0.0
H1285 H 0.75466 0.41492 0.78499 0.0
H1286 H 0.86357 0.35791 0.77143 0.0
H1287 H 0.90063 0.33067 0.78022 0.0
C1288 C 0.22102 0.11031 0.54348 0.0
C1289 C 0.17691 0.09853 0.55652 0.0
C1290 C 0.18059 0.13717 0.57002 0.0
C1291 C 0.21331 0.14923 0.55662 0.0
N1292 N 0.25152 0.14816 0.53019 0.0
N1293 N 0.09177 0.10126 0.58142 0.0
C1294 C 0.22912 0.13606 0.5432 0.0
C1295 C 0.15148 0.11203 0.56964 0.0
N1296 N 0.26061 0.09681 0.53159 0.0
N1297 N 0.17651 0.14976 0.58312 0.0
H1298 H 0.06502 0.0831 0.58152 0.0
H1299 H 0.05769 0.1108 0.59058 0.0
H1300 H 0.18916 0.16846 0.58376 0.0
H1301 H 0.16891 0.14145 0.59349 0.0
H1302 H 0.30612 0.10411 0.52235 0.0
H1303 H 0.25861 0.07791 0.53151 0.0
H1304 H 0.24939 0.13991 0.51978 0.0
H1305 H 0.26395 0.16689 0.52965 0.0
C1306 C 0.20122 0.13448 0.6656 0.0
C1307 C 0.17727 0.14712 0.67905 0.0
C1308 C 0.18758 0.10885 0.69286 0.0
C1309 C 0.19439 0.09601 0.67921 0.0
N1310 N 0.18714 0.09639 0.65235 0.0
N1311 N 0.12102 0.14563 0.70516 0.0
C1312 C 0.19592 0.10876 0.66549 0.0
C1313 C 0.16363 0.13418 0.69263 0.0
N1314 N 0.23309 0.147 0.65302 0.0
N1315 N 0.20927 0.09716 0.70605 0.0
H1316 H 0.09724 0.16395 0.70552 0.0
H1317 H 0.09662 0.13637 0.71485 0.0
H1318 H 0.23113 0.07875 0.70677 0.0
H1319 H 0.21885 0.10625 0.71614 0.0
H1320 H 0.26373 0.13863 0.64328 0.0
H1321 H 0.24169 0.16583 0.65278 0.0
H1322 H 0.17446 0.10489 0.6421 0.0
H1323 H 0.17996 0.07756 0.65179 0.0
C1324 C 0.87799 0.86101 0.44508 0.0
C1325 C 0.89381 0.84775 0.43168 0.0
C1326 C 0.91873 0.88562 0.41781 0.0
C1327 C 0.91719 0.89866 0.43141 0.0
N1328 N 0.91775 0.89846 0.45829 0.0
N1329 N 0.95199 0.84693 0.40572 0.0
C1330 C 0.90258 0.88631 0.44515 0.0
C1331 C 0.92027 0.85991 0.41814 0.0
N1332 N 0.83436 0.84969 0.4576 0.0
N1333 N 0.91359 0.89778 0.40455 0.0
H1334 H 0.95682 0.82804 0.40558 0.0
H1335 H 0.98545 0.8549 0.39598 0.0
H1336 H 0.90848 0.91663 0.40382 0.0
H1337 H 0.9013 0.88917 0.39434 0.0
H1338 H 0.80802 0.85899 0.4672 0.0
H1339 H 0.8127 0.83128 0.45798 0.0
H1340 H 0.92228 0.8898 0.46858 0.0
H1341 H 0.93757 0.91693 0.45887 0.0
C1342 C 0.82915 0.86167 0.31811 0.0
C1343 C 0.87257 0.84886 0.30541 0.0
C1344 C 0.88676 0.88705 0.29149 0.0
C1345 C 0.85821 0.89993 0.3047 0.0
N1346 N 0.81242 0.90012 0.331 0.0
N1347 N 0.96413 0.84965 0.28073 0.0
C1348 C 0.83274 0.88742 0.31815 0.0
C1349 C 0.90597 0.86156 0.29221 0.0
N1350 N 0.77934 0.84921 0.32989 0.0
N1351 N 0.89599 0.89918 0.27826 0.0
H1352 H 0.98446 0.83117 0.28087 0.0
H1353 H 1.00335 0.85848 0.27159 0.0
H1354 H 0.88809 0.91799 0.2774 0.0
H1355 H 0.90192 0.89047 0.268 0.0
H1356 H 0.73438 0.85752 0.33885 0.0
H1357 H 0.77155 0.83037 0.33005 0.0
H1358 H 0.80858 0.89206 0.34147 0.0
H1359 H 0.80765 0.919 0.33137 0.0
C1360 C 0.56861 0.61262 0.56514 0.0
C1361 C 0.66676 0.59696 0.55996 0.0
C1362 C 0.79735 0.63253 0.55408 0.0
C1363 C 0.70457 0.64774 0.5607 0.0
N1364 N 0.51784 0.65164 0.57592 0.0
N1365 N 0.88612 0.59218 0.55238 0.0
C1366 C 0.59489 0.63759 0.56725 0.0
C1367 C 0.7845 0.60694 0.55521 0.0
N1368 N 0.44808 0.60412 0.5672 0.0
N1369 N 0.8956 0.64245 0.54626 0.0
H1370 H 0.88305 0.57342 0.55342 0.0
H1371 H 0.9774 0.59869 0.55046 0.0
H1372 H 0.90879 0.66109 0.54519 0.0
H1373 H 0.95754 0.63221 0.53975 0.0
H1374 H 0.3713 0.61541 0.56964 0.0
H1375 H 0.42102 0.58643 0.56475 0.0
H1376 H 0.44281 0.64464 0.58212 0.0
H1377 H 0.5382 0.66972 0.57825 0.0
C1378 C 0.69799 0.60941 0.69678 0.0
C1379 C 0.71929 0.59656 0.68336 0.0
C1380 C 0.74277 0.63485 0.66988 0.0
C1381 C 0.70658 0.64761 0.68287 0.0
N1382 N 0.62652 0.64677 0.7081 0.0
N1383 N 0.73725 0.59683 0.65656 0.0
C1384 C 0.67847 0.63489 0.69622 0.0
C1385 C 0.73539 0.6092 0.66974 0.0
N1386 N 0.70063 0.59747 0.71012 0.0
N1387 N 0.7874 0.64721 0.65779 0.0
H1388 H 0.72704 0.57807 0.65587 0.0
H1389 H 0.73551 0.60536 0.64621 0.0
H1390 H 0.79677 0.66603 0.65761 0.0
H1391 H 0.82718 0.6387 0.64855 0.0
H1392 H 0.6997 0.60635 0.72034 0.0
H1393 H 0.7156 0.57883 0.71103 0.0
H1394 H 0.59109 0.63786 0.71743 0.0
H1395 H 0.60764 0.66532 0.70816 0.0
C1396 C 0.5288 0.38185 0.44089 0.0
C1397 C 0.48012 0.39563 0.42878 0.0
C1398 C 0.4395 0.35837 0.41482 0.0
C1399 C 0.47411 0.34448 0.42754 0.0
N1400 N 0.60661 0.34293 0.44951 0.0
N1401 N 0.37778 0.39751 0.40482 0.0
C1402 C 0.53417 0.35611 0.43977 0.0
C1403 C 0.43332 0.38403 0.41586 0.0
N1404 N 0.56948 0.39333 0.4535 0.0
N1405 N 0.42345 0.34711 0.40141 0.0
H1406 H 0.37139 0.41638 0.4052 0.0
H1407 H 0.32814 0.38996 0.39594 0.0
H1408 H 0.44349 0.32876 0.39986 0.0
H1409 H 0.40823 0.35632 0.39145 0.0
H1410 H 0.58954 0.38435 0.46343 0.0
H1411 H 0.5753 0.41212 0.45446 0.0
H1412 H 0.65987 0.35054 0.45807 0.0
H1413 H 0.63058 0.32487 0.44773 0.0
C1414 C 0.47092 0.36167 0.29429 0.0
C1415 C 0.48504 0.349 0.30794 0.0
C1416 C 0.4911 0.38755 0.32141 0.0
C1417 C 0.46107 0.4 0.30804 0.0
N1418 N 0.39925 0.39836 0.28211 0.0
N1419 N 0.48548 0.34953 0.33481 0.0
C1420 C 0.44536 0.38698 0.29453 0.0
C1421 C 0.48933 0.36183 0.3216 0.0
N1422 N 0.48617 0.34974 0.28108 0.0
N1423 N 0.52502 0.4003 0.33383 0.0
H1424 H 0.48004 0.33069 0.33549 0.0
H1425 H 0.47468 0.35806 0.34507 0.0
H1426 H 0.53071 0.41917 0.334 0.0
H1427 H 0.56007 0.39213 0.34346 0.0
H1428 H 0.49078 0.35861 0.27085 0.0
H1429 H 0.50648 0.33126 0.28041 0.0
H1430 H 0.37275 0.38911 0.2725 0.0
H1431 H 0.37578 0.41671 0.28178 0.0
C1432 C 0.66404 0.11132 0.04461 0.0
C1433 C 0.65592 0.09864 0.05834 0.0
C1434 C 0.67165 0.13716 0.07184 0.0
C1435 C 0.69377 0.14944 0.05819 0.0
N1436 N 0.73373 0.14753 0.03178 0.0
N1437 N 0.67424 0.09891 0.08511 0.0
C1438 C 0.69606 0.13635 0.04461 0.0
C1439 C 0.66575 0.1114 0.07199 0.0
N1440 N 0.63522 0.0998 0.03157 0.0
N1441 N 0.65048 0.1501 0.08457 0.0
H1442 H 0.67253 0.08003 0.0857 0.0
H1443 H 0.69524 0.10711 0.09525 0.0
H1444 H 0.65013 0.16899 0.08488 0.0
H1445 H 0.62056 0.14222 0.09449 0.0
H1446 H 0.62611 0.10882 0.02143 0.0
H1447 H 0.60787 0.08169 0.03104 0.0
H1448 H 0.7507 0.13822 0.0219 0.0
H1449 H 0.75977 0.16573 0.0313 0.0
C1450 C 0.57448 0.13928 0.17394 0.0
C1451 C 0.66005 0.15371 0.18233 0.0
C1452 C 0.7824 0.11742 0.18901 0.0
C1453 C 0.68895 0.10274 0.182 0.0
N1454 N 0.48623 0.09937 0.16963 0.0
N1455 N 0.83494 0.15658 0.19956 0.0
C1456 C 0.58239 0.11358 0.17492 0.0
C1457 C 0.76127 0.14281 0.19033 0.0
N1458 N 0.48876 0.15011 0.16458 0.0
N1459 N 0.89445 0.10736 0.19373 0.0
H1460 H 0.82336 0.17528 0.20067 0.0
H1461 H 0.90043 0.14924 0.20703 0.0
H1462 H 0.91634 0.08904 0.19252 0.0
H1463 H 0.97114 0.11756 0.19748 0.0
H1464 H 0.43343 0.14056 0.15699 0.0
H1465 H 0.48115 0.16887 0.16336 0.0
H1466 H 0.39991 0.10629 0.16582 0.0
H1467 H 0.48774 0.0805 0.17028 0.0
C1468 C 0.43634 0.86065 0.91753 0.0
C1469 C 0.39941 0.84862 0.93076 0.0
C1470 C 0.37043 0.8877 0.94327 0.0
C1471 C 0.41893 0.89963 0.93051 0.0
N1472 N 0.52136 0.89717 0.90649 0.0
N1473 N 0.34509 0.84999 0.95682 0.0
C1474 C 0.45737 0.88609 0.91783 0.0
C1475 C 0.37124 0.86194 0.94384 0.0
N1476 N 0.45157 0.84777 0.90465 0.0
N1477 N 0.31792 0.90099 0.95455 0.0
H1478 H 0.33892 0.83117 0.95755 0.0
H1479 H 0.33841 0.85859 0.9671 0.0
H1480 H 0.31205 0.91986 0.95433 0.0
H1481 H 0.26915 0.89336 0.96346 0.0
H1482 H 0.4631 0.85588 0.89427 0.0
H1483 H 0.44426 0.82893 0.90416 0.0
H1484 H 0.56404 0.88774 0.89778 0.0
H1485 H 0.54278 0.91558 0.90639 0.0
C1486 C 0.37691 0.86058 0.82113 0.0
C1487 C 0.41397 0.84851 0.80792 0.0
C1488 C 0.41074 0.88719 0.79443 0.0
C1489 C 0.38551 0.89955 0.80798 0.0
N1490 N 0.37718 0.89823 0.83487 0.0
N1491 N 0.49601 0.85103 0.78288 0.0
C1492 C 0.37745 0.88632 0.82153 0.0
C1493 C 0.43936 0.86199 0.7948 0.0
N1494 N 0.33747 0.84752 0.83319 0.0
N1495 N 0.40178 0.8991 0.78113 0.0
H1496 H 0.52151 0.83276 0.78276 0.0
H1497 H 0.52949 0.86061 0.7737 0.0
H1498 H 0.37629 0.9173 0.78019 0.0
H1499 H 0.4068 0.89031 0.77089 0.0
H1500 H 0.2965 0.85547 0.84255 0.0
H1501 H 0.33406 0.82863 0.83328 0.0
H1502 H 0.38362 0.88934 0.84508 0.0
H1503 H 0.38551 0.91699 0.83577 0.0
C1504 C 0.63817 0.51585 0.05132 0.0
C1505 C 0.71041 0.50071 0.06104 0.0
C1506 C 0.51459 0.4787 0.06772 0.0
C1507 C 0.44479 0.49271 0.05716 0.0
N1508 N 0.4429 0.52201 0.03732 0.0
N1509 N 0.71907 0.46769 0.0785 0.0
C1510 C 0.50743 0.51059 0.04855 0.0
C1511 C 0.64881 0.48208 0.06921 0.0
N1512 N 0.69323 0.53583 0.0451 0.0
N1513 N 0.45144 0.46271 0.07668 0.0
H1514 H 0.81435 0.47104 0.08079 0.0
H1515 H 0.68578 0.45193 0.08347 0.0
H1516 H 0.35394 0.45968 0.07592 0.0
H1517 H 0.4925 0.45364 0.08563 0.0
H1518 H 0.64254 0.54914 0.03938 0.0
H1519 H 0.78858 0.54021 0.04658 0.0
H1520 H 0.4862 0.53309 0.02945 0.0
H1521 H 0.3471 0.51887 0.0351 0.0
C1522 C 0.68252 0.76608 0.06689 0.0
C1523 C 0.61894 0.74757 0.05888 0.0
C1524 C 0.82304 0.73466 0.04799 0.0
C1525 C 0.88535 0.75426 0.05515 0.0
N1526 N 0.87147 0.79058 0.07008 0.0
N1527 N 0.62453 0.71611 0.04029 0.0
C1528 C 0.81399 0.77059 0.06416 0.0
C1529 C 0.6882 0.73237 0.04901 0.0
N1530 N 0.61836 0.77877 0.07757 0.0
N1531 N 0.89326 0.71794 0.04038 0.0
H1532 H 0.52649 0.71362 0.04083 0.0
H1533 H 0.66658 0.70648 0.03164 0.0
H1534 H 0.99083 0.7196 0.03896 0.0
H1535 H 0.85715 0.70166 0.03638 0.0
H1536 H 0.66209 0.79038 0.08511 0.0
H1537 H 0.52189 0.77634 0.07964 0.0
H1538 H 0.82174 0.8048 0.075 0.0
H1539 H 0.96901 0.79362 0.06951 0.0
C1540 C 0.6624 0.73393 0.18994 0.0
C1541 C 0.72958 0.74941 0.18004 0.0
C1542 C 0.53188 0.77188 0.17484 0.0
C1543 C 0.46285 0.75535 0.18392 0.0
N1544 N 0.45914 0.7192 0.1989 0.0
N1545 N 0.72659 0.78085 0.16147 0.0
C1546 C 0.5274 0.73595 0.1911 0.0
C1547 C 0.66383 0.76781 0.17209 0.0
N1548 N 0.72826 0.71767 0.19852 0.0
N1549 N 0.47175 0.79171 0.16894 0.0
H1550 H 0.82349 0.77881 0.15944 0.0
H1551 H 0.68157 0.79241 0.15396 0.0
H1552 H 0.37391 0.79447 0.16958 0.0
H1553 H 0.51944 0.80608 0.16397 0.0
H1554 H 0.68787 0.70781 0.20717 0.0
H1555 H 0.82642 0.71534 0.19785 0.0
H1556 H 0.49693 0.70305 0.20297 0.0
H1557 H 0.36148 0.72072 0.20048 0.0
C1558 C 0.87476 0.51132 0.17568 0.0
C1559 C 0.922 0.49175 0.18442 0.0
C1560 C 0.70307 0.48501 0.19345 0.0
C1561 C 0.65491 0.50195 0.18294 0.0
N1562 N 0.69711 0.52708 0.16153 0.0
N1563 N 0.87411 0.45875 0.20138 0.0
C1564 C 0.74156 0.51379 0.17329 0.0
C1565 C 0.83375 0.47804 0.19305 0.0
N1566 N 0.95518 0.52836 0.17016 0.0
N1567 N 0.62739 0.47703 0.2047 0.0
H1568 H 0.96908 0.45501 0.20364 0.0
H1569 H 0.81197 0.44597 0.20581 0.0
H1570 H 0.53487 0.483 0.20594 0.0
H1571 H 0.66027 0.46689 0.21372 0.0
H1572 H 0.92396 0.54389 0.16462 0.0
H1573 H 0.04988 0.52905 0.17321 0.0
H1574 H 0.75634 0.53402 0.15329 0.0
H1575 H 0.60069 0.5288 0.15908 0.0
C1576 C 0.59061 0.48549 0.94119 0.0
C1577 C 0.65271 0.50511 0.9341 0.0
C1578 C 0.4497 0.51765 0.92251 0.0
C1579 C 0.38664 0.49865 0.93017 0.0
N1580 N 0.39285 0.46588 0.94793 0.0
N1581 N 0.64802 0.53814 0.91651 0.0
C1582 C 0.45625 0.48288 0.93976 0.0
C1583 C 0.58373 0.52084 0.9244 0.0
N1584 N 0.66114 0.46885 0.94893 0.0
N1585 N 0.38035 0.53275 0.91353 0.0
H1586 H 0.74607 0.54046 0.91723 0.0
H1587 H 0.60751 0.54947 0.90857 0.0
H1588 H 0.28405 0.53015 0.91148 0.0
H1589 H 0.41504 0.54824 0.9084 0.0
H1590 H 0.62562 0.45256 0.95297 0.0
H1591 H 0.75889 0.47042 0.95039 0.0
H1592 H 0.4337 0.45584 0.95651 0.0
H1593 H 0.29586 0.46278 0.94681 0.0
C1594 C 0.44216 0.24841 0.9211 0.0
C1595 C 0.50641 0.2516 0.93493 0.0
C1596 C 0.30393 0.24437 0.94814 0.0
C1597 C 0.24012 0.2414 0.93437 0.0
N1598 N 0.25447 0.23436 0.90799 0.0
N1599 N 0.48902 0.25844 0.96148 0.0
C1600 C 0.31101 0.24168 0.92092 0.0
C1601 C 0.43446 0.25126 0.94839 0.0
N1602 N 0.50254 0.254 0.9081 0.0
N1603 N 0.2425 0.2387 0.96107 0.0
H1604 H 0.58487 0.26261 0.96259 0.0
H1605 H 0.43732 0.26188 0.97112 0.0
H1606 H 0.14823 0.23296 0.96135 0.0
H1607 H 0.28777 0.2374 0.97136 0.0
H1608 H 0.45692 0.25471 0.89781 0.0
H1609 H 0.59483 0.26067 0.90766 0.0
H1610 H 0.30427 0.23104 0.89819 0.0
H1611 H 0.15863 0.22978 0.90729 0.0
C1612 C 0.57985 0.24317 0.79409 0.0
C1613 C 0.64175 0.24316 0.80811 0.0
C1614 C 0.43401 0.24967 0.82032 0.0
C1615 C 0.37392 0.252 0.80613 0.0
N1616 N 0.4003 0.25659 0.77947 0.0
N1617 N 0.63023 0.25012 0.83451 0.0
C1618 C 0.45019 0.25058 0.79304 0.0
C1619 C 0.56913 0.24724 0.8212 0.0
N1620 N 0.64173 0.23456 0.78182 0.0
N1621 N 0.36363 0.2504 0.83306 0.0
H1622 H 0.72832 0.2489 0.83555 0.0
H1623 H 0.58594 0.25592 0.84423 0.0
H1624 H 0.26908 0.25573 0.83342 0.0
H1625 H 0.39839 0.24487 0.84339 0.0
H1626 H 0.59666 0.23165 0.77164 0.0
H1627 H 0.73443 0.22789 0.78215 0.0
H1628 H 0.45591 0.25867 0.76997 0.0
H1629 H 0.30558 0.26132 0.7778 0.0
C1630 C 0.26668 0.48079 0.80535 0.0
C1631 C 0.21386 0.50437 0.80678 0.0
C1632 C 0.42722 0.52142 0.80926 0.0
C1633 C 0.47994 0.49782 0.80864 0.0
N1634 N 0.45431 0.45634 0.80081 0.0
N1635 N 0.24292 0.54578 0.81489 0.0
C1636 C 0.40086 0.47773 0.80535 0.0
C1637 C 0.29377 0.52437 0.81 0.0
N1638 N 0.18843 0.46122 0.80443 0.0
N1639 N 0.50417 0.54114 0.80826 0.0
H1640 H 0.14632 0.54819 0.81697 0.0
H1641 H 0.2979 0.5601 0.81879 0.0
H1642 H 0.60051 0.53939 0.80614 0.0
H1643 H 0.47047 0.55885 0.80728 0.0
H1644 H 0.21946 0.44332 0.80517 0.0
H1645 H 0.09043 0.46302 0.80435 0.0
H1646 H 0.4023 0.44166 0.79691 0.0
H1647 H 0.55167 0.45423 0.7991 0.0
C1648 C 0.48142 0.01245 0.54986 0.0
C1649 C 0.4299 0.99543 0.5601 0.0
C1650 C 0.6478 0.987 0.56939 0.0
C1651 C 0.69894 0.00302 0.55865 0.0
N1652 N 0.66602 0.02587 0.53616 0.0
N1653 N 0.46313 0.97352 0.58309 0.0
C1654 C 0.61587 0.01435 0.54824 0.0
C1655 C 0.51315 0.98446 0.57076 0.0
N1656 N 0.40369 0.02822 0.54245 0.0
N1657 N 0.72798 0.97378 0.57816 0.0
H1658 H 0.36635 0.97353 0.58547 0.0
H1659 H 0.51724 0.96735 0.59204 0.0
H1660 H 0.82588 0.97557 0.57757 0.0
H1661 H 0.69899 0.95952 0.58493 0.0
H1662 H 0.43701 0.04242 0.53591 0.0
H1663 H 0.30745 0.02978 0.54462 0.0
H1664 H 0.61187 0.03208 0.52721 0.0
H1665 H 0.76331 0.02647 0.53423 0.0
C1666 C 0.69952 0.26567 0.56704 0.0
C1667 C 0.63241 0.24818 0.55857 0.0
C1668 C 0.83346 0.23479 0.54714 0.0
C1669 C 0.89907 0.25349 0.55475 0.0
N1670 N 0.89552 0.28762 0.57152 0.0
N1671 N 0.63179 0.21756 0.53943 0.0
C1672 C 0.8322 0.26918 0.56459 0.0
C1673 C 0.6985 0.23314 0.5483 0.0
N1674 N 0.63665 0.27846 0.57777 0.0
N1675 N 0.90093 0.21813 0.53913 0.0
H1676 H 0.53373 0.21529 0.54018 0.0
H1677 H 0.67141 0.2082 0.53051 0.0
H1678 H 0.99916 0.21899 0.53797 0.0
H1679 H 0.86197 0.20246 0.53462 0.0
H1680 H 0.68099 0.28933 0.58566 0.0
H1681 H 0.53901 0.27711 0.57931 0.0
H1682 H 0.85077 0.30158 0.57729 0.0
H1683 H 0.99378 0.28973 0.57101 0.0
C1684 C 0.63274 0.23971 0.69397 0.0
C1685 C 0.70825 0.24401 0.68112 0.0
C1686 C 0.51349 0.25365 0.66719 0.0
C1687 C 0.44101 0.25285 0.68048 0.0
N1688 N 0.43941 0.2498 0.70723 0.0
N1689 N 0.72083 0.25793 0.65576 0.0
C1690 C 0.50287 0.2472 0.69409 0.0
C1691 C 0.64869 0.25209 0.66784 0.0
N1692 N 0.68341 0.22781 0.70593 0.0
N1693 N 0.45243 0.2545 0.65383 0.0
H1694 H 0.81951 0.25649 0.65578 0.0
H1695 H 0.68374 0.26612 0.64624 0.0
H1696 H 0.35417 0.25332 0.65319 0.0
H1697 H 0.49829 0.25317 0.6436 0.0
H1698 H 0.62886 0.22198 0.71491 0.0
H1699 H 0.77829 0.22233 0.70643 0.0
H1700 H 0.48383 0.2483 0.71757 0.0
H1701 H 0.34486 0.25546 0.70775 0.0
C1702 C 0.82942 0.99014 0.69418 0.0
C1703 C 0.8907 0.99092 0.68017 0.0
C1704 C 0.68279 0.99746 0.66801 0.0
C1705 C 0.6234 -0.00087 0.68222 0.0
N1706 N 0.64951 0.00253 0.70896 0.0
N1707 N 0.87822 0.99858 0.65383 0.0
C1708 C 0.69964 0.99724 0.69532 0.0
C1709 C 0.81773 0.99527 0.66711 0.0
N1710 N 0.89213 0.9811 0.70632 0.0
N1711 N 0.61191 0.99855 0.65527 0.0
H1712 H 0.97616 0.99731 0.65275 0.0
H1713 H 0.83355 0.00466 0.64417 0.0
H1714 H 0.51713 0.00374 0.65496 0.0
H1715 H 0.64646 0.99343 0.64489 0.0
H1716 H 0.84751 0.97763 0.71644 0.0
H1717 H 0.98527 0.97467 0.70591 0.0
H1718 H 0.70493 0.0042 0.71852 0.0
H1719 H 0.55472 0.00717 0.71063 0.0
C1720 C 0.54099 0.01962 0.42433 0.0
C1721 C 0.61379 0.0034 0.43331 0.0
C1722 C 0.42076 0.9796 0.43841 0.0
C1723 C 0.34809 0.99582 0.42941 0.0
N1724 N 0.34272 0.02812 0.41142 0.0
N1725 N 0.62066 0.97059 0.45093 0.0
C1726 C 0.40915 0.01509 0.42181 0.0
C1727 C 0.55303 0.98401 0.44083 0.0
N1728 N 0.59721 0.03981 0.41848 0.0
N1729 N 0.3643 0.95938 0.44417 0.0
H1730 H 0.717 0.97334 0.45299 0.0
H1731 H 0.58047 0.958 0.45813 0.0
H1732 H 0.2678 0.95572 0.44298 0.0
H1733 H 0.41366 0.94528 0.44928 0.0
H1734 H 0.54687 0.0541 0.41368 0.0
H1735 H 0.69464 0.04299 0.41901 0.0
H1736 H 0.38398 0.04045 0.40413 0.0
H1737 H 0.24686 0.02518 0.40918 0.0
C1738 C 0.41854 0.72809 0.43913 0.0
C1739 C 0.4736 0.74917 0.43279 0.0
C1740 C 0.26085 0.7651 0.42698 0.0
C1741 C 0.20586 0.74329 0.43219 0.0
N1742 N 0.22935 0.70427 0.44402 0.0
N1743 N 0.44946 0.78525 0.41789 0.0
C1744 C 0.28416 0.72481 0.43846 0.0
C1745 C 0.39523 0.76702 0.42599 0.0
N1746 N 0.49457 0.71163 0.44624 0.0
N1747 N 0.18469 0.78422 0.42322 0.0
H1748 H 0.54737 0.78668 0.41636 0.0
H1749 H 0.39751 0.7974 0.41139 0.0
H1750 H 0.08615 0.78317 0.42349 0.0
H1751 H 0.21873 0.80155 0.42098 0.0
H1752 H 0.46166 0.69726 0.45263 0.0
H1753 H 0.59294 0.71291 0.44621 0.0
H1754 H 0.27931 0.68863 0.44684 0.0
H1755 H 0.13177 0.70271 0.44573 0.0
C1756 C 0.41646 0.75512 0.2952 0.0
C1757 C 0.34121 0.75281 0.30825 0.0
C1758 C 0.53588 0.74536 0.32265 0.0
C1759 C 0.60923 0.74455 0.30938 0.0
N1760 N 0.60792 0.74231 0.28253 0.0
N1761 N 0.32861 0.74204 0.33417 0.0
C1762 C 0.54658 0.74773 0.29548 0.0
C1763 C 0.40074 0.74651 0.32186 0.0
N1764 N 0.36495 0.76479 0.28255 0.0
N1765 N 0.59572 0.74663 0.33609 0.0
H1766 H 0.22994 0.74334 0.33407 0.0
H1767 H 0.36578 0.735 0.34402 0.0
H1768 H 0.69376 0.74799 0.3369 0.0
H1769 H 0.54865 0.74942 0.34613 0.0
H1770 H 0.41919 0.76921 0.27325 0.0
H1771 H 0.26968 0.76989 0.28173 0.0
H1772 H 0.56233 0.74217 0.27222 0.0
H1773 H 0.70007 0.73538 0.28223 0.0
C1774 C 0.25606 0.02109 0.31426 0.0
C1775 C 0.1845 0.0047 0.30534 0.0
C1776 C 0.3803 0.98206 0.29962 0.0
C1777 C 0.45098 0.99781 0.30901 0.0
N1778 N 0.45334 0.02955 0.32733 0.0
N1779 N 0.17404 0.96714 0.29181 0.0
C1780 C 0.38803 0.01661 0.31687 0.0
C1781 C 0.24546 0.98445 0.29871 0.0
N1782 N 0.19791 0.04097 0.32031 0.0
N1783 N 0.44254 0.96513 0.29124 0.0
H1784 H 0.07577 0.96845 0.29077 0.0
H1785 H 0.21014 0.95056 0.28822 0.0
H1786 H 0.54006 0.96221 0.29197 0.0
H1787 H 0.39954 0.95517 0.2828 0.0
H1788 H 0.2471 0.0553 0.32512 0.0
H1789 H 0.09988 0.04368 0.32009 0.0
H1790 H 0.41078 0.04156 0.33474 0.0
H1791 H 0.54981 0.0269 0.32941 0.0
C1792 C 0.17122 0.47825 0.55 0.0
C1793 C 0.22577 0.49843 0.55745 0.0
C1794 C 1.01197 0.51254 0.56439 0.0
C1795 C 0.95775 0.49146 0.55799 0.0
N1796 N 0.98525 0.4537 0.54484 0.0
N1797 N 0.20038 0.53174 0.5745 0.0
C1798 C 1.03752 0.47411 0.55088 0.0
C1799 C 0.14659 0.51469 0.56545 0.0
N1800 N 0.24674 0.46349 0.54162 0.0
N1801 N 0.9348 0.53085 0.56916 0.0
H1802 H 0.29841 0.53338 0.57588 0.0
H1803 H 0.14856 0.54252 0.58182 0.0
H1804 H 0.83698 0.53046 0.56765 0.0
H1805 H 0.96798 0.54743 0.57303 0.0
H1806 H 0.2129 0.45041 0.5343 0.0
H1807 H 0.34486 0.46503 0.54156 0.0
H1808 H 1.03797 0.43869 0.54147 0.0
H1809 H 0.88764 0.45137 0.54353 0.0
C1810 C 0.33326 0.7319 0.56333 0.0
C1811 C 0.38892 0.75317 0.5574 0.0
C1812 C 0.17598 0.7677 0.54992 0.0
C1813 C 0.12068 0.7472 0.55694 0.0
N1814 N 0.14459 0.71262 0.57308 0.0
N1815 N 0.36532 0.79111 0.54432 0.0
C1816 C 0.19891 0.73006 0.56436 0.0
C1817 C 0.31052 0.77106 0.55051 0.0
N1818 N 0.40871 0.71315 0.56781 0.0
N1819 N 0.10003 0.78352 0.54228 0.0
H1820 H 0.46296 0.79258 0.54262 0.0
H1821 H 0.31526 0.80646 0.54096 0.0
H1822 H 1.00168 0.78227 0.54237 0.0
H1823 H 0.13299 0.79732 0.53543 0.0
H1824 H 0.37368 0.69602 0.57033 0.0
H1825 H 0.50711 0.71434 0.56793 0.0
H1826 H 0.19643 0.70121 0.58009 0.0
H1827 H 1.04665 0.71123 0.57458 0.0
C1828 C 1.04233 0.75125 0.66852 0.0
C1829 C 0.97161 0.75284 0.68191 0.0
C1830 C 0.16569 0.74257 0.69583 0.0
C1831 C 0.23926 0.74477 0.68265 0.0
N1832 N 0.24789 0.7547 0.65658 0.0
N1833 N 0.97394 0.7548 0.70872 0.0
C1834 C 0.17758 0.75038 0.66905 0.0
C1835 C 1.03564 0.74991 0.69571 0.0
N1836 N 0.97999 0.74922 0.65531 0.0
N1837 N 0.21812 0.7327 0.70837 0.0
H1838 H 0.8791 0.76032 0.70906 0.0
H1839 H 1.02005 0.75524 0.71899 0.0
H1840 H 0.31291 0.72719 0.70896 0.0
H1841 H 0.16493 0.72846 0.71778 0.0
H1842 H 1.02534 0.74608 0.64519 0.0
H1843 H 0.88189 0.74752 0.6549 0.0
H1844 H 0.20855 0.76093 0.64663 0.0
H1845 H 0.34686 0.75428 0.65666 0.0
C1846 C 0.18512 0.51284 0.69117 0.0
C1847 C 0.11827 0.49749 0.68117 0.0
C1848 C 0.31626 0.47548 0.67572 0.0
C1849 C 0.38478 0.49185 0.68496 0.0
N1850 N 0.38835 0.52786 0.70002 0.0
N1851 N 0.12181 0.46681 0.66216 0.0
C1852 C 0.32015 0.51105 0.69226 0.0
C1853 C 0.18429 0.47949 0.67298 0.0
N1854 N 0.1191 0.52882 0.69988 0.0
N1855 N 0.37697 0.45592 0.66961 0.0
H1856 H 1.02496 0.46893 0.66005 0.0
H1857 H 0.16713 0.45554 0.65453 0.0
H1858 H 0.47493 0.45328 0.67023 0.0
H1859 H 0.32963 0.44165 0.66448 0.0
H1860 H 0.15962 0.53851 0.7086 0.0
H1861 H 1.02087 0.53109 0.69922 0.0
H1862 H 0.34989 0.54386 0.7042 0.0
H1863 H 0.48643 0.52666 0.7014 0.0
C1864 C 0.98546 0.48953 0.44678 0.0
C1865 C 0.90817 0.49667 0.43448 0.0
C1866 C 0.0993 0.51379 0.42241 0.0
C1867 C 0.17665 0.50468 0.43419 0.0
N1868 N 0.19499 0.48216 0.45703 0.0
N1869 N 0.88961 0.5211 0.41216 0.0
C1870 C 0.12014 0.49187 0.44612 0.0
C1871 C 0.96442 0.51037 0.42272 0.0
N1872 N 0.92856 0.48285 0.4598 0.0
N1873 N 0.15616 0.5248 0.4105 0.0
H1874 H 0.79209 0.51942 0.41177 0.0
H1875 H 0.92141 0.53372 0.40443 0.0
H1876 H 0.25379 0.52752 0.40977 0.0
H1877 H 0.11009 0.5293 0.40064 0.0
H1878 H 0.97729 0.47941 0.46967 0.0
H1879 H 0.83088 0.48409 0.46131 0.0
H1880 H 0.16265 0.46967 0.46483 0.0
H1881 H 0.29182 0.48545 0.45773 0.0
C1882 C 0.89741 0.25017 0.44465 0.0
C1883 C 0.97132 0.24892 0.43145 0.0
C1884 C 0.77492 0.24182 0.41725 0.0
C1885 C 0.70433 0.23958 0.43063 0.0
N1886 N 0.7084 0.23632 0.45738 0.0
N1887 N 0.98123 0.23989 0.40528 0.0
C1888 C 0.76854 0.24219 0.44444 0.0
C1889 C 0.91023 0.24347 0.41778 0.0
N1890 N 0.9483 0.25974 0.45732 0.0
N1891 N 0.71227 0.24347 0.40401 0.0
H1892 H 0.08003 0.24087 0.40536 0.0
H1893 H 0.94324 0.23372 0.39527 0.0
H1894 H 0.61379 0.24417 0.40355 0.0
H1895 H 0.75681 0.2471 0.39392 0.0
H1896 H 0.8945 0.26329 0.46681 0.0
H1897 H 1.04195 0.26579 0.45796 0.0
H1898 H 0.75509 0.2356 0.46761 0.0
H1899 H 0.61465 0.23027 0.45768 0.0
C1900 C 0.09494 0.26398 0.29797 0.0
C1901 C 0.16043 0.24482 0.30527 0.0
C1902 C 0.96107 0.23202 0.31722 0.0
C1903 C 0.89398 0.25008 0.30911 0.0
N1904 N 0.89328 0.28254 0.2911 0.0
N1905 N 0.15778 0.20991 0.32148 0.0
C1906 C 0.96007 0.26591 0.29932 0.0
C1907 C 0.0939 0.22866 0.31481 0.0
N1908 N 0.1625 0.28065 0.29002 0.0
N1909 N 0.89805 0.2186 0.32762 0.0
H1910 H 0.25622 0.20791 0.32105 0.0
H1911 H 0.11353 0.19565 0.32696 0.0
H1912 H 0.80038 0.21995 0.32918 0.0
H1913 H 0.94219 0.20719 0.33529 0.0
H1914 H 0.12425 0.29658 0.2857 0.0
H1915 H 0.26038 0.27936 0.28853 0.0
H1916 H 0.9323 0.29281 0.28256 0.0
H1917 H 0.79536 0.28498 0.29204 0.0
C1918 C 0.93146 0.51468 0.29931 0.0
C1919 C 0.98334 0.49686 0.309 0.0
C1920 C 0.7704 0.49165 0.32002 0.0
C1921 C 0.71636 0.5068 0.30888 0.0
N1922 N 0.74581 0.52901 0.28604 0.0
N1923 N 0.94743 0.46714 0.32839 0.0
C1924 C 0.79726 0.51719 0.29798 0.0
C1925 C 0.90098 0.4848 0.31916 0.0
N1926 N 1.00949 0.52986 0.29168 0.0
N1927 N 0.70025 0.48528 0.33212 0.0
H1928 H 1.0439 0.46371 0.32985 0.0
H1929 H 0.88922 0.45528 0.33426 0.0
H1930 H 0.60764 0.49111 0.3335 0.0
H1931 H 0.7376 0.47668 0.34149 0.0
H1932 H 0.97699 0.54436 0.28527 0.0
H1933 H 0.10614 0.53035 0.29368 0.0
H1934 H 0.79886 0.53466 0.27691 0.0
H1935 H 0.6483 0.53079 0.28453 0.0
C1936 C 1.00882 0.99671 0.07077 0.0
C1937 C 0.93426 0.99403 0.0576 0.0
C1938 C 0.13062 0.99732 0.04273 0.0
C1939 C 0.20319 0.00161 0.05583 0.0
N1940 N 0.205 0.01043 0.0821 0.0
N1941 N 0.92491 0.99574 0.0307 0.0
C1942 C 0.14073 0.00251 0.06981 0.0
C1943 C 0.99523 0.99568 0.04349 0.0
N1944 N 0.95319 0.99399 0.08435 0.0
N1945 N 0.19177 0.99361 0.02953 0.0
H1946 H 0.82744 0.99318 0.03042 0.0
H1947 H 0.96193 0.00021 0.02032 0.0
H1948 H 0.28992 0.99438 0.02854 0.0
H1949 H 0.14712 0.98746 0.01991 0.0
H1950 H 1.00389 0.99201 0.09424 0.0
H1951 H 0.85563 0.99266 0.08559 0.0
H1952 H 0.16154 0.01426 0.09223 0.0
H1953 H 0.30015 0.01542 0.0819 0.0
C1954 C 0.19091 0.26608 0.06806 0.0
C1955 C 0.12403 0.24821 0.05986 0.0
C1956 C 0.32491 0.23528 0.04811 0.0
C1957 C 0.39009 0.25436 0.05542 0.0
N1958 N 0.38504 0.28895 0.07185 0.0
N1959 N 0.12364 0.21736 0.04085 0.0
C1960 C 0.32279 0.27009 0.06522 0.0
C1961 C 0.19017 0.23324 0.04955 0.0
N1962 N 0.12902 0.27866 0.07897 0.0
N1963 N 0.39261 0.21867 0.04009 0.0
H1964 H 1.02584 0.21487 0.04176 0.0
H1965 H 0.16297 0.20802 0.03191 0.0
H1966 H 0.49048 0.21988 0.03867 0.0
H1967 H 0.35438 0.20275 0.03583 0.0
H1968 H 0.17401 0.28981 0.08666 0.0
H1969 H 1.03218 0.27672 0.08096 0.0
H1970 H 0.3394 0.30291 0.07752 0.0
H1971 H 0.48299 0.29139 0.07116 0.0
C1972 C 1.02882 0.27182 0.17858 0.0
C1973 C 0.94918 0.25419 0.17205 0.0
C1974 C 0.12682 0.22602 0.17038 0.0
C1975 C 0.21094 0.24476 0.17482 0.0
N1976 N 0.24121 0.28757 0.18001 0.0
N1977 N 0.92854 0.217 0.15816 0.0
C1978 C 0.16196 0.26825 0.17817 0.0
C1979 C 0.99999 0.23209 0.16677 0.0
N1980 N 0.97787 0.29215 0.18494 0.0
N1981 N 0.16418 0.20227 0.17054 0.0
H1982 H 0.83613 0.22123 0.15493 0.0
H1983 H 0.96601 0.20165 0.153 0.0
H1984 H 0.25132 0.19646 0.17476 0.0
H1985 H 0.10165 0.18806 0.16846 0.0
H1986 H 1.03084 0.30408 0.19143 0.0
H1987 H 0.88098 0.29619 0.18474 0.0
H1988 H 0.20884 0.30533 0.18118 0.0
H1989 H 0.33889 0.28658 0.1786 0.0
C1990 C 0.33878 0.9899 0.16825 0.0
C1991 C 0.41077 0.9942 0.18143 0.0
C1992 C 0.21277 0.0052 0.19442 0.0
C1993 C 0.1441 0.00377 0.18084 0.0
N1994 N 0.14541 0.99804 0.1543 0.0
N1995 N 0.41669 0.00701 0.20704 0.0
C1996 C 0.20812 0.99694 0.16761 0.0
C1997 C 0.34777 0.00234 0.19448 0.0
N1998 N 0.39422 0.97854 0.15641 0.0
N1999 N 0.14761 0.00819 0.20741 0.0
H2000 H 0.51359 0.0035 0.2078 0.0
H2001 H 0.37976 0.01568 0.21636 0.0
H2002 H 0.04895 0.00908 0.20767 0.0
H2003 H 0.1889 0.00723 0.21793 0.0
H2004 H 0.34335 0.97238 0.14721 0.0
H2005 H 0.4902 0.97388 0.15613 0.0
H2006 H 0.19039 0.99608 0.14405 0.0
H2007 H 0.04962 0.00276 0.15346 0.0
C2008 C 0.94772 0.99318 0.94447 0.0
C2009 C 0.87868 0.99744 0.9311 0.0
C2010 C 0.07185 0.01435 0.91974 0.0
C2011 C 0.14439 0.00774 0.93255 0.0
N2012 N 0.15167 0.99028 0.9571 0.0
N2013 N 0.88076 0.00794 0.90513 0.0
C2014 C 0.08231 0.99682 0.94487 0.0
C2015 C 0.94223 0.00703 0.91852 0.0
N2016 N 0.88318 0.98657 0.957 0.0
N2017 N 0.12605 0.02792 0.90873 0.0
H2018 H 0.78687 0.00239 0.90382 0.0
H2019 H 0.92578 0.0121 0.89514 0.0
H2020 H 0.22213 0.0324 0.90858 0.0
H2021 H 0.07411 0.03583 0.90011 0.0
H2022 H 0.92387 0.98537 0.96753 0.0
H2023 H 0.78506 0.98432 0.95708 0.0
H2024 H 0.11681 0.97957 0.96569 0.0
H2025 H 0.24709 0.99466 0.95833 0.0
C2026 C 0.90376 0.74996 0.91836 0.0
C2027 C 0.96001 0.75223 0.93269 0.0
C2028 C 0.75168 0.74353 0.9441 0.0
C2029 C 0.69477 0.74199 0.9298 0.0
N2030 N 0.72762 0.73577 0.90345 0.0
N2031 N 0.92803 0.75699 0.95919 0.0
C2032 C 0.77408 0.7428 0.91698 0.0
C2033 C 0.88116 0.75074 0.94554 0.0
N2034 N 0.96969 0.75708 0.90601 0.0
N2035 N 0.68674 0.73546 0.95628 0.0
H2036 H 1.02222 0.76178 0.96106 0.0
H2037 H 0.87075 0.75935 0.96853 0.0
H2038 H 0.59602 0.72803 0.95564 0.0
H2039 H 0.72813 0.73332 0.96674 0.0
H2040 H 0.92895 0.75851 0.89547 0.0
H2041 H 0.06028 0.76456 0.90647 0.0
H2042 H 0.78512 0.73277 0.89421 0.0
H2043 H 0.63331 0.731 0.90164 0.0
C2044 C 1.04574 0.72622 0.81509 0.0
C2045 C 0.1336 0.73864 0.80561 0.0
C2046 C 0.95038 0.76009 0.79452 0.0
C2047 C 0.86631 0.75054 0.80549 0.0
N2048 N 0.8522 0.73008 0.82929 0.0
N2049 N 0.16404 0.77219 0.78866 0.0
C2050 C 0.91861 0.73508 0.81662 0.0
C2051 C 0.08438 0.75718 0.79619 0.0
N2052 N 0.08127 0.70605 0.8229 0.0
N2053 N 0.9037 0.77106 0.78198 0.0
H2054 H 0.26181 0.77058 0.78917 0.0
H2055 H 0.13264 0.78762 0.78301 0.0
H2056 H 0.8074 0.77234 0.77946 0.0
H2057 H 0.96125 0.77601 0.77306 0.0
H2058 H 1.01568 0.69509 0.82837 0.0
H2059 H 0.17243 0.69891 0.82307 0.0
H2060 H 0.89166 0.72068 0.83826 0.0
H2061 H 0.76573 0.73812 0.83189 0.0
C2062 C 0.77245 0.02479 0.80743 0.0
C2063 C 0.68788 0.00482 0.80793 0.0
C2064 C 0.86963 0.97695 0.80791 0.0
C2065 C 0.95402 0.99692 0.80734 0.0
N2066 N 0.98099 0.03906 0.80088 0.0
N2067 N 0.66138 0.96271 0.81452 0.0
C2068 C 0.90439 0.02065 0.80545 0.0
C2069 C 0.73767 0.98109 0.80986 0.0
N2070 N 0.72847 0.04766 0.81029 0.0
N2071 N 0.91395 0.95405 0.80523 0.0
H2072 H 0.56782 0.9655 0.81766 0.0
H2073 H 0.69548 0.94558 0.81742 0.0
H2074 H 1.00722 0.95057 0.80194 0.0
H2075 H 0.8548 0.93906 0.80409 0.0
H2076 H 0.78786 0.0626 0.81146 0.0
H2077 H 0.63556 0.0511 0.81372 0.0
H2078 H 0.947 0.05622 0.79803 0.0
H2079 H 0.0749 0.03631 0.79783 0.0
C2080 C 0.96639 0.51503 0.00432 0.0
C2081 C 0.05089 0.4988 0.01161 0.0
C2082 C 0.11252 0.48165 0.98741 0.0
C2083 C 1.03708 0.49943 0.98004 0.0
N2084 N 0.90211 0.53491 0.98149 0.0
N2085 N 0.22208 0.46977 0.01001 0.0
C2086 C 0.96765 0.51677 0.98851 0.0
C2087 C 0.12824 0.48284 0.00314 0.0
N2088 N 0.87983 0.52788 0.01247 0.0
N2089 N 0.16992 0.46361 0.97944 0.0
H2090 H 0.23892 0.4706 0.02142 0.0
H2091 H 0.2912 0.45997 0.00431 0.0
H2092 H 0.16787 0.46274 0.96789 0.0
H2093 H 0.21216 0.44846 0.98434 0.0
H2094 H 0.80572 0.53787 0.0078 0.0
H2095 H 0.8747 0.52673 0.02401 0.0
H2096 H 0.86435 0.54986 0.98702 0.0
H2097 H 0.89156 0.53591 0.96999 0.0
C2098 C 0.19801 0.7361 0.98595 0.0
C2099 C 0.30822 0.74537 0.97876 0.0
C2100 C 0.40605 0.75223 0.00328 0.0
C2101 C 0.28942 0.74632 0.01021 0.0
N2102 N 0.0654 0.7384 0.00781 0.0
N2103 N 0.5144 0.76463 0.9809 0.0
C2104 C 0.18313 0.73964 0.00148 0.0
C2105 C 0.41122 0.75424 0.98752 0.0
N2106 N 0.10631 0.72409 0.97813 0.0
N2107 N 0.51345 0.75496 0.0117 0.0
H2108 H 0.52835 0.76512 0.96946 0.0
H2109 H 0.58332 0.77417 0.98679 0.0
H2110 H 0.51402 0.75338 0.02325 0.0
H2111 H 0.60411 0.75645 0.00717 0.0
H2112 H 1.03307 0.71462 0.98329 0.0
H2113 H 0.10666 0.72196 0.96664 0.0
H2114 H 0.98221 0.73607 0.00168 0.0
H2115 H 0.04917 0.7427 0.01892 0.0
C2116 C 0.92098 0.75707 0.25093 0.0
C2117 C 1.02045 0.7482 0.26023 0.0
C2118 C 0.15515 0.74219 0.23825 0.0
C2119 C 0.0521 0.74896 0.22894 0.0
N2120 N 0.82886 0.75807 0.22622 0.0
N2121 N 0.22473 0.72806 0.2624 0.0
C2122 C 0.93277 0.75514 0.23522 0.0
C2123 C 0.13482 0.73927 0.25378 0.0
N2124 N 0.8148 0.76735 0.25703 0.0
N2125 N 0.27452 0.74005 0.23242 0.0
H2126 H 0.21862 0.72659 0.27392 0.0
H2127 H 0.30205 0.71871 0.25797 0.0
H2128 H 0.29417 0.74322 0.22123 0.0
H2129 H 0.35586 0.73775 0.2389 0.0
H2130 H 0.74736 0.77684 0.25082 0.0
H2131 H 0.79739 0.76791 0.26842 0.0
H2132 H 0.73647 0.75973 0.23023 0.0
H2133 H 0.83276 0.75651 0.21468 0.0
C2134 C 0.21715 0.4852 0.23891 0.0
C2135 C 0.30048 0.49909 0.22994 0.0
C2136 C 0.39834 0.51626 0.25237 0.0
C2137 C 0.32473 0.50042 0.26136 0.0
N2138 N 0.1659 0.46905 0.26327 0.0
N2139 N 0.48474 0.52477 0.22797 0.0
C2140 C 0.23529 0.48452 0.25463 0.0
C2141 C 0.39471 0.51385 0.23663 0.0
N2142 N 0.11642 0.47369 0.23243 0.0
N2143 N 0.47041 0.53396 0.25878 0.0
H2144 H 0.48587 0.52359 0.2164 0.0
H2145 H 0.56511 0.53319 0.23229 0.0
H2146 H 0.47785 0.5363 0.27022 0.0
H2147 H 0.51387 0.54776 0.25276 0.0
H2148 H 1.04382 0.46538 0.23837 0.0
H2149 H 0.09929 0.47427 0.22101 0.0
H2150 H 0.1123 0.45485 0.25898 0.0
H2151 H 0.16575 0.46965 0.27485 0.0
C2152 C 0.73867 0.23488 0.98617 0.0
C2153 C 0.849 0.24548 0.97965 0.0
C2154 C 0.93034 0.25423 0.00478 0.0
C2155 C 0.81308 0.24671 0.01098 0.0
N2156 N 0.5948 0.2354 0.0071 0.0
N2157 N 1.0443 0.26808 0.98312 0.0
C2158 C 0.71467 0.23834 0.00157 0.0
C2159 C 0.94288 0.25609 0.98905 0.0
N2160 N 0.65464 0.22179 0.97783 0.0
N2161 N 1.03199 0.25862 0.01388 0.0
H2162 H 0.06409 0.26876 0.9718 0.0
H2163 H 0.10522 0.2788 0.98944 0.0
H2164 H 1.02758 0.25721 0.02542 0.0
H2165 H 0.1239 0.2613 0.00994 0.0
H2166 H 0.58394 0.21112 0.98257 0.0
H2167 H 0.65746 0.22037 0.96631 0.0
H2168 H 0.51587 0.23194 0.00042 0.0
H2169 H 0.57138 0.2393 0.01809 0.0
C2170 C 0.92566 0.25569 0.75071 0.0
C2171 C 1.02035 0.24397 0.75949 0.0
C2172 C 0.13342 0.23162 0.73665 0.0
C2173 C 1.04108 0.24413 0.72787 0.0
N2174 N 0.8349 0.26353 0.72638 0.0
N2175 N 0.22132 0.22266 0.76099 0.0
C2176 C 0.93395 0.25514 0.73487 0.0
C2177 C 0.12465 0.23202 0.75249 0.0
N2178 N 0.82734 0.26758 0.75751 0.0
N2179 N 0.23008 0.21914 0.72991 0.0
H2180 H 0.22072 0.22215 0.77255 0.0
H2181 H 0.30849 0.21702 0.75678 0.0
H2182 H 0.25295 0.22073 0.71872 0.0
H2183 H 0.28561 0.20614 0.73526 0.0
H2184 H 0.7682 0.27999 0.75216 0.0
H2185 H 0.80664 0.26588 0.76878 0.0
H2186 H 0.74722 0.26879 0.73063 0.0
H2187 H 0.83409 0.26331 0.71481 0.0
C2188 C 0.92317 0.49633 0.75259 0.0
C2189 C 0.81246 0.49676 0.76157 0.0
C2190 C 0.67787 0.49825 0.73922 0.0
C2191 C 0.78833 0.49662 0.73022 0.0
N2192 N 1.01497 0.49083 0.72807 0.0
N2193 N 0.58483 0.49404 0.7638 0.0
C2194 C 0.91068 0.4946 0.73684 0.0
C2195 C 0.68976 0.49673 0.75499 0.0
N2196 N 1.04018 0.49868 0.75908 0.0
N2197 N 0.5614 0.50111 0.73268 0.0
H2198 H 0.59001 0.49243 0.77535 0.0
H2199 H 0.49345 0.49135 0.7597 0.0
H2200 H 0.54772 0.50031 0.72121 0.0
H2201 H 0.47909 0.50549 0.7385 0.0
H2202 H 0.12367 0.5014 0.75313 0.0
H2203 H 0.05343 0.49971 0.77056 0.0
H2204 H 0.1044 0.48633 0.73222 0.0
H2205 H 1.011 0.49063 0.71649 0.0
C2206 C 0.10609 0.9796 0.50171 0.0
C2207 C 1.04197 0.99782 0.51005 0.0
C2208 C 0.93872 0.01241 0.48723 0.0
C2209 C 1.01096 0.99577 0.4787 0.0
N2210 N 0.17832 0.96588 0.4775 0.0
N2211 N 0.91974 0.03513 0.51003 0.0
C2212 C 0.09803 0.97982 0.48585 0.0
C2213 C 0.9656 0.01536 0.5026 0.0
N2214 N 0.17713 0.96237 0.50888 0.0
N2215 N 0.83952 0.02461 0.48081 0.0
H2216 H 0.93537 0.03829 0.52128 0.0
H2217 H 0.87607 0.04972 0.50468 0.0
H2218 H 0.81302 0.02206 0.46976 0.0
H2219 H 0.77473 0.035 0.48682 0.0
H2220 H 0.21127 0.94679 0.5037 0.0
H2221 H 0.19806 0.96307 0.52022 0.0
H2222 H 0.2541 0.95603 0.48192 0.0
H2223 H 0.17572 0.96563 0.46593 0.0
C2224 C 0.20475 0.23779 0.48546 0.0
C2225 C 0.31563 0.2465 0.47812 0.0
C2226 C 0.41576 0.25342 0.50252 0.0
C2227 C 0.30022 0.24729 0.50964 0.0
N2228 N 0.07555 0.23991 0.50763 0.0
N2229 N 0.52146 0.26597 0.47998 0.0
C2230 C 0.19233 0.24105 0.50106 0.0
C2231 C 0.41928 0.25546 0.48673 0.0
N2232 N 0.11008 0.22654 0.47769 0.0
N2233 N 0.52383 0.25634 0.51079 0.0
H2234 H 0.53361 0.2668 0.46852 0.0
H2235 H 0.591 0.27548 0.48579 0.0
H2236 H 0.52541 0.25496 0.52236 0.0
H2237 H 0.61403 0.2579 0.50615 0.0
H2238 H 1.03631 0.21724 0.48286 0.0
H2239 H 0.10796 0.22499 0.46617 0.0
H2240 H 0.99114 0.23796 0.50168 0.0
H2241 H 0.06146 0.24386 0.51883 0.0
C2242 C 0.39499 0.98698 0.75173 0.0
C2243 C 0.29025 0.99496 0.76034 0.0
C2244 C 0.16892 0.00295 0.73747 0.0
C2245 C 0.27081 0.99341 0.72885 0.0
N2246 N 0.46869 0.97065 0.72838 0.0
N2247 N 0.06647 0.00435 0.76159 0.0
C2248 C 0.37955 0.98348 0.73615 0.0
C2249 C 0.17404 0.00127 0.75327 0.0
N2250 N 0.5118 0.98412 0.75821 0.0
N2251 N 0.06626 0.01343 0.73066 0.0
H2252 H 0.06468 0.0021 0.7731 0.0
H2253 H 0.97627 0.00649 0.75697 0.0
H2254 H 0.05237 0.01342 0.71919 0.0
H2255 H 0.99787 0.02341 0.73638 0.0
H2256 H 0.59456 0.98109 0.75213 0.0
H2257 H 0.52888 0.98722 0.76948 0.0
H2258 H 0.54054 0.96065 0.73354 0.0
H2259 H 0.46681 0.96835 0.7169 0.0
C2260 C 0.68601 0.74562 0.48587 0.0
C2261 C 0.80879 0.74579 0.4793 0.0
C2262 C 0.90817 0.74726 0.50401 0.0
C2263 C 0.78537 0.7472 0.51058 0.0
N2264 N 0.55787 0.74409 0.50834 0.0
N2265 N 1.03636 0.74863 0.48154 0.0
C2266 C 0.67435 0.7457 0.50165 0.0
C2267 C 0.91985 0.74712 0.48823 0.0
N2268 N 0.5807 0.74679 0.47695 0.0
N2269 N 1.01347 0.74615 0.51293 0.0
H2270 H 0.0493 0.74696 0.47008 0.0
H2271 H 0.12043 0.75255 0.48712 0.0
H2272 H 1.00831 0.74614 0.52447 0.0
H2273 H 0.10578 0.74374 0.50911 0.0
H2274 H 0.48844 0.74923 0.48079 0.0
H2275 H 0.58582 0.74681 0.4654 0.0
H2276 H 0.47396 0.74009 0.50275 0.0
H2277 H 0.54488 0.74566 0.5198 0.0
C2278 C 0.85318 0.01999 0.23532 0.0
C2279 C 0.78668 0.0013 0.2277 0.0
C2280 C 0.73485 0.98186 0.25163 0.0
C2281 C 0.80337 0.00028 0.25924 0.0
N2282 N 0.91957 0.03789 0.2587 0.0
N2283 N 0.66539 0.96432 0.2282 0.0
C2284 C 0.85996 0.01963 0.25116 0.0
C2285 C 0.72819 0.98217 0.23577 0.0
N2286 N 0.91644 0.03733 0.22735 0.0
N2287 N 0.66867 0.96502 0.25965 0.0
H2288 H 0.64443 0.96536 0.21687 0.0
H2289 H 0.63638 0.94804 0.23291 0.0
H2290 H 0.67039 0.96416 0.27121 0.0
H2291 H 0.60527 0.95266 0.2551 0.0
H2292 H 0.98065 0.04952 0.23192 0.0
H2293 H 0.91172 0.03893 0.21583 0.0
H2294 H 0.94525 0.05438 0.25399 0.0
H2295 H 0.94008 0.03708 0.27001 0.0
C2296 C 0.65153 0.47857 0.5026 0.0
C2297 C 0.57595 0.49547 0.51056 0.0
C2298 C 0.4964 0.51224 0.48693 0.0
C2299 C 0.56625 0.49433 0.479 0.0
N2300 N 0.68656 0.45682 0.47962 0.0
N2301 N 0.40683 0.52506 0.51048 0.0
C2302 C 0.63602 0.47631 0.48693 0.0
C2303 C 0.49353 0.51152 0.50277 0.0
N2304 N 0.74325 0.46551 0.50988 0.0
N2305 N 0.43028 0.52972 0.47933 0.0
H2306 H 0.39936 0.52457 0.52201 0.0
H2307 H 0.33438 0.53505 0.50546 0.0
H2308 H 0.41679 0.52943 0.46784 0.0
H2309 H 0.39306 0.54518 0.48437 0.0
H2310 H 0.81088 0.45495 0.50442 0.0
H2311 H 0.7603 0.46708 0.52127 0.0
H2312 H 0.72466 0.44181 0.4851 0.0
H2313 H 0.68181 0.45457 0.46814 0.0
C2314 C 0.43538 0.75145 0.75125 0.0
C2315 C 0.53799 0.7441 0.76039 0.0
C2316 C 0.66564 0.73578 0.73811 0.0
C2317 C 0.56863 0.7464 0.7291 0.0
N2318 N 0.36648 0.76782 0.72774 0.0
N2319 N 0.75701 0.73126 0.7627 0.0
C2320 C 0.45573 0.75549 0.73586 0.0
C2321 C 0.65455 0.7366 0.75388 0.0
N2322 N 0.31571 0.75277 0.75706 0.0
N2323 N 0.7692 0.72498 0.73173 0.0
H2324 H 0.75372 0.73104 0.77427 0.0
H2325 H 0.84881 0.72898 0.75863 0.0
H2326 H 0.78928 0.72569 0.72042 0.0
H2327 H 0.83242 0.71396 0.73759 0.0
H2328 H 0.23461 0.75578 0.75064 0.0
H2329 H 0.2959 0.74754 0.76794 0.0
H2330 H 0.29196 0.77738 0.73264 0.0
H2331 H 0.36918 0.76984 0.71624 0.0
C2332 C 0.43485 0.25255 0.25196 0.0
C2333 C 0.55053 0.25166 0.2601 0.0
C2334 C 0.67198 0.25022 0.23679 0.0
C2335 C 0.55634 0.25228 0.22867 0.0
N2336 N 0.32848 0.25747 0.22817 0.0
N2337 N 0.7792 0.25134 0.26077 0.0
C2338 C 0.43807 0.25422 0.23617 0.0
C2339 C 0.6692 0.25083 0.25264 0.0
N2340 N 0.32182 0.25033 0.25931 0.0
N2341 N 0.78445 0.24773 0.22931 0.0
H2342 H 0.78042 0.25088 0.27236 0.0
H2343 H 0.86925 0.2535 0.25624 0.0
H2344 H 0.79211 0.24933 0.21779 0.0
H2345 H 0.8703 0.24319 0.23436 0.0
H2346 H 0.23445 0.24809 0.25407 0.0
H2347 H 0.3158 0.24875 0.27083 0.0
H2348 H 0.24193 0.26231 0.23291 0.0
H2349 H 0.32439 0.2565 0.2166 0.0
C2350 C 0.60148 0.97969 0.0015 0.0
C2351 C 0.53896 0.99818 0.00975 0.0
C2352 C 0.46675 0.01715 0.98636 0.0
C2353 C 0.5253 0.99814 0.97816 0.0
N2354 N 0.62984 0.95901 0.97799 0.0
N2355 N 0.39442 0.03229 0.01016 0.0
C2356 C 0.58631 0.97866 0.98575 0.0
C2357 C 0.46761 0.01642 0.00221 0.0
N2358 N 0.68175 0.96385 0.00858 0.0
N2359 N 0.40824 0.03583 0.97898 0.0
H2360 H 0.39178 0.03254 0.0217 0.0
H2361 H 0.32778 0.04396 0.00543 0.0
H2362 H 0.38929 0.0356 0.96759 0.0
H2363 H 0.38211 0.05207 0.98402 0.0
H2364 H 0.74323 0.95216 0.00301 0.0
H2365 H 0.69594 0.96364 0.02004 0.0
H2366 H 0.65832 0.94288 0.98304 0.0
H2367 H 0.62998 0.95796 0.96643 0.0
loop_
_geom_bond_atom_site_label_1
_geom_bond_atom_site_label_2
_geom_bond_distance
_geom_bond_site_symmetry_2
_ccdc_geom_bond_type
Tb0 O3 2.453 . S
Tb0 O4 2.596 . S
Tb0 O5 2.374 . S
Tb0 O13 2.343 1_455 S
Tb0 O15 2.353 . S
Tb0 O17 2.427 1_455 S
Tb0 O18 2.513 1_455 S
C1 O5 1.251 . S
C1 O7 1.263 . S
Tb2 O4 2.343 1_655 S
Tb2 O7 2.353 1_655 S
Tb2 O10 2.427 1_655 S
Tb2 O11 2.513 1_655 S
Tb2 O12 2.453 . S
Tb2 O13 2.596 . S
Tb2 O14 2.374 . S
O3 Tb0 2.453 . S
O3 C19 1.245 . S
O4 Tb0 2.596 . S
O4 Tb2 2.343 1_455 S
O4 C19 1.259 . S
O5 Tb0 2.374 . S
O5 C1 1.251 . S
C6 O10 1.275 . S
C6 O11 1.246 . S
O7 C1 1.263 . S
O7 Tb2 2.353 1_455 S
C8 O12 1.245 . S
C8 O13 1.259 . S
C9 O14 1.250 . S
C9 O15 1.263 1_655 S
O10 Tb2 2.427 1_455 S
O10 C6 1.275 . S
O11 Tb2 2.513 1_455 S
O11 C6 1.246 . S
O12 Tb2 2.453 . S
O12 C8 1.245 . S
O13 Tb0 2.343 1_655 S
O13 Tb2 2.596 . S
O13 C8 1.259 . S
O14 Tb2 2.374 . S
O14 C9 1.250 . S
O15 Tb0 2.353 . S
O15 C9 1.263 1_455 S
C16 O17 1.275 . S
C16 O18 1.246 . S
O17 Tb0 2.427 1_655 S
O17 C16 1.275 . S
O18 Tb0 2.513 1_655 S
O18 C16 1.246 . S
C19 O3 1.245 . S
C19 O4 1.259 . S
Tb20 O23 2.453 1_455 S
Tb20 O24 2.596 . S
Tb20 O25 2.374 . S
Tb20 O33 2.343 . S
Tb20 O35 2.353 . S
Tb20 O37 2.427 . S
Tb20 O38 2.513 . S
C21 O25 1.251 . S
C21 O27 1.263 . S
Tb22 O24 2.343 . S
Tb22 O27 2.353 . S
Tb22 O30 2.427 . S
Tb22 O31 2.513 . S
Tb22 O32 2.453 . S
Tb22 O33 2.596 . S
Tb22 O34 2.374 . S
O23 Tb20 2.453 1_655 S
O23 C39 1.245 . S
O24 Tb20 2.596 . S
O24 Tb22 2.343 . S
O24 C39 1.259 1_455 S
O25 Tb20 2.374 . S
O25 C21 1.251 . S
C26 O30 1.275 . S
C26 O31 1.246 . S
O27 C21 1.263 . S
O27 Tb22 2.353 . S
C28 O32 1.245 . S
C28 O33 1.259 . S
C29 O34 1.250 . S
C29 O35 1.263 . S
O30 Tb22 2.427 . S
O30 C26 1.275 . S
O31 Tb22 2.513 . S
O31 C26 1.246 . S
O32 Tb22 2.453 . S
O32 C28 1.245 . S
O33 Tb20 2.343 . S
O33 Tb22 2.596 . S
O33 C28 1.259 . S
O34 Tb22 2.374 . S
O34 C29 1.250 . S
O35 Tb20 2.353 . S
O35 C29 1.263 . S
C36 O37 1.275 . S
C36 O38 1.246 . S
O37 Tb20 2.427 . S
O37 C36 1.275 . S
O38 Tb20 2.513 . S
O38 C36 1.246 . S
C39 O23 1.245 . S
C39 O24 1.259 1_655 S
Tb40 O43 2.453 . S
Tb40 O44 2.596 . S
Tb40 O45 2.374 . S
Tb40 O53 2.343 1_455 S
Tb40 O55 2.353 . S
Tb40 O57 2.427 1_455 S
Tb40 O58 2.513 1_455 S
C41 O45 1.251 . S
C41 O47 1.263 . S
Tb42 O44 2.343 1_655 S
Tb42 O47 2.353 1_655 S
Tb42 O50 2.427 1_655 S
Tb42 O51 2.513 1_655 S
Tb42 O52 2.453 . S
Tb42 O53 2.596 . S
Tb42 O54 2.374 . S
O43 Tb40 2.453 . S
O43 C59 1.245 . S
O44 Tb40 2.596 . S
O44 Tb42 2.343 1_455 S
O44 C59 1.259 . S
O45 Tb40 2.374 . S
O45 C41 1.251 . S
C46 O50 1.275 . S
C46 O51 1.246 . S
O47 C41 1.263 . S
O47 Tb42 2.353 1_455 S
C48 O52 1.245 . S
C48 O53 1.259 . S
C49 O54 1.250 . S
C49 O55 1.263 1_655 S
O50 Tb42 2.427 1_455 S
O50 C46 1.275 . S
O51 Tb42 2.513 1_455 S
O51 C46 1.246 . S
O52 Tb42 2.453 . S
O52 C48 1.245 . S
O53 Tb40 2.343 1_655 S
O53 Tb42 2.596 . S
O53 C48 1.259 . S
O54 Tb42 2.374 . S
O54 C49 1.250 . S
O55 Tb40 2.353 . S
O55 C49 1.263 1_455 S
C56 O57 1.275 . S
C56 O58 1.246 . S
O57 Tb40 2.427 1_655 S
O57 C56 1.275 . S
O58 Tb40 2.513 1_655 S
O58 C56 1.246 . S
C59 O43 1.245 . S
C59 O44 1.259 . S
Tb60 O63 2.453 1_455 S
Tb60 O64 2.596 . S
Tb60 O65 2.374 . S
Tb60 O73 2.343 . S
Tb60 O75 2.353 . S
Tb60 O77 2.427 . S
Tb60 O78 2.513 . S
C61 O65 1.251 . S
C61 O67 1.263 . S
Tb62 O64 2.343 . S
Tb62 O67 2.353 . S
Tb62 O70 2.427 . S
Tb62 O71 2.513 . S
Tb62 O72 2.453 . S
Tb62 O73 2.596 . S
Tb62 O74 2.374 . S
O63 Tb60 2.453 1_655 S
O63 C79 1.245 . S
O64 Tb60 2.596 . S
O64 Tb62 2.343 . S
O64 C79 1.259 1_455 S
O65 Tb60 2.374 . S
O65 C61 1.251 . S
C66 O70 1.275 . S
C66 O71 1.246 . S
O67 C61 1.263 . S
O67 Tb62 2.353 . S
C68 O72 1.245 . S
C68 O73 1.259 . S
C69 O74 1.250 . S
C69 O75 1.263 . S
O70 Tb62 2.427 . S
O70 C66 1.275 . S
O71 Tb62 2.513 . S
O71 C66 1.246 . S
O72 Tb62 2.453 . S
O72 C68 1.245 . S
O73 Tb60 2.343 . S
O73 Tb62 2.596 . S
O73 C68 1.259 . S
O74 Tb62 2.374 . S
O74 C69 1.250 . S
O75 Tb60 2.353 . S
O75 C69 1.263 . S
C76 O77 1.275 . S
C76 O78 1.246 . S
O77 Tb60 2.427 . S
O77 C76 1.275 . S
O78 Tb60 2.513 . S
O78 C76 1.246 . S
C79 O63 1.245 . S
C79 O64 1.259 1_655 S
Tb80 O83 2.453 . S
Tb80 O84 2.596 . S
Tb80 O85 2.374 . S
Tb80 O93 2.343 1_455 S
Tb80 O95 2.353 1_455 S
Tb80 O97 2.427 1_455 S
Tb80 O98 2.513 1_455 S
C81 O85 1.251 . S
C81 O87 1.263 1_455 S
Tb82 O84 2.343 1_655 S
Tb82 O87 2.353 . S
Tb82 O90 2.427 1_655 S
Tb82 O91 2.513 1_655 S
Tb82 O92 2.453 . S
Tb82 O93 2.596 . S
Tb82 O94 2.374 . S
O83 Tb80 2.453 . S
O83 C99 1.245 . S
O84 Tb80 2.596 . S
O84 Tb82 2.343 1_455 S
O84 C99 1.259 . S
O85 Tb80 2.374 . S
O85 C81 1.251 . S
C86 O90 1.275 . S
C86 O91 1.246 . S
O87 C81 1.263 1_655 S
O87 Tb82 2.353 . S
C88 O92 1.245 . S
C88 O93 1.259 . S
C89 O94 1.250 . S
C89 O95 1.263 . S
O90 Tb82 2.427 1_455 S
O90 C86 1.275 . S
O91 Tb82 2.513 1_455 S
O91 C86 1.246 . S
O92 Tb82 2.453 . S
O92 C88 1.245 . S
O93 Tb80 2.343 1_655 S
O93 Tb82 2.596 . S
O93 C88 1.259 . S
O94 Tb82 2.374 . S
O94 C89 1.250 . S
O95 Tb80 2.353 1_655 S
O95 C89 1.263 . S
C96 O97 1.275 . S
C96 O98 1.246 . S
O97 Tb80 2.427 1_655 S
O97 C96 1.275 . S
O98 Tb80 2.513 1_655 S
O98 C96 1.246 . S
C99 O83 1.245 . S
C99 O84 1.259 . S
Tb100 O103 2.453 . S
Tb100 O104 2.596 . S
Tb100 O105 2.374 . S
Tb100 O113 2.343 . S
Tb100 O115 2.353 . S
Tb100 O117 2.427 . S
Tb100 O118 2.513 . S
C101 O105 1.251 . S
C101 O107 1.263 . S
Tb102 O104 2.343 . S
Tb102 O107 2.353 . S
Tb102 O110 2.427 . S
Tb102 O111 2.513 . S
Tb102 O112 2.453 1_655 S
Tb102 O113 2.596 . S
Tb102 O114 2.374 . S
O103 Tb100 2.453 . S
O103 C119 1.245 . S
O104 Tb100 2.596 . S
O104 Tb102 2.343 . S
O104 C119 1.259 . S
O105 Tb100 2.374 . S
O105 C101 1.251 . S
C106 O110 1.275 . S
C106 O111 1.246 . S
O107 C101 1.263 . S
O107 Tb102 2.353 . S
C108 O112 1.245 . S
C108 O113 1.259 1_455 S
C109 O114 1.250 . S
C109 O115 1.263 . S
O110 Tb102 2.427 . S
O110 C106 1.275 . S
O111 Tb102 2.513 . S
O111 C106 1.246 . S
O112 Tb102 2.453 1_455 S
O112 C108 1.245 . S
O113 Tb100 2.343 . S
O113 Tb102 2.596 . S
O113 C108 1.259 1_655 S
O114 Tb102 2.374 . S
O114 C109 1.250 . S
O115 Tb100 2.353 . S
O115 C109 1.263 . S
C116 O117 1.275 . S
C116 O118 1.246 . S
O117 Tb100 2.427 . S
O117 C116 1.275 . S
O118 Tb100 2.513 . S
O118 C116 1.246 . S
C119 O103 1.245 . S
C119 O104 1.259 . S
Tb120 O123 2.453 . S
Tb120 O124 2.596 . S
Tb120 O125 2.374 . S
Tb120 O133 2.343 1_455 S
Tb120 O135 2.353 1_455 S
Tb120 O137 2.427 1_455 S
Tb120 O138 2.513 1_455 S
C121 O125 1.251 . S
C121 O127 1.263 1_455 S
Tb122 O124 2.343 1_655 S
Tb122 O127 2.353 . S
Tb122 O130 2.427 1_655 S
Tb122 O131 2.513 1_655 S
Tb122 O132 2.453 . S
Tb122 O133 2.596 . S
Tb122 O134 2.374 . S
O123 Tb120 2.453 . S
O123 C139 1.245 . S
O124 Tb120 2.596 . S
O124 Tb122 2.343 1_455 S
O124 C139 1.259 . S
O125 Tb120 2.374 . S
O125 C121 1.251 . S
C126 O130 1.275 . S
C126 O131 1.246 . S
O127 C121 1.263 1_655 S
O127 Tb122 2.353 . S
C128 O132 1.245 . S
C128 O133 1.259 . S
C129 O134 1.250 . S
C129 O135 1.263 . S
O130 Tb122 2.427 1_455 S
O130 C126 1.275 . S
O131 Tb122 2.513 1_455 S
O131 C126 1.246 . S
O132 Tb122 2.453 . S
O132 C128 1.245 . S
O133 Tb120 2.343 1_655 S
O133 Tb122 2.596 . S
O133 C128 1.259 . S
O134 Tb122 2.374 . S
O134 C129 1.250 . S
O135 Tb120 2.353 1_655 S
O135 C129 1.263 . S
C136 O137 1.275 . S
C136 O138 1.246 . S
O137 Tb120 2.427 1_655 S
O137 C136 1.275 . S
O138 Tb120 2.513 1_655 S
O138 C136 1.246 . S
C139 O123 1.245 . S
C139 O124 1.259 . S
Tb140 O143 2.453 . S
Tb140 O144 2.596 . S
Tb140 O145 2.374 . S
Tb140 O153 2.343 . S
Tb140 O155 2.353 . S
Tb140 O157 2.427 . S
Tb140 O158 2.513 . S
C141 O145 1.251 . S
C141 O147 1.263 . S
Tb142 O144 2.343 . S
Tb142 O147 2.353 . S
Tb142 O150 2.427 . S
Tb142 O151 2.513 . S
Tb142 O152 2.453 1_655 S
Tb142 O153 2.596 . S
Tb142 O154 2.374 . S
O143 Tb140 2.453 . S
O143 C159 1.245 . S
O144 Tb140 2.596 . S
O144 Tb142 2.343 . S
O144 C159 1.259 . S
O145 Tb140 2.374 . S
O145 C141 1.251 . S
C146 O150 1.275 . S
C146 O151 1.246 . S
O147 C141 1.263 . S
O147 Tb142 2.353 . S
C148 O152 1.245 . S
C148 O153 1.259 1_455 S
C149 O154 1.250 . S
C149 O155 1.263 . S
O150 Tb142 2.427 . S
O150 C146 1.275 . S
O151 Tb142 2.513 . S
O151 C146 1.246 . S
O152 Tb142 2.453 1_455 S
O152 C148 1.245 . S
O153 Tb140 2.343 . S
O153 Tb142 2.596 . S
O153 C148 1.259 1_655 S
O154 Tb142 2.374 . S
O154 C149 1.250 . S
O155 Tb140 2.353 . S
O155 C149 1.263 . S
C156 O157 1.275 . S
C156 O158 1.246 . S
O157 Tb140 2.427 . S
O157 C156 1.275 . S
O158 Tb140 2.513 . S
O158 C156 1.246 . S
C159 O143 1.245 . S
C159 O144 1.259 . S
Tb160 O163 2.453 . S
Tb160 O164 2.596 1_565 S
Tb160 O165 2.374 . S
Tb160 O173 2.343 1_455 S
Tb160 O175 2.353 . S
Tb160 O177 2.427 1_455 S
Tb160 O178 2.513 1_455 S
C161 O165 1.290 . S
C161 O167 1.227 1_565 S
Tb162 O164 2.343 1_655 S
Tb162 O167 2.353 1_655 S
Tb162 O170 2.427 1_655 S
Tb162 O171 2.513 1_655 S
Tb162 O172 2.453 . S
Tb162 O173 2.596 1_545 S
Tb162 O174 2.374 . S
O163 Tb160 2.453 . S
O163 C179 1.245 1_565 S
O164 Tb160 2.596 1_545 S
O164 Tb162 2.343 1_455 S
O164 C179 1.259 . S
O165 Tb160 2.374 . S
O165 C161 1.290 . S
C166 O170 1.275 . S
C166 O171 1.246 . S
O167 C161 1.227 1_545 S
O167 Tb162 2.353 1_455 S
C168 O172 1.245 1_565 S
C168 O173 1.259 . S
C169 O174 1.280 . S
C169 O175 1.235 1_645 S
O170 Tb162 2.427 1_455 S
O170 C166 1.275 . S
O171 Tb162 2.513 1_455 S
O171 C166 1.246 . S
O172 Tb162 2.453 . S
O172 C168 1.245 1_545 S
O173 Tb160 2.343 1_655 S
O173 Tb162 2.596 1_565 S
O173 C168 1.259 . S
O174 Tb162 2.374 . S
O174 C169 1.280 . S
O175 Tb160 2.353 . S
O175 C169 1.235 1_465 S
C176 O177 1.275 . S
C176 O178 1.246 . S
O177 Tb160 2.427 1_655 S
O177 C176 1.275 . S
O178 Tb160 2.513 1_655 S
O178 C176 1.246 . S
C179 O163 1.245 1_545 S
C179 O164 1.259 . S
Tb180 O183 2.453 1_455 S
Tb180 O184 2.596 . S
Tb180 O185 2.374 . S
Tb180 O193 2.343 . S
Tb180 O195 2.353 . S
Tb180 O197 2.427 . S
Tb180 O198 2.513 . S
C181 O185 1.251 . S
C181 O187 1.263 . S
Tb182 O184 2.343 . S
Tb182 O187 2.353 . S
Tb182 O190 2.427 . S
Tb182 O191 2.513 . S
Tb182 O192 2.453 . S
Tb182 O193 2.596 . S
Tb182 O194 2.374 . S
O183 Tb180 2.453 1_655 S
O183 C199 1.245 . S
O184 Tb180 2.596 . S
O184 Tb182 2.343 . S
O184 C199 1.259 1_455 S
O185 Tb180 2.374 . S
O185 C181 1.251 . S
C186 O190 1.275 . S
C186 O191 1.246 . S
O187 C181 1.263 . S
O187 Tb182 2.353 . S
C188 O192 1.245 . S
C188 O193 1.259 . S
C189 O194 1.250 . S
C189 O195 1.263 . S
O190 Tb182 2.427 . S
O190 C186 1.275 . S
O191 Tb182 2.513 . S
O191 C186 1.246 . S
O192 Tb182 2.453 . S
O192 C188 1.245 . S
O193 Tb180 2.343 . S
O193 Tb182 2.596 . S
O193 C188 1.259 . S
O194 Tb182 2.374 . S
O194 C189 1.250 . S
O195 Tb180 2.353 . S
O195 C189 1.263 . S
C196 O197 1.275 . S
C196 O198 1.246 . S
O197 Tb180 2.427 . S
O197 C196 1.275 . S
O198 Tb180 2.513 . S
O198 C196 1.246 . S
C199 O183 1.245 . S
C199 O184 1.259 1_655 S
Tb200 O203 2.453 . S
Tb200 O204 2.596 . S
Tb200 O205 2.374 . S
Tb200 O213 2.343 1_455 S
Tb200 O215 2.353 . S
Tb200 O217 2.427 1_455 S
Tb200 O218 2.513 1_455 S
C201 O205 1.251 . S
C201 O207 1.263 . S
Tb202 O204 2.343 1_655 S
Tb202 O207 2.353 1_655 S
Tb202 O210 2.427 1_655 S
Tb202 O211 2.513 1_655 S
Tb202 O212 2.453 . S
Tb202 O213 2.596 . S
Tb202 O214 2.374 . S
O203 Tb200 2.453 . S
O203 C219 1.245 . S
O204 Tb200 2.596 . S
O204 Tb202 2.343 1_455 S
O204 C219 1.259 . S
O205 Tb200 2.374 . S
O205 C201 1.251 . S
C206 O210 1.275 . S
C206 O211 1.246 . S
O207 C201 1.263 . S
O207 Tb202 2.353 1_455 S
C208 O212 1.245 . S
C208 O213 1.259 . S
C209 O214 1.250 . S
C209 O215 1.263 1_655 S
O210 Tb202 2.427 1_455 S
O210 C206 1.275 . S
O211 Tb202 2.513 1_455 S
O211 C206 1.246 . S
O212 Tb202 2.453 . S
O212 C208 1.245 . S
O213 Tb200 2.343 1_655 S
O213 Tb202 2.596 . S
O213 C208 1.259 . S
O214 Tb202 2.374 . S
O214 C209 1.250 . S
O215 Tb200 2.353 . S
O215 C209 1.263 1_455 S
C216 O217 1.275 . S
C216 O218 1.246 . S
O217 Tb200 2.427 1_655 S
O217 C216 1.275 . S
O218 Tb200 2.513 1_655 S
O218 C216 1.246 . S
C219 O203 1.245 . S
C219 O204 1.259 . S
Tb220 O223 2.453 1_455 S
Tb220 O224 2.596 1_565 S
Tb220 O225 2.374 . S
Tb220 O233 2.343 . S
Tb220 O235 2.353 . S
Tb220 O237 2.427 . S
Tb220 O238 2.513 . S
C221 O225 1.290 . S
C221 O227 1.227 1_565 S
Tb222 O224 2.343 . S
Tb222 O227 2.353 . S
Tb222 O230 2.427 . S
Tb222 O231 2.513 . S
Tb222 O232 2.453 . S
Tb222 O233 2.596 1_545 S
Tb222 O234 2.374 . S
O223 Tb220 2.453 1_655 S
O223 C239 1.245 1_565 S
O224 Tb220 2.596 1_545 S
O224 Tb222 2.343 . S
O224 C239 1.259 1_455 S
O225 Tb220 2.374 . S
O225 C221 1.290 . S
C226 O230 1.275 . S
C226 O231 1.246 . S
O227 C221 1.227 1_545 S
O227 Tb222 2.353 . S
C228 O232 1.245 1_565 S
C228 O233 1.259 . S
C229 O234 1.280 . S
C229 O235 1.236 1_545 S
O230 Tb222 2.427 . S
O230 C226 1.275 . S
O231 Tb222 2.513 . S
O231 C226 1.246 . S
O232 Tb222 2.453 . S
O232 C228 1.245 1_545 S
O233 Tb220 2.343 . S
O233 Tb222 2.596 1_565 S
O233 C228 1.259 . S
O234 Tb222 2.374 . S
O234 C229 1.280 . S
O235 Tb220 2.353 . S
O235 C229 1.236 1_565 S
C236 O237 1.275 . S
C236 O238 1.246 . S
O237 Tb220 2.427 . S
O237 C236 1.275 . S
O238 Tb220 2.513 . S
O238 C236 1.246 . S
C239 O223 1.245 1_545 S
C239 O224 1.259 1_655 S
Tb240 O243 2.453 . S
Tb240 O244 2.596 1_565 S
Tb240 O245 2.374 . S
Tb240 O253 2.343 1_455 S
Tb240 O255 2.353 1_455 S
Tb240 O257 2.427 1_455 S
Tb240 O258 2.513 1_455 S
C241 O245 1.280 . S
C241 O247 1.235 1_465 S
Tb242 O244 2.343 1_655 S
Tb242 O247 2.353 . S
Tb242 O250 2.427 1_655 S
Tb242 O251 2.513 1_655 S
Tb242 O252 2.453 . S
Tb242 O253 2.596 1_545 S
Tb242 O254 2.374 . S
O243 Tb240 2.453 . S
O243 C259 1.245 1_565 S
O244 Tb240 2.596 1_545 S
O244 Tb242 2.343 1_455 S
O244 C259 1.259 . S
O245 Tb240 2.374 . S
O245 C241 1.280 . S
C246 O250 1.275 . S
C246 O251 1.246 . S
O247 C241 1.235 1_645 S
O247 Tb242 2.353 . S
C248 O252 1.245 1_565 S
C248 O253 1.259 . S
C249 O254 1.290 . S
C249 O255 1.227 1_545 S
O250 Tb242 2.427 1_455 S
O250 C246 1.275 . S
O251 Tb242 2.513 1_455 S
O251 C246 1.246 . S
O252 Tb242 2.453 . S
O252 C248 1.245 1_545 S
O253 Tb240 2.343 1_655 S
O253 Tb242 2.596 1_565 S
O253 C248 1.259 . S
O254 Tb242 2.374 . S
O254 C249 1.290 . S
O255 Tb240 2.353 1_655 S
O255 C249 1.227 1_565 S
C256 O257 1.275 . S
C256 O258 1.246 . S
O257 Tb240 2.427 1_655 S
O257 C256 1.275 . S
O258 Tb240 2.513 1_655 S
O258 C256 1.246 . S
C259 O243 1.245 1_545 S
C259 O244 1.259 . S
Tb260 O263 2.453 . S
Tb260 O264 2.596 . S
Tb260 O265 2.374 . S
Tb260 O273 2.343 . S
Tb260 O275 2.353 . S
Tb260 O277 2.427 . S
Tb260 O278 2.513 . S
C261 O265 1.251 . S
C261 O267 1.263 . S
Tb262 O264 2.343 . S
Tb262 O267 2.353 . S
Tb262 O270 2.427 . S
Tb262 O271 2.513 . S
Tb262 O272 2.453 1_655 S
Tb262 O273 2.596 . S
Tb262 O274 2.374 . S
O263 Tb260 2.453 . S
O263 C279 1.245 . S
O264 Tb260 2.596 . S
O264 Tb262 2.343 . S
O264 C279 1.259 . S
O265 Tb260 2.374 . S
O265 C261 1.251 . S
C266 O270 1.275 . S
C266 O271 1.246 . S
O267 C261 1.263 . S
O267 Tb262 2.353 . S
C268 O272 1.245 . S
C268 O273 1.259 1_455 S
C269 O274 1.250 . S
C269 O275 1.263 . S
O270 Tb262 2.427 . S
O270 C266 1.275 . S
O271 Tb262 2.513 . S
O271 C266 1.246 . S
O272 Tb262 2.453 1_455 S
O272 C268 1.245 . S
O273 Tb260 2.343 . S
O273 Tb262 2.596 . S
O273 C268 1.259 1_655 S
O274 Tb262 2.374 . S
O274 C269 1.250 . S
O275 Tb260 2.353 . S
O275 C269 1.263 . S
C276 O277 1.275 . S
C276 O278 1.246 . S
O277 Tb260 2.427 . S
O277 C276 1.275 . S
O278 Tb260 2.513 . S
O278 C276 1.246 . S
C279 O263 1.245 . S
C279 O264 1.259 . S
Tb280 O283 2.453 . S
Tb280 O284 2.596 . S
Tb280 O285 2.374 . S
Tb280 O293 2.343 1_455 S
Tb280 O295 2.353 1_455 S
Tb280 O297 2.427 1_455 S
Tb280 O298 2.513 1_455 S
C281 O285 1.251 . S
C281 O287 1.263 1_455 S
Tb282 O284 2.343 1_655 S
Tb282 O287 2.353 . S
Tb282 O290 2.427 1_655 S
Tb282 O291 2.513 1_655 S
Tb282 O292 2.453 . S
Tb282 O293 2.596 . S
Tb282 O294 2.374 . S
O283 Tb280 2.453 . S
O283 C299 1.245 . S
O284 Tb280 2.596 . S
O284 Tb282 2.343 1_455 S
O284 C299 1.259 . S
O285 Tb280 2.374 . S
O285 C281 1.251 . S
C286 O290 1.275 . S
C286 O291 1.246 . S
O287 C281 1.263 1_655 S
O287 Tb282 2.353 . S
C288 O292 1.245 . S
C288 O293 1.259 . S
C289 O294 1.250 . S
C289 O295 1.263 . S
O290 Tb282 2.427 1_455 S
O290 C286 1.275 . S
O291 Tb282 2.513 1_455 S
O291 C286 1.246 . S
O292 Tb282 2.453 . S
O292 C288 1.245 . S
O293 Tb280 2.343 1_655 S
O293 Tb282 2.596 . S
O293 C288 1.259 . S
O294 Tb282 2.374 . S
O294 C289 1.250 . S
O295 Tb280 2.353 1_655 S
O295 C289 1.263 . S
C296 O297 1.275 . S
C296 O298 1.246 . S
O297 Tb280 2.427 1_655 S
O297 C296 1.275 . S
O298 Tb280 2.513 1_655 S
O298 C296 1.246 . S
C299 O283 1.245 . S
C299 O284 1.259 . S
Tb300 O303 2.453 . S
Tb300 O304 2.596 1_565 S
Tb300 O305 2.374 . S
Tb300 O313 2.343 . S
Tb300 O315 2.353 . S
Tb300 O317 2.427 . S
Tb300 O318 2.513 . S
C301 O305 1.280 . S
C301 O307 1.236 1_565 S
Tb302 O304 2.343 . S
Tb302 O307 2.353 . S
Tb302 O310 2.427 . S
Tb302 O311 2.513 . S
Tb302 O312 2.453 1_655 S
Tb302 O313 2.596 1_545 S
Tb302 O314 2.374 . S
O303 Tb300 2.453 . S
O303 C319 1.245 1_565 S
O304 Tb300 2.596 1_545 S
O304 Tb302 2.343 . S
O304 C319 1.259 . S
O305 Tb300 2.374 . S
O305 C301 1.280 . S
C306 O310 1.275 . S
C306 O311 1.246 . S
O307 C301 1.236 1_545 S
O307 Tb302 2.353 . S
C308 O312 1.245 1_565 S
C308 O313 1.259 1_455 S
C309 O314 1.290 . S
C309 O315 1.227 1_545 S
O310 Tb302 2.427 . S
O310 C306 1.275 . S
O311 Tb302 2.513 . S
O311 C306 1.246 . S
O312 Tb302 2.453 1_455 S
O312 C308 1.245 1_545 S
O313 Tb300 2.343 . S
O313 Tb302 2.596 1_565 S
O313 C308 1.259 1_655 S
O314 Tb302 2.374 . S
O314 C309 1.290 . S
O315 Tb300 2.353 . S
O315 C309 1.227 1_565 S
C316 O317 1.275 . S
C316 O318 1.246 . S
O317 Tb300 2.427 . S
O317 C316 1.275 . S
O318 Tb300 2.513 . S
O318 C316 1.246 . S
C319 O303 1.245 1_545 S
C319 O304 1.259 . S
Tb320 O323 2.453 . S
Tb320 O324 2.596 . S
Tb320 O325 2.374 . S
Tb320 O333 2.343 . S
Tb320 O335 2.353 . S
Tb320 O337 2.427 . S
Tb320 O338 2.513 . S
C321 O325 1.251 . S
C321 O327 1.263 . S
Tb322 O324 2.343 . S
Tb322 O327 2.353 . S
Tb322 O330 2.427 . S
Tb322 O331 2.513 . S
Tb322 O332 2.453 . S
Tb322 O333 2.596 . S
Tb322 O334 2.374 . S
O323 Tb320 2.453 . S
O323 C339 1.245 . S
O324 Tb320 2.596 . S
O324 Tb322 2.343 . S
O324 C339 1.259 . S
O325 Tb320 2.374 . S
O325 C321 1.251 . S
C326 O330 1.275 . S
C326 O331 1.246 . S
O327 C321 1.263 . S
O327 Tb322 2.353 . S
C328 O332 1.245 . S
C328 O333 1.259 . S
C329 O334 1.250 . S
C329 O335 1.263 . S
O330 Tb322 2.427 . S
O330 C326 1.275 . S
O331 Tb322 2.513 . S
O331 C326 1.246 . S
O332 Tb322 2.453 . S
O332 C328 1.245 . S
O333 Tb320 2.343 . S
O333 Tb322 2.596 . S
O333 C328 1.259 . S
O334 Tb322 2.374 . S
O334 C329 1.250 . S
O335 Tb320 2.353 . S
O335 C329 1.263 . S
C336 O337 1.275 . S
C336 O338 1.246 . S
O337 Tb320 2.427 . S
O337 C336 1.275 . S
O338 Tb320 2.513 . S
O338 C336 1.246 . S
C339 O323 1.245 . S
C339 O324 1.259 . S
Tb340 O343 2.453 . S
Tb340 O344 2.596 . S
Tb340 O345 2.374 . S
Tb340 O353 2.343 . S
Tb340 O355 2.353 . S
Tb340 O357 2.427 . S
Tb340 O358 2.513 . S
C341 O345 1.251 . S
C341 O347 1.263 . S
Tb342 O344 2.343 . S
Tb342 O347 2.353 . S
Tb342 O350 2.427 . S
Tb342 O351 2.513 . S
Tb342 O352 2.453 . S
Tb342 O353 2.596 . S
Tb342 O354 2.374 . S
O343 Tb340 2.453 . S
O343 C359 1.245 . S
O344 Tb340 2.596 . S
O344 Tb342 2.343 . S
O344 C359 1.259 . S
O345 Tb340 2.374 . S
O345 C341 1.251 . S
C346 O350 1.275 . S
C346 O351 1.246 . S
O347 C341 1.263 . S
O347 Tb342 2.353 . S
C348 O352 1.245 . S
C348 O353 1.259 . S
C349 O354 1.250 . S
C349 O355 1.263 . S
O350 Tb342 2.427 . S
O350 C346 1.275 . S
O351 Tb342 2.513 . S
O351 C346 1.246 . S
O352 Tb342 2.453 . S
O352 C348 1.245 . S
O353 Tb340 2.343 . S
O353 Tb342 2.596 . S
O353 C348 1.259 . S
O354 Tb342 2.374 . S
O354 C349 1.250 . S
O355 Tb340 2.353 . S
O355 C349 1.263 . S
C356 O357 1.275 . S
C356 O358 1.246 . S
O357 Tb340 2.427 . S
O357 C356 1.275 . S
O358 Tb340 2.513 . S
O358 C356 1.246 . S
C359 O343 1.245 . S
C359 O344 1.259 . S
Tb360 O363 2.453 . S
Tb360 O364 2.596 . S
Tb360 O365 2.374 . S
Tb360 O373 2.343 . S
Tb360 O375 2.353 . S
Tb360 O377 2.427 . S
Tb360 O378 2.513 . S
C361 O365 1.251 . S
C361 O367 1.263 . S
Tb362 O364 2.343 . S
Tb362 O367 2.353 . S
Tb362 O370 2.427 . S
Tb362 O371 2.513 . S
Tb362 O372 2.453 . S
Tb362 O373 2.596 . S
Tb362 O374 2.374 . S
O363 Tb360 2.453 . S
O363 C379 1.245 . S
O364 Tb360 2.596 . S
O364 Tb362 2.343 . S
O364 C379 1.259 . S
O365 Tb360 2.374 . S
O365 C361 1.251 . S
C366 O370 1.275 . S
C366 O371 1.246 . S
O367 C361 1.263 . S
O367 Tb362 2.353 . S
C368 O372 1.245 . S
C368 O373 1.259 . S
C369 O374 1.250 . S
C369 O375 1.263 . S
O370 Tb362 2.427 . S
O370 C366 1.275 . S
O371 Tb362 2.513 . S
O371 C366 1.246 . S
O372 Tb362 2.453 . S
O372 C368 1.245 . S
O373 Tb360 2.343 . S
O373 Tb362 2.596 . S
O373 C368 1.259 . S
O374 Tb362 2.374 . S
O374 C369 1.250 . S
O375 Tb360 2.353 . S
O375 C369 1.263 . S
C376 O377 1.275 . S
C376 O378 1.246 . S
O377 Tb360 2.427 . S
O377 C376 1.275 . S
O378 Tb360 2.513 . S
O378 C376 1.246 . S
C379 O363 1.245 . S
C379 O364 1.259 . S
Tb380 O383 2.453 . S
Tb380 O384 2.596 . S
Tb380 O385 2.374 . S
Tb380 O393 2.343 . S
Tb380 O395 2.353 . S
Tb380 O397 2.427 . S
Tb380 O398 2.513 . S
C381 O385 1.251 . S
C381 O387 1.263 . S
Tb382 O384 2.343 . S
Tb382 O387 2.353 . S
Tb382 O390 2.427 . S
Tb382 O391 2.513 . S
Tb382 O392 2.453 . S
Tb382 O393 2.596 . S
Tb382 O394 2.374 . S
O383 Tb380 2.453 . S
O383 C399 1.245 . S
O384 Tb380 2.596 . S
O384 Tb382 2.343 . S
O384 C399 1.259 . S
O385 Tb380 2.374 . S
O385 C381 1.251 . S
C386 O390 1.275 . S
C386 O391 1.246 . S
O387 C381 1.263 . S
O387 Tb382 2.353 . S
C388 O392 1.245 . S
C388 O393 1.259 . S
C389 O394 1.250 . S
C389 O395 1.263 . S
O390 Tb382 2.427 . S
O390 C386 1.275 . S
O391 Tb382 2.513 . S
O391 C386 1.246 . S
O392 Tb382 2.453 . S
O392 C388 1.245 . S
O393 Tb380 2.343 . S
O393 Tb382 2.596 . S
O393 C388 1.259 . S
O394 Tb382 2.374 . S
O394 C389 1.250 . S
O395 Tb380 2.353 . S
O395 C389 1.263 . S
C396 O397 1.275 . S
C396 O398 1.246 . S
O397 Tb380 2.427 . S
O397 C396 1.275 . S
O398 Tb380 2.513 . S
O398 C396 1.246 . S
C399 O383 1.245 . S
C399 O384 1.259 . S
Tb400 O403 2.453 . S
Tb400 O404 2.596 . S
Tb400 O405 2.374 . S
Tb400 O413 2.343 . S
Tb400 O415 2.353 . S
Tb400 O417 2.427 . S
Tb400 O418 2.513 . S
C401 O405 1.251 . S
C401 O407 1.263 . S
Tb402 O404 2.343 . S
Tb402 O407 2.353 . S
Tb402 O410 2.427 . S
Tb402 O411 2.513 . S
Tb402 O412 2.453 . S
Tb402 O413 2.596 . S
Tb402 O414 2.374 . S
O403 Tb400 2.453 . S
O403 C419 1.245 . S
O404 Tb400 2.596 . S
O404 Tb402 2.343 . S
O404 C419 1.259 . S
O405 Tb400 2.374 . S
O405 C401 1.251 . S
C406 O410 1.275 . S
C406 O411 1.246 . S
O407 C401 1.263 . S
O407 Tb402 2.353 . S
C408 O412 1.245 . S
C408 O413 1.259 . S
C409 O414 1.250 . S
C409 O415 1.263 . S
O410 Tb402 2.427 . S
O410 C406 1.275 . S
O411 Tb402 2.513 . S
O411 C406 1.246 . S
O412 Tb402 2.453 . S
O412 C408 1.245 . S
O413 Tb400 2.343 . S
O413 Tb402 2.596 . S
O413 C408 1.259 . S
O414 Tb402 2.374 . S
O414 C409 1.250 . S
O415 Tb400 2.353 . S
O415 C409 1.263 . S
C416 O417 1.275 . S
C416 O418 1.246 . S
O417 Tb400 2.427 . S
O417 C416 1.275 . S
O418 Tb400 2.513 . S
O418 C416 1.246 . S
C419 O403 1.245 . S
C419 O404 1.259 . S
Tb420 O423 2.453 . S
Tb420 O424 2.596 . S
Tb420 O425 2.374 . S
Tb420 O433 2.343 . S
Tb420 O435 2.353 . S
Tb420 O437 2.427 . S
Tb420 O438 2.513 . S
C421 O425 1.251 . S
C421 O427 1.263 . S
Tb422 O424 2.343 . S
Tb422 O427 2.353 . S
Tb422 O430 2.427 . S
Tb422 O431 2.513 . S
Tb422 O432 2.453 . S
Tb422 O433 2.596 . S
Tb422 O434 2.374 . S
O423 Tb420 2.453 . S
O423 C439 1.245 . S
O424 Tb420 2.596 . S
O424 Tb422 2.343 . S
O424 C439 1.259 . S
O425 Tb420 2.374 . S
O425 C421 1.251 . S
C426 O430 1.275 . S
C426 O431 1.246 . S
O427 C421 1.263 . S
O427 Tb422 2.353 . S
C428 O432 1.245 . S
C428 O433 1.259 . S
C429 O434 1.250 . S
C429 O435 1.263 . S
O430 Tb422 2.427 . S
O430 C426 1.275 . S
O431 Tb422 2.513 . S
O431 C426 1.246 . S
O432 Tb422 2.453 . S
O432 C428 1.245 . S
O433 Tb420 2.343 . S
O433 Tb422 2.596 . S
O433 C428 1.259 . S
O434 Tb422 2.374 . S
O434 C429 1.250 . S
O435 Tb420 2.353 . S
O435 C429 1.263 . S
C436 O437 1.275 . S
C436 O438 1.246 . S
O437 Tb420 2.427 . S
O437 C436 1.275 . S
O438 Tb420 2.513 . S
O438 C436 1.246 . S
C439 O423 1.245 . S
C439 O424 1.259 . S
Tb440 O443 2.453 . S
Tb440 O444 2.596 . S
Tb440 O445 2.374 . S
Tb440 O453 2.343 . S
Tb440 O455 2.353 . S
Tb440 O457 2.427 . S
Tb440 O458 2.513 . S
C441 O445 1.251 . S
C441 O447 1.263 . S
Tb442 O444 2.343 . S
Tb442 O447 2.353 . S
Tb442 O450 2.427 . S
Tb442 O451 2.513 . S
Tb442 O452 2.453 . S
Tb442 O453 2.596 . S
Tb442 O454 2.374 . S
O443 Tb440 2.453 . S
O443 C459 1.245 . S
O444 Tb440 2.596 . S
O444 Tb442 2.343 . S
O444 C459 1.259 . S
O445 Tb440 2.374 . S
O445 C441 1.251 . S
C446 O450 1.275 . S
C446 O451 1.246 . S
O447 C441 1.263 . S
O447 Tb442 2.353 . S
C448 O452 1.245 . S
C448 O453 1.259 . S
C449 O454 1.250 . S
C449 O455 1.263 . S
O450 Tb442 2.427 . S
O450 C446 1.275 . S
O451 Tb442 2.513 . S
O451 C446 1.246 . S
O452 Tb442 2.453 . S
O452 C448 1.245 . S
O453 Tb440 2.343 . S
O453 Tb442 2.596 . S
O453 C448 1.259 . S
O454 Tb442 2.374 . S
O454 C449 1.250 . S
O455 Tb440 2.353 . S
O455 C449 1.263 . S
C456 O457 1.275 . S
C456 O458 1.246 . S
O457 Tb440 2.427 . S
O457 C456 1.275 . S
O458 Tb440 2.513 . S
O458 C456 1.246 . S
C459 O443 1.245 . S
C459 O444 1.259 . S
Tb460 O463 2.453 . S
Tb460 O464 2.596 . S
Tb460 O465 2.374 . S
Tb460 O473 2.343 . S
Tb460 O475 2.353 . S
Tb460 O477 2.427 . S
Tb460 O478 2.513 . S
C461 O465 1.251 . S
C461 O467 1.263 . S
Tb462 O464 2.343 . S
Tb462 O467 2.353 . S
Tb462 O470 2.427 . S
Tb462 O471 2.513 . S
Tb462 O472 2.453 . S
Tb462 O473 2.596 . S
Tb462 O474 2.374 . S
O463 Tb460 2.453 . S
O463 C479 1.245 . S
O464 Tb460 2.596 . S
O464 Tb462 2.343 . S
O464 C479 1.259 . S
O465 Tb460 2.374 . S
O465 C461 1.251 . S
C466 O470 1.275 . S
C466 O471 1.246 . S
O467 C461 1.263 . S
O467 Tb462 2.353 . S
C468 O472 1.245 . S
C468 O473 1.259 . S
C469 O474 1.250 . S
C469 O475 1.263 . S
O470 Tb462 2.427 . S
O470 C466 1.275 . S
O471 Tb462 2.513 . S
O471 C466 1.246 . S
O472 Tb462 2.453 . S
O472 C468 1.245 . S
O473 Tb460 2.343 . S
O473 Tb462 2.596 . S
O473 C468 1.259 . S
O474 Tb462 2.374 . S
O474 C469 1.250 . S
O475 Tb460 2.353 . S
O475 C469 1.263 . S
C476 O477 1.275 . S
C476 O478 1.246 . S
O477 Tb460 2.427 . S
O477 C476 1.275 . S
O478 Tb460 2.513 . S
O478 C476 1.246 . S
C479 O463 1.245 . S
C479 O464 1.259 . S
Tb480 O483 2.453 . S
Tb480 O484 2.596 1_565 S
Tb480 O485 2.374 . S
Tb480 O493 2.343 . S
Tb480 O495 2.353 . S
Tb480 O497 2.427 . S
Tb480 O498 2.513 . S
C481 O485 1.290 . S
C481 O487 1.227 1_565 S
Tb482 O484 2.343 . S
Tb482 O487 2.353 . S
Tb482 O490 2.427 . S
Tb482 O491 2.513 . S
Tb482 O492 2.453 . S
Tb482 O493 2.596 1_545 S
Tb482 O494 2.374 . S
O483 Tb480 2.453 . S
O483 C499 1.245 1_565 S
O484 Tb480 2.596 1_545 S
O484 Tb482 2.343 . S
O484 C499 1.259 . S
O485 Tb480 2.374 . S
O485 C481 1.290 . S
C486 O490 1.275 . S
C486 O491 1.246 . S
O487 C481 1.227 1_545 S
O487 Tb482 2.353 . S
C488 O492 1.245 1_565 S
C488 O493 1.259 . S
C489 O494 1.280 . S
C489 O495 1.235 1_545 S
O490 Tb482 2.427 . S
O490 C486 1.275 . S
O491 Tb482 2.513 . S
O491 C486 1.246 . S
O492 Tb482 2.453 . S
O492 C488 1.245 1_545 S
O493 Tb480 2.343 . S
O493 Tb482 2.596 1_565 S
O493 C488 1.259 . S
O494 Tb482 2.374 . S
O494 C489 1.280 . S
O495 Tb480 2.353 . S
O495 C489 1.235 1_565 S
C496 O497 1.275 . S
C496 O498 1.246 . S
O497 Tb480 2.427 . S
O497 C496 1.275 . S
O498 Tb480 2.513 . S
O498 C496 1.246 . S
C499 O483 1.245 1_545 S
C499 O484 1.259 . S
Tb500 O503 2.453 . S
Tb500 O504 2.596 . S
Tb500 O505 2.374 . S
Tb500 O513 2.343 . S
Tb500 O515 2.353 . S
Tb500 O517 2.427 . S
Tb500 O518 2.513 . S
C501 O505 1.251 . S
C501 O507 1.263 . S
Tb502 O504 2.343 . S
Tb502 O507 2.353 . S
Tb502 O510 2.427 . S
Tb502 O511 2.513 . S
Tb502 O512 2.453 . S
Tb502 O513 2.596 . S
Tb502 O514 2.374 . S
O503 Tb500 2.453 . S
O503 C519 1.245 . S
O504 Tb500 2.596 . S
O504 Tb502 2.343 . S
O504 C519 1.259 . S
O505 Tb500 2.374 . S
O505 C501 1.251 . S
C506 O510 1.275 . S
C506 O511 1.246 . S
O507 C501 1.263 . S
O507 Tb502 2.353 . S
C508 O512 1.245 . S
C508 O513 1.259 . S
C509 O514 1.250 . S
C509 O515 1.263 . S
O510 Tb502 2.427 . S
O510 C506 1.275 . S
O511 Tb502 2.513 . S
O511 C506 1.246 . S
O512 Tb502 2.453 . S
O512 C508 1.245 . S
O513 Tb500 2.343 . S
O513 Tb502 2.596 . S
O513 C508 1.259 . S
O514 Tb502 2.374 . S
O514 C509 1.250 . S
O515 Tb500 2.353 . S
O515 C509 1.263 . S
C516 O517 1.275 . S
C516 O518 1.246 . S
O517 Tb500 2.427 . S
O517 C516 1.275 . S
O518 Tb500 2.513 . S
O518 C516 1.246 . S
C519 O503 1.245 . S
C519 O504 1.259 . S
Tb520 O523 2.453 . S
Tb520 O524 2.596 . S
Tb520 O525 2.374 . S
Tb520 O533 2.343 . S
Tb520 O535 2.353 . S
Tb520 O537 2.427 . S
Tb520 O538 2.513 . S
C521 O525 1.251 . S
C521 O527 1.263 . S
Tb522 O524 2.343 . S
Tb522 O527 2.353 . S
Tb522 O530 2.427 . S
Tb522 O531 2.513 . S
Tb522 O532 2.453 . S
Tb522 O533 2.596 . S
Tb522 O534 2.374 . S
O523 Tb520 2.453 . S
O523 C539 1.245 . S
O524 Tb520 2.596 . S
O524 Tb522 2.343 . S
O524 C539 1.259 . S
O525 Tb520 2.374 . S
O525 C521 1.251 . S
C526 O530 1.275 . S
C526 O531 1.246 . S
O527 C521 1.263 . S
O527 Tb522 2.353 . S
C528 O532 1.245 . S
C528 O533 1.259 . S
C529 O534 1.250 . S
C529 O535 1.263 . S
O530 Tb522 2.427 . S
O530 C526 1.275 . S
O531 Tb522 2.513 . S
O531 C526 1.246 . S
O532 Tb522 2.453 . S
O532 C528 1.245 . S
O533 Tb520 2.343 . S
O533 Tb522 2.596 . S
O533 C528 1.259 . S
O534 Tb522 2.374 . S
O534 C529 1.250 . S
O535 Tb520 2.353 . S
O535 C529 1.263 . S
C536 O537 1.275 . S
C536 O538 1.246 . S
O537 Tb520 2.427 . S
O537 C536 1.275 . S
O538 Tb520 2.513 . S
O538 C536 1.246 . S
C539 O523 1.245 . S
C539 O524 1.259 . S
Tb540 O543 2.453 . S
Tb540 O544 2.596 1_565 S
Tb540 O545 2.374 . S
Tb540 O553 2.343 . S
Tb540 O555 2.353 . S
Tb540 O557 2.427 . S
Tb540 O558 2.513 . S
C541 O545 1.290 . S
C541 O547 1.227 1_565 S
Tb542 O544 2.343 . S
Tb542 O547 2.353 . S
Tb542 O550 2.427 . S
Tb542 O551 2.513 . S
Tb542 O552 2.453 . S
Tb542 O553 2.596 1_545 S
Tb542 O554 2.374 . S
O543 Tb540 2.453 . S
O543 C559 1.245 1_565 S
O544 Tb540 2.596 1_545 S
O544 Tb542 2.343 . S
O544 C559 1.259 . S
O545 Tb540 2.374 . S
O545 C541 1.290 . S
C546 O550 1.275 . S
C546 O551 1.246 . S
O547 C541 1.227 1_545 S
O547 Tb542 2.353 . S
C548 O552 1.245 1_565 S
C548 O553 1.259 . S
C549 O554 1.280 . S
C549 O555 1.236 1_545 S
O550 Tb542 2.427 . S
O550 C546 1.275 . S
O551 Tb542 2.513 . S
O551 C546 1.246 . S
O552 Tb542 2.453 . S
O552 C548 1.245 1_545 S
O553 Tb540 2.343 . S
O553 Tb542 2.596 1_565 S
O553 C548 1.259 . S
O554 Tb542 2.374 . S
O554 C549 1.280 . S
O555 Tb540 2.353 . S
O555 C549 1.236 1_565 S
C556 O557 1.275 . S
C556 O558 1.246 . S
O557 Tb540 2.427 . S
O557 C556 1.275 . S
O558 Tb540 2.513 . S
O558 C556 1.246 . S
C559 O543 1.245 1_545 S
C559 O544 1.259 . S
Tb560 O563 2.453 . S
Tb560 O564 2.596 1_565 S
Tb560 O565 2.374 . S
Tb560 O573 2.343 . S
Tb560 O575 2.353 . S
Tb560 O577 2.427 . S
Tb560 O578 2.513 . S
C561 O565 1.280 . S
C561 O567 1.235 1_565 S
Tb562 O564 2.343 . S
Tb562 O567 2.353 . S
Tb562 O570 2.427 . S
Tb562 O571 2.513 . S
Tb562 O572 2.453 . S
Tb562 O573 2.596 1_545 S
Tb562 O574 2.374 . S
O563 Tb560 2.453 . S
O563 C579 1.245 1_565 S
O564 Tb560 2.596 1_545 S
O564 Tb562 2.343 . S
O564 C579 1.259 . S
O565 Tb560 2.374 . S
O565 C561 1.280 . S
C566 O570 1.275 . S
C566 O571 1.246 . S
O567 C561 1.235 1_545 S
O567 Tb562 2.353 . S
C568 O572 1.245 1_565 S
C568 O573 1.259 . S
C569 O574 1.290 . S
C569 O575 1.227 1_545 S
O570 Tb562 2.427 . S
O570 C566 1.275 . S
O571 Tb562 2.513 . S
O571 C566 1.246 . S
O572 Tb562 2.453 . S
O572 C568 1.245 1_545 S
O573 Tb560 2.343 . S
O573 Tb562 2.596 1_565 S
O573 C568 1.259 . S
O574 Tb562 2.374 . S
O574 C569 1.290 . S
O575 Tb560 2.353 . S
O575 C569 1.227 1_565 S
C576 O577 1.275 . S
C576 O578 1.246 . S
O577 Tb560 2.427 . S
O577 C576 1.275 . S
O578 Tb560 2.513 . S
O578 C576 1.246 . S
C579 O563 1.245 1_545 S
C579 O564 1.259 . S
Tb580 O583 2.453 . S
Tb580 O584 2.596 . S
Tb580 O585 2.374 . S
Tb580 O593 2.343 . S
Tb580 O595 2.353 . S
Tb580 O597 2.427 . S
Tb580 O598 2.513 . S
C581 O585 1.251 . S
C581 O587 1.263 . S
Tb582 O584 2.343 . S
Tb582 O587 2.353 . S
Tb582 O590 2.427 . S
Tb582 O591 2.513 . S
Tb582 O592 2.453 . S
Tb582 O593 2.596 . S
Tb582 O594 2.374 . S
O583 Tb580 2.453 . S
O583 C599 1.245 . S
O584 Tb580 2.596 . S
O584 Tb582 2.343 . S
O584 C599 1.259 . S
O585 Tb580 2.374 . S
O585 C581 1.251 . S
C586 O590 1.275 . S
C586 O591 1.246 . S
O587 C581 1.263 . S
O587 Tb582 2.353 . S
C588 O592 1.245 . S
C588 O593 1.259 . S
C589 O594 1.250 . S
C589 O595 1.263 . S
O590 Tb582 2.427 . S
O590 C586 1.275 . S
O591 Tb582 2.513 . S
O591 C586 1.246 . S
O592 Tb582 2.453 . S
O592 C588 1.245 . S
O593 Tb580 2.343 . S
O593 Tb582 2.596 . S
O593 C588 1.259 . S
O594 Tb582 2.374 . S
O594 C589 1.250 . S
O595 Tb580 2.353 . S
O595 C589 1.263 . S
C596 O597 1.275 . S
C596 O598 1.246 . S
O597 Tb580 2.427 . S
O597 C596 1.275 . S
O598 Tb580 2.513 . S
O598 C596 1.246 . S
C599 O583 1.245 . S
C599 O584 1.259 . S
Tb600 O603 2.453 . S
Tb600 O604 2.596 . S
Tb600 O605 2.374 . S
Tb600 O613 2.343 . S
Tb600 O615 2.353 . S
Tb600 O617 2.427 . S
Tb600 O618 2.513 . S
C601 O605 1.251 . S
C601 O607 1.263 . S
Tb602 O604 2.343 . S
Tb602 O607 2.353 . S
Tb602 O610 2.427 . S
Tb602 O611 2.513 . S
Tb602 O612 2.453 . S
Tb602 O613 2.596 . S
Tb602 O614 2.374 . S
O603 Tb600 2.453 . S
O603 C619 1.245 . S
O604 Tb600 2.596 . S
O604 Tb602 2.343 . S
O604 C619 1.259 . S
O605 Tb600 2.374 . S
O605 C601 1.251 . S
C606 O610 1.275 . S
C606 O611 1.246 . S
O607 C601 1.263 . S
O607 Tb602 2.353 . S
C608 O612 1.245 . S
C608 O613 1.259 . S
C609 O614 1.250 . S
C609 O615 1.263 . S
O610 Tb602 2.427 . S
O610 C606 1.275 . S
O611 Tb602 2.513 . S
O611 C606 1.246 . S
O612 Tb602 2.453 . S
O612 C608 1.245 . S
O613 Tb600 2.343 . S
O613 Tb602 2.596 . S
O613 C608 1.259 . S
O614 Tb602 2.374 . S
O614 C609 1.250 . S
O615 Tb600 2.353 . S
O615 C609 1.263 . S
C616 O617 1.275 . S
C616 O618 1.246 . S
O617 Tb600 2.427 . S
O617 C616 1.275 . S
O618 Tb600 2.513 . S
O618 C616 1.246 . S
C619 O603 1.245 . S
C619 O604 1.259 . S
Tb620 O623 2.453 . S
Tb620 O624 2.596 1_565 S
Tb620 O625 2.374 . S
Tb620 O633 2.343 . S
Tb620 O635 2.353 . S
Tb620 O637 2.427 . S
Tb620 O638 2.513 . S
C621 O625 1.280 . S
C621 O627 1.236 1_565 S
Tb622 O624 2.343 . S
Tb622 O627 2.353 . S
Tb622 O630 2.427 . S
Tb622 O631 2.513 . S
Tb622 O632 2.453 . S
Tb622 O633 2.596 1_545 S
Tb622 O634 2.374 . S
O623 Tb620 2.453 . S
O623 C639 1.245 1_565 S
O624 Tb620 2.596 1_545 S
O624 Tb622 2.343 . S
O624 C639 1.259 . S
O625 Tb620 2.374 . S
O625 C621 1.280 . S
C626 O630 1.275 . S
C626 O631 1.246 . S
O627 C621 1.236 1_545 S
O627 Tb622 2.353 . S
C628 O632 1.245 1_565 S
C628 O633 1.259 . S
C629 O634 1.290 . S
C629 O635 1.227 1_545 S
O630 Tb622 2.427 . S
O630 C626 1.275 . S
O631 Tb622 2.513 . S
O631 C626 1.246 . S
O632 Tb622 2.453 . S
O632 C628 1.245 1_545 S
O633 Tb620 2.343 . S
O633 Tb622 2.596 1_565 S
O633 C628 1.259 . S
O634 Tb622 2.374 . S
O634 C629 1.290 . S
O635 Tb620 2.353 . S
O635 C629 1.227 1_565 S
C636 O637 1.275 . S
C636 O638 1.246 . S
O637 Tb620 2.427 . S
O637 C636 1.275 . S
O638 Tb620 2.513 . S
O638 C636 1.246 . S
C639 O623 1.245 1_545 S
C639 O624 1.259 . S
C640 C641 1.363 . S
C640 C646 1.379 . S
C640 N648 1.356 . S
C641 C640 1.363 . S
C641 C647 1.363 . S
C642 C643 1.363 . S
C642 C647 1.379 . S
C642 N649 1.356 . S
C643 C642 1.363 . S
C643 C646 1.363 . S
N644 C646 1.356 . S
N644 H656 0.984 1_655 S
N644 H657 0.985 . S
N645 C647 1.356 . S
N645 H650 0.984 . S
N645 H651 0.985 . S
C646 C640 1.379 . S
C646 C643 1.363 . S
C646 N644 1.356 . S
C647 C641 1.363 . S
C647 C642 1.379 . S
C647 N645 1.356 . S
N648 C640 1.356 . S
N648 H654 0.984 1_655 S
N648 H655 0.984 . S
N649 C642 1.356 . S
N649 H652 0.984 . S
N649 H653 0.985 . S
H650 N645 0.984 . S
H651 N645 0.985 . S
H652 N649 0.984 . S
H653 N649 0.985 . S
H654 N648 0.984 1_455 S
H655 N648 0.984 . S
H656 N644 0.984 1_455 S
H657 N644 0.985 . S
C658 C659 1.363 . S
C658 C664 1.379 . S
C658 N666 1.356 . S
C659 C658 1.363 . S
C659 C665 1.363 . S
C660 C661 1.363 . S
C660 C665 1.379 . S
C660 N667 1.356 . S
C661 C660 1.363 . S
C661 C664 1.363 . S
N662 C664 1.356 . S
N662 H674 0.984 . S
N662 H675 0.985 . S
N663 C665 1.356 . S
N663 H668 0.984 . S
N663 H669 0.985 . S
C664 C658 1.379 . S
C664 C661 1.363 . S
C664 N662 1.356 . S
C665 C659 1.363 . S
C665 C660 1.379 . S
C665 N663 1.356 . S
N666 C658 1.356 . S
N666 H672 0.984 . S
N666 H673 0.984 . S
N667 C660 1.356 . S
N667 H670 0.984 . S
N667 H671 0.985 . S
H668 N663 0.984 . S
H669 N663 0.985 . S
H670 N667 0.984 . S
H671 N667 0.985 . S
H672 N666 0.984 . S
H673 N666 0.984 . S
H674 N662 0.984 . S
H675 N662 0.985 . S
C676 C677 1.363 . S
C676 C682 1.379 . S
C676 N684 1.356 . S
C677 C676 1.363 . S
C677 C683 1.363 . S
C678 C679 1.363 . S
C678 C683 1.379 . S
C678 N685 1.356 . S
C679 C678 1.363 . S
C679 C682 1.363 . S
N680 C682 1.356 . S
N680 H692 0.984 . S
N680 H693 0.985 . S
N681 C683 1.356 . S
N681 H686 0.984 . S
N681 H687 0.985 1_655 S
C682 C676 1.379 . S
C682 C679 1.363 . S
C682 N680 1.356 . S
C683 C677 1.363 . S
C683 C678 1.379 . S
C683 N681 1.356 . S
N684 C676 1.356 . S
N684 H690 0.984 . S
N684 H691 0.984 . S
N685 C678 1.356 . S
N685 H688 0.984 . S
N685 H689 0.985 1_655 S
H686 N681 0.984 . S
H687 N681 0.985 1_455 S
H688 N685 0.984 . S
H689 N685 0.985 1_455 S
H690 N684 0.984 . S
H691 N684 0.984 . S
H692 N680 0.984 . S
H693 N680 0.985 . S
C694 C695 1.363 . S
C694 C700 1.379 . S
C694 N702 1.356 . S
C695 C694 1.363 . S
C695 C701 1.363 . S
C696 C697 1.363 . S
C696 C701 1.379 . S
C696 N703 1.356 . S
C697 C696 1.363 . S
C697 C700 1.363 . S
N698 C700 1.356 . S
N698 H710 0.984 . S
N698 H711 0.985 . S
N699 C701 1.356 . S
N699 H704 0.984 . S
N699 H705 0.985 . S
C700 C694 1.379 . S
C700 C697 1.363 . S
C700 N698 1.356 . S
C701 C695 1.363 . S
C701 C696 1.379 . S
C701 N699 1.356 . S
N702 C694 1.356 . S
N702 H708 0.984 . S
N702 H709 0.984 . S
N703 C696 1.356 . S
N703 H706 0.984 . S
N703 H707 0.985 . S
H704 N699 0.984 . S
H705 N699 0.985 . S
H706 N703 0.984 . S
H707 N703 0.985 . S
H708 N702 0.984 . S
H709 N702 0.984 . S
H710 N698 0.984 . S
H711 N698 0.985 . S
C712 C713 1.363 . S
C712 C718 1.379 . S
C712 N720 1.356 . S
C713 C712 1.363 . S
C713 C719 1.363 . S
C714 C715 1.363 . S
C714 C719 1.379 . S
C714 N721 1.356 . S
C715 C714 1.363 . S
C715 C718 1.363 . S
N716 C718 1.356 . S
N716 H728 0.984 1_455 S
N716 H729 0.985 . S
N717 C719 1.356 . S
N717 H722 0.984 . S
N717 H723 0.985 . S
C718 C712 1.379 . S
C718 C715 1.363 . S
C718 N716 1.356 . S
C719 C713 1.363 . S
C719 C714 1.379 . S
C719 N717 1.356 . S
N720 C712 1.356 . S
N720 H726 0.984 1_455 S
N720 H727 0.984 . S
N721 C714 1.356 . S
N721 H724 0.984 . S
N721 H725 0.985 . S
H722 N717 0.984 . S
H723 N717 0.985 . S
H724 N721 0.984 . S
H725 N721 0.985 . S
H726 N720 0.984 1_655 S
H727 N720 0.984 . S
H728 N716 0.984 1_655 S
H729 N716 0.985 . S
C730 C731 1.363 . S
C730 C736 1.379 . S
C730 N738 1.356 . S
C731 C730 1.363 . S
C731 C737 1.363 . S
C732 C733 1.363 . S
C732 C737 1.379 . S
C732 N739 1.356 . S
C733 C732 1.363 . S
C733 C736 1.363 . S
N734 C736 1.356 . S
N734 H746 0.984 . S
N734 H747 0.985 . S
N735 C737 1.356 . S
N735 H740 0.984 . S
N735 H741 0.985 . S
C736 C730 1.379 . S
C736 C733 1.363 . S
C736 N734 1.356 . S
C737 C731 1.363 . S
C737 C732 1.379 . S
C737 N735 1.356 . S
N738 C730 1.356 . S
N738 H744 0.984 . S
N738 H745 0.984 . S
N739 C732 1.356 . S
N739 H742 0.984 . S
N739 H743 0.985 . S
H740 N735 0.984 . S
H741 N735 0.985 . S
H742 N739 0.984 . S
H743 N739 0.985 . S
H744 N738 0.984 . S
H745 N738 0.984 . S
H746 N734 0.984 . S
H747 N734 0.985 . S
C748 C749 1.363 . S
C748 C754 1.379 . S
C748 N756 1.356 . S
C749 C748 1.363 . S
C749 C755 1.363 . S
C750 C751 1.363 . S
C750 C755 1.379 . S
C750 N757 1.356 . S
C751 C750 1.363 . S
C751 C754 1.363 . S
N752 C754 1.356 . S
N752 H764 0.984 . S
N752 H765 0.985 . S
N753 C755 1.356 . S
N753 H758 0.984 . S
N753 H759 0.985 1_455 S
C754 C748 1.379 . S
C754 C751 1.363 . S
C754 N752 1.356 . S
C755 C749 1.363 . S
C755 C750 1.379 . S
C755 N753 1.356 . S
N756 C748 1.356 . S
N756 H762 0.984 . S
N756 H763 0.984 . S
N757 C750 1.356 . S
N757 H760 0.984 . S
N757 H761 0.985 1_455 S
H758 N753 0.984 . S
H759 N753 0.985 1_655 S
H760 N757 0.984 . S
H761 N757 0.985 1_655 S
H762 N756 0.984 . S
H763 N756 0.984 . S
H764 N752 0.984 . S
H765 N752 0.985 . S
C766 C767 1.363 . S
C766 C772 1.379 . S
C766 N774 1.356 . S
C767 C766 1.363 . S
C767 C773 1.363 . S
C768 C769 1.363 . S
C768 C773 1.379 . S
C768 N775 1.356 . S
C769 C768 1.363 . S
C769 C772 1.363 . S
N770 C772 1.356 . S
N770 H782 0.984 . S
N770 H783 0.985 . S
N771 C773 1.356 . S
N771 H776 0.984 . S
N771 H777 0.985 . S
C772 C766 1.379 . S
C772 C769 1.363 . S
C772 N770 1.356 . S
C773 C767 1.363 . S
C773 C768 1.379 . S
C773 N771 1.356 . S
N774 C766 1.356 . S
N774 H780 0.984 . S
N774 H781 0.984 . S
N775 C768 1.356 . S
N775 H778 0.984 . S
N775 H779 0.985 . S
H776 N771 0.984 . S
H777 N771 0.985 . S
H778 N775 0.984 . S
H779 N775 0.985 . S
H780 N774 0.984 . S
H781 N774 0.984 . S
H782 N770 0.984 . S
H783 N770 0.985 . S
C784 C785 1.363 . S
C784 C790 1.379 . S
C784 N792 1.356 . S
C785 C784 1.363 . S
C785 C791 1.363 . S
C786 C787 1.363 . S
C786 C791 1.379 . S
C786 N793 1.356 . S
C787 C786 1.363 . S
C787 C790 1.363 . S
N788 C790 1.356 . S
N788 H800 0.984 1_655 S
N788 H801 0.985 . S
N789 C791 1.356 . S
N789 H794 0.984 . S
N789 H795 0.985 . S
C790 C784 1.379 . S
C790 C787 1.363 . S
C790 N788 1.356 . S
C791 C785 1.363 . S
C791 C786 1.379 . S
C791 N789 1.356 . S
N792 C784 1.356 . S
N792 H798 0.984 1_655 S
N792 H799 0.984 . S
N793 C786 1.356 . S
N793 H796 0.984 . S
N793 H797 0.985 . S
H794 N789 0.984 . S
H795 N789 0.985 . S
H796 N793 0.984 . S
H797 N793 0.985 . S
H798 N792 0.984 1_455 S
H799 N792 0.984 . S
H800 N788 0.984 1_455 S
H801 N788 0.985 . S
C802 C803 1.363 . S
C802 C808 1.379 . S
C802 N810 1.356 . S
C803 C802 1.363 . S
C803 C809 1.363 . S
C804 C805 1.363 . S
C804 C809 1.379 . S
C804 N811 1.356 . S
C805 C804 1.363 . S
C805 C808 1.363 . S
N806 C808 1.356 . S
N806 H818 0.984 . S
N806 H819 0.985 . S
N807 C809 1.356 . S
N807 H812 0.984 . S
N807 H813 0.985 . S
C808 C802 1.379 . S
C808 C805 1.363 . S
C808 N806 1.356 . S
C809 C803 1.363 . S
C809 C804 1.379 . S
C809 N807 1.356 . S
N810 C802 1.356 . S
N810 H816 0.984 . S
N810 H817 0.984 . S
N811 C804 1.356 . S
N811 H814 0.984 . S
N811 H815 0.985 . S
H812 N807 0.984 . S
H813 N807 0.985 . S
H814 N811 0.984 . S
H815 N811 0.985 . S
H816 N810 0.984 . S
H817 N810 0.984 . S
H818 N806 0.984 . S
H819 N806 0.985 . S
C820 C821 1.363 . S
C820 C826 1.379 . S
C820 N828 1.356 . S
C821 C820 1.363 . S
C821 C827 1.363 . S
C822 C823 1.363 . S
C822 C827 1.379 . S
C822 N829 1.356 . S
C823 C822 1.363 . S
C823 C826 1.363 . S
N824 C826 1.356 . S
N824 H836 0.984 . S
N824 H837 0.985 . S
N825 C827 1.356 . S
N825 H830 0.984 . S
N825 H831 0.985 1_655 S
C826 C820 1.379 . S
C826 C823 1.363 . S
C826 N824 1.356 . S
C827 C821 1.363 . S
C827 C822 1.379 . S
C827 N825 1.356 . S
N828 C820 1.356 . S
N828 H834 0.984 . S
N828 H835 0.984 . S
N829 C822 1.356 . S
N829 H832 0.984 . S
N829 H833 0.985 1_655 S
H830 N825 0.984 . S
H831 N825 0.985 1_455 S
H832 N829 0.984 . S
H833 N829 0.985 1_455 S
H834 N828 0.984 . S
H835 N828 0.984 . S
H836 N824 0.984 . S
H837 N824 0.985 . S
C838 C839 1.363 . S
C838 C844 1.379 . S
C838 N846 1.356 . S
C839 C838 1.363 . S
C839 C845 1.363 . S
C840 C841 1.363 . S
C840 C845 1.379 . S
C840 N847 1.356 . S
C841 C840 1.363 . S
C841 C844 1.363 . S
N842 C844 1.356 . S
N842 H854 0.984 . S
N842 H855 0.985 . S
N843 C845 1.356 . S
N843 H848 0.984 . S
N843 H849 0.985 . S
C844 C838 1.379 . S
C844 C841 1.363 . S
C844 N842 1.356 . S
C845 C839 1.363 . S
C845 C840 1.379 . S
C845 N843 1.356 . S
N846 C838 1.356 . S
N846 H852 0.984 . S
N846 H853 0.984 . S
N847 C840 1.356 . S
N847 H850 0.984 . S
N847 H851 0.985 . S
H848 N843 0.984 . S
H849 N843 0.985 . S
H850 N847 0.984 . S
H851 N847 0.985 . S
H852 N846 0.984 . S
H853 N846 0.984 . S
H854 N842 0.984 . S
H855 N842 0.985 . S
C856 C857 1.363 . S
C856 C862 1.379 . S
C856 N864 1.356 . S
C857 C856 1.363 . S
C857 C863 1.363 . S
C858 C859 1.363 . S
C858 C863 1.379 . S
C858 N865 1.356 . S
C859 C858 1.363 . S
C859 C862 1.363 . S
N860 C862 1.356 . S
N860 H872 0.984 1_455 S
N860 H873 0.985 . S
N861 C863 1.356 . S
N861 H866 0.984 . S
N861 H867 0.985 . S
C862 C856 1.379 . S
C862 C859 1.363 . S
C862 N860 1.356 . S
C863 C857 1.363 . S
C863 C858 1.379 . S
C863 N861 1.356 . S
N864 C856 1.356 . S
N864 H870 0.984 1_455 S
N864 H871 0.984 . S
N865 C858 1.356 . S
N865 H868 0.984 . S
N865 H869 0.985 . S
H866 N861 0.984 . S
H867 N861 0.985 . S
H868 N865 0.984 . S
H869 N865 0.985 . S
H870 N864 0.984 1_655 S
H871 N864 0.984 . S
H872 N860 0.984 1_655 S
H873 N860 0.985 . S
C874 C875 1.363 . S
C874 C880 1.379 . S
C874 N882 1.356 . S
C875 C874 1.363 . S
C875 C881 1.363 . S
C876 C877 1.363 . S
C876 C881 1.379 . S
C876 N883 1.356 . S
C877 C876 1.363 . S
C877 C880 1.363 . S
N878 C880 1.356 . S
N878 H890 0.984 . S
N878 H891 0.985 . S
N879 C881 1.356 . S
N879 H884 0.984 . S
N879 H885 0.985 . S
C880 C874 1.379 . S
C880 C877 1.363 . S
C880 N878 1.356 . S
C881 C875 1.363 . S
C881 C876 1.379 . S
C881 N879 1.356 . S
N882 C874 1.356 . S
N882 H888 0.984 . S
N882 H889 0.984 . S
N883 C876 1.356 . S
N883 H886 0.984 . S
N883 H887 0.985 . S
H884 N879 0.984 . S
H885 N879 0.985 . S
H886 N883 0.984 . S
H887 N883 0.985 . S
H888 N882 0.984 . S
H889 N882 0.984 . S
H890 N878 0.984 . S
H891 N878 0.985 . S
C892 C893 1.363 . S
C892 C898 1.379 . S
C892 N900 1.356 . S
C893 C892 1.363 . S
C893 C899 1.363 . S
C894 C895 1.363 . S
C894 C899 1.379 . S
C894 N901 1.356 . S
C895 C894 1.363 . S
C895 C898 1.363 . S
N896 C898 1.356 . S
N896 H908 0.984 1_455 S
N896 H909 0.985 . S
N897 C899 1.356 . S
N897 H902 0.984 . S
N897 H903 0.985 . S
C898 C892 1.379 . S
C898 C895 1.363 . S
C898 N896 1.356 . S
C899 C893 1.363 . S
C899 C894 1.379 . S
C899 N897 1.356 . S
N900 C892 1.356 . S
N900 H906 0.984 1_455 S
N900 H907 0.984 . S
N901 C894 1.356 . S
N901 H904 0.984 . S
N901 H905 0.985 . S
H902 N897 0.984 . S
H903 N897 0.985 . S
H904 N901 0.984 . S
H905 N901 0.985 . S
H906 N900 0.984 1_655 S
H907 N900 0.984 . S
H908 N896 0.984 1_655 S
H909 N896 0.985 . S
C910 C911 1.363 . S
C910 C916 1.379 . S
C910 N918 1.356 . S
C911 C910 1.363 . S
C911 C917 1.363 . S
C912 C913 1.363 . S
C912 C917 1.379 . S
C912 N919 1.356 . S
C913 C912 1.363 . S
C913 C916 1.363 . S
N914 C916 1.356 . S
N914 H926 0.984 . S
N914 H927 0.985 . S
N915 C917 1.356 . S
N915 H920 0.984 . S
N915 H921 0.985 . S
C916 C910 1.379 . S
C916 C913 1.363 . S
C916 N914 1.356 . S
C917 C911 1.363 . S
C917 C912 1.379 . S
C917 N915 1.356 . S
N918 C910 1.356 . S
N918 H924 0.984 . S
N918 H925 0.984 . S
N919 C912 1.356 . S
N919 H922 0.984 . S
N919 H923 0.985 . S
H920 N915 0.984 . S
H921 N915 0.985 . S
H922 N919 0.984 . S
H923 N919 0.985 . S
H924 N918 0.984 . S
H925 N918 0.984 . S
H926 N914 0.984 . S
H927 N914 0.985 . S
C928 C929 1.363 . S
C928 C934 1.379 . S
C928 N936 1.356 . S
C929 C928 1.363 . S
C929 C935 1.363 . S
C930 C931 1.363 . S
C930 C935 1.379 . S
C930 N937 1.356 . S
C931 C930 1.363 . S
C931 C934 1.363 . S
N932 C934 1.356 . S
N932 H944 0.984 . S
N932 H945 0.985 . S
N933 C935 1.356 1_655 S
N933 H938 0.984 . S
N933 H939 0.985 . S
C934 C928 1.379 . S
C934 C931 1.363 . S
C934 N932 1.356 . S
C935 C929 1.363 . S
C935 C930 1.379 . S
C935 N933 1.356 1_455 S
N936 C928 1.356 . S
N936 H942 0.984 . S
N936 H943 0.984 . S
N937 C930 1.356 . S
N937 H940 0.984 . S
N937 H941 0.986 . S
H938 N933 0.984 . S
H939 N933 0.985 . S
H940 N937 0.984 . S
H941 N937 0.986 . S
H942 N936 0.984 . S
H943 N936 0.984 . S
H944 N932 0.984 . S
H945 N932 0.985 . S
C946 C947 1.363 . S
C946 C952 1.379 . S
C946 N954 1.356 . S
C947 C946 1.363 . S
C947 C953 1.363 . S
C948 C949 1.363 . S
C948 C953 1.379 . S
C948 N955 1.356 . S
C949 C948 1.363 . S
C949 C952 1.363 . S
N950 C952 1.356 1_655 S
N950 H962 0.984 . S
N950 H963 0.985 . S
N951 C953 1.356 . S
N951 H956 0.984 . S
N951 H957 0.985 . S
C952 C946 1.379 . S
C952 C949 1.363 . S
C952 N950 1.356 1_455 S
C953 C947 1.363 . S
C953 C948 1.379 . S
C953 N951 1.356 . S
N954 C946 1.356 . S
N954 H960 0.987 . S
N954 H961 0.984 . S
N955 C948 1.356 . S
N955 H958 0.984 . S
N955 H959 0.985 . S
H956 N951 0.984 . S
H957 N951 0.985 . S
H958 N955 0.984 . S
H959 N955 0.985 . S
H960 N954 0.987 . S
H961 N954 0.984 . S
H962 N950 0.984 . S
H963 N950 0.985 . S
C964 C965 1.363 . S
C964 C970 1.379 . S
C964 N972 1.356 . S
C965 C964 1.363 . S
C965 C971 1.363 . S
C966 C967 1.363 . S
C966 C971 1.379 . S
C966 N973 1.356 . S
C967 C966 1.363 . S
C967 C970 1.363 . S
N968 C970 1.356 1_455 S
N968 H980 0.984 . S
N968 H981 0.985 . S
N969 C971 1.356 . S
N969 H974 0.984 . S
N969 H975 0.985 . S
C970 C964 1.379 . S
C970 C967 1.363 . S
C970 N968 1.356 1_655 S
C971 C965 1.363 . S
C971 C966 1.379 . S
C971 N969 1.356 . S
N972 C964 1.356 . S
N972 H978 0.986 . S
N972 H979 0.984 . S
N973 C966 1.356 . S
N973 H976 0.984 . S
N973 H977 0.985 . S
H974 N969 0.984 . S
H975 N969 0.985 . S
H976 N973 0.984 . S
H977 N973 0.985 . S
H978 N972 0.986 . S
H979 N972 0.984 . S
H980 N968 0.984 . S
H981 N968 0.985 . S
C982 C983 1.363 . S
C982 C988 1.379 . S
C982 N990 1.356 . S
C983 C982 1.363 . S
C983 C989 1.363 . S
C984 C985 1.363 . S
C984 C989 1.379 . S
C984 N991 1.356 . S
C985 C984 1.363 . S
C985 C988 1.363 . S
N986 C988 1.356 . S
N986 H998 0.984 . S
N986 H999 0.985 . S
N987 C989 1.356 1_455 S
N987 H992 0.984 . S
N987 H993 0.985 . S
C988 C982 1.379 . S
C988 C985 1.363 . S
C988 N986 1.356 . S
C989 C983 1.363 . S
C989 C984 1.379 . S
C989 N987 1.356 1_655 S
N990 C982 1.356 . S
N990 H996 0.984 . S
N990 H997 0.984 . S
N991 C984 1.356 . S
N991 H994 0.984 . S
N991 H995 0.985 1_655 S
H992 N987 0.984 . S
H993 N987 0.985 . S
H994 N991 0.984 . S
H995 N991 0.985 1_455 S
H996 N990 0.984 . S
H997 N990 0.984 . S
H998 N986 0.984 . S
H999 N986 0.985 . S
C1000 C1001 1.378 . S
C1000 C1006 1.379 . S
C1000 N1008 1.356 . S
C1001 C1000 1.378 . S
C1001 C1007 1.348 1_545 S
C1002 C1003 1.348 1_565 S
C1002 C1007 1.379 . S
C1002 N1009 1.356 . S
C1003 C1002 1.348 1_545 S
C1003 C1006 1.378 . S
N1004 C1006 1.356 . S
N1004 H1016 0.984 . S
N1004 H1017 0.985 . S
N1005 C1007 1.356 1_655 S
N1005 H1010 0.984 . S
N1005 H1011 0.985 . S
C1006 C1000 1.379 . S
C1006 C1003 1.378 . S
C1006 N1004 1.356 . S
C1007 C1001 1.348 1_565 S
C1007 C1002 1.379 . S
C1007 N1005 1.356 1_455 S
N1008 C1000 1.356 . S
N1008 H1014 0.984 . S
N1008 H1015 0.984 . S
N1009 C1002 1.356 . S
N1009 H1012 0.984 . S
N1009 H1013 0.984 1_455 S
H1010 N1005 0.984 . S
H1011 N1005 0.985 . S
H1012 N1009 0.984 . S
H1013 N1009 0.984 1_655 S
H1014 N1008 0.984 . S
H1015 N1008 0.984 . S
H1016 N1004 0.984 . S
H1017 N1004 0.985 . S
C1018 C1019 1.363 . S
C1018 C1024 1.379 . S
C1018 N1026 1.356 . S
C1019 C1018 1.363 . S
C1019 C1025 1.363 . S
C1020 C1021 1.363 . S
C1020 C1025 1.379 . S
C1020 N1027 1.356 . S
C1021 C1020 1.363 . S
C1021 C1024 1.363 . S
N1022 C1024 1.356 1_655 S
N1022 H1034 0.984 . S
N1022 H1035 0.985 . S
N1023 C1025 1.356 . S
N1023 H1028 0.984 . S
N1023 H1029 0.985 . S
C1024 C1018 1.379 . S
C1024 C1021 1.363 . S
C1024 N1022 1.356 1_455 S
C1025 C1019 1.363 . S
C1025 C1020 1.379 . S
C1025 N1023 1.356 . S
N1026 C1018 1.356 . S
N1026 H1032 0.988 . S
N1026 H1033 0.984 . S
N1027 C1020 1.356 . S
N1027 H1030 0.984 . S
N1027 H1031 0.985 . S
H1028 N1023 0.984 . S
H1029 N1023 0.985 . S
H1030 N1027 0.984 . S
H1031 N1027 0.985 . S
H1032 N1026 0.988 . S
H1033 N1026 0.984 . S
H1034 N1022 0.984 . S
H1035 N1022 0.985 . S
C1036 C1037 1.348 1_545 S
C1036 C1042 1.379 . S
C1036 N1044 1.356 . S
C1037 C1036 1.348 1_565 S
C1037 C1043 1.378 . S
C1038 C1039 1.378 . S
C1038 C1043 1.379 . S
C1038 N1045 1.356 . S
C1039 C1038 1.378 . S
C1039 C1042 1.348 1_565 S
N1040 C1042 1.356 . S
N1040 H1052 0.984 . S
N1040 H1053 0.985 . S
N1041 C1043 1.356 1_455 S
N1041 H1046 0.984 . S
N1041 H1047 0.985 . S
C1042 C1036 1.379 . S
C1042 C1039 1.348 1_545 S
C1042 N1040 1.356 . S
C1043 C1037 1.378 . S
C1043 C1038 1.379 . S
C1043 N1041 1.356 1_655 S
N1044 C1036 1.356 . S
N1044 H1050 0.984 . S
N1044 H1051 0.984 . S
N1045 C1038 1.356 . S
N1045 H1048 0.984 . S
N1045 H1049 0.984 1_655 S
H1046 N1041 0.984 . S
H1047 N1041 0.985 . S
H1048 N1045 0.984 . S
H1049 N1045 0.984 1_455 S
H1050 N1044 0.984 . S
H1051 N1044 0.984 . S
H1052 N1040 0.984 . S
H1053 N1040 0.985 . S
C1054 C1055 1.363 . S
C1054 C1060 1.379 . S
C1054 N1062 1.356 1_655 S
C1055 C1054 1.363 . S
C1055 C1061 1.363 . S
C1056 C1057 1.363 . S
C1056 C1061 1.379 . S
C1056 N1063 1.356 . S
C1057 C1056 1.363 . S
C1057 C1060 1.363 . S
N1058 C1060 1.356 . S
N1058 H1070 0.989 . S
N1058 H1071 0.985 . S
N1059 C1061 1.356 . S
N1059 H1064 0.984 . S
N1059 H1065 0.985 . S
C1060 C1054 1.379 . S
C1060 C1057 1.363 . S
C1060 N1058 1.356 . S
C1061 C1055 1.363 . S
C1061 C1056 1.379 . S
C1061 N1059 1.356 . S
N1062 C1054 1.356 1_455 S
N1062 H1068 0.984 . S
N1062 H1069 0.984 . S
N1063 C1056 1.356 . S
N1063 H1066 0.984 . S
N1063 H1067 0.985 . S
H1064 N1059 0.984 . S
H1065 N1059 0.985 . S
H1066 N1063 0.984 . S
H1067 N1063 0.985 . S
H1068 N1062 0.984 . S
H1069 N1062 0.984 . S
H1070 N1058 0.989 . S
H1071 N1058 0.985 . S
C1072 C1073 1.363 . S
C1072 C1078 1.379 . S
C1072 N1080 1.356 . S
C1073 C1072 1.363 . S
C1073 C1079 1.363 . S
C1074 C1075 1.363 . S
C1074 C1079 1.379 . S
C1074 N1081 1.356 . S
C1075 C1074 1.363 . S
C1075 C1078 1.363 . S
N1076 C1078 1.356 . S
N1076 H1088 0.984 . S
N1076 H1089 0.985 . S
N1077 C1079 1.356 . S
N1077 H1082 0.984 . S
N1077 H1083 0.985 . S
C1078 C1072 1.379 . S
C1078 C1075 1.363 . S
C1078 N1076 1.356 . S
C1079 C1073 1.363 . S
C1079 C1074 1.379 . S
C1079 N1077 1.356 . S
N1080 C1072 1.356 . S
N1080 H1086 0.984 . S
N1080 H1087 0.984 . S
N1081 C1074 1.356 . S
N1081 H1084 0.984 . S
N1081 H1085 0.985 . S
H1082 N1077 0.984 . S
H1083 N1077 0.985 . S
H1084 N1081 0.984 . S
H1085 N1081 0.985 . S
H1086 N1080 0.984 . S
H1087 N1080 0.984 . S
H1088 N1076 0.984 . S
H1089 N1076 0.985 . S
C1090 C1091 1.363 . S
C1090 C1096 1.379 . S
C1090 N1098 1.356 . S
C1091 C1090 1.363 . S
C1091 C1097 1.363 . S
C1092 C1093 1.363 . S
C1092 C1097 1.379 . S
C1092 N1099 1.356 . S
C1093 C1092 1.363 . S
C1093 C1096 1.363 . S
N1094 C1096 1.356 . S
N1094 H1106 0.984 . S
N1094 H1107 0.985 . S
N1095 C1097 1.356 . S
N1095 H1100 0.984 . S
N1095 H1101 0.985 . S
C1096 C1090 1.379 . S
C1096 C1093 1.363 . S
C1096 N1094 1.356 . S
C1097 C1091 1.363 . S
C1097 C1092 1.379 . S
C1097 N1095 1.356 . S
N1098 C1090 1.356 . S
N1098 H1104 0.984 . S
N1098 H1105 0.984 . S
N1099 C1092 1.356 . S
N1099 H1102 0.984 . S
N1099 H1103 0.985 . S
H1100 N1095 0.984 . S
H1101 N1095 0.985 . S
H1102 N1099 0.984 . S
H1103 N1099 0.985 . S
H1104 N1098 0.984 . S
H1105 N1098 0.984 . S
H1106 N1094 0.984 . S
H1107 N1094 0.985 . S
C1108 C1109 1.363 . S
C1108 C1114 1.379 . S
C1108 N1116 1.356 . S
C1109 C1108 1.363 . S
C1109 C1115 1.363 . S
C1110 C1111 1.363 . S
C1110 C1115 1.379 . S
C1110 N1117 1.356 . S
C1111 C1110 1.363 . S
C1111 C1114 1.363 . S
N1112 C1114 1.356 . S
N1112 H1124 0.984 . S
N1112 H1125 0.985 . S
N1113 C1115 1.356 . S
N1113 H1118 0.984 . S
N1113 H1119 0.985 . S
C1114 C1108 1.379 . S
C1114 C1111 1.363 . S
C1114 N1112 1.356 . S
C1115 C1109 1.363 . S
C1115 C1110 1.379 . S
C1115 N1113 1.356 . S
N1116 C1108 1.356 . S
N1116 H1122 0.984 . S
N1116 H1123 0.984 . S
N1117 C1110 1.356 . S
N1117 H1120 0.984 . S
N1117 H1121 0.985 . S
H1118 N1113 0.984 . S
H1119 N1113 0.985 . S
H1120 N1117 0.984 . S
H1121 N1117 0.985 . S
H1122 N1116 0.984 . S
H1123 N1116 0.984 . S
H1124 N1112 0.984 . S
H1125 N1112 0.985 . S
C1126 C1127 1.363 . S
C1126 C1132 1.379 . S
C1126 N1134 1.356 . S
C1127 C1126 1.363 . S
C1127 C1133 1.363 . S
C1128 C1129 1.363 . S
C1128 C1133 1.379 . S
C1128 N1135 1.356 . S
C1129 C1128 1.363 . S
C1129 C1132 1.363 . S
N1130 C1132 1.356 . S
N1130 H1142 0.984 . S
N1130 H1143 0.985 . S
N1131 C1133 1.356 . S
N1131 H1136 0.984 . S
N1131 H1137 0.985 . S
C1132 C1126 1.379 . S
C1132 C1129 1.363 . S
C1132 N1130 1.356 . S
C1133 C1127 1.363 . S
C1133 C1128 1.379 . S
C1133 N1131 1.356 . S
N1134 C1126 1.356 . S
N1134 H1140 0.984 . S
N1134 H1141 0.984 . S
N1135 C1128 1.356 . S
N1135 H1138 0.984 . S
N1135 H1139 0.985 . S
H1136 N1131 0.984 . S
H1137 N1131 0.985 . S
H1138 N1135 0.984 . S
H1139 N1135 0.985 . S
H1140 N1134 0.984 . S
H1141 N1134 0.984 . S
H1142 N1130 0.984 . S
H1143 N1130 0.985 . S
C1144 C1145 1.348 1_565 S
C1144 C1150 1.379 . S
C1144 N1152 1.356 . S
C1145 C1144 1.348 1_545 S
C1145 C1151 1.378 . S
C1146 C1147 1.378 . S
C1146 C1151 1.379 . S
C1146 N1153 1.356 . S
C1147 C1146 1.378 . S
C1147 C1150 1.348 1_545 S
N1148 C1150 1.356 . S
N1148 H1160 0.984 . S
N1148 H1161 0.985 . S
N1149 C1151 1.356 . S
N1149 H1154 0.984 . S
N1149 H1155 0.985 . S
C1150 C1144 1.379 . S
C1150 C1147 1.348 1_565 S
C1150 N1148 1.356 . S
C1151 C1145 1.378 . S
C1151 C1146 1.379 . S
C1151 N1149 1.356 . S
N1152 C1144 1.356 . S
N1152 H1158 0.984 . S
N1152 H1159 0.984 . S
N1153 C1146 1.356 . S
N1153 H1156 0.984 . S
N1153 H1157 0.985 . S
H1154 N1149 0.984 . S
H1155 N1149 0.985 . S
H1156 N1153 0.984 . S
H1157 N1153 0.985 . S
H1158 N1152 0.984 . S
H1159 N1152 0.984 . S
H1160 N1148 0.984 . S
H1161 N1148 0.985 . S
C1162 C1163 1.363 . S
C1162 C1168 1.379 . S
C1162 N1170 1.356 . S
C1163 C1162 1.363 . S
C1163 C1169 1.363 . S
C1164 C1165 1.363 . S
C1164 C1169 1.379 . S
C1164 N1171 1.356 . S
C1165 C1164 1.363 . S
C1165 C1168 1.363 . S
N1166 C1168 1.356 . S
N1166 H1178 0.984 . S
N1166 H1179 0.985 . S
N1167 C1169 1.356 . S
N1167 H1172 0.984 . S
N1167 H1173 0.985 . S
C1168 C1162 1.379 . S
C1168 C1165 1.363 . S
C1168 N1166 1.356 . S
C1169 C1163 1.363 . S
C1169 C1164 1.379 . S
C1169 N1167 1.356 . S
N1170 C1162 1.356 . S
N1170 H1176 0.984 . S
N1170 H1177 0.984 . S
N1171 C1164 1.356 . S
N1171 H1174 0.984 . S
N1171 H1175 0.985 . S
H1172 N1167 0.984 . S
H1173 N1167 0.985 . S
H1174 N1171 0.984 . S
H1175 N1171 0.985 . S
H1176 N1170 0.984 . S
H1177 N1170 0.984 . S
H1178 N1166 0.984 . S
H1179 N1166 0.985 . S
C1180 C1181 1.378 . S
C1180 C1186 1.379 . S
C1180 N1188 1.356 . S
C1181 C1180 1.378 . S
C1181 C1187 1.348 1_565 S
C1182 C1183 1.348 1_545 S
C1182 C1187 1.379 . S
C1182 N1189 1.356 . S
C1183 C1182 1.348 1_565 S
C1183 C1186 1.378 . S
N1184 C1186 1.356 . S
N1184 H1196 0.984 . S
N1184 H1197 0.985 . S
N1185 C1187 1.356 . S
N1185 H1190 0.984 . S
N1185 H1191 0.985 . S
C1186 C1180 1.379 . S
C1186 C1183 1.378 . S
C1186 N1184 1.356 . S
C1187 C1181 1.348 1_545 S
C1187 C1182 1.379 . S
C1187 N1185 1.356 . S
N1188 C1180 1.356 . S
N1188 H1194 0.984 . S
N1188 H1195 0.984 . S
N1189 C1182 1.356 . S
N1189 H1192 0.984 . S
N1189 H1193 0.985 . S
H1190 N1185 0.984 . S
H1191 N1185 0.985 . S
H1192 N1189 0.984 . S
H1193 N1189 0.985 . S
H1194 N1188 0.984 . S
H1195 N1188 0.984 . S
H1196 N1184 0.984 . S
H1197 N1184 0.985 . S
C1198 C1199 1.363 . S
C1198 C1204 1.379 . S
C1198 N1206 1.356 . S
C1199 C1198 1.363 . S
C1199 C1205 1.363 . S
C1200 C1201 1.363 . S
C1200 C1205 1.379 . S
C1200 N1207 1.356 . S
C1201 C1200 1.363 . S
C1201 C1204 1.363 . S
N1202 C1204 1.356 . S
N1202 H1214 0.984 . S
N1202 H1215 0.985 . S
N1203 C1205 1.356 . S
N1203 H1208 0.984 . S
N1203 H1209 0.985 . S
C1204 C1198 1.379 . S
C1204 C1201 1.363 . S
C1204 N1202 1.356 . S
C1205 C1199 1.363 . S
C1205 C1200 1.379 . S
C1205 N1203 1.356 . S
N1206 C1198 1.356 . S
N1206 H1212 0.984 . S
N1206 H1213 0.984 . S
N1207 C1200 1.356 . S
N1207 H1210 0.984 . S
N1207 H1211 0.985 . S
H1208 N1203 0.984 . S
H1209 N1203 0.985 . S
H1210 N1207 0.984 . S
H1211 N1207 0.985 . S
H1212 N1206 0.984 . S
H1213 N1206 0.984 . S
H1214 N1202 0.984 . S
H1215 N1202 0.985 . S
C1216 C1217 1.363 . S
C1216 C1222 1.379 . S
C1216 N1224 1.356 . S
C1217 C1216 1.363 . S
C1217 C1223 1.363 . S
C1218 C1219 1.363 . S
C1218 C1223 1.379 . S
C1218 N1225 1.356 . S
C1219 C1218 1.363 . S
C1219 C1222 1.363 . S
N1220 C1222 1.356 . S
N1220 H1232 0.984 . S
N1220 H1233 0.985 . S
N1221 C1223 1.356 1_655 S
N1221 H1226 0.984 . S
N1221 H1227 0.985 . S
C1222 C1216 1.379 . S
C1222 C1219 1.363 . S
C1222 N1220 1.356 . S
C1223 C1217 1.363 . S
C1223 C1218 1.379 . S
C1223 N1221 1.356 1_455 S
N1224 C1216 1.356 . S
N1224 H1230 0.984 . S
N1224 H1231 0.984 . S
N1225 C1218 1.356 . S
N1225 H1228 0.984 . S
N1225 H1229 0.985 . S
H1226 N1221 0.984 . S
H1227 N1221 0.985 . S
H1228 N1225 0.984 . S
H1229 N1225 0.985 . S
H1230 N1224 0.984 . S
H1231 N1224 0.984 . S
H1232 N1220 0.984 . S
H1233 N1220 0.985 . S
C1234 C1235 1.363 . S
C1234 C1240 1.379 . S
C1234 N1242 1.356 . S
C1235 C1234 1.363 . S
C1235 C1241 1.363 . S
C1236 C1237 1.363 . S
C1236 C1241 1.379 . S
C1236 N1243 1.356 . S
C1237 C1236 1.363 . S
C1237 C1240 1.363 . S
N1238 C1240 1.356 1_655 S
N1238 H1250 0.984 . S
N1238 H1251 0.985 . S
N1239 C1241 1.356 . S
N1239 H1244 0.984 . S
N1239 H1245 0.985 . S
C1240 C1234 1.379 . S
C1240 C1237 1.363 . S
C1240 N1238 1.356 1_455 S
C1241 C1235 1.363 . S
C1241 C1236 1.379 . S
C1241 N1239 1.356 . S
N1242 C1234 1.356 . S
N1242 H1248 0.984 . S
N1242 H1249 0.984 . S
N1243 C1236 1.356 . S
N1243 H1246 0.984 . S
N1243 H1247 0.985 . S
H1244 N1239 0.984 . S
H1245 N1239 0.985 . S
H1246 N1243 0.984 . S
H1247 N1243 0.985 . S
H1248 N1242 0.984 . S
H1249 N1242 0.984 . S
H1250 N1238 0.984 . S
H1251 N1238 0.985 . S
C1252 C1253 1.363 . S
C1252 C1258 1.379 . S
C1252 N1260 1.356 1_655 S
C1253 C1252 1.363 . S
C1253 C1259 1.363 . S
C1254 C1255 1.363 . S
C1254 C1259 1.379 . S
C1254 N1261 1.356 . S
C1255 C1254 1.363 . S
C1255 C1258 1.363 . S
N1256 C1258 1.356 . S
N1256 H1268 0.984 . S
N1256 H1269 0.985 . S
N1257 C1259 1.356 . S
N1257 H1262 0.984 . S
N1257 H1263 0.985 . S
C1258 C1252 1.379 . S
C1258 C1255 1.363 . S
C1258 N1256 1.356 . S
C1259 C1253 1.363 . S
C1259 C1254 1.379 . S
C1259 N1257 1.356 . S
N1260 C1252 1.356 1_455 S
N1260 H1266 0.984 . S
N1260 H1267 0.984 . S
N1261 C1254 1.356 . S
N1261 H1264 0.984 . S
N1261 H1265 0.985 . S
H1262 N1257 0.984 . S
H1263 N1257 0.985 . S
H1264 N1261 0.984 . S
H1265 N1261 0.985 . S
H1266 N1260 0.984 . S
H1267 N1260 0.984 . S
H1268 N1256 0.984 . S
H1269 N1256 0.985 . S
C1270 C1271 1.363 . S
C1270 C1276 1.379 . S
C1270 N1278 1.356 . S
C1271 C1270 1.363 . S
C1271 C1277 1.363 . S
C1272 C1273 1.363 . S
C1272 C1277 1.379 . S
C1272 N1279 1.356 . S
C1273 C1272 1.363 . S
C1273 C1276 1.363 . S
N1274 C1276 1.356 . S
N1274 H1286 0.984 . S
N1274 H1287 0.985 . S
N1275 C1277 1.356 1_455 S
N1275 H1280 0.984 . S
N1275 H1281 0.985 . S
C1276 C1270 1.379 . S
C1276 C1273 1.363 . S
C1276 N1274 1.356 . S
C1277 C1271 1.363 . S
C1277 C1272 1.379 . S
C1277 N1275 1.356 1_655 S
N1278 C1270 1.356 . S
N1278 H1284 0.984 . S
N1278 H1285 0.984 . S
N1279 C1272 1.356 . S
N1279 H1282 0.984 . S
N1279 H1283 0.985 . S
H1280 N1275 0.984 . S
H1281 N1275 0.985 . S
H1282 N1279 0.984 . S
H1283 N1279 0.985 . S
H1284 N1278 0.984 . S
H1285 N1278 0.984 . S
H1286 N1274 0.984 . S
H1287 N1274 0.985 . S
C1288 C1289 1.363 . S
C1288 C1294 1.379 . S
C1288 N1296 1.356 . S
C1289 C1288 1.363 . S
C1289 C1295 1.363 . S
C1290 C1291 1.363 . S
C1290 C1295 1.379 . S
C1290 N1297 1.356 1_455 S
C1291 C1290 1.363 . S
C1291 C1294 1.363 . S
N1292 C1294 1.356 . S
N1292 H1304 0.984 . S
N1292 H1305 0.985 . S
N1293 C1295 1.356 . S
N1293 H1298 0.984 . S
N1293 H1299 0.985 . S
C1294 C1288 1.379 . S
C1294 C1291 1.363 . S
C1294 N1292 1.356 . S
C1295 C1289 1.363 . S
C1295 C1290 1.379 . S
C1295 N1293 1.356 . S
N1296 C1288 1.356 . S
N1296 H1302 0.984 . S
N1296 H1303 0.984 . S
N1297 C1290 1.356 1_655 S
N1297 H1300 0.984 . S
N1297 H1301 0.985 . S
H1298 N1293 0.984 . S
H1299 N1293 0.985 . S
H1300 N1297 0.984 . S
H1301 N1297 0.985 . S
H1302 N1296 0.984 . S
H1303 N1296 0.984 . S
H1304 N1292 0.984 . S
H1305 N1292 0.985 . S
C1306 C1307 1.363 . S
C1306 C1312 1.379 . S
C1306 N1314 1.356 . S
C1307 C1306 1.363 . S
C1307 C1313 1.363 . S
C1308 C1309 1.363 . S
C1308 C1313 1.379 . S
C1308 N1315 1.356 . S
C1309 C1308 1.363 . S
C1309 C1312 1.363 . S
N1310 C1312 1.356 1_655 S
N1310 H1322 0.984 . S
N1310 H1323 0.985 . S
N1311 C1313 1.356 . S
N1311 H1316 0.984 . S
N1311 H1317 0.985 . S
C1312 C1306 1.379 . S
C1312 C1309 1.363 . S
C1312 N1310 1.356 1_455 S
C1313 C1307 1.363 . S
C1313 C1308 1.379 . S
C1313 N1311 1.356 . S
N1314 C1306 1.356 . S
N1314 H1320 0.984 . S
N1314 H1321 0.984 . S
N1315 C1308 1.356 . S
N1315 H1318 0.984 . S
N1315 H1319 0.985 . S
H1316 N1311 0.984 . S
H1317 N1311 0.985 . S
H1318 N1315 0.984 . S
H1319 N1315 0.985 . S
H1320 N1314 0.984 . S
H1321 N1314 0.984 . S
H1322 N1310 0.984 . S
H1323 N1310 0.985 . S
C1324 C1325 1.363 . S
C1324 C1330 1.379 . S
C1324 N1332 1.356 . S
C1325 C1324 1.363 . S
C1325 C1331 1.363 . S
C1326 C1327 1.363 . S
C1326 C1331 1.379 . S
C1326 N1333 1.356 . S
C1327 C1326 1.363 . S
C1327 C1330 1.363 . S
N1328 C1330 1.356 . S
N1328 H1340 0.984 . S
N1328 H1341 0.985 . S
N1329 C1331 1.356 1_455 S
N1329 H1334 0.984 . S
N1329 H1335 0.985 . S
C1330 C1324 1.379 . S
C1330 C1327 1.363 . S
C1330 N1328 1.356 . S
C1331 C1325 1.363 . S
C1331 C1326 1.379 . S
C1331 N1329 1.356 1_655 S
N1332 C1324 1.356 . S
N1332 H1338 0.984 . S
N1332 H1339 0.984 . S
N1333 C1326 1.356 . S
N1333 H1336 0.984 . S
N1333 H1337 0.985 . S
H1334 N1329 0.984 . S
H1335 N1329 0.985 . S
H1336 N1333 0.984 . S
H1337 N1333 0.985 . S
H1338 N1332 0.984 . S
H1339 N1332 0.984 . S
H1340 N1328 0.984 . S
H1341 N1328 0.985 . S
C1342 C1343 1.363 . S
C1342 C1348 1.379 . S
C1342 N1350 1.356 . S
C1343 C1342 1.363 . S
C1343 C1349 1.363 . S
C1344 C1345 1.363 . S
C1344 C1349 1.379 . S
C1344 N1351 1.356 1_655 S
C1345 C1344 1.363 . S
C1345 C1348 1.363 . S
N1346 C1348 1.356 . S
N1346 H1358 0.984 . S
N1346 H1359 0.985 . S
N1347 C1349 1.356 . S
N1347 H1352 0.984 . S
N1347 H1353 0.985 . S
C1348 C1342 1.379 . S
C1348 C1345 1.363 . S
C1348 N1346 1.356 . S
C1349 C1343 1.363 . S
C1349 C1344 1.379 . S
C1349 N1347 1.356 . S
N1350 C1342 1.356 . S
N1350 H1356 0.984 . S
N1350 H1357 0.984 . S
N1351 C1344 1.356 1_455 S
N1351 H1354 0.984 . S
N1351 H1355 0.985 . S
H1352 N1347 0.984 . S
H1353 N1347 0.985 . S
H1354 N1351 0.984 . S
H1355 N1351 0.985 . S
H1356 N1350 0.984 . S
H1357 N1350 0.984 . S
H1358 N1346 0.984 . S
H1359 N1346 0.985 . S
C1360 C1361 1.363 . S
C1360 C1366 1.379 . S
C1360 N1368 1.356 . S
C1361 C1360 1.363 . S
C1361 C1367 1.363 . S
C1362 C1363 1.363 . S
C1362 C1367 1.379 . S
C1362 N1369 1.356 . S
C1363 C1362 1.363 . S
C1363 C1366 1.363 . S
N1364 C1366 1.356 . S
N1364 H1376 0.984 . S
N1364 H1377 0.985 . S
N1365 C1367 1.356 . S
N1365 H1370 0.984 . S
N1365 H1371 0.985 . S
C1366 C1360 1.379 . S
C1366 C1363 1.363 . S
C1366 N1364 1.356 . S
C1367 C1361 1.363 . S
C1367 C1362 1.379 . S
C1367 N1365 1.356 . S
N1368 C1360 1.356 . S
N1368 H1374 0.984 . S
N1368 H1375 0.984 . S
N1369 C1362 1.356 . S
N1369 H1372 0.984 . S
N1369 H1373 0.985 . S
H1370 N1365 0.984 . S
H1371 N1365 0.985 . S
H1372 N1369 0.984 . S
H1373 N1369 0.985 . S
H1374 N1368 0.984 . S
H1375 N1368 0.984 . S
H1376 N1364 0.984 . S
H1377 N1364 0.985 . S
C1378 C1379 1.363 . S
C1378 C1384 1.379 . S
C1378 N1386 1.356 . S
C1379 C1378 1.363 . S
C1379 C1385 1.363 . S
C1380 C1381 1.363 . S
C1380 C1385 1.379 . S
C1380 N1387 1.356 . S
C1381 C1380 1.363 . S
C1381 C1384 1.363 . S
N1382 C1384 1.356 . S
N1382 H1394 0.984 . S
N1382 H1395 0.985 . S
N1383 C1385 1.356 . S
N1383 H1388 0.984 . S
N1383 H1389 0.985 . S
C1384 C1378 1.379 . S
C1384 C1381 1.363 . S
C1384 N1382 1.356 . S
C1385 C1379 1.363 . S
C1385 C1380 1.379 . S
C1385 N1383 1.356 . S
N1386 C1378 1.356 . S
N1386 H1392 0.984 . S
N1386 H1393 0.984 . S
N1387 C1380 1.356 . S
N1387 H1390 0.984 . S
N1387 H1391 0.985 . S
H1388 N1383 0.984 . S
H1389 N1383 0.985 . S
H1390 N1387 0.984 . S
H1391 N1387 0.985 . S
H1392 N1386 0.984 . S
H1393 N1386 0.984 . S
H1394 N1382 0.984 . S
H1395 N1382 0.985 . S
C1396 C1397 1.363 . S
C1396 C1402 1.379 . S
C1396 N1404 1.356 . S
C1397 C1396 1.363 . S
C1397 C1403 1.363 . S
C1398 C1399 1.363 . S
C1398 C1403 1.379 . S
C1398 N1405 1.356 . S
C1399 C1398 1.363 . S
C1399 C1402 1.363 . S
N1400 C1402 1.356 . S
N1400 H1412 0.984 . S
N1400 H1413 0.985 . S
N1401 C1403 1.356 . S
N1401 H1406 0.984 . S
N1401 H1407 0.985 . S
C1402 C1396 1.379 . S
C1402 C1399 1.363 . S
C1402 N1400 1.356 . S
C1403 C1397 1.363 . S
C1403 C1398 1.379 . S
C1403 N1401 1.356 . S
N1404 C1396 1.356 . S
N1404 H1410 0.984 . S
N1404 H1411 0.984 . S
N1405 C1398 1.356 . S
N1405 H1408 0.984 . S
N1405 H1409 0.985 . S
H1406 N1401 0.984 . S
H1407 N1401 0.985 . S
H1408 N1405 0.984 . S
H1409 N1405 0.985 . S
H1410 N1404 0.984 . S
H1411 N1404 0.984 . S
H1412 N1400 0.984 . S
H1413 N1400 0.985 . S
C1414 C1415 1.363 . S
C1414 C1420 1.379 . S
C1414 N1422 1.356 . S
C1415 C1414 1.363 . S
C1415 C1421 1.363 . S
C1416 C1417 1.363 . S
C1416 C1421 1.379 . S
C1416 N1423 1.356 . S
C1417 C1416 1.363 . S
C1417 C1420 1.363 . S
N1418 C1420 1.356 . S
N1418 H1430 0.984 . S
N1418 H1431 0.985 . S
N1419 C1421 1.356 . S
N1419 H1424 0.984 . S
N1419 H1425 0.985 . S
C1420 C1414 1.379 . S
C1420 C1417 1.363 . S
C1420 N1418 1.356 . S
C1421 C1415 1.363 . S
C1421 C1416 1.379 . S
C1421 N1419 1.356 . S
N1422 C1414 1.356 . S
N1422 H1428 0.984 . S
N1422 H1429 0.984 . S
N1423 C1416 1.356 . S
N1423 H1426 0.984 . S
N1423 H1427 0.985 . S
H1424 N1419 0.984 . S
H1425 N1419 0.985 . S
H1426 N1423 0.984 . S
H1427 N1423 0.985 . S
H1428 N1422 0.984 . S
H1429 N1422 0.984 . S
H1430 N1418 0.984 . S
H1431 N1418 0.985 . S
C1432 C1433 1.363 . S
C1432 C1438 1.379 . S
C1432 N1440 1.356 . S
C1433 C1432 1.363 . S
C1433 C1439 1.363 . S
C1434 C1435 1.363 . S
C1434 C1439 1.379 . S
C1434 N1441 1.356 . S
C1435 C1434 1.363 . S
C1435 C1438 1.363 . S
N1436 C1438 1.356 . S
N1436 H1448 0.984 . S
N1436 H1449 0.985 . S
N1437 C1439 1.356 . S
N1437 H1442 0.984 . S
N1437 H1443 0.985 . S
C1438 C1432 1.379 . S
C1438 C1435 1.363 . S
C1438 N1436 1.356 . S
C1439 C1433 1.363 . S
C1439 C1434 1.379 . S
C1439 N1437 1.356 . S
N1440 C1432 1.356 . S
N1440 H1446 0.984 . S
N1440 H1447 0.984 . S
N1441 C1434 1.356 . S
N1441 H1444 0.984 . S
N1441 H1445 0.985 . S
H1442 N1437 0.984 . S
H1443 N1437 0.985 . S
H1444 N1441 0.984 . S
H1445 N1441 0.985 . S
H1446 N1440 0.984 . S
H1447 N1440 0.984 . S
H1448 N1436 0.984 . S
H1449 N1436 0.985 . S
C1450 C1451 1.363 . S
C1450 C1456 1.379 . S
C1450 N1458 1.356 . S
C1451 C1450 1.363 . S
C1451 C1457 1.363 . S
C1452 C1453 1.363 . S
C1452 C1457 1.379 . S
C1452 N1459 1.356 . S
C1453 C1452 1.363 . S
C1453 C1456 1.363 . S
N1454 C1456 1.356 . S
N1454 H1466 0.984 . S
N1454 H1467 0.985 . S
N1455 C1457 1.356 . S
N1455 H1460 0.984 . S
N1455 H1461 0.985 . S
C1456 C1450 1.379 . S
C1456 C1453 1.363 . S
C1456 N1454 1.356 . S
C1457 C1451 1.363 . S
C1457 C1452 1.379 . S
C1457 N1455 1.356 . S
N1458 C1450 1.356 . S
N1458 H1464 0.984 . S
N1458 H1465 0.984 . S
N1459 C1452 1.356 . S
N1459 H1462 0.984 . S
N1459 H1463 0.985 . S
H1460 N1455 0.984 . S
H1461 N1455 0.985 . S
H1462 N1459 0.984 . S
H1463 N1459 0.985 . S
H1464 N1458 0.984 . S
H1465 N1458 0.984 . S
H1466 N1454 0.984 . S
H1467 N1454 0.985 . S
C1468 C1469 1.363 . S
C1468 C1474 1.379 . S
C1468 N1476 1.356 . S
C1469 C1468 1.363 . S
C1469 C1475 1.363 . S
C1470 C1471 1.363 . S
C1470 C1475 1.379 . S
C1470 N1477 1.356 . S
C1471 C1470 1.363 . S
C1471 C1474 1.363 . S
N1472 C1474 1.356 . S
N1472 H1484 0.984 . S
N1472 H1485 0.985 . S
N1473 C1475 1.356 . S
N1473 H1478 0.984 . S
N1473 H1479 0.985 . S
C1474 C1468 1.379 . S
C1474 C1471 1.363 . S
C1474 N1472 1.356 . S
C1475 C1469 1.363 . S
C1475 C1470 1.379 . S
C1475 N1473 1.356 . S
N1476 C1468 1.356 . S
N1476 H1482 0.984 . S
N1476 H1483 0.984 . S
N1477 C1470 1.356 . S
N1477 H1480 0.984 . S
N1477 H1481 0.985 . S
H1478 N1473 0.984 . S
H1479 N1473 0.985 . S
H1480 N1477 0.984 . S
H1481 N1477 0.985 . S
H1482 N1476 0.984 . S
H1483 N1476 0.984 . S
H1484 N1472 0.984 . S
H1485 N1472 0.985 . S
C1486 C1487 1.363 . S
C1486 C1492 1.379 . S
C1486 N1494 1.356 . S
C1487 C1486 1.363 . S
C1487 C1493 1.363 . S
C1488 C1489 1.363 . S
C1488 C1493 1.379 . S
C1488 N1495 1.356 . S
C1489 C1488 1.363 . S
C1489 C1492 1.363 . S
N1490 C1492 1.356 . S
N1490 H1502 0.984 . S
N1490 H1503 0.985 . S
N1491 C1493 1.356 . S
N1491 H1496 0.984 . S
N1491 H1497 0.985 . S
C1492 C1486 1.379 . S
C1492 C1489 1.363 . S
C1492 N1490 1.356 . S
C1493 C1487 1.363 . S
C1493 C1488 1.379 . S
C1493 N1491 1.356 . S
N1494 C1486 1.356 . S
N1494 H1500 0.984 . S
N1494 H1501 0.984 . S
N1495 C1488 1.356 . S
N1495 H1498 0.984 . S
N1495 H1499 0.985 . S
H1496 N1491 0.984 . S
H1497 N1491 0.985 . S
H1498 N1495 0.984 . S
H1499 N1495 0.985 . S
H1500 N1494 0.984 . S
H1501 N1494 0.984 . S
H1502 N1490 0.984 . S
H1503 N1490 0.985 . S
C1504 C1505 1.363 . S
C1504 C1510 1.379 . S
C1504 N1512 1.356 . S
C1505 C1504 1.363 . S
C1505 C1511 1.363 . S
C1506 C1507 1.363 . S
C1506 C1511 1.379 . S
C1506 N1513 1.356 . S
C1507 C1506 1.363 . S
C1507 C1510 1.363 . S
N1508 C1510 1.356 . S
N1508 H1520 0.984 . S
N1508 H1521 0.985 . S
N1509 C1511 1.356 . S
N1509 H1514 0.984 . S
N1509 H1515 0.985 . S
C1510 C1504 1.379 . S
C1510 C1507 1.363 . S
C1510 N1508 1.356 . S
C1511 C1505 1.363 . S
C1511 C1506 1.379 . S
C1511 N1509 1.356 . S
N1512 C1504 1.356 . S
N1512 H1518 0.984 . S
N1512 H1519 0.984 . S
N1513 C1506 1.356 . S
N1513 H1516 0.984 . S
N1513 H1517 0.985 . S
H1514 N1509 0.984 . S
H1515 N1509 0.985 . S
H1516 N1513 0.984 . S
H1517 N1513 0.985 . S
H1518 N1512 0.984 . S
H1519 N1512 0.984 . S
H1520 N1508 0.984 . S
H1521 N1508 0.985 . S
C1522 C1523 1.363 . S
C1522 C1528 1.379 . S
C1522 N1530 1.356 . S
C1523 C1522 1.363 . S
C1523 C1529 1.363 . S
C1524 C1525 1.363 . S
C1524 C1529 1.379 . S
C1524 N1531 1.356 . S
C1525 C1524 1.363 . S
C1525 C1528 1.363 . S
N1526 C1528 1.356 . S
N1526 H1538 0.984 . S
N1526 H1539 0.985 . S
N1527 C1529 1.356 . S
N1527 H1532 0.984 . S
N1527 H1533 0.985 . S
C1528 C1522 1.379 . S
C1528 C1525 1.363 . S
C1528 N1526 1.356 . S
C1529 C1523 1.363 . S
C1529 C1524 1.379 . S
C1529 N1527 1.356 . S
N1530 C1522 1.356 . S
N1530 H1536 0.984 . S
N1530 H1537 0.984 . S
N1531 C1524 1.356 . S
N1531 H1534 0.984 . S
N1531 H1535 0.985 . S
H1532 N1527 0.984 . S
H1533 N1527 0.985 . S
H1534 N1531 0.984 . S
H1535 N1531 0.985 . S
H1536 N1530 0.984 . S
H1537 N1530 0.984 . S
H1538 N1526 0.984 . S
H1539 N1526 0.985 . S
C1540 C1541 1.363 . S
C1540 C1546 1.379 . S
C1540 N1548 1.356 . S
C1541 C1540 1.363 . S
C1541 C1547 1.363 . S
C1542 C1543 1.363 . S
C1542 C1547 1.379 . S
C1542 N1549 1.356 . S
C1543 C1542 1.363 . S
C1543 C1546 1.363 . S
N1544 C1546 1.356 . S
N1544 H1556 0.984 . S
N1544 H1557 0.985 . S
N1545 C1547 1.356 . S
N1545 H1550 0.984 . S
N1545 H1551 0.985 . S
C1546 C1540 1.379 . S
C1546 C1543 1.363 . S
C1546 N1544 1.356 . S
C1547 C1541 1.363 . S
C1547 C1542 1.379 . S
C1547 N1545 1.356 . S
N1548 C1540 1.356 . S
N1548 H1554 0.984 . S
N1548 H1555 0.984 . S
N1549 C1542 1.356 . S
N1549 H1552 0.984 . S
N1549 H1553 0.985 . S
H1550 N1545 0.984 . S
H1551 N1545 0.985 . S
H1552 N1549 0.984 . S
H1553 N1549 0.985 . S
H1554 N1548 0.984 . S
H1555 N1548 0.984 . S
H1556 N1544 0.984 . S
H1557 N1544 0.985 . S
C1558 C1559 1.363 . S
C1558 C1564 1.379 . S
C1558 N1566 1.356 . S
C1559 C1558 1.363 . S
C1559 C1565 1.363 . S
C1560 C1561 1.363 . S
C1560 C1565 1.379 . S
C1560 N1567 1.356 . S
C1561 C1560 1.363 . S
C1561 C1564 1.363 . S
N1562 C1564 1.356 . S
N1562 H1574 0.984 . S
N1562 H1575 0.985 . S
N1563 C1565 1.356 . S
N1563 H1568 0.984 . S
N1563 H1569 0.985 . S
C1564 C1558 1.379 . S
C1564 C1561 1.363 . S
C1564 N1562 1.356 . S
C1565 C1559 1.363 . S
C1565 C1560 1.379 . S
C1565 N1563 1.356 . S
N1566 C1558 1.356 . S
N1566 H1572 0.984 . S
N1566 H1573 0.984 . S
N1567 C1560 1.356 . S
N1567 H1570 0.984 . S
N1567 H1571 0.985 . S
H1568 N1563 0.984 . S
H1569 N1563 0.985 . S
H1570 N1567 0.984 . S
H1571 N1567 0.985 . S
H1572 N1566 0.984 . S
H1573 N1566 0.984 . S
H1574 N1562 0.984 . S
H1575 N1562 0.985 . S
C1576 C1577 1.363 . S
C1576 C1582 1.379 . S
C1576 N1584 1.356 . S
C1577 C1576 1.363 . S
C1577 C1583 1.363 . S
C1578 C1579 1.363 . S
C1578 C1583 1.379 . S
C1578 N1585 1.356 . S
C1579 C1578 1.363 . S
C1579 C1582 1.363 . S
N1580 C1582 1.356 . S
N1580 H1592 0.984 . S
N1580 H1593 0.985 . S
N1581 C1583 1.356 . S
N1581 H1586 0.984 . S
N1581 H1587 0.985 . S
C1582 C1576 1.379 . S
C1582 C1579 1.363 . S
C1582 N1580 1.356 . S
C1583 C1577 1.363 . S
C1583 C1578 1.379 . S
C1583 N1581 1.356 . S
N1584 C1576 1.356 . S
N1584 H1590 0.984 . S
N1584 H1591 0.984 . S
N1585 C1578 1.356 . S
N1585 H1588 0.984 . S
N1585 H1589 0.985 . S
H1586 N1581 0.984 . S
H1587 N1581 0.985 . S
H1588 N1585 0.984 . S
H1589 N1585 0.985 . S
H1590 N1584 0.984 . S
H1591 N1584 0.984 . S
H1592 N1580 0.984 . S
H1593 N1580 0.985 . S
C1594 C1595 1.363 . S
C1594 C1600 1.379 . S
C1594 N1602 1.356 . S
C1595 C1594 1.363 . S
C1595 C1601 1.363 . S
C1596 C1597 1.363 . S
C1596 C1601 1.379 . S
C1596 N1603 1.356 . S
C1597 C1596 1.363 . S
C1597 C1600 1.363 . S
N1598 C1600 1.356 . S
N1598 H1610 0.984 . S
N1598 H1611 0.985 . S
N1599 C1601 1.356 . S
N1599 H1604 0.984 . S
N1599 H1605 0.985 . S
C1600 C1594 1.379 . S
C1600 C1597 1.363 . S
C1600 N1598 1.356 . S
C1601 C1595 1.363 . S
C1601 C1596 1.379 . S
C1601 N1599 1.356 . S
N1602 C1594 1.356 . S
N1602 H1608 0.984 . S
N1602 H1609 0.984 . S
N1603 C1596 1.356 . S
N1603 H1606 0.984 . S
N1603 H1607 0.985 . S
H1604 N1599 0.984 . S
H1605 N1599 0.985 . S
H1606 N1603 0.984 . S
H1607 N1603 0.985 . S
H1608 N1602 0.984 . S
H1609 N1602 0.984 . S
H1610 N1598 0.984 . S
H1611 N1598 0.985 . S
C1612 C1613 1.363 . S
C1612 C1618 1.379 . S
C1612 N1620 1.356 . S
C1613 C1612 1.363 . S
C1613 C1619 1.363 . S
C1614 C1615 1.363 . S
C1614 C1619 1.379 . S
C1614 N1621 1.356 . S
C1615 C1614 1.363 . S
C1615 C1618 1.363 . S
N1616 C1618 1.356 . S
N1616 H1628 0.984 . S
N1616 H1629 0.985 . S
N1617 C1619 1.356 . S
N1617 H1622 0.984 . S
N1617 H1623 0.985 . S
C1618 C1612 1.379 . S
C1618 C1615 1.363 . S
C1618 N1616 1.356 . S
C1619 C1613 1.363 . S
C1619 C1614 1.379 . S
C1619 N1617 1.356 . S
N1620 C1612 1.356 . S
N1620 H1626 0.984 . S
N1620 H1627 0.984 . S
N1621 C1614 1.356 . S
N1621 H1624 0.984 . S
N1621 H1625 0.985 . S
H1622 N1617 0.984 . S
H1623 N1617 0.985 . S
H1624 N1621 0.984 . S
H1625 N1621 0.985 . S
H1626 N1620 0.984 . S
H1627 N1620 0.984 . S
H1628 N1616 0.984 . S
H1629 N1616 0.985 . S
C1630 C1631 1.363 . S
C1630 C1636 1.379 . S
C1630 N1638 1.356 . S
C1631 C1630 1.363 . S
C1631 C1637 1.363 . S
C1632 C1633 1.363 . S
C1632 C1637 1.379 . S
C1632 N1639 1.356 . S
C1633 C1632 1.363 . S
C1633 C1636 1.363 . S
N1634 C1636 1.356 . S
N1634 H1646 0.984 . S
N1634 H1647 0.985 . S
N1635 C1637 1.356 . S
N1635 H1640 0.984 . S
N1635 H1641 0.985 . S
C1636 C1630 1.379 . S
C1636 C1633 1.363 . S
C1636 N1634 1.356 . S
C1637 C1631 1.363 . S
C1637 C1632 1.379 . S
C1637 N1635 1.356 . S
N1638 C1630 1.356 . S
N1638 H1644 0.984 . S
N1638 H1645 0.984 . S
N1639 C1632 1.356 . S
N1639 H1642 0.984 . S
N1639 H1643 0.985 . S
H1640 N1635 0.984 . S
H1641 N1635 0.985 . S
H1642 N1639 0.984 . S
H1643 N1639 0.985 . S
H1644 N1638 0.984 . S
H1645 N1638 0.984 . S
H1646 N1634 0.984 . S
H1647 N1634 0.985 . S
C1648 C1649 1.363 . S
C1648 C1654 1.379 . S
C1648 N1656 1.356 . S
C1649 C1648 1.363 . S
C1649 C1655 1.363 1_545 S
C1650 C1651 1.363 . S
C1650 C1655 1.379 . S
C1650 N1657 1.356 . S
C1651 C1650 1.363 . S
C1651 C1654 1.363 1_565 S
N1652 C1654 1.356 . S
N1652 H1664 0.984 . S
N1652 H1665 0.985 . S
N1653 C1655 1.356 . S
N1653 H1658 0.984 . S
N1653 H1659 0.985 . S
C1654 C1648 1.379 . S
C1654 C1651 1.363 1_545 S
C1654 N1652 1.356 . S
C1655 C1649 1.363 1_565 S
C1655 C1650 1.379 . S
C1655 N1653 1.356 . S
N1656 C1648 1.356 . S
N1656 H1662 0.984 . S
N1656 H1663 0.984 . S
N1657 C1650 1.356 . S
N1657 H1660 0.984 . S
N1657 H1661 0.985 . S
H1658 N1653 0.984 . S
H1659 N1653 0.985 . S
H1660 N1657 0.984 . S
H1661 N1657 0.985 . S
H1662 N1656 0.984 . S
H1663 N1656 0.984 . S
H1664 N1652 0.984 . S
H1665 N1652 0.985 . S
C1666 C1667 1.363 . S
C1666 C1672 1.379 . S
C1666 N1674 1.356 . S
C1667 C1666 1.363 . S
C1667 C1673 1.363 . S
C1668 C1669 1.363 . S
C1668 C1673 1.379 . S
C1668 N1675 1.356 . S
C1669 C1668 1.363 . S
C1669 C1672 1.363 . S
N1670 C1672 1.356 . S
N1670 H1682 0.984 . S
N1670 H1683 0.985 . S
N1671 C1673 1.356 . S
N1671 H1676 0.984 . S
N1671 H1677 0.985 . S
C1672 C1666 1.379 . S
C1672 C1669 1.363 . S
C1672 N1670 1.356 . S
C1673 C1667 1.363 . S
C1673 C1668 1.379 . S
C1673 N1671 1.356 . S
N1674 C1666 1.356 . S
N1674 H1680 0.984 . S
N1674 H1681 0.984 . S
N1675 C1668 1.356 . S
N1675 H1678 0.984 . S
N1675 H1679 0.985 . S
H1676 N1671 0.984 . S
H1677 N1671 0.985 . S
H1678 N1675 0.984 . S
H1679 N1675 0.985 . S
H1680 N1674 0.984 . S
H1681 N1674 0.984 . S
H1682 N1670 0.984 . S
H1683 N1670 0.985 . S
C1684 C1685 1.363 . S
C1684 C1690 1.379 . S
C1684 N1692 1.356 . S
C1685 C1684 1.363 . S
C1685 C1691 1.363 . S
C1686 C1687 1.363 . S
C1686 C1691 1.379 . S
C1686 N1693 1.356 . S
C1687 C1686 1.363 . S
C1687 C1690 1.363 . S
N1688 C1690 1.356 . S
N1688 H1700 0.984 . S
N1688 H1701 0.985 . S
N1689 C1691 1.356 . S
N1689 H1694 0.984 . S
N1689 H1695 0.985 . S
C1690 C1684 1.379 . S
C1690 C1687 1.363 . S
C1690 N1688 1.356 . S
C1691 C1685 1.363 . S
C1691 C1686 1.379 . S
C1691 N1689 1.356 . S
N1692 C1684 1.356 . S
N1692 H1698 0.984 . S
N1692 H1699 0.984 . S
N1693 C1686 1.356 . S
N1693 H1696 0.984 . S
N1693 H1697 0.985 . S
H1694 N1689 0.984 . S
H1695 N1689 0.985 . S
H1696 N1693 0.984 . S
H1697 N1693 0.985 . S
H1698 N1692 0.984 . S
H1699 N1692 0.984 . S
H1700 N1688 0.984 . S
H1701 N1688 0.985 . S
C1702 C1703 1.363 1_565 S
C1702 C1708 1.379 . S
C1702 N1710 1.356 . S
C1703 C1702 1.363 1_545 S
C1703 C1709 1.363 . S
C1704 C1705 1.363 1_545 S
C1704 C1709 1.379 . S
C1704 N1711 1.356 . S
C1705 C1704 1.363 1_565 S
C1705 C1708 1.363 . S
N1706 C1708 1.356 . S
N1706 H1718 0.984 . S
N1706 H1719 0.985 . S
N1707 C1709 1.356 . S
N1707 H1712 0.984 . S
N1707 H1713 0.985 . S
C1708 C1702 1.379 . S
C1708 C1705 1.363 . S
C1708 N1706 1.356 . S
C1709 C1703 1.363 . S
C1709 C1704 1.379 . S
C1709 N1707 1.356 . S
N1710 C1702 1.356 . S
N1710 H1716 0.984 . S
N1710 H1717 1.001 . S
N1711 C1704 1.356 . S
N1711 H1714 0.997 . S
N1711 H1715 0.985 . S
H1712 N1707 0.984 . S
H1713 N1707 0.985 . S
H1714 N1711 0.997 . S
H1715 N1711 0.985 . S
H1716 N1710 0.984 . S
H1717 N1710 1.001 . S
H1718 N1706 0.984 . S
H1719 N1706 0.985 . S
C1720 C1721 1.363 1_545 S
C1720 C1726 1.379 . S
C1720 N1728 1.356 . S
C1721 C1720 1.363 1_565 S
C1721 C1727 1.363 . S
C1722 C1723 1.363 1_565 S
C1722 C1727 1.379 . S
C1722 N1729 1.356 . S
C1723 C1722 1.363 1_545 S
C1723 C1726 1.363 . S
N1724 C1726 1.356 . S
N1724 H1736 0.984 . S
N1724 H1737 0.985 . S
N1725 C1727 1.356 . S
N1725 H1730 0.984 . S
N1725 H1731 0.985 . S
C1726 C1720 1.379 . S
C1726 C1723 1.363 . S
C1726 N1724 1.356 . S
C1727 C1721 1.363 . S
C1727 C1722 1.379 . S
C1727 N1725 1.356 . S
N1728 C1720 1.356 . S
N1728 H1734 0.984 . S
N1728 H1735 0.984 . S
N1729 C1722 1.356 . S
N1729 H1732 0.984 . S
N1729 H1733 0.985 . S
H1730 N1725 0.984 . S
H1731 N1725 0.985 . S
H1732 N1729 0.984 . S
H1733 N1729 0.985 . S
H1734 N1728 0.984 . S
H1735 N1728 0.984 . S
H1736 N1724 0.984 . S
H1737 N1724 0.985 . S
C1738 C1739 1.363 . S
C1738 C1744 1.379 . S
C1738 N1746 1.356 . S
C1739 C1738 1.363 . S
C1739 C1745 1.363 . S
C1740 C1741 1.363 . S
C1740 C1745 1.379 . S
C1740 N1747 1.356 . S
C1741 C1740 1.363 . S
C1741 C1744 1.363 . S
N1742 C1744 1.356 . S
N1742 H1754 0.984 . S
N1742 H1755 0.985 . S
N1743 C1745 1.356 . S
N1743 H1748 0.984 . S
N1743 H1749 0.985 . S
C1744 C1738 1.379 . S
C1744 C1741 1.363 . S
C1744 N1742 1.356 . S
C1745 C1739 1.363 . S
C1745 C1740 1.379 . S
C1745 N1743 1.356 . S
N1746 C1738 1.356 . S
N1746 H1752 0.984 . S
N1746 H1753 0.984 . S
N1747 C1740 1.356 . S
N1747 H1750 0.984 . S
N1747 H1751 0.985 . S
H1748 N1743 0.984 . S
H1749 N1743 0.985 . S
H1750 N1747 0.984 . S
H1751 N1747 0.985 . S
H1752 N1746 0.984 . S
H1753 N1746 0.984 . S
H1754 N1742 0.984 . S
H1755 N1742 0.985 . S
C1756 C1757 1.363 . S
C1756 C1762 1.379 . S
C1756 N1764 1.356 . S
C1757 C1756 1.363 . S
C1757 C1763 1.363 . S
C1758 C1759 1.363 . S
C1758 C1763 1.379 . S
C1758 N1765 1.356 . S
C1759 C1758 1.363 . S
C1759 C1762 1.363 . S
N1760 C1762 1.356 . S
N1760 H1772 0.984 . S
N1760 H1773 0.985 . S
N1761 C1763 1.356 . S
N1761 H1766 0.984 . S
N1761 H1767 0.985 . S
C1762 C1756 1.379 . S
C1762 C1759 1.363 . S
C1762 N1760 1.356 . S
C1763 C1757 1.363 . S
C1763 C1758 1.379 . S
C1763 N1761 1.356 . S
N1764 C1756 1.356 . S
N1764 H1770 0.984 . S
N1764 H1771 0.984 . S
N1765 C1758 1.356 . S
N1765 H1768 0.984 . S
N1765 H1769 0.985 . S
H1766 N1761 0.984 . S
H1767 N1761 0.985 . S
H1768 N1765 0.984 . S
H1769 N1765 0.985 . S
H1770 N1764 0.984 . S
H1771 N1764 0.984 . S
H1772 N1760 0.984 . S
H1773 N1760 0.985 . S
C1774 C1775 1.363 1_545 S
C1774 C1780 1.379 . S
C1774 N1782 1.356 . S
C1775 C1774 1.363 1_565 S
C1775 C1781 1.363 . S
C1776 C1777 1.363 1_565 S
C1776 C1781 1.379 . S
C1776 N1783 1.356 . S
C1777 C1776 1.363 1_545 S
C1777 C1780 1.363 . S
N1778 C1780 1.356 . S
N1778 H1790 0.984 . S
N1778 H1791 0.985 . S
N1779 C1781 1.356 . S
N1779 H1784 0.984 . S
N1779 H1785 0.985 . S
C1780 C1774 1.379 . S
C1780 C1777 1.363 . S
C1780 N1778 1.356 . S
C1781 C1775 1.363 . S
C1781 C1776 1.379 . S
C1781 N1779 1.356 . S
N1782 C1774 1.356 . S
N1782 H1788 0.984 . S
N1782 H1789 0.984 . S
N1783 C1776 1.356 . S
N1783 H1786 0.984 . S
N1783 H1787 0.985 . S
H1784 N1779 0.984 . S
H1785 N1779 0.985 . S
H1786 N1783 0.984 . S
H1787 N1783 0.985 . S
H1788 N1782 0.984 . S
H1789 N1782 0.984 . S
H1790 N1778 0.984 . S
H1791 N1778 0.985 . S
C1792 C1793 1.363 . S
C1792 C1798 1.379 1_455 S
C1792 N1800 1.356 . S
C1793 C1792 1.363 . S
C1793 C1799 1.363 . S
C1794 C1795 1.363 . S
C1794 C1799 1.379 1_655 S
C1794 N1801 1.356 . S
C1795 C1794 1.363 . S
C1795 C1798 1.363 . S
N1796 C1798 1.356 . S
N1796 H1808 0.984 . S
N1796 H1809 0.985 . S
N1797 C1799 1.356 . S
N1797 H1802 0.984 . S
N1797 H1803 0.985 . S
C1798 C1792 1.379 1_655 S
C1798 C1795 1.363 . S
C1798 N1796 1.356 . S
C1799 C1793 1.363 . S
C1799 C1794 1.379 1_455 S
C1799 N1797 1.356 . S
N1800 C1792 1.356 . S
N1800 H1806 0.984 . S
N1800 H1807 0.984 . S
N1801 C1794 1.356 . S
N1801 H1804 0.984 . S
N1801 H1805 0.985 . S
H1802 N1797 0.984 . S
H1803 N1797 0.985 . S
H1804 N1801 0.984 . S
H1805 N1801 0.985 . S
H1806 N1800 0.984 . S
H1807 N1800 0.984 . S
H1808 N1796 0.984 . S
H1809 N1796 0.985 . S
C1810 C1811 1.363 . S
C1810 C1816 1.379 . S
C1810 N1818 1.356 . S
C1811 C1810 1.363 . S
C1811 C1817 1.363 . S
C1812 C1813 1.363 . S
C1812 C1817 1.379 . S
C1812 N1819 1.356 . S
C1813 C1812 1.363 . S
C1813 C1816 1.363 . S
N1814 C1816 1.356 . S
N1814 H1826 0.984 . S
N1814 H1827 0.985 1_455 S
N1815 C1817 1.356 . S
N1815 H1820 0.984 . S
N1815 H1821 0.985 . S
C1816 C1810 1.379 . S
C1816 C1813 1.363 . S
C1816 N1814 1.356 . S
C1817 C1811 1.363 . S
C1817 C1812 1.379 . S
C1817 N1815 1.356 . S
N1818 C1810 1.356 . S
N1818 H1824 0.984 . S
N1818 H1825 0.984 . S
N1819 C1812 1.356 . S
N1819 H1822 0.984 . S
N1819 H1823 0.985 . S
H1820 N1815 0.984 . S
H1821 N1815 0.985 . S
H1822 N1819 0.984 . S
H1823 N1819 0.985 . S
H1824 N1818 0.984 . S
H1825 N1818 0.984 . S
H1826 N1814 0.984 . S
H1827 N1814 0.985 1_655 S
C1828 C1829 1.363 . S
C1828 C1834 1.379 1_655 S
C1828 N1836 1.356 . S
C1829 C1828 1.363 . S
C1829 C1835 1.363 . S
C1830 C1831 1.363 . S
C1830 C1835 1.379 1_455 S
C1830 N1837 1.356 . S
C1831 C1830 1.363 . S
C1831 C1834 1.363 . S
N1832 C1834 1.356 . S
N1832 H1844 0.984 . S
N1832 H1845 0.985 . S
N1833 C1835 1.356 . S
N1833 H1838 0.984 . S
N1833 H1839 0.985 . S
C1834 C1828 1.379 1_455 S
C1834 C1831 1.363 . S
C1834 N1832 1.356 . S
C1835 C1829 1.363 . S
C1835 C1830 1.379 1_655 S
C1835 N1833 1.356 . S
N1836 C1828 1.356 . S
N1836 H1842 0.984 . S
N1836 H1843 0.984 . S
N1837 C1830 1.356 . S
N1837 H1840 0.984 . S
N1837 H1841 0.985 . S
H1838 N1833 0.984 . S
H1839 N1833 0.985 . S
H1840 N1837 0.984 . S
H1841 N1837 0.985 . S
H1842 N1836 0.984 . S
H1843 N1836 0.984 . S
H1844 N1832 0.984 . S
H1845 N1832 0.985 . S
C1846 C1847 1.363 . S
C1846 C1852 1.379 . S
C1846 N1854 1.356 . S
C1847 C1846 1.363 . S
C1847 C1853 1.363 . S
C1848 C1849 1.363 . S
C1848 C1853 1.379 . S
C1848 N1855 1.356 . S
C1849 C1848 1.363 . S
C1849 C1852 1.363 . S
N1850 C1852 1.356 . S
N1850 H1862 0.984 . S
N1850 H1863 0.985 . S
N1851 C1853 1.356 . S
N1851 H1856 0.984 . S
N1851 H1857 0.985 . S
C1852 C1846 1.379 . S
C1852 C1849 1.363 . S
C1852 N1850 1.356 . S
C1853 C1847 1.363 . S
C1853 C1848 1.379 . S
C1853 N1851 1.356 . S
N1854 C1846 1.356 . S
N1854 H1860 0.984 . S
N1854 H1861 0.984 1_455 S
N1855 C1848 1.356 . S
N1855 H1858 0.984 . S
N1855 H1859 0.985 . S
H1856 N1851 0.984 . S
H1857 N1851 0.985 . S
H1858 N1855 0.984 . S
H1859 N1855 0.985 . S
H1860 N1854 0.984 . S
H1861 N1854 0.984 1_655 S
H1862 N1850 0.984 . S
H1863 N1850 0.985 . S
C1864 C1865 1.363 . S
C1864 C1870 1.379 1_655 S
C1864 N1872 1.356 . S
C1865 C1864 1.363 . S
C1865 C1871 1.363 . S
C1866 C1867 1.363 . S
C1866 C1871 1.379 1_455 S
C1866 N1873 1.356 . S
C1867 C1866 1.363 . S
C1867 C1870 1.363 . S
N1868 C1870 1.356 . S
N1868 H1880 0.984 . S
N1868 H1881 0.985 . S
N1869 C1871 1.356 . S
N1869 H1874 0.984 . S
N1869 H1875 0.985 . S
C1870 C1864 1.379 1_455 S
C1870 C1867 1.363 . S
C1870 N1868 1.356 . S
C1871 C1865 1.363 . S
C1871 C1866 1.379 1_655 S
C1871 N1869 1.356 . S
N1872 C1864 1.356 . S
N1872 H1878 0.984 . S
N1872 H1879 0.984 . S
N1873 C1866 1.356 . S
N1873 H1876 0.984 . S
N1873 H1877 0.985 . S
H1874 N1869 0.984 . S
H1875 N1869 0.985 . S
H1876 N1873 0.984 . S
H1877 N1873 0.985 . S
H1878 N1872 0.984 . S
H1879 N1872 0.984 . S
H1880 N1868 0.984 . S
H1881 N1868 0.985 . S
C1882 C1883 1.363 . S
C1882 C1888 1.379 . S
C1882 N1890 1.356 . S
C1883 C1882 1.363 . S
C1883 C1889 1.363 . S
C1884 C1885 1.363 . S
C1884 C1889 1.379 . S
C1884 N1891 1.356 . S
C1885 C1884 1.363 . S
C1885 C1888 1.363 . S
N1886 C1888 1.356 . S
N1886 H1898 0.984 . S
N1886 H1899 0.985 . S
N1887 C1889 1.356 . S
N1887 H1892 0.984 1_655 S
N1887 H1893 0.985 . S
C1888 C1882 1.379 . S
C1888 C1885 1.363 . S
C1888 N1886 1.356 . S
C1889 C1883 1.363 . S
C1889 C1884 1.379 . S
C1889 N1887 1.356 . S
N1890 C1882 1.356 . S
N1890 H1896 0.984 . S
N1890 H1897 0.984 . S
N1891 C1884 1.356 . S
N1891 H1894 0.984 . S
N1891 H1895 0.985 . S
H1892 N1887 0.984 1_455 S
H1893 N1887 0.985 . S
H1894 N1891 0.984 . S
H1895 N1891 0.985 . S
H1896 N1890 0.984 . S
H1897 N1890 0.984 . S
H1898 N1886 0.984 . S
H1899 N1886 0.985 . S
C1900 C1901 1.363 . S
C1900 C1906 1.379 1_455 S
C1900 N1908 1.356 . S
C1901 C1900 1.363 . S
C1901 C1907 1.363 . S
C1902 C1903 1.363 . S
C1902 C1907 1.379 1_655 S
C1902 N1909 1.356 . S
C1903 C1902 1.363 . S
C1903 C1906 1.363 . S
N1904 C1906 1.356 . S
N1904 H1916 0.984 . S
N1904 H1917 0.985 . S
N1905 C1907 1.356 . S
N1905 H1910 0.984 . S
N1905 H1911 0.985 . S
C1906 C1900 1.379 1_655 S
C1906 C1903 1.363 . S
C1906 N1904 1.356 . S
C1907 C1901 1.363 . S
C1907 C1902 1.379 1_455 S
C1907 N1905 1.356 . S
N1908 C1900 1.356 . S
N1908 H1914 0.984 . S
N1908 H1915 0.984 . S
N1909 C1902 1.356 . S
N1909 H1912 0.984 . S
N1909 H1913 0.985 . S
H1910 N1905 0.984 . S
H1911 N1905 0.985 . S
H1912 N1909 0.984 . S
H1913 N1909 0.985 . S
H1914 N1908 0.984 . S
H1915 N1908 0.984 . S
H1916 N1904 0.984 . S
H1917 N1904 0.985 . S
C1918 C1919 1.363 . S
C1918 C1924 1.379 . S
C1918 N1926 1.356 . S
C1919 C1918 1.363 . S
C1919 C1925 1.363 . S
C1920 C1921 1.363 . S
C1920 C1925 1.379 . S
C1920 N1927 1.356 . S
C1921 C1920 1.363 . S
C1921 C1924 1.363 . S
N1922 C1924 1.356 . S
N1922 H1934 0.984 . S
N1922 H1935 0.985 . S
N1923 C1925 1.356 . S
N1923 H1928 0.984 1_655 S
N1923 H1929 0.985 . S
C1924 C1918 1.379 . S
C1924 C1921 1.363 . S
C1924 N1922 1.356 . S
C1925 C1919 1.363 . S
C1925 C1920 1.379 . S
C1925 N1923 1.356 . S
N1926 C1918 1.356 . S
N1926 H1932 0.984 . S
N1926 H1933 0.984 . S
N1927 C1920 1.356 . S
N1927 H1930 0.984 . S
N1927 H1931 0.985 . S
H1928 N1923 0.984 1_455 S
H1929 N1923 0.985 . S
H1930 N1927 0.984 . S
H1931 N1927 0.985 . S
H1932 N1926 0.984 . S
H1933 N1926 0.984 . S
H1934 N1922 0.984 . S
H1935 N1922 0.985 . S
C1936 C1937 1.363 . S
C1936 C1942 1.379 1_655 S
C1936 N1944 1.356 . S
C1937 C1936 1.363 . S
C1937 C1943 1.363 1_545 S
C1938 C1939 1.363 . S
C1938 C1943 1.379 1_455 S
C1938 N1945 1.356 . S
C1939 C1938 1.363 . S
C1939 C1942 1.363 1_565 S
N1940 C1942 1.356 . S
N1940 H1952 0.984 . S
N1940 H1953 0.985 . S
N1941 C1943 1.356 . S
N1941 H1946 0.984 . S
N1941 H1947 0.985 . S
C1942 C1936 1.379 1_455 S
C1942 C1939 1.363 1_545 S
C1942 N1940 1.356 . S
C1943 C1937 1.363 1_565 S
C1943 C1938 1.379 1_655 S
C1943 N1941 1.356 . S
N1944 C1936 1.356 . S
N1944 H1950 0.984 . S
N1944 H1951 0.984 . S
N1945 C1938 1.356 . S
N1945 H1948 0.984 . S
N1945 H1949 0.985 . S
H1946 N1941 0.984 . S
H1947 N1941 0.985 . S
H1948 N1945 0.984 . S
H1949 N1945 0.985 . S
H1950 N1944 0.984 . S
H1951 N1944 0.984 . S
H1952 N1940 0.984 . S
H1953 N1940 0.985 . S
C1954 C1955 1.363 . S
C1954 C1960 1.379 . S
C1954 N1962 1.356 . S
C1955 C1954 1.363 . S
C1955 C1961 1.363 . S
C1956 C1957 1.363 . S
C1956 C1961 1.379 . S
C1956 N1963 1.356 . S
C1957 C1956 1.363 . S
C1957 C1960 1.363 . S
N1958 C1960 1.356 . S
N1958 H1970 0.984 . S
N1958 H1971 0.985 . S
N1959 C1961 1.356 . S
N1959 H1964 0.984 1_455 S
N1959 H1965 0.985 . S
C1960 C1954 1.379 . S
C1960 C1957 1.363 . S
C1960 N1958 1.356 . S
C1961 C1955 1.363 . S
C1961 C1956 1.379 . S
C1961 N1959 1.356 . S
N1962 C1954 1.356 . S
N1962 H1968 0.984 . S
N1962 H1969 0.984 . S
N1963 C1956 1.356 . S
N1963 H1966 0.984 . S
N1963 H1967 0.985 . S
H1964 N1959 0.984 1_655 S
H1965 N1959 0.985 . S
H1966 N1963 0.984 . S
H1967 N1963 0.985 . S
H1968 N1962 0.984 . S
H1969 N1962 0.984 . S
H1970 N1958 0.984 . S
H1971 N1958 0.985 . S
C1972 C1973 1.363 . S
C1972 C1978 1.379 1_655 S
C1972 N1980 1.356 . S
C1973 C1972 1.363 . S
C1973 C1979 1.363 . S
C1974 C1975 1.363 . S
C1974 C1979 1.379 1_455 S
C1974 N1981 1.356 . S
C1975 C1974 1.363 . S
C1975 C1978 1.363 . S
N1976 C1978 1.356 . S
N1976 H1988 0.984 . S
N1976 H1989 0.985 . S
N1977 C1979 1.356 . S
N1977 H1982 0.984 . S
N1977 H1983 0.985 . S
C1978 C1972 1.379 1_455 S
C1978 C1975 1.363 . S
C1978 N1976 1.356 . S
C1979 C1973 1.363 . S
C1979 C1974 1.379 1_655 S
C1979 N1977 1.356 . S
N1980 C1972 1.356 . S
N1980 H1986 0.984 . S
N1980 H1987 0.984 . S
N1981 C1974 1.356 . S
N1981 H1984 0.984 . S
N1981 H1985 0.985 . S
H1982 N1977 0.984 . S
H1983 N1977 0.985 . S
H1984 N1981 0.984 . S
H1985 N1981 0.985 . S
H1986 N1980 0.984 . S
H1987 N1980 0.984 . S
H1988 N1976 0.984 . S
H1989 N1976 0.985 . S
C1990 C1991 1.363 . S
C1990 C1996 1.379 1_545 S
C1990 N1998 1.356 . S
C1991 C1990 1.363 . S
C1991 C1997 1.363 . S
C1992 C1993 1.363 . S
C1992 C1997 1.379 1_565 S
C1992 N1999 1.356 . S
C1993 C1992 1.363 . S
C1993 C1996 1.363 . S
N1994 C1996 1.356 . S
N1994 H2006 0.984 . S
N1994 H2007 0.985 1_455 S
N1995 C1997 1.356 . S
N1995 H2000 0.984 . S
N1995 H2001 0.985 . S
C1996 C1990 1.379 1_565 S
C1996 C1993 1.363 . S
C1996 N1994 1.356 . S
C1997 C1991 1.363 . S
C1997 C1992 1.379 1_545 S
C1997 N1995 1.356 . S
N1998 C1990 1.356 . S
N1998 H2004 0.984 . S
N1998 H2005 0.984 . S
N1999 C1992 1.356 . S
N1999 H2002 0.984 . S
N1999 H2003 0.985 . S
H2000 N1995 0.984 . S
H2001 N1995 0.985 . S
H2002 N1999 0.984 . S
H2003 N1999 0.985 . S
H2004 N1998 0.984 . S
H2005 N1998 0.984 . S
H2006 N1994 0.984 . S
H2007 N1994 0.985 1_655 S
C2008 C2009 1.363 . S
C2008 C2014 1.379 1_645 S
C2008 N2016 1.356 . S
C2009 C2008 1.363 . S
C2009 C2015 1.363 . S
C2010 C2011 1.363 . S
C2010 C2015 1.379 1_465 S
C2010 N2017 1.356 . S
C2011 C2010 1.363 . S
C2011 C2014 1.363 . S
N2012 C2014 1.356 . S
N2012 H2024 0.984 . S
N2012 H2025 0.985 . S
N2013 C2015 1.356 . S
N2013 H2018 0.984 . S
N2013 H2019 0.985 . S
C2014 C2008 1.379 1_465 S
C2014 C2011 1.363 . S
C2014 N2012 1.356 . S
C2015 C2009 1.363 . S
C2015 C2010 1.379 1_645 S
C2015 N2013 1.356 . S
N2016 C2008 1.356 . S
N2016 H2022 0.984 . S
N2016 H2023 0.984 . S
N2017 C2010 1.356 . S
N2017 H2020 0.984 . S
N2017 H2021 0.985 . S
H2018 N2013 0.984 . S
H2019 N2013 0.985 . S
H2020 N2017 0.984 . S
H2021 N2017 0.985 . S
H2022 N2016 0.984 . S
H2023 N2016 0.984 . S
H2024 N2012 0.984 . S
H2025 N2012 0.985 . S
C2026 C2027 1.363 . S
C2026 C2032 1.379 . S
C2026 N2034 1.356 . S
C2027 C2026 1.363 . S
C2027 C2033 1.363 . S
C2028 C2029 1.363 . S
C2028 C2033 1.379 . S
C2028 N2035 1.356 . S
C2029 C2028 1.363 . S
C2029 C2032 1.363 . S
N2030 C2032 1.356 . S
N2030 H2042 0.984 . S
N2030 H2043 0.985 . S
N2031 C2033 1.356 . S
N2031 H2036 0.984 . S
N2031 H2037 0.985 . S
C2032 C2026 1.379 . S
C2032 C2029 1.363 . S
C2032 N2030 1.356 . S
C2033 C2027 1.363 . S
C2033 C2028 1.379 . S
C2033 N2031 1.356 . S
N2034 C2026 1.356 . S
N2034 H2040 0.984 . S
N2034 H2041 0.984 1_655 S
N2035 C2028 1.356 . S
N2035 H2038 0.984 . S
N2035 H2039 0.985 . S
H2036 N2031 0.984 . S
H2037 N2031 0.985 . S
H2038 N2035 0.984 . S
H2039 N2035 0.985 . S
H2040 N2034 0.984 . S
H2041 N2034 0.984 1_455 S
H2042 N2030 0.984 . S
H2043 N2030 0.985 . S
C2044 C2045 1.363 . S
C2044 C2050 1.379 1_455 S
C2044 N2052 1.356 . S
C2045 C2044 1.363 . S
C2045 C2051 1.363 . S
C2046 C2047 1.363 . S
C2046 C2051 1.379 1_655 S
C2046 N2053 1.356 . S
C2047 C2046 1.363 . S
C2047 C2050 1.363 . S
N2048 C2050 1.356 . S
N2048 H2060 0.984 . S
N2048 H2061 0.985 . S
N2049 C2051 1.356 . S
N2049 H2054 0.984 . S
N2049 H2055 0.985 . S
C2050 C2044 1.379 1_655 S
C2050 C2047 1.363 . S
C2050 N2048 1.356 . S
C2051 C2045 1.363 . S
C2051 C2046 1.379 1_455 S
C2051 N2049 1.356 . S
N2052 C2044 1.356 . S
N2052 H2058 0.984 . S
N2052 H2059 0.984 . S
N2053 C2046 1.356 . S
N2053 H2056 0.984 . S
N2053 H2057 0.985 . S
H2054 N2049 0.984 . S
H2055 N2049 0.985 . S
H2056 N2053 0.984 . S
H2057 N2053 0.985 . S
H2058 N2052 0.984 . S
H2059 N2052 0.984 . S
H2060 N2048 0.984 . S
H2061 N2048 0.985 . S
C2062 C2063 1.363 1_545 S
C2062 C2068 1.379 . S
C2062 N2070 1.356 . S
C2063 C2062 1.363 1_565 S
C2063 C2069 1.363 . S
C2064 C2065 1.363 1_565 S
C2064 C2069 1.379 . S
C2064 N2071 1.356 . S
C2065 C2064 1.363 1_545 S
C2065 C2068 1.363 . S
N2066 C2068 1.356 . S
N2066 H2078 0.984 . S
N2066 H2079 0.985 . S
N2067 C2069 1.356 . S
N2067 H2072 0.984 . S
N2067 H2073 0.985 . S
C2068 C2062 1.379 . S
C2068 C2065 1.363 . S
C2068 N2066 1.356 . S
C2069 C2063 1.363 . S
C2069 C2064 1.379 . S
C2069 N2067 1.356 . S
N2070 C2062 1.356 . S
N2070 H2076 0.984 . S
N2070 H2077 0.984 . S
N2071 C2064 1.356 . S
N2071 H2074 0.984 1_655 S
N2071 H2075 0.985 . S
H2072 N2067 0.984 . S
H2073 N2067 0.985 . S
H2074 N2071 0.984 1_455 S
H2075 N2071 0.985 . S
H2076 N2070 0.984 . S
H2077 N2070 0.984 . S
H2078 N2066 0.984 . S
H2079 N2066 0.985 . S
C2080 C2081 1.363 . S
C2080 C2086 1.379 1_554 S
C2080 N2088 1.356 . S
C2081 C2080 1.363 . S
C2081 C2087 1.363 1_655 S
C2082 C2083 1.363 . S
C2082 C2087 1.379 1_556 S
C2082 N2089 1.356 . S
C2083 C2082 1.363 . S
C2083 C2086 1.363 1_455 S
N2084 C2086 1.356 . S
N2084 H2096 0.984 . S
N2084 H2097 0.985 . S
N2085 C2087 1.356 . S
N2085 H2090 0.984 . S
N2085 H2091 0.985 . S
C2086 C2080 1.379 1_556 S
C2086 C2083 1.363 1_655 S
C2086 N2084 1.356 . S
C2087 C2081 1.363 1_455 S
C2087 C2082 1.379 1_554 S
C2087 N2085 1.356 . S
N2088 C2080 1.356 . S
N2088 H2094 0.984 . S
N2088 H2095 0.984 . S
N2089 C2082 1.356 . S
N2089 H2092 0.984 . S
N2089 H2093 0.985 . S
H2090 N2085 0.984 . S
H2091 N2085 0.985 . S
H2092 N2089 0.984 . S
H2093 N2089 0.985 . S
H2094 N2088 0.984 . S
H2095 N2088 0.984 . S
H2096 N2084 0.984 . S
H2097 N2084 0.985 . S
C2098 C2099 1.363 . S
C2098 C2104 1.379 1_556 S
C2098 N2106 1.356 . S
C2099 C2098 1.363 . S
C2099 C2105 1.363 . S
C2100 C2101 1.363 . S
C2100 C2105 1.379 1_554 S
C2100 N2107 1.356 . S
C2101 C2100 1.363 . S
C2101 C2104 1.363 . S
N2102 C2104 1.356 . S
N2102 H2114 0.984 . S
N2102 H2115 0.985 . S
N2103 C2105 1.356 . S
N2103 H2108 0.984 . S
N2103 H2109 0.985 . S
C2104 C2098 1.379 1_554 S
C2104 C2101 1.363 . S
C2104 N2102 1.356 . S
C2105 C2099 1.363 . S
C2105 C2100 1.379 1_556 S
C2105 N2103 1.356 . S
N2106 C2098 1.356 . S
N2106 H2112 0.984 . S
N2106 H2113 0.984 . S
N2107 C2100 1.356 . S
N2107 H2110 0.984 . S
N2107 H2111 0.985 . S
H2108 N2103 0.984 . S
H2109 N2103 0.985 . S
H2110 N2107 0.984 . S
H2111 N2107 0.985 . S
H2112 N2106 0.984 . S
H2113 N2106 0.984 . S
H2114 N2102 0.984 . S
H2115 N2102 0.985 . S
C2116 C2117 1.363 1_655 S
C2116 C2122 1.379 . S
C2116 N2124 1.356 . S
C2117 C2116 1.363 1_455 S
C2117 C2123 1.363 . S
C2118 C2119 1.363 1_455 S
C2118 C2123 1.379 . S
C2118 N2125 1.356 . S
C2119 C2118 1.363 1_655 S
C2119 C2122 1.363 . S
N2120 C2122 1.356 . S
N2120 H2132 0.984 . S
N2120 H2133 0.985 . S
N2121 C2123 1.356 . S
N2121 H2126 0.984 . S
N2121 H2127 0.985 . S
C2122 C2116 1.379 . S
C2122 C2119 1.363 . S
C2122 N2120 1.356 . S
C2123 C2117 1.363 . S
C2123 C2118 1.379 . S
C2123 N2121 1.356 . S
N2124 C2116 1.356 . S
N2124 H2130 0.984 . S
N2124 H2131 0.984 . S
N2125 C2118 1.356 . S
N2125 H2128 0.984 . S
N2125 H2129 0.985 . S
H2126 N2121 0.984 . S
H2127 N2121 0.985 . S
H2128 N2125 0.984 . S
H2129 N2125 0.985 . S
H2130 N2124 0.984 . S
H2131 N2124 0.984 . S
H2132 N2120 0.984 . S
H2133 N2120 0.985 . S
C2134 C2135 1.363 . S
C2134 C2140 1.379 . S
C2134 N2142 1.356 . S
C2135 C2134 1.363 . S
C2135 C2141 1.363 . S
C2136 C2137 1.363 . S
C2136 C2141 1.379 . S
C2136 N2143 1.356 . S
C2137 C2136 1.363 . S
C2137 C2140 1.363 . S
N2138 C2140 1.356 . S
N2138 H2150 0.984 . S
N2138 H2151 0.985 . S
N2139 C2141 1.356 . S
N2139 H2144 0.984 . S
N2139 H2145 0.985 . S
C2140 C2134 1.379 . S
C2140 C2137 1.363 . S
C2140 N2138 1.356 . S
C2141 C2135 1.363 . S
C2141 C2136 1.379 . S
C2141 N2139 1.356 . S
N2142 C2134 1.356 . S
N2142 H2148 0.984 . S
N2142 H2149 0.984 . S
N2143 C2136 1.356 . S
N2143 H2146 0.984 . S
N2143 H2147 0.985 . S
H2144 N2139 0.984 . S
H2145 N2139 0.985 . S
H2146 N2143 0.984 . S
H2147 N2143 0.985 . S
H2148 N2142 0.984 . S
H2149 N2142 0.984 . S
H2150 N2138 0.984 . S
H2151 N2138 0.985 . S
C2152 C2153 1.363 . S
C2152 C2158 1.379 1_556 S
C2152 N2160 1.356 . S
C2153 C2152 1.363 . S
C2153 C2159 1.363 . S
C2154 C2155 1.363 . S
C2154 C2159 1.379 1_554 S
C2154 N2161 1.356 . S
C2155 C2154 1.363 . S
C2155 C2158 1.363 . S
N2156 C2158 1.356 . S
N2156 H2168 0.984 . S
N2156 H2169 0.985 . S
N2157 C2159 1.356 . S
N2157 H2162 0.984 . S
N2157 H2163 0.985 . S
C2158 C2152 1.379 1_554 S
C2158 C2155 1.363 . S
C2158 N2156 1.356 . S
C2159 C2153 1.363 . S
C2159 C2154 1.379 1_556 S
C2159 N2157 1.356 . S
N2160 C2152 1.356 . S
N2160 H2166 0.984 . S
N2160 H2167 0.984 . S
N2161 C2154 1.356 . S
N2161 H2164 0.984 . S
N2161 H2165 0.985 . S
H2162 N2157 0.984 . S
H2163 N2157 0.985 . S
H2164 N2161 0.984 . S
H2165 N2161 0.985 . S
H2166 N2160 0.984 . S
H2167 N2160 0.984 . S
H2168 N2156 0.984 . S
H2169 N2156 0.985 . S
C2170 C2171 1.363 1_655 S
C2170 C2176 1.379 . S
C2170 N2178 1.356 . S
C2171 C2170 1.363 1_455 S
C2171 C2177 1.363 . S
C2172 C2173 1.363 1_455 S
C2172 C2177 1.379 . S
C2172 N2179 1.356 . S
C2173 C2172 1.363 1_655 S
C2173 C2176 1.363 . S
N2174 C2176 1.356 . S
N2174 H2186 0.984 . S
N2174 H2187 0.985 . S
N2175 C2177 1.356 . S
N2175 H2180 0.984 . S
N2175 H2181 0.985 . S
C2176 C2170 1.379 . S
C2176 C2173 1.363 . S
C2176 N2174 1.356 . S
C2177 C2171 1.363 . S
C2177 C2172 1.379 . S
C2177 N2175 1.356 . S
N2178 C2170 1.356 . S
N2178 H2184 0.984 . S
N2178 H2185 0.984 . S
N2179 C2172 1.356 . S
N2179 H2182 0.984 . S
N2179 H2183 0.985 . S
H2180 N2175 0.984 . S
H2181 N2175 0.985 . S
H2182 N2179 0.984 . S
H2183 N2179 0.985 . S
H2184 N2178 0.984 . S
H2185 N2178 0.984 . S
H2186 N2174 0.984 . S
H2187 N2174 0.985 . S
C2188 C2189 1.363 . S
C2188 C2194 1.379 . S
C2188 N2196 1.356 . S
C2189 C2188 1.363 . S
C2189 C2195 1.363 . S
C2190 C2191 1.363 . S
C2190 C2195 1.379 . S
C2190 N2197 1.356 . S
C2191 C2190 1.363 . S
C2191 C2194 1.363 . S
N2192 C2194 1.356 . S
N2192 H2204 0.984 . S
N2192 H2205 0.985 . S
N2193 C2195 1.356 . S
N2193 H2198 0.984 . S
N2193 H2199 0.985 . S
C2194 C2188 1.379 . S
C2194 C2191 1.363 . S
C2194 N2192 1.356 . S
C2195 C2189 1.363 . S
C2195 C2190 1.379 . S
C2195 N2193 1.356 . S
N2196 C2188 1.356 . S
N2196 H2202 0.984 . S
N2196 H2203 0.984 . S
N2197 C2190 1.356 . S
N2197 H2200 0.984 . S
N2197 H2201 0.985 . S
H2198 N2193 0.984 . S
H2199 N2193 0.985 . S
H2200 N2197 0.984 . S
H2201 N2197 0.985 . S
H2202 N2196 0.984 . S
H2203 N2196 0.984 . S
H2204 N2192 0.984 . S
H2205 N2192 0.985 . S
C2206 C2207 1.377 1_455 S
C2206 C2212 1.379 . S
C2206 N2214 1.356 . S
C2207 C2206 1.377 1_655 S
C2207 C2213 1.349 1_565 S
C2208 C2209 1.369 1_655 S
C2208 C2213 1.379 . S
C2208 N2215 1.356 . S
C2209 C2208 1.369 1_455 S
C2209 C2212 1.357 1_545 S
N2210 C2212 1.356 . S
N2210 H2222 0.984 . S
N2210 H2223 0.985 . S
N2211 C2213 1.356 . S
N2211 H2216 0.984 . S
N2211 H2217 0.985 . S
C2212 C2206 1.379 . S
C2212 C2209 1.357 1_565 S
C2212 N2210 1.356 . S
C2213 C2207 1.349 1_545 S
C2213 C2208 1.379 . S
C2213 N2211 1.356 . S
N2214 C2206 1.356 . S
N2214 H2220 0.984 . S
N2214 H2221 0.984 . S
N2215 C2208 1.356 . S
N2215 H2218 0.984 . S
N2215 H2219 0.985 . S
H2216 N2211 0.984 . S
H2217 N2211 0.985 . S
H2218 N2215 0.984 . S
H2219 N2215 0.985 . S
H2220 N2214 0.984 . S
H2221 N2214 0.984 . S
H2222 N2210 0.984 . S
H2223 N2210 0.985 . S
C2224 C2225 1.363 . S
C2224 C2230 1.379 . S
C2224 N2232 1.356 . S
C2225 C2224 1.363 . S
C2225 C2231 1.363 . S
C2226 C2227 1.363 . S
C2226 C2231 1.379 . S
C2226 N2233 1.356 . S
C2227 C2226 1.363 . S
C2227 C2230 1.363 . S
N2228 C2230 1.356 . S
N2228 H2240 0.984 . S
N2228 H2241 0.985 . S
N2229 C2231 1.356 . S
N2229 H2234 0.984 . S
N2229 H2235 0.985 . S
C2230 C2224 1.379 . S
C2230 C2227 1.363 . S
C2230 N2228 1.356 . S
C2231 C2225 1.363 . S
C2231 C2226 1.379 . S
C2231 N2229 1.356 . S
N2232 C2224 1.356 . S
N2232 H2238 0.984 . S
N2232 H2239 0.984 . S
N2233 C2226 1.356 . S
N2233 H2236 0.984 . S
N2233 H2237 0.985 . S
H2234 N2229 0.984 . S
H2235 N2229 0.985 . S
H2236 N2233 0.984 . S
H2237 N2233 0.985 . S
H2238 N2232 0.984 . S
H2239 N2232 0.984 . S
H2240 N2228 0.984 . S
H2241 N2228 0.985 . S
C2242 C2243 1.349 1_565 S
C2242 C2248 1.379 . S
C2242 N2250 1.356 . S
C2243 C2242 1.349 1_545 S
C2243 C2249 1.377 . S
C2244 C2245 1.357 1_545 S
C2244 C2249 1.379 . S
C2244 N2251 1.356 . S
C2245 C2244 1.357 1_565 S
C2245 C2248 1.369 . S
N2246 C2248 1.356 . S
N2246 H2258 0.984 . S
N2246 H2259 0.985 . S
N2247 C2249 1.356 . S
N2247 H2252 0.984 . S
N2247 H2253 0.985 . S
C2248 C2242 1.379 . S
C2248 C2245 1.369 . S
C2248 N2246 1.356 . S
C2249 C2243 1.377 . S
C2249 C2244 1.379 . S
C2249 N2247 1.356 . S
N2250 C2242 1.356 . S
N2250 H2256 0.984 . S
N2250 H2257 0.984 . S
N2251 C2244 1.356 . S
N2251 H2254 0.984 . S
N2251 H2255 0.985 . S
H2252 N2247 0.984 . S
H2253 N2247 0.985 . S
H2254 N2251 0.984 . S
H2255 N2251 0.985 . S
H2256 N2250 0.984 . S
H2257 N2250 0.984 . S
H2258 N2246 0.984 . S
H2259 N2246 0.985 . S
C2260 C2261 1.363 . S
C2260 C2266 1.379 . S
C2260 N2268 1.356 . S
C2261 C2260 1.363 . S
C2261 C2267 1.363 . S
C2262 C2263 1.363 . S
C2262 C2267 1.379 . S
C2262 N2269 1.356 . S
C2263 C2262 1.363 . S
C2263 C2266 1.363 . S
N2264 C2266 1.356 . S
N2264 H2276 0.984 . S
N2264 H2277 0.985 . S
N2265 C2267 1.356 . S
N2265 H2270 0.984 . S
N2265 H2271 0.985 . S
C2266 C2260 1.379 . S
C2266 C2263 1.363 . S
C2266 N2264 1.356 . S
C2267 C2261 1.363 . S
C2267 C2262 1.379 . S
C2267 N2265 1.356 . S
N2268 C2260 1.356 . S
N2268 H2274 0.984 . S
N2268 H2275 0.984 . S
N2269 C2262 1.356 . S
N2269 H2272 0.984 . S
N2269 H2273 0.985 . S
H2270 N2265 0.984 . S
H2271 N2265 0.985 . S
H2272 N2269 0.984 . S
H2273 N2269 0.985 . S
H2274 N2268 0.984 . S
H2275 N2268 0.984 . S
H2276 N2264 0.984 . S
H2277 N2264 0.985 . S
C2278 C2279 1.349 1_545 S
C2278 C2284 1.379 . S
C2278 N2286 1.356 . S
C2279 C2278 1.349 1_565 S
C2279 C2285 1.377 . S
C2280 C2281 1.357 1_565 S
C2280 C2285 1.379 . S
C2280 N2287 1.356 . S
C2281 C2280 1.357 1_545 S
C2281 C2284 1.369 . S
N2282 C2284 1.356 . S
N2282 H2294 0.984 . S
N2282 H2295 0.985 . S
N2283 C2285 1.356 . S
N2283 H2288 0.984 . S
N2283 H2289 0.985 . S
C2284 C2278 1.379 . S
C2284 C2281 1.369 . S
C2284 N2282 1.356 . S
C2285 C2279 1.377 . S
C2285 C2280 1.379 . S
C2285 N2283 1.356 . S
N2286 C2278 1.356 . S
N2286 H2292 0.984 . S
N2286 H2293 0.984 . S
N2287 C2280 1.356 . S
N2287 H2290 0.984 . S
N2287 H2291 0.985 . S
H2288 N2283 0.984 . S
H2289 N2283 0.985 . S
H2290 N2287 0.984 . S
H2291 N2287 0.985 . S
H2292 N2286 0.984 . S
H2293 N2286 0.984 . S
H2294 N2282 0.984 . S
H2295 N2282 0.985 . S
C2296 C2297 1.363 . S
C2296 C2302 1.379 . S
C2296 N2304 1.356 . S
C2297 C2296 1.363 . S
C2297 C2303 1.363 . S
C2298 C2299 1.363 . S
C2298 C2303 1.379 . S
C2298 N2305 1.356 . S
C2299 C2298 1.363 . S
C2299 C2302 1.363 . S
N2300 C2302 1.356 . S
N2300 H2312 0.984 . S
N2300 H2313 0.985 . S
N2301 C2303 1.356 . S
N2301 H2306 0.984 . S
N2301 H2307 0.985 . S
C2302 C2296 1.379 . S
C2302 C2299 1.363 . S
C2302 N2300 1.356 . S
C2303 C2297 1.363 . S
C2303 C2298 1.379 . S
C2303 N2301 1.356 . S
N2304 C2296 1.356 . S
N2304 H2310 0.984 . S
N2304 H2311 0.984 . S
N2305 C2298 1.356 . S
N2305 H2308 0.984 . S
N2305 H2309 0.985 . S
H2306 N2301 0.984 . S
H2307 N2301 0.985 . S
H2308 N2305 0.984 . S
H2309 N2305 0.985 . S
H2310 N2304 0.984 . S
H2311 N2304 0.984 . S
H2312 N2300 0.984 . S
H2313 N2300 0.985 . S
C2314 C2315 1.363 . S
C2314 C2320 1.379 . S
C2314 N2322 1.356 . S
C2315 C2314 1.363 . S
C2315 C2321 1.363 . S
C2316 C2317 1.363 . S
C2316 C2321 1.379 . S
C2316 N2323 1.356 . S
C2317 C2316 1.363 . S
C2317 C2320 1.363 . S
N2318 C2320 1.356 . S
N2318 H2330 0.984 . S
N2318 H2331 0.985 . S
N2319 C2321 1.356 . S
N2319 H2324 0.984 . S
N2319 H2325 0.985 . S
C2320 C2314 1.379 . S
C2320 C2317 1.363 . S
C2320 N2318 1.356 . S
C2321 C2315 1.363 . S
C2321 C2316 1.379 . S
C2321 N2319 1.356 . S
N2322 C2314 1.356 . S
N2322 H2328 0.984 . S
N2322 H2329 0.984 . S
N2323 C2316 1.356 . S
N2323 H2326 0.984 . S
N2323 H2327 0.985 . S
H2324 N2319 0.984 . S
H2325 N2319 0.985 . S
H2326 N2323 0.984 . S
H2327 N2323 0.985 . S
H2328 N2322 0.984 . S
H2329 N2322 0.984 . S
H2330 N2318 0.984 . S
H2331 N2318 0.985 . S
C2332 C2333 1.363 . S
C2332 C2338 1.379 . S
C2332 N2340 1.356 . S
C2333 C2332 1.363 . S
C2333 C2339 1.363 . S
C2334 C2335 1.363 . S
C2334 C2339 1.379 . S
C2334 N2341 1.356 . S
C2335 C2334 1.363 . S
C2335 C2338 1.363 . S
N2336 C2338 1.356 . S
N2336 H2348 0.984 . S
N2336 H2349 0.985 . S
N2337 C2339 1.356 . S
N2337 H2342 0.984 . S
N2337 H2343 0.985 . S
C2338 C2332 1.379 . S
C2338 C2335 1.363 . S
C2338 N2336 1.356 . S
C2339 C2333 1.363 . S
C2339 C2334 1.379 . S
C2339 N2337 1.356 . S
N2340 C2332 1.356 . S
N2340 H2346 0.984 . S
N2340 H2347 0.984 . S
N2341 C2334 1.356 . S
N2341 H2344 0.984 . S
N2341 H2345 0.985 . S
H2342 N2337 0.984 . S
H2343 N2337 0.985 . S
H2344 N2341 0.984 . S
H2345 N2341 0.985 . S
H2346 N2340 0.984 . S
H2347 N2340 0.984 . S
H2348 N2336 0.984 . S
H2349 N2336 0.985 . S
C2350 C2351 1.377 . S
C2350 C2356 1.379 1_554 S
C2350 N2358 1.356 . S
C2351 C2350 1.377 . S
C2351 C2357 1.349 1_565 S
C2352 C2353 1.369 . S
C2352 C2357 1.379 1_556 S
C2352 N2359 1.356 . S
C2353 C2352 1.369 . S
C2353 C2356 1.357 1_545 S
N2354 C2356 1.356 . S
N2354 H2366 0.984 . S
N2354 H2367 0.985 . S
N2355 C2357 1.356 . S
N2355 H2360 0.984 . S
N2355 H2361 0.985 . S
C2356 C2350 1.379 1_556 S
C2356 C2353 1.357 1_565 S
C2356 N2354 1.356 . S
C2357 C2351 1.349 1_545 S
C2357 C2352 1.379 1_554 S
C2357 N2355 1.356 . S
N2358 C2350 1.356 . S
N2358 H2364 0.984 . S
N2358 H2365 0.984 . S
N2359 C2352 1.356 . S
N2359 H2362 0.984 . S
N2359 H2363 0.985 . S
H2360 N2355 0.984 . S
H2361 N2355 0.985 . S
H2362 N2359 0.984 . S
H2363 N2359 0.985 . S
H2364 N2358 0.984 . S
H2365 N2358 0.984 . S
H2366 N2354 0.984 . S
H2367 N2354 0.985 . S
C641 C16 1.654 . S
C643 C516 1.654 . S
C659 C496 1.641 . S
C661 C36 1.636 . S
C677 C556 1.641 . S
C679 C56 1.636 . S
C695 C76 1.654 . S
C697 C536 1.654 . S
C713 C86 1.654 . S
C715 C586 1.654 . S
C731 C106 1.641 . S
C733 C566 1.635 . S
C749 C126 1.641 . S
C751 C626 1.636 . S
C767 C606 1.654 . S
C769 C146 1.654 . S
C785 C176 1.641 . S
C787 C356 1.636 . S
C803 C196 1.654 . S
C805 C336 1.654 . S
C821 C216 1.654 . S
C823 C396 1.654 . S
C839 C376 1.641 . S
C841 C236 1.636 . S
C857 C246 1.641 . S
C859 C426 1.636 . S
C875 C266 1.654 . S
C877 C406 1.654 . S
C893 C466 1.654 . S
C895 C286 1.654 . S
C911 C306 1.641 . S
C913 C446 1.636 . S
C929 C1 1.496 . S
C931 C61 1.496 . S
C947 C21 1.498 . S
C949 C41 1.498 . S
C965 C149 1.496 . S
C967 C89 1.496 . S
C983 C129 1.498 . S
C985 C109 1.498 . S
C1001 C161 1.493 1_545 S
C1003 C221 1.493 1_545 S
C1019 C181 1.494 . S
C1021 C201 1.494 . S
C1037 C249 1.493 1_565 S
C1039 C309 1.493 1_565 S
C1055 C289 1.494 . S
C1057 C269 1.494 . S
C1073 C321 1.496 . S
C1075 C381 1.496 . S
C1091 C341 1.498 . S
C1093 C361 1.498 . S
C1109 C469 1.496 . S
C1111 C409 1.496 . S
C1127 C429 1.498 . S
C1129 C449 1.498 . S
C1145 C541 1.493 1_545 S
C1147 C481 1.493 1_545 S
C1163 C501 1.493 . S
C1165 C521 1.493 . S
C1181 C629 1.493 1_565 S
C1183 C569 1.493 1_565 S
C1199 C609 1.493 . S
C1201 C589 1.493 . S
C1217 C26 1.587 . S
C1219 C6 1.587 . S
C1235 C46 1.587 . S
C1237 C66 1.587 . S
C1253 C116 1.587 . S
C1255 C96 1.587 . S
C1271 C156 1.587 . S
C1273 C136 1.587 . S
C1289 C166 1.599 . S
C1291 C186 1.605 . S
C1307 C206 1.600 . S
C1309 C226 1.605 . S
C1325 C276 1.600 . S
C1327 C256 1.605 . S
C1343 C296 1.600 . S
C1345 C316 1.605 . S
C1361 C326 1.587 . S
C1363 C346 1.587 . S
C1379 C386 1.587 . S
C1381 C366 1.587 . S
C1397 C416 1.587 . S
C1399 C436 1.587 . S
C1415 C456 1.587 . S
C1417 C476 1.587 . S
C1433 C486 1.599 . S
C1435 C506 1.605 . S
C1451 C526 1.600 . S
C1453 C546 1.605 . S
C1469 C596 1.600 . S
C1471 C576 1.605 . S
C1487 C616 1.600 . S
C1489 C636 1.605 . S
C1505 C8 1.851 . S
C1507 C19 1.851 . S
C1523 C28 1.851 . S
C1525 C39 1.851 . S
C1541 C48 1.851 . S
C1543 C59 1.851 . S
C1559 C79 1.851 . S
C1561 C68 1.851 . S
C1577 C88 1.851 . S
C1579 C99 1.851 . S
C1595 C119 1.851 . S
C1597 C108 1.851 . S
C1613 C128 1.851 . S
C1615 C139 1.851 . S
C1631 C148 1.851 . S
C1633 C159 1.851 . S
C1649 C179 1.851 . S
C1651 C168 1.851 . S
C1667 C188 1.852 . S
C1669 C199 1.852 . S
C1685 C208 1.852 . S
C1687 C219 1.852 . S
C1703 C239 1.851 . S
C1705 C228 1.851 . S
C1721 C248 1.851 . S
C1723 C259 1.851 . S
C1739 C279 1.852 . S
C1741 C268 1.852 . S
C1757 C299 1.852 . S
C1759 C288 1.852 . S
C1775 C308 1.851 . S
C1777 C319 1.851 . S
C1793 C328 1.851 . S
C1795 C339 1.851 . S
C1811 C359 1.851 . S
C1813 C348 1.851 1_455 S
C1829 C379 1.851 . S
C1831 C368 1.851 . S
C1847 C388 1.851 1_455 S
C1849 C399 1.851 . S
C1865 C419 1.851 . S
C1867 C408 1.851 . S
C1883 C439 1.851 1_655 S
C1885 C428 1.851 . S
C1901 C448 1.851 . S
C1903 C459 1.851 . S
C1919 C479 1.851 1_655 S
C1921 C468 1.851 . S
C1937 C499 1.851 . S
C1939 C488 1.851 . S
C1955 C508 1.852 1_455 S
C1957 C519 1.852 . S
C1973 C539 1.852 . S
C1975 C528 1.852 . S
C1991 C559 1.851 . S
C1993 C548 1.851 1_455 S
C2009 C579 1.851 . S
C2011 C568 1.851 . S
C2027 C599 1.852 1_655 S
C2029 C588 1.852 . S
C2045 C608 1.852 . S
C2047 C619 1.852 . S
C2063 C628 1.851 . S
C2065 C639 1.851 1_655 S
C2081 C9 1.525 . S
C2083 C81 1.525 . S
C2099 C581 1.526 . S
C2101 C29 1.526 . S
C2117 C281 1.526 . S
C2119 C49 1.526 . S
C2135 C69 1.525 . S
C2137 C461 1.525 . S
C2153 C101 1.526 . S
C2155 C509 1.526 . S
C2171 C121 1.526 . S
C2173 C209 1.526 . S
C2189 C141 1.525 . S
C2191 C389 1.525 . S
C2207 C169 1.523 1_565 S
C2209 C241 1.523 1_545 S
C2225 C421 1.526 . S
C2227 C189 1.526 . S
C2243 C621 1.523 1_545 S
C2245 C229 1.523 1_565 S
C2261 C261 1.526 . S
C2263 C349 1.526 . S
C2279 C549 1.523 1_565 S
C2281 C301 1.523 1_545 S
C2297 C329 1.526 . S
C2299 C401 1.526 . S
C2315 C601 1.526 . S
C2317 C369 1.526 . S
C2333 C441 1.526 . S
C2335 C529 1.526 . S
C2351 C489 1.522 1_565 S
C2353 C561 1.522 1_545 S
