# Generated by pormake.
# Topology ulh, (4)-cn, num edge types: 1
# Building blocks:
#     Node 0, Type 0, BuildingBlock: GALJAG_clean_sbu_0, # of connection points: 4
#     Node 1, Type 0, BuildingBlock: GALJAG_clean_sbu_0, # of connection points: 4
#     Node 2, Type 0, BuildingBlock: GALJAG_clean_sbu_0, # of connection points: 4
#     Node 3, Type 0, BuildingBlock: GALJAG_clean_sbu_0, # of connection points: 4
#     Node 4, Type 0, BuildingBlock: GALJAG_clean_sbu_0, # of connection points: 4
#     Node 5, Type 0, BuildingBlock: GALJAG_clean_sbu_0, # of connection points: 4
#     Node 6, Type 0, BuildingBlock: GALJAG_clean_sbu_0, # of connection points: 4
#     Node 7, Type 0, BuildingBlock: GALJAG_clean_sbu_0, # of connection points: 4
#     Node 8, Type 0, BuildingBlock: GALJAG_clean_sbu_0, # of connection points: 4
#     Node 9, Type 0, BuildingBlock: GALJAG_clean_sbu_0, # of connection points: 4
#     Node 10, Type 0, BuildingBlock: GALJAG_clean_sbu_0, # of connection points: 4
#     Node 11, Type 0, BuildingBlock: GALJAG_clean_sbu_0, # of connection points: 4
#     Node 12, Type 0, BuildingBlock: GALJAG_clean_sbu_0, # of connection points: 4
#     Node 13, Type 0, BuildingBlock: GALJAG_clean_sbu_0, # of connection points: 4
#     Node 14, Type 0, BuildingBlock: GALJAG_clean_sbu_0, # of connection points: 4
#     Node 15, Type 0, BuildingBlock: GALJAG_clean_sbu_0, # of connection points: 4
#     Node 16, Type 0, BuildingBlock: GALJAG_clean_sbu_0, # of connection points: 4
#     Node 17, Type 0, BuildingBlock: GALJAG_clean_sbu_0, # of connection points: 4
#     Node 18, Type 0, BuildingBlock: GALJAG_clean_sbu_0, # of connection points: 4
#     Node 19, Type 0, BuildingBlock: GALJAG_clean_sbu_0, # of connection points: 4
#     Node 20, Type 0, BuildingBlock: GALJAG_clean_sbu_0, # of connection points: 4
#     Node 21, Type 0, BuildingBlock: GALJAG_clean_sbu_0, # of connection points: 4
#     Node 22, Type 0, BuildingBlock: GALJAG_clean_sbu_0, # of connection points: 4
#     Node 23, Type 0, BuildingBlock: GALJAG_clean_sbu_0, # of connection points: 4
#     Node 24, Type 0, BuildingBlock: GALJAG_clean_sbu_0, # of connection points: 4
#     Node 25, Type 0, BuildingBlock: GALJAG_clean_sbu_0, # of connection points: 4
#     Node 26, Type 0, BuildingBlock: GALJAG_clean_sbu_0, # of connection points: 4
#     Node 27, Type 0, BuildingBlock: GALJAG_clean_sbu_0, # of connection points: 4
#     Node 28, Type 0, BuildingBlock: GALJAG_clean_sbu_0, # of connection points: 4
#     Node 29, Type 0, BuildingBlock: GALJAG_clean_sbu_0, # of connection points: 4
#     Node 30, Type 0, BuildingBlock: GALJAG_clean_sbu_0, # of connection points: 4
#     Node 31, Type 0, BuildingBlock: GALJAG_clean_sbu_0, # of connection points: 4
#     Node 32, Type 0, BuildingBlock: GALJAG_clean_sbu_0, # of connection points: 4
#     Node 33, Type 0, BuildingBlock: GALJAG_clean_sbu_0, # of connection points: 4
#     Node 34, Type 0, BuildingBlock: GALJAG_clean_sbu_0, # of connection points: 4
#     Node 35, Type 0, BuildingBlock: GALJAG_clean_sbu_0, # of connection points: 4
#     Node 36, Type 0, BuildingBlock: GALJAG_clean_sbu_0, # of connection points: 4
#     Node 37, Type 0, BuildingBlock: GALJAG_clean_sbu_0, # of connection points: 4
#     Node 38, Type 0, BuildingBlock: GALJAG_clean_sbu_0, # of connection points: 4
#     Node 39, Type 0, BuildingBlock: GALJAG_clean_sbu_0, # of connection points: 4
#     Node 40, Type 0, BuildingBlock: GALJAG_clean_sbu_0, # of connection points: 4
#     Node 41, Type 0, BuildingBlock: GALJAG_clean_sbu_0, # of connection points: 4
#     Node 42, Type 0, BuildingBlock: GALJAG_clean_sbu_0, # of connection points: 4
#     Node 43, Type 0, BuildingBlock: GALJAG_clean_sbu_0, # of connection points: 4
#     Node 44, Type 0, BuildingBlock: GALJAG_clean_sbu_0, # of connection points: 4
#     Node 45, Type 0, BuildingBlock: GALJAG_clean_sbu_0, # of connection points: 4
#     Node 46, Type 0, BuildingBlock: GALJAG_clean_sbu_0, # of connection points: 4
#     Node 47, Type 0, BuildingBlock: GALJAG_clean_sbu_0, # of connection points: 4
#     Node 48, Type 0, BuildingBlock: GALJAG_clean_sbu_0, # of connection points: 4
#     Node 49, Type 0, BuildingBlock: GALJAG_clean_sbu_0, # of connection points: 4
#     Node 50, Type 0, BuildingBlock: GALJAG_clean_sbu_0, # of connection points: 4
#     Node 51, Type 0, BuildingBlock: GALJAG_clean_sbu_0, # of connection points: 4
#     Node 52, Type 0, BuildingBlock: GALJAG_clean_sbu_0, # of connection points: 4
#     Node 53, Type 0, BuildingBlock: GALJAG_clean_sbu_0, # of connection points: 4
#     Node 54, Type 0, BuildingBlock: GALJAG_clean_sbu_0, # of connection points: 4
#     Node 55, Type 0, BuildingBlock: GALJAG_clean_sbu_0, # of connection points: 4
#     Node 56, Type 0, BuildingBlock: GALJAG_clean_sbu_0, # of connection points: 4
#     Node 57, Type 0, BuildingBlock: GALJAG_clean_sbu_0, # of connection points: 4
#     Node 58, Type 0, BuildingBlock: GALJAG_clean_sbu_0, # of connection points: 4
#     Node 59, Type 0, BuildingBlock: GALJAG_clean_sbu_0, # of connection points: 4
#     Node 60, Type 0, BuildingBlock: GALJAG_clean_sbu_0, # of connection points: 4
#     Node 61, Type 0, BuildingBlock: GALJAG_clean_sbu_0, # of connection points: 4
#     Node 62, Type 0, BuildingBlock: GALJAG_clean_sbu_0, # of connection points: 4
#     Node 63, Type 0, BuildingBlock: GALJAG_clean_sbu_0, # of connection points: 4
#     Node 64, Type 0, BuildingBlock: GALJAG_clean_sbu_0, # of connection points: 4
#     Node 65, Type 0, BuildingBlock: GALJAG_clean_sbu_0, # of connection points: 4
#     Node 66, Type 0, BuildingBlock: GALJAG_clean_sbu_0, # of connection points: 4
#     Node 67, Type 0, BuildingBlock: GALJAG_clean_sbu_0, # of connection points: 4
#     Node 68, Type 0, BuildingBlock: GALJAG_clean_sbu_0, # of connection points: 4
#     Node 69, Type 0, BuildingBlock: GALJAG_clean_sbu_0, # of connection points: 4
#     Node 70, Type 0, BuildingBlock: GALJAG_clean_sbu_0, # of connection points: 4
#     Node 71, Type 0, BuildingBlock: GALJAG_clean_sbu_0, # of connection points: 4
#     Node 72, Type 0, BuildingBlock: GALJAG_clean_sbu_0, # of connection points: 4
#     Node 73, Type 0, BuildingBlock: GALJAG_clean_sbu_0, # of connection points: 4
#     Node 74, Type 0, BuildingBlock: GALJAG_clean_sbu_0, # of connection points: 4
#     Node 75, Type 0, BuildingBlock: GALJAG_clean_sbu_0, # of connection points: 4
#     Node 76, Type 0, BuildingBlock: GALJAG_clean_sbu_0, # of connection points: 4
#     Node 77, Type 0, BuildingBlock: GALJAG_clean_sbu_0, # of connection points: 4
#     Node 78, Type 0, BuildingBlock: GALJAG_clean_sbu_0, # of connection points: 4
#     Node 79, Type 0, BuildingBlock: GALJAG_clean_sbu_0, # of connection points: 4
#     Node 80, Type 0, BuildingBlock: GALJAG_clean_sbu_0, # of connection points: 4
#     Node 81, Type 0, BuildingBlock: GALJAG_clean_sbu_0, # of connection points: 4
#     Node 82, Type 0, BuildingBlock: GALJAG_clean_sbu_0, # of connection points: 4
#     Node 83, Type 0, BuildingBlock: GALJAG_clean_sbu_0, # of connection points: 4
#     Node 84, Type 0, BuildingBlock: GALJAG_clean_sbu_0, # of connection points: 4
#     Node 85, Type 0, BuildingBlock: GALJAG_clean_sbu_0, # of connection points: 4
#     Node 86, Type 0, BuildingBlock: GALJAG_clean_sbu_0, # of connection points: 4
#     Node 87, Type 0, BuildingBlock: GALJAG_clean_sbu_0, # of connection points: 4
#     Node 88, Type 0, BuildingBlock: GALJAG_clean_sbu_0, # of connection points: 4
#     Node 89, Type 0, BuildingBlock: GALJAG_clean_sbu_0, # of connection points: 4
#     Node 90, Type 0, BuildingBlock: GALJAG_clean_sbu_0, # of connection points: 4
#     Node 91, Type 0, BuildingBlock: GALJAG_clean_sbu_0, # of connection points: 4
#     Node 92, Type 0, BuildingBlock: GALJAG_clean_sbu_0, # of connection points: 4
#     Node 93, Type 0, BuildingBlock: GALJAG_clean_sbu_0, # of connection points: 4
#     Node 94, Type 0, BuildingBlock: GALJAG_clean_sbu_0, # of connection points: 4
#     Node 95, Type 0, BuildingBlock: GALJAG_clean_sbu_0, # of connection points: 4
#     Edge 96, Type (0, 0), BuildingBlock: KIFKEQ_clean_linker_1, # of connection points: 2
#     Edge 97, Type (0, 0), BuildingBlock: KIFKEQ_clean_linker_1, # of connection points: 2
#     Edge 98, Type (0, 0), BuildingBlock: KIFKEQ_clean_linker_1, # of connection points: 2
#     Edge 99, Type (0, 0), BuildingBlock: KIFKEQ_clean_linker_1, # of connection points: 2
#     Edge 100, Type (0, 0), BuildingBlock: KIFKEQ_clean_linker_1, # of connection points: 2
#     Edge 101, Type (0, 0), BuildingBlock: KIFKEQ_clean_linker_1, # of connection points: 2
#     Edge 102, Type (0, 0), BuildingBlock: KIFKEQ_clean_linker_1, # of connection points: 2
#     Edge 103, Type (0, 0), BuildingBlock: KIFKEQ_clean_linker_1, # of connection points: 2
#     Edge 104, Type (0, 0), BuildingBlock: KIFKEQ_clean_linker_1, # of connection points: 2
#     Edge 105, Type (0, 0), BuildingBlock: KIFKEQ_clean_linker_1, # of connection points: 2
#     Edge 106, Type (0, 0), BuildingBlock: KIFKEQ_clean_linker_1, # of connection points: 2
#     Edge 107, Type (0, 0), BuildingBlock: KIFKEQ_clean_linker_1, # of connection points: 2
#     Edge 108, Type (0, 0), BuildingBlock: KIFKEQ_clean_linker_1, # of connection points: 2
#     Edge 109, Type (0, 0), BuildingBlock: KIFKEQ_clean_linker_1, # of connection points: 2
#     Edge 110, Type (0, 0), BuildingBlock: KIFKEQ_clean_linker_1, # of connection points: 2
#     Edge 111, Type (0, 0), BuildingBlock: KIFKEQ_clean_linker_1, # of connection points: 2
#     Edge 112, Type (0, 0), BuildingBlock: KIFKEQ_clean_linker_1, # of connection points: 2
#     Edge 113, Type (0, 0), BuildingBlock: KIFKEQ_clean_linker_1, # of connection points: 2
#     Edge 114, Type (0, 0), BuildingBlock: KIFKEQ_clean_linker_1, # of connection points: 2
#     Edge 115, Type (0, 0), BuildingBlock: KIFKEQ_clean_linker_1, # of connection points: 2
#     Edge 116, Type (0, 0), BuildingBlock: KIFKEQ_clean_linker_1, # of connection points: 2
#     Edge 117, Type (0, 0), BuildingBlock: KIFKEQ_clean_linker_1, # of connection points: 2
#     Edge 118, Type (0, 0), BuildingBlock: KIFKEQ_clean_linker_1, # of connection points: 2
#     Edge 119, Type (0, 0), BuildingBlock: KIFKEQ_clean_linker_1, # of connection points: 2
#     Edge 120, Type (0, 0), BuildingBlock: KIFKEQ_clean_linker_1, # of connection points: 2
#     Edge 121, Type (0, 0), BuildingBlock: KIFKEQ_clean_linker_1, # of connection points: 2
#     Edge 122, Type (0, 0), BuildingBlock: KIFKEQ_clean_linker_1, # of connection points: 2
#     Edge 123, Type (0, 0), BuildingBlock: KIFKEQ_clean_linker_1, # of connection points: 2
#     Edge 124, Type (0, 0), BuildingBlock: KIFKEQ_clean_linker_1, # of connection points: 2
#     Edge 125, Type (0, 0), BuildingBlock: KIFKEQ_clean_linker_1, # of connection points: 2
#     Edge 126, Type (0, 0), BuildingBlock: KIFKEQ_clean_linker_1, # of connection points: 2
#     Edge 127, Type (0, 0), BuildingBlock: KIFKEQ_clean_linker_1, # of connection points: 2
#     Edge 128, Type (0, 0), BuildingBlock: KIFKEQ_clean_linker_1, # of connection points: 2
#     Edge 129, Type (0, 0), BuildingBlock: KIFKEQ_clean_linker_1, # of connection points: 2
#     Edge 130, Type (0, 0), BuildingBlock: KIFKEQ_clean_linker_1, # of connection points: 2
#     Edge 131, Type (0, 0), BuildingBlock: KIFKEQ_clean_linker_1, # of connection points: 2
#     Edge 132, Type (0, 0), BuildingBlock: KIFKEQ_clean_linker_1, # of connection points: 2
#     Edge 133, Type (0, 0), BuildingBlock: KIFKEQ_clean_linker_1, # of connection points: 2
#     Edge 134, Type (0, 0), BuildingBlock: KIFKEQ_clean_linker_1, # of connection points: 2
#     Edge 135, Type (0, 0), BuildingBlock: KIFKEQ_clean_linker_1, # of connection points: 2
#     Edge 136, Type (0, 0), BuildingBlock: KIFKEQ_clean_linker_1, # of connection points: 2
#     Edge 137, Type (0, 0), BuildingBlock: KIFKEQ_clean_linker_1, # of connection points: 2
#     Edge 138, Type (0, 0), BuildingBlock: KIFKEQ_clean_linker_1, # of connection points: 2
#     Edge 139, Type (0, 0), BuildingBlock: KIFKEQ_clean_linker_1, # of connection points: 2
#     Edge 140, Type (0, 0), BuildingBlock: KIFKEQ_clean_linker_1, # of connection points: 2
#     Edge 141, Type (0, 0), BuildingBlock: KIFKEQ_clean_linker_1, # of connection points: 2
#     Edge 142, Type (0, 0), BuildingBlock: KIFKEQ_clean_linker_1, # of connection points: 2
#     Edge 143, Type (0, 0), BuildingBlock: KIFKEQ_clean_linker_1, # of connection points: 2
#     Edge 144, Type (0, 0), BuildingBlock: KIFKEQ_clean_linker_1, # of connection points: 2
#     Edge 145, Type (0, 0), BuildingBlock: KIFKEQ_clean_linker_1, # of connection points: 2
#     Edge 146, Type (0, 0), BuildingBlock: KIFKEQ_clean_linker_1, # of connection points: 2
#     Edge 147, Type (0, 0), BuildingBlock: KIFKEQ_clean_linker_1, # of connection points: 2
#     Edge 148, Type (0, 0), BuildingBlock: KIFKEQ_clean_linker_1, # of connection points: 2
#     Edge 149, Type (0, 0), BuildingBlock: KIFKEQ_clean_linker_1, # of connection points: 2
#     Edge 150, Type (0, 0), BuildingBlock: KIFKEQ_clean_linker_1, # of connection points: 2
#     Edge 151, Type (0, 0), BuildingBlock: KIFKEQ_clean_linker_1, # of connection points: 2
#     Edge 152, Type (0, 0), BuildingBlock: KIFKEQ_clean_linker_1, # of connection points: 2
#     Edge 153, Type (0, 0), BuildingBlock: KIFKEQ_clean_linker_1, # of connection points: 2
#     Edge 154, Type (0, 0), BuildingBlock: KIFKEQ_clean_linker_1, # of connection points: 2
#     Edge 155, Type (0, 0), BuildingBlock: KIFKEQ_clean_linker_1, # of connection points: 2
#     Edge 156, Type (0, 0), BuildingBlock: KIFKEQ_clean_linker_1, # of connection points: 2
#     Edge 157, Type (0, 0), BuildingBlock: KIFKEQ_clean_linker_1, # of connection points: 2
#     Edge 158, Type (0, 0), BuildingBlock: KIFKEQ_clean_linker_1, # of connection points: 2
#     Edge 159, Type (0, 0), BuildingBlock: KIFKEQ_clean_linker_1, # of connection points: 2
#     Edge 160, Type (0, 0), BuildingBlock: KIFKEQ_clean_linker_1, # of connection points: 2
#     Edge 161, Type (0, 0), BuildingBlock: KIFKEQ_clean_linker_1, # of connection points: 2
#     Edge 162, Type (0, 0), BuildingBlock: KIFKEQ_clean_linker_1, # of connection points: 2
#     Edge 163, Type (0, 0), BuildingBlock: KIFKEQ_clean_linker_1, # of connection points: 2
#     Edge 164, Type (0, 0), BuildingBlock: KIFKEQ_clean_linker_1, # of connection points: 2
#     Edge 165, Type (0, 0), BuildingBlock: KIFKEQ_clean_linker_1, # of connection points: 2
#     Edge 166, Type (0, 0), BuildingBlock: KIFKEQ_clean_linker_1, # of connection points: 2
#     Edge 167, Type (0, 0), BuildingBlock: KIFKEQ_clean_linker_1, # of connection points: 2
#     Edge 168, Type (0, 0), BuildingBlock: KIFKEQ_clean_linker_1, # of connection points: 2
#     Edge 169, Type (0, 0), BuildingBlock: KIFKEQ_clean_linker_1, # of connection points: 2
#     Edge 170, Type (0, 0), BuildingBlock: KIFKEQ_clean_linker_1, # of connection points: 2
#     Edge 171, Type (0, 0), BuildingBlock: KIFKEQ_clean_linker_1, # of connection points: 2
#     Edge 172, Type (0, 0), BuildingBlock: KIFKEQ_clean_linker_1, # of connection points: 2
#     Edge 173, Type (0, 0), BuildingBlock: KIFKEQ_clean_linker_1, # of connection points: 2
#     Edge 174, Type (0, 0), BuildingBlock: KIFKEQ_clean_linker_1, # of connection points: 2
#     Edge 175, Type (0, 0), BuildingBlock: KIFKEQ_clean_linker_1, # of connection points: 2
#     Edge 176, Type (0, 0), BuildingBlock: KIFKEQ_clean_linker_1, # of connection points: 2
#     Edge 177, Type (0, 0), BuildingBlock: KIFKEQ_clean_linker_1, # of connection points: 2
#     Edge 178, Type (0, 0), BuildingBlock: KIFKEQ_clean_linker_1, # of connection points: 2
#     Edge 179, Type (0, 0), BuildingBlock: KIFKEQ_clean_linker_1, # of connection points: 2
#     Edge 180, Type (0, 0), BuildingBlock: KIFKEQ_clean_linker_1, # of connection points: 2
#     Edge 181, Type (0, 0), BuildingBlock: KIFKEQ_clean_linker_1, # of connection points: 2
#     Edge 182, Type (0, 0), BuildingBlock: KIFKEQ_clean_linker_1, # of connection points: 2
#     Edge 183, Type (0, 0), BuildingBlock: KIFKEQ_clean_linker_1, # of connection points: 2
#     Edge 184, Type (0, 0), BuildingBlock: KIFKEQ_clean_linker_1, # of connection points: 2
#     Edge 185, Type (0, 0), BuildingBlock: KIFKEQ_clean_linker_1, # of connection points: 2
#     Edge 186, Type (0, 0), BuildingBlock: KIFKEQ_clean_linker_1, # of connection points: 2
#     Edge 187, Type (0, 0), BuildingBlock: KIFKEQ_clean_linker_1, # of connection points: 2
#     Edge 188, Type (0, 0), BuildingBlock: KIFKEQ_clean_linker_1, # of connection points: 2
#     Edge 189, Type (0, 0), BuildingBlock: KIFKEQ_clean_linker_1, # of connection points: 2
#     Edge 190, Type (0, 0), BuildingBlock: KIFKEQ_clean_linker_1, # of connection points: 2
#     Edge 191, Type (0, 0), BuildingBlock: KIFKEQ_clean_linker_1, # of connection points: 2
#     Edge 192, Type (0, 0), BuildingBlock: KIFKEQ_clean_linker_1, # of connection points: 2
#     Edge 193, Type (0, 0), BuildingBlock: KIFKEQ_clean_linker_1, # of connection points: 2
#     Edge 194, Type (0, 0), BuildingBlock: KIFKEQ_clean_linker_1, # of connection points: 2
#     Edge 195, Type (0, 0), BuildingBlock: KIFKEQ_clean_linker_1, # of connection points: 2
#     Edge 196, Type (0, 0), BuildingBlock: KIFKEQ_clean_linker_1, # of connection points: 2
#     Edge 197, Type (0, 0), BuildingBlock: KIFKEQ_clean_linker_1, # of connection points: 2
#     Edge 198, Type (0, 0), BuildingBlock: KIFKEQ_clean_linker_1, # of connection points: 2
#     Edge 199, Type (0, 0), BuildingBlock: KIFKEQ_clean_linker_1, # of connection points: 2
#     Edge 200, Type (0, 0), BuildingBlock: KIFKEQ_clean_linker_1, # of connection points: 2
#     Edge 201, Type (0, 0), BuildingBlock: KIFKEQ_clean_linker_1, # of connection points: 2
#     Edge 202, Type (0, 0), BuildingBlock: KIFKEQ_clean_linker_1, # of connection points: 2
#     Edge 203, Type (0, 0), BuildingBlock: KIFKEQ_clean_linker_1, # of connection points: 2
#     Edge 204, Type (0, 0), BuildingBlock: KIFKEQ_clean_linker_1, # of connection points: 2
#     Edge 205, Type (0, 0), BuildingBlock: KIFKEQ_clean_linker_1, # of connection points: 2
#     Edge 206, Type (0, 0), BuildingBlock: KIFKEQ_clean_linker_1, # of connection points: 2
#     Edge 207, Type (0, 0), BuildingBlock: KIFKEQ_clean_linker_1, # of connection points: 2
#     Edge 208, Type (0, 0), BuildingBlock: KIFKEQ_clean_linker_1, # of connection points: 2
#     Edge 209, Type (0, 0), BuildingBlock: KIFKEQ_clean_linker_1, # of connection points: 2
#     Edge 210, Type (0, 0), BuildingBlock: KIFKEQ_clean_linker_1, # of connection points: 2
#     Edge 211, Type (0, 0), BuildingBlock: KIFKEQ_clean_linker_1, # of connection points: 2
#     Edge 212, Type (0, 0), BuildingBlock: KIFKEQ_clean_linker_1, # of connection points: 2
#     Edge 213, Type (0, 0), BuildingBlock: KIFKEQ_clean_linker_1, # of connection points: 2
#     Edge 214, Type (0, 0), BuildingBlock: KIFKEQ_clean_linker_1, # of connection points: 2
#     Edge 215, Type (0, 0), BuildingBlock: KIFKEQ_clean_linker_1, # of connection points: 2
#     Edge 216, Type (0, 0), BuildingBlock: KIFKEQ_clean_linker_1, # of connection points: 2
#     Edge 217, Type (0, 0), BuildingBlock: KIFKEQ_clean_linker_1, # of connection points: 2
#     Edge 218, Type (0, 0), BuildingBlock: KIFKEQ_clean_linker_1, # of connection points: 2
#     Edge 219, Type (0, 0), BuildingBlock: KIFKEQ_clean_linker_1, # of connection points: 2
#     Edge 220, Type (0, 0), BuildingBlock: KIFKEQ_clean_linker_1, # of connection points: 2
#     Edge 221, Type (0, 0), BuildingBlock: KIFKEQ_clean_linker_1, # of connection points: 2
#     Edge 222, Type (0, 0), BuildingBlock: KIFKEQ_clean_linker_1, # of connection points: 2
#     Edge 223, Type (0, 0), BuildingBlock: KIFKEQ_clean_linker_1, # of connection points: 2
#     Edge 224, Type (0, 0), BuildingBlock: KIFKEQ_clean_linker_1, # of connection points: 2
#     Edge 225, Type (0, 0), BuildingBlock: KIFKEQ_clean_linker_1, # of connection points: 2
#     Edge 226, Type (0, 0), BuildingBlock: KIFKEQ_clean_linker_1, # of connection points: 2
#     Edge 227, Type (0, 0), BuildingBlock: KIFKEQ_clean_linker_1, # of connection points: 2
#     Edge 228, Type (0, 0), BuildingBlock: KIFKEQ_clean_linker_1, # of connection points: 2
#     Edge 229, Type (0, 0), BuildingBlock: KIFKEQ_clean_linker_1, # of connection points: 2
#     Edge 230, Type (0, 0), BuildingBlock: KIFKEQ_clean_linker_1, # of connection points: 2
#     Edge 231, Type (0, 0), BuildingBlock: KIFKEQ_clean_linker_1, # of connection points: 2
#     Edge 232, Type (0, 0), BuildingBlock: KIFKEQ_clean_linker_1, # of connection points: 2
#     Edge 233, Type (0, 0), BuildingBlock: KIFKEQ_clean_linker_1, # of connection points: 2
#     Edge 234, Type (0, 0), BuildingBlock: KIFKEQ_clean_linker_1, # of connection points: 2
#     Edge 235, Type (0, 0), BuildingBlock: KIFKEQ_clean_linker_1, # of connection points: 2
#     Edge 236, Type (0, 0), BuildingBlock: KIFKEQ_clean_linker_1, # of connection points: 2
#     Edge 237, Type (0, 0), BuildingBlock: KIFKEQ_clean_linker_1, # of connection points: 2
#     Edge 238, Type (0, 0), BuildingBlock: KIFKEQ_clean_linker_1, # of connection points: 2
#     Edge 239, Type (0, 0), BuildingBlock: KIFKEQ_clean_linker_1, # of connection points: 2
#     Edge 240, Type (0, 0), BuildingBlock: KIFKEQ_clean_linker_1, # of connection points: 2
#     Edge 241, Type (0, 0), BuildingBlock: KIFKEQ_clean_linker_1, # of connection points: 2
#     Edge 242, Type (0, 0), BuildingBlock: KIFKEQ_clean_linker_1, # of connection points: 2
#     Edge 243, Type (0, 0), BuildingBlock: KIFKEQ_clean_linker_1, # of connection points: 2
#     Edge 244, Type (0, 0), BuildingBlock: KIFKEQ_clean_linker_1, # of connection points: 2
#     Edge 245, Type (0, 0), BuildingBlock: KIFKEQ_clean_linker_1, # of connection points: 2
#     Edge 246, Type (0, 0), BuildingBlock: KIFKEQ_clean_linker_1, # of connection points: 2
#     Edge 247, Type (0, 0), BuildingBlock: KIFKEQ_clean_linker_1, # of connection points: 2
#     Edge 248, Type (0, 0), BuildingBlock: KIFKEQ_clean_linker_1, # of connection points: 2
#     Edge 249, Type (0, 0), BuildingBlock: KIFKEQ_clean_linker_1, # of connection points: 2
#     Edge 250, Type (0, 0), BuildingBlock: KIFKEQ_clean_linker_1, # of connection points: 2
#     Edge 251, Type (0, 0), BuildingBlock: KIFKEQ_clean_linker_1, # of connection points: 2
#     Edge 252, Type (0, 0), BuildingBlock: KIFKEQ_clean_linker_1, # of connection points: 2
#     Edge 253, Type (0, 0), BuildingBlock: KIFKEQ_clean_linker_1, # of connection points: 2
#     Edge 254, Type (0, 0), BuildingBlock: KIFKEQ_clean_linker_1, # of connection points: 2
#     Edge 255, Type (0, 0), BuildingBlock: KIFKEQ_clean_linker_1, # of connection points: 2
#     Edge 256, Type (0, 0), BuildingBlock: KIFKEQ_clean_linker_1, # of connection points: 2
#     Edge 257, Type (0, 0), BuildingBlock: KIFKEQ_clean_linker_1, # of connection points: 2
#     Edge 258, Type (0, 0), BuildingBlock: KIFKEQ_clean_linker_1, # of connection points: 2
#     Edge 259, Type (0, 0), BuildingBlock: KIFKEQ_clean_linker_1, # of connection points: 2
#     Edge 260, Type (0, 0), BuildingBlock: KIFKEQ_clean_linker_1, # of connection points: 2
#     Edge 261, Type (0, 0), BuildingBlock: KIFKEQ_clean_linker_1, # of connection points: 2
#     Edge 262, Type (0, 0), BuildingBlock: KIFKEQ_clean_linker_1, # of connection points: 2
#     Edge 263, Type (0, 0), BuildingBlock: KIFKEQ_clean_linker_1, # of connection points: 2
#     Edge 264, Type (0, 0), BuildingBlock: KIFKEQ_clean_linker_1, # of connection points: 2
#     Edge 265, Type (0, 0), BuildingBlock: KIFKEQ_clean_linker_1, # of connection points: 2
#     Edge 266, Type (0, 0), BuildingBlock: KIFKEQ_clean_linker_1, # of connection points: 2
#     Edge 267, Type (0, 0), BuildingBlock: KIFKEQ_clean_linker_1, # of connection points: 2
#     Edge 268, Type (0, 0), BuildingBlock: KIFKEQ_clean_linker_1, # of connection points: 2
#     Edge 269, Type (0, 0), BuildingBlock: KIFKEQ_clean_linker_1, # of connection points: 2
#     Edge 270, Type (0, 0), BuildingBlock: KIFKEQ_clean_linker_1, # of connection points: 2
#     Edge 271, Type (0, 0), BuildingBlock: KIFKEQ_clean_linker_1, # of connection points: 2
#     Edge 272, Type (0, 0), BuildingBlock: KIFKEQ_clean_linker_1, # of connection points: 2
#     Edge 273, Type (0, 0), BuildingBlock: KIFKEQ_clean_linker_1, # of connection points: 2
#     Edge 274, Type (0, 0), BuildingBlock: KIFKEQ_clean_linker_1, # of connection points: 2
#     Edge 275, Type (0, 0), BuildingBlock: KIFKEQ_clean_linker_1, # of connection points: 2
#     Edge 276, Type (0, 0), BuildingBlock: KIFKEQ_clean_linker_1, # of connection points: 2
#     Edge 277, Type (0, 0), BuildingBlock: KIFKEQ_clean_linker_1, # of connection points: 2
#     Edge 278, Type (0, 0), BuildingBlock: KIFKEQ_clean_linker_1, # of connection points: 2
#     Edge 279, Type (0, 0), BuildingBlock: KIFKEQ_clean_linker_1, # of connection points: 2
#     Edge 280, Type (0, 0), BuildingBlock: KIFKEQ_clean_linker_1, # of connection points: 2
#     Edge 281, Type (0, 0), BuildingBlock: KIFKEQ_clean_linker_1, # of connection points: 2
#     Edge 282, Type (0, 0), BuildingBlock: KIFKEQ_clean_linker_1, # of connection points: 2
#     Edge 283, Type (0, 0), BuildingBlock: KIFKEQ_clean_linker_1, # of connection points: 2
#     Edge 284, Type (0, 0), BuildingBlock: KIFKEQ_clean_linker_1, # of connection points: 2
#     Edge 285, Type (0, 0), BuildingBlock: KIFKEQ_clean_linker_1, # of connection points: 2
#     Edge 286, Type (0, 0), BuildingBlock: KIFKEQ_clean_linker_1, # of connection points: 2
#     Edge 287, Type (0, 0), BuildingBlock: KIFKEQ_clean_linker_1, # of connection points: 2
# Relax obj value: 0.113
# Max RMSD: 0.164
# Mean RMSD: 0.164
data_MOF--net-ulh--node1-GALJAG_clean_sbu_0--edge1-KIFKEQ_clean_linker_1
_symmetry_space_group_name_H-M    P1
_symmetry_Int_Tables_number       1
_symmetry_cell_setting            triclinic
loop_
_symmetry_equiv_pos_as_xyz
'x, y, z'
_cell_length_a     81.866637
_cell_length_b     81.860408
_cell_length_c     81.871792
_cell_angle_alpha  89.998322
_cell_angle_beta   90.017321
_cell_angle_gamma 89.986197
loop_
_atom_site_label
_atom_site_type_symbol
_atom_site_fract_x
_atom_site_fract_y
_atom_site_fract_z
_atom_type_partial_charge
In0 In 0.05239 0.30715 0.07808 0.0
O1 O 0.05425 0.27962 0.08354 0.0
O2 O 0.03689 0.29396 0.09663 0.0
C3 C 0.08144 0.31536 0.0648 0.0
C4 C 0.03177 0.30566 0.05244 0.0
C5 C 0.05216 0.32944 0.10228 0.0
O6 O 0.08034 0.30494 0.07612 0.0
O7 O 0.06801 0.32104 0.05996 0.0
O8 O 0.0429 0.33067 0.08996 0.0
O9 O 0.06143 0.31714 0.10224 0.0
C10 C 0.04324 0.28012 0.09437 0.0
O11 O 0.03128 0.31717 0.06275 0.0
O12 O 0.04236 0.29482 0.05534 0.0
In13 In 0.93991 0.30216 0.3282 0.0
O14 O 0.96675 0.3026 0.33696 0.0
O15 O 0.95054 0.28424 0.3459 0.0
C16 C 0.93277 0.33137 0.3148 0.0
C17 C 0.94222 0.28249 0.30198 0.0
C18 C 0.91691 0.30315 0.35165 0.0
O19 O 0.94344 0.32999 0.32589 0.0
O20 O 0.92646 0.31812 0.31023 0.0
O21 O 0.91545 0.2941 0.33919 0.0
O22 O 0.92975 0.31164 0.35206 0.0
C23 C 0.96465 0.29039 0.34626 0.0
O24 O 0.93024 0.28189 0.31174 0.0
O25 O 0.95314 0.29276 0.30569 0.0
In26 In 0.94429 0.192 0.57901 0.0
O27 O 0.94156 0.21759 0.59083 0.0
O28 O 0.96529 0.20832 0.58578 0.0
C29 C 0.91247 0.18739 0.57086 0.0
C30 C 0.96162 0.19037 0.55122 0.0
C31 C 0.94955 0.16773 0.60081 0.0
O32 O 0.91705 0.1896 0.58539 0.0
O33 O 0.92368 0.18876 0.56048 0.0
O34 O 0.94886 0.16523 0.58562 0.0
O35 O 0.94809 0.18248 0.60493 0.0
C36 C 0.95683 0.21986 0.59138 0.0
O37 O 0.96264 0.17952 0.56221 0.0
O38 O 0.95178 0.20188 0.55427 0.0
In39 In 0.05616 0.20166 0.83389 0.0
O40 O 0.02882 0.19725 0.83882 0.0
O41 O 0.04129 0.21589 0.85211 0.0
C42 C 0.0685 0.17458 0.81977 0.0
C43 C 0.0541 0.22244 0.80845 0.0
C44 C 0.07644 0.2023 0.85967 0.0
O45 O 0.05531 0.17417 0.82781 0.0
O46 O 0.07495 0.18849 0.81871 0.0
O47 O 0.07728 0.21275 0.8483 0.0
O48 O 0.06545 0.19161 0.85795 0.0
C49 C 0.02813 0.20831 0.84961 0.0
O50 O 0.06489 0.22386 0.8194 0.0
O51 O 0.04417 0.21085 0.81062 0.0
In52 In 0.04567 0.69344 0.91803 0.0
O53 O 0.02355 0.68771 0.934 0.0
O54 O 0.04362 0.7004 0.94478 0.0
C55 C 0.04042 0.67556 0.8908 0.0
C56 C 0.03931 0.72379 0.90696 0.0
C57 C 0.07282 0.67819 0.92859 0.0
O58 O 0.03256 0.67312 0.90387 0.0
O59 O 0.0504 0.68726 0.8914 0.0
O60 O 0.07293 0.69326 0.92505 0.0
O61 O 0.05923 0.67121 0.92673 0.0
C62 C 0.02962 0.69419 0.94667 0.0
O63 O 0.05367 0.71803 0.90703 0.0
O64 O 0.02853 0.71442 0.9127 0.0
In65 In 0.55511 0.29965 0.16658 0.0
O66 O 0.53011 0.3067 0.1559 0.0
O67 O 0.53512 0.28161 0.1607 0.0
C68 C 0.56845 0.32708 0.17897 0.0
C69 C 0.55559 0.28183 0.19408 0.0
C70 C 0.57319 0.29582 0.13924 0.0
O71 O 0.55365 0.32668 0.17449 0.0
O72 O 0.5761 0.31388 0.17713 0.0
O73 O 0.5751 0.28697 0.15173 0.0
O74 O 0.56191 0.30623 0.1404 0.0
C75 C 0.5251 0.29209 0.1555 0.0
O76 O 0.56443 0.27843 0.18186 0.0
O77 O 0.5464 0.29412 0.19232 0.0
In78 In 0.95543 0.80874 0.41728 0.0
O79 O 0.97819 0.8142 0.43229 0.0
O80 O 0.95843 0.80175 0.44392 0.0
C81 C 0.96033 0.82756 0.39061 0.0
C82 C 0.9613 0.77849 0.40574 0.0
C83 C 0.92812 0.82311 0.4286 0.0
O84 O 0.96791 0.8299 0.40385 0.0
O85 O 0.95086 0.81545 0.3907 0.0
O86 O 0.92815 0.80828 0.42417 0.0
O87 O 0.94167 0.83027 0.42732 0.0
C88 C 0.97257 0.80784 0.44522 0.0
O89 O 0.9471 0.78457 0.40567 0.0
O90 O 0.9722 0.78749 0.41184 0.0
In91 In 0.43798 0.19785 0.67502 0.0
O92 O 0.42775 0.21663 0.69263 0.0
O93 O 0.4499 0.20443 0.69919 0.0
C94 C 0.41694 0.19989 0.64971 0.0
C95 C 0.46511 0.21041 0.66147 0.0
C96 C 0.42886 0.1688 0.68745 0.0
O97 O 0.41603 0.20926 0.66194 0.0
O98 O 0.42842 0.18966 0.65029 0.0
O99 O 0.44101 0.17002 0.67796 0.0
O100 O 0.42185 0.18207 0.69077 0.0
C101 C 0.43912 0.21487 0.70297 0.0
O102 O 0.46404 0.19527 0.66445 0.0
O103 O 0.45273 0.21871 0.66529 0.0
In104 In 0.0788 0.05051 0.30813 0.0
O105 O 0.08631 0.05352 0.28112 0.0
O106 O 0.09695 0.03446 0.29539 0.0
C107 C 0.06705 0.07981 0.31724 0.0
C108 C 0.05227 0.03139 0.30454 0.0
C109 C 0.10129 0.04928 0.33212 0.0
O110 O 0.07801 0.07851 0.30644 0.0
O111 O 0.0618 0.06646 0.32278 0.0
O112 O 0.0878 0.04179 0.33322 0.0
O113 O 0.10331 0.05713 0.31904 0.0
C114 C 0.0963 0.04174 0.28186 0.0
O115 O 0.06395 0.02758 0.31393 0.0
O116 O 0.05423 0.04456 0.29674 0.0
In117 In 0.19761 0.33188 0.55615 0.0
O118 O 0.22075 0.31777 0.5632 0.0
O119 O 0.20479 0.30734 0.5455 0.0
C120 C 0.1994 0.35636 0.57797 0.0
C121 C 0.20314 0.34748 0.52764 0.0
C122 C 0.17025 0.31861 0.56873 0.0
O123 O 0.21064 0.3458 0.57659 0.0
O124 O 0.18746 0.35445 0.5684 0.0
O125 O 0.16977 0.32845 0.55681 0.0
O126 O 0.18439 0.31527 0.5738 0.0
C127 C 0.21766 0.30585 0.55386 0.0
O128 O 0.19314 0.33575 0.52856 0.0
O129 O 0.21012 0.35108 0.54084 0.0
In130 In 0.92289 0.45106 0.81083 0.0
O131 O 0.91422 0.44853 0.78411 0.0
O132 O 0.91104 0.47118 0.79654 0.0
C133 C 0.93422 0.4217 0.82042 0.0
C134 C 0.95099 0.46798 0.80987 0.0
C135 C 0.89765 0.453 0.83188 0.0
O136 O 0.92444 0.4231 0.80852 0.0
O137 O 0.93855 0.43498 0.82685 0.0
O138 O 0.90983 0.46245 0.83279 0.0
O139 O 0.89825 0.44279 0.82038 0.0
C140 C 0.90911 0.46313 0.78356 0.0
O141 O 0.94048 0.46997 0.82102 0.0
O142 O 0.94728 0.45745 0.79917 0.0
In143 In 0.79644 0.16871 0.06018 0.0
O144 O 0.77307 0.18296 0.0653 0.0
O145 O 0.79307 0.19559 0.05434 0.0
C146 C 0.79137 0.14141 0.07808 0.0
C147 C 0.79149 0.15816 0.0294 0.0
C148 C 0.8236 0.18001 0.07489 0.0
O149 O 0.78393 0.15463 0.08092 0.0
O150 O 0.80084 0.14188 0.06598 0.0
O151 O 0.8235 0.17632 0.05987 0.0
O152 O 0.81018 0.178 0.08213 0.0
C153 C 0.77862 0.19628 0.05974 0.0
O154 O 0.80549 0.15784 0.03593 0.0
O155 O 0.78033 0.16398 0.03825 0.0
In156 In 0.08282 0.94866 0.69075 0.0
O157 O 0.06727 0.97009 0.68219 0.0
O158 O 0.0575 0.95426 0.70049 0.0
C159 C 0.10679 0.95055 0.6681 0.0
C160 C 0.09545 0.96069 0.7186 0.0
C161 C 0.07098 0.91879 0.68345 0.0
O162 O 0.09265 0.95622 0.66568 0.0
O163 O 0.10886 0.94421 0.68196 0.0
O164 O 0.08274 0.9206 0.6933 0.0
O165 O 0.06524 0.93186 0.67776 0.0
C166 C 0.05543 0.96668 0.69153 0.0
O167 O 0.09144 0.9458 0.71746 0.0
O168 O 0.09321 0.96902 0.70586 0.0
In169 In 0.30326 0.32947 0.94644 0.0
O170 O 0.29148 0.34998 0.96055 0.0
O171 O 0.30677 0.33386 0.97404 0.0
C172 C 0.33051 0.31441 0.93576 0.0
C173 C 0.28154 0.30472 0.94811 0.0
C174 C 0.30313 0.35407 0.92469 0.0
O175 O 0.33066 0.32349 0.94826 0.0
O176 O 0.3167 0.31271 0.9292 0.0
O177 O 0.31523 0.35091 0.93373 0.0
O178 O 0.29095 0.34472 0.92657 0.0
C179 C 0.29761 0.34629 0.97415 0.0
O180 O 0.28138 0.31506 0.93665 0.0
O181 O 0.29231 0.30717 0.95885 0.0
In182 In 0.9211 0.5489 0.19177 0.0
O183 O 0.93703 0.52854 0.1818 0.0
O184 O 0.94588 0.54225 0.2022 0.0
C185 C 0.89415 0.54633 0.17291 0.0
C186 C 0.90941 0.5383 0.22051 0.0
C187 C 0.93392 0.57718 0.18087 0.0
O188 O 0.90695 0.53819 0.17012 0.0
O189 O 0.89499 0.55563 0.18513 0.0
O190 O 0.92543 0.57666 0.19377 0.0
O191 O 0.93593 0.56365 0.17387 0.0
C192 C 0.94837 0.53084 0.19206 0.0
O193 O 0.9119 0.55336 0.21799 0.0
O194 O 0.91291 0.52902 0.20873 0.0
In195 In 0.7029 0.172 0.44174 0.0
O196 O 0.69841 0.16169 0.46757 0.0
O197 O 0.72266 0.16223 0.45821 0.0
C198 C 0.67385 0.18323 0.43129 0.0
C199 C 0.71893 0.20056 0.44389 0.0
C200 C 0.70584 0.14737 0.41988 0.0
O201 O 0.67492 0.17369 0.44341 0.0
O202 O 0.68727 0.18723 0.42492 0.0
O203 O 0.71434 0.16022 0.41896 0.0
O204 O 0.69627 0.14691 0.43192 0.0
C205 C 0.71336 0.15852 0.46989 0.0
O206 O 0.72366 0.18907 0.43468 0.0
O207 O 0.70619 0.19756 0.4521 0.0
In208 In 0.31193 0.07455 0.04697 0.0
O209 O 0.28579 0.08482 0.04927 0.0
O210 O 0.29823 0.08622 0.02642 0.0
C211 C 0.32214 0.0628 0.07586 0.0
C212 C 0.31005 0.0462 0.03058 0.0
C213 C 0.33275 0.09992 0.04549 0.0
O214 O 0.30877 0.07054 0.07463 0.0
O215 O 0.32976 0.06086 0.06262 0.0
O216 O 0.33388 0.08782 0.03594 0.0
O217 O 0.32112 0.09918 0.05556 0.0
C218 C 0.28547 0.08933 0.03446 0.0
O219 O 0.32132 0.05648 0.02808 0.0
O220 O 0.29968 0.05031 0.04127 0.0
In221 In 0.80961 0.92069 0.44598 0.0
O222 O 0.82058 0.93625 0.46631 0.0
O223 O 0.79682 0.94242 0.45769 0.0
C224 C 0.83322 0.89784 0.44599 0.0
C225 C 0.78355 0.90252 0.45458 0.0
C226 C 0.81713 0.93448 0.417 0.0
O227 O 0.83189 0.90823 0.45737 0.0
O228 O 0.82278 0.89917 0.43473 0.0
O229 O 0.80688 0.923 0.41815 0.0
O230 O 0.82275 0.93943 0.43042 0.0
C231 C 0.80846 0.94577 0.46725 0.0
O232 O 0.78201 0.91463 0.44511 0.0
O233 O 0.79785 0.89996 0.4596 0.0
In234 In 0.32541 0.05636 0.69756 0.0
O235 O 0.31028 0.0626 0.71994 0.0
O236 O 0.29938 0.04753 0.70161 0.0
C237 C 0.35084 0.07709 0.702 0.0
C238 C 0.33795 0.027 0.70593 0.0
C239 C 0.31299 0.06767 0.66916 0.0
O240 O 0.33711 0.07931 0.70863 0.0
O241 O 0.35177 0.06437 0.69342 0.0
O242 O 0.32156 0.05482 0.66964 0.0
O243 O 0.31077 0.07447 0.68275 0.0
C244 C 0.29782 0.05476 0.71519 0.0
O245 O 0.33735 0.03163 0.6912 0.0
O246 O 0.33201 0.03692 0.71607 0.0
In247 In 0.19138 0.58152 0.95098 0.0
O248 O 0.1815 0.56345 0.96965 0.0
O249 O 0.20447 0.55822 0.9585 0.0
C250 C 0.16818 0.60488 0.95144 0.0
C251 C 0.21689 0.5983 0.96308 0.0
C252 C 0.1836 0.56996 0.92121 0.0
O253 O 0.16795 0.59295 0.96128 0.0
O254 O 0.18007 0.60495 0.94166 0.0
O255 O 0.19438 0.58087 0.92308 0.0
O256 O 0.17755 0.56453 0.93426 0.0
C257 C 0.19344 0.55372 0.96834 0.0
O258 O 0.21801 0.5906 0.9497 0.0
O259 O 0.20325 0.59712 0.97012 0.0
In260 In 0.17466 0.94087 0.20031 0.0
O261 O 0.16534 0.96733 0.19851 0.0
O262 O 0.16435 0.95494 0.22142 0.0
C263 C 0.18566 0.93277 0.1704 0.0
C264 C 0.20308 0.94202 0.21663 0.0
C265 C 0.14939 0.91983 0.20269 0.0
O266 O 0.17549 0.94423 0.17238 0.0
O267 O 0.1903 0.92589 0.18333 0.0
O268 O 0.16284 0.91733 0.20987 0.0
O269 O 0.14879 0.93283 0.19449 0.0
C270 C 0.16145 0.96783 0.21348 0.0
O271 O 0.19275 0.93071 0.21881 0.0
O272 O 0.19895 0.95279 0.20634 0.0
In273 In 0.69233 0.91978 0.05002 0.0
O274 O 0.71886 0.91038 0.05313 0.0
O275 O 0.70719 0.90873 0.02994 0.0
C276 C 0.68143 0.93228 0.07841 0.0
C277 C 0.69396 0.94764 0.0329 0.0
C278 C 0.67119 0.89467 0.04805 0.0
O279 O 0.69387 0.92306 0.07794 0.0
O280 O 0.67499 0.93525 0.06475 0.0
O281 O 0.67042 0.90686 0.0386 0.0
O282 O 0.68265 0.89516 0.05833 0.0
C283 C 0.71986 0.90615 0.03827 0.0
O284 O 0.68408 0.93629 0.02934 0.0
O285 O 0.70303 0.94489 0.04512 0.0
In286 In 0.33197 0.44087 0.80296 0.0
O287 O 0.31739 0.43152 0.78103 0.0
O288 O 0.30857 0.45253 0.79354 0.0
C289 C 0.35691 0.41947 0.80214 0.0
C290 C 0.3474 0.46886 0.7953 0.0
C291 C 0.31866 0.4303 0.83122 0.0
O292 O 0.34484 0.41841 0.79254 0.0
O293 O 0.35638 0.43132 0.81199 0.0
O294 O 0.328 0.44258 0.83079 0.0
O295 O 0.3158 0.42395 0.81752 0.0
C296 C 0.30641 0.44232 0.7822 0.0
O297 O 0.3364 0.46844 0.80614 0.0
O298 O 0.35034 0.45539 0.78844 0.0
In299 In 0.67324 0.05868 0.29784 0.0
O300 O 0.69011 0.06737 0.27751 0.0
O301 O 0.69874 0.04871 0.29361 0.0
C302 C 0.64588 0.07656 0.29374 0.0
C303 C 0.66077 0.02918 0.2903 0.0
C304 C 0.68508 0.0734 0.32478 0.0
O305 O 0.65747 0.07694 0.28352 0.0
O306 O 0.64808 0.06704 0.30563 0.0
O307 O 0.6811 0.05842 0.3249 0.0
O308 O 0.68312 0.0805 0.31126 0.0
C309 C 0.70166 0.05786 0.2815 0.0
O310 O 0.6614 0.03417 0.30492 0.0
O311 O 0.66667 0.03883 0.27986 0.0
In312 In 0.05086 0.80896 0.58007 0.0
O313 O 0.05533 0.78285 0.5897 0.0
O314 O 0.03098 0.79202 0.5882 0.0
C315 C 0.07877 0.82133 0.56805 0.0
C316 C 0.03401 0.80863 0.55193 0.0
C317 C 0.04876 0.82792 0.60688 0.0
O318 O 0.07815 0.80682 0.57346 0.0
O319 O 0.06552 0.82914 0.56881 0.0
O320 O 0.04017 0.83044 0.59428 0.0
O321 O 0.05808 0.81568 0.60602 0.0
C322 C 0.04023 0.78028 0.59194 0.0
O323 O 0.02958 0.8171 0.56409 0.0
O324 O 0.04685 0.80031 0.55406 0.0
In325 In 0.94164 0.79839 0.82844 0.0
O326 O 0.96614 0.80688 0.83946 0.0
O327 O 0.96277 0.78163 0.83423 0.0
C328 C 0.92566 0.8246 0.81669 0.0
C329 C 0.94243 0.78151 0.80033 0.0
C330 C 0.92405 0.79419 0.85601 0.0
O331 O 0.94072 0.82529 0.82028 0.0
O332 O 0.91907 0.81087 0.81896 0.0
O333 O 0.92323 0.78425 0.8442 0.0
O334 O 0.93396 0.80579 0.85396 0.0
C335 C 0.97201 0.79258 0.83982 0.0
O336 O 0.93544 0.77607 0.81302 0.0
O337 O 0.94906 0.79537 0.80192 0.0
In338 In 0.95175 0.69305 0.08168 0.0
O339 O 0.94812 0.72051 0.08665 0.0
O340 O 0.96698 0.70773 0.09927 0.0
C341 C 0.92252 0.68244 0.07094 0.0
C342 C 0.97047 0.69547 0.05472 0.0
C343 C 0.95434 0.67041 0.10536 0.0
O344 O 0.92369 0.69365 0.08149 0.0
O345 O 0.93593 0.67719 0.06557 0.0
O346 O 0.96199 0.66912 0.09198 0.0
O347 O 0.94568 0.68307 0.10671 0.0
C348 C 0.95954 0.72101 0.09704 0.0
O349 O 0.9745 0.68661 0.06673 0.0
O350 O 0.95733 0.70333 0.05658 0.0
In351 In 0.05836 0.70025 0.32713 0.0
O352 O 0.03283 0.69431 0.33716 0.0
O353 O 0.03988 0.71927 0.33474 0.0
C354 C 0.06981 0.6714 0.31595 0.0
C355 C 0.05702 0.71708 0.29903 0.0
C356 C 0.07859 0.70491 0.35291 0.0
O357 O 0.0576 0.67212 0.32536 0.0
O358 O 0.07576 0.68501 0.31208 0.0
O359 O 0.0809 0.71171 0.33928 0.0
O360 O 0.06597 0.69617 0.35361 0.0
C361 C 0.02904 0.70918 0.33899 0.0
O362 O 0.06685 0.72068 0.31041 0.0
O363 O 0.04769 0.70509 0.30195 0.0
In364 In 0.05162 0.19007 0.42396 0.0
O365 O 0.03235 0.17832 0.44009 0.0
O366 O 0.04141 0.20183 0.4469 0.0
C367 C 0.05282 0.16817 0.39947 0.0
C368 C 0.03737 0.21517 0.40826 0.0
C369 C 0.08103 0.18441 0.43775 0.0
O370 O 0.04449 0.16577 0.41225 0.0
O371 O 0.06066 0.18142 0.39924 0.0
O372 O 0.07932 0.19479 0.42642 0.0
O373 O 0.06804 0.17755 0.44221 0.0
C374 C 0.03192 0.19007 0.45014 0.0
O375 O 0.05109 0.21695 0.41525 0.0
O376 O 0.03129 0.20108 0.40944 0.0
In377 In 0.55763 0.80192 0.6701 0.0
O378 O 0.56957 0.78326 0.68676 0.0
O379 O 0.54657 0.79327 0.69401 0.0
C380 C 0.57973 0.80112 0.64564 0.0
C381 C 0.53126 0.7879 0.6564 0.0
C382 C 0.56374 0.83219 0.68175 0.0
O383 O 0.5821 0.79402 0.65913 0.0
O384 O 0.56627 0.80848 0.64453 0.0
O385 O 0.55411 0.82986 0.66991 0.0
O386 O 0.56951 0.81937 0.68793 0.0
C387 C 0.55823 0.78365 0.69727 0.0
O388 O 0.53067 0.8024 0.66178 0.0
O389 O 0.54488 0.78091 0.65807 0.0
In390 In 0.9443 0.30668 0.92317 0.0
O391 O 0.96533 0.31687 0.93846 0.0
O392 O 0.95486 0.29416 0.94562 0.0
C393 C 0.94535 0.32956 0.89952 0.0
C394 C 0.95306 0.27954 0.90677 0.0
C395 C 0.91513 0.31452 0.93657 0.0
O396 O 0.95431 0.33034 0.91208 0.0
O397 O 0.93589 0.31741 0.89905 0.0
O398 O 0.91624 0.30492 0.92456 0.0
O399 O 0.92858 0.31959 0.94197 0.0
C400 C 0.96521 0.30521 0.9486 0.0
O401 O 0.94234 0.27911 0.91788 0.0
O402 O 0.95931 0.29337 0.90427 0.0
In403 In 0.44749 0.69558 0.17091 0.0
O404 O 0.44084 0.71879 0.18492 0.0
O405 O 0.45807 0.70249 0.1956 0.0
C406 C 0.42321 0.69753 0.14887 0.0
C407 C 0.47438 0.70285 0.15333 0.0
C408 C 0.43782 0.66646 0.18279 0.0
O409 O 0.42451 0.70769 0.16046 0.0
O410 O 0.43405 0.68658 0.14857 0.0
O411 O 0.44863 0.66759 0.17182 0.0
O412 O 0.43259 0.67991 0.18812 0.0
C413 C 0.44998 0.71556 0.19693 0.0
O414 O 0.47527 0.69376 0.16576 0.0
O415 O 0.46034 0.70818 0.15016 0.0
In416 In 0.0789 0.55673 0.80829 0.0
O417 O 0.06392 0.53615 0.81951 0.0
O418 O 0.05736 0.54449 0.79573 0.0
C419 C 0.10221 0.5585 0.83141 0.0
C420 C 0.09718 0.54554 0.78335 0.0
C421 C 0.06384 0.58556 0.81414 0.0
O422 O 0.09022 0.54882 0.83257 0.0
O423 O 0.10215 0.56744 0.81885 0.0
O424 O 0.07572 0.58448 0.80434 0.0
O425 O 0.0594 0.57222 0.82031 0.0
C426 C 0.05433 0.53492 0.80746 0.0
O427 O 0.0863 0.5563 0.78098 0.0
O428 O 0.09839 0.54059 0.79786 0.0
In429 In 0.19942 0.83302 0.0545 0.0
O430 O 0.19597 0.83669 0.02677 0.0
O431 O 0.21336 0.85133 0.03939 0.0
C432 C 0.17084 0.82068 0.06525 0.0
C433 C 0.21976 0.80717 0.05342 0.0
C434 C 0.20098 0.85725 0.07662 0.0
O435 O 0.17139 0.83129 0.05404 0.0
O436 O 0.18455 0.81612 0.0705 0.0
O437 O 0.20987 0.84465 0.07764 0.0
O438 O 0.19144 0.85754 0.06453 0.0
C439 C 0.20648 0.84798 0.02605 0.0
O440 O 0.22286 0.81971 0.0619 0.0
O441 O 0.20674 0.80797 0.04519 0.0
In442 In 0.92149 0.94687 0.30449 0.0
O443 O 0.916 0.94371 0.277 0.0
O444 O 0.9032 0.96192 0.29046 0.0
C445 C 0.93489 0.91851 0.3146 0.0
C446 C 0.94755 0.9668 0.30199 0.0
C447 C 0.89738 0.94808 0.32679 0.0
O448 O 0.92428 0.91888 0.30336 0.0
O449 O 0.93867 0.93225 0.32038 0.0
O450 O 0.90999 0.95696 0.32791 0.0
O451 O 0.89715 0.93859 0.31464 0.0
C452 C 0.90534 0.95491 0.27695 0.0
O453 O 0.93568 0.96997 0.31137 0.0
O454 O 0.94598 0.95393 0.29366 0.0
In455 In 0.79744 0.66906 0.5596 0.0
O456 O 0.80214 0.65845 0.53393 0.0
O457 O 0.7777 0.66359 0.54142 0.0
C458 C 0.82543 0.68033 0.57265 0.0
C459 C 0.78117 0.69749 0.56002 0.0
C460 C 0.7937 0.64153 0.57727 0.0
O461 O 0.82481 0.67569 0.55788 0.0
O462 O 0.81217 0.67917 0.58035 0.0
O463 O 0.78534 0.65424 0.57994 0.0
O464 O 0.80361 0.64266 0.56554 0.0
C465 C 0.78707 0.65831 0.5304 0.0
O466 O 0.77748 0.68572 0.56936 0.0
O467 O 0.793 0.69482 0.55045 0.0
In468 In 0.08113 0.44948 0.19067 0.0
O469 O 0.09085 0.44722 0.21712 0.0
O470 O 0.09156 0.47027 0.20504 0.0
C471 C 0.06895 0.42031 0.1816 0.0
C472 C 0.05314 0.46638 0.19125 0.0
C473 C 0.10626 0.45138 0.16947 0.0
O474 O 0.079 0.42154 0.19329 0.0
O475 O 0.06488 0.43363 0.1751 0.0
O476 O 0.09431 0.46113 0.16893 0.0
O477 O 0.10552 0.44088 0.18069 0.0
C478 C 0.09456 0.46223 0.21781 0.0
O479 O 0.06344 0.46779 0.17981 0.0
O480 O 0.05699 0.45639 0.20242 0.0
In481 In 0.30608 0.82898 0.44209 0.0
O482 O 0.30969 0.83344 0.46986 0.0
O483 O 0.29521 0.85001 0.45608 0.0
C484 C 0.33293 0.81399 0.43027 0.0
C485 C 0.28434 0.8044 0.44487 0.0
C486 C 0.30555 0.85276 0.41947 0.0
O487 O 0.33369 0.82372 0.44227 0.0
O488 O 0.31876 0.81164 0.42475 0.0
O489 O 0.29383 0.84279 0.4211 0.0
O490 O 0.3174 0.85054 0.4291 0.0
C491 C 0.30106 0.84625 0.46976 0.0
O492 O 0.28195 0.81644 0.43548 0.0
O493 O 0.29741 0.80505 0.45302 0.0
In494 In 0.92169 0.04658 0.69088 0.0
O495 O 0.93742 0.02501 0.68337 0.0
O496 O 0.94798 0.04309 0.699 0.0
C497 C 0.89477 0.04302 0.67216 0.0
C498 C 0.91032 0.03778 0.72046 0.0
C499 C 0.93375 0.07387 0.6772 0.0
O500 O 0.9069 0.03354 0.671 0.0
O501 O 0.89617 0.05396 0.68289 0.0
O502 O 0.92771 0.07406 0.69145 0.0
O503 O 0.9337 0.06013 0.67026 0.0
C504 C 0.94984 0.02984 0.69124 0.0
O505 O 0.91097 0.05266 0.71631 0.0
O506 O 0.91551 0.02787 0.70992 0.0
In507 In 0.69864 0.67112 0.94019 0.0
O508 O 0.71678 0.68921 0.92936 0.0
O509 O 0.70791 0.69371 0.95344 0.0
C510 C 0.69865 0.64862 0.9161 0.0
C511 C 0.71165 0.65422 0.96519 0.0
C512 C 0.66852 0.6834 0.93518 0.0
O513 O 0.7084 0.6606 0.91614 0.0
O514 O 0.68902 0.64812 0.9281 0.0
O515 O 0.67088 0.67122 0.94437 0.0
O516 O 0.68128 0.68954 0.92919 0.0
C517 C 0.71688 0.69841 0.94178 0.0
O518 O 0.6983 0.66185 0.96678 0.0
O519 O 0.71809 0.65528 0.95125 0.0
In520 In 0.30694 0.57501 0.54741 0.0
O521 O 0.28101 0.58563 0.55012 0.0
O522 O 0.29256 0.58589 0.52677 0.0
C523 C 0.31707 0.56337 0.57644 0.0
C524 C 0.3054 0.5466 0.531 0.0
C525 C 0.32785 0.60038 0.54553 0.0
O526 O 0.30363 0.57096 0.57513 0.0
O527 O 0.32481 0.56161 0.56328 0.0
O528 O 0.3298 0.58747 0.53728 0.0
O529 O 0.31532 0.60052 0.55447 0.0
C530 C 0.28018 0.5896 0.53517 0.0
O531 O 0.31625 0.55724 0.52819 0.0
O532 O 0.29516 0.55044 0.54191 0.0
In533 In 0.80885 0.42153 0.95309 0.0
O534 O 0.81778 0.43789 0.97365 0.0
O535 O 0.79954 0.44727 0.95749 0.0
C536 C 0.82669 0.39413 0.95697 0.0
C537 C 0.77952 0.41021 0.96246 0.0
C538 C 0.82264 0.43304 0.92559 0.0
O539 O 0.8291 0.4068 0.96545 0.0
O540 O 0.81513 0.39522 0.94685 0.0
O541 O 0.80785 0.42845 0.92576 0.0
O542 O 0.82998 0.43173 0.93904 0.0
C543 C 0.80864 0.44974 0.96974 0.0
O544 O 0.78329 0.41111 0.94747 0.0
O545 O 0.79036 0.41511 0.97224 0.0
In546 In 0.3297 0.55712 0.19644 0.0
O547 O 0.33549 0.52958 0.19359 0.0
O548 O 0.34927 0.54394 0.21041 0.0
C549 C 0.31427 0.56783 0.16928 0.0
C550 C 0.30559 0.55532 0.21875 0.0
C551 C 0.35451 0.57859 0.19583 0.0
O552 O 0.32314 0.55516 0.16902 0.0
O553 O 0.31301 0.57445 0.18309 0.0
O554 O 0.34305 0.57954 0.20615 0.0
O555 O 0.35333 0.56694 0.18578 0.0
C556 C 0.34693 0.53017 0.20399 0.0
O557 O 0.31634 0.56639 0.21904 0.0
O558 O 0.30724 0.54497 0.20743 0.0
In559 In 0.19149 0.08188 0.45307 0.0
O560 O 0.2165 0.09227 0.44551 0.0
O561 O 0.21169 0.08818 0.47075 0.0
C562 C 0.17758 0.07033 0.42558 0.0
C563 C 0.19326 0.05375 0.4698 0.0
C564 C 0.17244 0.10847 0.4579 0.0
O565 O 0.19127 0.07751 0.42528 0.0
O566 O 0.17125 0.06899 0.43953 0.0
O567 O 0.1701 0.09519 0.46542 0.0
O568 O 0.18452 0.10838 0.4484 0.0
C569 C 0.22161 0.09312 0.46007 0.0
O570 O 0.18594 0.06621 0.47534 0.0
O571 O 0.19979 0.0556 0.45592 0.0
In572 In 0.17209 0.43872 0.70296 0.0
O573 O 0.16258 0.46516 0.70108 0.0
O574 O 0.16054 0.45229 0.72368 0.0
C575 C 0.18449 0.42846 0.67437 0.0
C576 C 0.2002 0.43993 0.7199 0.0
C577 C 0.14589 0.41889 0.70348 0.0
O578 O 0.17729 0.44214 0.67549 0.0
O579 O 0.18544 0.42052 0.68752 0.0
O580 O 0.15815 0.41656 0.71261 0.0
O581 O 0.14688 0.43121 0.69426 0.0
C582 C 0.15788 0.46531 0.71585 0.0
O583 O 0.18966 0.42884 0.72217 0.0
O584 O 0.19642 0.45045 0.70923 0.0
In585 In 0.69097 0.41663 0.55507 0.0
O586 O 0.71847 0.41228 0.5593 0.0
O587 O 0.70594 0.39783 0.54164 0.0
C588 C 0.67886 0.4315 0.58191 0.0
C589 C 0.69276 0.44141 0.53342 0.0
C590 C 0.67048 0.39099 0.55469 0.0
O591 O 0.69191 0.42322 0.58247 0.0
O592 O 0.67243 0.43239 0.56798 0.0
O593 O 0.66999 0.40209 0.54394 0.0
O594 O 0.68125 0.3929 0.56558 0.0
C595 C 0.71919 0.40096 0.5488 0.0
O596 O 0.68193 0.43045 0.53254 0.0
O597 O 0.70286 0.4396 0.54492 0.0
In598 In 0.33443 0.94249 0.29991 0.0
O599 O 0.32031 0.93347 0.27758 0.0
O600 O 0.31122 0.95427 0.29028 0.0
C601 C 0.35955 0.92135 0.29988 0.0
C602 C 0.35019 0.97048 0.29292 0.0
C603 C 0.32026 0.93098 0.32735 0.0
O604 O 0.34822 0.92066 0.28937 0.0
O605 O 0.35819 0.93273 0.31021 0.0
O606 O 0.32914 0.94363 0.32754 0.0
O607 O 0.31824 0.92478 0.31343 0.0
C608 C 0.30929 0.94424 0.27873 0.0
O609 O 0.33905 0.96999 0.30362 0.0
O610 O 0.3531 0.95709 0.2859 0.0
In611 In 0.6696 0.55731 0.79472 0.0
O612 O 0.65847 0.53293 0.80328 0.0
O613 O 0.66356 0.53621 0.77799 0.0
C614 C 0.68086 0.57311 0.82123 0.0
C615 C 0.69785 0.55624 0.77809 0.0
C616 C 0.64236 0.57539 0.79033 0.0
O617 O 0.67714 0.55808 0.82178 0.0
O618 O 0.67906 0.57974 0.80744 0.0
O619 O 0.65451 0.57646 0.78083 0.0
O620 O 0.64387 0.5649 0.80149 0.0
C621 C 0.65795 0.52705 0.789 0.0
O622 O 0.68512 0.56291 0.77233 0.0
O623 O 0.69622 0.55006 0.79215 0.0
In624 In 0.5479 0.30811 0.57803 0.0
O625 O 0.52947 0.31962 0.56071 0.0
O626 O 0.5399 0.29663 0.5541 0.0
C627 C 0.54605 0.33143 0.60136 0.0
C628 C 0.53365 0.28199 0.59195 0.0
C629 C 0.57909 0.31278 0.56818 0.0
O630 O 0.54153 0.33396 0.58683 0.0
O631 O 0.55128 0.31723 0.60405 0.0
O632 O 0.57569 0.30485 0.58095 0.0
O633 O 0.56688 0.3175 0.56016 0.0
C634 C 0.53023 0.30812 0.5504 0.0
O635 O 0.54837 0.28147 0.58721 0.0
O636 O 0.5265 0.29539 0.58945 0.0
In637 In 0.44389 0.29883 0.83423 0.0
O638 O 0.47071 0.30277 0.84205 0.0
O639 O 0.45976 0.27942 0.8454 0.0
C640 C 0.43448 0.32769 0.82144 0.0
C641 C 0.44332 0.28055 0.80702 0.0
C642 C 0.42347 0.297 0.86006 0.0
O643 O 0.44598 0.32674 0.83171 0.0
O644 O 0.42823 0.31423 0.81746 0.0
O645 O 0.42321 0.28665 0.84863 0.0
O646 O 0.43398 0.3081 0.85843 0.0
C647 C 0.47232 0.28819 0.84691 0.0
O648 O 0.43228 0.27974 0.8178 0.0
O649 O 0.45468 0.29061 0.81 0.0
In650 In 0.45067 0.19207 0.08063 0.0
O651 O 0.47344 0.18619 0.06578 0.0
O652 O 0.45412 0.19933 0.05414 0.0
C653 C 0.4548 0.17387 0.10786 0.0
C654 C 0.45595 0.22256 0.09187 0.0
C655 C 0.4245 0.17676 0.06808 0.0
O656 O 0.46472 0.17328 0.09605 0.0
O657 O 0.44327 0.1839 0.10604 0.0
O658 O 0.42389 0.19166 0.0722 0.0
O659 O 0.43814 0.16995 0.07029 0.0
C660 C 0.46815 0.19298 0.05292 0.0
O661 O 0.44182 0.21633 0.09184 0.0
O662 O 0.46703 0.21356 0.08616 0.0
In663 In 0.5629 0.19861 0.32548 0.0
O664 O 0.57241 0.21856 0.30868 0.0
O665 O 0.55012 0.20668 0.30222 0.0
C666 C 0.584 0.1988 0.35069 0.0
C667 C 0.53698 0.21077 0.34143 0.0
C668 C 0.57241 0.17039 0.31154 0.0
O669 O 0.58581 0.20789 0.33833 0.0
O670 O 0.5716 0.18965 0.35028 0.0
O671 O 0.55922 0.17125 0.31961 0.0
O672 O 0.58022 0.1836 0.31052 0.0
C673 C 0.56075 0.21729 0.29863 0.0
O674 O 0.53671 0.19639 0.33563 0.0
O675 O 0.55003 0.21857 0.3389 0.0
In676 In 0.54677 0.69243 0.41873 0.0
O677 O 0.55623 0.71666 0.40802 0.0
O678 O 0.53093 0.71442 0.41344 0.0
C679 C 0.5727 0.6765 0.4312 0.0
C680 C 0.52863 0.69243 0.44601 0.0
C681 C 0.54282 0.67505 0.39099 0.0
O682 O 0.57337 0.69159 0.4278 0.0
O683 O 0.55912 0.66982 0.42836 0.0
O684 O 0.53275 0.67421 0.40266 0.0
O685 O 0.55442 0.6849 0.39322 0.0
C686 C 0.54225 0.72321 0.40787 0.0
O687 O 0.52362 0.68616 0.43279 0.0
O688 O 0.54268 0.69881 0.44535 0.0
In689 In 0.05823 0.30019 0.6735 0.0
O690 O 0.03172 0.30112 0.66402 0.0
O691 O 0.04577 0.27942 0.66076 0.0
C692 C 0.06546 0.33017 0.68509 0.0
C693 C 0.05642 0.28308 0.7014 0.0
C694 C 0.08067 0.29891 0.64941 0.0
O695 O 0.05508 0.32821 0.67381 0.0
O696 O 0.07153 0.31718 0.69061 0.0
O697 O 0.08272 0.29163 0.66287 0.0
O698 O 0.06743 0.30667 0.64821 0.0
C699 C 0.03237 0.28669 0.65844 0.0
O700 O 0.06815 0.28145 0.69145 0.0
O701 O 0.04552 0.29317 0.6971 0.0
In702 In 0.44757 0.80805 0.91851 0.0
O703 O 0.46699 0.81968 0.93479 0.0
O704 O 0.45903 0.79561 0.94059 0.0
C705 C 0.44728 0.83207 0.89599 0.0
C706 C 0.4571 0.78208 0.90064 0.0
C707 C 0.41787 0.81426 0.93139 0.0
O708 O 0.45856 0.83084 0.90651 0.0
O709 O 0.43634 0.82127 0.89696 0.0
O710 O 0.41978 0.80449 0.91961 0.0
O711 O 0.43091 0.82006 0.93709 0.0
C712 C 0.46802 0.80758 0.94433 0.0
O713 O 0.44744 0.78044 0.91256 0.0
O714 O 0.46192 0.79645 0.8981 0.0
In715 In 0.94331 0.19862 0.17045 0.0
O716 O 0.9709 0.19692 0.16514 0.0
O717 O 0.95632 0.21292 0.15076 0.0
C718 C 0.93491 0.16929 0.18297 0.0
C719 C 0.94458 0.21874 0.19649 0.0
C720 C 0.91993 0.19954 0.14736 0.0
O721 O 0.94531 0.17067 0.17165 0.0
O722 O 0.9295 0.18263 0.18837 0.0
O723 O 0.92088 0.21029 0.15843 0.0
O724 O 0.93073 0.18857 0.14801 0.0
C725 C 0.97027 0.20709 0.15354 0.0
O726 O 0.93307 0.21924 0.1862 0.0
O727 O 0.95558 0.20838 0.1934 0.0
In728 In 0.58077 0.05125 0.81067 0.0
O729 O 0.58595 0.0564 0.78351 0.0
O730 O 0.59863 0.03698 0.79537 0.0
C731 C 0.56907 0.0793 0.82322 0.0
C732 C 0.55412 0.03218 0.80722 0.0
C733 C 0.60503 0.04851 0.83262 0.0
O734 O 0.57756 0.07918 0.81031 0.0
O735 O 0.56632 0.06543 0.82928 0.0
O736 O 0.59202 0.04022 0.83372 0.0
O737 O 0.60578 0.05793 0.82043 0.0
C738 C 0.5964 0.04507 0.78247 0.0
O739 O 0.5663 0.0278 0.81566 0.0
O740 O 0.55563 0.04588 0.80034 0.0
In741 In 0.69536 0.32803 0.05797 0.0
O742 O 0.71584 0.31213 0.06793 0.0
O743 O 0.70201 0.30313 0.0477 0.0
C744 C 0.69585 0.35241 0.08023 0.0
C745 C 0.70905 0.34196 0.03153 0.0
C746 C 0.66539 0.31587 0.06424 0.0
O747 O 0.70255 0.33875 0.08281 0.0
O748 O 0.68899 0.3537 0.06652 0.0
O749 O 0.66753 0.32703 0.05377 0.0
O750 O 0.67822 0.31084 0.07105 0.0
C751 C 0.71346 0.30069 0.0578 0.0
O752 O 0.69434 0.33718 0.03128 0.0
O753 O 0.71643 0.33952 0.04481 0.0
In754 In 0.42126 0.45155 0.30944 0.0
O755 O 0.4119 0.44775 0.28304 0.0
O756 O 0.41109 0.47148 0.2937 0.0
C757 C 0.43373 0.42359 0.32126 0.0
C758 C 0.44942 0.46828 0.30806 0.0
C759 C 0.39525 0.45309 0.32955 0.0
O760 O 0.42596 0.42387 0.30785 0.0
O761 O 0.43521 0.43724 0.32824 0.0
O762 O 0.40717 0.46284 0.3308 0.0
O763 O 0.39645 0.44284 0.31812 0.0
C764 C 0.40819 0.4627 0.2814 0.0
O765 O 0.43775 0.47248 0.31731 0.0
O766 O 0.44682 0.45569 0.29949 0.0
In767 In 0.29631 0.17118 0.55872 0.0
O768 O 0.27387 0.1869 0.56368 0.0
O769 O 0.29408 0.19786 0.55138 0.0
C770 C 0.29092 0.14478 0.57783 0.0
C771 C 0.2901 0.15942 0.52862 0.0
C772 C 0.32362 0.18208 0.57338 0.0
O773 O 0.28354 0.15816 0.57998 0.0
O774 O 0.30044 0.14458 0.56574 0.0
O775 O 0.32371 0.1777 0.55854 0.0
O776 O 0.30997 0.18095 0.58038 0.0
C777 C 0.27988 0.1996 0.55721 0.0
O778 O 0.30439 0.15939 0.53453 0.0
O779 O 0.27931 0.16555 0.53773 0.0
In780 In 0.57949 0.95015 0.19248 0.0
O781 O 0.59029 0.94559 0.21802 0.0
O782 O 0.58854 0.97008 0.20937 0.0
C783 C 0.56685 0.92096 0.18355 0.0
C784 C 0.5518 0.96769 0.1941 0.0
C785 C 0.60428 0.95286 0.17069 0.0
O786 O 0.57751 0.92207 0.19466 0.0
O787 O 0.56256 0.93436 0.17741 0.0
O788 O 0.5907 0.95987 0.16864 0.0
O789 O 0.60541 0.94488 0.18377 0.0
C790 C 0.59281 0.96059 0.22073 0.0
O791 O 0.56275 0.97045 0.18352 0.0
O792 O 0.55498 0.95625 0.20401 0.0
In793 In 0.79933 0.3338 0.44532 0.0
O794 O 0.80394 0.33791 0.47283 0.0
O795 O 0.78546 0.35179 0.46086 0.0
C796 C 0.82744 0.32193 0.43295 0.0
C797 C 0.77986 0.30742 0.44803 0.0
C798 C 0.79657 0.35803 0.42333 0.0
O799 O 0.82738 0.33213 0.44455 0.0
O800 O 0.81352 0.31753 0.42813 0.0
O801 O 0.78799 0.34519 0.42246 0.0
O802 O 0.80631 0.35857 0.43526 0.0
C803 C 0.79303 0.3488 0.47391 0.0
O804 O 0.77578 0.31978 0.43968 0.0
O805 O 0.79343 0.30864 0.45524 0.0
In806 In 0.41583 0.54937 0.69297 0.0
O807 O 0.43064 0.52773 0.68322 0.0
O808 O 0.43815 0.53864 0.70556 0.0
C809 C 0.39062 0.54878 0.67192 0.0
C810 C 0.39973 0.54387 0.72112 0.0
C811 C 0.43073 0.57629 0.68122 0.0
O812 O 0.40017 0.53673 0.67366 0.0
O813 O 0.39384 0.56099 0.68079 0.0
O814 O 0.4221 0.57678 0.69403 0.0
O815 O 0.43204 0.56233 0.67489 0.0
C816 C 0.44085 0.52795 0.69479 0.0
O817 O 0.41159 0.55374 0.72045 0.0
O818 O 0.39618 0.53702 0.70781 0.0
In819 In 0.1966 0.17398 0.94436 0.0
O820 O 0.19672 0.16565 0.97132 0.0
O821 O 0.21415 0.15567 0.9547 0.0
C822 C 0.16644 0.18609 0.93874 0.0
C823 C 0.2161 0.20036 0.94637 0.0
C824 C 0.19671 0.15145 0.92039 0.0
O825 O 0.16875 0.17408 0.94815 0.0
O826 O 0.17926 0.19221 0.9329 0.0
O827 O 0.20475 0.1646 0.91922 0.0
O828 O 0.18861 0.14992 0.93338 0.0
C829 C 0.20841 0.15579 0.96897 0.0
O830 O 0.21637 0.19076 0.93426 0.0
O831 O 0.20628 0.19639 0.95759 0.0
In832 In 0.80844 0.07712 0.55125 0.0
O833 O 0.81839 0.06104 0.53085 0.0
O834 O 0.79861 0.05196 0.54527 0.0
C835 C 0.82615 0.10488 0.55042 0.0
C836 C 0.77989 0.08929 0.54063 0.0
C837 C 0.82081 0.06399 0.57868 0.0
O838 O 0.82873 0.09323 0.54059 0.0
O839 O 0.81462 0.10251 0.56036 0.0
O840 O 0.8062 0.06912 0.57817 0.0
O841 O 0.82871 0.06557 0.56557 0.0
C842 C 0.80851 0.04946 0.53368 0.0
O843 O 0.7825 0.08704 0.55572 0.0
O844 O 0.79147 0.08527 0.5313 0.0
In845 In 0.30537 0.91866 0.94214 0.0
O846 O 0.27757 0.91471 0.93984 0.0
O847 O 0.29134 0.89888 0.9552 0.0
C848 C 0.31399 0.93398 0.9141 0.0
C849 C 0.30456 0.94232 0.96499 0.0
C850 C 0.3275 0.89434 0.94272 0.0
O851 O 0.30428 0.922 0.91417 0.0
O852 O 0.31883 0.93834 0.92799 0.0
O853 O 0.32822 0.90632 0.95243 0.0
O854 O 0.31586 0.89483 0.93263 0.0
C855 C 0.27758 0.90259 0.94942 0.0
O856 O 0.31616 0.93217 0.96399 0.0
O857 O 0.29322 0.94023 0.95473 0.0
In858 In 0.83112 0.05572 0.19552 0.0
O859 O 0.8166 0.06691 0.21653 0.0
O860 O 0.80966 0.04331 0.20806 0.0
C861 C 0.85507 0.07827 0.19593 0.0
C862 C 0.84746 0.02831 0.20369 0.0
C863 C 0.81627 0.0635 0.16696 0.0
O864 O 0.84298 0.07898 0.20552 0.0
O865 O 0.85491 0.06638 0.18614 0.0
O866 O 0.82851 0.05413 0.16749 0.0
O867 O 0.8114 0.06836 0.18067 0.0
C868 C 0.80685 0.055 0.21774 0.0
O869 O 0.83572 0.028 0.19365 0.0
O870 O 0.85066 0.04218 0.20952 0.0
In871 In 0.68643 0.5747 0.45291 0.0
O872 O 0.67724 0.55684 0.4721 0.0
O873 O 0.69938 0.55105 0.45963 0.0
C874 C 0.66467 0.59933 0.45367 0.0
C875 C 0.7122 0.59124 0.46473 0.0
C876 C 0.67658 0.56261 0.424 0.0
O877 O 0.66399 0.58749 0.46359 0.0
O878 O 0.67631 0.5987 0.44359 0.0
O879 O 0.68958 0.57094 0.4252 0.0
O880 O 0.66924 0.56011 0.43729 0.0
C881 C 0.68886 0.54684 0.47013 0.0
O882 O 0.71269 0.58471 0.45069 0.0
O883 O 0.69907 0.589 0.47248 0.0
In884 In 0.66581 0.94604 0.69833 0.0
O885 O 0.67985 0.93563 0.72012 0.0
O886 O 0.68817 0.95795 0.70967 0.0
C887 C 0.64121 0.9242 0.69832 0.0
C888 C 0.65016 0.97395 0.70586 0.0
C889 C 0.68044 0.93689 0.67021 0.0
O890 O 0.65288 0.92341 0.70844 0.0
O891 O 0.64208 0.93588 0.68831 0.0
O892 O 0.66911 0.94736 0.67043 0.0
O893 O 0.68457 0.93161 0.68402 0.0
C894 C 0.69035 0.94696 0.72027 0.0
O895 O 0.66183 0.97376 0.69575 0.0
O896 O 0.64668 0.96031 0.71207 0.0
In897 In 0.19487 0.91839 0.54711 0.0
O898 O 0.22129 0.90949 0.55163 0.0
O899 O 0.21144 0.90864 0.52757 0.0
C900 C 0.18336 0.93081 0.57525 0.0
C901 C 0.19562 0.94643 0.53011 0.0
C902 C 0.17451 0.89254 0.54512 0.0
O903 O 0.1963 0.92233 0.5749 0.0
O904 O 0.17665 0.93306 0.56158 0.0
O905 O 0.17351 0.90456 0.53549 0.0
O906 O 0.18589 0.8935 0.55544 0.0
C907 C 0.2235 0.90595 0.53674 0.0
O908 O 0.18656 0.93456 0.52609 0.0
O909 O 0.20438 0.94406 0.54262 0.0
In910 In 0.82651 0.44103 0.29996 0.0
O911 O 0.80979 0.43069 0.28036 0.0
O912 O 0.80243 0.45259 0.29251 0.0
C913 C 0.85217 0.42031 0.29833 0.0
C914 C 0.83992 0.46845 0.28797 0.0
C915 C 0.81402 0.43261 0.32923 0.0
O916 O 0.83908 0.41782 0.29055 0.0
O917 O 0.85225 0.43314 0.30681 0.0
O918 O 0.82409 0.44423 0.32781 0.0
O919 O 0.81018 0.42571 0.31605 0.0
C920 C 0.79918 0.44184 0.28189 0.0
O921 O 0.83571 0.46745 0.30282 0.0
O922 O 0.8372 0.45583 0.27955 0.0
In923 In 0.16851 0.05899 0.80184 0.0
O924 O 0.16349 0.03147 0.80597 0.0
O925 O 0.14892 0.04472 0.78898 0.0
C926 C 0.18172 0.07112 0.82939 0.0
C927 C 0.1942 0.05592 0.78154 0.0
C928 C 0.1444 0.08126 0.80089 0.0
O929 O 0.17217 0.05897 0.8296 0.0
O930 O 0.18499 0.07656 0.81536 0.0
O931 O 0.1552 0.0805 0.78983 0.0
O932 O 0.14591 0.07087 0.81218 0.0
C933 C 0.15179 0.0313 0.79588 0.0
O934 O 0.18233 0.0653 0.77838 0.0
O935 O 0.19289 0.04799 0.7947 0.0
In936 In 0.54669 0.81145 0.0791 0.0
O937 O 0.55185 0.7856 0.08877 0.0
O938 O 0.5273 0.79439 0.08832 0.0
C939 C 0.57473 0.8235 0.06706 0.0
C940 C 0.52977 0.81027 0.05095 0.0
C941 C 0.54429 0.83071 0.10574 0.0
O942 O 0.57406 0.80923 0.07301 0.0
O943 O 0.56143 0.83123 0.06721 0.0
O944 O 0.5356 0.83292 0.09316 0.0
O945 O 0.55384 0.81864 0.10495 0.0
C946 C 0.53692 0.78283 0.09174 0.0
O947 O 0.52621 0.82014 0.0623 0.0
O948 O 0.54172 0.80096 0.05392 0.0
In949 In 0.44636 0.79898 0.32852 0.0
O950 O 0.44001 0.77645 0.31349 0.0
O951 O 0.45499 0.79481 0.30254 0.0
C952 C 0.42381 0.79285 0.35209 0.0
C953 C 0.47642 0.7919 0.34007 0.0
C954 C 0.4371 0.82915 0.31866 0.0
O955 O 0.42072 0.79136 0.33708 0.0
O956 O 0.43833 0.79679 0.35516 0.0
O957 O 0.44553 0.82695 0.33138 0.0
O958 O 0.43392 0.81633 0.31082 0.0
C959 C 0.44784 0.7812 0.30101 0.0
O960 O 0.47128 0.80643 0.33926 0.0
O961 O 0.46657 0.78126 0.33491 0.0
In962 In 0.44736 0.68894 0.57882 0.0
O963 O 0.44346 0.7151 0.58888 0.0
O964 O 0.46757 0.70553 0.58691 0.0
C965 C 0.41893 0.67824 0.56635 0.0
C966 C 0.46416 0.68945 0.55074 0.0
C967 C 0.44969 0.66875 0.60481 0.0
O968 O 0.41959 0.69107 0.57497 0.0
O969 O 0.43242 0.6712 0.56403 0.0
O970 O 0.4592 0.66768 0.59271 0.0
O971 O 0.43926 0.68002 0.6038 0.0
C972 C 0.45862 0.71738 0.5909 0.0
O973 O 0.46785 0.68001 0.56243 0.0
O974 O 0.45197 0.69862 0.55326 0.0
In975 In 0.56172 0.69902 0.82806 0.0
O976 O 0.53526 0.6966 0.83751 0.0
O977 O 0.5471 0.71984 0.83786 0.0
C978 C 0.57261 0.67096 0.81488 0.0
C979 C 0.56134 0.71681 0.80055 0.0
C980 C 0.58044 0.70012 0.85502 0.0
O981 O 0.55841 0.67189 0.821 0.0
O982 O 0.58084 0.68394 0.8156 0.0
O983 O 0.58312 0.70905 0.84271 0.0
O984 O 0.56834 0.69066 0.85369 0.0
C985 C 0.53439 0.7117 0.84093 0.0
O986 O 0.57201 0.71885 0.81156 0.0
O987 O 0.55093 0.70578 0.80347 0.0
In988 In 0.55591 0.19485 0.92449 0.0
O989 O 0.53237 0.18779 0.93776 0.0
O990 O 0.5477 0.20571 0.94867 0.0
C991 C 0.55545 0.17274 0.90028 0.0
C992 C 0.55022 0.22219 0.90703 0.0
C993 C 0.58292 0.18278 0.93887 0.0
O994 O 0.54385 0.17404 0.91044 0.0
O995 O 0.56719 0.18252 0.90247 0.0
O996 O 0.58329 0.19594 0.93073 0.0
O997 O 0.56903 0.17624 0.93993 0.0
C998 C 0.53488 0.19722 0.94971 0.0
O999 O 0.55993 0.22237 0.91904 0.0
O1000 O 0.54355 0.20865 0.90424 0.0
In1001 In 0.05875 0.80328 0.16971 0.0
O1002 O 0.0685 0.78137 0.18398 0.0
O1003 O 0.04609 0.79209 0.19172 0.0
C1004 C 0.08081 0.80277 0.14536 0.0
C1005 C 0.03118 0.79587 0.15348 0.0
C1006 C 0.06819 0.8315 0.18403 0.0
O1007 O 0.08187 0.7933 0.15753 0.0
O1008 O 0.06877 0.81238 0.14561 0.0
O1009 O 0.05768 0.83123 0.17273 0.0
O1010 O 0.07326 0.81768 0.18837 0.0
C1011 C 0.05687 0.78132 0.19414 0.0
O1012 O 0.03118 0.80615 0.16502 0.0
O1013 O 0.04483 0.78942 0.15045 0.0
In1014 In 0.44714 0.30499 0.41842 0.0
O1015 O 0.46543 0.31745 0.43533 0.0
O1016 O 0.45449 0.2951 0.4432 0.0
C1017 C 0.45175 0.32892 0.39606 0.0
C1018 C 0.46 0.27705 0.40664 0.0
C1019 C 0.41536 0.3096 0.42667 0.0
O1020 O 0.45229 0.33153 0.41124 0.0
O1021 O 0.44942 0.31422 0.39221 0.0
O1022 O 0.41975 0.30618 0.41232 0.0
O1023 O 0.4268 0.30956 0.43691 0.0
C1024 C 0.46433 0.30661 0.44631 0.0
O1025 O 0.4447 0.27896 0.40765 0.0
O1026 O 0.46835 0.28905 0.4114 0.0
In1027 In 0.94413 0.69777 0.66893 0.0
O1028 O 0.93701 0.72083 0.68301 0.0
O1029 O 0.95434 0.70468 0.69377 0.0
C1030 C 0.92162 0.69914 0.64502 0.0
C1031 C 0.97196 0.70448 0.65271 0.0
C1032 C 0.93267 0.6695 0.68126 0.0
O1033 O 0.92226 0.70977 0.65625 0.0
O1034 O 0.9323 0.68805 0.64595 0.0
O1035 O 0.94452 0.66985 0.67135 0.0
O1036 O 0.92722 0.68331 0.68531 0.0
C1037 C 0.94605 0.71762 0.69512 0.0
O1038 O 0.97179 0.69423 0.66425 0.0
O1039 O 0.95848 0.71122 0.64974 0.0
In1040 In 0.57862 0.55484 0.30529 0.0
O1041 O 0.5657 0.53085 0.31189 0.0
O1042 O 0.55422 0.54678 0.2949 0.0
C1043 C 0.60203 0.55352 0.32827 0.0
C1044 C 0.59628 0.54976 0.27781 0.0
C1045 C 0.56415 0.58215 0.31663 0.0
O1046 O 0.59218 0.54183 0.3259 0.0
O1047 O 0.5999 0.56582 0.31917 0.0
O1048 O 0.57286 0.58234 0.30385 0.0
O1049 O 0.56272 0.56833 0.32325 0.0
C1050 C 0.55345 0.53366 0.30292 0.0
O1051 O 0.58296 0.55753 0.27738 0.0
O1052 O 0.60037 0.54481 0.29173 0.0
In1053 In 0.70165 0.83146 0.56098 0.0
O1054 O 0.72081 0.81454 0.57187 0.0
O1055 O 0.70935 0.80745 0.54951 0.0
C1056 C 0.70296 0.85697 0.58178 0.0
C1057 C 0.71445 0.84446 0.53374 0.0
C1058 C 0.67218 0.81921 0.56906 0.0
O1059 O 0.71058 0.84381 0.58443 0.0
O1060 O 0.69484 0.8572 0.56871 0.0
O1061 O 0.6737 0.82972 0.55785 0.0
O1062 O 0.68535 0.81481 0.57563 0.0
C1063 C 0.71957 0.80402 0.56059 0.0
O1064 O 0.69974 0.83965 0.53413 0.0
O1065 O 0.72225 0.8427 0.54691 0.0
In1066 In 0.41839 0.95536 0.80706 0.0
O1067 O 0.40717 0.94749 0.78254 0.0
O1068 O 0.4127 0.97264 0.78626 0.0
C1069 C 0.42881 0.92797 0.82203 0.0
C1070 C 0.44692 0.97158 0.80616 0.0
C1071 C 0.39142 0.96063 0.8253 0.0
O1072 O 0.42479 0.92793 0.80707 0.0
O1073 O 0.42758 0.94162 0.82901 0.0
O1074 O 0.40466 0.96815 0.82788 0.0
O1075 O 0.39173 0.95101 0.8133 0.0
C1076 C 0.40688 0.96188 0.7769 0.0
O1077 O 0.43425 0.97749 0.81279 0.0
O1078 O 0.44508 0.95762 0.79982 0.0
In1079 In 0.29882 0.67312 0.06135 0.0
O1080 O 0.30541 0.66256 0.03601 0.0
O1081 O 0.28065 0.66861 0.04129 0.0
C1082 C 0.32609 0.6838 0.07607 0.0
C1083 C 0.283 0.70184 0.06147 0.0
C1084 C 0.29459 0.64533 0.0786 0.0
O1085 O 0.32603 0.67992 0.06107 0.0
O1086 O 0.31254 0.68234 0.08324 0.0
O1087 O 0.28511 0.65744 0.08015 0.0
O1088 O 0.30574 0.6472 0.06815 0.0
C1089 C 0.29076 0.66306 0.03112 0.0
O1090 O 0.27744 0.68935 0.06873 0.0
O1091 O 0.2965 0.69978 0.05425 0.0
In1092 In 0.5761 0.45054 0.69316 0.0
O1093 O 0.55899 0.47056 0.68429 0.0
O1094 O 0.5511 0.45545 0.70407 0.0
C1095 C 0.60273 0.45334 0.67387 0.0
C1096 C 0.58884 0.45892 0.72229 0.0
C1097 C 0.56352 0.42309 0.6802 0.0
O1098 O 0.59126 0.46369 0.67346 0.0
O1099 O 0.60079 0.44202 0.6841 0.0
O1100 O 0.57085 0.42291 0.69382 0.0
O1101 O 0.56243 0.43692 0.67356 0.0
C1102 C 0.54783 0.46709 0.69443 0.0
O1103 O 0.58667 0.44412 0.71839 0.0
O1104 O 0.58444 0.46919 0.71168 0.0
In1105 In 0.80377 0.82769 0.942 0.0
O1106 O 0.80678 0.83396 0.9694 0.0
O1107 O 0.78926 0.84693 0.95513 0.0
C1108 C 0.8314 0.81307 0.93142 0.0
C1109 C 0.78246 0.80265 0.94415 0.0
C1110 C 0.80364 0.85219 0.92011 0.0
O1111 O 0.83132 0.82188 0.94413 0.0
O1112 O 0.8177 0.81149 0.92465 0.0
O1113 O 0.79351 0.84053 0.91951 0.0
O1114 O 0.81385 0.85138 0.93166 0.0
C1115 C 0.79598 0.84502 0.96883 0.0
O1116 O 0.78146 0.81346 0.93318 0.0
O1117 O 0.79394 0.80472 0.95424 0.0
In1118 In 0.42108 0.05242 0.19289 0.0
O1119 O 0.43611 0.03106 0.18287 0.0
O1120 O 0.44327 0.04142 0.20557 0.0
C1121 C 0.39635 0.05132 0.17129 0.0
C1122 C 0.40446 0.04644 0.22072 0.0
C1123 C 0.43573 0.07992 0.18202 0.0
O1124 O 0.40606 0.03944 0.17332 0.0
O1125 O 0.39922 0.06366 0.1801 0.0
O1126 O 0.42677 0.07996 0.19461 0.0
O1127 O 0.43748 0.06613 0.17545 0.0
C1128 C 0.44614 0.03099 0.1946 0.0
O1129 O 0.41664 0.05595 0.2205 0.0
O1130 O 0.40087 0.04021 0.20713 0.0
In1131 In 0.19808 0.67479 0.44207 0.0
O1132 O 0.19435 0.66457 0.46815 0.0
O1133 O 0.21844 0.66686 0.45859 0.0
C1134 C 0.16948 0.687 0.43138 0.0
C1135 C 0.21538 0.70261 0.44274 0.0
C1136 C 0.20053 0.64857 0.42216 0.0
O1137 O 0.17027 0.67867 0.4444 0.0
O1138 O 0.1829 0.68913 0.42418 0.0
O1139 O 0.20814 0.66172 0.41945 0.0
O1140 O 0.19187 0.64868 0.43487 0.0
C1141 C 0.20953 0.66253 0.47036 0.0
O1142 O 0.2194 0.69053 0.43395 0.0
O1143 O 0.20261 0.70062 0.45123 0.0
In1144 In 0.8083 0.57891 0.05639 0.0
O1145 O 0.81995 0.56311 0.03674 0.0
O1146 O 0.7957 0.55735 0.04433 0.0
C1147 C 0.83168 0.60196 0.05783 0.0
C1148 C 0.78354 0.59665 0.04419 0.0
C1149 C 0.81333 0.56481 0.08577 0.0
O1150 O 0.83302 0.58948 0.04882 0.0
O1151 O 0.81877 0.60258 0.0662 0.0
O1152 O 0.80416 0.57712 0.08416 0.0
O1153 O 0.81916 0.5594 0.07264 0.0
C1154 C 0.8077 0.5538 0.03529 0.0
O1155 O 0.78117 0.58664 0.05576 0.0
O1156 O 0.79801 0.5973 0.039 0.0
In1157 In 0.30613 0.41547 0.44753 0.0
O1158 O 0.31528 0.42941 0.46999 0.0
O1159 O 0.29413 0.43829 0.45773 0.0
C1160 C 0.32597 0.38933 0.44644 0.0
C1161 C 0.27798 0.39986 0.45396 0.0
C1162 C 0.31854 0.43075 0.42114 0.0
O1163 O 0.32682 0.39979 0.45782 0.0
O1164 O 0.31518 0.39214 0.43578 0.0
O1165 O 0.30516 0.42302 0.42042 0.0
O1166 O 0.32511 0.43095 0.43505 0.0
C1167 C 0.30428 0.44024 0.46916 0.0
O1168 O 0.27876 0.4108 0.44306 0.0
O1169 O 0.29115 0.39708 0.46145 0.0
In1170 In 0.82911 0.55497 0.69459 0.0
O1171 O 0.81459 0.56317 0.71695 0.0
O1172 O 0.80544 0.54321 0.70296 0.0
C1173 C 0.85193 0.57863 0.69436 0.0
C1174 C 0.84701 0.5293 0.70461 0.0
C1175 C 0.81555 0.56239 0.6655 0.0
O1176 O 0.83912 0.57974 0.70295 0.0
O1177 O 0.85297 0.56584 0.68585 0.0
O1178 O 0.82704 0.55214 0.66667 0.0
O1179 O 0.81084 0.56837 0.67885 0.0
C1180 C 0.80338 0.55273 0.71492 0.0
O1181 O 0.83648 0.52768 0.6934 0.0
O1182 O 0.848 0.54339 0.71068 0.0
In1183 In 0.69566 0.08067 0.95206 0.0
O1184 O 0.72053 0.09152 0.94448 0.0
O1185 O 0.71599 0.087 0.96963 0.0
C1186 C 0.68265 0.06809 0.92461 0.0
C1187 C 0.69648 0.05299 0.96953 0.0
C1188 C 0.67617 0.10708 0.95604 0.0
O1189 O 0.69621 0.07549 0.92448 0.0
O1190 O 0.67596 0.06697 0.93841 0.0
O1191 O 0.67554 0.09492 0.96551 0.0
O1192 O 0.68674 0.10596 0.94494 0.0
C1193 C 0.72576 0.09221 0.95898 0.0
O1194 O 0.6889 0.0656 0.97433 0.0
O1195 O 0.70375 0.05444 0.95596 0.0
In1196 In 0.66678 0.44245 0.19954 0.0
O1197 O 0.68349 0.43196 0.21905 0.0
O1198 O 0.69118 0.45361 0.20668 0.0
C1199 C 0.64116 0.42181 0.20145 0.0
C1200 C 0.65392 0.47065 0.21045 0.0
C1201 C 0.67927 0.4322 0.17086 0.0
O1202 O 0.6531 0.42103 0.21119 0.0
O1203 O 0.6421 0.43308 0.191 0.0
O1204 O 0.66944 0.44411 0.17157 0.0
O1205 O 0.68298 0.42604 0.18445 0.0
C1206 C 0.69431 0.44287 0.21735 0.0
O1207 O 0.65861 0.46918 0.19579 0.0
O1208 O 0.65564 0.45805 0.21913 0.0
In1209 In 0.19242 0.41965 0.04734 0.0
O1210 O 0.21946 0.41414 0.05249 0.0
O1211 O 0.20753 0.40178 0.03288 0.0
C1212 C 0.18025 0.43317 0.07478 0.0
C1213 C 0.19498 0.44555 0.02712 0.0
C1214 C 0.17174 0.39418 0.04605 0.0
O1215 O 0.19352 0.42526 0.07488 0.0
O1216 O 0.1736 0.4344 0.06097 0.0
O1217 O 0.17082 0.406 0.03612 0.0
O1218 O 0.18304 0.39527 0.05649 0.0
C1219 C 0.22042 0.40375 0.04109 0.0
O1220 O 0.18428 0.43459 0.02516 0.0
O1221 O 0.20458 0.44316 0.03893 0.0
In1222 In 0.82489 0.94032 0.79888 0.0
O1223 O 0.80633 0.93059 0.78062 0.0
O1224 O 0.80092 0.95298 0.79285 0.0
C1225 C 0.84896 0.91784 0.79693 0.0
C1226 C 0.84001 0.96665 0.78625 0.0
C1227 C 0.81435 0.93208 0.82892 0.0
O1228 O 0.83641 0.91716 0.78795 0.0
O1229 O 0.8493 0.92981 0.8066 0.0
O1230 O 0.82488 0.94318 0.82681 0.0
O1231 O 0.80886 0.92581 0.81599 0.0
C1232 C 0.79637 0.94224 0.78271 0.0
O1233 O 0.8345 0.96675 0.8007 0.0
O1234 O 0.83763 0.95354 0.7785 0.0
In1235 In 0.17519 0.55935 0.30368 0.0
O1236 O 0.16546 0.53289 0.30474 0.0
O1237 O 0.16461 0.54606 0.28227 0.0
C1238 C 0.18662 0.56717 0.33356 0.0
C1239 C 0.20316 0.55815 0.28672 0.0
C1240 C 0.15044 0.58107 0.30174 0.0
O1241 O 0.17587 0.55622 0.3317 0.0
O1242 O 0.19171 0.5735 0.32053 0.0
O1243 O 0.16395 0.58334 0.29464 0.0
O1244 O 0.14946 0.56791 0.30966 0.0
C1245 C 0.16158 0.53294 0.28975 0.0
O1246 O 0.1929 0.56961 0.28501 0.0
O1247 O 0.19925 0.54729 0.29701 0.0
H1248 H 0.02904 0.28097 0.03028 0.0
H1249 H 0.01142 0.32955 0.04094 0.0
H1250 H 0.01328 0.28078 0.00498 0.0
H1251 H 0.99557 0.32933 0.01561 0.0
H1252 H 0.98501 0.32947 0.96021 0.0
H1253 H 0.00088 0.32948 0.98553 0.0
H1254 H 0.9844 0.28044 0.99585 0.0
H1255 H 0.96862 0.2804 0.97056 0.0
C1256 C 0.02171 0.29157 0.02727 0.0
C1257 C 0.02145 0.30527 0.03761 0.0
C1258 C 0.01265 0.29144 0.0128 0.0
C1259 C 0.00323 0.30506 0.00826 0.0
C1260 C 0.00287 0.31873 0.01867 0.0
C1261 C 0.01183 0.3188 0.03324 0.0
C1262 C 0.98487 0.31866 0.96784 0.0
C1263 C 0.97559 0.30493 0.96339 0.0
C1264 C 0.99385 0.31872 0.9824 0.0
C1265 C 0.99383 0.30499 0.99272 0.0
C1266 C 0.98476 0.29116 0.9881 0.0
C1267 C 0.97569 0.29116 0.97363 0.0
H1268 H 0.92039 0.23863 0.20803 0.0
H1269 H 0.96899 0.22127 0.21904 0.0
H1270 H 0.92005 0.25389 0.23368 0.0
H1271 H 0.96861 0.23646 0.24471 0.0
H1272 H 0.96757 0.28019 0.28047 0.0
H1273 H 0.96835 0.26513 0.25474 0.0
H1274 H 0.91938 0.2476 0.26349 0.0
H1275 H 0.91856 0.26273 0.28921 0.0
C1276 C 0.93103 0.23815 0.21588 0.0
C1277 C 0.94471 0.22876 0.21153 0.0
C1278 C 0.93078 0.24678 0.23063 0.0
C1279 C 0.94427 0.24631 0.24125 0.0
C1280 C 0.95808 0.23716 0.23673 0.0
C1281 C 0.95827 0.22843 0.22205 0.0
C1282 C 0.95701 0.27305 0.27694 0.0
C1283 C 0.943 0.27264 0.28686 0.0
C1284 C 0.95748 0.26439 0.26223 0.0
C1285 C 0.9439 0.25524 0.25705 0.0
C1286 C 0.92995 0.25471 0.26705 0.0
C1287 C 0.92953 0.26327 0.28184 0.0
H1288 H 0.98201 0.16608 0.54076 0.0
H1289 H 0.96348 0.21371 0.52759 0.0
H1290 H 0.99883 0.16584 0.51607 0.0
H1291 H 0.98019 0.21342 0.50294 0.0
H1292 H 0.02699 0.21483 0.47184 0.0
H1293 H 0.00975 0.2146 0.49615 0.0
H1294 H 0.99561 0.16485 0.4857 0.0
H1295 H 0.01295 0.16505 0.4614 0.0
C1296 C 0.98149 0.17645 0.53256 0.0
C1297 C 0.97146 0.18992 0.53611 0.0
C1298 C 0.99105 0.17628 0.51841 0.0
C1299 C 0.99085 0.18963 0.5076 0.0
C1300 C 0.98074 0.20304 0.51113 0.0
C1301 C 0.9711 0.20316 0.5252 0.0
C1302 C 0.02019 0.20386 0.47472 0.0
C1303 C 0.0213 0.18996 0.46472 0.0
C1304 C 0.01026 0.20375 0.48859 0.0
C1305 C 0.00132 0.18971 0.49281 0.0
C1306 C 0.00248 0.1758 0.48283 0.0
C1307 C 0.01232 0.17594 0.46888 0.0
H1308 H 0.07744 0.24376 0.79779 0.0
H1309 H 0.03014 0.22393 0.78539 0.0
H1310 H 0.07782 0.25885 0.772 0.0
H1311 H 0.03053 0.23901 0.75967 0.0
H1312 H 0.03097 0.28177 0.72285 0.0
H1313 H 0.03012 0.26798 0.74931 0.0
H1314 H 0.07957 0.25109 0.74213 0.0
H1315 H 0.08043 0.26485 0.71565 0.0
C1316 C 0.06706 0.24277 0.78964 0.0
C1317 C 0.05377 0.23267 0.79359 0.0
C1318 C 0.06734 0.2513 0.77484 0.0
C1319 C 0.05424 0.25003 0.7638 0.0
C1320 C 0.04075 0.2403 0.76798 0.0
C1321 C 0.04055 0.23164 0.78268 0.0
C1322 C 0.04164 0.27508 0.72691 0.0
C1323 C 0.05576 0.27436 0.71718 0.0
C1324 C 0.04113 0.26716 0.74203 0.0
C1325 C 0.0548 0.25852 0.7478 0.0
C1326 C 0.06893 0.25782 0.73807 0.0
C1327 C 0.06937 0.26559 0.72287 0.0
H1328 H 0.00067 0.68253 0.04842 0.0
H1329 H 0.96106 0.70922 0.02596 0.0
H1330 H 0.0152 0.68224 0.02227 0.0
H1331 H 0.97551 0.70882 -9e-05 0.0
H1332 H 0.99775 0.68655 0.95294 0.0
H1333 H 0.98375 0.68708 0.97934 0.0
H1334 H 0.02836 0.7027 0.00274 0.0
H1335 H 0.04233 0.70228 0.97636 0.0
C1336 C 0.99512 0.68839 0.03794 0.0
C1337 C 0.97974 0.6959 0.03924 0.0
C1338 C 0.00344 0.68825 0.023 0.0
C1339 C 0.99643 0.69543 0.00905 0.0
C1340 C 0.98112 0.70304 0.01041 0.0
C1341 C 0.97291 0.70335 0.02536 0.0
C1342 C 0.00455 0.69009 0.96372 0.0
C1343 C 0.02111 0.69441 0.96259 0.0
C1344 C 0.99653 0.69046 0.97881 0.0
C1345 C 0.00498 0.69494 0.99308 0.0
C1346 C 0.02159 0.69909 0.99196 0.0
C1347 C 0.02954 0.69893 0.97685 0.0
H1348 H 0.53399 0.28283 0.21939 0.0
H1349 H 0.57848 0.25944 0.20329 0.0
H1350 H 0.53512 0.26734 0.24492 0.0
H1351 H 0.57967 0.2441 0.22891 0.0
H1352 H 0.58485 0.23567 0.28483 0.0
H1353 H 0.5835 0.25133 0.25942 0.0
H1354 H 0.53316 0.23691 0.25315 0.0
H1355 H 0.53453 0.2211 0.27846 0.0
C1356 C 0.544 0.27438 0.22132 0.0
C1357 C 0.55614 0.27231 0.20937 0.0
C1358 C 0.5446 0.26549 0.23588 0.0
C1359 C 0.5575 0.25457 0.23886 0.0
C1360 C 0.56967 0.25255 0.22694 0.0
C1361 C 0.56893 0.26125 0.21228 0.0
C1362 C 0.57349 0.23589 0.27805 0.0
C1363 C 0.55979 0.22717 0.28359 0.0
C1364 C 0.57275 0.24476 0.26348 0.0
C1365 C 0.55824 0.24528 0.25435 0.0
C1366 C 0.54447 0.23678 0.26003 0.0
C1367 C 0.54527 0.2277 0.27445 0.0
H1368 H 0.04379 0.7955 0.52296 0.0
H1369 H 0.00387 0.8215 0.54566 0.0
H1370 H 0.02895 0.79532 0.49707 0.0
H1371 H 0.989 0.82125 0.51973 0.0
H1372 H 0.9611 0.79969 0.47538 0.0
H1373 H 0.97598 0.79998 0.50126 0.0
H1374 H 0.01944 0.81612 0.47613 0.0
H1375 H 0.00455 0.8159 0.45022 0.0
C1376 C 0.03184 0.80116 0.52241 0.0
C1377 C 0.02497 0.80851 0.53632 0.0
C1378 C 0.0234 0.80113 0.50758 0.0
C1379 C 0.00784 0.80827 0.5064 0.0
C1380 C 0.00093 0.81554 0.52034 0.0
C1381 C 0.00946 0.81575 0.53513 0.0
C1382 C 0.97384 0.80328 0.47538 0.0
C1383 C 0.98168 0.80776 0.46079 0.0
C1384 C 0.98231 0.80353 0.4902 0.0
C1385 C 0.99884 0.80809 0.49069 0.0
C1386 C 0.00673 0.81244 0.47607 0.0
C1387 C 0.9982 0.81238 0.46128 0.0
H1388 H 0.41572 0.23503 0.71542 0.0
H1389 H 0.46401 0.21607 0.72512 0.0
H1390 H 0.41684 0.25079 0.74074 0.0
H1391 H 0.4651 0.23183 0.75045 0.0
H1392 H 0.46715 0.27747 0.78392 0.0
H1393 H 0.46617 0.2614 0.75877 0.0
H1394 H 0.41743 0.24531 0.77093 0.0
H1395 H 0.41839 0.26137 0.79606 0.0
C1396 C 0.42656 0.23422 0.72297 0.0
C1397 C 0.43977 0.22432 0.71831 0.0
C1398 C 0.42716 0.24317 0.73749 0.0
C1399 C 0.44105 0.24252 0.74756 0.0
C1400 C 0.4543 0.23267 0.74285 0.0
C1401 C 0.45363 0.22359 0.72841 0.0
C1402 C 0.45624 0.27048 0.78122 0.0
C1403 C 0.44284 0.27067 0.79193 0.0
C1404 C 0.45572 0.26123 0.76688 0.0
C1405 C 0.44172 0.25213 0.7629 0.0
C1406 C 0.42832 0.25234 0.77362 0.0
C1407 C 0.42891 0.26146 0.78803 0.0
H1408 H 0.97702 0.95798 0.28948 0.0
H1409 H 0.95221 0.9978 0.31363 0.0
H1410 H 0.00247 0.97357 0.28985 0.0
H1411 H 0.9777 0.01353 0.3137 0.0
H1412 H 0.02299 0.04124 0.29224 0.0
H1413 H 0.99741 0.02584 0.29137 0.0
H1414 H 0.02158 0.98442 0.31329 0.0
H1415 H 0.04716 0.99993 0.31447 0.0
C1416 C 0.97697 0.97013 0.29474 0.0
C1417 C 0.96263 0.9767 0.30152 0.0
C1418 C 0.99156 0.97898 0.29503 0.0
C1419 C 0.99202 0.99471 0.30183 0.0
C1420 C 0.97762 0.00144 0.30832 0.0
C1421 C 0.96308 0.99245 0.30831 0.0
C1422 C 0.02286 0.02882 0.29682 0.0
C1423 C 0.03706 0.02175 0.3034 0.0
C1424 C 0.00821 0.02007 0.29641 0.0
C1425 C 0.00755 0.00398 0.30228 0.0
C1426 C 0.02181 0.9968 0.30861 0.0
C1427 C 0.0364 0.00566 0.30932 0.0
H1428 H 0.24759 0.30049 0.56785 0.0
H1429 H 0.20996 0.27702 0.53925 0.0
H1430 H 0.26303 0.27483 0.56844 0.0
H1431 H 0.22529 0.25147 0.53998 0.0
H1432 H 0.24765 0.20518 0.56359 0.0
H1433 H 0.23306 0.23122 0.56236 0.0
H1434 H 0.27764 0.25561 0.54829 0.0
H1435 H 0.29223 0.22954 0.54937 0.0
C1436 C 0.24268 0.2899 0.56162 0.0
C1437 C 0.22758 0.29076 0.55351 0.0
C1438 C 0.25152 0.27525 0.56193 0.0
C1439 C 0.24529 0.26116 0.55434 0.0
C1440 C 0.23029 0.2621 0.54608 0.0
C1441 C 0.22158 0.27676 0.54559 0.0
C1442 C 0.25432 0.2161 0.56023 0.0
C1443 C 0.27105 0.21533 0.55654 0.0
C1444 C 0.24597 0.23098 0.55946 0.0
C1445 C 0.25423 0.24542 0.55521 0.0
C1446 C 0.271 0.24468 0.5517 0.0
C1447 C 0.27931 0.22976 0.55224 0.0
H1448 H 0.97415 0.4678 0.78587 0.0
H1449 H 0.96292 0.4889 0.8329 0.0
H1450 H 0.9998 0.48306 0.78516 0.0
H1451 H 0.9885 0.50421 0.83215 0.0
H1452 H 0.04307 0.51614 0.8326 0.0
H1453 H 0.01847 0.49925 0.83311 0.0
H1454 H 0.00864 0.51205 0.78288 0.0
H1455 H 0.03327 0.52886 0.78234 0.0
C1456 C 0.97717 0.4757 0.79605 0.0
C1457 C 0.96653 0.47718 0.80943 0.0
C1458 C 0.99181 0.48448 0.79561 0.0
C1459 C 0.99618 0.49482 0.80861 0.0
C1460 C 0.98557 0.49619 0.82204 0.0
C1461 C 0.97088 0.48751 0.82242 0.0
C1462 C 0.03572 0.51523 0.82164 0.0
C1463 C 0.04007 0.52384 0.80744 0.0
C1464 C 0.02158 0.50566 0.82196 0.0
C1465 C 0.01158 0.50439 0.80806 0.0
C1466 C 0.01617 0.51268 0.79374 0.0
C1467 C 0.03023 0.52235 0.79346 0.0
H1468 H 0.74584 0.19988 0.0648 0.0
H1469 H 0.78976 0.22712 0.05419 0.0
H1470 H 0.73002 0.22526 0.06424 0.0
H1471 H 0.77396 0.25245 0.05379 0.0
H1472 H 0.74191 0.29477 0.07412 0.0
H1473 H 0.75769 0.26939 0.07461 0.0
H1474 H 0.72242 0.2468 0.04257 0.0
H1475 H 0.70671 0.27221 0.04193 0.0
C1476 C 0.7521 0.21128 0.06238 0.0
C1477 C 0.76901 0.21154 0.05952 0.0
C1478 C 0.74305 0.22577 0.06199 0.0
C1479 C 0.75079 0.24079 0.05898 0.0
C1480 C 0.76772 0.24105 0.05626 0.0
C1481 C 0.77673 0.22655 0.05641 0.0
C1482 C 0.73755 0.28439 0.06716 0.0
C1483 C 0.7231 0.28545 0.05797 0.0
C1484 C 0.74661 0.26991 0.0674 0.0
C1485 C 0.74124 0.25616 0.05865 0.0
C1486 C 0.72675 0.25719 0.04952 0.0
C1487 C 0.71782 0.27175 0.04909 0.0
H1488 H 0.02623 0.95775 0.70467 0.0
H1489 H 0.05008 0.99705 0.67879 0.0
H1490 H 0.00067 0.97318 0.70454 0.0
H1491 H 0.0245 0.01259 0.67888 0.0
H1492 H 0.97977 0.04075 0.70098 0.0
H1493 H 0.00557 0.02562 0.70101 0.0
H1494 H 0.98072 0.98319 0.68196 0.0
H1495 H 0.95497 0.99836 0.68169 0.0
C1496 C 0.02602 0.96971 0.69903 0.0
C1497 C 0.04012 0.97621 0.69173 0.0
C1498 C 0.01139 0.97849 0.69889 0.0
C1499 C 0.01064 0.99404 0.69169 0.0
C1500 C 0.0248 0.00065 0.68459 0.0
C1501 C 0.03938 0.99175 0.68448 0.0
C1502 C 0.97983 0.0282 0.69679 0.0
C1503 C 0.96538 0.02071 0.69134 0.0
C1504 C 0.99459 0.01959 0.69674 0.0
C1505 C 0.99509 0.00326 0.6915 0.0
C1506 C 0.98062 0.99574 0.68616 0.0
C1507 C 0.96593 0.00443 0.68594 0.0
H1508 H 0.23522 0.21335 0.92233 0.0
H1509 H 0.21878 0.2218 0.97174 0.0
H1510 H 0.25037 0.23906 0.923 0.0
H1511 H 0.23384 0.24754 0.97237 0.0
H1512 H 0.27845 0.28232 0.97252 0.0
H1513 H 0.26253 0.25713 0.97225 0.0
H1514 H 0.24466 0.26893 0.92403 0.0
H1515 H 0.2607 0.29413 0.92426 0.0
C1516 C 0.23489 0.22067 0.93334 0.0
C1517 C 0.22585 0.21555 0.94699 0.0
C1518 C 0.24345 0.23545 0.93368 0.0
C1519 C 0.24323 0.24535 0.94771 0.0
C1520 C 0.23434 0.24012 0.96142 0.0
C1521 C 0.22569 0.2254 0.96105 0.0
C1522 C 0.27102 0.2796 0.96192 0.0
C1523 C 0.27083 0.29018 0.9484 0.0
C1524 C 0.26186 0.2652 0.96179 0.0
C1525 C 0.2524 0.26101 0.94809 0.0
C1526 C 0.25199 0.27174 0.93468 0.0
C1527 C 0.26107 0.28622 0.93486 0.0
H1528 H 0.03998 0.48449 0.16661 0.0
H1529 H 0.0314 0.46912 0.21635 0.0
H1530 H 0.01437 0.49981 0.16692 0.0
H1531 H 0.00579 0.4845 0.21666 0.0
H1532 H 0.97215 0.5303 0.21538 0.0
H1533 H 0.99741 0.5144 0.21528 0.0
H1534 H 0.98404 0.49344 0.16876 0.0
H1535 H 0.95873 0.5093 0.16886 0.0
C1536 C 0.03262 0.48439 0.1776 0.0
C1537 C 0.03767 0.47563 0.19146 0.0
C1538 C 0.01794 0.49308 0.17774 0.0
C1539 C 0.00812 0.49332 0.19181 0.0
C1540 C 0.0132 0.48461 0.2057 0.0
C1541 C 0.0278 0.47577 0.20549 0.0
C1542 C 0.97459 0.52227 0.20516 0.0
C1543 C 0.9635 0.52104 0.19212 0.0
C1544 C 0.989 0.51312 0.20514 0.0
C1545 C 0.99267 0.50272 0.192 0.0
C1546 C 0.98157 0.50148 0.17897 0.0
C1547 C 0.96707 0.51049 0.17907 0.0
H1548 H 0.74959 0.2077 0.43306 0.0
H1549 H 0.70765 0.22916 0.4568 0.0
H1550 H 0.76387 0.23389 0.43466 0.0
H1551 H 0.72189 0.25544 0.45818 0.0
H1552 H 0.74837 0.30266 0.43771 0.0
H1553 H 0.73316 0.27684 0.43713 0.0
H1554 H 0.77456 0.252 0.45834 0.0
H1555 H 0.78963 0.2777 0.45915 0.0
C1556 C 0.74342 0.21802 0.43859 0.0
C1557 C 0.72754 0.21639 0.44485 0.0
C1558 C 0.7516 0.23297 0.43956 0.0
C1559 C 0.74397 0.24665 0.44656 0.0
C1560 C 0.72801 0.24509 0.45265 0.0
C1561 C 0.71992 0.23005 0.45193 0.0
C1562 C 0.75414 0.2917 0.44236 0.0
C1563 C 0.77017 0.29218 0.44846 0.0
C1564 C 0.74544 0.27697 0.44207 0.0
C1565 C 0.75275 0.26244 0.4476 0.0
C1566 C 0.76871 0.26299 0.45386 0.0
C1567 C 0.77728 0.27772 0.4544 0.0
H1568 H 0.32973 0.9524 0.9844 0.0
H1569 H 0.28006 0.96409 0.97093 0.0
H1570 H 0.33096 0.97707 0.00118 0.0
H1571 H 0.28132 0.98875 0.98767 0.0
H1572 H 0.28538 0.02379 0.0314 0.0
H1573 H 0.28384 0.99781 0.01677 0.0
H1574 H 0.3311 0.00713 0.99529 0.0
H1575 H 0.33267 0.03307 0.00992 0.0
C1576 C 0.31903 0.96015 0.98516 0.0
C1577 C 0.30481 0.95635 0.97633 0.0
C1578 C 0.31978 0.97432 0.99467 0.0
C1579 C 0.30627 0.98488 0.99565 0.0
C1580 C 0.29188 0.98079 0.98724 0.0
C1581 C 0.29118 0.9667 0.97762 0.0
C1582 C 0.29544 0.02027 0.02357 0.0
C1583 C 0.30913 0.03047 0.02177 0.0
C1584 C 0.29454 0.00543 0.01516 0.0
C1585 C 0.30737 0.00042 0.00492 0.0
C1586 C 0.32112 0.01057 0.00325 0.0
C1587 C 0.32196 0.02547 0.01153 0.0
H1588 H 0.83101 0.03922 0.51125 0.0
H1589 H 0.78607 0.02491 0.5349 0.0
H1590 H 0.83099 0.01364 0.49582 0.0
H1591 H 0.78607 0.99938 0.51947 0.0
H1592 H 0.78277 0.96596 0.47372 0.0
H1593 H 0.78285 0.99087 0.49015 0.0
H1594 H 0.83388 0.9834 0.50126 0.0
H1595 H 0.83381 0.95846 0.48483 0.0
C1596 C 0.82114 0.03062 0.51314 0.0
C1597 C 0.80854 0.03407 0.52425 0.0
C1598 C 0.82119 0.01594 0.50439 0.0
C1599 C 0.80853 0.00452 0.50646 0.0
C1600 C 0.7959 0.00801 0.51754 0.0
C1601 C 0.79595 0.0226 0.5264 0.0
C1602 C 0.79397 0.96958 0.47976 0.0
C1603 C 0.80828 0.96028 0.47799 0.0
C1604 C 0.794 0.9838 0.48921 0.0
C1605 C 0.80839 0.9891 0.49693 0.0
C1606 C 0.82266 0.97969 0.4953 0.0
C1607 C 0.82258 0.96537 0.48599 0.0
H1608 H 0.29339 0.06366 0.74694 0.0
H1609 H 0.26765 0.04501 0.70482 0.0
H1610 H 0.26798 0.06334 0.7626 0.0
H1611 H 0.24216 0.04489 0.72048 0.0
H1612 H 0.19848 0.06769 0.75053 0.0
H1613 H 0.22349 0.06682 0.73407 0.0
H1614 H 0.2482 0.04116 0.77295 0.0
H1615 H 0.22327 0.04184 0.78929 0.0
C1616 C 0.2823 0.05949 0.74104 0.0
C1617 C 0.28249 0.05433 0.72469 0.0
C1618 C 0.26779 0.05925 0.75001 0.0
C1619 C 0.25313 0.05408 0.74273 0.0
C1620 C 0.25328 0.04902 0.72634 0.0
C1621 C 0.26786 0.04901 0.71744 0.0
C1622 C 0.20923 0.06178 0.75548 0.0
C1623 C 0.20894 0.05485 0.77118 0.0
C1624 C 0.22349 0.06123 0.74606 0.0
C1625 C 0.23776 0.05399 0.7523 0.0
C1626 C 0.23741 0.04695 0.76793 0.0
C1627 C 0.22311 0.04727 0.77722 0.0
H1628 H 0.17221 0.45656 0.00533 0.0
H1629 H 0.21883 0.46876 0.02682 0.0
H1630 H 0.1721 0.48269 0.99082 0.0
H1631 H 0.21871 0.49482 0.0123 0.0
H1632 H 0.21915 0.53257 0.9702 0.0
H1633 H 0.21989 0.50589 0.98361 0.0
H1634 H 0.16991 0.51235 0.99917 0.0
H1635 H 0.16916 0.53903 0.98581 0.0
C1636 C 0.1825 0.46475 0.00682 0.0
C1637 C 0.19552 0.46064 0.01722 0.0
C1638 C 0.18237 0.47974 0.99862 0.0
C1639 C 0.19535 0.49082 0.00051 0.0
C1640 C 0.20859 0.48649 0.01054 0.0
C1641 C 0.20863 0.47159 0.01887 0.0
C1642 C 0.20834 0.52831 0.97654 0.0
C1643 C 0.1941 0.53789 0.97699 0.0
C1644 C 0.20878 0.51306 0.98424 0.0
C1645 C 0.19493 0.50701 0.99236 0.0
C1646 C 0.1807 0.51662 0.99283 0.0
C1647 C 0.18032 0.53194 0.98529 0.0
H1648 H 0.29891 0.92057 0.25761 0.0
H1649 H 0.28645 0.96831 0.2763 0.0
H1650 H 0.27345 0.92011 0.24194 0.0
H1651 H 0.26108 0.96786 0.26062 0.0
H1652 H 0.2251 0.967 0.21727 0.0
H1653 H 0.25145 0.96775 0.23129 0.0
H1654 H 0.24332 0.91883 0.24925 0.0
H1655 H 0.21693 0.91808 0.23527 0.0
C1656 C 0.29082 0.93102 0.25823 0.0
C1657 C 0.29464 0.94447 0.26818 0.0
C1658 C 0.27621 0.93071 0.24937 0.0
C1659 C 0.26527 0.94392 0.25013 0.0
C1660 C 0.26933 0.95756 0.25972 0.0
C1661 C 0.28383 0.95779 0.26873 0.0
C1662 C 0.22894 0.95641 0.22421 0.0
C1663 C 0.21895 0.94249 0.22521 0.0
C1664 C 0.24399 0.95687 0.23227 0.0
C1665 C 0.24944 0.94334 0.24132 0.0
C1666 C 0.2395 0.92937 0.24221 0.0
C1667 C 0.22436 0.92898 0.23431 0.0
H1668 H 0.7085 0.9762 0.04198 0.0
H1669 H 0.68108 0.95383 0.00283 0.0
H1670 H 0.70937 0.00187 0.02667 0.0
H1671 H 0.68216 0.97943 0.98746 0.0
H1672 H 0.70541 0.02276 0.95886 0.0
H1673 H 0.70502 0.99715 0.97425 0.0
H1674 H 0.68762 0.02295 0.01681 0.0
H1675 H 0.68779 0.04856 0.00138 0.0
C1676 C 0.70273 0.97676 0.03008 0.0
C1677 C 0.69472 0.96305 0.02358 0.0
C1678 C 0.70316 0.99144 0.02138 0.0
C1679 C 0.69584 0.99258 0.00591 0.0
C1680 C 0.68799 0.97882 0.99933 0.0
C1681 C 0.68732 0.96422 0.00814 0.0
C1682 C 0.70154 0.02296 0.97151 0.0
C1683 C 0.69662 0.03762 0.97894 0.0
C1684 C 0.70124 0.00831 0.98027 0.0
C1685 C 0.69628 0.00812 0.99668 0.0
C1686 C 0.69159 0.02281 0.00419 0.0
C1687 C 0.69162 0.03742 0.99535 0.0
H1688 H 0.28362 0.46644 0.77969 0.0
H1689 H 0.29564 0.41835 0.76161 0.0
H1690 H 0.25813 0.46593 0.76418 0.0
H1691 H 0.27006 0.41782 0.74614 0.0
H1692 H 0.21358 0.4162 0.73917 0.0
H1693 H 0.23985 0.41694 0.75341 0.0
H1694 H 0.24859 0.4655 0.73479 0.0
H1695 H 0.22239 0.46476 0.7205 0.0
C1696 C 0.28086 0.45582 0.7723 0.0
C1697 C 0.29161 0.44244 0.77186 0.0
C1698 C 0.2663 0.45555 0.76339 0.0
C1699 C 0.26209 0.44181 0.75402 0.0
C1700 C 0.27293 0.4285 0.7534 0.0
C1701 C 0.28761 0.42886 0.76215 0.0
C1702 C 0.22111 0.42703 0.73814 0.0
C1703 C 0.21593 0.44043 0.72875 0.0
C1704 C 0.23618 0.4274 0.74619 0.0
C1705 C 0.24627 0.44126 0.74517 0.0
C1706 C 0.24102 0.4547 0.73587 0.0
C1707 C 0.22605 0.45425 0.72766 0.0
H1708 H 0.72621 0.0356 0.28487 0.0
H1709 H 0.71281 0.07931 0.25851 0.0
H1710 H 0.75236 0.03492 0.27049 0.0
H1711 H 0.73901 0.07865 0.24418 0.0
H1712 H 0.79437 0.08092 0.23462 0.0
H1713 H 0.7692 0.08172 0.25071 0.0
H1714 H 0.76163 0.03036 0.24138 0.0
H1715 H 0.78672 0.02957 0.22525 0.0
C1716 C 0.72886 0.04507 0.27602 0.0
C1717 C 0.71746 0.05749 0.27278 0.0
C1718 C 0.7438 0.04465 0.26776 0.0
C1719 C 0.74772 0.05675 0.25624 0.0
C1720 C 0.73638 0.06926 0.25312 0.0
C1721 C 0.72135 0.06957 0.26124 0.0
C1722 C 0.78741 0.06978 0.23615 0.0
C1723 C 0.79249 0.05519 0.22867 0.0
C1724 C 0.77296 0.07026 0.24525 0.0
C1725 C 0.76343 0.05612 0.24723 0.0
C1726 C 0.76878 0.04142 0.24015 0.0
C1727 C 0.78311 0.04098 0.23089 0.0
H1728 H 0.93469 0.74948 0.79521 0.0
H1729 H 0.95128 0.79295 0.77033 0.0
H1730 H 0.93589 0.73433 0.76947 0.0
H1731 H 0.95233 0.77782 0.74459 0.0
H1732 H 0.93278 0.74793 0.69982 0.0
H1733 H 0.93197 0.76368 0.72525 0.0
H1734 H 0.95853 0.72532 0.74984 0.0
H1735 H 0.9595 0.70968 0.72447 0.0
C1736 C 0.93854 0.75579 0.78424 0.0
C1737 C 0.94292 0.77237 0.78477 0.0
C1738 C 0.93931 0.74712 0.76955 0.0
C1739 C 0.94423 0.75491 0.75506 0.0
C1740 C 0.9484 0.77155 0.75556 0.0
C1741 C 0.94787 0.78016 0.7703 0.0
C1742 C 0.93853 0.74294 0.71063 0.0
C1743 C 0.94621 0.72759 0.71016 0.0
C1744 C 0.9381 0.75195 0.72516 0.0
C1745 C 0.94511 0.74566 0.73952 0.0
C1746 C 0.95288 0.73038 0.73899 0.0
C1747 C 0.95352 0.72149 0.72445 0.0
H1748 H 0.03405 0.71518 0.2749 0.0
H1749 H 0.07939 0.73896 0.28766 0.0
H1750 H 0.0338 0.72972 0.24878 0.0
H1751 H 0.07919 0.75336 0.26152 0.0
H1752 H 0.08155 0.76236 0.20613 0.0
H1753 H 0.08144 0.74613 0.23123 0.0
H1754 H 0.03112 0.75946 0.23964 0.0
H1755 H 0.03124 0.77578 0.21464 0.0
C1756 C 0.04396 0.7235 0.27212 0.0
C1757 C 0.05672 0.72597 0.28332 0.0
C1758 C 0.04379 0.73183 0.2572 0.0
C1759 C 0.05651 0.7426 0.25311 0.0
C1760 C 0.06932 0.74499 0.26429 0.0
C1761 C 0.06937 0.73684 0.27928 0.0
C1762 C 0.07043 0.76168 0.21326 0.0
C1763 C 0.05641 0.77035 0.20846 0.0
C1764 C 0.0704 0.75249 0.22766 0.0
C1765 C 0.0563 0.75161 0.2374 0.0
C1766 C 0.04213 0.75985 0.23231 0.0
C1767 C 0.04222 0.76922 0.21804 0.0
H1768 H 0.53389 0.77956 0.71963 0.0
H1769 H 0.58364 0.76554 0.70898 0.0
H1770 H 0.53473 0.7634 0.7447 0.0
H1771 H 0.58446 0.74939 0.73407 0.0
H1772 H 0.58439 0.73826 0.78958 0.0
H1773 H 0.58367 0.75447 0.7645 0.0
H1774 H 0.53673 0.73366 0.75238 0.0
H1775 H 0.53744 0.71746 0.77741 0.0
C1776 C 0.54499 0.77302 0.72264 0.0
C1777 C 0.55869 0.77379 0.71235 0.0
C1778 C 0.54544 0.76372 0.73695 0.0
C1779 C 0.55966 0.75515 0.74132 0.0
C1780 C 0.57339 0.75599 0.73106 0.0
C1781 C 0.57289 0.76516 0.71667 0.0
C1782 C 0.57393 0.73716 0.78155 0.0
C1783 C 0.56098 0.72661 0.78543 0.0
C1784 C 0.57356 0.74636 0.76717 0.0
C1785 C 0.56014 0.74532 0.75651 0.0
C1786 C 0.54716 0.73482 0.76045 0.0
C1787 C 0.54761 0.72549 0.77473 0.0
H1788 H 0.46316 0.70751 0.22638 0.0
H1789 H 0.4378 0.74636 0.20122 0.0
H1790 H 0.46279 0.72353 0.25155 0.0
H1791 H 0.43761 0.76248 0.22643 0.0
H1792 H 0.45796 0.79164 0.27107 0.0
H1793 H 0.45881 0.77603 0.24561 0.0
H1794 H 0.44012 0.73371 0.27092 0.0
H1795 H 0.43908 0.74936 0.29637 0.0
C1796 C 0.45762 0.71952 0.2262 0.0
C1797 C 0.4505 0.7257 0.21185 0.0
C1798 C 0.45732 0.72863 0.24062 0.0
C1799 C 0.45012 0.7442 0.24093 0.0
C1800 C 0.44331 0.75054 0.22649 0.0
C1801 C 0.44338 0.74131 0.21211 0.0
C1802 C 0.45404 0.779 0.2712 0.0
C1803 C 0.44846 0.77169 0.28569 0.0
C1804 C 0.45445 0.77011 0.25662 0.0
C1805 C 0.44955 0.75368 0.25633 0.0
C1806 C 0.44409 0.74634 0.27085 0.0
C1807 C 0.44343 0.7553 0.28538 0.0
H1808 H 0.29483 0.73145 0.05185 0.0
H1809 H 0.25127 0.70775 0.06984 0.0
H1810 H 0.27998 0.75731 0.04994 0.0
H1811 H 0.2364 0.73359 0.06776 0.0
H1812 H 0.21198 0.77718 0.04144 0.0
H1813 H 0.22758 0.7519 0.04389 0.0
H1814 H 0.26582 0.77786 0.06926 0.0
H1815 H 0.2501 0.80325 0.06697 0.0
C1816 C 0.2821 0.73179 0.05544 0.0
C1817 C 0.27418 0.71759 0.06096 0.0
C1818 C 0.27364 0.74659 0.0544 0.0
C1819 C 0.25704 0.74742 0.05864 0.0
C1820 C 0.24916 0.73324 0.06428 0.0
C1821 C 0.25768 0.71849 0.06555 0.0
C1822 C 0.22376 0.77754 0.04745 0.0
C1823 C 0.22983 0.79219 0.05401 0.0
C1824 C 0.23262 0.76304 0.04896 0.0
C1825 C 0.24784 0.76292 0.05686 0.0
C1826 C 0.25413 0.77764 0.06307 0.0
C1827 C 0.24514 0.79214 0.06178 0.0
H1828 H 0.78296 0.72204 0.53763 0.0
H1829 H 0.75944 0.70839 0.58284 0.0
H1830 H 0.76828 0.74804 0.53783 0.0
H1831 H 0.74486 0.73449 0.58309 0.0
H1832 H 0.73721 0.79079 0.58561 0.0
H1833 H 0.75228 0.76496 0.58559 0.0
H1834 H 0.73836 0.75688 0.53537 0.0
H1835 H 0.7232 0.78259 0.5354 0.0
C1836 C 0.77468 0.72461 0.54762 0.0
C1837 C 0.77231 0.7132 0.56021 0.0
C1838 C 0.76624 0.73945 0.54769 0.0
C1839 C 0.75546 0.74325 0.56048 0.0
C1840 C 0.7532 0.7319 0.57315 0.0
C1841 C 0.76147 0.71696 0.57296 0.0
C1842 C 0.73742 0.78351 0.57457 0.0
C1843 C 0.72905 0.78868 0.56051 0.0
C1844 C 0.74595 0.76871 0.57459 0.0
C1845 C 0.74646 0.75895 0.56049 0.0
C1846 C 0.73826 0.76424 0.54637 0.0
C1847 C 0.72954 0.7789 0.54642 0.0
H1848 H 0.24663 0.70711 0.43232 0.0
H1849 H 0.2058 0.7325 0.45405 0.0
H1850 H 0.26279 0.73221 0.4334 0.0
H1851 H 0.22194 0.75772 0.45484 0.0
H1852 H 0.25318 0.80174 0.43299 0.0
H1853 H 0.23586 0.77726 0.43281 0.0
H1854 H 0.27379 0.75025 0.45753 0.0
H1855 H 0.29094 0.77464 0.458 0.0
C1856 C 0.2411 0.71807 0.43725 0.0
C1857 C 0.22499 0.71787 0.44314 0.0
C1858 C 0.25035 0.73239 0.43793 0.0
C1859 C 0.24359 0.74685 0.44423 0.0
C1860 C 0.22739 0.74674 0.44987 0.0
C1861 C 0.21822 0.73232 0.44948 0.0
C1862 C 0.25772 0.7906 0.4385 0.0
C1863 C 0.27339 0.79008 0.4455 0.0
C1864 C 0.24782 0.77665 0.43843 0.0
C1865 C 0.25357 0.7619 0.44507 0.0
C1866 C 0.26915 0.76145 0.45222 0.0
C1867 C 0.2789 0.77543 0.45255 0.0
H1868 H 0.72094 0.71873 0.9679 0.0
H1869 H 0.73409 0.71283 0.91715 0.0
H1870 H 0.73606 0.74445 0.96883 0.0
H1871 H 0.74926 0.73851 0.91811 0.0
H1872 H 0.75987 0.79335 0.92144 0.0
H1873 H 0.74364 0.7683 0.92112 0.0
H1874 H 0.76492 0.75392 0.96721 0.0
H1875 H 0.78109 0.77898 0.96757 0.0
C1876 C 0.7271 0.72291 0.95696 0.0
C1877 C 0.72635 0.71377 0.94245 0.0
C1878 C 0.73579 0.7376 0.95751 0.0
C1879 C 0.7438 0.74352 0.94353 0.0
C1880 C 0.74304 0.73436 0.92903 0.0
C1881 C 0.73446 0.71961 0.92851 0.0
C1882 C 0.76097 0.7849 0.93157 0.0
C1883 C 0.77176 0.78811 0.94452 0.0
C1884 C 0.75177 0.77051 0.93132 0.0
C1885 C 0.75308 0.7591 0.9441 0.0
C1886 C 0.76357 0.76253 0.95725 0.0
C1887 C 0.77286 0.77685 0.95743 0.0
H1888 H 0.28107 0.52381 0.53153 0.0
H1889 H 0.3289 0.53337 0.51143 0.0
H1890 H 0.28058 0.49731 0.51773 0.0
H1891 H 0.32843 0.50685 0.49773 0.0
H1892 H 0.32826 0.45125 0.48964 0.0
H1893 H 0.32841 0.47669 0.50537 0.0
H1894 H 0.27967 0.48751 0.48836 0.0
H1895 H 0.27953 0.46219 0.47261 0.0
C1896 C 0.29147 0.52024 0.52417 0.0
C1897 C 0.305 0.53067 0.52251 0.0
C1898 C 0.29117 0.5051 0.51626 0.0
C1899 C 0.30449 0.5 0.50671 0.0
C1900 C 0.31807 0.51039 0.50516 0.0
C1901 C 0.31828 0.52561 0.5129 0.0
C1902 C 0.31752 0.45898 0.48942 0.0
C1903 C 0.30389 0.45476 0.47988 0.0
C1904 C 0.31766 0.47358 0.49832 0.0
C1905 C 0.30408 0.4841 0.49802 0.0
C1906 C 0.29026 0.47959 0.48891 0.0
C1907 C 0.29021 0.46512 0.47985 0.0
H1908 H 0.82995 0.45966 0.99336 0.0
H1909 H 0.7872 0.47504 0.9665 0.0
H1910 H 0.82975 0.48545 0.0084 0.0
H1911 H 0.787 0.50081 0.98158 0.0
H1912 H 0.78185 0.53437 0.02735 0.0
H1913 H 0.78217 0.5095 0.01085 0.0
H1914 H 0.83391 0.51559 0.00261 0.0
H1915 H 0.83361 0.5405 0.01908 0.0
C1916 C 0.82053 0.46855 0.99067 0.0
C1917 C 0.80857 0.46534 0.97879 0.0
C1918 C 0.82048 0.48334 0.9992 0.0
C1919 C 0.80837 0.49512 0.99613 0.0
C1920 C 0.7964 0.49189 0.98426 0.0
C1921 C 0.79656 0.47718 0.97561 0.0
C1922 C 0.79326 0.53046 0.02191 0.0
C1923 C 0.80771 0.53935 0.02451 0.0
C1924 C 0.79343 0.51627 0.01243 0.0
C1925 C 0.80807 0.5106 0.00551 0.0
C1926 C 0.82248 0.5196 0.00794 0.0
C1927 C 0.82228 0.5339 0.01727 0.0
H1928 H 0.2829 0.53122 0.22254 0.0
H1929 H 0.29647 0.579 0.24034 0.0
H1930 H 0.25853 0.53173 0.23975 0.0
H1931 H 0.27206 0.57951 0.25753 0.0
H1932 H 0.21626 0.58198 0.26749 0.0
H1933 H 0.24175 0.58096 0.25203 0.0
H1934 H 0.25047 0.53196 0.26954 0.0
H1935 H 0.22497 0.53298 0.28505 0.0
C1936 C 0.28075 0.54176 0.23024 0.0
C1937 C 0.29156 0.55508 0.23008 0.0
C1938 C 0.26683 0.54202 0.24012 0.0
C1939 C 0.26337 0.55569 0.24991 0.0
C1940 C 0.27435 0.56889 0.24997 0.0
C1941 C 0.28835 0.56855 0.24022 0.0
C1942 C 0.22363 0.57101 0.26806 0.0
C1943 C 0.21863 0.55755 0.27745 0.0
C1944 C 0.23827 0.57046 0.2593 0.0
C1945 C 0.2481 0.55639 0.25962 0.0
C1946 C 0.24308 0.54292 0.26899 0.0
C1947 C 0.22852 0.54353 0.27791 0.0
H1948 H 0.20883 0.9754 0.53986 0.0
H1949 H 0.18243 0.95279 0.50015 0.0
H1950 H 0.20838 0.00148 0.5253 0.0
H1951 H 0.18213 0.97887 0.48554 0.0
H1952 H 0.20258 0.02407 0.45797 0.0
H1953 H 0.20331 0.99801 0.47254 0.0
H1954 H 0.18632 0.02199 0.51632 0.0
H1955 H 0.18543 0.04807 0.50172 0.0
C1956 C 0.20299 0.976 0.528 0.0
C1957 C 0.19566 0.96208 0.52112 0.0
C1958 C 0.20266 0.99093 0.51972 0.0
C1959 C 0.19522 0.99217 0.50431 0.0
C1960 C 0.18806 0.97821 0.49736 0.0
C1961 C 0.18817 0.96333 0.50574 0.0
C1962 C 0.19902 0.02378 0.47071 0.0
C1963 C 0.19395 0.03808 0.47873 0.0
C1964 C 0.19936 0.00886 0.47901 0.0
C1965 C 0.19487 0.008 0.49554 0.0
C1966 C 0.18996 0.02234 0.50361 0.0
C1967 C 0.18939 0.03723 0.49524 0.0
H1968 H 0.66541 0.53283 0.48917 0.0
H1969 H 0.71442 0.52543 0.47108 0.0
H1970 H 0.66674 0.50665 0.50344 0.0
H1971 H 0.71575 0.49924 0.48541 0.0
H1972 H 0.71673 0.46436 0.5307 0.0
H1973 H 0.71605 0.48959 0.51477 0.0
H1974 H 0.66842 0.47661 0.49619 0.0
H1975 H 0.6691 0.45132 0.51209 0.0
C1976 C 0.67647 0.52562 0.48828 0.0
C1977 C 0.68982 0.53118 0.47904 0.0
C1978 C 0.67718 0.51059 0.49633 0.0
C1979 C 0.69132 0.50089 0.49547 0.0
C1980 C 0.70473 0.50651 0.48635 0.0
C1981 C 0.70395 0.52147 0.47813 0.0
C1982 C 0.70619 0.46682 0.52308 0.0
C1983 C 0.69295 0.4559 0.52266 0.0
C1984 C 0.70583 0.48123 0.51393 0.0
C1985 C 0.69214 0.4851 0.50433 0.0
C1986 C 0.67905 0.47401 0.50364 0.0
C1987 C 0.67949 0.4595 0.51264 0.0
H1988 H 0.70294 0.56207 0.74567 0.0
H1989 H 0.72802 0.54912 0.79026 0.0
H1990 H 0.72883 0.56073 0.73078 0.0
H1991 H 0.75392 0.54803 0.77539 0.0
H1992 H 0.79787 0.56813 0.74406 0.0
H1993 H 0.77236 0.56878 0.75971 0.0
H1994 H 0.7495 0.53769 0.72379 0.0
H1995 H 0.77497 0.53682 0.70828 0.0
C1996 C 0.71399 0.55899 0.75228 0.0
C1997 C 0.71348 0.55566 0.7691 0.0
C1998 C 0.72876 0.55816 0.74376 0.0
C1999 C 0.74334 0.55426 0.75196 0.0
C2000 C 0.74286 0.55114 0.76881 0.0
C2001 C 0.72805 0.5517 0.77728 0.0
C2002 C 0.78743 0.56133 0.7396 0.0
C2003 C 0.7884 0.55241 0.72497 0.0
C2004 C 0.77288 0.56168 0.74856 0.0
C2005 C 0.75897 0.55336 0.74289 0.0
C2006 C 0.76 0.54434 0.72834 0.0
C2007 C 0.77461 0.54376 0.71954 0.0
H2008 H 0.51133 0.33273 0.53813 0.0
H2009 H 0.52749 0.28349 0.52816 0.0
H2010 H 0.4954 0.3326 0.51286 0.0
H2011 H 0.51163 0.2834 0.50291 0.0
H2012 H 0.4663 0.28312 0.46978 0.0
H2013 H 0.48225 0.28371 0.49493 0.0
H2014 H 0.50008 0.33179 0.48255 0.0
H2015 H 0.48403 0.33124 0.45733 0.0
C2016 C 0.51148 0.3219 0.53053 0.0
C2017 C 0.52062 0.30811 0.53513 0.0
C2018 C 0.50245 0.32186 0.51603 0.0
C2019 C 0.50226 0.30798 0.50593 0.0
C2020 C 0.51141 0.2942 0.51054 0.0
C2021 C 0.52054 0.29429 0.52496 0.0
C2022 C 0.4736 0.29383 0.47243 0.0
C2023 C 0.47392 0.30714 0.46159 0.0
C2024 C 0.48281 0.29412 0.48678 0.0
C2025 C 0.49244 0.30778 0.49069 0.0
C2026 C 0.49266 0.32116 0.47992 0.0
C2027 C 0.48354 0.32081 0.46546 0.0
H2028 H 0.50472 0.18339 0.95355 0.0
H2029 H 0.54144 0.21148 0.979 0.0
H2030 H 0.48821 0.18251 0.97849 0.0
H2031 H 0.52503 0.21044 0.00387 0.0
H2032 H 0.50045 0.18595 0.04867 0.0
H2033 H 0.51621 0.18746 0.02334 0.0
H2034 H 0.47299 0.20277 0.99728 0.0
H2035 H 0.45724 0.20142 0.02262 0.0
C2036 C 0.5092 0.18945 0.96443 0.0
C2037 C 0.52435 0.1975 0.96435 0.0
C2038 C 0.49975 0.18897 0.97866 0.0
C2039 C 0.50542 0.19632 0.9931 0.0
C2040 C 0.52048 0.20453 0.99295 0.0
C2041 C 0.5298 0.20521 0.97868 0.0
C2042 C 0.49432 0.18962 0.03753 0.0
C2043 C 0.47764 0.1936 0.03761 0.0
C2044 C 0.50335 0.19056 0.02307 0.0
C2045 C 0.4958 0.19526 0.00839 0.0
C2046 C 0.47907 0.19903 0.00842 0.0
C2047 C 0.4701 0.19832 0.02293 0.0
H2048 H 0.49638 0.68462 0.44957 0.0
H2049 H 0.53909 0.6995 0.47677 0.0
H2050 H 0.48055 0.68388 0.47493 0.0
H2051 H 0.5233 0.69862 0.50207 0.0
H2052 H 0.49379 0.67557 0.54453 0.0
H2053 H 0.50927 0.67634 0.51901 0.0
H2054 H 0.47086 0.70464 0.49651 0.0
H2055 H 0.45541 0.70401 0.52208 0.0
C2056 C 0.50237 0.68772 0.46096 0.0
C2057 C 0.51895 0.69212 0.46122 0.0
C2058 C 0.4933 0.68737 0.47543 0.0
C2059 C 0.50073 0.69116 0.49043 0.0
C2060 C 0.51732 0.69551 0.49068 0.0
C2061 C 0.52631 0.69609 0.4762 0.0
C2062 C 0.48866 0.68195 0.53413 0.0
C2063 C 0.47342 0.68976 0.53528 0.0
C2064 C 0.49754 0.68244 0.51957 0.0
C2065 C 0.49125 0.69056 0.50582 0.0
C2066 C 0.47593 0.69821 0.50691 0.0
C2067 C 0.46715 0.69791 0.52154 0.0
H2068 H 0.48397 0.83356 0.95789 0.0
H2069 H 0.4746 0.78209 0.96475 0.0
H2070 H 0.49914 0.83421 0.98362 0.0
H2071 H 0.48977 0.78275 0.99044 0.0
H2072 H 0.53276 0.78773 0.02663 0.0
H2073 H 0.51844 0.78706 0.00046 0.0
H2074 H 0.49244 0.83106 0.01353 0.0
H2075 H 0.50677 0.83173 0.03975 0.0
C2076 C 0.48526 0.82237 0.96483 0.0
C2077 C 0.47811 0.80777 0.95931 0.0
C2078 C 0.49384 0.82277 0.9796 0.0
C2079 C 0.49559 0.80854 0.98906 0.0
C2080 C 0.48873 0.79388 0.98336 0.0
C2081 C 0.48001 0.79351 0.96868 0.0
C2082 C 0.52397 0.79724 0.02392 0.0
C2083 C 0.52086 0.80978 0.03524 0.0
C2084 C 0.51574 0.79682 0.00897 0.0
C2085 C 0.50435 0.80902 0.00494 0.0
C2086 C 0.50128 0.82159 0.01624 0.0
C2087 C 0.5094 0.82192 0.03128 0.0
H2088 H 0.47667 0.9594 0.79736 0.0
H2089 H 0.45294 0.00325 0.81465 0.0
H2090 H 0.50293 0.97364 0.79726 0.0
H2091 H 0.47918 0.01748 0.81448 0.0
H2092 H 0.5253 0.04167 0.79369 0.0
H2093 H 0.49953 0.02676 0.79321 0.0
H2094 H 0.52244 0.98624 0.81802 0.0
H2095 H 0.54834 0.00123 0.81857 0.0
C2096 C 0.47706 0.97209 0.80111 0.0
C2097 C 0.46276 0.98024 0.80598 0.0
C2098 C 0.4921 0.98019 0.80114 0.0
C2099 C 0.49308 0.99666 0.80584 0.0
C2100 C 0.47875 0.00482 0.81065 0.0
C2101 C 0.46376 0.99667 0.81081 0.0
C2102 C 0.52489 0.02955 0.79897 0.0
C2103 C 0.53884 0.02262 0.80619 0.0
C2104 C 0.5101 0.02106 0.79878 0.0
C2105 C 0.50896 0.00539 0.80566 0.0
C2106 C 0.523 0.99828 0.81255 0.0
C2107 C 0.53779 0.00686 0.81291 0.0
H2108 H 0.52348 0.54141 0.29099 0.0
H2109 H 0.55014 0.50248 0.31465 0.0
H2110 H 0.49851 0.52518 0.29232 0.0
H2111 H 0.52506 0.48607 0.31567 0.0
H2112 H 0.47854 0.45788 0.29563 0.0
H2113 H 0.50425 0.47314 0.29419 0.0
H2114 H 0.48096 0.51453 0.31706 0.0
H2115 H 0.45535 0.49923 0.3188 0.0
C2116 C 0.52404 0.52931 0.29631 0.0
C2117 C 0.53875 0.5232 0.30273 0.0
C2118 C 0.50973 0.52008 0.29715 0.0
C2119 C 0.50989 0.50444 0.30417 0.0
C2120 C 0.52467 0.4981 0.31017 0.0
C2121 C 0.53897 0.50748 0.3096 0.0
C2122 C 0.47894 0.47023 0.30038 0.0
C2123 C 0.46496 0.4774 0.3073 0.0
C2124 C 0.49365 0.47889 0.29962 0.0
C2125 C 0.49453 0.49499 0.30547 0.0
C2126 C 0.48055 0.50216 0.31237 0.0
C2127 C 0.46594 0.4934 0.31341 0.0
H2128 H 0.52829 0.96678 0.21773 0.0
H2129 H 0.53995 0.98892 0.17128 0.0
H2130 H 0.50215 0.98123 0.21803 0.0
H2131 H 0.5138 0.00332 0.17158 0.0
H2132 H 0.45834 0.01209 0.16995 0.0
H2133 H 0.48374 0.99634 0.16999 0.0
H2134 H 0.49243 0.01041 0.22007 0.0
H2135 H 0.46709 0.02618 0.22004 0.0
C2136 C 0.52528 0.97475 0.2076 0.0
C2137 C 0.53617 0.97675 0.19449 0.0
C2138 C 0.51034 0.98304 0.2078 0.0
C2139 C 0.50591 0.99334 0.1948 0.0
C2140 C 0.5168 0.99531 0.18168 0.0
C2141 C 0.53182 0.98716 0.18157 0.0
C2142 C 0.46561 0.01169 0.18101 0.0
C2143 C 0.46075 0.02038 0.19498 0.0
C2144 C 0.48019 0.00278 0.18099 0.0
C2145 C 0.4901 0.00222 0.19501 0.0
C2146 C 0.48499 0.01053 0.20913 0.0
C2147 C 0.47052 0.0196 0.20908 0.0
H2148 H 0.53562 0.48821 0.6717 0.0
H2149 H 0.52408 0.46511 0.7177 0.0
H2150 H 0.50904 0.50185 0.67189 0.0
H2151 H 0.49754 0.47882 0.71792 0.0
H2152 H 0.4618 0.52333 0.72023 0.0
H2153 H 0.4874 0.508 0.72022 0.0
H2154 H 0.47899 0.49395 0.67009 0.0
H2155 H 0.45328 0.50924 0.67011 0.0
C2156 C 0.52742 0.48609 0.68186 0.0
C2157 C 0.53193 0.47563 0.69471 0.0
C2158 C 0.51217 0.49379 0.68191 0.0
C2159 C 0.50121 0.49135 0.6949 0.0
C2160 C 0.50578 0.48099 0.7078 0.0
C2161 C 0.52094 0.47312 0.70765 0.0
C2162 C 0.46533 0.51682 0.70927 0.0
C2163 C 0.45556 0.51748 0.69517 0.0
C2164 C 0.47995 0.50802 0.70928 0.0
C2165 C 0.48521 0.49986 0.69513 0.0
C2166 C 0.4753 0.50027 0.68111 0.0
C2167 C 0.46055 0.50891 0.68117 0.0
H2168 H 0.70087 0.92222 0.74008 0.0
H2169 H 0.71272 0.97123 0.72456 0.0
H2170 H 0.72615 0.92116 0.75597 0.0
H2171 H 0.73797 0.97015 0.74038 0.0
H2172 H 0.77439 0.96732 0.783 0.0
H2173 H 0.748 0.96864 0.7691 0.0
H2174 H 0.756 0.92037 0.74936 0.0
H2175 H 0.78236 0.91902 0.7633 0.0
C2176 C 0.70878 0.93281 0.7402 0.0
C2177 C 0.70483 0.94679 0.73106 0.0
C2178 C 0.72331 0.93217 0.7492 0.0
C2179 C 0.73408 0.94554 0.74935 0.0
C2180 C 0.72986 0.9597 0.7406 0.0
C2181 C 0.71543 0.96029 0.7315 0.0
C2182 C 0.7705 0.95699 0.7757 0.0
C2183 C 0.78045 0.94308 0.7742 0.0
C2184 C 0.75542 0.95777 0.7677 0.0
C2185 C 0.74991 0.94459 0.75817 0.0
C2186 C 0.75983 0.93063 0.75678 0.0
C2187 C 0.77497 0.92991 0.76466 0.0
H2188 H 0.78717 0.4179 0.26206 0.0
H2189 H 0.77684 0.46648 0.27987 0.0
H2190 H 0.76174 0.41825 0.24641 0.0
H2191 H 0.75143 0.46683 0.26419 0.0
H2192 H 0.71727 0.46697 0.21898 0.0
H2193 H 0.74279 0.46681 0.2345 0.0
H2194 H 0.73146 0.41862 0.25268 0.0
H2195 H 0.70592 0.41877 0.23721 0.0
C2196 C 0.77949 0.42865 0.26259 0.0
C2197 C 0.78397 0.44216 0.27218 0.0
C2198 C 0.7649 0.42882 0.25372 0.0
C2199 C 0.75461 0.44256 0.25411 0.0
C2200 C 0.7592 0.45613 0.26356 0.0
C2201 C 0.77369 0.4559 0.27259 0.0
C2202 C 0.72022 0.45636 0.22631 0.0
C2203 C 0.70962 0.44289 0.2269 0.0
C2204 C 0.73478 0.4563 0.23524 0.0
C2205 C 0.7391 0.44269 0.24476 0.0
C2206 C 0.7285 0.42921 0.24531 0.0
C2207 C 0.71386 0.42934 0.23654 0.0
H2208 H 0.034 0.27944 0.12597 0.0
H2209 H 0.03939 0.24879 0.08342 0.0
H2210 H 0.02028 0.25723 0.14036 0.0
H2211 H 0.02504 0.22658 0.09773 0.0
H2212 H 0.97114 0.21562 0.12169 0.0
H2213 H 0.99331 0.22937 0.10726 0.0
H2214 H 0.02362 0.22573 0.15025 0.0
H2215 H 0.00148 0.21138 0.1646 0.0
C2216 C 0.03253 0.26779 0.11985 0.0
C2217 C 0.03763 0.26577 0.10361 0.0
C2218 C 0.0248 0.25507 0.12811 0.0
C2219 C 0.02167 0.24023 0.12014 0.0
C2220 C 0.02745 0.23791 0.10413 0.0
C2221 C 0.03562 0.25055 0.09598 0.0
C2222 C 0.98272 0.21733 0.12789 0.0
C2223 C 0.98464 0.21257 0.14425 0.0
C2224 C 0.99542 0.22507 0.1196 0.0
C2225 C 0.01014 0.22855 0.12766 0.0
C2226 C 0.01239 0.22306 0.14378 0.0
C2227 C 0.99978 0.21488 0.15196 0.0
H2228 H 0.99809 0.28988 0.34199 0.0
H2229 H 0.95957 0.27528 0.3749 0.0
H2230 H 0.01776 0.27364 0.35805 0.0
H2231 H 0.979 0.2596 0.39092 0.0
H2232 H 0.00776 0.2127 0.39412 0.0
H2233 H 0.99219 0.23356 0.38021 0.0
H2234 H 0.03102 0.26835 0.3881 0.0
H2235 H 0.04701 0.24706 0.40229 0.0
C2236 C 0.99396 0.28358 0.35286 0.0
C2237 C 0.97731 0.2835 0.35705 0.0
C2238 C 0.00517 0.27437 0.36205 0.0
C2239 C 0.9998 0.26516 0.37552 0.0
C2240 C 0.98341 0.26632 0.3804 0.0
C2241 C 0.97229 0.27528 0.37122 0.0
C2242 C 0.0131 0.22476 0.39295 0.0
C2243 C 0.02858 0.22827 0.39946 0.0
C2244 C 0.00411 0.23674 0.385 0.0
C2245 C 0.0103 0.25263 0.3833 0.0
C2246 C 0.02599 0.25618 0.38933 0.0
C2247 C 0.03506 0.24406 0.39747 0.0
H2248 H 0.98613 0.2324 0.58343 0.0
H2249 H 0.94574 0.23907 0.61666 0.0
H2250 H 0.00257 0.25126 0.59944 0.0
H2251 H 0.9625 0.25799 0.63302 0.0
H2252 H 0.00209 0.29914 0.65009 0.0
H2253 H 0.98134 0.2859 0.63268 0.0
H2254 H 0.01228 0.2434 0.62854 0.0
H2255 H 0.03264 0.2563 0.64567 0.0
C2256 C 0.98065 0.23822 0.59398 0.0
C2257 C 0.96478 0.23412 0.59897 0.0
C2258 C 0.99006 0.24898 0.60315 0.0
C2259 C 0.98389 0.25579 0.61762 0.0
C2260 C 0.96751 0.25288 0.6219 0.0
C2261 C 0.95796 0.24209 0.61257 0.0
C2262 C 0.00432 0.28692 0.64552 0.0
C2263 C 0.01905 0.27882 0.64911 0.0
C2264 C 0.99248 0.27939 0.63562 0.0
C2265 C 0.99539 0.26378 0.62907 0.0
C2266 C 0.00987 0.25557 0.63316 0.0
C2267 C 0.02151 0.26296 0.64305 0.0
H2268 H 0.96244 0.27859 0.87519 0.0
H2269 H 0.95662 0.24824 0.91789 0.0
H2270 H 0.97638 0.25631 0.86114 0.0
H2271 H 0.97116 0.22596 0.90393 0.0
H2272 H 0.02577 0.21584 0.88154 0.0
H2273 H 0.00275 0.22881 0.89533 0.0
H2274 H 0.97415 0.22505 0.85119 0.0
H2275 H 0.99719 0.21146 0.83749 0.0
C2276 C 0.96384 0.26698 0.88141 0.0
C2277 C 0.9586 0.2651 0.89762 0.0
C2278 C 0.97168 0.25421 0.87333 0.0
C2279 C 0.97479 0.23944 0.88146 0.0
C2280 C 0.96878 0.23722 0.8974 0.0
C2281 C 0.96051 0.24992 0.90536 0.0
C2282 C 0.01437 0.21729 0.87498 0.0
C2283 C 0.01318 0.21276 0.85849 0.0
C2284 C 0.00118 0.22459 0.88288 0.0
C2285 C 0.98671 0.22789 0.87431 0.0
C2286 C 0.98517 0.22251 0.85806 0.0
C2287 C 0.99829 0.21476 0.85025 0.0
H2288 H 0.05386 0.73838 0.88072 0.0
H2289 H 0.01412 0.74367 0.91492 0.0
H2290 H 0.04202 0.76008 0.86372 0.0
H2291 H 0.00256 0.7655 0.89826 0.0
H2292 H 0.98531 0.80638 0.86712 0.0
H2293 H 0.00647 0.79412 0.8845 0.0
H2294 H 0.01419 0.75647 0.84839 0.0
H2295 H 0.99288 0.76843 0.83135 0.0
C2296 C 0.04296 0.74462 0.88491 0.0
C2297 C 0.0348 0.73932 0.89903 0.0
C2298 C 0.03618 0.75697 0.87518 0.0
C2299 C 0.02137 0.76444 0.87967 0.0
C2300 C 0.01407 0.7601 0.89458 0.0
C2301 C 0.02062 0.74754 0.90407 0.0
C2302 C 0.99198 0.79584 0.86269 0.0
C2303 C 0.98746 0.78825 0.84799 0.0
C2304 C 0.00401 0.7888 0.87264 0.0
C2305 C 0.01193 0.77433 0.8678 0.0
C2306 C 0.00843 0.76771 0.85236 0.0
C2307 C 0.99618 0.7745 0.84264 0.0
H2308 H 0.50897 0.30631 0.12999 0.0
H2309 H 0.50649 0.26623 0.16413 0.0
H2310 H 0.4868 0.29395 0.11398 0.0
H2311 H 0.4842 0.25417 0.1485 0.0
H2312 H 0.44262 0.23575 0.11942 0.0
H2313 H 0.45476 0.25754 0.13608 0.0
H2314 H 0.49077 0.26606 0.09853 0.0
H2315 H 0.47897 0.24411 0.08221 0.0
C2316 C 0.50326 0.29521 0.13438 0.0
C2317 C 0.50947 0.2871 0.14816 0.0
C2318 C 0.49063 0.28816 0.12524 0.0
C2319 C 0.48381 0.27313 0.13002 0.0
C2320 C 0.48908 0.26585 0.14463 0.0
C2321 C 0.50191 0.27268 0.15351 0.0
C2322 C 0.45274 0.24272 0.11452 0.0
C2323 C 0.45998 0.23825 0.09964 0.0
C2324 C 0.45969 0.25512 0.12404 0.0
C2325 C 0.47371 0.26343 0.11858 0.0
C2326 C 0.47988 0.25999 0.10296 0.0
C2327 C 0.47319 0.24738 0.09366 0.0
H2328 H 0.98503 0.75714 0.41436 0.0
H2329 H 0.9478 0.76583 0.37806 0.0
H2330 H 0.99675 0.73566 0.39729 0.0
H2331 H 0.9599 0.74461 0.36067 0.0
H2332 H 0.01178 0.73642 0.3319 0.0
H2333 H 0.99016 0.74879 0.3483 0.0
H2334 H 0.99125 0.70744 0.38099 0.0
H2335 H 0.01262 0.69474 0.36415 0.0
C2336 C 0.97907 0.75407 0.40294 0.0
C2337 C 0.96559 0.76312 0.39745 0.0
C2338 C 0.98572 0.74174 0.39322 0.0
C2339 C 0.97923 0.73854 0.37767 0.0
C2340 C 0.96505 0.74683 0.37265 0.0
C2341 C 0.95813 0.75891 0.3826 0.0
C2342 C 0.007 0.72973 0.34227 0.0
C2343 C 0.01384 0.7147 0.34684 0.0
C2344 C 0.99457 0.73675 0.35159 0.0
C2345 C 0.98906 0.72904 0.36587 0.0
C2346 C 0.99525 0.71354 0.36995 0.0
C2347 C 0.00742 0.7063 0.36034 0.0
H2348 H 0.50149 0.27996 0.59871 0.0
H2349 H 0.54695 0.25387 0.60506 0.0
H2350 H 0.48774 0.26044 0.61622 0.0
H2351 H 0.53288 0.23405 0.62287 0.0
H2352 H 0.48693 0.19706 0.63958 0.0
H2353 H 0.50599 0.21247 0.62206 0.0
H2354 H 0.4935 0.25676 0.64777 0.0
H2355 H 0.47459 0.24164 0.66492 0.0
C2356 C 0.50853 0.26993 0.60372 0.0
C2357 C 0.52535 0.26858 0.60071 0.0
C2358 C 0.50064 0.25877 0.61377 0.0
C2359 C 0.50934 0.24596 0.6211 0.0
C2360 C 0.52597 0.2439 0.61738 0.0
C2361 C 0.53397 0.25521 0.60724 0.0
C2362 C 0.48867 0.21 0.64171 0.0
C2363 C 0.47914 0.21825 0.65337 0.0
C2364 C 0.49953 0.21878 0.63173 0.0
C2365 C 0.50091 0.23581 0.63343 0.0
C2366 C 0.49242 0.24368 0.64605 0.0
C2367 C 0.48161 0.23502 0.65586 0.0
H2368 H 0.12877 0.03855 0.28382 0.0
H2369 H 0.08839 0.03362 0.25037 0.0
H2370 H 0.14658 0.02436 0.26468 0.0
H2371 H 0.10612 0.01865 0.23127 0.0
H2372 H 0.14627 0.99429 0.19917 0.0
H2373 H 0.13171 0.0165 0.21331 0.0
H2374 H 0.1447 0.99499 0.25973 0.0
H2375 H 0.15906 0.97325 0.24584 0.0
C2376 C 0.12385 0.03473 0.27213 0.0
C2377 C 0.10728 0.03698 0.26853 0.0
C2378 C 0.13399 0.02656 0.26122 0.0
C2379 C 0.12764 0.02005 0.24666 0.0
C2380 C 0.11135 0.02356 0.24239 0.0
C2381 C 0.10121 0.03207 0.25328 0.0
C2382 C 0.14615 0.99454 0.21239 0.0
C2383 C 0.15377 0.98206 0.22142 0.0
C2384 C 0.13778 0.00716 0.22045 0.0
C2385 C 0.1372 0.00758 0.23763 0.0
C2386 C 0.14517 0.99525 0.24651 0.0
C2387 C 0.15331 0.98268 0.23853 0.0
H2388 H 0.20668 0.33399 0.49732 0.0
H2389 H 0.21043 0.37939 0.52382 0.0
H2390 H 0.22093 0.3465 0.47405 0.0
H2391 H 0.22415 0.39196 0.50057 0.0
H2392 H 0.24701 0.41227 0.45553 0.0
H2393 H 0.22352 0.3995 0.46921 0.0
H2394 H 0.25176 0.35554 0.47643 0.0
H2395 H 0.27517 0.36839 0.46328 0.0
C2396 C 0.20995 0.3468 0.49788 0.0
C2397 C 0.20762 0.35573 0.51232 0.0
C2398 C 0.21811 0.35393 0.48463 0.0
C2399 C 0.22362 0.37018 0.48555 0.0
C2400 C 0.21987 0.37949 0.49945 0.0
C2401 C 0.21212 0.37227 0.51279 0.0
C2402 C 0.24794 0.39971 0.45961 0.0
C2403 C 0.26285 0.39131 0.45853 0.0
C2404 C 0.23456 0.39243 0.46742 0.0
C2405 C 0.23584 0.37653 0.47383 0.0
C2406 C 0.25035 0.36771 0.47143 0.0
C2407 C 0.26378 0.3751 0.46403 0.0
H2408 H 0.83908 0.49762 0.71234 0.0
H2409 H 0.87908 0.53186 0.71055 0.0
H2410 H 0.85592 0.47897 0.72889 0.0
H2411 H 0.89595 0.51322 0.72642 0.0
H2412 H 0.90416 0.49526 0.7786 0.0
H2413 H 0.89058 0.50849 0.75596 0.0
H2414 H 0.88279 0.4617 0.73287 0.0
H2415 H 0.89664 0.44818 0.75598 0.0
C2416 C 0.85166 0.50082 0.71494 0.0
C2417 C 0.85779 0.51619 0.71046 0.0
C2418 C 0.86128 0.49018 0.72436 0.0
C2419 C 0.87712 0.49483 0.7292 0.0
C2420 C 0.88368 0.50948 0.72315 0.0
C2421 C 0.87406 0.52011 0.71404 0.0
C2422 C 0.89969 0.48772 0.76869 0.0
C2423 C 0.90148 0.47068 0.76906 0.0
C2424 C 0.892 0.49533 0.75562 0.0
C2425 C 0.8858 0.48615 0.74253 0.0
C2426 C 0.88752 0.46905 0.74279 0.0
C2427 C 0.89547 0.46136 0.75593 0.0
H2428 H 0.76754 0.16674 0.00829 0.0
H2429 H 0.80638 0.13181 0.01542 0.0
H2430 H 0.75669 0.15025 0.98598 0.0
H2431 H 0.79524 0.115 0.99324 0.0
H2432 H 0.7402 0.11886 0.94508 0.0
H2433 H 0.76144 0.13591 0.95765 0.0
H2434 H 0.76686 0.10047 0.99633 0.0
H2435 H 0.74546 0.08378 0.98407 0.0
C2436 C 0.77404 0.15577 0.00471 0.0
C2437 C 0.78769 0.15045 0.0136 0.0
C2438 C 0.7679 0.14639 0.99188 0.0
C2439 C 0.7751 0.13132 0.98794 0.0
C2440 C 0.7895 0.12659 0.99603 0.0
C2441 C 0.79588 0.1362 0.00867 0.0
C2442 C 0.74638 0.11449 0.95594 0.0
C2443 C 0.74118 0.10012 0.96372 0.0
C2444 C 0.75846 0.12424 0.96313 0.0
C2445 C 0.76575 0.1195 0.97795 0.0
C2446 C 0.7616 0.10434 0.98482 0.0
C2447 C 0.74929 0.09483 0.97786 0.0
H2448 H 0.1631 0.00107 0.78723 0.0
H2449 H 0.11914 0.02927 0.79404 0.0
H2450 H 0.14752 0.98063 0.77171 0.0
H2451 H 0.10351 0.00874 0.7792 0.0
H2452 H 0.09501 0.9927 0.72594 0.0
H2453 H 0.10719 0.00637 0.74912 0.0
H2454 H 0.1233 0.95997 0.76842 0.0
H2455 H 0.11079 0.94602 0.74481 0.0
C2456 C 0.14999 0.00245 0.78607 0.0
C2457 C 0.14227 0.01673 0.79159 0.0
C2458 C 0.14108 0.99079 0.77722 0.0
C2459 C 0.12438 0.99331 0.77398 0.0
C2460 C 0.11642 0.00666 0.78125 0.0
C2461 C 0.12533 0.01836 0.78979 0.0
C2462 C 0.10099 0.98533 0.73517 0.0
C2463 C 0.102 0.96831 0.73356 0.0
C2464 C 0.10785 0.99316 0.74857 0.0
C2465 C 0.11604 0.98422 0.7607 0.0
C2466 C 0.11698 0.96712 0.75926 0.0
C2467 C 0.10981 0.95917 0.74584 0.0
H2468 H 0.22209 0.37254 0.0308 0.0
H2469 H 0.2521 0.41433 0.04227 0.0
H2470 H 0.24584 0.35834 0.01983 0.0
H2471 H 0.27599 0.40021 0.0307 0.0
H2472 H 0.29264 0.37874 0.97709 0.0
H2473 H 0.27792 0.39257 0.99899 0.0
H2474 H 0.27582 0.34739 0.0261 0.0
H2475 H 0.29108 0.3336 0.00425 0.0
C2476 C 0.23389 0.37852 0.03127 0.0
C2477 C 0.23533 0.39452 0.03722 0.0
C2478 C 0.2475 0.37034 0.02515 0.0
C2479 C 0.26274 0.37817 0.02449 0.0
C2480 C 0.26438 0.3939 0.03121 0.0
C2481 C 0.25077 0.40195 0.03778 0.0
C2482 C 0.28961 0.37194 0.98803 0.0
C2483 C 0.29286 0.35514 0.98902 0.0
C2484 C 0.28128 0.37986 0.00059 0.0
C2485 C 0.27571 0.37101 0.01417 0.0
C2486 C 0.28007 0.35446 0.01575 0.0
C2487 C 0.2888 0.34661 0.00331 0.0
H2488 H 0.91377 0.50823 0.23306 0.0
H2489 H 0.88722 0.55315 0.24082 0.0
H2490 H 0.89635 0.49444 0.25285 0.0
H2491 H 0.86952 0.53908 0.2607 0.0
H2492 H 0.8563 0.49326 0.30376 0.0
H2493 H 0.87434 0.5137 0.29089 0.0
H2494 H 0.86069 0.4956 0.24334 0.0
H2495 H 0.84293 0.47539 0.25592 0.0
C2496 C 0.90451 0.51527 0.23939 0.0
C2497 C 0.90168 0.53167 0.23532 0.0
C2498 C 0.89461 0.50739 0.25072 0.0
C2499 C 0.88165 0.51574 0.25815 0.0
C2500 C 0.87959 0.53251 0.25518 0.0
C2501 C 0.88967 0.5405 0.24385 0.0
C2502 C 0.85689 0.49397 0.29056 0.0
C2503 C 0.84841 0.48263 0.28081 0.0
C2504 C 0.86715 0.50563 0.28326 0.0
C2505 C 0.86885 0.50603 0.26621 0.0
C2506 C 0.85954 0.49542 0.25653 0.0
C2507 C 0.84944 0.48385 0.26375 0.0
H2508 H 0.76677 0.08487 0.51073 0.0
H2509 H 0.76052 0.11237 0.5553 0.0
H2510 H 0.74681 0.10233 0.4971 0.0
H2511 H 0.74061 0.13015 0.54136 0.0
H2512 H 0.69697 0.13841 0.49119 0.0
H2513 H 0.70943 0.12062 0.51207 0.0
H2514 H 0.75653 0.14189 0.50202 0.0
H2515 H 0.74435 0.15933 0.48116 0.0
C2516 C 0.76075 0.09436 0.51773 0.0
C2517 C 0.76522 0.09736 0.53401 0.0
C2518 C 0.74931 0.10427 0.50995 0.0
C2519 C 0.74222 0.11744 0.51826 0.0
C2520 C 0.74581 0.11987 0.53485 0.0
C2521 C 0.75716 0.10974 0.54277 0.0
C2522 C 0.70989 0.13956 0.4938 0.0
C2523 C 0.71975 0.15011 0.4845 0.0
C2524 C 0.71696 0.12944 0.50571 0.0
C2525 C 0.73385 0.13007 0.50858 0.0
C2526 C 0.74344 0.14136 0.50005 0.0
C2527 C 0.73648 0.15125 0.48808 0.0
H2528 H 0.21556 0.16197 0.00121 0.0
H2529 H 0.21588 0.12429 0.96438 0.0
H2530 H 0.23192 0.14431 0.01928 0.0
H2531 H 0.23143 0.10654 0.98243 0.0
H2532 H 0.2819 0.0958 0.00239 0.0
H2533 H 0.26027 0.11065 0.98894 0.0
H2534 H 0.23562 0.11726 0.03512 0.0
H2535 H 0.25781 0.10226 0.0489 0.0
C2536 C 0.21867 0.14973 0.99725 0.0
C2537 C 0.2148 0.14451 0.98139 0.0
C2538 C 0.22796 0.13963 0.00756 0.0
C2539 C 0.23325 0.12419 0.0021 0.0
C2540 C 0.2279 0.11852 0.98681 0.0
C2541 C 0.21896 0.12864 0.9765 0.0
C2542 C 0.27186 0.10029 0.00976 0.0
C2543 C 0.27154 0.09781 0.02671 0.0
C2544 C 0.25936 0.10872 0.002 0.0
C2545 C 0.2461 0.11494 0.01092 0.0
C2546 C 0.24569 0.11256 0.02794 0.0
C2547 C 0.2583 0.10393 0.03579 0.0
H2548 H 0.70015 0.85704 0.50591 0.0
H2549 H 0.74679 0.84786 0.52886 0.0
H2550 H 0.71432 0.86986 0.48262 0.0
H2551 H 0.76067 0.86039 0.50599 0.0
H2552 H 0.78454 0.87024 0.46045 0.0
H2553 H 0.7651 0.85435 0.47634 0.0
H2554 H 0.73281 0.896 0.47867 0.0
H2555 H 0.75227 0.91188 0.46217 0.0
C2556 C 0.71337 0.85762 0.50589 0.0
C2557 C 0.72239 0.85148 0.51917 0.0
C2558 C 0.72143 0.86497 0.49265 0.0
C2559 C 0.73858 0.86593 0.49242 0.0
C2560 C 0.74746 0.85956 0.50564 0.0
C2561 C 0.73948 0.85248 0.51884 0.0
C2562 C 0.77306 0.87585 0.46392 0.0
C2563 C 0.76995 0.89231 0.46035 0.0
C2564 C 0.76195 0.86677 0.47303 0.0
C2565 C 0.74764 0.87407 0.47904 0.0
C2566 C 0.74376 0.89009 0.47416 0.0
C2567 C 0.75487 0.89917 0.46478 0.0
H2568 H 0.36542 0.01325 0.69293 0.0
H2569 H 0.33036 0.00806 0.73192 0.0
H2570 H 0.38318 0.99308 0.70631 0.0
H2571 H 0.34776 0.98764 0.74496 0.0
H2572 H 0.38032 0.94735 0.76293 0.0
H2573 H 0.36291 0.95903 0.74147 0.0
H2574 H 0.39725 0.99853 0.73521 0.0
H2575 H 0.41431 0.98717 0.75689 0.0
C2576 C 0.36124 0.00733 0.704 0.0
C2577 C 0.3466 0.0122 0.71147 0.0
C2578 C 0.3714 0.99586 0.71166 0.0
C2579 C 0.36682 0.98882 0.72664 0.0
C2580 C 0.35152 0.99273 0.73333 0.0
C2581 C 0.3416 0.00446 0.72592 0.0
C2582 C 0.38436 0.95823 0.75658 0.0
C2583 C 0.39858 0.96643 0.76157 0.0
C2584 C 0.3744 0.96492 0.74437 0.0
C2585 C 0.37876 0.97966 0.73671 0.0
C2586 C 0.39369 0.98707 0.74079 0.0
C2587 C 0.4034 0.98062 0.75324 0.0
H2588 H 0.21394 0.61994 0.98769 0.0
H2589 H 0.24942 0.59986 0.95417 0.0
H2590 H 0.23479 0.63701 0.99977 0.0
H2591 H 0.2707 0.61724 0.96657 0.0
H2592 H 0.30042 0.63474 0.0162 0.0
H2593 H 0.28438 0.61964 0.99581 0.0
H2594 H 0.25193 0.66094 0.99098 0.0
H2595 H 0.26756 0.67568 0.01157 0.0
C2596 C 0.22624 0.61921 0.98285 0.0
C2597 C 0.23004 0.60856 0.96998 0.0
C2598 C 0.23818 0.62913 0.98969 0.0
C2599 C 0.25432 0.62866 0.98394 0.0
C2600 C 0.2583 0.6179 0.97114 0.0
C2601 C 0.24617 0.60801 0.96408 0.0
C2602 C 0.29025 0.64077 0.01024 0.0
C2603 C 0.28503 0.65623 0.01552 0.0
C2604 C 0.28107 0.63214 0.99861 0.0
C2605 C 0.26672 0.63902 0.99212 0.0
C2606 C 0.26276 0.65525 0.99604 0.0
C2607 C 0.27173 0.66371 0.00775 0.0
H2608 H 0.74605 0.89055 0.05292 0.0
H2609 H 0.72646 0.90508 0.00614 0.0
H2610 H 0.76891 0.87679 0.03887 0.0
H2611 H 0.74878 0.89159 0.99239 0.0
H2612 H 0.79306 0.87764 0.96886 0.0
H2613 H 0.7784 0.89428 0.98868 0.0
H2614 H 0.77188 0.85192 0.01945 0.0
H2615 H 0.78731 0.83534 0.9997 0.0
C2616 C 0.74675 0.89098 0.03972 0.0
C2617 C 0.73449 0.89885 0.03061 0.0
C2618 C 0.75974 0.88308 0.03171 0.0
C2619 C 0.76075 0.88327 0.01453 0.0
C2620 C 0.74861 0.89148 0.00562 0.0
C2621 C 0.73568 0.89911 0.01352 0.0
C2622 C 0.789 0.87204 0.98014 0.0
C2623 C 0.79114 0.85526 0.98277 0.0
C2624 C 0.78055 0.88152 0.99145 0.0
C2625 C 0.77364 0.87432 0.00542 0.0
C2626 C 0.77708 0.8578 0.0088 0.0
C2627 C 0.78588 0.84832 0.99753 0.0
H2628 H 0.33493 0.49978 0.79329 0.0
H2629 H 0.37868 0.47151 0.78529 0.0
H2630 H 0.34757 0.52317 0.77931 0.0
H2631 H 0.39143 0.49484 0.77186 0.0
H2632 H 0.41296 0.54034 0.75153 0.0
H2633 H 0.40037 0.52591 0.77464 0.0
H2634 H 0.35517 0.52236 0.74771 0.0
H2635 H 0.36783 0.53627 0.7246 0.0
C2636 C 0.34742 0.49879 0.78905 0.0
C2637 C 0.35583 0.48388 0.79018 0.0
C2638 C 0.35463 0.51211 0.78108 0.0
C2639 C 0.37048 0.51079 0.77458 0.0
C2640 C 0.37929 0.49627 0.77694 0.0
C2641 C 0.37196 0.48288 0.78449 0.0
C2642 C 0.40018 0.53696 0.75084 0.0
C2643 C 0.39135 0.53925 0.73633 0.0
C2644 C 0.39302 0.52869 0.764 0.0
C2645 C 0.37683 0.52304 0.76291 0.0
C2646 C 0.3676 0.52674 0.74894 0.0
C2647 C 0.37486 0.53461 0.73569 0.0
H2648 H 0.61757 0.94627 0.23794 0.0
H2649 H 0.58705 0.98923 0.23619 0.0
H2650 H 0.63457 0.95929 0.25902 0.0
H2651 H 0.60357 0.0019 0.2576 0.0
H2652 H 0.63235 0.01692 0.30255 0.0
H2653 H 0.61466 0.99664 0.28925 0.0
H2654 H 0.65188 0.98799 0.25298 0.0
H2655 H 0.66923 0.00862 0.26585 0.0
C2656 C 0.6142 0.95824 0.24246 0.0
C2657 C 0.60109 0.96682 0.23545 0.0
C2658 C 0.6239 0.96566 0.25446 0.0
C2659 C 0.62027 0.98152 0.25995 0.0
C2660 C 0.60648 0.98958 0.25372 0.0
C2661 C 0.59711 0.98238 0.24143 0.0
C2662 C 0.63692 0.01026 0.29207 0.0
C2663 C 0.65209 0.01428 0.28517 0.0
C2664 C 0.62681 0.99874 0.28446 0.0
C2665 C 0.63197 0.99077 0.27015 0.0
C2666 C 0.64771 0.99383 0.2641 0.0
C2667 C 0.6576 0.00565 0.27142 0.0
H2668 H 0.05549 0.75705 0.611 0.0
H2669 H 0.00939 0.76948 0.58858 0.0
H2670 H 0.04234 0.73378 0.62483 0.0
H2671 H 0.99643 0.74673 0.60219 0.0
H2672 H 0.97486 0.7031 0.6201 0.0
H2673 H 0.99511 0.71722 0.60348 0.0
H2674 H 0.02117 0.7312 0.64721 0.0
H2675 H 0.00113 0.71628 0.66378 0.0
C2676 C 0.04267 0.75462 0.6088 0.0
C2677 C 0.03342 0.76507 0.59879 0.0
C2678 C 0.03515 0.7414 0.61675 0.0
C2679 C 0.01837 0.73832 0.61452 0.0
C2680 C 0.00942 0.74848 0.60396 0.0
C2681 C 0.01683 0.76167 0.59625 0.0
C2682 C 0.9853 0.70863 0.62607 0.0
C2683 C 0.9865 0.70873 0.64313 0.0
C2684 C 0.99683 0.71681 0.6166 0.0
C2685 C 0.0095 0.72568 0.62406 0.0
C2686 C 0.01157 0.72445 0.64109 0.0
C2687 C 0.00013 0.71594 0.65059 0.0
H2688 H 0.00037 0.79157 0.16554 0.0
H2689 H 0.02914 0.78818 0.12151 0.0
H2690 H 0.97791 0.77707 0.15186 0.0
H2691 H 0.00666 0.77425 0.10776 0.0
H2692 H 0.96883 0.72284 0.12853 0.0
H2693 H 0.98166 0.74594 0.1423 0.0
H2694 H 0.97497 0.77544 0.09911 0.0
H2695 H 0.96153 0.75228 0.08544 0.0
C2696 C 0.00162 0.78828 0.15278 0.0
C2697 C 0.01644 0.7908 0.14456 0.0
C2698 C 0.98883 0.78001 0.14498 0.0
C2699 C 0.99059 0.77461 0.12877 0.0
C2700 C 0.00491 0.77846 0.12019 0.0
C2701 C 0.0178 0.78631 0.12808 0.0
C2702 C 0.96965 0.73442 0.12217 0.0
C2703 C 0.96433 0.73584 0.10595 0.0
C2704 C 0.97686 0.74766 0.13008 0.0
C2705 C 0.97924 0.76245 0.12176 0.0
C2706 C 0.97314 0.76417 0.10579 0.0
C2707 C 0.96548 0.75098 0.098 0.0
H2708 H 0.48829 0.72974 0.58438 0.0
H2709 H 0.44557 0.73786 0.6142 0.0
H2710 H 0.50344 0.74954 0.60051 0.0
H2711 H 0.46103 0.7578 0.63067 0.0
H2712 H 0.50222 0.80091 0.64504 0.0
H2713 H 0.48165 0.78674 0.62812 0.0
H2714 H 0.50933 0.74207 0.63227 0.0
H2715 H 0.52955 0.75589 0.6489 0.0
C2716 C 0.48202 0.7361 0.59415 0.0
C2717 C 0.46586 0.73214 0.59822 0.0
C2718 C 0.49069 0.74742 0.60336 0.0
C2719 C 0.48344 0.75495 0.61693 0.0
C2720 C 0.46682 0.75214 0.62021 0.0
C2721 C 0.45802 0.74077 0.61082 0.0
C2722 C 0.5037 0.78801 0.6425 0.0
C2723 C 0.5176 0.77956 0.64807 0.0
C2724 C 0.49196 0.77995 0.63288 0.0
C2725 C 0.49413 0.76344 0.62874 0.0
C2726 C 0.50755 0.75489 0.63509 0.0
C2727 C 0.51912 0.76283 0.64462 0.0
H2728 H 0.50364 0.71523 0.16361 0.0
H2729 H 0.47604 0.7025 0.1206 0.0
H2730 H 0.52232 0.73153 0.14675 0.0
H2731 H 0.49491 0.7181 0.1037 0.0
H2732 H 0.50597 0.77175 0.09075 0.0
H2733 H 0.49458 0.74811 0.10435 0.0
H2734 H 0.54235 0.73543 0.12291 0.0
H2735 H 0.55391 0.7595 0.10905 0.0
C2736 C 0.50207 0.71529 0.15047 0.0
C2737 C 0.48839 0.70784 0.14333 0.0
C2738 C 0.51273 0.7246 0.14082 0.0
C2739 C 0.50982 0.72638 0.12396 0.0
C2740 C 0.49723 0.71725 0.1167 0.0
C2741 C 0.4865 0.70825 0.12633 0.0
C2742 C 0.51413 0.76384 0.09755 0.0
C2743 C 0.5308 0.76748 0.09889 0.0
C2744 C 0.50763 0.75018 0.10523 0.0
C2745 C 0.5176 0.73979 0.11458 0.0
C2746 C 0.5344 0.74321 0.11574 0.0
C2747 C 0.541 0.7569 0.10779 0.0
H2748 H 0.08983 0.53936 0.7511 0.0
H2749 H 0.12828 0.53585 0.787 0.0
H2750 H 0.10582 0.52198 0.73245 0.0
H2751 H 0.14427 0.51906 0.76846 0.0
H2752 H 0.15016 0.468 0.74775 0.0
H2753 H 0.13664 0.4903 0.7616 0.0
H2754 H 0.13343 0.51701 0.71623 0.0
H2755 H 0.14716 0.49423 0.70205 0.0
C2756 C 0.10189 0.53534 0.75475 0.0
C2757 C 0.10775 0.53865 0.77053 0.0
C2758 C 0.11103 0.52543 0.74411 0.0
C2759 C 0.12612 0.51892 0.74918 0.0
C2760 C 0.13253 0.52363 0.76437 0.0
C2761 C 0.12339 0.53325 0.77497 0.0
C2762 C 0.14668 0.4786 0.74064 0.0
C2763 C 0.14982 0.47938 0.72381 0.0
C2764 C 0.13899 0.49145 0.74862 0.0
C2765 C 0.13419 0.5055 0.74004 0.0
C2766 C 0.13707 0.50632 0.72312 0.0
C2767 C 0.14496 0.49336 0.71506 0.0
H2768 H 0.21516 0.8796 0.02317 0.0
H2769 H 0.20858 0.83547 0.99512 0.0
H2770 H 0.22777 0.89281 0.99967 0.0
H2771 H 0.22172 0.84863 0.97152 0.0
H2772 H 0.27509 0.87062 0.95706 0.0
H2773 H 0.2527 0.85728 0.97146 0.0
H2774 H 0.22457 0.90182 0.96904 0.0
H2775 H 0.24699 0.91513 0.95417 0.0
C2776 C 0.21608 0.87288 0.0118 0.0
C2777 C 0.21106 0.85652 0.01092 0.0
C2778 C 0.22317 0.88048 0.99832 0.0
C2779 C 0.2257 0.87174 0.98379 0.0
C2780 C 0.21982 0.85563 0.98259 0.0
C2781 C 0.21232 0.84812 0.99603 0.0
C2782 C 0.2639 0.87739 0.95913 0.0
C2783 C 0.26275 0.8939 0.95467 0.0
C2784 C 0.25105 0.86972 0.96725 0.0
C2785 C 0.23694 0.87854 0.97138 0.0
C2786 C 0.23533 0.89477 0.96594 0.0
C2787 C 0.2481 0.90235 0.95744 0.0
H2788 H 0.87363 0.96361 0.27574 0.0
H2789 H 0.91661 0.95847 0.2457 0.0
H2790 H 0.85948 0.97733 0.25338 0.0
H2791 H 0.90255 0.9728 0.22332 0.0
H2792 H 0.87934 0.02668 0.21204 0.0
H2793 H 0.89334 0.0042 0.22572 0.0
H2794 H 0.8497 0.97483 0.22223 0.0
H2795 H 0.83576 0.99731 0.20798 0.0
C2796 C 0.87988 0.96508 0.26417 0.0
C2797 C 0.89618 0.96008 0.26238 0.0
C2798 C 0.87176 0.97283 0.25135 0.0
C2799 C 0.87993 0.97609 0.23665 0.0
C2800 C 0.89598 0.97032 0.23453 0.0
C2801 C 0.90399 0.96213 0.24727 0.0
C2802 C 0.8729 0.01524 0.21376 0.0
C2803 C 0.85647 0.0137 0.20908 0.0
C2804 C 0.88095 0.00235 0.22147 0.0
C2805 C 0.8726 0.9878 0.22499 0.0
C2806 C 0.8564 0.98592 0.21955 0.0
C2807 C 0.84846 0.99873 0.21142 0.0
H2808 H 0.76077 0.66907 0.51392 0.0
H2809 H 0.79754 0.63131 0.51355 0.0
H2810 H 0.7446 0.65367 0.49427 0.0
H2811 H 0.78102 0.61553 0.49401 0.0
H2812 H 0.74357 0.59621 0.45316 0.0
H2813 H 0.76461 0.61414 0.46523 0.0
H2814 H 0.73103 0.62716 0.50374 0.0
H2815 H 0.71044 0.60954 0.49203 0.0
C2816 C 0.7656 0.65768 0.50922 0.0
C2817 C 0.78024 0.65124 0.51535 0.0
C2818 C 0.75635 0.64885 0.49802 0.0
C2819 C 0.76141 0.63327 0.49293 0.0
C2820 C 0.77687 0.62753 0.49775 0.0
C2821 C 0.7863 0.63653 0.5089 0.0
C2822 C 0.74079 0.60294 0.4642 0.0
C2823 C 0.72535 0.60151 0.47163 0.0
C2824 C 0.75279 0.61314 0.47108 0.0
C2825 C 0.74932 0.62222 0.48524 0.0
C2826 C 0.73394 0.62058 0.49263 0.0
C2827 C 0.72217 0.61036 0.48596 0.0
H2828 H 0.09353 0.49421 0.22516 0.0
H2829 H 0.11342 0.44837 0.24212 0.0
H2830 H 0.11013 0.50885 0.2449 0.0
H2831 H 0.13038 0.46331 0.26209 0.0
H2832 H 0.145 0.50669 0.30301 0.0
H2833 H 0.12785 0.48699 0.28793 0.0
H2834 H 0.14274 0.50911 0.24248 0.0
H2835 H 0.15957 0.52852 0.25723 0.0
C2836 C 0.10129 0.48724 0.23332 0.0
C2837 C 0.10242 0.47019 0.23194 0.0
C2838 C 0.11077 0.49562 0.24462 0.0
C2839 C 0.12169 0.4872 0.25477 0.0
C2840 C 0.12202 0.47003 0.25434 0.0
C2841 C 0.11237 0.46153 0.24296 0.0
C2842 C 0.14481 0.50705 0.28979 0.0
C2843 C 0.15338 0.51929 0.28128 0.0
C2844 C 0.13505 0.49581 0.28121 0.0
C2845 C 0.13383 0.49678 0.26411 0.0
C2846 C 0.14329 0.5083 0.25568 0.0
C2847 C 0.15292 0.51941 0.26415 0.0
H2848 H 0.24755 0.88848 0.55265 0.0
H2849 H 0.23369 0.90784 0.50559 0.0
H2850 H 0.2713 0.87496 0.53994 0.0
H2851 H 0.25699 0.89464 0.49311 0.0
H2852 H 0.3018 0.87894 0.47247 0.0
H2853 H 0.28703 0.89533 0.49244 0.0
H2854 H 0.27445 0.85155 0.51904 0.0
H2855 H 0.28991 0.83517 0.49923 0.0
C2856 C 0.24975 0.89007 0.5397 0.0
C2857 C 0.23879 0.89914 0.53007 0.0
C2858 C 0.26324 0.88231 0.53245 0.0
C2859 C 0.2661 0.88387 0.51556 0.0
C2860 C 0.25537 0.89344 0.50618 0.0
C2861 C 0.2419 0.9009 0.51332 0.0
C2862 C 0.29646 0.87292 0.48298 0.0
C2863 C 0.29684 0.85585 0.48432 0.0
C2864 C 0.28793 0.88226 0.49435 0.0
C2865 C 0.27924 0.87468 0.50706 0.0
C2866 C 0.28104 0.85773 0.50939 0.0
C2867 C 0.28988 0.84835 0.49808 0.0
H2868 H 0.85121 0.9683 0.75528 0.0
H2869 H 0.85021 0.9955 0.80053 0.0
H2870 H 0.86916 0.98864 0.74337 0.0
H2871 H 0.86837 0.01621 0.78825 0.0
H2872 H 0.8844 0.05098 0.73719 0.0
H2873 H 0.86684 0.03609 0.75655 0.0
H2874 H 0.90081 0.99581 0.75621 0.0
H2875 H 0.91813 0.01044 0.73695 0.0
C2876 C 0.85468 0.97872 0.76266 0.0
C2877 C 0.84943 0.9802 0.77891 0.0
C2878 C 0.86497 0.99035 0.75581 0.0
C2879 C 0.87022 0.00382 0.76498 0.0
C2880 C 0.86444 0.00586 0.781 0.0
C2881 C 0.85412 0.99405 0.78798 0.0
C2882 C 0.8884 0.03925 0.74183 0.0
C2883 C 0.90247 0.03172 0.73548 0.0
C2884 C 0.87838 0.03076 0.75286 0.0
C2885 C 0.88249 0.01481 0.75767 0.0
C2886 C 0.89741 0.00809 0.7526 0.0
C2887 C 0.90729 0.01645 0.74159 0.0
H2888 H 0.75029 0.59126 0.04353 0.0
H2889 H 0.78793 0.62455 0.02744 0.0
H2890 H 0.73036 0.60565 0.02608 0.0
H2891 H 0.76824 0.63875 0.01038 0.0
H2892 H 0.73969 0.63702 0.963 0.0
H2893 H 0.75482 0.62381 0.98475 0.0
H2894 H 0.71748 0.63729 0.01941 0.0
H2895 H 0.70203 0.65082 0.99734 0.0
C2896 C 0.75417 0.60186 0.03663 0.0
C2897 C 0.77066 0.60664 0.03655 0.0
C2898 C 0.74281 0.61007 0.02673 0.0
C2899 C 0.74791 0.6231 0.01677 0.0
C2900 C 0.76409 0.62859 0.01779 0.0
C2901 C 0.77535 0.62043 0.02753 0.0
C2902 C 0.73457 0.63715 0.9752 0.0
C2903 C 0.71977 0.64515 0.9785 0.0
C2904 C 0.74326 0.62957 0.98764 0.0
C2905 C 0.73738 0.62975 0.00372 0.0
C2906 C 0.72222 0.63706 0.00706 0.0
C2907 C 0.71346 0.6448 0.99449 0.0
H2908 H 0.24013 0.66638 0.48179 0.0
H2909 H 0.19553 0.63967 0.49069 0.0
H2910 H 0.25474 0.64834 0.50035 0.0
H2911 H 0.21041 0.62139 0.50945 0.0
H2912 H 0.25413 0.60441 0.5507 0.0
H2913 H 0.23413 0.6232 0.53822 0.0
H2914 H 0.25596 0.61485 0.49102 0.0
H2915 H 0.27562 0.59624 0.50318 0.0
C2916 C 0.23335 0.65692 0.48809 0.0
C2917 C 0.21676 0.65427 0.48466 0.0
C2918 C 0.24172 0.64663 0.49872 0.0
C2919 C 0.2337 0.63344 0.50613 0.0
C2920 C 0.21678 0.63156 0.50389 0.0
C2921 C 0.20831 0.64199 0.4932 0.0
C2922 C 0.2544 0.60638 0.53763 0.0
C2923 C 0.26655 0.59901 0.52794 0.0
C2924 C 0.24298 0.61708 0.53053 0.0
C2925 C 0.24371 0.62051 0.51374 0.0
C2926 C 0.25529 0.61247 0.50403 0.0
C2927 C 0.26653 0.60182 0.51102 0.0
H2928 H 0.7646 0.41676 0.99102 0.0
H2929 H 0.76092 0.38613 0.94824 0.0
H2930 H 0.74444 0.39988 0.00492 0.0
H2931 H 0.74062 0.369 0.96241 0.0
H2932 H 0.69539 0.3548 0.00343 0.0
H2933 H 0.70921 0.37249 0.98327 0.0
H2934 H 0.75459 0.36645 0.00935 0.0
H2935 H 0.74114 0.34898 0.02916 0.0
C2936 C 0.75909 0.40669 0.98442 0.0
C2937 C 0.76444 0.40259 0.96866 0.0
C2938 C 0.74754 0.39709 0.99235 0.0
C2939 C 0.74115 0.38315 0.98473 0.0
C2940 C 0.74534 0.3798 0.96843 0.0
C2941 C 0.75692 0.38956 0.96038 0.0
C2942 C 0.70837 0.35705 0.00461 0.0
C2943 C 0.71715 0.35069 0.01797 0.0
C2944 C 0.71622 0.36711 0.99312 0.0
C2945 C 0.73285 0.37087 0.99497 0.0
C2946 C 0.74171 0.36381 0.0078 0.0
C2947 C 0.73397 0.35382 0.01914 0.0
H2948 H 0.33691 0.49985 0.21401 0.0
H2949 H 0.37964 0.52948 0.20568 0.0
H2950 H 0.35354 0.4804 0.22976 0.0
H2951 H 0.39631 0.50993 0.22069 0.0
H2952 H 0.40804 0.49451 0.27322 0.0
H2953 H 0.39446 0.50758 0.2505 0.0
H2954 H 0.37797 0.46061 0.23297 0.0
H2955 H 0.39181 0.44729 0.25619 0.0
C2956 C 0.34997 0.50177 0.21494 0.0
C2957 C 0.35705 0.51615 0.20884 0.0
C2958 C 0.35949 0.49067 0.22392 0.0
C2959 C 0.37616 0.49385 0.22674 0.0
C2960 C 0.38344 0.50734 0.21902 0.0
C2961 C 0.37394 0.51848 0.21035 0.0
C2962 C 0.40169 0.48688 0.26446 0.0
C2963 C 0.40097 0.46988 0.2665 0.0
C2964 C 0.39401 0.49437 0.25131 0.0
C2965 C 0.38527 0.48512 0.2398 0.0
C2966 C 0.38466 0.46803 0.24164 0.0
C2967 C 0.39261 0.46043 0.25484 0.0
H2968 H 0.24095 0.0849 0.48554 0.0
H2969 H 0.23664 0.11925 0.4458 0.0
H2970 H 0.26271 0.10134 0.49753 0.0
H2971 H 0.25823 0.13608 0.45811 0.0
H2972 H 0.3038 0.13214 0.5152 0.0
H2973 H 0.29166 0.11499 0.49378 0.0
H2974 H 0.25398 0.15112 0.48632 0.0
H2975 H 0.26579 0.16794 0.5079 0.0
C2976 C 0.24504 0.09574 0.47913 0.0
C2977 C 0.23712 0.10089 0.46482 0.0
C2978 C 0.25755 0.1051 0.48593 0.0
C2979 C 0.26211 0.11999 0.47876 0.0
C2980 C 0.25495 0.12461 0.46383 0.0
C2981 C 0.24266 0.11499 0.45679 0.0
C2982 C 0.29326 0.13662 0.50856 0.0
C2983 C 0.28562 0.15126 0.51322 0.0
C2984 C 0.28631 0.12682 0.49638 0.0
C2985 C 0.27189 0.13175 0.48843 0.0
C2986 C 0.26519 0.1471 0.49211 0.0
C2987 C 0.27189 0.15668 0.50452 0.0
H2988 H 0.79055 0.3356 0.50449 0.0
H2989 H 0.78477 0.38046 0.47744 0.0
H2990 H 0.77668 0.34812 0.52801 0.0
H2991 H 0.77147 0.39306 0.50092 0.0
H2992 H 0.74993 0.41377 0.54625 0.0
H2993 H 0.77321 0.4011 0.53213 0.0
H2994 H 0.74553 0.35656 0.52663 0.0
H2995 H 0.7223 0.3693 0.54022 0.0
C2996 C 0.78689 0.3483 0.50383 0.0
C2997 C 0.78855 0.35708 0.48921 0.0
C2998 C 0.77897 0.35544 0.51723 0.0
C2999 C 0.77304 0.37155 0.51626 0.0
C3000 C 0.77608 0.38071 0.50209 0.0
C3001 C 0.78358 0.37347 0.48862 0.0
C3002 C 0.74909 0.40111 0.54247 0.0
C3003 C 0.73436 0.39251 0.54414 0.0
C3004 C 0.76235 0.39389 0.53441 0.0
C3005 C 0.76114 0.37786 0.52832 0.0
C3006 C 0.74688 0.36885 0.53136 0.0
C3007 C 0.73355 0.37617 0.53902 0.0
H3008 H 0.37243 0.03905 0.22354 0.0
H3009 H 0.41718 0.04196 0.25125 0.0
H3010 H 0.35927 0.02474 0.24611 0.0
H3011 H 0.40407 0.02714 0.27381 0.0
H3012 H 0.38166 0.97298 0.28347 0.0
H3013 H 0.39483 0.99633 0.2705 0.0
H3014 H 0.35109 0.02496 0.27748 0.0
H3015 H 0.338 0.00154 0.291 0.0
C3016 C 0.37928 0.03703 0.23469 0.0
C3017 C 0.39581 0.04149 0.23568 0.0
C3018 C 0.37173 0.02894 0.24763 0.0
C3019 C 0.38068 0.02481 0.26166 0.0
C3020 C 0.39692 0.03024 0.26312 0.0
C3021 C 0.40438 0.03873 0.25027 0.0
C3022 C 0.37504 0.98442 0.28268 0.0
C3023 C 0.35882 0.9855 0.28811 0.0
C3024 C 0.38261 0.99781 0.27537 0.0
C3025 C 0.37397 0.01243 0.27301 0.0
C3026 C 0.35802 0.01382 0.27925 0.0
C3027 C 0.35056 0.00048 0.28697 0.0
H3028 H 0.58236 0.48588 0.74021 0.0
H3029 H 0.61453 0.4442 0.73764 0.0
H3030 H 0.5995 0.4979 0.76145 0.0
H3031 H 0.63211 0.45656 0.75863 0.0
H3032 H 0.66583 0.50595 0.7648 0.0
H3033 H 0.64833 0.48475 0.75323 0.0
H3034 H 0.61279 0.49332 0.79119 0.0
H3035 H 0.63063 0.51427 0.80312 0.0
C3036 C 0.59289 0.47911 0.74454 0.0
C3037 C 0.59719 0.46417 0.73733 0.0
C3038 C 0.60263 0.48593 0.75675 0.0
C3039 C 0.61709 0.47813 0.76167 0.0
C3040 C 0.62095 0.46274 0.75509 0.0
C3041 C 0.61091 0.45568 0.74315 0.0
C3042 C 0.65457 0.50285 0.77103 0.0
C3043 C 0.64952 0.51172 0.7848 0.0
C3044 C 0.6446 0.49068 0.76446 0.0
C3045 C 0.62922 0.48746 0.77131 0.0
C3046 C 0.62464 0.49556 0.78575 0.0
C3047 C 0.63484 0.50747 0.79258 0.0
H3048 H 0.49765 0.30439 0.8621 0.0
H3049 H 0.48108 0.25655 0.8473 0.0
H3050 H 0.52153 0.2918 0.87553 0.0
H3051 H 0.50458 0.2442 0.86034 0.0
H3052 H 0.54997 0.22353 0.87431 0.0
H3053 H 0.53501 0.2431 0.8576 0.0
H3054 H 0.5246 0.27186 0.90057 0.0
H3055 H 0.54018 0.25237 0.91727 0.0
C3056 C 0.49926 0.29127 0.8615 0.0
C3057 C 0.48754 0.2814 0.85374 0.0
C3058 C 0.51284 0.2841 0.86919 0.0
C3059 C 0.515 0.26705 0.86882 0.0
C3060 C 0.50346 0.25738 0.86059 0.0
C3061 C 0.48989 0.26445 0.85323 0.0
C3062 C 0.54509 0.23442 0.88005 0.0
C3063 C 0.54607 0.23647 0.89701 0.0
C3064 C 0.53647 0.24557 0.87052 0.0
C3065 C 0.52834 0.25878 0.87785 0.0
C3066 C 0.53078 0.2618 0.8946 0.0
C3067 C 0.53969 0.25068 0.90416 0.0
H3068 H 0.53714 0.24048 0.35561 0.0
H3069 H 0.50667 0.19784 0.34909 0.0
H3070 H 0.51644 0.25284 0.37264 0.0
H3071 H 0.48555 0.21056 0.36645 0.0
H3072 H 0.4496 0.25746 0.38143 0.0
H3073 H 0.4668 0.2382 0.36598 0.0
H3074 H 0.50561 0.24505 0.40101 0.0
H3075 H 0.48876 0.26436 0.41604 0.0
C3076 C 0.52597 0.23371 0.35779 0.0
C3077 C 0.52361 0.21811 0.35109 0.0
C3078 C 0.51413 0.2408 0.36765 0.0
C3079 C 0.49953 0.23253 0.37109 0.0
C3080 C 0.49678 0.21712 0.36403 0.0
C3081 C 0.50883 0.20987 0.35416 0.0
C3082 C 0.46162 0.25438 0.38604 0.0
C3083 C 0.46803 0.26254 0.39971 0.0
C3084 C 0.47142 0.24339 0.37724 0.0
C3085 C 0.48761 0.24043 0.38217 0.0
C3086 C 0.49327 0.24735 0.3968 0.0
C3087 C 0.48364 0.25838 0.4054 0.0
H3088 H 0.4956 0.76607 0.33258 0.0
H3089 H 0.49131 0.80656 0.36605 0.0
H3090 H 0.51705 0.75422 0.34952 0.0
H3091 H 0.51259 0.79441 0.38336 0.0
H3092 H 0.55704 0.73621 0.381 0.0
H3093 H 0.5458 0.7578 0.36349 0.0
H3094 H 0.50776 0.76663 0.39892 0.0
H3095 H 0.51869 0.74488 0.4161 0.0
C3096 C 0.49963 0.77267 0.34333 0.0
C3097 C 0.49179 0.78715 0.3481 0.0
C3098 C 0.51197 0.76595 0.35297 0.0
C3099 C 0.51644 0.7734 0.36776 0.0
C3100 C 0.50939 0.78849 0.37198 0.0
C3101 C 0.49727 0.79543 0.36208 0.0
C3102 C 0.54665 0.74321 0.38528 0.0
C3103 C 0.53862 0.73886 0.39979 0.0
C3104 C 0.54021 0.75549 0.37526 0.0
C3105 C 0.52591 0.76383 0.37986 0.0
C3106 C 0.51889 0.76053 0.39515 0.0
C3107 C 0.52509 0.74803 0.40495 0.0
H3108 H 0.50763 0.69773 0.85609 0.0
H3109 H 0.52866 0.74403 0.84198 0.0
H3110 H 0.48487 0.71234 0.86937 0.0
H3111 H 0.50649 0.75833 0.8551 0.0
H3112 H 0.46226 0.78283 0.86824 0.0
H3113 H 0.47735 0.76309 0.85194 0.0
H3114 H 0.48137 0.73138 0.89394 0.0
H3115 H 0.46546 0.75104 0.91014 0.0
C3116 C 0.50728 0.71095 0.85567 0.0
C3117 C 0.5199 0.71975 0.84802 0.0
C3118 C 0.49435 0.71929 0.86331 0.0
C3119 C 0.49379 0.73648 0.86312 0.0
C3120 C 0.50631 0.7451 0.85518 0.0
C3121 C 0.51915 0.73687 0.84776 0.0
C3122 C 0.46597 0.77143 0.87385 0.0
C3123 C 0.46297 0.7685 0.89044 0.0
C3124 C 0.47465 0.76015 0.86456 0.0
C3125 C 0.48091 0.74588 0.87177 0.0
C3126 C 0.47669 0.74226 0.88805 0.0
C3127 C 0.46766 0.7535 0.89733 0.0
H3128 H 0.6183 0.97688 0.71376 0.0
H3129 H 0.66315 0.00435 0.71035 0.0
H3130 H 0.60536 0.99959 0.72807 0.0
H3131 H 0.65028 0.02704 0.72522 0.0
H3132 H 0.62785 0.03574 0.7799 0.0
H3133 H 0.64107 0.02329 0.75629 0.0
H3134 H 0.59753 0.03132 0.72763 0.0
H3135 H 0.58441 0.04435 0.75132 0.0
C3136 C 0.62523 0.988 0.71571 0.0
C3137 C 0.64171 0.9889 0.71111 0.0
C3138 C 0.6178 0.00102 0.72377 0.0
C3139 C 0.62685 0.01503 0.72774 0.0
C3140 C 0.64306 0.01638 0.7222 0.0
C3141 C 0.65039 0.00345 0.71372 0.0
C3142 C 0.62132 0.03533 0.7684 0.0
C3143 C 0.60514 0.04086 0.76736 0.0
C3144 C 0.62892 0.02834 0.75486 0.0
C3145 C 0.62031 0.02638 0.74017 0.0
C3146 C 0.60442 0.0328 0.73883 0.0
C3147 C 0.59695 0.04023 0.75232 0.0
H3148 H 0.63889 0.49636 0.19463 0.0
H3149 H 0.65361 0.47896 0.24221 0.0
H3150 H 0.62598 0.52035 0.20756 0.0
H3151 H 0.64109 0.50257 0.25488 0.0
H3152 H 0.62904 0.54857 0.27574 0.0
H3153 H 0.6449 0.53311 0.25589 0.0
H3154 H 0.60109 0.52376 0.22807 0.0
H3155 H 0.58519 0.53976 0.24786 0.0
C3156 C 0.63956 0.4978 0.20777 0.0
C3157 C 0.64718 0.48583 0.21745 0.0
C3158 C 0.63216 0.51143 0.21513 0.0
C3159 C 0.6327 0.5134 0.23219 0.0
C3160 C 0.64073 0.50158 0.24169 0.0
C3161 C 0.64779 0.48796 0.23443 0.0
C3162 C 0.62291 0.54376 0.26503 0.0
C3163 C 0.60592 0.54514 0.26337 0.0
C3164 C 0.63197 0.53488 0.2537 0.0
C3165 C 0.62415 0.52693 0.24067 0.0
C3166 C 0.60741 0.52978 0.238 0.0
C3167 C 0.59832 0.53893 0.24931 0.0
H3168 H 0.1098 0.31778 0.08196 0.0
H3169 H 0.08788 0.32948 0.0355 0.0
H3170 H 0.13301 0.33515 0.07546 0.0
H3171 H 0.11155 0.34604 0.02838 0.0
H3172 H 0.14124 0.39329 0.03278 0.0
H3173 H 0.12107 0.37166 0.03537 0.0
H3174 H 0.15638 0.34186 0.06108 0.0
H3175 H 0.17616 0.36402 0.0593 0.0
C3176 C 0.11027 0.32361 0.07009 0.0
C3177 C 0.09703 0.32244 0.05929 0.0
C3178 C 0.12361 0.33358 0.06629 0.0
C3179 C 0.12411 0.34232 0.05146 0.0
C3180 C 0.1114 0.33996 0.04012 0.0
C3181 C 0.09792 0.3303 0.04409 0.0
C3182 C 0.14469 0.38204 0.03885 0.0
C3183 C 0.16017 0.38038 0.04599 0.0
C3184 C 0.13317 0.36952 0.04024 0.0
C3185 C 0.13698 0.3549 0.04852 0.0
C3186 C 0.15282 0.35302 0.05496 0.0
C3187 C 0.16421 0.36568 0.05385 0.0
H3188 H 0.91818 0.33793 0.28582 0.0
H3189 H 0.93111 0.35987 0.33195 0.0
H3190 H 0.90095 0.36131 0.27938 0.0
H3191 H 0.91323 0.38293 0.32601 0.0
H3192 H 0.85286 0.38917 0.28655 0.0
H3193 H 0.87511 0.36957 0.28848 0.0
H3194 H 0.90558 0.40633 0.3111 0.0
H3195 H 0.88297 0.42569 0.3098 0.0
C3196 C 0.91756 0.34795 0.29444 0.0
C3197 C 0.92589 0.3471 0.3094 0.0
C3198 C 0.90753 0.36126 0.29086 0.0
C3199 C 0.90531 0.37386 0.30234 0.0
C3200 C 0.91465 0.37354 0.31681 0.0
C3201 C 0.92494 0.36032 0.32025 0.0
C3202 C 0.86436 0.39308 0.2918 0.0
C3203 C 0.86614 0.40889 0.29813 0.0
C3204 C 0.87721 0.38189 0.29279 0.0
C3205 C 0.89224 0.38632 0.29995 0.0
C3206 C 0.89415 0.40238 0.30576 0.0
C3207 C 0.88121 0.4135 0.30494 0.0
H3208 H 0.82128 0.13197 0.56913 0.0
H3209 H 0.85423 0.11129 0.53352 0.0
H3210 H 0.83948 0.15528 0.57255 0.0
H3211 H 0.87268 0.13438 0.53723 0.0
H3212 H 0.90051 0.18076 0.54047 0.0
H3213 H 0.87733 0.16327 0.53381 0.0
H3214 H 0.86564 0.15944 0.58514 0.0
H3215 H 0.88854 0.17722 0.59172 0.0
C3216 C 0.83236 0.13247 0.56193 0.0
C3217 C 0.8364 0.11973 0.55114 0.0
C3218 C 0.84283 0.1458 0.56395 0.0
C3219 C 0.85761 0.14668 0.55527 0.0
C3220 C 0.86131 0.13423 0.54397 0.0
C3221 C 0.85079 0.12092 0.54191 0.0
C3222 C 0.89271 0.17654 0.55029 0.0
C3223 C 0.89642 0.18025 0.56664 0.0
C3224 C 0.87952 0.16638 0.54648 0.0
C3225 C 0.86979 0.15969 0.55894 0.0
C3226 C 0.8728 0.16442 0.5752 0.0
C3227 C 0.88595 0.17463 0.579 0.0
H3228 H 0.13742 0.10452 0.77783 0.0
H3229 H 0.12149 0.08569 0.82446 0.0
H3230 H 0.11647 0.12577 0.77932 0.0
H3231 H 0.10102 0.10707 0.82622 0.0
H3232 H 0.05976 0.1424 0.82339 0.0
H3233 H 0.07605 0.11844 0.81599 0.0
H3234 H 0.11279 0.15005 0.79503 0.0
H3235 H 0.09638 0.17372 0.80191 0.0
C3236 C 0.1294 0.10488 0.78834 0.0
C3237 C 0.13118 0.09355 0.80108 0.0
C3238 C 0.11743 0.11706 0.78924 0.0
C3239 C 0.10707 0.11819 0.80293 0.0
C3240 C 0.10857 0.10646 0.81538 0.0
C3241 C 0.12044 0.09428 0.81444 0.0
C3242 C 0.07116 0.14415 0.8169 0.0
C3243 C 0.07687 0.15992 0.81338 0.0
C3244 C 0.08055 0.13046 0.81276 0.0
C3245 C 0.09583 0.13231 0.80506 0.0
C3246 C 0.10104 0.14809 0.80078 0.0
C3247 C 0.09166 0.16171 0.80486 0.0
H3248 H 0.10455 0.68887 0.93138 0.0
H3249 H 0.07373 0.64665 0.93856 0.0
H3250 H 0.12842 0.67265 0.93942 0.0
H3251 H 0.09736 0.63052 0.94624 0.0
H3252 H 0.14052 0.60707 0.97009 0.0
H3253 H 0.11809 0.62655 0.96696 0.0
H3254 H 0.1441 0.65016 0.92758 0.0
H3255 H 0.16657 0.63099 0.93095 0.0
C3256 C 0.10287 0.67619 0.93476 0.0
C3257 C 0.0873 0.66901 0.93426 0.0
C3258 C 0.11652 0.66689 0.93931 0.0
C3259 C 0.11479 0.65028 0.9435 0.0
C3260 C 0.09912 0.64331 0.94336 0.0
C3261 C 0.08557 0.65255 0.9388 0.0
C3262 C 0.1415 0.61656 0.96092 0.0
C3263 C 0.15521 0.61742 0.95067 0.0
C3264 C 0.12865 0.62767 0.95907 0.0
C3265 C 0.12925 0.63985 0.94693 0.0
C3266 C 0.1433 0.64108 0.93716 0.0
C3267 C 0.15613 0.62999 0.93901 0.0
H3268 H 0.59858 0.32855 0.19242 0.0
H3269 H 0.55714 0.35872 0.17987 0.0
H3270 H 0.61383 0.35257 0.20049 0.0
H3271 H 0.57246 0.38306 0.18832 0.0
H3272 H 0.61577 0.41997 0.18002 0.0
H3273 H 0.59594 0.39797 0.17732 0.0
H3274 H 0.61623 0.37449 0.22003 0.0
H3275 H 0.63638 0.39634 0.22246 0.0
C3276 C 0.59263 0.34034 0.19161 0.0
C3277 C 0.57671 0.34178 0.18537 0.0
C3278 C 0.60134 0.35413 0.19641 0.0
C3279 C 0.59437 0.36975 0.19509 0.0
C3280 C 0.57821 0.37118 0.18937 0.0
C3281 C 0.56941 0.35728 0.1846 0.0
C3282 C 0.61584 0.41023 0.18898 0.0
C3283 C 0.62777 0.40974 0.20132 0.0
C3284 C 0.60438 0.39768 0.18751 0.0
C3285 C 0.6046 0.38439 0.19836 0.0
C3286 C 0.61593 0.38443 0.2113 0.0
C3287 C 0.62743 0.39696 0.21274 0.0
H3288 H 0.85762 0.89265 0.46823 0.0
H3289 H 0.83756 0.87423 0.42303 0.0
H3290 H 0.87955 0.87243 0.46667 0.0
H3291 H 0.85955 0.85428 0.42133 0.0
H3292 H 0.89607 0.81331 0.42704 0.0
H3293 H 0.87191 0.82976 0.43365 0.0
H3294 H 0.90322 0.86944 0.44886 0.0
H3295 H 0.92711 0.85307 0.44253 0.0
C3296 C 0.85785 0.88423 0.45803 0.0
C3297 C 0.846 0.88512 0.44567 0.0
C3298 C 0.8704 0.87267 0.45712 0.0
C3299 C 0.8713 0.86178 0.44385 0.0
C3300 C 0.85909 0.86234 0.43181 0.0
C3301 C 0.84658 0.87389 0.43271 0.0
C3302 C 0.89772 0.82545 0.43204 0.0
C3303 C 0.91343 0.83196 0.43414 0.0
C3304 C 0.88393 0.83488 0.43574 0.0
C3305 C 0.88567 0.85092 0.44173 0.0
C3306 C 0.90143 0.85708 0.44447 0.0
C3307 C 0.91513 0.84773 0.44071 0.0
H3308 H 0.34952 0.10842 0.71309 0.0
H3309 H 0.38262 0.07261 0.69304 0.0
H3310 H 0.37087 0.12898 0.71174 0.0
H3311 H 0.40437 0.09297 0.6924 0.0
H3312 H 0.42924 0.1396 0.67135 0.0
H3313 H 0.41196 0.11602 0.67712 0.0
H3314 H 0.39547 0.13916 0.72167 0.0
H3315 H 0.41202 0.16302 0.71528 0.0
C3316 C 0.36151 0.10487 0.70874 0.0
C3317 C 0.36438 0.08896 0.70307 0.0
C3318 C 0.37384 0.11663 0.70806 0.0
C3319 C 0.38945 0.11271 0.70193 0.0
C3320 C 0.39247 0.09655 0.69692 0.0
C3321 C 0.38004 0.08484 0.69739 0.0
C3322 C 0.4222 0.13941 0.68256 0.0
C3323 C 0.42181 0.15313 0.6928 0.0
C3324 C 0.41228 0.12589 0.68591 0.0
C3325 C 0.402 0.12576 0.69973 0.0
C3326 C 0.40278 0.139 0.71066 0.0
C3327 C 0.41241 0.1526 0.70712 0.0
H3328 H 0.06496 0.17332 0.36893 0.0
H3329 H 0.04175 0.13679 0.39906 0.0
H3330 H 0.06613 0.154 0.34629 0.0
H3331 H 0.04354 0.11723 0.37677 0.0
H3332 H 0.03875 0.08675 0.3329 0.0
H3333 H 0.03348 0.10983 0.35091 0.0
H3334 H 0.08049 0.1303 0.33818 0.0
H3335 H 0.08529 0.10756 0.31955 0.0
C3336 C 0.06016 0.16111 0.37071 0.0
C3337 C 0.05331 0.15651 0.38575 0.0
C3338 C 0.06088 0.15002 0.35776 0.0
C3339 C 0.05492 0.13403 0.35963 0.0
C3340 C 0.04794 0.12953 0.37471 0.0
C3341 C 0.04704 0.14068 0.38758 0.0
C3342 C 0.04772 0.09645 0.33364 0.0
C3343 C 0.06245 0.09538 0.32494 0.0
C3344 C 0.04481 0.10958 0.3441 0.0
C3345 C 0.05673 0.12174 0.34635 0.0
C3346 C 0.07099 0.12122 0.33673 0.0
C3347 C 0.07376 0.1082 0.32602 0.0
H3348 H 0.16767 0.29188 0.58819 0.0
H3349 H 0.14006 0.3327 0.56947 0.0
H3350 H 0.14506 0.28465 0.60609 0.0
H3351 H 0.11773 0.32612 0.58799 0.0
H3352 H 0.07593 0.30697 0.61753 0.0
H3353 H 0.09637 0.30909 0.59603 0.0
H3354 H 0.13373 0.29426 0.63036 0.0
H3355 H 0.11306 0.29132 0.65155 0.0
C3356 C 0.15666 0.29922 0.58782 0.0
C3357 C 0.15561 0.31288 0.5775 0.0
C3358 C 0.14375 0.2952 0.59822 0.0
C3359 C 0.12961 0.30494 0.59877 0.0
C3360 C 0.1283 0.31818 0.58784 0.0
C3361 C 0.14113 0.32202 0.57721 0.0
C3362 C 0.08851 0.30398 0.62039 0.0
C3363 C 0.09295 0.29904 0.63621 0.0
C3364 C 0.10026 0.30531 0.60809 0.0
C3365 C 0.1168 0.30199 0.6114 0.0
C3366 C 0.12112 0.29666 0.6272 0.0
C3367 C 0.1093 0.29507 0.63943 0.0
H3368 H 0.96164 0.41455 0.83754 0.0
H3369 H 0.9161 0.3938 0.82109 0.0
H3370 H 0.96639 0.39079 0.85479 0.0
H3371 H 0.9202 0.37044 0.83908 0.0
H3372 H 0.9339 0.32625 0.86849 0.0
H3373 H 0.93363 0.34667 0.84685 0.0
H3374 H 0.95656 0.38129 0.87957 0.0
H3375 H 0.95762 0.3605 0.90078 0.0
C3376 C 0.95275 0.40474 0.83748 0.0
C3377 C 0.9385 0.40597 0.82804 0.0
C3378 C 0.95534 0.39121 0.84754 0.0
C3379 C 0.94352 0.37879 0.84871 0.0
C3380 C 0.92968 0.37963 0.83847 0.0
C3381 C 0.92728 0.39303 0.82813 0.0
C3382 C 0.939 0.33821 0.87096 0.0
C3383 C 0.94573 0.34184 0.88632 0.0
C3384 C 0.93877 0.34997 0.85858 0.0
C3385 C 0.94501 0.36574 0.86137 0.0
C3386 C 0.95194 0.36923 0.87675 0.0
C3387 C 0.95243 0.35736 0.88902 0.0
H3388 H 0.85528 0.18132 0.06398 0.0
H3389 H 0.82491 0.19151 0.1059 0.0
H3390 H 0.87955 0.18867 0.07992 0.0
H3391 H 0.84895 0.19859 0.12176 0.0
H3392 H 0.89385 0.22026 0.14437 0.0
H3393 H 0.87124 0.21819 0.12495 0.0
H3394 H 0.89402 0.17594 0.10299 0.0
H3395 H 0.91663 0.17816 0.12215 0.0
C3396 C 0.85379 0.18528 0.07651 0.0
C3397 C 0.83824 0.18573 0.08374 0.0
C3398 C 0.86765 0.18943 0.08565 0.0
C3399 C 0.86616 0.19419 0.10211 0.0
C3400 C 0.85053 0.19519 0.10907 0.0
C3401 C 0.83674 0.19099 0.1 0.0
C3402 C 0.89409 0.21067 0.13526 0.0
C3403 C 0.90691 0.19929 0.13487 0.0
C3404 C 0.88115 0.20945 0.12417 0.0
C3405 C 0.88081 0.19685 0.11248 0.0
C3406 C 0.89399 0.18589 0.11171 0.0
C3407 C 0.90688 0.18709 0.12279 0.0
H3408 H 0.06321 0.82318 0.63656 0.0
H3409 H 0.03524 0.85824 0.60879 0.0
H3410 H 0.06628 0.84301 0.6586 0.0
H3411 H 0.03887 0.87827 0.63034 0.0
H3412 H 0.0408 0.91118 0.67234 0.0
H3413 H 0.03291 0.88709 0.6568 0.0
H3414 H 0.08133 0.86704 0.66368 0.0
H3415 H 0.08879 0.89082 0.68002 0.0
C3416 C 0.05761 0.8351 0.63523 0.0
C3417 C 0.04904 0.83921 0.62094 0.0
C3418 C 0.05946 0.84651 0.64782 0.0
C3419 C 0.05293 0.86233 0.64629 0.0
C3420 C 0.04385 0.86616 0.63217 0.0
C3421 C 0.04184 0.8547 0.61971 0.0
C3422 C 0.04958 0.90138 0.67088 0.0
C3423 C 0.06542 0.90286 0.67724 0.0
C3424 C 0.04513 0.88765 0.66183 0.0
C3425 C 0.05658 0.87525 0.65859 0.0
C3426 C 0.07212 0.87625 0.66597 0.0
C3427 C 0.07645 0.88989 0.67533 0.0
H3428 H 0.36244 0.31919 0.94478 0.0
H3429 H 0.33216 0.29514 0.90888 0.0
H3430 H 0.38675 0.31198 0.92899 0.0
H3431 H 0.35614 0.2885 0.8929 0.0
H3432 H 0.4016 0.27306 0.86804 0.0
H3433 H 0.38083 0.27394 0.88942 0.0
H3434 H 0.39804 0.32171 0.904 0.0
H3435 H 0.4191 0.32047 0.88314 0.0
C3436 C 0.36101 0.31215 0.93367 0.0
C3437 C 0.34541 0.30788 0.92797 0.0
C3438 C 0.3749 0.30813 0.92455 0.0
C3439 C 0.37342 0.29982 0.90954 0.0
C3440 C 0.35784 0.29473 0.90444 0.0
C3441 C 0.34403 0.29866 0.91357 0.0
C3442 C 0.40105 0.28362 0.87599 0.0
C3443 C 0.41184 0.29676 0.87382 0.0
C3444 C 0.38913 0.28417 0.8882 0.0
C3445 C 0.38764 0.29796 0.89837 0.0
C3446 C 0.39893 0.31079 0.89659 0.0
C3447 C 0.41093 0.31015 0.8845 0.0
H3448 H 0.94613 0.67393 0.13734 0.0
H3449 H 0.96282 0.63837 0.10219 0.0
H3450 H 0.94405 0.65265 0.15804 0.0
H3451 H 0.95987 0.61687 0.12248 0.0
H3452 H 0.96109 0.58081 0.16244 0.0
H3453 H 0.9689 0.60445 0.14621 0.0
H3454 H 0.92719 0.63091 0.16506 0.0
H3455 H 0.92012 0.60749 0.18207 0.0
C3456 C 0.94939 0.66152 0.13408 0.0
C3457 C 0.95459 0.65775 0.11817 0.0
C3458 C 0.94808 0.64929 0.1459 0.0
C3459 C 0.95164 0.63293 0.142 0.0
C3460 C 0.95729 0.62931 0.12613 0.0
C3461 C 0.9589 0.64162 0.1144 0.0
C3462 C 0.95384 0.59186 0.16336 0.0
C3463 C 0.93998 0.59237 0.17341 0.0
C3464 C 0.95819 0.60536 0.15391 0.0
C3465 C 0.94851 0.61956 0.15398 0.0
C3466 C 0.93508 0.6203 0.16475 0.0
C3467 C 0.93096 0.60688 0.1745 0.0
H3468 H 0.64587 0.16534 0.42929 0.0
H3469 H 0.66716 0.21152 0.41557 0.0
H3470 H 0.62278 0.17057 0.41119 0.0
H3471 H 0.64366 0.21739 0.39831 0.0
H3472 H 0.61494 0.21088 0.35112 0.0
H3473 H 0.63497 0.20868 0.37288 0.0
H3474 H 0.59919 0.18454 0.40339 0.0
H3475 H 0.57945 0.18599 0.38111 0.0
C3476 C 0.64527 0.17688 0.42284 0.0
C3477 C 0.65829 0.18797 0.42365 0.0
C3478 C 0.63202 0.17993 0.41245 0.0
C3479 C 0.63144 0.19429 0.40295 0.0
C3480 C 0.64391 0.20596 0.40496 0.0
C3481 C 0.65729 0.20272 0.415 0.0
C3482 C 0.61135 0.2052 0.36252 0.0
C3483 C 0.5957 0.19852 0.36439 0.0
C3484 C 0.62279 0.20406 0.37512 0.0
C3485 C 0.61876 0.19647 0.39004 0.0
C3486 C 0.60287 0.19022 0.39203 0.0
C3487 C 0.59151 0.19113 0.3793 0.0
H3488 H 0.34797 0.04261 0.08002 0.0
H3489 H 0.31329 0.07186 0.10694 0.0
H3490 H 0.36354 0.03801 0.10475 0.0
H3491 H 0.3288 0.0669 0.13207 0.0
H3492 H 0.37575 0.07621 0.1633 0.0
H3493 H 0.35503 0.07654 0.14197 0.0
H3494 H 0.36528 0.02586 0.13127 0.0
H3495 H 0.3864 0.02571 0.15233 0.0
C3496 C 0.34346 0.04776 0.09135 0.0
C3497 C 0.3295 0.05775 0.09152 0.0
C3498 C 0.35235 0.04501 0.10559 0.0
C3499 C 0.34751 0.05217 0.12041 0.0
C3500 C 0.33298 0.0614 0.1208 0.0
C3501 C 0.32402 0.06413 0.10646 0.0
C3502 C 0.37348 0.0651 0.15648 0.0
C3503 C 0.38285 0.051 0.15931 0.0
C3504 C 0.36147 0.06524 0.14436 0.0
C3505 C 0.35852 0.05125 0.13484 0.0
C3506 C 0.36741 0.03692 0.13821 0.0
C3507 C 0.37949 0.03681 0.15028 0.0
H3508 H 0.89786 0.96021 0.35784 0.0
H3509 H 0.86637 0.93708 0.32245 0.0
H3510 H 0.87606 0.95902 0.37804 0.0
H3511 H 0.8442 0.93667 0.34226 0.0
H3512 H 0.81832 0.91733 0.38855 0.0
H3513 H 0.8364 0.92246 0.36556 0.0
H3514 H 0.85081 0.96846 0.38723 0.0
H3515 H 0.83336 0.96275 0.41064 0.0
C3516 C 0.88615 0.95513 0.35432 0.0
C3517 C 0.88385 0.94858 0.33867 0.0
C3518 C 0.87356 0.95457 0.36584 0.0
C3519 C 0.85827 0.9477 0.36186 0.0
C3520 C 0.85585 0.94173 0.34593 0.0
C3521 C 0.86854 0.94203 0.33453 0.0
C3522 C 0.82504 0.92872 0.38816 0.0
C3523 C 0.82455 0.93958 0.4014 0.0
C3524 C 0.83545 0.93171 0.37496 0.0
C3525 C 0.84538 0.94577 0.3746 0.0
C3526 C 0.84377 0.95727 0.38728 0.0
C3527 C 0.8336 0.95412 0.40061 0.0
H3528 H 0.32738 0.068 0.63906 0.0
H3529 H 0.28483 0.0845 0.66533 0.0
H3530 H 0.31962 0.08495 0.6158 0.0
H3531 H 0.27631 0.10054 0.64181 0.0
H3532 H 0.28025 0.14576 0.60928 0.0
H3533 H 0.28361 0.12492 0.63007 0.0
H3534 H 0.30318 0.09183 0.59378 0.0
H3535 H 0.30067 0.11323 0.57319 0.0
C3536 C 0.31608 0.07486 0.63961 0.0
C3537 C 0.30679 0.07512 0.65398 0.0
C3538 C 0.31154 0.08457 0.62626 0.0
C3539 C 0.29742 0.09444 0.62692 0.0
C3540 C 0.28753 0.0936 0.64096 0.0
C3541 C 0.2923 0.08426 0.6544 0.0
C3542 C 0.28501 0.13394 0.6057 0.0
C3543 C 0.29028 0.13115 0.58965 0.0
C3544 C 0.28688 0.12187 0.61763 0.0
C3545 C 0.29379 0.10657 0.61374 0.0
C3546 C 0.29818 0.10353 0.59739 0.0
C3547 C 0.29659 0.11574 0.58553 0.0
H3548 H 0.10258 0.54575 0.86218 0.0
H3549 H 0.13225 0.57221 0.82755 0.0
H3550 H 0.12461 0.54708 0.8821 0.0
H3551 H 0.15467 0.57286 0.84711 0.0
H3552 H 0.18133 0.5894 0.89432 0.0
H3553 H 0.16274 0.58561 0.87139 0.0
H3554 H 0.15046 0.53748 0.88944 0.0
H3555 H 0.16837 0.54179 0.9128 0.0
C3556 C 0.11391 0.55169 0.85878 0.0
C3557 C 0.11566 0.55898 0.8434 0.0
C3558 C 0.12664 0.55232 0.87013 0.0
C3559 C 0.14155 0.56001 0.86624 0.0
C3560 C 0.14334 0.56705 0.85067 0.0
C3561 C 0.13049 0.56664 0.83942 0.0
C3562 C 0.17498 0.57785 0.89309 0.0
C3563 C 0.17617 0.56593 0.90534 0.0
C3564 C 0.16427 0.57565 0.87996 0.0
C3565 C 0.15476 0.56135 0.8787 0.0
C3566 C 0.15714 0.54886 0.89026 0.0
C3567 C 0.16759 0.55121 0.90353 0.0
H3568 H 0.16752 0.93192 0.14249 0.0
H3569 H 0.21432 0.91835 0.16253 0.0
H3570 H 0.17296 0.91524 0.11842 0.0
H3571 H 0.22033 0.90246 0.13813 0.0
H3572 H 0.21382 0.85632 0.10731 0.0
H3573 H 0.21183 0.87717 0.12836 0.0
H3574 H 0.18712 0.9092 0.09433 0.0
H3575 H 0.18841 0.8879 0.07357 0.0
C3576 C 0.17923 0.92584 0.14143 0.0
C3577 C 0.19044 0.92625 0.15436 0.0
C3578 C 0.1824 0.91626 0.12763 0.0
C3579 C 0.19699 0.90718 0.12642 0.0
C3580 C 0.20875 0.90883 0.13883 0.0
C3581 C 0.20542 0.91809 0.15274 0.0
C3582 C 0.2081 0.86788 0.10432 0.0
C3583 C 0.20117 0.87045 0.08888 0.0
C3584 C 0.20705 0.87993 0.11634 0.0
C3585 C 0.19929 0.89497 0.11311 0.0
C3586 C 0.19291 0.89771 0.09739 0.0
C3587 C 0.19373 0.88554 0.08545 0.0
H3588 H 0.63603 0.94359 0.17469 0.0
H3589 H 0.60206 0.96169 0.13866 0.0
H3590 H 0.65706 0.94112 0.15375 0.0
H3591 H 0.62268 0.95846 0.11755 0.0
H3592 H 0.66355 0.9598 0.08248 0.0
H3593 H 0.64694 0.96733 0.10593 0.0
H3594 H 0.66416 0.92448 0.13164 0.0
H3595 H 0.68151 0.91758 0.1084 0.0
C3596 C 0.6331 0.9471 0.16228 0.0
C3597 C 0.61741 0.95282 0.15829 0.0
C3598 C 0.64512 0.94556 0.15023 0.0
C3599 C 0.64165 0.94947 0.13385 0.0
C3600 C 0.62601 0.9556 0.13002 0.0
C3601 C 0.61409 0.95737 0.14212 0.0
C3602 C 0.66403 0.95221 0.09332 0.0
C3603 C 0.67374 0.93808 0.09364 0.0
C3604 C 0.65436 0.95641 0.10671 0.0
C3605 C 0.65385 0.94635 0.12064 0.0
C3606 C 0.66428 0.93264 0.12124 0.0
C3607 C 0.67424 0.92863 0.10791 0.0
H3608 H 0.27822 0.36476 0.90513 0.0
H3609 H 0.32873 0.37393 0.91732 0.0
H3610 H 0.27938 0.38617 0.88436 0.0
H3611 H 0.33007 0.3949 0.89633 0.0
H3612 H 0.32737 0.43765 0.86274 0.0
H3613 H 0.3214 0.42149 0.88717 0.0
H3614 H 0.2919 0.38871 0.85812 0.0
H3615 H 0.29746 0.40502 0.83403 0.0
C3616 C 0.28955 0.37139 0.9034 0.0
C3617 C 0.30342 0.36757 0.91273 0.0
C3618 C 0.29023 0.38363 0.8915 0.0
C3619 C 0.30484 0.39223 0.88862 0.0
C3620 C 0.31854 0.38872 0.89836 0.0
C3621 C 0.31783 0.37657 0.91029 0.0
C3622 C 0.3193 0.42721 0.86171 0.0
C3623 C 0.31301 0.4225 0.84647 0.0
C3624 C 0.31599 0.41787 0.87566 0.0
C3625 C 0.30632 0.40368 0.87459 0.0
C3626 C 0.29925 0.39962 0.85948 0.0
C3627 C 0.30255 0.40893 0.84561 0.0
H3628 H 0.68676 0.12015 0.41869 0.0
H3629 H 0.72489 0.14547 0.39248 0.0
H3630 H 0.68418 0.10072 0.39634 0.0
H3631 H 0.72266 0.1257 0.37024 0.0
H3632 H 0.69525 0.10487 0.32578 0.0
H3633 H 0.70267 0.12099 0.34945 0.0
H3634 H 0.69594 0.07876 0.38042 0.0
H3635 H 0.68805 0.06257 0.35649 0.0
C3636 C 0.69483 0.12138 0.40827 0.0
C3637 C 0.70591 0.13445 0.40725 0.0
C3638 C 0.69342 0.11015 0.39549 0.0
C3639 C 0.70311 0.1117 0.38141 0.0
C3640 C 0.7148 0.12431 0.38079 0.0
C3641 C 0.71615 0.1356 0.39356 0.0
C3642 C 0.69548 0.09893 0.33761 0.0
C3643 C 0.69095 0.08246 0.33928 0.0
C3644 C 0.6999 0.10817 0.3512 0.0
C3645 C 0.69996 0.1012 0.36688 0.0
C3646 C 0.69588 0.08456 0.36853 0.0
C3647 C 0.69143 0.07526 0.35484 0.0
H3648 H 0.14949 0.88709 0.52371 0.0
H3649 H 0.17225 0.86776 0.56722 0.0
H3650 H 0.12755 0.86709 0.52634 0.0
H3651 H 0.1501 0.84815 0.57017 0.0
H3652 H 0.11037 0.80981 0.56871 0.0
H3653 H 0.13506 0.82453 0.56021 0.0
H3654 H 0.10524 0.86543 0.54514 0.0
H3655 H 0.0809 0.85074 0.55319 0.0
C3656 C 0.14989 0.87845 0.53373 0.0
C3657 C 0.16246 0.87912 0.54537 0.0
C3658 C 0.1373 0.86703 0.53529 0.0
C3659 C 0.13693 0.85615 0.5486 0.0
C3660 C 0.15004 0.85623 0.5597 0.0
C3661 C 0.16269 0.86757 0.55807 0.0
C3662 C 0.10917 0.82184 0.56334 0.0
C3663 C 0.09374 0.82917 0.56173 0.0
C3664 C 0.12327 0.8303 0.55854 0.0
C3665 C 0.12214 0.84617 0.55198 0.0
C3666 C 0.10661 0.85315 0.54986 0.0
C3667 C 0.09262 0.84476 0.55466 0.0
H3668 H 0.89398 0.82451 0.80707 0.0
H3669 H 0.9354 0.85657 0.81334 0.0
H3670 H 0.87695 0.84767 0.79991 0.0
H3671 H 0.91831 0.87995 0.80575 0.0
H3672 H 0.87613 0.91687 0.81605 0.0
H3673 H 0.89605 0.89494 0.81833 0.0
H3674 H 0.87128 0.86849 0.77995 0.0
H3675 H 0.85103 0.89035 0.77797 0.0
C3676 C 0.89952 0.83652 0.80669 0.0
C3677 C 0.91601 0.83874 0.8109 0.0
C3678 C 0.88976 0.84981 0.80243 0.0
C3679 C 0.89623 0.8657 0.80224 0.0
C3680 C 0.9129 0.86788 0.80595 0.0
C3681 C 0.92271 0.85451 0.81022 0.0
C3682 C 0.87502 0.90645 0.80797 0.0
C3683 C 0.8619 0.90524 0.79695 0.0
C3684 C 0.88654 0.89393 0.80919 0.0
C3685 C 0.88524 0.8799 0.79939 0.0
C3686 C 0.8725 0.87902 0.78786 0.0
C3687 C 0.86093 0.89156 0.78666 0.0
H3688 H 0.86307 0.60089 0.04675 0.0
H3689 H 0.828 0.63262 0.07007 0.0
H3690 H 0.88364 0.62228 0.04856 0.0
H3691 H 0.84825 0.65438 0.07116 0.0
H3692 H 0.89492 0.68048 0.08942 0.0
H3693 H 0.87201 0.66196 0.08518 0.0
H3694 H 0.89236 0.64758 0.03858 0.0
H3695 H 0.91565 0.66544 0.04336 0.0
C3696 C 0.85973 0.61254 0.05207 0.0
C3697 C 0.84401 0.61507 0.05837 0.0
C3698 C 0.87146 0.62489 0.05299 0.0
C3699 C 0.86764 0.64016 0.05997 0.0
C3700 C 0.85175 0.64274 0.06596 0.0
C3701 C 0.84011 0.63028 0.06527 0.0
C3702 C 0.89426 0.6736 0.07813 0.0
C3703 C 0.90706 0.67426 0.06678 0.0
C3704 C 0.88112 0.66297 0.07566 0.0
C3705 C 0.88043 0.653 0.06165 0.0
C3706 C 0.89271 0.65466 0.04974 0.0
C3707 C 0.90596 0.66505 0.05237 0.0
H3708 H 0.0879 0.6661 0.28881 0.0
H3709 H 0.07051 0.64249 0.33258 0.0
H3710 H 0.10553 0.64285 0.28311 0.0
H3711 H 0.08883 0.61952 0.32748 0.0
H3712 H 0.11885 0.57642 0.31117 0.0
H3713 H 0.09698 0.59662 0.31219 0.0
H3714 H 0.13022 0.63323 0.29359 0.0
H3715 H 0.15174 0.61282 0.29185 0.0
C3716 C 0.08775 0.6558 0.29711 0.0
C3717 C 0.07794 0.65608 0.31116 0.0
C3718 C 0.09798 0.64254 0.29396 0.0
C3719 C 0.09894 0.62942 0.30501 0.0
C3720 C 0.08838 0.62932 0.31861 0.0
C3721 C 0.07787 0.64248 0.32158 0.0
C3722 C 0.12138 0.58877 0.30713 0.0
C3723 C 0.13699 0.59308 0.30145 0.0
C3724 C 0.10887 0.60038 0.30781 0.0
C3725 C 0.11176 0.61662 0.30302 0.0
C3726 C 0.12737 0.6208 0.29707 0.0
C3727 C 0.13979 0.60913 0.29618 0.0
H3728 H 0.14181 0.10906 0.47093 0.0
H3729 H 0.17728 0.13933 0.44635 0.0
H3730 H 0.12158 0.13062 0.46837 0.0
H3731 H 0.15727 0.16133 0.4444 0.0
H3732 H 0.11 0.18331 0.42132 0.0
H3733 H 0.13386 0.16714 0.42882 0.0
H3734 H 0.11181 0.1564 0.47561 0.0
H3735 H 0.08765 0.17182 0.46762 0.0
C3736 C 0.1454 0.12051 0.46536 0.0
C3737 C 0.16106 0.12246 0.45872 0.0
C3738 C 0.13382 0.13298 0.46396 0.0
C3739 C 0.1377 0.1478 0.45608 0.0
C3740 C 0.15371 0.15002 0.45025 0.0
C3741 C 0.16523 0.13745 0.45147 0.0
C3742 C 0.1105 0.17785 0.43337 0.0
C3743 C 0.09697 0.17865 0.44383 0.0
C3744 C 0.12419 0.16856 0.43772 0.0
C3745 C 0.12468 0.16011 0.45273 0.0
C3746 C 0.11169 0.16227 0.46376 0.0
C3747 C 0.09791 0.17127 0.45928 0.0
H3748 H 0.61187 0.92745 0.68302 0.0
H3749 H 0.64003 0.89418 0.71269 0.0
H3750 H 0.58994 0.90742 0.68118 0.0
H3751 H 0.61857 0.87377 0.7102 0.0
H3752 H 0.57595 0.8412 0.71119 0.0
H3753 H 0.59231 0.86532 0.71715 0.0
H3754 H 0.58397 0.88284 0.66799 0.0
H3755 H 0.56685 0.85915 0.66249 0.0
C3756 C 0.61336 0.91581 0.68913 0.0
C3757 C 0.62767 0.91232 0.69794 0.0
C3758 C 0.60082 0.90428 0.68801 0.0
C3759 C 0.60241 0.88887 0.69547 0.0
C3760 C 0.61667 0.88557 0.70455 0.0
C3761 C 0.62909 0.89721 0.70588 0.0
C3762 C 0.57724 0.8505 0.70185 0.0
C3763 C 0.57021 0.84833 0.68637 0.0
C3764 C 0.58681 0.86422 0.70517 0.0
C3765 C 0.58987 0.8759 0.69294 0.0
C3766 C 0.58185 0.87422 0.67779 0.0
C3767 C 0.572 0.86063 0.67459 0.0
H3768 H 0.88663 0.31773 0.91968 0.0
H3769 H 0.90882 0.32727 0.96652 0.0
H3770 H 0.86346 0.33482 0.92713 0.0
H3771 H 0.88525 0.34359 0.97448 0.0
H3772 H 0.85689 0.39197 0.97071 0.0
H3773 H 0.87636 0.36976 0.96798 0.0
H3774 H 0.84012 0.34114 0.94226 0.0
H3775 H 0.82095 0.36386 0.94431 0.0
C3776 C 0.88624 0.32301 0.93181 0.0
C3777 C 0.89956 0.32136 0.94246 0.0
C3778 C 0.87292 0.33281 0.93614 0.0
C3779 C 0.87255 0.3409 0.95134 0.0
C3780 C 0.88531 0.338 0.96249 0.0
C3781 C 0.89875 0.32849 0.95802 0.0
C3782 C 0.85302 0.38084 0.9647 0.0
C3783 C 0.83749 0.3797 0.95758 0.0
C3784 C 0.86416 0.36799 0.96321 0.0
C3785 C 0.85992 0.35358 0.95478 0.0
C3786 C 0.84398 0.35214 0.94851 0.0
C3787 C 0.83293 0.36511 0.94978 0.0
H3788 H 0.43449 0.63939 0.16384 0.0
H3789 H 0.42223 0.65915 0.21111 0.0
H3790 H 0.41554 0.61693 0.16823 0.0
H3791 H 0.40403 0.63615 0.21611 0.0
H3792 H 0.38435 0.57403 0.1819 0.0
H3793 H 0.40716 0.59313 0.18104 0.0
H3794 H 0.3782 0.62852 0.20757 0.0
H3795 H 0.3559 0.60899 0.20922 0.0
C3796 C 0.42818 0.63855 0.17544 0.0
C3797 C 0.4297 0.65101 0.1871 0.0
C3798 C 0.41728 0.62565 0.17801 0.0
C3799 C 0.40793 0.6248 0.19244 0.0
C3800 C 0.41057 0.63664 0.20463 0.0
C3801 C 0.42117 0.64971 0.20189 0.0
C3802 C 0.38297 0.58588 0.18763 0.0
C3803 C 0.36837 0.59009 0.19557 0.0
C3804 C 0.39602 0.59687 0.18709 0.0
C3805 C 0.39463 0.61247 0.19419 0.0
C3806 C 0.37997 0.61654 0.20226 0.0
C3807 C 0.36707 0.60541 0.20308 0.0
H3808 H 0.03363 0.59102 0.82661 0.0
H3809 H 0.07928 0.61504 0.81592 0.0
H3810 H 0.02462 0.61477 0.84209 0.0
H3811 H 0.07079 0.63847 0.83216 0.0
H3812 H 0.05205 0.68103 0.86007 0.0
H3813 H 0.05463 0.66129 0.83791 0.0
H3814 H 0.03076 0.62491 0.86789 0.0
H3815 H 0.02752 0.64489 0.88957 0.0
C3816 C 0.04162 0.60154 0.82737 0.0
C3817 C 0.05717 0.60119 0.82016 0.0
C3818 C 0.03655 0.6151 0.8364 0.0
C3819 C 0.04708 0.62847 0.83878 0.0
C3820 C 0.06223 0.62853 0.83056 0.0
C3821 C 0.06716 0.61506 0.82123 0.0
C3822 C 0.04705 0.66889 0.86174 0.0
C3823 C 0.03966 0.66445 0.87658 0.0
C3824 C 0.04865 0.65752 0.84908 0.0
C3825 C 0.04312 0.64136 0.85108 0.0
C3826 C 0.03499 0.63724 0.86569 0.0
C3827 C 0.03318 0.64869 0.87823 0.0
H3828 H 0.14223 0.83751 0.0675 0.0
H3829 H 0.16551 0.79239 0.08166 0.0
H3830 H 0.11946 0.83151 0.08565 0.0
H3831 H 0.14233 0.78576 0.09908 0.0
H3832 H 0.11209 0.79135 0.14576 0.0
H3833 H 0.13254 0.79399 0.12435 0.0
H3834 H 0.09653 0.8165 0.09284 0.0
H3835 H 0.07646 0.81469 0.1147 0.0
C3836 C 0.14218 0.82603 0.07409 0.0
C3837 C 0.15563 0.81547 0.0733 0.0
C3838 C 0.1291 0.82253 0.08451 0.0
C3839 C 0.12909 0.80822 0.09411 0.0
C3840 C 0.14209 0.79712 0.0923 0.0
C3841 C 0.1553 0.8008 0.08217 0.0
C3842 C 0.10858 0.79675 0.1342 0.0
C3843 C 0.09278 0.80295 0.13192 0.0
C3844 C 0.12025 0.79816 0.12183 0.0
C3845 C 0.11627 0.80552 0.10676 0.0
C3846 C 0.1002 0.8111 0.10434 0.0
C3847 C 0.08864 0.80998 0.11684 0.0
H3848 H 0.94949 0.8227 0.35949 0.0
H3849 H 0.97143 0.8589 0.3909 0.0
H3850 H 0.94616 0.84317 0.3381 0.0
H3851 H 0.96736 0.87957 0.37004 0.0
H3852 H 0.92029 0.88858 0.31618 0.0
H3853 H 0.92907 0.86532 0.33259 0.0
H3854 H 0.97361 0.89096 0.34494 0.0
H3855 H 0.96423 0.91448 0.32935 0.0
C3856 C 0.95376 0.83502 0.36173 0.0
C3857 C 0.96067 0.83924 0.37686 0.0
C3858 C 0.95171 0.84681 0.34954 0.0
C3859 C 0.95628 0.86315 0.35231 0.0
C3860 C 0.96389 0.86712 0.36724 0.0
C3861 C 0.96618 0.85527 0.37931 0.0
C3862 C 0.93208 0.88905 0.32218 0.0
C3863 C 0.9415 0.90334 0.32168 0.0
C3864 C 0.93719 0.8757 0.33157 0.0
C3865 C 0.95199 0.87627 0.34038 0.0
C3866 C 0.96193 0.8902 0.33878 0.0
C3867 C 0.95665 0.90364 0.32971 0.0
H3868 H 0.82736 0.69441 0.60245 0.0
H3869 H 0.85719 0.67927 0.56166 0.0
H3870 H 0.85163 0.70133 0.61786 0.0
H3871 H 0.8818 0.68657 0.57714 0.0
H3872 H 0.91793 0.67697 0.62054 0.0
H3873 H 0.89568 0.67506 0.60093 0.0
H3874 H 0.87473 0.71944 0.62038 0.0
H3875 H 0.89688 0.72113 0.64033 0.0
C3876 C 0.83915 0.69279 0.59667 0.0
C3877 C 0.84038 0.68614 0.58089 0.0
C3878 C 0.85309 0.69692 0.60547 0.0
C3879 C 0.86868 0.69452 0.59876 0.0
C3880 C 0.86995 0.68843 0.5827 0.0
C3881 C 0.85589 0.68432 0.57381 0.0
C3882 C 0.90867 0.68643 0.62052 0.0
C3883 C 0.90902 0.69909 0.63211 0.0
C3884 C 0.89599 0.68541 0.60916 0.0
C3885 C 0.88337 0.69704 0.60913 0.0
C3886 C 0.88415 0.71015 0.62024 0.0
C3887 C 0.89684 0.71115 0.63164 0.0
H3888 H 0.06474 0.32538 0.13277 0.0
H3889 H 0.0403 0.3606 0.10208 0.0
H3890 H 0.06644 0.34545 0.15466 0.0
H3891 H 0.04274 0.38102 0.12354 0.0
H3892 H 0.04047 0.41381 0.1661 0.0
H3893 H 0.0343 0.39031 0.14895 0.0
H3894 H 0.08083 0.36887 0.16198 0.0
H3895 H 0.0864 0.392 0.17989 0.0
C3896 C 0.05976 0.33747 0.13071 0.0
C3897 C 0.05244 0.34147 0.11572 0.0
C3898 C 0.06081 0.34902 0.14323 0.0
C3899 C 0.05481 0.36496 0.14096 0.0
C3900 C 0.04723 0.36882 0.12597 0.0
C3901 C 0.04593 0.35716 0.11355 0.0
C3902 C 0.04914 0.40381 0.16562 0.0
C3903 C 0.06391 0.40467 0.17427 0.0
C3904 C 0.04572 0.39043 0.15561 0.0
C3905 C 0.05721 0.37779 0.15369 0.0
C3906 C 0.07159 0.37825 0.16318 0.0
C3907 C 0.07483 0.3915 0.17349 0.0
H3908 H 0.33385 0.78856 0.409 0.0
H3909 H 0.36458 0.82451 0.43229 0.0
H3910 H 0.35655 0.78021 0.3917 0.0
H3911 H 0.38721 0.81663 0.41455 0.0
H3912 H 0.42807 0.79483 0.3851 0.0
H3913 H 0.40695 0.79688 0.40603 0.0
H3914 H 0.36982 0.79189 0.36879 0.0
H3915 H 0.39093 0.78932 0.34805 0.0
C3916 C 0.34555 0.79455 0.41054 0.0
C3917 C 0.34743 0.80727 0.4219 0.0
C3918 C 0.35853 0.78986 0.40053 0.0
C3919 C 0.37366 0.79792 0.40149 0.0
C3920 C 0.37579 0.81004 0.41353 0.0
C3921 C 0.36282 0.81461 0.42369 0.0
C3922 C 0.41538 0.79388 0.38146 0.0
C3923 C 0.41114 0.79196 0.36493 0.0
C3924 C 0.40327 0.79518 0.39344 0.0
C3925 C 0.38665 0.79468 0.38914 0.0
C3926 C 0.38247 0.7921 0.37264 0.0
C3927 C 0.39458 0.79071 0.36069 0.0
H3928 H 0.94875 0.13501 0.59494 0.0
H3929 H 0.95211 0.17031 0.634 0.0
H3930 H 0.94721 0.11306 0.61486 0.0
H3931 H 0.9511 0.14824 0.65406 0.0
H3932 H 0.95505 0.0748 0.65199 0.0
H3933 H 0.9618 0.09801 0.63474 0.0
H3934 H 0.93159 0.12913 0.66487 0.0
H3935 H 0.92541 0.10586 0.68258 0.0
C3936 C 0.94948 0.13805 0.6078 0.0
C3937 C 0.95051 0.15437 0.6129 0.0
C3938 C 0.94869 0.12545 0.61926 0.0
C3939 C 0.94904 0.12885 0.63612 0.0
C3940 C 0.95058 0.14519 0.6412 0.0
C3941 C 0.95128 0.15782 0.62971 0.0
C3942 C 0.95008 0.08668 0.65508 0.0
C3943 C 0.93958 0.08854 0.66851 0.0
C3944 C 0.95385 0.09996 0.64512 0.0
C3945 C 0.94698 0.11539 0.64818 0.0
C3946 C 0.93717 0.11745 0.66218 0.0
C3947 C 0.93358 0.10413 0.67232 0.0
H3948 H 0.57488 0.68542 0.88444 0.0
H3949 H 0.61 0.71489 0.8584 0.0
H3950 H 0.59339 0.6839 0.90778 0.0
H3951 H 0.62877 0.71283 0.88125 0.0
H3952 H 0.65941 0.7134 0.92451 0.0
H3953 H 0.63541 0.71987 0.90814 0.0
H3954 H 0.61791 0.67044 0.91462 0.0
H3955 H 0.64148 0.66438 0.93175 0.0
C3956 C 0.58655 0.69162 0.88375 0.0
C3957 C 0.59107 0.70019 0.86958 0.0
C3958 C 0.59718 0.6907 0.89709 0.0
C3959 C 0.61264 0.6982 0.89646 0.0
C3960 C 0.61688 0.70717 0.8824 0.0
C3961 C 0.60617 0.70824 0.86918 0.0
C3962 C 0.65011 0.70412 0.92286 0.0
C3963 C 0.6523 0.68837 0.92924 0.0
C3964 C 0.63646 0.70775 0.91332 0.0
C3965 C 0.62493 0.69555 0.90962 0.0
C3966 C 0.62647 0.68018 0.91721 0.0
C3967 C 0.63999 0.67667 0.92705 0.0
H3968 H 0.30815 0.57215 0.60762 0.0
H3969 H 0.34258 0.54281 0.58048 0.0
H3970 H 0.32336 0.56645 0.63281 0.0
H3971 H 0.35783 0.53746 0.60525 0.0
H3972 H 0.38006 0.52368 0.65259 0.0
H3973 H 0.35899 0.52467 0.6315 0.0
H3974 H 0.34971 0.57532 0.6432 0.0
H3975 H 0.37039 0.57415 0.66454 0.0
C3976 C 0.31876 0.56426 0.6071 0.0
C3977 C 0.32427 0.55805 0.5921 0.0
C3978 C 0.32754 0.56109 0.62147 0.0
C3979 C 0.34189 0.55158 0.62105 0.0
C3980 C 0.34676 0.54465 0.60613 0.0
C3981 C 0.33806 0.54784 0.59186 0.0
C3982 C 0.37336 0.53495 0.65077 0.0
C3983 C 0.377 0.54889 0.66007 0.0
C3984 C 0.36132 0.53554 0.63868 0.0
C3985 C 0.35273 0.55012 0.63556 0.0
C3986 C 0.35591 0.56384 0.64538 0.0
C3987 C 0.36789 0.56322 0.65752 0.0
H3988 H 0.81219 0.43312 0.8936 0.0
H3989 H 0.85284 0.44631 0.92456 0.0
H3990 H 0.82823 0.44088 0.86949 0.0
H3991 H 0.86879 0.45361 0.90081 0.0
H3992 H 0.89285 0.47422 0.8572 0.0
H3993 H 0.87222 0.47238 0.87864 0.0
H3994 H 0.85182 0.42963 0.85531 0.0
H3995 H 0.8721 0.4318 0.83368 0.0
C3996 C 0.82444 0.43783 0.89526 0.0
C3997 C 0.83129 0.439 0.91093 0.0
C3998 C 0.83365 0.44219 0.88149 0.0
C3999 C 0.84981 0.44787 0.88321 0.0
C4000 C 0.85633 0.44957 0.89898 0.0
C4001 C 0.8472 0.44521 0.91264 0.0
C4002 C 0.8838 0.4646 0.85655 0.0
C4003 C 0.88421 0.45304 0.8439 0.0
C4004 C 0.87201 0.4635 0.86884 0.0
C4005 C 0.86047 0.45074 0.8688 0.0
C4006 C 0.8604 0.4397 0.85566 0.0
C4007 C 0.87213 0.44086 0.84333 0.0
H4008 H 0.27101 0.63701 0.10085 0.0
H4009 H 0.31694 0.62084 0.0806 0.0
H4010 H 0.27215 0.61495 0.1209 0.0
H4011 H 0.31854 0.59939 0.10097 0.0
H4012 H 0.31798 0.55894 0.13707 0.0
H4013 H 0.30972 0.57477 0.11307 0.0
H4014 H 0.28738 0.61071 0.14469 0.0
H4015 H 0.29496 0.59468 0.1683 0.0
C4016 C 0.28126 0.62865 0.10059 0.0
C4017 C 0.29397 0.63078 0.08929 0.0
C4018 C 0.28199 0.61605 0.11213 0.0
C4019 C 0.29557 0.60547 0.11278 0.0
C4020 C 0.30779 0.60711 0.10082 0.0
C4021 C 0.30695 0.61954 0.08918 0.0
C4022 C 0.31096 0.57003 0.13879 0.0
C4023 C 0.30728 0.57565 0.15456 0.0
C4024 C 0.30633 0.57918 0.12506 0.0
C4025 C 0.29802 0.59417 0.12688 0.0
C4026 C 0.29356 0.59919 0.14268 0.0
C4027 C 0.29806 0.59003 0.1563 0.0
H4028 H 0.17936 0.08269 0.39465 0.0
H4029 H 0.15594 0.04542 0.42358 0.0
H4030 H 0.16166 0.07597 0.37164 0.0
H4031 H 0.13897 0.03785 0.4004 0.0
H4032 H 0.09659 0.04374 0.36463 0.0
H4033 H 0.11634 0.04734 0.38657 0.0
H4034 H 0.15379 0.05841 0.35094 0.0
H4035 H 0.13368 0.05579 0.3292 0.0
C4036 C 0.17071 0.07275 0.3959 0.0
C4037 C 0.16889 0.06466 0.41087 0.0
C4038 C 0.16057 0.06881 0.3827 0.0
C4039 C 0.14864 0.05645 0.38412 0.0
C4040 C 0.1476 0.04776 0.39891 0.0
C4041 C 0.15746 0.05196 0.41217 0.0
C4042 C 0.10909 0.04679 0.36154 0.0
C4043 C 0.1136 0.04958 0.34527 0.0
C4044 C 0.1205 0.04878 0.37411 0.0
C4045 C 0.13678 0.05326 0.37063 0.0
C4046 C 0.14135 0.05536 0.3542 0.0
C4047 C 0.12985 0.05371 0.3417 0.0
H4048 H 0.17543 0.37845 0.58438 0.0
H4049 H 0.22409 0.3643 0.59908 0.0
H4050 H 0.17461 0.39862 0.60615 0.0
H4051 H 0.22351 0.38493 0.62064 0.0
H4052 H 0.20357 0.40172 0.67088 0.0
H4053 H 0.20946 0.38676 0.64608 0.0
H4054 H 0.18462 0.42378 0.61777 0.0
H4055 H 0.17829 0.43868 0.64297 0.0
C4056 C 0.18608 0.37985 0.59211 0.0
C4057 C 0.19974 0.36963 0.59018 0.0
C4058 C 0.18567 0.39155 0.6045 0.0
C4059 C 0.19896 0.39337 0.61522 0.0
C4060 C 0.21296 0.38367 0.61276 0.0
C4061 C 0.21332 0.37188 0.6004 0.0
C4062 C 0.19957 0.40684 0.65935 0.0
C4063 C 0.19028 0.42127 0.65888 0.0
C4064 C 0.20308 0.3983 0.64507 0.0
C4065 C 0.19743 0.40398 0.6299 0.0
C4066 C 0.18895 0.41896 0.6293 0.0
C4067 C 0.18542 0.42755 0.64368 0.0
H4068 H 0.65097 0.44934 0.58244 0.0
H4069 H 0.68802 0.42917 0.61412 0.0
H4070 H 0.63496 0.45734 0.60599 0.0
H4071 H 0.67216 0.43774 0.63797 0.0
H4072 H 0.62692 0.43074 0.67155 0.0
H4073 H 0.64765 0.42842 0.65051 0.0
H4074 H 0.63129 0.47398 0.62938 0.0
H4075 H 0.61001 0.47594 0.65024 0.0
C4076 C 0.65587 0.44692 0.5945 0.0
C4077 C 0.67067 0.43844 0.59643 0.0
C4078 C 0.64673 0.45166 0.60805 0.0
C4079 C 0.65217 0.44812 0.62394 0.0
C4080 C 0.66746 0.44043 0.6259 0.0
C4081 C 0.67661 0.4356 0.61227 0.0
C4082 C 0.62787 0.44039 0.66255 0.0
C4083 C 0.61669 0.45342 0.66241 0.0
C4084 C 0.63989 0.43913 0.65053 0.0
C4085 C 0.64112 0.45094 0.63813 0.0
C4086 C 0.63051 0.4645 0.63857 0.0
C4087 C 0.61837 0.46569 0.65056 0.0
H4088 H 0.28096 0.86172 0.39862 0.0
H4089 H 0.33021 0.87403 0.413 0.0
H4090 H 0.28162 0.88331 0.378 0.0
H4091 H 0.33109 0.89517 0.39219 0.0
H4092 H 0.32709 0.93825 0.35935 0.0
H4093 H 0.3211 0.92127 0.3832 0.0
H4094 H 0.2949 0.88736 0.35234 0.0
H4095 H 0.30044 0.90448 0.32881 0.0
C4096 C 0.2919 0.86905 0.39738 0.0
C4097 C 0.30557 0.8661 0.40732 0.0
C4098 C 0.29231 0.8814 0.38557 0.0
C4099 C 0.30642 0.891 0.38341 0.0
C4100 C 0.31991 0.88825 0.39367 0.0
C4101 C 0.31948 0.87598 0.4055 0.0
C4102 C 0.31972 0.92737 0.35778 0.0
C4103 C 0.31438 0.92261 0.34221 0.0
C4104 C 0.3164 0.91756 0.3714 0.0
C4105 C 0.3077 0.90281 0.36966 0.0
C4106 C 0.30151 0.89867 0.3542 0.0
C4107 C 0.30478 0.90846 0.34066 0.0
H4108 H 0.69097 0.60464 0.8215 0.0
H4109 H 0.68252 0.56341 0.85331 0.0
H4110 H 0.69713 0.62166 0.84496 0.0
H4111 H 0.68907 0.58049 0.877 0.0
H4112 H 0.67808 0.62262 0.91357 0.0
H4113 H 0.67598 0.60312 0.89122 0.0
H4114 H 0.7163 0.62683 0.86677 0.0
H4115 H 0.71815 0.64662 0.88904 0.0
C4116 C 0.69065 0.59914 0.83353 0.0
C4117 C 0.68615 0.58271 0.83557 0.0
C4118 C 0.69432 0.60889 0.84699 0.0
C4119 C 0.69358 0.60246 0.86288 0.0
C4120 C 0.68957 0.58586 0.86492 0.0
C4121 C 0.68591 0.57605 0.85138 0.0
C4122 C 0.68657 0.62361 0.90347 0.0
C4123 C 0.69819 0.63624 0.90297 0.0
C4124 C 0.68546 0.61233 0.89072 0.0
C4125 C 0.69594 0.61342 0.87718 0.0
C4126 C 0.70789 0.62578 0.87693 0.0
C4127 C 0.70899 0.63709 0.88969 0.0
H4128 H 0.67329 0.36266 0.57197 0.0
H4129 H 0.64208 0.38777 0.53767 0.0
H4130 H 0.65385 0.34013 0.57328 0.0
H4131 H 0.62224 0.36578 0.53956 0.0
H4132 H 0.60432 0.3175 0.58933 0.0
H4133 H 0.62828 0.33444 0.58464 0.0
H4134 H 0.6151 0.33884 0.53366 0.0
H4135 H 0.59065 0.32265 0.5387 0.0
C4136 C 0.66224 0.36334 0.56471 0.0
C4137 C 0.65913 0.37699 0.55479 0.0
C4138 C 0.65105 0.35046 0.56551 0.0
C4139 C 0.63637 0.35107 0.55659 0.0
C4140 C 0.63351 0.36463 0.54637 0.0
C4141 C 0.64482 0.37736 0.54539 0.0
C4142 C 0.60682 0.32173 0.57705 0.0
C4143 C 0.59558 0.31893 0.56442 0.0
C4144 C 0.62058 0.33147 0.57431 0.0
C4145 C 0.6235 0.33837 0.55881 0.0
C4146 C 0.61299 0.33421 0.54586 0.0
C4147 C 0.59909 0.32475 0.54868 0.0
H4148 H 0.43293 0.35641 0.83815 0.0
H4149 H 0.41914 0.33364 0.7927 0.0
H4150 H 0.41567 0.37978 0.83174 0.0
H4151 H 0.40274 0.35741 0.78561 0.0
H4152 H 0.38738 0.42335 0.8149 0.0
H4153 H 0.40897 0.40296 0.817 0.0
H4154 H 0.37764 0.36774 0.79306 0.0
H4155 H 0.3566 0.38848 0.79012 0.0
C4156 C 0.42665 0.35671 0.82651 0.0
C4157 C 0.42723 0.34323 0.81598 0.0
C4158 C 0.41674 0.37013 0.82277 0.0
C4159 C 0.40748 0.37046 0.80824 0.0
C4160 C 0.4092 0.35743 0.79715 0.0
C4161 C 0.41877 0.34387 0.80109 0.0
C4162 C 0.38526 0.41128 0.80991 0.0
C4163 C 0.37032 0.40745 0.8024 0.0
C4164 C 0.39759 0.39953 0.81121 0.0
C4165 C 0.39513 0.38357 0.80532 0.0
C4166 C 0.38023 0.37993 0.79747 0.0
C4167 C 0.36805 0.39178 0.79588 0.0
H4168 H 0.42473 0.14589 0.05619 0.0
H4169 H 0.39249 0.18658 0.06567 0.0
H4170 H 0.4016 0.12927 0.04812 0.0
H4171 H 0.36911 0.16988 0.05722 0.0
H4172 H 0.33334 0.12603 0.06607 0.0
H4173 H 0.35475 0.14647 0.06884 0.0
H4174 H 0.38045 0.12503 0.02802 0.0
H4175 H 0.35916 0.10428 0.02553 0.0
C4176 C 0.41268 0.15137 0.05632 0.0
C4177 C 0.4104 0.1675 0.0617 0.0
C4178 C 0.39941 0.14186 0.05154 0.0
C4179 C 0.38349 0.14823 0.052 0.0
C4180 C 0.38123 0.16458 0.05686 0.0
C4181 C 0.39459 0.17416 0.06163 0.0
C4182 C 0.34346 0.1258 0.05755 0.0
C4183 C 0.3447 0.11342 0.04572 0.0
C4184 C 0.35567 0.13761 0.05905 0.0
C4185 C 0.36938 0.13731 0.04873 0.0
C4186 C 0.37016 0.12543 0.03633 0.0
C4187 C 0.35796 0.11358 0.03486 0.0
H4188 H 0.56199 0.13877 0.3164 0.0
H4189 H 0.59871 0.16753 0.29178 0.0
H4190 H 0.57653 0.11378 0.30861 0.0
H4191 H 0.6134 0.14297 0.28458 0.0
H4192 H 0.63738 0.09769 0.2692 0.0
H4193 H 0.61588 0.11837 0.26991 0.0
H4194 H 0.60116 0.10126 0.31765 0.0
H4195 H 0.62206 0.08028 0.31657 0.0
C4196 C 0.57299 0.13973 0.30911 0.0
C4197 C 0.57932 0.15509 0.30488 0.0
C4198 C 0.58139 0.12545 0.30474 0.0
C4199 C 0.59626 0.12632 0.29608 0.0
C4200 C 0.60193 0.14171 0.29104 0.0
C4201 C 0.59356 0.15587 0.29534 0.0
C4202 C 0.6293 0.09817 0.27967 0.0
C4203 C 0.63155 0.08753 0.29292 0.0
C4204 C 0.61703 0.11006 0.28013 0.0
C4205 C 0.6069 0.11169 0.29396 0.0
C4206 C 0.60856 0.10033 0.30673 0.0
C4207 C 0.62069 0.08836 0.30618 0.0
H4208 H 0.6047 0.68608 0.43439 0.0
H4209 H 0.57222 0.6452 0.44194 0.0
H4210 H 0.62791 0.669 0.44256 0.0
H4211 H 0.59521 0.62821 0.44978 0.0
H4212 H 0.63763 0.60295 0.47296 0.0
H4213 H 0.61611 0.62347 0.47029 0.0
H4214 H 0.64235 0.64578 0.43031 0.0
H4215 H 0.66394 0.62553 0.4332 0.0
C4216 C 0.60251 0.67353 0.43795 0.0
C4217 C 0.58668 0.66695 0.43743 0.0
C4218 C 0.61578 0.66373 0.44255 0.0
C4219 C 0.61341 0.64723 0.4468 0.0
C4220 C 0.59746 0.6409 0.44681 0.0
C4221 C 0.58428 0.65063 0.44217 0.0
C4222 C 0.63888 0.61238 0.46376 0.0
C4223 C 0.65237 0.61254 0.45319 0.0
C4224 C 0.62654 0.62409 0.46219 0.0
C4225 C 0.62746 0.6362 0.45001 0.0
C4226 C 0.64134 0.63675 0.43993 0.0
C4227 C 0.65365 0.62505 0.4415 0.0
H4228 H 0.11648 0.42395 0.68864 0.0
H4229 H 0.14342 0.3886 0.71704 0.0
H4230 H 0.09373 0.40484 0.68629 0.0
H4231 H 0.12112 0.36922 0.71413 0.0
H4232 H 0.07746 0.33845 0.71474 0.0
H4233 H 0.09442 0.362 0.72123 0.0
H4234 H 0.08697 0.38058 0.67232 0.0
H4235 H 0.06925 0.35739 0.66627 0.0
C4236 C 0.1175 0.41209 0.69442 0.0
C4237 C 0.13173 0.40772 0.70299 0.0
C4238 C 0.1045 0.4011 0.693 0.0
C4239 C 0.10551 0.38543 0.69998 0.0
C4240 C 0.11967 0.38127 0.70886 0.0
C4241 C 0.13257 0.39233 0.71044 0.0
C4242 C 0.07907 0.34787 0.70558 0.0
C4243 C 0.07214 0.34613 0.69 0.0
C4244 C 0.08896 0.36126 0.7092 0.0
C4245 C 0.09247 0.37302 0.69718 0.0
C4246 C 0.08452 0.37185 0.68194 0.0
C4247 C 0.07433 0.35857 0.67844 0.0
H4248 H 0.3236 0.864 0.92975 0.0
H4249 H 0.35768 0.89379 0.95677 0.0
H4250 H 0.3431 0.84151 0.92976 0.0
H4251 H 0.37761 0.87176 0.95601 0.0
H4252 H 0.40959 0.82891 0.96002 0.0
H4253 H 0.38579 0.84608 0.96498 0.0
H4254 H 0.36723 0.83384 0.91703 0.0
H4255 H 0.39052 0.81597 0.91262 0.0
C4256 C 0.33534 0.86574 0.93562 0.0
C4257 C 0.33921 0.88065 0.94316 0.0
C4258 C 0.34655 0.85287 0.93558 0.0
C4259 C 0.36204 0.85474 0.94281 0.0
C4260 C 0.36573 0.86965 0.9506 0.0
C4261 C 0.35438 0.8824 0.9509 0.0
C4262 C 0.40012 0.82953 0.95079 0.0
C4263 C 0.40189 0.8212 0.93592 0.0
C4264 C 0.38658 0.83955 0.95352 0.0
C4265 C 0.37472 0.84175 0.94126 0.0
C4266 C 0.37598 0.83243 0.92684 0.0
C4267 C 0.38937 0.82215 0.92427 0.0
H4268 H 0.93307 0.14158 0.16473 0.0
H4269 H 0.91899 0.16207 0.21119 0.0
H4270 H 0.91503 0.11845 0.16938 0.0
H4271 H 0.90165 0.13847 0.21644 0.0
H4272 H 0.85477 0.10896 0.20887 0.0
H4273 H 0.87631 0.1294 0.20749 0.0
H4274 H 0.9076 0.09466 0.18282 0.0
H4275 H 0.88561 0.07464 0.1834 0.0
C4276 C 0.92656 0.1408 0.17622 0.0
C4277 C 0.92732 0.15363 0.18755 0.0
C4278 C 0.91618 0.12752 0.17894 0.0
C4279 C 0.90657 0.12665 0.1932 0.0
C4280 C 0.90842 0.13892 0.20509 0.0
C4281 C 0.91854 0.15236 0.20221 0.0
C4282 C 0.86629 0.10573 0.20322 0.0
C4283 C 0.86848 0.09031 0.1961 0.0
C4284 C 0.87874 0.11738 0.20255 0.0
C4285 C 0.89381 0.11376 0.19502 0.0
C4286 C 0.89611 0.09806 0.18841 0.0
C4287 C 0.88353 0.08653 0.18881 0.0
H4288 H 0.5309 0.15192 0.89141 0.0
H4289 H 0.5801 0.16629 0.87895 0.0
H4290 H 0.53166 0.13099 0.87017 0.0
H4291 H 0.58109 0.14511 0.85813 0.0
H4292 H 0.57665 0.11106 0.8156 0.0
H4293 H 0.57114 0.1353 0.83223 0.0
H4294 H 0.54514 0.10533 0.86706 0.0
H4295 H 0.5502 0.08144 0.85033 0.0
C4296 C 0.54185 0.15062 0.88411 0.0
C4297 C 0.55549 0.16062 0.88694 0.0
C4298 C 0.54231 0.13862 0.87197 0.0
C4299 C 0.55647 0.13631 0.86248 0.0
C4300 C 0.56991 0.14669 0.86502 0.0
C4301 C 0.5694 0.15873 0.87708 0.0
C4302 C 0.56948 0.10978 0.82664 0.0
C4303 C 0.56397 0.09436 0.83174 0.0
C4304 C 0.56643 0.12361 0.83623 0.0
C4305 C 0.55782 0.12225 0.85106 0.0
C4306 C 0.55163 0.10692 0.85565 0.0
C4307 C 0.55465 0.09316 0.84609 0.0
H4308 H 0.56897 0.31 0.10934 0.0
H4309 H 0.60284 0.28093 0.13742 0.0
H4310 H 0.58901 0.31224 0.0874 0.0
H4311 H 0.62315 0.28383 0.11607 0.0
H4312 H 0.65738 0.28578 0.07534 0.0
H4313 H 0.63279 0.27808 0.09016 0.0
H4314 H 0.61313 0.32652 0.08222 0.0
H4315 H 0.63736 0.33369 0.06648 0.0
C4316 C 0.58067 0.30397 0.11074 0.0
C4317 C 0.58439 0.29536 0.12511 0.0
C4318 C 0.59222 0.30536 0.09822 0.0
C4319 C 0.60784 0.29837 0.09992 0.0
C4320 C 0.61122 0.28917 0.11408 0.0
C4321 C 0.59959 0.28757 0.12644 0.0
C4322 C 0.64754 0.29458 0.07638 0.0
C4323 C 0.64924 0.31034 0.06988 0.0
C4324 C 0.63352 0.29026 0.08505 0.0
C4325 C 0.62107 0.30178 0.08783 0.0
C4326 C 0.62234 0.31723 0.0803 0.0
C4327 C 0.63625 0.32141 0.07127 0.0
H4328 H 0.45381 0.36165 0.40165 0.0
H4329 H 0.4505 0.32611 0.36282 0.0
H4330 H 0.45163 0.38361 0.38178 0.0
H4331 H 0.44877 0.34814 0.34276 0.0
H4332 H 0.42277 0.39224 0.31701 0.0
H4333 H 0.42942 0.36858 0.33404 0.0
H4334 H 0.46503 0.39751 0.36018 0.0
H4335 H 0.45791 0.42115 0.34365 0.0
C4336 C 0.45292 0.35854 0.38882 0.0
C4337 C 0.45229 0.34217 0.3838 0.0
C4338 C 0.45176 0.37114 0.37737 0.0
C4339 C 0.45003 0.36767 0.36061 0.0
C4340 C 0.44989 0.35125 0.35556 0.0
C4341 C 0.45099 0.33863 0.36705 0.0
C4342 C 0.43223 0.39339 0.3262 0.0
C4343 C 0.43968 0.40853 0.32917 0.0
C4344 C 0.43608 0.37984 0.33595 0.0
C4345 C 0.44757 0.38121 0.34871 0.0
C4346 C 0.45581 0.39612 0.3508 0.0
C4347 C 0.45181 0.40964 0.34124 0.0
H4348 H 0.35573 0.18194 0.5634 0.0
H4349 H 0.32442 0.19457 0.60395 0.0
H4350 H 0.37973 0.18902 0.57991 0.0
H4351 H 0.34809 0.20123 0.62037 0.0
H4352 H 0.39176 0.22128 0.64503 0.0
H4353 H 0.37041 0.21982 0.62426 0.0
H4354 H 0.39355 0.17716 0.6035 0.0
H4355 H 0.41509 0.17892 0.62394 0.0
C4356 C 0.35398 0.18637 0.57575 0.0
C4357 C 0.33823 0.1876 0.58242 0.0
C4358 C 0.36769 0.19035 0.58522 0.0
C4359 C 0.36583 0.1957 0.60147 0.0
C4360 C 0.35001 0.19743 0.60784 0.0
C4361 C 0.3364 0.19344 0.59845 0.0
C4362 C 0.39239 0.21174 0.63588 0.0
C4363 C 0.40496 0.2001 0.63623 0.0
C4364 C 0.38014 0.21087 0.62402 0.0
C4365 C 0.38017 0.19826 0.61232 0.0
C4366 C 0.39322 0.18711 0.6122 0.0
C4367 C 0.4055 0.18804 0.62402 0.0
H4368 H 0.55749 0.82577 0.13594 0.0
H4369 H 0.53182 0.86152 0.10691 0.0
H4370 H 0.56044 0.84564 0.15794 0.0
H4371 H 0.53546 0.88165 0.12837 0.0
H4372 H 0.53721 0.91501 0.1702 0.0
H4373 H 0.52909 0.89134 0.15414 0.0
H4374 H 0.57588 0.86882 0.16407 0.0
H4375 H 0.58344 0.89216 0.18098 0.0
C4376 C 0.5524 0.83787 0.13432 0.0
C4377 C 0.54447 0.84213 0.1197 0.0
C4378 C 0.55419 0.84932 0.14688 0.0
C4379 C 0.54832 0.86537 0.145 0.0
C4380 C 0.53991 0.86938 0.13051 0.0
C4381 C 0.53789 0.85786 0.11808 0.0
C4382 C 0.54555 0.90476 0.16926 0.0
C4383 C 0.56096 0.90539 0.17672 0.0
C4384 C 0.54099 0.89127 0.1599 0.0
C4385 C 0.55195 0.87825 0.1574 0.0
C4386 C 0.56702 0.87849 0.16575 0.0
C4387 C 0.57141 0.89188 0.17545 0.0
H4388 H 0.85637 0.33828 0.43064 0.0
H4389 H 0.83171 0.29442 0.41499 0.0
H4390 H 0.87869 0.33246 0.41183 0.0
H4391 H 0.85437 0.28798 0.39686 0.0
H4392 H 0.88493 0.29373 0.3505 0.0
H4393 H 0.86439 0.29689 0.3718 0.0
H4394 H 0.90113 0.31675 0.4042 0.0
H4395 H 0.92134 0.3144 0.38254 0.0
C4396 C 0.856 0.32713 0.42353 0.0
C4397 C 0.84231 0.31686 0.42416 0.0
C4398 C 0.8688 0.32373 0.41273 0.0
C4399 C 0.8683 0.30983 0.40257 0.0
C4400 C 0.85501 0.29904 0.40409 0.0
C4401 C 0.8421 0.30261 0.41463 0.0
C4402 C 0.88857 0.2987 0.36221 0.0
C4403 C 0.90466 0.30394 0.36483 0.0
C4404 C 0.87684 0.30041 0.37451 0.0
C4405 C 0.88103 0.30712 0.38982 0.0
C4406 C 0.89732 0.31186 0.39252 0.0
C4407 C 0.90895 0.31043 0.38013 0.0
H4408 H 0.42723 0.66589 0.6291 0.0
H4409 H 0.47252 0.64531 0.61159 0.0
H4410 H 0.42555 0.64476 0.64986 0.0
H4411 H 0.47127 0.62447 0.63289 0.0
H4412 H 0.44849 0.57714 0.6533 0.0
H4413 H 0.45554 0.6008 0.63704 0.0
H4414 H 0.43534 0.63244 0.6742 0.0
H4415 H 0.42764 0.60845 0.69028 0.0
C4416 C 0.43702 0.65702 0.62992 0.0
C4417 C 0.44989 0.6571 0.61859 0.0
C4418 C 0.43614 0.64496 0.64195 0.0
C4419 C 0.44821 0.63278 0.64303 0.0
C4420 C 0.46158 0.63345 0.63222 0.0
C4421 C 0.46236 0.64542 0.62006 0.0
C4422 C 0.44575 0.58915 0.65815 0.0
C4423 C 0.43733 0.59093 0.67298 0.0
C4424 C 0.44993 0.60278 0.64885 0.0
C4425 C 0.44592 0.6186 0.6542 0.0
C4426 C 0.43835 0.62043 0.66955 0.0
C4427 C 0.43405 0.60671 0.67884 0.0
H4428 H 0.07234 0.18673 0.88877 0.0
H4429 H 0.10579 0.2177 0.86232 0.0
H4430 H 0.09154 0.18523 0.91148 0.0
H4431 H 0.12542 0.21553 0.88449 0.0
H4432 H 0.15725 0.21583 0.92736 0.0
H4433 H 0.13318 0.22197 0.91097 0.0
H4434 H 0.11607 0.17246 0.918 0.0
H4435 H 0.13963 0.1668 0.93521 0.0
C4436 C 0.08384 0.19321 0.88784 0.0
C4437 C 0.08765 0.20225 0.87377 0.0
C4438 C 0.09489 0.1923 0.90082 0.0
C4439 C 0.11014 0.20016 0.89989 0.0
C4440 C 0.11371 0.20955 0.8859 0.0
C4441 C 0.10252 0.2107 0.87306 0.0
C4442 C 0.14803 0.20646 0.9258 0.0
C4443 C 0.15028 0.19083 0.93245 0.0
C4444 C 0.13434 0.20989 0.91622 0.0
C4445 C 0.12282 0.19761 0.91273 0.0
C4446 C 0.12454 0.1823 0.92044 0.0
C4447 C 0.13808 0.17901 0.93034 0.0
H4448 H 0.8886 0.02066 0.64814 0.0
H4449 H 0.86934 0.06441 0.67045 0.0
H4450 H 0.86769 0.02232 0.62694 0.0
H4451 H 0.84882 0.0664 0.64904 0.0
H4452 H 0.80973 0.06439 0.61044 0.0
H4453 H 0.82494 0.05593 0.63486 0.0
H4454 H 0.86515 0.04059 0.60428 0.0
H4455 H 0.84998 0.04861 0.58022 0.0
C4456 C 0.87977 0.0305 0.64863 0.0
C4457 C 0.88075 0.04253 0.6608 0.0
C4458 C 0.86783 0.0315 0.63646 0.0
C4459 C 0.85671 0.04464 0.63614 0.0
C4460 C 0.85707 0.05606 0.64895 0.0
C4461 C 0.86894 0.05499 0.66117 0.0
C4462 C 0.82169 0.05892 0.60901 0.0
C4463 C 0.82873 0.0573 0.59346 0.0
C4464 C 0.83043 0.05416 0.62296 0.0
C4465 C 0.84629 0.0476 0.62155 0.0
C4466 C 0.8529 0.04533 0.60588 0.0
C4467 C 0.84424 0.05011 0.59205 0.0
H4468 H 0.31621 0.92001 0.88393 0.0
H4469 H 0.32794 0.96388 0.91067 0.0
H4470 H 0.33281 0.92944 0.86113 0.0
H4471 H 0.34384 0.97384 0.88759 0.0
H4472 H 0.39094 0.97178 0.85666 0.0
H4473 H 0.36944 0.9678 0.87673 0.0
H4474 H 0.33838 0.94704 0.83935 0.0
H4475 H 0.36033 0.95032 0.8195 0.0
C4476 C 0.32192 0.93193 0.88469 0.0
C4477 C 0.32096 0.94113 0.8991 0.0
C4478 C 0.33142 0.93741 0.87159 0.0
C4479 C 0.33995 0.95235 0.87254 0.0
C4480 C 0.33787 0.96209 0.88655 0.0
C4481 C 0.32862 0.95646 0.89973 0.0
C4482 C 0.3794 0.96667 0.85269 0.0
C4483 C 0.37736 0.96122 0.83658 0.0
C4484 C 0.36698 0.96443 0.86419 0.0
C4485 C 0.35213 0.9569 0.85977 0.0
C4486 C 0.34975 0.9525 0.84333 0.0
C4487 C 0.36228 0.95451 0.8319 0.0
H4488 H 0.83127 0.06608 0.13732 0.0
H4489 H 0.78618 0.07671 0.16242 0.0
H4490 H 0.82241 0.08272 0.1143 0.0
H4491 H 0.77681 0.09265 0.1391 0.0
H4492 H 0.77936 0.14029 0.10909 0.0
H4493 H 0.78299 0.11854 0.12896 0.0
H4494 H 0.80553 0.08839 0.09188 0.0
H4495 H 0.80255 0.11058 0.07223 0.0
C4496 C 0.81922 0.07153 0.13765 0.0
C4497 C 0.80949 0.07028 0.15169 0.0
C4498 C 0.81406 0.08106 0.12442 0.0
C4499 C 0.79895 0.08932 0.12488 0.0
C4500 C 0.78871 0.08689 0.13846 0.0
C4501 C 0.79399 0.07762 0.15177 0.0
C4502 C 0.78481 0.1289 0.10513 0.0
C4503 C 0.79081 0.12719 0.08918 0.0
C4504 C 0.78684 0.11633 0.11651 0.0
C4505 C 0.79472 0.10166 0.11213 0.0
C4506 C 0.79975 0.09961 0.09583 0.0
C4507 C 0.79792 0.11228 0.08451 0.0
H4508 H 0.62253 0.57816 0.33715 0.0
H4509 H 0.61126 0.52763 0.34724 0.0
H4510 H 0.64311 0.57793 0.3586 0.0
H4511 H 0.63227 0.52718 0.36841 0.0
H4512 H 0.65084 0.54231 0.41968 0.0
H4513 H 0.63485 0.53841 0.39509 0.0
H4514 H 0.66917 0.56801 0.36802 0.0
H4515 H 0.68504 0.57233 0.39302 0.0
C4516 C 0.62461 0.56693 0.34383 0.0
C4517 C 0.61514 0.55297 0.34067 0.0
C4518 C 0.63655 0.56673 0.35602 0.0
C4519 C 0.63937 0.55254 0.36527 0.0
C4520 C 0.63027 0.5384 0.36168 0.0
C4521 C 0.61824 0.53863 0.34955 0.0
C4522 C 0.65517 0.54776 0.40842 0.0
C4523 C 0.6691 0.55777 0.40831 0.0
C4524 C 0.64603 0.54542 0.39425 0.0
C4525 C 0.65061 0.55302 0.37956 0.0
C4526 C 0.66515 0.56221 0.3792 0.0
C4527 C 0.67434 0.56456 0.39346 0.0
H4528 H 0.66554 0.93509 0.64049 0.0
H4529 H 0.70944 0.92134 0.66623 0.0
H4530 H 0.67323 0.91736 0.61786 0.0
H4531 H 0.71767 0.90427 0.6433 0.0
H4532 H 0.71264 0.85691 0.61362 0.0
H4533 H 0.7094 0.87874 0.63351 0.0
H4534 H 0.69004 0.91027 0.59577 0.0
H4535 H 0.69258 0.88806 0.5761 0.0
C4536 C 0.67712 0.9287 0.64103 0.0
C4537 C 0.68682 0.92942 0.65513 0.0
C4538 C 0.68158 0.91853 0.62805 0.0
C4539 C 0.69597 0.9091 0.62883 0.0
C4540 C 0.70628 0.91095 0.64245 0.0
C4541 C 0.70167 0.92087 0.65552 0.0
C4542 C 0.70786 0.86857 0.60957 0.0
C4543 C 0.70273 0.87075 0.59338 0.0
C4544 C 0.7061 0.88118 0.62094 0.0
C4545 C 0.69939 0.89634 0.6163 0.0
C4546 C 0.69495 0.8987 0.59987 0.0
C4547 C 0.69649 0.886 0.58857 0.0
H4548 H 0.13914 0.94348 0.67193 0.0
H4549 H 0.10331 0.95699 0.63567 0.0
H4550 H 0.15992 0.9413 0.65068 0.0
H4551 H 0.12372 0.95407 0.61434 0.0
H4552 H 0.16382 0.95724 0.57865 0.0
H4553 H 0.14719 0.96457 0.60215 0.0
H4554 H 0.16762 0.92393 0.62907 0.0
H4555 H 0.18494 0.91726 0.60572 0.0
C4556 C 0.13573 0.94603 0.6594 0.0
C4557 C 0.11961 0.95039 0.65543 0.0
C4558 C 0.14761 0.94466 0.64719 0.0
C4559 C 0.14357 0.94745 0.63072 0.0
C4560 C 0.12746 0.95214 0.62688 0.0
C4561 C 0.11566 0.95371 0.6391 0.0
C4562 C 0.16498 0.95011 0.58974 0.0
C4563 C 0.17556 0.93664 0.59038 0.0
C4564 C 0.15533 0.95419 0.60317 0.0
C4565 C 0.15573 0.94465 0.61745 0.0
C4566 C 0.16702 0.93167 0.61836 0.0
C4567 C 0.17695 0.92778 0.60498 0.0
H4568 H 0.78467 0.35625 0.3923 0.0
H4569 H 0.80748 0.38926 0.4265 0.0
H4570 H 0.78687 0.37679 0.37096 0.0
H4571 H 0.80889 0.41025 0.40545 0.0
H4572 H 0.83042 0.43271 0.3582 0.0
H4573 H 0.82407 0.41629 0.3822 0.0
H4574 H 0.77852 0.40145 0.35985 0.0
H4575 H 0.78551 0.41707 0.33553 0.0
C4576 C 0.78981 0.36807 0.39532 0.0
C4577 C 0.79603 0.37112 0.41097 0.0
C4578 C 0.79098 0.37994 0.38312 0.0
C4579 C 0.79814 0.39527 0.38639 0.0
C4580 C 0.80364 0.39852 0.40234 0.0
C4581 C 0.80273 0.38653 0.41445 0.0
C4582 C 0.8189 0.42621 0.35863 0.0
C4583 C 0.80852 0.42599 0.34502 0.0
C4584 C 0.8152 0.41679 0.3724 0.0
C4585 C 0.80087 0.40723 0.37292 0.0
C4586 C 0.78989 0.4082 0.35973 0.0
C4587 C 0.79378 0.4173 0.34586 0.0
H4588 H 0.16697 0.07099 0.85919 0.0
H4589 H 0.20758 0.09166 0.83273 0.0
H4590 H 0.17208 0.08969 0.88172 0.0
H4591 H 0.2134 0.10978 0.85561 0.0
H4592 H 0.18893 0.11947 0.92427 0.0
H4593 H 0.18798 0.09824 0.90352 0.0
H4594 H 0.20272 0.13352 0.86702 0.0
H4595 H 0.20459 0.15447 0.8881 0.0
C4596 C 0.17733 0.0792 0.85844 0.0
C4597 C 0.18683 0.07996 0.84422 0.0
C4598 C 0.18031 0.08994 0.87138 0.0
C4599 C 0.19307 0.10148 0.87048 0.0
C4600 C 0.2032 0.10143 0.8566 0.0
C4601 C 0.20001 0.0909 0.84355 0.0
C4602 C 0.19209 0.12262 0.91181 0.0
C4603 C 0.19675 0.13862 0.90774 0.0
C4604 C 0.19145 0.11046 0.89987 0.0
C4605 C 0.19514 0.11408 0.88348 0.0
C4606 C 0.20006 0.13011 0.87951 0.0
C4607 C 0.20101 0.1422 0.89155 0.0
H4608 H 0.57728 0.85269 0.05184 0.0
H4609 H 0.60626 0.81203 0.06894 0.0
H4610 H 0.60187 0.86747 0.0448 0.0
H4611 H 0.63121 0.8268 0.06141 0.0
H4612 H 0.66783 0.87003 0.07013 0.0
H4613 H 0.64559 0.85039 0.07205 0.0
H4614 H 0.62503 0.86938 0.02726 0.0
H4615 H 0.64701 0.88943 0.0257 0.0
C4616 C 0.58896 0.84678 0.05383 0.0
C4617 C 0.58986 0.83126 0.06109 0.0
C4618 C 0.6031 0.85521 0.04963 0.0
C4619 C 0.61855 0.84834 0.05252 0.0
C4620 C 0.61948 0.8325 0.05918 0.0
C4621 C 0.60523 0.824 0.06341 0.0
C4622 C 0.65867 0.86986 0.06058 0.0
C4623 C 0.65899 0.88142 0.04791 0.0
C4624 C 0.64598 0.8585 0.0616 0.0
C4625 C 0.63342 0.85841 0.0499 0.0
C4626 C 0.63434 0.86934 0.03666 0.0
C4627 C 0.64695 0.88079 0.03572 0.0
H4628 H 0.38822 0.92416 0.31649 0.0
H4629 H 0.3612 0.89162 0.28501 0.0
H4630 H 0.40974 0.90377 0.31925 0.0
H4631 H 0.38222 0.87087 0.28837 0.0
H4632 H 0.42528 0.83825 0.28903 0.0
H4633 H 0.40881 0.86221 0.28273 0.0
H4634 H 0.41437 0.87888 0.33257 0.0
H4635 H 0.43156 0.85533 0.3385 0.0
C4636 C 0.38691 0.91262 0.31015 0.0
C4637 C 0.37303 0.90942 0.30059 0.0
C4638 C 0.3992 0.90088 0.31181 0.0
C4639 C 0.39775 0.88557 0.30414 0.0
C4640 C 0.38397 0.88258 0.29425 0.0
C4641 C 0.37183 0.89443 0.29239 0.0
C4642 C 0.42326 0.84726 0.29851 0.0
C4643 C 0.42961 0.84493 0.31426 0.0
C4644 C 0.41367 0.86091 0.29496 0.0
C4645 C 0.40994 0.87239 0.3072 0.0
C4646 C 0.41706 0.87044 0.32276 0.0
C4647 C 0.4269 0.8569 0.32621 0.0
H4648 H 0.35946 0.59949 0.53531 0.0
H4649 H 0.3233 0.63155 0.55635 0.0
H4650 H 0.38008 0.62056 0.5385 0.0
H4651 H 0.34369 0.65314 0.55873 0.0
H4652 H 0.38931 0.67772 0.58157 0.0
H4653 H 0.3661 0.66039 0.57459 0.0
H4654 H 0.3909 0.64524 0.53043 0.0
H4655 H 0.41441 0.66169 0.53815 0.0
C4656 C 0.35585 0.61122 0.54026 0.0
C4657 C 0.33983 0.61386 0.54567 0.0
C4658 C 0.36766 0.62341 0.54201 0.0
C4659 C 0.36365 0.63868 0.54891 0.0
C4660 C 0.34737 0.64149 0.55367 0.0
C4661 C 0.33563 0.62916 0.5522 0.0
C4662 C 0.38957 0.67091 0.57023 0.0
C4663 C 0.40363 0.67088 0.56046 0.0
C4664 C 0.37626 0.66097 0.56616 0.0
C4665 C 0.37666 0.65108 0.55205 0.0
C4666 C 0.3903 0.65219 0.54165 0.0
C4667 C 0.40372 0.66178 0.54595 0.0
H4668 H 0.56028 0.63962 0.81525 0.0
H4669 H 0.60123 0.66841 0.79862 0.0
H4670 H 0.57405 0.61476 0.80568 0.0
H4671 H 0.61501 0.64393 0.78956 0.0
H4672 H 0.63642 0.59989 0.76835 0.0
H4673 H 0.61625 0.62173 0.77088 0.0
H4674 H 0.59732 0.59908 0.81464 0.0
H4675 H 0.617 0.57705 0.81174 0.0
C4676 C 0.5721 0.64065 0.8094 0.0
C4677 C 0.57973 0.65593 0.80783 0.0
C4678 C 0.58002 0.62644 0.80398 0.0
C4679 C 0.59567 0.62731 0.79684 0.0
C4680 C 0.60288 0.64273 0.79471 0.0
C4681 C 0.59502 0.65682 0.8001 0.0
C4682 C 0.62768 0.5994 0.77826 0.0
C4683 C 0.62845 0.58691 0.78997 0.0
C4684 C 0.61618 0.61195 0.77979 0.0
C4685 C 0.60534 0.61235 0.79315 0.0
C4686 C 0.60537 0.59917 0.80415 0.0
C4687 C 0.61677 0.58657 0.80255 0.0
H4688 H 0.58412 0.15424 0.95562 0.0
H4689 H 0.61494 0.19247 0.93637 0.0
H4690 H 0.60801 0.13822 0.96248 0.0
H4691 H 0.63914 0.1766 0.94385 0.0
H4692 H 0.67325 0.13216 0.93448 0.0
H4693 H 0.65189 0.15271 0.93334 0.0
H4694 H 0.6317 0.13417 0.97848 0.0
H4695 H 0.65283 0.1131 0.97921 0.0
C4696 C 0.59606 0.1594 0.95319 0.0
C4697 C 0.59765 0.17454 0.94528 0.0
C4698 C 0.60982 0.15024 0.95727 0.0
C4699 C 0.62557 0.15603 0.95365 0.0
C4700 C 0.62719 0.17164 0.94656 0.0
C4701 C 0.61335 0.18079 0.94238 0.0
C4702 C 0.66438 0.13261 0.94429 0.0
C4703 C 0.66457 0.12089 0.95683 0.0
C4704 C 0.65218 0.14451 0.94372 0.0
C4705 C 0.63994 0.14507 0.95575 0.0
C4706 C 0.64074 0.13391 0.96883 0.0
C4707 C 0.65288 0.12189 0.96932 0.0
H4708 H 0.11794 0.92545 0.19352 0.0
H4709 H 0.14981 0.888 0.21257 0.0
H4710 H 0.09563 0.90581 0.19197 0.0
H4711 H 0.12782 0.86812 0.21032 0.0
H4712 H 0.08493 0.83563 0.21237 0.0
H4713 H 0.10254 0.85847 0.21967 0.0
H4714 H 0.08787 0.88362 0.17557 0.0
H4715 H 0.06967 0.86109 0.16881 0.0
C4716 C 0.12014 0.91299 0.19742 0.0
C4717 C 0.13562 0.9082 0.20308 0.0
C4718 C 0.10738 0.9017 0.19644 0.0
C4719 C 0.10988 0.8853 0.20089 0.0
C4720 C 0.12529 0.88068 0.20703 0.0
C4721 C 0.13798 0.89204 0.20822 0.0
C4722 C 0.08518 0.84626 0.20448 0.0
C4723 C 0.07603 0.84658 0.18998 0.0
C4724 C 0.09541 0.85928 0.20856 0.0
C4725 C 0.09695 0.87279 0.19806 0.0
C4726 C 0.08695 0.87352 0.18406 0.0
C4727 C 0.0765 0.86059 0.18013 0.0
H4728 H 0.32297 0.363 0.42636 0.0
H4729 H 0.35383 0.38355 0.46387 0.0
H4730 H 0.34201 0.34037 0.42299 0.0
H4731 H 0.37324 0.3613 0.46009 0.0
H4732 H 0.4029 0.31622 0.45682 0.0
H4733 H 0.37912 0.33304 0.46303 0.0
H4734 H 0.36819 0.33638 0.41146 0.0
H4735 H 0.39156 0.31908 0.40539 0.0
C4736 C 0.33384 0.36265 0.43391 0.0
C4737 C 0.337 0.3751 0.4453 0.0
C4738 C 0.34479 0.34971 0.43194 0.0
C4739 C 0.35925 0.34901 0.44118 0.0
C4740 C 0.36213 0.36125 0.45293 0.0
C4741 C 0.35107 0.37411 0.45502 0.0
C4742 C 0.39513 0.32018 0.44687 0.0
C4743 C 0.39914 0.31643 0.43061 0.0
C4744 C 0.3816 0.32998 0.45041 0.0
C4745 C 0.37189 0.33636 0.43775 0.0
C4746 C 0.37529 0.33162 0.42156 0.0
C4747 C 0.38873 0.3217 0.41805 0.0
H4748 H 0.84978 0.61049 0.70401 0.0
H4749 H 0.88343 0.57479 0.68471 0.0
H4750 H 0.87097 0.63132 0.70246 0.0
H4751 H 0.90495 0.59527 0.68402 0.0
H4752 H 0.93203 0.64062 0.66477 0.0
H4753 H 0.91332 0.61796 0.66925 0.0
H4754 H 0.89528 0.6416 0.71295 0.0
H4755 H 0.91337 0.66465 0.7078 0.0
C4756 C 0.86181 0.60707 0.69967 0.0
C4757 C 0.86493 0.5911 0.69434 0.0
C4758 C 0.87405 0.61896 0.69891 0.0
C4759 C 0.88979 0.61506 0.69309 0.0
C4760 C 0.89295 0.59888 0.68824 0.0
C4761 C 0.88063 0.5871 0.68871 0.0
C4762 C 0.92429 0.64077 0.6755 0.0
C4763 C 0.92406 0.65439 0.68589 0.0
C4764 C 0.91353 0.62776 0.67812 0.0
C4765 C 0.90253 0.62798 0.69137 0.0
C4766 C 0.90319 0.64118 0.70236 0.0
C4767 C 0.9137 0.65431 0.69954 0.0
H4768 H 0.56523 0.67277 0.3666 0.0
H4769 H 0.51958 0.65225 0.38324 0.0
H4770 H 0.56735 0.65161 0.34597 0.0
H4771 H 0.52132 0.63132 0.36205 0.0
H4772 H 0.54583 0.58365 0.34416 0.0
H4773 H 0.53775 0.60771 0.35933 0.0
H4774 H 0.55839 0.63845 0.32166 0.0
H4775 H 0.56705 0.61407 0.30667 0.0
C4776 C 0.55541 0.66396 0.36557 0.0
C4777 C 0.54236 0.66401 0.37671 0.0
C4778 C 0.55656 0.65186 0.35361 0.0
C4779 C 0.54461 0.63959 0.35242 0.0
C4780 C 0.53093 0.64037 0.36284 0.0
C4781 C 0.52986 0.65242 0.37492 0.0
C4782 C 0.54846 0.59553 0.33897 0.0
C4783 C 0.55727 0.59697 0.32432 0.0
C4784 C 0.54367 0.60939 0.34762 0.0
C4785 C 0.54746 0.62509 0.3418 0.0
C4786 C 0.55549 0.62654 0.32664 0.0
C4787 C 0.56038 0.6126 0.31799 0.0
H4788 H 0.66574 0.79061 0.5843 0.0
H4789 H 0.64334 0.83597 0.56951 0.0
H4790 H 0.64179 0.78395 0.60061 0.0
H4791 H 0.61962 0.82979 0.58648 0.0
H4792 H 0.61139 0.79098 0.64699 0.0
H4793 H 0.63212 0.79351 0.62589 0.0
H4794 H 0.59621 0.81399 0.59298 0.0
H4795 H 0.57562 0.81204 0.61443 0.0
C4796 C 0.65553 0.79903 0.58436 0.0
C4797 C 0.65638 0.81384 0.57577 0.0
C4798 C 0.64188 0.79532 0.59385 0.0
C4799 C 0.62891 0.8065 0.59523 0.0
C4800 C 0.62931 0.82083 0.58568 0.0
C4801 C 0.6429 0.82441 0.57593 0.0
C4802 C 0.60791 0.79589 0.6352 0.0
C4803 C 0.59194 0.8014 0.63239 0.0
C4804 C 0.61976 0.79723 0.62302 0.0
C4805 C 0.61587 0.80394 0.60764 0.0
C4806 C 0.59972 0.80899 0.60471 0.0
C4807 C 0.5879 0.8078 0.61698 0.0
H4808 H 0.44116 0.92695 0.85271 0.0
H4809 H 0.42808 0.89589 0.81212 0.0
H4810 H 0.44748 0.90308 0.86913 0.0
H4811 H 0.43466 0.87176 0.82863 0.0
H4812 H 0.42465 0.836 0.87197 0.0
H4813 H 0.4223 0.85842 0.85257 0.0
H4814 H 0.46617 0.8801 0.87234 0.0
H4815 H 0.46838 0.8577 0.89199 0.0
C4816 C 0.43983 0.91499 0.84722 0.0
C4817 C 0.43401 0.91328 0.83115 0.0
C4818 C 0.44359 0.90129 0.85661 0.0
C4819 C 0.44158 0.88551 0.8502 0.0
C4820 C 0.4362 0.88378 0.83395 0.0
C4821 C 0.43251 0.89756 0.82448 0.0
C4822 C 0.43387 0.84549 0.8721 0.0
C4823 C 0.44663 0.84518 0.8836 0.0
C4824 C 0.4326 0.85827 0.86088 0.0
C4825 C 0.44403 0.87106 0.86092 0.0
C4826 C 0.45707 0.8705 0.87212 0.0
C4827 C 0.45837 0.85767 0.88334 0.0
H4828 H 0.35784 0.68427 0.06528 0.0
H4829 H 0.32766 0.69475 0.10727 0.0
H4830 H 0.38227 0.69027 0.08148 0.0
H4831 H 0.35187 0.70039 0.12342 0.0
H4832 H 0.39765 0.71905 0.14705 0.0
H4833 H 0.37493 0.71855 0.12765 0.0
H4834 H 0.39614 0.67641 0.10397 0.0
H4835 H 0.41888 0.67711 0.12306 0.0
C4836 C 0.35643 0.68801 0.07789 0.0
C4837 C 0.34087 0.68891 0.08505 0.0
C4838 C 0.37039 0.69137 0.08719 0.0
C4839 C 0.36901 0.69575 0.10377 0.0
C4840 C 0.35338 0.69727 0.11066 0.0
C4841 C 0.3395 0.69389 0.10141 0.0
C4842 C 0.3975 0.7098 0.13759 0.0
C4843 C 0.40995 0.69804 0.13666 0.0
C4844 C 0.38449 0.70948 0.12651 0.0
C4845 C 0.3837 0.6974 0.11429 0.0
C4846 C 0.39647 0.68601 0.11307 0.0
C4847 C 0.40943 0.68632 0.12412 0.0
H4848 H 0.54194 0.36423 0.59734 0.0
H4849 H 0.55032 0.32737 0.63412 0.0
H4850 H 0.54429 0.38543 0.61802 0.0
H4851 H 0.55192 0.3485 0.65505 0.0
H4852 H 0.5756 0.39205 0.68256 0.0
H4853 H 0.56961 0.36919 0.66435 0.0
H4854 H 0.53226 0.39807 0.64058 0.0
H4855 H 0.53896 0.42105 0.65819 0.0
C4856 C 0.54399 0.36066 0.60992 0.0
C4857 C 0.54602 0.34418 0.61411 0.0
C4858 C 0.54523 0.37281 0.62185 0.0
C4859 C 0.54829 0.36874 0.6383 0.0
C4860 C 0.54983 0.35215 0.64251 0.0
C4861 C 0.5488 0.34002 0.63053 0.0
C4862 C 0.56592 0.39333 0.67363 0.0
C4863 C 0.55784 0.40831 0.67164 0.0
C4864 C 0.56244 0.38024 0.66318 0.0
C4865 C 0.55061 0.38183 0.65075 0.0
C4866 C 0.54178 0.39652 0.64964 0.0
C4867 C 0.54548 0.40965 0.65984 0.0
H4868 H 0.86337 0.81726 0.94093 0.0
H4869 H 0.83319 0.79397 0.90446 0.0
H4870 H 0.88781 0.8093 0.92563 0.0
H4871 H 0.85725 0.78664 0.88898 0.0
H4872 H 0.902 0.77033 0.8641 0.0
H4873 H 0.88138 0.77145 0.88562 0.0
H4874 H 0.90026 0.81828 0.90113 0.0
H4875 H 0.92116 0.81676 0.88019 0.0
C4876 C 0.86197 0.81025 0.92979 0.0
C4877 C 0.84637 0.80639 0.92382 0.0
C4878 C 0.87595 0.80579 0.92095 0.0
C4879 C 0.87456 0.79744 0.90594 0.0
C4880 C 0.85892 0.79284 0.90054 0.0
C4881 C 0.84505 0.7972 0.90938 0.0
C4882 C 0.90191 0.78068 0.87234 0.0
C4883 C 0.91306 0.79354 0.87033 0.0
C4884 C 0.89004 0.78139 0.88463 0.0
C4885 C 0.88895 0.79508 0.89502 0.0
C4886 C 0.90076 0.80746 0.89354 0.0
C4887 C 0.91271 0.80666 0.8814 0.0
H4888 H 0.45411 0.08179 0.15452 0.0
H4889 H 0.43207 0.1118 0.19188 0.0
H4890 H 0.46141 0.10599 0.13918 0.0
H4891 H 0.43999 0.13633 0.17675 0.0
H4892 H 0.4324 0.17074 0.13218 0.0
H4893 H 0.43073 0.14931 0.15258 0.0
H4894 H 0.47703 0.12998 0.13608 0.0
H4895 H 0.47831 0.15116 0.11511 0.0
C4896 C 0.45115 0.09362 0.15966 0.0
C4897 C 0.44233 0.09488 0.17432 0.0
C4898 C 0.45549 0.10757 0.1509 0.0
C4899 C 0.45123 0.12319 0.15663 0.0
C4900 C 0.44322 0.12449 0.17181 0.0
C4901 C 0.43878 0.11046 0.18056 0.0
C4902 C 0.44236 0.16207 0.13306 0.0
C4903 C 0.45538 0.1625 0.12189 0.0
C4904 C 0.44147 0.14981 0.14489 0.0
C4905 C 0.45366 0.13774 0.14593 0.0
C4906 C 0.46724 0.13885 0.13542 0.0
C4907 C 0.46805 0.15105 0.12346 0.0
H4908 H 0.13966 0.67206 0.43163 0.0
H4909 H 0.16504 0.71473 0.41405 0.0
H4910 H 0.11638 0.67873 0.41421 0.0
H4911 H 0.14151 0.7221 0.39745 0.0
H4912 H 0.11018 0.71521 0.35173 0.0
H4913 H 0.13069 0.71299 0.37303 0.0
H4914 H 0.09405 0.69471 0.40645 0.0
H4915 H 0.07374 0.69614 0.38469 0.0
C4916 C 0.13998 0.68319 0.42446 0.0
C4917 C 0.15413 0.69281 0.42401 0.0
C4918 C 0.12663 0.68707 0.41447 0.0
C4919 C 0.12711 0.70083 0.4041 0.0
C4920 C 0.14085 0.71113 0.40481 0.0
C4921 C 0.15428 0.70703 0.41446 0.0
C4922 C 0.10648 0.71093 0.3637 0.0
C4923 C 0.09041 0.70576 0.36652 0.0
C4924 C 0.11823 0.70974 0.37601 0.0
C4925 C 0.11413 0.70361 0.39158 0.0
C4926 C 0.09779 0.69917 0.39458 0.0
C4927 C 0.0861 0.70012 0.38215 0.0
H4928 H 0.89164 0.53298 0.14253 0.0
H4929 H 0.86391 0.55874 0.17924 0.0
H4930 H 0.86874 0.53506 0.12373 0.0
H4931 H 0.84062 0.56023 0.16071 0.0
H4932 H 0.82539 0.53475 0.0928 0.0
H4933 H 0.84217 0.52739 0.11626 0.0
H4934 H 0.83344 0.57512 0.13719 0.0
H4935 H 0.81601 0.58203 0.11411 0.0
C4936 C 0.88049 0.53877 0.14669 0.0
C4937 C 0.87961 0.54585 0.16225 0.0
C4938 C 0.86726 0.53986 0.13596 0.0
C4939 C 0.85275 0.54787 0.14065 0.0
C4940 C 0.85166 0.55424 0.15657 0.0
C4941 C 0.86498 0.55332 0.16721 0.0
C4942 C 0.82665 0.54343 0.10272 0.0
C4943 C 0.81953 0.55899 0.10163 0.0
C4944 C 0.83642 0.53931 0.11607 0.0
C4945 C 0.83956 0.5508 0.12845 0.0
C4946 C 0.83128 0.56589 0.12797 0.0
C4947 C 0.82125 0.5699 0.11472 0.0
H4948 H 0.34685 0.44787 0.42103 0.0
H4949 H 0.30948 0.42914 0.38885 0.0
H4950 H 0.36322 0.45573 0.39771 0.0
H4951 H 0.32573 0.43759 0.36522 0.0
H4952 H 0.37093 0.43053 0.33149 0.0
H4953 H 0.35016 0.42799 0.35253 0.0
H4954 H 0.36722 0.47277 0.37474 0.0
H4955 H 0.38848 0.47492 0.35394 0.0
C4956 C 0.34196 0.44575 0.40892 0.0
C4957 C 0.32695 0.43772 0.40677 0.0
C4958 C 0.35132 0.45041 0.39549 0.0
C4959 C 0.34588 0.44724 0.37952 0.0
C4960 C 0.33041 0.43999 0.37735 0.0
C4961 C 0.32104 0.43525 0.39087 0.0
C4962 C 0.37013 0.43994 0.34076 0.0
C4963 C 0.38147 0.45282 0.3412 0.0
C4964 C 0.3581 0.43856 0.35277 0.0
C4965 C 0.35704 0.45011 0.36545 0.0
C4966 C 0.36787 0.46348 0.36535 0.0
C4967 C 0.38001 0.46477 0.3534 0.0
H4968 H 0.78541 0.57459 0.65933 0.0
H4969 H 0.8321 0.56533 0.63678 0.0
H4970 H 0.77704 0.59067 0.63573 0.0
H4971 H 0.82427 0.58222 0.61356 0.0
H4972 H 0.80648 0.61134 0.57127 0.0
H4973 H 0.80887 0.58857 0.59034 0.0
H4974 H 0.7833 0.61688 0.62691 0.0
H4975 H 0.78024 0.63915 0.60757 0.0
C4976 C 0.79378 0.57581 0.64915 0.0
C4977 C 0.80942 0.56885 0.64986 0.0
C4978 C 0.78908 0.58518 0.6357 0.0
C4979 C 0.80009 0.58815 0.62285 0.0
C4980 C 0.81536 0.58016 0.6231 0.0
C4981 C 0.81992 0.57048 0.63644 0.0
C4982 C 0.8011 0.61251 0.58331 0.0
C4983 C 0.79326 0.62704 0.588 0.0
C4984 C 0.80258 0.59951 0.59429 0.0
C4985 C 0.79645 0.60085 0.61029 0.0
C4986 C 0.78796 0.61519 0.61466 0.0
C4987 C 0.78628 0.62807 0.6036 0.0
H4988 H 0.6836 0.08139 0.89414 0.0
H4989 H 0.66272 0.04183 0.92192 0.0
H4990 H 0.66599 0.07462 0.87114 0.0
H4991 H 0.64595 0.03412 0.89862 0.0
H4992 H 0.60216 0.04 0.8646 0.0
H4993 H 0.62263 0.04282 0.88591 0.0
H4994 H 0.65801 0.05827 0.84977 0.0
H4995 H 0.63703 0.0565 0.82873 0.0
C4996 C 0.67559 0.07091 0.89508 0.0
C4997 C 0.67437 0.06221 0.90977 0.0
C4998 C 0.66549 0.06693 0.88187 0.0
C4999 C 0.65426 0.0539 0.88298 0.0
C5000 C 0.65399 0.04454 0.8974 0.0
C5001 C 0.66374 0.04882 0.91072 0.0
C5002 C 0.61438 0.04383 0.86125 0.0
C5003 C 0.61801 0.04814 0.84509 0.0
C5004 C 0.62622 0.04536 0.87345 0.0
C5005 C 0.64211 0.05087 0.86969 0.0
C5006 C 0.64587 0.05439 0.85329 0.0
C5007 C 0.6339 0.05324 0.84117 0.0
H5008 H 0.7067 0.41439 0.1659 0.0
H5009 H 0.66335 0.43189 0.14154 0.0
H5010 H 0.71288 0.39693 0.14264 0.0
H5011 H 0.66898 0.4138 0.11852 0.0
H5012 H 0.68651 0.38404 0.07555 0.0
H5013 H 0.68493 0.40579 0.09586 0.0
H5014 H 0.70228 0.37223 0.1328 0.0
H5015 H 0.70451 0.35081 0.11234 0.0
C5016 C 0.69861 0.41464 0.15542 0.0
C5017 C 0.68451 0.4244 0.15551 0.0
C5018 C 0.70203 0.4045 0.14216 0.0
C5019 C 0.69124 0.40361 0.12882 0.0
C5020 C 0.67764 0.41418 0.1285 0.0
C5021 C 0.67438 0.42458 0.14169 0.0
C5022 C 0.69012 0.3814 0.088 0.0
C5023 C 0.6956 0.36573 0.09239 0.0
C5024 C 0.68914 0.39384 0.09967 0.0
C5025 C 0.69345 0.39084 0.11603 0.0
C5026 C 0.69916 0.37516 0.12029 0.0
C5027 C 0.70032 0.3628 0.10859 0.0
H5028 H 0.11222 0.47412 0.14577 0.0
H5029 H 0.13037 0.42882 0.16581 0.0
H5030 H 0.1328 0.47281 0.12424 0.0
H5031 H 0.15046 0.42712 0.14402 0.0
H5032 H 0.19015 0.4301 0.10668 0.0
H5033 H 0.17453 0.43741 0.1311 0.0
H5034 H 0.13599 0.45662 0.10049 0.0
H5035 H 0.15173 0.44989 0.07639 0.0
C5036 C 0.12067 0.46394 0.14562 0.0
C5037 C 0.11959 0.45149 0.15735 0.0
C5038 C 0.13242 0.46314 0.13326 0.0
C5039 C 0.14321 0.44977 0.13228 0.0
C5040 C 0.14253 0.4377 0.14448 0.0
C5041 C 0.1309 0.43859 0.15691 0.0
C5042 C 0.17848 0.43617 0.10525 0.0
C5043 C 0.1721 0.4393 0.08965 0.0
C5044 C 0.16948 0.44027 0.11921 0.0
C5045 C 0.15393 0.44751 0.11778 0.0
C5046 C 0.14798 0.45129 0.10213 0.0
C5047 C 0.15698 0.44728 0.08826 0.0
H5048 H 0.81813 0.882 0.92327 0.0
H5049 H 0.78912 0.85294 0.89021 0.0
H5050 H 0.81861 0.90422 0.90344 0.0
H5051 H 0.79032 0.87463 0.86999 0.0
H5052 H 0.78609 0.91752 0.83813 0.0
H5053 H 0.78175 0.90036 0.86203 0.0
H5054 H 0.83059 0.9117 0.87879 0.0
H5055 H 0.83436 0.92967 0.85537 0.0
C5056 C 0.81192 0.88036 0.9117 0.0
C5057 C 0.80362 0.86575 0.90823 0.0
C5058 C 0.81225 0.89307 0.90028 0.0
C5059 C 0.80452 0.89133 0.88502 0.0
C5060 C 0.7961 0.87668 0.8817 0.0
C5061 C 0.79553 0.86412 0.89323 0.0
C5062 C 0.79568 0.91668 0.84723 0.0
C5063 C 0.81056 0.92486 0.84495 0.0
C5064 C 0.79331 0.90667 0.86082 0.0
C5065 C 0.80596 0.90423 0.87221 0.0
C5066 C 0.82049 0.9133 0.8704 0.0
C5067 C 0.8227 0.92363 0.85697 0.0
H5068 H 0.18841 0.61799 0.42755 0.0
H5069 H 0.21351 0.64721 0.39155 0.0
H5070 H 0.18744 0.59514 0.40843 0.0
H5071 H 0.21199 0.62473 0.37221 0.0
H5072 H 0.21548 0.58123 0.3414 0.0
H5073 H 0.22115 0.59857 0.36488 0.0
H5074 H 0.17331 0.5875 0.38436 0.0
H5075 H 0.16809 0.56948 0.36118 0.0
C5076 C 0.19377 0.6195 0.41555 0.0
C5077 C 0.20099 0.6344 0.411 0.0
C5078 C 0.19314 0.60643 0.40456 0.0
C5079 C 0.1996 0.60803 0.38872 0.0
C5080 C 0.20717 0.62287 0.38437 0.0
C5081 C 0.20794 0.63585 0.39542 0.0
C5082 C 0.2064 0.58214 0.35098 0.0
C5083 C 0.19133 0.57412 0.34948 0.0
C5084 C 0.20955 0.59223 0.36435 0.0
C5085 C 0.19753 0.59482 0.37634 0.0
C5086 C 0.1829 0.58578 0.37543 0.0
C5087 C 0.17988 0.57542 0.36215 0.0
loop_
_geom_bond_atom_site_label_1
_geom_bond_atom_site_label_2
_geom_bond_distance
_geom_bond_site_symmetry_2
_ccdc_geom_bond_type
In0 O1 2.294 . S
In0 O2 2.326 . S
In0 O6 2.266 . S
In0 O7 2.326 . S
In0 O8 2.266 . S
In0 O9 2.326 . S
In0 O11 2.294 . S
In0 O12 2.326 . S
O1 In0 2.294 . S
O1 C10 1.240 . S
O2 In0 2.326 . S
O2 C10 1.252 . S
C3 O6 1.252 . S
C3 O7 1.260 . S
C4 O11 1.240 . S
C4 O12 1.252 . S
C5 O8 1.252 . S
C5 O9 1.260 . S
O6 In0 2.266 . S
O6 C3 1.252 . S
O7 In0 2.326 . S
O7 C3 1.260 . S
O8 In0 2.266 . S
O8 C5 1.252 . S
O9 In0 2.326 . S
O9 C5 1.260 . S
C10 O1 1.240 . S
C10 O2 1.252 . S
O11 In0 2.294 . S
O11 C4 1.240 . S
O12 In0 2.326 . S
O12 C4 1.252 . S
In13 O14 2.294 . S
In13 O15 2.326 . S
In13 O19 2.266 . S
In13 O20 2.326 . S
In13 O21 2.266 . S
In13 O22 2.326 . S
In13 O24 2.294 . S
In13 O25 2.326 . S
O14 In13 2.294 . S
O14 C23 1.240 . S
O15 In13 2.326 . S
O15 C23 1.252 . S
C16 O19 1.252 . S
C16 O20 1.260 . S
C17 O24 1.240 . S
C17 O25 1.252 . S
C18 O21 1.252 . S
C18 O22 1.260 . S
O19 In13 2.266 . S
O19 C16 1.252 . S
O20 In13 2.326 . S
O20 C16 1.260 . S
O21 In13 2.266 . S
O21 C18 1.252 . S
O22 In13 2.326 . S
O22 C18 1.260 . S
C23 O14 1.240 . S
C23 O15 1.252 . S
O24 In13 2.294 . S
O24 C17 1.240 . S
O25 In13 2.326 . S
O25 C17 1.252 . S
In26 O27 2.294 . S
In26 O28 2.326 . S
In26 O32 2.266 . S
In26 O33 2.326 . S
In26 O34 2.266 . S
In26 O35 2.326 . S
In26 O37 2.294 . S
In26 O38 2.326 . S
O27 In26 2.294 . S
O27 C36 1.240 . S
O28 In26 2.326 . S
O28 C36 1.252 . S
C29 O32 1.252 . S
C29 O33 1.260 . S
C30 O37 1.240 . S
C30 O38 1.252 . S
C31 O34 1.252 . S
C31 O35 1.260 . S
O32 In26 2.266 . S
O32 C29 1.252 . S
O33 In26 2.326 . S
O33 C29 1.260 . S
O34 In26 2.266 . S
O34 C31 1.252 . S
O35 In26 2.326 . S
O35 C31 1.260 . S
C36 O27 1.240 . S
C36 O28 1.252 . S
O37 In26 2.294 . S
O37 C30 1.240 . S
O38 In26 2.326 . S
O38 C30 1.252 . S
In39 O40 2.294 . S
In39 O41 2.326 . S
In39 O45 2.266 . S
In39 O46 2.326 . S
In39 O47 2.266 . S
In39 O48 2.326 . S
In39 O50 2.294 . S
In39 O51 2.326 . S
O40 In39 2.294 . S
O40 C49 1.240 . S
O41 In39 2.326 . S
O41 C49 1.252 . S
C42 O45 1.252 . S
C42 O46 1.260 . S
C43 O50 1.240 . S
C43 O51 1.252 . S
C44 O47 1.252 . S
C44 O48 1.260 . S
O45 In39 2.266 . S
O45 C42 1.252 . S
O46 In39 2.326 . S
O46 C42 1.260 . S
O47 In39 2.266 . S
O47 C44 1.252 . S
O48 In39 2.326 . S
O48 C44 1.260 . S
C49 O40 1.240 . S
C49 O41 1.252 . S
O50 In39 2.294 . S
O50 C43 1.240 . S
O51 In39 2.326 . S
O51 C43 1.252 . S
In52 O53 2.294 . S
In52 O54 2.326 . S
In52 O58 2.266 . S
In52 O59 2.326 . S
In52 O60 2.266 . S
In52 O61 2.326 . S
In52 O63 2.294 . S
In52 O64 2.326 . S
O53 In52 2.294 . S
O53 C62 1.240 . S
O54 In52 2.326 . S
O54 C62 1.252 . S
C55 O58 1.252 . S
C55 O59 1.260 . S
C56 O63 1.240 . S
C56 O64 1.252 . S
C57 O60 1.252 . S
C57 O61 1.260 . S
O58 In52 2.266 . S
O58 C55 1.252 . S
O59 In52 2.326 . S
O59 C55 1.260 . S
O60 In52 2.266 . S
O60 C57 1.252 . S
O61 In52 2.326 . S
O61 C57 1.260 . S
C62 O53 1.240 . S
C62 O54 1.252 . S
O63 In52 2.294 . S
O63 C56 1.240 . S
O64 In52 2.326 . S
O64 C56 1.252 . S
In65 O66 2.294 . S
In65 O67 2.326 . S
In65 O71 2.266 . S
In65 O72 2.326 . S
In65 O73 2.266 . S
In65 O74 2.326 . S
In65 O76 2.294 . S
In65 O77 2.326 . S
O66 In65 2.294 . S
O66 C75 1.240 . S
O67 In65 2.326 . S
O67 C75 1.252 . S
C68 O71 1.252 . S
C68 O72 1.260 . S
C69 O76 1.240 . S
C69 O77 1.252 . S
C70 O73 1.252 . S
C70 O74 1.260 . S
O71 In65 2.266 . S
O71 C68 1.252 . S
O72 In65 2.326 . S
O72 C68 1.260 . S
O73 In65 2.266 . S
O73 C70 1.252 . S
O74 In65 2.326 . S
O74 C70 1.260 . S
C75 O66 1.240 . S
C75 O67 1.252 . S
O76 In65 2.294 . S
O76 C69 1.240 . S
O77 In65 2.326 . S
O77 C69 1.252 . S
In78 O79 2.294 . S
In78 O80 2.326 . S
In78 O84 2.266 . S
In78 O85 2.326 . S
In78 O86 2.266 . S
In78 O87 2.326 . S
In78 O89 2.294 . S
In78 O90 2.326 . S
O79 In78 2.294 . S
O79 C88 1.240 . S
O80 In78 2.326 . S
O80 C88 1.252 . S
C81 O84 1.252 . S
C81 O85 1.260 . S
C82 O89 1.240 . S
C82 O90 1.252 . S
C83 O86 1.252 . S
C83 O87 1.260 . S
O84 In78 2.266 . S
O84 C81 1.252 . S
O85 In78 2.326 . S
O85 C81 1.260 . S
O86 In78 2.266 . S
O86 C83 1.252 . S
O87 In78 2.326 . S
O87 C83 1.260 . S
C88 O79 1.240 . S
C88 O80 1.252 . S
O89 In78 2.294 . S
O89 C82 1.240 . S
O90 In78 2.326 . S
O90 C82 1.252 . S
In91 O92 2.294 . S
In91 O93 2.326 . S
In91 O97 2.266 . S
In91 O98 2.326 . S
In91 O99 2.266 . S
In91 O100 2.326 . S
In91 O102 2.294 . S
In91 O103 2.326 . S
O92 In91 2.294 . S
O92 C101 1.240 . S
O93 In91 2.326 . S
O93 C101 1.252 . S
C94 O97 1.252 . S
C94 O98 1.260 . S
C95 O102 1.240 . S
C95 O103 1.252 . S
C96 O99 1.252 . S
C96 O100 1.260 . S
O97 In91 2.266 . S
O97 C94 1.252 . S
O98 In91 2.326 . S
O98 C94 1.260 . S
O99 In91 2.266 . S
O99 C96 1.252 . S
O100 In91 2.326 . S
O100 C96 1.260 . S
C101 O92 1.240 . S
C101 O93 1.252 . S
O102 In91 2.294 . S
O102 C95 1.240 . S
O103 In91 2.326 . S
O103 C95 1.252 . S
In104 O105 2.294 . S
In104 O106 2.326 . S
In104 O110 2.266 . S
In104 O111 2.326 . S
In104 O112 2.266 . S
In104 O113 2.326 . S
In104 O115 2.294 . S
In104 O116 2.326 . S
O105 In104 2.294 . S
O105 C114 1.240 . S
O106 In104 2.326 . S
O106 C114 1.252 . S
C107 O110 1.252 . S
C107 O111 1.260 . S
C108 O115 1.240 . S
C108 O116 1.252 . S
C109 O112 1.252 . S
C109 O113 1.260 . S
O110 In104 2.266 . S
O110 C107 1.252 . S
O111 In104 2.326 . S
O111 C107 1.260 . S
O112 In104 2.266 . S
O112 C109 1.252 . S
O113 In104 2.326 . S
O113 C109 1.260 . S
C114 O105 1.240 . S
C114 O106 1.252 . S
O115 In104 2.294 . S
O115 C108 1.240 . S
O116 In104 2.326 . S
O116 C108 1.252 . S
In117 O118 2.294 . S
In117 O119 2.326 . S
In117 O123 2.266 . S
In117 O124 2.326 . S
In117 O125 2.266 . S
In117 O126 2.326 . S
In117 O128 2.294 . S
In117 O129 2.326 . S
O118 In117 2.294 . S
O118 C127 1.240 . S
O119 In117 2.326 . S
O119 C127 1.252 . S
C120 O123 1.252 . S
C120 O124 1.260 . S
C121 O128 1.240 . S
C121 O129 1.252 . S
C122 O125 1.252 . S
C122 O126 1.260 . S
O123 In117 2.266 . S
O123 C120 1.252 . S
O124 In117 2.326 . S
O124 C120 1.260 . S
O125 In117 2.266 . S
O125 C122 1.252 . S
O126 In117 2.326 . S
O126 C122 1.260 . S
C127 O118 1.240 . S
C127 O119 1.252 . S
O128 In117 2.294 . S
O128 C121 1.240 . S
O129 In117 2.326 . S
O129 C121 1.252 . S
In130 O131 2.294 . S
In130 O132 2.326 . S
In130 O136 2.266 . S
In130 O137 2.326 . S
In130 O138 2.266 . S
In130 O139 2.326 . S
In130 O141 2.294 . S
In130 O142 2.326 . S
O131 In130 2.294 . S
O131 C140 1.240 . S
O132 In130 2.326 . S
O132 C140 1.252 . S
C133 O136 1.252 . S
C133 O137 1.260 . S
C134 O141 1.240 . S
C134 O142 1.252 . S
C135 O138 1.252 . S
C135 O139 1.260 . S
O136 In130 2.266 . S
O136 C133 1.252 . S
O137 In130 2.326 . S
O137 C133 1.260 . S
O138 In130 2.266 . S
O138 C135 1.252 . S
O139 In130 2.326 . S
O139 C135 1.260 . S
C140 O131 1.240 . S
C140 O132 1.252 . S
O141 In130 2.294 . S
O141 C134 1.240 . S
O142 In130 2.326 . S
O142 C134 1.252 . S
In143 O144 2.294 . S
In143 O145 2.326 . S
In143 O149 2.266 . S
In143 O150 2.326 . S
In143 O151 2.266 . S
In143 O152 2.326 . S
In143 O154 2.294 . S
In143 O155 2.326 . S
O144 In143 2.294 . S
O144 C153 1.240 . S
O145 In143 2.326 . S
O145 C153 1.252 . S
C146 O149 1.252 . S
C146 O150 1.260 . S
C147 O154 1.240 . S
C147 O155 1.252 . S
C148 O151 1.252 . S
C148 O152 1.260 . S
O149 In143 2.266 . S
O149 C146 1.252 . S
O150 In143 2.326 . S
O150 C146 1.260 . S
O151 In143 2.266 . S
O151 C148 1.252 . S
O152 In143 2.326 . S
O152 C148 1.260 . S
C153 O144 1.240 . S
C153 O145 1.252 . S
O154 In143 2.294 . S
O154 C147 1.240 . S
O155 In143 2.326 . S
O155 C147 1.252 . S
In156 O157 2.294 . S
In156 O158 2.326 . S
In156 O162 2.266 . S
In156 O163 2.326 . S
In156 O164 2.266 . S
In156 O165 2.326 . S
In156 O167 2.294 . S
In156 O168 2.326 . S
O157 In156 2.294 . S
O157 C166 1.240 . S
O158 In156 2.326 . S
O158 C166 1.252 . S
C159 O162 1.252 . S
C159 O163 1.260 . S
C160 O167 1.240 . S
C160 O168 1.252 . S
C161 O164 1.252 . S
C161 O165 1.260 . S
O162 In156 2.266 . S
O162 C159 1.252 . S
O163 In156 2.326 . S
O163 C159 1.260 . S
O164 In156 2.266 . S
O164 C161 1.252 . S
O165 In156 2.326 . S
O165 C161 1.260 . S
C166 O157 1.240 . S
C166 O158 1.252 . S
O167 In156 2.294 . S
O167 C160 1.240 . S
O168 In156 2.326 . S
O168 C160 1.252 . S
In169 O170 2.294 . S
In169 O171 2.326 . S
In169 O175 2.266 . S
In169 O176 2.326 . S
In169 O177 2.266 . S
In169 O178 2.326 . S
In169 O180 2.294 . S
In169 O181 2.326 . S
O170 In169 2.294 . S
O170 C179 1.240 . S
O171 In169 2.326 . S
O171 C179 1.252 . S
C172 O175 1.252 . S
C172 O176 1.260 . S
C173 O180 1.240 . S
C173 O181 1.252 . S
C174 O177 1.252 . S
C174 O178 1.260 . S
O175 In169 2.266 . S
O175 C172 1.252 . S
O176 In169 2.326 . S
O176 C172 1.260 . S
O177 In169 2.266 . S
O177 C174 1.252 . S
O178 In169 2.326 . S
O178 C174 1.260 . S
C179 O170 1.240 . S
C179 O171 1.252 . S
O180 In169 2.294 . S
O180 C173 1.240 . S
O181 In169 2.326 . S
O181 C173 1.252 . S
In182 O183 2.294 . S
In182 O184 2.326 . S
In182 O188 2.266 . S
In182 O189 2.326 . S
In182 O190 2.266 . S
In182 O191 2.326 . S
In182 O193 2.294 . S
In182 O194 2.326 . S
O183 In182 2.294 . S
O183 C192 1.240 . S
O184 In182 2.326 . S
O184 C192 1.252 . S
C185 O188 1.252 . S
C185 O189 1.260 . S
C186 O193 1.240 . S
C186 O194 1.252 . S
C187 O190 1.252 . S
C187 O191 1.260 . S
O188 In182 2.266 . S
O188 C185 1.252 . S
O189 In182 2.326 . S
O189 C185 1.260 . S
O190 In182 2.266 . S
O190 C187 1.252 . S
O191 In182 2.326 . S
O191 C187 1.260 . S
C192 O183 1.240 . S
C192 O184 1.252 . S
O193 In182 2.294 . S
O193 C186 1.240 . S
O194 In182 2.326 . S
O194 C186 1.252 . S
In195 O196 2.294 . S
In195 O197 2.326 . S
In195 O201 2.266 . S
In195 O202 2.326 . S
In195 O203 2.266 . S
In195 O204 2.326 . S
In195 O206 2.294 . S
In195 O207 2.326 . S
O196 In195 2.294 . S
O196 C205 1.240 . S
O197 In195 2.326 . S
O197 C205 1.252 . S
C198 O201 1.252 . S
C198 O202 1.260 . S
C199 O206 1.240 . S
C199 O207 1.252 . S
C200 O203 1.252 . S
C200 O204 1.260 . S
O201 In195 2.266 . S
O201 C198 1.252 . S
O202 In195 2.326 . S
O202 C198 1.260 . S
O203 In195 2.266 . S
O203 C200 1.252 . S
O204 In195 2.326 . S
O204 C200 1.260 . S
C205 O196 1.240 . S
C205 O197 1.252 . S
O206 In195 2.294 . S
O206 C199 1.240 . S
O207 In195 2.326 . S
O207 C199 1.252 . S
In208 O209 2.294 . S
In208 O210 2.326 . S
In208 O214 2.266 . S
In208 O215 2.326 . S
In208 O216 2.266 . S
In208 O217 2.326 . S
In208 O219 2.294 . S
In208 O220 2.326 . S
O209 In208 2.294 . S
O209 C218 1.240 . S
O210 In208 2.326 . S
O210 C218 1.252 . S
C211 O214 1.252 . S
C211 O215 1.260 . S
C212 O219 1.240 . S
C212 O220 1.252 . S
C213 O216 1.252 . S
C213 O217 1.260 . S
O214 In208 2.266 . S
O214 C211 1.252 . S
O215 In208 2.326 . S
O215 C211 1.260 . S
O216 In208 2.266 . S
O216 C213 1.252 . S
O217 In208 2.326 . S
O217 C213 1.260 . S
C218 O209 1.240 . S
C218 O210 1.252 . S
O219 In208 2.294 . S
O219 C212 1.240 . S
O220 In208 2.326 . S
O220 C212 1.252 . S
In221 O222 2.294 . S
In221 O223 2.326 . S
In221 O227 2.266 . S
In221 O228 2.326 . S
In221 O229 2.266 . S
In221 O230 2.326 . S
In221 O232 2.294 . S
In221 O233 2.326 . S
O222 In221 2.294 . S
O222 C231 1.240 . S
O223 In221 2.326 . S
O223 C231 1.252 . S
C224 O227 1.252 . S
C224 O228 1.260 . S
C225 O232 1.240 . S
C225 O233 1.252 . S
C226 O229 1.252 . S
C226 O230 1.260 . S
O227 In221 2.266 . S
O227 C224 1.252 . S
O228 In221 2.326 . S
O228 C224 1.260 . S
O229 In221 2.266 . S
O229 C226 1.252 . S
O230 In221 2.326 . S
O230 C226 1.260 . S
C231 O222 1.240 . S
C231 O223 1.252 . S
O232 In221 2.294 . S
O232 C225 1.240 . S
O233 In221 2.326 . S
O233 C225 1.252 . S
In234 O235 2.294 . S
In234 O236 2.326 . S
In234 O240 2.266 . S
In234 O241 2.326 . S
In234 O242 2.266 . S
In234 O243 2.326 . S
In234 O245 2.294 . S
In234 O246 2.326 . S
O235 In234 2.294 . S
O235 C244 1.240 . S
O236 In234 2.326 . S
O236 C244 1.252 . S
C237 O240 1.252 . S
C237 O241 1.260 . S
C238 O245 1.240 . S
C238 O246 1.252 . S
C239 O242 1.252 . S
C239 O243 1.260 . S
O240 In234 2.266 . S
O240 C237 1.252 . S
O241 In234 2.326 . S
O241 C237 1.260 . S
O242 In234 2.266 . S
O242 C239 1.252 . S
O243 In234 2.326 . S
O243 C239 1.260 . S
C244 O235 1.240 . S
C244 O236 1.252 . S
O245 In234 2.294 . S
O245 C238 1.240 . S
O246 In234 2.326 . S
O246 C238 1.252 . S
In247 O248 2.294 . S
In247 O249 2.326 . S
In247 O253 2.266 . S
In247 O254 2.326 . S
In247 O255 2.266 . S
In247 O256 2.326 . S
In247 O258 2.294 . S
In247 O259 2.326 . S
O248 In247 2.294 . S
O248 C257 1.240 . S
O249 In247 2.326 . S
O249 C257 1.252 . S
C250 O253 1.252 . S
C250 O254 1.260 . S
C251 O258 1.240 . S
C251 O259 1.252 . S
C252 O255 1.252 . S
C252 O256 1.260 . S
O253 In247 2.266 . S
O253 C250 1.252 . S
O254 In247 2.326 . S
O254 C250 1.260 . S
O255 In247 2.266 . S
O255 C252 1.252 . S
O256 In247 2.326 . S
O256 C252 1.260 . S
C257 O248 1.240 . S
C257 O249 1.252 . S
O258 In247 2.294 . S
O258 C251 1.240 . S
O259 In247 2.326 . S
O259 C251 1.252 . S
In260 O261 2.294 . S
In260 O262 2.326 . S
In260 O266 2.266 . S
In260 O267 2.326 . S
In260 O268 2.266 . S
In260 O269 2.326 . S
In260 O271 2.294 . S
In260 O272 2.326 . S
O261 In260 2.294 . S
O261 C270 1.240 . S
O262 In260 2.326 . S
O262 C270 1.252 . S
C263 O266 1.252 . S
C263 O267 1.260 . S
C264 O271 1.240 . S
C264 O272 1.252 . S
C265 O268 1.252 . S
C265 O269 1.260 . S
O266 In260 2.266 . S
O266 C263 1.252 . S
O267 In260 2.326 . S
O267 C263 1.260 . S
O268 In260 2.266 . S
O268 C265 1.252 . S
O269 In260 2.326 . S
O269 C265 1.260 . S
C270 O261 1.240 . S
C270 O262 1.252 . S
O271 In260 2.294 . S
O271 C264 1.240 . S
O272 In260 2.326 . S
O272 C264 1.252 . S
In273 O274 2.294 . S
In273 O275 2.326 . S
In273 O279 2.266 . S
In273 O280 2.326 . S
In273 O281 2.266 . S
In273 O282 2.326 . S
In273 O284 2.294 . S
In273 O285 2.326 . S
O274 In273 2.294 . S
O274 C283 1.240 . S
O275 In273 2.326 . S
O275 C283 1.252 . S
C276 O279 1.252 . S
C276 O280 1.260 . S
C277 O284 1.240 . S
C277 O285 1.252 . S
C278 O281 1.252 . S
C278 O282 1.260 . S
O279 In273 2.266 . S
O279 C276 1.252 . S
O280 In273 2.326 . S
O280 C276 1.260 . S
O281 In273 2.266 . S
O281 C278 1.252 . S
O282 In273 2.326 . S
O282 C278 1.260 . S
C283 O274 1.240 . S
C283 O275 1.252 . S
O284 In273 2.294 . S
O284 C277 1.240 . S
O285 In273 2.326 . S
O285 C277 1.252 . S
In286 O287 2.294 . S
In286 O288 2.326 . S
In286 O292 2.266 . S
In286 O293 2.326 . S
In286 O294 2.266 . S
In286 O295 2.326 . S
In286 O297 2.294 . S
In286 O298 2.326 . S
O287 In286 2.294 . S
O287 C296 1.240 . S
O288 In286 2.326 . S
O288 C296 1.252 . S
C289 O292 1.252 . S
C289 O293 1.260 . S
C290 O297 1.240 . S
C290 O298 1.252 . S
C291 O294 1.252 . S
C291 O295 1.260 . S
O292 In286 2.266 . S
O292 C289 1.252 . S
O293 In286 2.326 . S
O293 C289 1.260 . S
O294 In286 2.266 . S
O294 C291 1.252 . S
O295 In286 2.326 . S
O295 C291 1.260 . S
C296 O287 1.240 . S
C296 O288 1.252 . S
O297 In286 2.294 . S
O297 C290 1.240 . S
O298 In286 2.326 . S
O298 C290 1.252 . S
In299 O300 2.294 . S
In299 O301 2.326 . S
In299 O305 2.266 . S
In299 O306 2.326 . S
In299 O307 2.266 . S
In299 O308 2.326 . S
In299 O310 2.294 . S
In299 O311 2.326 . S
O300 In299 2.294 . S
O300 C309 1.240 . S
O301 In299 2.326 . S
O301 C309 1.252 . S
C302 O305 1.252 . S
C302 O306 1.260 . S
C303 O310 1.240 . S
C303 O311 1.252 . S
C304 O307 1.252 . S
C304 O308 1.260 . S
O305 In299 2.266 . S
O305 C302 1.252 . S
O306 In299 2.326 . S
O306 C302 1.260 . S
O307 In299 2.266 . S
O307 C304 1.252 . S
O308 In299 2.326 . S
O308 C304 1.260 . S
C309 O300 1.240 . S
C309 O301 1.252 . S
O310 In299 2.294 . S
O310 C303 1.240 . S
O311 In299 2.326 . S
O311 C303 1.252 . S
In312 O313 2.294 . S
In312 O314 2.326 . S
In312 O318 2.266 . S
In312 O319 2.326 . S
In312 O320 2.266 . S
In312 O321 2.326 . S
In312 O323 2.294 . S
In312 O324 2.326 . S
O313 In312 2.294 . S
O313 C322 1.240 . S
O314 In312 2.326 . S
O314 C322 1.252 . S
C315 O318 1.252 . S
C315 O319 1.260 . S
C316 O323 1.240 . S
C316 O324 1.252 . S
C317 O320 1.252 . S
C317 O321 1.260 . S
O318 In312 2.266 . S
O318 C315 1.252 . S
O319 In312 2.326 . S
O319 C315 1.260 . S
O320 In312 2.266 . S
O320 C317 1.252 . S
O321 In312 2.326 . S
O321 C317 1.260 . S
C322 O313 1.240 . S
C322 O314 1.252 . S
O323 In312 2.294 . S
O323 C316 1.240 . S
O324 In312 2.326 . S
O324 C316 1.252 . S
In325 O326 2.294 . S
In325 O327 2.326 . S
In325 O331 2.266 . S
In325 O332 2.326 . S
In325 O333 2.266 . S
In325 O334 2.326 . S
In325 O336 2.294 . S
In325 O337 2.326 . S
O326 In325 2.294 . S
O326 C335 1.240 . S
O327 In325 2.326 . S
O327 C335 1.252 . S
C328 O331 1.252 . S
C328 O332 1.260 . S
C329 O336 1.240 . S
C329 O337 1.252 . S
C330 O333 1.252 . S
C330 O334 1.260 . S
O331 In325 2.266 . S
O331 C328 1.252 . S
O332 In325 2.326 . S
O332 C328 1.260 . S
O333 In325 2.266 . S
O333 C330 1.252 . S
O334 In325 2.326 . S
O334 C330 1.260 . S
C335 O326 1.240 . S
C335 O327 1.252 . S
O336 In325 2.294 . S
O336 C329 1.240 . S
O337 In325 2.326 . S
O337 C329 1.252 . S
In338 O339 2.294 . S
In338 O340 2.326 . S
In338 O344 2.266 . S
In338 O345 2.326 . S
In338 O346 2.266 . S
In338 O347 2.326 . S
In338 O349 2.294 . S
In338 O350 2.326 . S
O339 In338 2.294 . S
O339 C348 1.240 . S
O340 In338 2.326 . S
O340 C348 1.252 . S
C341 O344 1.252 . S
C341 O345 1.260 . S
C342 O349 1.240 . S
C342 O350 1.252 . S
C343 O346 1.252 . S
C343 O347 1.260 . S
O344 In338 2.266 . S
O344 C341 1.252 . S
O345 In338 2.326 . S
O345 C341 1.260 . S
O346 In338 2.266 . S
O346 C343 1.252 . S
O347 In338 2.326 . S
O347 C343 1.260 . S
C348 O339 1.240 . S
C348 O340 1.252 . S
O349 In338 2.294 . S
O349 C342 1.240 . S
O350 In338 2.326 . S
O350 C342 1.252 . S
In351 O352 2.294 . S
In351 O353 2.326 . S
In351 O357 2.266 . S
In351 O358 2.326 . S
In351 O359 2.266 . S
In351 O360 2.326 . S
In351 O362 2.294 . S
In351 O363 2.326 . S
O352 In351 2.294 . S
O352 C361 1.240 . S
O353 In351 2.326 . S
O353 C361 1.252 . S
C354 O357 1.252 . S
C354 O358 1.260 . S
C355 O362 1.240 . S
C355 O363 1.252 . S
C356 O359 1.252 . S
C356 O360 1.260 . S
O357 In351 2.266 . S
O357 C354 1.252 . S
O358 In351 2.326 . S
O358 C354 1.260 . S
O359 In351 2.266 . S
O359 C356 1.252 . S
O360 In351 2.326 . S
O360 C356 1.260 . S
C361 O352 1.240 . S
C361 O353 1.252 . S
O362 In351 2.294 . S
O362 C355 1.240 . S
O363 In351 2.326 . S
O363 C355 1.252 . S
In364 O365 2.294 . S
In364 O366 2.326 . S
In364 O370 2.266 . S
In364 O371 2.326 . S
In364 O372 2.266 . S
In364 O373 2.326 . S
In364 O375 2.294 . S
In364 O376 2.326 . S
O365 In364 2.294 . S
O365 C374 1.240 . S
O366 In364 2.326 . S
O366 C374 1.252 . S
C367 O370 1.252 . S
C367 O371 1.260 . S
C368 O375 1.240 . S
C368 O376 1.252 . S
C369 O372 1.252 . S
C369 O373 1.260 . S
O370 In364 2.266 . S
O370 C367 1.252 . S
O371 In364 2.326 . S
O371 C367 1.260 . S
O372 In364 2.266 . S
O372 C369 1.252 . S
O373 In364 2.326 . S
O373 C369 1.260 . S
C374 O365 1.240 . S
C374 O366 1.252 . S
O375 In364 2.294 . S
O375 C368 1.240 . S
O376 In364 2.326 . S
O376 C368 1.252 . S
In377 O378 2.294 . S
In377 O379 2.326 . S
In377 O383 2.266 . S
In377 O384 2.326 . S
In377 O385 2.266 . S
In377 O386 2.326 . S
In377 O388 2.294 . S
In377 O389 2.326 . S
O378 In377 2.294 . S
O378 C387 1.240 . S
O379 In377 2.326 . S
O379 C387 1.252 . S
C380 O383 1.252 . S
C380 O384 1.260 . S
C381 O388 1.240 . S
C381 O389 1.252 . S
C382 O385 1.252 . S
C382 O386 1.260 . S
O383 In377 2.266 . S
O383 C380 1.252 . S
O384 In377 2.326 . S
O384 C380 1.260 . S
O385 In377 2.266 . S
O385 C382 1.252 . S
O386 In377 2.326 . S
O386 C382 1.260 . S
C387 O378 1.240 . S
C387 O379 1.252 . S
O388 In377 2.294 . S
O388 C381 1.240 . S
O389 In377 2.326 . S
O389 C381 1.252 . S
In390 O391 2.294 . S
In390 O392 2.326 . S
In390 O396 2.266 . S
In390 O397 2.326 . S
In390 O398 2.266 . S
In390 O399 2.326 . S
In390 O401 2.294 . S
In390 O402 2.326 . S
O391 In390 2.294 . S
O391 C400 1.240 . S
O392 In390 2.326 . S
O392 C400 1.252 . S
C393 O396 1.252 . S
C393 O397 1.260 . S
C394 O401 1.240 . S
C394 O402 1.252 . S
C395 O398 1.252 . S
C395 O399 1.260 . S
O396 In390 2.266 . S
O396 C393 1.252 . S
O397 In390 2.326 . S
O397 C393 1.260 . S
O398 In390 2.266 . S
O398 C395 1.252 . S
O399 In390 2.326 . S
O399 C395 1.260 . S
C400 O391 1.240 . S
C400 O392 1.252 . S
O401 In390 2.294 . S
O401 C394 1.240 . S
O402 In390 2.326 . S
O402 C394 1.252 . S
In403 O404 2.294 . S
In403 O405 2.326 . S
In403 O409 2.266 . S
In403 O410 2.326 . S
In403 O411 2.266 . S
In403 O412 2.326 . S
In403 O414 2.294 . S
In403 O415 2.326 . S
O404 In403 2.294 . S
O404 C413 1.240 . S
O405 In403 2.326 . S
O405 C413 1.252 . S
C406 O409 1.252 . S
C406 O410 1.260 . S
C407 O414 1.240 . S
C407 O415 1.252 . S
C408 O411 1.252 . S
C408 O412 1.260 . S
O409 In403 2.266 . S
O409 C406 1.252 . S
O410 In403 2.326 . S
O410 C406 1.260 . S
O411 In403 2.266 . S
O411 C408 1.252 . S
O412 In403 2.326 . S
O412 C408 1.260 . S
C413 O404 1.240 . S
C413 O405 1.252 . S
O414 In403 2.294 . S
O414 C407 1.240 . S
O415 In403 2.326 . S
O415 C407 1.252 . S
In416 O417 2.294 . S
In416 O418 2.326 . S
In416 O422 2.266 . S
In416 O423 2.326 . S
In416 O424 2.266 . S
In416 O425 2.326 . S
In416 O427 2.294 . S
In416 O428 2.326 . S
O417 In416 2.294 . S
O417 C426 1.240 . S
O418 In416 2.326 . S
O418 C426 1.252 . S
C419 O422 1.252 . S
C419 O423 1.260 . S
C420 O427 1.240 . S
C420 O428 1.252 . S
C421 O424 1.252 . S
C421 O425 1.260 . S
O422 In416 2.266 . S
O422 C419 1.252 . S
O423 In416 2.326 . S
O423 C419 1.260 . S
O424 In416 2.266 . S
O424 C421 1.252 . S
O425 In416 2.326 . S
O425 C421 1.260 . S
C426 O417 1.240 . S
C426 O418 1.252 . S
O427 In416 2.294 . S
O427 C420 1.240 . S
O428 In416 2.326 . S
O428 C420 1.252 . S
In429 O430 2.294 . S
In429 O431 2.326 . S
In429 O435 2.266 . S
In429 O436 2.326 . S
In429 O437 2.266 . S
In429 O438 2.326 . S
In429 O440 2.294 . S
In429 O441 2.326 . S
O430 In429 2.294 . S
O430 C439 1.240 . S
O431 In429 2.326 . S
O431 C439 1.252 . S
C432 O435 1.252 . S
C432 O436 1.260 . S
C433 O440 1.240 . S
C433 O441 1.252 . S
C434 O437 1.252 . S
C434 O438 1.260 . S
O435 In429 2.266 . S
O435 C432 1.252 . S
O436 In429 2.326 . S
O436 C432 1.260 . S
O437 In429 2.266 . S
O437 C434 1.252 . S
O438 In429 2.326 . S
O438 C434 1.260 . S
C439 O430 1.240 . S
C439 O431 1.252 . S
O440 In429 2.294 . S
O440 C433 1.240 . S
O441 In429 2.326 . S
O441 C433 1.252 . S
In442 O443 2.294 . S
In442 O444 2.326 . S
In442 O448 2.266 . S
In442 O449 2.326 . S
In442 O450 2.266 . S
In442 O451 2.326 . S
In442 O453 2.294 . S
In442 O454 2.326 . S
O443 In442 2.294 . S
O443 C452 1.240 . S
O444 In442 2.326 . S
O444 C452 1.252 . S
C445 O448 1.252 . S
C445 O449 1.260 . S
C446 O453 1.240 . S
C446 O454 1.252 . S
C447 O450 1.252 . S
C447 O451 1.260 . S
O448 In442 2.266 . S
O448 C445 1.252 . S
O449 In442 2.326 . S
O449 C445 1.260 . S
O450 In442 2.266 . S
O450 C447 1.252 . S
O451 In442 2.326 . S
O451 C447 1.260 . S
C452 O443 1.240 . S
C452 O444 1.252 . S
O453 In442 2.294 . S
O453 C446 1.240 . S
O454 In442 2.326 . S
O454 C446 1.252 . S
In455 O456 2.294 . S
In455 O457 2.326 . S
In455 O461 2.266 . S
In455 O462 2.326 . S
In455 O463 2.266 . S
In455 O464 2.326 . S
In455 O466 2.294 . S
In455 O467 2.326 . S
O456 In455 2.294 . S
O456 C465 1.240 . S
O457 In455 2.326 . S
O457 C465 1.252 . S
C458 O461 1.252 . S
C458 O462 1.260 . S
C459 O466 1.240 . S
C459 O467 1.252 . S
C460 O463 1.252 . S
C460 O464 1.260 . S
O461 In455 2.266 . S
O461 C458 1.252 . S
O462 In455 2.326 . S
O462 C458 1.260 . S
O463 In455 2.266 . S
O463 C460 1.252 . S
O464 In455 2.326 . S
O464 C460 1.260 . S
C465 O456 1.240 . S
C465 O457 1.252 . S
O466 In455 2.294 . S
O466 C459 1.240 . S
O467 In455 2.326 . S
O467 C459 1.252 . S
In468 O469 2.294 . S
In468 O470 2.326 . S
In468 O474 2.266 . S
In468 O475 2.326 . S
In468 O476 2.266 . S
In468 O477 2.326 . S
In468 O479 2.294 . S
In468 O480 2.326 . S
O469 In468 2.294 . S
O469 C478 1.240 . S
O470 In468 2.326 . S
O470 C478 1.252 . S
C471 O474 1.252 . S
C471 O475 1.260 . S
C472 O479 1.240 . S
C472 O480 1.252 . S
C473 O476 1.252 . S
C473 O477 1.260 . S
O474 In468 2.266 . S
O474 C471 1.252 . S
O475 In468 2.326 . S
O475 C471 1.260 . S
O476 In468 2.266 . S
O476 C473 1.252 . S
O477 In468 2.326 . S
O477 C473 1.260 . S
C478 O469 1.240 . S
C478 O470 1.252 . S
O479 In468 2.294 . S
O479 C472 1.240 . S
O480 In468 2.326 . S
O480 C472 1.252 . S
In481 O482 2.294 . S
In481 O483 2.326 . S
In481 O487 2.266 . S
In481 O488 2.326 . S
In481 O489 2.266 . S
In481 O490 2.326 . S
In481 O492 2.294 . S
In481 O493 2.326 . S
O482 In481 2.294 . S
O482 C491 1.240 . S
O483 In481 2.326 . S
O483 C491 1.252 . S
C484 O487 1.252 . S
C484 O488 1.260 . S
C485 O492 1.240 . S
C485 O493 1.252 . S
C486 O489 1.252 . S
C486 O490 1.260 . S
O487 In481 2.266 . S
O487 C484 1.252 . S
O488 In481 2.326 . S
O488 C484 1.260 . S
O489 In481 2.266 . S
O489 C486 1.252 . S
O490 In481 2.326 . S
O490 C486 1.260 . S
C491 O482 1.240 . S
C491 O483 1.252 . S
O492 In481 2.294 . S
O492 C485 1.240 . S
O493 In481 2.326 . S
O493 C485 1.252 . S
In494 O495 2.294 . S
In494 O496 2.326 . S
In494 O500 2.266 . S
In494 O501 2.326 . S
In494 O502 2.266 . S
In494 O503 2.326 . S
In494 O505 2.294 . S
In494 O506 2.326 . S
O495 In494 2.294 . S
O495 C504 1.240 . S
O496 In494 2.326 . S
O496 C504 1.252 . S
C497 O500 1.252 . S
C497 O501 1.260 . S
C498 O505 1.240 . S
C498 O506 1.252 . S
C499 O502 1.252 . S
C499 O503 1.260 . S
O500 In494 2.266 . S
O500 C497 1.252 . S
O501 In494 2.326 . S
O501 C497 1.260 . S
O502 In494 2.266 . S
O502 C499 1.252 . S
O503 In494 2.326 . S
O503 C499 1.260 . S
C504 O495 1.240 . S
C504 O496 1.252 . S
O505 In494 2.294 . S
O505 C498 1.240 . S
O506 In494 2.326 . S
O506 C498 1.252 . S
In507 O508 2.294 . S
In507 O509 2.326 . S
In507 O513 2.266 . S
In507 O514 2.326 . S
In507 O515 2.266 . S
In507 O516 2.326 . S
In507 O518 2.294 . S
In507 O519 2.326 . S
O508 In507 2.294 . S
O508 C517 1.240 . S
O509 In507 2.326 . S
O509 C517 1.252 . S
C510 O513 1.252 . S
C510 O514 1.260 . S
C511 O518 1.240 . S
C511 O519 1.252 . S
C512 O515 1.252 . S
C512 O516 1.260 . S
O513 In507 2.266 . S
O513 C510 1.252 . S
O514 In507 2.326 . S
O514 C510 1.260 . S
O515 In507 2.266 . S
O515 C512 1.252 . S
O516 In507 2.326 . S
O516 C512 1.260 . S
C517 O508 1.240 . S
C517 O509 1.252 . S
O518 In507 2.294 . S
O518 C511 1.240 . S
O519 In507 2.326 . S
O519 C511 1.252 . S
In520 O521 2.294 . S
In520 O522 2.326 . S
In520 O526 2.266 . S
In520 O527 2.326 . S
In520 O528 2.266 . S
In520 O529 2.326 . S
In520 O531 2.294 . S
In520 O532 2.326 . S
O521 In520 2.294 . S
O521 C530 1.240 . S
O522 In520 2.326 . S
O522 C530 1.252 . S
C523 O526 1.252 . S
C523 O527 1.260 . S
C524 O531 1.240 . S
C524 O532 1.252 . S
C525 O528 1.252 . S
C525 O529 1.260 . S
O526 In520 2.266 . S
O526 C523 1.252 . S
O527 In520 2.326 . S
O527 C523 1.260 . S
O528 In520 2.266 . S
O528 C525 1.252 . S
O529 In520 2.326 . S
O529 C525 1.260 . S
C530 O521 1.240 . S
C530 O522 1.252 . S
O531 In520 2.294 . S
O531 C524 1.240 . S
O532 In520 2.326 . S
O532 C524 1.252 . S
In533 O534 2.294 . S
In533 O535 2.326 . S
In533 O539 2.266 . S
In533 O540 2.326 . S
In533 O541 2.266 . S
In533 O542 2.326 . S
In533 O544 2.294 . S
In533 O545 2.326 . S
O534 In533 2.294 . S
O534 C543 1.240 . S
O535 In533 2.326 . S
O535 C543 1.252 . S
C536 O539 1.252 . S
C536 O540 1.260 . S
C537 O544 1.240 . S
C537 O545 1.252 . S
C538 O541 1.252 . S
C538 O542 1.260 . S
O539 In533 2.266 . S
O539 C536 1.252 . S
O540 In533 2.326 . S
O540 C536 1.260 . S
O541 In533 2.266 . S
O541 C538 1.252 . S
O542 In533 2.326 . S
O542 C538 1.260 . S
C543 O534 1.240 . S
C543 O535 1.252 . S
O544 In533 2.294 . S
O544 C537 1.240 . S
O545 In533 2.326 . S
O545 C537 1.252 . S
In546 O547 2.294 . S
In546 O548 2.326 . S
In546 O552 2.266 . S
In546 O553 2.326 . S
In546 O554 2.266 . S
In546 O555 2.326 . S
In546 O557 2.294 . S
In546 O558 2.326 . S
O547 In546 2.294 . S
O547 C556 1.240 . S
O548 In546 2.326 . S
O548 C556 1.252 . S
C549 O552 1.252 . S
C549 O553 1.260 . S
C550 O557 1.240 . S
C550 O558 1.252 . S
C551 O554 1.252 . S
C551 O555 1.260 . S
O552 In546 2.266 . S
O552 C549 1.252 . S
O553 In546 2.326 . S
O553 C549 1.260 . S
O554 In546 2.266 . S
O554 C551 1.252 . S
O555 In546 2.326 . S
O555 C551 1.260 . S
C556 O547 1.240 . S
C556 O548 1.252 . S
O557 In546 2.294 . S
O557 C550 1.240 . S
O558 In546 2.326 . S
O558 C550 1.252 . S
In559 O560 2.294 . S
In559 O561 2.326 . S
In559 O565 2.266 . S
In559 O566 2.326 . S
In559 O567 2.266 . S
In559 O568 2.326 . S
In559 O570 2.294 . S
In559 O571 2.326 . S
O560 In559 2.294 . S
O560 C569 1.240 . S
O561 In559 2.326 . S
O561 C569 1.252 . S
C562 O565 1.252 . S
C562 O566 1.260 . S
C563 O570 1.240 . S
C563 O571 1.252 . S
C564 O567 1.252 . S
C564 O568 1.260 . S
O565 In559 2.266 . S
O565 C562 1.252 . S
O566 In559 2.326 . S
O566 C562 1.260 . S
O567 In559 2.266 . S
O567 C564 1.252 . S
O568 In559 2.326 . S
O568 C564 1.260 . S
C569 O560 1.240 . S
C569 O561 1.252 . S
O570 In559 2.294 . S
O570 C563 1.240 . S
O571 In559 2.326 . S
O571 C563 1.252 . S
In572 O573 2.294 . S
In572 O574 2.326 . S
In572 O578 2.266 . S
In572 O579 2.326 . S
In572 O580 2.266 . S
In572 O581 2.326 . S
In572 O583 2.294 . S
In572 O584 2.326 . S
O573 In572 2.294 . S
O573 C582 1.240 . S
O574 In572 2.326 . S
O574 C582 1.252 . S
C575 O578 1.252 . S
C575 O579 1.260 . S
C576 O583 1.240 . S
C576 O584 1.252 . S
C577 O580 1.252 . S
C577 O581 1.260 . S
O578 In572 2.266 . S
O578 C575 1.252 . S
O579 In572 2.326 . S
O579 C575 1.260 . S
O580 In572 2.266 . S
O580 C577 1.252 . S
O581 In572 2.326 . S
O581 C577 1.260 . S
C582 O573 1.240 . S
C582 O574 1.252 . S
O583 In572 2.294 . S
O583 C576 1.240 . S
O584 In572 2.326 . S
O584 C576 1.252 . S
In585 O586 2.294 . S
In585 O587 2.326 . S
In585 O591 2.266 . S
In585 O592 2.326 . S
In585 O593 2.266 . S
In585 O594 2.326 . S
In585 O596 2.294 . S
In585 O597 2.326 . S
O586 In585 2.294 . S
O586 C595 1.240 . S
O587 In585 2.326 . S
O587 C595 1.252 . S
C588 O591 1.252 . S
C588 O592 1.260 . S
C589 O596 1.240 . S
C589 O597 1.252 . S
C590 O593 1.252 . S
C590 O594 1.260 . S
O591 In585 2.266 . S
O591 C588 1.252 . S
O592 In585 2.326 . S
O592 C588 1.260 . S
O593 In585 2.266 . S
O593 C590 1.252 . S
O594 In585 2.326 . S
O594 C590 1.260 . S
C595 O586 1.240 . S
C595 O587 1.252 . S
O596 In585 2.294 . S
O596 C589 1.240 . S
O597 In585 2.326 . S
O597 C589 1.252 . S
In598 O599 2.294 . S
In598 O600 2.326 . S
In598 O604 2.266 . S
In598 O605 2.326 . S
In598 O606 2.266 . S
In598 O607 2.326 . S
In598 O609 2.294 . S
In598 O610 2.326 . S
O599 In598 2.294 . S
O599 C608 1.240 . S
O600 In598 2.326 . S
O600 C608 1.252 . S
C601 O604 1.252 . S
C601 O605 1.260 . S
C602 O609 1.240 . S
C602 O610 1.252 . S
C603 O606 1.252 . S
C603 O607 1.260 . S
O604 In598 2.266 . S
O604 C601 1.252 . S
O605 In598 2.326 . S
O605 C601 1.260 . S
O606 In598 2.266 . S
O606 C603 1.252 . S
O607 In598 2.326 . S
O607 C603 1.260 . S
C608 O599 1.240 . S
C608 O600 1.252 . S
O609 In598 2.294 . S
O609 C602 1.240 . S
O610 In598 2.326 . S
O610 C602 1.252 . S
In611 O612 2.294 . S
In611 O613 2.326 . S
In611 O617 2.266 . S
In611 O618 2.326 . S
In611 O619 2.266 . S
In611 O620 2.326 . S
In611 O622 2.294 . S
In611 O623 2.326 . S
O612 In611 2.294 . S
O612 C621 1.240 . S
O613 In611 2.326 . S
O613 C621 1.252 . S
C614 O617 1.252 . S
C614 O618 1.260 . S
C615 O622 1.240 . S
C615 O623 1.252 . S
C616 O619 1.252 . S
C616 O620 1.260 . S
O617 In611 2.266 . S
O617 C614 1.252 . S
O618 In611 2.326 . S
O618 C614 1.260 . S
O619 In611 2.266 . S
O619 C616 1.252 . S
O620 In611 2.326 . S
O620 C616 1.260 . S
C621 O612 1.240 . S
C621 O613 1.252 . S
O622 In611 2.294 . S
O622 C615 1.240 . S
O623 In611 2.326 . S
O623 C615 1.252 . S
In624 O625 2.294 . S
In624 O626 2.326 . S
In624 O630 2.266 . S
In624 O631 2.326 . S
In624 O632 2.266 . S
In624 O633 2.326 . S
In624 O635 2.294 . S
In624 O636 2.326 . S
O625 In624 2.294 . S
O625 C634 1.240 . S
O626 In624 2.326 . S
O626 C634 1.252 . S
C627 O630 1.252 . S
C627 O631 1.260 . S
C628 O635 1.240 . S
C628 O636 1.252 . S
C629 O632 1.252 . S
C629 O633 1.260 . S
O630 In624 2.266 . S
O630 C627 1.252 . S
O631 In624 2.326 . S
O631 C627 1.260 . S
O632 In624 2.266 . S
O632 C629 1.252 . S
O633 In624 2.326 . S
O633 C629 1.260 . S
C634 O625 1.240 . S
C634 O626 1.252 . S
O635 In624 2.294 . S
O635 C628 1.240 . S
O636 In624 2.326 . S
O636 C628 1.252 . S
In637 O638 2.294 . S
In637 O639 2.326 . S
In637 O643 2.266 . S
In637 O644 2.326 . S
In637 O645 2.266 . S
In637 O646 2.326 . S
In637 O648 2.294 . S
In637 O649 2.326 . S
O638 In637 2.294 . S
O638 C647 1.240 . S
O639 In637 2.326 . S
O639 C647 1.252 . S
C640 O643 1.252 . S
C640 O644 1.260 . S
C641 O648 1.240 . S
C641 O649 1.252 . S
C642 O645 1.252 . S
C642 O646 1.260 . S
O643 In637 2.266 . S
O643 C640 1.252 . S
O644 In637 2.326 . S
O644 C640 1.260 . S
O645 In637 2.266 . S
O645 C642 1.252 . S
O646 In637 2.326 . S
O646 C642 1.260 . S
C647 O638 1.240 . S
C647 O639 1.252 . S
O648 In637 2.294 . S
O648 C641 1.240 . S
O649 In637 2.326 . S
O649 C641 1.252 . S
In650 O651 2.294 . S
In650 O652 2.326 . S
In650 O656 2.266 . S
In650 O657 2.326 . S
In650 O658 2.266 . S
In650 O659 2.326 . S
In650 O661 2.294 . S
In650 O662 2.326 . S
O651 In650 2.294 . S
O651 C660 1.240 . S
O652 In650 2.326 . S
O652 C660 1.252 . S
C653 O656 1.252 . S
C653 O657 1.260 . S
C654 O661 1.240 . S
C654 O662 1.252 . S
C655 O658 1.252 . S
C655 O659 1.260 . S
O656 In650 2.266 . S
O656 C653 1.252 . S
O657 In650 2.326 . S
O657 C653 1.260 . S
O658 In650 2.266 . S
O658 C655 1.252 . S
O659 In650 2.326 . S
O659 C655 1.260 . S
C660 O651 1.240 . S
C660 O652 1.252 . S
O661 In650 2.294 . S
O661 C654 1.240 . S
O662 In650 2.326 . S
O662 C654 1.252 . S
In663 O664 2.294 . S
In663 O665 2.326 . S
In663 O669 2.266 . S
In663 O670 2.326 . S
In663 O671 2.266 . S
In663 O672 2.326 . S
In663 O674 2.294 . S
In663 O675 2.326 . S
O664 In663 2.294 . S
O664 C673 1.240 . S
O665 In663 2.326 . S
O665 C673 1.252 . S
C666 O669 1.252 . S
C666 O670 1.260 . S
C667 O674 1.240 . S
C667 O675 1.252 . S
C668 O671 1.252 . S
C668 O672 1.260 . S
O669 In663 2.266 . S
O669 C666 1.252 . S
O670 In663 2.326 . S
O670 C666 1.260 . S
O671 In663 2.266 . S
O671 C668 1.252 . S
O672 In663 2.326 . S
O672 C668 1.260 . S
C673 O664 1.240 . S
C673 O665 1.252 . S
O674 In663 2.294 . S
O674 C667 1.240 . S
O675 In663 2.326 . S
O675 C667 1.252 . S
In676 O677 2.294 . S
In676 O678 2.326 . S
In676 O682 2.266 . S
In676 O683 2.326 . S
In676 O684 2.266 . S
In676 O685 2.326 . S
In676 O687 2.294 . S
In676 O688 2.326 . S
O677 In676 2.294 . S
O677 C686 1.240 . S
O678 In676 2.326 . S
O678 C686 1.252 . S
C679 O682 1.252 . S
C679 O683 1.260 . S
C680 O687 1.240 . S
C680 O688 1.252 . S
C681 O684 1.252 . S
C681 O685 1.260 . S
O682 In676 2.266 . S
O682 C679 1.252 . S
O683 In676 2.326 . S
O683 C679 1.260 . S
O684 In676 2.266 . S
O684 C681 1.252 . S
O685 In676 2.326 . S
O685 C681 1.260 . S
C686 O677 1.240 . S
C686 O678 1.252 . S
O687 In676 2.294 . S
O687 C680 1.240 . S
O688 In676 2.326 . S
O688 C680 1.252 . S
In689 O690 2.294 . S
In689 O691 2.326 . S
In689 O695 2.266 . S
In689 O696 2.326 . S
In689 O697 2.266 . S
In689 O698 2.326 . S
In689 O700 2.294 . S
In689 O701 2.326 . S
O690 In689 2.294 . S
O690 C699 1.240 . S
O691 In689 2.326 . S
O691 C699 1.252 . S
C692 O695 1.252 . S
C692 O696 1.260 . S
C693 O700 1.240 . S
C693 O701 1.252 . S
C694 O697 1.252 . S
C694 O698 1.260 . S
O695 In689 2.266 . S
O695 C692 1.252 . S
O696 In689 2.326 . S
O696 C692 1.260 . S
O697 In689 2.266 . S
O697 C694 1.252 . S
O698 In689 2.326 . S
O698 C694 1.260 . S
C699 O690 1.240 . S
C699 O691 1.252 . S
O700 In689 2.294 . S
O700 C693 1.240 . S
O701 In689 2.326 . S
O701 C693 1.252 . S
In702 O703 2.294 . S
In702 O704 2.326 . S
In702 O708 2.266 . S
In702 O709 2.326 . S
In702 O710 2.266 . S
In702 O711 2.326 . S
In702 O713 2.294 . S
In702 O714 2.326 . S
O703 In702 2.294 . S
O703 C712 1.240 . S
O704 In702 2.326 . S
O704 C712 1.252 . S
C705 O708 1.252 . S
C705 O709 1.260 . S
C706 O713 1.240 . S
C706 O714 1.252 . S
C707 O710 1.252 . S
C707 O711 1.260 . S
O708 In702 2.266 . S
O708 C705 1.252 . S
O709 In702 2.326 . S
O709 C705 1.260 . S
O710 In702 2.266 . S
O710 C707 1.252 . S
O711 In702 2.326 . S
O711 C707 1.260 . S
C712 O703 1.240 . S
C712 O704 1.252 . S
O713 In702 2.294 . S
O713 C706 1.240 . S
O714 In702 2.326 . S
O714 C706 1.252 . S
In715 O716 2.294 . S
In715 O717 2.326 . S
In715 O721 2.266 . S
In715 O722 2.326 . S
In715 O723 2.266 . S
In715 O724 2.326 . S
In715 O726 2.294 . S
In715 O727 2.326 . S
O716 In715 2.294 . S
O716 C725 1.240 . S
O717 In715 2.326 . S
O717 C725 1.252 . S
C718 O721 1.252 . S
C718 O722 1.260 . S
C719 O726 1.240 . S
C719 O727 1.252 . S
C720 O723 1.252 . S
C720 O724 1.260 . S
O721 In715 2.266 . S
O721 C718 1.252 . S
O722 In715 2.326 . S
O722 C718 1.260 . S
O723 In715 2.266 . S
O723 C720 1.252 . S
O724 In715 2.326 . S
O724 C720 1.260 . S
C725 O716 1.240 . S
C725 O717 1.252 . S
O726 In715 2.294 . S
O726 C719 1.240 . S
O727 In715 2.326 . S
O727 C719 1.252 . S
In728 O729 2.294 . S
In728 O730 2.326 . S
In728 O734 2.266 . S
In728 O735 2.326 . S
In728 O736 2.266 . S
In728 O737 2.326 . S
In728 O739 2.294 . S
In728 O740 2.326 . S
O729 In728 2.294 . S
O729 C738 1.240 . S
O730 In728 2.326 . S
O730 C738 1.252 . S
C731 O734 1.252 . S
C731 O735 1.260 . S
C732 O739 1.240 . S
C732 O740 1.252 . S
C733 O736 1.252 . S
C733 O737 1.260 . S
O734 In728 2.266 . S
O734 C731 1.252 . S
O735 In728 2.326 . S
O735 C731 1.260 . S
O736 In728 2.266 . S
O736 C733 1.252 . S
O737 In728 2.326 . S
O737 C733 1.260 . S
C738 O729 1.240 . S
C738 O730 1.252 . S
O739 In728 2.294 . S
O739 C732 1.240 . S
O740 In728 2.326 . S
O740 C732 1.252 . S
In741 O742 2.294 . S
In741 O743 2.326 . S
In741 O747 2.266 . S
In741 O748 2.326 . S
In741 O749 2.266 . S
In741 O750 2.326 . S
In741 O752 2.294 . S
In741 O753 2.326 . S
O742 In741 2.294 . S
O742 C751 1.240 . S
O743 In741 2.326 . S
O743 C751 1.252 . S
C744 O747 1.252 . S
C744 O748 1.260 . S
C745 O752 1.240 . S
C745 O753 1.252 . S
C746 O749 1.252 . S
C746 O750 1.260 . S
O747 In741 2.266 . S
O747 C744 1.252 . S
O748 In741 2.326 . S
O748 C744 1.260 . S
O749 In741 2.266 . S
O749 C746 1.252 . S
O750 In741 2.326 . S
O750 C746 1.260 . S
C751 O742 1.240 . S
C751 O743 1.252 . S
O752 In741 2.294 . S
O752 C745 1.240 . S
O753 In741 2.326 . S
O753 C745 1.252 . S
In754 O755 2.294 . S
In754 O756 2.326 . S
In754 O760 2.266 . S
In754 O761 2.326 . S
In754 O762 2.266 . S
In754 O763 2.326 . S
In754 O765 2.294 . S
In754 O766 2.326 . S
O755 In754 2.294 . S
O755 C764 1.240 . S
O756 In754 2.326 . S
O756 C764 1.252 . S
C757 O760 1.252 . S
C757 O761 1.260 . S
C758 O765 1.240 . S
C758 O766 1.252 . S
C759 O762 1.252 . S
C759 O763 1.260 . S
O760 In754 2.266 . S
O760 C757 1.252 . S
O761 In754 2.326 . S
O761 C757 1.260 . S
O762 In754 2.266 . S
O762 C759 1.252 . S
O763 In754 2.326 . S
O763 C759 1.260 . S
C764 O755 1.240 . S
C764 O756 1.252 . S
O765 In754 2.294 . S
O765 C758 1.240 . S
O766 In754 2.326 . S
O766 C758 1.252 . S
In767 O768 2.294 . S
In767 O769 2.326 . S
In767 O773 2.266 . S
In767 O774 2.326 . S
In767 O775 2.266 . S
In767 O776 2.326 . S
In767 O778 2.294 . S
In767 O779 2.326 . S
O768 In767 2.294 . S
O768 C777 1.240 . S
O769 In767 2.326 . S
O769 C777 1.252 . S
C770 O773 1.252 . S
C770 O774 1.260 . S
C771 O778 1.240 . S
C771 O779 1.252 . S
C772 O775 1.252 . S
C772 O776 1.260 . S
O773 In767 2.266 . S
O773 C770 1.252 . S
O774 In767 2.326 . S
O774 C770 1.260 . S
O775 In767 2.266 . S
O775 C772 1.252 . S
O776 In767 2.326 . S
O776 C772 1.260 . S
C777 O768 1.240 . S
C777 O769 1.252 . S
O778 In767 2.294 . S
O778 C771 1.240 . S
O779 In767 2.326 . S
O779 C771 1.252 . S
In780 O781 2.294 . S
In780 O782 2.326 . S
In780 O786 2.266 . S
In780 O787 2.326 . S
In780 O788 2.266 . S
In780 O789 2.326 . S
In780 O791 2.294 . S
In780 O792 2.326 . S
O781 In780 2.294 . S
O781 C790 1.240 . S
O782 In780 2.326 . S
O782 C790 1.252 . S
C783 O786 1.252 . S
C783 O787 1.260 . S
C784 O791 1.240 . S
C784 O792 1.252 . S
C785 O788 1.252 . S
C785 O789 1.260 . S
O786 In780 2.266 . S
O786 C783 1.252 . S
O787 In780 2.326 . S
O787 C783 1.260 . S
O788 In780 2.266 . S
O788 C785 1.252 . S
O789 In780 2.326 . S
O789 C785 1.260 . S
C790 O781 1.240 . S
C790 O782 1.252 . S
O791 In780 2.294 . S
O791 C784 1.240 . S
O792 In780 2.326 . S
O792 C784 1.252 . S
In793 O794 2.294 . S
In793 O795 2.326 . S
In793 O799 2.266 . S
In793 O800 2.326 . S
In793 O801 2.266 . S
In793 O802 2.326 . S
In793 O804 2.294 . S
In793 O805 2.326 . S
O794 In793 2.294 . S
O794 C803 1.240 . S
O795 In793 2.326 . S
O795 C803 1.252 . S
C796 O799 1.252 . S
C796 O800 1.260 . S
C797 O804 1.240 . S
C797 O805 1.252 . S
C798 O801 1.252 . S
C798 O802 1.260 . S
O799 In793 2.266 . S
O799 C796 1.252 . S
O800 In793 2.326 . S
O800 C796 1.260 . S
O801 In793 2.266 . S
O801 C798 1.252 . S
O802 In793 2.326 . S
O802 C798 1.260 . S
C803 O794 1.240 . S
C803 O795 1.252 . S
O804 In793 2.294 . S
O804 C797 1.240 . S
O805 In793 2.326 . S
O805 C797 1.252 . S
In806 O807 2.294 . S
In806 O808 2.326 . S
In806 O812 2.266 . S
In806 O813 2.326 . S
In806 O814 2.266 . S
In806 O815 2.326 . S
In806 O817 2.294 . S
In806 O818 2.326 . S
O807 In806 2.294 . S
O807 C816 1.240 . S
O808 In806 2.326 . S
O808 C816 1.252 . S
C809 O812 1.252 . S
C809 O813 1.260 . S
C810 O817 1.240 . S
C810 O818 1.252 . S
C811 O814 1.252 . S
C811 O815 1.260 . S
O812 In806 2.266 . S
O812 C809 1.252 . S
O813 In806 2.326 . S
O813 C809 1.260 . S
O814 In806 2.266 . S
O814 C811 1.252 . S
O815 In806 2.326 . S
O815 C811 1.260 . S
C816 O807 1.240 . S
C816 O808 1.252 . S
O817 In806 2.294 . S
O817 C810 1.240 . S
O818 In806 2.326 . S
O818 C810 1.252 . S
In819 O820 2.294 . S
In819 O821 2.326 . S
In819 O825 2.266 . S
In819 O826 2.326 . S
In819 O827 2.266 . S
In819 O828 2.326 . S
In819 O830 2.294 . S
In819 O831 2.326 . S
O820 In819 2.294 . S
O820 C829 1.240 . S
O821 In819 2.326 . S
O821 C829 1.252 . S
C822 O825 1.252 . S
C822 O826 1.260 . S
C823 O830 1.240 . S
C823 O831 1.252 . S
C824 O827 1.252 . S
C824 O828 1.260 . S
O825 In819 2.266 . S
O825 C822 1.252 . S
O826 In819 2.326 . S
O826 C822 1.260 . S
O827 In819 2.266 . S
O827 C824 1.252 . S
O828 In819 2.326 . S
O828 C824 1.260 . S
C829 O820 1.240 . S
C829 O821 1.252 . S
O830 In819 2.294 . S
O830 C823 1.240 . S
O831 In819 2.326 . S
O831 C823 1.252 . S
In832 O833 2.294 . S
In832 O834 2.326 . S
In832 O838 2.266 . S
In832 O839 2.326 . S
In832 O840 2.266 . S
In832 O841 2.326 . S
In832 O843 2.294 . S
In832 O844 2.326 . S
O833 In832 2.294 . S
O833 C842 1.240 . S
O834 In832 2.326 . S
O834 C842 1.252 . S
C835 O838 1.252 . S
C835 O839 1.260 . S
C836 O843 1.240 . S
C836 O844 1.252 . S
C837 O840 1.252 . S
C837 O841 1.260 . S
O838 In832 2.266 . S
O838 C835 1.252 . S
O839 In832 2.326 . S
O839 C835 1.260 . S
O840 In832 2.266 . S
O840 C837 1.252 . S
O841 In832 2.326 . S
O841 C837 1.260 . S
C842 O833 1.240 . S
C842 O834 1.252 . S
O843 In832 2.294 . S
O843 C836 1.240 . S
O844 In832 2.326 . S
O844 C836 1.252 . S
In845 O846 2.294 . S
In845 O847 2.326 . S
In845 O851 2.266 . S
In845 O852 2.326 . S
In845 O853 2.266 . S
In845 O854 2.326 . S
In845 O856 2.294 . S
In845 O857 2.326 . S
O846 In845 2.294 . S
O846 C855 1.240 . S
O847 In845 2.326 . S
O847 C855 1.252 . S
C848 O851 1.252 . S
C848 O852 1.260 . S
C849 O856 1.240 . S
C849 O857 1.252 . S
C850 O853 1.252 . S
C850 O854 1.260 . S
O851 In845 2.266 . S
O851 C848 1.252 . S
O852 In845 2.326 . S
O852 C848 1.260 . S
O853 In845 2.266 . S
O853 C850 1.252 . S
O854 In845 2.326 . S
O854 C850 1.260 . S
C855 O846 1.240 . S
C855 O847 1.252 . S
O856 In845 2.294 . S
O856 C849 1.240 . S
O857 In845 2.326 . S
O857 C849 1.252 . S
In858 O859 2.294 . S
In858 O860 2.326 . S
In858 O864 2.266 . S
In858 O865 2.326 . S
In858 O866 2.266 . S
In858 O867 2.326 . S
In858 O869 2.294 . S
In858 O870 2.326 . S
O859 In858 2.294 . S
O859 C868 1.240 . S
O860 In858 2.326 . S
O860 C868 1.252 . S
C861 O864 1.252 . S
C861 O865 1.260 . S
C862 O869 1.240 . S
C862 O870 1.252 . S
C863 O866 1.252 . S
C863 O867 1.260 . S
O864 In858 2.266 . S
O864 C861 1.252 . S
O865 In858 2.326 . S
O865 C861 1.260 . S
O866 In858 2.266 . S
O866 C863 1.252 . S
O867 In858 2.326 . S
O867 C863 1.260 . S
C868 O859 1.240 . S
C868 O860 1.252 . S
O869 In858 2.294 . S
O869 C862 1.240 . S
O870 In858 2.326 . S
O870 C862 1.252 . S
In871 O872 2.294 . S
In871 O873 2.326 . S
In871 O877 2.266 . S
In871 O878 2.326 . S
In871 O879 2.266 . S
In871 O880 2.326 . S
In871 O882 2.294 . S
In871 O883 2.326 . S
O872 In871 2.294 . S
O872 C881 1.240 . S
O873 In871 2.326 . S
O873 C881 1.252 . S
C874 O877 1.252 . S
C874 O878 1.260 . S
C875 O882 1.240 . S
C875 O883 1.252 . S
C876 O879 1.252 . S
C876 O880 1.260 . S
O877 In871 2.266 . S
O877 C874 1.252 . S
O878 In871 2.326 . S
O878 C874 1.260 . S
O879 In871 2.266 . S
O879 C876 1.252 . S
O880 In871 2.326 . S
O880 C876 1.260 . S
C881 O872 1.240 . S
C881 O873 1.252 . S
O882 In871 2.294 . S
O882 C875 1.240 . S
O883 In871 2.326 . S
O883 C875 1.252 . S
In884 O885 2.294 . S
In884 O886 2.326 . S
In884 O890 2.266 . S
In884 O891 2.326 . S
In884 O892 2.266 . S
In884 O893 2.326 . S
In884 O895 2.294 . S
In884 O896 2.326 . S
O885 In884 2.294 . S
O885 C894 1.240 . S
O886 In884 2.326 . S
O886 C894 1.252 . S
C887 O890 1.252 . S
C887 O891 1.260 . S
C888 O895 1.240 . S
C888 O896 1.252 . S
C889 O892 1.252 . S
C889 O893 1.260 . S
O890 In884 2.266 . S
O890 C887 1.252 . S
O891 In884 2.326 . S
O891 C887 1.260 . S
O892 In884 2.266 . S
O892 C889 1.252 . S
O893 In884 2.326 . S
O893 C889 1.260 . S
C894 O885 1.240 . S
C894 O886 1.252 . S
O895 In884 2.294 . S
O895 C888 1.240 . S
O896 In884 2.326 . S
O896 C888 1.252 . S
In897 O898 2.294 . S
In897 O899 2.326 . S
In897 O903 2.266 . S
In897 O904 2.326 . S
In897 O905 2.266 . S
In897 O906 2.326 . S
In897 O908 2.294 . S
In897 O909 2.326 . S
O898 In897 2.294 . S
O898 C907 1.240 . S
O899 In897 2.326 . S
O899 C907 1.252 . S
C900 O903 1.252 . S
C900 O904 1.260 . S
C901 O908 1.240 . S
C901 O909 1.252 . S
C902 O905 1.252 . S
C902 O906 1.260 . S
O903 In897 2.266 . S
O903 C900 1.252 . S
O904 In897 2.326 . S
O904 C900 1.260 . S
O905 In897 2.266 . S
O905 C902 1.252 . S
O906 In897 2.326 . S
O906 C902 1.260 . S
C907 O898 1.240 . S
C907 O899 1.252 . S
O908 In897 2.294 . S
O908 C901 1.240 . S
O909 In897 2.326 . S
O909 C901 1.252 . S
In910 O911 2.294 . S
In910 O912 2.326 . S
In910 O916 2.266 . S
In910 O917 2.326 . S
In910 O918 2.266 . S
In910 O919 2.326 . S
In910 O921 2.294 . S
In910 O922 2.326 . S
O911 In910 2.294 . S
O911 C920 1.240 . S
O912 In910 2.326 . S
O912 C920 1.252 . S
C913 O916 1.252 . S
C913 O917 1.260 . S
C914 O921 1.240 . S
C914 O922 1.252 . S
C915 O918 1.252 . S
C915 O919 1.260 . S
O916 In910 2.266 . S
O916 C913 1.252 . S
O917 In910 2.326 . S
O917 C913 1.260 . S
O918 In910 2.266 . S
O918 C915 1.252 . S
O919 In910 2.326 . S
O919 C915 1.260 . S
C920 O911 1.240 . S
C920 O912 1.252 . S
O921 In910 2.294 . S
O921 C914 1.240 . S
O922 In910 2.326 . S
O922 C914 1.252 . S
In923 O924 2.294 . S
In923 O925 2.326 . S
In923 O929 2.266 . S
In923 O930 2.326 . S
In923 O931 2.266 . S
In923 O932 2.326 . S
In923 O934 2.294 . S
In923 O935 2.326 . S
O924 In923 2.294 . S
O924 C933 1.240 . S
O925 In923 2.326 . S
O925 C933 1.252 . S
C926 O929 1.252 . S
C926 O930 1.260 . S
C927 O934 1.240 . S
C927 O935 1.252 . S
C928 O931 1.252 . S
C928 O932 1.260 . S
O929 In923 2.266 . S
O929 C926 1.252 . S
O930 In923 2.326 . S
O930 C926 1.260 . S
O931 In923 2.266 . S
O931 C928 1.252 . S
O932 In923 2.326 . S
O932 C928 1.260 . S
C933 O924 1.240 . S
C933 O925 1.252 . S
O934 In923 2.294 . S
O934 C927 1.240 . S
O935 In923 2.326 . S
O935 C927 1.252 . S
In936 O937 2.294 . S
In936 O938 2.326 . S
In936 O942 2.266 . S
In936 O943 2.326 . S
In936 O944 2.266 . S
In936 O945 2.326 . S
In936 O947 2.294 . S
In936 O948 2.326 . S
O937 In936 2.294 . S
O937 C946 1.240 . S
O938 In936 2.326 . S
O938 C946 1.252 . S
C939 O942 1.252 . S
C939 O943 1.260 . S
C940 O947 1.240 . S
C940 O948 1.252 . S
C941 O944 1.252 . S
C941 O945 1.260 . S
O942 In936 2.266 . S
O942 C939 1.252 . S
O943 In936 2.326 . S
O943 C939 1.260 . S
O944 In936 2.266 . S
O944 C941 1.252 . S
O945 In936 2.326 . S
O945 C941 1.260 . S
C946 O937 1.240 . S
C946 O938 1.252 . S
O947 In936 2.294 . S
O947 C940 1.240 . S
O948 In936 2.326 . S
O948 C940 1.252 . S
In949 O950 2.294 . S
In949 O951 2.326 . S
In949 O955 2.266 . S
In949 O956 2.326 . S
In949 O957 2.266 . S
In949 O958 2.326 . S
In949 O960 2.294 . S
In949 O961 2.326 . S
O950 In949 2.294 . S
O950 C959 1.240 . S
O951 In949 2.326 . S
O951 C959 1.252 . S
C952 O955 1.252 . S
C952 O956 1.260 . S
C953 O960 1.240 . S
C953 O961 1.252 . S
C954 O957 1.252 . S
C954 O958 1.260 . S
O955 In949 2.266 . S
O955 C952 1.252 . S
O956 In949 2.326 . S
O956 C952 1.260 . S
O957 In949 2.266 . S
O957 C954 1.252 . S
O958 In949 2.326 . S
O958 C954 1.260 . S
C959 O950 1.240 . S
C959 O951 1.252 . S
O960 In949 2.294 . S
O960 C953 1.240 . S
O961 In949 2.326 . S
O961 C953 1.252 . S
In962 O963 2.294 . S
In962 O964 2.326 . S
In962 O968 2.266 . S
In962 O969 2.326 . S
In962 O970 2.266 . S
In962 O971 2.326 . S
In962 O973 2.294 . S
In962 O974 2.326 . S
O963 In962 2.294 . S
O963 C972 1.240 . S
O964 In962 2.326 . S
O964 C972 1.252 . S
C965 O968 1.252 . S
C965 O969 1.260 . S
C966 O973 1.240 . S
C966 O974 1.252 . S
C967 O970 1.252 . S
C967 O971 1.260 . S
O968 In962 2.266 . S
O968 C965 1.252 . S
O969 In962 2.326 . S
O969 C965 1.260 . S
O970 In962 2.266 . S
O970 C967 1.252 . S
O971 In962 2.326 . S
O971 C967 1.260 . S
C972 O963 1.240 . S
C972 O964 1.252 . S
O973 In962 2.294 . S
O973 C966 1.240 . S
O974 In962 2.326 . S
O974 C966 1.252 . S
In975 O976 2.294 . S
In975 O977 2.326 . S
In975 O981 2.266 . S
In975 O982 2.326 . S
In975 O983 2.266 . S
In975 O984 2.326 . S
In975 O986 2.294 . S
In975 O987 2.326 . S
O976 In975 2.294 . S
O976 C985 1.240 . S
O977 In975 2.326 . S
O977 C985 1.252 . S
C978 O981 1.252 . S
C978 O982 1.260 . S
C979 O986 1.240 . S
C979 O987 1.252 . S
C980 O983 1.252 . S
C980 O984 1.260 . S
O981 In975 2.266 . S
O981 C978 1.252 . S
O982 In975 2.326 . S
O982 C978 1.260 . S
O983 In975 2.266 . S
O983 C980 1.252 . S
O984 In975 2.326 . S
O984 C980 1.260 . S
C985 O976 1.240 . S
C985 O977 1.252 . S
O986 In975 2.294 . S
O986 C979 1.240 . S
O987 In975 2.326 . S
O987 C979 1.252 . S
In988 O989 2.294 . S
In988 O990 2.326 . S
In988 O994 2.266 . S
In988 O995 2.326 . S
In988 O996 2.266 . S
In988 O997 2.326 . S
In988 O999 2.294 . S
In988 O1000 2.326 . S
O989 In988 2.294 . S
O989 C998 1.240 . S
O990 In988 2.326 . S
O990 C998 1.252 . S
C991 O994 1.252 . S
C991 O995 1.260 . S
C992 O999 1.240 . S
C992 O1000 1.252 . S
C993 O996 1.252 . S
C993 O997 1.260 . S
O994 In988 2.266 . S
O994 C991 1.252 . S
O995 In988 2.326 . S
O995 C991 1.260 . S
O996 In988 2.266 . S
O996 C993 1.252 . S
O997 In988 2.326 . S
O997 C993 1.260 . S
C998 O989 1.240 . S
C998 O990 1.252 . S
O999 In988 2.294 . S
O999 C992 1.240 . S
O1000 In988 2.326 . S
O1000 C992 1.252 . S
In1001 O1002 2.294 . S
In1001 O1003 2.326 . S
In1001 O1007 2.266 . S
In1001 O1008 2.326 . S
In1001 O1009 2.266 . S
In1001 O1010 2.326 . S
In1001 O1012 2.294 . S
In1001 O1013 2.326 . S
O1002 In1001 2.294 . S
O1002 C1011 1.240 . S
O1003 In1001 2.326 . S
O1003 C1011 1.252 . S
C1004 O1007 1.252 . S
C1004 O1008 1.260 . S
C1005 O1012 1.240 . S
C1005 O1013 1.252 . S
C1006 O1009 1.252 . S
C1006 O1010 1.260 . S
O1007 In1001 2.266 . S
O1007 C1004 1.252 . S
O1008 In1001 2.326 . S
O1008 C1004 1.260 . S
O1009 In1001 2.266 . S
O1009 C1006 1.252 . S
O1010 In1001 2.326 . S
O1010 C1006 1.260 . S
C1011 O1002 1.240 . S
C1011 O1003 1.252 . S
O1012 In1001 2.294 . S
O1012 C1005 1.240 . S
O1013 In1001 2.326 . S
O1013 C1005 1.252 . S
In1014 O1015 2.294 . S
In1014 O1016 2.326 . S
In1014 O1020 2.266 . S
In1014 O1021 2.326 . S
In1014 O1022 2.266 . S
In1014 O1023 2.326 . S
In1014 O1025 2.294 . S
In1014 O1026 2.326 . S
O1015 In1014 2.294 . S
O1015 C1024 1.240 . S
O1016 In1014 2.326 . S
O1016 C1024 1.252 . S
C1017 O1020 1.252 . S
C1017 O1021 1.260 . S
C1018 O1025 1.240 . S
C1018 O1026 1.252 . S
C1019 O1022 1.252 . S
C1019 O1023 1.260 . S
O1020 In1014 2.266 . S
O1020 C1017 1.252 . S
O1021 In1014 2.326 . S
O1021 C1017 1.260 . S
O1022 In1014 2.266 . S
O1022 C1019 1.252 . S
O1023 In1014 2.326 . S
O1023 C1019 1.260 . S
C1024 O1015 1.240 . S
C1024 O1016 1.252 . S
O1025 In1014 2.294 . S
O1025 C1018 1.240 . S
O1026 In1014 2.326 . S
O1026 C1018 1.252 . S
In1027 O1028 2.294 . S
In1027 O1029 2.326 . S
In1027 O1033 2.266 . S
In1027 O1034 2.326 . S
In1027 O1035 2.266 . S
In1027 O1036 2.326 . S
In1027 O1038 2.294 . S
In1027 O1039 2.326 . S
O1028 In1027 2.294 . S
O1028 C1037 1.240 . S
O1029 In1027 2.326 . S
O1029 C1037 1.252 . S
C1030 O1033 1.252 . S
C1030 O1034 1.260 . S
C1031 O1038 1.240 . S
C1031 O1039 1.252 . S
C1032 O1035 1.252 . S
C1032 O1036 1.260 . S
O1033 In1027 2.266 . S
O1033 C1030 1.252 . S
O1034 In1027 2.326 . S
O1034 C1030 1.260 . S
O1035 In1027 2.266 . S
O1035 C1032 1.252 . S
O1036 In1027 2.326 . S
O1036 C1032 1.260 . S
C1037 O1028 1.240 . S
C1037 O1029 1.252 . S
O1038 In1027 2.294 . S
O1038 C1031 1.240 . S
O1039 In1027 2.326 . S
O1039 C1031 1.252 . S
In1040 O1041 2.294 . S
In1040 O1042 2.326 . S
In1040 O1046 2.266 . S
In1040 O1047 2.326 . S
In1040 O1048 2.266 . S
In1040 O1049 2.326 . S
In1040 O1051 2.294 . S
In1040 O1052 2.326 . S
O1041 In1040 2.294 . S
O1041 C1050 1.240 . S
O1042 In1040 2.326 . S
O1042 C1050 1.252 . S
C1043 O1046 1.252 . S
C1043 O1047 1.260 . S
C1044 O1051 1.240 . S
C1044 O1052 1.252 . S
C1045 O1048 1.252 . S
C1045 O1049 1.260 . S
O1046 In1040 2.266 . S
O1046 C1043 1.252 . S
O1047 In1040 2.326 . S
O1047 C1043 1.260 . S
O1048 In1040 2.266 . S
O1048 C1045 1.252 . S
O1049 In1040 2.326 . S
O1049 C1045 1.260 . S
C1050 O1041 1.240 . S
C1050 O1042 1.252 . S
O1051 In1040 2.294 . S
O1051 C1044 1.240 . S
O1052 In1040 2.326 . S
O1052 C1044 1.252 . S
In1053 O1054 2.294 . S
In1053 O1055 2.326 . S
In1053 O1059 2.266 . S
In1053 O1060 2.326 . S
In1053 O1061 2.266 . S
In1053 O1062 2.326 . S
In1053 O1064 2.294 . S
In1053 O1065 2.326 . S
O1054 In1053 2.294 . S
O1054 C1063 1.240 . S
O1055 In1053 2.326 . S
O1055 C1063 1.252 . S
C1056 O1059 1.252 . S
C1056 O1060 1.260 . S
C1057 O1064 1.240 . S
C1057 O1065 1.252 . S
C1058 O1061 1.252 . S
C1058 O1062 1.260 . S
O1059 In1053 2.266 . S
O1059 C1056 1.252 . S
O1060 In1053 2.326 . S
O1060 C1056 1.260 . S
O1061 In1053 2.266 . S
O1061 C1058 1.252 . S
O1062 In1053 2.326 . S
O1062 C1058 1.260 . S
C1063 O1054 1.240 . S
C1063 O1055 1.252 . S
O1064 In1053 2.294 . S
O1064 C1057 1.240 . S
O1065 In1053 2.326 . S
O1065 C1057 1.252 . S
In1066 O1067 2.294 . S
In1066 O1068 2.326 . S
In1066 O1072 2.266 . S
In1066 O1073 2.326 . S
In1066 O1074 2.266 . S
In1066 O1075 2.326 . S
In1066 O1077 2.294 . S
In1066 O1078 2.326 . S
O1067 In1066 2.294 . S
O1067 C1076 1.240 . S
O1068 In1066 2.326 . S
O1068 C1076 1.252 . S
C1069 O1072 1.252 . S
C1069 O1073 1.260 . S
C1070 O1077 1.240 . S
C1070 O1078 1.252 . S
C1071 O1074 1.252 . S
C1071 O1075 1.260 . S
O1072 In1066 2.266 . S
O1072 C1069 1.252 . S
O1073 In1066 2.326 . S
O1073 C1069 1.260 . S
O1074 In1066 2.266 . S
O1074 C1071 1.252 . S
O1075 In1066 2.326 . S
O1075 C1071 1.260 . S
C1076 O1067 1.240 . S
C1076 O1068 1.252 . S
O1077 In1066 2.294 . S
O1077 C1070 1.240 . S
O1078 In1066 2.326 . S
O1078 C1070 1.252 . S
In1079 O1080 2.294 . S
In1079 O1081 2.326 . S
In1079 O1085 2.266 . S
In1079 O1086 2.326 . S
In1079 O1087 2.266 . S
In1079 O1088 2.326 . S
In1079 O1090 2.294 . S
In1079 O1091 2.326 . S
O1080 In1079 2.294 . S
O1080 C1089 1.240 . S
O1081 In1079 2.326 . S
O1081 C1089 1.252 . S
C1082 O1085 1.252 . S
C1082 O1086 1.260 . S
C1083 O1090 1.240 . S
C1083 O1091 1.252 . S
C1084 O1087 1.252 . S
C1084 O1088 1.260 . S
O1085 In1079 2.266 . S
O1085 C1082 1.252 . S
O1086 In1079 2.326 . S
O1086 C1082 1.260 . S
O1087 In1079 2.266 . S
O1087 C1084 1.252 . S
O1088 In1079 2.326 . S
O1088 C1084 1.260 . S
C1089 O1080 1.240 . S
C1089 O1081 1.252 . S
O1090 In1079 2.294 . S
O1090 C1083 1.240 . S
O1091 In1079 2.326 . S
O1091 C1083 1.252 . S
In1092 O1093 2.294 . S
In1092 O1094 2.326 . S
In1092 O1098 2.266 . S
In1092 O1099 2.326 . S
In1092 O1100 2.266 . S
In1092 O1101 2.326 . S
In1092 O1103 2.294 . S
In1092 O1104 2.326 . S
O1093 In1092 2.294 . S
O1093 C1102 1.240 . S
O1094 In1092 2.326 . S
O1094 C1102 1.252 . S
C1095 O1098 1.252 . S
C1095 O1099 1.260 . S
C1096 O1103 1.240 . S
C1096 O1104 1.252 . S
C1097 O1100 1.252 . S
C1097 O1101 1.260 . S
O1098 In1092 2.266 . S
O1098 C1095 1.252 . S
O1099 In1092 2.326 . S
O1099 C1095 1.260 . S
O1100 In1092 2.266 . S
O1100 C1097 1.252 . S
O1101 In1092 2.326 . S
O1101 C1097 1.260 . S
C1102 O1093 1.240 . S
C1102 O1094 1.252 . S
O1103 In1092 2.294 . S
O1103 C1096 1.240 . S
O1104 In1092 2.326 . S
O1104 C1096 1.252 . S
In1105 O1106 2.294 . S
In1105 O1107 2.326 . S
In1105 O1111 2.266 . S
In1105 O1112 2.326 . S
In1105 O1113 2.266 . S
In1105 O1114 2.326 . S
In1105 O1116 2.294 . S
In1105 O1117 2.326 . S
O1106 In1105 2.294 . S
O1106 C1115 1.240 . S
O1107 In1105 2.326 . S
O1107 C1115 1.252 . S
C1108 O1111 1.252 . S
C1108 O1112 1.260 . S
C1109 O1116 1.240 . S
C1109 O1117 1.252 . S
C1110 O1113 1.252 . S
C1110 O1114 1.260 . S
O1111 In1105 2.266 . S
O1111 C1108 1.252 . S
O1112 In1105 2.326 . S
O1112 C1108 1.260 . S
O1113 In1105 2.266 . S
O1113 C1110 1.252 . S
O1114 In1105 2.326 . S
O1114 C1110 1.260 . S
C1115 O1106 1.240 . S
C1115 O1107 1.252 . S
O1116 In1105 2.294 . S
O1116 C1109 1.240 . S
O1117 In1105 2.326 . S
O1117 C1109 1.252 . S
In1118 O1119 2.294 . S
In1118 O1120 2.326 . S
In1118 O1124 2.266 . S
In1118 O1125 2.326 . S
In1118 O1126 2.266 . S
In1118 O1127 2.326 . S
In1118 O1129 2.294 . S
In1118 O1130 2.326 . S
O1119 In1118 2.294 . S
O1119 C1128 1.240 . S
O1120 In1118 2.326 . S
O1120 C1128 1.252 . S
C1121 O1124 1.252 . S
C1121 O1125 1.260 . S
C1122 O1129 1.240 . S
C1122 O1130 1.252 . S
C1123 O1126 1.252 . S
C1123 O1127 1.260 . S
O1124 In1118 2.266 . S
O1124 C1121 1.252 . S
O1125 In1118 2.326 . S
O1125 C1121 1.260 . S
O1126 In1118 2.266 . S
O1126 C1123 1.252 . S
O1127 In1118 2.326 . S
O1127 C1123 1.260 . S
C1128 O1119 1.240 . S
C1128 O1120 1.252 . S
O1129 In1118 2.294 . S
O1129 C1122 1.240 . S
O1130 In1118 2.326 . S
O1130 C1122 1.252 . S
In1131 O1132 2.294 . S
In1131 O1133 2.326 . S
In1131 O1137 2.266 . S
In1131 O1138 2.326 . S
In1131 O1139 2.266 . S
In1131 O1140 2.326 . S
In1131 O1142 2.294 . S
In1131 O1143 2.326 . S
O1132 In1131 2.294 . S
O1132 C1141 1.240 . S
O1133 In1131 2.326 . S
O1133 C1141 1.252 . S
C1134 O1137 1.252 . S
C1134 O1138 1.260 . S
C1135 O1142 1.240 . S
C1135 O1143 1.252 . S
C1136 O1139 1.252 . S
C1136 O1140 1.260 . S
O1137 In1131 2.266 . S
O1137 C1134 1.252 . S
O1138 In1131 2.326 . S
O1138 C1134 1.260 . S
O1139 In1131 2.266 . S
O1139 C1136 1.252 . S
O1140 In1131 2.326 . S
O1140 C1136 1.260 . S
C1141 O1132 1.240 . S
C1141 O1133 1.252 . S
O1142 In1131 2.294 . S
O1142 C1135 1.240 . S
O1143 In1131 2.326 . S
O1143 C1135 1.252 . S
In1144 O1145 2.294 . S
In1144 O1146 2.326 . S
In1144 O1150 2.266 . S
In1144 O1151 2.326 . S
In1144 O1152 2.266 . S
In1144 O1153 2.326 . S
In1144 O1155 2.294 . S
In1144 O1156 2.326 . S
O1145 In1144 2.294 . S
O1145 C1154 1.240 . S
O1146 In1144 2.326 . S
O1146 C1154 1.252 . S
C1147 O1150 1.252 . S
C1147 O1151 1.260 . S
C1148 O1155 1.240 . S
C1148 O1156 1.252 . S
C1149 O1152 1.252 . S
C1149 O1153 1.260 . S
O1150 In1144 2.266 . S
O1150 C1147 1.252 . S
O1151 In1144 2.326 . S
O1151 C1147 1.260 . S
O1152 In1144 2.266 . S
O1152 C1149 1.252 . S
O1153 In1144 2.326 . S
O1153 C1149 1.260 . S
C1154 O1145 1.240 . S
C1154 O1146 1.252 . S
O1155 In1144 2.294 . S
O1155 C1148 1.240 . S
O1156 In1144 2.326 . S
O1156 C1148 1.252 . S
In1157 O1158 2.294 . S
In1157 O1159 2.326 . S
In1157 O1163 2.266 . S
In1157 O1164 2.326 . S
In1157 O1165 2.266 . S
In1157 O1166 2.326 . S
In1157 O1168 2.294 . S
In1157 O1169 2.326 . S
O1158 In1157 2.294 . S
O1158 C1167 1.240 . S
O1159 In1157 2.326 . S
O1159 C1167 1.252 . S
C1160 O1163 1.252 . S
C1160 O1164 1.260 . S
C1161 O1168 1.240 . S
C1161 O1169 1.252 . S
C1162 O1165 1.252 . S
C1162 O1166 1.260 . S
O1163 In1157 2.266 . S
O1163 C1160 1.252 . S
O1164 In1157 2.326 . S
O1164 C1160 1.260 . S
O1165 In1157 2.266 . S
O1165 C1162 1.252 . S
O1166 In1157 2.326 . S
O1166 C1162 1.260 . S
C1167 O1158 1.240 . S
C1167 O1159 1.252 . S
O1168 In1157 2.294 . S
O1168 C1161 1.240 . S
O1169 In1157 2.326 . S
O1169 C1161 1.252 . S
In1170 O1171 2.294 . S
In1170 O1172 2.326 . S
In1170 O1176 2.266 . S
In1170 O1177 2.326 . S
In1170 O1178 2.266 . S
In1170 O1179 2.326 . S
In1170 O1181 2.294 . S
In1170 O1182 2.326 . S
O1171 In1170 2.294 . S
O1171 C1180 1.240 . S
O1172 In1170 2.326 . S
O1172 C1180 1.252 . S
C1173 O1176 1.252 . S
C1173 O1177 1.260 . S
C1174 O1181 1.240 . S
C1174 O1182 1.252 . S
C1175 O1178 1.252 . S
C1175 O1179 1.260 . S
O1176 In1170 2.266 . S
O1176 C1173 1.252 . S
O1177 In1170 2.326 . S
O1177 C1173 1.260 . S
O1178 In1170 2.266 . S
O1178 C1175 1.252 . S
O1179 In1170 2.326 . S
O1179 C1175 1.260 . S
C1180 O1171 1.240 . S
C1180 O1172 1.252 . S
O1181 In1170 2.294 . S
O1181 C1174 1.240 . S
O1182 In1170 2.326 . S
O1182 C1174 1.252 . S
In1183 O1184 2.294 . S
In1183 O1185 2.326 . S
In1183 O1189 2.266 . S
In1183 O1190 2.326 . S
In1183 O1191 2.266 . S
In1183 O1192 2.326 . S
In1183 O1194 2.294 . S
In1183 O1195 2.326 . S
O1184 In1183 2.294 . S
O1184 C1193 1.240 . S
O1185 In1183 2.326 . S
O1185 C1193 1.252 . S
C1186 O1189 1.252 . S
C1186 O1190 1.260 . S
C1187 O1194 1.240 . S
C1187 O1195 1.252 . S
C1188 O1191 1.252 . S
C1188 O1192 1.260 . S
O1189 In1183 2.266 . S
O1189 C1186 1.252 . S
O1190 In1183 2.326 . S
O1190 C1186 1.260 . S
O1191 In1183 2.266 . S
O1191 C1188 1.252 . S
O1192 In1183 2.326 . S
O1192 C1188 1.260 . S
C1193 O1184 1.240 . S
C1193 O1185 1.252 . S
O1194 In1183 2.294 . S
O1194 C1187 1.240 . S
O1195 In1183 2.326 . S
O1195 C1187 1.252 . S
In1196 O1197 2.294 . S
In1196 O1198 2.326 . S
In1196 O1202 2.266 . S
In1196 O1203 2.326 . S
In1196 O1204 2.266 . S
In1196 O1205 2.326 . S
In1196 O1207 2.294 . S
In1196 O1208 2.326 . S
O1197 In1196 2.294 . S
O1197 C1206 1.240 . S
O1198 In1196 2.326 . S
O1198 C1206 1.252 . S
C1199 O1202 1.252 . S
C1199 O1203 1.260 . S
C1200 O1207 1.240 . S
C1200 O1208 1.252 . S
C1201 O1204 1.252 . S
C1201 O1205 1.260 . S
O1202 In1196 2.266 . S
O1202 C1199 1.252 . S
O1203 In1196 2.326 . S
O1203 C1199 1.260 . S
O1204 In1196 2.266 . S
O1204 C1201 1.252 . S
O1205 In1196 2.326 . S
O1205 C1201 1.260 . S
C1206 O1197 1.240 . S
C1206 O1198 1.252 . S
O1207 In1196 2.294 . S
O1207 C1200 1.240 . S
O1208 In1196 2.326 . S
O1208 C1200 1.252 . S
In1209 O1210 2.294 . S
In1209 O1211 2.326 . S
In1209 O1215 2.266 . S
In1209 O1216 2.326 . S
In1209 O1217 2.266 . S
In1209 O1218 2.326 . S
In1209 O1220 2.294 . S
In1209 O1221 2.326 . S
O1210 In1209 2.294 . S
O1210 C1219 1.240 . S
O1211 In1209 2.326 . S
O1211 C1219 1.252 . S
C1212 O1215 1.252 . S
C1212 O1216 1.260 . S
C1213 O1220 1.240 . S
C1213 O1221 1.252 . S
C1214 O1217 1.252 . S
C1214 O1218 1.260 . S
O1215 In1209 2.266 . S
O1215 C1212 1.252 . S
O1216 In1209 2.326 . S
O1216 C1212 1.260 . S
O1217 In1209 2.266 . S
O1217 C1214 1.252 . S
O1218 In1209 2.326 . S
O1218 C1214 1.260 . S
C1219 O1210 1.240 . S
C1219 O1211 1.252 . S
O1220 In1209 2.294 . S
O1220 C1213 1.240 . S
O1221 In1209 2.326 . S
O1221 C1213 1.252 . S
In1222 O1223 2.294 . S
In1222 O1224 2.326 . S
In1222 O1228 2.266 . S
In1222 O1229 2.326 . S
In1222 O1230 2.266 . S
In1222 O1231 2.326 . S
In1222 O1233 2.294 . S
In1222 O1234 2.326 . S
O1223 In1222 2.294 . S
O1223 C1232 1.240 . S
O1224 In1222 2.326 . S
O1224 C1232 1.252 . S
C1225 O1228 1.252 . S
C1225 O1229 1.260 . S
C1226 O1233 1.240 . S
C1226 O1234 1.252 . S
C1227 O1230 1.252 . S
C1227 O1231 1.260 . S
O1228 In1222 2.266 . S
O1228 C1225 1.252 . S
O1229 In1222 2.326 . S
O1229 C1225 1.260 . S
O1230 In1222 2.266 . S
O1230 C1227 1.252 . S
O1231 In1222 2.326 . S
O1231 C1227 1.260 . S
C1232 O1223 1.240 . S
C1232 O1224 1.252 . S
O1233 In1222 2.294 . S
O1233 C1226 1.240 . S
O1234 In1222 2.326 . S
O1234 C1226 1.252 . S
In1235 O1236 2.294 . S
In1235 O1237 2.326 . S
In1235 O1241 2.266 . S
In1235 O1242 2.326 . S
In1235 O1243 2.266 . S
In1235 O1244 2.326 . S
In1235 O1246 2.294 . S
In1235 O1247 2.326 . S
O1236 In1235 2.294 . S
O1236 C1245 1.240 . S
O1237 In1235 2.326 . S
O1237 C1245 1.252 . S
C1238 O1241 1.252 . S
C1238 O1242 1.260 . S
C1239 O1246 1.240 . S
C1239 O1247 1.252 . S
C1240 O1243 1.252 . S
C1240 O1244 1.260 . S
O1241 In1235 2.266 . S
O1241 C1238 1.252 . S
O1242 In1235 2.326 . S
O1242 C1238 1.260 . S
O1243 In1235 2.266 . S
O1243 C1240 1.252 . S
O1244 In1235 2.326 . S
O1244 C1240 1.260 . S
C1245 O1236 1.240 . S
C1245 O1237 1.252 . S
O1246 In1235 2.294 . S
O1246 C1239 1.240 . S
O1247 In1235 2.326 . S
O1247 C1239 1.252 . S
H1248 C1256 0.950 . S
H1249 C1261 0.950 . S
H1250 C1258 0.979 . S
H1251 C1260 0.950 . S
H1252 C1262 0.950 . S
H1253 C1264 0.979 . S
H1254 C1266 0.950 . S
H1255 C1267 0.950 . S
C1256 H1248 0.950 . S
C1256 C1257 1.386 . S
C1256 C1258 1.391 . S
C1257 C1256 1.386 . S
C1257 C1261 1.393 . S
C1258 H1250 0.979 . S
C1258 C1256 1.391 . S
C1258 C1259 1.400 . S
C1259 C1258 1.400 . S
C1259 C1260 1.398 . S
C1259 C1265 1.491 1_454 S
C1260 H1251 0.950 . S
C1260 C1259 1.398 . S
C1260 C1261 1.391 . S
C1261 H1249 0.950 . S
C1261 C1257 1.393 . S
C1261 C1260 1.391 . S
C1262 H1252 0.950 . S
C1262 C1263 1.386 . S
C1262 C1264 1.391 . S
C1263 C1262 1.386 . S
C1263 C1267 1.393 . S
C1264 H1253 0.979 . S
C1264 C1262 1.391 . S
C1264 C1265 1.400 . S
C1265 C1259 1.491 1_656 S
C1265 C1264 1.400 . S
C1265 C1266 1.398 . S
C1266 H1254 0.950 . S
C1266 C1265 1.398 . S
C1266 C1267 1.391 . S
C1267 H1255 0.950 . S
C1267 C1263 1.393 . S
C1267 C1266 1.391 . S
H1268 C1276 0.950 . S
H1269 C1281 0.950 . S
H1270 C1278 0.950 . S
H1271 C1280 0.950 . S
H1272 C1282 0.950 . S
H1273 C1284 0.950 . S
H1274 C1286 0.950 . S
H1275 C1287 0.950 . S
C1276 H1268 0.950 . S
C1276 C1277 1.386 . S
C1276 C1278 1.391 . S
C1277 C1276 1.386 . S
C1277 C1281 1.393 . S
C1278 H1270 0.950 . S
C1278 C1276 1.391 . S
C1278 C1279 1.400 . S
C1279 C1278 1.400 . S
C1279 C1280 1.398 . S
C1279 C1285 1.491 . S
C1280 H1271 0.950 . S
C1280 C1279 1.398 . S
C1280 C1281 1.391 . S
C1281 H1269 0.950 . S
C1281 C1277 1.393 . S
C1281 C1280 1.391 . S
C1282 H1272 0.950 . S
C1282 C1283 1.386 . S
C1282 C1284 1.391 . S
C1283 C1282 1.386 . S
C1283 C1287 1.393 . S
C1284 H1273 0.950 . S
C1284 C1282 1.391 . S
C1284 C1285 1.400 . S
C1285 C1279 1.491 . S
C1285 C1284 1.400 . S
C1285 C1286 1.398 . S
C1286 H1274 0.950 . S
C1286 C1285 1.398 . S
C1286 C1287 1.391 . S
C1287 H1275 0.950 . S
C1287 C1283 1.393 . S
C1287 C1286 1.391 . S
H1288 C1296 0.950 . S
H1289 C1301 0.950 . S
H1290 C1298 0.950 . S
H1291 C1300 0.979 . S
H1292 C1302 0.950 . S
H1293 C1304 0.950 . S
H1294 C1306 0.979 . S
H1295 C1307 0.950 . S
C1296 H1288 0.950 . S
C1296 C1297 1.386 . S
C1296 C1298 1.391 . S
C1297 C1296 1.386 . S
C1297 C1301 1.393 . S
C1298 H1290 0.950 . S
C1298 C1296 1.391 . S
C1298 C1299 1.400 . S
C1299 C1298 1.400 . S
C1299 C1300 1.398 . S
C1299 C1305 1.491 1_655 S
C1300 H1291 0.979 . S
C1300 C1299 1.398 . S
C1300 C1301 1.391 . S
C1301 H1289 0.950 . S
C1301 C1297 1.393 . S
C1301 C1300 1.391 . S
C1302 H1292 0.950 . S
C1302 C1303 1.386 . S
C1302 C1304 1.391 . S
C1303 C1302 1.386 . S
C1303 C1307 1.393 . S
C1304 H1293 0.950 . S
C1304 C1302 1.391 . S
C1304 C1305 1.400 . S
C1305 C1299 1.491 1_455 S
C1305 C1304 1.400 . S
C1305 C1306 1.398 . S
C1306 H1294 0.979 . S
C1306 C1305 1.398 . S
C1306 C1307 1.391 . S
C1307 H1295 0.950 . S
C1307 C1303 1.393 . S
C1307 C1306 1.391 . S
H1308 C1316 0.950 . S
H1309 C1321 0.950 . S
H1310 C1318 0.950 . S
H1311 C1320 0.950 . S
H1312 C1322 0.950 . S
H1313 C1324 0.950 . S
H1314 C1326 0.950 . S
H1315 C1327 0.950 . S
C1316 H1308 0.950 . S
C1316 C1317 1.386 . S
C1316 C1318 1.391 . S
C1317 C1316 1.386 . S
C1317 C1321 1.393 . S
C1318 H1310 0.950 . S
C1318 C1316 1.391 . S
C1318 C1319 1.400 . S
C1319 C1318 1.400 . S
C1319 C1320 1.398 . S
C1319 C1325 1.491 . S
C1320 H1311 0.950 . S
C1320 C1319 1.398 . S
C1320 C1321 1.391 . S
C1321 H1309 0.950 . S
C1321 C1317 1.393 . S
C1321 C1320 1.391 . S
C1322 H1312 0.950 . S
C1322 C1323 1.386 . S
C1322 C1324 1.391 . S
C1323 C1322 1.386 . S
C1323 C1327 1.393 . S
C1324 H1313 0.950 . S
C1324 C1322 1.391 . S
C1324 C1325 1.400 . S
C1325 C1319 1.491 . S
C1325 C1324 1.400 . S
C1325 C1326 1.398 . S
C1326 H1314 0.950 . S
C1326 C1325 1.398 . S
C1326 C1327 1.391 . S
C1327 H1315 0.950 . S
C1327 C1323 1.393 . S
C1327 C1326 1.391 . S
H1328 C1336 0.950 . S
H1329 C1341 0.950 . S
H1330 C1338 0.950 1_455 S
H1331 C1340 0.950 1_556 S
H1332 C1342 0.950 . S
H1333 C1344 0.950 1_655 S
H1334 C1346 0.950 1_554 S
H1335 C1347 0.950 . S
C1336 H1328 0.950 . S
C1336 C1337 1.386 . S
C1336 C1338 1.391 . S
C1337 C1336 1.386 . S
C1337 C1341 1.393 . S
C1338 H1330 0.950 1_655 S
C1338 C1336 1.391 . S
C1338 C1339 1.400 . S
C1339 C1338 1.400 . S
C1339 C1340 1.398 . S
C1339 C1345 1.491 1_654 S
C1340 H1331 0.950 1_554 S
C1340 C1339 1.398 . S
C1340 C1341 1.391 . S
C1341 H1329 0.950 . S
C1341 C1337 1.393 . S
C1341 C1340 1.391 . S
C1342 H1332 0.950 . S
C1342 C1343 1.386 . S
C1342 C1344 1.391 . S
C1343 C1342 1.386 . S
C1343 C1347 1.393 . S
C1344 H1333 0.950 1_455 S
C1344 C1342 1.391 . S
C1344 C1345 1.400 . S
C1345 C1339 1.491 1_456 S
C1345 C1344 1.400 . S
C1345 C1346 1.398 . S
C1346 H1334 0.950 1_556 S
C1346 C1345 1.398 . S
C1346 C1347 1.391 . S
C1347 H1335 0.950 . S
C1347 C1343 1.393 . S
C1347 C1346 1.391 . S
H1348 C1356 0.950 . S
H1349 C1361 0.950 . S
H1350 C1358 0.950 . S
H1351 C1360 0.950 . S
H1352 C1362 0.950 . S
H1353 C1364 0.950 . S
H1354 C1366 0.950 . S
H1355 C1367 0.950 . S
C1356 H1348 0.950 . S
C1356 C1357 1.386 . S
C1356 C1358 1.391 . S
C1357 C1356 1.386 . S
C1357 C1361 1.393 . S
C1358 H1350 0.950 . S
C1358 C1356 1.391 . S
C1358 C1359 1.400 . S
C1359 C1358 1.400 . S
C1359 C1360 1.398 . S
C1359 C1365 1.491 . S
C1360 H1351 0.950 . S
C1360 C1359 1.398 . S
C1360 C1361 1.391 . S
C1361 H1349 0.950 . S
C1361 C1357 1.393 . S
C1361 C1360 1.391 . S
C1362 H1352 0.950 . S
C1362 C1363 1.386 . S
C1362 C1364 1.391 . S
C1363 C1362 1.386 . S
C1363 C1367 1.393 . S
C1364 H1353 0.950 . S
C1364 C1362 1.391 . S
C1364 C1365 1.400 . S
C1365 C1359 1.491 . S
C1365 C1364 1.400 . S
C1365 C1366 1.398 . S
C1366 H1354 0.950 . S
C1366 C1365 1.398 . S
C1366 C1367 1.391 . S
C1367 H1355 0.950 . S
C1367 C1363 1.393 . S
C1367 C1366 1.391 . S
H1368 C1376 0.950 . S
H1369 C1381 0.950 . S
H1370 C1378 0.950 . S
H1371 C1380 0.950 . S
H1372 C1382 0.950 . S
H1373 C1384 0.950 . S
H1374 C1386 0.950 . S
H1375 C1387 0.950 . S
C1376 H1368 0.950 . S
C1376 C1377 1.386 . S
C1376 C1378 1.391 . S
C1377 C1376 1.386 . S
C1377 C1381 1.393 . S
C1378 H1370 0.950 . S
C1378 C1376 1.391 . S
C1378 C1379 1.400 . S
C1379 C1378 1.400 . S
C1379 C1380 1.398 1_455 S
C1379 C1385 1.491 1_455 S
C1380 H1371 0.950 . S
C1380 C1379 1.398 1_655 S
C1380 C1381 1.391 1_655 S
C1381 H1369 0.950 . S
C1381 C1377 1.393 . S
C1381 C1380 1.391 1_455 S
C1382 H1372 0.950 . S
C1382 C1383 1.386 . S
C1382 C1384 1.391 . S
C1383 C1382 1.386 . S
C1383 C1387 1.393 . S
C1384 H1373 0.950 . S
C1384 C1382 1.391 . S
C1384 C1385 1.400 . S
C1385 C1379 1.491 1_655 S
C1385 C1384 1.400 . S
C1385 C1386 1.398 1_655 S
C1386 H1374 0.950 . S
C1386 C1385 1.398 1_455 S
C1386 C1387 1.391 1_455 S
C1387 H1375 0.950 . S
C1387 C1383 1.393 . S
C1387 C1386 1.391 1_655 S
H1388 C1396 0.950 . S
H1389 C1401 0.950 . S
H1390 C1398 0.950 . S
H1391 C1400 0.950 . S
H1392 C1402 0.950 . S
H1393 C1404 0.950 . S
H1394 C1406 0.950 . S
H1395 C1407 0.950 . S
C1396 H1388 0.950 . S
C1396 C1397 1.386 . S
C1396 C1398 1.391 . S
C1397 C1396 1.386 . S
C1397 C1401 1.393 . S
C1398 H1390 0.950 . S
C1398 C1396 1.391 . S
C1398 C1399 1.400 . S
C1399 C1398 1.400 . S
C1399 C1400 1.398 . S
C1399 C1405 1.491 . S
C1400 H1391 0.950 . S
C1400 C1399 1.398 . S
C1400 C1401 1.391 . S
C1401 H1389 0.950 . S
C1401 C1397 1.393 . S
C1401 C1400 1.391 . S
C1402 H1392 0.950 . S
C1402 C1403 1.386 . S
C1402 C1404 1.391 . S
C1403 C1402 1.386 . S
C1403 C1407 1.393 . S
C1404 H1393 0.950 . S
C1404 C1402 1.391 . S
C1404 C1405 1.400 . S
C1405 C1399 1.491 . S
C1405 C1404 1.400 . S
C1405 C1406 1.398 . S
C1406 H1394 0.950 . S
C1406 C1405 1.398 . S
C1406 C1407 1.391 . S
C1407 H1395 0.950 . S
C1407 C1403 1.393 . S
C1407 C1406 1.391 . S
H1408 C1416 0.950 . S
H1409 C1421 0.950 . S
H1410 C1418 0.950 1_455 S
H1411 C1420 0.950 . S
H1412 C1422 0.950 . S
H1413 C1424 0.950 1_655 S
H1414 C1426 0.950 . S
H1415 C1427 0.950 . S
C1416 H1408 0.950 . S
C1416 C1417 1.386 . S
C1416 C1418 1.391 . S
C1417 C1416 1.386 . S
C1417 C1421 1.393 . S
C1418 H1410 0.950 1_655 S
C1418 C1416 1.391 . S
C1418 C1419 1.400 . S
C1419 C1418 1.400 . S
C1419 C1420 1.398 1_565 S
C1419 C1425 1.491 1_665 S
C1420 H1411 0.950 . S
C1420 C1419 1.398 1_545 S
C1420 C1421 1.391 1_545 S
C1421 H1409 0.950 . S
C1421 C1417 1.393 . S
C1421 C1420 1.391 1_565 S
C1422 H1412 0.950 . S
C1422 C1423 1.386 . S
C1422 C1424 1.391 . S
C1423 C1422 1.386 . S
C1423 C1427 1.393 . S
C1424 H1413 0.950 1_455 S
C1424 C1422 1.391 . S
C1424 C1425 1.400 . S
C1425 C1419 1.491 1_445 S
C1425 C1424 1.400 . S
C1425 C1426 1.398 1_545 S
C1426 H1414 0.950 . S
C1426 C1425 1.398 1_565 S
C1426 C1427 1.391 1_565 S
C1427 H1415 0.950 . S
C1427 C1423 1.393 . S
C1427 C1426 1.391 1_545 S
H1428 C1436 0.950 . S
H1429 C1441 0.950 . S
H1430 C1438 0.950 . S
H1431 C1440 0.950 . S
H1432 C1442 0.950 . S
H1433 C1444 0.950 . S
H1434 C1446 0.950 . S
H1435 C1447 0.950 . S
C1436 H1428 0.950 . S
C1436 C1437 1.386 . S
C1436 C1438 1.391 . S
C1437 C1436 1.386 . S
C1437 C1441 1.393 . S
C1438 H1430 0.950 . S
C1438 C1436 1.391 . S
C1438 C1439 1.400 . S
C1439 C1438 1.400 . S
C1439 C1440 1.398 . S
C1439 C1445 1.491 . S
C1440 H1431 0.950 . S
C1440 C1439 1.398 . S
C1440 C1441 1.391 . S
C1441 H1429 0.950 . S
C1441 C1437 1.393 . S
C1441 C1440 1.391 . S
C1442 H1432 0.950 . S
C1442 C1443 1.386 . S
C1442 C1444 1.391 . S
C1443 C1442 1.386 . S
C1443 C1447 1.393 . S
C1444 H1433 0.950 . S
C1444 C1442 1.391 . S
C1444 C1445 1.400 . S
C1445 C1439 1.491 . S
C1445 C1444 1.400 . S
C1445 C1446 1.398 . S
C1446 H1434 0.950 . S
C1446 C1445 1.398 . S
C1446 C1447 1.391 . S
C1447 H1435 0.950 . S
C1447 C1443 1.393 . S
C1447 C1446 1.391 . S
H1448 C1456 0.950 . S
H1449 C1461 0.950 . S
H1450 C1458 0.950 . S
H1451 C1460 0.950 . S
H1452 C1462 0.950 . S
H1453 C1464 0.950 . S
H1454 C1466 0.950 . S
H1455 C1467 0.950 . S
C1456 H1448 0.950 . S
C1456 C1457 1.386 . S
C1456 C1458 1.391 . S
C1457 C1456 1.386 . S
C1457 C1461 1.393 . S
C1458 H1450 0.950 . S
C1458 C1456 1.391 . S
C1458 C1459 1.400 . S
C1459 C1458 1.400 . S
C1459 C1460 1.398 . S
C1459 C1465 1.491 1_655 S
C1460 H1451 0.950 . S
C1460 C1459 1.398 . S
C1460 C1461 1.391 . S
C1461 H1449 0.950 . S
C1461 C1457 1.393 . S
C1461 C1460 1.391 . S
C1462 H1452 0.950 . S
C1462 C1463 1.386 . S
C1462 C1464 1.391 . S
C1463 C1462 1.386 . S
C1463 C1467 1.393 . S
C1464 H1453 0.950 . S
C1464 C1462 1.391 . S
C1464 C1465 1.400 . S
C1465 C1459 1.491 1_455 S
C1465 C1464 1.400 . S
C1465 C1466 1.398 . S
C1466 H1454 0.950 . S
C1466 C1465 1.398 . S
C1466 C1467 1.391 . S
C1467 H1455 0.950 . S
C1467 C1463 1.393 . S
C1467 C1466 1.391 . S
H1468 C1476 0.950 . S
H1469 C1481 0.950 . S
H1470 C1478 0.950 . S
H1471 C1480 0.950 . S
H1472 C1482 0.950 . S
H1473 C1484 0.950 . S
H1474 C1486 0.950 . S
H1475 C1487 0.950 . S
C1476 H1468 0.950 . S
C1476 C1477 1.386 . S
C1476 C1478 1.391 . S
C1477 C1476 1.386 . S
C1477 C1481 1.393 . S
C1478 H1470 0.950 . S
C1478 C1476 1.391 . S
C1478 C1479 1.400 . S
C1479 C1478 1.400 . S
C1479 C1480 1.398 . S
C1479 C1485 1.491 . S
C1480 H1471 0.950 . S
C1480 C1479 1.398 . S
C1480 C1481 1.391 . S
C1481 H1469 0.950 . S
C1481 C1477 1.393 . S
C1481 C1480 1.391 . S
C1482 H1472 0.950 . S
C1482 C1483 1.386 . S
C1482 C1484 1.391 . S
C1483 C1482 1.386 . S
C1483 C1487 1.393 . S
C1484 H1473 0.950 . S
C1484 C1482 1.391 . S
C1484 C1485 1.400 . S
C1485 C1479 1.491 . S
C1485 C1484 1.400 . S
C1485 C1486 1.398 . S
C1486 H1474 0.950 . S
C1486 C1485 1.398 . S
C1486 C1487 1.391 . S
C1487 H1475 0.950 . S
C1487 C1483 1.393 . S
C1487 C1486 1.391 . S
H1488 C1496 0.950 . S
H1489 C1501 0.950 . S
H1490 C1498 0.950 1_655 S
H1491 C1500 0.950 . S
H1492 C1502 0.950 . S
H1493 C1504 0.950 1_455 S
H1494 C1506 0.950 . S
H1495 C1507 0.950 . S
C1496 H1488 0.950 . S
C1496 C1497 1.386 . S
C1496 C1498 1.391 . S
C1497 C1496 1.386 . S
C1497 C1501 1.393 . S
C1498 H1490 0.950 1_455 S
C1498 C1496 1.391 . S
C1498 C1499 1.400 . S
C1499 C1498 1.400 . S
C1499 C1500 1.398 1_565 S
C1499 C1505 1.491 1_465 S
C1500 H1491 0.950 . S
C1500 C1499 1.398 1_545 S
C1500 C1501 1.391 1_545 S
C1501 H1489 0.950 . S
C1501 C1497 1.393 . S
C1501 C1500 1.391 1_565 S
C1502 H1492 0.950 . S
C1502 C1503 1.386 . S
C1502 C1504 1.391 . S
C1503 C1502 1.386 . S
C1503 C1507 1.393 . S
C1504 H1493 0.950 1_655 S
C1504 C1502 1.391 . S
C1504 C1505 1.400 . S
C1505 C1499 1.491 1_645 S
C1505 C1504 1.400 . S
C1505 C1506 1.398 1_545 S
C1506 H1494 0.950 . S
C1506 C1505 1.398 1_565 S
C1506 C1507 1.391 1_565 S
C1507 H1495 0.950 . S
C1507 C1503 1.393 . S
C1507 C1506 1.391 1_545 S
H1508 C1516 0.950 . S
H1509 C1521 0.950 . S
H1510 C1518 0.950 . S
H1511 C1520 0.950 . S
H1512 C1522 0.950 . S
H1513 C1524 0.950 . S
H1514 C1526 0.950 . S
H1515 C1527 0.950 . S
C1516 H1508 0.950 . S
C1516 C1517 1.386 . S
C1516 C1518 1.391 . S
C1517 C1516 1.386 . S
C1517 C1521 1.393 . S
C1518 H1510 0.950 . S
C1518 C1516 1.391 . S
C1518 C1519 1.400 . S
C1519 C1518 1.400 . S
C1519 C1520 1.398 . S
C1519 C1525 1.491 . S
C1520 H1511 0.950 . S
C1520 C1519 1.398 . S
C1520 C1521 1.391 . S
C1521 H1509 0.950 . S
C1521 C1517 1.393 . S
C1521 C1520 1.391 . S
C1522 H1512 0.950 . S
C1522 C1523 1.386 . S
C1522 C1524 1.391 . S
C1523 C1522 1.386 . S
C1523 C1527 1.393 . S
C1524 H1513 0.950 . S
C1524 C1522 1.391 . S
C1524 C1525 1.400 . S
C1525 C1519 1.491 . S
C1525 C1524 1.400 . S
C1525 C1526 1.398 . S
C1526 H1514 0.950 . S
C1526 C1525 1.398 . S
C1526 C1527 1.391 . S
C1527 H1515 0.950 . S
C1527 C1523 1.393 . S
C1527 C1526 1.391 . S
H1528 C1536 0.950 . S
H1529 C1541 0.950 . S
H1530 C1538 0.950 . S
H1531 C1540 0.950 . S
H1532 C1542 0.950 . S
H1533 C1544 0.950 . S
H1534 C1546 0.950 . S
H1535 C1547 0.950 . S
C1536 H1528 0.950 . S
C1536 C1537 1.386 . S
C1536 C1538 1.391 . S
C1537 C1536 1.386 . S
C1537 C1541 1.393 . S
C1538 H1530 0.950 . S
C1538 C1536 1.391 . S
C1538 C1539 1.400 . S
C1539 C1538 1.400 . S
C1539 C1540 1.398 . S
C1539 C1545 1.491 1_455 S
C1540 H1531 0.950 . S
C1540 C1539 1.398 . S
C1540 C1541 1.391 . S
C1541 H1529 0.950 . S
C1541 C1537 1.393 . S
C1541 C1540 1.391 . S
C1542 H1532 0.950 . S
C1542 C1543 1.386 . S
C1542 C1544 1.391 . S
C1543 C1542 1.386 . S
C1543 C1547 1.393 . S
C1544 H1533 0.950 . S
C1544 C1542 1.391 . S
C1544 C1545 1.400 . S
C1545 C1539 1.491 1_655 S
C1545 C1544 1.400 . S
C1545 C1546 1.398 . S
C1546 H1534 0.950 . S
C1546 C1545 1.398 . S
C1546 C1547 1.391 . S
C1547 H1535 0.950 . S
C1547 C1543 1.393 . S
C1547 C1546 1.391 . S
H1548 C1556 0.950 . S
H1549 C1561 0.950 . S
H1550 C1558 0.950 . S
H1551 C1560 0.950 . S
H1552 C1562 0.950 . S
H1553 C1564 0.950 . S
H1554 C1566 0.950 . S
H1555 C1567 0.950 . S
C1556 H1548 0.950 . S
C1556 C1557 1.386 . S
C1556 C1558 1.391 . S
C1557 C1556 1.386 . S
C1557 C1561 1.393 . S
C1558 H1550 0.950 . S
C1558 C1556 1.391 . S
C1558 C1559 1.400 . S
C1559 C1558 1.400 . S
C1559 C1560 1.398 . S
C1559 C1565 1.491 . S
C1560 H1551 0.950 . S
C1560 C1559 1.398 . S
C1560 C1561 1.391 . S
C1561 H1549 0.950 . S
C1561 C1557 1.393 . S
C1561 C1560 1.391 . S
C1562 H1552 0.950 . S
C1562 C1563 1.386 . S
C1562 C1564 1.391 . S
C1563 C1562 1.386 . S
C1563 C1567 1.393 . S
C1564 H1553 0.950 . S
C1564 C1562 1.391 . S
C1564 C1565 1.400 . S
C1565 C1559 1.491 . S
C1565 C1564 1.400 . S
C1565 C1566 1.398 . S
C1566 H1554 0.950 . S
C1566 C1565 1.398 . S
C1566 C1567 1.391 . S
C1567 H1555 0.950 . S
C1567 C1563 1.393 . S
C1567 C1566 1.391 . S
H1568 C1576 0.950 . S
H1569 C1581 0.950 . S
H1570 C1578 0.950 . S
H1571 C1580 0.950 . S
H1572 C1582 0.950 . S
H1573 C1584 0.950 . S
H1574 C1586 0.950 . S
H1575 C1587 0.950 . S
C1576 H1568 0.950 . S
C1576 C1577 1.386 . S
C1576 C1578 1.391 . S
C1577 C1576 1.386 . S
C1577 C1581 1.393 . S
C1578 H1570 0.950 . S
C1578 C1576 1.391 . S
C1578 C1579 1.400 . S
C1579 C1578 1.400 . S
C1579 C1580 1.398 . S
C1579 C1585 1.491 1_566 S
C1580 H1571 0.950 . S
C1580 C1579 1.398 . S
C1580 C1581 1.391 . S
C1581 H1569 0.950 . S
C1581 C1577 1.393 . S
C1581 C1580 1.391 . S
C1582 H1572 0.950 . S
C1582 C1583 1.386 . S
C1582 C1584 1.391 . S
C1583 C1582 1.386 . S
C1583 C1587 1.393 . S
C1584 H1573 0.950 . S
C1584 C1582 1.391 . S
C1584 C1585 1.400 . S
C1585 C1579 1.491 1_544 S
C1585 C1584 1.400 . S
C1585 C1586 1.398 . S
C1586 H1574 0.950 . S
C1586 C1585 1.398 . S
C1586 C1587 1.391 . S
C1587 H1575 0.950 . S
C1587 C1583 1.393 . S
C1587 C1586 1.391 . S
H1588 C1596 0.950 . S
H1589 C1601 0.950 . S
H1590 C1598 0.950 . S
H1591 C1600 0.950 . S
H1592 C1602 0.950 . S
H1593 C1604 0.950 . S
H1594 C1606 0.950 . S
H1595 C1607 0.950 . S
C1596 H1588 0.950 . S
C1596 C1597 1.386 . S
C1596 C1598 1.391 . S
C1597 C1596 1.386 . S
C1597 C1601 1.393 . S
C1598 H1590 0.950 . S
C1598 C1596 1.391 . S
C1598 C1599 1.400 . S
C1599 C1598 1.400 . S
C1599 C1600 1.398 . S
C1599 C1605 1.491 1_545 S
C1600 H1591 0.950 . S
C1600 C1599 1.398 . S
C1600 C1601 1.391 . S
C1601 H1589 0.950 . S
C1601 C1597 1.393 . S
C1601 C1600 1.391 . S
C1602 H1592 0.950 . S
C1602 C1603 1.386 . S
C1602 C1604 1.391 . S
C1603 C1602 1.386 . S
C1603 C1607 1.393 . S
C1604 H1593 0.950 . S
C1604 C1602 1.391 . S
C1604 C1605 1.400 . S
C1605 C1599 1.491 1_565 S
C1605 C1604 1.400 . S
C1605 C1606 1.398 . S
C1606 H1594 0.950 . S
C1606 C1605 1.398 . S
C1606 C1607 1.391 . S
C1607 H1595 0.950 . S
C1607 C1603 1.393 . S
C1607 C1606 1.391 . S
H1608 C1616 0.950 . S
H1609 C1621 0.950 . S
H1610 C1618 0.950 . S
H1611 C1620 0.950 . S
H1612 C1622 0.950 . S
H1613 C1624 0.950 . S
H1614 C1626 0.950 . S
H1615 C1627 0.950 . S
C1616 H1608 0.950 . S
C1616 C1617 1.386 . S
C1616 C1618 1.391 . S
C1617 C1616 1.386 . S
C1617 C1621 1.393 . S
C1618 H1610 0.950 . S
C1618 C1616 1.391 . S
C1618 C1619 1.400 . S
C1619 C1618 1.400 . S
C1619 C1620 1.398 . S
C1619 C1625 1.491 . S
C1620 H1611 0.950 . S
C1620 C1619 1.398 . S
C1620 C1621 1.391 . S
C1621 H1609 0.950 . S
C1621 C1617 1.393 . S
C1621 C1620 1.391 . S
C1622 H1612 0.950 . S
C1622 C1623 1.386 . S
C1622 C1624 1.391 . S
C1623 C1622 1.386 . S
C1623 C1627 1.393 . S
C1624 H1613 0.950 . S
C1624 C1622 1.391 . S
C1624 C1625 1.400 . S
C1625 C1619 1.491 . S
C1625 C1624 1.400 . S
C1625 C1626 1.398 . S
C1626 H1614 0.950 . S
C1626 C1625 1.398 . S
C1626 C1627 1.391 . S
C1627 H1615 0.950 . S
C1627 C1623 1.393 . S
C1627 C1626 1.391 . S
H1628 C1636 0.950 . S
H1629 C1641 0.950 . S
H1630 C1638 0.950 . S
H1631 C1640 0.950 . S
H1632 C1642 0.950 . S
H1633 C1644 0.950 . S
H1634 C1646 0.950 . S
H1635 C1647 0.950 . S
C1636 H1628 0.950 . S
C1636 C1637 1.386 . S
C1636 C1638 1.391 . S
C1637 C1636 1.386 . S
C1637 C1641 1.393 . S
C1638 H1630 0.950 . S
C1638 C1636 1.391 . S
C1638 C1639 1.400 . S
C1639 C1638 1.400 . S
C1639 C1640 1.398 . S
C1639 C1645 1.491 1_554 S
C1640 H1631 0.950 . S
C1640 C1639 1.398 . S
C1640 C1641 1.391 . S
C1641 H1629 0.950 . S
C1641 C1637 1.393 . S
C1641 C1640 1.391 . S
C1642 H1632 0.950 . S
C1642 C1643 1.386 . S
C1642 C1644 1.391 . S
C1643 C1642 1.386 . S
C1643 C1647 1.393 . S
C1644 H1633 0.950 . S
C1644 C1642 1.391 . S
C1644 C1645 1.400 . S
C1645 C1639 1.491 1_556 S
C1645 C1644 1.400 . S
C1645 C1646 1.398 . S
C1646 H1634 0.950 . S
C1646 C1645 1.398 . S
C1646 C1647 1.391 . S
C1647 H1635 0.950 . S
C1647 C1643 1.393 . S
C1647 C1646 1.391 . S
H1648 C1656 0.950 . S
H1649 C1661 0.950 . S
H1650 C1658 0.950 . S
H1651 C1660 0.950 . S
H1652 C1662 0.950 . S
H1653 C1664 0.950 . S
H1654 C1666 0.950 . S
H1655 C1667 0.950 . S
C1656 H1648 0.950 . S
C1656 C1657 1.386 . S
C1656 C1658 1.391 . S
C1657 C1656 1.386 . S
C1657 C1661 1.393 . S
C1658 H1650 0.950 . S
C1658 C1656 1.391 . S
C1658 C1659 1.400 . S
C1659 C1658 1.400 . S
C1659 C1660 1.398 . S
C1659 C1665 1.491 . S
C1660 H1651 0.950 . S
C1660 C1659 1.398 . S
C1660 C1661 1.391 . S
C1661 H1649 0.950 . S
C1661 C1657 1.393 . S
C1661 C1660 1.391 . S
C1662 H1652 0.950 . S
C1662 C1663 1.386 . S
C1662 C1664 1.391 . S
C1663 C1662 1.386 . S
C1663 C1667 1.393 . S
C1664 H1653 0.950 . S
C1664 C1662 1.391 . S
C1664 C1665 1.400 . S
C1665 C1659 1.491 . S
C1665 C1664 1.400 . S
C1665 C1666 1.398 . S
C1666 H1654 0.950 . S
C1666 C1665 1.398 . S
C1666 C1667 1.391 . S
C1667 H1655 0.950 . S
C1667 C1663 1.393 . S
C1667 C1666 1.391 . S
H1668 C1676 0.950 . S
H1669 C1681 0.950 . S
H1670 C1678 0.950 1_545 S
H1671 C1680 0.964 . S
H1672 C1682 0.950 . S
H1673 C1684 0.950 1_565 S
H1674 C1686 0.964 . S
H1675 C1687 0.950 . S
C1676 H1668 0.950 . S
C1676 C1677 1.386 . S
C1676 C1678 1.391 . S
C1677 C1676 1.386 . S
C1677 C1681 1.393 . S
C1678 H1670 0.950 1_565 S
C1678 C1676 1.391 . S
C1678 C1679 1.400 . S
C1679 C1678 1.400 . S
C1679 C1680 1.393 1_554 S
C1679 C1685 1.491 1_564 S
C1680 H1671 0.964 . S
C1680 C1679 1.393 1_556 S
C1680 C1681 1.382 1_556 S
C1681 H1669 0.950 . S
C1681 C1677 1.393 . S
C1681 C1680 1.382 1_554 S
C1682 H1672 0.950 . S
C1682 C1683 1.386 . S
C1682 C1684 1.391 . S
C1683 C1682 1.386 . S
C1683 C1687 1.393 . S
C1684 H1673 0.950 1_545 S
C1684 C1682 1.391 . S
C1684 C1685 1.400 . S
C1685 C1679 1.491 1_546 S
C1685 C1684 1.400 . S
C1685 C1686 1.393 1_556 S
C1686 H1674 0.964 . S
C1686 C1685 1.393 1_554 S
C1686 C1687 1.382 1_554 S
C1687 H1675 0.950 . S
C1687 C1683 1.393 . S
C1687 C1686 1.382 1_556 S
H1688 C1696 0.950 . S
H1689 C1701 0.950 . S
H1690 C1698 0.950 . S
H1691 C1700 0.950 . S
H1692 C1702 0.950 . S
H1693 C1704 0.950 . S
H1694 C1706 0.950 . S
H1695 C1707 0.950 . S
C1696 H1688 0.950 . S
C1696 C1697 1.386 . S
C1696 C1698 1.391 . S
C1697 C1696 1.386 . S
C1697 C1701 1.393 . S
C1698 H1690 0.950 . S
C1698 C1696 1.391 . S
C1698 C1699 1.400 . S
C1699 C1698 1.400 . S
C1699 C1700 1.398 . S
C1699 C1705 1.491 . S
C1700 H1691 0.950 . S
C1700 C1699 1.398 . S
C1700 C1701 1.391 . S
C1701 H1689 0.950 . S
C1701 C1697 1.393 . S
C1701 C1700 1.391 . S
C1702 H1692 0.950 . S
C1702 C1703 1.386 . S
C1702 C1704 1.391 . S
C1703 C1702 1.386 . S
C1703 C1707 1.393 . S
C1704 H1693 0.950 . S
C1704 C1702 1.391 . S
C1704 C1705 1.400 . S
C1705 C1699 1.491 . S
C1705 C1704 1.400 . S
C1705 C1706 1.398 . S
C1706 H1694 0.950 . S
C1706 C1705 1.398 . S
C1706 C1707 1.391 . S
C1707 H1695 0.950 . S
C1707 C1703 1.393 . S
C1707 C1706 1.391 . S
H1708 C1716 0.950 . S
H1709 C1721 0.950 . S
H1710 C1718 0.950 . S
H1711 C1720 0.950 . S
H1712 C1722 0.950 . S
H1713 C1724 0.950 . S
H1714 C1726 0.950 . S
H1715 C1727 0.950 . S
C1716 H1708 0.950 . S
C1716 C1717 1.386 . S
C1716 C1718 1.391 . S
C1717 C1716 1.386 . S
C1717 C1721 1.393 . S
C1718 H1710 0.950 . S
C1718 C1716 1.391 . S
C1718 C1719 1.400 . S
C1719 C1718 1.400 . S
C1719 C1720 1.398 . S
C1719 C1725 1.491 . S
C1720 H1711 0.950 . S
C1720 C1719 1.398 . S
C1720 C1721 1.391 . S
C1721 H1709 0.950 . S
C1721 C1717 1.393 . S
C1721 C1720 1.391 . S
C1722 H1712 0.950 . S
C1722 C1723 1.386 . S
C1722 C1724 1.391 . S
C1723 C1722 1.386 . S
C1723 C1727 1.393 . S
C1724 H1713 0.950 . S
C1724 C1722 1.391 . S
C1724 C1725 1.400 . S
C1725 C1719 1.491 . S
C1725 C1724 1.400 . S
C1725 C1726 1.398 . S
C1726 H1714 0.950 . S
C1726 C1725 1.398 . S
C1726 C1727 1.391 . S
C1727 H1715 0.950 . S
C1727 C1723 1.393 . S
C1727 C1726 1.391 . S
H1728 C1736 0.950 . S
H1729 C1741 0.950 . S
H1730 C1738 0.950 . S
H1731 C1740 0.950 . S
H1732 C1742 0.950 . S
H1733 C1744 0.950 . S
H1734 C1746 0.950 . S
H1735 C1747 0.950 . S
C1736 H1728 0.950 . S
C1736 C1737 1.386 . S
C1736 C1738 1.391 . S
C1737 C1736 1.386 . S
C1737 C1741 1.393 . S
C1738 H1730 0.950 . S
C1738 C1736 1.391 . S
C1738 C1739 1.400 . S
C1739 C1738 1.400 . S
C1739 C1740 1.398 . S
C1739 C1745 1.491 . S
C1740 H1731 0.950 . S
C1740 C1739 1.398 . S
C1740 C1741 1.391 . S
C1741 H1729 0.950 . S
C1741 C1737 1.393 . S
C1741 C1740 1.391 . S
C1742 H1732 0.950 . S
C1742 C1743 1.386 . S
C1742 C1744 1.391 . S
C1743 C1742 1.386 . S
C1743 C1747 1.393 . S
C1744 H1733 0.950 . S
C1744 C1742 1.391 . S
C1744 C1745 1.400 . S
C1745 C1739 1.491 . S
C1745 C1744 1.400 . S
C1745 C1746 1.398 . S
C1746 H1734 0.950 . S
C1746 C1745 1.398 . S
C1746 C1747 1.391 . S
C1747 H1735 0.950 . S
C1747 C1743 1.393 . S
C1747 C1746 1.391 . S
H1748 C1756 0.950 . S
H1749 C1761 0.950 . S
H1750 C1758 0.950 . S
H1751 C1760 0.950 . S
H1752 C1762 0.950 . S
H1753 C1764 0.950 . S
H1754 C1766 0.950 . S
H1755 C1767 0.950 . S
C1756 H1748 0.950 . S
C1756 C1757 1.386 . S
C1756 C1758 1.391 . S
C1757 C1756 1.386 . S
C1757 C1761 1.393 . S
C1758 H1750 0.950 . S
C1758 C1756 1.391 . S
C1758 C1759 1.400 . S
C1759 C1758 1.400 . S
C1759 C1760 1.398 . S
C1759 C1765 1.491 . S
C1760 H1751 0.950 . S
C1760 C1759 1.398 . S
C1760 C1761 1.391 . S
C1761 H1749 0.950 . S
C1761 C1757 1.393 . S
C1761 C1760 1.391 . S
C1762 H1752 0.950 . S
C1762 C1763 1.386 . S
C1762 C1764 1.391 . S
C1763 C1762 1.386 . S
C1763 C1767 1.393 . S
C1764 H1753 0.950 . S
C1764 C1762 1.391 . S
C1764 C1765 1.400 . S
C1765 C1759 1.491 . S
C1765 C1764 1.400 . S
C1765 C1766 1.398 . S
C1766 H1754 0.950 . S
C1766 C1765 1.398 . S
C1766 C1767 1.391 . S
C1767 H1755 0.950 . S
C1767 C1763 1.393 . S
C1767 C1766 1.391 . S
H1768 C1776 0.950 . S
H1769 C1781 0.950 . S
H1770 C1778 0.950 . S
H1771 C1780 0.950 . S
H1772 C1782 0.950 . S
H1773 C1784 0.950 . S
H1774 C1786 0.950 . S
H1775 C1787 0.950 . S
C1776 H1768 0.950 . S
C1776 C1777 1.386 . S
C1776 C1778 1.391 . S
C1777 C1776 1.386 . S
C1777 C1781 1.393 . S
C1778 H1770 0.950 . S
C1778 C1776 1.391 . S
C1778 C1779 1.400 . S
C1779 C1778 1.400 . S
C1779 C1780 1.398 . S
C1779 C1785 1.491 . S
C1780 H1771 0.950 . S
C1780 C1779 1.398 . S
C1780 C1781 1.391 . S
C1781 H1769 0.950 . S
C1781 C1777 1.393 . S
C1781 C1780 1.391 . S
C1782 H1772 0.950 . S
C1782 C1783 1.386 . S
C1782 C1784 1.391 . S
C1783 C1782 1.386 . S
C1783 C1787 1.393 . S
C1784 H1773 0.950 . S
C1784 C1782 1.391 . S
C1784 C1785 1.400 . S
C1785 C1779 1.491 . S
C1785 C1784 1.400 . S
C1785 C1786 1.398 . S
C1786 H1774 0.950 . S
C1786 C1785 1.398 . S
C1786 C1787 1.391 . S
C1787 H1775 0.950 . S
C1787 C1783 1.393 . S
C1787 C1786 1.391 . S
H1788 C1796 0.950 . S
H1789 C1801 0.950 . S
H1790 C1798 0.950 . S
H1791 C1800 0.950 . S
H1792 C1802 0.950 . S
H1793 C1804 0.950 . S
H1794 C1806 0.950 . S
H1795 C1807 0.950 . S
C1796 H1788 0.950 . S
C1796 C1797 1.386 . S
C1796 C1798 1.391 . S
C1797 C1796 1.386 . S
C1797 C1801 1.393 . S
C1798 H1790 0.950 . S
C1798 C1796 1.391 . S
C1798 C1799 1.400 . S
C1799 C1798 1.400 . S
C1799 C1800 1.398 . S
C1799 C1805 1.491 . S
C1800 H1791 0.950 . S
C1800 C1799 1.398 . S
C1800 C1801 1.391 . S
C1801 H1789 0.950 . S
C1801 C1797 1.393 . S
C1801 C1800 1.391 . S
C1802 H1792 0.950 . S
C1802 C1803 1.386 . S
C1802 C1804 1.391 . S
C1803 C1802 1.386 . S
C1803 C1807 1.393 . S
C1804 H1793 0.950 . S
C1804 C1802 1.391 . S
C1804 C1805 1.400 . S
C1805 C1799 1.491 . S
C1805 C1804 1.400 . S
C1805 C1806 1.398 . S
C1806 H1794 0.950 . S
C1806 C1805 1.398 . S
C1806 C1807 1.391 . S
C1807 H1795 0.950 . S
C1807 C1803 1.393 . S
C1807 C1806 1.391 . S
H1808 C1816 0.950 . S
H1809 C1821 0.950 . S
H1810 C1818 0.950 . S
H1811 C1820 0.950 . S
H1812 C1822 0.950 . S
H1813 C1824 0.950 . S
H1814 C1826 0.950 . S
H1815 C1827 0.950 . S
C1816 H1808 0.950 . S
C1816 C1817 1.386 . S
C1816 C1818 1.391 . S
C1817 C1816 1.386 . S
C1817 C1821 1.393 . S
C1818 H1810 0.950 . S
C1818 C1816 1.391 . S
C1818 C1819 1.400 . S
C1819 C1818 1.400 . S
C1819 C1820 1.398 . S
C1819 C1825 1.491 . S
C1820 H1811 0.950 . S
C1820 C1819 1.398 . S
C1820 C1821 1.391 . S
C1821 H1809 0.950 . S
C1821 C1817 1.393 . S
C1821 C1820 1.391 . S
C1822 H1812 0.950 . S
C1822 C1823 1.386 . S
C1822 C1824 1.391 . S
C1823 C1822 1.386 . S
C1823 C1827 1.393 . S
C1824 H1813 0.950 . S
C1824 C1822 1.391 . S
C1824 C1825 1.400 . S
C1825 C1819 1.491 . S
C1825 C1824 1.400 . S
C1825 C1826 1.398 . S
C1826 H1814 0.950 . S
C1826 C1825 1.398 . S
C1826 C1827 1.391 . S
C1827 H1815 0.950 . S
C1827 C1823 1.393 . S
C1827 C1826 1.391 . S
H1828 C1836 0.950 . S
H1829 C1841 0.950 . S
H1830 C1838 0.950 . S
H1831 C1840 0.950 . S
H1832 C1842 0.950 . S
H1833 C1844 0.950 . S
H1834 C1846 0.950 . S
H1835 C1847 0.950 . S
C1836 H1828 0.950 . S
C1836 C1837 1.386 . S
C1836 C1838 1.391 . S
C1837 C1836 1.386 . S
C1837 C1841 1.393 . S
C1838 H1830 0.950 . S
C1838 C1836 1.391 . S
C1838 C1839 1.400 . S
C1839 C1838 1.400 . S
C1839 C1840 1.398 . S
C1839 C1845 1.491 . S
C1840 H1831 0.950 . S
C1840 C1839 1.398 . S
C1840 C1841 1.391 . S
C1841 H1829 0.950 . S
C1841 C1837 1.393 . S
C1841 C1840 1.391 . S
C1842 H1832 0.950 . S
C1842 C1843 1.386 . S
C1842 C1844 1.391 . S
C1843 C1842 1.386 . S
C1843 C1847 1.393 . S
C1844 H1833 0.950 . S
C1844 C1842 1.391 . S
C1844 C1845 1.400 . S
C1845 C1839 1.491 . S
C1845 C1844 1.400 . S
C1845 C1846 1.398 . S
C1846 H1834 0.950 . S
C1846 C1845 1.398 . S
C1846 C1847 1.391 . S
C1847 H1835 0.950 . S
C1847 C1843 1.393 . S
C1847 C1846 1.391 . S
H1848 C1856 0.950 . S
H1849 C1861 0.950 . S
H1850 C1858 0.950 . S
H1851 C1860 0.950 . S
H1852 C1862 0.950 . S
H1853 C1864 0.950 . S
H1854 C1866 0.950 . S
H1855 C1867 0.950 . S
C1856 H1848 0.950 . S
C1856 C1857 1.386 . S
C1856 C1858 1.391 . S
C1857 C1856 1.386 . S
C1857 C1861 1.393 . S
C1858 H1850 0.950 . S
C1858 C1856 1.391 . S
C1858 C1859 1.400 . S
C1859 C1858 1.400 . S
C1859 C1860 1.398 . S
C1859 C1865 1.491 . S
C1860 H1851 0.950 . S
C1860 C1859 1.398 . S
C1860 C1861 1.391 . S
C1861 H1849 0.950 . S
C1861 C1857 1.393 . S
C1861 C1860 1.391 . S
C1862 H1852 0.950 . S
C1862 C1863 1.386 . S
C1862 C1864 1.391 . S
C1863 C1862 1.386 . S
C1863 C1867 1.393 . S
C1864 H1853 0.950 . S
C1864 C1862 1.391 . S
C1864 C1865 1.400 . S
C1865 C1859 1.491 . S
C1865 C1864 1.400 . S
C1865 C1866 1.398 . S
C1866 H1854 0.950 . S
C1866 C1865 1.398 . S
C1866 C1867 1.391 . S
C1867 H1855 0.950 . S
C1867 C1863 1.393 . S
C1867 C1866 1.391 . S
H1868 C1876 0.950 . S
H1869 C1881 0.950 . S
H1870 C1878 0.950 . S
H1871 C1880 0.950 . S
H1872 C1882 0.950 . S
H1873 C1884 0.950 . S
H1874 C1886 0.950 . S
H1875 C1887 0.950 . S
C1876 H1868 0.950 . S
C1876 C1877 1.386 . S
C1876 C1878 1.391 . S
C1877 C1876 1.386 . S
C1877 C1881 1.393 . S
C1878 H1870 0.950 . S
C1878 C1876 1.391 . S
C1878 C1879 1.400 . S
C1879 C1878 1.400 . S
C1879 C1880 1.398 . S
C1879 C1885 1.491 . S
C1880 H1871 0.950 . S
C1880 C1879 1.398 . S
C1880 C1881 1.391 . S
C1881 H1869 0.950 . S
C1881 C1877 1.393 . S
C1881 C1880 1.391 . S
C1882 H1872 0.950 . S
C1882 C1883 1.386 . S
C1882 C1884 1.391 . S
C1883 C1882 1.386 . S
C1883 C1887 1.393 . S
C1884 H1873 0.950 . S
C1884 C1882 1.391 . S
C1884 C1885 1.400 . S
C1885 C1879 1.491 . S
C1885 C1884 1.400 . S
C1885 C1886 1.398 . S
C1886 H1874 0.950 . S
C1886 C1885 1.398 . S
C1886 C1887 1.391 . S
C1887 H1875 0.950 . S
C1887 C1883 1.393 . S
C1887 C1886 1.391 . S
H1888 C1896 0.950 . S
H1889 C1901 0.950 . S
H1890 C1898 0.950 . S
H1891 C1900 0.950 . S
H1892 C1902 0.950 . S
H1893 C1904 0.950 . S
H1894 C1906 0.950 . S
H1895 C1907 0.950 . S
C1896 H1888 0.950 . S
C1896 C1897 1.386 . S
C1896 C1898 1.391 . S
C1897 C1896 1.386 . S
C1897 C1901 1.393 . S
C1898 H1890 0.950 . S
C1898 C1896 1.391 . S
C1898 C1899 1.400 . S
C1899 C1898 1.400 . S
C1899 C1900 1.398 . S
C1899 C1905 1.491 . S
C1900 H1891 0.950 . S
C1900 C1899 1.398 . S
C1900 C1901 1.391 . S
C1901 H1889 0.950 . S
C1901 C1897 1.393 . S
C1901 C1900 1.391 . S
C1902 H1892 0.950 . S
C1902 C1903 1.386 . S
C1902 C1904 1.391 . S
C1903 C1902 1.386 . S
C1903 C1907 1.393 . S
C1904 H1893 0.950 . S
C1904 C1902 1.391 . S
C1904 C1905 1.400 . S
C1905 C1899 1.491 . S
C1905 C1904 1.400 . S
C1905 C1906 1.398 . S
C1906 H1894 0.950 . S
C1906 C1905 1.398 . S
C1906 C1907 1.391 . S
C1907 H1895 0.950 . S
C1907 C1903 1.393 . S
C1907 C1906 1.391 . S
H1908 C1916 0.950 . S
H1909 C1921 0.950 . S
H1910 C1918 0.950 1_554 S
H1911 C1920 0.950 . S
H1912 C1922 0.950 . S
H1913 C1924 0.950 1_556 S
H1914 C1926 0.950 . S
H1915 C1927 0.950 . S
C1916 H1908 0.950 . S
C1916 C1917 1.386 . S
C1916 C1918 1.391 . S
C1917 C1916 1.386 . S
C1917 C1921 1.393 . S
C1918 H1910 0.950 1_556 S
C1918 C1916 1.391 . S
C1918 C1919 1.400 . S
C1919 C1918 1.400 . S
C1919 C1920 1.398 . S
C1919 C1925 1.491 1_556 S
C1920 H1911 0.950 . S
C1920 C1919 1.398 . S
C1920 C1921 1.391 . S
C1921 H1909 0.950 . S
C1921 C1917 1.393 . S
C1921 C1920 1.391 . S
C1922 H1912 0.950 . S
C1922 C1923 1.386 . S
C1922 C1924 1.391 . S
C1923 C1922 1.386 . S
C1923 C1927 1.393 . S
C1924 H1913 0.950 1_554 S
C1924 C1922 1.391 . S
C1924 C1925 1.400 . S
C1925 C1919 1.491 1_554 S
C1925 C1924 1.400 . S
C1925 C1926 1.398 . S
C1926 H1914 0.950 . S
C1926 C1925 1.398 . S
C1926 C1927 1.391 . S
C1927 H1915 0.950 . S
C1927 C1923 1.393 . S
C1927 C1926 1.391 . S
H1928 C1936 0.950 . S
H1929 C1941 0.950 . S
H1930 C1938 0.950 . S
H1931 C1940 0.950 . S
H1932 C1942 0.950 . S
H1933 C1944 0.950 . S
H1934 C1946 0.950 . S
H1935 C1947 0.950 . S
C1936 H1928 0.950 . S
C1936 C1937 1.386 . S
C1936 C1938 1.391 . S
C1937 C1936 1.386 . S
C1937 C1941 1.393 . S
C1938 H1930 0.950 . S
C1938 C1936 1.391 . S
C1938 C1939 1.400 . S
C1939 C1938 1.400 . S
C1939 C1940 1.398 . S
C1939 C1945 1.491 . S
C1940 H1931 0.950 . S
C1940 C1939 1.398 . S
C1940 C1941 1.391 . S
C1941 H1929 0.950 . S
C1941 C1937 1.393 . S
C1941 C1940 1.391 . S
C1942 H1932 0.950 . S
C1942 C1943 1.386 . S
C1942 C1944 1.391 . S
C1943 C1942 1.386 . S
C1943 C1947 1.393 . S
C1944 H1933 0.950 . S
C1944 C1942 1.391 . S
C1944 C1945 1.400 . S
C1945 C1939 1.491 . S
C1945 C1944 1.400 . S
C1945 C1946 1.398 . S
C1946 H1934 0.950 . S
C1946 C1945 1.398 . S
C1946 C1947 1.391 . S
C1947 H1935 0.950 . S
C1947 C1943 1.393 . S
C1947 C1946 1.391 . S
H1948 C1956 0.950 . S
H1949 C1961 0.950 . S
H1950 C1958 0.950 1_545 S
H1951 C1960 0.950 . S
H1952 C1962 0.950 . S
H1953 C1964 0.950 1_565 S
H1954 C1966 0.950 . S
H1955 C1967 0.950 . S
C1956 H1948 0.950 . S
C1956 C1957 1.386 . S
C1956 C1958 1.391 . S
C1957 C1956 1.386 . S
C1957 C1961 1.393 . S
C1958 H1950 0.950 1_565 S
C1958 C1956 1.391 . S
C1958 C1959 1.400 . S
C1959 C1958 1.400 . S
C1959 C1960 1.398 . S
C1959 C1965 1.491 1_565 S
C1960 H1951 0.950 . S
C1960 C1959 1.398 . S
C1960 C1961 1.391 . S
C1961 H1949 0.950 . S
C1961 C1957 1.393 . S
C1961 C1960 1.391 . S
C1962 H1952 0.950 . S
C1962 C1963 1.386 . S
C1962 C1964 1.391 . S
C1963 C1962 1.386 . S
C1963 C1967 1.393 . S
C1964 H1953 0.950 1_545 S
C1964 C1962 1.391 . S
C1964 C1965 1.400 . S
C1965 C1959 1.491 1_545 S
C1965 C1964 1.400 . S
C1965 C1966 1.398 . S
C1966 H1954 0.950 . S
C1966 C1965 1.398 . S
C1966 C1967 1.391 . S
C1967 H1955 0.950 . S
C1967 C1963 1.393 . S
C1967 C1966 1.391 . S
H1968 C1976 0.950 . S
H1969 C1981 0.950 . S
H1970 C1978 0.950 . S
H1971 C1980 0.950 . S
H1972 C1982 0.950 . S
H1973 C1984 0.950 . S
H1974 C1986 0.950 . S
H1975 C1987 0.950 . S
C1976 H1968 0.950 . S
C1976 C1977 1.386 . S
C1976 C1978 1.391 . S
C1977 C1976 1.386 . S
C1977 C1981 1.393 . S
C1978 H1970 0.950 . S
C1978 C1976 1.391 . S
C1978 C1979 1.400 . S
C1979 C1978 1.400 . S
C1979 C1980 1.398 . S
C1979 C1985 1.491 . S
C1980 H1971 0.950 . S
C1980 C1979 1.398 . S
C1980 C1981 1.391 . S
C1981 H1969 0.950 . S
C1981 C1977 1.393 . S
C1981 C1980 1.391 . S
C1982 H1972 0.950 . S
C1982 C1983 1.386 . S
C1982 C1984 1.391 . S
C1983 C1982 1.386 . S
C1983 C1987 1.393 . S
C1984 H1973 0.950 . S
C1984 C1982 1.391 . S
C1984 C1985 1.400 . S
C1985 C1979 1.491 . S
C1985 C1984 1.400 . S
C1985 C1986 1.398 . S
C1986 H1974 0.950 . S
C1986 C1985 1.398 . S
C1986 C1987 1.391 . S
C1987 H1975 0.950 . S
C1987 C1983 1.393 . S
C1987 C1986 1.391 . S
H1988 C1996 0.950 . S
H1989 C2001 0.950 . S
H1990 C1998 0.950 . S
H1991 C2000 0.950 . S
H1992 C2002 0.950 . S
H1993 C2004 0.950 . S
H1994 C2006 0.950 . S
H1995 C2007 0.950 . S
C1996 H1988 0.950 . S
C1996 C1997 1.386 . S
C1996 C1998 1.391 . S
C1997 C1996 1.386 . S
C1997 C2001 1.393 . S
C1998 H1990 0.950 . S
C1998 C1996 1.391 . S
C1998 C1999 1.400 . S
C1999 C1998 1.400 . S
C1999 C2000 1.398 . S
C1999 C2005 1.491 . S
C2000 H1991 0.950 . S
C2000 C1999 1.398 . S
C2000 C2001 1.391 . S
C2001 H1989 0.950 . S
C2001 C1997 1.393 . S
C2001 C2000 1.391 . S
C2002 H1992 0.950 . S
C2002 C2003 1.386 . S
C2002 C2004 1.391 . S
C2003 C2002 1.386 . S
C2003 C2007 1.393 . S
C2004 H1993 0.950 . S
C2004 C2002 1.391 . S
C2004 C2005 1.400 . S
C2005 C1999 1.491 . S
C2005 C2004 1.400 . S
C2005 C2006 1.398 . S
C2006 H1994 0.950 . S
C2006 C2005 1.398 . S
C2006 C2007 1.391 . S
C2007 H1995 0.950 . S
C2007 C2003 1.393 . S
C2007 C2006 1.391 . S
H2008 C2016 0.950 . S
H2009 C2021 0.950 . S
H2010 C2018 0.950 . S
H2011 C2020 0.950 . S
H2012 C2022 0.950 . S
H2013 C2024 0.950 . S
H2014 C2026 0.950 . S
H2015 C2027 0.950 . S
C2016 H2008 0.950 . S
C2016 C2017 1.386 . S
C2016 C2018 1.391 . S
C2017 C2016 1.386 . S
C2017 C2021 1.393 . S
C2018 H2010 0.950 . S
C2018 C2016 1.391 . S
C2018 C2019 1.400 . S
C2019 C2018 1.400 . S
C2019 C2020 1.398 . S
C2019 C2025 1.491 . S
C2020 H2011 0.950 . S
C2020 C2019 1.398 . S
C2020 C2021 1.391 . S
C2021 H2009 0.950 . S
C2021 C2017 1.393 . S
C2021 C2020 1.391 . S
C2022 H2012 0.950 . S
C2022 C2023 1.386 . S
C2022 C2024 1.391 . S
C2023 C2022 1.386 . S
C2023 C2027 1.393 . S
C2024 H2013 0.950 . S
C2024 C2022 1.391 . S
C2024 C2025 1.400 . S
C2025 C2019 1.491 . S
C2025 C2024 1.400 . S
C2025 C2026 1.398 . S
C2026 H2014 0.950 . S
C2026 C2025 1.398 . S
C2026 C2027 1.391 . S
C2027 H2015 0.950 . S
C2027 C2023 1.393 . S
C2027 C2026 1.391 . S
H2028 C2036 0.950 . S
H2029 C2041 0.950 . S
H2030 C2038 0.950 . S
H2031 C2040 0.950 1_554 S
H2032 C2042 0.950 . S
H2033 C2044 0.950 . S
H2034 C2046 0.950 1_556 S
H2035 C2047 0.950 . S
C2036 H2028 0.950 . S
C2036 C2037 1.386 . S
C2036 C2038 1.391 . S
C2037 C2036 1.386 . S
C2037 C2041 1.393 . S
C2038 H2030 0.950 . S
C2038 C2036 1.391 . S
C2038 C2039 1.400 . S
C2039 C2038 1.400 . S
C2039 C2040 1.398 . S
C2039 C2045 1.491 1_556 S
C2040 H2031 0.950 1_556 S
C2040 C2039 1.398 . S
C2040 C2041 1.391 . S
C2041 H2029 0.950 . S
C2041 C2037 1.393 . S
C2041 C2040 1.391 . S
C2042 H2032 0.950 . S
C2042 C2043 1.386 . S
C2042 C2044 1.391 . S
C2043 C2042 1.386 . S
C2043 C2047 1.393 . S
C2044 H2033 0.950 . S
C2044 C2042 1.391 . S
C2044 C2045 1.400 . S
C2045 C2039 1.491 1_554 S
C2045 C2044 1.400 . S
C2045 C2046 1.398 . S
C2046 H2034 0.950 1_554 S
C2046 C2045 1.398 . S
C2046 C2047 1.391 . S
C2047 H2035 0.950 . S
C2047 C2043 1.393 . S
C2047 C2046 1.391 . S
H2048 C2056 0.950 . S
H2049 C2061 0.950 . S
H2050 C2058 0.950 . S
H2051 C2060 0.950 . S
H2052 C2062 0.950 . S
H2053 C2064 0.950 . S
H2054 C2066 0.950 . S
H2055 C2067 0.950 . S
C2056 H2048 0.950 . S
C2056 C2057 1.386 . S
C2056 C2058 1.391 . S
C2057 C2056 1.386 . S
C2057 C2061 1.393 . S
C2058 H2050 0.950 . S
C2058 C2056 1.391 . S
C2058 C2059 1.400 . S
C2059 C2058 1.400 . S
C2059 C2060 1.398 . S
C2059 C2065 1.491 . S
C2060 H2051 0.950 . S
C2060 C2059 1.398 . S
C2060 C2061 1.391 . S
C2061 H2049 0.950 . S
C2061 C2057 1.393 . S
C2061 C2060 1.391 . S
C2062 H2052 0.950 . S
C2062 C2063 1.386 . S
C2062 C2064 1.391 . S
C2063 C2062 1.386 . S
C2063 C2067 1.393 . S
C2064 H2053 0.950 . S
C2064 C2062 1.391 . S
C2064 C2065 1.400 . S
C2065 C2059 1.491 . S
C2065 C2064 1.400 . S
C2065 C2066 1.398 . S
C2066 H2054 0.950 . S
C2066 C2065 1.398 . S
C2066 C2067 1.391 . S
C2067 H2055 0.950 . S
C2067 C2063 1.393 . S
C2067 C2066 1.391 . S
H2068 C2076 0.950 . S
H2069 C2081 0.950 . S
H2070 C2078 0.950 . S
H2071 C2080 0.915 1_554 S
H2072 C2082 0.950 . S
H2073 C2084 0.950 . S
H2074 C2086 0.915 1_556 S
H2075 C2087 0.950 . S
C2076 H2068 0.950 . S
C2076 C2077 1.386 . S
C2076 C2078 1.391 . S
C2077 C2076 1.386 . S
C2077 C2081 1.393 . S
C2078 H2070 0.950 . S
C2078 C2076 1.391 . S
C2078 C2079 1.400 . S
C2079 C2078 1.400 . S
C2079 C2080 1.398 . S
C2079 C2085 1.491 1_556 S
C2080 H2071 0.915 1_556 S
C2080 C2079 1.398 . S
C2080 C2081 1.391 . S
C2081 H2069 0.950 . S
C2081 C2077 1.393 . S
C2081 C2080 1.391 . S
C2082 H2072 0.950 . S
C2082 C2083 1.386 . S
C2082 C2084 1.391 . S
C2083 C2082 1.386 . S
C2083 C2087 1.393 . S
C2084 H2073 0.950 . S
C2084 C2082 1.391 . S
C2084 C2085 1.400 . S
C2085 C2079 1.491 1_554 S
C2085 C2084 1.400 . S
C2085 C2086 1.398 . S
C2086 H2074 0.915 1_554 S
C2086 C2085 1.398 . S
C2086 C2087 1.391 . S
C2087 H2075 0.950 . S
C2087 C2083 1.393 . S
C2087 C2086 1.391 . S
H2088 C2096 0.950 . S
H2089 C2101 0.950 . S
H2090 C2098 0.950 . S
H2091 C2100 0.992 . S
H2092 C2102 0.950 . S
H2093 C2104 0.950 . S
H2094 C2106 0.992 . S
H2095 C2107 0.950 . S
C2096 H2088 0.950 . S
C2096 C2097 1.386 . S
C2096 C2098 1.391 . S
C2097 C2096 1.386 . S
C2097 C2101 1.393 . S
C2098 H2090 0.950 . S
C2098 C2096 1.391 . S
C2098 C2099 1.400 . S
C2099 C2098 1.400 . S
C2099 C2100 1.383 1_565 S
C2099 C2105 1.491 1_565 S
C2100 H2091 0.992 . S
C2100 C2099 1.383 1_545 S
C2100 C2101 1.366 1_545 S
C2101 H2089 0.950 . S
C2101 C2097 1.393 . S
C2101 C2100 1.366 1_565 S
C2102 H2092 0.950 . S
C2102 C2103 1.386 . S
C2102 C2104 1.391 . S
C2103 C2102 1.386 . S
C2103 C2107 1.393 . S
C2104 H2093 0.950 . S
C2104 C2102 1.391 . S
C2104 C2105 1.400 . S
C2105 C2099 1.491 1_545 S
C2105 C2104 1.400 . S
C2105 C2106 1.383 1_545 S
C2106 H2094 0.992 . S
C2106 C2105 1.383 1_565 S
C2106 C2107 1.366 1_565 S
C2107 H2095 0.950 . S
C2107 C2103 1.393 . S
C2107 C2106 1.366 1_545 S
H2108 C2116 0.950 . S
H2109 C2121 0.950 . S
H2110 C2118 0.950 . S
H2111 C2120 0.950 . S
H2112 C2122 0.950 . S
H2113 C2124 0.950 . S
H2114 C2126 0.950 . S
H2115 C2127 0.950 . S
C2116 H2108 0.950 . S
C2116 C2117 1.386 . S
C2116 C2118 1.391 . S
C2117 C2116 1.386 . S
C2117 C2121 1.393 . S
C2118 H2110 0.950 . S
C2118 C2116 1.391 . S
C2118 C2119 1.400 . S
C2119 C2118 1.400 . S
C2119 C2120 1.398 . S
C2119 C2125 1.491 . S
C2120 H2111 0.950 . S
C2120 C2119 1.398 . S
C2120 C2121 1.391 . S
C2121 H2109 0.950 . S
C2121 C2117 1.393 . S
C2121 C2120 1.391 . S
C2122 H2112 0.950 . S
C2122 C2123 1.386 . S
C2122 C2124 1.391 . S
C2123 C2122 1.386 . S
C2123 C2127 1.393 . S
C2124 H2113 0.950 . S
C2124 C2122 1.391 . S
C2124 C2125 1.400 . S
C2125 C2119 1.491 . S
C2125 C2124 1.400 . S
C2125 C2126 1.398 . S
C2126 H2114 0.950 . S
C2126 C2125 1.398 . S
C2126 C2127 1.391 . S
C2127 H2115 0.950 . S
C2127 C2123 1.393 . S
C2127 C2126 1.391 . S
H2128 C2136 0.950 . S
H2129 C2141 0.950 . S
H2130 C2138 0.950 . S
H2131 C2140 0.950 1_545 S
H2132 C2142 0.950 . S
H2133 C2144 0.950 . S
H2134 C2146 0.950 1_565 S
H2135 C2147 0.950 . S
C2136 H2128 0.950 . S
C2136 C2137 1.386 . S
C2136 C2138 1.391 . S
C2137 C2136 1.386 . S
C2137 C2141 1.393 . S
C2138 H2130 0.950 . S
C2138 C2136 1.391 . S
C2138 C2139 1.400 . S
C2139 C2138 1.400 . S
C2139 C2140 1.398 . S
C2139 C2145 1.491 1_565 S
C2140 H2131 0.950 1_565 S
C2140 C2139 1.398 . S
C2140 C2141 1.391 . S
C2141 H2129 0.950 . S
C2141 C2137 1.393 . S
C2141 C2140 1.391 . S
C2142 H2132 0.950 . S
C2142 C2143 1.386 . S
C2142 C2144 1.391 . S
C2143 C2142 1.386 . S
C2143 C2147 1.393 . S
C2144 H2133 0.950 . S
C2144 C2142 1.391 . S
C2144 C2145 1.400 . S
C2145 C2139 1.491 1_545 S
C2145 C2144 1.400 . S
C2145 C2146 1.398 . S
C2146 H2134 0.950 1_545 S
C2146 C2145 1.398 . S
C2146 C2147 1.391 . S
C2147 H2135 0.950 . S
C2147 C2143 1.393 . S
C2147 C2146 1.391 . S
H2148 C2156 0.950 . S
H2149 C2161 0.950 . S
H2150 C2158 0.950 . S
H2151 C2160 0.950 . S
H2152 C2162 0.950 . S
H2153 C2164 0.950 . S
H2154 C2166 0.950 . S
H2155 C2167 0.950 . S
C2156 H2148 0.950 . S
C2156 C2157 1.386 . S
C2156 C2158 1.391 . S
C2157 C2156 1.386 . S
C2157 C2161 1.393 . S
C2158 H2150 0.950 . S
C2158 C2156 1.391 . S
C2158 C2159 1.400 . S
C2159 C2158 1.400 . S
C2159 C2160 1.398 . S
C2159 C2165 1.491 . S
C2160 H2151 0.950 . S
C2160 C2159 1.398 . S
C2160 C2161 1.391 . S
C2161 H2149 0.950 . S
C2161 C2157 1.393 . S
C2161 C2160 1.391 . S
C2162 H2152 0.950 . S
C2162 C2163 1.386 . S
C2162 C2164 1.391 . S
C2163 C2162 1.386 . S
C2163 C2167 1.393 . S
C2164 H2153 0.950 . S
C2164 C2162 1.391 . S
C2164 C2165 1.400 . S
C2165 C2159 1.491 . S
C2165 C2164 1.400 . S
C2165 C2166 1.398 . S
C2166 H2154 0.950 . S
C2166 C2165 1.398 . S
C2166 C2167 1.391 . S
C2167 H2155 0.950 . S
C2167 C2163 1.393 . S
C2167 C2166 1.391 . S
H2168 C2176 0.950 . S
H2169 C2181 0.950 . S
H2170 C2178 0.950 . S
H2171 C2180 0.950 . S
H2172 C2182 0.950 . S
H2173 C2184 0.950 . S
H2174 C2186 0.950 . S
H2175 C2187 0.950 . S
C2176 H2168 0.950 . S
C2176 C2177 1.386 . S
C2176 C2178 1.391 . S
C2177 C2176 1.386 . S
C2177 C2181 1.393 . S
C2178 H2170 0.950 . S
C2178 C2176 1.391 . S
C2178 C2179 1.400 . S
C2179 C2178 1.400 . S
C2179 C2180 1.398 . S
C2179 C2185 1.491 . S
C2180 H2171 0.950 . S
C2180 C2179 1.398 . S
C2180 C2181 1.391 . S
C2181 H2169 0.950 . S
C2181 C2177 1.393 . S
C2181 C2180 1.391 . S
C2182 H2172 0.950 . S
C2182 C2183 1.386 . S
C2182 C2184 1.391 . S
C2183 C2182 1.386 . S
C2183 C2187 1.393 . S
C2184 H2173 0.950 . S
C2184 C2182 1.391 . S
C2184 C2185 1.400 . S
C2185 C2179 1.491 . S
C2185 C2184 1.400 . S
C2185 C2186 1.398 . S
C2186 H2174 0.950 . S
C2186 C2185 1.398 . S
C2186 C2187 1.391 . S
C2187 H2175 0.950 . S
C2187 C2183 1.393 . S
C2187 C2186 1.391 . S
H2188 C2196 0.950 . S
H2189 C2201 0.950 . S
H2190 C2198 0.950 . S
H2191 C2200 0.950 . S
H2192 C2202 0.950 . S
H2193 C2204 0.950 . S
H2194 C2206 0.950 . S
H2195 C2207 0.950 . S
C2196 H2188 0.950 . S
C2196 C2197 1.386 . S
C2196 C2198 1.391 . S
C2197 C2196 1.386 . S
C2197 C2201 1.393 . S
C2198 H2190 0.950 . S
C2198 C2196 1.391 . S
C2198 C2199 1.400 . S
C2199 C2198 1.400 . S
C2199 C2200 1.398 . S
C2199 C2205 1.491 . S
C2200 H2191 0.950 . S
C2200 C2199 1.398 . S
C2200 C2201 1.391 . S
C2201 H2189 0.950 . S
C2201 C2197 1.393 . S
C2201 C2200 1.391 . S
C2202 H2192 0.950 . S
C2202 C2203 1.386 . S
C2202 C2204 1.391 . S
C2203 C2202 1.386 . S
C2203 C2207 1.393 . S
C2204 H2193 0.950 . S
C2204 C2202 1.391 . S
C2204 C2205 1.400 . S
C2205 C2199 1.491 . S
C2205 C2204 1.400 . S
C2205 C2206 1.398 . S
C2206 H2194 0.950 . S
C2206 C2205 1.398 . S
C2206 C2207 1.391 . S
C2207 H2195 0.950 . S
C2207 C2203 1.393 . S
C2207 C2206 1.391 . S
H2208 C2216 0.950 . S
H2209 C2221 0.950 . S
H2210 C2218 0.950 . S
H2211 C2220 0.977 . S
H2212 C2222 0.950 . S
H2213 C2224 0.950 . S
H2214 C2226 0.950 . S
H2215 C2227 0.950 . S
C2216 H2208 0.950 . S
C2216 C2217 1.386 . S
C2216 C2218 1.391 . S
C2217 C2216 1.386 . S
C2217 C2221 1.393 . S
C2218 H2210 0.950 . S
C2218 C2216 1.391 . S
C2218 C2219 1.400 . S
C2219 C2218 1.400 . S
C2219 C2220 1.398 . S
C2219 C2225 1.493 . S
C2220 H2211 0.977 . S
C2220 C2219 1.398 . S
C2220 C2221 1.391 . S
C2221 H2209 0.950 . S
C2221 C2217 1.393 . S
C2221 C2220 1.391 . S
C2222 H2212 0.950 . S
C2222 C2223 1.386 . S
C2222 C2224 1.391 . S
C2223 C2222 1.386 . S
C2223 C2227 1.393 . S
C2224 H2213 0.950 . S
C2224 C2222 1.391 . S
C2224 C2225 1.397 1_655 S
C2225 C2219 1.493 . S
C2225 C2224 1.397 1_455 S
C2225 C2226 1.399 . S
C2226 H2214 0.950 . S
C2226 C2225 1.399 . S
C2226 C2227 1.391 1_455 S
C2227 H2215 0.950 . S
C2227 C2223 1.393 . S
C2227 C2226 1.391 1_655 S
H2228 C2236 0.928 1_455 S
H2229 C2241 0.950 . S
H2230 C2238 0.950 . S
H2231 C2240 0.950 . S
H2232 C2242 0.950 . S
H2233 C2244 0.950 1_655 S
H2234 C2246 0.950 . S
H2235 C2247 0.950 . S
C2236 H2228 0.928 1_655 S
C2236 C2237 1.386 . S
C2236 C2238 1.391 1_655 S
C2237 C2236 1.386 . S
C2237 C2241 1.393 . S
C2238 H2230 0.950 . S
C2238 C2236 1.391 1_455 S
C2238 C2239 1.401 1_455 S
C2239 C2238 1.401 1_655 S
C2239 C2240 1.395 . S
C2239 C2245 1.492 1_655 S
C2240 H2231 0.950 . S
C2240 C2239 1.395 . S
C2240 C2241 1.391 . S
C2241 H2229 0.950 . S
C2241 C2237 1.393 . S
C2241 C2240 1.391 . S
C2242 H2232 0.950 . S
C2242 C2243 1.386 . S
C2242 C2244 1.391 . S
C2243 C2242 1.386 . S
C2243 C2247 1.393 . S
C2244 H2233 0.950 1_455 S
C2244 C2242 1.391 . S
C2244 C2245 1.400 . S
C2245 C2239 1.492 1_455 S
C2245 C2244 1.400 . S
C2245 C2246 1.398 . S
C2246 H2234 0.950 . S
C2246 C2245 1.398 . S
C2246 C2247 1.391 . S
C2247 H2235 0.950 . S
C2247 C2243 1.393 . S
C2247 C2246 1.391 . S
H2248 C2256 0.950 . S
H2249 C2261 0.950 . S
H2250 C2258 0.950 1_455 S
H2251 C2260 0.950 . S
H2252 C2262 0.930 1_655 S
H2253 C2264 0.950 . S
H2254 C2266 0.950 . S
H2255 C2267 0.950 . S
C2256 H2248 0.950 . S
C2256 C2257 1.386 . S
C2256 C2258 1.391 . S
C2257 C2256 1.386 . S
C2257 C2261 1.393 . S
C2258 H2250 0.950 1_655 S
C2258 C2256 1.391 . S
C2258 C2259 1.400 . S
C2259 C2258 1.400 . S
C2259 C2260 1.398 . S
C2259 C2265 1.490 1_655 S
C2260 H2251 0.950 . S
C2260 C2259 1.398 . S
C2260 C2261 1.391 . S
C2261 H2249 0.950 . S
C2261 C2257 1.393 . S
C2261 C2260 1.391 . S
C2262 H2252 0.930 1_455 S
C2262 C2263 1.386 . S
C2262 C2264 1.391 1_455 S
C2263 C2262 1.386 . S
C2263 C2267 1.393 . S
C2264 H2253 0.950 . S
C2264 C2262 1.391 1_655 S
C2264 C2265 1.400 1_655 S
C2265 C2259 1.490 1_455 S
C2265 C2264 1.400 1_455 S
C2265 C2266 1.398 . S
C2266 H2254 0.950 . S
C2266 C2265 1.398 . S
C2266 C2267 1.391 . S
C2267 H2255 0.950 . S
C2267 C2263 1.393 . S
C2267 C2266 1.391 . S
H2268 C2276 0.950 . S
H2269 C2281 0.950 . S
H2270 C2278 0.950 . S
H2271 C2280 0.924 1_455 S
H2272 C2282 0.950 . S
H2273 C2284 0.950 . S
H2274 C2286 0.950 . S
H2275 C2287 0.950 . S
C2276 H2268 0.950 . S
C2276 C2277 1.386 . S
C2276 C2278 1.391 . S
C2277 C2276 1.386 . S
C2277 C2281 1.393 . S
C2278 H2270 0.950 . S
C2278 C2276 1.391 . S
C2278 C2279 1.400 . S
C2279 C2278 1.400 . S
C2279 C2280 1.398 . S
C2279 C2285 1.493 . S
C2280 H2271 0.924 1_655 S
C2280 C2279 1.398 . S
C2280 C2281 1.391 . S
C2281 H2269 0.950 . S
C2281 C2277 1.393 . S
C2281 C2280 1.391 . S
C2282 H2272 0.950 . S
C2282 C2283 1.386 . S
C2282 C2284 1.391 . S
C2283 C2282 1.386 . S
C2283 C2287 1.393 . S
C2284 H2273 0.950 . S
C2284 C2282 1.391 . S
C2284 C2285 1.397 1_455 S
C2285 C2279 1.493 . S
C2285 C2284 1.397 1_655 S
C2285 C2286 1.399 . S
C2286 H2274 0.950 . S
C2286 C2285 1.399 . S
C2286 C2287 1.391 1_655 S
C2287 H2275 0.950 . S
C2287 C2283 1.393 . S
C2287 C2286 1.391 1_455 S
H2288 C2296 0.950 . S
H2289 C2301 0.950 . S
H2290 C2298 0.950 . S
H2291 C2300 0.950 1_655 S
H2292 C2302 0.950 . S
H2293 C2304 0.950 . S
H2294 C2306 0.950 . S
H2295 C2307 0.950 1_455 S
C2296 H2288 0.950 . S
C2296 C2297 1.386 . S
C2296 C2298 1.391 . S
C2297 C2296 1.386 . S
C2297 C2301 1.393 . S
C2298 H2290 0.950 . S
C2298 C2296 1.391 . S
C2298 C2299 1.400 . S
C2299 C2298 1.400 . S
C2299 C2300 1.398 . S
C2299 C2305 1.494 1_455 S
C2300 H2291 0.950 1_455 S
C2300 C2299 1.398 . S
C2300 C2301 1.391 . S
C2301 H2289 0.950 . S
C2301 C2297 1.393 . S
C2301 C2300 1.391 . S
C2302 H2292 0.950 . S
C2302 C2303 1.386 . S
C2302 C2304 1.391 . S
C2303 C2302 1.386 . S
C2303 C2307 1.393 . S
C2304 H2293 0.950 . S
C2304 C2302 1.391 . S
C2304 C2305 1.394 . S
C2305 C2299 1.494 1_655 S
C2305 C2304 1.394 . S
C2305 C2306 1.401 1_655 S
C2306 H2294 0.950 . S
C2306 C2305 1.401 1_455 S
C2306 C2307 1.391 1_455 S
C2307 H2295 0.950 1_655 S
C2307 C2303 1.393 . S
C2307 C2306 1.391 1_655 S
H2308 C2316 0.950 . S
H2309 C2321 0.950 . S
H2310 C2318 0.950 . S
H2311 C2320 0.950 . S
H2312 C2322 0.950 . S
H2313 C2324 0.950 . S
H2314 C2326 0.950 . S
H2315 C2327 0.950 . S
C2316 H2308 0.950 . S
C2316 C2317 1.386 . S
C2316 C2318 1.391 . S
C2317 C2316 1.386 . S
C2317 C2321 1.393 . S
C2318 H2310 0.950 . S
C2318 C2316 1.391 . S
C2318 C2319 1.400 . S
C2319 C2318 1.400 . S
C2319 C2320 1.398 . S
C2319 C2325 1.491 . S
C2320 H2311 0.950 . S
C2320 C2319 1.398 . S
C2320 C2321 1.391 . S
C2321 H2309 0.950 . S
C2321 C2317 1.393 . S
C2321 C2320 1.391 . S
C2322 H2312 0.950 . S
C2322 C2323 1.386 . S
C2322 C2324 1.391 . S
C2323 C2322 1.386 . S
C2323 C2327 1.393 . S
C2324 H2313 0.950 . S
C2324 C2322 1.391 . S
C2324 C2325 1.400 . S
C2325 C2319 1.491 . S
C2325 C2324 1.400 . S
C2325 C2326 1.398 . S
C2326 H2314 0.950 . S
C2326 C2325 1.398 . S
C2326 C2327 1.391 . S
C2327 H2315 0.950 . S
C2327 C2323 1.393 . S
C2327 C2326 1.391 . S
H2328 C2336 0.950 . S
H2329 C2341 0.950 . S
H2330 C2338 0.950 . S
H2331 C2340 0.950 . S
H2332 C2342 0.950 . S
H2333 C2344 0.950 . S
H2334 C2346 0.950 . S
H2335 C2347 0.950 . S
C2336 H2328 0.950 . S
C2336 C2337 1.386 . S
C2336 C2338 1.391 . S
C2337 C2336 1.386 . S
C2337 C2341 1.393 . S
C2338 H2330 0.950 . S
C2338 C2336 1.391 . S
C2338 C2339 1.400 . S
C2339 C2338 1.400 . S
C2339 C2340 1.398 . S
C2339 C2345 1.480 1_655 S
C2340 H2331 0.950 . S
C2340 C2339 1.398 . S
C2340 C2341 1.391 . S
C2341 H2329 0.950 . S
C2341 C2337 1.393 . S
C2341 C2340 1.391 . S
C2342 H2332 0.950 . S
C2342 C2343 1.386 . S
C2342 C2344 1.391 . S
C2343 C2342 1.386 . S
C2343 C2347 1.393 . S
C2344 H2333 0.950 . S
C2344 C2342 1.391 . S
C2344 C2345 1.406 . S
C2345 C2339 1.480 1_455 S
C2345 C2344 1.406 . S
C2345 C2346 1.404 . S
C2346 H2334 0.950 . S
C2346 C2345 1.404 . S
C2346 C2347 1.391 . S
C2347 H2335 0.950 . S
C2347 C2343 1.393 . S
C2347 C2346 1.391 . S
H2348 C2356 0.950 . S
H2349 C2361 0.950 . S
H2350 C2358 0.950 . S
H2351 C2360 0.950 . S
H2352 C2362 0.950 . S
H2353 C2364 0.950 . S
H2354 C2366 0.950 . S
H2355 C2367 0.950 . S
C2356 H2348 0.950 . S
C2356 C2357 1.386 . S
C2356 C2358 1.391 . S
C2357 C2356 1.386 . S
C2357 C2361 1.393 . S
C2358 H2350 0.950 . S
C2358 C2356 1.391 . S
C2358 C2359 1.400 . S
C2359 C2358 1.400 . S
C2359 C2360 1.398 . S
C2359 C2365 1.491 . S
C2360 H2351 0.950 . S
C2360 C2359 1.398 . S
C2360 C2361 1.391 . S
C2361 H2349 0.950 . S
C2361 C2357 1.393 . S
C2361 C2360 1.391 . S
C2362 H2352 0.950 . S
C2362 C2363 1.386 . S
C2362 C2364 1.391 . S
C2363 C2362 1.386 . S
C2363 C2367 1.393 . S
C2364 H2353 0.950 . S
C2364 C2362 1.391 . S
C2364 C2365 1.400 . S
C2365 C2359 1.491 . S
C2365 C2364 1.400 . S
C2365 C2366 1.398 . S
C2366 H2354 0.950 . S
C2366 C2365 1.398 . S
C2366 C2367 1.391 . S
C2367 H2355 0.950 . S
C2367 C2363 1.393 . S
C2367 C2366 1.391 . S
H2368 C2376 0.950 . S
H2369 C2381 0.950 . S
H2370 C2378 0.950 . S
H2371 C2380 0.950 . S
H2372 C2382 0.950 . S
H2373 C2384 0.950 . S
H2374 C2386 0.939 1_545 S
H2375 C2387 0.950 . S
C2376 H2368 0.950 . S
C2376 C2377 1.386 . S
C2376 C2378 1.391 . S
C2377 C2376 1.386 . S
C2377 C2381 1.393 . S
C2378 H2370 0.950 . S
C2378 C2376 1.391 . S
C2378 C2379 1.400 . S
C2379 C2378 1.400 . S
C2379 C2380 1.398 . S
C2379 C2385 1.495 . S
C2380 H2371 0.950 . S
C2380 C2379 1.398 . S
C2380 C2381 1.391 . S
C2381 H2369 0.950 . S
C2381 C2377 1.393 . S
C2381 C2380 1.391 . S
C2382 H2372 0.950 . S
C2382 C2383 1.386 . S
C2382 C2384 1.391 . S
C2383 C2382 1.386 . S
C2383 C2387 1.393 . S
C2384 H2373 0.950 . S
C2384 C2382 1.391 . S
C2384 C2385 1.398 1_565 S
C2385 C2379 1.495 . S
C2385 C2384 1.398 1_545 S
C2385 C2386 1.397 1_545 S
C2386 H2374 0.939 1_565 S
C2386 C2385 1.397 1_565 S
C2386 C2387 1.391 . S
C2387 H2375 0.950 . S
C2387 C2383 1.393 . S
C2387 C2386 1.391 . S
H2388 C2396 0.950 . S
H2389 C2401 0.950 . S
H2390 C2398 0.950 . S
H2391 C2400 0.950 . S
H2392 C2402 0.950 . S
H2393 C2404 0.950 . S
H2394 C2406 0.950 . S
H2395 C2407 0.950 . S
C2396 H2388 0.950 . S
C2396 C2397 1.386 . S
C2396 C2398 1.391 . S
C2397 C2396 1.386 . S
C2397 C2401 1.393 . S
C2398 H2390 0.950 . S
C2398 C2396 1.391 . S
C2398 C2399 1.400 . S
C2399 C2398 1.400 . S
C2399 C2400 1.398 . S
C2399 C2405 1.491 . S
C2400 H2391 0.950 . S
C2400 C2399 1.398 . S
C2400 C2401 1.391 . S
C2401 H2389 0.950 . S
C2401 C2397 1.393 . S
C2401 C2400 1.391 . S
C2402 H2392 0.950 . S
C2402 C2403 1.386 . S
C2402 C2404 1.391 . S
C2403 C2402 1.386 . S
C2403 C2407 1.393 . S
C2404 H2393 0.950 . S
C2404 C2402 1.391 . S
C2404 C2405 1.400 . S
C2405 C2399 1.491 . S
C2405 C2404 1.400 . S
C2405 C2406 1.398 . S
C2406 H2394 0.950 . S
C2406 C2405 1.398 . S
C2406 C2407 1.391 . S
C2407 H2395 0.950 . S
C2407 C2403 1.393 . S
C2407 C2406 1.391 . S
H2408 C2416 0.950 . S
H2409 C2421 0.950 . S
H2410 C2418 0.950 . S
H2411 C2420 0.950 . S
H2412 C2422 0.950 . S
H2413 C2424 0.950 . S
H2414 C2426 0.950 . S
H2415 C2427 0.950 . S
C2416 H2408 0.950 . S
C2416 C2417 1.386 . S
C2416 C2418 1.391 . S
C2417 C2416 1.386 . S
C2417 C2421 1.393 . S
C2418 H2410 0.950 . S
C2418 C2416 1.391 . S
C2418 C2419 1.400 . S
C2419 C2418 1.400 . S
C2419 C2420 1.398 . S
C2419 C2425 1.491 . S
C2420 H2411 0.950 . S
C2420 C2419 1.398 . S
C2420 C2421 1.391 . S
C2421 H2409 0.950 . S
C2421 C2417 1.393 . S
C2421 C2420 1.391 . S
C2422 H2412 0.950 . S
C2422 C2423 1.386 . S
C2422 C2424 1.391 . S
C2423 C2422 1.386 . S
C2423 C2427 1.393 . S
C2424 H2413 0.950 . S
C2424 C2422 1.391 . S
C2424 C2425 1.400 . S
C2425 C2419 1.491 . S
C2425 C2424 1.400 . S
C2425 C2426 1.398 . S
C2426 H2414 0.950 . S
C2426 C2425 1.398 . S
C2426 C2427 1.391 . S
C2427 H2415 0.950 . S
C2427 C2423 1.393 . S
C2427 C2426 1.391 . S
H2428 C2436 0.950 . S
H2429 C2441 0.950 . S
H2430 C2438 0.950 . S
H2431 C2440 0.950 . S
H2432 C2442 0.950 . S
H2433 C2444 0.950 . S
H2434 C2446 0.950 1_554 S
H2435 C2447 0.950 . S
C2436 H2428 0.950 . S
C2436 C2437 1.386 . S
C2436 C2438 1.391 . S
C2437 C2436 1.386 . S
C2437 C2441 1.393 . S
C2438 H2430 0.950 . S
C2438 C2436 1.391 . S
C2438 C2439 1.399 1_554 S
C2439 C2438 1.399 1_556 S
C2439 C2440 1.399 . S
C2439 C2445 1.491 . S
C2440 H2431 0.950 . S
C2440 C2439 1.399 . S
C2440 C2441 1.391 1_556 S
C2441 H2429 0.950 . S
C2441 C2437 1.393 . S
C2441 C2440 1.391 1_554 S
C2442 H2432 0.950 . S
C2442 C2443 1.386 . S
C2442 C2444 1.391 . S
C2443 C2442 1.386 . S
C2443 C2447 1.393 . S
C2444 H2433 0.950 . S
C2444 C2442 1.391 . S
C2444 C2445 1.400 . S
C2445 C2439 1.491 . S
C2445 C2444 1.400 . S
C2445 C2446 1.398 . S
C2446 H2434 0.950 1_556 S
C2446 C2445 1.398 . S
C2446 C2447 1.391 . S
C2447 H2435 0.950 . S
C2447 C2443 1.393 . S
C2447 C2446 1.391 . S
H2448 C2456 0.950 . S
H2449 C2461 0.950 . S
H2450 C2458 0.950 . S
H2451 C2460 0.950 . S
H2452 C2462 0.950 . S
H2453 C2464 0.950 1_545 S
H2454 C2466 0.950 . S
H2455 C2467 0.950 . S
C2456 H2448 0.950 . S
C2456 C2457 1.386 . S
C2456 C2458 1.391 1_545 S
C2457 C2456 1.386 . S
C2457 C2461 1.393 . S
C2458 H2450 0.950 . S
C2458 C2456 1.391 1_565 S
C2458 C2459 1.399 . S
C2459 C2458 1.399 . S
C2459 C2460 1.402 1_565 S
C2459 C2465 1.488 . S
C2460 H2451 0.950 . S
C2460 C2459 1.402 1_545 S
C2460 C2461 1.391 . S
C2461 H2449 0.950 . S
C2461 C2457 1.393 . S
C2461 C2460 1.391 . S
C2462 H2452 0.950 . S
C2462 C2463 1.386 . S
C2462 C2464 1.391 . S
C2463 C2462 1.386 . S
C2463 C2467 1.393 . S
C2464 H2453 0.950 1_565 S
C2464 C2462 1.391 . S
C2464 C2465 1.400 . S
C2465 C2459 1.488 . S
C2465 C2464 1.400 . S
C2465 C2466 1.398 . S
C2466 H2454 0.950 . S
C2466 C2465 1.398 . S
C2466 C2467 1.391 . S
C2467 H2455 0.950 . S
C2467 C2463 1.393 . S
C2467 C2466 1.391 . S
H2468 C2476 0.950 . S
H2469 C2481 0.950 . S
H2470 C2478 0.950 . S
H2471 C2480 0.950 . S
H2472 C2482 0.950 . S
H2473 C2484 0.950 . S
H2474 C2486 0.950 1_554 S
H2475 C2487 0.950 . S
C2476 H2468 0.950 . S
C2476 C2477 1.386 . S
C2476 C2478 1.391 . S
C2477 C2476 1.386 . S
C2477 C2481 1.393 . S
C2478 H2470 0.950 . S
C2478 C2476 1.391 . S
C2478 C2479 1.400 . S
C2479 C2478 1.400 . S
C2479 C2480 1.398 . S
C2479 C2485 1.495 . S
C2480 H2471 0.950 . S
C2480 C2479 1.398 . S
C2480 C2481 1.391 . S
C2481 H2469 0.950 . S
C2481 C2477 1.393 . S
C2481 C2480 1.391 . S
C2482 H2472 0.950 . S
C2482 C2483 1.386 . S
C2482 C2484 1.391 . S
C2483 C2482 1.386 . S
C2483 C2487 1.393 . S
C2484 H2473 0.950 . S
C2484 C2482 1.391 . S
C2484 C2485 1.397 1_556 S
C2485 C2479 1.495 . S
C2485 C2484 1.397 1_554 S
C2485 C2486 1.397 1_554 S
C2486 H2474 0.950 1_556 S
C2486 C2485 1.397 1_556 S
C2486 C2487 1.391 . S
C2487 H2475 0.950 . S
C2487 C2483 1.393 . S
C2487 C2486 1.391 . S
H2488 C2496 0.950 . S
H2489 C2501 0.950 . S
H2490 C2498 0.950 . S
H2491 C2500 0.950 . S
H2492 C2502 0.950 . S
H2493 C2504 0.950 . S
H2494 C2506 0.950 . S
H2495 C2507 0.950 . S
C2496 H2488 0.950 . S
C2496 C2497 1.386 . S
C2496 C2498 1.391 . S
C2497 C2496 1.386 . S
C2497 C2501 1.393 . S
C2498 H2490 0.950 . S
C2498 C2496 1.391 . S
C2498 C2499 1.400 . S
C2499 C2498 1.400 . S
C2499 C2500 1.398 . S
C2499 C2505 1.491 . S
C2500 H2491 0.950 . S
C2500 C2499 1.398 . S
C2500 C2501 1.391 . S
C2501 H2489 0.950 . S
C2501 C2497 1.393 . S
C2501 C2500 1.391 . S
C2502 H2492 0.950 . S
C2502 C2503 1.386 . S
C2502 C2504 1.391 . S
C2503 C2502 1.386 . S
C2503 C2507 1.393 . S
C2504 H2493 0.950 . S
C2504 C2502 1.391 . S
C2504 C2505 1.400 . S
C2505 C2499 1.491 . S
C2505 C2504 1.400 . S
C2505 C2506 1.398 . S
C2506 H2494 0.950 . S
C2506 C2505 1.398 . S
C2506 C2507 1.391 . S
C2507 H2495 0.950 . S
C2507 C2503 1.393 . S
C2507 C2506 1.391 . S
H2508 C2516 0.950 . S
H2509 C2521 0.950 . S
H2510 C2518 0.950 . S
H2511 C2520 0.950 . S
H2512 C2522 0.950 . S
H2513 C2524 0.950 . S
H2514 C2526 0.950 . S
H2515 C2527 0.950 . S
C2516 H2508 0.950 . S
C2516 C2517 1.386 . S
C2516 C2518 1.391 . S
C2517 C2516 1.386 . S
C2517 C2521 1.393 . S
C2518 H2510 0.950 . S
C2518 C2516 1.391 . S
C2518 C2519 1.400 . S
C2519 C2518 1.400 . S
C2519 C2520 1.398 . S
C2519 C2525 1.491 . S
C2520 H2511 0.950 . S
C2520 C2519 1.398 . S
C2520 C2521 1.391 . S
C2521 H2509 0.950 . S
C2521 C2517 1.393 . S
C2521 C2520 1.391 . S
C2522 H2512 0.950 . S
C2522 C2523 1.386 . S
C2522 C2524 1.391 . S
C2523 C2522 1.386 . S
C2523 C2527 1.393 . S
C2524 H2513 0.950 . S
C2524 C2522 1.391 . S
C2524 C2525 1.400 . S
C2525 C2519 1.491 . S
C2525 C2524 1.400 . S
C2525 C2526 1.398 . S
C2526 H2514 0.950 . S
C2526 C2525 1.398 . S
C2526 C2527 1.391 . S
C2527 H2515 0.950 . S
C2527 C2523 1.393 . S
C2527 C2526 1.391 . S
H2528 C2536 0.937 1_554 S
H2529 C2541 0.950 . S
H2530 C2538 0.950 . S
H2531 C2540 0.950 . S
H2532 C2542 0.950 . S
H2533 C2544 0.950 1_556 S
H2534 C2546 0.950 . S
H2535 C2547 0.950 . S
C2536 H2528 0.937 1_556 S
C2536 C2537 1.386 . S
C2536 C2538 1.391 1_556 S
C2537 C2536 1.386 . S
C2537 C2541 1.393 . S
C2538 H2530 0.950 . S
C2538 C2536 1.391 1_554 S
C2538 C2539 1.400 1_554 S
C2539 C2538 1.400 1_556 S
C2539 C2540 1.400 . S
C2539 C2545 1.490 1_556 S
C2540 H2531 0.950 . S
C2540 C2539 1.400 . S
C2540 C2541 1.391 . S
C2541 H2529 0.950 . S
C2541 C2537 1.393 . S
C2541 C2540 1.391 . S
C2542 H2532 0.950 . S
C2542 C2543 1.386 . S
C2542 C2544 1.391 . S
C2543 C2542 1.386 . S
C2543 C2547 1.393 . S
C2544 H2533 0.950 1_554 S
C2544 C2542 1.391 . S
C2544 C2545 1.400 . S
C2545 C2539 1.490 1_554 S
C2545 C2544 1.400 . S
C2545 C2546 1.398 . S
C2546 H2534 0.950 . S
C2546 C2545 1.398 . S
C2546 C2547 1.391 . S
C2547 H2535 0.950 . S
C2547 C2543 1.393 . S
C2547 C2546 1.391 . S
H2548 C2556 0.950 . S
H2549 C2561 0.950 . S
H2550 C2558 0.950 . S
H2551 C2560 0.950 . S
H2552 C2562 0.950 . S
H2553 C2564 0.950 . S
H2554 C2566 0.950 . S
H2555 C2567 0.950 . S
C2556 H2548 0.950 . S
C2556 C2557 1.386 . S
C2556 C2558 1.391 . S
C2557 C2556 1.386 . S
C2557 C2561 1.393 . S
C2558 H2550 0.950 . S
C2558 C2556 1.391 . S
C2558 C2559 1.400 . S
C2559 C2558 1.400 . S
C2559 C2560 1.398 . S
C2559 C2565 1.491 . S
C2560 H2551 0.950 . S
C2560 C2559 1.398 . S
C2560 C2561 1.391 . S
C2561 H2549 0.950 . S
C2561 C2557 1.393 . S
C2561 C2560 1.391 . S
C2562 H2552 0.950 . S
C2562 C2563 1.386 . S
C2562 C2564 1.391 . S
C2563 C2562 1.386 . S
C2563 C2567 1.393 . S
C2564 H2553 0.950 . S
C2564 C2562 1.391 . S
C2564 C2565 1.400 . S
C2565 C2559 1.491 . S
C2565 C2564 1.400 . S
C2565 C2566 1.398 . S
C2566 H2554 0.950 . S
C2566 C2565 1.398 . S
C2566 C2567 1.391 . S
C2567 H2555 0.950 . S
C2567 C2563 1.393 . S
C2567 C2566 1.391 . S
H2568 C2576 0.950 . S
H2569 C2581 0.950 . S
H2570 C2578 0.950 1_565 S
H2571 C2580 0.950 . S
H2572 C2582 0.950 . S
H2573 C2584 0.950 . S
H2574 C2586 0.950 . S
H2575 C2587 0.950 . S
C2576 H2568 0.950 . S
C2576 C2577 1.386 . S
C2576 C2578 1.391 . S
C2577 C2576 1.386 . S
C2577 C2581 1.393 . S
C2578 H2570 0.950 1_545 S
C2578 C2576 1.391 . S
C2578 C2579 1.404 . S
C2579 C2578 1.404 . S
C2579 C2580 1.406 . S
C2579 C2585 1.480 1_545 S
C2580 H2571 0.950 . S
C2580 C2579 1.406 . S
C2580 C2581 1.391 . S
C2581 H2569 0.950 . S
C2581 C2577 1.393 . S
C2581 C2580 1.391 . S
C2582 H2572 0.950 . S
C2582 C2583 1.386 . S
C2582 C2584 1.391 . S
C2583 C2582 1.386 . S
C2583 C2587 1.393 . S
C2584 H2573 0.950 . S
C2584 C2582 1.391 . S
C2584 C2585 1.400 . S
C2585 C2579 1.480 1_565 S
C2585 C2584 1.400 . S
C2585 C2586 1.398 . S
C2586 H2574 0.950 . S
C2586 C2585 1.398 . S
C2586 C2587 1.391 . S
C2587 H2575 0.950 . S
C2587 C2583 1.393 . S
C2587 C2586 1.391 . S
H2588 C2596 0.950 . S
H2589 C2601 0.950 . S
H2590 C2598 0.950 . S
H2591 C2600 0.950 . S
H2592 C2602 0.950 . S
H2593 C2604 0.950 1_556 S
H2594 C2606 0.950 . S
H2595 C2607 0.950 . S
C2596 H2588 0.950 . S
C2596 C2597 1.386 . S
C2596 C2598 1.391 . S
C2597 C2596 1.386 . S
C2597 C2601 1.393 . S
C2598 H2590 0.950 . S
C2598 C2596 1.391 . S
C2598 C2599 1.400 . S
C2599 C2598 1.400 . S
C2599 C2600 1.398 . S
C2599 C2605 1.494 . S
C2600 H2591 0.950 . S
C2600 C2599 1.398 . S
C2600 C2601 1.391 . S
C2601 H2589 0.950 . S
C2601 C2597 1.393 . S
C2601 C2600 1.391 . S
C2602 H2592 0.950 . S
C2602 C2603 1.386 . S
C2602 C2604 1.391 . S
C2603 C2602 1.386 . S
C2603 C2607 1.393 . S
C2604 H2593 0.950 1_554 S
C2604 C2602 1.391 . S
C2604 C2605 1.399 1_554 S
C2605 C2599 1.494 . S
C2605 C2604 1.399 1_556 S
C2605 C2606 1.396 1_556 S
C2606 H2594 0.950 . S
C2606 C2605 1.396 1_554 S
C2606 C2607 1.391 . S
C2607 H2595 0.950 . S
C2607 C2603 1.393 . S
C2607 C2606 1.391 . S
H2608 C2616 0.950 . S
H2609 C2621 0.950 . S
H2610 C2618 0.950 . S
H2611 C2620 0.950 1_556 S
H2612 C2622 0.950 . S
H2613 C2624 0.950 . S
H2614 C2626 0.950 . S
H2615 C2627 0.950 1_554 S
C2616 H2608 0.950 . S
C2616 C2617 1.386 . S
C2616 C2618 1.391 . S
C2617 C2616 1.386 . S
C2617 C2621 1.393 . S
C2618 H2610 0.950 . S
C2618 C2616 1.391 . S
C2618 C2619 1.400 . S
C2619 C2618 1.400 . S
C2619 C2620 1.398 . S
C2619 C2625 1.494 1_554 S
C2620 H2611 0.950 1_554 S
C2620 C2619 1.398 . S
C2620 C2621 1.391 . S
C2621 H2609 0.950 . S
C2621 C2617 1.393 . S
C2621 C2620 1.391 . S
C2622 H2612 0.950 . S
C2622 C2623 1.386 . S
C2622 C2624 1.391 . S
C2623 C2622 1.386 . S
C2623 C2627 1.393 . S
C2624 H2613 0.950 . S
C2624 C2622 1.391 . S
C2624 C2625 1.395 . S
C2625 C2619 1.494 1_556 S
C2625 C2624 1.395 . S
C2625 C2626 1.400 1_556 S
C2626 H2614 0.950 . S
C2626 C2625 1.400 1_554 S
C2626 C2627 1.391 1_554 S
C2627 H2615 0.950 1_556 S
C2627 C2623 1.393 . S
C2627 C2626 1.391 1_556 S
H2628 C2636 0.950 . S
H2629 C2641 0.950 . S
H2630 C2638 0.950 . S
H2631 C2640 0.950 . S
H2632 C2642 0.950 . S
H2633 C2644 0.950 . S
H2634 C2646 0.950 . S
H2635 C2647 0.950 . S
C2636 H2628 0.950 . S
C2636 C2637 1.386 . S
C2636 C2638 1.391 . S
C2637 C2636 1.386 . S
C2637 C2641 1.393 . S
C2638 H2630 0.950 . S
C2638 C2636 1.391 . S
C2638 C2639 1.400 . S
C2639 C2638 1.400 . S
C2639 C2640 1.398 . S
C2639 C2645 1.491 . S
C2640 H2631 0.950 . S
C2640 C2639 1.398 . S
C2640 C2641 1.391 . S
C2641 H2629 0.950 . S
C2641 C2637 1.393 . S
C2641 C2640 1.391 . S
C2642 H2632 0.950 . S
C2642 C2643 1.386 . S
C2642 C2644 1.391 . S
C2643 C2642 1.386 . S
C2643 C2647 1.393 . S
C2644 H2633 0.950 . S
C2644 C2642 1.391 . S
C2644 C2645 1.400 . S
C2645 C2639 1.491 . S
C2645 C2644 1.400 . S
C2645 C2646 1.398 . S
C2646 H2634 0.950 . S
C2646 C2645 1.398 . S
C2646 C2647 1.391 . S
C2647 H2635 0.950 . S
C2647 C2643 1.393 . S
C2647 C2646 1.391 . S
H2648 C2656 0.950 . S
H2649 C2661 0.950 . S
H2650 C2658 0.950 . S
H2651 C2660 0.950 1_545 S
H2652 C2662 0.950 . S
H2653 C2664 0.950 . S
H2654 C2666 0.950 . S
H2655 C2667 0.950 . S
C2656 H2648 0.950 . S
C2656 C2657 1.386 . S
C2656 C2658 1.391 . S
C2657 C2656 1.386 . S
C2657 C2661 1.393 . S
C2658 H2650 0.950 . S
C2658 C2656 1.391 . S
C2658 C2659 1.400 . S
C2659 C2658 1.400 . S
C2659 C2660 1.398 . S
C2659 C2665 1.490 . S
C2660 H2651 0.950 1_565 S
C2660 C2659 1.398 . S
C2660 C2661 1.391 . S
C2661 H2649 0.950 . S
C2661 C2657 1.393 . S
C2661 C2660 1.391 . S
C2662 H2652 0.950 . S
C2662 C2663 1.386 . S
C2662 C2664 1.391 . S
C2663 C2662 1.386 . S
C2663 C2667 1.393 . S
C2664 H2653 0.950 . S
C2664 C2662 1.391 . S
C2664 C2665 1.400 1_545 S
C2665 C2659 1.490 . S
C2665 C2664 1.400 1_565 S
C2665 C2666 1.398 . S
C2666 H2654 0.950 . S
C2666 C2665 1.398 . S
C2666 C2667 1.391 1_565 S
C2667 H2655 0.950 . S
C2667 C2663 1.393 . S
C2667 C2666 1.391 1_545 S
H2668 C2676 0.950 . S
H2669 C2681 0.950 . S
H2670 C2678 0.950 . S
H2671 C2680 0.950 1_655 S
H2672 C2682 0.950 . S
H2673 C2684 0.950 . S
H2674 C2686 0.950 . S
H2675 C2687 0.937 1_455 S
C2676 H2668 0.950 . S
C2676 C2677 1.386 . S
C2676 C2678 1.391 . S
C2677 C2676 1.386 . S
C2677 C2681 1.393 . S
C2678 H2670 0.950 . S
C2678 C2676 1.391 . S
C2678 C2679 1.400 . S
C2679 C2678 1.400 . S
C2679 C2680 1.398 . S
C2679 C2685 1.491 1_455 S
C2680 H2671 0.950 1_455 S
C2680 C2679 1.398 . S
C2680 C2681 1.391 . S
C2681 H2669 0.950 . S
C2681 C2677 1.393 . S
C2681 C2680 1.391 . S
C2682 H2672 0.950 . S
C2682 C2683 1.386 . S
C2682 C2684 1.391 . S
C2683 C2682 1.386 . S
C2683 C2687 1.393 . S
C2684 H2673 0.950 . S
C2684 C2682 1.391 . S
C2684 C2685 1.399 . S
C2685 C2679 1.491 1_655 S
C2685 C2684 1.399 . S
C2685 C2686 1.399 1_655 S
C2686 H2674 0.950 . S
C2686 C2685 1.399 1_455 S
C2686 C2687 1.391 1_455 S
C2687 H2675 0.937 1_655 S
C2687 C2683 1.393 . S
C2687 C2686 1.391 1_655 S
H2688 C2696 0.968 . S
H2689 C2701 0.950 . S
H2690 C2698 0.950 . S
H2691 C2700 0.950 . S
H2692 C2702 0.950 . S
H2693 C2704 0.950 1_455 S
H2694 C2706 0.950 . S
H2695 C2707 0.950 . S
C2696 H2688 0.968 . S
C2696 C2697 1.386 . S
C2696 C2698 1.391 1_455 S
C2697 C2696 1.386 . S
C2697 C2701 1.393 . S
C2698 H2690 0.950 . S
C2698 C2696 1.391 1_655 S
C2698 C2699 1.398 1_655 S
C2699 C2698 1.398 1_455 S
C2699 C2700 1.404 . S
C2699 C2705 1.487 1_455 S
C2700 H2691 0.950 . S
C2700 C2699 1.404 . S
C2700 C2701 1.391 . S
C2701 H2689 0.950 . S
C2701 C2697 1.393 . S
C2701 C2700 1.391 . S
C2702 H2692 0.950 . S
C2702 C2703 1.386 . S
C2702 C2704 1.391 . S
C2703 C2702 1.386 . S
C2703 C2707 1.393 . S
C2704 H2693 0.950 1_655 S
C2704 C2702 1.391 . S
C2704 C2705 1.400 . S
C2705 C2699 1.487 1_655 S
C2705 C2704 1.400 . S
C2705 C2706 1.398 . S
C2706 H2694 0.950 . S
C2706 C2705 1.398 . S
C2706 C2707 1.391 . S
C2707 H2695 0.950 . S
C2707 C2703 1.393 . S
C2707 C2706 1.391 . S
H2708 C2716 0.950 . S
H2709 C2721 0.950 . S
H2710 C2718 0.950 . S
H2711 C2720 0.950 . S
H2712 C2722 0.950 . S
H2713 C2724 0.950 . S
H2714 C2726 0.950 . S
H2715 C2727 0.950 . S
C2716 H2708 0.950 . S
C2716 C2717 1.386 . S
C2716 C2718 1.391 . S
C2717 C2716 1.386 . S
C2717 C2721 1.393 . S
C2718 H2710 0.950 . S
C2718 C2716 1.391 . S
C2718 C2719 1.400 . S
C2719 C2718 1.400 . S
C2719 C2720 1.398 . S
C2719 C2725 1.491 . S
C2720 H2711 0.950 . S
C2720 C2719 1.398 . S
C2720 C2721 1.391 . S
C2721 H2709 0.950 . S
C2721 C2717 1.393 . S
C2721 C2720 1.391 . S
C2722 H2712 0.950 . S
C2722 C2723 1.386 . S
C2722 C2724 1.391 . S
C2723 C2722 1.386 . S
C2723 C2727 1.393 . S
C2724 H2713 0.950 . S
C2724 C2722 1.391 . S
C2724 C2725 1.400 . S
C2725 C2719 1.491 . S
C2725 C2724 1.400 . S
C2725 C2726 1.398 . S
C2726 H2714 0.950 . S
C2726 C2725 1.398 . S
C2726 C2727 1.391 . S
C2727 H2715 0.950 . S
C2727 C2723 1.393 . S
C2727 C2726 1.391 . S
H2728 C2736 0.950 . S
H2729 C2741 0.950 . S
H2730 C2738 0.950 . S
H2731 C2740 0.950 . S
H2732 C2742 0.950 . S
H2733 C2744 0.950 . S
H2734 C2746 0.950 . S
H2735 C2747 0.950 . S
C2736 H2728 0.950 . S
C2736 C2737 1.386 . S
C2736 C2738 1.391 . S
C2737 C2736 1.386 . S
C2737 C2741 1.393 . S
C2738 H2730 0.950 . S
C2738 C2736 1.391 . S
C2738 C2739 1.400 . S
C2739 C2738 1.400 . S
C2739 C2740 1.398 . S
C2739 C2745 1.491 . S
C2740 H2731 0.950 . S
C2740 C2739 1.398 . S
C2740 C2741 1.391 . S
C2741 H2729 0.950 . S
C2741 C2737 1.393 . S
C2741 C2740 1.391 . S
C2742 H2732 0.950 . S
C2742 C2743 1.386 . S
C2742 C2744 1.391 . S
C2743 C2742 1.386 . S
C2743 C2747 1.393 . S
C2744 H2733 0.950 . S
C2744 C2742 1.391 . S
C2744 C2745 1.400 . S
C2745 C2739 1.491 . S
C2745 C2744 1.400 . S
C2745 C2746 1.398 . S
C2746 H2734 0.950 . S
C2746 C2745 1.398 . S
C2746 C2747 1.391 . S
C2747 H2735 0.950 . S
C2747 C2743 1.393 . S
C2747 C2746 1.391 . S
H2748 C2756 0.950 . S
H2749 C2761 0.950 . S
H2750 C2758 0.950 . S
H2751 C2760 0.950 . S
H2752 C2762 0.950 . S
H2753 C2764 0.950 . S
H2754 C2766 0.950 . S
H2755 C2767 0.950 . S
C2756 H2748 0.950 . S
C2756 C2757 1.386 . S
C2756 C2758 1.391 . S
C2757 C2756 1.386 . S
C2757 C2761 1.393 . S
C2758 H2750 0.950 . S
C2758 C2756 1.391 . S
C2758 C2759 1.400 . S
C2759 C2758 1.400 . S
C2759 C2760 1.398 . S
C2759 C2765 1.491 . S
C2760 H2751 0.950 . S
C2760 C2759 1.398 . S
C2760 C2761 1.391 . S
C2761 H2749 0.950 . S
C2761 C2757 1.393 . S
C2761 C2760 1.391 . S
C2762 H2752 0.950 . S
C2762 C2763 1.386 . S
C2762 C2764 1.391 . S
C2763 C2762 1.386 . S
C2763 C2767 1.393 . S
C2764 H2753 0.950 . S
C2764 C2762 1.391 . S
C2764 C2765 1.400 . S
C2765 C2759 1.491 . S
C2765 C2764 1.400 . S
C2765 C2766 1.398 . S
C2766 H2754 0.950 . S
C2766 C2765 1.398 . S
C2766 C2767 1.391 . S
C2767 H2755 0.950 . S
C2767 C2763 1.393 . S
C2767 C2766 1.391 . S
H2768 C2776 0.950 . S
H2769 C2781 0.950 . S
H2770 C2778 0.950 . S
H2771 C2780 0.950 . S
H2772 C2782 0.950 . S
H2773 C2784 0.950 . S
H2774 C2786 0.950 . S
H2775 C2787 0.950 . S
C2776 H2768 0.950 . S
C2776 C2777 1.386 . S
C2776 C2778 1.391 . S
C2777 C2776 1.386 . S
C2777 C2781 1.393 . S
C2778 H2770 0.950 . S
C2778 C2776 1.391 . S
C2778 C2779 1.409 . S
C2779 C2778 1.409 . S
C2779 C2780 1.397 1_554 S
C2779 C2785 1.483 1_554 S
C2780 H2771 0.950 . S
C2780 C2779 1.397 1_556 S
C2780 C2781 1.391 1_556 S
C2781 H2769 0.950 . S
C2781 C2777 1.393 . S
C2781 C2780 1.391 1_554 S
C2782 H2772 0.950 . S
C2782 C2783 1.386 . S
C2782 C2784 1.391 . S
C2783 C2782 1.386 . S
C2783 C2787 1.393 . S
C2784 H2773 0.950 . S
C2784 C2782 1.391 . S
C2784 C2785 1.400 . S
C2785 C2779 1.483 1_556 S
C2785 C2784 1.400 . S
C2785 C2786 1.398 . S
C2786 H2774 0.950 . S
C2786 C2785 1.398 . S
C2786 C2787 1.391 . S
C2787 H2775 0.950 . S
C2787 C2783 1.393 . S
C2787 C2786 1.391 . S
H2788 C2796 0.950 . S
H2789 C2801 0.950 . S
H2790 C2798 0.950 . S
H2791 C2800 0.950 . S
H2792 C2802 0.950 . S
H2793 C2804 0.950 . S
H2794 C2806 0.950 1_565 S
H2795 C2807 0.950 . S
C2796 H2788 0.950 . S
C2796 C2797 1.386 . S
C2796 C2798 1.391 . S
C2797 C2796 1.386 . S
C2797 C2801 1.393 . S
C2798 H2790 0.950 . S
C2798 C2796 1.391 . S
C2798 C2799 1.400 . S
C2799 C2798 1.400 . S
C2799 C2800 1.398 . S
C2799 C2805 1.495 . S
C2800 H2791 0.950 . S
C2800 C2799 1.398 . S
C2800 C2801 1.391 . S
C2801 H2789 0.950 . S
C2801 C2797 1.393 . S
C2801 C2800 1.391 . S
C2802 H2792 0.950 . S
C2802 C2803 1.386 . S
C2802 C2804 1.391 . S
C2803 C2802 1.386 . S
C2803 C2807 1.393 . S
C2804 H2793 0.950 . S
C2804 C2802 1.391 . S
C2804 C2805 1.397 1_545 S
C2805 C2799 1.495 . S
C2805 C2804 1.397 1_565 S
C2805 C2806 1.398 1_565 S
C2806 H2794 0.950 1_545 S
C2806 C2805 1.398 1_545 S
C2806 C2807 1.391 . S
C2807 H2795 0.950 . S
C2807 C2803 1.393 . S
C2807 C2806 1.391 . S
H2808 C2816 0.950 . S
H2809 C2821 0.950 . S
H2810 C2818 0.950 . S
H2811 C2820 0.950 . S
H2812 C2822 0.950 . S
H2813 C2824 0.950 . S
H2814 C2826 0.950 . S
H2815 C2827 0.950 . S
C2816 H2808 0.950 . S
C2816 C2817 1.386 . S
C2816 C2818 1.391 . S
C2817 C2816 1.386 . S
C2817 C2821 1.393 . S
C2818 H2810 0.950 . S
C2818 C2816 1.391 . S
C2818 C2819 1.400 . S
C2819 C2818 1.400 . S
C2819 C2820 1.398 . S
C2819 C2825 1.491 . S
C2820 H2811 0.950 . S
C2820 C2819 1.398 . S
C2820 C2821 1.391 . S
C2821 H2809 0.950 . S
C2821 C2817 1.393 . S
C2821 C2820 1.391 . S
C2822 H2812 0.950 . S
C2822 C2823 1.386 . S
C2822 C2824 1.391 . S
C2823 C2822 1.386 . S
C2823 C2827 1.393 . S
C2824 H2813 0.950 . S
C2824 C2822 1.391 . S
C2824 C2825 1.400 . S
C2825 C2819 1.491 . S
C2825 C2824 1.400 . S
C2825 C2826 1.398 . S
C2826 H2814 0.950 . S
C2826 C2825 1.398 . S
C2826 C2827 1.391 . S
C2827 H2815 0.950 . S
C2827 C2823 1.393 . S
C2827 C2826 1.391 . S
H2828 C2836 0.950 . S
H2829 C2841 0.950 . S
H2830 C2838 0.950 . S
H2831 C2840 0.950 . S
H2832 C2842 0.950 . S
H2833 C2844 0.950 . S
H2834 C2846 0.950 . S
H2835 C2847 0.950 . S
C2836 H2828 0.950 . S
C2836 C2837 1.386 . S
C2836 C2838 1.391 . S
C2837 C2836 1.386 . S
C2837 C2841 1.393 . S
C2838 H2830 0.950 . S
C2838 C2836 1.391 . S
C2838 C2839 1.400 . S
C2839 C2838 1.400 . S
C2839 C2840 1.398 . S
C2839 C2845 1.491 . S
C2840 H2831 0.950 . S
C2840 C2839 1.398 . S
C2840 C2841 1.391 . S
C2841 H2829 0.950 . S
C2841 C2837 1.393 . S
C2841 C2840 1.391 . S
C2842 H2832 0.950 . S
C2842 C2843 1.386 . S
C2842 C2844 1.391 . S
C2843 C2842 1.386 . S
C2843 C2847 1.393 . S
C2844 H2833 0.950 . S
C2844 C2842 1.391 . S
C2844 C2845 1.400 . S
C2845 C2839 1.491 . S
C2845 C2844 1.400 . S
C2845 C2846 1.398 . S
C2846 H2834 0.950 . S
C2846 C2845 1.398 . S
C2846 C2847 1.391 . S
C2847 H2835 0.950 . S
C2847 C2843 1.393 . S
C2847 C2846 1.391 . S
H2848 C2856 0.950 . S
H2849 C2861 0.950 . S
H2850 C2858 0.950 . S
H2851 C2860 0.950 . S
H2852 C2862 0.950 . S
H2853 C2864 0.950 . S
H2854 C2866 0.950 . S
H2855 C2867 0.950 . S
C2856 H2848 0.950 . S
C2856 C2857 1.386 . S
C2856 C2858 1.391 . S
C2857 C2856 1.386 . S
C2857 C2861 1.393 . S
C2858 H2850 0.950 . S
C2858 C2856 1.391 . S
C2858 C2859 1.400 . S
C2859 C2858 1.400 . S
C2859 C2860 1.398 . S
C2859 C2865 1.491 . S
C2860 H2851 0.950 . S
C2860 C2859 1.398 . S
C2860 C2861 1.391 . S
C2861 H2849 0.950 . S
C2861 C2857 1.393 . S
C2861 C2860 1.391 . S
C2862 H2852 0.950 . S
C2862 C2863 1.386 . S
C2862 C2864 1.391 . S
C2863 C2862 1.386 . S
C2863 C2867 1.393 . S
C2864 H2853 0.950 . S
C2864 C2862 1.391 . S
C2864 C2865 1.400 . S
C2865 C2859 1.491 . S
C2865 C2864 1.400 . S
C2865 C2866 1.398 . S
C2866 H2854 0.950 . S
C2866 C2865 1.398 . S
C2866 C2867 1.391 . S
C2867 H2855 0.950 . S
C2867 C2863 1.393 . S
C2867 C2866 1.391 . S
H2868 C2876 0.950 . S
H2869 C2881 0.932 1_545 S
H2870 C2878 0.950 . S
H2871 C2880 0.950 . S
H2872 C2882 0.950 . S
H2873 C2884 0.950 . S
H2874 C2886 0.950 1_565 S
H2875 C2887 0.950 . S
C2876 H2868 0.950 . S
C2876 C2877 1.386 . S
C2876 C2878 1.391 . S
C2877 C2876 1.386 . S
C2877 C2881 1.393 . S
C2878 H2870 0.950 . S
C2878 C2876 1.391 . S
C2878 C2879 1.406 1_565 S
C2879 C2878 1.406 1_545 S
C2879 C2880 1.396 . S
C2879 C2885 1.487 . S
C2880 H2871 0.950 . S
C2880 C2879 1.396 . S
C2880 C2881 1.391 1_545 S
C2881 H2869 0.932 1_565 S
C2881 C2877 1.393 . S
C2881 C2880 1.391 1_565 S
C2882 H2872 0.950 . S
C2882 C2883 1.386 . S
C2882 C2884 1.391 . S
C2883 C2882 1.386 . S
C2883 C2887 1.393 . S
C2884 H2873 0.950 . S
C2884 C2882 1.391 . S
C2884 C2885 1.400 . S
C2885 C2879 1.487 . S
C2885 C2884 1.400 . S
C2885 C2886 1.398 . S
C2886 H2874 0.950 1_545 S
C2886 C2885 1.398 . S
C2886 C2887 1.391 . S
C2887 H2875 0.950 . S
C2887 C2883 1.393 . S
C2887 C2886 1.391 . S
H2888 C2896 0.950 . S
H2889 C2901 0.950 . S
H2890 C2898 0.950 . S
H2891 C2900 0.955 . S
H2892 C2902 0.950 . S
H2893 C2904 0.950 . S
H2894 C2906 0.950 . S
H2895 C2907 0.950 . S
C2896 H2888 0.950 . S
C2896 C2897 1.386 . S
C2896 C2898 1.391 . S
C2897 C2896 1.386 . S
C2897 C2901 1.393 . S
C2898 H2890 0.950 . S
C2898 C2896 1.391 . S
C2898 C2899 1.400 . S
C2899 C2898 1.400 . S
C2899 C2900 1.398 . S
C2899 C2905 1.484 1_554 S
C2900 H2891 0.955 . S
C2900 C2899 1.398 . S
C2900 C2901 1.391 . S
C2901 H2889 0.950 . S
C2901 C2897 1.393 . S
C2901 C2900 1.391 . S
C2902 H2892 0.950 . S
C2902 C2903 1.386 . S
C2902 C2904 1.391 . S
C2903 C2902 1.386 . S
C2903 C2907 1.393 . S
C2904 H2893 0.950 . S
C2904 C2902 1.391 . S
C2904 C2905 1.409 . S
C2905 C2899 1.484 1_556 S
C2905 C2904 1.409 . S
C2905 C2906 1.397 1_556 S
C2906 H2894 0.950 . S
C2906 C2905 1.397 1_554 S
C2906 C2907 1.391 1_554 S
C2907 H2895 0.950 . S
C2907 C2903 1.393 . S
C2907 C2906 1.391 1_556 S
H2908 C2916 0.950 . S
H2909 C2921 0.950 . S
H2910 C2918 0.950 . S
H2911 C2920 0.950 . S
H2912 C2922 0.950 . S
H2913 C2924 0.950 . S
H2914 C2926 0.950 . S
H2915 C2927 0.950 . S
C2916 H2908 0.950 . S
C2916 C2917 1.386 . S
C2916 C2918 1.391 . S
C2917 C2916 1.386 . S
C2917 C2921 1.393 . S
C2918 H2910 0.950 . S
C2918 C2916 1.391 . S
C2918 C2919 1.400 . S
C2919 C2918 1.400 . S
C2919 C2920 1.398 . S
C2919 C2925 1.491 . S
C2920 H2911 0.950 . S
C2920 C2919 1.398 . S
C2920 C2921 1.391 . S
C2921 H2909 0.950 . S
C2921 C2917 1.393 . S
C2921 C2920 1.391 . S
C2922 H2912 0.950 . S
C2922 C2923 1.386 . S
C2922 C2924 1.391 . S
C2923 C2922 1.386 . S
C2923 C2927 1.393 . S
C2924 H2913 0.950 . S
C2924 C2922 1.391 . S
C2924 C2925 1.400 . S
C2925 C2919 1.491 . S
C2925 C2924 1.400 . S
C2925 C2926 1.398 . S
C2926 H2914 0.950 . S
C2926 C2925 1.398 . S
C2926 C2927 1.391 . S
C2927 H2915 0.950 . S
C2927 C2923 1.393 . S
C2927 C2926 1.391 . S
H2928 C2936 0.950 . S
H2929 C2941 0.950 . S
H2930 C2938 0.950 1_554 S
H2931 C2940 0.950 . S
H2932 C2942 0.928 1_556 S
H2933 C2944 0.950 . S
H2934 C2946 0.950 . S
H2935 C2947 0.950 . S
C2936 H2928 0.950 . S
C2936 C2937 1.386 . S
C2936 C2938 1.391 . S
C2937 C2936 1.386 . S
C2937 C2941 1.393 . S
C2938 H2930 0.950 1_556 S
C2938 C2936 1.391 . S
C2938 C2939 1.400 . S
C2939 C2938 1.400 . S
C2939 C2940 1.398 . S
C2939 C2945 1.491 1_556 S
C2940 H2931 0.950 . S
C2940 C2939 1.398 . S
C2940 C2941 1.391 . S
C2941 H2929 0.950 . S
C2941 C2937 1.393 . S
C2941 C2940 1.391 . S
C2942 H2932 0.928 1_554 S
C2942 C2943 1.386 . S
C2942 C2944 1.391 1_554 S
C2943 C2942 1.386 . S
C2943 C2947 1.393 . S
C2944 H2933 0.950 . S
C2944 C2942 1.391 1_556 S
C2944 C2945 1.401 1_556 S
C2945 C2939 1.491 1_554 S
C2945 C2944 1.401 1_554 S
C2945 C2946 1.397 . S
C2946 H2934 0.950 . S
C2946 C2945 1.397 . S
C2946 C2947 1.391 . S
C2947 H2935 0.950 . S
C2947 C2943 1.393 . S
C2947 C2946 1.391 . S
H2948 C2956 0.950 . S
H2949 C2961 0.950 . S
H2950 C2958 0.950 . S
H2951 C2960 0.950 . S
H2952 C2962 0.950 . S
H2953 C2964 0.950 . S
H2954 C2966 0.950 . S
H2955 C2967 0.950 . S
C2956 H2948 0.950 . S
C2956 C2957 1.386 . S
C2956 C2958 1.391 . S
C2957 C2956 1.386 . S
C2957 C2961 1.393 . S
C2958 H2950 0.950 . S
C2958 C2956 1.391 . S
C2958 C2959 1.400 . S
C2959 C2958 1.400 . S
C2959 C2960 1.398 . S
C2959 C2965 1.491 . S
C2960 H2951 0.950 . S
C2960 C2959 1.398 . S
C2960 C2961 1.391 . S
C2961 H2949 0.950 . S
C2961 C2957 1.393 . S
C2961 C2960 1.391 . S
C2962 H2952 0.950 . S
C2962 C2963 1.386 . S
C2962 C2964 1.391 . S
C2963 C2962 1.386 . S
C2963 C2967 1.393 . S
C2964 H2953 0.950 . S
C2964 C2962 1.391 . S
C2964 C2965 1.400 . S
C2965 C2959 1.491 . S
C2965 C2964 1.400 . S
C2965 C2966 1.398 . S
C2966 H2954 0.950 . S
C2966 C2965 1.398 . S
C2966 C2967 1.391 . S
C2967 H2955 0.950 . S
C2967 C2963 1.393 . S
C2967 C2966 1.391 . S
H2968 C2976 0.950 . S
H2969 C2981 0.950 . S
H2970 C2978 0.950 . S
H2971 C2980 0.950 . S
H2972 C2982 0.950 . S
H2973 C2984 0.950 . S
H2974 C2986 0.950 . S
H2975 C2987 0.950 . S
C2976 H2968 0.950 . S
C2976 C2977 1.386 . S
C2976 C2978 1.391 . S
C2977 C2976 1.386 . S
C2977 C2981 1.393 . S
C2978 H2970 0.950 . S
C2978 C2976 1.391 . S
C2978 C2979 1.400 . S
C2979 C2978 1.400 . S
C2979 C2980 1.398 . S
C2979 C2985 1.491 . S
C2980 H2971 0.950 . S
C2980 C2979 1.398 . S
C2980 C2981 1.391 . S
C2981 H2969 0.950 . S
C2981 C2977 1.393 . S
C2981 C2980 1.391 . S
C2982 H2972 0.950 . S
C2982 C2983 1.386 . S
C2982 C2984 1.391 . S
C2983 C2982 1.386 . S
C2983 C2987 1.393 . S
C2984 H2973 0.950 . S
C2984 C2982 1.391 . S
C2984 C2985 1.400 . S
C2985 C2979 1.491 . S
C2985 C2984 1.400 . S
C2985 C2986 1.398 . S
C2986 H2974 0.950 . S
C2986 C2985 1.398 . S
C2986 C2987 1.391 . S
C2987 H2975 0.950 . S
C2987 C2983 1.393 . S
C2987 C2986 1.391 . S
H2988 C2996 0.950 . S
H2989 C3001 0.950 . S
H2990 C2998 0.950 . S
H2991 C3000 0.950 . S
H2992 C3002 0.950 . S
H2993 C3004 0.950 . S
H2994 C3006 0.950 . S
H2995 C3007 0.950 . S
C2996 H2988 0.950 . S
C2996 C2997 1.386 . S
C2996 C2998 1.391 . S
C2997 C2996 1.386 . S
C2997 C3001 1.393 . S
C2998 H2990 0.950 . S
C2998 C2996 1.391 . S
C2998 C2999 1.400 . S
C2999 C2998 1.400 . S
C2999 C3000 1.398 . S
C2999 C3005 1.491 . S
C3000 H2991 0.950 . S
C3000 C2999 1.398 . S
C3000 C3001 1.391 . S
C3001 H2989 0.950 . S
C3001 C2997 1.393 . S
C3001 C3000 1.391 . S
C3002 H2992 0.950 . S
C3002 C3003 1.386 . S
C3002 C3004 1.391 . S
C3003 C3002 1.386 . S
C3003 C3007 1.393 . S
C3004 H2993 0.950 . S
C3004 C3002 1.391 . S
C3004 C3005 1.400 . S
C3005 C2999 1.491 . S
C3005 C3004 1.400 . S
C3005 C3006 1.398 . S
C3006 H2994 0.950 . S
C3006 C3005 1.398 . S
C3006 C3007 1.391 . S
C3007 H2995 0.950 . S
C3007 C3003 1.393 . S
C3007 C3006 1.391 . S
H3008 C3016 0.950 . S
H3009 C3021 0.950 . S
H3010 C3018 0.950 . S
H3011 C3020 0.950 . S
H3012 C3022 0.950 . S
H3013 C3024 0.950 . S
H3014 C3026 0.950 1_545 S
H3015 C3027 0.950 . S
C3016 H3008 0.950 . S
C3016 C3017 1.386 . S
C3016 C3018 1.391 . S
C3017 C3016 1.386 . S
C3017 C3021 1.393 . S
C3018 H3010 0.950 . S
C3018 C3016 1.391 . S
C3018 C3019 1.400 . S
C3019 C3018 1.400 . S
C3019 C3020 1.398 . S
C3019 C3025 1.495 . S
C3020 H3011 0.950 . S
C3020 C3019 1.398 . S
C3020 C3021 1.391 . S
C3021 H3009 0.950 . S
C3021 C3017 1.393 . S
C3021 C3020 1.391 . S
C3022 H3012 0.950 . S
C3022 C3023 1.386 . S
C3022 C3024 1.391 . S
C3023 C3022 1.386 . S
C3023 C3027 1.393 . S
C3024 H3013 0.950 . S
C3024 C3022 1.391 . S
C3024 C3025 1.397 1_565 S
C3025 C3019 1.495 . S
C3025 C3024 1.397 1_545 S
C3025 C3026 1.397 1_545 S
C3026 H3014 0.950 1_565 S
C3026 C3025 1.397 1_565 S
C3026 C3027 1.391 . S
C3027 H3015 0.950 . S
C3027 C3023 1.393 . S
C3027 C3026 1.391 . S
H3028 C3036 0.950 . S
H3029 C3041 0.950 . S
H3030 C3038 0.950 . S
H3031 C3040 0.950 . S
H3032 C3042 0.950 . S
H3033 C3044 0.950 . S
H3034 C3046 0.950 . S
H3035 C3047 0.950 . S
C3036 H3028 0.950 . S
C3036 C3037 1.386 . S
C3036 C3038 1.391 . S
C3037 C3036 1.386 . S
C3037 C3041 1.393 . S
C3038 H3030 0.950 . S
C3038 C3036 1.391 . S
C3038 C3039 1.400 . S
C3039 C3038 1.400 . S
C3039 C3040 1.398 . S
C3039 C3045 1.491 . S
C3040 H3031 0.950 . S
C3040 C3039 1.398 . S
C3040 C3041 1.391 . S
C3041 H3029 0.950 . S
C3041 C3037 1.393 . S
C3041 C3040 1.391 . S
C3042 H3032 0.950 . S
C3042 C3043 1.386 . S
C3042 C3044 1.391 . S
C3043 C3042 1.386 . S
C3043 C3047 1.393 . S
C3044 H3033 0.950 . S
C3044 C3042 1.391 . S
C3044 C3045 1.400 . S
C3045 C3039 1.491 . S
C3045 C3044 1.400 . S
C3045 C3046 1.398 . S
C3046 H3034 0.950 . S
C3046 C3045 1.398 . S
C3046 C3047 1.391 . S
C3047 H3035 0.950 . S
C3047 C3043 1.393 . S
C3047 C3046 1.391 . S
H3048 C3056 0.950 . S
H3049 C3061 0.950 . S
H3050 C3058 0.950 . S
H3051 C3060 0.950 . S
H3052 C3062 0.950 . S
H3053 C3064 0.950 . S
H3054 C3066 0.950 . S
H3055 C3067 0.950 . S
C3056 H3048 0.950 . S
C3056 C3057 1.386 . S
C3056 C3058 1.391 . S
C3057 C3056 1.386 . S
C3057 C3061 1.393 . S
C3058 H3050 0.950 . S
C3058 C3056 1.391 . S
C3058 C3059 1.400 . S
C3059 C3058 1.400 . S
C3059 C3060 1.398 . S
C3059 C3065 1.491 . S
C3060 H3051 0.950 . S
C3060 C3059 1.398 . S
C3060 C3061 1.391 . S
C3061 H3049 0.950 . S
C3061 C3057 1.393 . S
C3061 C3060 1.391 . S
C3062 H3052 0.950 . S
C3062 C3063 1.386 . S
C3062 C3064 1.391 . S
C3063 C3062 1.386 . S
C3063 C3067 1.393 . S
C3064 H3053 0.950 . S
C3064 C3062 1.391 . S
C3064 C3065 1.400 . S
C3065 C3059 1.491 . S
C3065 C3064 1.400 . S
C3065 C3066 1.398 . S
C3066 H3054 0.950 . S
C3066 C3065 1.398 . S
C3066 C3067 1.391 . S
C3067 H3055 0.950 . S
C3067 C3063 1.393 . S
C3067 C3066 1.391 . S
H3068 C3076 0.950 . S
H3069 C3081 0.950 . S
H3070 C3078 0.950 . S
H3071 C3080 0.950 . S
H3072 C3082 0.950 . S
H3073 C3084 0.950 . S
H3074 C3086 0.950 . S
H3075 C3087 0.950 . S
C3076 H3068 0.950 . S
C3076 C3077 1.386 . S
C3076 C3078 1.391 . S
C3077 C3076 1.386 . S
C3077 C3081 1.393 . S
C3078 H3070 0.950 . S
C3078 C3076 1.391 . S
C3078 C3079 1.400 . S
C3079 C3078 1.400 . S
C3079 C3080 1.398 . S
C3079 C3085 1.491 . S
C3080 H3071 0.950 . S
C3080 C3079 1.398 . S
C3080 C3081 1.391 . S
C3081 H3069 0.950 . S
C3081 C3077 1.393 . S
C3081 C3080 1.391 . S
C3082 H3072 0.950 . S
C3082 C3083 1.386 . S
C3082 C3084 1.391 . S
C3083 C3082 1.386 . S
C3083 C3087 1.393 . S
C3084 H3073 0.950 . S
C3084 C3082 1.391 . S
C3084 C3085 1.400 . S
C3085 C3079 1.491 . S
C3085 C3084 1.400 . S
C3085 C3086 1.398 . S
C3086 H3074 0.950 . S
C3086 C3085 1.398 . S
C3086 C3087 1.391 . S
C3087 H3075 0.950 . S
C3087 C3083 1.393 . S
C3087 C3086 1.391 . S
H3088 C3096 0.950 . S
H3089 C3101 0.950 . S
H3090 C3098 0.950 . S
H3091 C3100 0.950 . S
H3092 C3102 0.950 . S
H3093 C3104 0.950 . S
H3094 C3106 0.950 . S
H3095 C3107 0.950 . S
C3096 H3088 0.950 . S
C3096 C3097 1.386 . S
C3096 C3098 1.391 . S
C3097 C3096 1.386 . S
C3097 C3101 1.393 . S
C3098 H3090 0.950 . S
C3098 C3096 1.391 . S
C3098 C3099 1.400 . S
C3099 C3098 1.400 . S
C3099 C3100 1.398 . S
C3099 C3105 1.491 . S
C3100 H3091 0.950 . S
C3100 C3099 1.398 . S
C3100 C3101 1.391 . S
C3101 H3089 0.950 . S
C3101 C3097 1.393 . S
C3101 C3100 1.391 . S
C3102 H3092 0.950 . S
C3102 C3103 1.386 . S
C3102 C3104 1.391 . S
C3103 C3102 1.386 . S
C3103 C3107 1.393 . S
C3104 H3093 0.950 . S
C3104 C3102 1.391 . S
C3104 C3105 1.400 . S
C3105 C3099 1.491 . S
C3105 C3104 1.400 . S
C3105 C3106 1.398 . S
C3106 H3094 0.950 . S
C3106 C3105 1.398 . S
C3106 C3107 1.391 . S
C3107 H3095 0.950 . S
C3107 C3103 1.393 . S
C3107 C3106 1.391 . S
H3108 C3116 0.950 . S
H3109 C3121 0.950 . S
H3110 C3118 0.950 . S
H3111 C3120 0.950 . S
H3112 C3122 0.950 . S
H3113 C3124 0.950 . S
H3114 C3126 0.950 . S
H3115 C3127 0.950 . S
C3116 H3108 0.950 . S
C3116 C3117 1.386 . S
C3116 C3118 1.391 . S
C3117 C3116 1.386 . S
C3117 C3121 1.393 . S
C3118 H3110 0.950 . S
C3118 C3116 1.391 . S
C3118 C3119 1.400 . S
C3119 C3118 1.400 . S
C3119 C3120 1.398 . S
C3119 C3125 1.491 . S
C3120 H3111 0.950 . S
C3120 C3119 1.398 . S
C3120 C3121 1.391 . S
C3121 H3109 0.950 . S
C3121 C3117 1.393 . S
C3121 C3120 1.391 . S
C3122 H3112 0.950 . S
C3122 C3123 1.386 . S
C3122 C3124 1.391 . S
C3123 C3122 1.386 . S
C3123 C3127 1.393 . S
C3124 H3113 0.950 . S
C3124 C3122 1.391 . S
C3124 C3125 1.400 . S
C3125 C3119 1.491 . S
C3125 C3124 1.400 . S
C3125 C3126 1.398 . S
C3126 H3114 0.950 . S
C3126 C3125 1.398 . S
C3126 C3127 1.391 . S
C3127 H3115 0.950 . S
C3127 C3123 1.393 . S
C3127 C3126 1.391 . S
H3128 C3136 0.950 . S
H3129 C3141 0.950 . S
H3130 C3138 0.950 . S
H3131 C3140 0.950 . S
H3132 C3142 0.950 . S
H3133 C3144 0.950 . S
H3134 C3146 0.904 1_565 S
H3135 C3147 0.950 . S
C3136 H3128 0.950 . S
C3136 C3137 1.386 . S
C3136 C3138 1.391 . S
C3137 C3136 1.386 . S
C3137 C3141 1.393 . S
C3138 H3130 0.950 . S
C3138 C3136 1.391 . S
C3138 C3139 1.408 . S
C3139 C3138 1.408 . S
C3139 C3140 1.397 1_565 S
C3139 C3145 1.485 1_565 S
C3140 H3131 0.950 . S
C3140 C3139 1.397 1_545 S
C3140 C3141 1.391 1_545 S
C3141 H3129 0.950 . S
C3141 C3137 1.393 . S
C3141 C3140 1.391 1_565 S
C3142 H3132 0.950 . S
C3142 C3143 1.386 . S
C3142 C3144 1.391 . S
C3143 C3142 1.386 . S
C3143 C3147 1.393 . S
C3144 H3133 0.950 . S
C3144 C3142 1.391 . S
C3144 C3145 1.400 . S
C3145 C3139 1.485 1_545 S
C3145 C3144 1.400 . S
C3145 C3146 1.398 . S
C3146 H3134 0.904 1_545 S
C3146 C3145 1.398 . S
C3146 C3147 1.391 . S
C3147 H3135 0.950 . S
C3147 C3143 1.393 . S
C3147 C3146 1.391 . S
H3148 C3156 0.950 . S
H3149 C3161 0.950 . S
H3150 C3158 0.950 . S
H3151 C3160 0.950 . S
H3152 C3162 0.950 . S
H3153 C3164 0.950 . S
H3154 C3166 0.950 . S
H3155 C3167 0.950 . S
C3156 H3148 0.950 . S
C3156 C3157 1.386 . S
C3156 C3158 1.391 . S
C3157 C3156 1.386 . S
C3157 C3161 1.393 . S
C3158 H3150 0.950 . S
C3158 C3156 1.391 . S
C3158 C3159 1.400 . S
C3159 C3158 1.400 . S
C3159 C3160 1.398 . S
C3159 C3165 1.491 . S
C3160 H3151 0.950 . S
C3160 C3159 1.398 . S
C3160 C3161 1.391 . S
C3161 H3149 0.950 . S
C3161 C3157 1.393 . S
C3161 C3160 1.391 . S
C3162 H3152 0.950 . S
C3162 C3163 1.386 . S
C3162 C3164 1.391 . S
C3163 C3162 1.386 . S
C3163 C3167 1.393 . S
C3164 H3153 0.950 . S
C3164 C3162 1.391 . S
C3164 C3165 1.400 . S
C3165 C3159 1.491 . S
C3165 C3164 1.400 . S
C3165 C3166 1.398 . S
C3166 H3154 0.950 . S
C3166 C3165 1.398 . S
C3166 C3167 1.391 . S
C3167 H3155 0.950 . S
C3167 C3163 1.393 . S
C3167 C3166 1.391 . S
H3168 C3176 0.950 . S
H3169 C3181 0.950 . S
H3170 C3178 0.950 . S
H3171 C3180 0.950 . S
H3172 C3182 0.950 . S
H3173 C3184 0.950 . S
H3174 C3186 0.950 . S
H3175 C3187 0.950 . S
C3176 H3168 0.950 . S
C3176 C3177 1.386 . S
C3176 C3178 1.391 . S
C3177 C3176 1.386 . S
C3177 C3181 1.393 . S
C3178 H3170 0.950 . S
C3178 C3176 1.391 . S
C3178 C3179 1.400 . S
C3179 C3178 1.400 . S
C3179 C3180 1.398 . S
C3179 C3185 1.491 . S
C3180 H3171 0.950 . S
C3180 C3179 1.398 . S
C3180 C3181 1.391 . S
C3181 H3169 0.950 . S
C3181 C3177 1.393 . S
C3181 C3180 1.391 . S
C3182 H3172 0.950 . S
C3182 C3183 1.386 . S
C3182 C3184 1.391 . S
C3183 C3182 1.386 . S
C3183 C3187 1.393 . S
C3184 H3173 0.950 . S
C3184 C3182 1.391 . S
C3184 C3185 1.400 . S
C3185 C3179 1.491 . S
C3185 C3184 1.400 . S
C3185 C3186 1.398 . S
C3186 H3174 0.950 . S
C3186 C3185 1.398 . S
C3186 C3187 1.391 . S
C3187 H3175 0.950 . S
C3187 C3183 1.393 . S
C3187 C3186 1.391 . S
H3188 C3196 0.950 . S
H3189 C3201 0.950 . S
H3190 C3198 0.950 . S
H3191 C3200 0.950 . S
H3192 C3202 0.950 . S
H3193 C3204 0.950 . S
H3194 C3206 0.950 . S
H3195 C3207 0.950 . S
C3196 H3188 0.950 . S
C3196 C3197 1.386 . S
C3196 C3198 1.391 . S
C3197 C3196 1.386 . S
C3197 C3201 1.393 . S
C3198 H3190 0.950 . S
C3198 C3196 1.391 . S
C3198 C3199 1.400 . S
C3199 C3198 1.400 . S
C3199 C3200 1.398 . S
C3199 C3205 1.491 . S
C3200 H3191 0.950 . S
C3200 C3199 1.398 . S
C3200 C3201 1.391 . S
C3201 H3189 0.950 . S
C3201 C3197 1.393 . S
C3201 C3200 1.391 . S
C3202 H3192 0.950 . S
C3202 C3203 1.386 . S
C3202 C3204 1.391 . S
C3203 C3202 1.386 . S
C3203 C3207 1.393 . S
C3204 H3193 0.950 . S
C3204 C3202 1.391 . S
C3204 C3205 1.400 . S
C3205 C3199 1.491 . S
C3205 C3204 1.400 . S
C3205 C3206 1.398 . S
C3206 H3194 0.950 . S
C3206 C3205 1.398 . S
C3206 C3207 1.391 . S
C3207 H3195 0.950 . S
C3207 C3203 1.393 . S
C3207 C3206 1.391 . S
H3208 C3216 0.950 . S
H3209 C3221 0.950 . S
H3210 C3218 0.950 . S
H3211 C3220 0.950 . S
H3212 C3222 0.950 . S
H3213 C3224 0.950 . S
H3214 C3226 0.950 . S
H3215 C3227 0.950 . S
C3216 H3208 0.950 . S
C3216 C3217 1.386 . S
C3216 C3218 1.391 . S
C3217 C3216 1.386 . S
C3217 C3221 1.393 . S
C3218 H3210 0.950 . S
C3218 C3216 1.391 . S
C3218 C3219 1.400 . S
C3219 C3218 1.400 . S
C3219 C3220 1.398 . S
C3219 C3225 1.491 . S
C3220 H3211 0.950 . S
C3220 C3219 1.398 . S
C3220 C3221 1.391 . S
C3221 H3209 0.950 . S
C3221 C3217 1.393 . S
C3221 C3220 1.391 . S
C3222 H3212 0.950 . S
C3222 C3223 1.386 . S
C3222 C3224 1.391 . S
C3223 C3222 1.386 . S
C3223 C3227 1.393 . S
C3224 H3213 0.950 . S
C3224 C3222 1.391 . S
C3224 C3225 1.400 . S
C3225 C3219 1.491 . S
C3225 C3224 1.400 . S
C3225 C3226 1.398 . S
C3226 H3214 0.950 . S
C3226 C3225 1.398 . S
C3226 C3227 1.391 . S
C3227 H3215 0.950 . S
C3227 C3223 1.393 . S
C3227 C3226 1.391 . S
H3228 C3236 0.950 . S
H3229 C3241 0.950 . S
H3230 C3238 0.950 . S
H3231 C3240 0.950 . S
H3232 C3242 0.950 . S
H3233 C3244 0.950 . S
H3234 C3246 0.950 . S
H3235 C3247 0.950 . S
C3236 H3228 0.950 . S
C3236 C3237 1.386 . S
C3236 C3238 1.391 . S
C3237 C3236 1.386 . S
C3237 C3241 1.393 . S
C3238 H3230 0.950 . S
C3238 C3236 1.391 . S
C3238 C3239 1.400 . S
C3239 C3238 1.400 . S
C3239 C3240 1.398 . S
C3239 C3245 1.491 . S
C3240 H3231 0.950 . S
C3240 C3239 1.398 . S
C3240 C3241 1.391 . S
C3241 H3229 0.950 . S
C3241 C3237 1.393 . S
C3241 C3240 1.391 . S
C3242 H3232 0.950 . S
C3242 C3243 1.386 . S
C3242 C3244 1.391 . S
C3243 C3242 1.386 . S
C3243 C3247 1.393 . S
C3244 H3233 0.950 . S
C3244 C3242 1.391 . S
C3244 C3245 1.400 . S
C3245 C3239 1.491 . S
C3245 C3244 1.400 . S
C3245 C3246 1.398 . S
C3246 H3234 0.950 . S
C3246 C3245 1.398 . S
C3246 C3247 1.391 . S
C3247 H3235 0.950 . S
C3247 C3243 1.393 . S
C3247 C3246 1.391 . S
H3248 C3256 0.950 . S
H3249 C3261 0.950 . S
H3250 C3258 0.950 . S
H3251 C3260 0.950 . S
H3252 C3262 0.950 . S
H3253 C3264 0.950 . S
H3254 C3266 0.950 . S
H3255 C3267 0.950 . S
C3256 H3248 0.950 . S
C3256 C3257 1.386 . S
C3256 C3258 1.391 . S
C3257 C3256 1.386 . S
C3257 C3261 1.393 . S
C3258 H3250 0.950 . S
C3258 C3256 1.391 . S
C3258 C3259 1.400 . S
C3259 C3258 1.400 . S
C3259 C3260 1.398 . S
C3259 C3265 1.491 . S
C3260 H3251 0.950 . S
C3260 C3259 1.398 . S
C3260 C3261 1.391 . S
C3261 H3249 0.950 . S
C3261 C3257 1.393 . S
C3261 C3260 1.391 . S
C3262 H3252 0.950 . S
C3262 C3263 1.386 . S
C3262 C3264 1.391 . S
C3263 C3262 1.386 . S
C3263 C3267 1.393 . S
C3264 H3253 0.950 . S
C3264 C3262 1.391 . S
C3264 C3265 1.400 . S
C3265 C3259 1.491 . S
C3265 C3264 1.400 . S
C3265 C3266 1.398 . S
C3266 H3254 0.950 . S
C3266 C3265 1.398 . S
C3266 C3267 1.391 . S
C3267 H3255 0.950 . S
C3267 C3263 1.393 . S
C3267 C3266 1.391 . S
H3268 C3276 0.950 . S
H3269 C3281 0.950 . S
H3270 C3278 0.950 . S
H3271 C3280 0.950 . S
H3272 C3282 0.950 . S
H3273 C3284 0.950 . S
H3274 C3286 0.950 . S
H3275 C3287 0.950 . S
C3276 H3268 0.950 . S
C3276 C3277 1.386 . S
C3276 C3278 1.391 . S
C3277 C3276 1.386 . S
C3277 C3281 1.393 . S
C3278 H3270 0.950 . S
C3278 C3276 1.391 . S
C3278 C3279 1.400 . S
C3279 C3278 1.400 . S
C3279 C3280 1.398 . S
C3279 C3285 1.491 . S
C3280 H3271 0.950 . S
C3280 C3279 1.398 . S
C3280 C3281 1.391 . S
C3281 H3269 0.950 . S
C3281 C3277 1.393 . S
C3281 C3280 1.391 . S
C3282 H3272 0.950 . S
C3282 C3283 1.386 . S
C3282 C3284 1.391 . S
C3283 C3282 1.386 . S
C3283 C3287 1.393 . S
C3284 H3273 0.950 . S
C3284 C3282 1.391 . S
C3284 C3285 1.400 . S
C3285 C3279 1.491 . S
C3285 C3284 1.400 . S
C3285 C3286 1.398 . S
C3286 H3274 0.950 . S
C3286 C3285 1.398 . S
C3286 C3287 1.391 . S
C3287 H3275 0.950 . S
C3287 C3283 1.393 . S
C3287 C3286 1.391 . S
H3288 C3296 0.950 . S
H3289 C3301 0.950 . S
H3290 C3298 0.950 . S
H3291 C3300 0.950 . S
H3292 C3302 0.950 . S
H3293 C3304 0.950 . S
H3294 C3306 0.950 . S
H3295 C3307 0.950 . S
C3296 H3288 0.950 . S
C3296 C3297 1.386 . S
C3296 C3298 1.391 . S
C3297 C3296 1.386 . S
C3297 C3301 1.393 . S
C3298 H3290 0.950 . S
C3298 C3296 1.391 . S
C3298 C3299 1.400 . S
C3299 C3298 1.400 . S
C3299 C3300 1.398 . S
C3299 C3305 1.491 . S
C3300 H3291 0.950 . S
C3300 C3299 1.398 . S
C3300 C3301 1.391 . S
C3301 H3289 0.950 . S
C3301 C3297 1.393 . S
C3301 C3300 1.391 . S
C3302 H3292 0.950 . S
C3302 C3303 1.386 . S
C3302 C3304 1.391 . S
C3303 C3302 1.386 . S
C3303 C3307 1.393 . S
C3304 H3293 0.950 . S
C3304 C3302 1.391 . S
C3304 C3305 1.400 . S
C3305 C3299 1.491 . S
C3305 C3304 1.400 . S
C3305 C3306 1.398 . S
C3306 H3294 0.950 . S
C3306 C3305 1.398 . S
C3306 C3307 1.391 . S
C3307 H3295 0.950 . S
C3307 C3303 1.393 . S
C3307 C3306 1.391 . S
H3308 C3316 0.950 . S
H3309 C3321 0.950 . S
H3310 C3318 0.950 . S
H3311 C3320 0.950 . S
H3312 C3322 0.950 . S
H3313 C3324 0.950 . S
H3314 C3326 0.950 . S
H3315 C3327 0.950 . S
C3316 H3308 0.950 . S
C3316 C3317 1.386 . S
C3316 C3318 1.391 . S
C3317 C3316 1.386 . S
C3317 C3321 1.393 . S
C3318 H3310 0.950 . S
C3318 C3316 1.391 . S
C3318 C3319 1.400 . S
C3319 C3318 1.400 . S
C3319 C3320 1.398 . S
C3319 C3325 1.491 . S
C3320 H3311 0.950 . S
C3320 C3319 1.398 . S
C3320 C3321 1.391 . S
C3321 H3309 0.950 . S
C3321 C3317 1.393 . S
C3321 C3320 1.391 . S
C3322 H3312 0.950 . S
C3322 C3323 1.386 . S
C3322 C3324 1.391 . S
C3323 C3322 1.386 . S
C3323 C3327 1.393 . S
C3324 H3313 0.950 . S
C3324 C3322 1.391 . S
C3324 C3325 1.400 . S
C3325 C3319 1.491 . S
C3325 C3324 1.400 . S
C3325 C3326 1.398 . S
C3326 H3314 0.950 . S
C3326 C3325 1.398 . S
C3326 C3327 1.391 . S
C3327 H3315 0.950 . S
C3327 C3323 1.393 . S
C3327 C3326 1.391 . S
H3328 C3336 0.950 . S
H3329 C3341 0.950 . S
H3330 C3338 0.950 . S
H3331 C3340 0.950 . S
H3332 C3342 0.950 . S
H3333 C3344 0.950 . S
H3334 C3346 0.950 . S
H3335 C3347 0.950 . S
C3336 H3328 0.950 . S
C3336 C3337 1.386 . S
C3336 C3338 1.391 . S
C3337 C3336 1.386 . S
C3337 C3341 1.393 . S
C3338 H3330 0.950 . S
C3338 C3336 1.391 . S
C3338 C3339 1.400 . S
C3339 C3338 1.400 . S
C3339 C3340 1.398 . S
C3339 C3345 1.491 . S
C3340 H3331 0.950 . S
C3340 C3339 1.398 . S
C3340 C3341 1.391 . S
C3341 H3329 0.950 . S
C3341 C3337 1.393 . S
C3341 C3340 1.391 . S
C3342 H3332 0.950 . S
C3342 C3343 1.386 . S
C3342 C3344 1.391 . S
C3343 C3342 1.386 . S
C3343 C3347 1.393 . S
C3344 H3333 0.950 . S
C3344 C3342 1.391 . S
C3344 C3345 1.400 . S
C3345 C3339 1.491 . S
C3345 C3344 1.400 . S
C3345 C3346 1.398 . S
C3346 H3334 0.950 . S
C3346 C3345 1.398 . S
C3346 C3347 1.391 . S
C3347 H3335 0.950 . S
C3347 C3343 1.393 . S
C3347 C3346 1.391 . S
H3348 C3356 0.950 . S
H3349 C3361 0.950 . S
H3350 C3358 0.950 . S
H3351 C3360 0.950 . S
H3352 C3362 0.950 . S
H3353 C3364 0.950 . S
H3354 C3366 0.950 . S
H3355 C3367 0.950 . S
C3356 H3348 0.950 . S
C3356 C3357 1.386 . S
C3356 C3358 1.391 . S
C3357 C3356 1.386 . S
C3357 C3361 1.393 . S
C3358 H3350 0.950 . S
C3358 C3356 1.391 . S
C3358 C3359 1.400 . S
C3359 C3358 1.400 . S
C3359 C3360 1.398 . S
C3359 C3365 1.491 . S
C3360 H3351 0.950 . S
C3360 C3359 1.398 . S
C3360 C3361 1.391 . S
C3361 H3349 0.950 . S
C3361 C3357 1.393 . S
C3361 C3360 1.391 . S
C3362 H3352 0.950 . S
C3362 C3363 1.386 . S
C3362 C3364 1.391 . S
C3363 C3362 1.386 . S
C3363 C3367 1.393 . S
C3364 H3353 0.950 . S
C3364 C3362 1.391 . S
C3364 C3365 1.400 . S
C3365 C3359 1.491 . S
C3365 C3364 1.400 . S
C3365 C3366 1.398 . S
C3366 H3354 0.950 . S
C3366 C3365 1.398 . S
C3366 C3367 1.391 . S
C3367 H3355 0.950 . S
C3367 C3363 1.393 . S
C3367 C3366 1.391 . S
H3368 C3376 0.950 . S
H3369 C3381 0.950 . S
H3370 C3378 0.950 . S
H3371 C3380 0.950 . S
H3372 C3382 0.950 . S
H3373 C3384 0.950 . S
H3374 C3386 0.950 . S
H3375 C3387 0.950 . S
C3376 H3368 0.950 . S
C3376 C3377 1.386 . S
C3376 C3378 1.391 . S
C3377 C3376 1.386 . S
C3377 C3381 1.393 . S
C3378 H3370 0.950 . S
C3378 C3376 1.391 . S
C3378 C3379 1.400 . S
C3379 C3378 1.400 . S
C3379 C3380 1.398 . S
C3379 C3385 1.491 . S
C3380 H3371 0.950 . S
C3380 C3379 1.398 . S
C3380 C3381 1.391 . S
C3381 H3369 0.950 . S
C3381 C3377 1.393 . S
C3381 C3380 1.391 . S
C3382 H3372 0.950 . S
C3382 C3383 1.386 . S
C3382 C3384 1.391 . S
C3383 C3382 1.386 . S
C3383 C3387 1.393 . S
C3384 H3373 0.950 . S
C3384 C3382 1.391 . S
C3384 C3385 1.400 . S
C3385 C3379 1.491 . S
C3385 C3384 1.400 . S
C3385 C3386 1.398 . S
C3386 H3374 0.950 . S
C3386 C3385 1.398 . S
C3386 C3387 1.391 . S
C3387 H3375 0.950 . S
C3387 C3383 1.393 . S
C3387 C3386 1.391 . S
H3388 C3396 0.950 . S
H3389 C3401 0.950 . S
H3390 C3398 0.950 . S
H3391 C3400 0.950 . S
H3392 C3402 0.950 . S
H3393 C3404 0.950 . S
H3394 C3406 0.950 . S
H3395 C3407 0.950 . S
C3396 H3388 0.950 . S
C3396 C3397 1.386 . S
C3396 C3398 1.391 . S
C3397 C3396 1.386 . S
C3397 C3401 1.393 . S
C3398 H3390 0.950 . S
C3398 C3396 1.391 . S
C3398 C3399 1.400 . S
C3399 C3398 1.400 . S
C3399 C3400 1.398 . S
C3399 C3405 1.491 . S
C3400 H3391 0.950 . S
C3400 C3399 1.398 . S
C3400 C3401 1.391 . S
C3401 H3389 0.950 . S
C3401 C3397 1.393 . S
C3401 C3400 1.391 . S
C3402 H3392 0.950 . S
C3402 C3403 1.386 . S
C3402 C3404 1.391 . S
C3403 C3402 1.386 . S
C3403 C3407 1.393 . S
C3404 H3393 0.950 . S
C3404 C3402 1.391 . S
C3404 C3405 1.400 . S
C3405 C3399 1.491 . S
C3405 C3404 1.400 . S
C3405 C3406 1.398 . S
C3406 H3394 0.950 . S
C3406 C3405 1.398 . S
C3406 C3407 1.391 . S
C3407 H3395 0.950 . S
C3407 C3403 1.393 . S
C3407 C3406 1.391 . S
H3408 C3416 0.950 . S
H3409 C3421 0.950 . S
H3410 C3418 0.950 . S
H3411 C3420 0.950 . S
H3412 C3422 0.950 . S
H3413 C3424 0.950 . S
H3414 C3426 0.950 . S
H3415 C3427 0.950 . S
C3416 H3408 0.950 . S
C3416 C3417 1.386 . S
C3416 C3418 1.391 . S
C3417 C3416 1.386 . S
C3417 C3421 1.393 . S
C3418 H3410 0.950 . S
C3418 C3416 1.391 . S
C3418 C3419 1.400 . S
C3419 C3418 1.400 . S
C3419 C3420 1.398 . S
C3419 C3425 1.491 . S
C3420 H3411 0.950 . S
C3420 C3419 1.398 . S
C3420 C3421 1.391 . S
C3421 H3409 0.950 . S
C3421 C3417 1.393 . S
C3421 C3420 1.391 . S
C3422 H3412 0.950 . S
C3422 C3423 1.386 . S
C3422 C3424 1.391 . S
C3423 C3422 1.386 . S
C3423 C3427 1.393 . S
C3424 H3413 0.950 . S
C3424 C3422 1.391 . S
C3424 C3425 1.400 . S
C3425 C3419 1.491 . S
C3425 C3424 1.400 . S
C3425 C3426 1.398 . S
C3426 H3414 0.950 . S
C3426 C3425 1.398 . S
C3426 C3427 1.391 . S
C3427 H3415 0.950 . S
C3427 C3423 1.393 . S
C3427 C3426 1.391 . S
H3428 C3436 0.950 . S
H3429 C3441 0.950 . S
H3430 C3438 0.950 . S
H3431 C3440 0.950 . S
H3432 C3442 0.950 . S
H3433 C3444 0.950 . S
H3434 C3446 0.950 . S
H3435 C3447 0.950 . S
C3436 H3428 0.950 . S
C3436 C3437 1.386 . S
C3436 C3438 1.391 . S
C3437 C3436 1.386 . S
C3437 C3441 1.393 . S
C3438 H3430 0.950 . S
C3438 C3436 1.391 . S
C3438 C3439 1.400 . S
C3439 C3438 1.400 . S
C3439 C3440 1.398 . S
C3439 C3445 1.491 . S
C3440 H3431 0.950 . S
C3440 C3439 1.398 . S
C3440 C3441 1.391 . S
C3441 H3429 0.950 . S
C3441 C3437 1.393 . S
C3441 C3440 1.391 . S
C3442 H3432 0.950 . S
C3442 C3443 1.386 . S
C3442 C3444 1.391 . S
C3443 C3442 1.386 . S
C3443 C3447 1.393 . S
C3444 H3433 0.950 . S
C3444 C3442 1.391 . S
C3444 C3445 1.400 . S
C3445 C3439 1.491 . S
C3445 C3444 1.400 . S
C3445 C3446 1.398 . S
C3446 H3434 0.950 . S
C3446 C3445 1.398 . S
C3446 C3447 1.391 . S
C3447 H3435 0.950 . S
C3447 C3443 1.393 . S
C3447 C3446 1.391 . S
H3448 C3456 0.950 . S
H3449 C3461 0.950 . S
H3450 C3458 0.950 . S
H3451 C3460 0.950 . S
H3452 C3462 0.950 . S
H3453 C3464 0.950 . S
H3454 C3466 0.950 . S
H3455 C3467 0.950 . S
C3456 H3448 0.950 . S
C3456 C3457 1.386 . S
C3456 C3458 1.391 . S
C3457 C3456 1.386 . S
C3457 C3461 1.393 . S
C3458 H3450 0.950 . S
C3458 C3456 1.391 . S
C3458 C3459 1.400 . S
C3459 C3458 1.400 . S
C3459 C3460 1.398 . S
C3459 C3465 1.491 . S
C3460 H3451 0.950 . S
C3460 C3459 1.398 . S
C3460 C3461 1.391 . S
C3461 H3449 0.950 . S
C3461 C3457 1.393 . S
C3461 C3460 1.391 . S
C3462 H3452 0.950 . S
C3462 C3463 1.386 . S
C3462 C3464 1.391 . S
C3463 C3462 1.386 . S
C3463 C3467 1.393 . S
C3464 H3453 0.950 . S
C3464 C3462 1.391 . S
C3464 C3465 1.400 . S
C3465 C3459 1.491 . S
C3465 C3464 1.400 . S
C3465 C3466 1.398 . S
C3466 H3454 0.950 . S
C3466 C3465 1.398 . S
C3466 C3467 1.391 . S
C3467 H3455 0.950 . S
C3467 C3463 1.393 . S
C3467 C3466 1.391 . S
H3468 C3476 0.950 . S
H3469 C3481 0.950 . S
H3470 C3478 0.950 . S
H3471 C3480 0.950 . S
H3472 C3482 0.950 . S
H3473 C3484 0.950 . S
H3474 C3486 0.950 . S
H3475 C3487 0.950 . S
C3476 H3468 0.950 . S
C3476 C3477 1.386 . S
C3476 C3478 1.391 . S
C3477 C3476 1.386 . S
C3477 C3481 1.393 . S
C3478 H3470 0.950 . S
C3478 C3476 1.391 . S
C3478 C3479 1.400 . S
C3479 C3478 1.400 . S
C3479 C3480 1.398 . S
C3479 C3485 1.491 . S
C3480 H3471 0.950 . S
C3480 C3479 1.398 . S
C3480 C3481 1.391 . S
C3481 H3469 0.950 . S
C3481 C3477 1.393 . S
C3481 C3480 1.391 . S
C3482 H3472 0.950 . S
C3482 C3483 1.386 . S
C3482 C3484 1.391 . S
C3483 C3482 1.386 . S
C3483 C3487 1.393 . S
C3484 H3473 0.950 . S
C3484 C3482 1.391 . S
C3484 C3485 1.400 . S
C3485 C3479 1.491 . S
C3485 C3484 1.400 . S
C3485 C3486 1.398 . S
C3486 H3474 0.950 . S
C3486 C3485 1.398 . S
C3486 C3487 1.391 . S
C3487 H3475 0.950 . S
C3487 C3483 1.393 . S
C3487 C3486 1.391 . S
H3488 C3496 0.950 . S
H3489 C3501 0.950 . S
H3490 C3498 0.950 . S
H3491 C3500 0.950 . S
H3492 C3502 0.950 . S
H3493 C3504 0.950 . S
H3494 C3506 0.950 . S
H3495 C3507 0.950 . S
C3496 H3488 0.950 . S
C3496 C3497 1.386 . S
C3496 C3498 1.391 . S
C3497 C3496 1.386 . S
C3497 C3501 1.393 . S
C3498 H3490 0.950 . S
C3498 C3496 1.391 . S
C3498 C3499 1.400 . S
C3499 C3498 1.400 . S
C3499 C3500 1.398 . S
C3499 C3505 1.491 . S
C3500 H3491 0.950 . S
C3500 C3499 1.398 . S
C3500 C3501 1.391 . S
C3501 H3489 0.950 . S
C3501 C3497 1.393 . S
C3501 C3500 1.391 . S
C3502 H3492 0.950 . S
C3502 C3503 1.386 . S
C3502 C3504 1.391 . S
C3503 C3502 1.386 . S
C3503 C3507 1.393 . S
C3504 H3493 0.950 . S
C3504 C3502 1.391 . S
C3504 C3505 1.400 . S
C3505 C3499 1.491 . S
C3505 C3504 1.400 . S
C3505 C3506 1.398 . S
C3506 H3494 0.950 . S
C3506 C3505 1.398 . S
C3506 C3507 1.391 . S
C3507 H3495 0.950 . S
C3507 C3503 1.393 . S
C3507 C3506 1.391 . S
H3508 C3516 0.950 . S
H3509 C3521 0.950 . S
H3510 C3518 0.950 . S
H3511 C3520 0.950 . S
H3512 C3522 0.950 . S
H3513 C3524 0.950 . S
H3514 C3526 0.950 . S
H3515 C3527 0.950 . S
C3516 H3508 0.950 . S
C3516 C3517 1.386 . S
C3516 C3518 1.391 . S
C3517 C3516 1.386 . S
C3517 C3521 1.393 . S
C3518 H3510 0.950 . S
C3518 C3516 1.391 . S
C3518 C3519 1.400 . S
C3519 C3518 1.400 . S
C3519 C3520 1.398 . S
C3519 C3525 1.491 . S
C3520 H3511 0.950 . S
C3520 C3519 1.398 . S
C3520 C3521 1.391 . S
C3521 H3509 0.950 . S
C3521 C3517 1.393 . S
C3521 C3520 1.391 . S
C3522 H3512 0.950 . S
C3522 C3523 1.386 . S
C3522 C3524 1.391 . S
C3523 C3522 1.386 . S
C3523 C3527 1.393 . S
C3524 H3513 0.950 . S
C3524 C3522 1.391 . S
C3524 C3525 1.400 . S
C3525 C3519 1.491 . S
C3525 C3524 1.400 . S
C3525 C3526 1.398 . S
C3526 H3514 0.950 . S
C3526 C3525 1.398 . S
C3526 C3527 1.391 . S
C3527 H3515 0.950 . S
C3527 C3523 1.393 . S
C3527 C3526 1.391 . S
H3528 C3536 0.950 . S
H3529 C3541 0.950 . S
H3530 C3538 0.950 . S
H3531 C3540 0.950 . S
H3532 C3542 0.950 . S
H3533 C3544 0.950 . S
H3534 C3546 0.950 . S
H3535 C3547 0.950 . S
C3536 H3528 0.950 . S
C3536 C3537 1.386 . S
C3536 C3538 1.391 . S
C3537 C3536 1.386 . S
C3537 C3541 1.393 . S
C3538 H3530 0.950 . S
C3538 C3536 1.391 . S
C3538 C3539 1.400 . S
C3539 C3538 1.400 . S
C3539 C3540 1.398 . S
C3539 C3545 1.491 . S
C3540 H3531 0.950 . S
C3540 C3539 1.398 . S
C3540 C3541 1.391 . S
C3541 H3529 0.950 . S
C3541 C3537 1.393 . S
C3541 C3540 1.391 . S
C3542 H3532 0.950 . S
C3542 C3543 1.386 . S
C3542 C3544 1.391 . S
C3543 C3542 1.386 . S
C3543 C3547 1.393 . S
C3544 H3533 0.950 . S
C3544 C3542 1.391 . S
C3544 C3545 1.400 . S
C3545 C3539 1.491 . S
C3545 C3544 1.400 . S
C3545 C3546 1.398 . S
C3546 H3534 0.950 . S
C3546 C3545 1.398 . S
C3546 C3547 1.391 . S
C3547 H3535 0.950 . S
C3547 C3543 1.393 . S
C3547 C3546 1.391 . S
H3548 C3556 0.950 . S
H3549 C3561 0.950 . S
H3550 C3558 0.950 . S
H3551 C3560 0.950 . S
H3552 C3562 0.950 . S
H3553 C3564 0.950 . S
H3554 C3566 0.950 . S
H3555 C3567 0.950 . S
C3556 H3548 0.950 . S
C3556 C3557 1.386 . S
C3556 C3558 1.391 . S
C3557 C3556 1.386 . S
C3557 C3561 1.393 . S
C3558 H3550 0.950 . S
C3558 C3556 1.391 . S
C3558 C3559 1.400 . S
C3559 C3558 1.400 . S
C3559 C3560 1.398 . S
C3559 C3565 1.491 . S
C3560 H3551 0.950 . S
C3560 C3559 1.398 . S
C3560 C3561 1.391 . S
C3561 H3549 0.950 . S
C3561 C3557 1.393 . S
C3561 C3560 1.391 . S
C3562 H3552 0.950 . S
C3562 C3563 1.386 . S
C3562 C3564 1.391 . S
C3563 C3562 1.386 . S
C3563 C3567 1.393 . S
C3564 H3553 0.950 . S
C3564 C3562 1.391 . S
C3564 C3565 1.400 . S
C3565 C3559 1.491 . S
C3565 C3564 1.400 . S
C3565 C3566 1.398 . S
C3566 H3554 0.950 . S
C3566 C3565 1.398 . S
C3566 C3567 1.391 . S
C3567 H3555 0.950 . S
C3567 C3563 1.393 . S
C3567 C3566 1.391 . S
H3568 C3576 0.950 . S
H3569 C3581 0.950 . S
H3570 C3578 0.950 . S
H3571 C3580 0.950 . S
H3572 C3582 0.950 . S
H3573 C3584 0.950 . S
H3574 C3586 0.950 . S
H3575 C3587 0.950 . S
C3576 H3568 0.950 . S
C3576 C3577 1.386 . S
C3576 C3578 1.391 . S
C3577 C3576 1.386 . S
C3577 C3581 1.393 . S
C3578 H3570 0.950 . S
C3578 C3576 1.391 . S
C3578 C3579 1.400 . S
C3579 C3578 1.400 . S
C3579 C3580 1.398 . S
C3579 C3585 1.491 . S
C3580 H3571 0.950 . S
C3580 C3579 1.398 . S
C3580 C3581 1.391 . S
C3581 H3569 0.950 . S
C3581 C3577 1.393 . S
C3581 C3580 1.391 . S
C3582 H3572 0.950 . S
C3582 C3583 1.386 . S
C3582 C3584 1.391 . S
C3583 C3582 1.386 . S
C3583 C3587 1.393 . S
C3584 H3573 0.950 . S
C3584 C3582 1.391 . S
C3584 C3585 1.400 . S
C3585 C3579 1.491 . S
C3585 C3584 1.400 . S
C3585 C3586 1.398 . S
C3586 H3574 0.950 . S
C3586 C3585 1.398 . S
C3586 C3587 1.391 . S
C3587 H3575 0.950 . S
C3587 C3583 1.393 . S
C3587 C3586 1.391 . S
H3588 C3596 0.950 . S
H3589 C3601 0.950 . S
H3590 C3598 0.950 . S
H3591 C3600 0.950 . S
H3592 C3602 0.950 . S
H3593 C3604 0.950 . S
H3594 C3606 0.950 . S
H3595 C3607 0.950 . S
C3596 H3588 0.950 . S
C3596 C3597 1.386 . S
C3596 C3598 1.391 . S
C3597 C3596 1.386 . S
C3597 C3601 1.393 . S
C3598 H3590 0.950 . S
C3598 C3596 1.391 . S
C3598 C3599 1.400 . S
C3599 C3598 1.400 . S
C3599 C3600 1.398 . S
C3599 C3605 1.491 . S
C3600 H3591 0.950 . S
C3600 C3599 1.398 . S
C3600 C3601 1.391 . S
C3601 H3589 0.950 . S
C3601 C3597 1.393 . S
C3601 C3600 1.391 . S
C3602 H3592 0.950 . S
C3602 C3603 1.386 . S
C3602 C3604 1.391 . S
C3603 C3602 1.386 . S
C3603 C3607 1.393 . S
C3604 H3593 0.950 . S
C3604 C3602 1.391 . S
C3604 C3605 1.400 . S
C3605 C3599 1.491 . S
C3605 C3604 1.400 . S
C3605 C3606 1.398 . S
C3606 H3594 0.950 . S
C3606 C3605 1.398 . S
C3606 C3607 1.391 . S
C3607 H3595 0.950 . S
C3607 C3603 1.393 . S
C3607 C3606 1.391 . S
H3608 C3616 0.950 . S
H3609 C3621 0.950 . S
H3610 C3618 0.950 . S
H3611 C3620 0.950 . S
H3612 C3622 0.950 . S
H3613 C3624 0.950 . S
H3614 C3626 0.950 . S
H3615 C3627 0.950 . S
C3616 H3608 0.950 . S
C3616 C3617 1.386 . S
C3616 C3618 1.391 . S
C3617 C3616 1.386 . S
C3617 C3621 1.393 . S
C3618 H3610 0.950 . S
C3618 C3616 1.391 . S
C3618 C3619 1.400 . S
C3619 C3618 1.400 . S
C3619 C3620 1.398 . S
C3619 C3625 1.491 . S
C3620 H3611 0.950 . S
C3620 C3619 1.398 . S
C3620 C3621 1.391 . S
C3621 H3609 0.950 . S
C3621 C3617 1.393 . S
C3621 C3620 1.391 . S
C3622 H3612 0.950 . S
C3622 C3623 1.386 . S
C3622 C3624 1.391 . S
C3623 C3622 1.386 . S
C3623 C3627 1.393 . S
C3624 H3613 0.950 . S
C3624 C3622 1.391 . S
C3624 C3625 1.400 . S
C3625 C3619 1.491 . S
C3625 C3624 1.400 . S
C3625 C3626 1.398 . S
C3626 H3614 0.950 . S
C3626 C3625 1.398 . S
C3626 C3627 1.391 . S
C3627 H3615 0.950 . S
C3627 C3623 1.393 . S
C3627 C3626 1.391 . S
H3628 C3636 0.950 . S
H3629 C3641 0.950 . S
H3630 C3638 0.950 . S
H3631 C3640 0.950 . S
H3632 C3642 0.950 . S
H3633 C3644 0.950 . S
H3634 C3646 0.950 . S
H3635 C3647 0.950 . S
C3636 H3628 0.950 . S
C3636 C3637 1.386 . S
C3636 C3638 1.391 . S
C3637 C3636 1.386 . S
C3637 C3641 1.393 . S
C3638 H3630 0.950 . S
C3638 C3636 1.391 . S
C3638 C3639 1.400 . S
C3639 C3638 1.400 . S
C3639 C3640 1.398 . S
C3639 C3645 1.491 . S
C3640 H3631 0.950 . S
C3640 C3639 1.398 . S
C3640 C3641 1.391 . S
C3641 H3629 0.950 . S
C3641 C3637 1.393 . S
C3641 C3640 1.391 . S
C3642 H3632 0.950 . S
C3642 C3643 1.386 . S
C3642 C3644 1.391 . S
C3643 C3642 1.386 . S
C3643 C3647 1.393 . S
C3644 H3633 0.950 . S
C3644 C3642 1.391 . S
C3644 C3645 1.400 . S
C3645 C3639 1.491 . S
C3645 C3644 1.400 . S
C3645 C3646 1.398 . S
C3646 H3634 0.950 . S
C3646 C3645 1.398 . S
C3646 C3647 1.391 . S
C3647 H3635 0.950 . S
C3647 C3643 1.393 . S
C3647 C3646 1.391 . S
H3648 C3656 0.950 . S
H3649 C3661 0.950 . S
H3650 C3658 0.950 . S
H3651 C3660 0.950 . S
H3652 C3662 0.950 . S
H3653 C3664 0.950 . S
H3654 C3666 0.950 . S
H3655 C3667 0.950 . S
C3656 H3648 0.950 . S
C3656 C3657 1.386 . S
C3656 C3658 1.391 . S
C3657 C3656 1.386 . S
C3657 C3661 1.393 . S
C3658 H3650 0.950 . S
C3658 C3656 1.391 . S
C3658 C3659 1.400 . S
C3659 C3658 1.400 . S
C3659 C3660 1.398 . S
C3659 C3665 1.491 . S
C3660 H3651 0.950 . S
C3660 C3659 1.398 . S
C3660 C3661 1.391 . S
C3661 H3649 0.950 . S
C3661 C3657 1.393 . S
C3661 C3660 1.391 . S
C3662 H3652 0.950 . S
C3662 C3663 1.386 . S
C3662 C3664 1.391 . S
C3663 C3662 1.386 . S
C3663 C3667 1.393 . S
C3664 H3653 0.950 . S
C3664 C3662 1.391 . S
C3664 C3665 1.400 . S
C3665 C3659 1.491 . S
C3665 C3664 1.400 . S
C3665 C3666 1.398 . S
C3666 H3654 0.950 . S
C3666 C3665 1.398 . S
C3666 C3667 1.391 . S
C3667 H3655 0.950 . S
C3667 C3663 1.393 . S
C3667 C3666 1.391 . S
H3668 C3676 0.950 . S
H3669 C3681 0.950 . S
H3670 C3678 0.950 . S
H3671 C3680 0.950 . S
H3672 C3682 0.950 . S
H3673 C3684 0.950 . S
H3674 C3686 0.950 . S
H3675 C3687 0.950 . S
C3676 H3668 0.950 . S
C3676 C3677 1.386 . S
C3676 C3678 1.391 . S
C3677 C3676 1.386 . S
C3677 C3681 1.393 . S
C3678 H3670 0.950 . S
C3678 C3676 1.391 . S
C3678 C3679 1.400 . S
C3679 C3678 1.400 . S
C3679 C3680 1.398 . S
C3679 C3685 1.491 . S
C3680 H3671 0.950 . S
C3680 C3679 1.398 . S
C3680 C3681 1.391 . S
C3681 H3669 0.950 . S
C3681 C3677 1.393 . S
C3681 C3680 1.391 . S
C3682 H3672 0.950 . S
C3682 C3683 1.386 . S
C3682 C3684 1.391 . S
C3683 C3682 1.386 . S
C3683 C3687 1.393 . S
C3684 H3673 0.950 . S
C3684 C3682 1.391 . S
C3684 C3685 1.400 . S
C3685 C3679 1.491 . S
C3685 C3684 1.400 . S
C3685 C3686 1.398 . S
C3686 H3674 0.950 . S
C3686 C3685 1.398 . S
C3686 C3687 1.391 . S
C3687 H3675 0.950 . S
C3687 C3683 1.393 . S
C3687 C3686 1.391 . S
H3688 C3696 0.950 . S
H3689 C3701 0.950 . S
H3690 C3698 0.950 . S
H3691 C3700 0.950 . S
H3692 C3702 0.950 . S
H3693 C3704 0.950 . S
H3694 C3706 0.950 . S
H3695 C3707 0.950 . S
C3696 H3688 0.950 . S
C3696 C3697 1.386 . S
C3696 C3698 1.391 . S
C3697 C3696 1.386 . S
C3697 C3701 1.393 . S
C3698 H3690 0.950 . S
C3698 C3696 1.391 . S
C3698 C3699 1.400 . S
C3699 C3698 1.400 . S
C3699 C3700 1.398 . S
C3699 C3705 1.491 . S
C3700 H3691 0.950 . S
C3700 C3699 1.398 . S
C3700 C3701 1.391 . S
C3701 H3689 0.950 . S
C3701 C3697 1.393 . S
C3701 C3700 1.391 . S
C3702 H3692 0.950 . S
C3702 C3703 1.386 . S
C3702 C3704 1.391 . S
C3703 C3702 1.386 . S
C3703 C3707 1.393 . S
C3704 H3693 0.950 . S
C3704 C3702 1.391 . S
C3704 C3705 1.400 . S
C3705 C3699 1.491 . S
C3705 C3704 1.400 . S
C3705 C3706 1.398 . S
C3706 H3694 0.950 . S
C3706 C3705 1.398 . S
C3706 C3707 1.391 . S
C3707 H3695 0.950 . S
C3707 C3703 1.393 . S
C3707 C3706 1.391 . S
H3708 C3716 0.950 . S
H3709 C3721 0.950 . S
H3710 C3718 0.950 . S
H3711 C3720 0.950 . S
H3712 C3722 0.950 . S
H3713 C3724 0.950 . S
H3714 C3726 0.950 . S
H3715 C3727 0.950 . S
C3716 H3708 0.950 . S
C3716 C3717 1.386 . S
C3716 C3718 1.391 . S
C3717 C3716 1.386 . S
C3717 C3721 1.393 . S
C3718 H3710 0.950 . S
C3718 C3716 1.391 . S
C3718 C3719 1.400 . S
C3719 C3718 1.400 . S
C3719 C3720 1.398 . S
C3719 C3725 1.491 . S
C3720 H3711 0.950 . S
C3720 C3719 1.398 . S
C3720 C3721 1.391 . S
C3721 H3709 0.950 . S
C3721 C3717 1.393 . S
C3721 C3720 1.391 . S
C3722 H3712 0.950 . S
C3722 C3723 1.386 . S
C3722 C3724 1.391 . S
C3723 C3722 1.386 . S
C3723 C3727 1.393 . S
C3724 H3713 0.950 . S
C3724 C3722 1.391 . S
C3724 C3725 1.400 . S
C3725 C3719 1.491 . S
C3725 C3724 1.400 . S
C3725 C3726 1.398 . S
C3726 H3714 0.950 . S
C3726 C3725 1.398 . S
C3726 C3727 1.391 . S
C3727 H3715 0.950 . S
C3727 C3723 1.393 . S
C3727 C3726 1.391 . S
H3728 C3736 0.950 . S
H3729 C3741 0.950 . S
H3730 C3738 0.950 . S
H3731 C3740 0.950 . S
H3732 C3742 0.950 . S
H3733 C3744 0.950 . S
H3734 C3746 0.950 . S
H3735 C3747 0.950 . S
C3736 H3728 0.950 . S
C3736 C3737 1.386 . S
C3736 C3738 1.391 . S
C3737 C3736 1.386 . S
C3737 C3741 1.393 . S
C3738 H3730 0.950 . S
C3738 C3736 1.391 . S
C3738 C3739 1.400 . S
C3739 C3738 1.400 . S
C3739 C3740 1.398 . S
C3739 C3745 1.491 . S
C3740 H3731 0.950 . S
C3740 C3739 1.398 . S
C3740 C3741 1.391 . S
C3741 H3729 0.950 . S
C3741 C3737 1.393 . S
C3741 C3740 1.391 . S
C3742 H3732 0.950 . S
C3742 C3743 1.386 . S
C3742 C3744 1.391 . S
C3743 C3742 1.386 . S
C3743 C3747 1.393 . S
C3744 H3733 0.950 . S
C3744 C3742 1.391 . S
C3744 C3745 1.400 . S
C3745 C3739 1.491 . S
C3745 C3744 1.400 . S
C3745 C3746 1.398 . S
C3746 H3734 0.950 . S
C3746 C3745 1.398 . S
C3746 C3747 1.391 . S
C3747 H3735 0.950 . S
C3747 C3743 1.393 . S
C3747 C3746 1.391 . S
H3748 C3756 0.950 . S
H3749 C3761 0.950 . S
H3750 C3758 0.950 . S
H3751 C3760 0.950 . S
H3752 C3762 0.950 . S
H3753 C3764 0.950 . S
H3754 C3766 0.950 . S
H3755 C3767 0.950 . S
C3756 H3748 0.950 . S
C3756 C3757 1.386 . S
C3756 C3758 1.391 . S
C3757 C3756 1.386 . S
C3757 C3761 1.393 . S
C3758 H3750 0.950 . S
C3758 C3756 1.391 . S
C3758 C3759 1.400 . S
C3759 C3758 1.400 . S
C3759 C3760 1.398 . S
C3759 C3765 1.491 . S
C3760 H3751 0.950 . S
C3760 C3759 1.398 . S
C3760 C3761 1.391 . S
C3761 H3749 0.950 . S
C3761 C3757 1.393 . S
C3761 C3760 1.391 . S
C3762 H3752 0.950 . S
C3762 C3763 1.386 . S
C3762 C3764 1.391 . S
C3763 C3762 1.386 . S
C3763 C3767 1.393 . S
C3764 H3753 0.950 . S
C3764 C3762 1.391 . S
C3764 C3765 1.400 . S
C3765 C3759 1.491 . S
C3765 C3764 1.400 . S
C3765 C3766 1.398 . S
C3766 H3754 0.950 . S
C3766 C3765 1.398 . S
C3766 C3767 1.391 . S
C3767 H3755 0.950 . S
C3767 C3763 1.393 . S
C3767 C3766 1.391 . S
H3768 C3776 0.950 . S
H3769 C3781 0.950 . S
H3770 C3778 0.950 . S
H3771 C3780 0.950 . S
H3772 C3782 0.950 . S
H3773 C3784 0.950 . S
H3774 C3786 0.950 . S
H3775 C3787 0.950 . S
C3776 H3768 0.950 . S
C3776 C3777 1.386 . S
C3776 C3778 1.391 . S
C3777 C3776 1.386 . S
C3777 C3781 1.393 . S
C3778 H3770 0.950 . S
C3778 C3776 1.391 . S
C3778 C3779 1.400 . S
C3779 C3778 1.400 . S
C3779 C3780 1.398 . S
C3779 C3785 1.491 . S
C3780 H3771 0.950 . S
C3780 C3779 1.398 . S
C3780 C3781 1.391 . S
C3781 H3769 0.950 . S
C3781 C3777 1.393 . S
C3781 C3780 1.391 . S
C3782 H3772 0.950 . S
C3782 C3783 1.386 . S
C3782 C3784 1.391 . S
C3783 C3782 1.386 . S
C3783 C3787 1.393 . S
C3784 H3773 0.950 . S
C3784 C3782 1.391 . S
C3784 C3785 1.400 . S
C3785 C3779 1.491 . S
C3785 C3784 1.400 . S
C3785 C3786 1.398 . S
C3786 H3774 0.950 . S
C3786 C3785 1.398 . S
C3786 C3787 1.391 . S
C3787 H3775 0.950 . S
C3787 C3783 1.393 . S
C3787 C3786 1.391 . S
H3788 C3796 0.950 . S
H3789 C3801 0.950 . S
H3790 C3798 0.950 . S
H3791 C3800 0.950 . S
H3792 C3802 0.950 . S
H3793 C3804 0.950 . S
H3794 C3806 0.950 . S
H3795 C3807 0.950 . S
C3796 H3788 0.950 . S
C3796 C3797 1.386 . S
C3796 C3798 1.391 . S
C3797 C3796 1.386 . S
C3797 C3801 1.393 . S
C3798 H3790 0.950 . S
C3798 C3796 1.391 . S
C3798 C3799 1.400 . S
C3799 C3798 1.400 . S
C3799 C3800 1.398 . S
C3799 C3805 1.491 . S
C3800 H3791 0.950 . S
C3800 C3799 1.398 . S
C3800 C3801 1.391 . S
C3801 H3789 0.950 . S
C3801 C3797 1.393 . S
C3801 C3800 1.391 . S
C3802 H3792 0.950 . S
C3802 C3803 1.386 . S
C3802 C3804 1.391 . S
C3803 C3802 1.386 . S
C3803 C3807 1.393 . S
C3804 H3793 0.950 . S
C3804 C3802 1.391 . S
C3804 C3805 1.400 . S
C3805 C3799 1.491 . S
C3805 C3804 1.400 . S
C3805 C3806 1.398 . S
C3806 H3794 0.950 . S
C3806 C3805 1.398 . S
C3806 C3807 1.391 . S
C3807 H3795 0.950 . S
C3807 C3803 1.393 . S
C3807 C3806 1.391 . S
H3808 C3816 0.950 . S
H3809 C3821 0.950 . S
H3810 C3818 0.950 . S
H3811 C3820 0.950 . S
H3812 C3822 0.950 . S
H3813 C3824 0.950 . S
H3814 C3826 0.950 . S
H3815 C3827 0.950 . S
C3816 H3808 0.950 . S
C3816 C3817 1.386 . S
C3816 C3818 1.391 . S
C3817 C3816 1.386 . S
C3817 C3821 1.393 . S
C3818 H3810 0.950 . S
C3818 C3816 1.391 . S
C3818 C3819 1.400 . S
C3819 C3818 1.400 . S
C3819 C3820 1.398 . S
C3819 C3825 1.491 . S
C3820 H3811 0.950 . S
C3820 C3819 1.398 . S
C3820 C3821 1.391 . S
C3821 H3809 0.950 . S
C3821 C3817 1.393 . S
C3821 C3820 1.391 . S
C3822 H3812 0.950 . S
C3822 C3823 1.386 . S
C3822 C3824 1.391 . S
C3823 C3822 1.386 . S
C3823 C3827 1.393 . S
C3824 H3813 0.950 . S
C3824 C3822 1.391 . S
C3824 C3825 1.400 . S
C3825 C3819 1.491 . S
C3825 C3824 1.400 . S
C3825 C3826 1.398 . S
C3826 H3814 0.950 . S
C3826 C3825 1.398 . S
C3826 C3827 1.391 . S
C3827 H3815 0.950 . S
C3827 C3823 1.393 . S
C3827 C3826 1.391 . S
H3828 C3836 0.950 . S
H3829 C3841 0.950 . S
H3830 C3838 0.950 . S
H3831 C3840 0.950 . S
H3832 C3842 0.950 . S
H3833 C3844 0.950 . S
H3834 C3846 0.950 . S
H3835 C3847 0.950 . S
C3836 H3828 0.950 . S
C3836 C3837 1.386 . S
C3836 C3838 1.391 . S
C3837 C3836 1.386 . S
C3837 C3841 1.393 . S
C3838 H3830 0.950 . S
C3838 C3836 1.391 . S
C3838 C3839 1.400 . S
C3839 C3838 1.400 . S
C3839 C3840 1.398 . S
C3839 C3845 1.491 . S
C3840 H3831 0.950 . S
C3840 C3839 1.398 . S
C3840 C3841 1.391 . S
C3841 H3829 0.950 . S
C3841 C3837 1.393 . S
C3841 C3840 1.391 . S
C3842 H3832 0.950 . S
C3842 C3843 1.386 . S
C3842 C3844 1.391 . S
C3843 C3842 1.386 . S
C3843 C3847 1.393 . S
C3844 H3833 0.950 . S
C3844 C3842 1.391 . S
C3844 C3845 1.400 . S
C3845 C3839 1.491 . S
C3845 C3844 1.400 . S
C3845 C3846 1.398 . S
C3846 H3834 0.950 . S
C3846 C3845 1.398 . S
C3846 C3847 1.391 . S
C3847 H3835 0.950 . S
C3847 C3843 1.393 . S
C3847 C3846 1.391 . S
H3848 C3856 0.950 . S
H3849 C3861 0.950 . S
H3850 C3858 0.950 . S
H3851 C3860 0.950 . S
H3852 C3862 0.950 . S
H3853 C3864 0.950 . S
H3854 C3866 0.950 . S
H3855 C3867 0.950 . S
C3856 H3848 0.950 . S
C3856 C3857 1.386 . S
C3856 C3858 1.391 . S
C3857 C3856 1.386 . S
C3857 C3861 1.393 . S
C3858 H3850 0.950 . S
C3858 C3856 1.391 . S
C3858 C3859 1.400 . S
C3859 C3858 1.400 . S
C3859 C3860 1.398 . S
C3859 C3865 1.491 . S
C3860 H3851 0.950 . S
C3860 C3859 1.398 . S
C3860 C3861 1.391 . S
C3861 H3849 0.950 . S
C3861 C3857 1.393 . S
C3861 C3860 1.391 . S
C3862 H3852 0.950 . S
C3862 C3863 1.386 . S
C3862 C3864 1.391 . S
C3863 C3862 1.386 . S
C3863 C3867 1.393 . S
C3864 H3853 0.950 . S
C3864 C3862 1.391 . S
C3864 C3865 1.400 . S
C3865 C3859 1.491 . S
C3865 C3864 1.400 . S
C3865 C3866 1.398 . S
C3866 H3854 0.950 . S
C3866 C3865 1.398 . S
C3866 C3867 1.391 . S
C3867 H3855 0.950 . S
C3867 C3863 1.393 . S
C3867 C3866 1.391 . S
H3868 C3876 0.950 . S
H3869 C3881 0.950 . S
H3870 C3878 0.950 . S
H3871 C3880 0.950 . S
H3872 C3882 0.950 . S
H3873 C3884 0.950 . S
H3874 C3886 0.950 . S
H3875 C3887 0.950 . S
C3876 H3868 0.950 . S
C3876 C3877 1.386 . S
C3876 C3878 1.391 . S
C3877 C3876 1.386 . S
C3877 C3881 1.393 . S
C3878 H3870 0.950 . S
C3878 C3876 1.391 . S
C3878 C3879 1.400 . S
C3879 C3878 1.400 . S
C3879 C3880 1.398 . S
C3879 C3885 1.491 . S
C3880 H3871 0.950 . S
C3880 C3879 1.398 . S
C3880 C3881 1.391 . S
C3881 H3869 0.950 . S
C3881 C3877 1.393 . S
C3881 C3880 1.391 . S
C3882 H3872 0.950 . S
C3882 C3883 1.386 . S
C3882 C3884 1.391 . S
C3883 C3882 1.386 . S
C3883 C3887 1.393 . S
C3884 H3873 0.950 . S
C3884 C3882 1.391 . S
C3884 C3885 1.400 . S
C3885 C3879 1.491 . S
C3885 C3884 1.400 . S
C3885 C3886 1.398 . S
C3886 H3874 0.950 . S
C3886 C3885 1.398 . S
C3886 C3887 1.391 . S
C3887 H3875 0.950 . S
C3887 C3883 1.393 . S
C3887 C3886 1.391 . S
H3888 C3896 0.950 . S
H3889 C3901 0.950 . S
H3890 C3898 0.950 . S
H3891 C3900 0.950 . S
H3892 C3902 0.950 . S
H3893 C3904 0.950 . S
H3894 C3906 0.950 . S
H3895 C3907 0.950 . S
C3896 H3888 0.950 . S
C3896 C3897 1.386 . S
C3896 C3898 1.391 . S
C3897 C3896 1.386 . S
C3897 C3901 1.393 . S
C3898 H3890 0.950 . S
C3898 C3896 1.391 . S
C3898 C3899 1.400 . S
C3899 C3898 1.400 . S
C3899 C3900 1.398 . S
C3899 C3905 1.491 . S
C3900 H3891 0.950 . S
C3900 C3899 1.398 . S
C3900 C3901 1.391 . S
C3901 H3889 0.950 . S
C3901 C3897 1.393 . S
C3901 C3900 1.391 . S
C3902 H3892 0.950 . S
C3902 C3903 1.386 . S
C3902 C3904 1.391 . S
C3903 C3902 1.386 . S
C3903 C3907 1.393 . S
C3904 H3893 0.950 . S
C3904 C3902 1.391 . S
C3904 C3905 1.400 . S
C3905 C3899 1.491 . S
C3905 C3904 1.400 . S
C3905 C3906 1.398 . S
C3906 H3894 0.950 . S
C3906 C3905 1.398 . S
C3906 C3907 1.391 . S
C3907 H3895 0.950 . S
C3907 C3903 1.393 . S
C3907 C3906 1.391 . S
H3908 C3916 0.950 . S
H3909 C3921 0.950 . S
H3910 C3918 0.950 . S
H3911 C3920 0.950 . S
H3912 C3922 0.950 . S
H3913 C3924 0.950 . S
H3914 C3926 0.950 . S
H3915 C3927 0.950 . S
C3916 H3908 0.950 . S
C3916 C3917 1.386 . S
C3916 C3918 1.391 . S
C3917 C3916 1.386 . S
C3917 C3921 1.393 . S
C3918 H3910 0.950 . S
C3918 C3916 1.391 . S
C3918 C3919 1.400 . S
C3919 C3918 1.400 . S
C3919 C3920 1.398 . S
C3919 C3925 1.491 . S
C3920 H3911 0.950 . S
C3920 C3919 1.398 . S
C3920 C3921 1.391 . S
C3921 H3909 0.950 . S
C3921 C3917 1.393 . S
C3921 C3920 1.391 . S
C3922 H3912 0.950 . S
C3922 C3923 1.386 . S
C3922 C3924 1.391 . S
C3923 C3922 1.386 . S
C3923 C3927 1.393 . S
C3924 H3913 0.950 . S
C3924 C3922 1.391 . S
C3924 C3925 1.400 . S
C3925 C3919 1.491 . S
C3925 C3924 1.400 . S
C3925 C3926 1.398 . S
C3926 H3914 0.950 . S
C3926 C3925 1.398 . S
C3926 C3927 1.391 . S
C3927 H3915 0.950 . S
C3927 C3923 1.393 . S
C3927 C3926 1.391 . S
H3928 C3936 0.950 . S
H3929 C3941 0.950 . S
H3930 C3938 0.950 . S
H3931 C3940 0.950 . S
H3932 C3942 0.950 . S
H3933 C3944 0.950 . S
H3934 C3946 0.950 . S
H3935 C3947 0.950 . S
C3936 H3928 0.950 . S
C3936 C3937 1.386 . S
C3936 C3938 1.391 . S
C3937 C3936 1.386 . S
C3937 C3941 1.393 . S
C3938 H3930 0.950 . S
C3938 C3936 1.391 . S
C3938 C3939 1.400 . S
C3939 C3938 1.400 . S
C3939 C3940 1.398 . S
C3939 C3945 1.491 . S
C3940 H3931 0.950 . S
C3940 C3939 1.398 . S
C3940 C3941 1.391 . S
C3941 H3929 0.950 . S
C3941 C3937 1.393 . S
C3941 C3940 1.391 . S
C3942 H3932 0.950 . S
C3942 C3943 1.386 . S
C3942 C3944 1.391 . S
C3943 C3942 1.386 . S
C3943 C3947 1.393 . S
C3944 H3933 0.950 . S
C3944 C3942 1.391 . S
C3944 C3945 1.400 . S
C3945 C3939 1.491 . S
C3945 C3944 1.400 . S
C3945 C3946 1.398 . S
C3946 H3934 0.950 . S
C3946 C3945 1.398 . S
C3946 C3947 1.391 . S
C3947 H3935 0.950 . S
C3947 C3943 1.393 . S
C3947 C3946 1.391 . S
H3948 C3956 0.950 . S
H3949 C3961 0.950 . S
H3950 C3958 0.950 . S
H3951 C3960 0.950 . S
H3952 C3962 0.950 . S
H3953 C3964 0.950 . S
H3954 C3966 0.950 . S
H3955 C3967 0.950 . S
C3956 H3948 0.950 . S
C3956 C3957 1.386 . S
C3956 C3958 1.391 . S
C3957 C3956 1.386 . S
C3957 C3961 1.393 . S
C3958 H3950 0.950 . S
C3958 C3956 1.391 . S
C3958 C3959 1.400 . S
C3959 C3958 1.400 . S
C3959 C3960 1.398 . S
C3959 C3965 1.491 . S
C3960 H3951 0.950 . S
C3960 C3959 1.398 . S
C3960 C3961 1.391 . S
C3961 H3949 0.950 . S
C3961 C3957 1.393 . S
C3961 C3960 1.391 . S
C3962 H3952 0.950 . S
C3962 C3963 1.386 . S
C3962 C3964 1.391 . S
C3963 C3962 1.386 . S
C3963 C3967 1.393 . S
C3964 H3953 0.950 . S
C3964 C3962 1.391 . S
C3964 C3965 1.400 . S
C3965 C3959 1.491 . S
C3965 C3964 1.400 . S
C3965 C3966 1.398 . S
C3966 H3954 0.950 . S
C3966 C3965 1.398 . S
C3966 C3967 1.391 . S
C3967 H3955 0.950 . S
C3967 C3963 1.393 . S
C3967 C3966 1.391 . S
H3968 C3976 0.950 . S
H3969 C3981 0.950 . S
H3970 C3978 0.950 . S
H3971 C3980 0.950 . S
H3972 C3982 0.950 . S
H3973 C3984 0.950 . S
H3974 C3986 0.950 . S
H3975 C3987 0.950 . S
C3976 H3968 0.950 . S
C3976 C3977 1.386 . S
C3976 C3978 1.391 . S
C3977 C3976 1.386 . S
C3977 C3981 1.393 . S
C3978 H3970 0.950 . S
C3978 C3976 1.391 . S
C3978 C3979 1.400 . S
C3979 C3978 1.400 . S
C3979 C3980 1.398 . S
C3979 C3985 1.491 . S
C3980 H3971 0.950 . S
C3980 C3979 1.398 . S
C3980 C3981 1.391 . S
C3981 H3969 0.950 . S
C3981 C3977 1.393 . S
C3981 C3980 1.391 . S
C3982 H3972 0.950 . S
C3982 C3983 1.386 . S
C3982 C3984 1.391 . S
C3983 C3982 1.386 . S
C3983 C3987 1.393 . S
C3984 H3973 0.950 . S
C3984 C3982 1.391 . S
C3984 C3985 1.400 . S
C3985 C3979 1.491 . S
C3985 C3984 1.400 . S
C3985 C3986 1.398 . S
C3986 H3974 0.950 . S
C3986 C3985 1.398 . S
C3986 C3987 1.391 . S
C3987 H3975 0.950 . S
C3987 C3983 1.393 . S
C3987 C3986 1.391 . S
H3988 C3996 0.950 . S
H3989 C4001 0.950 . S
H3990 C3998 0.950 . S
H3991 C4000 0.950 . S
H3992 C4002 0.950 . S
H3993 C4004 0.950 . S
H3994 C4006 0.950 . S
H3995 C4007 0.950 . S
C3996 H3988 0.950 . S
C3996 C3997 1.386 . S
C3996 C3998 1.391 . S
C3997 C3996 1.386 . S
C3997 C4001 1.393 . S
C3998 H3990 0.950 . S
C3998 C3996 1.391 . S
C3998 C3999 1.400 . S
C3999 C3998 1.400 . S
C3999 C4000 1.398 . S
C3999 C4005 1.491 . S
C4000 H3991 0.950 . S
C4000 C3999 1.398 . S
C4000 C4001 1.391 . S
C4001 H3989 0.950 . S
C4001 C3997 1.393 . S
C4001 C4000 1.391 . S
C4002 H3992 0.950 . S
C4002 C4003 1.386 . S
C4002 C4004 1.391 . S
C4003 C4002 1.386 . S
C4003 C4007 1.393 . S
C4004 H3993 0.950 . S
C4004 C4002 1.391 . S
C4004 C4005 1.400 . S
C4005 C3999 1.491 . S
C4005 C4004 1.400 . S
C4005 C4006 1.398 . S
C4006 H3994 0.950 . S
C4006 C4005 1.398 . S
C4006 C4007 1.391 . S
C4007 H3995 0.950 . S
C4007 C4003 1.393 . S
C4007 C4006 1.391 . S
H4008 C4016 0.950 . S
H4009 C4021 0.950 . S
H4010 C4018 0.950 . S
H4011 C4020 0.950 . S
H4012 C4022 0.950 . S
H4013 C4024 0.950 . S
H4014 C4026 0.950 . S
H4015 C4027 0.950 . S
C4016 H4008 0.950 . S
C4016 C4017 1.386 . S
C4016 C4018 1.391 . S
C4017 C4016 1.386 . S
C4017 C4021 1.393 . S
C4018 H4010 0.950 . S
C4018 C4016 1.391 . S
C4018 C4019 1.400 . S
C4019 C4018 1.400 . S
C4019 C4020 1.398 . S
C4019 C4025 1.491 . S
C4020 H4011 0.950 . S
C4020 C4019 1.398 . S
C4020 C4021 1.391 . S
C4021 H4009 0.950 . S
C4021 C4017 1.393 . S
C4021 C4020 1.391 . S
C4022 H4012 0.950 . S
C4022 C4023 1.386 . S
C4022 C4024 1.391 . S
C4023 C4022 1.386 . S
C4023 C4027 1.393 . S
C4024 H4013 0.950 . S
C4024 C4022 1.391 . S
C4024 C4025 1.400 . S
C4025 C4019 1.491 . S
C4025 C4024 1.400 . S
C4025 C4026 1.398 . S
C4026 H4014 0.950 . S
C4026 C4025 1.398 . S
C4026 C4027 1.391 . S
C4027 H4015 0.950 . S
C4027 C4023 1.393 . S
C4027 C4026 1.391 . S
H4028 C4036 0.950 . S
H4029 C4041 0.950 . S
H4030 C4038 0.950 . S
H4031 C4040 0.950 . S
H4032 C4042 0.950 . S
H4033 C4044 0.950 . S
H4034 C4046 0.950 . S
H4035 C4047 0.950 . S
C4036 H4028 0.950 . S
C4036 C4037 1.386 . S
C4036 C4038 1.391 . S
C4037 C4036 1.386 . S
C4037 C4041 1.393 . S
C4038 H4030 0.950 . S
C4038 C4036 1.391 . S
C4038 C4039 1.400 . S
C4039 C4038 1.400 . S
C4039 C4040 1.398 . S
C4039 C4045 1.491 . S
C4040 H4031 0.950 . S
C4040 C4039 1.398 . S
C4040 C4041 1.391 . S
C4041 H4029 0.950 . S
C4041 C4037 1.393 . S
C4041 C4040 1.391 . S
C4042 H4032 0.950 . S
C4042 C4043 1.386 . S
C4042 C4044 1.391 . S
C4043 C4042 1.386 . S
C4043 C4047 1.393 . S
C4044 H4033 0.950 . S
C4044 C4042 1.391 . S
C4044 C4045 1.400 . S
C4045 C4039 1.491 . S
C4045 C4044 1.400 . S
C4045 C4046 1.398 . S
C4046 H4034 0.950 . S
C4046 C4045 1.398 . S
C4046 C4047 1.391 . S
C4047 H4035 0.950 . S
C4047 C4043 1.393 . S
C4047 C4046 1.391 . S
H4048 C4056 0.950 . S
H4049 C4061 0.950 . S
H4050 C4058 0.950 . S
H4051 C4060 0.950 . S
H4052 C4062 0.950 . S
H4053 C4064 0.950 . S
H4054 C4066 0.950 . S
H4055 C4067 0.950 . S
C4056 H4048 0.950 . S
C4056 C4057 1.386 . S
C4056 C4058 1.391 . S
C4057 C4056 1.386 . S
C4057 C4061 1.393 . S
C4058 H4050 0.950 . S
C4058 C4056 1.391 . S
C4058 C4059 1.400 . S
C4059 C4058 1.400 . S
C4059 C4060 1.398 . S
C4059 C4065 1.491 . S
C4060 H4051 0.950 . S
C4060 C4059 1.398 . S
C4060 C4061 1.391 . S
C4061 H4049 0.950 . S
C4061 C4057 1.393 . S
C4061 C4060 1.391 . S
C4062 H4052 0.950 . S
C4062 C4063 1.386 . S
C4062 C4064 1.391 . S
C4063 C4062 1.386 . S
C4063 C4067 1.393 . S
C4064 H4053 0.950 . S
C4064 C4062 1.391 . S
C4064 C4065 1.400 . S
C4065 C4059 1.491 . S
C4065 C4064 1.400 . S
C4065 C4066 1.398 . S
C4066 H4054 0.950 . S
C4066 C4065 1.398 . S
C4066 C4067 1.391 . S
C4067 H4055 0.950 . S
C4067 C4063 1.393 . S
C4067 C4066 1.391 . S
H4068 C4076 0.950 . S
H4069 C4081 0.950 . S
H4070 C4078 0.950 . S
H4071 C4080 0.950 . S
H4072 C4082 0.950 . S
H4073 C4084 0.950 . S
H4074 C4086 0.950 . S
H4075 C4087 0.950 . S
C4076 H4068 0.950 . S
C4076 C4077 1.386 . S
C4076 C4078 1.391 . S
C4077 C4076 1.386 . S
C4077 C4081 1.393 . S
C4078 H4070 0.950 . S
C4078 C4076 1.391 . S
C4078 C4079 1.400 . S
C4079 C4078 1.400 . S
C4079 C4080 1.398 . S
C4079 C4085 1.491 . S
C4080 H4071 0.950 . S
C4080 C4079 1.398 . S
C4080 C4081 1.391 . S
C4081 H4069 0.950 . S
C4081 C4077 1.393 . S
C4081 C4080 1.391 . S
C4082 H4072 0.950 . S
C4082 C4083 1.386 . S
C4082 C4084 1.391 . S
C4083 C4082 1.386 . S
C4083 C4087 1.393 . S
C4084 H4073 0.950 . S
C4084 C4082 1.391 . S
C4084 C4085 1.400 . S
C4085 C4079 1.491 . S
C4085 C4084 1.400 . S
C4085 C4086 1.398 . S
C4086 H4074 0.950 . S
C4086 C4085 1.398 . S
C4086 C4087 1.391 . S
C4087 H4075 0.950 . S
C4087 C4083 1.393 . S
C4087 C4086 1.391 . S
H4088 C4096 0.950 . S
H4089 C4101 0.950 . S
H4090 C4098 0.950 . S
H4091 C4100 0.950 . S
H4092 C4102 0.950 . S
H4093 C4104 0.950 . S
H4094 C4106 0.950 . S
H4095 C4107 0.950 . S
C4096 H4088 0.950 . S
C4096 C4097 1.386 . S
C4096 C4098 1.391 . S
C4097 C4096 1.386 . S
C4097 C4101 1.393 . S
C4098 H4090 0.950 . S
C4098 C4096 1.391 . S
C4098 C4099 1.400 . S
C4099 C4098 1.400 . S
C4099 C4100 1.398 . S
C4099 C4105 1.491 . S
C4100 H4091 0.950 . S
C4100 C4099 1.398 . S
C4100 C4101 1.391 . S
C4101 H4089 0.950 . S
C4101 C4097 1.393 . S
C4101 C4100 1.391 . S
C4102 H4092 0.950 . S
C4102 C4103 1.386 . S
C4102 C4104 1.391 . S
C4103 C4102 1.386 . S
C4103 C4107 1.393 . S
C4104 H4093 0.950 . S
C4104 C4102 1.391 . S
C4104 C4105 1.400 . S
C4105 C4099 1.491 . S
C4105 C4104 1.400 . S
C4105 C4106 1.398 . S
C4106 H4094 0.950 . S
C4106 C4105 1.398 . S
C4106 C4107 1.391 . S
C4107 H4095 0.950 . S
C4107 C4103 1.393 . S
C4107 C4106 1.391 . S
H4108 C4116 0.950 . S
H4109 C4121 0.950 . S
H4110 C4118 0.950 . S
H4111 C4120 0.950 . S
H4112 C4122 0.950 . S
H4113 C4124 0.950 . S
H4114 C4126 0.950 . S
H4115 C4127 0.950 . S
C4116 H4108 0.950 . S
C4116 C4117 1.386 . S
C4116 C4118 1.391 . S
C4117 C4116 1.386 . S
C4117 C4121 1.393 . S
C4118 H4110 0.950 . S
C4118 C4116 1.391 . S
C4118 C4119 1.400 . S
C4119 C4118 1.400 . S
C4119 C4120 1.398 . S
C4119 C4125 1.491 . S
C4120 H4111 0.950 . S
C4120 C4119 1.398 . S
C4120 C4121 1.391 . S
C4121 H4109 0.950 . S
C4121 C4117 1.393 . S
C4121 C4120 1.391 . S
C4122 H4112 0.950 . S
C4122 C4123 1.386 . S
C4122 C4124 1.391 . S
C4123 C4122 1.386 . S
C4123 C4127 1.393 . S
C4124 H4113 0.950 . S
C4124 C4122 1.391 . S
C4124 C4125 1.400 . S
C4125 C4119 1.491 . S
C4125 C4124 1.400 . S
C4125 C4126 1.398 . S
C4126 H4114 0.950 . S
C4126 C4125 1.398 . S
C4126 C4127 1.391 . S
C4127 H4115 0.950 . S
C4127 C4123 1.393 . S
C4127 C4126 1.391 . S
H4128 C4136 0.950 . S
H4129 C4141 0.950 . S
H4130 C4138 0.950 . S
H4131 C4140 0.950 . S
H4132 C4142 0.950 . S
H4133 C4144 0.950 . S
H4134 C4146 0.950 . S
H4135 C4147 0.950 . S
C4136 H4128 0.950 . S
C4136 C4137 1.386 . S
C4136 C4138 1.391 . S
C4137 C4136 1.386 . S
C4137 C4141 1.393 . S
C4138 H4130 0.950 . S
C4138 C4136 1.391 . S
C4138 C4139 1.400 . S
C4139 C4138 1.400 . S
C4139 C4140 1.398 . S
C4139 C4145 1.491 . S
C4140 H4131 0.950 . S
C4140 C4139 1.398 . S
C4140 C4141 1.391 . S
C4141 H4129 0.950 . S
C4141 C4137 1.393 . S
C4141 C4140 1.391 . S
C4142 H4132 0.950 . S
C4142 C4143 1.386 . S
C4142 C4144 1.391 . S
C4143 C4142 1.386 . S
C4143 C4147 1.393 . S
C4144 H4133 0.950 . S
C4144 C4142 1.391 . S
C4144 C4145 1.400 . S
C4145 C4139 1.491 . S
C4145 C4144 1.400 . S
C4145 C4146 1.398 . S
C4146 H4134 0.950 . S
C4146 C4145 1.398 . S
C4146 C4147 1.391 . S
C4147 H4135 0.950 . S
C4147 C4143 1.393 . S
C4147 C4146 1.391 . S
H4148 C4156 0.950 . S
H4149 C4161 0.950 . S
H4150 C4158 0.950 . S
H4151 C4160 0.950 . S
H4152 C4162 0.950 . S
H4153 C4164 0.950 . S
H4154 C4166 0.950 . S
H4155 C4167 0.950 . S
C4156 H4148 0.950 . S
C4156 C4157 1.386 . S
C4156 C4158 1.391 . S
C4157 C4156 1.386 . S
C4157 C4161 1.393 . S
C4158 H4150 0.950 . S
C4158 C4156 1.391 . S
C4158 C4159 1.400 . S
C4159 C4158 1.400 . S
C4159 C4160 1.398 . S
C4159 C4165 1.491 . S
C4160 H4151 0.950 . S
C4160 C4159 1.398 . S
C4160 C4161 1.391 . S
C4161 H4149 0.950 . S
C4161 C4157 1.393 . S
C4161 C4160 1.391 . S
C4162 H4152 0.950 . S
C4162 C4163 1.386 . S
C4162 C4164 1.391 . S
C4163 C4162 1.386 . S
C4163 C4167 1.393 . S
C4164 H4153 0.950 . S
C4164 C4162 1.391 . S
C4164 C4165 1.400 . S
C4165 C4159 1.491 . S
C4165 C4164 1.400 . S
C4165 C4166 1.398 . S
C4166 H4154 0.950 . S
C4166 C4165 1.398 . S
C4166 C4167 1.391 . S
C4167 H4155 0.950 . S
C4167 C4163 1.393 . S
C4167 C4166 1.391 . S
H4168 C4176 0.950 . S
H4169 C4181 0.950 . S
H4170 C4178 0.950 . S
H4171 C4180 0.950 . S
H4172 C4182 0.950 . S
H4173 C4184 0.950 . S
H4174 C4186 0.950 . S
H4175 C4187 0.950 . S
C4176 H4168 0.950 . S
C4176 C4177 1.386 . S
C4176 C4178 1.391 . S
C4177 C4176 1.386 . S
C4177 C4181 1.393 . S
C4178 H4170 0.950 . S
C4178 C4176 1.391 . S
C4178 C4179 1.400 . S
C4179 C4178 1.400 . S
C4179 C4180 1.398 . S
C4179 C4185 1.491 . S
C4180 H4171 0.950 . S
C4180 C4179 1.398 . S
C4180 C4181 1.391 . S
C4181 H4169 0.950 . S
C4181 C4177 1.393 . S
C4181 C4180 1.391 . S
C4182 H4172 0.950 . S
C4182 C4183 1.386 . S
C4182 C4184 1.391 . S
C4183 C4182 1.386 . S
C4183 C4187 1.393 . S
C4184 H4173 0.950 . S
C4184 C4182 1.391 . S
C4184 C4185 1.400 . S
C4185 C4179 1.491 . S
C4185 C4184 1.400 . S
C4185 C4186 1.398 . S
C4186 H4174 0.950 . S
C4186 C4185 1.398 . S
C4186 C4187 1.391 . S
C4187 H4175 0.950 . S
C4187 C4183 1.393 . S
C4187 C4186 1.391 . S
H4188 C4196 0.950 . S
H4189 C4201 0.950 . S
H4190 C4198 0.950 . S
H4191 C4200 0.950 . S
H4192 C4202 0.950 . S
H4193 C4204 0.950 . S
H4194 C4206 0.950 . S
H4195 C4207 0.950 . S
C4196 H4188 0.950 . S
C4196 C4197 1.386 . S
C4196 C4198 1.391 . S
C4197 C4196 1.386 . S
C4197 C4201 1.393 . S
C4198 H4190 0.950 . S
C4198 C4196 1.391 . S
C4198 C4199 1.400 . S
C4199 C4198 1.400 . S
C4199 C4200 1.398 . S
C4199 C4205 1.491 . S
C4200 H4191 0.950 . S
C4200 C4199 1.398 . S
C4200 C4201 1.391 . S
C4201 H4189 0.950 . S
C4201 C4197 1.393 . S
C4201 C4200 1.391 . S
C4202 H4192 0.950 . S
C4202 C4203 1.386 . S
C4202 C4204 1.391 . S
C4203 C4202 1.386 . S
C4203 C4207 1.393 . S
C4204 H4193 0.950 . S
C4204 C4202 1.391 . S
C4204 C4205 1.400 . S
C4205 C4199 1.491 . S
C4205 C4204 1.400 . S
C4205 C4206 1.398 . S
C4206 H4194 0.950 . S
C4206 C4205 1.398 . S
C4206 C4207 1.391 . S
C4207 H4195 0.950 . S
C4207 C4203 1.393 . S
C4207 C4206 1.391 . S
H4208 C4216 0.950 . S
H4209 C4221 0.950 . S
H4210 C4218 0.950 . S
H4211 C4220 0.950 . S
H4212 C4222 0.950 . S
H4213 C4224 0.950 . S
H4214 C4226 0.950 . S
H4215 C4227 0.950 . S
C4216 H4208 0.950 . S
C4216 C4217 1.386 . S
C4216 C4218 1.391 . S
C4217 C4216 1.386 . S
C4217 C4221 1.393 . S
C4218 H4210 0.950 . S
C4218 C4216 1.391 . S
C4218 C4219 1.400 . S
C4219 C4218 1.400 . S
C4219 C4220 1.398 . S
C4219 C4225 1.491 . S
C4220 H4211 0.950 . S
C4220 C4219 1.398 . S
C4220 C4221 1.391 . S
C4221 H4209 0.950 . S
C4221 C4217 1.393 . S
C4221 C4220 1.391 . S
C4222 H4212 0.950 . S
C4222 C4223 1.386 . S
C4222 C4224 1.391 . S
C4223 C4222 1.386 . S
C4223 C4227 1.393 . S
C4224 H4213 0.950 . S
C4224 C4222 1.391 . S
C4224 C4225 1.400 . S
C4225 C4219 1.491 . S
C4225 C4224 1.400 . S
C4225 C4226 1.398 . S
C4226 H4214 0.950 . S
C4226 C4225 1.398 . S
C4226 C4227 1.391 . S
C4227 H4215 0.950 . S
C4227 C4223 1.393 . S
C4227 C4226 1.391 . S
H4228 C4236 0.950 . S
H4229 C4241 0.950 . S
H4230 C4238 0.950 . S
H4231 C4240 0.950 . S
H4232 C4242 0.950 . S
H4233 C4244 0.950 . S
H4234 C4246 0.950 . S
H4235 C4247 0.950 . S
C4236 H4228 0.950 . S
C4236 C4237 1.386 . S
C4236 C4238 1.391 . S
C4237 C4236 1.386 . S
C4237 C4241 1.393 . S
C4238 H4230 0.950 . S
C4238 C4236 1.391 . S
C4238 C4239 1.400 . S
C4239 C4238 1.400 . S
C4239 C4240 1.398 . S
C4239 C4245 1.491 . S
C4240 H4231 0.950 . S
C4240 C4239 1.398 . S
C4240 C4241 1.391 . S
C4241 H4229 0.950 . S
C4241 C4237 1.393 . S
C4241 C4240 1.391 . S
C4242 H4232 0.950 . S
C4242 C4243 1.386 . S
C4242 C4244 1.391 . S
C4243 C4242 1.386 . S
C4243 C4247 1.393 . S
C4244 H4233 0.950 . S
C4244 C4242 1.391 . S
C4244 C4245 1.400 . S
C4245 C4239 1.491 . S
C4245 C4244 1.400 . S
C4245 C4246 1.398 . S
C4246 H4234 0.950 . S
C4246 C4245 1.398 . S
C4246 C4247 1.391 . S
C4247 H4235 0.950 . S
C4247 C4243 1.393 . S
C4247 C4246 1.391 . S
H4248 C4256 0.950 . S
H4249 C4261 0.950 . S
H4250 C4258 0.950 . S
H4251 C4260 0.950 . S
H4252 C4262 0.950 . S
H4253 C4264 0.950 . S
H4254 C4266 0.950 . S
H4255 C4267 0.950 . S
C4256 H4248 0.950 . S
C4256 C4257 1.386 . S
C4256 C4258 1.391 . S
C4257 C4256 1.386 . S
C4257 C4261 1.393 . S
C4258 H4250 0.950 . S
C4258 C4256 1.391 . S
C4258 C4259 1.400 . S
C4259 C4258 1.400 . S
C4259 C4260 1.398 . S
C4259 C4265 1.491 . S
C4260 H4251 0.950 . S
C4260 C4259 1.398 . S
C4260 C4261 1.391 . S
C4261 H4249 0.950 . S
C4261 C4257 1.393 . S
C4261 C4260 1.391 . S
C4262 H4252 0.950 . S
C4262 C4263 1.386 . S
C4262 C4264 1.391 . S
C4263 C4262 1.386 . S
C4263 C4267 1.393 . S
C4264 H4253 0.950 . S
C4264 C4262 1.391 . S
C4264 C4265 1.400 . S
C4265 C4259 1.491 . S
C4265 C4264 1.400 . S
C4265 C4266 1.398 . S
C4266 H4254 0.950 . S
C4266 C4265 1.398 . S
C4266 C4267 1.391 . S
C4267 H4255 0.950 . S
C4267 C4263 1.393 . S
C4267 C4266 1.391 . S
H4268 C4276 0.950 . S
H4269 C4281 0.950 . S
H4270 C4278 0.950 . S
H4271 C4280 0.950 . S
H4272 C4282 0.950 . S
H4273 C4284 0.950 . S
H4274 C4286 0.950 . S
H4275 C4287 0.950 . S
C4276 H4268 0.950 . S
C4276 C4277 1.386 . S
C4276 C4278 1.391 . S
C4277 C4276 1.386 . S
C4277 C4281 1.393 . S
C4278 H4270 0.950 . S
C4278 C4276 1.391 . S
C4278 C4279 1.400 . S
C4279 C4278 1.400 . S
C4279 C4280 1.398 . S
C4279 C4285 1.491 . S
C4280 H4271 0.950 . S
C4280 C4279 1.398 . S
C4280 C4281 1.391 . S
C4281 H4269 0.950 . S
C4281 C4277 1.393 . S
C4281 C4280 1.391 . S
C4282 H4272 0.950 . S
C4282 C4283 1.386 . S
C4282 C4284 1.391 . S
C4283 C4282 1.386 . S
C4283 C4287 1.393 . S
C4284 H4273 0.950 . S
C4284 C4282 1.391 . S
C4284 C4285 1.400 . S
C4285 C4279 1.491 . S
C4285 C4284 1.400 . S
C4285 C4286 1.398 . S
C4286 H4274 0.950 . S
C4286 C4285 1.398 . S
C4286 C4287 1.391 . S
C4287 H4275 0.950 . S
C4287 C4283 1.393 . S
C4287 C4286 1.391 . S
H4288 C4296 0.950 . S
H4289 C4301 0.950 . S
H4290 C4298 0.950 . S
H4291 C4300 0.950 . S
H4292 C4302 0.950 . S
H4293 C4304 0.950 . S
H4294 C4306 0.950 . S
H4295 C4307 0.950 . S
C4296 H4288 0.950 . S
C4296 C4297 1.386 . S
C4296 C4298 1.391 . S
C4297 C4296 1.386 . S
C4297 C4301 1.393 . S
C4298 H4290 0.950 . S
C4298 C4296 1.391 . S
C4298 C4299 1.400 . S
C4299 C4298 1.400 . S
C4299 C4300 1.398 . S
C4299 C4305 1.491 . S
C4300 H4291 0.950 . S
C4300 C4299 1.398 . S
C4300 C4301 1.391 . S
C4301 H4289 0.950 . S
C4301 C4297 1.393 . S
C4301 C4300 1.391 . S
C4302 H4292 0.950 . S
C4302 C4303 1.386 . S
C4302 C4304 1.391 . S
C4303 C4302 1.386 . S
C4303 C4307 1.393 . S
C4304 H4293 0.950 . S
C4304 C4302 1.391 . S
C4304 C4305 1.400 . S
C4305 C4299 1.491 . S
C4305 C4304 1.400 . S
C4305 C4306 1.398 . S
C4306 H4294 0.950 . S
C4306 C4305 1.398 . S
C4306 C4307 1.391 . S
C4307 H4295 0.950 . S
C4307 C4303 1.393 . S
C4307 C4306 1.391 . S
H4308 C4316 0.950 . S
H4309 C4321 0.950 . S
H4310 C4318 0.950 . S
H4311 C4320 0.950 . S
H4312 C4322 0.950 . S
H4313 C4324 0.950 . S
H4314 C4326 0.950 . S
H4315 C4327 0.950 . S
C4316 H4308 0.950 . S
C4316 C4317 1.386 . S
C4316 C4318 1.391 . S
C4317 C4316 1.386 . S
C4317 C4321 1.393 . S
C4318 H4310 0.950 . S
C4318 C4316 1.391 . S
C4318 C4319 1.400 . S
C4319 C4318 1.400 . S
C4319 C4320 1.398 . S
C4319 C4325 1.491 . S
C4320 H4311 0.950 . S
C4320 C4319 1.398 . S
C4320 C4321 1.391 . S
C4321 H4309 0.950 . S
C4321 C4317 1.393 . S
C4321 C4320 1.391 . S
C4322 H4312 0.950 . S
C4322 C4323 1.386 . S
C4322 C4324 1.391 . S
C4323 C4322 1.386 . S
C4323 C4327 1.393 . S
C4324 H4313 0.950 . S
C4324 C4322 1.391 . S
C4324 C4325 1.400 . S
C4325 C4319 1.491 . S
C4325 C4324 1.400 . S
C4325 C4326 1.398 . S
C4326 H4314 0.950 . S
C4326 C4325 1.398 . S
C4326 C4327 1.391 . S
C4327 H4315 0.950 . S
C4327 C4323 1.393 . S
C4327 C4326 1.391 . S
H4328 C4336 0.950 . S
H4329 C4341 0.950 . S
H4330 C4338 0.950 . S
H4331 C4340 0.950 . S
H4332 C4342 0.950 . S
H4333 C4344 0.950 . S
H4334 C4346 0.950 . S
H4335 C4347 0.950 . S
C4336 H4328 0.950 . S
C4336 C4337 1.386 . S
C4336 C4338 1.391 . S
C4337 C4336 1.386 . S
C4337 C4341 1.393 . S
C4338 H4330 0.950 . S
C4338 C4336 1.391 . S
C4338 C4339 1.400 . S
C4339 C4338 1.400 . S
C4339 C4340 1.398 . S
C4339 C4345 1.491 . S
C4340 H4331 0.950 . S
C4340 C4339 1.398 . S
C4340 C4341 1.391 . S
C4341 H4329 0.950 . S
C4341 C4337 1.393 . S
C4341 C4340 1.391 . S
C4342 H4332 0.950 . S
C4342 C4343 1.386 . S
C4342 C4344 1.391 . S
C4343 C4342 1.386 . S
C4343 C4347 1.393 . S
C4344 H4333 0.950 . S
C4344 C4342 1.391 . S
C4344 C4345 1.400 . S
C4345 C4339 1.491 . S
C4345 C4344 1.400 . S
C4345 C4346 1.398 . S
C4346 H4334 0.950 . S
C4346 C4345 1.398 . S
C4346 C4347 1.391 . S
C4347 H4335 0.950 . S
C4347 C4343 1.393 . S
C4347 C4346 1.391 . S
H4348 C4356 0.950 . S
H4349 C4361 0.950 . S
H4350 C4358 0.950 . S
H4351 C4360 0.950 . S
H4352 C4362 0.950 . S
H4353 C4364 0.950 . S
H4354 C4366 0.950 . S
H4355 C4367 0.950 . S
C4356 H4348 0.950 . S
C4356 C4357 1.386 . S
C4356 C4358 1.391 . S
C4357 C4356 1.386 . S
C4357 C4361 1.393 . S
C4358 H4350 0.950 . S
C4358 C4356 1.391 . S
C4358 C4359 1.400 . S
C4359 C4358 1.400 . S
C4359 C4360 1.398 . S
C4359 C4365 1.491 . S
C4360 H4351 0.950 . S
C4360 C4359 1.398 . S
C4360 C4361 1.391 . S
C4361 H4349 0.950 . S
C4361 C4357 1.393 . S
C4361 C4360 1.391 . S
C4362 H4352 0.950 . S
C4362 C4363 1.386 . S
C4362 C4364 1.391 . S
C4363 C4362 1.386 . S
C4363 C4367 1.393 . S
C4364 H4353 0.950 . S
C4364 C4362 1.391 . S
C4364 C4365 1.400 . S
C4365 C4359 1.491 . S
C4365 C4364 1.400 . S
C4365 C4366 1.398 . S
C4366 H4354 0.950 . S
C4366 C4365 1.398 . S
C4366 C4367 1.391 . S
C4367 H4355 0.950 . S
C4367 C4363 1.393 . S
C4367 C4366 1.391 . S
H4368 C4376 0.950 . S
H4369 C4381 0.950 . S
H4370 C4378 0.950 . S
H4371 C4380 0.950 . S
H4372 C4382 0.950 . S
H4373 C4384 0.950 . S
H4374 C4386 0.950 . S
H4375 C4387 0.950 . S
C4376 H4368 0.950 . S
C4376 C4377 1.386 . S
C4376 C4378 1.391 . S
C4377 C4376 1.386 . S
C4377 C4381 1.393 . S
C4378 H4370 0.950 . S
C4378 C4376 1.391 . S
C4378 C4379 1.400 . S
C4379 C4378 1.400 . S
C4379 C4380 1.398 . S
C4379 C4385 1.491 . S
C4380 H4371 0.950 . S
C4380 C4379 1.398 . S
C4380 C4381 1.391 . S
C4381 H4369 0.950 . S
C4381 C4377 1.393 . S
C4381 C4380 1.391 . S
C4382 H4372 0.950 . S
C4382 C4383 1.386 . S
C4382 C4384 1.391 . S
C4383 C4382 1.386 . S
C4383 C4387 1.393 . S
C4384 H4373 0.950 . S
C4384 C4382 1.391 . S
C4384 C4385 1.400 . S
C4385 C4379 1.491 . S
C4385 C4384 1.400 . S
C4385 C4386 1.398 . S
C4386 H4374 0.950 . S
C4386 C4385 1.398 . S
C4386 C4387 1.391 . S
C4387 H4375 0.950 . S
C4387 C4383 1.393 . S
C4387 C4386 1.391 . S
H4388 C4396 0.950 . S
H4389 C4401 0.950 . S
H4390 C4398 0.950 . S
H4391 C4400 0.950 . S
H4392 C4402 0.950 . S
H4393 C4404 0.950 . S
H4394 C4406 0.950 . S
H4395 C4407 0.950 . S
C4396 H4388 0.950 . S
C4396 C4397 1.386 . S
C4396 C4398 1.391 . S
C4397 C4396 1.386 . S
C4397 C4401 1.393 . S
C4398 H4390 0.950 . S
C4398 C4396 1.391 . S
C4398 C4399 1.400 . S
C4399 C4398 1.400 . S
C4399 C4400 1.398 . S
C4399 C4405 1.491 . S
C4400 H4391 0.950 . S
C4400 C4399 1.398 . S
C4400 C4401 1.391 . S
C4401 H4389 0.950 . S
C4401 C4397 1.393 . S
C4401 C4400 1.391 . S
C4402 H4392 0.950 . S
C4402 C4403 1.386 . S
C4402 C4404 1.391 . S
C4403 C4402 1.386 . S
C4403 C4407 1.393 . S
C4404 H4393 0.950 . S
C4404 C4402 1.391 . S
C4404 C4405 1.400 . S
C4405 C4399 1.491 . S
C4405 C4404 1.400 . S
C4405 C4406 1.398 . S
C4406 H4394 0.950 . S
C4406 C4405 1.398 . S
C4406 C4407 1.391 . S
C4407 H4395 0.950 . S
C4407 C4403 1.393 . S
C4407 C4406 1.391 . S
H4408 C4416 0.950 . S
H4409 C4421 0.950 . S
H4410 C4418 0.950 . S
H4411 C4420 0.950 . S
H4412 C4422 0.950 . S
H4413 C4424 0.950 . S
H4414 C4426 0.950 . S
H4415 C4427 0.950 . S
C4416 H4408 0.950 . S
C4416 C4417 1.386 . S
C4416 C4418 1.391 . S
C4417 C4416 1.386 . S
C4417 C4421 1.393 . S
C4418 H4410 0.950 . S
C4418 C4416 1.391 . S
C4418 C4419 1.400 . S
C4419 C4418 1.400 . S
C4419 C4420 1.398 . S
C4419 C4425 1.491 . S
C4420 H4411 0.950 . S
C4420 C4419 1.398 . S
C4420 C4421 1.391 . S
C4421 H4409 0.950 . S
C4421 C4417 1.393 . S
C4421 C4420 1.391 . S
C4422 H4412 0.950 . S
C4422 C4423 1.386 . S
C4422 C4424 1.391 . S
C4423 C4422 1.386 . S
C4423 C4427 1.393 . S
C4424 H4413 0.950 . S
C4424 C4422 1.391 . S
C4424 C4425 1.400 . S
C4425 C4419 1.491 . S
C4425 C4424 1.400 . S
C4425 C4426 1.398 . S
C4426 H4414 0.950 . S
C4426 C4425 1.398 . S
C4426 C4427 1.391 . S
C4427 H4415 0.950 . S
C4427 C4423 1.393 . S
C4427 C4426 1.391 . S
H4428 C4436 0.950 . S
H4429 C4441 0.950 . S
H4430 C4438 0.950 . S
H4431 C4440 0.950 . S
H4432 C4442 0.950 . S
H4433 C4444 0.950 . S
H4434 C4446 0.950 . S
H4435 C4447 0.950 . S
C4436 H4428 0.950 . S
C4436 C4437 1.386 . S
C4436 C4438 1.391 . S
C4437 C4436 1.386 . S
C4437 C4441 1.393 . S
C4438 H4430 0.950 . S
C4438 C4436 1.391 . S
C4438 C4439 1.400 . S
C4439 C4438 1.400 . S
C4439 C4440 1.398 . S
C4439 C4445 1.491 . S
C4440 H4431 0.950 . S
C4440 C4439 1.398 . S
C4440 C4441 1.391 . S
C4441 H4429 0.950 . S
C4441 C4437 1.393 . S
C4441 C4440 1.391 . S
C4442 H4432 0.950 . S
C4442 C4443 1.386 . S
C4442 C4444 1.391 . S
C4443 C4442 1.386 . S
C4443 C4447 1.393 . S
C4444 H4433 0.950 . S
C4444 C4442 1.391 . S
C4444 C4445 1.400 . S
C4445 C4439 1.491 . S
C4445 C4444 1.400 . S
C4445 C4446 1.398 . S
C4446 H4434 0.950 . S
C4446 C4445 1.398 . S
C4446 C4447 1.391 . S
C4447 H4435 0.950 . S
C4447 C4443 1.393 . S
C4447 C4446 1.391 . S
H4448 C4456 0.950 . S
H4449 C4461 0.950 . S
H4450 C4458 0.950 . S
H4451 C4460 0.950 . S
H4452 C4462 0.950 . S
H4453 C4464 0.950 . S
H4454 C4466 0.950 . S
H4455 C4467 0.950 . S
C4456 H4448 0.950 . S
C4456 C4457 1.386 . S
C4456 C4458 1.391 . S
C4457 C4456 1.386 . S
C4457 C4461 1.393 . S
C4458 H4450 0.950 . S
C4458 C4456 1.391 . S
C4458 C4459 1.400 . S
C4459 C4458 1.400 . S
C4459 C4460 1.398 . S
C4459 C4465 1.491 . S
C4460 H4451 0.950 . S
C4460 C4459 1.398 . S
C4460 C4461 1.391 . S
C4461 H4449 0.950 . S
C4461 C4457 1.393 . S
C4461 C4460 1.391 . S
C4462 H4452 0.950 . S
C4462 C4463 1.386 . S
C4462 C4464 1.391 . S
C4463 C4462 1.386 . S
C4463 C4467 1.393 . S
C4464 H4453 0.950 . S
C4464 C4462 1.391 . S
C4464 C4465 1.400 . S
C4465 C4459 1.491 . S
C4465 C4464 1.400 . S
C4465 C4466 1.398 . S
C4466 H4454 0.950 . S
C4466 C4465 1.398 . S
C4466 C4467 1.391 . S
C4467 H4455 0.950 . S
C4467 C4463 1.393 . S
C4467 C4466 1.391 . S
H4468 C4476 0.950 . S
H4469 C4481 0.950 . S
H4470 C4478 0.950 . S
H4471 C4480 0.950 . S
H4472 C4482 0.950 . S
H4473 C4484 0.950 . S
H4474 C4486 0.950 . S
H4475 C4487 0.950 . S
C4476 H4468 0.950 . S
C4476 C4477 1.386 . S
C4476 C4478 1.391 . S
C4477 C4476 1.386 . S
C4477 C4481 1.393 . S
C4478 H4470 0.950 . S
C4478 C4476 1.391 . S
C4478 C4479 1.400 . S
C4479 C4478 1.400 . S
C4479 C4480 1.398 . S
C4479 C4485 1.491 . S
C4480 H4471 0.950 . S
C4480 C4479 1.398 . S
C4480 C4481 1.391 . S
C4481 H4469 0.950 . S
C4481 C4477 1.393 . S
C4481 C4480 1.391 . S
C4482 H4472 0.950 . S
C4482 C4483 1.386 . S
C4482 C4484 1.391 . S
C4483 C4482 1.386 . S
C4483 C4487 1.393 . S
C4484 H4473 0.950 . S
C4484 C4482 1.391 . S
C4484 C4485 1.400 . S
C4485 C4479 1.491 . S
C4485 C4484 1.400 . S
C4485 C4486 1.398 . S
C4486 H4474 0.950 . S
C4486 C4485 1.398 . S
C4486 C4487 1.391 . S
C4487 H4475 0.950 . S
C4487 C4483 1.393 . S
C4487 C4486 1.391 . S
H4488 C4496 0.950 . S
H4489 C4501 0.950 . S
H4490 C4498 0.950 . S
H4491 C4500 0.950 . S
H4492 C4502 0.950 . S
H4493 C4504 0.950 . S
H4494 C4506 0.950 . S
H4495 C4507 0.950 . S
C4496 H4488 0.950 . S
C4496 C4497 1.386 . S
C4496 C4498 1.391 . S
C4497 C4496 1.386 . S
C4497 C4501 1.393 . S
C4498 H4490 0.950 . S
C4498 C4496 1.391 . S
C4498 C4499 1.400 . S
C4499 C4498 1.400 . S
C4499 C4500 1.398 . S
C4499 C4505 1.491 . S
C4500 H4491 0.950 . S
C4500 C4499 1.398 . S
C4500 C4501 1.391 . S
C4501 H4489 0.950 . S
C4501 C4497 1.393 . S
C4501 C4500 1.391 . S
C4502 H4492 0.950 . S
C4502 C4503 1.386 . S
C4502 C4504 1.391 . S
C4503 C4502 1.386 . S
C4503 C4507 1.393 . S
C4504 H4493 0.950 . S
C4504 C4502 1.391 . S
C4504 C4505 1.400 . S
C4505 C4499 1.491 . S
C4505 C4504 1.400 . S
C4505 C4506 1.398 . S
C4506 H4494 0.950 . S
C4506 C4505 1.398 . S
C4506 C4507 1.391 . S
C4507 H4495 0.950 . S
C4507 C4503 1.393 . S
C4507 C4506 1.391 . S
H4508 C4516 0.950 . S
H4509 C4521 0.950 . S
H4510 C4518 0.950 . S
H4511 C4520 0.950 . S
H4512 C4522 0.950 . S
H4513 C4524 0.950 . S
H4514 C4526 0.950 . S
H4515 C4527 0.950 . S
C4516 H4508 0.950 . S
C4516 C4517 1.386 . S
C4516 C4518 1.391 . S
C4517 C4516 1.386 . S
C4517 C4521 1.393 . S
C4518 H4510 0.950 . S
C4518 C4516 1.391 . S
C4518 C4519 1.400 . S
C4519 C4518 1.400 . S
C4519 C4520 1.398 . S
C4519 C4525 1.491 . S
C4520 H4511 0.950 . S
C4520 C4519 1.398 . S
C4520 C4521 1.391 . S
C4521 H4509 0.950 . S
C4521 C4517 1.393 . S
C4521 C4520 1.391 . S
C4522 H4512 0.950 . S
C4522 C4523 1.386 . S
C4522 C4524 1.391 . S
C4523 C4522 1.386 . S
C4523 C4527 1.393 . S
C4524 H4513 0.950 . S
C4524 C4522 1.391 . S
C4524 C4525 1.400 . S
C4525 C4519 1.491 . S
C4525 C4524 1.400 . S
C4525 C4526 1.398 . S
C4526 H4514 0.950 . S
C4526 C4525 1.398 . S
C4526 C4527 1.391 . S
C4527 H4515 0.950 . S
C4527 C4523 1.393 . S
C4527 C4526 1.391 . S
H4528 C4536 0.950 . S
H4529 C4541 0.950 . S
H4530 C4538 0.950 . S
H4531 C4540 0.950 . S
H4532 C4542 0.950 . S
H4533 C4544 0.950 . S
H4534 C4546 0.950 . S
H4535 C4547 0.950 . S
C4536 H4528 0.950 . S
C4536 C4537 1.386 . S
C4536 C4538 1.391 . S
C4537 C4536 1.386 . S
C4537 C4541 1.393 . S
C4538 H4530 0.950 . S
C4538 C4536 1.391 . S
C4538 C4539 1.400 . S
C4539 C4538 1.400 . S
C4539 C4540 1.398 . S
C4539 C4545 1.491 . S
C4540 H4531 0.950 . S
C4540 C4539 1.398 . S
C4540 C4541 1.391 . S
C4541 H4529 0.950 . S
C4541 C4537 1.393 . S
C4541 C4540 1.391 . S
C4542 H4532 0.950 . S
C4542 C4543 1.386 . S
C4542 C4544 1.391 . S
C4543 C4542 1.386 . S
C4543 C4547 1.393 . S
C4544 H4533 0.950 . S
C4544 C4542 1.391 . S
C4544 C4545 1.400 . S
C4545 C4539 1.491 . S
C4545 C4544 1.400 . S
C4545 C4546 1.398 . S
C4546 H4534 0.950 . S
C4546 C4545 1.398 . S
C4546 C4547 1.391 . S
C4547 H4535 0.950 . S
C4547 C4543 1.393 . S
C4547 C4546 1.391 . S
H4548 C4556 0.950 . S
H4549 C4561 0.950 . S
H4550 C4558 0.950 . S
H4551 C4560 0.950 . S
H4552 C4562 0.950 . S
H4553 C4564 0.950 . S
H4554 C4566 0.950 . S
H4555 C4567 0.950 . S
C4556 H4548 0.950 . S
C4556 C4557 1.386 . S
C4556 C4558 1.391 . S
C4557 C4556 1.386 . S
C4557 C4561 1.393 . S
C4558 H4550 0.950 . S
C4558 C4556 1.391 . S
C4558 C4559 1.400 . S
C4559 C4558 1.400 . S
C4559 C4560 1.398 . S
C4559 C4565 1.491 . S
C4560 H4551 0.950 . S
C4560 C4559 1.398 . S
C4560 C4561 1.391 . S
C4561 H4549 0.950 . S
C4561 C4557 1.393 . S
C4561 C4560 1.391 . S
C4562 H4552 0.950 . S
C4562 C4563 1.386 . S
C4562 C4564 1.391 . S
C4563 C4562 1.386 . S
C4563 C4567 1.393 . S
C4564 H4553 0.950 . S
C4564 C4562 1.391 . S
C4564 C4565 1.400 . S
C4565 C4559 1.491 . S
C4565 C4564 1.400 . S
C4565 C4566 1.398 . S
C4566 H4554 0.950 . S
C4566 C4565 1.398 . S
C4566 C4567 1.391 . S
C4567 H4555 0.950 . S
C4567 C4563 1.393 . S
C4567 C4566 1.391 . S
H4568 C4576 0.950 . S
H4569 C4581 0.950 . S
H4570 C4578 0.950 . S
H4571 C4580 0.950 . S
H4572 C4582 0.950 . S
H4573 C4584 0.950 . S
H4574 C4586 0.950 . S
H4575 C4587 0.950 . S
C4576 H4568 0.950 . S
C4576 C4577 1.386 . S
C4576 C4578 1.391 . S
C4577 C4576 1.386 . S
C4577 C4581 1.393 . S
C4578 H4570 0.950 . S
C4578 C4576 1.391 . S
C4578 C4579 1.400 . S
C4579 C4578 1.400 . S
C4579 C4580 1.398 . S
C4579 C4585 1.491 . S
C4580 H4571 0.950 . S
C4580 C4579 1.398 . S
C4580 C4581 1.391 . S
C4581 H4569 0.950 . S
C4581 C4577 1.393 . S
C4581 C4580 1.391 . S
C4582 H4572 0.950 . S
C4582 C4583 1.386 . S
C4582 C4584 1.391 . S
C4583 C4582 1.386 . S
C4583 C4587 1.393 . S
C4584 H4573 0.950 . S
C4584 C4582 1.391 . S
C4584 C4585 1.400 . S
C4585 C4579 1.491 . S
C4585 C4584 1.400 . S
C4585 C4586 1.398 . S
C4586 H4574 0.950 . S
C4586 C4585 1.398 . S
C4586 C4587 1.391 . S
C4587 H4575 0.950 . S
C4587 C4583 1.393 . S
C4587 C4586 1.391 . S
H4588 C4596 0.950 . S
H4589 C4601 0.950 . S
H4590 C4598 0.950 . S
H4591 C4600 0.950 . S
H4592 C4602 0.950 . S
H4593 C4604 0.950 . S
H4594 C4606 0.950 . S
H4595 C4607 0.950 . S
C4596 H4588 0.950 . S
C4596 C4597 1.386 . S
C4596 C4598 1.391 . S
C4597 C4596 1.386 . S
C4597 C4601 1.393 . S
C4598 H4590 0.950 . S
C4598 C4596 1.391 . S
C4598 C4599 1.400 . S
C4599 C4598 1.400 . S
C4599 C4600 1.398 . S
C4599 C4605 1.491 . S
C4600 H4591 0.950 . S
C4600 C4599 1.398 . S
C4600 C4601 1.391 . S
C4601 H4589 0.950 . S
C4601 C4597 1.393 . S
C4601 C4600 1.391 . S
C4602 H4592 0.950 . S
C4602 C4603 1.386 . S
C4602 C4604 1.391 . S
C4603 C4602 1.386 . S
C4603 C4607 1.393 . S
C4604 H4593 0.950 . S
C4604 C4602 1.391 . S
C4604 C4605 1.400 . S
C4605 C4599 1.491 . S
C4605 C4604 1.400 . S
C4605 C4606 1.398 . S
C4606 H4594 0.950 . S
C4606 C4605 1.398 . S
C4606 C4607 1.391 . S
C4607 H4595 0.950 . S
C4607 C4603 1.393 . S
C4607 C4606 1.391 . S
H4608 C4616 0.950 . S
H4609 C4621 0.950 . S
H4610 C4618 0.950 . S
H4611 C4620 0.950 . S
H4612 C4622 0.950 . S
H4613 C4624 0.950 . S
H4614 C4626 0.950 . S
H4615 C4627 0.950 . S
C4616 H4608 0.950 . S
C4616 C4617 1.386 . S
C4616 C4618 1.391 . S
C4617 C4616 1.386 . S
C4617 C4621 1.393 . S
C4618 H4610 0.950 . S
C4618 C4616 1.391 . S
C4618 C4619 1.400 . S
C4619 C4618 1.400 . S
C4619 C4620 1.398 . S
C4619 C4625 1.491 . S
C4620 H4611 0.950 . S
C4620 C4619 1.398 . S
C4620 C4621 1.391 . S
C4621 H4609 0.950 . S
C4621 C4617 1.393 . S
C4621 C4620 1.391 . S
C4622 H4612 0.950 . S
C4622 C4623 1.386 . S
C4622 C4624 1.391 . S
C4623 C4622 1.386 . S
C4623 C4627 1.393 . S
C4624 H4613 0.950 . S
C4624 C4622 1.391 . S
C4624 C4625 1.400 . S
C4625 C4619 1.491 . S
C4625 C4624 1.400 . S
C4625 C4626 1.398 . S
C4626 H4614 0.950 . S
C4626 C4625 1.398 . S
C4626 C4627 1.391 . S
C4627 H4615 0.950 . S
C4627 C4623 1.393 . S
C4627 C4626 1.391 . S
H4628 C4636 0.950 . S
H4629 C4641 0.950 . S
H4630 C4638 0.950 . S
H4631 C4640 0.950 . S
H4632 C4642 0.950 . S
H4633 C4644 0.950 . S
H4634 C4646 0.950 . S
H4635 C4647 0.950 . S
C4636 H4628 0.950 . S
C4636 C4637 1.386 . S
C4636 C4638 1.391 . S
C4637 C4636 1.386 . S
C4637 C4641 1.393 . S
C4638 H4630 0.950 . S
C4638 C4636 1.391 . S
C4638 C4639 1.400 . S
C4639 C4638 1.400 . S
C4639 C4640 1.398 . S
C4639 C4645 1.491 . S
C4640 H4631 0.950 . S
C4640 C4639 1.398 . S
C4640 C4641 1.391 . S
C4641 H4629 0.950 . S
C4641 C4637 1.393 . S
C4641 C4640 1.391 . S
C4642 H4632 0.950 . S
C4642 C4643 1.386 . S
C4642 C4644 1.391 . S
C4643 C4642 1.386 . S
C4643 C4647 1.393 . S
C4644 H4633 0.950 . S
C4644 C4642 1.391 . S
C4644 C4645 1.400 . S
C4645 C4639 1.491 . S
C4645 C4644 1.400 . S
C4645 C4646 1.398 . S
C4646 H4634 0.950 . S
C4646 C4645 1.398 . S
C4646 C4647 1.391 . S
C4647 H4635 0.950 . S
C4647 C4643 1.393 . S
C4647 C4646 1.391 . S
H4648 C4656 0.950 . S
H4649 C4661 0.950 . S
H4650 C4658 0.950 . S
H4651 C4660 0.950 . S
H4652 C4662 0.950 . S
H4653 C4664 0.950 . S
H4654 C4666 0.950 . S
H4655 C4667 0.950 . S
C4656 H4648 0.950 . S
C4656 C4657 1.386 . S
C4656 C4658 1.391 . S
C4657 C4656 1.386 . S
C4657 C4661 1.393 . S
C4658 H4650 0.950 . S
C4658 C4656 1.391 . S
C4658 C4659 1.400 . S
C4659 C4658 1.400 . S
C4659 C4660 1.398 . S
C4659 C4665 1.491 . S
C4660 H4651 0.950 . S
C4660 C4659 1.398 . S
C4660 C4661 1.391 . S
C4661 H4649 0.950 . S
C4661 C4657 1.393 . S
C4661 C4660 1.391 . S
C4662 H4652 0.950 . S
C4662 C4663 1.386 . S
C4662 C4664 1.391 . S
C4663 C4662 1.386 . S
C4663 C4667 1.393 . S
C4664 H4653 0.950 . S
C4664 C4662 1.391 . S
C4664 C4665 1.400 . S
C4665 C4659 1.491 . S
C4665 C4664 1.400 . S
C4665 C4666 1.398 . S
C4666 H4654 0.950 . S
C4666 C4665 1.398 . S
C4666 C4667 1.391 . S
C4667 H4655 0.950 . S
C4667 C4663 1.393 . S
C4667 C4666 1.391 . S
H4668 C4676 0.950 . S
H4669 C4681 0.950 . S
H4670 C4678 0.950 . S
H4671 C4680 0.950 . S
H4672 C4682 0.950 . S
H4673 C4684 0.950 . S
H4674 C4686 0.950 . S
H4675 C4687 0.950 . S
C4676 H4668 0.950 . S
C4676 C4677 1.386 . S
C4676 C4678 1.391 . S
C4677 C4676 1.386 . S
C4677 C4681 1.393 . S
C4678 H4670 0.950 . S
C4678 C4676 1.391 . S
C4678 C4679 1.400 . S
C4679 C4678 1.400 . S
C4679 C4680 1.398 . S
C4679 C4685 1.491 . S
C4680 H4671 0.950 . S
C4680 C4679 1.398 . S
C4680 C4681 1.391 . S
C4681 H4669 0.950 . S
C4681 C4677 1.393 . S
C4681 C4680 1.391 . S
C4682 H4672 0.950 . S
C4682 C4683 1.386 . S
C4682 C4684 1.391 . S
C4683 C4682 1.386 . S
C4683 C4687 1.393 . S
C4684 H4673 0.950 . S
C4684 C4682 1.391 . S
C4684 C4685 1.400 . S
C4685 C4679 1.491 . S
C4685 C4684 1.400 . S
C4685 C4686 1.398 . S
C4686 H4674 0.950 . S
C4686 C4685 1.398 . S
C4686 C4687 1.391 . S
C4687 H4675 0.950 . S
C4687 C4683 1.393 . S
C4687 C4686 1.391 . S
H4688 C4696 0.950 . S
H4689 C4701 0.950 . S
H4690 C4698 0.950 . S
H4691 C4700 0.950 . S
H4692 C4702 0.950 . S
H4693 C4704 0.950 . S
H4694 C4706 0.950 . S
H4695 C4707 0.950 . S
C4696 H4688 0.950 . S
C4696 C4697 1.386 . S
C4696 C4698 1.391 . S
C4697 C4696 1.386 . S
C4697 C4701 1.393 . S
C4698 H4690 0.950 . S
C4698 C4696 1.391 . S
C4698 C4699 1.400 . S
C4699 C4698 1.400 . S
C4699 C4700 1.398 . S
C4699 C4705 1.491 . S
C4700 H4691 0.950 . S
C4700 C4699 1.398 . S
C4700 C4701 1.391 . S
C4701 H4689 0.950 . S
C4701 C4697 1.393 . S
C4701 C4700 1.391 . S
C4702 H4692 0.950 . S
C4702 C4703 1.386 . S
C4702 C4704 1.391 . S
C4703 C4702 1.386 . S
C4703 C4707 1.393 . S
C4704 H4693 0.950 . S
C4704 C4702 1.391 . S
C4704 C4705 1.400 . S
C4705 C4699 1.491 . S
C4705 C4704 1.400 . S
C4705 C4706 1.398 . S
C4706 H4694 0.950 . S
C4706 C4705 1.398 . S
C4706 C4707 1.391 . S
C4707 H4695 0.950 . S
C4707 C4703 1.393 . S
C4707 C4706 1.391 . S
H4708 C4716 0.950 . S
H4709 C4721 0.950 . S
H4710 C4718 0.950 . S
H4711 C4720 0.950 . S
H4712 C4722 0.950 . S
H4713 C4724 0.950 . S
H4714 C4726 0.950 . S
H4715 C4727 0.950 . S
C4716 H4708 0.950 . S
C4716 C4717 1.386 . S
C4716 C4718 1.391 . S
C4717 C4716 1.386 . S
C4717 C4721 1.393 . S
C4718 H4710 0.950 . S
C4718 C4716 1.391 . S
C4718 C4719 1.400 . S
C4719 C4718 1.400 . S
C4719 C4720 1.398 . S
C4719 C4725 1.491 . S
C4720 H4711 0.950 . S
C4720 C4719 1.398 . S
C4720 C4721 1.391 . S
C4721 H4709 0.950 . S
C4721 C4717 1.393 . S
C4721 C4720 1.391 . S
C4722 H4712 0.950 . S
C4722 C4723 1.386 . S
C4722 C4724 1.391 . S
C4723 C4722 1.386 . S
C4723 C4727 1.393 . S
C4724 H4713 0.950 . S
C4724 C4722 1.391 . S
C4724 C4725 1.400 . S
C4725 C4719 1.491 . S
C4725 C4724 1.400 . S
C4725 C4726 1.398 . S
C4726 H4714 0.950 . S
C4726 C4725 1.398 . S
C4726 C4727 1.391 . S
C4727 H4715 0.950 . S
C4727 C4723 1.393 . S
C4727 C4726 1.391 . S
H4728 C4736 0.950 . S
H4729 C4741 0.950 . S
H4730 C4738 0.950 . S
H4731 C4740 0.950 . S
H4732 C4742 0.950 . S
H4733 C4744 0.950 . S
H4734 C4746 0.950 . S
H4735 C4747 0.950 . S
C4736 H4728 0.950 . S
C4736 C4737 1.386 . S
C4736 C4738 1.391 . S
C4737 C4736 1.386 . S
C4737 C4741 1.393 . S
C4738 H4730 0.950 . S
C4738 C4736 1.391 . S
C4738 C4739 1.400 . S
C4739 C4738 1.400 . S
C4739 C4740 1.398 . S
C4739 C4745 1.491 . S
C4740 H4731 0.950 . S
C4740 C4739 1.398 . S
C4740 C4741 1.391 . S
C4741 H4729 0.950 . S
C4741 C4737 1.393 . S
C4741 C4740 1.391 . S
C4742 H4732 0.950 . S
C4742 C4743 1.386 . S
C4742 C4744 1.391 . S
C4743 C4742 1.386 . S
C4743 C4747 1.393 . S
C4744 H4733 0.950 . S
C4744 C4742 1.391 . S
C4744 C4745 1.400 . S
C4745 C4739 1.491 . S
C4745 C4744 1.400 . S
C4745 C4746 1.398 . S
C4746 H4734 0.950 . S
C4746 C4745 1.398 . S
C4746 C4747 1.391 . S
C4747 H4735 0.950 . S
C4747 C4743 1.393 . S
C4747 C4746 1.391 . S
H4748 C4756 0.950 . S
H4749 C4761 0.950 . S
H4750 C4758 0.950 . S
H4751 C4760 0.950 . S
H4752 C4762 0.950 . S
H4753 C4764 0.950 . S
H4754 C4766 0.950 . S
H4755 C4767 0.950 . S
C4756 H4748 0.950 . S
C4756 C4757 1.386 . S
C4756 C4758 1.391 . S
C4757 C4756 1.386 . S
C4757 C4761 1.393 . S
C4758 H4750 0.950 . S
C4758 C4756 1.391 . S
C4758 C4759 1.400 . S
C4759 C4758 1.400 . S
C4759 C4760 1.398 . S
C4759 C4765 1.491 . S
C4760 H4751 0.950 . S
C4760 C4759 1.398 . S
C4760 C4761 1.391 . S
C4761 H4749 0.950 . S
C4761 C4757 1.393 . S
C4761 C4760 1.391 . S
C4762 H4752 0.950 . S
C4762 C4763 1.386 . S
C4762 C4764 1.391 . S
C4763 C4762 1.386 . S
C4763 C4767 1.393 . S
C4764 H4753 0.950 . S
C4764 C4762 1.391 . S
C4764 C4765 1.400 . S
C4765 C4759 1.491 . S
C4765 C4764 1.400 . S
C4765 C4766 1.398 . S
C4766 H4754 0.950 . S
C4766 C4765 1.398 . S
C4766 C4767 1.391 . S
C4767 H4755 0.950 . S
C4767 C4763 1.393 . S
C4767 C4766 1.391 . S
H4768 C4776 0.950 . S
H4769 C4781 0.950 . S
H4770 C4778 0.950 . S
H4771 C4780 0.950 . S
H4772 C4782 0.950 . S
H4773 C4784 0.950 . S
H4774 C4786 0.950 . S
H4775 C4787 0.950 . S
C4776 H4768 0.950 . S
C4776 C4777 1.386 . S
C4776 C4778 1.391 . S
C4777 C4776 1.386 . S
C4777 C4781 1.393 . S
C4778 H4770 0.950 . S
C4778 C4776 1.391 . S
C4778 C4779 1.400 . S
C4779 C4778 1.400 . S
C4779 C4780 1.398 . S
C4779 C4785 1.491 . S
C4780 H4771 0.950 . S
C4780 C4779 1.398 . S
C4780 C4781 1.391 . S
C4781 H4769 0.950 . S
C4781 C4777 1.393 . S
C4781 C4780 1.391 . S
C4782 H4772 0.950 . S
C4782 C4783 1.386 . S
C4782 C4784 1.391 . S
C4783 C4782 1.386 . S
C4783 C4787 1.393 . S
C4784 H4773 0.950 . S
C4784 C4782 1.391 . S
C4784 C4785 1.400 . S
C4785 C4779 1.491 . S
C4785 C4784 1.400 . S
C4785 C4786 1.398 . S
C4786 H4774 0.950 . S
C4786 C4785 1.398 . S
C4786 C4787 1.391 . S
C4787 H4775 0.950 . S
C4787 C4783 1.393 . S
C4787 C4786 1.391 . S
H4788 C4796 0.950 . S
H4789 C4801 0.950 . S
H4790 C4798 0.950 . S
H4791 C4800 0.950 . S
H4792 C4802 0.950 . S
H4793 C4804 0.950 . S
H4794 C4806 0.950 . S
H4795 C4807 0.950 . S
C4796 H4788 0.950 . S
C4796 C4797 1.386 . S
C4796 C4798 1.391 . S
C4797 C4796 1.386 . S
C4797 C4801 1.393 . S
C4798 H4790 0.950 . S
C4798 C4796 1.391 . S
C4798 C4799 1.400 . S
C4799 C4798 1.400 . S
C4799 C4800 1.398 . S
C4799 C4805 1.491 . S
C4800 H4791 0.950 . S
C4800 C4799 1.398 . S
C4800 C4801 1.391 . S
C4801 H4789 0.950 . S
C4801 C4797 1.393 . S
C4801 C4800 1.391 . S
C4802 H4792 0.950 . S
C4802 C4803 1.386 . S
C4802 C4804 1.391 . S
C4803 C4802 1.386 . S
C4803 C4807 1.393 . S
C4804 H4793 0.950 . S
C4804 C4802 1.391 . S
C4804 C4805 1.400 . S
C4805 C4799 1.491 . S
C4805 C4804 1.400 . S
C4805 C4806 1.398 . S
C4806 H4794 0.950 . S
C4806 C4805 1.398 . S
C4806 C4807 1.391 . S
C4807 H4795 0.950 . S
C4807 C4803 1.393 . S
C4807 C4806 1.391 . S
H4808 C4816 0.950 . S
H4809 C4821 0.950 . S
H4810 C4818 0.950 . S
H4811 C4820 0.950 . S
H4812 C4822 0.950 . S
H4813 C4824 0.950 . S
H4814 C4826 0.950 . S
H4815 C4827 0.950 . S
C4816 H4808 0.950 . S
C4816 C4817 1.386 . S
C4816 C4818 1.391 . S
C4817 C4816 1.386 . S
C4817 C4821 1.393 . S
C4818 H4810 0.950 . S
C4818 C4816 1.391 . S
C4818 C4819 1.400 . S
C4819 C4818 1.400 . S
C4819 C4820 1.398 . S
C4819 C4825 1.491 . S
C4820 H4811 0.950 . S
C4820 C4819 1.398 . S
C4820 C4821 1.391 . S
C4821 H4809 0.950 . S
C4821 C4817 1.393 . S
C4821 C4820 1.391 . S
C4822 H4812 0.950 . S
C4822 C4823 1.386 . S
C4822 C4824 1.391 . S
C4823 C4822 1.386 . S
C4823 C4827 1.393 . S
C4824 H4813 0.950 . S
C4824 C4822 1.391 . S
C4824 C4825 1.400 . S
C4825 C4819 1.491 . S
C4825 C4824 1.400 . S
C4825 C4826 1.398 . S
C4826 H4814 0.950 . S
C4826 C4825 1.398 . S
C4826 C4827 1.391 . S
C4827 H4815 0.950 . S
C4827 C4823 1.393 . S
C4827 C4826 1.391 . S
H4828 C4836 0.950 . S
H4829 C4841 0.950 . S
H4830 C4838 0.950 . S
H4831 C4840 0.950 . S
H4832 C4842 0.950 . S
H4833 C4844 0.950 . S
H4834 C4846 0.950 . S
H4835 C4847 0.950 . S
C4836 H4828 0.950 . S
C4836 C4837 1.386 . S
C4836 C4838 1.391 . S
C4837 C4836 1.386 . S
C4837 C4841 1.393 . S
C4838 H4830 0.950 . S
C4838 C4836 1.391 . S
C4838 C4839 1.400 . S
C4839 C4838 1.400 . S
C4839 C4840 1.398 . S
C4839 C4845 1.491 . S
C4840 H4831 0.950 . S
C4840 C4839 1.398 . S
C4840 C4841 1.391 . S
C4841 H4829 0.950 . S
C4841 C4837 1.393 . S
C4841 C4840 1.391 . S
C4842 H4832 0.950 . S
C4842 C4843 1.386 . S
C4842 C4844 1.391 . S
C4843 C4842 1.386 . S
C4843 C4847 1.393 . S
C4844 H4833 0.950 . S
C4844 C4842 1.391 . S
C4844 C4845 1.400 . S
C4845 C4839 1.491 . S
C4845 C4844 1.400 . S
C4845 C4846 1.398 . S
C4846 H4834 0.950 . S
C4846 C4845 1.398 . S
C4846 C4847 1.391 . S
C4847 H4835 0.950 . S
C4847 C4843 1.393 . S
C4847 C4846 1.391 . S
H4848 C4856 0.950 . S
H4849 C4861 0.950 . S
H4850 C4858 0.950 . S
H4851 C4860 0.950 . S
H4852 C4862 0.950 . S
H4853 C4864 0.950 . S
H4854 C4866 0.950 . S
H4855 C4867 0.950 . S
C4856 H4848 0.950 . S
C4856 C4857 1.386 . S
C4856 C4858 1.391 . S
C4857 C4856 1.386 . S
C4857 C4861 1.393 . S
C4858 H4850 0.950 . S
C4858 C4856 1.391 . S
C4858 C4859 1.400 . S
C4859 C4858 1.400 . S
C4859 C4860 1.398 . S
C4859 C4865 1.491 . S
C4860 H4851 0.950 . S
C4860 C4859 1.398 . S
C4860 C4861 1.391 . S
C4861 H4849 0.950 . S
C4861 C4857 1.393 . S
C4861 C4860 1.391 . S
C4862 H4852 0.950 . S
C4862 C4863 1.386 . S
C4862 C4864 1.391 . S
C4863 C4862 1.386 . S
C4863 C4867 1.393 . S
C4864 H4853 0.950 . S
C4864 C4862 1.391 . S
C4864 C4865 1.400 . S
C4865 C4859 1.491 . S
C4865 C4864 1.400 . S
C4865 C4866 1.398 . S
C4866 H4854 0.950 . S
C4866 C4865 1.398 . S
C4866 C4867 1.391 . S
C4867 H4855 0.950 . S
C4867 C4863 1.393 . S
C4867 C4866 1.391 . S
H4868 C4876 0.950 . S
H4869 C4881 0.950 . S
H4870 C4878 0.950 . S
H4871 C4880 0.950 . S
H4872 C4882 0.950 . S
H4873 C4884 0.950 . S
H4874 C4886 0.950 . S
H4875 C4887 0.950 . S
C4876 H4868 0.950 . S
C4876 C4877 1.386 . S
C4876 C4878 1.391 . S
C4877 C4876 1.386 . S
C4877 C4881 1.393 . S
C4878 H4870 0.950 . S
C4878 C4876 1.391 . S
C4878 C4879 1.400 . S
C4879 C4878 1.400 . S
C4879 C4880 1.398 . S
C4879 C4885 1.491 . S
C4880 H4871 0.950 . S
C4880 C4879 1.398 . S
C4880 C4881 1.391 . S
C4881 H4869 0.950 . S
C4881 C4877 1.393 . S
C4881 C4880 1.391 . S
C4882 H4872 0.950 . S
C4882 C4883 1.386 . S
C4882 C4884 1.391 . S
C4883 C4882 1.386 . S
C4883 C4887 1.393 . S
C4884 H4873 0.950 . S
C4884 C4882 1.391 . S
C4884 C4885 1.400 . S
C4885 C4879 1.491 . S
C4885 C4884 1.400 . S
C4885 C4886 1.398 . S
C4886 H4874 0.950 . S
C4886 C4885 1.398 . S
C4886 C4887 1.391 . S
C4887 H4875 0.950 . S
C4887 C4883 1.393 . S
C4887 C4886 1.391 . S
H4888 C4896 0.950 . S
H4889 C4901 0.950 . S
H4890 C4898 0.950 . S
H4891 C4900 0.950 . S
H4892 C4902 0.950 . S
H4893 C4904 0.950 . S
H4894 C4906 0.950 . S
H4895 C4907 0.950 . S
C4896 H4888 0.950 . S
C4896 C4897 1.386 . S
C4896 C4898 1.391 . S
C4897 C4896 1.386 . S
C4897 C4901 1.393 . S
C4898 H4890 0.950 . S
C4898 C4896 1.391 . S
C4898 C4899 1.400 . S
C4899 C4898 1.400 . S
C4899 C4900 1.398 . S
C4899 C4905 1.491 . S
C4900 H4891 0.950 . S
C4900 C4899 1.398 . S
C4900 C4901 1.391 . S
C4901 H4889 0.950 . S
C4901 C4897 1.393 . S
C4901 C4900 1.391 . S
C4902 H4892 0.950 . S
C4902 C4903 1.386 . S
C4902 C4904 1.391 . S
C4903 C4902 1.386 . S
C4903 C4907 1.393 . S
C4904 H4893 0.950 . S
C4904 C4902 1.391 . S
C4904 C4905 1.400 . S
C4905 C4899 1.491 . S
C4905 C4904 1.400 . S
C4905 C4906 1.398 . S
C4906 H4894 0.950 . S
C4906 C4905 1.398 . S
C4906 C4907 1.391 . S
C4907 H4895 0.950 . S
C4907 C4903 1.393 . S
C4907 C4906 1.391 . S
H4908 C4916 0.950 . S
H4909 C4921 0.950 . S
H4910 C4918 0.950 . S
H4911 C4920 0.950 . S
H4912 C4922 0.950 . S
H4913 C4924 0.950 . S
H4914 C4926 0.950 . S
H4915 C4927 0.950 . S
C4916 H4908 0.950 . S
C4916 C4917 1.386 . S
C4916 C4918 1.391 . S
C4917 C4916 1.386 . S
C4917 C4921 1.393 . S
C4918 H4910 0.950 . S
C4918 C4916 1.391 . S
C4918 C4919 1.400 . S
C4919 C4918 1.400 . S
C4919 C4920 1.398 . S
C4919 C4925 1.491 . S
C4920 H4911 0.950 . S
C4920 C4919 1.398 . S
C4920 C4921 1.391 . S
C4921 H4909 0.950 . S
C4921 C4917 1.393 . S
C4921 C4920 1.391 . S
C4922 H4912 0.950 . S
C4922 C4923 1.386 . S
C4922 C4924 1.391 . S
C4923 C4922 1.386 . S
C4923 C4927 1.393 . S
C4924 H4913 0.950 . S
C4924 C4922 1.391 . S
C4924 C4925 1.400 . S
C4925 C4919 1.491 . S
C4925 C4924 1.400 . S
C4925 C4926 1.398 . S
C4926 H4914 0.950 . S
C4926 C4925 1.398 . S
C4926 C4927 1.391 . S
C4927 H4915 0.950 . S
C4927 C4923 1.393 . S
C4927 C4926 1.391 . S
H4928 C4936 0.950 . S
H4929 C4941 0.950 . S
H4930 C4938 0.950 . S
H4931 C4940 0.950 . S
H4932 C4942 0.950 . S
H4933 C4944 0.950 . S
H4934 C4946 0.950 . S
H4935 C4947 0.950 . S
C4936 H4928 0.950 . S
C4936 C4937 1.386 . S
C4936 C4938 1.391 . S
C4937 C4936 1.386 . S
C4937 C4941 1.393 . S
C4938 H4930 0.950 . S
C4938 C4936 1.391 . S
C4938 C4939 1.400 . S
C4939 C4938 1.400 . S
C4939 C4940 1.398 . S
C4939 C4945 1.491 . S
C4940 H4931 0.950 . S
C4940 C4939 1.398 . S
C4940 C4941 1.391 . S
C4941 H4929 0.950 . S
C4941 C4937 1.393 . S
C4941 C4940 1.391 . S
C4942 H4932 0.950 . S
C4942 C4943 1.386 . S
C4942 C4944 1.391 . S
C4943 C4942 1.386 . S
C4943 C4947 1.393 . S
C4944 H4933 0.950 . S
C4944 C4942 1.391 . S
C4944 C4945 1.400 . S
C4945 C4939 1.491 . S
C4945 C4944 1.400 . S
C4945 C4946 1.398 . S
C4946 H4934 0.950 . S
C4946 C4945 1.398 . S
C4946 C4947 1.391 . S
C4947 H4935 0.950 . S
C4947 C4943 1.393 . S
C4947 C4946 1.391 . S
H4948 C4956 0.950 . S
H4949 C4961 0.950 . S
H4950 C4958 0.950 . S
H4951 C4960 0.950 . S
H4952 C4962 0.950 . S
H4953 C4964 0.950 . S
H4954 C4966 0.950 . S
H4955 C4967 0.950 . S
C4956 H4948 0.950 . S
C4956 C4957 1.386 . S
C4956 C4958 1.391 . S
C4957 C4956 1.386 . S
C4957 C4961 1.393 . S
C4958 H4950 0.950 . S
C4958 C4956 1.391 . S
C4958 C4959 1.400 . S
C4959 C4958 1.400 . S
C4959 C4960 1.398 . S
C4959 C4965 1.491 . S
C4960 H4951 0.950 . S
C4960 C4959 1.398 . S
C4960 C4961 1.391 . S
C4961 H4949 0.950 . S
C4961 C4957 1.393 . S
C4961 C4960 1.391 . S
C4962 H4952 0.950 . S
C4962 C4963 1.386 . S
C4962 C4964 1.391 . S
C4963 C4962 1.386 . S
C4963 C4967 1.393 . S
C4964 H4953 0.950 . S
C4964 C4962 1.391 . S
C4964 C4965 1.400 . S
C4965 C4959 1.491 . S
C4965 C4964 1.400 . S
C4965 C4966 1.398 . S
C4966 H4954 0.950 . S
C4966 C4965 1.398 . S
C4966 C4967 1.391 . S
C4967 H4955 0.950 . S
C4967 C4963 1.393 . S
C4967 C4966 1.391 . S
H4968 C4976 0.950 . S
H4969 C4981 0.950 . S
H4970 C4978 0.950 . S
H4971 C4980 0.950 . S
H4972 C4982 0.950 . S
H4973 C4984 0.950 . S
H4974 C4986 0.950 . S
H4975 C4987 0.950 . S
C4976 H4968 0.950 . S
C4976 C4977 1.386 . S
C4976 C4978 1.391 . S
C4977 C4976 1.386 . S
C4977 C4981 1.393 . S
C4978 H4970 0.950 . S
C4978 C4976 1.391 . S
C4978 C4979 1.400 . S
C4979 C4978 1.400 . S
C4979 C4980 1.398 . S
C4979 C4985 1.491 . S
C4980 H4971 0.950 . S
C4980 C4979 1.398 . S
C4980 C4981 1.391 . S
C4981 H4969 0.950 . S
C4981 C4977 1.393 . S
C4981 C4980 1.391 . S
C4982 H4972 0.950 . S
C4982 C4983 1.386 . S
C4982 C4984 1.391 . S
C4983 C4982 1.386 . S
C4983 C4987 1.393 . S
C4984 H4973 0.950 . S
C4984 C4982 1.391 . S
C4984 C4985 1.400 . S
C4985 C4979 1.491 . S
C4985 C4984 1.400 . S
C4985 C4986 1.398 . S
C4986 H4974 0.950 . S
C4986 C4985 1.398 . S
C4986 C4987 1.391 . S
C4987 H4975 0.950 . S
C4987 C4983 1.393 . S
C4987 C4986 1.391 . S
H4988 C4996 0.950 . S
H4989 C5001 0.950 . S
H4990 C4998 0.950 . S
H4991 C5000 0.950 . S
H4992 C5002 0.950 . S
H4993 C5004 0.950 . S
H4994 C5006 0.950 . S
H4995 C5007 0.950 . S
C4996 H4988 0.950 . S
C4996 C4997 1.386 . S
C4996 C4998 1.391 . S
C4997 C4996 1.386 . S
C4997 C5001 1.393 . S
C4998 H4990 0.950 . S
C4998 C4996 1.391 . S
C4998 C4999 1.400 . S
C4999 C4998 1.400 . S
C4999 C5000 1.398 . S
C4999 C5005 1.491 . S
C5000 H4991 0.950 . S
C5000 C4999 1.398 . S
C5000 C5001 1.391 . S
C5001 H4989 0.950 . S
C5001 C4997 1.393 . S
C5001 C5000 1.391 . S
C5002 H4992 0.950 . S
C5002 C5003 1.386 . S
C5002 C5004 1.391 . S
C5003 C5002 1.386 . S
C5003 C5007 1.393 . S
C5004 H4993 0.950 . S
C5004 C5002 1.391 . S
C5004 C5005 1.400 . S
C5005 C4999 1.491 . S
C5005 C5004 1.400 . S
C5005 C5006 1.398 . S
C5006 H4994 0.950 . S
C5006 C5005 1.398 . S
C5006 C5007 1.391 . S
C5007 H4995 0.950 . S
C5007 C5003 1.393 . S
C5007 C5006 1.391 . S
H5008 C5016 0.950 . S
H5009 C5021 0.950 . S
H5010 C5018 0.950 . S
H5011 C5020 0.950 . S
H5012 C5022 0.950 . S
H5013 C5024 0.950 . S
H5014 C5026 0.950 . S
H5015 C5027 0.950 . S
C5016 H5008 0.950 . S
C5016 C5017 1.386 . S
C5016 C5018 1.391 . S
C5017 C5016 1.386 . S
C5017 C5021 1.393 . S
C5018 H5010 0.950 . S
C5018 C5016 1.391 . S
C5018 C5019 1.400 . S
C5019 C5018 1.400 . S
C5019 C5020 1.398 . S
C5019 C5025 1.491 . S
C5020 H5011 0.950 . S
C5020 C5019 1.398 . S
C5020 C5021 1.391 . S
C5021 H5009 0.950 . S
C5021 C5017 1.393 . S
C5021 C5020 1.391 . S
C5022 H5012 0.950 . S
C5022 C5023 1.386 . S
C5022 C5024 1.391 . S
C5023 C5022 1.386 . S
C5023 C5027 1.393 . S
C5024 H5013 0.950 . S
C5024 C5022 1.391 . S
C5024 C5025 1.400 . S
C5025 C5019 1.491 . S
C5025 C5024 1.400 . S
C5025 C5026 1.398 . S
C5026 H5014 0.950 . S
C5026 C5025 1.398 . S
C5026 C5027 1.391 . S
C5027 H5015 0.950 . S
C5027 C5023 1.393 . S
C5027 C5026 1.391 . S
H5028 C5036 0.950 . S
H5029 C5041 0.950 . S
H5030 C5038 0.950 . S
H5031 C5040 0.950 . S
H5032 C5042 0.950 . S
H5033 C5044 0.950 . S
H5034 C5046 0.950 . S
H5035 C5047 0.950 . S
C5036 H5028 0.950 . S
C5036 C5037 1.386 . S
C5036 C5038 1.391 . S
C5037 C5036 1.386 . S
C5037 C5041 1.393 . S
C5038 H5030 0.950 . S
C5038 C5036 1.391 . S
C5038 C5039 1.400 . S
C5039 C5038 1.400 . S
C5039 C5040 1.398 . S
C5039 C5045 1.491 . S
C5040 H5031 0.950 . S
C5040 C5039 1.398 . S
C5040 C5041 1.391 . S
C5041 H5029 0.950 . S
C5041 C5037 1.393 . S
C5041 C5040 1.391 . S
C5042 H5032 0.950 . S
C5042 C5043 1.386 . S
C5042 C5044 1.391 . S
C5043 C5042 1.386 . S
C5043 C5047 1.393 . S
C5044 H5033 0.950 . S
C5044 C5042 1.391 . S
C5044 C5045 1.400 . S
C5045 C5039 1.491 . S
C5045 C5044 1.400 . S
C5045 C5046 1.398 . S
C5046 H5034 0.950 . S
C5046 C5045 1.398 . S
C5046 C5047 1.391 . S
C5047 H5035 0.950 . S
C5047 C5043 1.393 . S
C5047 C5046 1.391 . S
H5048 C5056 0.950 . S
H5049 C5061 0.950 . S
H5050 C5058 0.950 . S
H5051 C5060 0.950 . S
H5052 C5062 0.950 . S
H5053 C5064 0.950 . S
H5054 C5066 0.950 . S
H5055 C5067 0.950 . S
C5056 H5048 0.950 . S
C5056 C5057 1.386 . S
C5056 C5058 1.391 . S
C5057 C5056 1.386 . S
C5057 C5061 1.393 . S
C5058 H5050 0.950 . S
C5058 C5056 1.391 . S
C5058 C5059 1.400 . S
C5059 C5058 1.400 . S
C5059 C5060 1.398 . S
C5059 C5065 1.491 . S
C5060 H5051 0.950 . S
C5060 C5059 1.398 . S
C5060 C5061 1.391 . S
C5061 H5049 0.950 . S
C5061 C5057 1.393 . S
C5061 C5060 1.391 . S
C5062 H5052 0.950 . S
C5062 C5063 1.386 . S
C5062 C5064 1.391 . S
C5063 C5062 1.386 . S
C5063 C5067 1.393 . S
C5064 H5053 0.950 . S
C5064 C5062 1.391 . S
C5064 C5065 1.400 . S
C5065 C5059 1.491 . S
C5065 C5064 1.400 . S
C5065 C5066 1.398 . S
C5066 H5054 0.950 . S
C5066 C5065 1.398 . S
C5066 C5067 1.391 . S
C5067 H5055 0.950 . S
C5067 C5063 1.393 . S
C5067 C5066 1.391 . S
H5068 C5076 0.950 . S
H5069 C5081 0.950 . S
H5070 C5078 0.950 . S
H5071 C5080 0.950 . S
H5072 C5082 0.950 . S
H5073 C5084 0.950 . S
H5074 C5086 0.950 . S
H5075 C5087 0.950 . S
C5076 H5068 0.950 . S
C5076 C5077 1.386 . S
C5076 C5078 1.391 . S
C5077 C5076 1.386 . S
C5077 C5081 1.393 . S
C5078 H5070 0.950 . S
C5078 C5076 1.391 . S
C5078 C5079 1.400 . S
C5079 C5078 1.400 . S
C5079 C5080 1.398 . S
C5079 C5085 1.491 . S
C5080 H5071 0.950 . S
C5080 C5079 1.398 . S
C5080 C5081 1.391 . S
C5081 H5069 0.950 . S
C5081 C5077 1.393 . S
C5081 C5080 1.391 . S
C5082 H5072 0.950 . S
C5082 C5083 1.386 . S
C5082 C5084 1.391 . S
C5083 C5082 1.386 . S
C5083 C5087 1.393 . S
C5084 H5073 0.950 . S
C5084 C5082 1.391 . S
C5084 C5085 1.400 . S
C5085 C5079 1.491 . S
C5085 C5084 1.400 . S
C5085 C5086 1.398 . S
C5086 H5074 0.950 . S
C5086 C5085 1.398 . S
C5086 C5087 1.391 . S
C5087 H5075 0.950 . S
C5087 C5083 1.393 . S
C5087 C5086 1.391 . S
C1257 C4 1.787 . S
C1263 C400 1.789 . S
C1277 C719 1.790 . S
C1283 C17 1.790 . S
C1297 C30 1.791 . S
C1303 C374 1.789 . S
C1317 C43 1.791 . S
C1323 C693 1.790 . S
C1337 C342 1.789 . S
C1343 C62 1.791 . S
C1357 C69 1.787 . S
C1363 C673 1.789 . S
C1377 C316 1.791 . S
C1383 C88 1.787 . S
C1397 C101 1.789 . S
C1403 C641 1.791 . S
C1417 C446 1.790 . S
C1423 C108 1.787 . S
C1437 C127 1.787 . S
C1443 C777 1.791 . S
C1457 C134 1.788 . S
C1463 C426 1.788 . S
C1477 C153 1.788 . S
C1483 C751 1.791 . S
C1497 C166 1.790 . S
C1503 C504 1.787 . S
C1517 C823 1.789 . S
C1523 C173 1.791 . S
C1537 C472 1.791 . S
C1543 C192 1.789 . S
C1557 C199 1.787 . S
C1563 C797 1.791 . S
C1577 C849 1.790 . S
C1583 C212 1.790 . S
C1597 C842 1.791 . S
C1603 C231 1.790 . S
C1617 C244 1.788 . S
C1623 C927 1.791 . S
C1637 C1213 1.790 . S
C1643 C257 1.790 . S
C1657 C608 1.789 . S
C1663 C264 1.791 . S
C1677 C277 1.790 . S
C1683 C1187 1.787 . S
C1697 C296 1.788 . S
C1703 C576 1.788 . S
C1717 C309 1.788 . S
C1723 C868 1.787 . S
C1737 C329 1.788 . S
C1743 C1037 1.791 . S
C1757 C355 1.787 . S
C1763 C1011 1.788 . S
C1777 C387 1.787 . S
C1783 C979 1.789 . S
C1797 C413 1.791 . S
C1803 C959 1.788 . S
C1817 C1083 1.791 . S
C1823 C433 1.787 . S
C1837 C459 1.788 . S
C1843 C1063 1.787 . S
C1857 C1135 1.788 . S
C1863 C485 1.791 . S
C1877 C517 1.789 . S
C1883 C1109 1.787 . S
C1897 C524 1.789 . S
C1903 C1167 1.787 . S
C1917 C543 1.789 . S
C1923 C1154 1.791 . S
C1937 C550 1.788 . S
C1943 C1239 1.788 . S
C1957 C901 1.790 . S
C1963 C563 1.787 . S
C1977 C881 1.791 . S
C1983 C589 1.788 . S
C1997 C615 1.788 . S
C2003 C1180 1.791 . S
C2017 C634 1.789 . S
C2023 C1024 1.791 . S
C2037 C998 1.787 . S
C2043 C660 1.791 . S
C2057 C680 1.788 . S
C2063 C966 1.791 . S
C2077 C712 1.789 . S
C2083 C940 1.791 . S
C2097 C1070 1.791 . S
C2103 C732 1.787 . S
C2117 C1050 1.790 . S
C2123 C758 1.787 . S
C2137 C784 1.789 . S
C2143 C1128 1.787 . S
C2157 C1102 1.791 . S
C2163 C816 1.790 . S
C2177 C894 1.790 . S
C2183 C1232 1.790 . S
C2197 C920 1.790 . S
C2203 C1206 1.790 . S
C2217 C10 1.390 . S
C2223 C725 1.405 . S
C2237 C23 1.398 . S
C2243 C368 1.392 . S
C2257 C36 1.404 . S
C2263 C699 1.395 . S
C2277 C394 1.390 . S
C2283 C49 1.404 . S
C2297 C56 1.391 . S
C2303 C335 1.400 . S
C2317 C75 1.390 . S
C2323 C654 1.401 . S
C2337 C82 1.402 . S
C2343 C361 1.390 . S
C2357 C628 1.396 . S
C2363 C95 1.403 . S
C2377 C114 1.393 . S
C2383 C270 1.405 . S
C2397 C121 1.405 . S
C2403 C1161 1.390 . S
C2417 C1174 1.398 . S
C2423 C140 1.393 . S
C2437 C147 1.402 . S
C2443 C1193 1.397 . S
C2457 C933 1.402 . S
C2463 C160 1.390 . S
C2477 C1219 1.392 . S
C2483 C179 1.405 . S
C2497 C186 1.404 . S
C2503 C914 1.395 . S
C2517 C836 1.398 . S
C2523 C205 1.402 . S
C2537 C829 1.397 . S
C2543 C218 1.393 . S
C2557 C1057 1.390 . S
C2563 C225 1.402 . S
C2577 C238 1.390 . S
C2583 C1076 1.402 . S
C2597 C251 1.394 . S
C2603 C1089 1.404 . S
C2617 C283 1.391 . S
C2623 C1115 1.399 . S
C2637 C290 1.404 . S
C2643 C810 1.390 . S
C2657 C790 1.390 . S
C2663 C303 1.403 . S
C2677 C322 1.392 . S
C2683 C1031 1.398 . S
C2697 C1005 1.395 . S
C2703 C348 1.395 . S
C2717 C972 1.403 . S
C2723 C381 1.396 . S
C2737 C407 1.402 . S
C2743 C946 1.390 . S
C2757 C420 1.394 . S
C2763 C582 1.396 . S
C2777 C439 1.391 . S
C2783 C855 1.405 . S
C2797 C452 1.391 . S
C2803 C862 1.405 . S
C2817 C465 1.405 . S
C2823 C875 1.391 . S
C2837 C478 1.402 . S
C2843 C1245 1.397 . S
C2857 C907 1.390 . S
C2863 C491 1.403 . S
C2877 C1226 1.399 . S
C2883 C498 1.401 . S
C2897 C1148 1.397 . S
C2903 C511 1.393 . S
C2917 C1141 1.404 . S
C2923 C530 1.393 . S
C2937 C537 1.404 . S
C2943 C745 1.395 . S
C2957 C556 1.399 . S
C2963 C764 1.392 . S
C2977 C569 1.401 . S
C2983 C771 1.398 . S
C2997 C803 1.404 . S
C3003 C595 1.390 . S
C3017 C1122 1.392 . S
C3023 C602 1.405 . S
C3037 C1096 1.401 . S
C3043 C621 1.390 . S
C3057 C647 1.391 . S
C3063 C992 1.400 . S
C3077 C667 1.393 . S
C3083 C1018 1.405 . S
C3097 C953 1.401 . S
C3103 C686 1.399 . S
C3117 C985 1.392 . S
C3123 C706 1.399 . S
C3137 C888 1.392 . S
C3143 C738 1.405 . S
C3157 C1200 1.390 . S
C3163 C1044 1.404 . S
C3177 C3 1.190 . S
C3183 C1214 1.222 . S
C3197 C16 1.170 . S
C3203 C913 1.222 . S
C3217 C835 1.224 . S
C3223 C29 1.194 . S
C3237 C928 1.228 . S
C3243 C42 1.179 . S
C3257 C57 1.170 . S
C3263 C250 1.222 . S
C3277 C68 1.184 . S
C3283 C1199 1.227 . S
C3297 C224 1.227 . S
C3303 C83 1.166 . S
C3317 C237 1.226 . S
C3323 C96 1.162 . S
C3337 C367 1.225 . S
C3343 C107 1.194 . S
C3357 C122 1.160 . S
C3363 C694 1.225 . S
C3377 C133 1.160 . S
C3383 C393 1.225 . S
C3397 C148 1.176 . S
C3403 C720 1.222 . S
C3417 C317 1.226 . S
C3423 C161 1.191 . S
C3437 C172 1.191 . S
C3443 C642 1.226 . S
C3457 C343 1.222 . S
C3463 C187 1.189 . S
C3477 C198 1.194 . S
C3483 C666 1.225 . S
C3497 C211 1.180 . S
C3503 C1121 1.227 . S
C3517 C447 1.226 . S
C3523 C226 1.161 . S
C3537 C239 1.191 . S
C3543 C770 1.226 . S
C3557 C419 1.226 . S
C3563 C252 1.161 . S
C3577 C263 1.194 . S
C3583 C434 1.225 . S
C3597 C785 1.222 . S
C3603 C276 1.191 . S
C3617 C174 1.222 . S
C3623 C291 1.169 . S
C3637 C200 1.222 . S
C3643 C304 1.182 . S
C3657 C902 1.227 . S
C3663 C315 1.166 . S
C3677 C328 1.175 . S
C3683 C1225 1.228 . S
C3697 C1147 1.226 . S
C3703 C341 1.160 . S
C3717 C354 1.167 . S
C3723 C1240 1.227 . S
C3737 C564 1.225 . S
C3743 C369 1.160 . S
C3757 C887 1.225 . S
C3763 C382 1.193 . S
C3777 C395 1.191 . S
C3783 C536 1.226 . S
C3797 C408 1.187 . S
C3803 C551 1.227 . S
C3817 C421 1.161 . S
C3823 C55 1.225 . S
C3837 C432 1.194 . S
C3843 C1004 1.223 . S
C3857 C81 1.222 . S
C3863 C445 1.171 . S
C3877 C458 1.175 . S
C3883 C1030 1.228 . S
C3897 C5 1.226 . S
C3903 C471 1.189 . S
C3917 C484 1.160 . S
C3923 C952 1.225 . S
C3937 C31 1.227 . S
C3943 C499 1.185 . S
C3957 C980 1.226 . S
C3963 C512 1.192 . S
C3977 C523 1.173 . S
C3983 C809 1.222 . S
C3997 C538 1.170 . S
C4003 C135 1.222 . S
C4017 C1084 1.223 . S
C4023 C549 1.167 . S
C4037 C562 1.187 . S
C4043 C109 1.222 . S
C4057 C120 1.222 . S
C4063 C575 1.183 . S
C4077 C588 1.184 . S
C4083 C1095 1.227 . S
C4097 C486 1.228 . S
C4103 C603 1.171 . S
C4117 C614 1.175 . S
C4123 C510 1.228 . S
C4137 C590 1.222 . S
C4143 C629 1.172 . S
C4157 C640 1.187 . S
C4163 C289 1.227 . S
C4177 C655 1.171 . S
C4183 C213 1.228 . S
C4197 C668 1.173 . S
C4203 C302 1.222 . S
C4217 C679 1.174 . S
C4223 C874 1.222 . S
C4237 C577 1.223 . S
C4243 C692 1.194 . S
C4257 C850 1.227 . S
C4263 C707 1.188 . S
C4277 C718 1.194 . S
C4283 C861 1.225 . S
C4297 C991 1.228 . S
C4303 C731 1.178 . S
C4317 C70 1.224 . S
C4323 C746 1.194 . S
C4337 C1017 1.226 . S
C4343 C757 1.161 . S
C4357 C772 1.172 . S
C4363 C94 1.222 . S
C4377 C941 1.225 . S
C4383 C783 1.194 . S
C4397 C796 1.185 . S
C4403 C18 1.222 . S
C4417 C967 1.222 . S
C4423 C811 1.176 . S
C4437 C44 1.225 . S
C4443 C822 1.194 . S
C4457 C497 1.227 . S
C4463 C837 1.167 . S
C4477 C848 1.191 . S
C4483 C1071 1.222 . S
C4497 C863 1.193 . S
C4503 C146 1.223 . S
C4517 C1043 1.226 . S
C4523 C876 1.189 . S
C4537 C889 1.195 . S
C4543 C1056 1.224 . S
C4557 C159 1.224 . S
C4563 C900 1.195 . S
C4577 C798 1.224 . S
C4583 C915 1.161 . S
C4597 C926 1.186 . S
C4603 C824 1.227 . S
C4617 C939 1.176 . S
C4623 C278 1.228 . S
C4637 C601 1.225 . S
C4643 C954 1.194 . S
C4657 C525 1.225 . S
C4663 C965 1.160 . S
C4677 C978 1.169 . S
C4683 C616 1.222 . S
C4697 C993 1.175 . S
C4703 C1188 1.228 . S
C4717 C265 1.222 . S
C4723 C1006 1.186 . S
C4737 C1160 1.222 . S
C4743 C1019 1.186 . S
C4757 C1173 1.225 . S
C4763 C1032 1.160 . S
C4777 C681 1.226 . S
C4783 C1045 1.190 . S
C4797 C1058 1.167 . S
C4803 C380 1.223 . S
C4817 C1069 1.186 . S
C4823 C705 1.227 . S
C4837 C1082 1.182 . S
C4843 C406 1.222 . S
C4857 C627 1.226 . S
C4863 C1097 1.162 . S
C4877 C1108 1.180 . S
C4883 C330 1.221 . S
C4897 C1123 1.181 . S
C4903 C653 1.227 . S
C4917 C1134 1.191 . S
C4923 C356 1.222 . S
C4937 C185 1.227 . S
C4943 C1149 1.181 . S
C4957 C1162 1.176 . S
C4963 C759 1.228 . S
C4977 C1175 1.162 . S
C4983 C460 1.224 . S
C4997 C1186 1.193 . S
C5003 C733 1.225 . S
C5017 C1201 1.162 . S
C5023 C744 1.227 . S
C5037 C473 1.228 . S
C5043 C1212 1.179 . S
C5057 C1110 1.222 . S
C5063 C1227 1.188 . S
C5077 C1136 1.223 . S
C5083 C1238 1.192 . S
