# Generated by pormake.
# Topology ske, (6)-cn, num edge types: 1
# Building blocks:
#     Node 0, Type 0, BuildingBlock: MIFKUJ_clean_sbu_0, # of connection points: 6
#     Node 1, Type 0, BuildingBlock: MIFKUJ_clean_sbu_0, # of connection points: 6
#     Node 2, Type 0, BuildingBlock: MIFKUJ_clean_sbu_0, # of connection points: 6
#     Node 3, Type 0, BuildingBlock: MIFKUJ_clean_sbu_0, # of connection points: 6
#     Node 4, Type 0, BuildingBlock: MIFKUJ_clean_sbu_0, # of connection points: 6
#     Node 5, Type 0, BuildingBlock: MIFKUJ_clean_sbu_0, # of connection points: 6
#     Node 6, Type 0, BuildingBlock: MIFKUJ_clean_sbu_0, # of connection points: 6
#     Node 7, Type 0, BuildingBlock: MIFKUJ_clean_sbu_0, # of connection points: 6
#     Edge 8, Type (0, 0), BuildingBlock: XIVTED_clean_linker_0, # of connection points: 2
#     Edge 9, Type (0, 0), BuildingBlock: XIVTED_clean_linker_0, # of connection points: 2
#     Edge 10, Type (0, 0), BuildingBlock: XIVTED_clean_linker_0, # of connection points: 2
#     Edge 11, Type (0, 0), BuildingBlock: XIVTED_clean_linker_0, # of connection points: 2
#     Edge 12, Type (0, 0), BuildingBlock: XIVTED_clean_linker_0, # of connection points: 2
#     Edge 13, Type (0, 0), BuildingBlock: XIVTED_clean_linker_0, # of connection points: 2
#     Edge 14, Type (0, 0), BuildingBlock: XIVTED_clean_linker_0, # of connection points: 2
#     Edge 15, Type (0, 0), BuildingBlock: XIVTED_clean_linker_0, # of connection points: 2
#     Edge 16, Type (0, 0), BuildingBlock: XIVTED_clean_linker_0, # of connection points: 2
#     Edge 17, Type (0, 0), BuildingBlock: XIVTED_clean_linker_0, # of connection points: 2
#     Edge 18, Type (0, 0), BuildingBlock: XIVTED_clean_linker_0, # of connection points: 2
#     Edge 19, Type (0, 0), BuildingBlock: XIVTED_clean_linker_0, # of connection points: 2
#     Edge 20, Type (0, 0), BuildingBlock: XIVTED_clean_linker_0, # of connection points: 2
#     Edge 21, Type (0, 0), BuildingBlock: XIVTED_clean_linker_0, # of connection points: 2
#     Edge 22, Type (0, 0), BuildingBlock: XIVTED_clean_linker_0, # of connection points: 2
#     Edge 23, Type (0, 0), BuildingBlock: XIVTED_clean_linker_0, # of connection points: 2
#     Edge 24, Type (0, 0), BuildingBlock: XIVTED_clean_linker_0, # of connection points: 2
#     Edge 25, Type (0, 0), BuildingBlock: XIVTED_clean_linker_0, # of connection points: 2
#     Edge 26, Type (0, 0), BuildingBlock: XIVTED_clean_linker_0, # of connection points: 2
#     Edge 27, Type (0, 0), BuildingBlock: XIVTED_clean_linker_0, # of connection points: 2
#     Edge 28, Type (0, 0), BuildingBlock: XIVTED_clean_linker_0, # of connection points: 2
#     Edge 29, Type (0, 0), BuildingBlock: XIVTED_clean_linker_0, # of connection points: 2
#     Edge 30, Type (0, 0), BuildingBlock: XIVTED_clean_linker_0, # of connection points: 2
#     Edge 31, Type (0, 0), BuildingBlock: XIVTED_clean_linker_0, # of connection points: 2
# Relax obj value: 0.137
# Max RMSD: 0.177
# Mean RMSD: 0.156
data_MOF--net-ske--node1-MIFKUJ_clean_sbu_0--edge1-XIVTED_clean_linker_0
_symmetry_space_group_name_H-M    P1
_symmetry_Int_Tables_number       1
_symmetry_cell_setting            triclinic
loop_
_symmetry_equiv_pos_as_xyz
'x, y, z'
_cell_length_a     72.087395
_cell_length_b     28.663888
_cell_length_c     17.223541
_cell_angle_alpha  91.600207
_cell_angle_beta   90.048801
_cell_angle_gamma 84.362322
loop_
_atom_site_label
_atom_site_type_symbol
_atom_site_fract_x
_atom_site_fract_y
_atom_site_fract_z
_atom_type_partial_charge
Zn0 Zn 0.15215 0.23046 0.66364 0.0
Zn1 Zn 0.10972 0.24571 0.53887 0.0
C2 C 0.1413 0.26847 0.81358 0.0
O3 O 0.15441 0.29546 0.79723 0.0
C4 C 0.10776 0.23704 0.37332 0.0
O5 O 0.09758 0.20348 0.39229 0.0
O6 O 0.1788 0.22746 0.69967 0.0
O7 O 0.14832 0.16833 0.61206 0.0
O8 O 0.12101 0.17912 0.55179 0.0
C9 C 0.18717 0.1916 0.73072 0.0
O10 O 0.17851 0.15363 0.73701 0.0
O11 O 0.13684 0.23873 0.76236 0.0
C12 C 0.07127 0.27965 0.52243 0.0
O13 O 0.07879 0.31456 0.49093 0.0
O14 O 0.08187 0.24592 0.54948 0.0
O15 O 0.11817 0.29766 0.60772 0.0
O16 O 0.1487 0.28754 0.59801 0.0
O17 O 0.11474 0.26106 0.42716 0.0
C18 C 0.13497 0.15241 0.57468 0.0
C19 C 0.1335 0.31348 0.5915 0.0
Zn20 Zn 0.8972 0.23451 0.50133 0.0
Zn21 Zn 0.8531 0.23336 0.6221 0.0
C22 C 0.89789 0.22959 0.3363 0.0
O23 O 0.91035 0.19466 0.35261 0.0
C24 C 0.85861 0.26691 0.77992 0.0
O25 O 0.84395 0.29586 0.76339 0.0
O26 O 0.92513 0.23324 0.51048 0.0
O27 O 0.88609 0.28241 0.57929 0.0
O28 O 0.85604 0.29061 0.56039 0.0
C29 C 0.93277 0.26804 0.48544 0.0
O30 O 0.92226 0.30248 0.45387 0.0
O31 O 0.88992 0.25381 0.39206 0.0
C32 C 0.81877 0.20993 0.6922 0.0
O33 O 0.83007 0.18161 0.73334 0.0
O34 O 0.82552 0.23442 0.64088 0.0
O35 O 0.86199 0.17046 0.57188 0.0
O36 O 0.8895 0.1691 0.51221 0.0
O37 O 0.86544 0.23803 0.72755 0.0
C38 C 0.87168 0.30699 0.55634 0.0
C39 C 0.87574 0.14849 0.53561 0.0
Zn40 Zn 0.15271 0.72206 0.36427 0.0
Zn41 Zn 0.11044 0.72498 0.48973 0.0
C42 C 0.14238 0.68777 0.21442 0.0
O43 O 0.15587 0.65535 0.23097 0.0
C44 C 0.10815 0.73197 0.65478 0.0
O45 O 0.09737 0.76966 0.63627 0.0
O46 O 0.17937 0.71659 0.3284 0.0
O47 O 0.14764 0.78597 0.41648 0.0
O48 O 0.12059 0.78744 0.47889 0.0
C49 C 0.18412 0.74322 0.27567 0.0
O50 O 0.17161 0.77495 0.24816 0.0
O51 O 0.13751 0.71962 0.26539 0.0
C52 C 0.07272 0.70332 0.49583 0.0
O53 O 0.08089 0.66345 0.52037 0.0
O54 O 0.08268 0.73563 0.47816 0.0
O55 O 0.11978 0.67222 0.41594 0.0
O56 O 0.15013 0.66564 0.4291 0.0
O57 O 0.11568 0.70558 0.60055 0.0
C58 C 0.13432 0.80785 0.45516 0.0
C59 C 0.13471 0.64812 0.43481 0.0
Zn60 Zn 0.85287 0.72909 0.34312 0.0
Zn61 Zn 0.89607 0.7302 0.46427 0.0
C62 C 0.85818 0.76068 0.18825 0.0
O63 O 0.84352 0.78953 0.20765 0.0
C64 C 0.89661 0.72487 0.62786 0.0
O65 O 0.90853 0.68895 0.60758 0.0
O66 O 0.82541 0.72932 0.32312 0.0
O67 O 0.86078 0.66617 0.38824 0.0
O68 O 0.88803 0.6655 0.44857 0.0
C69 C 0.81914 0.69322 0.29243 0.0
O70 O 0.83082 0.65649 0.27392 0.0
O71 O 0.8652 0.73218 0.23812 0.0
C72 C 0.93336 0.75776 0.47261 0.0
O73 O 0.92458 0.79921 0.48901 0.0
O74 O 0.92397 0.72324 0.45876 0.0
O75 O 0.88648 0.78022 0.39031 0.0
O76 O 0.85623 0.78732 0.40803 0.0
O77 O 0.88897 0.75018 0.57489 0.0
C78 C 0.87441 0.64454 0.42331 0.0
C79 C 0.87167 0.80508 0.41069 0.0
Zn80 Zn 0.64439 0.73937 0.16606 0.0
Zn81 Zn 0.60137 0.75837 0.04458 0.0
C82 C 0.63806 0.7754 0.32216 0.0
O83 O 0.65164 0.80031 0.30312 0.0
C84 C 0.60231 0.74777 0.8812 0.0
O85 O 0.59123 0.71612 0.90015 0.0
O86 O 0.67196 0.73296 0.18671 0.0
O87 O 0.63793 0.67873 0.11617 0.0
O88 O 0.6101 0.69053 0.06028 0.0
C89 C 0.68189 0.6943 0.19492 0.0
O90 O 0.6741 0.6548 0.18949 0.0
O91 O 0.63192 0.74775 0.27135 0.0
C92 C 0.56422 0.79747 0.01063 0.0
O93 O 0.57325 0.83019 0.98018 0.0
O94 O 0.57338 0.76366 0.04424 0.0
O95 O 0.60964 0.80719 0.11937 0.0
O96 O 0.64003 0.79793 0.1049 0.0
O97 O 0.60911 0.77213 0.93509 0.0
C98 C 0.624 0.66335 0.08223 0.0
C99 C 0.62474 0.82381 0.10251 0.0
Zn100 Zn 0.39361 0.74271 0.89778 0.0
Zn101 Zn 0.34856 0.7401 0.02042 0.0
C102 C 0.39525 0.71179 0.73324 0.0
O103 O 0.40844 0.67991 0.75485 0.0
C104 C 0.35449 0.75053 0.17867 0.0
O105 O 0.34187 0.78525 0.16301 0.0
O106 O 0.42098 0.74743 0.91165 0.0
O107 O 0.38028 0.80303 0.94183 0.0
O108 O 0.35305 0.80669 1.00363 0.0
C109 C 0.42883 0.78257 0.88954 0.0
O110 O 0.41892 0.81626 0.85348 0.0
O111 O 0.38743 0.7404 0.78374 0.0
C112 C 0.31523 0.70483 0.07373 0.0
O113 O 0.3274 0.67205 0.10049 0.0
O114 O 0.321 0.73727 0.03407 0.0
O115 O 0.3581 0.69729 0.93323 0.0
O116 O 0.38824 0.68282 0.9466 0.0
O117 O 0.36062 0.72296 0.12333 0.0
C118 C 0.36654 0.82639 0.97591 0.0
C119 C 0.37206 0.6694 0.95107 0.0
Zn120 Zn 0.64737 0.23212 0.88528 0.0
Zn121 Zn 0.60401 0.23315 1.00663 0.0
C122 C 0.64171 0.19822 0.72835 0.0
O123 O 0.6555 0.16718 0.74724 0.0
C124 C 0.60539 0.24304 0.16991 0.0
O125 O 0.59352 0.27882 0.15173 0.0
O126 O 0.67503 0.22849 0.86664 0.0
O127 O 0.63956 0.29562 0.93452 0.0
O128 O 0.61152 0.29793 0.98981 0.0
C129 C 0.68191 0.25251 0.81496 0.0
O130 O 0.67074 0.28149 0.7744 0.0
O131 O 0.63528 0.22853 0.77932 0.0
C132 C 0.56872 0.20256 0.03954 0.0
O133 O 0.57975 0.16744 0.0663 0.0
O134 O 0.57594 0.23629 0.00868 0.0
O135 O 0.61326 0.1821 0.9299 0.0
O136 O 0.64352 0.17541 0.94648 0.0
O137 O 0.61258 0.21623 0.11548 0.0
C138 C 0.6255 0.31807 0.96777 0.0
C139 C 0.62809 0.15776 0.94918 0.0
Zn140 Zn 0.34771 0.24624 1.00316 0.0
Zn141 Zn 0.39188 0.24754 0.12458 0.0
C142 C 0.35751 0.26117 0.84972 0.0
O143 O 0.34678 0.29946 0.86908 0.0
C144 C 0.38805 0.21059 0.28283 0.0
O145 O 0.39173 0.16859 0.25073 0.0
O146 O 0.32057 0.24337 0.97805 0.0
O147 O 0.35463 0.19886 0.08449 0.0
O148 O 0.38512 0.18763 0.07328 0.0
C149 C 0.31562 0.20508 0.94971 0.0
O150 O 0.32816 0.16884 0.94116 0.0
O151 O 0.36105 0.23026 0.90072 0.0
C152 C 0.4304 0.21241 0.11855 0.0
O153 O 0.42339 0.17442 0.14128 0.0
O154 O 0.41948 0.24921 0.1076 0.0
O155 O 0.37916 0.30927 0.09028 0.0
O156 O 0.35148 0.31262 0.03263 0.0
O157 O 0.38742 0.24643 0.24059 0.0
C158 C 0.36931 0.17171 0.07148 0.0
C159 C 0.365 0.33254 0.06141 0.0
H160 H 0.20625 0.26883 0.75204 0.0
H161 H 0.29929 0.12648 0.90473 0.0
H162 H 0.21121 0.1192 0.78325 0.0
H163 H 0.28814 0.27687 0.93016 0.0
H164 H 0.26791 0.12266 0.85228 0.0
H165 H 0.23724 0.272 0.80811 0.0
C166 C 0.21388 0.23658 0.77041 0.0
C167 C 0.20612 0.19364 0.76285 0.0
C168 C 0.27231 0.15645 0.8697 0.0
C169 C 0.24163 0.1971 0.82718 0.0
C170 C 0.29022 0.15869 0.89956 0.0
C171 C 0.29635 0.20208 0.92182 0.0
C172 C 0.26051 0.19796 0.86118 0.0
C173 C 0.28399 0.24266 0.91394 0.0
C174 C 0.23154 0.23848 0.80279 0.0
C175 C 0.21663 0.15306 0.78807 0.0
N176 N 0.2667 0.23963 0.88381 0.0
N177 N 0.23389 0.15575 0.81885 0.0
H178 H 0.70881 0.19474 0.88667 0.0
H179 H 0.79169 0.2662 0.61895 0.0
H180 H 0.70115 0.29567 0.7051 0.0
H181 H 0.7996 0.16612 0.80171 0.0
H182 H 0.75843 0.27663 0.64871 0.0
H183 H 0.74205 0.18347 0.85611 0.0
C184 C 0.71411 0.21464 0.84048 0.0
C185 C 0.70215 0.24626 0.79841 0.0
C186 C 0.76742 0.25232 0.68226 0.0
C187 C 0.74024 0.23334 0.76294 0.0
C188 C 0.78643 0.24628 0.66523 0.0
C189 C 0.79848 0.21524 0.70796 0.0
C190 C 0.76035 0.2272 0.74255 0.0
C191 C 0.79085 0.19042 0.76724 0.0
C192 C 0.73311 0.20812 0.82299 0.0
C193 C 0.70983 0.27098 0.73913 0.0
N194 N 0.77227 0.19699 0.78286 0.0
N195 N 0.72837 0.26397 0.72314 0.0
H196 H 0.29883 0.64539 0.16795 0.0
H197 H 0.19898 0.79487 0.16427 0.0
H198 H 0.28654 0.7695 0.03345 0.0
H199 H 0.21273 0.67754 0.31264 0.0
H200 H 0.23045 0.7835 0.11009 0.0
H201 H 0.26667 0.6534 0.21463 0.0
C202 C 0.28934 0.67413 0.14772 0.0
C203 C 0.29542 0.70695 0.09696 0.0
C204 C 0.22659 0.76024 0.1545 0.0
C205 C 0.25859 0.71649 0.15063 0.0
C206 C 0.20862 0.76675 0.18557 0.0
C207 C 0.20322 0.73722 0.24332 0.0
C208 C 0.23926 0.72386 0.18119 0.0
C209 C 0.2163 0.70127 0.26844 0.0
C210 C 0.27098 0.67877 0.17464 0.0
C211 C 0.28248 0.74345 0.07272 0.0
N212 N 0.2337 0.69562 0.23723 0.0
N213 N 0.2647 0.74734 0.10002 0.0
H214 H 0.7014 0.76972 0.22601 0.0
H215 H 0.80062 0.61891 0.24294 0.0
H216 H 0.70838 0.6188 0.19888 0.0
H217 H 0.79166 0.76576 0.30941 0.0
H218 H 0.76717 0.61855 0.21986 0.0
H219 H 0.73475 0.76928 0.25015 0.0
C220 C 0.70994 0.73644 0.22508 0.0
C221 C 0.70207 0.6942 0.21031 0.0
C222 C 0.77253 0.65081 0.23962 0.0
C223 C 0.74034 0.69351 0.23781 0.0
C224 C 0.79163 0.6511 0.25261 0.0
C225 C 0.79895 0.69245 0.27813 0.0
C226 C 0.76067 0.69226 0.2517 0.0
C227 C 0.78663 0.73306 0.28988 0.0
C228 C 0.729 0.73623 0.23906 0.0
C229 C 0.71384 0.65217 0.21011 0.0
N230 N 0.76811 0.73196 0.27638 0.0
N231 N 0.73241 0.6529 0.22341 0.0
H232 H 0.10515 0.87059 0.50087 0.0
H233 H 0.16515 0.08592 0.57833 0.0
H234 H 0.16411 0.86079 0.45066 0.0
H235 H 0.10609 0.1027 0.53066 0.0
H236 H 0.16542 0.00161 0.54869 0.0
H237 H 0.10563 0.95429 0.52984 0.0
C238 C 0.11823 0.88599 0.49613 0.0
C239 C 0.13462 0.85859 0.47314 0.0
C240 C 0.15245 0.02391 0.5446 0.0
C241 C 0.13525 0.95446 0.50685 0.0
C242 C 0.15226 0.07192 0.56178 0.0
C243 C 0.13557 0.10144 0.55689 0.0
C244 C 0.13579 0.00525 0.52384 0.0
C245 C 0.11929 0.08137 0.5349 0.0
C246 C 0.11846 0.93382 0.51237 0.0
C247 C 0.15113 0.88062 0.4678 0.0
N248 N 0.11979 0.03453 0.51972 0.0
N249 N 0.15106 0.92728 0.48499 0.0
H250 H 0.90169 0.3585 0.56435 0.0
H251 H 0.84678 0.58798 0.38803 0.0
H252 H 0.8444 0.36556 0.48863 0.0
H253 H 0.90178 0.58495 0.48873 0.0
H254 H 0.8466 0.50472 0.41411 0.0
H255 H 0.90294 0.43949 0.5259 0.0
C256 C 0.88941 0.37694 0.53902 0.0
C257 C 0.8729 0.35522 0.5298 0.0
C258 C 0.85872 0.52227 0.43031 0.0
C259 C 0.87418 0.44817 0.4863 0.0
C260 C 0.85885 0.56985 0.41534 0.0
C261 C 0.87429 0.59369 0.43647 0.0
C262 C 0.87415 0.49822 0.46649 0.0
C263 C 0.88953 0.56819 0.47168 0.0
C264 C 0.89011 0.42329 0.51741 0.0
C265 C 0.85739 0.38099 0.49718 0.0
N266 N 0.88905 0.52191 0.48567 0.0
N267 N 0.8584 0.42613 0.47679 0.0
H268 H 0.84358 0.86637 0.47237 0.0
H269 H 0.90312 0.08782 0.46678 0.0
H270 H 0.90097 0.8584 0.39756 0.0
H271 H 0.84803 0.09248 0.56704 0.0
H272 H 0.90234 0.00411 0.43864 0.0
H273 H 0.84469 0.94961 0.50499 0.0
C274 C 0.85643 0.88208 0.46291 0.0
C275 C 0.87222 0.85529 0.43226 0.0
C276 C 0.89044 0.02342 0.46698 0.0
C277 C 0.87357 0.95066 0.46932 0.0
C278 C 0.89086 0.07131 0.48304 0.0
C279 C 0.87561 0.09742 0.51936 0.0
C280 C 0.87463 0.00134 0.48696 0.0
C281 C 0.86013 0.0739 0.53901 0.0
C282 C 0.85706 0.92961 0.4817 0.0
C283 C 0.88849 0.87756 0.42147 0.0
N284 N 0.86002 0.02729 0.52236 0.0
N285 N 0.88872 0.92393 0.43972 0.0
H286 H 0.1044 0.59794 0.44487 0.0
H287 H 0.16398 0.36148 0.5687 0.0
H288 H 0.16398 0.58624 0.47925 0.0
H289 H 0.10381 0.3782 0.56307 0.0
H290 H 0.16429 0.44294 0.53162 0.0
H291 H 0.10393 0.51691 0.48422 0.0
C292 C 0.11738 0.57847 0.4611 0.0
C293 C 0.13424 0.5991 0.4591 0.0
C294 C 0.15101 0.42884 0.5386 0.0
C295 C 0.13384 0.50596 0.50342 0.0
C296 C 0.15082 0.38224 0.55966 0.0
C297 C 0.13383 0.3629 0.56912 0.0
C298 C 0.13411 0.45637 0.52642 0.0
C299 C 0.11723 0.39161 0.55661 0.0
C300 C 0.1171 0.5321 0.4834 0.0
C301 C 0.15065 0.57185 0.47995 0.0
N302 N 0.11779 0.43686 0.53578 0.0
N303 N 0.15004 0.52669 0.50108 0.0
H304 H 0.59436 0.61483 0.04323 0.0
H305 H 0.65519 0.37083 0.96325 0.0
H306 H 0.65373 0.59583 0.08349 0.0
H307 H 0.59592 0.38164 1.00708 0.0
H308 H 0.65495 0.45502 0.99152 0.0
H309 H 0.59474 0.5308 0.01449 0.0
C310 C 0.60748 0.59302 0.04604 0.0
C311 C 0.62404 0.6124 0.066 0.0
C312 C 0.64202 0.43886 0.99497 0.0
C313 C 0.62455 0.5163 0.0325 0.0
C314 C 0.64212 0.39089 0.97848 0.0
C315 C 0.62554 0.36911 0.98287 0.0
C316 C 0.6252 0.46535 0.01488 0.0
C317 C 0.60903 0.39688 1.00325 0.0
C318 C 0.60766 0.54505 0.02985 0.0
C319 C 0.64062 0.58236 0.06884 0.0
N320 N 0.60927 0.4436 0.01815 0.0
N321 N 0.64047 0.53581 0.05183 0.0
H322 H 0.39417 0.88038 0.93651 0.0
H323 H 0.33886 0.12206 0.0839 0.0
H324 H 0.33883 0.88981 0.0355 0.0
H325 H 0.39716 0.10661 0.02076 0.0
H326 H 0.33756 0.0383 0.05616 0.0
H327 H 0.39438 0.96476 0.95614 0.0
C328 C 0.38201 0.90017 0.962 0.0
C329 C 0.36647 0.87785 0.98452 0.0
C330 C 0.35062 0.05331 0.04838 0.0
C331 C 0.36667 0.97467 0.00745 0.0
C332 C 0.35137 0.10111 0.06402 0.0
C333 C 0.36815 0.12134 0.05467 0.0
C334 C 0.36675 0.02566 0.02298 0.0
C335 C 0.38394 0.0925 0.02904 0.0
C336 C 0.38217 0.9484 0.97342 0.0
C337 C 0.35114 0.90546 0.01744 0.0
N338 N 0.38284 0.04614 0.01406 0.0
N339 N 0.35164 0.95246 0.028 0.0
H340 H 0.39176 0.38742 0.11272 0.0
H341 H 0.34024 0.62438 0.94945 0.0
H342 H 0.33758 0.39542 1.00359 0.0
H343 H 0.39817 0.60717 0.01681 0.0
H344 H 0.33713 0.54401 0.98812 0.0
H345 H 0.39228 0.47148 0.09732 0.0
C346 C 0.37989 0.40685 0.08604 0.0
C347 C 0.36468 0.38413 0.05867 0.0
C348 C 0.35048 0.55798 0.9948 0.0
C349 C 0.36525 0.48056 0.04071 0.0
C350 C 0.35226 0.60384 0.97292 0.0
C351 C 0.36954 0.6223 0.97923 0.0
C352 C 0.36607 0.53056 0.02342 0.0
C353 C 0.38463 0.59421 0.01021 0.0
C354 C 0.38022 0.4549 0.07716 0.0
C355 C 0.34966 0.41135 0.02505 0.0
N356 N 0.38256 0.54969 0.03083 0.0
N357 N 0.35038 0.45812 0.01657 0.0
H358 H 0.65722 0.09678 0.99606 0.0
H359 H 0.5946 0.88802 0.07853 0.0
H360 H 0.59778 0.10716 0.9572 0.0
H361 H 0.6548 0.87259 0.07763 0.0
H362 H 0.59511 0.96983 0.04225 0.0
H363 H 0.65621 0.01591 0.03459 0.0
C364 C 0.64393 0.08212 0.99578 0.0
C365 C 0.62754 0.10889 0.97354 0.0
C366 C 0.60819 0.94847 0.04995 0.0
C367 C 0.6263 0.01614 0.01774 0.0
C368 C 0.60791 0.9018 0.07074 0.0
C369 C 0.62468 0.87337 0.081 0.0
C370 C 0.62535 0.96687 0.03989 0.0
C371 C 0.64152 0.89312 0.07019 0.0
C372 C 0.64337 0.03586 0.01772 0.0
C373 C 0.61074 0.08793 0.97436 0.0
N374 N 0.64142 0.93863 0.05038 0.0
N375 N 0.61054 0.04277 0.99619 0.0
H376 H 0.12844 0.30279 0.31212 0.0
H377 H 0.11606 0.21262 0.87195 0.0
H378 H 0.09508 0.19122 0.24532 0.0
H379 H 0.14956 0.32398 0.93835 0.0
H380 H 0.10645 0.20806 0.00744 0.0
H381 H 0.13482 0.3144 0.17484 0.0
C382 C 0.12241 0.28082 0.26865 0.0
C383 C 0.11129 0.24579 0.29043 0.0
C384 C 0.1158 0.23373 0.9923 0.0
C385 C 0.11853 0.2589 0.13298 0.0
C386 C 0.12126 0.23644 0.91482 0.0
C387 C 0.13373 0.26855 0.89365 0.0
C388 C 0.1229 0.26324 0.04924 0.0
C389 C 0.13999 0.29853 0.95188 0.0
C390 C 0.12604 0.28749 0.1902 0.0
C391 C 0.1038 0.21852 0.23141 0.0
N392 N 0.13461 0.29493 0.02695 0.0
N393 N 0.10761 0.22553 0.15556 0.0
H394 H 0.8716 0.29626 0.27973 0.0
H395 H 0.88802 0.20954 0.83591 0.0
H396 H 0.91284 0.18454 0.20555 0.0
H397 H 0.84586 0.31964 0.90782 0.0
H398 H 0.89846 0.20331 0.9705 0.0
H399 H 0.86303 0.30859 0.14357 0.0
C400 C 0.8789 0.27445 0.23489 0.0
C401 C 0.89291 0.23915 0.25426 0.0
C402 C 0.88698 0.22901 0.95687 0.0
C403 C 0.88316 0.25305 0.09827 0.0
C404 C 0.88102 0.23264 0.87987 0.0
C405 C 0.86597 0.26504 0.86038 0.0
C406 C 0.87782 0.25791 0.01516 0.0
C407 C 0.85748 0.29407 0.92004 0.0
C408 C 0.874 0.28149 0.15714 0.0
C409 C 0.90191 0.21204 0.19359 0.0
N410 N 0.86346 0.28967 0.99468 0.0
N411 N 0.89685 0.21946 0.11858 0.0
H412 H 0.1162 0.75366 0.15587 0.0
H413 H 0.13024 0.65817 0.71561 0.0
H414 H 0.15166 0.62874 0.0897 0.0
H415 H 0.09447 0.78232 0.78305 0.0
H416 H 0.13691 0.64415 0.85288 0.0
H417 H 0.10651 0.76177 0.02045 0.0
C418 C 0.12182 0.72766 0.11307 0.0
C419 C 0.13485 0.69059 0.13431 0.0
C420 C 0.12754 0.67435 0.83763 0.0
C421 C 0.12392 0.6999 0.97872 0.0
C422 C 0.12373 0.68239 0.75921 0.0
C423 C 0.11185 0.72163 0.73761 0.0
C424 C 0.11943 0.7058 0.89499 0.0
C425 C 0.10377 0.75171 0.79679 0.0
C426 C 0.11631 0.73239 0.03561 0.0
C427 C 0.14164 0.65799 0.07613 0.0
N428 N 0.10777 0.74328 0.87256 0.0
N429 N 0.13619 0.66357 1.00106 0.0
H430 H 0.87102 0.79267 0.69197 0.0
H431 H 0.88725 0.70266 0.12599 0.0
H432 H 0.91123 0.67802 0.7533 0.0
H433 H 0.84549 0.81417 0.06605 0.0
H434 H 0.89752 0.69673 0.99065 0.0
H435 H 0.86266 0.8045 0.82949 0.0
C436 C 0.87815 0.77013 0.73429 0.0
C437 C 0.8918 0.73416 0.71091 0.0
C438 C 0.88616 0.72266 1.0071 0.0
C439 C 0.8823 0.74748 0.86838 0.0
C440 C 0.88031 0.72612 0.08452 0.0
C441 C 0.86542 0.75883 0.10752 0.0
C442 C 0.87707 0.75206 0.95197 0.0
C443 C 0.85698 0.78832 0.05103 0.0
C444 C 0.87336 0.77687 0.81281 0.0
C445 C 0.90058 0.70607 0.76842 0.0
N446 N 0.86286 0.7841 0.9759 0.0
N447 N 0.89565 0.71324 0.84425 0.0
H448 H 0.64926 0.82774 0.44615 0.0
H449 H 0.58881 0.70302 0.75431 0.0
H450 H 0.61175 0.72428 0.38431 0.0
H451 H 0.62555 0.80774 0.8189 0.0
H452 H 0.59626 0.71286 0.61819 0.0
H453 H 0.63982 0.82381 0.58192 0.0
C454 C 0.63894 0.80442 0.46094 0.0
C455 C 0.63135 0.77612 0.40359 0.0
C456 C 0.60269 0.73381 0.66197 0.0
C457 C 0.62056 0.77129 0.5593 0.0
C458 C 0.59845 0.72818 0.73993 0.0
C459 C 0.60663 0.75446 0.79835 0.0
C460 C 0.61526 0.76592 0.64179 0.0
C461 C 0.61896 0.78664 0.77588 0.0
C462 C 0.63358 0.80216 0.5386 0.0
C463 C 0.61802 0.74666 0.42641 0.0
N464 N 0.62295 0.79135 0.69939 0.0
N465 N 0.61312 0.74486 0.50242 0.0
H466 H 0.40839 0.65651 0.60784 0.0
H467 H 0.34339 0.80416 0.30618 0.0
H468 H 0.36927 0.77547 0.6702 0.0
H469 H 0.38009 0.68211 0.23621 0.0
H470 H 0.35342 0.79374 0.43966 0.0
H471 H 0.39885 0.66469 0.47169 0.0
C472 C 0.3978 0.68428 0.59303 0.0
C473 C 0.38963 0.71536 0.65066 0.0
C474 C 0.35933 0.76912 0.39538 0.0
C475 C 0.37871 0.72492 0.49521 0.0
C476 C 0.3536 0.77508 0.31882 0.0
C477 C 0.3609 0.74395 0.25969 0.0
C478 C 0.37252 0.73172 0.41362 0.0
C479 C 0.37411 0.70696 0.27998 0.0
C480 C 0.39237 0.6889 0.51531 0.0
C481 C 0.37598 0.75065 0.62801 0.0
N482 N 0.37951 0.70184 0.35538 0.0
N483 N 0.371 0.75444 0.55229 0.0
H484 H 0.5916 0.29344 0.29754 0.0
H485 H 0.65364 0.14162 0.60356 0.0
H486 H 0.62968 0.17331 0.23103 0.0
H487 H 0.61496 0.26123 0.66675 0.0
H488 H 0.64428 0.15032 0.46781 0.0
H489 H 0.59938 0.2802 0.43329 0.0
C490 C 0.60161 0.26419 0.31141 0.0
C491 C 0.61005 0.23454 0.25254 0.0
C492 C 0.63777 0.17451 0.51142 0.0
C493 C 0.61904 0.2191 0.40876 0.0
C494 C 0.64308 0.16952 0.58907 0.0
C495 C 0.63513 0.20084 0.64682 0.0
C496 C 0.62442 0.21115 0.49114 0.0
C497 C 0.62151 0.23629 0.62437 0.0
C498 C 0.60603 0.25662 0.38918 0.0
C499 C 0.62287 0.19714 0.2744 0.0
N500 N 0.61666 0.24057 0.54839 0.0
N501 N 0.62702 0.19056 0.35075 0.0
H502 H 0.38957 0.14277 0.39339 0.0
H503 H 0.35674 0.32594 0.73703 0.0
H504 H 0.37893 0.29226 0.366 0.0
H505 H 0.37296 0.17959 0.77665 0.0
H506 H 0.36515 0.31328 0.60085 0.0
H507 H 0.38368 0.15437 0.53316 0.0
C508 C 0.38602 0.178 0.41664 0.0
C509 C 0.3847 0.21658 0.36766 0.0
C510 C 0.36699 0.28386 0.63914 0.0
C511 C 0.37796 0.23005 0.5275 0.0
C512 C 0.36217 0.29108 0.71715 0.0
C513 C 0.36408 0.25373 0.76842 0.0
C514 C 0.37366 0.23881 0.61143 0.0
C515 C 0.37129 0.2094 0.73917 0.0
C516 C 0.3827 0.18459 0.49648 0.0
C517 C 0.38009 0.26142 0.40122 0.0
N518 N 0.37571 0.20307 0.66239 0.0
N519 N 0.37684 0.26684 0.47876 0.0
H520 H 0.05107 0.21104 0.5768 0.0
H521 H 0.95309 0.33794 0.43889 0.0
H522 H 0.04478 0.34503 0.46633 0.0
H523 H 0.95887 0.20344 0.54776 0.0
H524 H 0.98663 0.34153 0.45085 0.0
H525 H 0.01732 0.20826 0.56985 0.0
C526 C 0.0426 0.23999 0.55139 0.0
C527 C 0.0508 0.27831 0.52198 0.0
C528 C 0.98059 0.31122 0.4722 0.0
C529 C 0.01214 0.27524 0.51356 0.0
C530 C 0.96141 0.30911 0.46532 0.0
C531 C 0.95313 0.27028 0.49227 0.0
C532 C 0.99165 0.27423 0.50629 0.0
C533 C 0.96465 0.23403 0.5261 0.0
C534 C 0.02332 0.23832 0.54732 0.0
C535 C 0.0391 0.31476 0.48966 0.0
N536 N 0.98332 0.23687 0.5321 0.0
N537 N 0.0204 0.31226 0.48618 0.0
H538 H 0.95801 0.82463 0.48224 0.0
H539 H 0.04764 0.63844 0.5101 0.0
H540 H 0.95557 0.67479 0.4649 0.0
H541 H 0.05108 0.7853 0.46948 0.0
H542 H 0.0137 0.65177 0.50259 0.0
H543 H 0.99206 0.81163 0.48621 0.0
C544 C 0.96463 0.78902 0.47914 0.0
C545 C 0.95394 0.75074 0.4732 0.0
C546 C 0.02188 0.68105 0.49507 0.0
C547 C 0.99282 0.73564 0.47817 0.0
C548 C 0.04126 0.67349 0.49956 0.0
C549 C 0.0522 0.71081 0.49035 0.0
C550 C 0.01337 0.72635 0.48202 0.0
C551 C 0.04318 0.75549 0.47669 0.0
C552 C 0.98405 0.78164 0.48124 0.0
C553 C 0.96325 0.70535 0.46929 0.0
N554 N 0.02427 0.76206 0.47326 0.0
N555 N 0.98215 0.69907 0.47221 0.0
H556 H 0.54159 0.73292 0.05993 0.0
H557 H 0.4502 0.85298 0.85284 0.0
H558 H 0.54055 0.86152 0.93457 0.0
H559 H 0.45271 0.72067 0.96817 0.0
H560 H 0.48291 0.85866 0.88623 0.0
H561 H 0.50852 0.73033 0.03239 0.0
C562 C 0.53439 0.7608 0.02701 0.0
C563 C 0.54389 0.79741 0.99926 0.0
C564 C 0.47629 0.8284 0.90418 0.0
C565 C 0.50598 0.79448 0.96704 0.0
C566 C 0.45762 0.82508 0.88502 0.0
C567 C 0.4487 0.78623 0.90756 0.0
C568 C 0.48609 0.79264 0.94631 0.0
C569 C 0.45901 0.75122 0.94938 0.0
C570 C 0.51549 0.75922 0.01109 0.0
C571 C 0.5338 0.83257 0.95696 0.0
N572 N 0.47713 0.75528 0.96738 0.0
N573 N 0.5154 0.83015 0.94189 0.0
H574 H 0.44958 0.28298 0.06401 0.0
H575 H 0.54917 0.1344 0.09765 0.0
H576 H 0.4575 0.14076 0.14295 0.0
H577 H 0.54168 0.27265 1.00218 0.0
H578 H 0.51556 0.13689 0.11576 0.0
H579 H 0.48322 0.28077 0.0425 0.0
C580 C 0.45838 0.25131 0.07688 0.0
C581 C 0.4507 0.21199 0.10538 0.0
C582 C 0.52123 0.16668 0.09066 0.0
C583 C 0.48918 0.20925 0.08089 0.0
C584 C 0.54045 0.16529 0.08028 0.0
C585 C 0.54828 0.2034 0.04836 0.0
C586 C 0.50967 0.20654 0.06924 0.0
C587 C 0.53625 0.24245 0.02693 0.0
C588 C 0.47758 0.25006 0.06446 0.0
C589 C 0.46277 0.1719 0.12088 0.0
N590 N 0.51754 0.24307 0.03795 0.0
N591 N 0.48139 0.17161 0.10854 0.0
loop_
_geom_bond_atom_site_label_1
_geom_bond_atom_site_label_2
_geom_bond_distance
_geom_bond_site_symmetry_2
_ccdc_geom_bond_type
Zn0 O6 1.969 . S
Zn0 O7 1.965 . S
Zn0 O11 2.024 . S
Zn0 O16 1.969 . S
Zn1 O8 1.969 . S
Zn1 O14 1.969 . S
Zn1 O15 1.965 . S
Zn1 O17 2.024 . S
C2 O3 1.229 . S
C2 O11 1.058 . S
O3 C2 1.229 . S
C4 O5 1.229 . S
C4 O17 1.058 . S
O5 C4 1.229 . S
O6 Zn0 1.969 . S
O6 C9 1.267 . S
O7 Zn0 1.965 . S
O7 C18 1.260 . S
O8 Zn1 1.969 . S
O8 C18 1.258 . S
C9 O6 1.267 . S
C9 O10 1.228 . S
O10 C9 1.228 . S
O11 Zn0 2.024 . S
O11 C2 1.058 . S
C12 O13 1.228 . S
C12 O14 1.267 . S
O13 C12 1.228 . S
O14 Zn1 1.969 . S
O14 C12 1.267 . S
O15 Zn1 1.965 . S
O15 C19 1.260 . S
O16 Zn0 1.969 . S
O16 C19 1.258 . S
O17 Zn1 2.024 . S
O17 C4 1.058 . S
C18 O7 1.260 . S
C18 O8 1.258 . S
C19 O15 1.260 . S
C19 O16 1.258 . S
Zn20 O26 1.969 . S
Zn20 O27 1.965 . S
Zn20 O31 2.024 . S
Zn20 O36 1.969 . S
Zn21 O28 1.969 . S
Zn21 O34 1.969 . S
Zn21 O35 1.965 . S
Zn21 O37 2.024 . S
C22 O23 1.229 . S
C22 O31 1.058 . S
O23 C22 1.229 . S
C24 O25 1.229 . S
C24 O37 1.058 . S
O25 C24 1.229 . S
O26 Zn20 1.969 . S
O26 C29 1.267 . S
O27 Zn20 1.965 . S
O27 C38 1.260 . S
O28 Zn21 1.969 . S
O28 C38 1.258 . S
C29 O26 1.267 . S
C29 O30 1.228 . S
O30 C29 1.228 . S
O31 Zn20 2.024 . S
O31 C22 1.058 . S
C32 O33 1.228 . S
C32 O34 1.267 . S
O33 C32 1.228 . S
O34 Zn21 1.969 . S
O34 C32 1.267 . S
O35 Zn21 1.965 . S
O35 C39 1.260 . S
O36 Zn20 1.969 . S
O36 C39 1.258 . S
O37 Zn21 2.024 . S
O37 C24 1.058 . S
C38 O27 1.260 . S
C38 O28 1.258 . S
C39 O35 1.260 . S
C39 O36 1.258 . S
Zn40 O46 1.969 . S
Zn40 O47 1.965 . S
Zn40 O51 2.024 . S
Zn40 O56 1.969 . S
Zn41 O48 1.969 . S
Zn41 O54 1.969 . S
Zn41 O55 1.965 . S
Zn41 O57 2.024 . S
C42 O43 1.229 . S
C42 O51 1.058 . S
O43 C42 1.229 . S
C44 O45 1.229 . S
C44 O57 1.058 . S
O45 C44 1.229 . S
O46 Zn40 1.969 . S
O46 C49 1.267 . S
O47 Zn40 1.965 . S
O47 C58 1.260 . S
O48 Zn41 1.969 . S
O48 C58 1.258 . S
C49 O46 1.267 . S
C49 O50 1.228 . S
O50 C49 1.228 . S
O51 Zn40 2.024 . S
O51 C42 1.058 . S
C52 O53 1.228 . S
C52 O54 1.267 . S
O53 C52 1.228 . S
O54 Zn41 1.969 . S
O54 C52 1.267 . S
O55 Zn41 1.965 . S
O55 C59 1.260 . S
O56 Zn40 1.969 . S
O56 C59 1.258 . S
O57 Zn41 2.024 . S
O57 C44 1.058 . S
C58 O47 1.260 . S
C58 O48 1.258 . S
C59 O55 1.260 . S
C59 O56 1.258 . S
Zn60 O66 1.969 . S
Zn60 O67 1.965 . S
Zn60 O71 2.024 . S
Zn60 O76 1.969 . S
Zn61 O68 1.969 . S
Zn61 O74 1.969 . S
Zn61 O75 1.965 . S
Zn61 O77 2.024 . S
C62 O63 1.229 . S
C62 O71 1.058 . S
O63 C62 1.229 . S
C64 O65 1.229 . S
C64 O77 1.058 . S
O65 C64 1.229 . S
O66 Zn60 1.969 . S
O66 C69 1.267 . S
O67 Zn60 1.965 . S
O67 C78 1.260 . S
O68 Zn61 1.969 . S
O68 C78 1.258 . S
C69 O66 1.267 . S
C69 O70 1.228 . S
O70 C69 1.228 . S
O71 Zn60 2.024 . S
O71 C62 1.058 . S
C72 O73 1.228 . S
C72 O74 1.267 . S
O73 C72 1.228 . S
O74 Zn61 1.969 . S
O74 C72 1.267 . S
O75 Zn61 1.965 . S
O75 C79 1.260 . S
O76 Zn60 1.969 . S
O76 C79 1.258 . S
O77 Zn61 2.024 . S
O77 C64 1.058 . S
C78 O67 1.260 . S
C78 O68 1.258 . S
C79 O75 1.260 . S
C79 O76 1.258 . S
Zn80 O86 1.969 . S
Zn80 O87 1.965 . S
Zn80 O91 2.024 . S
Zn80 O96 1.969 . S
Zn81 O88 1.969 . S
Zn81 O94 1.969 . S
Zn81 O95 1.965 1_556 S
Zn81 O97 2.024 . S
C82 O83 1.229 . S
C82 O91 1.058 . S
O83 C82 1.229 . S
C84 O85 1.229 . S
C84 O97 1.058 . S
O85 C84 1.229 . S
O86 Zn80 1.969 . S
O86 C89 1.267 . S
O87 Zn80 1.965 . S
O87 C98 1.260 1_554 S
O88 Zn81 1.969 . S
O88 C98 1.258 . S
C89 O86 1.267 . S
C89 O90 1.228 . S
O90 C89 1.228 . S
O91 Zn80 2.024 . S
O91 C82 1.058 . S
C92 O93 1.228 . S
C92 O94 1.267 . S
O93 C92 1.228 . S
O94 Zn81 1.969 . S
O94 C92 1.267 . S
O95 Zn81 1.965 1_554 S
O95 C99 1.260 . S
O96 Zn80 1.969 . S
O96 C99 1.258 . S
O97 Zn81 2.024 . S
O97 C84 1.058 . S
C98 O87 1.260 1_556 S
C98 O88 1.258 . S
C99 O95 1.260 . S
C99 O96 1.258 . S
Zn100 O106 1.969 . S
Zn100 O107 1.965 1_556 S
Zn100 O111 2.024 . S
Zn100 O116 1.969 . S
Zn101 O108 1.969 . S
Zn101 O114 1.969 . S
Zn101 O115 1.965 . S
Zn101 O117 2.024 . S
C102 O103 1.229 . S
C102 O111 1.058 . S
O103 C102 1.229 . S
C104 O105 1.229 . S
C104 O117 1.058 . S
O105 C104 1.229 . S
O106 Zn100 1.969 . S
O106 C109 1.267 . S
O107 Zn100 1.965 1_554 S
O107 C118 1.260 . S
O108 Zn101 1.969 . S
O108 C118 1.258 . S
C109 O106 1.267 . S
C109 O110 1.228 . S
O110 C109 1.228 . S
O111 Zn100 2.024 . S
O111 C102 1.058 . S
C112 O113 1.228 . S
C112 O114 1.267 . S
O113 C112 1.228 . S
O114 Zn101 1.969 . S
O114 C112 1.267 . S
O115 Zn101 1.965 . S
O115 C119 1.260 1_554 S
O116 Zn100 1.969 . S
O116 C119 1.258 . S
O117 Zn101 2.024 . S
O117 C104 1.058 . S
C118 O107 1.260 . S
C118 O108 1.258 . S
C119 O115 1.260 1_556 S
C119 O116 1.258 . S
Zn120 O126 1.969 . S
Zn120 O127 1.965 . S
Zn120 O131 2.024 . S
Zn120 O136 1.969 . S
Zn121 O128 1.969 . S
Zn121 O134 1.969 . S
Zn121 O135 1.965 1_554 S
Zn121 O137 2.024 . S
C122 O123 1.229 . S
C122 O131 1.058 . S
O123 C122 1.229 . S
C124 O125 1.229 . S
C124 O137 1.058 . S
O125 C124 1.229 . S
O126 Zn120 1.969 . S
O126 C129 1.267 . S
O127 Zn120 1.965 . S
O127 C138 1.260 1_556 S
O128 Zn121 1.969 . S
O128 C138 1.258 . S
C129 O126 1.267 . S
C129 O130 1.228 . S
O130 C129 1.228 . S
O131 Zn120 2.024 . S
O131 C122 1.058 . S
C132 O133 1.228 . S
C132 O134 1.267 . S
O133 C132 1.228 . S
O134 Zn121 1.969 . S
O134 C132 1.267 . S
O135 Zn121 1.965 1_556 S
O135 C139 1.260 . S
O136 Zn120 1.969 . S
O136 C139 1.258 . S
O137 Zn121 2.024 . S
O137 C124 1.058 . S
C138 O127 1.260 1_554 S
C138 O128 1.258 . S
C139 O135 1.260 . S
C139 O136 1.258 . S
Zn140 O146 1.969 . S
Zn140 O147 1.965 . S
Zn140 O151 2.024 . S
Zn140 O156 1.969 . S
Zn141 O148 1.969 . S
Zn141 O154 1.969 . S
Zn141 O155 1.965 1_554 S
Zn141 O157 2.024 . S
C142 O143 1.229 . S
C142 O151 1.058 . S
O143 C142 1.229 . S
C144 O145 1.229 . S
C144 O157 1.058 . S
O145 C144 1.229 . S
O146 Zn140 1.969 . S
O146 C149 1.267 . S
O147 Zn140 1.965 . S
O147 C158 1.260 1_556 S
O148 Zn141 1.969 . S
O148 C158 1.258 . S
C149 O146 1.267 . S
C149 O150 1.228 . S
O150 C149 1.228 . S
O151 Zn140 2.024 . S
O151 C142 1.058 . S
C152 O153 1.228 . S
C152 O154 1.267 . S
O153 C152 1.228 . S
O154 Zn141 1.969 . S
O154 C152 1.267 . S
O155 Zn141 1.965 1_556 S
O155 C159 1.260 . S
O156 Zn140 1.969 . S
O156 C159 1.258 . S
O157 Zn141 2.024 . S
O157 C144 1.058 . S
C158 O147 1.260 1_554 S
C158 O148 1.258 . S
C159 O155 1.260 . S
C159 O156 1.258 . S
H160 C166 0.930 . S
H161 C170 0.930 . S
H162 C175 0.929 . S
H163 C173 0.929 . S
H164 C168 0.929 . S
H165 C174 0.929 . S
C166 H160 0.930 . S
C166 C167 1.367 . S
C166 C174 1.378 . S
C167 C166 1.367 . S
C167 C175 1.433 . S
C168 H164 0.929 . S
C168 C170 1.378 . S
C168 C172 1.350 . S
C169 C172 1.463 . S
C169 C174 1.350 . S
C169 N177 1.427 . S
C170 H161 0.930 . S
C170 C168 1.378 . S
C170 C171 1.367 . S
C171 C170 1.367 . S
C171 C173 1.433 . S
C172 C168 1.350 . S
C172 C169 1.463 . S
C172 N176 1.427 . S
C173 H163 0.929 . S
C173 C171 1.433 . S
C173 N176 1.384 . S
C174 H165 0.929 . S
C174 C166 1.378 . S
C174 C169 1.350 . S
C175 H162 0.929 . S
C175 C167 1.433 . S
C175 N177 1.384 . S
N176 C172 1.427 . S
N176 C173 1.384 . S
N177 C169 1.427 . S
N177 C175 1.384 . S
H178 C184 0.930 . S
H179 C188 0.930 . S
H180 C193 0.929 . S
H181 C191 0.929 . S
H182 C186 0.929 . S
H183 C192 0.929 . S
C184 H178 0.930 . S
C184 C185 1.367 . S
C184 C192 1.378 . S
C185 C184 1.367 . S
C185 C193 1.433 . S
C186 H182 0.929 . S
C186 C188 1.378 . S
C186 C190 1.350 . S
C187 C190 1.463 . S
C187 C192 1.350 . S
C187 N195 1.427 . S
C188 H179 0.930 . S
C188 C186 1.378 . S
C188 C189 1.367 . S
C189 C188 1.367 . S
C189 C191 1.433 . S
C190 C186 1.350 . S
C190 C187 1.463 . S
C190 N194 1.427 . S
C191 H181 0.929 . S
C191 C189 1.433 . S
C191 N194 1.384 . S
C192 H183 0.929 . S
C192 C184 1.378 . S
C192 C187 1.350 . S
C193 H180 0.929 . S
C193 C185 1.433 . S
C193 N195 1.384 . S
N194 C190 1.427 . S
N194 C191 1.384 . S
N195 C187 1.427 . S
N195 C193 1.384 . S
H196 C202 0.930 . S
H197 C206 0.930 . S
H198 C211 0.929 . S
H199 C209 0.929 . S
H200 C204 0.929 . S
H201 C210 0.929 . S
C202 H196 0.930 . S
C202 C203 1.367 . S
C202 C210 1.378 . S
C203 C202 1.367 . S
C203 C211 1.433 . S
C204 H200 0.929 . S
C204 C206 1.378 . S
C204 C208 1.350 . S
C205 C208 1.463 . S
C205 C210 1.350 . S
C205 N213 1.427 . S
C206 H197 0.930 . S
C206 C204 1.378 . S
C206 C207 1.367 . S
C207 C206 1.367 . S
C207 C209 1.433 . S
C208 C204 1.350 . S
C208 C205 1.463 . S
C208 N212 1.427 . S
C209 H199 0.929 . S
C209 C207 1.433 . S
C209 N212 1.384 . S
C210 H201 0.929 . S
C210 C202 1.378 . S
C210 C205 1.350 . S
C211 H198 0.929 . S
C211 C203 1.433 . S
C211 N213 1.384 . S
N212 C208 1.427 . S
N212 C209 1.384 . S
N213 C205 1.427 . S
N213 C211 1.384 . S
H214 C220 0.930 . S
H215 C224 0.930 . S
H216 C229 0.929 . S
H217 C227 0.929 . S
H218 C222 0.929 . S
H219 C228 0.929 . S
C220 H214 0.930 . S
C220 C221 1.367 . S
C220 C228 1.378 . S
C221 C220 1.367 . S
C221 C229 1.433 . S
C222 H218 0.929 . S
C222 C224 1.378 . S
C222 C226 1.350 . S
C223 C226 1.463 . S
C223 C228 1.350 . S
C223 N231 1.427 . S
C224 H215 0.930 . S
C224 C222 1.378 . S
C224 C225 1.367 . S
C225 C224 1.367 . S
C225 C227 1.433 . S
C226 C222 1.350 . S
C226 C223 1.463 . S
C226 N230 1.427 . S
C227 H217 0.929 . S
C227 C225 1.433 . S
C227 N230 1.384 . S
C228 H219 0.929 . S
C228 C220 1.378 . S
C228 C223 1.350 . S
C229 H216 0.929 . S
C229 C221 1.433 . S
C229 N231 1.384 . S
N230 C226 1.427 . S
N230 C227 1.384 . S
N231 C223 1.427 . S
N231 C229 1.384 . S
H232 C238 0.930 . S
H233 C242 0.930 . S
H234 C247 0.929 . S
H235 C245 0.929 . S
H236 C240 0.929 . S
H237 C246 0.929 . S
C238 H232 0.930 . S
C238 C239 1.367 . S
C238 C246 1.378 . S
C239 C238 1.367 . S
C239 C247 1.433 . S
C240 H236 0.929 . S
C240 C242 1.378 . S
C240 C244 1.350 . S
C241 C244 1.463 1_565 S
C241 C246 1.350 . S
C241 N249 1.427 . S
C242 H233 0.930 . S
C242 C240 1.378 . S
C242 C243 1.367 . S
C243 C242 1.367 . S
C243 C245 1.433 . S
C244 C240 1.350 . S
C244 C241 1.463 1_545 S
C244 N248 1.427 . S
C245 H235 0.929 . S
C245 C243 1.433 . S
C245 N248 1.384 . S
C246 H237 0.929 . S
C246 C238 1.378 . S
C246 C241 1.350 . S
C247 H234 0.929 . S
C247 C239 1.433 . S
C247 N249 1.384 . S
N248 C244 1.427 . S
N248 C245 1.384 . S
N249 C241 1.427 . S
N249 C247 1.384 . S
H250 C256 0.930 . S
H251 C260 0.930 . S
H252 C265 0.929 . S
H253 C263 0.929 . S
H254 C258 0.929 . S
H255 C264 0.929 . S
C256 H250 0.930 . S
C256 C257 1.367 . S
C256 C264 1.378 . S
C257 C256 1.367 . S
C257 C265 1.433 . S
C258 H254 0.929 . S
C258 C260 1.378 . S
C258 C262 1.350 . S
C259 C262 1.463 . S
C259 C264 1.350 . S
C259 N267 1.427 . S
C260 H251 0.930 . S
C260 C258 1.378 . S
C260 C261 1.367 . S
C261 C260 1.367 . S
C261 C263 1.433 . S
C262 C258 1.350 . S
C262 C259 1.463 . S
C262 N266 1.427 . S
C263 H253 0.929 . S
C263 C261 1.433 . S
C263 N266 1.384 . S
C264 H255 0.929 . S
C264 C256 1.378 . S
C264 C259 1.350 . S
C265 H252 0.929 . S
C265 C257 1.433 . S
C265 N267 1.384 . S
N266 C262 1.427 . S
N266 C263 1.384 . S
N267 C259 1.427 . S
N267 C265 1.384 . S
H268 C274 0.930 . S
H269 C278 0.930 . S
H270 C283 0.929 . S
H271 C281 0.929 . S
H272 C276 0.929 . S
H273 C282 0.929 . S
C274 H268 0.930 . S
C274 C275 1.367 . S
C274 C282 1.378 . S
C275 C274 1.367 . S
C275 C283 1.433 . S
C276 H272 0.929 . S
C276 C278 1.378 . S
C276 C280 1.350 . S
C277 C280 1.463 1_565 S
C277 C282 1.350 . S
C277 N285 1.427 . S
C278 H269 0.930 . S
C278 C276 1.378 . S
C278 C279 1.367 . S
C279 C278 1.367 . S
C279 C281 1.433 . S
C280 C276 1.350 . S
C280 C277 1.463 1_545 S
C280 N284 1.427 . S
C281 H271 0.929 . S
C281 C279 1.433 . S
C281 N284 1.384 . S
C282 H273 0.929 . S
C282 C274 1.378 . S
C282 C277 1.350 . S
C283 H270 0.929 . S
C283 C275 1.433 . S
C283 N285 1.384 . S
N284 C280 1.427 . S
N284 C281 1.384 . S
N285 C277 1.427 . S
N285 C283 1.384 . S
H286 C292 0.930 . S
H287 C296 0.930 . S
H288 C301 0.929 . S
H289 C299 0.929 . S
H290 C294 0.929 . S
H291 C300 0.929 . S
C292 H286 0.930 . S
C292 C293 1.367 . S
C292 C300 1.378 . S
C293 C292 1.367 . S
C293 C301 1.433 . S
C294 H290 0.929 . S
C294 C296 1.378 . S
C294 C298 1.350 . S
C295 C298 1.463 . S
C295 C300 1.350 . S
C295 N303 1.427 . S
C296 H287 0.930 . S
C296 C294 1.378 . S
C296 C297 1.367 . S
C297 C296 1.367 . S
C297 C299 1.433 . S
C298 C294 1.350 . S
C298 C295 1.463 . S
C298 N302 1.427 . S
C299 H289 0.929 . S
C299 C297 1.433 . S
C299 N302 1.384 . S
C300 H291 0.929 . S
C300 C292 1.378 . S
C300 C295 1.350 . S
C301 H288 0.929 . S
C301 C293 1.433 . S
C301 N303 1.384 . S
N302 C298 1.427 . S
N302 C299 1.384 . S
N303 C295 1.427 . S
N303 C301 1.384 . S
H304 C310 0.930 . S
H305 C314 0.930 . S
H306 C319 0.929 . S
H307 C317 0.929 . S
H308 C312 0.929 . S
H309 C318 0.929 . S
C310 H304 0.930 . S
C310 C311 1.367 . S
C310 C318 1.378 . S
C311 C310 1.367 . S
C311 C319 1.433 1_554 S
C312 H308 0.929 . S
C312 C314 1.378 . S
C312 C316 1.350 . S
C313 C316 1.463 1_554 S
C313 C318 1.350 . S
C313 N321 1.427 1_554 S
C314 H305 0.930 . S
C314 C312 1.378 . S
C314 C315 1.367 . S
C315 C314 1.367 . S
C315 C317 1.433 1_556 S
C316 C312 1.350 . S
C316 C313 1.463 1_556 S
C316 N320 1.427 1_556 S
C317 H307 0.929 . S
C317 C315 1.433 1_554 S
C317 N320 1.384 . S
C318 H309 0.929 . S
C318 C310 1.378 . S
C318 C313 1.350 . S
C319 H306 0.929 . S
C319 C311 1.433 1_556 S
C319 N321 1.384 . S
N320 C316 1.427 1_554 S
N320 C317 1.384 . S
N321 C313 1.427 1_556 S
N321 C319 1.384 . S
H322 C328 0.930 . S
H323 C332 0.930 . S
H324 C337 0.929 . S
H325 C335 0.929 . S
H326 C330 0.929 . S
H327 C336 0.929 . S
C328 H322 0.930 . S
C328 C329 1.367 1_556 S
C328 C336 1.378 . S
C329 C328 1.367 1_554 S
C329 C337 1.433 . S
C330 H326 0.929 . S
C330 C332 1.378 . S
C330 C334 1.349 . S
C331 C334 1.462 1_565 S
C331 C336 1.344 1_554 S
C331 N339 1.434 . S
C332 H323 0.930 . S
C332 C330 1.378 . S
C332 C333 1.367 1_554 S
C333 C332 1.367 1_556 S
C333 C335 1.433 . S
C334 C330 1.349 . S
C334 C331 1.462 1_545 S
C334 N338 1.428 1_554 S
C335 H325 0.929 . S
C335 C333 1.433 . S
C335 N338 1.384 . S
C336 H327 0.929 . S
C336 C328 1.378 . S
C336 C331 1.344 1_556 S
C337 H324 0.929 . S
C337 C329 1.433 . S
C337 N339 1.384 . S
N338 C334 1.428 1_556 S
N338 C335 1.384 . S
N339 C331 1.434 . S
N339 C337 1.384 . S
H340 C346 0.930 . S
H341 C350 0.930 . S
H342 C355 0.929 . S
H343 C353 0.929 . S
H344 C348 0.929 . S
H345 C354 0.929 . S
C346 H340 0.930 . S
C346 C347 1.367 1_554 S
C346 C354 1.378 . S
C347 C346 1.367 1_556 S
C347 C355 1.433 . S
C348 H344 0.929 . S
C348 C350 1.378 . S
C348 C352 1.358 . S
C349 C352 1.462 . S
C349 C354 1.348 1_556 S
C349 N357 1.429 . S
C350 H341 0.930 . S
C350 C348 1.378 . S
C350 C351 1.367 1_556 S
C351 C350 1.367 1_554 S
C351 C353 1.433 . S
C352 C348 1.358 . S
C352 C349 1.462 . S
C352 N356 1.419 1_556 S
C353 H343 0.929 . S
C353 C351 1.433 . S
C353 N356 1.384 . S
C354 H345 0.929 . S
C354 C346 1.378 . S
C354 C349 1.348 1_554 S
C355 H342 0.929 . S
C355 C347 1.433 . S
C355 N357 1.384 . S
N356 C352 1.419 1_554 S
N356 C353 1.384 . S
N357 C349 1.429 . S
N357 C355 1.384 . S
H358 C364 0.930 . S
H359 C368 0.930 . S
H360 C373 0.929 . S
H361 C371 0.929 . S
H362 C366 0.929 . S
H363 C372 0.929 . S
C364 H358 0.930 . S
C364 C365 1.367 . S
C364 C372 1.378 . S
C365 C364 1.367 . S
C365 C373 1.433 1_556 S
C366 H362 0.929 . S
C366 C368 1.378 . S
C366 C370 1.350 . S
C367 C370 1.463 1_546 S
C367 C372 1.350 . S
C367 N375 1.427 1_556 S
C368 H359 0.930 . S
C368 C366 1.378 . S
C368 C369 1.367 . S
C369 C368 1.367 . S
C369 C371 1.433 1_554 S
C370 C366 1.350 . S
C370 C367 1.463 1_564 S
C370 N374 1.427 1_554 S
C371 H361 0.929 . S
C371 C369 1.433 1_556 S
C371 N374 1.384 . S
C372 H363 0.929 . S
C372 C364 1.378 . S
C372 C367 1.350 . S
C373 H360 0.929 . S
C373 C365 1.433 1_554 S
C373 N375 1.384 . S
N374 C370 1.427 1_556 S
N374 C371 1.384 . S
N375 C367 1.427 1_554 S
N375 C373 1.384 . S
H376 C382 0.930 . S
H377 C386 0.930 . S
H378 C391 0.929 . S
H379 C389 0.929 . S
H380 C384 0.929 . S
H381 C390 0.929 . S
C382 H376 0.930 . S
C382 C383 1.367 . S
C382 C390 1.378 . S
C383 C382 1.367 . S
C383 C391 1.433 . S
C384 H380 0.929 . S
C384 C386 1.378 . S
C384 C388 1.350 . S
C385 C388 1.463 1_554 S
C385 C390 1.350 . S
C385 N393 1.427 . S
C386 H377 0.930 . S
C386 C384 1.378 . S
C386 C387 1.367 . S
C387 C386 1.367 . S
C387 C389 1.433 . S
C388 C384 1.350 . S
C388 C385 1.463 1_556 S
C388 N392 1.427 . S
C389 H379 0.929 . S
C389 C387 1.433 . S
C389 N392 1.384 . S
C390 H381 0.929 . S
C390 C382 1.378 . S
C390 C385 1.350 . S
C391 H378 0.929 . S
C391 C383 1.433 . S
C391 N393 1.384 . S
N392 C388 1.427 . S
N392 C389 1.384 . S
N393 C385 1.427 . S
N393 C391 1.384 . S
H394 C400 0.930 . S
H395 C404 0.930 . S
H396 C409 0.929 . S
H397 C407 0.929 . S
H398 C402 0.929 . S
H399 C408 0.929 . S
C400 H394 0.930 . S
C400 C401 1.367 . S
C400 C408 1.378 . S
C401 C400 1.367 . S
C401 C409 1.433 . S
C402 H398 0.929 . S
C402 C404 1.378 . S
C402 C406 1.350 . S
C403 C406 1.463 1_554 S
C403 C408 1.350 . S
C403 N411 1.427 . S
C404 H395 0.930 . S
C404 C402 1.378 . S
C404 C405 1.367 . S
C405 C404 1.367 . S
C405 C407 1.433 . S
C406 C402 1.350 . S
C406 C403 1.463 1_556 S
C406 N410 1.427 . S
C407 H397 0.929 . S
C407 C405 1.433 . S
C407 N410 1.384 . S
C408 H399 0.929 . S
C408 C400 1.378 . S
C408 C403 1.350 . S
C409 H396 0.929 . S
C409 C401 1.433 . S
C409 N411 1.384 . S
N410 C406 1.427 . S
N410 C407 1.384 . S
N411 C403 1.427 . S
N411 C409 1.384 . S
H412 C418 0.930 . S
H413 C422 0.930 . S
H414 C427 0.929 . S
H415 C425 0.929 . S
H416 C420 0.929 . S
H417 C426 0.929 . S
C418 H412 0.930 . S
C418 C419 1.367 . S
C418 C426 1.378 . S
C419 C418 1.367 . S
C419 C427 1.433 . S
C420 H416 0.929 . S
C420 C422 1.378 . S
C420 C424 1.350 . S
C421 C424 1.463 1_554 S
C421 C426 1.350 . S
C421 N429 1.427 . S
C422 H413 0.930 . S
C422 C420 1.378 . S
C422 C423 1.367 . S
C423 C422 1.367 . S
C423 C425 1.433 . S
C424 C420 1.350 . S
C424 C421 1.463 1_556 S
C424 N428 1.427 . S
C425 H415 0.929 . S
C425 C423 1.433 . S
C425 N428 1.384 . S
C426 H417 0.929 . S
C426 C418 1.378 . S
C426 C421 1.350 . S
C427 H414 0.929 . S
C427 C419 1.433 . S
C427 N429 1.384 . S
N428 C424 1.427 . S
N428 C425 1.384 . S
N429 C421 1.427 . S
N429 C427 1.384 . S
H430 C436 0.930 . S
H431 C440 0.930 . S
H432 C445 0.929 . S
H433 C443 0.929 . S
H434 C438 0.929 . S
H435 C444 0.929 . S
C436 H430 0.930 . S
C436 C437 1.367 . S
C436 C444 1.378 . S
C437 C436 1.367 . S
C437 C445 1.433 . S
C438 H434 0.929 . S
C438 C440 1.378 . S
C438 C442 1.350 . S
C439 C442 1.463 1_556 S
C439 C444 1.350 . S
C439 N447 1.427 . S
C440 H431 0.930 . S
C440 C438 1.378 . S
C440 C441 1.367 . S
C441 C440 1.367 . S
C441 C443 1.433 . S
C442 C438 1.350 . S
C442 C439 1.463 1_554 S
C442 N446 1.427 . S
C443 H433 0.929 . S
C443 C441 1.433 . S
C443 N446 1.384 . S
C444 H435 0.929 . S
C444 C436 1.378 . S
C444 C439 1.350 . S
C445 H432 0.929 . S
C445 C437 1.433 . S
C445 N447 1.384 . S
N446 C442 1.427 . S
N446 C443 1.384 . S
N447 C439 1.427 . S
N447 C445 1.384 . S
H448 C454 0.930 . S
H449 C458 0.930 . S
H450 C463 0.929 . S
H451 C461 0.929 . S
H452 C456 0.929 . S
H453 C462 0.929 . S
C454 H448 0.930 . S
C454 C455 1.367 . S
C454 C462 1.378 . S
C455 C454 1.367 . S
C455 C463 1.433 . S
C456 H452 0.929 . S
C456 C458 1.378 . S
C456 C460 1.350 . S
C457 C460 1.463 . S
C457 C462 1.350 . S
C457 N465 1.427 . S
C458 H449 0.930 . S
C458 C456 1.378 . S
C458 C459 1.367 . S
C459 C458 1.367 . S
C459 C461 1.433 . S
C460 C456 1.350 . S
C460 C457 1.463 . S
C460 N464 1.427 . S
C461 H451 0.929 . S
C461 C459 1.433 . S
C461 N464 1.384 . S
C462 H453 0.929 . S
C462 C454 1.378 . S
C462 C457 1.350 . S
C463 H450 0.929 . S
C463 C455 1.433 . S
C463 N465 1.384 . S
N464 C460 1.427 . S
N464 C461 1.384 . S
N465 C457 1.427 . S
N465 C463 1.384 . S
H466 C472 0.930 . S
H467 C476 0.930 . S
H468 C481 0.929 . S
H469 C479 0.929 . S
H470 C474 0.929 . S
H471 C480 0.929 . S
C472 H466 0.930 . S
C472 C473 1.367 . S
C472 C480 1.378 . S
C473 C472 1.367 . S
C473 C481 1.433 . S
C474 H470 0.929 . S
C474 C476 1.378 . S
C474 C478 1.350 . S
C475 C478 1.463 . S
C475 C480 1.350 . S
C475 N483 1.427 . S
C476 H467 0.930 . S
C476 C474 1.378 . S
C476 C477 1.367 . S
C477 C476 1.367 . S
C477 C479 1.433 . S
C478 C474 1.350 . S
C478 C475 1.463 . S
C478 N482 1.427 . S
C479 H469 0.929 . S
C479 C477 1.433 . S
C479 N482 1.384 . S
C480 H471 0.929 . S
C480 C472 1.378 . S
C480 C475 1.350 . S
C481 H468 0.929 . S
C481 C473 1.433 . S
C481 N483 1.384 . S
N482 C478 1.427 . S
N482 C479 1.384 . S
N483 C475 1.427 . S
N483 C481 1.384 . S
H484 C490 0.930 . S
H485 C494 0.930 . S
H486 C499 0.929 . S
H487 C497 0.929 . S
H488 C492 0.929 . S
H489 C498 0.929 . S
C490 H484 0.930 . S
C490 C491 1.367 . S
C490 C498 1.378 . S
C491 C490 1.367 . S
C491 C499 1.433 . S
C492 H488 0.929 . S
C492 C494 1.378 . S
C492 C496 1.350 . S
C493 C496 1.463 . S
C493 C498 1.350 . S
C493 N501 1.427 . S
C494 H485 0.930 . S
C494 C492 1.378 . S
C494 C495 1.367 . S
C495 C494 1.367 . S
C495 C497 1.433 . S
C496 C492 1.350 . S
C496 C493 1.463 . S
C496 N500 1.427 . S
C497 H487 0.929 . S
C497 C495 1.433 . S
C497 N500 1.384 . S
C498 H489 0.929 . S
C498 C490 1.378 . S
C498 C493 1.350 . S
C499 H486 0.929 . S
C499 C491 1.433 . S
C499 N501 1.384 . S
N500 C496 1.427 . S
N500 C497 1.384 . S
N501 C493 1.427 . S
N501 C499 1.384 . S
H502 C508 0.930 . S
H503 C512 0.930 . S
H504 C517 0.929 . S
H505 C515 0.929 . S
H506 C510 0.929 . S
H507 C516 0.929 . S
C508 H502 0.930 . S
C508 C509 1.367 . S
C508 C516 1.378 . S
C509 C508 1.367 . S
C509 C517 1.433 . S
C510 H506 0.929 . S
C510 C512 1.378 . S
C510 C514 1.350 . S
C511 C514 1.463 . S
C511 C516 1.350 . S
C511 N519 1.427 . S
C512 H503 0.930 . S
C512 C510 1.378 . S
C512 C513 1.367 . S
C513 C512 1.367 . S
C513 C515 1.433 . S
C514 C510 1.350 . S
C514 C511 1.463 . S
C514 N518 1.427 . S
C515 H505 0.929 . S
C515 C513 1.433 . S
C515 N518 1.384 . S
C516 H507 0.929 . S
C516 C508 1.378 . S
C516 C511 1.350 . S
C517 H504 0.929 . S
C517 C509 1.433 . S
C517 N519 1.384 . S
N518 C514 1.427 . S
N518 C515 1.384 . S
N519 C511 1.427 . S
N519 C517 1.384 . S
H520 C526 0.930 . S
H521 C530 0.930 . S
H522 C535 0.929 . S
H523 C533 0.929 . S
H524 C528 0.929 . S
H525 C534 0.929 . S
C526 H520 0.930 . S
C526 C527 1.367 . S
C526 C534 1.378 . S
C527 C526 1.367 . S
C527 C535 1.433 . S
C528 H524 0.929 . S
C528 C530 1.378 . S
C528 C532 1.350 . S
C529 C532 1.463 1_455 S
C529 C534 1.350 . S
C529 N537 1.427 . S
C530 H521 0.930 . S
C530 C528 1.378 . S
C530 C531 1.367 . S
C531 C530 1.367 . S
C531 C533 1.433 . S
C532 C528 1.350 . S
C532 C529 1.463 1_655 S
C532 N536 1.427 . S
C533 H523 0.929 . S
C533 C531 1.433 . S
C533 N536 1.384 . S
C534 H525 0.929 . S
C534 C526 1.378 . S
C534 C529 1.350 . S
C535 H522 0.929 . S
C535 C527 1.433 . S
C535 N537 1.384 . S
N536 C532 1.427 . S
N536 C533 1.384 . S
N537 C529 1.427 . S
N537 C535 1.384 . S
H538 C544 0.930 . S
H539 C548 0.930 . S
H540 C553 0.929 . S
H541 C551 0.929 . S
H542 C546 0.929 . S
H543 C552 0.929 . S
C544 H538 0.930 . S
C544 C545 1.367 . S
C544 C552 1.378 . S
C545 C544 1.367 . S
C545 C553 1.433 . S
C546 H542 0.929 . S
C546 C548 1.378 . S
C546 C550 1.350 . S
C547 C550 1.463 1_655 S
C547 C552 1.350 . S
C547 N555 1.427 . S
C548 H539 0.930 . S
C548 C546 1.378 . S
C548 C549 1.367 . S
C549 C548 1.367 . S
C549 C551 1.433 . S
C550 C546 1.350 . S
C550 C547 1.463 1_455 S
C550 N554 1.427 . S
C551 H541 0.929 . S
C551 C549 1.433 . S
C551 N554 1.384 . S
C552 H543 0.929 . S
C552 C544 1.378 . S
C552 C547 1.350 . S
C553 H540 0.929 . S
C553 C545 1.433 . S
C553 N555 1.384 . S
N554 C550 1.427 . S
N554 C551 1.384 . S
N555 C547 1.427 . S
N555 C553 1.384 . S
H556 C562 0.930 . S
H557 C566 0.930 . S
H558 C571 0.929 . S
H559 C569 0.929 . S
H560 C564 0.929 . S
H561 C570 0.929 . S
C562 H556 0.930 . S
C562 C563 1.367 . S
C562 C570 1.378 . S
C563 C562 1.367 . S
C563 C571 1.433 . S
C564 H560 0.929 . S
C564 C566 1.378 . S
C564 C568 1.350 . S
C565 C568 1.463 . S
C565 C570 1.350 . S
C565 N573 1.427 . S
C566 H557 0.930 . S
C566 C564 1.378 . S
C566 C567 1.367 . S
C567 C566 1.367 . S
C567 C569 1.433 . S
C568 C564 1.350 . S
C568 C565 1.463 . S
C568 N572 1.427 . S
C569 H559 0.929 . S
C569 C567 1.433 . S
C569 N572 1.384 . S
C570 H561 0.929 . S
C570 C562 1.378 . S
C570 C565 1.350 . S
C571 H558 0.929 . S
C571 C563 1.433 . S
C571 N573 1.384 . S
N572 C568 1.427 . S
N572 C569 1.384 . S
N573 C565 1.427 . S
N573 C571 1.384 . S
H574 C580 0.930 1_556 S
H575 C584 0.930 . S
H576 C589 0.929 . S
H577 C587 0.929 1_556 S
H578 C582 0.929 . S
H579 C588 0.929 1_556 S
C580 H574 0.930 1_554 S
C580 C581 1.367 . S
C580 C588 1.378 . S
C581 C580 1.367 . S
C581 C589 1.433 . S
C582 H578 0.929 . S
C582 C584 1.378 . S
C582 C586 1.350 . S
C583 C586 1.463 . S
C583 C588 1.350 . S
C583 N591 1.427 . S
C584 H575 0.930 . S
C584 C582 1.378 . S
C584 C585 1.367 . S
C585 C584 1.367 . S
C585 C587 1.433 . S
C586 C582 1.350 . S
C586 C583 1.463 . S
C586 N590 1.427 . S
C587 H577 0.929 1_554 S
C587 C585 1.433 . S
C587 N590 1.384 . S
C588 H579 0.929 1_554 S
C588 C580 1.378 . S
C588 C583 1.350 . S
C589 H576 0.929 . S
C589 C581 1.433 . S
C589 N591 1.384 . S
N590 C586 1.427 . S
N590 C587 1.384 . S
N591 C583 1.427 . S
N591 C589 1.384 . S
C167 C9 1.690 . S
C171 C149 1.685 . S
C185 C129 1.662 . S
C189 C32 1.662 . S
C203 C112 1.656 . S
C207 C49 1.656 . S
C221 C89 1.679 . S
C225 C69 1.673 . S
C239 C58 1.479 . S
C243 C18 1.474 . S
C257 C38 1.182 . S
C261 C78 1.182 . S
C275 C79 1.792 . S
C279 C39 1.790 . S
C293 C59 1.512 . S
C297 C19 1.503 . S
C311 C98 1.472 1_554 S
C315 C138 1.481 1_556 S
C329 C118 1.190 . S
C333 C158 1.170 1_556 S
C347 C159 1.799 . S
C351 C119 1.784 1_554 S
C365 C139 1.511 . S
C369 C99 1.506 . S
C383 C4 1.470 . S
C387 C2 1.470 . S
C401 C22 1.458 . S
C405 C24 1.458 . S
C419 C42 1.459 . S
C423 C44 1.459 . S
C437 C64 1.464 . S
C441 C62 1.464 . S
C455 C82 1.460 . S
C459 C84 1.460 . S
C473 C102 1.465 . S
C477 C104 1.465 . S
C491 C124 1.455 . S
C495 C122 1.455 . S
C509 C144 1.460 . S
C513 C142 1.460 . S
C527 C12 1.957 . S
C531 C29 1.950 . S
C545 C72 1.930 . S
C549 C52 1.931 . S
C563 C92 1.957 . S
C567 C109 1.950 . S
C581 C152 1.932 . S
C585 C132 1.931 . S
