# Generated by pormake.
# Topology lcy-e, (6)-cn, num edge types: 1
# Building blocks:
#     Node 0, Type 0, BuildingBlock: FUNLAD_clean_sbu_0, # of connection points: 6
#     Node 1, Type 0, BuildingBlock: FUNLAD_clean_sbu_0, # of connection points: 6
#     Node 2, Type 0, BuildingBlock: FUNLAD_clean_sbu_0, # of connection points: 6
#     Node 3, Type 0, BuildingBlock: FUNLAD_clean_sbu_0, # of connection points: 6
#     Node 4, Type 0, BuildingBlock: FUNLAD_clean_sbu_0, # of connection points: 6
#     Node 5, Type 0, BuildingBlock: FUNLAD_clean_sbu_0, # of connection points: 6
#     Node 6, Type 0, BuildingBlock: FUNLAD_clean_sbu_0, # of connection points: 6
#     Node 7, Type 0, BuildingBlock: FUNLAD_clean_sbu_0, # of connection points: 6
#     Node 8, Type 0, BuildingBlock: FUNLAD_clean_sbu_0, # of connection points: 6
#     Node 9, Type 0, BuildingBlock: FUNLAD_clean_sbu_0, # of connection points: 6
#     Node 10, Type 0, BuildingBlock: FUNLAD_clean_sbu_0, # of connection points: 6
#     Node 11, Type 0, BuildingBlock: FUNLAD_clean_sbu_0, # of connection points: 6
#     Edge 12, Type (0, 0), BuildingBlock: OJICUG_clean_linker_0, # of connection points: 2
#     Edge 13, Type (0, 0), BuildingBlock: OJICUG_clean_linker_0, # of connection points: 2
#     Edge 14, Type (0, 0), BuildingBlock: OJICUG_clean_linker_0, # of connection points: 2
#     Edge 15, Type (0, 0), BuildingBlock: OJICUG_clean_linker_0, # of connection points: 2
#     Edge 16, Type (0, 0), BuildingBlock: OJICUG_clean_linker_0, # of connection points: 2
#     Edge 17, Type (0, 0), BuildingBlock: OJICUG_clean_linker_0, # of connection points: 2
#     Edge 18, Type (0, 0), BuildingBlock: OJICUG_clean_linker_0, # of connection points: 2
#     Edge 19, Type (0, 0), BuildingBlock: OJICUG_clean_linker_0, # of connection points: 2
#     Edge 20, Type (0, 0), BuildingBlock: OJICUG_clean_linker_0, # of connection points: 2
#     Edge 21, Type (0, 0), BuildingBlock: OJICUG_clean_linker_0, # of connection points: 2
#     Edge 22, Type (0, 0), BuildingBlock: OJICUG_clean_linker_0, # of connection points: 2
#     Edge 23, Type (0, 0), BuildingBlock: OJICUG_clean_linker_0, # of connection points: 2
#     Edge 24, Type (0, 0), BuildingBlock: OJICUG_clean_linker_0, # of connection points: 2
#     Edge 25, Type (0, 0), BuildingBlock: OJICUG_clean_linker_0, # of connection points: 2
#     Edge 26, Type (0, 0), BuildingBlock: OJICUG_clean_linker_0, # of connection points: 2
#     Edge 27, Type (0, 0), BuildingBlock: OJICUG_clean_linker_0, # of connection points: 2
#     Edge 28, Type (0, 0), BuildingBlock: OJICUG_clean_linker_0, # of connection points: 2
#     Edge 29, Type (0, 0), BuildingBlock: OJICUG_clean_linker_0, # of connection points: 2
#     Edge 30, Type (0, 0), BuildingBlock: OJICUG_clean_linker_0, # of connection points: 2
#     Edge 31, Type (0, 0), BuildingBlock: OJICUG_clean_linker_0, # of connection points: 2
#     Edge 32, Type (0, 0), BuildingBlock: OJICUG_clean_linker_0, # of connection points: 2
#     Edge 33, Type (0, 0), BuildingBlock: OJICUG_clean_linker_0, # of connection points: 2
#     Edge 34, Type (0, 0), BuildingBlock: OJICUG_clean_linker_0, # of connection points: 2
#     Edge 35, Type (0, 0), BuildingBlock: OJICUG_clean_linker_0, # of connection points: 2
#     Edge 36, Type (0, 0), BuildingBlock: OJICUG_clean_linker_0, # of connection points: 2
#     Edge 37, Type (0, 0), BuildingBlock: OJICUG_clean_linker_0, # of connection points: 2
#     Edge 38, Type (0, 0), BuildingBlock: OJICUG_clean_linker_0, # of connection points: 2
#     Edge 39, Type (0, 0), BuildingBlock: OJICUG_clean_linker_0, # of connection points: 2
#     Edge 40, Type (0, 0), BuildingBlock: OJICUG_clean_linker_0, # of connection points: 2
#     Edge 41, Type (0, 0), BuildingBlock: OJICUG_clean_linker_0, # of connection points: 2
#     Edge 42, Type (0, 0), BuildingBlock: OJICUG_clean_linker_0, # of connection points: 2
#     Edge 43, Type (0, 0), BuildingBlock: OJICUG_clean_linker_0, # of connection points: 2
#     Edge 44, Type (0, 0), BuildingBlock: OJICUG_clean_linker_0, # of connection points: 2
#     Edge 45, Type (0, 0), BuildingBlock: OJICUG_clean_linker_0, # of connection points: 2
#     Edge 46, Type (0, 0), BuildingBlock: OJICUG_clean_linker_0, # of connection points: 2
#     Edge 47, Type (0, 0), BuildingBlock: OJICUG_clean_linker_0, # of connection points: 2
# Relax obj value: 0.689
# Max RMSD: 0.379
# Mean RMSD: 0.292
data_MOF--net-lcy-e--node1-FUNLAD_clean_sbu_0--edge1-OJICUG_clean_linker_0
_symmetry_space_group_name_H-M    P1
_symmetry_Int_Tables_number       1
_symmetry_cell_setting            triclinic
loop_
_symmetry_equiv_pos_as_xyz
'x, y, z'
_cell_length_a     31.354035
_cell_length_b     28.646085
_cell_length_c     27.756677
_cell_angle_alpha  92.800779
_cell_angle_beta   86.6134
_cell_angle_gamma 97.316143
loop_
_atom_site_label
_atom_site_type_symbol
_atom_site_fract_x
_atom_site_fract_y
_atom_site_fract_z
_atom_type_partial_charge
C0 C 0.13279 0.18802 0.5601 0.0
N1 N 0.06008 0.19733 0.43649 0.0
C2 C 0.0611 0.1518 0.42085 0.0
C3 C 0.02894 0.12954 0.392 0.0
C4 C 0.99552 0.15441 0.37974 0.0
C5 C 0.99468 0.20079 0.39723 0.0
C6 C 0.02776 0.22188 0.42522 0.0
Zn7 Zn 0.10903 0.23485 0.47147 0.0
C8 C 0.07615 0.29697 0.54963 0.0
N9 N 0.21039 0.32391 0.53775 0.0
C10 C 0.25209 0.31681 0.54232 0.0
C11 C 0.19858 0.36814 0.54246 0.0
C12 C 0.2285 0.40701 0.55146 0.0
C13 C 0.27189 0.40141 0.55467 0.0
C14 C 0.28359 0.35538 0.55109 0.0
Zn15 Zn 0.16318 0.27589 0.50863 0.0
O16 O 0.10662 0.18517 0.52629 0.0
C17 C 0.19625 0.20679 0.44038 0.0
O18 O 0.16195 0.22349 0.56324 0.0
H19 H 0.16616 0.37432 0.53638 0.0
H20 H 0.08721 0.13312 0.42995 0.0
H21 H 0.26134 0.28174 0.53703 0.0
O22 O 0.15649 0.19782 0.43164 0.0
O23 O 0.20855 0.24114 0.46899 0.0
H24 H 0.02809 0.25846 0.43684 0.0
O25 O 0.16458 0.32598 0.45147 0.0
O26 O 0.11229 0.28455 0.41471 0.0
O27 O 0.11639 0.30749 0.55235 0.0
O28 O 0.06225 0.2688 0.51578 0.0
C29 C 0.14063 0.32026 0.41573 0.0
H30 H 0.02998 0.09322 0.3796 0.0
H31 H 0.96929 0.22078 0.38844 0.0
H32 H 0.21746 0.44138 0.55536 0.0
H33 H 0.31678 0.34937 0.55356 0.0
C34 C 0.09179 0.97626 0.81217 0.0
N35 N 0.15488 0.89645 0.70531 0.0
C36 C 0.19564 0.91473 0.7163 0.0
C37 C 0.22893 0.88575 0.71317 0.0
C38 C 0.21966 0.83777 0.69919 0.0
C39 C 0.17789 0.8208 0.68641 0.0
C40 C 0.1461 0.85051 0.68994 0.0
Zn41 Zn 0.09917 0.92846 0.71618 0.0
C42 C 0.03229 0.85995 0.77122 0.0
N43 N 0.97704 0.97796 0.74015 0.0
C44 C 0.96289 1.0004 0.70314 0.0
C45 C 0.94936 0.9606 0.77648 0.0
C46 C 0.9051 0.96075 0.77361 0.0
C47 C 0.88955 0.98007 0.73368 0.0
C48 C 0.91891 1.00222 0.69942 0.0
Zn49 Zn 0.0363 0.95485 0.73146 0.0
O50 O 0.11815 0.96061 0.78072 0.0
C51 C 0.10077 0.02596 0.68107 0.0
O52 O 0.05266 0.9768 0.80263 0.0
H53 H 0.96117 0.94312 0.80572 0.0
H54 H 0.20202 0.95108 0.72915 0.0
H55 H 0.98524 0.01339 0.67426 0.0
O56 O 0.12455 0.99259 0.67828 0.0
O57 O 0.06444 0.01987 0.70446 0.0
H58 H 0.11365 0.8358 0.68229 0.0
O59 O 0.02199 0.93369 0.66013 0.0
O60 O 0.07957 0.89792 0.64893 0.0
O61 O 0.00824 0.88915 0.75878 0.0
O62 O 0.07209 0.86668 0.75809 0.0
C63 C 0.04632 0.91079 0.63265 0.0
H64 H 0.26087 0.90004 0.7236 0.0
H65 H 0.16945 0.78419 0.67514 0.0
H66 H 0.88314 0.94393 0.801 0.0
H67 H 0.90782 0.01752 0.66823 0.0
C68 C 0.36302 0.78739 0.95266 0.0
N69 N 0.25086 0.85628 0.96492 0.0
C70 C 0.25642 0.8742 0.92029 0.0
C71 C 0.22498 0.8985 0.90346 0.0
C72 C 0.18781 0.90416 0.93297 0.0
C73 C 0.1809 0.88093 0.97642 0.0
C74 C 0.2132 0.85698 0.99188 0.0
Zn75 Zn 0.30246 0.84732 1.00163 0.0
C76 C 0.28621 0.76067 0.06115 0.0
N77 N 0.40555 0.83678 0.08914 0.0
C78 C 0.44675 0.84295 0.07043 0.0
C79 C 0.39643 0.83908 0.1376 0.0
C80 C 0.42901 0.85196 0.16915 0.0
C81 C 0.47216 0.85896 0.1513 0.0
C82 C 0.48071 0.85304 0.101 0.0
Zn83 Zn 0.35602 0.8392 0.04652 0.0
O84 O 0.32692 0.80213 0.94771 0.0
C85 C 0.37737 0.91659 0.97877 0.0
O86 O 0.38236 0.79653 0.99161 0.0
H87 H 0.36345 0.83355 0.15191 0.0
H88 H 0.28662 0.87315 0.89956 0.0
H89 H 0.45322 0.84153 0.03171 0.0
O90 O 0.33972 0.90333 0.96522 0.0
O91 O 0.39059 0.89821 0.01478 0.0
H92 H 0.20984 0.84306 0.0276 0.0
O93 O 0.33084 0.88366 0.1005 0.0
O94 O 0.28051 0.89857 0.0551 0.0
O95 O 0.32292 0.7778 0.07548 0.0
O96 O 0.26669 0.78516 0.03453 0.0
C97 C 0.30034 0.90685 0.09364 0.0
H98 H 0.23056 0.91455 0.86874 0.0
H99 H 0.15231 0.884 0.99966 0.0
H100 H 0.41981 0.8568 0.20701 0.0
H101 H 0.51312 0.856 0.08487 0.0
C102 C 0.32953 0.11336 0.35192 0.0
N103 N 0.37328 0.20705 0.24368 0.0
C104 C 0.33049 0.20544 0.23659 0.0
C105 C 0.31495 0.24105 0.21268 0.0
C106 C 0.34358 0.27873 0.19458 0.0
C107 C 0.38772 0.27951 0.20239 0.0
C108 C 0.40187 0.24339 0.22729 0.0
Zn109 Zn 0.39296 0.14812 0.27191 0.0
C110 C 0.45236 0.16378 0.35528 0.0
N111 N 0.42537 0.02017 0.32243 0.0
C112 C 0.43276 0.98955 0.28459 0.0
C113 C 0.44859 0.02202 0.36253 0.0
C114 C 0.48611 1.0003 0.36122 0.0
C115 C 0.49861 0.97562 0.31875 0.0
C116 C 0.46957 0.96691 0.28196 0.0
Zn117 Zn 0.40418 0.08104 0.3025 0.0
O118 O 0.33967 0.14262 0.31922 0.0
C119 C 0.3457 0.05936 0.22374 0.0
O120 O 0.35329 0.08135 0.35814 0.0
H121 H 0.44191 0.04578 0.39272 0.0
H122 H 0.30816 0.17591 0.24871 0.0
H123 H 0.41445 0.98819 0.25272 0.0
O124 O 0.35517 0.10337 0.21693 0.0
O125 O 0.36114 0.04223 0.25891 0.0
H126 H 0.43585 0.24385 0.23242 0.0
O127 O 0.45482 0.08303 0.24519 0.0
O128 O 0.44618 0.15366 0.22434 0.0
O129 O 0.44676 0.11963 0.34782 0.0
O130 O 0.43224 0.18916 0.32968 0.0
C131 C 0.46653 0.11825 0.21918 0.0
H132 H 0.28059 0.23903 0.20892 0.0
H133 H 0.41135 0.3073 0.18881 0.0
H134 H 0.5073 0.00736 0.39085 0.0
H135 H 0.47739 0.94693 0.24921 0.0
C136 C 0.66177 0.30492 0.48625 0.0
N137 N 0.58207 0.34093 0.6075 0.0
C138 C 0.59692 0.38725 0.60276 0.0
C139 C 0.57418 0.42204 0.62533 0.0
C140 C 0.53643 0.40916 0.65447 0.0
C141 C 0.52203 0.36084 0.65807 0.0
C142 C 0.54473 0.32751 0.63343 0.0
Zn143 Zn 0.61671 0.28803 0.58185 0.0
C144 C 0.56555 0.21976 0.5145 0.0
N145 N 0.68739 0.17396 0.53306 0.0
C146 C 0.72883 0.18075 0.51471 0.0
C147 C 0.66708 0.12974 0.54013 0.0
C148 C 0.6884 0.09033 0.5289 0.0
C149 C 0.73099 0.09596 0.5091 0.0
C150 C 0.7512 0.14215 0.50218 0.0
Zn151 Zn 0.65435 0.23004 0.55467 0.0
O152 O 0.63636 0.32164 0.51808 0.0
C153 C 0.7081 0.30396 0.61347 0.0
O154 O 0.67707 0.26685 0.49262 0.0
H155 H 0.6342 0.12487 0.55487 0.0
H156 H 0.62668 0.39725 0.58197 0.0
H157 H 0.74458 0.21615 0.50965 0.0
O158 O 0.67321 0.32261 0.61559 0.0
O159 O 0.70883 0.26361 0.59211 0.0
H160 H 0.53292 0.29058 0.63627 0.0
O161 O 0.63063 0.19346 0.61768 0.0
O162 O 0.59785 0.25253 0.64691 0.0
O163 O 0.59986 0.2001 0.51472 0.0
O164 O 0.56142 0.25502 0.54351 0.0
C165 C 0.60858 0.21196 0.65152 0.0
H166 H 0.58631 0.45853 0.61973 0.0
H167 H 0.49392 0.34825 0.68041 0.0
H168 H 0.67146 0.05577 0.53578 0.0
H169 H 0.78364 0.14857 0.48624 0.0
C170 C 0.85701 0.39036 0.71196 0.0
N171 N 0.87708 0.30319 0.81967 0.0
C172 C 0.83334 0.2982 0.82436 0.0
C173 C 0.81011 0.25356 0.827 0.0
C174 C 0.83213 0.21388 0.8257 0.0
C175 C 0.87721 0.21997 0.8244 0.0
C176 C 0.8993 0.2654 0.82088 0.0
Zn177 Zn 0.90732 0.36588 0.79648 0.0
C178 C 0.97163 0.35458 0.71515 0.0
N179 N 0.96259 0.49658 0.74289 0.0
C180 C 0.97026 0.52955 0.77944 0.0
C181 C 0.99029 0.49573 0.70335 0.0
C182 C 0.03165 0.52021 0.70514 0.0
C183 C 0.04334 0.54726 0.74714 0.0
C184 C 0.01066 0.55584 0.782 0.0
Zn185 Zn 0.93037 0.43335 0.76432 0.0
O186 O 0.85887 0.36433 0.74712 0.0
C187 C 0.86862 0.45063 0.84239 0.0
O188 O 0.88591 0.42558 0.70579 0.0
H189 H 0.98322 0.4704 0.67384 0.0
H190 H 0.81636 0.32866 0.82308 0.0
H191 H 0.94804 0.53044 0.81063 0.0
O192 O 0.87184 0.40775 0.85102 0.0
O193 O 0.88723 0.46806 0.80472 0.0
H194 H 0.93406 0.27021 0.8165 0.0
O195 O 0.97368 0.43867 0.82574 0.0
O196 O 0.95528 0.36591 0.84648 0.0
O197 O 0.97391 0.39869 0.72174 0.0
O198 O 0.94434 0.32843 0.74097 0.0
C199 C 0.97815 0.40525 0.85321 0.0
H200 H 0.77522 0.2499 0.82883 0.0
H201 H 0.895 0.1899 0.82383 0.0
H202 H 0.05526 0.51301 0.67662 0.0
H203 H 0.01754 0.57821 0.81389 0.0
C204 C 0.87572 0.62253 0.95098 0.0
N205 N 0.97131 0.6695 0.05322 0.0
C206 C 0.96595 0.62719 0.07447 0.0
C207 C 0.99649 0.61579 0.10553 0.0
C208 C 0.03273 0.64853 0.11597 0.0
C209 C 0.03793 0.69126 0.09208 0.0
C210 C 0.00709 0.70082 0.06062 0.0
Zn211 Zn 0.92118 0.69343 0.01922 0.0
C212 C 0.94913 0.74579 0.92627 0.0
N213 N 0.81827 0.75325 0.95895 0.0
C214 C 0.77618 0.73402 0.96183 0.0
C215 C 0.82934 0.79926 0.94826 0.0
C216 C 0.79782 0.82853 0.94316 0.0
C217 C 0.75423 0.81047 0.9486 0.0
C218 C 0.74341 0.76215 0.95631 0.0
Zn219 Zn 0.86698 0.72157 0.98561 0.0
O220 O 0.90755 0.63018 0.97804 0.0
C221 C 0.83389 0.67018 0.07254 0.0
O222 O 0.85315 0.65575 0.94457 0.0
H223 H 0.86276 0.81436 0.94674 0.0
H224 H 0.93725 0.6028 0.06864 0.0
H225 H 0.76788 0.69761 0.97106 0.0
O226 O 0.87318 0.66328 0.07571 0.0
O227 O 0.82465 0.69476 0.03898 0.0
H228 H 0.01083 0.73451 0.04389 0.0
O229 O 0.88118 0.78467 0.03002 0.0
O230 O 0.93294 0.75491 0.06203 0.0
O231 O 0.90901 0.74815 0.93011 0.0
O232 O 0.96598 0.72514 0.95912 0.0
C233 C 0.91044 0.78824 0.06019 0.0
H234 H 0.99133 0.58166 0.12144 0.0
H235 H 0.06478 0.71803 0.09868 0.0
H236 H 0.80752 0.86533 0.93609 0.0
H237 H 0.71004 0.74687 0.96031 0.0
C238 C 0.61018 0.64755 0.38718 0.0
N239 N 0.6632 0.53105 0.32458 0.0
C240 C 0.68324 0.52741 0.36605 0.0
C241 C 0.69145 0.48378 0.38006 0.0
C242 C 0.67825 0.44338 0.35155 0.0
C243 C 0.65809 0.44797 0.30854 0.0
C244 C 0.65114 0.49269 0.29539 0.0
Zn245 Zn 0.65405 0.59602 0.30686 0.0
C246 C 0.56564 0.59994 0.26757 0.0
N247 N 0.63511 0.7329 0.27012 0.0
C248 C 0.62956 0.76628 0.3058 0.0
C249 C 0.63186 0.74191 0.22293 0.0
C250 C 0.61967 0.78442 0.21046 0.0
C251 C 0.6084 0.81684 0.24703 0.0
C252 C 0.61463 0.80809 0.29512 0.0
Zn253 Zn 0.64229 0.66639 0.28736 0.0
O254 O 0.62688 0.6097 0.37811 0.0
C255 C 0.72579 0.66622 0.33037 0.0
O256 O 0.61045 0.67645 0.35411 0.0
H257 H 0.63559 0.71505 0.1949 0.0
H258 H 0.69223 0.55836 0.38884 0.0
H259 H 0.63354 0.75934 0.34304 0.0
O260 O 0.71666 0.62189 0.32939 0.0
O261 O 0.69948 0.69187 0.31613 0.0
H262 H 0.63556 0.49678 0.26238 0.0
O263 O 0.67628 0.65602 0.22113 0.0
O264 O 0.68496 0.58376 0.23656 0.0
O265 O 0.58294 0.64152 0.25948 0.0
O266 O 0.58822 0.57142 0.28515 0.0
C267 C 0.69254 0.61858 0.2093 0.0
H268 H 0.70585 0.48144 0.41426 0.0
H269 H 0.64693 0.4173 0.28618 0.0
H270 H 0.61402 0.78912 0.17296 0.0
H271 H 0.60481 0.83153 0.32433 0.0
C272 C 0.1568 0.56718 0.20776 0.0
N273 N 0.13535 0.45635 0.10251 0.0
C274 C 0.11239 0.48966 0.08695 0.0
C275 C 0.08601 0.48025 0.04779 0.0
C276 C 0.0831 0.43622 0.02281 0.0
C277 C 0.10565 0.40163 0.04068 0.0
C278 C 0.1317 0.41247 0.0805 0.0
Zn279 Zn 0.18496 0.48218 0.14934 0.0
C280 C 0.23682 0.56668 0.10469 0.0
N281 N 0.29285 0.54681 0.23098 0.0
C282 C 0.30281 0.55216 0.2784 0.0
C283 C 0.32539 0.54998 0.19571 0.0
C284 C 0.36825 0.56003 0.20637 0.0
C285 C 0.37968 0.56582 0.25417 0.0
C286 C 0.34644 0.56162 0.2909 0.0
Zn287 Zn 0.23362 0.52091 0.19946 0.0
O288 O 0.14704 0.5307 0.18097 0.0
C289 C 0.18099 0.44235 0.25119 0.0
O290 O 0.19445 0.57541 0.22445 0.0
H291 H 0.31911 0.5419 0.15831 0.0
H292 H 0.11617 0.52496 0.10289 0.0
H293 H 0.27738 0.54756 0.30648 0.0
O294 O 0.16406 0.43444 0.2099 0.0
O295 O 0.21034 0.47717 0.25661 0.0
H296 H 0.15066 0.38646 0.09202 0.0
O297 O 0.2686 0.46681 0.17249 0.0
O298 O 0.2254 0.43117 0.11964 0.0
O299 O 0.25376 0.56486 0.14433 0.0
O300 O 0.20658 0.53466 0.09352 0.0
C301 C 0.26026 0.43365 0.1414 0.0
H302 H 0.06879 0.50797 0.03658 0.0
H303 H 0.10488 0.36714 0.02276 0.0
H304 H 0.39266 0.56163 0.17695 0.0
H305 H 0.35406 0.56546 0.32854 0.0
C306 C 0.53365 0.98651 0.87926 0.0
N307 N 0.61262 0.081 0.95968 0.0
C308 C 0.57839 0.10597 0.96421 0.0
C309 C 0.56222 0.11978 1.00976 0.0
C310 C 0.58108 0.10725 0.0511 0.0
C311 C 0.61829 0.08461 0.04541 0.0
C312 C 0.63389 0.07209 0.99897 0.0
Zn313 Zn 0.62137 0.0442 0.89565 0.0
C314 C 0.64553 0.9485 0.90932 0.0
N315 N 0.62538 0.96248 0.763 0.0
C316 C 0.64117 0.99147 0.72686 0.0
C317 C 0.64157 0.92104 0.76697 0.0
C318 C 0.68282 0.91603 0.74716 0.0
C319 C 0.70513 0.95222 0.71945 0.0
C320 C 0.68162 0.98709 0.70459 0.0
Zn321 Zn 0.61518 0.99875 0.82866 0.0
O322 O 0.55709 0.0176 0.90298 0.0
C323 C 0.59314 0.09233 0.81049 0.0
O324 O 0.55002 0.96618 0.84192 0.0
H325 H 0.62671 0.89594 0.79267 0.0
H326 H 0.56128 0.11177 0.9328 0.0
H327 H 0.62674 0.02279 0.72086 0.0
O328 O 0.60561 0.10238 0.85317 0.0
O329 O 0.59167 0.05032 0.79403 0.0
H330 H 0.66112 0.05231 0.99468 0.0
O331 O 0.68098 0.0353 0.81746 0.0
O332 O 0.68445 0.07062 0.88942 0.0
O333 O 0.63834 0.94606 0.86496 0.0
O334 O 0.6394 0.98585 0.93406 0.0
C335 C 0.70219 0.06161 0.84853 0.0
H336 H 0.53314 0.13672 0.01261 0.0
H337 H 0.63388 0.07474 0.07653 0.0
H338 H 0.69843 0.88714 0.75847 0.0
H339 H 0.69611 0.01396 0.68048 0.0
C340 C 0.88151 0.01395 0.30928 0.0
N341 N 0.93599 0.91005 0.37646 0.0
C342 C 0.9765 0.93203 0.36645 0.0
C343 C 0.009 0.92969 0.39873 0.0
C344 C 0.99957 0.90286 0.43997 0.0
C345 C 0.95845 0.87879 0.44765 0.0
C346 C 0.92689 0.88424 0.41658 0.0
Zn347 Zn 0.88185 0.91813 0.3411 0.0
C348 C 0.81575 0.95036 0.4104 0.0
N349 N 0.76322 0.93023 0.28191 0.0
C350 C 0.75164 0.96676 0.25807 0.0
C351 C 0.73282 0.89936 0.30454 0.0
C352 C 0.68995 0.9059 0.30667 0.0
C353 C 0.67695 0.94445 0.28525 0.0
C354 C 0.70813 0.97433 0.25889 0.0
Zn355 Zn 0.82362 0.92605 0.30504 0.0
O356 O 0.90542 0.98508 0.32282 0.0
C357 C 0.8868 0.89849 0.2332 0.0
O358 O 0.8419 1.00064 0.30254 0.0
H359 H 0.74159 0.87213 0.32599 0.0
H360 H 0.98294 0.95356 0.33527 0.0
H361 H 0.77617 0.99188 0.24152 0.0
O362 O 0.90609 0.89214 0.27139 0.0
O363 O 0.8516 0.91645 0.23688 0.0
H364 H 0.89436 0.87022 0.42719 0.0
O365 O 0.8093 0.85131 0.30624 0.0
O366 O 0.85803 0.84921 0.35847 0.0
O367 O 0.79474 0.93642 0.37391 0.0
O368 O 0.85592 0.94775 0.40825 0.0
C369 C 0.82836 0.82829 0.33417 0.0
H370 H 0.04024 0.95013 0.39289 0.0
H371 H 0.94949 0.85976 0.4803 0.0
H372 H 0.66773 0.88232 0.32794 0.0
H373 H 0.69954 1.00486 0.24201 0.0
C374 C 0.43687 0.55561 0.72624 0.0
N375 N 0.45886 0.67545 0.64443 0.0
C376 C 0.50063 0.67147 0.65251 0.0
C377 C 0.53191 0.67575 0.61446 0.0
C378 C 0.51993 0.68509 0.56832 0.0
C379 C 0.47761 0.69392 0.56243 0.0
C380 C 0.44735 0.68847 0.60104 0.0
Zn381 Zn 0.41029 0.64515 0.68878 0.0
C382 C 0.3562 0.56954 0.6353 0.0
N383 N 0.31058 0.57468 0.77761 0.0
C384 C 0.29002 0.53279 0.76104 0.0
C385 C 0.28939 0.60494 0.80664 0.0
C386 C 0.24461 0.59754 0.81266 0.0
C387 C 0.22222 0.55873 0.78866 0.0
C388 C 0.2452 0.5244 0.76547 0.0
Zn389 Zn 0.36206 0.60474 0.73653 0.0
O390 O 0.44971 0.59366 0.7052 0.0
C391 C 0.41484 0.67735 0.79172 0.0
O392 O 0.39856 0.54888 0.74464 0.0
H393 H 0.3062 0.63824 0.81913 0.0
H394 H 0.50909 0.66102 0.68726 0.0
H395 H 0.30749 0.50901 0.73847 0.0
O396 O 0.43007 0.68912 0.74983 0.0
O397 O 0.3881 0.64056 0.79639 0.0
H398 H 0.4139 0.69022 0.59486 0.0
O399 O 0.32558 0.6613 0.72696 0.0
O400 O 0.37025 0.6969 0.67316 0.0
O401 O 0.33668 0.56823 0.6764 0.0
O402 O 0.38936 0.59925 0.62837 0.0
C403 C 0.33528 0.69513 0.69885 0.0
H404 H 0.56442 0.66912 0.62033 0.0
H405 H 0.46699 0.70065 0.52727 0.0
H406 H 0.22761 0.62459 0.83084 0.0
H407 H 0.22859 0.49381 0.74699 0.0
C408 C 0.33424 0.44284 0.59867 0.0
C409 C 0.30327 0.44385 0.56443 0.0
H410 H 0.37645 0.48346 0.64692 0.0
C411 C 0.29805 0.48753 0.54536 0.0
H412 H 0.33915 0.41012 0.61421 0.0
C413 C 0.31906 0.52968 0.56481 0.0
C414 C 0.34647 0.52848 0.60249 0.0
H415 H 0.27532 0.48941 0.51783 0.0
H416 H 0.31128 0.56299 0.55314 0.0
C417 C 0.35564 0.48486 0.61744 0.0
C418 C 0.77679 0.92026 0.71563 0.0
C419 C 0.75322 0.95888 0.71505 0.0
H420 H 0.83837 0.89703 0.72297 0.0
C421 C 0.77593 1.00476 0.71741 0.0
H422 H 0.76093 0.88448 0.71291 0.0
C423 C 0.82041 0.01174 0.72218 0.0
C424 C 0.84307 0.97312 0.7256 0.0
H425 H 0.7593 0.03563 0.71808 0.0
H426 H 0.83681 0.04734 0.72519 0.0
C427 C 0.82115 0.92736 0.72139 0.0
C428 C 0.30309 0.68002 0.07572 0.0
C429 C 0.27187 0.70937 0.06709 0.0
H430 H 0.31667 0.6112 0.09061 0.0
C431 C 0.2293 0.6882 0.0608 0.0
H432 H 0.33651 0.69437 0.07911 0.0
C433 C 0.21787 0.6394 0.0671 0.0
C434 C 0.24902 0.61103 0.07891 0.0
H435 H 0.20462 0.70954 0.053 0.0
H436 H 0.18431 0.62471 0.06633 0.0
C437 C 0.29194 0.63182 0.08109 0.0
C438 C 0.5664 0.95058 0.34668 0.0
C439 C 0.54377 0.96594 0.30971 0.0
H440 H 0.62631 0.93375 0.36868 0.0
C441 C 0.5657 0.97603 0.26488 0.0
H442 H 0.55061 0.94295 0.38168 0.0
C443 C 0.60921 0.97036 0.25708 0.0
C444 C 0.6316 0.95404 0.2938 0.0
H445 H 0.54942 0.98904 0.23592 0.0
H446 H 0.62493 0.97759 0.22197 0.0
C447 C 0.6098 0.94499 0.33894 0.0
C448 C 0.79794 0.05487 0.49369 0.0
C449 C 0.75291 0.054 0.49268 0.0
H450 H 0.85354 0.02169 0.46949 0.0
C451 C 0.729 0.01363 0.47242 0.0
H452 H 0.81742 0.08477 0.50994 0.0
C453 C 0.74961 0.97704 0.45058 0.0
C454 C 0.79478 0.97986 0.44776 0.0
H455 H 0.69444 0.01139 0.47033 0.0
H456 H 0.7302 0.94814 0.4325 0.0
C457 C 0.81868 0.01818 0.47141 0.0
C458 C 0.12202 0.56493 0.72209 0.0
C459 C 0.08944 0.55746 0.75889 0.0
H460 H 0.18964 0.57016 0.70303 0.0
C461 C 0.10149 0.55312 0.80659 0.0
H462 H 0.11425 0.56933 0.68523 0.0
C463 C 0.14473 0.55435 0.81674 0.0
C464 C 0.1766 0.55903 0.77933 0.0
H465 H 0.07758 0.54648 0.83596 0.0
H466 H 0.15315 0.55003 0.85343 0.0
C467 C 0.16513 0.56529 0.73218 0.0
C468 C 0.66022 0.86493 0.90594 0.0
C469 C 0.66613 0.9102 0.92858 0.0
H470 H 0.68324 0.79767 0.89493 0.0
C471 C 0.69751 0.92009 0.96286 0.0
H472 H 0.63622 0.85635 0.8793 0.0
C473 C 0.72487 0.88663 0.9712 0.0
C474 C 0.72085 0.84253 0.94595 0.0
H475 H 0.703 0.95473 0.98054 0.0
H476 H 0.75035 0.89593 0.99594 0.0
C477 C 0.6871 0.8313 0.91481 0.0
C478 C 0.49593 0.62009 0.23983 0.0
C479 C 0.51811 0.5887 0.26317 0.0
H480 H 0.43526 0.63819 0.22034 0.0
C481 C 0.4937 0.55091 0.28691 0.0
H482 H 0.51332 0.64992 0.22163 0.0
C483 C 0.44831 0.54468 0.28681 0.0
C484 C 0.42653 0.57606 0.26293 0.0
H485 H 0.5096 0.52656 0.30603 0.0
H486 H 0.43035 0.51464 0.3041 0.0
C487 C 0.45102 0.61381 0.23965 0.0
C488 C 0.47824 0.22348 0.42287 0.0
C489 C 0.48206 0.18196 0.39449 0.0
H490 H 0.50066 0.2676 0.48387 0.0
C491 C 0.51257 0.15308 0.40727 0.0
H492 H 0.45483 0.24627 0.41472 0.0
C493 C 0.53812 0.16472 0.44681 0.0
C494 C 0.53431 0.20574 0.47568 0.0
H495 H 0.51674 0.12074 0.38661 0.0
H496 H 0.56125 0.1414 0.45452 0.0
C497 C 0.50401 0.23517 0.46309 0.0
C498 C 0.06172 0.35171 0.61938 0.0
C499 C 0.04729 0.31234 0.58993 0.0
H500 H 0.04957 0.39494 0.68225 0.0
C501 C 0.00828 0.28484 0.60348 0.0
H502 H 0.09183 0.37328 0.61037 0.0
C503 C 0.98434 0.29664 0.64583 0.0
C504 C 0.99884 0.33643 0.67484 0.0
H505 H 0.99681 0.25368 0.58199 0.0
H506 H 0.95406 0.27553 0.65511 0.0
C507 C 0.03772 0.36375 0.66097 0.0
C508 C 0.9699 0.80783 0.80759 0.0
C509 C 0.01423 0.82313 0.80598 0.0
H510 H 0.91561 0.77115 0.84515 0.0
C511 C 0.03875 0.80855 0.84239 0.0
H512 H 0.94991 0.81827 0.78047 0.0
C513 C 0.01869 0.78147 0.88081 0.0
C514 C 0.97374 0.76837 0.88343 0.0
H515 H 0.07295 0.82035 0.84274 0.0
H516 H 0.03797 0.77278 0.90942 0.0
C517 C 0.95015 0.78083 0.84525 0.0
C518 C 0.53695 0.84266 0.25762 0.0
C519 C 0.57844 0.84963 0.23557 0.0
H520 H 0.47047 0.83758 0.24786 0.0
C521 C 0.58529 0.87426 0.19283 0.0
H522 H 0.53078 0.82433 0.29105 0.0
C523 C 0.55015 0.88385 0.16815 0.0
C524 C 0.50799 0.86682 0.18493 0.0
H525 H 0.61738 0.88134 0.17599 0.0
H526 H 0.5564 0.90041 0.13382 0.0
C527 C 0.50188 0.85019 0.23212 0.0
C528 C 0.12675 0.34296 0.3309 0.0
C529 C 0.1481 0.35281 0.37437 0.0
H530 H 0.12011 0.36283 0.25799 0.0
C531 C 0.17896 0.39288 0.37689 0.0
H532 H 0.10291 0.3123 0.32738 0.0
C533 C 0.18875 0.42168 0.33728 0.0
C534 C 0.1682 0.41155 0.29339 0.0
H535 H 0.1962 0.40179 0.40944 0.0
H536 H 0.21312 0.45183 0.34107 0.0
C537 C 0.13671 0.37188 0.29094 0.0
C538 C 0.03321 0.95059 0.55914 0.0
C539 C 0.04153 0.90945 0.58043 0.0
H540 H 0.01649 0.98132 0.49535 0.0
C541 C 0.04642 0.86892 0.55134 0.0
H542 H 0.03074 0.98276 0.58083 0.0
C543 C 0.03819 0.86813 0.50228 0.0
C544 C 0.02649 0.90837 0.48185 0.0
H545 H 0.0538 0.83721 0.56708 0.0
H546 H 0.03748 0.83519 0.48125 0.0
C547 C 0.02634 0.95023 0.51006 0.0
C548 C 0.41912 0.69694 0.8793 0.0
C549 C 0.41598 0.71183 0.83232 0.0
H550 H 0.40506 0.71012 0.95503 0.0
C551 C 0.39981 0.75438 0.82576 0.0
H552 H 0.43055 0.66359 0.88492 0.0
C553 C 0.38311 0.77933 0.86531 0.0
C554 C 0.38382 0.76293 0.91199 0.0
H555 H 0.39597 0.76581 0.78978 0.0
H556 H 0.36831 0.81057 0.85926 0.0
C557 C 0.40389 0.72296 0.91911 0.0
C558 C 0.52073 0.07637 0.16952 0.0
C559 C 0.50125 0.11734 0.18083 0.0
H560 H 0.56194 0.04128 0.11946 0.0
C561 C 0.51289 0.15693 0.15263 0.0
H562 H 0.51245 0.04536 0.1906 0.0
C563 C 0.5411 0.15461 0.11209 0.0
C564 C 0.55853 0.11279 0.09903 0.0
H565 H 0.49886 0.18928 0.16065 0.0
H566 H 0.54801 0.18498 0.08984 0.0
C567 C 0.54925 0.07415 0.12898 0.0
C568 C 0.57388 0.14097 0.69199 0.0
C569 C 0.59628 0.18624 0.69575 0.0
H570 H 0.55274 0.07692 0.72676 0.0
C571 C 0.61092 0.20405 0.74079 0.0
H572 H 0.56209 0.12677 0.65767 0.0
C573 C 0.60658 0.175 0.78063 0.0
C574 C 0.58693 0.12822 0.77574 0.0
H575 H 0.62844 0.23907 0.7442 0.0
H576 H 0.62133 0.18793 0.81382 0.0
C577 C 0.56853 0.1126 0.73174 0.0
C578 C 0.05578 0.46395 0.94586 0.0
C579 C 0.05776 0.42751 0.97793 0.0
H580 H 0.02961 0.48577 0.88197 0.0
C581 C 0.03478 0.38315 0.96686 0.0
H582 H 0.07364 0.4984 0.95213 0.0
C583 C 0.00995 0.37581 0.92596 0.0
C584 C 0.00724 0.41255 0.89465 0.0
H585 H 0.035 0.35422 0.99049 0.0
H586 H 0.99217 0.34134 0.91941 0.0
C587 C 0.03084 0.45663 0.90505 0.0
C588 C 0.93337 0.84966 0.18071 0.0
C589 C 0.9011 0.87953 0.18525 0.0
H590 H 0.96246 0.79789 0.13662 0.0
C591 C 0.87808 0.88593 0.14449 0.0
H592 H 0.95194 0.84433 0.21123 0.0
C593 C 0.88384 0.85914 0.10178 0.0
C594 C 0.91293 0.82564 0.09893 0.0
H595 H 0.85343 0.90934 0.14648 0.0
H596 H 0.86336 0.86238 0.07232 0.0
C597 C 0.93935 0.82305 0.13783 0.0
C598 C 0.569 0.63798 0.5178 0.0
C599 C 0.54882 0.67908 0.52507 0.0
H600 H 0.60395 0.59531 0.4681 0.0
C601 C 0.55149 0.71091 0.48792 0.0
H602 H 0.56687 0.61249 0.5457 0.0
C603 C 0.57226 0.70093 0.44357 0.0
C604 C 0.59068 0.65876 0.43536 0.0
H605 H 0.53632 0.74288 0.49269 0.0
H606 H 0.57288 0.72585 0.41534 0.0
C607 C 0.58973 0.62785 0.47324 0.0
C608 C 0.2665 0.17532 0.44493 0.0
C609 C 0.22778 0.17528 0.4216 0.0
H610 H 0.32906 0.15231 0.44209 0.0
C611 C 0.21985 0.14482 0.38113 0.0
H612 H 0.27315 0.19761 0.47696 0.0
C613 C 0.25184 0.11843 0.36168 0.0
C614 C 0.29169 0.12125 0.38308 0.0
H615 H 0.19011 0.14354 0.36285 0.0
H616 H 0.24685 0.09889 0.32762 0.0
C617 C 0.2981 0.14837 0.42592 0.0
C618 C 0.08565 0.13458 0.6142 0.0
C619 C 0.12728 0.15024 0.59564 0.0
H620 H 0.04515 0.08448 0.65593 0.0
C621 C 0.16149 0.12604 0.60719 0.0
H622 H 0.05862 0.15226 0.60567 0.0
C623 C 0.15363 0.08575 0.63538 0.0
C624 C 0.1116 0.06985 0.65346 0.0
H625 H 0.19386 0.13698 0.5927 0.0
H626 H 0.18021 0.06685 0.64255 0.0
C627 C 0.07801 0.09552 0.6431 0.0
C628 C 0.08655 0.94105 0.89014 0.0
C629 C 0.1047 0.97857 0.8618 0.0
H630 H 0.10005 0.88579 0.93392 0.0
C631 C 0.1464 1.0002 0.87007 0.0
H632 H 0.05431 0.92386 0.88424 0.0
C633 C 0.17271 0.9782 0.898 0.0
C634 C 0.15712 0.93491 0.91818 0.0
H635 H 0.1608 0.0294 0.84872 0.0
H636 H 0.20636 0.99236 0.89953 0.0
C637 C 0.11299 0.91866 0.91781 0.0
C638 C 0.32104 0.03239 0.14044 0.0
C639 C 0.32074 0.0256 0.19027 0.0
H640 H 0.31304 0.99898 0.06984 0.0
C641 C 0.30319 0.98134 0.20752 0.0
H642 H 0.33459 0.06583 0.12598 0.0
C643 C 0.2914 0.9433 0.17565 0.0
C644 C 0.29566 0.94877 0.12573 0.0
H645 H 0.30199 0.97491 0.24575 0.0
H646 H 0.28232 0.90869 0.18994 0.0
C647 C 0.30846 0.99414 0.10835 0.0
C648 C 0.7856 0.3974 0.67816 0.0
C649 C 0.82294 0.375 0.67781 0.0
H650 H 0.71981 0.39252 0.65848 0.0
C651 C 0.82281 0.3304 0.65431 0.0
H652 H 0.78432 0.43103 0.69745 0.0
C653 C 0.78598 0.30801 0.63268 0.0
C654 C 0.74787 0.32932 0.63453 0.0
H655 H 0.85077 0.31175 0.65472 0.0
H656 H 0.78705 0.27323 0.61584 0.0
C657 C 0.74845 0.37485 0.65659 0.0
C658 C 0.83441 0.52256 0.86424 0.0
C659 C 0.8551 0.48532 0.87931 0.0
H660 H 0.82479 0.59533 0.87473 0.0
C661 C 0.87706 0.49173 0.92215 0.0
H662 H 0.81805 0.51886 0.83068 0.0
C663 C 0.88223 0.53597 0.94638 0.0
C664 C 0.86499 0.57452 0.92867 0.0
H665 H 0.89431 0.46423 0.93393 0.0
H666 H 0.90165 0.54053 0.97767 0.0
C667 C 0.83902 0.56666 0.88887 0.0
C668 C 0.75562 0.66024 0.09753 0.0
C669 C 0.79755 0.65044 0.10574 0.0
H670 H 0.68967 0.65674 0.12311 0.0
C671 C 0.80295 0.62303 0.14511 0.0
H672 H 0.74961 0.68069 0.06739 0.0
C673 C 0.7675 0.60815 0.1768 0.0
C674 C 0.72631 0.62069 0.16965 0.0
H675 H 0.83458 0.61453 0.15233 0.0
H676 H 0.77287 0.58971 0.20862 0.0
C677 C 0.72077 0.64594 0.12912 0.0
C678 C 0.63511 0.33445 0.41388 0.0
C679 C 0.67021 0.32856 0.44094 0.0
H680 H 0.6109 0.37537 0.36197 0.0
C681 C 0.71083 0.35289 0.42962 0.0
H682 H 0.60354 0.31563 0.42244 0.0
C683 C 0.71508 0.38732 0.39519 0.0
C684 C 0.6787 0.39711 0.37201 0.0
H685 H 0.7381 0.34862 0.45051 0.0
H686 H 0.74568 0.40921 0.39 0.0
C687 C 0.63943 0.36827 0.37911 0.0
C688 C 0.32704 0.40214 0.16173 0.0
C689 C 0.28695 0.39435 0.1404 0.0
H690 H 0.37545 0.37269 0.19669 0.0
C691 C 0.26924 0.34777 0.12963 0.0
H692 H 0.34176 0.43765 0.17039 0.0
C693 C 0.28914 0.30996 0.14427 0.0
C694 C 0.32692 0.31796 0.17041 0.0
H695 H 0.23841 0.3405 0.11333 0.0
H696 H 0.27372 0.27452 0.13701 0.0
C697 C 0.34655 0.3646 0.17685 0.0
C698 C 0.77992 0.15231 0.78765 0.0
C699 C 0.80728 0.16668 0.82535 0.0
H700 H 0.72539 0.10535 0.76484 0.0
C701 C 0.80557 0.13928 0.86599 0.0
H702 H 0.78091 0.17316 0.75598 0.0
C703 C 0.77368 0.10088 0.87124 0.0
C704 C 0.7437 0.08908 0.83553 0.0
H705 H 0.82637 0.14995 0.89542 0.0
H706 H 0.77027 0.08275 0.90488 0.0
C707 C 0.74854 0.11334 0.79249 0.0
C708 C 0.13991 0.63871 0.17174 0.0
C709 C 0.12768 0.6034 0.20498 0.0
H710 H 0.12051 0.67862 0.11568 0.0
C711 C 0.08352 0.59006 0.21526 0.0
H712 H 0.1737 0.64895 0.16226 0.0
C713 C 0.05258 0.60727 0.1888 0.0
C714 C 0.06502 0.63769 0.15063 0.0
H715 H 0.07307 0.5623 0.24008 0.0
H716 H 0.01903 0.59437 0.19651 0.0
C717 C 0.10909 0.65517 0.14436 0.0
C718 C 0.81693 0.7479 0.29787 0.0
C719 C 0.81551 0.77817 0.33886 0.0
H720 H 0.79107 0.68226 0.26518 0.0
C721 C 0.79619 0.76148 0.38251 0.0
H722 H 0.83242 0.76039 0.26414 0.0
C723 C 0.77229 0.71699 0.38301 0.0
C724 C 0.76833 0.68946 0.33998 0.0
H725 H 0.79536 0.78465 0.41452 0.0
H726 H 0.75196 0.70732 0.41481 0.0
C727 C 0.79423 0.70295 0.29885 0.0
C728 C 0.53219 0.49098 0.69203 0.0
C729 C 0.51179 0.44549 0.68001 0.0
H730 H 0.52439 0.56171 0.71639 0.0
C731 C 0.46715 0.43561 0.69142 0.0
H732 H 0.56658 0.50002 0.68596 0.0
C733 C 0.44356 0.47046 0.71189 0.0
C734 C 0.46346 0.51665 0.71946 0.0
H735 H 0.44949 0.40169 0.68246 0.0
H736 H 0.40907 0.46202 0.71813 0.0
C737 C 0.50818 0.52631 0.71064 0.0
C738 C 0.26643 0.7267 0.7241 0.0
C739 C 0.30666 0.7326 0.69853 0.0
H740 H 0.20824 0.75561 0.74493 0.0
C741 C 0.31937 0.775 0.67494 0.0
H742 H 0.25565 0.6948 0.74309 0.0
C743 C 0.292 0.81038 0.67645 0.0
C744 C 0.25139 0.80363 0.70113 0.0
H745 H 0.35038 0.78083 0.6554 0.0
H746 H 0.30202 0.84232 0.65731 0.0
C747 C 0.23922 0.76164 0.7253 0.0
C748 C 0.42056 0.92338 0.90123 0.0
C749 C 0.40958 0.94313 0.94704 0.0
H750 H 0.46929 0.92085 0.84354 0.0
C751 C 0.43683 0.98049 0.96688 0.0
H752 H 0.40019 0.89362 0.88591 0.0
C753 C 0.47571 0.99624 0.94273 0.0
C754 C 0.48891 0.97391 0.89884 0.0
H755 H 0.42928 0.99556 1.00247 0.0
H756 H 0.49657 0.02421 0.96031 0.0
C757 C 0.46024 0.93844 0.87733 0.0
C758 C 0.88748 0.09256 0.34857 0.0
C759 C 0.90003 0.0632 0.30981 0.0
H760 H 0.90926 0.14521 0.40217 0.0
C761 C 0.94092 0.07323 0.28661 0.0
H762 H 0.85628 0.08478 0.3674 0.0
C763 C 0.97144 0.10669 0.3071 0.0
C764 C 0.96091 0.13093 0.35034 0.0
H765 H 0.95118 0.05061 0.25685 0.0
H766 H 0.00423 0.1104 0.29177 0.0
C767 C 0.91801 0.12646 0.36893 0.0
loop_
_geom_bond_atom_site_label_1
_geom_bond_atom_site_label_2
_geom_bond_distance
_geom_bond_site_symmetry_2
_ccdc_geom_bond_type
C0 O16 1.251 . S
C0 O18 1.254 . S
N1 C2 1.333 . S
N1 C6 1.307 . S
N1 Zn7 2.020 . S
C2 N1 1.333 . S
C2 C3 1.379 . S
C2 H20 0.952 . S
C3 C2 1.379 . S
C3 C4 1.390 1_455 S
C3 H30 0.949 . S
C4 C3 1.390 1_655 S
C4 C5 1.357 . S
C5 C4 1.357 . S
C5 C6 1.370 1_655 S
C5 H31 0.950 . S
C6 N1 1.307 . S
C6 C5 1.370 1_455 S
C6 H24 0.948 . S
Zn7 N1 2.020 . S
Zn7 O16 2.039 . S
Zn7 O22 2.034 . S
Zn7 O26 2.025 . S
Zn7 O28 2.024 . S
C8 O27 1.246 . S
C8 O28 1.249 . S
N9 C10 1.307 . S
N9 C11 1.333 . S
N9 Zn15 2.020 . S
C10 N9 1.307 . S
C10 C14 1.370 . S
C10 H21 0.948 . S
C11 N9 1.333 . S
C11 C12 1.379 . S
C11 H19 0.952 . S
C12 C11 1.379 . S
C12 C13 1.390 . S
C12 H32 0.949 . S
C13 C12 1.390 . S
C13 C14 1.357 . S
C14 C10 1.370 . S
C14 C13 1.357 . S
C14 H33 0.950 . S
Zn15 N9 2.020 . S
Zn15 O18 2.025 . S
Zn15 O23 2.024 . S
Zn15 O25 2.039 . S
Zn15 O27 2.034 . S
O16 C0 1.251 . S
O16 Zn7 2.039 . S
C17 O22 1.246 . S
C17 O23 1.249 . S
O18 C0 1.254 . S
O18 Zn15 2.025 . S
H19 C11 0.952 . S
H20 C2 0.952 . S
H21 C10 0.948 . S
O22 Zn7 2.034 . S
O22 C17 1.246 . S
O23 Zn15 2.024 . S
O23 C17 1.249 . S
H24 C6 0.948 . S
O25 Zn15 2.039 . S
O25 C29 1.251 . S
O26 Zn7 2.025 . S
O26 C29 1.254 . S
O27 C8 1.246 . S
O27 Zn15 2.034 . S
O28 Zn7 2.024 . S
O28 C8 1.249 . S
C29 O25 1.251 . S
C29 O26 1.254 . S
H30 C3 0.949 . S
H31 C5 0.950 . S
H32 C12 0.949 . S
H33 C14 0.950 . S
C34 O50 1.251 . S
C34 O52 1.254 . S
N35 C36 1.333 . S
N35 C40 1.307 . S
N35 Zn41 2.020 . S
C36 N35 1.333 . S
C36 C37 1.379 . S
C36 H54 0.952 . S
C37 C36 1.379 . S
C37 C38 1.390 . S
C37 H64 0.949 . S
C38 C37 1.390 . S
C38 C39 1.357 . S
C39 C38 1.357 . S
C39 C40 1.370 . S
C39 H65 0.950 . S
C40 N35 1.307 . S
C40 C39 1.370 . S
C40 H58 0.948 . S
Zn41 N35 2.020 . S
Zn41 O50 2.039 . S
Zn41 O56 2.034 . S
Zn41 O60 2.025 . S
Zn41 O62 2.024 . S
C42 O61 1.246 . S
C42 O62 1.249 . S
N43 C44 1.307 1_565 S
N43 C45 1.333 1_455 S
N43 Zn49 2.020 . S
C44 N43 1.307 1_545 S
C44 C48 1.370 1_455 S
C44 H55 0.948 . S
C45 N43 1.333 1_655 S
C45 C46 1.379 . S
C45 H53 0.952 . S
C46 C45 1.379 . S
C46 C47 1.390 1_565 S
C46 H66 0.949 . S
C47 C46 1.390 1_545 S
C47 C48 1.357 . S
C48 C44 1.370 1_655 S
C48 C47 1.357 . S
C48 H67 0.954 . S
Zn49 N43 2.020 . S
Zn49 O52 2.025 . S
Zn49 O57 2.024 . S
Zn49 O59 2.039 . S
Zn49 O61 2.034 . S
O50 C34 1.251 . S
O50 Zn41 2.039 . S
C51 O56 1.246 . S
C51 O57 1.249 . S
O52 C34 1.254 . S
O52 Zn49 2.025 . S
H53 C45 0.952 . S
H54 C36 0.952 . S
H55 C44 0.948 . S
O56 Zn41 2.034 . S
O56 C51 1.246 . S
O57 Zn49 2.024 . S
O57 C51 1.249 . S
H58 C40 0.948 . S
O59 Zn49 2.039 . S
O59 C63 1.251 . S
O60 Zn41 2.025 . S
O60 C63 1.254 . S
O61 C42 1.246 . S
O61 Zn49 2.034 . S
O62 Zn41 2.024 . S
O62 C42 1.249 . S
C63 O59 1.251 . S
C63 O60 1.254 . S
H64 C37 0.949 . S
H65 C39 0.950 . S
H66 C46 0.949 . S
H67 C48 0.954 . S
C68 O84 1.251 . S
C68 O86 1.254 . S
N69 C70 1.333 . S
N69 C74 1.307 . S
N69 Zn75 2.020 . S
C70 N69 1.333 . S
C70 C71 1.379 . S
C70 H88 0.952 . S
C71 C70 1.379 . S
C71 C72 1.390 . S
C71 H98 0.949 . S
C72 C71 1.390 . S
C72 C73 1.357 . S
C73 C72 1.357 . S
C73 C74 1.370 . S
C73 H99 0.950 . S
C74 N69 1.307 . S
C74 C73 1.370 . S
C74 H92 0.948 . S
Zn75 N69 2.020 . S
Zn75 O84 2.039 . S
Zn75 O90 2.034 . S
Zn75 O94 2.025 . S
Zn75 O96 2.024 . S
C76 O95 1.246 1_556 S
C76 O96 1.249 . S
N77 C78 1.307 . S
N77 C79 1.333 . S
N77 Zn83 2.020 1_554 S
C78 N77 1.307 . S
C78 C82 1.370 . S
C78 H89 0.948 1_554 S
C79 N77 1.333 . S
C79 C80 1.379 . S
C79 H87 0.952 . S
C80 C79 1.379 . S
C80 C81 1.390 . S
C80 H100 0.949 . S
C81 C80 1.390 . S
C81 C82 1.357 . S
C82 C78 1.370 . S
C82 C81 1.357 . S
C82 H101 0.950 . S
Zn83 N77 2.020 1_556 S
Zn83 O86 2.025 . S
Zn83 O91 2.024 . S
Zn83 O93 2.039 1_556 S
Zn83 O95 2.034 1_556 S
O84 C68 1.251 . S
O84 Zn75 2.039 . S
C85 O90 1.246 . S
C85 O91 1.249 . S
O86 C68 1.254 . S
O86 Zn83 2.025 . S
H87 C79 0.952 . S
H88 C70 0.952 . S
H89 C78 0.948 1_556 S
O90 Zn75 2.034 . S
O90 C85 1.246 . S
O91 Zn83 2.024 . S
O91 C85 1.249 . S
H92 C74 0.948 . S
O93 Zn83 2.039 1_554 S
O93 C97 1.251 . S
O94 Zn75 2.025 . S
O94 C97 1.254 1_556 S
O95 C76 1.246 1_554 S
O95 Zn83 2.034 1_554 S
O96 Zn75 2.024 . S
O96 C76 1.249 . S
C97 O93 1.251 . S
C97 O94 1.254 1_554 S
H98 C71 0.949 . S
H99 C73 0.950 . S
H100 C80 0.949 . S
H101 C82 0.950 . S
C102 O118 1.251 . S
C102 O120 1.254 . S
N103 C104 1.333 . S
N103 C108 1.307 . S
N103 Zn109 2.020 . S
C104 N103 1.333 . S
C104 C105 1.379 . S
C104 H122 0.952 . S
C105 C104 1.379 . S
C105 C106 1.390 . S
C105 H132 0.949 . S
C106 C105 1.390 . S
C106 C107 1.357 . S
C107 C106 1.357 . S
C107 C108 1.370 . S
C107 H133 0.950 . S
C108 N103 1.307 . S
C108 C107 1.370 . S
C108 H126 0.948 . S
Zn109 N103 2.020 . S
Zn109 O118 2.039 . S
Zn109 O124 2.034 . S
Zn109 O128 2.025 . S
Zn109 O130 2.024 . S
C110 O129 1.246 . S
C110 O130 1.249 . S
N111 C112 1.307 . S
N111 C113 1.333 . S
N111 Zn117 2.020 . S
C112 N111 1.307 . S
C112 C116 1.370 1_545 S
C112 H123 0.948 . S
C113 N111 1.333 . S
C113 C114 1.379 . S
C113 H121 0.952 . S
C114 C113 1.379 . S
C114 C115 1.390 1_545 S
C114 H134 0.949 . S
C115 C114 1.390 1_565 S
C115 C116 1.357 . S
C116 C112 1.370 1_565 S
C116 C115 1.357 . S
C116 H135 0.950 . S
Zn117 N111 2.020 . S
Zn117 O120 2.025 . S
Zn117 O125 2.024 . S
Zn117 O127 2.039 . S
Zn117 O129 2.034 . S
O118 C102 1.251 . S
O118 Zn109 2.039 . S
C119 O124 1.246 . S
C119 O125 1.249 . S
O120 C102 1.254 . S
O120 Zn117 2.025 . S
H121 C113 0.952 . S
H122 C104 0.952 . S
H123 C112 0.948 . S
O124 Zn109 2.034 . S
O124 C119 1.246 . S
O125 Zn117 2.024 . S
O125 C119 1.249 . S
H126 C108 0.948 . S
O127 Zn117 2.039 . S
O127 C131 1.251 . S
O128 Zn109 2.025 . S
O128 C131 1.254 . S
O129 C110 1.246 . S
O129 Zn117 2.034 . S
O130 Zn109 2.024 . S
O130 C110 1.249 . S
C131 O127 1.251 . S
C131 O128 1.254 . S
H132 C105 0.949 . S
H133 C107 0.950 . S
H134 C114 0.949 . S
H135 C116 0.950 . S
C136 O152 1.251 . S
C136 O154 1.254 . S
N137 C138 1.333 . S
N137 C142 1.307 . S
N137 Zn143 2.020 . S
C138 N137 1.333 . S
C138 C139 1.379 . S
C138 H156 0.952 . S
C139 C138 1.379 . S
C139 C140 1.390 . S
C139 H166 0.949 . S
C140 C139 1.390 . S
C140 C141 1.357 . S
C141 C140 1.357 . S
C141 C142 1.370 . S
C141 H167 0.950 . S
C142 N137 1.307 . S
C142 C141 1.370 . S
C142 H160 0.948 . S
Zn143 N137 2.020 . S
Zn143 O152 2.039 . S
Zn143 O158 2.034 . S
Zn143 O162 2.025 . S
Zn143 O164 2.024 . S
C144 O163 1.246 . S
C144 O164 1.249 . S
N145 C146 1.307 . S
N145 C147 1.333 . S
N145 Zn151 2.020 . S
C146 N145 1.307 . S
C146 C150 1.370 . S
C146 H157 0.948 . S
C147 N145 1.333 . S
C147 C148 1.379 . S
C147 H155 0.952 . S
C148 C147 1.379 . S
C148 C149 1.390 . S
C148 H168 0.949 . S
C149 C148 1.390 . S
C149 C150 1.357 . S
C150 C146 1.370 . S
C150 C149 1.357 . S
C150 H169 0.950 . S
Zn151 N145 2.020 . S
Zn151 O154 2.025 . S
Zn151 O159 2.024 . S
Zn151 O161 2.039 . S
Zn151 O163 2.034 . S
O152 C136 1.251 . S
O152 Zn143 2.039 . S
C153 O158 1.246 . S
C153 O159 1.249 . S
O154 C136 1.254 . S
O154 Zn151 2.025 . S
H155 C147 0.952 . S
H156 C138 0.952 . S
H157 C146 0.948 . S
O158 Zn143 2.034 . S
O158 C153 1.246 . S
O159 Zn151 2.024 . S
O159 C153 1.249 . S
H160 C142 0.948 . S
O161 Zn151 2.039 . S
O161 C165 1.251 . S
O162 Zn143 2.025 . S
O162 C165 1.254 . S
O163 C144 1.246 . S
O163 Zn151 2.034 . S
O164 Zn143 2.024 . S
O164 C144 1.249 . S
C165 O161 1.251 . S
C165 O162 1.254 . S
H166 C139 0.949 . S
H167 C141 0.950 . S
H168 C148 0.949 . S
H169 C150 0.950 . S
C170 O186 1.251 . S
C170 O188 1.254 . S
N171 C172 1.333 . S
N171 C176 1.307 . S
N171 Zn177 2.020 . S
C172 N171 1.333 . S
C172 C173 1.379 . S
C172 H190 0.952 . S
C173 C172 1.379 . S
C173 C174 1.390 . S
C173 H200 0.949 . S
C174 C173 1.390 . S
C174 C175 1.357 . S
C175 C174 1.357 . S
C175 C176 1.370 . S
C175 H201 0.950 . S
C176 N171 1.307 . S
C176 C175 1.370 . S
C176 H194 0.948 . S
Zn177 N171 2.020 . S
Zn177 O186 2.039 . S
Zn177 O192 2.034 . S
Zn177 O196 2.025 . S
Zn177 O198 2.024 . S
C178 O197 1.246 . S
C178 O198 1.249 . S
N179 C180 1.307 . S
N179 C181 1.333 1_655 S
N179 Zn185 2.020 . S
C180 N179 1.307 . S
C180 C184 1.370 1_655 S
C180 H191 0.948 . S
C181 N179 1.333 1_455 S
C181 C182 1.379 . S
C181 H189 0.952 . S
C182 C181 1.379 . S
C182 C183 1.390 . S
C182 H202 0.949 . S
C183 C182 1.390 . S
C183 C184 1.357 . S
C184 C180 1.370 1_455 S
C184 C183 1.357 . S
C184 H203 0.951 . S
Zn185 N179 2.020 . S
Zn185 O188 2.025 . S
Zn185 O193 2.024 . S
Zn185 O195 2.039 . S
Zn185 O197 2.034 . S
O186 C170 1.251 . S
O186 Zn177 2.039 . S
C187 O192 1.246 . S
C187 O193 1.249 . S
O188 C170 1.254 . S
O188 Zn185 2.025 . S
H189 C181 0.952 . S
H190 C172 0.952 . S
H191 C180 0.948 . S
O192 Zn177 2.034 . S
O192 C187 1.246 . S
O193 Zn185 2.024 . S
O193 C187 1.249 . S
H194 C176 0.948 . S
O195 Zn185 2.039 . S
O195 C199 1.251 . S
O196 Zn177 2.025 . S
O196 C199 1.254 . S
O197 C178 1.246 . S
O197 Zn185 2.034 . S
O198 Zn177 2.024 . S
O198 C178 1.249 . S
C199 O195 1.251 . S
C199 O196 1.254 . S
H200 C173 0.949 . S
H201 C175 0.950 . S
H202 C182 0.949 . S
H203 C184 0.951 . S
C204 O220 1.245 1_556 S
C204 O222 1.254 . S
N205 C206 1.333 . S
N205 C210 1.307 . S
N205 Zn211 2.020 . S
C206 N205 1.333 . S
C206 C207 1.379 . S
C206 H224 0.952 . S
C207 C206 1.379 . S
C207 C208 1.390 1_655 S
C207 H234 0.949 . S
C208 C207 1.390 1_455 S
C208 C209 1.357 . S
C209 C208 1.357 . S
C209 C210 1.370 1_455 S
C209 H235 0.950 . S
C210 N205 1.307 . S
C210 C209 1.370 1_655 S
C210 H228 0.948 . S
Zn211 N205 2.020 . S
Zn211 O220 2.045 . S
Zn211 O226 2.034 . S
Zn211 O230 2.025 . S
Zn211 O232 2.024 . S
C212 O231 1.246 . S
C212 O232 1.249 1_556 S
N213 C214 1.307 . S
N213 C215 1.333 . S
N213 Zn219 2.020 1_556 S
C214 N213 1.307 . S
C214 C218 1.370 . S
C214 H225 0.948 . S
C215 N213 1.333 . S
C215 C216 1.379 . S
C215 H223 0.952 1_556 S
C216 C215 1.379 . S
C216 C217 1.390 . S
C216 H236 0.949 . S
C217 C216 1.390 . S
C217 C218 1.357 . S
C218 C214 1.370 . S
C218 C217 1.357 . S
C218 H237 0.950 . S
Zn219 N213 2.020 1_554 S
Zn219 O222 2.025 1_554 S
Zn219 O227 2.024 . S
Zn219 O229 2.039 . S
Zn219 O231 2.034 1_554 S
O220 C204 1.245 1_554 S
O220 Zn211 2.045 . S
C221 O226 1.246 . S
C221 O227 1.249 . S
O222 C204 1.254 . S
O222 Zn219 2.025 1_556 S
H223 C215 0.952 1_554 S
H224 C206 0.952 . S
H225 C214 0.948 . S
O226 Zn211 2.034 . S
O226 C221 1.246 . S
O227 Zn219 2.024 . S
O227 C221 1.249 . S
H228 C210 0.948 . S
O229 Zn219 2.039 . S
O229 C233 1.251 . S
O230 Zn211 2.025 . S
O230 C233 1.254 . S
O231 C212 1.246 . S
O231 Zn219 2.034 1_556 S
O232 Zn211 2.024 . S
O232 C212 1.249 1_554 S
C233 O229 1.251 . S
C233 O230 1.254 . S
H234 C207 0.949 . S
H235 C209 0.950 . S
H236 C216 0.949 . S
H237 C218 0.950 . S
C238 O254 1.251 . S
C238 O256 1.254 . S
N239 C240 1.333 . S
N239 C244 1.307 . S
N239 Zn245 2.020 . S
C240 N239 1.333 . S
C240 C241 1.379 . S
C240 H258 0.952 . S
C241 C240 1.379 . S
C241 C242 1.390 . S
C241 H268 0.949 . S
C242 C241 1.390 . S
C242 C243 1.357 . S
C243 C242 1.357 . S
C243 C244 1.370 . S
C243 H269 0.950 . S
C244 N239 1.307 . S
C244 C243 1.370 . S
C244 H262 0.948 . S
Zn245 N239 2.020 . S
Zn245 O254 2.039 . S
Zn245 O260 2.034 . S
Zn245 O264 2.025 . S
Zn245 O266 2.024 . S
C246 O265 1.246 . S
C246 O266 1.249 . S
N247 C248 1.307 . S
N247 C249 1.333 . S
N247 Zn253 2.020 . S
C248 N247 1.307 . S
C248 C252 1.370 . S
C248 H259 0.948 . S
C249 N247 1.333 . S
C249 C250 1.379 . S
C249 H257 0.952 . S
C250 C249 1.379 . S
C250 C251 1.390 . S
C250 H270 0.949 . S
C251 C250 1.390 . S
C251 C252 1.357 . S
C252 C248 1.370 . S
C252 C251 1.357 . S
C252 H271 0.950 . S
Zn253 N247 2.020 . S
Zn253 O256 2.025 . S
Zn253 O261 2.024 . S
Zn253 O263 2.039 . S
Zn253 O265 2.034 . S
O254 C238 1.251 . S
O254 Zn245 2.039 . S
C255 O260 1.246 . S
C255 O261 1.249 . S
O256 C238 1.254 . S
O256 Zn253 2.025 . S
H257 C249 0.952 . S
H258 C240 0.952 . S
H259 C248 0.948 . S
O260 Zn245 2.034 . S
O260 C255 1.246 . S
O261 Zn253 2.024 . S
O261 C255 1.249 . S
H262 C244 0.948 . S
O263 Zn253 2.039 . S
O263 C267 1.251 . S
O264 Zn245 2.025 . S
O264 C267 1.254 . S
O265 C246 1.246 . S
O265 Zn253 2.034 . S
O266 Zn245 2.024 . S
O266 C246 1.249 . S
C267 O263 1.251 . S
C267 O264 1.254 . S
H268 C241 0.949 . S
H269 C243 0.950 . S
H270 C250 0.949 . S
H271 C252 0.950 . S
C272 O288 1.251 . S
C272 O290 1.254 . S
N273 C274 1.333 . S
N273 C278 1.307 . S
N273 Zn279 2.020 . S
C274 N273 1.333 . S
C274 C275 1.379 . S
C274 H292 0.952 . S
C275 C274 1.379 . S
C275 C276 1.390 . S
C275 H302 0.949 . S
C276 C275 1.390 . S
C276 C277 1.357 . S
C277 C276 1.357 . S
C277 C278 1.370 . S
C277 H303 0.950 1_554 S
C278 N273 1.307 . S
C278 C277 1.370 . S
C278 H296 0.948 . S
Zn279 N273 2.020 . S
Zn279 O288 2.039 . S
Zn279 O294 2.034 . S
Zn279 O298 2.025 . S
Zn279 O300 2.024 . S
C280 O299 1.246 . S
C280 O300 1.249 . S
N281 C282 1.307 . S
N281 C283 1.333 . S
N281 Zn287 2.020 . S
C282 N281 1.307 . S
C282 C286 1.370 . S
C282 H293 0.948 . S
C283 N281 1.333 . S
C283 C284 1.379 . S
C283 H291 0.952 . S
C284 C283 1.379 . S
C284 C285 1.390 . S
C284 H304 0.949 . S
C285 C284 1.390 . S
C285 C286 1.357 . S
C286 C282 1.370 . S
C286 C285 1.357 . S
C286 H305 0.950 . S
Zn287 N281 2.020 . S
Zn287 O290 2.025 . S
Zn287 O295 2.024 . S
Zn287 O297 2.039 . S
Zn287 O299 2.034 . S
O288 C272 1.251 . S
O288 Zn279 2.039 . S
C289 O294 1.246 . S
C289 O295 1.249 . S
O290 C272 1.254 . S
O290 Zn287 2.025 . S
H291 C283 0.952 . S
H292 C274 0.952 . S
H293 C282 0.948 . S
O294 Zn279 2.034 . S
O294 C289 1.246 . S
O295 Zn287 2.024 . S
O295 C289 1.249 . S
H296 C278 0.948 . S
O297 Zn287 2.039 . S
O297 C301 1.251 . S
O298 Zn279 2.025 . S
O298 C301 1.254 . S
O299 C280 1.246 . S
O299 Zn287 2.034 . S
O300 Zn279 2.024 . S
O300 C280 1.249 . S
C301 O297 1.251 . S
C301 O298 1.254 . S
H302 C275 0.949 . S
H303 C277 0.950 1_556 S
H304 C284 0.949 . S
H305 C286 0.950 . S
C306 O322 1.251 1_565 S
C306 O324 1.254 . S
N307 C308 1.333 . S
N307 C312 1.307 1_556 S
N307 Zn313 2.020 . S
C308 N307 1.333 . S
C308 C309 1.379 . S
C308 H326 0.952 . S
C309 C308 1.379 . S
C309 C310 1.390 1_556 S
C309 H336 0.949 . S
C310 C309 1.390 1_554 S
C310 C311 1.357 . S
C311 C310 1.357 . S
C311 C312 1.370 . S
C311 H337 0.950 . S
C312 N307 1.307 1_554 S
C312 C311 1.370 . S
C312 H330 0.948 . S
Zn313 N307 2.020 . S
Zn313 O322 2.039 . S
Zn313 O328 2.034 . S
Zn313 O332 2.025 . S
Zn313 O334 2.024 . S
C314 O333 1.246 . S
C314 O334 1.249 . S
N315 C316 1.307 1_545 S
N315 C317 1.333 . S
N315 Zn321 2.020 . S
C316 N315 1.307 1_565 S
C316 C320 1.370 . S
C316 H327 0.948 . S
C317 N315 1.333 . S
C317 C318 1.379 . S
C317 H325 0.952 . S
C318 C317 1.379 . S
C318 C319 1.390 1_545 S
C318 H338 0.949 . S
C319 C318 1.390 1_565 S
C319 C320 1.357 . S
C320 C316 1.370 . S
C320 C319 1.357 . S
C320 H339 0.950 . S
Zn321 N315 2.020 . S
Zn321 O324 2.025 1_545 S
Zn321 O329 2.024 . S
Zn321 O331 2.039 . S
Zn321 O333 2.034 . S
O322 C306 1.251 1_545 S
O322 Zn313 2.039 . S
C323 O328 1.246 . S
C323 O329 1.249 . S
O324 C306 1.254 . S
O324 Zn321 2.025 1_565 S
H325 C317 0.952 . S
H326 C308 0.952 . S
H327 C316 0.948 . S
O328 Zn313 2.034 . S
O328 C323 1.246 . S
O329 Zn321 2.024 . S
O329 C323 1.249 . S
H330 C312 0.948 . S
O331 Zn321 2.039 . S
O331 C335 1.251 . S
O332 Zn313 2.025 . S
O332 C335 1.254 . S
O333 C314 1.246 . S
O333 Zn321 2.034 . S
O334 Zn313 2.024 . S
O334 C314 1.249 . S
C335 O331 1.251 . S
C335 O332 1.254 . S
H336 C309 0.949 . S
H337 C311 0.950 . S
H338 C318 0.949 . S
H339 C320 0.950 . S
C340 O356 1.251 . S
C340 O358 1.254 . S
N341 C342 1.333 . S
N341 C346 1.307 . S
N341 Zn347 2.020 . S
C342 N341 1.333 . S
C342 C343 1.379 . S
C342 H360 0.952 . S
C343 C342 1.379 . S
C343 C344 1.390 . S
C343 H370 0.949 . S
C344 C343 1.390 . S
C344 C345 1.357 . S
C345 C344 1.357 . S
C345 C346 1.370 . S
C345 H371 0.950 . S
C346 N341 1.307 . S
C346 C345 1.370 . S
C346 H364 0.948 . S
Zn347 N341 2.020 . S
Zn347 O356 2.039 . S
Zn347 O362 2.034 . S
Zn347 O366 2.025 . S
Zn347 O368 2.024 . S
C348 O367 1.246 . S
C348 O368 1.249 . S
N349 C350 1.307 . S
N349 C351 1.333 . S
N349 Zn355 2.020 . S
C350 N349 1.307 . S
C350 C354 1.370 . S
C350 H361 0.948 . S
C351 N349 1.333 . S
C351 C352 1.379 . S
C351 H359 0.952 . S
C352 C351 1.379 . S
C352 C353 1.390 . S
C352 H372 0.949 . S
C353 C352 1.390 . S
C353 C354 1.357 . S
C354 C350 1.370 . S
C354 C353 1.357 . S
C354 H373 0.950 1_565 S
Zn355 N349 2.020 . S
Zn355 O358 2.025 . S
Zn355 O363 2.024 . S
Zn355 O365 2.039 . S
Zn355 O367 2.034 . S
O356 C340 1.251 . S
O356 Zn347 2.039 . S
C357 O362 1.246 . S
C357 O363 1.249 . S
O358 C340 1.254 . S
O358 Zn355 2.025 . S
H359 C351 0.952 . S
H360 C342 0.952 . S
H361 C350 0.948 . S
O362 Zn347 2.034 . S
O362 C357 1.246 . S
O363 Zn355 2.024 . S
O363 C357 1.249 . S
H364 C346 0.948 . S
O365 Zn355 2.039 . S
O365 C369 1.251 . S
O366 Zn347 2.025 . S
O366 C369 1.254 . S
O367 C348 1.246 . S
O367 Zn355 2.034 . S
O368 Zn347 2.024 . S
O368 C348 1.249 . S
C369 O365 1.251 . S
C369 O366 1.254 . S
H370 C343 0.949 . S
H371 C345 0.950 . S
H372 C352 0.949 . S
H373 C354 0.950 1_545 S
C374 O390 1.251 . S
C374 O392 1.254 . S
N375 C376 1.333 . S
N375 C380 1.307 . S
N375 Zn381 2.020 . S
C376 N375 1.333 . S
C376 C377 1.379 . S
C376 H394 0.952 . S
C377 C376 1.379 . S
C377 C378 1.390 . S
C377 H404 0.949 . S
C378 C377 1.390 . S
C378 C379 1.357 . S
C379 C378 1.357 . S
C379 C380 1.370 . S
C379 H405 0.950 . S
C380 N375 1.307 . S
C380 C379 1.370 . S
C380 H398 0.948 . S
Zn381 N375 2.020 . S
Zn381 O390 2.039 . S
Zn381 O396 2.034 . S
Zn381 O400 2.025 . S
Zn381 O402 2.024 . S
C382 O401 1.246 . S
C382 O402 1.249 . S
N383 C384 1.307 . S
N383 C385 1.333 . S
N383 Zn389 2.020 . S
C384 N383 1.307 . S
C384 C388 1.370 . S
C384 H395 0.948 . S
C385 N383 1.333 . S
C385 C386 1.379 . S
C385 H393 0.952 . S
C386 C385 1.379 . S
C386 C387 1.390 . S
C386 H406 0.949 . S
C387 C386 1.390 . S
C387 C388 1.357 . S
C388 C384 1.370 . S
C388 C387 1.357 . S
C388 H407 0.950 . S
Zn389 N383 2.020 . S
Zn389 O392 2.025 . S
Zn389 O397 2.024 . S
Zn389 O399 2.039 . S
Zn389 O401 2.034 . S
O390 C374 1.251 . S
O390 Zn381 2.039 . S
C391 O396 1.246 . S
C391 O397 1.249 . S
O392 C374 1.254 . S
O392 Zn389 2.025 . S
H393 C385 0.952 . S
H394 C376 0.952 . S
H395 C384 0.948 . S
O396 Zn381 2.034 . S
O396 C391 1.246 . S
O397 Zn389 2.024 . S
O397 C391 1.249 . S
H398 C380 0.948 . S
O399 Zn389 2.039 . S
O399 C403 1.251 . S
O400 Zn381 2.025 . S
O400 C403 1.254 . S
O401 C382 1.246 . S
O401 Zn389 2.034 . S
O402 Zn381 2.024 . S
O402 C382 1.249 . S
C403 O399 1.251 . S
C403 O400 1.254 . S
H404 C377 0.949 . S
H405 C379 0.950 . S
H406 C386 0.949 . S
H407 C388 0.950 . S
C408 C409 1.387 . S
C408 H412 0.950 . S
C408 C417 1.390 . S
C409 C408 1.387 . S
C409 C411 1.387 . S
H410 C417 0.950 . S
C411 C409 1.387 . S
C411 C413 1.390 . S
C411 H415 0.950 . S
H412 C408 0.950 . S
C413 C411 1.390 . S
C413 C414 1.387 . S
C413 H416 0.950 . S
C414 C413 1.387 . S
C414 C417 1.387 . S
H415 C411 0.950 . S
H416 C413 0.950 . S
C417 C408 1.390 . S
C417 H410 0.950 . S
C417 C414 1.387 . S
C418 C419 1.387 . S
C418 H422 0.950 . S
C418 C427 1.390 . S
C419 C418 1.387 . S
C419 C421 1.387 1_565 S
H420 C427 0.950 . S
C421 C419 1.387 1_545 S
C421 C423 1.390 . S
C421 H425 0.950 . S
H422 C418 0.950 . S
C423 C421 1.390 . S
C423 C424 1.387 . S
C423 H426 0.950 . S
C424 C423 1.387 . S
C424 C427 1.387 1_545 S
H425 C421 0.950 . S
H426 C423 0.950 . S
C427 C418 1.390 . S
C427 H420 0.950 . S
C427 C424 1.387 1_565 S
C428 C429 1.387 . S
C428 H432 0.950 . S
C428 C437 1.390 . S
C429 C428 1.387 . S
C429 C431 1.387 1_554 S
H430 C437 0.950 . S
C431 C429 1.387 1_556 S
C431 C433 1.390 1_556 S
C431 H435 0.950 . S
H432 C428 0.950 . S
C433 C431 1.390 1_554 S
C433 C434 1.387 . S
C433 H436 0.950 1_554 S
C434 C433 1.387 . S
C434 C437 1.387 . S
H435 C431 0.950 . S
H436 C433 0.950 1_556 S
C437 C428 1.390 . S
C437 H430 0.950 . S
C437 C434 1.387 . S
C438 C439 1.387 1_545 S
C438 H442 0.950 . S
C438 C447 1.390 . S
C439 C438 1.387 1_565 S
C439 C441 1.387 . S
H440 C447 0.950 . S
C441 C439 1.387 . S
C441 C443 1.390 . S
C441 H445 0.950 . S
H442 C438 0.950 . S
C443 C441 1.390 . S
C443 C444 1.387 . S
C443 H446 0.950 . S
C444 C443 1.387 . S
C444 C447 1.387 1_565 S
H445 C441 0.950 . S
H446 C443 0.950 . S
C447 C438 1.390 . S
C447 H440 0.950 . S
C447 C444 1.387 1_545 S
C448 C449 1.387 . S
C448 H452 0.950 . S
C448 C457 1.390 . S
C449 C448 1.387 . S
C449 C451 1.387 . S
H450 C457 0.950 . S
C451 C449 1.387 . S
C451 C453 1.390 . S
C451 H455 0.950 . S
H452 C448 0.950 . S
C453 C451 1.390 . S
C453 C454 1.387 1_545 S
C453 H456 0.950 1_545 S
C454 C453 1.387 1_565 S
C454 C457 1.387 1_565 S
H455 C451 0.950 . S
H456 C453 0.950 1_565 S
C457 C448 1.390 . S
C457 H450 0.950 . S
C457 C454 1.387 1_545 S
C458 C459 1.387 . S
C458 H462 0.950 . S
C458 C467 1.390 . S
C459 C458 1.387 . S
C459 C461 1.387 . S
H460 C467 0.950 . S
C461 C459 1.387 . S
C461 C463 1.390 . S
C461 H465 0.950 . S
H462 C458 0.950 . S
C463 C461 1.390 . S
C463 C464 1.387 . S
C463 H466 0.950 . S
C464 C463 1.387 . S
C464 C467 1.387 . S
H465 C461 0.950 . S
H466 C463 0.950 . S
C467 C458 1.390 . S
C467 H460 0.950 . S
C467 C464 1.387 . S
C468 C469 1.387 . S
C468 H472 0.950 . S
C468 C477 1.390 . S
C469 C468 1.387 . S
C469 C471 1.387 . S
H470 C477 0.950 . S
C471 C469 1.387 . S
C471 C473 1.390 . S
C471 H475 0.950 1_556 S
H472 C468 0.950 . S
C473 C471 1.390 . S
C473 C474 1.387 . S
C473 H476 0.950 1_556 S
C474 C473 1.387 . S
C474 C477 1.387 . S
H475 C471 0.950 1_554 S
H476 C473 0.950 1_554 S
C477 C468 1.390 . S
C477 H470 0.950 . S
C477 C474 1.387 . S
C478 C479 1.387 . S
C478 H482 0.950 . S
C478 C487 1.390 . S
C479 C478 1.387 . S
C479 C481 1.387 . S
H480 C487 0.950 . S
C481 C479 1.387 . S
C481 C483 1.390 . S
C481 H485 0.950 . S
H482 C478 0.950 . S
C483 C481 1.390 . S
C483 C484 1.387 . S
C483 H486 0.950 . S
C484 C483 1.387 . S
C484 C487 1.387 . S
H485 C481 0.950 . S
H486 C483 0.950 . S
C487 C478 1.390 . S
C487 H480 0.950 . S
C487 C484 1.387 . S
C488 C489 1.387 . S
C488 H492 0.950 . S
C488 C497 1.390 . S
C489 C488 1.387 . S
C489 C491 1.387 . S
H490 C497 0.950 . S
C491 C489 1.387 . S
C491 C493 1.390 . S
C491 H495 0.950 . S
H492 C488 0.950 . S
C493 C491 1.390 . S
C493 C494 1.387 . S
C493 H496 0.950 . S
C494 C493 1.387 . S
C494 C497 1.387 . S
H495 C491 0.950 . S
H496 C493 0.950 . S
C497 C488 1.390 . S
C497 H490 0.950 . S
C497 C494 1.387 . S
C498 C499 1.387 . S
C498 H502 0.950 . S
C498 C507 1.390 1_455 S
C499 C498 1.387 . S
C499 C501 1.387 . S
H500 C507 0.950 . S
C501 C499 1.387 . S
C501 C503 1.390 1_455 S
C501 H505 0.950 . S
H502 C498 0.950 . S
C503 C501 1.390 1_655 S
C503 C504 1.387 . S
C503 H506 0.950 . S
C504 C503 1.387 . S
C504 C507 1.387 . S
H505 C501 0.950 . S
H506 C503 0.950 . S
C507 C498 1.390 1_655 S
C507 H500 0.950 . S
C507 C504 1.387 . S
C508 C509 1.387 . S
C508 H512 0.950 . S
C508 C517 1.390 1_455 S
C509 C508 1.387 . S
C509 C511 1.387 1_455 S
H510 C517 0.950 . S
C511 C509 1.387 1_655 S
C511 C513 1.390 . S
C511 H515 0.950 . S
H512 C508 0.950 . S
C513 C511 1.390 . S
C513 C514 1.387 . S
C513 H516 0.950 . S
C514 C513 1.387 . S
C514 C517 1.387 . S
H515 C511 0.950 . S
H516 C513 0.950 . S
C517 C508 1.390 1_655 S
C517 H510 0.950 . S
C517 C514 1.387 . S
C518 C519 1.387 . S
C518 H522 0.950 . S
C518 C527 1.390 . S
C519 C518 1.387 . S
C519 C521 1.387 . S
H520 C527 0.950 . S
C521 C519 1.387 . S
C521 C523 1.390 . S
C521 H525 0.950 . S
H522 C518 0.950 . S
C523 C521 1.390 . S
C523 C524 1.387 . S
C523 H526 0.950 . S
C524 C523 1.387 . S
C524 C527 1.387 . S
H525 C521 0.950 . S
H526 C523 0.950 . S
C527 C518 1.390 . S
C527 H520 0.950 . S
C527 C524 1.387 . S
C528 C529 1.387 . S
C528 H532 0.950 . S
C528 C537 1.390 . S
C529 C528 1.387 . S
C529 C531 1.387 . S
H530 C537 0.950 . S
C531 C529 1.387 . S
C531 C533 1.390 . S
C531 H535 0.950 . S
H532 C528 0.950 . S
C533 C531 1.390 . S
C533 C534 1.387 . S
C533 H536 0.950 . S
C534 C533 1.387 . S
C534 C537 1.387 . S
H535 C531 0.950 . S
H536 C533 0.950 . S
C537 C528 1.390 . S
C537 H530 0.950 . S
C537 C534 1.387 . S
C538 C539 1.387 1_655 S
C538 H542 0.950 1_655 S
C538 C547 1.390 . S
C539 C538 1.387 1_455 S
C539 C541 1.387 . S
H540 C547 0.950 . S
C541 C539 1.387 . S
C541 C543 1.390 1_455 S
C541 H545 0.950 . S
H542 C538 0.950 1_455 S
C543 C541 1.390 1_655 S
C543 C544 1.387 . S
C543 H546 0.950 . S
C544 C543 1.387 . S
C544 C547 1.387 . S
H545 C541 0.950 . S
H546 C543 0.950 . S
C547 C538 1.390 . S
C547 H540 0.950 . S
C547 C544 1.387 . S
C548 C549 1.387 . S
C548 H552 0.950 . S
C548 C557 1.390 . S
C549 C548 1.387 . S
C549 C551 1.387 . S
H550 C557 0.950 . S
C551 C549 1.387 . S
C551 C553 1.390 . S
C551 H555 0.950 . S
H552 C548 0.950 . S
C553 C551 1.390 . S
C553 C554 1.387 . S
C553 H556 0.950 . S
C554 C553 1.387 . S
C554 C557 1.387 . S
H555 C551 0.950 . S
H556 C553 0.950 . S
C557 C548 1.390 . S
C557 H550 0.950 . S
C557 C554 1.387 . S
C558 C559 1.387 . S
C558 H562 0.950 . S
C558 C567 1.390 . S
C559 C558 1.387 . S
C559 C561 1.387 . S
H560 C567 0.950 . S
C561 C559 1.387 . S
C561 C563 1.390 . S
C561 H565 0.950 . S
H562 C558 0.950 . S
C563 C561 1.390 . S
C563 C564 1.387 . S
C563 H566 0.950 . S
C564 C563 1.387 . S
C564 C567 1.387 . S
H565 C561 0.950 . S
H566 C563 0.950 . S
C567 C558 1.390 . S
C567 H560 0.950 . S
C567 C564 1.387 . S
C568 C569 1.387 . S
C568 H572 0.950 . S
C568 C577 1.390 . S
C569 C568 1.387 . S
C569 C571 1.387 . S
H570 C577 0.950 . S
C571 C569 1.387 . S
C571 C573 1.390 . S
C571 H575 0.950 . S
H572 C568 0.950 . S
C573 C571 1.390 . S
C573 C574 1.387 . S
C573 H576 0.950 . S
C574 C573 1.387 . S
C574 C577 1.387 . S
H575 C571 0.950 . S
H576 C573 0.950 . S
C577 C568 1.390 . S
C577 H570 0.950 . S
C577 C574 1.387 . S
C578 C579 1.387 . S
C578 H582 0.950 . S
C578 C587 1.390 . S
C579 C578 1.387 . S
C579 C581 1.387 . S
H580 C587 0.950 . S
C581 C579 1.387 . S
C581 C583 1.390 1_455 S
C581 H585 0.950 . S
H582 C578 0.950 . S
C583 C581 1.390 1_655 S
C583 C584 1.387 . S
C583 H586 0.950 . S
C584 C583 1.387 . S
C584 C587 1.387 1_655 S
H585 C581 0.950 . S
H586 C583 0.950 . S
C587 C578 1.390 . S
C587 H580 0.950 . S
C587 C584 1.387 1_455 S
C588 C589 1.387 . S
C588 H592 0.950 . S
C588 C597 1.390 . S
C589 C588 1.387 . S
C589 C591 1.387 . S
H590 C597 0.950 . S
C591 C589 1.387 . S
C591 C593 1.390 . S
C591 H595 0.950 . S
H592 C588 0.950 . S
C593 C591 1.390 . S
C593 C594 1.387 . S
C593 H596 0.950 . S
C594 C593 1.387 . S
C594 C597 1.387 . S
H595 C591 0.950 . S
H596 C593 0.950 . S
C597 C588 1.390 . S
C597 H590 0.950 . S
C597 C594 1.387 . S
C598 C599 1.387 . S
C598 H602 0.950 . S
C598 C607 1.390 . S
C599 C598 1.387 . S
C599 C601 1.387 . S
H600 C607 0.950 . S
C601 C599 1.387 . S
C601 C603 1.390 . S
C601 H605 0.950 . S
H602 C598 0.950 . S
C603 C601 1.390 . S
C603 C604 1.387 . S
C603 H606 0.950 . S
C604 C603 1.387 . S
C604 C607 1.387 . S
H605 C601 0.950 . S
H606 C603 0.950 . S
C607 C598 1.390 . S
C607 H600 0.950 . S
C607 C604 1.387 . S
C608 C609 1.387 . S
C608 H612 0.950 . S
C608 C617 1.390 . S
C609 C608 1.387 . S
C609 C611 1.387 . S
H610 C617 0.950 . S
C611 C609 1.387 . S
C611 C613 1.390 . S
C611 H615 0.950 . S
H612 C608 0.950 . S
C613 C611 1.390 . S
C613 C614 1.387 . S
C613 H616 0.950 . S
C614 C613 1.387 . S
C614 C617 1.387 . S
H615 C611 0.950 . S
H616 C613 0.950 . S
C617 C608 1.390 . S
C617 H610 0.950 . S
C617 C614 1.387 . S
C618 C619 1.387 . S
C618 H622 0.950 . S
C618 C627 1.390 . S
C619 C618 1.387 . S
C619 C621 1.387 . S
H620 C627 0.950 . S
C621 C619 1.387 . S
C621 C623 1.390 . S
C621 H625 0.950 . S
H622 C618 0.950 . S
C623 C621 1.390 . S
C623 C624 1.387 . S
C623 H626 0.950 . S
C624 C623 1.387 . S
C624 C627 1.387 . S
H625 C621 0.950 . S
H626 C623 0.950 . S
C627 C618 1.390 . S
C627 H620 0.950 . S
C627 C624 1.387 . S
C628 C629 1.387 . S
C628 H632 0.950 . S
C628 C637 1.390 . S
C629 C628 1.387 . S
C629 C631 1.387 . S
H630 C637 0.950 . S
C631 C629 1.387 . S
C631 C633 1.390 . S
C631 H635 0.950 . S
H632 C628 0.950 . S
C633 C631 1.390 . S
C633 C634 1.387 . S
C633 H636 0.950 . S
C634 C633 1.387 . S
C634 C637 1.387 . S
H635 C631 0.950 . S
H636 C633 0.950 . S
C637 C628 1.390 . S
C637 H630 0.950 . S
C637 C634 1.387 . S
C638 C639 1.387 . S
C638 H642 0.950 . S
C638 C647 1.390 1_545 S
C639 C638 1.387 . S
C639 C641 1.387 . S
H640 C647 0.950 . S
C641 C639 1.387 . S
C641 C643 1.390 1_545 S
C641 H645 0.950 . S
H642 C638 0.950 . S
C643 C641 1.390 1_565 S
C643 C644 1.387 . S
C643 H646 0.950 . S
C644 C643 1.387 . S
C644 C647 1.387 . S
H645 C641 0.950 . S
H646 C643 0.950 . S
C647 C638 1.390 1_565 S
C647 H640 0.950 . S
C647 C644 1.387 . S
C648 C649 1.387 . S
C648 H652 0.950 . S
C648 C657 1.390 . S
C649 C648 1.387 . S
C649 C651 1.387 . S
H650 C657 0.950 . S
C651 C649 1.387 . S
C651 C653 1.390 . S
C651 H655 0.950 . S
H652 C648 0.950 . S
C653 C651 1.390 . S
C653 C654 1.387 . S
C653 H656 0.950 . S
C654 C653 1.387 . S
C654 C657 1.387 . S
H655 C651 0.950 . S
H656 C653 0.950 . S
C657 C648 1.390 . S
C657 H650 0.950 . S
C657 C654 1.387 . S
C658 C659 1.387 . S
C658 H662 0.950 . S
C658 C667 1.390 . S
C659 C658 1.387 . S
C659 C661 1.387 . S
H660 C667 0.950 . S
C661 C659 1.387 . S
C661 C663 1.390 . S
C661 H665 0.950 . S
H662 C658 0.950 . S
C663 C661 1.390 . S
C663 C664 1.387 . S
C663 H666 0.950 . S
C664 C663 1.387 . S
C664 C667 1.387 . S
H665 C661 0.950 . S
H666 C663 0.950 . S
C667 C658 1.390 . S
C667 H660 0.950 . S
C667 C664 1.387 . S
C668 C669 1.387 . S
C668 H672 0.950 . S
C668 C677 1.390 . S
C669 C668 1.387 . S
C669 C671 1.387 . S
H670 C677 0.950 . S
C671 C669 1.387 . S
C671 C673 1.390 . S
C671 H675 0.950 . S
H672 C668 0.950 . S
C673 C671 1.390 . S
C673 C674 1.387 . S
C673 H676 0.950 . S
C674 C673 1.387 . S
C674 C677 1.387 . S
H675 C671 0.950 . S
H676 C673 0.950 . S
C677 C668 1.390 . S
C677 H670 0.950 . S
C677 C674 1.387 . S
C678 C679 1.387 . S
C678 H682 0.950 . S
C678 C687 1.390 . S
C679 C678 1.387 . S
C679 C681 1.387 . S
H680 C687 0.950 . S
C681 C679 1.387 . S
C681 C683 1.390 . S
C681 H685 0.950 . S
H682 C678 0.950 . S
C683 C681 1.390 . S
C683 C684 1.387 . S
C683 H686 0.950 . S
C684 C683 1.387 . S
C684 C687 1.387 . S
H685 C681 0.950 . S
H686 C683 0.950 . S
C687 C678 1.390 . S
C687 H680 0.950 . S
C687 C684 1.387 . S
C688 C689 1.387 . S
C688 H692 0.950 . S
C688 C697 1.390 . S
C689 C688 1.387 . S
C689 C691 1.387 . S
H690 C697 0.950 . S
C691 C689 1.387 . S
C691 C693 1.390 . S
C691 H695 0.950 . S
H692 C688 0.950 . S
C693 C691 1.390 . S
C693 C694 1.387 . S
C693 H696 0.950 . S
C694 C693 1.387 . S
C694 C697 1.387 . S
H695 C691 0.950 . S
H696 C693 0.950 . S
C697 C688 1.390 . S
C697 H690 0.950 . S
C697 C694 1.387 . S
C698 C699 1.387 . S
C698 H702 0.950 . S
C698 C707 1.390 . S
C699 C698 1.387 . S
C699 C701 1.387 . S
H700 C707 0.950 . S
C701 C699 1.387 . S
C701 C703 1.390 . S
C701 H705 0.950 . S
H702 C698 0.950 . S
C703 C701 1.390 . S
C703 C704 1.387 . S
C703 H706 0.950 . S
C704 C703 1.387 . S
C704 C707 1.387 . S
H705 C701 0.950 . S
H706 C703 0.950 . S
C707 C698 1.390 . S
C707 H700 0.950 . S
C707 C704 1.387 . S
C708 C709 1.387 . S
C708 H712 0.950 . S
C708 C717 1.390 . S
C709 C708 1.387 . S
C709 C711 1.387 . S
H710 C717 0.950 . S
C711 C709 1.387 . S
C711 C713 1.390 . S
C711 H715 0.950 . S
H712 C708 0.950 . S
C713 C711 1.390 . S
C713 C714 1.387 . S
C713 H716 0.950 . S
C714 C713 1.387 . S
C714 C717 1.387 . S
H715 C711 0.950 . S
H716 C713 0.950 . S
C717 C708 1.390 . S
C717 H710 0.950 . S
C717 C714 1.387 . S
C718 C719 1.387 . S
C718 H722 0.950 . S
C718 C727 1.390 . S
C719 C718 1.387 . S
C719 C721 1.387 . S
H720 C727 0.950 . S
C721 C719 1.387 . S
C721 C723 1.390 . S
C721 H725 0.950 . S
H722 C718 0.950 . S
C723 C721 1.390 . S
C723 C724 1.387 . S
C723 H726 0.950 . S
C724 C723 1.387 . S
C724 C727 1.387 . S
H725 C721 0.950 . S
H726 C723 0.950 . S
C727 C718 1.390 . S
C727 H720 0.950 . S
C727 C724 1.387 . S
C728 C729 1.387 . S
C728 H732 0.950 . S
C728 C737 1.390 . S
C729 C728 1.387 . S
C729 C731 1.387 . S
H730 C737 0.950 . S
C731 C729 1.387 . S
C731 C733 1.390 . S
C731 H735 0.950 . S
H732 C728 0.950 . S
C733 C731 1.390 . S
C733 C734 1.387 . S
C733 H736 0.950 . S
C734 C733 1.387 . S
C734 C737 1.387 . S
H735 C731 0.950 . S
H736 C733 0.950 . S
C737 C728 1.390 . S
C737 H730 0.950 . S
C737 C734 1.387 . S
C738 C739 1.387 . S
C738 H742 0.950 . S
C738 C747 1.390 . S
C739 C738 1.387 . S
C739 C741 1.387 . S
H740 C747 0.950 . S
C741 C739 1.387 . S
C741 C743 1.390 . S
C741 H745 0.950 . S
H742 C738 0.950 . S
C743 C741 1.390 . S
C743 C744 1.387 . S
C743 H746 0.950 . S
C744 C743 1.387 . S
C744 C747 1.387 . S
H745 C741 0.950 . S
H746 C743 0.950 . S
C747 C738 1.390 . S
C747 H740 0.950 . S
C747 C744 1.387 . S
C748 C749 1.387 . S
C748 H752 0.950 . S
C748 C757 1.390 . S
C749 C748 1.387 . S
C749 C751 1.387 . S
H750 C757 0.950 . S
C751 C749 1.387 . S
C751 C753 1.390 . S
C751 H755 0.951 1_565 S
H752 C748 0.950 . S
C753 C751 1.390 . S
C753 C754 1.387 . S
C753 H756 0.950 1_565 S
C754 C753 1.387 . S
C754 C757 1.387 . S
H755 C751 0.951 1_545 S
H756 C753 0.950 1_545 S
C757 C748 1.390 . S
C757 H750 0.950 . S
C757 C754 1.387 . S
C758 C759 1.387 1_545 S
C758 H762 0.950 1_545 S
C758 C767 1.390 . S
C759 C758 1.387 1_565 S
C759 C761 1.387 1_565 S
H760 C767 0.950 . S
C761 C759 1.387 1_545 S
C761 C763 1.390 . S
C761 H765 0.950 . S
H762 C758 0.950 1_565 S
C763 C761 1.390 . S
C763 C764 1.387 . S
C763 H766 0.950 . S
C764 C763 1.387 . S
C764 C767 1.387 . S
H765 C761 0.950 . S
H766 C763 0.950 . S
C767 C758 1.390 . S
C767 H760 0.950 . S
C767 C764 1.387 . S
C409 C13 1.397 . S
C414 C382 1.378 . S
C419 C319 1.893 . S
C424 C47 1.979 . S
C429 C76 2.606 1_554 S
C434 C280 2.597 . S
C439 C115 2.123 . S
C444 C353 2.097 . S
C449 C149 1.591 . S
C454 C348 1.547 . S
C459 C183 1.748 . S
C464 C387 1.723 . S
C469 C314 1.832 1_565 S
C474 C217 1.865 . S
C479 C246 2.538 . S
C484 C285 2.489 . S
C489 C110 2.597 . S
C494 C144 2.655 . S
C499 C8 2.577 . S
C504 C178 2.517 . S
C509 C42 2.596 . S
C514 C212 2.637 . S
C519 C251 0.775 . S
C524 C81 0.789 . S
C529 C29 2.075 . S
C534 C289 2.061 . S
C539 C63 1.027 . S
C544 C344 0.969 . S
C549 C391 1.499 . S
C554 C68 1.566 . S
C559 C131 0.839 . S
C564 C310 0.828 . S
C569 C165 1.646 . S
C574 C323 1.599 . S
C579 C276 1.273 1_556 S
C584 C199 1.307 . S
C589 C357 1.405 . S
C594 C233 1.395 . S
C599 C378 1.000 . S
C604 C238 1.063 . S
C609 C17 1.584 . S
C614 C102 1.525 . S
C619 C0 1.996 . S
C624 C51 1.973 1_545 S
C629 C34 0.785 . S
C634 C72 0.785 . S
C639 C119 1.674 . S
C644 C97 1.737 . S
C649 C170 1.779 . S
C654 C153 1.823 . S
C659 C187 1.805 . S
C664 C204 1.823 . S
C669 C221 1.436 . S
C674 C267 1.410 . S
C679 C136 1.414 . S
C684 C242 1.342 . S
C689 C301 0.959 . S
C694 C106 0.973 . S
C699 C174 0.645 . S
C704 C335 0.625 . S
C709 C272 1.233 . S
C714 C208 1.295 . S
C719 C369 0.841 . S
C724 C255 0.831 . S
C729 C140 1.289 . S
C734 C374 1.330 . S
C739 C403 1.166 . S
C744 C38 1.109 . S
C749 C85 1.180 . S
C754 C306 1.170 . S
C759 C340 0.919 . S
C764 C4 0.917 . S
