# Generated by pormake.
# Topology uns, (4)-cn, num edge types: 1
# Building blocks:
#     Node 0, Type 0, BuildingBlock: QUQFOY_clean_sbu_1, # of connection points: 4
#     Node 1, Type 0, BuildingBlock: QUQFOY_clean_sbu_1, # of connection points: 4
#     Node 2, Type 0, BuildingBlock: QUQFOY_clean_sbu_1, # of connection points: 4
#     Node 3, Type 0, BuildingBlock: QUQFOY_clean_sbu_1, # of connection points: 4
#     Node 4, Type 0, BuildingBlock: QUQFOY_clean_sbu_1, # of connection points: 4
#     Node 5, Type 0, BuildingBlock: QUQFOY_clean_sbu_1, # of connection points: 4
#     Node 6, Type 0, BuildingBlock: QUQFOY_clean_sbu_1, # of connection points: 4
#     Node 7, Type 0, BuildingBlock: QUQFOY_clean_sbu_1, # of connection points: 4
#     Node 8, Type 0, BuildingBlock: QUQFOY_clean_sbu_1, # of connection points: 4
#     Node 9, Type 0, BuildingBlock: QUQFOY_clean_sbu_1, # of connection points: 4
#     Node 10, Type 0, BuildingBlock: QUQFOY_clean_sbu_1, # of connection points: 4
#     Node 11, Type 0, BuildingBlock: QUQFOY_clean_sbu_1, # of connection points: 4
#     Node 12, Type 0, BuildingBlock: QUQFOY_clean_sbu_1, # of connection points: 4
#     Node 13, Type 0, BuildingBlock: QUQFOY_clean_sbu_1, # of connection points: 4
#     Node 14, Type 0, BuildingBlock: QUQFOY_clean_sbu_1, # of connection points: 4
#     Node 15, Type 0, BuildingBlock: QUQFOY_clean_sbu_1, # of connection points: 4
#     Node 16, Type 0, BuildingBlock: QUQFOY_clean_sbu_1, # of connection points: 4
#     Node 17, Type 0, BuildingBlock: QUQFOY_clean_sbu_1, # of connection points: 4
#     Node 18, Type 0, BuildingBlock: QUQFOY_clean_sbu_1, # of connection points: 4
#     Node 19, Type 0, BuildingBlock: QUQFOY_clean_sbu_1, # of connection points: 4
#     Node 20, Type 0, BuildingBlock: QUQFOY_clean_sbu_1, # of connection points: 4
#     Node 21, Type 0, BuildingBlock: QUQFOY_clean_sbu_1, # of connection points: 4
#     Node 22, Type 0, BuildingBlock: QUQFOY_clean_sbu_1, # of connection points: 4
#     Node 23, Type 0, BuildingBlock: QUQFOY_clean_sbu_1, # of connection points: 4
#     Node 24, Type 0, BuildingBlock: QUQFOY_clean_sbu_1, # of connection points: 4
#     Node 25, Type 0, BuildingBlock: QUQFOY_clean_sbu_1, # of connection points: 4
#     Node 26, Type 0, BuildingBlock: QUQFOY_clean_sbu_1, # of connection points: 4
#     Node 27, Type 0, BuildingBlock: QUQFOY_clean_sbu_1, # of connection points: 4
#     Node 28, Type 0, BuildingBlock: QUQFOY_clean_sbu_1, # of connection points: 4
#     Node 29, Type 0, BuildingBlock: QUQFOY_clean_sbu_1, # of connection points: 4
#     Node 30, Type 0, BuildingBlock: QUQFOY_clean_sbu_1, # of connection points: 4
#     Node 31, Type 0, BuildingBlock: QUQFOY_clean_sbu_1, # of connection points: 4
#     Node 32, Type 0, BuildingBlock: QUQFOY_clean_sbu_1, # of connection points: 4
#     Node 33, Type 0, BuildingBlock: QUQFOY_clean_sbu_1, # of connection points: 4
#     Node 34, Type 0, BuildingBlock: QUQFOY_clean_sbu_1, # of connection points: 4
#     Node 35, Type 0, BuildingBlock: QUQFOY_clean_sbu_1, # of connection points: 4
#     Edge 36, Type (0, 0), BuildingBlock: ZUJKAS_clean_linker_0, # of connection points: 2
#     Edge 37, Type (0, 0), BuildingBlock: ZUJKAS_clean_linker_0, # of connection points: 2
#     Edge 38, Type (0, 0), BuildingBlock: ZUJKAS_clean_linker_0, # of connection points: 2
#     Edge 39, Type (0, 0), BuildingBlock: ZUJKAS_clean_linker_0, # of connection points: 2
#     Edge 40, Type (0, 0), BuildingBlock: ZUJKAS_clean_linker_0, # of connection points: 2
#     Edge 41, Type (0, 0), BuildingBlock: ZUJKAS_clean_linker_0, # of connection points: 2
#     Edge 42, Type (0, 0), BuildingBlock: ZUJKAS_clean_linker_0, # of connection points: 2
#     Edge 43, Type (0, 0), BuildingBlock: ZUJKAS_clean_linker_0, # of connection points: 2
#     Edge 44, Type (0, 0), BuildingBlock: ZUJKAS_clean_linker_0, # of connection points: 2
#     Edge 45, Type (0, 0), BuildingBlock: ZUJKAS_clean_linker_0, # of connection points: 2
#     Edge 46, Type (0, 0), BuildingBlock: ZUJKAS_clean_linker_0, # of connection points: 2
#     Edge 47, Type (0, 0), BuildingBlock: ZUJKAS_clean_linker_0, # of connection points: 2
#     Edge 48, Type (0, 0), BuildingBlock: ZUJKAS_clean_linker_0, # of connection points: 2
#     Edge 49, Type (0, 0), BuildingBlock: ZUJKAS_clean_linker_0, # of connection points: 2
#     Edge 50, Type (0, 0), BuildingBlock: ZUJKAS_clean_linker_0, # of connection points: 2
#     Edge 51, Type (0, 0), BuildingBlock: ZUJKAS_clean_linker_0, # of connection points: 2
#     Edge 52, Type (0, 0), BuildingBlock: ZUJKAS_clean_linker_0, # of connection points: 2
#     Edge 53, Type (0, 0), BuildingBlock: ZUJKAS_clean_linker_0, # of connection points: 2
#     Edge 54, Type (0, 0), BuildingBlock: ZUJKAS_clean_linker_0, # of connection points: 2
#     Edge 55, Type (0, 0), BuildingBlock: ZUJKAS_clean_linker_0, # of connection points: 2
#     Edge 56, Type (0, 0), BuildingBlock: ZUJKAS_clean_linker_0, # of connection points: 2
#     Edge 57, Type (0, 0), BuildingBlock: ZUJKAS_clean_linker_0, # of connection points: 2
#     Edge 58, Type (0, 0), BuildingBlock: ZUJKAS_clean_linker_0, # of connection points: 2
#     Edge 59, Type (0, 0), BuildingBlock: ZUJKAS_clean_linker_0, # of connection points: 2
#     Edge 60, Type (0, 0), BuildingBlock: ZUJKAS_clean_linker_0, # of connection points: 2
#     Edge 61, Type (0, 0), BuildingBlock: ZUJKAS_clean_linker_0, # of connection points: 2
#     Edge 62, Type (0, 0), BuildingBlock: ZUJKAS_clean_linker_0, # of connection points: 2
#     Edge 63, Type (0, 0), BuildingBlock: ZUJKAS_clean_linker_0, # of connection points: 2
#     Edge 64, Type (0, 0), BuildingBlock: ZUJKAS_clean_linker_0, # of connection points: 2
#     Edge 65, Type (0, 0), BuildingBlock: ZUJKAS_clean_linker_0, # of connection points: 2
#     Edge 66, Type (0, 0), BuildingBlock: ZUJKAS_clean_linker_0, # of connection points: 2
#     Edge 67, Type (0, 0), BuildingBlock: ZUJKAS_clean_linker_0, # of connection points: 2
#     Edge 68, Type (0, 0), BuildingBlock: ZUJKAS_clean_linker_0, # of connection points: 2
#     Edge 69, Type (0, 0), BuildingBlock: ZUJKAS_clean_linker_0, # of connection points: 2
#     Edge 70, Type (0, 0), BuildingBlock: ZUJKAS_clean_linker_0, # of connection points: 2
#     Edge 71, Type (0, 0), BuildingBlock: ZUJKAS_clean_linker_0, # of connection points: 2
#     Edge 72, Type (0, 0), BuildingBlock: ZUJKAS_clean_linker_0, # of connection points: 2
#     Edge 73, Type (0, 0), BuildingBlock: ZUJKAS_clean_linker_0, # of connection points: 2
#     Edge 74, Type (0, 0), BuildingBlock: ZUJKAS_clean_linker_0, # of connection points: 2
#     Edge 75, Type (0, 0), BuildingBlock: ZUJKAS_clean_linker_0, # of connection points: 2
#     Edge 76, Type (0, 0), BuildingBlock: ZUJKAS_clean_linker_0, # of connection points: 2
#     Edge 77, Type (0, 0), BuildingBlock: ZUJKAS_clean_linker_0, # of connection points: 2
#     Edge 78, Type (0, 0), BuildingBlock: ZUJKAS_clean_linker_0, # of connection points: 2
#     Edge 79, Type (0, 0), BuildingBlock: ZUJKAS_clean_linker_0, # of connection points: 2
#     Edge 80, Type (0, 0), BuildingBlock: ZUJKAS_clean_linker_0, # of connection points: 2
#     Edge 81, Type (0, 0), BuildingBlock: ZUJKAS_clean_linker_0, # of connection points: 2
#     Edge 82, Type (0, 0), BuildingBlock: ZUJKAS_clean_linker_0, # of connection points: 2
#     Edge 83, Type (0, 0), BuildingBlock: ZUJKAS_clean_linker_0, # of connection points: 2
#     Edge 84, Type (0, 0), BuildingBlock: ZUJKAS_clean_linker_0, # of connection points: 2
#     Edge 85, Type (0, 0), BuildingBlock: ZUJKAS_clean_linker_0, # of connection points: 2
#     Edge 86, Type (0, 0), BuildingBlock: ZUJKAS_clean_linker_0, # of connection points: 2
#     Edge 87, Type (0, 0), BuildingBlock: ZUJKAS_clean_linker_0, # of connection points: 2
#     Edge 88, Type (0, 0), BuildingBlock: ZUJKAS_clean_linker_0, # of connection points: 2
#     Edge 89, Type (0, 0), BuildingBlock: ZUJKAS_clean_linker_0, # of connection points: 2
#     Edge 90, Type (0, 0), BuildingBlock: ZUJKAS_clean_linker_0, # of connection points: 2
#     Edge 91, Type (0, 0), BuildingBlock: ZUJKAS_clean_linker_0, # of connection points: 2
#     Edge 92, Type (0, 0), BuildingBlock: ZUJKAS_clean_linker_0, # of connection points: 2
#     Edge 93, Type (0, 0), BuildingBlock: ZUJKAS_clean_linker_0, # of connection points: 2
#     Edge 94, Type (0, 0), BuildingBlock: ZUJKAS_clean_linker_0, # of connection points: 2
#     Edge 95, Type (0, 0), BuildingBlock: ZUJKAS_clean_linker_0, # of connection points: 2
#     Edge 96, Type (0, 0), BuildingBlock: ZUJKAS_clean_linker_0, # of connection points: 2
#     Edge 97, Type (0, 0), BuildingBlock: ZUJKAS_clean_linker_0, # of connection points: 2
#     Edge 98, Type (0, 0), BuildingBlock: ZUJKAS_clean_linker_0, # of connection points: 2
#     Edge 99, Type (0, 0), BuildingBlock: ZUJKAS_clean_linker_0, # of connection points: 2
#     Edge 100, Type (0, 0), BuildingBlock: ZUJKAS_clean_linker_0, # of connection points: 2
#     Edge 101, Type (0, 0), BuildingBlock: ZUJKAS_clean_linker_0, # of connection points: 2
#     Edge 102, Type (0, 0), BuildingBlock: ZUJKAS_clean_linker_0, # of connection points: 2
#     Edge 103, Type (0, 0), BuildingBlock: ZUJKAS_clean_linker_0, # of connection points: 2
#     Edge 104, Type (0, 0), BuildingBlock: ZUJKAS_clean_linker_0, # of connection points: 2
#     Edge 105, Type (0, 0), BuildingBlock: ZUJKAS_clean_linker_0, # of connection points: 2
#     Edge 106, Type (0, 0), BuildingBlock: ZUJKAS_clean_linker_0, # of connection points: 2
#     Edge 107, Type (0, 0), BuildingBlock: ZUJKAS_clean_linker_0, # of connection points: 2
# Relax obj value: 0.036
# Max RMSD: 0.169
# Mean RMSD: 0.169
data_MOF--net-uns--node1-QUQFOY_clean_sbu_1--edge1-ZUJKAS_clean_linker_0
_symmetry_space_group_name_H-M    P1
_symmetry_Int_Tables_number       1
_symmetry_cell_setting            triclinic
loop_
_symmetry_equiv_pos_as_xyz
'x, y, z'
_cell_length_a     68.52863
_cell_length_b     68.505772
_cell_length_c     84.985598
_cell_angle_alpha  90.063141
_cell_angle_beta   89.927296
_cell_angle_gamma 119.94877
loop_
_atom_site_label
_atom_site_type_symbol
_atom_site_fract_x
_atom_site_fract_y
_atom_site_fract_z
_atom_type_partial_charge
O0 O 0.27681 0.20195 0.05668 0.0
Cd1 Cd 0.29971 0.19112 0.05988 0.0
Cd2 Cd 0.29271 0.20103 0.09192 0.0
O3 O 0.26819 0.20594 0.08114 0.0
O4 O 0.29834 0.17509 0.03991 0.0
O5 O 0.28809 0.15793 0.06296 0.0
C6 C 0.2901 0.15667 0.04791 0.0
C7 C 0.29165 0.19104 0.11841 0.0
C8 C 0.26551 0.20659 0.06635 0.0
C9 C 0.33941 0.22746 0.07595 0.0
O10 O 0.32564 0.2239 0.08705 0.0
O11 O 0.33302 0.2157 0.06346 0.0
O12 O 0.29324 0.20987 0.11435 0.0
O13 O 0.28798 0.17653 0.10745 0.0
O14 O 0.80444 0.07653 0.05547 0.0
Cd15 Cd 0.81565 0.10931 0.06234 0.0
Cd16 Cd 0.80987 0.0908 0.09106 0.0
O17 O 0.80687 0.06323 0.07861 0.0
O18 O 0.83429 0.12964 0.04492 0.0
O19 O 0.84844 0.12739 0.06785 0.0
C20 C 0.85167 0.13562 0.05378 0.0
C21 C 0.82875 0.10593 0.11462 0.0
C22 C 0.80316 0.06054 0.06384 0.0
C23 C 0.77942 0.10864 0.08147 0.0
O24 O 0.78302 0.09604 0.09048 0.0
O25 O 0.7916 0.11754 0.06938 0.0
O26 O 0.81152 0.08587 0.11402 0.0
O27 O 0.83705 0.11621 0.10145 0.0
O28 O 0.92643 0.72904 0.05416 0.0
Cd29 Cd 0.89359 0.70709 0.06068 0.0
Cd30 Cd 0.91192 0.71969 0.08944 0.0
O31 O 0.93912 0.74509 0.07729 0.0
O32 O 0.8741 0.70501 0.04256 0.0
O33 O 0.87473 0.72136 0.06522 0.0
C34 C 0.86746 0.71634 0.05092 0.0
C35 C 0.89669 0.72231 0.11337 0.0
C36 C 0.94209 0.74406 0.06257 0.0
C37 C 0.89571 0.6719 0.07921 0.0
O38 O 0.90826 0.68823 0.08816 0.0
O39 O 0.88595 0.67491 0.06752 0.0
O40 O 0.91692 0.72565 0.11247 0.0
O41 O 0.88609 0.72025 0.10034 0.0
O42 O 0.20113 0.27343 0.47654 0.0
Cd43 Cd 0.19148 0.29663 0.47081 0.0
Cd44 Cd 0.19842 0.28542 0.44162 0.0
O45 O 0.19976 0.25923 0.45297 0.0
O46 O 0.17522 0.2982 0.48982 0.0
O47 O 0.15853 0.28505 0.46687 0.0
C48 C 0.15698 0.2889 0.48158 0.0
C49 C 0.18091 0.28393 0.41776 0.0
C50 C 0.20252 0.25909 0.46779 0.0
C51 C 0.22988 0.33255 0.45345 0.0
O52 O 0.22613 0.31679 0.44391 0.0
O53 O 0.21683 0.32891 0.4651 0.0
O54 O 0.19788 0.28069 0.41842 0.0
O55 O 0.17222 0.28543 0.43091 0.0
O56 O 0.72761 0.92703 0.48025 0.0
Cd57 Cd 0.70496 0.89366 0.47528 0.0
Cd58 Cd 0.71597 0.91219 0.44487 0.0
O59 O 0.7411 0.94009 0.45654 0.0
O60 O 0.70442 0.8771 0.49472 0.0
O61 O 0.71733 0.87278 0.47188 0.0
C62 C 0.7139 0.86809 0.48671 0.0
C63 C 0.71808 0.90212 0.41887 0.0
C64 C 0.74138 0.94294 0.47138 0.0
C65 C 0.66804 0.89364 0.45781 0.0
O66 O 0.68364 0.90549 0.44815 0.0
O67 O 0.67212 0.88519 0.4698 0.0
O68 O 0.71847 0.92063 0.42222 0.0
O69 O 0.71927 0.89047 0.43039 0.0
O70 O 0.0754 0.80226 0.47933 0.0
Cd71 Cd 0.10807 0.81167 0.47325 0.0
Cd72 Cd 0.08958 0.80553 0.44435 0.0
O73 O 0.06246 0.8046 0.45605 0.0
O74 O 0.12607 0.82737 0.4923 0.0
O75 O 0.12951 0.84468 0.46964 0.0
C76 C 0.13496 0.84584 0.48432 0.0
C77 C 0.10576 0.82333 0.4206 0.0
C78 C 0.05973 0.80146 0.47086 0.0
C79 C 0.10462 0.77323 0.4553 0.0
O80 O 0.09246 0.77731 0.44615 0.0
O81 O 0.11458 0.78617 0.46689 0.0
O82 O 0.08539 0.80666 0.42123 0.0
O83 O 0.11606 0.83162 0.43377 0.0
O84 O 0.72171 0.79898 0.97968 0.0
Cd85 Cd 0.7012 0.81173 0.97363 0.0
Cd86 Cd 0.71738 0.81075 0.94517 0.0
O87 O 0.74233 0.80884 0.95807 0.0
O88 O 0.699 0.82776 0.99255 0.0
O89 O 0.71576 0.84514 0.97042 0.0
C90 C 0.71055 0.84636 0.98488 0.0
C91 C 0.7216 0.83002 0.92167 0.0
C92 C 0.73863 0.80111 0.97206 0.0
C93 C 0.66842 0.77776 0.9526 0.0
O94 O 0.68584 0.78267 0.94448 0.0
O95 O 0.6698 0.78879 0.96497 0.0
O96 O 0.72549 0.81347 0.92241 0.0
O97 O 0.71823 0.83757 0.93474 0.0
O98 O 0.20175 0.92627 0.97943 0.0
Cd99 Cd 0.19154 0.89326 0.97398 0.0
Cd100 Cd 0.19671 0.91052 0.94422 0.0
O101 O 0.19956 0.93862 0.95588 0.0
O102 O 0.17542 0.87578 0.99311 0.0
O103 O 0.15845 0.87245 0.9703 0.0
C104 C 0.15703 0.86717 0.98503 0.0
C105 C 0.17875 0.89578 0.92026 0.0
C106 C 0.20295 0.94184 0.97064 0.0
C107 C 0.22786 0.89366 0.95516 0.0
O108 O 0.22342 0.90502 0.94552 0.0
O109 O 0.2163 0.88573 0.96763 0.0
O110 O 0.19627 0.91559 0.92116 0.0
O111 O 0.16975 0.88543 0.93328 0.0
O112 O 0.08331 0.28806 0.98817 0.0
Cd113 Cd 0.11632 0.30946 0.98156 0.0
Cd114 Cd 0.0988 0.29212 0.95436 0.0
O115 O 0.07383 0.26585 0.96743 0.0
O116 O 0.13561 0.31301 1.00015 0.0
O117 O 0.13563 0.29544 0.97825 0.0
C118 C 0.14264 0.30138 0.99252 0.0
C119 C 0.1161 0.29026 0.93123 0.0
C120 C 0.06935 0.27002 0.98115 0.0
C121 C 0.11098 0.33995 0.96083 0.0
O122 O 0.09771 0.32151 0.95399 0.0
O123 O 0.12345 0.34016 0.97197 0.0
O124 O 0.09495 0.28401 0.93158 0.0
O125 O 0.12677 0.29491 0.94447 0.0
O126 O 0.80284 0.72698 0.55621 0.0
Cd127 Cd 0.81288 0.70421 0.56233 0.0
Cd128 Cd 0.80763 0.71749 0.5913 0.0
O129 O 0.80618 0.74316 0.57929 0.0
O130 O 0.82838 0.70163 0.54322 0.0
O131 O 0.84605 0.71643 0.56564 0.0
C132 C 0.84701 0.71173 0.55101 0.0
C133 C 0.8254 0.71985 0.61517 0.0
C134 C 0.80238 0.74217 0.56456 0.0
C135 C 0.77559 0.66963 0.58124 0.0
O136 O 0.77969 0.68616 0.5901 0.0
O137 O 0.78806 0.67232 0.5694 0.0
O138 O 0.80872 0.72353 0.61433 0.0
O139 O 0.83382 0.71761 0.60212 0.0
O140 O 0.276 0.07603 0.55324 0.0
Cd141 Cd 0.29906 0.10881 0.55923 0.0
Cd142 Cd 0.28577 0.09069 0.58812 0.0
O143 O 0.25976 0.06364 0.57635 0.0
O144 O 0.30174 0.12669 0.54 0.0
O145 O 0.28715 0.1301 0.56238 0.0
C146 C 0.29176 0.13546 0.54771 0.0
C147 C 0.28392 0.10704 0.61175 0.0
C148 C 0.26072 0.0606 0.56163 0.0
C149 C 0.3333 0.10527 0.57794 0.0
O150 O 0.3167 0.09313 0.58682 0.0
O151 O 0.33084 0.11537 0.56621 0.0
O152 O 0.27992 0.08655 0.6112 0.0
O153 O 0.28629 0.11736 0.59854 0.0
O154 O 0.92694 0.20375 0.55111 0.0
Cd155 Cd 0.89415 0.19356 0.55811 0.0
Cd156 Cd 0.9158 0.20517 0.58509 0.0
O157 O 0.9409 0.20202 0.57407 0.0
O158 O 0.87569 0.17698 0.53941 0.0
O159 O 0.8737 0.16039 0.56213 0.0
C160 C 0.86763 0.15871 0.54757 0.0
C161 C 0.89815 0.18992 0.60904 0.0
C162 C 0.94292 0.20448 0.55921 0.0
C163 C 0.90002 0.235 0.5725 0.0
O164 O 0.91562 0.23426 0.58 0.0
O165 O 0.88618 0.21825 0.56429 0.0
O166 O 0.91895 0.20576 0.60845 0.0
O167 O 0.88801 0.18123 0.59588 0.0
O168 O 0.94288 0.52909 0.39288 0.0
Cd169 Cd 0.96557 0.51878 0.39835 0.0
Cd170 Cd 0.95348 0.52384 0.4281 0.0
O171 O 0.9287 0.5275 0.41649 0.0
O172 O 0.96695 0.50267 0.37921 0.0
O173 O 0.95341 0.4857 0.40205 0.0
C174 C 0.95728 0.48429 0.38731 0.0
C175 C 0.94927 0.50484 0.45176 0.0
C176 C 0.92879 0.53074 0.40172 0.0
C177 C 1.00156 0.55489 0.41718 0.0
O178 O 0.98588 0.55025 0.42701 0.0
O179 O 0.99778 0.5436 0.40456 0.0
O180 O 0.94756 0.52274 0.45116 0.0
O181 O 0.9508 0.49623 0.43859 0.0
O182 O 0.46567 0.41257 0.38669 0.0
Cd183 Cd 0.47906 0.4463 0.39151 0.0
Cd184 Cd 0.47826 0.43106 0.42088 0.0
O185 O 0.47502 0.40285 0.40898 0.0
O186 O 0.49493 0.46313 0.37211 0.0
O187 O 0.51253 0.465 0.3944 0.0
C188 C 0.51361 0.47056 0.37974 0.0
C189 C 0.4974 0.446 0.44449 0.0
C190 C 0.46723 0.39802 0.39503 0.0
C191 C 0.44597 0.44771 0.4122 0.0
O192 O 0.45098 0.43594 0.42104 0.0
O193 O 0.45657 0.45587 0.39942 0.0
O194 O 0.48012 0.42602 0.44381 0.0
O195 O 0.50559 0.45644 0.43135 0.0
O196 O 0.59436 0.05387 0.38618 0.0
Cd197 Cd 0.56176 0.03366 0.39424 0.0
Cd198 Cd 0.58223 0.052 0.41995 0.0
O199 O 0.60566 0.07789 0.40593 0.0
O200 O 0.54135 0.02938 0.37617 0.0
O201 O 0.54364 0.04898 0.39753 0.0
C202 C 0.53557 0.0422 0.38358 0.0
C203 C 0.5643 0.05315 0.44289 0.0
C204 C 0.60895 0.07251 0.39223 0.0
C205 C 0.56907 0.00427 0.41472 0.0
O206 O 0.58426 0.02317 0.41997 0.0
O207 O 0.55449 0.00355 0.40512 0.0
O208 O 0.58567 0.06029 0.4427 0.0
O209 O 0.55375 0.04803 0.42959 0.0
O210 O 0.87544 0.61877 0.81491 0.0
Cd211 Cd 0.86256 0.6392 0.8089 0.0
Cd212 Cd 0.86254 0.62245 0.78063 0.0
O213 O 0.86454 0.5976 0.79357 0.0
O214 O 0.84653 0.64151 0.82779 0.0
O215 O 0.82915 0.62424 0.80578 0.0
C216 C 0.82792 0.62963 0.8202 0.0
C217 C 0.84259 0.61811 0.75749 0.0
C218 C 0.87281 0.60156 0.80741 0.0
C219 C 0.89585 0.67147 0.78726 0.0
O220 O 0.89077 0.6538 0.77939 0.0
O221 O 0.88512 0.67042 0.79972 0.0
O222 O 0.85893 0.61389 0.75795 0.0
O223 O 0.83557 0.62179 0.77069 0.0
O224 O 0.39867 0.25891 0.81196 0.0
Cd225 Cd 0.37538 0.22593 0.80672 0.0
Cd226 Cd 0.38663 0.24353 0.77721 0.0
O227 O 0.41301 0.27109 0.78834 0.0
O228 O 0.37367 0.20911 0.82629 0.0
O229 O 0.38687 0.20427 0.80373 0.0
C230 C 0.38301 0.19972 0.81856 0.0
C231 C 0.38778 0.22769 0.75314 0.0
C232 C 0.41311 0.27433 0.80312 0.0
C233 C 0.33961 0.22835 0.78917 0.0
O234 O 0.35541 0.24019 0.77964 0.0
O235 O 0.34314 0.21896 0.80087 0.0
O236 O 0.39112 0.24792 0.75401 0.0
O237 O 0.3864 0.21736 0.76618 0.0
O238 O 0.7446 0.13739 0.80895 0.0
Cd239 Cd 0.77691 0.14789 0.80101 0.0
Cd240 Cd 0.75626 0.14317 0.77406 0.0
O241 O 0.73072 0.14313 0.78718 0.0
O242 O 0.79698 0.16404 0.81919 0.0
O243 O 0.79667 0.18107 0.79714 0.0
C244 C 0.80405 0.18249 0.81133 0.0
C245 C 0.77376 0.16293 0.75119 0.0
C246 C 0.72872 0.13814 0.80176 0.0
C247 C 0.77105 0.10994 0.78157 0.0
O248 O 0.75702 0.11374 0.77445 0.0
O249 O 0.78364 0.12346 0.7922 0.0
O250 O 0.75289 0.14722 0.75116 0.0
O251 O 0.78388 0.16921 0.76463 0.0
O252 O 0.40097 0.13798 0.31526 0.0
Cd253 Cd 0.37815 0.14778 0.3088 0.0
Cd254 Cd 0.39291 0.14524 0.28044 0.0
O255 O 0.41924 0.14532 0.29266 0.0
O256 O 0.37396 0.16389 0.3271 0.0
O257 O 0.39169 0.18094 0.30515 0.0
C258 C 0.38546 0.18233 0.31925 0.0
C259 C 0.39234 0.16712 0.25982 0.0
C260 C 0.41734 0.13965 0.30711 0.0
C261 C 0.34598 0.11062 0.28823 0.0
O262 O 0.3634 0.11532 0.28017 0.0
O263 O 0.34727 0.12295 0.29986 0.0
O264 O 0.39979 0.15331 0.25768 0.0
O265 O 0.3881 0.17057 0.27405 0.0
O266 O 0.86904 0.25706 0.3126 0.0
Cd267 Cd 0.85805 0.22493 0.30406 0.0
Cd268 Cd 0.86301 0.24605 0.2776 0.0
O269 O 0.86188 0.27057 0.29119 0.0
O270 O 0.84005 0.20309 0.32103 0.0
O271 O 0.82506 0.20758 0.29921 0.0
C272 C 0.82232 0.19827 0.31286 0.0
C273 C 0.84441 0.22882 0.25439 0.0
C274 C 0.86745 0.27267 0.30566 0.0
C275 C 0.89604 0.23129 0.28455 0.0
O276 O 0.89279 0.24615 0.27816 0.0
O277 O 0.88201 0.2179 0.29463 0.0
O278 O 0.85946 0.24995 0.25471 0.0
O279 O 0.83792 0.21829 0.26767 0.0
O280 O 0.74562 0.60522 0.31539 0.0
Cd281 Cd 0.77883 0.62929 0.31198 0.0
Cd282 Cd 0.76359 0.62104 0.28065 0.0
O283 O 0.7346 0.59493 0.29085 0.0
O284 O 0.79418 0.62919 0.3319 0.0
O285 O 0.80132 0.61883 0.30893 0.0
C286 C 0.8047 0.62122 0.32396 0.0
C287 C 0.77786 0.61999 0.25583 0.0
C288 C 0.73054 0.59264 0.30558 0.0
C289 C 0.77945 0.66734 0.29523 0.0
O290 O 0.76974 0.65318 0.28426 0.0
O291 O 0.78571 0.66192 0.30775 0.0
O292 O 0.75847 0.61852 0.25743 0.0
O293 O 0.78812 0.61953 0.26845 0.0
O294 O 0.4739 0.06207 0.89008 0.0
Cd295 Cd 0.48361 0.03903 0.89611 0.0
Cd296 Cd 0.47791 0.05189 0.92496 0.0
O297 O 0.47693 0.07798 0.91322 0.0
O298 O 0.49905 0.03666 0.8769 0.0
O299 O 0.51675 0.05088 0.89939 0.0
C300 C 0.51769 0.04652 0.88469 0.0
C301 C 0.49556 0.05351 0.94874 0.0
C302 C 0.47336 0.07718 0.89847 0.0
C303 C 0.44543 0.00444 0.91433 0.0
O304 O 0.44961 0.02088 0.92332 0.0
O305 O 0.45826 0.00711 0.90271 0.0
O306 O 0.47903 0.05743 0.94806 0.0
O307 O 0.50387 0.05136 0.9356 0.0
O308 O 0.94318 0.41086 0.88451 0.0
Cd309 Cd 0.96466 0.44298 0.89308 0.0
Cd310 Cd 0.94956 0.42111 0.91919 0.0
O311 O 0.92298 0.39715 0.9061 0.0
O312 O 0.96872 0.46469 0.87596 0.0
O313 O 0.94966 0.46104 0.89789 0.0
C314 C 0.95622 0.47008 0.88415 0.0
C315 C 0.94987 0.43853 0.9428 0.0
C316 C 0.92611 0.39519 0.89154 0.0
C317 C 0.99654 0.43516 0.91081 0.0
O318 O 0.97855 0.41987 0.91704 0.0
O319 O 0.99587 0.44973 0.9019 0.0
O320 O 0.94348 0.41732 0.94228 0.0
O321 O 0.95352 0.44917 0.92959 0.0
O322 O 0.59648 0.53389 0.88644 0.0
Cd323 Cd 0.56329 0.52417 0.89087 0.0
Cd324 Cd 0.57946 0.53098 0.92113 0.0
O325 O 0.60801 0.53334 0.91061 0.0
O326 O 0.5469 0.50814 0.8714 0.0
O327 O 0.54165 0.49119 0.89443 0.0
C328 C 0.53731 0.4898 0.87954 0.0
C329 C 0.56391 0.51419 0.94531 0.0
C330 C 0.61176 0.53581 0.89585 0.0
C331 C 0.56363 0.56188 0.90791 0.0
O332 O 0.57448 0.55784 0.91824 0.0
O333 O 0.55595 0.54948 0.89577 0.0
O334 O 0.58369 0.53173 0.94439 0.0
O335 O 0.55395 0.50461 0.9323 0.0
O336 O 0.61239 0.86717 0.71993 0.0
Cd337 Cd 0.63557 0.85777 0.72658 0.0
Cd338 Cd 0.621 0.86215 0.7546 0.0
O339 O 0.59427 0.86108 0.74247 0.0
O340 O 0.63917 0.84235 0.70778 0.0
O341 O 0.62369 0.8247 0.73009 0.0
C342 C 0.62897 0.82374 0.7156 0.0
C343 C 0.62042 0.84474 0.7783 0.0
C344 C 0.59606 0.86593 0.72788 0.0
C345 C 0.66812 0.89632 0.74529 0.0
O346 O 0.65067 0.89194 0.75318 0.0
O347 O 0.66693 0.88302 0.73439 0.0
O348 O 0.61488 0.86016 0.77767 0.0
O349 O 0.62369 0.83729 0.76514 0.0
O350 O 0.13964 0.74377 0.71872 0.0
Cd351 Cd 0.14889 0.77683 0.72335 0.0
Cd352 Cd 0.14304 0.76045 0.75343 0.0
O353 O 0.14148 0.73241 0.7427 0.0
O354 O 0.16426 0.79344 0.70376 0.0
O355 O 0.18186 0.79885 0.72654 0.0
C356 C 0.18279 0.80321 0.71166 0.0
C357 C 0.15981 0.77617 0.77757 0.0
C358 C 0.13853 0.72866 0.72797 0.0
C359 C 0.11094 0.77514 0.74091 0.0
O360 O 0.1154 0.76419 0.7509 0.0
O361 O 0.1233 0.78356 0.72882 0.0
O362 O 0.14271 0.75609 0.77665 0.0
O363 O 0.16904 0.7864 0.76456 0.0
O364 O 0.26262 0.39439 0.72774 0.0
Cd365 Cd 0.22965 0.37185 0.73342 0.0
Cd366 Cd 0.24741 0.38383 0.76318 0.0
O367 O 0.27548 0.40867 0.75128 0.0
O368 O 0.21202 0.37034 0.71438 0.0
O369 O 0.20886 0.38418 0.73718 0.0
C370 C 0.20337 0.38008 0.7225 0.0
C371 C 0.23366 0.38765 0.78743 0.0
C372 C 0.27843 0.40853 0.73647 0.0
C373 C 0.2296 0.33566 0.75212 0.0
O374 O 0.24116 0.35135 0.7618 0.0
O375 O 0.22186 0.33953 0.73967 0.0
O376 O 0.25326 0.38951 0.78617 0.0
O377 O 0.22295 0.38635 0.77459 0.0
O378 O 0.53519 0.93907 0.14831 0.0
Cd379 Cd 0.52588 0.96266 0.14293 0.0
Cd380 Cd 0.53091 0.95048 0.11356 0.0
O381 O 0.53188 0.92406 0.12478 0.0
O382 O 0.51038 0.96481 0.16219 0.0
O383 O 0.49289 0.95135 0.13952 0.0
C384 C 0.49186 0.95549 0.15426 0.0
C385 C 0.51327 0.94924 0.08983 0.0
C386 C 0.53553 0.92423 0.13949 0.0
C387 C 0.56383 0.99758 0.12467 0.0
O388 O 0.55928 0.98141 0.11533 0.0
O389 O 0.55136 0.99462 0.13657 0.0
O390 O 0.52983 0.94536 0.09041 0.0
O391 O 0.50496 0.95119 0.10302 0.0
O392 O 0.06191 0.59305 0.14315 0.0
Cd393 Cd 0.0388 0.56 0.13814 0.0
Cd394 Cd 0.04999 0.57655 0.10814 0.0
O395 O 0.07554 0.60493 0.11932 0.0
O396 O 0.03794 0.54285 0.15733 0.0
O397 O 0.05061 0.53877 0.13431 0.0
C398 C 0.04723 0.53383 0.14911 0.0
C399 C 0.05253 0.56121 0.0842 0.0
C400 C 0.0759 0.60845 0.13408 0.0
C401 C 1.00249 0.56049 0.11994 0.0
O402 O 0.01793 0.57135 0.10994 0.0
O403 O 0.00646 0.55284 0.13241 0.0
O404 O 0.0549 0.58108 0.08498 0.0
O405 O 0.0514 0.5511 0.09729 0.0
O406 O 0.40965 0.46628 0.14514 0.0
Cd407 Cd 0.44281 0.47715 0.13966 0.0
Cd408 Cd 0.42567 0.47317 0.10998 0.0
O409 O 0.39736 0.46944 0.1218 0.0
O410 O 0.45999 0.4926 0.15906 0.0
O411 O 0.4632 0.5105 0.1367 0.0
C412 C 0.46836 0.51135 0.15142 0.0
C413 C 0.44072 0.49225 0.08641 0.0
C414 C 0.39407 0.46532 0.13649 0.0
C415 C 0.44299 0.44197 0.11977 0.0
O416 O 0.43139 0.44659 0.11048 0.0
O417 O 0.45089 0.45304 0.13244 0.0
O418 O 0.42091 0.47467 0.08698 0.0
O419 O 0.45083 0.5007 0.09961 0.0
O420 O 0.05934 0.46532 0.65292 0.0
Cd421 Cd 0.03633 0.47499 0.64601 0.0
Cd422 Cd 0.04641 0.46363 0.61895 0.0
O423 O 0.07488 0.46727 0.62984 0.0
O424 O 0.03454 0.49199 0.66451 0.0
O425 O 0.04869 0.50798 0.64154 0.0
C426 C 0.04451 0.51003 0.6561 0.0
C427 C 0.04397 0.47844 0.59482 0.0
C428 C 0.07465 0.46488 0.64469 0.0
C429 C 1.00103 0.4333 0.63185 0.0
O430 O 0.01739 0.43436 0.62414 0.0
O431 O 0.00376 0.44993 0.64015 0.0
O432 O 0.04902 0.46266 0.59562 0.0
O433 O 0.04235 0.48728 0.60786 0.0
O434 O 0.5356 0.59241 0.64843 0.0
Cd435 Cd 0.5251 0.55901 0.64412 0.0
Cd436 Cd 0.53248 0.576 0.61318 0.0
O437 O 0.5363 0.60484 0.62432 0.0
O438 O 0.50982 0.5433 0.664 0.0
O439 O 0.49183 0.53766 0.64139 0.0
C440 C 0.4911 0.53372 0.65632 0.0
C441 C 0.51684 0.56302 0.58827 0.0
C442 C 0.53843 0.60816 0.63914 0.0
C443 C 0.56151 0.5576 0.6264 0.0
O444 O 0.55772 0.56856 0.61601 0.0
O445 O 0.54974 0.55084 0.63887 0.0
O446 O 0.53503 0.58211 0.59008 0.0
O447 O 0.50604 0.55244 0.6008 0.0
O448 O 0.41322 0.94236 0.64385 0.0
Cd449 Cd 0.44633 0.96517 0.63875 0.0
Cd450 Cd 0.42951 0.95382 0.60873 0.0
O451 O 0.40115 0.92858 0.62008 0.0
O452 O 0.46336 0.96601 0.65799 0.0
O453 O 0.46721 0.9529 0.63507 0.0
C454 C 0.47214 0.95639 0.64987 0.0
C455 C 0.44416 0.95073 0.58466 0.0
C456 C 0.39773 0.92837 0.63484 0.0
C457 C 0.44641 1.00161 0.62031 0.0
O458 O 0.43529 0.9861 0.61041 0.0
O459 O 0.45399 0.99761 0.6328 0.0
O460 O 0.42446 0.94869 0.58563 0.0
O461 O 0.45448 0.95183 0.59765 0.0
O462 O 0.13592 0.39215 0.21856 0.0
Cd463 Cd 0.14571 0.36936 0.22553 0.0
Cd464 Cd 0.1415 0.38447 0.25323 0.0
O465 O 0.14204 0.41079 0.24087 0.0
O466 O 0.16103 0.36548 0.20679 0.0
O467 O 0.17884 0.38161 0.22891 0.0
C468 C 0.17971 0.37601 0.21449 0.0
C469 C 0.16017 0.38564 0.27642 0.0
C470 C 0.13704 0.4086 0.2263 0.0
C471 C 0.1076 0.33701 0.24472 0.0
O472 O 0.11182 0.35463 0.25234 0.0
O473 O 0.12085 0.3381 0.23383 0.0
O474 O 0.14465 0.39107 0.27625 0.0
O475 O 0.16696 0.38216 0.26305 0.0
O476 O 0.60606 0.73894 0.22256 0.0
Cd477 Cd 0.62994 0.77133 0.22872 0.0
Cd478 Cd 0.61488 0.75437 0.25706 0.0
O479 O 0.58779 0.72848 0.24515 0.0
O480 O 0.63444 0.79004 0.20954 0.0
O481 O 0.61881 0.79322 0.23147 0.0
C482 C 0.62441 0.79899 0.21698 0.0
C483 C 0.61656 0.77768 0.27744 0.0
C484 C 0.58945 0.72463 0.23067 0.0
C485 C 0.66142 0.76517 0.24913 0.0
O486 O 0.64388 0.75287 0.25719 0.0
O487 O 0.6605 0.77639 0.23749 0.0
O488 O 0.60847 0.75638 0.27979 0.0
O489 O 0.62087 0.78505 0.26313 0.0
O490 O 0.26059 0.866 0.21927 0.0
Cd491 Cd 0.22755 0.85701 0.22339 0.0
Cd492 Cd 0.24315 0.86239 0.25415 0.0
O493 O 0.27166 0.86474 0.24347 0.0
O494 O 0.2114 0.84172 0.20364 0.0
O495 O 0.20532 0.82405 0.22645 0.0
C496 C 0.20138 0.82315 0.21151 0.0
C497 C 0.22801 0.84558 0.27843 0.0
C498 C 0.2756 0.86741 0.22874 0.0
C499 C 0.22817 0.89428 0.24124 0.0
O500 O 0.23816 0.88931 0.25168 0.0
O501 O 0.22108 0.88283 0.22864 0.0
O502 O 0.24779 0.86308 0.27737 0.0
O503 O 0.2178 0.83602 0.26548 0.0
H504 H 0.2801 0.15164 0.13424 0.0
H505 H 0.29447 0.14795 0.15987 0.0
H506 H 0.33398 0.2204 0.1634 0.0
H507 H 0.31835 0.22404 0.13872 0.0
H508 H 0.33281 0.15723 0.16845 0.0
H509 H 0.31247 0.20958 0.2065 0.0
H510 H 0.30126 0.20194 0.18688 0.0
H511 H 0.3287 0.2263 0.19019 0.0
C512 C 0.2913 0.16671 0.14078 0.0
C513 C 0.29774 0.1881 0.1346 0.0
C514 C 0.29967 0.16464 0.15538 0.0
C515 C 0.31505 0.18391 0.1639 0.0
C516 C 0.32146 0.20522 0.15759 0.0
H517 H 0.40953 0.17681 0.22984 0.0
H518 H 0.39182 0.18269 0.20666 0.0
C519 C 0.31257 0.20728 0.14333 0.0
C520 C 0.32582 0.18192 0.17865 0.0
H521 H 0.34333 0.20474 0.21524 0.0
C522 C 0.33475 0.16738 0.17877 0.0
C523 C 0.32816 0.19478 0.19234 0.0
C524 C 0.31688 0.20878 0.19401 0.0
C525 C 0.34622 0.16565 0.19193 0.0
C526 C 0.35021 0.17993 0.2051 0.0
C527 C 0.34088 0.19414 0.20509 0.0
C528 C 0.36289 0.17956 0.21932 0.0
C529 C 0.3532 0.14794 0.19164 0.0
C530 C 0.3538 0.17799 0.23442 0.0
C531 C 0.36458 0.17592 0.24774 0.0
C532 C 0.38444 0.17484 0.24626 0.0
C533 C 0.39418 0.17751 0.2313 0.0
C534 C 0.3838 0.18042 0.21801 0.0
H535 H 0.34241 0.1339 0.18354 0.0
H536 H 0.37077 0.15558 0.18728 0.0
H537 H 0.3522 0.14077 0.20351 0.0
H538 H 0.33782 0.17742 0.2359 0.0
H539 H 0.3565 0.17363 0.25909 0.0
H540 H 0.85733 0.15099 0.11954 0.0
H541 H 0.86103 0.17203 0.14371 0.0
H542 H 0.81835 0.10981 0.16811 0.0
H543 H 0.81471 0.08865 0.1441 0.0
H544 H 0.82352 0.17051 0.15832 0.0
H545 H 0.86873 0.1447 0.19998 0.0
H546 H 0.86898 0.14084 0.17897 0.0
H547 H 0.84504 0.12158 0.19051 0.0
C548 C 0.84934 0.14171 0.13017 0.0
C549 C 0.83571 0.11811 0.12986 0.0
C550 C 0.85133 0.1538 0.14396 0.0
C551 C 0.83998 0.14251 0.15773 0.0
C552 C 0.82751 0.11888 0.15771 0.0
H553 H 0.81769 0.18336 0.24984 0.0
H554 H 0.81453 0.1623 0.2258 0.0
C555 C 0.82544 0.1068 0.14393 0.0
C556 C 0.8393 0.15541 0.17161 0.0
H557 H 0.85104 0.16394 0.21088 0.0
C558 C 0.82969 0.16922 0.1698 0.0
C559 C 0.84712 0.15351 0.1866 0.0
C560 C 0.85823 0.13952 0.18916 0.0
C561 C 0.82738 0.1809 0.18261 0.0
C562 C 0.83525 0.17906 0.19761 0.0
C563 C 0.84487 0.16525 0.19941 0.0
C564 C 0.83445 0.19187 0.21151 0.0
C565 C 0.81605 0.19469 0.18004 0.0
C566 C 0.84613 0.21552 0.21139 0.0
C567 C 0.84782 0.22762 0.22508 0.0
C568 C 0.83803 0.21631 0.23926 0.0
C569 C 0.82533 0.19263 0.23914 0.0
C570 C 0.82364 0.18054 0.22542 0.0
H571 H 0.8052 0.1891 0.16939 0.0
H572 H 0.80559 0.19365 0.19034 0.0
H573 H 0.82911 0.2126 0.17832 0.0
H574 H 0.85493 0.22466 0.2009 0.0
H575 H 0.85788 0.24582 0.22476 0.0
H576 H 0.75955 0.61984 0.22727 0.0
H577 H 0.77966 0.6367 0.20279 0.0
H578 H 0.84227 0.65163 0.22483 0.0
H579 H 0.8222 0.63443 0.2493 0.0
H580 H 0.81176 0.68093 0.19965 0.0
H581 H 0.84747 0.627 0.18266 0.0
H582 H 0.82529 0.61834 0.19707 0.0
H583 H 0.85409 0.63734 0.20247 0.0
C584 C 0.77752 0.62615 0.22681 0.0
C585 C 0.78925 0.62572 0.24026 0.0
C586 C 0.78902 0.63592 0.21281 0.0
C587 C 0.81248 0.64541 0.21191 0.0
C588 C 0.82412 0.64409 0.22511 0.0
H589 H 0.91454 0.72448 0.14248 0.0
H590 H 0.89395 0.70768 0.1668 0.0
C591 C 0.8126 0.63422 0.23912 0.0
C592 C 0.82488 0.65826 0.19765 0.0
H593 H 0.86173 0.6619 0.16913 0.0
C594 C 0.82258 0.67667 0.19292 0.0
C595 C 0.83907 0.65279 0.18889 0.0
C596 C 0.84151 0.63267 0.19292 0.0
C597 C 0.83433 0.68995 0.17985 0.0
C598 C 0.84859 0.68454 0.17115 0.0
C599 C 0.85088 0.66612 0.17586 0.0
C600 C 0.86114 0.6975 0.15699 0.0
C601 C 0.83175 0.70994 0.17566 0.0
C602 C 0.84961 0.69799 0.14347 0.0
C603 C 0.86137 0.70773 0.1295 0.0
C604 C 0.88488 0.717 0.12878 0.0
C605 C 0.89646 0.71756 0.1426 0.0
C606 C 0.8847 0.70783 0.15652 0.0
H607 H 0.82497 0.7152 0.18566 0.0
H608 H 0.84813 0.72449 0.172 0.0
H609 H 0.81984 0.70537 0.16567 0.0
H610 H 0.83141 0.68986 0.14347 0.0
H611 H 0.85189 0.70679 0.11907 0.0
H612 H 0.15274 0.30094 0.41274 0.0
H613 H 0.14861 0.3176 0.38837 0.0
H614 H 0.19113 0.29758 0.36413 0.0
H615 H 0.1952 0.28077 0.38833 0.0
H616 H 0.18542 0.35312 0.37273 0.0
H617 H 0.13947 0.2798 0.33294 0.0
H618 H 0.13999 0.27686 0.35403 0.0
H619 H 0.16364 0.2812 0.34226 0.0
C620 C 0.16067 0.29948 0.40212 0.0
C621 C 0.17429 0.28948 0.40251 0.0
C622 C 0.15843 0.30917 0.38822 0.0
C623 C 0.16951 0.3088 0.3744 0.0
C624 C 0.18215 0.2978 0.37456 0.0
H625 H 0.18714 0.36707 0.2808 0.0
H626 H 0.19153 0.35035 0.30504 0.0
C627 C 0.18448 0.28821 0.38845 0.0
C628 C 0.16952 0.32155 0.36024 0.0
H629 H 0.1562 0.31607 0.32115 0.0
C630 C 0.17889 0.345 0.36147 0.0
C631 C 0.16123 0.311 0.34552 0.0
C632 C 0.15033 0.28581 0.34357 0.0
C633 C 0.18048 0.35822 0.34835 0.0
C634 C 0.17211 0.34766 0.33363 0.0
C635 C 0.16276 0.3242 0.3324 0.0
C636 C 0.17202 0.36041 0.31948 0.0
C637 C 0.19158 0.38343 0.35032 0.0
C638 C 0.16008 0.37213 0.31959 0.0
C639 C 0.15769 0.38185 0.30578 0.0
C640 C 0.16701 0.37988 0.29151 0.0
C641 C 0.17988 0.36906 0.29158 0.0
C642 C 0.18227 0.35934 0.30542 0.0
H643 H 0.20295 0.38937 0.3607 0.0
H644 H 0.20145 0.39237 0.3397 0.0
H645 H 0.1784 0.3881 0.35217 0.0
H646 H 0.15168 0.37287 0.33018 0.0
H647 H 0.14752 0.38989 0.30615 0.0
H648 H 0.65457 0.81839 0.27823 0.0
H649 H 0.67369 0.84063 0.30143 0.0
H650 H 0.61679 0.79575 0.33018 0.0
H651 H 0.59856 0.7722 0.30705 0.0
H652 H 0.67012 0.86453 0.32123 0.0
H653 H 0.66261 0.79238 0.35507 0.0
H654 H 0.65374 0.7896 0.33488 0.0
H655 H 0.63524 0.7881 0.35058 0.0
C656 C 0.64598 0.81344 0.28947 0.0
C657 C 0.62509 0.79354 0.29085 0.0
C658 C 0.65701 0.82614 0.3028 0.0
C659 C 0.64715 0.81958 0.3178 0.0
C660 C 0.62535 0.80068 0.31895 0.0
H661 H 0.69489 0.91103 0.39709 0.0
H662 H 0.67938 0.89166 0.37242 0.0
C663 C 0.61469 0.78745 0.30568 0.0
C664 C 0.65991 0.8324 0.33208 0.0
H665 H 0.67419 0.8263 0.36955 0.0
C666 C 0.67116 0.85608 0.33171 0.0
C667 C 0.66208 0.82167 0.34572 0.0
C668 C 0.653 0.79657 0.34652 0.0
C669 C 0.68401 0.86918 0.34452 0.0
C670 C 0.68451 0.8584 0.35863 0.0
C671 C 0.67367 0.83475 0.3589 0.0
C672 C 0.69528 0.87115 0.3734 0.0
C673 C 0.69741 0.89443 0.34246 0.0
C674 C 0.70887 0.86569 0.38276 0.0
C675 C 0.71709 0.87623 0.39736 0.0
C676 C 0.71235 0.89283 0.4027 0.0
C677 C 0.69938 0.89874 0.39314 0.0
C678 C 0.69057 0.88772 0.37888 0.0
H679 H 0.70272 0.89895 0.33001 0.0
H680 H 0.68668 0.90178 0.34553 0.0
H681 H 0.7127 0.90223 0.34996 0.0
H682 H 0.71274 0.85292 0.37893 0.0
H683 H 0.72682 0.87115 0.40456 0.0
H684 H 0.08841 0.80878 0.39121 0.0
H685 H 0.10937 0.81288 0.36699 0.0
H686 H 0.17171 0.85581 0.39113 0.0
H687 H 0.15085 0.85196 0.41546 0.0
H688 H 0.16956 0.86987 0.3598 0.0
H689 H 0.14524 0.7795 0.3623 0.0
H690 H 0.12204 0.78474 0.36273 0.0
H691 H 0.14171 0.79409 0.37879 0.0
C692 C 0.10655 0.81949 0.39133 0.0
C693 C 0.11795 0.8299 0.40534 0.0
C694 C 0.11852 0.82163 0.37748 0.0
C695 C 0.14213 0.83414 0.37736 0.0
C696 C 0.1535 0.84587 0.39101 0.0
H697 H 0.24585 0.86144 0.30752 0.0
H698 H 0.22527 0.85757 0.33189 0.0
C699 C 0.14152 0.84375 0.40489 0.0
C700 C 0.15496 0.83417 0.36323 0.0
H701 H 0.16509 0.79973 0.3396 0.0
C702 C 0.16867 0.85457 0.35541 0.0
C703 C 0.15378 0.81416 0.35753 0.0
C704 C 0.14007 0.79189 0.36582 0.0
C705 C 0.18086 0.85544 0.34185 0.0
C706 C 0.1797 0.83543 0.33614 0.0
C707 C 0.166 0.81503 0.34398 0.0
C708 C 0.19241 0.8354 0.32195 0.0
C709 C 0.19443 0.87771 0.33351 0.0
C710 C 0.18093 0.82304 0.30852 0.0
C711 C 0.19271 0.82497 0.29457 0.0
C712 C 0.21619 0.83929 0.29383 0.0
C713 C 0.22776 0.85038 0.30763 0.0
C714 C 0.216 0.84838 0.32156 0.0
H715 H 0.189 0.88994 0.33691 0.0
H716 H 0.21245 0.8851 0.33673 0.0
H717 H 0.19297 0.87546 0.32054 0.0
H718 H 0.16274 0.81272 0.30861 0.0
H719 H 0.18325 0.81624 0.28416 0.0
H720 H 0.64032 0.81914 0.78351 0.0
H721 H 0.65772 0.81655 0.80795 0.0
H722 H 0.63278 0.8551 0.83209 0.0
H723 H 0.61556 0.85799 0.80769 0.0
H724 H 0.67872 0.87274 0.83579 0.0
H725 H 0.63303 0.78112 0.84865 0.0
H726 H 0.64421 0.78806 0.82905 0.0
H727 H 0.62243 0.79384 0.83505 0.0
C728 C 0.63797 0.82652 0.79411 0.0
C729 C 0.62651 0.83877 0.79361 0.0
C730 C 0.64797 0.82504 0.8081 0.0
C731 C 0.64653 0.83559 0.82189 0.0
C732 C 0.63415 0.84686 0.8216 0.0
H733 H 0.70338 0.85701 0.91603 0.0
H734 H 0.68701 0.86028 0.8913 0.0
C735 C 0.62418 0.84837 0.80764 0.0
C736 C 0.65939 0.83649 0.83624 0.0
H737 H 0.66603 0.80378 0.8636 0.0
C738 C 0.67587 0.85766 0.84193 0.0
C739 C 0.65577 0.81683 0.84419 0.0
C740 C 0.63777 0.79367 0.83904 0.0
C741 C 0.68902 0.8597 0.85518 0.0
C742 C 0.68538 0.84004 0.86315 0.0
C743 C 0.66892 0.81886 0.85746 0.0
C744 C 0.69805 0.8409 0.8776 0.0
C745 C 0.70702 0.88286 0.86033 0.0
C746 C 0.71009 0.8293 0.87813 0.0
C747 C 0.71946 0.82738 0.89226 0.0
C748 C 0.71686 0.83692 0.90623 0.0
C749 C 0.70593 0.84967 0.90548 0.0
C750 C 0.69652 0.85153 0.89132 0.0
H751 H 0.71195 0.89533 0.85065 0.0
H752 H 0.70046 0.8886 0.87017 0.0
H753 H 0.72226 0.88266 0.86452 0.0
H754 H 0.71154 0.82099 0.8677 0.0
H755 H 0.72769 0.81738 0.89239 0.0
H756 H 0.14879 0.85115 0.91462 0.0
H757 H 0.14478 0.83049 0.89017 0.0
H758 H 0.1904 0.89271 0.86682 0.0
H759 H 0.19431 0.91351 0.89108 0.0
H760 H 0.15399 0.86268 0.84785 0.0
H761 H 0.19663 0.82066 0.87575 0.0
H762 H 0.17194 0.81688 0.88587 0.0
H763 H 0.19634 0.8445 0.88457 0.0
C764 C 0.15753 0.86052 0.90419 0.0
C765 C 0.17202 0.88398 0.90487 0.0
C766 C 0.15542 0.84864 0.89026 0.0
C767 C 0.16778 0.85999 0.8768 0.0
C768 C 0.1809 0.88357 0.87711 0.0
H769 H 0.18899 0.82104 0.7831 0.0
H770 H 0.1925 0.84177 0.80743 0.0
C771 C 0.18305 0.89545 0.89101 0.0
C772 C 0.16806 0.84735 0.86264 0.0
H773 H 0.18334 0.80955 0.84977 0.0
C774 C 0.16043 0.85109 0.84825 0.0
C775 C 0.17662 0.83234 0.86317 0.0
C776 C 0.18605 0.82844 0.87812 0.0
C777 C 0.1607 0.83988 0.83445 0.0
C778 C 0.16926 0.82486 0.83498 0.0
C779 C 0.17689 0.82113 0.84937 0.0
C780 C 0.1696 0.81224 0.82083 0.0
C781 C 0.15129 0.84378 0.8195 0.0
C782 C 0.15666 0.78865 0.82056 0.0
C783 C 0.1548 0.77674 0.80673 0.0
C784 C 0.16594 0.78818 0.7929 0.0
C785 C 0.18017 0.81169 0.79352 0.0
C786 C 0.18199 0.8236 0.80737 0.0
H787 H 0.14066 0.85151 0.82187 0.0
H788 H 0.1654 0.8554 0.81177 0.0
H789 H 0.14105 0.82774 0.81302 0.0
H790 H 0.14714 0.7795 0.83084 0.0
H791 H 0.14373 0.75864 0.8067 0.0
H792 H 0.16162 0.30971 0.92628 0.0
H793 H 0.1819 0.32648 0.90174 0.0
H794 H 0.11877 0.30101 0.87724 0.0
H795 H 0.09835 0.28426 0.90165 0.0
H796 H 0.18041 0.30851 0.87045 0.0
H797 H 0.15065 0.37056 0.8715 0.0
H798 H 0.14892 0.3539 0.88846 0.0
H799 H 0.12892 0.34151 0.87273 0.0
C800 C 0.15203 0.30721 0.91561 0.0
C801 C 0.12833 0.29578 0.91599 0.0
C802 C 0.16366 0.31692 0.9016 0.0
C803 C 0.15182 0.31546 0.88777 0.0
C804 C 0.12822 0.30274 0.88786 0.0
H805 H 0.18896 0.37158 0.79373 0.0
H806 H 0.16947 0.35531 0.81858 0.0
C807 C 0.11659 0.293 0.90182 0.0
C808 C 0.16406 0.32811 0.87346 0.0
H809 H 0.17139 0.37097 0.84909 0.0
C810 C 0.17853 0.32222 0.8658 0.0
C811 C 0.16154 0.34599 0.86742 0.0
C812 C 0.14682 0.35357 0.87549 0.0
C813 C 0.1902 0.33342 0.85207 0.0
C814 C 0.18777 0.35139 0.84605 0.0
C815 C 0.1733 0.35727 0.85373 0.0
C816 C 0.19982 0.36393 0.83162 0.0
C817 C 0.20454 0.32546 0.84389 0.0
C818 C 0.22343 0.37529 0.83091 0.0
C819 C 0.23462 0.38461 0.81674 0.0
C820 C 0.22242 0.38298 0.80301 0.0
C821 C 0.19888 0.3732 0.80407 0.0
C822 C 0.18769 0.36376 0.81826 0.0
H823 H 0.19995 0.30811 0.84752 0.0
H824 H 0.20288 0.32575 0.8309 0.0
H825 H 0.22247 0.33683 0.847 0.0
H826 H 0.2332 0.37622 0.84119 0.0
H827 H 0.25277 0.39214 0.81637 0.0
H828 H 0.85263 0.70185 0.62069 0.0
H829 H 0.85518 0.68436 0.64514 0.0
H830 H 0.8143 0.7069 0.66882 0.0
H831 H 0.81141 0.72417 0.64444 0.0
H832 H 0.86934 0.69955 0.67615 0.0
H833 H 0.77764 0.63818 0.67382 0.0
H834 H 0.79287 0.65598 0.65738 0.0
H835 H 0.78462 0.66717 0.67359 0.0
C836 C 0.84462 0.70356 0.63118 0.0
C837 C 0.83163 0.71424 0.63055 0.0
C838 C 0.84599 0.69342 0.64514 0.0
C839 C 0.83438 0.69376 0.65868 0.0
C840 C 0.82288 0.7059 0.6584 0.0
H841 H 0.81551 0.63639 0.75236 0.0
H842 H 0.81232 0.65341 0.72787 0.0
C843 C 0.82145 0.71597 0.64447 0.0
C844 C 0.83345 0.68058 0.67285 0.0
H845 H 0.7971 0.63721 0.69658 0.0
C846 C 0.85357 0.68588 0.68058 0.0
C847 C 0.81284 0.66267 0.6786 0.0
C848 C 0.79076 0.65547 0.67036 0.0
C849 C 0.8536 0.67407 0.6941 0.0
C850 C 0.83299 0.65618 0.69986 0.0
C851 C 0.81286 0.65089 0.69213 0.0
C852 C 0.8321 0.64305 0.71403 0.0
C853 C 0.87567 0.68117 0.70231 0.0
C854 C 0.84318 0.6305 0.71416 0.0
C855 C 0.84492 0.62064 0.7281 0.0
C856 C 0.83555 0.62308 0.7422 0.0
C857 C 0.82289 0.63413 0.74173 0.0
C858 C 0.82117 0.64401 0.72776 0.0
H859 H 0.88895 0.69831 0.6987 0.0
H860 H 0.87363 0.68094 0.71529 0.0
H861 H 0.88155 0.6692 0.69926 0.0
H862 H 0.85127 0.62909 0.7036 0.0
H863 H 0.8547 0.61218 0.72799 0.0
H864 H 0.37078 0.18259 0.74775 0.0
H865 H 0.35362 0.16206 0.72337 0.0
H866 H 0.37296 0.22481 0.69976 0.0
H867 H 0.39031 0.24542 0.72394 0.0
H868 H 0.31777 0.16316 0.70853 0.0
H869 H 0.39002 0.19164 0.66757 0.0
H870 H 0.39355 0.19506 0.68864 0.0
H871 H 0.38861 0.21424 0.67721 0.0
C872 C 0.37199 0.19207 0.73725 0.0
C873 C 0.38196 0.21567 0.73782 0.0
C874 C 0.36201 0.18029 0.72334 0.0
C875 C 0.36204 0.19188 0.7097 0.0
C876 C 0.373 0.2155 0.71003 0.0
H877 H 0.30126 0.15229 0.61673 0.0
H878 H 0.31819 0.17309 0.64106 0.0
C879 C 0.38291 0.22727 0.72392 0.0
C880 C 0.34897 0.1793 0.69559 0.0
H881 H 0.35345 0.17225 0.65621 0.0
C882 C 0.32559 0.16502 0.6971 0.0
C883 C 0.35913 0.18191 0.68066 0.0
C884 C 0.38424 0.19638 0.67839 0.0
C885 C 0.31207 0.15354 0.68407 0.0
C886 C 0.32224 0.1561 0.66914 0.0
C887 C 0.34562 0.17041 0.66763 0.0
C888 C 0.3092 0.1434 0.65504 0.0
C889 C 0.28696 0.13915 0.68635 0.0
C890 C 0.29797 0.11976 0.65489 0.0
C891 C 0.28816 0.10783 0.64105 0.0
C892 C 0.28951 0.11928 0.62698 0.0
C893 C 0.29974 0.14291 0.62735 0.0
C894 C 0.30959 0.15485 0.64123 0.0
H895 H 0.28119 0.1442 0.69702 0.0
H896 H 0.27765 0.14019 0.676 0.0
H897 H 0.28257 0.12132 0.68784 0.0
H898 H 0.29776 0.11054 0.66529 0.0
H899 H 0.28056 0.08966 0.64119 0.0
H900 H 0.85283 0.16234 0.61385 0.0
H901 H 0.83172 0.15824 0.63808 0.0
H902 H 0.89379 0.20106 0.66257 0.0
H903 H 0.91504 0.20512 0.63848 0.0
H904 H 0.86251 0.16308 0.68017 0.0
H905 H 0.82314 0.20997 0.655 0.0
H906 H 0.81918 0.18611 0.64365 0.0
H907 H 0.84698 0.20994 0.64596 0.0
C908 C 0.86204 0.17057 0.62445 0.0
C909 C 0.88564 0.18417 0.62418 0.0
C910 C 0.84992 0.16839 0.63826 0.0
C911 C 0.86115 0.17978 0.65204 0.0
C912 C 0.88476 0.1923 0.65204 0.0
H913 H 0.81908 0.19153 0.74714 0.0
H914 H 0.8408 0.19746 0.72296 0.0
C915 C 0.89689 0.19454 0.63824 0.0
C916 C 0.84834 0.17922 0.66634 0.0
H917 H 0.81073 0.19409 0.6803 0.0
C918 C 0.85125 0.16992 0.68023 0.0
C919 C 0.8337 0.18823 0.6664 0.0
C920 C 0.83064 0.19932 0.65201 0.0
C921 C 0.83954 0.16892 0.69409 0.0
C922 C 0.82488 0.17793 0.69415 0.0
C923 C 0.82203 0.18728 0.68026 0.0
C924 C 0.81174 0.17696 0.70838 0.0
C925 C 0.84249 0.15763 0.70841 0.0
C926 C 0.78812 0.16466 0.70802 0.0
C927 C 0.77563 0.16148 0.72178 0.0
C928 C 0.78653 0.17059 0.73619 0.0
C929 C 0.81013 0.18422 0.73628 0.0
C930 C 0.8226 0.18742 0.72249 0.0
H931 H 0.84984 0.14688 0.70534 0.0
H932 H 0.85406 0.17072 0.71679 0.0
H933 H 0.82614 0.14707 0.71446 0.0
H934 H 0.77935 0.15663 0.69724 0.0
H935 H 0.75749 0.1509 0.72125 0.0
H936 H 0.96299 0.47405 0.45697 0.0
H937 H 0.97752 0.46781 0.48164 0.0
H938 H 0.96053 0.51282 0.50565 0.0
H939 H 0.9458 0.51895 0.48117 0.0
H940 H 0.01365 0.50257 0.49775 0.0
H941 H 0.93883 0.46064 0.53666 0.0
H942 H 0.93658 0.4618 0.51555 0.0
H943 H 0.94234 0.48579 0.52748 0.0
C944 C 0.96169 0.48207 0.4676 0.0
C945 C 0.95321 0.49699 0.46708 0.0
C946 C 0.97016 0.47861 0.48168 0.0
C947 C 0.97006 0.48978 0.49552 0.0
C948 C 0.96048 0.50372 0.4952 0.0
H949 H 0.02685 0.50646 0.58945 0.0
H950 H 0.01045 0.5106 0.56495 0.0
C951 C 0.95208 0.50724 0.48115 0.0
C952 C 0.98186 0.48865 0.50987 0.0
H953 H 0.97466 0.47559 0.54902 0.0
C954 C 0.00509 0.49648 0.50894 0.0
C955 C 0.97075 0.48095 0.5245 0.0
C956 C 0.94571 0.47162 0.52613 0.0
C957 C 0.01756 0.49719 0.52226 0.0
C958 C 0.00645 0.48949 0.53689 0.0
C959 C 0.98321 0.48162 0.53783 0.0
C960 C 0.01842 0.48881 0.55129 0.0
C961 C 0.04262 0.50669 0.52062 0.0
C962 C 0.02869 0.47549 0.55171 0.0
C963 C 0.03817 0.4732 0.56566 0.0
C964 C 0.03746 0.48404 0.57954 0.0
C965 C 0.02785 0.498 0.57896 0.0
C966 C 0.01833 0.50027 0.56499 0.0
H967 H 0.04943 0.51762 0.51007 0.0
H968 H 0.05173 0.51663 0.53117 0.0
H969 H 0.04614 0.49262 0.51933 0.0
H970 H 0.02862 0.46616 0.5414 0.0
H971 H 0.04527 0.46218 0.56569 0.0
H972 H 0.52722 0.49074 0.44996 0.0
H973 H 0.53211 0.5113 0.47459 0.0
H974 H 0.48748 0.44888 0.49814 0.0
H975 H 0.48286 0.42825 0.47376 0.0
H976 H 0.49766 0.51278 0.48987 0.0
H977 H 0.53714 0.4792 0.53027 0.0
H978 H 0.53655 0.47539 0.50922 0.0
H979 H 0.51227 0.4574 0.52099 0.0
C980 C 0.51904 0.4813 0.4605 0.0
C981 C 0.50467 0.45781 0.45986 0.0
C982 C 0.5217 0.49311 0.47455 0.0
C983 C 0.51024 0.48166 0.48827 0.0
C984 C 0.49684 0.4581 0.48784 0.0
H985 H 0.48647 0.51902 0.58119 0.0
H986 H 0.48327 0.49959 0.55628 0.0
C987 C 0.49418 0.4463 0.47383 0.0
C988 C 0.5105 0.49438 0.50257 0.0
H989 H 0.52052 0.49905 0.54216 0.0
C990 C 0.50287 0.50993 0.50127 0.0
C991 C 0.51712 0.49056 0.51749 0.0
C992 C 0.52644 0.47489 0.51959 0.0
C993 C 0.50126 0.52139 0.51451 0.0
C994 C 0.50767 0.51739 0.52944 0.0
C995 C 0.5154 0.50194 0.53074 0.0
C996 C 0.50728 0.5296 0.54382 0.0
C997 C 0.49224 0.53731 0.51247 0.0
C998 C 0.5214 0.55302 0.54497 0.0
C999 C 0.52321 0.56417 0.55917 0.0
C1000 C 0.511 0.55213 0.57254 0.0
C1001 C 0.49596 0.52885 0.5711 0.0
C1002 C 0.49425 0.51768 0.5569 0.0
H1003 H 0.48267 0.5341 0.50131 0.0
H1004 H 0.48111 0.53587 0.52244 0.0
H1005 H 0.50653 0.55488 0.51216 0.0
H1006 H 0.53185 0.56254 0.53512 0.0
H1007 H 0.53506 0.58208 0.55987 0.0
H1008 H 0.51871 0.03337 0.44737 0.0
H1009 H 0.49792 0.01597 0.47157 0.0
H1010 H 0.56049 0.04089 0.49674 0.0
H1011 H 0.58144 0.05825 0.47261 0.0
H1012 H 0.53118 0.99388 0.49946 0.0
H1013 H 0.48671 0.04116 0.51245 0.0
H1014 H 0.48358 0.03089 0.49262 0.0
H1015 H 0.51085 0.05196 0.49953 0.0
C1016 C 0.52807 0.03572 0.45814 0.0
C1017 C 0.55177 0.04722 0.45802 0.0
C1018 C 0.51613 0.02573 0.47198 0.0
C1019 C 0.52765 0.02713 0.48598 0.0
C1020 C 0.55126 0.03957 0.48608 0.0
H1021 H 0.48906 0.96713 0.57905 0.0
H1022 H 0.5093 0.98385 0.55457 0.0
C1023 C 0.56321 0.04962 0.47227 0.0
C1024 C 0.5152 0.0141 0.50013 0.0
H1025 H 0.47573 0.00796 0.52725 0.0
C1026 C 0.51913 0.99701 0.5056 0.0
C1027 C 0.49936 0.01809 0.50803 0.0
C1028 C 0.49494 0.03663 0.50298 0.0
C1029 C 0.50742 0.9836 0.51862 0.0
C1030 C 0.49167 0.98766 0.5266 0.0
C1031 C 0.48774 0.00476 0.5211 0.0
C1032 C 0.47934 0.97481 0.54088 0.0
C1033 C 0.51168 0.96487 0.52347 0.0
C1034 C 0.45573 0.96383 0.54134 0.0
C1035 C 0.44412 0.95436 0.55535 0.0
C1036 C 0.45588 0.95571 0.56924 0.0
C1037 C 0.47945 0.96554 0.56854 0.0
C1038 C 0.49107 0.97514 0.55452 0.0
H1039 H 0.51877 0.95966 0.51363 0.0
H1040 H 0.52406 0.97085 0.53324 0.0
H1041 H 0.49596 0.9499 0.52762 0.0
H1042 H 0.44629 0.96332 0.53097 0.0
H1043 H 0.42598 0.94697 0.55547 0.0
H1044 H 0.52308 0.03575 0.95391 0.0
H1045 H 0.52597 0.01811 0.97819 0.0
H1046 H 0.48461 0.03967 1.00232 0.0
H1047 H 0.48141 0.05711 0.97812 0.0
H1048 H 0.54016 0.03335 1.00935 0.0
H1049 H 0.44878 0.97072 1.00687 0.0
H1050 H 0.46383 0.98876 0.99048 0.0
H1051 H 0.45533 0.99958 1.00676 0.0
C1052 C 0.51502 0.0372 0.96447 0.0
C1053 C 0.50184 0.04768 0.96402 0.0
C1054 C 0.51659 0.02699 0.97832 0.0
C1055 C 0.50498 0.02703 0.99194 0.0
C1056 C 0.49322 0.03892 0.99184 0.0
H1057 H 0.48582 0.96715 0.08489 0.0
H1058 H 0.48284 0.98493 0.06071 0.0
C1059 C 0.4916 0.04909 0.97801 0.0
C1060 C 0.50431 0.01381 1.006 0.0
H1061 H 0.4685 0.96978 0.02946 0.0
C1062 C 0.52452 0.01941 1.01372 0.0
C1063 C 0.48386 0.99558 1.01168 0.0
C1064 C 0.46172 0.98811 1.00346 0.0
C1065 C 0.5248 0.00755 0.02714 0.0
C1066 C 0.50435 0.98931 0.03281 0.0
C1067 C 0.48414 0.98373 0.0251 0.0
C1068 C 0.50371 0.97602 0.04681 0.0
C1069 C 0.54694 0.01501 0.03535 0.0
C1070 C 0.51543 0.96408 0.0468 0.0
C1071 C 0.51709 0.95384 0.06057 0.0
C1072 C 0.50695 0.95521 0.07462 0.0
C1073 C 0.4938 0.96573 0.07429 0.0
C1074 C 0.49219 0.97602 0.06049 0.0
H1075 H 0.55987 0.03241 0.03196 0.0
H1076 H 0.54482 0.01431 0.04833 0.0
H1077 H 0.55334 0.00355 0.03202 0.0
H1078 H 0.52398 0.96337 0.03627 0.0
H1079 H 0.52725 0.94578 0.06036 0.0
H1080 H 0.96874 0.48397 0.94773 0.0
H1081 H 0.98652 0.50467 0.97193 0.0
H1082 H 0.96432 0.44195 0.99638 0.0
H1083 H 0.94664 0.42112 0.97227 0.0
H1084 H 0.97025 0.50347 1.00309 0.0
H1085 H 0.03353 0.47536 1.00135 0.0
H1086 H 0.0159 0.4725 0.98473 0.0
H1087 H 0.00468 0.45306 1.00089 0.0
C1088 C 0.96723 0.47454 0.95833 0.0
C1089 C 0.95638 0.45086 0.958 0.0
C1090 C 0.97751 0.48642 0.97214 0.0
C1091 C 0.97724 0.47486 0.98585 0.0
C1092 C 0.96519 0.45122 0.98584 0.0
H1093 H 0.03626 0.51618 0.07897 0.0
H1094 H 0.01918 0.49542 0.05465 0.0
C1095 C 0.95489 0.43934 0.97206 0.0
C1096 C 0.9902 0.48752 0.99996 0.0
H1097 H 0.03416 0.49634 0.0237 0.0
C1098 C 0.98427 0.50199 1.00757 0.0
C1099 C 0.0085 0.48555 1.00579 0.0
C1100 C 0.01623 0.47094 0.99772 0.0
C1101 C 0.99585 0.51421 0.02104 0.0
C1102 C 0.01423 0.51233 0.02684 0.0
C1103 C 0.02014 0.49782 0.01923 0.0
C1104 C 0.02724 0.5251 0.04092 0.0
C1105 C 0.98793 0.52863 0.02916 0.0
C1106 C 0.03852 0.54873 0.04106 0.0
C1107 C 0.04832 0.56064 0.05491 0.0
C1108 C 0.04722 0.54915 0.0689 0.0
C1109 C 0.03747 0.52557 0.06841 0.0
C1110 C 0.02757 0.51365 0.05453 0.0
H1111 H 0.97042 0.52374 0.02577 0.0
H1112 H 0.98867 0.5274 0.04215 0.0
H1113 H 0.99904 0.54649 0.02574 0.0
H1114 H 0.03902 0.55795 0.03058 0.0
H1115 H 0.05581 0.57879 0.05483 0.0
H1116 H 0.5811 0.53045 0.97446 0.0
H1117 H 0.56002 0.52649 0.99856 0.0
H1118 H 0.49816 0.48049 0.97498 0.0
H1119 H 0.51915 0.48454 0.95069 0.0
H1120 H 0.49705 0.51657 0.98959 0.0
H1121 H 0.52882 0.47625 0.03093 0.0
H1122 H 0.55067 0.5007 0.02122 0.0
H1123 H 0.53238 0.47608 1.00988 0.0
C1124 C 0.56308 0.51901 0.97448 0.0
C1125 C 0.55183 0.5078 0.96061 0.0
C1126 C 0.55104 0.51674 0.98831 0.0
C1127 C 0.5275 0.50313 0.98862 0.0
C1128 C 0.51632 0.49107 0.97502 0.0
H1129 H 0.4236 0.47768 0.05698 0.0
H1130 H 0.44484 0.48244 0.03286 0.0
C1131 C 0.52837 0.49327 0.96117 0.0
C1132 C 0.51451 0.50305 1.00268 0.0
H1133 H 0.5079 0.49197 0.04211 0.0
C1134 C 0.4993 0.51104 1.00105 0.0
C1135 C 0.51761 0.49607 0.01767 0.0
C1136 C 0.5331 0.4866 0.02006 0.0
C1137 C 0.48736 0.51253 1.01404 0.0
C1138 C 0.49043 0.5055 0.02903 0.0
C1139 C 0.50566 0.49753 0.03065 0.0
C1140 C 0.47733 0.50526 0.04308 0.0
C1141 C 0.47192 0.52205 1.01164 0.0
C1142 C 0.48843 0.51679 0.05686 0.0
C1143 C 0.47628 0.5141 0.07075 0.0
C1144 C 0.45281 0.49961 0.07115 0.0
C1145 C 0.44164 0.48908 0.0571 0.0
C1146 C 0.45378 0.49181 0.04324 0.0
H1147 H 0.47648 0.53269 1.0009 0.0
H1148 H 0.4544 0.50798 1.01019 0.0
H1149 H 0.47237 0.53229 0.02191 0.0
H1150 H 0.5066 0.52724 0.05703 0.0
H1151 H 0.48545 0.52232 0.08136 0.0
H1152 H 0.2046 0.95175 1.00185 0.0
H1153 H 0.21853 0.98856 1.01403 0.0
H1154 H 0.23102 0.01941 0.96817 0.0
H1155 H 0.21663 0.98237 0.95579 0.0
H1156 H 0.26091 0.02444 1.01149 0.0
H1157 H 0.19872 0.04784 0.9903 0.0
H1158 H 0.19394 0.01949 0.9889 0.0
H1159 H 0.21198 0.04055 0.97496 0.0
C1160 C 0.21003 0.96629 0.99429 0.0
C1161 C 0.2095 0.96407 0.9778 0.0
C1162 C 0.21803 0.98736 1.00131 0.0
C1163 C 0.22569 0.00677 0.99205 0.0
C1164 C 0.2248 0.00464 0.97557 0.0
H1165 H 0.29023 0.14906 1.01637 0.0
H1166 H 0.27532 0.11287 1.00286 0.0
C1167 C 0.21664 0.98345 0.9685 0.0
C1168 C 0.23574 0.02922 0.99979 0.0
H1169 H 0.23049 0.07601 1.00402 0.0
C1170 C 0.2542 0.03568 1.00988 0.0
C1171 C 0.22704 0.04392 0.99767 0.0
C1172 C 0.20671 0.03758 0.98749 0.0
C1173 C 0.26427 0.05643 0.01783 0.0
C1174 C 0.25548 0.07105 1.01578 0.0
C1175 C 0.23718 0.06474 1.00557 0.0
C1176 C 0.26504 0.09297 0.02415 0.0
C1177 C 0.28446 0.06271 0.02815 0.0
C1178 C 0.26421 0.0938 0.04064 0.0
C1179 C 0.27274 0.1145 0.04844 0.0
C1180 C 0.28222 0.13475 0.03987 0.0
C1181 C 0.28315 0.13382 0.02335 0.0
C1182 C 0.27456 0.11314 1.01558 0.0
H1183 H 0.29239 0.05235 0.02549 0.0
H1184 H 0.29729 0.08077 0.0267 0.0
H1185 H 0.27905 0.05989 0.04065 0.0
H1186 H 0.25662 0.07841 0.04748 0.0
H1187 H 0.27162 0.11461 0.06115 0.0
H1188 H 0.041 0.22462 0.97643 0.0
H1189 H 0.00467 0.20038 0.98932 0.0
H1190 H 0.01132 0.25777 1.01503 0.0
H1191 H 0.04796 0.28153 1.00298 0.0
H1192 H 0.99631 0.22454 0.03379 0.0
H1193 H 0.9454 0.19381 0.97936 0.0
H1194 H 0.96712 0.18653 0.9802 0.0
H1195 H 0.97453 0.2157 0.9791 0.0
C1196 C 0.03465 0.23197 0.98485 0.0
C1197 C 0.04734 0.25496 0.98869 0.0
C1198 C 0.01378 0.21817 0.99212 0.0
C1199 C 0.0049 0.22727 1.00295 0.0
C1200 C 0.01768 0.25024 1.00675 0.0
H1201 H 0.86432 0.16606 0.02984 0.0
H1202 H 0.90187 0.18853 0.01838 0.0
C1203 C 0.03869 0.26386 0.99983 0.0
C1204 C 0.98254 0.21311 1.01062 0.0
H1205 H 0.9268 0.17694 1.00327 0.0
C1206 C 0.98111 0.2142 0.02708 0.0
C1207 C 0.96256 0.1998 1.00192 0.0
C1208 C 0.96239 0.19904 0.98417 0.0
C1209 C 0.96039 0.20272 0.03503 0.0
C1210 C 0.94052 0.18879 0.02639 0.0
C1211 C 0.94198 0.18748 1.00996 0.0
C1212 C 0.91796 0.17589 0.03403 0.0
C1213 C 0.96005 0.20645 0.05252 0.0
C1214 C 0.91436 0.16134 0.04674 0.0
C1215 C 0.893 0.14899 0.05361 0.0
C1216 C 0.87465 0.15035 0.04757 0.0
C1217 C 0.87818 0.16473 0.03478 0.0
C1218 C 0.89963 0.17749 0.02817 0.0
H1219 H 0.9747 0.22276 0.05622 0.0
H1220 H 0.9444 0.2063 0.05614 0.0
H1221 H 0.96105 0.19288 0.05893 0.0
H1222 H 0.92793 0.15914 0.05118 0.0
H1223 H 0.8907 0.13772 0.06327 0.0
H1224 H 0.8384 0.69855 0.02618 0.0
H1225 H 0.81777 0.71442 1.013 0.0
H1226 H 0.84575 0.77026 0.04556 0.0
H1227 H 0.86524 0.75363 0.05936 0.0
H1228 H 0.80525 0.75935 0.0407 0.0
H1229 H 0.84181 0.76373 0.98205 0.0
H1230 H 0.82721 0.73523 0.98894 0.0
H1231 H 0.85164 0.75618 0.9994 0.0
C1232 C 0.83996 0.71411 0.0306 0.0
C1233 C 0.85345 0.72487 0.04379 0.0
C1234 C 0.82841 0.72336 0.02291 0.0
C1235 C 0.83074 0.74401 0.02789 0.0
C1236 C 0.84377 0.75444 0.04135 0.0
H1237 H 0.78375 0.81653 0.96709 0.0
H1238 H 0.80757 0.80466 0.98097 0.0
C1239 C 0.85486 0.74488 0.04929 0.0
C1240 C 0.81922 0.75445 0.01933 0.0
H1241 H 0.80896 0.76779 0.98266 0.0
C1242 C 0.8063 0.76139 0.02802 0.0
C1243 C 0.82098 0.7578 1.0028 0.0
C1244 C 0.83638 0.75309 0.99281 0.0
C1245 C 0.79457 0.77081 0.02067 0.0
C1246 C 0.79479 0.77238 1.00403 0.0
C1247 C 0.80836 0.76621 0.99537 0.0
C1248 C 0.78055 0.77967 0.99541 0.0
C1249 C 0.78243 0.77935 0.03095 0.0
C1250 C 0.75738 0.76927 0.99855 0.0
C1251 C 0.74398 0.77637 0.99094 0.0
C1252 C 0.75323 0.79355 0.97958 0.0
C1253 C 0.7762 0.80332 0.97584 0.0
C1254 C 0.78979 0.79653 0.98377 0.0
H1255 H 0.79063 0.78475 0.04265 0.0
H1256 H 0.78195 0.7938 0.02545 0.0
H1257 H 0.7649 0.76556 0.03295 0.0
H1258 H 0.74956 0.75558 1.00693 0.0
H1259 H 0.72623 0.76818 0.99386 0.0
H1260 H 0.98402 0.21759 0.57276 0.0
H1261 H 0.02023 0.23145 0.5593 0.0
H1262 H 0.9867 0.2179 0.51439 0.0
H1263 H 0.95064 0.20455 0.52768 0.0
H1264 H 0.03644 0.21248 0.53822 0.0
H1265 H 0.03334 0.28403 0.51033 0.0
H1266 H 0.0142 0.2673 0.52578 0.0
H1267 H 0.00934 0.25716 0.50582 0.0
C1268 C 0.98433 0.21738 0.56002 0.0
C1269 C 0.96445 0.2102 0.5513 0.0
C1270 C 0.00505 0.22535 0.55234 0.0
C1271 C 0.00626 0.22627 0.53583 0.0
C1272 C 0.98629 0.21799 0.52713 0.0
H1273 H 0.11524 0.2691 0.46773 0.0
H1274 H 0.07861 0.25392 0.4809 0.0
C1275 C 0.96564 0.2102 0.53476 0.0
C1276 C 0.0284 0.23617 0.52769 0.0
H1277 H 0.06254 0.27738 0.50178 0.0
C1278 C 0.04218 0.22673 0.53031 0.0
C1279 C 0.03594 0.25484 0.51739 0.0
C1280 C 0.02255 0.26659 0.51476 0.0
C1281 C 0.06309 0.23518 0.5227 0.0
C1282 C 0.07047 0.25367 0.51231 0.0
C1283 C 0.05674 0.26312 0.50968 0.0
C1284 C 0.09263 0.26366 0.50428 0.0
C1285 C 0.077 0.22406 0.52564 0.0
C1286 C 0.1126 0.27468 0.51303 0.0
C1287 C 0.1335 0.2835 0.50556 0.0
C1288 C 0.13485 0.28146 0.48916 0.0
C1289 C 0.11479 0.27094 0.48037 0.0
C1290 C 0.09386 0.26223 0.48786 0.0
H1291 H 0.06694 0.20724 0.53121 0.0
H1292 H 0.08428 0.22211 0.51447 0.0
H1293 H 0.09114 0.23482 0.53363 0.0
H1294 H 0.11201 0.27629 0.52568 0.0
H1295 H 0.14858 0.29151 0.5127 0.0
H1296 H 0.78864 0.76945 0.5787 0.0
H1297 H 0.77376 0.79128 0.56568 0.0
H1298 H 0.78691 0.77186 0.52037 0.0
H1299 H 0.80128 0.74975 0.53318 0.0
H1300 H 0.79182 0.82655 0.54438 0.0
H1301 H 0.72032 0.75111 0.51731 0.0
H1302 H 0.73761 0.74918 0.53253 0.0
H1303 H 0.7472 0.75418 0.51244 0.0
C1304 C 0.78853 0.76999 0.56596 0.0
C1305 C 0.79589 0.75762 0.55699 0.0
C1306 C 0.77998 0.78243 0.55854 0.0
C1307 C 0.77867 0.78271 0.54205 0.0
C1308 C 0.78711 0.77134 0.5331 0.0
H1309 H 0.73405 0.84607 0.47338 0.0
H1310 H 0.74969 0.82538 0.48701 0.0
C1311 C 0.79547 0.75882 0.54047 0.0
C1312 C 0.76824 0.79459 0.53411 0.0
H1313 H 0.72665 0.7867 0.50832 0.0
C1314 C 0.77748 0.81782 0.53658 0.0
C1315 C 0.74946 0.78316 0.52395 0.0
C1316 C 0.73791 0.75799 0.5215 0.0
C1317 C 0.76881 0.83001 0.52887 0.0
C1318 C 0.75028 0.81861 0.51855 0.0
C1319 C 0.74095 0.79539 0.51615 0.0
C1320 C 0.74018 0.8305 0.51028 0.0
C1321 C 0.77979 0.85507 0.53156 0.0
C1322 C 0.72919 0.83971 0.51881 0.0
C1323 C 0.72011 0.85136 0.51108 0.0
C1324 C 0.72186 0.85405 0.49463 0.0
C1325 C 0.73242 0.84432 0.48605 0.0
C1326 C 0.7414 0.83254 0.49382 0.0
H1327 H 0.79664 0.86203 0.53712 0.0
H1328 H 0.78165 0.86404 0.5203 0.0
H1329 H 0.76901 0.85856 0.53948 0.0
H1330 H 0.72773 0.83799 0.5315 0.0
H1331 H 0.71207 0.85861 0.51806 0.0
H1332 H 0.23375 0.01974 0.57597 0.0
H1333 H 0.21212 0.98289 0.56311 0.0
H1334 H 0.23084 0.01498 0.51765 0.0
H1335 H 0.25277 0.05161 0.53032 0.0
H1336 H 0.17674 0.96502 0.54201 0.0
H1337 H 0.25243 0.96978 0.51461 0.0
H1338 H 0.25421 0.98906 0.52977 0.0
H1339 H 0.24892 0.99329 0.50968 0.0
C1340 C 0.23307 0.01895 0.56324 0.0
C1341 C 0.24522 0.0386 0.55418 0.0
C1342 C 0.22076 0.99788 0.5559 0.0
C1343 C 0.22038 0.99612 0.53941 0.0
C1344 C 0.23146 0.01584 0.53038 0.0
H1345 H 0.15668 0.88796 0.47101 0.0
H1346 H 0.17758 0.92426 0.48464 0.0
C1347 C 0.24387 0.03681 0.53767 0.0
C1348 C 0.20871 0.97372 0.53157 0.0
H1349 H 0.21695 0.94021 0.50572 0.0
C1350 C 0.18555 0.95952 0.53417 0.0
C1351 C 0.22025 0.96651 0.52136 0.0
C1352 C 0.24536 0.98035 0.5188 0.0
C1353 C 0.17354 0.93859 0.52652 0.0
C1354 C 0.18503 0.93162 0.51612 0.0
C1355 C 0.20818 0.9457 0.51361 0.0
C1356 C 0.17328 0.90965 0.50782 0.0
C1357 C 0.14855 0.92426 0.52935 0.0
C1358 C 0.16451 0.88945 0.5163 0.0
C1359 C 0.15275 0.86873 0.50856 0.0
C1360 C 0.14948 0.86779 0.49216 0.0
C1361 C 0.15888 0.88808 0.48363 0.0
C1362 C 0.17078 0.90883 0.4914 0.0
H1363 H 0.14145 0.93392 0.53511 0.0
H1364 H 0.13949 0.91719 0.5181 0.0
H1365 H 0.14534 0.90995 0.53712 0.0
H1366 H 0.16658 0.88973 0.52895 0.0
H1367 H 0.14576 0.85345 0.5155 0.0
H1368 H 0.73344 0.88862 0.9719 0.0
H1369 H 0.74968 0.92484 0.98563 0.0
H1370 H 0.72361 0.8902 0.02967 0.0
H1371 H 0.70683 0.85403 1.016 0.0
H1372 H 0.71759 0.92591 0.02719 0.0
H1373 H 0.806 0.95206 1.01206 0.0
H1374 H 0.78837 0.94605 0.99509 0.0
H1375 H 0.78309 0.92383 1.00871 0.0
C1376 C 0.73103 0.88872 0.98449 0.0
C1377 C 0.71891 0.86841 0.99285 0.0
C1378 C 0.74052 0.90944 0.99235 0.0
C1379 C 0.73836 0.91026 1.00876 0.0
C1380 C 0.72568 0.89002 1.01704 0.0
H1381 H 0.78899 0.01963 0.07814 0.0
H1382 H 0.77388 0.98274 0.06535 0.0
C1383 C 0.71605 0.86933 1.00918 0.0
C1384 C 0.74915 0.93215 1.01732 0.0
H1385 H 0.79966 0.97992 0.02397 0.0
C1386 C 0.73555 0.93763 0.02657 0.0
C1387 C 0.77265 0.94741 1.01661 0.0
C1388 C 0.78842 0.94198 1.00772 0.0
C1389 C 0.7447 0.95815 0.03478 0.0
C1390 C 0.76808 0.97355 0.0338 0.0
C1391 C 0.78173 0.96805 0.02468 0.0
C1392 C 0.77847 0.99586 0.04166 0.0
C1393 C 0.72925 0.96352 0.04416 0.0
C1394 C 0.78659 0.01545 0.03257 0.0
C1395 C 0.79515 0.03648 0.03981 0.0
C1396 C 0.79599 0.03839 0.05632 0.0
C1397 C 0.7886 0.01877 0.06541 0.0
C1398 C 0.77985 0.99767 0.05813 0.0
H1399 H 0.71121 0.95152 0.04168 0.0
H1400 H 0.73225 0.96266 0.0569 0.0
H1401 H 0.7328 0.98087 0.04154 0.0
H1402 H 0.78576 0.0144 0.01984 0.0
H1403 H 0.80079 0.05121 0.03243 0.0
H1404 H 0.11507 0.84577 0.97151 0.0
H1405 H 0.07862 0.82541 0.98493 0.0
H1406 H 0.11253 0.83719 0.02959 0.0
H1407 H 0.14893 0.85699 1.01627 0.0
H1408 H 0.07766 0.79467 0.02747 0.0
H1409 H 0.04954 0.85456 1.00967 0.0
H1410 H 0.0565 0.8426 0.9933 0.0
H1411 H 0.07812 0.86054 1.00698 0.0
C1412 C 0.11476 0.84387 0.98417 0.0
C1413 C 0.13493 0.85311 0.99282 0.0
C1414 C 0.09391 0.83242 0.99185 0.0
C1415 C 0.09281 0.83024 1.00832 0.0
C1416 C 0.11292 0.8388 1.01689 0.0
H1417 H 0.98262 0.77163 0.07705 0.0
H1418 H 0.0196 0.79366 0.06443 0.0
C1419 C 0.13375 0.85011 1.00924 0.0
C1420 C 0.07078 0.81902 1.01667 0.0
H1421 H 0.02224 0.82078 0.0222 0.0
C1422 C 0.06561 0.80048 0.02639 0.0
C1423 C 0.0551 0.8267 1.01536 0.0
C1424 C 0.06014 0.84732 1.00589 0.0
C1425 C 0.04502 0.78908 0.0345 0.0
C1426 C 0.02923 0.79653 0.03296 0.0
C1427 C 0.0344 0.81514 0.02335 0.0
C1428 C 0.00685 0.78456 0.04069 0.0
C1429 C 0.04002 0.7688 0.04436 0.0
C1430 C 0.98741 0.77273 0.03151 0.0
C1431 C 0.96634 0.76015 0.03865 0.0
C1432 C 0.96422 0.7593 0.05515 0.0
C1433 C 0.98365 0.77192 0.06433 0.0
C1434 C 0.0048 0.78439 0.05715 0.0
H1435 H 0.05221 0.76289 0.04215 0.0
H1436 H 0.04091 0.77324 0.057 0.0
H1437 H 0.02274 0.75472 0.04195 0.0
H1438 H 0.98862 0.77274 0.01879 0.0
H1439 H 0.95174 0.75075 0.0312 0.0
H1440 H 0.1603 0.27676 0.97978 0.0
H1441 H 0.18086 0.26111 0.99347 0.0
H1442 H 0.17764 0.2925 0.03663 0.0
H1443 H 0.15703 0.30816 0.02309 0.0
H1444 H 0.22233 0.28385 1.01088 0.0
H1445 H 0.15014 0.22502 0.04831 0.0
H1446 H 0.14666 0.23817 0.03096 0.0
H1447 H 0.15703 0.25401 0.04885 0.0
C1448 C 0.16411 0.28049 0.99216 0.0
C1449 C 0.15694 0.29365 1.00035 0.0
C1450 C 0.17582 0.27149 0.99997 0.0
C1451 C 0.18041 0.27531 1.01612 0.0
C1452 C 0.17389 0.28899 0.02423 0.0
H1453 H 0.24607 0.22784 0.082 0.0
H1454 H 0.2251 0.24466 0.07034 0.0
C1455 C 0.16226 0.29806 1.01643 0.0
C1456 C 0.19206 0.26499 0.02446 0.0
H1457 H 0.18496 0.2267 0.0529 0.0
C1458 C 0.21417 0.27135 0.02006 0.0
C1459 C 0.18141 0.24879 0.03651 0.0
C1460 C 0.15744 0.2409 0.04141 0.0
C1461 C 0.22599 0.26202 0.02741 0.0
C1462 C 0.2152 0.24547 0.03924 0.0
C1463 C 0.19318 0.23935 0.04382 0.0
C1464 C 0.22634 0.23389 0.0466 0.0
C1465 C 0.25006 0.27024 0.02257 0.0
C1466 C 0.23323 0.22155 0.03723 0.0
C1467 C 0.2452 0.21202 0.04381 0.0
C1468 C 0.25037 0.21438 0.05998 0.0
C1469 C 0.24241 0.22573 0.06952 0.0
C1470 C 0.23048 0.2354 0.06287 0.0
H1471 H 0.25777 0.28712 1.01696 0.0
H1472 H 0.2605 0.27117 0.03283 0.0
H1473 H 0.25044 0.25833 1.01388 0.0
H1474 H 0.22968 0.21962 0.02473 0.0
H1475 H 0.2508 0.20316 0.03613 0.0
H1476 H 0.85412 0.70748 0.51988 0.0
H1477 H 0.89016 0.72291 0.50609 0.0
H1478 H 0.92543 0.74895 0.54989 0.0
H1479 H 0.8894 0.73355 0.56383 0.0
H1480 H 0.92475 0.7698 0.50557 0.0
H1481 H 0.95509 0.71453 0.53006 0.0
H1482 H 0.92588 0.70723 0.53085 0.0
H1483 H 0.94585 0.7276 0.54432 0.0
C1484 C 0.86952 0.71623 0.52664 0.0
C1485 C 0.86886 0.7192 0.54299 0.0
C1486 C 0.89011 0.72512 0.51871 0.0
C1487 C 0.91045 0.73695 0.52697 0.0
C1488 C 0.90991 0.73962 0.54332 0.0
H1489 H 0.05138 0.80233 0.50212 0.0
H1490 H 0.01501 0.78809 0.51508 0.0
C1491 C 0.8893 0.73082 0.55127 0.0
C1492 C 0.9322 0.7472 0.51835 0.0
H1493 H 0.98079 0.74529 0.51449 0.0
C1494 C 0.93701 0.76442 0.50745 0.0
C1495 C 0.94812 0.74015 0.52086 0.0
C1496 C 0.94351 0.72124 0.53206 0.0
C1497 C 0.95758 0.77516 0.49923 0.0
C1498 C 0.97354 0.76811 0.50174 0.0
C1499 C 0.9686 0.75075 0.51258 0.0
C1500 C 0.99567 0.77864 0.49351 0.0
C1501 C 0.96225 0.79436 0.48831 0.0
C1502 C 0.99703 0.77845 0.477 0.0
C1503 C 0.01795 0.78684 0.4695 0.0
C1504 C 0.03784 0.79526 0.4784 0.0
C1505 C 0.03641 0.79591 0.49489 0.0
C1506 C 0.0156 0.78772 0.50234 0.0
H1507 H 0.95138 0.8017 0.49102 0.0
H1508 H 0.98014 0.80792 0.48902 0.0
H1509 H 0.95872 0.78802 0.47603 0.0
H1510 H 0.98188 0.77111 0.46993 0.0
H1511 H 0.01844 0.78589 0.4568 0.0
H1512 H 0.20249 0.24981 0.49899 0.0
H1513 H 0.21702 0.22754 0.51141 0.0
H1514 H 0.232 0.21071 0.46578 0.0
H1515 H 0.21747 0.23312 0.45315 0.0
H1516 H 0.20447 0.1807 0.50719 0.0
H1517 H 0.29317 0.2406 0.49014 0.0
H1518 H 0.27141 0.24813 0.48955 0.0
H1519 H 0.27272 0.23037 0.47454 0.0
C1520 C 0.20869 0.24124 0.49154 0.0
C1521 C 0.20896 0.2434 0.47505 0.0
C1522 C 0.21697 0.22849 0.49868 0.0
C1523 C 0.2259 0.21777 0.48954 0.0
C1524 C 0.22547 0.21914 0.47306 0.0
H1525 H 0.29597 0.14636 0.5165 0.0
H1526 H 0.27987 0.16607 0.50243 0.0
C1527 C 0.21702 0.23181 0.46586 0.0
C1528 C 0.23616 0.20573 0.49742 0.0
H1529 H 0.28654 0.20847 0.50451 0.0
C1530 C 0.2224 0.18671 0.50658 0.0
C1531 C 0.25956 0.21364 0.4966 0.0
C1532 C 0.2752 0.23439 0.48728 0.0
C1533 C 0.23137 0.17524 0.51488 0.0
C1534 C 0.25486 0.1834 0.51433 0.0
C1535 C 0.26857 0.2023 0.505 0.0
C1536 C 0.26549 0.17238 0.52316 0.0
C1537 C 0.2155 0.15423 0.52389 0.0
C1538 C 0.26338 0.16993 0.53959 0.0
C1539 C 0.27252 0.15857 0.5477 0.0
C1540 C 0.28419 0.14966 0.53954 0.0
C1541 C 0.28708 0.15298 0.52317 0.0
C1542 C 0.27784 0.16422 0.51508 0.0
H1543 H 0.19792 0.14678 0.51955 0.0
H1544 H 0.22073 0.14132 0.52302 0.0
H1545 H 0.21563 0.15857 0.53649 0.0
H1546 H 0.25445 0.17662 0.54615 0.0
H1547 H 0.27008 0.15641 0.56031 0.0
H1548 H 0.75048 0.95279 0.50257 0.0
H1549 H 0.77291 0.98977 0.51473 0.0
H1550 H 0.78963 0.02073 0.46887 0.0
H1551 H 0.76708 0.98365 0.45651 0.0
H1552 H 0.81997 0.0237 0.51009 0.0
H1553 H 0.76033 0.05288 0.49312 0.0
H1554 H 0.75257 0.02352 0.49282 0.0
H1555 H 0.77006 0.04209 0.47753 0.0
C1556 C 0.75902 0.96741 0.49501 0.0
C1557 C 0.75682 0.96523 0.47854 0.0
C1558 C 0.77187 0.98854 0.50201 0.0
C1559 C 0.78265 0.008 0.49272 0.0
C1560 C 0.78116 0.00592 0.47626 0.0
H1561 H 0.85565 0.15022 0.51663 0.0
H1562 H 0.83531 0.11368 0.50355 0.0
C1563 C 0.76838 0.9847 0.46921 0.0
C1564 C 0.79495 0.03043 0.50039 0.0
H1565 H 0.79306 0.07869 0.50681 0.0
C1566 C 0.81415 0.03577 0.50938 0.0
C1567 C 0.78726 0.04609 0.49943 0.0
C1568 C 0.76634 0.04092 0.49032 0.0
C1569 C 0.82606 0.0565 0.51728 0.0
C1570 C 0.81818 0.07207 0.51653 0.0
C1571 C 0.79904 0.06674 0.50745 0.0
C1572 C 0.82982 0.09418 0.52477 0.0
C1573 C 0.84726 0.06172 0.52604 0.0
C1574 C 0.83301 0.09545 0.54116 0.0
C1575 C 0.84476 0.11639 0.5487 0.0
C1576 C 0.8533 0.13648 0.54001 0.0
C1577 C 0.84932 0.13512 0.5237 0.0
C1578 C 0.83771 0.11421 0.51618 0.0
H1579 H 0.85433 0.05115 0.52185 0.0
H1580 H 0.86034 0.07972 0.52474 0.0
H1581 H 0.84332 0.05816 0.53874 0.0
H1582 H 0.82654 0.08023 0.54812 0.0
H1583 H 0.84744 0.11684 0.56128 0.0
H1584 H 0.93771 0.44241 0.40096 0.0
H1585 H 0.92179 0.40586 0.38758 0.0
H1586 H 0.94243 0.43959 0.34278 0.0
H1587 H 0.95848 0.47611 0.35599 0.0
H1588 H 0.89419 0.40297 0.34626 0.0
H1589 H 0.95724 0.37842 0.36381 0.0
H1590 H 0.94645 0.38879 0.37902 0.0
H1591 H 0.96363 0.4074 0.36367 0.0
C1592 C 0.93911 0.44206 0.38828 0.0
C1593 C 0.94942 0.46219 0.37956 0.0
C1594 C 0.93002 0.42118 0.38066 0.0
C1595 C 0.931 0.42008 0.36421 0.0
C1596 C 0.94153 0.44011 0.35549 0.0
H1597 H 0.8774 0.31375 0.29353 0.0
H1598 H 0.89165 0.34935 0.30779 0.0
C1599 C 0.95077 0.46096 0.36309 0.0
C1600 C 0.92041 0.39807 0.35597 0.0
H1601 H 0.92594 0.35197 0.3492 0.0
C1602 C 0.90108 0.39176 0.34688 0.0
C1603 C 0.92942 0.38353 0.35689 0.0
C1604 C 0.95041 0.3898 0.36628 0.0
C1605 C 0.89031 0.3711 0.3388 0.0
C1606 C 0.89952 0.35665 0.33948 0.0
C1607 C 0.91886 0.36301 0.34866 0.0
C1608 C 0.88952 0.33488 0.33081 0.0
C1609 C 0.8689 0.36477 0.32992 0.0
C1610 C 0.88382 0.31489 0.33893 0.0
C1611 C 0.87601 0.29461 0.33078 0.0
C1612 C 0.87364 0.29381 0.31431 0.0
C1613 C 0.8788 0.31372 0.30622 0.0
C1614 C 0.88686 0.33409 0.31438 0.0
H1615 H 0.86052 0.37396 0.33447 0.0
H1616 H 0.87299 0.36932 0.31734 0.0
H1617 H 0.85684 0.34639 0.33068 0.0
H1618 H 0.88573 0.31504 0.35159 0.0
H1619 H 0.87215 0.27959 0.33739 0.0
H1620 H 0.55599 0.48838 0.39224 0.0
H1621 H 0.59202 0.50799 0.37824 0.0
H1622 H 0.55692 0.50154 0.33476 0.0
H1623 H 0.52094 0.48235 0.34867 0.0
H1624 H 0.60664 0.49176 0.35388 0.0
H1625 H 0.60422 0.56791 0.3346 0.0
H1626 H 0.58548 0.54902 0.34945 0.0
H1627 H 0.57992 0.54185 0.32896 0.0
C1628 C 0.55595 0.49141 0.37974 0.0
C1629 C 0.53557 0.4839 0.3716 0.0
C1630 C 0.57656 0.50255 0.37174 0.0
C1631 C 0.57721 0.50649 0.35547 0.0
C1632 C 0.5569 0.49914 0.34735 0.0
H1633 H 0.69054 0.57105 0.28928 0.0
H1634 H 0.6526 0.54791 0.30033 0.0
C1635 C 0.53631 0.48807 0.35534 0.0
C1636 C 0.59908 0.51748 0.34692 0.0
H1637 H 0.63362 0.56302 0.32422 0.0
C1638 C 0.61255 0.50736 0.34742 0.0
C1639 C 0.60671 0.53775 0.33838 0.0
C1640 C 0.59345 0.54991 0.33789 0.0
C1641 C 0.63342 0.51696 0.33964 0.0
C1642 C 0.64118 0.53737 0.33129 0.0
C1643 C 0.62756 0.54729 0.33055 0.0
C1644 C 0.66406 0.54959 0.32426 0.0
C1645 C 0.64697 0.50512 0.34036 0.0
C1646 C 0.68305 0.55806 0.33403 0.0
C1647 C 0.70462 0.57128 0.32779 0.0
C1648 C 0.70775 0.57638 0.31162 0.0
C1649 C 0.68874 0.56732 0.30175 0.0
C1650 C 0.66706 0.55418 0.30805 0.0
H1651 H 0.63623 0.48698 0.34327 0.0
H1652 H 0.65567 0.50663 0.32901 0.0
H1653 H 0.65996 0.513 0.34968 0.0
H1654 H 0.68114 0.55505 0.34659 0.0
H1655 H 0.71885 0.57796 0.33575 0.0
H1656 H 0.51769 0.06645 0.39659 0.0
H1657 H 0.49792 0.08301 0.38302 0.0
H1658 H 0.50368 0.05449 0.33918 0.0
H1659 H 0.52277 0.03734 0.35272 0.0
H1660 H 0.51327 0.11394 0.3601 0.0
H1661 H 0.43849 0.03679 0.33794 0.0
H1662 H 0.45719 0.03587 0.35246 0.0
H1663 H 0.46448 0.03874 0.3319 0.0
C1664 C 0.51438 0.06336 0.38411 0.0
C1665 C 0.52166 0.05041 0.37577 0.0
C1666 C 0.50316 0.07293 0.37635 0.0
C1667 C 0.49902 0.06979 0.36009 0.0
C1668 C 0.50612 0.05671 0.35178 0.0
H1669 H 0.44499 0.12699 0.29236 0.0
H1670 H 0.46672 0.11148 0.30473 0.0
C1671 C 0.51714 0.04696 0.35955 0.0
C1672 C 0.48832 0.08114 0.35172 0.0
H1673 H 0.44456 0.07167 0.32756 0.0
C1674 C 0.49819 0.10465 0.35305 0.0
C1675 C 0.46865 0.06907 0.34246 0.0
C1676 C 0.45645 0.04371 0.34121 0.0
C1677 C 0.48903 0.11638 0.34534 0.0
C1678 C 0.4695 0.10431 0.33604 0.0
C1679 C 0.4597 0.08088 0.33457 0.0
C1680 C 0.45814 0.11551 0.32855 0.0
C1681 C 0.50028 0.14162 0.34709 0.0
C1682 C 0.44636 0.12308 0.33786 0.0
C1683 C 0.43384 0.13175 0.33087 0.0
C1684 C 0.43295 0.13315 0.31438 0.0
C1685 C 0.44546 0.1263 0.30507 0.0
C1686 C 0.45779 0.11735 0.31211 0.0
H1687 H 0.51742 0.14891 0.35222 0.0
H1688 H 0.50151 0.14965 0.3355 0.0
H1689 H 0.48996 0.14582 0.35495 0.0
H1690 H 0.44628 0.12164 0.35056 0.0
H1691 H 0.42442 0.13688 0.33838 0.0
H1692 H 0.6519 0.55225 0.91176 0.0
H1693 H 0.68963 0.56731 0.90027 0.0
H1694 H 0.6605 0.54995 0.85388 0.0
H1695 H 0.62294 0.5349 0.86516 0.0
H1696 H 0.69568 0.53902 0.86033 0.0
H1697 H 0.72035 0.62769 0.87475 0.0
H1698 H 0.70978 0.60775 0.89068 0.0
H1699 H 0.69137 0.60523 0.87483 0.0
C1700 C 0.65352 0.55138 0.89914 0.0
C1701 C 0.63439 0.54252 0.88938 0.0
C1702 C 0.67508 0.56013 0.89258 0.0
C1703 C 0.67785 0.56004 0.8762 0.0
C1704 C 0.65874 0.5503 0.86654 0.0
H1705 H 0.78568 0.605 0.8075 0.0
H1706 H 0.74955 0.5883 0.82135 0.0
C1707 C 0.63727 0.54173 0.87303 0.0
C1708 C 0.70057 0.5707 0.86894 0.0
H1709 H 0.74716 0.62176 0.86156 0.0
C1710 C 0.70701 0.5571 0.86064 0.0
C1711 C 0.71528 0.59428 0.86938 0.0
C1712 C 0.70891 0.60971 0.87778 0.0
C1713 C 0.72782 0.56644 0.85279 0.0
C1714 C 0.74232 0.5901 0.85289 0.0
C1715 C 0.736 0.60365 0.86141 0.0
C1716 C 0.76414 0.60113 0.84426 0.0
C1717 C 0.73419 0.5508 0.84469 0.0
C1718 C 0.78432 0.61477 0.85237 0.0
C1719 C 0.80496 0.62462 0.84444 0.0
C1720 C 0.80588 0.62106 0.82821 0.0
C1721 C 0.7856 0.60798 0.82001 0.0
C1722 C 0.76493 0.59823 0.82795 0.0
H1723 H 0.72466 0.53343 0.84952 0.0
H1724 H 0.73017 0.54993 0.83197 0.0
H1725 H 0.75248 0.55692 0.84589 0.0
H1726 H 0.78413 0.61742 0.86493 0.0
H1727 H 0.82025 0.63459 0.85113 0.0
H1728 H 0.38006 0.19025 0.84997 0.0
H1729 H 0.39569 0.17008 0.86405 0.0
H1730 H 0.41911 0.15738 0.82022 0.0
H1731 H 0.4035 0.17759 0.80596 0.0
H1732 H 0.39637 0.11902 0.84163 0.0
H1733 H 0.46459 0.19549 0.87064 0.0
H1734 H 0.43661 0.19127 0.87261 0.0
H1735 H 0.44968 0.19692 0.85357 0.0
C1736 C 0.38838 0.18304 0.84327 0.0
C1737 C 0.39059 0.18561 0.82682 0.0
C1738 C 0.39744 0.17165 0.85137 0.0
C1739 C 0.40889 0.1626 0.8432 0.0
C1740 C 0.41048 0.16442 0.82674 0.0
H1741 H 0.47313 0.08543 0.86714 0.0
H1742 H 0.45814 0.10693 0.85424 0.0
C1743 C 0.4015 0.17592 0.81861 0.0
C1744 C 0.41921 0.15123 0.85186 0.0
H1745 H 0.46072 0.16049 0.87812 0.0
C1746 C 0.41047 0.12807 0.84958 0.0
C1747 C 0.43748 0.16308 0.86232 0.0
C1748 C 0.44783 0.1881 0.8649 0.0
C1749 C 0.41938 0.11635 0.85759 0.0
C1750 C 0.43795 0.12826 0.86784 0.0
C1751 C 0.44654 0.1514 0.87024 0.0
C1752 C 0.44891 0.11697 0.87587 0.0
C1753 C 0.40852 0.09122 0.85521 0.0
C1754 C 0.44989 0.11651 0.89237 0.0
C1755 C 0.45879 0.10442 0.89985 0.0
C1756 C 0.46682 0.09259 0.89091 0.0
C1757 C 0.46681 0.09408 0.8744 0.0
C1758 C 0.4581 0.10625 0.86698 0.0
H1759 H 0.39094 0.08384 0.85089 0.0
H1760 H 0.41821 0.08774 0.84628 0.0
H1761 H 0.40836 0.0826 0.86631 0.0
H1762 H 0.44311 0.12488 0.89947 0.0
H1763 H 0.45857 0.10363 0.91258 0.0
H1764 H 0.89557 0.35403 0.90385 0.0
H1765 H 0.87489 0.31819 0.88971 0.0
H1766 H 0.90203 0.35256 0.84574 0.0
H1767 H 0.92319 0.38826 0.85978 0.0
H1768 H 0.84326 0.30253 0.86668 0.0
H1769 H 0.92079 0.30541 0.84451 0.0
H1770 H 0.92142 0.32457 0.85934 0.0
H1771 H 0.91878 0.32957 0.83887 0.0
C1772 C 0.89698 0.35399 0.89115 0.0
C1773 C 0.91124 0.37398 0.88296 0.0
C1774 C 0.88519 0.33347 0.88309 0.0
C1775 C 0.88739 0.33257 0.8667 0.0
C1776 C 0.90063 0.3527 0.85843 0.0
H1777 H 0.82325 0.22442 0.79785 0.0
H1778 H 0.84391 0.26099 0.8112 0.0
C1779 C 0.91258 0.37314 0.86647 0.0
C1780 C 0.87612 0.31059 0.85828 0.0
H1781 H 0.88608 0.27661 0.83402 0.0
C1782 C 0.85265 0.29684 0.8596 0.0
C1783 C 0.88839 0.30307 0.8491 0.0
C1784 C 0.91375 0.3163 0.84798 0.0
C1785 C 0.84113 0.27601 0.85179 0.0
C1786 C 0.85337 0.26875 0.84244 0.0
C1787 C 0.87678 0.28238 0.84111 0.0
C1788 C 0.84208 0.24676 0.83422 0.0
C1789 C 0.8159 0.26189 0.85343 0.0
C1790 C 0.83476 0.22676 0.84271 0.0
C1791 C 0.82318 0.2059 0.83512 0.0
C1792 C 0.81859 0.20465 0.8189 0.0
C1793 C 0.82652 0.22479 0.81035 0.0
C1794 C 0.83827 0.24568 0.81795 0.0
H1795 H 0.80854 0.27111 0.85949 0.0
H1796 H 0.80796 0.2564 0.84166 0.0
H1797 H 0.81165 0.24651 0.86032 0.0
H1798 H 0.83771 0.2273 0.85527 0.0
H1799 H 0.81727 0.19074 0.84208 0.0
H1800 H 0.36646 0.19178 0.34435 0.0
H1801 H 0.37986 0.22827 0.35727 0.0
H1802 H 0.43551 0.25888 0.32466 0.0
H1803 H 0.42142 0.22284 0.31119 0.0
H1804 H 0.41591 0.25415 0.37276 0.0
H1805 H 0.41505 0.30313 0.32143 0.0
H1806 H 0.40266 0.27296 0.32074 0.0
H1807 H 0.43252 0.29103 0.31776 0.0
C1808 C 0.38133 0.20641 0.33979 0.0
C1809 C 0.39269 0.20452 0.32661 0.0
C1810 C 0.38906 0.22725 0.34723 0.0
C1811 C 0.40851 0.24657 0.3418 0.0
C1812 C 0.42005 0.24454 0.32878 0.0
H1813 H 0.48272 0.36844 0.40021 0.0
H1814 H 0.46922 0.33154 0.38773 0.0
C1815 C 0.41203 0.22385 0.32111 0.0
C1816 C 0.41707 0.26861 0.35003 0.0
H1817 H 0.43549 0.32439 0.34386 0.0
C1818 C 0.41999 0.26948 0.36645 0.0
C1819 C 0.42219 0.28865 0.3419 0.0
C1820 C 0.41771 0.28886 0.32452 0.0
C1821 C 0.42788 0.28972 0.37491 0.0
C1822 C 0.43398 0.30994 0.36666 0.0
C1823 C 0.43108 0.30902 0.35024 0.0
C1824 C 0.44229 0.33209 0.37472 0.0
C1825 C 0.42886 0.28894 0.39262 0.0
C1826 C 0.43223 0.34513 0.37128 0.0
C1827 C 0.44043 0.36643 0.37794 0.0
C1828 C 0.45864 0.37513 0.38849 0.0
C1829 C 0.46852 0.36203 0.39224 0.0
C1830 C 0.46066 0.34085 0.3852 0.0
H1831 H 0.41721 0.27177 0.39721 0.0
H1832 H 0.44617 0.29351 0.39626 0.0
H1833 H 0.42446 0.30091 0.39819 0.0
H1834 H 0.41803 0.33887 0.36332 0.0
H1835 H 0.43236 0.37607 0.37491 0.0
H1836 H 0.63896 0.11773 0.39617 0.0
H1837 H 0.67418 0.1408 0.38166 0.0
H1838 H 0.66281 0.0822 0.35527 0.0
H1839 H 0.62734 0.05955 0.36902 0.0
H1840 H 0.71137 0.14005 0.38004 0.0
H1841 H 0.67681 0.12436 0.31988 0.0
H1842 H 0.65893 0.11597 0.33703 0.0
H1843 H 0.66917 0.09817 0.32935 0.0
C1844 C 0.64389 0.1099 0.38713 0.0
C1845 C 0.63021 0.0869 0.3836 0.0
C1846 C 0.66403 0.12307 0.37885 0.0
C1847 C 0.67096 0.11342 0.36703 0.0
C1848 C 0.65752 0.09032 0.36384 0.0
H1849 H 0.80963 0.16727 0.33654 0.0
H1850 H 0.77277 0.14681 0.34931 0.0
C1851 C 0.63725 0.07732 0.37183 0.0
C1852 C 0.69268 0.12708 0.35852 0.0
H1853 H 0.71654 0.13763 0.32194 0.0
C1854 C 0.71244 0.13973 0.36732 0.0
C1855 C 0.69418 0.12715 0.34188 0.0
C1856 C 0.67358 0.11589 0.33151 0.0
C1857 C 0.73362 0.1518 0.36002 0.0
C1858 C 0.73529 0.15041 0.34346 0.0
C1859 C 0.71545 0.13836 0.33464 0.0
C1860 C 0.75733 0.1616 0.33503 0.0
C1861 C 0.75386 0.16626 0.37017 0.0
C1862 C 0.76063 0.17561 0.32203 0.0
C1863 C 0.78147 0.18668 0.31435 0.0
C1864 C 0.79955 0.18421 0.31963 0.0
C1865 C 0.79607 0.16966 0.3323 0.0
C1866 C 0.77507 0.15819 0.33975 0.0
H1867 H 0.74891 0.17155 0.38114 0.0
H1868 H 0.76198 0.1564 0.37366 0.0
H1869 H 0.7664 0.18161 0.36383 0.0
H1870 H 0.74724 0.17843 0.31804 0.0
H1871 H 0.78366 0.19787 0.30467 0.0
H1872 H 0.90307 0.54582 0.41661 0.0
H1873 H 0.88129 0.56119 0.40424 0.0
H1874 H 0.89826 0.54701 0.35838 0.0
H1875 H 0.92027 0.53209 0.37055 0.0
H1876 H 0.90641 0.59014 0.36075 0.0
H1877 H 0.82034 0.53033 0.38244 0.0
H1878 H 0.84114 0.54319 0.39763 0.0
H1879 H 0.84323 0.52451 0.38374 0.0
C1880 C 0.90186 0.54566 0.40391 0.0
C1881 C 0.91347 0.53776 0.39459 0.0
C1882 C 0.88935 0.55439 0.39684 0.0
C1883 C 0.88799 0.55511 0.38036 0.0
C1884 C 0.89907 0.54667 0.3711 0.0
H1885 H 0.82828 0.60255 0.31093 0.0
H1886 H 0.8492 0.58745 0.32479 0.0
C1887 C 0.91164 0.5381 0.37811 0.0
C1888 C 0.87619 0.56576 0.37262 0.0
H1889 H 0.82496 0.5623 0.36846 0.0
C1890 C 0.88858 0.584 0.36241 0.0
C1891 C 0.85294 0.55781 0.37482 0.0
C1892 C 0.83854 0.53776 0.38514 0.0
C1893 C 0.87843 0.59455 0.35442 0.0
C1894 C 0.85517 0.58649 0.35652 0.0
C1895 C 0.8428 0.56844 0.36686 0.0
C1896 C 0.8433 0.59646 0.34802 0.0
C1897 C 0.89275 0.61446 0.34396 0.0
C1898 C 0.83293 0.60641 0.35646 0.0
C1899 C 0.82099 0.61506 0.34858 0.0
C1900 C 0.819 0.61376 0.33208 0.0
C1901 C 0.82961 0.60398 0.32362 0.0
C1902 C 0.84162 0.59538 0.33153 0.0
H1903 H 0.91097 0.62199 0.34665 0.0
H1904 H 0.89011 0.60885 0.33151 0.0
H1905 H 0.88799 0.62768 0.34523 0.0
H1906 H 0.83397 0.60737 0.36919 0.0
H1907 H 0.81295 0.62238 0.35548 0.0
H1908 H 0.5601 0.06704 0.89757 0.0
H1909 H 0.59615 0.08309 0.8835 0.0
H1910 H 0.56078 0.06016 0.83944 0.0
H1911 H 0.52477 0.04397 0.85332 0.0
H1912 H 0.61152 0.05961 0.86048 0.0
H1913 H 0.6046 0.13076 0.83509 0.0
H1914 H 0.589 0.11551 0.85233 0.0
H1915 H 0.58036 0.10306 0.8332 0.0
C1916 C 0.55999 0.0652 0.8849 0.0
C1917 C 0.53953 0.05425 0.87658 0.0
C1918 C 0.58059 0.07443 0.87689 0.0
C1919 C 0.58108 0.07308 0.86042 0.0
C1920 C 0.56074 0.06162 0.85213 0.0
H1921 H 0.68709 0.12599 0.78943 0.0
H1922 H 0.65129 0.11053 0.80373 0.0
C1923 C 0.54017 0.05226 0.86012 0.0
C1924 C 0.60284 0.08378 0.85184 0.0
H1925 H 0.63538 0.12688 0.82671 0.0
C1926 C 0.61683 0.07438 0.85315 0.0
C1927 C 0.60955 0.1029 0.84218 0.0
C1928 C 0.59523 0.11383 0.84062 0.0
C1929 C 0.63727 0.08339 0.84485 0.0
C1930 C 0.64421 0.10276 0.83534 0.0
C1931 C 0.63012 0.11211 0.83402 0.0
C1932 C 0.66606 0.11355 0.82674 0.0
C1933 C 0.6509 0.07166 0.84603 0.0
C1934 C 0.68634 0.12116 0.83495 0.0
C1935 C 0.70674 0.12983 0.82682 0.0
C1936 C 0.70738 0.13145 0.8103 0.0
C1937 C 0.6872 0.12497 0.80215 0.0
C1938 C 0.66671 0.11607 0.8103 0.0
H1939 H 0.64034 0.05383 0.84976 0.0
H1940 H 0.65898 0.07204 0.83461 0.0
H1941 H 0.66433 0.08035 0.85496 0.0
H1942 H 0.68638 0.12007 0.84766 0.0
H1943 H 0.72199 0.13493 0.8335 0.0
H1944 H 0.91837 0.47145 0.89215 0.0
H1945 H 0.90233 0.49176 0.87874 0.0
H1946 H 0.95992 0.52241 0.84776 0.0
H1947 H 0.97532 0.50106 0.86055 0.0
H1948 H 0.91348 0.53278 0.87516 0.0
H1949 H 0.91202 0.49976 0.81563 0.0
H1950 H 0.91876 0.48893 0.83283 0.0
H1951 H 0.94012 0.51408 0.82327 0.0
C1952 C 0.92765 0.4826 0.88252 0.0
C1953 C 0.94803 0.48456 0.87733 0.0
C1954 C 0.91843 0.49417 0.87481 0.0
C1955 C 0.92954 0.50819 0.86189 0.0
C1956 C 0.95051 0.51104 0.85725 0.0
H1957 H 0.90514 0.61346 0.82965 0.0
H1958 H 0.91772 0.58991 0.84243 0.0
C1959 C 0.95948 0.49906 0.86472 0.0
C1960 C 0.91937 0.5201 0.85352 0.0
H1961 H 0.90713 0.53203 0.81701 0.0
C1962 C 0.91192 0.5324 0.86245 0.0
C1963 C 0.91667 0.51922 0.83694 0.0
C1964 C 0.92207 0.50456 0.82665 0.0
C1965 C 0.90256 0.54432 0.8553 0.0
C1966 C 0.90153 0.54489 0.83866 0.0
C1967 C 0.90827 0.532 0.82974 0.0
C1968 C 0.89418 0.55926 0.83032 0.0
C1969 C 0.89349 0.55579 0.86577 0.0
C1970 C 0.87758 0.5503 0.8185 0.0
C1971 C 0.87077 0.564 0.81077 0.0
C1972 C 0.88027 0.58684 0.81486 0.0
C1973 C 0.89716 0.59582 0.82644 0.0
C1974 C 0.90426 0.5823 0.83388 0.0
H1975 H 0.8879 0.54709 0.87731 0.0
H1976 H 0.90704 0.57332 0.86813 0.0
H1977 H 0.87906 0.55624 0.86024 0.0
H1978 H 0.86969 0.53263 0.81539 0.0
H1979 H 0.85779 0.55665 0.80185 0.0
H1980 H 0.52748 0.48186 0.84824 0.0
H1981 H 0.50667 0.44545 0.83496 0.0
H1982 H 0.49465 0.41143 0.87958 0.0
H1983 H 0.51539 0.44783 0.89302 0.0
H1984 H 0.51727 0.41021 0.83553 0.0
H1985 H 0.43167 0.38236 0.85904 0.0
H1986 H 0.45413 0.41132 0.85987 0.0
H1987 H 0.45335 0.3911 0.87368 0.0
C1988 C 0.52019 0.46666 0.85528 0.0
C1989 C 0.52304 0.46777 0.87172 0.0
C1990 C 0.50837 0.44586 0.84764 0.0
C1991 C 0.49898 0.42575 0.85627 0.0
C1992 C 0.50148 0.42676 0.87271 0.0
H1993 H 0.42273 0.28404 0.83421 0.0
H1994 H 0.44507 0.32096 0.84638 0.0
C1995 C 0.51338 0.44759 0.88037 0.0
C1996 C 0.48726 0.40373 0.848 0.0
H1997 H 0.43644 0.35547 0.84457 0.0
C1998 C 0.49957 0.39825 0.83743 0.0
C1999 C 0.46419 0.3882 0.85052 0.0
C2000 C 0.44995 0.39353 0.86128 0.0
C2001 C 0.48954 0.37739 0.82959 0.0
C2002 C 0.46647 0.36178 0.83216 0.0
C2003 C 0.45415 0.3674 0.84263 0.0
C2004 C 0.45473 0.33932 0.82441 0.0
C2005 C 0.50391 0.372 0.81898 0.0
C2006 C 0.45299 0.33725 0.80794 0.0
C2007 C 0.44031 0.31602 0.80088 0.0
C2008 C 0.42891 0.29654 0.8102 0.0
C2009 C 0.4312 0.29868 0.82666 0.0
C2010 C 0.44395 0.3198 0.83366 0.0
H2011 H 0.52214 0.38292 0.82153 0.0
H2012 H 0.49947 0.35412 0.82024 0.0
H2013 H 0.50101 0.37485 0.80657 0.0
H2014 H 0.46079 0.3521 0.80055 0.0
H2015 H 0.43873 0.31499 0.78818 0.0
H2016 H 0.53661 0.61857 0.66986 0.0
H2017 H 0.5519 0.65579 0.68168 0.0
H2018 H 0.57281 0.68643 0.6359 0.0
H2019 H 0.55704 0.64901 0.62386 0.0
H2020 H 0.59569 0.68881 0.68148 0.0
H2021 H 0.54307 0.72004 0.65386 0.0
H2022 H 0.53566 0.6908 0.65312 0.0
H2023 H 0.5568 0.71095 0.64009 0.0
C2024 C 0.54417 0.63318 0.66223 0.0
C2025 C 0.5456 0.63077 0.64589 0.0
C2026 C 0.55295 0.65448 0.66904 0.0
C2027 C 0.56341 0.67395 0.65971 0.0
C2028 C 0.56445 0.67166 0.64333 0.0
H2029 H 0.63485 0.81648 0.68476 0.0
H2030 H 0.62014 0.78035 0.67117 0.0
C2031 C 0.55548 0.65025 0.63646 0.0
C2032 C 0.57429 0.6965 0.66738 0.0
H2033 H 0.57398 0.74618 0.66927 0.0
C2034 C 0.59089 0.70133 0.67883 0.0
C2035 C 0.56811 0.71288 0.66388 0.0
C2036 C 0.5498 0.70841 0.65217 0.0
C2037 C 0.60147 0.72203 0.68684 0.0
C2038 C 0.59515 0.73831 0.68344 0.0
C2039 C 0.5788 0.73366 0.67185 0.0
C2040 C 0.60506 0.76015 0.69195 0.0
C2041 C 0.61955 0.72644 0.69873 0.0
C2042 C 0.60159 0.7608 0.70819 0.0
C2043 C 0.60999 0.78145 0.71603 0.0
C2044 C 0.622 0.80186 0.70775 0.0
C2045 C 0.62579 0.80111 0.69153 0.0
C2046 C 0.61731 0.78047 0.68371 0.0
H2047 H 0.6263 0.71481 0.69717 0.0
H2048 H 0.63369 0.74406 0.69787 0.0
H2049 H 0.61233 0.72391 0.71075 0.0
H2050 H 0.5919 0.74532 0.71475 0.0
H2051 H 0.60662 0.78141 0.72849 0.0
H2052 H 0.22512 0.82539 0.72456 0.0
H2053 H 0.26111 0.84633 0.71064 0.0
H2054 H 0.22575 0.83355 0.66652 0.0
H2055 H 0.18982 0.81304 0.68032 0.0
H2056 H 0.27794 0.83006 0.68792 0.0
H2057 H 0.26945 0.90062 0.66368 0.0
H2058 H 0.25129 0.88237 0.67902 0.0
H2059 H 0.24635 0.8733 0.65883 0.0
C2060 C 0.225 0.82735 0.71193 0.0
C2061 C 0.20457 0.81763 0.70358 0.0
C2062 C 0.24559 0.83925 0.70397 0.0
C2063 C 0.24615 0.84175 0.68754 0.0
C2064 C 0.22577 0.83229 0.67922 0.0
H2065 H 0.35725 0.90306 0.61961 0.0
H2066 H 0.31998 0.88019 0.63171 0.0
C2067 C 0.20521 0.82047 0.68715 0.0
C2068 C 0.26803 0.85326 0.67903 0.0
H2069 H 0.30003 0.89691 0.65412 0.0
C2070 C 0.28279 0.84473 0.68058 0.0
C2071 C 0.2743 0.8723 0.66935 0.0
C2072 C 0.25963 0.88284 0.6677 0.0
C2073 C 0.30358 0.85465 0.67268 0.0
C2074 C 0.3099 0.87377 0.66311 0.0
C2075 C 0.29506 0.88215 0.66138 0.0
C2076 C 0.33246 0.88621 0.65562 0.0
C2077 C 0.31856 0.84449 0.67453 0.0
C2078 C 0.35177 0.89708 0.66504 0.0
C2079 C 0.37296 0.91015 0.65821 0.0
C2080 C 0.37536 0.91269 0.64176 0.0
C2081 C 0.35602 0.90135 0.63229 0.0
C2082 C 0.33472 0.88836 0.63918 0.0
H2083 H 0.30896 0.82676 0.67868 0.0
H2084 H 0.32699 0.84499 0.66325 0.0
H2085 H 0.33179 0.85436 0.68337 0.0
H2086 H 0.35039 0.89594 0.67775 0.0
H2087 H 0.38745 0.91863 0.66588 0.0
H2088 H 0.1818 0.40047 0.73613 0.0
H2089 H 0.16008 0.41521 0.72287 0.0
H2090 H 0.17148 0.39257 0.67823 0.0
H2091 H 0.19263 0.37736 0.69137 0.0
H2092 H 0.17423 0.44786 0.70037 0.0
H2093 H 0.10446 0.36806 0.67667 0.0
H2094 H 0.12363 0.36866 0.69144 0.0
H2095 H 0.13169 0.37274 0.67102 0.0
C2096 C 0.17938 0.39834 0.72352 0.0
C2097 C 0.18881 0.38759 0.71483 0.0
C2098 C 0.16704 0.40684 0.71595 0.0
C2099 C 0.16386 0.40472 0.69957 0.0
C2100 C 0.17321 0.39393 0.69091 0.0
H2101 H 0.10285 0.45226 0.63082 0.0
H2102 H 0.12616 0.43932 0.64402 0.0
C2103 C 0.1854 0.38532 0.69846 0.0
C2104 C 0.15163 0.41461 0.69143 0.0
H2105 H 0.10772 0.402 0.66657 0.0
C2106 C 0.1596 0.4378 0.69307 0.0
C2107 C 0.13257 0.40149 0.68185 0.0
C2108 C 0.12243 0.37633 0.68024 0.0
C2109 C 0.14922 0.44826 0.68521 0.0
C2110 C 0.13033 0.43517 0.67555 0.0
C2111 C 0.12236 0.41202 0.67389 0.0
C2112 C 0.11794 0.44492 0.66755 0.0
C2113 C 0.15871 0.47329 0.6871 0.0
C2114 C 0.10577 0.45252 0.67643 0.0
C2115 C 0.09238 0.45979 0.66896 0.0
C2116 C 0.0909 0.45965 0.65243 0.0
C2117 C 0.1037 0.4527 0.64355 0.0
C2118 C 0.11696 0.44523 0.65106 0.0
H2119 H 0.17605 0.48172 0.69201 0.0
H2120 H 0.15899 0.48119 0.67563 0.0
H2121 H 0.14784 0.4763 0.69526 0.0
H2122 H 0.10607 0.45214 0.68917 0.0
H2123 H 0.08275 0.46502 0.67616 0.0
H2124 H 0.28667 0.86606 0.19811 0.0
H2125 H 0.32407 0.88002 0.1869 0.0
H2126 H 0.35328 0.89733 0.23327 0.0
H2127 H 0.31565 0.88336 0.24471 0.0
H2128 H 0.37344 0.93283 0.2102 0.0
H2129 H 0.36628 0.85325 0.18819 0.0
H2130 H 0.34331 0.85735 0.18259 0.0
H2131 H 0.34765 0.85384 0.20301 0.0
C2132 C 0.30097 0.87254 0.206 0.0
C2133 C 0.29813 0.87358 0.22234 0.0
C2134 C 0.32236 0.88042 0.19955 0.0
C2135 C 0.34143 0.88952 0.20924 0.0
C2136 C 0.33872 0.89024 0.22559 0.0
H2137 H 0.48457 0.95968 0.18537 0.0
H2138 H 0.44851 0.94442 0.19901 0.0
C2139 C 0.31722 0.88217 0.23211 0.0
C2140 C 0.3642 0.89955 0.20207 0.0
H2141 H 0.39704 0.88735 0.17843 0.0
C2142 C 0.37875 0.92288 0.2034 0.0
C2143 C 0.37097 0.88655 0.1931 0.0
C2144 C 0.35634 0.86132 0.19172 0.0
C2145 C 0.39962 0.93368 0.19558 0.0
C2146 C 0.40631 0.92071 0.18644 0.0
C2147 C 0.39186 0.89732 0.18534 0.0
C2148 C 0.42826 0.93099 0.17802 0.0
C2149 C 0.41396 0.95898 0.19673 0.0
C2150 C 0.42896 0.92833 0.16167 0.0
C2151 C 0.44961 0.93693 0.15381 0.0
C2152 C 0.46999 0.94828 0.16219 0.0
C2153 C 0.46922 0.95121 0.17853 0.0
C2154 C 0.44858 0.94256 0.18636 0.0
H2155 H 0.40389 0.96687 0.20035 0.0
H2156 H 0.42724 0.9633 0.20572 0.0
H2157 H 0.4223 0.9664 0.18534 0.0
H2158 H 0.41348 0.91939 0.15499 0.0
H2159 H 0.44959 0.93427 0.14125 0.0
H2160 H 0.12603 0.43828 0.23986 0.0
H2161 H 0.11113 0.45989 0.22661 0.0
H2162 H 0.11923 0.43554 0.18166 0.0
H2163 H 0.13355 0.41355 0.19476 0.0
H2164 H 0.12777 0.49304 0.20419 0.0
H2165 H 0.05322 0.41681 0.18069 0.0
H2166 H 0.07146 0.41539 0.19537 0.0
H2167 H 0.07937 0.41885 0.17492 0.0
C2168 C 0.12482 0.43769 0.22714 0.0
C2169 C 0.13074 0.42397 0.21839 0.0
C2170 C 0.11624 0.45 0.21959 0.0
C2171 C 0.11347 0.44885 0.20316 0.0
C2172 C 0.12053 0.43615 0.19437 0.0
H2173 H 0.06635 0.51118 0.13523 0.0
H2174 H 0.08235 0.49049 0.14841 0.0
C2175 C 0.12889 0.42371 0.20189 0.0
C2176 C 0.10294 0.46063 0.19521 0.0
H2177 H 0.05957 0.45205 0.17092 0.0
C2178 C 0.11279 0.48406 0.197 0.0
C2179 C 0.08331 0.44889 0.18584 0.0
C2180 C 0.07107 0.42358 0.1842 0.0
C2181 C 0.10384 0.49609 0.18942 0.0
C2182 C 0.08444 0.48437 0.1799 0.0
C2183 C 0.07454 0.46098 0.17814 0.0
C2184 C 0.07399 0.49611 0.1719 0.0
C2185 C 0.11536 0.52131 0.19143 0.0
C2186 C 0.06349 0.50558 0.18072 0.0
C2187 C 0.05417 0.5172 0.17325 0.0
C2188 C 0.05521 0.51963 0.15677 0.0
C2189 C 0.06526 0.50962 0.14792 0.0
C2190 C 0.07445 0.49784 0.15543 0.0
H2191 H 0.13248 0.52831 0.19654 0.0
H2192 H 0.11672 0.52965 0.17996 0.0
H2193 H 0.10519 0.52552 0.19944 0.0
H2194 H 0.06267 0.50414 0.19343 0.0
H2195 H 0.04657 0.52469 0.18044 0.0
H2196 H 0.5821 0.71544 0.19936 0.0
H2197 H 0.55934 0.6788 0.18683 0.0
H2198 H 0.53789 0.64757 0.23237 0.0
H2199 H 0.56066 0.68441 0.24511 0.0
H2200 H 0.5577 0.62827 0.21071 0.0
H2201 H 0.48942 0.63769 0.18311 0.0
H2202 H 0.5175 0.66085 0.18016 0.0
H2203 H 0.50569 0.65464 0.19962 0.0
C2204 C 0.57227 0.70087 0.20675 0.0
C2205 C 0.57322 0.70286 0.22326 0.0
C2206 C 0.55919 0.67993 0.19954 0.0
C2207 C 0.54684 0.6605 0.20866 0.0
C2208 C 0.54724 0.66242 0.22513 0.0
H2209 H 0.47728 0.51822 0.18287 0.0
H2210 H 0.49644 0.55403 0.19691 0.0
C2211 C 0.56016 0.68348 0.23238 0.0
C2212 C 0.53497 0.63811 0.20091 0.0
H2213 H 0.49289 0.60643 0.17491 0.0
C2214 C 0.54337 0.62335 0.20301 0.0
C2215 C 0.51651 0.63192 0.19071 0.0
C2216 C 0.50657 0.64699 0.1883 0.0
C2217 C 0.53417 0.60276 0.19487 0.0
C2218 C 0.51564 0.5965 0.18465 0.0
C2219 C 0.50712 0.61122 0.18269 0.0
C2220 C 0.50469 0.57468 0.176 0.0
C2221 C 0.5449 0.58831 0.1969 0.0
C2222 C 0.50253 0.57423 0.15953 0.0
C2223 C 0.49131 0.55369 0.15144 0.0
C2224 C 0.48201 0.53316 0.15967 0.0
C2225 C 0.48446 0.53368 0.17613 0.0
C2226 C 0.49552 0.5542 0.1842 0.0
H2227 H 0.56256 0.59836 0.20109 0.0
H2228 H 0.5353 0.57511 0.20581 0.0
H2229 H 0.54482 0.57991 0.1857 0.0
H2230 H 0.50939 0.58981 0.15294 0.0
H2231 H 0.48962 0.5539 0.13879 0.0
H2232 H 0.12282 0.68855 0.74376 0.0
H2233 H 0.10799 0.65091 0.73218 0.0
H2234 H 0.12427 0.68022 0.6858 0.0
H2235 H 0.13905 0.7177 0.69717 0.0
H2236 H 0.07158 0.63191 0.70932 0.0
H2237 H 0.14963 0.63643 0.68638 0.0
H2238 H 0.14994 0.65508 0.70155 0.0
H2239 H 0.14613 0.65996 0.68131 0.0
C2240 C 0.12362 0.68701 0.73112 0.0
C2241 C 0.13211 0.70615 0.7214 0.0
C2242 C 0.11506 0.6655 0.72452 0.0
C2243 C 0.11519 0.66281 0.70814 0.0
C2244 C 0.12429 0.68193 0.69848 0.0
H2245 H 0.06666 0.55155 0.64193 0.0
H2246 H 0.0827 0.5885 0.65467 0.0
C2247 C 0.13265 0.70335 0.70502 0.0
C2248 C 0.10444 0.64002 0.70097 0.0
H2249 H 0.11494 0.60571 0.67761 0.0
C2250 C 0.08105 0.62605 0.7025 0.0
C2251 C 0.11682 0.63258 0.69194 0.0
C2252 C 0.14206 0.64668 0.69026 0.0
C2253 C 0.06962 0.60501 0.69494 0.0
C2254 C 0.082 0.59753 0.68589 0.0
C2255 C 0.10543 0.61147 0.68447 0.0
C2256 C 0.07107 0.57514 0.67803 0.0
C2257 C 0.04431 0.59134 0.69633 0.0
C2258 C 0.05912 0.55533 0.68689 0.0
C2259 C 0.04978 0.53424 0.67963 0.0
C2260 C 0.05243 0.53246 0.66336 0.0
C2261 C 0.0642 0.55231 0.65446 0.0
C2262 C 0.07346 0.57344 0.66174 0.0
H2263 H 0.03696 0.60206 0.69953 0.0
H2264 H 0.03653 0.58244 0.68516 0.0
H2265 H 0.03976 0.57856 0.70574 0.0
H2266 H 0.05748 0.55615 0.69951 0.0
H2267 H 0.04103 0.51932 0.68688 0.0
H2268 H 0.28804 0.41659 0.7052 0.0
H2269 H 0.3248 0.43916 0.69284 0.0
H2270 H 0.35603 0.45808 0.73853 0.0
H2271 H 0.31912 0.43533 0.75112 0.0
H2272 H 0.35744 0.48616 0.69629 0.0
H2273 H 0.38982 0.42993 0.71546 0.0
H2274 H 0.36024 0.42126 0.71595 0.0
H2275 H 0.37891 0.44013 0.73067 0.0
C2276 C 0.30267 0.42562 0.71269 0.0
C2277 C 0.30061 0.42399 0.72919 0.0
C2278 C 0.32368 0.43855 0.70557 0.0
C2279 C 0.34317 0.45002 0.71475 0.0
C2280 C 0.34121 0.44907 0.73123 0.0
H2281 H 0.48457 0.52516 0.68784 0.0
H2282 H 0.44885 0.5053 0.70201 0.0
C2283 C 0.32009 0.43619 0.7384 0.0
C2284 C 0.36547 0.46253 0.70691 0.0
H2285 H 0.41445 0.46197 0.70067 0.0
C2286 C 0.36996 0.48094 0.69727 0.0
C2287 C 0.38174 0.45565 0.7082 0.0
C2288 C 0.3775 0.43557 0.71802 0.0
C2289 C 0.39035 0.49276 0.68896 0.0
C2290 C 0.40646 0.48562 0.69 0.0
C2291 C 0.40206 0.46737 0.69981 0.0
C2292 C 0.42809 0.49701 0.68117 0.0
C2293 C 0.39459 0.51305 0.67938 0.0
C2294 C 0.42838 0.49848 0.66466 0.0
C2295 C 0.44884 0.50992 0.65649 0.0
C2296 C 0.46941 0.5199 0.66467 0.0
C2297 C 0.46906 0.5177 0.68115 0.0
C2298 C 0.44863 0.50636 0.68929 0.0
H2299 H 0.38378 0.51998 0.68331 0.0
H2300 H 0.41249 0.52658 0.68016 0.0
H2301 H 0.39061 0.50805 0.66686 0.0
H2302 H 0.41277 0.49089 0.65809 0.0
H2303 H 0.44851 0.5112 0.64381 0.0
H2304 H 0.59088 0.86999 0.69643 0.0
H2305 H 0.56839 0.88413 0.68376 0.0
H2306 H 0.54344 0.89017 0.72902 0.0
H2307 H 0.56591 0.87593 0.74188 0.0
H2308 H 0.5193 0.86787 0.68604 0.0
H2309 H 0.57446 0.95499 0.70842 0.0
H2310 H 0.58346 0.93431 0.70781 0.0
H2311 H 0.56399 0.93255 0.72264 0.0
C2312 C 0.58045 0.87409 0.70372 0.0
C2313 C 0.58032 0.87196 0.7202 0.0
C2314 C 0.56759 0.88216 0.69643 0.0
C2315 C 0.55451 0.88847 0.70546 0.0
C2316 C 0.55365 0.88561 0.72186 0.0
H2317 H 0.48107 0.95714 0.68123 0.0
H2318 H 0.50071 0.94033 0.69447 0.0
C2319 C 0.56639 0.87735 0.72918 0.0
C2320 C 0.54248 0.89878 0.69768 0.0
H2321 H 0.54331 0.9487 0.69303 0.0
C2322 C 0.52447 0.88553 0.68757 0.0
C2323 C 0.54933 0.92181 0.69971 0.0
C2324 C 0.56895 0.93689 0.71014 0.0
C2325 C 0.5129 0.89463 0.67957 0.0
C2326 C 0.51998 0.9178 0.68138 0.0
C2327 C 0.53794 0.93099 0.69158 0.0
C2328 C 0.5087 0.92861 0.67308 0.0
C2329 C 0.49287 0.8792 0.66956 0.0
C2330 C 0.50714 0.92819 0.65658 0.0
C2331 C 0.49576 0.93771 0.64894 0.0
C2332 C 0.48602 0.94813 0.65766 0.0
C2333 C 0.48837 0.94927 0.67413 0.0
C2334 C 0.49958 0.93962 0.68175 0.0
H2335 H 0.48582 0.86126 0.67297 0.0
H2336 H 0.47933 0.88356 0.6705 0.0
H2337 H 0.4982 0.88091 0.65707 0.0
H2338 H 0.51459 0.92037 0.64959 0.0
H2339 H 0.49436 0.93664 0.63624 0.0
H2340 H 0.18685 0.37086 0.18351 0.0
H2341 H 0.22294 0.38561 0.16986 0.0
H2342 H 0.25808 0.41228 0.21361 0.0
H2343 H 0.22202 0.39762 0.22741 0.0
H2344 H 0.25815 0.43279 0.16931 0.0
H2345 H 0.28701 0.37656 0.19429 0.0
H2346 H 0.25787 0.36957 0.1947 0.0
H2347 H 0.27764 0.38975 0.20836 0.0
C2348 C 0.20223 0.3796 0.1903 0.0
C2349 C 0.20153 0.38299 0.20658 0.0
C2350 C 0.22284 0.3881 0.18245 0.0
C2351 C 0.24317 0.39992 0.19073 0.0
C2352 C 0.24257 0.40297 0.20703 0.0
H2353 H 0.38444 0.46444 0.16767 0.0
H2354 H 0.34761 0.44965 0.18003 0.0
C2355 C 0.22195 0.39459 0.21489 0.0
C2356 C 0.26497 0.40983 0.18221 0.0
H2357 H 0.31323 0.4072 0.17884 0.0
C2358 C 0.27019 0.42716 0.17131 0.0
C2359 C 0.2806 0.40246 0.18488 0.0
C2360 C 0.27553 0.38344 0.19609 0.0
C2361 C 0.29094 0.43775 0.16331 0.0
C2362 C 0.30664 0.43041 0.166 0.0
C2363 C 0.30124 0.41288 0.17678 0.0
C2364 C 0.32905 0.44096 0.15814 0.0
C2365 C 0.29609 0.45716 0.15245 0.0
C2366 C 0.33101 0.44131 0.14165 0.0
C2367 C 0.3522 0.45004 0.13449 0.0
C2368 C 0.37177 0.45824 0.14371 0.0
C2369 C 0.36973 0.45819 0.16019 0.0
C2370 C 0.34865 0.44969 0.1673 0.0
H2371 H 0.28529 0.46463 0.15502 0.0
H2372 H 0.31401 0.47059 0.1534 0.0
H2373 H 0.29284 0.45099 0.14013 0.0
H2374 H 0.31611 0.43423 0.13431 0.0
H2375 H 0.35316 0.44963 0.12178 0.0
H2376 H 0.54969 0.89803 0.12429 0.0
H2377 H 0.56406 0.87514 0.13639 0.0
H2378 H 0.55048 0.89199 0.18246 0.0
H2379 H 0.53619 0.9148 0.17057 0.0
H2380 H 0.60138 0.8928 0.15881 0.0
H2381 H 0.5226 0.82239 0.18353 0.0
H2382 H 0.52266 0.84021 0.16785 0.0
H2383 H 0.52715 0.85005 0.18784 0.0
C2384 C 0.5494 0.89654 0.13698 0.0
C2385 C 0.54179 0.90825 0.14646 0.0
C2386 C 0.55771 0.88355 0.14387 0.0
C2387 C 0.55818 0.88176 0.16031 0.0
C2388 C 0.55 0.8929 0.16975 0.0
H2389 H 0.60397 0.82112 0.22945 0.0
H2390 H 0.58926 0.84209 0.21525 0.0
C2391 C 0.54191 0.90601 0.16291 0.0
C2392 C 0.56843 0.86944 0.16777 0.0
H2393 H 0.55698 0.82577 0.19251 0.0
C2394 C 0.59168 0.878 0.16605 0.0
C2395 C 0.55574 0.85028 0.17731 0.0
C2396 C 0.53061 0.84002 0.17918 0.0
C2397 C 0.60272 0.86829 0.17401 0.0
C2398 C 0.59005 0.84919 0.18368 0.0
C2399 C 0.56672 0.84046 0.18518 0.0
C2400 C 0.60056 0.83794 0.19235 0.0
C2401 C 0.62795 0.87907 0.17243 0.0
C2402 C 0.61201 0.8288 0.18424 0.0
C2403 C 0.62063 0.81699 0.19235 0.0
C2404 C 0.61772 0.81382 0.20873 0.0
C2405 C 0.60659 0.82332 0.21686 0.0
C2406 C 0.59808 0.83524 0.20875 0.0
H2407 H 0.63573 0.89684 0.16844 0.0
H2408 H 0.63578 0.87866 0.18377 0.0
H2409 H 0.63191 0.86966 0.16355 0.0
H2410 H 0.61372 0.83021 0.17156 0.0
H2411 H 0.62891 0.8097 0.18569 0.0
H2412 H 0.17868 0.78079 0.22436 0.0
H2413 H 0.15833 0.74481 0.21036 0.0
H2414 H 0.1724 0.7802 0.16616 0.0
H2415 H 0.19234 0.81617 0.18005 0.0
H2416 H 0.12901 0.74533 0.16781 0.0
H2417 H 0.18813 0.71617 0.18538 0.0
H2418 H 0.17624 0.72317 0.20177 0.0
H2419 H 0.19439 0.74484 0.1882 0.0
C2420 C 0.17729 0.78092 0.21168 0.0
C2421 C 0.18725 0.80137 0.20333 0.0
C2422 C 0.16583 0.76033 0.20367 0.0
C2423 C 0.16429 0.75978 0.18717 0.0
C2424 C 0.17352 0.78019 0.17888 0.0
H2425 H 0.10205 0.64868 0.11867 0.0
H2426 H 0.12491 0.68607 0.13061 0.0
C2427 C 0.18491 0.80076 0.18686 0.0
C2428 C 0.15308 0.73799 0.17851 0.0
H2429 H 0.1543 0.68922 0.17273 0.0
C2430 C 0.13464 0.73314 0.16878 0.0
C2431 C 0.16055 0.72215 0.17969 0.0
C2432 C 0.18105 0.72688 0.18919 0.0
C2433 C 0.12302 0.71258 0.16063 0.0
C2434 C 0.13021 0.69656 0.16209 0.0
C2435 C 0.14884 0.70154 0.17162 0.0
C2436 C 0.11775 0.67398 0.15461 0.0
C2437 C 0.10269 0.70783 0.15093 0.0
C2438 C 0.1068 0.65477 0.16412 0.0
C2439 C 0.09383 0.63349 0.15738 0.0
C2440 C 0.09163 0.63088 0.14093 0.0
C2441 C 0.10336 0.65008 0.13137 0.0
C2442 C 0.11629 0.67147 0.13817 0.0
H2443 H 0.09687 0.72003 0.15338 0.0
H2444 H 0.10705 0.70899 0.13825 0.0
H2445 H 0.08858 0.69053 0.15323 0.0
H2446 H 0.10781 0.65631 0.17683 0.0
H2447 H 0.08517 0.6191 0.16512 0.0
H2448 H 0.36715 0.25574 0.05287 0.0
H2449 H 0.39928 0.29371 0.05718 0.0
H2450 H 0.39426 0.28148 0.10722 0.0
H2451 H 0.36275 0.24379 0.10296 0.0
H2452 H 0.3903 0.32188 0.07299 0.0
H2453 H 0.46105 0.32117 0.10315 0.0
H2454 H 0.43987 0.29699 0.0925 0.0
H2455 H 0.43498 0.30206 0.11256 0.0
C2456 C 0.37363 0.26084 0.06469 0.0
C2457 C 0.36233 0.24699 0.0776 0.0
C2458 C 0.39194 0.28254 0.06716 0.0
C2459 C 0.39929 0.29047 0.08253 0.0
C2460 C 0.38933 0.27572 0.09524 0.0
H2461 H 0.43546 0.4057 0.13765 0.0
H2462 H 0.43056 0.36993 0.1274 0.0
C2463 C 0.37109 0.25419 0.09279 0.0
C2464 C 0.41331 0.31497 0.08574 0.0
H2465 H 0.45559 0.35309 0.10937 0.0
C2466 C 0.405 0.32886 0.08056 0.0
C2467 C 0.43227 0.32401 0.09583 0.0
C2468 C 0.44266 0.31026 0.10119 0.0
C2469 C 0.41408 0.35102 0.08599 0.0
C2470 C 0.43242 0.35979 0.09662 0.0
C2471 C 0.44149 0.3463 0.10126 0.0
C2472 C 0.4411 0.3824 0.10371 0.0
C2473 C 0.40298 0.36435 0.08104 0.0
C2474 C 0.44987 0.40148 0.09401 0.0
C2475 C 0.45226 0.42163 0.09976 0.0
C2476 C 0.44652 0.42319 0.1154 0.0
C2477 C 0.44014 0.40489 0.12559 0.0
C2478 C 0.43732 0.3845 0.11973 0.0
H2479 H 0.38624 0.35352 0.07556 0.0
H2480 H 0.40076 0.37316 0.09127 0.0
H2481 H 0.4138 0.37725 0.07228 0.0
H2482 H 0.45322 0.40029 0.08169 0.0
H2483 H 0.45729 0.43561 0.09172 0.0
H2484 H 0.58549 0.0123 0.09682 0.0
H2485 H 0.62264 0.0446 0.09219 0.0
H2486 H 0.62604 0.06505 0.1406 0.0
H2487 H 0.58857 0.03221 0.14544 0.0
H2488 H 0.64488 0.09234 0.09639 0.0
H2489 H 0.67681 0.04966 0.13608 0.0
H2490 H 0.64817 0.03555 0.12908 0.0
H2491 H 0.65685 0.05675 0.14409 0.0
C2492 C 0.59394 0.02382 0.10647 0.0
C2493 C 0.58434 0.01945 0.1216 0.0
C2494 C 0.61511 0.04241 0.10375 0.0
C2495 C 0.62722 0.05701 0.11609 0.0
C2496 C 0.61702 0.05378 0.13096 0.0
H2497 H 0.77228 0.1232 0.10915 0.0
H2498 H 0.73667 0.11907 0.11849 0.0
C2499 C 0.59564 0.03508 0.1337 0.0
C2500 C 0.65142 0.07328 0.11362 0.0
H2501 H 0.7029 0.07882 0.12048 0.0
C2502 C 0.65772 0.08983 0.10191 0.0
C2503 C 0.6681 0.0699 0.12081 0.0
C2504 C 0.66229 0.05196 0.13315 0.0
C2505 C 0.68014 0.10237 0.09669 0.0
C2506 C 0.6965 0.09787 0.10313 0.0
C2507 C 0.6904 0.08234 0.11553 0.0
C2508 C 0.71936 0.10684 0.09626 0.0
C2509 C 0.6859 0.1199 0.08409 0.0
C2510 C 0.7219 0.10253 0.08041 0.0
C2511 C 0.74248 0.10543 0.07496 0.0
C2512 C 0.76054 0.11218 0.0854 0.0
C2513 C 0.75852 0.11806 0.10089 0.0
C2514 C 0.73818 0.11566 0.10623 0.0
H2515 H 0.67478 0.12736 0.08488 0.0
H2516 H 0.70371 0.13362 0.08493 0.0
H2517 H 0.6832 0.11181 0.07236 0.0
H2518 H 0.70754 0.09516 0.07256 0.0
H2519 H 0.74362 0.10044 0.06305 0.0
H2520 H 0.8889 0.63861 0.05816 0.0
H2521 H 0.89406 0.60618 0.06341 0.0
H2522 H 0.90401 0.62373 0.11267 0.0
H2523 H 0.89886 0.65578 0.10754 0.0
H2524 H 0.9351 0.61496 0.07488 0.0
H2525 H 0.86852 0.55541 0.11495 0.0
H2526 H 0.86526 0.57543 0.10302 0.0
H2527 H 0.88009 0.58398 0.12148 0.0
C2528 C 0.8914 0.63502 0.07017 0.0
C2529 C 0.89373 0.6498 0.08242 0.0
C2530 C 0.89434 0.61652 0.07316 0.0
C2531 C 0.89917 0.61238 0.08847 0.0
C2532 C 0.89979 0.62623 0.10084 0.0
H2533 H 0.97815 0.5724 0.13902 0.0
H2534 H 0.94791 0.57923 0.13033 0.0
C2535 C 0.89712 0.64474 0.09785 0.0
C2536 C 0.90796 0.59681 0.09124 0.0
H2537 H 0.90467 0.55678 0.11676 0.0
C2538 C 0.92812 0.60177 0.08371 0.0
C2539 C 0.89897 0.57986 0.10292 0.0
C2540 C 0.87689 0.57321 0.11094 0.0
C2541 C 0.94044 0.59145 0.08832 0.0
C2542 C 0.93194 0.57512 0.10048 0.0
C2543 C 0.91115 0.56927 0.10746 0.0
C2544 C 0.9456 0.56568 0.10693 0.0
C2545 C 0.96322 0.59939 0.08086 0.0
C2546 C 0.95325 0.55453 0.09701 0.0
C2547 C 0.97075 0.55108 0.10184 0.0
C2548 C 0.98028 0.558 0.11686 0.0
C2549 C 0.97088 0.56676 0.12744 0.0
C2550 C 0.95367 0.5707 0.12246 0.0
H2551 H 0.96935 0.61547 0.07436 0.0
H2552 H 0.97596 0.60187 0.08989 0.0
H2553 H 0.96199 0.58653 0.07236 0.0
H2554 H 0.94688 0.55003 0.08512 0.0
H2555 H 0.97777 0.54426 0.09351 0.0
H2556 H 0.25229 0.34902 0.42603 0.0
H2557 H 0.28936 0.38194 0.42236 0.0
H2558 H 0.29089 0.39949 0.47127 0.0
H2559 H 0.25348 0.36612 0.47512 0.0
H2560 H 0.31112 0.43003 0.42849 0.0
H2561 H 0.34197 0.38408 0.46587 0.0
H2562 H 0.31366 0.3704 0.45824 0.0
H2563 H 0.32142 0.39016 0.47415 0.0
C2564 C 0.26029 0.36006 0.43598 0.0
C2565 C 0.2502 0.35475 0.45096 0.0
C2566 C 0.28141 0.379 0.43382 0.0
C2567 C 0.29296 0.39296 0.44657 0.0
C2568 C 0.28226 0.38876 0.46131 0.0
H2569 H 0.43808 0.45896 0.44098 0.0
H2570 H 0.40236 0.45409 0.45074 0.0
C2571 C 0.26092 0.36975 0.46349 0.0
C2572 C 0.3172 0.40945 0.44465 0.0
H2573 H 0.36843 0.41428 0.4512 0.0
C2574 C 0.32381 0.42702 0.43373 0.0
C2575 C 0.33366 0.40544 0.45149 0.0
C2576 C 0.32747 0.38647 0.46304 0.0
C2577 C 0.34637 0.44002 0.42891 0.0
C2578 C 0.36255 0.4349 0.4349 0.0
C2579 C 0.35609 0.41828 0.44658 0.0
C2580 C 0.38554 0.44436 0.42817 0.0
C2581 C 0.35249 0.45873 0.41721 0.0
C2582 C 0.38842 0.44172 0.41205 0.0
C2583 C 0.40907 0.44509 0.40639 0.0
C2584 C 0.42686 0.45053 0.41686 0.0
C2585 C 0.42452 0.45474 0.43271 0.0
C2586 C 0.40412 0.45194 0.43828 0.0
H2587 H 0.34151 0.46626 0.41866 0.0
H2588 H 0.37034 0.47223 0.41843 0.0
H2589 H 0.34987 0.45175 0.40511 0.0
H2590 H 0.37426 0.43531 0.40405 0.0
H2591 H 0.41045 0.44145 0.39416 0.0
H2592 H 0.53501 0.95988 0.41214 0.0
H2593 H 0.53486 0.92653 0.4232 0.0
H2594 H 0.60232 0.96918 0.44059 0.0
H2595 H 0.60244 0.00202 0.43006 0.0
H2596 H 0.56072 0.90817 0.41746 0.0
H2597 H 0.57292 0.93339 0.47938 0.0
H2598 H 0.56364 0.94654 0.46508 0.0
H2599 H 0.5933 0.95701 0.46828 0.0
C2600 C 0.54973 0.96203 0.41838 0.0
C2601 C 0.56864 0.98362 0.42036 0.0
C2602 C 0.54956 0.94303 0.42477 0.0
C2603 C 0.56826 0.94545 0.43324 0.0
C2604 C 0.5873 0.96693 0.43472 0.0
H2605 H 0.6537 0.90321 0.43082 0.0
H2606 H 0.62024 0.90559 0.42664 0.0
C2607 C 0.58744 0.98574 0.4285 0.0
C2608 C 0.56934 0.92586 0.43963 0.0
H2609 H 0.59446 0.9149 0.47019 0.0
C2610 C 0.56733 0.90908 0.42919 0.0
C2611 C 0.57681 0.92607 0.45518 0.0
C2612 C 0.57647 0.94159 0.46764 0.0
C2613 C 0.57595 0.89494 0.43314 0.0
C2614 C 0.58767 0.89844 0.44755 0.0
C2615 C 0.58629 0.91264 0.45888 0.0
C2616 C 0.60551 0.89228 0.4495 0.0
C2617 C 0.57369 0.87743 0.42139 0.0
C2618 C 0.60891 0.88424 0.4639 0.0
C2619 C 0.62874 0.88343 0.46653 0.0
C2620 C 0.64547 0.89082 0.45483 0.0
C2621 C 0.64132 0.89756 0.44019 0.0
C2622 C 0.6218 0.89851 0.43763 0.0
H2623 H 0.55658 0.869 0.41612 0.0
H2624 H 0.58587 0.88574 0.41164 0.0
H2625 H 0.57671 0.86445 0.42683 0.0
H2626 H 0.59673 0.87955 0.47332 0.0
H2627 H 0.63144 0.87812 0.47793 0.0
H2628 H 0.09631 0.75026 0.42787 0.0
H2629 H 0.09173 0.71306 0.42379 0.0
H2630 H 0.11157 0.71219 0.47181 0.0
H2631 H 0.11598 0.74971 0.4761 0.0
H2632 H 0.11831 0.69154 0.42794 0.0
H2633 H 0.04524 0.66073 0.46903 0.0
H2634 H 0.05908 0.68899 0.46128 0.0
H2635 H 0.07245 0.68141 0.47633 0.0
C2636 C 0.10006 0.74237 0.43753 0.0
C2637 C 0.10603 0.75269 0.45242 0.0
C2638 C 0.09762 0.72116 0.43512 0.0
C2639 C 0.10101 0.70977 0.44754 0.0
C2640 C 0.10866 0.72068 0.46212 0.0
H2641 H 0.02423 0.56428 0.44463 0.0
H2642 H 0.05544 0.60076 0.45282 0.0
C2643 C 0.11121 0.74208 0.46454 0.0
C2644 C 0.09327 0.68551 0.44555 0.0
H2645 H 0.04824 0.63408 0.45398 0.0
C2646 C 0.10328 0.67884 0.43388 0.0
C2647 C 0.07365 0.66903 0.45328 0.0
C2648 C 0.06181 0.67525 0.46562 0.0
C2649 C 0.09359 0.65617 0.42926 0.0
C2650 C 0.07313 0.63992 0.43627 0.0
C2651 C 0.06395 0.64648 0.44859 0.0
C2652 C 0.0594 0.61661 0.43011 0.0
C2653 C 0.10513 0.64999 0.41671 0.0
C2654 C 0.05201 0.61295 0.41437 0.0
C2655 C 0.03449 0.59187 0.40958 0.0
C2656 C 0.02381 0.57442 0.42057 0.0
C2657 C 0.03228 0.57756 0.43596 0.0
C2658 C 0.05008 0.5984 0.44064 0.0
H2659 H 0.12367 0.6614 0.41709 0.0
H2660 H 0.10142 0.63233 0.418 0.0
H2661 H 0.0992 0.6519 0.40497 0.0
H2662 H 0.05846 0.6268 0.4061 0.0
H2663 H 0.02798 0.58988 0.39772 0.0
H2664 H 0.56147 0.58029 0.93554 0.0
H2665 H 0.56665 0.61771 0.9397 0.0
H2666 H 0.56662 0.62704 0.88951 0.0
H2667 H 0.56142 0.58924 0.88524 0.0
H2668 H 0.60574 0.65763 0.90423 0.0
H2669 H 0.53375 0.65315 0.93661 0.0
H2670 H 0.54267 0.6349 0.94504 0.0
H2671 H 0.53155 0.62974 0.92533 0.0
C2672 C 0.56186 0.59002 0.92538 0.0
C2673 C 0.56132 0.58201 0.91006 0.0
C2674 C 0.56455 0.61134 0.92778 0.0
C2675 C 0.56679 0.62512 0.91493 0.0
C2676 C 0.56465 0.61655 0.89959 0.0
H2677 H 0.65014 0.77106 0.92363 0.0
H2678 H 0.6201 0.73549 0.91294 0.0
C2679 C 0.5617 0.59499 0.89716 0.0
C2680 C 0.57603 0.64952 0.91767 0.0
H2681 H 0.57017 0.68675 0.94119 0.0
C2682 C 0.59772 0.66418 0.91193 0.0
C2683 C 0.56564 0.65791 0.92791 0.0
C2684 C 0.54201 0.6431 0.93395 0.0
C2685 C 0.61002 0.68656 0.91707 0.0
C2686 C 0.60001 0.69477 0.92786 0.0
C2687 C 0.57781 0.68045 0.93294 0.0
C2688 C 0.61327 0.71746 0.93499 0.0
C2689 C 0.63422 0.70062 0.91176 0.0
C2690 C 0.61794 0.7196 0.95121 0.0
C2691 C 0.63463 0.74014 0.95744 0.0
C2692 C 0.64694 0.75857 0.94743 0.0
C2693 C 0.64087 0.75694 0.93151 0.0
C2694 C 0.62386 0.73664 0.92539 0.0
H2695 H 0.64074 0.69018 0.90643 0.0
H2696 H 0.63541 0.71287 0.90275 0.0
H2697 H 0.64531 0.71017 0.92177 0.0
H2698 H 0.60987 0.70501 0.95884 0.0
H2699 H 0.63918 0.74105 0.96973 0.0
H2700 H 0.23638 0.87989 0.9276 0.0
H2701 H 0.27243 0.88443 0.91896 0.0
H2702 H 0.29971 0.90766 0.9654 0.0
H2703 H 0.26319 0.902 0.97423 0.0
H2704 H 0.30631 0.92478 0.91758 0.0
H2705 H 0.33279 0.87542 0.95385 0.0
H2706 H 0.30391 0.86927 0.95321 0.0
H2707 H 0.32396 0.89091 0.96609 0.0
C2708 C 0.24984 0.88502 0.93611 0.0
C2709 C 0.24715 0.89061 0.95155 0.0
C2710 C 0.27042 0.88764 0.93118 0.0
C2711 C 0.28886 0.89636 0.9415 0.0
C2712 C 0.28567 0.90039 0.95729 0.0
H2713 H 0.4235 0.99011 0.94212 0.0
H2714 H 0.38608 0.95814 0.94665 0.0
C2715 C 0.26483 0.89727 0.96234 0.0
C2716 C 0.31196 0.90537 0.93507 0.0
H2717 H 0.36314 0.91022 0.94254 0.0
C2718 C 0.31856 0.92106 0.92273 0.0
C2719 C 0.32799 0.90061 0.94179 0.0
C2720 C 0.3217 0.88294 0.95436 0.0
C2721 C 0.34101 0.93331 0.91773 0.0
C2722 C 0.35733 0.92959 0.92514 0.0
C2723 C 0.35056 0.91297 0.93684 0.0
C2724 C 0.38166 0.94552 0.92282 0.0
C2725 C 0.34735 0.95137 0.9054 0.0
C2726 C 0.39203 0.94848 0.90804 0.0
C2727 C 0.41358 0.96696 0.90536 0.0
C2728 C 0.42485 0.98265 0.91743 0.0
C2729 C 0.41508 0.97852 0.9325 0.0
C2730 C 0.39374 0.96013 0.93516 0.0
H2731 H 0.33306 0.95399 0.90232 0.0
H2732 H 0.36157 0.96764 0.90958 0.0
H2733 H 0.35284 0.94649 0.89453 0.0
H2734 H 0.38302 0.9372 0.89841 0.0
H2735 H 0.42077 0.96966 0.89367 0.0
H2736 H 0.13349 0.38267 0.97388 0.0
H2737 H 0.13032 0.41552 0.9659 0.0
H2738 H 0.08528 0.37632 0.92841 0.0
H2739 H 0.08879 0.34416 0.93588 0.0
H2740 H 0.11445 0.41992 0.91923 0.0
H2741 H 0.0736 0.41753 0.97665 0.0
H2742 H 0.10191 0.42238 0.97663 0.0
H2743 H 0.07899 0.39525 0.97113 0.0
C2744 C 0.12316 0.38123 0.96383 0.0
C2745 C 0.11109 0.36067 0.9557 0.0
C2746 C 0.12133 0.39998 0.95931 0.0
C2747 C 0.10734 0.3983 0.94667 0.0
C2748 C 0.09624 0.3781 0.93816 0.0
H2749 H 1.00089 0.40057 0.92171 0.0
H2750 H 0.03475 0.40109 0.9306 0.0
C2751 C 0.09811 0.35958 0.94258 0.0
C2752 C 0.10181 0.41613 0.94291 0.0
H2753 H 0.06515 0.43301 0.95518 0.0
C2754 C 0.10438 0.42362 0.92724 0.0
C2755 C 0.08884 0.42111 0.95341 0.0
C2756 C 0.08552 0.41367 0.97039 0.0
C2757 C 0.09188 0.43314 0.9213 0.0
C2758 C 0.07682 0.4355 0.93138 0.0
C2759 C 0.07668 0.43099 0.9475 0.0
C2760 C 0.0571 0.43621 0.92503 0.0
C2761 C 0.09282 0.43815 0.90396 0.0
C2762 C 0.05855 0.45574 0.91854 0.0
C2763 C 0.03897 0.45546 0.91326 0.0
C2764 C 0.01786 0.43569 0.91456 0.0
C2765 C 0.01681 0.41614 0.92067 0.0
C2766 C 0.03616 0.41641 0.9258 0.0
H2767 H 0.10633 0.43661 0.89785 0.0
H2768 H 0.07642 0.42628 0.89843 0.0
H2769 H 0.09579 0.45547 0.9022 0.0
H2770 H 0.07462 0.47118 0.91786 0.0
H2771 H 0.04024 0.47079 0.90865 0.0
H2772 H 0.7569 0.65486 0.6099 0.0
H2773 H 0.72067 0.62212 0.61593 0.0
H2774 H 0.7127 0.60164 0.56724 0.0
H2775 H 0.74934 0.63486 0.56105 0.0
H2776 H 0.67896 0.60805 0.57825 0.0
H2777 H 0.69176 0.55456 0.62058 0.0
H2778 H 0.7074 0.58361 0.62628 0.0
H2779 H 0.71412 0.57472 0.60809 0.0
C2780 C 0.74772 0.64312 0.60051 0.0
C2781 C 0.75579 0.64755 0.58496 0.0
C2782 C 0.72711 0.62419 0.60403 0.0
C2783 C 0.71407 0.60922 0.5921 0.0
C2784 C 0.72265 0.61286 0.57666 0.0
H2785 H 0.56783 0.53684 0.60155 0.0
H2786 H 0.60403 0.54183 0.59263 0.0
C2787 C 0.74352 0.63181 0.57313 0.0
C2788 C 0.69013 0.59271 0.59541 0.0
H2789 H 0.65609 0.55442 0.6229 0.0
C2790 C 0.67381 0.59578 0.58768 0.0
C2791 C 0.68353 0.57691 0.60782 0.0
C2792 C 0.70016 0.57211 0.61605 0.0
C2793 C 0.65141 0.58494 0.59285 0.0
C2794 C 0.645 0.57003 0.60586 0.0
C2795 C 0.66102 0.56585 0.61297 0.0
C2796 C 0.62242 0.56082 0.61313 0.0
C2797 C 0.63528 0.59097 0.5851 0.0
C2798 C 0.62043 0.56801 0.62825 0.0
C2799 C 0.5996 0.56457 0.63357 0.0
C2800 C 0.58069 0.55408 0.62374 0.0
C2801 C 0.58226 0.54492 0.60933 0.0
C2802 C 0.60293 0.54793 0.60417 0.0
H2803 H 0.64411 0.6061 0.57747 0.0
H2804 H 0.62329 0.57672 0.57762 0.0
H2805 H 0.62545 0.59425 0.59406 0.0
H2806 H 0.63527 0.57794 0.63537 0.0
H2807 H 0.59877 0.572 0.64463 0.0
H2808 H 0.36903 0.11642 0.5579 0.0
H2809 H 0.40184 0.11188 0.56318 0.0
H2810 H 0.37899 0.09219 0.61089 0.0
H2811 H 0.34669 0.09692 0.60585 0.0
H2812 H 0.42685 0.11844 0.60796 0.0
H2813 H 0.38737 0.04585 0.5663 0.0
H2814 H 0.39435 0.07312 0.55886 0.0
H2815 H 0.3725 0.05965 0.57332 0.0
C2816 C 0.37135 0.11164 0.5696 0.0
C2817 C 0.35506 0.10657 0.58136 0.0
C2818 C 0.39003 0.109 0.57258 0.0
C2819 C 0.39261 0.10135 0.58736 0.0
C2820 C 0.37731 0.09806 0.59941 0.0
H2821 H 0.43635 0.02743 0.63934 0.0
H2822 H 0.43033 0.05805 0.63054 0.0
C2823 C 0.35873 0.10059 0.59644 0.0
C2824 C 0.40905 0.09364 0.58997 0.0
H2825 H 0.41617 0.04879 0.58226 0.0
C2826 C 0.42496 0.10351 0.60211 0.0
C2827 C 0.40646 0.07412 0.58236 0.0
C2828 C 0.3892 0.06239 0.56954 0.0
C2829 C 0.43766 0.09378 0.60729 0.0
C2830 C 0.43398 0.07344 0.60036 0.0
C2831 C 0.41906 0.06441 0.58759 0.0
C2832 C 0.44325 0.05968 0.60697 0.0
C2833 C 0.4545 0.10513 0.62035 0.0
C2834 C 0.45304 0.05074 0.59686 0.0
C2835 C 0.45589 0.03292 0.60178 0.0
C2836 C 0.44947 0.02402 0.61699 0.0
C2837 C 0.44175 0.03431 0.62764 0.0
C2838 C 0.43841 0.05189 0.6226 0.0
H2839 H 0.4615 0.12367 0.6201 0.0
H2840 H 0.44593 0.09887 0.63185 0.0
H2841 H 0.4686 0.10158 0.61953 0.0
H2842 H 0.45688 0.05642 0.58477 0.0
H2843 H 0.46181 0.02513 0.59336 0.0
H2844 H 0.96025 0.42975 0.62539 0.0
H2845 H 0.92612 0.39536 0.61658 0.0
H2846 H 0.9589 0.35666 0.62557 0.0
H2847 H 0.99276 0.39071 0.63398 0.0
H2848 H 0.92887 0.37144 0.59029 0.0
H2849 H 0.89459 0.31447 0.64123 0.0
H2850 H 0.91153 0.34474 0.64334 0.0
H2851 H 0.92472 0.32783 0.64082 0.0
C2852 C 0.95972 0.4137 0.62601 0.0
C2853 C 0.97897 0.41271 0.63039 0.0
C2854 C 0.94032 0.39414 0.62094 0.0
C2855 C 0.93986 0.3734 0.62064 0.0
C2856 C 0.95864 0.37234 0.62605 0.0
H2857 H 0.93304 0.27772 0.56816 0.0
H2858 H 0.93358 0.31168 0.57737 0.0
C2859 C 0.97804 0.39181 0.63078 0.0
C2860 C 0.92191 0.35356 0.61231 0.0
H2861 H 0.89332 0.2964 0.61585 0.0
C2862 C 0.92029 0.35506 0.59593 0.0
C2863 C 0.91034 0.33222 0.61964 0.0
C2864 C 0.91019 0.32975 0.63727 0.0
C2865 C 0.91003 0.33559 0.58656 0.0
C2866 C 0.90139 0.31427 0.59378 0.0
C2867 C 0.90024 0.31276 0.61026 0.0
C2868 C 0.8987 0.29448 0.58486 0.0
C2869 C 0.91016 0.33807 0.56893 0.0
C2870 C 0.87876 0.27351 0.58569 0.0
C2871 C 0.87838 0.25401 0.58017 0.0
C2872 C 0.8981 0.25531 0.57415 0.0
C2873 C 0.91759 0.27641 0.57259 0.0
C2874 C 0.91785 0.29582 0.57778 0.0
H2875 H 0.90896 0.35314 0.56566 0.0
H2876 H 0.92626 0.34041 0.56415 0.0
H2877 H 0.89605 0.32293 0.56336 0.0
H2878 H 0.86392 0.27208 0.59134 0.0
H2879 H 0.86329 0.2378 0.58175 0.0
H2880 H 0.93184 0.70289 0.80401 0.0
H2881 H 0.96736 0.73249 0.79287 0.0
H2882 H 0.93761 0.71764 0.74653 0.0
H2883 H 0.90263 0.68734 0.75757 0.0
H2884 H 0.97259 0.71321 0.7468 0.0
H2885 H 0.99728 0.79466 0.77519 0.0
H2886 H 0.99023 0.77328 0.78977 0.0
H2887 H 0.9689 0.77109 0.77631 0.0
C2888 C 0.93273 0.70657 0.79155 0.0
C2889 C 0.9147 0.69289 0.7816 0.0
C2890 C 0.95298 0.72359 0.78517 0.0
C2891 C 0.95519 0.72746 0.76883 0.0
C2892 C 0.93637 0.71502 0.75915 0.0
H2893 H 0.08497 0.78113 0.71887 0.0
H2894 H 0.04709 0.77579 0.72316 0.0
C2895 C 0.9164 0.69773 0.76545 0.0
C2896 C 0.97783 0.741 0.76159 0.0
H2897 H 0.0282 0.78973 0.76547 0.0
C2898 C 0.98453 0.73023 0.75053 0.0
C2899 C 0.99347 0.76318 0.76645 0.0
C2900 C 0.98698 0.77627 0.77746 0.0
C2901 C 0.00677 0.74026 0.74511 0.0
C2902 C 0.02278 0.76183 0.75077 0.0
C2903 C 0.01585 0.77322 0.76111 0.0
C2904 C 0.04714 0.77065 0.74829 0.0
C2905 C 0.01333 0.72693 0.73432 0.0
C2906 C 0.06004 0.77075 0.76109 0.0
C2907 C 0.08145 0.77371 0.75868 0.0
C2908 C 0.09045 0.77675 0.74342 0.0
C2909 C 0.07838 0.7787 0.73074 0.0
C2910 C 0.05677 0.7756 0.73317 0.0
H2911 H 0.99939 0.70937 0.73258 0.0
H2912 H 0.01809 0.73524 0.72264 0.0
H2913 H 0.0281 0.72637 0.73912 0.0
H2914 H 0.05295 0.767 0.77284 0.0
H2915 H 0.09051 0.7725 0.76872 0.0
H2916 H 0.23669 0.308 0.73279 0.0
H2917 H 0.24148 0.27652 0.74133 0.0
H2918 H 0.21951 0.28138 0.78808 0.0
H2919 H 0.21589 0.31352 0.77972 0.0
H2920 H 0.25947 0.28695 0.78902 0.0
H2921 H 0.20857 0.21134 0.75293 0.0
H2922 H 0.22404 0.23545 0.74056 0.0
H2923 H 0.20291 0.23441 0.75376 0.0
C2924 C 0.23206 0.30171 0.7447 0.0
C2925 C 0.22606 0.31313 0.75564 0.0
C2926 C 0.23465 0.28361 0.74958 0.0
C2927 C 0.23074 0.27643 0.76537 0.0
C2928 C 0.22262 0.28657 0.77586 0.0
H2929 H 0.30567 0.21789 0.81068 0.0
H2930 H 0.27269 0.22263 0.80696 0.0
C2931 C 0.22054 0.30491 0.77109 0.0
C2932 C 0.23949 0.26203 0.7716 0.0
H2933 H 0.24374 0.21548 0.76346 0.0
C2934 C 0.25548 0.27095 0.78376 0.0
C2935 C 0.23436 0.24118 0.76474 0.0
C2936 C 0.21634 0.22996 0.75239 0.0
C2937 C 0.26776 0.26061 0.78837 0.0
C2938 C 0.26374 0.24058 0.78075 0.0
C2939 C 0.24673 0.23082 0.76931 0.0
C2940 C 0.27981 0.23223 0.78245 0.0
C2941 C 0.28621 0.27224 0.80045 0.0
C2942 C 0.29389 0.23483 0.76971 0.0
C2943 C 0.31257 0.23217 0.7718 0.0
C2944 C 0.31753 0.22678 0.78667 0.0
C2945 C 0.30234 0.22223 0.79913 0.0
C2946 C 0.28356 0.22497 0.79703 0.0
H2947 H 0.28892 0.28911 0.80375 0.0
H2948 H 0.28169 0.2618 0.81126 0.0
H2949 H 0.30233 0.27429 0.79591 0.0
H2950 H 0.29129 0.24038 0.75837 0.0
H2951 H 0.32373 0.2354 0.76188 0.0
H2952 H 0.7101 0.91329 0.73139 0.0
H2953 H 0.74439 0.94904 0.73775 0.0
H2954 H 0.70785 0.96199 0.77377 0.0
H2955 H 0.6744 0.92675 0.76795 0.0
H2956 H 0.75155 0.98985 0.73477 0.0
H2957 H 0.76438 0.98129 0.79717 0.0
H2958 H 0.74679 0.95699 0.78513 0.0
H2959 H 0.73511 0.97221 0.79506 0.0
C2960 C 0.7096 0.92366 0.74085 0.0
C2961 C 0.68947 0.91713 0.74913 0.0
C2962 C 0.7292 0.944 0.74451 0.0
C2963 C 0.72896 0.95796 0.75659 0.0
C2964 C 0.70889 0.95121 0.76487 0.0
H2965 H 0.74462 0.078 0.76043 0.0
H2966 H 0.74446 0.04377 0.75353 0.0
C2967 C 0.68953 0.93107 0.76131 0.0
C2968 C 0.7482 0.98099 0.75937 0.0
H2969 H 0.76865 0.0189 0.78946 0.0
C2970 C 0.75606 0.99613 0.7467 0.0
C2971 C 0.75517 0.98938 0.77481 0.0
C2972 C 0.75008 0.97395 0.78874 0.0
C2973 C 0.76748 0.01946 0.74931 0.0
C2974 C 0.77026 0.02767 0.76493 0.0
C2975 C 0.76576 0.01268 0.77746 0.0
C2976 C 0.77264 0.05 0.76842 0.0
C2977 C 0.77493 0.035 0.73529 0.0
C2978 C 0.78799 0.06475 0.77966 0.0
C2979 C 0.78784 0.08449 0.78397 0.0
C2980 C 0.7722 0.0896 0.77716 0.0
C2981 C 0.75704 0.07479 0.76588 0.0
C2982 C 0.75714 0.05524 0.76169 0.0
H2983 H 0.78153 0.02853 0.7259 0.0
H2984 H 0.76024 0.03554 0.73032 0.0
H2985 H 0.78817 0.05237 0.73846 0.0
H2986 H 0.79984 0.06085 0.78524 0.0
H2987 H 0.79971 0.09553 0.7927 0.0
H2988 H 0.24473 0.93173 0.22293 0.0
H2989 H 0.25308 0.96913 0.23202 0.0
H2990 H 0.2163 0.93973 0.27491 0.0
H2991 H 0.20898 0.90261 0.26616 0.0
H2992 H 0.23216 0.99224 0.24382 0.0
H2993 H 0.28033 0.97747 0.29046 0.0
H2994 H 0.26784 0.95858 0.27406 0.0
H2995 H 0.25064 0.95783 0.29032 0.0
C2996 C 0.23774 0.93321 0.234 0.0
C2997 C 0.22634 0.91448 0.24391 0.0
C2998 C 0.24256 0.95455 0.23923 0.0
C2999 C 0.23584 0.95726 0.25434 0.0
C3000 C 0.22213 0.93809 0.26339 0.0
H3001 H 0.30944 0.08418 0.30702 0.0
H3002 H 0.27674 0.04761 0.29991 0.0
C3003 C 0.21776 0.91689 0.25834 0.0
C3004 C 0.24602 0.98005 0.26143 0.0
H3005 H 0.28364 0.01299 0.2896 0.0
C3006 C 0.24315 0.99672 0.25397 0.0
C3007 C 0.26042 0.98591 0.2747 0.0
C3008 C 0.2652 0.96911 0.2828 0.0
C3009 C 0.25489 0.01923 0.2591 0.0
C3010 C 0.26999 0.02518 0.2719 0.0
C3011 C 0.27188 0.00832 0.27988 0.0
C3012 C 0.28675 0.04889 0.27559 0.0
C3013 C 0.25155 0.03657 0.25049 0.0
C3014 C 0.30299 0.06175 0.26426 0.0
C3015 C 0.32166 0.08229 0.26831 0.0
C3016 C 0.32451 0.09048 0.28381 0.0
C3017 C 0.30763 0.07827 0.29499 0.0
C3018 C 0.28896 0.05745 0.29094 0.0
H3019 H 0.23455 0.02882 0.24507 0.0
H3020 H 0.25374 0.05036 0.25849 0.0
H3021 H 0.26417 0.044 0.2409 0.0
H3022 H 0.30195 0.05528 0.25246 0.0
H3023 H 0.33431 0.09141 0.2594 0.0
H3024 H 0.92662 0.25656 0.26232 0.0
H3025 H 0.96081 0.25694 0.25504 0.0
H3026 H 0.94606 0.2036 0.28815 0.0
H3027 H 0.91135 0.20347 0.29596 0.0
H3028 H 0.98789 0.23609 0.29147 0.0
H3029 H 0.97654 0.21928 0.22835 0.0
H3030 H 0.96865 0.24009 0.2322 0.0
H3031 H 0.95293 0.21256 0.24116 0.0
C3032 C 0.93033 0.24463 0.26801 0.0
C3033 C 0.9162 0.23002 0.27981 0.0
C3034 C 0.94984 0.24463 0.2636 0.0
C3035 C 0.95575 0.22981 0.27064 0.0
C3036 C 0.94162 0.21492 0.28234 0.0
H3037 H 0.09168 0.29448 0.232 0.0
H3038 H 0.05672 0.25982 0.23916 0.0
C3039 C 0.92188 0.21492 0.28684 0.0
C3040 C 0.97823 0.23264 0.26703 0.0
H3041 H 0.01503 0.25083 0.23625 0.0
C3042 C 0.99373 0.23845 0.27937 0.0
C3043 C 0.98598 0.23479 0.25132 0.0
C3044 C 0.96998 0.22603 0.23756 0.0
C3045 C 0.01696 0.24974 0.27637 0.0
C3046 C 0.02471 0.256 0.26072 0.0
C3047 C 0.0092 0.24685 0.24832 0.0
C3048 C 0.04724 0.27569 0.25735 0.0
C3049 C 0.03294 0.25635 0.2901 0.0
C3050 C 0.05333 0.29612 0.26496 0.0
C3051 C 0.07301 0.31568 0.26092 0.0
C3052 C 0.08712 0.31557 0.24894 0.0
C3053 C 0.08119 0.29512 0.24128 0.0
C3054 C 0.0613 0.27531 0.24542 0.0
H3055 H 0.02637 0.24267 0.29901 0.0
H3056 H 0.04999 0.26005 0.28636 0.0
H3057 H 0.03428 0.2715 0.29589 0.0
H3058 H 0.04241 0.29719 0.27371 0.0
H3059 H 0.07688 0.33107 0.26706 0.0
H3060 H 0.76156 0.68681 0.3137 0.0
H3061 H 0.75359 0.71627 0.30507 0.0
H3062 H 0.79385 0.72708 0.26345 0.0
H3063 H 0.80084 0.69687 0.27169 0.0
H3064 H 0.77467 0.76102 0.29463 0.0
H3065 H 0.73084 0.70053 0.24572 0.0
H3066 H 0.74241 0.69349 0.26234 0.0
H3067 H 0.7606 0.71119 0.24691 0.0
C3068 C 0.76943 0.69615 0.30305 0.0
C3069 C 0.7817 0.68964 0.29329 0.0
C3070 C 0.76482 0.7129 0.29809 0.0
C3071 C 0.77262 0.72339 0.2834 0.0
C3072 C 0.78723 0.7188 0.27463 0.0
H3073 H 0.69877 0.77658 0.23083 0.0
H3074 H 0.73169 0.77318 0.23811 0.0
C3075 C 0.7914 0.70173 0.2794 0.0
C3076 C 0.76251 0.73602 0.27626 0.0
H3077 H 0.72602 0.73178 0.24735 0.0
C3078 C 0.76433 0.75487 0.28414 0.0
C3079 C 0.74898 0.72795 0.26255 0.0
C3080 C 0.74537 0.70709 0.25393 0.0
C3081 C 0.75227 0.76532 0.27904 0.0
C3082 C 0.73793 0.75652 0.26582 0.0
C3083 C 0.73719 0.73858 0.2574 0.0
C3084 C 0.7207 0.76283 0.26208 0.0
C3085 C 0.75443 0.78522 0.28812 0.0
C3086 C 0.70379 0.75827 0.27315 0.0
C3087 C 0.685 0.75987 0.26899 0.0
C3088 C 0.68268 0.76609 0.25364 0.0
C3089 C 0.70013 0.77176 0.24273 0.0
C3090 C 0.71893 0.7699 0.24689 0.0
H3091 H 0.77112 0.79463 0.29395 0.0
H3092 H 0.75209 0.79692 0.28035 0.0
H3093 H 0.74133 0.77912 0.29744 0.0
H3094 H 0.70449 0.75226 0.28481 0.0
H3095 H 0.67193 0.75558 0.27771 0.0
loop_
_geom_bond_atom_site_label_1
_geom_bond_atom_site_label_2
_geom_bond_distance
_geom_bond_site_symmetry_2
_ccdc_geom_bond_type
O0 Cd1 2.223 . S
O0 C8 1.315 . S
Cd1 O0 2.223 . S
Cd1 O4 2.297 . S
Cd1 O5 2.439 . S
Cd1 O11 2.240 . S
Cd2 O3 2.240 . S
Cd2 O10 2.223 . S
Cd2 O12 2.297 . S
Cd2 O13 2.439 . S
O3 Cd2 2.240 . S
O3 C8 1.279 . S
O4 Cd1 2.297 . S
O4 C6 1.247 . S
O5 Cd1 2.439 . S
O5 C6 1.208 . S
C6 O4 1.247 . S
C6 O5 1.208 . S
C7 O12 1.247 . S
C7 O13 1.208 . S
C8 O0 1.315 . S
C8 O3 1.279 . S
C9 O10 1.315 . S
C9 O11 1.279 . S
O10 Cd2 2.223 . S
O10 C9 1.315 . S
O11 Cd1 2.240 . S
O11 C9 1.279 . S
O12 Cd2 2.297 . S
O12 C7 1.247 . S
O13 Cd2 2.439 . S
O13 C7 1.208 . S
O14 Cd15 2.223 . S
O14 C22 1.315 . S
Cd15 O14 2.223 . S
Cd15 O18 2.297 . S
Cd15 O19 2.439 . S
Cd15 O25 2.240 . S
Cd16 O17 2.240 . S
Cd16 O24 2.223 . S
Cd16 O26 2.297 . S
Cd16 O27 2.439 . S
O17 Cd16 2.240 . S
O17 C22 1.279 . S
O18 Cd15 2.297 . S
O18 C20 1.247 . S
O19 Cd15 2.439 . S
O19 C20 1.208 . S
C20 O18 1.247 . S
C20 O19 1.208 . S
C21 O26 1.247 . S
C21 O27 1.208 . S
C22 O14 1.315 . S
C22 O17 1.279 . S
C23 O24 1.315 . S
C23 O25 1.279 . S
O24 Cd16 2.223 . S
O24 C23 1.315 . S
O25 Cd15 2.240 . S
O25 C23 1.279 . S
O26 Cd16 2.297 . S
O26 C21 1.247 . S
O27 Cd16 2.439 . S
O27 C21 1.208 . S
O28 Cd29 2.223 . S
O28 C36 1.315 . S
Cd29 O28 2.223 . S
Cd29 O32 2.297 . S
Cd29 O33 2.439 . S
Cd29 O39 2.240 . S
Cd30 O31 2.240 . S
Cd30 O38 2.223 . S
Cd30 O40 2.297 . S
Cd30 O41 2.439 . S
O31 Cd30 2.240 . S
O31 C36 1.279 . S
O32 Cd29 2.297 . S
O32 C34 1.247 . S
O33 Cd29 2.439 . S
O33 C34 1.208 . S
C34 O32 1.247 . S
C34 O33 1.208 . S
C35 O40 1.247 . S
C35 O41 1.208 . S
C36 O28 1.315 . S
C36 O31 1.279 . S
C37 O38 1.315 . S
C37 O39 1.279 . S
O38 Cd30 2.223 . S
O38 C37 1.315 . S
O39 Cd29 2.240 . S
O39 C37 1.279 . S
O40 Cd30 2.297 . S
O40 C35 1.247 . S
O41 Cd30 2.439 . S
O41 C35 1.208 . S
O42 Cd43 2.223 . S
O42 C50 1.315 . S
Cd43 O42 2.223 . S
Cd43 O46 2.297 . S
Cd43 O47 2.439 . S
Cd43 O53 2.240 . S
Cd44 O45 2.240 . S
Cd44 O52 2.223 . S
Cd44 O54 2.297 . S
Cd44 O55 2.439 . S
O45 Cd44 2.240 . S
O45 C50 1.279 . S
O46 Cd43 2.297 . S
O46 C48 1.247 . S
O47 Cd43 2.439 . S
O47 C48 1.208 . S
C48 O46 1.247 . S
C48 O47 1.208 . S
C49 O54 1.247 . S
C49 O55 1.208 . S
C50 O42 1.315 . S
C50 O45 1.279 . S
C51 O52 1.315 . S
C51 O53 1.279 . S
O52 Cd44 2.223 . S
O52 C51 1.315 . S
O53 Cd43 2.240 . S
O53 C51 1.279 . S
O54 Cd44 2.297 . S
O54 C49 1.247 . S
O55 Cd44 2.439 . S
O55 C49 1.208 . S
O56 Cd57 2.223 . S
O56 C64 1.315 . S
Cd57 O56 2.223 . S
Cd57 O60 2.297 . S
Cd57 O61 2.439 . S
Cd57 O67 2.240 . S
Cd58 O59 2.240 . S
Cd58 O66 2.223 . S
Cd58 O68 2.297 . S
Cd58 O69 2.439 . S
O59 Cd58 2.240 . S
O59 C64 1.279 . S
O60 Cd57 2.297 . S
O60 C62 1.247 . S
O61 Cd57 2.439 . S
O61 C62 1.208 . S
C62 O60 1.247 . S
C62 O61 1.208 . S
C63 O68 1.247 . S
C63 O69 1.208 . S
C64 O56 1.315 . S
C64 O59 1.279 . S
C65 O66 1.315 . S
C65 O67 1.279 . S
O66 Cd58 2.223 . S
O66 C65 1.315 . S
O67 Cd57 2.240 . S
O67 C65 1.279 . S
O68 Cd58 2.297 . S
O68 C63 1.247 . S
O69 Cd58 2.439 . S
O69 C63 1.208 . S
O70 Cd71 2.223 . S
O70 C78 1.315 . S
Cd71 O70 2.223 . S
Cd71 O74 2.297 . S
Cd71 O75 2.439 . S
Cd71 O81 2.240 . S
Cd72 O73 2.240 . S
Cd72 O80 2.223 . S
Cd72 O82 2.297 . S
Cd72 O83 2.439 . S
O73 Cd72 2.240 . S
O73 C78 1.279 . S
O74 Cd71 2.297 . S
O74 C76 1.247 . S
O75 Cd71 2.439 . S
O75 C76 1.208 . S
C76 O74 1.247 . S
C76 O75 1.208 . S
C77 O82 1.247 . S
C77 O83 1.208 . S
C78 O70 1.315 . S
C78 O73 1.279 . S
C79 O80 1.315 . S
C79 O81 1.279 . S
O80 Cd72 2.223 . S
O80 C79 1.315 . S
O81 Cd71 2.240 . S
O81 C79 1.279 . S
O82 Cd72 2.297 . S
O82 C77 1.247 . S
O83 Cd72 2.439 . S
O83 C77 1.208 . S
O84 Cd85 2.223 . S
O84 C92 1.315 . S
Cd85 O84 2.223 . S
Cd85 O88 2.297 . S
Cd85 O89 2.439 . S
Cd85 O95 2.240 . S
Cd86 O87 2.240 . S
Cd86 O94 2.223 . S
Cd86 O96 2.297 . S
Cd86 O97 2.439 . S
O87 Cd86 2.240 . S
O87 C92 1.279 . S
O88 Cd85 2.297 . S
O88 C90 1.247 . S
O89 Cd85 2.439 . S
O89 C90 1.208 . S
C90 O88 1.247 . S
C90 O89 1.208 . S
C91 O96 1.247 . S
C91 O97 1.208 . S
C92 O84 1.315 . S
C92 O87 1.279 . S
C93 O94 1.315 . S
C93 O95 1.279 . S
O94 Cd86 2.223 . S
O94 C93 1.315 . S
O95 Cd85 2.240 . S
O95 C93 1.279 . S
O96 Cd86 2.297 . S
O96 C91 1.247 . S
O97 Cd86 2.439 . S
O97 C91 1.208 . S
O98 Cd99 2.223 . S
O98 C106 1.315 . S
Cd99 O98 2.223 . S
Cd99 O102 2.297 . S
Cd99 O103 2.439 . S
Cd99 O109 2.240 . S
Cd100 O101 2.240 . S
Cd100 O108 2.223 . S
Cd100 O110 2.297 . S
Cd100 O111 2.439 . S
O101 Cd100 2.240 . S
O101 C106 1.279 . S
O102 Cd99 2.297 . S
O102 C104 1.247 . S
O103 Cd99 2.439 . S
O103 C104 1.208 . S
C104 O102 1.247 . S
C104 O103 1.208 . S
C105 O110 1.247 . S
C105 O111 1.208 . S
C106 O98 1.315 . S
C106 O101 1.279 . S
C107 O108 1.315 . S
C107 O109 1.279 . S
O108 Cd100 2.223 . S
O108 C107 1.315 . S
O109 Cd99 2.240 . S
O109 C107 1.279 . S
O110 Cd100 2.297 . S
O110 C105 1.247 . S
O111 Cd100 2.439 . S
O111 C105 1.208 . S
O112 Cd113 2.223 . S
O112 C120 1.315 . S
Cd113 O112 2.223 . S
Cd113 O116 2.297 . S
Cd113 O117 2.439 . S
Cd113 O123 2.240 . S
Cd114 O115 2.240 . S
Cd114 O122 2.223 . S
Cd114 O124 2.297 . S
Cd114 O125 2.439 . S
O115 Cd114 2.240 . S
O115 C120 1.279 . S
O116 Cd113 2.297 . S
O116 C118 1.247 . S
O117 Cd113 2.439 . S
O117 C118 1.208 . S
C118 O116 1.247 . S
C118 O117 1.208 . S
C119 O124 1.247 . S
C119 O125 1.208 . S
C120 O112 1.315 . S
C120 O115 1.279 . S
C121 O122 1.315 . S
C121 O123 1.279 . S
O122 Cd114 2.223 . S
O122 C121 1.315 . S
O123 Cd113 2.240 . S
O123 C121 1.279 . S
O124 Cd114 2.297 . S
O124 C119 1.247 . S
O125 Cd114 2.439 . S
O125 C119 1.208 . S
O126 Cd127 2.223 . S
O126 C134 1.315 . S
Cd127 O126 2.223 . S
Cd127 O130 2.297 . S
Cd127 O131 2.439 . S
Cd127 O137 2.240 . S
Cd128 O129 2.240 . S
Cd128 O136 2.223 . S
Cd128 O138 2.297 . S
Cd128 O139 2.439 . S
O129 Cd128 2.240 . S
O129 C134 1.279 . S
O130 Cd127 2.297 . S
O130 C132 1.247 . S
O131 Cd127 2.439 . S
O131 C132 1.208 . S
C132 O130 1.247 . S
C132 O131 1.208 . S
C133 O138 1.247 . S
C133 O139 1.208 . S
C134 O126 1.315 . S
C134 O129 1.279 . S
C135 O136 1.315 . S
C135 O137 1.279 . S
O136 Cd128 2.223 . S
O136 C135 1.315 . S
O137 Cd127 2.240 . S
O137 C135 1.279 . S
O138 Cd128 2.297 . S
O138 C133 1.247 . S
O139 Cd128 2.439 . S
O139 C133 1.208 . S
O140 Cd141 2.223 . S
O140 C148 1.315 . S
Cd141 O140 2.223 . S
Cd141 O144 2.297 . S
Cd141 O145 2.439 . S
Cd141 O151 2.240 . S
Cd142 O143 2.240 . S
Cd142 O150 2.223 . S
Cd142 O152 2.297 . S
Cd142 O153 2.439 . S
O143 Cd142 2.240 . S
O143 C148 1.279 . S
O144 Cd141 2.297 . S
O144 C146 1.247 . S
O145 Cd141 2.439 . S
O145 C146 1.208 . S
C146 O144 1.247 . S
C146 O145 1.208 . S
C147 O152 1.247 . S
C147 O153 1.208 . S
C148 O140 1.315 . S
C148 O143 1.279 . S
C149 O150 1.315 . S
C149 O151 1.279 . S
O150 Cd142 2.223 . S
O150 C149 1.315 . S
O151 Cd141 2.240 . S
O151 C149 1.279 . S
O152 Cd142 2.297 . S
O152 C147 1.247 . S
O153 Cd142 2.439 . S
O153 C147 1.208 . S
O154 Cd155 2.223 . S
O154 C162 1.315 . S
Cd155 O154 2.223 . S
Cd155 O158 2.297 . S
Cd155 O159 2.439 . S
Cd155 O165 2.240 . S
Cd156 O157 2.240 . S
Cd156 O164 2.223 . S
Cd156 O166 2.297 . S
Cd156 O167 2.439 . S
O157 Cd156 2.240 . S
O157 C162 1.279 . S
O158 Cd155 2.297 . S
O158 C160 1.247 . S
O159 Cd155 2.439 . S
O159 C160 1.208 . S
C160 O158 1.247 . S
C160 O159 1.208 . S
C161 O166 1.247 . S
C161 O167 1.208 . S
C162 O154 1.315 . S
C162 O157 1.279 . S
C163 O164 1.315 . S
C163 O165 1.279 . S
O164 Cd156 2.223 . S
O164 C163 1.315 . S
O165 Cd155 2.240 . S
O165 C163 1.279 . S
O166 Cd156 2.297 . S
O166 C161 1.247 . S
O167 Cd156 2.439 . S
O167 C161 1.208 . S
O168 Cd169 2.223 . S
O168 C176 1.315 . S
Cd169 O168 2.223 . S
Cd169 O172 2.297 . S
Cd169 O173 2.439 . S
Cd169 O179 2.240 . S
Cd170 O171 2.240 . S
Cd170 O178 2.223 . S
Cd170 O180 2.297 . S
Cd170 O181 2.439 . S
O171 Cd170 2.240 . S
O171 C176 1.279 . S
O172 Cd169 2.297 . S
O172 C174 1.247 . S
O173 Cd169 2.439 . S
O173 C174 1.208 . S
C174 O172 1.247 . S
C174 O173 1.208 . S
C175 O180 1.247 . S
C175 O181 1.208 . S
C176 O168 1.315 . S
C176 O171 1.279 . S
C177 O178 1.315 . S
C177 O179 1.279 . S
O178 Cd170 2.223 . S
O178 C177 1.315 . S
O179 Cd169 2.240 . S
O179 C177 1.279 . S
O180 Cd170 2.297 . S
O180 C175 1.247 . S
O181 Cd170 2.439 . S
O181 C175 1.208 . S
O182 Cd183 2.223 . S
O182 C190 1.315 . S
Cd183 O182 2.223 . S
Cd183 O186 2.297 . S
Cd183 O187 2.439 . S
Cd183 O193 2.240 . S
Cd184 O185 2.240 . S
Cd184 O192 2.223 . S
Cd184 O194 2.297 . S
Cd184 O195 2.439 . S
O185 Cd184 2.240 . S
O185 C190 1.279 . S
O186 Cd183 2.297 . S
O186 C188 1.247 . S
O187 Cd183 2.439 . S
O187 C188 1.208 . S
C188 O186 1.247 . S
C188 O187 1.208 . S
C189 O194 1.247 . S
C189 O195 1.208 . S
C190 O182 1.315 . S
C190 O185 1.279 . S
C191 O192 1.315 . S
C191 O193 1.279 . S
O192 Cd184 2.223 . S
O192 C191 1.315 . S
O193 Cd183 2.240 . S
O193 C191 1.279 . S
O194 Cd184 2.297 . S
O194 C189 1.247 . S
O195 Cd184 2.439 . S
O195 C189 1.208 . S
O196 Cd197 2.223 . S
O196 C204 1.315 . S
Cd197 O196 2.223 . S
Cd197 O200 2.297 . S
Cd197 O201 2.439 . S
Cd197 O207 2.240 . S
Cd198 O199 2.240 . S
Cd198 O206 2.223 . S
Cd198 O208 2.297 . S
Cd198 O209 2.439 . S
O199 Cd198 2.240 . S
O199 C204 1.279 . S
O200 Cd197 2.297 . S
O200 C202 1.247 . S
O201 Cd197 2.439 . S
O201 C202 1.208 . S
C202 O200 1.247 . S
C202 O201 1.208 . S
C203 O208 1.247 . S
C203 O209 1.208 . S
C204 O196 1.315 . S
C204 O199 1.279 . S
C205 O206 1.315 . S
C205 O207 1.279 . S
O206 Cd198 2.223 . S
O206 C205 1.315 . S
O207 Cd197 2.240 . S
O207 C205 1.279 . S
O208 Cd198 2.297 . S
O208 C203 1.247 . S
O209 Cd198 2.439 . S
O209 C203 1.208 . S
O210 Cd211 2.223 . S
O210 C218 1.315 . S
Cd211 O210 2.223 . S
Cd211 O214 2.297 . S
Cd211 O215 2.439 . S
Cd211 O221 2.240 . S
Cd212 O213 2.240 . S
Cd212 O220 2.223 . S
Cd212 O222 2.297 . S
Cd212 O223 2.439 . S
O213 Cd212 2.240 . S
O213 C218 1.279 . S
O214 Cd211 2.297 . S
O214 C216 1.247 . S
O215 Cd211 2.439 . S
O215 C216 1.208 . S
C216 O214 1.247 . S
C216 O215 1.208 . S
C217 O222 1.247 . S
C217 O223 1.208 . S
C218 O210 1.315 . S
C218 O213 1.279 . S
C219 O220 1.315 . S
C219 O221 1.279 . S
O220 Cd212 2.223 . S
O220 C219 1.315 . S
O221 Cd211 2.240 . S
O221 C219 1.279 . S
O222 Cd212 2.297 . S
O222 C217 1.247 . S
O223 Cd212 2.439 . S
O223 C217 1.208 . S
O224 Cd225 2.223 . S
O224 C232 1.315 . S
Cd225 O224 2.223 . S
Cd225 O228 2.297 . S
Cd225 O229 2.439 . S
Cd225 O235 2.240 . S
Cd226 O227 2.240 . S
Cd226 O234 2.223 . S
Cd226 O236 2.297 . S
Cd226 O237 2.439 . S
O227 Cd226 2.240 . S
O227 C232 1.279 . S
O228 Cd225 2.297 . S
O228 C230 1.247 . S
O229 Cd225 2.439 . S
O229 C230 1.208 . S
C230 O228 1.247 . S
C230 O229 1.208 . S
C231 O236 1.247 . S
C231 O237 1.208 . S
C232 O224 1.315 . S
C232 O227 1.279 . S
C233 O234 1.315 . S
C233 O235 1.279 . S
O234 Cd226 2.223 . S
O234 C233 1.315 . S
O235 Cd225 2.240 . S
O235 C233 1.279 . S
O236 Cd226 2.297 . S
O236 C231 1.247 . S
O237 Cd226 2.439 . S
O237 C231 1.208 . S
O238 Cd239 2.223 . S
O238 C246 1.315 . S
Cd239 O238 2.223 . S
Cd239 O242 2.297 . S
Cd239 O243 2.439 . S
Cd239 O249 2.240 . S
Cd240 O241 2.240 . S
Cd240 O248 2.223 . S
Cd240 O250 2.297 . S
Cd240 O251 2.439 . S
O241 Cd240 2.240 . S
O241 C246 1.279 . S
O242 Cd239 2.297 . S
O242 C244 1.247 . S
O243 Cd239 2.439 . S
O243 C244 1.208 . S
C244 O242 1.247 . S
C244 O243 1.208 . S
C245 O250 1.247 . S
C245 O251 1.208 . S
C246 O238 1.315 . S
C246 O241 1.279 . S
C247 O248 1.315 . S
C247 O249 1.279 . S
O248 Cd240 2.223 . S
O248 C247 1.315 . S
O249 Cd239 2.240 . S
O249 C247 1.279 . S
O250 Cd240 2.297 . S
O250 C245 1.247 . S
O251 Cd240 2.439 . S
O251 C245 1.208 . S
O252 Cd253 2.223 . S
O252 C260 1.315 . S
Cd253 O252 2.223 . S
Cd253 O256 2.297 . S
Cd253 O257 2.439 . S
Cd253 O263 2.240 . S
Cd254 O255 2.240 . S
Cd254 O262 2.223 . S
Cd254 O264 2.297 . S
Cd254 O265 2.439 . S
O255 Cd254 2.240 . S
O255 C260 1.279 . S
O256 Cd253 2.297 . S
O256 C258 1.247 . S
O257 Cd253 2.439 . S
O257 C258 1.208 . S
C258 O256 1.247 . S
C258 O257 1.208 . S
C259 O264 1.247 . S
C259 O265 1.208 . S
C260 O252 1.315 . S
C260 O255 1.279 . S
C261 O262 1.315 . S
C261 O263 1.279 . S
O262 Cd254 2.223 . S
O262 C261 1.315 . S
O263 Cd253 2.240 . S
O263 C261 1.279 . S
O264 Cd254 2.297 . S
O264 C259 1.247 . S
O265 Cd254 2.439 . S
O265 C259 1.208 . S
O266 Cd267 2.223 . S
O266 C274 1.315 . S
Cd267 O266 2.223 . S
Cd267 O270 2.297 . S
Cd267 O271 2.439 . S
Cd267 O277 2.240 . S
Cd268 O269 2.240 . S
Cd268 O276 2.223 . S
Cd268 O278 2.297 . S
Cd268 O279 2.439 . S
O269 Cd268 2.240 . S
O269 C274 1.279 . S
O270 Cd267 2.297 . S
O270 C272 1.247 . S
O271 Cd267 2.439 . S
O271 C272 1.208 . S
C272 O270 1.247 . S
C272 O271 1.208 . S
C273 O278 1.247 . S
C273 O279 1.208 . S
C274 O266 1.315 . S
C274 O269 1.279 . S
C275 O276 1.315 . S
C275 O277 1.279 . S
O276 Cd268 2.223 . S
O276 C275 1.315 . S
O277 Cd267 2.240 . S
O277 C275 1.279 . S
O278 Cd268 2.297 . S
O278 C273 1.247 . S
O279 Cd268 2.439 . S
O279 C273 1.208 . S
O280 Cd281 2.223 . S
O280 C288 1.315 . S
Cd281 O280 2.223 . S
Cd281 O284 2.297 . S
Cd281 O285 2.439 . S
Cd281 O291 2.240 . S
Cd282 O283 2.240 . S
Cd282 O290 2.223 . S
Cd282 O292 2.297 . S
Cd282 O293 2.439 . S
O283 Cd282 2.240 . S
O283 C288 1.279 . S
O284 Cd281 2.297 . S
O284 C286 1.247 . S
O285 Cd281 2.439 . S
O285 C286 1.208 . S
C286 O284 1.247 . S
C286 O285 1.208 . S
C287 O292 1.247 . S
C287 O293 1.208 . S
C288 O280 1.315 . S
C288 O283 1.279 . S
C289 O290 1.315 . S
C289 O291 1.279 . S
O290 Cd282 2.223 . S
O290 C289 1.315 . S
O291 Cd281 2.240 . S
O291 C289 1.279 . S
O292 Cd282 2.297 . S
O292 C287 1.247 . S
O293 Cd282 2.439 . S
O293 C287 1.208 . S
O294 Cd295 2.223 . S
O294 C302 1.315 . S
Cd295 O294 2.223 . S
Cd295 O298 2.297 . S
Cd295 O299 2.439 . S
Cd295 O305 2.240 . S
Cd296 O297 2.240 . S
Cd296 O304 2.223 . S
Cd296 O306 2.297 . S
Cd296 O307 2.439 . S
O297 Cd296 2.240 . S
O297 C302 1.279 . S
O298 Cd295 2.297 . S
O298 C300 1.247 . S
O299 Cd295 2.439 . S
O299 C300 1.208 . S
C300 O298 1.247 . S
C300 O299 1.208 . S
C301 O306 1.247 . S
C301 O307 1.208 . S
C302 O294 1.315 . S
C302 O297 1.279 . S
C303 O304 1.315 . S
C303 O305 1.279 . S
O304 Cd296 2.223 . S
O304 C303 1.315 . S
O305 Cd295 2.240 . S
O305 C303 1.279 . S
O306 Cd296 2.297 . S
O306 C301 1.247 . S
O307 Cd296 2.439 . S
O307 C301 1.208 . S
O308 Cd309 2.223 . S
O308 C316 1.315 . S
Cd309 O308 2.223 . S
Cd309 O312 2.297 . S
Cd309 O313 2.439 . S
Cd309 O319 2.240 . S
Cd310 O311 2.240 . S
Cd310 O318 2.223 . S
Cd310 O320 2.297 . S
Cd310 O321 2.439 . S
O311 Cd310 2.240 . S
O311 C316 1.279 . S
O312 Cd309 2.297 . S
O312 C314 1.247 . S
O313 Cd309 2.439 . S
O313 C314 1.208 . S
C314 O312 1.247 . S
C314 O313 1.208 . S
C315 O320 1.247 . S
C315 O321 1.208 . S
C316 O308 1.315 . S
C316 O311 1.279 . S
C317 O318 1.315 . S
C317 O319 1.279 . S
O318 Cd310 2.223 . S
O318 C317 1.315 . S
O319 Cd309 2.240 . S
O319 C317 1.279 . S
O320 Cd310 2.297 . S
O320 C315 1.247 . S
O321 Cd310 2.439 . S
O321 C315 1.208 . S
O322 Cd323 2.223 . S
O322 C330 1.315 . S
Cd323 O322 2.223 . S
Cd323 O326 2.297 . S
Cd323 O327 2.439 . S
Cd323 O333 2.240 . S
Cd324 O325 2.240 . S
Cd324 O332 2.223 . S
Cd324 O334 2.297 . S
Cd324 O335 2.439 . S
O325 Cd324 2.240 . S
O325 C330 1.279 . S
O326 Cd323 2.297 . S
O326 C328 1.247 . S
O327 Cd323 2.439 . S
O327 C328 1.208 . S
C328 O326 1.247 . S
C328 O327 1.208 . S
C329 O334 1.247 . S
C329 O335 1.208 . S
C330 O322 1.315 . S
C330 O325 1.279 . S
C331 O332 1.315 . S
C331 O333 1.279 . S
O332 Cd324 2.223 . S
O332 C331 1.315 . S
O333 Cd323 2.240 . S
O333 C331 1.279 . S
O334 Cd324 2.297 . S
O334 C329 1.247 . S
O335 Cd324 2.439 . S
O335 C329 1.208 . S
O336 Cd337 2.223 . S
O336 C344 1.315 . S
Cd337 O336 2.223 . S
Cd337 O340 2.297 . S
Cd337 O341 2.439 . S
Cd337 O347 2.240 . S
Cd338 O339 2.240 . S
Cd338 O346 2.223 . S
Cd338 O348 2.297 . S
Cd338 O349 2.439 . S
O339 Cd338 2.240 . S
O339 C344 1.279 . S
O340 Cd337 2.297 . S
O340 C342 1.247 . S
O341 Cd337 2.439 . S
O341 C342 1.208 . S
C342 O340 1.247 . S
C342 O341 1.208 . S
C343 O348 1.247 . S
C343 O349 1.208 . S
C344 O336 1.315 . S
C344 O339 1.279 . S
C345 O346 1.315 . S
C345 O347 1.279 . S
O346 Cd338 2.223 . S
O346 C345 1.315 . S
O347 Cd337 2.240 . S
O347 C345 1.279 . S
O348 Cd338 2.297 . S
O348 C343 1.247 . S
O349 Cd338 2.439 . S
O349 C343 1.208 . S
O350 Cd351 2.223 . S
O350 C358 1.315 . S
Cd351 O350 2.223 . S
Cd351 O354 2.297 . S
Cd351 O355 2.439 . S
Cd351 O361 2.240 . S
Cd352 O353 2.240 . S
Cd352 O360 2.223 . S
Cd352 O362 2.297 . S
Cd352 O363 2.439 . S
O353 Cd352 2.240 . S
O353 C358 1.279 . S
O354 Cd351 2.297 . S
O354 C356 1.247 . S
O355 Cd351 2.439 . S
O355 C356 1.208 . S
C356 O354 1.247 . S
C356 O355 1.208 . S
C357 O362 1.247 . S
C357 O363 1.208 . S
C358 O350 1.315 . S
C358 O353 1.279 . S
C359 O360 1.315 . S
C359 O361 1.279 . S
O360 Cd352 2.223 . S
O360 C359 1.315 . S
O361 Cd351 2.240 . S
O361 C359 1.279 . S
O362 Cd352 2.297 . S
O362 C357 1.247 . S
O363 Cd352 2.439 . S
O363 C357 1.208 . S
O364 Cd365 2.223 . S
O364 C372 1.315 . S
Cd365 O364 2.223 . S
Cd365 O368 2.297 . S
Cd365 O369 2.439 . S
Cd365 O375 2.240 . S
Cd366 O367 2.240 . S
Cd366 O374 2.223 . S
Cd366 O376 2.297 . S
Cd366 O377 2.439 . S
O367 Cd366 2.240 . S
O367 C372 1.279 . S
O368 Cd365 2.297 . S
O368 C370 1.247 . S
O369 Cd365 2.439 . S
O369 C370 1.208 . S
C370 O368 1.247 . S
C370 O369 1.208 . S
C371 O376 1.247 . S
C371 O377 1.208 . S
C372 O364 1.315 . S
C372 O367 1.279 . S
C373 O374 1.315 . S
C373 O375 1.279 . S
O374 Cd366 2.223 . S
O374 C373 1.315 . S
O375 Cd365 2.240 . S
O375 C373 1.279 . S
O376 Cd366 2.297 . S
O376 C371 1.247 . S
O377 Cd366 2.439 . S
O377 C371 1.208 . S
O378 Cd379 2.223 . S
O378 C386 1.315 . S
Cd379 O378 2.223 . S
Cd379 O382 2.297 . S
Cd379 O383 2.439 . S
Cd379 O389 2.240 . S
Cd380 O381 2.240 . S
Cd380 O388 2.223 . S
Cd380 O390 2.297 . S
Cd380 O391 2.439 . S
O381 Cd380 2.240 . S
O381 C386 1.279 . S
O382 Cd379 2.297 . S
O382 C384 1.247 . S
O383 Cd379 2.439 . S
O383 C384 1.208 . S
C384 O382 1.247 . S
C384 O383 1.208 . S
C385 O390 1.247 . S
C385 O391 1.208 . S
C386 O378 1.315 . S
C386 O381 1.279 . S
C387 O388 1.315 . S
C387 O389 1.279 . S
O388 Cd380 2.223 . S
O388 C387 1.315 . S
O389 Cd379 2.240 . S
O389 C387 1.279 . S
O390 Cd380 2.297 . S
O390 C385 1.247 . S
O391 Cd380 2.439 . S
O391 C385 1.208 . S
O392 Cd393 2.223 . S
O392 C400 1.315 . S
Cd393 O392 2.223 . S
Cd393 O396 2.297 . S
Cd393 O397 2.439 . S
Cd393 O403 2.240 . S
Cd394 O395 2.240 . S
Cd394 O402 2.223 . S
Cd394 O404 2.297 . S
Cd394 O405 2.439 . S
O395 Cd394 2.240 . S
O395 C400 1.279 . S
O396 Cd393 2.297 . S
O396 C398 1.247 . S
O397 Cd393 2.439 . S
O397 C398 1.208 . S
C398 O396 1.247 . S
C398 O397 1.208 . S
C399 O404 1.247 . S
C399 O405 1.208 . S
C400 O392 1.315 . S
C400 O395 1.279 . S
C401 O402 1.315 . S
C401 O403 1.279 . S
O402 Cd394 2.223 . S
O402 C401 1.315 . S
O403 Cd393 2.240 . S
O403 C401 1.279 . S
O404 Cd394 2.297 . S
O404 C399 1.247 . S
O405 Cd394 2.439 . S
O405 C399 1.208 . S
O406 Cd407 2.223 . S
O406 C414 1.315 . S
Cd407 O406 2.223 . S
Cd407 O410 2.297 . S
Cd407 O411 2.439 . S
Cd407 O417 2.240 . S
Cd408 O409 2.240 . S
Cd408 O416 2.223 . S
Cd408 O418 2.297 . S
Cd408 O419 2.439 . S
O409 Cd408 2.240 . S
O409 C414 1.279 . S
O410 Cd407 2.297 . S
O410 C412 1.247 . S
O411 Cd407 2.439 . S
O411 C412 1.208 . S
C412 O410 1.247 . S
C412 O411 1.208 . S
C413 O418 1.247 . S
C413 O419 1.208 . S
C414 O406 1.315 . S
C414 O409 1.279 . S
C415 O416 1.315 . S
C415 O417 1.279 . S
O416 Cd408 2.223 . S
O416 C415 1.315 . S
O417 Cd407 2.240 . S
O417 C415 1.279 . S
O418 Cd408 2.297 . S
O418 C413 1.247 . S
O419 Cd408 2.439 . S
O419 C413 1.208 . S
O420 Cd421 2.223 . S
O420 C428 1.315 . S
Cd421 O420 2.223 . S
Cd421 O424 2.297 . S
Cd421 O425 2.439 . S
Cd421 O431 2.240 . S
Cd422 O423 2.240 . S
Cd422 O430 2.223 . S
Cd422 O432 2.297 . S
Cd422 O433 2.439 . S
O423 Cd422 2.240 . S
O423 C428 1.279 . S
O424 Cd421 2.297 . S
O424 C426 1.247 . S
O425 Cd421 2.439 . S
O425 C426 1.208 . S
C426 O424 1.247 . S
C426 O425 1.208 . S
C427 O432 1.247 . S
C427 O433 1.208 . S
C428 O420 1.315 . S
C428 O423 1.279 . S
C429 O430 1.315 . S
C429 O431 1.279 . S
O430 Cd422 2.223 . S
O430 C429 1.315 . S
O431 Cd421 2.240 . S
O431 C429 1.279 . S
O432 Cd422 2.297 . S
O432 C427 1.247 . S
O433 Cd422 2.439 . S
O433 C427 1.208 . S
O434 Cd435 2.223 . S
O434 C442 1.315 . S
Cd435 O434 2.223 . S
Cd435 O438 2.297 . S
Cd435 O439 2.439 . S
Cd435 O445 2.240 . S
Cd436 O437 2.240 . S
Cd436 O444 2.223 . S
Cd436 O446 2.297 . S
Cd436 O447 2.439 . S
O437 Cd436 2.240 . S
O437 C442 1.279 . S
O438 Cd435 2.297 . S
O438 C440 1.247 . S
O439 Cd435 2.439 . S
O439 C440 1.208 . S
C440 O438 1.247 . S
C440 O439 1.208 . S
C441 O446 1.247 . S
C441 O447 1.208 . S
C442 O434 1.315 . S
C442 O437 1.279 . S
C443 O444 1.315 . S
C443 O445 1.279 . S
O444 Cd436 2.223 . S
O444 C443 1.315 . S
O445 Cd435 2.240 . S
O445 C443 1.279 . S
O446 Cd436 2.297 . S
O446 C441 1.247 . S
O447 Cd436 2.439 . S
O447 C441 1.208 . S
O448 Cd449 2.223 . S
O448 C456 1.315 . S
Cd449 O448 2.223 . S
Cd449 O452 2.297 . S
Cd449 O453 2.439 . S
Cd449 O459 2.240 . S
Cd450 O451 2.240 . S
Cd450 O458 2.223 . S
Cd450 O460 2.297 . S
Cd450 O461 2.439 . S
O451 Cd450 2.240 . S
O451 C456 1.279 . S
O452 Cd449 2.297 . S
O452 C454 1.247 . S
O453 Cd449 2.439 . S
O453 C454 1.208 . S
C454 O452 1.247 . S
C454 O453 1.208 . S
C455 O460 1.247 . S
C455 O461 1.208 . S
C456 O448 1.315 . S
C456 O451 1.279 . S
C457 O458 1.315 . S
C457 O459 1.279 . S
O458 Cd450 2.223 . S
O458 C457 1.315 . S
O459 Cd449 2.240 . S
O459 C457 1.279 . S
O460 Cd450 2.297 . S
O460 C455 1.247 . S
O461 Cd450 2.439 . S
O461 C455 1.208 . S
O462 Cd463 2.223 . S
O462 C470 1.315 . S
Cd463 O462 2.223 . S
Cd463 O466 2.297 . S
Cd463 O467 2.439 . S
Cd463 O473 2.240 . S
Cd464 O465 2.240 . S
Cd464 O472 2.223 . S
Cd464 O474 2.297 . S
Cd464 O475 2.439 . S
O465 Cd464 2.240 . S
O465 C470 1.279 . S
O466 Cd463 2.297 . S
O466 C468 1.247 . S
O467 Cd463 2.439 . S
O467 C468 1.208 . S
C468 O466 1.247 . S
C468 O467 1.208 . S
C469 O474 1.247 . S
C469 O475 1.208 . S
C470 O462 1.315 . S
C470 O465 1.279 . S
C471 O472 1.315 . S
C471 O473 1.279 . S
O472 Cd464 2.223 . S
O472 C471 1.315 . S
O473 Cd463 2.240 . S
O473 C471 1.279 . S
O474 Cd464 2.297 . S
O474 C469 1.247 . S
O475 Cd464 2.439 . S
O475 C469 1.208 . S
O476 Cd477 2.223 . S
O476 C484 1.315 . S
Cd477 O476 2.223 . S
Cd477 O480 2.297 . S
Cd477 O481 2.439 . S
Cd477 O487 2.240 . S
Cd478 O479 2.240 . S
Cd478 O486 2.223 . S
Cd478 O488 2.297 . S
Cd478 O489 2.439 . S
O479 Cd478 2.240 . S
O479 C484 1.279 . S
O480 Cd477 2.297 . S
O480 C482 1.247 . S
O481 Cd477 2.439 . S
O481 C482 1.208 . S
C482 O480 1.247 . S
C482 O481 1.208 . S
C483 O488 1.247 . S
C483 O489 1.208 . S
C484 O476 1.315 . S
C484 O479 1.279 . S
C485 O486 1.315 . S
C485 O487 1.279 . S
O486 Cd478 2.223 . S
O486 C485 1.315 . S
O487 Cd477 2.240 . S
O487 C485 1.279 . S
O488 Cd478 2.297 . S
O488 C483 1.247 . S
O489 Cd478 2.439 . S
O489 C483 1.208 . S
O490 Cd491 2.223 . S
O490 C498 1.315 . S
Cd491 O490 2.223 . S
Cd491 O494 2.297 . S
Cd491 O495 2.439 . S
Cd491 O501 2.240 . S
Cd492 O493 2.240 . S
Cd492 O500 2.223 . S
Cd492 O502 2.297 . S
Cd492 O503 2.439 . S
O493 Cd492 2.240 . S
O493 C498 1.279 . S
O494 Cd491 2.297 . S
O494 C496 1.247 . S
O495 Cd491 2.439 . S
O495 C496 1.208 . S
C496 O494 1.247 . S
C496 O495 1.208 . S
C497 O502 1.247 . S
C497 O503 1.208 . S
C498 O490 1.315 . S
C498 O493 1.279 . S
C499 O500 1.315 . S
C499 O501 1.279 . S
O500 Cd492 2.223 . S
O500 C499 1.315 . S
O501 Cd491 2.240 . S
O501 C499 1.279 . S
O502 Cd492 2.297 . S
O502 C497 1.247 . S
O503 Cd492 2.439 . S
O503 C497 1.208 . S
H504 C512 0.929 . S
H505 C514 0.930 . S
H506 C516 0.930 . S
H507 C519 0.929 . S
H508 C522 0.930 . S
H509 C524 0.960 . S
H510 C524 0.960 . S
H511 C524 0.960 . S
C512 H504 0.929 . S
C512 C513 1.377 . S
C512 C514 1.384 . S
C513 C512 1.377 . S
C513 C519 1.390 . S
C514 H505 0.930 . S
C514 C512 1.384 . S
C514 C515 1.372 . S
C515 C514 1.372 . S
C515 C516 1.400 . S
C515 C520 1.490 . S
C516 H506 0.930 . S
C516 C515 1.400 . S
C516 C519 1.386 . S
H517 C533 0.930 . S
H518 C534 0.931 . S
C519 H507 0.929 . S
C519 C513 1.390 . S
C519 C516 1.386 . S
C520 C515 1.490 . S
C520 C522 1.395 . S
C520 C523 1.403 . S
H521 C527 0.930 . S
C522 H508 0.930 . S
C522 C520 1.395 . S
C522 C525 1.403 . S
C523 C520 1.403 . S
C523 C524 1.524 . S
C523 C527 1.400 . S
C524 H509 0.960 . S
C524 H510 0.960 . S
C524 H511 0.960 . S
C524 C523 1.524 . S
C525 C522 1.403 . S
C525 C526 1.392 . S
C525 C529 1.495 . S
C526 C525 1.392 . S
C526 C527 1.385 . S
C526 C528 1.478 . S
C527 H521 0.930 . S
C527 C523 1.400 . S
C527 C526 1.385 . S
C528 C526 1.478 . S
C528 C530 1.381 . S
C528 C534 1.383 . S
C529 C525 1.495 . S
C529 H535 0.959 . S
C529 H536 0.961 . S
C529 H537 0.960 . S
C530 C528 1.381 . S
C530 C531 1.394 . S
C530 H538 0.930 . S
C531 C530 1.394 . S
C531 C532 1.383 . S
C531 H539 0.929 . S
C532 C531 1.383 . S
C532 C533 1.377 . S
C533 H517 0.930 . S
C533 C532 1.377 . S
C533 C534 1.379 . S
C534 H518 0.931 . S
C534 C528 1.383 . S
C534 C533 1.379 . S
H535 C529 0.959 . S
H536 C529 0.961 . S
H537 C529 0.960 . S
H538 C530 0.930 . S
H539 C531 0.929 . S
H540 C548 0.929 . S
H541 C550 0.930 . S
H542 C552 0.930 . S
H543 C555 0.929 . S
H544 C558 0.930 . S
H545 C560 0.960 . S
H546 C560 0.960 . S
H547 C560 0.960 . S
C548 H540 0.929 . S
C548 C549 1.377 . S
C548 C550 1.384 . S
C549 C548 1.377 . S
C549 C555 1.390 . S
C550 H541 0.930 . S
C550 C548 1.384 . S
C550 C551 1.372 . S
C551 C550 1.372 . S
C551 C552 1.400 . S
C551 C556 1.490 . S
C552 H542 0.930 . S
C552 C551 1.400 . S
C552 C555 1.386 . S
H553 C569 0.930 . S
H554 C570 0.931 . S
C555 H543 0.929 . S
C555 C549 1.390 . S
C555 C552 1.386 . S
C556 C551 1.490 . S
C556 C558 1.395 . S
C556 C559 1.403 . S
H557 C563 0.930 . S
C558 H544 0.930 . S
C558 C556 1.395 . S
C558 C561 1.403 . S
C559 C556 1.403 . S
C559 C560 1.524 . S
C559 C563 1.400 . S
C560 H545 0.960 . S
C560 H546 0.960 . S
C560 H547 0.960 . S
C560 C559 1.524 . S
C561 C558 1.403 . S
C561 C562 1.392 . S
C561 C565 1.495 . S
C562 C561 1.392 . S
C562 C563 1.385 . S
C562 C564 1.478 . S
C563 H557 0.930 . S
C563 C559 1.400 . S
C563 C562 1.385 . S
C564 C562 1.478 . S
C564 C566 1.381 . S
C564 C570 1.383 . S
C565 C561 1.495 . S
C565 H571 0.959 . S
C565 H572 0.961 . S
C565 H573 0.960 . S
C566 C564 1.381 . S
C566 C567 1.394 . S
C566 H574 0.930 . S
C567 C566 1.394 . S
C567 C568 1.383 . S
C567 H575 0.929 . S
C568 C567 1.383 . S
C568 C569 1.377 . S
C569 H553 0.930 . S
C569 C568 1.377 . S
C569 C570 1.379 . S
C570 H554 0.931 . S
C570 C564 1.383 . S
C570 C569 1.379 . S
H571 C565 0.959 . S
H572 C565 0.961 . S
H573 C565 0.960 . S
H574 C566 0.930 . S
H575 C567 0.929 . S
H576 C584 0.929 . S
H577 C586 0.930 . S
H578 C588 0.930 . S
H579 C591 0.929 . S
H580 C594 0.930 . S
H581 C596 0.960 . S
H582 C596 0.960 . S
H583 C596 0.960 . S
C584 H576 0.929 . S
C584 C585 1.377 . S
C584 C586 1.384 . S
C585 C584 1.377 . S
C585 C591 1.390 . S
C586 H577 0.930 . S
C586 C584 1.384 . S
C586 C587 1.372 . S
C587 C586 1.372 . S
C587 C588 1.400 . S
C587 C592 1.490 . S
C588 H578 0.930 . S
C588 C587 1.400 . S
C588 C591 1.386 . S
H589 C605 0.930 . S
H590 C606 0.931 . S
C591 H579 0.929 . S
C591 C585 1.390 . S
C591 C588 1.386 . S
C592 C587 1.490 . S
C592 C594 1.395 . S
C592 C595 1.403 . S
H593 C599 0.930 . S
C594 H580 0.930 . S
C594 C592 1.395 . S
C594 C597 1.403 . S
C595 C592 1.403 . S
C595 C596 1.524 . S
C595 C599 1.400 . S
C596 H581 0.960 . S
C596 H582 0.960 . S
C596 H583 0.960 . S
C596 C595 1.524 . S
C597 C594 1.403 . S
C597 C598 1.392 . S
C597 C601 1.495 . S
C598 C597 1.392 . S
C598 C599 1.385 . S
C598 C600 1.478 . S
C599 H593 0.930 . S
C599 C595 1.400 . S
C599 C598 1.385 . S
C600 C598 1.478 . S
C600 C602 1.381 . S
C600 C606 1.383 . S
C601 C597 1.495 . S
C601 H607 0.959 . S
C601 H608 0.961 . S
C601 H609 0.960 . S
C602 C600 1.381 . S
C602 C603 1.394 . S
C602 H610 0.930 . S
C603 C602 1.394 . S
C603 C604 1.383 . S
C603 H611 0.929 . S
C604 C603 1.383 . S
C604 C605 1.377 . S
C605 H589 0.930 . S
C605 C604 1.377 . S
C605 C606 1.379 . S
C606 H590 0.931 . S
C606 C600 1.383 . S
C606 C605 1.379 . S
H607 C601 0.959 . S
H608 C601 0.961 . S
H609 C601 0.960 . S
H610 C602 0.930 . S
H611 C603 0.929 . S
H612 C620 0.929 . S
H613 C622 0.930 . S
H614 C624 0.930 . S
H615 C627 0.929 . S
H616 C630 0.930 . S
H617 C632 0.960 . S
H618 C632 0.960 . S
H619 C632 0.960 . S
C620 H612 0.929 . S
C620 C621 1.377 . S
C620 C622 1.384 . S
C621 C620 1.377 . S
C621 C627 1.390 . S
C622 H613 0.930 . S
C622 C620 1.384 . S
C622 C623 1.372 . S
C623 C622 1.372 . S
C623 C624 1.400 . S
C623 C628 1.490 . S
C624 H614 0.930 . S
C624 C623 1.400 . S
C624 C627 1.386 . S
H625 C641 0.930 . S
H626 C642 0.931 . S
C627 H615 0.929 . S
C627 C621 1.390 . S
C627 C624 1.386 . S
C628 C623 1.490 . S
C628 C630 1.395 . S
C628 C631 1.403 . S
H629 C635 0.930 . S
C630 H616 0.930 . S
C630 C628 1.395 . S
C630 C633 1.403 . S
C631 C628 1.403 . S
C631 C632 1.524 . S
C631 C635 1.400 . S
C632 H617 0.960 . S
C632 H618 0.960 . S
C632 H619 0.960 . S
C632 C631 1.524 . S
C633 C630 1.403 . S
C633 C634 1.392 . S
C633 C637 1.495 . S
C634 C633 1.392 . S
C634 C635 1.385 . S
C634 C636 1.478 . S
C635 H629 0.930 . S
C635 C631 1.400 . S
C635 C634 1.385 . S
C636 C634 1.478 . S
C636 C638 1.381 . S
C636 C642 1.383 . S
C637 C633 1.495 . S
C637 H643 0.959 . S
C637 H644 0.961 . S
C637 H645 0.960 . S
C638 C636 1.381 . S
C638 C639 1.394 . S
C638 H646 0.930 . S
C639 C638 1.394 . S
C639 C640 1.383 . S
C639 H647 0.929 . S
C640 C639 1.383 . S
C640 C641 1.377 . S
C641 H625 0.930 . S
C641 C640 1.377 . S
C641 C642 1.379 . S
C642 H626 0.931 . S
C642 C636 1.383 . S
C642 C641 1.379 . S
H643 C637 0.959 . S
H644 C637 0.961 . S
H645 C637 0.960 . S
H646 C638 0.930 . S
H647 C639 0.929 . S
H648 C656 0.929 . S
H649 C658 0.930 . S
H650 C660 0.930 . S
H651 C663 0.929 . S
H652 C666 0.930 . S
H653 C668 0.960 . S
H654 C668 0.960 . S
H655 C668 0.960 . S
C656 H648 0.929 . S
C656 C657 1.377 . S
C656 C658 1.384 . S
C657 C656 1.377 . S
C657 C663 1.390 . S
C658 H649 0.930 . S
C658 C656 1.384 . S
C658 C659 1.372 . S
C659 C658 1.372 . S
C659 C660 1.400 . S
C659 C664 1.490 . S
C660 H650 0.930 . S
C660 C659 1.400 . S
C660 C663 1.386 . S
H661 C677 0.930 . S
H662 C678 0.931 . S
C663 H651 0.929 . S
C663 C657 1.390 . S
C663 C660 1.386 . S
C664 C659 1.490 . S
C664 C666 1.395 . S
C664 C667 1.403 . S
H665 C671 0.930 . S
C666 H652 0.930 . S
C666 C664 1.395 . S
C666 C669 1.403 . S
C667 C664 1.403 . S
C667 C668 1.524 . S
C667 C671 1.400 . S
C668 H653 0.960 . S
C668 H654 0.960 . S
C668 H655 0.960 . S
C668 C667 1.524 . S
C669 C666 1.403 . S
C669 C670 1.392 . S
C669 C673 1.495 . S
C670 C669 1.392 . S
C670 C671 1.385 . S
C670 C672 1.478 . S
C671 H665 0.930 . S
C671 C667 1.400 . S
C671 C670 1.385 . S
C672 C670 1.478 . S
C672 C674 1.381 . S
C672 C678 1.383 . S
C673 C669 1.495 . S
C673 H679 0.959 . S
C673 H680 0.961 . S
C673 H681 0.960 . S
C674 C672 1.381 . S
C674 C675 1.394 . S
C674 H682 0.930 . S
C675 C674 1.394 . S
C675 C676 1.383 . S
C675 H683 0.929 . S
C676 C675 1.383 . S
C676 C677 1.377 . S
C677 H661 0.930 . S
C677 C676 1.377 . S
C677 C678 1.379 . S
C678 H662 0.931 . S
C678 C672 1.383 . S
C678 C677 1.379 . S
H679 C673 0.959 . S
H680 C673 0.961 . S
H681 C673 0.960 . S
H682 C674 0.930 . S
H683 C675 0.929 . S
H684 C692 0.929 . S
H685 C694 0.930 . S
H686 C696 0.930 . S
H687 C699 0.929 . S
H688 C702 0.930 . S
H689 C704 0.960 . S
H690 C704 0.960 . S
H691 C704 0.960 . S
C692 H684 0.929 . S
C692 C693 1.377 . S
C692 C694 1.384 . S
C693 C692 1.377 . S
C693 C699 1.390 . S
C694 H685 0.930 . S
C694 C692 1.384 . S
C694 C695 1.372 . S
C695 C694 1.372 . S
C695 C696 1.400 . S
C695 C700 1.490 . S
C696 H686 0.930 . S
C696 C695 1.400 . S
C696 C699 1.386 . S
H697 C713 0.930 . S
H698 C714 0.931 . S
C699 H687 0.929 . S
C699 C693 1.390 . S
C699 C696 1.386 . S
C700 C695 1.490 . S
C700 C702 1.395 . S
C700 C703 1.403 . S
H701 C707 0.930 . S
C702 H688 0.930 . S
C702 C700 1.395 . S
C702 C705 1.403 . S
C703 C700 1.403 . S
C703 C704 1.524 . S
C703 C707 1.400 . S
C704 H689 0.960 . S
C704 H690 0.960 . S
C704 H691 0.960 . S
C704 C703 1.524 . S
C705 C702 1.403 . S
C705 C706 1.392 . S
C705 C709 1.495 . S
C706 C705 1.392 . S
C706 C707 1.385 . S
C706 C708 1.478 . S
C707 H701 0.930 . S
C707 C703 1.400 . S
C707 C706 1.385 . S
C708 C706 1.478 . S
C708 C710 1.381 . S
C708 C714 1.383 . S
C709 C705 1.495 . S
C709 H715 0.959 . S
C709 H716 0.961 . S
C709 H717 0.960 . S
C710 C708 1.381 . S
C710 C711 1.394 . S
C710 H718 0.930 . S
C711 C710 1.394 . S
C711 C712 1.383 . S
C711 H719 0.929 . S
C712 C711 1.383 . S
C712 C713 1.377 . S
C713 H697 0.930 . S
C713 C712 1.377 . S
C713 C714 1.379 . S
C714 H698 0.931 . S
C714 C708 1.383 . S
C714 C713 1.379 . S
H715 C709 0.959 . S
H716 C709 0.961 . S
H717 C709 0.960 . S
H718 C710 0.930 . S
H719 C711 0.929 . S
H720 C728 0.929 . S
H721 C730 0.930 . S
H722 C732 0.930 . S
H723 C735 0.929 . S
H724 C738 0.930 . S
H725 C740 0.960 . S
H726 C740 0.960 . S
H727 C740 0.960 . S
C728 H720 0.929 . S
C728 C729 1.377 . S
C728 C730 1.384 . S
C729 C728 1.377 . S
C729 C735 1.390 . S
C730 H721 0.930 . S
C730 C728 1.384 . S
C730 C731 1.372 . S
C731 C730 1.372 . S
C731 C732 1.400 . S
C731 C736 1.490 . S
C732 H722 0.930 . S
C732 C731 1.400 . S
C732 C735 1.386 . S
H733 C749 0.930 . S
H734 C750 0.931 . S
C735 H723 0.929 . S
C735 C729 1.390 . S
C735 C732 1.386 . S
C736 C731 1.490 . S
C736 C738 1.395 . S
C736 C739 1.403 . S
H737 C743 0.930 . S
C738 H724 0.930 . S
C738 C736 1.395 . S
C738 C741 1.403 . S
C739 C736 1.403 . S
C739 C740 1.524 . S
C739 C743 1.400 . S
C740 H725 0.960 . S
C740 H726 0.960 . S
C740 H727 0.960 . S
C740 C739 1.524 . S
C741 C738 1.403 . S
C741 C742 1.392 . S
C741 C745 1.495 . S
C742 C741 1.392 . S
C742 C743 1.385 . S
C742 C744 1.478 . S
C743 H737 0.930 . S
C743 C739 1.400 . S
C743 C742 1.385 . S
C744 C742 1.478 . S
C744 C746 1.381 . S
C744 C750 1.383 . S
C745 C741 1.495 . S
C745 H751 0.959 . S
C745 H752 0.961 . S
C745 H753 0.960 . S
C746 C744 1.381 . S
C746 C747 1.394 . S
C746 H754 0.930 . S
C747 C746 1.394 . S
C747 C748 1.383 . S
C747 H755 0.929 . S
C748 C747 1.383 . S
C748 C749 1.377 . S
C749 H733 0.930 . S
C749 C748 1.377 . S
C749 C750 1.379 . S
C750 H734 0.931 . S
C750 C744 1.383 . S
C750 C749 1.379 . S
H751 C745 0.959 . S
H752 C745 0.961 . S
H753 C745 0.960 . S
H754 C746 0.930 . S
H755 C747 0.929 . S
H756 C764 0.929 . S
H757 C766 0.930 . S
H758 C768 0.930 . S
H759 C771 0.929 . S
H760 C774 0.930 . S
H761 C776 0.960 . S
H762 C776 0.960 . S
H763 C776 0.960 . S
C764 H756 0.929 . S
C764 C765 1.377 . S
C764 C766 1.384 . S
C765 C764 1.377 . S
C765 C771 1.390 . S
C766 H757 0.930 . S
C766 C764 1.384 . S
C766 C767 1.372 . S
C767 C766 1.372 . S
C767 C768 1.400 . S
C767 C772 1.490 . S
C768 H758 0.930 . S
C768 C767 1.400 . S
C768 C771 1.386 . S
H769 C785 0.930 . S
H770 C786 0.931 . S
C771 H759 0.929 . S
C771 C765 1.390 . S
C771 C768 1.386 . S
C772 C767 1.490 . S
C772 C774 1.395 . S
C772 C775 1.403 . S
H773 C779 0.930 . S
C774 H760 0.930 . S
C774 C772 1.395 . S
C774 C777 1.403 . S
C775 C772 1.403 . S
C775 C776 1.524 . S
C775 C779 1.400 . S
C776 H761 0.960 . S
C776 H762 0.960 . S
C776 H763 0.960 . S
C776 C775 1.524 . S
C777 C774 1.403 . S
C777 C778 1.392 . S
C777 C781 1.495 . S
C778 C777 1.392 . S
C778 C779 1.385 . S
C778 C780 1.478 . S
C779 H773 0.930 . S
C779 C775 1.400 . S
C779 C778 1.385 . S
C780 C778 1.478 . S
C780 C782 1.381 . S
C780 C786 1.383 . S
C781 C777 1.495 . S
C781 H787 0.959 . S
C781 H788 0.961 . S
C781 H789 0.960 . S
C782 C780 1.381 . S
C782 C783 1.394 . S
C782 H790 0.930 . S
C783 C782 1.394 . S
C783 C784 1.383 . S
C783 H791 0.929 . S
C784 C783 1.383 . S
C784 C785 1.377 . S
C785 H769 0.930 . S
C785 C784 1.377 . S
C785 C786 1.379 . S
C786 H770 0.931 . S
C786 C780 1.383 . S
C786 C785 1.379 . S
H787 C781 0.959 . S
H788 C781 0.961 . S
H789 C781 0.960 . S
H790 C782 0.930 . S
H791 C783 0.929 . S
H792 C800 0.929 . S
H793 C802 0.930 . S
H794 C804 0.930 . S
H795 C807 0.929 . S
H796 C810 0.930 . S
H797 C812 0.960 . S
H798 C812 0.960 . S
H799 C812 0.960 . S
C800 H792 0.929 . S
C800 C801 1.377 . S
C800 C802 1.384 . S
C801 C800 1.377 . S
C801 C807 1.390 . S
C802 H793 0.930 . S
C802 C800 1.384 . S
C802 C803 1.372 . S
C803 C802 1.372 . S
C803 C804 1.400 . S
C803 C808 1.490 . S
C804 H794 0.930 . S
C804 C803 1.400 . S
C804 C807 1.386 . S
H805 C821 0.930 . S
H806 C822 0.931 . S
C807 H795 0.929 . S
C807 C801 1.390 . S
C807 C804 1.386 . S
C808 C803 1.490 . S
C808 C810 1.395 . S
C808 C811 1.403 . S
H809 C815 0.930 . S
C810 H796 0.930 . S
C810 C808 1.395 . S
C810 C813 1.403 . S
C811 C808 1.403 . S
C811 C812 1.524 . S
C811 C815 1.400 . S
C812 H797 0.960 . S
C812 H798 0.960 . S
C812 H799 0.960 . S
C812 C811 1.524 . S
C813 C810 1.403 . S
C813 C814 1.392 . S
C813 C817 1.495 . S
C814 C813 1.392 . S
C814 C815 1.385 . S
C814 C816 1.478 . S
C815 H809 0.930 . S
C815 C811 1.400 . S
C815 C814 1.385 . S
C816 C814 1.478 . S
C816 C818 1.381 . S
C816 C822 1.383 . S
C817 C813 1.495 . S
C817 H823 0.959 . S
C817 H824 0.961 . S
C817 H825 0.960 . S
C818 C816 1.381 . S
C818 C819 1.394 . S
C818 H826 0.930 . S
C819 C818 1.394 . S
C819 C820 1.383 . S
C819 H827 0.929 . S
C820 C819 1.383 . S
C820 C821 1.377 . S
C821 H805 0.930 . S
C821 C820 1.377 . S
C821 C822 1.379 . S
C822 H806 0.931 . S
C822 C816 1.383 . S
C822 C821 1.379 . S
H823 C817 0.959 . S
H824 C817 0.961 . S
H825 C817 0.960 . S
H826 C818 0.930 . S
H827 C819 0.929 . S
H828 C836 0.929 . S
H829 C838 0.930 . S
H830 C840 0.930 . S
H831 C843 0.929 . S
H832 C846 0.930 . S
H833 C848 0.960 . S
H834 C848 0.960 . S
H835 C848 0.960 . S
C836 H828 0.929 . S
C836 C837 1.377 . S
C836 C838 1.384 . S
C837 C836 1.377 . S
C837 C843 1.390 . S
C838 H829 0.930 . S
C838 C836 1.384 . S
C838 C839 1.372 . S
C839 C838 1.372 . S
C839 C840 1.400 . S
C839 C844 1.490 . S
C840 H830 0.930 . S
C840 C839 1.400 . S
C840 C843 1.386 . S
H841 C857 0.930 . S
H842 C858 0.931 . S
C843 H831 0.929 . S
C843 C837 1.390 . S
C843 C840 1.386 . S
C844 C839 1.490 . S
C844 C846 1.395 . S
C844 C847 1.403 . S
H845 C851 0.930 . S
C846 H832 0.930 . S
C846 C844 1.395 . S
C846 C849 1.403 . S
C847 C844 1.403 . S
C847 C848 1.524 . S
C847 C851 1.400 . S
C848 H833 0.960 . S
C848 H834 0.960 . S
C848 H835 0.960 . S
C848 C847 1.524 . S
C849 C846 1.403 . S
C849 C850 1.392 . S
C849 C853 1.495 . S
C850 C849 1.392 . S
C850 C851 1.385 . S
C850 C852 1.478 . S
C851 H845 0.930 . S
C851 C847 1.400 . S
C851 C850 1.385 . S
C852 C850 1.478 . S
C852 C854 1.381 . S
C852 C858 1.383 . S
C853 C849 1.495 . S
C853 H859 0.959 . S
C853 H860 0.961 . S
C853 H861 0.960 . S
C854 C852 1.381 . S
C854 C855 1.394 . S
C854 H862 0.930 . S
C855 C854 1.394 . S
C855 C856 1.383 . S
C855 H863 0.929 . S
C856 C855 1.383 . S
C856 C857 1.377 . S
C857 H841 0.930 . S
C857 C856 1.377 . S
C857 C858 1.379 . S
C858 H842 0.931 . S
C858 C852 1.383 . S
C858 C857 1.379 . S
H859 C853 0.959 . S
H860 C853 0.961 . S
H861 C853 0.960 . S
H862 C854 0.930 . S
H863 C855 0.929 . S
H864 C872 0.929 . S
H865 C874 0.930 . S
H866 C876 0.930 . S
H867 C879 0.929 . S
H868 C882 0.930 . S
H869 C884 0.960 . S
H870 C884 0.960 . S
H871 C884 0.960 . S
C872 H864 0.929 . S
C872 C873 1.377 . S
C872 C874 1.384 . S
C873 C872 1.377 . S
C873 C879 1.390 . S
C874 H865 0.930 . S
C874 C872 1.384 . S
C874 C875 1.372 . S
C875 C874 1.372 . S
C875 C876 1.400 . S
C875 C880 1.490 . S
C876 H866 0.930 . S
C876 C875 1.400 . S
C876 C879 1.386 . S
H877 C893 0.930 . S
H878 C894 0.931 . S
C879 H867 0.929 . S
C879 C873 1.390 . S
C879 C876 1.386 . S
C880 C875 1.490 . S
C880 C882 1.395 . S
C880 C883 1.403 . S
H881 C887 0.930 . S
C882 H868 0.930 . S
C882 C880 1.395 . S
C882 C885 1.403 . S
C883 C880 1.403 . S
C883 C884 1.524 . S
C883 C887 1.400 . S
C884 H869 0.960 . S
C884 H870 0.960 . S
C884 H871 0.960 . S
C884 C883 1.524 . S
C885 C882 1.403 . S
C885 C886 1.392 . S
C885 C889 1.495 . S
C886 C885 1.392 . S
C886 C887 1.385 . S
C886 C888 1.478 . S
C887 H881 0.930 . S
C887 C883 1.400 . S
C887 C886 1.385 . S
C888 C886 1.478 . S
C888 C890 1.381 . S
C888 C894 1.383 . S
C889 C885 1.495 . S
C889 H895 0.959 . S
C889 H896 0.961 . S
C889 H897 0.960 . S
C890 C888 1.381 . S
C890 C891 1.394 . S
C890 H898 0.930 . S
C891 C890 1.394 . S
C891 C892 1.383 . S
C891 H899 0.929 . S
C892 C891 1.383 . S
C892 C893 1.377 . S
C893 H877 0.930 . S
C893 C892 1.377 . S
C893 C894 1.379 . S
C894 H878 0.931 . S
C894 C888 1.383 . S
C894 C893 1.379 . S
H895 C889 0.959 . S
H896 C889 0.961 . S
H897 C889 0.960 . S
H898 C890 0.930 . S
H899 C891 0.929 . S
H900 C908 0.929 . S
H901 C910 0.930 . S
H902 C912 0.930 . S
H903 C915 0.929 . S
H904 C918 0.930 . S
H905 C920 0.960 . S
H906 C920 0.960 . S
H907 C920 0.960 . S
C908 H900 0.929 . S
C908 C909 1.377 . S
C908 C910 1.384 . S
C909 C908 1.377 . S
C909 C915 1.390 . S
C910 H901 0.930 . S
C910 C908 1.384 . S
C910 C911 1.372 . S
C911 C910 1.372 . S
C911 C912 1.400 . S
C911 C916 1.490 . S
C912 H902 0.930 . S
C912 C911 1.400 . S
C912 C915 1.386 . S
H913 C929 0.930 . S
H914 C930 0.931 . S
C915 H903 0.929 . S
C915 C909 1.390 . S
C915 C912 1.386 . S
C916 C911 1.490 . S
C916 C918 1.395 . S
C916 C919 1.403 . S
H917 C923 0.930 . S
C918 H904 0.930 . S
C918 C916 1.395 . S
C918 C921 1.403 . S
C919 C916 1.403 . S
C919 C920 1.524 . S
C919 C923 1.400 . S
C920 H905 0.960 . S
C920 H906 0.960 . S
C920 H907 0.960 . S
C920 C919 1.524 . S
C921 C918 1.403 . S
C921 C922 1.392 . S
C921 C925 1.495 . S
C922 C921 1.392 . S
C922 C923 1.385 . S
C922 C924 1.478 . S
C923 H917 0.930 . S
C923 C919 1.400 . S
C923 C922 1.385 . S
C924 C922 1.478 . S
C924 C926 1.381 . S
C924 C930 1.383 . S
C925 C921 1.495 . S
C925 H931 0.959 . S
C925 H932 0.961 . S
C925 H933 0.960 . S
C926 C924 1.381 . S
C926 C927 1.394 . S
C926 H934 0.930 . S
C927 C926 1.394 . S
C927 C928 1.383 . S
C927 H935 0.929 . S
C928 C927 1.383 . S
C928 C929 1.377 . S
C929 H913 0.930 . S
C929 C928 1.377 . S
C929 C930 1.379 . S
C930 H914 0.931 . S
C930 C924 1.383 . S
C930 C929 1.379 . S
H931 C925 0.959 . S
H932 C925 0.961 . S
H933 C925 0.960 . S
H934 C926 0.930 . S
H935 C927 0.929 . S
H936 C944 0.929 . S
H937 C946 0.930 . S
H938 C948 0.930 . S
H939 C951 0.929 . S
H940 C954 0.930 . S
H941 C956 0.960 . S
H942 C956 0.960 . S
H943 C956 0.960 . S
C944 H936 0.929 . S
C944 C945 1.377 . S
C944 C946 1.384 . S
C945 C944 1.377 . S
C945 C951 1.390 . S
C946 H937 0.930 . S
C946 C944 1.384 . S
C946 C947 1.372 . S
C947 C946 1.372 . S
C947 C948 1.400 . S
C947 C952 1.490 . S
C948 H938 0.930 . S
C948 C947 1.400 . S
C948 C951 1.386 . S
H949 C965 0.930 . S
H950 C966 0.931 . S
C951 H939 0.929 . S
C951 C945 1.390 . S
C951 C948 1.386 . S
C952 C947 1.490 . S
C952 C954 1.395 1_655 S
C952 C955 1.403 . S
H953 C959 0.930 . S
C954 H940 0.930 . S
C954 C952 1.395 1_455 S
C954 C957 1.403 . S
C955 C952 1.403 . S
C955 C956 1.524 . S
C955 C959 1.400 . S
C956 H941 0.960 . S
C956 H942 0.960 . S
C956 H943 0.960 . S
C956 C955 1.524 . S
C957 C954 1.403 . S
C957 C958 1.392 . S
C957 C961 1.495 . S
C958 C957 1.392 . S
C958 C959 1.385 1_455 S
C958 C960 1.478 . S
C959 H953 0.930 . S
C959 C955 1.400 . S
C959 C958 1.385 1_655 S
C960 C958 1.478 . S
C960 C962 1.381 . S
C960 C966 1.383 . S
C961 C957 1.495 . S
C961 H967 0.959 . S
C961 H968 0.961 . S
C961 H969 0.960 . S
C962 C960 1.381 . S
C962 C963 1.394 . S
C962 H970 0.930 . S
C963 C962 1.394 . S
C963 C964 1.383 . S
C963 H971 0.929 . S
C964 C963 1.383 . S
C964 C965 1.377 . S
C965 H949 0.930 . S
C965 C964 1.377 . S
C965 C966 1.379 . S
C966 H950 0.931 . S
C966 C960 1.383 . S
C966 C965 1.379 . S
H967 C961 0.959 . S
H968 C961 0.961 . S
H969 C961 0.960 . S
H970 C962 0.930 . S
H971 C963 0.929 . S
H972 C980 0.929 . S
H973 C982 0.930 . S
H974 C984 0.930 . S
H975 C987 0.929 . S
H976 C990 0.930 . S
H977 C992 0.960 . S
H978 C992 0.960 . S
H979 C992 0.960 . S
C980 H972 0.929 . S
C980 C981 1.377 . S
C980 C982 1.384 . S
C981 C980 1.377 . S
C981 C987 1.390 . S
C982 H973 0.930 . S
C982 C980 1.384 . S
C982 C983 1.372 . S
C983 C982 1.372 . S
C983 C984 1.400 . S
C983 C988 1.490 . S
C984 H974 0.930 . S
C984 C983 1.400 . S
C984 C987 1.386 . S
H985 C1001 0.930 . S
H986 C1002 0.931 . S
C987 H975 0.929 . S
C987 C981 1.390 . S
C987 C984 1.386 . S
C988 C983 1.490 . S
C988 C990 1.395 . S
C988 C991 1.403 . S
H989 C995 0.930 . S
C990 H976 0.930 . S
C990 C988 1.395 . S
C990 C993 1.403 . S
C991 C988 1.403 . S
C991 C992 1.524 . S
C991 C995 1.400 . S
C992 H977 0.960 . S
C992 H978 0.960 . S
C992 H979 0.960 . S
C992 C991 1.524 . S
C993 C990 1.403 . S
C993 C994 1.392 . S
C993 C997 1.495 . S
C994 C993 1.392 . S
C994 C995 1.385 . S
C994 C996 1.478 . S
C995 H989 0.930 . S
C995 C991 1.400 . S
C995 C994 1.385 . S
C996 C994 1.478 . S
C996 C998 1.381 . S
C996 C1002 1.383 . S
C997 C993 1.495 . S
C997 H1003 0.959 . S
C997 H1004 0.961 . S
C997 H1005 0.960 . S
C998 C996 1.381 . S
C998 C999 1.394 . S
C998 H1006 0.930 . S
C999 C998 1.394 . S
C999 C1000 1.383 . S
C999 H1007 0.929 . S
C1000 C999 1.383 . S
C1000 C1001 1.377 . S
C1001 H985 0.930 . S
C1001 C1000 1.377 . S
C1001 C1002 1.379 . S
C1002 H986 0.931 . S
C1002 C996 1.383 . S
C1002 C1001 1.379 . S
H1003 C997 0.959 . S
H1004 C997 0.961 . S
H1005 C997 0.960 . S
H1006 C998 0.930 . S
H1007 C999 0.929 . S
H1008 C1016 0.929 . S
H1009 C1018 0.930 1_565 S
H1010 C1020 0.930 . S
H1011 C1023 0.929 . S
H1012 C1026 0.948 . S
H1013 C1028 0.960 . S
H1014 C1028 0.960 . S
H1015 C1028 0.960 . S
C1016 H1008 0.929 . S
C1016 C1017 1.377 . S
C1016 C1018 1.384 . S
C1017 C1016 1.377 . S
C1017 C1023 1.390 . S
C1018 H1009 0.930 1_545 S
C1018 C1016 1.384 . S
C1018 C1019 1.372 . S
C1019 C1018 1.372 . S
C1019 C1020 1.400 . S
C1019 C1024 1.490 . S
C1020 H1010 0.930 . S
C1020 C1019 1.400 . S
C1020 C1023 1.386 . S
H1021 C1037 0.930 . S
H1022 C1038 0.931 1_545 S
C1023 H1011 0.929 . S
C1023 C1017 1.390 . S
C1023 C1020 1.386 . S
C1024 C1019 1.490 . S
C1024 C1026 1.359 1_545 S
C1024 C1027 1.403 . S
H1025 C1031 0.930 . S
C1026 H1012 0.948 . S
C1026 C1024 1.359 1_565 S
C1026 C1029 1.419 . S
C1027 C1024 1.403 . S
C1027 C1028 1.524 . S
C1027 C1031 1.400 1_545 S
C1028 H1013 0.960 . S
C1028 H1014 0.960 . S
C1028 H1015 0.960 . S
C1028 C1027 1.524 . S
C1029 C1026 1.419 . S
C1029 C1030 1.392 . S
C1029 C1033 1.495 . S
C1030 C1029 1.392 . S
C1030 C1031 1.385 . S
C1030 C1032 1.478 . S
C1031 H1025 0.930 . S
C1031 C1027 1.400 1_565 S
C1031 C1030 1.385 . S
C1032 C1030 1.478 . S
C1032 C1034 1.381 . S
C1032 C1038 1.383 . S
C1033 C1029 1.495 . S
C1033 H1039 0.959 . S
C1033 H1040 0.961 . S
C1033 H1041 0.960 . S
C1034 C1032 1.381 . S
C1034 C1035 1.394 . S
C1034 H1042 0.930 . S
C1035 C1034 1.394 . S
C1035 C1036 1.383 . S
C1035 H1043 0.929 . S
C1036 C1035 1.383 . S
C1036 C1037 1.377 . S
C1037 H1021 0.930 . S
C1037 C1036 1.377 . S
C1037 C1038 1.379 . S
C1038 H1022 0.931 1_565 S
C1038 C1032 1.383 . S
C1038 C1037 1.379 . S
H1039 C1033 0.959 . S
H1040 C1033 0.961 . S
H1041 C1033 0.960 . S
H1042 C1034 0.930 . S
H1043 C1035 0.929 . S
H1044 C1052 0.929 . S
H1045 C1054 0.930 1_565 S
H1046 C1056 0.930 . S
H1047 C1059 0.929 . S
H1048 C1062 0.930 . S
H1049 C1064 0.960 . S
H1050 C1064 0.960 1_556 S
H1051 C1064 0.957 1_556 S
C1052 H1044 0.929 . S
C1052 C1053 1.377 . S
C1052 C1054 1.384 . S
C1053 C1052 1.377 . S
C1053 C1059 1.390 . S
C1054 H1045 0.930 1_545 S
C1054 C1052 1.384 . S
C1054 C1055 1.372 . S
C1055 C1054 1.372 . S
C1055 C1056 1.400 . S
C1055 C1060 1.490 . S
C1056 H1046 0.930 . S
C1056 C1055 1.400 . S
C1056 C1059 1.386 . S
H1057 C1073 0.930 . S
H1058 C1074 0.931 1_545 S
C1059 H1047 0.929 . S
C1059 C1053 1.390 . S
C1059 C1056 1.386 . S
C1060 C1055 1.490 . S
C1060 C1062 1.395 1_545 S
C1060 C1063 1.355 1_556 S
H1061 C1067 0.930 . S
C1062 H1048 0.930 . S
C1062 C1060 1.395 1_565 S
C1062 C1065 1.403 . S
C1063 C1060 1.355 1_554 S
C1063 C1064 1.532 . S
C1063 C1067 1.441 . S
C1064 H1049 0.960 . S
C1064 H1050 0.960 1_554 S
C1064 H1051 0.957 1_554 S
C1064 C1063 1.532 . S
C1065 C1062 1.403 . S
C1065 C1066 1.392 1_556 S
C1065 C1069 1.495 . S
C1066 C1065 1.392 1_554 S
C1066 C1067 1.385 1_565 S
C1066 C1068 1.478 . S
C1067 H1061 0.930 . S
C1067 C1063 1.441 . S
C1067 C1066 1.385 1_545 S
C1068 C1066 1.478 . S
C1068 C1070 1.381 . S
C1068 C1074 1.383 . S
C1069 C1065 1.495 . S
C1069 H1075 0.959 . S
C1069 H1076 0.930 1_556 S
C1069 H1077 0.960 . S
C1070 C1068 1.381 . S
C1070 C1071 1.394 . S
C1070 H1078 0.930 . S
C1071 C1070 1.394 . S
C1071 C1072 1.383 . S
C1071 H1079 0.929 . S
C1072 C1071 1.383 . S
C1072 C1073 1.377 . S
C1073 H1057 0.930 . S
C1073 C1072 1.377 . S
C1073 C1074 1.379 . S
C1074 H1058 0.931 1_565 S
C1074 C1068 1.383 . S
C1074 C1073 1.379 . S
H1075 C1069 0.959 . S
H1076 C1069 0.930 1_554 S
H1077 C1069 0.960 . S
H1078 C1070 0.930 . S
H1079 C1071 0.929 . S
H1080 C1088 0.929 . S
H1081 C1090 0.930 1_455 S
H1082 C1092 0.930 . S
H1083 C1095 0.929 . S
H1084 C1098 0.930 . S
H1085 C1100 0.960 . S
H1086 C1100 0.960 1_556 S
H1087 C1100 0.957 1_556 S
C1088 H1080 0.929 . S
C1088 C1089 1.377 . S
C1088 C1090 1.384 . S
C1089 C1088 1.377 . S
C1089 C1095 1.390 . S
C1090 H1081 0.930 1_655 S
C1090 C1088 1.384 . S
C1090 C1091 1.372 . S
C1091 C1090 1.372 . S
C1091 C1092 1.400 . S
C1091 C1096 1.490 . S
C1092 H1082 0.930 . S
C1092 C1091 1.400 . S
C1092 C1095 1.386 . S
H1093 C1109 0.930 . S
H1094 C1110 0.931 1_655 S
C1095 H1083 0.929 . S
C1095 C1089 1.390 . S
C1095 C1092 1.386 . S
C1096 C1091 1.490 . S
C1096 C1098 1.395 1_655 S
C1096 C1099 1.342 1_556 S
H1097 C1103 0.930 . S
C1098 H1084 0.930 . S
C1098 C1096 1.395 1_455 S
C1098 C1101 1.403 . S
C1099 C1096 1.342 1_554 S
C1099 C1100 1.536 . S
C1099 C1103 1.452 . S
C1100 H1085 0.960 . S
C1100 H1086 0.960 1_554 S
C1100 H1087 0.957 1_554 S
C1100 C1099 1.536 . S
C1101 C1098 1.403 . S
C1101 C1102 1.392 1_556 S
C1101 C1105 1.495 . S
C1102 C1101 1.392 1_554 S
C1102 C1103 1.385 1_455 S
C1102 C1104 1.478 . S
C1103 H1097 0.930 . S
C1103 C1099 1.452 . S
C1103 C1102 1.385 1_655 S
C1104 C1102 1.478 . S
C1104 C1106 1.381 . S
C1104 C1110 1.383 . S
C1105 C1101 1.495 . S
C1105 H1111 0.959 . S
C1105 H1112 0.959 1_556 S
C1105 H1113 0.960 . S
C1106 C1104 1.381 . S
C1106 C1107 1.394 . S
C1106 H1114 0.930 . S
C1107 C1106 1.394 . S
C1107 C1108 1.383 . S
C1107 H1115 0.929 . S
C1108 C1107 1.383 . S
C1108 C1109 1.377 . S
C1109 H1093 0.930 . S
C1109 C1108 1.377 . S
C1109 C1110 1.379 . S
C1110 H1094 0.931 1_455 S
C1110 C1104 1.383 . S
C1110 C1109 1.379 . S
H1111 C1105 0.959 . S
H1112 C1105 0.959 1_554 S
H1113 C1105 0.960 . S
H1114 C1106 0.930 . S
H1115 C1107 0.929 . S
H1116 C1124 0.929 . S
H1117 C1126 0.930 . S
H1118 C1128 0.930 . S
H1119 C1131 0.929 . S
H1120 C1134 0.930 . S
H1121 C1136 0.960 . S
H1122 C1136 0.975 . S
H1123 C1136 0.960 1_556 S
C1124 H1116 0.929 . S
C1124 C1125 1.377 . S
C1124 C1126 1.384 . S
C1125 C1124 1.377 . S
C1125 C1131 1.390 . S
C1126 H1117 0.930 . S
C1126 C1124 1.384 . S
C1126 C1127 1.372 . S
C1127 C1126 1.372 . S
C1127 C1128 1.400 . S
C1127 C1132 1.490 . S
C1128 H1118 0.930 . S
C1128 C1127 1.400 . S
C1128 C1131 1.386 . S
H1129 C1145 0.930 . S
H1130 C1146 0.931 . S
C1131 H1119 0.929 . S
C1131 C1125 1.390 . S
C1131 C1128 1.386 . S
C1132 C1127 1.490 . S
C1132 C1134 1.395 . S
C1132 C1135 1.361 1_556 S
H1133 C1139 0.930 . S
C1134 H1120 0.930 . S
C1134 C1132 1.395 . S
C1134 C1137 1.403 . S
C1135 C1132 1.361 1_554 S
C1135 C1136 1.531 . S
C1135 C1139 1.437 . S
C1136 H1121 0.960 . S
C1136 H1122 0.975 . S
C1136 H1123 0.960 1_554 S
C1136 C1135 1.531 . S
C1137 C1134 1.403 . S
C1137 C1138 1.392 1_556 S
C1137 C1141 1.495 . S
C1138 C1137 1.392 1_554 S
C1138 C1139 1.385 . S
C1138 C1140 1.478 . S
C1139 H1133 0.930 . S
C1139 C1135 1.437 . S
C1139 C1138 1.385 . S
C1140 C1138 1.478 . S
C1140 C1142 1.381 . S
C1140 C1146 1.383 . S
C1141 C1137 1.495 . S
C1141 H1147 0.959 . S
C1141 H1148 0.961 . S
C1141 H1149 0.960 1_556 S
C1142 C1140 1.381 . S
C1142 C1143 1.394 . S
C1142 H1150 0.930 . S
C1143 C1142 1.394 . S
C1143 C1144 1.383 . S
C1143 H1151 0.929 . S
C1144 C1143 1.383 . S
C1144 C1145 1.377 . S
C1145 H1129 0.930 . S
C1145 C1144 1.377 . S
C1145 C1146 1.379 . S
C1146 H1130 0.931 . S
C1146 C1140 1.383 . S
C1146 C1145 1.379 . S
H1147 C1141 0.959 . S
H1148 C1141 0.961 . S
H1149 C1141 0.960 1_554 S
H1150 C1142 0.930 . S
H1151 C1143 0.929 . S
H1152 C1160 0.929 . S
H1153 C1162 0.930 . S
H1154 C1164 0.930 . S
H1155 C1167 0.929 . S
H1156 C1170 0.930 . S
H1157 C1172 0.960 . S
H1158 C1172 0.960 . S
H1159 C1172 0.960 . S
C1160 H1152 0.929 . S
C1160 C1161 1.377 . S
C1160 C1162 1.384 . S
C1161 C1160 1.377 . S
C1161 C1167 1.390 . S
C1162 H1153 0.930 . S
C1162 C1160 1.384 . S
C1162 C1163 1.372 1_565 S
C1163 C1162 1.372 1_545 S
C1163 C1164 1.400 . S
C1163 C1168 1.490 . S
C1164 H1154 0.930 . S
C1164 C1163 1.400 . S
C1164 C1167 1.386 1_545 S
H1165 C1181 0.930 . S
H1166 C1182 0.931 1_556 S
C1167 H1155 0.929 . S
C1167 C1161 1.390 . S
C1167 C1164 1.386 1_565 S
C1168 C1163 1.490 . S
C1168 C1170 1.395 . S
C1168 C1171 1.403 . S
H1169 C1175 0.930 1_554 S
C1170 H1156 0.930 . S
C1170 C1168 1.395 . S
C1170 C1173 1.403 . S
C1171 C1168 1.403 . S
C1171 C1172 1.524 . S
C1171 C1175 1.400 . S
C1172 H1157 0.960 . S
C1172 H1158 0.960 . S
C1172 H1159 0.960 . S
C1172 C1171 1.524 . S
C1173 C1170 1.403 . S
C1173 C1174 1.392 1_556 S
C1173 C1177 1.495 1_556 S
C1174 C1173 1.392 1_554 S
C1174 C1175 1.385 1_554 S
C1174 C1176 1.478 . S
C1175 H1169 0.930 1_556 S
C1175 C1171 1.400 . S
C1175 C1174 1.385 1_556 S
C1176 C1174 1.478 . S
C1176 C1178 1.381 . S
C1176 C1182 1.383 . S
C1177 C1173 1.495 1_554 S
C1177 H1183 0.959 1_554 S
C1177 H1184 0.961 1_554 S
C1177 H1185 0.960 . S
C1178 C1176 1.381 . S
C1178 C1179 1.394 . S
C1178 H1186 0.930 . S
C1179 C1178 1.394 . S
C1179 C1180 1.383 . S
C1179 H1187 0.929 . S
C1180 C1179 1.383 . S
C1180 C1181 1.377 . S
C1181 H1165 0.930 . S
C1181 C1180 1.377 . S
C1181 C1182 1.379 . S
C1182 H1166 0.931 1_554 S
C1182 C1176 1.383 . S
C1182 C1181 1.379 . S
H1183 C1177 0.959 1_556 S
H1184 C1177 0.961 1_556 S
H1185 C1177 0.960 . S
H1186 C1178 0.930 . S
H1187 C1179 0.929 . S
H1188 C1196 0.929 . S
H1189 C1198 0.927 . S
H1190 C1200 0.930 1_655 S
H1191 C1203 0.929 . S
H1192 C1206 0.935 . S
H1193 C1208 0.960 . S
H1194 C1208 0.960 . S
H1195 C1208 0.960 . S
C1196 H1188 0.929 . S
C1196 C1197 1.377 . S
C1196 C1198 1.384 . S
C1197 C1196 1.377 . S
C1197 C1203 1.390 . S
C1198 H1189 0.927 . S
C1198 C1196 1.384 . S
C1198 C1199 1.372 1_455 S
C1199 C1198 1.372 1_655 S
C1199 C1200 1.400 1_655 S
C1199 C1204 1.490 . S
C1200 H1190 0.930 1_455 S
C1200 C1199 1.400 1_455 S
C1200 C1203 1.386 . S
H1201 C1217 0.930 . S
H1202 C1218 0.931 . S
C1203 H1191 0.929 . S
C1203 C1197 1.390 . S
C1203 C1200 1.386 . S
C1204 C1199 1.490 . S
C1204 C1206 1.395 . S
C1204 C1207 1.403 . S
H1205 C1211 0.930 . S
C1206 H1192 0.935 . S
C1206 C1204 1.395 . S
C1206 C1209 1.403 1_556 S
C1207 C1204 1.403 . S
C1207 C1208 1.524 . S
C1207 C1211 1.400 . S
C1208 H1193 0.960 . S
C1208 H1194 0.960 . S
C1208 H1195 0.960 . S
C1208 C1207 1.524 . S
C1209 C1206 1.403 1_554 S
C1209 C1210 1.392 . S
C1209 C1213 1.495 . S
C1210 C1209 1.392 . S
C1210 C1211 1.385 1_554 S
C1210 C1212 1.478 . S
C1211 H1205 0.930 . S
C1211 C1207 1.400 . S
C1211 C1210 1.385 1_556 S
C1212 C1210 1.478 . S
C1212 C1214 1.381 . S
C1212 C1218 1.383 . S
C1213 C1209 1.495 . S
C1213 H1219 0.959 . S
C1213 H1220 0.961 . S
C1213 H1221 0.960 . S
C1214 C1212 1.381 . S
C1214 C1215 1.394 . S
C1214 H1222 0.930 . S
C1215 C1214 1.394 . S
C1215 C1216 1.383 . S
C1215 H1223 0.929 . S
C1216 C1215 1.383 . S
C1216 C1217 1.377 . S
C1217 H1201 0.930 . S
C1217 C1216 1.377 . S
C1217 C1218 1.379 . S
C1218 H1202 0.931 . S
C1218 C1212 1.383 . S
C1218 C1217 1.379 . S
H1219 C1213 0.959 . S
H1220 C1213 0.961 . S
H1221 C1213 0.960 . S
H1222 C1214 0.930 . S
H1223 C1215 0.929 . S
H1224 C1232 0.929 . S
H1225 C1234 0.930 . S
H1226 C1236 0.930 . S
H1227 C1239 0.929 . S
H1228 C1242 0.930 . S
H1229 C1244 0.960 . S
H1230 C1244 0.960 . S
H1231 C1244 0.960 . S
C1232 H1224 0.929 . S
C1232 C1233 1.377 . S
C1232 C1234 1.384 . S
C1233 C1232 1.377 . S
C1233 C1239 1.390 . S
C1234 H1225 0.930 . S
C1234 C1232 1.384 . S
C1234 C1235 1.372 . S
C1235 C1234 1.372 . S
C1235 C1236 1.400 . S
C1235 C1240 1.490 . S
C1236 H1226 0.930 . S
C1236 C1235 1.400 . S
C1236 C1239 1.386 . S
H1237 C1253 0.930 . S
H1238 C1254 0.931 . S
C1239 H1227 0.929 . S
C1239 C1233 1.390 . S
C1239 C1236 1.386 . S
C1240 C1235 1.490 . S
C1240 C1242 1.395 . S
C1240 C1243 1.403 1_554 S
H1241 C1247 0.930 . S
C1242 H1228 0.930 . S
C1242 C1240 1.395 . S
C1242 C1245 1.403 . S
C1243 C1240 1.403 1_556 S
C1243 C1244 1.524 . S
C1243 C1247 1.400 . S
C1244 H1229 0.960 . S
C1244 H1230 0.960 . S
C1244 H1231 0.960 . S
C1244 C1243 1.524 . S
C1245 C1242 1.403 . S
C1245 C1246 1.392 1_554 S
C1245 C1249 1.495 . S
C1246 C1245 1.392 1_556 S
C1246 C1247 1.385 . S
C1246 C1248 1.478 . S
C1247 H1241 0.930 . S
C1247 C1243 1.400 . S
C1247 C1246 1.385 . S
C1248 C1246 1.478 . S
C1248 C1250 1.381 . S
C1248 C1254 1.383 . S
C1249 C1245 1.495 . S
C1249 H1255 0.959 . S
C1249 H1256 0.961 . S
C1249 H1257 0.960 . S
C1250 C1248 1.381 . S
C1250 C1251 1.394 . S
C1250 H1258 0.930 . S
C1251 C1250 1.394 . S
C1251 C1252 1.383 . S
C1251 H1259 0.929 . S
C1252 C1251 1.383 . S
C1252 C1253 1.377 . S
C1253 H1237 0.930 . S
C1253 C1252 1.377 . S
C1253 C1254 1.379 . S
C1254 H1238 0.931 . S
C1254 C1248 1.383 . S
C1254 C1253 1.379 . S
H1255 C1249 0.959 . S
H1256 C1249 0.961 . S
H1257 C1249 0.960 . S
H1258 C1250 0.930 . S
H1259 C1251 0.929 . S
H1260 C1268 0.929 . S
H1261 C1270 0.930 . S
H1262 C1272 0.930 . S
H1263 C1275 0.929 . S
H1264 C1278 0.930 . S
H1265 C1280 0.960 . S
H1266 C1280 0.960 . S
H1267 C1280 0.960 . S
C1268 H1260 0.929 . S
C1268 C1269 1.377 . S
C1268 C1270 1.384 1_655 S
C1269 C1268 1.377 . S
C1269 C1275 1.390 . S
C1270 H1261 0.930 . S
C1270 C1268 1.384 1_455 S
C1270 C1271 1.372 . S
C1271 C1270 1.372 . S
C1271 C1272 1.400 1_455 S
C1271 C1276 1.490 . S
C1272 H1262 0.930 . S
C1272 C1271 1.400 1_655 S
C1272 C1275 1.386 . S
H1273 C1289 0.930 . S
H1274 C1290 0.931 . S
C1275 H1263 0.929 . S
C1275 C1269 1.390 . S
C1275 C1272 1.386 . S
C1276 C1271 1.490 . S
C1276 C1278 1.395 . S
C1276 C1279 1.403 . S
H1277 C1283 0.930 . S
C1278 H1264 0.930 . S
C1278 C1276 1.395 . S
C1278 C1281 1.403 . S
C1279 C1276 1.403 . S
C1279 C1280 1.524 . S
C1279 C1283 1.400 . S
C1280 H1265 0.960 . S
C1280 H1266 0.960 . S
C1280 H1267 0.960 . S
C1280 C1279 1.524 . S
C1281 C1278 1.403 . S
C1281 C1282 1.392 . S
C1281 C1285 1.495 . S
C1282 C1281 1.392 . S
C1282 C1283 1.385 . S
C1282 C1284 1.478 . S
C1283 H1277 0.930 . S
C1283 C1279 1.400 . S
C1283 C1282 1.385 . S
C1284 C1282 1.478 . S
C1284 C1286 1.381 . S
C1284 C1290 1.383 . S
C1285 C1281 1.495 . S
C1285 H1291 0.959 . S
C1285 H1292 0.961 . S
C1285 H1293 0.960 . S
C1286 C1284 1.381 . S
C1286 C1287 1.394 . S
C1286 H1294 0.930 . S
C1287 C1286 1.394 . S
C1287 C1288 1.383 . S
C1287 H1295 0.929 . S
C1288 C1287 1.383 . S
C1288 C1289 1.377 . S
C1289 H1273 0.930 . S
C1289 C1288 1.377 . S
C1289 C1290 1.379 . S
C1290 H1274 0.931 . S
C1290 C1284 1.383 . S
C1290 C1289 1.379 . S
H1291 C1285 0.959 . S
H1292 C1285 0.961 . S
H1293 C1285 0.960 . S
H1294 C1286 0.930 . S
H1295 C1287 0.929 . S
H1296 C1304 0.929 . S
H1297 C1306 0.930 . S
H1298 C1308 0.930 . S
H1299 C1311 0.929 . S
H1300 C1314 0.930 . S
H1301 C1316 0.960 . S
H1302 C1316 0.960 . S
H1303 C1316 0.960 . S
C1304 H1296 0.929 . S
C1304 C1305 1.377 . S
C1304 C1306 1.384 . S
C1305 C1304 1.377 . S
C1305 C1311 1.390 . S
C1306 H1297 0.930 . S
C1306 C1304 1.384 . S
C1306 C1307 1.372 . S
C1307 C1306 1.372 . S
C1307 C1308 1.400 . S
C1307 C1312 1.490 . S
C1308 H1298 0.930 . S
C1308 C1307 1.400 . S
C1308 C1311 1.386 . S
H1309 C1325 0.930 . S
H1310 C1326 0.931 . S
C1311 H1299 0.929 . S
C1311 C1305 1.390 . S
C1311 C1308 1.386 . S
C1312 C1307 1.490 . S
C1312 C1314 1.395 . S
C1312 C1315 1.403 . S
H1313 C1319 0.930 . S
C1314 H1300 0.930 . S
C1314 C1312 1.395 . S
C1314 C1317 1.403 . S
C1315 C1312 1.403 . S
C1315 C1316 1.524 . S
C1315 C1319 1.400 . S
C1316 H1301 0.960 . S
C1316 H1302 0.960 . S
C1316 H1303 0.960 . S
C1316 C1315 1.524 . S
C1317 C1314 1.403 . S
C1317 C1318 1.392 . S
C1317 C1321 1.495 . S
C1318 C1317 1.392 . S
C1318 C1319 1.385 . S
C1318 C1320 1.478 . S
C1319 H1313 0.930 . S
C1319 C1315 1.400 . S
C1319 C1318 1.385 . S
C1320 C1318 1.478 . S
C1320 C1322 1.381 . S
C1320 C1326 1.383 . S
C1321 C1317 1.495 . S
C1321 H1327 0.959 . S
C1321 H1328 0.961 . S
C1321 H1329 0.960 . S
C1322 C1320 1.381 . S
C1322 C1323 1.394 . S
C1322 H1330 0.930 . S
C1323 C1322 1.394 . S
C1323 C1324 1.383 . S
C1323 H1331 0.929 . S
C1324 C1323 1.383 . S
C1324 C1325 1.377 . S
C1325 H1309 0.930 . S
C1325 C1324 1.377 . S
C1325 C1326 1.379 . S
C1326 H1310 0.931 . S
C1326 C1320 1.383 . S
C1326 C1325 1.379 . S
H1327 C1321 0.959 . S
H1328 C1321 0.961 . S
H1329 C1321 0.960 . S
H1330 C1322 0.930 . S
H1331 C1323 0.929 . S
H1332 C1340 0.929 . S
H1333 C1342 0.930 1_565 S
H1334 C1344 0.930 . S
H1335 C1347 0.929 . S
H1336 C1350 0.930 . S
H1337 C1352 0.960 . S
H1338 C1352 0.960 1_545 S
H1339 C1352 0.960 1_545 S
C1340 H1332 0.929 . S
C1340 C1341 1.377 . S
C1340 C1342 1.384 . S
C1341 C1340 1.377 . S
C1341 C1347 1.390 . S
C1342 H1333 0.930 1_545 S
C1342 C1340 1.384 . S
C1342 C1343 1.372 1_545 S
C1343 C1342 1.372 1_565 S
C1343 C1344 1.400 1_565 S
C1343 C1348 1.490 . S
C1344 H1334 0.930 . S
C1344 C1343 1.400 1_545 S
C1344 C1347 1.386 . S
H1345 C1361 0.930 . S
H1346 C1362 0.931 . S
C1347 H1335 0.929 . S
C1347 C1341 1.390 . S
C1347 C1344 1.386 . S
C1348 C1343 1.490 . S
C1348 C1350 1.395 . S
C1348 C1351 1.403 . S
H1349 C1355 0.930 . S
C1350 H1336 0.930 . S
C1350 C1348 1.395 . S
C1350 C1353 1.403 . S
C1351 C1348 1.403 . S
C1351 C1352 1.524 . S
C1351 C1355 1.400 . S
C1352 H1337 0.960 . S
C1352 H1338 0.960 1_565 S
C1352 H1339 0.960 1_565 S
C1352 C1351 1.524 . S
C1353 C1350 1.403 . S
C1353 C1354 1.392 . S
C1353 C1357 1.495 . S
C1354 C1353 1.392 . S
C1354 C1355 1.385 . S
C1354 C1356 1.478 . S
C1355 H1349 0.930 . S
C1355 C1351 1.400 . S
C1355 C1354 1.385 . S
C1356 C1354 1.478 . S
C1356 C1358 1.381 . S
C1356 C1362 1.383 . S
C1357 C1353 1.495 . S
C1357 H1363 0.959 . S
C1357 H1364 0.961 . S
C1357 H1365 0.960 . S
C1358 C1356 1.381 . S
C1358 C1359 1.394 . S
C1358 H1366 0.930 . S
C1359 C1358 1.394 . S
C1359 C1360 1.383 . S
C1359 H1367 0.929 . S
C1360 C1359 1.383 . S
C1360 C1361 1.377 . S
C1361 H1345 0.930 . S
C1361 C1360 1.377 . S
C1361 C1362 1.379 . S
C1362 H1346 0.931 . S
C1362 C1356 1.383 . S
C1362 C1361 1.379 . S
H1363 C1357 0.959 . S
H1364 C1357 0.961 . S
H1365 C1357 0.960 . S
H1366 C1358 0.930 . S
H1367 C1359 0.929 . S
H1368 C1376 0.929 . S
H1369 C1378 0.930 . S
H1370 C1380 0.904 1_554 S
H1371 C1383 0.929 . S
H1372 C1386 0.930 . S
H1373 C1388 0.960 . S
H1374 C1388 0.960 . S
H1375 C1388 0.960 . S
C1376 H1368 0.929 . S
C1376 C1377 1.377 . S
C1376 C1378 1.384 . S
C1377 C1376 1.377 . S
C1377 C1383 1.390 . S
C1378 H1369 0.930 . S
C1378 C1376 1.384 . S
C1378 C1379 1.372 . S
C1379 C1378 1.372 . S
C1379 C1380 1.400 . S
C1379 C1384 1.490 . S
C1380 H1370 0.904 1_556 S
C1380 C1379 1.400 . S
C1380 C1383 1.386 . S
H1381 C1397 0.930 . S
H1382 C1398 0.931 . S
C1383 H1371 0.929 . S
C1383 C1377 1.390 . S
C1383 C1380 1.386 . S
C1384 C1379 1.490 . S
C1384 C1386 1.395 1_556 S
C1384 C1387 1.403 1_556 S
H1385 C1391 0.930 . S
C1386 H1372 0.930 . S
C1386 C1384 1.395 1_554 S
C1386 C1389 1.403 . S
C1387 C1384 1.403 1_554 S
C1387 C1388 1.525 1_554 S
C1387 C1391 1.398 . S
C1388 H1373 0.960 . S
C1388 H1374 0.960 . S
C1388 H1375 0.960 . S
C1388 C1387 1.525 1_556 S
C1389 C1386 1.403 . S
C1389 C1390 1.392 . S
C1389 C1393 1.495 . S
C1390 C1389 1.392 . S
C1390 C1391 1.385 . S
C1390 C1392 1.478 . S
C1391 H1385 0.930 . S
C1391 C1387 1.398 . S
C1391 C1390 1.385 . S
C1392 C1390 1.478 . S
C1392 C1394 1.381 1_565 S
C1392 C1398 1.383 . S
C1393 C1389 1.495 . S
C1393 H1399 0.959 . S
C1393 H1400 0.961 . S
C1393 H1401 0.960 . S
C1394 C1392 1.381 1_545 S
C1394 C1395 1.394 . S
C1394 H1402 0.930 . S
C1395 C1394 1.394 . S
C1395 C1396 1.383 . S
C1395 H1403 0.929 . S
C1396 C1395 1.383 . S
C1396 C1397 1.377 . S
C1397 H1381 0.930 . S
C1397 C1396 1.377 . S
C1397 C1398 1.379 1_545 S
C1398 H1382 0.931 . S
C1398 C1392 1.383 . S
C1398 C1397 1.379 1_565 S
H1399 C1393 0.959 . S
H1400 C1393 0.961 . S
H1401 C1393 0.960 . S
H1402 C1394 0.930 . S
H1403 C1395 0.929 . S
H1404 C1412 0.929 . S
H1405 C1414 0.930 . S
H1406 C1416 0.930 1_554 S
H1407 C1419 0.929 . S
H1408 C1422 0.916 1_556 S
H1409 C1424 0.948 1_554 S
H1410 C1424 0.960 . S
H1411 C1424 0.972 . S
C1412 H1404 0.929 . S
C1412 C1413 1.377 . S
C1412 C1414 1.384 . S
C1413 C1412 1.377 . S
C1413 C1419 1.390 . S
C1414 H1405 0.930 . S
C1414 C1412 1.384 . S
C1414 C1415 1.372 . S
C1415 C1414 1.372 . S
C1415 C1416 1.400 . S
C1415 C1420 1.490 . S
C1416 H1406 0.930 1_556 S
C1416 C1415 1.400 . S
C1416 C1419 1.386 . S
H1417 C1433 0.930 . S
H1418 C1434 0.931 . S
C1419 H1407 0.929 . S
C1419 C1413 1.390 . S
C1419 C1416 1.386 . S
C1420 C1415 1.490 . S
C1420 C1422 1.395 1_556 S
C1420 C1423 1.403 1_556 S
H1421 C1427 0.930 . S
C1422 H1408 0.916 1_554 S
C1422 C1420 1.395 1_554 S
C1422 C1425 1.403 . S
C1423 C1420 1.403 1_554 S
C1423 C1424 1.524 1_554 S
C1423 C1427 1.400 . S
C1424 H1409 0.948 1_556 S
C1424 H1410 0.960 . S
C1424 H1411 0.972 . S
C1424 C1423 1.524 1_556 S
C1425 C1422 1.403 . S
C1425 C1426 1.392 . S
C1425 C1429 1.495 . S
C1426 C1425 1.392 . S
C1426 C1427 1.385 . S
C1426 C1428 1.478 . S
C1427 H1421 0.930 . S
C1427 C1423 1.400 . S
C1427 C1426 1.385 . S
C1428 C1426 1.478 . S
C1428 C1430 1.381 1_455 S
C1428 C1434 1.383 . S
C1429 C1425 1.495 . S
C1429 H1435 0.959 . S
C1429 H1436 0.961 . S
C1429 H1437 0.960 . S
C1430 C1428 1.381 1_655 S
C1430 C1431 1.394 . S
C1430 H1438 0.930 . S
C1431 C1430 1.394 . S
C1431 C1432 1.383 . S
C1431 H1439 0.929 . S
C1432 C1431 1.383 . S
C1432 C1433 1.377 . S
C1433 H1417 0.930 . S
C1433 C1432 1.377 . S
C1433 C1434 1.379 1_655 S
C1434 H1418 0.931 . S
C1434 C1428 1.383 . S
C1434 C1433 1.379 1_455 S
H1435 C1429 0.959 . S
H1436 C1429 0.961 . S
H1437 C1429 0.960 . S
H1438 C1430 0.930 . S
H1439 C1431 0.929 . S
H1440 C1448 0.929 . S
H1441 C1450 0.930 . S
H1442 C1452 0.930 1_554 S
H1443 C1455 0.929 . S
H1444 C1458 0.930 . S
H1445 C1460 0.960 . S
H1446 C1460 0.960 . S
H1447 C1460 0.960 . S
C1448 H1440 0.929 . S
C1448 C1449 1.377 . S
C1448 C1450 1.384 . S
C1449 C1448 1.377 . S
C1449 C1455 1.390 . S
C1450 H1441 0.930 . S
C1450 C1448 1.384 . S
C1450 C1451 1.372 . S
C1451 C1450 1.372 . S
C1451 C1452 1.400 . S
C1451 C1456 1.490 . S
C1452 H1442 0.930 1_556 S
C1452 C1451 1.400 . S
C1452 C1455 1.386 . S
H1453 C1469 0.930 . S
H1454 C1470 0.931 . S
C1455 H1443 0.929 . S
C1455 C1449 1.390 . S
C1455 C1452 1.386 . S
C1456 C1451 1.490 . S
C1456 C1458 1.395 . S
C1456 C1459 1.403 1_556 S
H1457 C1463 0.930 . S
C1458 H1444 0.930 . S
C1458 C1456 1.395 . S
C1458 C1461 1.403 . S
C1459 C1456 1.403 1_554 S
C1459 C1460 1.524 . S
C1459 C1463 1.400 . S
C1460 H1445 0.960 . S
C1460 H1446 0.960 . S
C1460 H1447 0.960 . S
C1460 C1459 1.524 . S
C1461 C1458 1.403 . S
C1461 C1462 1.392 1_556 S
C1461 C1465 1.495 . S
C1462 C1461 1.392 1_554 S
C1462 C1463 1.385 . S
C1462 C1464 1.478 . S
C1463 H1457 0.930 . S
C1463 C1459 1.400 . S
C1463 C1462 1.385 . S
C1464 C1462 1.478 . S
C1464 C1466 1.381 . S
C1464 C1470 1.383 . S
C1465 C1461 1.495 . S
C1465 H1471 0.959 . S
C1465 H1472 0.961 . S
C1465 H1473 0.960 . S
C1466 C1464 1.381 . S
C1466 C1467 1.394 . S
C1466 H1474 0.930 . S
C1467 C1466 1.394 . S
C1467 C1468 1.383 . S
C1467 H1475 0.929 . S
C1468 C1467 1.383 . S
C1468 C1469 1.377 . S
C1469 H1453 0.930 . S
C1469 C1468 1.377 . S
C1469 C1470 1.379 . S
C1470 H1454 0.931 . S
C1470 C1464 1.383 . S
C1470 C1469 1.379 . S
H1471 C1465 0.959 . S
H1472 C1465 0.961 . S
H1473 C1465 0.960 . S
H1474 C1466 0.930 . S
H1475 C1467 0.929 . S
H1476 C1484 0.929 . S
H1477 C1486 0.930 . S
H1478 C1488 0.930 . S
H1479 C1491 0.929 . S
H1480 C1494 0.930 . S
H1481 C1496 0.960 . S
H1482 C1496 0.960 . S
H1483 C1496 0.960 . S
C1484 H1476 0.929 . S
C1484 C1485 1.377 . S
C1484 C1486 1.384 . S
C1485 C1484 1.377 . S
C1485 C1491 1.390 . S
C1486 H1477 0.930 . S
C1486 C1484 1.384 . S
C1486 C1487 1.372 . S
C1487 C1486 1.372 . S
C1487 C1488 1.400 . S
C1487 C1492 1.490 . S
C1488 H1478 0.930 . S
C1488 C1487 1.400 . S
C1488 C1491 1.386 . S
H1489 C1505 0.930 . S
H1490 C1506 0.931 . S
C1491 H1479 0.929 . S
C1491 C1485 1.390 . S
C1491 C1488 1.386 . S
C1492 C1487 1.490 . S
C1492 C1494 1.395 . S
C1492 C1495 1.403 . S
H1493 C1499 0.930 . S
C1494 H1480 0.930 . S
C1494 C1492 1.395 . S
C1494 C1497 1.403 . S
C1495 C1492 1.403 . S
C1495 C1496 1.524 . S
C1495 C1499 1.400 . S
C1496 H1481 0.960 . S
C1496 H1482 0.960 . S
C1496 H1483 0.960 . S
C1496 C1495 1.524 . S
C1497 C1494 1.403 . S
C1497 C1498 1.392 . S
C1497 C1501 1.495 . S
C1498 C1497 1.392 . S
C1498 C1499 1.385 . S
C1498 C1500 1.478 . S
C1499 H1493 0.930 . S
C1499 C1495 1.400 . S
C1499 C1498 1.385 . S
C1500 C1498 1.478 . S
C1500 C1502 1.381 . S
C1500 C1506 1.383 1_655 S
C1501 C1497 1.495 . S
C1501 H1507 0.959 . S
C1501 H1508 0.961 . S
C1501 H1509 0.960 . S
C1502 C1500 1.381 . S
C1502 C1503 1.394 1_655 S
C1502 H1510 0.930 . S
C1503 C1502 1.394 1_455 S
C1503 C1504 1.383 . S
C1503 H1511 0.929 . S
C1504 C1503 1.383 . S
C1504 C1505 1.377 . S
C1505 H1489 0.930 . S
C1505 C1504 1.377 . S
C1505 C1506 1.379 . S
C1506 H1490 0.931 . S
C1506 C1500 1.383 1_455 S
C1506 C1505 1.379 . S
H1507 C1501 0.959 . S
H1508 C1501 0.961 . S
H1509 C1501 0.960 . S
H1510 C1502 0.930 . S
H1511 C1503 0.929 . S
H1512 C1520 0.929 . S
H1513 C1522 0.930 . S
H1514 C1524 0.930 . S
H1515 C1527 0.929 . S
H1516 C1530 0.930 . S
H1517 C1532 0.960 . S
H1518 C1532 0.960 . S
H1519 C1532 0.960 . S
C1520 H1512 0.929 . S
C1520 C1521 1.377 . S
C1520 C1522 1.384 . S
C1521 C1520 1.377 . S
C1521 C1527 1.390 . S
C1522 H1513 0.930 . S
C1522 C1520 1.384 . S
C1522 C1523 1.372 . S
C1523 C1522 1.372 . S
C1523 C1524 1.400 . S
C1523 C1528 1.490 . S
C1524 H1514 0.930 . S
C1524 C1523 1.400 . S
C1524 C1527 1.386 . S
H1525 C1541 0.930 . S
H1526 C1542 0.931 . S
C1527 H1515 0.929 . S
C1527 C1521 1.390 . S
C1527 C1524 1.386 . S
C1528 C1523 1.490 . S
C1528 C1530 1.395 . S
C1528 C1531 1.403 . S
H1529 C1535 0.930 . S
C1530 H1516 0.930 . S
C1530 C1528 1.395 . S
C1530 C1533 1.403 . S
C1531 C1528 1.403 . S
C1531 C1532 1.524 . S
C1531 C1535 1.400 . S
C1532 H1517 0.960 . S
C1532 H1518 0.960 . S
C1532 H1519 0.960 . S
C1532 C1531 1.524 . S
C1533 C1530 1.403 . S
C1533 C1534 1.392 . S
C1533 C1537 1.495 . S
C1534 C1533 1.392 . S
C1534 C1535 1.385 . S
C1534 C1536 1.478 . S
C1535 H1529 0.930 . S
C1535 C1531 1.400 . S
C1535 C1534 1.385 . S
C1536 C1534 1.478 . S
C1536 C1538 1.381 . S
C1536 C1542 1.383 . S
C1537 C1533 1.495 . S
C1537 H1543 0.959 . S
C1537 H1544 0.961 . S
C1537 H1545 0.960 . S
C1538 C1536 1.381 . S
C1538 C1539 1.394 . S
C1538 H1546 0.930 . S
C1539 C1538 1.394 . S
C1539 C1540 1.383 . S
C1539 H1547 0.929 . S
C1540 C1539 1.383 . S
C1540 C1541 1.377 . S
C1541 H1525 0.930 . S
C1541 C1540 1.377 . S
C1541 C1542 1.379 . S
C1542 H1526 0.931 . S
C1542 C1536 1.383 . S
C1542 C1541 1.379 . S
H1543 C1537 0.959 . S
H1544 C1537 0.961 . S
H1545 C1537 0.960 . S
H1546 C1538 0.930 . S
H1547 C1539 0.929 . S
H1548 C1556 0.929 . S
H1549 C1558 0.930 . S
H1550 C1560 0.926 1_545 S
H1551 C1563 0.929 . S
H1552 C1566 0.930 . S
H1553 C1568 0.960 . S
H1554 C1568 0.960 . S
H1555 C1568 0.960 . S
C1556 H1548 0.929 . S
C1556 C1557 1.377 . S
C1556 C1558 1.384 . S
C1557 C1556 1.377 . S
C1557 C1563 1.390 . S
C1558 H1549 0.930 . S
C1558 C1556 1.384 . S
C1558 C1559 1.372 1_565 S
C1559 C1558 1.372 1_545 S
C1559 C1560 1.387 1_545 S
C1559 C1564 1.490 . S
C1560 H1550 0.926 1_565 S
C1560 C1559 1.387 1_565 S
C1560 C1563 1.403 . S
H1561 C1577 0.930 . S
H1562 C1578 0.931 . S
C1563 H1551 0.929 . S
C1563 C1557 1.390 . S
C1563 C1560 1.403 . S
C1564 C1559 1.490 . S
C1564 C1566 1.395 . S
C1564 C1567 1.403 . S
H1565 C1571 0.930 . S
C1566 H1552 0.930 . S
C1566 C1564 1.395 . S
C1566 C1569 1.403 . S
C1567 C1564 1.403 . S
C1567 C1568 1.524 . S
C1567 C1571 1.400 . S
C1568 H1553 0.960 . S
C1568 H1554 0.960 . S
C1568 H1555 0.960 . S
C1568 C1567 1.524 . S
C1569 C1566 1.403 . S
C1569 C1570 1.392 . S
C1569 C1573 1.495 . S
C1570 C1569 1.392 . S
C1570 C1571 1.385 . S
C1570 C1572 1.478 . S
C1571 H1565 0.930 . S
C1571 C1567 1.400 . S
C1571 C1570 1.385 . S
C1572 C1570 1.478 . S
C1572 C1574 1.381 . S
C1572 C1578 1.383 . S
C1573 C1569 1.495 . S
C1573 H1579 0.959 . S
C1573 H1580 0.961 . S
C1573 H1581 0.960 . S
C1574 C1572 1.381 . S
C1574 C1575 1.394 . S
C1574 H1582 0.930 . S
C1575 C1574 1.394 . S
C1575 C1576 1.383 . S
C1575 H1583 0.929 . S
C1576 C1575 1.383 . S
C1576 C1577 1.377 . S
C1577 H1561 0.930 . S
C1577 C1576 1.377 . S
C1577 C1578 1.379 . S
C1578 H1562 0.931 . S
C1578 C1572 1.383 . S
C1578 C1577 1.379 . S
H1579 C1573 0.959 . S
H1580 C1573 0.961 . S
H1581 C1573 0.960 . S
H1582 C1574 0.930 . S
H1583 C1575 0.929 . S
H1584 C1592 0.929 . S
H1585 C1594 0.930 . S
H1586 C1596 0.930 . S
H1587 C1599 0.929 . S
H1588 C1602 0.930 . S
H1589 C1604 0.960 . S
H1590 C1604 0.960 . S
H1591 C1604 0.960 . S
C1592 H1584 0.929 . S
C1592 C1593 1.377 . S
C1592 C1594 1.384 . S
C1593 C1592 1.377 . S
C1593 C1599 1.390 . S
C1594 H1585 0.930 . S
C1594 C1592 1.384 . S
C1594 C1595 1.372 . S
C1595 C1594 1.372 . S
C1595 C1596 1.400 . S
C1595 C1600 1.490 . S
C1596 H1586 0.930 . S
C1596 C1595 1.400 . S
C1596 C1599 1.386 . S
H1597 C1613 0.930 . S
H1598 C1614 0.931 . S
C1599 H1587 0.929 . S
C1599 C1593 1.390 . S
C1599 C1596 1.386 . S
C1600 C1595 1.490 . S
C1600 C1602 1.395 . S
C1600 C1603 1.403 . S
H1601 C1607 0.930 . S
C1602 H1588 0.930 . S
C1602 C1600 1.395 . S
C1602 C1605 1.403 . S
C1603 C1600 1.403 . S
C1603 C1604 1.524 . S
C1603 C1607 1.400 . S
C1604 H1589 0.960 . S
C1604 H1590 0.960 . S
C1604 H1591 0.960 . S
C1604 C1603 1.524 . S
C1605 C1602 1.403 . S
C1605 C1606 1.392 . S
C1605 C1609 1.495 . S
C1606 C1605 1.392 . S
C1606 C1607 1.385 . S
C1606 C1608 1.478 . S
C1607 H1601 0.930 . S
C1607 C1603 1.400 . S
C1607 C1606 1.385 . S
C1608 C1606 1.478 . S
C1608 C1610 1.381 . S
C1608 C1614 1.383 . S
C1609 C1605 1.495 . S
C1609 H1615 0.959 . S
C1609 H1616 0.961 . S
C1609 H1617 0.960 . S
C1610 C1608 1.381 . S
C1610 C1611 1.394 . S
C1610 H1618 0.930 . S
C1611 C1610 1.394 . S
C1611 C1612 1.383 . S
C1611 H1619 0.929 . S
C1612 C1611 1.383 . S
C1612 C1613 1.377 . S
C1613 H1597 0.930 . S
C1613 C1612 1.377 . S
C1613 C1614 1.379 . S
C1614 H1598 0.931 . S
C1614 C1608 1.383 . S
C1614 C1613 1.379 . S
H1615 C1609 0.959 . S
H1616 C1609 0.961 . S
H1617 C1609 0.960 . S
H1618 C1610 0.930 . S
H1619 C1611 0.929 . S
H1620 C1628 0.929 . S
H1621 C1630 0.930 . S
H1622 C1632 0.930 . S
H1623 C1635 0.929 . S
H1624 C1638 0.930 . S
H1625 C1640 0.960 . S
H1626 C1640 0.960 . S
H1627 C1640 0.960 . S
C1628 H1620 0.929 . S
C1628 C1629 1.377 . S
C1628 C1630 1.384 . S
C1629 C1628 1.377 . S
C1629 C1635 1.390 . S
C1630 H1621 0.930 . S
C1630 C1628 1.384 . S
C1630 C1631 1.372 . S
C1631 C1630 1.372 . S
C1631 C1632 1.400 . S
C1631 C1636 1.490 . S
C1632 H1622 0.930 . S
C1632 C1631 1.400 . S
C1632 C1635 1.386 . S
H1633 C1649 0.930 . S
H1634 C1650 0.931 . S
C1635 H1623 0.929 . S
C1635 C1629 1.390 . S
C1635 C1632 1.386 . S
C1636 C1631 1.490 . S
C1636 C1638 1.395 . S
C1636 C1639 1.403 . S
H1637 C1643 0.930 . S
C1638 H1624 0.930 . S
C1638 C1636 1.395 . S
C1638 C1641 1.403 . S
C1639 C1636 1.403 . S
C1639 C1640 1.524 . S
C1639 C1643 1.400 . S
C1640 H1625 0.960 . S
C1640 H1626 0.960 . S
C1640 H1627 0.960 . S
C1640 C1639 1.524 . S
C1641 C1638 1.403 . S
C1641 C1642 1.392 . S
C1641 C1645 1.495 . S
C1642 C1641 1.392 . S
C1642 C1643 1.385 . S
C1642 C1644 1.478 . S
C1643 H1637 0.930 . S
C1643 C1639 1.400 . S
C1643 C1642 1.385 . S
C1644 C1642 1.478 . S
C1644 C1646 1.381 . S
C1644 C1650 1.383 . S
C1645 C1641 1.495 . S
C1645 H1651 0.959 . S
C1645 H1652 0.961 . S
C1645 H1653 0.960 . S
C1646 C1644 1.381 . S
C1646 C1647 1.394 . S
C1646 H1654 0.930 . S
C1647 C1646 1.394 . S
C1647 C1648 1.383 . S
C1647 H1655 0.929 . S
C1648 C1647 1.383 . S
C1648 C1649 1.377 . S
C1649 H1633 0.930 . S
C1649 C1648 1.377 . S
C1649 C1650 1.379 . S
C1650 H1634 0.931 . S
C1650 C1644 1.383 . S
C1650 C1649 1.379 . S
H1651 C1645 0.959 . S
H1652 C1645 0.961 . S
H1653 C1645 0.960 . S
H1654 C1646 0.930 . S
H1655 C1647 0.929 . S
H1656 C1664 0.929 . S
H1657 C1666 0.930 . S
H1658 C1668 0.930 . S
H1659 C1671 0.929 . S
H1660 C1674 0.930 . S
H1661 C1676 0.960 . S
H1662 C1676 0.960 . S
H1663 C1676 0.960 . S
C1664 H1656 0.929 . S
C1664 C1665 1.377 . S
C1664 C1666 1.384 . S
C1665 C1664 1.377 . S
C1665 C1671 1.390 . S
C1666 H1657 0.930 . S
C1666 C1664 1.384 . S
C1666 C1667 1.372 . S
C1667 C1666 1.372 . S
C1667 C1668 1.400 . S
C1667 C1672 1.490 . S
C1668 H1658 0.930 . S
C1668 C1667 1.400 . S
C1668 C1671 1.386 . S
H1669 C1685 0.930 . S
H1670 C1686 0.931 . S
C1671 H1659 0.929 . S
C1671 C1665 1.390 . S
C1671 C1668 1.386 . S
C1672 C1667 1.490 . S
C1672 C1674 1.395 . S
C1672 C1675 1.403 . S
H1673 C1679 0.930 . S
C1674 H1660 0.930 . S
C1674 C1672 1.395 . S
C1674 C1677 1.403 . S
C1675 C1672 1.403 . S
C1675 C1676 1.524 . S
C1675 C1679 1.400 . S
C1676 H1661 0.960 . S
C1676 H1662 0.960 . S
C1676 H1663 0.960 . S
C1676 C1675 1.524 . S
C1677 C1674 1.403 . S
C1677 C1678 1.392 . S
C1677 C1681 1.495 . S
C1678 C1677 1.392 . S
C1678 C1679 1.385 . S
C1678 C1680 1.478 . S
C1679 H1673 0.930 . S
C1679 C1675 1.400 . S
C1679 C1678 1.385 . S
C1680 C1678 1.478 . S
C1680 C1682 1.381 . S
C1680 C1686 1.383 . S
C1681 C1677 1.495 . S
C1681 H1687 0.959 . S
C1681 H1688 0.961 . S
C1681 H1689 0.960 . S
C1682 C1680 1.381 . S
C1682 C1683 1.394 . S
C1682 H1690 0.930 . S
C1683 C1682 1.394 . S
C1683 C1684 1.383 . S
C1683 H1691 0.929 . S
C1684 C1683 1.383 . S
C1684 C1685 1.377 . S
C1685 H1669 0.930 . S
C1685 C1684 1.377 . S
C1685 C1686 1.379 . S
C1686 H1670 0.931 . S
C1686 C1680 1.383 . S
C1686 C1685 1.379 . S
H1687 C1681 0.959 . S
H1688 C1681 0.961 . S
H1689 C1681 0.960 . S
H1690 C1682 0.930 . S
H1691 C1683 0.929 . S
H1692 C1700 0.929 . S
H1693 C1702 0.930 . S
H1694 C1704 0.930 . S
H1695 C1707 0.929 . S
H1696 C1710 0.930 . S
H1697 C1712 0.960 . S
H1698 C1712 0.960 . S
H1699 C1712 0.960 . S
C1700 H1692 0.929 . S
C1700 C1701 1.377 . S
C1700 C1702 1.384 . S
C1701 C1700 1.377 . S
C1701 C1707 1.390 . S
C1702 H1693 0.930 . S
C1702 C1700 1.384 . S
C1702 C1703 1.372 . S
C1703 C1702 1.372 . S
C1703 C1704 1.400 . S
C1703 C1708 1.490 . S
C1704 H1694 0.930 . S
C1704 C1703 1.400 . S
C1704 C1707 1.386 . S
H1705 C1721 0.930 . S
H1706 C1722 0.931 . S
C1707 H1695 0.929 . S
C1707 C1701 1.390 . S
C1707 C1704 1.386 . S
C1708 C1703 1.490 . S
C1708 C1710 1.395 . S
C1708 C1711 1.403 . S
H1709 C1715 0.930 . S
C1710 H1696 0.930 . S
C1710 C1708 1.395 . S
C1710 C1713 1.403 . S
C1711 C1708 1.403 . S
C1711 C1712 1.524 . S
C1711 C1715 1.400 . S
C1712 H1697 0.960 . S
C1712 H1698 0.960 . S
C1712 H1699 0.960 . S
C1712 C1711 1.524 . S
C1713 C1710 1.403 . S
C1713 C1714 1.392 . S
C1713 C1717 1.495 . S
C1714 C1713 1.392 . S
C1714 C1715 1.385 . S
C1714 C1716 1.478 . S
C1715 H1709 0.930 . S
C1715 C1711 1.400 . S
C1715 C1714 1.385 . S
C1716 C1714 1.478 . S
C1716 C1718 1.381 . S
C1716 C1722 1.383 . S
C1717 C1713 1.495 . S
C1717 H1723 0.959 . S
C1717 H1724 0.961 . S
C1717 H1725 0.960 . S
C1718 C1716 1.381 . S
C1718 C1719 1.394 . S
C1718 H1726 0.930 . S
C1719 C1718 1.394 . S
C1719 C1720 1.383 . S
C1719 H1727 0.929 . S
C1720 C1719 1.383 . S
C1720 C1721 1.377 . S
C1721 H1705 0.930 . S
C1721 C1720 1.377 . S
C1721 C1722 1.379 . S
C1722 H1706 0.931 . S
C1722 C1716 1.383 . S
C1722 C1721 1.379 . S
H1723 C1717 0.959 . S
H1724 C1717 0.961 . S
H1725 C1717 0.960 . S
H1726 C1718 0.930 . S
H1727 C1719 0.929 . S
H1728 C1736 0.929 . S
H1729 C1738 0.930 . S
H1730 C1740 0.930 . S
H1731 C1743 0.929 . S
H1732 C1746 0.930 . S
H1733 C1748 0.960 . S
H1734 C1748 0.960 . S
H1735 C1748 0.960 . S
C1736 H1728 0.929 . S
C1736 C1737 1.377 . S
C1736 C1738 1.384 . S
C1737 C1736 1.377 . S
C1737 C1743 1.390 . S
C1738 H1729 0.930 . S
C1738 C1736 1.384 . S
C1738 C1739 1.372 . S
C1739 C1738 1.372 . S
C1739 C1740 1.400 . S
C1739 C1744 1.490 . S
C1740 H1730 0.930 . S
C1740 C1739 1.400 . S
C1740 C1743 1.386 . S
H1741 C1757 0.930 . S
H1742 C1758 0.931 . S
C1743 H1731 0.929 . S
C1743 C1737 1.390 . S
C1743 C1740 1.386 . S
C1744 C1739 1.490 . S
C1744 C1746 1.395 . S
C1744 C1747 1.403 . S
H1745 C1751 0.930 . S
C1746 H1732 0.930 . S
C1746 C1744 1.395 . S
C1746 C1749 1.403 . S
C1747 C1744 1.403 . S
C1747 C1748 1.524 . S
C1747 C1751 1.400 . S
C1748 H1733 0.960 . S
C1748 H1734 0.960 . S
C1748 H1735 0.960 . S
C1748 C1747 1.524 . S
C1749 C1746 1.403 . S
C1749 C1750 1.392 . S
C1749 C1753 1.495 . S
C1750 C1749 1.392 . S
C1750 C1751 1.385 . S
C1750 C1752 1.478 . S
C1751 H1745 0.930 . S
C1751 C1747 1.400 . S
C1751 C1750 1.385 . S
C1752 C1750 1.478 . S
C1752 C1754 1.381 . S
C1752 C1758 1.383 . S
C1753 C1749 1.495 . S
C1753 H1759 0.959 . S
C1753 H1760 0.961 . S
C1753 H1761 0.960 . S
C1754 C1752 1.381 . S
C1754 C1755 1.394 . S
C1754 H1762 0.930 . S
C1755 C1754 1.394 . S
C1755 C1756 1.383 . S
C1755 H1763 0.929 . S
C1756 C1755 1.383 . S
C1756 C1757 1.377 . S
C1757 H1741 0.930 . S
C1757 C1756 1.377 . S
C1757 C1758 1.379 . S
C1758 H1742 0.931 . S
C1758 C1752 1.383 . S
C1758 C1757 1.379 . S
H1759 C1753 0.959 . S
H1760 C1753 0.961 . S
H1761 C1753 0.960 . S
H1762 C1754 0.930 . S
H1763 C1755 0.929 . S
H1764 C1772 0.929 . S
H1765 C1774 0.930 . S
H1766 C1776 0.930 . S
H1767 C1779 0.929 . S
H1768 C1782 0.930 . S
H1769 C1784 0.960 . S
H1770 C1784 0.960 . S
H1771 C1784 0.960 . S
C1772 H1764 0.929 . S
C1772 C1773 1.377 . S
C1772 C1774 1.384 . S
C1773 C1772 1.377 . S
C1773 C1779 1.390 . S
C1774 H1765 0.930 . S
C1774 C1772 1.384 . S
C1774 C1775 1.372 . S
C1775 C1774 1.372 . S
C1775 C1776 1.400 . S
C1775 C1780 1.490 . S
C1776 H1766 0.930 . S
C1776 C1775 1.400 . S
C1776 C1779 1.386 . S
H1777 C1793 0.930 . S
H1778 C1794 0.931 . S
C1779 H1767 0.929 . S
C1779 C1773 1.390 . S
C1779 C1776 1.386 . S
C1780 C1775 1.490 . S
C1780 C1782 1.395 . S
C1780 C1783 1.403 . S
H1781 C1787 0.930 . S
C1782 H1768 0.930 . S
C1782 C1780 1.395 . S
C1782 C1785 1.403 . S
C1783 C1780 1.403 . S
C1783 C1784 1.524 . S
C1783 C1787 1.400 . S
C1784 H1769 0.960 . S
C1784 H1770 0.960 . S
C1784 H1771 0.960 . S
C1784 C1783 1.524 . S
C1785 C1782 1.403 . S
C1785 C1786 1.392 . S
C1785 C1789 1.495 . S
C1786 C1785 1.392 . S
C1786 C1787 1.385 . S
C1786 C1788 1.478 . S
C1787 H1781 0.930 . S
C1787 C1783 1.400 . S
C1787 C1786 1.385 . S
C1788 C1786 1.478 . S
C1788 C1790 1.381 . S
C1788 C1794 1.383 . S
C1789 C1785 1.495 . S
C1789 H1795 0.959 . S
C1789 H1796 0.961 . S
C1789 H1797 0.960 . S
C1790 C1788 1.381 . S
C1790 C1791 1.394 . S
C1790 H1798 0.930 . S
C1791 C1790 1.394 . S
C1791 C1792 1.383 . S
C1791 H1799 0.929 . S
C1792 C1791 1.383 . S
C1792 C1793 1.377 . S
C1793 H1777 0.930 . S
C1793 C1792 1.377 . S
C1793 C1794 1.379 . S
C1794 H1778 0.931 . S
C1794 C1788 1.383 . S
C1794 C1793 1.379 . S
H1795 C1789 0.959 . S
H1796 C1789 0.961 . S
H1797 C1789 0.960 . S
H1798 C1790 0.930 . S
H1799 C1791 0.929 . S
H1800 C1808 0.929 . S
H1801 C1810 0.930 . S
H1802 C1812 0.930 . S
H1803 C1815 0.929 . S
H1804 C1818 0.930 . S
H1805 C1820 0.960 . S
H1806 C1820 0.960 . S
H1807 C1820 0.960 . S
C1808 H1800 0.929 . S
C1808 C1809 1.377 . S
C1808 C1810 1.384 . S
C1809 C1808 1.377 . S
C1809 C1815 1.390 . S
C1810 H1801 0.930 . S
C1810 C1808 1.384 . S
C1810 C1811 1.372 . S
C1811 C1810 1.372 . S
C1811 C1812 1.400 . S
C1811 C1816 1.490 . S
C1812 H1802 0.930 . S
C1812 C1811 1.400 . S
C1812 C1815 1.386 . S
H1813 C1829 0.930 . S
H1814 C1830 0.931 . S
C1815 H1803 0.929 . S
C1815 C1809 1.390 . S
C1815 C1812 1.386 . S
C1816 C1811 1.490 . S
C1816 C1818 1.395 . S
C1816 C1819 1.403 . S
H1817 C1823 0.930 . S
C1818 H1804 0.930 . S
C1818 C1816 1.395 . S
C1818 C1821 1.403 . S
C1819 C1816 1.403 . S
C1819 C1820 1.524 . S
C1819 C1823 1.400 . S
C1820 H1805 0.960 . S
C1820 H1806 0.960 . S
C1820 H1807 0.960 . S
C1820 C1819 1.524 . S
C1821 C1818 1.403 . S
C1821 C1822 1.392 . S
C1821 C1825 1.495 . S
C1822 C1821 1.392 . S
C1822 C1823 1.385 . S
C1822 C1824 1.478 . S
C1823 H1817 0.930 . S
C1823 C1819 1.400 . S
C1823 C1822 1.385 . S
C1824 C1822 1.478 . S
C1824 C1826 1.381 . S
C1824 C1830 1.383 . S
C1825 C1821 1.495 . S
C1825 H1831 0.959 . S
C1825 H1832 0.961 . S
C1825 H1833 0.960 . S
C1826 C1824 1.381 . S
C1826 C1827 1.394 . S
C1826 H1834 0.930 . S
C1827 C1826 1.394 . S
C1827 C1828 1.383 . S
C1827 H1835 0.929 . S
C1828 C1827 1.383 . S
C1828 C1829 1.377 . S
C1829 H1813 0.930 . S
C1829 C1828 1.377 . S
C1829 C1830 1.379 . S
C1830 H1814 0.931 . S
C1830 C1824 1.383 . S
C1830 C1829 1.379 . S
H1831 C1825 0.959 . S
H1832 C1825 0.961 . S
H1833 C1825 0.960 . S
H1834 C1826 0.930 . S
H1835 C1827 0.929 . S
H1836 C1844 0.929 . S
H1837 C1846 0.930 . S
H1838 C1848 0.930 . S
H1839 C1851 0.929 . S
H1840 C1854 0.930 . S
H1841 C1856 0.960 . S
H1842 C1856 0.960 . S
H1843 C1856 0.960 . S
C1844 H1836 0.929 . S
C1844 C1845 1.377 . S
C1844 C1846 1.384 . S
C1845 C1844 1.377 . S
C1845 C1851 1.390 . S
C1846 H1837 0.930 . S
C1846 C1844 1.384 . S
C1846 C1847 1.372 . S
C1847 C1846 1.372 . S
C1847 C1848 1.400 . S
C1847 C1852 1.490 . S
C1848 H1838 0.930 . S
C1848 C1847 1.400 . S
C1848 C1851 1.386 . S
H1849 C1865 0.930 . S
H1850 C1866 0.931 . S
C1851 H1839 0.929 . S
C1851 C1845 1.390 . S
C1851 C1848 1.386 . S
C1852 C1847 1.490 . S
C1852 C1854 1.395 . S
C1852 C1855 1.403 . S
H1853 C1859 0.930 . S
C1854 H1840 0.930 . S
C1854 C1852 1.395 . S
C1854 C1857 1.403 . S
C1855 C1852 1.403 . S
C1855 C1856 1.524 . S
C1855 C1859 1.400 . S
C1856 H1841 0.960 . S
C1856 H1842 0.960 . S
C1856 H1843 0.960 . S
C1856 C1855 1.524 . S
C1857 C1854 1.403 . S
C1857 C1858 1.392 . S
C1857 C1861 1.495 . S
C1858 C1857 1.392 . S
C1858 C1859 1.385 . S
C1858 C1860 1.478 . S
C1859 H1853 0.930 . S
C1859 C1855 1.400 . S
C1859 C1858 1.385 . S
C1860 C1858 1.478 . S
C1860 C1862 1.381 . S
C1860 C1866 1.383 . S
C1861 C1857 1.495 . S
C1861 H1867 0.959 . S
C1861 H1868 0.961 . S
C1861 H1869 0.960 . S
C1862 C1860 1.381 . S
C1862 C1863 1.394 . S
C1862 H1870 0.930 . S
C1863 C1862 1.394 . S
C1863 C1864 1.383 . S
C1863 H1871 0.929 . S
C1864 C1863 1.383 . S
C1864 C1865 1.377 . S
C1865 H1849 0.930 . S
C1865 C1864 1.377 . S
C1865 C1866 1.379 . S
C1866 H1850 0.931 . S
C1866 C1860 1.383 . S
C1866 C1865 1.379 . S
H1867 C1861 0.959 . S
H1868 C1861 0.961 . S
H1869 C1861 0.960 . S
H1870 C1862 0.930 . S
H1871 C1863 0.929 . S
H1872 C1880 0.929 . S
H1873 C1882 0.930 . S
H1874 C1884 0.930 . S
H1875 C1887 0.929 . S
H1876 C1890 0.930 . S
H1877 C1892 0.960 . S
H1878 C1892 0.960 . S
H1879 C1892 0.960 . S
C1880 H1872 0.929 . S
C1880 C1881 1.377 . S
C1880 C1882 1.384 . S
C1881 C1880 1.377 . S
C1881 C1887 1.390 . S
C1882 H1873 0.930 . S
C1882 C1880 1.384 . S
C1882 C1883 1.372 . S
C1883 C1882 1.372 . S
C1883 C1884 1.400 . S
C1883 C1888 1.490 . S
C1884 H1874 0.930 . S
C1884 C1883 1.400 . S
C1884 C1887 1.386 . S
H1885 C1901 0.930 . S
H1886 C1902 0.931 . S
C1887 H1875 0.929 . S
C1887 C1881 1.390 . S
C1887 C1884 1.386 . S
C1888 C1883 1.490 . S
C1888 C1890 1.395 . S
C1888 C1891 1.403 . S
H1889 C1895 0.930 . S
C1890 H1876 0.930 . S
C1890 C1888 1.395 . S
C1890 C1893 1.403 . S
C1891 C1888 1.403 . S
C1891 C1892 1.524 . S
C1891 C1895 1.400 . S
C1892 H1877 0.960 . S
C1892 H1878 0.960 . S
C1892 H1879 0.960 . S
C1892 C1891 1.524 . S
C1893 C1890 1.403 . S
C1893 C1894 1.392 . S
C1893 C1897 1.495 . S
C1894 C1893 1.392 . S
C1894 C1895 1.385 . S
C1894 C1896 1.478 . S
C1895 H1889 0.930 . S
C1895 C1891 1.400 . S
C1895 C1894 1.385 . S
C1896 C1894 1.478 . S
C1896 C1898 1.381 . S
C1896 C1902 1.383 . S
C1897 C1893 1.495 . S
C1897 H1903 0.959 . S
C1897 H1904 0.961 . S
C1897 H1905 0.960 . S
C1898 C1896 1.381 . S
C1898 C1899 1.394 . S
C1898 H1906 0.930 . S
C1899 C1898 1.394 . S
C1899 C1900 1.383 . S
C1899 H1907 0.929 . S
C1900 C1899 1.383 . S
C1900 C1901 1.377 . S
C1901 H1885 0.930 . S
C1901 C1900 1.377 . S
C1901 C1902 1.379 . S
C1902 H1886 0.931 . S
C1902 C1896 1.383 . S
C1902 C1901 1.379 . S
H1903 C1897 0.959 . S
H1904 C1897 0.961 . S
H1905 C1897 0.960 . S
H1906 C1898 0.930 . S
H1907 C1899 0.929 . S
H1908 C1916 0.929 . S
H1909 C1918 0.930 . S
H1910 C1920 0.930 . S
H1911 C1923 0.929 . S
H1912 C1926 0.930 . S
H1913 C1928 0.960 . S
H1914 C1928 0.960 . S
H1915 C1928 0.960 . S
C1916 H1908 0.929 . S
C1916 C1917 1.377 . S
C1916 C1918 1.384 . S
C1917 C1916 1.377 . S
C1917 C1923 1.390 . S
C1918 H1909 0.930 . S
C1918 C1916 1.384 . S
C1918 C1919 1.372 . S
C1919 C1918 1.372 . S
C1919 C1920 1.400 . S
C1919 C1924 1.490 . S
C1920 H1910 0.930 . S
C1920 C1919 1.400 . S
C1920 C1923 1.386 . S
H1921 C1937 0.930 . S
H1922 C1938 0.931 . S
C1923 H1911 0.929 . S
C1923 C1917 1.390 . S
C1923 C1920 1.386 . S
C1924 C1919 1.490 . S
C1924 C1926 1.395 . S
C1924 C1927 1.403 . S
H1925 C1931 0.930 . S
C1926 H1912 0.930 . S
C1926 C1924 1.395 . S
C1926 C1929 1.403 . S
C1927 C1924 1.403 . S
C1927 C1928 1.524 . S
C1927 C1931 1.400 . S
C1928 H1913 0.960 . S
C1928 H1914 0.960 . S
C1928 H1915 0.960 . S
C1928 C1927 1.524 . S
C1929 C1926 1.403 . S
C1929 C1930 1.392 . S
C1929 C1933 1.495 . S
C1930 C1929 1.392 . S
C1930 C1931 1.385 . S
C1930 C1932 1.478 . S
C1931 H1925 0.930 . S
C1931 C1927 1.400 . S
C1931 C1930 1.385 . S
C1932 C1930 1.478 . S
C1932 C1934 1.381 . S
C1932 C1938 1.383 . S
C1933 C1929 1.495 . S
C1933 H1939 0.959 . S
C1933 H1940 0.961 . S
C1933 H1941 0.960 . S
C1934 C1932 1.381 . S
C1934 C1935 1.394 . S
C1934 H1942 0.930 . S
C1935 C1934 1.394 . S
C1935 C1936 1.383 . S
C1935 H1943 0.929 . S
C1936 C1935 1.383 . S
C1936 C1937 1.377 . S
C1937 H1921 0.930 . S
C1937 C1936 1.377 . S
C1937 C1938 1.379 . S
C1938 H1922 0.931 . S
C1938 C1932 1.383 . S
C1938 C1937 1.379 . S
H1939 C1933 0.959 . S
H1940 C1933 0.961 . S
H1941 C1933 0.960 . S
H1942 C1934 0.930 . S
H1943 C1935 0.929 . S
H1944 C1952 0.929 . S
H1945 C1954 0.930 . S
H1946 C1956 0.930 . S
H1947 C1959 0.929 . S
H1948 C1962 0.930 . S
H1949 C1964 0.960 . S
H1950 C1964 0.960 . S
H1951 C1964 0.960 . S
C1952 H1944 0.929 . S
C1952 C1953 1.377 . S
C1952 C1954 1.384 . S
C1953 C1952 1.377 . S
C1953 C1959 1.390 . S
C1954 H1945 0.930 . S
C1954 C1952 1.384 . S
C1954 C1955 1.372 . S
C1955 C1954 1.372 . S
C1955 C1956 1.400 . S
C1955 C1960 1.490 . S
C1956 H1946 0.930 . S
C1956 C1955 1.400 . S
C1956 C1959 1.386 . S
H1957 C1973 0.930 . S
H1958 C1974 0.931 . S
C1959 H1947 0.929 . S
C1959 C1953 1.390 . S
C1959 C1956 1.386 . S
C1960 C1955 1.490 . S
C1960 C1962 1.395 . S
C1960 C1963 1.403 . S
H1961 C1967 0.930 . S
C1962 H1948 0.930 . S
C1962 C1960 1.395 . S
C1962 C1965 1.403 . S
C1963 C1960 1.403 . S
C1963 C1964 1.524 . S
C1963 C1967 1.400 . S
C1964 H1949 0.960 . S
C1964 H1950 0.960 . S
C1964 H1951 0.960 . S
C1964 C1963 1.524 . S
C1965 C1962 1.403 . S
C1965 C1966 1.392 . S
C1965 C1969 1.495 . S
C1966 C1965 1.392 . S
C1966 C1967 1.385 . S
C1966 C1968 1.478 . S
C1967 H1961 0.930 . S
C1967 C1963 1.400 . S
C1967 C1966 1.385 . S
C1968 C1966 1.478 . S
C1968 C1970 1.381 . S
C1968 C1974 1.383 . S
C1969 C1965 1.495 . S
C1969 H1975 0.959 . S
C1969 H1976 0.961 . S
C1969 H1977 0.960 . S
C1970 C1968 1.381 . S
C1970 C1971 1.394 . S
C1970 H1978 0.930 . S
C1971 C1970 1.394 . S
C1971 C1972 1.383 . S
C1971 H1979 0.929 . S
C1972 C1971 1.383 . S
C1972 C1973 1.377 . S
C1973 H1957 0.930 . S
C1973 C1972 1.377 . S
C1973 C1974 1.379 . S
C1974 H1958 0.931 . S
C1974 C1968 1.383 . S
C1974 C1973 1.379 . S
H1975 C1969 0.959 . S
H1976 C1969 0.961 . S
H1977 C1969 0.960 . S
H1978 C1970 0.930 . S
H1979 C1971 0.929 . S
H1980 C1988 0.929 . S
H1981 C1990 0.930 . S
H1982 C1992 0.930 . S
H1983 C1995 0.929 . S
H1984 C1998 0.930 . S
H1985 C2000 0.960 . S
H1986 C2000 0.960 . S
H1987 C2000 0.960 . S
C1988 H1980 0.929 . S
C1988 C1989 1.377 . S
C1988 C1990 1.384 . S
C1989 C1988 1.377 . S
C1989 C1995 1.390 . S
C1990 H1981 0.930 . S
C1990 C1988 1.384 . S
C1990 C1991 1.372 . S
C1991 C1990 1.372 . S
C1991 C1992 1.400 . S
C1991 C1996 1.490 . S
C1992 H1982 0.930 . S
C1992 C1991 1.400 . S
C1992 C1995 1.386 . S
H1993 C2009 0.930 . S
H1994 C2010 0.931 . S
C1995 H1983 0.929 . S
C1995 C1989 1.390 . S
C1995 C1992 1.386 . S
C1996 C1991 1.490 . S
C1996 C1998 1.395 . S
C1996 C1999 1.403 . S
H1997 C2003 0.930 . S
C1998 H1984 0.930 . S
C1998 C1996 1.395 . S
C1998 C2001 1.403 . S
C1999 C1996 1.403 . S
C1999 C2000 1.524 . S
C1999 C2003 1.400 . S
C2000 H1985 0.960 . S
C2000 H1986 0.960 . S
C2000 H1987 0.960 . S
C2000 C1999 1.524 . S
C2001 C1998 1.403 . S
C2001 C2002 1.392 . S
C2001 C2005 1.495 . S
C2002 C2001 1.392 . S
C2002 C2003 1.385 . S
C2002 C2004 1.478 . S
C2003 H1997 0.930 . S
C2003 C1999 1.400 . S
C2003 C2002 1.385 . S
C2004 C2002 1.478 . S
C2004 C2006 1.381 . S
C2004 C2010 1.383 . S
C2005 C2001 1.495 . S
C2005 H2011 0.959 . S
C2005 H2012 0.961 . S
C2005 H2013 0.960 . S
C2006 C2004 1.381 . S
C2006 C2007 1.394 . S
C2006 H2014 0.930 . S
C2007 C2006 1.394 . S
C2007 C2008 1.383 . S
C2007 H2015 0.929 . S
C2008 C2007 1.383 . S
C2008 C2009 1.377 . S
C2009 H1993 0.930 . S
C2009 C2008 1.377 . S
C2009 C2010 1.379 . S
C2010 H1994 0.931 . S
C2010 C2004 1.383 . S
C2010 C2009 1.379 . S
H2011 C2005 0.959 . S
H2012 C2005 0.961 . S
H2013 C2005 0.960 . S
H2014 C2006 0.930 . S
H2015 C2007 0.929 . S
H2016 C2024 0.929 . S
H2017 C2026 0.930 . S
H2018 C2028 0.930 . S
H2019 C2031 0.929 . S
H2020 C2034 0.930 . S
H2021 C2036 0.960 . S
H2022 C2036 0.960 . S
H2023 C2036 0.960 . S
C2024 H2016 0.929 . S
C2024 C2025 1.377 . S
C2024 C2026 1.384 . S
C2025 C2024 1.377 . S
C2025 C2031 1.390 . S
C2026 H2017 0.930 . S
C2026 C2024 1.384 . S
C2026 C2027 1.372 . S
C2027 C2026 1.372 . S
C2027 C2028 1.400 . S
C2027 C2032 1.490 . S
C2028 H2018 0.930 . S
C2028 C2027 1.400 . S
C2028 C2031 1.386 . S
H2029 C2045 0.930 . S
H2030 C2046 0.931 . S
C2031 H2019 0.929 . S
C2031 C2025 1.390 . S
C2031 C2028 1.386 . S
C2032 C2027 1.490 . S
C2032 C2034 1.395 . S
C2032 C2035 1.403 . S
H2033 C2039 0.930 . S
C2034 H2020 0.930 . S
C2034 C2032 1.395 . S
C2034 C2037 1.403 . S
C2035 C2032 1.403 . S
C2035 C2036 1.524 . S
C2035 C2039 1.400 . S
C2036 H2021 0.960 . S
C2036 H2022 0.960 . S
C2036 H2023 0.960 . S
C2036 C2035 1.524 . S
C2037 C2034 1.403 . S
C2037 C2038 1.392 . S
C2037 C2041 1.495 . S
C2038 C2037 1.392 . S
C2038 C2039 1.385 . S
C2038 C2040 1.478 . S
C2039 H2033 0.930 . S
C2039 C2035 1.400 . S
C2039 C2038 1.385 . S
C2040 C2038 1.478 . S
C2040 C2042 1.381 . S
C2040 C2046 1.383 . S
C2041 C2037 1.495 . S
C2041 H2047 0.959 . S
C2041 H2048 0.961 . S
C2041 H2049 0.960 . S
C2042 C2040 1.381 . S
C2042 C2043 1.394 . S
C2042 H2050 0.930 . S
C2043 C2042 1.394 . S
C2043 C2044 1.383 . S
C2043 H2051 0.929 . S
C2044 C2043 1.383 . S
C2044 C2045 1.377 . S
C2045 H2029 0.930 . S
C2045 C2044 1.377 . S
C2045 C2046 1.379 . S
C2046 H2030 0.931 . S
C2046 C2040 1.383 . S
C2046 C2045 1.379 . S
H2047 C2041 0.959 . S
H2048 C2041 0.961 . S
H2049 C2041 0.960 . S
H2050 C2042 0.930 . S
H2051 C2043 0.929 . S
H2052 C2060 0.929 . S
H2053 C2062 0.930 . S
H2054 C2064 0.930 . S
H2055 C2067 0.929 . S
H2056 C2070 0.930 . S
H2057 C2072 0.960 . S
H2058 C2072 0.960 . S
H2059 C2072 0.960 . S
C2060 H2052 0.929 . S
C2060 C2061 1.377 . S
C2060 C2062 1.384 . S
C2061 C2060 1.377 . S
C2061 C2067 1.390 . S
C2062 H2053 0.930 . S
C2062 C2060 1.384 . S
C2062 C2063 1.372 . S
C2063 C2062 1.372 . S
C2063 C2064 1.400 . S
C2063 C2068 1.490 . S
C2064 H2054 0.930 . S
C2064 C2063 1.400 . S
C2064 C2067 1.386 . S
H2065 C2081 0.930 . S
H2066 C2082 0.931 . S
C2067 H2055 0.929 . S
C2067 C2061 1.390 . S
C2067 C2064 1.386 . S
C2068 C2063 1.490 . S
C2068 C2070 1.395 . S
C2068 C2071 1.403 . S
H2069 C2075 0.930 . S
C2070 H2056 0.930 . S
C2070 C2068 1.395 . S
C2070 C2073 1.403 . S
C2071 C2068 1.403 . S
C2071 C2072 1.524 . S
C2071 C2075 1.400 . S
C2072 H2057 0.960 . S
C2072 H2058 0.960 . S
C2072 H2059 0.960 . S
C2072 C2071 1.524 . S
C2073 C2070 1.403 . S
C2073 C2074 1.392 . S
C2073 C2077 1.495 . S
C2074 C2073 1.392 . S
C2074 C2075 1.385 . S
C2074 C2076 1.478 . S
C2075 H2069 0.930 . S
C2075 C2071 1.400 . S
C2075 C2074 1.385 . S
C2076 C2074 1.478 . S
C2076 C2078 1.381 . S
C2076 C2082 1.383 . S
C2077 C2073 1.495 . S
C2077 H2083 0.959 . S
C2077 H2084 0.961 . S
C2077 H2085 0.960 . S
C2078 C2076 1.381 . S
C2078 C2079 1.394 . S
C2078 H2086 0.930 . S
C2079 C2078 1.394 . S
C2079 C2080 1.383 . S
C2079 H2087 0.929 . S
C2080 C2079 1.383 . S
C2080 C2081 1.377 . S
C2081 H2065 0.930 . S
C2081 C2080 1.377 . S
C2081 C2082 1.379 . S
C2082 H2066 0.931 . S
C2082 C2076 1.383 . S
C2082 C2081 1.379 . S
H2083 C2077 0.959 . S
H2084 C2077 0.961 . S
H2085 C2077 0.960 . S
H2086 C2078 0.930 . S
H2087 C2079 0.929 . S
H2088 C2096 0.929 . S
H2089 C2098 0.930 . S
H2090 C2100 0.930 . S
H2091 C2103 0.929 . S
H2092 C2106 0.930 . S
H2093 C2108 0.960 . S
H2094 C2108 0.960 . S
H2095 C2108 0.960 . S
C2096 H2088 0.929 . S
C2096 C2097 1.377 . S
C2096 C2098 1.384 . S
C2097 C2096 1.377 . S
C2097 C2103 1.390 . S
C2098 H2089 0.930 . S
C2098 C2096 1.384 . S
C2098 C2099 1.372 . S
C2099 C2098 1.372 . S
C2099 C2100 1.400 . S
C2099 C2104 1.490 . S
C2100 H2090 0.930 . S
C2100 C2099 1.400 . S
C2100 C2103 1.386 . S
H2101 C2117 0.930 . S
H2102 C2118 0.931 . S
C2103 H2091 0.929 . S
C2103 C2097 1.390 . S
C2103 C2100 1.386 . S
C2104 C2099 1.490 . S
C2104 C2106 1.395 . S
C2104 C2107 1.403 . S
H2105 C2111 0.930 . S
C2106 H2092 0.930 . S
C2106 C2104 1.395 . S
C2106 C2109 1.403 . S
C2107 C2104 1.403 . S
C2107 C2108 1.524 . S
C2107 C2111 1.400 . S
C2108 H2093 0.960 . S
C2108 H2094 0.960 . S
C2108 H2095 0.960 . S
C2108 C2107 1.524 . S
C2109 C2106 1.403 . S
C2109 C2110 1.392 . S
C2109 C2113 1.495 . S
C2110 C2109 1.392 . S
C2110 C2111 1.385 . S
C2110 C2112 1.478 . S
C2111 H2105 0.930 . S
C2111 C2107 1.400 . S
C2111 C2110 1.385 . S
C2112 C2110 1.478 . S
C2112 C2114 1.381 . S
C2112 C2118 1.383 . S
C2113 C2109 1.495 . S
C2113 H2119 0.959 . S
C2113 H2120 0.961 . S
C2113 H2121 0.960 . S
C2114 C2112 1.381 . S
C2114 C2115 1.394 . S
C2114 H2122 0.930 . S
C2115 C2114 1.394 . S
C2115 C2116 1.383 . S
C2115 H2123 0.929 . S
C2116 C2115 1.383 . S
C2116 C2117 1.377 . S
C2117 H2101 0.930 . S
C2117 C2116 1.377 . S
C2117 C2118 1.379 . S
C2118 H2102 0.931 . S
C2118 C2112 1.383 . S
C2118 C2117 1.379 . S
H2119 C2113 0.959 . S
H2120 C2113 0.961 . S
H2121 C2113 0.960 . S
H2122 C2114 0.930 . S
H2123 C2115 0.929 . S
H2124 C2132 0.929 . S
H2125 C2134 0.930 . S
H2126 C2136 0.930 . S
H2127 C2139 0.929 . S
H2128 C2142 0.930 . S
H2129 C2144 0.960 . S
H2130 C2144 0.960 . S
H2131 C2144 0.960 . S
C2132 H2124 0.929 . S
C2132 C2133 1.377 . S
C2132 C2134 1.384 . S
C2133 C2132 1.377 . S
C2133 C2139 1.390 . S
C2134 H2125 0.930 . S
C2134 C2132 1.384 . S
C2134 C2135 1.372 . S
C2135 C2134 1.372 . S
C2135 C2136 1.400 . S
C2135 C2140 1.490 . S
C2136 H2126 0.930 . S
C2136 C2135 1.400 . S
C2136 C2139 1.386 . S
H2137 C2153 0.930 . S
H2138 C2154 0.931 . S
C2139 H2127 0.929 . S
C2139 C2133 1.390 . S
C2139 C2136 1.386 . S
C2140 C2135 1.490 . S
C2140 C2142 1.395 . S
C2140 C2143 1.403 . S
H2141 C2147 0.930 . S
C2142 H2128 0.930 . S
C2142 C2140 1.395 . S
C2142 C2145 1.403 . S
C2143 C2140 1.403 . S
C2143 C2144 1.524 . S
C2143 C2147 1.400 . S
C2144 H2129 0.960 . S
C2144 H2130 0.960 . S
C2144 H2131 0.960 . S
C2144 C2143 1.524 . S
C2145 C2142 1.403 . S
C2145 C2146 1.392 . S
C2145 C2149 1.495 . S
C2146 C2145 1.392 . S
C2146 C2147 1.385 . S
C2146 C2148 1.478 . S
C2147 H2141 0.930 . S
C2147 C2143 1.400 . S
C2147 C2146 1.385 . S
C2148 C2146 1.478 . S
C2148 C2150 1.381 . S
C2148 C2154 1.383 . S
C2149 C2145 1.495 . S
C2149 H2155 0.959 . S
C2149 H2156 0.961 . S
C2149 H2157 0.960 . S
C2150 C2148 1.381 . S
C2150 C2151 1.394 . S
C2150 H2158 0.930 . S
C2151 C2150 1.394 . S
C2151 C2152 1.383 . S
C2151 H2159 0.929 . S
C2152 C2151 1.383 . S
C2152 C2153 1.377 . S
C2153 H2137 0.930 . S
C2153 C2152 1.377 . S
C2153 C2154 1.379 . S
C2154 H2138 0.931 . S
C2154 C2148 1.383 . S
C2154 C2153 1.379 . S
H2155 C2149 0.959 . S
H2156 C2149 0.961 . S
H2157 C2149 0.960 . S
H2158 C2150 0.930 . S
H2159 C2151 0.929 . S
H2160 C2168 0.929 . S
H2161 C2170 0.930 . S
H2162 C2172 0.930 . S
H2163 C2175 0.929 . S
H2164 C2178 0.930 . S
H2165 C2180 0.960 . S
H2166 C2180 0.960 . S
H2167 C2180 0.960 . S
C2168 H2160 0.929 . S
C2168 C2169 1.377 . S
C2168 C2170 1.384 . S
C2169 C2168 1.377 . S
C2169 C2175 1.390 . S
C2170 H2161 0.930 . S
C2170 C2168 1.384 . S
C2170 C2171 1.372 . S
C2171 C2170 1.372 . S
C2171 C2172 1.400 . S
C2171 C2176 1.490 . S
C2172 H2162 0.930 . S
C2172 C2171 1.400 . S
C2172 C2175 1.386 . S
H2173 C2189 0.930 . S
H2174 C2190 0.931 . S
C2175 H2163 0.929 . S
C2175 C2169 1.390 . S
C2175 C2172 1.386 . S
C2176 C2171 1.490 . S
C2176 C2178 1.395 . S
C2176 C2179 1.403 . S
H2177 C2183 0.930 . S
C2178 H2164 0.930 . S
C2178 C2176 1.395 . S
C2178 C2181 1.403 . S
C2179 C2176 1.403 . S
C2179 C2180 1.524 . S
C2179 C2183 1.400 . S
C2180 H2165 0.960 . S
C2180 H2166 0.960 . S
C2180 H2167 0.960 . S
C2180 C2179 1.524 . S
C2181 C2178 1.403 . S
C2181 C2182 1.392 . S
C2181 C2185 1.495 . S
C2182 C2181 1.392 . S
C2182 C2183 1.385 . S
C2182 C2184 1.478 . S
C2183 H2177 0.930 . S
C2183 C2179 1.400 . S
C2183 C2182 1.385 . S
C2184 C2182 1.478 . S
C2184 C2186 1.381 . S
C2184 C2190 1.383 . S
C2185 C2181 1.495 . S
C2185 H2191 0.959 . S
C2185 H2192 0.961 . S
C2185 H2193 0.960 . S
C2186 C2184 1.381 . S
C2186 C2187 1.394 . S
C2186 H2194 0.930 . S
C2187 C2186 1.394 . S
C2187 C2188 1.383 . S
C2187 H2195 0.929 . S
C2188 C2187 1.383 . S
C2188 C2189 1.377 . S
C2189 H2173 0.930 . S
C2189 C2188 1.377 . S
C2189 C2190 1.379 . S
C2190 H2174 0.931 . S
C2190 C2184 1.383 . S
C2190 C2189 1.379 . S
H2191 C2185 0.959 . S
H2192 C2185 0.961 . S
H2193 C2185 0.960 . S
H2194 C2186 0.930 . S
H2195 C2187 0.929 . S
H2196 C2204 0.929 . S
H2197 C2206 0.930 . S
H2198 C2208 0.930 . S
H2199 C2211 0.929 . S
H2200 C2214 0.930 . S
H2201 C2216 0.960 . S
H2202 C2216 0.960 . S
H2203 C2216 0.960 . S
C2204 H2196 0.929 . S
C2204 C2205 1.377 . S
C2204 C2206 1.384 . S
C2205 C2204 1.377 . S
C2205 C2211 1.390 . S
C2206 H2197 0.930 . S
C2206 C2204 1.384 . S
C2206 C2207 1.372 . S
C2207 C2206 1.372 . S
C2207 C2208 1.400 . S
C2207 C2212 1.490 . S
C2208 H2198 0.930 . S
C2208 C2207 1.400 . S
C2208 C2211 1.386 . S
H2209 C2225 0.930 . S
H2210 C2226 0.931 . S
C2211 H2199 0.929 . S
C2211 C2205 1.390 . S
C2211 C2208 1.386 . S
C2212 C2207 1.490 . S
C2212 C2214 1.395 . S
C2212 C2215 1.403 . S
H2213 C2219 0.930 . S
C2214 H2200 0.930 . S
C2214 C2212 1.395 . S
C2214 C2217 1.403 . S
C2215 C2212 1.403 . S
C2215 C2216 1.524 . S
C2215 C2219 1.400 . S
C2216 H2201 0.960 . S
C2216 H2202 0.960 . S
C2216 H2203 0.960 . S
C2216 C2215 1.524 . S
C2217 C2214 1.403 . S
C2217 C2218 1.392 . S
C2217 C2221 1.495 . S
C2218 C2217 1.392 . S
C2218 C2219 1.385 . S
C2218 C2220 1.478 . S
C2219 H2213 0.930 . S
C2219 C2215 1.400 . S
C2219 C2218 1.385 . S
C2220 C2218 1.478 . S
C2220 C2222 1.381 . S
C2220 C2226 1.383 . S
C2221 C2217 1.495 . S
C2221 H2227 0.959 . S
C2221 H2228 0.961 . S
C2221 H2229 0.960 . S
C2222 C2220 1.381 . S
C2222 C2223 1.394 . S
C2222 H2230 0.930 . S
C2223 C2222 1.394 . S
C2223 C2224 1.383 . S
C2223 H2231 0.929 . S
C2224 C2223 1.383 . S
C2224 C2225 1.377 . S
C2225 H2209 0.930 . S
C2225 C2224 1.377 . S
C2225 C2226 1.379 . S
C2226 H2210 0.931 . S
C2226 C2220 1.383 . S
C2226 C2225 1.379 . S
H2227 C2221 0.959 . S
H2228 C2221 0.961 . S
H2229 C2221 0.960 . S
H2230 C2222 0.930 . S
H2231 C2223 0.929 . S
H2232 C2240 0.929 . S
H2233 C2242 0.930 . S
H2234 C2244 0.930 . S
H2235 C2247 0.929 . S
H2236 C2250 0.930 . S
H2237 C2252 0.960 . S
H2238 C2252 0.960 . S
H2239 C2252 0.960 . S
C2240 H2232 0.929 . S
C2240 C2241 1.377 . S
C2240 C2242 1.384 . S
C2241 C2240 1.377 . S
C2241 C2247 1.390 . S
C2242 H2233 0.930 . S
C2242 C2240 1.384 . S
C2242 C2243 1.372 . S
C2243 C2242 1.372 . S
C2243 C2244 1.400 . S
C2243 C2248 1.490 . S
C2244 H2234 0.930 . S
C2244 C2243 1.400 . S
C2244 C2247 1.386 . S
H2245 C2261 0.930 . S
H2246 C2262 0.931 . S
C2247 H2235 0.929 . S
C2247 C2241 1.390 . S
C2247 C2244 1.386 . S
C2248 C2243 1.490 . S
C2248 C2250 1.395 . S
C2248 C2251 1.403 . S
H2249 C2255 0.930 . S
C2250 H2236 0.930 . S
C2250 C2248 1.395 . S
C2250 C2253 1.403 . S
C2251 C2248 1.403 . S
C2251 C2252 1.524 . S
C2251 C2255 1.400 . S
C2252 H2237 0.960 . S
C2252 H2238 0.960 . S
C2252 H2239 0.960 . S
C2252 C2251 1.524 . S
C2253 C2250 1.403 . S
C2253 C2254 1.392 . S
C2253 C2257 1.495 . S
C2254 C2253 1.392 . S
C2254 C2255 1.385 . S
C2254 C2256 1.478 . S
C2255 H2249 0.930 . S
C2255 C2251 1.400 . S
C2255 C2254 1.385 . S
C2256 C2254 1.478 . S
C2256 C2258 1.381 . S
C2256 C2262 1.383 . S
C2257 C2253 1.495 . S
C2257 H2263 0.959 . S
C2257 H2264 0.961 . S
C2257 H2265 0.960 . S
C2258 C2256 1.381 . S
C2258 C2259 1.394 . S
C2258 H2266 0.930 . S
C2259 C2258 1.394 . S
C2259 C2260 1.383 . S
C2259 H2267 0.929 . S
C2260 C2259 1.383 . S
C2260 C2261 1.377 . S
C2261 H2245 0.930 . S
C2261 C2260 1.377 . S
C2261 C2262 1.379 . S
C2262 H2246 0.931 . S
C2262 C2256 1.383 . S
C2262 C2261 1.379 . S
H2263 C2257 0.959 . S
H2264 C2257 0.961 . S
H2265 C2257 0.960 . S
H2266 C2258 0.930 . S
H2267 C2259 0.929 . S
H2268 C2276 0.929 . S
H2269 C2278 0.930 . S
H2270 C2280 0.930 . S
H2271 C2283 0.929 . S
H2272 C2286 0.930 . S
H2273 C2288 0.960 . S
H2274 C2288 0.960 . S
H2275 C2288 0.960 . S
C2276 H2268 0.929 . S
C2276 C2277 1.377 . S
C2276 C2278 1.384 . S
C2277 C2276 1.377 . S
C2277 C2283 1.390 . S
C2278 H2269 0.930 . S
C2278 C2276 1.384 . S
C2278 C2279 1.372 . S
C2279 C2278 1.372 . S
C2279 C2280 1.400 . S
C2279 C2284 1.490 . S
C2280 H2270 0.930 . S
C2280 C2279 1.400 . S
C2280 C2283 1.386 . S
H2281 C2297 0.930 . S
H2282 C2298 0.931 . S
C2283 H2271 0.929 . S
C2283 C2277 1.390 . S
C2283 C2280 1.386 . S
C2284 C2279 1.490 . S
C2284 C2286 1.395 . S
C2284 C2287 1.403 . S
H2285 C2291 0.930 . S
C2286 H2272 0.930 . S
C2286 C2284 1.395 . S
C2286 C2289 1.403 . S
C2287 C2284 1.403 . S
C2287 C2288 1.524 . S
C2287 C2291 1.400 . S
C2288 H2273 0.960 . S
C2288 H2274 0.960 . S
C2288 H2275 0.960 . S
C2288 C2287 1.524 . S
C2289 C2286 1.403 . S
C2289 C2290 1.392 . S
C2289 C2293 1.495 . S
C2290 C2289 1.392 . S
C2290 C2291 1.385 . S
C2290 C2292 1.478 . S
C2291 H2285 0.930 . S
C2291 C2287 1.400 . S
C2291 C2290 1.385 . S
C2292 C2290 1.478 . S
C2292 C2294 1.381 . S
C2292 C2298 1.383 . S
C2293 C2289 1.495 . S
C2293 H2299 0.959 . S
C2293 H2300 0.961 . S
C2293 H2301 0.960 . S
C2294 C2292 1.381 . S
C2294 C2295 1.394 . S
C2294 H2302 0.930 . S
C2295 C2294 1.394 . S
C2295 C2296 1.383 . S
C2295 H2303 0.929 . S
C2296 C2295 1.383 . S
C2296 C2297 1.377 . S
C2297 H2281 0.930 . S
C2297 C2296 1.377 . S
C2297 C2298 1.379 . S
C2298 H2282 0.931 . S
C2298 C2292 1.383 . S
C2298 C2297 1.379 . S
H2299 C2293 0.959 . S
H2300 C2293 0.961 . S
H2301 C2293 0.960 . S
H2302 C2294 0.930 . S
H2303 C2295 0.929 . S
H2304 C2312 0.929 . S
H2305 C2314 0.930 . S
H2306 C2316 0.930 . S
H2307 C2319 0.929 . S
H2308 C2322 0.930 . S
H2309 C2324 0.960 . S
H2310 C2324 0.960 . S
H2311 C2324 0.960 . S
C2312 H2304 0.929 . S
C2312 C2313 1.377 . S
C2312 C2314 1.384 . S
C2313 C2312 1.377 . S
C2313 C2319 1.390 . S
C2314 H2305 0.930 . S
C2314 C2312 1.384 . S
C2314 C2315 1.372 . S
C2315 C2314 1.372 . S
C2315 C2316 1.400 . S
C2315 C2320 1.490 . S
C2316 H2306 0.930 . S
C2316 C2315 1.400 . S
C2316 C2319 1.386 . S
H2317 C2333 0.930 . S
H2318 C2334 0.931 . S
C2319 H2307 0.929 . S
C2319 C2313 1.390 . S
C2319 C2316 1.386 . S
C2320 C2315 1.490 . S
C2320 C2322 1.395 . S
C2320 C2323 1.403 . S
H2321 C2327 0.930 . S
C2322 H2308 0.930 . S
C2322 C2320 1.395 . S
C2322 C2325 1.403 . S
C2323 C2320 1.403 . S
C2323 C2324 1.524 . S
C2323 C2327 1.400 . S
C2324 H2309 0.960 . S
C2324 H2310 0.960 . S
C2324 H2311 0.960 . S
C2324 C2323 1.524 . S
C2325 C2322 1.403 . S
C2325 C2326 1.392 . S
C2325 C2329 1.495 . S
C2326 C2325 1.392 . S
C2326 C2327 1.385 . S
C2326 C2328 1.478 . S
C2327 H2321 0.930 . S
C2327 C2323 1.400 . S
C2327 C2326 1.385 . S
C2328 C2326 1.478 . S
C2328 C2330 1.381 . S
C2328 C2334 1.383 . S
C2329 C2325 1.495 . S
C2329 H2335 0.959 . S
C2329 H2336 0.961 . S
C2329 H2337 0.960 . S
C2330 C2328 1.381 . S
C2330 C2331 1.394 . S
C2330 H2338 0.930 . S
C2331 C2330 1.394 . S
C2331 C2332 1.383 . S
C2331 H2339 0.929 . S
C2332 C2331 1.383 . S
C2332 C2333 1.377 . S
C2333 H2317 0.930 . S
C2333 C2332 1.377 . S
C2333 C2334 1.379 . S
C2334 H2318 0.931 . S
C2334 C2328 1.383 . S
C2334 C2333 1.379 . S
H2335 C2329 0.959 . S
H2336 C2329 0.961 . S
H2337 C2329 0.960 . S
H2338 C2330 0.930 . S
H2339 C2331 0.929 . S
H2340 C2348 0.929 . S
H2341 C2350 0.930 . S
H2342 C2352 0.930 . S
H2343 C2355 0.929 . S
H2344 C2358 0.930 . S
H2345 C2360 0.960 . S
H2346 C2360 0.960 . S
H2347 C2360 0.960 . S
C2348 H2340 0.929 . S
C2348 C2349 1.377 . S
C2348 C2350 1.384 . S
C2349 C2348 1.377 . S
C2349 C2355 1.390 . S
C2350 H2341 0.930 . S
C2350 C2348 1.384 . S
C2350 C2351 1.372 . S
C2351 C2350 1.372 . S
C2351 C2352 1.400 . S
C2351 C2356 1.490 . S
C2352 H2342 0.930 . S
C2352 C2351 1.400 . S
C2352 C2355 1.386 . S
H2353 C2369 0.930 . S
H2354 C2370 0.931 . S
C2355 H2343 0.929 . S
C2355 C2349 1.390 . S
C2355 C2352 1.386 . S
C2356 C2351 1.490 . S
C2356 C2358 1.395 . S
C2356 C2359 1.403 . S
H2357 C2363 0.930 . S
C2358 H2344 0.930 . S
C2358 C2356 1.395 . S
C2358 C2361 1.403 . S
C2359 C2356 1.403 . S
C2359 C2360 1.524 . S
C2359 C2363 1.400 . S
C2360 H2345 0.960 . S
C2360 H2346 0.960 . S
C2360 H2347 0.960 . S
C2360 C2359 1.524 . S
C2361 C2358 1.403 . S
C2361 C2362 1.392 . S
C2361 C2365 1.495 . S
C2362 C2361 1.392 . S
C2362 C2363 1.385 . S
C2362 C2364 1.478 . S
C2363 H2357 0.930 . S
C2363 C2359 1.400 . S
C2363 C2362 1.385 . S
C2364 C2362 1.478 . S
C2364 C2366 1.381 . S
C2364 C2370 1.383 . S
C2365 C2361 1.495 . S
C2365 H2371 0.959 . S
C2365 H2372 0.961 . S
C2365 H2373 0.960 . S
C2366 C2364 1.381 . S
C2366 C2367 1.394 . S
C2366 H2374 0.930 . S
C2367 C2366 1.394 . S
C2367 C2368 1.383 . S
C2367 H2375 0.929 . S
C2368 C2367 1.383 . S
C2368 C2369 1.377 . S
C2369 H2353 0.930 . S
C2369 C2368 1.377 . S
C2369 C2370 1.379 . S
C2370 H2354 0.931 . S
C2370 C2364 1.383 . S
C2370 C2369 1.379 . S
H2371 C2365 0.959 . S
H2372 C2365 0.961 . S
H2373 C2365 0.960 . S
H2374 C2366 0.930 . S
H2375 C2367 0.929 . S
H2376 C2384 0.929 . S
H2377 C2386 0.930 . S
H2378 C2388 0.930 . S
H2379 C2391 0.929 . S
H2380 C2394 0.930 . S
H2381 C2396 0.960 . S
H2382 C2396 0.960 . S
H2383 C2396 0.960 . S
C2384 H2376 0.929 . S
C2384 C2385 1.377 . S
C2384 C2386 1.384 . S
C2385 C2384 1.377 . S
C2385 C2391 1.390 . S
C2386 H2377 0.930 . S
C2386 C2384 1.384 . S
C2386 C2387 1.372 . S
C2387 C2386 1.372 . S
C2387 C2388 1.400 . S
C2387 C2392 1.490 . S
C2388 H2378 0.930 . S
C2388 C2387 1.400 . S
C2388 C2391 1.386 . S
H2389 C2405 0.930 . S
H2390 C2406 0.931 . S
C2391 H2379 0.929 . S
C2391 C2385 1.390 . S
C2391 C2388 1.386 . S
C2392 C2387 1.490 . S
C2392 C2394 1.395 . S
C2392 C2395 1.403 . S
H2393 C2399 0.930 . S
C2394 H2380 0.930 . S
C2394 C2392 1.395 . S
C2394 C2397 1.403 . S
C2395 C2392 1.403 . S
C2395 C2396 1.524 . S
C2395 C2399 1.400 . S
C2396 H2381 0.960 . S
C2396 H2382 0.960 . S
C2396 H2383 0.960 . S
C2396 C2395 1.524 . S
C2397 C2394 1.403 . S
C2397 C2398 1.392 . S
C2397 C2401 1.495 . S
C2398 C2397 1.392 . S
C2398 C2399 1.385 . S
C2398 C2400 1.478 . S
C2399 H2393 0.930 . S
C2399 C2395 1.400 . S
C2399 C2398 1.385 . S
C2400 C2398 1.478 . S
C2400 C2402 1.381 . S
C2400 C2406 1.383 . S
C2401 C2397 1.495 . S
C2401 H2407 0.959 . S
C2401 H2408 0.961 . S
C2401 H2409 0.960 . S
C2402 C2400 1.381 . S
C2402 C2403 1.394 . S
C2402 H2410 0.930 . S
C2403 C2402 1.394 . S
C2403 C2404 1.383 . S
C2403 H2411 0.929 . S
C2404 C2403 1.383 . S
C2404 C2405 1.377 . S
C2405 H2389 0.930 . S
C2405 C2404 1.377 . S
C2405 C2406 1.379 . S
C2406 H2390 0.931 . S
C2406 C2400 1.383 . S
C2406 C2405 1.379 . S
H2407 C2401 0.959 . S
H2408 C2401 0.961 . S
H2409 C2401 0.960 . S
H2410 C2402 0.930 . S
H2411 C2403 0.929 . S
H2412 C2420 0.929 . S
H2413 C2422 0.930 . S
H2414 C2424 0.930 . S
H2415 C2427 0.929 . S
H2416 C2430 0.930 . S
H2417 C2432 0.960 . S
H2418 C2432 0.960 . S
H2419 C2432 0.960 . S
C2420 H2412 0.929 . S
C2420 C2421 1.377 . S
C2420 C2422 1.384 . S
C2421 C2420 1.377 . S
C2421 C2427 1.390 . S
C2422 H2413 0.930 . S
C2422 C2420 1.384 . S
C2422 C2423 1.372 . S
C2423 C2422 1.372 . S
C2423 C2424 1.400 . S
C2423 C2428 1.490 . S
C2424 H2414 0.930 . S
C2424 C2423 1.400 . S
C2424 C2427 1.386 . S
H2425 C2441 0.930 . S
H2426 C2442 0.931 . S
C2427 H2415 0.929 . S
C2427 C2421 1.390 . S
C2427 C2424 1.386 . S
C2428 C2423 1.490 . S
C2428 C2430 1.395 . S
C2428 C2431 1.403 . S
H2429 C2435 0.930 . S
C2430 H2416 0.930 . S
C2430 C2428 1.395 . S
C2430 C2433 1.403 . S
C2431 C2428 1.403 . S
C2431 C2432 1.524 . S
C2431 C2435 1.400 . S
C2432 H2417 0.960 . S
C2432 H2418 0.960 . S
C2432 H2419 0.960 . S
C2432 C2431 1.524 . S
C2433 C2430 1.403 . S
C2433 C2434 1.392 . S
C2433 C2437 1.495 . S
C2434 C2433 1.392 . S
C2434 C2435 1.385 . S
C2434 C2436 1.478 . S
C2435 H2429 0.930 . S
C2435 C2431 1.400 . S
C2435 C2434 1.385 . S
C2436 C2434 1.478 . S
C2436 C2438 1.381 . S
C2436 C2442 1.383 . S
C2437 C2433 1.495 . S
C2437 H2443 0.959 . S
C2437 H2444 0.961 . S
C2437 H2445 0.960 . S
C2438 C2436 1.381 . S
C2438 C2439 1.394 . S
C2438 H2446 0.930 . S
C2439 C2438 1.394 . S
C2439 C2440 1.383 . S
C2439 H2447 0.929 . S
C2440 C2439 1.383 . S
C2440 C2441 1.377 . S
C2441 H2425 0.930 . S
C2441 C2440 1.377 . S
C2441 C2442 1.379 . S
C2442 H2426 0.931 . S
C2442 C2436 1.383 . S
C2442 C2441 1.379 . S
H2443 C2437 0.959 . S
H2444 C2437 0.961 . S
H2445 C2437 0.960 . S
H2446 C2438 0.930 . S
H2447 C2439 0.929 . S
H2448 C2456 0.929 . S
H2449 C2458 0.930 . S
H2450 C2460 0.930 . S
H2451 C2463 0.929 . S
H2452 C2466 0.930 . S
H2453 C2468 0.960 . S
H2454 C2468 0.960 . S
H2455 C2468 0.960 . S
C2456 H2448 0.929 . S
C2456 C2457 1.377 . S
C2456 C2458 1.384 . S
C2457 C2456 1.377 . S
C2457 C2463 1.390 . S
C2458 H2449 0.930 . S
C2458 C2456 1.384 . S
C2458 C2459 1.372 . S
C2459 C2458 1.372 . S
C2459 C2460 1.400 . S
C2459 C2464 1.490 . S
C2460 H2450 0.930 . S
C2460 C2459 1.400 . S
C2460 C2463 1.386 . S
H2461 C2477 0.930 . S
H2462 C2478 0.931 . S
C2463 H2451 0.929 . S
C2463 C2457 1.390 . S
C2463 C2460 1.386 . S
C2464 C2459 1.490 . S
C2464 C2466 1.395 . S
C2464 C2467 1.403 . S
H2465 C2471 0.930 . S
C2466 H2452 0.930 . S
C2466 C2464 1.395 . S
C2466 C2469 1.403 . S
C2467 C2464 1.403 . S
C2467 C2468 1.524 . S
C2467 C2471 1.400 . S
C2468 H2453 0.960 . S
C2468 H2454 0.960 . S
C2468 H2455 0.960 . S
C2468 C2467 1.524 . S
C2469 C2466 1.403 . S
C2469 C2470 1.392 . S
C2469 C2473 1.495 . S
C2470 C2469 1.392 . S
C2470 C2471 1.385 . S
C2470 C2472 1.478 . S
C2471 H2465 0.930 . S
C2471 C2467 1.400 . S
C2471 C2470 1.385 . S
C2472 C2470 1.478 . S
C2472 C2474 1.381 . S
C2472 C2478 1.383 . S
C2473 C2469 1.495 . S
C2473 H2479 0.959 . S
C2473 H2480 0.961 . S
C2473 H2481 0.960 . S
C2474 C2472 1.381 . S
C2474 C2475 1.394 . S
C2474 H2482 0.930 . S
C2475 C2474 1.394 . S
C2475 C2476 1.383 . S
C2475 H2483 0.929 . S
C2476 C2475 1.383 . S
C2476 C2477 1.377 . S
C2477 H2461 0.930 . S
C2477 C2476 1.377 . S
C2477 C2478 1.379 . S
C2478 H2462 0.931 . S
C2478 C2472 1.383 . S
C2478 C2477 1.379 . S
H2479 C2473 0.959 . S
H2480 C2473 0.961 . S
H2481 C2473 0.960 . S
H2482 C2474 0.930 . S
H2483 C2475 0.929 . S
H2484 C2492 0.929 . S
H2485 C2494 0.930 . S
H2486 C2496 0.944 . S
H2487 C2499 0.929 . S
H2488 C2502 0.930 . S
H2489 C2504 0.960 . S
H2490 C2504 0.960 . S
H2491 C2504 0.960 . S
C2492 H2484 0.929 . S
C2492 C2493 1.377 . S
C2492 C2494 1.384 . S
C2493 C2492 1.377 . S
C2493 C2499 1.390 . S
C2494 H2485 0.930 . S
C2494 C2492 1.384 . S
C2494 C2495 1.372 . S
C2495 C2494 1.372 . S
C2495 C2496 1.386 1_565 S
C2495 C2500 1.490 1_565 S
C2496 H2486 0.944 . S
C2496 C2495 1.386 1_545 S
C2496 C2499 1.387 1_545 S
H2497 C2513 0.930 . S
H2498 C2514 0.931 . S
C2499 H2487 0.929 . S
C2499 C2493 1.390 . S
C2499 C2496 1.387 1_565 S
C2500 C2495 1.490 1_545 S
C2500 C2502 1.395 . S
C2500 C2503 1.403 . S
H2501 C2507 0.930 . S
C2502 H2488 0.930 . S
C2502 C2500 1.395 . S
C2502 C2505 1.403 . S
C2503 C2500 1.403 . S
C2503 C2504 1.524 1_545 S
C2503 C2507 1.400 . S
C2504 H2489 0.960 . S
C2504 H2490 0.960 . S
C2504 H2491 0.960 . S
C2504 C2503 1.524 1_565 S
C2505 C2502 1.403 . S
C2505 C2506 1.392 . S
C2505 C2509 1.495 . S
C2506 C2505 1.392 . S
C2506 C2507 1.385 . S
C2506 C2508 1.478 . S
C2507 H2501 0.930 . S
C2507 C2503 1.400 . S
C2507 C2506 1.385 . S
C2508 C2506 1.478 . S
C2508 C2510 1.381 . S
C2508 C2514 1.383 . S
C2509 C2505 1.495 . S
C2509 H2515 0.959 . S
C2509 H2516 0.961 . S
C2509 H2517 0.960 . S
C2510 C2508 1.381 . S
C2510 C2511 1.394 . S
C2510 H2518 0.930 . S
C2511 C2510 1.394 . S
C2511 C2512 1.383 . S
C2511 H2519 0.929 . S
C2512 C2511 1.383 . S
C2512 C2513 1.377 . S
C2513 H2497 0.930 . S
C2513 C2512 1.377 . S
C2513 C2514 1.379 . S
C2514 H2498 0.931 . S
C2514 C2508 1.383 . S
C2514 C2513 1.379 . S
H2515 C2509 0.959 . S
H2516 C2509 0.961 . S
H2517 C2509 0.960 . S
H2518 C2510 0.930 . S
H2519 C2511 0.929 . S
H2520 C2528 0.929 . S
H2521 C2530 0.930 . S
H2522 C2532 0.930 . S
H2523 C2535 0.929 . S
H2524 C2538 0.930 . S
H2525 C2540 0.960 . S
H2526 C2540 0.960 . S
H2527 C2540 0.960 . S
C2528 H2520 0.929 . S
C2528 C2529 1.377 . S
C2528 C2530 1.384 . S
C2529 C2528 1.377 . S
C2529 C2535 1.390 . S
C2530 H2521 0.930 . S
C2530 C2528 1.384 . S
C2530 C2531 1.372 . S
C2531 C2530 1.372 . S
C2531 C2532 1.400 . S
C2531 C2536 1.490 . S
C2532 H2522 0.930 . S
C2532 C2531 1.400 . S
C2532 C2535 1.386 . S
H2533 C2549 0.930 . S
H2534 C2550 0.931 . S
C2535 H2523 0.929 . S
C2535 C2529 1.390 . S
C2535 C2532 1.386 . S
C2536 C2531 1.490 . S
C2536 C2538 1.395 . S
C2536 C2539 1.403 . S
H2537 C2543 0.930 . S
C2538 H2524 0.930 . S
C2538 C2536 1.395 . S
C2538 C2541 1.403 1_655 S
C2539 C2536 1.403 . S
C2539 C2540 1.524 . S
C2539 C2543 1.400 . S
C2540 H2525 0.960 . S
C2540 H2526 0.960 . S
C2540 H2527 0.960 . S
C2540 C2539 1.524 . S
C2541 C2538 1.403 1_455 S
C2541 C2542 1.392 1_455 S
C2541 C2545 1.495 . S
C2542 C2541 1.392 1_655 S
C2542 C2543 1.385 . S
C2542 C2544 1.478 1_655 S
C2543 H2537 0.930 . S
C2543 C2539 1.400 . S
C2543 C2542 1.385 . S
C2544 C2542 1.478 1_455 S
C2544 C2546 1.381 . S
C2544 C2550 1.383 . S
C2545 C2541 1.495 . S
C2545 H2551 0.959 . S
C2545 H2552 0.961 . S
C2545 H2553 0.960 . S
C2546 C2544 1.381 . S
C2546 C2547 1.394 . S
C2546 H2554 0.930 . S
C2547 C2546 1.394 . S
C2547 C2548 1.383 . S
C2547 H2555 0.929 . S
C2548 C2547 1.383 . S
C2548 C2549 1.377 . S
C2549 H2533 0.930 . S
C2549 C2548 1.377 . S
C2549 C2550 1.379 . S
C2550 H2534 0.931 . S
C2550 C2544 1.383 . S
C2550 C2549 1.379 . S
H2551 C2545 0.959 . S
H2552 C2545 0.961 . S
H2553 C2545 0.960 . S
H2554 C2546 0.930 . S
H2555 C2547 0.929 . S
H2556 C2564 0.929 . S
H2557 C2566 0.930 . S
H2558 C2568 0.930 . S
H2559 C2571 0.929 . S
H2560 C2574 0.930 . S
H2561 C2576 0.960 . S
H2562 C2576 0.960 . S
H2563 C2576 0.960 . S
C2564 H2556 0.929 . S
C2564 C2565 1.377 . S
C2564 C2566 1.384 . S
C2565 C2564 1.377 . S
C2565 C2571 1.390 . S
C2566 H2557 0.930 . S
C2566 C2564 1.384 . S
C2566 C2567 1.372 . S
C2567 C2566 1.372 . S
C2567 C2568 1.400 . S
C2567 C2572 1.490 . S
C2568 H2558 0.930 . S
C2568 C2567 1.400 . S
C2568 C2571 1.386 . S
H2569 C2585 0.930 . S
H2570 C2586 0.931 . S
C2571 H2559 0.929 . S
C2571 C2565 1.390 . S
C2571 C2568 1.386 . S
C2572 C2567 1.490 . S
C2572 C2574 1.395 . S
C2572 C2575 1.403 . S
H2573 C2579 0.930 . S
C2574 H2560 0.930 . S
C2574 C2572 1.395 . S
C2574 C2577 1.403 . S
C2575 C2572 1.403 . S
C2575 C2576 1.524 . S
C2575 C2579 1.400 . S
C2576 H2561 0.960 . S
C2576 H2562 0.960 . S
C2576 H2563 0.960 . S
C2576 C2575 1.524 . S
C2577 C2574 1.403 . S
C2577 C2578 1.392 . S
C2577 C2581 1.495 . S
C2578 C2577 1.392 . S
C2578 C2579 1.385 . S
C2578 C2580 1.478 . S
C2579 H2573 0.930 . S
C2579 C2575 1.400 . S
C2579 C2578 1.385 . S
C2580 C2578 1.478 . S
C2580 C2582 1.381 . S
C2580 C2586 1.383 . S
C2581 C2577 1.495 . S
C2581 H2587 0.959 . S
C2581 H2588 0.961 . S
C2581 H2589 0.960 . S
C2582 C2580 1.381 . S
C2582 C2583 1.394 . S
C2582 H2590 0.930 . S
C2583 C2582 1.394 . S
C2583 C2584 1.383 . S
C2583 H2591 0.929 . S
C2584 C2583 1.383 . S
C2584 C2585 1.377 . S
C2585 H2569 0.930 . S
C2585 C2584 1.377 . S
C2585 C2586 1.379 . S
C2586 H2570 0.931 . S
C2586 C2580 1.383 . S
C2586 C2585 1.379 . S
H2587 C2581 0.959 . S
H2588 C2581 0.961 . S
H2589 C2581 0.960 . S
H2590 C2582 0.930 . S
H2591 C2583 0.929 . S
H2592 C2600 0.929 1_565 S
H2593 C2602 0.930 . S
H2594 C2604 0.930 . S
H2595 C2607 0.929 . S
H2596 C2610 0.930 . S
H2597 C2612 0.941 1_565 S
H2598 C2612 0.960 1_565 S
H2599 C2612 0.960 . S
C2600 H2592 0.929 1_545 S
C2600 C2601 1.377 . S
C2600 C2602 1.384 1_545 S
C2601 C2600 1.377 . S
C2601 C2607 1.390 . S
C2602 H2593 0.930 . S
C2602 C2600 1.384 1_565 S
C2602 C2603 1.372 1_565 S
C2603 C2602 1.372 1_545 S
C2603 C2604 1.400 . S
C2603 C2608 1.490 1_545 S
C2604 H2594 0.930 . S
C2604 C2603 1.400 . S
C2604 C2607 1.386 . S
H2605 C2621 0.930 . S
H2606 C2622 0.931 . S
C2607 H2595 0.929 . S
C2607 C2601 1.390 . S
C2607 C2604 1.386 . S
C2608 C2603 1.490 1_565 S
C2608 C2610 1.395 . S
C2608 C2611 1.403 . S
H2609 C2615 0.930 . S
C2610 H2596 0.930 . S
C2610 C2608 1.395 . S
C2610 C2613 1.403 . S
C2611 C2608 1.403 . S
C2611 C2612 1.524 1_565 S
C2611 C2615 1.400 . S
C2612 H2597 0.941 1_545 S
C2612 H2598 0.960 1_545 S
C2612 H2599 0.960 . S
C2612 C2611 1.524 1_545 S
C2613 C2610 1.403 . S
C2613 C2614 1.392 . S
C2613 C2617 1.495 . S
C2614 C2613 1.392 . S
C2614 C2615 1.385 . S
C2614 C2616 1.478 . S
C2615 H2609 0.930 . S
C2615 C2611 1.400 . S
C2615 C2614 1.385 . S
C2616 C2614 1.478 . S
C2616 C2618 1.381 . S
C2616 C2622 1.383 . S
C2617 C2613 1.495 . S
C2617 H2623 0.959 . S
C2617 H2624 0.961 . S
C2617 H2625 0.960 . S
C2618 C2616 1.381 . S
C2618 C2619 1.394 . S
C2618 H2626 0.930 . S
C2619 C2618 1.394 . S
C2619 C2620 1.383 . S
C2619 H2627 0.929 . S
C2620 C2619 1.383 . S
C2620 C2621 1.377 . S
C2621 H2605 0.930 . S
C2621 C2620 1.377 . S
C2621 C2622 1.379 . S
C2622 H2606 0.931 . S
C2622 C2616 1.383 . S
C2622 C2621 1.379 . S
H2623 C2617 0.959 . S
H2624 C2617 0.961 . S
H2625 C2617 0.960 . S
H2626 C2618 0.930 . S
H2627 C2619 0.929 . S
H2628 C2636 0.929 . S
H2629 C2638 0.930 . S
H2630 C2640 0.930 . S
H2631 C2643 0.929 . S
H2632 C2646 0.930 . S
H2633 C2648 0.960 . S
H2634 C2648 0.960 . S
H2635 C2648 0.960 . S
C2636 H2628 0.929 . S
C2636 C2637 1.377 . S
C2636 C2638 1.384 . S
C2637 C2636 1.377 . S
C2637 C2643 1.390 . S
C2638 H2629 0.930 . S
C2638 C2636 1.384 . S
C2638 C2639 1.372 . S
C2639 C2638 1.372 . S
C2639 C2640 1.400 . S
C2639 C2644 1.490 . S
C2640 H2630 0.930 . S
C2640 C2639 1.400 . S
C2640 C2643 1.386 . S
H2641 C2657 0.930 . S
H2642 C2658 0.931 . S
C2643 H2631 0.929 . S
C2643 C2637 1.390 . S
C2643 C2640 1.386 . S
C2644 C2639 1.490 . S
C2644 C2646 1.395 . S
C2644 C2647 1.403 . S
H2645 C2651 0.975 . S
C2646 H2632 0.930 . S
C2646 C2644 1.395 . S
C2646 C2649 1.403 . S
C2647 C2644 1.403 . S
C2647 C2648 1.524 1_455 S
C2647 C2651 1.407 1_455 S
C2648 H2633 0.960 . S
C2648 H2634 0.960 . S
C2648 H2635 0.960 . S
C2648 C2647 1.524 1_655 S
C2649 C2646 1.403 . S
C2649 C2650 1.392 . S
C2649 C2653 1.495 . S
C2650 C2649 1.392 . S
C2650 C2651 1.337 1_455 S
C2650 C2652 1.478 . S
C2651 H2645 0.975 . S
C2651 C2647 1.407 1_655 S
C2651 C2650 1.337 1_655 S
C2652 C2650 1.478 . S
C2652 C2654 1.381 1_455 S
C2652 C2658 1.382 1_455 S
C2653 C2649 1.495 . S
C2653 H2659 0.959 . S
C2653 H2660 0.961 . S
C2653 H2661 0.960 . S
C2654 C2652 1.381 1_655 S
C2654 C2655 1.394 . S
C2654 H2662 0.930 1_655 S
C2655 C2654 1.394 . S
C2655 C2656 1.383 . S
C2655 H2663 0.929 . S
C2656 C2655 1.383 . S
C2656 C2657 1.377 . S
C2657 H2641 0.930 . S
C2657 C2656 1.377 . S
C2657 C2658 1.379 . S
C2658 H2642 0.931 . S
C2658 C2652 1.382 1_655 S
C2658 C2657 1.379 . S
H2659 C2653 0.959 . S
H2660 C2653 0.961 . S
H2661 C2653 0.960 . S
H2662 C2654 0.930 1_455 S
H2663 C2655 0.929 . S
H2664 C2672 0.929 . S
H2665 C2674 0.930 . S
H2666 C2676 0.930 . S
H2667 C2679 0.929 . S
H2668 C2682 0.930 . S
H2669 C2684 0.960 . S
H2670 C2684 0.960 . S
H2671 C2684 0.960 . S
C2672 H2664 0.929 . S
C2672 C2673 1.377 . S
C2672 C2674 1.384 . S
C2673 C2672 1.377 . S
C2673 C2679 1.390 . S
C2674 H2665 0.930 . S
C2674 C2672 1.384 . S
C2674 C2675 1.372 . S
C2675 C2674 1.372 . S
C2675 C2676 1.400 . S
C2675 C2680 1.490 . S
C2676 H2666 0.930 . S
C2676 C2675 1.400 . S
C2676 C2679 1.386 . S
H2677 C2693 0.930 . S
H2678 C2694 0.931 . S
C2679 H2667 0.929 . S
C2679 C2673 1.390 . S
C2679 C2676 1.386 . S
C2680 C2675 1.490 . S
C2680 C2682 1.395 . S
C2680 C2683 1.403 . S
H2681 C2687 0.930 . S
C2682 H2668 0.930 . S
C2682 C2680 1.395 . S
C2682 C2685 1.403 . S
C2683 C2680 1.403 . S
C2683 C2684 1.524 . S
C2683 C2687 1.400 . S
C2684 H2669 0.960 . S
C2684 H2670 0.960 . S
C2684 H2671 0.960 . S
C2684 C2683 1.524 . S
C2685 C2682 1.403 . S
C2685 C2686 1.392 . S
C2685 C2689 1.495 . S
C2686 C2685 1.392 . S
C2686 C2687 1.385 . S
C2686 C2688 1.478 . S
C2687 H2681 0.930 . S
C2687 C2683 1.400 . S
C2687 C2686 1.385 . S
C2688 C2686 1.478 . S
C2688 C2690 1.381 . S
C2688 C2694 1.383 . S
C2689 C2685 1.495 . S
C2689 H2695 0.959 . S
C2689 H2696 0.961 . S
C2689 H2697 0.960 . S
C2690 C2688 1.381 . S
C2690 C2691 1.394 . S
C2690 H2698 0.930 . S
C2691 C2690 1.394 . S
C2691 C2692 1.383 . S
C2691 H2699 0.929 . S
C2692 C2691 1.383 . S
C2692 C2693 1.377 . S
C2693 H2677 0.930 . S
C2693 C2692 1.377 . S
C2693 C2694 1.379 . S
C2694 H2678 0.931 . S
C2694 C2688 1.383 . S
C2694 C2693 1.379 . S
H2695 C2689 0.959 . S
H2696 C2689 0.961 . S
H2697 C2689 0.960 . S
H2698 C2690 0.930 . S
H2699 C2691 0.929 . S
H2700 C2708 0.929 . S
H2701 C2710 0.930 . S
H2702 C2712 0.930 . S
H2703 C2715 0.929 . S
H2704 C2718 0.903 1_545 S
H2705 C2720 0.960 . S
H2706 C2720 0.960 . S
H2707 C2720 0.960 . S
C2708 H2700 0.929 . S
C2708 C2709 1.377 . S
C2708 C2710 1.384 . S
C2709 C2708 1.377 . S
C2709 C2715 1.390 . S
C2710 H2701 0.930 . S
C2710 C2708 1.384 . S
C2710 C2711 1.372 . S
C2711 C2710 1.372 . S
C2711 C2712 1.400 . S
C2711 C2716 1.490 . S
C2712 H2702 0.930 . S
C2712 C2711 1.400 . S
C2712 C2715 1.386 . S
H2713 C2729 0.930 . S
H2714 C2730 0.949 . S
C2715 H2703 0.929 . S
C2715 C2709 1.390 . S
C2715 C2712 1.386 . S
C2716 C2711 1.490 . S
C2716 C2718 1.395 . S
C2716 C2719 1.403 . S
H2717 C2723 0.930 . S
C2718 H2704 0.903 1_565 S
C2718 C2716 1.395 . S
C2718 C2721 1.403 1_565 S
C2719 C2716 1.403 . S
C2719 C2720 1.524 . S
C2719 C2723 1.400 . S
C2720 H2705 0.960 . S
C2720 H2706 0.960 . S
C2720 H2707 0.960 . S
C2720 C2719 1.524 . S
C2721 C2718 1.403 1_545 S
C2721 C2722 1.392 1_545 S
C2721 C2725 1.495 . S
C2722 C2721 1.392 1_565 S
C2722 C2723 1.385 . S
C2722 C2724 1.478 1_565 S
C2723 H2717 0.930 . S
C2723 C2719 1.400 . S
C2723 C2722 1.385 . S
C2724 C2722 1.478 1_545 S
C2724 C2726 1.381 . S
C2724 C2730 1.383 . S
C2725 C2721 1.495 . S
C2725 H2731 0.959 . S
C2725 H2732 0.961 . S
C2725 H2733 0.960 . S
C2726 C2724 1.381 . S
C2726 C2727 1.394 . S
C2726 H2734 0.930 . S
C2727 C2726 1.394 . S
C2727 C2728 1.383 . S
C2727 H2735 0.929 . S
C2728 C2727 1.383 . S
C2728 C2729 1.377 . S
C2729 H2713 0.930 . S
C2729 C2728 1.377 . S
C2729 C2730 1.379 . S
C2730 H2714 0.949 . S
C2730 C2724 1.383 . S
C2730 C2729 1.379 . S
H2731 C2725 0.959 . S
H2732 C2725 0.961 . S
H2733 C2725 0.960 . S
H2734 C2726 0.930 . S
H2735 C2727 0.929 . S
H2736 C2744 0.929 . S
H2737 C2746 0.930 . S
H2738 C2748 0.930 . S
H2739 C2751 0.929 . S
H2740 C2754 0.930 . S
H2741 C2756 0.960 . S
H2742 C2756 0.960 1_455 S
H2743 C2756 0.960 . S
C2744 H2736 0.929 . S
C2744 C2745 1.377 . S
C2744 C2746 1.384 . S
C2745 C2744 1.377 . S
C2745 C2751 1.390 . S
C2746 H2737 0.930 . S
C2746 C2744 1.384 . S
C2746 C2747 1.372 . S
C2747 C2746 1.372 . S
C2747 C2748 1.400 . S
C2747 C2752 1.490 . S
C2748 H2738 0.930 . S
C2748 C2747 1.400 . S
C2748 C2751 1.386 . S
H2749 C2765 0.930 . S
H2750 C2766 0.931 . S
C2751 H2739 0.929 . S
C2751 C2745 1.390 . S
C2751 C2748 1.386 . S
C2752 C2747 1.490 . S
C2752 C2754 1.395 . S
C2752 C2755 1.403 . S
H2753 C2759 0.922 1_655 S
C2754 H2740 0.930 . S
C2754 C2752 1.395 . S
C2754 C2757 1.403 . S
C2755 C2752 1.403 . S
C2755 C2756 1.524 1_455 S
C2755 C2759 1.407 . S
C2756 H2741 0.960 . S
C2756 H2742 0.960 1_655 S
C2756 H2743 0.960 . S
C2756 C2755 1.524 1_655 S
C2757 C2754 1.403 . S
C2757 C2758 1.392 . S
C2757 C2761 1.495 . S
C2758 C2757 1.392 . S
C2758 C2759 1.386 . S
C2758 C2760 1.480 1_455 S
C2759 H2753 0.922 1_455 S
C2759 C2755 1.407 . S
C2759 C2758 1.386 . S
C2760 C2758 1.480 1_655 S
C2760 C2762 1.380 1_655 S
C2760 C2766 1.381 . S
C2761 C2757 1.495 . S
C2761 H2767 0.959 . S
C2761 H2768 0.961 . S
C2761 H2769 0.960 . S
C2762 C2760 1.380 1_455 S
C2762 C2763 1.394 1_455 S
C2762 H2770 0.930 . S
C2763 C2762 1.394 1_655 S
C2763 C2764 1.383 . S
C2763 H2771 0.929 . S
C2764 C2763 1.383 . S
C2764 C2765 1.377 . S
C2765 H2749 0.930 . S
C2765 C2764 1.377 . S
C2765 C2766 1.379 . S
C2766 H2750 0.931 . S
C2766 C2760 1.381 . S
C2766 C2765 1.379 . S
H2767 C2761 0.959 . S
H2768 C2761 0.961 . S
H2769 C2761 0.960 . S
H2770 C2762 0.930 . S
H2771 C2763 0.929 . S
H2772 C2780 0.929 . S
H2773 C2782 0.930 . S
H2774 C2784 0.930 . S
H2775 C2787 0.929 . S
H2776 C2790 0.930 . S
H2777 C2792 0.960 . S
H2778 C2792 0.960 . S
H2779 C2792 0.960 . S
C2780 H2772 0.929 . S
C2780 C2781 1.377 . S
C2780 C2782 1.384 . S
C2781 C2780 1.377 . S
C2781 C2787 1.390 . S
C2782 H2773 0.930 . S
C2782 C2780 1.384 . S
C2782 C2783 1.372 . S
C2783 C2782 1.372 . S
C2783 C2784 1.400 . S
C2783 C2788 1.490 . S
C2784 H2774 0.930 . S
C2784 C2783 1.400 . S
C2784 C2787 1.386 . S
H2785 C2801 0.930 . S
H2786 C2802 0.931 . S
C2787 H2775 0.929 . S
C2787 C2781 1.390 . S
C2787 C2784 1.386 . S
C2788 C2783 1.490 . S
C2788 C2790 1.395 . S
C2788 C2791 1.403 . S
H2789 C2795 0.930 . S
C2790 H2776 0.930 . S
C2790 C2788 1.395 . S
C2790 C2793 1.403 . S
C2791 C2788 1.403 . S
C2791 C2792 1.524 . S
C2791 C2795 1.400 . S
C2792 H2777 0.960 . S
C2792 H2778 0.960 . S
C2792 H2779 0.960 . S
C2792 C2791 1.524 . S
C2793 C2790 1.403 . S
C2793 C2794 1.392 . S
C2793 C2797 1.495 . S
C2794 C2793 1.392 . S
C2794 C2795 1.385 . S
C2794 C2796 1.478 . S
C2795 H2789 0.930 . S
C2795 C2791 1.400 . S
C2795 C2794 1.385 . S
C2796 C2794 1.478 . S
C2796 C2798 1.381 . S
C2796 C2802 1.383 . S
C2797 C2793 1.495 . S
C2797 H2803 0.959 . S
C2797 H2804 0.961 . S
C2797 H2805 0.960 . S
C2798 C2796 1.381 . S
C2798 C2799 1.394 . S
C2798 H2806 0.930 . S
C2799 C2798 1.394 . S
C2799 C2800 1.383 . S
C2799 H2807 0.929 . S
C2800 C2799 1.383 . S
C2800 C2801 1.377 . S
C2801 H2785 0.930 . S
C2801 C2800 1.377 . S
C2801 C2802 1.379 . S
C2802 H2786 0.931 . S
C2802 C2796 1.383 . S
C2802 C2801 1.379 . S
H2803 C2797 0.959 . S
H2804 C2797 0.961 . S
H2805 C2797 0.960 . S
H2806 C2798 0.930 . S
H2807 C2799 0.929 . S
H2808 C2816 0.929 . S
H2809 C2818 0.930 . S
H2810 C2820 0.930 . S
H2811 C2823 0.929 . S
H2812 C2826 0.930 . S
H2813 C2828 0.960 . S
H2814 C2828 0.960 1_545 S
H2815 C2828 0.960 . S
C2816 H2808 0.929 . S
C2816 C2817 1.377 . S
C2816 C2818 1.384 . S
C2817 C2816 1.377 . S
C2817 C2823 1.390 . S
C2818 H2809 0.930 . S
C2818 C2816 1.384 . S
C2818 C2819 1.372 . S
C2819 C2818 1.372 . S
C2819 C2820 1.400 . S
C2819 C2824 1.490 . S
C2820 H2810 0.930 . S
C2820 C2819 1.400 . S
C2820 C2823 1.386 . S
H2821 C2837 0.930 . S
H2822 C2838 0.931 . S
C2823 H2811 0.929 . S
C2823 C2817 1.390 . S
C2823 C2820 1.386 . S
C2824 C2819 1.490 . S
C2824 C2826 1.395 . S
C2824 C2827 1.403 . S
H2825 C2831 0.930 1_565 S
C2826 H2812 0.930 . S
C2826 C2824 1.395 . S
C2826 C2829 1.403 . S
C2827 C2824 1.403 . S
C2827 C2828 1.524 1_545 S
C2827 C2831 1.400 . S
C2828 H2813 0.960 . S
C2828 H2814 0.960 1_565 S
C2828 H2815 0.960 . S
C2828 C2827 1.524 1_565 S
C2829 C2826 1.403 . S
C2829 C2830 1.392 . S
C2829 C2833 1.495 . S
C2830 C2829 1.392 . S
C2830 C2831 1.385 . S
C2830 C2832 1.482 1_545 S
C2831 H2825 0.930 1_545 S
C2831 C2827 1.400 . S
C2831 C2830 1.385 . S
C2832 C2830 1.482 1_565 S
C2832 C2834 1.380 1_565 S
C2832 C2838 1.379 . S
C2833 C2829 1.495 . S
C2833 H2839 0.959 . S
C2833 H2840 0.961 . S
C2833 H2841 0.960 . S
C2834 C2832 1.380 1_545 S
C2834 C2835 1.394 1_545 S
C2834 H2842 0.930 . S
C2835 C2834 1.394 1_565 S
C2835 C2836 1.383 . S
C2835 H2843 0.929 . S
C2836 C2835 1.383 . S
C2836 C2837 1.377 . S
C2837 H2821 0.930 . S
C2837 C2836 1.377 . S
C2837 C2838 1.379 . S
C2838 H2822 0.931 . S
C2838 C2832 1.379 . S
C2838 C2837 1.379 . S
H2839 C2833 0.959 . S
H2840 C2833 0.961 . S
H2841 C2833 0.960 . S
H2842 C2834 0.930 . S
H2843 C2835 0.929 . S
H2844 C2852 0.929 1_655 S
H2845 C2854 0.930 . S
H2846 C2856 0.930 . S
H2847 C2859 0.929 . S
H2848 C2862 0.930 . S
H2849 C2864 0.960 . S
H2850 C2864 0.960 . S
H2851 C2864 0.960 1_455 S
C2852 H2844 0.929 1_455 S
C2852 C2853 1.377 . S
C2852 C2854 1.384 1_455 S
C2853 C2852 1.377 . S
C2853 C2859 1.390 . S
C2854 H2845 0.930 . S
C2854 C2852 1.384 1_655 S
C2854 C2855 1.372 1_655 S
C2855 C2854 1.372 1_455 S
C2855 C2856 1.400 . S
C2855 C2860 1.490 1_455 S
C2856 H2846 0.930 . S
C2856 C2855 1.400 . S
C2856 C2859 1.386 . S
H2857 C2873 0.930 . S
H2858 C2874 0.931 . S
C2859 H2847 0.929 . S
C2859 C2853 1.390 . S
C2859 C2856 1.386 . S
C2860 C2855 1.490 1_655 S
C2860 C2862 1.395 . S
C2860 C2863 1.403 . S
H2861 C2867 0.930 . S
C2862 H2848 0.930 . S
C2862 C2860 1.395 . S
C2862 C2865 1.403 . S
C2863 C2860 1.403 . S
C2863 C2864 1.524 . S
C2863 C2867 1.400 . S
C2864 H2849 0.960 . S
C2864 H2850 0.960 . S
C2864 H2851 0.960 1_655 S
C2864 C2863 1.524 . S
C2865 C2862 1.403 . S
C2865 C2866 1.392 . S
C2865 C2869 1.495 . S
C2866 C2865 1.392 . S
C2866 C2867 1.385 . S
C2866 C2868 1.478 . S
C2867 H2861 0.930 . S
C2867 C2863 1.400 . S
C2867 C2866 1.385 . S
C2868 C2866 1.478 . S
C2868 C2870 1.381 . S
C2868 C2874 1.383 . S
C2869 C2865 1.495 . S
C2869 H2875 0.959 . S
C2869 H2876 0.961 . S
C2869 H2877 0.960 . S
C2870 C2868 1.381 . S
C2870 C2871 1.394 . S
C2870 H2878 0.930 . S
C2871 C2870 1.394 . S
C2871 C2872 1.383 . S
C2871 H2879 0.929 . S
C2872 C2871 1.383 . S
C2872 C2873 1.377 . S
C2873 H2857 0.930 . S
C2873 C2872 1.377 . S
C2873 C2874 1.379 . S
C2874 H2858 0.931 . S
C2874 C2868 1.383 . S
C2874 C2873 1.379 . S
H2875 C2869 0.959 . S
H2876 C2869 0.961 . S
H2877 C2869 0.960 . S
H2878 C2870 0.930 . S
H2879 C2871 0.929 . S
H2880 C2888 0.929 . S
H2881 C2890 0.930 . S
H2882 C2892 0.930 . S
H2883 C2895 0.929 . S
H2884 C2898 0.930 . S
H2885 C2900 0.960 . S
H2886 C2900 0.960 . S
H2887 C2900 0.960 . S
C2888 H2880 0.929 . S
C2888 C2889 1.377 . S
C2888 C2890 1.384 . S
C2889 C2888 1.377 . S
C2889 C2895 1.390 . S
C2890 H2881 0.930 . S
C2890 C2888 1.384 . S
C2890 C2891 1.372 . S
C2891 C2890 1.372 . S
C2891 C2892 1.400 . S
C2891 C2896 1.490 . S
C2892 H2882 0.930 . S
C2892 C2891 1.400 . S
C2892 C2895 1.386 . S
H2893 C2909 0.930 . S
H2894 C2910 0.931 . S
C2895 H2883 0.929 . S
C2895 C2889 1.390 . S
C2895 C2892 1.386 . S
C2896 C2891 1.490 . S
C2896 C2898 1.395 . S
C2896 C2899 1.403 . S
H2897 C2903 0.930 . S
C2898 H2884 0.930 . S
C2898 C2896 1.395 . S
C2898 C2901 1.403 1_655 S
C2899 C2896 1.403 . S
C2899 C2900 1.524 . S
C2899 C2903 1.400 1_655 S
C2900 H2885 0.960 . S
C2900 H2886 0.960 . S
C2900 H2887 0.960 . S
C2900 C2899 1.524 . S
C2901 C2898 1.403 1_455 S
C2901 C2902 1.392 . S
C2901 C2905 1.495 . S
C2902 C2901 1.392 . S
C2902 C2903 1.385 . S
C2902 C2904 1.478 . S
C2903 H2897 0.930 . S
C2903 C2899 1.400 1_455 S
C2903 C2902 1.385 . S
C2904 C2902 1.478 . S
C2904 C2906 1.381 . S
C2904 C2910 1.383 . S
C2905 C2901 1.495 . S
C2905 H2911 0.959 . S
C2905 H2912 0.961 . S
C2905 H2913 0.960 . S
C2906 C2904 1.381 . S
C2906 C2907 1.394 . S
C2906 H2914 0.930 . S
C2907 C2906 1.394 . S
C2907 C2908 1.383 . S
C2907 H2915 0.929 . S
C2908 C2907 1.383 . S
C2908 C2909 1.377 . S
C2909 H2893 0.930 . S
C2909 C2908 1.377 . S
C2909 C2910 1.379 . S
C2910 H2894 0.931 . S
C2910 C2904 1.383 . S
C2910 C2909 1.379 . S
H2911 C2905 0.959 . S
H2912 C2905 0.961 . S
H2913 C2905 0.960 . S
H2914 C2906 0.930 . S
H2915 C2907 0.929 . S
H2916 C2924 0.929 . S
H2917 C2926 0.930 . S
H2918 C2928 0.930 . S
H2919 C2931 0.929 . S
H2920 C2934 0.930 . S
H2921 C2936 0.960 . S
H2922 C2936 0.960 . S
H2923 C2936 0.960 . S
C2924 H2916 0.929 . S
C2924 C2925 1.377 . S
C2924 C2926 1.384 . S
C2925 C2924 1.377 . S
C2925 C2931 1.390 . S
C2926 H2917 0.930 . S
C2926 C2924 1.384 . S
C2926 C2927 1.372 . S
C2927 C2926 1.372 . S
C2927 C2928 1.400 . S
C2927 C2932 1.490 . S
C2928 H2918 0.930 . S
C2928 C2927 1.400 . S
C2928 C2931 1.386 . S
H2929 C2945 0.930 . S
H2930 C2946 0.931 . S
C2931 H2919 0.929 . S
C2931 C2925 1.390 . S
C2931 C2928 1.386 . S
C2932 C2927 1.490 . S
C2932 C2934 1.395 . S
C2932 C2935 1.403 . S
H2933 C2939 0.930 . S
C2934 H2920 0.930 . S
C2934 C2932 1.395 . S
C2934 C2937 1.403 . S
C2935 C2932 1.403 . S
C2935 C2936 1.524 . S
C2935 C2939 1.400 . S
C2936 H2921 0.960 . S
C2936 H2922 0.960 . S
C2936 H2923 0.960 . S
C2936 C2935 1.524 . S
C2937 C2934 1.403 . S
C2937 C2938 1.392 . S
C2937 C2941 1.495 . S
C2938 C2937 1.392 . S
C2938 C2939 1.385 . S
C2938 C2940 1.478 . S
C2939 H2933 0.930 . S
C2939 C2935 1.400 . S
C2939 C2938 1.385 . S
C2940 C2938 1.478 . S
C2940 C2942 1.381 . S
C2940 C2946 1.383 . S
C2941 C2937 1.495 . S
C2941 H2947 0.959 . S
C2941 H2948 0.961 . S
C2941 H2949 0.960 . S
C2942 C2940 1.381 . S
C2942 C2943 1.394 . S
C2942 H2950 0.930 . S
C2943 C2942 1.394 . S
C2943 C2944 1.383 . S
C2943 H2951 0.929 . S
C2944 C2943 1.383 . S
C2944 C2945 1.377 . S
C2945 H2929 0.930 . S
C2945 C2944 1.377 . S
C2945 C2946 1.379 . S
C2946 H2930 0.931 . S
C2946 C2940 1.383 . S
C2946 C2945 1.379 . S
H2947 C2941 0.959 . S
H2948 C2941 0.961 . S
H2949 C2941 0.960 . S
H2950 C2942 0.930 . S
H2951 C2943 0.929 . S
H2952 C2960 0.929 . S
H2953 C2962 0.930 . S
H2954 C2964 0.930 . S
H2955 C2967 0.929 . S
H2956 C2970 0.930 . S
H2957 C2972 0.960 . S
H2958 C2972 0.960 . S
H2959 C2972 0.960 . S
C2960 H2952 0.929 . S
C2960 C2961 1.377 . S
C2960 C2962 1.384 . S
C2961 C2960 1.377 . S
C2961 C2967 1.390 . S
C2962 H2953 0.930 . S
C2962 C2960 1.384 . S
C2962 C2963 1.372 . S
C2963 C2962 1.372 . S
C2963 C2964 1.400 . S
C2963 C2968 1.490 . S
C2964 H2954 0.930 . S
C2964 C2963 1.400 . S
C2964 C2967 1.386 . S
H2965 C2981 0.930 . S
H2966 C2982 0.931 . S
C2967 H2955 0.929 . S
C2967 C2961 1.390 . S
C2967 C2964 1.386 . S
C2968 C2963 1.490 . S
C2968 C2970 1.395 . S
C2968 C2971 1.403 . S
H2969 C2975 0.930 . S
C2970 H2956 0.930 . S
C2970 C2968 1.395 . S
C2970 C2973 1.403 1_565 S
C2971 C2968 1.403 . S
C2971 C2972 1.524 . S
C2971 C2975 1.400 1_565 S
C2972 H2957 0.960 . S
C2972 H2958 0.960 . S
C2972 H2959 0.960 . S
C2972 C2971 1.524 . S
C2973 C2970 1.403 1_545 S
C2973 C2974 1.392 . S
C2973 C2977 1.495 . S
C2974 C2973 1.392 . S
C2974 C2975 1.385 . S
C2974 C2976 1.478 . S
C2975 H2969 0.930 . S
C2975 C2971 1.400 1_545 S
C2975 C2974 1.385 . S
C2976 C2974 1.478 . S
C2976 C2978 1.381 . S
C2976 C2982 1.383 . S
C2977 C2973 1.495 . S
C2977 H2983 0.959 . S
C2977 H2984 0.961 . S
C2977 H2985 0.960 . S
C2978 C2976 1.381 . S
C2978 C2979 1.394 . S
C2978 H2986 0.930 . S
C2979 C2978 1.394 . S
C2979 C2980 1.383 . S
C2979 H2987 0.929 . S
C2980 C2979 1.383 . S
C2980 C2981 1.377 . S
C2981 H2965 0.930 . S
C2981 C2980 1.377 . S
C2981 C2982 1.379 . S
C2982 H2966 0.931 . S
C2982 C2976 1.383 . S
C2982 C2981 1.379 . S
H2983 C2977 0.959 . S
H2984 C2977 0.961 . S
H2985 C2977 0.960 . S
H2986 C2978 0.930 . S
H2987 C2979 0.929 . S
H2988 C2996 0.929 . S
H2989 C2998 0.930 . S
H2990 C3000 0.930 . S
H2991 C3003 0.929 . S
H2992 C3006 0.930 . S
H2993 C3008 0.960 . S
H2994 C3008 0.960 . S
H2995 C3008 0.960 . S
C2996 H2988 0.929 . S
C2996 C2997 1.377 . S
C2996 C2998 1.384 . S
C2997 C2996 1.377 . S
C2997 C3003 1.390 . S
C2998 H2989 0.930 . S
C2998 C2996 1.384 . S
C2998 C2999 1.372 . S
C2999 C2998 1.372 . S
C2999 C3000 1.400 . S
C2999 C3004 1.490 . S
C3000 H2990 0.930 . S
C3000 C2999 1.400 . S
C3000 C3003 1.386 . S
H3001 C3017 0.930 . S
H3002 C3018 0.931 . S
C3003 H2991 0.929 . S
C3003 C2997 1.390 . S
C3003 C3000 1.386 . S
C3004 C2999 1.490 . S
C3004 C3006 1.395 . S
C3004 C3007 1.403 . S
H3005 C3011 0.930 . S
C3006 H2992 0.930 . S
C3006 C3004 1.395 . S
C3006 C3009 1.403 1_565 S
C3007 C3004 1.403 . S
C3007 C3008 1.524 . S
C3007 C3011 1.400 1_565 S
C3008 H2993 0.960 . S
C3008 H2994 0.960 . S
C3008 H2995 0.960 . S
C3008 C3007 1.524 . S
C3009 C3006 1.403 1_545 S
C3009 C3010 1.392 . S
C3009 C3013 1.495 . S
C3010 C3009 1.392 . S
C3010 C3011 1.385 . S
C3010 C3012 1.478 . S
C3011 H3005 0.930 . S
C3011 C3007 1.400 1_545 S
C3011 C3010 1.385 . S
C3012 C3010 1.478 . S
C3012 C3014 1.381 . S
C3012 C3018 1.383 . S
C3013 C3009 1.495 . S
C3013 H3019 0.959 . S
C3013 H3020 0.961 . S
C3013 H3021 0.960 . S
C3014 C3012 1.381 . S
C3014 C3015 1.394 . S
C3014 H3022 0.930 . S
C3015 C3014 1.394 . S
C3015 C3016 1.383 . S
C3015 H3023 0.929 . S
C3016 C3015 1.383 . S
C3016 C3017 1.377 . S
C3017 H3001 0.930 . S
C3017 C3016 1.377 . S
C3017 C3018 1.379 . S
C3018 H3002 0.931 . S
C3018 C3012 1.383 . S
C3018 C3017 1.379 . S
H3019 C3013 0.959 . S
H3020 C3013 0.961 . S
H3021 C3013 0.960 . S
H3022 C3014 0.930 . S
H3023 C3015 0.929 . S
H3024 C3032 0.929 . S
H3025 C3034 0.930 . S
H3026 C3036 0.930 . S
H3027 C3039 0.929 . S
H3028 C3042 0.930 . S
H3029 C3044 0.960 . S
H3030 C3044 0.960 . S
H3031 C3044 0.960 . S
C3032 H3024 0.929 . S
C3032 C3033 1.377 . S
C3032 C3034 1.384 . S
C3033 C3032 1.377 . S
C3033 C3039 1.390 . S
C3034 H3025 0.930 . S
C3034 C3032 1.384 . S
C3034 C3035 1.372 . S
C3035 C3034 1.372 . S
C3035 C3036 1.400 . S
C3035 C3040 1.490 . S
C3036 H3026 0.930 . S
C3036 C3035 1.400 . S
C3036 C3039 1.386 . S
H3037 C3053 0.930 . S
H3038 C3054 0.931 . S
C3039 H3027 0.929 . S
C3039 C3033 1.390 . S
C3039 C3036 1.386 . S
C3040 C3035 1.490 . S
C3040 C3042 1.395 . S
C3040 C3043 1.403 . S
H3041 C3047 0.930 . S
C3042 H3028 0.930 . S
C3042 C3040 1.395 . S
C3042 C3045 1.403 1_655 S
C3043 C3040 1.403 . S
C3043 C3044 1.524 . S
C3043 C3047 1.400 1_655 S
C3044 H3029 0.960 . S
C3044 H3030 0.960 . S
C3044 H3031 0.960 . S
C3044 C3043 1.524 . S
C3045 C3042 1.403 1_455 S
C3045 C3046 1.392 . S
C3045 C3049 1.495 . S
C3046 C3045 1.392 . S
C3046 C3047 1.385 . S
C3046 C3048 1.478 . S
C3047 H3041 0.930 . S
C3047 C3043 1.400 1_455 S
C3047 C3046 1.385 . S
C3048 C3046 1.478 . S
C3048 C3050 1.381 . S
C3048 C3054 1.383 . S
C3049 C3045 1.495 . S
C3049 H3055 0.959 . S
C3049 H3056 0.961 . S
C3049 H3057 0.960 . S
C3050 C3048 1.381 . S
C3050 C3051 1.394 . S
C3050 H3058 0.930 . S
C3051 C3050 1.394 . S
C3051 C3052 1.383 . S
C3051 H3059 0.929 . S
C3052 C3051 1.383 . S
C3052 C3053 1.377 . S
C3053 H3037 0.930 . S
C3053 C3052 1.377 . S
C3053 C3054 1.379 . S
C3054 H3038 0.931 . S
C3054 C3048 1.383 . S
C3054 C3053 1.379 . S
H3055 C3049 0.959 . S
H3056 C3049 0.961 . S
H3057 C3049 0.960 . S
H3058 C3050 0.930 . S
H3059 C3051 0.929 . S
H3060 C3068 0.929 . S
H3061 C3070 0.930 . S
H3062 C3072 0.930 . S
H3063 C3075 0.929 . S
H3064 C3078 0.930 . S
H3065 C3080 0.960 . S
H3066 C3080 0.960 . S
H3067 C3080 0.960 . S
C3068 H3060 0.929 . S
C3068 C3069 1.377 . S
C3068 C3070 1.384 . S
C3069 C3068 1.377 . S
C3069 C3075 1.390 . S
C3070 H3061 0.930 . S
C3070 C3068 1.384 . S
C3070 C3071 1.372 . S
C3071 C3070 1.372 . S
C3071 C3072 1.400 . S
C3071 C3076 1.490 . S
C3072 H3062 0.930 . S
C3072 C3071 1.400 . S
C3072 C3075 1.386 . S
H3073 C3089 0.930 . S
H3074 C3090 0.931 . S
C3075 H3063 0.929 . S
C3075 C3069 1.390 . S
C3075 C3072 1.386 . S
C3076 C3071 1.490 . S
C3076 C3078 1.395 . S
C3076 C3079 1.403 . S
H3077 C3083 0.930 . S
C3078 H3064 0.930 . S
C3078 C3076 1.395 . S
C3078 C3081 1.403 . S
C3079 C3076 1.403 . S
C3079 C3080 1.524 . S
C3079 C3083 1.400 . S
C3080 H3065 0.960 . S
C3080 H3066 0.960 . S
C3080 H3067 0.960 . S
C3080 C3079 1.524 . S
C3081 C3078 1.403 . S
C3081 C3082 1.392 . S
C3081 C3085 1.495 . S
C3082 C3081 1.392 . S
C3082 C3083 1.385 . S
C3082 C3084 1.478 . S
C3083 H3077 0.930 . S
C3083 C3079 1.400 . S
C3083 C3082 1.385 . S
C3084 C3082 1.478 . S
C3084 C3086 1.381 . S
C3084 C3090 1.383 . S
C3085 C3081 1.495 . S
C3085 H3091 0.959 . S
C3085 H3092 0.961 . S
C3085 H3093 0.960 . S
C3086 C3084 1.381 . S
C3086 C3087 1.394 . S
C3086 H3094 0.930 . S
C3087 C3086 1.394 . S
C3087 C3088 1.383 . S
C3087 H3095 0.929 . S
C3088 C3087 1.383 . S
C3088 C3089 1.377 . S
C3089 H3073 0.930 . S
C3089 C3088 1.377 . S
C3089 C3090 1.379 . S
C3090 H3074 0.931 . S
C3090 C3084 1.383 . S
C3090 C3089 1.379 . S
H3091 C3085 0.959 . S
H3092 C3085 0.961 . S
H3093 C3085 0.960 . S
H3094 C3086 0.930 . S
H3095 C3087 0.929 . S
C513 C7 1.258 . S
C532 C259 1.239 . S
C549 C21 1.262 . S
C568 C273 1.261 . S
C585 C287 1.259 . S
C604 C35 1.272 . S
C621 C49 1.259 . S
C640 C469 1.243 . S
C657 C483 1.255 . S
C676 C63 1.249 . S
C693 C77 1.257 . S
C712 C497 1.239 . S
C729 C343 1.260 . S
C748 C91 1.273 . S
C765 C105 1.262 . S
C784 C357 1.255 . S
C801 C119 1.257 . S
C820 C371 1.238 . S
C837 C133 1.257 . S
C856 C217 1.239 . S
C873 C231 1.259 . S
C892 C147 1.241 . S
C909 C161 1.262 . S
C928 C245 1.257 . S
C945 C175 1.261 . S
C964 C427 1.256 . S
C981 C189 1.259 . S
C1000 C441 1.241 . S
C1017 C203 1.260 . S
C1036 C455 1.273 . S
C1053 C301 1.255 . S
C1072 C385 1.243 . S
C1089 C315 1.255 . S
C1108 C399 1.244 . S
C1125 C329 1.255 . S
C1144 C413 1.254 . S
C1161 C106 1.364 . S
C1180 C6 1.404 . S
C1197 C120 1.374 . S
C1216 C20 1.412 . S
C1233 C34 1.403 . S
C1252 C92 1.337 . S
C1269 C162 1.369 . S
C1288 C48 1.392 . S
C1305 C134 1.364 . S
C1324 C62 1.387 . S
C1341 C148 1.363 . S
C1360 C76 1.388 . S
C1377 C90 1.408 . S
C1396 C22 1.363 . S
C1413 C104 1.407 . S
C1432 C36 1.359 . S
C1449 C118 1.404 . S
C1468 C8 1.337 . S
C1485 C132 1.407 . S
C1504 C78 1.393 . S
C1521 C50 1.364 . S
C1540 C146 1.408 . S
C1557 C64 1.367 . S
C1576 C160 1.415 . S
C1593 C174 1.408 . S
C1612 C274 1.390 . S
C1629 C188 1.408 . S
C1648 C288 1.386 . S
C1665 C202 1.408 . S
C1684 C260 1.377 . S
C1701 C330 1.374 . S
C1720 C216 1.408 . S
C1737 C230 1.403 . S
C1756 C302 1.337 . S
C1773 C316 1.370 . S
C1792 C244 1.395 . S
C1809 C258 1.408 . S
C1828 C190 1.383 . S
C1845 C204 1.365 . S
C1864 C272 1.387 . S
C1881 C176 1.373 . S
C1900 C286 1.414 . S
C1917 C300 1.408 . S
C1936 C246 1.356 . S
C1953 C314 1.402 . S
C1972 C218 1.349 . S
C1989 C328 1.405 . S
C2008 C232 1.392 . S
C2025 C442 1.372 . S
C2044 C342 1.417 . S
C2061 C356 1.407 . S
C2080 C456 1.369 . S
C2097 C370 1.408 . S
C2116 C428 1.388 . S
C2133 C498 1.363 . S
C2152 C384 1.392 . S
C2169 C470 1.366 . S
C2188 C398 1.387 . S
C2205 C484 1.363 . S
C2224 C412 1.400 . S
C2241 C358 1.374 . S
C2260 C426 1.406 . S
C2277 C372 1.365 . S
C2296 C440 1.411 . S
C2313 C344 1.363 . S
C2332 C454 1.406 . S
C2349 C468 1.406 . S
C2368 C414 1.393 . S
C2385 C386 1.374 . S
C2404 C482 1.402 . S
C2421 C496 1.407 . S
C2440 C400 1.360 . S
C2457 C9 1.040 . S
C2476 C415 1.006 . S
C2493 C387 1.026 . S
C2512 C23 1.071 . S
C2529 C37 1.039 . S
C2548 C401 0.996 . S
C2565 C51 1.023 . S
C2584 C191 1.059 . S
C2601 C205 1.030 . S
C2620 C65 0.995 . S
C2637 C79 1.022 . S
C2656 C177 1.055 . S
C2673 C331 1.024 . S
C2692 C93 0.999 . S
C2709 C107 1.025 . S
C2728 C303 1.005 . S
C2745 C121 1.039 . S
C2764 C317 1.066 . S
C2781 C135 1.022 . S
C2800 C443 0.988 . S
C2817 C149 1.039 . S
C2836 C457 1.066 . S
C2853 C429 1.040 . S
C2872 C163 1.071 . S
C2889 C219 1.040 . S
C2908 C359 1.023 . S
C2925 C373 1.040 . S
C2944 C233 1.018 . S
C2961 C345 1.030 . S
C2980 C247 0.994 . S
C2997 C499 1.034 . S
C3016 C261 1.040 . S
C3033 C275 1.023 . S
C3052 C471 0.988 . S
C3069 C289 1.029 . S
C3088 C485 1.015 . S
