# Generated by pormake.
# Topology vbm, (6)-cn, num edge types: 1
# Building blocks:
#     Node 0, Type 0, BuildingBlock: CUKXOW_clean_sbu_0, # of connection points: 6
#     Node 1, Type 0, BuildingBlock: CUKXOW_clean_sbu_0, # of connection points: 6
#     Node 2, Type 0, BuildingBlock: CUKXOW_clean_sbu_0, # of connection points: 6
#     Node 3, Type 0, BuildingBlock: CUKXOW_clean_sbu_0, # of connection points: 6
#     Node 4, Type 0, BuildingBlock: CUKXOW_clean_sbu_0, # of connection points: 6
#     Node 5, Type 0, BuildingBlock: CUKXOW_clean_sbu_0, # of connection points: 6
#     Node 6, Type 0, BuildingBlock: CUKXOW_clean_sbu_0, # of connection points: 6
#     Node 7, Type 0, BuildingBlock: CUKXOW_clean_sbu_0, # of connection points: 6
#     Node 8, Type 0, BuildingBlock: CUKXOW_clean_sbu_0, # of connection points: 6
#     Node 9, Type 0, BuildingBlock: CUKXOW_clean_sbu_0, # of connection points: 6
#     Node 10, Type 0, BuildingBlock: CUKXOW_clean_sbu_0, # of connection points: 6
#     Node 11, Type 0, BuildingBlock: CUKXOW_clean_sbu_0, # of connection points: 6
#     Node 12, Type 0, BuildingBlock: CUKXOW_clean_sbu_0, # of connection points: 6
#     Node 13, Type 0, BuildingBlock: CUKXOW_clean_sbu_0, # of connection points: 6
#     Node 14, Type 0, BuildingBlock: CUKXOW_clean_sbu_0, # of connection points: 6
#     Node 15, Type 0, BuildingBlock: CUKXOW_clean_sbu_0, # of connection points: 6
#     Edge 16, Type (0, 0), BuildingBlock: ZUJKAS_clean_linker_0, # of connection points: 2
#     Edge 17, Type (0, 0), BuildingBlock: ZUJKAS_clean_linker_0, # of connection points: 2
#     Edge 18, Type (0, 0), BuildingBlock: ZUJKAS_clean_linker_0, # of connection points: 2
#     Edge 19, Type (0, 0), BuildingBlock: ZUJKAS_clean_linker_0, # of connection points: 2
#     Edge 20, Type (0, 0), BuildingBlock: ZUJKAS_clean_linker_0, # of connection points: 2
#     Edge 21, Type (0, 0), BuildingBlock: ZUJKAS_clean_linker_0, # of connection points: 2
#     Edge 22, Type (0, 0), BuildingBlock: ZUJKAS_clean_linker_0, # of connection points: 2
#     Edge 23, Type (0, 0), BuildingBlock: ZUJKAS_clean_linker_0, # of connection points: 2
#     Edge 24, Type (0, 0), BuildingBlock: ZUJKAS_clean_linker_0, # of connection points: 2
#     Edge 25, Type (0, 0), BuildingBlock: ZUJKAS_clean_linker_0, # of connection points: 2
#     Edge 26, Type (0, 0), BuildingBlock: ZUJKAS_clean_linker_0, # of connection points: 2
#     Edge 27, Type (0, 0), BuildingBlock: ZUJKAS_clean_linker_0, # of connection points: 2
#     Edge 28, Type (0, 0), BuildingBlock: ZUJKAS_clean_linker_0, # of connection points: 2
#     Edge 29, Type (0, 0), BuildingBlock: ZUJKAS_clean_linker_0, # of connection points: 2
#     Edge 30, Type (0, 0), BuildingBlock: ZUJKAS_clean_linker_0, # of connection points: 2
#     Edge 31, Type (0, 0), BuildingBlock: ZUJKAS_clean_linker_0, # of connection points: 2
#     Edge 32, Type (0, 0), BuildingBlock: ZUJKAS_clean_linker_0, # of connection points: 2
#     Edge 33, Type (0, 0), BuildingBlock: ZUJKAS_clean_linker_0, # of connection points: 2
#     Edge 34, Type (0, 0), BuildingBlock: ZUJKAS_clean_linker_0, # of connection points: 2
#     Edge 35, Type (0, 0), BuildingBlock: ZUJKAS_clean_linker_0, # of connection points: 2
#     Edge 36, Type (0, 0), BuildingBlock: ZUJKAS_clean_linker_0, # of connection points: 2
#     Edge 37, Type (0, 0), BuildingBlock: ZUJKAS_clean_linker_0, # of connection points: 2
#     Edge 38, Type (0, 0), BuildingBlock: ZUJKAS_clean_linker_0, # of connection points: 2
#     Edge 39, Type (0, 0), BuildingBlock: ZUJKAS_clean_linker_0, # of connection points: 2
#     Edge 40, Type (0, 0), BuildingBlock: ZUJKAS_clean_linker_0, # of connection points: 2
#     Edge 41, Type (0, 0), BuildingBlock: ZUJKAS_clean_linker_0, # of connection points: 2
#     Edge 42, Type (0, 0), BuildingBlock: ZUJKAS_clean_linker_0, # of connection points: 2
#     Edge 43, Type (0, 0), BuildingBlock: ZUJKAS_clean_linker_0, # of connection points: 2
#     Edge 44, Type (0, 0), BuildingBlock: ZUJKAS_clean_linker_0, # of connection points: 2
#     Edge 45, Type (0, 0), BuildingBlock: ZUJKAS_clean_linker_0, # of connection points: 2
#     Edge 46, Type (0, 0), BuildingBlock: ZUJKAS_clean_linker_0, # of connection points: 2
#     Edge 47, Type (0, 0), BuildingBlock: ZUJKAS_clean_linker_0, # of connection points: 2
#     Edge 48, Type (0, 0), BuildingBlock: ZUJKAS_clean_linker_0, # of connection points: 2
#     Edge 49, Type (0, 0), BuildingBlock: ZUJKAS_clean_linker_0, # of connection points: 2
#     Edge 50, Type (0, 0), BuildingBlock: ZUJKAS_clean_linker_0, # of connection points: 2
#     Edge 51, Type (0, 0), BuildingBlock: ZUJKAS_clean_linker_0, # of connection points: 2
#     Edge 52, Type (0, 0), BuildingBlock: ZUJKAS_clean_linker_0, # of connection points: 2
#     Edge 53, Type (0, 0), BuildingBlock: ZUJKAS_clean_linker_0, # of connection points: 2
#     Edge 54, Type (0, 0), BuildingBlock: ZUJKAS_clean_linker_0, # of connection points: 2
#     Edge 55, Type (0, 0), BuildingBlock: ZUJKAS_clean_linker_0, # of connection points: 2
#     Edge 56, Type (0, 0), BuildingBlock: ZUJKAS_clean_linker_0, # of connection points: 2
#     Edge 57, Type (0, 0), BuildingBlock: ZUJKAS_clean_linker_0, # of connection points: 2
#     Edge 58, Type (0, 0), BuildingBlock: ZUJKAS_clean_linker_0, # of connection points: 2
#     Edge 59, Type (0, 0), BuildingBlock: ZUJKAS_clean_linker_0, # of connection points: 2
#     Edge 60, Type (0, 0), BuildingBlock: ZUJKAS_clean_linker_0, # of connection points: 2
#     Edge 61, Type (0, 0), BuildingBlock: ZUJKAS_clean_linker_0, # of connection points: 2
#     Edge 62, Type (0, 0), BuildingBlock: ZUJKAS_clean_linker_0, # of connection points: 2
#     Edge 63, Type (0, 0), BuildingBlock: ZUJKAS_clean_linker_0, # of connection points: 2
# Relax obj value: 0.123
# Max RMSD: 0.176
# Mean RMSD: 0.176
data_MOF--net-vbm--node1-CUKXOW_clean_sbu_0--edge1-ZUJKAS_clean_linker_0
_symmetry_space_group_name_H-M    P1
_symmetry_Int_Tables_number       1
_symmetry_cell_setting            triclinic
loop_
_symmetry_equiv_pos_as_xyz
'x, y, z'
_cell_length_a     88.863591
_cell_length_b     19.056823
_cell_length_c     78.408628
_cell_angle_alpha  90.094544
_cell_angle_beta   89.939774
_cell_angle_gamma 89.984867
loop_
_atom_site_label
_atom_site_type_symbol
_atom_site_fract_x
_atom_site_fract_y
_atom_site_fract_z
_atom_type_partial_charge
Tb0 Tb 0.10414 0.13185 0.12388 0.0
C1 C 0.12292 0.14359 0.08949 0.0
Tb2 Tb 0.1396 0.16088 0.1247 0.0
O3 O 0.09695 0.2428 0.12601 0.0
O4 O 0.11917 0.21742 0.12577 0.0
O5 O 0.11111 0.11583 0.09746 0.0
C6 C 0.16697 0.21821 0.12673 0.0
O7 O 0.1346 0.17162 0.09765 0.0
C8 C 0.13337 1.02392 0.12204 0.0
C9 C 0.1214 0.13564 0.15889 0.0
O10 O 0.15689 0.23377 0.11532 0.0
O11 O 0.1615 0.17153 0.13703 0.0
O12 O 0.14685 0.05022 0.12216 0.0
O13 O 0.12456 0.07559 0.12294 0.0
O14 O 0.13291 0.16841 0.15149 0.0
O15 O 0.10977 0.10979 0.15028 0.0
C16 C 0.07641 0.07867 0.12165 0.0
O17 O 0.08513 0.074 0.13492 0.0
O18 O 0.08347 0.11177 0.10962 0.0
C19 C 0.11039 0.26918 0.12644 0.0
Tb20 Tb 0.88842 0.93939 0.12425 0.0
C21 C 0.87182 0.90886 0.08964 0.0
Tb22 Tb 0.85295 0.9091 0.12404 0.0
O23 O 0.89561 0.82812 0.12551 0.0
O24 O 0.87342 0.85346 0.12531 0.0
O25 O 0.88328 0.94133 0.09717 0.0
C26 C 0.82551 0.85241 0.12379 0.0
O27 O 0.86012 0.88269 0.09815 0.0
C28 C 0.8591 0.04659 0.12256 0.0
C29 C 0.86903 0.95195 0.15814 0.0
O30 O 0.83118 0.8918 0.11193 0.0
O31 O 0.83546 0.84346 0.13576 0.0
O32 O 0.84565 1.02013 0.12297 0.0
O33 O 0.86791 0.99484 0.12291 0.0
O34 O 0.85776 0.9157 0.15128 0.0
O35 O 0.88087 0.97448 0.14931 0.0
C36 C 0.91617 0.99251 0.12514 0.0
O37 O 0.90953 0.95976 0.13755 0.0
O38 O 0.90701 0.99691 0.11224 0.0
C39 C 0.88218 0.80162 0.12574 0.0
Tb40 Tb 0.10326 0.9468 0.37108 0.0
C41 C 0.12055 0.92466 0.4053 0.0
Tb42 Tb 0.13878 0.91651 0.37124 0.0
O43 O 0.09612 0.83576 0.36846 0.0
O44 O 0.11828 0.86104 0.37005 0.0
O45 O 0.11008 0.96254 0.39749 0.0
C46 C 0.16615 0.85896 0.37206 0.0
O47 O 0.13126 0.89021 0.39694 0.0
C48 C 0.13254 0.05395 0.37283 0.0
C49 C 0.12192 0.94968 0.33641 0.0
O50 O 0.16039 0.89918 0.38374 0.0
O51 O 0.15634 0.84984 0.35993 0.0
O52 O 0.14602 1.02768 0.37238 0.0
O53 O 0.12378 1.00207 0.37252 0.0
O54 O 0.13409 0.92292 0.34394 0.0
O55 O 0.10935 0.96719 0.34465 0.0
C56 C 0.07556 1.00044 0.37308 0.0
O57 O 0.08488 1.01032 0.36051 0.0
O58 O 0.082 0.96185 0.38458 0.0
C59 C 0.10957 0.80929 0.36883 0.0
Tb60 Tb 0.88614 0.13115 0.37232 0.0
C61 C 0.86932 0.14417 0.4068 0.0
Tb62 Tb 0.85308 0.14814 0.37078 0.0
O63 O 0.88875 0.23544 0.38332 0.0
O64 O 0.87147 0.21683 0.36603 0.0
O65 O 0.8815 0.11874 0.39925 0.0
C66 C 0.82395 0.18355 0.37279 0.0
O67 O 0.85752 0.16626 0.39794 0.0
C68 C 0.86213 1.01704 0.36713 0.0
C69 C 0.86977 0.12739 0.33662 0.0
O70 O 0.82967 0.12354 0.37695 0.0
O71 O 0.83468 0.22455 0.36762 0.0
O72 O 0.85043 0.04383 0.35974 0.0
O73 O 0.86773 0.06243 0.37707 0.0
O74 O 0.85799 0.15828 0.34377 0.0
O75 O 0.8812 0.10378 0.34582 0.0
C76 C 0.91541 0.09966 0.36937 0.0
O77 O 0.90855 0.15061 0.36173 0.0
O78 O 0.90574 0.06553 0.3786 0.0
C79 C 0.87703 0.26211 0.376 0.0
Tb80 Tb 0.85356 0.90798 0.87105 0.0
C81 C 0.86907 0.93494 0.83627 0.0
Tb82 Tb 0.88662 0.92862 0.87129 0.0
O83 O 0.84948 1.01322 0.86125 0.0
O84 O 0.86798 0.9952 0.87692 0.0
O85 O 0.85748 0.9039 0.84374 0.0
C86 C 0.91565 0.96414 0.86791 0.0
O87 O 0.88091 0.95676 0.84508 0.0
C88 C 0.87821 0.79632 0.87496 0.0
C89 C 0.87092 0.91081 0.90626 0.0
O90 O 0.90897 0.91291 0.86011 0.0
O91 O 0.90592 0.99626 0.87749 0.0
O92 O 0.8901 0.82382 0.88176 0.0
O93 O 0.87216 0.8416 0.8654 0.0
O94 O 0.88253 0.93985 0.89839 0.0
O95 O 0.85922 0.88568 0.89769 0.0
C96 C 0.82497 0.86525 0.87419 0.0
O97 O 0.83098 0.91813 0.88204 0.0
O98 O 0.8351 0.83579 0.86464 0.0
C99 C 0.86156 0.0406 0.86767 0.0
Tb100 Tb 0.13878 0.15419 0.87157 0.0
C101 C 0.12184 0.12454 0.83664 0.0
Tb102 Tb 0.10327 0.12435 0.87142 0.0
O103 O 0.14599 0.043 0.8719 0.0
O104 O 0.12376 0.06872 0.87272 0.0
O105 O 0.134 0.1506 0.84431 0.0
C106 C 0.07558 0.07013 0.87303 0.0
O107 O 0.10928 0.10624 0.8448 0.0
C108 C 0.10953 0.26178 0.86942 0.0
C109 C 0.12072 0.14527 0.90587 0.0
O110 O 0.08517 0.05909 0.86077 0.0
O111 O 0.08174 0.1102 0.88444 0.0
O112 O 0.0961 0.23522 0.86898 0.0
O113 O 0.1183 0.21011 0.87056 0.0
O114 O 0.10985 0.10995 0.89797 0.0
O115 O 0.13167 0.17799 0.89752 0.0
C116 C 0.16621 0.21105 0.87242 0.0
O117 O 0.16047 0.17038 0.88398 0.0
O118 O 0.15635 0.2211 0.86041 0.0
C119 C 0.13252 1.01676 0.87254 0.0
Tb120 Tb 0.85118 0.16452 0.62473 0.0
C121 C 0.86749 0.12557 0.65908 0.0
Tb122 Tb 0.8867 0.13511 0.6249 0.0
O123 O 0.84397 0.05344 0.62401 0.0
O124 O 0.86624 0.07914 0.62392 0.0
O125 O 0.85596 0.15921 0.65197 0.0
C126 C 0.91451 0.08279 0.62567 0.0
O127 O 0.87946 0.10368 0.65034 0.0
C128 C 0.88032 0.27265 0.62585 0.0
C129 C 0.86992 0.16188 0.59021 0.0
O130 O 0.90804 0.11755 0.6379 0.0
O131 O 0.90513 0.0758 0.61304 0.0
O132 O 0.89378 0.24649 0.62562 0.0
O133 O 0.8716 0.22069 0.6256 0.0
O134 O 0.88151 0.13095 0.59785 0.0
O135 O 0.85818 0.1883 0.59864 0.0
C136 C 0.82374 0.22109 0.62428 0.0
O137 O 0.8294 0.1807 0.61259 0.0
O138 O 0.83369 0.23107 0.63621 0.0
C139 C 0.85746 1.02729 0.62369 0.0
Tb140 Tb 0.13797 0.91747 0.62326 0.0
C141 C 0.12185 0.95489 0.65793 0.0
Tb142 Tb 0.10241 0.94562 0.62388 0.0
O143 O 0.14507 1.02849 0.62267 0.0
O144 O 0.12278 1.00238 0.62274 0.0
O145 O 0.13354 0.92322 0.65058 0.0
C146 C 0.07461 0.99794 0.62507 0.0
O147 O 0.10967 0.97565 0.64944 0.0
C148 C 0.10895 0.80851 0.62473 0.0
C149 C 0.11891 0.91841 0.58892 0.0
O150 O 0.08097 0.96083 0.6369 0.0
O151 O 0.08407 1.00724 0.61259 0.0
O152 O 0.09545 0.83429 0.62476 0.0
O153 O 0.11764 0.86061 0.62429 0.0
O154 O 0.10695 0.946 0.59663 0.0
O155 O 0.13112 0.89577 0.59705 0.0
C156 C 0.16538 0.86061 0.62232 0.0
O157 O 0.1597 0.90188 0.61088 0.0
O158 O 0.15549 0.85008 0.6343 0.0
C159 C 0.13155 0.05432 0.62249 0.0
Tb160 Tb 0.60408 0.62712 0.12582 0.0
C161 C 0.62038 0.6567 0.09086 0.0
Tb162 Tb 0.63959 0.65659 0.125 0.0
O163 O 0.59698 0.73849 0.12679 0.0
O164 O 0.61917 0.71264 0.12635 0.0
O165 O 0.60889 0.62507 0.09859 0.0
C166 C 0.66707 0.71277 0.12438 0.0
O167 O 0.63223 0.68232 0.09918 0.0
C168 C 0.63328 0.51932 0.12387 0.0
C169 C 0.62371 0.61828 0.15969 0.0
O170 O 0.66132 0.67273 0.11267 0.0
O171 O 0.65717 0.72265 0.1364 0.0
O172 O 0.64677 0.54544 0.12389 0.0
O173 O 0.62452 0.5712 0.12442 0.0
O174 O 0.63515 0.65167 0.15231 0.0
O175 O 0.61164 0.59612 0.1512 0.0
C176 C 0.57632 0.57422 0.12715 0.0
O177 O 0.58288 0.60959 0.13919 0.0
O178 O 0.58557 0.56703 0.11438 0.0
C179 C 0.61045 0.76462 0.12679 0.0
Tb180 Tb 0.38811 0.44025 0.12326 0.0
C181 C 0.3703 0.4203 0.08906 0.0
Tb182 Tb 0.35363 0.41676 0.12467 0.0
O183 O 0.3954 0.32979 0.12571 0.0
O184 O 0.37312 0.35498 0.12533 0.0
O185 O 0.38208 0.45006 0.09652 0.0
C186 C 0.32497 0.3758 0.12228 0.0
O187 O 0.35867 0.39561 0.09785 0.0
C188 C 0.36251 0.5485 0.12846 0.0
C189 C 0.37136 0.43485 0.15887 0.0
O190 O 0.33089 0.42908 0.11449 0.0
O191 O 0.33525 0.34483 0.13136 0.0
O192 O 0.35041 0.52189 0.13507 0.0
O193 O 0.36847 0.5028 0.11884 0.0
O194 O 0.35943 0.40574 0.1515 0.0
O195 O 0.38304 0.45911 0.15008 0.0
C196 C 0.41609 0.49054 0.12098 0.0
O197 O 0.40654 0.50597 0.133 0.0
O198 O 0.40975 0.44826 0.11021 0.0
C199 C 0.38197 0.30357 0.12615 0.0
Tb200 Tb 0.60344 0.43989 0.37213 0.0
C201 C 0.61947 0.41216 0.4073 0.0
Tb202 Tb 0.63894 0.40982 0.37328 0.0
O203 O 0.59628 0.32863 0.3711 0.0
O204 O 0.61847 0.35405 0.37195 0.0
O205 O 0.60806 0.4434 0.39936 0.0
C206 C 0.66626 0.35213 0.37463 0.0
O207 O 0.6314 0.38604 0.39917 0.0
C208 C 0.63271 0.54727 0.37407 0.0
C209 C 0.6234 0.44802 0.3384 0.0
O210 O 0.66076 0.39652 0.38554 0.0
O211 O 0.65623 0.33902 0.36295 0.0
O212 O 0.64619 0.52087 0.37414 0.0
O213 O 0.62391 0.49552 0.37357 0.0
O214 O 0.63482 0.41504 0.3459 0.0
O215 O 0.61122 0.47009 0.34676 0.0
C216 C 0.57571 0.49346 0.37089 0.0
O217 O 0.58233 0.45907 0.3587 0.0
O218 O 0.58489 0.49932 0.38374 0.0
C219 C 0.60972 0.30221 0.37136 0.0
Tb220 Tb 0.38728 0.62422 0.37163 0.0
C221 C 0.36778 0.63762 0.4054 0.0
Tb222 Tb 0.35184 0.65263 0.36966 0.0
O223 O 0.39441 0.73524 0.36965 0.0
O224 O 0.37222 0.70954 0.3692 0.0
O225 O 0.37978 0.60925 0.39789 0.0
C226 C 0.32448 0.7097 0.36691 0.0
O227 O 0.35634 0.66531 0.3968 0.0
C228 C 0.35804 0.51581 0.37259 0.0
C229 C 0.37085 0.62674 0.33609 0.0
O230 O 0.33392 0.72176 0.37923 0.0
O231 O 0.33059 0.66675 0.35608 0.0
O232 O 0.34456 0.54205 0.37194 0.0
O233 O 0.36687 0.56743 0.37199 0.0
O234 O 0.35914 0.65959 0.34308 0.0
O235 O 0.38229 0.60142 0.34509 0.0
C236 C 0.4151 0.57205 0.37415 0.0
O237 O 0.40645 0.56658 0.36085 0.0
O238 O 0.4079 0.6052 0.38611 0.0
C239 C 0.38097 0.7614 0.36876 0.0
Tb240 Tb 0.352 0.41536 0.87131 0.0
C241 C 0.36802 0.45448 0.83677 0.0
Tb242 Tb 0.38752 0.44466 0.8707 0.0
O243 O 0.3448 0.5264 0.87246 0.0
O244 O 0.36708 0.50084 0.872 0.0
O245 O 0.35653 0.42095 0.84402 0.0
C246 C 0.41536 0.49684 0.86948 0.0
O247 O 0.38005 0.47636 0.84537 0.0
C248 C 0.38113 0.30712 0.86959 0.0
C249 C 0.37103 0.4163 0.90556 0.0
O250 O 0.40871 0.46258 0.85732 0.0
O251 O 0.40615 0.50339 0.88231 0.0
O252 O 0.39459 0.3333 0.86962 0.0
O253 O 0.37241 0.35908 0.87011 0.0
O254 O 0.38255 0.44774 0.89786 0.0
O255 O 0.35925 0.39017 0.89719 0.0
C256 C 0.32454 0.3589 0.87206 0.0
O257 O 0.33031 0.39908 0.88372 0.0
O258 O 0.33439 0.34908 0.85999 0.0
C259 C 0.35828 0.55263 0.87256 0.0
Tb260 Tb 0.63813 0.6642 0.87199 0.0
C261 C 0.62088 0.64511 0.83748 0.0
Tb262 Tb 0.60364 0.63909 0.87284 0.0
O263 O 0.64203 0.5586 0.8622 0.0
O264 O 0.62336 0.57746 0.87752 0.0
O265 O 0.63267 0.67452 0.84506 0.0
C266 C 0.5757 0.58772 0.87456 0.0
O267 O 0.60908 0.62074 0.84606 0.0
C268 C 0.60961 0.77621 0.87054 0.0
C269 C 0.62102 0.65927 0.90729 0.0
O270 O 0.58535 0.57393 0.86252 0.0
O271 O 0.58193 0.62895 0.88565 0.0
O272 O 0.59621 0.74965 0.87108 0.0
O273 O 0.6185 0.7249 0.87099 0.0
O274 O 0.6095 0.62819 0.89963 0.0
O275 O 0.63258 0.68565 0.89866 0.0
C276 C 0.66653 0.70865 0.87479 0.0
O277 O 0.66056 0.65747 0.88334 0.0
O278 O 0.65645 0.73546 0.86472 0.0
C279 C 0.62974 0.53172 0.86826 0.0
Tb280 Tb 0.35089 0.65494 0.62454 0.0
C281 C 0.36868 0.62623 0.65827 0.0
Tb282 Tb 0.38635 0.62565 0.62361 0.0
O283 O 0.34361 0.54423 0.62228 0.0
O284 O 0.36589 0.56946 0.62326 0.0
O285 O 0.35789 0.6644 0.6511 0.0
C286 C 0.4142 0.57353 0.62422 0.0
O287 O 0.3796 0.59612 0.64928 0.0
C288 C 0.38 0.76323 0.62491 0.0
C289 C 0.36811 0.64367 0.58908 0.0
O290 O 0.40759 0.60624 0.63668 0.0
O291 O 0.40494 0.5684 0.61144 0.0
O292 O 0.39345 0.73711 0.62394 0.0
O293 O 0.3713 0.7112 0.6251 0.0
O294 O 0.38044 0.61918 0.59669 0.0
O295 O 0.35602 0.66677 0.59748 0.0
C296 C 0.32357 0.71212 0.6272 0.0
O297 O 0.33286 0.7223 0.61462 0.0
O298 O 0.3298 0.67094 0.63829 0.0
C299 C 0.35709 0.51787 0.62232 0.0
Tb300 Tb 0.63782 0.41805 0.62525 0.0
C301 C 0.6216 0.45707 0.65984 0.0
Tb302 Tb 0.6023 0.44704 0.62575 0.0
O303 O 0.64499 0.52906 0.62425 0.0
O304 O 0.62271 0.50329 0.62455 0.0
O305 O 0.63328 0.42485 0.65257 0.0
C306 C 0.57445 0.49898 0.62634 0.0
O307 O 0.60947 0.47785 0.65127 0.0
C308 C 0.60874 0.30965 0.62664 0.0
C309 C 0.61882 0.41838 0.5909 0.0
O310 O 0.58077 0.46354 0.6385 0.0
O311 O 0.584 0.50697 0.6139 0.0
O312 O 0.59527 0.33565 0.62653 0.0
O313 O 0.61744 0.36169 0.62632 0.0
O314 O 0.60727 0.4495 0.59862 0.0
O315 O 0.6307 0.39304 0.59923 0.0
C316 C 0.66527 0.36157 0.62465 0.0
O317 O 0.6596 0.40205 0.61302 0.0
O318 O 0.65533 0.35147 0.6366 0.0
C319 C 0.63149 0.55513 0.62412 0.0
H320 H 0.1891 0.17765 0.14839 0.0
H321 H 0.21581 0.20837 0.14719 0.0
H322 H 0.20734 0.34229 0.10398 0.0
H323 H 0.18049 0.31156 0.1051 0.0
H324 H 0.23482 0.18526 0.11743 0.0
H325 H 0.23267 0.46488 0.13785 0.0
H326 H 0.21767 0.40366 0.1424 0.0
H327 H 0.21978 0.43888 0.12132 0.0
C328 C 0.19289 0.21434 0.13876 0.0
C329 C 0.18275 0.24235 0.12684 0.0
C330 C 0.20815 0.23165 0.13807 0.0
C331 C 0.21352 0.27782 0.12557 0.0
C332 C 0.20337 0.30718 0.11386 0.0
H333 H 0.30313 0.43582 0.10293 0.0
H334 H 0.27617 0.4095 0.10301 0.0
C335 C 0.18807 0.28955 0.11449 0.0
C336 C 0.22988 0.29217 0.12433 0.0
H337 H 0.25629 0.42057 0.12924 0.0
C338 C 0.23955 0.23666 0.12002 0.0
C339 C 0.23595 0.35933 0.12762 0.0
C340 C 0.22604 0.42022 0.13268 0.0
C341 C 0.25517 0.24663 0.11877 0.0
C342 C 0.26131 0.31358 0.12235 0.0
C343 C 0.25159 0.36924 0.12653 0.0
C344 C 0.27777 0.32711 0.12188 0.0
C345 C 0.2649 0.1857 0.11329 0.0
C346 C 0.28765 0.28957 0.13248 0.0
C347 C 0.30309 0.30418 0.13235 0.0
C348 C 0.30886 0.35714 0.12178 0.0
C349 C 0.29898 0.39455 0.11118 0.0
C350 C 0.28358 0.37971 0.11124 0.0
H351 H 0.25828 0.14534 0.10633 0.0
H352 H 0.27427 0.20343 0.10496 0.0
H353 H 0.2698 0.16046 0.12475 0.0
H354 H 0.28339 0.24986 0.14108 0.0
H355 H 0.31045 0.27501 0.14076 0.0
H356 H 0.804 0.87636 0.09999 0.0
H357 H 0.77704 0.8527 0.10223 0.0
H358 H 0.78388 0.75802 0.15153 0.0
H359 H 0.81103 0.78147 0.14934 0.0
H360 H 0.76411 0.68199 0.12908 0.0
H361 H 0.74855 0.96308 0.13449 0.0
H362 H 0.7604 0.9433 0.11654 0.0
H363 H 0.76751 0.9318 0.1378 0.0
C364 C 0.79979 0.84996 0.11126 0.0
C365 C 0.80957 0.831 0.12454 0.0
C366 C 0.78438 0.83697 0.11256 0.0
C367 C 0.77844 0.80497 0.12719 0.0
C368 C 0.78825 0.78339 0.14021 0.0
H369 H 0.68165 0.7851 0.14964 0.0
H370 H 0.70881 0.80834 0.15162 0.0
C371 C 0.80372 0.79658 0.13892 0.0
C372 C 0.76198 0.79447 0.12877 0.0
H373 H 0.72851 0.8828 0.12898 0.0
C374 C 0.75632 0.72582 0.12922 0.0
C375 C 0.75186 0.85182 0.12921 0.0
C376 C 0.75735 0.92671 0.12965 0.0
C377 C 0.74076 0.71297 0.12936 0.0
C378 C 0.73064 0.77031 0.12886 0.0
C379 C 0.7363 0.83897 0.12916 0.0
C380 C 0.71417 0.75977 0.1274 0.0
C381 C 0.73527 0.63811 0.12996 0.0
C382 C 0.70819 0.72692 0.11289 0.0
C383 C 0.69276 0.71403 0.11171 0.0
C384 C 0.68302 0.73398 0.12498 0.0
C385 C 0.68892 0.76923 0.13923 0.0
C386 C 0.70441 0.7823 0.1404 0.0
H387 H 0.74408 0.60198 0.13485 0.0
H388 H 0.72511 0.63339 0.13815 0.0
H389 H 0.73222 0.62089 0.11689 0.0
H390 H 0.71549 0.71047 0.10256 0.0
H391 H 0.68851 0.68698 0.10055 0.0
H392 H 0.30401 0.68342 0.34199 0.0
H393 H 0.27711 0.71091 0.34221 0.0
H394 H 0.28208 0.8122 0.39112 0.0
H395 H 0.30909 0.78569 0.39083 0.0
H396 H 0.25635 0.66523 0.36588 0.0
H397 H 0.25789 0.95618 0.36428 0.0
H398 H 0.27407 0.90286 0.35916 0.0
H399 H 0.26898 0.91841 0.38104 0.0
C400 C 0.29941 0.71255 0.35266 0.0
C401 C 0.30862 0.7327 0.36637 0.0
C402 C 0.28403 0.728 0.3528 0.0
C403 C 0.27759 0.76414 0.3666 0.0
C404 C 0.28685 0.78545 0.38018 0.0
H405 H 0.18729 0.8808 0.39644 0.0
H406 H 0.21416 0.85351 0.395 0.0
C407 C 0.30226 0.77011 0.38003 0.0
C408 C 0.26108 0.77596 0.36718 0.0
H409 H 0.23421 0.90351 0.37022 0.0
C410 C 0.25149 0.71735 0.36672 0.0
C411 C 0.25477 0.84397 0.36829 0.0
C412 C 0.26444 0.90904 0.36806 0.0
C413 C 0.23578 0.72482 0.36771 0.0
C414 C 0.22949 0.79279 0.36895 0.0
C415 C 0.23907 0.85141 0.36931 0.0
C416 C 0.21301 0.80451 0.37013 0.0
C417 C 0.22608 0.65989 0.36786 0.0
C418 C 0.2034 0.78542 0.35667 0.0
C419 C 0.18799 0.8008 0.3575 0.0
C420 C 0.18201 0.83584 0.37175 0.0
C421 C 0.1916 0.85357 0.38532 0.0
C422 C 0.20695 0.83824 0.3845 0.0
H423 H 0.23269 0.61206 0.37092 0.0
H424 H 0.2168 0.66513 0.37728 0.0
H425 H 0.22099 0.65255 0.35506 0.0
H426 H 0.20787 0.76037 0.34535 0.0
H427 H 0.18086 0.78706 0.34681 0.0
H428 H 0.80105 0.09411 0.37976 0.0
H429 H 0.77406 0.11837 0.37924 0.0
H430 H 0.78314 0.33419 0.36622 0.0
H431 H 0.81026 0.30938 0.36622 0.0
H432 H 0.7575 0.20433 0.39811 0.0
H433 H 0.75264 0.28276 0.33032 0.0
H434 H 0.76934 0.24201 0.33883 0.0
H435 H 0.76608 0.33439 0.34189 0.0
C436 C 0.79729 0.14671 0.37674 0.0
C437 C 0.80771 0.19986 0.37296 0.0
C438 C 0.78186 0.1605 0.37644 0.0
C439 C 0.77653 0.22778 0.3724 0.0
C440 C 0.78696 0.28141 0.36893 0.0
H441 H 0.68829 0.38955 0.3967 0.0
H442 H 0.71476 0.35556 0.39603 0.0
C443 C 0.80244 0.26742 0.36908 0.0
C444 C 0.76007 0.24174 0.37236 0.0
H445 H 0.73122 0.30421 0.34793 0.0
C446 C 0.75175 0.22584 0.38709 0.0
C447 C 0.75249 0.26852 0.35788 0.0
C448 C 0.76056 0.28224 0.34128 0.0
C449 C 0.73616 0.23733 0.38789 0.0
C450 C 0.72871 0.26737 0.37373 0.0
C451 C 0.73695 0.28179 0.35884 0.0
C452 C 0.7125 0.28626 0.37428 0.0
C453 C 0.72781 0.21618 0.40385 0.0
C454 C 0.70242 0.25996 0.36202 0.0
C455 C 0.68725 0.28008 0.36226 0.0
C456 C 0.68196 0.32689 0.37475 0.0
C457 C 0.69203 0.35279 0.38703 0.0
C458 C 0.70716 0.33311 0.38672 0.0
H459 H 0.73392 0.17443 0.41091 0.0
H460 H 0.72683 0.26231 0.41244 0.0
H461 H 0.71632 0.197 0.40086 0.0
H462 H 0.70632 0.22407 0.35224 0.0
H463 H 0.67973 0.25969 0.35259 0.0
H464 H 0.68726 0.66774 0.89821 0.0
H465 H 0.71406 0.69701 0.89898 0.0
H466 H 0.70884 0.82149 0.85343 0.0
H467 H 0.68188 0.79454 0.85306 0.0
H468 H 0.73548 0.66679 0.87714 0.0
H469 H 0.73182 0.95593 0.88255 0.0
H470 H 0.71565 0.89988 0.88525 0.0
H471 H 0.72203 0.92323 0.8642 0.0
C472 C 0.69181 0.70212 0.8885 0.0
C473 C 0.68251 0.7293 0.87564 0.0
C474 C 0.70713 0.71866 0.88892 0.0
C475 C 0.71348 0.76231 0.87641 0.0
C476 C 0.70417 0.78932 0.8635 0.0
H477 H 0.80964 0.77536 0.85339 0.0
H478 H 0.78266 0.74906 0.85395 0.0
C479 C 0.68878 0.77356 0.86322 0.0
C480 C 0.72994 0.77684 0.87653 0.0
H481 H 0.75595 0.90871 0.8758 0.0
C482 C 0.73995 0.71975 0.87695 0.0
C483 C 0.73581 0.84589 0.87653 0.0
C484 C 0.72577 0.9097 0.87729 0.0
C485 C 0.75561 0.72968 0.8772 0.0
C486 C 0.76149 0.79866 0.87644 0.0
C487 C 0.75148 0.85577 0.8762 0.0
C488 C 0.77794 0.81311 0.87619 0.0
C489 C 0.76564 0.66608 0.87871 0.0
C490 C 0.78427 0.85932 0.88818 0.0
C491 C 0.7996 0.87548 0.88764 0.0
C492 C 0.80895 0.84535 0.87517 0.0
C493 C 0.8027 0.79864 0.86326 0.0
C494 C 0.7873 0.78327 0.86365 0.0
H495 H 0.75957 0.62102 0.8845 0.0
H496 H 0.7694 0.6498 0.8658 0.0
H497 H 0.77575 0.67752 0.88656 0.0
H498 H 0.77731 0.88319 0.89795 0.0
H499 H 0.80414 0.9118 0.89695 0.0
H500 H 0.30337 0.3827 0.89631 0.0
H501 H 0.27648 0.35632 0.89493 0.0
H502 H 0.28269 0.26092 0.8455 0.0
H503 H 0.30976 0.28688 0.84688 0.0
H504 H 0.2563 0.40499 0.86959 0.0
H505 H 0.25827 0.11351 0.87267 0.0
H506 H 0.27401 0.16787 0.87881 0.0
H507 H 0.26991 0.15367 0.85665 0.0
C508 C 0.29905 0.35529 0.88524 0.0
C509 C 0.30863 0.3366 0.87172 0.0
C510 C 0.28368 0.34054 0.88444 0.0
C511 C 0.2776 0.30645 0.87016 0.0
C512 C 0.28719 0.28649 0.85674 0.0
H513 H 0.18084 0.28501 0.84749 0.0
H514 H 0.20789 0.31134 0.84602 0.0
C515 C 0.30262 0.30136 0.85752 0.0
C516 C 0.26114 0.29428 0.86922 0.0
H517 H 0.2344 0.16565 0.869 0.0
C518 C 0.25149 0.3527 0.86937 0.0
C519 C 0.25493 0.226 0.86905 0.0
C520 C 0.26477 0.16148 0.86941 0.0
C521 C 0.23578 0.34464 0.86952 0.0
C522 C 0.22957 0.27636 0.86935 0.0
C523 C 0.23921 0.21796 0.86904 0.0
C524 C 0.21311 0.2641 0.8704 0.0
C525 C 0.22594 0.40909 0.87039 0.0
C526 C 0.20712 0.22899 0.88456 0.0
C527 C 0.19176 0.21405 0.88542 0.0
C528 C 0.1821 0.23356 0.87207 0.0
C529 C 0.18803 0.26986 0.85801 0.0
C530 C 0.20345 0.28494 0.85716 0.0
H531 H 0.23245 0.45681 0.87381 0.0
H532 H 0.22066 0.4179 0.85775 0.0
H533 H 0.21678 0.40191 0.87988 0.0
H534 H 0.21438 0.21252 0.89491 0.0
H535 H 0.1875 0.18583 0.89639 0.0
H536 H 0.6866 0.38599 0.60067 0.0
H537 H 0.71352 0.3606 0.60237 0.0
H538 H 0.70699 0.26445 0.65158 0.0
H539 H 0.67989 0.28948 0.64989 0.0
H540 H 0.73323 0.4102 0.62835 0.0
H541 H 0.73207 0.11867 0.62427 0.0
H542 H 0.71631 0.17242 0.61791 0.0
H543 H 0.72007 0.15802 0.64011 0.0
C544 C 0.69086 0.35861 0.61176 0.0
C545 C 0.68118 0.3395 0.62514 0.0
C546 C 0.70624 0.34442 0.61274 0.0
C547 C 0.71223 0.31051 0.62707 0.0
C548 C 0.70255 0.28997 0.64033 0.0
H549 H 0.80912 0.29257 0.64971 0.0
H550 H 0.78202 0.3174 0.65153 0.0
C551 C 0.68711 0.30428 0.63936 0.0
C552 C 0.7287 0.29921 0.62822 0.0
H553 H 0.75578 0.17211 0.62802 0.0
C554 C 0.73818 0.35818 0.62839 0.0
C555 C 0.73509 0.23128 0.62816 0.0
C556 C 0.72542 0.16628 0.62748 0.0
C557 C 0.75391 0.35103 0.62828 0.0
C558 C 0.7603 0.2831 0.62815 0.0
C559 C 0.75082 0.22413 0.6282 0.0
C560 C 0.77677 0.27185 0.62694 0.0
C561 C 0.76358 0.41606 0.62774 0.0
C562 C 0.78276 0.23828 0.61252 0.0
C563 C 0.79815 0.2242 0.61147 0.0
C564 C 0.80783 0.24308 0.62486 0.0
C565 C 0.8019 0.27796 0.63916 0.0
C566 C 0.78645 0.29215 0.64021 0.0
H567 H 0.75693 0.46374 0.62465 0.0
H568 H 0.76891 0.42403 0.64039 0.0
H569 H 0.7727 0.41017 0.61815 0.0
H570 H 0.77548 0.22229 0.60214 0.0
H571 H 0.80241 0.19708 0.60031 0.0
H572 H 0.1801 0.7883 0.64741 0.0
H573 H 0.20721 0.76333 0.64891 0.0
H574 H 0.21341 0.85784 0.59946 0.0
H575 H 0.18649 0.8834 0.59797 0.0
H576 H 0.22647 0.68679 0.62638 0.0
H577 H 0.24253 0.96782 0.6304 0.0
H578 H 0.22351 0.93773 0.63392 0.0
H579 H 0.23068 0.94656 0.61258 0.0
C580 C 0.18726 0.80307 0.63682 0.0
C581 C 0.18126 0.83815 0.62263 0.0
C582 C 0.20271 0.78897 0.6377 0.0
C583 C 0.21234 0.81013 0.62445 0.0
C584 C 0.20623 0.84253 0.60998 0.0
H585 H 0.30794 0.78533 0.60307 0.0
H586 H 0.28082 0.81036 0.60291 0.0
C587 C 0.19083 0.85662 0.6091 0.0
C588 C 0.2288 0.79912 0.62574 0.0
H589 H 0.26241 0.88614 0.62631 0.0
C590 C 0.23434 0.73028 0.62649 0.0
C591 C 0.23902 0.8561 0.62585 0.0
C592 C 0.23367 0.93127 0.6258 0.0
C593 C 0.24987 0.71679 0.62692 0.0
C594 C 0.26009 0.77378 0.62691 0.0
C595 C 0.25454 0.84262 0.62627 0.0
C596 C 0.27659 0.76281 0.62751 0.0
C597 C 0.25522 0.64163 0.62693 0.0
C598 C 0.28322 0.72991 0.64161 0.0
C599 C 0.29864 0.71574 0.64173 0.0
C600 C 0.3077 0.73463 0.62778 0.0
C601 C 0.30118 0.77022 0.61397 0.0
C602 C 0.28572 0.78437 0.61386 0.0
H603 H 0.24626 0.60486 0.62271 0.0
H604 H 0.26516 0.63498 0.61848 0.0
H605 H 0.25858 0.6268 0.64007 0.0
H606 H 0.27642 0.71423 0.65243 0.0
H607 H 0.3034 0.68852 0.65258 0.0
H608 H 0.09836 0.97549 0.31496 0.0
H609 H 0.09938 1.00679 0.28482 0.0
H610 H 0.14781 0.99139 0.2858 0.0
H611 H 0.14687 0.95802 0.31589 0.0
H612 H 0.11219 0.11952 0.27057 0.0
H613 H 0.13831 0.87898 0.24371 0.0
H614 H 0.13099 0.88273 0.26516 0.0
H615 H 0.14922 0.91873 0.26037 0.0
C616 C 0.10924 0.97794 0.30874 0.0
C617 C 0.12254 0.96397 0.31785 0.0
C618 C 0.1098 0.99597 0.2915 0.0
C619 C 0.12365 1.00071 0.28297 0.0
C620 C 0.13696 0.98643 0.29198 0.0
H621 H 0.1456 0.14775 0.18034 0.0
H622 H 0.14658 0.11909 0.21079 0.0
C623 C 0.1364 0.96762 0.30922 0.0
C624 C 0.1241 1.02375 0.26488 0.0
H625 H 0.13575 0.97603 0.22495 0.0
C626 C 0.11731 0.08799 0.26061 0.0
C627 C 0.13081 0.98267 0.25186 0.0
C628 C 0.13762 0.91165 0.25544 0.0
C629 C 0.11705 0.11216 0.24371 0.0
C630 C 0.12375 0.07112 0.23077 0.0
C631 C 0.13072 1.00745 0.23499 0.0
C632 C 0.12301 0.09193 0.21263 0.0
C633 C 0.10963 0.18142 0.23974 0.0
C634 C 0.10942 0.08635 0.2037 0.0
C635 C 0.10882 0.10219 0.18632 0.0
C636 C 0.12181 0.12433 0.17758 0.0
C637 C 0.13536 0.13134 0.1867 0.0
C638 C 0.13597 0.11473 0.20407 0.0
H639 H 0.10719 0.21226 0.25146 0.0
H640 H 0.1169 0.21317 0.23119 0.0
H641 H 0.09886 0.17166 0.23299 0.0
H642 H 0.09932 0.06839 0.21011 0.0
H643 H 0.09819 0.09627 0.17971 0.0
H644 H 0.88545 1.02694 0.31949 0.0
H645 H 0.8846 1.00005 0.2891 0.0
H646 H 0.85327 0.17004 0.28131 0.0
H647 H 0.85357 0.19527 0.31197 0.0
H648 H 0.84462 0.05912 0.26403 0.0
H649 H 0.90517 0.10003 0.25126 0.0
H650 H 0.90234 1.03522 0.26747 0.0
H651 H 0.89657 0.12462 0.27122 0.0
C652 C 0.87849 0.0591 0.31129 0.0
C653 C 0.86969 0.11373 0.31807 0.0
C654 C 0.87807 0.04385 0.29388 0.0
C655 C 0.86916 0.08408 0.28281 0.0
C656 C 0.86031 0.13855 0.28958 0.0
H657 H 0.88157 0.06613 0.17322 0.0
H658 H 0.88046 0.10006 0.20319 0.0
C659 C 0.86051 0.15304 0.30708 0.0
C660 C 0.86879 0.06789 0.26428 0.0
H661 H 0.89131 0.03941 0.22969 0.0
C662 C 0.85482 0.05545 0.25647 0.0
C663 C 0.88207 0.06413 0.25433 0.0
C664 C 0.89735 0.08248 0.26147 0.0
C665 C 0.85378 0.03822 0.23909 0.0
C666 C 0.86713 1.03074 0.22937 0.0
C667 C 0.88107 0.04421 0.23715 0.0
C668 C 0.86701 1.01098 0.21103 0.0
C669 C 0.83836 1.02991 0.23128 0.0
C670 C 0.85979 0.94955 0.20536 0.0
C671 C 0.86017 0.93072 0.18809 0.0
C672 C 0.86814 0.97194 0.17631 0.0
C673 C 0.87545 1.03294 0.18203 0.0
C674 C 0.87481 0.05246 0.19917 0.0
H675 H 0.82968 0.05873 0.23872 0.0
H676 H 0.83814 0.04919 0.21793 0.0
H677 H 0.83523 0.97356 0.2313 0.0
H678 H 0.85408 0.91549 0.2143 0.0
H679 H 0.85455 0.88309 0.18404 0.0
H680 H 0.88833 0.05427 0.67793 0.0
H681 H 0.88688 1.02136 0.70788 0.0
H682 H 0.84371 0.12314 0.71213 0.0
H683 H 0.84505 0.15707 0.68203 0.0
H684 H 0.86403 0.15428 0.73908 0.0
H685 H 0.85935 0.8677 0.72773 0.0
H686 H 0.87499 0.90801 0.71702 0.0
H687 H 0.8561 0.93178 0.7112 0.0
C688 C 0.8785 0.06984 0.68515 0.0
C689 C 0.86676 0.10807 0.67748 0.0
C690 C 0.87766 0.05054 0.70229 0.0
C691 C 0.86507 0.06869 0.71212 0.0
C692 C 0.85347 0.10815 0.70469 0.0
H693 H 0.84666 0.90071 0.8137 0.0
H694 H 0.84486 0.93386 0.78362 0.0
C695 C 0.85427 0.12746 0.68749 0.0
C696 C 0.86422 0.04728 0.73024 0.0
H697 H 0.86472 0.90372 0.75624 0.0
C698 C 0.86405 0.09954 0.74285 0.0
C699 C 0.86407 0.9758 0.73509 0.0
C700 C 0.86349 0.9175 0.72206 0.0
C701 C 0.86426 0.08217 0.76024 0.0
C702 C 0.86483 1.01073 0.76508 0.0
C703 C 0.86446 0.95845 0.75248 0.0
C704 C 0.86609 0.98929 0.78317 0.0
C705 C 0.86386 0.1404 0.7733 0.0
C706 C 0.87879 1.00809 0.79273 0.0
C707 C 0.8799 0.98909 0.80988 0.0
C708 C 0.86832 0.95068 0.8178 0.0
C709 C 0.85576 0.93041 0.80804 0.0
C710 C 0.8547 0.94935 0.79085 0.0
H711 H 0.8595 0.19008 0.76778 0.0
H712 H 0.85673 0.12575 0.78438 0.0
H713 H 0.87544 0.15028 0.77801 0.0
H714 H 0.88785 0.03769 0.78693 0.0
H715 H 0.88976 1.00539 0.81696 0.0
H716 H 0.09857 0.09278 0.8151 0.0
H717 H 0.09993 0.06689 0.78457 0.0
H718 H 0.14782 0.10194 0.78528 0.0
H719 H 0.14665 0.12841 0.81582 0.0
H720 H 0.11526 0.16304 0.75694 0.0
H721 H 0.13854 0.89354 0.7651 0.0
H722 H 0.12758 0.93593 0.78158 0.0
H723 H 0.14645 0.96431 0.77746 0.0
C724 C 0.1094 0.09532 0.8088 0.0
C725 C 0.12251 0.11255 0.81796 0.0
C726 C 0.11014 0.08057 0.79135 0.0
C727 C 0.12398 0.08206 0.78279 0.0
C728 C 0.13705 0.10019 0.79175 0.0
H729 H 0.14657 0.95267 0.6789 0.0
H730 H 0.1477 0.98602 0.70906 0.0
C731 C 0.13633 0.11554 0.80919 0.0
C732 C 0.12472 0.06397 0.76447 0.0
H733 H 0.13417 0.9319 0.73703 0.0
C734 C 0.11942 0.11266 0.75253 0.0
C735 C 0.1303 0.99848 0.75886 0.0
C736 C 0.13602 0.94458 0.77134 0.0
C737 C 0.11952 0.09745 0.73501 0.0
C738 C 0.12464 1.03088 0.72937 0.0
C739 C 0.1302 0.98272 0.74135 0.0
C740 C 0.12394 1.00961 0.71116 0.0
C741 C 0.11435 0.15331 0.72271 0.0
C742 C 0.11016 1.01015 0.70244 0.0
C743 C 0.1095 0.9917 0.68522 0.0
C744 C 0.12257 0.9711 0.6764 0.0
C745 C 0.13629 0.9683 0.6853 0.0
C746 C 0.13696 0.98746 0.70253 0.0
H747 H 0.11544 0.20665 0.72832 0.0
H748 H 0.12088 0.15146 0.71064 0.0
H749 H 0.10229 0.1448 0.71967 0.0
H750 H 0.09988 1.0249 0.70896 0.0
H751 H 0.0987 0.99356 0.67884 0.0
H752 H 0.60285 0.51732 0.31867 0.0
H753 H 0.60455 0.54484 0.28838 0.0
H754 H 0.64788 0.44356 0.28575 0.0
H755 H 0.64627 0.41496 0.31613 0.0
H756 H 0.62672 0.62442 0.27153 0.0
H757 H 0.62377 0.35115 0.24677 0.0
H758 H 0.61863 0.37375 0.26837 0.0
H759 H 0.63811 0.36732 0.26245 0.0
C760 C 0.61274 0.50046 0.3117 0.0
C761 C 0.62441 0.46359 0.31989 0.0
C762 C 0.6137 0.51647 0.29436 0.0
C763 C 0.62627 0.4957 0.28479 0.0
C764 C 0.63797 0.45913 0.29286 0.0
H765 H 0.64622 0.65314 0.18218 0.0
H766 H 0.64771 0.62422 0.21254 0.0
C767 C 0.63704 0.44308 0.31025 0.0
C768 C 0.62709 0.51342 0.26641 0.0
H769 H 0.6274 0.4412 0.22652 0.0
C770 C 0.62694 0.58444 0.26167 0.0
C771 C 0.62723 0.46106 0.25361 0.0
C772 C 0.62682 0.38399 0.25797 0.0
C773 C 0.62685 0.60455 0.24445 0.0
C774 C 0.62709 0.5522 0.23165 0.0
C775 C 0.62732 0.48118 0.23638 0.0
C776 C 0.62634 0.56989 0.21326 0.0
C777 C 0.62603 0.68155 0.24008 0.0
C778 C 0.61396 0.54799 0.20356 0.0
C779 C 0.61307 0.56422 0.18623 0.0
C780 C 0.62462 0.60241 0.17818 0.0
C781 C 0.63708 0.62399 0.18795 0.0
C782 C 0.63794 0.60774 0.20533 0.0
H783 H 0.6227 0.71399 0.25126 0.0
H784 H 0.63725 0.69962 0.23568 0.0
H785 H 0.61786 0.69078 0.22962 0.0
H786 H 0.6049 0.51861 0.20944 0.0
H787 H 0.60332 0.54648 0.17915 0.0
H788 H 0.39466 0.58946 0.31593 0.0
H789 H 0.39426 0.55877 0.28568 0.0
H790 H 0.34657 0.60046 0.28399 0.0
H791 H 0.34696 0.63336 0.31412 0.0
H792 H 0.37954 0.45345 0.27078 0.0
H793 H 0.36037 0.70422 0.24236 0.0
H794 H 0.36659 0.69788 0.2642 0.0
H795 H 0.34781 0.67175 0.25842 0.0
C796 C 0.38412 0.59312 0.30907 0.0
C797 C 0.37085 0.61418 0.31744 0.0
C798 C 0.3839 0.57539 0.29178 0.0
C799 C 0.37042 0.57802 0.28248 0.0
C800 C 0.35718 0.59969 0.29075 0.0
H801 H 0.34723 0.42862 0.18061 0.0
H802 H 0.34674 0.45957 0.21097 0.0
C803 C 0.35742 0.61825 0.30802 0.0
C804 C 0.37014 0.55436 0.26441 0.0
H805 H 0.36069 0.60456 0.22398 0.0
C806 C 0.37548 0.48669 0.26056 0.0
C807 C 0.36483 0.5977 0.25105 0.0
C808 C 0.35972 0.67216 0.25416 0.0
C809 C 0.37557 0.46117 0.24375 0.0
C810 C 0.37014 0.50424 0.2305 0.0
C811 C 0.36472 0.5716 0.23428 0.0
C812 C 0.37058 0.48128 0.2125 0.0
C813 C 0.38141 0.38831 0.24019 0.0
C814 C 0.38418 0.48276 0.20345 0.0
C815 C 0.3845 0.46555 0.18613 0.0
C816 C 0.37122 0.44615 0.17756 0.0
C817 C 0.35767 0.44284 0.18683 0.0
C818 C 0.35734 0.46079 0.20414 0.0
H819 H 0.3835 0.35827 0.25208 0.0
H820 H 0.37327 0.35888 0.23217 0.0
H821 H 0.39213 0.39199 0.23296 0.0
H822 H 0.39448 0.49872 0.20972 0.0
H823 H 0.39513 0.46858 0.17939 0.0
H824 H 0.34523 0.42457 0.8142 0.0
H825 H 0.34401 0.45523 0.78391 0.0
H826 H 0.38771 0.55249 0.78731 0.0
H827 H 0.38902 0.523 0.8175 0.0
H828 H 0.36615 0.63496 0.77052 0.0
H829 H 0.36806 0.36277 0.74494 0.0
H830 H 0.35359 0.37951 0.76045 0.0
H831 H 0.37301 0.38365 0.76669 0.0
C832 C 0.35462 0.45222 0.8085 0.0
C833 C 0.36725 0.47106 0.81832 0.0
C834 C 0.35391 0.46947 0.79117 0.0
C835 C 0.36583 0.50551 0.78335 0.0
C836 C 0.37839 0.52458 0.79311 0.0
H837 H 0.38905 0.55424 0.67763 0.0
H838 H 0.38765 0.52814 0.70804 0.0
C839 C 0.37912 0.50743 0.81038 0.0
C840 C 0.36527 0.5243 0.76504 0.0
H841 H 0.36494 0.45418 0.72495 0.0
C842 C 0.36582 0.59553 0.76053 0.0
C843 C 0.365 0.47262 0.75208 0.0
C844 C 0.36501 0.39529 0.7562 0.0
C845 C 0.36618 0.61653 0.74338 0.0
C846 C 0.36579 0.56486 0.73042 0.0
C847 C 0.36515 0.49365 0.73493 0.0
C848 C 0.36667 0.58326 0.7121 0.0
C849 C 0.36744 0.69364 0.73927 0.0
C850 C 0.35532 0.6231 0.70429 0.0
C851 C 0.3561 0.63841 0.68686 0.0
C852 C 0.36819 0.61372 0.67692 0.0
C853 C 0.37957 0.57419 0.68486 0.0
C854 C 0.37879 0.55903 0.70225 0.0
H855 H 0.37103 0.72492 0.75053 0.0
H856 H 0.37559 0.70247 0.72875 0.0
H857 H 0.3563 0.71345 0.73508 0.0
H858 H 0.34575 0.64134 0.71161 0.0
H859 H 0.34708 0.66857 0.68115 0.0
H860 H 0.6453 0.65317 0.81622 0.0
H861 H 0.64641 0.62287 0.78595 0.0
H862 H 0.59869 0.5816 0.78607 0.0
H863 H 0.59755 0.60981 0.81644 0.0
H864 H 0.61389 0.47706 0.77115 0.0
H865 H 0.63357 0.73021 0.74438 0.0
H866 H 0.6457 0.6963 0.76068 0.0
H867 H 0.62678 0.72218 0.76598 0.0
C868 C 0.63499 0.63871 0.80976 0.0
C869 C 0.62132 0.63408 0.81877 0.0
C870 C 0.63564 0.62165 0.7924 0.0
C871 C 0.6226 0.60084 0.78364 0.0
C872 C 0.6089 0.59761 0.79254 0.0
H873 H 0.59841 0.49749 0.68051 0.0
H874 H 0.59947 0.52929 0.71067 0.0
C875 C 0.60826 0.61392 0.80991 0.0
C876 C 0.62331 0.5786 0.76548 0.0
H877 H 0.63334 0.63245 0.72546 0.0
C878 C 0.61811 0.5112 0.76118 0.0
C879 C 0.62885 0.62307 0.75244 0.0
C880 C 0.63391 0.69719 0.75604 0.0
C881 C 0.61829 0.48718 0.74425 0.0
C882 C 0.62384 0.53152 0.7313 0.0
C883 C 0.62921 0.59849 0.73552 0.0
C884 C 0.62335 0.5105 0.71315 0.0
C885 C 0.61251 0.41461 0.74022 0.0
C886 C 0.63647 0.48927 0.70461 0.0
C887 C 0.63591 0.47043 0.68735 0.0
C888 C 0.62224 0.4735 0.67832 0.0
C889 C 0.60914 0.49471 0.68702 0.0
C890 C 0.60969 0.51282 0.70427 0.0
H891 H 0.61049 0.38318 0.75192 0.0
H892 H 0.60176 0.41891 0.7331 0.0
H893 H 0.62065 0.38625 0.73195 0.0
H894 H 0.64711 0.48733 0.71131 0.0
H895 H 0.64622 0.4547 0.68102 0.0
H896 H 0.09988 0.08981 0.92786 0.0
H897 H 0.10033 0.09196 0.95903 0.0
H898 H 0.14225 0.20574 0.95792 0.0
H899 H 0.14183 0.20488 0.9268 0.0
H900 H 0.12202 0.03647 0.98063 0.0
H901 H 0.1167 0.32402 0.99026 0.0
H902 H 0.11279 0.28217 0.97007 0.0
H903 H 0.13189 0.29894 0.97643 0.0
C904 C 0.10916 0.11572 0.93421 0.0
C905 C 0.12079 0.14743 0.92478 0.0
C906 C 0.1094 0.11683 0.95205 0.0
C907 C 0.12121 0.14989 0.96079 0.0
C908 C 0.13286 0.18128 0.95144 0.0
H909 H 0.14441 0.19695 0.06793 0.0
H910 H 0.14424 0.19658 0.03673 0.0
C911 C 0.13263 0.18035 0.93362 0.0
C912 C 0.1216 0.14936 0.9797 0.0
H913 H 0.1224 0.25591 0.01476 0.0
C914 C 0.12202 0.08441 0.9881 0.0
C915 C 0.12167 0.21203 0.98941 0.0
C916 C 0.1206 0.28327 0.98112 0.0
C917 C 0.12273 0.0804 0.00596 0.0
C918 C 0.12278 0.14304 0.01566 0.0
C919 C 0.1224 0.20801 0.00727 0.0
C920 C 0.12296 0.14224 0.03456 0.0
C921 C 0.12369 1.00919 0.01428 0.0
C922 C 0.11098 0.11241 0.04366 0.0
C923 C 0.11103 0.11244 0.06148 0.0
C924 C 0.12305 0.14268 0.07057 0.0
C925 C 0.13501 0.17293 0.06138 0.0
C926 C 0.13492 0.17291 0.04354 0.0
H927 H 0.12744 0.96814 0.00514 0.0
H928 H 0.13157 1.0101 0.02526 0.0
H929 H 0.11239 0.99416 0.01909 0.0
H930 H 0.10149 0.08969 0.03698 0.0
H931 H 0.10158 0.08904 0.06809 0.0
H932 H 0.84915 0.85622 0.92719 0.0
H933 H 0.84913 0.85262 0.95839 0.0
H934 H 0.8928 0.95107 0.95921 0.0
H935 H 0.8929 0.95567 0.92809 0.0
H936 H 0.86998 0.78886 0.98094 0.0
H937 H 0.86719 0.07737 0.99032 0.0
H938 H 0.86312 1.036 0.97012 0.0
H939 H 0.88229 0.04888 0.97672 0.0
C940 C 0.85875 0.8772 0.93399 0.0
C941 C 0.87098 0.90672 0.92512 0.0
C942 C 0.85872 0.87498 0.95182 0.0
C943 C 0.87085 0.90256 0.96109 0.0
C944 C 0.88319 0.93076 0.95229 0.0
H945 H 0.89362 0.9535 0.06745 0.0
H946 H 0.8933 0.94757 0.03634 0.0
C947 C 0.88325 0.93303 0.93448 0.0
C948 C 0.87068 0.9017 0.97997 0.0
H949 H 0.87189 1.0085 0.01493 0.0
C950 C 0.87031 0.83681 0.9884 0.0
C951 C 0.87109 0.96441 0.98963 0.0
C952 C 0.8708 1.03568 0.98127 0.0
C953 C 0.87074 0.8329 0.00629 0.0
C954 C 0.87131 0.89564 0.01593 0.0
C955 C 0.87153 0.9605 0.00749 0.0
C956 C 0.87172 0.89552 0.03482 0.0
C957 C 0.87096 0.76173 0.01468 0.0
C958 C 0.85966 0.86826 0.04428 0.0
C959 C 0.8598 0.87144 0.0621 0.0
C960 C 0.87196 0.90243 0.07079 0.0
C961 C 0.88407 0.92923 0.06123 0.0
C962 C 0.88392 0.92595 0.04343 0.0
H963 H 0.87426 0.71967 0.00559 0.0
H964 H 0.87886 0.76108 0.02565 0.0
H965 H 0.85953 0.74943 0.01955 0.0
H966 H 0.85 0.84579 0.03788 0.0
H967 H 0.85025 0.85059 0.06902 0.0
H968 H 0.1146 1.03103 0.42736 0.0
H969 H 0.11485 1.02691 0.45854 0.0
H970 H 0.12486 0.80522 0.45651 0.0
H971 H 0.12581 0.81091 0.42535 0.0
H972 H 0.09878 0.96807 0.48038 0.0
H973 H 0.15579 0.85867 0.48944 0.0
H974 H 0.14912 0.88636 0.46885 0.0
H975 H 0.14445 0.80049 0.47695 0.0
C976 C 0.117 0.98168 0.43364 0.0
C977 C 0.12035 0.92147 0.42406 0.0
C978 C 0.11711 0.97921 0.45145 0.0
C979 C 0.12021 0.91605 0.46002 0.0
C980 C 0.12304 0.85524 0.45034 0.0
H981 H 0.09585 0.87835 0.56817 0.0
H982 H 0.09594 0.87298 0.53695 0.0
C983 C 0.12344 0.85828 0.43252 0.0
C984 C 0.12005 0.91391 0.47902 0.0
H985 H 0.13974 0.85796 0.5138 0.0
C986 C 0.10783 0.94456 0.48767 0.0
C987 C 0.13193 0.8842 0.48866 0.0
C988 C 0.14612 0.85634 0.48048 0.0
C989 C 0.10719 0.94679 0.50556 0.0
C990 C 0.11866 0.91366 0.51518 0.0
C991 C 0.13083 0.88267 0.50652 0.0
C992 C 0.11866 0.91298 0.53419 0.0
C993 C 0.0945 0.98723 0.51381 0.0
C994 C 0.13166 0.93309 0.54317 0.0
C995 C 0.13182 0.933 0.56098 0.0
C996 C 0.11887 0.9145 0.57017 0.0
C997 C 0.1059 0.8938 0.5613 0.0
C998 C 0.10591 0.89151 0.54346 0.0
H999 H 0.08994 1.02794 0.50509 0.0
H1000 H 0.08517 0.95068 0.51686 0.0
H1001 H 0.09821 1.01344 0.52574 0.0
H1002 H 0.14168 0.94975 0.5364 0.0
H1003 H 0.14194 0.94938 0.56757 0.0
H1004 H 0.84751 0.21045 0.56928 0.0
H1005 H 0.84706 0.2099 0.5381 0.0
H1006 H 0.89183 0.12274 0.53715 0.0
H1007 H 0.89236 0.12205 0.56827 0.0
H1008 H 0.86615 0.2741 0.51427 0.0
H1009 H 0.8677 0.98401 0.50819 0.0
H1010 H 0.86364 1.02775 0.5281 0.0
H1011 H 0.88274 1.01972 0.52076 0.0
C1012 C 0.85729 0.1913 0.56247 0.0
C1013 C 0.86992 0.16569 0.57133 0.0
C1014 C 0.857 0.19107 0.54464 0.0
C1015 C 0.86929 0.16505 0.53534 0.0
C1016 C 0.88209 0.14155 0.5441 0.0
H1017 H 0.89148 0.10629 0.42916 0.0
H1018 H 0.89102 0.11429 0.46023 0.0
C1019 C 0.88239 0.14156 0.56191 0.0
C1020 C 0.86873 0.16216 0.51646 0.0
H1021 H 0.87088 0.04935 0.48268 0.0
C1022 C 0.86709 0.225 0.50734 0.0
C1023 C 0.86991 0.09792 0.50749 0.0
C1024 C 0.87096 1.02841 0.51661 0.0
C1025 C 0.86702 0.22551 0.48942 0.0
C1026 C 0.8684 0.16133 0.48046 0.0
C1027 C 0.86988 0.09848 0.4896 0.0
C1028 C 0.8686 0.15809 0.46158 0.0
C1029 C 0.86589 0.29482 0.48024 0.0
C1030 C 0.85606 0.17945 0.45204 0.0
C1031 C 0.85626 0.175 0.43423 0.0
C1032 C 0.86899 0.14867 0.42566 0.0
C1033 C 0.88149 0.12687 0.43531 0.0
C1034 C 0.88126 0.13139 0.45308 0.0
H1035 H 0.86852 0.33974 0.48878 0.0
H1036 H 0.87364 0.29633 0.46913 0.0
H1037 H 0.85424 0.30175 0.47546 0.0
H1038 H 0.84605 0.19891 0.45838 0.0
H1039 H 0.84642 0.19197 0.42722 0.0
H1040 H 0.64198 0.71334 0.07005 0.0
H1041 H 0.64189 0.72004 0.03894 0.0
H1042 H 0.59835 0.62039 0.03769 0.0
H1043 H 0.59822 0.61394 0.06881 0.0
H1044 H 0.64006 0.60739 0.01602 0.0
H1045 H 0.59254 0.79273 0.00706 0.0
H1046 H 0.60187 0.7814 0.02732 0.0
H1047 H 0.58818 0.7184 0.02023 0.0
C1048 C 0.6323 0.69333 0.06322 0.0
C1049 C 0.62008 0.66321 0.072 0.0
C1050 C 0.63229 0.69717 0.04541 0.0
C1051 C 0.62004 0.67153 0.03602 0.0
C1052 C 0.6078 0.64173 0.04471 0.0
H1053 H 0.59927 0.61339 0.92936 0.0
H1054 H 0.59955 0.61789 0.96048 0.0
C1055 C 0.6078 0.63774 0.06252 0.0
C1056 C 0.62037 0.67312 0.01711 0.0
H1057 H 0.60174 0.73534 0.9822 0.0
C1058 C 0.63175 0.63577 0.00861 0.0
C1059 C 0.60951 0.71011 0.0075 0.0
C1060 C 0.5974 0.75349 0.01596 0.0
C1061 C 0.63235 0.63297 0.99072 0.0
C1062 C 0.62141 0.66953 0.98111 0.0
C1063 C 0.6101 0.70733 0.98961 0.0
C1064 C 0.62133 0.66795 0.9622 0.0
C1065 C 0.64441 0.58926 0.98228 0.0
C1066 C 0.63342 0.69548 0.95281 0.0
C1067 C 0.63333 0.69294 0.93498 0.0
C1068 C 0.6211 0.66306 0.92619 0.0
C1069 C 0.60891 0.63649 0.93567 0.0
C1070 C 0.60902 0.63912 0.95348 0.0
H1071 H 0.64961 0.55155 0.99132 0.0
H1072 H 0.63977 0.55952 0.97129 0.0
H1073 H 0.65341 0.62435 0.97744 0.0
H1074 H 0.64291 0.71915 0.95929 0.0
H1075 H 0.64287 0.71427 0.92811 0.0
H1076 H 0.34913 0.3623 0.9264 0.0
H1077 H 0.3488 0.3601 0.95756 0.0
H1078 H 0.39279 0.45533 0.9587 0.0
H1079 H 0.3932 0.45875 0.92757 0.0
H1080 H 0.36855 0.29712 0.98089 0.0
H1081 H 0.36751 0.58666 0.9886 0.0
H1082 H 0.36375 0.54406 0.96848 0.0
H1083 H 0.38279 0.55488 0.97574 0.0
C1084 C 0.35878 0.3827 0.93324 0.0
C1085 C 0.37115 0.41127 0.92443 0.0
C1086 C 0.35855 0.38132 0.95106 0.0
C1087 C 0.37064 0.40868 0.96043 0.0
C1088 C 0.38319 0.43534 0.95171 0.0
H1089 H 0.39216 0.46295 0.06681 0.0
H1090 H 0.39183 0.45672 0.03574 0.0
C1091 C 0.38343 0.43689 0.93389 0.0
C1092 C 0.37011 0.40965 0.97932 0.0
H1093 H 0.37113 0.51954 0.01373 0.0
C1094 C 0.36903 0.34569 0.98809 0.0
C1095 C 0.37068 0.47319 0.98865 0.0
C1096 C 0.3711 0.54368 0.97992 0.0
C1097 C 0.36892 0.34346 0.006 0.0
C1098 C 0.36968 0.40698 0.01532 0.0
C1099 C 0.37061 0.47092 0.00654 0.0
C1100 C 0.36984 0.4085 0.03422 0.0
C1101 C 0.36841 0.27314 0.0148 0.0
C1102 C 0.35752 0.38384 0.04368 0.0
C1103 C 0.35766 0.38725 0.06152 0.0
C1104 C 0.37009 0.41583 0.07018 0.0
C1105 C 0.38239 0.44062 0.06061 0.0
C1106 C 0.38224 0.43713 0.04282 0.0
H1107 H 0.37145 0.22959 0.00601 0.0
H1108 H 0.37616 0.2721 0.02589 0.0
H1109 H 0.35683 0.26352 0.01955 0.0
H1110 H 0.34772 0.36279 0.03728 0.0
H1111 H 0.34797 0.36796 0.06847 0.0
H1112 H 0.64084 0.35694 0.42862 0.0
H1113 H 0.64039 0.35273 0.45975 0.0
H1114 H 0.59662 0.45046 0.45997 0.0
H1115 H 0.59701 0.45587 0.42885 0.0
H1116 H 0.61691 0.51303 0.48223 0.0
H1117 H 0.61624 0.22413 0.49117 0.0
H1118 H 0.63121 0.25543 0.47779 0.0
H1119 H 0.61201 0.26499 0.47098 0.0
C1120 C 0.63104 0.37707 0.43524 0.0
C1121 C 0.61895 0.40668 0.42617 0.0
C1122 C 0.63078 0.3742 0.45306 0.0
C1123 C 0.61838 0.40034 0.46217 0.0
C1124 C 0.60627 0.42964 0.45318 0.0
H1125 H 0.59633 0.45895 0.56917 0.0
H1126 H 0.59621 0.45314 0.53807 0.0
C1127 C 0.60652 0.43263 0.43537 0.0
C1128 C 0.61834 0.40035 0.48109 0.0
H1129 H 0.62003 0.29358 0.516 0.0
C1130 C 0.6175 0.46504 0.48962 0.0
C1131 C 0.61921 0.33767 0.49069 0.0
C1132 C 0.61958 0.26653 0.48223 0.0
C1133 C 0.61772 0.4689 0.50749 0.0
C1134 C 0.61852 0.40623 0.5171 0.0
C1135 C 0.61941 0.34151 0.50859 0.0
C1136 C 0.61838 0.40698 0.53602 0.0
C1137 C 0.61742 0.54015 0.51592 0.0
C1138 C 0.63069 0.3808 0.54521 0.0
C1139 C 0.63078 0.38361 0.56305 0.0
C1140 C 0.61851 0.41241 0.57202 0.0
C1141 C 0.60603 0.43696 0.56273 0.0
C1142 C 0.60596 0.43402 0.54492 0.0
H1143 H 0.62077 0.58243 0.50695 0.0
H1144 H 0.60582 0.55148 0.5204 0.0
H1145 H 0.62504 0.54167 0.52714 0.0
H1146 H 0.64035 0.35931 0.53858 0.0
H1147 H 0.64056 0.36399 0.56976 0.0
H1148 H 0.34516 0.68726 0.56822 0.0
H1149 H 0.34448 0.68556 0.53705 0.0
H1150 H 0.38949 0.60126 0.53583 0.0
H1151 H 0.39027 0.60188 0.56694 0.0
H1152 H 0.36369 0.75284 0.51363 0.0
H1153 H 0.36568 0.46334 0.50607 0.0
H1154 H 0.36136 0.50526 0.52615 0.0
H1155 H 0.38053 0.49879 0.51898 0.0
C1156 C 0.35492 0.66818 0.56136 0.0
C1157 C 0.36774 0.64427 0.57016 0.0
C1158 C 0.3545 0.66733 0.54353 0.0
C1159 C 0.36683 0.64221 0.53415 0.0
C1160 C 0.37973 0.61946 0.54284 0.0
H1161 H 0.38945 0.59304 0.42771 0.0
H1162 H 0.3887 0.5961 0.45882 0.0
C1163 C 0.38017 0.62025 0.56066 0.0
C1164 C 0.36632 0.64077 0.51526 0.0
H1165 H 0.36872 0.53103 0.48089 0.0
C1166 C 0.36469 0.70436 0.50645 0.0
C1167 C 0.36763 0.57739 0.50595 0.0
C1168 C 0.36876 0.5072 0.51474 0.0
C1169 C 0.36474 0.70651 0.48854 0.0
C1170 C 0.36617 0.64316 0.47923 0.0
C1171 C 0.36766 0.57952 0.48806 0.0
C1172 C 0.36645 0.64174 0.46032 0.0
C1173 C 0.36369 0.77675 0.47976 0.0
C1174 C 0.35409 0.66557 0.45082 0.0
C1175 C 0.35448 0.6641 0.43298 0.0
C1176 C 0.3672 0.63819 0.42431 0.0
C1177 C 0.37946 0.61341 0.43391 0.0
C1178 C 0.37907 0.61508 0.45172 0.0
H1179 H 0.36648 0.82068 0.48853 0.0
H1180 H 0.37138 0.77905 0.46859 0.0
H1181 H 0.35202 0.78473 0.47514 0.0
H1182 H 0.3441 0.68494 0.4572 0.0
H1183 H 0.34479 0.6832 0.42603 0.0
H1184 H 0.93612 0.97844 0.15109 0.0
H1185 H 0.9634 0.99496 0.15002 0.0
H1186 H 0.96005 0.06119 0.09758 0.0
H1187 H 0.93265 0.04532 0.09865 0.0
H1188 H 0.98289 0.92338 0.12785 0.0
H1189 H 0.98706 0.21203 0.11922 0.0
H1190 H 0.97009 0.16969 0.12659 0.0
H1191 H 0.97491 0.16806 0.10434 0.0
C1192 C 0.94117 0.99769 0.13942 0.0
C1193 C 0.9323 1.01083 0.12496 0.0
C1194 C 0.95675 1.00683 0.13881 0.0
C1195 C 0.96374 1.02969 0.12377 0.0
C1196 C 0.95486 0.04458 0.10941 0.0
H1197 H 0.05713 0.09466 0.09508 0.0
H1198 H 0.02982 0.07769 0.09518 0.0
C1199 C 0.93923 1.0354 0.11001 0.0
C1200 C 0.98039 1.03388 0.12289 0.0
H1201 H 0.00967 0.14692 0.11663 0.0
C1202 C 0.98877 0.97228 0.12545 0.0
C1203 C 0.988 0.09767 0.11969 0.0
C1204 C 0.9796 0.16583 0.11744 0.0
C1205 C 0.00456 0.97258 0.12472 0.0
C1206 C 0.01217 0.03643 0.12163 0.0
C1207 C 0.00379 0.09799 0.11898 0.0
C1208 C 0.02884 0.04095 0.12125 0.0
C1209 C 0.01294 0.90434 0.12695 0.0
C1210 C 0.03737 1.02516 0.13582 0.0
C1211 C 0.05299 1.03456 0.13577 0.0
C1212 C 0.06029 0.06031 0.12117 0.0
C1213 C 0.05179 0.07445 0.10648 0.0
C1214 C 0.03619 0.06506 0.10654 0.0
H1215 H 0.00554 0.85827 0.12469 0.0
H1216 H 0.0227 0.90119 0.11814 0.0
H1217 H 0.01723 0.90107 0.14021 0.0
H1218 H 0.0319 1.00768 0.14741 0.0
H1219 H 0.05927 1.02386 0.14731 0.0
H1220 H 0.93191 1.00838 0.38862 0.0
H1221 H 0.95939 0.99557 0.38903 0.0
H1222 H 0.9632 0.1495 0.34897 0.0
H1223 H 0.93584 0.16378 0.34885 0.0
H1224 H 0.97938 0.95565 0.36459 0.0
H1225 H 0.99135 0.22953 0.38439 0.0
H1226 H 0.97267 0.19254 0.38506 0.0
H1227 H 0.98038 0.2238 0.36524 0.0
C1228 C 0.93864 0.03927 0.37989 0.0
C1229 C 0.9318 0.08742 0.36879 0.0
C1230 C 0.95432 1.03202 0.38014 0.0
C1231 C 0.96339 0.07277 0.3693 0.0
C1232 C 0.95649 0.119 0.35779 0.0
H1233 H 0.06002 0.07546 0.34914 0.0
H1234 H 0.0327 0.09564 0.34815 0.0
C1235 C 0.94085 0.12666 0.35763 0.0
C1236 C 0.98004 0.06648 0.36994 0.0
H1237 H 0.01241 0.16029 0.37609 0.0
C1238 C 0.98658 1.00035 0.36717 0.0
C1239 C 0.98946 0.12489 0.37334 0.0
C1240 C 0.98312 0.19655 0.37734 0.0
C1241 C 0.00226 0.99123 0.36751 0.0
C1242 C 0.01162 0.04964 0.37078 0.0
C1243 C 0.00515 0.11579 0.37348 0.0
C1244 C 0.02817 0.04219 0.37192 0.0
C1245 C 0.00875 0.9193 0.36423 0.0
C1246 C 0.03461 1.00726 0.38583 0.0
C1247 C 0.05014 0.99626 0.38649 0.0
C1248 C 0.05948 1.01982 0.37321 0.0
C1249 C 0.05307 0.05686 0.35954 0.0
C1250 C 0.0375 0.06826 0.35895 0.0
H1251 H 0.00025 0.8825 0.35896 0.0
H1252 H 0.01837 0.92261 0.35521 0.0
H1253 H 0.01303 0.89728 0.37639 0.0
H1254 H 0.02758 0.98739 0.39603 0.0
H1255 H 0.05478 0.96754 0.39718 0.0
H1256 H 0.05424 0.10546 0.89632 0.0
H1257 H 0.02712 0.08388 0.8947 0.0
H1258 H 0.03341 0.96992 0.84768 0.0
H1259 H 0.06064 0.9917 0.84918 0.0
H1260 H 0.00848 0.12712 0.8652 0.0
H1261 H 0.00635 0.84081 0.87897 0.0
H1262 H 0.02203 0.89524 0.88531 0.0
H1263 H 0.01988 0.86993 0.86341 0.0
C1264 C 0.04988 0.07495 0.88576 0.0
C1265 C 0.05953 0.0501 0.87288 0.0
C1266 C 0.03439 0.0629 0.88483 0.0
C1267 C 0.02829 1.02513 0.87112 0.0
C1268 C 0.03794 0.9986 0.85846 0.0
H1269 H 0.93634 0.90317 0.84704 0.0
H1270 H 0.96362 0.92117 0.84694 0.0
C1271 C 0.05346 1.01106 0.85932 0.0
C1272 C 0.01176 1.01682 0.8697 0.0
H1273 H 0.98344 0.89631 0.87209 0.0
C1274 C 0.00297 0.07671 0.8667 0.0
C1275 C 0.00467 0.95095 0.87155 0.0
C1276 C 0.01364 0.88538 0.8751 0.0
C1277 C 0.98723 0.07244 0.86536 0.0
C1278 C 0.98007 1.00671 0.86757 0.0
C1279 C 0.98892 0.9467 0.87043 0.0
C1280 C 0.96342 0.99892 0.86709 0.0
C1281 C 0.97849 0.13817 0.86125 0.0
C1282 C 0.9542 0.03672 0.87843 0.0
C1283 C 0.93858 1.02704 0.87837 0.0
C1284 C 0.93195 0.97862 0.86716 0.0
C1285 C 0.94116 0.94103 0.85579 0.0
C1286 C 0.95675 0.9511 0.85575 0.0
H1287 H 0.9857 0.17797 0.85489 0.0
H1288 H 0.96875 0.12651 0.85285 0.0
H1289 H 0.97419 0.16162 0.87326 0.0
H1290 H 0.9591 0.07261 0.88759 0.0
H1291 H 0.93175 0.05612 0.88739 0.0
H1292 H 0.93047 1.02142 0.59976 0.0
H1293 H 0.9579 1.00586 0.59821 0.0
H1294 H 0.96233 0.09163 0.64889 0.0
H1295 H 0.93505 0.10714 0.65052 0.0
H1296 H 0.98122 0.15519 0.62246 0.0
H1297 H 0.98521 0.86375 0.62519 0.0
H1298 H 0.97211 0.90066 0.61017 0.0
H1299 H 0.96883 0.91096 0.6326 0.0
C1300 C 0.9373 1.03581 0.61065 0.0
C1301 C 0.93067 0.06532 0.62527 0.0
C1302 C 0.95293 1.02699 0.60975 0.0
C1303 C 0.9621 0.04758 0.62345 0.0
C1304 C 0.95543 0.07552 0.63818 0.0
H1305 H 0.05409 0.97169 0.64983 0.0
H1306 H 0.02683 0.98774 0.64841 0.0
C1307 C 0.93985 0.08404 0.63912 0.0
C1308 C 0.9787 0.04283 0.62232 0.0
H1309 H 0.00791 0.92656 0.62215 0.0
C1310 C 0.98708 0.10527 0.62227 0.0
C1311 C 0.98624 0.9776 0.62218 0.0
C1312 C 0.97771 0.9092 0.62264 0.0
C1313 C 0.00289 0.10416 0.62225 0.0
C1314 C 0.01044 0.03892 0.62222 0.0
C1315 C 0.00204 0.97648 0.6221 0.0
C1316 C 0.02704 1.03406 0.62325 0.0
C1317 C 0.01141 0.17258 0.6228 0.0
C1318 C 0.0362 0.05579 0.60964 0.0
C1319 C 0.05183 0.04673 0.61043 0.0
C1320 C 0.05846 1.01576 0.62483 0.0
C1321 C 0.04928 0.9959 0.63859 0.0
C1322 C 0.03371 1.00473 0.63778 0.0
H1323 H 0.00393 0.21785 0.62563 0.0
H1324 H 0.02042 0.17047 0.63259 0.0
H1325 H 0.01684 0.18173 0.61025 0.0
H1326 H 0.03123 0.07795 0.59825 0.0
H1327 H 0.05866 0.062 0.5996 0.0
H1328 H 0.43233 0.55802 0.14568 0.0
H1329 H 0.45975 0.57432 0.14649 0.0
H1330 H 0.46362 0.47689 0.09699 0.0
H1331 H 0.43634 0.46088 0.09608 0.0
H1332 H 0.48111 0.46273 0.14447 0.0
H1333 H 0.48927 0.65564 0.09229 0.0
H1334 H 0.47123 0.64104 0.10231 0.0
H1335 H 0.47817 0.58046 0.08657 0.0
C1336 C 0.43903 0.54136 0.13486 0.0
C1337 C 0.43224 0.50845 0.12079 0.0
C1338 C 0.45467 0.55038 0.13536 0.0
C1339 C 0.46369 0.52737 0.12173 0.0
C1340 C 0.45685 0.49611 0.10751 0.0
H1341 H 0.56006 0.51379 0.10142 0.0
H1342 H 0.53268 0.49672 0.10046 0.0
C1343 C 0.44127 0.48682 0.10703 0.0
C1344 C 0.48033 0.53173 0.12278 0.0
H1345 H 0.51126 0.60094 0.10318 0.0
C1346 C 0.48772 0.49331 0.13553 0.0
C1347 C 0.4889 0.57104 0.11098 0.0
C1348 C 0.48152 0.61492 0.09734 0.0
C1349 C 0.50349 0.49227 0.13663 0.0
C1350 C 0.51208 0.5319 0.12488 0.0
C1351 C 0.50467 0.57029 0.11212 0.0
C1352 C 0.52873 0.53651 0.12595 0.0
C1353 C 0.51081 0.4475 0.15015 0.0
C1354 C 0.53559 0.56397 0.14063 0.0
C1355 C 0.55117 0.57327 0.14122 0.0
C1356 C 0.56018 0.55594 0.12709 0.0
C1357 C 0.55338 0.52713 0.11252 0.0
C1358 C 0.53776 0.51768 0.11194 0.0
H1359 H 0.50318 0.40508 0.15456 0.0
H1360 H 0.52138 0.42338 0.14536 0.0
H1361 H 0.51359 0.48079 0.16133 0.0
H1362 H 0.52885 0.58031 0.15144 0.0
H1363 H 0.55611 0.59617 0.15257 0.0
H1364 H 0.43445 0.59124 0.4006 0.0
H1365 H 0.46189 0.57884 0.40019 0.0
H1366 H 0.45983 0.50406 0.3483 0.0
H1367 H 0.43237 0.5172 0.34858 0.0
H1368 H 0.48074 0.46349 0.39378 0.0
H1369 H 0.48851 0.67261 0.34532 0.0
H1370 H 0.47095 0.65958 0.35648 0.0
H1371 H 0.47601 0.60328 0.33897 0.0
C1372 C 0.43984 0.5714 0.38917 0.0
C1373 C 0.43132 0.55551 0.37458 0.0
C1374 C 0.45551 0.56448 0.38894 0.0
C1375 C 0.46292 0.54194 0.3741 0.0
C1376 C 0.45436 0.52302 0.35976 0.0
H1377 H 0.55564 0.47648 0.34512 0.0
H1378 H 0.52832 0.49156 0.34636 0.0
C1379 C 0.43868 0.52993 0.35998 0.0
C1380 C 0.47961 0.53959 0.37358 0.0
H1381 H 0.51025 0.60846 0.35325 0.0
C1382 C 0.48721 0.49536 0.38498 0.0
C1383 C 0.48801 0.58152 0.36212 0.0
C1384 C 0.4805 0.63245 0.35012 0.0
C1385 C 0.50299 0.49059 0.38495 0.0
C1386 C 0.51139 0.53222 0.37343 0.0
C1387 C 0.50379 0.57674 0.3621 0.0
C1388 C 0.52805 0.52824 0.37249 0.0
C1389 C 0.51051 0.43958 0.39693 0.0
C1390 C 0.53702 0.54605 0.3866 0.0
C1391 C 0.55267 0.53756 0.3859 0.0
C1392 C 0.55956 0.51147 0.37106 0.0
C1393 C 0.55062 0.49664 0.35673 0.0
C1394 C 0.53501 0.50512 0.35743 0.0
H1395 H 0.50244 0.40021 0.402 0.0
H1396 H 0.51985 0.41147 0.39044 0.0
H1397 H 0.51528 0.46885 0.40791 0.0
H1398 H 0.5319 0.5654 0.39823 0.0
H1399 H 0.55931 0.54948 0.39711 0.0
H1400 H 0.43552 0.47573 0.84393 0.0
H1401 H 0.46283 0.49057 0.84508 0.0
H1402 H 0.45915 0.57198 0.89628 0.0
H1403 H 0.43175 0.55593 0.8953 0.0
H1404 H 0.48087 0.60597 0.85039 0.0
H1405 H 0.4888 0.41038 0.90201 0.0
H1406 H 0.47129 0.41953 0.89059 0.0
H1407 H 0.47606 0.48027 0.9073 0.0
C1408 C 0.44051 0.49739 0.85539 0.0
C1409 C 0.43155 0.51432 0.86958 0.0
C1410 C 0.45612 0.50574 0.85603 0.0
C1411 C 0.46307 0.53096 0.87088 0.0
C1412 C 0.45406 0.55083 0.88483 0.0
H1413 H 0.55523 0.61483 0.8994 0.0
H1414 H 0.52797 0.59774 0.89821 0.0
C1415 C 0.43841 0.5423 0.88421 0.0
C1416 C 0.47974 0.53539 0.87175 0.0
H1417 H 0.51039 0.47451 0.89348 0.0
C1418 C 0.48733 0.57705 0.85977 0.0
C1419 C 0.48816 0.49725 0.88395 0.0
C1420 C 0.4807 0.44879 0.8966 0.0
C1421 C 0.50309 0.58279 0.85986 0.0
C1422 C 0.51149 0.54501 0.87211 0.0
C1423 C 0.50391 0.50325 0.88408 0.0
C1424 C 0.52812 0.55037 0.87312 0.0
C1425 C 0.51062 0.63056 0.8471 0.0
C1426 C 0.5373 0.52744 0.85961 0.0
C1427 C 0.55293 0.53689 0.86029 0.0
C1428 C 0.55956 0.56935 0.87451 0.0
C1429 C 0.5504 0.58973 0.88827 0.0
C1430 C 0.53483 0.58008 0.88761 0.0
H1431 H 0.50248 0.66716 0.84107 0.0
H1432 H 0.51966 0.66176 0.85327 0.0
H1433 H 0.51582 0.59834 0.83688 0.0
H1434 H 0.53236 0.50324 0.84843 0.0
H1435 H 0.55974 0.52069 0.84952 0.0
H1436 H 0.43454 0.5954 0.64943 0.0
H1437 H 0.46189 0.58298 0.64776 0.0
H1438 H 0.458 0.50392 0.5964 0.0
H1439 H 0.43048 0.51656 0.59795 0.0
H1440 H 0.47884 0.42811 0.61984 0.0
H1441 H 0.48834 0.71602 0.61691 0.0
H1442 H 0.47608 0.68704 0.63374 0.0
H1443 H 0.47043 0.67611 0.61192 0.0
C1444 C 0.43948 0.57461 0.63784 0.0
C1445 C 0.43042 0.55715 0.62379 0.0
C1446 C 0.4551 0.56799 0.63687 0.0
C1447 C 0.46193 0.54371 0.62186 0.0
C1448 C 0.45289 0.52327 0.60804 0.0
H1449 H 0.55883 0.56152 0.60041 0.0
H1450 H 0.53136 0.57415 0.59813 0.0
C1451 C 0.43722 0.53026 0.60897 0.0
C1452 C 0.47854 0.54096 0.62065 0.0
H1453 H 0.5099 0.64456 0.62159 0.0
C1454 C 0.48565 0.47534 0.62006 0.0
C1455 C 0.48735 0.6028 0.62076 0.0
C1456 C 0.48021 0.67462 0.62072 0.0
C1457 C 0.50141 0.4699 0.62025 0.0
C1458 C 0.5102 0.53167 0.62115 0.0
C1459 C 0.5031 0.59735 0.62105 0.0
C1460 C 0.52678 0.52871 0.62287 0.0
C1461 C 0.50855 0.39812 0.61964 0.0
C1462 C 0.53322 0.50125 0.63774 0.0
C1463 C 0.54882 0.4946 0.63912 0.0
C1464 C 0.55823 0.51527 0.62563 0.0
C1465 C 0.55181 0.54532 0.61099 0.0
C1466 C 0.53616 0.5523 0.60966 0.0
H1467 H 0.50055 0.35755 0.61502 0.0
H1468 H 0.51861 0.39822 0.61122 0.0
H1469 H 0.51225 0.38323 0.63265 0.0
H1470 H 0.52616 0.48382 0.64817 0.0
H1471 H 0.55347 0.47133 0.65055 0.0
H1472 H 0.10589 0.95473 0.12495 0.0
H1473 H 0.10182 0.82648 0.12606 0.0
H1474 H 0.14943 0.7927 0.11946 0.0
H1475 H 0.15352 0.919 0.11855 0.0
H1476 H 0.10877 0.71859 0.10238 0.0
H1477 H 0.14091 0.67768 0.162 0.0
H1478 H 0.13491 0.76349 0.15506 0.0
H1479 H 0.15141 0.72345 0.14594 0.0
C1480 C 0.11544 0.91975 0.12371 0.0
C1481 C 0.13003 0.94719 0.12177 0.0
C1482 C 0.11313 0.84645 0.12437 0.0
C1483 C 0.12537 0.79945 0.12324 0.0
C1484 C 0.13983 0.82729 0.12083 0.0
H1485 H 0.13786 0.33926 0.12416 0.0
H1486 H 0.1418 0.46751 0.12303 0.0
C1487 C 0.14213 0.89987 0.12018 0.0
C1488 C 0.12326 0.72138 0.12431 0.0
H1489 H 0.13472 0.57499 0.14615 0.0
C1490 C 0.11434 0.68736 0.11204 0.0
C1491 C 0.13064 0.67996 0.1368 0.0
C1492 C 0.13989 0.71297 0.1508 0.0
C1493 C 0.11285 0.61359 0.11171 0.0
C1494 C 0.12022 0.57214 0.12421 0.0
C1495 C 0.12914 0.6062 0.13648 0.0
C1496 C 0.11817 0.49399 0.12524 0.0
C1497 C 0.10364 0.58067 0.09766 0.0
C1498 C 0.1037 0.46576 0.12731 0.0
C1499 C 0.10148 0.39311 0.12792 0.0
C1500 C 0.11366 0.34605 0.12665 0.0
C1501 C 0.12825 0.37392 0.12508 0.0
C1502 C 0.13048 0.44727 0.12444 0.0
H1503 H 0.10276 0.61585 0.08642 0.0
H1504 H 0.10857 0.52993 0.09347 0.0
H1505 H 0.09208 0.57071 0.10242 0.0
H1506 H 0.09404 0.50007 0.12847 0.0
H1507 H 0.09009 0.37372 0.12929 0.0
H1508 H 0.88669 0.116 0.12369 0.0
H1509 H 0.8908 0.2443 0.12465 0.0
H1510 H 0.84285 0.27776 0.12287 0.0
H1511 H 0.83875 0.15151 0.12206 0.0
H1512 H 0.88203 0.35081 0.1015 0.0
H1513 H 0.85459 0.3955 0.164 0.0
H1514 H 0.86005 0.30925 0.15673 0.0
H1515 H 0.84288 0.34864 0.14924 0.0
C1516 C 0.87707 0.15092 0.12354 0.0
C1517 C 0.8624 0.12339 0.12289 0.0
C1518 C 0.8794 0.22425 0.1241 0.0
C1519 C 0.86711 0.27121 0.12419 0.0
C1520 C 0.85253 0.24325 0.12326 0.0
H1521 H 0.85461 0.7319 0.1245 0.0
H1522 H 0.85054 0.60357 0.12372 0.0
C1523 C 0.85022 0.17066 0.12268 0.0
C1524 C 0.86927 0.34936 0.12481 0.0
H1525 H 0.85935 0.49722 0.14718 0.0
C1526 C 0.87718 0.38265 0.11158 0.0
C1527 C 0.86282 0.3916 0.13785 0.0
C1528 C 0.85473 0.35947 0.15285 0.0
C1529 C 0.87857 0.45641 0.11084 0.0
C1530 C 0.8721 0.49866 0.12386 0.0
C1531 C 0.8642 0.46537 0.1371 0.0
C1532 C 0.87423 0.57684 0.12446 0.0
C1533 C 0.88669 0.48855 0.09586 0.0
C1534 C 0.88879 0.60492 0.12549 0.0
C1535 C 0.89108 0.67755 0.12598 0.0
C1536 C 0.87889 0.72476 0.12556 0.0
C1537 C 0.86423 0.69708 0.12482 0.0
C1538 C 0.86192 0.62372 0.12436 0.0
H1539 H 0.88692 0.45241 0.08473 0.0
H1540 H 0.88133 0.5386 0.09192 0.0
H1541 H 0.8985 0.49973 0.09954 0.0
H1542 H 0.89848 0.57048 0.12601 0.0
H1543 H 0.90253 0.69678 0.12667 0.0
H1544 H 0.15269 0.15945 0.37479 0.0
H1545 H 0.14843 0.28565 0.37415 0.0
H1546 H 0.10069 0.25045 0.36938 0.0
H1547 H 0.10496 0.12257 0.37041 0.0
H1548 H 0.13719 0.36804 0.34991 0.0
H1549 H 0.10138 0.39258 0.40758 0.0
H1550 H 0.11152 0.31319 0.40253 0.0
H1551 H 0.09414 0.33299 0.39185 0.0
C1552 C 0.14123 0.1783 0.37371 0.0
C1553 C 0.12916 0.13068 0.37272 0.0
C1554 C 0.13882 0.25086 0.3733 0.0
C1555 C 0.12423 0.2785 0.3719 0.0
C1556 C 0.11206 0.23101 0.37083 0.0
H1557 H 0.08951 0.70415 0.36498 0.0
H1558 H 0.0937 0.57778 0.36549 0.0
C1559 C 0.11449 0.15778 0.37132 0.0
C1560 C 0.12209 0.35679 0.37124 0.0
H1561 H 0.10471 0.49528 0.39104 0.0
C1562 C 0.1301 0.39574 0.35896 0.0
C1563 C 0.11293 0.39369 0.38304 0.0
C1564 C 0.1046 0.3562 0.39711 0.0
C1565 C 0.12903 0.46957 0.35798 0.0
C1566 C 0.11984 0.50639 0.36976 0.0
C1567 C 0.11181 0.46751 0.38201 0.0
C1568 C 0.11776 0.58465 0.36909 0.0
C1569 C 0.13745 0.50733 0.34403 0.0
C1570 C 0.1299 0.63188 0.37094 0.0
C1571 C 0.12752 0.70516 0.37062 0.0
C1572 C 0.11294 0.73253 0.36848 0.0
C1573 C 0.10091 0.68509 0.3666 0.0
C1574 C 0.10327 0.61247 0.36694 0.0
H1575 H 0.14102 0.47099 0.3337 0.0
H1576 H 0.13042 0.54951 0.33838 0.0
H1577 H 0.14769 0.53187 0.34948 0.0
H1578 H 0.14119 0.61215 0.37294 0.0
H1579 H 0.137 0.74018 0.37229 0.0
H1580 H 0.8897 0.36157 0.39614 0.0
H1581 H 0.88685 0.48887 0.39456 0.0
H1582 H 0.85553 0.46487 0.35298 0.0
H1583 H 0.8582 0.33657 0.35471 0.0
H1584 H 0.89373 0.57554 0.36808 0.0
H1585 H 0.8331 0.6003 0.38395 0.0
H1586 H 0.84351 0.52022 0.38737 0.0
H1587 H 0.83697 0.54255 0.36637 0.0
C1588 C 0.88207 0.38327 0.38675 0.0
C1589 C 0.87416 0.33893 0.37555 0.0
C1590 C 0.88048 0.45622 0.38584 0.0
C1591 C 0.87089 0.48691 0.37375 0.0
C1592 C 0.8628 0.44267 0.36264 0.0
H1593 H 0.84961 0.91779 0.34684 0.0
H1594 H 0.8525 0.79048 0.34834 0.0
C1595 C 0.86436 0.36931 0.36359 0.0
C1596 C 0.86992 0.56509 0.37249 0.0
H1597 H 0.84554 0.70374 0.37487 0.0
C1598 C 0.88319 0.60356 0.36962 0.0
C1599 C 0.85619 0.60195 0.37452 0.0
C1600 C 0.84165 0.56434 0.37838 0.0
C1601 C 0.88308 0.67733 0.36844 0.0
C1602 C 0.86936 0.71418 0.37046 0.0
C1603 C 0.85608 0.67572 0.37333 0.0
C1604 C 0.86838 0.79236 0.36922 0.0
C1605 C 0.89763 0.71497 0.36459 0.0
C1606 C 0.87643 0.83652 0.38039 0.0
C1607 C 0.87484 0.90987 0.37949 0.0
C1608 C 0.86505 0.94029 0.36752 0.0
C1609 C 0.85721 0.89604 0.35624 0.0
C1610 C 0.85882 0.8231 0.35711 0.0
H1611 H 0.90618 0.67902 0.35904 0.0
H1612 H 0.89576 0.75905 0.35558 0.0
H1613 H 0.90228 0.73685 0.37659 0.0
H1614 H 0.88368 0.81427 0.39006 0.0
H1615 H 0.88096 0.94257 0.38842 0.0
H1616 H 0.8819 0.11591 0.88705 0.0
H1617 H 0.88459 0.24449 0.88845 0.0
H1618 H 0.85023 0.26696 0.85006 0.0
H1619 H 0.84738 0.13962 0.8488 0.0
H1620 H 0.89187 0.3441 0.86365 0.0
H1621 H 0.83416 0.39269 0.88778 0.0
H1622 H 0.84255 0.30644 0.88759 0.0
H1623 H 0.8346 0.34245 0.86841 0.0
C1624 C 0.87496 0.14842 0.8789 0.0
C1625 C 0.86431 0.11761 0.86796 0.0
C1626 C 0.87649 0.22188 0.87971 0.0
C1627 C 0.86735 0.26581 0.86966 0.0
C1628 C 0.85711 0.23467 0.85831 0.0
H1629 H 0.85808 0.72114 0.85528 0.0
H1630 H 0.8554 0.59257 0.85378 0.0
C1631 C 0.85557 0.16164 0.85752 0.0
C1632 C 0.8685 0.34404 0.87083 0.0
H1633 H 0.84796 0.49282 0.87871 0.0
C1634 C 0.88229 0.37652 0.86706 0.0
C1635 C 0.85599 0.38677 0.87518 0.0
C1636 C 0.84102 0.35539 0.88013 0.0
C1637 C 0.88384 0.45015 0.86719 0.0
C1638 C 0.87133 0.49287 0.87153 0.0
C1639 C 0.85753 0.46039 0.8753 0.0
C1640 C 0.87249 0.57107 0.87274 0.0
C1641 C 0.89881 0.48156 0.86227 0.0
C1642 C 0.88263 0.60209 0.8842 0.0
C1643 C 0.88415 0.67512 0.88506 0.0
C1644 C 0.8755 0.71928 0.87457 0.0
C1645 C 0.86495 0.68856 0.86348 0.0
C1646 C 0.86343 0.6151 0.86261 0.0
H1647 H 0.90571 0.44424 0.85467 0.0
H1648 H 0.89729 0.53043 0.85478 0.0
H1649 H 0.90519 0.49468 0.87401 0.0
H1650 H 0.88946 0.56971 0.89249 0.0
H1651 H 0.89227 0.69704 0.89388 0.0
H1652 H 0.13699 0.33178 0.87191 0.0
H1653 H 0.14098 0.46018 0.87247 0.0
H1654 H 0.09324 0.4927 0.86686 0.0
H1655 H 0.08926 0.36628 0.86633 0.0
H1656 H 0.1328 0.5662 0.84782 0.0
H1657 H 0.10313 0.61102 0.90909 0.0
H1658 H 0.10933 0.5251 0.90234 0.0
H1659 H 0.09235 0.56228 0.89377 0.0
C1660 C 0.1274 0.36648 0.87074 0.0
C1661 C 0.11281 0.33862 0.86912 0.0
C1662 C 0.12966 0.43987 0.87109 0.0
C1663 C 0.11736 0.48658 0.87004 0.0
C1664 C 0.10289 0.45834 0.86809 0.0
H1665 H 0.10489 0.94746 0.87156 0.0
H1666 H 0.10076 0.81924 0.87037 0.0
C1667 C 0.10066 0.38567 0.86768 0.0
C1668 C 0.11943 0.56474 0.87068 0.0
H1669 H 0.10887 0.71244 0.89272 0.0
C1670 C 0.12767 0.59804 0.85772 0.0
C1671 C 0.11257 0.60691 0.88345 0.0
C1672 C 0.10395 0.57462 0.89805 0.0
C1673 C 0.12904 0.67181 0.85702 0.0
C1674 C 0.12228 0.71403 0.86986 0.0
C1675 C 0.114 0.68067 0.8828 0.0
C1676 C 0.12445 0.7922 0.87061 0.0
C1677 C 0.13744 0.70384 0.84222 0.0
C1678 C 0.13903 0.82013 0.87151 0.0
C1679 C 0.14136 0.89269 0.87213 0.0
C1680 C 0.12918 0.94001 0.87206 0.0
C1681 C 0.1145 0.91253 0.87153 0.0
C1682 C 0.11216 0.83922 0.87086 0.0
H1683 H 0.13757 0.66818 0.831 0.0
H1684 H 0.13237 0.75463 0.83834 0.0
H1685 H 0.14929 0.7134 0.84603 0.0
H1686 H 0.14871 0.78564 0.87185 0.0
H1687 H 0.15283 0.91178 0.87271 0.0
H1688 H 0.83722 0.92206 0.62353 0.0
H1689 H 0.84147 0.7959 0.62407 0.0
H1690 H 0.88942 0.83069 0.62448 0.0
H1691 H 0.88513 0.95872 0.62422 0.0
H1692 H 0.85543 0.71054 0.60149 0.0
H1693 H 0.88436 0.69501 0.66407 0.0
H1694 H 0.87462 0.77295 0.6571 0.0
H1695 H 0.89306 0.7531 0.64898 0.0
C1696 C 0.84871 0.90316 0.62379 0.0
C1697 C 0.86084 0.95067 0.62388 0.0
C1698 C 0.85112 0.83065 0.62407 0.0
C1699 C 0.86575 0.80304 0.62451 0.0
C1700 C 0.87799 0.85033 0.62447 0.0
H1701 H 0.90059 0.37778 0.62635 0.0
H1702 H 0.89638 0.50398 0.62589 0.0
C1703 C 0.87556 0.92355 0.6242 0.0
C1704 C 0.86788 0.72487 0.62477 0.0
H1705 H 0.88245 0.58964 0.64825 0.0
C1706 C 0.86133 0.68417 0.61174 0.0
C1707 C 0.87549 0.68991 0.63817 0.0
C1708 C 0.88218 0.72973 0.65297 0.0
C1709 C 0.8624 0.61027 0.61156 0.0
C1710 C 0.87 0.57528 0.62496 0.0
C1711 C 0.87655 0.61599 0.63799 0.0
C1712 C 0.8721 0.49706 0.62523 0.0
C1713 C 0.85573 0.57051 0.59673 0.0
C1714 C 0.85985 0.44985 0.62513 0.0
C1715 C 0.86225 0.3766 0.62533 0.0
C1716 C 0.87695 0.34933 0.62575 0.0
C1717 C 0.8891 0.39677 0.62601 0.0
C1718 C 0.88672 0.46932 0.62578 0.0
H1719 H 0.85363 0.60524 0.58562 0.0
H1720 H 0.86325 0.52709 0.59265 0.0
H1721 H 0.8448 0.54748 0.60067 0.0
H1722 H 0.84843 0.46957 0.62503 0.0
H1723 H 0.85267 0.34154 0.62517 0.0
H1724 H 0.15179 0.15935 0.62169 0.0
H1725 H 0.14758 0.2855 0.62225 0.0
H1726 H 0.09965 0.25107 0.62401 0.0
H1727 H 0.10389 0.12296 0.6237 0.0
H1728 H 0.13302 0.37019 0.59988 0.0
H1729 H 0.10585 0.38741 0.66354 0.0
H1730 H 0.11547 0.30942 0.6563 0.0
H1731 H 0.09682 0.32874 0.6488 0.0
C1732 C 0.14031 0.17831 0.62225 0.0
C1733 C 0.12817 0.1309 0.6227 0.0
C1734 C 0.13793 0.2508 0.62253 0.0
C1735 C 0.12332 0.27847 0.62336 0.0
C1736 C 0.11107 0.23131 0.62368 0.0
H1737 H 0.08874 0.70344 0.62612 0.0
H1738 H 0.09295 0.57731 0.62567 0.0
C1739 C 0.11347 0.15807 0.62339 0.0
C1740 C 0.12124 0.3566 0.62365 0.0
H1741 H 0.1075 0.49248 0.64766 0.0
C1742 C 0.12744 0.39688 0.61035 0.0
C1743 C 0.11407 0.3919 0.63734 0.0
C1744 C 0.10778 0.35241 0.6524 0.0
C1745 C 0.12644 0.47078 0.61019 0.0
C1746 C 0.11928 0.50612 0.62388 0.0
C1747 C 0.11308 0.46581 0.63719 0.0
C1748 C 0.1172 0.58428 0.62418 0.0
C1749 C 0.13271 0.51016 0.5951 0.0
C1750 C 0.12944 0.63146 0.62361 0.0
C1751 C 0.12704 0.70471 0.62382 0.0
C1752 C 0.11235 0.73192 0.62469 0.0
C1753 C 0.10022 0.68449 0.62542 0.0
C1754 C 0.1026 0.61198 0.6252 0.0
H1755 H 0.13452 0.47517 0.58393 0.0
H1756 H 0.12507 0.55345 0.59127 0.0
H1757 H 0.14373 0.53337 0.59862 0.0
H1758 H 0.14086 0.61173 0.62314 0.0
H1759 H 0.13661 0.73979 0.62327 0.0
H1760 H 0.59022 0.86985 0.12825 0.0
H1761 H 0.59442 0.99605 0.1276 0.0
H1762 H 0.6423 0.96145 0.1246 0.0
H1763 H 0.63806 0.83342 0.12497 0.0
H1764 H 0.60919 0.08182 0.14933 0.0
H1765 H 0.63566 0.09684 0.08531 0.0
H1766 H 0.62624 1.0189 0.09282 0.0
H1767 H 0.64498 0.03894 0.09993 0.0
C1768 C 0.60169 0.8888 0.12741 0.0
C1769 C 0.61381 0.84131 0.12662 0.0
C1770 C 0.60407 0.96134 0.12707 0.0
C1771 C 0.61865 0.98903 0.12585 0.0
C1772 C 0.63089 0.94177 0.12522 0.0
H1773 H 0.65348 0.41398 0.12241 0.0
H1774 H 0.64924 0.2878 0.12302 0.0
C1775 C 0.62849 0.86852 0.12556 0.0
C1776 C 0.62075 0.06724 0.12544 0.0
H1777 H 0.63443 0.20229 0.1012 0.0
C1778 C 0.6147 0.10808 0.13877 0.0
C1779 C 0.62784 0.10211 0.11165 0.0
C1780 C 0.63394 0.06219 0.09652 0.0
C1781 C 0.61578 0.18199 0.13887 0.0
C1782 C 0.62287 0.21685 0.12509 0.0
C1783 C 0.62892 0.17602 0.11175 0.0
C1784 C 0.625 0.29503 0.1247 0.0
C1785 C 0.60967 0.22194 0.15399 0.0
C1786 C 0.61278 0.34238 0.12529 0.0
C1787 C 0.61521 0.41561 0.12498 0.0
C1788 C 0.6299 0.44268 0.12398 0.0
C1789 C 0.64201 0.39512 0.12321 0.0
C1790 C 0.6396 0.32259 0.12352 0.0
H1791 H 0.60791 0.18728 0.1652 0.0
H1792 H 0.61738 0.26513 0.15772 0.0
H1793 H 0.59865 0.24534 0.15055 0.0
H1794 H 0.60136 0.32279 0.12587 0.0
H1795 H 0.60565 0.45081 0.12554 0.0
H1796 H 0.34968 0.64607 0.14894 0.0
H1797 H 0.35251 0.7734 0.1482 0.0
H1798 H 0.38494 0.75382 0.10752 0.0
H1799 H 0.382 0.62517 0.10813 0.0
H1800 H 0.37704 0.85724 0.15346 0.0
H1801 H 0.3549 0.89629 0.08799 0.0
H1802 H 0.35275 0.81466 0.09939 0.0
H1803 H 0.3704 0.83605 0.08949 0.0
C1804 C 0.35746 0.66868 0.13983 0.0
C1805 C 0.36554 0.62538 0.12851 0.0
C1806 C 0.35907 0.74173 0.13943 0.0
C1807 C 0.36872 0.77384 0.12761 0.0
C1808 C 0.37715 0.73065 0.11653 0.0
H1809 H 0.40202 0.19984 0.13152 0.0
H1810 H 0.39794 0.07346 0.13204 0.0
C1811 C 0.37559 0.65706 0.11698 0.0
C1812 C 0.36996 0.85229 0.12724 0.0
H1813 H 0.36454 0.99704 0.10207 0.0
C1814 C 0.3743 0.88764 0.1422 0.0
C1815 C 0.36611 0.89256 0.11269 0.0
C1816 C 0.36064 0.85823 0.0965 0.0
C1817 C 0.37519 0.96141 0.14291 0.0
C1818 C 0.37181 1.00159 0.12821 0.0
C1819 C 0.36717 0.96649 0.11334 0.0
C1820 C 0.37394 0.07953 0.12785 0.0
C1821 C 0.37965 0.99582 0.1595 0.0
C1822 C 0.36182 0.12591 0.12504 0.0
C1823 C 0.36414 0.19917 0.12478 0.0
C1824 C 0.37865 0.22706 0.12713 0.0
C1825 C 0.39068 0.18032 0.12979 0.0
C1826 C 0.38836 0.10776 0.13014 0.0
H1827 H 0.37777 0.96045 0.17055 0.0
H1828 H 0.39181 1.00902 0.15906 0.0
H1829 H 0.37324 0.04512 0.1616 0.0
H1830 H 0.35058 0.10545 0.12314 0.0
H1831 H 0.35468 0.23372 0.12252 0.0
H1832 H 0.63721 0.23237 0.37386 0.0
H1833 H 0.6413 0.10407 0.37385 0.0
H1834 H 0.59347 0.07124 0.3694 0.0
H1835 H 0.58943 0.19752 0.36913 0.0
H1836 H 0.63045 1.00049 0.39606 0.0
H1837 H 0.6089 0.94846 0.33106 0.0
H1838 H 0.61349 1.03568 0.33839 0.0
H1839 H 0.59578 0.99621 0.34403 0.0
C1840 C 0.62763 0.19762 0.37271 0.0
C1841 C 0.61302 0.22536 0.37131 0.0
C1842 C 0.62994 0.12425 0.37276 0.0
C1843 C 0.61771 0.07741 0.37126 0.0
C1844 C 0.60316 0.10559 0.3701 0.0
H1845 H 0.60517 0.61673 0.37207 0.0
H1846 H 0.60104 0.74508 0.3719 0.0
C1847 C 0.60086 0.17823 0.37007 0.0
C1848 C 0.61985 0.99919 0.37142 0.0
H1849 H 0.61191 0.84874 0.34908 0.0
C1850 C 0.62651 0.96749 0.38571 0.0
C1851 C 0.61458 0.9554 0.35802 0.0
C1852 C 0.60792 0.98564 0.34194 0.0
C1853 C 0.62779 0.89386 0.38711 0.0
C1854 C 0.6225 0.85009 0.37373 0.0
C1855 C 0.61584 0.88177 0.35944 0.0
C1856 C 0.62467 0.77193 0.37389 0.0
C1857 C 0.63452 0.86355 0.40315 0.0
C1858 C 0.63925 0.74391 0.37476 0.0
C1859 C 0.64157 0.6713 0.37485 0.0
C1860 C 0.62941 0.62406 0.37397 0.0
C1861 C 0.61476 0.65163 0.37287 0.0
C1862 C 0.61242 0.72498 0.37275 0.0
H1863 H 0.6337 0.90088 0.41401 0.0
H1864 H 0.62887 0.81378 0.40678 0.0
H1865 H 0.64662 0.85235 0.40094 0.0
H1866 H 0.64893 0.77837 0.37521 0.0
H1867 H 0.65303 0.6521 0.37557 0.0
H1868 H 0.3534 0.83101 0.37004 0.0
H1869 H 0.3493 0.95931 0.37037 0.0
H1870 H 0.39721 0.99239 0.36729 0.0
H1871 H 0.40128 0.86611 0.36682 0.0
H1872 H 0.36008 0.06087 0.39373 0.0
H1873 H 0.38221 0.11828 0.32921 0.0
H1874 H 0.37736 1.03059 0.33594 0.0
H1875 H 0.39508 0.06873 0.34205 0.0
C1876 C 0.36299 0.86582 0.36928 0.0
C1877 C 0.37765 0.83817 0.3683 0.0
C1878 C 0.36067 0.93917 0.3695 0.0
C1879 C 0.37294 0.98607 0.36855 0.0
C1880 C 0.38751 0.95799 0.36762 0.0
H1881 H 0.38558 0.44637 0.37094 0.0
H1882 H 0.38969 0.31805 0.37068 0.0
C1883 C 0.38982 0.88536 0.36746 0.0
C1884 C 0.3708 0.06422 0.36914 0.0
H1885 H 0.37895 0.2164 0.34774 0.0
C1886 C 0.36409 0.09473 0.38359 0.0
C1887 C 0.37619 0.10906 0.35604 0.0
C1888 C 0.38299 0.08007 0.33986 0.0
C1889 C 0.36286 0.16823 0.38544 0.0
C1890 C 0.36822 0.21308 0.37233 0.0
C1891 C 0.37494 0.18255 0.35788 0.0
C1892 C 0.36608 0.29123 0.37292 0.0
C1893 C 0.35611 0.19717 0.40166 0.0
C1894 C 0.35152 0.3193 0.37406 0.0
C1895 C 0.3492 0.39191 0.37422 0.0
C1896 C 0.36136 0.43909 0.37314 0.0
C1897 C 0.376 0.41149 0.37193 0.0
C1898 C 0.37833 0.33816 0.37173 0.0
H1899 H 0.35702 0.15908 0.41232 0.0
H1900 H 0.36169 0.24686 0.40552 0.0
H1901 H 0.34399 0.20803 0.39956 0.0
H1902 H 0.34183 0.28489 0.37455 0.0
H1903 H 0.33775 0.41115 0.37502 0.0
H1904 H 0.3858 0.62203 0.87014 0.0
H1905 H 0.3899 0.75039 0.86998 0.0
H1906 H 0.34209 0.78363 0.87456 0.0
H1907 H 0.33801 0.65738 0.87489 0.0
H1908 H 0.37853 0.85373 0.84738 0.0
H1909 H 0.35808 0.90649 0.91289 0.0
H1910 H 0.36281 0.81936 0.90557 0.0
H1911 H 0.34492 0.85763 0.90024 0.0
C1912 C 0.37622 0.65693 0.87125 0.0
C1913 C 0.36159 0.62937 0.87266 0.0
C1914 C 0.37855 0.73027 0.87112 0.0
C1915 C 0.36631 0.77719 0.8726 0.0
C1916 C 0.35176 0.74918 0.87384 0.0
H1917 H 0.35361 0.23767 0.87219 0.0
H1918 H 0.3495 0.10933 0.87232 0.0
C1919 C 0.34945 0.67658 0.87392 0.0
C1920 C 0.36845 0.85533 0.87233 0.0
H1921 H 0.36086 1.00593 0.89476 0.0
C1922 C 0.37479 0.88686 0.85782 0.0
C1923 C 0.36341 0.8992 0.88582 0.0
C1924 C 0.35705 0.86901 0.90208 0.0
C1925 C 0.37597 0.96048 0.85631 0.0
C1926 C 0.37094 1.00436 0.86981 0.0
C1927 C 0.3646 0.97281 0.88432 0.0
C1928 C 0.37307 0.08251 0.86954 0.0
C1929 C 0.38232 0.99063 0.84004 0.0
C1930 C 0.38762 0.11053 0.86821 0.0
C1931 C 0.38993 0.18313 0.86813 0.0
C1932 C 0.3778 0.23036 0.86948 0.0
C1933 C 0.36317 0.20279 0.87099 0.0
C1934 C 0.36085 0.12944 0.87111 0.0
H1935 H 0.38123 0.95319 0.82923 0.0
H1936 H 0.37658 0.04038 0.83657 0.0
H1937 H 0.39446 1.00178 0.84184 0.0
H1938 H 0.39729 0.07609 0.86742 0.0
H1939 H 0.40137 0.20232 0.86709 0.0
H1940 H 0.64702 0.43006 0.85396 0.0
H1941 H 0.64362 0.30298 0.8549 0.0
H1942 H 0.60268 0.33011 0.88366 0.0
H1943 H 0.60613 0.45858 0.88294 0.0
H1944 H 0.64037 0.21564 0.88626 0.0
H1945 H 0.5919 0.19837 0.84159 0.0
H1946 H 0.60445 0.27295 0.84194 0.0
H1947 H 0.59076 0.26206 0.85853 0.0
C1948 C 0.63724 0.40927 0.86047 0.0
C1949 C 0.62685 0.45466 0.86841 0.0
C1950 C 0.63535 0.33637 0.86102 0.0
C1951 C 0.6229 0.30669 0.86931 0.0
C1952 C 0.61234 0.35175 0.8771 0.0
H1953 H 0.58994 0.8799 0.87763 0.0
H1954 H 0.59399 1.00618 0.87786 0.0
C1955 C 0.61432 0.42512 0.87669 0.0
C1956 C 0.62121 0.22863 0.86984 0.0
H1957 H 0.60039 0.09296 0.85381 0.0
C1958 C 0.63161 0.18867 0.87921 0.0
C1959 C 0.60984 0.19341 0.86059 0.0
C1960 C 0.59861 0.23348 0.84997 0.0
C1961 C 0.63073 0.11475 0.8799 0.0
C1962 C 0.61942 0.07916 0.87049 0.0
C1963 C 0.6091 0.11952 0.86103 0.0
C1964 C 0.61752 1.00075 0.87086 0.0
C1965 C 0.64166 0.07595 0.89118 0.0
C1966 C 0.62939 0.95413 0.86691 0.0
C1967 C 0.62713 0.88084 0.86707 0.0
C1968 C 0.61288 0.85287 0.87083 0.0
C1969 C 0.60107 0.89955 0.87464 0.0
C1970 C 0.60337 0.97215 0.87474 0.0
H1971 H 0.6465 0.11082 0.90114 0.0
H1972 H 0.63617 1.03071 0.89756 0.0
H1973 H 0.65111 0.05593 0.88329 0.0
H1974 H 0.64035 0.97428 0.8634 0.0
H1975 H 0.6364 0.84633 0.8639 0.0
H1976 H 0.40022 0.86848 0.62586 0.0
H1977 H 0.39599 0.99465 0.6255 0.0
H1978 H 0.34809 0.95988 0.62295 0.0
H1979 H 0.35235 0.83197 0.62375 0.0
H1980 H 0.38395 0.07726 0.6019 0.0
H1981 H 0.35023 0.10136 0.66119 0.0
H1982 H 0.36012 1.02188 0.6556 0.0
H1983 H 0.34238 0.0422 0.64575 0.0
C1984 C 0.38873 0.88741 0.62532 0.0
C1985 C 0.37661 0.8399 0.62488 0.0
C1986 C 0.38634 0.95995 0.62507 0.0
C1987 C 0.37172 0.98767 0.62438 0.0
C1988 C 0.35949 0.94032 0.62385 0.0
H1989 H 0.33693 0.41288 0.61916 0.0
H1990 H 0.34115 0.28656 0.61942 0.0
C1991 C 0.36191 0.86709 0.62419 0.0
C1992 C 0.3696 0.06591 0.62388 0.0
H1993 H 0.35303 0.20425 0.64458 0.0
C1994 C 0.37721 0.10491 0.61129 0.0
C1995 C 0.36089 0.1027 0.63613 0.0
C1996 C 0.35304 0.06512 0.65054 0.0
C1997 C 0.37616 0.17874 0.61044 0.0
C1998 C 0.36741 0.21542 0.62265 0.0
C1999 C 0.35979 0.17651 0.63523 0.0
C2000 C 0.36531 0.29357 0.62211 0.0
C2001 C 0.38413 0.21667 0.59618 0.0
C2002 C 0.3775 0.34077 0.62353 0.0
C2003 C 0.3751 0.414 0.62333 0.0
C2004 C 0.36045 0.44125 0.62179 0.0
C2005 C 0.34837 0.39385 0.62033 0.0
C2006 C 0.35076 0.32128 0.62053 0.0
H2007 H 0.38739 0.18044 0.58569 0.0
H2008 H 0.37692 0.25886 0.59084 0.0
H2009 H 0.39453 0.24123 0.60123 0.0
H2010 H 0.38884 0.32104 0.62507 0.0
H2011 H 0.38462 0.44909 0.62463 0.0
H2012 H 0.65176 0.66022 0.62345 0.0
H2013 H 0.64754 0.78639 0.62399 0.0
H2014 H 0.59959 0.75189 0.62528 0.0
H2015 H 0.60385 0.62383 0.62503 0.0
H2016 H 0.63337 0.87162 0.60171 0.0
H2017 H 0.60516 0.88785 0.66479 0.0
H2018 H 0.61478 0.80975 0.65762 0.0
H2019 H 0.59626 0.82975 0.64983 0.0
C2020 C 0.64027 0.67918 0.6239 0.0
C2021 C 0.62813 0.63175 0.62425 0.0
C2022 C 0.63788 0.7517 0.62417 0.0
C2023 C 0.62327 0.77939 0.62488 0.0
C2024 C 0.61102 0.73218 0.62507 0.0
H2025 H 0.58851 0.20447 0.62737 0.0
H2026 H 0.59273 0.07831 0.62678 0.0
C2027 C 0.61342 0.65894 0.62481 0.0
C2028 C 0.62116 0.85756 0.6252 0.0
H2029 H 0.60691 0.99306 0.64896 0.0
C2030 C 0.62758 0.8981 0.61207 0.0
C2031 C 0.61373 0.89267 0.63873 0.0
C2032 C 0.60719 0.85302 0.65364 0.0
C2033 C 0.62654 0.97201 0.61194 0.0
C2034 C 0.61911 1.00713 0.62547 0.0
C2035 C 0.61269 0.96658 0.6386 0.0
C2036 C 0.617 0.08532 0.62579 0.0
C2037 C 0.63308 1.01163 0.59702 0.0
C2038 C 0.62925 0.13256 0.62555 0.0
C2039 C 0.62683 0.20581 0.62583 0.0
C2040 C 0.61213 0.23301 0.62646 0.0
C2041 C 0.6 0.18553 0.62686 0.0
C2042 C 0.60239 0.11301 0.62656 0.0
H2043 H 0.63508 0.9768 0.58587 0.0
H2044 H 0.62551 0.05499 0.59306 0.0
H2045 H 0.64403 1.03476 0.60082 0.0
H2046 H 0.64067 0.11288 0.62529 0.0
H2047 H 0.63641 0.2409 0.62555 0.0
loop_
_geom_bond_atom_site_label_1
_geom_bond_atom_site_label_2
_geom_bond_distance
_geom_bond_site_symmetry_2
_ccdc_geom_bond_type
Tb0 O3 2.453 . S
Tb0 O4 2.596 . S
Tb0 O5 2.374 . S
Tb0 O13 2.343 . S
Tb0 O15 2.353 . S
Tb0 O17 2.427 . S
Tb0 O18 2.513 . S
C1 O5 1.251 . S
C1 O7 1.263 . S
Tb2 O4 2.343 . S
Tb2 O7 2.353 . S
Tb2 O10 2.427 . S
Tb2 O11 2.513 . S
Tb2 O12 2.453 1_545 S
Tb2 O13 2.596 . S
Tb2 O14 2.374 . S
O3 Tb0 2.453 . S
O3 C19 1.245 . S
O4 Tb0 2.596 . S
O4 Tb2 2.343 . S
O4 C19 1.259 . S
O5 Tb0 2.374 . S
O5 C1 1.251 . S
C6 O10 1.275 . S
C6 O11 1.246 . S
O7 C1 1.263 . S
O7 Tb2 2.353 . S
C8 O12 1.245 . S
C8 O13 1.257 1_565 S
C9 O14 1.250 . S
C9 O15 1.263 . S
O10 Tb2 2.427 . S
O10 C6 1.275 . S
O11 Tb2 2.513 . S
O11 C6 1.246 . S
O12 Tb2 2.453 1_565 S
O12 C8 1.245 . S
O13 Tb0 2.343 . S
O13 Tb2 2.596 . S
O13 C8 1.257 1_545 S
O14 Tb2 2.374 . S
O14 C9 1.250 . S
O15 Tb0 2.353 . S
O15 C9 1.263 . S
C16 O17 1.275 . S
C16 O18 1.246 . S
O17 Tb0 2.427 . S
O17 C16 1.275 . S
O18 Tb0 2.513 . S
O18 C16 1.246 . S
C19 O3 1.245 . S
C19 O4 1.259 . S
Tb20 O23 2.453 . S
Tb20 O24 2.596 . S
Tb20 O25 2.374 . S
Tb20 O33 2.343 . S
Tb20 O35 2.353 . S
Tb20 O37 2.427 . S
Tb20 O38 2.513 . S
C21 O25 1.251 . S
C21 O27 1.263 . S
Tb22 O24 2.343 . S
Tb22 O27 2.353 . S
Tb22 O30 2.427 . S
Tb22 O31 2.513 . S
Tb22 O32 2.453 1_565 S
Tb22 O33 2.596 . S
Tb22 O34 2.374 . S
O23 Tb20 2.453 . S
O23 C39 1.245 . S
O24 Tb20 2.596 . S
O24 Tb22 2.343 . S
O24 C39 1.259 . S
O25 Tb20 2.374 . S
O25 C21 1.251 . S
C26 O30 1.275 . S
C26 O31 1.246 . S
O27 C21 1.263 . S
O27 Tb22 2.353 . S
C28 O32 1.245 . S
C28 O33 1.257 1_545 S
C29 O34 1.250 . S
C29 O35 1.263 . S
O30 Tb22 2.427 . S
O30 C26 1.275 . S
O31 Tb22 2.513 . S
O31 C26 1.246 . S
O32 Tb22 2.453 1_545 S
O32 C28 1.245 . S
O33 Tb20 2.343 . S
O33 Tb22 2.596 . S
O33 C28 1.257 1_565 S
O34 Tb22 2.374 . S
O34 C29 1.250 . S
O35 Tb20 2.353 . S
O35 C29 1.263 . S
C36 O37 1.275 . S
C36 O38 1.246 . S
O37 Tb20 2.427 . S
O37 C36 1.275 . S
O38 Tb20 2.513 . S
O38 C36 1.246 . S
C39 O23 1.245 . S
C39 O24 1.259 . S
Tb40 O43 2.453 . S
Tb40 O44 2.596 . S
Tb40 O45 2.374 . S
Tb40 O53 2.343 . S
Tb40 O55 2.353 . S
Tb40 O57 2.427 . S
Tb40 O58 2.513 . S
C41 O45 1.251 . S
C41 O47 1.263 . S
Tb42 O44 2.343 . S
Tb42 O47 2.353 . S
Tb42 O50 2.427 . S
Tb42 O51 2.513 . S
Tb42 O52 2.453 1_565 S
Tb42 O53 2.596 . S
Tb42 O54 2.374 . S
O43 Tb40 2.453 . S
O43 C59 1.245 . S
O44 Tb40 2.596 . S
O44 Tb42 2.343 . S
O44 C59 1.259 . S
O45 Tb40 2.374 . S
O45 C41 1.251 . S
C46 O50 1.275 . S
C46 O51 1.246 . S
O47 C41 1.263 . S
O47 Tb42 2.353 . S
C48 O52 1.245 . S
C48 O53 1.257 1_545 S
C49 O54 1.250 . S
C49 O55 1.263 . S
O50 Tb42 2.427 . S
O50 C46 1.275 . S
O51 Tb42 2.513 . S
O51 C46 1.246 . S
O52 Tb42 2.453 1_545 S
O52 C48 1.245 . S
O53 Tb40 2.343 . S
O53 Tb42 2.596 . S
O53 C48 1.257 1_565 S
O54 Tb42 2.374 . S
O54 C49 1.250 . S
O55 Tb40 2.353 . S
O55 C49 1.263 . S
C56 O57 1.275 . S
C56 O58 1.246 . S
O57 Tb40 2.427 . S
O57 C56 1.275 . S
O58 Tb40 2.513 . S
O58 C56 1.246 . S
C59 O43 1.245 . S
C59 O44 1.259 . S
Tb60 O63 2.453 . S
Tb60 O64 2.596 . S
Tb60 O65 2.374 . S
Tb60 O73 2.343 . S
Tb60 O75 2.353 . S
Tb60 O77 2.427 . S
Tb60 O78 2.513 . S
C61 O65 1.251 . S
C61 O67 1.263 . S
Tb62 O64 2.343 . S
Tb62 O67 2.353 . S
Tb62 O70 2.427 . S
Tb62 O71 2.513 . S
Tb62 O72 2.453 1_545 S
Tb62 O73 2.596 . S
Tb62 O74 2.374 . S
O63 Tb60 2.453 . S
O63 C79 1.245 . S
O64 Tb60 2.596 . S
O64 Tb62 2.343 . S
O64 C79 1.259 . S
O65 Tb60 2.374 . S
O65 C61 1.251 . S
C66 O70 1.275 . S
C66 O71 1.246 . S
O67 C61 1.263 . S
O67 Tb62 2.353 . S
C68 O72 1.245 . S
C68 O73 1.257 1_565 S
C69 O74 1.250 . S
C69 O75 1.263 . S
O70 Tb62 2.427 . S
O70 C66 1.275 . S
O71 Tb62 2.513 . S
O71 C66 1.246 . S
O72 Tb62 2.453 1_565 S
O72 C68 1.245 . S
O73 Tb60 2.343 . S
O73 Tb62 2.596 . S
O73 C68 1.257 1_545 S
O74 Tb62 2.374 . S
O74 C69 1.250 . S
O75 Tb60 2.353 . S
O75 C69 1.263 . S
C76 O77 1.275 . S
C76 O78 1.246 . S
O77 Tb60 2.427 . S
O77 C76 1.275 . S
O78 Tb60 2.513 . S
O78 C76 1.246 . S
C79 O63 1.245 . S
C79 O64 1.259 . S
Tb80 O83 2.453 1_565 S
Tb80 O84 2.596 . S
Tb80 O85 2.374 . S
Tb80 O93 2.343 . S
Tb80 O95 2.353 . S
Tb80 O97 2.427 . S
Tb80 O98 2.513 . S
C81 O85 1.251 . S
C81 O87 1.263 . S
Tb82 O84 2.343 . S
Tb82 O87 2.353 . S
Tb82 O90 2.427 . S
Tb82 O91 2.513 . S
Tb82 O92 2.453 . S
Tb82 O93 2.596 . S
Tb82 O94 2.374 . S
O83 Tb80 2.453 1_545 S
O83 C99 1.245 . S
O84 Tb80 2.596 . S
O84 Tb82 2.343 . S
O84 C99 1.257 1_565 S
O85 Tb80 2.374 . S
O85 C81 1.251 . S
C86 O90 1.275 . S
C86 O91 1.246 . S
O87 C81 1.263 . S
O87 Tb82 2.353 . S
C88 O92 1.245 . S
C88 O93 1.259 . S
C89 O94 1.250 . S
C89 O95 1.263 . S
O90 Tb82 2.427 . S
O90 C86 1.275 . S
O91 Tb82 2.513 . S
O91 C86 1.246 . S
O92 Tb82 2.453 . S
O92 C88 1.245 . S
O93 Tb80 2.343 . S
O93 Tb82 2.596 . S
O93 C88 1.259 . S
O94 Tb82 2.374 . S
O94 C89 1.250 . S
O95 Tb80 2.353 . S
O95 C89 1.263 . S
C96 O97 1.275 . S
C96 O98 1.246 . S
O97 Tb80 2.427 . S
O97 C96 1.275 . S
O98 Tb80 2.513 . S
O98 C96 1.246 . S
C99 O83 1.245 . S
C99 O84 1.257 1_545 S
Tb100 O103 2.453 1_545 S
Tb100 O104 2.596 . S
Tb100 O105 2.374 . S
Tb100 O113 2.343 . S
Tb100 O115 2.353 . S
Tb100 O117 2.427 . S
Tb100 O118 2.513 . S
C101 O105 1.251 . S
C101 O107 1.263 . S
Tb102 O104 2.343 . S
Tb102 O107 2.353 . S
Tb102 O110 2.427 . S
Tb102 O111 2.513 . S
Tb102 O112 2.453 . S
Tb102 O113 2.596 . S
Tb102 O114 2.374 . S
O103 Tb100 2.453 1_565 S
O103 C119 1.245 . S
O104 Tb100 2.596 . S
O104 Tb102 2.343 . S
O104 C119 1.257 1_545 S
O105 Tb100 2.374 . S
O105 C101 1.251 . S
C106 O110 1.275 . S
C106 O111 1.246 . S
O107 C101 1.263 . S
O107 Tb102 2.353 . S
C108 O112 1.245 . S
C108 O113 1.259 . S
C109 O114 1.250 . S
C109 O115 1.263 . S
O110 Tb102 2.427 . S
O110 C106 1.275 . S
O111 Tb102 2.513 . S
O111 C106 1.246 . S
O112 Tb102 2.453 . S
O112 C108 1.245 . S
O113 Tb100 2.343 . S
O113 Tb102 2.596 . S
O113 C108 1.259 . S
O114 Tb102 2.374 . S
O114 C109 1.250 . S
O115 Tb100 2.353 . S
O115 C109 1.263 . S
C116 O117 1.275 . S
C116 O118 1.246 . S
O117 Tb100 2.427 . S
O117 C116 1.275 . S
O118 Tb100 2.513 . S
O118 C116 1.246 . S
C119 O103 1.245 . S
C119 O104 1.257 1_565 S
Tb120 O123 2.453 1_545 S
Tb120 O124 2.596 . S
Tb120 O125 2.374 . S
Tb120 O133 2.343 . S
Tb120 O135 2.353 . S
Tb120 O137 2.427 . S
Tb120 O138 2.513 . S
C121 O125 1.251 . S
C121 O127 1.263 . S
Tb122 O124 2.343 . S
Tb122 O127 2.353 . S
Tb122 O130 2.427 . S
Tb122 O131 2.513 . S
Tb122 O132 2.453 . S
Tb122 O133 2.596 . S
Tb122 O134 2.374 . S
O123 Tb120 2.453 1_565 S
O123 C139 1.245 . S
O124 Tb120 2.596 . S
O124 Tb122 2.343 . S
O124 C139 1.257 1_545 S
O125 Tb120 2.374 . S
O125 C121 1.251 . S
C126 O130 1.275 . S
C126 O131 1.246 . S
O127 C121 1.263 . S
O127 Tb122 2.353 . S
C128 O132 1.245 . S
C128 O133 1.259 . S
C129 O134 1.250 . S
C129 O135 1.263 . S
O130 Tb122 2.427 . S
O130 C126 1.275 . S
O131 Tb122 2.513 . S
O131 C126 1.246 . S
O132 Tb122 2.453 . S
O132 C128 1.245 . S
O133 Tb120 2.343 . S
O133 Tb122 2.596 . S
O133 C128 1.259 . S
O134 Tb122 2.374 . S
O134 C129 1.250 . S
O135 Tb120 2.353 . S
O135 C129 1.263 . S
C136 O137 1.275 . S
C136 O138 1.246 . S
O137 Tb120 2.427 . S
O137 C136 1.275 . S
O138 Tb120 2.513 . S
O138 C136 1.246 . S
C139 O123 1.245 . S
C139 O124 1.257 1_565 S
Tb140 O143 2.453 1_565 S
Tb140 O144 2.596 . S
Tb140 O145 2.374 . S
Tb140 O153 2.343 . S
Tb140 O155 2.353 . S
Tb140 O157 2.427 . S
Tb140 O158 2.513 . S
C141 O145 1.251 . S
C141 O147 1.263 . S
Tb142 O144 2.343 . S
Tb142 O147 2.353 . S
Tb142 O150 2.427 . S
Tb142 O151 2.513 . S
Tb142 O152 2.453 . S
Tb142 O153 2.596 . S
Tb142 O154 2.374 . S
O143 Tb140 2.453 1_545 S
O143 C159 1.245 . S
O144 Tb140 2.596 . S
O144 Tb142 2.343 . S
O144 C159 1.257 1_565 S
O145 Tb140 2.374 . S
O145 C141 1.251 . S
C146 O150 1.275 . S
C146 O151 1.246 . S
O147 C141 1.263 . S
O147 Tb142 2.353 . S
C148 O152 1.245 . S
C148 O153 1.259 . S
C149 O154 1.250 . S
C149 O155 1.263 . S
O150 Tb142 2.427 . S
O150 C146 1.275 . S
O151 Tb142 2.513 . S
O151 C146 1.246 . S
O152 Tb142 2.453 . S
O152 C148 1.245 . S
O153 Tb140 2.343 . S
O153 Tb142 2.596 . S
O153 C148 1.259 . S
O154 Tb142 2.374 . S
O154 C149 1.250 . S
O155 Tb140 2.353 . S
O155 C149 1.263 . S
C156 O157 1.275 . S
C156 O158 1.246 . S
O157 Tb140 2.427 . S
O157 C156 1.275 . S
O158 Tb140 2.513 . S
O158 C156 1.246 . S
C159 O143 1.245 . S
C159 O144 1.257 1_545 S
Tb160 O163 2.453 . S
Tb160 O164 2.596 . S
Tb160 O165 2.374 . S
Tb160 O173 2.343 . S
Tb160 O175 2.353 . S
Tb160 O177 2.427 . S
Tb160 O178 2.513 . S
C161 O165 1.251 . S
C161 O167 1.263 . S
Tb162 O164 2.343 . S
Tb162 O167 2.353 . S
Tb162 O170 2.427 . S
Tb162 O171 2.513 . S
Tb162 O172 2.453 . S
Tb162 O173 2.596 . S
Tb162 O174 2.374 . S
O163 Tb160 2.453 . S
O163 C179 1.245 . S
O164 Tb160 2.596 . S
O164 Tb162 2.343 . S
O164 C179 1.259 . S
O165 Tb160 2.374 . S
O165 C161 1.251 . S
C166 O170 1.275 . S
C166 O171 1.246 . S
O167 C161 1.263 . S
O167 Tb162 2.353 . S
C168 O172 1.245 . S
C168 O173 1.259 . S
C169 O174 1.250 . S
C169 O175 1.263 . S
O170 Tb162 2.427 . S
O170 C166 1.275 . S
O171 Tb162 2.513 . S
O171 C166 1.246 . S
O172 Tb162 2.453 . S
O172 C168 1.245 . S
O173 Tb160 2.343 . S
O173 Tb162 2.596 . S
O173 C168 1.259 . S
O174 Tb162 2.374 . S
O174 C169 1.250 . S
O175 Tb160 2.353 . S
O175 C169 1.263 . S
C176 O177 1.275 . S
C176 O178 1.246 . S
O177 Tb160 2.427 . S
O177 C176 1.275 . S
O178 Tb160 2.513 . S
O178 C176 1.246 . S
C179 O163 1.245 . S
C179 O164 1.259 . S
Tb180 O183 2.453 . S
Tb180 O184 2.596 . S
Tb180 O185 2.374 . S
Tb180 O193 2.343 . S
Tb180 O195 2.353 . S
Tb180 O197 2.427 . S
Tb180 O198 2.513 . S
C181 O185 1.251 . S
C181 O187 1.263 . S
Tb182 O184 2.343 . S
Tb182 O187 2.353 . S
Tb182 O190 2.427 . S
Tb182 O191 2.513 . S
Tb182 O192 2.453 . S
Tb182 O193 2.596 . S
Tb182 O194 2.374 . S
O183 Tb180 2.453 . S
O183 C199 1.245 . S
O184 Tb180 2.596 . S
O184 Tb182 2.343 . S
O184 C199 1.259 . S
O185 Tb180 2.374 . S
O185 C181 1.251 . S
C186 O190 1.275 . S
C186 O191 1.246 . S
O187 C181 1.263 . S
O187 Tb182 2.353 . S
C188 O192 1.245 . S
C188 O193 1.259 . S
C189 O194 1.250 . S
C189 O195 1.263 . S
O190 Tb182 2.427 . S
O190 C186 1.275 . S
O191 Tb182 2.513 . S
O191 C186 1.246 . S
O192 Tb182 2.453 . S
O192 C188 1.245 . S
O193 Tb180 2.343 . S
O193 Tb182 2.596 . S
O193 C188 1.259 . S
O194 Tb182 2.374 . S
O194 C189 1.250 . S
O195 Tb180 2.353 . S
O195 C189 1.263 . S
C196 O197 1.275 . S
C196 O198 1.246 . S
O197 Tb180 2.427 . S
O197 C196 1.275 . S
O198 Tb180 2.513 . S
O198 C196 1.246 . S
C199 O183 1.245 . S
C199 O184 1.259 . S
Tb200 O203 2.453 . S
Tb200 O204 2.596 . S
Tb200 O205 2.374 . S
Tb200 O213 2.343 . S
Tb200 O215 2.353 . S
Tb200 O217 2.427 . S
Tb200 O218 2.513 . S
C201 O205 1.251 . S
C201 O207 1.263 . S
Tb202 O204 2.343 . S
Tb202 O207 2.353 . S
Tb202 O210 2.427 . S
Tb202 O211 2.513 . S
Tb202 O212 2.453 . S
Tb202 O213 2.596 . S
Tb202 O214 2.374 . S
O203 Tb200 2.453 . S
O203 C219 1.245 . S
O204 Tb200 2.596 . S
O204 Tb202 2.343 . S
O204 C219 1.259 . S
O205 Tb200 2.374 . S
O205 C201 1.251 . S
C206 O210 1.275 . S
C206 O211 1.246 . S
O207 C201 1.263 . S
O207 Tb202 2.353 . S
C208 O212 1.245 . S
C208 O213 1.259 . S
C209 O214 1.250 . S
C209 O215 1.263 . S
O210 Tb202 2.427 . S
O210 C206 1.275 . S
O211 Tb202 2.513 . S
O211 C206 1.246 . S
O212 Tb202 2.453 . S
O212 C208 1.245 . S
O213 Tb200 2.343 . S
O213 Tb202 2.596 . S
O213 C208 1.259 . S
O214 Tb202 2.374 . S
O214 C209 1.250 . S
O215 Tb200 2.353 . S
O215 C209 1.263 . S
C216 O217 1.275 . S
C216 O218 1.246 . S
O217 Tb200 2.427 . S
O217 C216 1.275 . S
O218 Tb200 2.513 . S
O218 C216 1.246 . S
C219 O203 1.245 . S
C219 O204 1.259 . S
Tb220 O223 2.453 . S
Tb220 O224 2.596 . S
Tb220 O225 2.374 . S
Tb220 O233 2.343 . S
Tb220 O235 2.353 . S
Tb220 O237 2.427 . S
Tb220 O238 2.513 . S
C221 O225 1.251 . S
C221 O227 1.263 . S
Tb222 O224 2.343 . S
Tb222 O227 2.353 . S
Tb222 O230 2.427 . S
Tb222 O231 2.513 . S
Tb222 O232 2.453 . S
Tb222 O233 2.596 . S
Tb222 O234 2.374 . S
O223 Tb220 2.453 . S
O223 C239 1.245 . S
O224 Tb220 2.596 . S
O224 Tb222 2.343 . S
O224 C239 1.259 . S
O225 Tb220 2.374 . S
O225 C221 1.251 . S
C226 O230 1.275 . S
C226 O231 1.246 . S
O227 C221 1.263 . S
O227 Tb222 2.353 . S
C228 O232 1.245 . S
C228 O233 1.259 . S
C229 O234 1.250 . S
C229 O235 1.263 . S
O230 Tb222 2.427 . S
O230 C226 1.275 . S
O231 Tb222 2.513 . S
O231 C226 1.246 . S
O232 Tb222 2.453 . S
O232 C228 1.245 . S
O233 Tb220 2.343 . S
O233 Tb222 2.596 . S
O233 C228 1.259 . S
O234 Tb222 2.374 . S
O234 C229 1.250 . S
O235 Tb220 2.353 . S
O235 C229 1.263 . S
C236 O237 1.275 . S
C236 O238 1.246 . S
O237 Tb220 2.427 . S
O237 C236 1.275 . S
O238 Tb220 2.513 . S
O238 C236 1.246 . S
C239 O223 1.245 . S
C239 O224 1.259 . S
Tb240 O243 2.453 . S
Tb240 O244 2.596 . S
Tb240 O245 2.374 . S
Tb240 O253 2.343 . S
Tb240 O255 2.353 . S
Tb240 O257 2.427 . S
Tb240 O258 2.513 . S
C241 O245 1.251 . S
C241 O247 1.263 . S
Tb242 O244 2.343 . S
Tb242 O247 2.353 . S
Tb242 O250 2.427 . S
Tb242 O251 2.513 . S
Tb242 O252 2.453 . S
Tb242 O253 2.596 . S
Tb242 O254 2.374 . S
O243 Tb240 2.453 . S
O243 C259 1.245 . S
O244 Tb240 2.596 . S
O244 Tb242 2.343 . S
O244 C259 1.259 . S
O245 Tb240 2.374 . S
O245 C241 1.251 . S
C246 O250 1.275 . S
C246 O251 1.246 . S
O247 C241 1.263 . S
O247 Tb242 2.353 . S
C248 O252 1.245 . S
C248 O253 1.259 . S
C249 O254 1.250 . S
C249 O255 1.263 . S
O250 Tb242 2.427 . S
O250 C246 1.275 . S
O251 Tb242 2.513 . S
O251 C246 1.246 . S
O252 Tb242 2.453 . S
O252 C248 1.245 . S
O253 Tb240 2.343 . S
O253 Tb242 2.596 . S
O253 C248 1.259 . S
O254 Tb242 2.374 . S
O254 C249 1.250 . S
O255 Tb240 2.353 . S
O255 C249 1.263 . S
C256 O257 1.275 . S
C256 O258 1.246 . S
O257 Tb240 2.427 . S
O257 C256 1.275 . S
O258 Tb240 2.513 . S
O258 C256 1.246 . S
C259 O243 1.245 . S
C259 O244 1.259 . S
Tb260 O263 2.453 . S
Tb260 O264 2.596 . S
Tb260 O265 2.374 . S
Tb260 O273 2.343 . S
Tb260 O275 2.353 . S
Tb260 O277 2.427 . S
Tb260 O278 2.513 . S
C261 O265 1.251 . S
C261 O267 1.263 . S
Tb262 O264 2.343 . S
Tb262 O267 2.353 . S
Tb262 O270 2.427 . S
Tb262 O271 2.513 . S
Tb262 O272 2.453 . S
Tb262 O273 2.596 . S
Tb262 O274 2.374 . S
O263 Tb260 2.453 . S
O263 C279 1.245 . S
O264 Tb260 2.596 . S
O264 Tb262 2.343 . S
O264 C279 1.259 . S
O265 Tb260 2.374 . S
O265 C261 1.251 . S
C266 O270 1.275 . S
C266 O271 1.246 . S
O267 C261 1.263 . S
O267 Tb262 2.353 . S
C268 O272 1.245 . S
C268 O273 1.259 . S
C269 O274 1.250 . S
C269 O275 1.263 . S
O270 Tb262 2.427 . S
O270 C266 1.275 . S
O271 Tb262 2.513 . S
O271 C266 1.246 . S
O272 Tb262 2.453 . S
O272 C268 1.245 . S
O273 Tb260 2.343 . S
O273 Tb262 2.596 . S
O273 C268 1.259 . S
O274 Tb262 2.374 . S
O274 C269 1.250 . S
O275 Tb260 2.353 . S
O275 C269 1.263 . S
C276 O277 1.275 . S
C276 O278 1.246 . S
O277 Tb260 2.427 . S
O277 C276 1.275 . S
O278 Tb260 2.513 . S
O278 C276 1.246 . S
C279 O263 1.245 . S
C279 O264 1.259 . S
Tb280 O283 2.453 . S
Tb280 O284 2.596 . S
Tb280 O285 2.374 . S
Tb280 O293 2.343 . S
Tb280 O295 2.353 . S
Tb280 O297 2.427 . S
Tb280 O298 2.513 . S
C281 O285 1.251 . S
C281 O287 1.263 . S
Tb282 O284 2.343 . S
Tb282 O287 2.353 . S
Tb282 O290 2.427 . S
Tb282 O291 2.513 . S
Tb282 O292 2.453 . S
Tb282 O293 2.596 . S
Tb282 O294 2.374 . S
O283 Tb280 2.453 . S
O283 C299 1.245 . S
O284 Tb280 2.596 . S
O284 Tb282 2.343 . S
O284 C299 1.259 . S
O285 Tb280 2.374 . S
O285 C281 1.251 . S
C286 O290 1.275 . S
C286 O291 1.246 . S
O287 C281 1.263 . S
O287 Tb282 2.353 . S
C288 O292 1.245 . S
C288 O293 1.259 . S
C289 O294 1.250 . S
C289 O295 1.263 . S
O290 Tb282 2.427 . S
O290 C286 1.275 . S
O291 Tb282 2.513 . S
O291 C286 1.246 . S
O292 Tb282 2.453 . S
O292 C288 1.245 . S
O293 Tb280 2.343 . S
O293 Tb282 2.596 . S
O293 C288 1.259 . S
O294 Tb282 2.374 . S
O294 C289 1.250 . S
O295 Tb280 2.353 . S
O295 C289 1.263 . S
C296 O297 1.275 . S
C296 O298 1.246 . S
O297 Tb280 2.427 . S
O297 C296 1.275 . S
O298 Tb280 2.513 . S
O298 C296 1.246 . S
C299 O283 1.245 . S
C299 O284 1.259 . S
Tb300 O303 2.453 . S
Tb300 O304 2.596 . S
Tb300 O305 2.374 . S
Tb300 O313 2.343 . S
Tb300 O315 2.353 . S
Tb300 O317 2.427 . S
Tb300 O318 2.513 . S
C301 O305 1.251 . S
C301 O307 1.263 . S
Tb302 O304 2.343 . S
Tb302 O307 2.353 . S
Tb302 O310 2.427 . S
Tb302 O311 2.513 . S
Tb302 O312 2.453 . S
Tb302 O313 2.596 . S
Tb302 O314 2.374 . S
O303 Tb300 2.453 . S
O303 C319 1.245 . S
O304 Tb300 2.596 . S
O304 Tb302 2.343 . S
O304 C319 1.259 . S
O305 Tb300 2.374 . S
O305 C301 1.251 . S
C306 O310 1.275 . S
C306 O311 1.246 . S
O307 C301 1.263 . S
O307 Tb302 2.353 . S
C308 O312 1.245 . S
C308 O313 1.259 . S
C309 O314 1.250 . S
C309 O315 1.263 . S
O310 Tb302 2.427 . S
O310 C306 1.275 . S
O311 Tb302 2.513 . S
O311 C306 1.246 . S
O312 Tb302 2.453 . S
O312 C308 1.245 . S
O313 Tb300 2.343 . S
O313 Tb302 2.596 . S
O313 C308 1.259 . S
O314 Tb302 2.374 . S
O314 C309 1.250 . S
O315 Tb300 2.353 . S
O315 C309 1.263 . S
C316 O317 1.275 . S
C316 O318 1.246 . S
O317 Tb300 2.427 . S
O317 C316 1.275 . S
O318 Tb300 2.513 . S
O318 C316 1.246 . S
C319 O303 1.245 . S
C319 O304 1.259 . S
H320 C328 0.929 . S
H321 C330 0.930 . S
H322 C332 0.930 . S
H323 C335 0.929 . S
H324 C338 0.930 . S
H325 C340 0.960 . S
H326 C340 0.960 . S
H327 C340 0.960 . S
C328 H320 0.929 . S
C328 C329 1.377 . S
C328 C330 1.384 . S
C329 C328 1.377 . S
C329 C335 1.390 . S
C330 H321 0.930 . S
C330 C328 1.384 . S
C330 C331 1.372 . S
C331 C330 1.372 . S
C331 C332 1.400 . S
C331 C336 1.490 . S
C332 H322 0.930 . S
C332 C331 1.400 . S
C332 C335 1.386 . S
H333 C349 0.930 . S
H334 C350 0.931 . S
C335 H323 0.929 . S
C335 C329 1.390 . S
C335 C332 1.386 . S
C336 C331 1.490 . S
C336 C338 1.395 . S
C336 C339 1.403 . S
H337 C343 0.930 . S
C338 H324 0.930 . S
C338 C336 1.395 . S
C338 C341 1.403 . S
C339 C336 1.403 . S
C339 C340 1.524 . S
C339 C343 1.400 . S
C340 H325 0.960 . S
C340 H326 0.960 . S
C340 H327 0.960 . S
C340 C339 1.524 . S
C341 C338 1.403 . S
C341 C342 1.392 . S
C341 C345 1.495 . S
C342 C341 1.392 . S
C342 C343 1.385 . S
C342 C344 1.478 . S
C343 H337 0.930 . S
C343 C339 1.400 . S
C343 C342 1.385 . S
C344 C342 1.478 . S
C344 C346 1.381 . S
C344 C350 1.383 . S
C345 C341 1.495 . S
C345 H351 0.959 . S
C345 H352 0.961 . S
C345 H353 0.960 . S
C346 C344 1.381 . S
C346 C347 1.394 . S
C346 H354 0.930 . S
C347 C346 1.394 . S
C347 C348 1.383 . S
C347 H355 0.929 . S
C348 C347 1.383 . S
C348 C349 1.377 . S
C349 H333 0.930 . S
C349 C348 1.377 . S
C349 C350 1.379 . S
C350 H334 0.931 . S
C350 C344 1.383 . S
C350 C349 1.379 . S
H351 C345 0.959 . S
H352 C345 0.961 . S
H353 C345 0.960 . S
H354 C346 0.930 . S
H355 C347 0.929 . S
H356 C364 0.929 . S
H357 C366 0.930 . S
H358 C368 0.930 . S
H359 C371 0.929 . S
H360 C374 0.930 . S
H361 C376 0.960 . S
H362 C376 0.960 . S
H363 C376 0.960 . S
C364 H356 0.929 . S
C364 C365 1.377 . S
C364 C366 1.384 . S
C365 C364 1.377 . S
C365 C371 1.390 . S
C366 H357 0.930 . S
C366 C364 1.384 . S
C366 C367 1.372 . S
C367 C366 1.372 . S
C367 C368 1.400 . S
C367 C372 1.490 . S
C368 H358 0.930 . S
C368 C367 1.400 . S
C368 C371 1.386 . S
H369 C385 0.930 . S
H370 C386 0.931 . S
C371 H359 0.929 . S
C371 C365 1.390 . S
C371 C368 1.386 . S
C372 C367 1.490 . S
C372 C374 1.395 . S
C372 C375 1.403 . S
H373 C379 0.930 . S
C374 H360 0.930 . S
C374 C372 1.395 . S
C374 C377 1.403 . S
C375 C372 1.403 . S
C375 C376 1.524 . S
C375 C379 1.400 . S
C376 H361 0.960 . S
C376 H362 0.960 . S
C376 H363 0.960 . S
C376 C375 1.524 . S
C377 C374 1.403 . S
C377 C378 1.392 . S
C377 C381 1.495 . S
C378 C377 1.392 . S
C378 C379 1.385 . S
C378 C380 1.478 . S
C379 H373 0.930 . S
C379 C375 1.400 . S
C379 C378 1.385 . S
C380 C378 1.478 . S
C380 C382 1.381 . S
C380 C386 1.383 . S
C381 C377 1.495 . S
C381 H387 0.959 . S
C381 H388 0.961 . S
C381 H389 0.960 . S
C382 C380 1.381 . S
C382 C383 1.394 . S
C382 H390 0.930 . S
C383 C382 1.394 . S
C383 C384 1.383 . S
C383 H391 0.929 . S
C384 C383 1.383 . S
C384 C385 1.377 . S
C385 H369 0.930 . S
C385 C384 1.377 . S
C385 C386 1.379 . S
C386 H370 0.931 . S
C386 C380 1.383 . S
C386 C385 1.379 . S
H387 C381 0.959 . S
H388 C381 0.961 . S
H389 C381 0.960 . S
H390 C382 0.930 . S
H391 C383 0.929 . S
H392 C400 0.929 . S
H393 C402 0.930 . S
H394 C404 0.930 . S
H395 C407 0.929 . S
H396 C410 0.930 . S
H397 C412 0.960 . S
H398 C412 0.960 . S
H399 C412 0.960 . S
C400 H392 0.929 . S
C400 C401 1.377 . S
C400 C402 1.384 . S
C401 C400 1.377 . S
C401 C407 1.390 . S
C402 H393 0.930 . S
C402 C400 1.384 . S
C402 C403 1.372 . S
C403 C402 1.372 . S
C403 C404 1.400 . S
C403 C408 1.490 . S
C404 H394 0.930 . S
C404 C403 1.400 . S
C404 C407 1.386 . S
H405 C421 0.930 . S
H406 C422 0.931 . S
C407 H395 0.929 . S
C407 C401 1.390 . S
C407 C404 1.386 . S
C408 C403 1.490 . S
C408 C410 1.395 . S
C408 C411 1.403 . S
H409 C415 0.930 . S
C410 H396 0.930 . S
C410 C408 1.395 . S
C410 C413 1.403 . S
C411 C408 1.403 . S
C411 C412 1.524 . S
C411 C415 1.400 . S
C412 H397 0.960 . S
C412 H398 0.960 . S
C412 H399 0.960 . S
C412 C411 1.524 . S
C413 C410 1.403 . S
C413 C414 1.392 . S
C413 C417 1.495 . S
C414 C413 1.392 . S
C414 C415 1.385 . S
C414 C416 1.478 . S
C415 H409 0.930 . S
C415 C411 1.400 . S
C415 C414 1.385 . S
C416 C414 1.478 . S
C416 C418 1.381 . S
C416 C422 1.383 . S
C417 C413 1.495 . S
C417 H423 0.959 . S
C417 H424 0.961 . S
C417 H425 0.960 . S
C418 C416 1.381 . S
C418 C419 1.394 . S
C418 H426 0.930 . S
C419 C418 1.394 . S
C419 C420 1.383 . S
C419 H427 0.929 . S
C420 C419 1.383 . S
C420 C421 1.377 . S
C421 H405 0.930 . S
C421 C420 1.377 . S
C421 C422 1.379 . S
C422 H406 0.931 . S
C422 C416 1.383 . S
C422 C421 1.379 . S
H423 C417 0.959 . S
H424 C417 0.961 . S
H425 C417 0.960 . S
H426 C418 0.930 . S
H427 C419 0.929 . S
H428 C436 0.929 . S
H429 C438 0.930 . S
H430 C440 0.930 . S
H431 C443 0.929 . S
H432 C446 0.930 . S
H433 C448 0.960 . S
H434 C448 0.960 . S
H435 C448 0.960 . S
C436 H428 0.929 . S
C436 C437 1.377 . S
C436 C438 1.384 . S
C437 C436 1.377 . S
C437 C443 1.390 . S
C438 H429 0.930 . S
C438 C436 1.384 . S
C438 C439 1.372 . S
C439 C438 1.372 . S
C439 C440 1.400 . S
C439 C444 1.490 . S
C440 H430 0.930 . S
C440 C439 1.400 . S
C440 C443 1.386 . S
H441 C457 0.930 . S
H442 C458 0.931 . S
C443 H431 0.929 . S
C443 C437 1.390 . S
C443 C440 1.386 . S
C444 C439 1.490 . S
C444 C446 1.395 . S
C444 C447 1.403 . S
H445 C451 0.930 . S
C446 H432 0.930 . S
C446 C444 1.395 . S
C446 C449 1.403 . S
C447 C444 1.403 . S
C447 C448 1.524 . S
C447 C451 1.400 . S
C448 H433 0.960 . S
C448 H434 0.960 . S
C448 H435 0.960 . S
C448 C447 1.524 . S
C449 C446 1.403 . S
C449 C450 1.392 . S
C449 C453 1.495 . S
C450 C449 1.392 . S
C450 C451 1.385 . S
C450 C452 1.478 . S
C451 H445 0.930 . S
C451 C447 1.400 . S
C451 C450 1.385 . S
C452 C450 1.478 . S
C452 C454 1.381 . S
C452 C458 1.383 . S
C453 C449 1.495 . S
C453 H459 0.959 . S
C453 H460 0.961 . S
C453 H461 0.960 . S
C454 C452 1.381 . S
C454 C455 1.394 . S
C454 H462 0.930 . S
C455 C454 1.394 . S
C455 C456 1.383 . S
C455 H463 0.929 . S
C456 C455 1.383 . S
C456 C457 1.377 . S
C457 H441 0.930 . S
C457 C456 1.377 . S
C457 C458 1.379 . S
C458 H442 0.931 . S
C458 C452 1.383 . S
C458 C457 1.379 . S
H459 C453 0.959 . S
H460 C453 0.961 . S
H461 C453 0.960 . S
H462 C454 0.930 . S
H463 C455 0.929 . S
H464 C472 0.929 . S
H465 C474 0.930 . S
H466 C476 0.930 . S
H467 C479 0.929 . S
H468 C482 0.930 . S
H469 C484 0.960 . S
H470 C484 0.960 . S
H471 C484 0.960 . S
C472 H464 0.929 . S
C472 C473 1.377 . S
C472 C474 1.384 . S
C473 C472 1.377 . S
C473 C479 1.390 . S
C474 H465 0.930 . S
C474 C472 1.384 . S
C474 C475 1.372 . S
C475 C474 1.372 . S
C475 C476 1.400 . S
C475 C480 1.490 . S
C476 H466 0.930 . S
C476 C475 1.400 . S
C476 C479 1.386 . S
H477 C493 0.930 . S
H478 C494 0.931 . S
C479 H467 0.929 . S
C479 C473 1.390 . S
C479 C476 1.386 . S
C480 C475 1.490 . S
C480 C482 1.395 . S
C480 C483 1.403 . S
H481 C487 0.930 . S
C482 H468 0.930 . S
C482 C480 1.395 . S
C482 C485 1.403 . S
C483 C480 1.403 . S
C483 C484 1.524 . S
C483 C487 1.400 . S
C484 H469 0.960 . S
C484 H470 0.960 . S
C484 H471 0.960 . S
C484 C483 1.524 . S
C485 C482 1.403 . S
C485 C486 1.392 . S
C485 C489 1.495 . S
C486 C485 1.392 . S
C486 C487 1.385 . S
C486 C488 1.478 . S
C487 H481 0.930 . S
C487 C483 1.400 . S
C487 C486 1.385 . S
C488 C486 1.478 . S
C488 C490 1.381 . S
C488 C494 1.383 . S
C489 C485 1.495 . S
C489 H495 0.959 . S
C489 H496 0.961 . S
C489 H497 0.960 . S
C490 C488 1.381 . S
C490 C491 1.394 . S
C490 H498 0.930 . S
C491 C490 1.394 . S
C491 C492 1.383 . S
C491 H499 0.929 . S
C492 C491 1.383 . S
C492 C493 1.377 . S
C493 H477 0.930 . S
C493 C492 1.377 . S
C493 C494 1.379 . S
C494 H478 0.931 . S
C494 C488 1.383 . S
C494 C493 1.379 . S
H495 C489 0.959 . S
H496 C489 0.961 . S
H497 C489 0.960 . S
H498 C490 0.930 . S
H499 C491 0.929 . S
H500 C508 0.929 . S
H501 C510 0.930 . S
H502 C512 0.930 . S
H503 C515 0.929 . S
H504 C518 0.930 . S
H505 C520 0.960 . S
H506 C520 0.960 . S
H507 C520 0.960 . S
C508 H500 0.929 . S
C508 C509 1.377 . S
C508 C510 1.384 . S
C509 C508 1.377 . S
C509 C515 1.390 . S
C510 H501 0.930 . S
C510 C508 1.384 . S
C510 C511 1.372 . S
C511 C510 1.372 . S
C511 C512 1.400 . S
C511 C516 1.490 . S
C512 H502 0.930 . S
C512 C511 1.400 . S
C512 C515 1.386 . S
H513 C529 0.930 . S
H514 C530 0.931 . S
C515 H503 0.929 . S
C515 C509 1.390 . S
C515 C512 1.386 . S
C516 C511 1.490 . S
C516 C518 1.395 . S
C516 C519 1.403 . S
H517 C523 0.930 . S
C518 H504 0.930 . S
C518 C516 1.395 . S
C518 C521 1.403 . S
C519 C516 1.403 . S
C519 C520 1.524 . S
C519 C523 1.400 . S
C520 H505 0.960 . S
C520 H506 0.960 . S
C520 H507 0.960 . S
C520 C519 1.524 . S
C521 C518 1.403 . S
C521 C522 1.392 . S
C521 C525 1.495 . S
C522 C521 1.392 . S
C522 C523 1.385 . S
C522 C524 1.478 . S
C523 H517 0.930 . S
C523 C519 1.400 . S
C523 C522 1.385 . S
C524 C522 1.478 . S
C524 C526 1.381 . S
C524 C530 1.383 . S
C525 C521 1.495 . S
C525 H531 0.959 . S
C525 H532 0.961 . S
C525 H533 0.960 . S
C526 C524 1.381 . S
C526 C527 1.394 . S
C526 H534 0.930 . S
C527 C526 1.394 . S
C527 C528 1.383 . S
C527 H535 0.929 . S
C528 C527 1.383 . S
C528 C529 1.377 . S
C529 H513 0.930 . S
C529 C528 1.377 . S
C529 C530 1.379 . S
C530 H514 0.931 . S
C530 C524 1.383 . S
C530 C529 1.379 . S
H531 C525 0.959 . S
H532 C525 0.961 . S
H533 C525 0.960 . S
H534 C526 0.930 . S
H535 C527 0.929 . S
H536 C544 0.929 . S
H537 C546 0.930 . S
H538 C548 0.930 . S
H539 C551 0.929 . S
H540 C554 0.930 . S
H541 C556 0.960 . S
H542 C556 0.960 . S
H543 C556 0.960 . S
C544 H536 0.929 . S
C544 C545 1.377 . S
C544 C546 1.384 . S
C545 C544 1.377 . S
C545 C551 1.390 . S
C546 H537 0.930 . S
C546 C544 1.384 . S
C546 C547 1.372 . S
C547 C546 1.372 . S
C547 C548 1.400 . S
C547 C552 1.490 . S
C548 H538 0.930 . S
C548 C547 1.400 . S
C548 C551 1.386 . S
H549 C565 0.930 . S
H550 C566 0.931 . S
C551 H539 0.929 . S
C551 C545 1.390 . S
C551 C548 1.386 . S
C552 C547 1.490 . S
C552 C554 1.395 . S
C552 C555 1.403 . S
H553 C559 0.930 . S
C554 H540 0.930 . S
C554 C552 1.395 . S
C554 C557 1.403 . S
C555 C552 1.403 . S
C555 C556 1.524 . S
C555 C559 1.400 . S
C556 H541 0.960 . S
C556 H542 0.960 . S
C556 H543 0.960 . S
C556 C555 1.524 . S
C557 C554 1.403 . S
C557 C558 1.392 . S
C557 C561 1.495 . S
C558 C557 1.392 . S
C558 C559 1.385 . S
C558 C560 1.478 . S
C559 H553 0.930 . S
C559 C555 1.400 . S
C559 C558 1.385 . S
C560 C558 1.478 . S
C560 C562 1.381 . S
C560 C566 1.383 . S
C561 C557 1.495 . S
C561 H567 0.959 . S
C561 H568 0.961 . S
C561 H569 0.960 . S
C562 C560 1.381 . S
C562 C563 1.394 . S
C562 H570 0.930 . S
C563 C562 1.394 . S
C563 C564 1.383 . S
C563 H571 0.929 . S
C564 C563 1.383 . S
C564 C565 1.377 . S
C565 H549 0.930 . S
C565 C564 1.377 . S
C565 C566 1.379 . S
C566 H550 0.931 . S
C566 C560 1.383 . S
C566 C565 1.379 . S
H567 C561 0.959 . S
H568 C561 0.961 . S
H569 C561 0.960 . S
H570 C562 0.930 . S
H571 C563 0.929 . S
H572 C580 0.929 . S
H573 C582 0.930 . S
H574 C584 0.930 . S
H575 C587 0.929 . S
H576 C590 0.930 . S
H577 C592 0.960 . S
H578 C592 0.960 . S
H579 C592 0.960 . S
C580 H572 0.929 . S
C580 C581 1.377 . S
C580 C582 1.384 . S
C581 C580 1.377 . S
C581 C587 1.390 . S
C582 H573 0.930 . S
C582 C580 1.384 . S
C582 C583 1.372 . S
C583 C582 1.372 . S
C583 C584 1.400 . S
C583 C588 1.490 . S
C584 H574 0.930 . S
C584 C583 1.400 . S
C584 C587 1.386 . S
H585 C601 0.930 . S
H586 C602 0.931 . S
C587 H575 0.929 . S
C587 C581 1.390 . S
C587 C584 1.386 . S
C588 C583 1.490 . S
C588 C590 1.395 . S
C588 C591 1.403 . S
H589 C595 0.930 . S
C590 H576 0.930 . S
C590 C588 1.395 . S
C590 C593 1.403 . S
C591 C588 1.403 . S
C591 C592 1.524 . S
C591 C595 1.400 . S
C592 H577 0.960 . S
C592 H578 0.960 . S
C592 H579 0.960 . S
C592 C591 1.524 . S
C593 C590 1.403 . S
C593 C594 1.392 . S
C593 C597 1.495 . S
C594 C593 1.392 . S
C594 C595 1.385 . S
C594 C596 1.478 . S
C595 H589 0.930 . S
C595 C591 1.400 . S
C595 C594 1.385 . S
C596 C594 1.478 . S
C596 C598 1.381 . S
C596 C602 1.383 . S
C597 C593 1.495 . S
C597 H603 0.959 . S
C597 H604 0.961 . S
C597 H605 0.960 . S
C598 C596 1.381 . S
C598 C599 1.394 . S
C598 H606 0.930 . S
C599 C598 1.394 . S
C599 C600 1.383 . S
C599 H607 0.929 . S
C600 C599 1.383 . S
C600 C601 1.377 . S
C601 H585 0.930 . S
C601 C600 1.377 . S
C601 C602 1.379 . S
C602 H586 0.931 . S
C602 C596 1.383 . S
C602 C601 1.379 . S
H603 C597 0.959 . S
H604 C597 0.961 . S
H605 C597 0.960 . S
H606 C598 0.930 . S
H607 C599 0.929 . S
H608 C616 0.929 . S
H609 C618 0.930 . S
H610 C620 0.930 . S
H611 C623 0.929 . S
H612 C626 0.930 . S
H613 C628 0.960 . S
H614 C628 0.960 . S
H615 C628 0.960 . S
C616 H608 0.929 . S
C616 C617 1.377 . S
C616 C618 1.384 . S
C617 C616 1.377 . S
C617 C623 1.390 . S
C618 H609 0.930 . S
C618 C616 1.384 . S
C618 C619 1.372 . S
C619 C618 1.372 . S
C619 C620 1.400 . S
C619 C624 1.490 . S
C620 H610 0.930 . S
C620 C619 1.400 . S
C620 C623 1.386 . S
H621 C637 0.930 . S
H622 C638 0.931 . S
C623 H611 0.929 . S
C623 C617 1.390 . S
C623 C620 1.386 . S
C624 C619 1.490 . S
C624 C626 1.395 1_565 S
C624 C627 1.403 . S
H625 C631 0.930 . S
C626 H612 0.930 . S
C626 C624 1.395 1_545 S
C626 C629 1.403 . S
C627 C624 1.403 . S
C627 C628 1.524 . S
C627 C631 1.400 . S
C628 H613 0.960 . S
C628 H614 0.960 . S
C628 H615 0.960 . S
C628 C627 1.524 . S
C629 C626 1.403 . S
C629 C630 1.392 . S
C629 C633 1.495 . S
C630 C629 1.392 . S
C630 C631 1.385 1_545 S
C630 C632 1.478 . S
C631 H625 0.930 . S
C631 C627 1.400 . S
C631 C630 1.385 1_565 S
C632 C630 1.478 . S
C632 C634 1.381 . S
C632 C638 1.383 . S
C633 C629 1.495 . S
C633 H639 0.959 . S
C633 H640 0.961 . S
C633 H641 0.960 . S
C634 C632 1.381 . S
C634 C635 1.394 . S
C634 H642 0.930 . S
C635 C634 1.394 . S
C635 C636 1.383 . S
C635 H643 0.929 . S
C636 C635 1.383 . S
C636 C637 1.377 . S
C637 H621 0.930 . S
C637 C636 1.377 . S
C637 C638 1.379 . S
C638 H622 0.931 . S
C638 C632 1.383 . S
C638 C637 1.379 . S
H639 C633 0.959 . S
H640 C633 0.961 . S
H641 C633 0.960 . S
H642 C634 0.930 . S
H643 C635 0.929 . S
H644 C652 0.929 1_565 S
H645 C654 0.930 . S
H646 C656 0.930 . S
H647 C659 0.929 . S
H648 C662 0.930 . S
H649 C664 0.960 . S
H650 C664 0.960 . S
H651 C664 0.960 . S
C652 H644 0.929 1_545 S
C652 C653 1.377 . S
C652 C654 1.384 1_545 S
C653 C652 1.377 . S
C653 C659 1.390 . S
C654 H645 0.930 . S
C654 C652 1.384 1_565 S
C654 C655 1.372 1_565 S
C655 C654 1.372 1_545 S
C655 C656 1.400 . S
C655 C660 1.490 . S
C656 H646 0.930 . S
C656 C655 1.400 . S
C656 C659 1.386 . S
H657 C673 0.930 1_545 S
H658 C674 0.931 . S
C659 H647 0.929 . S
C659 C653 1.390 . S
C659 C656 1.386 . S
C660 C655 1.490 . S
C660 C662 1.395 1_545 S
C660 C663 1.403 . S
H661 C667 0.930 1_545 S
C662 H648 0.930 . S
C662 C660 1.395 1_565 S
C662 C665 1.403 . S
C663 C660 1.403 . S
C663 C664 1.524 . S
C663 C667 1.399 1_545 S
C664 H649 0.960 . S
C664 H650 0.960 . S
C664 H651 0.960 . S
C664 C663 1.524 . S
C665 C662 1.403 . S
C665 C666 1.392 . S
C665 C669 1.495 . S
C666 C665 1.392 . S
C666 C667 1.386 . S
C666 C668 1.478 . S
C667 H661 0.930 1_565 S
C667 C663 1.399 1_565 S
C667 C666 1.386 . S
C668 C666 1.478 . S
C668 C670 1.381 . S
C668 C674 1.383 1_565 S
C669 C665 1.495 . S
C669 H675 0.959 . S
C669 H676 0.961 . S
C669 H677 0.960 . S
C670 C668 1.381 . S
C670 C671 1.394 . S
C670 H678 0.930 . S
C671 C670 1.394 . S
C671 C672 1.383 . S
C671 H679 0.929 . S
C672 C671 1.383 . S
C672 C673 1.377 . S
C673 H657 0.930 1_565 S
C673 C672 1.377 . S
C673 C674 1.379 1_565 S
C674 H658 0.931 . S
C674 C668 1.383 1_545 S
C674 C673 1.379 1_545 S
H675 C669 0.959 . S
H676 C669 0.961 . S
H677 C669 0.960 . S
H678 C670 0.930 . S
H679 C671 0.929 . S
H680 C688 0.929 . S
H681 C690 0.930 . S
H682 C692 0.930 1_565 S
H683 C695 0.929 . S
H684 C698 0.930 . S
H685 C700 0.960 . S
H686 C700 0.960 . S
H687 C700 0.960 . S
C688 H680 0.929 . S
C688 C689 1.377 . S
C688 C690 1.384 . S
C689 C688 1.377 . S
C689 C695 1.390 . S
C690 H681 0.930 . S
C690 C688 1.384 . S
C690 C691 1.372 . S
C691 C690 1.372 . S
C691 C692 1.400 . S
C691 C696 1.490 . S
C692 H682 0.930 1_545 S
C692 C691 1.400 . S
C692 C695 1.386 . S
H693 C709 0.930 . S
H694 C710 0.931 . S
C695 H683 0.929 . S
C695 C689 1.390 . S
C695 C692 1.386 . S
C696 C691 1.490 . S
C696 C698 1.395 . S
C696 C699 1.403 1_545 S
H697 C703 0.930 . S
C698 H684 0.930 . S
C698 C696 1.395 . S
C698 C701 1.403 . S
C699 C696 1.403 1_565 S
C699 C700 1.524 . S
C699 C703 1.400 . S
C700 H685 0.960 . S
C700 H686 0.960 . S
C700 H687 0.960 . S
C700 C699 1.524 . S
C701 C698 1.403 . S
C701 C702 1.392 1_545 S
C701 C705 1.495 . S
C702 C701 1.392 1_565 S
C702 C703 1.385 . S
C702 C704 1.478 . S
C703 H697 0.930 . S
C703 C699 1.400 . S
C703 C702 1.385 . S
C704 C702 1.478 . S
C704 C706 1.381 . S
C704 C710 1.383 . S
C705 C701 1.495 . S
C705 H711 0.959 . S
C705 H712 0.961 . S
C705 H713 0.960 . S
C706 C704 1.381 . S
C706 C707 1.394 . S
C706 H714 0.930 1_565 S
C707 C706 1.394 . S
C707 C708 1.383 . S
C707 H715 0.929 . S
C708 C707 1.383 . S
C708 C709 1.377 . S
C709 H693 0.930 . S
C709 C708 1.377 . S
C709 C710 1.379 . S
C710 H694 0.931 . S
C710 C704 1.383 . S
C710 C709 1.379 . S
H711 C705 0.959 . S
H712 C705 0.961 . S
H713 C705 0.960 . S
H714 C706 0.930 1_545 S
H715 C707 0.929 . S
H716 C724 0.929 . S
H717 C726 0.930 1_565 S
H718 C728 0.930 . S
H719 C731 0.929 . S
H720 C734 0.930 . S
H721 C736 0.960 . S
H722 C736 0.960 . S
H723 C736 0.960 1_545 S
C724 H716 0.929 . S
C724 C725 1.377 . S
C724 C726 1.384 . S
C725 C724 1.377 . S
C725 C731 1.390 . S
C726 H717 0.930 1_545 S
C726 C724 1.384 . S
C726 C727 1.372 . S
C727 C726 1.372 . S
C727 C728 1.400 . S
C727 C732 1.490 . S
C728 H718 0.930 . S
C728 C727 1.400 . S
C728 C731 1.386 . S
H729 C745 0.930 1_545 S
H730 C746 0.931 1_545 S
C731 H719 0.929 . S
C731 C725 1.390 . S
C731 C728 1.386 . S
C732 C727 1.490 . S
C732 C734 1.395 . S
C732 C735 1.403 1_545 S
H733 C739 0.930 . S
C734 H720 0.930 . S
C734 C732 1.395 . S
C734 C737 1.403 . S
C735 C732 1.403 1_565 S
C735 C736 1.524 . S
C735 C739 1.400 . S
C736 H721 0.960 . S
C736 H722 0.960 . S
C736 H723 0.960 1_565 S
C736 C735 1.524 . S
C737 C734 1.403 . S
C737 C738 1.392 1_545 S
C737 C741 1.495 . S
C738 C737 1.392 1_565 S
C738 C739 1.385 . S
C738 C740 1.478 . S
C739 H733 0.930 . S
C739 C735 1.400 . S
C739 C738 1.385 . S
C740 C738 1.478 . S
C740 C742 1.381 . S
C740 C746 1.383 . S
C741 C737 1.495 . S
C741 H747 0.959 . S
C741 H748 0.961 . S
C741 H749 0.960 1_545 S
C742 C740 1.381 . S
C742 C743 1.394 . S
C742 H750 0.930 . S
C743 C742 1.394 . S
C743 C744 1.383 . S
C743 H751 0.929 . S
C744 C743 1.383 . S
C744 C745 1.377 . S
C745 H729 0.930 1_565 S
C745 C744 1.377 . S
C745 C746 1.379 . S
C746 H730 0.931 1_565 S
C746 C740 1.383 . S
C746 C745 1.379 . S
H747 C741 0.959 . S
H748 C741 0.961 . S
H749 C741 0.960 1_565 S
H750 C742 0.930 . S
H751 C743 0.929 . S
H752 C760 0.929 . S
H753 C762 0.930 . S
H754 C764 0.930 . S
H755 C767 0.929 . S
H756 C770 0.930 . S
H757 C772 0.960 . S
H758 C772 0.960 . S
H759 C772 0.960 . S
C760 H752 0.929 . S
C760 C761 1.377 . S
C760 C762 1.384 . S
C761 C760 1.377 . S
C761 C767 1.390 . S
C762 H753 0.930 . S
C762 C760 1.384 . S
C762 C763 1.372 . S
C763 C762 1.372 . S
C763 C764 1.400 . S
C763 C768 1.490 . S
C764 H754 0.930 . S
C764 C763 1.400 . S
C764 C767 1.386 . S
H765 C781 0.930 . S
H766 C782 0.931 . S
C767 H755 0.929 . S
C767 C761 1.390 . S
C767 C764 1.386 . S
C768 C763 1.490 . S
C768 C770 1.395 . S
C768 C771 1.403 . S
H769 C775 0.930 . S
C770 H756 0.930 . S
C770 C768 1.395 . S
C770 C773 1.403 . S
C771 C768 1.403 . S
C771 C772 1.524 . S
C771 C775 1.400 . S
C772 H757 0.960 . S
C772 H758 0.960 . S
C772 H759 0.960 . S
C772 C771 1.524 . S
C773 C770 1.403 . S
C773 C774 1.392 . S
C773 C777 1.495 . S
C774 C773 1.392 . S
C774 C775 1.385 . S
C774 C776 1.478 . S
C775 H769 0.930 . S
C775 C771 1.400 . S
C775 C774 1.385 . S
C776 C774 1.478 . S
C776 C778 1.381 . S
C776 C782 1.383 . S
C777 C773 1.495 . S
C777 H783 0.959 . S
C777 H784 0.961 . S
C777 H785 0.960 . S
C778 C776 1.381 . S
C778 C779 1.394 . S
C778 H786 0.930 . S
C779 C778 1.394 . S
C779 C780 1.383 . S
C779 H787 0.929 . S
C780 C779 1.383 . S
C780 C781 1.377 . S
C781 H765 0.930 . S
C781 C780 1.377 . S
C781 C782 1.379 . S
C782 H766 0.931 . S
C782 C776 1.383 . S
C782 C781 1.379 . S
H783 C777 0.959 . S
H784 C777 0.961 . S
H785 C777 0.960 . S
H786 C778 0.930 . S
H787 C779 0.929 . S
H788 C796 0.929 . S
H789 C798 0.930 . S
H790 C800 0.930 . S
H791 C803 0.929 . S
H792 C806 0.930 . S
H793 C808 0.960 . S
H794 C808 0.960 . S
H795 C808 0.960 . S
C796 H788 0.929 . S
C796 C797 1.377 . S
C796 C798 1.384 . S
C797 C796 1.377 . S
C797 C803 1.390 . S
C798 H789 0.930 . S
C798 C796 1.384 . S
C798 C799 1.372 . S
C799 C798 1.372 . S
C799 C800 1.400 . S
C799 C804 1.490 . S
C800 H790 0.930 . S
C800 C799 1.400 . S
C800 C803 1.386 . S
H801 C817 0.930 . S
H802 C818 0.931 . S
C803 H791 0.929 . S
C803 C797 1.390 . S
C803 C800 1.386 . S
C804 C799 1.490 . S
C804 C806 1.395 . S
C804 C807 1.403 . S
H805 C811 0.930 . S
C806 H792 0.930 . S
C806 C804 1.395 . S
C806 C809 1.403 . S
C807 C804 1.403 . S
C807 C808 1.524 . S
C807 C811 1.400 . S
C808 H793 0.960 . S
C808 H794 0.960 . S
C808 H795 0.960 . S
C808 C807 1.524 . S
C809 C806 1.403 . S
C809 C810 1.392 . S
C809 C813 1.495 . S
C810 C809 1.392 . S
C810 C811 1.385 . S
C810 C812 1.478 . S
C811 H805 0.930 . S
C811 C807 1.400 . S
C811 C810 1.385 . S
C812 C810 1.478 . S
C812 C814 1.381 . S
C812 C818 1.383 . S
C813 C809 1.495 . S
C813 H819 0.959 . S
C813 H820 0.961 . S
C813 H821 0.960 . S
C814 C812 1.381 . S
C814 C815 1.394 . S
C814 H822 0.930 . S
C815 C814 1.394 . S
C815 C816 1.383 . S
C815 H823 0.929 . S
C816 C815 1.383 . S
C816 C817 1.377 . S
C817 H801 0.930 . S
C817 C816 1.377 . S
C817 C818 1.379 . S
C818 H802 0.931 . S
C818 C812 1.383 . S
C818 C817 1.379 . S
H819 C813 0.959 . S
H820 C813 0.961 . S
H821 C813 0.960 . S
H822 C814 0.930 . S
H823 C815 0.929 . S
H824 C832 0.929 . S
H825 C834 0.930 . S
H826 C836 0.930 . S
H827 C839 0.929 . S
H828 C842 0.930 . S
H829 C844 0.960 . S
H830 C844 0.960 . S
H831 C844 0.960 . S
C832 H824 0.929 . S
C832 C833 1.377 . S
C832 C834 1.384 . S
C833 C832 1.377 . S
C833 C839 1.390 . S
C834 H825 0.930 . S
C834 C832 1.384 . S
C834 C835 1.372 . S
C835 C834 1.372 . S
C835 C836 1.400 . S
C835 C840 1.490 . S
C836 H826 0.930 . S
C836 C835 1.400 . S
C836 C839 1.386 . S
H837 C853 0.930 . S
H838 C854 0.931 . S
C839 H827 0.929 . S
C839 C833 1.390 . S
C839 C836 1.386 . S
C840 C835 1.490 . S
C840 C842 1.395 . S
C840 C843 1.403 . S
H841 C847 0.930 . S
C842 H828 0.930 . S
C842 C840 1.395 . S
C842 C845 1.403 . S
C843 C840 1.403 . S
C843 C844 1.524 . S
C843 C847 1.400 . S
C844 H829 0.960 . S
C844 H830 0.960 . S
C844 H831 0.960 . S
C844 C843 1.524 . S
C845 C842 1.403 . S
C845 C846 1.392 . S
C845 C849 1.495 . S
C846 C845 1.392 . S
C846 C847 1.385 . S
C846 C848 1.478 . S
C847 H841 0.930 . S
C847 C843 1.400 . S
C847 C846 1.385 . S
C848 C846 1.478 . S
C848 C850 1.381 . S
C848 C854 1.383 . S
C849 C845 1.495 . S
C849 H855 0.959 . S
C849 H856 0.961 . S
C849 H857 0.960 . S
C850 C848 1.381 . S
C850 C851 1.394 . S
C850 H858 0.930 . S
C851 C850 1.394 . S
C851 C852 1.383 . S
C851 H859 0.929 . S
C852 C851 1.383 . S
C852 C853 1.377 . S
C853 H837 0.930 . S
C853 C852 1.377 . S
C853 C854 1.379 . S
C854 H838 0.931 . S
C854 C848 1.383 . S
C854 C853 1.379 . S
H855 C849 0.959 . S
H856 C849 0.961 . S
H857 C849 0.960 . S
H858 C850 0.930 . S
H859 C851 0.929 . S
H860 C868 0.929 . S
H861 C870 0.930 . S
H862 C872 0.930 . S
H863 C875 0.929 . S
H864 C878 0.930 . S
H865 C880 0.960 . S
H866 C880 0.960 . S
H867 C880 0.960 . S
C868 H860 0.929 . S
C868 C869 1.377 . S
C868 C870 1.384 . S
C869 C868 1.377 . S
C869 C875 1.390 . S
C870 H861 0.930 . S
C870 C868 1.384 . S
C870 C871 1.372 . S
C871 C870 1.372 . S
C871 C872 1.400 . S
C871 C876 1.490 . S
C872 H862 0.930 . S
C872 C871 1.400 . S
C872 C875 1.386 . S
H873 C889 0.930 . S
H874 C890 0.931 . S
C875 H863 0.929 . S
C875 C869 1.390 . S
C875 C872 1.386 . S
C876 C871 1.490 . S
C876 C878 1.395 . S
C876 C879 1.403 . S
H877 C883 0.930 . S
C878 H864 0.930 . S
C878 C876 1.395 . S
C878 C881 1.403 . S
C879 C876 1.403 . S
C879 C880 1.524 . S
C879 C883 1.400 . S
C880 H865 0.960 . S
C880 H866 0.960 . S
C880 H867 0.960 . S
C880 C879 1.524 . S
C881 C878 1.403 . S
C881 C882 1.392 . S
C881 C885 1.495 . S
C882 C881 1.392 . S
C882 C883 1.385 . S
C882 C884 1.478 . S
C883 H877 0.930 . S
C883 C879 1.400 . S
C883 C882 1.385 . S
C884 C882 1.478 . S
C884 C886 1.381 . S
C884 C890 1.383 . S
C885 C881 1.495 . S
C885 H891 0.959 . S
C885 H892 0.961 . S
C885 H893 0.960 . S
C886 C884 1.381 . S
C886 C887 1.394 . S
C886 H894 0.930 . S
C887 C886 1.394 . S
C887 C888 1.383 . S
C887 H895 0.929 . S
C888 C887 1.383 . S
C888 C889 1.377 . S
C889 H873 0.930 . S
C889 C888 1.377 . S
C889 C890 1.379 . S
C890 H874 0.931 . S
C890 C884 1.383 . S
C890 C889 1.379 . S
H891 C885 0.959 . S
H892 C885 0.961 . S
H893 C885 0.960 . S
H894 C886 0.930 . S
H895 C887 0.929 . S
H896 C904 0.929 . S
H897 C906 0.930 . S
H898 C908 0.930 . S
H899 C911 0.929 . S
H900 C914 0.930 . S
H901 C916 0.960 . S
H902 C916 0.960 . S
H903 C916 0.960 . S
C904 H896 0.929 . S
C904 C905 1.377 . S
C904 C906 1.384 . S
C905 C904 1.377 . S
C905 C911 1.390 . S
C906 H897 0.930 . S
C906 C904 1.384 . S
C906 C907 1.372 . S
C907 C906 1.372 . S
C907 C908 1.400 . S
C907 C912 1.490 . S
C908 H898 0.930 . S
C908 C907 1.400 . S
C908 C911 1.386 . S
H909 C925 0.930 . S
H910 C926 0.931 . S
C911 H899 0.929 . S
C911 C905 1.390 . S
C911 C908 1.386 . S
C912 C907 1.490 . S
C912 C914 1.395 . S
C912 C915 1.403 . S
H913 C919 0.930 . S
C914 H900 0.930 . S
C914 C912 1.395 . S
C914 C917 1.403 1_556 S
C915 C912 1.403 . S
C915 C916 1.524 . S
C915 C919 1.400 1_556 S
C916 H901 0.960 . S
C916 H902 0.960 . S
C916 H903 0.960 . S
C916 C915 1.524 . S
C917 C914 1.403 1_554 S
C917 C918 1.392 . S
C917 C921 1.495 . S
C918 C917 1.392 . S
C918 C919 1.385 . S
C918 C920 1.478 . S
C919 H913 0.930 . S
C919 C915 1.400 1_554 S
C919 C918 1.385 . S
C920 C918 1.478 . S
C920 C922 1.381 . S
C920 C926 1.383 . S
C921 C917 1.495 . S
C921 H927 0.959 1_545 S
C921 H928 0.961 . S
C921 H929 0.960 . S
C922 C920 1.381 . S
C922 C923 1.394 . S
C922 H930 0.930 . S
C923 C922 1.394 . S
C923 C924 1.383 . S
C923 H931 0.929 . S
C924 C923 1.383 . S
C924 C925 1.377 . S
C925 H909 0.930 . S
C925 C924 1.377 . S
C925 C926 1.379 . S
C926 H910 0.931 . S
C926 C920 1.383 . S
C926 C925 1.379 . S
H927 C921 0.959 1_565 S
H928 C921 0.961 . S
H929 C921 0.960 . S
H930 C922 0.930 . S
H931 C923 0.929 . S
H932 C940 0.929 . S
H933 C942 0.930 . S
H934 C944 0.930 . S
H935 C947 0.929 . S
H936 C950 0.930 . S
H937 C952 0.960 . S
H938 C952 0.960 . S
H939 C952 0.960 . S
C940 H932 0.929 . S
C940 C941 1.377 . S
C940 C942 1.384 . S
C941 C940 1.377 . S
C941 C947 1.390 . S
C942 H933 0.930 . S
C942 C940 1.384 . S
C942 C943 1.372 . S
C943 C942 1.372 . S
C943 C944 1.400 . S
C943 C948 1.490 . S
C944 H934 0.930 . S
C944 C943 1.400 . S
C944 C947 1.386 . S
H945 C961 0.930 . S
H946 C962 0.931 . S
C947 H935 0.929 . S
C947 C941 1.390 . S
C947 C944 1.386 . S
C948 C943 1.490 . S
C948 C950 1.395 . S
C948 C951 1.403 . S
H949 C955 0.930 . S
C950 H936 0.930 . S
C950 C948 1.395 . S
C950 C953 1.403 1_556 S
C951 C948 1.403 . S
C951 C952 1.524 . S
C951 C955 1.400 1_556 S
C952 H937 0.960 . S
C952 H938 0.960 . S
C952 H939 0.960 . S
C952 C951 1.524 . S
C953 C950 1.403 1_554 S
C953 C954 1.392 . S
C953 C957 1.495 . S
C954 C953 1.392 . S
C954 C955 1.385 . S
C954 C956 1.478 . S
C955 H949 0.930 . S
C955 C951 1.400 1_554 S
C955 C954 1.385 . S
C956 C954 1.478 . S
C956 C958 1.381 . S
C956 C962 1.383 . S
C957 C953 1.495 . S
C957 H963 0.959 . S
C957 H964 0.961 . S
C957 H965 0.960 . S
C958 C956 1.381 . S
C958 C959 1.394 . S
C958 H966 0.930 . S
C959 C958 1.394 . S
C959 C960 1.383 . S
C959 H967 0.929 . S
C960 C959 1.383 . S
C960 C961 1.377 . S
C961 H945 0.930 . S
C961 C960 1.377 . S
C961 C962 1.379 . S
C962 H946 0.931 . S
C962 C956 1.383 . S
C962 C961 1.379 . S
H963 C957 0.959 . S
H964 C957 0.961 . S
H965 C957 0.960 . S
H966 C958 0.930 . S
H967 C959 0.929 . S
H968 C976 0.929 . S
H969 C978 0.930 . S
H970 C980 0.930 . S
H971 C983 0.929 . S
H972 C986 0.930 . S
H973 C988 0.960 . S
H974 C988 0.960 . S
H975 C988 0.960 . S
C976 H968 0.929 . S
C976 C977 1.377 . S
C976 C978 1.384 . S
C977 C976 1.377 . S
C977 C983 1.390 . S
C978 H969 0.930 . S
C978 C976 1.384 . S
C978 C979 1.372 . S
C979 C978 1.372 . S
C979 C980 1.400 . S
C979 C984 1.490 . S
C980 H970 0.930 . S
C980 C979 1.400 . S
C980 C983 1.386 . S
H981 C997 0.930 . S
H982 C998 0.931 . S
C983 H971 0.929 . S
C983 C977 1.390 . S
C983 C980 1.386 . S
C984 C979 1.490 . S
C984 C986 1.395 . S
C984 C987 1.403 . S
H985 C991 0.930 . S
C986 H972 0.930 . S
C986 C984 1.395 . S
C986 C989 1.403 . S
C987 C984 1.403 . S
C987 C988 1.524 . S
C987 C991 1.400 . S
C988 H973 0.960 . S
C988 H974 0.960 . S
C988 H975 0.960 . S
C988 C987 1.524 . S
C989 C986 1.403 . S
C989 C990 1.392 . S
C989 C993 1.495 . S
C990 C989 1.392 . S
C990 C991 1.385 . S
C990 C992 1.478 . S
C991 H985 0.930 . S
C991 C987 1.400 . S
C991 C990 1.385 . S
C992 C990 1.478 . S
C992 C994 1.381 . S
C992 C998 1.383 . S
C993 C989 1.495 . S
C993 H999 0.959 . S
C993 H1000 0.961 . S
C993 H1001 0.960 . S
C994 C992 1.381 . S
C994 C995 1.394 . S
C994 H1002 0.930 . S
C995 C994 1.394 . S
C995 C996 1.383 . S
C995 H1003 0.929 . S
C996 C995 1.383 . S
C996 C997 1.377 . S
C997 H981 0.930 . S
C997 C996 1.377 . S
C997 C998 1.379 . S
C998 H982 0.931 . S
C998 C992 1.383 . S
C998 C997 1.379 . S
H999 C993 0.959 . S
H1000 C993 0.961 . S
H1001 C993 0.960 . S
H1002 C994 0.930 . S
H1003 C995 0.929 . S
H1004 C1012 0.929 . S
H1005 C1014 0.930 . S
H1006 C1016 0.930 . S
H1007 C1019 0.929 . S
H1008 C1022 0.930 . S
H1009 C1024 0.960 . S
H1010 C1024 0.960 . S
H1011 C1024 0.960 . S
C1012 H1004 0.929 . S
C1012 C1013 1.377 . S
C1012 C1014 1.384 . S
C1013 C1012 1.377 . S
C1013 C1019 1.390 . S
C1014 H1005 0.930 . S
C1014 C1012 1.384 . S
C1014 C1015 1.372 . S
C1015 C1014 1.372 . S
C1015 C1016 1.400 . S
C1015 C1020 1.490 . S
C1016 H1006 0.930 . S
C1016 C1015 1.400 . S
C1016 C1019 1.386 . S
H1017 C1033 0.930 . S
H1018 C1034 0.931 . S
C1019 H1007 0.929 . S
C1019 C1013 1.390 . S
C1019 C1016 1.386 . S
C1020 C1015 1.490 . S
C1020 C1022 1.395 . S
C1020 C1023 1.403 . S
H1021 C1027 0.930 . S
C1022 H1008 0.930 . S
C1022 C1020 1.395 . S
C1022 C1025 1.403 . S
C1023 C1020 1.403 . S
C1023 C1024 1.524 . S
C1023 C1027 1.400 . S
C1024 H1009 0.960 . S
C1024 H1010 0.960 . S
C1024 H1011 0.960 . S
C1024 C1023 1.524 . S
C1025 C1022 1.403 . S
C1025 C1026 1.392 . S
C1025 C1029 1.495 . S
C1026 C1025 1.392 . S
C1026 C1027 1.385 . S
C1026 C1028 1.478 . S
C1027 H1021 0.930 . S
C1027 C1023 1.400 . S
C1027 C1026 1.385 . S
C1028 C1026 1.478 . S
C1028 C1030 1.381 . S
C1028 C1034 1.383 . S
C1029 C1025 1.495 . S
C1029 H1035 0.959 . S
C1029 H1036 0.961 . S
C1029 H1037 0.960 . S
C1030 C1028 1.381 . S
C1030 C1031 1.394 . S
C1030 H1038 0.930 . S
C1031 C1030 1.394 . S
C1031 C1032 1.383 . S
C1031 H1039 0.929 . S
C1032 C1031 1.383 . S
C1032 C1033 1.377 . S
C1033 H1017 0.930 . S
C1033 C1032 1.377 . S
C1033 C1034 1.379 . S
C1034 H1018 0.931 . S
C1034 C1028 1.383 . S
C1034 C1033 1.379 . S
H1035 C1029 0.959 . S
H1036 C1029 0.961 . S
H1037 C1029 0.960 . S
H1038 C1030 0.930 . S
H1039 C1031 0.929 . S
H1040 C1048 0.929 . S
H1041 C1050 0.930 . S
H1042 C1052 0.930 . S
H1043 C1055 0.929 . S
H1044 C1058 0.930 . S
H1045 C1060 0.960 . S
H1046 C1060 0.960 . S
H1047 C1060 0.960 . S
C1048 H1040 0.929 . S
C1048 C1049 1.377 . S
C1048 C1050 1.384 . S
C1049 C1048 1.377 . S
C1049 C1055 1.390 . S
C1050 H1041 0.930 . S
C1050 C1048 1.384 . S
C1050 C1051 1.372 . S
C1051 C1050 1.372 . S
C1051 C1052 1.400 . S
C1051 C1056 1.490 . S
C1052 H1042 0.930 . S
C1052 C1051 1.400 . S
C1052 C1055 1.386 . S
H1053 C1069 0.930 . S
H1054 C1070 0.931 . S
C1055 H1043 0.929 . S
C1055 C1049 1.390 . S
C1055 C1052 1.386 . S
C1056 C1051 1.490 . S
C1056 C1058 1.395 . S
C1056 C1059 1.403 . S
H1057 C1063 0.930 . S
C1058 H1044 0.930 . S
C1058 C1056 1.395 . S
C1058 C1061 1.403 1_554 S
C1059 C1056 1.403 . S
C1059 C1060 1.524 . S
C1059 C1063 1.400 1_554 S
C1060 H1045 0.960 . S
C1060 H1046 0.960 . S
C1060 H1047 0.960 . S
C1060 C1059 1.524 . S
C1061 C1058 1.403 1_556 S
C1061 C1062 1.392 . S
C1061 C1065 1.495 . S
C1062 C1061 1.392 . S
C1062 C1063 1.385 . S
C1062 C1064 1.478 . S
C1063 H1057 0.930 . S
C1063 C1059 1.400 1_556 S
C1063 C1062 1.385 . S
C1064 C1062 1.478 . S
C1064 C1066 1.381 . S
C1064 C1070 1.383 . S
C1065 C1061 1.495 . S
C1065 H1071 0.959 . S
C1065 H1072 0.961 . S
C1065 H1073 0.960 . S
C1066 C1064 1.381 . S
C1066 C1067 1.394 . S
C1066 H1074 0.930 . S
C1067 C1066 1.394 . S
C1067 C1068 1.383 . S
C1067 H1075 0.929 . S
C1068 C1067 1.383 . S
C1068 C1069 1.377 . S
C1069 H1053 0.930 . S
C1069 C1068 1.377 . S
C1069 C1070 1.379 . S
C1070 H1054 0.931 . S
C1070 C1064 1.383 . S
C1070 C1069 1.379 . S
H1071 C1065 0.959 . S
H1072 C1065 0.961 . S
H1073 C1065 0.960 . S
H1074 C1066 0.930 . S
H1075 C1067 0.929 . S
H1076 C1084 0.929 . S
H1077 C1086 0.930 . S
H1078 C1088 0.930 . S
H1079 C1091 0.929 . S
H1080 C1094 0.930 . S
H1081 C1096 0.960 . S
H1082 C1096 0.960 . S
H1083 C1096 0.960 . S
C1084 H1076 0.929 . S
C1084 C1085 1.377 . S
C1084 C1086 1.384 . S
C1085 C1084 1.377 . S
C1085 C1091 1.390 . S
C1086 H1077 0.930 . S
C1086 C1084 1.384 . S
C1086 C1087 1.372 . S
C1087 C1086 1.372 . S
C1087 C1088 1.400 . S
C1087 C1092 1.490 . S
C1088 H1078 0.930 . S
C1088 C1087 1.400 . S
C1088 C1091 1.386 . S
H1089 C1105 0.930 . S
H1090 C1106 0.931 . S
C1091 H1079 0.929 . S
C1091 C1085 1.390 . S
C1091 C1088 1.386 . S
C1092 C1087 1.490 . S
C1092 C1094 1.395 . S
C1092 C1095 1.403 . S
H1093 C1099 0.930 . S
C1094 H1080 0.930 . S
C1094 C1092 1.395 . S
C1094 C1097 1.403 1_556 S
C1095 C1092 1.403 . S
C1095 C1096 1.524 . S
C1095 C1099 1.400 1_556 S
C1096 H1081 0.960 . S
C1096 H1082 0.960 . S
C1096 H1083 0.960 . S
C1096 C1095 1.524 . S
C1097 C1094 1.403 1_554 S
C1097 C1098 1.392 . S
C1097 C1101 1.495 . S
C1098 C1097 1.392 . S
C1098 C1099 1.385 . S
C1098 C1100 1.478 . S
C1099 H1093 0.930 . S
C1099 C1095 1.400 1_554 S
C1099 C1098 1.385 . S
C1100 C1098 1.478 . S
C1100 C1102 1.381 . S
C1100 C1106 1.383 . S
C1101 C1097 1.495 . S
C1101 H1107 0.959 . S
C1101 H1108 0.961 . S
C1101 H1109 0.960 . S
C1102 C1100 1.381 . S
C1102 C1103 1.394 . S
C1102 H1110 0.930 . S
C1103 C1102 1.394 . S
C1103 C1104 1.383 . S
C1103 H1111 0.929 . S
C1104 C1103 1.383 . S
C1104 C1105 1.377 . S
C1105 H1089 0.930 . S
C1105 C1104 1.377 . S
C1105 C1106 1.379 . S
C1106 H1090 0.931 . S
C1106 C1100 1.383 . S
C1106 C1105 1.379 . S
H1107 C1101 0.959 . S
H1108 C1101 0.961 . S
H1109 C1101 0.960 . S
H1110 C1102 0.930 . S
H1111 C1103 0.929 . S
H1112 C1120 0.929 . S
H1113 C1122 0.930 . S
H1114 C1124 0.930 . S
H1115 C1127 0.929 . S
H1116 C1130 0.930 . S
H1117 C1132 0.960 . S
H1118 C1132 0.960 . S
H1119 C1132 0.960 . S
C1120 H1112 0.929 . S
C1120 C1121 1.377 . S
C1120 C1122 1.384 . S
C1121 C1120 1.377 . S
C1121 C1127 1.390 . S
C1122 H1113 0.930 . S
C1122 C1120 1.384 . S
C1122 C1123 1.372 . S
C1123 C1122 1.372 . S
C1123 C1124 1.400 . S
C1123 C1128 1.490 . S
C1124 H1114 0.930 . S
C1124 C1123 1.400 . S
C1124 C1127 1.386 . S
H1125 C1141 0.930 . S
H1126 C1142 0.931 . S
C1127 H1115 0.929 . S
C1127 C1121 1.390 . S
C1127 C1124 1.386 . S
C1128 C1123 1.490 . S
C1128 C1130 1.395 . S
C1128 C1131 1.403 . S
H1129 C1135 0.930 . S
C1130 H1116 0.930 . S
C1130 C1128 1.395 . S
C1130 C1133 1.403 . S
C1131 C1128 1.403 . S
C1131 C1132 1.524 . S
C1131 C1135 1.400 . S
C1132 H1117 0.960 . S
C1132 H1118 0.960 . S
C1132 H1119 0.960 . S
C1132 C1131 1.524 . S
C1133 C1130 1.403 . S
C1133 C1134 1.392 . S
C1133 C1137 1.495 . S
C1134 C1133 1.392 . S
C1134 C1135 1.385 . S
C1134 C1136 1.478 . S
C1135 H1129 0.930 . S
C1135 C1131 1.400 . S
C1135 C1134 1.385 . S
C1136 C1134 1.478 . S
C1136 C1138 1.381 . S
C1136 C1142 1.383 . S
C1137 C1133 1.495 . S
C1137 H1143 0.959 . S
C1137 H1144 0.961 . S
C1137 H1145 0.960 . S
C1138 C1136 1.381 . S
C1138 C1139 1.394 . S
C1138 H1146 0.930 . S
C1139 C1138 1.394 . S
C1139 C1140 1.383 . S
C1139 H1147 0.929 . S
C1140 C1139 1.383 . S
C1140 C1141 1.377 . S
C1141 H1125 0.930 . S
C1141 C1140 1.377 . S
C1141 C1142 1.379 . S
C1142 H1126 0.931 . S
C1142 C1136 1.383 . S
C1142 C1141 1.379 . S
H1143 C1137 0.959 . S
H1144 C1137 0.961 . S
H1145 C1137 0.960 . S
H1146 C1138 0.930 . S
H1147 C1139 0.929 . S
H1148 C1156 0.929 . S
H1149 C1158 0.930 . S
H1150 C1160 0.930 . S
H1151 C1163 0.929 . S
H1152 C1166 0.930 . S
H1153 C1168 0.960 . S
H1154 C1168 0.960 . S
H1155 C1168 0.960 . S
C1156 H1148 0.929 . S
C1156 C1157 1.377 . S
C1156 C1158 1.384 . S
C1157 C1156 1.377 . S
C1157 C1163 1.390 . S
C1158 H1149 0.930 . S
C1158 C1156 1.384 . S
C1158 C1159 1.372 . S
C1159 C1158 1.372 . S
C1159 C1160 1.400 . S
C1159 C1164 1.490 . S
C1160 H1150 0.930 . S
C1160 C1159 1.400 . S
C1160 C1163 1.386 . S
H1161 C1177 0.930 . S
H1162 C1178 0.931 . S
C1163 H1151 0.929 . S
C1163 C1157 1.390 . S
C1163 C1160 1.386 . S
C1164 C1159 1.490 . S
C1164 C1166 1.395 . S
C1164 C1167 1.403 . S
H1165 C1171 0.930 . S
C1166 H1152 0.930 . S
C1166 C1164 1.395 . S
C1166 C1169 1.403 . S
C1167 C1164 1.403 . S
C1167 C1168 1.524 . S
C1167 C1171 1.400 . S
C1168 H1153 0.960 . S
C1168 H1154 0.960 . S
C1168 H1155 0.960 . S
C1168 C1167 1.524 . S
C1169 C1166 1.403 . S
C1169 C1170 1.392 . S
C1169 C1173 1.495 . S
C1170 C1169 1.392 . S
C1170 C1171 1.385 . S
C1170 C1172 1.478 . S
C1171 H1165 0.930 . S
C1171 C1167 1.400 . S
C1171 C1170 1.385 . S
C1172 C1170 1.478 . S
C1172 C1174 1.381 . S
C1172 C1178 1.383 . S
C1173 C1169 1.495 . S
C1173 H1179 0.959 . S
C1173 H1180 0.961 . S
C1173 H1181 0.960 . S
C1174 C1172 1.381 . S
C1174 C1175 1.394 . S
C1174 H1182 0.930 . S
C1175 C1174 1.394 . S
C1175 C1176 1.383 . S
C1175 H1183 0.929 . S
C1176 C1175 1.383 . S
C1176 C1177 1.377 . S
C1177 H1161 0.930 . S
C1177 C1176 1.377 . S
C1177 C1178 1.379 . S
C1178 H1162 0.931 . S
C1178 C1172 1.383 . S
C1178 C1177 1.379 . S
H1179 C1173 0.959 . S
H1180 C1173 0.961 . S
H1181 C1173 0.960 . S
H1182 C1174 0.930 . S
H1183 C1175 0.929 . S
H1184 C1192 0.929 . S
H1185 C1194 0.930 . S
H1186 C1196 0.930 . S
H1187 C1199 0.929 . S
H1188 C1202 0.930 . S
H1189 C1204 0.960 . S
H1190 C1204 0.960 . S
H1191 C1204 0.960 . S
C1192 H1184 0.929 . S
C1192 C1193 1.377 . S
C1192 C1194 1.384 . S
C1193 C1192 1.377 . S
C1193 C1199 1.390 1_565 S
C1194 H1185 0.930 . S
C1194 C1192 1.384 . S
C1194 C1195 1.372 . S
C1195 C1194 1.372 . S
C1195 C1196 1.400 1_565 S
C1195 C1200 1.490 . S
C1196 H1186 0.930 . S
C1196 C1195 1.400 1_545 S
C1196 C1199 1.386 . S
H1197 C1213 0.930 . S
H1198 C1214 0.931 . S
C1199 H1187 0.929 . S
C1199 C1193 1.390 1_545 S
C1199 C1196 1.386 . S
C1200 C1195 1.490 . S
C1200 C1202 1.395 . S
C1200 C1203 1.403 1_565 S
H1201 C1207 0.930 . S
C1202 H1188 0.930 . S
C1202 C1200 1.395 . S
C1202 C1205 1.403 1_655 S
C1203 C1200 1.403 1_545 S
C1203 C1204 1.524 . S
C1203 C1207 1.400 1_655 S
C1204 H1189 0.960 . S
C1204 H1190 0.960 . S
C1204 H1191 0.960 . S
C1204 C1203 1.524 . S
C1205 C1202 1.403 1_455 S
C1205 C1206 1.392 . S
C1205 C1209 1.495 . S
C1206 C1205 1.392 . S
C1206 C1207 1.385 1_565 S
C1206 C1208 1.477 1_565 S
C1207 H1201 0.930 . S
C1207 C1203 1.400 1_455 S
C1207 C1206 1.385 1_545 S
C1208 C1206 1.477 1_545 S
C1208 C1210 1.375 1_545 S
C1208 C1214 1.390 . S
C1209 C1205 1.495 . S
C1209 H1215 0.959 . S
C1209 H1216 0.961 . S
C1209 H1217 0.960 . S
C1210 C1208 1.375 1_565 S
C1210 C1211 1.394 . S
C1210 H1218 0.930 . S
C1211 C1210 1.394 . S
C1211 C1212 1.383 1_565 S
C1211 H1219 0.929 . S
C1212 C1211 1.383 1_545 S
C1212 C1213 1.377 . S
C1213 H1197 0.930 . S
C1213 C1212 1.377 . S
C1213 C1214 1.379 . S
C1214 H1198 0.931 . S
C1214 C1208 1.390 . S
C1214 C1213 1.379 . S
H1215 C1209 0.959 . S
H1216 C1209 0.961 . S
H1217 C1209 0.960 . S
H1218 C1210 0.930 . S
H1219 C1211 0.929 . S
H1220 C1228 0.929 . S
H1221 C1230 0.930 . S
H1222 C1232 0.930 . S
H1223 C1235 0.929 . S
H1224 C1238 0.930 . S
H1225 C1240 0.960 . S
H1226 C1240 0.960 . S
H1227 C1240 0.960 . S
C1228 H1220 0.929 . S
C1228 C1229 1.377 1_565 S
C1228 C1230 1.384 . S
C1229 C1228 1.377 1_545 S
C1229 C1235 1.390 . S
C1230 H1221 0.930 . S
C1230 C1228 1.384 . S
C1230 C1231 1.372 1_565 S
C1231 C1230 1.372 1_545 S
C1231 C1232 1.400 . S
C1231 C1236 1.490 . S
C1232 H1222 0.930 . S
C1232 C1231 1.400 . S
C1232 C1235 1.386 . S
H1233 C1249 0.930 1_545 S
H1234 C1250 0.929 1_545 S
C1235 H1223 0.929 . S
C1235 C1229 1.390 . S
C1235 C1232 1.386 . S
C1236 C1231 1.490 . S
C1236 C1238 1.395 1_545 S
C1236 C1239 1.403 . S
H1237 C1243 0.930 . S
C1238 H1224 0.930 . S
C1238 C1236 1.395 1_565 S
C1238 C1241 1.403 1_655 S
C1239 C1236 1.403 . S
C1239 C1240 1.524 . S
C1239 C1243 1.400 1_655 S
C1240 H1225 0.960 . S
C1240 H1226 0.960 . S
C1240 H1227 0.960 . S
C1240 C1239 1.524 . S
C1241 C1238 1.403 1_455 S
C1241 C1242 1.392 . S
C1241 C1245 1.495 . S
C1242 C1241 1.392 . S
C1242 C1243 1.385 1_565 S
C1242 C1244 1.478 . S
C1243 H1237 0.930 . S
C1243 C1239 1.400 1_455 S
C1243 C1242 1.385 1_545 S
C1244 C1242 1.478 . S
C1244 C1246 1.381 . S
C1244 C1250 1.384 . S
C1245 C1241 1.495 . S
C1245 H1251 0.959 . S
C1245 H1252 0.961 . S
C1245 H1253 0.960 . S
C1246 C1244 1.381 . S
C1246 C1247 1.394 . S
C1246 H1254 0.930 . S
C1247 C1246 1.394 . S
C1247 C1248 1.383 . S
C1247 H1255 0.929 . S
C1248 C1247 1.383 . S
C1248 C1249 1.377 . S
C1249 H1233 0.930 1_565 S
C1249 C1248 1.377 . S
C1249 C1250 1.380 . S
C1250 H1234 0.929 1_565 S
C1250 C1244 1.384 . S
C1250 C1249 1.380 . S
H1251 C1245 0.959 . S
H1252 C1245 0.961 . S
H1253 C1245 0.960 . S
H1254 C1246 0.930 . S
H1255 C1247 0.929 . S
H1256 C1264 0.929 . S
H1257 C1266 0.930 . S
H1258 C1268 0.930 . S
H1259 C1271 0.929 . S
H1260 C1274 0.930 . S
H1261 C1276 0.960 . S
H1262 C1276 0.960 . S
H1263 C1276 0.960 . S
C1264 H1256 0.929 . S
C1264 C1265 1.377 . S
C1264 C1266 1.384 . S
C1265 C1264 1.377 . S
C1265 C1271 1.390 1_545 S
C1266 H1257 0.930 . S
C1266 C1264 1.384 . S
C1266 C1267 1.372 . S
C1267 C1266 1.372 . S
C1267 C1268 1.400 1_545 S
C1267 C1272 1.490 . S
C1268 H1258 0.930 . S
C1268 C1267 1.400 1_565 S
C1268 C1271 1.386 . S
H1269 C1285 0.930 . S
H1270 C1286 0.931 . S
C1271 H1259 0.929 . S
C1271 C1265 1.390 1_565 S
C1271 C1268 1.386 . S
C1272 C1267 1.490 . S
C1272 C1274 1.395 . S
C1272 C1275 1.403 1_545 S
H1273 C1279 0.930 . S
C1274 H1260 0.930 . S
C1274 C1272 1.395 . S
C1274 C1277 1.403 1_455 S
C1275 C1272 1.403 1_565 S
C1275 C1276 1.524 . S
C1275 C1279 1.400 1_455 S
C1276 H1261 0.960 . S
C1276 H1262 0.960 . S
C1276 H1263 0.960 . S
C1276 C1275 1.524 . S
C1277 C1274 1.403 1_655 S
C1277 C1278 1.392 . S
C1277 C1281 1.495 . S
C1278 C1277 1.392 . S
C1278 C1279 1.385 1_545 S
C1278 C1280 1.478 . S
C1279 H1273 0.930 . S
C1279 C1275 1.400 1_655 S
C1279 C1278 1.385 1_565 S
C1280 C1278 1.478 . S
C1280 C1282 1.384 . S
C1280 C1286 1.379 1_545 S
C1281 C1277 1.495 . S
C1281 H1287 0.959 . S
C1281 H1288 0.961 . S
C1281 H1289 0.960 . S
C1282 C1280 1.384 . S
C1282 C1283 1.394 . S
C1282 H1290 0.930 . S
C1283 C1282 1.394 . S
C1283 C1284 1.383 1_545 S
C1283 H1291 0.929 . S
C1284 C1283 1.383 1_565 S
C1284 C1285 1.377 . S
C1285 H1269 0.930 . S
C1285 C1284 1.377 . S
C1285 C1286 1.379 . S
C1286 H1270 0.931 . S
C1286 C1280 1.379 1_565 S
C1286 C1285 1.379 . S
H1287 C1281 0.959 . S
H1288 C1281 0.961 . S
H1289 C1281 0.960 . S
H1290 C1282 0.930 . S
H1291 C1283 0.929 . S
H1292 C1300 0.929 . S
H1293 C1302 0.930 . S
H1294 C1304 0.930 1_565 S
H1295 C1307 0.932 . S
H1296 C1310 0.930 . S
H1297 C1312 0.960 . S
H1298 C1312 0.960 . S
H1299 C1312 0.960 . S
C1300 H1292 0.929 . S
C1300 C1301 1.377 . S
C1300 C1302 1.384 . S
C1301 C1300 1.377 . S
C1301 C1307 1.390 . S
C1302 H1293 0.930 . S
C1302 C1300 1.384 . S
C1302 C1303 1.372 . S
C1303 C1302 1.372 . S
C1303 C1304 1.400 . S
C1303 C1308 1.490 . S
C1304 H1294 0.930 1_545 S
C1304 C1303 1.400 . S
C1304 C1307 1.386 . S
H1305 C1321 0.930 . S
H1306 C1322 0.931 . S
C1307 H1295 0.932 . S
C1307 C1301 1.390 . S
C1307 C1304 1.386 . S
C1308 C1303 1.490 . S
C1308 C1310 1.395 . S
C1308 C1311 1.403 1_545 S
H1309 C1315 0.930 . S
C1310 H1296 0.930 . S
C1310 C1308 1.395 . S
C1310 C1313 1.403 1_655 S
C1311 C1308 1.403 1_565 S
C1311 C1312 1.524 . S
C1311 C1315 1.400 1_655 S
C1312 H1297 0.960 . S
C1312 H1298 0.960 . S
C1312 H1299 0.960 . S
C1312 C1311 1.524 . S
C1313 C1310 1.403 1_455 S
C1313 C1314 1.392 . S
C1313 C1317 1.495 . S
C1314 C1313 1.392 . S
C1314 C1315 1.385 1_545 S
C1314 C1316 1.478 . S
C1315 H1309 0.930 . S
C1315 C1311 1.400 1_455 S
C1315 C1314 1.385 1_565 S
C1316 C1314 1.478 . S
C1316 C1318 1.381 . S
C1316 C1322 1.381 1_545 S
C1317 C1313 1.495 . S
C1317 H1323 0.959 . S
C1317 H1324 0.961 . S
C1317 H1325 0.960 . S
C1318 C1316 1.381 . S
C1318 C1319 1.394 1_545 S
C1318 H1326 0.930 . S
C1319 C1318 1.394 1_565 S
C1319 C1320 1.383 . S
C1319 H1327 0.929 . S
C1320 C1319 1.383 . S
C1320 C1321 1.377 . S
C1321 H1305 0.930 . S
C1321 C1320 1.377 . S
C1321 C1322 1.379 . S
C1322 H1306 0.931 . S
C1322 C1316 1.381 1_565 S
C1322 C1321 1.379 . S
H1323 C1317 0.959 . S
H1324 C1317 0.961 . S
H1325 C1317 0.960 . S
H1326 C1318 0.930 . S
H1327 C1319 0.929 . S
H1328 C1336 0.929 . S
H1329 C1338 0.930 . S
H1330 C1340 0.930 . S
H1331 C1343 0.929 . S
H1332 C1346 0.930 . S
H1333 C1348 0.960 . S
H1334 C1348 0.960 . S
H1335 C1348 0.960 . S
C1336 H1328 0.929 . S
C1336 C1337 1.377 . S
C1336 C1338 1.384 . S
C1337 C1336 1.377 . S
C1337 C1343 1.390 . S
C1338 H1329 0.930 . S
C1338 C1336 1.384 . S
C1338 C1339 1.372 . S
C1339 C1338 1.372 . S
C1339 C1340 1.400 . S
C1339 C1344 1.490 . S
C1340 H1330 0.930 . S
C1340 C1339 1.400 . S
C1340 C1343 1.386 . S
H1341 C1357 0.930 . S
H1342 C1358 0.931 . S
C1343 H1331 0.929 . S
C1343 C1337 1.390 . S
C1343 C1340 1.386 . S
C1344 C1339 1.490 . S
C1344 C1346 1.395 . S
C1344 C1347 1.403 . S
H1345 C1351 0.930 . S
C1346 H1332 0.930 . S
C1346 C1344 1.395 . S
C1346 C1349 1.403 . S
C1347 C1344 1.403 . S
C1347 C1348 1.524 . S
C1347 C1351 1.400 . S
C1348 H1333 0.960 . S
C1348 H1334 0.960 . S
C1348 H1335 0.960 . S
C1348 C1347 1.524 . S
C1349 C1346 1.403 . S
C1349 C1350 1.392 . S
C1349 C1353 1.495 . S
C1350 C1349 1.392 . S
C1350 C1351 1.385 . S
C1350 C1352 1.478 . S
C1351 H1345 0.930 . S
C1351 C1347 1.400 . S
C1351 C1350 1.385 . S
C1352 C1350 1.478 . S
C1352 C1354 1.381 . S
C1352 C1358 1.383 . S
C1353 C1349 1.495 . S
C1353 H1359 0.959 . S
C1353 H1360 0.961 . S
C1353 H1361 0.960 . S
C1354 C1352 1.381 . S
C1354 C1355 1.394 . S
C1354 H1362 0.930 . S
C1355 C1354 1.394 . S
C1355 C1356 1.383 . S
C1355 H1363 0.929 . S
C1356 C1355 1.383 . S
C1356 C1357 1.377 . S
C1357 H1341 0.930 . S
C1357 C1356 1.377 . S
C1357 C1358 1.379 . S
C1358 H1342 0.931 . S
C1358 C1352 1.383 . S
C1358 C1357 1.379 . S
H1359 C1353 0.959 . S
H1360 C1353 0.961 . S
H1361 C1353 0.960 . S
H1362 C1354 0.930 . S
H1363 C1355 0.929 . S
H1364 C1372 0.929 . S
H1365 C1374 0.930 . S
H1366 C1376 0.930 . S
H1367 C1379 0.929 . S
H1368 C1382 0.930 . S
H1369 C1384 0.960 . S
H1370 C1384 0.960 . S
H1371 C1384 0.960 . S
C1372 H1364 0.929 . S
C1372 C1373 1.377 . S
C1372 C1374 1.384 . S
C1373 C1372 1.377 . S
C1373 C1379 1.390 . S
C1374 H1365 0.930 . S
C1374 C1372 1.384 . S
C1374 C1375 1.372 . S
C1375 C1374 1.372 . S
C1375 C1376 1.400 . S
C1375 C1380 1.490 . S
C1376 H1366 0.930 . S
C1376 C1375 1.400 . S
C1376 C1379 1.386 . S
H1377 C1393 0.930 . S
H1378 C1394 0.931 . S
C1379 H1367 0.929 . S
C1379 C1373 1.390 . S
C1379 C1376 1.386 . S
C1380 C1375 1.490 . S
C1380 C1382 1.395 . S
C1380 C1383 1.403 . S
H1381 C1387 0.930 . S
C1382 H1368 0.930 . S
C1382 C1380 1.395 . S
C1382 C1385 1.403 . S
C1383 C1380 1.403 . S
C1383 C1384 1.524 . S
C1383 C1387 1.400 . S
C1384 H1369 0.960 . S
C1384 H1370 0.960 . S
C1384 H1371 0.960 . S
C1384 C1383 1.524 . S
C1385 C1382 1.403 . S
C1385 C1386 1.392 . S
C1385 C1389 1.495 . S
C1386 C1385 1.392 . S
C1386 C1387 1.385 . S
C1386 C1388 1.478 . S
C1387 H1381 0.930 . S
C1387 C1383 1.400 . S
C1387 C1386 1.385 . S
C1388 C1386 1.478 . S
C1388 C1390 1.381 . S
C1388 C1394 1.383 . S
C1389 C1385 1.495 . S
C1389 H1395 0.959 . S
C1389 H1396 0.961 . S
C1389 H1397 0.960 . S
C1390 C1388 1.381 . S
C1390 C1391 1.394 . S
C1390 H1398 0.930 . S
C1391 C1390 1.394 . S
C1391 C1392 1.383 . S
C1391 H1399 0.929 . S
C1392 C1391 1.383 . S
C1392 C1393 1.377 . S
C1393 H1377 0.930 . S
C1393 C1392 1.377 . S
C1393 C1394 1.379 . S
C1394 H1378 0.931 . S
C1394 C1388 1.383 . S
C1394 C1393 1.379 . S
H1395 C1389 0.959 . S
H1396 C1389 0.961 . S
H1397 C1389 0.960 . S
H1398 C1390 0.930 . S
H1399 C1391 0.929 . S
H1400 C1408 0.929 . S
H1401 C1410 0.930 . S
H1402 C1412 0.930 . S
H1403 C1415 0.929 . S
H1404 C1418 0.930 . S
H1405 C1420 0.960 . S
H1406 C1420 0.960 . S
H1407 C1420 0.960 . S
C1408 H1400 0.929 . S
C1408 C1409 1.377 . S
C1408 C1410 1.384 . S
C1409 C1408 1.377 . S
C1409 C1415 1.390 . S
C1410 H1401 0.930 . S
C1410 C1408 1.384 . S
C1410 C1411 1.372 . S
C1411 C1410 1.372 . S
C1411 C1412 1.400 . S
C1411 C1416 1.490 . S
C1412 H1402 0.930 . S
C1412 C1411 1.400 . S
C1412 C1415 1.386 . S
H1413 C1429 0.930 . S
H1414 C1430 0.931 . S
C1415 H1403 0.929 . S
C1415 C1409 1.390 . S
C1415 C1412 1.386 . S
C1416 C1411 1.490 . S
C1416 C1418 1.395 . S
C1416 C1419 1.403 . S
H1417 C1423 0.930 . S
C1418 H1404 0.930 . S
C1418 C1416 1.395 . S
C1418 C1421 1.403 . S
C1419 C1416 1.403 . S
C1419 C1420 1.524 . S
C1419 C1423 1.400 . S
C1420 H1405 0.960 . S
C1420 H1406 0.960 . S
C1420 H1407 0.960 . S
C1420 C1419 1.524 . S
C1421 C1418 1.403 . S
C1421 C1422 1.392 . S
C1421 C1425 1.495 . S
C1422 C1421 1.392 . S
C1422 C1423 1.385 . S
C1422 C1424 1.478 . S
C1423 H1417 0.930 . S
C1423 C1419 1.400 . S
C1423 C1422 1.385 . S
C1424 C1422 1.478 . S
C1424 C1426 1.381 . S
C1424 C1430 1.383 . S
C1425 C1421 1.495 . S
C1425 H1431 0.959 . S
C1425 H1432 0.961 . S
C1425 H1433 0.960 . S
C1426 C1424 1.381 . S
C1426 C1427 1.394 . S
C1426 H1434 0.930 . S
C1427 C1426 1.394 . S
C1427 C1428 1.383 . S
C1427 H1435 0.929 . S
C1428 C1427 1.383 . S
C1428 C1429 1.377 . S
C1429 H1413 0.930 . S
C1429 C1428 1.377 . S
C1429 C1430 1.379 . S
C1430 H1414 0.931 . S
C1430 C1424 1.383 . S
C1430 C1429 1.379 . S
H1431 C1425 0.959 . S
H1432 C1425 0.961 . S
H1433 C1425 0.960 . S
H1434 C1426 0.930 . S
H1435 C1427 0.929 . S
H1436 C1444 0.929 . S
H1437 C1446 0.930 . S
H1438 C1448 0.930 . S
H1439 C1451 0.929 . S
H1440 C1454 0.930 . S
H1441 C1456 0.960 . S
H1442 C1456 0.960 . S
H1443 C1456 0.960 . S
C1444 H1436 0.929 . S
C1444 C1445 1.377 . S
C1444 C1446 1.384 . S
C1445 C1444 1.377 . S
C1445 C1451 1.390 . S
C1446 H1437 0.930 . S
C1446 C1444 1.384 . S
C1446 C1447 1.372 . S
C1447 C1446 1.372 . S
C1447 C1448 1.400 . S
C1447 C1452 1.490 . S
C1448 H1438 0.930 . S
C1448 C1447 1.400 . S
C1448 C1451 1.386 . S
H1449 C1465 0.930 . S
H1450 C1466 0.931 . S
C1451 H1439 0.929 . S
C1451 C1445 1.390 . S
C1451 C1448 1.386 . S
C1452 C1447 1.490 . S
C1452 C1454 1.395 . S
C1452 C1455 1.403 . S
H1453 C1459 0.930 . S
C1454 H1440 0.930 . S
C1454 C1452 1.395 . S
C1454 C1457 1.403 . S
C1455 C1452 1.403 . S
C1455 C1456 1.524 . S
C1455 C1459 1.400 . S
C1456 H1441 0.960 . S
C1456 H1442 0.960 . S
C1456 H1443 0.960 . S
C1456 C1455 1.524 . S
C1457 C1454 1.403 . S
C1457 C1458 1.392 . S
C1457 C1461 1.495 . S
C1458 C1457 1.392 . S
C1458 C1459 1.385 . S
C1458 C1460 1.478 . S
C1459 H1453 0.930 . S
C1459 C1455 1.400 . S
C1459 C1458 1.385 . S
C1460 C1458 1.478 . S
C1460 C1462 1.381 . S
C1460 C1466 1.383 . S
C1461 C1457 1.495 . S
C1461 H1467 0.959 . S
C1461 H1468 0.961 . S
C1461 H1469 0.960 . S
C1462 C1460 1.381 . S
C1462 C1463 1.394 . S
C1462 H1470 0.930 . S
C1463 C1462 1.394 . S
C1463 C1464 1.383 . S
C1463 H1471 0.929 . S
C1464 C1463 1.383 . S
C1464 C1465 1.377 . S
C1465 H1449 0.930 . S
C1465 C1464 1.377 . S
C1465 C1466 1.379 . S
C1466 H1450 0.931 . S
C1466 C1460 1.383 . S
C1466 C1465 1.379 . S
H1467 C1461 0.959 . S
H1468 C1461 0.961 . S
H1469 C1461 0.960 . S
H1470 C1462 0.930 . S
H1471 C1463 0.929 . S
H1472 C1480 0.929 . S
H1473 C1482 0.930 . S
H1474 C1484 0.930 . S
H1475 C1487 0.929 . S
H1476 C1490 0.930 . S
H1477 C1492 0.960 . S
H1478 C1492 0.960 . S
H1479 C1492 0.960 . S
C1480 H1472 0.929 . S
C1480 C1481 1.377 . S
C1480 C1482 1.384 . S
C1481 C1480 1.377 . S
C1481 C1487 1.390 . S
C1482 H1473 0.930 . S
C1482 C1480 1.384 . S
C1482 C1483 1.372 . S
C1483 C1482 1.372 . S
C1483 C1484 1.400 . S
C1483 C1488 1.490 . S
C1484 H1474 0.930 . S
C1484 C1483 1.400 . S
C1484 C1487 1.386 . S
H1485 C1501 0.930 . S
H1486 C1502 0.931 . S
C1487 H1475 0.929 . S
C1487 C1481 1.390 . S
C1487 C1484 1.386 . S
C1488 C1483 1.490 . S
C1488 C1490 1.395 . S
C1488 C1491 1.403 . S
H1489 C1495 0.930 . S
C1490 H1476 0.930 . S
C1490 C1488 1.395 . S
C1490 C1493 1.403 . S
C1491 C1488 1.403 . S
C1491 C1492 1.524 . S
C1491 C1495 1.400 . S
C1492 H1477 0.960 . S
C1492 H1478 0.960 . S
C1492 H1479 0.960 . S
C1492 C1491 1.524 . S
C1493 C1490 1.403 . S
C1493 C1494 1.392 . S
C1493 C1497 1.495 . S
C1494 C1493 1.392 . S
C1494 C1495 1.385 . S
C1494 C1496 1.478 . S
C1495 H1489 0.930 . S
C1495 C1491 1.400 . S
C1495 C1494 1.385 . S
C1496 C1494 1.478 . S
C1496 C1498 1.381 . S
C1496 C1502 1.383 . S
C1497 C1493 1.495 . S
C1497 H1503 0.959 . S
C1497 H1504 0.961 . S
C1497 H1505 0.960 . S
C1498 C1496 1.381 . S
C1498 C1499 1.394 . S
C1498 H1506 0.930 . S
C1499 C1498 1.394 . S
C1499 C1500 1.383 . S
C1499 H1507 0.929 . S
C1500 C1499 1.383 . S
C1500 C1501 1.377 . S
C1501 H1485 0.930 . S
C1501 C1500 1.377 . S
C1501 C1502 1.379 . S
C1502 H1486 0.931 . S
C1502 C1496 1.383 . S
C1502 C1501 1.379 . S
H1503 C1497 0.959 . S
H1504 C1497 0.961 . S
H1505 C1497 0.960 . S
H1506 C1498 0.930 . S
H1507 C1499 0.929 . S
H1508 C1516 0.929 . S
H1509 C1518 0.930 . S
H1510 C1520 0.930 . S
H1511 C1523 0.929 . S
H1512 C1526 0.930 . S
H1513 C1528 0.960 . S
H1514 C1528 0.960 . S
H1515 C1528 0.960 . S
C1516 H1508 0.929 . S
C1516 C1517 1.377 . S
C1516 C1518 1.384 . S
C1517 C1516 1.377 . S
C1517 C1523 1.390 . S
C1518 H1509 0.930 . S
C1518 C1516 1.384 . S
C1518 C1519 1.372 . S
C1519 C1518 1.372 . S
C1519 C1520 1.400 . S
C1519 C1524 1.490 . S
C1520 H1510 0.930 . S
C1520 C1519 1.400 . S
C1520 C1523 1.386 . S
H1521 C1537 0.930 . S
H1522 C1538 0.931 . S
C1523 H1511 0.929 . S
C1523 C1517 1.390 . S
C1523 C1520 1.386 . S
C1524 C1519 1.490 . S
C1524 C1526 1.395 . S
C1524 C1527 1.403 . S
H1525 C1531 0.930 . S
C1526 H1512 0.930 . S
C1526 C1524 1.395 . S
C1526 C1529 1.403 . S
C1527 C1524 1.403 . S
C1527 C1528 1.524 . S
C1527 C1531 1.400 . S
C1528 H1513 0.960 . S
C1528 H1514 0.960 . S
C1528 H1515 0.960 . S
C1528 C1527 1.524 . S
C1529 C1526 1.403 . S
C1529 C1530 1.392 . S
C1529 C1533 1.495 . S
C1530 C1529 1.392 . S
C1530 C1531 1.385 . S
C1530 C1532 1.478 . S
C1531 H1525 0.930 . S
C1531 C1527 1.400 . S
C1531 C1530 1.385 . S
C1532 C1530 1.478 . S
C1532 C1534 1.381 . S
C1532 C1538 1.383 . S
C1533 C1529 1.495 . S
C1533 H1539 0.959 . S
C1533 H1540 0.961 . S
C1533 H1541 0.960 . S
C1534 C1532 1.381 . S
C1534 C1535 1.394 . S
C1534 H1542 0.930 . S
C1535 C1534 1.394 . S
C1535 C1536 1.383 . S
C1535 H1543 0.929 . S
C1536 C1535 1.383 . S
C1536 C1537 1.377 . S
C1537 H1521 0.930 . S
C1537 C1536 1.377 . S
C1537 C1538 1.379 . S
C1538 H1522 0.931 . S
C1538 C1532 1.383 . S
C1538 C1537 1.379 . S
H1539 C1533 0.959 . S
H1540 C1533 0.961 . S
H1541 C1533 0.960 . S
H1542 C1534 0.930 . S
H1543 C1535 0.929 . S
H1544 C1552 0.929 . S
H1545 C1554 0.930 . S
H1546 C1556 0.930 . S
H1547 C1559 0.929 . S
H1548 C1562 0.930 . S
H1549 C1564 0.960 . S
H1550 C1564 0.960 . S
H1551 C1564 0.960 . S
C1552 H1544 0.929 . S
C1552 C1553 1.377 . S
C1552 C1554 1.384 . S
C1553 C1552 1.377 . S
C1553 C1559 1.390 . S
C1554 H1545 0.930 . S
C1554 C1552 1.384 . S
C1554 C1555 1.372 . S
C1555 C1554 1.372 . S
C1555 C1556 1.400 . S
C1555 C1560 1.490 . S
C1556 H1546 0.930 . S
C1556 C1555 1.400 . S
C1556 C1559 1.386 . S
H1557 C1573 0.930 . S
H1558 C1574 0.931 . S
C1559 H1547 0.929 . S
C1559 C1553 1.390 . S
C1559 C1556 1.386 . S
C1560 C1555 1.490 . S
C1560 C1562 1.395 . S
C1560 C1563 1.403 . S
H1561 C1567 0.930 . S
C1562 H1548 0.930 . S
C1562 C1560 1.395 . S
C1562 C1565 1.403 . S
C1563 C1560 1.403 . S
C1563 C1564 1.524 . S
C1563 C1567 1.400 . S
C1564 H1549 0.960 . S
C1564 H1550 0.960 . S
C1564 H1551 0.960 . S
C1564 C1563 1.524 . S
C1565 C1562 1.403 . S
C1565 C1566 1.392 . S
C1565 C1569 1.495 . S
C1566 C1565 1.392 . S
C1566 C1567 1.385 . S
C1566 C1568 1.478 . S
C1567 H1561 0.930 . S
C1567 C1563 1.400 . S
C1567 C1566 1.385 . S
C1568 C1566 1.478 . S
C1568 C1570 1.381 . S
C1568 C1574 1.383 . S
C1569 C1565 1.495 . S
C1569 H1575 0.959 . S
C1569 H1576 0.961 . S
C1569 H1577 0.960 . S
C1570 C1568 1.381 . S
C1570 C1571 1.394 . S
C1570 H1578 0.930 . S
C1571 C1570 1.394 . S
C1571 C1572 1.383 . S
C1571 H1579 0.929 . S
C1572 C1571 1.383 . S
C1572 C1573 1.377 . S
C1573 H1557 0.930 . S
C1573 C1572 1.377 . S
C1573 C1574 1.379 . S
C1574 H1558 0.931 . S
C1574 C1568 1.383 . S
C1574 C1573 1.379 . S
H1575 C1569 0.959 . S
H1576 C1569 0.961 . S
H1577 C1569 0.960 . S
H1578 C1570 0.930 . S
H1579 C1571 0.929 . S
H1580 C1588 0.929 . S
H1581 C1590 0.930 . S
H1582 C1592 0.930 . S
H1583 C1595 0.929 . S
H1584 C1598 0.930 . S
H1585 C1600 0.960 . S
H1586 C1600 0.960 . S
H1587 C1600 0.960 . S
C1588 H1580 0.929 . S
C1588 C1589 1.377 . S
C1588 C1590 1.384 . S
C1589 C1588 1.377 . S
C1589 C1595 1.390 . S
C1590 H1581 0.930 . S
C1590 C1588 1.384 . S
C1590 C1591 1.372 . S
C1591 C1590 1.372 . S
C1591 C1592 1.400 . S
C1591 C1596 1.490 . S
C1592 H1582 0.930 . S
C1592 C1591 1.400 . S
C1592 C1595 1.386 . S
H1593 C1609 0.930 . S
H1594 C1610 0.931 . S
C1595 H1583 0.929 . S
C1595 C1589 1.390 . S
C1595 C1592 1.386 . S
C1596 C1591 1.490 . S
C1596 C1598 1.395 . S
C1596 C1599 1.403 . S
H1597 C1603 0.930 . S
C1598 H1584 0.930 . S
C1598 C1596 1.395 . S
C1598 C1601 1.403 . S
C1599 C1596 1.403 . S
C1599 C1600 1.524 . S
C1599 C1603 1.400 . S
C1600 H1585 0.960 . S
C1600 H1586 0.960 . S
C1600 H1587 0.960 . S
C1600 C1599 1.524 . S
C1601 C1598 1.403 . S
C1601 C1602 1.392 . S
C1601 C1605 1.495 . S
C1602 C1601 1.392 . S
C1602 C1603 1.385 . S
C1602 C1604 1.478 . S
C1603 H1597 0.930 . S
C1603 C1599 1.400 . S
C1603 C1602 1.385 . S
C1604 C1602 1.478 . S
C1604 C1606 1.381 . S
C1604 C1610 1.383 . S
C1605 C1601 1.495 . S
C1605 H1611 0.959 . S
C1605 H1612 0.961 . S
C1605 H1613 0.960 . S
C1606 C1604 1.381 . S
C1606 C1607 1.394 . S
C1606 H1614 0.930 . S
C1607 C1606 1.394 . S
C1607 C1608 1.383 . S
C1607 H1615 0.929 . S
C1608 C1607 1.383 . S
C1608 C1609 1.377 . S
C1609 H1593 0.930 . S
C1609 C1608 1.377 . S
C1609 C1610 1.379 . S
C1610 H1594 0.931 . S
C1610 C1604 1.383 . S
C1610 C1609 1.379 . S
H1611 C1605 0.959 . S
H1612 C1605 0.961 . S
H1613 C1605 0.960 . S
H1614 C1606 0.930 . S
H1615 C1607 0.929 . S
H1616 C1624 0.929 . S
H1617 C1626 0.930 . S
H1618 C1628 0.930 . S
H1619 C1631 0.929 . S
H1620 C1634 0.930 . S
H1621 C1636 0.960 . S
H1622 C1636 0.960 . S
H1623 C1636 0.960 . S
C1624 H1616 0.929 . S
C1624 C1625 1.377 . S
C1624 C1626 1.384 . S
C1625 C1624 1.377 . S
C1625 C1631 1.390 . S
C1626 H1617 0.930 . S
C1626 C1624 1.384 . S
C1626 C1627 1.372 . S
C1627 C1626 1.372 . S
C1627 C1628 1.400 . S
C1627 C1632 1.490 . S
C1628 H1618 0.930 . S
C1628 C1627 1.400 . S
C1628 C1631 1.386 . S
H1629 C1645 0.930 . S
H1630 C1646 0.931 . S
C1631 H1619 0.929 . S
C1631 C1625 1.390 . S
C1631 C1628 1.386 . S
C1632 C1627 1.490 . S
C1632 C1634 1.395 . S
C1632 C1635 1.403 . S
H1633 C1639 0.930 . S
C1634 H1620 0.930 . S
C1634 C1632 1.395 . S
C1634 C1637 1.403 . S
C1635 C1632 1.403 . S
C1635 C1636 1.524 . S
C1635 C1639 1.400 . S
C1636 H1621 0.960 . S
C1636 H1622 0.960 . S
C1636 H1623 0.960 . S
C1636 C1635 1.524 . S
C1637 C1634 1.403 . S
C1637 C1638 1.392 . S
C1637 C1641 1.495 . S
C1638 C1637 1.392 . S
C1638 C1639 1.385 . S
C1638 C1640 1.478 . S
C1639 H1633 0.930 . S
C1639 C1635 1.400 . S
C1639 C1638 1.385 . S
C1640 C1638 1.478 . S
C1640 C1642 1.381 . S
C1640 C1646 1.383 . S
C1641 C1637 1.495 . S
C1641 H1647 0.959 . S
C1641 H1648 0.961 . S
C1641 H1649 0.960 . S
C1642 C1640 1.381 . S
C1642 C1643 1.394 . S
C1642 H1650 0.930 . S
C1643 C1642 1.394 . S
C1643 C1644 1.383 . S
C1643 H1651 0.929 . S
C1644 C1643 1.383 . S
C1644 C1645 1.377 . S
C1645 H1629 0.930 . S
C1645 C1644 1.377 . S
C1645 C1646 1.379 . S
C1646 H1630 0.931 . S
C1646 C1640 1.383 . S
C1646 C1645 1.379 . S
H1647 C1641 0.959 . S
H1648 C1641 0.961 . S
H1649 C1641 0.960 . S
H1650 C1642 0.930 . S
H1651 C1643 0.929 . S
H1652 C1660 0.929 . S
H1653 C1662 0.930 . S
H1654 C1664 0.930 . S
H1655 C1667 0.929 . S
H1656 C1670 0.930 . S
H1657 C1672 0.960 . S
H1658 C1672 0.960 . S
H1659 C1672 0.960 . S
C1660 H1652 0.929 . S
C1660 C1661 1.377 . S
C1660 C1662 1.384 . S
C1661 C1660 1.377 . S
C1661 C1667 1.390 . S
C1662 H1653 0.930 . S
C1662 C1660 1.384 . S
C1662 C1663 1.372 . S
C1663 C1662 1.372 . S
C1663 C1664 1.400 . S
C1663 C1668 1.490 . S
C1664 H1654 0.930 . S
C1664 C1663 1.400 . S
C1664 C1667 1.386 . S
H1665 C1681 0.930 . S
H1666 C1682 0.931 . S
C1667 H1655 0.929 . S
C1667 C1661 1.390 . S
C1667 C1664 1.386 . S
C1668 C1663 1.490 . S
C1668 C1670 1.395 . S
C1668 C1671 1.403 . S
H1669 C1675 0.930 . S
C1670 H1656 0.930 . S
C1670 C1668 1.395 . S
C1670 C1673 1.403 . S
C1671 C1668 1.403 . S
C1671 C1672 1.524 . S
C1671 C1675 1.400 . S
C1672 H1657 0.960 . S
C1672 H1658 0.960 . S
C1672 H1659 0.960 . S
C1672 C1671 1.524 . S
C1673 C1670 1.403 . S
C1673 C1674 1.392 . S
C1673 C1677 1.495 . S
C1674 C1673 1.392 . S
C1674 C1675 1.385 . S
C1674 C1676 1.478 . S
C1675 H1669 0.930 . S
C1675 C1671 1.400 . S
C1675 C1674 1.385 . S
C1676 C1674 1.478 . S
C1676 C1678 1.381 . S
C1676 C1682 1.383 . S
C1677 C1673 1.495 . S
C1677 H1683 0.959 . S
C1677 H1684 0.961 . S
C1677 H1685 0.960 . S
C1678 C1676 1.381 . S
C1678 C1679 1.394 . S
C1678 H1686 0.930 . S
C1679 C1678 1.394 . S
C1679 C1680 1.383 . S
C1679 H1687 0.929 . S
C1680 C1679 1.383 . S
C1680 C1681 1.377 . S
C1681 H1665 0.930 . S
C1681 C1680 1.377 . S
C1681 C1682 1.379 . S
C1682 H1666 0.931 . S
C1682 C1676 1.383 . S
C1682 C1681 1.379 . S
H1683 C1677 0.959 . S
H1684 C1677 0.961 . S
H1685 C1677 0.960 . S
H1686 C1678 0.930 . S
H1687 C1679 0.929 . S
H1688 C1696 0.929 . S
H1689 C1698 0.930 . S
H1690 C1700 0.930 . S
H1691 C1703 0.929 . S
H1692 C1706 0.930 . S
H1693 C1708 0.960 . S
H1694 C1708 0.960 . S
H1695 C1708 0.960 . S
C1696 H1688 0.929 . S
C1696 C1697 1.377 . S
C1696 C1698 1.384 . S
C1697 C1696 1.377 . S
C1697 C1703 1.390 . S
C1698 H1689 0.930 . S
C1698 C1696 1.384 . S
C1698 C1699 1.372 . S
C1699 C1698 1.372 . S
C1699 C1700 1.400 . S
C1699 C1704 1.490 . S
C1700 H1690 0.930 . S
C1700 C1699 1.400 . S
C1700 C1703 1.386 . S
H1701 C1717 0.930 . S
H1702 C1718 0.931 . S
C1703 H1691 0.929 . S
C1703 C1697 1.390 . S
C1703 C1700 1.386 . S
C1704 C1699 1.490 . S
C1704 C1706 1.395 . S
C1704 C1707 1.403 . S
H1705 C1711 0.930 . S
C1706 H1692 0.930 . S
C1706 C1704 1.395 . S
C1706 C1709 1.403 . S
C1707 C1704 1.403 . S
C1707 C1708 1.524 . S
C1707 C1711 1.400 . S
C1708 H1693 0.960 . S
C1708 H1694 0.960 . S
C1708 H1695 0.960 . S
C1708 C1707 1.524 . S
C1709 C1706 1.403 . S
C1709 C1710 1.392 . S
C1709 C1713 1.495 . S
C1710 C1709 1.392 . S
C1710 C1711 1.385 . S
C1710 C1712 1.478 . S
C1711 H1705 0.930 . S
C1711 C1707 1.400 . S
C1711 C1710 1.385 . S
C1712 C1710 1.478 . S
C1712 C1714 1.381 . S
C1712 C1718 1.383 . S
C1713 C1709 1.495 . S
C1713 H1719 0.959 . S
C1713 H1720 0.961 . S
C1713 H1721 0.960 . S
C1714 C1712 1.381 . S
C1714 C1715 1.394 . S
C1714 H1722 0.930 . S
C1715 C1714 1.394 . S
C1715 C1716 1.383 . S
C1715 H1723 0.929 . S
C1716 C1715 1.383 . S
C1716 C1717 1.377 . S
C1717 H1701 0.930 . S
C1717 C1716 1.377 . S
C1717 C1718 1.379 . S
C1718 H1702 0.931 . S
C1718 C1712 1.383 . S
C1718 C1717 1.379 . S
H1719 C1713 0.959 . S
H1720 C1713 0.961 . S
H1721 C1713 0.960 . S
H1722 C1714 0.930 . S
H1723 C1715 0.929 . S
H1724 C1732 0.929 . S
H1725 C1734 0.930 . S
H1726 C1736 0.930 . S
H1727 C1739 0.929 . S
H1728 C1742 0.930 . S
H1729 C1744 0.960 . S
H1730 C1744 0.960 . S
H1731 C1744 0.960 . S
C1732 H1724 0.929 . S
C1732 C1733 1.377 . S
C1732 C1734 1.384 . S
C1733 C1732 1.377 . S
C1733 C1739 1.390 . S
C1734 H1725 0.930 . S
C1734 C1732 1.384 . S
C1734 C1735 1.372 . S
C1735 C1734 1.372 . S
C1735 C1736 1.400 . S
C1735 C1740 1.490 . S
C1736 H1726 0.930 . S
C1736 C1735 1.400 . S
C1736 C1739 1.386 . S
H1737 C1753 0.930 . S
H1738 C1754 0.931 . S
C1739 H1727 0.929 . S
C1739 C1733 1.390 . S
C1739 C1736 1.386 . S
C1740 C1735 1.490 . S
C1740 C1742 1.395 . S
C1740 C1743 1.403 . S
H1741 C1747 0.930 . S
C1742 H1728 0.930 . S
C1742 C1740 1.395 . S
C1742 C1745 1.403 . S
C1743 C1740 1.403 . S
C1743 C1744 1.524 . S
C1743 C1747 1.400 . S
C1744 H1729 0.960 . S
C1744 H1730 0.960 . S
C1744 H1731 0.960 . S
C1744 C1743 1.524 . S
C1745 C1742 1.403 . S
C1745 C1746 1.392 . S
C1745 C1749 1.495 . S
C1746 C1745 1.392 . S
C1746 C1747 1.385 . S
C1746 C1748 1.478 . S
C1747 H1741 0.930 . S
C1747 C1743 1.400 . S
C1747 C1746 1.385 . S
C1748 C1746 1.478 . S
C1748 C1750 1.381 . S
C1748 C1754 1.383 . S
C1749 C1745 1.495 . S
C1749 H1755 0.959 . S
C1749 H1756 0.961 . S
C1749 H1757 0.960 . S
C1750 C1748 1.381 . S
C1750 C1751 1.394 . S
C1750 H1758 0.930 . S
C1751 C1750 1.394 . S
C1751 C1752 1.383 . S
C1751 H1759 0.929 . S
C1752 C1751 1.383 . S
C1752 C1753 1.377 . S
C1753 H1737 0.930 . S
C1753 C1752 1.377 . S
C1753 C1754 1.379 . S
C1754 H1738 0.931 . S
C1754 C1748 1.383 . S
C1754 C1753 1.379 . S
H1755 C1749 0.959 . S
H1756 C1749 0.961 . S
H1757 C1749 0.960 . S
H1758 C1750 0.930 . S
H1759 C1751 0.929 . S
H1760 C1768 0.929 . S
H1761 C1770 0.930 . S
H1762 C1772 0.930 . S
H1763 C1775 0.929 . S
H1764 C1778 0.930 . S
H1765 C1780 0.960 . S
H1766 C1780 0.960 . S
H1767 C1780 0.960 . S
C1768 H1760 0.929 . S
C1768 C1769 1.377 . S
C1768 C1770 1.384 . S
C1769 C1768 1.377 . S
C1769 C1775 1.390 . S
C1770 H1761 0.930 . S
C1770 C1768 1.384 . S
C1770 C1771 1.372 . S
C1771 C1770 1.372 . S
C1771 C1772 1.400 . S
C1771 C1776 1.490 1_565 S
C1772 H1762 0.930 . S
C1772 C1771 1.400 . S
C1772 C1775 1.386 . S
H1773 C1789 0.930 . S
H1774 C1790 0.931 . S
C1775 H1763 0.929 . S
C1775 C1769 1.390 . S
C1775 C1772 1.386 . S
C1776 C1771 1.490 1_545 S
C1776 C1778 1.395 . S
C1776 C1779 1.403 . S
H1777 C1783 0.930 . S
C1778 H1764 0.930 . S
C1778 C1776 1.395 . S
C1778 C1781 1.403 . S
C1779 C1776 1.403 . S
C1779 C1780 1.524 . S
C1779 C1783 1.400 . S
C1780 H1765 0.960 . S
C1780 H1766 0.960 . S
C1780 H1767 0.960 . S
C1780 C1779 1.524 . S
C1781 C1778 1.403 . S
C1781 C1782 1.392 . S
C1781 C1785 1.495 . S
C1782 C1781 1.392 . S
C1782 C1783 1.385 . S
C1782 C1784 1.478 . S
C1783 H1777 0.930 . S
C1783 C1779 1.400 . S
C1783 C1782 1.385 . S
C1784 C1782 1.478 . S
C1784 C1786 1.381 . S
C1784 C1790 1.383 . S
C1785 C1781 1.495 . S
C1785 H1791 0.959 . S
C1785 H1792 0.961 . S
C1785 H1793 0.960 . S
C1786 C1784 1.381 . S
C1786 C1787 1.394 . S
C1786 H1794 0.930 . S
C1787 C1786 1.394 . S
C1787 C1788 1.383 . S
C1787 H1795 0.929 . S
C1788 C1787 1.383 . S
C1788 C1789 1.377 . S
C1789 H1773 0.930 . S
C1789 C1788 1.377 . S
C1789 C1790 1.379 . S
C1790 H1774 0.931 . S
C1790 C1784 1.383 . S
C1790 C1789 1.379 . S
H1791 C1785 0.959 . S
H1792 C1785 0.961 . S
H1793 C1785 0.960 . S
H1794 C1786 0.930 . S
H1795 C1787 0.929 . S
H1796 C1804 0.929 . S
H1797 C1806 0.930 . S
H1798 C1808 0.930 . S
H1799 C1811 0.929 . S
H1800 C1814 0.930 . S
H1801 C1816 0.960 . S
H1802 C1816 0.960 . S
H1803 C1816 0.960 . S
C1804 H1796 0.929 . S
C1804 C1805 1.377 . S
C1804 C1806 1.384 . S
C1805 C1804 1.377 . S
C1805 C1811 1.390 . S
C1806 H1797 0.930 . S
C1806 C1804 1.384 . S
C1806 C1807 1.372 . S
C1807 C1806 1.372 . S
C1807 C1808 1.400 . S
C1807 C1812 1.490 . S
C1808 H1798 0.930 . S
C1808 C1807 1.400 . S
C1808 C1811 1.386 . S
H1809 C1825 0.930 . S
H1810 C1826 0.931 . S
C1811 H1799 0.929 . S
C1811 C1805 1.390 . S
C1811 C1808 1.386 . S
C1812 C1807 1.490 . S
C1812 C1814 1.395 . S
C1812 C1815 1.403 . S
H1813 C1819 0.930 . S
C1814 H1800 0.930 . S
C1814 C1812 1.395 . S
C1814 C1817 1.403 . S
C1815 C1812 1.403 . S
C1815 C1816 1.524 . S
C1815 C1819 1.400 . S
C1816 H1801 0.960 . S
C1816 H1802 0.960 . S
C1816 H1803 0.960 . S
C1816 C1815 1.524 . S
C1817 C1814 1.403 . S
C1817 C1818 1.392 . S
C1817 C1821 1.495 . S
C1818 C1817 1.392 . S
C1818 C1819 1.385 . S
C1818 C1820 1.478 1_565 S
C1819 H1813 0.930 . S
C1819 C1815 1.400 . S
C1819 C1818 1.385 . S
C1820 C1818 1.478 1_545 S
C1820 C1822 1.381 . S
C1820 C1826 1.383 . S
C1821 C1817 1.495 . S
C1821 H1827 0.959 . S
C1821 H1828 0.961 . S
C1821 H1829 0.960 . S
C1822 C1820 1.381 . S
C1822 C1823 1.394 . S
C1822 H1830 0.930 . S
C1823 C1822 1.394 . S
C1823 C1824 1.383 . S
C1823 H1831 0.929 . S
C1824 C1823 1.383 . S
C1824 C1825 1.377 . S
C1825 H1809 0.930 . S
C1825 C1824 1.377 . S
C1825 C1826 1.379 . S
C1826 H1810 0.931 . S
C1826 C1820 1.383 . S
C1826 C1825 1.379 . S
H1827 C1821 0.959 . S
H1828 C1821 0.961 . S
H1829 C1821 0.960 . S
H1830 C1822 0.930 . S
H1831 C1823 0.929 . S
H1832 C1840 0.929 . S
H1833 C1842 0.930 . S
H1834 C1844 0.930 . S
H1835 C1847 0.929 . S
H1836 C1850 0.930 . S
H1837 C1852 0.960 . S
H1838 C1852 0.960 . S
H1839 C1852 0.960 . S
C1840 H1832 0.929 . S
C1840 C1841 1.377 . S
C1840 C1842 1.384 . S
C1841 C1840 1.377 . S
C1841 C1847 1.390 . S
C1842 H1833 0.930 . S
C1842 C1840 1.384 . S
C1842 C1843 1.372 . S
C1843 C1842 1.372 . S
C1843 C1844 1.400 . S
C1843 C1848 1.490 1_545 S
C1844 H1834 0.930 . S
C1844 C1843 1.400 . S
C1844 C1847 1.386 . S
H1845 C1861 0.930 . S
H1846 C1862 0.931 . S
C1847 H1835 0.929 . S
C1847 C1841 1.390 . S
C1847 C1844 1.386 . S
C1848 C1843 1.490 1_565 S
C1848 C1850 1.395 . S
C1848 C1851 1.403 . S
H1849 C1855 0.930 . S
C1850 H1836 0.930 . S
C1850 C1848 1.395 . S
C1850 C1853 1.403 . S
C1851 C1848 1.403 . S
C1851 C1852 1.524 . S
C1851 C1855 1.400 . S
C1852 H1837 0.960 . S
C1852 H1838 0.960 . S
C1852 H1839 0.960 . S
C1852 C1851 1.524 . S
C1853 C1850 1.403 . S
C1853 C1854 1.392 . S
C1853 C1857 1.495 . S
C1854 C1853 1.392 . S
C1854 C1855 1.385 . S
C1854 C1856 1.478 . S
C1855 H1849 0.930 . S
C1855 C1851 1.400 . S
C1855 C1854 1.385 . S
C1856 C1854 1.478 . S
C1856 C1858 1.381 . S
C1856 C1862 1.383 . S
C1857 C1853 1.495 . S
C1857 H1863 0.959 . S
C1857 H1864 0.961 . S
C1857 H1865 0.960 . S
C1858 C1856 1.381 . S
C1858 C1859 1.394 . S
C1858 H1866 0.930 . S
C1859 C1858 1.394 . S
C1859 C1860 1.383 . S
C1859 H1867 0.929 . S
C1860 C1859 1.383 . S
C1860 C1861 1.377 . S
C1861 H1845 0.930 . S
C1861 C1860 1.377 . S
C1861 C1862 1.379 . S
C1862 H1846 0.931 . S
C1862 C1856 1.383 . S
C1862 C1861 1.379 . S
H1863 C1857 0.959 . S
H1864 C1857 0.961 . S
H1865 C1857 0.960 . S
H1866 C1858 0.930 . S
H1867 C1859 0.929 . S
H1868 C1876 0.929 . S
H1869 C1878 0.930 . S
H1870 C1880 0.930 . S
H1871 C1883 0.929 . S
H1872 C1886 0.930 . S
H1873 C1888 0.960 . S
H1874 C1888 0.960 . S
H1875 C1888 0.960 . S
C1876 H1868 0.929 . S
C1876 C1877 1.377 . S
C1876 C1878 1.384 . S
C1877 C1876 1.377 . S
C1877 C1883 1.390 . S
C1878 H1869 0.930 . S
C1878 C1876 1.384 . S
C1878 C1879 1.372 . S
C1879 C1878 1.372 . S
C1879 C1880 1.400 . S
C1879 C1884 1.490 1_565 S
C1880 H1870 0.930 . S
C1880 C1879 1.400 . S
C1880 C1883 1.386 . S
H1881 C1897 0.930 . S
H1882 C1898 0.931 . S
C1883 H1871 0.929 . S
C1883 C1877 1.390 . S
C1883 C1880 1.386 . S
C1884 C1879 1.490 1_545 S
C1884 C1886 1.395 . S
C1884 C1887 1.403 . S
H1885 C1891 0.930 . S
C1886 H1872 0.930 . S
C1886 C1884 1.395 . S
C1886 C1889 1.403 . S
C1887 C1884 1.403 . S
C1887 C1888 1.524 . S
C1887 C1891 1.400 . S
C1888 H1873 0.960 . S
C1888 H1874 0.960 . S
C1888 H1875 0.960 . S
C1888 C1887 1.524 . S
C1889 C1886 1.403 . S
C1889 C1890 1.392 . S
C1889 C1893 1.495 . S
C1890 C1889 1.392 . S
C1890 C1891 1.385 . S
C1890 C1892 1.478 . S
C1891 H1885 0.930 . S
C1891 C1887 1.400 . S
C1891 C1890 1.385 . S
C1892 C1890 1.478 . S
C1892 C1894 1.381 . S
C1892 C1898 1.383 . S
C1893 C1889 1.495 . S
C1893 H1899 0.959 . S
C1893 H1900 0.961 . S
C1893 H1901 0.960 . S
C1894 C1892 1.381 . S
C1894 C1895 1.394 . S
C1894 H1902 0.930 . S
C1895 C1894 1.394 . S
C1895 C1896 1.383 . S
C1895 H1903 0.929 . S
C1896 C1895 1.383 . S
C1896 C1897 1.377 . S
C1897 H1881 0.930 . S
C1897 C1896 1.377 . S
C1897 C1898 1.379 . S
C1898 H1882 0.931 . S
C1898 C1892 1.383 . S
C1898 C1897 1.379 . S
H1899 C1893 0.959 . S
H1900 C1893 0.961 . S
H1901 C1893 0.960 . S
H1902 C1894 0.930 . S
H1903 C1895 0.929 . S
H1904 C1912 0.929 . S
H1905 C1914 0.930 . S
H1906 C1916 0.930 . S
H1907 C1919 0.929 . S
H1908 C1922 0.930 . S
H1909 C1924 0.960 . S
H1910 C1924 0.960 . S
H1911 C1924 0.960 . S
C1912 H1904 0.929 . S
C1912 C1913 1.377 . S
C1912 C1914 1.384 . S
C1913 C1912 1.377 . S
C1913 C1919 1.390 . S
C1914 H1905 0.930 . S
C1914 C1912 1.384 . S
C1914 C1915 1.372 . S
C1915 C1914 1.372 . S
C1915 C1916 1.400 . S
C1915 C1920 1.490 . S
C1916 H1906 0.930 . S
C1916 C1915 1.400 . S
C1916 C1919 1.386 . S
H1917 C1933 0.930 . S
H1918 C1934 0.931 . S
C1919 H1907 0.929 . S
C1919 C1913 1.390 . S
C1919 C1916 1.386 . S
C1920 C1915 1.490 . S
C1920 C1922 1.395 . S
C1920 C1923 1.403 . S
H1921 C1927 0.930 . S
C1922 H1908 0.930 . S
C1922 C1920 1.395 . S
C1922 C1925 1.403 . S
C1923 C1920 1.403 . S
C1923 C1924 1.524 . S
C1923 C1927 1.400 . S
C1924 H1909 0.960 . S
C1924 H1910 0.960 . S
C1924 H1911 0.960 . S
C1924 C1923 1.524 . S
C1925 C1922 1.403 . S
C1925 C1926 1.392 . S
C1925 C1929 1.495 . S
C1926 C1925 1.392 . S
C1926 C1927 1.385 . S
C1926 C1928 1.478 1_565 S
C1927 H1921 0.930 . S
C1927 C1923 1.400 . S
C1927 C1926 1.385 . S
C1928 C1926 1.478 1_545 S
C1928 C1930 1.381 . S
C1928 C1934 1.383 . S
C1929 C1925 1.495 . S
C1929 H1935 0.959 . S
C1929 H1936 0.961 . S
C1929 H1937 0.960 . S
C1930 C1928 1.381 . S
C1930 C1931 1.394 . S
C1930 H1938 0.930 . S
C1931 C1930 1.394 . S
C1931 C1932 1.383 . S
C1931 H1939 0.929 . S
C1932 C1931 1.383 . S
C1932 C1933 1.377 . S
C1933 H1917 0.930 . S
C1933 C1932 1.377 . S
C1933 C1934 1.379 . S
C1934 H1918 0.931 . S
C1934 C1928 1.383 . S
C1934 C1933 1.379 . S
H1935 C1929 0.959 . S
H1936 C1929 0.961 . S
H1937 C1929 0.960 . S
H1938 C1930 0.930 . S
H1939 C1931 0.929 . S
H1940 C1948 0.929 . S
H1941 C1950 0.930 . S
H1942 C1952 0.930 . S
H1943 C1955 0.929 . S
H1944 C1958 0.930 . S
H1945 C1960 0.960 . S
H1946 C1960 0.960 . S
H1947 C1960 0.960 . S
C1948 H1940 0.929 . S
C1948 C1949 1.377 . S
C1948 C1950 1.384 . S
C1949 C1948 1.377 . S
C1949 C1955 1.390 . S
C1950 H1941 0.930 . S
C1950 C1948 1.384 . S
C1950 C1951 1.372 . S
C1951 C1950 1.372 . S
C1951 C1952 1.400 . S
C1951 C1956 1.490 . S
C1952 H1942 0.930 . S
C1952 C1951 1.400 . S
C1952 C1955 1.386 . S
H1953 C1969 0.930 . S
H1954 C1970 0.931 . S
C1955 H1943 0.929 . S
C1955 C1949 1.390 . S
C1955 C1952 1.386 . S
C1956 C1951 1.490 . S
C1956 C1958 1.395 . S
C1956 C1959 1.403 . S
H1957 C1963 0.930 . S
C1958 H1944 0.930 . S
C1958 C1956 1.395 . S
C1958 C1961 1.403 . S
C1959 C1956 1.403 . S
C1959 C1960 1.524 . S
C1959 C1963 1.400 . S
C1960 H1945 0.960 . S
C1960 H1946 0.960 . S
C1960 H1947 0.960 . S
C1960 C1959 1.524 . S
C1961 C1958 1.403 . S
C1961 C1962 1.392 . S
C1961 C1965 1.495 . S
C1962 C1961 1.392 . S
C1962 C1963 1.385 . S
C1962 C1964 1.478 1_545 S
C1963 H1957 0.930 . S
C1963 C1959 1.400 . S
C1963 C1962 1.385 . S
C1964 C1962 1.478 1_565 S
C1964 C1966 1.381 . S
C1964 C1970 1.383 . S
C1965 C1961 1.495 . S
C1965 H1971 0.959 . S
C1965 H1972 0.961 . S
C1965 H1973 0.960 . S
C1966 C1964 1.381 . S
C1966 C1967 1.394 . S
C1966 H1974 0.930 . S
C1967 C1966 1.394 . S
C1967 C1968 1.383 . S
C1967 H1975 0.929 . S
C1968 C1967 1.383 . S
C1968 C1969 1.377 . S
C1969 H1953 0.930 . S
C1969 C1968 1.377 . S
C1969 C1970 1.379 . S
C1970 H1954 0.931 . S
C1970 C1964 1.383 . S
C1970 C1969 1.379 . S
H1971 C1965 0.959 . S
H1972 C1965 0.961 . S
H1973 C1965 0.960 . S
H1974 C1966 0.930 . S
H1975 C1967 0.929 . S
H1976 C1984 0.929 . S
H1977 C1986 0.930 . S
H1978 C1988 0.930 . S
H1979 C1991 0.929 . S
H1980 C1994 0.930 . S
H1981 C1996 0.960 . S
H1982 C1996 0.960 . S
H1983 C1996 0.960 . S
C1984 H1976 0.929 . S
C1984 C1985 1.377 . S
C1984 C1986 1.384 . S
C1985 C1984 1.377 . S
C1985 C1991 1.390 . S
C1986 H1977 0.930 . S
C1986 C1984 1.384 . S
C1986 C1987 1.372 . S
C1987 C1986 1.372 . S
C1987 C1988 1.400 . S
C1987 C1992 1.490 1_565 S
C1988 H1978 0.930 . S
C1988 C1987 1.400 . S
C1988 C1991 1.386 . S
H1989 C2005 0.930 . S
H1990 C2006 0.931 . S
C1991 H1979 0.929 . S
C1991 C1985 1.390 . S
C1991 C1988 1.386 . S
C1992 C1987 1.490 1_545 S
C1992 C1994 1.395 . S
C1992 C1995 1.403 . S
H1993 C1999 0.930 . S
C1994 H1980 0.930 . S
C1994 C1992 1.395 . S
C1994 C1997 1.403 . S
C1995 C1992 1.403 . S
C1995 C1996 1.524 . S
C1995 C1999 1.400 . S
C1996 H1981 0.960 . S
C1996 H1982 0.960 . S
C1996 H1983 0.960 . S
C1996 C1995 1.524 . S
C1997 C1994 1.403 . S
C1997 C1998 1.392 . S
C1997 C2001 1.495 . S
C1998 C1997 1.392 . S
C1998 C1999 1.385 . S
C1998 C2000 1.478 . S
C1999 H1993 0.930 . S
C1999 C1995 1.400 . S
C1999 C1998 1.385 . S
C2000 C1998 1.478 . S
C2000 C2002 1.381 . S
C2000 C2006 1.383 . S
C2001 C1997 1.495 . S
C2001 H2007 0.959 . S
C2001 H2008 0.961 . S
C2001 H2009 0.960 . S
C2002 C2000 1.381 . S
C2002 C2003 1.394 . S
C2002 H2010 0.930 . S
C2003 C2002 1.394 . S
C2003 C2004 1.383 . S
C2003 H2011 0.929 . S
C2004 C2003 1.383 . S
C2004 C2005 1.377 . S
C2005 H1989 0.930 . S
C2005 C2004 1.377 . S
C2005 C2006 1.379 . S
C2006 H1990 0.931 . S
C2006 C2000 1.383 . S
C2006 C2005 1.379 . S
H2007 C2001 0.959 . S
H2008 C2001 0.961 . S
H2009 C2001 0.960 . S
H2010 C2002 0.930 . S
H2011 C2003 0.929 . S
H2012 C2020 0.929 . S
H2013 C2022 0.930 . S
H2014 C2024 0.930 . S
H2015 C2027 0.929 . S
H2016 C2030 0.930 . S
H2017 C2032 0.960 . S
H2018 C2032 0.960 . S
H2019 C2032 0.960 . S
C2020 H2012 0.929 . S
C2020 C2021 1.377 . S
C2020 C2022 1.384 . S
C2021 C2020 1.377 . S
C2021 C2027 1.390 . S
C2022 H2013 0.930 . S
C2022 C2020 1.384 . S
C2022 C2023 1.372 . S
C2023 C2022 1.372 . S
C2023 C2024 1.400 . S
C2023 C2028 1.490 . S
C2024 H2014 0.930 . S
C2024 C2023 1.400 . S
C2024 C2027 1.386 . S
H2025 C2041 0.930 . S
H2026 C2042 0.931 . S
C2027 H2015 0.929 . S
C2027 C2021 1.390 . S
C2027 C2024 1.386 . S
C2028 C2023 1.490 . S
C2028 C2030 1.395 . S
C2028 C2031 1.403 . S
H2029 C2035 0.930 . S
C2030 H2016 0.930 . S
C2030 C2028 1.395 . S
C2030 C2033 1.403 . S
C2031 C2028 1.403 . S
C2031 C2032 1.524 . S
C2031 C2035 1.400 . S
C2032 H2017 0.960 . S
C2032 H2018 0.960 . S
C2032 H2019 0.960 . S
C2032 C2031 1.524 . S
C2033 C2030 1.403 . S
C2033 C2034 1.392 . S
C2033 C2037 1.495 . S
C2034 C2033 1.392 . S
C2034 C2035 1.385 . S
C2034 C2036 1.478 1_565 S
C2035 H2029 0.930 . S
C2035 C2031 1.400 . S
C2035 C2034 1.385 . S
C2036 C2034 1.478 1_545 S
C2036 C2038 1.381 . S
C2036 C2042 1.383 . S
C2037 C2033 1.495 . S
C2037 H2043 0.959 . S
C2037 H2044 0.961 . S
C2037 H2045 0.960 . S
C2038 C2036 1.381 . S
C2038 C2039 1.394 . S
C2038 H2046 0.930 . S
C2039 C2038 1.394 . S
C2039 C2040 1.383 . S
C2039 H2047 0.929 . S
C2040 C2039 1.383 . S
C2040 C2041 1.377 . S
C2041 H2025 0.930 . S
C2041 C2040 1.377 . S
C2041 C2042 1.379 . S
C2042 H2026 0.931 . S
C2042 C2036 1.383 . S
C2042 C2041 1.379 . S
H2043 C2037 0.959 . S
H2044 C2037 0.961 . S
H2045 C2037 0.960 . S
H2046 C2038 0.930 . S
H2047 C2039 0.929 . S
C329 C6 1.561 . S
C348 C186 1.586 . S
C365 C26 1.559 . S
C384 C166 1.528 . S
C401 C226 1.563 . S
C420 C46 1.589 . S
C437 C66 1.557 . S
C456 C206 1.569 . S
C473 C276 1.565 . S
C492 C96 1.589 . S
C509 C256 1.566 . S
C528 C116 1.589 . S
C545 C316 1.565 . S
C564 C136 1.589 . S
C581 C156 1.558 . S
C600 C296 1.528 . S
C617 C49 1.559 . S
C636 C9 1.555 . S
C653 C69 1.562 . S
C672 C29 1.551 . S
C689 C121 1.562 . S
C708 C81 1.563 . S
C725 C101 1.561 . S
C744 C141 1.564 . S
C761 C209 1.560 . S
C780 C169 1.549 . S
C797 C229 1.559 . S
C816 C189 1.558 . S
C833 C241 1.559 . S
C852 C281 1.549 . S
C869 C261 1.560 . S
C888 C301 1.556 . S
C905 C109 1.584 . S
C924 C1 1.562 . S
C941 C89 1.585 . S
C960 C21 1.598 . S
C977 C41 1.584 . S
C996 C149 1.563 . S
C1013 C129 1.580 . S
C1032 C61 1.591 . S
C1049 C161 1.587 . S
C1068 C269 1.560 . S
C1085 C249 1.581 . S
C1104 C181 1.601 . S
C1121 C201 1.585 . S
C1140 C309 1.561 . S
C1157 C289 1.580 . S
C1176 C221 1.592 . S
C1193 C36 1.559 . S
C1212 C16 1.580 . S
C1229 C76 1.557 . S
C1248 C56 1.526 . S
C1265 C106 1.560 . S
C1284 C86 1.585 . S
C1301 C126 1.563 . S
C1320 C146 1.586 . S
C1337 C196 1.566 . S
C1356 C176 1.579 . S
C1373 C236 1.553 . S
C1392 C216 1.539 . S
C1409 C246 1.554 . S
C1428 C266 1.533 . S
C1445 C286 1.557 . S
C1464 C306 1.526 . S
C1481 C8 2.037 . S
C1500 C19 2.005 . S
C1517 C28 2.045 . S
C1536 C39 2.045 . S
C1553 C48 2.033 . S
C1572 C59 2.019 . S
C1589 C79 2.040 . S
C1608 C68 2.061 . S
C1625 C99 2.034 . S
C1644 C88 2.011 . S
C1661 C108 2.040 . S
C1680 C119 2.023 . S
C1697 C139 2.040 . S
C1716 C128 2.059 . S
C1733 C159 2.036 . S
C1752 C148 2.047 . S
C1769 C179 2.031 . S
C1788 C168 2.028 . S
C1805 C188 2.033 . S
C1824 C199 2.005 . S
C1841 C219 2.035 . S
C1860 C208 2.006 . S
C1877 C239 2.032 . S
C1896 C228 2.005 . S
C1913 C259 2.041 . S
C1932 C248 2.028 . S
C1949 C279 2.041 . S
C1968 C268 2.055 . S
C1985 C288 2.036 . S
C2004 C299 2.057 . S
C2021 C319 2.038 . S
C2040 C308 2.059 . S
