# Generated by pormake.
# Topology zfr, (5)-cn, num edge types: 1
# Building blocks:
#     Node 0, Type 0, BuildingBlock: BEQFEK_clean_sbu_0, # of connection points: 5
#     Node 1, Type 0, BuildingBlock: BEQFEK_clean_sbu_0, # of connection points: 5
#     Node 2, Type 0, BuildingBlock: BEQFEK_clean_sbu_0, # of connection points: 5
#     Node 3, Type 0, BuildingBlock: BEQFEK_clean_sbu_0, # of connection points: 5
#     Node 4, Type 0, BuildingBlock: BEQFEK_clean_sbu_0, # of connection points: 5
#     Node 5, Type 0, BuildingBlock: BEQFEK_clean_sbu_0, # of connection points: 5
#     Node 6, Type 0, BuildingBlock: BEQFEK_clean_sbu_0, # of connection points: 5
#     Node 7, Type 0, BuildingBlock: BEQFEK_clean_sbu_0, # of connection points: 5
#     Edge 8, Type (0, 0), None
#     Edge 9, Type (0, 0), None
#     Edge 10, Type (0, 0), None
#     Edge 11, Type (0, 0), None
#     Edge 12, Type (0, 0), None
#     Edge 13, Type (0, 0), None
#     Edge 14, Type (0, 0), None
#     Edge 15, Type (0, 0), None
#     Edge 16, Type (0, 0), None
#     Edge 17, Type (0, 0), None
#     Edge 18, Type (0, 0), None
#     Edge 19, Type (0, 0), None
#     Edge 20, Type (0, 0), None
#     Edge 21, Type (0, 0), None
#     Edge 22, Type (0, 0), None
#     Edge 23, Type (0, 0), None
#     Edge 24, Type (0, 0), None
#     Edge 25, Type (0, 0), None
#     Edge 26, Type (0, 0), None
#     Edge 27, Type (0, 0), None
# Relax obj value: 0.398
# Max RMSD: 0.282
# Mean RMSD: 0.282
data_MOF--net-zfr--node1-BEQFEK_clean_sbu_0--edge1-none
_symmetry_space_group_name_H-M    P1
_symmetry_Int_Tables_number       1
_symmetry_cell_setting            triclinic
loop_
_symmetry_equiv_pos_as_xyz
'x, y, z'
_cell_length_a     23.609803
_cell_length_b     23.607237
_cell_length_c     9.977882
_cell_angle_alpha  90.00014
_cell_angle_beta   89.995332
_cell_angle_gamma 90.000061
loop_
_atom_site_label
_atom_site_type_symbol
_atom_site_fract_x
_atom_site_fract_y
_atom_site_fract_z
_atom_type_partial_charge
Co0 Co 0.13863 0.35383 0.07451 0.0
Co1 Co 0.07307 0.35159 0.34031 0.0
C2 C 0.12809 0.45771 0.25805 0.0
O3 O 0.14822 0.4358 0.14992 0.0
O4 O 0.09517 0.4298 0.33233 0.0
C5 C 0.13573 0.37203 0.81991 0.0
O6 O 0.12203 0.42221 0.86565 0.0
C7 C 0.06954 0.37425 0.61681 0.0
C8 C 0.09216 0.28926 0.68866 0.0
C9 C 0.09802 0.34622 0.71804 0.0
N10 N 0.05321 0.33652 0.52338 0.0
N11 N 0.06381 0.28537 0.57156 0.0
C12 C 0.06398 0.43682 0.60317 0.0
H13 H 0.03589 0.44843 0.51909 0.0
H14 H 0.10659 0.4556 0.58938 0.0
H15 H 0.04511 0.45391 0.69593 0.0
C16 C 0.20658 0.26446 0.21936 0.0
N17 N 0.16116 0.29838 0.20467 0.0
N18 N 0.1425 0.3114 0.32342 0.0
C19 C 0.18195 0.29758 0.41606 0.0
C20 C 0.22046 0.26029 0.35757 0.0
C21 C 0.23497 0.23898 0.10076 0.0
H22 H 0.20842 0.24455 1.00993 0.0
H23 H 0.27593 0.26064 0.08293 0.0
H24 H 0.24101 0.1932 0.11757 0.0
O25 O 0.06115 0.3426 1.01534 0.0
O26 O 0.00885 0.33582 0.19564 0.0
H27 H 0.19683 0.33264 0.61315 0.0
H28 H 0.24918 0.35059 0.49356 0.0
C29 C 0.20304 0.34348 0.50795 0.0
H30 H 0.18065 0.38398 0.48859 0.0
H31 H 0.06016 0.24826 0.51538 0.0
O32 O 0.16706 0.34071 0.89293 0.0
C33 C 0.01348 0.33558 0.06685 0.0
Co34 Co 0.62304 0.13866 0.32453 0.0
Co35 Co 0.62529 0.07309 0.59031 0.0
C36 C 0.51918 0.12811 0.50809 0.0
O37 O 0.54108 0.14824 0.39995 0.0
O38 O 0.54709 0.09519 0.58237 0.0
C39 C 0.60485 0.13575 0.06992 0.0
O40 O 0.55468 0.12204 0.11567 0.0
C41 C 0.60264 0.06955 0.86681 0.0
C42 C 0.68761 0.09219 0.93865 0.0
C43 C 0.63066 0.09804 0.96804 0.0
N44 N 0.64037 0.05323 0.77337 0.0
N45 N 0.69151 0.06384 0.82154 0.0
C46 C 0.54008 0.06398 0.85319 0.0
H47 H 0.52847 0.03589 0.76909 0.0
H48 H 0.52129 0.10658 0.83944 0.0
H49 H 0.523 0.04509 0.94593 0.0
C50 C 0.71241 0.20662 0.46938 0.0
N51 N 0.67849 0.1612 0.45468 0.0
N52 N 0.66547 0.14252 0.57343 0.0
C53 C 0.6793 0.18198 0.66608 0.0
C54 C 0.71659 0.22049 0.60759 0.0
C55 C 0.73789 0.23501 0.35078 0.0
H56 H 0.73229 0.20847 0.25993 0.0
H57 H 0.71624 0.27599 0.33301 0.0
H58 H 0.78366 0.24103 0.36754 0.0
O59 O 0.63428 0.06117 0.26534 0.0
O60 O 0.64105 0.00886 0.44564 0.0
H61 H 0.64424 0.19686 0.86318 0.0
H62 H 0.6263 0.24922 0.74361 0.0
C63 C 0.6334 0.20307 0.75798 0.0
H64 H 0.5929 0.18069 0.73862 0.0
H65 H 0.72862 0.06018 0.76536 0.0
O66 O 0.63617 0.16709 0.14294 0.0
C67 C 0.6413 0.0135 0.31685 0.0
Co68 Co 0.83829 0.62305 0.57455 0.0
Co69 Co 0.90385 0.62529 0.84033 0.0
C70 C 0.84883 0.51918 0.75809 0.0
O71 O 0.82871 0.54108 0.64996 0.0
O72 O 0.88175 0.54709 0.83236 0.0
C73 C 0.84119 0.60485 0.31995 0.0
O74 O 0.85488 0.55467 0.36567 0.0
C75 C 0.90738 0.60264 0.11682 0.0
C76 C 0.88475 0.68762 0.18869 0.0
C77 C 0.8789 0.63067 0.21806 0.0
N78 N 0.9237 0.64037 0.02339 0.0
N79 N 0.9131 0.69152 0.07158 0.0
C80 C 0.91293 0.54007 0.10318 0.0
H81 H 0.94103 0.52846 1.01909 0.0
H82 H 0.87033 0.52129 0.0894 0.0
H83 H 0.9318 0.52297 0.19593 0.0
C84 C 0.77036 0.71244 0.71939 0.0
N85 N 0.81577 0.6785 0.7047 0.0
N86 N 0.83442 0.66548 0.82345 0.0
C87 C 0.79497 0.67932 0.91609 0.0
C88 C 0.75648 0.71661 0.8576 0.0
C89 C 0.742 0.73795 0.60079 0.0
H90 H 0.76857 0.73239 0.50997 0.0
H91 H 0.70104 0.71629 0.5829 0.0
H92 H 0.73596 0.78372 0.61763 0.0
O93 O 0.91578 0.63428 0.51535 0.0
O94 O 0.96807 0.64106 0.69565 0.0
H95 H 0.78009 0.64428 0.11321 0.0
H96 H 0.72773 0.62634 0.99367 0.0
C97 C 0.77387 0.63343 1.00802 0.0
H98 H 0.79624 0.59292 0.98866 0.0
H99 H 0.91676 0.72863 1.0154 0.0
O100 O 0.80986 0.63618 0.39298 0.0
C101 C 0.96344 0.6413 0.56685 0.0
Co102 Co 0.35389 0.83826 0.82453 0.0
Co103 Co 0.35163 0.90382 0.09032 0.0
C104 C 0.45774 0.8488 1.00808 0.0
O105 O 0.43585 0.82867 0.89995 0.0
O106 O 0.42983 0.88172 0.08235 0.0
C107 C 0.37208 0.84116 0.56992 0.0
O108 O 0.42226 0.85486 0.61563 0.0
C109 C 0.37429 0.90736 0.36681 0.0
C110 C 0.28932 0.88472 0.43869 0.0
C111 C 0.34627 0.87887 0.46805 0.0
N112 N 0.33656 0.92368 0.27338 0.0
N113 N 0.28541 0.91307 0.32159 0.0
C114 C 0.43685 0.91294 0.35315 0.0
H115 H 0.44845 0.94104 0.26906 0.0
H116 H 0.45564 0.87034 0.33938 0.0
H117 H 0.45393 0.93183 0.4459 0.0
C118 C 0.26452 0.7703 0.96937 0.0
N119 N 0.29844 0.81572 0.95468 0.0
N120 N 0.31145 0.83439 0.07343 0.0
C121 C 0.29762 0.79493 0.16607 0.0
C122 C 0.26033 0.75643 0.10758 0.0
C123 C 0.23903 0.74193 0.85077 0.0
H124 H 0.24461 0.76848 0.75993 0.0
H125 H 0.26067 0.70095 0.83294 0.0
H126 H 0.19325 0.7359 0.86756 0.0
O127 O 0.34266 0.91575 0.76535 0.0
O128 O 0.33586 0.96805 0.94565 0.0
H129 H 0.33265 0.78005 0.36318 0.0
H130 H 0.3506 0.72769 0.24362 0.0
C131 C 0.3435 0.77383 0.25798 0.0
H132 H 0.384 0.79621 0.23862 0.0
H133 H 0.24831 0.91672 0.26542 0.0
O134 O 0.34077 0.80982 0.64295 0.0
C135 C 0.33563 0.96342 0.81686 0.0
Co136 Co 0.13859 0.62309 0.46546 0.0
Co137 Co 0.07302 0.62535 0.19968 0.0
C138 C 0.12809 0.51925 0.28181 0.0
O139 O 0.14819 0.54114 0.38999 0.0
O140 O 0.09516 0.54716 0.20754 0.0
C141 C 0.13565 0.6049 0.7201 0.0
O142 O 0.12194 0.55473 0.67439 0.0
C143 C 0.06945 0.60273 0.9232 0.0
C144 C 0.09214 0.68769 0.85137 0.0
C145 C 0.09796 0.63074 0.82198 0.0
N146 N 0.05315 0.64046 1.01664 0.0
N147 N 0.06379 0.69161 0.96847 0.0
C148 C 0.06379 0.54016 0.93679 0.0
H149 H 0.03575 0.52859 0.02099 0.0
H150 H 0.10638 0.52131 0.95036 0.0
H151 H 0.04481 0.52313 0.8441 0.0
C152 C 0.20655 0.71246 0.32061 0.0
N153 N 0.16112 0.67856 0.33532 0.0
N154 N 0.14243 0.66556 0.21658 0.0
C155 C 0.18188 0.67938 0.12392 0.0
C156 C 0.22037 0.71669 0.18238 0.0
C157 C 0.23503 0.73783 0.4392 0.0
H158 H 0.20854 0.73223 0.53011 0.0
H159 H 0.27599 0.71611 0.45679 0.0
H160 H 0.24112 0.78361 0.42255 0.0
O161 O 0.0611 0.63431 0.52465 0.0
O162 O 0.0088 0.64108 0.34436 0.0
H163 H 0.19678 0.64434 0.92681 0.0
H164 H 0.2491 0.62636 0.04641 0.0
C165 C 0.20297 0.63349 0.03201 0.0
H166 H 0.18057 0.59299 0.05134 0.0
H167 H 0.06016 0.72872 0.02466 0.0
O168 O 0.167 0.63621 0.64707 0.0
C169 C 0.01343 0.64131 0.47315 0.0
Co170 Co 0.3538 0.13859 0.71548 0.0
Co171 Co 0.35156 0.073 0.44969 0.0
C172 C 0.45764 0.1281 0.53184 0.0
O173 O 0.43575 0.1482 0.64002 0.0
O174 O 0.42975 0.09516 0.45756 0.0
C175 C 0.37199 0.13565 0.97012 0.0
O176 O 0.42216 0.12195 0.92439 0.0
C177 C 0.37419 0.06944 0.17321 0.0
C178 C 0.28922 0.0921 0.10139 0.0
C179 C 0.34617 0.09794 0.07199 0.0
N180 N 0.33647 0.05312 0.26665 0.0
N181 N 0.28532 0.06375 0.21849 0.0
C182 C 0.43675 0.06382 0.18679 0.0
H183 H 0.44834 0.03577 0.27097 0.0
H184 H 0.45558 0.10641 0.20038 0.0
H185 H 0.45379 0.04485 0.09409 0.0
C186 C 0.26443 0.20654 0.57062 0.0
N187 N 0.29834 0.16111 0.58534 0.0
N188 N 0.31134 0.14242 0.4666 0.0
C189 C 0.29752 0.18186 0.37393 0.0
C190 C 0.2602 0.22034 0.43238 0.0
C191 C 0.23905 0.23502 0.68921 0.0
H192 H 0.24465 0.20853 0.78012 0.0
H193 H 0.26076 0.27599 0.70679 0.0
H194 H 0.19327 0.24111 0.67255 0.0
O195 O 0.3426 0.06109 0.77466 0.0
O196 O 0.33585 0.00877 0.59437 0.0
H197 H 0.33256 0.19677 0.17683 0.0
H198 H 0.35052 0.2491 0.29645 0.0
C199 C 0.34341 0.20296 0.28203 0.0
H200 H 0.3839 0.18057 0.30136 0.0
H201 H 0.24822 0.0601 0.27468 0.0
O202 O 0.34068 0.16699 0.8971 0.0
C203 C 0.33561 0.01341 0.72315 0.0
Co204 Co 0.83833 0.35379 0.9655 0.0
Co205 Co 0.90391 0.35153 0.6997 0.0
C206 C 0.84884 0.45763 0.78185 0.0
O207 O 0.82873 0.43574 0.89004 0.0
O208 O 0.88177 0.42973 0.70757 0.0
C209 C 0.84128 0.37198 0.22014 0.0
O210 O 0.85499 0.42216 0.17442 0.0
C211 C 0.90748 0.37416 0.42322 0.0
C212 C 0.88479 0.28919 0.35139 0.0
C213 C 0.87897 0.34615 0.32201 0.0
N214 N 0.92378 0.33642 0.51665 0.0
N215 N 0.91314 0.28528 0.46848 0.0
C216 C 0.91313 0.43672 0.43681 0.0
H217 H 0.94118 0.4483 0.521 0.0
H218 H 0.87055 0.45558 0.45039 0.0
H219 H 0.93211 0.45376 0.34411 0.0
C220 C 0.77036 0.26444 0.82064 0.0
N221 N 0.8158 0.29832 0.83535 0.0
N222 N 0.8345 0.31132 0.71661 0.0
C223 C 0.79505 0.29752 0.62395 0.0
C224 C 0.75655 0.26021 0.6824 0.0
C225 C 0.74185 0.23909 0.93923 0.0
H226 H 0.76832 0.2447 0.03015 0.0
H227 H 0.70089 0.26082 0.95676 0.0
H228 H 0.73576 0.19331 0.92261 0.0
O229 O 0.91582 0.34257 0.02466 0.0
O230 O 0.96813 0.33581 0.84437 0.0
H231 H 0.78015 0.33258 0.42687 0.0
H232 H 0.72784 0.35056 0.54651 0.0
C233 C 0.77397 0.34343 0.53208 0.0
H234 H 0.79638 0.38392 0.55141 0.0
H235 H 0.91677 0.24817 0.52467 0.0
O236 O 0.80993 0.34068 0.14712 0.0
C237 C 0.96349 0.33557 0.97315 0.0
Co238 Co 0.62311 0.83833 0.21548 0.0
Co239 Co 0.62536 0.90391 0.94968 0.0
C240 C 0.51928 0.84881 0.03184 0.0
O241 O 0.54117 0.82871 0.14002 0.0
O242 O 0.54718 0.88175 0.95757 0.0
C243 C 0.60492 0.84125 0.47012 0.0
O244 O 0.55474 0.85496 0.42442 0.0
C245 C 0.60273 0.90747 0.67321 0.0
C246 C 0.68769 0.8848 0.60135 0.0
C247 C 0.63074 0.87897 0.57198 0.0
N248 N 0.64046 0.92378 0.76664 0.0
N249 N 0.6916 0.91315 0.71844 0.0
C250 C 0.54017 0.9131 0.68682 0.0
H251 H 0.52859 0.94116 0.771 0.0
H252 H 0.52134 0.87051 0.70044 0.0
H253 H 0.52312 0.93206 0.59412 0.0
C254 C 0.7125 0.77039 0.07062 0.0
N255 N 0.67858 0.81581 0.08534 0.0
N256 N 0.66558 0.8345 0.96659 0.0
C257 C 0.67942 0.79505 0.87393 0.0
C258 C 0.71673 0.75657 0.93239 0.0
C259 C 0.73788 0.74192 0.18922 0.0
H260 H 0.73229 0.76842 0.28011 0.0
H261 H 0.71617 0.70096 0.20685 0.0
H262 H 0.78366 0.73583 0.17253 0.0
O263 O 0.63431 0.91583 0.27466 0.0
O264 O 0.64108 0.96814 0.09436 0.0
H265 H 0.64439 0.78014 0.67683 0.0
H266 H 0.62643 0.7278 0.79643 0.0
C267 C 0.63354 0.77394 0.78202 0.0
H268 H 0.59303 0.79633 0.80135 0.0
H269 H 0.7287 0.9168 0.77462 0.0
O270 O 0.63623 0.80991 0.39708 0.0
C271 C 0.64131 0.9635 0.22315 0.0
loop_
_geom_bond_atom_site_label_1
_geom_bond_atom_site_label_2
_geom_bond_distance
_geom_bond_site_symmetry_2
_ccdc_geom_bond_type
Co0 O3 1.970 . S
Co0 N17 1.989 . S
Co0 O25 1.967 . S
Co0 O32 1.920 1_554 S
Co1 O4 1.966 . S
Co1 N10 2.022 . S
Co1 N18 1.993 . S
Co1 O26 1.941 1_455 S
C2 O3 1.258 . S
C2 O4 1.263 . S
O3 Co0 1.970 . S
O3 C2 1.258 . S
O4 Co1 1.966 . S
O4 C2 1.263 . S
C5 O6 1.235 . S
C5 O32 1.289 . S
O6 C5 1.235 . S
C7 C9 1.400 . S
C7 N10 1.351 . S
C7 C12 1.501 . S
C8 C9 1.387 . S
C8 N11 1.341 . S
C9 C7 1.400 . S
C9 C8 1.387 . S
N10 Co1 2.022 . S
N10 C7 1.351 . S
N10 N11 1.365 . S
N11 C8 1.341 . S
N11 N10 1.365 . S
N11 H31 0.862 . S
C12 C7 1.501 . S
C12 H13 0.961 . S
C12 H14 0.961 . S
C12 H15 0.960 . S
H13 C12 0.961 . S
H14 C12 0.961 . S
H15 C12 0.960 . S
C16 N17 1.342 . S
C16 C20 1.401 . S
C16 C21 1.499 . S
N17 Co0 1.989 . S
N17 C16 1.342 . S
N17 N18 1.388 . S
N18 Co1 1.993 . S
N18 N17 1.388 . S
N18 C19 1.346 . S
C19 N18 1.346 . S
C19 C20 1.396 . S
C19 C29 1.510 . S
C20 C16 1.401 . S
C20 C19 1.396 . S
C21 C16 1.499 . S
C21 H22 0.959 1_554 S
C21 H23 0.960 . S
C21 H24 0.961 . S
H22 C21 0.959 1_556 S
H23 C21 0.960 . S
H24 C21 0.961 . S
O25 Co0 1.967 . S
O25 C33 1.258 1_455 S
O26 Co1 1.941 1_655 S
O26 C33 1.266 . S
H27 C29 0.959 . S
H28 C29 0.961 . S
C29 C19 1.510 . S
C29 H27 0.959 . S
C29 H28 0.961 . S
C29 H30 0.960 . S
H30 C29 0.960 . S
H31 N11 0.862 . S
O32 Co0 1.920 1_556 S
O32 C5 1.289 . S
C33 O25 1.258 1_655 S
C33 O26 1.266 . S
Co34 O37 1.970 . S
Co34 N51 1.989 . S
Co34 O59 1.967 . S
Co34 O66 1.920 . S
Co35 O38 1.966 . S
Co35 N44 2.022 . S
Co35 N52 1.993 . S
Co35 O60 1.941 1_545 S
C36 O37 1.258 . S
C36 O38 1.263 . S
O37 Co34 1.970 . S
O37 C36 1.258 . S
O38 Co35 1.966 . S
O38 C36 1.263 . S
C39 O40 1.235 . S
C39 O66 1.289 . S
O40 C39 1.235 . S
C41 C43 1.400 1_556 S
C41 N44 1.351 . S
C41 C46 1.501 . S
C42 C43 1.387 1_556 S
C42 N45 1.341 . S
C43 C41 1.400 1_554 S
C43 C42 1.387 1_554 S
N44 Co35 2.022 . S
N44 C41 1.351 . S
N44 N45 1.365 . S
N45 C42 1.341 . S
N45 N44 1.365 . S
N45 H65 0.862 . S
C46 C41 1.501 . S
C46 H47 0.961 . S
C46 H48 0.961 . S
C46 H49 0.960 . S
H47 C46 0.961 . S
H48 C46 0.961 . S
H49 C46 0.960 . S
C50 N51 1.342 . S
C50 C54 1.401 . S
C50 C55 1.499 . S
N51 Co34 1.989 . S
N51 C50 1.342 . S
N51 N52 1.388 . S
N52 Co35 1.993 . S
N52 N51 1.388 . S
N52 C53 1.346 . S
C53 N52 1.346 . S
C53 C54 1.396 . S
C53 C63 1.510 . S
C54 C50 1.401 . S
C54 C53 1.396 . S
C55 C50 1.499 . S
C55 H56 0.959 . S
C55 H57 0.960 . S
C55 H58 0.961 . S
H56 C55 0.959 . S
H57 C55 0.960 . S
H58 C55 0.961 . S
O59 Co34 1.967 . S
O59 C67 1.258 1_545 S
O60 Co35 1.941 1_565 S
O60 C67 1.266 . S
H61 C63 0.959 . S
H62 C63 0.961 . S
C63 C53 1.510 . S
C63 H61 0.959 . S
C63 H62 0.961 . S
C63 H64 0.960 . S
H64 C63 0.960 . S
H65 N45 0.862 . S
O66 Co34 1.920 . S
O66 C39 1.289 . S
C67 O59 1.258 1_565 S
C67 O60 1.266 . S
Co68 O71 1.970 . S
Co68 N85 1.989 . S
Co68 O93 1.967 . S
Co68 O100 1.920 . S
Co69 O72 1.966 . S
Co69 N78 2.022 1_556 S
Co69 N86 1.993 . S
Co69 O94 1.941 1_655 S
C70 O71 1.258 . S
C70 O72 1.263 . S
O71 Co68 1.970 . S
O71 C70 1.258 . S
O72 Co69 1.966 . S
O72 C70 1.263 . S
C73 O74 1.235 . S
C73 O100 1.289 . S
O74 C73 1.235 . S
C75 C77 1.400 . S
C75 N78 1.351 . S
C75 C80 1.501 . S
C76 C77 1.387 . S
C76 N79 1.341 . S
C77 C75 1.400 . S
C77 C76 1.387 . S
N78 Co69 2.022 1_554 S
N78 C75 1.351 . S
N78 N79 1.365 . S
N79 C76 1.341 . S
N79 N78 1.365 . S
N79 H99 0.862 . S
C80 C75 1.501 . S
C80 H81 0.961 . S
C80 H82 0.961 . S
C80 H83 0.960 . S
H81 C80 0.961 . S
H82 C80 0.961 . S
H83 C80 0.960 . S
C84 N85 1.342 . S
C84 C88 1.401 . S
C84 C89 1.499 . S
N85 Co68 1.989 . S
N85 C84 1.342 . S
N85 N86 1.388 . S
N86 Co69 1.993 . S
N86 N85 1.388 . S
N86 C87 1.346 . S
C87 N86 1.346 . S
C87 C88 1.396 . S
C87 C97 1.510 1_556 S
C88 C84 1.401 . S
C88 C87 1.396 . S
C89 C84 1.499 . S
C89 H90 0.959 . S
C89 H91 0.960 . S
C89 H92 0.961 . S
H90 C89 0.959 . S
H91 C89 0.960 . S
H92 C89 0.961 . S
O93 Co68 1.967 . S
O93 C101 1.258 1_655 S
O94 Co69 1.941 1_455 S
O94 C101 1.266 . S
H95 C97 0.959 . S
H96 C97 0.961 . S
C97 C87 1.510 1_554 S
C97 H95 0.959 . S
C97 H96 0.961 . S
C97 H98 0.960 . S
H98 C97 0.960 . S
H99 N79 0.862 . S
O100 Co68 1.920 . S
O100 C73 1.289 . S
C101 O93 1.258 1_455 S
C101 O94 1.266 . S
Co102 O105 1.970 . S
Co102 N119 1.989 . S
Co102 O127 1.967 . S
Co102 O134 1.920 . S
Co103 O106 1.966 . S
Co103 N112 2.022 . S
Co103 N120 1.993 . S
Co103 O128 1.941 1_565 S
C104 O105 1.258 . S
C104 O106 1.263 1_556 S
O105 Co102 1.970 . S
O105 C104 1.258 . S
O106 Co103 1.966 . S
O106 C104 1.263 1_554 S
C107 O108 1.235 . S
C107 O134 1.289 . S
O108 C107 1.235 . S
C109 C111 1.400 . S
C109 N112 1.351 . S
C109 C114 1.501 . S
C110 C111 1.387 . S
C110 N113 1.341 . S
C111 C109 1.400 . S
C111 C110 1.387 . S
N112 Co103 2.022 . S
N112 C109 1.351 . S
N112 N113 1.365 . S
N113 C110 1.341 . S
N113 N112 1.365 . S
N113 H133 0.862 . S
C114 C109 1.501 . S
C114 H115 0.961 . S
C114 H116 0.961 . S
C114 H117 0.960 . S
H115 C114 0.961 . S
H116 C114 0.961 . S
H117 C114 0.960 . S
C118 N119 1.342 . S
C118 C122 1.401 1_556 S
C118 C123 1.499 . S
N119 Co102 1.989 . S
N119 C118 1.342 . S
N119 N120 1.388 1_556 S
N120 Co103 1.993 . S
N120 N119 1.388 1_554 S
N120 C121 1.346 . S
C121 N120 1.346 . S
C121 C122 1.396 . S
C121 C131 1.510 . S
C122 C118 1.401 1_554 S
C122 C121 1.396 . S
C123 C118 1.499 . S
C123 H124 0.959 . S
C123 H125 0.960 . S
C123 H126 0.961 . S
H124 C123 0.959 . S
H125 C123 0.960 . S
H126 C123 0.961 . S
O127 Co102 1.967 . S
O127 C135 1.258 1_565 S
O128 Co103 1.941 1_545 S
O128 C135 1.266 1_554 S
H129 C131 0.959 . S
H130 C131 0.961 . S
C131 C121 1.510 . S
C131 H129 0.959 . S
C131 H130 0.961 . S
C131 H132 0.960 . S
H132 C131 0.960 . S
H133 N113 0.862 . S
O134 Co102 1.920 . S
O134 C107 1.289 . S
C135 O127 1.258 1_545 S
C135 O128 1.266 1_556 S
Co136 O139 1.970 . S
Co136 N153 1.989 . S
Co136 O161 1.967 . S
Co136 O168 1.920 . S
Co137 O140 1.966 . S
Co137 N146 2.022 1_554 S
Co137 N154 1.993 . S
Co137 O162 1.941 1_455 S
C138 O139 1.258 . S
C138 O140 1.263 . S
O139 Co136 1.970 . S
O139 C138 1.258 . S
O140 Co137 1.966 . S
O140 C138 1.263 . S
C141 O142 1.235 . S
C141 O168 1.289 . S
O142 C141 1.235 . S
C143 C145 1.400 . S
C143 N146 1.351 . S
C143 C148 1.501 . S
C144 C145 1.387 . S
C144 N147 1.341 . S
C145 C143 1.400 . S
C145 C144 1.387 . S
N146 Co137 2.022 1_556 S
N146 C143 1.351 . S
N146 N147 1.365 . S
N147 C144 1.341 . S
N147 N146 1.365 . S
N147 H167 0.862 . S
C148 C143 1.501 . S
C148 H149 0.961 . S
C148 H150 0.961 . S
C148 H151 0.960 . S
H149 C148 0.961 . S
H150 C148 0.961 . S
H151 C148 0.960 . S
C152 N153 1.342 . S
C152 C156 1.401 . S
C152 C157 1.499 . S
N153 Co136 1.989 . S
N153 C152 1.342 . S
N153 N154 1.388 . S
N154 Co137 1.993 . S
N154 N153 1.388 . S
N154 C155 1.346 . S
C155 N154 1.346 . S
C155 C156 1.396 . S
C155 C165 1.510 1_554 S
C156 C152 1.401 . S
C156 C155 1.396 . S
C157 C152 1.499 . S
C157 H158 0.959 . S
C157 H159 0.960 . S
C157 H160 0.961 . S
H158 C157 0.959 . S
H159 C157 0.960 . S
H160 C157 0.961 . S
O161 Co136 1.967 . S
O161 C169 1.258 1_455 S
O162 Co137 1.941 1_655 S
O162 C169 1.266 . S
H163 C165 0.959 . S
H164 C165 0.961 . S
C165 C155 1.510 1_556 S
C165 H163 0.959 . S
C165 H164 0.961 . S
C165 H166 0.960 . S
H166 C165 0.960 . S
H167 N147 0.862 . S
O168 Co136 1.920 . S
O168 C141 1.289 . S
C169 O161 1.258 1_655 S
C169 O162 1.266 . S
Co170 O173 1.970 . S
Co170 N187 1.989 . S
Co170 O195 1.967 . S
Co170 O202 1.920 . S
Co171 O174 1.966 . S
Co171 N180 2.022 . S
Co171 N188 1.993 . S
Co171 O196 1.941 1_545 S
C172 O173 1.258 . S
C172 O174 1.263 . S
O173 Co170 1.970 . S
O173 C172 1.258 . S
O174 Co171 1.966 . S
O174 C172 1.263 . S
C175 O176 1.235 . S
C175 O202 1.289 . S
O176 C175 1.235 . S
C177 C179 1.400 1_554 S
C177 N180 1.351 . S
C177 C182 1.501 . S
C178 C179 1.387 1_554 S
C178 N181 1.341 . S
C179 C177 1.400 1_556 S
C179 C178 1.387 1_556 S
N180 Co171 2.022 . S
N180 C177 1.351 . S
N180 N181 1.365 . S
N181 C178 1.341 . S
N181 N180 1.365 . S
N181 H201 0.862 . S
C182 C177 1.501 . S
C182 H183 0.961 . S
C182 H184 0.961 . S
C182 H185 0.960 . S
H183 C182 0.961 . S
H184 C182 0.961 . S
H185 C182 0.960 . S
C186 N187 1.342 . S
C186 C190 1.401 . S
C186 C191 1.499 . S
N187 Co170 1.989 . S
N187 C186 1.342 . S
N187 N188 1.388 . S
N188 Co171 1.993 . S
N188 N187 1.388 . S
N188 C189 1.346 . S
C189 N188 1.346 . S
C189 C190 1.396 . S
C189 C199 1.510 . S
C190 C186 1.401 . S
C190 C189 1.396 . S
C191 C186 1.499 . S
C191 H192 0.959 . S
C191 H193 0.960 . S
C191 H194 0.961 . S
H192 C191 0.959 . S
H193 C191 0.960 . S
H194 C191 0.961 . S
O195 Co170 1.967 . S
O195 C203 1.258 1_545 S
O196 Co171 1.941 1_565 S
O196 C203 1.266 . S
H197 C199 0.959 . S
H198 C199 0.961 . S
C199 C189 1.510 . S
C199 H197 0.959 . S
C199 H198 0.961 . S
C199 H200 0.960 . S
H200 C199 0.960 . S
H201 N181 0.862 . S
O202 Co170 1.920 . S
O202 C175 1.289 . S
C203 O195 1.258 1_565 S
C203 O196 1.266 . S
Co204 O207 1.970 . S
Co204 N221 1.989 . S
Co204 O229 1.967 . S
Co204 O236 1.920 1_556 S
Co205 O208 1.966 . S
Co205 N214 2.022 . S
Co205 N222 1.993 . S
Co205 O230 1.941 1_655 S
C206 O207 1.258 . S
C206 O208 1.263 . S
O207 Co204 1.970 . S
O207 C206 1.258 . S
O208 Co205 1.966 . S
O208 C206 1.263 . S
C209 O210 1.235 . S
C209 O236 1.289 . S
O210 C209 1.235 . S
C211 C213 1.400 . S
C211 N214 1.351 . S
C211 C216 1.501 . S
C212 C213 1.387 . S
C212 N215 1.341 . S
C213 C211 1.400 . S
C213 C212 1.387 . S
N214 Co205 2.022 . S
N214 C211 1.351 . S
N214 N215 1.365 . S
N215 C212 1.341 . S
N215 N214 1.365 . S
N215 H235 0.862 . S
C216 C211 1.501 . S
C216 H217 0.961 . S
C216 H218 0.961 . S
C216 H219 0.960 . S
H217 C216 0.961 . S
H218 C216 0.961 . S
H219 C216 0.960 . S
C220 N221 1.342 . S
C220 C224 1.401 . S
C220 C225 1.499 . S
N221 Co204 1.989 . S
N221 C220 1.342 . S
N221 N222 1.388 . S
N222 Co205 1.993 . S
N222 N221 1.388 . S
N222 C223 1.346 . S
C223 N222 1.346 . S
C223 C224 1.396 . S
C223 C233 1.510 . S
C224 C220 1.401 . S
C224 C223 1.396 . S
C225 C220 1.499 . S
C225 H226 0.959 1_556 S
C225 H227 0.960 . S
C225 H228 0.961 . S
H226 C225 0.959 1_554 S
H227 C225 0.960 . S
H228 C225 0.961 . S
O229 Co204 1.967 . S
O229 C237 1.258 1_655 S
O230 Co205 1.941 1_455 S
O230 C237 1.266 . S
H231 C233 0.959 . S
H232 C233 0.961 . S
C233 C223 1.510 . S
C233 H231 0.959 . S
C233 H232 0.961 . S
C233 H234 0.960 . S
H234 C233 0.960 . S
H235 N215 0.862 . S
O236 Co204 1.920 1_554 S
O236 C209 1.289 . S
C237 O229 1.258 1_455 S
C237 O230 1.266 . S
Co238 O241 1.970 . S
Co238 N255 1.989 . S
Co238 O263 1.967 . S
Co238 O270 1.920 . S
Co239 O242 1.966 . S
Co239 N248 2.022 . S
Co239 N256 1.993 . S
Co239 O264 1.941 1_565 S
C240 O241 1.258 . S
C240 O242 1.263 1_554 S
O241 Co238 1.970 . S
O241 C240 1.258 . S
O242 Co239 1.966 . S
O242 C240 1.263 1_556 S
C243 O244 1.235 . S
C243 O270 1.289 . S
O244 C243 1.235 . S
C245 C247 1.400 . S
C245 N248 1.351 . S
C245 C250 1.501 . S
C246 C247 1.387 . S
C246 N249 1.341 . S
C247 C245 1.400 . S
C247 C246 1.387 . S
N248 Co239 2.022 . S
N248 C245 1.351 . S
N248 N249 1.365 . S
N249 C246 1.341 . S
N249 N248 1.365 . S
N249 H269 0.862 . S
C250 C245 1.501 . S
C250 H251 0.961 . S
C250 H252 0.961 . S
C250 H253 0.960 . S
H251 C250 0.961 . S
H252 C250 0.961 . S
H253 C250 0.960 . S
C254 N255 1.342 . S
C254 C258 1.401 1_554 S
C254 C259 1.499 . S
N255 Co238 1.989 . S
N255 C254 1.342 . S
N255 N256 1.388 1_554 S
N256 Co239 1.993 . S
N256 N255 1.388 1_556 S
N256 C257 1.346 . S
C257 N256 1.346 . S
C257 C258 1.396 . S
C257 C267 1.510 . S
C258 C254 1.401 1_556 S
C258 C257 1.396 . S
C259 C254 1.499 . S
C259 H260 0.959 . S
C259 H261 0.960 . S
C259 H262 0.961 . S
H260 C259 0.959 . S
H261 C259 0.960 . S
H262 C259 0.961 . S
O263 Co238 1.967 . S
O263 C271 1.258 1_565 S
O264 Co239 1.941 1_545 S
O264 C271 1.266 1_556 S
H265 C267 0.959 . S
H266 C267 0.961 . S
C267 C257 1.510 . S
C267 H265 0.959 . S
C267 H266 0.961 . S
C267 H268 0.960 . S
H268 C267 0.960 . S
H269 N249 0.862 . S
O270 Co238 1.920 . S
O270 C243 1.289 . S
C271 O263 1.258 1_545 S
C271 O264 1.266 1_554 S
C190 C20 2.271 . S
C224 C54 2.271 . S
C88 C258 2.272 . S
C156 C122 2.272 . S
C9 C5 2.905 . S
C39 C43 2.905 . S
C77 C73 2.905 . S
C111 C107 2.905 . S
C145 C141 2.905 . S
C179 C175 2.905 . S
C213 C209 2.905 . S
C243 C247 2.905 . S
C33 C237 2.946 1_654 S
C271 C67 2.947 1_545 S
C169 C101 2.947 1_655 S
C135 C203 2.947 1_545 S
C2 C138 1.909 . S
C36 C172 1.909 . S
C70 C206 1.909 . S
C240 C104 1.909 1_554 S
