# Generated by pormake.
# Topology uoc, (4)-cn, num edge types: 1
# Building blocks:
#     Node 0, Type 0, BuildingBlock: KUFVIS_clean_sbu_0, # of connection points: 4
#     Node 1, Type 0, BuildingBlock: KUFVIS_clean_sbu_0, # of connection points: 4
#     Node 2, Type 0, BuildingBlock: KUFVIS_clean_sbu_0, # of connection points: 4
#     Node 3, Type 0, BuildingBlock: KUFVIS_clean_sbu_0, # of connection points: 4
#     Node 4, Type 0, BuildingBlock: KUFVIS_clean_sbu_0, # of connection points: 4
#     Node 5, Type 0, BuildingBlock: KUFVIS_clean_sbu_0, # of connection points: 4
#     Node 6, Type 0, BuildingBlock: KUFVIS_clean_sbu_0, # of connection points: 4
#     Node 7, Type 0, BuildingBlock: KUFVIS_clean_sbu_0, # of connection points: 4
#     Edge 8, Type (0, 0), BuildingBlock: UVAHIK_clean_linker_0, # of connection points: 2
#     Edge 9, Type (0, 0), BuildingBlock: UVAHIK_clean_linker_0, # of connection points: 2
#     Edge 10, Type (0, 0), BuildingBlock: UVAHIK_clean_linker_0, # of connection points: 2
#     Edge 11, Type (0, 0), BuildingBlock: UVAHIK_clean_linker_0, # of connection points: 2
#     Edge 12, Type (0, 0), BuildingBlock: UVAHIK_clean_linker_0, # of connection points: 2
#     Edge 13, Type (0, 0), BuildingBlock: UVAHIK_clean_linker_0, # of connection points: 2
#     Edge 14, Type (0, 0), BuildingBlock: UVAHIK_clean_linker_0, # of connection points: 2
#     Edge 15, Type (0, 0), BuildingBlock: UVAHIK_clean_linker_0, # of connection points: 2
#     Edge 16, Type (0, 0), BuildingBlock: UVAHIK_clean_linker_0, # of connection points: 2
#     Edge 17, Type (0, 0), BuildingBlock: UVAHIK_clean_linker_0, # of connection points: 2
#     Edge 18, Type (0, 0), BuildingBlock: UVAHIK_clean_linker_0, # of connection points: 2
#     Edge 19, Type (0, 0), BuildingBlock: UVAHIK_clean_linker_0, # of connection points: 2
#     Edge 20, Type (0, 0), BuildingBlock: UVAHIK_clean_linker_0, # of connection points: 2
#     Edge 21, Type (0, 0), BuildingBlock: UVAHIK_clean_linker_0, # of connection points: 2
#     Edge 22, Type (0, 0), BuildingBlock: UVAHIK_clean_linker_0, # of connection points: 2
#     Edge 23, Type (0, 0), BuildingBlock: UVAHIK_clean_linker_0, # of connection points: 2
# Relax obj value: 0.118
# Max RMSD: 0.133
# Mean RMSD: 0.131
data_MOF--net-uoc--node1-KUFVIS_clean_sbu_0--edge1-UVAHIK_clean_linker_0
_symmetry_space_group_name_H-M    P1
_symmetry_Int_Tables_number       1
_symmetry_cell_setting            triclinic
loop_
_symmetry_equiv_pos_as_xyz
'x, y, z'
_cell_length_a     35.083466
_cell_length_b     35.09533
_cell_length_c     69.903752
_cell_angle_alpha  90.5032
_cell_angle_beta   90.460087
_cell_angle_gamma 90.018416
loop_
_atom_site_label
_atom_site_type_symbol
_atom_site_fract_x
_atom_site_fract_y
_atom_site_fract_z
_atom_type_partial_charge
Mn0 Mn 0.08784 0.23338 0.12219 0.0
Mn1 Mn 0.17168 0.19167 0.13299 0.0
C2 C 0.11278 0.2386 0.15268 0.0
C3 C 0.05513 0.28623 0.11069 0.0
C4 C 0.09732 0.14808 0.12748 0.0
O5 O 0.11084 0.22179 0.09618 0.0
O6 O 0.16979 0.20255 0.10515 0.0
C7 C 0.22399 0.25584 0.1252 0.0
N8 N 0.2103 0.22924 0.13744 0.0
C9 C 0.25284 0.2506 0.16251 0.0
C10 C 0.26786 0.27776 0.15005 0.0
C11 C 0.25323 0.2805 0.13135 0.0
C12 C 0.22388 0.22663 0.15554 0.0
H13 H 0.21244 0.25842 0.11093 0.0
C14 C 0.1451 0.21214 0.09244 0.0
O15 O 0.0396 0.25259 0.11038 0.0
O16 O 0.08976 0.28874 0.11716 0.0
N17 N 0.17703 0.18054 0.15966 0.0
C18 C 0.15738 0.15495 0.17033 0.0
C19 C 0.16722 0.15003 0.18966 0.0
C20 C 0.19724 0.17129 0.1978 0.0
C21 C 0.21719 0.19729 0.18653 0.0
C22 C 0.20629 0.20079 0.1673 0.0
H23 H 0.13429 0.13849 0.16417 0.0
O24 O 0.07669 0.24442 0.14975 0.0
O25 O 0.13275 0.23012 0.13774 0.0
O26 O 0.07567 0.17704 0.12569 0.0
O27 O 0.13357 0.1505 0.12924 0.0
C28 C 0.24694 0.22044 0.19371 0.0
C29 C 0.2647 0.24712 0.18172 0.0
H30 H 0.2902 0.29704 0.15479 0.0
H31 H 0.26434 0.30171 0.12172 0.0
H32 H 0.15162 0.12996 0.19828 0.0
H33 H 0.20451 0.16767 0.21277 0.0
H34 H 0.25591 0.21843 0.20853 0.0
H35 H 0.28701 0.26529 0.18752 0.0
Mn36 Mn 0.77446 0.62434 0.37784 0.0
Mn37 Mn 0.82338 0.70627 0.38482 0.0
C38 C 0.77678 0.65192 0.40766 0.0
C39 C 0.71873 0.59231 0.36929 0.0
C40 C 0.86137 0.62904 0.38135 0.0
O41 O 0.78155 0.64378 0.35101 0.0
O42 O 0.8119 0.69929 0.35702 0.0
C43 C 0.76287 0.76082 0.37383 0.0
N44 N 0.78838 0.74777 0.38701 0.0
C45 C 0.76981 0.79604 0.40975 0.0
C46 C 0.74352 0.81016 0.39637 0.0
C47 C 0.74001 0.79243 0.37834 0.0
C48 C 0.79205 0.76465 0.40439 0.0
H49 H 0.75994 0.74716 0.35999 0.0
C50 C 0.79658 0.67486 0.34555 0.0
O51 O 0.7518 0.57586 0.36807 0.0
O52 O 0.71825 0.62755 0.37504 0.0
N53 N 0.83597 0.71679 0.41103 0.0
C54 C 0.86101 0.69827 0.4227 0.0
C55 C 0.86685 0.71159 0.4415 0.0
C56 C 0.84713 0.74393 0.44805 0.0
C57 C 0.82186 0.76278 0.43571 0.0
C58 C 0.8174 0.74836 0.41708 0.0
H59 H 0.87613 0.67332 0.41776 0.0
O60 O 0.76886 0.61596 0.40569 0.0
O61 O 0.78271 0.67088 0.39205 0.0
O62 O 0.8308 0.60969 0.37935 0.0
O63 O 0.8618 0.66527 0.38324 0.0
C64 C 0.80026 0.79477 0.4413 0.0
C65 C 0.77425 0.81137 0.42834 0.0
H66 H 0.72564 0.83437 0.39984 0.0
H67 H 0.71963 0.80304 0.36797 0.0
H68 H 0.88637 0.69686 0.45094 0.0
H69 H 0.85141 0.75386 0.46263 0.0
H70 H 0.80302 0.80648 0.45564 0.0
H71 H 0.75742 0.83563 0.43289 0.0
Mn72 Mn 0.36888 0.22752 0.60319 0.0
Mn73 Mn 0.28427 0.18167 0.60245 0.0
C74 C 0.33633 0.22034 0.57486 0.0
C75 C 0.40381 0.28318 0.60776 0.0
C76 C 0.36034 0.14081 0.60411 0.0
O77 O 0.35454 0.22619 0.63102 0.0
O78 O 0.29693 0.19802 0.62921 0.0
C79 C 0.23478 0.24677 0.61291 0.0
N80 N 0.2441 0.21822 0.60048 0.0
C81 C 0.19264 0.23504 0.57922 0.0
C82 C 0.18231 0.26444 0.59186 0.0
C83 C 0.20351 0.27036 0.60877 0.0
C84 C 0.22387 0.21225 0.58419 0.0
H85 H 0.25112 0.25155 0.62587 0.0
C86 C 0.32419 0.21391 0.63867 0.0
O87 O 0.41954 0.24991 0.60975 0.0
O88 O 0.36781 0.28394 0.60343 0.0
N89 N 0.26816 0.16466 0.57759 0.0
C90 C 0.28312 0.13645 0.56643 0.0
C91 C 0.26599 0.12778 0.54869 0.0
C92 C 0.23352 0.14795 0.54269 0.0
C93 C 0.21835 0.17652 0.55453 0.0
C94 C 0.23648 0.18373 0.57211 0.0
H95 H 0.30816 0.12096 0.57093 0.0
O96 O 0.37263 0.2274 0.57498 0.0
O97 O 0.31973 0.21865 0.59144 0.0
O98 O 0.38114 0.17062 0.60375 0.0
O99 O 0.32391 0.14176 0.60396 0.0
C100 C 0.18647 0.19869 0.54938 0.0
C101 C 0.17363 0.22794 0.56171 0.0
H102 H 0.15837 0.28287 0.58866 0.0
H103 H 0.19584 0.29312 0.61854 0.0
H104 H 0.27788 0.10571 0.53963 0.0
H105 H 0.22061 0.14143 0.52892 0.0
H106 H 0.17192 0.19383 0.53585 0.0
H107 H 0.14939 0.24511 0.55749 0.0
Mn108 Mn 0.77063 0.90351 0.85899 0.0
Mn109 Mn 0.81635 0.821 0.84952 0.0
C110 C 0.76617 0.87595 0.8291 0.0
C111 C 0.71635 0.93472 0.86989 0.0
C112 C 0.85634 0.89764 0.85255 0.0
O113 O 0.78269 0.88304 0.88537 0.0
O114 O 0.80816 0.82603 0.87752 0.0
C115 C 0.75665 0.76623 0.86091 0.0
N116 N 0.78046 0.78017 0.84736 0.0
C117 C 0.75799 0.73422 0.82412 0.0
C118 C 0.7334 0.71924 0.83787 0.0
C119 C 0.7327 0.73536 0.85633 0.0
C120 C 0.7814 0.76484 0.82955 0.0
H121 H 0.75589 0.77864 0.87509 0.0
C122 C 0.79602 0.85043 0.88981 0.0
O123 O 0.74926 0.95176 0.86985 0.0
O124 O 0.71541 0.89959 0.86406 0.0
N125 N 0.82512 0.81268 0.8228 0.0
C126 C 0.84875 0.83191 0.81089 0.0
C127 C 0.85181 0.82015 0.79171 0.0
C128 C 0.83069 0.78869 0.78499 0.0
C129 C 0.80678 0.76918 0.79755 0.0
C130 C 0.80513 0.782 0.81656 0.0
H131 H 0.86498 0.85617 0.81594 0.0
O132 O 0.7592 0.91202 0.83131 0.0
O133 O 0.7756 0.85743 0.84438 0.0
O134 O 0.82659 0.9179 0.85516 0.0
O135 O 0.85554 0.86135 0.85095 0.0
C136 C 0.78393 0.738 0.79185 0.0
C137 C 0.75955 0.72054 0.80513 0.0
H138 H 0.71467 0.6956 0.83435 0.0
H139 H 0.71365 0.72408 0.86699 0.0
H140 H 0.87028 0.8354 0.78209 0.0
H141 H 0.83282 0.77996 0.77014 0.0
H142 H 0.78446 0.72758 0.77722 0.0
H143 H 0.74171 0.69695 0.8005 0.0
Mn144 Mn 0.58981 0.72798 0.62501 0.0
Mn145 Mn 0.67322 0.68357 0.6337 0.0
C146 C 0.61311 0.72406 0.65585 0.0
C147 C 0.55718 0.78316 0.61673 0.0
C148 C 0.59937 0.64207 0.62398 0.0
O149 O 0.61428 0.72415 0.59881 0.0
O150 O 0.67285 0.70256 0.60701 0.0
C151 C 0.7262 0.74905 0.63143 0.0
N152 N 0.71167 0.71928 0.64138 0.0
C153 C 0.75356 0.7322 0.66808 0.0
C154 C 0.76942 0.76261 0.65798 0.0
C155 C 0.75552 0.77119 0.63961 0.0
C156 C 0.7245 0.71106 0.65915 0.0
H157 H 0.7153 0.75599 0.61742 0.0
C158 C 0.64876 0.71578 0.59488 0.0
O159 O 0.54214 0.74971 0.61394 0.0
O160 O 0.59127 0.78437 0.62403 0.0
N161 N 0.67707 0.6647 0.65927 0.0
C162 C 0.65653 0.63659 0.66771 0.0
C163 C 0.66533 0.62598 0.68656 0.0
C164 C 0.69528 0.64417 0.69648 0.0
C165 C 0.71614 0.67288 0.68747 0.0
C166 C 0.70615 0.68217 0.66864 0.0
H167 H 0.63351 0.62246 0.66017 0.0
O168 O 0.57716 0.73072 0.65288 0.0
O169 O 0.63396 0.72032 0.64074 0.0
O170 O 0.57778 0.67126 0.62413 0.0
O171 O 0.63548 0.64388 0.62642 0.0
C172 C 0.74603 0.69307 0.69653 0.0
C173 C 0.76478 0.72266 0.68683 0.0
H174 H 0.79188 0.7799 0.6643 0.0
H175 H 0.76729 0.7949 0.63182 0.0
H176 H 0.64904 0.60386 0.69343 0.0
H177 H 0.70183 0.63607 0.71106 0.0
H178 H 0.75441 0.68651 0.71108 0.0
H179 H 0.78727 0.73842 0.69407 0.0
Mn180 Mn 0.26967 0.12098 0.87103 0.0
Mn181 Mn 0.31565 0.203 0.88178 0.0
C182 C 0.26666 0.14526 0.90149 0.0
C183 C 0.21556 0.09032 0.85913 0.0
C184 C 0.35556 0.12657 0.87781 0.0
O185 O 0.28207 0.14266 0.8452 0.0
O186 O 0.30737 0.19956 0.85352 0.0
C187 C 0.25515 0.25765 0.87097 0.0
N188 N 0.27961 0.24349 0.88435 0.0
C189 C 0.25772 0.28843 0.90802 0.0
C190 C 0.23251 0.30372 0.89444 0.0
C191 C 0.23118 0.28821 0.87585 0.0
C192 C 0.28112 0.25818 0.90228 0.0
H193 H 0.25388 0.24565 0.8567 0.0
C194 C 0.29594 0.17505 0.84103 0.0
O195 O 0.24862 0.0736 0.85904 0.0
O196 O 0.21432 0.12497 0.86567 0.0
N197 N 0.32527 0.21033 0.90856 0.0
C198 C 0.34956 0.1909 0.92024 0.0
C199 C 0.35327 0.20197 0.93952 0.0
C200 C 0.33224 0.23307 0.94655 0.0
C201 C 0.30782 0.25295 0.93419 0.0
C202 C 0.3055 0.24077 0.91508 0.0
H203 H 0.36574 0.16692 0.91495 0.0
O204 O 0.25887 0.10967 0.89816 0.0
O205 O 0.27505 0.16598 0.88674 0.0
O206 O 0.32566 0.10653 0.87489 0.0
O207 O 0.35496 0.16279 0.87994 0.0
C208 C 0.28503 0.28379 0.94018 0.0
C209 C 0.25998 0.3015 0.92712 0.0
H210 H 0.21379 0.32712 0.89819 0.0
H211 H 0.21164 0.29971 0.86533 0.0
H212 H 0.37215 0.18647 0.94898 0.0
H213 H 0.33484 0.24125 0.96148 0.0
H214 H 0.28612 0.29375 0.95489 0.0
H215 H 0.2422 0.32484 0.93197 0.0
Mn216 Mn 0.87259 0.73188 0.10906 0.0
Mn217 Mn 0.78763 0.68779 0.10354 0.0
C218 C 0.84359 0.73018 0.07961 0.0
C219 C 0.9069 0.78651 0.11724 0.0
C220 C 0.86277 0.64532 0.10575 0.0
O221 O 0.85445 0.72601 0.13616 0.0
O222 O 0.79691 0.699 0.13123 0.0
C223 C 0.73817 0.75216 0.11513 0.0
N224 N 0.74868 0.72571 0.10181 0.0
C225 C 0.70177 0.74861 0.0794 0.0
C226 C 0.69025 0.77591 0.09293 0.0
C227 C 0.70857 0.77771 0.11086 0.0
C228 C 0.73127 0.72375 0.08451 0.0
H229 H 0.75235 0.75383 0.12888 0.0
C230 C 0.82297 0.71291 0.14221 0.0
O231 O 0.92247 0.75296 0.11819 0.0
O232 O 0.87154 0.78804 0.1118 0.0
N233 N 0.77468 0.67555 0.07755 0.0
C234 C 0.78987 0.64823 0.06592 0.0
C235 C 0.77517 0.64318 0.04732 0.0
C236 C 0.74487 0.66604 0.04093 0.0
C237 C 0.72926 0.69349 0.05327 0.0
C238 C 0.74483 0.69698 0.07171 0.0
H239 H 0.81325 0.63066 0.07072 0.0
O240 O 0.87989 0.73675 0.0811 0.0
O241 O 0.8251 0.72571 0.0955 0.0
O242 O 0.88412 0.6747 0.1074 0.0
O243 O 0.82641 0.64704 0.10458 0.0
C244 C 0.69924 0.71793 0.0479 0.0
C245 C 0.68554 0.74549 0.06094 0.0
H246 H 0.66757 0.79581 0.08966 0.0
H247 H 0.69998 0.79883 0.12134 0.0
H248 H 0.78733 0.62188 0.0379 0.0
H249 H 0.7339 0.66236 0.0265 0.0
H250 H 0.68675 0.71601 0.0337 0.0
H251 H 0.66271 0.76437 0.05658 0.0
Mn252 Mn 0.27422 0.40115 0.35799 0.0
Mn253 Mn 0.32013 0.31986 0.34678 0.0
C254 C 0.27565 0.38002 0.32671 0.0
C255 C 0.21868 0.43114 0.36803 0.0
C256 C 0.36035 0.39441 0.35667 0.0
O257 O 0.28138 0.37509 0.3836 0.0
O258 O 0.30349 0.31762 0.37391 0.0
C259 C 0.25636 0.26489 0.34943 0.0
N260 N 0.28481 0.281 0.33913 0.0
C261 C 0.26971 0.24172 0.3117 0.0
C262 C 0.24076 0.22419 0.32216 0.0
C263 C 0.23393 0.23597 0.34108 0.0
C264 C 0.29135 0.27018 0.32083 0.0
H265 H 0.25057 0.27432 0.36383 0.0
C266 C 0.29079 0.34055 0.38675 0.0
O267 O 0.25175 0.4473 0.37036 0.0
O268 O 0.21816 0.39745 0.36029 0.0
N269 N 0.33663 0.31865 0.32072 0.0
C270 C 0.36325 0.34074 0.31205 0.0
C271 C 0.37188 0.33419 0.29272 0.0
C272 C 0.35318 0.30494 0.28251 0.0
C273 C 0.32599 0.28249 0.29174 0.0
C274 C 0.31875 0.29016 0.31107 0.0
H275 H 0.37769 0.36332 0.31977 0.0
O276 O 0.26827 0.41553 0.33047 0.0
O277 O 0.28165 0.35839 0.34134 0.0
O278 O 0.33054 0.41507 0.3576 0.0
O279 O 0.35934 0.35835 0.35385 0.0
C280 C 0.30525 0.2533 0.28241 0.0
C281 C 0.27718 0.23288 0.29239 0.0
H282 H 0.22316 0.20212 0.31571 0.0
H283 H 0.21127 0.22296 0.34916 0.0
H284 H 0.39282 0.35172 0.28568 0.0
H285 H 0.35969 0.30019 0.26756 0.0
H286 H 0.31019 0.24676 0.26746 0.0
H287 H 0.26095 0.21097 0.28497 0.0
C288 C 0.19512 0.2237 0.06817 0.0
C289 C 0.15763 0.213 0.07242 0.0
C290 C 0.20762 0.22395 0.04932 0.0
C291 C 0.23603 0.1981 0.01115 0.0
H292 H 0.16691 0.21093 0.96821 0.0
C293 C 0.27311 0.14219 0.93664 0.0
C294 C 0.25912 0.16105 0.92051 0.0
C295 C 0.26254 0.15416 0.95489 0.0
C296 C 0.1869 0.208 0.97998 0.0
H297 H 0.10364 0.19433 0.06043 0.0
H298 H 0.12606 0.19207 0.02753 0.0
H299 H 0.14462 0.22375 0.00038 0.0
H300 H 0.22134 0.2053 0.91037 0.0
H301 H 0.20441 0.22804 0.94233 0.0
H302 H 0.27881 0.18423 0.99075 0.0
C303 C 0.14552 0.20193 0.0386 0.0
C304 C 0.17384 0.21464 -0.00147 0.0
C305 C 0.13267 0.20284 0.05747 0.0
C306 C 0.23371 0.1915 0.92275 0.0
C307 C 0.2235 0.20394 0.94103 0.0
C308 C 0.24931 0.19241 -0.00738 0.0
C309 C 0.18332 0.21221 0.03428 0.0
C310 C 0.19797 0.20883 0.01441 0.0
C311 C 0.23754 0.18518 0.95735 0.0
C312 C 0.22464 0.19614 0.97682 0.0
H313 H 0.21483 0.23214 0.07941 0.0
H314 H 0.23651 0.23316 0.04661 0.0
H315 H 0.25552 0.19279 0.02291 0.0
H316 H 0.29179 0.11779 0.93511 0.0
H317 H 0.27303 0.13817 0.96701 0.0
C318 C 0.81854 0.71281 0.31749 0.0
C319 C 0.79634 0.68304 0.32484 0.0
C320 C 0.81923 0.71956 0.29784 0.0
C321 C 0.83524 0.70675 0.25552 0.0
H322 H 0.74276 0.70686 0.22473 0.0
C323 C 0.78824 0.69086 0.1713 0.0
C324 C 0.81656 0.71363 0.16307 0.0
C325 C 0.78385 0.69012 0.19114 0.0
C326 C 0.76886 0.70653 0.2331 0.0
H327 H 0.75659 0.63774 0.31732 0.0
H328 H 0.75785 0.64967 0.28307 0.0
H329 H 0.73864 0.70007 0.2594 0.0
H330 H 0.86129 0.75488 0.16915 0.0
H331 H 0.85302 0.75427 0.20361 0.0
H332 H 0.86565 0.71204 0.22936 0.0
C333 C 0.77464 0.66775 0.29254 0.0
C334 C 0.76646 0.70278 0.25293 0.0
C335 C 0.77419 0.66077 0.31215 0.0
C336 C 0.83955 0.73657 0.17504 0.0
C337 C 0.83493 0.73611 0.19482 0.0
C338 C 0.83767 0.71019 0.23571 0.0
C339 C 0.79745 0.69694 0.28519 0.0
C340 C 0.79966 0.70269 0.2643 0.0
C341 C 0.80747 0.71243 0.20314 0.0
C342 C 0.80453 0.70998 0.22426 0.0
H343 H 0.83587 0.73057 0.32686 0.0
H344 H 0.83683 0.74246 0.29253 0.0
H345 H 0.86131 0.70617 0.26393 0.0
H346 H 0.77011 0.67281 0.16246 0.0
H347 H 0.7627 0.67123 0.19709 0.0
C348 C 0.28527 0.24804 0.55446 0.0
C349 C 0.31561 0.22247 0.55665 0.0
C350 C 0.27006 0.25518 0.53632 0.0
C351 C 0.27974 0.22705 0.48447 0.0
H352 H 0.25642 0.33372 0.47686 0.0
C353 C 0.2922 0.34862 0.42223 0.0
C354 C 0.28518 0.3256 0.40611 0.0
C355 C 0.28731 0.33407 0.44058 0.0
C356 C 0.26337 0.30392 0.47864 0.0
H357 H 0.35467 0.18498 0.54193 0.0
H358 H 0.33014 0.19885 0.51025 0.0
H359 H 0.26316 0.3098 0.50897 0.0
H360 H 0.26594 0.27001 0.39639 0.0
H361 H 0.25466 0.24551 0.42814 0.0
H362 H 0.28415 0.222 0.45424 0.0
C363 C 0.3161 0.21186 0.52239 0.0
C364 C 0.26632 0.28985 0.4972 0.0
C365 C 0.33057 0.2041 0.54054 0.0
C366 C 0.27204 0.28824 0.40859 0.0
C367 C 0.26585 0.2741 0.42689 0.0
C368 C 0.27802 0.24137 0.46594 0.0
C369 C 0.28623 0.23827 0.51994 0.0
C370 C 0.27581 0.25145 0.50039 0.0
C371 C 0.27403 0.29654 0.44319 0.0
C372 C 0.27094 0.2803 0.46276 0.0
H373 H 0.27436 0.26366 0.56667 0.0
H374 H 0.24666 0.27513 0.53514 0.0
H375 H 0.28583 0.19705 0.48627 0.0
H376 H 0.30252 0.37752 0.42066 0.0
H377 H 0.29493 0.35211 0.45264 0.0
C378 C 0.76396 0.86721 0.79377 0.0
C379 C 0.7523 0.85613 0.81198 0.0
C380 C 0.74989 0.8481 0.77761 0.0
C381 C 0.6692 0.78973 0.76083 0.0
H382 H 0.73703 0.76606 0.71892 0.0
C383 C 0.61732 0.71523 0.69118 0.0
C384 C 0.63019 0.73274 0.6745 0.0
C385 C 0.63352 0.72512 0.70889 0.0
C386 C 0.7178 0.7723 0.73054 0.0
H387 H 0.71494 0.81915 0.82789 0.0
H388 H 0.69065 0.78529 0.7997 0.0
H389 H 0.76293 0.79385 0.74831 0.0
H390 H 0.66748 0.77585 0.663 0.0
H391 H 0.69573 0.79321 0.69376 0.0
H392 H 0.624 0.76866 0.74293 0.0
C393 C 0.71092 0.8082 0.7978 0.0
C394 C 0.73257 0.78846 0.74729 0.0
C395 C 0.72508 0.82721 0.81389 0.0
C396 C 0.65821 0.76108 0.6757 0.0
C397 C 0.67436 0.77094 0.69327 0.0
C398 C 0.65446 0.77333 0.7441 0.0
C399 C 0.72341 0.81824 0.7795 0.0
C400 C 0.70827 0.79817 0.76241 0.0
C401 C 0.66231 0.753 0.71003 0.0
C402 C 0.67851 0.7653 0.72864 0.0
H403 H 0.78428 0.89017 0.7921 0.0
H404 H 0.75936 0.85698 0.76363 0.0
H405 H 0.64975 0.79717 0.77222 0.0
H406 H 0.59515 0.69376 0.69047 0.0
H407 H 0.62366 0.71099 0.72164 0.0
C408 C 0.23676 0.33552 0.30741 0.0
C409 C 0.26484 0.36387 0.30812 0.0
C410 C 0.2243 0.32081 0.28993 0.0
C411 C 0.21357 0.34603 0.23992 0.0
H412 H 0.19374 0.23792 0.23324 0.0
C413 C 0.15842 0.28134 0.16905 0.0
C414 C 0.13089 0.25258 0.17025 0.0
C415 C 0.17657 0.29496 0.1855 0.0
C416 C 0.1988 0.26821 0.23499 0.0
H417 H 0.30079 0.40079 0.29146 0.0
H418 H 0.279 0.37484 0.26046 0.0
H419 H 0.22491 0.2609 0.26243 0.0
H420 H 0.09817 0.21728 0.18926 0.0
H421 H 0.13001 0.24115 0.21839 0.0
H422 H 0.1866 0.35351 0.21269 0.0
C423 C 0.26707 0.36362 0.27349 0.0
C424 C 0.21687 0.28131 0.25161 0.0
C425 C 0.27958 0.37835 0.29111 0.0
C426 C 0.12006 0.23891 0.18814 0.0
C427 C 0.13838 0.25241 0.20468 0.0
C428 C 0.19538 0.33295 0.22332 0.0
C429 C 0.23927 0.3347 0.27279 0.0
C430 C 0.22395 0.3204 0.25435 0.0
C431 C 0.16712 0.28027 0.20346 0.0
C432 C 0.18738 0.29397 0.22081 0.0
H433 H 0.22408 0.32501 0.32043 0.0
H434 H 0.20221 0.29924 0.28982 0.0
H435 H 0.21817 0.37637 0.24178 0.0
H436 H 0.16631 0.29292 0.15532 0.0
H437 H 0.19868 0.31627 0.18409 0.0
C438 C 0.63854 0.71285 0.55957 0.0
C439 C 0.66208 0.72174 0.57527 0.0
C440 C 0.65265 0.7153 0.541 0.0
C441 C 0.68365 0.73164 0.50194 0.0
H442 H 0.7895 0.70258 0.496 0.0
C443 C 0.74526 0.70153 0.42744 0.0
C444 C 0.77015 0.67043 0.42616 0.0
C445 C 0.73563 0.71673 0.44526 0.0
C446 C 0.75981 0.7105 0.49737 0.0
H447 H 0.71767 0.74272 0.58401 0.0
H448 H 0.74148 0.74954 0.55173 0.0
H449 H 0.7641 0.71169 0.52773 0.0
H450 H 0.80288 0.62918 0.44212 0.0
H451 H 0.78491 0.65425 0.47332 0.0
H452 H 0.67854 0.72678 0.4716 0.0
C453 C 0.71286 0.73874 0.55358 0.0
C454 C 0.74529 0.71649 0.51564 0.0
C455 C 0.69914 0.73514 0.57212 0.0
C456 C 0.78449 0.65394 0.44287 0.0
C457 C 0.77442 0.66864 0.4607 0.0
C458 C 0.69794 0.72468 0.48366 0.0
C459 C 0.69025 0.72773 0.53776 0.0
C460 C 0.70674 0.72623 0.51822 0.0
C461 C 0.7496 0.70007 0.46215 0.0
C462 C 0.73595 0.71299 0.4812 0.0
H463 H 0.60986 0.70233 0.56169 0.0
H464 H 0.63447 0.7059 0.5293 0.0
H465 H 0.65413 0.74015 0.50326 0.0
H466 H 0.73266 0.71361 0.41466 0.0
H467 H 0.71676 0.74111 0.44576 0.0
C468 C 0.35332 0.22627 0.67088 0.0
C469 C 0.32095 0.21739 0.6597 0.0
C470 C 0.35115 0.22734 0.69078 0.0
C471 C 0.28646 0.23587 0.73143 0.0
H472 H 0.36067 0.17248 0.75755 0.0
C473 C 0.30104 0.22217 0.81436 0.0
C474 C 0.29959 0.18419 0.82056 0.0
C475 C 0.30421 0.23023 0.79486 0.0
C476 C 0.33997 0.19047 0.75043 0.0
H477 H 0.26052 0.20434 0.66065 0.0
H478 H 0.25681 0.2064 0.69557 0.0
H479 H 0.36457 0.18047 0.72296 0.0
H480 H 0.30083 0.12498 0.81132 0.0
H481 H 0.30717 0.13916 0.77746 0.0
H482 H 0.26166 0.24539 0.75904 0.0
C483 C 0.2838 0.21245 0.68881 0.0
C484 C 0.34229 0.1952 0.7307 0.0
C485 C 0.28602 0.21097 0.66886 0.0
C486 C 0.30169 0.15453 0.80698 0.0
C487 C 0.30554 0.16258 0.78763 0.0
C488 C 0.28448 0.23158 0.75127 0.0
C489 C 0.31652 0.21996 0.69992 0.0
C490 C 0.31524 0.21747 0.72099 0.0
C491 C 0.30678 0.20043 0.7814 0.0
C492 C 0.31084 0.20828 0.76083 0.0
H493 H 0.38067 0.2315 0.66432 0.0
H494 H 0.37671 0.23347 0.69905 0.0
H495 H 0.26541 0.25333 0.72423 0.0
H496 H 0.29933 0.24558 0.82452 0.0
H497 H 0.3052 0.25964 0.79032 0.0
C498 C 0.83816 0.71774 0.04485 0.0
C499 C 0.82473 0.73646 0.06121 0.0
C500 C 0.82454 0.7279 0.02683 0.0
C501 C 0.78149 0.74736 0.99041 0.0
H502 H 0.79531 0.85525 0.98098 0.0
C503 C 0.81163 0.80424 0.91572 0.0
C504 C 0.79502 0.83884 0.91008 0.0
C505 C 0.8083 0.79167 0.93448 0.0
C506 C 0.79053 0.82519 0.9834 0.0
H507 H 0.78776 0.781 0.07193 0.0
H508 H 0.76378 0.79905 0.04025 0.0
H509 H 0.79867 0.83164 0.0136 0.0
H510 H 0.76205 0.88754 0.91985 0.0
H511 H 0.75618 0.8654 0.95265 0.0
H512 H 0.77438 0.74074 0.96015 0.0
C513 C 0.78412 0.77595 0.04138 0.0
C514 C 0.79238 0.81168 0.00209 0.0
C515 C 0.79751 0.76548 0.05943 0.0
C516 C 0.77544 0.86087 0.92373 0.0
C517 C 0.77201 0.8482 0.94253 0.0
C518 C 0.77946 0.76089 0.97172 0.0
C519 C 0.79809 0.75773 0.0249 0.0
C520 C 0.78903 0.77251 0.00569 0.0
C521 C 0.78815 0.8133 0.94804 0.0
C522 C 0.78517 0.79977 0.96798 0.0
H523 H 0.85985 0.69589 0.046 0.0
H524 H 0.83632 0.71387 0.01434 0.0
H525 H 0.77834 0.71709 -0.00713 0.0
H526 H 0.82704 0.78658 0.90562 0.0
H527 H 0.82185 0.7651 0.93839 0.0
C528 C 0.10218 0.07687 0.13016 0.0
C529 C 0.07959 0.1097 0.12792 0.0
C530 C 0.0854 0.04077 0.13081 0.0
C531 C 0.99371 0.99277 0.14 0.0
H532 H 0.03747 0.90918 0.11093 0.0
C533 C 0.90954 0.85712 0.12122 0.0
C534 C 0.92844 0.82184 0.12144 0.0
C535 C 0.92971 0.89097 0.12405 0.0
C536 C 0.02525 0.93205 0.11939 0.0
H537 H 0.02149 0.13005 0.12456 0.0
H538 H 0.99241 0.06718 0.12553 0.0
H539 H 0.06948 0.97095 0.11168 0.0
H540 H 0.98325 0.79429 0.12519 0.0
H541 H 0.01868 0.85373 0.13023 0.0
H542 H 0.94921 0.95411 0.14748 0.0
C543 C 0.02308 0.06943 0.12703 0.0
C544 C 0.04355 0.96746 0.11979 0.0
C545 C 0.03982 0.10549 0.12634 0.0
C546 C 0.96793 0.82107 0.12493 0.0
C547 C 0.98821 0.85508 0.1277 0.0
C548 C 0.97546 0.95742 0.13961 0.0
C549 C 0.04565 0.03666 0.1293 0.0
C550 C 0.02764 0.99838 0.12985 0.0
C551 C 0.96932 0.89041 0.12716 0.0
C552 C 0.99067 0.92682 0.12904 0.0
H553 H 0.13289 0.07897 0.13151 0.0
H554 H 0.10353 0.01611 0.13274 0.0
H555 H 0.98114 0.01581 0.14821 0.0
H556 H 0.87912 0.85873 0.11856 0.0
H557 H 0.91435 0.91768 0.12327 0.0
C558 C 0.18244 0.4896 0.37792 0.0
C559 C 0.18274 0.45079 0.37281 0.0
C560 C 0.14786 0.50878 0.3805 0.0
C561 C 0.04703 0.50218 0.36575 0.0
H562 H 0.03076 0.57843 0.40531 0.0
C563 C 0.89964 0.56889 0.37854 0.0
C564 C 0.8983 0.60852 0.38158 0.0
C565 C 0.93447 0.54965 0.37849 0.0
C566 C 0.03503 0.55743 0.39409 0.0
H567 H 0.14721 0.4012 0.36733 0.0
H568 H 0.08718 0.43438 0.37212 0.0
H569 H 0.09162 0.54465 0.40387 0.0
H570 H 0.93277 0.65886 0.38727 0.0
H571 H 0.99349 0.62525 0.38698 0.0
H572 H 0.99069 0.51495 0.35588 0.0
C573 C 0.1135 0.45028 0.37371 0.0
C574 C 0.06986 0.5381 0.39327 0.0
C575 C 0.14795 0.43121 0.37109 0.0
C576 C 0.93267 0.62835 0.38481 0.0
C577 C 0.96751 0.60906 0.3848 0.0
C578 C 0.0123 0.52141 0.36658 0.0
C579 C 0.113 0.48945 0.37804 0.0
C580 C 0.07617 0.51015 0.37912 0.0
C581 C 0.9688 0.56955 0.3815 0.0
C582 C 0.00584 0.54918 0.38077 0.0
H583 H 0.20883 0.50544 0.37933 0.0
H584 H 0.14842 0.53901 0.38373 0.0
H585 H 0.05125 0.48142 0.35441 0.0
H586 H 0.87379 0.55262 0.37609 0.0
H587 H 0.93449 0.51909 0.37617 0.0
C588 C 0.40772 0.35411 0.6073 0.0
C589 C 0.42592 0.31882 0.60971 0.0
C590 C 0.42852 0.38793 0.60832 0.0
C591 C 0.51799 0.4297 0.62662 0.0
H592 H 0.49451 0.50903 0.59007 0.0
C593 C 0.60334 0.57062 0.62302 0.0
C594 C 0.58158 0.6041 0.62123 0.0
C595 C 0.58624 0.53484 0.62088 0.0
C596 C 0.50121 0.48726 0.60046 0.0
H597 H 0.48015 0.29126 0.61529 0.0
H598 H 0.51666 0.35057 0.61699 0.0
H599 H 0.46126 0.44817 0.58794 0.0
H600 H 0.52473 0.62603 0.61563 0.0
H601 H 0.49503 0.56376 0.61203 0.0
H602 H 0.55775 0.46904 0.63923 0.0
C603 C 0.4862 0.352 0.61445 0.0
C604 C 0.48215 0.45241 0.59925 0.0
C605 C 0.46533 0.31806 0.61342 0.0
C606 C 0.54241 0.60092 0.61709 0.0
C607 C 0.52539 0.56519 0.61489 0.0
C608 C 0.5371 0.46461 0.62782 0.0
C609 C 0.46803 0.38728 0.61175 0.0
C610 C 0.48995 0.42343 0.61247 0.0
C611 C 0.54707 0.53177 0.61682 0.0
C612 C 0.52854 0.49392 0.6149 0.0
H613 H 0.37735 0.35568 0.60451 0.0
H614 H 0.41356 0.41468 0.60654 0.0
H615 H 0.52437 0.40805 0.63712 0.0
H616 H 0.63357 0.57196 0.62622 0.0
H617 H 0.60374 0.50958 0.62228 0.0
C618 C 0.67987 0.99446 0.87747 0.0
C619 C 0.68071 0.95472 0.8749 0.0
C620 C 0.64508 0.01343 0.87983 0.0
C621 C 0.54381 0.00115 0.86761 0.0
H622 H 0.52731 0.08551 0.90274 0.0
C623 C 0.39523 0.06705 0.87758 0.0
C624 C 0.39296 0.10698 0.87886 0.0
C625 C 0.43053 0.04869 0.87834 0.0
C626 C 0.53161 0.06222 0.89273 0.0
H627 H 0.6461 0.90346 0.87392 0.0
H628 H 0.58579 0.93637 0.87823 0.0
H629 H 0.5891 0.05325 0.90236 0.0
H630 H 0.42627 0.15886 0.88219 0.0
H631 H 0.48774 0.12682 0.88318 0.0
H632 H 0.48678 0.01021 0.85775 0.0
C633 C 0.61179 0.95303 0.87802 0.0
C634 C 0.56696 0.04376 0.89254 0.0
C635 C 0.6464 0.93417 0.87566 0.0
C636 C 0.42686 0.12805 0.88114 0.0
C637 C 0.46217 0.10968 0.88185 0.0
C638 C 0.50862 0.01961 0.86776 0.0
C639 C 0.61061 0.99292 0.87964 0.0
C640 C 0.57333 0.01289 0.88003 0.0
C641 C 0.46443 0.0698 0.88034 0.0
C642 C 0.50201 0.05027 0.88036 0.0
H643 H 0.70588 0.01104 0.87694 0.0
H644 H 0.64505 0.04422 0.88099 0.0
H645 H 0.54808 0.978 0.85751 0.0
H646 H 0.36976 0.04984 0.87597 0.0
H647 H 0.43121 0.01788 0.87745 0.0
C648 C 0.92083 0.60346 0.10523 0.0
C649 C 0.88094 0.60722 0.10456 0.0
C650 C 0.93786 0.5676 0.10358 0.0
C651 C 0.91868 0.46525 0.10956 0.0
H652 H 0.01065 0.45324 0.0797 0.0
C653 C 0.99426 0.31973 0.10207 0.0
C654 C 0.0338 0.32088 0.10534 0.0
C655 C 0.97378 0.35348 0.09926 0.0
C656 C 0.98505 0.45617 0.08814 0.0
H657 H 0.82773 0.57591 0.1016 0.0
H658 H 0.85753 0.51355 0.09871 0.0
H659 H 0.97847 0.51482 0.08067 0.0
H660 H 0.08314 0.35804 0.10741 0.0
H661 H 0.04759 0.41659 0.10262 0.0
H662 H 0.92567 0.40681 0.11734 0.0
C663 C 0.87558 0.53834 0.10067 0.0
C664 C 0.96668 0.49146 0.08874 0.0
C665 C 0.85853 0.57418 0.10228 0.0
C666 C 0.05267 0.35617 0.10495 0.0
C667 C 0.0323 0.38978 0.10208 0.0
C668 C 0.93708 0.42995 0.10897 0.0
C669 C 0.91544 0.53465 0.10125 0.0
C670 C 0.93363 0.49656 0.09969 0.0
C671 C 0.99254 0.38893 0.09956 0.0
C672 C 0.97081 0.42518 0.0985 0.0
H673 H 0.93902 0.6282 0.10698 0.0
H674 H 0.96864 0.56565 0.10438 0.0
H675 H 0.89348 0.46835 0.11828 0.0
H676 H 0.97896 0.29293 0.10228 0.0
H677 H 0.9432 0.35189 0.09714 0.0
C678 C 0.4319 0.39249 0.35552 0.0
C679 C 0.39807 0.41339 0.35808 0.0
C680 C 0.4673 0.41081 0.35587 0.0
C681 C 0.51106 0.50544 0.34951 0.0
H682 H 0.59764 0.46101 0.37594 0.0
C683 C 0.6477 0.59017 0.36692 0.0
C684 C 0.68292 0.5714 0.36538 0.0
C685 C 0.61363 0.57005 0.36462 0.0
C686 C 0.57388 0.47352 0.36825 0.0
H687 H 0.3752 0.46996 0.36344 0.0
H688 H 0.43684 0.50165 0.36426 0.0
H689 H 0.53679 0.42731 0.37525 0.0
H690 H 0.71008 0.51698 0.35978 0.0
H691 H 0.65041 0.48182 0.35562 0.0
H692 H 0.548 0.55178 0.34265 0.0
C693 C 0.43593 0.47119 0.36166 0.0
C694 C 0.53901 0.45424 0.36789 0.0
C695 C 0.40058 0.45292 0.36131 0.0
C696 C 0.68337 0.53222 0.36107 0.0
C697 C 0.64922 0.51204 0.35882 0.0
C698 C 0.54589 0.52469 0.34987 0.0
C699 C 0.46967 0.45042 0.35877 0.0
C700 C 0.50711 0.47017 0.35867 0.0
C701 C 0.61397 0.53069 0.36076 0.0
C702 C 0.57761 0.50913 0.3594 0.0
H703 H 0.4311 0.36203 0.35292 0.0
H704 H 0.49275 0.39405 0.35345 0.0
H705 H 0.48723 0.51812 0.34196 0.0
H706 H 0.64638 0.62033 0.37026 0.0
H707 H 0.58698 0.58519 0.36643 0.0
C708 C 0.41915 0.10042 0.60637 0.0
C709 C 0.37935 0.1031 0.60431 0.0
C710 C 0.43715 0.06494 0.60623 0.0
C711 C 0.41911 0.96239 0.61338 0.0
H712 H 0.51638 0.95112 0.58797 0.0
C713 C 0.4972 0.81757 0.60763 0.0
C714 C 0.5361 0.81857 0.61255 0.0
C715 C 0.47693 0.85145 0.60494 0.0
C716 C 0.4893 0.95389 0.59519 0.0
H717 H 0.32729 0.07032 0.60039 0.0
H718 H 0.3588 0.00852 0.59993 0.0
H719 H 0.48296 0.01195 0.58672 0.0
H720 H 0.58448 0.85571 0.61805 0.0
H721 H 0.5492 0.91463 0.61333 0.0
H722 H 0.42565 0.90429 0.62192 0.0
C723 C 0.37602 0.03388 0.60193 0.0
C724 C 0.4702 0.98875 0.59453 0.0
C725 C 0.35798 0.06938 0.60213 0.0
C726 C 0.55453 0.85399 0.61427 0.0
C727 C 0.53437 0.88776 0.61145 0.0
C728 C 0.43816 0.92745 0.61397 0.0
C729 C 0.41583 0.03126 0.60394 0.0
C730 C 0.43513 0.99358 0.60383 0.0
C731 C 0.49528 0.88689 0.60696 0.0
C732 C 0.47369 0.923 0.6051 0.0
H733 H 0.43653 0.12574 0.60816 0.0
H734 H 0.46779 0.06391 0.60815 0.0
H735 H 0.39236 0.96526 0.62089 0.0
H736 H 0.48224 0.79068 0.60622 0.0
H737 H 0.44688 0.84993 0.60133 0.0
C738 C 0.89691 0.95675 0.85263 0.0
C739 C 0.8938 0.91691 0.85092 0.0
C740 C 0.93234 0.97464 0.85097 0.0
C741 C 0.03523 0.95591 0.85555 0.0
H742 H 0.04518 0.0515 0.82863 0.0
C743 C 0.18052 0.03107 0.84907 0.0
C744 C 0.18019 0.0702 0.85346 0.0
C745 C 0.14631 0.01142 0.84591 0.0
C746 C 0.04282 0.02489 0.83626 0.0
H747 H 0.92572 0.86476 0.84584 0.0
H748 H 0.9872 0.89601 0.84292 0.0
H749 H 0.98359 0.01914 0.82916 0.0
H750 H 0.14395 0.11978 0.8571 0.0
H751 H 0.08452 0.0856 0.85177 0.0
H752 H 0.09417 0.96194 0.86299 0.0
C753 C 0.96231 0.91336 0.84576 0.0
C754 C 0.00754 0.00641 0.8366 0.0
C755 C 0.92696 0.89547 0.84739 0.0
C756 C 0.14518 0.0896 0.85379 0.0
C757 C 0.11106 0.07003 0.85061 0.0
C758 C 0.07047 0.97439 0.85523 0.0
C759 C 0.96544 0.95311 0.84759 0.0
C760 C 0.00326 0.97194 0.84643 0.0
C761 C 0.11115 0.03058 0.84702 0.0
C762 C 0.07458 0.00932 0.84578 0.0
H763 H 0.87203 0.97418 0.85533 0.0
H764 H 0.93388 0.00531 0.85268 0.0
H765 H 0.03278 0.92964 0.86346 0.0
H766 H 0.20709 0.01537 0.84865 0.0
H767 H 0.14733 0.98111 0.84291 0.0
loop_
_geom_bond_atom_site_label_1
_geom_bond_atom_site_label_2
_geom_bond_distance
_geom_bond_site_symmetry_2
_ccdc_geom_bond_type
Mn0 O5 2.095 . S
Mn0 O15 2.162 . S
Mn0 O16 2.297 . S
Mn0 O24 2.385 . S
Mn0 O25 2.209 . S
Mn0 O26 2.094 . S
Mn1 O6 2.121 . S
Mn1 N8 2.257 . S
Mn1 N17 2.282 . S
Mn1 O25 2.215 . S
Mn1 O27 2.117 . S
C2 O24 1.234 . S
C2 O25 1.283 . S
C3 O15 1.281 . S
C3 O16 1.236 . S
C4 O26 1.240 . S
C4 O27 1.264 . S
O5 Mn0 2.095 . S
O5 C14 1.250 . S
O6 Mn1 2.121 . S
O6 C14 1.258 . S
C7 N8 1.326 . S
C7 C11 1.460 . S
C7 H13 0.929 . S
N8 Mn1 2.257 . S
N8 C7 1.326 . S
N8 C12 1.362 . S
C9 C10 1.258 . S
C9 C12 1.431 . S
C9 C29 1.449 . S
C10 C9 1.258 . S
C10 C11 1.477 . S
C10 H30 0.931 . S
C11 C7 1.460 . S
C11 C10 1.477 . S
C11 H31 0.930 . S
C12 N8 1.362 . S
C12 C9 1.431 . S
C12 C22 1.476 . S
H13 C7 0.929 . S
C14 O5 1.250 . S
C14 O6 1.258 . S
O15 Mn0 2.162 . S
O15 C3 1.281 . S
O16 Mn0 2.297 . S
O16 C3 1.236 . S
N17 Mn1 2.282 . S
N17 C18 1.328 . S
N17 C22 1.318 . S
C18 N17 1.328 . S
C18 C19 1.457 . S
C18 H23 0.929 . S
C19 C18 1.457 . S
C19 C20 1.291 . S
C19 H32 0.931 . S
C20 C19 1.291 . S
C20 C21 1.373 . S
C20 H33 0.929 . S
C21 C20 1.373 . S
C21 C22 1.396 . S
C21 C28 1.403 . S
C22 C12 1.476 . S
C22 N17 1.318 . S
C22 C21 1.396 . S
H23 C18 0.929 . S
O24 Mn0 2.385 . S
O24 C2 1.234 . S
O25 Mn0 2.209 . S
O25 Mn1 2.215 . S
O25 C2 1.283 . S
O26 Mn0 2.094 . S
O26 C4 1.240 . S
O27 Mn1 2.117 . S
O27 C4 1.264 . S
C28 C21 1.403 . S
C28 C29 1.399 . S
C28 H34 0.929 . S
C29 C9 1.449 . S
C29 C28 1.399 . S
C29 H35 0.930 . S
H30 C10 0.931 . S
H31 C11 0.930 . S
H32 C19 0.931 . S
H33 C20 0.929 . S
H34 C28 0.929 . S
H35 C29 0.930 . S
Mn36 O41 2.095 . S
Mn36 O51 2.162 . S
Mn36 O52 2.297 . S
Mn36 O60 2.385 . S
Mn36 O61 2.209 . S
Mn36 O62 2.094 . S
Mn37 O42 2.121 . S
Mn37 N44 2.257 . S
Mn37 N53 2.282 . S
Mn37 O61 2.215 . S
Mn37 O63 2.117 . S
C38 O60 1.234 . S
C38 O61 1.283 . S
C39 O51 1.281 . S
C39 O52 1.236 . S
C40 O62 1.240 . S
C40 O63 1.264 . S
O41 Mn36 2.095 . S
O41 C50 1.250 . S
O42 Mn37 2.121 . S
O42 C50 1.258 . S
C43 N44 1.326 . S
C43 C47 1.460 . S
C43 H49 0.929 . S
N44 Mn37 2.257 . S
N44 C43 1.326 . S
N44 C48 1.362 . S
C45 C46 1.258 . S
C45 C48 1.431 . S
C45 C65 1.449 . S
C46 C45 1.258 . S
C46 C47 1.477 . S
C46 H66 0.931 . S
C47 C43 1.460 . S
C47 C46 1.477 . S
C47 H67 0.930 . S
C48 N44 1.362 . S
C48 C45 1.431 . S
C48 C58 1.476 . S
H49 C43 0.929 . S
C50 O41 1.250 . S
C50 O42 1.258 . S
O51 Mn36 2.162 . S
O51 C39 1.281 . S
O52 Mn36 2.297 . S
O52 C39 1.236 . S
N53 Mn37 2.282 . S
N53 C54 1.328 . S
N53 C58 1.318 . S
C54 N53 1.328 . S
C54 C55 1.457 . S
C54 H59 0.929 . S
C55 C54 1.457 . S
C55 C56 1.291 . S
C55 H68 0.931 . S
C56 C55 1.291 . S
C56 C57 1.373 . S
C56 H69 0.929 . S
C57 C56 1.373 . S
C57 C58 1.396 . S
C57 C64 1.403 . S
C58 C48 1.476 . S
C58 N53 1.318 . S
C58 C57 1.396 . S
H59 C54 0.929 . S
O60 Mn36 2.385 . S
O60 C38 1.234 . S
O61 Mn36 2.209 . S
O61 Mn37 2.215 . S
O61 C38 1.283 . S
O62 Mn36 2.094 . S
O62 C40 1.240 . S
O63 Mn37 2.117 . S
O63 C40 1.264 . S
C64 C57 1.403 . S
C64 C65 1.399 . S
C64 H70 0.929 . S
C65 C45 1.449 . S
C65 C64 1.399 . S
C65 H71 0.930 . S
H66 C46 0.931 . S
H67 C47 0.930 . S
H68 C55 0.931 . S
H69 C56 0.929 . S
H70 C64 0.929 . S
H71 C65 0.930 . S
Mn72 O77 2.095 . S
Mn72 O87 2.162 . S
Mn72 O88 2.297 . S
Mn72 O96 2.385 . S
Mn72 O97 2.209 . S
Mn72 O98 2.094 . S
Mn73 O78 2.121 . S
Mn73 N80 2.257 . S
Mn73 N89 2.282 . S
Mn73 O97 2.215 . S
Mn73 O99 2.117 . S
C74 O96 1.234 . S
C74 O97 1.283 . S
C75 O87 1.281 . S
C75 O88 1.236 . S
C76 O98 1.240 . S
C76 O99 1.264 . S
O77 Mn72 2.095 . S
O77 C86 1.250 . S
O78 Mn73 2.121 . S
O78 C86 1.258 . S
C79 N80 1.326 . S
C79 C83 1.460 . S
C79 H85 0.929 . S
N80 Mn73 2.257 . S
N80 C79 1.326 . S
N80 C84 1.362 . S
C81 C82 1.258 . S
C81 C84 1.431 . S
C81 C101 1.449 . S
C82 C81 1.258 . S
C82 C83 1.477 . S
C82 H102 0.931 . S
C83 C79 1.460 . S
C83 C82 1.477 . S
C83 H103 0.930 . S
C84 N80 1.362 . S
C84 C81 1.431 . S
C84 C94 1.476 . S
H85 C79 0.929 . S
C86 O77 1.250 . S
C86 O78 1.258 . S
O87 Mn72 2.162 . S
O87 C75 1.281 . S
O88 Mn72 2.297 . S
O88 C75 1.236 . S
N89 Mn73 2.282 . S
N89 C90 1.328 . S
N89 C94 1.318 . S
C90 N89 1.328 . S
C90 C91 1.457 . S
C90 H95 0.929 . S
C91 C90 1.457 . S
C91 C92 1.291 . S
C91 H104 0.931 . S
C92 C91 1.291 . S
C92 C93 1.373 . S
C92 H105 0.929 . S
C93 C92 1.373 . S
C93 C94 1.396 . S
C93 C100 1.403 . S
C94 C84 1.476 . S
C94 N89 1.318 . S
C94 C93 1.396 . S
H95 C90 0.929 . S
O96 Mn72 2.385 . S
O96 C74 1.234 . S
O97 Mn72 2.209 . S
O97 Mn73 2.215 . S
O97 C74 1.283 . S
O98 Mn72 2.094 . S
O98 C76 1.240 . S
O99 Mn73 2.117 . S
O99 C76 1.264 . S
C100 C93 1.403 . S
C100 C101 1.399 . S
C100 H106 0.929 . S
C101 C81 1.449 . S
C101 C100 1.399 . S
C101 H107 0.930 . S
H102 C82 0.931 . S
H103 C83 0.930 . S
H104 C91 0.931 . S
H105 C92 0.929 . S
H106 C100 0.929 . S
H107 C101 0.930 . S
Mn108 O113 2.095 . S
Mn108 O123 2.162 . S
Mn108 O124 2.297 . S
Mn108 O132 2.385 . S
Mn108 O133 2.209 . S
Mn108 O134 2.094 . S
Mn109 O114 2.121 . S
Mn109 N116 2.257 . S
Mn109 N125 2.282 . S
Mn109 O133 2.215 . S
Mn109 O135 2.117 . S
C110 O132 1.234 . S
C110 O133 1.283 . S
C111 O123 1.281 . S
C111 O124 1.236 . S
C112 O134 1.240 . S
C112 O135 1.264 . S
O113 Mn108 2.095 . S
O113 C122 1.250 . S
O114 Mn109 2.121 . S
O114 C122 1.258 . S
C115 N116 1.326 . S
C115 C119 1.460 . S
C115 H121 0.929 . S
N116 Mn109 2.257 . S
N116 C115 1.326 . S
N116 C120 1.362 . S
C117 C118 1.258 . S
C117 C120 1.431 . S
C117 C137 1.449 . S
C118 C117 1.258 . S
C118 C119 1.477 . S
C118 H138 0.931 . S
C119 C115 1.460 . S
C119 C118 1.477 . S
C119 H139 0.930 . S
C120 N116 1.362 . S
C120 C117 1.431 . S
C120 C130 1.476 . S
H121 C115 0.929 . S
C122 O113 1.250 . S
C122 O114 1.258 . S
O123 Mn108 2.162 . S
O123 C111 1.281 . S
O124 Mn108 2.297 . S
O124 C111 1.236 . S
N125 Mn109 2.282 . S
N125 C126 1.328 . S
N125 C130 1.318 . S
C126 N125 1.328 . S
C126 C127 1.457 . S
C126 H131 0.929 . S
C127 C126 1.457 . S
C127 C128 1.291 . S
C127 H140 0.931 . S
C128 C127 1.291 . S
C128 C129 1.373 . S
C128 H141 0.929 . S
C129 C128 1.373 . S
C129 C130 1.396 . S
C129 C136 1.403 . S
C130 C120 1.476 . S
C130 N125 1.318 . S
C130 C129 1.396 . S
H131 C126 0.929 . S
O132 Mn108 2.385 . S
O132 C110 1.234 . S
O133 Mn108 2.209 . S
O133 Mn109 2.215 . S
O133 C110 1.283 . S
O134 Mn108 2.094 . S
O134 C112 1.240 . S
O135 Mn109 2.117 . S
O135 C112 1.264 . S
C136 C129 1.403 . S
C136 C137 1.399 . S
C136 H142 0.929 . S
C137 C117 1.449 . S
C137 C136 1.399 . S
C137 H143 0.930 . S
H138 C118 0.931 . S
H139 C119 0.930 . S
H140 C127 0.931 . S
H141 C128 0.929 . S
H142 C136 0.929 . S
H143 C137 0.930 . S
Mn144 O149 2.095 . S
Mn144 O159 2.162 . S
Mn144 O160 2.297 . S
Mn144 O168 2.385 . S
Mn144 O169 2.209 . S
Mn144 O170 2.094 . S
Mn145 O150 2.121 . S
Mn145 N152 2.257 . S
Mn145 N161 2.282 . S
Mn145 O169 2.215 . S
Mn145 O171 2.117 . S
C146 O168 1.234 . S
C146 O169 1.283 . S
C147 O159 1.281 . S
C147 O160 1.236 . S
C148 O170 1.240 . S
C148 O171 1.264 . S
O149 Mn144 2.095 . S
O149 C158 1.250 . S
O150 Mn145 2.121 . S
O150 C158 1.258 . S
C151 N152 1.326 . S
C151 C155 1.460 . S
C151 H157 0.929 . S
N152 Mn145 2.257 . S
N152 C151 1.326 . S
N152 C156 1.362 . S
C153 C154 1.258 . S
C153 C156 1.431 . S
C153 C173 1.449 . S
C154 C153 1.258 . S
C154 C155 1.477 . S
C154 H174 0.931 . S
C155 C151 1.460 . S
C155 C154 1.477 . S
C155 H175 0.930 . S
C156 N152 1.362 . S
C156 C153 1.431 . S
C156 C166 1.476 . S
H157 C151 0.929 . S
C158 O149 1.250 . S
C158 O150 1.258 . S
O159 Mn144 2.162 . S
O159 C147 1.281 . S
O160 Mn144 2.297 . S
O160 C147 1.236 . S
N161 Mn145 2.282 . S
N161 C162 1.328 . S
N161 C166 1.318 . S
C162 N161 1.328 . S
C162 C163 1.457 . S
C162 H167 0.929 . S
C163 C162 1.457 . S
C163 C164 1.291 . S
C163 H176 0.931 . S
C164 C163 1.291 . S
C164 C165 1.373 . S
C164 H177 0.929 . S
C165 C164 1.373 . S
C165 C166 1.396 . S
C165 C172 1.403 . S
C166 C156 1.476 . S
C166 N161 1.318 . S
C166 C165 1.396 . S
H167 C162 0.929 . S
O168 Mn144 2.385 . S
O168 C146 1.234 . S
O169 Mn144 2.209 . S
O169 Mn145 2.215 . S
O169 C146 1.283 . S
O170 Mn144 2.094 . S
O170 C148 1.240 . S
O171 Mn145 2.117 . S
O171 C148 1.264 . S
C172 C165 1.403 . S
C172 C173 1.399 . S
C172 H178 0.929 . S
C173 C153 1.449 . S
C173 C172 1.399 . S
C173 H179 0.930 . S
H174 C154 0.931 . S
H175 C155 0.930 . S
H176 C163 0.931 . S
H177 C164 0.929 . S
H178 C172 0.929 . S
H179 C173 0.930 . S
Mn180 O185 2.095 . S
Mn180 O195 2.162 . S
Mn180 O196 2.297 . S
Mn180 O204 2.385 . S
Mn180 O205 2.209 . S
Mn180 O206 2.094 . S
Mn181 O186 2.121 . S
Mn181 N188 2.257 . S
Mn181 N197 2.282 . S
Mn181 O205 2.215 . S
Mn181 O207 2.117 . S
C182 O204 1.234 . S
C182 O205 1.283 . S
C183 O195 1.281 . S
C183 O196 1.236 . S
C184 O206 1.240 . S
C184 O207 1.264 . S
O185 Mn180 2.095 . S
O185 C194 1.250 . S
O186 Mn181 2.121 . S
O186 C194 1.258 . S
C187 N188 1.326 . S
C187 C191 1.460 . S
C187 H193 0.929 . S
N188 Mn181 2.257 . S
N188 C187 1.326 . S
N188 C192 1.362 . S
C189 C190 1.258 . S
C189 C192 1.431 . S
C189 C209 1.449 . S
C190 C189 1.258 . S
C190 C191 1.477 . S
C190 H210 0.931 . S
C191 C187 1.460 . S
C191 C190 1.477 . S
C191 H211 0.930 . S
C192 N188 1.362 . S
C192 C189 1.431 . S
C192 C202 1.476 . S
H193 C187 0.929 . S
C194 O185 1.250 . S
C194 O186 1.258 . S
O195 Mn180 2.162 . S
O195 C183 1.281 . S
O196 Mn180 2.297 . S
O196 C183 1.236 . S
N197 Mn181 2.282 . S
N197 C198 1.328 . S
N197 C202 1.318 . S
C198 N197 1.328 . S
C198 C199 1.457 . S
C198 H203 0.929 . S
C199 C198 1.457 . S
C199 C200 1.291 . S
C199 H212 0.931 . S
C200 C199 1.291 . S
C200 C201 1.373 . S
C200 H213 0.929 . S
C201 C200 1.373 . S
C201 C202 1.396 . S
C201 C208 1.403 . S
C202 C192 1.476 . S
C202 N197 1.318 . S
C202 C201 1.396 . S
H203 C198 0.929 . S
O204 Mn180 2.385 . S
O204 C182 1.234 . S
O205 Mn180 2.209 . S
O205 Mn181 2.215 . S
O205 C182 1.283 . S
O206 Mn180 2.094 . S
O206 C184 1.240 . S
O207 Mn181 2.117 . S
O207 C184 1.264 . S
C208 C201 1.403 . S
C208 C209 1.399 . S
C208 H214 0.929 . S
C209 C189 1.449 . S
C209 C208 1.399 . S
C209 H215 0.930 . S
H210 C190 0.931 . S
H211 C191 0.930 . S
H212 C199 0.931 . S
H213 C200 0.929 . S
H214 C208 0.929 . S
H215 C209 0.930 . S
Mn216 O221 2.095 . S
Mn216 O231 2.162 . S
Mn216 O232 2.297 . S
Mn216 O240 2.385 . S
Mn216 O241 2.209 . S
Mn216 O242 2.094 . S
Mn217 O222 2.121 . S
Mn217 N224 2.257 . S
Mn217 N233 2.282 . S
Mn217 O241 2.215 . S
Mn217 O243 2.117 . S
C218 O240 1.234 . S
C218 O241 1.283 . S
C219 O231 1.281 . S
C219 O232 1.236 . S
C220 O242 1.240 . S
C220 O243 1.264 . S
O221 Mn216 2.095 . S
O221 C230 1.250 . S
O222 Mn217 2.121 . S
O222 C230 1.258 . S
C223 N224 1.326 . S
C223 C227 1.460 . S
C223 H229 0.929 . S
N224 Mn217 2.257 . S
N224 C223 1.326 . S
N224 C228 1.362 . S
C225 C226 1.258 . S
C225 C228 1.431 . S
C225 C245 1.449 . S
C226 C225 1.258 . S
C226 C227 1.477 . S
C226 H246 0.931 . S
C227 C223 1.460 . S
C227 C226 1.477 . S
C227 H247 0.930 . S
C228 N224 1.362 . S
C228 C225 1.431 . S
C228 C238 1.476 . S
H229 C223 0.929 . S
C230 O221 1.250 . S
C230 O222 1.258 . S
O231 Mn216 2.162 . S
O231 C219 1.281 . S
O232 Mn216 2.297 . S
O232 C219 1.236 . S
N233 Mn217 2.282 . S
N233 C234 1.328 . S
N233 C238 1.318 . S
C234 N233 1.328 . S
C234 C235 1.457 . S
C234 H239 0.929 . S
C235 C234 1.457 . S
C235 C236 1.291 . S
C235 H248 0.931 . S
C236 C235 1.291 . S
C236 C237 1.373 . S
C236 H249 0.929 . S
C237 C236 1.373 . S
C237 C238 1.396 . S
C237 C244 1.403 . S
C238 C228 1.476 . S
C238 N233 1.318 . S
C238 C237 1.396 . S
H239 C234 0.929 . S
O240 Mn216 2.385 . S
O240 C218 1.234 . S
O241 Mn216 2.209 . S
O241 Mn217 2.215 . S
O241 C218 1.283 . S
O242 Mn216 2.094 . S
O242 C220 1.240 . S
O243 Mn217 2.117 . S
O243 C220 1.264 . S
C244 C237 1.403 . S
C244 C245 1.399 . S
C244 H250 0.929 . S
C245 C225 1.449 . S
C245 C244 1.399 . S
C245 H251 0.930 . S
H246 C226 0.931 . S
H247 C227 0.930 . S
H248 C235 0.931 . S
H249 C236 0.929 . S
H250 C244 0.929 . S
H251 C245 0.930 . S
Mn252 O257 2.095 . S
Mn252 O267 2.162 . S
Mn252 O268 2.297 . S
Mn252 O276 2.385 . S
Mn252 O277 2.209 . S
Mn252 O278 2.094 . S
Mn253 O258 2.121 . S
Mn253 N260 2.257 . S
Mn253 N269 2.282 . S
Mn253 O277 2.215 . S
Mn253 O279 2.117 . S
C254 O276 1.234 . S
C254 O277 1.283 . S
C255 O267 1.281 . S
C255 O268 1.236 . S
C256 O278 1.240 . S
C256 O279 1.264 . S
O257 Mn252 2.095 . S
O257 C266 1.250 . S
O258 Mn253 2.121 . S
O258 C266 1.258 . S
C259 N260 1.326 . S
C259 C263 1.460 . S
C259 H265 0.929 . S
N260 Mn253 2.257 . S
N260 C259 1.326 . S
N260 C264 1.362 . S
C261 C262 1.258 . S
C261 C264 1.431 . S
C261 C281 1.449 . S
C262 C261 1.258 . S
C262 C263 1.477 . S
C262 H282 0.931 . S
C263 C259 1.460 . S
C263 C262 1.477 . S
C263 H283 0.930 . S
C264 N260 1.362 . S
C264 C261 1.431 . S
C264 C274 1.476 . S
H265 C259 0.929 . S
C266 O257 1.250 . S
C266 O258 1.258 . S
O267 Mn252 2.162 . S
O267 C255 1.281 . S
O268 Mn252 2.297 . S
O268 C255 1.236 . S
N269 Mn253 2.282 . S
N269 C270 1.328 . S
N269 C274 1.318 . S
C270 N269 1.328 . S
C270 C271 1.457 . S
C270 H275 0.929 . S
C271 C270 1.457 . S
C271 C272 1.291 . S
C271 H284 0.931 . S
C272 C271 1.291 . S
C272 C273 1.373 . S
C272 H285 0.929 . S
C273 C272 1.373 . S
C273 C274 1.396 . S
C273 C280 1.403 . S
C274 C264 1.476 . S
C274 N269 1.318 . S
C274 C273 1.396 . S
H275 C270 0.929 . S
O276 Mn252 2.385 . S
O276 C254 1.234 . S
O277 Mn252 2.209 . S
O277 Mn253 2.215 . S
O277 C254 1.283 . S
O278 Mn252 2.094 . S
O278 C256 1.240 . S
O279 Mn253 2.117 . S
O279 C256 1.264 . S
C280 C273 1.403 . S
C280 C281 1.399 . S
C280 H286 0.929 . S
C281 C261 1.449 . S
C281 C280 1.399 . S
C281 H287 0.930 . S
H282 C262 0.931 . S
H283 C263 0.930 . S
H284 C271 0.931 . S
H285 C272 0.929 . S
H286 C280 0.929 . S
H287 C281 0.930 . S
C288 C289 1.349 . S
C288 C290 1.327 . S
C288 H313 0.950 . S
C289 C288 1.349 . S
C289 C305 1.349 . S
C290 C288 1.327 . S
C290 C309 1.429 . S
C290 H314 0.950 . S
C291 C308 1.574 1_554 S
C291 C310 1.368 . S
C291 H315 0.949 . S
H292 C296 0.949 . S
C293 C294 1.349 . S
C293 C295 1.327 . S
C293 H316 0.950 . S
C294 C293 1.349 . S
C294 C306 1.349 . S
C295 C293 1.327 . S
C295 C311 1.429 . S
C295 H317 0.950 . S
C296 H292 0.949 . S
C296 C304 1.574 1_556 S
C296 C312 1.368 . S
H297 C305 0.950 . S
H298 C303 0.950 . S
H299 C304 0.949 . S
H300 C306 0.950 . S
H301 C307 0.950 . S
H302 C308 0.949 . S
C303 H298 0.950 . S
C303 C305 1.327 . S
C303 C309 1.429 . S
C304 C296 1.574 1_554 S
C304 H299 0.949 . S
C304 C310 1.368 . S
C305 C289 1.349 . S
C305 H297 0.950 . S
C305 C303 1.327 . S
C306 C294 1.349 . S
C306 H300 0.950 . S
C306 C307 1.327 . S
C307 H301 0.950 . S
C307 C306 1.327 . S
C307 C311 1.429 . S
C308 C291 1.574 1_556 S
C308 H302 0.949 . S
C308 C312 1.368 . S
C309 C290 1.429 . S
C309 C303 1.429 . S
C309 C310 1.523 . S
C310 C291 1.368 . S
C310 C304 1.368 . S
C310 C309 1.523 . S
C311 C295 1.429 . S
C311 C307 1.429 . S
C311 C312 1.523 . S
C312 C296 1.368 . S
C312 C308 1.368 . S
C312 C311 1.523 . S
H313 C288 0.950 . S
H314 C290 0.950 . S
H315 C291 0.949 . S
H316 C293 0.950 . S
H317 C295 0.950 . S
C318 C319 1.349 . S
C318 C320 1.327 . S
C318 H343 0.950 . S
C319 C318 1.349 . S
C319 C335 1.349 . S
C320 C318 1.327 . S
C320 C339 1.429 . S
C320 H344 0.950 . S
C321 C338 1.574 . S
C321 C340 1.368 . S
C321 H345 0.949 . S
H322 C326 0.949 . S
C323 C324 1.349 . S
C323 C325 1.327 . S
C323 H346 0.950 . S
C324 C323 1.349 . S
C324 C336 1.349 . S
C325 C323 1.327 . S
C325 C341 1.429 . S
C325 H347 0.950 . S
C326 H322 0.949 . S
C326 C334 1.574 . S
C326 C342 1.368 . S
H327 C335 0.950 . S
H328 C333 0.950 . S
H329 C334 0.949 . S
H330 C336 0.950 . S
H331 C337 0.950 . S
H332 C338 0.949 . S
C333 H328 0.950 . S
C333 C335 1.327 . S
C333 C339 1.429 . S
C334 C326 1.574 . S
C334 H329 0.949 . S
C334 C340 1.368 . S
C335 C319 1.349 . S
C335 H327 0.950 . S
C335 C333 1.327 . S
C336 C324 1.349 . S
C336 H330 0.950 . S
C336 C337 1.327 . S
C337 H331 0.950 . S
C337 C336 1.327 . S
C337 C341 1.429 . S
C338 C321 1.574 . S
C338 H332 0.949 . S
C338 C342 1.368 . S
C339 C320 1.429 . S
C339 C333 1.429 . S
C339 C340 1.523 . S
C340 C321 1.368 . S
C340 C334 1.368 . S
C340 C339 1.523 . S
C341 C325 1.429 . S
C341 C337 1.429 . S
C341 C342 1.523 . S
C342 C326 1.368 . S
C342 C338 1.368 . S
C342 C341 1.523 . S
H343 C318 0.950 . S
H344 C320 0.950 . S
H345 C321 0.949 . S
H346 C323 0.950 . S
H347 C325 0.950 . S
C348 C349 1.349 . S
C348 C350 1.327 . S
C348 H373 0.950 . S
C349 C348 1.349 . S
C349 C365 1.349 . S
C350 C348 1.327 . S
C350 C369 1.429 . S
C350 H374 0.950 . S
C351 C368 1.574 . S
C351 C370 1.368 . S
C351 H375 0.949 . S
H352 C356 0.949 . S
C353 C354 1.349 . S
C353 C355 1.327 . S
C353 H376 0.950 . S
C354 C353 1.349 . S
C354 C366 1.349 . S
C355 C353 1.327 . S
C355 C371 1.429 . S
C355 H377 0.950 . S
C356 H352 0.949 . S
C356 C364 1.574 . S
C356 C372 1.368 . S
H357 C365 0.950 . S
H358 C363 0.950 . S
H359 C364 0.949 . S
H360 C366 0.950 . S
H361 C367 0.950 . S
H362 C368 0.949 . S
C363 H358 0.950 . S
C363 C365 1.327 . S
C363 C369 1.429 . S
C364 C356 1.574 . S
C364 H359 0.949 . S
C364 C370 1.368 . S
C365 C349 1.349 . S
C365 H357 0.950 . S
C365 C363 1.327 . S
C366 C354 1.349 . S
C366 H360 0.950 . S
C366 C367 1.327 . S
C367 H361 0.950 . S
C367 C366 1.327 . S
C367 C371 1.429 . S
C368 C351 1.574 . S
C368 H362 0.949 . S
C368 C372 1.368 . S
C369 C350 1.429 . S
C369 C363 1.429 . S
C369 C370 1.523 . S
C370 C351 1.368 . S
C370 C364 1.368 . S
C370 C369 1.523 . S
C371 C355 1.429 . S
C371 C367 1.429 . S
C371 C372 1.523 . S
C372 C356 1.368 . S
C372 C368 1.368 . S
C372 C371 1.523 . S
H373 C348 0.950 . S
H374 C350 0.950 . S
H375 C351 0.949 . S
H376 C353 0.950 . S
H377 C355 0.950 . S
C378 C379 1.349 . S
C378 C380 1.327 . S
C378 H403 0.950 . S
C379 C378 1.349 . S
C379 C395 1.349 . S
C380 C378 1.327 . S
C380 C399 1.429 . S
C380 H404 0.950 . S
C381 C398 1.574 . S
C381 C400 1.368 . S
C381 H405 0.949 . S
H382 C386 0.949 . S
C383 C384 1.349 . S
C383 C385 1.327 . S
C383 H406 0.950 . S
C384 C383 1.349 . S
C384 C396 1.349 . S
C385 C383 1.327 . S
C385 C401 1.429 . S
C385 H407 0.950 . S
C386 H382 0.949 . S
C386 C394 1.574 . S
C386 C402 1.368 . S
H387 C395 0.950 . S
H388 C393 0.950 . S
H389 C394 0.949 . S
H390 C396 0.950 . S
H391 C397 0.950 . S
H392 C398 0.949 . S
C393 H388 0.950 . S
C393 C395 1.327 . S
C393 C399 1.429 . S
C394 C386 1.574 . S
C394 H389 0.949 . S
C394 C400 1.368 . S
C395 C379 1.349 . S
C395 H387 0.950 . S
C395 C393 1.327 . S
C396 C384 1.349 . S
C396 H390 0.950 . S
C396 C397 1.327 . S
C397 H391 0.950 . S
C397 C396 1.327 . S
C397 C401 1.429 . S
C398 C381 1.574 . S
C398 H392 0.949 . S
C398 C402 1.368 . S
C399 C380 1.429 . S
C399 C393 1.429 . S
C399 C400 1.523 . S
C400 C381 1.368 . S
C400 C394 1.368 . S
C400 C399 1.523 . S
C401 C385 1.429 . S
C401 C397 1.429 . S
C401 C402 1.523 . S
C402 C386 1.368 . S
C402 C398 1.368 . S
C402 C401 1.523 . S
H403 C378 0.950 . S
H404 C380 0.950 . S
H405 C381 0.949 . S
H406 C383 0.950 . S
H407 C385 0.950 . S
C408 C409 1.349 . S
C408 C410 1.327 . S
C408 H433 0.950 . S
C409 C408 1.349 . S
C409 C425 1.349 . S
C410 C408 1.327 . S
C410 C429 1.429 . S
C410 H434 0.950 . S
C411 C428 1.574 . S
C411 C430 1.368 . S
C411 H435 0.949 . S
H412 C416 0.949 . S
C413 C414 1.349 . S
C413 C415 1.327 . S
C413 H436 0.950 . S
C414 C413 1.349 . S
C414 C426 1.349 . S
C415 C413 1.327 . S
C415 C431 1.429 . S
C415 H437 0.950 . S
C416 H412 0.949 . S
C416 C424 1.574 . S
C416 C432 1.368 . S
H417 C425 0.950 . S
H418 C423 0.950 . S
H419 C424 0.949 . S
H420 C426 0.950 . S
H421 C427 0.950 . S
H422 C428 0.949 . S
C423 H418 0.950 . S
C423 C425 1.327 . S
C423 C429 1.429 . S
C424 C416 1.574 . S
C424 H419 0.949 . S
C424 C430 1.368 . S
C425 C409 1.349 . S
C425 H417 0.950 . S
C425 C423 1.327 . S
C426 C414 1.349 . S
C426 H420 0.950 . S
C426 C427 1.327 . S
C427 H421 0.950 . S
C427 C426 1.327 . S
C427 C431 1.429 . S
C428 C411 1.574 . S
C428 H422 0.949 . S
C428 C432 1.368 . S
C429 C410 1.429 . S
C429 C423 1.429 . S
C429 C430 1.523 . S
C430 C411 1.368 . S
C430 C424 1.368 . S
C430 C429 1.523 . S
C431 C415 1.429 . S
C431 C427 1.429 . S
C431 C432 1.523 . S
C432 C416 1.368 . S
C432 C428 1.368 . S
C432 C431 1.523 . S
H433 C408 0.950 . S
H434 C410 0.950 . S
H435 C411 0.949 . S
H436 C413 0.950 . S
H437 C415 0.950 . S
C438 C439 1.349 . S
C438 C440 1.327 . S
C438 H463 0.950 . S
C439 C438 1.349 . S
C439 C455 1.349 . S
C440 C438 1.327 . S
C440 C459 1.429 . S
C440 H464 0.950 . S
C441 C458 1.574 . S
C441 C460 1.368 . S
C441 H465 0.949 . S
H442 C446 0.949 . S
C443 C444 1.349 . S
C443 C445 1.327 . S
C443 H466 0.950 . S
C444 C443 1.349 . S
C444 C456 1.349 . S
C445 C443 1.327 . S
C445 C461 1.429 . S
C445 H467 0.950 . S
C446 H442 0.949 . S
C446 C454 1.574 . S
C446 C462 1.368 . S
H447 C455 0.950 . S
H448 C453 0.950 . S
H449 C454 0.949 . S
H450 C456 0.950 . S
H451 C457 0.950 . S
H452 C458 0.949 . S
C453 H448 0.950 . S
C453 C455 1.327 . S
C453 C459 1.429 . S
C454 C446 1.574 . S
C454 H449 0.949 . S
C454 C460 1.368 . S
C455 C439 1.349 . S
C455 H447 0.950 . S
C455 C453 1.327 . S
C456 C444 1.349 . S
C456 H450 0.950 . S
C456 C457 1.327 . S
C457 H451 0.950 . S
C457 C456 1.327 . S
C457 C461 1.429 . S
C458 C441 1.574 . S
C458 H452 0.949 . S
C458 C462 1.368 . S
C459 C440 1.429 . S
C459 C453 1.429 . S
C459 C460 1.523 . S
C460 C441 1.368 . S
C460 C454 1.368 . S
C460 C459 1.523 . S
C461 C445 1.429 . S
C461 C457 1.429 . S
C461 C462 1.523 . S
C462 C446 1.368 . S
C462 C458 1.368 . S
C462 C461 1.523 . S
H463 C438 0.950 . S
H464 C440 0.950 . S
H465 C441 0.949 . S
H466 C443 0.950 . S
H467 C445 0.950 . S
C468 C469 1.349 . S
C468 C470 1.327 . S
C468 H493 0.950 . S
C469 C468 1.349 . S
C469 C485 1.349 . S
C470 C468 1.327 . S
C470 C489 1.429 . S
C470 H494 0.950 . S
C471 C488 1.574 . S
C471 C490 1.368 . S
C471 H495 0.949 . S
H472 C476 0.949 . S
C473 C474 1.349 . S
C473 C475 1.327 . S
C473 H496 0.950 . S
C474 C473 1.349 . S
C474 C486 1.349 . S
C475 C473 1.327 . S
C475 C491 1.429 . S
C475 H497 0.950 . S
C476 H472 0.949 . S
C476 C484 1.574 . S
C476 C492 1.368 . S
H477 C485 0.950 . S
H478 C483 0.950 . S
H479 C484 0.949 . S
H480 C486 0.950 . S
H481 C487 0.950 . S
H482 C488 0.949 . S
C483 H478 0.950 . S
C483 C485 1.327 . S
C483 C489 1.429 . S
C484 C476 1.574 . S
C484 H479 0.949 . S
C484 C490 1.368 . S
C485 C469 1.349 . S
C485 H477 0.950 . S
C485 C483 1.327 . S
C486 C474 1.349 . S
C486 H480 0.950 . S
C486 C487 1.327 . S
C487 H481 0.950 . S
C487 C486 1.327 . S
C487 C491 1.429 . S
C488 C471 1.574 . S
C488 H482 0.949 . S
C488 C492 1.368 . S
C489 C470 1.429 . S
C489 C483 1.429 . S
C489 C490 1.523 . S
C490 C471 1.368 . S
C490 C484 1.368 . S
C490 C489 1.523 . S
C491 C475 1.429 . S
C491 C487 1.429 . S
C491 C492 1.523 . S
C492 C476 1.368 . S
C492 C488 1.368 . S
C492 C491 1.523 . S
H493 C468 0.950 . S
H494 C470 0.950 . S
H495 C471 0.949 . S
H496 C473 0.950 . S
H497 C475 0.950 . S
C498 C499 1.349 . S
C498 C500 1.327 . S
C498 H523 0.950 . S
C499 C498 1.349 . S
C499 C515 1.349 . S
C500 C498 1.327 . S
C500 C519 1.429 . S
C500 H524 0.950 . S
C501 C518 1.574 1_554 S
C501 C520 1.368 . S
C501 H525 0.949 . S
H502 C506 0.949 . S
C503 C504 1.349 . S
C503 C505 1.327 . S
C503 H526 0.950 . S
C504 C503 1.349 . S
C504 C516 1.349 . S
C505 C503 1.327 . S
C505 C521 1.429 . S
C505 H527 0.950 . S
C506 H502 0.949 . S
C506 C514 1.574 1_556 S
C506 C522 1.368 . S
H507 C515 0.950 . S
H508 C513 0.950 . S
H509 C514 0.949 . S
H510 C516 0.950 . S
H511 C517 0.950 . S
H512 C518 0.949 . S
C513 H508 0.950 . S
C513 C515 1.327 . S
C513 C519 1.429 . S
C514 C506 1.574 1_554 S
C514 H509 0.949 . S
C514 C520 1.368 . S
C515 C499 1.349 . S
C515 H507 0.950 . S
C515 C513 1.327 . S
C516 C504 1.349 . S
C516 H510 0.950 . S
C516 C517 1.327 . S
C517 H511 0.950 . S
C517 C516 1.327 . S
C517 C521 1.429 . S
C518 C501 1.574 1_556 S
C518 H512 0.949 . S
C518 C522 1.368 . S
C519 C500 1.429 . S
C519 C513 1.429 . S
C519 C520 1.523 . S
C520 C501 1.368 . S
C520 C514 1.368 . S
C520 C519 1.523 . S
C521 C505 1.429 . S
C521 C517 1.429 . S
C521 C522 1.523 . S
C522 C506 1.368 . S
C522 C518 1.368 . S
C522 C521 1.523 . S
H523 C498 0.950 . S
H524 C500 0.950 . S
H525 C501 0.949 . S
H526 C503 0.950 . S
H527 C505 0.950 . S
C528 C529 1.349 . S
C528 C530 1.327 . S
C528 H553 0.950 . S
C529 C528 1.349 . S
C529 C545 1.349 . S
C530 C528 1.327 . S
C530 C549 1.429 . S
C530 H554 0.950 . S
C531 C548 1.574 1_545 S
C531 C550 1.368 1_655 S
C531 H555 0.949 . S
H532 C536 0.949 . S
C533 C534 1.349 . S
C533 C535 1.327 . S
C533 H556 0.950 . S
C534 C533 1.349 . S
C534 C546 1.349 . S
C535 C533 1.327 . S
C535 C551 1.429 . S
C535 H557 0.950 . S
C536 H532 0.949 . S
C536 C544 1.574 1_565 S
C536 C552 1.368 1_455 S
H537 C545 0.950 . S
H538 C543 0.950 . S
H539 C544 0.949 . S
H540 C546 0.950 . S
H541 C547 0.950 . S
H542 C548 0.949 . S
C543 H538 0.950 . S
C543 C545 1.327 . S
C543 C549 1.429 . S
C544 C536 1.574 1_545 S
C544 H539 0.949 . S
C544 C550 1.368 . S
C545 C529 1.349 . S
C545 H537 0.950 . S
C545 C543 1.327 . S
C546 C534 1.349 . S
C546 H540 0.950 . S
C546 C547 1.327 . S
C547 H541 0.950 . S
C547 C546 1.327 . S
C547 C551 1.429 . S
C548 C531 1.574 1_565 S
C548 H542 0.949 . S
C548 C552 1.368 . S
C549 C530 1.429 . S
C549 C543 1.429 . S
C549 C550 1.523 . S
C550 C531 1.368 1_455 S
C550 C544 1.368 . S
C550 C549 1.523 . S
C551 C535 1.429 . S
C551 C547 1.429 . S
C551 C552 1.523 . S
C552 C536 1.368 1_655 S
C552 C548 1.368 . S
C552 C551 1.523 . S
H553 C528 0.950 . S
H554 C530 0.950 . S
H555 C531 0.949 . S
H556 C533 0.950 . S
H557 C535 0.950 . S
C558 C559 1.349 . S
C558 C560 1.327 . S
C558 H583 0.950 . S
C559 C558 1.349 . S
C559 C575 1.349 . S
C560 C558 1.327 . S
C560 C579 1.429 . S
C560 H584 0.950 . S
C561 C578 1.574 1_455 S
C561 C580 1.368 . S
C561 H585 0.949 . S
H562 C566 0.949 . S
C563 C564 1.349 . S
C563 C565 1.327 . S
C563 H586 0.950 . S
C564 C563 1.349 . S
C564 C576 1.349 . S
C565 C563 1.327 . S
C565 C581 1.429 . S
C565 H587 0.950 . S
C566 H562 0.949 . S
C566 C574 1.574 1_655 S
C566 C582 1.368 . S
H567 C575 0.950 . S
H568 C573 0.950 . S
H569 C574 0.949 . S
H570 C576 0.950 . S
H571 C577 0.950 . S
H572 C578 0.949 . S
C573 H568 0.950 . S
C573 C575 1.327 . S
C573 C579 1.429 . S
C574 C566 1.574 1_455 S
C574 H569 0.949 . S
C574 C580 1.368 . S
C575 C559 1.349 . S
C575 H567 0.950 . S
C575 C573 1.327 . S
C576 C564 1.349 . S
C576 H570 0.950 . S
C576 C577 1.327 . S
C577 H571 0.950 . S
C577 C576 1.327 . S
C577 C581 1.429 . S
C578 C561 1.574 1_655 S
C578 H572 0.949 . S
C578 C582 1.368 . S
C579 C560 1.429 . S
C579 C573 1.429 . S
C579 C580 1.523 . S
C580 C561 1.368 . S
C580 C574 1.368 . S
C580 C579 1.523 . S
C581 C565 1.429 . S
C581 C577 1.429 . S
C581 C582 1.523 . S
C582 C566 1.368 . S
C582 C578 1.368 . S
C582 C581 1.523 . S
H583 C558 0.950 . S
H584 C560 0.950 . S
H585 C561 0.949 . S
H586 C563 0.950 . S
H587 C565 0.950 . S
C588 C589 1.349 . S
C588 C590 1.327 . S
C588 H613 0.950 . S
C589 C588 1.349 . S
C589 C605 1.349 . S
C590 C588 1.327 . S
C590 C609 1.429 . S
C590 H614 0.950 . S
C591 C608 1.574 . S
C591 C610 1.368 . S
C591 H615 0.949 . S
H592 C596 0.949 . S
C593 C594 1.349 . S
C593 C595 1.327 . S
C593 H616 0.950 . S
C594 C593 1.349 . S
C594 C606 1.349 . S
C595 C593 1.327 . S
C595 C611 1.429 . S
C595 H617 0.950 . S
C596 H592 0.949 . S
C596 C604 1.574 . S
C596 C612 1.368 . S
H597 C605 0.950 . S
H598 C603 0.950 . S
H599 C604 0.949 . S
H600 C606 0.950 . S
H601 C607 0.950 . S
H602 C608 0.949 . S
C603 H598 0.950 . S
C603 C605 1.327 . S
C603 C609 1.429 . S
C604 C596 1.574 . S
C604 H599 0.949 . S
C604 C610 1.368 . S
C605 C589 1.349 . S
C605 H597 0.950 . S
C605 C603 1.327 . S
C606 C594 1.349 . S
C606 H600 0.950 . S
C606 C607 1.327 . S
C607 H601 0.950 . S
C607 C606 1.327 . S
C607 C611 1.429 . S
C608 C591 1.574 . S
C608 H602 0.949 . S
C608 C612 1.368 . S
C609 C590 1.429 . S
C609 C603 1.429 . S
C609 C610 1.523 . S
C610 C591 1.368 . S
C610 C604 1.368 . S
C610 C609 1.523 . S
C611 C595 1.429 . S
C611 C607 1.429 . S
C611 C612 1.523 . S
C612 C596 1.368 . S
C612 C608 1.368 . S
C612 C611 1.523 . S
H613 C588 0.950 . S
H614 C590 0.950 . S
H615 C591 0.949 . S
H616 C593 0.950 . S
H617 C595 0.950 . S
C618 C619 1.349 . S
C618 C620 1.327 . S
C618 H643 0.950 . S
C619 C618 1.349 . S
C619 C635 1.349 . S
C620 C618 1.327 . S
C620 C639 1.429 . S
C620 H644 0.950 . S
C621 C638 1.574 . S
C621 C640 1.368 . S
C621 H645 0.949 . S
H622 C626 0.949 . S
C623 C624 1.349 . S
C623 C625 1.327 . S
C623 H646 0.950 . S
C624 C623 1.349 . S
C624 C636 1.349 . S
C625 C623 1.327 . S
C625 C641 1.429 . S
C625 H647 0.950 . S
C626 H622 0.949 . S
C626 C634 1.574 . S
C626 C642 1.368 . S
H627 C635 0.950 . S
H628 C633 0.950 . S
H629 C634 0.949 . S
H630 C636 0.950 . S
H631 C637 0.950 . S
H632 C638 0.949 . S
C633 H628 0.950 . S
C633 C635 1.327 . S
C633 C639 1.429 . S
C634 C626 1.574 . S
C634 H629 0.949 . S
C634 C640 1.368 1_545 S
C635 C619 1.349 . S
C635 H627 0.950 . S
C635 C633 1.327 . S
C636 C624 1.349 . S
C636 H630 0.950 . S
C636 C637 1.327 . S
C637 H631 0.950 . S
C637 C636 1.327 . S
C637 C641 1.429 . S
C638 C621 1.574 . S
C638 H632 0.949 . S
C638 C642 1.368 1_565 S
C639 C620 1.429 . S
C639 C633 1.429 . S
C639 C640 1.523 . S
C640 C621 1.368 . S
C640 C634 1.368 1_565 S
C640 C639 1.523 . S
C641 C625 1.429 . S
C641 C637 1.429 . S
C641 C642 1.523 . S
C642 C626 1.368 . S
C642 C638 1.368 1_545 S
C642 C641 1.523 . S
H643 C618 0.950 . S
H644 C620 0.950 . S
H645 C621 0.949 . S
H646 C623 0.950 . S
H647 C625 0.950 . S
C648 C649 1.349 . S
C648 C650 1.327 . S
C648 H673 0.950 . S
C649 C648 1.349 . S
C649 C665 1.349 . S
C650 C648 1.327 . S
C650 C669 1.429 . S
C650 H674 0.950 . S
C651 C668 1.574 . S
C651 C670 1.368 . S
C651 H675 0.949 . S
H652 C656 0.949 . S
C653 C654 1.349 . S
C653 C655 1.327 . S
C653 H676 0.950 . S
C654 C653 1.349 . S
C654 C666 1.349 . S
C655 C653 1.327 . S
C655 C671 1.429 . S
C655 H677 0.950 . S
C656 H652 0.949 . S
C656 C664 1.574 . S
C656 C672 1.368 . S
H657 C665 0.950 . S
H658 C663 0.950 . S
H659 C664 0.949 . S
H660 C666 0.950 . S
H661 C667 0.950 . S
H662 C668 0.949 . S
C663 H658 0.950 . S
C663 C665 1.327 . S
C663 C669 1.429 . S
C664 C656 1.574 . S
C664 H659 0.949 . S
C664 C670 1.368 1_455 S
C665 C649 1.349 . S
C665 H657 0.950 . S
C665 C663 1.327 . S
C666 C654 1.349 . S
C666 H660 0.950 . S
C666 C667 1.327 . S
C667 H661 0.950 . S
C667 C666 1.327 . S
C667 C671 1.429 . S
C668 C651 1.574 . S
C668 H662 0.949 . S
C668 C672 1.368 1_655 S
C669 C650 1.429 . S
C669 C663 1.429 . S
C669 C670 1.523 . S
C670 C651 1.368 . S
C670 C664 1.368 1_655 S
C670 C669 1.523 . S
C671 C655 1.429 . S
C671 C667 1.429 . S
C671 C672 1.523 . S
C672 C656 1.368 . S
C672 C668 1.368 1_455 S
C672 C671 1.523 . S
H673 C648 0.950 . S
H674 C650 0.950 . S
H675 C651 0.949 . S
H676 C653 0.950 . S
H677 C655 0.950 . S
C678 C679 1.349 . S
C678 C680 1.327 . S
C678 H703 0.950 . S
C679 C678 1.349 . S
C679 C695 1.349 . S
C680 C678 1.327 . S
C680 C699 1.429 . S
C680 H704 0.950 . S
C681 C698 1.574 . S
C681 C700 1.368 . S
C681 H705 0.949 . S
H682 C686 0.949 . S
C683 C684 1.349 . S
C683 C685 1.327 . S
C683 H706 0.950 . S
C684 C683 1.349 . S
C684 C696 1.349 . S
C685 C683 1.327 . S
C685 C701 1.429 . S
C685 H707 0.950 . S
C686 H682 0.949 . S
C686 C694 1.574 . S
C686 C702 1.368 . S
H687 C695 0.950 . S
H688 C693 0.950 . S
H689 C694 0.949 . S
H690 C696 0.950 . S
H691 C697 0.950 . S
H692 C698 0.949 . S
C693 H688 0.950 . S
C693 C695 1.327 . S
C693 C699 1.429 . S
C694 C686 1.574 . S
C694 H689 0.949 . S
C694 C700 1.368 . S
C695 C679 1.349 . S
C695 H687 0.950 . S
C695 C693 1.327 . S
C696 C684 1.349 . S
C696 H690 0.950 . S
C696 C697 1.327 . S
C697 H691 0.950 . S
C697 C696 1.327 . S
C697 C701 1.429 . S
C698 C681 1.574 . S
C698 H692 0.949 . S
C698 C702 1.368 . S
C699 C680 1.429 . S
C699 C693 1.429 . S
C699 C700 1.523 . S
C700 C681 1.368 . S
C700 C694 1.368 . S
C700 C699 1.523 . S
C701 C685 1.429 . S
C701 C697 1.429 . S
C701 C702 1.523 . S
C702 C686 1.368 . S
C702 C698 1.368 . S
C702 C701 1.523 . S
H703 C678 0.950 . S
H704 C680 0.950 . S
H705 C681 0.949 . S
H706 C683 0.950 . S
H707 C685 0.950 . S
C708 C709 1.349 . S
C708 C710 1.327 . S
C708 H733 0.950 . S
C709 C708 1.349 . S
C709 C725 1.349 . S
C710 C708 1.327 . S
C710 C729 1.429 . S
C710 H734 0.950 . S
C711 C728 1.574 1_545 S
C711 C730 1.368 . S
C711 H735 0.949 . S
H712 C716 0.949 . S
C713 C714 1.349 . S
C713 C715 1.327 . S
C713 H736 0.950 . S
C714 C713 1.349 . S
C714 C726 1.349 . S
C715 C713 1.327 . S
C715 C731 1.429 . S
C715 H737 0.950 . S
C716 H712 0.949 . S
C716 C724 1.574 1_565 S
C716 C732 1.368 . S
H717 C725 0.950 . S
H718 C723 0.950 . S
H719 C724 0.949 . S
H720 C726 0.950 . S
H721 C727 0.950 . S
H722 C728 0.949 . S
C723 H718 0.950 . S
C723 C725 1.327 . S
C723 C729 1.429 . S
C724 C716 1.574 1_545 S
C724 H719 0.949 . S
C724 C730 1.368 . S
C725 C709 1.349 . S
C725 H717 0.950 . S
C725 C723 1.327 . S
C726 C714 1.349 . S
C726 H720 0.950 . S
C726 C727 1.327 . S
C727 H721 0.950 . S
C727 C726 1.327 . S
C727 C731 1.429 . S
C728 C711 1.574 1_565 S
C728 H722 0.949 . S
C728 C732 1.368 . S
C729 C710 1.429 . S
C729 C723 1.429 . S
C729 C730 1.523 . S
C730 C711 1.368 . S
C730 C724 1.368 . S
C730 C729 1.523 . S
C731 C715 1.429 . S
C731 C727 1.429 . S
C731 C732 1.523 . S
C732 C716 1.368 . S
C732 C728 1.368 . S
C732 C731 1.523 . S
H733 C708 0.950 . S
H734 C710 0.950 . S
H735 C711 0.949 . S
H736 C713 0.950 . S
H737 C715 0.950 . S
C738 C739 1.349 . S
C738 C740 1.327 . S
C738 H763 0.950 . S
C739 C738 1.349 . S
C739 C755 1.349 . S
C740 C738 1.327 . S
C740 C759 1.429 . S
C740 H764 0.950 . S
C741 C758 1.574 1_655 S
C741 C760 1.368 . S
C741 H765 0.949 . S
H742 C746 0.949 . S
C743 C744 1.349 . S
C743 C745 1.327 . S
C743 H766 0.950 . S
C744 C743 1.349 . S
C744 C756 1.349 . S
C745 C743 1.327 . S
C745 C761 1.429 . S
C745 H767 0.950 . S
C746 H742 0.949 . S
C746 C754 1.574 1_455 S
C746 C762 1.368 . S
H747 C755 0.950 . S
H748 C753 0.950 . S
H749 C754 0.949 . S
H750 C756 0.950 . S
H751 C757 0.950 . S
H752 C758 0.949 . S
C753 H748 0.950 . S
C753 C755 1.327 . S
C753 C759 1.429 . S
C754 C746 1.574 1_655 S
C754 H749 0.949 . S
C754 C760 1.368 1_545 S
C755 C739 1.349 . S
C755 H747 0.950 . S
C755 C753 1.327 . S
C756 C744 1.349 . S
C756 H750 0.950 . S
C756 C757 1.327 . S
C757 H751 0.950 . S
C757 C756 1.327 . S
C757 C761 1.429 . S
C758 C741 1.574 1_455 S
C758 H752 0.949 . S
C758 C762 1.368 1_565 S
C759 C740 1.429 . S
C759 C753 1.429 . S
C759 C760 1.523 . S
C760 C741 1.368 . S
C760 C754 1.368 1_565 S
C760 C759 1.523 . S
C761 C745 1.429 . S
C761 C757 1.429 . S
C761 C762 1.523 . S
C762 C746 1.368 . S
C762 C758 1.368 1_545 S
C762 C761 1.523 . S
H763 C738 0.950 . S
H764 C740 0.950 . S
H765 C741 0.949 . S
H766 C743 0.950 . S
H767 C745 0.950 . S
C289 C14 1.012 . S
C294 C182 1.008 . S
C319 C50 0.957 . S
C324 C230 0.957 . S
C349 C74 1.008 . S
C354 C266 1.012 . S
C379 C110 1.060 . S
C384 C146 1.060 . S
C409 C254 1.060 . S
C414 C2 1.060 . S
C439 C158 1.012 . S
C444 C38 1.008 . S
C469 C86 0.957 . S
C474 C194 0.957 . S
C499 C218 1.008 . S
C504 C122 1.012 . S
C529 C4 1.582 . S
C534 C219 1.577 . S
C559 C255 1.577 . S
C564 C40 1.582 . S
C589 C75 1.577 . S
C594 C148 1.582 . S
C619 C111 1.577 . S
C624 C184 1.582 . S
C649 C220 1.582 . S
C654 C3 1.577 . S
C679 C256 1.582 . S
C684 C39 1.577 . S
C709 C76 1.582 . S
C714 C147 1.577 . S
C739 C112 1.582 . S
C744 C183 1.577 . S
