# Generated by pormake.
# Topology umw, (4)-cn, num edge types: 1
# Building blocks:
#     Node 0, Type 0, BuildingBlock: ICAMEG_clean_sbu_1, # of connection points: 4
#     Node 1, Type 0, BuildingBlock: ICAMEG_clean_sbu_1, # of connection points: 4
#     Node 2, Type 0, BuildingBlock: ICAMEG_clean_sbu_1, # of connection points: 4
#     Node 3, Type 0, BuildingBlock: ICAMEG_clean_sbu_1, # of connection points: 4
#     Node 4, Type 0, BuildingBlock: ICAMEG_clean_sbu_1, # of connection points: 4
#     Node 5, Type 0, BuildingBlock: ICAMEG_clean_sbu_1, # of connection points: 4
#     Node 6, Type 0, BuildingBlock: ICAMEG_clean_sbu_1, # of connection points: 4
#     Node 7, Type 0, BuildingBlock: ICAMEG_clean_sbu_1, # of connection points: 4
#     Edge 8, Type (0, 0), BuildingBlock: XIVTED_clean_linker_0, # of connection points: 2
#     Edge 9, Type (0, 0), BuildingBlock: XIVTED_clean_linker_0, # of connection points: 2
#     Edge 10, Type (0, 0), BuildingBlock: XIVTED_clean_linker_0, # of connection points: 2
#     Edge 11, Type (0, 0), BuildingBlock: XIVTED_clean_linker_0, # of connection points: 2
#     Edge 12, Type (0, 0), BuildingBlock: XIVTED_clean_linker_0, # of connection points: 2
#     Edge 13, Type (0, 0), BuildingBlock: XIVTED_clean_linker_0, # of connection points: 2
#     Edge 14, Type (0, 0), BuildingBlock: XIVTED_clean_linker_0, # of connection points: 2
#     Edge 15, Type (0, 0), BuildingBlock: XIVTED_clean_linker_0, # of connection points: 2
#     Edge 16, Type (0, 0), BuildingBlock: XIVTED_clean_linker_0, # of connection points: 2
#     Edge 17, Type (0, 0), BuildingBlock: XIVTED_clean_linker_0, # of connection points: 2
#     Edge 18, Type (0, 0), BuildingBlock: XIVTED_clean_linker_0, # of connection points: 2
#     Edge 19, Type (0, 0), BuildingBlock: XIVTED_clean_linker_0, # of connection points: 2
#     Edge 20, Type (0, 0), BuildingBlock: XIVTED_clean_linker_0, # of connection points: 2
#     Edge 21, Type (0, 0), BuildingBlock: XIVTED_clean_linker_0, # of connection points: 2
#     Edge 22, Type (0, 0), BuildingBlock: XIVTED_clean_linker_0, # of connection points: 2
#     Edge 23, Type (0, 0), BuildingBlock: XIVTED_clean_linker_0, # of connection points: 2
# Relax obj value: 0.119
# Max RMSD: 0.128
# Mean RMSD: 0.128
data_MOF--net-umw--node1-ICAMEG_clean_sbu_1--edge1-XIVTED_clean_linker_0
_symmetry_space_group_name_H-M    P1
_symmetry_Int_Tables_number       1
_symmetry_cell_setting            triclinic
loop_
_symmetry_equiv_pos_as_xyz
'x, y, z'
_cell_length_a     42.97326
_cell_length_b     42.983801
_cell_length_c     29.154791
_cell_angle_alpha  90.101494
_cell_angle_beta   89.932912
_cell_angle_gamma 89.981251
loop_
_atom_site_label
_atom_site_type_symbol
_atom_site_fract_x
_atom_site_fract_y
_atom_site_fract_z
_atom_type_partial_charge
Co0 Co 0.4582 0.19975 0.32703 0.0
Co1 Co 0.38551 0.18178 0.3709 0.0
O2 O 0.41274 0.20344 0.32766 0.0
C3 C 0.44179 0.17659 0.2354 0.0
O4 O 0.41983 0.16009 0.25507 0.0
C5 C 0.36917 0.24787 0.38959 0.0
O6 O 0.39897 0.25451 0.39107 0.0
O7 O 0.41226 0.19358 0.42392 0.0
O8 O 0.4596 0.20347 0.39463 0.0
H9 H 0.36156 0.11017 0.50233 0.0
H10 H 0.42732 0.24623 0.2676 0.0
O11 O 0.45806 0.19545 0.25897 0.0
H12 H 0.49525 0.30695 0.37043 0.0
H13 H 0.56545 0.22185 0.26554 0.0
H14 H 0.50483 0.16635 0.38352 0.0
H15 H 0.49341 0.24972 0.37566 0.0
H16 H 0.50822 0.22606 0.26769 0.0
O17 O 0.3602 0.22036 0.38017 0.0
H18 H 0.39554 0.13751 0.44738 0.0
H19 H 0.31684 0.18036 0.38613 0.0
H20 H 0.56204 0.16173 0.38288 0.0
H21 H 0.42862 0.30344 0.26093 0.0
H22 H 0.59274 0.1896 0.32356 0.0
H23 H 0.46272 0.33418 0.31268 0.0
O24 O 0.45647 0.15333 0.33246 0.0
H25 H 0.32576 0.20157 0.22587 0.0
H26 H 0.35735 0.12219 0.3385 0.0
H27 H 0.32537 0.10678 0.27208 0.0
H28 H 0.3093 0.14664 0.21523 0.0
H29 H 0.35802 0.2159 0.29262 0.0
H30 H 0.28202 0.15369 0.44066 0.0
H31 H 0.30435 0.11821 0.49919 0.0
O32 O 0.40973 0.14281 0.36308 0.0
C33 C 0.44094 0.20067 0.42825 0.0
C34 C 0.35154 0.12552 0.47692 0.0
C35 C 0.30691 0.14997 0.44235 0.0
N36 N 0.35818 0.16038 0.41343 0.0
C37 C 0.37066 0.141 0.44564 0.0
C38 C 0.32675 0.16508 0.41164 0.0
C39 C 0.31945 0.13006 0.47516 0.0
C40 C 0.44238 0.25946 0.29 0.0
N41 N 0.46035 0.24467 0.32184 0.0
C42 C 0.44294 0.29184 0.28617 0.0
C43 C 0.46206 0.30908 0.31525 0.0
C44 C 0.4803 0.29381 0.34768 0.0
C45 C 0.47911 0.26141 0.35056 0.0
C46 C 0.55234 0.20964 0.29161 0.0
C47 C 0.51804 0.17871 0.35777 0.0
C48 C 0.51993 0.21188 0.29294 0.0
N49 N 0.50323 0.19665 0.3259 0.0
C50 C 0.55043 0.17593 0.3575 0.0
C51 C 0.56764 0.19155 0.32418 0.0
C52 C 0.43625 0.13434 0.34806 0.0
C53 C 0.33255 0.184 0.25046 0.0
C54 C 0.35056 0.13965 0.31384 0.0
C55 C 0.33238 0.1308 0.27635 0.0
C56 C 0.32336 0.15317 0.24448 0.0
N57 N 0.35943 0.16995 0.31951 0.0
C58 C 0.35071 0.192 0.28839 0.0
Co59 Co 0.78573 0.46637 0.56102 0.0
Co60 Co 0.81014 0.39364 0.59688 0.0
O61 O 0.7812 0.42104 0.56454 0.0
C62 C 0.79171 0.44639 0.46489 0.0
O63 O 0.80647 0.42163 0.47966 0.0
C64 C 0.74962 0.38257 0.64469 0.0
O65 O 0.74265 0.41215 0.6403 0.0
O66 O 0.81347 0.42311 0.64974 0.0
O67 O 0.79227 0.4685 0.62786 0.0
H68 H 0.90757 0.36878 0.68462 0.0
H69 H 0.73082 0.43608 0.51893 0.0
O70 O 0.77989 0.46555 0.49325 0.0
H71 H 0.68842 0.50655 0.63716 0.0
H72 H 0.75714 0.57349 0.5055 0.0
H73 H 0.8278 0.51273 0.60394 0.0
H74 H 0.74501 0.50332 0.62371 0.0
H75 H 0.75211 0.51643 0.51054 0.0
O76 O 0.775 0.37187 0.62846 0.0
H77 H 0.87065 0.40279 0.64375 0.0
H78 H 0.81115 0.32577 0.61843 0.0
H79 H 0.83345 0.56977 0.60025 0.0
H80 H 0.67403 0.43874 0.53098 0.0
H81 H 0.79797 0.60054 0.55072 0.0
H82 H 0.65251 0.47413 0.59055 0.0
O83 O 0.83193 0.46365 0.55124 0.0
H84 H 0.75321 0.33077 0.47829 0.0
H85 H 0.85628 0.35917 0.53954 0.0
H86 H 0.85281 0.32359 0.47328 0.0
H87 H 0.80096 0.30911 0.44229 0.0
H88 H 0.7578 0.36655 0.54421 0.0
H89 H 0.84729 0.29098 0.65939 0.0
H90 H 0.89597 0.31244 0.69267 0.0
O91 O 0.84586 0.41435 0.56656 0.0
C92 C 0.80508 0.45113 0.65757 0.0
C93 C 0.88648 0.35913 0.67016 0.0
C94 C 0.85263 0.31548 0.65606 0.0
N95 N 0.83886 0.36626 0.6285 0.0
C96 C 0.86553 0.37826 0.64688 0.0
C97 C 0.83221 0.33531 0.63301 0.0
C98 C 0.87994 0.32753 0.67471 0.0
C99 C 0.72158 0.45171 0.54464 0.0
N100 N 0.74117 0.46962 0.57043 0.0
C101 C 0.68943 0.45304 0.55143 0.0
C102 C 0.67738 0.47287 0.5849 0.0
C103 C 0.69752 0.49106 0.61109 0.0
C104 C 0.72954 0.48908 0.60339 0.0
C105 C 0.77271 0.56034 0.52726 0.0
C106 C 0.81215 0.52597 0.58252 0.0
C107 C 0.77003 0.52803 0.53017 0.0
N108 N 0.78953 0.51129 0.55772 0.0
C109 C 0.81552 0.55826 0.58048 0.0
C110 C 0.79562 0.57551 0.55265 0.0
C111 C 0.852 0.44178 0.55293 0.0
C112 C 0.77593 0.33685 0.49154 0.0
C113 C 0.83366 0.3531 0.52611 0.0
C114 C 0.83183 0.33287 0.48867 0.0
C115 C 0.80273 0.32474 0.47132 0.0
N116 N 0.80726 0.36484 0.54578 0.0
C117 C 0.77866 0.357 0.52895 0.0
Co118 Co 0.55238 0.79768 0.80283 0.0
Co119 Co 0.62578 0.81639 0.84314 0.0
O120 O 0.59748 0.79166 0.8053 0.0
C121 C 0.57017 0.81132 0.70745 0.0
O122 O 0.59241 0.82923 0.72337 0.0
C123 C 0.63454 0.75181 0.87746 0.0
O124 O 0.60456 0.74708 0.87249 0.0
O125 O 0.59683 0.81536 0.89673 0.0
O126 O 0.55017 0.80026 0.87027 0.0
H127 H 0.65411 0.90357 0.95027 0.0
H128 H 0.58103 0.74455 0.75353 0.0
O129 O 0.55331 0.7955 0.7346 0.0
H130 H 0.50902 0.69757 0.86554 0.0
H131 H 0.44456 0.7761 0.74328 0.0
H132 H 0.50719 0.83839 0.85127 0.0
H133 H 0.51399 0.75459 0.85968 0.0
H134 H 0.50144 0.76901 0.74767 0.0
O135 O 0.6466 0.77781 0.86636 0.0
H136 H 0.61874 0.87203 0.90253 0.0
H137 H 0.69371 0.81314 0.86372 0.0
H138 H 0.45035 0.84602 0.84827 0.0
H139 H 0.57661 0.6874 0.75799 0.0
H140 H 0.41864 0.81475 0.79395 0.0
H141 H 0.54046 0.66357 0.81442 0.0
O142 O 0.55669 0.84415 0.79982 0.0
H143 H 0.68614 0.77006 0.71209 0.0
H144 H 0.66142 0.86661 0.79612 0.0
H145 H 0.69653 0.86874 0.72921 0.0
H146 H 0.70917 0.82018 0.68678 0.0
H147 H 0.65087 0.76909 0.77893 0.0
H148 H 0.72983 0.84388 0.91136 0.0
H149 H 0.71009 0.88953 0.95492 0.0
O150 O 0.60574 0.85528 0.82132 0.0
C151 C 0.56819 0.8086 0.90253 0.0
C152 C 0.66301 0.88378 0.93135 0.0
C153 C 0.7055 0.85025 0.90957 0.0
N154 N 0.65418 0.8409 0.88015 0.0
C155 C 0.64311 0.86589 0.90416 0.0
C156 C 0.68492 0.83289 0.88275 0.0
C157 C 0.69441 0.87588 0.93398 0.0
C158 C 0.56505 0.73433 0.77789 0.0
N159 N 0.5477 0.75287 0.80617 0.0
C160 C 0.56273 0.70197 0.78038 0.0
C161 C 0.54248 0.68861 0.81209 0.0
C162 C 0.52484 0.70768 0.84081 0.0
C163 C 0.5278 0.73995 0.8374 0.0
C164 C 0.45812 0.78982 0.76714 0.0
C165 C 0.49353 0.82455 0.82774 0.0
C166 C 0.49034 0.78596 0.76972 0.0
N167 N 0.5076 0.80311 0.79994 0.0
C168 C 0.46137 0.82904 0.8261 0.0
C169 C 0.44359 0.81151 0.7956 0.0
C170 C 0.57884 0.86333 0.80729 0.0
C171 C 0.68085 0.79137 0.73033 0.0
C172 C 0.66664 0.84544 0.77763 0.0
C173 C 0.68663 0.84676 0.73988 0.0
C174 C 0.69373 0.81951 0.71612 0.0
N175 N 0.65414 0.81776 0.7914 0.0
C176 C 0.66097 0.79094 0.76827 0.0
Co177 Co 0.20492 0.54056 0.04802 0.0
Co178 Co 0.19392 0.6165 0.08441 0.0
O179 O 0.21273 0.58536 0.04405 0.0
C180 C 0.18155 0.55591 0.95628 0.0
O181 O 0.16831 0.5803 0.97514 0.0
C182 C 0.26129 0.62721 0.10292 0.0
O183 O 0.26505 0.59718 0.10898 0.0
O184 O 0.20271 0.59101 0.14003 0.0
O185 O 0.21007 0.54193 0.11546 0.0
H186 H 0.12485 0.6536 0.21255 0.0
H187 H 0.25244 0.56422 0.98319 0.0
O188 O 0.19885 0.53819 0.98017 0.0
H189 H 0.3094 0.49584 0.08972 0.0
H190 H 0.21586 0.42932 -0.00388 0.0
H191 H 0.16908 0.49973 0.11078 0.0
H192 H 0.25273 0.50329 0.09769 0.0
H193 H 0.22508 0.4859 -0.00766 0.0
O194 O 0.23486 0.63806 0.09136 0.0
H195 H 0.14859 0.61458 0.16118 0.0
H196 H 0.19973 0.68543 0.09324 0.0
H197 H 0.15948 0.44329 0.11608 0.0
H198 H 0.30909 0.55724 0.97372 0.0
H199 H 0.18295 0.40766 0.05846 0.0
H200 H 0.33794 0.52288 0.0273 0.0
O201 O 0.15902 0.54668 0.05577 0.0
H202 H 0.21986 0.66714 0.93401 0.0
H203 H 0.13763 0.6493 0.04906 0.0
H204 H 0.12564 0.67963 0.97958 0.0
H205 H 0.16695 0.68878 0.9215 0.0
H206 H 0.23075 0.63667 0.00383 0.0
H207 H 0.17675 0.72518 0.14413 0.0
H208 H 0.13892 0.70935 0.2042 0.0
O209 O 0.15269 0.59612 0.07879 0.0
C210 C 0.20802 0.5622 0.14721 0.0
C211 C 0.14125 0.6608 0.18643 0.0
C212 C 0.17041 0.70096 0.14808 0.0
N213 N 0.1754 0.64773 0.12409 0.0
C214 C 0.15471 0.63882 0.15717 0.0
C215 C 0.18341 0.67834 0.11944 0.0
C216 C 0.14918 0.69207 0.18176 0.0
C217 C 0.26483 0.54906 0.00642 0.0
N218 N 0.24931 0.53407 0.0408 0.0
C219 C 0.2969 0.54527 0.00099 0.0
C220 C 0.31308 0.52602 0.0311 0.0
C221 C 0.29708 0.51086 0.06615 0.0
C222 C 0.26501 0.51522 0.07056 0.0
C223 C 0.20555 0.4446 0.02148 0.0
C224 C 0.17953 0.48436 0.08574 0.0
C225 C 0.21064 0.47666 0.01946 0.0
N226 N 0.19782 0.49607 0.05151 0.0
C227 C 0.17394 0.45243 0.08884 0.0
C228 C 0.18709 0.43246 0.05647 0.0
C229 C 0.14194 0.56944 0.06838 0.0
C230 C 0.20169 0.66337 0.95911 0.0
C231 C 0.15569 0.65307 0.02387 0.0
C232 C 0.14879 0.67034 0.98465 0.0
C233 C 0.17198 0.67547 0.95209 0.0
N234 N 0.18489 0.64131 0.03055 0.0
C235 C 0.20774 0.64624 -0.00123 0.0
Co236 Co 0.48679 0.84308 0.30415 0.0
Co237 Co 0.41127 0.85143 0.26532 0.0
O238 O 0.443 0.83052 0.30207 0.0
C239 C 0.47273 0.84812 0.40366 0.0
O240 O 0.45217 0.86994 0.39521 0.0
C241 C 0.40711 0.7863 0.2311 0.0
O242 O 0.43762 0.78492 0.23022 0.0
O243 O 0.43857 0.8506 0.20999 0.0
O244 O 0.48734 0.85093 0.23745 0.0
H245 H 0.37214 0.93204 0.15497 0.0
H246 H 0.46734 0.78262 0.34387 0.0
O247 O 0.48754 0.8349 0.37131 0.0
H248 H 0.54336 0.75629 0.22304 0.0
H249 H 0.59782 0.83345 0.35726 0.0
H250 H 0.52436 0.8937 0.26268 0.0
H251 H 0.53008 0.81102 0.23931 0.0
H252 H 0.54258 0.81827 0.35267 0.0
O253 O 0.39334 0.81054 0.24603 0.0
H254 H 0.41153 0.90531 0.20217 0.0
H255 H 0.34328 0.84158 0.24971 0.0
H256 H 0.57946 0.90955 0.26601 0.0
H257 H 0.48019 0.72759 0.329 0.0
H258 H 0.61662 0.87932 0.31357 0.0
H259 H 0.51838 0.71413 0.2681 0.0
O260 O 0.47554 0.88761 0.31498 0.0
H261 H 0.3612 0.80412 0.4044 0.0
H262 H 0.37041 0.8988 0.3103 0.0
H263 H 0.33752 0.89967 0.37967 0.0
H264 H 0.33269 0.85201 0.4272 0.0
H265 H 0.39415 0.80451 0.33503 0.0
H266 H 0.30324 0.86737 0.20261 0.0
H267 H 0.31756 0.91304 0.15498 0.0
O268 O 0.42801 0.89288 0.2837 0.0
C269 C 0.46799 0.8518 0.20459 0.0
C270 C 0.3656 0.91221 0.17567 0.0
C271 C 0.32694 0.87588 0.20236 0.0
N272 N 0.37967 0.87205 0.22887 0.0
C273 C 0.38777 0.89705 0.20257 0.0
C274 C 0.34973 0.86131 0.22883 0.0
C275 C 0.33498 0.90152 0.17566 0.0
C276 C 0.48421 0.77696 0.31761 0.0
N277 N 0.49805 0.80003 0.29267 0.0
C278 C 0.4913 0.74575 0.30922 0.0
C279 C 0.51269 0.73822 0.27501 0.0
C280 C 0.52671 0.76186 0.24969 0.0
C281 C 0.51904 0.79281 0.25901 0.0
C282 C 0.58187 0.84677 0.33635 0.0
C283 C 0.54042 0.88033 0.28325 0.0
C284 C 0.55055 0.83833 0.33369 0.0
N285 N 0.5303 0.85495 0.30716 0.0
C286 C 0.57158 0.88946 0.28509 0.0
C287 C 0.59241 0.8725 0.31182 0.0
C288 C 0.45212 0.90403 0.30324 0.0
C289 C 0.36318 0.82507 0.38405 0.0
C290 C 0.36879 0.87819 0.33118 0.0
C291 C 0.34995 0.87871 0.37024 0.0
C292 C 0.34721 0.85195 0.39684 0.0
N293 N 0.38447 0.85179 0.31894 0.0
C294 C 0.38179 0.82542 0.34474 0.0
Co295 Co 0.14309 0.48188 0.54787 0.0
Co296 Co 0.13616 0.40908 0.4989 0.0
O297 O 0.15181 0.43715 0.54641 0.0
C298 C 0.11784 0.4912 0.64077 0.0
O299 O 0.09348 0.50394 0.62113 0.0
C300 C 0.20423 0.39836 0.49174 0.0
O301 O 0.20815 0.42865 0.49148 0.0
O302 O 0.15107 0.43735 0.44976 0.0
O303 O 0.14716 0.48519 0.48015 0.0
H304 H 0.0791 0.38236 0.3538 0.0
H305 H 0.19286 0.45577 0.60671 0.0
O306 O 0.1394 0.4794 0.61621 0.0
H307 H 0.24555 0.53156 0.50641 0.0
H308 H 0.15455 0.59104 0.60932 0.0
H309 H 0.10302 0.5245 0.49428 0.0
H310 H 0.18892 0.52339 0.50078 0.0
H311 H 0.16527 0.5347 0.60635 0.0
O312 O 0.17711 0.38686 0.4968 0.0
H313 H 0.09862 0.41724 0.41458 0.0
H314 H 0.14141 0.34081 0.48175 0.0
H315 H 0.09167 0.58075 0.49598 0.0
H316 H 0.24949 0.46351 0.61385 0.0
H317 H 0.11752 0.61442 0.55383 0.0
H318 H 0.27623 0.50157 0.56336 0.0
O319 O 0.09748 0.47397 0.5415 0.0
H320 H 0.14717 0.348 0.64469 0.0
H321 H 0.07648 0.37593 0.51815 0.0
H322 H 0.05784 0.34126 0.57961 0.0
H323 H 0.09333 0.32698 0.64339 0.0
H324 H 0.16476 0.38288 0.58269 0.0
H325 H 0.1226 0.30514 0.42149 0.0
H326 H 0.09109 0.32587 0.35703 0.0
O327 O 0.09487 0.43024 0.49952 0.0
C328 C 0.15252 0.46688 0.44671 0.0
C329 C 0.09273 0.37303 0.38178 0.0
C330 C 0.11718 0.3297 0.41974 0.0
N331 N 0.12093 0.38103 0.45182 0.0
C332 C 0.10377 0.39265 0.41635 0.0
C333 C 0.12783 0.35002 0.4537 0.0
C334 C 0.09949 0.34134 0.38359 0.0
C335 C 0.20425 0.47261 0.58494 0.0
N336 N 0.18751 0.48923 0.55357 0.0
C337 C 0.23636 0.4768 0.589 0.0
C338 C 0.25136 0.49812 0.56062 0.0
C339 C 0.23416 0.51493 0.52864 0.0
C340 C 0.20209 0.51013 0.52551 0.0
C341 C 0.14316 0.57662 0.58392 0.0
C342 C 0.11439 0.53901 0.51951 0.0
C343 C 0.14915 0.54471 0.58206 0.0
N344 N 0.13481 0.52633 0.5501 0.0
C345 C 0.10786 0.57084 0.52032 0.0
C346 C 0.12238 0.58972 0.55279 0.0
C347 C 0.08219 0.45366 0.51889 0.0
C348 C 0.1315 0.35401 0.61704 0.0
C349 C 0.092 0.37 0.54593 0.0
C350 C 0.08135 0.35026 0.58056 0.0
C351 C 0.10128 0.34225 0.61631 0.0
N352 N 0.12171 0.38134 0.54681 0.0
C353 C 0.14136 0.37367 0.58181 0.0
Co354 Co 0.52872 0.1538 0.83115 0.0
Co355 Co 0.60156 0.15197 0.78092 0.0
O356 O 0.57283 0.16518 0.82932 0.0
C357 C 0.52129 0.12574 0.92225 0.0
O358 O 0.51043 0.10105 0.90103 0.0
C359 C 0.60776 0.22073 0.77427 0.0
O360 O 0.57729 0.22281 0.77275 0.0
O361 O 0.57187 0.16504 0.73219 0.0
O362 O 0.5247 0.15913 0.76404 0.0
H363 H 0.63135 0.09795 0.63434 0.0
H364 H 0.55238 0.20352 0.89242 0.0
O365 O 0.53184 0.14858 0.89914 0.0
H366 H 0.47289 0.25414 0.79618 0.0
H367 H 0.41948 0.15765 0.89444 0.0
H368 H 0.48807 0.11254 0.776 0.0
H369 H 0.48431 0.19827 0.78716 0.0
H370 H 0.47509 0.17164 0.89138 0.0
O371 O 0.62083 0.19437 0.77958 0.0
H372 H 0.59558 0.1144 0.69605 0.0
H373 H 0.66912 0.16242 0.7628 0.0
H374 H 0.43257 0.09797 0.77776 0.0
H375 H 0.54141 0.25939 0.90295 0.0
H376 H 0.39787 0.12058 0.83732 0.0
H377 H 0.50147 0.28509 0.85452 0.0
O378 O 0.53916 0.10895 0.82198 0.0
H379 H 0.66273 0.16626 0.92614 0.0
H380 H 0.63923 0.0948 0.79832 0.0
H381 H 0.67566 0.07826 0.85885 0.0
H382 H 0.68771 0.11417 0.92327 0.0
H383 H 0.62617 0.18172 0.86506 0.0
H384 H 0.70561 0.14673 0.70162 0.0
H385 H 0.6868 0.11415 0.6369 0.0
O386 O 0.58339 0.10929 0.78097 0.0
C387 C 0.54224 0.16507 0.73004 0.0
C388 C 0.63984 0.11206 0.66244 0.0
C389 C 0.68152 0.13948 0.70016 0.0
N390 N 0.6303 0.13915 0.73314 0.0
C391 C 0.61972 0.12137 0.69753 0.0
C392 C 0.66073 0.14835 0.73465 0.0
C393 C 0.67095 0.12119 0.66387 0.0
C394 C 0.53475 0.21445 0.87153 0.0
N395 N 0.51888 0.19756 0.83944 0.0
C396 C 0.52873 0.24613 0.87751 0.0
C397 C 0.50635 0.26055 0.85028 0.0
C398 C 0.49033 0.2432 0.81752 0.0
C399 C 0.49697 0.21157 0.81248 0.0
C400 C 0.43435 0.14767 0.86829 0.0
C401 C 0.47311 0.12251 0.80198 0.0
C402 C 0.46586 0.15551 0.86637 0.0
N403 N 0.48482 0.14294 0.83348 0.0
C404 C 0.4417 0.11416 0.80282 0.0
C405 C 0.42225 0.12686 0.83625 0.0
C406 C 0.56051 0.09512 0.79936 0.0
C407 C 0.6577 0.15043 0.89821 0.0
C408 C 0.64417 0.11046 0.8264 0.0
C409 C 0.66492 0.10102 0.86049 0.0
C410 C 0.67169 0.12118 0.8966 0.0
N411 N 0.63063 0.13922 0.82814 0.0
C412 C 0.63708 0.15908 0.8635 0.0
Co413 Co 0.85224 0.51304 0.0517 0.0
Co414 Co 0.85355 0.59197 0.0324 0.0
O415 O 0.83518 0.55499 0.06034 0.0
C416 C 0.84669 0.5198 0.1516 0.0
O417 O 0.85941 0.54741 0.14742 0.0
C418 C 0.78782 0.59831 0.00133 0.0
O419 O 0.7886 0.5694 0.98672 0.0
O420 O 0.85192 0.57198 0.97082 0.0
O421 O 0.86258 0.52199 0.98674 0.0
H422 H 0.92796 0.64909 0.92964 0.0
H423 H 0.78865 0.52122 0.08948 0.0
O424 O 0.84221 0.50283 0.11653 0.0
H425 H 0.77522 0.45996 0.9477 0.0
H426 H 0.85294 0.39675 0.07211 0.0
H427 H 0.90804 0.4867 0.00578 0.0
H428 H 0.82752 0.47598 0.97311 0.0
H429 H 0.832 0.44983 0.08134 0.0
O430 O 0.81122 0.60998 0.02188 0.0
H431 H 0.90469 0.60284 0.96609 0.0
H432 H 0.8405 0.66009 0.03811 0.0
H433 H 0.92967 0.43401 -0.00457 0.0
H434 H 0.73592 0.5054 0.06556 0.0
H435 H 0.90205 0.38857 0.02873 0.0
H436 H 0.72896 0.47462 -0.00588 0.0
O437 O 0.89456 0.52693 0.07029 0.0
H438 H 0.80884 0.62241 0.18524 0.0
H439 H 0.90181 0.62631 0.08621 0.0
H440 H 0.90385 0.64957 0.16352 0.0
H441 H 0.85708 0.64774 0.21361 0.0
H442 H 0.80799 0.59912 0.10785 0.0
H443 H 0.86285 0.70692 0.0021 0.0
H444 H 0.90701 0.70159 0.94759 0.0
O445 O 0.89649 0.57545 0.04217 0.0
C446 C 0.85862 0.54426 0.95866 0.0
C447 C 0.90878 0.65172 0.95342 0.0
C448 C 0.87221 0.68417 -0.00596 0.0
N449 N 0.87141 0.62878 0.0044 0.0
C450 C 0.89557 0.62563 0.97425 0.0
C451 C 0.85959 0.65756 0.01422 0.0
C452 C 0.89699 0.68117 0.96348 0.0
C453 C 0.78582 0.50758 0.05859 0.0
N454 N 0.81115 0.4994 0.03288 0.0
C455 C 0.7559 0.49879 0.04512 0.0
C456 C 0.75201 0.48155 0.005 0.0
C457 C 0.77795 0.47333 0.97893 0.0
C458 C 0.80751 0.48253 -0.00655 0.0
C459 C 0.86516 0.41635 0.05738 0.0
C460 C 0.8958 0.46704 0.02017 0.0
C461 C 0.85345 0.44647 0.06259 0.0
N462 N 0.86868 0.47132 0.04388 0.0
C463 C 0.9082 0.43726 0.01429 0.0
C464 C 0.89271 0.41178 0.03302 0.0
C465 C 0.90945 0.5515 0.0595 0.0
C466 C 0.82936 0.62339 0.16373 0.0
C467 C 0.88148 0.6252 0.10791 0.0
C468 C 0.88271 0.63855 0.15158 0.0
C469 C 0.85645 0.63755 0.17964 0.0
N470 N 0.85485 0.6113 0.09257 0.0
C471 C 0.82898 0.61035 0.11982 0.0
H472 H 0.50015 0.21776 0.4517 0.0
H473 H 0.47994 0.16472 0.71173 0.0
H474 H 0.41278 0.18799 0.51069 0.0
H475 H 0.56903 0.1847 0.64936 0.0
H476 H 0.45433 0.17906 0.64074 0.0
H477 H 0.52453 0.21276 0.52655 0.0
C478 C 0.48593 0.21056 0.48047 0.0
C479 C 0.45438 0.20286 0.47468 0.0
C480 C 0.47946 0.18039 0.64255 0.0
C481 C 0.48241 0.19686 0.56047 0.0
C482 C 0.49421 0.17214 0.68313 0.0
C483 C 0.52681 0.17334 0.68654 0.0
C484 C 0.49734 0.1899 0.60489 0.0
C485 C 0.54389 0.18322 0.64822 0.0
C486 C 0.49997 0.20761 0.52321 0.0
C487 C 0.43718 0.19397 0.51341 0.0
N488 N 0.52892 0.19105 0.60887 0.0
N489 N 0.45153 0.1909 0.5546 0.0
H490 H 0.78708 0.50822 0.68954 0.0
H491 H 0.8879 0.4954 0.91805 0.0
H492 H 0.84189 0.42767 0.72614 0.0
H493 H 0.8267 0.57254 0.88896 0.0
H494 H 0.87647 0.47366 0.84285 0.0
H495 H 0.80469 0.53421 0.75898 0.0
C496 C 0.80263 0.49583 0.71234 0.0
C497 C 0.81294 0.46558 0.70199 0.0
C498 C 0.86581 0.49553 0.85259 0.0
C499 C 0.8335 0.49557 0.78134 0.0
C500 C 0.87249 0.50809 0.89539 0.0
C501 C 0.85791 0.53563 0.90988 0.0
C502 C 0.84427 0.51052 0.82412 0.0
C503 C 0.83841 0.55125 0.87907 0.0
C504 C 0.81281 0.51084 0.75187 0.0
C505 C 0.83315 0.45087 0.73282 0.0
N506 N 0.83178 0.53821 0.83774 0.0
N507 N 0.84282 0.46606 0.77109 0.0
H508 H 0.52669 0.86789 0.17854 0.0
H509 H 0.5089 0.79417 0.92898 0.0
H510 H 0.43992 0.83256 0.12501 0.0
H511 H 0.59432 0.83474 0.97945 0.0
H512 H 0.48345 0.80787 0.00064 0.0
H513 H 0.55134 0.85754 0.10497 0.0
C514 C 0.51269 0.85831 0.15106 0.0
C515 C 0.48122 0.85083 0.158 0.0
C516 C 0.50777 0.81371 -0.00387 0.0
C517 C 0.50952 0.83852 0.07381 0.0
C518 C 0.52246 0.80571 0.95527 0.0
C519 C 0.55389 0.81334 0.94805 0.0
C520 C 0.52455 0.82942 0.03021 0.0
C521 C 0.57012 0.8283 0.9835 0.0
C522 C 0.52685 0.8523 0.1091 0.0
C523 C 0.4642 0.83871 0.1211 0.0
N524 N 0.55521 0.83593 0.02304 0.0
N525 N 0.47869 0.83261 0.08063 0.0
H526 H 0.17513 0.43737 0.37013 0.0
H527 H 0.19317 0.59404 0.22606 0.0
H528 H 0.15397 0.52865 0.42421 0.0
H529 H 0.22176 0.50349 0.17694 0.0
H530 H 0.18261 0.57124 0.30111 0.0
H531 H 0.19439 0.46164 0.30004 0.0
C532 C 0.17437 0.46248 0.36723 0.0
C533 C 0.16276 0.48095 0.40307 0.0
C534 C 0.19156 0.55647 0.27402 0.0
C535 C 0.18508 0.50891 0.32312 0.0
C536 C 0.19781 0.56953 0.23121 0.0
C537 C 0.20792 0.5506 0.19486 0.0
C538 C 0.19534 0.52429 0.28037 0.0
C539 C 0.21357 0.51896 0.2037 0.0
C540 C 0.18561 0.47635 0.32732 0.0
C541 C 0.16264 0.51343 0.39748 0.0
N542 N 0.20682 0.50675 0.24536 0.0
N543 N 0.17355 0.52635 0.35822 0.0
H544 H 0.30638 0.23977 0.39521 0.0
H545 H 0.26554 0.41318 0.47402 0.0
H546 H 0.3777 0.3093 0.41463 0.0
H547 H 0.20258 0.33515 0.48345 0.0
H548 H 0.30681 0.37743 0.44873 0.0
H549 H 0.26764 0.27668 0.42186 0.0
C550 C 0.31396 0.26289 0.40489 0.0
C551 C 0.34548 0.27133 0.40282 0.0
C552 C 0.28397 0.36824 0.45664 0.0
C553 C 0.30084 0.314 0.43379 0.0
C554 C 0.26043 0.38858 0.47116 0.0
C555 C 0.23045 0.37721 0.4807 0.0
C556 C 0.27734 0.33643 0.45129 0.0
C557 C 0.22521 0.3451 0.47637 0.0
C558 C 0.29174 0.28398 0.42038 0.0
C559 C 0.35369 0.30176 0.41577 0.0
N560 N 0.24829 0.32598 0.46173 0.0
N561 N 0.33148 0.32205 0.43075 0.0
H562 H 0.76362 0.3253 0.67825 0.0
H563 H 0.5898 0.27917 0.74554 0.0
H564 H 0.68761 0.3905 0.66684 0.0
H565 H 0.67104 0.22444 0.7783 0.0
H566 H 0.62406 0.3211 0.71864 0.0
H567 H 0.72905 0.28867 0.71576 0.0
C568 C 0.73958 0.33196 0.68364 0.0
C569 C 0.72846 0.36099 0.66904 0.0
C570 C 0.63429 0.30002 0.73221 0.0
C571 C 0.68842 0.31879 0.71227 0.0
C572 C 0.61477 0.27611 0.74768 0.0
C573 C 0.62753 0.24806 0.76375 0.0
C574 C 0.66671 0.29571 0.73268 0.0
C575 C 0.66006 0.24543 0.76575 0.0
C576 C 0.71981 0.31101 0.70536 0.0
C577 C 0.69712 0.36835 0.67752 0.0
N578 N 0.67842 0.26876 0.75003 0.0
N579 N 0.67806 0.34724 0.69825 0.0
H580 H 0.78069 0.65938 0.0245 0.0
H581 H 0.62337 0.6889 0.88564 0.0
H582 H 0.73527 0.58515 0.9503 0.0
H583 H 0.6916 0.75967 0.916 0.0
H584 H 0.65824 0.64973 0.91967 0.0
H585 H 0.74141 0.69545 -0.00292 0.0
C586 C 0.76231 0.65052 0.00271 0.0
C587 C 0.76159 0.61915 0.98922 0.0
C588 C 0.66541 0.67387 0.9188 0.0
C589 C 0.71631 0.6607 0.95758 0.0
C590 C 0.64557 0.6962 0.89955 0.0
C591 C 0.65467 0.72756 0.89781 0.0
C592 C 0.69416 0.6832 0.93714 0.0
C593 C 0.68369 0.73576 0.91624 0.0
C594 C 0.7399 0.67125 0.98692 0.0
C595 C 0.73686 0.60916 0.9613 0.0
N596 N 0.70226 0.71378 0.93525 0.0
N597 N 0.71522 0.62994 0.94614 0.0
H598 H 0.26086 0.69001 0.09105 0.0
H599 H 0.42415 0.72587 0.2103 0.0
H600 H 0.3187 0.61556 0.1421 0.0
H601 H 0.34656 0.7896 0.20489 0.0
H602 H 0.39113 0.68565 0.17455 0.0
H603 H 0.29837 0.72755 0.11948 0.0
C604 C 0.28159 0.68146 0.10795 0.0
C605 C 0.28634 0.6495 0.11478 0.0
C606 C 0.38152 0.70849 0.18136 0.0
C607 C 0.32959 0.69273 0.1477 0.0
C608 C 0.40028 0.7314 0.20167 0.0
C609 C 0.38806 0.7611 0.21082 0.0
C610 C 0.35068 0.7157 0.16943 0.0
C611 C 0.35699 0.76703 0.19891 0.0
C612 C 0.30299 0.703 0.12435 0.0
C613 C 0.31399 0.63998 0.1364 0.0
N614 N 0.33953 0.74466 0.1787 0.0
N615 N 0.33456 0.66156 0.15245 0.0
H616 H 0.40171 0.9414 0.31488 0.0
H617 H 0.48813 0.10333 0.31467 0.0
H618 H 0.50209 0.94382 0.31468 0.0
H619 H 0.39868 0.08761 0.37847 0.0
H620 H 0.49471 0.04659 0.30746 0.0
H621 H 0.4006 0.99678 0.32971 0.0
C622 C 0.4236 0.95352 0.31805 0.0
C623 C 0.45201 0.93777 0.31364 0.0
C624 C 0.47387 0.05579 0.3234 0.0
C625 C 0.4509 0.00187 0.33023 0.0
C626 C 0.47003 0.08809 0.32744 0.0
C627 C 0.44259 0.10041 0.3466 0.0
C628 C 0.44994 0.0359 0.33809 0.0
C629 C 0.42003 0.07947 0.36282 0.0
C630 C 0.42294 0.98527 0.32672 0.0
C631 C 0.47965 0.95504 0.31815 0.0
N632 N 0.42409 0.04842 0.35771 0.0
N633 N 0.47845 0.98636 0.32576 0.0
H634 H 0.88557 0.49596 0.56237 0.0
H635 H 0.04224 0.41545 0.47257 0.0
H636 H 0.8925 0.40154 0.51304 0.0
H637 H 0.04327 0.49744 0.55853 0.0
H638 H 0.9858 0.41623 0.47376 0.0
H639 H 0.94173 0.5026 0.54817 0.0
C640 C 0.89878 0.47685 0.54787 0.0
C641 C 0.8845 0.44806 0.53922 0.0
C642 C 0.99831 0.43415 0.49226 0.0
C643 C 0.94826 0.45548 0.52288 0.0
C644 C 0.03068 0.43376 0.49163 0.0
C645 C 0.04776 0.4561 0.51624 0.0
C646 C 0.98257 0.45706 0.51756 0.0
C647 C 0.03115 0.47949 0.53958 0.0
C648 C 0.93077 0.48058 0.54009 0.0
C649 C 0.90265 0.42399 0.52074 0.0
N650 N 0.99942 0.47924 0.53998 0.0
N651 N 0.9335 0.42822 0.5133 0.0
H652 H 0.62174 0.90616 0.78115 0.0
H653 H 0.51595 0.05405 0.8311 0.0
H654 H 0.52447 0.89687 0.81515 0.0
H655 H 0.6032 0.05739 0.75744 0.0
H656 H 0.51786 0.99701 0.82767 0.0
H657 H 0.61494 0.96209 0.77448 0.0
C658 C 0.59886 0.91592 0.78703 0.0
C659 C 0.57368 0.89685 0.79901 0.0
C660 C 0.5364 0.01036 0.81203 0.0
C661 C 0.5657 0.96124 0.79181 0.0
C662 C 0.53542 0.04291 0.81411 0.0
C663 C 0.5597 0.0607 0.79519 0.0
C664 C 0.56195 0.99556 0.79122 0.0
C665 C 0.58412 0.04487 0.77313 0.0
C666 C 0.59494 0.94792 0.78304 0.0
C667 C 0.54446 0.91079 0.80573 0.0
N668 N 0.58473 0.01334 0.77217 0.0
N669 N 0.54131 0.94228 0.80262 0.0
H670 H 0.94987 0.50279 0.07579 0.0
H671 H 0.0983 0.61397 0.08624 0.0
H672 H 0.94735 0.6023 0.05557 0.0
H673 H 0.10721 0.51594 0.05566 0.0
H674 H 0.04224 0.60825 0.08783 0.0
H675 H 0.00696 0.50557 0.08043 0.0
C676 C 0.96118 0.52521 0.07283 0.0
C677 C 0.94367 0.55239 0.06549 0.0
C678 C 0.0564 0.58795 0.08069 0.0
C679 C 0.00864 0.55562 0.07092 0.0
C680 C 0.08855 0.59116 0.07977 0.0
C681 C 0.10769 0.56545 0.07023 0.0
C682 C 0.04294 0.55877 0.0724 0.0
C683 C 0.09338 0.53646 0.06271 0.0
C684 C 0.99371 0.52671 0.07522 0.0
C685 C 0.95965 0.58073 0.0615 0.0
N686 N 0.06178 0.53388 0.06393 0.0
N687 N 0.9911 0.58158 0.06439 0.0
H688 H 0.53986 0.17375 0.97734 0.0
H689 H 0.42228 0.12904 0.17957 0.0
H690 H 0.4849 0.08964 0.97799 0.0
H691 H 0.48411 0.2082 0.18355 0.0
H692 H 0.44377 0.11484 0.10467 0.0
H693 H 0.52006 0.18631 0.05351 0.0
C694 C 0.52398 0.15768 -0.00622 0.0
C695 C 0.51391 0.13067 0.97115 0.0
C696 C 0.45254 0.13537 0.12193 0.0
C697 C 0.49068 0.14522 0.05806 0.0
C698 C 0.44009 0.14364 0.16448 0.0
C699 C 0.45146 0.16981 0.18787 0.0
C700 C 0.47642 0.15347 0.10267 0.0
C701 C 0.4747 0.18777 0.16682 0.0
C702 C 0.51252 0.16496 0.03719 0.0
C703 C 0.4933 0.11071 -0.00585 0.0
N704 N 0.48645 0.17921 0.1255 0.0
N705 N 0.48212 0.11854 0.0362 0.0
H706 H 0.83526 0.45971 0.17577 0.0
H707 H 0.77593 0.50217 0.42679 0.0
H708 H 0.83525 0.55334 0.2297 0.0
H709 H 0.8131 0.41165 0.39242 0.0
H710 H 0.78722 0.51968 0.34909 0.0
H711 H 0.81789 0.44056 0.25041 0.0
C712 C 0.83156 0.47624 0.20334 0.0
C713 C 0.83682 0.50816 0.19674 0.0
C714 C 0.79266 0.49593 0.35852 0.0
C715 C 0.81661 0.48641 0.28168 0.0
C716 C 0.78603 0.48578 0.40274 0.0
C717 C 0.79387 0.45542 0.41624 0.0
C718 C 0.80688 0.47551 0.32741 0.0
C719 C 0.80689 0.43529 0.38352 0.0
C720 C 0.8217 0.46527 0.24583 0.0
C721 C 0.83171 0.52854 0.23354 0.0
N722 N 0.81312 0.44575 0.34053 0.0
N723 N 0.82172 0.51731 0.2745 0.0
H724 H 0.54219 0.76728 0.65472 0.0
H725 H 0.47648 0.88869 0.47558 0.0
H726 H 0.57245 0.86298 0.65363 0.0
H727 H 0.49331 0.79311 0.43745 0.0
H728 H 0.50225 0.87899 0.5494 0.0
H729 H 0.51636 0.77561 0.58081 0.0
C730 C 0.54381 0.78987 0.63844 0.0
C731 C 0.55964 0.81443 0.65983 0.0
C732 C 0.49999 0.86016 0.52489 0.0
C733 C 0.52931 0.82435 0.57686 0.0
C734 C 0.48497 0.86554 0.48323 0.0
C735 C 0.48282 0.84161 0.45073 0.0
C736 C 0.51223 0.83054 0.53411 0.0
C737 C 0.4946 0.81213 0.4618 0.0
C738 C 0.52898 0.79463 0.59659 0.0
C739 C 0.56083 0.84337 0.6378 0.0
N740 N 0.50877 0.80736 0.50272 0.0
N741 N 0.54541 0.8477 0.59767 0.0
H742 H 0.2066 0.50869 0.90522 0.0
H743 H 0.08479 0.52802 0.70009 0.0
H744 H 0.13688 0.58102 0.90061 0.0
H745 H 0.16532 0.46805 0.69302 0.0
H746 H 0.10004 0.54342 0.77753 0.0
H747 H 0.18923 0.49042 0.83019 0.0
C748 C 0.18778 0.52088 0.88829 0.0
C749 C 0.1732 0.54647 0.90919 0.0
C750 C 0.11425 0.52674 0.75912 0.0
C751 C 0.15294 0.52537 0.8236 0.0
C752 C 0.10541 0.51771 0.71504 0.0
C753 C 0.12391 0.49684 0.68991 0.0
C754 C 0.14168 0.51469 0.77826 0.0
C755 C 0.15044 0.48433 0.71104 0.0
C756 C 0.17781 0.51035 0.84552 0.0
C757 C 0.14889 0.56129 0.88569 0.0
N758 N 0.15862 0.49358 0.75391 0.0
N759 N 0.13942 0.55043 0.84421 0.0
loop_
_geom_bond_atom_site_label_1
_geom_bond_atom_site_label_2
_geom_bond_distance
_geom_bond_site_symmetry_2
_ccdc_geom_bond_type
Co0 O2 2.143 . S
Co0 O8 2.074 . S
Co0 O11 2.093 . S
Co0 O24 2.097 . S
Co0 N41 2.151 . S
Co0 N49 2.214 . S
Co1 O2 2.160 . S
Co1 O7 2.058 . S
Co1 O17 2.057 . S
Co1 O32 2.037 . S
Co1 N36 2.145 . S
Co1 N57 2.257 . S
O2 Co0 2.143 . S
O2 Co1 2.160 . S
C3 O4 1.278 . S
C3 O11 1.224 . S
O4 C3 1.278 . S
C5 O6 1.245 . S
C5 O17 1.232 . S
O6 C5 1.245 . S
O7 Co1 2.058 . S
O7 C33 1.269 . S
O8 Co0 2.074 . S
O8 C33 1.257 . S
H9 C34 0.930 . S
H10 C40 0.930 . S
O11 Co0 2.093 . S
O11 C3 1.224 . S
H12 C44 0.929 . S
H13 C46 0.930 . S
H14 C47 0.930 . S
H15 C45 0.929 . S
H16 C48 0.928 . S
O17 Co1 2.057 . S
O17 C5 1.232 . S
H18 C37 0.929 . S
H19 C38 0.929 . S
H20 C50 0.931 . S
H21 C42 0.929 . S
H22 C51 0.930 . S
H23 C43 0.931 . S
O24 Co0 2.097 . S
O24 C52 1.214 . S
H25 C53 0.929 . S
H26 C54 0.929 . S
H27 C55 0.930 . S
H28 C56 0.929 . S
H29 C58 0.930 . S
H30 C35 0.930 . S
H31 C39 0.930 . S
O32 Co1 2.037 . S
O32 C52 1.234 . S
C33 O7 1.269 . S
C33 O8 1.257 . S
C34 H9 0.930 . S
C34 C37 1.388 . S
C34 C39 1.418 . S
C35 H30 0.930 . S
C35 C38 1.404 . S
C35 C39 1.353 . S
N36 Co1 2.145 . S
N36 C37 1.397 . S
N36 C38 1.334 . S
C37 H18 0.929 . S
C37 C34 1.388 . S
C37 N36 1.397 . S
C38 H19 0.929 . S
C38 C35 1.404 . S
C38 N36 1.334 . S
C39 H31 0.930 . S
C39 C34 1.418 . S
C39 C35 1.353 . S
C40 H10 0.930 . S
C40 N41 1.330 . S
C40 C42 1.446 . S
N41 Co0 2.151 . S
N41 C40 1.330 . S
N41 C45 1.418 . S
C42 H21 0.929 . S
C42 C40 1.446 . S
C42 C43 1.332 . S
C43 H23 0.931 . S
C43 C42 1.332 . S
C43 C44 1.267 . S
C44 H12 0.929 . S
C44 C43 1.267 . S
C44 C45 1.251 . S
C45 H15 0.929 . S
C45 N41 1.418 . S
C45 C44 1.251 . S
C46 H13 0.930 . S
C46 C48 1.406 . S
C46 C51 1.261 . S
C47 H14 0.930 . S
C47 N49 1.325 . S
C47 C50 1.357 . S
C48 H16 0.928 . S
C48 C46 1.406 . S
C48 N49 1.261 . S
N49 Co0 2.214 . S
N49 C47 1.325 . S
N49 C48 1.261 . S
C50 H20 0.931 . S
C50 C47 1.357 . S
C50 C51 1.312 . S
C51 H22 0.930 . S
C51 C46 1.261 . S
C51 C50 1.312 . S
C52 O24 1.214 . S
C52 O32 1.234 . S
C53 H25 0.929 . S
C53 C56 1.391 . S
C53 C58 1.391 . S
C54 H26 0.929 . S
C54 C55 1.390 . S
C54 N57 1.391 . S
C55 H27 0.930 . S
C55 C54 1.390 . S
C55 C56 1.392 . S
C56 H28 0.929 . S
C56 C53 1.391 . S
C56 C55 1.392 . S
N57 Co1 2.257 . S
N57 C54 1.391 . S
N57 C58 1.388 . S
C58 H29 0.930 . S
C58 C53 1.391 . S
C58 N57 1.388 . S
Co59 O61 2.143 . S
Co59 O67 2.074 . S
Co59 O70 2.093 . S
Co59 O83 2.097 . S
Co59 N100 2.151 . S
Co59 N108 2.214 . S
Co60 O61 2.160 . S
Co60 O66 2.058 . S
Co60 O76 2.057 . S
Co60 O91 2.037 . S
Co60 N95 2.145 . S
Co60 N116 2.257 . S
O61 Co59 2.143 . S
O61 Co60 2.160 . S
C62 O63 1.278 . S
C62 O70 1.224 . S
O63 C62 1.278 . S
C64 O65 1.245 . S
C64 O76 1.232 . S
O65 C64 1.245 . S
O66 Co60 2.058 . S
O66 C92 1.269 . S
O67 Co59 2.074 . S
O67 C92 1.257 . S
H68 C93 0.930 . S
H69 C99 0.930 . S
O70 Co59 2.093 . S
O70 C62 1.224 . S
H71 C103 0.929 . S
H72 C105 0.930 . S
H73 C106 0.930 . S
H74 C104 0.929 . S
H75 C107 0.928 . S
O76 Co60 2.057 . S
O76 C64 1.232 . S
H77 C96 0.929 . S
H78 C97 0.929 . S
H79 C109 0.931 . S
H80 C101 0.929 . S
H81 C110 0.930 . S
H82 C102 0.931 . S
O83 Co59 2.097 . S
O83 C111 1.214 . S
H84 C112 0.929 . S
H85 C113 0.929 . S
H86 C114 0.930 . S
H87 C115 0.929 . S
H88 C117 0.930 . S
H89 C94 0.930 . S
H90 C98 0.930 . S
O91 Co60 2.037 . S
O91 C111 1.234 . S
C92 O66 1.269 . S
C92 O67 1.257 . S
C93 H68 0.930 . S
C93 C96 1.388 . S
C93 C98 1.418 . S
C94 H89 0.930 . S
C94 C97 1.404 . S
C94 C98 1.353 . S
N95 Co60 2.145 . S
N95 C96 1.397 . S
N95 C97 1.334 . S
C96 H77 0.929 . S
C96 C93 1.388 . S
C96 N95 1.397 . S
C97 H78 0.929 . S
C97 C94 1.404 . S
C97 N95 1.334 . S
C98 H90 0.930 . S
C98 C93 1.418 . S
C98 C94 1.353 . S
C99 H69 0.930 . S
C99 N100 1.330 . S
C99 C101 1.446 . S
N100 Co59 2.151 . S
N100 C99 1.330 . S
N100 C104 1.418 . S
C101 H80 0.929 . S
C101 C99 1.446 . S
C101 C102 1.332 . S
C102 H82 0.931 . S
C102 C101 1.332 . S
C102 C103 1.267 . S
C103 H71 0.929 . S
C103 C102 1.267 . S
C103 C104 1.251 . S
C104 H74 0.929 . S
C104 N100 1.418 . S
C104 C103 1.251 . S
C105 H72 0.930 . S
C105 C107 1.406 . S
C105 C110 1.261 . S
C106 H73 0.930 . S
C106 N108 1.325 . S
C106 C109 1.357 . S
C107 H75 0.928 . S
C107 C105 1.406 . S
C107 N108 1.261 . S
N108 Co59 2.214 . S
N108 C106 1.325 . S
N108 C107 1.261 . S
C109 H79 0.931 . S
C109 C106 1.357 . S
C109 C110 1.312 . S
C110 H81 0.930 . S
C110 C105 1.261 . S
C110 C109 1.312 . S
C111 O83 1.214 . S
C111 O91 1.234 . S
C112 H84 0.929 . S
C112 C115 1.391 . S
C112 C117 1.391 . S
C113 H85 0.929 . S
C113 C114 1.390 . S
C113 N116 1.391 . S
C114 H86 0.930 . S
C114 C113 1.390 . S
C114 C115 1.392 . S
C115 H87 0.929 . S
C115 C112 1.391 . S
C115 C114 1.392 . S
N116 Co60 2.257 . S
N116 C113 1.391 . S
N116 C117 1.388 . S
C117 H88 0.930 . S
C117 C112 1.391 . S
C117 N116 1.388 . S
Co118 O120 2.143 . S
Co118 O126 2.074 . S
Co118 O129 2.093 . S
Co118 O142 2.097 . S
Co118 N159 2.151 . S
Co118 N167 2.214 . S
Co119 O120 2.160 . S
Co119 O125 2.058 . S
Co119 O135 2.057 . S
Co119 O150 2.037 . S
Co119 N154 2.145 . S
Co119 N175 2.257 . S
O120 Co118 2.143 . S
O120 Co119 2.160 . S
C121 O122 1.278 . S
C121 O129 1.224 . S
O122 C121 1.278 . S
C123 O124 1.245 . S
C123 O135 1.232 . S
O124 C123 1.245 . S
O125 Co119 2.058 . S
O125 C151 1.269 . S
O126 Co118 2.074 . S
O126 C151 1.257 . S
H127 C152 0.930 . S
H128 C158 0.930 . S
O129 Co118 2.093 . S
O129 C121 1.224 . S
H130 C162 0.929 . S
H131 C164 0.930 . S
H132 C165 0.930 . S
H133 C163 0.929 . S
H134 C166 0.928 . S
O135 Co119 2.057 . S
O135 C123 1.232 . S
H136 C155 0.929 . S
H137 C156 0.929 . S
H138 C168 0.931 . S
H139 C160 0.929 . S
H140 C169 0.930 . S
H141 C161 0.931 . S
O142 Co118 2.097 . S
O142 C170 1.214 . S
H143 C171 0.929 . S
H144 C172 0.929 . S
H145 C173 0.930 . S
H146 C174 0.929 . S
H147 C176 0.930 . S
H148 C153 0.930 . S
H149 C157 0.930 . S
O150 Co119 2.037 . S
O150 C170 1.234 . S
C151 O125 1.269 . S
C151 O126 1.257 . S
C152 H127 0.930 . S
C152 C155 1.388 . S
C152 C157 1.418 . S
C153 H148 0.930 . S
C153 C156 1.404 . S
C153 C157 1.353 . S
N154 Co119 2.145 . S
N154 C155 1.397 . S
N154 C156 1.334 . S
C155 H136 0.929 . S
C155 C152 1.388 . S
C155 N154 1.397 . S
C156 H137 0.929 . S
C156 C153 1.404 . S
C156 N154 1.334 . S
C157 H149 0.930 . S
C157 C152 1.418 . S
C157 C153 1.353 . S
C158 H128 0.930 . S
C158 N159 1.330 . S
C158 C160 1.446 . S
N159 Co118 2.151 . S
N159 C158 1.330 . S
N159 C163 1.418 . S
C160 H139 0.929 . S
C160 C158 1.446 . S
C160 C161 1.332 . S
C161 H141 0.931 . S
C161 C160 1.332 . S
C161 C162 1.267 . S
C162 H130 0.929 . S
C162 C161 1.267 . S
C162 C163 1.251 . S
C163 H133 0.929 . S
C163 N159 1.418 . S
C163 C162 1.251 . S
C164 H131 0.930 . S
C164 C166 1.406 . S
C164 C169 1.261 . S
C165 H132 0.930 . S
C165 N167 1.325 . S
C165 C168 1.357 . S
C166 H134 0.928 . S
C166 C164 1.406 . S
C166 N167 1.261 . S
N167 Co118 2.214 . S
N167 C165 1.325 . S
N167 C166 1.261 . S
C168 H138 0.931 . S
C168 C165 1.357 . S
C168 C169 1.312 . S
C169 H140 0.930 . S
C169 C164 1.261 . S
C169 C168 1.312 . S
C170 O142 1.214 . S
C170 O150 1.234 . S
C171 H143 0.929 . S
C171 C174 1.391 . S
C171 C176 1.391 . S
C172 H144 0.929 . S
C172 C173 1.390 . S
C172 N175 1.391 . S
C173 H145 0.930 . S
C173 C172 1.390 . S
C173 C174 1.392 . S
C174 H146 0.929 . S
C174 C171 1.391 . S
C174 C173 1.392 . S
N175 Co119 2.257 . S
N175 C172 1.391 . S
N175 C176 1.388 . S
C176 H147 0.930 . S
C176 C171 1.391 . S
C176 N175 1.388 . S
Co177 O179 2.143 . S
Co177 O185 2.074 . S
Co177 O188 2.093 1_554 S
Co177 O201 2.097 . S
Co177 N218 2.151 . S
Co177 N226 2.214 . S
Co178 O179 2.160 . S
Co178 O184 2.058 . S
Co178 O194 2.057 . S
Co178 O209 2.037 . S
Co178 N213 2.145 . S
Co178 N234 2.257 . S
O179 Co177 2.143 . S
O179 Co178 2.160 . S
C180 O181 1.278 . S
C180 O188 1.224 . S
O181 C180 1.278 . S
C182 O183 1.245 . S
C182 O194 1.232 . S
O183 C182 1.245 . S
O184 Co178 2.058 . S
O184 C210 1.269 . S
O185 Co177 2.074 . S
O185 C210 1.257 . S
H186 C211 0.930 . S
H187 C217 0.930 . S
O188 Co177 2.093 1_556 S
O188 C180 1.224 . S
H189 C221 0.929 . S
H190 C223 0.930 . S
H191 C224 0.930 . S
H192 C222 0.929 . S
H193 C225 0.928 . S
O194 Co178 2.057 . S
O194 C182 1.232 . S
H195 C214 0.929 . S
H196 C215 0.929 . S
H197 C227 0.931 . S
H198 C219 0.929 . S
H199 C228 0.930 . S
H200 C220 0.931 . S
O201 Co177 2.097 . S
O201 C229 1.214 . S
H202 C230 0.929 . S
H203 C231 0.929 . S
H204 C232 0.930 . S
H205 C233 0.929 . S
H206 C235 0.930 . S
H207 C212 0.930 . S
H208 C216 0.930 . S
O209 Co178 2.037 . S
O209 C229 1.234 . S
C210 O184 1.269 . S
C210 O185 1.257 . S
C211 H186 0.930 . S
C211 C214 1.388 . S
C211 C216 1.418 . S
C212 H207 0.930 . S
C212 C215 1.404 . S
C212 C216 1.353 . S
N213 Co178 2.145 . S
N213 C214 1.397 . S
N213 C215 1.334 . S
C214 H195 0.929 . S
C214 C211 1.388 . S
C214 N213 1.397 . S
C215 H196 0.929 . S
C215 C212 1.404 . S
C215 N213 1.334 . S
C216 H208 0.930 . S
C216 C211 1.418 . S
C216 C212 1.353 . S
C217 H187 0.930 . S
C217 N218 1.330 . S
C217 C219 1.446 . S
N218 Co177 2.151 . S
N218 C217 1.330 . S
N218 C222 1.418 . S
C219 H198 0.929 . S
C219 C217 1.446 . S
C219 C220 1.332 . S
C220 H200 0.931 . S
C220 C219 1.332 . S
C220 C221 1.267 . S
C221 H189 0.929 . S
C221 C220 1.267 . S
C221 C222 1.251 . S
C222 H192 0.929 . S
C222 N218 1.418 . S
C222 C221 1.251 . S
C223 H190 0.930 . S
C223 C225 1.406 . S
C223 C228 1.261 . S
C224 H191 0.930 . S
C224 N226 1.325 . S
C224 C227 1.357 . S
C225 H193 0.928 . S
C225 C223 1.406 . S
C225 N226 1.261 . S
N226 Co177 2.214 . S
N226 C224 1.325 . S
N226 C225 1.261 . S
C227 H197 0.931 . S
C227 C224 1.357 . S
C227 C228 1.312 . S
C228 H199 0.930 . S
C228 C223 1.261 . S
C228 C227 1.312 . S
C229 O201 1.214 . S
C229 O209 1.234 . S
C230 H202 0.929 . S
C230 C233 1.391 . S
C230 C235 1.391 1_556 S
C231 H203 0.929 . S
C231 C232 1.390 . S
C231 N234 1.391 . S
C232 H204 0.930 . S
C232 C231 1.390 . S
C232 C233 1.392 1_554 S
C233 H205 0.929 . S
C233 C230 1.391 . S
C233 C232 1.392 1_556 S
N234 Co178 2.257 . S
N234 C231 1.391 . S
N234 C235 1.388 . S
C235 H206 0.930 . S
C235 C230 1.391 1_554 S
C235 N234 1.388 . S
Co236 O238 2.143 . S
Co236 O244 2.074 . S
Co236 O247 2.093 . S
Co236 O260 2.097 . S
Co236 N277 2.151 . S
Co236 N285 2.214 . S
Co237 O238 2.160 . S
Co237 O243 2.058 . S
Co237 O253 2.057 . S
Co237 O268 2.037 . S
Co237 N272 2.145 . S
Co237 N293 2.257 . S
O238 Co236 2.143 . S
O238 Co237 2.160 . S
C239 O240 1.278 . S
C239 O247 1.224 . S
O240 C239 1.278 . S
C241 O242 1.245 . S
C241 O253 1.232 . S
O242 C241 1.245 . S
O243 Co237 2.058 . S
O243 C269 1.269 . S
O244 Co236 2.074 . S
O244 C269 1.257 . S
H245 C270 0.930 . S
H246 C276 0.930 . S
O247 Co236 2.093 . S
O247 C239 1.224 . S
H248 C280 0.929 . S
H249 C282 0.930 . S
H250 C283 0.930 . S
H251 C281 0.929 . S
H252 C284 0.928 . S
O253 Co237 2.057 . S
O253 C241 1.232 . S
H254 C273 0.929 . S
H255 C274 0.929 . S
H256 C286 0.931 . S
H257 C278 0.929 . S
H258 C287 0.930 . S
H259 C279 0.931 . S
O260 Co236 2.097 . S
O260 C288 1.214 . S
H261 C289 0.929 . S
H262 C290 0.929 . S
H263 C291 0.930 . S
H264 C292 0.929 . S
H265 C294 0.930 . S
H266 C271 0.930 . S
H267 C275 0.930 . S
O268 Co237 2.037 . S
O268 C288 1.234 . S
C269 O243 1.269 . S
C269 O244 1.257 . S
C270 H245 0.930 . S
C270 C273 1.388 . S
C270 C275 1.418 . S
C271 H266 0.930 . S
C271 C274 1.404 . S
C271 C275 1.353 . S
N272 Co237 2.145 . S
N272 C273 1.397 . S
N272 C274 1.334 . S
C273 H254 0.929 . S
C273 C270 1.388 . S
C273 N272 1.397 . S
C274 H255 0.929 . S
C274 C271 1.404 . S
C274 N272 1.334 . S
C275 H267 0.930 . S
C275 C270 1.418 . S
C275 C271 1.353 . S
C276 H246 0.930 . S
C276 N277 1.330 . S
C276 C278 1.446 . S
N277 Co236 2.151 . S
N277 C276 1.330 . S
N277 C281 1.418 . S
C278 H257 0.929 . S
C278 C276 1.446 . S
C278 C279 1.332 . S
C279 H259 0.931 . S
C279 C278 1.332 . S
C279 C280 1.267 . S
C280 H248 0.929 . S
C280 C279 1.267 . S
C280 C281 1.251 . S
C281 H251 0.929 . S
C281 N277 1.418 . S
C281 C280 1.251 . S
C282 H249 0.930 . S
C282 C284 1.406 . S
C282 C287 1.261 . S
C283 H250 0.930 . S
C283 N285 1.325 . S
C283 C286 1.357 . S
C284 H252 0.928 . S
C284 C282 1.406 . S
C284 N285 1.261 . S
N285 Co236 2.214 . S
N285 C283 1.325 . S
N285 C284 1.261 . S
C286 H256 0.931 . S
C286 C283 1.357 . S
C286 C287 1.312 . S
C287 H258 0.930 . S
C287 C282 1.261 . S
C287 C286 1.312 . S
C288 O260 1.214 . S
C288 O268 1.234 . S
C289 H261 0.929 . S
C289 C292 1.391 . S
C289 C294 1.391 . S
C290 H262 0.929 . S
C290 C291 1.390 . S
C290 N293 1.391 . S
C291 H263 0.930 . S
C291 C290 1.390 . S
C291 C292 1.392 . S
C292 H264 0.929 . S
C292 C289 1.391 . S
C292 C291 1.392 . S
N293 Co237 2.257 . S
N293 C290 1.391 . S
N293 C294 1.388 . S
C294 H265 0.930 . S
C294 C289 1.391 . S
C294 N293 1.388 . S
Co295 O297 2.143 . S
Co295 O303 2.074 . S
Co295 O306 2.093 . S
Co295 O319 2.097 . S
Co295 N336 2.151 . S
Co295 N344 2.214 . S
Co296 O297 2.160 . S
Co296 O302 2.058 . S
Co296 O312 2.057 . S
Co296 O327 2.037 . S
Co296 N331 2.145 . S
Co296 N352 2.257 . S
O297 Co295 2.143 . S
O297 Co296 2.160 . S
C298 O299 1.278 . S
C298 O306 1.224 . S
O299 C298 1.278 . S
C300 O301 1.245 . S
C300 O312 1.232 . S
O301 C300 1.245 . S
O302 Co296 2.058 . S
O302 C328 1.269 . S
O303 Co295 2.074 . S
O303 C328 1.257 . S
H304 C329 0.930 . S
H305 C335 0.930 . S
O306 Co295 2.093 . S
O306 C298 1.224 . S
H307 C339 0.929 . S
H308 C341 0.930 . S
H309 C342 0.930 . S
H310 C340 0.929 . S
H311 C343 0.928 . S
O312 Co296 2.057 . S
O312 C300 1.232 . S
H313 C332 0.929 . S
H314 C333 0.929 . S
H315 C345 0.931 . S
H316 C337 0.929 . S
H317 C346 0.930 . S
H318 C338 0.931 . S
O319 Co295 2.097 . S
O319 C347 1.214 . S
H320 C348 0.929 . S
H321 C349 0.929 . S
H322 C350 0.930 . S
H323 C351 0.929 . S
H324 C353 0.930 . S
H325 C330 0.930 . S
H326 C334 0.930 . S
O327 Co296 2.037 . S
O327 C347 1.234 . S
C328 O302 1.269 . S
C328 O303 1.257 . S
C329 H304 0.930 . S
C329 C332 1.388 . S
C329 C334 1.418 . S
C330 H325 0.930 . S
C330 C333 1.404 . S
C330 C334 1.353 . S
N331 Co296 2.145 . S
N331 C332 1.397 . S
N331 C333 1.334 . S
C332 H313 0.929 . S
C332 C329 1.388 . S
C332 N331 1.397 . S
C333 H314 0.929 . S
C333 C330 1.404 . S
C333 N331 1.334 . S
C334 H326 0.930 . S
C334 C329 1.418 . S
C334 C330 1.353 . S
C335 H305 0.930 . S
C335 N336 1.330 . S
C335 C337 1.446 . S
N336 Co295 2.151 . S
N336 C335 1.330 . S
N336 C340 1.418 . S
C337 H316 0.929 . S
C337 C335 1.446 . S
C337 C338 1.332 . S
C338 H318 0.931 . S
C338 C337 1.332 . S
C338 C339 1.267 . S
C339 H307 0.929 . S
C339 C338 1.267 . S
C339 C340 1.251 . S
C340 H310 0.929 . S
C340 N336 1.418 . S
C340 C339 1.251 . S
C341 H308 0.930 . S
C341 C343 1.406 . S
C341 C346 1.261 . S
C342 H309 0.930 . S
C342 N344 1.325 . S
C342 C345 1.357 . S
C343 H311 0.928 . S
C343 C341 1.406 . S
C343 N344 1.261 . S
N344 Co295 2.214 . S
N344 C342 1.325 . S
N344 C343 1.261 . S
C345 H315 0.931 . S
C345 C342 1.357 . S
C345 C346 1.312 . S
C346 H317 0.930 . S
C346 C341 1.261 . S
C346 C345 1.312 . S
C347 O319 1.214 . S
C347 O327 1.234 . S
C348 H320 0.929 . S
C348 C351 1.391 . S
C348 C353 1.391 . S
C349 H321 0.929 . S
C349 C350 1.390 . S
C349 N352 1.391 . S
C350 H322 0.930 . S
C350 C349 1.390 . S
C350 C351 1.392 . S
C351 H323 0.929 . S
C351 C348 1.391 . S
C351 C350 1.392 . S
N352 Co296 2.257 . S
N352 C349 1.391 . S
N352 C353 1.388 . S
C353 H324 0.930 . S
C353 C348 1.391 . S
C353 N352 1.388 . S
Co354 O356 2.143 . S
Co354 O362 2.074 . S
Co354 O365 2.093 . S
Co354 O378 2.097 . S
Co354 N395 2.151 . S
Co354 N403 2.214 . S
Co355 O356 2.160 . S
Co355 O361 2.058 . S
Co355 O371 2.057 . S
Co355 O386 2.037 . S
Co355 N390 2.145 . S
Co355 N411 2.257 . S
O356 Co354 2.143 . S
O356 Co355 2.160 . S
C357 O358 1.278 . S
C357 O365 1.224 . S
O358 C357 1.278 . S
C359 O360 1.245 . S
C359 O371 1.232 . S
O360 C359 1.245 . S
O361 Co355 2.058 . S
O361 C387 1.269 . S
O362 Co354 2.074 . S
O362 C387 1.257 . S
H363 C388 0.930 . S
H364 C394 0.930 . S
O365 Co354 2.093 . S
O365 C357 1.224 . S
H366 C398 0.929 . S
H367 C400 0.930 . S
H368 C401 0.930 . S
H369 C399 0.929 . S
H370 C402 0.928 . S
O371 Co355 2.057 . S
O371 C359 1.232 . S
H372 C391 0.929 . S
H373 C392 0.929 . S
H374 C404 0.931 . S
H375 C396 0.929 . S
H376 C405 0.930 . S
H377 C397 0.931 . S
O378 Co354 2.097 . S
O378 C406 1.214 . S
H379 C407 0.929 . S
H380 C408 0.929 . S
H381 C409 0.930 . S
H382 C410 0.929 . S
H383 C412 0.930 . S
H384 C389 0.930 . S
H385 C393 0.930 . S
O386 Co355 2.037 . S
O386 C406 1.234 . S
C387 O361 1.269 . S
C387 O362 1.257 . S
C388 H363 0.930 . S
C388 C391 1.388 . S
C388 C393 1.418 . S
C389 H384 0.930 . S
C389 C392 1.404 . S
C389 C393 1.353 . S
N390 Co355 2.145 . S
N390 C391 1.397 . S
N390 C392 1.334 . S
C391 H372 0.929 . S
C391 C388 1.388 . S
C391 N390 1.397 . S
C392 H373 0.929 . S
C392 C389 1.404 . S
C392 N390 1.334 . S
C393 H385 0.930 . S
C393 C388 1.418 . S
C393 C389 1.353 . S
C394 H364 0.930 . S
C394 N395 1.330 . S
C394 C396 1.446 . S
N395 Co354 2.151 . S
N395 C394 1.330 . S
N395 C399 1.418 . S
C396 H375 0.929 . S
C396 C394 1.446 . S
C396 C397 1.332 . S
C397 H377 0.931 . S
C397 C396 1.332 . S
C397 C398 1.267 . S
C398 H366 0.929 . S
C398 C397 1.267 . S
C398 C399 1.251 . S
C399 H369 0.929 . S
C399 N395 1.418 . S
C399 C398 1.251 . S
C400 H367 0.930 . S
C400 C402 1.406 . S
C400 C405 1.261 . S
C401 H368 0.930 . S
C401 N403 1.325 . S
C401 C404 1.357 . S
C402 H370 0.928 . S
C402 C400 1.406 . S
C402 N403 1.261 . S
N403 Co354 2.214 . S
N403 C401 1.325 . S
N403 C402 1.261 . S
C404 H374 0.931 . S
C404 C401 1.357 . S
C404 C405 1.312 . S
C405 H376 0.930 . S
C405 C400 1.261 . S
C405 C404 1.312 . S
C406 O378 1.214 . S
C406 O386 1.234 . S
C407 H379 0.929 . S
C407 C410 1.391 . S
C407 C412 1.391 . S
C408 H380 0.929 . S
C408 C409 1.390 . S
C408 N411 1.391 . S
C409 H381 0.930 . S
C409 C408 1.390 . S
C409 C410 1.392 . S
C410 H382 0.929 . S
C410 C407 1.391 . S
C410 C409 1.392 . S
N411 Co355 2.257 . S
N411 C408 1.391 . S
N411 C412 1.388 . S
C412 H383 0.930 . S
C412 C407 1.391 . S
C412 N411 1.388 . S
Co413 O415 2.143 . S
Co413 O421 2.074 1_554 S
Co413 O424 2.093 . S
Co413 O437 2.097 . S
Co413 N454 2.151 . S
Co413 N462 2.214 . S
Co414 O415 2.160 . S
Co414 O420 2.058 1_554 S
Co414 O430 2.057 . S
Co414 O445 2.037 . S
Co414 N449 2.145 1_554 S
Co414 N470 2.257 . S
O415 Co413 2.143 . S
O415 Co414 2.160 . S
C416 O417 1.278 . S
C416 O424 1.224 . S
O417 C416 1.278 . S
C418 O419 1.245 . S
C418 O430 1.232 . S
O419 C418 1.245 . S
O420 Co414 2.058 1_556 S
O420 C446 1.269 . S
O421 Co413 2.074 1_556 S
O421 C446 1.257 . S
H422 C447 0.930 . S
H423 C453 0.930 . S
O424 Co413 2.093 . S
O424 C416 1.224 . S
H425 C457 0.929 . S
H426 C459 0.930 . S
H427 C460 0.930 . S
H428 C458 0.929 . S
H429 C461 0.928 . S
O430 Co414 2.057 . S
O430 C418 1.232 . S
H431 C450 0.929 . S
H432 C451 0.929 . S
H433 C463 0.931 . S
H434 C455 0.929 . S
H435 C464 0.930 . S
H436 C456 0.931 . S
O437 Co413 2.097 . S
O437 C465 1.214 . S
H438 C466 0.929 . S
H439 C467 0.929 . S
H440 C468 0.930 . S
H441 C469 0.929 . S
H442 C471 0.930 . S
H443 C448 0.930 . S
H444 C452 0.930 . S
O445 Co414 2.037 . S
O445 C465 1.234 . S
C446 O420 1.269 . S
C446 O421 1.257 . S
C447 H422 0.930 . S
C447 C450 1.388 . S
C447 C452 1.418 . S
C448 H443 0.930 . S
C448 C451 1.404 . S
C448 C452 1.353 . S
N449 Co414 2.145 1_556 S
N449 C450 1.397 . S
N449 C451 1.334 . S
C450 H431 0.929 . S
C450 C447 1.388 . S
C450 N449 1.397 . S
C451 H432 0.929 . S
C451 C448 1.404 . S
C451 N449 1.334 . S
C452 H444 0.930 . S
C452 C447 1.418 . S
C452 C448 1.353 . S
C453 H423 0.930 . S
C453 N454 1.330 . S
C453 C455 1.446 . S
N454 Co413 2.151 . S
N454 C453 1.330 . S
N454 C458 1.418 . S
C455 H434 0.929 . S
C455 C453 1.446 . S
C455 C456 1.332 . S
C456 H436 0.931 . S
C456 C455 1.332 . S
C456 C457 1.267 . S
C457 H425 0.929 . S
C457 C456 1.267 . S
C457 C458 1.251 . S
C458 H428 0.929 . S
C458 N454 1.418 . S
C458 C457 1.251 . S
C459 H426 0.930 . S
C459 C461 1.406 . S
C459 C464 1.261 . S
C460 H427 0.930 . S
C460 N462 1.325 . S
C460 C463 1.357 . S
C461 H429 0.928 . S
C461 C459 1.406 . S
C461 N462 1.261 . S
N462 Co413 2.214 . S
N462 C460 1.325 . S
N462 C461 1.261 . S
C463 H433 0.931 . S
C463 C460 1.357 . S
C463 C464 1.312 . S
C464 H435 0.930 . S
C464 C459 1.261 . S
C464 C463 1.312 . S
C465 O437 1.214 . S
C465 O445 1.234 . S
C466 H438 0.929 . S
C466 C469 1.391 . S
C466 C471 1.391 . S
C467 H439 0.929 . S
C467 C468 1.390 . S
C467 N470 1.391 . S
C468 H440 0.930 . S
C468 C467 1.390 . S
C468 C469 1.392 . S
C469 H441 0.929 . S
C469 C466 1.391 . S
C469 C468 1.392 . S
N470 Co414 2.257 . S
N470 C467 1.391 . S
N470 C471 1.388 . S
C471 H442 0.930 . S
C471 C466 1.391 . S
C471 N470 1.388 . S
H472 C478 0.930 . S
H473 C482 0.930 . S
H474 C487 0.929 . S
H475 C485 0.929 . S
H476 C480 0.929 . S
H477 C486 0.929 . S
C478 H472 0.930 . S
C478 C479 1.367 . S
C478 C486 1.378 . S
C479 C478 1.367 . S
C479 C487 1.433 . S
C480 H476 0.929 . S
C480 C482 1.378 . S
C480 C484 1.350 . S
C481 C484 1.463 . S
C481 C486 1.350 . S
C481 N489 1.427 . S
C482 H473 0.930 . S
C482 C480 1.378 . S
C482 C483 1.367 . S
C483 C482 1.367 . S
C483 C485 1.433 . S
C484 C480 1.350 . S
C484 C481 1.463 . S
C484 N488 1.427 . S
C485 H475 0.929 . S
C485 C483 1.433 . S
C485 N488 1.384 . S
C486 H477 0.929 . S
C486 C478 1.378 . S
C486 C481 1.350 . S
C487 H474 0.929 . S
C487 C479 1.433 . S
C487 N489 1.384 . S
N488 C484 1.427 . S
N488 C485 1.384 . S
N489 C481 1.427 . S
N489 C487 1.384 . S
H490 C496 0.930 . S
H491 C500 0.930 . S
H492 C505 0.929 . S
H493 C503 0.929 . S
H494 C498 0.929 . S
H495 C504 0.929 . S
C496 H490 0.930 . S
C496 C497 1.367 . S
C496 C504 1.378 . S
C497 C496 1.367 . S
C497 C505 1.433 . S
C498 H494 0.929 . S
C498 C500 1.378 . S
C498 C502 1.350 . S
C499 C502 1.463 . S
C499 C504 1.350 . S
C499 N507 1.427 . S
C500 H491 0.930 . S
C500 C498 1.378 . S
C500 C501 1.367 . S
C501 C500 1.367 . S
C501 C503 1.433 . S
C502 C498 1.350 . S
C502 C499 1.463 . S
C502 N506 1.427 . S
C503 H493 0.929 . S
C503 C501 1.433 . S
C503 N506 1.384 . S
C504 H495 0.929 . S
C504 C496 1.378 . S
C504 C499 1.350 . S
C505 H492 0.929 . S
C505 C497 1.433 . S
C505 N507 1.384 . S
N506 C502 1.427 . S
N506 C503 1.384 . S
N507 C499 1.427 . S
N507 C505 1.384 . S
H508 C514 0.930 . S
H509 C518 0.930 . S
H510 C523 0.929 . S
H511 C521 0.929 . S
H512 C516 0.929 . S
H513 C522 0.929 . S
C514 H508 0.930 . S
C514 C515 1.367 . S
C514 C522 1.378 . S
C515 C514 1.367 . S
C515 C523 1.433 . S
C516 H512 0.929 . S
C516 C518 1.378 1_554 S
C516 C520 1.350 . S
C517 C520 1.463 . S
C517 C522 1.350 . S
C517 N525 1.427 . S
C518 H509 0.930 . S
C518 C516 1.378 1_556 S
C518 C519 1.367 . S
C519 C518 1.367 . S
C519 C521 1.433 . S
C520 C516 1.350 . S
C520 C517 1.463 . S
C520 N524 1.427 . S
C521 H511 0.929 . S
C521 C519 1.433 . S
C521 N524 1.384 1_556 S
C522 H513 0.929 . S
C522 C514 1.378 . S
C522 C517 1.350 . S
C523 H510 0.929 . S
C523 C515 1.433 . S
C523 N525 1.384 . S
N524 C520 1.427 . S
N524 C521 1.384 1_554 S
N525 C517 1.427 . S
N525 C523 1.384 . S
H526 C532 0.930 . S
H527 C536 0.930 . S
H528 C541 0.929 . S
H529 C539 0.929 . S
H530 C534 0.929 . S
H531 C540 0.929 . S
C532 H526 0.930 . S
C532 C533 1.367 . S
C532 C540 1.378 . S
C533 C532 1.367 . S
C533 C541 1.433 . S
C534 H530 0.929 . S
C534 C536 1.378 . S
C534 C538 1.350 . S
C535 C538 1.463 . S
C535 C540 1.350 . S
C535 N543 1.427 . S
C536 H527 0.930 . S
C536 C534 1.378 . S
C536 C537 1.367 . S
C537 C536 1.367 . S
C537 C539 1.433 . S
C538 C534 1.350 . S
C538 C535 1.463 . S
C538 N542 1.427 . S
C539 H529 0.929 . S
C539 C537 1.433 . S
C539 N542 1.384 . S
C540 H531 0.929 . S
C540 C532 1.378 . S
C540 C535 1.350 . S
C541 H528 0.929 . S
C541 C533 1.433 . S
C541 N543 1.384 . S
N542 C538 1.427 . S
N542 C539 1.384 . S
N543 C535 1.427 . S
N543 C541 1.384 . S
H544 C550 0.930 . S
H545 C554 0.930 . S
H546 C559 0.929 . S
H547 C557 0.929 . S
H548 C552 0.929 . S
H549 C558 0.929 . S
C550 H544 0.930 . S
C550 C551 1.367 . S
C550 C558 1.378 . S
C551 C550 1.367 . S
C551 C559 1.433 . S
C552 H548 0.929 . S
C552 C554 1.378 . S
C552 C556 1.350 . S
C553 C556 1.463 . S
C553 C558 1.350 . S
C553 N561 1.427 . S
C554 H545 0.930 . S
C554 C552 1.378 . S
C554 C555 1.367 . S
C555 C554 1.367 . S
C555 C557 1.433 . S
C556 C552 1.350 . S
C556 C553 1.463 . S
C556 N560 1.427 . S
C557 H547 0.929 . S
C557 C555 1.433 . S
C557 N560 1.384 . S
C558 H549 0.929 . S
C558 C550 1.378 . S
C558 C553 1.350 . S
C559 H546 0.929 . S
C559 C551 1.433 . S
C559 N561 1.384 . S
N560 C556 1.427 . S
N560 C557 1.384 . S
N561 C553 1.427 . S
N561 C559 1.384 . S
H562 C568 0.930 . S
H563 C572 0.930 . S
H564 C577 0.929 . S
H565 C575 0.929 . S
H566 C570 0.929 . S
H567 C576 0.929 . S
C568 H562 0.930 . S
C568 C569 1.367 . S
C568 C576 1.378 . S
C569 C568 1.367 . S
C569 C577 1.433 . S
C570 H566 0.929 . S
C570 C572 1.378 . S
C570 C574 1.350 . S
C571 C574 1.463 . S
C571 C576 1.350 . S
C571 N579 1.427 . S
C572 H563 0.930 . S
C572 C570 1.378 . S
C572 C573 1.367 . S
C573 C572 1.367 . S
C573 C575 1.433 . S
C574 C570 1.350 . S
C574 C571 1.463 . S
C574 N578 1.427 . S
C575 H565 0.929 . S
C575 C573 1.433 . S
C575 N578 1.384 . S
C576 H567 0.929 . S
C576 C568 1.378 . S
C576 C571 1.350 . S
C577 H564 0.929 . S
C577 C569 1.433 . S
C577 N579 1.384 . S
N578 C574 1.427 . S
N578 C575 1.384 . S
N579 C571 1.427 . S
N579 C577 1.384 . S
H580 C586 0.930 . S
H581 C590 0.930 . S
H582 C595 0.929 . S
H583 C593 0.929 . S
H584 C588 0.929 . S
H585 C594 0.929 . S
C586 H580 0.930 . S
C586 C587 1.367 . S
C586 C594 1.378 1_554 S
C587 C586 1.367 . S
C587 C595 1.433 1_554 S
C588 H584 0.929 . S
C588 C590 1.378 . S
C588 C592 1.350 . S
C589 C592 1.463 . S
C589 C594 1.350 . S
C589 N597 1.427 . S
C590 H581 0.930 . S
C590 C588 1.378 . S
C590 C591 1.367 . S
C591 C590 1.367 . S
C591 C593 1.433 . S
C592 C588 1.350 . S
C592 C589 1.463 . S
C592 N596 1.427 . S
C593 H583 0.929 . S
C593 C591 1.433 . S
C593 N596 1.384 . S
C594 H585 0.929 . S
C594 C586 1.378 1_556 S
C594 C589 1.350 . S
C595 H582 0.929 . S
C595 C587 1.433 1_556 S
C595 N597 1.384 . S
N596 C592 1.427 . S
N596 C593 1.384 . S
N597 C589 1.427 . S
N597 C595 1.384 . S
H598 C604 0.930 . S
H599 C608 0.930 . S
H600 C613 0.929 . S
H601 C611 0.929 . S
H602 C606 0.929 . S
H603 C612 0.929 . S
C604 H598 0.930 . S
C604 C605 1.367 . S
C604 C612 1.378 . S
C605 C604 1.367 . S
C605 C613 1.433 . S
C606 H602 0.929 . S
C606 C608 1.378 . S
C606 C610 1.350 . S
C607 C610 1.463 . S
C607 C612 1.350 . S
C607 N615 1.427 . S
C608 H599 0.930 . S
C608 C606 1.378 . S
C608 C609 1.367 . S
C609 C608 1.367 . S
C609 C611 1.433 . S
C610 C606 1.350 . S
C610 C607 1.463 . S
C610 N614 1.427 . S
C611 H601 0.929 . S
C611 C609 1.433 . S
C611 N614 1.384 . S
C612 H603 0.929 . S
C612 C604 1.378 . S
C612 C607 1.350 . S
C613 H600 0.929 . S
C613 C605 1.433 . S
C613 N615 1.384 . S
N614 C610 1.427 . S
N614 C611 1.384 . S
N615 C607 1.427 . S
N615 C613 1.384 . S
H616 C622 0.930 . S
H617 C626 0.930 . S
H618 C631 0.929 . S
H619 C629 0.929 . S
H620 C624 0.929 . S
H621 C630 0.929 . S
C622 H616 0.930 . S
C622 C623 1.367 . S
C622 C630 1.378 . S
C623 C622 1.367 . S
C623 C631 1.433 . S
C624 H620 0.929 . S
C624 C626 1.378 . S
C624 C628 1.350 . S
C625 C628 1.463 1_565 S
C625 C630 1.350 . S
C625 N633 1.427 . S
C626 H617 0.930 . S
C626 C624 1.378 . S
C626 C627 1.367 . S
C627 C626 1.367 . S
C627 C629 1.433 . S
C628 C624 1.350 . S
C628 C625 1.463 1_545 S
C628 N632 1.427 . S
C629 H619 0.929 . S
C629 C627 1.433 . S
C629 N632 1.384 . S
C630 H621 0.929 . S
C630 C622 1.378 . S
C630 C625 1.350 . S
C631 H618 0.929 . S
C631 C623 1.433 . S
C631 N633 1.384 . S
N632 C628 1.427 . S
N632 C629 1.384 . S
N633 C625 1.427 . S
N633 C631 1.384 . S
H634 C640 0.930 . S
H635 C644 0.930 . S
H636 C649 0.929 . S
H637 C647 0.929 . S
H638 C642 0.929 . S
H639 C648 0.929 . S
C640 H634 0.930 . S
C640 C641 1.367 . S
C640 C648 1.378 . S
C641 C640 1.367 . S
C641 C649 1.433 . S
C642 H638 0.929 . S
C642 C644 1.378 . S
C642 C646 1.350 . S
C643 C646 1.463 1_655 S
C643 C648 1.350 . S
C643 N651 1.427 . S
C644 H635 0.930 . S
C644 C642 1.378 . S
C644 C645 1.367 . S
C645 C644 1.367 . S
C645 C647 1.433 . S
C646 C642 1.350 . S
C646 C643 1.463 1_455 S
C646 N650 1.427 . S
C647 H637 0.929 . S
C647 C645 1.433 . S
C647 N650 1.384 . S
C648 H639 0.929 . S
C648 C640 1.378 . S
C648 C643 1.350 . S
C649 H636 0.929 . S
C649 C641 1.433 . S
C649 N651 1.384 . S
N650 C646 1.427 . S
N650 C647 1.384 . S
N651 C643 1.427 . S
N651 C649 1.384 . S
H652 C658 0.930 . S
H653 C662 0.930 . S
H654 C667 0.929 . S
H655 C665 0.929 . S
H656 C660 0.929 . S
H657 C666 0.929 . S
C658 H652 0.930 . S
C658 C659 1.367 . S
C658 C666 1.378 . S
C659 C658 1.367 . S
C659 C667 1.433 . S
C660 H656 0.929 . S
C660 C662 1.378 . S
C660 C664 1.350 . S
C661 C664 1.463 1_565 S
C661 C666 1.350 . S
C661 N669 1.427 . S
C662 H653 0.930 . S
C662 C660 1.378 . S
C662 C663 1.367 . S
C663 C662 1.367 . S
C663 C665 1.433 . S
C664 C660 1.350 . S
C664 C661 1.463 1_545 S
C664 N668 1.427 . S
C665 H655 0.929 . S
C665 C663 1.433 . S
C665 N668 1.384 . S
C666 H657 0.929 . S
C666 C658 1.378 . S
C666 C661 1.350 . S
C667 H654 0.929 . S
C667 C659 1.433 . S
C667 N669 1.384 . S
N668 C664 1.427 . S
N668 C665 1.384 . S
N669 C661 1.427 . S
N669 C667 1.384 . S
H670 C676 0.930 . S
H671 C680 0.930 . S
H672 C685 0.929 . S
H673 C683 0.929 . S
H674 C678 0.929 . S
H675 C684 0.929 . S
C676 H670 0.930 . S
C676 C677 1.367 . S
C676 C684 1.378 . S
C677 C676 1.367 . S
C677 C685 1.433 . S
C678 H674 0.929 . S
C678 C680 1.378 . S
C678 C682 1.350 . S
C679 C682 1.463 1_655 S
C679 C684 1.350 . S
C679 N687 1.427 . S
C680 H671 0.930 . S
C680 C678 1.378 . S
C680 C681 1.367 . S
C681 C680 1.367 . S
C681 C683 1.433 . S
C682 C678 1.350 . S
C682 C679 1.463 1_455 S
C682 N686 1.427 . S
C683 H673 0.929 . S
C683 C681 1.433 . S
C683 N686 1.384 . S
C684 H675 0.929 . S
C684 C676 1.378 . S
C684 C679 1.350 . S
C685 H672 0.929 . S
C685 C677 1.433 . S
C685 N687 1.384 . S
N686 C682 1.427 . S
N686 C683 1.384 . S
N687 C679 1.427 . S
N687 C685 1.384 . S
H688 C694 0.930 . S
H689 C698 0.930 . S
H690 C703 0.929 . S
H691 C701 0.929 . S
H692 C696 0.929 . S
H693 C702 0.929 . S
C694 H688 0.930 . S
C694 C695 1.367 . S
C694 C702 1.378 1_556 S
C695 C694 1.367 . S
C695 C703 1.433 . S
C696 H692 0.929 . S
C696 C698 1.378 . S
C696 C700 1.350 . S
C697 C700 1.463 . S
C697 C702 1.350 . S
C697 N705 1.427 . S
C698 H689 0.930 . S
C698 C696 1.378 . S
C698 C699 1.367 . S
C699 C698 1.367 . S
C699 C701 1.433 . S
C700 C696 1.350 . S
C700 C697 1.463 . S
C700 N704 1.427 . S
C701 H691 0.929 . S
C701 C699 1.433 . S
C701 N704 1.384 . S
C702 H693 0.929 . S
C702 C694 1.378 1_554 S
C702 C697 1.350 . S
C703 H690 0.929 . S
C703 C695 1.433 . S
C703 N705 1.384 1_556 S
N704 C700 1.427 . S
N704 C701 1.384 . S
N705 C697 1.427 . S
N705 C703 1.384 1_554 S
H706 C712 0.930 . S
H707 C716 0.930 . S
H708 C721 0.929 . S
H709 C719 0.929 . S
H710 C714 0.929 . S
H711 C720 0.929 . S
C712 H706 0.930 . S
C712 C713 1.367 . S
C712 C720 1.378 . S
C713 C712 1.367 . S
C713 C721 1.433 . S
C714 H710 0.929 . S
C714 C716 1.378 . S
C714 C718 1.350 . S
C715 C718 1.463 . S
C715 C720 1.350 . S
C715 N723 1.427 . S
C716 H707 0.930 . S
C716 C714 1.378 . S
C716 C717 1.367 . S
C717 C716 1.367 . S
C717 C719 1.433 . S
C718 C714 1.350 . S
C718 C715 1.463 . S
C718 N722 1.427 . S
C719 H709 0.929 . S
C719 C717 1.433 . S
C719 N722 1.384 . S
C720 H711 0.929 . S
C720 C712 1.378 . S
C720 C715 1.350 . S
C721 H708 0.929 . S
C721 C713 1.433 . S
C721 N723 1.384 . S
N722 C718 1.427 . S
N722 C719 1.384 . S
N723 C715 1.427 . S
N723 C721 1.384 . S
H724 C730 0.930 . S
H725 C734 0.930 . S
H726 C739 0.929 . S
H727 C737 0.929 . S
H728 C732 0.929 . S
H729 C738 0.929 . S
C730 H724 0.930 . S
C730 C731 1.367 . S
C730 C738 1.378 . S
C731 C730 1.367 . S
C731 C739 1.433 . S
C732 H728 0.929 . S
C732 C734 1.378 . S
C732 C736 1.350 . S
C733 C736 1.463 . S
C733 C738 1.350 . S
C733 N741 1.427 . S
C734 H725 0.930 . S
C734 C732 1.378 . S
C734 C735 1.367 . S
C735 C734 1.367 . S
C735 C737 1.433 . S
C736 C732 1.350 . S
C736 C733 1.463 . S
C736 N740 1.427 . S
C737 H727 0.929 . S
C737 C735 1.433 . S
C737 N740 1.384 . S
C738 H729 0.929 . S
C738 C730 1.378 . S
C738 C733 1.350 . S
C739 H726 0.929 . S
C739 C731 1.433 . S
C739 N741 1.384 . S
N740 C736 1.427 . S
N740 C737 1.384 . S
N741 C733 1.427 . S
N741 C739 1.384 . S
H742 C748 0.930 . S
H743 C752 0.930 . S
H744 C757 0.929 . S
H745 C755 0.929 . S
H746 C750 0.929 . S
H747 C756 0.929 . S
C748 H742 0.930 . S
C748 C749 1.367 . S
C748 C756 1.378 . S
C749 C748 1.367 . S
C749 C757 1.433 . S
C750 H746 0.929 . S
C750 C752 1.378 . S
C750 C754 1.350 . S
C751 C754 1.463 . S
C751 C756 1.350 . S
C751 N759 1.427 . S
C752 H743 0.930 . S
C752 C750 1.378 . S
C752 C753 1.367 . S
C753 C752 1.367 . S
C753 C755 1.433 . S
C754 C750 1.350 . S
C754 C751 1.463 . S
C754 N758 1.427 . S
C755 H745 0.929 . S
C755 C753 1.433 . S
C755 N758 1.384 . S
C756 H747 0.929 . S
C756 C748 1.378 . S
C756 C751 1.350 . S
C757 H744 0.929 . S
C757 C749 1.433 . S
C757 N759 1.384 . S
N758 C754 1.427 . S
N758 C755 1.384 . S
N759 C751 1.427 . S
N759 C757 1.384 . S
C479 C33 0.878 . S
C483 C387 0.878 . S
C497 C92 0.877 . S
C501 C446 0.877 . S
C515 C269 0.878 . S
C519 C151 0.878 . S
C533 C328 0.872 . S
C537 C210 0.872 . S
C551 C5 1.640 . S
C555 C300 1.641 . S
C569 C64 1.632 . S
C573 C359 1.633 . S
C587 C418 1.637 . S
C591 C123 1.638 . S
C605 C182 1.639 . S
C609 C241 1.640 . S
C623 C288 1.620 . S
C627 C52 1.621 . S
C641 C111 1.622 . S
C645 C347 1.621 . S
C659 C170 1.621 . S
C663 C406 1.622 . S
C677 C465 1.622 . S
C681 C229 1.621 . S
C695 C357 1.348 . S
C699 C3 1.340 . S
C713 C416 1.340 . S
C717 C62 1.347 . S
C731 C121 1.348 . S
C735 C239 1.340 . S
C749 C180 1.351 . S
C753 C298 1.340 . S
