# Generated by pormake.
# Topology gan, (5)-cn, num edge types: 1
# Building blocks:
#     Node 0, Type 0, BuildingBlock: BEQFEK_clean_sbu_0, # of connection points: 5
#     Node 1, Type 0, BuildingBlock: BEQFEK_clean_sbu_0, # of connection points: 5
#     Node 2, Type 0, BuildingBlock: BEQFEK_clean_sbu_0, # of connection points: 5
#     Node 3, Type 0, BuildingBlock: BEQFEK_clean_sbu_0, # of connection points: 5
#     Node 4, Type 0, BuildingBlock: BEQFEK_clean_sbu_0, # of connection points: 5
#     Node 5, Type 0, BuildingBlock: BEQFEK_clean_sbu_0, # of connection points: 5
#     Node 6, Type 0, BuildingBlock: BEQFEK_clean_sbu_0, # of connection points: 5
#     Node 7, Type 0, BuildingBlock: BEQFEK_clean_sbu_0, # of connection points: 5
#     Node 8, Type 0, BuildingBlock: BEQFEK_clean_sbu_0, # of connection points: 5
#     Node 9, Type 0, BuildingBlock: BEQFEK_clean_sbu_0, # of connection points: 5
#     Node 10, Type 0, BuildingBlock: BEQFEK_clean_sbu_0, # of connection points: 5
#     Node 11, Type 0, BuildingBlock: BEQFEK_clean_sbu_0, # of connection points: 5
#     Node 12, Type 0, BuildingBlock: BEQFEK_clean_sbu_0, # of connection points: 5
#     Node 13, Type 0, BuildingBlock: BEQFEK_clean_sbu_0, # of connection points: 5
#     Node 14, Type 0, BuildingBlock: BEQFEK_clean_sbu_0, # of connection points: 5
#     Node 15, Type 0, BuildingBlock: BEQFEK_clean_sbu_0, # of connection points: 5
#     Edge 16, Type (0, 0), BuildingBlock: ZUJKAS_clean_linker_0, # of connection points: 2
#     Edge 17, Type (0, 0), BuildingBlock: ZUJKAS_clean_linker_0, # of connection points: 2
#     Edge 18, Type (0, 0), BuildingBlock: ZUJKAS_clean_linker_0, # of connection points: 2
#     Edge 19, Type (0, 0), BuildingBlock: ZUJKAS_clean_linker_0, # of connection points: 2
#     Edge 20, Type (0, 0), BuildingBlock: ZUJKAS_clean_linker_0, # of connection points: 2
#     Edge 21, Type (0, 0), BuildingBlock: ZUJKAS_clean_linker_0, # of connection points: 2
#     Edge 22, Type (0, 0), BuildingBlock: ZUJKAS_clean_linker_0, # of connection points: 2
#     Edge 23, Type (0, 0), BuildingBlock: ZUJKAS_clean_linker_0, # of connection points: 2
#     Edge 24, Type (0, 0), BuildingBlock: ZUJKAS_clean_linker_0, # of connection points: 2
#     Edge 25, Type (0, 0), BuildingBlock: ZUJKAS_clean_linker_0, # of connection points: 2
#     Edge 26, Type (0, 0), BuildingBlock: ZUJKAS_clean_linker_0, # of connection points: 2
#     Edge 27, Type (0, 0), BuildingBlock: ZUJKAS_clean_linker_0, # of connection points: 2
#     Edge 28, Type (0, 0), BuildingBlock: ZUJKAS_clean_linker_0, # of connection points: 2
#     Edge 29, Type (0, 0), BuildingBlock: ZUJKAS_clean_linker_0, # of connection points: 2
#     Edge 30, Type (0, 0), BuildingBlock: ZUJKAS_clean_linker_0, # of connection points: 2
#     Edge 31, Type (0, 0), BuildingBlock: ZUJKAS_clean_linker_0, # of connection points: 2
#     Edge 32, Type (0, 0), BuildingBlock: ZUJKAS_clean_linker_0, # of connection points: 2
#     Edge 33, Type (0, 0), BuildingBlock: ZUJKAS_clean_linker_0, # of connection points: 2
#     Edge 34, Type (0, 0), BuildingBlock: ZUJKAS_clean_linker_0, # of connection points: 2
#     Edge 35, Type (0, 0), BuildingBlock: ZUJKAS_clean_linker_0, # of connection points: 2
#     Edge 36, Type (0, 0), BuildingBlock: ZUJKAS_clean_linker_0, # of connection points: 2
#     Edge 37, Type (0, 0), BuildingBlock: ZUJKAS_clean_linker_0, # of connection points: 2
#     Edge 38, Type (0, 0), BuildingBlock: ZUJKAS_clean_linker_0, # of connection points: 2
#     Edge 39, Type (0, 0), BuildingBlock: ZUJKAS_clean_linker_0, # of connection points: 2
#     Edge 40, Type (0, 0), BuildingBlock: ZUJKAS_clean_linker_0, # of connection points: 2
#     Edge 41, Type (0, 0), BuildingBlock: ZUJKAS_clean_linker_0, # of connection points: 2
#     Edge 42, Type (0, 0), BuildingBlock: ZUJKAS_clean_linker_0, # of connection points: 2
#     Edge 43, Type (0, 0), BuildingBlock: ZUJKAS_clean_linker_0, # of connection points: 2
#     Edge 44, Type (0, 0), BuildingBlock: ZUJKAS_clean_linker_0, # of connection points: 2
#     Edge 45, Type (0, 0), BuildingBlock: ZUJKAS_clean_linker_0, # of connection points: 2
#     Edge 46, Type (0, 0), BuildingBlock: ZUJKAS_clean_linker_0, # of connection points: 2
#     Edge 47, Type (0, 0), BuildingBlock: ZUJKAS_clean_linker_0, # of connection points: 2
#     Edge 48, Type (0, 0), BuildingBlock: ZUJKAS_clean_linker_0, # of connection points: 2
#     Edge 49, Type (0, 0), BuildingBlock: ZUJKAS_clean_linker_0, # of connection points: 2
#     Edge 50, Type (0, 0), BuildingBlock: ZUJKAS_clean_linker_0, # of connection points: 2
#     Edge 51, Type (0, 0), BuildingBlock: ZUJKAS_clean_linker_0, # of connection points: 2
#     Edge 52, Type (0, 0), BuildingBlock: ZUJKAS_clean_linker_0, # of connection points: 2
#     Edge 53, Type (0, 0), BuildingBlock: ZUJKAS_clean_linker_0, # of connection points: 2
#     Edge 54, Type (0, 0), BuildingBlock: ZUJKAS_clean_linker_0, # of connection points: 2
#     Edge 55, Type (0, 0), BuildingBlock: ZUJKAS_clean_linker_0, # of connection points: 2
# Relax obj value: 0.128
# Max RMSD: 0.208
# Mean RMSD: 0.186
data_MOF--net-gan--node1-BEQFEK_clean_sbu_0--edge1-ZUJKAS_clean_linker_0
_symmetry_space_group_name_H-M    P1
_symmetry_Int_Tables_number       1
_symmetry_cell_setting            triclinic
loop_
_symmetry_equiv_pos_as_xyz
'x, y, z'
_cell_length_a     55.918799
_cell_length_b     56.617834
_cell_length_c     55.427473
_cell_angle_alpha  91.53652
_cell_angle_beta   90.97189
_cell_angle_gamma 92.868465
loop_
_atom_site_label
_atom_site_type_symbol
_atom_site_fract_x
_atom_site_fract_y
_atom_site_fract_z
_atom_type_partial_charge
Co0 Co 0.10465 0.1261 0.11438 0.0
Co1 Co 0.1316 0.16134 0.15099 0.0
C2 C 0.13028 0.1108 0.15979 0.0
O3 O 0.11897 0.10703 0.13982 0.0
O4 O 0.13624 0.13167 0.16748 0.0
C5 C 0.07197 0.08733 0.1048 0.0
O6 O 0.07469 0.08472 0.12815 0.0
C7 C 0.15644 0.1891 0.19038 0.0
C8 C 0.159 0.22442 0.17425 0.0
C9 C 0.16568 0.21212 0.19432 0.0
N10 N 0.14498 0.18791 0.16886 0.0
N11 N 0.1465 0.20908 0.15937 0.0
C12 C 0.15802 0.16865 0.20676 0.0
H13 H 0.14056 0.15843 0.20673 0.0
H14 H 0.16283 0.17468 0.22551 0.0
H15 H 0.17174 0.15676 0.19997 0.0
C16 C 0.06526 0.15732 0.12473 0.0
N17 N 0.08767 0.15049 0.12845 0.0
N18 N 0.09859 0.16471 0.14475 0.0
C19 C 0.08315 0.18059 0.15256 0.0
C20 C 0.06163 0.17655 0.13997 0.0
C21 C 0.04806 0.14604 0.10636 0.0
H22 H 0.05699 0.1445 0.0887 0.0
H23 H 0.04275 0.12792 0.11203 0.0
H24 H 0.0317 0.15617 0.10441 0.0
O25 O 0.12959 0.13908 0.0935 0.0
O26 O 0.15006 0.1614 0.121 0.0
H27 H 0.09822 0.21539 0.16048 0.0
H28 H 0.07346 0.20706 0.1791 0.0
C29 C 0.08952 0.2005 0.1702 0.0
H30 H 0.10207 0.19464 0.18425 0.0
H31 H 0.13958 0.21287 0.14238 0.0
O32 O 0.08294 0.10455 0.09482 0.0
C33 C 0.1474 0.15285 0.09964 0.0
Co34 Co 0.10148 0.88109 0.37591 0.0
Co35 Co 0.13573 0.85256 0.34024 0.0
C36 C 0.15457 0.87437 0.38613 0.0
O37 O 0.13388 0.8816 0.39112 0.0
O38 O 0.15843 0.86269 0.36666 0.0
C39 C 0.08652 0.9224 0.40477 0.0
O40 O 0.1082 0.93125 0.40068 0.0
C41 C 0.16991 0.82336 0.31144 0.0
C42 C 0.14887 0.81829 0.2775 0.0
C43 C 0.1699 0.81201 0.28866 0.0
N44 N 0.14993 0.83578 0.31329 0.0
N45 N 0.13755 0.83251 0.29285 0.0
C46 C 0.18713 0.82048 0.33196 0.0
H47 H 0.17845 0.82407 0.34944 0.0
H48 H 0.20261 0.83333 0.33024 0.0
H49 H 0.19383 0.80235 0.33166 0.0
C50 C 0.09832 0.91021 0.33274 0.0
N51 N 0.10522 0.89065 0.3436 0.0
N52 N 0.12049 0.87992 0.32965 0.0
C53 C 0.12447 0.89294 0.31001 0.0
C54 C 0.11039 0.91238 0.31122 0.0
C55 C 0.0814 0.92716 0.34328 0.0
H56 H 0.0674 0.91746 0.35359 0.0
H57 H 0.09143 0.93991 0.35569 0.0
H58 H 0.07281 0.93723 0.32887 0.0
O59 O 0.08714 0.84875 0.37611 0.0
O60 O 0.11174 0.82949 0.35251 0.0
H61 H 0.13744 0.87921 0.27666 0.0
H62 H 0.15231 0.90657 0.28684 0.0
C63 C 0.1445 0.88936 0.29287 0.0
H64 H 0.15883 0.87953 0.30153 0.0
H65 H 0.12084 0.83937 0.28967 0.0
O66 O 0.08014 0.90202 0.39579 0.0
C67 C 0.09359 0.82973 0.366 0.0
Co68 Co 0.38062 0.9269 0.59132 0.0
Co69 Co 0.34719 0.88795 0.61694 0.0
C70 C 0.36317 0.93329 0.64209 0.0
O71 O 0.37522 0.94054 0.62413 0.0
O72 O 0.35133 0.91348 0.64144 0.0
C73 C 0.42281 0.95866 0.58399 0.0
O74 O 0.42588 0.95786 0.6075 0.0
C75 C 0.32593 0.85443 0.65262 0.0
C76 C 0.30666 0.82843 0.628 0.0
C77 C 0.31124 0.83371 0.65227 0.0
N78 N 0.3296 0.86094 0.62967 0.0
N79 N 0.31797 0.84528 0.61513 0.0
C80 C 0.33764 0.86703 0.67411 0.0
H81 H 0.35468 0.87625 0.66891 0.0
H82 H 0.34125 0.85444 0.68858 0.0
H83 H 0.32557 0.88046 0.68116 0.0
C84 C 0.41109 0.88594 0.58701 0.0
N85 N 0.39088 0.89575 0.59414 0.0
N86 N 0.37752 0.8799 0.60549 0.0
C87 C 0.38906 0.85966 0.60639 0.0
C88 C 0.41062 0.8628 0.59457 0.0
C89 C 0.43008 0.89829 0.57259 0.0
H90 H 0.42165 0.90847 0.5582 0.0
H91 H 0.44086 0.91084 0.58461 0.0
H92 H 0.44211 0.88557 0.56417 0.0
O93 O 0.35089 0.92572 0.57153 0.0
O94 O 0.32794 0.8986 0.58962 0.0
H95 H 0.36577 0.82888 0.60964 0.0
H96 H 0.39496 0.82637 0.62353 0.0
C97 C 0.38044 0.83855 0.6201 0.0
H98 H 0.37329 0.84441 0.63766 0.0
H99 H 0.31774 0.84611 0.59634 0.0
O100 O 0.405 0.94713 0.574 0.0
C101 C 0.33133 0.91338 0.57295 0.0
Co102 Co 0.35648 0.13363 0.86357 0.0
Co103 Co 0.39078 0.10351 0.8984 0.0
C104 C 0.36677 0.08238 0.85359 0.0
O105 O 0.35695 0.10161 0.84867 0.0
O106 O 0.38025 0.08046 0.87222 0.0
C107 C 0.32807 0.15284 0.82379 0.0
O108 O 0.33949 0.13761 0.81056 0.0
C109 C 0.41787 0.0686 0.92916 0.0
C110 C 0.43786 0.09466 0.95306 0.0
C111 C 0.43502 0.07055 0.94806 0.0
N112 N 0.41109 0.09054 0.92365 0.0
N113 N 0.4233 0.10584 0.93813 0.0
C114 C 0.40958 0.04659 0.91534 0.0
H115 H 0.40211 0.0509 0.89746 0.0
H116 H 0.39535 0.03713 0.92558 0.0
H117 H 0.42461 0.0347 0.91294 0.0
C118 C 0.33186 0.13899 0.90927 0.0
N119 N 0.3499 0.13037 0.89667 0.0
N120 N 0.36359 0.11842 0.91112 0.0
C121 C 0.35468 0.11939 0.93356 0.0
C122 C 0.33442 0.13265 0.93311 0.0
C123 C 0.31161 0.15142 0.89803 0.0
H124 H 0.30542 0.14173 0.88124 0.0
H125 H 0.29619 0.15258 0.91025 0.0
H126 H 0.31804 0.1695 0.89318 0.0
O127 O 0.38843 0.14953 0.86056 0.0
O128 O 0.4114 0.12802 0.88364 0.0
H129 H 0.35484 0.10958 0.97124 0.0
H130 H 0.37025 0.09024 0.95078 0.0
C131 C 0.36617 0.10885 0.95508 0.0
H132 H 0.38326 0.11892 0.95944 0.0
H133 H 0.42206 0.12414 0.93746 0.0
O134 O 0.33225 0.15391 0.84654 0.0
C135 C 0.40881 0.14505 0.86946 0.0
Co136 Co 0.60498 0.37713 0.88319 0.0
Co137 Co 0.63805 0.34856 0.84613 0.0
C138 C 0.65664 0.36607 0.89424 0.0
O139 O 0.6367 0.37496 0.89928 0.0
O140 O 0.65991 0.35495 0.8743 0.0
C141 C 0.59096 0.41434 0.91813 0.0
O142 O 0.61412 0.41781 0.92206 0.0
C143 C 0.67354 0.3218 0.81619 0.0
C144 C 0.65224 0.31637 0.78245 0.0
C145 C 0.67387 0.31116 0.79309 0.0
N146 N 0.65267 0.33266 0.81881 0.0
N147 N 0.64012 0.32911 0.79851 0.0
C148 C 0.69276 0.32198 0.83528 0.0
H149 H 0.69289 0.33866 0.84624 0.0
H150 H 0.71059 0.32009 0.82714 0.0
H151 H 0.68907 0.30701 0.84741 0.0
C152 C 0.60359 0.40843 0.8421 0.0
N153 N 0.61028 0.38828 0.85187 0.0
N154 N 0.62502 0.37772 0.83717 0.0
C155 C 0.62877 0.39146 0.81796 0.0
C156 C 0.61504 0.41106 0.82038 0.0
C157 C 0.58859 0.42597 0.85465 0.0
H158 H 0.59876 0.43385 0.8705 0.0
H159 H 0.5837 0.44038 0.84264 0.0
H160 H 0.57205 0.41682 0.86124 0.0
O161 O 0.58867 0.34567 0.88066 0.0
O162 O 0.61177 0.32635 0.85547 0.0
H163 H 0.65293 0.40334 0.79024 0.0
H164 H 0.66148 0.37719 0.80569 0.0
C165 C 0.64618 0.38669 0.79843 0.0
H166 H 0.637 0.37555 0.78398 0.0
H167 H 0.62293 0.33504 0.79577 0.0
O168 O 0.58358 0.39844 0.90262 0.0
C169 C 0.59351 0.32702 0.8688 0.0
Co170 Co 0.83529 0.38053 0.14105 0.0
Co171 Co 0.86713 0.42106 0.11582 0.0
C172 C 0.82606 0.39429 0.09009 0.0
O173 O 0.82125 0.38169 0.10829 0.0
O174 O 0.84301 0.41026 0.09067 0.0
C175 C 0.80581 0.3376 0.15139 0.0
O176 O 0.80059 0.33679 0.12817 0.0
C177 C 0.90111 0.44587 0.08192 0.0
C178 C 0.91388 0.47611 0.1055 0.0
C179 C 0.91631 0.46625 0.08259 0.0
N180 N 0.89043 0.44391 0.10351 0.0
N181 N 0.89826 0.46209 0.11742 0.0
C182 C 0.89584 0.42931 0.0608 0.0
H183 H 0.87865 0.41911 0.0631 0.0
H184 H 0.91026 0.41662 0.05935 0.0
H185 H 0.89525 0.43927 0.04384 0.0
C186 C 0.88227 0.36018 0.14504 0.0
N187 N 0.86861 0.37789 0.13866 0.0
N188 N 0.88205 0.39453 0.12854 0.0
C189 C 0.90488 0.38798 0.12853 0.0
C190 C 0.90572 0.36605 0.13898 0.0
C191 C 0.87233 0.33711 0.15419 0.0
H192 H 0.85663 0.33084 0.14287 0.0
H193 H 0.88565 0.32327 0.15389 0.0
H194 H 0.86616 0.33985 0.17293 0.0
O195 O 0.82909 0.40936 0.1598 0.0
O196 O 0.8511 0.43756 0.14238 0.0
H197 H 0.94288 0.39534 0.12403 0.0
H198 H 0.92391 0.40221 0.09874 0.0
C199 C 0.92546 0.40239 0.1187 0.0
H200 H 0.92492 0.42095 0.12546 0.0
H201 H 0.89285 0.46501 0.13513 0.0
O202 O 0.82018 0.35403 0.15986 0.0
C203 C 0.8366 0.43084 0.15857 0.0
Co204 Co 0.85923 0.64192 0.37092 0.0
Co205 Co 0.89093 0.60666 0.4026 0.0
C206 C 0.86345 0.58939 0.35889 0.0
O207 O 0.85629 0.61011 0.35535 0.0
O208 O 0.87716 0.58494 0.37673 0.0
C209 C 0.8183 0.65729 0.34155 0.0
O210 O 0.81239 0.63454 0.34012 0.0
C211 C 0.91572 0.56911 0.43162 0.0
C212 C 0.93365 0.59269 0.45943 0.0
C213 C 0.93082 0.56913 0.45209 0.0
N214 N 0.91003 0.59163 0.42734 0.0
N215 N 0.92108 0.60547 0.44405 0.0
C216 C 0.90618 0.54808 0.41695 0.0
H217 H 0.8886 0.5517 0.40863 0.0
H218 H 0.90433 0.53225 0.42829 0.0
H219 H 0.91884 0.54441 0.40227 0.0
C220 C 0.8356 0.64619 0.41776 0.0
N221 N 0.85328 0.63816 0.40412 0.0
N222 N 0.86552 0.62315 0.41666 0.0
C223 C 0.85559 0.62087 0.43846 0.0
C224 C 0.8366 0.63555 0.4399 0.0
C225 C 0.81658 0.66153 0.40868 0.0
H226 H 0.82503 0.67703 0.39971 0.0
H227 H 0.80524 0.65135 0.39503 0.0
H228 H 0.80514 0.66764 0.42354 0.0
O229 O 0.8922 0.65482 0.36734 0.0
O230 O 0.91347 0.6298 0.38804 0.0
H231 H 0.87922 0.61068 0.46652 0.0
H232 H 0.84874 0.6002 0.47024 0.0
C233 C 0.86287 0.60349 0.45676 0.0
H234 H 0.86695 0.58653 0.44763 0.0
H235 H 0.91996 0.62381 0.445 0.0
O236 O 0.8368 0.66426 0.35414 0.0
C237 C 0.91219 0.64787 0.375 0.0
Co238 Co 0.85338 0.88058 0.85723 0.0
Co239 Co 0.87817 0.9031 0.90371 0.0
C240 C 0.87635 0.92979 0.85885 0.0
O241 O 0.86476 0.91254 0.84812 0.0
O242 O 0.88315 0.92878 0.88078 0.0
C243 C 0.8533 0.85845 0.80933 0.0
O244 O 0.876 0.86545 0.80822 0.0
C245 C 0.91257 0.92681 0.93785 0.0
C246 C 0.90057 0.91222 0.97248 0.0
C247 C 0.91727 0.92785 0.96255 0.0
N248 N 0.89384 0.91143 0.93352 0.0
N249 N 0.88676 0.90274 0.95425 0.0
C250 C 0.92648 0.93875 0.91839 0.0
H251 H 0.92555 0.92762 0.90158 0.0
H252 H 0.94551 0.94217 0.92401 0.0
H253 H 0.91853 0.95584 0.91451 0.0
C254 C 0.88695 0.84295 0.86797 0.0
N255 N 0.87796 0.86423 0.87237 0.0
N256 N 0.88941 0.87449 0.89108 0.0
C257 C 0.90663 0.86048 0.89865 0.0
C258 C 0.90556 0.84004 0.88426 0.0
C259 C 0.87643 0.82462 0.85035 0.0
H260 H 0.85689 0.82648 0.84813 0.0
H261 H 0.88512 0.82676 0.83266 0.0
H262 H 0.87963 0.80655 0.85654 0.0
O263 O 0.82616 0.88211 0.87871 0.0
O264 O 0.84393 0.89856 0.91147 0.0
H265 H 0.91536 0.86527 0.93619 0.0
H266 H 0.93988 0.85567 0.91818 0.0
C267 C 0.92431 0.86705 0.91858 0.0
H268 H 0.93087 0.88569 0.9169 0.0
H269 H 0.87242 0.8904 0.95594 0.0
O270 O 0.84145 0.86338 0.82798 0.0
C271 C 0.82528 0.88993 0.90033 0.0
Co272 Co 0.85408 0.12806 0.63123 0.0
Co273 Co 0.89539 0.10288 0.60112 0.0
C274 C 0.84595 0.10875 0.58071 0.0
O275 O 0.83873 0.11869 0.6 0.0
O276 O 0.86722 0.10179 0.57886 0.0
C277 C 0.82063 0.16132 0.64847 0.0
O278 O 0.82493 0.16986 0.62708 0.0
C279 C 0.92224 0.06934 0.56923 0.0
C280 C 0.95901 0.07633 0.58367 0.0
C281 C 0.94583 0.06283 0.56647 0.0
N282 N 0.92164 0.08581 0.58732 0.0
N283 N 0.94381 0.08998 0.59558 0.0
C284 C 0.90058 0.05952 0.55552 0.0
H285 H 0.89705 0.07107 0.54014 0.0
H286 H 0.88473 0.05927 0.56732 0.0
H287 H 0.90339 0.0414 0.54833 0.0
C288 C 0.86875 0.09408 0.66663 0.0
N289 N 0.8697 0.10234 0.64418 0.0
N290 N 0.88646 0.09168 0.63213 0.0
C291 C 0.89651 0.07608 0.64669 0.0
C292 C 0.88584 0.07741 0.66908 0.0
C293 C 0.85244 0.10293 0.68562 0.0
H294 H 0.83401 0.10343 0.67801 0.0
H295 H 0.85218 0.09153 0.7016 0.0
H296 H 0.85848 0.12124 0.69129 0.0
O297 O 0.87819 0.1532 0.62557 0.0
O298 O 0.90714 0.1364 0.60528 0.0
H299 H 0.93396 0.07443 0.64069 0.0
H300 H 0.92066 0.04802 0.65307 0.0
C301 C 0.91775 0.06231 0.64024 0.0
H302 H 0.91528 0.05448 0.62177 0.0
H303 H 0.9486 0.10219 0.60949 0.0
O304 O 0.83059 0.14245 0.65434 0.0
C305 C 0.89833 0.15446 0.61529 0.0
Co306 Co 0.61475 0.10014 0.39069 0.0
Co307 Co 0.64384 0.13149 0.35262 0.0
C308 C 0.66612 0.11881 0.39908 0.0
O309 O 0.64707 0.1072 0.40513 0.0
O310 O 0.6675 0.12968 0.37922 0.0
C311 C 0.59516 0.08492 0.43711 0.0
O312 O 0.61377 0.09674 0.44706 0.0
C313 C 0.67427 0.16482 0.32266 0.0
C314 C 0.65088 0.16527 0.29018 0.0
C315 C 0.6726 0.17431 0.29971 0.0
N316 N 0.65428 0.15109 0.32638 0.0
N317 N 0.64054 0.15147 0.30679 0.0
C318 C 0.69512 0.16716 0.33996 0.0
H319 H 0.69643 0.15073 0.3502 0.0
H320 H 0.6924 0.18198 0.35297 0.0
H321 H 0.7121 0.17077 0.33034 0.0
C322 C 0.5824 0.13926 0.38618 0.0
N323 N 0.60229 0.12837 0.3799 0.0
N324 N 0.61471 0.14178 0.36504 0.0
C325 C 0.60334 0.16186 0.36183 0.0
C326 C 0.58244 0.16078 0.37489 0.0
C327 C 0.56372 0.12901 0.40244 0.0
H328 H 0.55955 0.11019 0.39721 0.0
H329 H 0.5708 0.12975 0.42128 0.0
H330 H 0.54702 0.13877 0.40156 0.0
O331 O 0.61795 0.0777 0.36352 0.0
O332 O 0.63886 0.09961 0.33791 0.0
H333 H 0.6088 0.18039 0.32914 0.0
H334 H 0.60608 0.1994 0.35537 0.0
C335 C 0.61348 0.1827 0.34861 0.0
H336 H 0.63324 0.1841 0.3508 0.0
H337 H 0.62405 0.1421 0.30471 0.0
O338 O 0.59262 0.08436 0.41423 0.0
C339 C 0.62856 0.08006 0.34356 0.0
Co340 Co 0.60179 0.88144 0.11704 0.0
Co341 Co 0.63321 0.84504 0.14796 0.0
C342 C 0.6268 0.89544 0.16412 0.0
O343 O 0.61392 0.89993 0.14571 0.0
O344 O 0.63527 0.87515 0.16709 0.0
C345 C 0.58435 0.92407 0.0927 0.0
O346 O 0.59906 0.93621 0.10766 0.0
C347 C 0.66845 0.81948 0.18022 0.0
C348 C 0.66108 0.7831 0.16592 0.0
C349 C 0.6745 0.79597 0.18345 0.0
N350 N 0.6524 0.82016 0.16162 0.0
N351 N 0.64825 0.79821 0.15334 0.0
C352 C 0.67622 0.8405 0.1958 0.0
H353 H 0.66331 0.85455 0.19426 0.0
H354 H 0.69394 0.84757 0.18983 0.0
H355 H 0.67787 0.83548 0.21496 0.0
C356 C 0.63578 0.86751 0.08033 0.0
N357 N 0.62755 0.86603 0.10287 0.0
N358 N 0.64061 0.8515 0.11517 0.0
C359 C 0.65771 0.84346 0.1007 0.0
C360 C 0.65499 0.85315 0.07814 0.0
C361 C 0.62626 0.88371 0.06196 0.0
H362 H 0.60781 0.87739 0.05648 0.0
H363 H 0.62531 0.90171 0.07017 0.0
H364 H 0.63761 0.88472 0.04578 0.0
O365 O 0.57853 0.85716 0.12763 0.0
O366 O 0.59976 0.83229 0.14855 0.0
H367 H 0.66657 0.80856 0.10974 0.0
H368 H 0.69019 0.82474 0.09493 0.0
C369 C 0.67572 0.82626 0.1082 0.0
H370 H 0.68356 0.83173 0.12613 0.0
H371 H 0.63609 0.79341 0.13935 0.0
O372 O 0.58343 0.90151 0.09339 0.0
C373 C 0.57991 0.83862 0.13992 0.0
Co374 Co 0.35452 0.63379 0.12692 0.0
Co375 Co 0.39211 0.60142 0.09901 0.0
C376 C 0.3446 0.61247 0.07719 0.0
O377 O 0.33884 0.62458 0.09578 0.0
O378 O 0.36459 0.60252 0.07594 0.0
C379 C 0.3104 0.65315 0.1478 0.0
O380 O 0.2984 0.64044 0.13103 0.0
C381 C 0.42016 0.56852 0.06702 0.0
C382 C 0.45233 0.56569 0.09015 0.0
C383 C 0.44252 0.5584 0.06789 0.0
N384 N 0.41704 0.58085 0.08792 0.0
N385 N 0.4365 0.57903 0.10148 0.0
C386 C 0.40324 0.56862 0.04585 0.0
H387 H 0.39421 0.58559 0.04556 0.0
H388 H 0.38937 0.55407 0.04751 0.0
H389 H 0.41276 0.56611 0.02864 0.0
C390 C 0.36041 0.59776 0.16291 0.0
N391 N 0.36573 0.60666 0.14135 0.0
N392 N 0.38023 0.59263 0.1299 0.0
C393 C 0.38399 0.57394 0.14381 0.0
C394 C 0.37168 0.57671 0.16515 0.0
C395 C 0.34585 0.61006 0.18138 0.0
H396 H 0.35179 0.62903 0.18282 0.0
H397 H 0.32675 0.60886 0.17551 0.0
H398 H 0.34761 0.60228 0.19943 0.0
O399 O 0.38158 0.6553 0.12065 0.0
O400 O 0.40801 0.63356 0.10198 0.0
H401 H 0.41675 0.55629 0.14125 0.0
H402 H 0.39086 0.53686 0.14546 0.0
C403 C 0.39758 0.55297 0.13622 0.0
H404 H 0.39591 0.54987 0.11642 0.0
H405 H 0.43922 0.58743 0.11837 0.0
O406 O 0.33312 0.65226 0.14897 0.0
C407 C 0.40171 0.65326 0.11078 0.0
Co408 Co 0.11105 0.60246 0.88763 0.0
Co409 Co 0.13987 0.63627 0.85151 0.0
C410 C 0.16173 0.62153 0.89775 0.0
O411 O 0.14279 0.60945 0.90322 0.0
O412 O 0.16311 0.63311 0.87833 0.0
C413 C 0.08955 0.58539 0.93255 0.0
O414 O 0.10627 0.59887 0.94376 0.0
C415 C 0.17126 0.67222 0.82628 0.0
C416 C 0.15169 0.67304 0.79137 0.0
C417 C 0.17199 0.68231 0.80358 0.0
N418 N 0.15135 0.6578 0.82729 0.0
N419 N 0.13979 0.65852 0.80634 0.0
C420 C 0.19011 0.67423 0.84578 0.0
H421 H 0.19535 0.65626 0.85043 0.0
H422 H 0.18259 0.68245 0.8622 0.0
H423 H 0.20624 0.68476 0.84024 0.0
C424 C 0.07753 0.64058 0.88433 0.0
N425 N 0.09803 0.63086 0.87804 0.0
N426 N 0.11016 0.64532 0.86395 0.0
C427 C 0.09792 0.665 0.8613 0.0
C428 C 0.07684 0.66256 0.87405 0.0
C429 C 0.05862 0.62851 0.8991 0.0
H430 H 0.05594 0.60974 0.89299 0.0
H431 H 0.06461 0.62898 0.9183 0.0
H432 H 0.0413 0.63712 0.89758 0.0
O433 O 0.11552 0.58175 0.85943 0.0
O434 O 0.13575 0.60515 0.83459 0.0
H435 H 0.10353 0.68362 0.82872 0.0
H436 H 0.09819 0.70248 0.85459 0.0
C437 C 0.10709 0.68639 0.84837 0.0
H438 H 0.12669 0.68915 0.85142 0.0
H439 H 0.12394 0.64865 0.80209 0.0
O440 O 0.08879 0.5846 0.90957 0.0
C441 C 0.12598 0.58512 0.83954 0.0
Co442 Co 0.09715 0.37942 0.61875 0.0
Co443 Co 0.12558 0.34357 0.65282 0.0
C444 C 0.12248 0.39455 0.66602 0.0
O445 O 0.11024 0.39831 0.64694 0.0
O446 O 0.12964 0.37409 0.67085 0.0
C447 C 0.06664 0.41532 0.60057 0.0
O448 O 0.06182 0.41716 0.62365 0.0
C449 C 0.16044 0.31709 0.68431 0.0
C450 C 0.15258 0.28094 0.6695 0.0
C451 C 0.16691 0.29359 0.68647 0.0
N452 N 0.14319 0.31796 0.6669 0.0
N453 N 0.13864 0.29616 0.65837 0.0
C454 C 0.17146 0.33848 0.69737 0.0
H455 H 0.16957 0.35442 0.68642 0.0
H456 H 0.19068 0.33613 0.70147 0.0
H457 H 0.16206 0.34114 0.71463 0.0
C458 C 0.13241 0.36268 0.58445 0.0
N459 N 0.12207 0.36173 0.60611 0.0
N460 N 0.13458 0.34845 0.62034 0.0
C461 C 0.15378 0.34131 0.60842 0.0
C462 C 0.15296 0.3499 0.58519 0.0
C463 C 0.12288 0.37611 0.56379 0.0
H464 H 0.1031 0.37343 0.56266 0.0
H465 H 0.12727 0.39528 0.56701 0.0
H466 H 0.1306 0.37032 0.54643 0.0
O467 O 0.07195 0.35763 0.62996 0.0
O468 O 0.09121 0.33301 0.65314 0.0
H469 H 0.17039 0.31039 0.62037 0.0
H470 H 0.19132 0.33344 0.61092 0.0
C471 C 0.17426 0.32979 0.62035 0.0
H472 H 0.17654 0.33644 0.63927 0.0
H473 H 0.12611 0.29168 0.64463 0.0
O474 O 0.08196 0.40056 0.59394 0.0
C475 C 0.07196 0.33995 0.64362 0.0
Co476 Co 0.60899 0.62446 0.62799 0.0
Co477 Co 0.63885 0.66012 0.66163 0.0
C478 C 0.61662 0.61738 0.68159 0.0
O479 O 0.60796 0.61163 0.66072 0.0
O480 O 0.6298 0.63616 0.68533 0.0
C481 C 0.56391 0.60333 0.61254 0.0
O482 O 0.55597 0.61406 0.6319 0.0
C483 C 0.6727 0.68692 0.69405 0.0
C484 C 0.67605 0.72107 0.67566 0.0
C485 C 0.68499 0.7088 0.69478 0.0
N486 N 0.65695 0.68642 0.67545 0.0
N487 N 0.65922 0.70681 0.66445 0.0
C488 C 0.67662 0.66633 0.70974 0.0
H489 H 0.65919 0.65955 0.71672 0.0
H490 H 0.68892 0.67127 0.72518 0.0
H491 H 0.68412 0.65188 0.69876 0.0
C492 C 0.58389 0.66775 0.61725 0.0
N493 N 0.60098 0.65631 0.62882 0.0
N494 N 0.61125 0.67049 0.64554 0.0
C495 C 0.59983 0.69088 0.64631 0.0
C496 C 0.58244 0.68991 0.62813 0.0
C497 C 0.57043 0.65837 0.59516 0.0
H498 H 0.58079 0.64499 0.58549 0.0
H499 H 0.55296 0.65011 0.60041 0.0
H500 H 0.56679 0.67297 0.58285 0.0
O501 O 0.6405 0.62124 0.61437 0.0
O502 O 0.6613 0.64695 0.63823 0.0
H503 H 0.6131 0.72511 0.65942 0.0
H504 H 0.58518 0.7152 0.67183 0.0
C505 C 0.60293 0.70937 0.66611 0.0
H506 H 0.61254 0.70243 0.68188 0.0
H507 H 0.65039 0.71046 0.64831 0.0
O508 O 0.58599 0.6054 0.60766 0.0
C509 C 0.66016 0.63195 0.62073 0.0
Co510 Co 0.36028 0.37238 0.37189 0.0
Co511 Co 0.38881 0.40605 0.40886 0.0
C512 C 0.36626 0.42448 0.3647 0.0
O513 O 0.35834 0.40377 0.35822 0.0
O514 O 0.3785 0.42831 0.38414 0.0
C515 C 0.34215 0.3511 0.32687 0.0
O516 O 0.34815 0.37149 0.31729 0.0
C517 C 0.41923 0.44353 0.43354 0.0
C518 C 0.42839 0.42568 0.46724 0.0
C519 C 0.43168 0.44672 0.4553 0.0
N520 N 0.40902 0.42154 0.43269 0.0
N521 N 0.41449 0.41101 0.4529 0.0
C522 C 0.41786 0.46053 0.41344 0.0
H523 H 0.40003 0.46831 0.41347 0.0
H524 H 0.41979 0.45098 0.39589 0.0
H525 H 0.432 0.47495 0.41538 0.0
C526 C 0.40584 0.34872 0.37218 0.0
N527 N 0.39224 0.36643 0.37925 0.0
N528 N 0.40477 0.38104 0.394 0.0
C529 C 0.42704 0.3733 0.39643 0.0
C530 C 0.42837 0.35255 0.3828 0.0
C531 C 0.39646 0.3275 0.35758 0.0
H532 H 0.37884 0.32124 0.36453 0.0
H533 H 0.3938 0.3326 0.33857 0.0
H534 H 0.40878 0.31277 0.35816 0.0
O535 O 0.34063 0.37019 0.40039 0.0
O536 O 0.36126 0.39327 0.42709 0.0
H537 H 0.44457 0.38099 0.43047 0.0
H538 H 0.46455 0.37993 0.40538 0.0
C539 C 0.44678 0.38555 0.41127 0.0
H540 H 0.44611 0.40498 0.40971 0.0
H541 H 0.40862 0.3938 0.45693 0.0
O542 O 0.34632 0.34819 0.34912 0.0
C543 C 0.34343 0.37933 0.42144 0.0
H544 H 0.16685 0.25585 0.21526 0.0
H545 H 0.19878 0.27446 0.24107 0.0
H546 H 0.23505 0.209 0.24093 0.0
H547 H 0.20356 0.19048 0.21456 0.0
H548 H 0.21902 0.26253 0.28685 0.0
H549 H 0.28302 0.25787 0.21116 0.0
H550 H 0.2511 0.25291 0.20667 0.0
H551 H 0.26839 0.23037 0.21955 0.0
C552 C 0.18142 0.24533 0.22113 0.0
C553 C 0.18259 0.22168 0.2132 0.0
C554 C 0.19958 0.25594 0.23586 0.0
C555 C 0.2193 0.24311 0.24262 0.0
C556 C 0.22 0.21916 0.2357 0.0
H557 H 0.33023 0.30622 0.34056 0.0
H558 H 0.30222 0.27747 0.32017 0.0
C559 C 0.20181 0.20853 0.22096 0.0
C560 C 0.2398 0.25548 0.25539 0.0
H561 H 0.2973 0.27654 0.24739 0.0
C562 C 0.23625 0.2654 0.27841 0.0
C563 C 0.26207 0.25936 0.24404 0.0
C564 C 0.26647 0.24976 0.21892 0.0
C565 C 0.25432 0.27952 0.29028 0.0
C566 C 0.27654 0.2835 0.27888 0.0
C567 C 0.28025 0.27325 0.25605 0.0
C568 C 0.29557 0.29954 0.28978 0.0
C569 C 0.24918 0.29084 0.3145 0.0
C570 C 0.30187 0.32094 0.27878 0.0
C571 C 0.31797 0.33739 0.29029 0.0
C572 C 0.32794 0.33261 0.31296 0.0
C573 C 0.32259 0.31055 0.32323 0.0
C574 C 0.30656 0.29412 0.31169 0.0
H575 H 0.22976 0.28978 0.3185 0.0
H576 H 0.25875 0.2816 0.32887 0.0
H577 H 0.25564 0.30972 0.31524 0.0
H578 H 0.29362 0.3253 0.26175 0.0
H579 H 0.32182 0.35418 0.28189 0.0
H580 H 0.93781 0.05729 0.51739 0.0
H581 H 0.95934 0.03246 0.48898 0.0
H582 H 0.99892 0.00464 0.54845 0.0
H583 H 0.97836 0.03033 0.57654 0.0
H584 H 0.02848 0.01493 0.51618 0.0
H585 H 0.95342 0.96515 0.46865 0.0
H586 H 0.95117 0.99644 0.4661 0.0
H587 H 0.94902 0.98328 0.49529 0.0
C588 C 0.95074 0.04548 0.52439 0.0
C589 C 0.95619 0.04558 0.54925 0.0
C590 C 0.96305 0.03117 0.50811 0.0
C591 C 0.98065 0.01617 0.51639 0.0
C592 C 0.98553 0.01593 0.54137 0.0
H593 H 0.04636 0.90608 0.42849 0.0
H594 H 0.02081 0.9286 0.45526 0.0
C595 C 0.97367 0.03057 0.55751 0.0
C596 C 0.99523 0.00197 0.49924 0.0
H597 H 0.99186 0.96298 0.45078 0.0
C598 C 0.02033 0.00346 0.50201 0.0
C599 C 0.9849 0.98663 0.48079 0.0
C600 C 0.95815 0.98256 0.47767 0.0
C601 C 0.03524 0.99034 0.48707 0.0
C602 C 0.02501 0.97593 0.46786 0.0
C603 C 0.99989 0.97421 0.46518 0.0
C604 C 0.04004 0.9623 0.45069 0.0
C605 C 0.06179 0.9916 0.49269 0.0
C606 C 0.05912 0.97362 0.43856 0.0
C607 C 0.07403 0.96068 0.42364 0.0
C608 C 0.06989 0.93613 0.41984 0.0
C609 C 0.05013 0.92494 0.43105 0.0
C610 C 0.03547 0.93785 0.44637 0.0
H611 H 0.06558 0.99658 0.51196 0.0
H612 H 0.06986 0.97444 0.4887 0.0
H613 H 0.07071 0.00537 0.48161 0.0
H614 H 0.06263 0.99254 0.4407 0.0
H615 H 0.08881 0.96998 0.415 0.0
H616 H 0.19487 0.72258 0.82364 0.0
H617 H 0.22285 0.75042 0.80365 0.0
H618 H 0.21778 0.7065 0.73886 0.0
H619 H 0.19002 0.67874 0.75866 0.0
H620 H 0.2673 0.72467 0.75591 0.0
H621 H 0.20022 0.79356 0.74646 0.0
H622 H 0.20439 0.78074 0.77554 0.0
H623 H 0.19135 0.76291 0.75104 0.0
C624 C 0.20015 0.71866 0.80532 0.0
C625 C 0.19052 0.69832 0.79281 0.0
C626 C 0.21592 0.73467 0.79385 0.0
C627 C 0.22232 0.73056 0.76973 0.0
C628 C 0.21312 0.71001 0.75747 0.0
H629 H 0.3007 0.78637 0.65165 0.0
H630 H 0.28142 0.76275 0.68261 0.0
C631 C 0.19724 0.69419 0.76879 0.0
C632 C 0.23796 0.74783 0.75674 0.0
H633 H 0.23726 0.80044 0.72798 0.0
C634 C 0.26087 0.74138 0.75003 0.0
C635 C 0.22961 0.76967 0.74922 0.0
C636 C 0.20502 0.77727 0.75576 0.0
C637 C 0.27547 0.75595 0.73557 0.0
C638 C 0.26663 0.77726 0.72693 0.0
C639 C 0.24406 0.78412 0.73447 0.0
C640 C 0.27966 0.79171 0.70871 0.0
C641 C 0.30021 0.74831 0.72968 0.0
C642 C 0.28462 0.81612 0.71263 0.0
C643 C 0.29546 0.82984 0.6947 0.0
C644 C 0.30156 0.81941 0.67244 0.0
C645 C 0.29653 0.79498 0.66864 0.0
C646 C 0.28568 0.78135 0.68648 0.0
H647 H 0.30728 0.73699 0.74395 0.0
H648 H 0.29936 0.73772 0.71252 0.0
H649 H 0.31296 0.76376 0.72757 0.0
H650 H 0.27979 0.82465 0.72946 0.0
H651 H 0.29818 0.84869 0.69802 0.0
H652 H 0.42369 0.02254 0.95555 0.0
H653 H 0.44728 0.99487 0.97824 0.0
H654 H 0.50184 0.05006 0.9927 0.0
H655 H 0.47891 0.07753 0.96977 0.0
H656 H 0.49839 0.98146 0.97267 0.0
H657 H 0.48187 0.02628 0.06059 0.0
H658 H 0.4635 0.0302 0.03402 0.0
H659 H 0.49228 0.04563 0.03739 0.0
C660 C 0.44093 0.02873 0.96299 0.0
C661 C 0.44933 0.05242 0.96042 0.0
C662 C 0.45435 0.01286 0.97622 0.0
C663 C 0.47629 0.02038 0.98747 0.0
C664 C 0.48486 0.04382 0.98454 0.0
H665 H 0.58528 0.97152 0.08399 0.0
H666 H 0.55873 0.99284 0.05785 0.0
C667 C 0.47162 0.05955 0.97131 0.0
C668 C 0.49023 0.00424 0.00275 0.0
H669 H 0.51205 0.9983 0.06023 0.0
C670 C 0.50118 0.98494 0.99187 0.0
C671 C 0.49401 0.00878 0.02781 0.0
C672 C 0.48216 0.02871 0.04077 0.0
C673 C 0.5165 0.97072 0.00514 0.0
C674 C 0.52063 0.97553 0.03019 0.0
C675 C 0.50914 0.99452 0.04109 0.0
C676 C 0.53738 0.96183 0.04536 0.0
C677 C 0.52892 0.95135 0.99189 0.0
C678 C 0.5345 0.93709 0.04732 0.0
C679 C 0.54994 0.92472 0.06222 0.0
C680 C 0.56848 0.93679 0.07585 0.0
C681 C 0.57128 0.96152 0.07385 0.0
C682 C 0.556 0.97382 0.05886 0.0
H683 H 0.52921 0.95416 0.97213 0.0
H684 H 0.54764 0.95019 0.9986 0.0
H685 H 0.51916 0.93416 0.99484 0.0
H686 H 0.52001 0.92733 0.0377 0.0
H687 H 0.54704 0.90573 0.06342 0.0
H688 H 0.32967 0.68423 0.18283 0.0
H689 H 0.30842 0.71055 0.20999 0.0
H690 H 0.24101 0.6844 0.17827 0.0
H691 H 0.26201 0.65801 0.15122 0.0
H692 H 0.2779 0.74671 0.19875 0.0
H693 H 0.2295 0.67756 0.25043 0.0
H694 H 0.25457 0.67131 0.2316 0.0
H695 H 0.22524 0.67378 0.21837 0.0
C696 C 0.3103 0.68395 0.18171 0.0
C697 C 0.29759 0.66884 0.16482 0.0
C698 C 0.29817 0.69908 0.19726 0.0
C699 C 0.27304 0.69929 0.1965 0.0
C700 C 0.26034 0.68428 0.17962 0.0
H701 H 0.15863 0.77552 0.25701 0.0
H702 H 0.18527 0.74898 0.23666 0.0
C703 C 0.27244 0.66924 0.16402 0.0
C704 C 0.26005 0.71559 0.21279 0.0
H705 H 0.21594 0.71672 0.2548 0.0
C706 C 0.26456 0.74016 0.21122 0.0
C707 C 0.24267 0.70712 0.22917 0.0
C708 C 0.23783 0.681 0.23273 0.0
C709 C 0.25145 0.7564 0.22472 0.0
C710 C 0.23358 0.7479 0.24061 0.0
C711 C 0.22957 0.72332 0.24264 0.0
C712 C 0.21768 0.76406 0.25395 0.0
C713 C 0.25611 0.78252 0.22104 0.0
C714 C 0.22685 0.78134 0.27086 0.0
C715 C 0.21152 0.79672 0.28266 0.0
C716 C 0.18666 0.79503 0.27787 0.0
C717 C 0.17763 0.77745 0.26119 0.0
C718 C 0.19287 0.76214 0.24953 0.0
H719 H 0.26662 0.78599 0.20456 0.0
H720 H 0.23902 0.7916 0.21962 0.0
H721 H 0.26645 0.7904 0.23678 0.0
H722 H 0.24588 0.78304 0.27488 0.0
H723 H 0.21925 0.81028 0.29495 0.0
H724 H 0.42246 0.96321 0.53482 0.0
H725 H 0.45189 0.98477 0.51041 0.0
H726 H 0.49232 0.00637 0.57486 0.0
H727 H 0.46314 0.98467 0.5994 0.0
H728 H 0.46613 0.03285 0.51193 0.0
H729 H 0.54311 0.97797 0.5322 0.0
H730 H 0.51263 0.96862 0.53876 0.0
H731 H 0.52891 0.98972 0.55842 0.0
C732 C 0.43762 0.9725 0.54384 0.0
C733 C 0.44044 0.9721 0.56912 0.0
C734 C 0.45444 0.98484 0.52983 0.0
C735 C 0.47454 0.99691 0.54073 0.0
C736 C 0.47725 0.9968 0.56597 0.0
H737 H 0.59574 0.08129 0.48637 0.0
H738 H 0.56618 0.06059 0.51136 0.0
C739 C 0.46043 0.98448 0.58001 0.0
C740 C 0.4924 0.00993 0.52572 0.0
H741 H 0.55147 0.01288 0.51052 0.0
C742 C 0.48477 0.02842 0.51155 0.0
C743 C 0.51675 0.0042 0.52525 0.0
C744 C 0.52587 0.98392 0.53929 0.0
C745 C 0.50086 0.04156 0.49724 0.0
C746 C 0.5252 0.03578 0.49671 0.0
C747 C 0.53284 0.01733 0.51094 0.0
C748 C 0.54299 0.04856 0.48141 0.0
C749 C 0.49174 0.06186 0.48324 0.0
C750 C 0.53998 0.0485 0.4562 0.0
C751 C 0.55684 0.06034 0.44184 0.0
C752 C 0.57721 0.0724 0.45237 0.0
C753 C 0.58027 0.07226 0.47763 0.0
C754 C 0.56339 0.0604 0.49196 0.0
H755 H 0.47468 0.068 0.49057 0.0
H756 H 0.50511 0.07704 0.48348 0.0
H757 H 0.48834 0.05597 0.46418 0.0
H758 H 0.52466 0.03908 0.44756 0.0
H759 H 0.55392 0.05996 0.42246 0.0
H760 H 0.30374 0.18967 0.8441 0.0
H761 H 0.2761 0.21557 0.8238 0.0
H762 H 0.28616 0.178 0.75641 0.0
H763 H 0.31357 0.15222 0.77636 0.0
H764 H 0.28385 0.24578 0.78298 0.0
H765 H 0.21281 0.176 0.7628 0.0
H766 H 0.23645 0.17246 0.78481 0.0
H767 H 0.24197 0.1683 0.75315 0.0
C768 C 0.3 0.18686 0.82497 0.0
C769 C 0.3109 0.16868 0.81197 0.0
C770 C 0.28422 0.20176 0.81336 0.0
C771 C 0.27872 0.19864 0.78855 0.0
C772 C 0.28971 0.18061 0.77559 0.0
H773 H 0.19294 0.25559 0.67558 0.0
H774 H 0.2199 0.23468 0.70154 0.0
C775 C 0.30553 0.16588 0.78709 0.0
C776 C 0.26168 0.21411 0.77597 0.0
H777 H 0.20979 0.21203 0.74213 0.0
C778 C 0.26751 0.23847 0.77427 0.0
C779 C 0.24029 0.20469 0.76456 0.0
C780 C 0.23232 0.17898 0.76656 0.0
C781 C 0.25317 0.25334 0.76065 0.0
C782 C 0.23207 0.24376 0.74871 0.0
C783 C 0.22596 0.21951 0.75105 0.0
C784 C 0.21663 0.25802 0.73272 0.0
C785 C 0.26133 0.27896 0.75833 0.0
C786 C 0.20566 0.27844 0.74128 0.0
C787 C 0.19018 0.29068 0.72624 0.0
C788 C 0.18515 0.28268 0.7023 0.0
C789 C 0.19634 0.26238 0.69383 0.0
C790 C 0.21181 0.25031 0.70874 0.0
H791 H 0.28057 0.28212 0.76334 0.0
H792 H 0.25846 0.28488 0.73962 0.0
H793 H 0.25078 0.29001 0.77062 0.0
H794 H 0.20847 0.28454 0.75984 0.0
H795 H 0.18143 0.30576 0.73371 0.0
H796 H 0.05156 0.04534 0.11909 0.0
H797 H 0.02724 0.0164 0.09457 0.0
H798 H 0.03325 0.06175 0.03342 0.0
H799 H 0.05799 0.09056 0.05763 0.0
H800 H 0.98435 0.02171 0.07183 0.0
H801 H 0.05285 -0.00104 0.00503 0.0
H802 H 0.06028 0.01514 0.03288 0.0
H803 H 0.04839 0.0301 0.00743 0.0
C804 C 0.04776 0.04913 0.1004 0.0
C805 C 0.05679 0.07015 0.09023 0.0
C806 C 0.03391 0.03257 0.08643 0.0
C807 C 0.02888 0.03675 0.06209 0.0
C808 C 0.03749 0.05791 0.052 0.0
H809 H 0.93318 0.97334 0.95364 0.0
H810 H 0.9617 0.99841 0.97787 0.0
C811 C 0.05147 0.07442 0.0659 0.0
C812 C 0.01383 0.01938 0.0475 0.0
H813 H 0.01251 0.9855 0.99557 0.0
C814 C 0.99057 0.01361 0.05529 0.0
C815 C 0.02209 0.00883 0.02597 0.0
C816 C 0.04735 0.01337 0.01743 0.0
C817 C 0.97508 0.998 0.04173 0.0
C818 C 0.98317 0.98792 0.01998 0.0
C819 C 0.00647 0.99341 0.01229 0.0
C820 C 0.96733 0.9721 0.00466 0.0
C821 C 0.94998 0.99275 0.05038 0.0
C822 C 0.96142 0.94899 0.0117 0.0
C823 C 0.94544 0.93447 0.99767 0.0
C824 C 0.93529 0.94284 0.97637 0.0
C825 C 0.94138 0.96602 0.96938 0.0
C826 C 0.95746 0.98047 0.98334 0.0
H827 H 0.94553 0.0043 0.06603 0.0
H828 H 0.93677 0.99508 0.03555 0.0
H829 H 0.94812 0.97405 0.05587 0.0
H830 H 0.96896 0.94232 0.02815 0.0
H831 H 0.94093 0.91673 0.00354 0.0
H832 H 0.79313 0.19855 0.63877 0.0
H833 H 0.76953 0.22159 0.6666 0.0
H834 H 0.78971 0.17747 0.72497 0.0
H835 H 0.81355 0.15413 0.69705 0.0
H836 H 0.73061 0.2057 0.69587 0.0
H837 H 0.80674 0.24598 0.75125 0.0
H838 H 0.81086 0.23243 0.72184 0.0
H839 H 0.80529 0.21429 0.74739 0.0
C840 C 0.7926 0.19362 0.65751 0.0
C841 C 0.80536 0.17444 0.66561 0.0
C842 C 0.77904 0.20688 0.67344 0.0
C843 C 0.77803 0.20155 0.698 0.0
C844 C 0.79048 0.18221 0.70619 0.0
H845 H 0.70268 0.27797 0.81319 0.0
H846 H 0.72833 0.25072 0.7917 0.0
C847 C 0.80397 0.16876 0.69016 0.0
C848 C 0.76358 0.21618 0.71464 0.0
H849 H 0.768 0.25677 0.76169 0.0
C850 C 0.7388 0.21676 0.71034 0.0
C851 C 0.77416 0.23054 0.73368 0.0
C852 C 0.80074 0.23103 0.73885 0.0
C853 C 0.7244 0.23139 0.72426 0.0
C854 C 0.73508 0.24647 0.74271 0.0
C855 C 0.75977 0.24538 0.74752 0.0
C856 C 0.721 0.26414 0.75629 0.0
C857 C 0.69778 0.23041 0.71912 0.0
C858 C 0.70894 0.28136 0.74378 0.0
C859 C 0.69443 0.297 0.75601 0.0
C860 C 0.69183 0.29621 0.7812 0.0
C861 C 0.70465 0.27956 0.79391 0.0
C862 C 0.71917 0.26376 0.78158 0.0
H863 H 0.69159 0.21329 0.71026 0.0
H864 H 0.68757 0.23289 0.73593 0.0
H865 H 0.69354 0.24472 0.70669 0.0
H866 H 0.71046 0.28251 0.72439 0.0
H867 H 0.68493 0.30961 0.74561 0.0
H868 H 0.08615 0.58268 0.98171 0.0
H869 H 0.05611 0.56025 0.00456 0.0
H870 H 0.02189 0.53429 0.9381 0.0
H871 H 0.05168 0.55691 0.91506 0.0
H872 H 0.98957 0.54999 0.97112 0.0
H873 H 0.05078 0.48909 0.01441 0.0
H874 H 0.05981 0.51975 0.01929 0.0
H875 H 0.05955 0.50694 0.98922 0.0
C876 C 0.07231 0.57212 0.9719 0.0
C877 C 0.07146 0.57154 0.9465 0.0
C878 C 0.05521 0.55917 0.98503 0.0
C879 C 0.03694 0.54522 0.97308 0.0
C880 C 0.0359 0.54478 0.94773 0.0
H881 H 0.94253 0.44336 0.04796 0.0
H882 H 0.97033 0.46146 0.01926 0.0
C883 C 0.05299 0.55772 0.93458 0.0
C884 C 0.01852 0.53172 0.98702 0.0
H885 H 0.01136 0.48999 0.03016 0.0
C886 C 0.99433 0.53675 0.98389 0.0
C887 C 0.02462 0.51415 0.00344 0.0
C888 C 0.05007 0.50695 0.00666 0.0
C889 C 0.97624 0.52531 0.99728 0.0
C890 C 0.98249 0.50856 0.01453 0.0
C891 C 0.00657 0.50294 0.01708 0.0
C892 C 0.96449 0.49748 0.03084 0.0
C893 C 0.95057 0.53122 0.99277 0.0
C894 C 0.95198 0.51164 0.04695 0.0
C895 C 0.93597 0.50136 0.0632 0.0
C896 C 0.93199 0.47664 0.06375 0.0
C897 C 0.94448 0.46243 0.04755 0.0
C898 C 0.96063 0.47277 0.03131 0.0
H899 H 0.94803 0.53867 0.97462 0.0
H900 H 0.93826 0.51534 0.99432 0.0
H901 H 0.94549 0.54468 0.00641 0.0
H902 H 0.95502 0.5307 0.04736 0.0
H903 H 0.92684 0.51284 0.07556 0.0
H904 H 0.82708 0.70538 0.33587 0.0
H905 H 0.80372 0.73224 0.31177 0.0
H906 H 0.75391 0.67435 0.29135 0.0
H907 H 0.77688 0.6476 0.31531 0.0
H908 H 0.79219 0.73018 0.26186 0.0
H909 H 0.70937 0.72462 0.31512 0.0
H910 H 0.73758 0.71485 0.32646 0.0
H911 H 0.71936 0.69618 0.30593 0.0
C912 C 0.81104 0.6984 0.32641 0.0
C913 C 0.80389 0.67424 0.32774 0.0
C914 C 0.79771 0.7138 0.31255 0.0
C915 C 0.77675 0.70551 0.29992 0.0
C916 C 0.76966 0.68142 0.30124 0.0
H917 H 0.66964 0.7514 0.20061 0.0
H918 H 0.6952 0.73186 0.22907 0.0
C919 C 0.78297 0.66605 0.31494 0.0
C920 C 0.76254 0.72165 0.28482 0.0
H921 H 0.70604 0.74092 0.27602 0.0
C922 C 0.77342 0.73278 0.26514 0.0
C923 C 0.73801 0.72515 0.28898 0.0
C924 C 0.72542 0.71477 0.3104 0.0
C925 C 0.76027 0.7463 0.24897 0.0
C926 C 0.73555 0.74929 0.25278 0.0
C927 C 0.72489 0.73869 0.27289 0.0
C928 C 0.72002 0.76199 0.23545 0.0
C929 C 0.77277 0.75633 0.22733 0.0
C930 C 0.72506 0.78574 0.22945 0.0
C931 C 0.71037 0.79708 0.21287 0.0
C932 C 0.69007 0.78505 0.20208 0.0
C933 C 0.68503 0.76138 0.20841 0.0
C934 C 0.69967 0.75011 0.22486 0.0
H935 H 0.7898 0.74767 0.22375 0.0
H936 H 0.76112 0.75427 0.21091 0.0
H937 H 0.77709 0.77549 0.23071 0.0
H938 H 0.74038 0.79556 0.23756 0.0
H939 H 0.71535 0.81504 0.20816 0.0
H940 H 0.93854 0.56545 0.50031 0.0
H941 H 0.96097 0.53622 0.52162 0.0
H942 H 0.97289 0.49938 0.45421 0.0
H943 H 0.9504 0.52883 0.4326 0.0
H944 H 0.95311 0.48514 0.52261 0.0
H945 H 0.04147 0.51265 0.48488 0.0
H946 H 0.01622 0.53131 0.48389 0.0
H947 H 0.01708 0.50602 0.46379 0.0
C948 C 0.94572 0.55102 0.48995 0.0
C949 C 0.94239 0.54946 0.4647 0.0
C950 C 0.95859 0.53429 0.50222 0.0
C951 C 0.96892 0.51566 0.4896 0.0
C952 C 0.96531 0.5137 0.46439 0.0
H953 H 0.06689 0.4129 0.55055 0.0
H954 H 0.04309 0.43544 0.52229 0.0
C955 C 0.95214 0.53039 0.45206 0.0
C956 C 0.98353 0.49867 0.50312 0.0
H957 H 0.04103 0.48259 0.5134 0.0
C958 C 0.97231 0.48447 0.52044 0.0
C959 C 0.0086 0.49761 0.5003 0.0
C960 C 0.02173 0.51276 0.48234 0.0
C961 C 0.98538 0.46953 0.53511 0.0
C962 C 0.01063 0.46917 0.53305 0.0
C963 C 0.02177 0.48284 0.51518 0.0
C964 C 0.02575 0.45568 0.55004 0.0
C965 C 0.97184 0.4541 0.55257 0.0
C966 C 0.02459 0.45983 0.5751 0.0
C967 C 0.03805 0.44694 0.59123 0.0
C968 C 0.05342 0.42965 0.58285 0.0
C969 C 0.05522 0.42598 0.55771 0.0
C970 C 0.04158 0.43888 0.5415 0.0
H971 H 0.95298 0.45037 0.54644 0.0
H972 H 0.98041 0.43701 0.55487 0.0
H973 H 0.97153 0.46343 0.57042 0.0
H974 H 0.01318 0.47312 0.58229 0.0
H975 H 0.0363 0.45055 0.61039 0.0
H976 H 0.54154 0.4117 0.91578 0.0
H977 H 0.51382 0.43606 0.9382 0.0
H978 H 0.57371 0.4743 0.97358 0.0
H979 H 0.6014 0.4503 0.95125 0.0
H980 H 0.50795 0.44218 0.98818 0.0
H981 H 0.53493 0.5277 0.94797 0.0
H982 H 0.54297 0.49966 0.93501 0.0
H983 H 0.55972 0.5128 0.96038 0.0
C984 C 0.54882 0.42537 0.92826 0.0
C985 C 0.57379 0.42904 0.93155 0.0
C986 C 0.53292 0.43928 0.94111 0.0
C987 C 0.54159 0.45735 0.95736 0.0
C988 C 0.56649 0.46087 0.96081 0.0
H989 H 0.4905 0.55825 0.06067 0.0
H990 H 0.51235 0.53345 0.03291 0.0
C991 C 0.58235 0.44697 0.94807 0.0
C992 C 0.5248 0.47223 0.97116 0.0
H993 H 0.51151 0.52963 0.98349 0.0
C994 C 0.50852 0.46128 0.98694 0.0
C995 C 0.52543 0.49719 0.9696 0.0
C996 C 0.54153 0.51005 0.95216 0.0
C997 C 0.4937 0.47461 0.00188 0.0
C998 C 0.49478 0.49963 0.00074 0.0
C999 C 0.51063 0.5105 0.9845 0.0
C1000 C 0.4808 0.51498 0.01722 0.0
C1001 C 0.47778 0.46181 0.01951 0.0
C1002 C 0.45559 0.51325 0.01761 0.0
C1003 C 0.44292 0.52752 0.03364 0.0
C1004 C 0.45518 0.54401 0.04948 0.0
C1005 C 0.48038 0.54583 0.04876 0.0
C1006 C 0.49296 0.53165 0.0328 0.0
H1007 H 0.48307 0.44338 0.02211 0.0
H1008 H 0.47825 0.47127 0.03733 0.0
H1009 H 0.45904 0.46103 0.0125 0.0
H1010 H 0.44568 0.5008 0.00558 0.0
H1011 H 0.42362 0.52514 0.03402 0.0
H1012 H 0.72619 0.68576 0.70178 0.0
H1013 H 0.76383 0.70267 0.7202 0.0
H1014 H 0.72931 0.76733 0.73711 0.0
H1015 H 0.69188 0.75067 0.71863 0.0
H1016 H 0.78082 0.75989 0.70338 0.0
H1017 H 0.77244 0.73506 0.79945 0.0
H1018 H 0.76088 0.71609 0.7747 0.0
H1019 H 0.74543 0.74189 0.78342 0.0
C1020 C 0.72654 0.7033 0.71011 0.0
C1021 C 0.70619 0.71689 0.70925 0.0
C1022 C 0.74801 0.71295 0.72035 0.0
C1023 C 0.74913 0.73614 0.72991 0.0
C1024 C 0.7286 0.74935 0.72982 0.0
H1025 H 0.80634 0.85202 0.79784 0.0
H1026 H 0.78683 0.81852 0.7755 0.0
C1027 C 0.70731 0.73985 0.7194 0.0
C1028 C 0.77183 0.7477 0.73871 0.0
H1029 H 0.79843 0.76844 0.79125 0.0
C1030 C 0.78537 0.76121 0.72249 0.0
C1031 C 0.77746 0.74923 0.76359 0.0
C1032 C 0.76344 0.73472 0.78141 0.0
C1033 C 0.80312 0.77795 0.73089 0.0
C1034 C 0.80719 0.78102 0.75598 0.0
C1035 C 0.79516 0.76595 0.77198 0.0
C1036 C 0.81987 0.80246 0.76626 0.0
C1037 C 0.81584 0.79375 0.71323 0.0
C1038 C 0.84495 0.80483 0.76756 0.0
C1039 C 0.85621 0.82421 0.78015 0.0
C1040 C 0.8424 0.84109 0.79172 0.0
C1041 C 0.81737 0.8392 0.78916 0.0
C1042 C 0.80622 0.82008 0.77651 0.0
H1043 H 0.81145 0.78835 0.69419 0.0
H1044 H 0.81074 0.81228 0.71633 0.0
H1045 H 0.83551 0.79339 0.71617 0.0
H1046 H 0.85568 0.79128 0.75974 0.0
H1047 H 0.87555 0.82519 0.78209 0.0
H1048 H 0.67948 0.17481 0.25141 0.0
H1049 H 0.70433 0.20265 0.22863 0.0
H1050 H 0.72841 0.2384 0.29493 0.0
H1051 H 0.70315 0.21078 0.31795 0.0
H1052 H 0.70001 0.25261 0.22966 0.0
H1053 H 0.79132 0.22803 0.25757 0.0
H1054 H 0.76512 0.20852 0.26111 0.0
H1055 H 0.77066 0.23351 0.28139 0.0
C1056 C 0.69024 0.18843 0.26124 0.0
C1057 C 0.68961 0.19023 0.28659 0.0
C1058 C 0.70446 0.20433 0.24815 0.0
C1059 C 0.71848 0.22243 0.26005 0.0
C1060 C 0.71815 0.22424 0.28539 0.0
H1061 H 0.80999 0.33609 0.20074 0.0
H1062 H 0.78906 0.3087 0.22765 0.0
C1063 C 0.7038 0.20831 0.29856 0.0
C1064 C 0.73219 0.2401 0.24563 0.0
H1065 H 0.78879 0.2602 0.23155 0.0
C1066 C 0.71943 0.25429 0.23009 0.0
C1067 C 0.7575 0.2424 0.24635 0.0
C1068 C 0.77208 0.22724 0.26235 0.0
C1069 C 0.73124 0.27068 0.21522 0.0
C1070 C 0.75659 0.27254 0.21539 0.0
C1071 C 0.76938 0.25867 0.2313 0.0
C1072 C 0.77007 0.28858 0.19895 0.0
C1073 C 0.71637 0.28608 0.19972 0.0
C1074 C 0.76684 0.28608 0.1738 0.0
C1075 C 0.77868 0.30177 0.15837 0.0
C1076 C 0.79424 0.3202 0.16773 0.0
C1077 C 0.79806 0.32219 0.1929 0.0
C1078 C 0.78612 0.30652 0.20833 0.0
H1079 H 0.69802 0.28752 0.20683 0.0
H1080 H 0.72486 0.30416 0.19855 0.0
H1081 H 0.71467 0.27814 0.18122 0.0
H1082 H 0.75502 0.27203 0.16607 0.0
H1083 H 0.77547 0.29955 0.1391 0.0
H1084 H 0.41705 0.49206 0.4559 0.0
H1085 H 0.43613 0.52624 0.47832 0.0
H1086 H 0.49342 0.48315 0.50088 0.0
H1087 H 0.47446 0.449 0.47871 0.0
H1088 H 0.45389 0.51442 0.53634 0.0
H1089 H 0.5166 0.55646 0.47131 0.0
H1090 H 0.48805 0.54247 0.46185 0.0
H1091 H 0.51221 0.52465 0.47046 0.0
C1092 C 0.43408 0.49014 0.46506 0.0
C1093 C 0.44451 0.46807 0.46547 0.0
C1094 C 0.44481 0.50956 0.47791 0.0
C1095 C 0.46614 0.50705 0.491 0.0
C1096 C 0.47702 0.4853 0.49065 0.0
H1097 H 0.57451 0.56971 0.57924 0.0
H1098 H 0.54757 0.5498 0.54928 0.0
C1099 C 0.4662 0.46589 0.47808 0.0
C1100 C 0.47605 0.52613 0.50724 0.0
H1101 H 0.52222 0.56752 0.51263 0.0
C1102 C 0.4685 0.52648 0.5312 0.0
C1103 C 0.49508 0.54151 0.50021 0.0
C1104 C 0.50354 0.54149 0.47453 0.0
C1105 C 0.48064 0.54085 0.54888 0.0
C1106 C 0.50046 0.55558 0.54211 0.0
C1107 C 0.50703 0.5562 0.51775 0.0
C1108 C 0.51636 0.56823 0.56026 0.0
C1109 C 0.47318 0.53887 0.57483 0.0
C1110 C 0.5077 0.58515 0.57644 0.0
C1111 C 0.52301 0.59621 0.59397 0.0
C1112 C 0.54725 0.59084 0.59516 0.0
C1113 C 0.55589 0.57416 0.57873 0.0
C1114 C 0.54056 0.56288 0.56154 0.0
H1115 H 0.46086 0.52318 0.57751 0.0
H1116 H 0.48904 0.53766 0.58697 0.0
H1117 H 0.46371 0.55486 0.58031 0.0
H1118 H 0.4892 0.58989 0.57542 0.0
H1119 H 0.51602 0.60932 0.60619 0.0
H1120 H 0.12299 0.06395 0.14776 0.0
H1121 H 0.12395 0.03075 0.17482 0.0
H1122 H 0.14783 0.07815 0.23351 0.0
H1123 H 0.14686 0.11168 0.20661 0.0
H1124 H 0.16178 0.01416 0.20729 0.0
H1125 H 0.08148 0.04665 0.25346 0.0
H1126 H 0.09064 0.0569 0.22431 0.0
H1127 H 0.10672 0.06739 0.2511 0.0
C1128 C 0.1288 0.06734 0.16633 0.0
C1129 C 0.13451 0.09051 0.17515 0.0
C1130 C 0.12939 0.04833 0.18171 0.0
C1131 C 0.13561 0.05219 0.20611 0.0
C1132 C 0.14272 0.07501 0.21471 0.0
H1133 H 0.12016 0.95799 0.32604 0.0
H1134 H 0.12714 0.99223 0.30063 0.0
C1135 C 0.14221 0.09409 0.19931 0.0
C1136 C 0.13272 0.03255 0.2228 0.0
H1137 H 0.09681 0.01143 0.26723 0.0
C1138 C 0.1477 0.01354 0.22052 0.0
C1139 C 0.11422 0.03194 0.23984 0.0
C1140 C 0.09718 0.05169 0.24234 0.0
C1141 C 0.14469 0.99378 0.23506 0.0
C1142 C 0.1259 0.99299 0.25182 0.0
C1143 C 0.11115 0.01217 0.25429 0.0
C1144 C 0.12113 0.97237 0.26698 0.0
C1145 C 0.16177 0.97409 0.23254 0.0
C1146 C 0.11487 0.95008 0.25639 0.0
C1147 C 0.11074 0.93058 0.27087 0.0
C1148 C 0.11252 0.93325 0.29606 0.0
C1149 C 0.1182 0.95565 0.30665 0.0
C1150 C 0.12241 0.97511 0.29218 0.0
H1151 H 0.17867 0.98016 0.22386 0.0
H1152 H 0.16619 0.96683 0.25039 0.0
H1153 H 0.15323 0.95956 0.22105 0.0
H1154 H 0.11328 0.94777 0.23695 0.0
H1155 H 0.10637 0.91338 0.26243 0.0
H1156 H 0.20197 0.86491 0.3815 0.0
H1157 H 0.2346 0.87464 0.41068 0.0
H1158 H 0.18481 0.90624 0.45894 0.0
H1159 H 0.15228 0.89707 0.42995 0.0
H1160 H 0.22747 0.93349 0.45405 0.0
H1161 H 0.24344 0.83964 0.47388 0.0
H1162 H 0.24527 0.84733 0.44269 0.0
H1163 H 0.2171 0.84817 0.45771 0.0
C1164 C 0.19797 0.87393 0.39832 0.0
C1165 C 0.17449 0.88006 0.40347 0.0
C1166 C 0.21661 0.87942 0.41495 0.0
C1167 C 0.21198 0.89093 0.43699 0.0
C1168 C 0.18869 0.89736 0.44199 0.0
H1169 H 0.28582 0.89372 0.57252 0.0
H1170 H 0.25743 0.89072 0.53857 0.0
C1171 C 0.17011 0.89199 0.42542 0.0
C1172 C 0.23111 0.89585 0.45533 0.0
H1173 H 0.26775 0.86889 0.49461 0.0
C1174 C 0.23645 0.91943 0.46285 0.0
C1175 C 0.24251 0.87737 0.46682 0.0
C1176 C 0.23673 0.85168 0.46007 0.0
C1177 C 0.25265 0.92501 0.48198 0.0
C1178 C 0.26394 0.90651 0.49352 0.0
C1179 C 0.25899 0.88299 0.48564 0.0
C1180 C 0.28018 0.91086 0.51458 0.0
C1181 C 0.2569 0.95051 0.49024 0.0
C1182 C 0.30212 0.92365 0.51239 0.0
C1183 C 0.31837 0.92556 0.53185 0.0
C1184 C 0.31297 0.91444 0.55364 0.0
C1185 C 0.29057 0.9024 0.55597 0.0
C1186 C 0.27434 0.90062 0.53659 0.0
H1187 H 0.24303 0.96191 0.48297 0.0
H1188 H 0.25709 0.95215 0.51026 0.0
H1189 H 0.27459 0.95725 0.48386 0.0
H1190 H 0.30705 0.93137 0.4954 0.0
H1191 H 0.33553 0.93485 0.52944 0.0
H1192 H 0.39495 0.96959 0.65585 0.0
H1193 H 0.39631 0.9921 0.69417 0.0
H1194 H 0.3331 0.95257 0.71707 0.0
H1195 H 0.33209 0.92947 0.67926 0.0
H1196 H 0.36488 0.02045 0.71264 0.0
H1197 H 0.37653 0.94678 0.77477 0.0
H1198 H 0.37979 0.94339 0.74255 0.0
H1199 H 0.3505 0.94187 0.7556 0.0
C1200 C 0.38137 0.96568 0.66908 0.0
C1201 C 0.36348 0.94771 0.66462 0.0
C1202 C 0.38222 0.97847 0.69097 0.0
C1203 C 0.36512 0.97361 0.70866 0.0
C1204 C 0.34692 0.95608 0.704 0.0
H1205 H 0.33048 0.07377 0.82077 0.0
H1206 H 0.32935 0.04527 0.78688 0.0
C1207 C 0.34624 0.94306 0.68228 0.0
C1208 C 0.36563 0.98771 0.73149 0.0
H1209 H 0.36538 0.98347 0.7928 0.0
C1210 C 0.36517 0.01237 0.73016 0.0
C1211 C 0.36637 0.97713 0.75433 0.0
C1212 C 0.36859 0.95086 0.75694 0.0
C1213 C 0.36495 0.02677 0.75105 0.0
C1214 C 0.36433 0.01611 0.77385 0.0
C1215 C 0.36538 0.99149 0.77525 0.0
C1216 C 0.36306 0.03044 0.79638 0.0
C1217 C 0.36578 0.05328 0.74845 0.0
C1218 C 0.38153 0.03027 0.81382 0.0
C1219 C 0.38197 0.04621 0.83351 0.0
C1220 C 0.36405 0.06261 0.8358 0.0
C1221 C 0.34473 0.06157 0.81921 0.0
C1222 C 0.34412 0.04542 0.79979 0.0
H1223 H 0.37315 0.05855 0.73078 0.0
H1224 H 0.34735 0.05959 0.74949 0.0
H1225 H 0.37688 0.06238 0.76304 0.0
H1226 H 0.39618 0.01863 0.81158 0.0
H1227 H 0.39704 0.04661 0.84608 0.0
H1228 H 0.31292 0.1021 0.9641 0.0
H1229 H 0.28235 0.11105 0.99353 0.0
H1230 H 0.28719 0.1844 0.97388 0.0
H1231 H 0.31934 0.17582 0.94606 0.0
H1232 H 0.27948 0.18206 0.01957 0.0
H1233 H 0.21532 0.11903 0.97182 0.0
H1234 H 0.24073 0.1041 0.98256 0.0
H1235 H 0.24455 0.12649 0.96021 0.0
C1236 C 0.308 0.12024 0.96671 0.0
C1237 C 0.31832 0.1383 0.95291 0.0
C1238 C 0.29022 0.12526 0.98312 0.0
C1239 C 0.28191 0.14822 0.98521 0.0
C1240 C 0.29313 0.16651 0.97233 0.0
H1241 H 0.14241 0.15766 0.0511 0.0
H1242 H 0.17459 0.16232 0.02193 0.0
C1243 C 0.31137 0.1616 0.95642 0.0
C1244 C 0.26095 0.15295 1.00012 0.0
H1245 H 0.20413 0.13226 0.01124 0.0
C1246 C 0.26287 0.17137 0.0176 0.0
C1247 C 0.23899 0.13961 0.99689 0.0
C1248 C 0.23468 0.12142 0.97665 0.0
C1249 C 0.24377 0.17607 0.03274 0.0
C1250 C 0.22264 0.16122 0.03103 0.0
C1251 C 0.2204 0.1435 0.01282 0.0
C1252 C 0.20326 0.16246 0.04878 0.0
C1253 C 0.24646 0.19702 0.05017 0.0
C1254 C 0.20864 0.16149 0.07355 0.0
C1255 C 0.19032 0.15957 0.09018 0.0
C1256 C 0.16633 0.15768 0.08224 0.0
C1257 C 0.16084 0.15899 0.05755 0.0
C1258 C 0.17918 0.16166 0.04096 0.0
H1259 H 0.25821 0.21134 0.0427 0.0
H1260 H 0.22891 0.2043 0.05444 0.0
H1261 H 0.25507 0.19149 0.06715 0.0
H1262 H 0.22699 0.16115 0.08002 0.0
H1263 H 0.19496 0.15829 0.10915 0.0
H1264 H 0.03166 0.18921 0.17555 0.0
H1265 H 0.00436 0.22188 0.17481 0.0
H1266 H 0.02192 0.23393 0.10048 0.0
H1267 H 0.04926 0.20146 0.10128 0.0
H1268 H 0.02191 0.26928 0.16362 0.0
H1269 H 0.94769 0.23512 0.10214 0.0
H1270 H 0.96745 0.21586 0.11742 0.0
H1271 H 0.97743 0.23139 0.09131 0.0
C1272 C 0.02922 0.19861 0.15899 0.0
C1273 C 0.04233 0.19305 0.13847 0.0
C1274 C 0.01375 0.21716 0.15858 0.0
C1275 C 0.01115 0.2301 0.13755 0.0
C1276 C 0.02348 0.22385 0.11672 0.0
H1277 H 0.93314 0.35268 0.10166 0.0
H1278 H 0.96212 0.3216 0.10164 0.0
C1279 C 0.03899 0.20537 0.11717 0.0
C1280 C 0.9973 0.25148 0.138 0.0
H1281 H 0.9485 0.27583 0.11323 0.0
C1282 C 0.00577 0.27075 0.15272 0.0
C1283 C 0.97653 0.25324 0.12351 0.0
C1284 C 0.96655 0.23277 0.10781 0.0
C1285 C 0.994 0.292 0.15318 0.0
C1286 C 0.97307 0.2937 0.13887 0.0
C1287 C 0.96468 0.27443 0.12406 0.0
C1288 C 0.95881 0.31485 0.13972 0.0
C1289 C 0.00427 0.31251 0.16865 0.0
C1290 C 0.94793 0.32161 0.16128 0.0
C1291 C 0.93166 0.33945 0.16135 0.0
C1292 C 0.9259 0.35048 0.13982 0.0
C1293 C 0.93759 0.3445 0.1185 0.0
C1294 C 0.95395 0.32673 0.11845 0.0
H1295 H 0.02362 0.31077 0.17272 0.0
H1296 H 0.00197 0.3296 0.15973 0.0
H1297 H 0.99475 0.31297 0.18605 0.0
H1298 H 0.95113 0.31232 0.17777 0.0
H1299 H 0.92271 0.34387 0.17794 0.0
H1300 H 0.59895 0.28341 0.84783 0.0
H1301 H 0.56989 0.24969 0.84632 0.0
H1302 H 0.52128 0.28954 0.88894 0.0
H1303 H 0.55029 0.32321 0.89096 0.0
H1304 H 0.52539 0.24339 0.90364 0.0
H1305 H 0.50831 0.24725 0.80472 0.0
H1306 H 0.53914 0.24486 0.81355 0.0
H1307 H 0.52392 0.27099 0.82187 0.0
C1308 C 0.58213 0.28497 0.857 0.0
C1309 C 0.57683 0.30605 0.86936 0.0
C1310 C 0.56553 0.26575 0.85598 0.0
C1311 C 0.54335 0.2674 0.86711 0.0
C1312 C 0.5383 0.28808 0.88011 0.0
H1313 H 0.40939 0.18865 0.84938 0.0
H1314 H 0.4437 0.21697 0.84714 0.0
C1315 C 0.5549 0.30727 0.88124 0.0
C1316 C 0.5252 0.24767 0.86517 0.0
H1317 H 0.48863 0.21585 0.82505 0.0
C1318 C 0.5174 0.23726 0.88648 0.0
C1319 C 0.51472 0.24005 0.84272 0.0
C1320 C 0.52175 0.25146 0.8194 0.0
C1321 C 0.49915 0.21942 0.88599 0.0
C1322 C 0.48892 0.21153 0.86351 0.0
C1323 C 0.4968 0.22185 0.84217 0.0
C1324 C 0.46909 0.19344 0.86205 0.0
C1325 C 0.49046 0.20974 0.90959 0.0
C1326 C 0.47235 0.17065 0.87031 0.0
C1327 C 0.45283 0.15453 0.87181 0.0
C1328 C 0.42979 0.16092 0.86479 0.0
C1329 C 0.42689 0.18326 0.85502 0.0
C1330 C 0.44644 0.19944 0.85371 0.0
H1331 H 0.49629 0.22145 0.92523 0.0
H1332 H 0.47062 0.20745 0.9095 0.0
H1333 H 0.4979 0.19218 0.91226 0.0
H1334 H 0.48987 0.1656 0.87632 0.0
H1335 H 0.4557 0.13731 0.87909 0.0
H1336 H 0.95819 0.6375 0.38636 0.0
H1337 H 0.99417 0.66348 0.38324 0.0
H1338 H 0.95228 0.71643 0.35059 0.0
H1339 H 0.91628 0.69053 0.35319 0.0
H1340 H 0.99715 0.71109 0.32943 0.0
H1341 H 0.00342 0.72138 0.42958 0.0
H1342 H 0.00351 0.69159 0.41754 0.0
H1343 H 0.9772 0.70822 0.4141 0.0
C1344 C 0.95666 0.65455 0.37823 0.0
C1345 C 0.93432 0.66212 0.37033 0.0
C1346 C 0.97722 0.66936 0.37655 0.0
C1347 C 0.97567 0.69195 0.36714 0.0
C1348 C 0.95371 0.69904 0.35802 0.0
H1349 H 0.05052 0.82409 0.38819 0.0
H1350 H 0.02459 0.78815 0.389 0.0
C1351 C 0.93317 0.68423 0.35956 0.0
C1352 C 0.99647 0.70895 0.36811 0.0
H1353 H 0.03176 0.74323 0.4073 0.0
C1354 C 0.00498 0.71796 0.3464 0.0
C1355 C 0.0063 0.71793 0.39038 0.0
C1356 C 0.99709 0.70948 0.41427 0.0
C1357 C 0.0227 0.73632 0.34635 0.0
C1358 C 0.03236 0.74546 0.36863 0.0
C1359 C 0.02435 0.73596 0.39031 0.0
C1360 C 0.04914 0.76633 0.36986 0.0
C1361 C 0.03008 0.74655 0.32256 0.0
C1362 C 0.07173 0.76564 0.35941 0.0
C1363 C 0.08653 0.78616 0.35877 0.0
C1364 C 0.07899 0.8076 0.36876 0.0
C1365 C 0.0568 0.8079 0.38025 0.0
C1366 C 0.04199 0.7874 0.38076 0.0
H1367 H 0.01758 0.7406 0.30757 0.0
H1368 H 0.03092 0.76618 0.32372 0.0
H1369 H 0.04818 0.74077 0.31804 0.0
H1370 H 0.07767 0.74937 0.35134 0.0
H1371 H 0.10365 0.7853 0.35002 0.0
H1372 H 0.59215 0.73701 0.6229 0.0
H1373 H 0.56344 0.76719 0.61441 0.0
H1374 H 0.50607 0.71325 0.61074 0.0
H1375 H 0.53444 0.6833 0.62043 0.0
H1376 H 0.53234 0.77103 0.57487 0.0
H1377 H 0.48298 0.761 0.66038 0.0
H1378 H 0.51174 0.7487 0.65566 0.0
H1379 H 0.48493 0.73379 0.64332 0.0
C1380 C 0.57335 0.73172 0.62059 0.0
C1381 C 0.56538 0.70796 0.62242 0.0
C1382 C 0.55708 0.74886 0.61552 0.0
C1383 C 0.53269 0.74238 0.61227 0.0
C1384 C 0.5248 0.71857 0.61357 0.0
H1385 H 0.40628 0.81699 0.57867 0.0
H1386 H 0.43724 0.78775 0.58006 0.0
C1387 C 0.54103 0.70148 0.61881 0.0
C1388 C 0.51538 0.76056 0.60782 0.0
H1389 H 0.46555 0.78456 0.63062 0.0
C1390 C 0.51778 0.7741 0.58707 0.0
C1391 C 0.49658 0.76451 0.62394 0.0
C1392 C 0.49398 0.75141 0.64719 0.0
C1393 C 0.50147 0.79131 0.5818 0.0
C1394 C 0.48247 0.79482 0.59766 0.0
C1395 C 0.48013 0.78145 0.61844 0.0
C1396 C 0.46505 0.81283 0.59356 0.0
C1397 C 0.50436 0.80555 0.55935 0.0
C1398 C 0.47078 0.83641 0.60053 0.0
C1399 C 0.45316 0.85294 0.60007 0.0
C1400 C 0.4297 0.84599 0.5926 0.0
C1401 C 0.42427 0.82258 0.58467 0.0
C1402 C 0.44185 0.806 0.58531 0.0
H1403 H 0.51898 0.79934 0.54784 0.0
H1404 H 0.48736 0.80453 0.54863 0.0
H1405 H 0.50839 0.82442 0.56453 0.0
H1406 H 0.4886 0.84176 0.60724 0.0
H1407 H 0.45762 0.87089 0.6065 0.0
H1408 H 0.90104 0.10077 0.71025 0.0
H1409 H 0.91058 0.0835 0.74919 0.0
H1410 H 0.89754 0.01354 0.71734 0.0
H1411 H 0.88787 0.0308 0.67854 0.0
H1412 H 0.87742 0.05579 0.77333 0.0
H1413 H 0.95883 0.0066 0.75753 0.0
H1414 H 0.95 0.03014 0.73839 0.0
H1415 H 0.93682 0.00063 0.73394 0.0
C1416 C 0.90058 0.0817 0.71162 0.0
C1417 C 0.89375 0.06698 0.69165 0.0
C1418 C 0.90617 0.07191 0.73371 0.0
C1419 C 0.9052 0.04729 0.73596 0.0
C1420 C 0.89906 0.03258 0.71576 0.0
H1421 H 0.85325 0.94437 0.81899 0.0
H1422 H 0.86403 0.97837 0.79466 0.0
C1423 C 0.89339 0.04238 0.69371 0.0
C1424 C 0.90718 0.03682 0.75992 0.0
H1425 H 0.93179 0.99087 0.78808 0.0
C1426 C 0.88983 0.04213 0.77696 0.0
C1427 C 0.92358 0.01928 0.76474 0.0
C1428 C 0.94352 0.01401 0.74775 0.0
C1429 C 0.88683 0.02855 0.79751 0.0
C1430 C 0.9015 0.00932 0.80088 0.0
C1431 C 0.92046 0.00559 0.78524 0.0
C1432 C 0.89442 0.99034 0.81724 0.0
C1433 C 0.86687 0.03367 0.81452 0.0
C1434 C 0.90804 0.986 0.83795 0.0
C1435 C 0.90178 0.96663 0.85208 0.0
C1436 C 0.88217 0.95121 0.84525 0.0
C1437 C 0.86851 0.95587 0.82461 0.0
C1438 C 0.87454 0.97533 0.81079 0.0
H1439 H 0.8616 0.05228 0.81336 0.0
H1440 H 0.85097 0.02187 0.80967 0.0
H1441 H 0.87221 0.03024 0.83345 0.0
H1442 H 0.92358 0.99738 0.84295 0.0
H1443 H 0.91268 0.96332 0.86785 0.0
H1444 H 0.85576 0.0929 0.53491 0.0
H1445 H 0.83005 0.09463 0.49884 0.0
H1446 H 0.77416 0.1227 0.54212 0.0
H1447 H 0.79954 0.12124 0.57812 0.0
H1448 H 0.78312 0.07383 0.48915 0.0
H1449 H 0.78522 0.17173 0.4888 0.0
H1450 H 0.80663 0.15559 0.50572 0.0
H1451 H 0.7774 0.16007 0.51758 0.0
C1452 C 0.83793 0.09927 0.53678 0.0
C1453 C 0.82978 0.10716 0.55935 0.0
C1454 C 0.82335 0.10031 0.51616 0.0
C1455 C 0.80055 0.10934 0.51787 0.0
C1456 C 0.79199 0.11624 0.54046 0.0
H1457 H 0.67007 0.09677 0.442 0.0
H1458 H 0.70578 0.09433 0.46734 0.0
C1459 C 0.80648 0.11522 0.56102 0.0
C1460 C 0.7853 0.11147 0.49622 0.0
H1461 H 0.7529 0.15128 0.46633 0.0
C1462 C 0.77681 0.09076 0.48382 0.0
C1463 C 0.77757 0.13366 0.48906 0.0
C1464 C 0.78737 0.15656 0.50082 0.0
C1465 C 0.75936 0.09155 0.46547 0.0
C1466 C 0.75008 0.11355 0.45982 0.0
C1467 C 0.75986 0.13441 0.471 0.0
C1468 C 0.72878 0.11505 0.44406 0.0
C1469 C 0.75055 0.06879 0.45276 0.0
C1470 C 0.72978 0.12829 0.42307 0.0
C1471 C 0.7093 0.12992 0.40856 0.0
C1472 C 0.68751 0.11845 0.415 0.0
C1473 C 0.68656 0.10569 0.4364 0.0
C1474 C 0.707 0.10408 0.45082 0.0
H1475 H 0.76423 0.05524 0.45349 0.0
H1476 H 0.73431 0.06164 0.46183 0.0
H1477 H 0.74581 0.07174 0.43357 0.0
H1478 H 0.74644 0.13715 0.41782 0.0
H1479 H 0.71062 0.13996 0.39224 0.0
H1480 H 0.61116 0.03469 0.35013 0.0
H1481 H 0.61387 0.00068 0.32233 0.0
H1482 H 0.6508 0.04505 0.2714 0.0
H1483 H 0.64849 0.07904 0.29901 0.0
H1484 H 0.59515 0.99646 0.27557 0.0
H1485 H 0.69359 0.98857 0.27667 0.0
H1486 H 0.67839 0.00538 0.29937 0.0
H1487 H 0.68473 0.01789 0.27054 0.0
C1488 C 0.61994 0.0372 0.33305 0.0
C1489 C 0.62966 0.05954 0.32678 0.0
C1490 C 0.62153 0.01776 0.31728 0.0
C1491 C 0.63295 0.02038 0.29513 0.0
C1492 C 0.64246 0.04264 0.28872 0.0
H1493 H 0.61477 0.9415 0.16273 0.0
H1494 H 0.61746 0.97091 0.19576 0.0
C1495 C 0.64092 0.06205 0.30444 0.0
C1496 C 0.63365 0.00021 0.27794 0.0
H1497 H 0.67159 0.96819 0.24419 0.0
C1498 C 0.61184 0.99005 0.2689 0.0
C1499 C 0.65549 0.99181 0.26958 0.0
C1500 C 0.67939 0.00131 0.27971 0.0
C1501 C 0.61128 0.97228 0.25087 0.0
C1502 C 0.6331 0.96487 0.24151 0.0
C1503 C 0.65493 0.97427 0.25126 0.0
C1504 C 0.63346 0.94773 0.22117 0.0
C1505 C 0.58736 0.96171 0.24184 0.0
C1506 C 0.6425 0.92541 0.22444 0.0
C1507 C 0.64109 0.90856 0.20559 0.0
C1508 C 0.63069 0.9139 0.18323 0.0
C1509 C 0.62265 0.93673 0.17979 0.0
C1510 C 0.62409 0.95352 0.19862 0.0
H1511 H 0.57293 0.96486 0.25492 0.0
H1512 H 0.58249 0.97 0.22464 0.0
H1513 H 0.58814 0.94236 0.23834 0.0
H1514 H 0.64993 0.9208 0.24176 0.0
H1515 H 0.64746 0.89117 0.20884 0.0
H1516 H 0.64057 0.83864 0.03293 0.0
H1517 H 0.66504 0.83845 0.99648 0.0
H1518 H 0.72717 0.86208 0.0395 0.0
H1519 H 0.70276 0.86254 0.0757 0.0
H1520 H 0.69019 0.87946 0.98 0.0
H1521 H 0.75135 0.80762 0.9972 0.0
H1522 H 0.72319 0.80995 0.01242 0.0
H1523 H 0.74927 0.82751 0.02276 0.0
C1524 C 0.65956 0.84338 0.03449 0.0
C1525 C 0.67001 0.85037 0.05692 0.0
C1526 C 0.67343 0.84324 0.01381 0.0
C1527 C 0.6979 0.84986 0.01548 0.0
C1528 C 0.70841 0.85634 0.03801 0.0
H1529 H 0.81674 0.90443 0.94655 0.0
H1530 H 0.78197 0.89349 0.97058 0.0
C1531 C 0.69454 0.8566 0.05862 0.0
C1532 C 0.71221 0.85242 0.99361 0.0
H1533 H 0.76564 0.83795 0.97027 0.0
C1534 C 0.70636 0.86997 0.9774 0.0
C1535 C 0.73316 0.83989 0.99034 0.0
C1536 C 0.73951 0.82001 0.00648 0.0
C1537 C 0.72205 0.87659 0.95905 0.0
C1538 C 0.74384 0.86529 0.95705 0.0
C1539 C 0.74888 0.84665 0.97214 0.0
C1540 C 0.7629 0.87425 0.94138 0.0
C1541 C 0.71612 0.89655 0.94288 0.0
C1542 C 0.76314 0.86745 0.91694 0.0
C1543 C 0.78298 0.87368 0.90309 0.0
C1544 C 0.80281 0.88663 0.91365 0.0
C1545 C 0.80183 0.89436 0.9379 0.0
C1546 C 0.78203 0.88815 0.95166 0.0
H1547 H 0.69805 0.90308 0.94631 0.0
H1548 H 0.72963 0.91146 0.94576 0.0
H1549 H 0.71696 0.89057 0.92368 0.0
H1550 H 0.74843 0.85664 0.90887 0.0
H1551 H 0.78318 0.86747 0.88444 0.0
H1552 H 0.05756 0.67849 0.91566 0.0
H1553 H 0.02563 0.70637 0.91995 0.0
H1554 H 0.02297 0.71361 0.84265 0.0
H1555 H 0.05438 0.6852 0.83828 0.0
H1556 H 0.0264 0.75301 0.90533 0.0
H1557 H 0.95278 0.6989 0.85941 0.0
H1558 H 0.98019 0.6865 0.86962 0.0
H1559 H 0.97934 0.70207 0.84178 0.0
C1560 C 0.0499 0.68588 0.89963 0.0
C1561 C 0.05812 0.6797 0.87664 0.0
C1562 C 0.03181 0.70178 0.90208 0.0
C1563 C 0.02172 0.71162 0.88158 0.0
C1564 C 0.03021 0.70575 0.85862 0.0
H1565 H 0.92861 0.82024 0.84691 0.0
H1566 H 0.95566 0.78759 0.8482 0.0
C1567 C 0.04826 0.6898 0.85616 0.0
C1568 C 0.003 0.72883 0.88421 0.0
H1569 H 0.94613 0.73991 0.86628 0.0
C1570 C 0.00873 0.75008 0.89708 0.0
C1571 C 0.98002 0.72477 0.87347 0.0
C1572 C 0.97259 0.70173 0.86049 0.0
C1573 C 0.99231 0.7679 0.89864 0.0
C1574 C 0.96961 0.76411 0.88725 0.0
C1575 C 0.96364 0.74264 0.87493 0.0
C1576 C 0.95239 0.78287 0.88664 0.0
C1577 C 0.99963 0.79098 0.91161 0.0
C1578 C 0.94144 0.79059 0.9078 0.0
C1579 C 0.92592 0.80912 0.90706 0.0
C1580 C 0.92127 0.82004 0.88517 0.0
C1581 C 0.93187 0.81193 0.86396 0.0
C1582 C 0.9473 0.7934 0.86468 0.0
H1583 H 0.01912 0.79246 0.91598 0.0
H1584 H 0.99502 0.80618 0.90047 0.0
H1585 H 0.98974 0.7923 0.92874 0.0
H1586 H 0.94499 0.78236 0.92483 0.0
H1587 H 0.91758 0.81492 0.92354 0.0
H1588 H 0.39193 0.69858 0.1229 0.0
H1589 H 0.42022 0.73256 0.12752 0.0
H1590 H 0.47747 0.68961 0.10408 0.0
H1591 H 0.44921 0.65527 0.09924 0.0
H1592 H 0.4609 0.73275 0.15942 0.0
H1593 H 0.48471 0.75095 0.06442 0.0
H1594 H 0.458 0.73376 0.07223 0.0
H1595 H 0.4866 0.72073 0.07315 0.0
C1596 C 0.41048 0.69634 0.11844 0.0
C1597 C 0.41841 0.67419 0.11087 0.0
C1598 C 0.42656 0.71579 0.12108 0.0
C1599 C 0.45076 0.71347 0.11608 0.0
C1600 C 0.45871 0.69167 0.10773 0.0
H1601 H 0.57622 0.79579 0.16153 0.0
H1602 H 0.54242 0.76682 0.15831 0.0
C1603 C 0.44259 0.67211 0.10504 0.0
C1604 C 0.46791 0.73349 0.12131 0.0
H1605 H 0.50781 0.77181 0.09518 0.0
C1606 C 0.4711 0.74143 0.14541 0.0
C1607 C 0.48085 0.74474 0.10288 0.0
C1608 C 0.47731 0.7373 0.07667 0.0
C1609 C 0.48744 0.7602 0.15165 0.0
C1610 C 0.50091 0.77097 0.13329 0.0
C1611 C 0.49736 0.76336 0.10915 0.0
C1612 C 0.51953 0.78962 0.13869 0.0
C1613 C 0.4902 0.76839 0.17771 0.0
C1614 C 0.51748 0.81206 0.1291 0.0
C1615 C 0.53671 0.82862 0.13083 0.0
C1616 C 0.55836 0.82283 0.14196 0.0
C1617 C 0.55982 0.80076 0.15279 0.0
C1618 C 0.54052 0.78422 0.15107 0.0
H1619 H 0.47478 0.76208 0.18861 0.0
H1620 H 0.50669 0.7613 0.18553 0.0
H1621 H 0.492 0.788 0.17923 0.0
H1622 H 0.50132 0.8164 0.11946 0.0
H1623 H 0.53495 0.84552 0.12244 0.0
H1624 H 0.88395 0.19667 0.63319 0.0
H1625 H 0.90803 0.23359 0.63856 0.0
H1626 H 0.96799 0.20098 0.60576 0.0
H1627 H 0.94405 0.16387 0.60011 0.0
H1628 H 0.95068 0.23791 0.66618 0.0
H1629 H 0.96441 0.26457 0.57166 0.0
H1630 H 0.94101 0.24334 0.58001 0.0
H1631 H 0.97124 0.23444 0.57685 0.0
C1632 C 0.90218 0.19737 0.62681 0.0
C1633 C 0.91217 0.1773 0.6163 0.0
C1634 C 0.91584 0.21849 0.6299 0.0
C1635 C 0.9396 0.21994 0.62238 0.0
C1636 C 0.94948 0.20021 0.61129 0.0
H1637 H 0.06559 0.29713 0.66481 0.0
H1638 H 0.02947 0.27113 0.66304 0.0
C1639 C 0.93583 0.17903 0.60818 0.0
C1640 C 0.9547 0.24146 0.62781 0.0
H1641 H 0.99127 0.28278 0.6016 0.0
C1642 C 0.9593 0.24801 0.6521 0.0
C1643 C 0.96552 0.25469 0.60935 0.0
C1644 C 0.96014 0.24907 0.58299 0.0
C1645 C 0.97559 0.2668 0.65846 0.0
C1646 C 0.98764 0.27899 0.64001 0.0
C1647 C 0.98203 0.27325 0.61571 0.0
C1648 C 0.0077 0.29626 0.64523 0.0
C1649 C 0.98012 0.27314 0.68481 0.0
C1650 C 0.0072 0.31905 0.63611 0.0
C1651 C 0.02785 0.33387 0.63688 0.0
C1652 C 0.04934 0.326 0.64665 0.0
C1653 C 0.04934 0.30369 0.65715 0.0
C1654 C 0.02867 0.28887 0.65631 0.0
H1655 H 0.96457 0.26759 0.69591 0.0
H1656 H 0.99587 0.26383 0.69136 0.0
H1657 H 0.98394 0.29247 0.68762 0.0
H1658 H 0.99114 0.32495 0.62742 0.0
H1659 H 0.02721 0.35106 0.62884 0.0
H1660 H 0.45002 0.33471 0.42188 0.0
H1661 H 0.47827 0.30303 0.42212 0.0
H1662 H 0.47776 0.30113 0.34423 0.0
H1663 H 0.44953 0.33295 0.34396 0.0
H1664 H 0.46546 0.25728 0.36674 0.0
H1665 H 0.54993 0.30077 0.40445 0.0
H1666 H 0.52324 0.30616 0.42095 0.0
H1667 H 0.52647 0.31721 0.39106 0.0
C1668 C 0.45651 0.32795 0.40487 0.0
C1669 C 0.44778 0.33606 0.38288 0.0
C1670 C 0.47257 0.30992 0.40503 0.0
C1671 C 0.48011 0.29998 0.3832 0.0
C1672 C 0.47212 0.30874 0.36122 0.0
H1673 H 0.56043 0.18244 0.33845 0.0
H1674 H 0.53407 0.21558 0.34173 0.0
C1675 C 0.45608 0.32679 0.36107 0.0
C1676 C 0.49438 0.27889 0.38325 0.0
H1677 H 0.54874 0.25905 0.39934 0.0
C1678 C 0.4837 0.25762 0.37378 0.0
C1679 C 0.51797 0.27953 0.39279 0.0
C1680 C 0.53023 0.30215 0.40275 0.0
C1681 C 0.49613 0.2368 0.37351 0.0
C1682 C 0.51989 0.23752 0.38259 0.0
C1683 C 0.53045 0.2587 0.39245 0.0
C1684 C 0.53458 0.21677 0.38081 0.0
C1685 C 0.4837 0.21419 0.36369 0.0
C1686 C 0.54363 0.20677 0.40173 0.0
C1687 C 0.55874 0.18797 0.39987 0.0
C1688 C 0.56502 0.17919 0.37707 0.0
C1689 C 0.55571 0.18903 0.35618 0.0
C1690 C 0.54061 0.20776 0.35804 0.0
H1691 H 0.46391 0.2152 0.36362 0.0
H1692 H 0.48927 0.21101 0.3448 0.0
H1693 H 0.48866 0.19884 0.37442 0.0
H1694 H 0.53923 0.21371 0.41943 0.0
H1695 H 0.56606 0.18076 0.41616 0.0
H1696 H 0.57844 0.42574 0.79315 0.0
H1697 H 0.57728 0.46289 0.77132 0.0
H1698 H 0.6504 0.48085 0.79356 0.0
H1699 H 0.65156 0.44365 0.81538 0.0
H1700 H 0.61273 0.51717 0.80185 0.0
H1701 H 0.61668 0.47927 0.7083 0.0
H1702 H 0.59592 0.46498 0.72838 0.0
H1703 H 0.6275 0.46408 0.73426 0.0
C1704 C 0.5943 0.43754 0.79298 0.0
C1705 C 0.61519 0.432 0.80545 0.0
C1706 C 0.59362 0.45864 0.78067 0.0
C1707 C 0.61379 0.47438 0.78087 0.0
C1708 C 0.63473 0.46877 0.79325 0.0
H1709 H 0.64527 0.61139 0.72111 0.0
H1710 H 0.64278 0.57807 0.74833 0.0
C1711 C 0.63545 0.44759 0.80545 0.0
C1712 C 0.61285 0.4969 0.76843 0.0
H1713 H 0.61063 0.52001 0.71248 0.0
C1714 C 0.6123 0.51793 0.78231 0.0
C1715 C 0.6122 0.49755 0.74303 0.0
C1716 C 0.61325 0.47533 0.7275 0.0
C1717 C 0.61074 0.53982 0.77129 0.0
C1718 C 0.61022 0.5405 0.74582 0.0
C1719 C 0.61086 0.51938 0.73203 0.0
C1720 C 0.60953 0.56282 0.73277 0.0
C1721 C 0.60919 0.56189 0.78694 0.0
C1722 C 0.59147 0.56543 0.71533 0.0
C1723 C 0.59308 0.58414 0.69957 0.0
C1724 C 0.61271 0.60061 0.70109 0.0
C1725 C 0.62989 0.59898 0.71967 0.0
C1726 C 0.62843 0.58003 0.73528 0.0
H1727 H 0.60286 0.5577 0.8053 0.0
H1728 H 0.62724 0.57086 0.78886 0.0
H1729 H 0.59694 0.5744 0.77873 0.0
H1730 H 0.57674 0.55233 0.71317 0.0
H1731 H 0.57947 0.58513 0.68553 0.0
H1732 H 0.66158 0.39918 0.93059 0.0
H1733 H 0.69346 0.4038 0.96108 0.0
H1734 H 0.72798 0.34424 0.92942 0.0
H1735 H 0.69643 0.34 0.89817 0.0
H1736 H 0.70387 0.37287 0.99403 0.0
H1737 H 0.78387 0.39171 0.93851 0.0
H1738 H 0.75373 0.39257 0.92653 0.0
H1739 H 0.76741 0.36472 0.92978 0.0
C1740 C 0.67604 0.38715 0.92997 0.0
C1741 C 0.67648 0.36916 0.91206 0.0
C1742 C 0.69428 0.38987 0.94737 0.0
C1743 C 0.7132 0.37453 0.94737 0.0
C1744 C 0.71383 0.35662 0.92941 0.0
H1745 H 0.79722 0.35552 0.07768 0.0
H1746 H 0.7713 0.34963 0.04195 0.0
C1747 C 0.69572 0.3541 0.9117 0.0
C1748 C 0.7312 0.37647 0.96725 0.0
H1749 H 0.79099 0.3846 0.9801 0.0
C1750 C 0.72292 0.3755 0.99097 0.0
C1751 C 0.75599 0.38013 0.96319 0.0
C1752 C 0.7658 0.38258 0.93814 0.0
C1753 C 0.73871 0.37819 0.0108 0.0
C1754 C 0.76357 0.38109 0.00677 0.0
C1755 C 0.77192 0.38211 0.98307 0.0
C1756 C 0.78104 0.38366 0.02706 0.0
C1757 C 0.72848 0.37856 0.03585 0.0
C1758 C 0.79595 0.40426 0.02987 0.0
C1759 C 0.81109 0.40753 0.0501 0.0
C1760 C 0.81137 0.3903 0.06788 0.0
C1761 C 0.79706 0.36931 0.06452 0.0
C1762 C 0.78221 0.36593 0.04415 0.0
H1763 H 0.70932 0.3829 0.03557 0.0
H1764 H 0.72968 0.36081 0.04366 0.0
H1765 H 0.73856 0.39166 0.04791 0.0
H1766 H 0.79538 0.41808 0.01675 0.0
H1767 H 0.82203 0.42383 0.05214 0.0
H1768 H 0.81319 0.42112 0.20031 0.0
H1769 H 0.81172 0.44687 0.23616 0.0
H1770 H 0.84578 0.50408 0.1975 0.0
H1771 H 0.84782 0.47836 0.16163 0.0
H1772 H 0.87025 0.49237 0.23893 0.0
H1773 H 0.7741 0.50378 0.25752 0.0
H1774 H 0.78209 0.4737 0.25269 0.0
H1775 H 0.78442 0.494 0.22839 0.0
C1776 C 0.81981 0.43936 0.19919 0.0
C1777 C 0.83093 0.44762 0.17822 0.0
C1778 C 0.81883 0.45407 0.2197 0.0
C1779 C 0.82862 0.47731 0.2194 0.0
C1780 C 0.83816 0.48612 0.198 0.0
H1781 H 0.83473 0.59305 0.31914 0.0
H1782 H 0.82498 0.56304 0.28792 0.0
C1783 C 0.8393 0.47141 0.17754 0.0
C1784 C 0.83187 0.49142 0.24205 0.0
H1785 H 0.80218 0.51784 0.28783 0.0
C1786 C 0.85538 0.49796 0.24965 0.0
C1787 C 0.8124 0.49844 0.25595 0.0
C1788 C 0.7868 0.49231 0.24819 0.0
C1789 C 0.86 0.51188 0.27058 0.0
C1790 C 0.84055 0.51895 0.28452 0.0
C1791 C 0.81702 0.51206 0.27718 0.0
C1792 C 0.84427 0.53574 0.30516 0.0
C1793 C 0.88559 0.51969 0.27702 0.0
C1794 C 0.85789 0.53006 0.32551 0.0
C1795 C 0.86377 0.54732 0.34342 0.0
C1796 C 0.85593 0.57039 0.34122 0.0
C1797 C 0.84128 0.57554 0.32135 0.0
C1798 C 0.83553 0.55837 0.30351 0.0
H1799 H 0.89791 0.51648 0.26189 0.0
H1800 H 0.88703 0.53882 0.28212 0.0
H1801 H 0.89171 0.50966 0.2927 0.0
H1802 H 0.86448 0.5125 0.32719 0.0
H1803 H 0.87485 0.54273 0.35864 0.0
H1804 H 0.66629 0.59777 0.58607 0.0
H1805 H 0.69917 0.59595 0.55778 0.0
H1806 H 0.73462 0.65706 0.59342 0.0
H1807 H 0.70215 0.65872 0.62214 0.0
H1808 H 0.70894 0.63217 0.52748 0.0
H1809 H 0.7899 0.61455 0.58205 0.0
H1810 H 0.75993 0.60938 0.59304 0.0
H1811 H 0.77367 0.63881 0.59366 0.0
C1812 C 0.68133 0.61051 0.58823 0.0
C1813 C 0.68154 0.62853 0.60617 0.0
C1814 C 0.70009 0.60941 0.57209 0.0
C1815 C 0.71931 0.62629 0.57364 0.0
C1816 C 0.72016 0.64359 0.59224 0.0
H1817 H 0.8304 0.66946 0.47429 0.0
H1818 H 0.80131 0.66784 0.50718 0.0
C1819 C 0.7015 0.64459 0.60853 0.0
C1820 C 0.73678 0.6276 0.55408 0.0
H1821 H 0.79638 0.62793 0.54204 0.0
C1822 C 0.72804 0.63103 0.53062 0.0
C1823 C 0.76165 0.62635 0.55838 0.0
C1824 C 0.77186 0.62185 0.58311 0.0
C1825 C 0.7436 0.63345 0.51127 0.0
C1826 C 0.76842 0.63226 0.51558 0.0
C1827 C 0.77725 0.62893 0.539 0.0
C1828 C 0.78543 0.63362 0.49574 0.0
C1829 C 0.73346 0.63754 0.4864 0.0
C1830 C 0.78584 0.61494 0.47868 0.0
C1831 C 0.80228 0.61588 0.46011 0.0
C1832 C 0.81842 0.63547 0.45852 0.0
C1833 C 0.81789 0.6543 0.47537 0.0
C1834 C 0.80149 0.65332 0.49405 0.0
H1835 H 0.71457 0.64273 0.48699 0.0
H1836 H 0.74432 0.65153 0.47732 0.0
H1837 H 0.73404 0.62099 0.47528 0.0
H1838 H 0.77365 0.59955 0.47993 0.0
H1839 H 0.80266 0.6012 0.44719 0.0
H1840 H 0.40928 0.55922 0.18927 0.0
H1841 H 0.40771 0.53489 0.22527 0.0
H1842 H 0.33055 0.53509 0.22344 0.0
H1843 H 0.33206 0.55923 0.18738 0.0
H1844 H 0.35356 0.5471 0.26988 0.0
H1845 H 0.38379 0.46405 0.22685 0.0
H1846 H 0.4024 0.4903 0.2222 0.0
H1847 H 0.37259 0.48784 0.20955 0.0
C1848 C 0.39204 0.55376 0.19644 0.0
C1849 C 0.37079 0.56098 0.18579 0.0
C1850 C 0.39116 0.54001 0.21695 0.0
C1851 C 0.36901 0.53328 0.22684 0.0
C1852 C 0.34777 0.54028 0.21603 0.0
H1853 H 0.33585 0.42411 0.32587 0.0
H1854 H 0.33511 0.45303 0.29415 0.0
C1855 C 0.34865 0.55397 0.19554 0.0
C1856 C 0.36789 0.51894 0.24855 0.0
H1857 H 0.37827 0.46415 0.26897 0.0
C1858 C 0.35897 0.52897 0.26979 0.0
C1859 C 0.37484 0.49532 0.2481 0.0
C1860 C 0.38378 0.48359 0.22544 0.0
C1861 C 0.35683 0.51583 0.29079 0.0
C1862 C 0.36393 0.49227 0.29035 0.0
C1863 C 0.3729 0.4823 0.26912 0.0
C1864 C 0.36171 0.47716 0.31146 0.0
C1865 C 0.34656 0.52697 0.3131 0.0
C1866 C 0.37644 0.48164 0.33195 0.0
C1867 C 0.37691 0.46512 0.35021 0.0
C1868 C 0.36283 0.44387 0.34797 0.0
C1869 C 0.3471 0.44019 0.32801 0.0
C1870 C 0.34661 0.45669 0.30989 0.0
H1871 H 0.3379 0.54371 0.30915 0.0
H1872 H 0.33321 0.51458 0.32131 0.0
H1873 H 0.36117 0.53098 0.32662 0.0
H1874 H 0.38842 0.49728 0.33326 0.0
H1875 H 0.38922 0.46843 0.36535 0.0
H1876 H 0.20709 0.63992 0.88981 0.0
H1877 H 0.24273 0.63647 0.91537 0.0
H1878 H 0.20025 0.59854 0.96734 0.0
H1879 H 0.16466 0.60151 0.94187 0.0
H1880 H 0.25113 0.6529 0.96168 0.0
H1881 H 0.2556 0.55551 0.95691 0.0
H1882 H 0.23745 0.57144 0.93624 0.0
H1883 H 0.22661 0.56443 0.96574 0.0
C1884 C 0.20531 0.63084 0.90667 0.0
C1885 C 0.18305 0.62086 0.91373 0.0
C1886 C 0.22571 0.62881 0.92117 0.0
C1887 C 0.22416 0.61673 0.94288 0.0
C1888 C 0.20191 0.6073 0.95027 0.0
H1889 H 0.29993 0.6294 0.07445 0.0
H1890 H 0.27358 0.62996 0.03913 0.0
C1891 C 0.18155 0.60923 0.93579 0.0
C1892 C 0.24548 0.61501 0.95861 0.0
H1893 H 0.27671 0.57567 0.9905 0.0
C1894 C 0.25702 0.63602 0.96766 0.0
C1895 C 0.25341 0.59294 0.96597 0.0
C1896 C 0.24278 0.5698 0.95549 0.0
C1897 C 0.27529 0.63557 0.98518 0.0
C1898 C 0.28175 0.61357 0.99407 0.0
C1899 C 0.27138 0.59251 0.98385 0.0
C1900 C 0.29767 0.61224 0.01536 0.0
C1901 C 0.28709 0.65867 0.99448 0.0
C1902 C 0.31948 0.60118 0.01381 0.0
C1903 C 0.33462 0.60066 0.03408 0.0
C1904 C 0.32803 0.61112 0.05615 0.0
C1905 C 0.30572 0.62141 0.0577 0.0
C1906 C 0.29067 0.62189 0.03751 0.0
H1907 H 0.2856 0.67281 0.98109 0.0
H1908 H 0.27804 0.66446 0.01114 0.0
H1909 H 0.30631 0.65672 0.99894 0.0
H1910 H 0.32496 0.59339 0.99684 0.0
H1911 H 0.35162 0.5925 0.03231 0.0
H1912 H 0.10967 0.53936 0.84507 0.0
H1913 H 0.11282 0.5061 0.81661 0.0
H1914 H 0.14846 0.55213 0.76629 0.0
H1915 H 0.14574 0.58556 0.79474 0.0
H1916 H 0.09353 0.50259 0.7702 0.0
H1917 H 0.19228 0.49605 0.77006 0.0
H1918 H 0.17709 0.51235 0.79315 0.0
H1919 H 0.18236 0.52508 0.76424 0.0
C1920 C 0.11826 0.54245 0.828 0.0
C1921 C 0.12748 0.56511 0.82217 0.0
C1922 C 0.12009 0.52341 0.81182 0.0
C1923 C 0.13122 0.52667 0.78962 0.0
C1924 C 0.14031 0.54923 0.78362 0.0
H1925 H 0.11209 0.4407 0.66082 0.0
H1926 H 0.1161 0.47256 0.69127 0.0
C1927 C 0.13854 0.56831 0.79981 0.0
C1928 C 0.13202 0.5067 0.77216 0.0
H1929 H 0.16992 0.47343 0.73965 0.0
C1930 C 0.11021 0.4961 0.76362 0.0
C1931 C 0.15386 0.49822 0.76391 0.0
C1932 C 0.17775 0.50834 0.77345 0.0
C1933 C 0.10963 0.47749 0.74651 0.0
C1934 C 0.13144 0.46965 0.73752 0.0
C1935 C 0.15329 0.47979 0.74649 0.0
C1936 C 0.13166 0.45108 0.71851 0.0
C1937 C 0.08571 0.46633 0.7382 0.0
C1938 C 0.14002 0.42881 0.72362 0.0
C1939 C 0.13784 0.41049 0.70624 0.0
C1940 C 0.12727 0.41432 0.68355 0.0
C1941 C 0.12005 0.43707 0.6782 0.0
C1942 C 0.12228 0.4553 0.69554 0.0
H1943 H 0.07124 0.47051 0.75088 0.0
H1944 H 0.08092 0.4732 0.72028 0.0
H1945 H 0.08649 0.44681 0.73631 0.0
H1946 H 0.14743 0.42539 0.74131 0.0
H1947 H 0.14371 0.39321 0.71086 0.0
H1948 H 0.35114 0.3742 0.46956 0.0
H1949 H 0.32133 0.36263 0.4995 0.0
H1950 H 0.26589 0.36104 0.44415 0.0
H1951 H 0.29579 0.37101 0.41408 0.0
H1952 H 0.28615 0.38398 0.51556 0.0
H1953 H 0.2486 0.30049 0.47421 0.0
H1954 H 0.27556 0.31509 0.46334 0.0
H1955 H 0.24652 0.32336 0.45272 0.0
C1956 C 0.33258 0.37115 0.46387 0.0
C1957 C 0.32564 0.3733 0.43963 0.0
C1958 C 0.31562 0.36448 0.48089 0.0
C1959 C 0.29147 0.36032 0.47393 0.0
C1960 C 0.28453 0.36313 0.44977 0.0
H1961 H 0.17194 0.38694 0.56038 0.0
H1962 H 0.20605 0.38698 0.53368 0.0
C1963 C 0.30155 0.36914 0.43267 0.0
C1964 C 0.27315 0.35493 0.49212 0.0
H1965 H 0.222 0.32125 0.501 0.0
C1966 C 0.27241 0.36994 0.51261 0.0
C1967 C 0.25557 0.33621 0.48871 0.0
C1968 C 0.25682 0.31774 0.46868 0.0
C1969 C 0.25374 0.36767 0.52897 0.0
C1970 C 0.23473 0.35071 0.52399 0.0
C1971 C 0.23625 0.3347 0.50441 0.0
C1972 C 0.21273 0.34998 0.53833 0.0
C1973 C 0.25467 0.38354 0.55134 0.0
C1974 C 0.20406 0.32876 0.54826 0.0
C1975 C 0.18378 0.32847 0.56257 0.0
C1976 C 0.17218 0.34945 0.5674 0.0
C1977 C 0.18034 0.37044 0.5567 0.0
C1978 C 0.20018 0.3706 0.54191 0.0
H1979 H 0.27348 0.38846 0.55694 0.0
H1980 H 0.24581 0.40015 0.54741 0.0
H1981 H 0.24553 0.37493 0.56667 0.0
H1982 H 0.21329 0.31257 0.54541 0.0
H1983 H 0.17757 0.31201 0.57045 0.0
loop_
_geom_bond_atom_site_label_1
_geom_bond_atom_site_label_2
_geom_bond_distance
_geom_bond_site_symmetry_2
_ccdc_geom_bond_type
Co0 O3 1.970 . S
Co0 N17 1.989 . S
Co0 O25 1.967 . S
Co0 O32 1.920 . S
Co1 O4 1.966 . S
Co1 N10 2.022 . S
Co1 N18 1.993 . S
Co1 O26 1.941 . S
C2 O3 1.258 . S
C2 O4 1.263 . S
O3 Co0 1.970 . S
O3 C2 1.258 . S
O4 Co1 1.966 . S
O4 C2 1.263 . S
C5 O6 1.235 . S
C5 O32 1.289 . S
O6 C5 1.235 . S
C7 C9 1.400 . S
C7 N10 1.351 . S
C7 C12 1.501 . S
C8 C9 1.387 . S
C8 N11 1.341 . S
C9 C7 1.400 . S
C9 C8 1.387 . S
N10 Co1 2.022 . S
N10 C7 1.351 . S
N10 N11 1.365 . S
N11 C8 1.341 . S
N11 N10 1.365 . S
N11 H31 0.862 . S
C12 C7 1.501 . S
C12 H13 0.961 . S
C12 H14 0.961 . S
C12 H15 0.960 . S
H13 C12 0.961 . S
H14 C12 0.961 . S
H15 C12 0.960 . S
C16 N17 1.342 . S
C16 C20 1.401 . S
C16 C21 1.499 . S
N17 Co0 1.989 . S
N17 C16 1.342 . S
N17 N18 1.388 . S
N18 Co1 1.993 . S
N18 N17 1.388 . S
N18 C19 1.346 . S
C19 N18 1.346 . S
C19 C20 1.396 . S
C19 C29 1.510 . S
C20 C16 1.401 . S
C20 C19 1.396 . S
C21 C16 1.499 . S
C21 H22 0.959 . S
C21 H23 0.960 . S
C21 H24 0.961 . S
H22 C21 0.959 . S
H23 C21 0.960 . S
H24 C21 0.961 . S
O25 Co0 1.967 . S
O25 C33 1.258 . S
O26 Co1 1.941 . S
O26 C33 1.266 . S
H27 C29 0.959 . S
H28 C29 0.961 . S
C29 C19 1.510 . S
C29 H27 0.959 . S
C29 H28 0.961 . S
C29 H30 0.960 . S
H30 C29 0.960 . S
H31 N11 0.862 . S
O32 Co0 1.920 . S
O32 C5 1.289 . S
C33 O25 1.258 . S
C33 O26 1.266 . S
Co34 O37 1.970 . S
Co34 N51 1.989 . S
Co34 O59 1.967 . S
Co34 O66 1.920 . S
Co35 O38 1.966 . S
Co35 N44 2.022 . S
Co35 N52 1.993 . S
Co35 O60 1.941 . S
C36 O37 1.258 . S
C36 O38 1.263 . S
O37 Co34 1.970 . S
O37 C36 1.258 . S
O38 Co35 1.966 . S
O38 C36 1.263 . S
C39 O40 1.235 . S
C39 O66 1.289 . S
O40 C39 1.235 . S
C41 C43 1.400 . S
C41 N44 1.351 . S
C41 C46 1.501 . S
C42 C43 1.387 . S
C42 N45 1.341 . S
C43 C41 1.400 . S
C43 C42 1.387 . S
N44 Co35 2.022 . S
N44 C41 1.351 . S
N44 N45 1.365 . S
N45 C42 1.341 . S
N45 N44 1.365 . S
N45 H65 0.862 . S
C46 C41 1.501 . S
C46 H47 0.961 . S
C46 H48 0.961 . S
C46 H49 0.960 . S
H47 C46 0.961 . S
H48 C46 0.961 . S
H49 C46 0.960 . S
C50 N51 1.342 . S
C50 C54 1.401 . S
C50 C55 1.499 . S
N51 Co34 1.989 . S
N51 C50 1.342 . S
N51 N52 1.388 . S
N52 Co35 1.993 . S
N52 N51 1.388 . S
N52 C53 1.346 . S
C53 N52 1.346 . S
C53 C54 1.396 . S
C53 C63 1.510 . S
C54 C50 1.401 . S
C54 C53 1.396 . S
C55 C50 1.499 . S
C55 H56 0.959 . S
C55 H57 0.960 . S
C55 H58 0.961 . S
H56 C55 0.959 . S
H57 C55 0.960 . S
H58 C55 0.961 . S
O59 Co34 1.967 . S
O59 C67 1.258 . S
O60 Co35 1.941 . S
O60 C67 1.266 . S
H61 C63 0.959 . S
H62 C63 0.961 . S
C63 C53 1.510 . S
C63 H61 0.959 . S
C63 H62 0.961 . S
C63 H64 0.960 . S
H64 C63 0.960 . S
H65 N45 0.862 . S
O66 Co34 1.920 . S
O66 C39 1.289 . S
C67 O59 1.258 . S
C67 O60 1.266 . S
Co68 O71 1.970 . S
Co68 N85 1.989 . S
Co68 O93 1.967 . S
Co68 O100 1.920 . S
Co69 O72 1.966 . S
Co69 N78 2.022 . S
Co69 N86 1.993 . S
Co69 O94 1.941 . S
C70 O71 1.258 . S
C70 O72 1.263 . S
O71 Co68 1.970 . S
O71 C70 1.258 . S
O72 Co69 1.966 . S
O72 C70 1.263 . S
C73 O74 1.235 . S
C73 O100 1.289 . S
O74 C73 1.235 . S
C75 C77 1.400 . S
C75 N78 1.351 . S
C75 C80 1.501 . S
C76 C77 1.387 . S
C76 N79 1.341 . S
C77 C75 1.400 . S
C77 C76 1.387 . S
N78 Co69 2.022 . S
N78 C75 1.351 . S
N78 N79 1.365 . S
N79 C76 1.341 . S
N79 N78 1.365 . S
N79 H99 0.862 . S
C80 C75 1.501 . S
C80 H81 0.961 . S
C80 H82 0.961 . S
C80 H83 0.960 . S
H81 C80 0.961 . S
H82 C80 0.961 . S
H83 C80 0.960 . S
C84 N85 1.342 . S
C84 C88 1.401 . S
C84 C89 1.499 . S
N85 Co68 1.989 . S
N85 C84 1.342 . S
N85 N86 1.388 . S
N86 Co69 1.993 . S
N86 N85 1.388 . S
N86 C87 1.346 . S
C87 N86 1.346 . S
C87 C88 1.396 . S
C87 C97 1.510 . S
C88 C84 1.401 . S
C88 C87 1.396 . S
C89 C84 1.499 . S
C89 H90 0.959 . S
C89 H91 0.960 . S
C89 H92 0.961 . S
H90 C89 0.959 . S
H91 C89 0.960 . S
H92 C89 0.961 . S
O93 Co68 1.967 . S
O93 C101 1.258 . S
O94 Co69 1.941 . S
O94 C101 1.266 . S
H95 C97 0.959 . S
H96 C97 0.961 . S
C97 C87 1.510 . S
C97 H95 0.959 . S
C97 H96 0.961 . S
C97 H98 0.960 . S
H98 C97 0.960 . S
H99 N79 0.862 . S
O100 Co68 1.920 . S
O100 C73 1.289 . S
C101 O93 1.258 . S
C101 O94 1.266 . S
Co102 O105 1.970 . S
Co102 N119 1.989 . S
Co102 O127 1.967 . S
Co102 O134 1.920 . S
Co103 O106 1.966 . S
Co103 N112 2.022 . S
Co103 N120 1.993 . S
Co103 O128 1.941 . S
C104 O105 1.258 . S
C104 O106 1.263 . S
O105 Co102 1.970 . S
O105 C104 1.258 . S
O106 Co103 1.966 . S
O106 C104 1.263 . S
C107 O108 1.235 . S
C107 O134 1.289 . S
O108 C107 1.235 . S
C109 C111 1.400 . S
C109 N112 1.351 . S
C109 C114 1.501 . S
C110 C111 1.387 . S
C110 N113 1.341 . S
C111 C109 1.400 . S
C111 C110 1.387 . S
N112 Co103 2.022 . S
N112 C109 1.351 . S
N112 N113 1.365 . S
N113 C110 1.341 . S
N113 N112 1.365 . S
N113 H133 0.862 . S
C114 C109 1.501 . S
C114 H115 0.961 . S
C114 H116 0.961 . S
C114 H117 0.960 . S
H115 C114 0.961 . S
H116 C114 0.961 . S
H117 C114 0.960 . S
C118 N119 1.342 . S
C118 C122 1.401 . S
C118 C123 1.499 . S
N119 Co102 1.989 . S
N119 C118 1.342 . S
N119 N120 1.388 . S
N120 Co103 1.993 . S
N120 N119 1.388 . S
N120 C121 1.346 . S
C121 N120 1.346 . S
C121 C122 1.396 . S
C121 C131 1.510 . S
C122 C118 1.401 . S
C122 C121 1.396 . S
C123 C118 1.499 . S
C123 H124 0.959 . S
C123 H125 0.960 . S
C123 H126 0.961 . S
H124 C123 0.959 . S
H125 C123 0.960 . S
H126 C123 0.961 . S
O127 Co102 1.967 . S
O127 C135 1.258 . S
O128 Co103 1.941 . S
O128 C135 1.266 . S
H129 C131 0.959 . S
H130 C131 0.961 . S
C131 C121 1.510 . S
C131 H129 0.959 . S
C131 H130 0.961 . S
C131 H132 0.960 . S
H132 C131 0.960 . S
H133 N113 0.862 . S
O134 Co102 1.920 . S
O134 C107 1.289 . S
C135 O127 1.258 . S
C135 O128 1.266 . S
Co136 O139 1.970 . S
Co136 N153 1.989 . S
Co136 O161 1.967 . S
Co136 O168 1.920 . S
Co137 O140 1.966 . S
Co137 N146 2.022 . S
Co137 N154 1.993 . S
Co137 O162 1.941 . S
C138 O139 1.258 . S
C138 O140 1.263 . S
O139 Co136 1.970 . S
O139 C138 1.258 . S
O140 Co137 1.966 . S
O140 C138 1.263 . S
C141 O142 1.235 . S
C141 O168 1.289 . S
O142 C141 1.235 . S
C143 C145 1.400 . S
C143 N146 1.351 . S
C143 C148 1.501 . S
C144 C145 1.387 . S
C144 N147 1.341 . S
C145 C143 1.400 . S
C145 C144 1.387 . S
N146 Co137 2.022 . S
N146 C143 1.351 . S
N146 N147 1.365 . S
N147 C144 1.341 . S
N147 N146 1.365 . S
N147 H167 0.862 . S
C148 C143 1.501 . S
C148 H149 0.961 . S
C148 H150 0.961 . S
C148 H151 0.960 . S
H149 C148 0.961 . S
H150 C148 0.961 . S
H151 C148 0.960 . S
C152 N153 1.342 . S
C152 C156 1.401 . S
C152 C157 1.499 . S
N153 Co136 1.989 . S
N153 C152 1.342 . S
N153 N154 1.388 . S
N154 Co137 1.993 . S
N154 N153 1.388 . S
N154 C155 1.346 . S
C155 N154 1.346 . S
C155 C156 1.396 . S
C155 C165 1.510 . S
C156 C152 1.401 . S
C156 C155 1.396 . S
C157 C152 1.499 . S
C157 H158 0.959 . S
C157 H159 0.960 . S
C157 H160 0.961 . S
H158 C157 0.959 . S
H159 C157 0.960 . S
H160 C157 0.961 . S
O161 Co136 1.967 . S
O161 C169 1.258 . S
O162 Co137 1.941 . S
O162 C169 1.266 . S
H163 C165 0.959 . S
H164 C165 0.961 . S
C165 C155 1.510 . S
C165 H163 0.959 . S
C165 H164 0.961 . S
C165 H166 0.960 . S
H166 C165 0.960 . S
H167 N147 0.862 . S
O168 Co136 1.920 . S
O168 C141 1.289 . S
C169 O161 1.258 . S
C169 O162 1.266 . S
Co170 O173 1.970 . S
Co170 N187 1.989 . S
Co170 O195 1.967 . S
Co170 O202 1.920 . S
Co171 O174 1.966 . S
Co171 N180 2.022 . S
Co171 N188 1.993 . S
Co171 O196 1.941 . S
C172 O173 1.258 . S
C172 O174 1.263 . S
O173 Co170 1.970 . S
O173 C172 1.258 . S
O174 Co171 1.966 . S
O174 C172 1.263 . S
C175 O176 1.235 . S
C175 O202 1.289 . S
O176 C175 1.235 . S
C177 C179 1.400 . S
C177 N180 1.351 . S
C177 C182 1.501 . S
C178 C179 1.387 . S
C178 N181 1.341 . S
C179 C177 1.400 . S
C179 C178 1.387 . S
N180 Co171 2.022 . S
N180 C177 1.351 . S
N180 N181 1.365 . S
N181 C178 1.341 . S
N181 N180 1.365 . S
N181 H201 0.862 . S
C182 C177 1.501 . S
C182 H183 0.961 . S
C182 H184 0.961 . S
C182 H185 0.960 . S
H183 C182 0.961 . S
H184 C182 0.961 . S
H185 C182 0.960 . S
C186 N187 1.342 . S
C186 C190 1.401 . S
C186 C191 1.499 . S
N187 Co170 1.989 . S
N187 C186 1.342 . S
N187 N188 1.388 . S
N188 Co171 1.993 . S
N188 N187 1.388 . S
N188 C189 1.346 . S
C189 N188 1.346 . S
C189 C190 1.396 . S
C189 C199 1.510 . S
C190 C186 1.401 . S
C190 C189 1.396 . S
C191 C186 1.499 . S
C191 H192 0.959 . S
C191 H193 0.960 . S
C191 H194 0.961 . S
H192 C191 0.959 . S
H193 C191 0.960 . S
H194 C191 0.961 . S
O195 Co170 1.967 . S
O195 C203 1.258 . S
O196 Co171 1.941 . S
O196 C203 1.266 . S
H197 C199 0.959 . S
H198 C199 0.961 . S
C199 C189 1.510 . S
C199 H197 0.959 . S
C199 H198 0.961 . S
C199 H200 0.960 . S
H200 C199 0.960 . S
H201 N181 0.862 . S
O202 Co170 1.920 . S
O202 C175 1.289 . S
C203 O195 1.258 . S
C203 O196 1.266 . S
Co204 O207 1.970 . S
Co204 N221 1.989 . S
Co204 O229 1.967 . S
Co204 O236 1.920 . S
Co205 O208 1.966 . S
Co205 N214 2.022 . S
Co205 N222 1.993 . S
Co205 O230 1.941 . S
C206 O207 1.258 . S
C206 O208 1.263 . S
O207 Co204 1.970 . S
O207 C206 1.258 . S
O208 Co205 1.966 . S
O208 C206 1.263 . S
C209 O210 1.235 . S
C209 O236 1.289 . S
O210 C209 1.235 . S
C211 C213 1.400 . S
C211 N214 1.351 . S
C211 C216 1.501 . S
C212 C213 1.387 . S
C212 N215 1.341 . S
C213 C211 1.400 . S
C213 C212 1.387 . S
N214 Co205 2.022 . S
N214 C211 1.351 . S
N214 N215 1.365 . S
N215 C212 1.341 . S
N215 N214 1.365 . S
N215 H235 0.862 . S
C216 C211 1.501 . S
C216 H217 0.961 . S
C216 H218 0.961 . S
C216 H219 0.960 . S
H217 C216 0.961 . S
H218 C216 0.961 . S
H219 C216 0.960 . S
C220 N221 1.342 . S
C220 C224 1.401 . S
C220 C225 1.499 . S
N221 Co204 1.989 . S
N221 C220 1.342 . S
N221 N222 1.388 . S
N222 Co205 1.993 . S
N222 N221 1.388 . S
N222 C223 1.346 . S
C223 N222 1.346 . S
C223 C224 1.396 . S
C223 C233 1.510 . S
C224 C220 1.401 . S
C224 C223 1.396 . S
C225 C220 1.499 . S
C225 H226 0.959 . S
C225 H227 0.960 . S
C225 H228 0.961 . S
H226 C225 0.959 . S
H227 C225 0.960 . S
H228 C225 0.961 . S
O229 Co204 1.967 . S
O229 C237 1.258 . S
O230 Co205 1.941 . S
O230 C237 1.266 . S
H231 C233 0.959 . S
H232 C233 0.961 . S
C233 C223 1.510 . S
C233 H231 0.959 . S
C233 H232 0.961 . S
C233 H234 0.960 . S
H234 C233 0.960 . S
H235 N215 0.862 . S
O236 Co204 1.920 . S
O236 C209 1.289 . S
C237 O229 1.258 . S
C237 O230 1.266 . S
Co238 O241 1.970 . S
Co238 N255 1.989 . S
Co238 O263 1.967 . S
Co238 O270 1.920 . S
Co239 O242 1.966 . S
Co239 N248 2.022 . S
Co239 N256 1.993 . S
Co239 O264 1.941 . S
C240 O241 1.258 . S
C240 O242 1.263 . S
O241 Co238 1.970 . S
O241 C240 1.258 . S
O242 Co239 1.966 . S
O242 C240 1.263 . S
C243 O244 1.235 . S
C243 O270 1.289 . S
O244 C243 1.235 . S
C245 C247 1.400 . S
C245 N248 1.351 . S
C245 C250 1.501 . S
C246 C247 1.387 . S
C246 N249 1.341 . S
C247 C245 1.400 . S
C247 C246 1.387 . S
N248 Co239 2.022 . S
N248 C245 1.351 . S
N248 N249 1.365 . S
N249 C246 1.341 . S
N249 N248 1.365 . S
N249 H269 0.862 . S
C250 C245 1.501 . S
C250 H251 0.961 . S
C250 H252 0.961 . S
C250 H253 0.960 . S
H251 C250 0.961 . S
H252 C250 0.961 . S
H253 C250 0.960 . S
C254 N255 1.342 . S
C254 C258 1.401 . S
C254 C259 1.499 . S
N255 Co238 1.989 . S
N255 C254 1.342 . S
N255 N256 1.388 . S
N256 Co239 1.993 . S
N256 N255 1.388 . S
N256 C257 1.346 . S
C257 N256 1.346 . S
C257 C258 1.396 . S
C257 C267 1.510 . S
C258 C254 1.401 . S
C258 C257 1.396 . S
C259 C254 1.499 . S
C259 H260 0.959 . S
C259 H261 0.960 . S
C259 H262 0.961 . S
H260 C259 0.959 . S
H261 C259 0.960 . S
H262 C259 0.961 . S
O263 Co238 1.967 . S
O263 C271 1.258 . S
O264 Co239 1.941 . S
O264 C271 1.266 . S
H265 C267 0.959 . S
H266 C267 0.961 . S
C267 C257 1.510 . S
C267 H265 0.959 . S
C267 H266 0.961 . S
C267 H268 0.960 . S
H268 C267 0.960 . S
H269 N249 0.862 . S
O270 Co238 1.920 . S
O270 C243 1.289 . S
C271 O263 1.258 . S
C271 O264 1.266 . S
Co272 O275 1.970 . S
Co272 N289 1.989 . S
Co272 O297 1.967 . S
Co272 O304 1.920 . S
Co273 O276 1.966 . S
Co273 N282 2.022 . S
Co273 N290 1.993 . S
Co273 O298 1.941 . S
C274 O275 1.258 . S
C274 O276 1.263 . S
O275 Co272 1.970 . S
O275 C274 1.258 . S
O276 Co273 1.966 . S
O276 C274 1.263 . S
C277 O278 1.235 . S
C277 O304 1.289 . S
O278 C277 1.235 . S
C279 C281 1.400 . S
C279 N282 1.351 . S
C279 C284 1.501 . S
C280 C281 1.387 . S
C280 N283 1.341 . S
C281 C279 1.400 . S
C281 C280 1.387 . S
N282 Co273 2.022 . S
N282 C279 1.351 . S
N282 N283 1.365 . S
N283 C280 1.341 . S
N283 N282 1.365 . S
N283 H303 0.862 . S
C284 C279 1.501 . S
C284 H285 0.961 . S
C284 H286 0.961 . S
C284 H287 0.960 . S
H285 C284 0.961 . S
H286 C284 0.961 . S
H287 C284 0.960 . S
C288 N289 1.342 . S
C288 C292 1.401 . S
C288 C293 1.499 . S
N289 Co272 1.989 . S
N289 C288 1.342 . S
N289 N290 1.388 . S
N290 Co273 1.993 . S
N290 N289 1.388 . S
N290 C291 1.346 . S
C291 N290 1.346 . S
C291 C292 1.396 . S
C291 C301 1.510 . S
C292 C288 1.401 . S
C292 C291 1.396 . S
C293 C288 1.499 . S
C293 H294 0.959 . S
C293 H295 0.960 . S
C293 H296 0.961 . S
H294 C293 0.959 . S
H295 C293 0.960 . S
H296 C293 0.961 . S
O297 Co272 1.967 . S
O297 C305 1.258 . S
O298 Co273 1.941 . S
O298 C305 1.266 . S
H299 C301 0.959 . S
H300 C301 0.961 . S
C301 C291 1.510 . S
C301 H299 0.959 . S
C301 H300 0.961 . S
C301 H302 0.960 . S
H302 C301 0.960 . S
H303 N283 0.862 . S
O304 Co272 1.920 . S
O304 C277 1.289 . S
C305 O297 1.258 . S
C305 O298 1.266 . S
Co306 O309 1.970 . S
Co306 N323 1.989 . S
Co306 O331 1.967 . S
Co306 O338 1.920 . S
Co307 O310 1.966 . S
Co307 N316 2.022 . S
Co307 N324 1.993 . S
Co307 O332 1.941 . S
C308 O309 1.258 . S
C308 O310 1.263 . S
O309 Co306 1.970 . S
O309 C308 1.258 . S
O310 Co307 1.966 . S
O310 C308 1.263 . S
C311 O312 1.235 . S
C311 O338 1.289 . S
O312 C311 1.235 . S
C313 C315 1.400 . S
C313 N316 1.351 . S
C313 C318 1.501 . S
C314 C315 1.387 . S
C314 N317 1.341 . S
C315 C313 1.400 . S
C315 C314 1.387 . S
N316 Co307 2.022 . S
N316 C313 1.351 . S
N316 N317 1.365 . S
N317 C314 1.341 . S
N317 N316 1.365 . S
N317 H337 0.862 . S
C318 C313 1.501 . S
C318 H319 0.961 . S
C318 H320 0.961 . S
C318 H321 0.960 . S
H319 C318 0.961 . S
H320 C318 0.961 . S
H321 C318 0.960 . S
C322 N323 1.342 . S
C322 C326 1.401 . S
C322 C327 1.499 . S
N323 Co306 1.989 . S
N323 C322 1.342 . S
N323 N324 1.388 . S
N324 Co307 1.993 . S
N324 N323 1.388 . S
N324 C325 1.346 . S
C325 N324 1.346 . S
C325 C326 1.396 . S
C325 C335 1.510 . S
C326 C322 1.401 . S
C326 C325 1.396 . S
C327 C322 1.499 . S
C327 H328 0.959 . S
C327 H329 0.960 . S
C327 H330 0.961 . S
H328 C327 0.959 . S
H329 C327 0.960 . S
H330 C327 0.961 . S
O331 Co306 1.967 . S
O331 C339 1.258 . S
O332 Co307 1.941 . S
O332 C339 1.266 . S
H333 C335 0.959 . S
H334 C335 0.961 . S
C335 C325 1.510 . S
C335 H333 0.959 . S
C335 H334 0.961 . S
C335 H336 0.960 . S
H336 C335 0.960 . S
H337 N317 0.862 . S
O338 Co306 1.920 . S
O338 C311 1.289 . S
C339 O331 1.258 . S
C339 O332 1.266 . S
Co340 O343 1.970 . S
Co340 N357 1.989 . S
Co340 O365 1.967 . S
Co340 O372 1.920 . S
Co341 O344 1.966 . S
Co341 N350 2.022 . S
Co341 N358 1.993 . S
Co341 O366 1.941 . S
C342 O343 1.258 . S
C342 O344 1.263 . S
O343 Co340 1.970 . S
O343 C342 1.258 . S
O344 Co341 1.966 . S
O344 C342 1.263 . S
C345 O346 1.235 . S
C345 O372 1.289 . S
O346 C345 1.235 . S
C347 C349 1.400 . S
C347 N350 1.351 . S
C347 C352 1.501 . S
C348 C349 1.387 . S
C348 N351 1.341 . S
C349 C347 1.400 . S
C349 C348 1.387 . S
N350 Co341 2.022 . S
N350 C347 1.351 . S
N350 N351 1.365 . S
N351 C348 1.341 . S
N351 N350 1.365 . S
N351 H371 0.862 . S
C352 C347 1.501 . S
C352 H353 0.961 . S
C352 H354 0.961 . S
C352 H355 0.960 . S
H353 C352 0.961 . S
H354 C352 0.961 . S
H355 C352 0.960 . S
C356 N357 1.342 . S
C356 C360 1.401 . S
C356 C361 1.499 . S
N357 Co340 1.989 . S
N357 C356 1.342 . S
N357 N358 1.388 . S
N358 Co341 1.993 . S
N358 N357 1.388 . S
N358 C359 1.346 . S
C359 N358 1.346 . S
C359 C360 1.396 . S
C359 C369 1.510 . S
C360 C356 1.401 . S
C360 C359 1.396 . S
C361 C356 1.499 . S
C361 H362 0.959 . S
C361 H363 0.960 . S
C361 H364 0.961 . S
H362 C361 0.959 . S
H363 C361 0.960 . S
H364 C361 0.961 . S
O365 Co340 1.967 . S
O365 C373 1.258 . S
O366 Co341 1.941 . S
O366 C373 1.266 . S
H367 C369 0.959 . S
H368 C369 0.961 . S
C369 C359 1.510 . S
C369 H367 0.959 . S
C369 H368 0.961 . S
C369 H370 0.960 . S
H370 C369 0.960 . S
H371 N351 0.862 . S
O372 Co340 1.920 . S
O372 C345 1.289 . S
C373 O365 1.258 . S
C373 O366 1.266 . S
Co374 O377 1.970 . S
Co374 N391 1.989 . S
Co374 O399 1.967 . S
Co374 O406 1.920 . S
Co375 O378 1.966 . S
Co375 N384 2.022 . S
Co375 N392 1.993 . S
Co375 O400 1.941 . S
C376 O377 1.258 . S
C376 O378 1.263 . S
O377 Co374 1.970 . S
O377 C376 1.258 . S
O378 Co375 1.966 . S
O378 C376 1.263 . S
C379 O380 1.235 . S
C379 O406 1.289 . S
O380 C379 1.235 . S
C381 C383 1.400 . S
C381 N384 1.351 . S
C381 C386 1.501 . S
C382 C383 1.387 . S
C382 N385 1.341 . S
C383 C381 1.400 . S
C383 C382 1.387 . S
N384 Co375 2.022 . S
N384 C381 1.351 . S
N384 N385 1.365 . S
N385 C382 1.341 . S
N385 N384 1.365 . S
N385 H405 0.862 . S
C386 C381 1.501 . S
C386 H387 0.961 . S
C386 H388 0.961 . S
C386 H389 0.960 . S
H387 C386 0.961 . S
H388 C386 0.961 . S
H389 C386 0.960 . S
C390 N391 1.342 . S
C390 C394 1.401 . S
C390 C395 1.499 . S
N391 Co374 1.989 . S
N391 C390 1.342 . S
N391 N392 1.388 . S
N392 Co375 1.993 . S
N392 N391 1.388 . S
N392 C393 1.346 . S
C393 N392 1.346 . S
C393 C394 1.396 . S
C393 C403 1.510 . S
C394 C390 1.401 . S
C394 C393 1.396 . S
C395 C390 1.499 . S
C395 H396 0.959 . S
C395 H397 0.960 . S
C395 H398 0.961 . S
H396 C395 0.959 . S
H397 C395 0.960 . S
H398 C395 0.961 . S
O399 Co374 1.967 . S
O399 C407 1.258 . S
O400 Co375 1.941 . S
O400 C407 1.266 . S
H401 C403 0.959 . S
H402 C403 0.961 . S
C403 C393 1.510 . S
C403 H401 0.959 . S
C403 H402 0.961 . S
C403 H404 0.960 . S
H404 C403 0.960 . S
H405 N385 0.862 . S
O406 Co374 1.920 . S
O406 C379 1.289 . S
C407 O399 1.258 . S
C407 O400 1.266 . S
Co408 O411 1.970 . S
Co408 N425 1.989 . S
Co408 O433 1.967 . S
Co408 O440 1.920 . S
Co409 O412 1.966 . S
Co409 N418 2.022 . S
Co409 N426 1.993 . S
Co409 O434 1.941 . S
C410 O411 1.258 . S
C410 O412 1.263 . S
O411 Co408 1.970 . S
O411 C410 1.258 . S
O412 Co409 1.966 . S
O412 C410 1.263 . S
C413 O414 1.235 . S
C413 O440 1.289 . S
O414 C413 1.235 . S
C415 C417 1.400 . S
C415 N418 1.351 . S
C415 C420 1.501 . S
C416 C417 1.387 . S
C416 N419 1.341 . S
C417 C415 1.400 . S
C417 C416 1.387 . S
N418 Co409 2.022 . S
N418 C415 1.351 . S
N418 N419 1.365 . S
N419 C416 1.341 . S
N419 N418 1.365 . S
N419 H439 0.862 . S
C420 C415 1.501 . S
C420 H421 0.961 . S
C420 H422 0.961 . S
C420 H423 0.960 . S
H421 C420 0.961 . S
H422 C420 0.961 . S
H423 C420 0.960 . S
C424 N425 1.342 . S
C424 C428 1.401 . S
C424 C429 1.499 . S
N425 Co408 1.989 . S
N425 C424 1.342 . S
N425 N426 1.388 . S
N426 Co409 1.993 . S
N426 N425 1.388 . S
N426 C427 1.346 . S
C427 N426 1.346 . S
C427 C428 1.396 . S
C427 C437 1.510 . S
C428 C424 1.401 . S
C428 C427 1.396 . S
C429 C424 1.499 . S
C429 H430 0.959 . S
C429 H431 0.960 . S
C429 H432 0.961 . S
H430 C429 0.959 . S
H431 C429 0.960 . S
H432 C429 0.961 . S
O433 Co408 1.967 . S
O433 C441 1.258 . S
O434 Co409 1.941 . S
O434 C441 1.266 . S
H435 C437 0.959 . S
H436 C437 0.961 . S
C437 C427 1.510 . S
C437 H435 0.959 . S
C437 H436 0.961 . S
C437 H438 0.960 . S
H438 C437 0.960 . S
H439 N419 0.862 . S
O440 Co408 1.920 . S
O440 C413 1.289 . S
C441 O433 1.258 . S
C441 O434 1.266 . S
Co442 O445 1.970 . S
Co442 N459 1.989 . S
Co442 O467 1.967 . S
Co442 O474 1.920 . S
Co443 O446 1.966 . S
Co443 N452 2.022 . S
Co443 N460 1.993 . S
Co443 O468 1.941 . S
C444 O445 1.258 . S
C444 O446 1.263 . S
O445 Co442 1.970 . S
O445 C444 1.258 . S
O446 Co443 1.966 . S
O446 C444 1.263 . S
C447 O448 1.235 . S
C447 O474 1.289 . S
O448 C447 1.235 . S
C449 C451 1.400 . S
C449 N452 1.351 . S
C449 C454 1.501 . S
C450 C451 1.387 . S
C450 N453 1.341 . S
C451 C449 1.400 . S
C451 C450 1.387 . S
N452 Co443 2.022 . S
N452 C449 1.351 . S
N452 N453 1.365 . S
N453 C450 1.341 . S
N453 N452 1.365 . S
N453 H473 0.862 . S
C454 C449 1.501 . S
C454 H455 0.961 . S
C454 H456 0.961 . S
C454 H457 0.960 . S
H455 C454 0.961 . S
H456 C454 0.961 . S
H457 C454 0.960 . S
C458 N459 1.342 . S
C458 C462 1.401 . S
C458 C463 1.499 . S
N459 Co442 1.989 . S
N459 C458 1.342 . S
N459 N460 1.388 . S
N460 Co443 1.993 . S
N460 N459 1.388 . S
N460 C461 1.346 . S
C461 N460 1.346 . S
C461 C462 1.396 . S
C461 C471 1.510 . S
C462 C458 1.401 . S
C462 C461 1.396 . S
C463 C458 1.499 . S
C463 H464 0.959 . S
C463 H465 0.960 . S
C463 H466 0.961 . S
H464 C463 0.959 . S
H465 C463 0.960 . S
H466 C463 0.961 . S
O467 Co442 1.967 . S
O467 C475 1.258 . S
O468 Co443 1.941 . S
O468 C475 1.266 . S
H469 C471 0.959 . S
H470 C471 0.961 . S
C471 C461 1.510 . S
C471 H469 0.959 . S
C471 H470 0.961 . S
C471 H472 0.960 . S
H472 C471 0.960 . S
H473 N453 0.862 . S
O474 Co442 1.920 . S
O474 C447 1.289 . S
C475 O467 1.258 . S
C475 O468 1.266 . S
Co476 O479 1.970 . S
Co476 N493 1.989 . S
Co476 O501 1.967 . S
Co476 O508 1.920 . S
Co477 O480 1.966 . S
Co477 N486 2.022 . S
Co477 N494 1.993 . S
Co477 O502 1.941 . S
C478 O479 1.258 . S
C478 O480 1.263 . S
O479 Co476 1.970 . S
O479 C478 1.258 . S
O480 Co477 1.966 . S
O480 C478 1.263 . S
C481 O482 1.235 . S
C481 O508 1.289 . S
O482 C481 1.235 . S
C483 C485 1.400 . S
C483 N486 1.351 . S
C483 C488 1.501 . S
C484 C485 1.387 . S
C484 N487 1.341 . S
C485 C483 1.400 . S
C485 C484 1.387 . S
N486 Co477 2.022 . S
N486 C483 1.351 . S
N486 N487 1.365 . S
N487 C484 1.341 . S
N487 N486 1.365 . S
N487 H507 0.862 . S
C488 C483 1.501 . S
C488 H489 0.961 . S
C488 H490 0.961 . S
C488 H491 0.960 . S
H489 C488 0.961 . S
H490 C488 0.961 . S
H491 C488 0.960 . S
C492 N493 1.342 . S
C492 C496 1.401 . S
C492 C497 1.499 . S
N493 Co476 1.989 . S
N493 C492 1.342 . S
N493 N494 1.388 . S
N494 Co477 1.993 . S
N494 N493 1.388 . S
N494 C495 1.346 . S
C495 N494 1.346 . S
C495 C496 1.396 . S
C495 C505 1.510 . S
C496 C492 1.401 . S
C496 C495 1.396 . S
C497 C492 1.499 . S
C497 H498 0.959 . S
C497 H499 0.960 . S
C497 H500 0.961 . S
H498 C497 0.959 . S
H499 C497 0.960 . S
H500 C497 0.961 . S
O501 Co476 1.967 . S
O501 C509 1.258 . S
O502 Co477 1.941 . S
O502 C509 1.266 . S
H503 C505 0.959 . S
H504 C505 0.961 . S
C505 C495 1.510 . S
C505 H503 0.959 . S
C505 H504 0.961 . S
C505 H506 0.960 . S
H506 C505 0.960 . S
H507 N487 0.862 . S
O508 Co476 1.920 . S
O508 C481 1.289 . S
C509 O501 1.258 . S
C509 O502 1.266 . S
Co510 O513 1.970 . S
Co510 N527 1.989 . S
Co510 O535 1.967 . S
Co510 O542 1.920 . S
Co511 O514 1.966 . S
Co511 N520 2.022 . S
Co511 N528 1.993 . S
Co511 O536 1.941 . S
C512 O513 1.258 . S
C512 O514 1.263 . S
O513 Co510 1.970 . S
O513 C512 1.258 . S
O514 Co511 1.966 . S
O514 C512 1.263 . S
C515 O516 1.235 . S
C515 O542 1.289 . S
O516 C515 1.235 . S
C517 C519 1.400 . S
C517 N520 1.351 . S
C517 C522 1.501 . S
C518 C519 1.387 . S
C518 N521 1.341 . S
C519 C517 1.400 . S
C519 C518 1.387 . S
N520 Co511 2.022 . S
N520 C517 1.351 . S
N520 N521 1.365 . S
N521 C518 1.341 . S
N521 N520 1.365 . S
N521 H541 0.862 . S
C522 C517 1.501 . S
C522 H523 0.961 . S
C522 H524 0.961 . S
C522 H525 0.960 . S
H523 C522 0.961 . S
H524 C522 0.961 . S
H525 C522 0.960 . S
C526 N527 1.342 . S
C526 C530 1.401 . S
C526 C531 1.499 . S
N527 Co510 1.989 . S
N527 C526 1.342 . S
N527 N528 1.388 . S
N528 Co511 1.993 . S
N528 N527 1.388 . S
N528 C529 1.346 . S
C529 N528 1.346 . S
C529 C530 1.396 . S
C529 C539 1.510 . S
C530 C526 1.401 . S
C530 C529 1.396 . S
C531 C526 1.499 . S
C531 H532 0.959 . S
C531 H533 0.960 . S
C531 H534 0.961 . S
H532 C531 0.959 . S
H533 C531 0.960 . S
H534 C531 0.961 . S
O535 Co510 1.967 . S
O535 C543 1.258 . S
O536 Co511 1.941 . S
O536 C543 1.266 . S
H537 C539 0.959 . S
H538 C539 0.961 . S
C539 C529 1.510 . S
C539 H537 0.959 . S
C539 H538 0.961 . S
C539 H540 0.960 . S
H540 C539 0.960 . S
H541 N521 0.862 . S
O542 Co510 1.920 . S
O542 C515 1.289 . S
C543 O535 1.258 . S
C543 O536 1.266 . S
H544 C552 0.929 . S
H545 C554 0.930 . S
H546 C556 0.930 . S
H547 C559 0.929 . S
H548 C562 0.930 . S
H549 C564 0.960 . S
H550 C564 0.960 . S
H551 C564 0.960 . S
C552 H544 0.929 . S
C552 C553 1.377 . S
C552 C554 1.384 . S
C553 C552 1.377 . S
C553 C559 1.390 . S
C554 H545 0.930 . S
C554 C552 1.384 . S
C554 C555 1.372 . S
C555 C554 1.372 . S
C555 C556 1.400 . S
C555 C560 1.490 . S
C556 H546 0.930 . S
C556 C555 1.400 . S
C556 C559 1.386 . S
H557 C573 0.930 . S
H558 C574 0.931 . S
C559 H547 0.929 . S
C559 C553 1.390 . S
C559 C556 1.386 . S
C560 C555 1.490 . S
C560 C562 1.395 . S
C560 C563 1.403 . S
H561 C567 0.930 . S
C562 H548 0.930 . S
C562 C560 1.395 . S
C562 C565 1.403 . S
C563 C560 1.403 . S
C563 C564 1.524 . S
C563 C567 1.400 . S
C564 H549 0.960 . S
C564 H550 0.960 . S
C564 H551 0.960 . S
C564 C563 1.524 . S
C565 C562 1.403 . S
C565 C566 1.392 . S
C565 C569 1.495 . S
C566 C565 1.392 . S
C566 C567 1.385 . S
C566 C568 1.478 . S
C567 H561 0.930 . S
C567 C563 1.400 . S
C567 C566 1.385 . S
C568 C566 1.478 . S
C568 C570 1.381 . S
C568 C574 1.383 . S
C569 C565 1.495 . S
C569 H575 0.959 . S
C569 H576 0.961 . S
C569 H577 0.960 . S
C570 C568 1.381 . S
C570 C571 1.394 . S
C570 H578 0.930 . S
C571 C570 1.394 . S
C571 C572 1.383 . S
C571 H579 0.929 . S
C572 C571 1.383 . S
C572 C573 1.377 . S
C573 H557 0.930 . S
C573 C572 1.377 . S
C573 C574 1.379 . S
C574 H558 0.931 . S
C574 C568 1.383 . S
C574 C573 1.379 . S
H575 C569 0.959 . S
H576 C569 0.961 . S
H577 C569 0.960 . S
H578 C570 0.930 . S
H579 C571 0.929 . S
H580 C588 0.929 . S
H581 C590 0.930 . S
H582 C592 0.930 1_565 S
H583 C595 0.929 . S
H584 C598 0.930 . S
H585 C600 0.960 . S
H586 C600 0.960 . S
H587 C600 0.960 . S
C588 H580 0.929 . S
C588 C589 1.377 . S
C588 C590 1.384 . S
C589 C588 1.377 . S
C589 C595 1.390 . S
C590 H581 0.930 . S
C590 C588 1.384 . S
C590 C591 1.372 . S
C591 C590 1.372 . S
C591 C592 1.400 . S
C591 C596 1.490 . S
C592 H582 0.930 1_545 S
C592 C591 1.400 . S
C592 C595 1.386 . S
H593 C609 0.930 . S
H594 C610 0.931 . S
C595 H583 0.929 . S
C595 C589 1.390 . S
C595 C592 1.386 . S
C596 C591 1.490 . S
C596 C598 1.395 1_655 S
C596 C599 1.403 1_545 S
H597 C603 0.931 . S
C598 H584 0.930 . S
C598 C596 1.395 1_455 S
C598 C601 1.403 . S
C599 C596 1.403 1_565 S
C599 C600 1.524 . S
C599 C603 1.414 . S
C600 H585 0.960 . S
C600 H586 0.960 . S
C600 H587 0.960 . S
C600 C599 1.524 . S
C601 C598 1.403 . S
C601 C602 1.392 1_545 S
C601 C605 1.495 . S
C602 C601 1.392 1_565 S
C602 C603 1.371 1_455 S
C602 C604 1.478 . S
C603 H597 0.931 . S
C603 C599 1.414 . S
C603 C602 1.371 1_655 S
C604 C602 1.478 . S
C604 C606 1.381 . S
C604 C610 1.383 . S
C605 C601 1.495 . S
C605 H611 0.959 . S
C605 H612 0.961 . S
C605 H613 0.960 . S
C606 C604 1.381 . S
C606 C607 1.394 . S
C606 H614 0.930 . S
C607 C606 1.394 . S
C607 C608 1.383 . S
C607 H615 0.929 . S
C608 C607 1.383 . S
C608 C609 1.377 . S
C609 H593 0.930 . S
C609 C608 1.377 . S
C609 C610 1.379 . S
C610 H594 0.931 . S
C610 C604 1.383 . S
C610 C609 1.379 . S
H611 C605 0.959 . S
H612 C605 0.961 . S
H613 C605 0.960 . S
H614 C606 0.930 . S
H615 C607 0.929 . S
H616 C624 0.929 . S
H617 C626 0.930 . S
H618 C628 0.930 . S
H619 C631 0.929 . S
H620 C634 0.930 . S
H621 C636 0.960 . S
H622 C636 0.960 . S
H623 C636 0.960 . S
C624 H616 0.929 . S
C624 C625 1.377 . S
C624 C626 1.384 . S
C625 C624 1.377 . S
C625 C631 1.390 . S
C626 H617 0.930 . S
C626 C624 1.384 . S
C626 C627 1.372 . S
C627 C626 1.372 . S
C627 C628 1.400 . S
C627 C632 1.490 . S
C628 H618 0.930 . S
C628 C627 1.400 . S
C628 C631 1.386 . S
H629 C645 0.930 . S
H630 C646 0.931 . S
C631 H619 0.929 . S
C631 C625 1.390 . S
C631 C628 1.386 . S
C632 C627 1.490 . S
C632 C634 1.395 . S
C632 C635 1.403 . S
H633 C639 0.930 . S
C634 H620 0.930 . S
C634 C632 1.395 . S
C634 C637 1.403 . S
C635 C632 1.403 . S
C635 C636 1.524 . S
C635 C639 1.400 . S
C636 H621 0.960 . S
C636 H622 0.960 . S
C636 H623 0.960 . S
C636 C635 1.524 . S
C637 C634 1.403 . S
C637 C638 1.392 . S
C637 C641 1.495 . S
C638 C637 1.392 . S
C638 C639 1.385 . S
C638 C640 1.478 . S
C639 H633 0.930 . S
C639 C635 1.400 . S
C639 C638 1.385 . S
C640 C638 1.478 . S
C640 C642 1.381 . S
C640 C646 1.383 . S
C641 C637 1.495 . S
C641 H647 0.959 . S
C641 H648 0.961 . S
C641 H649 0.960 . S
C642 C640 1.381 . S
C642 C643 1.394 . S
C642 H650 0.930 . S
C643 C642 1.394 . S
C643 C644 1.383 . S
C643 H651 0.929 . S
C644 C643 1.383 . S
C644 C645 1.377 . S
C645 H629 0.930 . S
C645 C644 1.377 . S
C645 C646 1.379 . S
C646 H630 0.931 . S
C646 C640 1.383 . S
C646 C645 1.379 . S
H647 C641 0.959 . S
H648 C641 0.961 . S
H649 C641 0.960 . S
H650 C642 0.930 . S
H651 C643 0.929 . S
H652 C660 0.929 . S
H653 C662 0.930 1_554 S
H654 C664 0.930 . S
H655 C667 0.929 . S
H656 C670 0.930 1_556 S
H657 C672 0.960 . S
H658 C672 0.960 . S
H659 C672 0.960 1_556 S
C660 H652 0.929 . S
C660 C661 1.377 . S
C660 C662 1.384 . S
C661 C660 1.377 . S
C661 C667 1.390 . S
C662 H653 0.930 1_556 S
C662 C660 1.384 . S
C662 C663 1.372 . S
C663 C662 1.372 . S
C663 C664 1.400 . S
C663 C668 1.477 1_556 S
C664 H654 0.930 . S
C664 C663 1.400 . S
C664 C667 1.386 . S
H665 C681 0.930 . S
H666 C682 0.931 . S
C667 H655 0.929 . S
C667 C661 1.390 . S
C667 C664 1.386 . S
C668 C663 1.477 1_554 S
C668 C670 1.400 1_545 S
C668 C671 1.411 . S
H669 C675 0.930 1_545 S
C670 H656 0.930 1_554 S
C670 C668 1.400 1_565 S
C670 C673 1.403 . S
C671 C668 1.411 . S
C671 C672 1.524 . S
C671 C675 1.400 1_545 S
C672 H657 0.960 . S
C672 H658 0.960 . S
C672 H659 0.960 1_554 S
C672 C671 1.524 . S
C673 C670 1.403 . S
C673 C674 1.392 . S
C673 C677 1.495 . S
C674 C673 1.392 . S
C674 C675 1.385 . S
C674 C676 1.478 . S
C675 H669 0.930 1_565 S
C675 C671 1.400 1_565 S
C675 C674 1.385 . S
C676 C674 1.478 . S
C676 C678 1.381 . S
C676 C682 1.383 . S
C677 C673 1.495 . S
C677 H683 0.959 . S
C677 H684 0.961 . S
C677 H685 0.960 . S
C678 C676 1.381 . S
C678 C679 1.394 . S
C678 H686 0.930 . S
C679 C678 1.394 . S
C679 C680 1.383 . S
C679 H687 0.929 . S
C680 C679 1.383 . S
C680 C681 1.377 . S
C681 H665 0.930 . S
C681 C680 1.377 . S
C681 C682 1.379 . S
C682 H666 0.931 . S
C682 C676 1.383 . S
C682 C681 1.379 . S
H683 C677 0.959 . S
H684 C677 0.961 . S
H685 C677 0.960 . S
H686 C678 0.930 . S
H687 C679 0.929 . S
H688 C696 0.929 . S
H689 C698 0.930 . S
H690 C700 0.930 . S
H691 C703 0.929 . S
H692 C706 0.930 . S
H693 C708 0.960 . S
H694 C708 0.960 . S
H695 C708 0.960 . S
C696 H688 0.929 . S
C696 C697 1.377 . S
C696 C698 1.384 . S
C697 C696 1.377 . S
C697 C703 1.390 . S
C698 H689 0.930 . S
C698 C696 1.384 . S
C698 C699 1.372 . S
C699 C698 1.372 . S
C699 C700 1.400 . S
C699 C704 1.490 . S
C700 H690 0.930 . S
C700 C699 1.400 . S
C700 C703 1.386 . S
H701 C717 0.930 . S
H702 C718 0.931 . S
C703 H691 0.929 . S
C703 C697 1.390 . S
C703 C700 1.386 . S
C704 C699 1.490 . S
C704 C706 1.395 . S
C704 C707 1.403 . S
H705 C711 0.930 . S
C706 H692 0.930 . S
C706 C704 1.395 . S
C706 C709 1.403 . S
C707 C704 1.403 . S
C707 C708 1.524 . S
C707 C711 1.400 . S
C708 H693 0.960 . S
C708 H694 0.960 . S
C708 H695 0.960 . S
C708 C707 1.524 . S
C709 C706 1.403 . S
C709 C710 1.392 . S
C709 C713 1.495 . S
C710 C709 1.392 . S
C710 C711 1.385 . S
C710 C712 1.478 . S
C711 H705 0.930 . S
C711 C707 1.400 . S
C711 C710 1.385 . S
C712 C710 1.478 . S
C712 C714 1.381 . S
C712 C718 1.383 . S
C713 C709 1.495 . S
C713 H719 0.959 . S
C713 H720 0.961 . S
C713 H721 0.960 . S
C714 C712 1.381 . S
C714 C715 1.394 . S
C714 H722 0.930 . S
C715 C714 1.394 . S
C715 C716 1.383 . S
C715 H723 0.929 . S
C716 C715 1.383 . S
C716 C717 1.377 . S
C717 H701 0.930 . S
C717 C716 1.377 . S
C717 C718 1.379 . S
C718 H702 0.931 . S
C718 C712 1.383 . S
C718 C717 1.379 . S
H719 C713 0.959 . S
H720 C713 0.961 . S
H721 C713 0.960 . S
H722 C714 0.930 . S
H723 C715 0.929 . S
H724 C732 0.929 . S
H725 C734 0.930 . S
H726 C736 0.930 . S
H727 C739 0.929 . S
H728 C742 0.930 . S
H729 C744 0.960 . S
H730 C744 0.960 . S
H731 C744 0.960 . S
C732 H724 0.929 . S
C732 C733 1.377 . S
C732 C734 1.384 . S
C733 C732 1.377 . S
C733 C739 1.390 . S
C734 H725 0.930 . S
C734 C732 1.384 . S
C734 C735 1.372 . S
C735 C734 1.372 . S
C735 C736 1.400 . S
C735 C740 1.490 1_565 S
C736 H726 0.930 . S
C736 C735 1.400 . S
C736 C739 1.386 . S
H737 C753 0.930 . S
H738 C754 0.931 . S
C739 H727 0.929 . S
C739 C733 1.390 . S
C739 C736 1.386 . S
C740 C735 1.490 1_545 S
C740 C742 1.395 . S
C740 C743 1.403 1_545 S
H741 C747 0.930 . S
C742 H728 0.930 . S
C742 C740 1.395 . S
C742 C745 1.403 . S
C743 C740 1.403 1_565 S
C743 C744 1.524 . S
C743 C747 1.400 1_565 S
C744 H729 0.960 . S
C744 H730 0.960 . S
C744 H731 0.960 . S
C744 C743 1.524 . S
C745 C742 1.403 . S
C745 C746 1.392 . S
C745 C749 1.495 . S
C746 C745 1.392 . S
C746 C747 1.385 . S
C746 C748 1.478 . S
C747 H741 0.930 . S
C747 C743 1.400 1_545 S
C747 C746 1.385 . S
C748 C746 1.478 . S
C748 C750 1.381 . S
C748 C754 1.383 . S
C749 C745 1.495 . S
C749 H755 0.959 . S
C749 H756 0.961 . S
C749 H757 0.960 . S
C750 C748 1.381 . S
C750 C751 1.394 . S
C750 H758 0.930 . S
C751 C750 1.394 . S
C751 C752 1.383 . S
C751 H759 0.929 . S
C752 C751 1.383 . S
C752 C753 1.377 . S
C753 H737 0.930 . S
C753 C752 1.377 . S
C753 C754 1.379 . S
C754 H738 0.931 . S
C754 C748 1.383 . S
C754 C753 1.379 . S
H755 C749 0.959 . S
H756 C749 0.961 . S
H757 C749 0.960 . S
H758 C750 0.930 . S
H759 C751 0.929 . S
H760 C768 0.929 . S
H761 C770 0.930 . S
H762 C772 0.930 . S
H763 C775 0.929 . S
H764 C778 0.930 . S
H765 C780 0.960 . S
H766 C780 0.960 . S
H767 C780 0.960 . S
C768 H760 0.929 . S
C768 C769 1.377 . S
C768 C770 1.384 . S
C769 C768 1.377 . S
C769 C775 1.390 . S
C770 H761 0.930 . S
C770 C768 1.384 . S
C770 C771 1.372 . S
C771 C770 1.372 . S
C771 C772 1.400 . S
C771 C776 1.490 . S
C772 H762 0.930 . S
C772 C771 1.400 . S
C772 C775 1.386 . S
H773 C789 0.930 . S
H774 C790 0.931 . S
C775 H763 0.929 . S
C775 C769 1.390 . S
C775 C772 1.386 . S
C776 C771 1.490 . S
C776 C778 1.395 . S
C776 C779 1.403 . S
H777 C783 0.930 . S
C778 H764 0.930 . S
C778 C776 1.395 . S
C778 C781 1.403 . S
C779 C776 1.403 . S
C779 C780 1.524 . S
C779 C783 1.400 . S
C780 H765 0.960 . S
C780 H766 0.960 . S
C780 H767 0.960 . S
C780 C779 1.524 . S
C781 C778 1.403 . S
C781 C782 1.392 . S
C781 C785 1.495 . S
C782 C781 1.392 . S
C782 C783 1.385 . S
C782 C784 1.478 . S
C783 H777 0.930 . S
C783 C779 1.400 . S
C783 C782 1.385 . S
C784 C782 1.478 . S
C784 C786 1.381 . S
C784 C790 1.383 . S
C785 C781 1.495 . S
C785 H791 0.959 . S
C785 H792 0.961 . S
C785 H793 0.960 . S
C786 C784 1.381 . S
C786 C787 1.394 . S
C786 H794 0.930 . S
C787 C786 1.394 . S
C787 C788 1.383 . S
C787 H795 0.929 . S
C788 C787 1.383 . S
C788 C789 1.377 . S
C789 H773 0.930 . S
C789 C788 1.377 . S
C789 C790 1.379 . S
C790 H774 0.931 . S
C790 C784 1.383 . S
C790 C789 1.379 . S
H791 C785 0.959 . S
H792 C785 0.961 . S
H793 C785 0.960 . S
H794 C786 0.930 . S
H795 C787 0.929 . S
H796 C804 0.929 . S
H797 C806 0.930 . S
H798 C808 0.930 . S
H799 C811 0.929 . S
H800 C814 0.930 . S
H801 C816 0.960 . S
H802 C816 0.960 . S
H803 C816 0.960 . S
C804 H796 0.929 . S
C804 C805 1.377 . S
C804 C806 1.384 . S
C805 C804 1.377 . S
C805 C811 1.390 . S
C806 H797 0.930 . S
C806 C804 1.384 . S
C806 C807 1.372 . S
C807 C806 1.372 . S
C807 C808 1.400 . S
C807 C812 1.490 . S
C808 H798 0.930 . S
C808 C807 1.400 . S
C808 C811 1.386 . S
H809 C825 0.930 . S
H810 C826 0.931 1_545 S
C811 H799 0.929 . S
C811 C805 1.390 . S
C811 C808 1.386 . S
C812 C807 1.490 . S
C812 C814 1.395 . S
C812 C815 1.403 . S
H813 C819 0.930 . S
C814 H800 0.930 . S
C814 C812 1.395 . S
C814 C817 1.403 1_445 S
C815 C812 1.403 . S
C815 C816 1.524 1_554 S
C815 C819 1.400 1_554 S
C816 H801 0.960 . S
C816 H802 0.960 . S
C816 H803 0.960 . S
C816 C815 1.524 1_556 S
C817 C814 1.403 1_665 S
C817 C818 1.392 1_554 S
C817 C821 1.495 . S
C818 C817 1.392 1_556 S
C818 C819 1.385 1_665 S
C818 C820 1.478 . S
C819 H813 0.930 . S
C819 C815 1.400 1_556 S
C819 C818 1.385 1_445 S
C820 C818 1.478 . S
C820 C822 1.381 . S
C820 C826 1.383 . S
C821 C817 1.495 . S
C821 H827 0.959 . S
C821 H828 0.961 . S
C821 H829 0.960 . S
C822 C820 1.381 . S
C822 C823 1.394 . S
C822 H830 0.930 . S
C823 C822 1.394 . S
C823 C824 1.383 . S
C823 H831 0.929 . S
C824 C823 1.383 . S
C824 C825 1.377 . S
C825 H809 0.930 . S
C825 C824 1.377 . S
C825 C826 1.379 . S
C826 H810 0.931 1_565 S
C826 C820 1.383 . S
C826 C825 1.379 . S
H827 C821 0.959 . S
H828 C821 0.961 . S
H829 C821 0.960 . S
H830 C822 0.930 . S
H831 C823 0.929 . S
H832 C840 0.929 . S
H833 C842 0.930 . S
H834 C844 0.930 . S
H835 C847 0.929 . S
H836 C850 0.930 . S
H837 C852 0.960 . S
H838 C852 0.960 . S
H839 C852 0.960 . S
C840 H832 0.929 . S
C840 C841 1.377 . S
C840 C842 1.384 . S
C841 C840 1.377 . S
C841 C847 1.390 . S
C842 H833 0.930 . S
C842 C840 1.384 . S
C842 C843 1.372 . S
C843 C842 1.372 . S
C843 C844 1.400 . S
C843 C848 1.490 . S
C844 H834 0.930 . S
C844 C843 1.400 . S
C844 C847 1.386 . S
H845 C861 0.930 . S
H846 C862 0.931 . S
C847 H835 0.929 . S
C847 C841 1.390 . S
C847 C844 1.386 . S
C848 C843 1.490 . S
C848 C850 1.395 . S
C848 C851 1.403 . S
H849 C855 0.930 . S
C850 H836 0.930 . S
C850 C848 1.395 . S
C850 C853 1.403 . S
C851 C848 1.403 . S
C851 C852 1.524 . S
C851 C855 1.400 . S
C852 H837 0.960 . S
C852 H838 0.960 . S
C852 H839 0.960 . S
C852 C851 1.524 . S
C853 C850 1.403 . S
C853 C854 1.392 . S
C853 C857 1.495 . S
C854 C853 1.392 . S
C854 C855 1.385 . S
C854 C856 1.478 . S
C855 H849 0.930 . S
C855 C851 1.400 . S
C855 C854 1.385 . S
C856 C854 1.478 . S
C856 C858 1.381 . S
C856 C862 1.383 . S
C857 C853 1.495 . S
C857 H863 0.959 . S
C857 H864 0.961 . S
C857 H865 0.960 . S
C858 C856 1.381 . S
C858 C859 1.394 . S
C858 H866 0.930 . S
C859 C858 1.394 . S
C859 C860 1.383 . S
C859 H867 0.929 . S
C860 C859 1.383 . S
C860 C861 1.377 . S
C861 H845 0.930 . S
C861 C860 1.377 . S
C861 C862 1.379 . S
C862 H846 0.931 . S
C862 C856 1.383 . S
C862 C861 1.379 . S
H863 C857 0.959 . S
H864 C857 0.961 . S
H865 C857 0.960 . S
H866 C858 0.930 . S
H867 C859 0.929 . S
H868 C876 0.929 . S
H869 C878 0.930 . S
H870 C880 0.930 . S
H871 C883 0.929 . S
H872 C886 0.930 . S
H873 C888 0.960 1_554 S
H874 C888 0.960 1_554 S
H875 C888 0.960 . S
C876 H868 0.929 . S
C876 C877 1.377 . S
C876 C878 1.384 . S
C877 C876 1.377 . S
C877 C883 1.390 . S
C878 H869 0.930 . S
C878 C876 1.384 . S
C878 C879 1.372 . S
C879 C878 1.372 . S
C879 C880 1.400 . S
C879 C884 1.490 . S
C880 H870 0.930 . S
C880 C879 1.400 . S
C880 C883 1.386 . S
H881 C897 0.930 . S
H882 C898 0.931 1_556 S
C883 H871 0.929 . S
C883 C877 1.390 . S
C883 C880 1.386 . S
C884 C879 1.490 . S
C884 C886 1.395 1_455 S
C884 C887 1.403 . S
H885 C891 0.930 . S
C886 H872 0.930 . S
C886 C884 1.395 1_655 S
C886 C889 1.403 . S
C887 C884 1.403 . S
C887 C888 1.524 . S
C887 C891 1.400 1_556 S
C888 H873 0.960 1_556 S
C888 H874 0.960 1_556 S
C888 H875 0.960 . S
C888 C887 1.524 . S
C889 C886 1.403 . S
C889 C890 1.392 1_556 S
C889 C893 1.495 . S
C890 C889 1.392 1_554 S
C890 C891 1.385 1_655 S
C890 C892 1.478 . S
C891 H885 0.930 . S
C891 C887 1.400 1_554 S
C891 C890 1.385 1_455 S
C892 C890 1.478 . S
C892 C894 1.381 . S
C892 C898 1.383 . S
C893 C889 1.495 . S
C893 H899 0.959 . S
C893 H900 0.961 . S
C893 H901 0.960 1_556 S
C894 C892 1.381 . S
C894 C895 1.394 . S
C894 H902 0.930 . S
C895 C894 1.394 . S
C895 C896 1.383 . S
C895 H903 0.929 . S
C896 C895 1.383 . S
C896 C897 1.377 . S
C897 H881 0.930 . S
C897 C896 1.377 . S
C897 C898 1.379 . S
C898 H882 0.931 1_554 S
C898 C892 1.383 . S
C898 C897 1.379 . S
H899 C893 0.959 . S
H900 C893 0.961 . S
H901 C893 0.960 1_554 S
H902 C894 0.930 . S
H903 C895 0.929 . S
H904 C912 0.929 . S
H905 C914 0.930 . S
H906 C916 0.930 . S
H907 C919 0.929 . S
H908 C922 0.930 . S
H909 C924 0.960 . S
H910 C924 0.960 . S
H911 C924 0.960 . S
C912 H904 0.929 . S
C912 C913 1.377 . S
C912 C914 1.384 . S
C913 C912 1.377 . S
C913 C919 1.390 . S
C914 H905 0.930 . S
C914 C912 1.384 . S
C914 C915 1.372 . S
C915 C914 1.372 . S
C915 C916 1.400 . S
C915 C920 1.490 . S
C916 H906 0.930 . S
C916 C915 1.400 . S
C916 C919 1.386 . S
H917 C933 0.930 . S
H918 C934 0.931 . S
C919 H907 0.929 . S
C919 C913 1.390 . S
C919 C916 1.386 . S
C920 C915 1.490 . S
C920 C922 1.395 . S
C920 C923 1.403 . S
H921 C927 0.930 . S
C922 H908 0.930 . S
C922 C920 1.395 . S
C922 C925 1.403 . S
C923 C920 1.403 . S
C923 C924 1.524 . S
C923 C927 1.400 . S
C924 H909 0.960 . S
C924 H910 0.960 . S
C924 H911 0.960 . S
C924 C923 1.524 . S
C925 C922 1.403 . S
C925 C926 1.392 . S
C925 C929 1.495 . S
C926 C925 1.392 . S
C926 C927 1.385 . S
C926 C928 1.478 . S
C927 H921 0.930 . S
C927 C923 1.400 . S
C927 C926 1.385 . S
C928 C926 1.478 . S
C928 C930 1.381 . S
C928 C934 1.383 . S
C929 C925 1.495 . S
C929 H935 0.959 . S
C929 H936 0.961 . S
C929 H937 0.960 . S
C930 C928 1.381 . S
C930 C931 1.394 . S
C930 H938 0.930 . S
C931 C930 1.394 . S
C931 C932 1.383 . S
C931 H939 0.929 . S
C932 C931 1.383 . S
C932 C933 1.377 . S
C933 H917 0.930 . S
C933 C932 1.377 . S
C933 C934 1.379 . S
C934 H918 0.931 . S
C934 C928 1.383 . S
C934 C933 1.379 . S
H935 C929 0.959 . S
H936 C929 0.961 . S
H937 C929 0.960 . S
H938 C930 0.930 . S
H939 C931 0.929 . S
H940 C948 0.929 . S
H941 C950 0.930 . S
H942 C952 0.930 . S
H943 C955 0.929 . S
H944 C958 0.930 . S
H945 C960 0.960 . S
H946 C960 0.960 . S
H947 C960 0.960 . S
C948 H940 0.929 . S
C948 C949 1.377 . S
C948 C950 1.384 . S
C949 C948 1.377 . S
C949 C955 1.390 . S
C950 H941 0.930 . S
C950 C948 1.384 . S
C950 C951 1.372 . S
C951 C950 1.372 . S
C951 C952 1.400 . S
C951 C956 1.490 . S
C952 H942 0.930 . S
C952 C951 1.400 . S
C952 C955 1.386 . S
H953 C969 0.930 . S
H954 C970 0.931 . S
C955 H943 0.929 . S
C955 C949 1.390 . S
C955 C952 1.386 . S
C956 C951 1.490 . S
C956 C958 1.395 . S
C956 C959 1.390 1_655 S
H957 C963 0.930 . S
C958 H944 0.930 . S
C958 C956 1.395 . S
C958 C961 1.403 . S
C959 C956 1.390 1_455 S
C959 C960 1.529 . S
C959 C963 1.407 . S
C960 H945 0.960 . S
C960 H946 0.960 . S
C960 H947 0.960 . S
C960 C959 1.529 . S
C961 C958 1.403 . S
C961 C962 1.392 1_655 S
C961 C965 1.495 . S
C962 C961 1.392 1_455 S
C962 C963 1.385 . S
C962 C964 1.478 . S
C963 H957 0.930 . S
C963 C959 1.407 . S
C963 C962 1.385 . S
C964 C962 1.478 . S
C964 C966 1.381 . S
C964 C970 1.383 . S
C965 C961 1.495 . S
C965 H971 0.959 . S
C965 H972 0.961 . S
C965 H973 0.960 . S
C966 C964 1.381 . S
C966 C967 1.394 . S
C966 H974 0.930 . S
C967 C966 1.394 . S
C967 C968 1.383 . S
C967 H975 0.929 . S
C968 C967 1.383 . S
C968 C969 1.377 . S
C969 H953 0.930 . S
C969 C968 1.377 . S
C969 C970 1.379 . S
C970 H954 0.931 . S
C970 C964 1.383 . S
C970 C969 1.379 . S
H971 C965 0.959 . S
H972 C965 0.961 . S
H973 C965 0.960 . S
H974 C966 0.930 . S
H975 C967 0.929 . S
H976 C984 0.929 . S
H977 C986 0.930 . S
H978 C988 0.930 . S
H979 C991 0.929 . S
H980 C994 0.930 1_554 S
H981 C996 0.960 . S
H982 C996 0.960 . S
H983 C996 0.960 . S
C984 H976 0.929 . S
C984 C985 1.377 . S
C984 C986 1.384 . S
C985 C984 1.377 . S
C985 C991 1.390 . S
C986 H977 0.930 . S
C986 C984 1.384 . S
C986 C987 1.372 . S
C987 C986 1.372 . S
C987 C988 1.400 . S
C987 C992 1.490 . S
C988 H978 0.930 . S
C988 C987 1.400 . S
C988 C991 1.386 . S
H989 C1005 0.930 . S
H990 C1006 0.931 . S
C991 H979 0.929 . S
C991 C985 1.390 . S
C991 C988 1.386 . S
C992 C987 1.490 . S
C992 C994 1.395 . S
C992 C995 1.403 . S
H993 C999 0.930 . S
C994 H980 0.930 1_556 S
C994 C992 1.395 . S
C994 C997 1.403 1_556 S
C995 C992 1.403 . S
C995 C996 1.524 . S
C995 C999 1.400 . S
C996 H981 0.960 . S
C996 H982 0.960 . S
C996 H983 0.960 . S
C996 C995 1.524 . S
C997 C994 1.403 1_554 S
C997 C998 1.392 . S
C997 C1001 1.495 . S
C998 C997 1.392 . S
C998 C999 1.385 1_554 S
C998 C1000 1.478 . S
C999 H993 0.930 . S
C999 C995 1.400 . S
C999 C998 1.385 1_556 S
C1000 C998 1.478 . S
C1000 C1002 1.381 . S
C1000 C1006 1.383 . S
C1001 C997 1.495 . S
C1001 H1007 0.959 . S
C1001 H1008 0.961 . S
C1001 H1009 0.960 . S
C1002 C1000 1.381 . S
C1002 C1003 1.394 . S
C1002 H1010 0.930 . S
C1003 C1002 1.394 . S
C1003 C1004 1.383 . S
C1003 H1011 0.929 . S
C1004 C1003 1.383 . S
C1004 C1005 1.377 . S
C1005 H989 0.930 . S
C1005 C1004 1.377 . S
C1005 C1006 1.379 . S
C1006 H990 0.931 . S
C1006 C1000 1.383 . S
C1006 C1005 1.379 . S
H1007 C1001 0.959 . S
H1008 C1001 0.961 . S
H1009 C1001 0.960 . S
H1010 C1002 0.930 . S
H1011 C1003 0.929 . S
H1012 C1020 0.929 . S
H1013 C1022 0.930 . S
H1014 C1024 0.930 . S
H1015 C1027 0.929 . S
H1016 C1030 0.930 . S
H1017 C1032 0.960 . S
H1018 C1032 0.960 . S
H1019 C1032 0.960 . S
C1020 H1012 0.929 . S
C1020 C1021 1.377 . S
C1020 C1022 1.384 . S
C1021 C1020 1.377 . S
C1021 C1027 1.390 . S
C1022 H1013 0.930 . S
C1022 C1020 1.384 . S
C1022 C1023 1.372 . S
C1023 C1022 1.372 . S
C1023 C1024 1.400 . S
C1023 C1028 1.490 . S
C1024 H1014 0.930 . S
C1024 C1023 1.400 . S
C1024 C1027 1.386 . S
H1025 C1041 0.930 . S
H1026 C1042 0.931 . S
C1027 H1015 0.929 . S
C1027 C1021 1.390 . S
C1027 C1024 1.386 . S
C1028 C1023 1.490 . S
C1028 C1030 1.395 . S
C1028 C1031 1.403 . S
H1029 C1035 0.930 . S
C1030 H1016 0.930 . S
C1030 C1028 1.395 . S
C1030 C1033 1.403 . S
C1031 C1028 1.403 . S
C1031 C1032 1.524 . S
C1031 C1035 1.400 . S
C1032 H1017 0.960 . S
C1032 H1018 0.960 . S
C1032 H1019 0.960 . S
C1032 C1031 1.524 . S
C1033 C1030 1.403 . S
C1033 C1034 1.392 . S
C1033 C1037 1.495 . S
C1034 C1033 1.392 . S
C1034 C1035 1.385 . S
C1034 C1036 1.478 . S
C1035 H1029 0.930 . S
C1035 C1031 1.400 . S
C1035 C1034 1.385 . S
C1036 C1034 1.478 . S
C1036 C1038 1.381 . S
C1036 C1042 1.383 . S
C1037 C1033 1.495 . S
C1037 H1043 0.959 . S
C1037 H1044 0.961 . S
C1037 H1045 0.960 . S
C1038 C1036 1.381 . S
C1038 C1039 1.394 . S
C1038 H1046 0.930 . S
C1039 C1038 1.394 . S
C1039 C1040 1.383 . S
C1039 H1047 0.929 . S
C1040 C1039 1.383 . S
C1040 C1041 1.377 . S
C1041 H1025 0.930 . S
C1041 C1040 1.377 . S
C1041 C1042 1.379 . S
C1042 H1026 0.931 . S
C1042 C1036 1.383 . S
C1042 C1041 1.379 . S
H1043 C1037 0.959 . S
H1044 C1037 0.961 . S
H1045 C1037 0.960 . S
H1046 C1038 0.930 . S
H1047 C1039 0.929 . S
H1048 C1056 0.929 . S
H1049 C1058 0.930 . S
H1050 C1060 0.930 . S
H1051 C1063 0.929 . S
H1052 C1066 0.930 . S
H1053 C1068 0.960 . S
H1054 C1068 0.960 . S
H1055 C1068 0.960 . S
C1056 H1048 0.929 . S
C1056 C1057 1.377 . S
C1056 C1058 1.384 . S
C1057 C1056 1.377 . S
C1057 C1063 1.390 . S
C1058 H1049 0.930 . S
C1058 C1056 1.384 . S
C1058 C1059 1.372 . S
C1059 C1058 1.372 . S
C1059 C1060 1.400 . S
C1059 C1064 1.490 . S
C1060 H1050 0.930 . S
C1060 C1059 1.400 . S
C1060 C1063 1.386 . S
H1061 C1077 0.930 . S
H1062 C1078 0.931 . S
C1063 H1051 0.929 . S
C1063 C1057 1.390 . S
C1063 C1060 1.386 . S
C1064 C1059 1.490 . S
C1064 C1066 1.395 . S
C1064 C1067 1.403 . S
H1065 C1071 0.930 . S
C1066 H1052 0.930 . S
C1066 C1064 1.395 . S
C1066 C1069 1.403 . S
C1067 C1064 1.403 . S
C1067 C1068 1.524 . S
C1067 C1071 1.400 . S
C1068 H1053 0.960 . S
C1068 H1054 0.960 . S
C1068 H1055 0.960 . S
C1068 C1067 1.524 . S
C1069 C1066 1.403 . S
C1069 C1070 1.392 . S
C1069 C1073 1.495 . S
C1070 C1069 1.392 . S
C1070 C1071 1.385 . S
C1070 C1072 1.478 . S
C1071 H1065 0.930 . S
C1071 C1067 1.400 . S
C1071 C1070 1.385 . S
C1072 C1070 1.478 . S
C1072 C1074 1.381 . S
C1072 C1078 1.383 . S
C1073 C1069 1.495 . S
C1073 H1079 0.959 . S
C1073 H1080 0.961 . S
C1073 H1081 0.960 . S
C1074 C1072 1.381 . S
C1074 C1075 1.394 . S
C1074 H1082 0.930 . S
C1075 C1074 1.394 . S
C1075 C1076 1.383 . S
C1075 H1083 0.929 . S
C1076 C1075 1.383 . S
C1076 C1077 1.377 . S
C1077 H1061 0.930 . S
C1077 C1076 1.377 . S
C1077 C1078 1.379 . S
C1078 H1062 0.931 . S
C1078 C1072 1.383 . S
C1078 C1077 1.379 . S
H1079 C1073 0.959 . S
H1080 C1073 0.961 . S
H1081 C1073 0.960 . S
H1082 C1074 0.930 . S
H1083 C1075 0.929 . S
H1084 C1092 0.929 . S
H1085 C1094 0.930 . S
H1086 C1096 0.930 . S
H1087 C1099 0.929 . S
H1088 C1102 0.930 . S
H1089 C1104 0.960 . S
H1090 C1104 0.960 . S
H1091 C1104 0.960 . S
C1092 H1084 0.929 . S
C1092 C1093 1.377 . S
C1092 C1094 1.384 . S
C1093 C1092 1.377 . S
C1093 C1099 1.390 . S
C1094 H1085 0.930 . S
C1094 C1092 1.384 . S
C1094 C1095 1.372 . S
C1095 C1094 1.372 . S
C1095 C1096 1.400 . S
C1095 C1100 1.490 . S
C1096 H1086 0.930 . S
C1096 C1095 1.400 . S
C1096 C1099 1.386 . S
H1097 C1113 0.930 . S
H1098 C1114 0.931 . S
C1099 H1087 0.929 . S
C1099 C1093 1.390 . S
C1099 C1096 1.386 . S
C1100 C1095 1.490 . S
C1100 C1102 1.395 . S
C1100 C1103 1.403 . S
H1101 C1107 0.930 . S
C1102 H1088 0.930 . S
C1102 C1100 1.395 . S
C1102 C1105 1.403 . S
C1103 C1100 1.403 . S
C1103 C1104 1.524 . S
C1103 C1107 1.400 . S
C1104 H1089 0.960 . S
C1104 H1090 0.960 . S
C1104 H1091 0.960 . S
C1104 C1103 1.524 . S
C1105 C1102 1.403 . S
C1105 C1106 1.392 . S
C1105 C1109 1.495 . S
C1106 C1105 1.392 . S
C1106 C1107 1.385 . S
C1106 C1108 1.478 . S
C1107 H1101 0.930 . S
C1107 C1103 1.400 . S
C1107 C1106 1.385 . S
C1108 C1106 1.478 . S
C1108 C1110 1.381 . S
C1108 C1114 1.383 . S
C1109 C1105 1.495 . S
C1109 H1115 0.959 . S
C1109 H1116 0.961 . S
C1109 H1117 0.960 . S
C1110 C1108 1.381 . S
C1110 C1111 1.394 . S
C1110 H1118 0.930 . S
C1111 C1110 1.394 . S
C1111 C1112 1.383 . S
C1111 H1119 0.929 . S
C1112 C1111 1.383 . S
C1112 C1113 1.377 . S
C1113 H1097 0.930 . S
C1113 C1112 1.377 . S
C1113 C1114 1.379 . S
C1114 H1098 0.931 . S
C1114 C1108 1.383 . S
C1114 C1113 1.379 . S
H1115 C1109 0.959 . S
H1116 C1109 0.961 . S
H1117 C1109 0.960 . S
H1118 C1110 0.930 . S
H1119 C1111 0.929 . S
H1120 C1128 0.929 . S
H1121 C1130 0.930 . S
H1122 C1132 0.930 . S
H1123 C1135 0.929 . S
H1124 C1138 0.930 . S
H1125 C1140 0.960 . S
H1126 C1140 0.960 . S
H1127 C1140 0.960 . S
C1128 H1120 0.929 . S
C1128 C1129 1.377 . S
C1128 C1130 1.384 . S
C1129 C1128 1.377 . S
C1129 C1135 1.390 . S
C1130 H1121 0.930 . S
C1130 C1128 1.384 . S
C1130 C1131 1.372 . S
C1131 C1130 1.372 . S
C1131 C1132 1.400 . S
C1131 C1136 1.490 . S
C1132 H1122 0.930 . S
C1132 C1131 1.400 . S
C1132 C1135 1.386 . S
H1133 C1149 0.930 . S
H1134 C1150 0.931 . S
C1135 H1123 0.929 . S
C1135 C1129 1.390 . S
C1135 C1132 1.386 . S
C1136 C1131 1.490 . S
C1136 C1138 1.395 . S
C1136 C1139 1.403 . S
H1137 C1143 0.930 . S
C1138 H1124 0.930 . S
C1138 C1136 1.395 . S
C1138 C1141 1.403 1_545 S
C1139 C1136 1.403 . S
C1139 C1140 1.524 . S
C1139 C1143 1.400 . S
C1140 H1125 0.960 . S
C1140 H1126 0.960 . S
C1140 H1127 0.960 . S
C1140 C1139 1.524 . S
C1141 C1138 1.403 1_565 S
C1141 C1142 1.392 . S
C1141 C1145 1.495 . S
C1142 C1141 1.392 . S
C1142 C1143 1.385 1_565 S
C1142 C1144 1.478 . S
C1143 H1137 0.930 . S
C1143 C1139 1.400 . S
C1143 C1142 1.385 1_545 S
C1144 C1142 1.478 . S
C1144 C1146 1.381 . S
C1144 C1150 1.383 . S
C1145 C1141 1.495 . S
C1145 H1151 0.959 . S
C1145 H1152 0.961 . S
C1145 H1153 0.960 . S
C1146 C1144 1.381 . S
C1146 C1147 1.394 . S
C1146 H1154 0.930 . S
C1147 C1146 1.394 . S
C1147 C1148 1.383 . S
C1147 H1155 0.929 . S
C1148 C1147 1.383 . S
C1148 C1149 1.377 . S
C1149 H1133 0.930 . S
C1149 C1148 1.377 . S
C1149 C1150 1.379 . S
C1150 H1134 0.931 . S
C1150 C1144 1.383 . S
C1150 C1149 1.379 . S
H1151 C1145 0.959 . S
H1152 C1145 0.961 . S
H1153 C1145 0.960 . S
H1154 C1146 0.930 . S
H1155 C1147 0.929 . S
H1156 C1164 0.929 . S
H1157 C1166 0.930 . S
H1158 C1168 0.930 . S
H1159 C1171 0.929 . S
H1160 C1174 0.930 . S
H1161 C1176 0.960 . S
H1162 C1176 0.960 . S
H1163 C1176 0.960 . S
C1164 H1156 0.929 . S
C1164 C1165 1.377 . S
C1164 C1166 1.384 . S
C1165 C1164 1.377 . S
C1165 C1171 1.390 . S
C1166 H1157 0.930 . S
C1166 C1164 1.384 . S
C1166 C1167 1.372 . S
C1167 C1166 1.372 . S
C1167 C1168 1.400 . S
C1167 C1172 1.490 . S
C1168 H1158 0.930 . S
C1168 C1167 1.400 . S
C1168 C1171 1.386 . S
H1169 C1185 0.930 . S
H1170 C1186 0.931 . S
C1171 H1159 0.929 . S
C1171 C1165 1.390 . S
C1171 C1168 1.386 . S
C1172 C1167 1.490 . S
C1172 C1174 1.395 . S
C1172 C1175 1.403 . S
H1173 C1179 0.930 . S
C1174 H1160 0.930 . S
C1174 C1172 1.395 . S
C1174 C1177 1.403 . S
C1175 C1172 1.403 . S
C1175 C1176 1.524 . S
C1175 C1179 1.400 . S
C1176 H1161 0.960 . S
C1176 H1162 0.960 . S
C1176 H1163 0.960 . S
C1176 C1175 1.524 . S
C1177 C1174 1.403 . S
C1177 C1178 1.392 . S
C1177 C1181 1.495 . S
C1178 C1177 1.392 . S
C1178 C1179 1.385 . S
C1178 C1180 1.478 . S
C1179 H1173 0.930 . S
C1179 C1175 1.400 . S
C1179 C1178 1.385 . S
C1180 C1178 1.478 . S
C1180 C1182 1.381 . S
C1180 C1186 1.383 . S
C1181 C1177 1.495 . S
C1181 H1187 0.959 . S
C1181 H1188 0.961 . S
C1181 H1189 0.960 . S
C1182 C1180 1.381 . S
C1182 C1183 1.394 . S
C1182 H1190 0.930 . S
C1183 C1182 1.394 . S
C1183 C1184 1.383 . S
C1183 H1191 0.929 . S
C1184 C1183 1.383 . S
C1184 C1185 1.377 . S
C1185 H1169 0.930 . S
C1185 C1184 1.377 . S
C1185 C1186 1.379 . S
C1186 H1170 0.931 . S
C1186 C1180 1.383 . S
C1186 C1185 1.379 . S
H1187 C1181 0.959 . S
H1188 C1181 0.961 . S
H1189 C1181 0.960 . S
H1190 C1182 0.930 . S
H1191 C1183 0.929 . S
H1192 C1200 0.929 . S
H1193 C1202 0.930 . S
H1194 C1204 0.930 . S
H1195 C1207 0.929 . S
H1196 C1210 0.930 . S
H1197 C1212 0.960 . S
H1198 C1212 0.960 . S
H1199 C1212 0.960 . S
C1200 H1192 0.929 . S
C1200 C1201 1.377 . S
C1200 C1202 1.384 . S
C1201 C1200 1.377 . S
C1201 C1207 1.390 . S
C1202 H1193 0.930 . S
C1202 C1200 1.384 . S
C1202 C1203 1.372 . S
C1203 C1202 1.372 . S
C1203 C1204 1.400 . S
C1203 C1208 1.461 1_565 S
C1204 H1194 0.930 . S
C1204 C1203 1.400 . S
C1204 C1207 1.386 . S
H1205 C1221 0.930 . S
H1206 C1222 0.931 . S
C1207 H1195 0.929 . S
C1207 C1201 1.390 . S
C1207 C1204 1.386 . S
C1208 C1203 1.461 1_545 S
C1208 C1210 1.434 . S
C1208 C1211 1.394 1_545 S
H1209 C1215 0.930 . S
C1210 H1196 0.930 . S
C1210 C1208 1.434 . S
C1210 C1213 1.403 . S
C1211 C1208 1.394 1_565 S
C1211 C1212 1.524 . S
C1211 C1215 1.400 1_565 S
C1212 H1197 0.960 . S
C1212 H1198 0.960 . S
C1212 H1199 0.960 . S
C1212 C1211 1.524 . S
C1213 C1210 1.403 . S
C1213 C1214 1.392 . S
C1213 C1217 1.495 . S
C1214 C1213 1.392 . S
C1214 C1215 1.385 . S
C1214 C1216 1.478 . S
C1215 H1209 0.930 . S
C1215 C1211 1.400 1_545 S
C1215 C1214 1.385 . S
C1216 C1214 1.478 . S
C1216 C1218 1.381 . S
C1216 C1222 1.383 . S
C1217 C1213 1.495 . S
C1217 H1223 0.959 . S
C1217 H1224 0.961 . S
C1217 H1225 0.960 . S
C1218 C1216 1.381 . S
C1218 C1219 1.394 . S
C1218 H1226 0.930 . S
C1219 C1218 1.394 . S
C1219 C1220 1.383 . S
C1219 H1227 0.929 . S
C1220 C1219 1.383 . S
C1220 C1221 1.377 . S
C1221 H1205 0.930 . S
C1221 C1220 1.377 . S
C1221 C1222 1.379 . S
C1222 H1206 0.931 . S
C1222 C1216 1.383 . S
C1222 C1221 1.379 . S
H1223 C1217 0.959 . S
H1224 C1217 0.961 . S
H1225 C1217 0.960 . S
H1226 C1218 0.930 . S
H1227 C1219 0.929 . S
H1228 C1236 0.929 . S
H1229 C1238 0.930 . S
H1230 C1240 0.930 . S
H1231 C1243 0.929 . S
H1232 C1246 0.930 . S
H1233 C1248 0.960 . S
H1234 C1248 0.960 . S
H1235 C1248 0.960 . S
C1236 H1228 0.929 . S
C1236 C1237 1.377 . S
C1236 C1238 1.384 . S
C1237 C1236 1.377 . S
C1237 C1243 1.390 . S
C1238 H1229 0.930 . S
C1238 C1236 1.384 . S
C1238 C1239 1.372 . S
C1239 C1238 1.372 . S
C1239 C1240 1.400 . S
C1239 C1244 1.490 . S
C1240 H1230 0.930 . S
C1240 C1239 1.400 . S
C1240 C1243 1.386 . S
H1241 C1257 0.930 . S
H1242 C1258 0.931 . S
C1243 H1231 0.929 . S
C1243 C1237 1.390 . S
C1243 C1240 1.386 . S
C1244 C1239 1.490 . S
C1244 C1246 1.395 1_556 S
C1244 C1247 1.403 . S
H1245 C1251 0.930 . S
C1246 H1232 0.930 . S
C1246 C1244 1.395 1_554 S
C1246 C1249 1.403 . S
C1247 C1244 1.403 . S
C1247 C1248 1.524 . S
C1247 C1251 1.400 1_556 S
C1248 H1233 0.960 . S
C1248 H1234 0.960 . S
C1248 H1235 0.960 . S
C1248 C1247 1.524 . S
C1249 C1246 1.403 . S
C1249 C1250 1.392 . S
C1249 C1253 1.495 . S
C1250 C1249 1.392 . S
C1250 C1251 1.385 . S
C1250 C1252 1.478 . S
C1251 H1245 0.930 . S
C1251 C1247 1.400 1_554 S
C1251 C1250 1.385 . S
C1252 C1250 1.478 . S
C1252 C1254 1.381 . S
C1252 C1258 1.383 . S
C1253 C1249 1.495 . S
C1253 H1259 0.959 . S
C1253 H1260 0.961 . S
C1253 H1261 0.960 . S
C1254 C1252 1.381 . S
C1254 C1255 1.394 . S
C1254 H1262 0.930 . S
C1255 C1254 1.394 . S
C1255 C1256 1.383 . S
C1255 H1263 0.929 . S
C1256 C1255 1.383 . S
C1256 C1257 1.377 . S
C1257 H1241 0.930 . S
C1257 C1256 1.377 . S
C1257 C1258 1.379 . S
C1258 H1242 0.931 . S
C1258 C1252 1.383 . S
C1258 C1257 1.379 . S
H1259 C1253 0.959 . S
H1260 C1253 0.961 . S
H1261 C1253 0.960 . S
H1262 C1254 0.930 . S
H1263 C1255 0.929 . S
H1264 C1272 0.929 . S
H1265 C1274 0.930 . S
H1266 C1276 0.930 . S
H1267 C1279 0.929 . S
H1268 C1282 0.930 . S
H1269 C1284 0.948 1_655 S
H1270 C1284 0.958 1_655 S
H1271 C1284 0.973 . S
C1272 H1264 0.929 . S
C1272 C1273 1.377 . S
C1272 C1274 1.384 . S
C1273 C1272 1.377 . S
C1273 C1279 1.390 . S
C1274 H1265 0.930 . S
C1274 C1272 1.384 . S
C1274 C1275 1.372 . S
C1275 C1274 1.372 . S
C1275 C1276 1.400 . S
C1275 C1280 1.490 . S
C1276 H1266 0.930 . S
C1276 C1275 1.400 . S
C1276 C1279 1.386 . S
H1277 C1293 0.930 . S
H1278 C1294 0.931 . S
C1279 H1267 0.929 . S
C1279 C1273 1.390 . S
C1279 C1276 1.386 . S
C1280 C1275 1.490 . S
C1280 C1282 1.395 . S
C1280 C1283 1.403 . S
H1281 C1287 0.930 . S
C1282 H1268 0.930 . S
C1282 C1280 1.395 . S
C1282 C1285 1.403 . S
C1283 C1280 1.403 . S
C1283 C1284 1.525 . S
C1283 C1287 1.400 1_455 S
C1284 H1269 0.948 1_455 S
C1284 H1270 0.958 1_455 S
C1284 H1271 0.973 . S
C1284 C1283 1.525 . S
C1285 C1282 1.403 . S
C1285 C1286 1.392 1_455 S
C1285 C1289 1.495 . S
C1286 C1285 1.392 1_655 S
C1286 C1287 1.385 . S
C1286 C1288 1.478 . S
C1287 H1281 0.930 . S
C1287 C1283 1.400 1_655 S
C1287 C1286 1.385 . S
C1288 C1286 1.478 . S
C1288 C1290 1.381 . S
C1288 C1294 1.383 . S
C1289 C1285 1.495 . S
C1289 H1295 0.959 . S
C1289 H1296 0.961 . S
C1289 H1297 0.960 1_455 S
C1290 C1288 1.381 . S
C1290 C1291 1.394 . S
C1290 H1298 0.930 . S
C1291 C1290 1.394 . S
C1291 C1292 1.383 . S
C1291 H1299 0.929 . S
C1292 C1291 1.383 . S
C1292 C1293 1.377 . S
C1293 H1277 0.930 . S
C1293 C1292 1.377 . S
C1293 C1294 1.379 . S
C1294 H1278 0.931 . S
C1294 C1288 1.383 . S
C1294 C1293 1.379 . S
H1295 C1289 0.959 . S
H1296 C1289 0.961 . S
H1297 C1289 0.960 1_655 S
H1298 C1290 0.930 . S
H1299 C1291 0.929 . S
H1300 C1308 0.929 . S
H1301 C1310 0.930 . S
H1302 C1312 0.930 . S
H1303 C1315 0.929 . S
H1304 C1318 0.930 . S
H1305 C1320 0.960 . S
H1306 C1320 0.960 . S
H1307 C1320 0.960 . S
C1308 H1300 0.929 . S
C1308 C1309 1.377 . S
C1308 C1310 1.384 . S
C1309 C1308 1.377 . S
C1309 C1315 1.390 . S
C1310 H1301 0.930 . S
C1310 C1308 1.384 . S
C1310 C1311 1.372 . S
C1311 C1310 1.372 . S
C1311 C1312 1.400 . S
C1311 C1316 1.490 . S
C1312 H1302 0.930 . S
C1312 C1311 1.400 . S
C1312 C1315 1.386 . S
H1313 C1329 0.930 . S
H1314 C1330 0.931 . S
C1315 H1303 0.929 . S
C1315 C1309 1.390 . S
C1315 C1312 1.386 . S
C1316 C1311 1.490 . S
C1316 C1318 1.395 . S
C1316 C1319 1.403 . S
H1317 C1323 0.930 . S
C1318 H1304 0.930 . S
C1318 C1316 1.395 . S
C1318 C1321 1.403 . S
C1319 C1316 1.403 . S
C1319 C1320 1.524 . S
C1319 C1323 1.400 . S
C1320 H1305 0.960 . S
C1320 H1306 0.960 . S
C1320 H1307 0.960 . S
C1320 C1319 1.524 . S
C1321 C1318 1.403 . S
C1321 C1322 1.392 . S
C1321 C1325 1.495 . S
C1322 C1321 1.392 . S
C1322 C1323 1.385 . S
C1322 C1324 1.478 . S
C1323 H1317 0.930 . S
C1323 C1319 1.400 . S
C1323 C1322 1.385 . S
C1324 C1322 1.478 . S
C1324 C1326 1.381 . S
C1324 C1330 1.383 . S
C1325 C1321 1.495 . S
C1325 H1331 0.959 . S
C1325 H1332 0.961 . S
C1325 H1333 0.960 . S
C1326 C1324 1.381 . S
C1326 C1327 1.394 . S
C1326 H1334 0.930 . S
C1327 C1326 1.394 . S
C1327 C1328 1.383 . S
C1327 H1335 0.929 . S
C1328 C1327 1.383 . S
C1328 C1329 1.377 . S
C1329 H1313 0.930 . S
C1329 C1328 1.377 . S
C1329 C1330 1.379 . S
C1330 H1314 0.931 . S
C1330 C1324 1.383 . S
C1330 C1329 1.379 . S
H1331 C1325 0.959 . S
H1332 C1325 0.961 . S
H1333 C1325 0.960 . S
H1334 C1326 0.930 . S
H1335 C1327 0.929 . S
H1336 C1344 0.929 . S
H1337 C1346 0.930 . S
H1338 C1348 0.930 . S
H1339 C1351 0.929 . S
H1340 C1354 0.930 . S
H1341 C1356 0.960 . S
H1342 C1356 0.960 . S
H1343 C1356 0.960 . S
C1344 H1336 0.929 . S
C1344 C1345 1.377 . S
C1344 C1346 1.384 . S
C1345 C1344 1.377 . S
C1345 C1351 1.390 . S
C1346 H1337 0.930 . S
C1346 C1344 1.384 . S
C1346 C1347 1.372 . S
C1347 C1346 1.372 . S
C1347 C1348 1.400 . S
C1347 C1352 1.490 . S
C1348 H1338 0.930 . S
C1348 C1347 1.400 . S
C1348 C1351 1.386 . S
H1349 C1365 0.930 . S
H1350 C1366 0.931 . S
C1351 H1339 0.929 . S
C1351 C1345 1.390 . S
C1351 C1348 1.386 . S
C1352 C1347 1.490 . S
C1352 C1354 1.395 . S
C1352 C1355 1.403 . S
H1353 C1359 0.930 . S
C1354 H1340 0.930 . S
C1354 C1352 1.395 . S
C1354 C1357 1.403 1_655 S
C1355 C1352 1.403 . S
C1355 C1356 1.524 . S
C1355 C1359 1.400 1_655 S
C1356 H1341 0.960 . S
C1356 H1342 0.960 . S
C1356 H1343 0.960 . S
C1356 C1355 1.524 . S
C1357 C1354 1.403 1_455 S
C1357 C1358 1.392 . S
C1357 C1361 1.495 . S
C1358 C1357 1.392 . S
C1358 C1359 1.385 . S
C1358 C1360 1.478 . S
C1359 H1353 0.930 . S
C1359 C1355 1.400 1_455 S
C1359 C1358 1.385 . S
C1360 C1358 1.478 . S
C1360 C1362 1.381 . S
C1360 C1366 1.383 . S
C1361 C1357 1.495 . S
C1361 H1367 0.959 . S
C1361 H1368 0.961 . S
C1361 H1369 0.960 . S
C1362 C1360 1.381 . S
C1362 C1363 1.394 . S
C1362 H1370 0.930 . S
C1363 C1362 1.394 . S
C1363 C1364 1.383 . S
C1363 H1371 0.929 . S
C1364 C1363 1.383 . S
C1364 C1365 1.377 . S
C1365 H1349 0.930 . S
C1365 C1364 1.377 . S
C1365 C1366 1.379 . S
C1366 H1350 0.931 . S
C1366 C1360 1.383 . S
C1366 C1365 1.379 . S
H1367 C1361 0.959 . S
H1368 C1361 0.961 . S
H1369 C1361 0.960 . S
H1370 C1362 0.930 . S
H1371 C1363 0.929 . S
H1372 C1380 0.929 . S
H1373 C1382 0.930 . S
H1374 C1384 0.930 . S
H1375 C1387 0.929 . S
H1376 C1390 0.930 . S
H1377 C1392 0.960 . S
H1378 C1392 0.960 . S
H1379 C1392 0.960 . S
C1380 H1372 0.929 . S
C1380 C1381 1.377 . S
C1380 C1382 1.384 . S
C1381 C1380 1.377 . S
C1381 C1387 1.390 . S
C1382 H1373 0.930 . S
C1382 C1380 1.384 . S
C1382 C1383 1.372 . S
C1383 C1382 1.372 . S
C1383 C1384 1.400 . S
C1383 C1388 1.490 . S
C1384 H1374 0.930 . S
C1384 C1383 1.400 . S
C1384 C1387 1.386 . S
H1385 C1401 0.930 . S
H1386 C1402 0.931 . S
C1387 H1375 0.929 . S
C1387 C1381 1.390 . S
C1387 C1384 1.386 . S
C1388 C1383 1.490 . S
C1388 C1390 1.395 . S
C1388 C1391 1.403 . S
H1389 C1395 0.930 . S
C1390 H1376 0.930 . S
C1390 C1388 1.395 . S
C1390 C1393 1.403 . S
C1391 C1388 1.403 . S
C1391 C1392 1.524 . S
C1391 C1395 1.400 . S
C1392 H1377 0.960 . S
C1392 H1378 0.960 . S
C1392 H1379 0.960 . S
C1392 C1391 1.524 . S
C1393 C1390 1.403 . S
C1393 C1394 1.392 . S
C1393 C1397 1.495 . S
C1394 C1393 1.392 . S
C1394 C1395 1.385 . S
C1394 C1396 1.478 . S
C1395 H1389 0.930 . S
C1395 C1391 1.400 . S
C1395 C1394 1.385 . S
C1396 C1394 1.478 . S
C1396 C1398 1.381 . S
C1396 C1402 1.383 . S
C1397 C1393 1.495 . S
C1397 H1403 0.959 . S
C1397 H1404 0.961 . S
C1397 H1405 0.960 . S
C1398 C1396 1.381 . S
C1398 C1399 1.394 . S
C1398 H1406 0.930 . S
C1399 C1398 1.394 . S
C1399 C1400 1.383 . S
C1399 H1407 0.929 . S
C1400 C1399 1.383 . S
C1400 C1401 1.377 . S
C1401 H1385 0.930 . S
C1401 C1400 1.377 . S
C1401 C1402 1.379 . S
C1402 H1386 0.931 . S
C1402 C1396 1.383 . S
C1402 C1401 1.379 . S
H1403 C1397 0.959 . S
H1404 C1397 0.961 . S
H1405 C1397 0.960 . S
H1406 C1398 0.930 . S
H1407 C1399 0.929 . S
H1408 C1416 0.929 . S
H1409 C1418 0.930 . S
H1410 C1420 0.930 . S
H1411 C1423 0.929 . S
H1412 C1426 0.930 . S
H1413 C1428 0.960 . S
H1414 C1428 0.960 . S
H1415 C1428 0.960 . S
C1416 H1408 0.929 . S
C1416 C1417 1.377 . S
C1416 C1418 1.384 . S
C1417 C1416 1.377 . S
C1417 C1423 1.390 . S
C1418 H1409 0.930 . S
C1418 C1416 1.384 . S
C1418 C1419 1.372 . S
C1419 C1418 1.372 . S
C1419 C1420 1.400 . S
C1419 C1424 1.490 . S
C1420 H1410 0.930 . S
C1420 C1419 1.400 . S
C1420 C1423 1.386 . S
H1421 C1437 0.930 . S
H1422 C1438 0.931 . S
C1423 H1411 0.929 . S
C1423 C1417 1.390 . S
C1423 C1420 1.386 . S
C1424 C1419 1.490 . S
C1424 C1426 1.395 . S
C1424 C1427 1.403 1_545 S
H1425 C1431 0.930 . S
C1426 H1412 0.930 . S
C1426 C1424 1.395 . S
C1426 C1429 1.403 . S
C1427 C1424 1.403 1_565 S
C1427 C1428 1.524 . S
C1427 C1431 1.400 . S
C1428 H1413 0.960 . S
C1428 H1414 0.960 . S
C1428 H1415 0.960 . S
C1428 C1427 1.524 . S
C1429 C1426 1.403 . S
C1429 C1430 1.392 1_545 S
C1429 C1433 1.495 . S
C1430 C1429 1.392 1_565 S
C1430 C1431 1.385 . S
C1430 C1432 1.478 . S
C1431 H1425 0.930 . S
C1431 C1427 1.400 . S
C1431 C1430 1.385 . S
C1432 C1430 1.478 . S
C1432 C1434 1.381 . S
C1432 C1438 1.383 . S
C1433 C1429 1.495 . S
C1433 H1439 0.959 . S
C1433 H1440 0.961 . S
C1433 H1441 0.960 . S
C1434 C1432 1.381 . S
C1434 C1435 1.394 . S
C1434 H1442 0.930 . S
C1435 C1434 1.394 . S
C1435 C1436 1.383 . S
C1435 H1443 0.929 . S
C1436 C1435 1.383 . S
C1436 C1437 1.377 . S
C1437 H1421 0.930 . S
C1437 C1436 1.377 . S
C1437 C1438 1.379 . S
C1438 H1422 0.931 . S
C1438 C1432 1.383 . S
C1438 C1437 1.379 . S
H1439 C1433 0.959 . S
H1440 C1433 0.961 . S
H1441 C1433 0.960 . S
H1442 C1434 0.930 . S
H1443 C1435 0.929 . S
H1444 C1452 0.929 . S
H1445 C1454 0.930 . S
H1446 C1456 0.930 . S
H1447 C1459 0.929 . S
H1448 C1462 0.930 . S
H1449 C1464 0.960 . S
H1450 C1464 0.960 . S
H1451 C1464 0.960 . S
C1452 H1444 0.929 . S
C1452 C1453 1.377 . S
C1452 C1454 1.384 . S
C1453 C1452 1.377 . S
C1453 C1459 1.390 . S
C1454 H1445 0.930 . S
C1454 C1452 1.384 . S
C1454 C1455 1.372 . S
C1455 C1454 1.372 . S
C1455 C1456 1.400 . S
C1455 C1460 1.490 . S
C1456 H1446 0.930 . S
C1456 C1455 1.400 . S
C1456 C1459 1.386 . S
H1457 C1473 0.930 . S
H1458 C1474 0.931 . S
C1459 H1447 0.929 . S
C1459 C1453 1.390 . S
C1459 C1456 1.386 . S
C1460 C1455 1.490 . S
C1460 C1462 1.395 . S
C1460 C1463 1.403 . S
H1461 C1467 0.930 . S
C1462 H1448 0.930 . S
C1462 C1460 1.395 . S
C1462 C1465 1.403 . S
C1463 C1460 1.403 . S
C1463 C1464 1.524 . S
C1463 C1467 1.400 . S
C1464 H1449 0.960 . S
C1464 H1450 0.960 . S
C1464 H1451 0.960 . S
C1464 C1463 1.524 . S
C1465 C1462 1.403 . S
C1465 C1466 1.392 . S
C1465 C1469 1.495 . S
C1466 C1465 1.392 . S
C1466 C1467 1.385 . S
C1466 C1468 1.478 . S
C1467 H1461 0.930 . S
C1467 C1463 1.400 . S
C1467 C1466 1.385 . S
C1468 C1466 1.478 . S
C1468 C1470 1.381 . S
C1468 C1474 1.383 . S
C1469 C1465 1.495 . S
C1469 H1475 0.959 . S
C1469 H1476 0.961 . S
C1469 H1477 0.960 . S
C1470 C1468 1.381 . S
C1470 C1471 1.394 . S
C1470 H1478 0.930 . S
C1471 C1470 1.394 . S
C1471 C1472 1.383 . S
C1471 H1479 0.929 . S
C1472 C1471 1.383 . S
C1472 C1473 1.377 . S
C1473 H1457 0.930 . S
C1473 C1472 1.377 . S
C1473 C1474 1.379 . S
C1474 H1458 0.931 . S
C1474 C1468 1.383 . S
C1474 C1473 1.379 . S
H1475 C1469 0.959 . S
H1476 C1469 0.961 . S
H1477 C1469 0.960 . S
H1478 C1470 0.930 . S
H1479 C1471 0.929 . S
H1480 C1488 0.929 . S
H1481 C1490 0.930 . S
H1482 C1492 0.930 . S
H1483 C1495 0.929 . S
H1484 C1498 0.930 . S
H1485 C1500 0.960 . S
H1486 C1500 0.960 . S
H1487 C1500 0.960 1_545 S
C1488 H1480 0.929 . S
C1488 C1489 1.377 . S
C1488 C1490 1.384 . S
C1489 C1488 1.377 . S
C1489 C1495 1.390 . S
C1490 H1481 0.930 . S
C1490 C1488 1.384 . S
C1490 C1491 1.372 . S
C1491 C1490 1.372 . S
C1491 C1492 1.400 . S
C1491 C1496 1.490 . S
C1492 H1482 0.930 . S
C1492 C1491 1.400 . S
C1492 C1495 1.386 . S
H1493 C1509 0.930 . S
H1494 C1510 0.931 . S
C1495 H1483 0.929 . S
C1495 C1489 1.390 . S
C1495 C1492 1.386 . S
C1496 C1491 1.490 . S
C1496 C1498 1.395 . S
C1496 C1499 1.403 1_545 S
H1497 C1503 0.930 . S
C1498 H1484 0.930 . S
C1498 C1496 1.395 . S
C1498 C1501 1.403 1_545 S
C1499 C1496 1.403 1_565 S
C1499 C1500 1.524 . S
C1499 C1503 1.400 . S
C1500 H1485 0.960 . S
C1500 H1486 0.960 . S
C1500 H1487 0.960 1_565 S
C1500 C1499 1.524 . S
C1501 C1498 1.403 1_565 S
C1501 C1502 1.392 . S
C1501 C1505 1.495 . S
C1502 C1501 1.392 . S
C1502 C1503 1.385 . S
C1502 C1504 1.478 . S
C1503 H1497 0.930 . S
C1503 C1499 1.400 . S
C1503 C1502 1.385 . S
C1504 C1502 1.478 . S
C1504 C1506 1.381 . S
C1504 C1510 1.383 . S
C1505 C1501 1.495 . S
C1505 H1511 0.959 1_565 S
C1505 H1512 0.961 . S
C1505 H1513 0.960 . S
C1506 C1504 1.381 . S
C1506 C1507 1.394 . S
C1506 H1514 0.930 . S
C1507 C1506 1.394 . S
C1507 C1508 1.383 . S
C1507 H1515 0.929 . S
C1508 C1507 1.383 . S
C1508 C1509 1.377 . S
C1509 H1493 0.930 . S
C1509 C1508 1.377 . S
C1509 C1510 1.379 . S
C1510 H1494 0.931 . S
C1510 C1504 1.383 . S
C1510 C1509 1.379 . S
H1511 C1505 0.959 1_545 S
H1512 C1505 0.961 . S
H1513 C1505 0.960 . S
H1514 C1506 0.930 . S
H1515 C1507 0.929 . S
H1516 C1524 0.929 . S
H1517 C1526 0.930 . S
H1518 C1528 0.930 . S
H1519 C1531 0.929 . S
H1520 C1534 0.930 . S
H1521 C1536 0.960 . S
H1522 C1536 0.960 . S
H1523 C1536 0.960 . S
C1524 H1516 0.929 . S
C1524 C1525 1.377 . S
C1524 C1526 1.384 . S
C1525 C1524 1.377 . S
C1525 C1531 1.390 . S
C1526 H1517 0.930 . S
C1526 C1524 1.384 . S
C1526 C1527 1.372 . S
C1527 C1526 1.372 . S
C1527 C1528 1.400 . S
C1527 C1532 1.490 . S
C1528 H1518 0.930 . S
C1528 C1527 1.400 . S
C1528 C1531 1.386 . S
H1529 C1545 0.930 . S
H1530 C1546 0.931 . S
C1531 H1519 0.929 . S
C1531 C1525 1.390 . S
C1531 C1528 1.386 . S
C1532 C1527 1.490 . S
C1532 C1534 1.395 1_554 S
C1532 C1535 1.403 . S
H1533 C1539 0.930 . S
C1534 H1520 0.930 . S
C1534 C1532 1.395 1_556 S
C1534 C1537 1.403 . S
C1535 C1532 1.403 . S
C1535 C1536 1.524 . S
C1535 C1539 1.400 1_554 S
C1536 H1521 0.960 . S
C1536 H1522 0.960 . S
C1536 H1523 0.960 . S
C1536 C1535 1.524 . S
C1537 C1534 1.403 . S
C1537 C1538 1.392 . S
C1537 C1541 1.495 . S
C1538 C1537 1.392 . S
C1538 C1539 1.385 . S
C1538 C1540 1.478 . S
C1539 H1533 0.930 . S
C1539 C1535 1.400 1_556 S
C1539 C1538 1.385 . S
C1540 C1538 1.478 . S
C1540 C1542 1.381 . S
C1540 C1546 1.383 . S
C1541 C1537 1.495 . S
C1541 H1547 0.959 . S
C1541 H1548 0.961 . S
C1541 H1549 0.960 . S
C1542 C1540 1.381 . S
C1542 C1543 1.394 . S
C1542 H1550 0.930 . S
C1543 C1542 1.394 . S
C1543 C1544 1.383 . S
C1543 H1551 0.929 . S
C1544 C1543 1.383 . S
C1544 C1545 1.377 . S
C1545 H1529 0.930 . S
C1545 C1544 1.377 . S
C1545 C1546 1.379 . S
C1546 H1530 0.931 . S
C1546 C1540 1.383 . S
C1546 C1545 1.379 . S
H1547 C1541 0.959 . S
H1548 C1541 0.961 . S
H1549 C1541 0.960 . S
H1550 C1542 0.930 . S
H1551 C1543 0.929 . S
H1552 C1560 0.929 . S
H1553 C1562 0.930 . S
H1554 C1564 0.930 . S
H1555 C1567 0.929 . S
H1556 C1570 0.930 . S
H1557 C1572 0.960 . S
H1558 C1572 0.960 . S
H1559 C1572 0.960 . S
C1560 H1552 0.929 . S
C1560 C1561 1.377 . S
C1560 C1562 1.384 . S
C1561 C1560 1.377 . S
C1561 C1567 1.390 . S
C1562 H1553 0.930 . S
C1562 C1560 1.384 . S
C1562 C1563 1.372 . S
C1563 C1562 1.372 . S
C1563 C1564 1.400 . S
C1563 C1568 1.490 . S
C1564 H1554 0.930 . S
C1564 C1563 1.400 . S
C1564 C1567 1.386 . S
H1565 C1581 0.930 . S
H1566 C1582 0.931 . S
C1567 H1555 0.929 . S
C1567 C1561 1.390 . S
C1567 C1564 1.386 . S
C1568 C1563 1.490 . S
C1568 C1570 1.395 . S
C1568 C1571 1.403 1_455 S
H1569 C1575 0.930 . S
C1570 H1556 0.930 . S
C1570 C1568 1.395 . S
C1570 C1573 1.403 . S
C1571 C1568 1.403 1_655 S
C1571 C1572 1.524 . S
C1571 C1575 1.400 . S
C1572 H1557 0.960 . S
C1572 H1558 0.960 . S
C1572 H1559 0.960 . S
C1572 C1571 1.524 . S
C1573 C1570 1.403 . S
C1573 C1574 1.392 1_455 S
C1573 C1577 1.495 . S
C1574 C1573 1.392 1_655 S
C1574 C1575 1.385 . S
C1574 C1576 1.478 . S
C1575 H1569 0.930 . S
C1575 C1571 1.400 . S
C1575 C1574 1.385 . S
C1576 C1574 1.478 . S
C1576 C1578 1.381 . S
C1576 C1582 1.383 . S
C1577 C1573 1.495 . S
C1577 H1583 0.959 . S
C1577 H1584 0.961 . S
C1577 H1585 0.960 . S
C1578 C1576 1.381 . S
C1578 C1579 1.394 . S
C1578 H1586 0.930 . S
C1579 C1578 1.394 . S
C1579 C1580 1.383 . S
C1579 H1587 0.929 . S
C1580 C1579 1.383 . S
C1580 C1581 1.377 . S
C1581 H1565 0.930 . S
C1581 C1580 1.377 . S
C1581 C1582 1.379 . S
C1582 H1566 0.931 . S
C1582 C1576 1.383 . S
C1582 C1581 1.379 . S
H1583 C1577 0.959 . S
H1584 C1577 0.961 . S
H1585 C1577 0.960 . S
H1586 C1578 0.930 . S
H1587 C1579 0.929 . S
H1588 C1596 0.929 . S
H1589 C1598 0.930 . S
H1590 C1600 0.930 . S
H1591 C1603 0.929 . S
H1592 C1606 0.930 . S
H1593 C1608 0.960 . S
H1594 C1608 0.960 . S
H1595 C1608 0.960 . S
C1596 H1588 0.929 . S
C1596 C1597 1.377 . S
C1596 C1598 1.384 . S
C1597 C1596 1.377 . S
C1597 C1603 1.390 . S
C1598 H1589 0.930 . S
C1598 C1596 1.384 . S
C1598 C1599 1.372 . S
C1599 C1598 1.372 . S
C1599 C1600 1.400 . S
C1599 C1604 1.490 . S
C1600 H1590 0.930 . S
C1600 C1599 1.400 . S
C1600 C1603 1.386 . S
H1601 C1617 0.930 . S
H1602 C1618 0.931 . S
C1603 H1591 0.929 . S
C1603 C1597 1.390 . S
C1603 C1600 1.386 . S
C1604 C1599 1.490 . S
C1604 C1606 1.395 . S
C1604 C1607 1.403 . S
H1605 C1611 0.930 . S
C1606 H1592 0.930 . S
C1606 C1604 1.395 . S
C1606 C1609 1.403 . S
C1607 C1604 1.403 . S
C1607 C1608 1.524 . S
C1607 C1611 1.400 . S
C1608 H1593 0.960 . S
C1608 H1594 0.960 . S
C1608 H1595 0.960 . S
C1608 C1607 1.524 . S
C1609 C1606 1.403 . S
C1609 C1610 1.392 . S
C1609 C1613 1.495 . S
C1610 C1609 1.392 . S
C1610 C1611 1.385 . S
C1610 C1612 1.478 . S
C1611 H1605 0.930 . S
C1611 C1607 1.400 . S
C1611 C1610 1.385 . S
C1612 C1610 1.478 . S
C1612 C1614 1.381 . S
C1612 C1618 1.383 . S
C1613 C1609 1.495 . S
C1613 H1619 0.959 . S
C1613 H1620 0.961 . S
C1613 H1621 0.960 . S
C1614 C1612 1.381 . S
C1614 C1615 1.394 . S
C1614 H1622 0.930 . S
C1615 C1614 1.394 . S
C1615 C1616 1.383 . S
C1615 H1623 0.929 . S
C1616 C1615 1.383 . S
C1616 C1617 1.377 . S
C1617 H1601 0.930 . S
C1617 C1616 1.377 . S
C1617 C1618 1.379 . S
C1618 H1602 0.931 . S
C1618 C1612 1.383 . S
C1618 C1617 1.379 . S
H1619 C1613 0.959 . S
H1620 C1613 0.961 . S
H1621 C1613 0.960 . S
H1622 C1614 0.930 . S
H1623 C1615 0.929 . S
H1624 C1632 0.929 . S
H1625 C1634 0.930 . S
H1626 C1636 0.930 . S
H1627 C1639 0.929 . S
H1628 C1642 0.930 . S
H1629 C1644 0.960 1_455 S
H1630 C1644 0.960 . S
H1631 C1644 0.960 . S
C1632 H1624 0.929 . S
C1632 C1633 1.377 . S
C1632 C1634 1.384 . S
C1633 C1632 1.377 . S
C1633 C1639 1.390 . S
C1634 H1625 0.930 . S
C1634 C1632 1.384 . S
C1634 C1635 1.372 . S
C1635 C1634 1.372 . S
C1635 C1636 1.400 . S
C1635 C1640 1.490 . S
C1636 H1626 0.930 . S
C1636 C1635 1.400 . S
C1636 C1639 1.386 . S
H1637 C1653 0.930 . S
H1638 C1654 0.931 . S
C1639 H1627 0.929 . S
C1639 C1633 1.390 . S
C1639 C1636 1.386 . S
C1640 C1635 1.490 . S
C1640 C1642 1.395 . S
C1640 C1643 1.403 . S
H1641 C1647 0.930 . S
C1642 H1628 0.930 . S
C1642 C1640 1.395 . S
C1642 C1645 1.403 . S
C1643 C1640 1.403 . S
C1643 C1644 1.524 . S
C1643 C1647 1.400 1_655 S
C1644 H1629 0.960 1_655 S
C1644 H1630 0.960 . S
C1644 H1631 0.960 . S
C1644 C1643 1.524 . S
C1645 C1642 1.403 . S
C1645 C1646 1.417 . S
C1645 C1649 1.495 . S
C1646 C1645 1.417 . S
C1646 C1647 1.377 1_655 S
C1646 C1648 1.461 1_655 S
C1647 H1641 0.930 . S
C1647 C1643 1.400 1_455 S
C1647 C1646 1.377 1_455 S
C1648 C1646 1.461 1_455 S
C1648 C1650 1.381 . S
C1648 C1654 1.383 . S
C1649 C1645 1.495 . S
C1649 H1655 0.959 . S
C1649 H1656 0.961 . S
C1649 H1657 0.960 . S
C1650 C1648 1.381 . S
C1650 C1651 1.394 . S
C1650 H1658 0.930 . S
C1651 C1650 1.394 . S
C1651 C1652 1.383 . S
C1651 H1659 0.929 . S
C1652 C1651 1.383 . S
C1652 C1653 1.377 . S
C1653 H1637 0.930 . S
C1653 C1652 1.377 . S
C1653 C1654 1.379 . S
C1654 H1638 0.931 . S
C1654 C1648 1.383 . S
C1654 C1653 1.379 . S
H1655 C1649 0.959 . S
H1656 C1649 0.961 . S
H1657 C1649 0.960 . S
H1658 C1650 0.930 . S
H1659 C1651 0.929 . S
H1660 C1668 0.929 . S
H1661 C1670 0.930 . S
H1662 C1672 0.930 . S
H1663 C1675 0.929 . S
H1664 C1678 0.930 . S
H1665 C1680 0.960 . S
H1666 C1680 0.960 . S
H1667 C1680 0.960 . S
C1668 H1660 0.929 . S
C1668 C1669 1.377 . S
C1668 C1670 1.384 . S
C1669 C1668 1.377 . S
C1669 C1675 1.390 . S
C1670 H1661 0.930 . S
C1670 C1668 1.384 . S
C1670 C1671 1.372 . S
C1671 C1670 1.372 . S
C1671 C1672 1.400 . S
C1671 C1676 1.490 . S
C1672 H1662 0.930 . S
C1672 C1671 1.400 . S
C1672 C1675 1.386 . S
H1673 C1689 0.930 . S
H1674 C1690 0.931 . S
C1675 H1663 0.929 . S
C1675 C1669 1.390 . S
C1675 C1672 1.386 . S
C1676 C1671 1.490 . S
C1676 C1678 1.395 . S
C1676 C1679 1.403 . S
H1677 C1683 0.930 . S
C1678 H1664 0.930 . S
C1678 C1676 1.395 . S
C1678 C1681 1.403 . S
C1679 C1676 1.403 . S
C1679 C1680 1.524 . S
C1679 C1683 1.400 . S
C1680 H1665 0.960 . S
C1680 H1666 0.960 . S
C1680 H1667 0.960 . S
C1680 C1679 1.524 . S
C1681 C1678 1.403 . S
C1681 C1682 1.392 . S
C1681 C1685 1.495 . S
C1682 C1681 1.392 . S
C1682 C1683 1.385 . S
C1682 C1684 1.478 . S
C1683 H1677 0.930 . S
C1683 C1679 1.400 . S
C1683 C1682 1.385 . S
C1684 C1682 1.478 . S
C1684 C1686 1.381 . S
C1684 C1690 1.383 . S
C1685 C1681 1.495 . S
C1685 H1691 0.959 . S
C1685 H1692 0.961 . S
C1685 H1693 0.960 . S
C1686 C1684 1.381 . S
C1686 C1687 1.394 . S
C1686 H1694 0.930 . S
C1687 C1686 1.394 . S
C1687 C1688 1.383 . S
C1687 H1695 0.929 . S
C1688 C1687 1.383 . S
C1688 C1689 1.377 . S
C1689 H1673 0.930 . S
C1689 C1688 1.377 . S
C1689 C1690 1.379 . S
C1690 H1674 0.931 . S
C1690 C1684 1.383 . S
C1690 C1689 1.379 . S
H1691 C1685 0.959 . S
H1692 C1685 0.961 . S
H1693 C1685 0.960 . S
H1694 C1686 0.930 . S
H1695 C1687 0.929 . S
H1696 C1704 0.929 . S
H1697 C1706 0.930 . S
H1698 C1708 0.930 . S
H1699 C1711 0.929 . S
H1700 C1714 0.930 . S
H1701 C1716 0.960 . S
H1702 C1716 0.960 . S
H1703 C1716 0.960 . S
C1704 H1696 0.929 . S
C1704 C1705 1.377 . S
C1704 C1706 1.384 . S
C1705 C1704 1.377 . S
C1705 C1711 1.390 . S
C1706 H1697 0.930 . S
C1706 C1704 1.384 . S
C1706 C1707 1.372 . S
C1707 C1706 1.372 . S
C1707 C1708 1.400 . S
C1707 C1712 1.490 . S
C1708 H1698 0.930 . S
C1708 C1707 1.400 . S
C1708 C1711 1.386 . S
H1709 C1725 0.930 . S
H1710 C1726 0.931 . S
C1711 H1699 0.929 . S
C1711 C1705 1.390 . S
C1711 C1708 1.386 . S
C1712 C1707 1.490 . S
C1712 C1714 1.395 . S
C1712 C1715 1.403 . S
H1713 C1719 0.930 . S
C1714 H1700 0.930 . S
C1714 C1712 1.395 . S
C1714 C1717 1.403 . S
C1715 C1712 1.403 . S
C1715 C1716 1.524 . S
C1715 C1719 1.400 . S
C1716 H1701 0.960 . S
C1716 H1702 0.960 . S
C1716 H1703 0.960 . S
C1716 C1715 1.524 . S
C1717 C1714 1.403 . S
C1717 C1718 1.392 . S
C1717 C1721 1.495 . S
C1718 C1717 1.392 . S
C1718 C1719 1.385 . S
C1718 C1720 1.478 . S
C1719 H1713 0.930 . S
C1719 C1715 1.400 . S
C1719 C1718 1.385 . S
C1720 C1718 1.478 . S
C1720 C1722 1.381 . S
C1720 C1726 1.383 . S
C1721 C1717 1.495 . S
C1721 H1727 0.959 . S
C1721 H1728 0.961 . S
C1721 H1729 0.960 . S
C1722 C1720 1.381 . S
C1722 C1723 1.394 . S
C1722 H1730 0.930 . S
C1723 C1722 1.394 . S
C1723 C1724 1.383 . S
C1723 H1731 0.929 . S
C1724 C1723 1.383 . S
C1724 C1725 1.377 . S
C1725 H1709 0.930 . S
C1725 C1724 1.377 . S
C1725 C1726 1.379 . S
C1726 H1710 0.931 . S
C1726 C1720 1.383 . S
C1726 C1725 1.379 . S
H1727 C1721 0.959 . S
H1728 C1721 0.961 . S
H1729 C1721 0.960 . S
H1730 C1722 0.930 . S
H1731 C1723 0.929 . S
H1732 C1740 0.929 . S
H1733 C1742 0.930 . S
H1734 C1744 0.930 . S
H1735 C1747 0.929 . S
H1736 C1750 0.930 . S
H1737 C1752 0.960 . S
H1738 C1752 0.960 . S
H1739 C1752 0.960 . S
C1740 H1732 0.929 . S
C1740 C1741 1.377 . S
C1740 C1742 1.384 . S
C1741 C1740 1.377 . S
C1741 C1747 1.390 . S
C1742 H1733 0.930 . S
C1742 C1740 1.384 . S
C1742 C1743 1.372 . S
C1743 C1742 1.372 . S
C1743 C1744 1.400 . S
C1743 C1748 1.490 . S
C1744 H1734 0.930 . S
C1744 C1743 1.400 . S
C1744 C1747 1.386 . S
H1745 C1761 0.930 . S
H1746 C1762 0.931 . S
C1747 H1735 0.929 . S
C1747 C1741 1.390 . S
C1747 C1744 1.386 . S
C1748 C1743 1.490 . S
C1748 C1750 1.395 1_556 S
C1748 C1751 1.403 . S
H1749 C1755 0.930 . S
C1750 H1736 0.930 . S
C1750 C1748 1.395 1_554 S
C1750 C1753 1.403 . S
C1751 C1748 1.403 . S
C1751 C1752 1.524 . S
C1751 C1755 1.400 . S
C1752 H1737 0.960 . S
C1752 H1738 0.960 . S
C1752 H1739 0.960 . S
C1752 C1751 1.524 . S
C1753 C1750 1.403 . S
C1753 C1754 1.392 . S
C1753 C1757 1.495 . S
C1754 C1753 1.392 . S
C1754 C1755 1.385 1_554 S
C1754 C1756 1.478 . S
C1755 H1749 0.930 . S
C1755 C1751 1.400 . S
C1755 C1754 1.385 1_556 S
C1756 C1754 1.478 . S
C1756 C1758 1.381 . S
C1756 C1762 1.383 . S
C1757 C1753 1.495 . S
C1757 H1763 0.959 . S
C1757 H1764 0.961 . S
C1757 H1765 0.960 . S
C1758 C1756 1.381 . S
C1758 C1759 1.394 . S
C1758 H1766 0.930 . S
C1759 C1758 1.394 . S
C1759 C1760 1.383 . S
C1759 H1767 0.929 . S
C1760 C1759 1.383 . S
C1760 C1761 1.377 . S
C1761 H1745 0.930 . S
C1761 C1760 1.377 . S
C1761 C1762 1.379 . S
C1762 H1746 0.931 . S
C1762 C1756 1.383 . S
C1762 C1761 1.379 . S
H1763 C1757 0.959 . S
H1764 C1757 0.961 . S
H1765 C1757 0.960 . S
H1766 C1758 0.930 . S
H1767 C1759 0.929 . S
H1768 C1776 0.929 . S
H1769 C1778 0.930 . S
H1770 C1780 0.930 . S
H1771 C1783 0.929 . S
H1772 C1786 0.930 . S
H1773 C1788 0.960 . S
H1774 C1788 0.960 . S
H1775 C1788 0.960 . S
C1776 H1768 0.929 . S
C1776 C1777 1.377 . S
C1776 C1778 1.384 . S
C1777 C1776 1.377 . S
C1777 C1783 1.390 . S
C1778 H1769 0.930 . S
C1778 C1776 1.384 . S
C1778 C1779 1.372 . S
C1779 C1778 1.372 . S
C1779 C1780 1.400 . S
C1779 C1784 1.490 . S
C1780 H1770 0.930 . S
C1780 C1779 1.400 . S
C1780 C1783 1.386 . S
H1781 C1797 0.930 . S
H1782 C1798 0.931 . S
C1783 H1771 0.929 . S
C1783 C1777 1.390 . S
C1783 C1780 1.386 . S
C1784 C1779 1.490 . S
C1784 C1786 1.395 . S
C1784 C1787 1.403 . S
H1785 C1791 0.930 . S
C1786 H1772 0.930 . S
C1786 C1784 1.395 . S
C1786 C1789 1.403 . S
C1787 C1784 1.403 . S
C1787 C1788 1.524 . S
C1787 C1791 1.400 . S
C1788 H1773 0.960 . S
C1788 H1774 0.960 . S
C1788 H1775 0.960 . S
C1788 C1787 1.524 . S
C1789 C1786 1.403 . S
C1789 C1790 1.392 . S
C1789 C1793 1.495 . S
C1790 C1789 1.392 . S
C1790 C1791 1.385 . S
C1790 C1792 1.478 . S
C1791 H1785 0.930 . S
C1791 C1787 1.400 . S
C1791 C1790 1.385 . S
C1792 C1790 1.478 . S
C1792 C1794 1.381 . S
C1792 C1798 1.383 . S
C1793 C1789 1.495 . S
C1793 H1799 0.959 . S
C1793 H1800 0.961 . S
C1793 H1801 0.960 . S
C1794 C1792 1.381 . S
C1794 C1795 1.394 . S
C1794 H1802 0.930 . S
C1795 C1794 1.394 . S
C1795 C1796 1.383 . S
C1795 H1803 0.929 . S
C1796 C1795 1.383 . S
C1796 C1797 1.377 . S
C1797 H1781 0.930 . S
C1797 C1796 1.377 . S
C1797 C1798 1.379 . S
C1798 H1782 0.931 . S
C1798 C1792 1.383 . S
C1798 C1797 1.379 . S
H1799 C1793 0.959 . S
H1800 C1793 0.961 . S
H1801 C1793 0.960 . S
H1802 C1794 0.930 . S
H1803 C1795 0.929 . S
H1804 C1812 0.929 . S
H1805 C1814 0.930 . S
H1806 C1816 0.930 . S
H1807 C1819 0.929 . S
H1808 C1822 0.930 . S
H1809 C1824 0.960 . S
H1810 C1824 0.960 . S
H1811 C1824 0.960 . S
C1812 H1804 0.929 . S
C1812 C1813 1.377 . S
C1812 C1814 1.384 . S
C1813 C1812 1.377 . S
C1813 C1819 1.390 . S
C1814 H1805 0.930 . S
C1814 C1812 1.384 . S
C1814 C1815 1.372 . S
C1815 C1814 1.372 . S
C1815 C1816 1.400 . S
C1815 C1820 1.490 . S
C1816 H1806 0.930 . S
C1816 C1815 1.400 . S
C1816 C1819 1.386 . S
H1817 C1833 0.930 . S
H1818 C1834 0.931 . S
C1819 H1807 0.929 . S
C1819 C1813 1.390 . S
C1819 C1816 1.386 . S
C1820 C1815 1.490 . S
C1820 C1822 1.395 . S
C1820 C1823 1.403 . S
H1821 C1827 0.930 . S
C1822 H1808 0.930 . S
C1822 C1820 1.395 . S
C1822 C1825 1.403 . S
C1823 C1820 1.403 . S
C1823 C1824 1.524 . S
C1823 C1827 1.400 . S
C1824 H1809 0.960 . S
C1824 H1810 0.960 . S
C1824 H1811 0.960 . S
C1824 C1823 1.524 . S
C1825 C1822 1.403 . S
C1825 C1826 1.392 . S
C1825 C1829 1.495 . S
C1826 C1825 1.392 . S
C1826 C1827 1.385 . S
C1826 C1828 1.478 . S
C1827 H1821 0.930 . S
C1827 C1823 1.400 . S
C1827 C1826 1.385 . S
C1828 C1826 1.478 . S
C1828 C1830 1.381 . S
C1828 C1834 1.383 . S
C1829 C1825 1.495 . S
C1829 H1835 0.959 . S
C1829 H1836 0.961 . S
C1829 H1837 0.960 . S
C1830 C1828 1.381 . S
C1830 C1831 1.394 . S
C1830 H1838 0.930 . S
C1831 C1830 1.394 . S
C1831 C1832 1.383 . S
C1831 H1839 0.929 . S
C1832 C1831 1.383 . S
C1832 C1833 1.377 . S
C1833 H1817 0.930 . S
C1833 C1832 1.377 . S
C1833 C1834 1.379 . S
C1834 H1818 0.931 . S
C1834 C1828 1.383 . S
C1834 C1833 1.379 . S
H1835 C1829 0.959 . S
H1836 C1829 0.961 . S
H1837 C1829 0.960 . S
H1838 C1830 0.930 . S
H1839 C1831 0.929 . S
H1840 C1848 0.929 . S
H1841 C1850 0.930 . S
H1842 C1852 0.930 . S
H1843 C1855 0.929 . S
H1844 C1858 0.930 . S
H1845 C1860 0.960 . S
H1846 C1860 0.960 . S
H1847 C1860 0.960 . S
C1848 H1840 0.929 . S
C1848 C1849 1.377 . S
C1848 C1850 1.384 . S
C1849 C1848 1.377 . S
C1849 C1855 1.390 . S
C1850 H1841 0.930 . S
C1850 C1848 1.384 . S
C1850 C1851 1.372 . S
C1851 C1850 1.372 . S
C1851 C1852 1.400 . S
C1851 C1856 1.490 . S
C1852 H1842 0.930 . S
C1852 C1851 1.400 . S
C1852 C1855 1.386 . S
H1853 C1869 0.930 . S
H1854 C1870 0.931 . S
C1855 H1843 0.929 . S
C1855 C1849 1.390 . S
C1855 C1852 1.386 . S
C1856 C1851 1.490 . S
C1856 C1858 1.395 . S
C1856 C1859 1.403 . S
H1857 C1863 0.930 . S
C1858 H1844 0.930 . S
C1858 C1856 1.395 . S
C1858 C1861 1.403 . S
C1859 C1856 1.403 . S
C1859 C1860 1.524 . S
C1859 C1863 1.400 . S
C1860 H1845 0.960 . S
C1860 H1846 0.960 . S
C1860 H1847 0.960 . S
C1860 C1859 1.524 . S
C1861 C1858 1.403 . S
C1861 C1862 1.392 . S
C1861 C1865 1.495 . S
C1862 C1861 1.392 . S
C1862 C1863 1.385 . S
C1862 C1864 1.478 . S
C1863 H1857 0.930 . S
C1863 C1859 1.400 . S
C1863 C1862 1.385 . S
C1864 C1862 1.478 . S
C1864 C1866 1.381 . S
C1864 C1870 1.383 . S
C1865 C1861 1.495 . S
C1865 H1871 0.959 . S
C1865 H1872 0.961 . S
C1865 H1873 0.960 . S
C1866 C1864 1.381 . S
C1866 C1867 1.394 . S
C1866 H1874 0.930 . S
C1867 C1866 1.394 . S
C1867 C1868 1.383 . S
C1867 H1875 0.929 . S
C1868 C1867 1.383 . S
C1868 C1869 1.377 . S
C1869 H1853 0.930 . S
C1869 C1868 1.377 . S
C1869 C1870 1.379 . S
C1870 H1854 0.931 . S
C1870 C1864 1.383 . S
C1870 C1869 1.379 . S
H1871 C1865 0.959 . S
H1872 C1865 0.961 . S
H1873 C1865 0.960 . S
H1874 C1866 0.930 . S
H1875 C1867 0.929 . S
H1876 C1884 0.929 . S
H1877 C1886 0.930 . S
H1878 C1888 0.930 . S
H1879 C1891 0.929 . S
H1880 C1894 0.930 . S
H1881 C1896 0.960 1_554 S
H1882 C1896 0.960 . S
H1883 C1896 0.960 . S
C1884 H1876 0.929 . S
C1884 C1885 1.377 . S
C1884 C1886 1.384 . S
C1885 C1884 1.377 . S
C1885 C1891 1.390 . S
C1886 H1877 0.930 . S
C1886 C1884 1.384 . S
C1886 C1887 1.372 . S
C1887 C1886 1.372 . S
C1887 C1888 1.400 . S
C1887 C1892 1.490 . S
C1888 H1878 0.930 . S
C1888 C1887 1.400 . S
C1888 C1891 1.386 . S
H1889 C1905 0.930 . S
H1890 C1906 0.931 . S
C1891 H1879 0.929 . S
C1891 C1885 1.390 . S
C1891 C1888 1.386 . S
C1892 C1887 1.490 . S
C1892 C1894 1.395 . S
C1892 C1895 1.403 . S
H1893 C1899 0.930 . S
C1894 H1880 0.930 . S
C1894 C1892 1.395 . S
C1894 C1897 1.403 . S
C1895 C1892 1.403 . S
C1895 C1896 1.524 . S
C1895 C1899 1.400 1_556 S
C1896 H1881 0.960 1_556 S
C1896 H1882 0.960 . S
C1896 H1883 0.960 . S
C1896 C1895 1.524 . S
C1897 C1894 1.403 . S
C1897 C1898 1.392 1_556 S
C1897 C1901 1.495 . S
C1898 C1897 1.392 1_554 S
C1898 C1899 1.385 . S
C1898 C1900 1.478 . S
C1899 H1893 0.930 . S
C1899 C1895 1.400 1_554 S
C1899 C1898 1.385 . S
C1900 C1898 1.478 . S
C1900 C1902 1.381 . S
C1900 C1906 1.383 . S
C1901 C1897 1.495 . S
C1901 H1907 0.959 . S
C1901 H1908 0.961 . S
C1901 H1909 0.960 . S
C1902 C1900 1.381 . S
C1902 C1903 1.394 . S
C1902 H1910 0.930 . S
C1903 C1902 1.394 . S
C1903 C1904 1.383 . S
C1903 H1911 0.929 . S
C1904 C1903 1.383 . S
C1904 C1905 1.377 . S
C1905 H1889 0.930 . S
C1905 C1904 1.377 . S
C1905 C1906 1.379 . S
C1906 H1890 0.931 . S
C1906 C1900 1.383 . S
C1906 C1905 1.379 . S
H1907 C1901 0.959 . S
H1908 C1901 0.961 . S
H1909 C1901 0.960 . S
H1910 C1902 0.930 . S
H1911 C1903 0.929 . S
H1912 C1920 0.929 . S
H1913 C1922 0.930 . S
H1914 C1924 0.930 . S
H1915 C1927 0.929 . S
H1916 C1930 0.930 . S
H1917 C1932 0.960 . S
H1918 C1932 0.960 . S
H1919 C1932 0.960 . S
C1920 H1912 0.929 . S
C1920 C1921 1.377 . S
C1920 C1922 1.384 . S
C1921 C1920 1.377 . S
C1921 C1927 1.390 . S
C1922 H1913 0.930 . S
C1922 C1920 1.384 . S
C1922 C1923 1.372 . S
C1923 C1922 1.372 . S
C1923 C1924 1.400 . S
C1923 C1928 1.490 . S
C1924 H1914 0.930 . S
C1924 C1923 1.400 . S
C1924 C1927 1.386 . S
H1925 C1941 0.930 . S
H1926 C1942 0.931 . S
C1927 H1915 0.929 . S
C1927 C1921 1.390 . S
C1927 C1924 1.386 . S
C1928 C1923 1.490 . S
C1928 C1930 1.395 . S
C1928 C1931 1.403 . S
H1929 C1935 0.930 . S
C1930 H1916 0.930 . S
C1930 C1928 1.395 . S
C1930 C1933 1.403 . S
C1931 C1928 1.403 . S
C1931 C1932 1.524 . S
C1931 C1935 1.400 . S
C1932 H1917 0.960 . S
C1932 H1918 0.960 . S
C1932 H1919 0.960 . S
C1932 C1931 1.524 . S
C1933 C1930 1.403 . S
C1933 C1934 1.392 . S
C1933 C1937 1.495 . S
C1934 C1933 1.392 . S
C1934 C1935 1.385 . S
C1934 C1936 1.478 . S
C1935 H1929 0.930 . S
C1935 C1931 1.400 . S
C1935 C1934 1.385 . S
C1936 C1934 1.478 . S
C1936 C1938 1.381 . S
C1936 C1942 1.383 . S
C1937 C1933 1.495 . S
C1937 H1943 0.959 . S
C1937 H1944 0.961 . S
C1937 H1945 0.960 . S
C1938 C1936 1.381 . S
C1938 C1939 1.394 . S
C1938 H1946 0.930 . S
C1939 C1938 1.394 . S
C1939 C1940 1.383 . S
C1939 H1947 0.929 . S
C1940 C1939 1.383 . S
C1940 C1941 1.377 . S
C1941 H1925 0.930 . S
C1941 C1940 1.377 . S
C1941 C1942 1.379 . S
C1942 H1926 0.931 . S
C1942 C1936 1.383 . S
C1942 C1941 1.379 . S
H1943 C1937 0.959 . S
H1944 C1937 0.961 . S
H1945 C1937 0.960 . S
H1946 C1938 0.930 . S
H1947 C1939 0.929 . S
H1948 C1956 0.929 . S
H1949 C1958 0.930 . S
H1950 C1960 0.930 . S
H1951 C1963 0.929 . S
H1952 C1966 0.930 . S
H1953 C1968 0.960 . S
H1954 C1968 0.960 . S
H1955 C1968 0.960 . S
C1956 H1948 0.929 . S
C1956 C1957 1.377 . S
C1956 C1958 1.384 . S
C1957 C1956 1.377 . S
C1957 C1963 1.390 . S
C1958 H1949 0.930 . S
C1958 C1956 1.384 . S
C1958 C1959 1.372 . S
C1959 C1958 1.372 . S
C1959 C1960 1.400 . S
C1959 C1964 1.490 . S
C1960 H1950 0.930 . S
C1960 C1959 1.400 . S
C1960 C1963 1.386 . S
H1961 C1977 0.930 . S
H1962 C1978 0.931 . S
C1963 H1951 0.929 . S
C1963 C1957 1.390 . S
C1963 C1960 1.386 . S
C1964 C1959 1.490 . S
C1964 C1966 1.395 . S
C1964 C1967 1.403 . S
H1965 C1971 0.930 . S
C1966 H1952 0.930 . S
C1966 C1964 1.395 . S
C1966 C1969 1.403 . S
C1967 C1964 1.403 . S
C1967 C1968 1.524 . S
C1967 C1971 1.400 . S
C1968 H1953 0.960 . S
C1968 H1954 0.960 . S
C1968 H1955 0.960 . S
C1968 C1967 1.524 . S
C1969 C1966 1.403 . S
C1969 C1970 1.392 . S
C1969 C1973 1.495 . S
C1970 C1969 1.392 . S
C1970 C1971 1.385 . S
C1970 C1972 1.478 . S
C1971 H1965 0.930 . S
C1971 C1967 1.400 . S
C1971 C1970 1.385 . S
C1972 C1970 1.478 . S
C1972 C1974 1.381 . S
C1972 C1978 1.383 . S
C1973 C1969 1.495 . S
C1973 H1979 0.959 . S
C1973 H1980 0.961 . S
C1973 H1981 0.960 . S
C1974 C1972 1.381 . S
C1974 C1975 1.394 . S
C1974 H1982 0.930 . S
C1975 C1974 1.394 . S
C1975 C1976 1.383 . S
C1975 H1983 0.929 . S
C1976 C1975 1.383 . S
C1976 C1977 1.377 . S
C1977 H1961 0.930 . S
C1977 C1976 1.377 . S
C1977 C1978 1.379 . S
C1978 H1962 0.931 . S
C1978 C1972 1.383 . S
C1978 C1977 1.379 . S
H1979 C1973 0.959 . S
H1980 C1973 0.961 . S
H1981 C1973 0.960 . S
H1982 C1974 0.930 . S
H1983 C1975 0.929 . S
C553 C9 0.847 . S
C572 C515 0.896 . S
C589 C281 1.979 . S
C608 C39 2.150 . S
C625 C417 1.271 . S
C644 C77 1.303 . S
C661 C111 1.945 . S
C680 C345 2.070 . S
C697 C379 1.759 . S
C716 C43 1.599 . S
C733 C73 1.646 . S
C752 C311 1.633 . S
C769 C107 2.058 . S
C788 C451 1.928 . S
C805 C5 1.211 . S
C824 C247 1.072 . S
C841 C277 1.834 . S
C860 C145 1.656 . S
C877 C413 1.300 . S
C896 C179 1.216 . S
C913 C209 2.166 . S
C932 C349 2.007 . S
C949 C213 1.857 . S
C968 C447 1.987 . S
C985 C141 2.045 . S
C1004 C383 1.861 . S
C1021 C485 0.973 . S
C1040 C243 1.019 . S
C1057 C315 1.626 . S
C1076 C175 1.772 . S
C1093 C519 1.009 . S
C1112 C481 1.064 . S
C1129 C2 1.331 . S
C1148 C54 1.329 . S
C1165 C36 1.696 . S
C1184 C101 1.715 . S
C1201 C70 1.514 . S
C1220 C104 1.530 . S
C1237 C122 0.866 . S
C1256 C33 0.861 . S
C1273 C20 1.315 . S
C1292 C190 1.330 . S
C1309 C169 1.059 . S
C1328 C135 1.049 . S
C1345 C237 1.368 . S
C1364 C67 1.360 . S
C1381 C496 1.310 . S
C1400 C88 1.303 . S
C1417 C292 1.586 . S
C1436 C240 1.584 . S
C1453 C274 1.474 . S
C1472 C308 1.485 . S
C1489 C339 1.616 . S
C1508 C342 1.586 . S
C1525 C360 1.351 . S
C1544 C271 1.363 . S
C1561 C428 1.216 . S
C1580 C258 1.213 . S
C1597 C407 0.902 . S
C1616 C373 0.916 . S
C1633 C305 0.895 . S
C1652 C475 0.907 . S
C1669 C530 1.136 . S
C1688 C326 1.138 . S
C1705 C156 1.499 . S
C1724 C478 1.495 . S
C1741 C138 1.908 . S
C1760 C172 1.911 . S
C1777 C203 1.317 . S
C1796 C206 1.322 . S
C1813 C509 0.707 . S
C1832 C224 0.682 . S
C1849 C394 1.560 . S
C1868 C512 1.556 . S
C1885 C410 1.378 . S
C1904 C376 1.388 . S
C1921 C441 1.537 . S
C1940 C444 1.516 . S
C1957 C543 1.331 . S
C1976 C462 1.306 . S
