# Generated by pormake.
# Topology snp, (6)-cn, num edge types: 1
# Building blocks:
#     Node 0, Type 0, BuildingBlock: UKALOJ_clean_sbu_0, # of connection points: 6
#     Node 1, Type 0, BuildingBlock: UKALOJ_clean_sbu_0, # of connection points: 6
#     Node 2, Type 0, BuildingBlock: UKALOJ_clean_sbu_0, # of connection points: 6
#     Node 3, Type 0, BuildingBlock: UKALOJ_clean_sbu_0, # of connection points: 6
#     Edge 4, Type (0, 0), BuildingBlock: EZIPEK_clean_linker_0, # of connection points: 2
#     Edge 5, Type (0, 0), BuildingBlock: EZIPEK_clean_linker_0, # of connection points: 2
#     Edge 6, Type (0, 0), BuildingBlock: EZIPEK_clean_linker_0, # of connection points: 2
#     Edge 7, Type (0, 0), BuildingBlock: EZIPEK_clean_linker_0, # of connection points: 2
#     Edge 8, Type (0, 0), BuildingBlock: EZIPEK_clean_linker_0, # of connection points: 2
#     Edge 9, Type (0, 0), BuildingBlock: EZIPEK_clean_linker_0, # of connection points: 2
#     Edge 10, Type (0, 0), BuildingBlock: EZIPEK_clean_linker_0, # of connection points: 2
#     Edge 11, Type (0, 0), BuildingBlock: EZIPEK_clean_linker_0, # of connection points: 2
#     Edge 12, Type (0, 0), BuildingBlock: EZIPEK_clean_linker_0, # of connection points: 2
#     Edge 13, Type (0, 0), BuildingBlock: EZIPEK_clean_linker_0, # of connection points: 2
#     Edge 14, Type (0, 0), BuildingBlock: EZIPEK_clean_linker_0, # of connection points: 2
#     Edge 15, Type (0, 0), BuildingBlock: EZIPEK_clean_linker_0, # of connection points: 2
# Relax obj value: 1.036
# Max RMSD: 0.251
# Mean RMSD: 0.249
data_MOF--net-snp--node1-UKALOJ_clean_sbu_0--edge1-EZIPEK_clean_linker_0
_symmetry_space_group_name_H-M    P1
_symmetry_Int_Tables_number       1
_symmetry_cell_setting            triclinic
loop_
_symmetry_equiv_pos_as_xyz
'x, y, z'
_cell_length_a     26.687139
_cell_length_b     26.708675
_cell_length_c     15.713989
_cell_angle_alpha  96.596833
_cell_angle_beta   96.604738
_cell_angle_gamma 90.152356
loop_
_atom_site_label
_atom_site_type_symbol
_atom_site_fract_x
_atom_site_fract_y
_atom_site_fract_z
_atom_type_partial_charge
Zn0 Zn 0.28491 0.06212 0.10785 0.0
O1 O 0.27979 0.99983 0.9882 0.0
C2 C 0.25652 0.14535 0.98916 0.0
Zn3 Zn 0.20695 0.07335 0.08722 0.0
C4 C 0.23448 0.98914 0.95337 0.0
O5 O 0.20042 0.01492 0.98473 0.0
C6 C 0.24211 0.14578 0.2391 0.0
O7 O 0.18684 0.02084 0.17073 0.0
O8 O 0.26558 0.99951 0.19235 0.0
N9 N 0.14248 0.08572 0.05587 0.0
C10 C 0.09715 0.11144 0.14008 0.0
C11 C 0.04813 0.11541 0.93213 0.0
N12 N 0.11748 0.08876 0.9445 0.0
N13 N 0.03116 0.13242 0.06304 0.0
C14 C 0.40131 0.05455 0.08593 0.0
C15 C 0.4343 0.04315 0.21203 0.0
N16 N 0.36296 0.05267 0.13507 0.0
N17 N 0.3838 0.04546 0.21335 0.0
N18 N 0.44638 0.04878 0.1327 0.0
H19 H 0.4231 0.04186 0.95785 0.0
H20 H 0.4018 0.10422 0.98914 0.0
H21 H 0.35636 0.05317 0.96246 0.0
C22 C 0.39499 0.06361 0.99316 0.0
C23 C 0.10914 0.12167 0.23655 0.0
H24 H 0.12245 0.16119 0.25337 0.0
H25 H 0.13848 0.09577 0.26044 0.0
H26 H 0.07508 0.11738 0.26923 0.0
O27 O 0.20527 0.13201 0.18451 0.0
O28 O 0.2842 0.12366 0.22843 0.0
C29 C 0.21927 0.99255 0.20534 0.0
O30 O 0.29747 0.12576 1.02064 0.0
O31 O 0.21622 0.12667 1.00559 0.0
Zn32 Zn 0.04871 0.29608 0.6138 0.0
O33 O 0.11427 0.2967 0.52291 0.0
C34 C 0.97428 0.25559 0.45454 0.0
Zn35 Zn 0.05058 0.21716 0.58594 0.0
C36 C 0.13033 0.25362 0.49218 0.0
O37 O 0.1088 0.2156 0.51117 0.0
C38 C 0.96629 0.24488 0.70544 0.0
O39 O 0.10552 0.20545 0.68922 0.0
O40 O 0.11184 0.28529 0.73119 0.0
N41 N 0.04714 0.15021 0.54713 0.0
C42 C 0.02392 0.11209 0.60451 0.0
C43 C 0.04644 0.0715 0.42118 0.0
N44 N 0.0585 0.13075 0.45524 0.0
N45 N 0.01897 0.04451 0.52722 0.0
C46 C 0.0484 0.41231 0.58802 0.0
C47 C 0.06056 0.44807 0.71708 0.0
N48 N 0.05231 0.37513 0.64022 0.0
N49 N 0.05991 0.39771 0.72036 0.0
N50 N 0.05328 0.45835 0.63463 0.0
H51 H 0.99853 0.40434 0.47108 0.0
H52 H 0.05418 0.36651 0.46755 0.0
H53 H 0.05802 0.43401 0.46306 0.0
C54 C 0.03968 0.40365 0.4917 0.0
C55 C 0.02891 0.11656 0.7015 0.0
H56 H 0.056 0.08848 0.72484 0.0
H57 H 0.99359 0.10592 0.72432 0.0
H58 H 0.04004 0.1547 0.73046 0.0
O59 O 0.98813 0.21089 0.66081 0.0
O60 O 0.98302 0.29008 0.70439 0.0
C61 C 0.12695 0.24025 0.74235 0.0
O62 O 0.98634 0.29943 0.49453 0.0
O63 O 0.998 0.21933 0.48226 0.0
Zn64 Zn 0.8852 0.04455 0.02151 0.0
O65 O 0.88348 0.98547 0.92549 0.0
C66 C 0.85168 0.12978 0.91594 0.0
Zn67 Zn 0.80681 0.0509 0.02478 0.0
C68 C 0.84366 0.96888 0.88138 0.0
O69 O 0.80228 0.99012 0.90041 0.0
C70 C 0.8647 0.12592 0.16818 0.0
O71 O 0.80876 0.98297 0.10754 0.0
O72 O 0.88929 0.9918 0.11191 0.0
N73 N 0.72795 0.05478 1.01526 0.0
C74 C 0.69311 0.04961 0.07007 0.0
C75 C 0.65298 0.06449 0.95065 0.0
N76 N 0.70262 0.06405 0.94125 0.0
N77 N 0.64583 0.05544 0.03095 0.0
C78 C 0.98923 0.05391 0.95806 0.0
C79 C 0.03542 0.05095 0.1455 0.0
N80 N 0.95394 0.03706 0.02759 0.0
N81 N 0.97699 0.0354 0.12068 0.0
N82 N 0.05919 0.06712 0.03057 0.0
H83 H 0.95415 1.00486 0.84686 0.0
H84 H 0.01397 0.03215 0.83196 0.0
H85 H 0.95784 0.06908 0.83155 0.0
C86 C 0.97843 0.03906 0.86152 0.0
C87 C 0.70531 0.03856 0.16118 0.0
H88 H 0.69943 0.99764 0.16378 0.0
H89 H 0.67962 0.05935 0.20299 0.0
H90 H 0.74513 0.04878 0.18531 0.0
O91 O 0.81864 0.11026 0.14882 0.0
O92 O 0.89596 0.10506 0.12147 0.0
C93 C 0.85309 0.96814 0.13387 0.0
O94 O 0.88761 0.10016 0.93387 0.0
O95 O 0.80928 0.11929 0.94184 0.0
Zn96 Zn 0.02411 0.89464 0.51519 0.0
O97 O 0.08168 0.90735 0.43881 0.0
C98 C 0.95233 0.84723 0.37247 0.0
Zn99 Zn 0.03415 0.81674 0.51829 0.0
C100 C 0.10732 0.87154 0.40828 0.0
O101 O 0.09607 0.82687 0.42506 0.0
C102 C 0.95091 0.85665 0.6302 0.0
O103 O 0.09724 0.83127 0.63382 0.0
O104 O 0.07878 0.90987 0.62881 0.0
N105 N 0.04378 0.73831 0.50829 0.0
C106 C 0.04329 0.70343 0.56445 0.0
C107 C 0.05315 0.66374 0.44217 0.0
N108 N 0.04998 0.71325 0.43251 0.0
N109 N 0.04893 0.65634 0.52442 0.0
C110 C 0.99546 0.99852 0.40953 0.0
C111 C 0.95437 0.05685 0.59257 0.0
N112 N 0.00631 0.95919 0.51091 0.0
N113 N 0.98506 0.99135 0.60721 0.0
N114 N 0.95905 0.06603 0.45931 0.0
H115 H 0.0149 0.94229 0.31002 0.0
H116 H 0.00719 0.00551 0.27962 0.0
H117 H 0.9527 0.96929 0.29183 0.0
C118 C 0.99272 0.97725 0.31706 0.0
C119 C 0.03658 0.71531 0.65773 0.0
H120 H 0.06006 0.6901 0.69683 0.0
H121 H 0.99651 0.7086 0.66622 0.0
H122 H 0.0466 0.75527 0.68067 0.0
O123 O 0.97273 0.81428 0.61378 0.0
O124 O 0.96546 0.8926 0.59381 0.0
C125 C 0.10591 0.87762 0.66456 0.0
O126 O 0.97151 0.88772 0.40941 0.0
O127 O 0.97021 0.80661 0.40002 0.0
C128 C 0.07782 0.1959 0.05657 0.0
C129 C 0.1012 0.14793 0.03061 0.0
C130 C 0.02764 0.99841 0.03071 0.0
C131 C 0.99674 0.10765 0.07378 0.0
N132 N 0.98837 0.20715 0.09663 0.0
N133 N 0.10264 0.00514 0.97485 0.0
C134 C 0.02293 0.16945 0.0756 0.0
C135 C 0.07171 0.04782 1.01657 0.0
N136 N 0.09424 0.24385 0.05816 0.0
N137 N 0.0091 0.95972 0.97018 0.0
H138 H 0.11634 0.00527 0.91512 0.0
H139 H 0.10492 0.96834 0.99143 0.0
H140 H 0.99133 0.92918 0.99021 0.0
H141 H 0.02134 0.95452 0.90908 0.0
H142 H 0.07212 0.27433 0.07699 0.0
H143 H 0.12999 0.2509 0.04088 0.0
H144 H 0.99724 0.24544 0.10113 0.0
H145 H 0.95176 0.19738 0.10641 0.0
C146 C 0.92349 0.07427 0.4417 0.0
C147 C 0.98194 0.10579 0.4755 0.0
C148 C 0.03757 0.03242 0.54502 0.0
C149 C 0.94057 0.99781 0.49353 0.0
N150 N 0.90399 0.97285 0.4699 0.0
N151 N 0.12002 0.0974 0.61682 0.0
C152 C 0.89219 0.01954 0.4478 0.0
C153 C 0.08789 0.07791 0.54705 0.0
N154 N 0.88673 0.10797 0.41247 0.0
N155 N 0.07553 1.00385 0.60168 0.0
H156 H 0.15794 0.10351 0.6102 0.0
H157 H 0.15794 0.10351 0.6102 0.0
H158 H 0.06862 0.99666 0.66334 0.0
H159 H 0.11345 0.9996 0.59172 0.0
H160 H 0.84942 0.09656 0.39157 0.0
H161 H 0.89577 0.14614 0.41581 0.0
H162 H 0.87459 0.94436 0.45479 0.0
H163 H 0.87459 0.94436 0.45479 0.0
C164 C 0.57038 0.00645 0.05421 0.0
C165 C 0.59725 0.05301 0.06345 0.0
C166 C 0.52333 0.09706 0.11441 0.0
C167 C 0.49695 0.05032 0.10745 0.0
N168 N 0.4955 0.96018 0.07891 0.0
N169 N 0.60262 0.14172 0.10943 0.0
C170 C 0.52068 1.00485 0.07972 0.0
C171 C 0.57453 0.09811 0.09576 0.0
N172 N 0.59225 0.96411 1.01861 0.0
N173 N 0.49871 0.1404 0.13752 0.0
H174 H 0.63989 0.14308 0.09564 0.0
H175 H 0.59056 0.17573 0.1388 0.0
H176 H 0.46174 0.14026 0.15305 0.0
H177 H 0.51347 0.17645 0.13731 0.0
H178 H 0.57376 0.92944 1.00202 0.0
H179 H 0.62898 0.96435 1.00194 0.0
H180 H 0.51149 0.92497 0.06704 0.0
H181 H 0.45859 0.95845 0.0944 0.0
C182 C 0.00582 0.53462 0.59881 0.0
C183 C 0.05187 0.50819 0.60598 0.0
C184 C 0.09659 0.58247 0.57023 0.0
C185 C 0.05011 0.60776 0.55775 0.0
N186 N 0.9598 0.60677 0.55036 0.0
N187 N 0.14026 0.50406 0.59161 0.0
C188 C 1.00449 0.58355 0.56989 0.0
C189 C 0.09708 0.53144 0.58971 0.0
N190 N 0.96354 0.51285 0.62087 0.0
N191 N 0.14033 0.60811 0.56544 0.0
H192 H 0.14153 0.46714 0.60732 0.0
H193 H 0.17383 0.5164 0.57266 0.0
H194 H 0.14068 0.64548 0.55207 0.0
H195 H 0.17616 0.59404 0.58054 0.0
H196 H 0.92962 0.53147 0.62589 0.0
H197 H 0.96335 0.47648 0.63906 0.0
H198 H 0.92461 0.58974 0.5495 0.0
H199 H 0.95799 0.6425 0.5296 0.0
C200 C 0.17149 0.25486 0.35123 0.0
C201 C 0.17389 0.24262 0.43723 0.0
C202 C 0.23486 0.17475 0.40003 0.0
C203 C 0.23111 0.1857 0.31302 0.0
N204 N 0.20631 0.2455 0.21349 0.0
N205 N 0.21993 0.20101 0.54876 0.0
C206 C 0.20314 0.22921 0.29189 0.0
C207 C 0.20995 0.20607 0.46298 0.0
N208 N 0.13656 0.28856 0.32418 0.0
N209 N 0.25915 0.13231 0.42173 0.0
H210 H 0.20292 0.22364 0.59567 0.0
H211 H 0.24835 0.17839 0.57388 0.0
H212 H 0.2788 0.10954 0.37895 0.0
H213 H 0.25745 0.11813 0.48038 0.0
H214 H 0.12756 0.29432 0.25983 0.0
H215 H 0.11465 0.30906 0.36632 0.0
H216 H 0.19074 0.27894 0.19542 0.0
H217 H 0.22888 0.22756 0.1697 0.0
C218 C 0.9322 0.17614 0.77769 0.0
C219 C 0.92636 0.22597 0.7604 0.0
C220 C 0.8615 0.22269 0.86562 0.0
C221 C 0.86076 0.16806 0.85202 0.0
N222 N 0.87963 0.10114 0.74779 0.0
N223 N 0.88319 0.30193 0.80813 0.0
C224 C 0.88817 0.14887 0.78605 0.0
C225 C 0.88993 0.25174 0.81066 0.0
N226 N 0.97166 0.17063 0.83795 0.0
N227 N 0.83764 0.24619 0.93052 0.0
H228 H 0.90363 0.32223 0.77043 0.0
H229 H 0.85572 0.32186 0.83932 0.0
H230 H 0.81752 0.22558 0.96833 0.0
H231 H 0.83983 0.28505 0.94785 0.0
H232 H 0.9664 0.14935 0.88772 0.0
H233 H 1.00297 0.1952 0.84814 0.0
H234 H 0.90331 0.08446 0.70588 0.0
H235 H 0.84814 0.08009 0.75741 0.0
C236 C 0.9331 0.85854 0.21547 0.0
C237 C 0.91433 0.85227 0.29385 0.0
C238 C 0.84466 0.91069 0.25621 0.0
C239 C 0.86669 0.92177 0.18184 0.0
N240 N 0.92359 0.89224 0.07816 0.0
N241 N 0.84058 0.85322 0.36585 0.0
C242 C 0.90809 0.89093 0.15752 0.0
C243 C 0.86615 0.87224 0.30641 0.0
N244 N 0.97667 0.83492 0.1985 0.0
N245 N 0.80535 0.93858 0.2825 0.0
H246 H 0.85548 0.82381 0.39888 0.0
H247 H 0.80362 0.86267 0.37534 0.0
H248 H 0.78887 0.96665 0.24834 0.0
H249 H 0.79123 0.9359 0.34093 0.0
H250 H 0.997 0.84189 0.1484 0.0
H251 H 0.99266 0.80836 0.23691 0.0
H252 H 0.94834 0.8665 0.0517 0.0
H253 H 0.90818 0.91609 0.03477 0.0
C254 C 0.15066 0.88352 0.82198 0.0
C255 C 0.14888 0.8967 0.73624 0.0
C256 C 0.21926 0.95934 0.79056 0.0
C257 C 0.21746 0.94902 0.87668 0.0
N258 N 0.19641 0.88768 0.96645 0.0
N259 N 0.18664 0.94401 0.63797 0.0
C260 C 0.18749 0.90696 0.88967 0.0
C261 C 0.18525 0.93343 0.72054 0.0
N262 N 0.11506 0.85096 0.84061 0.0
N263 N 0.25461 0.99343 0.77616 0.0
H264 H 0.16319 0.92565 0.58632 0.0
H265 H 0.20971 0.97118 0.61941 0.0
H266 H 0.28094 0.00982 0.82583 0.0
H267 H 0.26041 1.00355 0.71615 0.0
H268 H 0.11007 0.84457 0.90327 0.0
H269 H 0.08808 0.83299 0.7937 0.0
H270 H 0.17988 0.85438 0.97917 0.0
H271 H 0.22472 0.90271 1.01412 0.0
C272 C 0.84499 0.93385 0.72177 0.0
C273 C 0.85047 0.92619 0.8099 0.0
C274 C 0.91271 0.85917 0.77685 0.0
C275 C 0.90916 0.8687 0.6893 0.0
N276 N 0.85141 0.89576 0.57621 0.0
N277 N 0.86853 0.86272 0.90437 0.0
C278 C 0.86889 0.90025 0.66122 0.0
C279 C 0.87799 0.88292 0.83224 0.0
N280 N 0.81846 0.9739 0.69544 0.0
N281 N 0.9499 0.82934 0.8089 0.0
H282 H 0.84107 0.87782 0.94185 0.0
H283 H 0.88378 0.82871 0.92066 0.0
H284 H 0.97515 0.81096 0.77052 0.0
H285 H 0.95691 0.82545 0.87448 0.0
H286 H 0.81794 0.98423 0.63331 0.0
H287 H 0.79897 0.99762 0.73726 0.0
H288 H 0.81871 0.9133 0.55239 0.0
H289 H 0.86698 0.8698 0.5324 0.0
C290 C 0.15797 0.9187 0.21291 0.0
C291 C 0.19997 0.95004 0.25305 0.0
C292 C 0.19298 0.90943 0.38653 0.0
C293 C 0.14671 0.88503 0.35024 0.0
N294 N 0.09659 0.85174 0.22112 0.0
N295 N 0.25591 0.97523 0.38258 0.0
C296 C 0.13264 0.88552 0.26092 0.0
C297 C 0.21768 0.94455 0.34072 0.0
N298 N 0.14109 0.92181 0.12856 0.0
N299 N 0.21509 0.89605 0.4629 0.0
H300 H 0.27479 1.00093 0.35196 0.0
H301 H 0.26652 0.97761 0.44882 0.0
H302 H 0.19924 0.86786 0.49281 0.0
H303 H 0.25097 0.90826 0.4908 0.0
H304 H 0.10705 0.90641 0.09753 0.0
H305 H 0.16114 0.9414 0.08981 0.0
H306 H 0.0874 0.84501 0.15465 0.0
H307 H 0.08002 0.82606 0.25512 0.0
C308 C 0.18375 0.17234 0.80253 0.0
C309 C 0.17037 0.22429 0.8093 0.0
C310 C 0.23493 0.23202 0.93912 0.0
C311 C 0.25027 0.18093 0.91975 0.0
N312 N 0.2514 0.11334 0.80652 0.0
N313 N 0.1929 0.30631 0.88777 0.0
C314 C 0.23129 0.15719 0.83851 0.0
C315 C 0.19949 0.25554 0.87808 0.0
N316 N 0.147 0.13651 0.78767 0.0
N317 N 0.25297 0.25728 1.01676 0.0
H318 H 0.16688 0.3242 0.84752 0.0
H319 H 0.21573 0.33075 0.9325 0.0
H320 H 0.2803 0.24144 0.05829 0.0
H321 H 0.23972 0.29226 0.04015 0.0
H322 H 0.15459 0.09808 0.78674 0.0
H323 H 0.11098 0.14693 0.79994 0.0
H324 H 0.23608 0.09389 0.74776 0.0
H325 H 0.28505 0.10006 0.83608 0.0
C326 C 0.86063 0.2065 0.28654 0.0
C327 C 0.88672 0.16582 0.24333 0.0
C328 C 0.96597 0.20917 0.30912 0.0
C329 C 0.94199 0.24195 0.36788 0.0
N330 N 0.86285 0.26929 0.41441 0.0
N331 N 0.96612 0.12213 0.26485 0.0
C332 C 0.88795 0.24036 0.35664 0.0
C333 C 0.93994 0.16561 0.26732 0.0
N334 N 0.81068 0.21304 0.2623 0.0
N335 N 0.01618 0.21483 0.3041 0.0
H336 H 0.94853 0.08667 0.25427 0.0
H337 H 0.94853 0.08667 0.25427 0.0
H338 H 0.03702 0.24584 0.33658 0.0
H339 H 0.03462 0.19092 0.26135 0.0
H340 H 0.791 0.244 0.28702 0.0
H341 H 0.79013 0.18951 0.21304 0.0
H342 H 0.82399 0.26643 0.41566 0.0
H343 H 0.88201 0.2944 0.46328 0.0
loop_
_geom_bond_atom_site_label_1
_geom_bond_atom_site_label_2
_geom_bond_distance
_geom_bond_site_symmetry_2
_ccdc_geom_bond_type
Zn0 O1 2.044 1_544 S
Zn0 O8 2.046 1_545 S
Zn0 N16 2.036 . S
Zn0 O28 2.053 . S
Zn0 O30 2.066 1_554 S
O1 Zn0 2.044 1_566 S
O1 C4 1.265 . S
C2 O30 1.256 . S
C2 O31 1.244 . S
Zn3 O5 2.046 1_544 S
Zn3 O7 2.055 . S
Zn3 N9 2.036 . S
Zn3 O27 2.066 . S
Zn3 O31 2.053 1_554 S
C4 O1 1.265 . S
C4 O5 1.254 . S
O5 Zn3 2.046 1_566 S
O5 C4 1.254 . S
C6 O27 1.256 . S
C6 O28 1.244 . S
O7 Zn3 2.055 . S
O7 C29 1.259 1_545 S
O8 Zn0 2.046 1_565 S
O8 C29 1.254 . S
N9 Zn3 2.036 . S
N9 C10 1.298 . S
N9 N12 1.398 1_554 S
C10 N9 1.298 . S
C10 N13 1.367 . S
C10 C23 1.481 . S
C11 N12 1.299 . S
C11 N13 1.379 1_556 S
N12 N9 1.398 1_556 S
N12 C11 1.299 . S
N13 C10 1.367 . S
N13 C11 1.379 1_554 S
C14 N16 1.298 . S
C14 N18 1.367 . S
C14 C22 1.481 1_554 S
C15 N17 1.299 . S
C15 N18 1.379 . S
N16 Zn0 2.036 . S
N16 C14 1.298 . S
N16 N17 1.398 . S
N17 C15 1.299 . S
N17 N16 1.398 . S
N18 C14 1.367 . S
N18 C15 1.379 . S
H19 C22 0.980 . S
H20 C22 0.981 . S
H21 C22 0.981 . S
C22 C14 1.481 1_556 S
C22 H19 0.980 . S
C22 H20 0.981 . S
C22 H21 0.981 . S
C23 C10 1.481 . S
C23 H24 0.980 . S
C23 H25 0.981 . S
C23 H26 0.981 . S
H24 C23 0.980 . S
H25 C23 0.981 . S
H26 C23 0.981 . S
O27 Zn3 2.066 . S
O27 C6 1.256 . S
O28 Zn0 2.053 . S
O28 C6 1.244 . S
C29 O7 1.259 1_565 S
C29 O8 1.254 . S
O30 Zn0 2.066 1_556 S
O30 C2 1.256 . S
O31 C2 1.244 . S
O31 Zn3 2.053 1_556 S
Zn32 O33 2.055 . S
Zn32 O40 2.046 . S
Zn32 N48 2.036 . S
Zn32 O60 2.053 1_455 S
Zn32 O62 2.066 1_455 S
O33 Zn32 2.055 . S
O33 C36 1.259 . S
C34 O62 1.256 . S
C34 O63 1.244 . S
Zn35 O37 2.046 . S
Zn35 O39 2.055 . S
Zn35 N41 2.036 . S
Zn35 O59 2.066 1_455 S
Zn35 O63 2.053 1_455 S
C36 O33 1.259 . S
C36 O37 1.254 . S
O37 Zn35 2.046 . S
O37 C36 1.254 . S
C38 O59 1.256 . S
C38 O60 1.244 . S
O39 Zn35 2.055 . S
O39 C61 1.259 . S
O40 Zn32 2.046 . S
O40 C61 1.254 . S
N41 Zn35 2.036 . S
N41 C42 1.298 . S
N41 N44 1.398 . S
C42 N41 1.298 . S
C42 N45 1.367 . S
C42 C55 1.481 . S
C43 N44 1.299 . S
C43 N45 1.379 . S
N44 N41 1.398 . S
N44 C43 1.299 . S
N45 C42 1.367 . S
N45 C43 1.379 . S
C46 N48 1.298 . S
C46 N50 1.367 . S
C46 C54 1.481 . S
C47 N49 1.299 . S
C47 N50 1.379 . S
N48 Zn32 2.036 . S
N48 C46 1.298 . S
N48 N49 1.398 . S
N49 C47 1.299 . S
N49 N48 1.398 . S
N50 C46 1.367 . S
N50 C47 1.379 . S
H51 C54 0.980 . S
H52 C54 0.981 . S
H53 C54 0.981 . S
C54 C46 1.481 . S
C54 H51 0.980 . S
C54 H52 0.981 . S
C54 H53 0.981 . S
C55 C42 1.481 . S
C55 H56 0.980 . S
C55 H57 0.981 . S
C55 H58 0.981 . S
H56 C55 0.980 . S
H57 C55 0.981 . S
H58 C55 0.981 . S
O59 Zn35 2.066 1_655 S
O59 C38 1.256 . S
O60 Zn32 2.053 1_655 S
O60 C38 1.244 . S
C61 O39 1.259 . S
C61 O40 1.254 . S
O62 Zn32 2.066 1_655 S
O62 C34 1.256 . S
O63 C34 1.244 . S
O63 Zn35 2.053 1_655 S
Zn64 O65 2.055 1_544 S
Zn64 O72 2.046 1_545 S
Zn64 N80 2.036 . S
Zn64 O92 2.053 . S
Zn64 O94 2.066 1_554 S
O65 Zn64 2.055 1_566 S
O65 C68 1.259 . S
C66 O94 1.256 . S
C66 O95 1.244 . S
Zn67 O69 2.046 1_545 S
Zn67 O71 2.055 1_546 S
Zn67 N73 2.036 . S
Zn67 O91 2.066 1_556 S
Zn67 O95 2.053 . S
C68 O65 1.259 . S
C68 O69 1.254 . S
O69 Zn67 2.046 1_565 S
O69 C68 1.254 . S
C70 O91 1.256 . S
C70 O92 1.244 . S
O71 Zn67 2.055 1_564 S
O71 C93 1.259 . S
O72 Zn64 2.046 1_565 S
O72 C93 1.254 . S
N73 Zn67 2.036 . S
N73 C74 1.298 1_556 S
N73 N76 1.398 . S
C74 N73 1.298 1_554 S
C74 N77 1.367 1_554 S
C74 C87 1.481 . S
C75 N76 1.299 . S
C75 N77 1.379 . S
N76 N73 1.398 . S
N76 C75 1.299 . S
N77 C74 1.367 1_556 S
N77 C75 1.379 . S
C78 N80 1.298 1_456 S
C78 N82 1.367 1_556 S
C78 C86 1.481 1_455 S
C79 N81 1.299 1_455 S
C79 N82 1.379 . S
N80 Zn64 2.036 . S
N80 C78 1.298 1_654 S
N80 N81 1.398 . S
N81 C79 1.299 1_655 S
N81 N80 1.398 . S
N82 C78 1.367 1_554 S
N82 C79 1.379 . S
H83 C86 0.980 . S
H84 C86 0.981 1_455 S
H85 C86 0.981 . S
C86 C78 1.481 1_655 S
C86 H83 0.980 . S
C86 H84 0.981 1_655 S
C86 H85 0.981 . S
C87 C74 1.481 . S
C87 H88 0.980 . S
C87 H89 0.981 . S
C87 H90 0.981 . S
H88 C87 0.980 . S
H89 C87 0.981 . S
H90 C87 0.981 . S
O91 Zn67 2.066 1_554 S
O91 C70 1.256 . S
O92 Zn64 2.053 . S
O92 C70 1.244 . S
C93 O71 1.259 . S
C93 O72 1.254 . S
O94 Zn64 2.066 1_556 S
O94 C66 1.256 . S
O95 C66 1.244 . S
O95 Zn67 2.053 . S
Zn96 O97 2.055 . S
Zn96 O104 2.046 . S
Zn96 N112 2.036 . S
Zn96 O124 2.053 1_455 S
Zn96 O126 2.066 1_455 S
O97 Zn96 2.055 . S
O97 C100 1.259 . S
C98 O126 1.256 . S
C98 O127 1.244 . S
Zn99 O101 2.046 . S
Zn99 O103 2.055 . S
Zn99 N105 2.036 . S
Zn99 O123 2.066 1_455 S
Zn99 O127 2.053 1_455 S
C100 O97 1.259 . S
C100 O101 1.254 . S
O101 Zn99 2.046 . S
O101 C100 1.254 . S
C102 O123 1.256 . S
C102 O124 1.244 . S
O103 Zn99 2.055 . S
O103 C125 1.259 . S
O104 Zn96 2.046 . S
O104 C125 1.254 . S
N105 Zn99 2.036 . S
N105 C106 1.298 . S
N105 N108 1.398 . S
C106 N105 1.298 . S
C106 N109 1.367 . S
C106 C119 1.481 . S
C107 N108 1.299 . S
C107 N109 1.379 . S
N108 N105 1.398 . S
N108 C107 1.299 . S
N109 C106 1.367 . S
N109 C107 1.379 . S
C110 N112 1.298 1_545 S
C110 N114 1.367 . S
C110 C118 1.481 . S
C111 N113 1.301 . S
C111 N114 1.383 . S
N112 Zn96 2.036 . S
N112 C110 1.298 1_565 S
N112 N113 1.398 1_565 S
N113 C111 1.301 . S
N113 N112 1.398 1_545 S
N114 C110 1.367 . S
N114 C111 1.383 . S
H115 C118 0.980 1_565 S
H116 C118 0.981 . S
H117 C118 0.981 . S
C118 C110 1.481 . S
C118 H115 0.980 1_545 S
C118 H116 0.981 . S
C118 H117 0.981 . S
C119 C106 1.481 . S
C119 H120 0.980 . S
C119 H121 0.981 . S
C119 H122 0.981 . S
H120 C119 0.980 . S
H121 C119 0.981 . S
H122 C119 0.981 . S
O123 Zn99 2.066 1_655 S
O123 C102 1.256 . S
O124 Zn96 2.053 1_655 S
O124 C102 1.244 . S
C125 O103 1.259 . S
C125 O104 1.254 . S
O126 Zn96 2.066 1_655 S
O126 C98 1.256 . S
O127 C98 1.244 . S
O127 Zn99 2.053 1_655 S
C128 C129 1.363 1_554 S
C128 C134 1.379 . S
C128 N136 1.356 . S
C129 C128 1.363 1_556 S
C129 C135 1.363 . S
C130 C131 1.368 . S
C130 C135 1.362 1_654 S
C130 N137 1.373 . S
C131 C130 1.368 . S
C131 C134 1.363 1_655 S
N132 C134 1.356 . S
N132 H144 0.984 . S
N132 H145 0.985 1_455 S
N133 C135 1.356 . S
N133 H138 0.984 . S
N133 H139 0.985 1_545 S
C134 C128 1.379 . S
C134 C131 1.363 1_455 S
C134 N132 1.356 . S
C135 C129 1.363 . S
C135 C130 1.362 1_456 S
C135 N133 1.356 . S
N136 C128 1.356 . S
N136 H142 0.984 . S
N136 H143 0.984 . S
N137 C130 1.373 . S
N137 H140 0.984 . S
N137 H141 0.985 1_544 S
H138 N133 0.984 . S
H139 N133 0.985 1_565 S
H140 N137 0.984 . S
H141 N137 0.985 1_566 S
H142 N136 0.984 . S
H143 N136 0.984 . S
H144 N132 0.984 . S
H145 N132 0.985 1_655 S
C146 C147 1.363 1_655 S
C146 C152 1.379 . S
C146 N154 1.356 . S
C147 C146 1.363 1_455 S
C147 C153 1.363 . S
C148 C149 1.363 . S
C148 C153 1.379 . S
C148 N155 1.356 . S
C149 C148 1.363 . S
C149 C152 1.363 1_455 S
N150 C152 1.356 1_565 S
N150 H162 0.984 . S
N150 H163 0.985 . S
N151 C153 1.356 . S
N151 H156 0.984 . S
N151 H157 0.985 . S
C152 C146 1.379 . S
C152 C149 1.363 1_655 S
C152 N150 1.356 1_545 S
C153 C147 1.363 . S
C153 C148 1.379 . S
C153 N151 1.356 . S
N154 C146 1.356 . S
N154 H160 0.984 . S
N154 H161 0.984 . S
N155 C148 1.356 . S
N155 H158 0.984 . S
N155 H159 0.985 . S
H156 N151 0.984 . S
H157 N151 0.985 . S
H158 N155 0.984 . S
H159 N155 0.985 . S
H160 N154 0.984 . S
H161 N154 0.984 . S
H162 N150 0.984 . S
H163 N150 0.985 . S
C164 C165 1.363 . S
C164 C170 1.379 . S
C164 N172 1.356 1_544 S
C165 C164 1.363 . S
C165 C171 1.363 . S
C166 C167 1.363 . S
C166 C171 1.379 . S
C166 N173 1.356 . S
C167 C166 1.363 . S
C167 C170 1.363 . S
N168 C170 1.356 1_565 S
N168 H180 0.984 . S
N168 H181 0.985 1_565 S
N169 C171 1.356 . S
N169 H174 0.984 . S
N169 H175 0.985 . S
C170 C164 1.379 . S
C170 C167 1.363 . S
C170 N168 1.356 1_545 S
C171 C165 1.363 . S
C171 C166 1.379 . S
C171 N169 1.356 . S
N172 C164 1.356 1_566 S
N172 H178 0.984 . S
N172 H179 0.984 . S
N173 C166 1.356 . S
N173 H176 0.984 . S
N173 H177 0.985 . S
H174 N169 0.984 . S
H175 N169 0.985 . S
H176 N173 0.984 . S
H177 N173 0.985 . S
H178 N172 0.984 . S
H179 N172 0.984 . S
H180 N168 0.984 . S
H181 N168 0.985 1_545 S
C182 C183 1.353 1_655 S
C182 C188 1.379 . S
C182 N190 1.364 . S
C183 C182 1.353 1_455 S
C183 C189 1.363 . S
C184 C185 1.363 . S
C184 C189 1.379 . S
C184 N191 1.356 . S
C185 C184 1.363 . S
C185 C188 1.363 1_455 S
N186 C188 1.356 . S
N186 H198 0.984 . S
N186 H199 0.985 . S
N187 C189 1.356 . S
N187 H192 0.984 . S
N187 H193 0.985 . S
C188 C182 1.379 . S
C188 C185 1.363 1_655 S
C188 N186 1.356 . S
C189 C183 1.363 . S
C189 C184 1.379 . S
C189 N187 1.356 . S
N190 C182 1.364 . S
N190 H196 0.984 . S
N190 H197 0.984 . S
N191 C184 1.356 . S
N191 H194 0.984 . S
N191 H195 0.985 . S
H192 N187 0.984 . S
H193 N187 0.985 . S
H194 N191 0.984 . S
H195 N191 0.985 . S
H196 N190 0.984 . S
H197 N190 0.984 . S
H198 N186 0.984 . S
H199 N186 0.985 . S
C200 C201 1.363 . S
C200 C206 1.379 . S
C200 N208 1.356 . S
C201 C200 1.363 . S
C201 C207 1.363 . S
C202 C203 1.363 . S
C202 C207 1.379 . S
C202 N209 1.356 . S
C203 C202 1.363 . S
C203 C206 1.363 . S
N204 C206 1.356 . S
N204 H216 0.984 . S
N204 H217 0.985 . S
N205 C207 1.356 . S
N205 H210 0.984 . S
N205 H211 0.985 . S
C206 C200 1.379 . S
C206 C203 1.363 . S
C206 N204 1.356 . S
C207 C201 1.363 . S
C207 C202 1.379 . S
C207 N205 1.356 . S
N208 C200 1.356 . S
N208 H214 0.984 . S
N208 H215 0.984 . S
N209 C202 1.356 . S
N209 H212 0.984 . S
N209 H213 0.985 . S
H210 N205 0.984 . S
H211 N205 0.985 . S
H212 N209 0.984 . S
H213 N209 0.985 . S
H214 N208 0.984 . S
H215 N208 0.984 . S
H216 N204 0.984 . S
H217 N204 0.985 . S
C218 C219 1.363 . S
C218 C224 1.379 . S
C218 N226 1.356 . S
C219 C218 1.363 . S
C219 C225 1.363 . S
C220 C221 1.363 . S
C220 C225 1.379 . S
C220 N227 1.356 . S
C221 C220 1.363 . S
C221 C224 1.363 . S
N222 C224 1.356 . S
N222 H234 0.984 . S
N222 H235 0.985 . S
N223 C225 1.356 . S
N223 H228 0.984 . S
N223 H229 0.985 . S
C224 C218 1.379 . S
C224 C221 1.363 . S
C224 N222 1.356 . S
C225 C219 1.363 . S
C225 C220 1.379 . S
C225 N223 1.356 . S
N226 C218 1.356 . S
N226 H232 0.984 1_655 S
N226 H233 0.987 . S
N227 C220 1.356 . S
N227 H230 0.984 . S
N227 H231 0.985 . S
H228 N223 0.984 . S
H229 N223 0.985 . S
H230 N227 0.984 . S
H231 N227 0.985 . S
H232 N226 0.984 1_455 S
H233 N226 0.987 . S
H234 N222 0.984 . S
H235 N222 0.985 . S
C236 C237 1.363 . S
C236 C242 1.379 . S
C236 N244 1.356 . S
C237 C236 1.363 . S
C237 C243 1.363 . S
C238 C239 1.363 . S
C238 C243 1.379 . S
C238 N245 1.356 . S
C239 C238 1.363 . S
C239 C242 1.363 . S
N240 C242 1.356 . S
N240 H252 0.984 . S
N240 H253 0.985 . S
N241 C243 1.356 . S
N241 H246 0.984 . S
N241 H247 0.985 . S
C242 C236 1.379 . S
C242 C239 1.363 . S
C242 N240 1.356 . S
C243 C237 1.363 . S
C243 C238 1.379 . S
C243 N241 1.356 . S
N244 C236 1.356 . S
N244 H250 0.984 1_655 S
N244 H251 0.984 . S
N245 C238 1.356 . S
N245 H248 0.984 . S
N245 H249 0.985 . S
H246 N241 0.984 . S
H247 N241 0.985 . S
H248 N245 0.984 . S
H249 N245 0.985 . S
H250 N244 0.984 1_455 S
H251 N244 0.984 . S
H252 N240 0.984 . S
H253 N240 0.985 . S
C254 C255 1.363 . S
C254 C260 1.379 . S
C254 N262 1.356 . S
C255 C254 1.363 . S
C255 C261 1.363 . S
C256 C257 1.363 . S
C256 C261 1.379 . S
C256 N263 1.356 . S
C257 C256 1.363 . S
C257 C260 1.363 . S
N258 C260 1.356 . S
N258 H270 0.984 . S
N258 H271 0.985 . S
N259 C261 1.356 . S
N259 H264 0.984 . S
N259 H265 0.985 . S
C260 C254 1.379 . S
C260 C257 1.363 . S
C260 N258 1.356 . S
C261 C255 1.363 . S
C261 C256 1.379 . S
C261 N259 1.356 . S
N262 C254 1.356 . S
N262 H268 0.984 . S
N262 H269 0.984 . S
N263 C256 1.356 . S
N263 H266 0.984 . S
N263 H267 0.985 . S
H264 N259 0.984 . S
H265 N259 0.985 . S
H266 N263 0.984 . S
H267 N263 0.985 . S
H268 N262 0.984 . S
H269 N262 0.984 . S
H270 N258 0.984 . S
H271 N258 0.985 . S
C272 C273 1.363 . S
C272 C278 1.379 . S
C272 N280 1.356 . S
C273 C272 1.363 . S
C273 C279 1.363 . S
C274 C275 1.363 . S
C274 C279 1.379 . S
C274 N281 1.356 . S
C275 C274 1.363 . S
C275 C278 1.363 . S
N276 C278 1.356 . S
N276 H288 0.984 . S
N276 H289 0.985 . S
N277 C279 1.356 . S
N277 H282 0.984 . S
N277 H283 0.985 . S
C278 C272 1.379 . S
C278 C275 1.363 . S
C278 N276 1.356 . S
C279 C273 1.363 . S
C279 C274 1.379 . S
C279 N277 1.356 . S
N280 C272 1.356 . S
N280 H286 0.984 . S
N280 H287 0.984 . S
N281 C274 1.356 . S
N281 H284 0.984 . S
N281 H285 0.985 . S
H282 N277 0.984 . S
H283 N277 0.985 . S
H284 N281 0.984 . S
H285 N281 0.985 . S
H286 N280 0.984 . S
H287 N280 0.984 . S
H288 N276 0.984 . S
H289 N276 0.985 . S
C290 C291 1.363 . S
C290 C296 1.379 . S
C290 N298 1.356 . S
C291 C290 1.363 . S
C291 C297 1.363 . S
C292 C293 1.363 . S
C292 C297 1.379 . S
C292 N299 1.356 . S
C293 C292 1.363 . S
C293 C296 1.363 . S
N294 C296 1.356 . S
N294 H306 0.984 . S
N294 H307 0.985 . S
N295 C297 1.356 . S
N295 H300 0.984 . S
N295 H301 0.985 . S
C296 C290 1.379 . S
C296 C293 1.363 . S
C296 N294 1.356 . S
C297 C291 1.363 . S
C297 C292 1.379 . S
C297 N295 1.356 . S
N298 C290 1.356 . S
N298 H304 0.984 . S
N298 H305 0.984 . S
N299 C292 1.356 . S
N299 H302 0.984 . S
N299 H303 0.985 . S
H300 N295 0.984 . S
H301 N295 0.985 . S
H302 N299 0.984 . S
H303 N299 0.985 . S
H304 N298 0.984 . S
H305 N298 0.984 . S
H306 N294 0.984 . S
H307 N294 0.985 . S
C308 C309 1.363 . S
C308 C314 1.379 . S
C308 N316 1.356 . S
C309 C308 1.363 . S
C309 C315 1.363 . S
C310 C311 1.363 . S
C310 C315 1.379 . S
C310 N317 1.356 . S
C311 C310 1.363 . S
C311 C314 1.363 . S
N312 C314 1.356 . S
N312 H324 0.984 . S
N312 H325 0.985 . S
N313 C315 1.356 . S
N313 H318 0.984 . S
N313 H319 0.985 . S
C314 C308 1.379 . S
C314 C311 1.363 . S
C314 N312 1.356 . S
C315 C309 1.363 . S
C315 C310 1.379 . S
C315 N313 1.356 . S
N316 C308 1.356 . S
N316 H322 0.984 . S
N316 H323 0.984 . S
N317 C310 1.356 . S
N317 H320 0.984 . S
N317 H321 0.985 . S
H318 N313 0.984 . S
H319 N313 0.985 . S
H320 N317 0.984 . S
H321 N317 0.985 . S
H322 N316 0.984 . S
H323 N316 0.984 . S
H324 N312 0.984 . S
H325 N312 0.985 . S
C326 C327 1.363 . S
C326 C332 1.379 . S
C326 N334 1.356 . S
C327 C326 1.363 . S
C327 C333 1.363 . S
C328 C329 1.363 . S
C328 C333 1.379 . S
C328 N335 1.356 . S
C329 C328 1.363 . S
C329 C332 1.363 . S
N330 C332 1.356 . S
N330 H342 0.984 . S
N330 H343 0.985 . S
N331 C333 1.356 . S
N331 H336 0.984 . S
N331 H337 0.985 . S
C332 C326 1.379 . S
C332 C329 1.363 . S
C332 N330 1.356 . S
C333 C327 1.363 . S
C333 C328 1.379 . S
C333 N331 1.356 . S
N334 C326 1.356 . S
N334 H340 0.984 . S
N334 H341 0.984 . S
N335 C328 1.356 . S
N335 H338 0.984 1_655 S
N335 H339 0.985 1_655 S
H336 N331 0.984 . S
H337 N331 0.985 . S
H338 N335 0.984 1_455 S
H339 N335 0.985 1_455 S
H340 N334 0.984 . S
H341 N334 0.984 . S
H342 N330 0.984 . S
H343 N330 0.985 . S
C129 N82 1.004 1_556 S
C131 N13 1.006 1_655 S
C147 N114 1.005 . S
C149 N45 1.004 . S
C165 N77 1.226 1_554 S
C167 N18 1.224 . S
C183 N50 1.226 . S
C185 N109 1.224 . S
C201 C36 1.929 . S
C203 C6 1.933 . S
C219 C38 2.214 . S
C221 C66 2.214 . S
C237 C98 1.933 . S
C239 C93 1.929 . S
C255 C125 1.675 . S
C257 C4 1.675 . S
C273 C68 2.045 . S
C275 C102 2.067 . S
C291 C29 2.119 . S
C293 C100 2.119 . S
C309 C61 2.044 . S
C311 C2 2.066 . S
C327 C70 1.996 . S
C329 C34 1.996 . S
