# Generated by pormake.
# Topology sxc, (6)-cn, num edge types: 1
# Building blocks:
#     Node 0, Type 0, BuildingBlock: BETFEN_clean_sbu_0, # of connection points: 6
#     Node 1, Type 0, BuildingBlock: BETFEN_clean_sbu_0, # of connection points: 6
#     Node 2, Type 0, BuildingBlock: BETFEN_clean_sbu_0, # of connection points: 6
#     Edge 3, Type (0, 0), BuildingBlock: KIFKEQ_clean_linker_1, # of connection points: 2
#     Edge 4, Type (0, 0), BuildingBlock: KIFKEQ_clean_linker_1, # of connection points: 2
#     Edge 5, Type (0, 0), BuildingBlock: KIFKEQ_clean_linker_1, # of connection points: 2
#     Edge 6, Type (0, 0), BuildingBlock: KIFKEQ_clean_linker_1, # of connection points: 2
#     Edge 7, Type (0, 0), BuildingBlock: KIFKEQ_clean_linker_1, # of connection points: 2
#     Edge 8, Type (0, 0), BuildingBlock: KIFKEQ_clean_linker_1, # of connection points: 2
#     Edge 9, Type (0, 0), BuildingBlock: KIFKEQ_clean_linker_1, # of connection points: 2
#     Edge 10, Type (0, 0), BuildingBlock: KIFKEQ_clean_linker_1, # of connection points: 2
#     Edge 11, Type (0, 0), BuildingBlock: KIFKEQ_clean_linker_1, # of connection points: 2
# Relax obj value: 0.315
# Max RMSD: 0.160
# Mean RMSD: 0.087
data_MOF--net-sxc--node1-BETFEN_clean_sbu_0--edge1-KIFKEQ_clean_linker_1
_symmetry_space_group_name_H-M    P1
_symmetry_Int_Tables_number       1
_symmetry_cell_setting            triclinic
loop_
_symmetry_equiv_pos_as_xyz
'x, y, z'
_cell_length_a     16.105194
_cell_length_b     16.776192
_cell_length_c     45.886785
_cell_angle_alpha  93.653818
_cell_angle_beta   91.789473
_cell_angle_gamma 89.220401
loop_
_atom_site_label
_atom_site_type_symbol
_atom_site_fract_x
_atom_site_fract_y
_atom_site_fract_z
_atom_type_partial_charge
Pr0 Pr 0.18822 0.17779 0.01104 0.0
Pr1 Pr 1.01858 0.18945 0.01758 0.0
C2 C 0.34697 0.19347 -0.00417 0.0
C3 C 0.39425 0.26343 0.98892 0.0
C4 C 0.47642 0.27232 -0.00055 0.0
C5 C 0.51609 0.34551 -0.00182 0.0
C6 C 0.47352 0.41056 0.98657 0.0
C7 C 0.39322 0.39976 0.97434 0.0
C8 C 0.35381 0.32679 0.97553 0.0
C9 C 0.14804 0.16893 0.0698 0.0
C10 C 0.10279 0.3672 0.01658 0.0
C11 C 0.85896 0.17289 0.03154 0.0
C12 C 0.80422 1.10309 0.03129 0.0
C13 C 0.74404 1.09055 0.00873 0.0
C14 C 0.70183 1.01837 0.00522 0.0
C15 C 0.71834 0.95774 0.02445 0.0
C16 C 0.77441 0.97257 0.0482 0.0
C17 C 0.81713 1.04442 0.05155 0.0
C18 C 1.05912 0.19897 0.95887 0.0
C19 C 0.10398 0.99935 0.01272 0.0
O20 O 0.28753 0.17126 0.97716 0.0
O21 O 0.32467 0.19351 0.02291 0.0
O22 O 0.11855 0.22046 0.05319 0.0
O23 O 0.19703 1.1188 0.05589 0.0
O24 O 1.03712 0.33035 0.02563 0.0
O25 O 0.16629 0.32157 0.00728 0.0
O26 O 0.92013 0.17632 0.05097 0.0
O27 O 0.88119 0.19338 0.00598 0.0
O28 O 0.08813 1.14708 0.97543 0.0
O29 O 1.01018 0.24896 0.97283 0.0
O30 O 0.17241 1.03614 0.0061 0.0
O31 O 1.03774 1.04471 0.0194 0.0
H32 H 0.5082 0.22414 0.01004 0.0
H33 H 0.57795 0.35261 0.00788 0.0
H34 H 0.35966 0.44881 0.96494 0.0
H35 H 0.29026 0.3213 0.96728 0.0
H36 H 0.73249 1.13507 0.99294 0.0
H37 H 0.65928 1.00881 0.98663 0.0
H38 H 0.78689 0.92784 0.06382 0.0
H39 H 0.86244 1.0525 0.0694 0.0
Pr40 Pr 0.09562 0.25058 0.34885 0.0
Pr41 Pr 0.10422 1.09185 0.34614 0.0
C42 C 0.11157 0.39991 0.33314 0.0
C43 C 0.11835 0.4204 0.3026 0.0
C44 C 1.07234 0.48435 0.29213 0.0
C45 C 1.07114 0.49779 0.2624 0.0
C46 C 0.11563 0.44719 0.24251 0.0
C47 C 0.16166 0.38306 0.25308 0.0
C48 C 0.16258 0.3695 0.28281 0.0
C49 C 0.08035 0.2038 0.40639 0.0
C50 C 0.91881 0.16847 0.34919 0.0
C51 C 0.09161 0.93391 0.33632 0.0
C52 C 0.11328 0.891 0.30849 0.0
C53 C 1.05358 0.84394 0.29295 0.0
C54 C 1.06693 0.81605 0.26411 0.0
C55 C 0.14024 0.83489 0.25019 0.0
C56 C 0.20054 0.88101 0.26593 0.0
C57 C 0.18716 0.90888 0.29475 0.0
C58 C 0.12685 0.14982 0.29035 0.0
C59 C 0.28362 0.16659 0.35348 0.0
O60 O 0.17401 0.35958 0.34383 0.0
O61 O 1.03983 0.37164 0.33955 0.0
O62 O 0.13093 0.17229 0.38836 0.0
O63 O 1.0381 0.26134 0.39527 0.0
O64 O 0.96592 1.11416 0.36126 0.0
O65 O 0.95594 0.22527 0.3364 0.0
O66 O 0.15285 0.96614 0.35208 0.0
O67 O 1.02745 0.98173 0.33434 0.0
O68 O 1.06932 0.17091 0.30722 0.0
O69 O 0.17773 1.10233 0.30301 0.0
O70 O 0.2406 0.22689 0.34335 0.0
O71 O 0.24309 1.10474 0.36152 0.0
H72 H 1.03676 0.52342 0.30689 0.0
H73 H 1.03693 0.54928 0.25512 0.0
H74 H 0.19676 0.34337 0.2384 0.0
H75 H 0.19715 0.31841 0.29023 0.0
H76 H 0.99557 0.83063 0.30285 0.0
H77 H 1.02025 0.77866 0.25283 0.0
H78 H 0.25774 0.89611 0.25588 0.0
H79 H 0.2338 0.94648 0.30593 0.0
Pr80 Pr 0.09524 1.08818 0.68347 0.0
Pr81 Pr 0.08557 0.25791 0.68026 0.0
C82 C 1.07592 0.93399 0.69454 0.0
C83 C 1.00625 0.87926 0.68843 0.0
C84 C 1.02051 0.80127 0.67656 0.0
C85 C 0.95351 0.75319 0.66689 0.0
C86 C 0.87196 0.78344 0.66859 0.0
C87 C 0.8579 0.86033 0.6814 0.0
C88 C 0.92439 0.90762 0.6914 0.0
C89 C 0.1071 1.13186 0.62563 0.0
C90 C 0.9054 0.17542 0.67877 0.0
C91 C 0.10598 0.41161 0.66898 0.0
C92 C 0.17488 0.4546 0.65732 0.0
C93 C 0.19609 0.52999 0.66991 0.0
C94 C 0.26934 0.56596 0.66242 0.0
C95 C 0.32239 0.52711 0.64206 0.0
C96 C 0.2985 0.45327 0.62838 0.0
C97 C 0.22565 0.41703 0.63609 0.0
C98 C 1.06994 0.21233 0.73763 0.0
C99 C 0.2724 0.17211 0.68303 0.0
O100 O 1.06353 0.99313 0.71395 0.0
O101 O 0.11292 0.95605 0.67152 0.0
O102 O 1.05566 0.16154 0.64372 0.0
O103 O 0.15383 1.07804 0.63721 0.0
O104 O 0.94313 0.24168 0.67349 0.0
O105 O 0.94911 1.11092 0.68486 0.0
O106 O 1.06782 0.36016 0.65083 0.0
O107 O 0.12054 0.38474 0.69475 0.0
O108 O 0.12424 0.18473 0.72018 0.0
O109 O 1.02116 0.26333 0.72534 0.0
O110 O 0.23497 1.11335 0.69474 0.0
O111 O 0.22743 0.22891 0.67134 0.0
H112 H 0.08333 0.77856 0.67397 0.0
H113 H 0.9654 0.69372 0.6572 0.0
H114 H 0.79531 0.88416 0.68342 0.0
H115 H 0.91168 0.96719 0.70073 0.0
H116 H 0.15799 0.55934 0.68654 0.0
H117 H 0.28636 0.62225 0.67374 0.0
H118 H 0.33731 0.42233 0.61234 0.0
H119 H 0.21072 0.35833 0.62624 0.0
H120 H 0.22216 0.46847 -0.00434 0.0
H121 H 0.9855 0.48082 0.03661 0.0
H122 H 0.22178 0.61364 -0.00585 0.0
H123 H 0.98542 0.62599 0.03616 0.0
H124 H 0.97138 0.89546 0.02035 0.0
H125 H 0.97068 0.74991 0.02076 0.0
H126 H 0.23509 0.74357 0.00782 0.0
H127 H 0.2342 0.88838 0.00635 0.0
C128 C 0.16981 0.50178 0.0046 0.0
C129 C 0.1039 0.45989 0.01624 0.0
C130 C 0.16954 0.58704 0.00393 0.0
C131 C 0.10343 0.63643 0.01502 0.0
C132 C 1.03776 0.59382 0.0268 0.0
C133 C 1.03794 0.50863 0.02729 0.0
C134 C 1.02964 0.86333 0.01748 0.0
C135 C 0.10277 0.90668 0.01319 0.0
C136 C 1.02962 0.77798 0.01791 0.0
C137 C 0.10296 0.73011 0.01436 0.0
C138 C 0.17605 0.77427 0.01022 0.0
C139 C 0.17583 0.85938 0.00954 0.0
H140 H 0.38676 0.29221 0.34616 0.0
H141 H 0.39213 1.0415 0.362 0.0
H142 H 0.53794 0.29283 0.3463 0.0
H143 H 0.54343 1.04076 0.36085 0.0
H144 H 0.82098 1.07594 0.38154 0.0
H145 H 0.66968 1.07639 0.38383 0.0
H146 H 0.65461 0.25614 0.32038 0.0
H147 H 0.80541 0.25785 0.31922 0.0
C148 C 0.4202 0.23695 0.34954 0.0
C149 C 0.37671 0.16688 0.35412 0.0
C150 C 0.50748 0.23701 0.34937 0.0
C151 C 0.55451 0.16669 0.35339 0.0
C152 C 0.5106 1.09662 0.35811 0.0
C153 C 0.42326 1.09684 0.35861 0.0
C154 C 0.78529 1.11563 0.36812 0.0
C155 C 0.82592 0.16701 0.35027 0.0
C156 C 0.69799 1.11562 0.36926 0.0
C157 C 0.64833 0.16646 0.35235 0.0
C158 C 0.68954 0.21722 0.33429 0.0
C159 C 0.77666 0.2178 0.33341 0.0
H160 H 0.75481 0.82768 0.62899 0.0
H161 H 0.82858 0.63441 0.68219 0.0
H162 H 0.62586 0.75923 0.61469 0.0
H163 H 0.69808 0.56705 0.66912 0.0
H164 H 0.46947 0.44515 0.6356 0.0
H165 H 0.60797 0.50022 0.63417 0.0
H166 H 0.50231 0.73894 0.63909 0.0
H167 H 0.36381 0.68374 0.63834 0.0
C168 C 0.74336 0.77001 0.63737 0.0
C169 C 0.80061 0.73633 0.65686 0.0
C170 C 0.6695 0.73103 0.62936 0.0
C171 C 0.65085 0.65826 0.64112 0.0
C172 C 0.71063 0.62257 0.65938 0.0
C173 C 0.78521 0.66113 0.66703 0.0
C174 C 0.47556 0.50933 0.63539 0.0
C175 C 0.40547 0.56015 0.63733 0.0
C176 C 0.55519 0.54092 0.63501 0.0
C177 C 0.56654 0.624 0.63688 0.0
C178 C 0.49614 0.67461 0.63732 0.0
C179 C 0.41655 0.64302 0.63735 0.0
H180 H 0.80249 1.04559 0.6778 0.0
H181 H 0.79723 0.30299 0.67905 0.0
H182 H 0.65121 1.04455 0.67807 0.0
H183 H 0.64627 0.3025 0.68017 0.0
H184 H 0.37099 0.27521 0.65569 0.0
H185 H 0.52203 0.27475 0.65353 0.0
H186 H 0.53544 1.07211 0.7072 0.0
H187 H 0.38444 1.07108 0.70845 0.0
C188 C 0.76921 1.10204 0.6784 0.0
C189 C 0.81259 0.17427 0.67854 0.0
C190 C 0.68201 1.10161 0.67867 0.0
C191 C 0.63541 0.1735 0.67927 0.0
C192 C 0.67913 0.24571 0.67925 0.0
C193 C 0.76621 0.24604 0.67877 0.0
C194 C 0.40612 0.23048 0.66702 0.0
C195 C 0.36507 0.1731 0.68221 0.0
C196 C 0.4932 0.23044 0.66594 0.0
C197 C 0.54204 0.17331 0.68017 0.0
C198 C 0.50064 1.11624 0.69548 0.0
C199 C 0.41362 1.11601 0.69641 0.0
H200 H 0.79328 0.81255 0.03067 0.0
H201 H 0.56004 0.9219 0.00478 0.0
H202 H 0.73352 0.6811 0.0209 0.0
H203 H 0.50202 0.79024 0.99301 0.0
H204 H 0.39665 0.546 0.00752 0.0
H205 H 0.45551 0.6782 0.01638 0.0
H206 H 0.68882 0.58991 0.98202 0.0
H207 H 0.63002 0.45646 0.97408 0.0
C208 C 0.72908 0.80857 0.023 0.0
C209 C 0.68113 0.87778 0.01877 0.0
C210 C 0.6953 0.7331 0.01688 0.0
C211 C 0.61308 0.72505 0.00605 0.0
C212 C 0.56526 0.79427 0.00166 0.0
C213 C 0.59878 0.8698 0.0081 0.0
C214 C 0.46023 0.55519 0.00155 0.0
C215 C 0.50885 0.49138 0.98998 0.0
C216 C 0.49396 0.63096 0.00656 0.0
C217 C 0.57687 0.64477 -0.00012 0.0
C218 C 0.62514 0.58099 0.98786 0.0
C219 C 0.59155 0.50479 0.98315 0.0
H220 H 0.99096 0.49574 0.20523 0.0
H221 H 0.254 0.44438 0.20857 0.0
H222 H 1.01225 0.59362 0.17012 0.0
H223 H 0.27481 0.54005 0.17208 0.0
H224 H 1.03563 0.8228 0.20152 0.0
H225 H 1.04476 0.71806 0.16257 0.0
H226 H 0.29386 0.66125 0.1933 0.0
H227 H 0.28481 0.76577 0.23116 0.0
C228 C 1.05322 0.50362 0.19768 0.0
C229 C 0.12179 0.46892 0.21183 0.0
C230 C 1.06603 0.56 0.17725 0.0
C231 C 0.14771 0.58513 0.17262 0.0
C232 C 0.21199 0.52996 0.17858 0.0
C233 C 0.20008 0.47425 0.19945 0.0
C234 C 0.09303 0.78884 0.19931 0.0
C235 C 0.15702 0.79784 0.22072 0.0
C236 C 0.09852 0.72849 0.17696 0.0
C237 C 0.16524 0.67307 0.17731 0.0
C238 C 0.2375 0.69694 0.19372 0.0
C239 C 0.2327 0.75777 0.2158 0.0
H240 H 1.00872 0.22205 0.25537 0.0
H241 H 0.24914 1.1057 0.25326 0.0
H242 H 1.01009 0.23111 0.20212 0.0
H243 H 0.25184 1.11635 0.20079 0.0
H244 H 0.0787 0.28672 0.10681 0.0
H245 H 1.07243 0.28895 0.16035 0.0
H246 H 0.18714 1.05443 0.15853 0.0
H247 H 0.19567 1.05375 0.1058 0.0
C248 C 1.06204 0.19899 0.24358 0.0
C249 C 0.12831 0.16213 0.25851 0.0
C250 C 1.06311 0.20451 0.21306 0.0
C251 C 0.13042 0.17311 0.19684 0.0
C252 C 0.19779 1.13922 0.21219 0.0
C253 C 0.19657 1.13357 0.24245 0.0
C254 C 0.10236 0.23577 0.11797 0.0
C255 C 0.13851 0.17041 0.10204 0.0
C256 C 0.09848 0.23682 0.14866 0.0
C257 C 0.13034 0.17233 0.16405 0.0
C258 C 0.16401 1.10625 0.14777 0.0
C259 C 0.1684 1.10552 0.11736 0.0
H260 H 0.20315 1.1307 0.43822 0.0
H261 H 0.96574 0.25018 0.44684 0.0
H262 H 0.21137 1.1168 0.49077 0.0
H263 H 0.97077 0.23235 0.49915 0.0
H264 H 1.03032 0.25284 0.59696 0.0
H265 H 1.02577 0.27146 0.54456 0.0
H266 H 0.16699 1.05224 0.52966 0.0
H267 H 0.17538 1.03712 0.58197 0.0
C268 C 0.15207 0.15311 0.45135 0.0
C269 C 0.08389 0.19176 0.43831 0.0
C270 C 0.15636 1.14468 0.48163 0.0
C271 C 0.09171 0.17325 0.49979 0.0
C272 C 1.02291 0.21093 0.48642 0.0
C273 C 1.01944 0.22062 0.45623 0.0
C274 C 1.06062 0.20895 0.58239 0.0
C275 C 0.10329 1.14359 0.59369 0.0
C276 C 1.05752 0.21914 0.55218 0.0
C277 C 0.09585 0.16339 0.53229 0.0
C278 C 0.13808 1.09774 0.54388 0.0
C279 C 0.14241 1.08848 0.57406 0.0
H280 H 0.18956 1.14088 0.77226 0.0
H281 H 0.95069 0.25993 0.77558 0.0
H282 H 0.19182 1.13487 0.82565 0.0
H283 H 0.95127 0.25187 0.82822 0.0
H284 H 1.00961 0.31372 0.92294 0.0
H285 H 1.01629 0.31288 0.87016 0.0
H286 H 0.13375 1.07958 0.86813 0.0
H287 H 0.12922 1.08199 0.92168 0.0
C288 C 0.1372 0.16496 0.78434 0.0
C289 C 1.07038 0.20174 0.76966 0.0
C290 C 0.13825 0.1613 0.81497 0.0
C291 C 1.07235 0.19409 0.83161 0.0
C292 C 1.00441 0.22802 0.81653 0.0
C293 C 1.00369 0.23212 0.78616 0.0
C294 C 1.0371 0.26219 0.91132 0.0
C295 C 1.06811 0.19762 0.92659 0.0
C296 C 1.04041 0.26134 0.88086 0.0
C297 C 1.07414 0.19547 0.86447 0.0
C298 C 0.10744 1.13151 0.87984 0.0
C299 C 0.10457 1.13265 0.91056 0.0
loop_
_geom_bond_atom_site_label_1
_geom_bond_atom_site_label_2
_geom_bond_distance
_geom_bond_site_symmetry_2
_ccdc_geom_bond_type
Pr0 C2 2.880 . S
Pr0 O20 2.562 1_554 S
Pr0 O21 2.490 . S
Pr0 O22 2.695 1_455 S
Pr0 O23 2.512 . S
Pr0 O25 2.437 . S
Pr0 O28 2.436 1_554 S
Pr0 O30 2.438 1_545 S
Pr1 C11 2.876 1_556 S
Pr1 O22 2.436 1_566 S
Pr1 O24 2.438 1_566 S
Pr1 O26 2.562 1_556 S
Pr1 O27 2.490 . S
Pr1 O28 2.695 1_665 S
Pr1 O29 2.512 . S
Pr1 O31 2.437 . S
C2 Pr0 2.880 . S
C2 C3 1.491 . S
C2 O20 1.254 1_554 S
C2 O21 1.225 . S
C3 C2 1.491 . S
C3 C4 1.392 . S
C3 C8 1.356 1_554 S
C4 C3 1.392 . S
C4 C5 1.368 . S
C4 H32 0.929 . S
C5 C4 1.368 . S
C5 C6 1.405 . S
C5 H33 0.929 . S
C6 C5 1.405 . S
C6 C7 1.356 1_554 S
C7 C6 1.356 1_556 S
C7 C8 1.409 . S
C7 H34 0.931 . S
C8 C3 1.356 1_556 S
C8 C7 1.409 . S
C8 H35 0.930 . S
C9 O22 1.270 1_455 S
C9 O23 1.248 . S
C10 O24 1.270 . S
C10 O25 1.278 1_655 S
C11 Pr1 2.876 1_554 S
C11 C12 1.494 . S
C11 O26 1.272 . S
C11 O27 1.204 1_554 S
C12 C11 1.494 . S
C12 C13 1.392 1_554 S
C12 C17 1.356 . S
C13 C12 1.392 1_556 S
C13 C14 1.368 . S
C13 H36 0.929 . S
C14 C13 1.368 . S
C14 C15 1.386 1_556 S
C14 H37 0.929 . S
C15 C14 1.386 1_554 S
C15 C16 1.373 . S
C16 C15 1.373 . S
C16 C17 1.409 . S
C16 H38 0.931 . S
C17 C12 1.356 . S
C17 C16 1.409 . S
C17 H39 0.930 . S
C18 O28 1.270 1_655 S
C18 O29 1.248 1_545 S
C19 O30 1.267 1_556 S
C19 O31 1.278 1_455 S
O20 Pr0 2.562 1_556 S
O20 C2 1.254 1_556 S
O21 Pr0 2.490 . S
O21 C2 1.225 . S
O22 Pr0 2.695 1_655 S
O22 Pr1 2.436 1_544 S
O22 C9 1.270 1_655 S
O23 Pr0 2.512 . S
O23 C9 1.248 . S
O24 Pr1 2.438 1_544 S
O24 C10 1.270 . S
O25 Pr0 2.437 . S
O25 C10 1.278 1_455 S
O26 Pr1 2.562 1_554 S
O26 C11 1.272 . S
O27 Pr1 2.490 . S
O27 C11 1.204 1_556 S
O28 Pr0 2.436 1_556 S
O28 Pr1 2.695 1_445 S
O28 C18 1.270 1_455 S
O29 Pr1 2.512 . S
O29 C18 1.248 1_565 S
O30 Pr0 2.438 1_565 S
O30 C19 1.267 1_554 S
O31 Pr1 2.437 . S
O31 C19 1.278 1_655 S
H32 C4 0.929 . S
H33 C5 0.929 . S
H34 C7 0.931 . S
H35 C8 0.930 . S
H36 C13 0.929 . S
H37 C14 0.929 . S
H38 C16 0.931 . S
H39 C17 0.930 . S
Pr40 C42 2.880 . S
Pr40 O60 2.562 . S
Pr40 O61 2.490 . S
Pr40 O62 2.695 . S
Pr40 O63 2.512 . S
Pr40 O65 2.437 1_455 S
Pr40 O68 2.436 . S
Pr40 O70 2.438 . S
Pr41 C51 2.880 1_655 S
Pr41 O62 2.436 1_665 S
Pr41 O64 2.438 . S
Pr41 O66 2.562 1_655 S
Pr41 O67 2.490 1_655 S
Pr41 O68 2.695 1_665 S
Pr41 O69 2.513 . S
Pr41 O71 2.437 1_655 S
C42 Pr40 2.880 . S
C42 C43 1.491 1_455 S
C42 O60 1.254 . S
C42 O61 1.225 . S
C43 C42 1.491 1_655 S
C43 C44 1.392 1_655 S
C43 C48 1.356 . S
C44 C43 1.392 1_455 S
C44 C45 1.368 1_455 S
C44 H72 0.929 . S
C45 C44 1.368 1_655 S
C45 C46 1.386 . S
C45 H73 0.929 . S
C46 C45 1.386 . S
C46 C47 1.373 . S
C47 C46 1.373 . S
C47 C48 1.409 . S
C47 H74 0.931 . S
C48 C43 1.356 . S
C48 C47 1.409 . S
C48 H75 0.930 . S
C49 O62 1.270 . S
C49 O63 1.248 . S
C50 O64 1.267 1_545 S
C50 O65 1.278 . S
C51 Pr41 2.880 1_455 S
C51 C52 1.491 . S
C51 O66 1.254 . S
C51 O67 1.225 . S
C52 C51 1.491 . S
C52 C53 1.392 . S
C52 C57 1.356 . S
C53 C52 1.392 . S
C53 C54 1.368 . S
C53 H76 0.929 . S
C54 C53 1.368 . S
C54 C55 1.386 . S
C54 H77 0.929 . S
C55 C54 1.386 . S
C55 C56 1.373 . S
C56 C55 1.373 . S
C56 C57 1.409 . S
C56 H78 0.931 . S
C57 C52 1.356 . S
C57 C56 1.409 . S
C57 H79 0.930 . S
C58 O68 1.270 . S
C58 O69 1.248 1_445 S
C59 O70 1.267 . S
C59 O71 1.278 1_545 S
O60 Pr40 2.562 . S
O60 C42 1.254 . S
O61 Pr40 2.490 . S
O61 C42 1.225 . S
O62 Pr40 2.695 . S
O62 Pr41 2.436 1_445 S
O62 C49 1.270 . S
O63 Pr40 2.512 . S
O63 C49 1.248 . S
O64 Pr41 2.438 . S
O64 C50 1.267 1_565 S
O65 Pr40 2.437 1_655 S
O65 C50 1.278 . S
O66 Pr41 2.562 1_455 S
O66 C51 1.254 . S
O67 Pr41 2.490 1_455 S
O67 C51 1.225 . S
O68 Pr40 2.436 . S
O68 Pr41 2.695 1_445 S
O68 C58 1.270 . S
O69 Pr41 2.513 . S
O69 C58 1.248 1_665 S
O70 Pr40 2.438 . S
O70 C59 1.267 . S
O71 Pr41 2.437 1_455 S
O71 C59 1.278 1_565 S
H72 C44 0.929 . S
H73 C45 0.929 . S
H74 C47 0.931 . S
H75 C48 0.930 . S
H76 C53 0.929 . S
H77 C54 0.929 . S
H78 C56 0.931 . S
H79 C57 0.930 . S
Pr80 C82 2.880 1_455 S
Pr80 O100 2.562 1_455 S
Pr80 O101 2.490 1_455 S
Pr80 O102 2.695 1_565 S
Pr80 O103 2.512 . S
Pr80 O105 2.437 1_455 S
Pr80 O108 2.436 . S
Pr80 O110 2.438 . S
Pr81 C91 2.880 . S
Pr81 O102 2.436 . S
Pr81 O104 2.438 1_455 S
Pr81 O106 2.562 . S
Pr81 O107 2.490 . S
Pr81 O108 2.695 1_545 S
Pr81 O109 2.512 . S
Pr81 O111 2.437 . S
C82 Pr80 2.880 1_655 S
C82 C83 1.491 . S
C82 O100 1.254 . S
C82 O101 1.225 . S
C83 C82 1.491 . S
C83 C84 1.392 . S
C83 C88 1.356 . S
C84 C83 1.392 . S
C84 C85 1.368 . S
C84 H112 0.929 . S
C85 C84 1.368 . S
C85 C86 1.386 . S
C85 H113 0.929 . S
C86 C85 1.386 . S
C86 C87 1.373 . S
C87 C86 1.373 . S
C87 C88 1.409 . S
C87 H114 0.931 . S
C88 C83 1.356 . S
C88 C87 1.409 . S
C88 H115 0.930 . S
C89 O102 1.270 1_565 S
C89 O103 1.248 . S
C90 O104 1.267 . S
C90 O105 1.278 1_545 S
C91 Pr81 2.880 . S
C91 C92 1.491 . S
C91 O106 1.254 . S
C91 O107 1.225 . S
C92 C91 1.491 . S
C92 C93 1.392 . S
C92 C97 1.356 . S
C93 C92 1.392 . S
C93 C94 1.368 . S
C93 H116 0.929 . S
C94 C93 1.368 . S
C94 C95 1.386 . S
C94 H117 0.929 . S
C95 C94 1.386 . S
C95 C96 1.373 . S
C96 C95 1.373 . S
C96 C97 1.409 . S
C96 H118 0.931 . S
C97 C92 1.356 . S
C97 C96 1.409 . S
C97 H119 0.930 . S
C98 O108 1.270 1_545 S
C98 O109 1.248 . S
C99 O110 1.267 1_545 S
C99 O111 1.278 . S
O100 Pr80 2.562 1_655 S
O100 C82 1.254 . S
O101 Pr80 2.490 1_655 S
O101 C82 1.225 . S
O102 Pr80 2.695 1_545 S
O102 Pr81 2.436 . S
O102 C89 1.270 1_545 S
O103 Pr80 2.512 . S
O103 C89 1.248 . S
O104 Pr81 2.438 1_655 S
O104 C90 1.267 . S
O105 Pr80 2.437 1_655 S
O105 C90 1.278 1_565 S
O106 Pr81 2.562 . S
O106 C91 1.254 . S
O107 Pr81 2.490 . S
O107 C91 1.225 . S
O108 Pr80 2.436 . S
O108 Pr81 2.695 1_565 S
O108 C98 1.270 1_565 S
O109 Pr81 2.512 . S
O109 C98 1.248 . S
O110 Pr80 2.438 . S
O110 C99 1.267 1_565 S
O111 Pr81 2.437 . S
O111 C99 1.278 . S
H112 C84 0.929 . S
H113 C85 0.929 . S
H114 C87 0.931 . S
H115 C88 0.930 . S
H116 C93 0.929 . S
H117 C94 0.929 . S
H118 C96 0.931 . S
H119 C97 0.930 . S
H120 C128 0.950 . S
H121 C133 0.950 . S
H122 C130 0.950 . S
H123 C132 0.950 . S
H124 C134 0.950 . S
H125 C136 0.950 . S
H126 C138 0.950 . S
H127 C139 0.950 . S
C128 H120 0.950 . S
C128 C129 1.386 . S
C128 C130 1.391 . S
C129 C128 1.386 . S
C129 C133 1.393 1_454 S
C130 H122 0.950 . S
C130 C128 1.391 . S
C130 C131 1.400 . S
C131 C130 1.400 . S
C131 C132 1.398 1_454 S
C131 C137 1.491 . S
C132 H123 0.950 . S
C132 C131 1.398 1_656 S
C132 C133 1.391 . S
C133 H121 0.950 . S
C133 C129 1.393 1_656 S
C133 C132 1.391 . S
C134 H124 0.950 . S
C134 C135 1.386 1_656 S
C134 C136 1.391 . S
C135 C134 1.386 1_454 S
C135 C139 1.393 . S
C136 H125 0.950 . S
C136 C134 1.391 . S
C136 C137 1.400 1_656 S
C137 C131 1.491 . S
C137 C136 1.400 1_454 S
C137 C138 1.398 . S
C138 H126 0.950 . S
C138 C137 1.398 . S
C138 C139 1.391 . S
C139 H127 0.950 . S
C139 C135 1.393 . S
C139 C138 1.391 . S
H140 C148 0.950 . S
H141 C153 0.950 . S
H142 C150 0.950 . S
H143 C152 0.950 . S
H144 C154 0.950 1_565 S
H145 C156 0.950 . S
H146 C158 0.950 . S
H147 C159 0.950 . S
C148 H140 0.950 . S
C148 C149 1.386 . S
C148 C150 1.391 . S
C149 C148 1.386 . S
C149 C153 1.393 1_545 S
C150 H142 0.950 . S
C150 C148 1.391 . S
C150 C151 1.400 . S
C151 C150 1.400 . S
C151 C152 1.398 1_545 S
C151 C157 1.491 . S
C152 H143 0.950 . S
C152 C151 1.398 1_565 S
C152 C153 1.391 . S
C153 H141 0.950 . S
C153 C149 1.393 1_565 S
C153 C152 1.391 . S
C154 H144 0.950 1_545 S
C154 C155 1.386 . S
C154 C156 1.391 1_545 S
C155 C154 1.386 . S
C155 C159 1.393 . S
C156 H145 0.950 . S
C156 C154 1.391 1_565 S
C156 C157 1.400 1_565 S
C157 C151 1.491 . S
C157 C156 1.400 1_545 S
C157 C158 1.398 . S
C158 H146 0.950 . S
C158 C157 1.398 . S
C158 C159 1.391 . S
C159 H147 0.950 . S
C159 C155 1.393 . S
C159 C158 1.391 . S
H160 C168 0.950 . S
H161 C173 0.950 . S
H162 C170 0.950 . S
H163 C172 0.950 . S
H164 C174 0.950 . S
H165 C176 0.950 . S
H166 C178 0.950 . S
H167 C179 0.950 . S
C168 H160 0.950 . S
C168 C169 1.386 . S
C168 C170 1.391 . S
C169 C168 1.386 . S
C169 C173 1.393 . S
C170 H162 0.950 . S
C170 C168 1.391 . S
C170 C171 1.400 . S
C171 C170 1.400 . S
C171 C172 1.398 . S
C171 C177 1.491 . S
C172 H163 0.950 . S
C172 C171 1.398 . S
C172 C173 1.391 . S
C173 H161 0.950 . S
C173 C169 1.393 . S
C173 C172 1.391 . S
C174 H164 0.950 . S
C174 C175 1.386 . S
C174 C176 1.391 . S
C175 C174 1.386 . S
C175 C179 1.393 . S
C176 H165 0.950 . S
C176 C174 1.391 . S
C176 C177 1.400 . S
C177 C171 1.491 . S
C177 C176 1.400 . S
C177 C178 1.398 . S
C178 H166 0.950 . S
C178 C177 1.398 . S
C178 C179 1.391 . S
C179 H167 0.950 . S
C179 C175 1.393 . S
C179 C178 1.391 . S
H180 C188 0.950 . S
H181 C193 0.950 . S
H182 C190 0.950 . S
H183 C192 0.950 . S
H184 C194 0.950 . S
H185 C196 0.950 . S
H186 C198 0.950 . S
H187 C199 0.950 . S
C188 H180 0.950 . S
C188 C189 1.386 1_565 S
C188 C190 1.391 . S
C189 C188 1.386 1_545 S
C189 C193 1.393 . S
C190 H182 0.950 . S
C190 C188 1.391 . S
C190 C191 1.400 1_565 S
C191 C190 1.400 1_545 S
C191 C192 1.398 . S
C191 C197 1.491 . S
C192 H183 0.950 . S
C192 C191 1.398 . S
C192 C193 1.391 . S
C193 H181 0.950 . S
C193 C189 1.393 . S
C193 C192 1.391 . S
C194 H184 0.950 . S
C194 C195 1.386 . S
C194 C196 1.391 . S
C195 C194 1.386 . S
C195 C199 1.393 1_545 S
C196 H185 0.950 . S
C196 C194 1.391 . S
C196 C197 1.400 . S
C197 C191 1.491 . S
C197 C196 1.400 . S
C197 C198 1.398 1_545 S
C198 H186 0.950 . S
C198 C197 1.398 1_565 S
C198 C199 1.391 . S
C199 H187 0.950 . S
C199 C195 1.393 1_565 S
C199 C198 1.391 . S
H200 C208 0.950 . S
H201 C213 0.953 . S
H202 C210 0.950 . S
H203 C212 0.951 . S
H204 C214 0.950 . S
H205 C216 0.950 . S
H206 C218 0.950 . S
H207 C219 0.950 . S
C208 H200 0.950 . S
C208 C209 1.386 . S
C208 C210 1.391 . S
C209 C208 1.386 . S
C209 C213 1.393 . S
C210 H202 0.950 . S
C210 C208 1.391 . S
C210 C211 1.400 . S
C211 C210 1.400 . S
C211 C212 1.398 . S
C211 C217 1.490 . S
C212 H203 0.951 . S
C212 C211 1.398 . S
C212 C213 1.391 . S
C213 H201 0.953 . S
C213 C209 1.393 . S
C213 C212 1.391 . S
C214 H204 0.950 . S
C214 C215 1.386 . S
C214 C216 1.391 . S
C215 C214 1.386 . S
C215 C219 1.393 1_556 S
C216 H205 0.950 . S
C216 C214 1.391 . S
C216 C217 1.399 1_556 S
C217 C211 1.490 . S
C217 C216 1.399 1_554 S
C217 C218 1.402 . S
C218 H206 0.950 . S
C218 C217 1.402 . S
C218 C219 1.391 . S
C219 H207 0.950 . S
C219 C215 1.393 1_554 S
C219 C218 1.391 . S
H220 C228 0.950 . S
H221 C233 0.950 . S
H222 C230 0.950 . S
H223 C232 0.950 . S
H224 C234 0.950 . S
H225 C236 0.950 . S
H226 C238 0.950 1_655 S
H227 C239 0.950 . S
C228 H220 0.950 . S
C228 C229 1.386 . S
C228 C230 1.391 . S
C229 C228 1.386 . S
C229 C233 1.393 . S
C230 H222 0.950 . S
C230 C228 1.391 . S
C230 C231 1.400 1_655 S
C231 C230 1.400 1_455 S
C231 C232 1.398 . S
C231 C237 1.491 . S
C232 H223 0.950 . S
C232 C231 1.398 . S
C232 C233 1.391 1_455 S
C233 H221 0.950 . S
C233 C229 1.393 . S
C233 C232 1.391 1_655 S
C234 H224 0.950 . S
C234 C235 1.386 . S
C234 C236 1.391 . S
C235 C234 1.386 . S
C235 C239 1.393 . S
C236 H225 0.950 . S
C236 C234 1.391 . S
C236 C237 1.400 . S
C237 C231 1.491 . S
C237 C236 1.400 . S
C237 C238 1.398 . S
C238 H226 0.950 1_455 S
C238 C237 1.398 . S
C238 C239 1.391 . S
C239 H227 0.950 . S
C239 C235 1.393 . S
C239 C238 1.391 . S
H240 C248 0.950 . S
H241 C253 0.950 . S
H242 C250 0.950 . S
H243 C252 0.950 . S
H244 C254 0.950 . S
H245 C256 0.950 . S
H246 C258 0.950 . S
H247 C259 0.950 . S
C248 H240 0.950 . S
C248 C249 1.386 1_665 S
C248 C250 1.391 . S
C249 C248 1.386 1_445 S
C249 C253 1.393 . S
C250 H242 0.950 . S
C250 C248 1.391 . S
C250 C251 1.400 1_665 S
C251 C250 1.400 1_445 S
C251 C252 1.398 . S
C251 C257 1.491 . S
C252 H243 0.950 . S
C252 C251 1.398 . S
C252 C253 1.391 . S
C253 H241 0.950 . S
C253 C249 1.393 . S
C253 C252 1.391 . S
C254 H244 0.950 . S
C254 C255 1.386 . S
C254 C256 1.391 . S
C255 C254 1.386 . S
C255 C259 1.393 1_445 S
C256 H245 0.950 . S
C256 C254 1.391 . S
C256 C257 1.400 . S
C257 C251 1.491 . S
C257 C256 1.400 . S
C257 C258 1.398 1_445 S
C258 H246 0.950 . S
C258 C257 1.398 1_665 S
C258 C259 1.391 . S
C259 H247 0.950 . S
C259 C255 1.393 1_665 S
C259 C258 1.391 . S
H260 C268 0.950 . S
H261 C273 0.950 1_655 S
H262 C270 0.950 . S
H263 C272 0.950 1_655 S
H264 C274 0.950 1_655 S
H265 C276 0.950 1_655 S
H266 C278 0.950 . S
H267 C279 0.950 . S
C268 H260 0.950 . S
C268 C269 1.386 1_565 S
C268 C270 1.391 . S
C269 C268 1.386 1_545 S
C269 C273 1.393 . S
C270 H262 0.950 . S
C270 C268 1.391 . S
C270 C271 1.400 1_565 S
C271 C270 1.400 1_545 S
C271 C272 1.398 . S
C271 C277 1.491 . S
C272 H263 0.950 1_455 S
C272 C271 1.398 . S
C272 C273 1.391 . S
C273 H261 0.950 1_455 S
C273 C269 1.393 . S
C273 C272 1.391 . S
C274 H264 0.950 1_455 S
C274 C275 1.386 . S
C274 C276 1.391 . S
C275 C274 1.386 . S
C275 C279 1.393 1_545 S
C276 H265 0.950 1_455 S
C276 C274 1.391 . S
C276 C277 1.400 . S
C277 C271 1.491 . S
C277 C276 1.400 . S
C277 C278 1.398 1_545 S
C278 H266 0.950 . S
C278 C277 1.398 1_565 S
C278 C279 1.391 . S
C279 H267 0.950 . S
C279 C275 1.393 1_565 S
C279 C278 1.391 . S
H280 C288 0.950 . S
H281 C293 0.950 1_655 S
H282 C290 0.950 . S
H283 C292 0.950 1_655 S
H284 C294 0.950 . S
H285 C296 0.950 . S
H286 C298 0.950 . S
H287 C299 0.950 . S
C288 H280 0.950 . S
C288 C289 1.386 1_565 S
C288 C290 1.391 . S
C289 C288 1.386 1_545 S
C289 C293 1.393 . S
C290 H282 0.950 . S
C290 C288 1.391 . S
C290 C291 1.400 1_565 S
C291 C290 1.400 1_545 S
C291 C292 1.398 . S
C291 C297 1.491 . S
C292 H283 0.950 1_455 S
C292 C291 1.398 . S
C292 C293 1.391 . S
C293 H281 0.950 1_455 S
C293 C289 1.393 . S
C293 C292 1.391 . S
C294 H284 0.950 . S
C294 C295 1.386 1_655 S
C294 C296 1.391 . S
C295 C294 1.386 1_455 S
C295 C299 1.393 1_545 S
C296 H285 0.950 . S
C296 C294 1.391 . S
C296 C297 1.400 1_655 S
C297 C291 1.491 . S
C297 C296 1.400 1_455 S
C297 C298 1.398 1_545 S
C298 H286 0.950 . S
C298 C297 1.398 1_565 S
C298 C299 1.391 . S
C299 H287 0.950 . S
C299 C295 1.393 1_565 S
C299 C298 1.391 . S
C129 C10 4.877 1_455 S
C135 C19 4.877 1_554 S
C149 C59 3.047 . S
C155 C50 3.047 . S
C169 C86 0.566 . S
C175 C95 0.566 . S
C189 C90 2.981 . S
C195 C99 2.981 . S
C209 C15 0.660 . S
C215 C6 0.655 1_556 S
C229 C46 0.796 . S
C235 C55 0.796 . S
C249 C58 1.459 . S
C255 C9 1.436 . S
C269 C49 1.452 . S
C275 C89 1.454 1_545 S
C289 C98 1.442 . S
C295 C18 1.454 1_455 S
