# Generated by pormake.
# Topology rkf, (6)-cn, num edge types: 1
# Building blocks:
#     Node 0, Type 0, BuildingBlock: BETDAH_clean_sbu_0, # of connection points: 6
#     Node 1, Type 0, BuildingBlock: BETDAH_clean_sbu_0, # of connection points: 6
#     Node 2, Type 0, BuildingBlock: BETDAH_clean_sbu_0, # of connection points: 6
#     Node 3, Type 0, BuildingBlock: BETDAH_clean_sbu_0, # of connection points: 6
#     Node 4, Type 0, BuildingBlock: BETDAH_clean_sbu_0, # of connection points: 6
#     Node 5, Type 0, BuildingBlock: BETDAH_clean_sbu_0, # of connection points: 6
#     Edge 6, Type (0, 0), BuildingBlock: XUDNAN_clean_linker_2, # of connection points: 2
#     Edge 7, Type (0, 0), BuildingBlock: XUDNAN_clean_linker_2, # of connection points: 2
#     Edge 8, Type (0, 0), BuildingBlock: XUDNAN_clean_linker_2, # of connection points: 2
#     Edge 9, Type (0, 0), BuildingBlock: XUDNAN_clean_linker_2, # of connection points: 2
#     Edge 10, Type (0, 0), BuildingBlock: XUDNAN_clean_linker_2, # of connection points: 2
#     Edge 11, Type (0, 0), BuildingBlock: XUDNAN_clean_linker_2, # of connection points: 2
#     Edge 12, Type (0, 0), BuildingBlock: XUDNAN_clean_linker_2, # of connection points: 2
#     Edge 13, Type (0, 0), BuildingBlock: XUDNAN_clean_linker_2, # of connection points: 2
#     Edge 14, Type (0, 0), BuildingBlock: XUDNAN_clean_linker_2, # of connection points: 2
#     Edge 15, Type (0, 0), BuildingBlock: XUDNAN_clean_linker_2, # of connection points: 2
#     Edge 16, Type (0, 0), BuildingBlock: XUDNAN_clean_linker_2, # of connection points: 2
#     Edge 17, Type (0, 0), BuildingBlock: XUDNAN_clean_linker_2, # of connection points: 2
#     Edge 18, Type (0, 0), BuildingBlock: XUDNAN_clean_linker_2, # of connection points: 2
#     Edge 19, Type (0, 0), BuildingBlock: XUDNAN_clean_linker_2, # of connection points: 2
#     Edge 20, Type (0, 0), BuildingBlock: XUDNAN_clean_linker_2, # of connection points: 2
#     Edge 21, Type (0, 0), BuildingBlock: XUDNAN_clean_linker_2, # of connection points: 2
#     Edge 22, Type (0, 0), BuildingBlock: XUDNAN_clean_linker_2, # of connection points: 2
#     Edge 23, Type (0, 0), BuildingBlock: XUDNAN_clean_linker_2, # of connection points: 2
# Relax obj value: 0.709
# Max RMSD: 0.248
# Mean RMSD: 0.248
data_MOF--net-rkf--node1-BETDAH_clean_sbu_0--edge1-XUDNAN_clean_linker_2
_symmetry_space_group_name_H-M    P1
_symmetry_Int_Tables_number       1
_symmetry_cell_setting            triclinic
loop_
_symmetry_equiv_pos_as_xyz
'x, y, z'
_cell_length_a     25.345825
_cell_length_b     25.004706
_cell_length_c     44.365987
_cell_angle_alpha  90.292702
_cell_angle_beta   89.876887
_cell_angle_gamma 120.06296
loop_
_atom_site_label
_atom_site_type_symbol
_atom_site_fract_x
_atom_site_fract_y
_atom_site_fract_z
_atom_type_partial_charge
Ho0 Ho 0.2627 0.0165 0.15932 0.0
Ho1 Ho 0.37546 0.13985 1.1488 0.0
C2 C 0.32287 0.11597 0.21734 0.0
C3 C 0.20006 0.90698 0.18109 0.0
C4 C 0.1953 0.88474 0.21215 0.0
C5 C 0.20245 0.83359 0.21787 0.0
C6 C 0.20672 0.81723 0.24749 0.0
C7 C 0.20432 0.85215 0.27184 0.0
C8 C 0.19599 0.90267 0.26597 0.0
C9 C 0.19166 0.91887 0.23646 0.0
C10 C 0.24219 0.10736 1.14417 0.0
C11 C 0.28917 0.05305 1.09008 0.0
C12 C 0.46176 0.24895 1.13358 0.0
C13 C 0.47589 0.29664 1.11092 0.0
C14 C 0.51589 0.35859 1.1186 0.0
C15 C 0.5253 0.40577 1.09878 0.0
C16 C 0.49504 0.39148 1.07092 0.0
C17 C 0.45655 0.32907 1.06288 0.0
C18 C 0.44681 0.28195 1.08282 0.0
C19 C 0.39589 0.0461 0.16285 0.0
O20 O 0.2833 0.05912 0.20737 0.0
O21 O 0.36345 0.1572 0.19847 0.0
O22 O 0.17648 0.94217 0.17554 0.0
O23 O 0.25407 0.92807 0.16909 0.0
O24 O 0.205 0.04982 1.13671 0.0
O25 O 0.28314 0.11153 0.1614 0.0
O26 O 0.33142 0.10893 1.10078 0.0
O27 O 0.25903 0.00615 1.10878 0.0
O28 O 0.45933 0.19787 1.12459 0.0
O29 O 0.41765 0.23899 0.15205 0.0
O30 O 0.42665 0.10155 0.17374 0.0
O31 O 0.35607 0.04429 1.14537 0.0
H32 H 0.20632 0.80727 0.19938 0.0
H33 H 0.21292 0.77799 0.25134 0.0
H34 H 0.19226 0.92952 0.28422 0.0
H35 H 0.18657 0.95881 0.23273 0.0
H36 H 0.53845 0.37056 1.14033 0.0
H37 H 0.55514 0.4534 1.10547 0.0
H38 H 0.43171 0.31675 1.04177 0.0
H39 H 0.41524 0.23436 1.0767 0.0
Ho40 Ho 0.3643 0.34333 0.48826 0.0
Ho41 Ho 0.23043 0.29643 0.48282 0.0
C42 C 0.27906 0.32824 0.54945 0.0
C43 C 0.47945 0.40385 0.50074 0.0
C44 C 0.51462 0.38566 0.52072 0.0
C45 C 0.52983 0.34136 0.51101 0.0
C46 C 0.54808 0.31199 0.53175 0.0
C47 C 0.55228 0.32688 0.56251 0.0
C48 C 0.54371 0.37587 0.57173 0.0
C49 C 0.52502 0.40504 0.551 0.0
C50 C 0.29908 0.2207 0.4938 0.0
C51 C 0.30308 0.28916 0.42242 0.0
C52 C 0.11359 0.2413 0.47491 0.0
C53 C 0.06758 0.24673 0.45717 0.0
C54 C 0.01832 0.24533 0.47236 0.0
C55 C -0.02632 0.25051 0.45646 0.0
C56 C -0.02272 0.25688 0.42498 0.0
C57 C 0.02677 0.25817 0.40976 0.0
C58 C 0.07165 0.25328 0.42573 0.0
C59 C 0.30466 0.42105 0.4767 0.0
O60 O 0.33393 0.35948 0.53611 0.0
O61 O 0.23217 0.28854 0.53316 0.0
O62 O 0.45715 0.3706 0.47641 0.0
O63 O 0.43981 0.41517 0.51386 0.0
O64 O 0.35421 0.24944 0.48387 0.0
O65 O 0.28355 0.25823 0.50361 0.0
O66 O 0.2504 0.27071 0.43655 0.0
O67 O 0.35537 0.32611 0.43673 0.0
O68 O 0.14266 0.28468 0.49492 0.0
O69 O 0.14926 0.22566 0.46084 0.0
O70 O 0.25255 0.39576 0.49018 0.0
O71 O 0.31267 0.37937 0.46596 0.0
H72 H 0.52353 0.32604 0.48774 0.0
H73 H 0.55511 0.27484 0.52403 0.0
H74 H 0.5464 0.38816 0.59536 0.0
H75 H 0.51447 0.43957 0.55911 0.0
H76 H 0.01446 0.24035 0.49665 0.0
H77 H 0.93656 0.24994 0.46888 0.0
H78 H 0.03031 0.2619 0.38544 0.0
H79 H 0.1092 0.25436 0.41348 0.0
Ho80 Ho 0.1167 0.36189 0.83113 0.0
Ho81 Ho 0.00521 0.24751 0.8052 0.0
C82 C 0.01942 0.25437 0.8781 0.0
C83 C 0.18704 0.46758 0.85641 0.0
C84 C 0.23285 0.48526 0.88011 0.0
C85 C 0.26939 0.54722 0.88887 0.0
C86 C 0.3165 0.56373 0.90979 0.0
C87 C 0.32777 0.5184 0.92166 0.0
C88 C 0.28994 0.45628 0.91321 0.0
C89 C 0.24292 0.43989 0.89264 0.0
C90 C 0.13917 0.27006 0.82184 0.0
C91 C 0.11786 0.33183 0.75876 0.0
C92 C 0.91427 0.1556 0.77873 0.0
C93 C 0.86173 0.15296 0.76294 0.0
C94 C 0.87078 0.19734 0.74117 0.0
C95 C 0.82122 0.19586 0.72677 0.0
C96 C 0.76106 0.15048 0.734 0.0
C97 C 0.75205 0.10711 0.75649 0.0
C98 C 0.80193 0.10829 0.77075 0.0
C99 C -0.00526 0.34901 0.8141 0.0
O100 O 0.06037 0.31417 0.87427 0.0
O101 O -0.00019 0.21688 0.85414 0.0
O102 O 0.2005 0.44951 0.83137 0.0
O103 O 0.13046 0.43115 0.86461 0.0
O104 O 0.1815 0.32648 0.82721 0.0
O105 O 0.08796 0.26368 0.82892 0.0
O106 O 0.06758 0.27802 0.7637 0.0
O107 O 0.14032 0.37512 0.78042 0.0
O108 O 0.91619 0.16484 0.80778 0.0
O109 O 0.9676 0.1887 0.76602 0.0
O110 O 0.9508 0.29364 0.81848 0.0
O111 O 0.03965 0.34716 0.80395 0.0
H112 H 0.26216 0.58274 0.87922 0.0
H113 H 0.34483 0.6118 0.91617 0.0
H114 H 0.29665 0.4202 0.9226 0.0
H115 H 0.21498 0.39182 0.8861 0.0
H116 H 0.91629 0.23309 0.73495 0.0
H117 H 0.8305 0.22915 0.70911 0.0
H118 H 0.70649 0.07176 0.76283 0.0
H119 H 0.79383 0.07426 0.78787 0.0
Ho120 Ho 0.82186 0.13382 0.15792 0.0
Ho121 Ho 0.86403 0.04338 0.15604 0.0
C122 C 0.83555 0.06818 0.22156 0.0
C123 C 0.75961 0.18761 0.1693 0.0
C124 C 0.74029 0.20007 0.19855 0.0
C125 C 0.75402 0.26036 0.20594 0.0
C126 C 0.75221 0.27656 0.23603 0.0
C127 C 0.73542 0.23223 0.25891 0.0
C128 C 0.71555 0.17065 0.25093 0.0
C129 C 0.71955 0.15515 0.22119 0.0
C130 C 0.94212 0.18839 0.16145 0.0
C131 C 0.87337 0.11846 1.09307 0.0
C132 C 0.90892 0.97116 1.14964 0.0
C133 C 0.88842 0.91311 1.13311 0.0
C134 C 0.85924 0.90322 1.10517 0.0
C135 C 0.83306 0.84528 1.09142 0.0
C136 C 0.8346 0.79573 1.10555 0.0
C137 C 0.86456 0.80607 1.1334 0.0
C138 C 0.89121 0.86437 1.14707 0.0
C139 C 0.74181 -0.0038 1.14868 0.0
O140 O 0.80641 0.09285 0.207 0.0
O141 O 0.87348 0.05716 0.20614 0.0
O142 O 0.81852 0.21752 0.16531 0.0
O143 O 0.73445 0.12963 0.16091 0.0
O144 O 0.91394 0.2113 1.14693 0.0
O145 O 0.90569 0.13822 0.17449 0.0
O146 O 0.88975 0.08324 1.1083 0.0
O147 O 0.84032 0.13961 1.10671 0.0
O148 O 0.87293 0.96681 0.17164 0.0
O149 O 0.92719 0.02145 1.13381 0.0
O150 O 0.7648 0.97122 0.1655 0.0
O151 O 0.78391 0.04346 1.13677 0.0
H152 H 0.77103 0.296 0.18888 0.0
H153 H 0.76813 0.32447 0.24167 0.0
H154 H 0.70314 0.13565 0.26807 0.0
H155 H 0.71091 0.10903 0.21635 0.0
H156 H 0.85576 0.93993 1.09418 0.0
H157 H 0.81205 0.83959 1.06951 0.0
H158 H 0.86663 0.76897 1.1448 0.0
H159 H 0.91271 0.87103 0.16893 0.0
Ho160 Ho 0.81228 0.91605 0.50565 0.0
Ho161 Ho 0.8116 0.80786 0.48192 0.0
C162 C 0.85586 0.84205 0.55193 0.0
C163 C 0.78707 -0.01042 0.53527 0.0
C164 C 0.74488 0.01406 0.53591 0.0
C165 C 0.6813 0.97462 0.53518 0.0
C166 C 0.64254 -0.00399 0.54494 0.0
C167 C 0.66686 0.05688 0.55581 0.0
C168 C 0.7299 0.09802 0.55253 0.0
C169 C 0.76849 0.07665 0.54279 0.0
C170 C 0.92071 0.93523 0.48481 0.0
C171 C 0.79956 0.90392 0.43438 0.0
C172 C 0.82792 0.72616 0.45413 0.0
C173 C 0.87937 0.71528 0.45175 0.0
C174 C 0.92671 0.74016 0.47306 0.0
C175 C -0.01881 0.74062 0.46724 0.0
C176 C -0.0105 0.71742 0.43973 0.0
C177 C 0.93987 0.6887 0.41956 0.0
C178 C 0.88537 0.68751 0.42561 0.0
C179 C 0.69971 0.78279 0.50194 0.0
O180 O 0.83235 0.87913 0.54982 0.0
O181 O 0.86041 0.81538 0.52671 0.0
O182 O 0.76393 0.93092 0.54153 0.0
O183 O 0.82838 0.00878 0.51404 0.0
O184 O 0.90369 0.97604 0.48235 0.0
O185 O 0.88319 0.89165 0.50027 0.0
O186 O 0.81784 0.86266 0.43815 0.0
O187 O 0.78369 0.92401 0.45847 0.0
O188 O 0.8372 0.77738 0.44175 0.0
O189 O 0.80167 0.7167 0.48042 0.0
O190 O 0.72515 0.75022 0.50702 0.0
O191 O 0.73637 0.82894 0.48654 0.0
H192 H 0.66179 0.92617 0.52947 0.0
H193 H 0.59416 0.9634 0.54673 0.0
H194 H 0.75067 0.14512 0.56075 0.0
H195 H 0.81733 0.10794 0.54332 0.0
H196 H 0.92286 0.7622 0.49338 0.0
H197 H 0.01791 0.76235 0.48347 0.0
H198 H 0.94425 0.67149 0.39782 0.0
H199 H 0.84941 0.66865 0.40885 0.0
Ho200 Ho 0.01661 0.84383 0.82902 0.0
Ho201 Ho 0.1461 0.88159 0.80742 0.0
C202 C 0.1313 0.91247 0.87737 0.0
C203 C 0.9073 0.78302 0.85048 0.0
C204 C 0.87284 0.7434 0.87617 0.0
C205 C 0.85588 0.68044 0.877 0.0
C206 C 0.82464 0.64403 0.90183 0.0
C207 C 0.80801 0.66941 0.92573 0.0
C208 C 0.82214 0.73137 0.92414 0.0
C209 C 0.85421 0.76794 0.89963 0.0
C210 C 0.07598 0.95244 0.80108 0.0
C211 C 0.03716 0.84575 0.75619 0.0
C212 C 0.25406 0.91908 0.78588 0.0
C213 C 0.29635 0.95347 0.76146 0.0
C214 C 0.27865 0.97589 0.73691 0.0
C215 C 0.32163 0.01204 0.71508 0.0
C216 C 0.3828 0.02653 0.71773 0.0
C217 C 0.39976 0.00281 0.7421 0.0
C218 C 0.35678 0.96646 0.76374 0.0
C219 C 0.0845 0.77172 0.83608 0.0
O220 O 0.0712 0.87421 0.87405 0.0
O221 O 0.16805 0.92797 0.85354 0.0
O222 O 0.94438 0.84199 0.85596 0.0
O223 O 0.92989 0.75991 0.83124 0.0
O224 O 0.01695 0.91974 0.80234 0.0
O225 O 0.09912 0.93076 0.81857 0.0
O226 O 0.09668 0.87033 0.76206 0.0
O227 O -0.00344 0.82688 0.77848 0.0
O228 O 0.20663 0.86552 0.77918 0.0
O229 O 0.24124 0.95137 0.80467 0.0
O230 O 0.14223 0.80971 0.8386 0.0
O231 O 0.06295 0.79276 0.81715 0.0
H232 H 0.86715 0.65926 0.85866 0.0
H233 H 0.81424 0.59642 0.90259 0.0
H234 H 0.81077 0.75249 0.94252 0.0
H235 H 0.86524 0.81578 0.89929 0.0
H236 H 0.23216 0.96653 0.73499 0.0
H237 H 0.30752 0.03046 0.69672 0.0
H238 H 0.4464 0.01294 0.74457 0.0
H239 H 0.37105 0.94941 0.78263 0.0
H240 H -0.00472 0.1804 1.11108 0.0
H241 H 0.03184 0.24651 0.20302 0.0
H242 H 0.13937 0.27381 0.197 0.0
H243 H 0.04873 0.09101 1.11818 0.0
H244 H 0.08121 0.09797 1.08121 0.0
H245 H 0.02103 0.11456 1.08634 0.0
H246 H 0.08983 0.22336 1.06355 0.0
H247 H 0.15084 0.20658 1.059 0.0
H248 H 0.16372 0.27426 1.07972 0.0
H249 H 0.22852 0.26667 0.18742 0.0
H250 H 0.27654 0.20304 0.18272 0.0
H251 H 0.17593 0.12152 1.10049 0.0
C252 C 0.02679 0.20229 1.12948 0.0
C253 C 0.0066 0.21134 0.15743 0.0
C254 C 0.0476 0.23951 0.18143 0.0
C255 C 0.10874 0.25608 0.17791 0.0
C256 C 0.12707 0.24258 1.15052 0.0
C257 C 0.0867 0.21536 1.12672 0.0
C258 C 0.1099 0.18686 1.10393 0.0
C259 C 0.0624 0.11861 1.09712 0.0
C260 C 0.12979 0.22509 1.07484 0.0
C261 C 0.16445 0.19359 1.12097 0.0
C262 C 0.17706 0.23139 1.14612 0.0
C263 C 0.2199 0.23804 0.1676 0.0
C264 C 0.24654 0.20125 0.16489 0.0
C265 C 0.22818 0.1569 1.14153 0.0
C266 C 0.1899 0.1555 1.11841 0.0
H267 H -0.00337 -0.00564 0.43827 0.0
H268 H -0.01936 0.89748 0.52108 0.0
H269 H 0.08977 0.9344 0.52068 0.0
H270 H 0.15618 -0.00738 0.41289 0.0
H271 H 0.18037 0.06631 0.39542 0.0
H272 H 0.10202 0.00516 0.39244 0.0
H273 H 0.07021 0.08015 0.41221 0.0
H274 H 0.14596 0.14089 0.41927 0.0
H275 H 0.09153 0.11157 0.44971 0.0
H276 H 0.18969 0.01937 0.52728 0.0
H277 H 0.27132 0.1279 0.53325 0.0
H278 H 0.23575 0.16729 0.4434 0.0
C279 C 0.01657 0.97888 0.45522 0.0
C280 C -0.01809 0.94542 0.48006 0.0
C281 C 0.00728 0.92428 0.50203 0.0
C282 C 0.06928 0.94429 0.50172 0.0
C283 C 0.10471 0.98386 0.47879 0.0
C284 C 0.07874 -0.00237 0.45459 0.0
C285 C 0.12692 0.05083 0.43655 0.0
C286 C 0.1423 0.02729 0.40763 0.0
C287 C 0.10764 0.09882 0.42908 0.0
C288 C 0.1793 0.07449 0.45867 0.0
C289 C 0.16713 0.03306 0.48191 0.0
C290 C 0.20141 0.05083 0.50853 0.0
C291 C 0.24696 0.11261 0.51205 0.0
C292 C 0.25803 0.15508 0.48889 0.0
C293 C 0.22682 0.13518 0.46138 0.0
H294 H 0.02594 0.97652 0.75446 0.0
H295 H 0.19946 0.02188 0.79215 0.0
H296 H 0.24887 0.11747 0.76349 0.0
H297 H 0.10381 0.13877 0.69781 0.0
H298 H 0.03972 0.14691 0.70895 0.0
H299 H 0.02819 0.07262 0.69711 0.0
H300 H -0.02828 0.02428 0.74622 0.0
H301 H -0.01831 0.09701 0.75723 0.0
H302 H 0.0074 0.05787 0.78203 0.0
H303 H 0.26507 0.21788 0.76993 0.0
H304 H 0.24738 0.2817 0.80605 0.0
H305 H 0.05489 0.17826 0.7867 0.0
C306 C 0.07475 0.00709 0.75564 0.0
C307 C 0.1086 -0.00455 0.77669 0.0
C308 C 0.17235 0.03171 0.77685 0.0
C309 C 0.20053 0.0863 0.76031 0.0
C310 C 0.16349 0.10691 0.74735 0.0
C311 C 0.10079 0.06612 0.74337 0.0
C312 C 0.06645 0.10112 0.74241 0.0
C313 C 0.05918 0.11577 0.70961 0.0
C314 C 0.0033 0.06808 0.75807 0.0
C315 C 0.11279 0.15907 0.75835 0.0
C316 C 0.1707 0.16656 0.75561 0.0
C317 C 0.22005 0.21241 0.77179 0.0
C318 C 0.20933 0.24711 0.79302 0.0
C319 C 0.14937 0.23395 0.79895 0.0
C320 C 0.10098 0.18985 0.78147 0.0
H321 H 0.51014 0.40191 1.01001 0.0
H322 H 0.48313 0.48983 1.08818 0.0
H323 H 0.46302 0.55636 1.055 0.0
H324 H 0.57027 0.54459 0.95675 0.0
H325 H 0.53024 0.49342 0.92575 0.0
H326 H 0.56265 0.46901 0.95508 0.0
H327 H 0.4565 0.37159 0.96343 0.0
H328 H 0.42416 0.3964 0.9347 0.0
H329 H 0.39212 0.38113 0.97212 0.0
H330 H 0.41785 0.59012 1.01532 0.0
H331 H 0.35332 0.58791 0.97312 0.0
H332 H 0.41099 0.48062 0.91998 0.0
C333 C 0.50243 0.43702 1.01999 0.0
C334 C 0.49818 0.44091 1.0515 0.0
C335 C 0.48744 0.48675 1.06403 0.0
C336 C 0.47597 0.52478 1.04532 0.0
C337 C 0.47665 0.51718 1.0142 0.0
C338 C 0.49097 0.47524 1.00159 0.0
C339 C 0.47898 0.46841 0.96804 0.0
C340 C 0.53912 0.4955 0.95037 0.0
C341 C 0.43533 0.40041 0.9591 0.0
C342 C 0.44961 0.50777 0.96433 0.0
C343 C 0.45082 0.53756 0.9909 0.0
C344 C 0.4184 0.56887 0.99411 0.0
C345 C 0.38183 0.56741 0.97006 0.0
C346 C 0.37747 0.53407 0.94347 0.0
C347 C 0.41414 0.50677 0.94011 0.0
H348 H -0.00898 0.33014 0.37646 0.0
H349 H 0.8538 0.18992 0.43435 0.0
H350 H 0.77296 0.18851 0.40302 0.0
H351 H 0.90248 0.40877 0.3547 0.0
H352 H 0.93067 0.41946 0.31659 0.0
H353 H -0.02247 0.42048 0.34736 0.0
H354 H -0.01101 0.33346 0.32149 0.0
H355 H 0.94331 0.33319 0.29062 0.0
H356 H 0.92142 0.26264 0.31075 0.0
H357 H 0.70833 0.18697 0.36074 0.0
H358 H 0.66684 0.18033 0.30966 0.0
H359 H 0.84516 0.32126 0.27909 0.0
C360 C 0.94396 0.30006 0.3829 0.0
C361 C 0.9288 0.26047 0.40796 0.0
C362 C 0.86664 0.22159 0.4156 0.0
C363 C 0.82033 0.22057 0.39795 0.0
C364 C 0.83685 0.25916 0.37294 0.0
C365 C 0.89728 0.29836 0.36548 0.0
C366 C 0.90319 0.32833 0.33519 0.0
C367 C 0.93005 0.39843 0.33868 0.0
C368 C 0.94141 0.31345 0.31324 0.0
C369 C 0.83687 0.29693 0.32588 0.0
C370 C 0.79909 0.25847 0.34831 0.0
C371 C 0.73709 0.21819 0.34333 0.0
C372 C 0.71382 0.21477 0.3143 0.0
C373 C 0.75265 0.25105 0.29066 0.0
C374 C 0.81403 0.29479 0.29702 0.0
H375 H 0.66163 0.04425 0.71472 0.0
H376 H 0.74548 0.24306 0.70971 0.0
H377 H 0.68478 0.23234 0.6647 0.0
H378 H 0.67245 0.00905 0.65263 0.0
H379 H 0.59933 0.94209 0.64431 0.0
H380 H 0.62194 0.96238 0.68248 0.0
H381 H 0.52404 0.96716 0.69316 0.0
H382 H 0.50103 0.94654 0.65439 0.0
H383 H 0.50591 0.01522 0.67039 0.0
H384 H 0.65698 0.20554 0.61236 0.0
H385 H 0.66717 0.16691 0.56299 0.0
H386 H 0.59318 0.98365 0.60002 0.0
C387 C 0.66408 0.08522 0.70534 0.0
C388 C 0.70949 0.14432 0.7152 0.0
C389 C 0.71222 0.19712 0.70206 0.0
C390 C 0.67706 0.1914 0.67663 0.0
C391 C 0.63777 0.13248 0.66511 0.0
C392 C 0.62878 0.07986 0.67997 0.0
C393 C 0.59437 0.02314 0.66015 0.0
C394 C 0.62399 0.98203 0.65984 0.0
C395 C 0.52737 -0.01417 0.67012 0.0
C396 C 0.59912 0.05383 0.63009 0.0
C397 C 0.61936 0.11628 0.63381 0.0
C398 C 0.6394 0.15653 0.60925 0.0
C399 C 0.64531 0.13425 0.58112 0.0
C400 C 0.63229 0.0725 0.57794 0.0
C401 C 0.60289 0.03085 0.60181 0.0
H402 H 0.72896 0.73699 1.07349 0.0
H403 H 0.88321 0.71971 1.10128 0.0
H404 H 0.85707 0.63879 1.0633 0.0
H405 H 0.63292 0.56616 1.03601 0.0
H406 H 0.6102 0.60028 1.0068 0.0
H407 H 0.61713 0.62706 1.04518 0.0
H408 H 0.6902 0.73869 1.02692 0.0
H409 H 0.68341 0.71155 0.98916 0.0
H410 H 0.75793 0.75476 1.00619 0.0
H411 H 0.84506 0.59803 1.01324 0.0
H412 H 0.85497 0.61155 0.95844 0.0
H413 H 0.71102 0.65629 0.95776 0.0
C414 C 0.75544 0.71399 1.07223 0.0
C415 C 0.80846 0.73512 1.08991 0.0
C416 C 0.84204 0.70406 1.08815 0.0
C417 C 0.82721 0.6576 1.06657 0.0
C418 C 0.77863 0.64257 1.04694 0.0
C419 C 0.74214 0.66905 1.05005 0.0
C420 C 0.70407 0.65881 1.02202 0.0
C421 C 0.63713 0.61014 1.02788 0.0
C422 C 0.70945 0.71957 1.01041 0.0
C423 C 0.73327 0.63336 1.00089 0.0
C424 C 0.7724 0.61942 1.01632 0.0
C425 C 0.81322 0.60677 1.00107 0.0
C426 C 0.81861 0.61448 0.96979 0.0
C427 C 0.78396 0.63553 0.95426 0.0
C428 C 0.73738 0.63972 0.96953 0.0
H429 H 0.02073 0.64924 0.40289 0.0
H430 H 0.09801 0.82367 0.45107 0.0
H431 H 0.18812 0.86566 0.419 0.0
H432 H 0.17621 0.66928 0.37058 0.0
H433 H 0.13801 0.63673 0.33533 0.0
H434 H 0.09757 0.60844 0.37044 0.0
H435 H 0.01399 0.63032 0.3512 0.0
H436 H 0.05405 0.65918 0.31654 0.0
H437 H 0.03514 0.70736 0.33918 0.0
H438 H 0.2466 0.90215 0.37311 0.0
H439 H 0.26553 0.92839 0.31935 0.0
H440 H 0.14549 0.73632 0.29564 0.0
C441 C 0.05791 0.69544 0.40742 0.0
C442 C 0.05148 0.73318 0.4292 0.0
C443 C 0.10145 0.79306 0.43487 0.0
C444 C 0.15327 0.81763 0.41652 0.0
C445 C 0.15457 0.78204 0.39252 0.0
C446 C 0.10845 0.72147 0.38821 0.0
C447 C 0.11144 0.69858 0.35687 0.0
C448 C 0.13207 0.65042 0.35841 0.0
C449 C 0.05009 0.67249 0.33999 0.0
C450 C 0.16056 0.75805 0.34299 0.0
C451 C 0.1875 0.80455 0.36442 0.0
C452 C 0.22717 0.86576 0.35632 0.0
C453 C 0.23709 0.88042 0.32568 0.0
C454 C 0.20645 0.83431 0.30343 0.0
C455 C 0.17042 0.77208 0.31225 0.0
H456 H 0.37554 0.02565 0.65624 0.0
H457 H 0.49421 0.12584 0.73116 0.0
H458 H 0.5649 0.20687 0.69631 0.0
H459 H 0.50233 0.07454 0.59773 0.0
H460 H 0.45486 0.07949 0.56902 0.0
H461 H 0.42112 0.023 0.59862 0.0
H462 H 0.34957 0.06561 0.61236 0.0
H463 H 0.38269 0.12177 0.58292 0.0
H464 H 0.38219 0.14662 0.62109 0.0
H465 H 0.60874 0.28684 0.65607 0.0
H466 H 0.62378 0.35644 0.61334 0.0
H467 H 0.48004 0.20262 0.56403 0.0
C468 C 0.41731 0.06386 0.6651 0.0
C469 C 0.42945 0.06967 0.6963 0.0
C470 C 0.48439 0.12024 0.70724 0.0
C471 C 0.52486 0.16644 0.6876 0.0
C472 C 0.51044 0.1606 0.65702 0.0
C473 C 0.45854 0.10986 0.64573 0.0
C474 C 0.44975 0.11774 0.61269 0.0
C475 C 0.4575 0.07092 0.59338 0.0
C476 C 0.38742 0.11269 0.60696 0.0
C477 C 0.50193 0.18279 0.60776 0.0
C478 C 0.53729 0.20637 0.63339 0.0
C479 C 0.58266 0.2684 0.63556 0.0
C480 C 0.5908 0.30764 0.61129 0.0
C481 C 0.55384 0.28454 0.58525 0.0
C482 C 0.51044 0.22096 0.58321 0.0
H483 H 0.45631 0.01321 0.20293 0.0
H484 H 0.4079 0.00272 1.10866 0.0
H485 H 0.48077 0.96827 1.09578 0.0
H486 H 0.60281 0.07311 0.19802 0.0
H487 H 0.61412 0.0267 0.22575 0.0
H488 H 0.54865 0.03591 0.22803 0.0
H489 H 0.47964 0.9171 0.22711 0.0
H490 H 0.54607 0.90852 0.22447 0.0
H491 H 0.48643 0.87289 0.19667 0.0
H492 H 0.57586 0.96487 1.09169 0.0
H493 H 0.67863 0.97808 1.09731 0.0
H494 H 0.66224 0.97983 0.19441 0.0
C495 C 0.45929 0.00077 0.17983 0.0
C496 C 0.42669 0.0104 0.1568 0.0
C497 C 0.432 -0.00511 1.12668 0.0
C498 C 0.4733 0.97525 1.11915 0.0
C499 C 0.50717 0.96901 1.14215 0.0
C500 C 0.49885 0.97881 0.17207 0.0
C501 C 0.54445 0.97334 0.19205 0.0
C502 C 0.57972 0.03084 0.21209 0.0
C503 C 0.51222 0.91445 0.2112 0.0
C504 C 0.58482 0.96768 0.16837 0.0
C505 C 0.56112 0.96322 1.13977 0.0
C506 C 0.59365 0.96566 1.11394 0.0
C507 C 0.65202 0.97344 1.11729 0.0
C508 C 0.67704 0.97793 1.14622 0.0
C509 C 0.64266 0.97376 0.17211 0.0
H510 H 0.41418 0.47653 0.44843 0.0
H511 H 0.30549 0.51157 0.5124 0.0
H512 H 0.39246 0.61739 0.52103 0.0
H513 H 0.54842 0.54832 0.48861 0.0
H514 H 0.59754 0.57901 0.45624 0.0
H515 H 0.52441 0.51023 0.45251 0.0
H516 H 0.49551 0.56166 0.41001 0.0
H517 H 0.56872 0.63096 0.41367 0.0
H518 H 0.49983 0.63486 0.41697 0.0
H519 H 0.49733 0.71443 0.52756 0.0
H520 H 0.60816 0.79123 0.53098 0.0
H521 H 0.64417 0.69276 0.4609 0.0
C522 C 0.4082 0.50701 0.46372 0.0
C523 C 0.35322 0.48627 0.47963 0.0
C524 C 0.34724 0.52698 0.4998 0.0
C525 C 0.39635 0.5871 0.50479 0.0
C526 C 0.45061 0.60588 0.48907 0.0
C527 C 0.45636 0.56697 0.46872 0.0
C528 C 0.52034 0.59568 0.45634 0.0
C529 C 0.54936 0.55597 0.4639 0.0
C530 C 0.52112 0.60643 0.42222 0.0
C531 C 0.55046 0.65612 0.47353 0.0
C532 C 0.50974 0.66178 0.4922 0.0
C533 C 0.52922 0.7112 0.51246 0.0
C534 C 0.59201 0.75477 0.5142 0.0
C535 C 0.63391 0.74831 0.4957 0.0
C536 C 0.61251 0.69947 0.47463 0.0
H537 H 0.09102 0.46457 0.81113 0.0
H538 H 0.89927 0.3614 0.83461 0.0
H539 H 0.90177 0.45966 0.84691 0.0
H540 H 0.13757 0.57862 0.86923 0.0
H541 H 0.19043 0.64278 0.84639 0.0
H542 H 0.17712 0.5666 0.8384 0.0
H543 H 0.14489 0.56723 0.78396 0.0
H544 H 0.16271 0.64583 0.78952 0.0
H545 H 0.08832 0.5888 0.77603 0.0
H546 H 0.92497 0.57117 0.85211 0.0
H547 H -0.03168 0.68514 0.85144 0.0
H548 H 0.14495 0.71015 0.82799 0.0
C549 C 0.04968 0.46253 0.81922 0.0
C550 C -0.005 0.40595 0.82208 0.0
C551 C 0.9416 0.40478 0.8324 0.0
C552 C 0.94271 0.46013 0.83948 0.0
C553 C -0.00227 0.51547 0.83644 0.0
C554 C 0.05028 0.51678 0.82675 0.0
C555 C 0.10317 0.58177 0.82426 0.0
C556 C 0.15503 0.59303 0.84592 0.0
C557 C 0.12606 0.59677 0.7915 0.0
C558 C 0.07235 0.6171 0.83395 0.0
C559 C 0.01143 0.57851 0.84067 0.0
C560 C -0.02712 0.60172 0.84746 0.0
C561 C -0.00254 0.66605 0.84696 0.0
C562 C 0.05962 0.70552 0.84016 0.0
C563 C 0.09754 0.68077 0.83414 0.0
H564 H 0.40775 0.20003 0.26099 0.0
H565 H 0.21436 0.07876 0.24516 0.0
H566 H 0.19143 0.11309 0.29304 0.0
H567 H 0.39695 0.16937 0.34347 0.0
H568 H 0.45469 0.24686 0.35355 0.0
H569 H 0.45749 0.21515 0.31738 0.0
H570 H 0.45928 0.30783 0.29096 0.0
H571 H 0.45606 0.33959 0.32704 0.0
H572 H 0.39963 0.32529 0.29867 0.0
H573 H 0.1873 0.16706 0.34049 0.0
H574 H 0.20126 0.22169 0.38828 0.0
H575 H 0.39708 0.2993 0.3816 0.0
C576 C 0.36057 0.18047 0.26768 0.0
C577 C 0.31282 0.13615 0.24854 0.0
C578 C 0.25202 0.11201 0.25885 0.0
C579 C 0.2384 0.13174 0.28619 0.0
C580 C 0.28585 0.17522 0.30425 0.0
C581 C 0.34593 0.19832 0.29592 0.0
C582 C 0.38767 0.242 0.32098 0.0
C583 C 0.42653 0.21685 0.33466 0.0
C584 C 0.42808 0.30758 0.30867 0.0
C585 C 0.34169 0.24058 0.34424 0.0
C586 C 0.28332 0.20232 0.3335 0.0
C587 C 0.23284 0.19558 0.34939 0.0
C588 C 0.24144 0.22683 0.37708 0.0
C589 C 0.30003 0.26368 0.39032 0.0
C590 C 0.35126 0.27114 0.37298 0.0
H591 H 0.16965 0.2725 0.58197 0.0
H592 H 0.36154 0.40624 0.59314 0.0
H593 H 0.3416 0.423 0.64621 0.0
H594 H 0.11268 0.35385 0.62884 0.0
H595 H 0.05015 0.28371 0.64375 0.0
H596 H 0.07968 0.28374 0.60675 0.0
H597 H 0.09815 0.19525 0.62221 0.0
H598 H 0.06808 0.19457 0.65902 0.0
H599 H 0.14341 0.20415 0.65509 0.0
H600 H 0.29786 0.42715 0.69963 0.0
H601 H 0.2392 0.41344 0.74645 0.0
H602 H 0.07575 0.2726 0.70213 0.0
C603 C 0.20791 0.30534 0.59547 0.0
C604 C 0.26782 0.33778 0.58263 0.0
C605 C 0.3155 0.38036 0.60176 0.0
C606 C 0.30431 0.39032 0.63218 0.0
C607 C 0.24486 0.35768 0.64392 0.0
C608 C 0.19747 0.31588 0.62597 0.0
C609 C 0.13771 0.28613 0.64389 0.0
C610 C 0.09237 0.30285 0.62997 0.0
C611 C 0.11022 0.2158 0.64518 0.0
C612 C 0.15863 0.31611 0.67511 0.0
C613 C 0.2205 0.35838 0.67443 0.0
C614 C 0.24958 0.39382 0.70012 0.0
C615 C 0.21546 0.38588 0.72686 0.0
C616 C 0.15214 0.34203 0.72874 0.0
C617 C 0.12385 0.30658 0.70206 0.0
H618 H 0.00713 0.30844 0.93299 0.0
H619 H -0.02072 0.13547 0.89574 0.0
H620 H 0.94088 0.08531 0.94486 0.0
H621 H 0.05182 0.28906 1.0095 0.0
H622 H 0.01116 0.32134 1.02851 0.0
H623 H 0.03948 0.34574 0.99081 0.0
H624 H 0.93097 0.31565 0.97307 0.0
H625 H 0.90239 0.29095 1.0107 0.0
H626 H 0.86902 0.23823 0.97942 0.0
H627 H 0.90791 0.05242 0.99922 0.0
H628 H 0.87623 0.0379 1.05252 0.0
H629 H 0.91448 0.22728 1.057 0.0
C630 C -0.00662 0.2601 0.93519 0.0
C631 C -0.00269 0.22657 0.90968 0.0
C632 C -0.02259 0.16299 0.91418 0.0
C633 C 0.95537 0.13377 0.94234 0.0
C634 C 0.95175 0.16756 0.9667 0.0
C635 C -0.03037 0.22931 0.96345 0.0
C636 C 0.95843 0.25367 0.99339 0.0
C637 C 0.01882 0.30556 1.00631 0.0
C638 C 0.91247 0.27596 0.98887 0.0
C639 C 0.93163 0.19623 1.01379 0.0
C640 C 0.92923 0.14746 0.99779 0.0
C641 C 0.90905 0.09031 1.01167 0.0
C642 C 0.89091 0.08241 1.04227 0.0
C643 C 0.89114 0.1305 1.05958 0.0
C644 C 0.91196 0.18858 1.0447 0.0
H645 H 0.87502 -2e-05 0.25557 0.0
H646 H 0.77079 0.09337 0.26446 0.0
H647 H 0.7508 0.06183 0.31805 0.0
H648 H 0.77867 0.8691 0.30309 0.0
H649 H 0.84068 0.8635 0.31954 0.0
H650 H 0.84833 0.89471 0.28222 0.0
H651 H 0.94582 -0.00554 0.2987 0.0
H652 H 0.93859 0.96349 0.33605 0.0
H653 H 0.94314 0.03715 0.33097 0.0
H654 H 0.74196 0.01901 0.37215 0.0
H655 H 0.74395 0.97039 0.41991 0.0
H656 H 0.85201 0.90055 0.37758 0.0
C657 C 0.84817 0.01424 0.26873 0.0
C658 C 0.82472 0.05005 0.25504 0.0
C659 C 0.78947 0.06647 0.2737 0.0
C660 C 0.77786 0.0485 0.30445 0.0
C661 C 0.80124 0.01313 0.31699 0.0
C662 C 0.83573 -0.00388 0.29962 0.0
C663 C 0.85498 0.95738 0.31859 0.0
C664 C 0.82913 0.89231 0.30504 0.0
C665 C 0.92478 -0.00994 0.32122 0.0
C666 C 0.82583 0.95481 0.34933 0.0
C667 C 0.79533 -0.01228 0.34781 0.0
C668 C 0.76563 -0.0069 0.37325 0.0
C669 C 0.76706 0.9649 0.40062 0.0
C670 C 0.79764 0.93042 0.40335 0.0
C671 C 0.82738 0.92552 0.37681 0.0
H672 H 0.84362 0.87002 0.6133 0.0
H673 H 0.94092 0.80563 0.55698 0.0
H674 H -0.003 0.80204 0.60139 0.0
H675 H -0.03092 0.96349 0.66546 0.0
H676 H 0.92197 0.94223 0.69868 0.0
H677 H 0.89014 0.94273 0.66245 0.0
H678 H 0.80604 0.82878 0.66957 0.0
H679 H 0.83741 0.82805 0.70589 0.0
H680 H 0.82732 0.77152 0.6777 0.0
H681 H 0.04865 0.81041 0.65231 0.0
H682 H 0.08137 0.81823 0.70546 0.0
H683 H 0.94555 0.86611 0.73206 0.0
C684 C 0.87667 0.8551 0.61026 0.0
C685 C 0.88732 0.83845 0.58082 0.0
C686 C 0.93105 0.81879 0.57864 0.0
C687 C 0.9637 0.81674 0.60401 0.0
C688 C 0.95237 0.83338 0.63239 0.0
C689 C 0.90918 0.85134 0.63584 0.0
C690 C 0.90448 0.86423 0.6694 0.0
C691 C 0.92246 0.9322 0.67428 0.0
C692 C 0.83996 0.82054 0.68135 0.0
C693 C 0.95129 0.85049 0.6841 0.0
C694 C -0.02078 0.83402 0.6621 0.0
C695 C 0.0262 0.82239 0.66964 0.0
C696 C 0.04474 0.82704 0.70011 0.0
C697 C 0.01587 0.84165 0.72358 0.0
C698 C -0.03185 0.8535 0.71508 0.0
H699 H 0.09343 0.87257 0.93813 0.0
H700 H 0.23684 0.02162 0.88656 0.0
H701 H 0.28953 0.07294 0.93359 0.0
H702 H 0.09435 0.96781 1.00208 0.0
H703 H 0.08304 0.91146 1.03032 0.0
H704 H 0.05403 0.88667 0.99269 0.0
H705 H 0.11343 0.82784 0.98872 0.0
H706 H 0.14262 0.85251 1.02632 0.0
H707 H 0.19453 0.86865 0.99534 0.0
H708 H 0.32878 0.11109 0.98732 0.0
H709 H 0.35231 0.12805 1.04183 0.0
H710 H 0.18885 0.9537 1.06085 0.0
C711 C 0.13562 0.91627 0.93669 0.0
C712 C 0.16011 0.94257 0.90781 0.0
C713 C 0.21627 -0.00039 0.90773 0.0
C714 C 0.2469 0.02961 0.93463 0.0
C715 C 0.22215 0.00259 0.96243 0.0
C716 C 0.16789 0.94687 0.96374 0.0
C717 C 0.15291 0.92713 0.99685 0.0
C718 C 0.09248 0.92302 1.00602 0.0
C719 C 0.15074 0.86535 1.00211 0.0
C720 C 0.20692 0.98013 1.01373 0.0
C721 C 0.24598 0.02349 0.99333 0.0
C722 C 0.2984 0.07701 1.00335 0.0
C723 C 0.31155 0.08646 1.03464 0.0
C724 C 0.27328 0.04257 1.05639 0.0
C725 C 0.21993 -0.01149 1.04529 0.0
loop_
_geom_bond_atom_site_label_1
_geom_bond_atom_site_label_2
_geom_bond_distance
_geom_bond_site_symmetry_2
_ccdc_geom_bond_type
Ho0 C3 2.811 . S
Ho0 O20 2.322 . S
Ho0 O22 2.378 . S
Ho0 O23 2.524 . S
Ho0 O24 2.381 . S
Ho0 O25 2.669 1_554 S
Ho0 O27 2.346 1_554 S
Ho0 O31 2.305 . S
Ho1 C12 2.811 . S
Ho1 O21 2.346 1_556 S
Ho1 O25 2.305 . S
Ho1 O26 2.322 . S
Ho1 O28 2.378 . S
Ho1 O29 2.524 . S
Ho1 O30 2.381 . S
Ho1 O31 2.669 1_556 S
C2 O20 1.259 . S
C2 O21 1.268 . S
C3 Ho0 2.811 . S
C3 C4 1.488 . S
C3 O22 1.215 . S
C3 O23 1.289 . S
C4 C3 1.488 . S
C4 C5 1.348 . S
C4 C9 1.413 . S
C5 C4 1.348 . S
C5 C6 1.442 . S
C5 H32 0.930 . S
C6 C5 1.442 . S
C6 C7 1.381 . S
C6 H33 0.931 . S
C7 C6 1.381 . S
C7 C8 1.321 1_545 S
C8 C7 1.321 1_565 S
C8 C9 1.403 1_565 S
C8 H34 0.934 . S
C9 C4 1.413 . S
C9 C8 1.403 1_545 S
C9 H35 0.930 . S
C10 O24 1.275 . S
C10 O25 1.256 1_554 S
C11 O26 1.259 . S
C11 O27 1.268 . S
C12 Ho1 2.811 . S
C12 C13 1.488 . S
C12 O28 1.215 . S
C12 O29 1.289 . S
C13 C12 1.488 . S
C13 C14 1.348 . S
C13 C18 1.413 . S
C14 C13 1.348 . S
C14 C15 1.442 . S
C14 H36 0.930 . S
C15 C14 1.442 . S
C15 C16 1.381 . S
C15 H37 0.931 . S
C16 C15 1.381 . S
C16 C17 1.321 . S
C17 C16 1.321 . S
C17 C18 1.403 . S
C17 H38 0.934 . S
C18 C13 1.413 . S
C18 C17 1.403 . S
C18 H39 0.930 . S
C19 O30 1.275 1_554 S
C19 O31 1.256 . S
O20 Ho0 2.322 . S
O20 C2 1.259 . S
O21 Ho1 2.346 1_554 S
O21 C2 1.268 . S
O22 Ho0 2.378 . S
O22 C3 1.215 . S
O23 Ho0 2.524 . S
O23 C3 1.289 . S
O24 Ho0 2.381 . S
O24 C10 1.275 . S
O25 Ho0 2.669 1_556 S
O25 Ho1 2.305 . S
O25 C10 1.256 1_556 S
O26 Ho1 2.322 . S
O26 C11 1.259 . S
O27 Ho0 2.346 1_556 S
O27 C11 1.268 . S
O28 Ho1 2.378 . S
O28 C12 1.215 . S
O29 Ho1 2.524 . S
O29 C12 1.289 . S
O30 Ho1 2.381 . S
O30 C19 1.275 1_556 S
O31 Ho0 2.305 . S
O31 Ho1 2.669 1_554 S
O31 C19 1.256 . S
H32 C5 0.930 . S
H33 C6 0.931 . S
H34 C8 0.934 . S
H35 C9 0.930 . S
H36 C14 0.930 . S
H37 C15 0.931 . S
H38 C17 0.934 . S
H39 C18 0.930 . S
Ho40 C43 2.811 . S
Ho40 O60 2.322 . S
Ho40 O62 2.378 . S
Ho40 O63 2.524 . S
Ho40 O64 2.381 . S
Ho40 O65 2.669 . S
Ho40 O67 2.346 . S
Ho40 O71 2.305 . S
Ho41 C52 2.811 . S
Ho41 O61 2.346 . S
Ho41 O65 2.305 . S
Ho41 O66 2.322 . S
Ho41 O68 2.378 . S
Ho41 O69 2.524 . S
Ho41 O70 2.381 . S
Ho41 O71 2.669 . S
C42 O60 1.259 . S
C42 O61 1.268 . S
C43 Ho40 2.811 . S
C43 C44 1.488 . S
C43 O62 1.215 . S
C43 O63 1.289 . S
C44 C43 1.488 . S
C44 C45 1.348 . S
C44 C49 1.413 . S
C45 C44 1.348 . S
C45 C46 1.442 . S
C45 H72 0.930 . S
C46 C45 1.442 . S
C46 C47 1.381 . S
C46 H73 0.931 . S
C47 C46 1.381 . S
C47 C48 1.321 . S
C48 C47 1.321 . S
C48 C49 1.403 . S
C48 H74 0.934 . S
C49 C44 1.413 . S
C49 C48 1.403 . S
C49 H75 0.930 . S
C50 O64 1.275 . S
C50 O65 1.256 . S
C51 O66 1.259 . S
C51 O67 1.268 . S
C52 Ho41 2.811 . S
C52 C53 1.488 . S
C52 O68 1.215 . S
C52 O69 1.289 . S
C53 C52 1.488 . S
C53 C54 1.348 . S
C53 C58 1.413 . S
C54 C53 1.348 . S
C54 C55 1.442 . S
C54 H76 0.930 . S
C55 C54 1.442 . S
C55 C56 1.381 . S
C55 H77 0.931 . S
C56 C55 1.381 . S
C56 C57 1.321 . S
C57 C56 1.321 . S
C57 C58 1.403 . S
C57 H78 0.934 . S
C58 C53 1.413 . S
C58 C57 1.403 . S
C58 H79 0.930 . S
C59 O70 1.275 . S
C59 O71 1.256 . S
O60 Ho40 2.322 . S
O60 C42 1.259 . S
O61 Ho41 2.346 . S
O61 C42 1.268 . S
O62 Ho40 2.378 . S
O62 C43 1.215 . S
O63 Ho40 2.524 . S
O63 C43 1.289 . S
O64 Ho40 2.381 . S
O64 C50 1.275 . S
O65 Ho40 2.669 . S
O65 Ho41 2.305 . S
O65 C50 1.256 . S
O66 Ho41 2.322 . S
O66 C51 1.259 . S
O67 Ho40 2.346 . S
O67 C51 1.268 . S
O68 Ho41 2.378 . S
O68 C52 1.215 . S
O69 Ho41 2.524 . S
O69 C52 1.289 . S
O70 Ho41 2.381 . S
O70 C59 1.275 . S
O71 Ho40 2.305 . S
O71 Ho41 2.669 . S
O71 C59 1.256 . S
H72 C45 0.930 . S
H73 C46 0.931 . S
H74 C48 0.934 . S
H75 C49 0.930 . S
H76 C54 0.930 . S
H77 C55 0.931 . S
H78 C57 0.934 . S
H79 C58 0.930 . S
Ho80 C83 2.811 . S
Ho80 O100 2.322 1_455 S
Ho80 O102 2.378 . S
Ho80 O103 2.524 . S
Ho80 O104 2.381 . S
Ho80 O105 2.669 1_455 S
Ho80 O107 2.346 . S
Ho80 O111 2.305 . S
Ho81 C92 2.811 . S
Ho81 O101 2.346 . S
Ho81 O105 2.305 . S
Ho81 O106 2.322 1_655 S
Ho81 O108 2.378 . S
Ho81 O109 2.524 . S
Ho81 O110 2.381 . S
Ho81 O111 2.669 1_655 S
C82 O100 1.259 . S
C82 O101 1.268 . S
C83 Ho80 2.811 . S
C83 C84 1.488 . S
C83 O102 1.215 . S
C83 O103 1.289 . S
C84 C83 1.488 . S
C84 C85 1.348 . S
C84 C89 1.413 . S
C85 C84 1.348 . S
C85 C86 1.442 . S
C85 H112 0.930 . S
C86 C85 1.442 . S
C86 C87 1.381 . S
C86 H113 0.931 . S
C87 C86 1.381 . S
C87 C88 1.321 . S
C88 C87 1.321 . S
C88 C89 1.403 . S
C88 H114 0.934 . S
C89 C84 1.413 . S
C89 C88 1.403 . S
C89 H115 0.930 . S
C90 O104 1.275 . S
C90 O105 1.256 1_455 S
C91 O106 1.259 . S
C91 O107 1.268 . S
C92 Ho81 2.811 . S
C92 C93 1.488 . S
C92 O108 1.215 . S
C92 O109 1.289 . S
C93 C92 1.488 . S
C93 C94 1.348 . S
C93 C98 1.413 . S
C94 C93 1.348 . S
C94 C95 1.442 . S
C94 H116 0.930 . S
C95 C94 1.442 . S
C95 C96 1.381 . S
C95 H117 0.931 . S
C96 C95 1.381 . S
C96 C97 1.321 . S
C97 C96 1.321 . S
C97 C98 1.403 . S
C97 H118 0.934 . S
C98 C93 1.413 . S
C98 C97 1.403 . S
C98 H119 0.930 . S
C99 O110 1.275 . S
C99 O111 1.256 1_655 S
O100 Ho80 2.322 1_655 S
O100 C82 1.259 . S
O101 Ho81 2.346 . S
O101 C82 1.268 . S
O102 Ho80 2.378 . S
O102 C83 1.215 . S
O103 Ho80 2.524 . S
O103 C83 1.289 . S
O104 Ho80 2.381 . S
O104 C90 1.275 . S
O105 Ho80 2.669 1_655 S
O105 Ho81 2.305 . S
O105 C90 1.256 1_655 S
O106 Ho81 2.322 1_455 S
O106 C91 1.259 . S
O107 Ho80 2.346 . S
O107 C91 1.268 . S
O108 Ho81 2.378 . S
O108 C92 1.215 . S
O109 Ho81 2.524 . S
O109 C92 1.289 . S
O110 Ho81 2.381 . S
O110 C99 1.275 . S
O111 Ho80 2.305 . S
O111 Ho81 2.669 1_455 S
O111 C99 1.256 1_455 S
H112 C85 0.930 . S
H113 C86 0.931 . S
H114 C88 0.934 . S
H115 C89 0.930 . S
H116 C94 0.930 . S
H117 C95 0.931 . S
H118 C97 0.934 . S
H119 C98 0.930 . S
Ho120 C123 2.811 . S
Ho120 O140 2.306 1_545 S
Ho120 O142 2.378 . S
Ho120 O143 2.524 . S
Ho120 O144 2.381 . S
Ho120 O145 2.669 1_544 S
Ho120 O147 2.346 1_554 S
Ho120 O151 2.305 . S
Ho121 C132 2.811 . S
Ho121 O141 2.346 1_556 S
Ho121 O145 2.305 . S
Ho121 O146 2.322 1_565 S
Ho121 O148 2.378 . S
Ho121 O149 2.524 . S
Ho121 O150 2.381 . S
Ho121 O151 2.669 1_566 S
C122 O140 1.273 . S
C122 O141 1.268 . S
C123 Ho120 2.811 . S
C123 C124 1.488 . S
C123 O142 1.215 . S
C123 O143 1.289 . S
C124 C123 1.488 . S
C124 C125 1.348 . S
C124 C129 1.413 . S
C125 C124 1.348 . S
C125 C126 1.442 . S
C125 H152 0.930 . S
C126 C125 1.442 . S
C126 C127 1.381 . S
C126 H153 0.931 . S
C127 C126 1.381 . S
C127 C128 1.321 . S
C128 C127 1.321 . S
C128 C129 1.403 . S
C128 H154 0.934 . S
C129 C124 1.413 . S
C129 C128 1.403 . S
C129 H155 0.930 . S
C130 O144 1.275 . S
C130 O145 1.256 1_544 S
C131 O146 1.259 . S
C131 O147 1.268 . S
C132 Ho121 2.811 . S
C132 C133 1.488 . S
C132 O148 1.215 . S
C132 O149 1.289 . S
C133 C132 1.488 . S
C133 C134 1.348 . S
C133 C138 1.413 . S
C134 C133 1.348 . S
C134 C135 1.442 . S
C134 H156 0.930 . S
C135 C134 1.442 . S
C135 C136 1.381 . S
C135 H157 0.931 . S
C136 C135 1.381 . S
C136 C137 1.321 . S
C137 C136 1.321 . S
C137 C138 1.403 . S
C137 H158 0.934 . S
C138 C133 1.413 . S
C138 C137 1.403 . S
C138 H159 0.930 . S
C139 O150 1.275 1_554 S
C139 O151 1.256 1_565 S
O140 Ho120 2.306 1_565 S
O140 C122 1.273 . S
O141 Ho121 2.346 1_554 S
O141 C122 1.268 . S
O142 Ho120 2.378 . S
O142 C123 1.215 . S
O143 Ho120 2.524 . S
O143 C123 1.289 . S
O144 Ho120 2.381 . S
O144 C130 1.275 . S
O145 Ho120 2.669 1_566 S
O145 Ho121 2.305 . S
O145 C130 1.256 1_566 S
O146 Ho121 2.322 1_545 S
O146 C131 1.259 . S
O147 Ho120 2.346 1_556 S
O147 C131 1.268 . S
O148 Ho121 2.378 . S
O148 C132 1.215 . S
O149 Ho121 2.524 . S
O149 C132 1.289 . S
O150 Ho121 2.381 . S
O150 C139 1.275 1_556 S
O151 Ho120 2.305 . S
O151 Ho121 2.669 1_544 S
O151 C139 1.256 1_545 S
H152 C125 0.930 . S
H153 C126 0.931 . S
H154 C128 0.934 . S
H155 C129 0.930 . S
H156 C134 0.930 . S
H157 C135 0.931 . S
H158 C137 0.934 . S
H159 C138 0.930 . S
Ho160 C163 2.811 . S
Ho160 O180 2.322 . S
Ho160 O182 2.378 . S
Ho160 O183 2.524 . S
Ho160 O184 2.381 . S
Ho160 O185 2.669 . S
Ho160 O187 2.346 . S
Ho160 O191 2.305 . S
Ho161 C172 2.811 . S
Ho161 O181 2.346 . S
Ho161 O185 2.305 . S
Ho161 O186 2.322 . S
Ho161 O188 2.378 . S
Ho161 O189 2.524 1_655 S
Ho161 O190 2.381 . S
Ho161 O191 2.669 . S
C162 O180 1.259 . S
C162 O181 1.268 . S
C163 Ho160 2.811 . S
C163 C164 1.488 . S
C163 O182 1.215 . S
C163 O183 1.289 . S
C164 C163 1.488 . S
C164 C165 1.348 . S
C164 C169 1.413 . S
C165 C164 1.348 . S
C165 C166 1.442 . S
C165 H192 0.930 . S
C166 C165 1.442 . S
C166 C167 1.381 . S
C166 H193 0.931 . S
C167 C166 1.381 . S
C167 C168 1.321 . S
C168 C167 1.321 . S
C168 C169 1.403 . S
C168 H194 0.934 . S
C169 C164 1.413 . S
C169 C168 1.403 . S
C169 H195 0.930 . S
C170 O184 1.275 1_455 S
C170 O185 1.256 1_455 S
C171 O186 1.259 . S
C171 O187 1.268 . S
C172 Ho161 2.811 . S
C172 C173 1.488 1_655 S
C172 O188 1.215 . S
C172 O189 1.289 1_655 S
C173 C172 1.488 1_455 S
C173 C174 1.348 . S
C173 C178 1.413 1_455 S
C174 C173 1.348 . S
C174 C175 1.442 . S
C174 H196 0.930 . S
C175 C174 1.442 . S
C175 C176 1.381 . S
C175 H197 0.931 . S
C176 C175 1.381 . S
C176 C177 1.321 . S
C177 C176 1.321 . S
C177 C178 1.403 1_455 S
C177 H198 0.934 1_455 S
C178 C173 1.413 1_655 S
C178 C177 1.403 1_655 S
C178 H199 0.930 . S
C179 O190 1.275 . S
C179 O191 1.256 . S
O180 Ho160 2.322 . S
O180 C162 1.259 . S
O181 Ho161 2.346 . S
O181 C162 1.268 . S
O182 Ho160 2.378 . S
O182 C163 1.215 . S
O183 Ho160 2.524 . S
O183 C163 1.289 . S
O184 Ho160 2.381 . S
O184 C170 1.275 1_655 S
O185 Ho160 2.669 . S
O185 Ho161 2.305 . S
O185 C170 1.256 1_655 S
O186 Ho161 2.322 . S
O186 C171 1.259 . S
O187 Ho160 2.346 . S
O187 C171 1.268 . S
O188 Ho161 2.378 . S
O188 C172 1.215 . S
O189 Ho161 2.524 1_455 S
O189 C172 1.289 1_455 S
O190 Ho161 2.381 . S
O190 C179 1.275 . S
O191 Ho160 2.305 . S
O191 Ho161 2.669 . S
O191 C179 1.256 . S
H192 C165 0.930 . S
H193 C166 0.931 . S
H194 C168 0.934 . S
H195 C169 0.930 . S
H196 C174 0.930 . S
H197 C175 0.931 . S
H198 C177 0.934 1_655 S
H199 C178 0.930 . S
Ho200 C203 2.811 . S
Ho200 O220 2.322 . S
Ho200 O222 2.378 . S
Ho200 O223 2.524 . S
Ho200 O224 2.381 . S
Ho200 O225 2.669 . S
Ho200 O227 2.346 . S
Ho200 O231 2.305 . S
Ho201 C212 2.811 . S
Ho201 O221 2.346 . S
Ho201 O225 2.305 . S
Ho201 O226 2.322 . S
Ho201 O228 2.378 . S
Ho201 O229 2.524 1_565 S
Ho201 O230 2.381 . S
Ho201 O231 2.669 . S
C202 O220 1.259 . S
C202 O221 1.268 . S
C203 Ho200 2.811 . S
C203 C204 1.488 . S
C203 O222 1.215 . S
C203 O223 1.289 . S
C204 C203 1.488 . S
C204 C205 1.348 . S
C204 C209 1.413 . S
C205 C204 1.348 . S
C205 C206 1.442 . S
C205 H232 0.930 . S
C206 C205 1.442 . S
C206 C207 1.381 . S
C206 H233 0.931 . S
C207 C206 1.381 . S
C207 C208 1.321 1_455 S
C208 C207 1.321 1_655 S
C208 C209 1.403 1_655 S
C208 H234 0.934 . S
C209 C204 1.413 . S
C209 C208 1.403 1_455 S
C209 H235 0.930 . S
C210 O224 1.275 1_545 S
C210 O225 1.256 1_545 S
C211 O226 1.259 . S
C211 O227 1.268 . S
C212 Ho201 2.811 . S
C212 C213 1.488 1_565 S
C212 O228 1.215 . S
C212 O229 1.289 1_565 S
C213 C212 1.488 1_545 S
C213 C214 1.348 . S
C213 C218 1.413 1_545 S
C214 C213 1.348 . S
C214 C215 1.442 . S
C214 H236 0.930 . S
C215 C214 1.442 . S
C215 C216 1.381 . S
C215 H237 0.931 . S
C216 C215 1.381 . S
C216 C217 1.321 . S
C217 C216 1.321 . S
C217 C218 1.403 1_545 S
C217 H238 0.934 1_545 S
C218 C213 1.413 1_565 S
C218 C217 1.403 1_565 S
C218 H239 0.930 . S
C219 O230 1.275 . S
C219 O231 1.256 . S
O220 Ho200 2.322 . S
O220 C202 1.259 . S
O221 Ho201 2.346 . S
O221 C202 1.268 . S
O222 Ho200 2.378 . S
O222 C203 1.215 . S
O223 Ho200 2.524 . S
O223 C203 1.289 . S
O224 Ho200 2.381 . S
O224 C210 1.275 1_565 S
O225 Ho200 2.669 . S
O225 Ho201 2.305 . S
O225 C210 1.256 1_565 S
O226 Ho201 2.322 . S
O226 C211 1.259 . S
O227 Ho200 2.346 . S
O227 C211 1.268 . S
O228 Ho201 2.378 . S
O228 C212 1.215 . S
O229 Ho201 2.524 1_545 S
O229 C212 1.289 1_545 S
O230 Ho201 2.381 . S
O230 C219 1.275 . S
O231 Ho200 2.305 . S
O231 Ho201 2.669 . S
O231 C219 1.256 . S
H232 C205 0.930 . S
H233 C206 0.931 . S
H234 C208 0.934 . S
H235 C209 0.930 . S
H236 C214 0.930 . S
H237 C215 0.931 . S
H238 C217 0.934 1_565 S
H239 C218 0.930 . S
H240 C252 0.930 1_565 S
H241 C254 0.930 . S
H242 C255 0.930 . S
H243 C259 0.959 . S
H244 C259 0.959 . S
H245 C259 0.961 1_565 S
H246 C260 0.960 . S
H247 C260 0.961 . S
H248 C260 0.959 . S
H249 C263 0.929 . S
H250 C264 0.931 . S
H251 C266 0.930 . S
C252 H240 0.930 1_545 S
C252 C253 1.399 1_556 S
C252 C257 1.399 1_655 S
C253 C252 1.399 1_554 S
C253 C254 1.376 . S
C254 H241 0.930 . S
C254 C253 1.376 . S
C254 C255 1.388 1_655 S
C255 H242 0.930 . S
C255 C254 1.388 1_455 S
C255 C256 1.390 . S
C256 C255 1.390 . S
C256 C257 1.394 1_554 S
C256 C262 1.465 . S
C257 C252 1.399 1_455 S
C257 C256 1.394 1_556 S
C257 C258 1.516 . S
C258 C257 1.516 . S
C258 C259 1.502 . S
C258 C260 1.561 . S
C258 C261 1.526 . S
C259 H243 0.959 . S
C259 H244 0.959 . S
C259 H245 0.961 1_545 S
C259 C258 1.502 . S
C260 H246 0.960 . S
C260 H247 0.961 . S
C260 H248 0.959 . S
C260 C258 1.561 . S
C261 C258 1.526 . S
C261 C262 1.396 1_556 S
C261 C266 1.390 . S
C262 C256 1.465 . S
C262 C261 1.396 1_554 S
C262 C263 1.399 . S
C263 H249 0.929 . S
C263 C262 1.399 . S
C263 C264 1.385 . S
C264 H250 0.931 . S
C264 C263 1.385 . S
C264 C265 1.389 . S
C265 C264 1.389 . S
C265 C266 1.387 1_554 S
C266 H251 0.930 . S
C266 C261 1.390 . S
C266 C265 1.387 1_556 S
H267 C279 0.930 . S
H268 C281 0.930 1_655 S
H269 C282 0.930 . S
H270 C286 0.959 . S
H271 C286 0.959 . S
H272 C286 0.961 . S
H273 C287 0.960 . S
H274 C287 0.961 . S
H275 C287 0.959 . S
H276 C290 0.929 . S
H277 C291 0.931 . S
H278 C293 0.930 . S
C279 H267 0.930 . S
C279 C280 1.399 . S
C279 C284 1.399 1_565 S
C280 C279 1.399 . S
C280 C281 1.376 . S
C281 H268 0.930 1_455 S
C281 C280 1.376 . S
C281 C282 1.388 1_565 S
C282 H269 0.930 . S
C282 C281 1.388 1_545 S
C282 C283 1.390 . S
C283 C282 1.390 . S
C283 C284 1.394 . S
C283 C289 1.465 . S
C284 C279 1.399 1_545 S
C284 C283 1.394 . S
C284 C285 1.516 . S
C285 C284 1.516 . S
C285 C286 1.502 . S
C285 C287 1.561 . S
C285 C288 1.526 . S
C286 H270 0.959 . S
C286 H271 0.959 . S
C286 H272 0.961 . S
C286 C285 1.502 . S
C287 H273 0.960 . S
C287 H274 0.961 . S
C287 H275 0.959 . S
C287 C285 1.561 . S
C288 C285 1.526 . S
C288 C289 1.396 . S
C288 C293 1.390 . S
C289 C283 1.465 . S
C289 C288 1.396 . S
C289 C290 1.399 . S
C290 H276 0.929 . S
C290 C289 1.399 . S
C290 C291 1.385 . S
C291 H277 0.931 . S
C291 C290 1.385 . S
C291 C292 1.389 . S
C292 C291 1.389 . S
C292 C293 1.387 . S
C293 H278 0.930 . S
C293 C288 1.390 . S
C293 C292 1.387 . S
H294 C306 0.930 . S
H295 C308 0.930 . S
H296 C309 0.930 . S
H297 C313 0.959 . S
H298 C313 0.959 . S
H299 C313 0.961 . S
H300 C314 0.960 . S
H301 C314 0.961 . S
H302 C314 0.959 . S
H303 C317 0.929 . S
H304 C318 0.931 1_655 S
H305 C320 0.930 . S
C306 H294 0.930 . S
C306 C307 1.399 . S
C306 C311 1.399 . S
C307 C306 1.399 . S
C307 C308 1.376 . S
C308 H295 0.930 . S
C308 C307 1.376 . S
C308 C309 1.388 . S
C309 H296 0.930 . S
C309 C308 1.388 . S
C309 C310 1.390 . S
C310 C309 1.390 . S
C310 C311 1.394 . S
C310 C316 1.465 . S
C311 C306 1.399 . S
C311 C310 1.394 . S
C311 C312 1.516 . S
C312 C311 1.516 . S
C312 C313 1.502 . S
C312 C314 1.561 . S
C312 C315 1.526 . S
C313 H297 0.959 . S
C313 H298 0.959 . S
C313 H299 0.961 . S
C313 C312 1.502 . S
C314 H300 0.960 . S
C314 H301 0.961 . S
C314 H302 0.959 . S
C314 C312 1.561 . S
C315 C312 1.526 . S
C315 C316 1.396 . S
C315 C320 1.390 . S
C316 C310 1.465 . S
C316 C315 1.396 . S
C316 C317 1.399 . S
C317 H303 0.929 . S
C317 C316 1.399 . S
C317 C318 1.385 . S
C318 H304 0.931 1_455 S
C318 C317 1.385 . S
C318 C319 1.389 . S
C319 C318 1.389 . S
C319 C320 1.387 . S
C320 H305 0.930 . S
C320 C315 1.390 . S
C320 C319 1.387 . S
H321 C333 0.930 . S
H322 C335 0.930 . S
H323 C336 0.930 . S
H324 C340 0.959 . S
H325 C340 0.959 . S
H326 C340 0.961 . S
H327 C341 0.960 . S
H328 C341 0.961 . S
H329 C341 0.959 . S
H330 C344 0.929 . S
H331 C345 0.931 . S
H332 C347 0.930 . S
C333 H321 0.930 . S
C333 C334 1.399 . S
C333 C338 1.399 . S
C334 C333 1.399 . S
C334 C335 1.376 . S
C335 H322 0.930 . S
C335 C334 1.376 . S
C335 C336 1.388 . S
C336 H323 0.930 . S
C336 C335 1.388 . S
C336 C337 1.390 . S
C337 C336 1.390 . S
C337 C338 1.394 . S
C337 C343 1.465 . S
C338 C333 1.399 . S
C338 C337 1.394 . S
C338 C339 1.516 . S
C339 C338 1.516 . S
C339 C340 1.502 . S
C339 C341 1.561 . S
C339 C342 1.526 . S
C340 H324 0.959 . S
C340 H325 0.959 . S
C340 H326 0.961 . S
C340 C339 1.502 . S
C341 H327 0.960 . S
C341 H328 0.961 . S
C341 H329 0.959 . S
C341 C339 1.561 . S
C342 C339 1.526 . S
C342 C343 1.396 . S
C342 C347 1.390 . S
C343 C337 1.465 . S
C343 C342 1.396 . S
C343 C344 1.399 . S
C344 H330 0.929 . S
C344 C343 1.399 . S
C344 C345 1.385 . S
C345 H331 0.931 . S
C345 C344 1.385 . S
C345 C346 1.389 . S
C346 C345 1.389 . S
C346 C347 1.387 . S
C347 H332 0.930 . S
C347 C342 1.390 . S
C347 C346 1.387 . S
H348 C360 0.930 . S
H349 C362 0.930 . S
H350 C363 0.930 . S
H351 C367 0.959 . S
H352 C367 0.959 . S
H353 C367 0.961 1_455 S
H354 C368 0.960 . S
H355 C368 0.961 . S
H356 C368 0.959 . S
H357 C371 0.929 . S
H358 C372 0.931 . S
H359 C374 0.930 . S
C360 H348 0.930 . S
C360 C361 1.399 . S
C360 C365 1.399 . S
C361 C360 1.399 . S
C361 C362 1.376 . S
C362 H349 0.930 . S
C362 C361 1.376 . S
C362 C363 1.388 . S
C363 H350 0.930 . S
C363 C362 1.388 . S
C363 C364 1.390 . S
C364 C363 1.390 . S
C364 C365 1.394 . S
C364 C370 1.465 1_455 S
C365 C360 1.399 . S
C365 C364 1.394 . S
C365 C366 1.516 . S
C366 C365 1.516 . S
C366 C367 1.502 1_455 S
C366 C368 1.561 . S
C366 C369 1.526 1_455 S
C367 H351 0.959 . S
C367 H352 0.959 . S
C367 H353 0.961 1_655 S
C367 C366 1.502 1_655 S
C368 H354 0.960 . S
C368 H355 0.961 . S
C368 H356 0.959 . S
C368 C366 1.561 . S
C369 C366 1.526 1_655 S
C369 C370 1.396 . S
C369 C374 1.390 . S
C370 C364 1.465 1_655 S
C370 C369 1.396 . S
C370 C371 1.399 . S
C371 H357 0.929 . S
C371 C370 1.399 . S
C371 C372 1.385 . S
C372 H358 0.931 . S
C372 C371 1.385 . S
C372 C373 1.389 . S
C373 C372 1.389 . S
C373 C374 1.387 . S
C374 H359 0.930 . S
C374 C369 1.390 . S
C374 C373 1.387 . S
H375 C387 0.930 . S
H376 C389 0.930 . S
H377 C390 0.930 . S
H378 C394 0.959 . S
H379 C394 0.959 . S
H380 C394 0.951 1_545 S
H381 C395 0.960 . S
H382 C395 0.961 . S
H383 C395 0.959 . S
H384 C398 0.929 1_545 S
H385 C399 0.931 . S
H386 C401 0.930 . S
C387 H375 0.930 . S
C387 C388 1.399 . S
C387 C392 1.399 . S
C388 C387 1.399 . S
C388 C389 1.376 . S
C389 H376 0.930 . S
C389 C388 1.376 . S
C389 C390 1.388 . S
C390 H377 0.930 . S
C390 C389 1.388 . S
C390 C391 1.390 . S
C391 C390 1.390 . S
C391 C392 1.394 . S
C391 C397 1.447 1_545 S
C392 C387 1.399 . S
C392 C391 1.394 . S
C392 C393 1.516 1_545 S
C393 C392 1.516 1_565 S
C393 C394 1.502 . S
C393 C395 1.561 . S
C393 C396 1.526 . S
C394 H378 0.959 . S
C394 H379 0.959 . S
C394 H380 0.951 1_565 S
C394 C393 1.502 . S
C395 H381 0.960 . S
C395 H382 0.961 . S
C395 H383 0.959 . S
C395 C393 1.561 . S
C396 C393 1.526 . S
C396 C397 1.409 . S
C396 C401 1.390 . S
C397 C391 1.447 1_565 S
C397 C396 1.409 . S
C397 C398 1.405 . S
C398 H384 0.929 1_565 S
C398 C397 1.405 . S
C398 C399 1.385 . S
C399 H385 0.931 . S
C399 C398 1.385 . S
C399 C400 1.389 . S
C400 C399 1.389 . S
C400 C401 1.387 . S
C401 H386 0.930 . S
C401 C396 1.390 . S
C401 C400 1.387 . S
H402 C414 0.930 . S
H403 C416 0.930 . S
H404 C417 0.930 . S
H405 C421 0.959 . S
H406 C421 0.959 . S
H407 C421 0.961 . S
H408 C422 0.960 . S
H409 C422 0.961 . S
H410 C422 0.959 . S
H411 C425 0.929 . S
H412 C426 0.931 1_455 S
H413 C428 0.930 . S
C414 H402 0.930 . S
C414 C415 1.399 . S
C414 C419 1.399 . S
C415 C414 1.399 . S
C415 C416 1.376 . S
C416 H403 0.930 . S
C416 C415 1.376 . S
C416 C417 1.388 . S
C417 H404 0.930 . S
C417 C416 1.388 . S
C417 C418 1.390 . S
C418 C417 1.390 . S
C418 C419 1.394 . S
C418 C424 1.465 . S
C419 C414 1.399 . S
C419 C418 1.394 . S
C419 C420 1.516 . S
C420 C419 1.516 . S
C420 C421 1.502 . S
C420 C422 1.561 . S
C420 C423 1.526 . S
C421 H405 0.959 . S
C421 H406 0.959 . S
C421 H407 0.961 . S
C421 C420 1.502 . S
C422 H408 0.960 . S
C422 H409 0.961 . S
C422 H410 0.959 . S
C422 C420 1.561 . S
C423 C420 1.526 . S
C423 C424 1.396 . S
C423 C428 1.390 . S
C424 C418 1.465 . S
C424 C423 1.396 . S
C424 C425 1.399 . S
C425 H411 0.929 . S
C425 C424 1.399 . S
C425 C426 1.385 . S
C426 H412 0.931 1_655 S
C426 C425 1.385 . S
C426 C427 1.389 1_655 S
C427 C426 1.389 1_455 S
C427 C428 1.387 1_455 S
C428 H413 0.930 . S
C428 C423 1.390 . S
C428 C427 1.387 1_655 S
H429 C441 0.930 . S
H430 C443 0.930 . S
H431 C444 0.930 . S
H432 C448 0.959 . S
H433 C448 0.959 . S
H434 C448 0.961 . S
H435 C449 0.960 . S
H436 C449 0.961 . S
H437 C449 0.959 . S
H438 C452 0.929 . S
H439 C453 0.931 . S
H440 C455 0.930 . S
C441 H429 0.930 . S
C441 C442 1.399 . S
C441 C446 1.399 . S
C442 C441 1.399 . S
C442 C443 1.376 . S
C443 H430 0.930 . S
C443 C442 1.376 . S
C443 C444 1.388 . S
C444 H431 0.930 . S
C444 C443 1.388 . S
C444 C445 1.390 . S
C445 C444 1.390 . S
C445 C446 1.394 . S
C445 C451 1.465 . S
C446 C441 1.399 . S
C446 C445 1.394 . S
C446 C447 1.516 . S
C447 C446 1.516 . S
C447 C448 1.502 . S
C447 C449 1.561 . S
C447 C450 1.526 . S
C448 H432 0.959 . S
C448 H433 0.959 . S
C448 H434 0.961 . S
C448 C447 1.502 . S
C449 H435 0.960 . S
C449 H436 0.961 . S
C449 H437 0.959 . S
C449 C447 1.561 . S
C450 C447 1.526 . S
C450 C451 1.396 . S
C450 C455 1.390 . S
C451 C445 1.465 . S
C451 C450 1.396 . S
C451 C452 1.399 . S
C452 H438 0.929 . S
C452 C451 1.399 . S
C452 C453 1.385 1_565 S
C453 H439 0.931 . S
C453 C452 1.385 1_545 S
C453 C454 1.389 . S
C454 C453 1.389 . S
C454 C455 1.387 1_545 S
C455 H440 0.930 . S
C455 C450 1.390 . S
C455 C454 1.387 1_565 S
H456 C468 0.930 . S
H457 C470 0.930 . S
H458 C471 0.930 . S
H459 C475 0.959 . S
H460 C475 0.959 . S
H461 C475 0.961 . S
H462 C476 0.960 . S
H463 C476 0.961 . S
H464 C476 0.959 . S
H465 C479 0.929 . S
H466 C480 0.931 . S
H467 C482 0.930 . S
C468 H456 0.930 . S
C468 C469 1.399 . S
C468 C473 1.399 . S
C469 C468 1.399 . S
C469 C470 1.376 . S
C470 H457 0.930 . S
C470 C469 1.376 . S
C470 C471 1.388 . S
C471 H458 0.930 . S
C471 C470 1.388 . S
C471 C472 1.390 . S
C472 C471 1.390 . S
C472 C473 1.394 . S
C472 C478 1.465 . S
C473 C468 1.399 . S
C473 C472 1.394 . S
C473 C474 1.516 . S
C474 C473 1.516 . S
C474 C475 1.502 . S
C474 C476 1.561 . S
C474 C477 1.526 . S
C475 H459 0.959 . S
C475 H460 0.959 . S
C475 H461 0.961 . S
C475 C474 1.502 . S
C476 H462 0.960 . S
C476 H463 0.961 . S
C476 H464 0.959 . S
C476 C474 1.561 . S
C477 C474 1.526 . S
C477 C478 1.396 . S
C477 C482 1.390 . S
C478 C472 1.465 . S
C478 C477 1.396 . S
C478 C479 1.399 . S
C479 H465 0.929 . S
C479 C478 1.399 . S
C479 C480 1.385 . S
C480 H466 0.931 . S
C480 C479 1.385 . S
C480 C481 1.389 . S
C481 C480 1.389 . S
C481 C482 1.387 . S
C482 H467 0.930 . S
C482 C477 1.390 . S
C482 C481 1.387 . S
H483 C495 0.939 . S
H484 C497 0.930 . S
H485 C498 0.930 . S
H486 C502 0.959 . S
H487 C502 0.959 . S
H488 C502 0.961 . S
H489 C503 0.960 . S
H490 C503 0.975 . S
H491 C503 0.959 . S
H492 C506 0.929 1_565 S
H493 C507 0.931 . S
H494 C509 0.928 . S
C495 H483 0.939 . S
C495 C496 1.392 1_556 S
C495 C500 1.397 1_556 S
C496 C495 1.392 1_554 S
C496 C497 1.376 . S
C497 H484 0.930 . S
C497 C496 1.376 . S
C497 C498 1.388 . S
C498 H485 0.930 . S
C498 C497 1.388 . S
C498 C499 1.390 . S
C499 C498 1.390 . S
C499 C500 1.394 . S
C499 C505 1.465 . S
C500 C495 1.397 1_554 S
C500 C499 1.394 . S
C500 C501 1.516 1_554 S
C501 C500 1.516 1_556 S
C501 C502 1.502 . S
C501 C503 1.561 1_556 S
C501 C504 1.526 1_556 S
C502 H486 0.959 . S
C502 H487 0.959 . S
C502 H488 0.961 . S
C502 C501 1.502 . S
C503 H489 0.960 . S
C503 H490 0.975 . S
C503 H491 0.959 . S
C503 C501 1.561 1_554 S
C504 C501 1.526 1_554 S
C504 C505 1.396 . S
C504 C509 1.390 1_554 S
C505 C499 1.465 . S
C505 C504 1.396 . S
C505 C506 1.399 . S
C506 H492 0.929 1_545 S
C506 C505 1.399 . S
C506 C507 1.385 1_545 S
C507 H493 0.931 . S
C507 C506 1.385 1_565 S
C507 C508 1.389 . S
C508 C507 1.389 . S
C508 C509 1.388 1_564 S
C509 H494 0.928 . S
C509 C504 1.390 1_556 S
C509 C508 1.388 1_546 S
H510 C522 0.930 . S
H511 C524 0.930 . S
H512 C525 0.930 . S
H513 C529 0.959 . S
H514 C529 0.959 . S
H515 C529 0.961 . S
H516 C530 0.960 . S
H517 C530 0.961 . S
H518 C530 0.959 . S
H519 C533 0.929 . S
H520 C534 0.931 . S
H521 C536 0.930 . S
C522 H510 0.930 . S
C522 C523 1.399 . S
C522 C527 1.399 . S
C523 C522 1.399 . S
C523 C524 1.376 . S
C524 H511 0.930 . S
C524 C523 1.376 . S
C524 C525 1.388 . S
C525 H512 0.930 . S
C525 C524 1.388 . S
C525 C526 1.390 . S
C526 C525 1.390 . S
C526 C527 1.394 . S
C526 C532 1.465 . S
C527 C522 1.399 . S
C527 C526 1.394 . S
C527 C528 1.516 . S
C528 C527 1.516 . S
C528 C529 1.502 . S
C528 C530 1.561 . S
C528 C531 1.526 . S
C529 H513 0.959 . S
C529 H514 0.959 . S
C529 H515 0.961 . S
C529 C528 1.502 . S
C530 H516 0.960 . S
C530 H517 0.961 . S
C530 H518 0.959 . S
C530 C528 1.561 . S
C531 C528 1.526 . S
C531 C532 1.396 . S
C531 C536 1.390 . S
C532 C526 1.465 . S
C532 C531 1.396 . S
C532 C533 1.399 . S
C533 H519 0.929 . S
C533 C532 1.399 . S
C533 C534 1.385 . S
C534 H520 0.931 . S
C534 C533 1.385 . S
C534 C535 1.389 . S
C535 C534 1.389 . S
C535 C536 1.387 . S
C536 H521 0.930 . S
C536 C531 1.390 . S
C536 C535 1.387 . S
H537 C549 0.930 . S
H538 C551 0.930 . S
H539 C552 0.930 . S
H540 C556 0.959 . S
H541 C556 0.959 . S
H542 C556 0.961 . S
H543 C557 0.960 . S
H544 C557 0.961 . S
H545 C557 0.959 . S
H546 C560 0.929 . S
H547 C561 0.931 . S
H548 C563 0.930 . S
C549 H537 0.930 . S
C549 C550 1.399 . S
C549 C554 1.399 . S
C550 C549 1.399 . S
C550 C551 1.376 . S
C551 H538 0.930 . S
C551 C550 1.376 . S
C551 C552 1.388 . S
C552 H539 0.930 . S
C552 C551 1.388 . S
C552 C553 1.390 . S
C553 C552 1.390 . S
C553 C554 1.394 . S
C553 C559 1.465 . S
C554 C549 1.399 . S
C554 C553 1.394 . S
C554 C555 1.516 . S
C555 C554 1.516 . S
C555 C556 1.502 . S
C555 C557 1.561 . S
C555 C558 1.526 . S
C556 H540 0.959 . S
C556 H541 0.959 . S
C556 H542 0.961 . S
C556 C555 1.502 . S
C557 H543 0.960 . S
C557 H544 0.961 . S
C557 H545 0.959 . S
C557 C555 1.561 . S
C558 C555 1.526 . S
C558 C559 1.396 . S
C558 C563 1.390 . S
C559 C553 1.465 . S
C559 C558 1.396 . S
C559 C560 1.399 . S
C560 H546 0.929 . S
C560 C559 1.399 . S
C560 C561 1.385 . S
C561 H547 0.931 . S
C561 C560 1.385 . S
C561 C562 1.389 . S
C562 C561 1.389 . S
C562 C563 1.387 . S
C563 H548 0.930 . S
C563 C558 1.390 . S
C563 C562 1.387 . S
H564 C576 0.930 . S
H565 C578 0.930 . S
H566 C579 0.930 . S
H567 C583 0.959 . S
H568 C583 0.959 . S
H569 C583 0.961 . S
H570 C584 0.960 . S
H571 C584 0.961 . S
H572 C584 0.959 . S
H573 C587 0.929 . S
H574 C588 0.931 . S
H575 C590 0.930 . S
C576 H564 0.930 . S
C576 C577 1.399 . S
C576 C581 1.399 . S
C577 C576 1.399 . S
C577 C578 1.376 . S
C578 H565 0.930 . S
C578 C577 1.376 . S
C578 C579 1.388 . S
C579 H566 0.930 . S
C579 C578 1.388 . S
C579 C580 1.390 . S
C580 C579 1.390 . S
C580 C581 1.394 . S
C580 C586 1.465 . S
C581 C576 1.399 . S
C581 C580 1.394 . S
C581 C582 1.516 . S
C582 C581 1.516 . S
C582 C583 1.502 . S
C582 C584 1.561 . S
C582 C585 1.526 . S
C583 H567 0.959 . S
C583 H568 0.959 . S
C583 H569 0.961 . S
C583 C582 1.502 . S
C584 H570 0.960 . S
C584 H571 0.961 . S
C584 H572 0.959 . S
C584 C582 1.561 . S
C585 C582 1.526 . S
C585 C586 1.396 . S
C585 C590 1.390 . S
C586 C580 1.465 . S
C586 C585 1.396 . S
C586 C587 1.399 . S
C587 H573 0.929 . S
C587 C586 1.399 . S
C587 C588 1.385 . S
C588 H574 0.931 . S
C588 C587 1.385 . S
C588 C589 1.389 . S
C589 C588 1.389 . S
C589 C590 1.387 . S
C590 H575 0.930 . S
C590 C585 1.390 . S
C590 C589 1.387 . S
H591 C603 0.930 . S
H592 C605 0.930 . S
H593 C606 0.930 . S
H594 C610 0.959 . S
H595 C610 0.959 . S
H596 C610 0.961 . S
H597 C611 0.960 . S
H598 C611 0.961 . S
H599 C611 0.959 . S
H600 C614 0.929 . S
H601 C615 0.931 . S
H602 C617 0.930 . S
C603 H591 0.930 . S
C603 C604 1.399 . S
C603 C608 1.399 . S
C604 C603 1.399 . S
C604 C605 1.376 . S
C605 H592 0.930 . S
C605 C604 1.376 . S
C605 C606 1.388 . S
C606 H593 0.930 . S
C606 C605 1.388 . S
C606 C607 1.390 . S
C607 C606 1.390 . S
C607 C608 1.394 . S
C607 C613 1.465 . S
C608 C603 1.399 . S
C608 C607 1.394 . S
C608 C609 1.516 . S
C609 C608 1.516 . S
C609 C610 1.502 . S
C609 C611 1.561 . S
C609 C612 1.526 . S
C610 H594 0.959 . S
C610 H595 0.959 . S
C610 H596 0.961 . S
C610 C609 1.502 . S
C611 H597 0.960 . S
C611 H598 0.961 . S
C611 H599 0.959 . S
C611 C609 1.561 . S
C612 C609 1.526 . S
C612 C613 1.396 . S
C612 C617 1.390 . S
C613 C607 1.465 . S
C613 C612 1.396 . S
C613 C614 1.399 . S
C614 H600 0.929 . S
C614 C613 1.399 . S
C614 C615 1.385 . S
C615 H601 0.931 . S
C615 C614 1.385 . S
C615 C616 1.389 . S
C616 C615 1.389 . S
C616 C617 1.387 . S
C617 H602 0.930 . S
C617 C612 1.390 . S
C617 C616 1.387 . S
H618 C630 0.930 . S
H619 C632 0.930 . S
H620 C633 0.930 . S
H621 C637 0.959 . S
H622 C637 0.959 1_455 S
H623 C637 0.961 1_455 S
H624 C638 0.960 . S
H625 C638 0.961 . S
H626 C638 0.959 1_655 S
H627 C641 0.929 . S
H628 C642 0.931 . S
H629 C644 0.930 . S
C630 H618 0.930 . S
C630 C631 1.399 . S
C630 C635 1.399 . S
C631 C630 1.399 . S
C631 C632 1.376 . S
C632 H619 0.930 . S
C632 C631 1.376 . S
C632 C633 1.388 . S
C633 H620 0.930 . S
C633 C632 1.388 . S
C633 C634 1.390 . S
C634 C633 1.390 . S
C634 C635 1.394 . S
C634 C640 1.465 . S
C635 C630 1.399 . S
C635 C634 1.394 . S
C635 C636 1.516 . S
C636 C635 1.516 . S
C636 C637 1.502 . S
C636 C638 1.561 1_655 S
C636 C639 1.526 . S
C637 H621 0.959 . S
C637 H622 0.959 1_655 S
C637 H623 0.961 1_655 S
C637 C636 1.502 . S
C638 H624 0.960 . S
C638 H625 0.961 . S
C638 H626 0.959 1_455 S
C638 C636 1.561 1_455 S
C639 C636 1.526 . S
C639 C640 1.396 . S
C639 C644 1.390 . S
C640 C634 1.465 . S
C640 C639 1.396 . S
C640 C641 1.399 . S
C641 H627 0.929 . S
C641 C640 1.399 . S
C641 C642 1.385 . S
C642 H628 0.931 . S
C642 C641 1.385 . S
C642 C643 1.389 . S
C643 C642 1.389 . S
C643 C644 1.387 . S
C644 H629 0.930 . S
C644 C639 1.390 . S
C644 C643 1.387 . S
H645 C657 0.930 . S
H646 C659 0.930 1_545 S
H647 C660 0.930 1_545 S
H648 C664 0.959 . S
H649 C664 0.959 . S
H650 C664 0.961 . S
H651 C665 0.960 . S
H652 C665 0.961 . S
H653 C665 0.959 . S
H654 C668 0.929 . S
H655 C669 0.931 . S
H656 C671 0.930 . S
C657 H645 0.930 . S
C657 C658 1.399 . S
C657 C662 1.399 . S
C658 C657 1.399 . S
C658 C659 1.376 . S
C659 H646 0.930 1_565 S
C659 C658 1.376 . S
C659 C660 1.388 . S
C660 H647 0.930 1_565 S
C660 C659 1.388 . S
C660 C661 1.390 . S
C661 C660 1.390 . S
C661 C662 1.394 . S
C661 C667 1.465 . S
C662 C657 1.399 . S
C662 C661 1.394 . S
C662 C663 1.516 . S
C663 C662 1.516 . S
C663 C664 1.502 . S
C663 C665 1.561 . S
C663 C666 1.526 . S
C664 H648 0.959 . S
C664 H649 0.959 . S
C664 H650 0.961 . S
C664 C663 1.502 . S
C665 H651 0.960 . S
C665 H652 0.961 . S
C665 H653 0.959 . S
C665 C663 1.561 . S
C666 C663 1.526 . S
C666 C667 1.396 . S
C666 C671 1.390 . S
C667 C661 1.465 . S
C667 C666 1.396 . S
C667 C668 1.399 . S
C668 H654 0.929 . S
C668 C667 1.399 . S
C668 C669 1.385 . S
C669 H655 0.931 . S
C669 C668 1.385 . S
C669 C670 1.389 . S
C670 C669 1.389 . S
C670 C671 1.387 . S
C671 H656 0.930 . S
C671 C666 1.390 . S
C671 C670 1.387 . S
H672 C684 0.930 . S
H673 C686 0.930 . S
H674 C687 0.930 . S
H675 C691 0.959 . S
H676 C691 0.959 . S
H677 C691 0.961 . S
H678 C692 0.960 1_655 S
H679 C692 0.961 1_655 S
H680 C692 0.959 . S
H681 C695 0.929 . S
H682 C696 0.931 . S
H683 C698 0.930 . S
C684 H672 0.930 . S
C684 C685 1.399 1_655 S
C684 C689 1.399 1_655 S
C685 C684 1.399 1_455 S
C685 C686 1.376 . S
C686 H673 0.930 . S
C686 C685 1.376 . S
C686 C687 1.388 . S
C687 H674 0.930 . S
C687 C686 1.388 . S
C687 C688 1.390 . S
C688 C687 1.390 . S
C688 C689 1.394 . S
C688 C694 1.465 . S
C689 C684 1.399 1_455 S
C689 C688 1.394 . S
C689 C690 1.516 1_455 S
C690 C689 1.516 1_655 S
C690 C691 1.502 . S
C690 C692 1.561 1_655 S
C690 C693 1.526 1_655 S
C691 H675 0.959 . S
C691 H676 0.959 . S
C691 H677 0.961 . S
C691 C690 1.502 . S
C692 H678 0.960 1_455 S
C692 H679 0.961 1_455 S
C692 H680 0.959 . S
C692 C690 1.561 1_455 S
C693 C690 1.526 1_455 S
C693 C694 1.396 . S
C693 C698 1.390 . S
C694 C688 1.465 . S
C694 C693 1.396 . S
C694 C695 1.399 . S
C695 H681 0.929 . S
C695 C694 1.399 . S
C695 C696 1.385 . S
C696 H682 0.931 . S
C696 C695 1.385 . S
C696 C697 1.389 . S
C697 C696 1.389 . S
C697 C698 1.387 . S
C698 H683 0.930 . S
C698 C693 1.390 . S
C698 C697 1.387 . S
H699 C711 0.930 . S
H700 C713 0.930 . S
H701 C714 0.930 . S
H702 C718 0.959 . S
H703 C718 0.959 . S
H704 C718 0.961 . S
H705 C719 0.960 . S
H706 C719 0.961 . S
H707 C719 0.959 1_565 S
H708 C722 0.929 1_565 S
H709 C723 0.931 . S
H710 C725 0.930 . S
C711 H699 0.930 . S
C711 C712 1.399 1_545 S
C711 C716 1.399 . S
C712 C711 1.399 1_565 S
C712 C713 1.376 . S
C713 H700 0.930 . S
C713 C712 1.376 . S
C713 C714 1.388 . S
C714 H701 0.930 . S
C714 C713 1.388 . S
C714 C715 1.390 1_565 S
C715 C714 1.390 1_545 S
C715 C716 1.394 . S
C715 C721 1.465 . S
C716 C711 1.399 . S
C716 C715 1.394 . S
C716 C717 1.516 . S
C717 C716 1.516 . S
C717 C718 1.502 . S
C717 C719 1.561 . S
C717 C720 1.526 . S
C718 H702 0.959 . S
C718 H703 0.959 . S
C718 H704 0.961 . S
C718 C717 1.502 . S
C719 H705 0.960 . S
C719 H706 0.961 . S
C719 H707 0.959 1_545 S
C719 C717 1.561 . S
C720 C717 1.526 . S
C720 C721 1.396 . S
C720 C725 1.390 . S
C721 C715 1.465 . S
C721 C720 1.396 . S
C721 C722 1.399 . S
C722 H708 0.929 1_545 S
C722 C721 1.399 . S
C722 C723 1.385 . S
C723 H709 0.931 . S
C723 C722 1.385 . S
C723 C724 1.389 . S
C724 C723 1.389 . S
C724 C725 1.387 . S
C725 H710 0.930 . S
C725 C720 1.390 . S
C725 C724 1.387 . S
C253 C130 0.483 . S
C265 C10 0.660 . S
C280 C170 0.493 . S
C292 C50 0.642 . S
C307 C210 0.506 . S
C319 C90 0.623 . S
C334 C16 0.720 . S
C346 C87 0.735 . S
C361 C56 0.663 . S
C373 C127 0.790 . S
C388 C96 0.877 . S
C400 C167 0.646 . S
C415 C136 0.626 . S
C427 C207 0.862 . S
C442 C176 0.643 . S
C454 C7 0.812 . S
C469 C216 0.636 . S
C481 C47 0.822 . S
C496 C19 1.243 . S
C508 C139 1.271 . S
C523 C59 1.269 . S
C535 C179 1.253 . S
C550 C99 1.199 1_455 S
C562 C219 1.221 . S
C577 C2 4.074 . S
C589 C51 4.115 . S
C604 C42 4.068 . S
C616 C91 4.121 . S
C631 C82 4.074 . S
C643 C131 4.114 . S
C658 C122 4.050 . S
C670 C171 4.125 . S
C685 C162 4.053 1_455 S
C697 C211 4.120 . S
C712 C202 4.074 . S
C724 C11 4.118 . S
