# Generated by pormake.
# Topology uki, (4)-cn, num edge types: 1
# Building blocks:
#     Node 0, Type 0, BuildingBlock: QUQFOY_clean_sbu_3, # of connection points: 4
#     Node 1, Type 0, BuildingBlock: QUQFOY_clean_sbu_3, # of connection points: 4
#     Node 2, Type 0, BuildingBlock: QUQFOY_clean_sbu_3, # of connection points: 4
#     Node 3, Type 0, BuildingBlock: QUQFOY_clean_sbu_3, # of connection points: 4
#     Node 4, Type 0, BuildingBlock: QUQFOY_clean_sbu_3, # of connection points: 4
#     Node 5, Type 0, BuildingBlock: QUQFOY_clean_sbu_3, # of connection points: 4
#     Node 6, Type 0, BuildingBlock: QUQFOY_clean_sbu_3, # of connection points: 4
#     Node 7, Type 0, BuildingBlock: QUQFOY_clean_sbu_3, # of connection points: 4
#     Node 8, Type 0, BuildingBlock: QUQFOY_clean_sbu_3, # of connection points: 4
#     Node 9, Type 0, BuildingBlock: QUQFOY_clean_sbu_3, # of connection points: 4
#     Node 10, Type 0, BuildingBlock: QUQFOY_clean_sbu_3, # of connection points: 4
#     Node 11, Type 0, BuildingBlock: QUQFOY_clean_sbu_3, # of connection points: 4
#     Node 12, Type 0, BuildingBlock: QUQFOY_clean_sbu_3, # of connection points: 4
#     Node 13, Type 0, BuildingBlock: QUQFOY_clean_sbu_3, # of connection points: 4
#     Node 14, Type 0, BuildingBlock: QUQFOY_clean_sbu_3, # of connection points: 4
#     Node 15, Type 0, BuildingBlock: QUQFOY_clean_sbu_3, # of connection points: 4
#     Edge 16, Type (0, 0), BuildingBlock: XIVTED_clean_linker_0, # of connection points: 2
#     Edge 17, Type (0, 0), BuildingBlock: XIVTED_clean_linker_0, # of connection points: 2
#     Edge 18, Type (0, 0), BuildingBlock: XIVTED_clean_linker_0, # of connection points: 2
#     Edge 19, Type (0, 0), BuildingBlock: XIVTED_clean_linker_0, # of connection points: 2
#     Edge 20, Type (0, 0), BuildingBlock: XIVTED_clean_linker_0, # of connection points: 2
#     Edge 21, Type (0, 0), BuildingBlock: XIVTED_clean_linker_0, # of connection points: 2
#     Edge 22, Type (0, 0), BuildingBlock: XIVTED_clean_linker_0, # of connection points: 2
#     Edge 23, Type (0, 0), BuildingBlock: XIVTED_clean_linker_0, # of connection points: 2
#     Edge 24, Type (0, 0), BuildingBlock: XIVTED_clean_linker_0, # of connection points: 2
#     Edge 25, Type (0, 0), BuildingBlock: XIVTED_clean_linker_0, # of connection points: 2
#     Edge 26, Type (0, 0), BuildingBlock: XIVTED_clean_linker_0, # of connection points: 2
#     Edge 27, Type (0, 0), BuildingBlock: XIVTED_clean_linker_0, # of connection points: 2
#     Edge 28, Type (0, 0), BuildingBlock: XIVTED_clean_linker_0, # of connection points: 2
#     Edge 29, Type (0, 0), BuildingBlock: XIVTED_clean_linker_0, # of connection points: 2
#     Edge 30, Type (0, 0), BuildingBlock: XIVTED_clean_linker_0, # of connection points: 2
#     Edge 31, Type (0, 0), BuildingBlock: XIVTED_clean_linker_0, # of connection points: 2
#     Edge 32, Type (0, 0), BuildingBlock: XIVTED_clean_linker_0, # of connection points: 2
#     Edge 33, Type (0, 0), BuildingBlock: XIVTED_clean_linker_0, # of connection points: 2
#     Edge 34, Type (0, 0), BuildingBlock: XIVTED_clean_linker_0, # of connection points: 2
#     Edge 35, Type (0, 0), BuildingBlock: XIVTED_clean_linker_0, # of connection points: 2
#     Edge 36, Type (0, 0), BuildingBlock: XIVTED_clean_linker_0, # of connection points: 2
#     Edge 37, Type (0, 0), BuildingBlock: XIVTED_clean_linker_0, # of connection points: 2
#     Edge 38, Type (0, 0), BuildingBlock: XIVTED_clean_linker_0, # of connection points: 2
#     Edge 39, Type (0, 0), BuildingBlock: XIVTED_clean_linker_0, # of connection points: 2
#     Edge 40, Type (0, 0), BuildingBlock: XIVTED_clean_linker_0, # of connection points: 2
#     Edge 41, Type (0, 0), BuildingBlock: XIVTED_clean_linker_0, # of connection points: 2
#     Edge 42, Type (0, 0), BuildingBlock: XIVTED_clean_linker_0, # of connection points: 2
#     Edge 43, Type (0, 0), BuildingBlock: XIVTED_clean_linker_0, # of connection points: 2
#     Edge 44, Type (0, 0), BuildingBlock: XIVTED_clean_linker_0, # of connection points: 2
#     Edge 45, Type (0, 0), BuildingBlock: XIVTED_clean_linker_0, # of connection points: 2
#     Edge 46, Type (0, 0), BuildingBlock: XIVTED_clean_linker_0, # of connection points: 2
#     Edge 47, Type (0, 0), BuildingBlock: XIVTED_clean_linker_0, # of connection points: 2
# Relax obj value: 0.096
# Max RMSD: 0.200
# Mean RMSD: 0.199
data_MOF--net-uki--node1-QUQFOY_clean_sbu_3--edge1-XIVTED_clean_linker_0
_symmetry_space_group_name_H-M    P1
_symmetry_Int_Tables_number       1
_symmetry_cell_setting            triclinic
loop_
_symmetry_equiv_pos_as_xyz
'x, y, z'
_cell_length_a     31.572856
_cell_length_b     31.448027
_cell_length_c     75.313129
_cell_angle_alpha  89.944178
_cell_angle_beta   90.14122
_cell_angle_gamma 90.093891
loop_
_atom_site_label
_atom_site_type_symbol
_atom_site_fract_x
_atom_site_fract_y
_atom_site_fract_z
_atom_type_partial_charge
C0 C 0.07893 0.11678 0.25704 0.0
O1 O 0.09124 0.13226 0.24238 0.0
Cd2 Cd 0.09473 0.20769 0.2407 0.0
O3 O 0.07874 0.13966 0.27099 0.0
Cd4 Cd 0.10053 0.21058 0.28189 0.0
C5 C 0.00456 0.22732 0.26656 0.0
O6 O 0.14904 0.23668 0.25908 0.0
O7 O 0.11184 0.28371 0.27302 0.0
O8 O 0.15102 0.17527 0.30139 0.0
C9 C 0.14161 0.27558 0.26228 0.0
O10 O 0.02375 0.22413 0.25175 0.0
C11 C 0.14363 0.19842 0.31482 0.0
O12 O 0.0246 0.22374 0.28119 0.0
O13 O 0.115 0.22656 0.31319 0.0
C14 C 0.19595 0.80316 0.7513 0.0
O15 O 0.1707 0.82798 0.75936 0.0
Cd16 Cd 0.1221 0.87793 0.74527 0.0
O17 O 0.19892 0.80362 0.73444 0.0
Cd18 Cd 0.17279 0.84041 0.70806 0.0
C19 C 0.19996 0.93769 0.72525 0.0
O20 O 0.10041 0.84952 0.71766 0.0
O21 O 0.11628 0.87522 0.69208 0.0
O22 O 0.17882 0.77647 0.68985 0.0
C23 C 0.08964 0.87258 0.70456 0.0
O24 O 0.16882 0.93472 0.73592 0.0
C25 C 0.20123 0.79432 0.67795 0.0
O26 O 0.21053 0.9071 0.71504 0.0
O27 O 0.21167 0.83288 0.68053 0.0
C28 C 0.89806 0.85655 0.25801 0.0
O29 O 0.88672 0.84078 0.24324 0.0
Cd30 Cd 0.88482 0.76537 0.24143 0.0
O31 O 0.89809 0.83374 0.27199 0.0
Cd32 Cd 0.87723 0.76231 0.28273 0.0
C33 C 0.97412 0.74738 0.26825 0.0
O34 O 0.83057 0.73528 0.25938 0.0
O35 O 0.86786 0.68897 0.2738 0.0
O36 O 0.82496 0.79609 0.30178 0.0
C37 C 0.83869 0.69653 0.26264 0.0
O38 O 0.95552 0.7503 0.25325 0.0
C39 C 0.83242 0.77301 0.31526 0.0
O40 O 0.95343 0.75052 0.28269 0.0
O41 O 0.86191 0.74572 0.31388 0.0
C42 C 0.77915 0.19431 0.74605 0.0
O43 O 0.80703 0.17748 0.75603 0.0
Cd44 Cd 0.85648 0.12356 0.74577 0.0
O45 O 0.7758 0.18386 0.72978 0.0
Cd46 Cd 0.80363 0.139 0.70612 0.0
C47 C 0.77869 0.05286 0.73187 0.0
O48 O 0.87633 0.13979 0.71607 0.0
O49 O 0.86269 0.1038 0.69239 0.0
O50 O 0.79284 0.19794 0.68574 0.0
C51 C 0.88914 0.11395 0.70432 0.0
O52 O 0.8079 0.06443 0.74254 0.0
C53 C 0.77299 0.1761 0.67419 0.0
O54 O 0.76972 0.0743 0.71795 0.0
O55 O 0.76613 0.13719 0.67783 0.0
C56 C 0.08872 0.35181 0.97539 0.0
O57 O 0.09902 0.33424 0.98994 0.0
Cd58 Cd 0.10001 0.25856 0.99069 0.0
O59 O 0.0889 0.33056 0.961 0.0
Cd60 Cd 0.10811 0.25999 0.94906 0.0
C61 C 0.01086 0.24354 0.96358 0.0
O62 O 0.15305 0.22935 0.97198 0.0
O63 O 0.11641 0.18515 0.95609 0.0
O64 O 0.16724 0.28715 0.93199 0.0
C65 C 0.14486 0.19113 0.96776 0.0
O66 O 0.02927 0.24513 0.97865 0.0
C67 C 0.15429 0.27375 0.91704 0.0
O68 O 0.03174 0.24785 0.94923 0.0
O69 O 0.11866 0.25476 0.91676 0.0
C70 C 0.27779 0.7953 0.98348 0.0
O71 O 0.30251 0.81623 0.97338 0.0
Cd72 Cd 0.36015 0.86269 0.98324 0.0
O73 O 0.28037 0.79833 0.0003 0.0
Cd74 Cd 0.31731 0.83498 0.02422 0.0
C75 C 0.29622 0.93294 0.00557 0.0
O76 O 0.38585 0.83501 0.01036 0.0
O77 O 0.38404 0.85791 0.03714 0.0
O78 O 0.30517 0.77432 0.04375 0.0
C79 C 0.40467 0.85456 0.02282 0.0
O80 O 0.32279 0.92528 -0.00672 0.0
C81 C 0.28942 0.79648 0.05623 0.0
O82 O 0.28645 0.90512 0.01724 0.0
O83 O 0.28556 0.83619 0.05348 0.0
C84 C 0.90505 0.60932 0.9772 0.0
O85 O 0.89329 0.62386 -0.00791 0.0
Cd86 Cd 0.89042 0.69921 -0.00566 0.0
O87 O 0.90453 0.633 0.96348 0.0
Cd88 Cd 0.88185 0.70451 0.95363 0.0
C89 C 0.97895 0.71991 0.96768 0.0
O90 O 0.83497 0.73014 0.97713 0.0
O91 O 0.8729 0.77717 0.96341 0.0
O92 O 0.82934 0.6715 0.93428 0.0
C93 C 0.84316 0.76906 0.97419 0.0
O94 O 0.96084 0.71604 0.98271 0.0
C95 C 0.83639 0.69559 0.92108 0.0
O96 O 0.9578 0.71722 0.95331 0.0
O97 O 0.86579 0.72299 0.92274 0.0
C98 C 0.71348 0.16564 0.98149 0.0
O99 O 0.6893 0.14321 0.97169 0.0
Cd100 Cd 0.63133 0.09752 0.98184 0.0
O101 O 0.71027 0.16477 -0.00166 0.0
Cd102 Cd 0.67237 0.13057 0.02263 0.0
C103 C 0.69332 0.02982 0.00657 0.0
O104 O 0.6046 0.12819 0.0081 0.0
O105 O 0.60483 0.11025 0.03552 0.0
O106 O 0.68355 0.19282 0.04137 0.0
C107 C 0.58524 0.11038 0.02084 0.0
O108 O 0.66775 0.03611 -0.00629 0.0
C109 C 0.69906 0.17167 0.05426 0.0
O110 O 0.70252 0.0591 0.01769 0.0
O111 O 0.70338 0.13183 0.05206 0.0
C112 C 0.56594 0.63475 0.7586 0.0
O113 O 0.57382 0.65552 0.74453 0.0
Cd114 Cd 0.57293 0.73114 0.74666 0.0
O115 O 0.5674 0.65305 0.77368 0.0
Cd116 Cd 0.5857 0.72147 0.78792 0.0
C117 C 0.48646 0.73611 0.77555 0.0
O118 O 0.62822 0.7577 0.76523 0.0
O119 O 0.595 0.79689 0.78428 0.0
O120 O 0.64146 0.68631 0.80502 0.0
C121 C 0.62155 0.79435 0.77173 0.0
O122 O 0.50318 0.73834 0.7602 0.0
C123 C 0.63238 0.70448 0.81957 0.0
O124 O 0.50905 0.73033 0.78937 0.0
O125 O 0.60033 0.72888 0.81959 0.0
C126 C 0.70665 0.30332 0.2473 0.0
O127 O 0.68174 0.32448 0.25718 0.0
Cd128 Cd 0.62409 0.37031 0.24691 0.0
O129 O 0.70419 0.30564 0.23045 0.0
Cd130 Cd 0.66721 0.34087 0.20614 0.0
C131 C 0.68759 0.44003 0.22384 0.0
O132 O 0.59869 0.3419 0.21992 0.0
O133 O 0.60071 0.36338 0.19295 0.0
O134 O 0.67889 0.27925 0.18719 0.0
C135 C 0.58032 0.36162 0.20738 0.0
O136 O 0.66118 0.43257 0.23623 0.0
C137 C 0.69502 0.30071 0.17454 0.0
O138 O 0.69762 0.41176 0.21242 0.0
O139 O 0.6993 0.34051 0.17694 0.0
C140 C 0.39982 0.36537 0.75117 0.0
O141 O 0.39199 0.34822 0.73628 0.0
Cd142 Cd 0.39541 0.27248 0.73525 0.0
O143 O 0.39961 0.3431 0.7653 0.0
Cd144 Cd 0.38441 0.27093 0.7765 0.0
C145 C 0.48355 0.26229 0.76314 0.0
O146 O 0.34267 0.23847 0.75294 0.0
O147 O 0.38083 0.19598 0.76901 0.0
O148 O 0.32294 0.29331 0.79335 0.0
C149 C 0.35252 0.20065 0.75718 0.0
O150 O 0.4662 0.26313 0.74784 0.0
C151 C 0.3363 0.28024 0.80829 0.0
O152 O 0.46133 0.26447 0.77721 0.0
O153 O 0.37303 0.26365 0.80866 0.0
C154 C 0.2721 0.67152 0.25059 0.0
O155 O 0.29666 0.65003 0.26058 0.0
Cd156 Cd 0.35494 0.60461 0.25077 0.0
O157 O 0.27509 0.66972 0.23375 0.0
Cd158 Cd 0.31301 0.63471 0.20973 0.0
C159 C 0.29291 0.53483 0.22705 0.0
O160 O 0.38089 0.63462 0.22419 0.0
O161 O 0.38088 0.61517 0.19695 0.0
O162 O 0.30059 0.69584 0.19047 0.0
C163 C 0.40073 0.61715 0.21154 0.0
O164 O 0.31866 0.54209 0.23975 0.0
C165 C 0.28554 0.67378 0.17775 0.0
O166 O 0.28348 0.56331 0.2156 0.0
O167 O 0.28198 0.63396 0.18029 0.0
C168 C 0.57394 0.84886 0.47896 0.0
O169 O 0.58324 0.82991 0.49333 0.0
Cd170 Cd 0.58351 0.75387 0.49238 0.0
O171 O 0.57426 0.82871 0.46431 0.0
Cd172 Cd 0.59129 0.75905 0.45131 0.0
C173 C 0.49351 0.74494 0.4657 0.0
O174 O 0.63674 0.72411 0.47355 0.0
O175 O 0.59964 0.68418 0.45592 0.0
O176 O 0.64542 0.79242 0.43282 0.0
C177 C 0.62859 0.68719 0.46755 0.0
O178 O 0.51215 0.74355 0.48071 0.0
C179 C 0.63486 0.77302 0.41869 0.0
O180 O 0.51443 0.75047 0.45144 0.0
O181 O 0.60269 0.74875 0.41952 0.0
C182 C 0.78047 0.28107 0.48102 0.0
O183 O 0.80756 0.2981 0.47073 0.0
Cd184 Cd 0.86086 0.34957 0.48017 0.0
O185 O 0.7793 0.29027 0.49748 0.0
Cd186 Cd 0.81036 0.33269 0.5213 0.0
C187 C 0.78918 0.423 0.49688 0.0
O188 O 0.88038 0.33055 0.50945 0.0
O189 O 0.8751 0.35725 0.53553 0.0
O190 O 0.79487 0.27421 0.54141 0.0
C191 C 0.89763 0.3516 0.52186 0.0
O192 O 0.816 0.41069 0.48535 0.0
C193 C 0.77757 0.29749 0.55314 0.0
O194 O 0.78083 0.40086 0.51068 0.0
O195 O 0.77434 0.33698 0.54972 0.0
C196 C 0.40003 0.11306 0.4795 0.0
O197 O 0.39092 0.13213 0.49382 0.0
Cd198 Cd 0.39374 0.20804 0.49274 0.0
O199 O 0.40021 0.13328 0.46485 0.0
Cd200 Cd 0.38403 0.20331 0.45179 0.0
C201 C 0.48272 0.214 0.46543 0.0
O202 O 0.34094 0.23997 0.47423 0.0
O203 O 0.37917 0.27844 0.45652 0.0
O204 O 0.3281 0.17218 0.43343 0.0
C205 C 0.35058 0.27658 0.46829 0.0
O206 O 0.46494 0.21557 0.48059 0.0
C207 C 0.33909 0.19129 0.4193 0.0
O208 O 0.46092 0.20965 0.4513 0.0
O209 O 0.37216 0.21431 0.42008 0.0
C210 C 0.19655 0.68016 0.48542 0.0
O211 O 0.16966 0.66232 0.47524 0.0
Cd212 Cd 0.11848 0.60914 0.48481 0.0
O213 O 0.19816 0.67135 0.50192 0.0
Cd214 Cd 0.16781 0.62854 0.52586 0.0
C215 C 0.19379 0.53955 0.50176 0.0
O216 O 0.09729 0.62691 0.51398 0.0
O217 O 0.10532 0.59871 0.5397 0.0
O218 O 0.17998 0.68816 0.54577 0.0
C219 C 0.08209 0.60346 0.52612 0.0
O220 O 0.16633 0.55051 0.49019 0.0
C221 C 0.19754 0.66592 0.55783 0.0
O222 O 0.20114 0.562 0.51557 0.0
O223 O 0.2025 0.6265 0.5547 0.0
H224 H 0.22109 0.27444 0.24796 0.0
H225 H 0.21211 0.51681 0.21631 0.0
H226 H 0.11168 0.35469 0.25493 0.0
H227 H 0.32557 0.45852 0.23702 0.0
H228 H 0.17424 0.44934 0.22075 0.0
H229 H 0.25885 0.33483 0.23452 0.0
C230 C 0.2049 0.30457 0.24643 0.0
C231 C 0.16356 0.30997 0.25276 0.0
C232 C 0.20763 0.45128 0.22399 0.0
C233 C 0.20586 0.37823 0.23718 0.0
C234 C 0.22923 0.48954 0.22138 0.0
C235 C 0.27174 0.49316 0.22655 0.0
C236 C 0.22907 0.4165 0.23147 0.0
C237 C 0.29256 0.45703 0.23313 0.0
C238 C 0.22637 0.33884 0.2388 0.0
C239 C 0.14381 0.34951 0.25045 0.0
N240 N 0.27094 0.42015 0.23549 0.0
N241 N 0.16519 0.38223 0.24286 0.0
H242 H 0.43555 0.76953 0.8018 0.0
H243 H 0.23089 0.72761 0.74209 0.0
H244 H 0.43182 0.70234 0.75192 0.0
H245 H 0.23519 0.82449 0.78253 0.0
H246 H 0.29835 0.70006 0.75282 0.0
H247 H 0.35753 0.77433 0.80104 0.0
C248 C 0.41826 0.75534 0.79087 0.0
C249 C 0.43993 0.73639 0.7767 0.0
C250 C 0.28419 0.72681 0.75963 0.0
C251 C 0.35162 0.74074 0.77596 0.0
C252 C 0.24554 0.74232 0.75357 0.0
C253 C 0.22799 0.7788 0.76123 0.0
C254 C 0.30587 0.7485 0.77319 0.0
C255 C 0.24797 0.79643 0.7762 0.0
C256 C 0.37395 0.758 0.79045 0.0
C257 C 0.41632 0.71814 0.7629 0.0
N258 N 0.28658 0.78178 0.78144 0.0
N259 N 0.37356 0.72095 0.76284 0.0
H260 H 0.65315 0.51628 0.23239 0.0
H261 H 0.87003 0.61738 0.25654 0.0
H262 H 0.7699 0.45801 0.21555 0.0
H263 H 0.7614 0.69679 0.24618 0.0
H264 H 0.83394 0.5581 0.24194 0.0
H265 H 0.69119 0.58298 0.23749 0.0
C266 C 0.68672 0.51786 0.22948 0.0
C267 C 0.70865 0.48171 0.22371 0.0
C268 C 0.81826 0.58866 0.24263 0.0
C269 C 0.7523 0.55728 0.22986 0.0
C270 C 0.83864 0.62235 0.25109 0.0
C271 C 0.81835 0.66177 0.25271 0.0
C272 C 0.77694 0.5942 0.23618 0.0
C273 C 0.77795 0.66675 0.24525 0.0
C274 C 0.70832 0.55588 0.23233 0.0
C275 C 0.75198 0.48529 0.22002 0.0
N276 N 0.75814 0.63303 0.23757 0.0
N277 N 0.7727 0.52226 0.22355 0.0
H278 H 0.53477 0.23538 0.79071 0.0
H279 H 0.7406 0.26165 0.73052 0.0
H280 H 0.53858 0.28862 0.7379 0.0
H281 H 0.7391 0.18502 0.778 0.0
H282 H 0.67103 0.28939 0.73818 0.0
H283 H 0.61269 0.23134 0.79053 0.0
C284 C 0.55198 0.24653 0.77918 0.0
C285 C 0.53024 0.26151 0.76415 0.0
C286 C 0.68614 0.26715 0.74716 0.0
C287 C 0.61871 0.25787 0.764 0.0
C288 C 0.72603 0.25164 0.74285 0.0
C289 C 0.74519 0.22069 0.75354 0.0
C290 C 0.66483 0.25083 0.76204 0.0
C291 C 0.72517 0.20885 0.76941 0.0
C292 C 0.59631 0.24433 0.77911 0.0
C293 C 0.55395 0.27593 0.74962 0.0
N294 N 0.68543 0.22317 0.773 0.0
N295 N 0.59674 0.27356 0.7499 0.0
H296 H 0.33029 0.00955 -0.00288 0.0
H297 H 0.1144 0.11048 0.97142 0.0
H298 H 0.21322 0.94969 0.01284 0.0
H299 H 0.22092 0.19027 0.98506 0.0
H300 H 0.15029 0.04998 0.98528 0.0
H301 H 0.29188 0.07587 -0.00825 0.0
C302 C 0.29656 0.01069 -0.00029 0.0
C303 C 0.27468 0.97429 0.00532 0.0
C304 C 0.1655 0.08088 0.98544 0.0
C305 C 0.23065 0.04932 -0.00118 0.0
C306 C 0.14527 0.11525 0.97741 0.0
C307 C 0.16502 0.15519 0.97698 0.0
C308 C 0.20613 0.08636 -0.00735 0.0
C309 C 0.20477 0.15987 0.98508 0.0
C310 C 0.27475 0.04846 -0.0033 0.0
C311 C 0.2311 0.97723 0.00855 0.0
N312 N 0.22445 0.1256 -0.00766 0.0
N313 N 0.21022 0.01397 0.00487 0.0
H314 H 0.23366 0.81149 0.95271 0.0
H315 H 0.03415 0.69506 -0.00683 0.0
H316 H 0.23749 0.72762 -0.00196 0.0
H317 H 0.02971 0.75339 0.9413 0.0
H318 H 0.11046 0.70311 -0.00654 0.0
H319 H 0.16202 0.78559 0.94588 0.0
C320 C 0.21999 0.78666 0.96087 0.0
C321 C 0.24111 0.77213 0.97614 0.0
C322 C 0.09308 0.71399 0.98191 0.0
C323 C 0.15941 0.74314 0.96864 0.0
C324 C 0.04932 0.70973 0.98181 0.0
C325 C 0.02549 0.72421 0.9673 0.0
C326 C 0.11349 0.73361 0.96753 0.0
C327 C 0.047 0.74214 0.95281 0.0
C328 C 0.17901 0.77215 0.95705 0.0
C329 C 0.22197 0.74018 0.98632 0.0
N330 N 0.08989 0.74696 0.95338 0.0
N331 N 0.18202 0.72727 0.98255 0.0
H332 H 0.7635 0.76851 0.98835 0.0
H333 H 0.77379 0.01237 0.01789 0.0
H334 H 0.87408 0.84771 0.98174 0.0
H335 H 0.66041 0.95293 -0.00246 0.0
H336 H 0.8113 0.94446 0.01454 0.0
H337 H 0.72605 0.82941 0.0014 0.0
C338 C 0.78003 0.7985 0.98992 0.0
C339 C 0.82159 0.80349 0.98376 0.0
C340 C 0.778 0.94627 0.01115 0.0
C341 C 0.77959 0.87236 -0.00115 0.0
C342 C 0.75661 0.98479 0.01313 0.0
C343 C 0.71426 -0.01182 0.00772 0.0
C344 C 0.7565 0.91102 0.00405 0.0
C345 C 0.69333 0.95163 0.00158 0.0
C346 C 0.75873 0.83307 -0.00269 0.0
C347 C 0.84176 0.84286 0.98609 0.0
N348 N 0.71475 0.91453 -0.00019 0.0
N349 N 0.82051 0.8759 -0.00658 0.0
H350 H 0.75708 0.14816 0.95078 0.0
H351 H 0.95638 0.27005 0.98883 0.0
H352 H 0.75386 0.23429 -0.0047 0.0
H353 H 0.95946 0.20915 0.93754 0.0
H354 H 0.88015 0.26116 0.98959 0.0
H355 H 0.82792 0.17497 0.94325 0.0
C356 C 0.77072 0.17357 0.95864 0.0
C357 C 0.75 0.18854 0.97387 0.0
C358 C 0.89718 0.24993 0.97805 0.0
C359 C 0.83081 0.21868 0.96555 0.0
C360 C 0.94088 0.25471 0.97769 0.0
C361 C 0.9643 0.23968 0.96323 0.0
C362 C 0.87647 0.22914 0.96401 0.0
C363 C 0.94245 0.22088 0.94899 0.0
C364 C 0.81123 0.18865 0.95441 0.0
C365 C 0.76908 0.22132 0.98364 0.0
N366 N 0.89965 0.21546 0.94986 0.0
N367 N 0.80859 0.2348 0.97946 0.0
H368 H 0.62974 0.87013 0.78851 0.0
H369 H 0.73716 -0.0027 0.70955 0.0
H370 H 0.6618 0.80582 0.73975 0.0
H371 H 0.76382 0.02205 0.76483 0.0
H372 H 0.69735 0.93317 0.71842 0.0
H373 H 0.66632 0.93351 0.77785 0.0
C374 C 0.64434 0.86943 0.77551 0.0
C375 C 0.64303 0.83268 0.76502 0.0
C376 C 0.71206 0.95283 0.72851 0.0
C377 C 0.68448 0.90518 0.75272 0.0
C378 C 0.73445 -0.01065 0.7235 0.0
C379 C 0.75383 0.01479 0.7365 0.0
C380 C 0.70832 0.9427 0.74659 0.0
C381 C 0.74964 0.00313 0.75438 0.0
C382 C 0.66528 0.90553 0.76948 0.0
C383 C 0.66248 0.83352 0.74828 0.0
N384 N 0.72709 0.96813 0.7589 0.0
N385 N 0.68238 0.86942 0.74256 0.0
H386 H 0.95111 0.20353 0.24026 0.0
H387 H 0.74926 0.31963 0.27846 0.0
H388 H 0.95208 0.26034 0.2924 0.0
H389 H 0.7482 0.23623 0.23301 0.0
H390 H 0.82044 0.29381 0.28604 0.0
H391 H 0.87495 0.21211 0.23896 0.0
C392 C 0.93521 0.21798 0.25146 0.0
C393 C 0.95804 0.23186 0.26635 0.0
C394 C 0.80415 0.28049 0.27466 0.0
C395 C 0.87019 0.24188 0.26496 0.0
C396 C 0.76344 0.29497 0.2704 0.0
C397 C 0.74322 0.28052 0.25491 0.0
C398 C 0.82442 0.25159 0.26329 0.0
C399 C 0.763 0.24876 0.2449 0.0
C400 C 0.89152 0.22253 0.25079 0.0
C401 C 0.93559 0.24953 0.28062 0.0
N402 N 0.80268 0.23586 0.24911 0.0
N403 N 0.89279 0.25466 0.27948 0.0
H404 H 0.2854 0.94812 0.72069 0.0
H405 H 0.27814 0.19832 0.73866 0.0
H406 H 0.16979 0.01745 0.73002 0.0
H407 H 0.38188 0.11911 0.75597 0.0
H408 H 0.24267 0.13512 0.7267 0.0
H409 H 0.32567 0.01444 0.7249 0.0
C410 C 0.26854 0.97743 0.72328 0.0
C411 C 0.22442 0.97749 0.72524 0.0
C412 C 0.27343 0.1318 0.73294 0.0
C413 C 0.26977 0.05275 0.72979 0.0
C414 C 0.29366 0.16773 0.73973 0.0
C415 C 0.33266 0.1637 0.74851 0.0
C416 C 0.29273 0.09185 0.7347 0.0
C417 C 0.35152 0.1234 0.7495 0.0
C418 C 0.29144 0.01503 0.72575 0.0
C419 C 0.2039 0.01613 0.72865 0.0
N420 N 0.33129 0.08889 0.74272 0.0
N421 N 0.22677 0.05226 0.73086 0.0
H422 H 0.02839 0.77357 0.24276 0.0
H423 H 0.22882 0.65479 0.28148 0.0
H424 H 0.02581 0.71325 0.29424 0.0
H425 H 0.231 0.73899 0.23622 0.0
H426 H 0.15771 0.68091 0.28881 0.0
H427 H 0.10462 0.76517 0.24196 0.0
C428 C 0.04397 0.75843 0.25393 0.0
C429 C 0.02068 0.74344 0.26847 0.0
C430 C 0.17422 0.69433 0.27752 0.0
C431 C 0.10856 0.73355 0.26764 0.0
C432 C 0.21489 0.67967 0.27341 0.0
C433 C 0.23541 0.69427 0.25804 0.0
C434 C 0.1543 0.72359 0.26614 0.0
C435 C 0.21595 0.72633 0.24801 0.0
C436 C 0.08768 0.75394 0.25354 0.0
C437 C 0.04268 0.72492 0.28272 0.0
N438 N 0.17631 0.73942 0.25208 0.0
N439 N 0.0855 0.71984 0.28185 0.0
H440 H 0.77481 0.45969 0.46488 0.0
H441 H 0.67483 0.67507 0.49818 0.0
H442 H 0.75126 0.47697 0.52086 0.0
H443 H 0.63592 0.61296 0.44971 0.0
H444 H 0.7143 0.6104 0.50656 0.0
H445 H 0.73602 0.52489 0.45869 0.0
C446 C 0.76165 0.47736 0.4759 0.0
C447 C 0.76609 0.46286 0.49341 0.0
C448 C 0.69687 0.61118 0.49416 0.0
C449 C 0.72197 0.5377 0.48637 0.0
C450 C 0.67464 0.64792 0.48934 0.0
C451 C 0.65218 0.6492 0.47324 0.0
C452 C 0.69728 0.57633 0.48254 0.0
C453 C 0.65269 0.61325 0.46227 0.0
C454 C 0.73937 0.51442 0.47233 0.0
C455 C 0.74819 0.48699 0.50716 0.0
N456 N 0.67523 0.57845 0.46703 0.0
N457 N 0.72701 0.5236 0.50337 0.0
H458 H 0.74051 0.28952 0.44884 0.0
H459 H 0.53616 0.18613 0.49095 0.0
H460 H 0.73898 0.21656 0.49735 0.0
H461 H 0.53528 0.24073 0.43838 0.0
H462 H 0.61287 0.1891 0.49115 0.0
H463 H 0.66927 0.26289 0.44186 0.0
C464 C 0.7258 0.2667 0.45768 0.0
C465 C 0.74518 0.25569 0.47384 0.0
C466 C 0.59619 0.20021 0.47946 0.0
C467 C 0.66389 0.22597 0.46616 0.0
C468 C 0.55225 0.19884 0.47941 0.0
C469 C 0.52937 0.21402 0.46477 0.0
C470 C 0.61773 0.21775 0.46489 0.0
C471 C 0.55188 0.22915 0.45 0.0
C472 C 0.68503 0.25182 0.45378 0.0
C473 C 0.72477 0.22633 0.48489 0.0
N474 N 0.59498 0.23137 0.45055 0.0
N475 N 0.68501 0.21305 0.48099 0.0
H476 H 0.22944 0.48405 0.52583 0.0
H477 H 0.34968 0.35303 0.45172 0.0
H478 H 0.21455 0.50742 0.46968 0.0
H479 H 0.30384 0.28904 0.49866 0.0
H480 H 0.31336 0.41748 0.46107 0.0
H481 H 0.26925 0.41872 0.51878 0.0
C482 C 0.23476 0.47555 0.51209 0.0
C483 C 0.21869 0.50093 0.4983 0.0
C484 C 0.31136 0.38935 0.46934 0.0
C485 C 0.26419 0.42755 0.49028 0.0
C486 C 0.33215 0.35262 0.46407 0.0
C487 C 0.32948 0.31563 0.47439 0.0
C488 C 0.28824 0.3894 0.4852 0.0
C489 C 0.30629 0.31691 0.49027 0.0
C490 C 0.25712 0.43836 0.50811 0.0
C491 C 0.22613 0.48858 0.4807 0.0
N492 N 0.28653 0.35343 0.49527 0.0
N493 N 0.24861 0.45296 0.47721 0.0
H494 H 0.43985 0.72209 0.43825 0.0
H495 H 0.23823 0.74537 0.50129 0.0
H496 H 0.44083 0.7664 0.49248 0.0
H497 H 0.2355 0.67119 0.45316 0.0
H498 H 0.30826 0.77165 0.49331 0.0
H499 H 0.36189 0.71838 0.43946 0.0
C500 C 0.42369 0.73128 0.45032 0.0
C501 C 0.44678 0.74373 0.4654 0.0
C502 C 0.29212 0.75023 0.48429 0.0
C503 C 0.35835 0.74063 0.46672 0.0
C504 C 0.252 0.73552 0.48878 0.0
C505 C 0.23148 0.70561 0.478 0.0
C506 C 0.31223 0.73429 0.46908 0.0
C507 C 0.25049 0.69412 0.46187 0.0
C508 C 0.37936 0.72929 0.45098 0.0
C509 C 0.42441 0.75571 0.48066 0.0
N510 N 0.29041 0.70773 0.45806 0.0
N511 N 0.3816 0.75373 0.48092 0.0
H512 H 0.33206 0.25197 0.39368 0.0
H513 H 0.18298 0.12764 0.32791 0.0
H514 H 0.28472 0.12827 0.40863 0.0
H515 H 0.16421 0.26119 0.33823 0.0
H516 H 0.23115 0.12403 0.35359 0.0
H517 H 0.2824 0.25276 0.3686 0.0
C518 C 0.31165 0.22472 0.39152 0.0
C519 C 0.31241 0.18997 0.4032 0.0
C520 C 0.21616 0.15395 0.35024 0.0
C521 C 0.25608 0.19065 0.37459 0.0
C522 C 0.18881 0.15607 0.33566 0.0
C523 C 0.16954 0.19474 0.33106 0.0
C524 C 0.22524 0.19104 0.35985 0.0
C525 C 0.17817 0.23071 0.34146 0.0
C526 C 0.28316 0.22541 0.37735 0.0
C527 C 0.28498 0.15567 0.39992 0.0
N528 N 0.20594 0.22816 0.35523 0.0
N529 N 0.25804 0.15668 0.3858 0.0
H530 H 0.20571 0.74996 0.56643 0.0
H531 H 0.19158 0.70996 0.66971 0.0
H532 H 0.21334 0.62395 0.58894 0.0
H533 H 0.2327 0.82977 0.64762 0.0
H534 H 0.19937 0.6773 0.64039 0.0
H535 H 0.21546 0.77999 0.5961 0.0
C536 C 0.20991 0.72863 0.5776 0.0
C537 C 0.20848 0.68443 0.57526 0.0
C538 C 0.20727 0.71059 0.64204 0.0
C539 C 0.219 0.7185 0.60923 0.0
C540 C 0.20277 0.72924 0.65875 0.0
C541 C 0.21121 0.7727 0.66106 0.0
C542 C 0.21954 0.73578 0.62752 0.0
C543 C 0.22572 0.79618 0.64642 0.0
C544 C 0.21558 0.74577 0.59452 0.0
C545 C 0.21423 0.65823 0.59017 0.0
N546 N 0.22883 0.77757 0.63021 0.0
N547 N 0.21861 0.67567 0.60658 0.0
H548 H 0.64386 0.7128 0.39305 0.0
H549 H 0.7903 0.84239 0.32801 0.0
H550 H 0.68674 0.83807 0.40806 0.0
H551 H 0.81283 0.70942 0.33844 0.0
H552 H 0.74116 0.84429 0.3533 0.0
H553 H 0.69367 0.71382 0.36811 0.0
C554 C 0.66327 0.74078 0.39092 0.0
C555 C 0.66126 0.77544 0.40259 0.0
C556 C 0.75716 0.81487 0.35005 0.0
C557 C 0.71777 0.77681 0.37415 0.0
C558 C 0.78507 0.81373 0.3357 0.0
C559 C 0.80572 0.77573 0.33125 0.0
C560 C 0.74892 0.77745 0.35958 0.0
C561 C 0.79781 0.73942 0.34155 0.0
C562 C 0.69186 0.74113 0.37683 0.0
C563 C 0.68746 0.81071 0.39936 0.0
N564 N 0.76951 0.74099 0.35511 0.0
N565 N 0.71452 0.81067 0.38533 0.0
H566 H 0.74781 0.13365 0.64428 0.0
H567 H 0.75564 0.34141 0.58305 0.0
H568 H 0.77343 0.25975 0.66424 0.0
H569 H 0.77195 0.21391 0.56305 0.0
H570 H 0.74468 0.31223 0.61281 0.0
H571 H 0.73917 0.16343 0.61445 0.0
C572 C 0.75094 0.16768 0.64244 0.0
C573 C 0.76181 0.19425 0.65671 0.0
C574 C 0.75018 0.29066 0.60185 0.0
C575 C 0.75196 0.22837 0.62269 0.0
C576 C 0.75626 0.30724 0.58486 0.0
C577 C 0.76518 0.28004 0.57059 0.0
C578 C 0.75267 0.24657 0.60456 0.0
C579 C 0.76558 0.23604 0.57371 0.0
C580 C 0.74619 0.18458 0.62541 0.0
C581 C 0.76547 0.23808 0.65357 0.0
N582 N 0.75969 0.22066 0.59039 0.0
N583 N 0.76081 0.25376 0.63687 0.0
H584 H 0.23809 0.29449 0.91539 0.0
H585 H 0.25117 0.29471 0.80977 0.0
H586 H 0.13094 0.263 0.88219 0.0
H587 H 0.35989 0.27091 0.84315 0.0
H588 H 0.20621 0.29545 0.83619 0.0
H589 H 0.28267 0.29836 0.88892 0.0
C590 C 0.22385 0.28871 0.90251 0.0
C591 C 0.18073 0.27831 0.90097 0.0
C592 C 0.23991 0.29017 0.8377 0.0
C593 C 0.23157 0.28294 0.87068 0.0
C594 C 0.26564 0.28995 0.82267 0.0
C595 C 0.30935 0.28266 0.82428 0.0
C596 C 0.2581 0.28376 0.8545 0.0
C597 C 0.32634 0.27649 0.84132 0.0
C598 C 0.24938 0.29071 0.88745 0.0
C599 C 0.16405 0.27097 0.88397 0.0
N600 N 0.30068 0.27735 0.85579 0.0
N601 N 0.18949 0.27357 0.86945 0.0
H602 H 0.28373 0.75824 0.16882 0.0
H603 H 0.28661 0.71214 0.06524 0.0
H604 H 0.26648 0.63272 0.14679 0.0
H605 H 0.26946 0.83788 0.08697 0.0
H606 H 0.27732 0.68225 0.09497 0.0
H607 H 0.27648 0.78831 0.13901 0.0
C608 C 0.27792 0.73706 0.15774 0.0
C609 C 0.27603 0.6929 0.16027 0.0
C610 C 0.27508 0.71635 0.0932 0.0
C611 C 0.26824 0.72699 0.12612 0.0
C612 C 0.28044 0.73342 0.07623 0.0
C613 C 0.27912 0.77757 0.07366 0.0
C614 C 0.26895 0.74368 0.10771 0.0
C615 C 0.27087 0.80365 0.08836 0.0
C616 C 0.27375 0.75423 0.14073 0.0
C617 C 0.26831 0.66694 0.14545 0.0
N618 N 0.26662 0.78635 0.1048 0.0
N619 N 0.26523 0.68433 0.12898 0.0
H620 H 0.79351 0.62719 0.9076 0.0
H621 H 0.64376 0.76227 0.84603 0.0
H622 H 0.81635 0.76084 0.89882 0.0
H623 H 0.68504 0.63858 0.82845 0.0
H624 H 0.69546 0.75895 0.87032 0.0
H625 H 0.74313 0.62737 0.88261 0.0
C626 C 0.78812 0.65643 0.90033 0.0
C627 C 0.80916 0.69404 0.90516 0.0
C628 C 0.69291 0.7325 0.86118 0.0
C629 C 0.751 0.69465 0.8772 0.0
C630 C 0.66325 0.73415 0.84745 0.0
C631 C 0.6602 0.70061 0.83525 0.0
C632 C 0.71888 0.69662 0.86297 0.0
C633 C 0.68654 0.6651 0.83758 0.0
C634 C 0.75951 0.65646 0.88614 0.0
C635 C 0.80103 0.73113 0.89539 0.0
N636 N 0.71468 0.66384 0.85129 0.0
N637 N 0.77206 0.73067 0.88202 0.0
H638 H 0.70005 0.25658 0.06238 0.0
H639 H 0.69743 0.21594 0.16635 0.0
H640 H 0.71845 0.13241 0.0856 0.0
H641 H 0.71524 0.34052 0.14343 0.0
H642 H 0.70663 0.18454 0.13692 0.0
H643 H 0.70718 0.28823 0.09189 0.0
C644 C 0.70607 0.23603 0.07366 0.0
C645 C 0.70834 0.19178 0.07156 0.0
C646 C 0.70904 0.21871 0.13836 0.0
C647 C 0.71601 0.22768 0.10535 0.0
C648 C 0.70373 0.23664 0.15516 0.0
C649 C 0.70527 0.28091 0.15731 0.0
C650 C 0.71532 0.2453 0.12359 0.0
C651 C 0.71367 0.30624 0.14236 0.0
C652 C 0.71019 0.25411 0.0905 0.0
C653 C 0.71633 0.16667 0.08662 0.0
N654 N 0.71785 0.2881 0.12609 0.0
N655 N 0.71933 0.18492 0.10291 0.0
H656 H 0.92512 0.90119 0.28709 0.0
H657 H 0.05919 0.06544 0.22884 0.0
H658 H 0.92 0.90693 0.22982 0.0
H659 H 0.04861 0.07361 0.28592 0.0
H660 H 0.01242 0.00363 0.22919 0.0
H661 H 0.97164 0.96324 0.28712 0.0
C662 C 0.93318 0.9159 0.27454 0.0
C663 C 0.91878 0.89866 0.25842 0.0
C664 C 0.02054 0.01882 0.24165 0.0
C665 C 0.97279 0.96909 0.25836 0.0
C666 C 0.04764 0.05384 0.24149 0.0
C667 C 0.05768 0.07493 0.25737 0.0
C668 C 0.00346 0.00466 0.25781 0.0
C669 C 0.04159 0.05848 0.27334 0.0
C670 C 0.96001 0.95115 0.27456 0.0
C671 C 0.93032 0.91908 0.24256 0.0
N672 N 0.01508 0.02446 0.27314 0.0
N673 N 0.957 0.95295 0.24292 0.0
H674 H 0.94266 0.0913 0.67835 0.0
H675 H 0.04824 0.90258 0.73428 0.0
H676 H 0.91945 0.07491 0.73431 0.0
H677 H 0.05685 0.9183 0.67746 0.0
H678 H 0.00423 0.96693 0.7357 0.0
H679 H -0.00772 0.03226 0.67922 0.0
C680 C 0.94905 0.07584 0.69095 0.0
C681 C 0.92728 0.08787 0.70627 0.0
C682 C 0.01564 0.95602 0.72295 0.0
C683 C 0.98245 0.01891 0.7073 0.0
C684 C 0.0403 0.91909 0.7221 0.0
C685 C 0.0564 0.90529 0.70573 0.0
C686 C 0.00725 0.97897 0.7073 0.0
C687 C 0.04535 0.92795 0.69038 0.0
C688 C 0.97691 0.04175 0.69142 0.0
C689 C 0.93616 0.06672 0.72226 0.0
N690 N 0.02177 0.9637 0.69157 0.0
N691 N 0.96272 0.03263 0.72232 0.0
H692 H 0.06871 0.40063 0.00429 0.0
H693 H 0.93347 0.56753 0.94769 0.0
H694 H 0.06067 0.39852 0.94703 0.0
H695 H 0.92843 0.5578 0.00486 0.0
H696 H 0.98162 0.50696 0.94707 0.0
H697 H 0.02194 0.46226 0.00461 0.0
C698 C 0.05779 0.41356 -0.00824 0.0
C699 C 0.0684 0.3941 0.97561 0.0
C700 C 0.9697 0.51786 0.95973 0.0
C701 C 0.01413 0.46415 0.97593 0.0
C702 C 0.94191 0.55225 0.9601 0.0
C703 C 0.92698 0.56791 0.97637 0.0
C704 C 0.98286 0.49916 0.97575 0.0
C705 C 0.93908 0.54683 -0.00798 0.0
C706 C 0.03066 0.44849 -0.00803 0.0
C707 C 0.05317 0.41229 0.9598 0.0
N708 N 0.96664 0.51377 -0.00868 0.0
N709 N 0.02653 0.44611 0.96037 0.0
H710 H 0.45928 0.88423 0.0474 0.0
H711 H 0.56047 0.06987 0.98986 0.0
H712 H 0.42836 0.89488 -0.00825 0.0
H713 H 0.53505 0.07626 0.04607 0.0
H714 H 0.52014 0.00289 0.98842 0.0
H715 H 0.50166 0.94863 0.04515 0.0
C716 C 0.46222 0.89967 0.03458 0.0
C717 C 0.43973 0.88464 0.01982 0.0
C718 C 0.52307 0.01945 0.00097 0.0
C719 C 0.48718 0.95915 0.01726 0.0
C720 C 0.54568 0.05781 0.00178 0.0
C721 C 0.55178 0.0782 0.01819 0.0
C722 C 0.50705 0.00168 0.01669 0.0
C723 C 0.53172 0.06127 0.0332 0.0
C724 C 0.48592 0.93674 0.03336 0.0
C725 C 0.44493 0.90565 0.00349 0.0
N726 N 0.5109 0.02373 0.03214 0.0
N727 N 0.46776 0.94243 0.00266 0.0
H728 H 0.42039 0.41775 0.7233 0.0
H729 H 0.54507 0.58118 0.78582 0.0
H730 H 0.42139 0.41138 0.7806 0.0
H731 H 0.54227 0.59117 0.72862 0.0
H732 H 0.50145 0.51743 0.7839 0.0
H733 H 0.46337 0.48232 0.72482 0.0
C734 C 0.42891 0.43033 0.73621 0.0
C735 C 0.41749 0.40889 0.75185 0.0
C736 C 0.51059 0.53337 0.77175 0.0
C737 C 0.46746 0.48218 0.75365 0.0
C738 C 0.53587 0.56961 0.77282 0.0
C739 C 0.5472 0.59176 0.75736 0.0
C740 C 0.4964 0.51912 0.7551 0.0
C741 C 0.53431 0.57517 0.74089 0.0
C742 C 0.45385 0.46697 0.73705 0.0
C743 C 0.42963 0.42664 0.76819 0.0
N744 N 0.50928 0.54001 0.74021 0.0
N745 N 0.45426 0.46201 0.76864 0.0
H746 H 0.55182 0.39504 0.23922 0.0
H747 H 0.45932 0.59486 0.18739 0.0
H748 H 0.53517 0.40354 0.18242 0.0
H749 H 0.42103 0.57026 0.24136 0.0
H750 H 0.50232 0.53074 0.18802 0.0
H751 H 0.5125 0.46213 0.24247 0.0
C752 C 0.53929 0.41046 0.22749 0.0
C753 C 0.54752 0.39415 0.21048 0.0
C754 C 0.48489 0.53955 0.19983 0.0
C755 C 0.5039 0.47077 0.2141 0.0
C756 C 0.46086 0.57646 0.19955 0.0
C757 C 0.43617 0.58749 0.21424 0.0
C758 C 0.48416 0.51328 0.21489 0.0
C759 C 0.43945 0.56269 0.22972 0.0
C760 C 0.51723 0.44884 0.22937 0.0
C761 C 0.53019 0.41526 0.19577 0.0
N762 N 0.46256 0.52613 0.22958 0.0
N763 N 0.50983 0.45271 0.1979 0.0
H764 H 0.42227 0.06603 0.50884 0.0
H765 H 0.55427 0.89993 0.45083 0.0
H766 H 0.42291 0.06314 0.4515 0.0
H767 H 0.54775 0.89427 0.50805 0.0
H768 H 0.50898 0.96244 0.45123 0.0
H769 H 0.46758 0.00303 0.50916 0.0
C770 C 0.43117 0.0517 0.49632 0.0
C771 C 0.41897 0.07013 0.4801 0.0
C772 C 0.51765 0.94776 0.46373 0.0
C773 C 0.47161 -0.00124 0.48041 0.0
C774 C 0.5439 0.91225 0.46352 0.0
C775 C 0.55465 0.89161 0.47943 0.0
C776 C 0.50188 0.96283 0.47995 0.0
C777 C 0.5403 0.90915 0.49547 0.0
C778 C 0.45744 0.016 0.49653 0.0
C779 C 0.43171 0.05026 0.46432 0.0
N780 N 0.5143 0.94358 0.49531 0.0
N781 N 0.45762 0.01593 0.46488 0.0
H782 H 0.95625 0.3729 0.54619 0.0
H783 H 0.05234 0.57106 0.49429 0.0
H784 H 0.91885 0.39744 0.49206 0.0
H785 H 0.03682 0.56242 0.55109 0.0
H786 H 0.0115 0.5047 0.49102 0.0
H787 H 0.00051 0.43633 0.54559 0.0
C788 C 0.95843 0.39107 0.53399 0.0
C789 C 0.93387 0.38016 0.5192 0.0
C790 C 0.01671 0.51784 0.50413 0.0
C791 C 0.98295 0.45373 0.51861 0.0
C792 C 0.03951 0.55587 0.506 0.0
C793 C 0.04839 0.57188 0.52302 0.0
C794 C 0.00338 0.49598 0.5194 0.0
C795 C 0.03115 0.5509 0.53774 0.0
C796 C 0.9831 0.42762 0.53373 0.0
C797 C 0.93758 0.40477 0.5037 0.0
N798 N 0.01005 0.5138 0.53561 0.0
N799 N 0.96126 0.44104 0.50386 0.0
loop_
_geom_bond_atom_site_label_1
_geom_bond_atom_site_label_2
_geom_bond_distance
_geom_bond_site_symmetry_2
_ccdc_geom_bond_type
C0 O1 1.306 . S
C0 O3 1.160 . S
O1 C0 1.306 . S
O1 Cd2 2.228 . S
Cd2 O1 2.228 . S
Cd2 O6 2.273 . S
Cd2 O10 2.277 . S
O3 C0 1.160 . S
O3 Cd4 2.203 . S
Cd4 O3 2.203 . S
Cd4 O6 2.411 . S
Cd4 O7 2.333 . S
Cd4 O8 2.352 . S
Cd4 O12 2.277 . S
Cd4 O13 2.356 . S
C5 O10 1.209 . S
C5 O12 1.226 . S
O6 Cd2 2.273 . S
O6 Cd4 2.411 . S
O6 C9 1.320 . S
O7 Cd4 2.333 . S
O7 C9 1.214 . S
O8 Cd4 2.352 . S
O8 C11 1.258 . S
C9 O6 1.320 . S
C9 O7 1.214 . S
O10 Cd2 2.277 . S
O10 C5 1.209 . S
C11 O8 1.258 . S
C11 O13 1.282 . S
O12 Cd4 2.277 . S
O12 C5 1.226 . S
O13 Cd4 2.356 . S
O13 C11 1.282 . S
C14 O15 1.306 . S
C14 O17 1.160 . S
O15 C14 1.306 . S
O15 Cd16 2.228 . S
Cd16 O15 2.228 . S
Cd16 O20 2.273 . S
Cd16 O24 2.277 . S
O17 C14 1.160 . S
O17 Cd18 2.203 . S
Cd18 O17 2.203 . S
Cd18 O20 2.411 . S
Cd18 O21 2.333 . S
Cd18 O22 2.352 . S
Cd18 O26 2.277 . S
Cd18 O27 2.356 . S
C19 O24 1.209 . S
C19 O26 1.226 . S
O20 Cd16 2.273 . S
O20 Cd18 2.411 . S
O20 C23 1.320 . S
O21 Cd18 2.333 . S
O21 C23 1.214 . S
O22 Cd18 2.352 . S
O22 C25 1.258 . S
C23 O20 1.320 . S
C23 O21 1.214 . S
O24 Cd16 2.277 . S
O24 C19 1.209 . S
C25 O22 1.258 . S
C25 O27 1.282 . S
O26 Cd18 2.277 . S
O26 C19 1.226 . S
O27 Cd18 2.356 . S
O27 C25 1.282 . S
C28 O29 1.306 . S
C28 O31 1.160 . S
O29 C28 1.306 . S
O29 Cd30 2.228 . S
Cd30 O29 2.228 . S
Cd30 O34 2.273 . S
Cd30 O38 2.277 . S
O31 C28 1.160 . S
O31 Cd32 2.203 . S
Cd32 O31 2.203 . S
Cd32 O34 2.411 . S
Cd32 O35 2.333 . S
Cd32 O36 2.352 . S
Cd32 O40 2.277 . S
Cd32 O41 2.356 . S
C33 O38 1.209 . S
C33 O40 1.226 . S
O34 Cd30 2.273 . S
O34 Cd32 2.411 . S
O34 C37 1.320 . S
O35 Cd32 2.333 . S
O35 C37 1.214 . S
O36 Cd32 2.352 . S
O36 C39 1.258 . S
C37 O34 1.320 . S
C37 O35 1.214 . S
O38 Cd30 2.277 . S
O38 C33 1.209 . S
C39 O36 1.258 . S
C39 O41 1.282 . S
O40 Cd32 2.277 . S
O40 C33 1.226 . S
O41 Cd32 2.356 . S
O41 C39 1.282 . S
C42 O43 1.306 . S
C42 O45 1.160 . S
O43 C42 1.306 . S
O43 Cd44 2.228 . S
Cd44 O43 2.228 . S
Cd44 O48 2.273 . S
Cd44 O52 2.277 . S
O45 C42 1.160 . S
O45 Cd46 2.203 . S
Cd46 O45 2.203 . S
Cd46 O48 2.411 . S
Cd46 O49 2.333 . S
Cd46 O50 2.352 . S
Cd46 O54 2.277 . S
Cd46 O55 2.356 . S
C47 O52 1.209 . S
C47 O54 1.226 . S
O48 Cd44 2.273 . S
O48 Cd46 2.411 . S
O48 C51 1.320 . S
O49 Cd46 2.333 . S
O49 C51 1.214 . S
O50 Cd46 2.352 . S
O50 C53 1.258 . S
C51 O48 1.320 . S
C51 O49 1.214 . S
O52 Cd44 2.277 . S
O52 C47 1.209 . S
C53 O50 1.258 . S
C53 O55 1.282 . S
O54 Cd46 2.277 . S
O54 C47 1.226 . S
O55 Cd46 2.356 . S
O55 C53 1.282 . S
C56 O57 1.306 . S
C56 O59 1.160 . S
O57 C56 1.306 . S
O57 Cd58 2.228 1_556 S
Cd58 O57 2.228 1_554 S
Cd58 O62 2.273 1_554 S
Cd58 O66 2.277 1_554 S
O59 C56 1.160 . S
O59 Cd60 2.203 . S
Cd60 O59 2.203 . S
Cd60 O62 2.411 . S
Cd60 O63 2.333 . S
Cd60 O64 2.352 . S
Cd60 O68 2.277 . S
Cd60 O69 2.356 . S
C61 O66 1.209 . S
C61 O68 1.226 . S
O62 Cd58 2.273 1_556 S
O62 Cd60 2.411 . S
O62 C65 1.320 . S
O63 Cd60 2.333 . S
O63 C65 1.214 . S
O64 Cd60 2.352 . S
O64 C67 1.258 . S
C65 O62 1.320 . S
C65 O63 1.214 . S
O66 Cd58 2.277 1_556 S
O66 C61 1.209 . S
C67 O64 1.258 . S
C67 O69 1.282 . S
O68 Cd60 2.277 . S
O68 C61 1.226 . S
O69 Cd60 2.356 . S
O69 C67 1.282 . S
C70 O71 1.306 . S
C70 O73 1.160 . S
O71 C70 1.306 . S
O71 Cd72 2.228 1_554 S
Cd72 O71 2.228 1_556 S
Cd72 O76 2.273 1_556 S
Cd72 O80 2.277 1_556 S
O73 C70 1.160 . S
O73 Cd74 2.203 . S
Cd74 O73 2.203 . S
Cd74 O76 2.411 . S
Cd74 O77 2.333 . S
Cd74 O78 2.352 . S
Cd74 O82 2.277 . S
Cd74 O83 2.356 . S
C75 O80 1.209 . S
C75 O82 1.226 . S
O76 Cd72 2.273 1_554 S
O76 Cd74 2.411 . S
O76 C79 1.320 . S
O77 Cd74 2.333 . S
O77 C79 1.214 . S
O78 Cd74 2.352 . S
O78 C81 1.258 . S
C79 O76 1.320 . S
C79 O77 1.214 . S
O80 Cd72 2.277 1_554 S
O80 C75 1.209 . S
C81 O78 1.258 . S
C81 O83 1.282 . S
O82 Cd74 2.277 . S
O82 C75 1.226 . S
O83 Cd74 2.356 . S
O83 C81 1.282 . S
C84 O85 1.306 . S
C84 O87 1.160 . S
O85 C84 1.306 . S
O85 Cd86 2.228 1_556 S
Cd86 O85 2.228 1_554 S
Cd86 O90 2.273 1_554 S
Cd86 O94 2.277 1_554 S
O87 C84 1.160 . S
O87 Cd88 2.203 . S
Cd88 O87 2.203 . S
Cd88 O90 2.411 . S
Cd88 O91 2.333 . S
Cd88 O92 2.352 . S
Cd88 O96 2.277 . S
Cd88 O97 2.356 . S
C89 O94 1.209 . S
C89 O96 1.226 . S
O90 Cd86 2.273 1_556 S
O90 Cd88 2.411 . S
O90 C93 1.320 . S
O91 Cd88 2.333 . S
O91 C93 1.214 . S
O92 Cd88 2.352 . S
O92 C95 1.258 . S
C93 O90 1.320 . S
C93 O91 1.214 . S
O94 Cd86 2.277 1_556 S
O94 C89 1.209 . S
C95 O92 1.258 . S
C95 O97 1.282 . S
O96 Cd88 2.277 . S
O96 C89 1.226 . S
O97 Cd88 2.356 . S
O97 C95 1.282 . S
C98 O99 1.306 . S
C98 O101 1.160 . S
O99 C98 1.306 . S
O99 Cd100 2.228 1_554 S
Cd100 O99 2.228 1_556 S
Cd100 O104 2.273 1_556 S
Cd100 O108 2.277 1_556 S
O101 C98 1.160 . S
O101 Cd102 2.203 . S
Cd102 O101 2.203 . S
Cd102 O104 2.411 . S
Cd102 O105 2.333 . S
Cd102 O106 2.352 . S
Cd102 O110 2.277 . S
Cd102 O111 2.356 . S
C103 O108 1.209 . S
C103 O110 1.226 . S
O104 Cd100 2.273 1_554 S
O104 Cd102 2.411 . S
O104 C107 1.320 . S
O105 Cd102 2.333 . S
O105 C107 1.214 . S
O106 Cd102 2.352 . S
O106 C109 1.258 . S
C107 O104 1.320 . S
C107 O105 1.214 . S
O108 Cd100 2.277 1_554 S
O108 C103 1.209 . S
C109 O106 1.258 . S
C109 O111 1.282 . S
O110 Cd102 2.277 . S
O110 C103 1.226 . S
O111 Cd102 2.356 . S
O111 C109 1.282 . S
C112 O113 1.306 . S
C112 O115 1.160 . S
O113 C112 1.306 . S
O113 Cd114 2.228 . S
Cd114 O113 2.228 . S
Cd114 O118 2.273 . S
Cd114 O122 2.277 . S
O115 C112 1.160 . S
O115 Cd116 2.203 . S
Cd116 O115 2.203 . S
Cd116 O118 2.411 . S
Cd116 O119 2.333 . S
Cd116 O120 2.352 . S
Cd116 O124 2.277 . S
Cd116 O125 2.356 . S
C117 O122 1.209 . S
C117 O124 1.226 . S
O118 Cd114 2.273 . S
O118 Cd116 2.411 . S
O118 C121 1.320 . S
O119 Cd116 2.333 . S
O119 C121 1.214 . S
O120 Cd116 2.352 . S
O120 C123 1.258 . S
C121 O118 1.320 . S
C121 O119 1.214 . S
O122 Cd114 2.277 . S
O122 C117 1.209 . S
C123 O120 1.258 . S
C123 O125 1.282 . S
O124 Cd116 2.277 . S
O124 C117 1.226 . S
O125 Cd116 2.356 . S
O125 C123 1.282 . S
C126 O127 1.306 . S
C126 O129 1.160 . S
O127 C126 1.306 . S
O127 Cd128 2.228 . S
Cd128 O127 2.228 . S
Cd128 O132 2.273 . S
Cd128 O136 2.277 . S
O129 C126 1.160 . S
O129 Cd130 2.203 . S
Cd130 O129 2.203 . S
Cd130 O132 2.411 . S
Cd130 O133 2.333 . S
Cd130 O134 2.352 . S
Cd130 O138 2.277 . S
Cd130 O139 2.356 . S
C131 O136 1.209 . S
C131 O138 1.226 . S
O132 Cd128 2.273 . S
O132 Cd130 2.411 . S
O132 C135 1.320 . S
O133 Cd130 2.333 . S
O133 C135 1.214 . S
O134 Cd130 2.352 . S
O134 C137 1.258 . S
C135 O132 1.320 . S
C135 O133 1.214 . S
O136 Cd128 2.277 . S
O136 C131 1.209 . S
C137 O134 1.258 . S
C137 O139 1.282 . S
O138 Cd130 2.277 . S
O138 C131 1.226 . S
O139 Cd130 2.356 . S
O139 C137 1.282 . S
C140 O141 1.306 . S
C140 O143 1.160 . S
O141 C140 1.306 . S
O141 Cd142 2.228 . S
Cd142 O141 2.228 . S
Cd142 O146 2.273 . S
Cd142 O150 2.277 . S
O143 C140 1.160 . S
O143 Cd144 2.203 . S
Cd144 O143 2.203 . S
Cd144 O146 2.411 . S
Cd144 O147 2.333 . S
Cd144 O148 2.352 . S
Cd144 O152 2.277 . S
Cd144 O153 2.356 . S
C145 O150 1.209 . S
C145 O152 1.226 . S
O146 Cd142 2.273 . S
O146 Cd144 2.411 . S
O146 C149 1.320 . S
O147 Cd144 2.333 . S
O147 C149 1.214 . S
O148 Cd144 2.352 . S
O148 C151 1.258 . S
C149 O146 1.320 . S
C149 O147 1.214 . S
O150 Cd142 2.277 . S
O150 C145 1.209 . S
C151 O148 1.258 . S
C151 O153 1.282 . S
O152 Cd144 2.277 . S
O152 C145 1.226 . S
O153 Cd144 2.356 . S
O153 C151 1.282 . S
C154 O155 1.306 . S
C154 O157 1.160 . S
O155 C154 1.306 . S
O155 Cd156 2.228 . S
Cd156 O155 2.228 . S
Cd156 O160 2.273 . S
Cd156 O164 2.277 . S
O157 C154 1.160 . S
O157 Cd158 2.203 . S
Cd158 O157 2.203 . S
Cd158 O160 2.411 . S
Cd158 O161 2.333 . S
Cd158 O162 2.352 . S
Cd158 O166 2.277 . S
Cd158 O167 2.356 . S
C159 O164 1.209 . S
C159 O166 1.226 . S
O160 Cd156 2.273 . S
O160 Cd158 2.411 . S
O160 C163 1.320 . S
O161 Cd158 2.333 . S
O161 C163 1.214 . S
O162 Cd158 2.352 . S
O162 C165 1.258 . S
C163 O160 1.320 . S
C163 O161 1.214 . S
O164 Cd156 2.277 . S
O164 C159 1.209 . S
C165 O162 1.258 . S
C165 O167 1.282 . S
O166 Cd158 2.277 . S
O166 C159 1.226 . S
O167 Cd158 2.356 . S
O167 C165 1.282 . S
C168 O169 1.306 . S
C168 O171 1.160 . S
O169 C168 1.306 . S
O169 Cd170 2.228 . S
Cd170 O169 2.228 . S
Cd170 O174 2.273 . S
Cd170 O178 2.277 . S
O171 C168 1.160 . S
O171 Cd172 2.203 . S
Cd172 O171 2.203 . S
Cd172 O174 2.411 . S
Cd172 O175 2.333 . S
Cd172 O176 2.352 . S
Cd172 O180 2.277 . S
Cd172 O181 2.356 . S
C173 O178 1.209 . S
C173 O180 1.226 . S
O174 Cd170 2.273 . S
O174 Cd172 2.411 . S
O174 C177 1.320 . S
O175 Cd172 2.333 . S
O175 C177 1.214 . S
O176 Cd172 2.352 . S
O176 C179 1.258 . S
C177 O174 1.320 . S
C177 O175 1.214 . S
O178 Cd170 2.277 . S
O178 C173 1.209 . S
C179 O176 1.258 . S
C179 O181 1.282 . S
O180 Cd172 2.277 . S
O180 C173 1.226 . S
O181 Cd172 2.356 . S
O181 C179 1.282 . S
C182 O183 1.306 . S
C182 O185 1.160 . S
O183 C182 1.306 . S
O183 Cd184 2.228 . S
Cd184 O183 2.228 . S
Cd184 O188 2.273 . S
Cd184 O192 2.277 . S
O185 C182 1.160 . S
O185 Cd186 2.203 . S
Cd186 O185 2.203 . S
Cd186 O188 2.411 . S
Cd186 O189 2.333 . S
Cd186 O190 2.352 . S
Cd186 O194 2.277 . S
Cd186 O195 2.356 . S
C187 O192 1.209 . S
C187 O194 1.226 . S
O188 Cd184 2.273 . S
O188 Cd186 2.411 . S
O188 C191 1.320 . S
O189 Cd186 2.333 . S
O189 C191 1.214 . S
O190 Cd186 2.352 . S
O190 C193 1.258 . S
C191 O188 1.320 . S
C191 O189 1.214 . S
O192 Cd184 2.277 . S
O192 C187 1.209 . S
C193 O190 1.258 . S
C193 O195 1.282 . S
O194 Cd186 2.277 . S
O194 C187 1.226 . S
O195 Cd186 2.356 . S
O195 C193 1.282 . S
C196 O197 1.306 . S
C196 O199 1.160 . S
O197 C196 1.306 . S
O197 Cd198 2.228 . S
Cd198 O197 2.228 . S
Cd198 O202 2.273 . S
Cd198 O206 2.277 . S
O199 C196 1.160 . S
O199 Cd200 2.203 . S
Cd200 O199 2.203 . S
Cd200 O202 2.411 . S
Cd200 O203 2.333 . S
Cd200 O204 2.352 . S
Cd200 O208 2.277 . S
Cd200 O209 2.356 . S
C201 O206 1.209 . S
C201 O208 1.226 . S
O202 Cd198 2.273 . S
O202 Cd200 2.411 . S
O202 C205 1.320 . S
O203 Cd200 2.333 . S
O203 C205 1.214 . S
O204 Cd200 2.352 . S
O204 C207 1.258 . S
C205 O202 1.320 . S
C205 O203 1.214 . S
O206 Cd198 2.277 . S
O206 C201 1.209 . S
C207 O204 1.258 . S
C207 O209 1.282 . S
O208 Cd200 2.277 . S
O208 C201 1.226 . S
O209 Cd200 2.356 . S
O209 C207 1.282 . S
C210 O211 1.306 . S
C210 O213 1.160 . S
O211 C210 1.306 . S
O211 Cd212 2.228 . S
Cd212 O211 2.228 . S
Cd212 O216 2.273 . S
Cd212 O220 2.277 . S
O213 C210 1.160 . S
O213 Cd214 2.203 . S
Cd214 O213 2.203 . S
Cd214 O216 2.411 . S
Cd214 O217 2.333 . S
Cd214 O218 2.352 . S
Cd214 O222 2.277 . S
Cd214 O223 2.356 . S
C215 O220 1.209 . S
C215 O222 1.226 . S
O216 Cd212 2.273 . S
O216 Cd214 2.411 . S
O216 C219 1.320 . S
O217 Cd214 2.333 . S
O217 C219 1.214 . S
O218 Cd214 2.352 . S
O218 C221 1.258 . S
C219 O216 1.320 . S
C219 O217 1.214 . S
O220 Cd212 2.277 . S
O220 C215 1.209 . S
C221 O218 1.258 . S
C221 O223 1.282 . S
O222 Cd214 2.277 . S
O222 C215 1.226 . S
O223 Cd214 2.356 . S
O223 C221 1.282 . S
H224 C230 0.930 . S
H225 C234 0.930 . S
H226 C239 0.929 . S
H227 C237 0.929 . S
H228 C232 0.929 . S
H229 C238 0.929 . S
C230 H224 0.930 . S
C230 C231 1.367 . S
C230 C238 1.378 . S
C231 C230 1.367 . S
C231 C239 1.433 . S
C232 H228 0.929 . S
C232 C234 1.378 . S
C232 C236 1.350 . S
C233 C236 1.463 . S
C233 C238 1.350 . S
C233 N241 1.427 . S
C234 H225 0.930 . S
C234 C232 1.378 . S
C234 C235 1.367 . S
C235 C234 1.367 . S
C235 C237 1.433 . S
C236 C232 1.350 . S
C236 C233 1.463 . S
C236 N240 1.427 . S
C237 H227 0.929 . S
C237 C235 1.433 . S
C237 N240 1.384 . S
C238 H229 0.929 . S
C238 C230 1.378 . S
C238 C233 1.350 . S
C239 H226 0.929 . S
C239 C231 1.433 . S
C239 N241 1.384 . S
N240 C236 1.427 . S
N240 C237 1.384 . S
N241 C233 1.427 . S
N241 C239 1.384 . S
H242 C248 0.930 . S
H243 C252 0.930 . S
H244 C257 0.929 . S
H245 C255 0.929 . S
H246 C250 0.929 . S
H247 C256 0.929 . S
C248 H242 0.930 . S
C248 C249 1.367 . S
C248 C256 1.378 . S
C249 C248 1.367 . S
C249 C257 1.433 . S
C250 H246 0.929 . S
C250 C252 1.378 . S
C250 C254 1.350 . S
C251 C254 1.463 . S
C251 C256 1.350 . S
C251 N259 1.427 . S
C252 H243 0.930 . S
C252 C250 1.378 . S
C252 C253 1.367 . S
C253 C252 1.367 . S
C253 C255 1.433 . S
C254 C250 1.350 . S
C254 C251 1.463 . S
C254 N258 1.427 . S
C255 H245 0.929 . S
C255 C253 1.433 . S
C255 N258 1.384 . S
C256 H247 0.929 . S
C256 C248 1.378 . S
C256 C251 1.350 . S
C257 H244 0.929 . S
C257 C249 1.433 . S
C257 N259 1.384 . S
N258 C254 1.427 . S
N258 C255 1.384 . S
N259 C251 1.427 . S
N259 C257 1.384 . S
H260 C266 0.930 . S
H261 C270 0.930 . S
H262 C275 0.929 . S
H263 C273 0.929 . S
H264 C268 0.929 . S
H265 C274 0.929 . S
C266 H260 0.930 . S
C266 C267 1.367 . S
C266 C274 1.378 . S
C267 C266 1.367 . S
C267 C275 1.433 . S
C268 H264 0.929 . S
C268 C270 1.378 . S
C268 C272 1.350 . S
C269 C272 1.463 . S
C269 C274 1.350 . S
C269 N277 1.427 . S
C270 H261 0.930 . S
C270 C268 1.378 . S
C270 C271 1.367 . S
C271 C270 1.367 . S
C271 C273 1.433 . S
C272 C268 1.350 . S
C272 C269 1.463 . S
C272 N276 1.427 . S
C273 H263 0.929 . S
C273 C271 1.433 . S
C273 N276 1.384 . S
C274 H265 0.929 . S
C274 C266 1.378 . S
C274 C269 1.350 . S
C275 H262 0.929 . S
C275 C267 1.433 . S
C275 N277 1.384 . S
N276 C272 1.427 . S
N276 C273 1.384 . S
N277 C269 1.427 . S
N277 C275 1.384 . S
H278 C284 0.930 . S
H279 C288 0.930 . S
H280 C293 0.929 . S
H281 C291 0.929 . S
H282 C286 0.929 . S
H283 C292 0.929 . S
C284 H278 0.930 . S
C284 C285 1.367 . S
C284 C292 1.378 . S
C285 C284 1.367 . S
C285 C293 1.433 . S
C286 H282 0.929 . S
C286 C288 1.378 . S
C286 C290 1.350 . S
C287 C290 1.463 . S
C287 C292 1.350 . S
C287 N295 1.427 . S
C288 H279 0.930 . S
C288 C286 1.378 . S
C288 C289 1.367 . S
C289 C288 1.367 . S
C289 C291 1.433 . S
C290 C286 1.350 . S
C290 C287 1.463 . S
C290 N294 1.427 . S
C291 H281 0.929 . S
C291 C289 1.433 . S
C291 N294 1.384 . S
C292 H283 0.929 . S
C292 C284 1.378 . S
C292 C287 1.350 . S
C293 H280 0.929 . S
C293 C285 1.433 . S
C293 N295 1.384 . S
N294 C290 1.427 . S
N294 C291 1.384 . S
N295 C287 1.427 . S
N295 C293 1.384 . S
H296 C302 0.930 . S
H297 C306 0.930 . S
H298 C311 0.945 . S
H299 C309 0.929 . S
H300 C304 0.929 . S
H301 C310 0.929 . S
C302 H296 0.930 . S
C302 C303 1.367 . S
C302 C310 1.378 . S
C303 C302 1.367 . S
C303 C311 1.433 . S
C304 H300 0.929 . S
C304 C306 1.378 1_554 S
C304 C308 1.350 . S
C305 C308 1.463 . S
C305 C310 1.350 . S
C305 N313 1.427 . S
C306 H297 0.930 . S
C306 C304 1.378 1_556 S
C306 C307 1.367 . S
C307 C306 1.367 . S
C307 C309 1.433 . S
C308 C304 1.350 . S
C308 C305 1.463 . S
C308 N312 1.427 1_554 S
C309 H299 0.929 . S
C309 C307 1.433 . S
C309 N312 1.384 . S
C310 H301 0.929 . S
C310 C302 1.378 . S
C310 C305 1.350 . S
C311 H298 0.945 . S
C311 C303 1.433 . S
C311 N313 1.384 . S
N312 C308 1.427 1_556 S
N312 C309 1.384 . S
N313 C305 1.427 . S
N313 C311 1.384 . S
H314 C320 0.930 . S
H315 C324 0.930 . S
H316 C329 0.929 . S
H317 C327 0.929 . S
H318 C322 0.929 1_554 S
H319 C328 0.929 . S
C320 H314 0.930 . S
C320 C321 1.367 1_556 S
C320 C328 1.378 . S
C321 C320 1.367 1_554 S
C321 C329 1.433 . S
C322 H318 0.929 1_556 S
C322 C324 1.378 . S
C322 C326 1.350 . S
C323 C326 1.463 . S
C323 C328 1.350 . S
C323 N331 1.427 1_556 S
C324 H315 0.930 . S
C324 C322 1.378 . S
C324 C325 1.367 . S
C325 C324 1.367 . S
C325 C327 1.433 . S
C326 C322 1.350 . S
C326 C323 1.463 . S
C326 N330 1.427 . S
C327 H317 0.929 . S
C327 C325 1.433 . S
C327 N330 1.384 . S
C328 H319 0.929 . S
C328 C320 1.378 . S
C328 C323 1.350 . S
C329 H316 0.929 . S
C329 C321 1.433 . S
C329 N331 1.384 . S
N330 C326 1.427 . S
N330 C327 1.384 . S
N331 C323 1.427 1_554 S
N331 C329 1.384 . S
H332 C338 0.930 . S
H333 C342 0.930 1_545 S
H334 C347 0.929 . S
H335 C345 0.929 . S
H336 C340 0.929 . S
H337 C346 0.929 . S
C338 H332 0.930 . S
C338 C339 1.367 . S
C338 C346 1.378 1_556 S
C339 C338 1.367 . S
C339 C347 1.433 . S
C340 H336 0.929 . S
C340 C342 1.378 . S
C340 C344 1.350 . S
C341 C344 1.463 . S
C341 C346 1.350 . S
C341 N349 1.427 1_554 S
C342 H333 0.930 1_565 S
C342 C340 1.378 . S
C342 C343 1.367 . S
C343 C342 1.367 . S
C343 C345 1.433 . S
C344 C340 1.350 . S
C344 C341 1.463 . S
C344 N348 1.427 . S
C345 H335 0.929 . S
C345 C343 1.433 . S
C345 N348 1.384 . S
C346 H337 0.929 . S
C346 C338 1.378 1_554 S
C346 C341 1.350 . S
C347 H334 0.929 . S
C347 C339 1.433 . S
C347 N349 1.384 . S
N348 C344 1.427 . S
N348 C345 1.384 . S
N349 C341 1.427 1_556 S
N349 C347 1.384 . S
H350 C356 0.930 . S
H351 C360 0.930 1_455 S
H352 C365 0.929 . S
H353 C363 0.929 . S
H354 C358 0.929 1_554 S
H355 C364 0.929 . S
C356 H350 0.930 . S
C356 C357 1.367 1_556 S
C356 C364 1.378 . S
C357 C356 1.367 1_554 S
C357 C365 1.433 . S
C358 H354 0.929 1_556 S
C358 C360 1.378 . S
C358 C362 1.350 . S
C359 C362 1.463 . S
C359 C364 1.350 . S
C359 N367 1.427 1_556 S
C360 H351 0.930 1_655 S
C360 C358 1.378 . S
C360 C361 1.367 . S
C361 C360 1.367 . S
C361 C363 1.433 . S
C362 C358 1.350 . S
C362 C359 1.463 . S
C362 N366 1.427 . S
C363 H353 0.929 . S
C363 C361 1.433 . S
C363 N366 1.384 . S
C364 H355 0.929 . S
C364 C356 1.378 . S
C364 C359 1.350 . S
C365 H352 0.929 . S
C365 C357 1.433 . S
C365 N367 1.384 . S
N366 C362 1.427 . S
N366 C363 1.384 . S
N367 C359 1.427 1_554 S
N367 C365 1.384 . S
H368 C374 0.930 . S
H369 C378 0.930 . S
H370 C383 0.929 . S
H371 C381 0.929 1_545 S
H372 C376 0.929 . S
H373 C382 0.929 . S
C374 H368 0.930 . S
C374 C375 1.367 . S
C374 C382 1.378 . S
C375 C374 1.367 . S
C375 C383 1.433 . S
C376 H372 0.929 . S
C376 C378 1.378 . S
C376 C380 1.350 . S
C377 C380 1.463 . S
C377 C382 1.350 . S
C377 N385 1.427 . S
C378 H369 0.930 . S
C378 C376 1.378 . S
C378 C379 1.367 . S
C379 C378 1.367 . S
C379 C381 1.433 . S
C380 C376 1.350 . S
C380 C377 1.463 . S
C380 N384 1.427 . S
C381 H371 0.929 1_565 S
C381 C379 1.433 . S
C381 N384 1.384 . S
C382 H373 0.929 . S
C382 C374 1.378 . S
C382 C377 1.350 . S
C383 H370 0.929 . S
C383 C375 1.433 . S
C383 N385 1.384 . S
N384 C380 1.427 . S
N384 C381 1.384 . S
N385 C377 1.427 . S
N385 C383 1.384 . S
H386 C392 0.930 . S
H387 C396 0.930 . S
H388 C401 0.929 . S
H389 C399 0.929 . S
H390 C394 0.929 . S
H391 C400 0.929 . S
C392 H386 0.930 . S
C392 C393 1.367 . S
C392 C400 1.378 . S
C393 C392 1.367 . S
C393 C401 1.433 . S
C394 H390 0.929 . S
C394 C396 1.378 . S
C394 C398 1.350 . S
C395 C398 1.463 . S
C395 C400 1.350 . S
C395 N403 1.427 . S
C396 H387 0.930 . S
C396 C394 1.378 . S
C396 C397 1.367 . S
C397 C396 1.367 . S
C397 C399 1.433 . S
C398 C394 1.350 . S
C398 C395 1.463 . S
C398 N402 1.427 . S
C399 H389 0.929 . S
C399 C397 1.433 . S
C399 N402 1.384 . S
C400 H391 0.929 . S
C400 C392 1.378 . S
C400 C395 1.350 . S
C401 H388 0.929 . S
C401 C393 1.433 . S
C401 N403 1.384 . S
N402 C398 1.427 . S
N402 C399 1.384 . S
N403 C395 1.427 . S
N403 C401 1.384 . S
H404 C410 0.930 1_565 S
H405 C414 0.930 . S
H406 C419 0.929 . S
H407 C417 0.929 . S
H408 C412 0.929 . S
H409 C418 0.929 . S
C410 H404 0.930 1_545 S
C410 C411 1.367 . S
C410 C418 1.378 . S
C411 C410 1.367 . S
C411 C419 1.433 . S
C412 H408 0.929 . S
C412 C414 1.378 . S
C412 C416 1.350 . S
C413 C416 1.463 . S
C413 C418 1.350 . S
C413 N421 1.427 . S
C414 H405 0.930 . S
C414 C412 1.378 . S
C414 C415 1.367 . S
C415 C414 1.367 . S
C415 C417 1.433 . S
C416 C412 1.350 . S
C416 C413 1.463 . S
C416 N420 1.427 . S
C417 H407 0.929 . S
C417 C415 1.433 . S
C417 N420 1.384 . S
C418 H409 0.929 . S
C418 C410 1.378 . S
C418 C413 1.350 . S
C419 H406 0.929 . S
C419 C411 1.433 . S
C419 N421 1.384 . S
N420 C416 1.427 . S
N420 C417 1.384 . S
N421 C413 1.427 . S
N421 C419 1.384 . S
H422 C428 0.930 . S
H423 C432 0.930 . S
H424 C437 0.929 . S
H425 C435 0.929 . S
H426 C430 0.929 . S
H427 C436 0.929 . S
C428 H422 0.930 . S
C428 C429 1.367 . S
C428 C436 1.378 . S
C429 C428 1.367 . S
C429 C437 1.433 . S
C430 H426 0.929 . S
C430 C432 1.378 . S
C430 C434 1.350 . S
C431 C434 1.463 . S
C431 C436 1.350 . S
C431 N439 1.427 . S
C432 H423 0.930 . S
C432 C430 1.378 . S
C432 C433 1.367 . S
C433 C432 1.367 . S
C433 C435 1.433 . S
C434 C430 1.350 . S
C434 C431 1.463 . S
C434 N438 1.427 . S
C435 H425 0.929 . S
C435 C433 1.433 . S
C435 N438 1.384 . S
C436 H427 0.929 . S
C436 C428 1.378 . S
C436 C431 1.350 . S
C437 H424 0.929 . S
C437 C429 1.433 . S
C437 N439 1.384 . S
N438 C434 1.427 . S
N438 C435 1.384 . S
N439 C431 1.427 . S
N439 C437 1.384 . S
H440 C446 0.930 . S
H441 C450 0.930 . S
H442 C455 0.929 . S
H443 C453 0.929 . S
H444 C448 0.929 . S
H445 C454 0.929 . S
C446 H440 0.930 . S
C446 C447 1.367 . S
C446 C454 1.378 . S
C447 C446 1.367 . S
C447 C455 1.433 . S
C448 H444 0.929 . S
C448 C450 1.378 . S
C448 C452 1.350 . S
C449 C452 1.463 . S
C449 C454 1.350 . S
C449 N457 1.427 . S
C450 H441 0.930 . S
C450 C448 1.378 . S
C450 C451 1.367 . S
C451 C450 1.367 . S
C451 C453 1.433 . S
C452 C448 1.350 . S
C452 C449 1.463 . S
C452 N456 1.427 . S
C453 H443 0.929 . S
C453 C451 1.433 . S
C453 N456 1.384 . S
C454 H445 0.929 . S
C454 C446 1.378 . S
C454 C449 1.350 . S
C455 H442 0.929 . S
C455 C447 1.433 . S
C455 N457 1.384 . S
N456 C452 1.427 . S
N456 C453 1.384 . S
N457 C449 1.427 . S
N457 C455 1.384 . S
H458 C464 0.930 . S
H459 C468 0.930 . S
H460 C473 0.929 . S
H461 C471 0.929 . S
H462 C466 0.929 . S
H463 C472 0.929 . S
C464 H458 0.930 . S
C464 C465 1.367 . S
C464 C472 1.378 . S
C465 C464 1.367 . S
C465 C473 1.433 . S
C466 H462 0.929 . S
C466 C468 1.378 . S
C466 C470 1.350 . S
C467 C470 1.463 . S
C467 C472 1.350 . S
C467 N475 1.427 . S
C468 H459 0.930 . S
C468 C466 1.378 . S
C468 C469 1.367 . S
C469 C468 1.367 . S
C469 C471 1.433 . S
C470 C466 1.350 . S
C470 C467 1.463 . S
C470 N474 1.427 . S
C471 H461 0.929 . S
C471 C469 1.433 . S
C471 N474 1.384 . S
C472 H463 0.929 . S
C472 C464 1.378 . S
C472 C467 1.350 . S
C473 H460 0.929 . S
C473 C465 1.433 . S
C473 N475 1.384 . S
N474 C470 1.427 . S
N474 C471 1.384 . S
N475 C467 1.427 . S
N475 C473 1.384 . S
H476 C482 0.930 . S
H477 C486 0.930 . S
H478 C491 0.929 . S
H479 C489 0.929 . S
H480 C484 0.929 . S
H481 C490 0.929 . S
C482 H476 0.930 . S
C482 C483 1.367 . S
C482 C490 1.378 . S
C483 C482 1.367 . S
C483 C491 1.433 . S
C484 H480 0.929 . S
C484 C486 1.378 . S
C484 C488 1.350 . S
C485 C488 1.463 . S
C485 C490 1.350 . S
C485 N493 1.427 . S
C486 H477 0.930 . S
C486 C484 1.378 . S
C486 C487 1.367 . S
C487 C486 1.367 . S
C487 C489 1.433 . S
C488 C484 1.350 . S
C488 C485 1.463 . S
C488 N492 1.427 . S
C489 H479 0.929 . S
C489 C487 1.433 . S
C489 N492 1.384 . S
C490 H481 0.929 . S
C490 C482 1.378 . S
C490 C485 1.350 . S
C491 H478 0.929 . S
C491 C483 1.433 . S
C491 N493 1.384 . S
N492 C488 1.427 . S
N492 C489 1.384 . S
N493 C485 1.427 . S
N493 C491 1.384 . S
H494 C500 0.930 . S
H495 C504 0.930 . S
H496 C509 0.929 . S
H497 C507 0.929 . S
H498 C502 0.929 . S
H499 C508 0.929 . S
C500 H494 0.930 . S
C500 C501 1.367 . S
C500 C508 1.378 . S
C501 C500 1.367 . S
C501 C509 1.433 . S
C502 H498 0.929 . S
C502 C504 1.378 . S
C502 C506 1.350 . S
C503 C506 1.463 . S
C503 C508 1.350 . S
C503 N511 1.427 . S
C504 H495 0.930 . S
C504 C502 1.378 . S
C504 C505 1.367 . S
C505 C504 1.367 . S
C505 C507 1.433 . S
C506 C502 1.350 . S
C506 C503 1.463 . S
C506 N510 1.427 . S
C507 H497 0.929 . S
C507 C505 1.433 . S
C507 N510 1.384 . S
C508 H499 0.929 . S
C508 C500 1.378 . S
C508 C503 1.350 . S
C509 H496 0.929 . S
C509 C501 1.433 . S
C509 N511 1.384 . S
N510 C506 1.427 . S
N510 C507 1.384 . S
N511 C503 1.427 . S
N511 C509 1.384 . S
H512 C518 0.930 . S
H513 C522 0.930 . S
H514 C527 0.929 . S
H515 C525 0.929 . S
H516 C520 0.929 . S
H517 C526 0.929 . S
C518 H512 0.930 . S
C518 C519 1.367 . S
C518 C526 1.378 . S
C519 C518 1.367 . S
C519 C527 1.433 . S
C520 H516 0.929 . S
C520 C522 1.378 . S
C520 C524 1.350 . S
C521 C524 1.463 . S
C521 C526 1.350 . S
C521 N529 1.427 . S
C522 H513 0.930 . S
C522 C520 1.378 . S
C522 C523 1.367 . S
C523 C522 1.367 . S
C523 C525 1.433 . S
C524 C520 1.350 . S
C524 C521 1.463 . S
C524 N528 1.427 . S
C525 H515 0.929 . S
C525 C523 1.433 . S
C525 N528 1.384 . S
C526 H517 0.929 . S
C526 C518 1.378 . S
C526 C521 1.350 . S
C527 H514 0.929 . S
C527 C519 1.433 . S
C527 N529 1.384 . S
N528 C524 1.427 . S
N528 C525 1.384 . S
N529 C521 1.427 . S
N529 C527 1.384 . S
H530 C536 0.930 . S
H531 C540 0.930 . S
H532 C545 0.929 . S
H533 C543 0.929 . S
H534 C538 0.929 . S
H535 C544 0.929 . S
C536 H530 0.930 . S
C536 C537 1.367 . S
C536 C544 1.378 . S
C537 C536 1.367 . S
C537 C545 1.433 . S
C538 H534 0.929 . S
C538 C540 1.378 . S
C538 C542 1.350 . S
C539 C542 1.463 . S
C539 C544 1.350 . S
C539 N547 1.427 . S
C540 H531 0.930 . S
C540 C538 1.378 . S
C540 C541 1.367 . S
C541 C540 1.367 . S
C541 C543 1.433 . S
C542 C538 1.350 . S
C542 C539 1.463 . S
C542 N546 1.427 . S
C543 H533 0.929 . S
C543 C541 1.433 . S
C543 N546 1.384 . S
C544 H535 0.929 . S
C544 C536 1.378 . S
C544 C539 1.350 . S
C545 H532 0.929 . S
C545 C537 1.433 . S
C545 N547 1.384 . S
N546 C542 1.427 . S
N546 C543 1.384 . S
N547 C539 1.427 . S
N547 C545 1.384 . S
H548 C554 0.930 . S
H549 C558 0.930 . S
H550 C563 0.929 . S
H551 C561 0.929 . S
H552 C556 0.929 . S
H553 C562 0.929 . S
C554 H548 0.930 . S
C554 C555 1.367 . S
C554 C562 1.378 . S
C555 C554 1.367 . S
C555 C563 1.433 . S
C556 H552 0.929 . S
C556 C558 1.378 . S
C556 C560 1.350 . S
C557 C560 1.463 . S
C557 C562 1.350 . S
C557 N565 1.427 . S
C558 H549 0.930 . S
C558 C556 1.378 . S
C558 C559 1.367 . S
C559 C558 1.367 . S
C559 C561 1.433 . S
C560 C556 1.350 . S
C560 C557 1.463 . S
C560 N564 1.427 . S
C561 H551 0.929 . S
C561 C559 1.433 . S
C561 N564 1.384 . S
C562 H553 0.929 . S
C562 C554 1.378 . S
C562 C557 1.350 . S
C563 H550 0.929 . S
C563 C555 1.433 . S
C563 N565 1.384 . S
N564 C560 1.427 . S
N564 C561 1.384 . S
N565 C557 1.427 . S
N565 C563 1.384 . S
H566 C572 0.930 . S
H567 C576 0.930 . S
H568 C581 0.929 . S
H569 C579 0.929 . S
H570 C574 0.929 . S
H571 C580 0.929 . S
C572 H566 0.930 . S
C572 C573 1.367 . S
C572 C580 1.378 . S
C573 C572 1.367 . S
C573 C581 1.433 . S
C574 H570 0.929 . S
C574 C576 1.378 . S
C574 C578 1.350 . S
C575 C578 1.463 . S
C575 C580 1.350 . S
C575 N583 1.427 . S
C576 H567 0.930 . S
C576 C574 1.378 . S
C576 C577 1.367 . S
C577 C576 1.367 . S
C577 C579 1.433 . S
C578 C574 1.350 . S
C578 C575 1.463 . S
C578 N582 1.427 . S
C579 H569 0.929 . S
C579 C577 1.433 . S
C579 N582 1.384 . S
C580 H571 0.929 . S
C580 C572 1.378 . S
C580 C575 1.350 . S
C581 H568 0.929 . S
C581 C573 1.433 . S
C581 N583 1.384 . S
N582 C578 1.427 . S
N582 C579 1.384 . S
N583 C575 1.427 . S
N583 C581 1.384 . S
H584 C590 0.930 . S
H585 C594 0.930 . S
H586 C599 0.929 . S
H587 C597 0.929 . S
H588 C592 0.929 . S
H589 C598 0.929 . S
C590 H584 0.930 . S
C590 C591 1.367 . S
C590 C598 1.378 . S
C591 C590 1.367 . S
C591 C599 1.433 . S
C592 H588 0.929 . S
C592 C594 1.378 . S
C592 C596 1.350 . S
C593 C596 1.463 . S
C593 C598 1.350 . S
C593 N601 1.427 . S
C594 H585 0.930 . S
C594 C592 1.378 . S
C594 C595 1.367 . S
C595 C594 1.367 . S
C595 C597 1.433 . S
C596 C592 1.350 . S
C596 C593 1.463 . S
C596 N600 1.427 . S
C597 H587 0.929 . S
C597 C595 1.433 . S
C597 N600 1.384 . S
C598 H589 0.929 . S
C598 C590 1.378 . S
C598 C593 1.350 . S
C599 H586 0.929 . S
C599 C591 1.433 . S
C599 N601 1.384 . S
N600 C596 1.427 . S
N600 C597 1.384 . S
N601 C593 1.427 . S
N601 C599 1.384 . S
H602 C608 0.930 . S
H603 C612 0.930 . S
H604 C617 0.929 . S
H605 C615 0.929 . S
H606 C610 0.929 . S
H607 C616 0.929 . S
C608 H602 0.930 . S
C608 C609 1.367 . S
C608 C616 1.378 . S
C609 C608 1.367 . S
C609 C617 1.433 . S
C610 H606 0.929 . S
C610 C612 1.378 . S
C610 C614 1.350 . S
C611 C614 1.463 . S
C611 C616 1.350 . S
C611 N619 1.427 . S
C612 H603 0.930 . S
C612 C610 1.378 . S
C612 C613 1.367 . S
C613 C612 1.367 . S
C613 C615 1.433 . S
C614 C610 1.350 . S
C614 C611 1.463 . S
C614 N618 1.427 . S
C615 H605 0.929 . S
C615 C613 1.433 . S
C615 N618 1.384 . S
C616 H607 0.929 . S
C616 C608 1.378 . S
C616 C611 1.350 . S
C617 H604 0.929 . S
C617 C609 1.433 . S
C617 N619 1.384 . S
N618 C614 1.427 . S
N618 C615 1.384 . S
N619 C611 1.427 . S
N619 C617 1.384 . S
H620 C626 0.930 . S
H621 C630 0.930 . S
H622 C635 0.929 . S
H623 C633 0.929 . S
H624 C628 0.929 . S
H625 C634 0.929 . S
C626 H620 0.930 . S
C626 C627 1.367 . S
C626 C634 1.378 . S
C627 C626 1.367 . S
C627 C635 1.433 . S
C628 H624 0.929 . S
C628 C630 1.378 . S
C628 C632 1.350 . S
C629 C632 1.463 . S
C629 C634 1.350 . S
C629 N637 1.427 . S
C630 H621 0.930 . S
C630 C628 1.378 . S
C630 C631 1.367 . S
C631 C630 1.367 . S
C631 C633 1.433 . S
C632 C628 1.350 . S
C632 C629 1.463 . S
C632 N636 1.427 . S
C633 H623 0.929 . S
C633 C631 1.433 . S
C633 N636 1.384 . S
C634 H625 0.929 . S
C634 C626 1.378 . S
C634 C629 1.350 . S
C635 H622 0.929 . S
C635 C627 1.433 . S
C635 N637 1.384 . S
N636 C632 1.427 . S
N636 C633 1.384 . S
N637 C629 1.427 . S
N637 C635 1.384 . S
H638 C644 0.930 . S
H639 C648 0.930 . S
H640 C653 0.929 . S
H641 C651 0.929 . S
H642 C646 0.929 . S
H643 C652 0.929 . S
C644 H638 0.930 . S
C644 C645 1.367 . S
C644 C652 1.378 . S
C645 C644 1.367 . S
C645 C653 1.433 . S
C646 H642 0.929 . S
C646 C648 1.378 . S
C646 C650 1.350 . S
C647 C650 1.463 . S
C647 C652 1.350 . S
C647 N655 1.427 . S
C648 H639 0.930 . S
C648 C646 1.378 . S
C648 C649 1.367 . S
C649 C648 1.367 . S
C649 C651 1.433 . S
C650 C646 1.350 . S
C650 C647 1.463 . S
C650 N654 1.427 . S
C651 H641 0.929 . S
C651 C649 1.433 . S
C651 N654 1.384 . S
C652 H643 0.929 . S
C652 C644 1.378 . S
C652 C647 1.350 . S
C653 H640 0.929 . S
C653 C645 1.433 . S
C653 N655 1.384 . S
N654 C650 1.427 . S
N654 C651 1.384 . S
N655 C647 1.427 . S
N655 C653 1.384 . S
H656 C662 0.930 . S
H657 C666 0.930 . S
H658 C671 0.929 . S
H659 C669 0.929 . S
H660 C664 0.929 1_655 S
H661 C670 0.929 1_455 S
C662 H656 0.930 . S
C662 C663 1.367 . S
C662 C670 1.378 . S
C663 C662 1.367 . S
C663 C671 1.433 . S
C664 H660 0.929 1_455 S
C664 C666 1.378 . S
C664 C668 1.350 . S
C665 C668 1.463 1_665 S
C665 C670 1.350 . S
C665 N673 1.427 . S
C666 H657 0.930 . S
C666 C664 1.378 . S
C666 C667 1.367 . S
C667 C666 1.367 . S
C667 C669 1.433 . S
C668 C664 1.350 . S
C668 C665 1.463 1_445 S
C668 N672 1.427 . S
C669 H659 0.929 . S
C669 C667 1.433 . S
C669 N672 1.384 . S
C670 H661 0.929 1_655 S
C670 C662 1.378 . S
C670 C665 1.350 . S
C671 H658 0.929 . S
C671 C663 1.433 . S
C671 N673 1.384 . S
N672 C668 1.427 . S
N672 C669 1.384 . S
N673 C665 1.427 . S
N673 C671 1.384 . S
H674 C680 0.930 . S
H675 C684 0.930 . S
H676 C689 0.929 . S
H677 C687 0.929 . S
H678 C682 0.929 1_655 S
H679 C688 0.929 1_455 S
C680 H674 0.930 . S
C680 C681 1.367 . S
C680 C688 1.378 . S
C681 C680 1.367 . S
C681 C689 1.433 . S
C682 H678 0.929 1_455 S
C682 C684 1.378 . S
C682 C686 1.350 . S
C683 C686 1.463 1_645 S
C683 C688 1.350 . S
C683 N691 1.427 . S
C684 H675 0.930 . S
C684 C682 1.378 . S
C684 C685 1.367 . S
C685 C684 1.367 . S
C685 C687 1.433 . S
C686 C682 1.350 . S
C686 C683 1.463 1_465 S
C686 N690 1.427 . S
C687 H677 0.929 . S
C687 C685 1.433 . S
C687 N690 1.384 . S
C688 H679 0.929 1_655 S
C688 C680 1.378 . S
C688 C683 1.350 . S
C689 H676 0.929 . S
C689 C681 1.433 . S
C689 N691 1.384 . S
N690 C686 1.427 . S
N690 C687 1.384 . S
N691 C683 1.427 . S
N691 C689 1.384 . S
H692 C698 0.930 . S
H693 C702 0.930 . S
H694 C707 0.929 . S
H695 C705 0.929 . S
H696 C700 0.929 . S
H697 C706 0.929 . S
C698 H692 0.930 . S
C698 C699 1.367 . S
C698 C706 1.378 . S
C699 C698 1.367 . S
C699 C707 1.433 . S
C700 H696 0.929 . S
C700 C702 1.378 . S
C700 C704 1.350 . S
C701 C704 1.463 1_455 S
C701 C706 1.350 . S
C701 N709 1.434 . S
C702 H693 0.930 . S
C702 C700 1.378 . S
C702 C703 1.367 . S
C703 C702 1.367 . S
C703 C705 1.433 . S
C704 C700 1.350 . S
C704 C701 1.463 1_655 S
C704 N708 1.434 . S
C705 H695 0.929 . S
C705 C703 1.433 . S
C705 N708 1.396 . S
C706 H697 0.929 . S
C706 C698 1.378 . S
C706 C701 1.350 . S
C707 H694 0.929 . S
C707 C699 1.433 . S
C707 N709 1.396 . S
N708 C704 1.434 . S
N708 C705 1.396 . S
N709 C701 1.434 . S
N709 C707 1.396 . S
H710 C716 0.930 . S
H711 C720 0.930 . S
H712 C725 0.929 . S
H713 C723 0.929 . S
H714 C718 0.929 . S
H715 C724 0.929 . S
C716 H710 0.930 . S
C716 C717 1.367 . S
C716 C724 1.378 . S
C717 C716 1.367 . S
C717 C725 1.433 . S
C718 H714 0.929 . S
C718 C720 1.378 . S
C718 C722 1.350 . S
C719 C722 1.463 1_565 S
C719 C724 1.350 . S
C719 N727 1.427 . S
C720 H711 0.930 . S
C720 C718 1.378 . S
C720 C721 1.367 . S
C721 C720 1.367 . S
C721 C723 1.433 . S
C722 C718 1.350 . S
C722 C719 1.463 1_545 S
C722 N726 1.427 . S
C723 H713 0.929 . S
C723 C721 1.433 . S
C723 N726 1.384 . S
C724 H715 0.929 . S
C724 C716 1.378 . S
C724 C719 1.350 . S
C725 H712 0.929 . S
C725 C717 1.433 . S
C725 N727 1.384 . S
N726 C722 1.427 . S
N726 C723 1.384 . S
N727 C719 1.427 . S
N727 C725 1.384 . S
H728 C734 0.930 . S
H729 C738 0.930 . S
H730 C743 0.929 . S
H731 C741 0.929 . S
H732 C736 0.929 . S
H733 C742 0.929 . S
C734 H728 0.930 . S
C734 C735 1.367 . S
C734 C742 1.378 . S
C735 C734 1.367 . S
C735 C743 1.433 . S
C736 H732 0.929 . S
C736 C738 1.378 . S
C736 C740 1.350 . S
C737 C740 1.463 . S
C737 C742 1.350 . S
C737 N745 1.427 . S
C738 H729 0.930 . S
C738 C736 1.378 . S
C738 C739 1.367 . S
C739 C738 1.367 . S
C739 C741 1.433 . S
C740 C736 1.350 . S
C740 C737 1.463 . S
C740 N744 1.427 . S
C741 H731 0.929 . S
C741 C739 1.433 . S
C741 N744 1.384 . S
C742 H733 0.929 . S
C742 C734 1.378 . S
C742 C737 1.350 . S
C743 H730 0.929 . S
C743 C735 1.433 . S
C743 N745 1.384 . S
N744 C740 1.427 . S
N744 C741 1.384 . S
N745 C737 1.427 . S
N745 C743 1.384 . S
H746 C752 0.930 . S
H747 C756 0.930 . S
H748 C761 0.929 . S
H749 C759 0.929 . S
H750 C754 0.929 . S
H751 C760 0.929 . S
C752 H746 0.930 . S
C752 C753 1.367 . S
C752 C760 1.378 . S
C753 C752 1.367 . S
C753 C761 1.433 . S
C754 H750 0.929 . S
C754 C756 1.378 . S
C754 C758 1.350 . S
C755 C758 1.463 . S
C755 C760 1.350 . S
C755 N763 1.427 . S
C756 H747 0.930 . S
C756 C754 1.378 . S
C756 C757 1.367 . S
C757 C756 1.367 . S
C757 C759 1.433 . S
C758 C754 1.350 . S
C758 C755 1.463 . S
C758 N762 1.427 . S
C759 H749 0.929 . S
C759 C757 1.433 . S
C759 N762 1.384 . S
C760 H751 0.929 . S
C760 C752 1.378 . S
C760 C755 1.350 . S
C761 H748 0.929 . S
C761 C753 1.433 . S
C761 N763 1.384 . S
N762 C758 1.427 . S
N762 C759 1.384 . S
N763 C755 1.427 . S
N763 C761 1.384 . S
H764 C770 0.930 . S
H765 C774 0.930 . S
H766 C779 0.929 . S
H767 C777 0.929 . S
H768 C772 0.929 . S
H769 C778 0.929 . S
C770 H764 0.930 . S
C770 C771 1.367 . S
C770 C778 1.378 . S
C771 C770 1.367 . S
C771 C779 1.433 . S
C772 H768 0.929 . S
C772 C774 1.378 . S
C772 C776 1.350 . S
C773 C776 1.463 1_545 S
C773 C778 1.350 . S
C773 N781 1.427 . S
C774 H765 0.930 . S
C774 C772 1.378 . S
C774 C775 1.367 . S
C775 C774 1.367 . S
C775 C777 1.433 . S
C776 C772 1.350 . S
C776 C773 1.463 1_565 S
C776 N780 1.427 . S
C777 H767 0.929 . S
C777 C775 1.433 . S
C777 N780 1.384 . S
C778 H769 0.929 . S
C778 C770 1.378 . S
C778 C773 1.350 . S
C779 H766 0.929 . S
C779 C771 1.433 . S
C779 N781 1.384 . S
N780 C776 1.427 . S
N780 C777 1.384 . S
N781 C773 1.427 . S
N781 C779 1.384 . S
H782 C788 0.930 . S
H783 C792 0.930 . S
H784 C797 0.929 . S
H785 C795 0.929 . S
H786 C790 0.929 . S
H787 C796 0.929 . S
C788 H782 0.930 . S
C788 C789 1.367 . S
C788 C796 1.378 . S
C789 C788 1.367 . S
C789 C797 1.433 . S
C790 H786 0.929 . S
C790 C792 1.378 . S
C790 C794 1.350 . S
C791 C794 1.463 1_655 S
C791 C796 1.350 . S
C791 N799 1.427 . S
C792 H783 0.930 . S
C792 C790 1.378 . S
C792 C793 1.367 . S
C793 C792 1.367 . S
C793 C795 1.433 . S
C794 C790 1.350 . S
C794 C791 1.463 1_455 S
C794 N798 1.427 . S
C795 H785 0.929 . S
C795 C793 1.433 . S
C795 N798 1.384 . S
C796 H787 0.929 . S
C796 C788 1.378 . S
C796 C791 1.350 . S
C797 H784 0.929 . S
C797 C789 1.433 . S
C797 N799 1.384 . S
N798 C794 1.427 . S
N798 C795 1.384 . S
N799 C791 1.427 . S
N799 C797 1.384 . S
C231 C9 1.187 . S
C235 C159 1.209 . S
C249 C117 1.227 . S
C253 C14 1.198 . S
C267 C131 1.209 . S
C271 C37 1.176 . S
C285 C145 1.226 . S
C289 C42 1.195 . S
C303 C75 1.209 1_545 S
C307 C65 1.175 . S
C321 C70 1.196 . S
C325 C89 1.223 1_455 S
C339 C93 1.185 . S
C343 C103 1.210 1_565 S
C357 C98 1.208 . S
C361 C61 1.224 1_655 S
C375 C121 1.170 . S
C379 C47 1.213 1_565 S
C393 C5 1.223 1_655 S
C397 C126 1.195 . S
C411 C19 1.209 1_545 S
C415 C149 1.187 . S
C429 C33 1.223 1_455 S
C433 C154 1.195 . S
C447 C187 1.208 . S
C451 C177 1.185 . S
C465 C182 1.201 . S
C469 C201 1.222 . S
C483 C215 1.213 . S
C487 C205 1.172 . S
C501 C173 1.228 . S
C505 C210 1.201 . S
C519 C207 1.553 . S
C523 C11 1.555 . S
C537 C221 1.595 . S
C541 C25 1.594 . S
C555 C179 1.552 . S
C559 C39 1.555 . S
C573 C53 1.596 . S
C577 C193 1.596 . S
C591 C67 1.552 . S
C595 C151 1.551 . S
C609 C165 1.595 . S
C613 C81 1.594 . S
C627 C95 1.554 . S
C631 C123 1.551 . S
C645 C109 1.594 . S
C649 C137 1.595 . S
C663 C28 1.222 . S
C667 C0 1.222 . S
C681 C51 1.256 . S
C685 C23 1.263 . S
C699 C56 1.234 . S
C703 C84 1.235 . S
C717 C79 1.248 . S
C721 C107 1.258 . S
C735 C140 1.226 . S
C739 C112 1.226 . S
C753 C135 1.263 . S
C757 C163 1.258 . S
C771 C196 1.232 . S
C775 C168 1.232 . S
C789 C191 1.250 . S
C793 C219 1.260 . S
