# Generated by pormake.
# Topology wju, (5)-cn, num edge types: 1
# Building blocks:
#     Node 0, Type 0, BuildingBlock: XOMCOT_clean_sbu_1, # of connection points: 5
#     Node 1, Type 0, BuildingBlock: XOMCOT_clean_sbu_1, # of connection points: 5
#     Node 2, Type 0, BuildingBlock: XOMCOT_clean_sbu_1, # of connection points: 5
#     Node 3, Type 0, BuildingBlock: XOMCOT_clean_sbu_1, # of connection points: 5
#     Node 4, Type 0, BuildingBlock: XOMCOT_clean_sbu_1, # of connection points: 5
#     Node 5, Type 0, BuildingBlock: XOMCOT_clean_sbu_1, # of connection points: 5
#     Node 6, Type 0, BuildingBlock: XOMCOT_clean_sbu_1, # of connection points: 5
#     Node 7, Type 0, BuildingBlock: XOMCOT_clean_sbu_1, # of connection points: 5
#     Node 8, Type 0, BuildingBlock: XOMCOT_clean_sbu_1, # of connection points: 5
#     Node 9, Type 0, BuildingBlock: XOMCOT_clean_sbu_1, # of connection points: 5
#     Node 10, Type 0, BuildingBlock: XOMCOT_clean_sbu_1, # of connection points: 5
#     Node 11, Type 0, BuildingBlock: XOMCOT_clean_sbu_1, # of connection points: 5
#     Edge 12, Type (0, 0), BuildingBlock: KIFKEQ_clean_linker_1, # of connection points: 2
#     Edge 13, Type (0, 0), BuildingBlock: KIFKEQ_clean_linker_1, # of connection points: 2
#     Edge 14, Type (0, 0), BuildingBlock: KIFKEQ_clean_linker_1, # of connection points: 2
#     Edge 15, Type (0, 0), BuildingBlock: KIFKEQ_clean_linker_1, # of connection points: 2
#     Edge 16, Type (0, 0), BuildingBlock: KIFKEQ_clean_linker_1, # of connection points: 2
#     Edge 17, Type (0, 0), BuildingBlock: KIFKEQ_clean_linker_1, # of connection points: 2
#     Edge 18, Type (0, 0), BuildingBlock: KIFKEQ_clean_linker_1, # of connection points: 2
#     Edge 19, Type (0, 0), BuildingBlock: KIFKEQ_clean_linker_1, # of connection points: 2
#     Edge 20, Type (0, 0), BuildingBlock: KIFKEQ_clean_linker_1, # of connection points: 2
#     Edge 21, Type (0, 0), BuildingBlock: KIFKEQ_clean_linker_1, # of connection points: 2
#     Edge 22, Type (0, 0), BuildingBlock: KIFKEQ_clean_linker_1, # of connection points: 2
#     Edge 23, Type (0, 0), BuildingBlock: KIFKEQ_clean_linker_1, # of connection points: 2
#     Edge 24, Type (0, 0), BuildingBlock: KIFKEQ_clean_linker_1, # of connection points: 2
#     Edge 25, Type (0, 0), BuildingBlock: KIFKEQ_clean_linker_1, # of connection points: 2
#     Edge 26, Type (0, 0), BuildingBlock: KIFKEQ_clean_linker_1, # of connection points: 2
#     Edge 27, Type (0, 0), BuildingBlock: KIFKEQ_clean_linker_1, # of connection points: 2
#     Edge 28, Type (0, 0), BuildingBlock: KIFKEQ_clean_linker_1, # of connection points: 2
#     Edge 29, Type (0, 0), BuildingBlock: KIFKEQ_clean_linker_1, # of connection points: 2
#     Edge 30, Type (0, 0), BuildingBlock: KIFKEQ_clean_linker_1, # of connection points: 2
#     Edge 31, Type (0, 0), BuildingBlock: KIFKEQ_clean_linker_1, # of connection points: 2
#     Edge 32, Type (0, 0), BuildingBlock: KIFKEQ_clean_linker_1, # of connection points: 2
#     Edge 33, Type (0, 0), BuildingBlock: KIFKEQ_clean_linker_1, # of connection points: 2
#     Edge 34, Type (0, 0), BuildingBlock: KIFKEQ_clean_linker_1, # of connection points: 2
#     Edge 35, Type (0, 0), BuildingBlock: KIFKEQ_clean_linker_1, # of connection points: 2
#     Edge 36, Type (0, 0), BuildingBlock: KIFKEQ_clean_linker_1, # of connection points: 2
#     Edge 37, Type (0, 0), BuildingBlock: KIFKEQ_clean_linker_1, # of connection points: 2
#     Edge 38, Type (0, 0), BuildingBlock: KIFKEQ_clean_linker_1, # of connection points: 2
#     Edge 39, Type (0, 0), BuildingBlock: KIFKEQ_clean_linker_1, # of connection points: 2
#     Edge 40, Type (0, 0), BuildingBlock: KIFKEQ_clean_linker_1, # of connection points: 2
#     Edge 41, Type (0, 0), BuildingBlock: KIFKEQ_clean_linker_1, # of connection points: 2
# Relax obj value: 0.078
# Max RMSD: 0.117
# Mean RMSD: 0.117
data_MOF--net-wju--node1-XOMCOT_clean_sbu_1--edge1-KIFKEQ_clean_linker_1
_symmetry_space_group_name_H-M    P1
_symmetry_Int_Tables_number       1
_symmetry_cell_setting            triclinic
loop_
_symmetry_equiv_pos_as_xyz
'x, y, z'
_cell_length_a     28.159912
_cell_length_b     28.165951
_cell_length_c     103.77459
_cell_angle_alpha  89.985338
_cell_angle_beta   90.165087
_cell_angle_gamma 119.91775
loop_
_atom_site_label
_atom_site_type_symbol
_atom_site_fract_x
_atom_site_fract_y
_atom_site_fract_z
_atom_type_partial_charge
C0 C 0.31805 0.18977 0.12041 0.0
C1 C 0.31204 0.19862 0.13313 0.0
N2 N 0.31839 0.1622 0.14023 0.0
N3 N 0.32888 0.14831 0.11942 0.0
C4 C 0.32779 0.13148 0.1317 0.0
H5 H 0.31708 0.21371 0.11237 0.0
Co6 Co 0.34652 0.12906 0.10353 0.0
C7 C 0.4316 0.10291 0.11484 0.0
O8 O 0.47153 0.15232 0.11226 0.0
N9 N 0.36275 0.10917 0.08727 0.0
C10 C 0.40801 0.09747 0.07117 0.0
C11 C 0.41012 0.11146 0.08387 0.0
C12 C 0.33247 0.09367 0.07626 0.0
N13 N 0.35933 0.08663 0.06627 0.0
O14 O 0.2743 0.06467 0.10344 0.0
H15 H 0.44541 0.12454 0.08994 0.0
H16 H 0.29225 0.08936 0.07544 0.0
O17 O 0.38154 0.08904 0.1121 0.0
C18 C 0.24443 0.08429 0.09944 0.0
O19 O 0.26917 0.13451 0.09488 0.0
N20 N 0.41208 0.19795 0.10319 0.0
C21 C 0.4723 0.31198 0.1039 0.0
C22 C 0.4695 0.28142 0.11477 0.0
C23 C 0.43859 0.22458 0.11428 0.0
C24 C 0.41815 0.22751 0.09226 0.0
C25 C 0.44871 0.28449 0.09236 0.0
H26 H 0.43221 0.20236 0.12318 0.0
H27 H 0.39429 0.20787 0.08375 0.0
H28 H 0.3363 0.09932 0.13438 0.0
H29 H 0.30422 0.2299 0.13691 0.0
H30 H 0.44034 0.09572 0.06597 0.0
H31 H 0.48733 0.3013 0.12387 0.0
H32 H 0.44892 0.30672 0.08382 0.0
C33 C 0.12477 0.28568 0.45139 0.0
C34 C 0.11082 0.28022 0.46416 0.0
N35 N 0.15597 0.29367 0.47121 0.0
N36 N 0.17862 0.30277 0.45028 0.0
C37 C 0.19666 0.3067 0.46257 0.0
H38 H 0.09775 0.27982 0.44338 0.0
Co39 Co 0.21193 0.32192 0.43407 0.0
C40 C 0.3271 0.40734 0.44032 0.0
O41 O 0.31806 0.44191 0.43383 0.0
N42 N 0.24443 0.34033 0.4171 0.0
C43 C 0.28267 0.38398 0.3987 0.0
C44 C 0.26479 0.38848 0.41065 0.0
C45 C 0.25032 0.30709 0.40854 0.0
N46 N 0.27329 0.33268 0.39734 0.0
O47 O 0.20389 0.24961 0.43305 0.0
H48 H 0.2656 0.42502 0.41409 0.0
H49 H 0.23801 0.26473 0.41034 0.0
O50 O 0.28849 0.35715 0.44167 0.0
C51 C 0.15614 0.2218 0.42792 0.0
O52 O 0.13355 0.24914 0.42316 0.0
N53 N 0.20766 0.38602 0.43509 0.0
C54 C 0.15728 0.44806 0.43932 0.0
C55 C 0.19598 0.44992 0.44813 0.0
C56 C 0.2206 0.41819 0.44587 0.0
C57 C 0.17087 0.3849 0.42637 0.0
C58 C 0.14631 0.41656 0.42812 0.0
H59 H 0.24624 0.41583 0.45332 0.0
H60 H 0.15718 0.35592 0.41848 0.0
H61 H 0.23906 0.32166 0.46516 0.0
H62 H 0.07066 0.26821 0.46799 0.0
H63 H 0.29932 0.41543 0.39136 0.0
H64 H 0.20461 0.47302 0.45701 0.0
H65 H 0.11525 0.41248 0.42131 0.0
C66 C 0.82174 0.13891 0.7862 0.0
C67 C 0.81244 0.1201 0.79866 0.0
N68 N 0.85768 0.15196 0.80567 0.0
N69 N 0.87227 0.18331 0.78529 0.0
C70 C 0.89382 0.18909 0.79726 0.0
H71 H 0.79322 0.12126 0.77826 0.0
Co72 Co 0.90319 0.22027 0.76967 0.0
C73 C 0.939 0.32141 0.78787 0.0
O74 O 0.90907 0.29484 0.79787 0.0
N75 N 0.93347 0.25607 0.75394 0.0
C76 C 0.9495 0.31332 0.73765 0.0
C77 C 0.93468 0.30274 0.75033 0.0
C78 C 0.94805 0.23903 0.7432 0.0
N79 N 0.95766 0.27323 0.73314 0.0
O80 O 0.96469 0.20867 0.77258 0.0
H81 H 0.92098 0.32525 0.75619 0.0
H82 H 0.94728 0.20033 0.74246 0.0
O83 O 0.9389 0.29483 0.77781 0.0
C84 C 0.94428 0.15843 0.76912 0.0
O85 O 0.89514 0.13388 0.76389 0.0
N86 N 0.83896 0.22256 0.76605 0.0
C87 C 0.72632 0.17557 0.76319 0.0
C88 C 0.75354 0.21198 0.7734 0.0
C89 C 0.81049 0.23567 0.7746 0.0
C90 C 0.81371 0.19263 0.7553 0.0
C91 C 0.75771 0.16997 0.75352 0.0
H92 H 0.82972 0.2581 0.78325 0.0
H93 H 0.83566 0.18071 0.74875 0.0
H94 H 0.93538 0.21973 0.79973 0.0
H95 H 0.77476 0.08632 0.80234 0.0
H96 H 0.95112 0.34629 0.73194 0.0
H97 H 0.73079 0.21752 0.78108 0.0
H98 H 0.73847 0.1434 0.7453 0.0
C99 C 0.78459 0.85683 0.12056 0.0
C100 C 0.78411 0.8463 0.13349 0.0
N101 N 0.75241 0.86271 0.13949 0.0
N102 N 0.75336 0.87984 0.1183 0.0
C103 C 0.73455 0.88343 0.13007 0.0
H104 H 0.80462 0.84621 0.11316 0.0
Co105 Co 0.73695 0.89014 0.10141 0.0
C106 C 0.64988 0.91919 0.10331 0.0
O107 O 0.62543 0.88306 0.09412 0.0
N108 N 0.72129 0.90005 0.08369 0.0
C109 C 0.68483 0.88595 0.0639 0.0
C110 C 0.68295 0.86255 0.07558 0.0
C111 C 0.74652 0.94618 0.07634 0.0
N112 N 0.72487 0.93835 0.06435 0.0
O113 O 0.80765 0.95622 0.1006 0.0
H114 H 0.65288 0.82098 0.07791 0.0
H115 H 0.77957 0.98505 0.07973 0.0
O116 O 0.69687 0.92856 0.10755 0.0
C117 C 0.83839 0.94155 0.09477 0.0
O118 O 0.81487 0.89306 0.08926 0.0
N119 N 0.67469 0.82119 0.1024 0.0
C120 C 0.60103 0.70996 0.10428 0.0
C121 C 0.59317 0.74723 0.11159 0.0
C122 C 0.6312 0.80319 0.11064 0.0
C123 C 0.68459 0.7847 0.09608 0.0
C124 C 0.64743 0.72912 0.09652 0.0
H125 H 0.62683 0.83134 0.1169 0.0
H126 H 0.7217 0.79919 0.09053 0.0
H127 H 0.70592 0.89792 0.13162 0.0
H128 H 0.80472 0.82706 0.1381 0.0
H129 H 0.65869 0.86599 0.05566 0.0
H130 H 0.55894 0.73313 0.11816 0.0
H131 H 0.65603 0.70109 0.09123 0.0
C132 C 0.92733 0.7579 0.45474 0.0
C133 C 0.93529 0.75965 0.46781 0.0
N134 N 0.88611 0.731 0.47352 0.0
N135 N 0.87331 0.72852 0.45208 0.0
C136 C 0.84895 0.71293 0.46378 0.0
H137 H 0.95934 0.77479 0.44758 0.0
Co138 Co 0.84935 0.70913 0.43503 0.0
C139 C 0.73157 0.62592 0.43654 0.0
O140 O 0.74331 0.59732 0.42853 0.0
N141 N 0.82724 0.69048 0.41714 0.0
C142 C 0.81093 0.6514 0.39767 0.0
C143 C 0.82415 0.64822 0.4102 0.0
C144 C 0.81515 0.71865 0.40829 0.0
N145 N 0.80578 0.69606 0.39634 0.0
O146 O 0.85792 0.7814 0.43265 0.0
H147 H 0.82927 0.61526 0.41387 0.0
H148 H 0.81446 0.75583 0.41046 0.0
O149 O 0.76977 0.67348 0.44029 0.0
C150 C 0.90663 0.80887 0.42808 0.0
O151 O 0.93006 0.78125 0.42408 0.0
N152 N 0.85251 0.64524 0.43771 0.0
C153 C 0.88829 0.57189 0.44326 0.0
C154 C 0.84244 0.56745 0.44958 0.0
C155 C 0.82535 0.60527 0.44675 0.0
C156 C 0.89884 0.65123 0.43211 0.0
C157 C 0.91648 0.61413 0.43443 0.0
H158 H 0.79238 0.604 0.4523 0.0
H159 H 0.92258 0.6856 0.42581 0.0
H160 H 0.80538 0.68606 0.46509 0.0
H161 H 0.97451 0.77939 0.47271 0.0
H162 H 0.80468 0.62216 0.39017 0.0
H163 H 0.82127 0.53632 0.45684 0.0
H164 H 0.95326 0.61967 0.42974 0.0
C165 C 0.19829 0.93141 0.78657 0.0
C166 C 0.2081 0.94437 0.79942 0.0
N167 N 0.17517 0.89935 0.80634 0.0
N168 N 0.15955 0.87827 0.7853 0.0
C169 C 0.14546 0.85992 0.79754 0.0
H170 H 0.21963 0.95846 0.77861 0.0
Co171 Co 0.13957 0.84308 0.76919 0.0
C172 C 0.1139 0.73118 0.78001 0.0
O173 O 0.16358 0.74078 0.7777 0.0
N174 N 0.11857 0.80775 0.75273 0.0
C175 C 0.11114 0.75362 0.73626 0.0
C176 C 0.12422 0.76479 0.74904 0.0
C177 C 0.10125 0.82153 0.74184 0.0
N178 N 0.09702 0.78948 0.73167 0.0
O179 O 0.07503 0.85078 0.76968 0.0
H180 H 0.13996 0.7444 0.75496 0.0
H181 H 0.09431 0.85587 0.74114 0.0
O182 O 0.10021 0.76751 0.77734 0.0
C183 C 0.09291 0.89886 0.76496 0.0
O184 O 0.14243 0.92367 0.75999 0.0
N185 N 0.20908 0.84732 0.7682 0.0
C186 C 0.3234 0.89907 0.76737 0.0
C187 C 0.29514 0.87261 0.77859 0.0
C188 C 0.23809 0.84744 0.77885 0.0
C189 C 0.23648 0.8712 0.75707 0.0
C190 C 0.29327 0.89619 0.75638 0.0
H191 H 0.21782 0.83175 0.78796 0.0
H192 H 0.21539 0.87636 0.74897 0.0
H193 H 0.11613 0.81793 0.79996 0.0
H194 H 0.23767 0.98385 0.80336 0.0
H195 H 0.11295 0.72206 0.7307 0.0
H196 H 0.31706 0.87422 0.78732 0.0
H197 H 0.31358 0.91755 0.74762 0.0
C198 C 0.80519 0.70166 0.58771 0.0
C199 C 0.79891 0.69943 0.57461 0.0
N200 N 0.83926 0.69361 0.56933 0.0
N201 N 0.84908 0.69681 0.59086 0.0
C202 C 0.86966 0.69257 0.57938 0.0
H203 H 0.77882 0.706 0.59458 0.0
Co204 Co 0.86612 0.69493 0.60828 0.0
C205 C 0.9113 0.62024 0.61025 0.0
O206 O 0.87971 0.60068 0.62038 0.0
N207 N 0.88234 0.69485 0.62644 0.0
C208 C 0.87617 0.67515 0.64749 0.0
C209 C 0.84949 0.66106 0.63589 0.0
C210 C 0.92926 0.72968 0.63288 0.0
N211 N 0.92604 0.71836 0.64562 0.0
O212 O 0.92641 0.76932 0.60673 0.0
H213 H 0.80944 0.62579 0.63466 0.0
H214 H 0.96548 0.7621 0.62833 0.0
O215 O 0.9117 0.65983 0.60391 0.0
C216 C 0.90289 0.79756 0.60884 0.0
O217 O 0.85137 0.77134 0.61247 0.0
N218 N 0.80191 0.62705 0.60937 0.0
C219 C 0.69352 0.54367 0.60765 0.0
C220 C 0.73454 0.53911 0.60111 0.0
C221 C 0.78893 0.58176 0.60204 0.0
C222 C 0.76169 0.63261 0.6152 0.0
C223 C 0.70765 0.59075 0.61486 0.0
H224 H 0.81951 0.58001 0.59613 0.0
H225 H 0.77171 0.67068 0.61995 0.0
H226 H 0.90526 0.6877 0.57842 0.0
H227 H 0.76733 0.7025 0.56933 0.0
H228 H 0.86061 0.65448 0.6566 0.0
H229 H 0.72431 0.5042 0.59497 0.0
H230 H 0.67659 0.59664 0.61953 0.0
C231 C 0.11444 0.86678 0.92187 0.0
C232 C 0.10611 0.86693 0.9089 0.0
N233 N 0.1549 0.88832 0.90291 0.0
N234 N 0.16825 0.88804 0.92429 0.0
C235 C 0.19223 0.90061 0.91251 0.0
H236 H 0.08285 0.8507 0.92914 0.0
Co237 Co 0.18953 0.88899 0.94133 0.0
C238 C 0.30786 0.92588 0.94216 0.0
O239 O 0.29357 0.88561 0.95037 0.0
N240 N 0.20808 0.88893 0.95924 0.0
C241 C 0.21972 0.86457 0.97897 0.0
C242 C 0.20166 0.84655 0.9667 0.0
C243 C 0.22955 0.93227 0.96748 0.0
N244 N 0.23689 0.9183 0.97948 0.0
O245 O 0.18112 0.95234 0.94423 0.0
H246 H 0.18652 0.80498 0.9636 0.0
H247 H 0.24031 0.9735 0.96474 0.0
O248 O 0.27041 0.93348 0.93698 0.0
C249 C 0.13458 0.93388 0.94979 0.0
O250 O 0.10929 0.88279 0.95376 0.0
N251 N 0.18715 0.82281 0.93813 0.0
C252 C 0.15705 0.71486 0.933 0.0
C253 C 0.20557 0.75736 0.92783 0.0
C254 C 0.21958 0.81174 0.93034 0.0
C255 C 0.13786 0.78158 0.94224 0.0
C256 C 0.12269 0.72733 0.94011 0.0
H257 H 0.25515 0.84437 0.92569 0.0
H258 H 0.11047 0.79119 0.94742 0.0
H259 H 0.23577 0.91776 0.91101 0.0
H260 H 0.06662 0.85062 0.90422 0.0
H261 H 0.21994 0.84 0.98697 0.0
H262 H 0.23165 0.74861 0.92182 0.0
H263 H 0.08394 0.69523 0.94382 0.0
C264 C 0.21449 0.10493 0.25357 0.0
C265 C 0.20953 0.10057 0.24046 0.0
N266 N 0.25389 0.14337 0.23516 0.0
N267 N 0.26148 0.15055 0.25676 0.0
C268 C 0.28485 0.17331 0.24532 0.0
H269 H 0.18721 0.07439 0.26033 0.0
Co270 Co 0.28716 0.16266 0.2737 0.0
C271 C 0.37547 0.27929 0.27637 0.0
O272 O 0.39976 0.26033 0.28389 0.0
N273 N 0.31125 0.17201 0.29118 0.0
C274 C 0.34717 0.1671 0.30996 0.0
C275 C 0.34124 0.15297 0.29715 0.0
C276 C 0.2989 0.19693 0.30072 0.0
N277 N 0.32027 0.19448 0.31221 0.0
O278 O 0.21989 0.16036 0.27898 0.0
H279 H 0.35791 0.12999 0.29264 0.0
H280 H 0.27475 0.21667 0.29926 0.0
O281 O 0.32916 0.24518 0.2711 0.0
C282 C 0.18931 0.11366 0.28431 0.0
O283 O 0.21118 0.08317 0.28711 0.0
N284 N 0.34539 0.15414 0.2682 0.0
C285 C 0.40786 0.1111 0.25852 0.0
C286 C 0.42666 0.16738 0.25753 0.0
C287 C 0.39376 0.18809 0.26213 0.0
C288 C 0.32653 0.09934 0.26889 0.0
C289 C 0.3571 0.077 0.2642 0.0
H290 H 0.40649 0.23043 0.26032 0.0
H291 H 0.28688 0.07269 0.27312 0.0
H292 H 0.32485 0.20946 0.24449 0.0
H293 H 0.17734 0.06616 0.23529 0.0
H294 H 0.36842 0.15674 0.31716 0.0
H295 H 0.46541 0.19456 0.25294 0.0
H296 H 0.34136 0.03334 0.26514 0.0
C297 C 0.16113 0.26507 0.58791 0.0
C298 C 0.17071 0.25929 0.57522 0.0
N299 N 0.14276 0.27649 0.56787 0.0
N300 N 0.1275 0.28618 0.58866 0.0
C301 C 0.11603 0.29177 0.57625 0.0
H302 H 0.17979 0.257 0.59612 0.0
Co303 Co 0.11177 0.30739 0.60452 0.0
C304 C 0.09333 0.39738 0.593 0.0
O305 O 0.14551 0.43365 0.59384 0.0
N306 N 0.09476 0.32771 0.62067 0.0
C307 C 0.08961 0.37918 0.6363 0.0
C308 C 0.10628 0.37886 0.62392 0.0
C309 C 0.07107 0.29769 0.63142 0.0
N310 N 0.06743 0.32809 0.64105 0.0
O311 O 0.04412 0.23813 0.60477 0.0
H312 H 0.1275 0.41456 0.6179 0.0
H313 H 0.05656 0.25438 0.63226 0.0
O314 O 0.07623 0.34711 0.59618 0.0
C315 C 0.05975 0.20716 0.61016 0.0
O316 O 0.10928 0.23061 0.61519 0.0
N317 N 0.18408 0.36889 0.60489 0.0
C318 C 0.29782 0.41428 0.60484 0.0
C319 C 0.27044 0.41622 0.59375 0.0
C320 C 0.21357 0.39292 0.59395 0.0
C321 C 0.2113 0.37092 0.616 0.0
C322 C 0.26799 0.3943 0.61623 0.0
H323 H 0.19318 0.38934 0.58488 0.0
H324 H 0.18922 0.34874 0.62446 0.0
H325 H 0.09173 0.31007 0.57342 0.0
H326 H 0.19739 0.24487 0.57166 0.0
H327 H 0.09505 0.4148 0.64153 0.0
H328 H 0.29185 0.43074 0.58469 0.0
H329 H 0.28771 0.3925 0.62505 0.0
C330 C 0.91347 0.16424 0.92222 0.0
C331 C 0.92708 0.16701 0.90949 0.0
N332 N 0.88065 0.14238 0.90241 0.0
N333 N 0.85857 0.13737 0.92342 0.0
C334 C 0.83946 0.12381 0.91118 0.0
H335 H 0.94211 0.18255 0.9301 0.0
Co336 Co 0.82585 0.13019 0.93962 0.0
C337 C 0.71592 0.11216 0.92922 0.0
O338 O 0.73247 0.16449 0.93018 0.0
N339 N 0.79343 0.12208 0.95632 0.0
C340 C 0.74433 0.12673 0.9726 0.0
C341 C 0.75619 0.13668 0.95973 0.0
C342 C 0.80346 0.1034 0.9675 0.0
N343 N 0.7743 0.10594 0.97757 0.0
O344 O 0.82414 0.06117 0.94151 0.0
H345 H 0.73971 0.15535 0.95346 0.0
H346 H 0.83256 0.08935 0.9684 0.0
O347 O 0.74883 0.09425 0.93211 0.0
C348 C 0.87118 0.07588 0.94653 0.0
O349 O 0.90142 0.12695 0.95035 0.0
N350 N 0.83935 0.20301 0.93815 0.0
C351 C 0.90134 0.31676 0.93539 0.0
C352 C 0.86998 0.28379 0.9251 0.0
C353 C 0.84004 0.22705 0.92661 0.0
C354 C 0.86838 0.23514 0.94835 0.0
C355 C 0.89879 0.29189 0.94725 0.0
H356 H 0.81988 0.20247 0.91823 0.0
H357 H 0.8727 0.21692 0.95711 0.0
H358 H 0.79638 0.1036 0.90874 0.0
H359 H 0.96846 0.18685 0.90582 0.0
H360 H 0.7157 0.13446 0.97782 0.0
H361 H 0.87078 0.30136 0.91577 0.0
H362 H 0.92374 0.31554 0.95534 0.0
C363 C 0.71238 0.88562 0.25413 0.0
C364 C 0.71669 0.89393 0.24109 0.0
N365 N 0.70394 0.84635 0.2353 0.0
N366 N 0.6965 0.83281 0.25671 0.0
C367 C 0.69222 0.80971 0.24497 0.0
H368 H 0.7181 0.91584 0.26131 0.0
Co369 Co 0.67896 0.80767 0.27381 0.0
C370 C 0.59125 0.69064 0.27055 0.0
O371 O 0.55896 0.70383 0.27672 0.0
N372 N 0.66234 0.78426 0.29161 0.0
C373 C 0.62167 0.75992 0.31083 0.0
C374 C 0.61576 0.77015 0.29821 0.0
C375 C 0.69602 0.78213 0.30075 0.0
N376 N 0.67252 0.76794 0.31258 0.0
O377 O 0.75095 0.81491 0.27541 0.0
H378 H 0.57934 0.7685 0.29436 0.0
H379 H 0.73765 0.79216 0.29886 0.0
O380 O 0.64139 0.7277 0.26832 0.0
C381 C 0.77902 0.86536 0.27887 0.0
O382 O 0.75211 0.89038 0.28225 0.0
N383 N 0.61565 0.81315 0.272 0.0
C384 C 0.56159 0.86848 0.26446 0.0
C385 C 0.55345 0.82212 0.25763 0.0
C386 C 0.58176 0.79533 0.26145 0.0
C387 C 0.621 0.85628 0.2791 0.0
C388 C 0.59383 0.88404 0.2756 0.0
H389 H 0.58098 0.76434 0.25517 0.0
H390 H 0.65073 0.87273 0.28683 0.0
H391 H 0.67813 0.76666 0.24349 0.0
H392 H 0.72742 0.93191 0.23619 0.0
H393 H 0.59041 0.74792 0.31812 0.0
H394 H 0.52952 0.80983 0.24882 0.0
H395 H 0.60115 0.91993 0.28104 0.0
H396 H 0.2544 0.03145 0.05708 0.0
H397 H 0.42373 0.10845 0.04519 0.0
H398 H 0.22564 0.99865 0.03497 0.0
H399 H 0.39492 0.07429 0.02343 0.0
H400 H 0.31574 0.92456 0.99505 0.0
H401 H 0.34542 0.97287 1.01565 0.0
H402 H 0.23352 0.03428 1.01045 0.0
H403 H 0.20469 0.98634 0.98953 0.0
C404 C 0.28546 0.04202 0.04979 0.0
C405 C 0.34146 0.07164 0.05306 0.0
C406 C 0.26895 0.02327 0.03712 0.0
C407 C 0.30814 0.03346 0.02754 0.0
C408 C 0.36387 0.06515 0.03067 0.0
C409 C 0.3803 0.08431 0.04321 0.0
C410 C 0.29827 0.94916 0.99824 0.0
C411 C 0.25837 0.95221 0.99074 0.0
C412 C 0.31515 0.97677 1.00999 0.0
C413 C 0.29167 1.00721 1.01465 0.0
C414 C 0.25211 0.01093 1.00708 0.0
C415 C 0.23605 0.98411 0.99512 0.0
H416 H 0.2068 0.23211 0.38723 0.0
H417 H 0.35905 0.38233 0.38119 0.0
H418 H 0.21797 0.1973 0.36642 0.0
H419 H 0.37059 0.34762 0.36052 0.0
H420 H 0.39589 0.23809 0.33116 0.0
H421 H 0.38492 0.26931 0.35236 0.0
H422 H 0.21935 0.2266 0.34241 0.0
H423 H 0.23057 0.19561 0.32112 0.0
C424 C 0.243 0.25722 0.38154 0.0
C425 C 0.28211 0.30984 0.38579 0.0
C426 C 0.24912 0.23762 0.3696 0.0
C427 C 0.29503 0.2699 0.36185 0.0
C428 C 0.33492 0.32179 0.36631 0.0
C429 C 0.32827 0.34171 0.3781 0.0
C430 C 0.35719 0.23536 0.33352 0.0
C431 C 0.31413 0.21457 0.3245 0.0
C432 C 0.35098 0.25339 0.34561 0.0
C433 C 0.30122 0.25014 0.34904 0.0
C434 C 0.25799 0.22911 0.34005 0.0
C435 C 0.26456 0.21196 0.32784 0.0
H436 H 0.03526 0.25477 0.72282 0.0
H437 H 0.89739 0.27495 0.71336 0.0
H438 H 0.05794 0.25971 0.69978 0.0
H439 H 0.91832 0.27819 0.6905 0.0
H440 H 0.02081 0.37198 0.65595 0.0
H441 H 0.99031 0.34898 0.67804 0.0
H442 H 0.03268 0.22119 0.6776 0.0
H443 H 0.06523 0.24581 0.65535 0.0
C444 C 1.00906 0.25869 0.71576 0.0
C445 C 0.96514 0.26525 0.71978 0.0
C446 C 0.02187 0.2615 0.7026 0.0
C447 C 0.9906 0.27053 0.6933 0.0
C448 C 0.94419 0.27276 0.69739 0.0
C449 C 0.93192 0.27057 0.71046 0.0
C450 C 0.02384 0.33906 0.66053 0.0
C451 C 0.04579 0.31102 0.65388 0.0
C452 C 1.00565 0.32532 0.67318 0.0
C453 C 1.00861 0.28289 0.67961 0.0
C454 C 0.03001 0.25421 0.67295 0.0
C455 C 0.04815 0.26794 0.66017 0.0
H456 H 0.73865 0.13639 0.99873 0.0
H457 H 0.81215 0.04022 0.987 0.0
H458 H 0.73352 0.10508 1.02075 0.0
H459 H 0.80815 0.01024 1.00922 0.0
H460 H 0.82408 0.99491 0.05303 0.0
H461 H 0.84342 0.04351 0.03226 0.0
H462 H 0.67693 0.01222 0.03092 0.0
H463 H 0.65809 0.96347 0.05143 0.0
C464 C 0.75377 0.10864 1.00075 0.0
C465 C 0.77504 0.09035 0.99087 0.0
C466 C 0.75114 0.091 1.01346 0.0
C467 C 0.77028 0.0551 1.01673 0.0
C468 C 0.7936 0.03843 1.00703 0.0
C469 C 0.79576 0.05563 0.99425 0.0
C470 C 0.79241 1.0 0.0484 0.0
C471 C 0.73982 0.97612 0.05379 0.0
C472 C 0.80313 0.02711 0.03649 0.0
C473 C 0.76162 0.03154 0.02994 0.0
C474 C 0.70992 0.01002 0.03576 0.0
C475 C 0.69907 0.98221 0.04748 0.0
H476 H 0.77005 0.77024 0.31636 0.0
H477 H 0.63054 0.75754 0.33684 0.0
H478 H 0.80853 0.76216 0.33665 0.0
H479 H 0.66734 0.74616 0.35683 0.0
H480 H 0.76004 0.76105 0.3934 0.0
H481 H 0.73397 0.78638 0.37316 0.0
H482 H 0.79536 0.69604 0.35203 0.0
H483 H 0.82419 0.67398 0.37201 0.0
C484 C 0.74729 0.7657 0.32508 0.0
C485 C 0.69648 0.76404 0.32469 0.0
C486 C 0.7693 0.76053 0.33679 0.0
C487 C 0.74103 0.75309 0.34848 0.0
C488 C 0.69088 0.75251 0.34812 0.0
C489 C 0.66916 0.75817 0.33647 0.0
C490 C 0.76878 0.74744 0.38442 0.0
C491 C 0.79345 0.71463 0.38443 0.0
C492 C 0.75326 0.76142 0.37278 0.0
C493 C 0.76191 0.74284 0.36086 0.0
C494 C 0.78831 0.71168 0.36092 0.0
C495 C 0.80408 0.69812 0.37248 0.0
H496 H 0.1409 0.77128 0.71049 0.0
H497 H 0.02284 0.81668 0.72281 0.0
H498 H 0.11095 0.76604 0.68826 0.0
H499 H 0.99165 0.81043 0.70045 0.0
H500 H 0.95888 0.8146 0.65768 0.0
H501 H 1.00989 0.84359 0.67816 0.0
H502 H 0.03029 0.70137 0.67694 0.0
H503 H 0.98022 0.67377 0.65658 0.0
C504 C 0.10851 0.78027 0.70841 0.0
C505 C 0.08349 0.79338 0.71843 0.0
C506 C 0.0913 0.77728 0.69566 0.0
C507 C 0.04821 0.78689 0.69253 0.0
C508 C 0.02519 0.80308 0.70246 0.0
C509 C 0.04284 0.80651 0.71528 0.0
C510 C 0.97634 0.79109 0.66164 0.0
C511 C 0.96696 0.74273 0.65552 0.0
C512 C 1.00469 0.80702 0.67343 0.0
C513 C 0.02416 0.77478 0.67927 0.0
C514 C 0.01687 0.72784 0.6727 0.0
C515 C 0.98839 0.71195 0.66101 0.0
H516 H 0.684 0.0245 0.11191 0.0
H517 H 0.54143 0.86409 0.10802 0.0
H518 H 0.62453 0.06203 0.11752 0.0
H519 H 0.4824 0.90062 0.11387 0.0
H520 H 0.39783 1.00257 0.10382 0.0
H521 H 0.45024 0.95475 0.10361 0.0
H522 H 0.56147 0.06793 0.13204 0.0
H523 H 0.50954 0.11602 0.13198 0.0
C524 C 0.64022 0.99707 0.11263 0.0
C525 C 0.61745 0.94153 0.10942 0.0
C526 C 0.6059 0.01842 0.11582 0.0
C527 C 0.5482 0.98452 0.11596 0.0
C528 C 0.52623 0.92834 0.11356 0.0
C529 C 0.56026 0.90731 0.1103 0.0
C530 C 0.43195 0.01558 0.11044 0.0
C531 C 0.44916 0.06266 0.11801 0.0
C532 C 0.46258 0.98858 0.11025 0.0
C533 C 0.51102 1.00799 0.11765 0.0
C534 C 0.52537 0.05247 0.12599 0.0
C535 C 0.49496 0.07945 0.12613 0.0
H536 H 0.39867 0.36952 0.43613 0.0
H537 H 0.38443 0.49879 0.45457 0.0
H538 H 0.49848 0.42397 0.43801 0.0
H539 H 0.48375 0.55283 0.45684 0.0
H540 H 0.65758 0.66272 0.43901 0.0
H541 H 0.55899 0.60566 0.44301 0.0
H542 H 0.58046 0.46634 0.45016 0.0
H543 H 0.67793 0.52296 0.44578 0.0
C544 C 0.41677 0.4084 0.44116 0.0
C545 C 0.38364 0.42946 0.44536 0.0
C546 C 0.47422 0.44013 0.44215 0.0
C547 C 0.49985 0.49365 0.44741 0.0
C548 C 0.46606 0.51263 0.45247 0.0
C549 C 0.40892 0.48115 0.45139 0.0
C550 C 0.6413 0.62037 0.44182 0.0
C551 C 0.67551 0.59742 0.4421 0.0
C552 C 0.58463 0.58733 0.44408 0.0
C553 C 0.56103 0.53069 0.44673 0.0
C554 C 0.59637 0.50912 0.44784 0.0
C555 C 0.65254 0.54186 0.44548 0.0
H556 H 0.0335 0.65586 0.76448 0.0
H557 H 0.10867 0.67569 0.80177 0.0
H558 H 0.98947 0.55592 0.76665 0.0
H559 H 0.06411 0.57611 0.80411 0.0
H560 H 0.93997 0.38958 0.8069 0.0
H561 H 0.97366 0.48786 0.8058 0.0
H562 H 0.02852 0.49109 0.76689 0.0
H563 H 0.99634 0.393 0.76807 0.0
C564 C 0.0385 0.63878 0.77339 0.0
C565 C 0.07322 0.67359 0.78312 0.0
C566 C 0.01421 0.58156 0.77454 0.0
C567 C 0.02363 0.55783 0.78551 0.0
C568 C 0.05561 0.59276 0.79558 0.0
C569 C 0.08068 0.64988 0.79431 0.0
C570 C 0.95958 0.41109 0.79811 0.0
C571 C 0.96456 0.38259 0.7875 0.0
C572 C 0.97879 0.46762 0.79749 0.0
C573 C 1.00299 0.4974 0.78618 0.0
C574 C 1.00894 0.46927 0.77565 0.0
C575 C 0.99055 0.41285 0.77635 0.0
H576 H 0.1113 0.48727 0.5794 0.0
H577 H 0.99216 0.36109 0.60409 0.0
H578 H 0.06531 0.54051 0.58201 0.0
H579 H 0.94514 0.41392 0.60652 0.0
H580 H 0.93524 0.55563 0.62492 0.0
H581 H 0.97043 0.49664 0.61846 0.0
H582 H 0.98673 0.55497 0.57935 0.0
H583 H 0.95085 0.6152 0.58594 0.0
C584 C 0.07407 0.46997 0.58505 0.0
C585 C 0.05555 0.41985 0.59157 0.0
C586 C 0.04764 0.50067 0.58655 0.0
C587 C 1.00204 0.48234 0.59469 0.0
C588 C 0.98088 0.43003 0.60038 0.0
C589 C 1.00726 0.39913 0.59883 0.0
C590 C 0.94629 0.55627 0.6149 0.0
C591 C 0.9399 0.59032 0.60595 0.0
C592 C 0.96601 0.52166 0.61116 0.0
C593 C 0.98032 0.51966 0.59831 0.0
C594 C 0.97584 0.5551 0.58934 0.0
C595 C 0.95568 0.58997 0.59311 0.0
H596 H 0.64656 0.13374 0.91556 0.0
H597 H 0.64869 0.0093 0.93937 0.0
H598 H 0.54727 0.08849 0.91733 0.0
H599 H 0.5486 0.96276 0.94089 0.0
H600 H 0.39238 0.94628 0.95778 0.0
H601 H 0.48816 0.98384 0.9525 0.0
H602 H 0.45536 0.01291 0.91348 0.0
H603 H 0.3579 0.97507 0.91894 0.0
C604 C 0.62556 0.0956 0.92086 0.0
C605 C 0.65579 0.07534 0.92738 0.0
C606 C 0.56836 0.06955 0.92186 0.0
C607 C 0.53951 0.02245 0.92948 0.0
C608 C 0.5694 0.99972 0.93518 0.0
C609 C 0.62684 0.02582 0.93414 0.0
C610 C 0.40541 0.96099 0.94806 0.0
C611 C 0.36721 0.95758 0.93879 0.0
C612 C 0.46054 0.98194 0.94498 0.0
C613 C 0.47984 1.00028 0.93246 0.0
C614 C 0.44211 0.99897 0.92323 0.0
C615 C 0.3863 0.97777 0.92635 0.0
H616 H 0.35819 0.33862 0.25715 0.0
H617 H 0.46412 0.35728 0.28924 0.0
H618 H 0.41487 0.43721 0.25263 0.0
H619 H 0.51933 0.45403 0.2849 0.0
H620 H 0.63613 0.6228 0.27174 0.0
H621 H 0.58508 0.52223 0.27097 0.0
H622 H 0.43756 0.52538 0.26109 0.0
H623 H 0.48869 0.62489 0.26157 0.0
C624 C 0.39315 0.36355 0.26327 0.0
C625 C 0.40627 0.33952 0.27355 0.0
C626 C 0.4259 0.42015 0.26067 0.0
C627 C 0.47263 0.45405 0.26827 0.0
C628 C 0.48501 0.42965 0.27856 0.0
C629 C 0.45258 0.3737 0.28114 0.0
C630 C 0.59334 0.60193 0.26894 0.0
C631 C 0.56659 0.63195 0.26674 0.0
C632 C 0.56363 0.54415 0.2687 0.0
C633 C 0.50653 0.51507 0.26622 0.0
C634 C 0.48116 0.54563 0.26301 0.0
C635 C 0.51065 0.60301 0.26331 0.0
H636 H 0.18313 0.09843 0.2151 0.0
H637 H 0.35488 0.20326 0.22407 0.0
H638 H 0.20528 0.10117 0.19246 0.0
H639 H 0.37647 0.20776 0.2011 0.0
H640 H 0.36274 0.24747 0.15672 0.0
H641 H 0.35201 0.24411 0.18016 0.0
H642 H 0.25998 0.06749 0.17849 0.0
H643 H 0.2714 0.07107 0.15498 0.0
C644 C 0.2257 0.12188 0.21232 0.0
C645 C 0.26722 0.1499 0.22158 0.0
C646 C 0.23829 0.1234 0.19928 0.0
C647 C 0.29262 0.15388 0.19506 0.0
C648 C 0.33419 0.18368 0.20414 0.0
C649 C 0.3217 0.18141 0.21729 0.0
C650 C 0.3408 0.20797 0.16141 0.0
C651 C 0.31746 0.15948 0.15408 0.0
C652 C 0.33501 0.20606 0.1748 0.0
C653 C 0.3049 0.15561 0.18111 0.0
C654 C 0.28313 0.10697 0.17383 0.0
C655 C 0.28986 0.10889 0.16044 0.0
H656 H 0.21444 0.26488 0.4869 0.0
H657 H 0.10431 0.32954 0.48686 0.0
H658 H 0.21186 0.26177 0.51048 0.0
H659 H 0.10302 0.32869 0.51029 0.0
H660 H 0.06232 0.26307 0.55136 0.0
H661 H 0.06758 0.26912 0.52786 0.0
H662 H 0.23789 0.31217 0.52973 0.0
H663 H 0.23158 0.3041 0.55308 0.0
C664 C 0.19049 0.2793 0.49197 0.0
C665 C 0.15918 0.29688 0.48508 0.0
C666 C 0.18895 0.27768 0.50549 0.0
C667 C 0.15668 0.29444 0.51239 0.0
C668 C 0.12709 0.31396 0.50539 0.0
C669 C 0.12807 0.31482 0.49194 0.0
C670 C 0.10079 0.27403 0.54669 0.0
C671 C 0.14628 0.28256 0.55404 0.0
C672 C 0.10406 0.27775 0.53322 0.0
C673 C 0.15323 0.29099 0.52678 0.0
C674 C 0.19899 0.30063 0.53424 0.0
C675 C 0.19546 0.29619 0.54766 0.0
H676 H 0.80927 0.06151 0.82077 0.0
H677 H 0.91842 0.23636 0.82186 0.0
H678 H 0.81421 0.05764 0.84419 0.0
H679 H 0.92261 0.23299 0.84526 0.0
H680 H 0.96216 0.20478 0.88546 0.0
H681 H 0.95746 0.2042 0.86231 0.0
H682 H 0.78599 0.08125 0.86377 0.0
H683 H 0.79133 0.0793 0.88722 0.0
C684 C 0.83422 0.09918 0.82603 0.0
C685 C 0.86359 0.14925 0.81943 0.0
C686 C 0.83682 0.09702 0.83948 0.0
C687 C 0.86866 0.14497 0.8467 0.0
C688 C 0.89838 0.19499 0.84006 0.0
C689 C 0.89609 0.19704 0.82661 0.0
C690 C 0.9234 0.17673 0.88101 0.0
C691 C 0.87715 0.14171 0.88844 0.0
C692 C 0.92058 0.17713 0.86758 0.0
C693 C 0.8713 0.14303 0.86107 0.0
C694 C 0.82489 0.10777 0.86843 0.0
C695 C 0.82779 0.10707 0.88193 0.0
H696 H 0.73572 0.77755 0.15458 0.0
H697 H 0.7371 0.93122 0.155 0.0
H698 H 0.71694 0.76687 0.1776 0.0
H699 H 0.72058 0.9222 0.1782 0.0
H700 H 0.65418 0.87896 0.21825 0.0
H701 H 0.65945 0.87796 0.19483 0.0
H702 H 0.75638 0.79813 0.19782 0.0
H703 H 0.74822 0.79706 0.22132 0.0
C704 C 0.73235 0.80931 0.15966 0.0
C705 C 0.73823 0.85544 0.15299 0.0
C706 C 0.72182 0.80335 0.17291 0.0
C707 C 0.71753 0.84374 0.17995 0.0
C708 C 0.72258 0.88958 0.17318 0.0
C709 C 0.7323 0.89506 0.15986 0.0
C710 C 0.67577 0.8604 0.21383 0.0
C711 C 0.70081 0.83808 0.22155 0.0
C712 C 0.67944 0.86036 0.20039 0.0
C713 C 0.70923 0.83889 0.19428 0.0
C714 C 0.73258 0.81461 0.20206 0.0
C715 C 0.72802 0.81385 0.21555 0.0
H716 H 0.80035 0.71885 0.48783 0.0
H717 H 0.95156 0.71549 0.49004 0.0
H718 H 0.78927 0.70547 0.51114 0.0
H719 H 0.94018 0.70065 0.51318 0.0
H720 H 0.93499 0.74061 0.55615 0.0
H721 H 0.94553 0.74619 0.53269 0.0
H722 H 0.77015 0.64374 0.52829 0.0
H723 H 0.76013 0.64002 0.55162 0.0
C724 C 0.83075 0.71445 0.49328 0.0
C725 C 0.87706 0.71889 0.48711 0.0
C726 C 0.82449 0.70661 0.50666 0.0
C727 C 0.86407 0.70228 0.51416 0.0
C728 C 0.90951 0.70508 0.50785 0.0
C729 C 0.91598 0.71345 0.49454 0.0
C730 C 0.89901 0.71867 0.55012 0.0
C731 C 0.84679 0.69031 0.55569 0.0
C732 C 0.90484 0.72178 0.53666 0.0
C733 C 0.85855 0.69601 0.52849 0.0
C734 C 0.80662 0.66541 0.53418 0.0
C735 C 0.80085 0.66287 0.54757 0.0
H736 H 0.23731 0.88892 0.88896 0.0
H737 H 0.09013 0.89969 0.88534 0.0
H738 H 0.24427 0.88925 0.86537 0.0
H739 H 0.09637 0.89864 0.86206 0.0
H740 H 0.08834 0.83442 0.82147 0.0
H741 H 0.08642 0.83132 0.84505 0.0
H742 H 0.25892 0.95098 0.84622 0.0
H743 H 0.2609 0.95354 0.8227 0.0
C744 C 0.20678 0.89179 0.88318 0.0
C745 C 0.16271 0.89341 0.8891 0.0
C746 C 0.21057 0.8917 0.86968 0.0
C747 C 0.1702 0.89285 0.86184 0.0
C748 C 0.12728 0.89617 0.86779 0.0
C749 C 0.12378 0.89679 0.88118 0.0
C750 C 0.1259 0.85952 0.82676 0.0
C751 C 0.17454 0.89465 0.82021 0.0
C752 C 0.1248 0.8581 0.84026 0.0
C753 C 0.17249 0.89128 0.84751 0.0
C754 C 0.22158 0.92484 0.84094 0.0
C755 C 0.22252 0.92671 0.82746 0.0
H756 H 0.545 0.63829 0.08519 0.0
H757 H 0.58042 0.64881 0.1259 0.0
H758 H 0.50885 0.5395 0.08579 0.0
H759 H 0.54556 0.55005 0.12652 0.0
H760 H 0.4471 0.36194 0.12294 0.0
H761 H 0.46796 0.45689 0.12372 0.0
H762 H 0.55852 0.48934 0.08816 0.0
H763 H 0.53725 0.39415 0.08733 0.0
C764 C 0.54343 0.61893 0.09433 0.0
C765 C 0.5653 0.65054 0.1055 0.0
C766 C 0.52356 0.56274 0.09465 0.0
C767 C 0.52581 0.53748 0.10613 0.0
C768 C 0.54339 0.5685 0.11755 0.0
C769 C 0.56298 0.62481 0.11723 0.0
C770 C 0.47243 0.38969 0.11543 0.0
C771 C 0.49096 0.37091 0.1051 0.0
C772 C 0.48395 0.44387 0.11583 0.0
C773 C 0.51411 0.4802 0.10591 0.0
C774 C 0.53396 0.4618 0.09578 0.0
C775 C 0.52232 0.40759 0.09535 0.0
H776 H 0.10362 0.43915 0.46186 0.0
H777 H 0.12985 0.50763 0.42355 0.0
H778 H 0.02978 0.46011 0.46514 0.0
H779 H 0.0561 0.52788 0.42678 0.0
H780 H 0.88687 0.49392 0.42803 0.0
H781 H 0.95286 0.46177 0.42901 0.0
H782 H 1.01224 0.54355 0.46561 0.0
H783 H 0.94539 0.57522 0.46463 0.0
C784 C 0.0946 0.46002 0.4543 0.0
C785 C 0.12207 0.47154 0.44241 0.0
C786 C 0.05209 0.47141 0.45613 0.0
C787 C 0.03642 0.49402 0.44607 0.0
C788 C 0.06642 0.50888 0.43454 0.0
C789 C 0.10888 0.49783 0.43274 0.0
C790 C 0.91229 0.5027 0.43654 0.0
C791 C 0.91126 0.53658 0.44628 0.0
C792 C 0.95047 0.48511 0.43704 0.0
C793 C 0.98838 0.50153 0.44723 0.0
C794 C 0.98349 0.53059 0.45765 0.0
C795 C 0.94508 0.54823 0.45715 0.0
H796 H 0.38462 0.97453 0.78569 0.0
H797 H 0.39714 0.90858 0.7491 0.0
H798 H 0.48208 0.04256 0.78481 0.0
H799 H 0.49417 0.97737 0.74806 0.0
H800 H 0.67583 0.06671 0.75806 0.0
H801 H 0.57935 0.99953 0.75945 0.0
H802 H 0.54457 0.12548 0.77176 0.0
H803 H 0.64234 0.19383 0.77025 0.0
C804 C 0.40843 0.97404 0.77756 0.0
C805 C 0.38349 0.93597 0.7675 0.0
C806 C 0.46393 0.01355 0.77696 0.0
C807 C 0.49557 0.01548 0.76633 0.0
C808 C 0.47085 0.97665 0.75642 0.0
C809 C 0.41536 0.93737 0.75698 0.0
C810 C 0.64768 0.08061 0.76079 0.0
C811 C 0.66666 0.13601 0.76374 0.0
C812 C 0.59234 0.04188 0.76166 0.0
C813 C 0.5544 0.05729 0.7656 0.0
C814 C 0.57311 0.11247 0.76876 0.0
C815 C 0.62888 0.15156 0.76785 0.0
H816 H 0.63682 0.51828 0.58517 0.0
H817 H 0.61899 0.48503 0.62597 0.0
H818 H 0.53731 0.47744 0.58306 0.0
H819 H 0.51995 0.44446 0.62397 0.0
H820 H 0.33939 0.35419 0.61541 0.0
H821 H 0.43311 0.37167 0.61448 0.0
H822 H 0.47884 0.51531 0.59124 0.0
H823 H 0.38481 0.49808 0.59224 0.0
C824 C 0.61128 0.50011 0.59356 0.0
C825 C 0.63501 0.50438 0.60572 0.0
C826 C 0.55462 0.47754 0.59241 0.0
C827 C 0.52113 0.45859 0.60338 0.0
C828 C 0.54469 0.45848 0.61533 0.0
C829 C 0.60125 0.48149 0.6165 0.0
C830 C 0.36954 0.38989 0.61021 0.0
C831 C 0.35505 0.42554 0.60413 0.0
C832 C 0.42302 0.39947 0.60958 0.0
C833 C 0.46314 0.44472 0.60279 0.0
C834 C 0.44845 0.47957 0.59639 0.0
C835 C 0.39483 0.47003 0.59704 0.0
H836 H 0.15931 0.64474 0.95025 0.0
H837 H 0.11004 0.65507 0.91146 0.0
H838 H 0.10111 0.54519 0.9497 0.0
H839 H 0.05098 0.55523 0.91088 0.0
H840 H 0.96893 0.36499 0.91475 0.0
H841 H 0.04158 0.4605 0.91271 0.0
H842 H 0.9982 0.49613 0.9499 0.0
H843 H 0.9252 0.4013 0.95187 0.0
C844 C 0.13772 0.62523 0.94142 0.0
C845 C 0.13913 0.65689 0.93086 0.0
C846 C 0.1039 0.56855 0.94116 0.0
C847 C 0.0707 0.54285 0.93036 0.0
C848 C 0.0762 0.5741 0.91932 0.0
C849 C 0.11017 0.631 0.9196 0.0
C850 C 0.97424 0.39348 0.92238 0.0
C851 C 0.94137 0.37563 0.9335 0.0
C852 C 0.01613 0.44793 0.92124 0.0
C853 C 0.02616 0.48525 0.93126 0.0
C854 C 0.99231 0.46777 0.94219 0.0
C855 C 0.95033 0.41361 0.94328 0.0
H856 H 0.45681 0.84389 0.25911 0.0
H857 H 0.62465 0.97534 0.25835 0.0
H858 H 0.42596 0.90879 0.25382 0.0
H859 H 0.5945 0.04016 0.25262 0.0
H860 H 0.50961 0.13735 0.26666 0.0
H861 H 0.55149 0.08006 0.26469 0.0
H862 H 0.42095 0.97135 0.23901 0.0
H863 H 0.37839 0.02811 0.24141 0.0
C864 C 0.48698 0.88648 0.25748 0.0
C865 C 0.54278 0.90506 0.25933 0.0
C866 C 0.46956 0.92369 0.25437 0.0
C867 C 0.50784 0.97991 0.25292 0.0
C868 C 0.56395 0.99747 0.25392 0.0
C869 C 0.5812 0.96044 0.25717 0.0
C870 C 0.49113 0.1023 0.26024 0.0
C871 C 0.44081 0.0867 0.25426 0.0
C872 C 0.51496 0.06932 0.2591 0.0
C873 C 0.48897 0.02047 0.25186 0.0
C874 C 0.44126 1.00794 0.24489 0.0
C875 C 0.41722 0.04063 0.24615 0.0
H876 H 0.19163 0.13263 0.10954 0.0
H877 H 0.16246 0.97876 0.09375 0.0
H878 H 0.09394 0.10071 0.10914 0.0
H879 H 0.06343 0.94585 0.09348 0.0
H880 H 0.90831 0.93822 0.07758 0.0
H881 H 1.00483 0.96812 0.08053 0.0
H882 H 1.00284 0.03865 0.11733 0.0
H883 H 0.90528 1.00859 0.11427 0.0
C884 C 0.16393 0.09124 0.10626 0.0
C885 C 0.18463 0.05814 0.10165 0.0
C886 C 0.10778 0.07291 0.10606 0.0
C887 C 0.07059 0.02098 0.10113 0.0
C888 C 0.09104 0.98652 0.09716 0.0
C889 C 0.1476 1.00488 0.09746 0.0
C890 C 0.92862 0.96095 0.08622 0.0
C891 C 0.89913 0.97135 0.09565 0.0
C892 C 0.98388 0.97731 0.08801 0.0
C893 C 1.01158 1.00467 0.0993 0.0
C894 C 0.98282 0.01751 0.10851 0.0
C895 C 0.92708 1.00093 0.10672 0.0
H896 H 0.05618 0.15946 0.41698 0.0
H897 H 0.17784 0.14562 0.43958 0.0
H898 H 0.99523 0.06155 0.41833 0.0
H899 H 0.11585 0.04597 0.44084 0.0
H900 H 0.0166 0.86826 0.42509 0.0
H901 H 0.07661 0.96631 0.42604 0.0
H902 H 0.93797 0.98769 0.43388 0.0
H903 H 0.87663 0.8877 0.43295 0.0
C904 C 0.07023 0.13555 0.42225 0.0
C905 C 0.12239 0.16083 0.42815 0.0
C906 C 0.03466 0.07915 0.42312 0.0
C907 C 0.05009 0.04576 0.42982 0.0
C908 C 0.10263 0.07058 0.43559 0.0
C909 C 0.13834 0.1276 0.43482 0.0
C910 C 0.99833 0.89344 0.42701 0.0
C911 C 0.94127 0.86971 0.4288 0.0
C912 C 0.03325 0.94999 0.42771 0.0
C913 C 1.01244 0.98509 0.43009 0.0
C914 C 0.95536 0.96171 0.43197 0.0
C915 C 0.92014 0.90451 0.43144 0.0
H916 H 0.05304 0.1855 0.76694 0.0
H917 H 0.89223 0.05294 0.77654 0.0
H918 H 0.08793 0.12094 0.76707 0.0
H919 H 0.92622 0.98882 0.77649 0.0
H920 H 0.01582 0.89046 0.78279 0.0
H921 H 0.98362 0.95631 0.78602 0.0
H922 H 0.076 0.04744 0.75277 0.0
H923 H 0.10783 0.98259 0.74964 0.0
C924 C 0.02556 0.14299 0.76938 0.0
C925 C 0.96994 0.1243 0.77166 0.0
C926 C 0.04519 0.10573 0.7693 0.0
C927 C 1.00967 0.04924 0.77162 0.0
C928 C 0.95492 0.0317 0.77472 0.0
C929 C 0.93538 0.06861 0.77468 0.0
C930 C 0.02819 0.92395 0.77605 0.0
C931 C 0.06426 0.93108 0.76595 0.0
C932 C 1.01027 0.96207 0.77795 0.0
C933 C 0.0282 1.00814 0.76982 0.0
C934 C 0.06261 0.01371 0.75947 0.0
C935 C 0.08025 0.97587 0.75758 0.0
H936 H 1.01141 0.87858 0.61195 0.0
H937 H 0.85188 0.85217 0.60118 0.0
H938 H 0.04737 0.97812 0.61144 0.0
H939 H 0.8871 0.95035 0.6008 0.0
H940 H 0.98286 0.13732 0.59241 0.0
H941 H 0.94781 0.03827 0.59036 0.0
H942 H 0.03434 0.04193 0.62511 0.0
H943 H 0.06878 0.13958 0.62712 0.0
C944 C 0.98439 0.89397 0.60926 0.0
C945 C 0.92882 0.85755 0.60673 0.0
C946 C 1.00467 0.95089 0.60908 0.0
C947 C 0.9699 0.97235 0.60621 0.0
C948 C 0.91515 0.93562 0.60298 0.0
C949 C 0.89492 0.87916 0.6033 0.0
C950 C 0.99315 0.11655 0.59975 0.0
C951 C 0.02846 0.14633 0.60993 0.0
C952 C 0.97366 0.05995 0.59852 0.0
C953 C 0.98935 0.03225 0.60742 0.0
C954 C 0.02271 0.06196 0.61786 0.0
C955 C 0.04183 0.11797 0.6191 0.0
H956 H 0.89061 0.02122 0.92726 0.0
H957 H 0.91426 0.0584 0.96783 0.0
H958 H 0.95822 0.99022 0.92816 0.0
H959 H 0.98199 0.02907 0.96879 0.0
H960 H 0.06662 0.92761 0.96868 0.0
H961 H 0.99669 0.95382 0.96775 0.0
H962 H 0.058 0.02996 0.93074 0.0
H963 H 0.12783 1.0018 0.9316 0.0
C964 C 0.90858 0.02058 0.93646 0.0
C965 C 0.89607 0.04066 0.94756 0.0
C966 C 0.94836 1.00424 0.93694 0.0
C967 C 0.97624 1.00765 0.94853 0.0
C968 C 0.96127 0.02519 0.95971 0.0
C969 C 0.92195 0.04158 0.95921 0.0
C970 C 0.0661 0.95114 0.96047 0.0
C971 C 0.10328 0.96332 0.9503 0.0
C972 C 0.02572 0.96604 0.9599 0.0
C973 C 0.02108 0.99368 0.94911 0.0
C974 C 0.05974 1.00792 0.93911 0.0
C975 C 0.10057 0.99298 0.93971 0.0
H976 H 0.1214 0.03412 0.30068 0.0
H977 H 0.12015 0.1274 0.26784 0.0
H978 H 0.02332 0.97213 0.29825 0.0
H979 H 0.02153 0.06474 0.26525 0.0
H980 H 0.83616 0.97268 0.27333 0.0
H981 H 0.93387 0.03495 0.27478 0.0
H982 H 0.9587 0.89935 0.28406 0.0
H983 H 0.85904 0.83623 0.28285 0.0
C984 C 0.09984 0.04202 0.29307 0.0
C985 C 0.12856 0.0861 0.28453 0.0
C986 C 0.04368 1.00579 0.29154 0.0
C987 C 0.0144 0.01248 0.2814 0.0
C988 C 0.04261 0.05823 0.2732 0.0
C989 C 0.09908 0.09468 0.27476 0.0
C990 C 0.86234 0.95578 0.27561 0.0
C991 C 0.83967 0.8994 0.2781 0.0
C992 C 0.91869 0.99172 0.27634 0.0
C993 C 0.95452 0.97261 0.27964 0.0
C994 C 0.9322 0.91571 0.28169 0.0
C995 C 0.87525 0.87933 0.28085 0.0
loop_
_geom_bond_atom_site_label_1
_geom_bond_atom_site_label_2
_geom_bond_distance
_geom_bond_site_symmetry_2
_ccdc_geom_bond_type
C0 C1 1.351 . S
C0 N3 1.368 . S
C0 H5 0.931 . S
C1 C0 1.351 . S
C1 N2 1.373 . S
C1 H29 0.930 . S
N2 C1 1.373 . S
N2 C4 1.340 . S
N3 C0 1.368 . S
N3 C4 1.321 . S
N3 Co6 2.135 . S
C4 N2 1.340 . S
C4 N3 1.321 . S
C4 H28 0.930 . S
H5 C0 0.931 . S
Co6 N3 2.135 . S
Co6 N9 2.121 . S
Co6 O14 2.055 . S
Co6 O17 2.039 . S
Co6 N20 2.140 . S
C7 O8 1.227 . S
C7 O17 1.265 . S
O8 C7 1.227 . S
N9 Co6 2.121 . S
N9 C11 1.375 . S
N9 C12 1.313 . S
C10 C11 1.338 . S
C10 N13 1.377 . S
C10 H30 0.930 . S
C11 N9 1.375 . S
C11 C10 1.338 . S
C11 H15 0.931 . S
C12 N9 1.313 . S
C12 N13 1.344 . S
C12 H16 0.930 . S
N13 C10 1.377 . S
N13 C12 1.344 . S
O14 Co6 2.055 . S
O14 C18 1.253 . S
H15 C11 0.931 . S
H16 C12 0.930 . S
O17 Co6 2.039 . S
O17 C7 1.265 . S
C18 O14 1.253 . S
C18 O19 1.227 . S
O19 C18 1.227 . S
N20 Co6 2.140 . S
N20 C23 1.346 . S
N20 C24 1.345 . S
C21 C22 1.387 . S
C21 C25 1.391 . S
C22 C21 1.387 . S
C22 C23 1.369 . S
C22 H31 0.929 . S
C23 N20 1.346 . S
C23 C22 1.369 . S
C23 H26 0.928 . S
C24 N20 1.345 . S
C24 C25 1.371 . S
C24 H27 0.931 . S
C25 C21 1.391 . S
C25 C24 1.371 . S
C25 H32 0.930 . S
H26 C23 0.928 . S
H27 C24 0.931 . S
H28 C4 0.930 . S
H29 C1 0.930 . S
H30 C10 0.930 . S
H31 C22 0.929 . S
H32 C25 0.930 . S
C33 C34 1.351 . S
C33 N36 1.368 . S
C33 H38 0.931 . S
C34 C33 1.351 . S
C34 N35 1.373 . S
C34 H62 0.930 . S
N35 C34 1.373 . S
N35 C37 1.340 . S
N36 C33 1.368 . S
N36 C37 1.321 . S
N36 Co39 2.135 . S
C37 N35 1.340 . S
C37 N36 1.321 . S
C37 H61 0.930 . S
H38 C33 0.931 . S
Co39 N36 2.135 . S
Co39 N42 2.121 . S
Co39 O47 2.055 . S
Co39 O50 2.039 . S
Co39 N53 2.140 . S
C40 O41 1.227 . S
C40 O50 1.265 . S
O41 C40 1.227 . S
N42 Co39 2.121 . S
N42 C44 1.375 . S
N42 C45 1.313 . S
C43 C44 1.338 . S
C43 N46 1.377 . S
C43 H63 0.930 . S
C44 N42 1.375 . S
C44 C43 1.338 . S
C44 H48 0.931 . S
C45 N42 1.313 . S
C45 N46 1.344 . S
C45 H49 0.930 . S
N46 C43 1.377 . S
N46 C45 1.344 . S
O47 Co39 2.055 . S
O47 C51 1.253 . S
H48 C44 0.931 . S
H49 C45 0.930 . S
O50 Co39 2.039 . S
O50 C40 1.265 . S
C51 O47 1.253 . S
C51 O52 1.227 . S
O52 C51 1.227 . S
N53 Co39 2.140 . S
N53 C56 1.346 . S
N53 C57 1.345 . S
C54 C55 1.387 . S
C54 C58 1.391 . S
C55 C54 1.387 . S
C55 C56 1.369 . S
C55 H64 0.929 . S
C56 N53 1.346 . S
C56 C55 1.369 . S
C56 H59 0.928 . S
C57 N53 1.345 . S
C57 C58 1.371 . S
C57 H60 0.931 . S
C58 C54 1.391 . S
C58 C57 1.371 . S
C58 H65 0.930 . S
H59 C56 0.928 . S
H60 C57 0.931 . S
H61 C37 0.930 . S
H62 C34 0.930 . S
H63 C43 0.930 . S
H64 C55 0.929 . S
H65 C58 0.930 . S
C66 C67 1.351 . S
C66 N69 1.368 . S
C66 H71 0.931 . S
C67 C66 1.351 . S
C67 N68 1.373 . S
C67 H95 0.930 . S
N68 C67 1.373 . S
N68 C70 1.340 . S
N69 C66 1.368 . S
N69 C70 1.321 . S
N69 Co72 2.135 . S
C70 N68 1.340 . S
C70 N69 1.321 . S
C70 H94 0.930 . S
H71 C66 0.931 . S
Co72 N69 2.135 . S
Co72 N75 2.121 . S
Co72 O80 2.055 . S
Co72 O83 2.039 . S
Co72 N86 2.140 . S
C73 O74 1.227 . S
C73 O83 1.265 . S
O74 C73 1.227 . S
N75 Co72 2.121 . S
N75 C77 1.375 . S
N75 C78 1.313 . S
C76 C77 1.338 . S
C76 N79 1.377 . S
C76 H96 0.930 . S
C77 N75 1.375 . S
C77 C76 1.338 . S
C77 H81 0.931 . S
C78 N75 1.313 . S
C78 N79 1.344 . S
C78 H82 0.930 . S
N79 C76 1.377 . S
N79 C78 1.344 . S
O80 Co72 2.055 . S
O80 C84 1.253 . S
H81 C77 0.931 . S
H82 C78 0.930 . S
O83 Co72 2.039 . S
O83 C73 1.265 . S
C84 O80 1.253 . S
C84 O85 1.227 . S
O85 C84 1.227 . S
N86 Co72 2.140 . S
N86 C89 1.346 . S
N86 C90 1.345 . S
C87 C88 1.387 . S
C87 C91 1.391 . S
C88 C87 1.387 . S
C88 C89 1.369 . S
C88 H97 0.929 . S
C89 N86 1.346 . S
C89 C88 1.369 . S
C89 H92 0.928 . S
C90 N86 1.345 . S
C90 C91 1.371 . S
C90 H93 0.931 . S
C91 C87 1.391 . S
C91 C90 1.371 . S
C91 H98 0.930 . S
H92 C89 0.928 . S
H93 C90 0.931 . S
H94 C70 0.930 . S
H95 C67 0.930 . S
H96 C76 0.930 . S
H97 C88 0.929 . S
H98 C91 0.930 . S
C99 C100 1.351 . S
C99 N102 1.368 . S
C99 H104 0.931 . S
C100 C99 1.351 . S
C100 N101 1.373 . S
C100 H128 0.930 . S
N101 C100 1.373 . S
N101 C103 1.340 . S
N102 C99 1.368 . S
N102 C103 1.321 . S
N102 Co105 2.135 . S
C103 N101 1.340 . S
C103 N102 1.321 . S
C103 H127 0.930 . S
H104 C99 0.931 . S
Co105 N102 2.135 . S
Co105 N108 2.121 . S
Co105 O113 2.055 . S
Co105 O116 2.039 . S
Co105 N119 2.140 . S
C106 O107 1.227 . S
C106 O116 1.265 . S
O107 C106 1.227 . S
N108 Co105 2.121 . S
N108 C110 1.375 . S
N108 C111 1.313 . S
C109 C110 1.338 . S
C109 N112 1.377 . S
C109 H129 0.930 . S
C110 N108 1.375 . S
C110 C109 1.338 . S
C110 H114 0.931 . S
C111 N108 1.313 . S
C111 N112 1.344 . S
C111 H115 0.930 . S
N112 C109 1.377 . S
N112 C111 1.344 . S
O113 Co105 2.055 . S
O113 C117 1.253 . S
H114 C110 0.931 . S
H115 C111 0.930 . S
O116 Co105 2.039 . S
O116 C106 1.265 . S
C117 O113 1.253 . S
C117 O118 1.227 . S
O118 C117 1.227 . S
N119 Co105 2.140 . S
N119 C122 1.346 . S
N119 C123 1.345 . S
C120 C121 1.387 . S
C120 C124 1.391 . S
C121 C120 1.387 . S
C121 C122 1.369 . S
C121 H130 0.929 . S
C122 N119 1.346 . S
C122 C121 1.369 . S
C122 H125 0.928 . S
C123 N119 1.345 . S
C123 C124 1.371 . S
C123 H126 0.931 . S
C124 C120 1.391 . S
C124 C123 1.371 . S
C124 H131 0.930 . S
H125 C122 0.928 . S
H126 C123 0.931 . S
H127 C103 0.930 . S
H128 C100 0.930 . S
H129 C109 0.930 . S
H130 C121 0.929 . S
H131 C124 0.930 . S
C132 C133 1.351 . S
C132 N135 1.368 . S
C132 H137 0.931 . S
C133 C132 1.351 . S
C133 N134 1.373 . S
C133 H161 0.930 . S
N134 C133 1.373 . S
N134 C136 1.340 . S
N135 C132 1.368 . S
N135 C136 1.321 . S
N135 Co138 2.135 . S
C136 N134 1.340 . S
C136 N135 1.321 . S
C136 H160 0.930 . S
H137 C132 0.931 . S
Co138 N135 2.135 . S
Co138 N141 2.121 . S
Co138 O146 2.055 . S
Co138 O149 2.039 . S
Co138 N152 2.140 . S
C139 O140 1.227 . S
C139 O149 1.265 . S
O140 C139 1.227 . S
N141 Co138 2.121 . S
N141 C143 1.375 . S
N141 C144 1.313 . S
C142 C143 1.338 . S
C142 N145 1.377 . S
C142 H162 0.930 . S
C143 N141 1.375 . S
C143 C142 1.338 . S
C143 H147 0.931 . S
C144 N141 1.313 . S
C144 N145 1.344 . S
C144 H148 0.930 . S
N145 C142 1.377 . S
N145 C144 1.344 . S
O146 Co138 2.055 . S
O146 C150 1.253 . S
H147 C143 0.931 . S
H148 C144 0.930 . S
O149 Co138 2.039 . S
O149 C139 1.265 . S
C150 O146 1.253 . S
C150 O151 1.227 . S
O151 C150 1.227 . S
N152 Co138 2.140 . S
N152 C155 1.346 . S
N152 C156 1.345 . S
C153 C154 1.387 . S
C153 C157 1.391 . S
C154 C153 1.387 . S
C154 C155 1.369 . S
C154 H163 0.929 . S
C155 N152 1.346 . S
C155 C154 1.369 . S
C155 H158 0.928 . S
C156 N152 1.345 . S
C156 C157 1.371 . S
C156 H159 0.931 . S
C157 C153 1.391 . S
C157 C156 1.371 . S
C157 H164 0.930 . S
H158 C155 0.928 . S
H159 C156 0.931 . S
H160 C136 0.930 . S
H161 C133 0.930 . S
H162 C142 0.930 . S
H163 C154 0.929 . S
H164 C157 0.930 . S
C165 C166 1.351 . S
C165 N168 1.368 . S
C165 H170 0.931 . S
C166 C165 1.351 . S
C166 N167 1.373 . S
C166 H194 0.930 . S
N167 C166 1.373 . S
N167 C169 1.340 . S
N168 C165 1.368 . S
N168 C169 1.321 . S
N168 Co171 2.135 . S
C169 N167 1.340 . S
C169 N168 1.321 . S
C169 H193 0.930 . S
H170 C165 0.931 . S
Co171 N168 2.135 . S
Co171 N174 2.121 . S
Co171 O179 2.055 . S
Co171 O182 2.039 . S
Co171 N185 2.140 . S
C172 O173 1.227 . S
C172 O182 1.265 . S
O173 C172 1.227 . S
N174 Co171 2.121 . S
N174 C176 1.375 . S
N174 C177 1.313 . S
C175 C176 1.338 . S
C175 N178 1.377 . S
C175 H195 0.930 . S
C176 N174 1.375 . S
C176 C175 1.338 . S
C176 H180 0.931 . S
C177 N174 1.313 . S
C177 N178 1.344 . S
C177 H181 0.930 . S
N178 C175 1.377 . S
N178 C177 1.344 . S
O179 Co171 2.055 . S
O179 C183 1.253 . S
H180 C176 0.931 . S
H181 C177 0.930 . S
O182 Co171 2.039 . S
O182 C172 1.265 . S
C183 O179 1.253 . S
C183 O184 1.227 . S
O184 C183 1.227 . S
N185 Co171 2.140 . S
N185 C188 1.346 . S
N185 C189 1.345 . S
C186 C187 1.387 . S
C186 C190 1.391 . S
C187 C186 1.387 . S
C187 C188 1.369 . S
C187 H196 0.929 . S
C188 N185 1.346 . S
C188 C187 1.369 . S
C188 H191 0.928 . S
C189 N185 1.345 . S
C189 C190 1.371 . S
C189 H192 0.931 . S
C190 C186 1.391 . S
C190 C189 1.371 . S
C190 H197 0.930 . S
H191 C188 0.928 . S
H192 C189 0.931 . S
H193 C169 0.930 . S
H194 C166 0.930 . S
H195 C175 0.930 . S
H196 C187 0.929 . S
H197 C190 0.930 . S
C198 C199 1.351 . S
C198 N201 1.368 . S
C198 H203 0.931 . S
C199 C198 1.351 . S
C199 N200 1.373 . S
C199 H227 0.930 . S
N200 C199 1.373 . S
N200 C202 1.340 . S
N201 C198 1.368 . S
N201 C202 1.321 . S
N201 Co204 2.135 . S
C202 N200 1.340 . S
C202 N201 1.321 . S
C202 H226 0.930 . S
H203 C198 0.931 . S
Co204 N201 2.135 . S
Co204 N207 2.121 . S
Co204 O212 2.055 . S
Co204 O215 2.039 . S
Co204 N218 2.140 . S
C205 O206 1.227 . S
C205 O215 1.265 . S
O206 C205 1.227 . S
N207 Co204 2.121 . S
N207 C209 1.375 . S
N207 C210 1.313 . S
C208 C209 1.338 . S
C208 N211 1.377 . S
C208 H228 0.930 . S
C209 N207 1.375 . S
C209 C208 1.338 . S
C209 H213 0.931 . S
C210 N207 1.313 . S
C210 N211 1.344 . S
C210 H214 0.930 . S
N211 C208 1.377 . S
N211 C210 1.344 . S
O212 Co204 2.055 . S
O212 C216 1.253 . S
H213 C209 0.931 . S
H214 C210 0.930 . S
O215 Co204 2.039 . S
O215 C205 1.265 . S
C216 O212 1.253 . S
C216 O217 1.227 . S
O217 C216 1.227 . S
N218 Co204 2.140 . S
N218 C221 1.346 . S
N218 C222 1.345 . S
C219 C220 1.387 . S
C219 C223 1.391 . S
C220 C219 1.387 . S
C220 C221 1.369 . S
C220 H229 0.929 . S
C221 N218 1.346 . S
C221 C220 1.369 . S
C221 H224 0.928 . S
C222 N218 1.345 . S
C222 C223 1.371 . S
C222 H225 0.931 . S
C223 C219 1.391 . S
C223 C222 1.371 . S
C223 H230 0.930 . S
H224 C221 0.928 . S
H225 C222 0.931 . S
H226 C202 0.930 . S
H227 C199 0.930 . S
H228 C208 0.930 . S
H229 C220 0.929 . S
H230 C223 0.930 . S
C231 C232 1.351 . S
C231 N234 1.368 . S
C231 H236 0.931 . S
C232 C231 1.351 . S
C232 N233 1.373 . S
C232 H260 0.930 . S
N233 C232 1.373 . S
N233 C235 1.340 . S
N234 C231 1.368 . S
N234 C235 1.321 . S
N234 Co237 2.135 . S
C235 N233 1.340 . S
C235 N234 1.321 . S
C235 H259 0.930 . S
H236 C231 0.931 . S
Co237 N234 2.135 . S
Co237 N240 2.121 . S
Co237 O245 2.055 . S
Co237 O248 2.039 . S
Co237 N251 2.140 . S
C238 O239 1.227 . S
C238 O248 1.265 . S
O239 C238 1.227 . S
N240 Co237 2.121 . S
N240 C242 1.375 . S
N240 C243 1.313 . S
C241 C242 1.338 . S
C241 N244 1.377 . S
C241 H261 0.930 . S
C242 N240 1.375 . S
C242 C241 1.338 . S
C242 H246 0.931 . S
C243 N240 1.313 . S
C243 N244 1.344 . S
C243 H247 0.930 . S
N244 C241 1.377 . S
N244 C243 1.344 . S
O245 Co237 2.055 . S
O245 C249 1.253 . S
H246 C242 0.931 . S
H247 C243 0.930 . S
O248 Co237 2.039 . S
O248 C238 1.265 . S
C249 O245 1.253 . S
C249 O250 1.227 . S
O250 C249 1.227 . S
N251 Co237 2.140 . S
N251 C254 1.346 . S
N251 C255 1.345 . S
C252 C253 1.387 . S
C252 C256 1.391 . S
C253 C252 1.387 . S
C253 C254 1.369 . S
C253 H262 0.929 . S
C254 N251 1.346 . S
C254 C253 1.369 . S
C254 H257 0.928 . S
C255 N251 1.345 . S
C255 C256 1.371 . S
C255 H258 0.931 . S
C256 C252 1.391 . S
C256 C255 1.371 . S
C256 H263 0.930 . S
H257 C254 0.928 . S
H258 C255 0.931 . S
H259 C235 0.930 . S
H260 C232 0.930 . S
H261 C241 0.930 . S
H262 C253 0.929 . S
H263 C256 0.930 . S
C264 C265 1.351 . S
C264 N267 1.368 . S
C264 H269 0.931 . S
C265 C264 1.351 . S
C265 N266 1.373 . S
C265 H293 0.930 . S
N266 C265 1.373 . S
N266 C268 1.340 . S
N267 C264 1.368 . S
N267 C268 1.321 . S
N267 Co270 2.135 . S
C268 N266 1.340 . S
C268 N267 1.321 . S
C268 H292 0.930 . S
H269 C264 0.931 . S
Co270 N267 2.135 . S
Co270 N273 2.121 . S
Co270 O278 2.055 . S
Co270 O281 2.039 . S
Co270 N284 2.140 . S
C271 O272 1.227 . S
C271 O281 1.265 . S
O272 C271 1.227 . S
N273 Co270 2.121 . S
N273 C275 1.375 . S
N273 C276 1.313 . S
C274 C275 1.338 . S
C274 N277 1.377 . S
C274 H294 0.930 . S
C275 N273 1.375 . S
C275 C274 1.338 . S
C275 H279 0.931 . S
C276 N273 1.313 . S
C276 N277 1.344 . S
C276 H280 0.930 . S
N277 C274 1.377 . S
N277 C276 1.344 . S
O278 Co270 2.055 . S
O278 C282 1.253 . S
H279 C275 0.931 . S
H280 C276 0.930 . S
O281 Co270 2.039 . S
O281 C271 1.265 . S
C282 O278 1.253 . S
C282 O283 1.227 . S
O283 C282 1.227 . S
N284 Co270 2.140 . S
N284 C287 1.346 . S
N284 C288 1.345 . S
C285 C286 1.387 . S
C285 C289 1.391 . S
C286 C285 1.387 . S
C286 C287 1.369 . S
C286 H295 0.929 . S
C287 N284 1.346 . S
C287 C286 1.369 . S
C287 H290 0.928 . S
C288 N284 1.345 . S
C288 C289 1.371 . S
C288 H291 0.931 . S
C289 C285 1.391 . S
C289 C288 1.371 . S
C289 H296 0.930 . S
H290 C287 0.928 . S
H291 C288 0.931 . S
H292 C268 0.930 . S
H293 C265 0.930 . S
H294 C274 0.930 . S
H295 C286 0.929 . S
H296 C289 0.930 . S
C297 C298 1.351 . S
C297 N300 1.368 . S
C297 H302 0.931 . S
C298 C297 1.351 . S
C298 N299 1.373 . S
C298 H326 0.930 . S
N299 C298 1.373 . S
N299 C301 1.340 . S
N300 C297 1.368 . S
N300 C301 1.321 . S
N300 Co303 2.135 . S
C301 N299 1.340 . S
C301 N300 1.321 . S
C301 H325 0.930 . S
H302 C297 0.931 . S
Co303 N300 2.135 . S
Co303 N306 2.121 . S
Co303 O311 2.055 . S
Co303 O314 2.039 . S
Co303 N317 2.140 . S
C304 O305 1.227 . S
C304 O314 1.265 . S
O305 C304 1.227 . S
N306 Co303 2.121 . S
N306 C308 1.375 . S
N306 C309 1.313 . S
C307 C308 1.338 . S
C307 N310 1.377 . S
C307 H327 0.930 . S
C308 N306 1.375 . S
C308 C307 1.338 . S
C308 H312 0.931 . S
C309 N306 1.313 . S
C309 N310 1.344 . S
C309 H313 0.930 . S
N310 C307 1.377 . S
N310 C309 1.344 . S
O311 Co303 2.055 . S
O311 C315 1.253 . S
H312 C308 0.931 . S
H313 C309 0.930 . S
O314 Co303 2.039 . S
O314 C304 1.265 . S
C315 O311 1.253 . S
C315 O316 1.227 . S
O316 C315 1.227 . S
N317 Co303 2.140 . S
N317 C320 1.346 . S
N317 C321 1.345 . S
C318 C319 1.387 . S
C318 C322 1.391 . S
C319 C318 1.387 . S
C319 C320 1.369 . S
C319 H328 0.929 . S
C320 N317 1.346 . S
C320 C319 1.369 . S
C320 H323 0.928 . S
C321 N317 1.345 . S
C321 C322 1.371 . S
C321 H324 0.931 . S
C322 C318 1.391 . S
C322 C321 1.371 . S
C322 H329 0.930 . S
H323 C320 0.928 . S
H324 C321 0.931 . S
H325 C301 0.930 . S
H326 C298 0.930 . S
H327 C307 0.930 . S
H328 C319 0.929 . S
H329 C322 0.930 . S
C330 C331 1.351 . S
C330 N333 1.368 . S
C330 H335 0.931 . S
C331 C330 1.351 . S
C331 N332 1.373 . S
C331 H359 0.930 . S
N332 C331 1.373 . S
N332 C334 1.340 . S
N333 C330 1.368 . S
N333 C334 1.321 . S
N333 Co336 2.135 . S
C334 N332 1.340 . S
C334 N333 1.321 . S
C334 H358 0.930 . S
H335 C330 0.931 . S
Co336 N333 2.135 . S
Co336 N339 2.121 . S
Co336 O344 2.055 . S
Co336 O347 2.039 . S
Co336 N350 2.140 . S
C337 O338 1.227 . S
C337 O347 1.265 . S
O338 C337 1.227 . S
N339 Co336 2.121 . S
N339 C341 1.375 . S
N339 C342 1.313 . S
C340 C341 1.338 . S
C340 N343 1.377 . S
C340 H360 0.930 . S
C341 N339 1.375 . S
C341 C340 1.338 . S
C341 H345 0.931 . S
C342 N339 1.313 . S
C342 N343 1.344 . S
C342 H346 0.930 . S
N343 C340 1.377 . S
N343 C342 1.344 . S
O344 Co336 2.055 . S
O344 C348 1.253 . S
H345 C341 0.931 . S
H346 C342 0.930 . S
O347 Co336 2.039 . S
O347 C337 1.265 . S
C348 O344 1.253 . S
C348 O349 1.227 . S
O349 C348 1.227 . S
N350 Co336 2.140 . S
N350 C353 1.346 . S
N350 C354 1.345 . S
C351 C352 1.387 . S
C351 C355 1.391 . S
C352 C351 1.387 . S
C352 C353 1.369 . S
C352 H361 0.929 . S
C353 N350 1.346 . S
C353 C352 1.369 . S
C353 H356 0.928 . S
C354 N350 1.345 . S
C354 C355 1.371 . S
C354 H357 0.931 . S
C355 C351 1.391 . S
C355 C354 1.371 . S
C355 H362 0.930 . S
H356 C353 0.928 . S
H357 C354 0.931 . S
H358 C334 0.930 . S
H359 C331 0.930 . S
H360 C340 0.930 . S
H361 C352 0.929 . S
H362 C355 0.930 . S
C363 C364 1.351 . S
C363 N366 1.368 . S
C363 H368 0.931 . S
C364 C363 1.351 . S
C364 N365 1.373 . S
C364 H392 0.930 . S
N365 C364 1.373 . S
N365 C367 1.340 . S
N366 C363 1.368 . S
N366 C367 1.321 . S
N366 Co369 2.135 . S
C367 N365 1.340 . S
C367 N366 1.321 . S
C367 H391 0.930 . S
H368 C363 0.931 . S
Co369 N366 2.135 . S
Co369 N372 2.121 . S
Co369 O377 2.055 . S
Co369 O380 2.039 . S
Co369 N383 2.140 . S
C370 O371 1.227 . S
C370 O380 1.265 . S
O371 C370 1.227 . S
N372 Co369 2.121 . S
N372 C374 1.375 . S
N372 C375 1.313 . S
C373 C374 1.338 . S
C373 N376 1.377 . S
C373 H393 0.930 . S
C374 N372 1.375 . S
C374 C373 1.338 . S
C374 H378 0.931 . S
C375 N372 1.313 . S
C375 N376 1.344 . S
C375 H379 0.930 . S
N376 C373 1.377 . S
N376 C375 1.344 . S
O377 Co369 2.055 . S
O377 C381 1.253 . S
H378 C374 0.931 . S
H379 C375 0.930 . S
O380 Co369 2.039 . S
O380 C370 1.265 . S
C381 O377 1.253 . S
C381 O382 1.227 . S
O382 C381 1.227 . S
N383 Co369 2.140 . S
N383 C386 1.346 . S
N383 C387 1.345 . S
C384 C385 1.387 . S
C384 C388 1.391 . S
C385 C384 1.387 . S
C385 C386 1.369 . S
C385 H394 0.929 . S
C386 N383 1.346 . S
C386 C385 1.369 . S
C386 H389 0.928 . S
C387 N383 1.345 . S
C387 C388 1.371 . S
C387 H390 0.931 . S
C388 C384 1.391 . S
C388 C387 1.371 . S
C388 H395 0.930 . S
H389 C386 0.928 . S
H390 C387 0.931 . S
H391 C367 0.930 . S
H392 C364 0.930 . S
H393 C373 0.930 . S
H394 C385 0.929 . S
H395 C388 0.930 . S
H396 C404 0.950 . S
H397 C409 0.950 . S
H398 C406 0.959 . S
H399 C408 0.950 . S
H400 C410 0.950 . S
H401 C412 0.950 . S
H402 C414 0.950 . S
H403 C415 0.950 . S
C404 H396 0.950 . S
C404 C405 1.386 . S
C404 C406 1.381 1_545 S
C405 C404 1.386 . S
C405 C409 1.393 . S
C406 H398 0.959 . S
C406 C404 1.381 1_565 S
C406 C407 1.402 1_565 S
C407 C406 1.402 1_545 S
C407 C408 1.398 . S
C407 C413 1.491 1_544 S
C408 H399 0.950 . S
C408 C407 1.398 . S
C408 C409 1.391 . S
C409 H397 0.950 . S
C409 C405 1.393 . S
C409 C408 1.391 . S
C410 H400 0.950 . S
C410 C411 1.386 . S
C410 C412 1.391 1_565 S
C411 C410 1.386 . S
C411 C415 1.393 . S
C412 H401 0.950 . S
C412 C410 1.391 1_545 S
C412 C413 1.400 1_545 S
C413 C407 1.491 1_566 S
C413 C412 1.400 1_565 S
C413 C414 1.398 . S
C414 H402 0.950 . S
C414 C413 1.398 . S
C414 C415 1.391 . S
C415 H403 0.950 . S
C415 C411 1.393 . S
C415 C414 1.391 . S
H416 C424 0.950 . S
H417 C429 0.950 . S
H418 C426 0.950 . S
H419 C428 0.950 . S
H420 C430 0.950 . S
H421 C432 0.950 . S
H422 C434 0.950 . S
H423 C435 0.950 . S
C424 H416 0.950 . S
C424 C425 1.386 . S
C424 C426 1.391 . S
C425 C424 1.386 . S
C425 C429 1.393 . S
C426 H418 0.950 . S
C426 C424 1.391 . S
C426 C427 1.400 . S
C427 C426 1.400 . S
C427 C428 1.398 . S
C427 C433 1.491 . S
C428 H419 0.950 . S
C428 C427 1.398 . S
C428 C429 1.391 . S
C429 H417 0.950 . S
C429 C425 1.393 . S
C429 C428 1.391 . S
C430 H420 0.950 . S
C430 C431 1.386 . S
C430 C432 1.391 . S
C431 C430 1.386 . S
C431 C435 1.393 . S
C432 H421 0.950 . S
C432 C430 1.391 . S
C432 C433 1.400 . S
C433 C427 1.491 . S
C433 C432 1.400 . S
C433 C434 1.398 . S
C434 H422 0.950 . S
C434 C433 1.398 . S
C434 C435 1.391 . S
C435 H423 0.950 . S
C435 C431 1.393 . S
C435 C434 1.391 . S
H436 C444 0.950 . S
H437 C449 0.950 . S
H438 C446 0.950 1_455 S
H439 C448 0.950 . S
H440 C450 0.950 . S
H441 C452 0.950 1_655 S
H442 C454 0.950 . S
H443 C455 0.950 . S
C444 H436 0.950 . S
C444 C445 1.386 . S
C444 C446 1.391 . S
C445 C444 1.386 . S
C445 C449 1.393 . S
C446 H438 0.950 1_655 S
C446 C444 1.391 . S
C446 C447 1.400 . S
C447 C446 1.400 . S
C447 C448 1.398 . S
C447 C453 1.491 1_655 S
C448 H439 0.950 . S
C448 C447 1.398 . S
C448 C449 1.391 . S
C449 H437 0.950 . S
C449 C445 1.393 . S
C449 C448 1.391 . S
C450 H440 0.950 . S
C450 C451 1.386 . S
C450 C452 1.391 . S
C451 C450 1.386 . S
C451 C455 1.393 . S
C452 H441 0.950 1_455 S
C452 C450 1.391 . S
C452 C453 1.400 . S
C453 C447 1.491 1_455 S
C453 C452 1.400 . S
C453 C454 1.398 . S
C454 H442 0.950 . S
C454 C453 1.398 . S
C454 C455 1.391 . S
C455 H443 0.950 . S
C455 C451 1.393 . S
C455 C454 1.391 . S
H456 C464 0.950 . S
H457 C469 0.950 . S
H458 C466 0.950 . S
H459 C468 0.950 1_565 S
H460 C470 0.950 . S
H461 C472 0.950 . S
H462 C474 0.950 1_545 S
H463 C475 0.950 . S
C464 H456 0.950 . S
C464 C465 1.386 . S
C464 C466 1.391 . S
C465 C464 1.386 . S
C465 C469 1.393 . S
C466 H458 0.950 . S
C466 C464 1.391 . S
C466 C467 1.400 . S
C467 C466 1.400 . S
C467 C468 1.398 . S
C467 C473 1.491 1_546 S
C468 H459 0.950 1_545 S
C468 C467 1.398 . S
C468 C469 1.391 . S
C469 H457 0.950 . S
C469 C465 1.393 . S
C469 C468 1.391 . S
C470 H460 0.950 . S
C470 C471 1.386 . S
C470 C472 1.391 . S
C471 C470 1.386 . S
C471 C475 1.393 . S
C472 H461 0.950 . S
C472 C470 1.391 . S
C472 C473 1.400 . S
C473 C467 1.491 1_564 S
C473 C472 1.400 . S
C473 C474 1.398 . S
C474 H462 0.950 1_565 S
C474 C473 1.398 . S
C474 C475 1.391 . S
C475 H463 0.950 . S
C475 C471 1.393 . S
C475 C474 1.391 . S
H476 C484 0.950 . S
H477 C489 0.950 . S
H478 C486 0.950 . S
H479 C488 0.950 . S
H480 C490 0.950 . S
H481 C492 0.950 . S
H482 C494 0.950 . S
H483 C495 0.950 . S
C484 H476 0.950 . S
C484 C485 1.386 . S
C484 C486 1.391 . S
C485 C484 1.386 . S
C485 C489 1.393 . S
C486 H478 0.950 . S
C486 C484 1.391 . S
C486 C487 1.400 . S
C487 C486 1.400 . S
C487 C488 1.398 . S
C487 C493 1.491 . S
C488 H479 0.950 . S
C488 C487 1.398 . S
C488 C489 1.391 . S
C489 H477 0.950 . S
C489 C485 1.393 . S
C489 C488 1.391 . S
C490 H480 0.950 . S
C490 C491 1.386 . S
C490 C492 1.391 . S
C491 C490 1.386 . S
C491 C495 1.393 . S
C492 H481 0.950 . S
C492 C490 1.391 . S
C492 C493 1.400 . S
C493 C487 1.491 . S
C493 C492 1.400 . S
C493 C494 1.398 . S
C494 H482 0.950 . S
C494 C493 1.398 . S
C494 C495 1.391 . S
C495 H483 0.950 . S
C495 C491 1.393 . S
C495 C494 1.391 . S
H496 C504 0.950 . S
H497 C509 0.950 . S
H498 C506 0.950 . S
H499 C508 0.950 . S
H500 C510 0.950 . S
H501 C512 0.950 . S
H502 C514 0.950 . S
H503 C515 0.950 . S
C504 H496 0.950 . S
C504 C505 1.386 . S
C504 C506 1.391 . S
C505 C504 1.386 . S
C505 C509 1.393 . S
C506 H498 0.950 . S
C506 C504 1.391 . S
C506 C507 1.400 . S
C507 C506 1.400 . S
C507 C508 1.398 1_455 S
C507 C513 1.491 1_455 S
C508 H499 0.950 . S
C508 C507 1.398 1_655 S
C508 C509 1.391 1_655 S
C509 H497 0.950 . S
C509 C505 1.393 . S
C509 C508 1.391 1_455 S
C510 H500 0.950 . S
C510 C511 1.386 . S
C510 C512 1.391 . S
C511 C510 1.386 . S
C511 C515 1.393 . S
C512 H501 0.950 . S
C512 C510 1.391 . S
C512 C513 1.400 . S
C513 C507 1.491 1_655 S
C513 C512 1.400 . S
C513 C514 1.398 1_655 S
C514 H502 0.950 . S
C514 C513 1.398 1_455 S
C514 C515 1.391 1_455 S
C515 H503 0.950 . S
C515 C511 1.393 . S
C515 C514 1.391 1_655 S
H516 C524 0.950 1_545 S
H517 C529 0.950 . S
H518 C526 0.950 . S
H519 C528 0.950 . S
H520 C530 0.950 1_565 S
H521 C532 0.950 . S
H522 C534 0.950 . S
H523 C535 0.950 . S
C524 H516 0.950 1_565 S
C524 C525 1.386 . S
C524 C526 1.391 1_565 S
C525 C524 1.386 . S
C525 C529 1.393 . S
C526 H518 0.950 . S
C526 C524 1.391 1_545 S
C526 C527 1.400 1_545 S
C527 C526 1.400 1_565 S
C527 C528 1.398 . S
C527 C533 1.491 1_565 S
C528 H519 0.950 . S
C528 C527 1.398 . S
C528 C529 1.391 . S
C529 H517 0.950 . S
C529 C525 1.393 . S
C529 C528 1.391 . S
C530 H520 0.950 1_545 S
C530 C531 1.386 . S
C530 C532 1.391 1_545 S
C531 C530 1.386 . S
C531 C535 1.393 . S
C532 H521 0.950 . S
C532 C530 1.391 1_565 S
C532 C533 1.400 1_565 S
C533 C527 1.491 1_545 S
C533 C532 1.400 1_545 S
C533 C534 1.398 . S
C534 H522 0.950 . S
C534 C533 1.398 . S
C534 C535 1.391 . S
C535 H523 0.950 . S
C535 C531 1.393 . S
C535 C534 1.391 . S
H536 C544 0.950 . S
H537 C549 0.950 . S
H538 C546 0.950 . S
H539 C548 0.950 . S
H540 C550 0.950 . S
H541 C552 0.950 . S
H542 C554 0.950 . S
H543 C555 0.950 . S
C544 H536 0.950 . S
C544 C545 1.386 . S
C544 C546 1.391 . S
C545 C544 1.386 . S
C545 C549 1.393 . S
C546 H538 0.950 . S
C546 C544 1.391 . S
C546 C547 1.400 . S
C547 C546 1.400 . S
C547 C548 1.398 . S
C547 C553 1.491 . S
C548 H539 0.950 . S
C548 C547 1.398 . S
C548 C549 1.391 . S
C549 H537 0.950 . S
C549 C545 1.393 . S
C549 C548 1.391 . S
C550 H540 0.950 . S
C550 C551 1.386 . S
C550 C552 1.391 . S
C551 C550 1.386 . S
C551 C555 1.393 . S
C552 H541 0.950 . S
C552 C550 1.391 . S
C552 C553 1.400 . S
C553 C547 1.491 . S
C553 C552 1.400 . S
C553 C554 1.398 . S
C554 H542 0.950 . S
C554 C553 1.398 . S
C554 C555 1.391 . S
C555 H543 0.950 . S
C555 C551 1.393 . S
C555 C554 1.391 . S
H556 C564 0.950 . S
H557 C569 0.950 . S
H558 C566 0.950 . S
H559 C568 0.950 . S
H560 C570 0.950 . S
H561 C572 0.950 . S
H562 C574 0.950 . S
H563 C575 0.950 . S
C564 H556 0.950 . S
C564 C565 1.386 . S
C564 C566 1.391 1_455 S
C565 C564 1.386 . S
C565 C569 1.393 . S
C566 H558 0.950 . S
C566 C564 1.391 1_655 S
C566 C567 1.400 1_655 S
C567 C566 1.400 1_455 S
C567 C568 1.398 . S
C567 C573 1.491 1_455 S
C568 H559 0.950 . S
C568 C567 1.398 . S
C568 C569 1.391 . S
C569 H557 0.950 . S
C569 C565 1.393 . S
C569 C568 1.391 . S
C570 H560 0.950 . S
C570 C571 1.386 . S
C570 C572 1.391 1_655 S
C571 C570 1.386 . S
C571 C575 1.393 . S
C572 H561 0.950 . S
C572 C570 1.391 1_455 S
C572 C573 1.400 1_455 S
C573 C567 1.491 1_655 S
C573 C572 1.400 1_655 S
C573 C574 1.398 . S
C574 H562 0.950 . S
C574 C573 1.398 . S
C574 C575 1.391 . S
C575 H563 0.950 . S
C575 C571 1.393 . S
C575 C574 1.391 . S
H576 C584 0.950 . S
H577 C589 0.949 . S
H578 C586 0.950 . S
H579 C588 0.950 . S
H580 C590 0.950 . S
H581 C592 0.950 . S
H582 C594 0.950 . S
H583 C595 0.949 . S
C584 H576 0.950 . S
C584 C585 1.386 . S
C584 C586 1.391 . S
C585 C584 1.386 . S
C585 C589 1.393 . S
C586 H578 0.950 . S
C586 C584 1.391 . S
C586 C587 1.400 . S
C587 C586 1.400 . S
C587 C588 1.398 1_455 S
C587 C593 1.491 1_455 S
C588 H579 0.950 . S
C588 C587 1.398 1_655 S
C588 C589 1.391 1_655 S
C589 H577 0.949 . S
C589 C585 1.393 . S
C589 C588 1.391 1_455 S
C590 H580 0.950 . S
C590 C591 1.386 . S
C590 C592 1.391 . S
C591 C590 1.386 . S
C591 C595 1.393 . S
C592 H581 0.950 . S
C592 C590 1.391 . S
C592 C593 1.400 . S
C593 C587 1.491 1_655 S
C593 C592 1.400 . S
C593 C594 1.398 1_655 S
C594 H582 0.950 . S
C594 C593 1.398 1_455 S
C594 C595 1.391 1_455 S
C595 H583 0.949 . S
C595 C591 1.393 . S
C595 C594 1.391 1_655 S
H596 C604 0.950 . S
H597 C609 0.950 . S
H598 C606 0.950 . S
H599 C608 0.950 . S
H600 C610 0.950 . S
H601 C612 0.950 . S
H602 C614 0.950 . S
H603 C615 0.950 . S
C604 H596 0.950 . S
C604 C605 1.386 . S
C604 C606 1.391 . S
C605 C604 1.386 . S
C605 C609 1.393 . S
C606 H598 0.950 . S
C606 C604 1.391 . S
C606 C607 1.400 . S
C607 C606 1.400 . S
C607 C608 1.398 . S
C607 C613 1.491 1_545 S
C608 H599 0.950 . S
C608 C607 1.398 . S
C608 C609 1.391 . S
C609 H597 0.950 . S
C609 C605 1.393 . S
C609 C608 1.391 . S
C610 H600 0.950 . S
C610 C611 1.386 . S
C610 C612 1.391 . S
C611 C610 1.386 . S
C611 C615 1.393 . S
C612 H601 0.950 . S
C612 C610 1.391 . S
C612 C613 1.400 . S
C613 C607 1.491 1_565 S
C613 C612 1.400 . S
C613 C614 1.398 . S
C614 H602 0.950 . S
C614 C613 1.398 . S
C614 C615 1.391 . S
C615 H603 0.950 . S
C615 C611 1.393 . S
C615 C614 1.391 . S
H616 C624 0.950 . S
H617 C629 0.950 . S
H618 C626 0.950 . S
H619 C628 0.950 . S
H620 C630 0.950 . S
H621 C632 0.950 . S
H622 C634 0.950 . S
H623 C635 0.950 . S
C624 H616 0.950 . S
C624 C625 1.386 . S
C624 C626 1.391 . S
C625 C624 1.386 . S
C625 C629 1.393 . S
C626 H618 0.950 . S
C626 C624 1.391 . S
C626 C627 1.400 . S
C627 C626 1.400 . S
C627 C628 1.398 . S
C627 C633 1.491 . S
C628 H619 0.950 . S
C628 C627 1.398 . S
C628 C629 1.391 . S
C629 H617 0.950 . S
C629 C625 1.393 . S
C629 C628 1.391 . S
C630 H620 0.950 . S
C630 C631 1.386 . S
C630 C632 1.391 . S
C631 C630 1.386 . S
C631 C635 1.393 . S
C632 H621 0.950 . S
C632 C630 1.391 . S
C632 C633 1.400 . S
C633 C627 1.491 . S
C633 C632 1.400 . S
C633 C634 1.398 . S
C634 H622 0.950 . S
C634 C633 1.398 . S
C634 C635 1.391 . S
C635 H623 0.950 . S
C635 C631 1.393 . S
C635 C634 1.391 . S
H636 C644 0.950 . S
H637 C649 0.950 . S
H638 C646 0.950 . S
H639 C648 0.950 . S
H640 C650 0.950 . S
H641 C652 0.950 . S
H642 C654 0.950 . S
H643 C655 0.950 . S
C644 H636 0.950 . S
C644 C645 1.386 . S
C644 C646 1.391 . S
C645 C644 1.386 . S
C645 C649 1.393 . S
C646 H638 0.950 . S
C646 C644 1.391 . S
C646 C647 1.400 . S
C647 C646 1.400 . S
C647 C648 1.398 . S
C647 C653 1.491 . S
C648 H639 0.950 . S
C648 C647 1.398 . S
C648 C649 1.391 . S
C649 H637 0.950 . S
C649 C645 1.393 . S
C649 C648 1.391 . S
C650 H640 0.950 . S
C650 C651 1.386 . S
C650 C652 1.391 . S
C651 C650 1.386 . S
C651 C655 1.393 . S
C652 H641 0.950 . S
C652 C650 1.391 . S
C652 C653 1.400 . S
C653 C647 1.491 . S
C653 C652 1.400 . S
C653 C654 1.398 . S
C654 H642 0.950 . S
C654 C653 1.398 . S
C654 C655 1.391 . S
C655 H643 0.950 . S
C655 C651 1.393 . S
C655 C654 1.391 . S
H656 C664 0.950 . S
H657 C669 0.950 . S
H658 C666 0.950 . S
H659 C668 0.950 . S
H660 C670 0.950 . S
H661 C672 0.950 . S
H662 C674 0.950 . S
H663 C675 0.950 . S
C664 H656 0.950 . S
C664 C665 1.386 . S
C664 C666 1.391 . S
C665 C664 1.386 . S
C665 C669 1.393 . S
C666 H658 0.950 . S
C666 C664 1.391 . S
C666 C667 1.400 . S
C667 C666 1.400 . S
C667 C668 1.398 . S
C667 C673 1.491 . S
C668 H659 0.950 . S
C668 C667 1.398 . S
C668 C669 1.391 . S
C669 H657 0.950 . S
C669 C665 1.393 . S
C669 C668 1.391 . S
C670 H660 0.950 . S
C670 C671 1.386 . S
C670 C672 1.391 . S
C671 C670 1.386 . S
C671 C675 1.393 . S
C672 H661 0.950 . S
C672 C670 1.391 . S
C672 C673 1.400 . S
C673 C667 1.491 . S
C673 C672 1.400 . S
C673 C674 1.398 . S
C674 H662 0.950 . S
C674 C673 1.398 . S
C674 C675 1.391 . S
C675 H663 0.950 . S
C675 C671 1.393 . S
C675 C674 1.391 . S
H676 C684 0.950 . S
H677 C689 0.950 . S
H678 C686 0.950 . S
H679 C688 0.950 . S
H680 C690 0.950 . S
H681 C692 0.950 . S
H682 C694 0.950 . S
H683 C695 0.950 . S
C684 H676 0.950 . S
C684 C685 1.386 . S
C684 C686 1.391 . S
C685 C684 1.386 . S
C685 C689 1.393 . S
C686 H678 0.950 . S
C686 C684 1.391 . S
C686 C687 1.400 . S
C687 C686 1.400 . S
C687 C688 1.398 . S
C687 C693 1.491 . S
C688 H679 0.950 . S
C688 C687 1.398 . S
C688 C689 1.391 . S
C689 H677 0.950 . S
C689 C685 1.393 . S
C689 C688 1.391 . S
C690 H680 0.950 . S
C690 C691 1.386 . S
C690 C692 1.391 . S
C691 C690 1.386 . S
C691 C695 1.393 . S
C692 H681 0.950 . S
C692 C690 1.391 . S
C692 C693 1.400 . S
C693 C687 1.491 . S
C693 C692 1.400 . S
C693 C694 1.398 . S
C694 H682 0.950 . S
C694 C693 1.398 . S
C694 C695 1.391 . S
C695 H683 0.950 . S
C695 C691 1.393 . S
C695 C694 1.391 . S
H696 C704 0.950 . S
H697 C709 0.950 . S
H698 C706 0.950 . S
H699 C708 0.950 . S
H700 C710 0.950 . S
H701 C712 0.950 . S
H702 C714 0.950 . S
H703 C715 0.950 . S
C704 H696 0.950 . S
C704 C705 1.386 . S
C704 C706 1.391 . S
C705 C704 1.386 . S
C705 C709 1.393 . S
C706 H698 0.950 . S
C706 C704 1.391 . S
C706 C707 1.400 . S
C707 C706 1.400 . S
C707 C708 1.398 . S
C707 C713 1.491 . S
C708 H699 0.950 . S
C708 C707 1.398 . S
C708 C709 1.391 . S
C709 H697 0.950 . S
C709 C705 1.393 . S
C709 C708 1.391 . S
C710 H700 0.950 . S
C710 C711 1.386 . S
C710 C712 1.391 . S
C711 C710 1.386 . S
C711 C715 1.393 . S
C712 H701 0.950 . S
C712 C710 1.391 . S
C712 C713 1.400 . S
C713 C707 1.491 . S
C713 C712 1.400 . S
C713 C714 1.398 . S
C714 H702 0.950 . S
C714 C713 1.398 . S
C714 C715 1.391 . S
C715 H703 0.950 . S
C715 C711 1.393 . S
C715 C714 1.391 . S
H716 C724 0.950 . S
H717 C729 0.950 . S
H718 C726 0.950 . S
H719 C728 0.950 . S
H720 C730 0.950 . S
H721 C732 0.950 . S
H722 C734 0.950 . S
H723 C735 0.950 . S
C724 H716 0.950 . S
C724 C725 1.386 . S
C724 C726 1.391 . S
C725 C724 1.386 . S
C725 C729 1.393 . S
C726 H718 0.950 . S
C726 C724 1.391 . S
C726 C727 1.400 . S
C727 C726 1.400 . S
C727 C728 1.398 . S
C727 C733 1.491 . S
C728 H719 0.950 . S
C728 C727 1.398 . S
C728 C729 1.391 . S
C729 H717 0.950 . S
C729 C725 1.393 . S
C729 C728 1.391 . S
C730 H720 0.950 . S
C730 C731 1.386 . S
C730 C732 1.391 . S
C731 C730 1.386 . S
C731 C735 1.393 . S
C732 H721 0.950 . S
C732 C730 1.391 . S
C732 C733 1.400 . S
C733 C727 1.491 . S
C733 C732 1.400 . S
C733 C734 1.398 . S
C734 H722 0.950 . S
C734 C733 1.398 . S
C734 C735 1.391 . S
C735 H723 0.950 . S
C735 C731 1.393 . S
C735 C734 1.391 . S
H736 C744 0.950 . S
H737 C749 0.950 . S
H738 C746 0.950 . S
H739 C748 0.950 . S
H740 C750 0.950 . S
H741 C752 0.950 . S
H742 C754 0.950 . S
H743 C755 0.950 . S
C744 H736 0.950 . S
C744 C745 1.386 . S
C744 C746 1.391 . S
C745 C744 1.386 . S
C745 C749 1.393 . S
C746 H738 0.950 . S
C746 C744 1.391 . S
C746 C747 1.400 . S
C747 C746 1.400 . S
C747 C748 1.398 . S
C747 C753 1.491 . S
C748 H739 0.950 . S
C748 C747 1.398 . S
C748 C749 1.391 . S
C749 H737 0.950 . S
C749 C745 1.393 . S
C749 C748 1.391 . S
C750 H740 0.950 . S
C750 C751 1.386 . S
C750 C752 1.391 . S
C751 C750 1.386 . S
C751 C755 1.393 . S
C752 H741 0.950 . S
C752 C750 1.391 . S
C752 C753 1.400 . S
C753 C747 1.491 . S
C753 C752 1.400 . S
C753 C754 1.398 . S
C754 H742 0.950 . S
C754 C753 1.398 . S
C754 C755 1.391 . S
C755 H743 0.950 . S
C755 C751 1.393 . S
C755 C754 1.391 . S
H756 C764 0.950 . S
H757 C769 0.950 . S
H758 C766 0.950 . S
H759 C768 0.950 . S
H760 C770 0.950 . S
H761 C772 0.950 . S
H762 C774 0.950 . S
H763 C775 0.950 . S
C764 H756 0.950 . S
C764 C765 1.386 . S
C764 C766 1.391 . S
C765 C764 1.386 . S
C765 C769 1.393 . S
C766 H758 0.950 . S
C766 C764 1.391 . S
C766 C767 1.400 . S
C767 C766 1.400 . S
C767 C768 1.398 . S
C767 C773 1.491 . S
C768 H759 0.950 . S
C768 C767 1.398 . S
C768 C769 1.391 . S
C769 H757 0.950 . S
C769 C765 1.393 . S
C769 C768 1.391 . S
C770 H760 0.950 . S
C770 C771 1.386 . S
C770 C772 1.391 . S
C771 C770 1.386 . S
C771 C775 1.393 . S
C772 H761 0.950 . S
C772 C770 1.391 . S
C772 C773 1.400 . S
C773 C767 1.491 . S
C773 C772 1.400 . S
C773 C774 1.398 . S
C774 H762 0.950 . S
C774 C773 1.398 . S
C774 C775 1.391 . S
C775 H763 0.950 . S
C775 C771 1.393 . S
C775 C774 1.391 . S
H776 C784 0.950 . S
H777 C789 0.950 . S
H778 C786 0.950 1_655 S
H779 C788 0.950 . S
H780 C790 0.950 . S
H781 C792 0.950 1_455 S
H782 C794 0.950 . S
H783 C795 0.950 . S
C784 H776 0.950 . S
C784 C785 1.386 . S
C784 C786 1.391 . S
C785 C784 1.386 . S
C785 C789 1.393 . S
C786 H778 0.950 1_455 S
C786 C784 1.391 . S
C786 C787 1.400 . S
C787 C786 1.400 . S
C787 C788 1.398 . S
C787 C793 1.491 1_455 S
C788 H779 0.950 . S
C788 C787 1.398 . S
C788 C789 1.391 . S
C789 H777 0.950 . S
C789 C785 1.393 . S
C789 C788 1.391 . S
C790 H780 0.950 . S
C790 C791 1.386 . S
C790 C792 1.391 . S
C791 C790 1.386 . S
C791 C795 1.393 . S
C792 H781 0.950 1_655 S
C792 C790 1.391 . S
C792 C793 1.400 . S
C793 C787 1.491 1_655 S
C793 C792 1.400 . S
C793 C794 1.398 . S
C794 H782 0.950 . S
C794 C793 1.398 . S
C794 C795 1.391 . S
C795 H783 0.950 . S
C795 C791 1.393 . S
C795 C794 1.391 . S
H796 C804 0.950 . S
H797 C809 0.950 . S
H798 C806 0.950 1_545 S
H799 C808 0.950 . S
H800 C810 0.950 . S
H801 C812 0.950 1_565 S
H802 C814 0.950 . S
H803 C815 0.950 . S
C804 H796 0.950 . S
C804 C805 1.386 . S
C804 C806 1.391 . S
C805 C804 1.386 . S
C805 C809 1.393 . S
C806 H798 0.950 1_565 S
C806 C804 1.391 . S
C806 C807 1.400 . S
C807 C806 1.400 . S
C807 C808 1.398 . S
C807 C813 1.491 1_565 S
C808 H799 0.950 . S
C808 C807 1.398 . S
C808 C809 1.391 . S
C809 H797 0.950 . S
C809 C805 1.393 . S
C809 C808 1.391 . S
C810 H800 0.950 . S
C810 C811 1.386 . S
C810 C812 1.391 . S
C811 C810 1.386 . S
C811 C815 1.393 . S
C812 H801 0.950 1_545 S
C812 C810 1.391 . S
C812 C813 1.400 . S
C813 C807 1.491 1_545 S
C813 C812 1.400 . S
C813 C814 1.398 . S
C814 H802 0.950 . S
C814 C813 1.398 . S
C814 C815 1.391 . S
C815 H803 0.950 . S
C815 C811 1.393 . S
C815 C814 1.391 . S
H816 C824 0.950 . S
H817 C829 0.950 . S
H818 C826 0.950 . S
H819 C828 0.950 . S
H820 C830 0.950 . S
H821 C832 0.950 . S
H822 C834 0.950 . S
H823 C835 0.950 . S
C824 H816 0.950 . S
C824 C825 1.386 . S
C824 C826 1.391 . S
C825 C824 1.386 . S
C825 C829 1.393 . S
C826 H818 0.950 . S
C826 C824 1.391 . S
C826 C827 1.400 . S
C827 C826 1.400 . S
C827 C828 1.398 . S
C827 C833 1.491 . S
C828 H819 0.950 . S
C828 C827 1.398 . S
C828 C829 1.391 . S
C829 H817 0.950 . S
C829 C825 1.393 . S
C829 C828 1.391 . S
C830 H820 0.950 . S
C830 C831 1.386 . S
C830 C832 1.391 . S
C831 C830 1.386 . S
C831 C835 1.393 . S
C832 H821 0.950 . S
C832 C830 1.391 . S
C832 C833 1.400 . S
C833 C827 1.491 . S
C833 C832 1.400 . S
C833 C834 1.398 . S
C834 H822 0.950 . S
C834 C833 1.398 . S
C834 C835 1.391 . S
C835 H823 0.950 . S
C835 C831 1.393 . S
C835 C834 1.391 . S
H836 C844 0.950 . S
H837 C849 0.950 . S
H838 C846 0.950 . S
H839 C848 0.950 1_655 S
H840 C850 0.950 . S
H841 C852 0.950 . S
H842 C854 0.950 1_455 S
H843 C855 0.950 . S
C844 H836 0.950 . S
C844 C845 1.386 . S
C844 C846 1.391 . S
C845 C844 1.386 . S
C845 C849 1.393 . S
C846 H838 0.950 . S
C846 C844 1.391 . S
C846 C847 1.400 . S
C847 C846 1.400 . S
C847 C848 1.398 . S
C847 C853 1.491 1_455 S
C848 H839 0.950 1_455 S
C848 C847 1.398 . S
C848 C849 1.391 . S
C849 H837 0.950 . S
C849 C845 1.393 . S
C849 C848 1.391 . S
C850 H840 0.950 . S
C850 C851 1.386 . S
C850 C852 1.391 . S
C851 C850 1.386 . S
C851 C855 1.393 . S
C852 H841 0.950 . S
C852 C850 1.391 . S
C852 C853 1.400 . S
C853 C847 1.491 1_655 S
C853 C852 1.400 . S
C853 C854 1.398 . S
C854 H842 0.950 1_655 S
C854 C853 1.398 . S
C854 C855 1.391 . S
C855 H843 0.950 . S
C855 C851 1.393 . S
C855 C854 1.391 . S
H856 C864 0.950 . S
H857 C869 0.950 1_545 S
H858 C866 0.950 . S
H859 C868 0.950 . S
H860 C870 0.950 . S
H861 C872 0.950 . S
H862 C874 0.950 . S
H863 C875 0.950 1_565 S
C864 H856 0.950 . S
C864 C865 1.386 . S
C864 C866 1.391 . S
C865 C864 1.386 . S
C865 C869 1.393 . S
C866 H858 0.950 . S
C866 C864 1.391 . S
C866 C867 1.400 . S
C867 C866 1.400 . S
C867 C868 1.398 1_565 S
C867 C873 1.491 1_565 S
C868 H859 0.950 . S
C868 C867 1.398 1_545 S
C868 C869 1.391 1_545 S
C869 H857 0.950 1_565 S
C869 C865 1.393 . S
C869 C868 1.391 1_565 S
C870 H860 0.950 . S
C870 C871 1.386 . S
C870 C872 1.391 . S
C871 C870 1.386 . S
C871 C875 1.393 . S
C872 H861 0.950 . S
C872 C870 1.391 . S
C872 C873 1.400 . S
C873 C867 1.491 1_545 S
C873 C872 1.400 . S
C873 C874 1.398 1_545 S
C874 H862 0.950 . S
C874 C873 1.398 1_565 S
C874 C875 1.391 1_565 S
C875 H863 0.950 1_545 S
C875 C871 1.393 . S
C875 C874 1.391 1_545 S
H876 C884 0.950 . S
H877 C889 0.950 1_565 S
H878 C886 0.950 . S
H879 C888 0.950 . S
H880 C890 0.950 . S
H881 C892 0.950 . S
H882 C894 0.950 . S
H883 C895 0.950 1_545 S
C884 H876 0.950 . S
C884 C885 1.386 . S
C884 C886 1.391 . S
C885 C884 1.386 . S
C885 C889 1.393 . S
C886 H878 0.950 . S
C886 C884 1.391 . S
C886 C887 1.400 . S
C887 C886 1.400 . S
C887 C888 1.398 1_545 S
C887 C893 1.491 1_445 S
C888 H879 0.950 . S
C888 C887 1.398 1_565 S
C888 C889 1.391 1_565 S
C889 H877 0.950 1_545 S
C889 C885 1.393 . S
C889 C888 1.391 1_545 S
C890 H880 0.950 . S
C890 C891 1.386 . S
C890 C892 1.391 . S
C891 C890 1.386 . S
C891 C895 1.393 . S
C892 H881 0.950 . S
C892 C890 1.391 . S
C892 C893 1.400 . S
C893 C887 1.491 1_665 S
C893 C892 1.400 . S
C893 C894 1.398 1_565 S
C894 H882 0.950 . S
C894 C893 1.398 1_545 S
C894 C895 1.391 1_545 S
C895 H883 0.950 1_565 S
C895 C891 1.393 . S
C895 C894 1.391 1_565 S
H896 C904 0.950 . S
H897 C909 0.950 . S
H898 C906 0.950 . S
H899 C908 0.950 . S
H900 C910 0.950 . S
H901 C912 0.950 . S
H902 C914 0.950 . S
H903 C915 0.950 . S
C904 H896 0.950 . S
C904 C905 1.386 . S
C904 C906 1.391 1_455 S
C905 C904 1.386 . S
C905 C909 1.393 . S
C906 H898 0.950 . S
C906 C904 1.391 1_655 S
C906 C907 1.400 1_655 S
C907 C906 1.400 1_455 S
C907 C908 1.398 . S
C907 C913 1.491 1_445 S
C908 H899 0.950 . S
C908 C907 1.398 . S
C908 C909 1.391 . S
C909 H897 0.950 . S
C909 C905 1.393 . S
C909 C908 1.391 . S
C910 H900 0.950 . S
C910 C911 1.386 . S
C910 C912 1.391 1_655 S
C911 C910 1.386 . S
C911 C915 1.393 . S
C912 H901 0.950 . S
C912 C910 1.391 1_455 S
C912 C913 1.400 1_455 S
C913 C907 1.491 1_665 S
C913 C912 1.400 1_655 S
C913 C914 1.398 . S
C914 H902 0.950 . S
C914 C913 1.398 . S
C914 C915 1.391 . S
C915 H903 0.950 . S
C915 C911 1.393 . S
C915 C914 1.391 . S
H916 C924 0.950 . S
H917 C929 0.950 . S
H918 C926 0.950 1_565 S
H919 C928 0.950 1_455 S
H920 C930 0.950 . S
H921 C932 0.950 1_545 S
H922 C934 0.950 1_655 S
H923 C935 0.950 . S
C924 H916 0.950 . S
C924 C925 1.386 . S
C924 C926 1.391 . S
C925 C924 1.386 . S
C925 C929 1.393 . S
C926 H918 0.950 1_545 S
C926 C924 1.391 . S
C926 C927 1.400 . S
C927 C926 1.400 . S
C927 C928 1.398 . S
C927 C933 1.491 1_645 S
C928 H919 0.950 1_655 S
C928 C927 1.398 . S
C928 C929 1.391 . S
C929 H917 0.950 . S
C929 C925 1.393 . S
C929 C928 1.391 . S
C930 H920 0.950 . S
C930 C931 1.386 . S
C930 C932 1.391 . S
C931 C930 1.386 . S
C931 C935 1.393 . S
C932 H921 0.950 1_565 S
C932 C930 1.391 . S
C932 C933 1.400 . S
C933 C927 1.491 1_465 S
C933 C932 1.400 . S
C933 C934 1.398 . S
C934 H922 0.950 1_455 S
C934 C933 1.398 . S
C934 C935 1.391 . S
C935 H923 0.950 . S
C935 C931 1.393 . S
C935 C934 1.391 . S
H936 C944 0.950 1_455 S
H937 C949 0.950 . S
H938 C946 0.950 . S
H939 C948 0.950 . S
H940 C950 0.950 1_655 S
H941 C952 0.950 . S
H942 C954 0.950 . S
H943 C955 0.950 . S
C944 H936 0.950 1_655 S
C944 C945 1.386 . S
C944 C946 1.391 1_655 S
C945 C944 1.386 . S
C945 C949 1.393 . S
C946 H938 0.950 . S
C946 C944 1.391 1_455 S
C946 C947 1.400 1_455 S
C947 C946 1.400 1_655 S
C947 C948 1.398 . S
C947 C953 1.491 1_665 S
C948 H939 0.950 . S
C948 C947 1.398 . S
C948 C949 1.391 . S
C949 H937 0.950 . S
C949 C945 1.393 . S
C949 C948 1.391 . S
C950 H940 0.950 1_455 S
C950 C951 1.386 . S
C950 C952 1.391 1_455 S
C951 C950 1.386 . S
C951 C955 1.393 . S
C952 H941 0.950 . S
C952 C950 1.391 1_655 S
C952 C953 1.400 1_655 S
C953 C947 1.491 1_445 S
C953 C952 1.400 1_455 S
C953 C954 1.398 . S
C954 H942 0.950 . S
C954 C953 1.398 . S
C954 C955 1.391 . S
C955 H943 0.950 . S
C955 C951 1.393 . S
C955 C954 1.391 . S
H956 C964 0.950 . S
H957 C969 0.948 1_565 S
H958 C966 0.950 . S
H959 C968 0.950 . S
H960 C970 0.950 . S
H961 C972 0.950 . S
H962 C974 0.950 . S
H963 C975 0.949 1_545 S
C964 H956 0.950 . S
C964 C965 1.386 . S
C964 C966 1.391 1_655 S
C965 C964 1.386 . S
C965 C969 1.403 . S
C966 H958 0.950 . S
C966 C964 1.391 1_455 S
C966 C967 1.400 1_455 S
C967 C966 1.400 1_655 S
C967 C968 1.398 1_545 S
C967 C973 1.491 1_645 S
C968 H959 0.950 . S
C968 C967 1.398 1_565 S
C968 C969 1.382 1_565 S
C969 H957 0.948 1_545 S
C969 C965 1.403 . S
C969 C968 1.382 1_545 S
C970 H960 0.950 . S
C970 C971 1.386 . S
C970 C972 1.391 1_455 S
C971 C970 1.386 . S
C971 C975 1.400 . S
C972 H961 0.950 . S
C972 C970 1.391 1_655 S
C972 C973 1.400 1_655 S
C973 C967 1.491 1_465 S
C973 C972 1.400 1_455 S
C973 C974 1.398 1_565 S
C974 H962 0.950 . S
C974 C973 1.398 1_545 S
C974 C975 1.385 1_545 S
C975 H963 0.949 1_565 S
C975 C971 1.400 . S
C975 C974 1.385 1_565 S
H976 C984 0.950 . S
H977 C989 0.950 . S
H978 C986 0.950 1_565 S
H979 C988 0.950 . S
H980 C990 0.950 . S
H981 C992 0.950 1_545 S
H982 C994 0.950 . S
H983 C995 0.950 . S
C984 H976 0.950 . S
C984 C985 1.386 . S
C984 C986 1.391 . S
C985 C984 1.386 . S
C985 C989 1.393 . S
C986 H978 0.950 1_545 S
C986 C984 1.391 . S
C986 C987 1.400 . S
C987 C986 1.400 . S
C987 C988 1.398 . S
C987 C993 1.491 1_445 S
C988 H979 0.950 . S
C988 C987 1.398 . S
C988 C989 1.391 . S
C989 H977 0.950 . S
C989 C985 1.393 . S
C989 C988 1.391 . S
C990 H980 0.950 . S
C990 C991 1.386 . S
C990 C992 1.391 . S
C991 C990 1.386 . S
C991 C995 1.393 . S
C992 H981 0.950 1_565 S
C992 C990 1.391 . S
C992 C993 1.400 . S
C993 C987 1.491 1_665 S
C993 C992 1.400 . S
C993 C994 1.398 . S
C994 H982 0.950 . S
C994 C993 1.398 . S
C994 C995 1.391 . S
C995 H983 0.950 . S
C995 C991 1.393 . S
C995 C994 1.391 . S
C405 N13 1.568 . S
C411 N244 1.554 . S
C425 N46 1.568 . S
C431 N277 1.554 . S
C445 N79 1.566 . S
C451 N310 1.559 . S
C465 N343 1.546 . S
C471 N112 1.555 . S
C485 N376 1.569 . S
C491 N145 1.551 . S
C505 N178 1.544 . S
C511 N211 1.560 . S
C525 C106 1.713 . S
C531 C7 1.712 . S
C545 C40 1.712 . S
C551 C139 1.711 . S
C565 C172 1.710 . S
C571 C73 1.710 . S
C585 C304 1.715 . S
C591 C205 1.716 . S
C605 C337 1.716 . S
C611 C238 1.716 . S
C625 C271 1.716 . S
C631 C370 1.716 . S
C645 N266 1.497 . S
C651 N2 1.512 . S
C665 N35 1.508 . S
C671 N299 1.489 . S
C685 N68 1.503 . S
C691 N332 1.508 . S
C705 N101 1.494 . S
C711 N365 1.514 . S
C725 N134 1.512 . S
C731 N200 1.488 . S
C745 N233 1.499 . S
C751 N167 1.495 . S
C765 C120 1.214 . S
C771 C21 1.216 . S
C785 C54 1.214 . S
C791 C153 1.216 . S
C805 C186 1.213 . S
C811 C87 1.216 . S
C825 C219 1.212 . S
C831 C318 1.218 . S
C845 C252 1.216 . S
C851 C351 1.214 . S
C865 C384 1.218 . S
C871 C285 1.212 . S
C885 C18 1.132 . S
C891 C117 1.133 . S
C905 C51 1.134 . S
C911 C150 1.134 . S
C925 C84 1.137 . S
C931 C183 1.137 . S
C945 C216 1.134 . S
C951 C315 1.134 . S
C965 C348 1.134 . S
C971 C249 1.134 . S
C985 C282 1.135 . S
C991 C381 1.136 . S
