# Generated by pormake.
# Topology uov, (4)-cn, num edge types: 1
# Building blocks:
#     Node 0, Type 0, BuildingBlock: TATPOV_clean_sbu_0, # of connection points: 4
#     Node 1, Type 0, BuildingBlock: TATPOV_clean_sbu_0, # of connection points: 4
#     Node 2, Type 0, BuildingBlock: TATPOV_clean_sbu_0, # of connection points: 4
#     Node 3, Type 0, BuildingBlock: TATPOV_clean_sbu_0, # of connection points: 4
#     Node 4, Type 0, BuildingBlock: TATPOV_clean_sbu_0, # of connection points: 4
#     Node 5, Type 0, BuildingBlock: TATPOV_clean_sbu_0, # of connection points: 4
#     Node 6, Type 0, BuildingBlock: TATPOV_clean_sbu_0, # of connection points: 4
#     Node 7, Type 0, BuildingBlock: TATPOV_clean_sbu_0, # of connection points: 4
#     Edge 8, Type (0, 0), BuildingBlock: FUNLAD_clean_linker_1, # of connection points: 2
#     Edge 9, Type (0, 0), BuildingBlock: FUNLAD_clean_linker_1, # of connection points: 2
#     Edge 10, Type (0, 0), BuildingBlock: FUNLAD_clean_linker_1, # of connection points: 2
#     Edge 11, Type (0, 0), BuildingBlock: FUNLAD_clean_linker_1, # of connection points: 2
#     Edge 12, Type (0, 0), BuildingBlock: FUNLAD_clean_linker_1, # of connection points: 2
#     Edge 13, Type (0, 0), BuildingBlock: FUNLAD_clean_linker_1, # of connection points: 2
#     Edge 14, Type (0, 0), BuildingBlock: FUNLAD_clean_linker_1, # of connection points: 2
#     Edge 15, Type (0, 0), BuildingBlock: FUNLAD_clean_linker_1, # of connection points: 2
#     Edge 16, Type (0, 0), BuildingBlock: FUNLAD_clean_linker_1, # of connection points: 2
#     Edge 17, Type (0, 0), BuildingBlock: FUNLAD_clean_linker_1, # of connection points: 2
#     Edge 18, Type (0, 0), BuildingBlock: FUNLAD_clean_linker_1, # of connection points: 2
#     Edge 19, Type (0, 0), BuildingBlock: FUNLAD_clean_linker_1, # of connection points: 2
#     Edge 20, Type (0, 0), BuildingBlock: FUNLAD_clean_linker_1, # of connection points: 2
#     Edge 21, Type (0, 0), BuildingBlock: FUNLAD_clean_linker_1, # of connection points: 2
#     Edge 22, Type (0, 0), BuildingBlock: FUNLAD_clean_linker_1, # of connection points: 2
#     Edge 23, Type (0, 0), BuildingBlock: FUNLAD_clean_linker_1, # of connection points: 2
# Relax obj value: 0.179
# Max RMSD: 0.193
# Mean RMSD: 0.193
data_MOF--net-uov--node1-TATPOV_clean_sbu_0--edge1-FUNLAD_clean_linker_1
_symmetry_space_group_name_H-M    P1
_symmetry_Int_Tables_number       1
_symmetry_cell_setting            triclinic
loop_
_symmetry_equiv_pos_as_xyz
'x, y, z'
_cell_length_a     30.857133
_cell_length_b     30.967162
_cell_length_c     44.780813
_cell_angle_alpha  89.847652
_cell_angle_beta   89.963959
_cell_angle_gamma 89.905976
loop_
_atom_site_label
_atom_site_type_symbol
_atom_site_fract_x
_atom_site_fract_y
_atom_site_fract_z
_atom_type_partial_charge
Zn0 Zn 0.07472 0.19016 0.59243 0.0
Zn1 Zn 0.07266 0.27497 0.58696 0.0
O2 O 0.01551 0.25125 0.56848 0.0
O3 O 0.01464 0.18138 0.57739 0.0
O4 O 0.06086 0.33916 0.58635 0.0
O5 O 0.08492 0.19221 0.63621 0.0
O6 O 0.08891 0.26295 0.63141 0.0
C7 C 0.99659 0.21477 0.56689 0.0
C8 C 0.14016 0.22785 0.55194 0.0
O9 O 0.12405 0.2643 0.55899 0.0
O10 O 0.12491 0.19332 0.56307 0.0
C11 C 0.03248 0.3525 0.60478 0.0
O12 O 0.0144 0.32485 0.62321 0.0
C13 C 0.0917 0.22892 0.64742 0.0
Zn14 Zn 0.1667 0.96072 0.38538 0.0
Zn15 Zn 0.24524 0.94114 0.40565 0.0
O16 O 0.24084 0.0075 0.40777 0.0
O17 O 0.17415 0.02372 0.39448 0.0
O18 O 0.30767 0.93346 0.41769 0.0
O19 O 0.1817 0.93772 0.34497 0.0
O20 O 0.24227 0.91186 0.3641 0.0
C21 C 0.21108 0.03538 0.40355 0.0
C22 C 0.16713 0.9048 0.43779 0.0
O23 O 0.208 0.91093 0.43772 0.0
O24 O 0.14357 0.9204 0.41727 0.0
C25 C 0.32134 0.9489 0.44222 0.0
O26 O 0.29361 0.96589 0.46109 0.0
C27 C 0.21566 0.9152 0.34243 0.0
Zn28 Zn 0.88919 0.8264 0.62371 0.0
Zn29 Zn 0.90161 0.74455 0.60816 0.0
O30 O 0.96084 0.77483 0.60334 0.0
O31 O 0.95244 0.84135 0.61952 0.0
O32 O 0.91738 0.68253 0.59955 0.0
O33 O 0.86383 0.80931 0.66278 0.0
O34 O 0.87189 0.7412 0.64996 0.0
C35 C 0.97631 0.81219 0.60859 0.0
C36 C 0.84273 0.79991 0.57015 0.0
O37 O 0.86052 0.76324 0.57444 0.0
O38 O 0.84951 0.83091 0.58792 0.0
C39 C 0.94033 0.67311 0.57687 0.0
O40 O 0.95165 0.70376 0.55814 0.0
C41 C 0.85877 0.76961 0.66848 0.0
Zn42 Zn 0.80977 0.01812 0.36124 0.0
Zn43 Zn 0.72722 0.0294 0.3767 0.0
O44 O 0.74193 0.96492 0.38372 0.0
O45 O 0.80858 0.95419 0.3679 0.0
O46 O 0.66279 0.03036 0.38461 0.0
O47 O 0.79963 0.04172 0.32045 0.0
O48 O 0.73311 0.05775 0.33467 0.0
C49 C 0.7741 0.9398 0.37938 0.0
C50 C 0.79473 0.07407 0.41343 0.0
O51 O 0.75476 0.06598 0.40936 0.0
O52 O 0.82321 0.05836 0.39608 0.0
C53 C 0.64737 0.01226 0.4078 0.0
O54 O 0.6739 0.99489 0.4274 0.0
C55 C 0.76334 0.05901 0.31524 0.0
Zn56 Zn 0.92706 0.18098 0.10118 0.0
Zn57 Zn 0.92953 0.26698 0.09776 0.0
O58 O 0.99354 0.24749 0.09933 0.0
O59 O 0.99212 0.17648 0.09992 0.0
O60 O 0.93581 0.33173 0.09553 0.0
O61 O 0.89384 0.18506 0.13945 0.0
O62 O 0.8912 0.25589 0.1351 0.0
C63 C 0.01334 0.21141 0.0991 0.0
C64 C 0.88767 0.21538 0.04765 0.0
O65 O 0.90014 0.2516 0.05789 0.0
O66 O 0.89432 0.18098 0.06234 0.0
C67 C 0.96505 0.34694 0.0785 0.0
O68 O 0.98869 0.32042 0.0624 0.0
C69 C 0.88062 0.22132 0.14879 0.0
Zn70 Zn 0.16508 0.0687 0.87848 0.0
Zn71 Zn 0.2489 0.07509 0.89187 0.0
O72 O 0.23293 0.01039 0.8918 0.0
O73 O 0.1662 0.00394 0.87518 0.0
O74 O 0.31365 0.07148 0.89793 0.0
O75 O 0.17265 0.10588 0.84246 0.0
O76 O 0.24211 0.11146 0.85299 0.0
C77 C 0.20085 0.98681 0.88446 0.0
C78 C 0.1843 0.11044 0.93574 0.0
O79 O 0.22406 0.10554 0.92878 0.0
O80 O 0.15457 0.0971 0.91859 0.0
C81 C 0.32919 0.05037 0.91983 0.0
O82 O 0.30277 0.03341 0.93966 0.0
C83 C 0.20977 0.12087 0.83646 0.0
Zn84 Zn 0.12107 0.82673 0.10178 0.0
Zn85 Zn 0.11929 0.74146 0.09175 0.0
O86 O 0.05708 0.76305 0.08402 0.0
O87 O 0.0574 0.83306 0.09214 0.0
O88 O 0.11373 0.67674 0.08709 0.0
O89 O 0.14169 0.81757 0.14347 0.0
O90 O 0.14522 0.74782 0.1344 0.0
C91 C 0.03742 0.79918 0.0845 0.0
C92 C 0.17515 0.79818 0.05235 0.0
O93 O 0.15947 0.76093 0.05776 0.0
O94 O 0.16525 0.83023 0.06849 0.0
C95 C 0.08457 0.66029 0.07065 0.0
O96 O 0.05898 0.68562 0.05501 0.0
C97 C 0.15146 0.77973 0.1518 0.0
Zn98 Zn 0.80321 0.94329 0.88282 0.0
Zn99 Zn 0.72365 0.93452 0.90527 0.0
O100 O 0.73748 -0.00027 0.90469 0.0
O101 O 0.80195 0.00796 0.88458 0.0
O102 O 0.66077 0.93636 0.91782 0.0
O103 O 0.78641 0.91338 0.84532 0.0
O104 O 0.72294 0.89911 0.86576 0.0
C105 C 0.76834 0.02413 0.89626 0.0
C106 C 0.79802 0.89737 0.94036 0.0
O107 O 0.7575 0.9051 0.93907 0.0
O108 O 0.82289 0.90907 0.91925 0.0
C109 C 0.65017 0.95513 0.94198 0.0
O110 O 0.68064 0.96955 0.95978 0.0
C111 C 0.74988 0.89515 0.84433 0.0
H112 H 0.97771 0.62293 0.5532 0.0
C113 C 0.95715 0.62893 0.57247 0.0
H114 H 0.93074 0.60302 0.61213 0.0
H115 H 0.98484 0.42515 0.53738 0.0
H116 H 0.93052 0.44678 0.50116 0.0
H117 H 0.89356 0.51721 0.50523 0.0
H118 H 0.91086 0.56653 0.54541 0.0
C119 C 0.94975 0.59692 0.59213 0.0
C120 C 0.97155 0.55415 0.58933 0.0
C121 C 0.96074 0.52555 0.56578 0.0
C122 C 0.98149 0.48457 0.56373 0.0
C123 C 0.97004 0.4566 0.54004 0.0
C124 C 0.93886 0.46858 0.51911 0.0
C125 C 0.9181 0.50826 0.52138 0.0
C126 C 0.9286 0.53643 0.54446 0.0
H127 H 0.99583 0.40747 0.62294 0.0
C128 C 0.01836 0.39799 0.60545 0.0
H129 H 0.05144 0.41812 0.56649 0.0
H130 H 0.00087 0.60169 0.63671 0.0
H131 H 0.05545 0.58004 0.67269 0.0
H132 H 0.09158 0.50915 0.66891 0.0
H133 H 0.07322 0.45942 0.62914 0.0
C134 C 0.03057 0.42731 0.58497 0.0
C135 C 0.0122 0.47183 0.58559 0.0
C136 C 0.02364 0.50074 0.60878 0.0
C137 C 0.00309 0.54179 0.61077 0.0
C138 C 0.01519 0.57 0.63419 0.0
C139 C 0.04661 0.55805 0.65496 0.0
C140 C 0.06692 0.51813 0.65285 0.0
C141 C 0.05584 0.48976 0.63002 0.0
H142 H 0.57956 0.02008 0.39315 0.0
C143 C 0.6 0.00758 0.41096 0.0
H144 H 0.602 0.9725 0.45143 0.0
H145 H 0.39411 0.03068 0.42986 0.0
H146 H 0.41873 0.10413 0.43656 0.0
H147 H 0.49635 0.12016 0.44361 0.0
H148 H 0.54983 0.06266 0.44347 0.0
C149 C 0.58178 0.98642 0.43402 0.0
C150 C 0.53448 0.97662 0.43442 0.0
C151 C 0.50342 0.01039 0.43597 0.0
C152 C 0.45845 0.00089 0.43336 0.0
C153 C 0.42846 0.03561 0.43301 0.0
C154 C 0.44219 0.07809 0.43663 0.0
C155 C 0.48589 0.08713 0.44049 0.0
C156 C 0.51628 0.05383 0.44017 0.0
H157 H 0.37848 0.96588 0.46942 0.0
C158 C 0.36823 0.95341 0.44789 0.0
H159 H 0.38809 0.93446 0.40469 0.0
H160 H 0.58527 0.90391 0.43228 0.0
H161 H 0.56036 0.82996 0.4287 0.0
H162 H 0.48228 0.81332 0.42631 0.0
H163 H 0.42862 0.87067 0.42735 0.0
C164 C 0.39781 0.94713 0.42628 0.0
C165 C 0.44453 0.95737 0.43065 0.0
C166 C 0.47549 0.92352 0.43047 0.0
C167 C 0.52048 0.93312 0.43229 0.0
C168 C 0.55066 0.89859 0.43137 0.0
C169 C 0.53682 0.85591 0.42926 0.0
C170 C 0.49287 0.84655 0.42788 0.0
C171 C 0.46242 0.87979 0.42843 0.0
H172 H 0.95022 0.41515 0.08864 0.0
C173 C 0.97325 0.39379 0.07772 0.0
H174 H 0.03205 0.38907 0.05379 0.0
H175 H 0.03923 0.57859 0.00452 0.0
H176 H 0.03022 0.53724 0.95907 0.0
H177 H 0.01464 0.45919 0.96109 0.0
H178 H 0.00837 0.42194 0.00855 0.0
C179 C 0.00912 0.41023 0.06499 0.0
C180 C 0.01769 0.45754 0.06416 0.0
C181 C 0.02064 0.47895 0.0362 0.0
C182 C 0.02875 0.52413 0.03504 0.0
C183 C 0.03241 0.54448 0.00677 0.0
C184 C 0.02741 0.52111 0.98047 0.0
C185 C 0.01871 0.47716 0.9816 0.0
C186 C 0.01529 0.45617 0.00904 0.0
H187 H 0.10197 0.59292 0.08173 0.0
C188 C 0.07774 0.6132 0.071 0.0
H189 H 0.01702 0.61533 0.0493 0.0
H190 H 0.02142 0.42568 0.12142 0.0
H191 H 0.02625 0.46754 0.16689 0.0
H192 H 0.03148 0.54697 0.165 0.0
H193 H 0.03328 0.58477 0.11762 0.0
C194 C 0.04128 0.59534 0.06025 0.0
C195 C 0.03328 0.54797 0.06184 0.0
C196 C 0.02947 0.52671 0.08985 0.0
C197 C 0.02333 0.48121 0.09099 0.0
C198 C 0.02344 0.46038 0.11921 0.0
C199 C 0.02659 0.484 0.14553 0.0
C200 C 0.02977 0.52868 0.14446 0.0
C201 C 0.03116 0.54995 0.11704 0.0
H202 H 0.3956 0.0507 0.90166 0.0
C203 C 0.37611 0.0411 0.92078 0.0
H204 H 0.37523 0.00889 0.96232 0.0
H205 H 0.53516 0.88776 0.93753 0.0
H206 H 0.47683 0.83657 0.9456 0.0
H207 H 0.4015 0.86158 0.95177 0.0
H208 H 0.38373 0.93768 0.9495 0.0
C209 C 0.39476 0.01939 0.94346 0.0
C210 C 0.44086 0.00477 0.94187 0.0
C211 C 0.45049 0.95991 0.94271 0.0
C212 C 0.49393 0.94538 0.93891 0.0
C213 C 0.50268 0.90049 0.94003 0.0
C214 C 0.46953 0.87075 0.94467 0.0
C215 C 0.42708 0.88484 0.94809 0.0
C216 C 0.41741 0.92876 0.94692 0.0
H217 H 0.5972 0.98156 0.9696 0.0
C218 C 0.60447 0.96564 0.94858 0.0
H219 H 0.57916 0.94374 0.90746 0.0
H220 H 0.43543 0.09299 0.94542 0.0
H221 H 0.49365 0.14405 0.93696 0.0
H222 H 0.56773 0.11873 0.92578 0.0
H223 H 0.5842 0.0423 0.92373 0.0
C224 C 0.57265 0.95992 0.9285 0.0
C225 C 0.52768 0.97557 0.93412 0.0
C226 C 0.51826 0.02046 0.93389 0.0
C227 C 0.47504 0.03508 0.93864 0.0
C228 C 0.46715 0.08008 0.94031 0.0
C229 C 0.50038 0.10977 0.93578 0.0
C230 C 0.54211 0.09552 0.92962 0.0
C231 C 0.55115 0.05146 0.92866 0.0
H232 H 0.18674 0.09843 0.417 0.0
C233 C 0.21647 0.0801 0.41388 0.0
H234 H 0.28347 0.07672 0.4214 0.0
H235 H 0.15959 0.24216 0.47371 0.0
H236 H 0.14389 0.26111 0.42232 0.0
H237 H 0.1806 0.22369 0.38074 0.0
H238 H 0.23256 0.16569 0.39072 0.0
C239 C 0.25431 0.09591 0.42408 0.0
C240 C 0.25389 0.13339 0.44507 0.0
C241 C 0.22696 0.16947 0.43914 0.0
C242 C 0.20737 0.19216 0.46318 0.0
C243 C 0.17651 0.22461 0.45652 0.0
C244 C 0.16718 0.23581 0.42701 0.0
C245 C 0.18779 0.2147 0.40358 0.0
C246 C 0.21728 0.18166 0.40948 0.0
H247 H 0.1903 0.25459 0.52138 0.0
C248 C 0.17501 0.22515 0.52934 0.0
H249 H 0.17078 0.15749 0.52606 0.0
H250 H 0.32006 0.07965 0.46277 0.0
H251 H 0.34464 0.06804 0.51363 0.0
H252 H 0.31203 0.10846 0.55549 0.0
H253 H 0.25431 0.16085 0.54652 0.0
C254 C 0.18561 0.18678 0.5174 0.0
C255 C 0.21747 0.1801 0.49296 0.0
C256 C 0.25219 0.15114 0.49828 0.0
C257 C 0.2708 0.1278 0.4742 0.0
C258 C 0.30417 0.09766 0.48029 0.0
C259 C 0.31884 0.09098 0.50938 0.0
C260 C 0.30051 0.11377 0.53295 0.0
C261 C 0.26743 0.14349 0.52759 0.0
H262 H 0.11236 0.87064 0.45788 0.0
C263 C 0.14527 0.88155 0.46218 0.0
H264 H 0.19333 0.89027 0.49534 0.0
H265 H 0.99248 0.87141 0.55298 0.0
H266 H 0.97931 0.94045 0.52946 0.0
H267 H 0.03699 0.97723 0.50099 0.0
H268 H 0.10772 0.94404 0.4951 0.0
C269 C 0.16081 0.87917 0.49015 0.0
C270 C 0.13205 0.86371 0.51477 0.0
C271 C 0.09244 0.88554 0.5206 0.0
C272 C 0.06054 0.86604 0.5391 0.0
C273 C 0.01921 0.886 0.54114 0.0
C274 C 0.01095 0.92558 0.52741 0.0
C275 C 0.0433 0.94616 0.51124 0.0
C276 C 0.08361 0.92654 0.50781 0.0
H277 H 0.033 0.85496 0.60477 0.0
C278 C 0.01937 0.82454 0.59719 0.0
H279 H 0.02251 0.77547 0.56455 0.0
H280 H 0.2066 0.81633 0.5112 0.0
H281 H 0.22263 0.74997 0.53812 0.0
H282 H 0.16942 0.71859 0.57311 0.0
H283 H 0.09964 0.75312 0.58123 0.0
C284 C 0.03629 0.80534 0.57293 0.0
C285 C 0.0701 0.82679 0.55432 0.0
C286 C 0.11106 0.80678 0.55033 0.0
C287 C 0.14199 0.82515 0.5304 0.0
C288 C 0.1821 0.80382 0.52618 0.0
C289 C 0.19171 0.76578 0.54151 0.0
C290 C 0.16173 0.7481 0.56122 0.0
C291 C 0.12181 0.76819 0.56564 0.0
H292 H 0.80197 0.87545 0.38704 0.0
C293 C 0.77587 0.89702 0.39372 0.0
H294 H 0.73169 0.91286 0.42807 0.0
H295 H 0.75459 0.74055 0.50321 0.0
H296 H 0.68526 0.7243 0.47985 0.0
H297 H 0.65697 0.76988 0.43894 0.0
H298 H 0.69761 0.83213 0.42118 0.0
C299 C 0.7565 0.89064 0.42023 0.0
C300 C 0.77537 0.86047 0.44264 0.0
C301 C 0.75169 0.8238 0.45223 0.0
C302 C 0.76803 0.79738 0.47573 0.0
C303 C 0.74337 0.76158 0.48547 0.0
C304 C 0.70371 0.7519 0.47221 0.0
C305 C 0.68779 0.77757 0.44915 0.0
C306 C 0.71136 0.81317 0.43919 0.0
H307 H 0.80018 0.8399 0.54253 0.0
C308 C 0.81732 0.80916 0.54314 0.0
H309 H 0.83969 0.75663 0.51704 0.0
H310 H 0.82751 0.93166 0.43277 0.0
H311 H 0.89785 0.94496 0.45432 0.0
H312 H 0.92951 0.89421 0.49087 0.0
H313 H 0.88991 0.83042 0.50661 0.0
C314 C 0.82121 0.78649 0.51777 0.0
C315 C 0.80807 0.80758 0.48932 0.0
C316 C 0.83315 0.84253 0.4784 0.0
C317 C 0.81606 0.87014 0.45596 0.0
C318 C 0.83977 0.90779 0.44821 0.0
C319 C 0.88019 0.91621 0.46074 0.0
C320 C 0.89791 0.88779 0.48141 0.0
C321 C 0.87475 0.85143 0.49031 0.0
H322 H 0.78477 0.10495 0.45743 0.0
C323 C 0.80834 0.09893 0.43987 0.0
H324 H 0.87355 0.104 0.42631 0.0
H325 H 0.87289 0.23465 0.54399 0.0
H326 H 0.82037 0.27868 0.5173 0.0
H327 H 0.7898 0.25427 0.46933 0.0
H328 H 0.81073 0.18532 0.44812 0.0
C329 C 0.84979 0.11101 0.44357 0.0
C330 C 0.86672 0.12636 0.47274 0.0
C331 C 0.85519 0.16745 0.48421 0.0
C332 C 0.87445 0.18254 0.51111 0.0
C333 C 0.8607 0.22261 0.52296 0.0
C334 C 0.83035 0.24801 0.50799 0.0
C335 C 0.81302 0.23419 0.48104 0.0
C336 C 0.82519 0.19443 0.46916 0.0
H337 H 0.95432 0.2307 0.52887 0.0
C338 C 0.95769 0.20963 0.54818 0.0
H339 H 0.93558 0.15459 0.57094 0.0
H340 H 0.89162 0.04375 0.45887 0.0
H341 H 0.94512 0.00039 0.48487 0.0
H342 H 0.98282 0.02872 0.52919 0.0
H343 H 0.96702 0.09989 0.54797 0.0
C344 C 0.9319 0.17494 0.55129 0.0
C345 C 0.90684 0.1575 0.52556 0.0
C346 C 0.91741 0.1158 0.51449 0.0
C347 C 0.89681 0.10003 0.48834 0.0
C348 C 0.9071 0.05785 0.47819 0.0
C349 C 0.93764 0.03247 0.49295 0.0
C350 C 0.95879 0.04836 0.51793 0.0
C351 C 0.9491 0.08945 0.52859 0.0
H352 H 0.74922 0.07661 0.92603 0.0
C353 C 0.76926 0.06916 0.90672 0.0
H354 H 0.82093 0.08863 0.8794 0.0
H355 H 0.78327 0.22274 -0.00315 0.0
H356 H 0.71519 0.24187 0.97274 0.0
H357 H 0.69488 0.2096 0.92437 0.0
H358 H 0.74237 0.15749 0.89999 0.0
C359 C 0.80139 0.09618 0.89887 0.0
C360 C 0.81901 0.12658 0.92153 0.0
C361 C 0.79203 0.1584 0.93469 0.0
C362 C 0.80419 0.17772 0.9622 0.0
C363 C 0.77563 0.20752 0.97579 0.0
C364 C 0.73659 0.21877 0.96216 0.0
C365 C 0.72512 0.20056 0.93494 0.0
C366 C 0.75241 0.17063 0.92126 0.0
H367 H 0.8717 0.23983 0.00231 0.0
C368 C 0.86867 0.21255 0.01747 0.0
H369 H 0.84947 0.14772 0.02297 0.0
H370 H 0.88286 0.0728 0.89937 0.0
H371 H 0.95256 0.05834 0.92172 0.0
H372 H 0.9742 0.09383 0.96862 0.0
H373 H 0.92563 0.14388 0.99353 0.0
C374 C 0.85166 0.17519 0.00788 0.0
C375 C 0.84374 0.16587 0.97592 0.0
C376 C 0.87318 0.13843 0.96082 0.0
C377 C 0.86086 0.11858 0.93357 0.0
C378 C 0.89021 0.08933 0.91993 0.0
C379 C 0.93058 0.08067 0.93254 0.0
C380 C 0.94275 0.10059 0.95895 0.0
C381 C 0.91451 0.12911 0.97305 0.0
H382 H 0.13634 0.13571 0.967 0.0
C383 C 0.17105 0.1316 0.96365 0.0
H384 H 0.23304 0.13976 0.98321 0.0
H385 H 0.06445 0.25008 0.04253 0.0
H386 H 0.0729 0.29699 -1e-05 0.0
H387 H 0.13165 0.28514 0.96352 0.0
H388 H 0.18179 0.22486 0.96945 0.0
C389 C 0.19833 0.14491 0.98511 0.0
C390 C 0.17943 0.16359 0.01287 0.0
C391 C 0.15289 0.20079 0.01078 0.0
C392 C 0.1205 0.20867 0.0327 0.0
C393 C 0.09111 0.24321 0.02777 0.0
C394 C 0.09537 0.27047 0.00313 0.0
C395 C 0.12835 0.26376 0.98254 0.0
C396 C 0.15671 0.22915 0.98611 0.0
H397 H 0.07868 0.2401 0.09448 0.0
C398 C 0.05994 0.21069 0.09172 0.0
H399 H 0.05702 0.14893 0.07225 0.0
H400 H 0.23356 0.09694 0.02702 0.0
H401 H 0.23167 0.05385 0.07257 0.0
H402 H 0.17808 0.0693 0.11211 0.0
H403 H 0.12578 0.12773 0.10625 0.0
C404 C 0.07602 0.17813 0.07529 0.0
C405 C 0.117 0.18051 0.05779 0.0
C406 C 0.14856 0.14776 0.06213 0.0
C407 C 0.17976 0.13914 0.03954 0.0
C408 C 0.20932 0.10471 0.04364 0.0
C409 C 0.20862 0.07991 0.06966 0.0
C410 C 0.17842 0.0886 0.09192 0.0
C411 C 0.14855 0.12202 0.08827 0.0
H412 H 0.21896 0.83657 0.02482 0.0
C413 C 0.20011 0.80688 0.02507 0.0
H414 H 0.16771 0.76116 -0.00161 0.0
H415 H 0.13891 0.94067 0.92938 0.0
H416 H 0.06852 0.92879 0.9511 0.0
H417 H 0.05372 0.86373 0.98127 0.0
H418 H 0.11022 0.81085 0.99046 0.0
C419 C 0.18973 0.7885 -0.00107 0.0
C420 C 0.19435 0.8154 0.9716 0.0
C421 C 0.16004 0.84384 0.96405 0.0
C422 C 0.16805 0.88001 0.94525 0.0
C423 C 0.1345 0.91101 0.94164 0.0
C424 C 0.09376 0.90492 0.9544 0.0
C425 C 0.08546 0.86844 0.97149 0.0
C426 C 0.11819 0.83837 0.97657 0.0
H427 H 0.17605 0.92018 0.88169 0.0
C428 C 0.20043 0.94054 0.89204 0.0
H429 H 0.24497 0.9469 0.92745 0.0
H430 H 0.26407 0.76244 0.9781 0.0
H431 H 0.33391 0.76987 0.95309 0.0
H432 H 0.34678 0.82941 0.91741 0.0
H433 H 0.29068 0.88263 0.90718 0.0
C434 C 0.22123 0.9264 0.91652 0.0
C435 C 0.20974 0.8854 0.93203 0.0
C436 C 0.24251 0.85408 0.93715 0.0
C437 C 0.23493 0.81932 0.95727 0.0
C438 C 0.26857 0.7894 0.96297 0.0
C439 C 0.30855 0.79324 0.94871 0.0
C440 C 0.31584 0.82683 0.92867 0.0
C441 C 0.28341 0.85714 0.92299 0.0
H442 H 0.79944 0.88253 0.98873 0.0
C443 C 0.81726 0.87939 0.96791 0.0
H444 H 0.87571 0.86173 0.94702 0.0
H445 H 0.0104 0.90253 0.04396 0.0
H446 H 0.0248 0.95777 0.00714 0.0
H447 H 0.97435 0.97043 0.96534 0.0
H448 H 0.90962 0.9272 0.95989 0.0
C449 C 0.85813 0.86426 0.96801 0.0
C450 C 0.8841 0.85992 0.99587 0.0
C451 C 0.92092 0.88682 -0.00049 0.0
C452 C 0.94911 0.88061 0.02423 0.0
C453 C 0.98696 0.90645 0.02624 0.0
C454 C 0.99581 0.93835 0.00514 0.0
C455 C 0.96752 0.94536 0.98156 0.0
C456 C 0.93052 0.92006 0.97865 0.0
H457 H 0.98348 0.77549 0.05703 0.0
C458 C 0.99413 0.80243 0.07069 0.0
H459 H 0.98291 0.86684 0.08336 0.0
H460 H 0.81713 0.80185 0.99531 0.0
H461 H 0.79978 0.7498 0.03407 0.0
H462 H 0.845 0.74369 0.07931 0.0
H463 H 0.90847 0.78904 0.08574 0.0
C464 C 0.97188 0.83975 0.07001 0.0
C465 C 0.9397 0.84839 0.0459 0.0
C466 C 0.90147 0.82328 0.04322 0.0
C467 C 0.87419 0.82827 0.01778 0.0
C468 C 0.83798 0.80065 0.01469 0.0
C469 C 0.82779 0.77045 0.03671 0.0
C470 C 0.85334 0.7669 0.06213 0.0
C471 C 0.8898 0.79291 0.06546 0.0
H472 H 0.09153 0.20614 0.69359 0.0
C473 C 0.10511 0.23054 0.67878 0.0
H474 H 0.15696 0.27415 0.67244 0.0
H475 H 0.14074 0.22364 0.81803 0.0
H476 H 0.08968 0.28357 0.81958 0.0
H477 H 0.07126 0.3241 0.77374 0.0
H478 H 0.10411 0.30503 0.72603 0.0
C479 C 0.13994 0.25286 0.68778 0.0
C480 C 0.16112 0.23952 0.71614 0.0
C481 C 0.14259 0.25153 0.74373 0.0
C482 C 0.15301 0.22794 0.76999 0.0
C483 C 0.13343 0.24017 0.7973 0.0
C484 C 0.10427 0.27457 0.7985 0.0
C485 C 0.0939 0.2974 0.77269 0.0
C486 C 0.11273 0.2861 0.74551 0.0
H487 H 0.24602 0.16575 0.80677 0.0
C488 C 0.21479 0.15069 0.81085 0.0
H489 H 0.14921 0.14599 0.79811 0.0
H490 H 0.20956 0.21564 0.66797 0.0
H491 H 0.26211 0.15709 0.66614 0.0
H492 H 0.27777 0.11337 0.711 0.0
H493 H 0.24161 0.12807 0.75787 0.0
C494 C 0.18071 0.16001 0.79322 0.0
C495 C 0.18155 0.19205 0.76845 0.0
C496 C 0.20369 0.18303 0.74138 0.0
C497 C 0.19394 0.2075 0.71529 0.0
C498 C 0.21559 0.1976 0.68829 0.0
C499 C 0.24578 0.1642 0.68696 0.0
C500 C 0.25464 0.13963 0.71224 0.0
C501 C 0.23373 0.14858 0.73912 0.0
H502 H 0.18217 0.74103 0.188 0.0
C503 C 0.17201 0.77324 0.1813 0.0
H504 H 0.17073 0.83952 0.19189 0.0
H505 H 0.19037 0.79102 0.33059 0.0
H506 H 0.12609 0.74596 0.32612 0.0
H507 H 0.09646 0.72764 0.27657 0.0
H508 H 0.13089 0.75377 0.23131 0.0
C509 C 0.17951 0.80718 0.19923 0.0
C510 C 0.20349 0.80472 0.22792 0.0
C511 C 0.18327 0.78814 0.25397 0.0
C512 C 0.19987 0.79924 0.28256 0.0
C513 C 0.17864 0.78364 0.30841 0.0
C514 C 0.14189 0.75778 0.30612 0.0
C515 C 0.12524 0.74744 0.27821 0.0
C516 C 0.14538 0.76259 0.25236 0.0
H517 H 0.20542 0.90438 0.29476 0.0
C518 C 0.22221 0.89182 0.31432 0.0
H519 H 0.2553 0.83774 0.33238 0.0
H520 H 0.25558 0.8325 0.18246 0.0
H521 H 0.32171 0.87472 0.18742 0.0
H522 H 0.34921 0.89518 0.23719 0.0
H523 H 0.31071 0.87332 0.28236 0.0
C524 C 0.24137 0.85296 0.31271 0.0
C525 C 0.23558 0.82768 0.28485 0.0
C526 C 0.25893 0.83942 0.25896 0.0
C527 C 0.24294 0.82781 0.2304 0.0
C528 C 0.26621 0.841 0.20472 0.0
C529 C 0.3042 0.86502 0.20729 0.0
C530 C 0.31969 0.87653 0.23531 0.0
C531 C 0.29735 0.86403 0.26097 0.0
H532 H 0.83153 0.72284 0.70137 0.0
C533 C 0.83543 0.75684 0.69599 0.0
H534 H 0.82004 0.82113 0.70728 0.0
H535 H 0.66532 0.82465 0.78714 0.0
H536 H 0.62781 0.83371 0.73951 0.0
H537 H 0.66474 0.81658 0.69203 0.0
H538 H 0.73932 0.7903 0.69182 0.0
C539 C 0.81764 0.78728 0.71356 0.0
C540 C 0.79099 0.77846 0.74049 0.0
C541 C 0.74715 0.79202 0.74027 0.0
C542 C 0.72589 0.80188 0.76751 0.0
C543 C 0.68271 0.81711 0.76679 0.0
C544 C 0.66096 0.82223 0.73973 0.0
C545 C 0.68177 0.81258 0.71298 0.0
C546 C 0.72446 0.79775 0.71312 0.0
H547 H 0.74939 0.88191 0.79666 0.0
C548 C 0.74061 0.86828 0.81825 0.0
H549 H 0.73145 0.81066 0.84256 0.0
H550 H 0.87159 0.74336 0.74894 0.0
H551 H 0.9061 0.7284 0.79657 0.0
H552 H 0.86833 0.74399 0.84393 0.0
H553 H 0.79588 0.77492 0.8439 0.0
C554 C 0.73554 0.82533 0.82068 0.0
C555 C 0.74859 0.79814 0.79478 0.0
C556 C 0.7896 0.77746 0.79529 0.0
C557 C 0.81119 0.76803 0.76798 0.0
C558 C 0.8536 0.75071 0.76899 0.0
C559 C 0.87375 0.74198 0.79619 0.0
C560 C 0.8525 0.75078 0.82287 0.0
C561 C 0.811 0.7686 0.82256 0.0
H562 H 0.77759 0.07188 0.26834 0.0
C563 C 0.75882 0.08342 0.2873 0.0
H564 H 0.72797 0.13761 0.30639 0.0
H565 H 0.875 0.23387 0.23048 0.0
H566 H 0.89357 0.25343 0.28122 0.0
H567 H 0.84926 0.22822 0.32368 0.0
H568 H 0.78619 0.18289 0.31554 0.0
C569 C 0.74298 0.12382 0.28663 0.0
C570 C 0.7572 0.15269 0.26189 0.0
C571 C 0.79214 0.18143 0.26687 0.0
C572 C 0.81724 0.19658 0.24232 0.0
C573 C 0.85423 0.22217 0.24813 0.0
C574 C 0.86535 0.23355 0.27722 0.0
C575 C 0.84043 0.21932 0.30113 0.0
C576 C 0.80438 0.1933 0.29617 0.0
H577 H 0.83841 0.25377 0.18222 0.0
C578 C 0.85105 0.22285 0.17478 0.0
H579 H 0.85001 0.15518 0.18006 0.0
H580 H 0.68568 0.10768 0.24511 0.0
H581 H 0.66312 0.09233 0.19404 0.0
H582 H 0.70544 0.11977 0.15121 0.0
H583 H 0.77056 0.16255 0.15911 0.0
C584 C 0.8386 0.18612 0.18839 0.0
C585 C 0.80619 0.18384 0.2129 0.0
C586 C 0.7675 0.16035 0.20787 0.0
C587 C 0.74303 0.14465 0.23244 0.0
C588 C 0.70541 0.11993 0.22697 0.0
C589 C 0.69211 0.11114 0.19788 0.0
C590 C 0.71595 0.12659 0.17376 0.0
C591 C 0.75329 0.15089 0.17857 0.0
loop_
_geom_bond_atom_site_label_1
_geom_bond_atom_site_label_2
_geom_bond_distance
_geom_bond_site_symmetry_2
_ccdc_geom_bond_type
Zn0 O3 2.031 1_455 S
Zn0 O5 2.049 . S
Zn0 O10 2.067 . S
Zn1 O2 1.962 1_455 S
Zn1 O4 1.986 . S
Zn1 O6 1.996 . S
Zn1 O9 1.943 . S
O2 Zn1 1.962 1_655 S
O2 C7 1.254 . S
O3 Zn0 2.031 1_655 S
O3 C7 1.269 . S
O4 Zn1 1.986 . S
O4 C11 1.262 . S
O5 Zn0 2.049 . S
O5 C13 1.260 . S
O6 Zn1 1.996 . S
O6 C13 1.257 . S
C7 O2 1.254 . S
C7 O3 1.269 . S
C8 O9 1.249 . S
C8 O10 1.270 . S
O9 Zn1 1.943 . S
O9 C8 1.249 . S
O10 Zn0 2.067 . S
O10 C8 1.270 . S
C11 O4 1.262 . S
C11 O12 1.232 . S
O12 C11 1.232 . S
C13 O5 1.260 . S
C13 O6 1.257 . S
Zn14 O17 2.031 1_565 S
Zn14 O19 2.049 . S
Zn14 O24 2.067 . S
Zn15 O16 1.962 1_565 S
Zn15 O18 1.986 . S
Zn15 O20 1.996 . S
Zn15 O23 1.943 . S
O16 Zn15 1.962 1_545 S
O16 C21 1.254 . S
O17 Zn14 2.031 1_545 S
O17 C21 1.269 . S
O18 Zn15 1.986 . S
O18 C25 1.262 . S
O19 Zn14 2.049 . S
O19 C27 1.260 . S
O20 Zn15 1.996 . S
O20 C27 1.257 . S
C21 O16 1.254 . S
C21 O17 1.269 . S
C22 O23 1.249 . S
C22 O24 1.270 . S
O23 Zn15 1.943 . S
O23 C22 1.249 . S
O24 Zn14 2.067 . S
O24 C22 1.270 . S
C25 O18 1.262 . S
C25 O26 1.232 . S
O26 C25 1.232 . S
C27 O19 1.260 . S
C27 O20 1.257 . S
Zn28 O31 2.031 1_655 S
Zn28 O33 2.049 . S
Zn28 O38 2.067 . S
Zn29 O30 1.962 1_655 S
Zn29 O32 1.986 . S
Zn29 O34 1.996 . S
Zn29 O37 1.943 . S
O30 Zn29 1.962 1_455 S
O30 C35 1.254 . S
O31 Zn28 2.031 1_455 S
O31 C35 1.269 . S
O32 Zn29 1.986 . S
O32 C39 1.262 . S
O33 Zn28 2.049 . S
O33 C41 1.260 . S
O34 Zn29 1.996 . S
O34 C41 1.257 . S
C35 O30 1.254 . S
C35 O31 1.269 . S
C36 O37 1.249 . S
C36 O38 1.270 . S
O37 Zn29 1.943 . S
O37 C36 1.249 . S
O38 Zn28 2.067 . S
O38 C36 1.270 . S
C39 O32 1.262 . S
C39 O40 1.232 . S
O40 C39 1.232 . S
C41 O33 1.260 . S
C41 O34 1.257 . S
Zn42 O45 2.031 1_545 S
Zn42 O47 2.049 . S
Zn42 O52 2.067 . S
Zn43 O44 1.962 1_545 S
Zn43 O46 1.986 . S
Zn43 O48 1.996 . S
Zn43 O51 1.943 . S
O44 Zn43 1.962 1_565 S
O44 C49 1.254 . S
O45 Zn42 2.031 1_565 S
O45 C49 1.269 . S
O46 Zn43 1.986 . S
O46 C53 1.262 . S
O47 Zn42 2.049 . S
O47 C55 1.260 . S
O48 Zn43 1.996 . S
O48 C55 1.257 . S
C49 O44 1.254 . S
C49 O45 1.269 . S
C50 O51 1.249 . S
C50 O52 1.270 . S
O51 Zn43 1.943 . S
O51 C50 1.249 . S
O52 Zn42 2.067 . S
O52 C50 1.270 . S
C53 O46 1.262 . S
C53 O54 1.232 . S
O54 C53 1.232 . S
C55 O47 1.260 . S
C55 O48 1.257 . S
Zn56 O59 2.031 1_655 S
Zn56 O61 2.049 . S
Zn56 O66 2.067 . S
Zn57 O58 1.962 1_655 S
Zn57 O60 1.986 . S
Zn57 O62 1.996 . S
Zn57 O65 1.943 . S
O58 Zn57 1.962 1_455 S
O58 C63 1.254 . S
O59 Zn56 2.031 1_455 S
O59 C63 1.269 . S
O60 Zn57 1.986 . S
O60 C67 1.262 . S
O61 Zn56 2.049 . S
O61 C69 1.260 . S
O62 Zn57 1.996 . S
O62 C69 1.257 . S
C63 O58 1.254 . S
C63 O59 1.269 . S
C64 O65 1.249 . S
C64 O66 1.270 . S
O65 Zn57 1.943 . S
O65 C64 1.249 . S
O66 Zn56 2.067 . S
O66 C64 1.270 . S
C67 O60 1.262 . S
C67 O68 1.232 . S
O68 C67 1.232 . S
C69 O61 1.260 . S
C69 O62 1.257 . S
Zn70 O73 2.031 1_545 S
Zn70 O75 2.049 . S
Zn70 O80 2.067 . S
Zn71 O72 1.962 1_545 S
Zn71 O74 1.986 . S
Zn71 O76 1.996 . S
Zn71 O79 1.943 . S
O72 Zn71 1.962 1_565 S
O72 C77 1.254 . S
O73 Zn70 2.031 1_565 S
O73 C77 1.269 . S
O74 Zn71 1.986 . S
O74 C81 1.262 . S
O75 Zn70 2.049 . S
O75 C83 1.260 . S
O76 Zn71 1.996 . S
O76 C83 1.257 . S
C77 O72 1.254 . S
C77 O73 1.269 . S
C78 O79 1.249 . S
C78 O80 1.270 . S
O79 Zn71 1.943 . S
O79 C78 1.249 . S
O80 Zn70 2.067 . S
O80 C78 1.270 . S
C81 O74 1.262 . S
C81 O82 1.232 . S
O82 C81 1.232 . S
C83 O75 1.260 . S
C83 O76 1.257 . S
Zn84 O87 2.031 1_455 S
Zn84 O89 2.049 . S
Zn84 O94 2.067 . S
Zn85 O86 1.962 1_455 S
Zn85 O88 1.986 . S
Zn85 O90 1.996 . S
Zn85 O93 1.943 . S
O86 Zn85 1.962 1_655 S
O86 C91 1.254 . S
O87 Zn84 2.031 1_655 S
O87 C91 1.269 . S
O88 Zn85 1.986 . S
O88 C95 1.262 . S
O89 Zn84 2.049 . S
O89 C97 1.260 . S
O90 Zn85 1.996 . S
O90 C97 1.257 . S
C91 O86 1.254 . S
C91 O87 1.269 . S
C92 O93 1.249 . S
C92 O94 1.270 . S
O93 Zn85 1.943 . S
O93 C92 1.249 . S
O94 Zn84 2.067 . S
O94 C92 1.270 . S
C95 O88 1.262 . S
C95 O96 1.232 . S
O96 C95 1.232 . S
C97 O89 1.260 . S
C97 O90 1.257 . S
Zn98 O101 2.031 1_565 S
Zn98 O103 2.049 . S
Zn98 O108 2.067 . S
Zn99 O100 1.962 1_565 S
Zn99 O102 1.986 . S
Zn99 O104 1.996 . S
Zn99 O107 1.943 . S
O100 Zn99 1.962 1_545 S
O100 C105 1.254 . S
O101 Zn98 2.031 1_545 S
O101 C105 1.269 . S
O102 Zn99 1.986 . S
O102 C109 1.262 . S
O103 Zn98 2.049 . S
O103 C111 1.260 . S
O104 Zn99 1.996 . S
O104 C111 1.257 . S
C105 O100 1.254 . S
C105 O101 1.269 . S
C106 O107 1.249 . S
C106 O108 1.270 . S
O107 Zn99 1.943 . S
O107 C106 1.249 . S
O108 Zn98 2.067 . S
O108 C106 1.270 . S
C109 O102 1.262 . S
C109 O110 1.232 . S
O110 C109 1.232 . S
C111 O103 1.260 . S
C111 O104 1.257 . S
H112 C113 0.951 1_455 S
C113 H112 0.951 1_655 S
C113 C119 1.265 . S
H114 C119 0.950 . S
H115 C123 0.949 1_455 S
H116 C124 0.950 . S
H117 C125 0.951 . S
H118 C126 0.951 . S
C119 C113 1.265 . S
C119 H114 0.950 . S
C119 C120 1.478 . S
C120 C119 1.478 . S
C120 C121 1.397 . S
C120 C137 1.394 1_655 S
C121 C120 1.397 . S
C121 C122 1.438 . S
C121 C126 1.429 . S
C122 C121 1.438 . S
C122 C123 1.428 . S
C122 C135 1.394 1_655 S
C123 H115 0.949 1_655 S
C123 C122 1.428 . S
C123 C124 1.345 . S
C124 H116 0.950 . S
C124 C123 1.345 . S
C124 C125 1.424 . S
C125 H117 0.951 . S
C125 C124 1.424 . S
C125 C126 1.347 . S
C126 H118 0.951 . S
C126 C121 1.429 . S
C126 C125 1.347 . S
H127 C128 0.951 1_655 S
C128 H127 0.951 1_455 S
C128 C134 1.265 . S
H129 C134 0.950 . S
H130 C138 0.949 1_655 S
H131 C139 0.950 . S
H132 C140 0.951 . S
H133 C141 0.951 . S
C134 C128 1.265 . S
C134 H129 0.950 . S
C134 C135 1.478 . S
C135 C122 1.394 1_455 S
C135 C134 1.478 . S
C135 C136 1.397 . S
C136 C135 1.397 . S
C136 C137 1.438 . S
C136 C141 1.429 . S
C137 C120 1.394 1_455 S
C137 C136 1.438 . S
C137 C138 1.428 . S
C138 H130 0.949 1_455 S
C138 C137 1.428 . S
C138 C139 1.345 . S
C139 H131 0.950 . S
C139 C138 1.345 . S
C139 C140 1.424 . S
C140 H132 0.951 . S
C140 C139 1.424 . S
C140 C141 1.347 . S
C141 H133 0.951 . S
C141 C136 1.429 . S
C141 C140 1.347 . S
H142 C143 0.951 1_565 S
C143 H142 0.951 1_545 S
C143 C149 1.265 . S
H144 C149 0.950 . S
H145 C153 0.949 1_565 S
H146 C154 0.950 . S
H147 C155 0.951 . S
H148 C156 0.951 . S
C149 C143 1.265 . S
C149 H144 0.950 . S
C149 C150 1.478 . S
C150 C149 1.478 . S
C150 C151 1.397 . S
C150 C167 1.394 1_545 S
C151 C150 1.397 . S
C151 C152 1.438 . S
C151 C156 1.429 . S
C152 C151 1.438 . S
C152 C153 1.428 . S
C152 C165 1.394 1_545 S
C153 H145 0.949 1_545 S
C153 C152 1.428 . S
C153 C154 1.345 . S
C154 H146 0.950 . S
C154 C153 1.345 . S
C154 C155 1.424 . S
C155 H147 0.951 . S
C155 C154 1.424 . S
C155 C156 1.347 . S
C156 H148 0.951 . S
C156 C151 1.429 . S
C156 C155 1.347 . S
H157 C158 0.951 1_545 S
C158 H157 0.951 1_565 S
C158 C164 1.265 . S
H159 C164 0.950 . S
H160 C168 0.949 1_545 S
H161 C169 0.950 . S
H162 C170 0.951 . S
H163 C171 0.951 . S
C164 C158 1.265 . S
C164 H159 0.950 . S
C164 C165 1.478 . S
C165 C152 1.394 1_565 S
C165 C164 1.478 . S
C165 C166 1.397 . S
C166 C165 1.397 . S
C166 C167 1.438 . S
C166 C171 1.429 . S
C167 C150 1.394 1_565 S
C167 C166 1.438 . S
C167 C168 1.428 . S
C168 H160 0.949 1_565 S
C168 C167 1.428 . S
C168 C169 1.345 . S
C169 H161 0.950 . S
C169 C168 1.345 . S
C169 C170 1.424 . S
C170 H162 0.951 . S
C170 C169 1.424 . S
C170 C171 1.347 . S
C171 H163 0.951 . S
C171 C166 1.429 . S
C171 C170 1.347 . S
H172 C173 0.951 . S
C173 H172 0.951 . S
C173 C179 1.265 1_655 S
H174 C179 0.950 . S
H175 C183 0.949 . S
H176 C184 0.950 . S
H177 C185 0.951 . S
H178 C186 0.951 . S
C179 C173 1.265 1_455 S
C179 H174 0.950 . S
C179 C180 1.479 . S
C180 C179 1.479 . S
C180 C181 1.399 . S
C180 C197 1.391 1_455 S
C181 C180 1.399 . S
C181 C182 1.438 . S
C181 C186 1.429 . S
C182 C181 1.438 . S
C182 C183 1.428 . S
C182 C195 1.391 1_455 S
C183 H175 0.949 . S
C183 C182 1.428 . S
C183 C184 1.345 . S
C184 H176 0.950 . S
C184 C183 1.345 . S
C184 C185 1.424 . S
C185 H177 0.951 . S
C185 C184 1.424 . S
C185 C186 1.347 . S
C186 H178 0.951 . S
C186 C181 1.429 . S
C186 C185 1.347 . S
H187 C188 0.951 . S
C188 H187 0.951 . S
C188 C194 1.265 1_455 S
H189 C194 0.950 . S
H190 C198 0.949 . S
H191 C199 0.950 . S
H192 C200 0.951 . S
H193 C201 0.951 . S
C194 C188 1.265 1_655 S
C194 H189 0.950 . S
C194 C195 1.479 . S
C195 C182 1.391 1_655 S
C195 C194 1.479 . S
C195 C196 1.399 . S
C196 C195 1.399 . S
C196 C197 1.438 . S
C196 C201 1.429 . S
C197 C180 1.391 1_655 S
C197 C196 1.438 . S
C197 C198 1.428 . S
C198 H190 0.949 . S
C198 C197 1.428 . S
C198 C199 1.345 . S
C199 H191 0.950 . S
C199 C198 1.345 . S
C199 C200 1.424 . S
C200 H192 0.951 . S
C200 C199 1.424 . S
C200 C201 1.347 . S
C201 H193 0.951 . S
C201 C196 1.429 . S
C201 C200 1.347 . S
H202 C203 0.951 1_565 S
C203 H202 0.951 1_545 S
C203 C209 1.265 . S
H204 C209 0.950 . S
H205 C213 0.949 . S
H206 C214 0.950 . S
H207 C215 0.951 . S
H208 C216 0.951 . S
C209 C203 1.265 . S
C209 H204 0.950 . S
C209 C210 1.478 . S
C210 C209 1.478 . S
C210 C211 1.397 . S
C210 C227 1.394 . S
C211 C210 1.397 . S
C211 C212 1.438 1_545 S
C211 C216 1.429 . S
C212 C211 1.438 1_565 S
C212 C213 1.428 . S
C212 C225 1.394 . S
C213 H205 0.949 . S
C213 C212 1.428 . S
C213 C214 1.345 1_565 S
C214 H206 0.950 . S
C214 C213 1.345 1_545 S
C214 C215 1.424 . S
C215 H207 0.951 . S
C215 C214 1.424 . S
C215 C216 1.347 . S
C216 H208 0.951 . S
C216 C211 1.429 . S
C216 C215 1.347 . S
H217 C218 0.951 1_545 S
C218 H217 0.951 1_565 S
C218 C224 1.265 . S
H219 C224 0.950 . S
H220 C228 0.949 . S
H221 C229 0.950 . S
H222 C230 0.951 . S
H223 C231 0.951 . S
C224 C218 1.265 . S
C224 H219 0.950 . S
C224 C225 1.478 . S
C225 C212 1.394 . S
C225 C224 1.478 . S
C225 C226 1.397 . S
C226 C225 1.397 . S
C226 C227 1.438 1_565 S
C226 C231 1.429 . S
C227 C210 1.394 . S
C227 C226 1.438 1_545 S
C227 C228 1.428 . S
C228 H220 0.949 . S
C228 C227 1.428 . S
C228 C229 1.345 1_545 S
C229 H221 0.950 . S
C229 C228 1.345 1_565 S
C229 C230 1.424 . S
C230 H222 0.951 . S
C230 C229 1.424 . S
C230 C231 1.347 . S
C231 H223 0.951 . S
C231 C226 1.429 . S
C231 C230 1.347 . S
H232 C233 0.951 . S
C233 H232 0.951 . S
C233 C239 1.265 . S
H234 C239 0.950 . S
H235 C243 0.949 . S
H236 C244 0.950 . S
H237 C245 0.951 . S
H238 C246 0.951 . S
C239 C233 1.265 . S
C239 H234 0.950 . S
C239 C240 1.478 . S
C240 C239 1.478 . S
C240 C241 1.397 . S
C240 C257 1.394 . S
C241 C240 1.397 . S
C241 C242 1.438 . S
C241 C246 1.429 . S
C242 C241 1.438 . S
C242 C243 1.428 . S
C242 C255 1.394 . S
C243 H235 0.949 . S
C243 C242 1.428 . S
C243 C244 1.345 . S
C244 H236 0.950 . S
C244 C243 1.345 . S
C244 C245 1.424 . S
C245 H237 0.951 . S
C245 C244 1.424 . S
C245 C246 1.347 . S
C246 H238 0.951 . S
C246 C241 1.429 . S
C246 C245 1.347 . S
H247 C248 0.951 . S
C248 H247 0.951 . S
C248 C254 1.265 . S
H249 C254 0.950 . S
H250 C258 0.949 . S
H251 C259 0.950 . S
H252 C260 0.951 . S
H253 C261 0.951 . S
C254 C248 1.265 . S
C254 H249 0.950 . S
C254 C255 1.478 . S
C255 C242 1.394 . S
C255 C254 1.478 . S
C255 C256 1.397 . S
C256 C255 1.397 . S
C256 C257 1.438 . S
C256 C261 1.429 . S
C257 C240 1.394 . S
C257 C256 1.438 . S
C257 C258 1.428 . S
C258 H250 0.949 . S
C258 C257 1.428 . S
C258 C259 1.345 . S
C259 H251 0.950 . S
C259 C258 1.345 . S
C259 C260 1.424 . S
C260 H252 0.951 . S
C260 C259 1.424 . S
C260 C261 1.347 . S
C261 H253 0.951 . S
C261 C256 1.429 . S
C261 C260 1.347 . S
H262 C263 0.951 . S
C263 H262 0.951 . S
C263 C269 1.265 . S
H264 C269 0.950 . S
H265 C273 0.949 . S
H266 C274 0.950 . S
H267 C275 0.951 . S
H268 C276 0.951 . S
C269 C263 1.265 . S
C269 H264 0.950 . S
C269 C270 1.478 . S
C270 C269 1.478 . S
C270 C271 1.397 . S
C270 C287 1.394 . S
C271 C270 1.397 . S
C271 C272 1.438 . S
C271 C276 1.429 . S
C272 C271 1.438 . S
C272 C273 1.428 . S
C272 C285 1.394 . S
C273 H265 0.949 . S
C273 C272 1.428 . S
C273 C274 1.345 . S
C274 H266 0.950 . S
C274 C273 1.345 . S
C274 C275 1.424 . S
C275 H267 0.951 . S
C275 C274 1.424 . S
C275 C276 1.347 . S
C276 H268 0.951 . S
C276 C271 1.429 . S
C276 C275 1.347 . S
H277 C278 0.951 . S
C278 H277 0.951 . S
C278 C284 1.265 . S
H279 C284 0.950 . S
H280 C288 0.949 . S
H281 C289 0.950 . S
H282 C290 0.951 . S
H283 C291 0.951 . S
C284 C278 1.265 . S
C284 H279 0.950 . S
C284 C285 1.478 . S
C285 C272 1.394 . S
C285 C284 1.478 . S
C285 C286 1.397 . S
C286 C285 1.397 . S
C286 C287 1.438 . S
C286 C291 1.429 . S
C287 C270 1.394 . S
C287 C286 1.438 . S
C287 C288 1.428 . S
C288 H280 0.949 . S
C288 C287 1.428 . S
C288 C289 1.345 . S
C289 H281 0.950 . S
C289 C288 1.345 . S
C289 C290 1.424 . S
C290 H282 0.951 . S
C290 C289 1.424 . S
C290 C291 1.347 . S
C291 H283 0.951 . S
C291 C286 1.429 . S
C291 C290 1.347 . S
H292 C293 0.951 . S
C293 H292 0.951 . S
C293 C299 1.265 . S
H294 C299 0.950 . S
H295 C303 0.949 . S
H296 C304 0.950 . S
H297 C305 0.951 . S
H298 C306 0.951 . S
C299 C293 1.265 . S
C299 H294 0.950 . S
C299 C300 1.478 . S
C300 C299 1.478 . S
C300 C301 1.397 . S
C300 C317 1.394 . S
C301 C300 1.397 . S
C301 C302 1.438 . S
C301 C306 1.429 . S
C302 C301 1.438 . S
C302 C303 1.428 . S
C302 C315 1.394 . S
C303 H295 0.949 . S
C303 C302 1.428 . S
C303 C304 1.345 . S
C304 H296 0.950 . S
C304 C303 1.345 . S
C304 C305 1.424 . S
C305 H297 0.951 . S
C305 C304 1.424 . S
C305 C306 1.347 . S
C306 H298 0.951 . S
C306 C301 1.429 . S
C306 C305 1.347 . S
H307 C308 0.951 . S
C308 H307 0.951 . S
C308 C314 1.265 . S
H309 C314 0.950 . S
H310 C318 0.949 . S
H311 C319 0.950 1_545 S
H312 C320 0.951 . S
H313 C321 0.951 . S
C314 C308 1.265 . S
C314 H309 0.950 . S
C314 C315 1.478 . S
C315 C302 1.394 . S
C315 C314 1.478 . S
C315 C316 1.397 . S
C316 C315 1.397 . S
C316 C317 1.438 . S
C316 C321 1.429 . S
C317 C300 1.394 . S
C317 C316 1.438 . S
C317 C318 1.428 . S
C318 H310 0.949 . S
C318 C317 1.428 . S
C318 C319 1.345 . S
C319 H311 0.950 1_565 S
C319 C318 1.345 . S
C319 C320 1.424 . S
C320 H312 0.951 . S
C320 C319 1.424 . S
C320 C321 1.347 . S
C321 H313 0.951 . S
C321 C316 1.429 . S
C321 C320 1.347 . S
H322 C323 0.951 . S
C323 H322 0.951 . S
C323 C329 1.265 . S
H324 C329 0.950 . S
H325 C333 0.949 . S
H326 C334 0.950 . S
H327 C335 0.951 . S
H328 C336 0.951 . S
C329 C323 1.265 . S
C329 H324 0.950 . S
C329 C330 1.478 . S
C330 C329 1.478 . S
C330 C331 1.397 . S
C330 C347 1.394 . S
C331 C330 1.397 . S
C331 C332 1.438 . S
C331 C336 1.429 . S
C332 C331 1.438 . S
C332 C333 1.428 . S
C332 C345 1.394 . S
C333 H325 0.949 . S
C333 C332 1.428 . S
C333 C334 1.345 . S
C334 H326 0.950 . S
C334 C333 1.345 . S
C334 C335 1.424 . S
C335 H327 0.951 . S
C335 C334 1.424 . S
C335 C336 1.347 . S
C336 H328 0.951 . S
C336 C331 1.429 . S
C336 C335 1.347 . S
H337 C338 0.951 . S
C338 H337 0.951 . S
C338 C344 1.265 . S
H339 C344 0.950 . S
H340 C348 0.949 . S
H341 C349 0.950 . S
H342 C350 0.951 . S
H343 C351 0.951 . S
C344 C338 1.265 . S
C344 H339 0.950 . S
C344 C345 1.478 . S
C345 C332 1.394 . S
C345 C344 1.478 . S
C345 C346 1.397 . S
C346 C345 1.397 . S
C346 C347 1.438 . S
C346 C351 1.429 . S
C347 C330 1.394 . S
C347 C346 1.438 . S
C347 C348 1.428 . S
C348 H340 0.949 . S
C348 C347 1.428 . S
C348 C349 1.345 . S
C349 H341 0.950 . S
C349 C348 1.345 . S
C349 C350 1.424 . S
C350 H342 0.951 . S
C350 C349 1.424 . S
C350 C351 1.347 . S
C351 H343 0.951 . S
C351 C346 1.429 . S
C351 C350 1.347 . S
H352 C353 0.951 . S
C353 H352 0.951 . S
C353 C359 1.265 . S
H354 C359 0.950 . S
H355 C363 0.949 1_554 S
H356 C364 0.950 . S
H357 C365 0.951 . S
H358 C366 0.951 . S
C359 C353 1.265 . S
C359 H354 0.950 . S
C359 C360 1.478 . S
C360 C359 1.478 . S
C360 C361 1.397 . S
C360 C377 1.394 . S
C361 C360 1.397 . S
C361 C362 1.438 . S
C361 C366 1.429 . S
C362 C361 1.438 . S
C362 C363 1.428 . S
C362 C375 1.394 1_556 S
C363 H355 0.949 1_556 S
C363 C362 1.428 . S
C363 C364 1.345 . S
C364 H356 0.950 . S
C364 C363 1.345 . S
C364 C365 1.424 . S
C365 H357 0.951 . S
C365 C364 1.424 . S
C365 C366 1.347 . S
C366 H358 0.951 . S
C366 C361 1.429 . S
C366 C365 1.347 . S
H367 C368 0.951 . S
C368 H367 0.951 . S
C368 C374 1.265 . S
H369 C374 0.950 . S
H370 C378 0.949 . S
H371 C379 0.950 1_565 S
H372 C380 0.951 . S
H373 C381 0.951 . S
C374 C368 1.265 . S
C374 H369 0.950 . S
C374 C375 1.478 . S
C375 C362 1.394 1_554 S
C375 C374 1.478 . S
C375 C376 1.397 . S
C376 C375 1.397 . S
C376 C377 1.438 1_554 S
C376 C381 1.429 . S
C377 C360 1.394 . S
C377 C376 1.438 1_556 S
C377 C378 1.428 . S
C378 H370 0.949 . S
C378 C377 1.428 . S
C378 C379 1.345 1_556 S
C379 H371 0.950 1_545 S
C379 C378 1.345 1_554 S
C379 C380 1.424 . S
C380 H372 0.951 . S
C380 C379 1.424 . S
C380 C381 1.347 . S
C381 H373 0.951 . S
C381 C376 1.429 . S
C381 C380 1.347 . S
H382 C383 0.951 . S
C383 H382 0.951 . S
C383 C389 1.265 . S
H384 C389 0.950 . S
H385 C393 0.964 . S
H386 C394 0.950 . S
H387 C395 0.951 . S
H388 C396 0.951 . S
C389 C383 1.265 . S
C389 H384 0.950 . S
C389 C390 1.478 . S
C390 C389 1.478 . S
C390 C391 1.397 . S
C390 C407 1.394 1_556 S
C391 C390 1.397 . S
C391 C392 1.438 1_556 S
C391 C396 1.429 . S
C392 C391 1.438 1_554 S
C392 C393 1.431 . S
C392 C405 1.394 . S
C393 H385 0.964 . S
C393 C392 1.431 . S
C393 C394 1.327 1_554 S
C394 H386 0.950 . S
C394 C393 1.327 1_556 S
C394 C395 1.424 . S
C395 H387 0.951 . S
C395 C394 1.424 . S
C395 C396 1.347 . S
C396 H388 0.951 . S
C396 C391 1.429 . S
C396 C395 1.347 . S
H397 C398 0.951 . S
C398 H397 0.951 . S
C398 C404 1.265 . S
H399 C404 0.950 . S
H400 C408 0.935 1_556 S
H401 C409 0.950 . S
H402 C410 0.951 . S
H403 C411 0.951 . S
C404 C398 1.265 . S
C404 H399 0.950 . S
C404 C405 1.478 . S
C405 C392 1.394 . S
C405 C404 1.478 . S
C405 C406 1.397 . S
C406 C405 1.397 . S
C406 C407 1.438 . S
C406 C411 1.429 . S
C407 C390 1.394 1_554 S
C407 C406 1.438 . S
C407 C408 1.428 . S
C408 H400 0.935 1_554 S
C408 C407 1.428 . S
C408 C409 1.345 . S
C409 H401 0.950 . S
C409 C408 1.345 . S
C409 C410 1.424 . S
C410 H402 0.951 . S
C410 C409 1.424 . S
C410 C411 1.347 . S
C411 H403 0.951 . S
C411 C406 1.429 . S
C411 C410 1.347 . S
H412 C413 0.951 . S
C413 H412 0.951 . S
C413 C419 1.265 . S
H414 C419 0.950 . S
H415 C423 0.949 . S
H416 C424 0.950 1_545 S
H417 C425 0.951 . S
H418 C426 0.951 . S
C419 C413 1.265 . S
C419 H414 0.950 . S
C419 C420 1.478 . S
C420 C419 1.478 . S
C420 C421 1.397 . S
C420 C437 1.394 1_554 S
C421 C420 1.397 . S
C421 C422 1.438 1_554 S
C421 C426 1.429 . S
C422 C421 1.438 1_556 S
C422 C423 1.428 . S
C422 C435 1.394 . S
C423 H415 0.949 . S
C423 C422 1.428 . S
C423 C424 1.345 1_556 S
C424 H416 0.950 1_565 S
C424 C423 1.345 1_554 S
C424 C425 1.424 . S
C425 H417 0.951 . S
C425 C424 1.424 . S
C425 C426 1.347 . S
C426 H418 0.951 . S
C426 C421 1.429 . S
C426 C425 1.347 . S
H427 C428 0.951 . S
C428 H427 0.951 . S
C428 C434 1.265 . S
H429 C434 0.950 . S
H430 C438 0.949 1_554 S
H431 C439 0.950 . S
H432 C440 0.951 . S
H433 C441 0.951 . S
C434 C428 1.265 . S
C434 H429 0.950 . S
C434 C435 1.478 . S
C435 C422 1.394 . S
C435 C434 1.478 . S
C435 C436 1.397 . S
C436 C435 1.397 . S
C436 C437 1.438 . S
C436 C441 1.429 . S
C437 C420 1.394 1_556 S
C437 C436 1.438 . S
C437 C438 1.428 . S
C438 H430 0.949 1_556 S
C438 C437 1.428 . S
C438 C439 1.345 . S
C439 H431 0.950 . S
C439 C438 1.345 . S
C439 C440 1.424 . S
C440 H432 0.951 . S
C440 C439 1.424 . S
C440 C441 1.347 . S
C441 H433 0.951 . S
C441 C436 1.429 . S
C441 C440 1.347 . S
H442 C443 0.951 . S
C443 H442 0.951 . S
C443 C449 1.265 . S
H444 C449 0.950 . S
H445 C453 0.949 . S
H446 C454 0.950 . S
H447 C455 0.951 . S
H448 C456 0.951 . S
C449 C443 1.265 . S
C449 H444 0.950 . S
C449 C450 1.478 . S
C450 C449 1.478 . S
C450 C451 1.397 . S
C450 C467 1.394 . S
C451 C450 1.397 . S
C451 C452 1.438 1_556 S
C451 C456 1.429 . S
C452 C451 1.438 1_554 S
C452 C453 1.428 . S
C452 C465 1.394 . S
C453 H445 0.949 . S
C453 C452 1.428 . S
C453 C454 1.345 . S
C454 H446 0.950 . S
C454 C453 1.345 . S
C454 C455 1.424 1_554 S
C455 H447 0.951 . S
C455 C454 1.424 1_556 S
C455 C456 1.347 . S
C456 H448 0.951 . S
C456 C451 1.429 . S
C456 C455 1.347 . S
H457 C458 0.951 . S
C458 H457 0.951 . S
C458 C464 1.265 . S
H459 C464 0.950 . S
H460 C468 0.949 . S
H461 C469 0.950 . S
H462 C470 0.951 . S
H463 C471 0.951 . S
C464 C458 1.265 . S
C464 H459 0.950 . S
C464 C465 1.478 . S
C465 C452 1.394 . S
C465 C464 1.478 . S
C465 C466 1.397 . S
C466 C465 1.397 . S
C466 C467 1.438 1_554 S
C466 C471 1.429 . S
C467 C450 1.394 . S
C467 C466 1.438 1_556 S
C467 C468 1.428 . S
C468 H460 0.949 . S
C468 C467 1.428 . S
C468 C469 1.345 1_556 S
C469 H461 0.950 . S
C469 C468 1.345 1_554 S
C469 C470 1.424 . S
C470 H462 0.951 . S
C470 C469 1.424 . S
C470 C471 1.347 . S
C471 H463 0.951 . S
C471 C466 1.429 . S
C471 C470 1.347 . S
H472 C473 0.951 . S
C473 H472 0.951 . S
C473 C479 1.265 . S
H474 C479 0.950 . S
H475 C483 0.949 . S
H476 C484 0.950 . S
H477 C485 0.951 . S
H478 C486 0.951 . S
C479 C473 1.265 . S
C479 H474 0.950 . S
C479 C480 1.478 . S
C480 C479 1.478 . S
C480 C481 1.397 . S
C480 C497 1.394 . S
C481 C480 1.397 . S
C481 C482 1.438 . S
C481 C486 1.429 . S
C482 C481 1.438 . S
C482 C483 1.428 . S
C482 C495 1.394 . S
C483 H475 0.949 . S
C483 C482 1.428 . S
C483 C484 1.345 . S
C484 H476 0.950 . S
C484 C483 1.345 . S
C484 C485 1.424 . S
C485 H477 0.951 . S
C485 C484 1.424 . S
C485 C486 1.347 . S
C486 H478 0.951 . S
C486 C481 1.429 . S
C486 C485 1.347 . S
H487 C488 0.951 . S
C488 H487 0.951 . S
C488 C494 1.265 . S
H489 C494 0.950 . S
H490 C498 0.949 . S
H491 C499 0.950 . S
H492 C500 0.951 . S
H493 C501 0.951 . S
C494 C488 1.265 . S
C494 H489 0.950 . S
C494 C495 1.478 . S
C495 C482 1.394 . S
C495 C494 1.478 . S
C495 C496 1.397 . S
C496 C495 1.397 . S
C496 C497 1.438 . S
C496 C501 1.429 . S
C497 C480 1.394 . S
C497 C496 1.438 . S
C497 C498 1.428 . S
C498 H490 0.949 . S
C498 C497 1.428 . S
C498 C499 1.345 . S
C499 H491 0.950 . S
C499 C498 1.345 . S
C499 C500 1.424 . S
C500 H492 0.951 . S
C500 C499 1.424 . S
C500 C501 1.347 . S
C501 H493 0.951 . S
C501 C496 1.429 . S
C501 C500 1.347 . S
H502 C503 0.951 . S
C503 H502 0.951 . S
C503 C509 1.265 . S
H504 C509 0.950 . S
H505 C513 0.949 . S
H506 C514 0.950 . S
H507 C515 0.951 . S
H508 C516 0.951 . S
C509 C503 1.265 . S
C509 H504 0.950 . S
C509 C510 1.478 . S
C510 C509 1.478 . S
C510 C511 1.397 . S
C510 C527 1.394 . S
C511 C510 1.397 . S
C511 C512 1.438 . S
C511 C516 1.429 . S
C512 C511 1.438 . S
C512 C513 1.428 . S
C512 C525 1.394 . S
C513 H505 0.949 . S
C513 C512 1.428 . S
C513 C514 1.345 . S
C514 H506 0.950 . S
C514 C513 1.345 . S
C514 C515 1.424 . S
C515 H507 0.951 . S
C515 C514 1.424 . S
C515 C516 1.347 . S
C516 H508 0.951 . S
C516 C511 1.429 . S
C516 C515 1.347 . S
H517 C518 0.951 . S
C518 H517 0.951 . S
C518 C524 1.265 . S
H519 C524 0.950 . S
H520 C528 0.949 . S
H521 C529 0.950 . S
H522 C530 0.951 . S
H523 C531 0.951 . S
C524 C518 1.265 . S
C524 H519 0.950 . S
C524 C525 1.478 . S
C525 C512 1.394 . S
C525 C524 1.478 . S
C525 C526 1.397 . S
C526 C525 1.397 . S
C526 C527 1.438 . S
C526 C531 1.429 . S
C527 C510 1.394 . S
C527 C526 1.438 . S
C527 C528 1.428 . S
C528 H520 0.949 . S
C528 C527 1.428 . S
C528 C529 1.345 . S
C529 H521 0.950 . S
C529 C528 1.345 . S
C529 C530 1.424 . S
C530 H522 0.951 . S
C530 C529 1.424 . S
C530 C531 1.347 . S
C531 H523 0.951 . S
C531 C526 1.429 . S
C531 C530 1.347 . S
H532 C533 0.951 . S
C533 H532 0.951 . S
C533 C539 1.265 . S
H534 C539 0.950 . S
H535 C543 0.949 . S
H536 C544 0.950 1_545 S
H537 C545 0.951 . S
H538 C546 0.951 . S
C539 C533 1.265 . S
C539 H534 0.950 . S
C539 C540 1.478 . S
C540 C539 1.478 . S
C540 C541 1.397 . S
C540 C557 1.394 . S
C541 C540 1.397 . S
C541 C542 1.438 . S
C541 C546 1.429 . S
C542 C541 1.438 . S
C542 C543 1.428 . S
C542 C555 1.394 . S
C543 H535 0.949 . S
C543 C542 1.428 . S
C543 C544 1.345 . S
C544 H536 0.950 1_565 S
C544 C543 1.345 . S
C544 C545 1.424 . S
C545 H537 0.951 . S
C545 C544 1.424 . S
C545 C546 1.347 . S
C546 H538 0.951 . S
C546 C541 1.429 . S
C546 C545 1.347 . S
H547 C548 0.951 . S
C548 H547 0.951 . S
C548 C554 1.265 . S
H549 C554 0.950 . S
H550 C558 0.949 . S
H551 C559 0.950 . S
H552 C560 0.951 . S
H553 C561 0.951 . S
C554 C548 1.265 . S
C554 H549 0.950 . S
C554 C555 1.478 . S
C555 C542 1.394 . S
C555 C554 1.478 . S
C555 C556 1.397 . S
C556 C555 1.397 . S
C556 C557 1.438 . S
C556 C561 1.429 . S
C557 C540 1.394 . S
C557 C556 1.438 . S
C557 C558 1.428 . S
C558 H550 0.949 . S
C558 C557 1.428 . S
C558 C559 1.345 . S
C559 H551 0.950 . S
C559 C558 1.345 . S
C559 C560 1.424 . S
C560 H552 0.951 . S
C560 C559 1.424 . S
C560 C561 1.347 . S
C561 H553 0.951 . S
C561 C556 1.429 . S
C561 C560 1.347 . S
H562 C563 0.951 . S
C563 H562 0.951 . S
C563 C569 1.265 . S
H564 C569 0.950 . S
H565 C573 0.949 . S
H566 C574 0.950 . S
H567 C575 0.951 . S
H568 C576 0.951 . S
C569 C563 1.265 . S
C569 H564 0.950 . S
C569 C570 1.478 . S
C570 C569 1.478 . S
C570 C571 1.397 . S
C570 C587 1.394 . S
C571 C570 1.397 . S
C571 C572 1.438 . S
C571 C576 1.429 . S
C572 C571 1.438 . S
C572 C573 1.428 . S
C572 C585 1.394 . S
C573 H565 0.949 . S
C573 C572 1.428 . S
C573 C574 1.345 . S
C574 H566 0.950 . S
C574 C573 1.345 . S
C574 C575 1.424 . S
C575 H567 0.951 . S
C575 C574 1.424 . S
C575 C576 1.347 . S
C576 H568 0.951 . S
C576 C571 1.429 . S
C576 C575 1.347 . S
H577 C578 0.951 . S
C578 H577 0.951 . S
C578 C584 1.265 . S
H579 C584 0.950 . S
H580 C588 0.949 . S
H581 C589 0.950 . S
H582 C590 0.951 . S
H583 C591 0.951 . S
C584 C578 1.265 . S
C584 H579 0.950 . S
C584 C585 1.478 . S
C585 C572 1.394 . S
C585 C584 1.478 . S
C585 C586 1.397 . S
C586 C585 1.397 . S
C586 C587 1.438 . S
C586 C591 1.429 . S
C587 C570 1.394 . S
C587 C586 1.438 . S
C587 C588 1.428 . S
C588 H580 0.949 . S
C588 C587 1.428 . S
C588 C589 1.345 . S
C589 H581 0.950 . S
C589 C588 1.345 . S
C589 C590 1.424 . S
C590 H582 0.951 . S
C590 C589 1.424 . S
C590 C591 1.347 . S
C591 H583 0.951 . S
C591 C586 1.429 . S
C591 C590 1.347 . S
C113 C39 1.241 . S
C128 C11 1.240 . S
C143 C53 1.240 . S
C158 C25 1.240 . S
C173 C67 1.306 . S
C188 C95 1.303 . S
C203 C81 1.243 . S
C218 C109 1.239 . S
C233 C21 0.830 . S
C248 C8 0.941 . S
C263 C22 0.856 . S
C278 C35 0.894 . S
C293 C49 0.869 . S
C308 C36 0.889 . S
C323 C50 0.900 . S
C338 C7 0.874 . S
C353 C105 0.874 . S
C368 C64 0.900 . S
C383 C78 0.806 . S
C398 C63 0.938 . S
C413 C92 0.899 . S
C428 C77 0.861 . S
C443 C106 0.934 . S
C458 C91 0.845 . S
C473 C13 1.511 . S
C488 C83 1.598 . S
C503 C97 1.561 . S
C518 C27 1.491 . S
C533 C41 1.587 . S
C548 C111 1.502 . S
C563 C55 1.545 . S
C578 C69 1.619 . S
