# Generated by pormake.
# Topology wjf, (4)-cn, num edge types: 1
# Building blocks:
#     Node 0, Type 0, BuildingBlock: AZAVOO_clean_sbu_0, # of connection points: 4
#     Node 1, Type 0, BuildingBlock: AZAVOO_clean_sbu_0, # of connection points: 4
#     Node 2, Type 0, BuildingBlock: AZAVOO_clean_sbu_0, # of connection points: 4
#     Node 3, Type 0, BuildingBlock: AZAVOO_clean_sbu_0, # of connection points: 4
#     Node 4, Type 0, BuildingBlock: AZAVOO_clean_sbu_0, # of connection points: 4
#     Node 5, Type 0, BuildingBlock: AZAVOO_clean_sbu_0, # of connection points: 4
#     Node 6, Type 0, BuildingBlock: AZAVOO_clean_sbu_0, # of connection points: 4
#     Node 7, Type 0, BuildingBlock: AZAVOO_clean_sbu_0, # of connection points: 4
#     Node 8, Type 0, BuildingBlock: AZAVOO_clean_sbu_0, # of connection points: 4
#     Node 9, Type 0, BuildingBlock: AZAVOO_clean_sbu_0, # of connection points: 4
#     Node 10, Type 0, BuildingBlock: AZAVOO_clean_sbu_0, # of connection points: 4
#     Node 11, Type 0, BuildingBlock: AZAVOO_clean_sbu_0, # of connection points: 4
#     Edge 12, Type (0, 0), BuildingBlock: UVAHIK_clean_linker_0, # of connection points: 2
#     Edge 13, Type (0, 0), BuildingBlock: UVAHIK_clean_linker_0, # of connection points: 2
#     Edge 14, Type (0, 0), BuildingBlock: UVAHIK_clean_linker_0, # of connection points: 2
#     Edge 15, Type (0, 0), BuildingBlock: UVAHIK_clean_linker_0, # of connection points: 2
#     Edge 16, Type (0, 0), BuildingBlock: UVAHIK_clean_linker_0, # of connection points: 2
#     Edge 17, Type (0, 0), BuildingBlock: UVAHIK_clean_linker_0, # of connection points: 2
#     Edge 18, Type (0, 0), BuildingBlock: UVAHIK_clean_linker_0, # of connection points: 2
#     Edge 19, Type (0, 0), BuildingBlock: UVAHIK_clean_linker_0, # of connection points: 2
#     Edge 20, Type (0, 0), BuildingBlock: UVAHIK_clean_linker_0, # of connection points: 2
#     Edge 21, Type (0, 0), BuildingBlock: UVAHIK_clean_linker_0, # of connection points: 2
#     Edge 22, Type (0, 0), BuildingBlock: UVAHIK_clean_linker_0, # of connection points: 2
#     Edge 23, Type (0, 0), BuildingBlock: UVAHIK_clean_linker_0, # of connection points: 2
#     Edge 24, Type (0, 0), BuildingBlock: UVAHIK_clean_linker_0, # of connection points: 2
#     Edge 25, Type (0, 0), BuildingBlock: UVAHIK_clean_linker_0, # of connection points: 2
#     Edge 26, Type (0, 0), BuildingBlock: UVAHIK_clean_linker_0, # of connection points: 2
#     Edge 27, Type (0, 0), BuildingBlock: UVAHIK_clean_linker_0, # of connection points: 2
#     Edge 28, Type (0, 0), BuildingBlock: UVAHIK_clean_linker_0, # of connection points: 2
#     Edge 29, Type (0, 0), BuildingBlock: UVAHIK_clean_linker_0, # of connection points: 2
#     Edge 30, Type (0, 0), BuildingBlock: UVAHIK_clean_linker_0, # of connection points: 2
#     Edge 31, Type (0, 0), BuildingBlock: UVAHIK_clean_linker_0, # of connection points: 2
#     Edge 32, Type (0, 0), BuildingBlock: UVAHIK_clean_linker_0, # of connection points: 2
#     Edge 33, Type (0, 0), BuildingBlock: UVAHIK_clean_linker_0, # of connection points: 2
#     Edge 34, Type (0, 0), BuildingBlock: UVAHIK_clean_linker_0, # of connection points: 2
#     Edge 35, Type (0, 0), BuildingBlock: UVAHIK_clean_linker_0, # of connection points: 2
# Relax obj value: 0.279
# Max RMSD: 0.294
# Mean RMSD: 0.281
data_MOF--net-wjf--node1-AZAVOO_clean_sbu_0--edge1-UVAHIK_clean_linker_0
_symmetry_space_group_name_H-M    P1
_symmetry_Int_Tables_number       1
_symmetry_cell_setting            triclinic
loop_
_symmetry_equiv_pos_as_xyz
'x, y, z'
_cell_length_a     64.163663
_cell_length_b     65.630467
_cell_length_c     33.741223
_cell_angle_alpha  90.028147
_cell_angle_beta   89.974169
_cell_angle_gamma 119.19261
loop_
_atom_site_label
_atom_site_type_symbol
_atom_site_fract_x
_atom_site_fract_y
_atom_site_fract_z
_atom_type_partial_charge
Mg0 Mg 0.33375 0.37833 0.11184 0.0
O1 O 0.33664 0.36103 0.05515 0.0
O2 O 0.36633 0.35275 0.06093 0.0
Mg3 Mg 0.3824 0.3647 0.12273 0.0
C4 C 0.34945 0.35281 0.04105 0.0
C5 C 0.29639 0.3914 0.08246 0.0
O6 O 0.31506 0.41194 0.08903 0.0
O7 O 0.31636 0.34345 0.14413 0.0
O8 O 0.34746 0.33738 0.15218 0.0
O9 O 0.36043 0.41294 0.0876 0.0
O10 O 0.36995 0.39068 0.12385 0.0
C11 C 0.32547 0.33135 0.15756 0.0
C12 C 0.37679 0.40936 0.10316 0.0
O13 O 0.29784 0.37318 0.0902 0.0
Mg14 Mg 0.92659 0.32281 0.42311 0.0
O15 O 0.95013 0.32898 0.36914 0.0
O16 O 0.98736 0.35705 0.38079 0.0
Mg17 Mg 0.9874 0.36933 0.4444 0.0
C18 C 0.97163 0.34183 0.35796 0.0
C19 C 0.88987 0.29211 0.36064 0.0
O20 O 0.89626 0.31327 0.34797 0.0
O21 O 0.94346 0.30366 0.45507 0.0
O22 O 0.97938 0.33367 0.46917 0.0
O23 O 0.91869 0.35059 0.40196 0.0
O24 O 0.94871 0.35725 0.44163 0.0
C25 C 0.96402 0.31197 0.47121 0.0
C26 C 0.93761 0.36539 0.42085 0.0
O27 O 0.89884 0.28959 0.39266 0.0
Mg28 Mg 0.61257 0.97281 0.76733 0.0
O29 O 0.57772 0.96712 0.73855 0.0
O30 O 0.58475 0.97621 0.67432 0.0
Mg31 Mg 0.62335 0.98532 0.66166 0.0
C32 C 0.57087 0.96984 0.70435 0.0
C33 C 0.58191 0.96192 0.84413 0.0
O34 O 0.58064 0.98027 0.83176 0.0
O35 O 0.60777 0.93882 0.74107 0.0
O36 O 0.61492 0.94802 0.67695 0.0
O37 O 0.62143 0.01002 0.77573 0.0
O38 O 0.6321 0.99655 0.72377 0.0
C39 C 0.60972 0.9335 0.70539 0.0
C40 C 0.63044 0.01333 0.74046 0.0
O41 O 0.59275 0.95404 0.82297 0.0
Mg42 Mg 0.6677 0.61432 0.09957 0.0
O43 O 0.66379 0.63198 0.04407 0.0
O44 O 0.63446 0.64055 0.05268 0.0
Mg45 Mg 0.61953 0.62822 0.11504 0.0
C46 C 0.65089 0.64046 0.03146 0.0
C47 C 0.70439 0.60129 0.06608 0.0
O48 O 0.6859 0.58067 0.07287 0.0
O49 O 0.68589 0.64909 0.13238 0.0
O50 O 0.65512 0.65542 0.14288 0.0
O51 O 0.64037 0.57981 0.07584 0.0
O52 O 0.63183 0.60212 0.11396 0.0
C53 C 0.67716 0.66129 0.14691 0.0
C54 C 0.62444 0.58343 0.09307 0.0
O55 O 0.70306 0.61941 0.0752 0.0
Mg56 Mg 0.0668 0.6586 0.40349 0.0
O57 O 0.04538 0.65878 0.34985 0.0
O58 O 0.00634 0.63704 0.36113 0.0
Mg59 Mg 0.00282 0.62316 0.42428 0.0
C60 C 0.02375 0.6502 0.33867 0.0
C61 C 0.1055 0.68331 0.34045 0.0
O62 O 0.09224 0.6625 0.32505 0.0
O63 O 0.05789 0.68381 0.43624 0.0
O64 O 0.01899 0.66064 0.44855 0.0
O65 O 0.06616 0.62655 0.38111 0.0
O66 O 0.03863 0.62616 0.42098 0.0
C67 C 0.03809 0.68035 0.45098 0.0
C68 C 0.04614 0.61474 0.3997 0.0
O69 O 0.09986 0.6879 0.37417 0.0
Mg70 Mg 0.35522 0.04671 0.77524 0.0
O71 O 0.3817 0.03691 0.74677 0.0
O72 O 0.37496 0.03239 0.68157 0.0
Mg73 Mg 0.34572 0.04169 0.66809 0.0
C74 C 0.38614 0.03176 0.71242 0.0
C75 C 0.36925 0.06209 0.86209 0.0
O76 O 0.35196 0.06712 0.85702 0.0
O77 O 0.37716 0.08423 0.75375 0.0
O78 O 0.3701 0.07935 0.68865 0.0
O79 O 0.32993 0.00873 0.77914 0.0
O80 O 0.33166 0.03099 0.72848 0.0
C81 C 0.38004 0.09243 0.71863 0.0
C82 C 0.32382 0.01045 0.74325 0.0
O83 O 0.37588 0.05449 0.8328 0.0
Mg84 Mg 0.6042 0.68074 0.54608 0.0
O85 O 0.62292 0.68003 0.60359 0.0
O86 O 0.63482 0.65339 0.59718 0.0
Mg87 Mg 0.6237 0.63706 0.53584 0.0
C88 C 0.63302 0.66891 0.61734 0.0
C89 C 0.59843 0.71613 0.59972 0.0
O90 O 0.5897 0.69785 0.62322 0.0
O91 O 0.63971 0.70007 0.51333 0.0
O92 O 0.64984 0.6721 0.50698 0.0
O93 O 0.56978 0.6529 0.57043 0.0
O94 O 0.59478 0.64611 0.53506 0.0
C95 C 0.65388 0.69295 0.5011 0.0
C96 C 0.57547 0.63804 0.55571 0.0
O97 O 0.60609 0.71472 0.56565 0.0
Mg98 Mg 0.95691 0.61993 0.8472 0.0
O99 O 0.97315 0.63579 0.90711 0.0
O100 O 0.0117 0.64558 0.90687 0.0
Mg101 Mg 0.01985 0.63494 0.84678 0.0
C102 C 0.99343 0.64438 0.92414 0.0
C103 C 0.90447 0.60592 0.86588 0.0
O104 O 0.90269 0.58561 0.85721 0.0
O105 O 0.97582 0.65566 0.81772 0.0
O106 O 0.01341 0.66234 0.81476 0.0
O107 O 0.94761 0.58467 0.86979 0.0
O108 O 0.98185 0.60823 0.84047 0.0
C109 C 0.99753 0.66818 0.80695 0.0
C110 C 0.96866 0.58887 0.85877 0.0
O111 O 0.92472 0.62418 0.86307 0.0
Mg112 Mg 0.33049 0.9223 0.29488 0.0
O113 O 0.36933 0.93109 0.30052 0.0
O114 O 0.37272 0.90882 0.34704 0.0
Mg115 Mg 0.33515 0.88531 0.37164 0.0
C116 C 0.38195 0.92486 0.32093 0.0
C117 C 0.35685 0.96401 0.23708 0.0
O118 O 0.36792 0.97368 0.27034 0.0
O119 O 0.32042 0.8883 0.26247 0.0
O120 O 0.32142 0.86633 0.31224 0.0
O121 O 0.3361 0.94799 0.34275 0.0
O122 O 0.32372 0.91055 0.35309 0.0
C123 C 0.3171 0.86877 0.27607 0.0
C124 C 0.3299 0.93085 0.36739 0.0
O125 O 0.34018 0.94291 0.23743 0.0
Mg126 Mg 0.41229 0.34634 0.55466 0.0
O127 O 0.39161 0.34323 0.61164 0.0
O128 O 0.37422 0.36543 0.6066 0.0
Mg129 Mg 0.38367 0.38262 0.54563 0.0
C130 C 0.37871 0.35131 0.62593 0.0
C131 C 0.4251 0.31604 0.60846 0.0
O132 O 0.43153 0.33453 0.63088 0.0
O133 O 0.37762 0.32299 0.52207 0.0
O134 O 0.36159 0.34644 0.51675 0.0
O135 O 0.44403 0.37688 0.57986 0.0
O136 O 0.41639 0.37945 0.54445 0.0
C137 C 0.36097 0.32694 0.51053 0.0
C138 C 0.43554 0.38963 0.56555 0.0
O139 O 0.4163 0.31534 0.57441 0.0
Mg140 Mg 0.04644 0.37832 0.86338 0.0
O141 O 0.0301 0.36492 0.9244 0.0
O142 O 0.99232 0.35771 0.92387 0.0
Mg143 Mg 0.985 0.36802 0.86284 0.0
C144 C 0.01006 0.35804 0.94157 0.0
C145 C 0.09794 0.3896 0.88141 0.0
O146 O 0.10082 0.40991 0.86974 0.0
O147 O 0.0251 0.3419 0.83636 0.0
O148 O 0.98882 0.33857 0.83287 0.0
O149 O 0.05845 0.41481 0.88297 0.0
O150 O 0.02352 0.39231 0.85486 0.0
C151 C 0.00322 0.33077 0.82577 0.0
C152 C 0.03789 0.41186 0.87162 0.0
O153 O 0.07713 0.37198 0.88058 0.0
Mg154 Mg 0.67497 0.0246 0.29642 0.0
O155 O 0.64445 0.03289 0.29687 0.0
O156 O 0.64876 0.05766 0.34542 0.0
Mg157 Mg 0.68602 0.06942 0.37067 0.0
C158 C 0.63672 0.04422 0.31703 0.0
C159 C 0.64824 0.98402 0.2336 0.0
O160 O 0.6475 0.97028 0.26252 0.0
O161 O 0.6995 0.05851 0.26383 0.0
O162 O 0.70363 0.0843 0.31088 0.0
O163 O 0.65479 -0.00108 0.34437 0.0
O164 O 0.68292 0.03544 0.35492 0.0
C165 C 0.70755 0.07943 0.276 0.0
C166 C 0.66617 0.01613 0.3687 0.0
O167 O 0.65919 0.00599 0.23857 0.0
C168 C 0.29005 0.30924 0.20198 0.0
C169 C 0.31158 0.31218 0.18591 0.0
C170 C 0.28092 0.2965 0.23695 0.0
C171 C 0.29359 0.2638 0.31637 0.0
H172 H 0.29199 0.31107 0.383 0.0
C173 C 0.34684 0.29629 0.45802 0.0
C174 C 0.34192 0.30985 0.4846 0.0
C175 C 0.33142 0.28503 0.42635 0.0
C176 C 0.29164 0.29709 0.36545 0.0
H177 H 0.33817 0.30092 0.1903 0.0
H178 H 0.32274 0.2794 0.25131 0.0
H179 H 0.28425 0.31067 0.31335 0.0
H180 H 0.3155 0.31953 0.50252 0.0
H181 H 0.288 0.29896 0.44846 0.0
H182 H 0.30254 0.25123 0.36867 0.0
C183 C 0.31279 0.28684 0.23733 0.0
C184 C 0.28714 0.29687 0.32503 0.0
C185 C 0.32186 0.29947 0.20237 0.0
C186 C 0.31995 0.30958 0.48188 0.0
C187 C 0.30427 0.29788 0.45077 0.0
C188 C 0.29799 0.26393 0.35705 0.0
C189 C 0.2932 0.28659 0.25649 0.0
C190 C 0.28956 0.2812 0.29959 0.0
C191 C 0.31058 0.2868 0.42107 0.0
C192 C 0.29857 0.28155 0.38163 0.0
H193 H 0.28136 0.3184 0.18962 0.0
H194 H 0.26541 0.29611 0.25044 0.0
H195 H 0.29505 0.25113 0.29768 0.0
H196 H 0.36362 0.29611 0.45948 0.0
H197 H 0.33706 0.27679 0.40422 0.0
C198 C 0.9914 0.307 0.5177 0.0
C199 C 0.9692 0.29724 0.49846 0.0
C200 C 0.99457 0.29638 0.55113 0.0
C201 C 0.95644 0.25848 0.63187 0.0
H202 H 0.01913 0.28544 0.67964 0.0
C203 C 0.01045 0.30183 0.78744 0.0
C204 C 0.99508 0.31038 0.79889 0.0
C205 C 0.0048 0.28674 0.75491 0.0
C206 C 0.00131 0.27706 0.66734 0.0
H207 H 0.93401 0.26675 0.49566 0.0
H208 H 0.93988 0.24754 0.55302 0.0
H209 H 0.01532 0.28159 0.60871 0.0
H210 H 0.96038 0.30747 0.78807 0.0
H211 H 0.95124 0.2828 0.73113 0.0
H212 H 0.94231 0.25277 0.69053 0.0
C213 C 0.95453 0.26411 0.54359 0.0
C214 C -0.00083 0.27531 0.6261 0.0
C215 C 0.95122 0.27502 0.51032 0.0
C216 C 0.9729 0.30159 0.77981 0.0
C217 C 0.9675 0.287 0.74697 0.0
C218 C 0.9585 0.2593 0.67315 0.0
C219 C 0.97575 0.2754 0.56603 0.0
C220 C 0.97696 0.26821 0.60774 0.0
C221 C 0.98391 0.28032 0.73257 0.0
C222 C 0.98111 0.27076 0.69137 0.0
H223 H 0.00587 0.32389 0.50899 0.0
H224 H 0.01123 0.30596 0.567 0.0
H225 H 0.93883 0.25222 0.61943 0.0
H226 H 0.02749 0.30784 0.80207 0.0
H227 H 0.01753 0.28129 0.74601 0.0
C228 C 0.57181 0.96736 0.9134 0.0
C229 C 0.57555 0.95366 0.88538 0.0
C230 C 0.57118 0.96247 0.95378 0.0
C231 C 0.59691 0.93655 0.02039 0.0
H232 H 0.56831 0.95768 0.10026 0.0
C233 C 0.62729 0.95124 0.18489 0.0
C234 C 0.63443 0.97423 0.19688 0.0
C235 C 0.61424 0.94238 0.14984 0.0
C236 C 0.5762 0.95145 0.07829 0.0
H237 H 0.57882 0.92254 0.87725 0.0
H238 H 0.57705 0.91363 0.9477 0.0
H239 H 0.55349 0.95182 0.03224 0.0
H240 H 0.63283 0.00567 0.18244 0.0
H241 H 0.61 0.99018 0.12186 0.0
H242 H 0.62008 0.93691 0.06636 0.0
C243 C 0.57544 0.92863 0.93863 0.0
C244 C 0.56782 0.9482 0.03935 0.0
C245 C 0.57632 0.93366 0.89824 0.0
C246 C 0.62781 0.98796 0.1738 0.0
C247 C 0.61447 0.97901 0.13935 0.0
C248 C 0.60508 0.93954 0.05944 0.0
C249 C 0.574 0.94361 0.96696 0.0
C250 C 0.5788 0.94173 0.00955 0.0
C251 C 0.6077 0.95623 0.12686 0.0
C252 C 0.59549 0.94799 0.0883 0.0
H253 H 0.57105 0.98283 0.90445 0.0
H254 H 0.57022 0.97454 0.97462 0.0
H255 H 0.60601 0.9318 -0.00172 0.0
H256 H 0.6321 0.94026 0.20222 0.0
H257 H 0.60929 0.92478 0.14064 0.0
C258 C 0.71284 0.68283 0.19103 0.0
C259 C 0.69181 0.68075 0.17432 0.0
C260 C 0.72293 0.69676 0.22458 0.0
C261 C 0.71624 0.73685 0.2964 0.0
H262 H 0.71501 0.69237 0.37297 0.0
C263 C 0.66959 0.72085 0.44465 0.0
C264 C 0.67332 0.70756 0.47346 0.0
C265 C 0.68398 0.7284 0.41083 0.0
C266 C 0.71625 0.70559 0.35249 0.0
H267 H 0.66689 0.69417 0.17626 0.0
H268 H 0.68417 0.71803 0.23471 0.0
H269 H 0.71939 0.68662 0.30378 0.0
H270 H 0.69705 0.69481 0.49278 0.0
H271 H 0.72309 0.70922 0.43503 0.0
H272 H 0.7118 0.75515 0.34539 0.0
C273 C 0.69294 0.70897 0.22224 0.0
C274 C 0.71876 0.70221 0.31237 0.0
C275 C 0.68284 0.69504 0.18884 0.0
C276 C 0.69356 0.70469 0.47057 0.0
C277 C 0.70833 0.71278 0.43726 0.0
C278 C 0.71395 0.74039 0.33675 0.0
C279 C 0.71221 0.70889 0.24189 0.0
C280 C 0.71737 0.71701 0.28369 0.0
C281 C 0.70265 0.72316 0.40558 0.0
C282 C 0.71246 0.72399 0.36511 0.0
H283 H 0.72042 0.6723 0.18028 0.0
H284 H 0.73805 0.69668 0.23866 0.0
H285 H 0.71557 0.74882 0.275 0.0
H286 H 0.6541 0.72333 0.44616 0.0
H287 H 0.67888 0.7363 0.38731 0.0
C288 C 0.02695 0.69992 0.76307 0.0
C289 C 0.00377 0.68775 0.77895 0.0
C290 C 0.03136 0.71326 0.72873 0.0
C291 C 0.99707 0.70734 0.64047 0.0
H292 H 0.05912 0.75274 0.60001 0.0
C293 C 0.01656 0.69943 0.48135 0.0
C294 C 0.03762 0.69808 0.4773 0.0
C295 C 0.01333 0.71067 0.51403 0.0
C296 C 0.0416 0.74013 0.61076 0.0
H297 H 0.96794 0.6831 0.77481 0.0
H298 H 0.97577 0.70668 0.71519 0.0
H299 H 0.05138 0.75044 0.67122 0.0
H300 H 0.07283 0.70953 0.50164 0.0
H301 H 0.06686 0.72801 0.55958 0.0
H302 H 0.98769 0.69558 0.58119 0.0
C303 C 0.99036 0.70529 0.72859 0.0
C304 C 0.03715 0.73887 0.65158 0.0
C305 C 0.9859 0.69181 0.76287 0.0
C306 C 0.05639 0.71031 0.50408 0.0
C307 C 0.05294 0.72103 0.53735 0.0
C308 C 0.00153 0.7085 0.5999 0.0
C309 C 0.01271 0.71484 0.70964 0.0
C310 C 0.01525 0.72156 0.66706 0.0
C311 C 0.03077 0.72004 0.544 0.0
C312 C 0.02428 0.724 0.58466 0.0
H313 H 0.04129 0.69759 0.77509 0.0
H314 H 0.04882 0.72036 0.71518 0.0
H315 H 0.98004 0.69363 0.65108 0.0
H316 H 0.00196 0.69043 0.46067 0.0
H317 H 0.99637 0.71031 0.51735 0.0
C318 C 0.35262 0.96672 0.16389 0.0
C319 C 0.36376 0.97744 0.19968 0.0
C320 C 0.35892 0.97938 0.12858 0.0
C321 C 0.38419 0.00642 0.05512 0.0
H322 H 0.38791 0.0672 0.0536 0.0
C323 C 0.39459 0.05352 0.90812 0.0
C324 C 0.37758 0.06089 0.90244 0.0
C325 C 0.3991 0.04807 0.94604 0.0
C326 C 0.38705 0.05031 0.0536 0.0
H327 H 0.39045 0.00982 0.22639 0.0
H328 H 0.40143 0.03195 0.1645 0.0
H329 H 0.38297 0.04706 0.11666 0.0
H330 H 0.3535 0.07022 0.93242 0.0
H331 H 0.36108 0.06038 -0.00166 0.0
H332 H 0.38701 0.009 0.99209 0.0
C333 C 0.38772 0.01378 0.16394 0.0
C334 C 0.38442 0.03886 0.08972 0.0
C335 C 0.38147 0.00107 0.19932 0.0
C336 C 0.3666 0.06445 0.93575 0.0
C337 C 0.37106 0.05892 0.97364 0.0
C338 C 0.38684 0.01784 0.01909 0.0
C339 C 0.37648 0.00305 0.12821 0.0
C340 C 0.3823 0.01651 0.09071 0.0
C341 C 0.38668 0.04983 0.97902 0.0
C342 C 0.38769 0.03965 0.01779 0.0
H343 H 0.33891 0.94856 0.16311 0.0
H344 H 0.34965 0.97071 0.10165 0.0
H345 H 0.38299 0.98938 0.05501 0.0
H346 H 0.40359 0.05088 0.8831 0.0
H347 H 0.41161 0.04156 0.94932 0.0
C348 C 0.14024 0.40821 0.90472 0.0
C349 C 0.11815 0.38794 0.89919 0.0
C350 C 0.15874 0.4072 0.92471 0.0
C351 C 0.18167 0.3682 0.95554 0.0
H352 H 0.21459 0.41551 0.03586 0.0
C353 C 0.2544 0.36791 0.05713 0.0
C354 C 0.27465 0.3897 0.06414 0.0
C355 C 0.2343 0.36652 0.03836 0.0
C356 C 0.20577 0.40231 0.01327 0.0
H357 H 0.09845 0.35053 0.9091 0.0
H358 H 0.13099 0.3488 0.94388 0.0
H359 H 0.18191 0.41527 -0.00112 0.0
H360 H 0.28962 0.42711 0.05702 0.0
H361 H 0.25492 0.4247 0.02388 0.0
H362 H 0.20587 0.35551 0.96943 0.0
C363 C 0.13388 0.36545 0.93273 0.0
C364 C 0.18703 0.40217 0.99212 0.0
C365 C 0.11525 0.36647 0.91292 0.0
C366 C 0.27429 0.41004 0.05231 0.0
C367 C 0.25429 0.40866 0.03346 0.0
C368 C 0.20058 0.36843 0.97656 0.0
C369 C 0.15566 0.38589 0.93945 0.0
C370 C 0.17495 0.38529 0.96273 0.0
C371 C 0.23405 0.3869 0.02617 0.0
C372 C 0.21303 0.38567 0.00537 0.0
H373 H 0.14313 0.42501 0.8944 0.0
H374 H 0.17548 0.42318 0.92888 0.0
H375 H 0.17274 0.35506 0.9329 0.0
H376 H 0.2541 0.3519 0.06595 0.0
H377 H 0.21891 0.3495 0.03361 0.0
C378 C 0.87126 0.24979 0.3427 0.0
C379 C 0.87272 0.27168 0.3375 0.0
C380 C 0.85494 0.23053 0.32069 0.0
C381 C 0.79665 0.20641 0.27846 0.0
H382 H 0.81202 0.16334 0.22415 0.0
C383 C 0.721 0.11707 0.24164 0.0
C384 C 0.72544 0.099 0.25282 0.0
C385 C 0.74 0.13942 0.23446 0.0
C386 C 0.80735 0.1751 0.23929 0.0
H387 H 0.85848 0.29068 0.30496 0.0
H388 H 0.82934 0.25675 0.26761 0.0
H389 H 0.84414 0.20035 0.24914 0.0
H390 H 0.7527 0.08923 0.26222 0.0
H391 H 0.78583 0.12815 0.25185 0.0
H392 H 0.76015 0.18086 0.27226 0.0
C393 C 0.84111 0.25466 0.28822 0.0
C394 C 0.82578 0.19632 0.25339 0.0
C395 C 0.85773 0.274 0.30964 0.0
C396 C 0.74893 0.10291 0.25297 0.0
C397 C 0.76797 0.12539 0.24702 0.0
C398 C 0.77826 0.18504 0.26524 0.0
C399 C 0.83954 0.23276 0.29366 0.0
C400 C 0.82052 0.21186 0.2739 0.0
C401 C 0.76375 0.14426 0.24019 0.0
C402 C 0.78328 0.16873 0.24645 0.0
H403 H 0.88272 0.24753 0.36375 0.0
H404 H 0.85382 0.21372 0.32571 0.0
H405 H 0.79216 0.21806 0.29446 0.0
H406 H 0.70294 0.11437 0.24163 0.0
H407 H 0.73598 0.15325 0.22766 0.0
C408 C 0.61015 0.90457 0.65759 0.0
C409 C 0.60645 0.91002 0.69636 0.0
C410 C 0.60773 0.88276 0.64883 0.0
C411 C 0.60852 0.83227 0.69482 0.0
H412 H 0.58066 0.80267 0.59446 0.0
C413 C 0.59216 0.74016 0.65114 0.0
C414 C 0.5988 0.73787 0.61238 0.0
C415 C 0.59212 0.76058 0.66284 0.0
C416 C 0.58863 0.81081 0.62247 0.0
H417 H 0.597 0.89659 0.75627 0.0
H418 H 0.59246 0.85828 0.74075 0.0
H419 H 0.58153 0.83901 0.61261 0.0
H420 H 0.61079 0.75527 0.5556 0.0
H421 H 0.61072 0.79084 0.57606 0.0
H422 H 0.6156 0.80395 0.70454 0.0
C423 C 0.59757 0.87109 0.71729 0.0
C424 C 0.58915 0.83162 0.63288 0.0
C425 C 0.60005 0.893 0.72613 0.0
C426 C 0.60553 0.75645 0.58565 0.0
C427 C 0.60535 0.77678 0.59727 0.0
C428 C 0.60789 0.81135 0.68447 0.0
C429 C 0.60144 0.86576 0.67853 0.0
C430 C 0.59941 0.84278 0.66891 0.0
C431 C 0.59857 0.77903 0.63593 0.0
C432 C 0.59823 0.80058 0.64795 0.0
H433 H 0.61522 0.91724 0.6339 0.0
H434 H 0.61126 0.8794 0.61883 0.0
H435 H 0.6168 0.84055 0.72257 0.0
H436 H 0.58691 0.72617 0.67246 0.0
H437 H 0.58668 0.76178 0.69275 0.0
C438 C 0.74565 0.62516 0.03802 0.0
C439 C 0.72574 0.60323 0.04578 0.0
C440 C 0.76527 0.62682 0.01715 0.0
C441 C 0.78169 0.59411 0.9467 0.0
H442 H 0.84646 0.6352 0.98199 0.0
C443 C 0.8618 0.58664 0.88758 0.0
C444 C 0.88364 0.60717 0.88192 0.0
C445 C 0.84255 0.58747 0.90527 0.0
C446 C 0.82851 0.62391 0.97135 0.0
H447 H 0.71103 0.56586 0.03827 0.0
H448 H 0.74522 0.5688 0.00213 0.0
H449 H 0.81303 0.63426 0.01814 0.0
H450 H 0.90222 0.64477 0.88952 0.0
H451 H 0.86844 0.64624 0.91993 0.0
H452 H 0.79703 0.58368 0.90003 0.0
C453 C 0.74555 0.58471 0.01173 0.0
C454 C 0.80936 0.62334 0.99213 0.0
C455 C 0.72603 0.58303 0.03271 0.0
C456 C 0.88564 0.62863 0.89355 0.0
C457 C 0.86634 0.62946 0.91123 0.0
C458 C 0.8008 0.59474 0.92585 0.0
C459 C 0.76531 0.60661 0.00344 0.0
C460 C 0.78574 0.6082 0.98033 0.0
C461 C 0.84464 0.60885 0.91764 0.0
C462 C 0.82443 0.60941 0.93822 0.0
H463 H 0.74598 0.64105 0.04766 0.0
H464 H 0.7802 0.64395 0.01102 0.0
H465 H 0.7637 0.58258 0.93642 0.0
H466 H 0.85965 0.56981 0.8791 0.0
H467 H 0.82622 0.57122 0.91024 0.0
C468 C 0.13945 0.72399 0.33239 0.0
C469 C 0.1268 0.70084 0.31891 0.0
C470 C 0.15979 0.74036 0.31229 0.0
C471 C 0.20831 0.74541 0.24957 0.0
H472 H 0.22075 0.80916 0.23885 0.0
C473 C 0.29883 0.8257 0.26774 0.0
C474 C 0.30238 0.84721 0.25306 0.0
C475 C 0.27832 0.80502 0.25765 0.0
C476 C 0.21748 0.79136 0.24049 0.0
H477 H 0.12546 0.67675 0.27352 0.0
H478 H 0.16122 0.7054 0.23875 0.0
H479 H 0.18136 0.77889 0.25893 0.0
H480 H 0.28959 0.86339 0.21057 0.0
H481 H 0.25397 0.82723 0.19258 0.0
H482 H 0.24482 0.75814 0.23278 0.0
C483 C 0.15532 0.71081 0.26481 0.0
C484 C 0.19495 0.77408 0.25264 0.0
C485 C 0.13483 0.69447 0.28471 0.0
C486 C 0.28717 0.84717 0.22303 0.0
C487 C 0.26662 0.82645 0.21293 0.0
C488 C 0.23095 0.76277 0.23754 0.0
C489 C 0.16802 0.73391 0.27844 0.0
C490 C 0.19043 0.75114 0.25883 0.0
C491 C 0.26108 0.80551 0.23255 0.0
C492 C 0.23605 0.78612 0.2344 0.0
H493 H 0.13372 0.72945 0.35859 0.0
H494 H 0.16943 0.75798 0.32384 0.0
H495 H 0.2053 0.72784 0.25402 0.0
H496 H 0.31049 0.82507 0.29033 0.0
H497 H 0.2748 0.7892 0.27311 0.0
C498 C 0.40125 0.1337 0.74413 0.0
C499 C 0.3939 0.11796 0.71215 0.0
C500 C 0.41157 0.15772 0.7373 0.0
C501 C 0.4368 0.20295 0.65777 0.0
H502 H 0.40765 0.23266 0.71839 0.0
C503 C 0.42387 0.27777 0.59752 0.0
C504 C 0.42749 0.29607 0.62315 0.0
C505 C 0.4253 0.25851 0.61173 0.0
C506 C 0.41631 0.2248 0.70166 0.0
H507 H 0.39307 0.11529 0.64793 0.0
H508 H 0.41052 0.15679 0.63619 0.0
H509 H 0.40119 0.19435 0.73821 0.0
H510 H 0.43587 0.30877 0.68364 0.0
H511 H 0.43804 0.2749 0.70852 0.0
H512 H 0.45086 0.23299 0.62002 0.0
C513 C 0.4086 0.15076 0.66654 0.0
C514 C 0.41269 0.20286 0.71309 0.0
C515 C 0.39833 0.12686 0.67332 0.0
C516 C 0.43296 0.29491 0.66315 0.0
C517 C 0.43416 0.27553 0.67745 0.0
C518 C 0.44027 0.22481 0.64619 0.0
C519 C 0.41481 0.16646 0.69839 0.0
C520 C 0.42228 0.19136 0.69056 0.0
C521 C 0.43017 0.25707 0.65192 0.0
C522 C 0.42949 0.23563 0.66737 0.0
H523 H 0.39824 0.12744 0.77441 0.0
H524 H 0.41645 0.16941 0.76248 0.0
H525 H 0.44485 0.19478 0.64025 0.0
H526 H 0.4197 0.27817 0.56653 0.0
H527 H 0.42183 0.24439 0.59148 0.0
C528 C 0.37938 0.33507 0.69279 0.0
C529 C 0.36965 0.34502 0.66693 0.0
C530 C 0.37244 0.33116 0.73253 0.0
C531 C 0.34716 0.35282 0.80913 0.0
H532 H 0.346 0.30275 0.8718 0.0
C533 C 0.32866 0.34675 0.97579 0.0
C534 C 0.34581 0.34494 -0.00077 0.0
C535 C 0.32729 0.34234 0.93516 0.0
C536 C 0.34625 0.31679 0.85459 0.0
H537 H 0.34389 0.35728 0.66191 0.0
H538 H 0.3313 0.34988 0.7309 0.0
H539 H 0.35098 0.30297 0.79991 0.0
H540 H 0.37391 0.33555 -0.00137 0.0
H541 H 0.37152 0.32795 0.92757 0.0
H542 H 0.34274 0.36679 0.86369 0.0
C543 C 0.34485 0.34576 0.72082 0.0
C544 C 0.34917 0.31699 0.81349 0.0
C545 C 0.35199 0.34992 0.6812 0.0
C546 C 0.36059 0.33725 0.98145 0.0
C547 C 0.35913 0.33275 0.94076 0.0
C548 C 0.34405 0.35251 0.85005 0.0
C549 C 0.35541 0.33688 0.74722 0.0
C550 C 0.35004 0.33523 0.79034 0.0
C551 C 0.34294 0.33592 0.91706 0.0
C552 C 0.34391 0.3347 0.87329 0.0
H553 H 0.39304 0.33109 0.68275 0.0
H554 H 0.38117 0.32456 0.75204 0.0
H555 H 0.34824 0.36741 0.79249 0.0
H556 H 0.31682 0.35241 0.98851 0.0
H557 H 0.31439 0.34458 0.91767 0.0
C558 C 0.00181 0.35138 0.30362 0.0
C559 C 0.97795 0.33971 0.31653 0.0
C560 C 0.00737 0.3504 0.26382 0.0
C561 C 0.98139 0.31883 0.16884 0.0
H562 H 0.02883 0.3769 0.12144 0.0
C563 C 0.98525 0.34029 0.00231 0.0
C564 C 0.00779 0.35168 0.98405 0.0
C565 C 0.98328 0.33607 0.04309 0.0
C566 C 0.01579 0.36045 0.13436 0.0
H567 H 0.94127 0.31745 0.29778 0.0
H568 H 0.95087 0.31635 0.22866 0.0
H569 H 0.02255 0.37477 0.19281 0.0
H570 H 0.04593 0.36698 0.99417 0.0
H571 H 0.04241 0.35987 0.06551 0.0
H572 H 0.97392 0.30497 0.10983 0.0
C573 C 0.9654 0.32581 0.24923 0.0
C574 C 0.01223 0.35918 0.17532 0.0
C575 C 0.95987 0.3266 0.28897 0.0
C576 C 0.02829 0.35816 0.00729 0.0
C577 C 0.02632 0.3542 0.04814 0.0
C578 C 0.98477 0.3202 0.12782 0.0
C579 C 0.98919 0.33789 0.236 0.0
C580 C 0.99469 0.33847 0.19303 0.0
C581 C 0.00382 0.34339 0.06648 0.0
C582 C 0.00175 0.34113 0.11016 0.0
H583 H 0.01617 0.36147 0.32415 0.0
H584 H 0.02593 0.3596 0.25482 0.0
H585 H 0.96808 0.30244 0.18152 0.0
H586 H 0.96912 0.33499 0.98525 0.0
H587 H 0.96572 0.32786 0.05654 0.0
C588 C 0.65273 0.04447 0.69249 0.0
C589 C 0.63189 0.03192 0.7148 0.0
C590 C 0.65143 0.05196 0.6544 0.0
C591 C 0.6114 0.02196 0.57804 0.0
H592 H 0.66044 0.0703 0.51327 0.0
C593 C 0.63262 0.00649 0.41611 0.0
C594 C 0.6572 0.01639 0.40865 0.0
C595 C 0.62462 0.01182 0.45126 0.0
C596 C 0.64649 0.05667 0.5309 0.0
H597 H 0.59411 0.02051 0.7181 0.0
H598 H 0.59157 0.03265 0.6506 0.0
H599 H 0.65503 0.07895 0.58167 0.0
H600 H 0.69259 0.03844 0.43233 0.0
H601 H 0.6788 0.04691 0.49397 0.0
H602 H 0.60435 -0.00094 0.52858 0.0
C603 C 0.60892 0.03704 0.66257 0.0
C604 C 0.64323 0.06175 0.56981 0.0
C605 C 0.61042 0.03023 0.70126 0.0
C606 C 0.67355 0.03058 0.4375 0.0
C607 C 0.66563 0.03577 0.47244 0.0
C608 C 0.61482 0.01682 0.53918 0.0
C609 C 0.62914 0.04636 0.63794 0.0
C610 C 0.62656 0.04409 0.59439 0.0
C611 C 0.64113 0.0271 0.47922 0.0
C612 C 0.63336 0.03378 0.51609 0.0
H613 H 0.66941 0.04577 0.70234 0.0
H614 H 0.66733 0.0591 0.63613 0.0
H615 H 0.59856 0.00791 0.59645 0.0
H616 H 0.61969 0.99586 0.39387 0.0
H617 H 0.60562 0.00475 0.45584 0.0
C618 C 0.65668 0.66475 0.67254 0.0
C619 C 0.64118 0.67267 0.65904 0.0
C620 C 0.66207 0.6656 0.71278 0.0
C621 C 0.65655 0.68902 0.81077 0.0
H622 H 0.65579 0.63309 0.84976 0.0
C623 C 0.64061 0.65887 0.97491 0.0
C624 C 0.65425 0.64918 0.99016 0.0
C625 C 0.64239 0.66517 0.93495 0.0
C626 C 0.65641 0.64899 0.83932 0.0
H627 H 0.62002 0.68869 0.67698 0.0
H628 H 0.62882 0.68951 0.74732 0.0
H629 H 0.65309 0.63808 0.77904 0.0
H630 H 0.68127 0.63951 0.97558 0.0
H631 H 0.68422 0.65041 0.90605 0.0
H632 H 0.65893 0.69935 0.87168 0.0
C633 C 0.63721 0.68304 0.7268 0.0
C634 C 0.65494 0.65191 0.79869 0.0
C635 C 0.63207 0.68247 0.68642 0.0
C636 C 0.67035 0.64676 0.96487 0.0
C637 C 0.67201 0.65293 0.92496 0.0
C638 C 0.6578 0.68598 0.85158 0.0
C639 C 0.65181 0.67407 0.74059 0.0
C640 C 0.65488 0.6719 0.78383 0.0
C641 C 0.65773 0.66178 0.90942 0.0
C642 C 0.65764 0.66586 0.86623 0.0
H643 H 0.66427 0.6574 0.65211 0.0
H644 H 0.6739 0.65911 0.72218 0.0
H645 H 0.65684 0.70476 0.80036 0.0
H646 H 0.62811 0.66107 0.99357 0.0
H647 H 0.63106 0.67182 0.92371 0.0
C648 C 0.03787 0.66668 0.27094 0.0
C649 C 0.01893 0.65494 0.29778 0.0
C650 C 0.03339 0.66973 0.23156 0.0
C651 C 0.98625 0.64316 0.15638 0.0
H652 H 0.03029 0.69663 0.09409 0.0
C653 C 0.97476 0.64657 0.98812 0.0
C654 C 0.99536 0.65156 0.96619 0.0
C655 C 0.9762 0.65082 0.02886 0.0
C656 C 0.01783 0.68163 0.11117 0.0
H657 H 0.98045 0.63817 0.30464 0.0
H658 H 0.97266 0.64384 0.23593 0.0
H659 H 0.03503 0.69716 0.16597 0.0
H660 H 0.03382 0.66621 0.96954 0.0
H661 H 0.03628 0.67359 0.04059 0.0
H662 H 0.96934 0.62746 0.10155 0.0
C663 C 0.99097 0.65026 0.24523 0.0
C664 C 0.02055 0.68188 0.15228 0.0
C665 C 0.99543 0.64709 0.28466 0.0
C666 C 0.01759 0.66204 0.98554 0.0
C667 C 0.01903 0.66642 0.02623 0.0
C668 C 0.98343 0.64299 0.11536 0.0
C669 C 0.00987 0.66125 0.21806 0.0
C670 C 0.00516 0.6624 0.17525 0.0
C671 C 0.99828 0.66033 0.04844 0.0
C672 C -0.00048 0.66198 0.09225 0.0
H673 H 0.05621 0.67298 0.27998 0.0
H674 H 0.04837 0.67795 0.21138 0.0
H675 H 0.97428 0.62772 0.173 0.0
H676 H 0.95734 0.63861 0.97415 0.0
H677 H 0.95996 0.64619 0.04521 0.0
C678 C 0.3161 0.91462 0.43496 0.0
C679 C 0.32943 0.93408 0.41051 0.0
C680 C 0.31386 0.91753 0.47539 0.0
C681 C 0.34118 0.95618 0.55916 0.0
H682 H 0.27673 0.93401 0.59818 0.0
C683 C 0.30129 0.98984 0.68311 0.0
C684 C 0.31501 0.99056 0.71596 0.0
C685 C 0.29914 0.97584 0.65058 0.0
C686 C 0.29476 0.93989 0.5878 0.0
H687 H 0.35156 0.97171 0.40928 0.0
H688 H 0.34811 0.97674 0.48051 0.0
H689 H 0.28296 0.92455 0.5304 0.0
H690 H 0.33588 0.97617 0.7421 0.0
H691 H 0.33258 0.95203 0.6846 0.0
H692 H 0.35303 0.97205 0.61609 0.0
C693 C 0.33928 0.9593 0.4681 0.0
C694 C 0.29833 0.93452 0.54921 0.0
C695 C 0.34116 0.95644 0.42745 0.0
C696 C 0.32489 0.97562 0.7173 0.0
C697 C 0.3232 0.96199 0.68437 0.0
C698 C 0.3376 0.96116 0.59796 0.0
C699 C 0.32529 0.93989 0.49219 0.0
C700 C 0.32158 0.94317 0.53432 0.0
C701 C 0.31113 0.96277 0.6502 0.0
C702 C 0.31438 0.95355 0.61223 0.0
H703 H 0.30678 0.89716 0.42267 0.0
H704 H 0.30304 0.90234 0.49349 0.0
H705 H 0.35924 0.96293 0.54824 0.0
H706 H 0.29373 0.00141 0.68139 0.0
H707 H 0.28991 0.97685 0.62442 0.0
C708 C 0.40971 0.44482 0.07078 0.0
C709 C 0.40241 0.42606 0.09733 0.0
C710 C 0.43385 0.46147 0.0673 0.0
C711 C 0.48923 0.48748 0.12448 0.0
H712 H 0.52034 0.51142 0.02329 0.0
C713 C 0.59063 0.5477 0.06286 0.0
C714 C 0.59868 0.56666 0.08916 0.0
C715 C 0.56644 0.53093 0.06137 0.0
C716 C 0.51187 0.50484 0.05173 0.0
H717 H 0.41472 0.40978 0.14043 0.0
H718 H 0.4568 0.43889 0.13443 0.0
H719 H 0.47859 0.48042 0.02504 0.0
H720 H 0.58762 0.5832 0.1339 0.0
H721 H 0.54547 0.5539 0.13136 0.0
H722 H 0.52239 0.51181 0.15124 0.0
C723 C 0.44384 0.44075 0.11645 0.0
C724 C 0.48799 0.48723 0.05273 0.0
C725 C 0.41976 0.42401 0.11968 0.0
C726 C 0.582 0.56881 0.11328 0.0
C727 C 0.55788 0.55196 0.11204 0.0
C728 C 0.51298 0.50521 0.12349 0.0
C729 C 0.45111 0.4598 0.09058 0.0
C730 C 0.47647 0.47833 0.08914 0.0
C731 C 0.5499 0.5327 0.08644 0.0
C732 C 0.52456 0.51407 0.08713 0.0
H733 H 0.39676 0.44686 0.05312 0.0
H734 H 0.43893 0.47605 0.04729 0.0
H735 H 0.48074 0.48113 0.15298 0.0
H736 H 0.60305 0.54558 0.04388 0.0
H737 H 0.56079 0.5162 0.04151 0.0
C738 C 0.01192 0.57605 0.41957 0.0
C739 C 0.03241 0.58905 0.39637 0.0
C740 C 0.00014 0.55166 0.41865 0.0
C741 C 0.01203 0.50345 0.39772 0.0
H742 H 0.94315 0.46506 0.40236 0.0
C743 C 0.96699 0.40643 0.43916 0.0
C744 C 0.9472 0.39083 0.4166 0.0
C745 C 0.97648 0.43047 0.4348 0.0
C746 C 0.9624 0.47556 0.40074 0.0
H747 H 0.05605 0.58671 0.35283 0.0
H748 H 0.03541 0.54422 0.35102 0.0
H749 H 0.961 0.50745 0.39624 0.0
H750 H 0.92151 0.38819 0.37228 0.0
H751 H 0.9382 0.43036 0.3646 0.0
H752 H 0.01352 0.47169 0.40209 0.0
C753 C 0.02866 0.55285 0.37037 0.0
C754 C 0.97261 0.49981 0.39761 0.0
C755 C 0.04042 0.5772 0.37128 0.0
C756 C 0.93681 0.39979 0.39004 0.0
C757 C 0.94629 0.4239 0.38575 0.0
C758 C 0.00185 0.47928 0.40099 0.0
C759 C 0.00865 0.53981 0.39455 0.0
C760 C 0.99755 0.51401 0.39624 0.0
C761 C 0.96635 0.43948 0.40787 0.0
C762 C 0.97694 0.46508 0.40286 0.0
H763 H 0.00536 0.58466 0.43932 0.0
H764 H 0.9849 0.54209 0.4379 0.0
H765 H 0.03131 0.5139 0.39722 0.0
H766 H 0.97517 0.40013 0.46038 0.0
H767 H 0.99167 0.44203 0.45281 0.0
C768 C 0.53381 0.96681 0.73476 0.0
C769 C 0.54743 0.96901 0.70074 0.0
C770 C 0.51393 0.97012 0.73257 0.0
C771 C 0.48999 0.00037 0.67074 0.0
H772 H 0.43552 0.9695 0.74103 0.0
C773 C 0.41109 0.02001 0.67097 0.0
C774 C 0.4039 0.02359 0.70855 0.0
C775 C 0.42719 0.01149 0.66744 0.0
C776 C 0.45067 0.97831 0.72132 0.0
H777 H 0.54979 0.97495 0.6372 0.0
H778 H 0.5147 0.98003 0.63325 0.0
H779 H 0.46497 0.95619 0.73827 0.0
H780 H 0.408 0.02088 0.77189 0.0
H781 H 0.436 0.00599 0.76561 0.0
H782 H 0.4756 0.02248 0.6539 0.0
C783 C 0.5198 0.97638 0.66185 0.0
C784 C 0.46758 0.97072 0.71976 0.0
C785 C 0.53981 0.97323 0.66407 0.0
C786 C 0.41319 0.01843 0.74248 0.0
C787 C 0.42908 0.0097 0.73892 0.0
C788 C 0.47296 0.0078 0.67205 0.0
C789 C 0.50701 0.97554 0.69626 0.0
C790 C 0.48769 0.98192 0.69497 0.0
C791 C 0.43623 0.00612 0.70139 0.0
C792 C 0.45336 0.99712 0.69787 0.0
H793 H 0.53916 0.96366 0.76355 0.0
H794 H 0.50472 0.96956 0.75979 0.0
H795 H 0.50541 0.0097 0.65178 0.0
H796 H 0.40423 0.02371 0.64419 0.0
H797 H 0.43229 0.00878 0.63813 0.0
C798 C 0.56618 0.59688 0.54414 0.0
C799 C 0.56084 0.61276 0.56337 0.0
C800 C 0.55207 0.57294 0.5503 0.0
C801 C 0.49197 0.52852 0.58159 0.0
H802 H 0.52163 0.48933 0.58621 0.0
C803 C 0.44055 0.42931 0.55258 0.0
C804 C 0.44742 0.41498 0.57332 0.0
C805 C 0.45324 0.45353 0.55726 0.0
C806 C 0.51301 0.49999 0.58559 0.0
H807 H 0.53659 0.616 0.60443 0.0
H808 H 0.51199 0.57404 0.61549 0.0
H809 H 0.54654 0.53152 0.5843 0.0
H810 H 0.47216 0.41466 0.61675 0.0
H811 H 0.49403 0.45687 0.62547 0.0
H812 H 0.45841 0.49691 0.58306 0.0
C813 C 0.52699 0.58016 0.59533 0.0
C814 C 0.52732 0.52419 0.58396 0.0
C815 C 0.54114 0.60418 0.58913 0.0
C816 C 0.46659 0.42526 0.60005 0.0
C817 C 0.47919 0.44946 0.60491 0.0
C818 C 0.47763 0.50427 0.58332 0.0
C819 C 0.53229 0.56428 0.57589 0.0
C820 C 0.51699 0.53872 0.58121 0.0
C821 C 0.47299 0.46391 0.58294 0.0
C822 C 0.488 0.48971 0.58471 0.0
H823 H 0.58103 0.60287 0.52372 0.0
H824 H 0.55638 0.56117 0.53427 0.0
H825 H 0.48345 0.53922 0.57926 0.0
H826 H 0.4259 0.42191 0.53166 0.0
H827 H 0.44814 0.46414 0.53954 0.0
C828 C 0.00136 0.57849 0.86437 0.0
C829 C 0.97706 0.57192 0.86694 0.0
C830 C 0.00897 0.56207 0.87036 0.0
C831 C 0.98835 0.50133 0.90715 0.0
H832 H 0.04029 0.50651 0.84135 0.0
C833 C 0.00758 0.42554 0.87311 0.0
C834 C 0.03132 0.43034 0.8776 0.0
C835 C 0.00171 0.44335 0.87674 0.0
C836 C 0.02593 0.50501 0.8602 0.0
H837 H 0.94164 0.543 0.87796 0.0
H838 H 0.95465 0.51418 0.88657 0.0
H839 H 0.02858 0.53659 0.83788 0.0
H840 H 0.06751 0.4576 0.88973 0.0
H841 H 0.05727 0.48885 0.89493 0.0
H842 H 0.98507 0.46896 0.9277 0.0
C843 C 0.96807 0.53213 0.88129 0.0
C844 C 0.01925 0.52231 0.85844 0.0
C845 C 0.96054 0.54865 0.87606 0.0
C846 C 0.04903 0.45331 0.88623 0.0
C847 C 0.04323 0.4712 0.88908 0.0
C848 C 0.99476 0.48381 0.90831 0.0
C849 C 0.99239 0.53856 0.87825 0.0
C850 C 0.00026 0.52066 0.88171 0.0
C851 C 0.01953 0.46638 0.88415 0.0
C852 C 0.01353 0.48546 0.88471 0.0
H853 H 0.01458 0.59627 0.8577 0.0
H854 H 0.0279 0.56787 0.86865 0.0
H855 H 0.974 0.49964 0.92616 0.0
H856 H 0.99351 0.40811 0.86636 0.0
H857 H 0.98333 0.43925 0.8725 0.0
C858 C 0.59988 0.04529 0.33891 0.0
C859 C 0.61165 0.0387 0.31079 0.0
C860 C 0.57513 0.03618 0.33703 0.0
C861 C 0.52169 0.00286 0.27313 0.0
H862 H 0.48961 0.97939 0.37372 0.0
C863 C 0.42302 0.93219 0.33883 0.0
C864 C 0.40825 0.93788 0.31603 0.0
C865 C 0.44785 0.94572 0.33647 0.0
C866 C 0.49829 0.98569 0.34535 0.0
H867 H 0.60686 0.01873 0.25695 0.0
H868 H 0.56391 0.00277 0.25396 0.0
H869 H 0.53293 0.00246 0.37185 0.0
H870 H 0.40813 0.96202 0.27208 0.0
H871 H 0.45133 0.98566 0.26838 0.0
H872 H 0.48704 0.98531 0.24649 0.0
C873 C 0.57369 0.01501 0.2774 0.0
C874 C 0.52312 -0.00074 0.34434 0.0
C875 C 0.59838 0.0241 0.27925 0.0
C876 C 0.41892 0.95707 0.29007 0.0
C877 C 0.44374 0.97061 0.2878 0.0
C878 C 0.49683 0.98924 0.27413 0.0
C879 C 0.56168 0.02034 0.30696 0.0
C880 C 0.53515 0.00782 0.30819 0.0
C881 C 0.45849 0.96528 0.31134 0.0
C882 C 0.48486 0.98028 0.31022 0.0
H883 H 0.60954 0.05654 0.36354 0.0
H884 H 0.56644 0.04097 0.35985 0.0
H885 H 0.5304 0.00933 0.24482 0.0
H886 H 0.41544 0.91749 0.35898 0.0
H887 H 0.45872 0.94087 0.35444 0.0
loop_
_geom_bond_atom_site_label_1
_geom_bond_atom_site_label_2
_geom_bond_distance
_geom_bond_site_symmetry_2
_ccdc_geom_bond_type
Mg0 O1 2.028 . S
Mg0 O7 1.986 . S
Mg0 O9 2.114 . S
Mg0 O10 2.251 . S
Mg0 O13 2.010 . S
O1 Mg0 2.028 . S
O1 C4 1.250 . S
O2 Mg3 2.028 . S
O2 C4 1.248 . S
Mg3 O2 2.028 . S
Mg3 O8 2.032 . S
Mg3 O10 2.079 . S
C4 O1 1.250 . S
C4 O2 1.248 . S
C5 O6 1.264 . S
C5 O13 1.249 . S
O6 C5 1.264 . S
O7 Mg0 1.986 . S
O7 C11 1.246 . S
O8 Mg3 2.032 . S
O8 C11 1.259 . S
O9 Mg0 2.114 . S
O9 C12 1.252 . S
O10 Mg0 2.251 . S
O10 Mg3 2.079 . S
O10 C12 1.273 . S
C11 O7 1.246 . S
C11 O8 1.259 . S
C12 O9 1.252 . S
C12 O10 1.273 . S
O13 Mg0 2.010 . S
O13 C5 1.249 . S
Mg14 O15 2.028 . S
Mg14 O21 1.986 . S
Mg14 O23 2.114 . S
Mg14 O24 2.251 . S
Mg14 O27 2.010 . S
O15 Mg14 2.028 . S
O15 C18 1.250 . S
O16 Mg17 2.028 . S
O16 C18 1.248 . S
Mg17 O16 2.028 . S
Mg17 O22 2.032 . S
Mg17 O24 2.079 . S
C18 O15 1.250 . S
C18 O16 1.248 . S
C19 O20 1.264 . S
C19 O27 1.249 . S
O20 C19 1.264 . S
O21 Mg14 1.986 . S
O21 C25 1.246 . S
O22 Mg17 2.032 . S
O22 C25 1.259 . S
O23 Mg14 2.114 . S
O23 C26 1.252 . S
O24 Mg14 2.251 . S
O24 Mg17 2.079 . S
O24 C26 1.273 . S
C25 O21 1.246 . S
C25 O22 1.259 . S
C26 O23 1.252 . S
C26 O24 1.273 . S
O27 Mg14 2.010 . S
O27 C19 1.249 . S
Mg28 O29 2.028 . S
Mg28 O35 1.986 . S
Mg28 O37 2.114 . S
Mg28 O38 2.251 . S
Mg28 O41 2.010 . S
O29 Mg28 2.028 . S
O29 C32 1.250 . S
O30 Mg31 2.028 . S
O30 C32 1.248 . S
Mg31 O30 2.028 . S
Mg31 O36 2.032 . S
Mg31 O38 2.079 . S
C32 O29 1.250 . S
C32 O30 1.248 . S
C33 O34 1.264 . S
C33 O41 1.249 . S
O34 C33 1.264 . S
O35 Mg28 1.986 . S
O35 C39 1.246 . S
O36 Mg31 2.032 . S
O36 C39 1.259 . S
O37 Mg28 2.114 . S
O37 C40 1.252 . S
O38 Mg28 2.251 . S
O38 Mg31 2.079 . S
O38 C40 1.273 . S
C39 O35 1.246 . S
C39 O36 1.259 . S
C40 O37 1.252 . S
C40 O38 1.273 . S
O41 Mg28 2.010 . S
O41 C33 1.249 . S
Mg42 O43 2.028 . S
Mg42 O49 1.986 . S
Mg42 O51 2.114 . S
Mg42 O52 2.251 . S
Mg42 O55 2.010 . S
O43 Mg42 2.028 . S
O43 C46 1.250 . S
O44 Mg45 2.028 . S
O44 C46 1.248 . S
Mg45 O44 2.028 . S
Mg45 O50 2.032 . S
Mg45 O52 2.079 . S
C46 O43 1.250 . S
C46 O44 1.248 . S
C47 O48 1.264 . S
C47 O55 1.249 . S
O48 C47 1.264 . S
O49 Mg42 1.986 . S
O49 C53 1.246 . S
O50 Mg45 2.032 . S
O50 C53 1.259 . S
O51 Mg42 2.114 . S
O51 C54 1.252 . S
O52 Mg42 2.251 . S
O52 Mg45 2.079 . S
O52 C54 1.273 . S
C53 O49 1.246 . S
C53 O50 1.259 . S
C54 O51 1.252 . S
C54 O52 1.273 . S
O55 Mg42 2.010 . S
O55 C47 1.249 . S
Mg56 O57 2.028 . S
Mg56 O63 1.986 . S
Mg56 O65 2.114 . S
Mg56 O66 2.251 . S
Mg56 O69 2.010 . S
O57 Mg56 2.028 . S
O57 C60 1.250 . S
O58 Mg59 2.028 . S
O58 C60 1.248 . S
Mg59 O58 2.028 . S
Mg59 O64 2.032 . S
Mg59 O66 2.079 . S
C60 O57 1.250 . S
C60 O58 1.248 . S
C61 O62 1.264 . S
C61 O69 1.249 . S
O62 C61 1.264 . S
O63 Mg56 1.986 . S
O63 C67 1.246 . S
O64 Mg59 2.032 . S
O64 C67 1.259 . S
O65 Mg56 2.114 . S
O65 C68 1.252 . S
O66 Mg56 2.251 . S
O66 Mg59 2.079 . S
O66 C68 1.273 . S
C67 O63 1.246 . S
C67 O64 1.259 . S
C68 O65 1.252 . S
C68 O66 1.273 . S
O69 Mg56 2.010 . S
O69 C61 1.249 . S
Mg70 O71 2.028 . S
Mg70 O77 1.986 . S
Mg70 O79 2.114 . S
Mg70 O80 2.251 . S
Mg70 O83 2.010 . S
O71 Mg70 2.028 . S
O71 C74 1.250 . S
O72 Mg73 2.028 . S
O72 C74 1.248 . S
Mg73 O72 2.028 . S
Mg73 O78 2.032 . S
Mg73 O80 2.079 . S
C74 O71 1.250 . S
C74 O72 1.248 . S
C75 O76 1.264 . S
C75 O83 1.249 . S
O76 C75 1.264 . S
O77 Mg70 1.986 . S
O77 C81 1.246 . S
O78 Mg73 2.032 . S
O78 C81 1.259 . S
O79 Mg70 2.114 . S
O79 C82 1.252 . S
O80 Mg70 2.251 . S
O80 Mg73 2.079 . S
O80 C82 1.273 . S
C81 O77 1.246 . S
C81 O78 1.259 . S
C82 O79 1.252 . S
C82 O80 1.273 . S
O83 Mg70 2.010 . S
O83 C75 1.249 . S
Mg84 O85 2.028 . S
Mg84 O91 1.986 . S
Mg84 O93 2.114 . S
Mg84 O94 2.251 . S
Mg84 O97 2.010 . S
O85 Mg84 2.028 . S
O85 C88 1.250 . S
O86 Mg87 2.028 . S
O86 C88 1.248 . S
Mg87 O86 2.028 . S
Mg87 O92 2.032 . S
Mg87 O94 2.079 . S
C88 O85 1.250 . S
C88 O86 1.248 . S
C89 O90 1.264 . S
C89 O97 1.249 . S
O90 C89 1.264 . S
O91 Mg84 1.986 . S
O91 C95 1.246 . S
O92 Mg87 2.032 . S
O92 C95 1.259 . S
O93 Mg84 2.114 . S
O93 C96 1.252 . S
O94 Mg84 2.251 . S
O94 Mg87 2.079 . S
O94 C96 1.273 . S
C95 O91 1.246 . S
C95 O92 1.259 . S
C96 O93 1.252 . S
C96 O94 1.273 . S
O97 Mg84 2.010 . S
O97 C89 1.249 . S
Mg98 O99 2.028 . S
Mg98 O105 1.986 . S
Mg98 O107 2.114 . S
Mg98 O108 2.251 . S
Mg98 O111 2.010 . S
O99 Mg98 2.028 . S
O99 C102 1.250 . S
O100 Mg101 2.028 . S
O100 C102 1.248 1_455 S
Mg101 O100 2.028 . S
Mg101 O106 2.032 . S
Mg101 O108 2.079 1_455 S
C102 O99 1.250 . S
C102 O100 1.248 1_655 S
C103 O104 1.264 . S
C103 O111 1.249 . S
O104 C103 1.264 . S
O105 Mg98 1.986 . S
O105 C109 1.246 . S
O106 Mg101 2.032 . S
O106 C109 1.259 1_455 S
O107 Mg98 2.114 . S
O107 C110 1.252 . S
O108 Mg98 2.251 . S
O108 Mg101 2.079 1_655 S
O108 C110 1.273 . S
C109 O105 1.246 . S
C109 O106 1.259 1_655 S
C110 O107 1.252 . S
C110 O108 1.273 . S
O111 Mg98 2.010 . S
O111 C103 1.249 . S
Mg112 O113 2.028 . S
Mg112 O119 1.986 . S
Mg112 O121 2.114 . S
Mg112 O122 2.251 . S
Mg112 O125 2.010 . S
O113 Mg112 2.028 . S
O113 C116 1.250 . S
O114 Mg115 2.028 . S
O114 C116 1.248 . S
Mg115 O114 2.028 . S
Mg115 O120 2.032 . S
Mg115 O122 2.079 . S
C116 O113 1.250 . S
C116 O114 1.248 . S
C117 O118 1.264 . S
C117 O125 1.249 . S
O118 C117 1.264 . S
O119 Mg112 1.986 . S
O119 C123 1.246 . S
O120 Mg115 2.032 . S
O120 C123 1.259 . S
O121 Mg112 2.114 . S
O121 C124 1.252 . S
O122 Mg112 2.251 . S
O122 Mg115 2.079 . S
O122 C124 1.273 . S
C123 O119 1.246 . S
C123 O120 1.259 . S
C124 O121 1.252 . S
C124 O122 1.273 . S
O125 Mg112 2.010 . S
O125 C117 1.249 . S
Mg126 O127 2.028 . S
Mg126 O133 1.986 . S
Mg126 O135 2.114 . S
Mg126 O136 2.251 . S
Mg126 O139 2.010 . S
O127 Mg126 2.028 . S
O127 C130 1.250 . S
O128 Mg129 2.028 . S
O128 C130 1.248 . S
Mg129 O128 2.028 . S
Mg129 O134 2.032 . S
Mg129 O136 2.079 . S
C130 O127 1.250 . S
C130 O128 1.248 . S
C131 O132 1.264 . S
C131 O139 1.249 . S
O132 C131 1.264 . S
O133 Mg126 1.986 . S
O133 C137 1.246 . S
O134 Mg129 2.032 . S
O134 C137 1.259 . S
O135 Mg126 2.114 . S
O135 C138 1.252 . S
O136 Mg126 2.251 . S
O136 Mg129 2.079 . S
O136 C138 1.273 . S
C137 O133 1.246 . S
C137 O134 1.259 . S
C138 O135 1.252 . S
C138 O136 1.273 . S
O139 Mg126 2.010 . S
O139 C131 1.249 . S
Mg140 O141 2.028 . S
Mg140 O147 1.986 . S
Mg140 O149 2.114 . S
Mg140 O150 2.251 . S
Mg140 O153 2.010 . S
O141 Mg140 2.028 . S
O141 C144 1.250 . S
O142 Mg143 2.028 . S
O142 C144 1.248 1_655 S
Mg143 O142 2.028 . S
Mg143 O148 2.032 . S
Mg143 O150 2.079 1_655 S
C144 O141 1.250 . S
C144 O142 1.248 1_455 S
C145 O146 1.264 . S
C145 O153 1.249 . S
O146 C145 1.264 . S
O147 Mg140 1.986 . S
O147 C151 1.246 . S
O148 Mg143 2.032 . S
O148 C151 1.259 1_655 S
O149 Mg140 2.114 . S
O149 C152 1.252 . S
O150 Mg140 2.251 . S
O150 Mg143 2.079 1_455 S
O150 C152 1.273 . S
C151 O147 1.246 . S
C151 O148 1.259 1_455 S
C152 O149 1.252 . S
C152 O150 1.273 . S
O153 Mg140 2.010 . S
O153 C145 1.249 . S
Mg154 O155 2.028 . S
Mg154 O161 1.986 . S
Mg154 O163 2.114 . S
Mg154 O164 2.251 . S
Mg154 O167 2.010 . S
O155 Mg154 2.028 . S
O155 C158 1.250 . S
O156 Mg157 2.028 . S
O156 C158 1.248 . S
Mg157 O156 2.028 . S
Mg157 O162 2.032 . S
Mg157 O164 2.079 . S
C158 O155 1.250 . S
C158 O156 1.248 . S
C159 O160 1.264 . S
C159 O167 1.249 . S
O160 C159 1.264 . S
O161 Mg154 1.986 . S
O161 C165 1.246 . S
O162 Mg157 2.032 . S
O162 C165 1.259 . S
O163 Mg154 2.114 . S
O163 C166 1.252 . S
O164 Mg154 2.251 . S
O164 Mg157 2.079 . S
O164 C166 1.273 . S
C165 O161 1.246 . S
C165 O162 1.259 . S
C166 O163 1.252 . S
C166 O164 1.273 . S
O167 Mg154 2.010 . S
O167 C159 1.249 . S
C168 C169 1.349 . S
C168 C170 1.327 . S
C168 H193 0.950 . S
C169 C168 1.349 . S
C169 C185 1.349 . S
C170 C168 1.327 . S
C170 C189 1.429 . S
C170 H194 0.950 . S
C171 C188 1.574 . S
C171 C190 1.368 . S
C171 H195 0.949 . S
H172 C176 0.949 . S
C173 C174 1.349 . S
C173 C175 1.327 . S
C173 H196 0.950 . S
C174 C173 1.349 . S
C174 C186 1.349 . S
C175 C173 1.327 . S
C175 C191 1.429 . S
C175 H197 0.950 . S
C176 H172 0.949 . S
C176 C184 1.574 . S
C176 C192 1.368 . S
H177 C185 0.950 . S
H178 C183 0.950 . S
H179 C184 0.949 . S
H180 C186 0.950 . S
H181 C187 0.950 . S
H182 C188 0.949 . S
C183 H178 0.950 . S
C183 C185 1.327 . S
C183 C189 1.429 . S
C184 C176 1.574 . S
C184 H179 0.949 . S
C184 C190 1.368 . S
C185 C169 1.349 . S
C185 H177 0.950 . S
C185 C183 1.327 . S
C186 C174 1.349 . S
C186 H180 0.950 . S
C186 C187 1.327 . S
C187 H181 0.950 . S
C187 C186 1.327 . S
C187 C191 1.429 . S
C188 C171 1.574 . S
C188 H182 0.949 . S
C188 C192 1.368 . S
C189 C170 1.429 . S
C189 C183 1.429 . S
C189 C190 1.523 . S
C190 C171 1.368 . S
C190 C184 1.368 . S
C190 C189 1.523 . S
C191 C175 1.429 . S
C191 C187 1.429 . S
C191 C192 1.523 . S
C192 C176 1.368 . S
C192 C188 1.368 . S
C192 C191 1.523 . S
H193 C168 0.950 . S
H194 C170 0.950 . S
H195 C171 0.949 . S
H196 C173 0.950 . S
H197 C175 0.950 . S
C198 C199 1.349 . S
C198 C200 1.327 . S
C198 H223 0.950 . S
C199 C198 1.349 . S
C199 C215 1.349 . S
C200 C198 1.327 . S
C200 C219 1.429 . S
C200 H224 0.950 . S
C201 C218 1.574 . S
C201 C220 1.368 . S
C201 H225 0.949 . S
H202 C206 0.949 . S
C203 C204 1.349 . S
C203 C205 1.327 . S
C203 H226 0.950 . S
C204 C203 1.349 . S
C204 C216 1.349 . S
C205 C203 1.327 . S
C205 C221 1.418 1_455 S
C205 H227 0.950 . S
C206 H202 0.949 . S
C206 C214 1.574 . S
C206 C222 1.368 . S
H207 C215 0.950 . S
H208 C213 0.950 . S
H209 C214 0.949 . S
H210 C216 0.950 . S
H211 C217 0.948 . S
H212 C218 0.949 . S
C213 H208 0.950 . S
C213 C215 1.327 . S
C213 C219 1.429 . S
C214 C206 1.574 . S
C214 H209 0.949 . S
C214 C220 1.368 . S
C215 C199 1.349 . S
C215 H207 0.950 . S
C215 C213 1.327 . S
C216 C204 1.349 . S
C216 H210 0.950 . S
C216 C217 1.328 1_455 S
C217 H211 0.948 . S
C217 C216 1.328 1_655 S
C217 C221 1.437 . S
C218 C201 1.574 . S
C218 H212 0.949 . S
C218 C222 1.368 . S
C219 C200 1.429 . S
C219 C213 1.429 . S
C219 C220 1.523 . S
C220 C201 1.368 . S
C220 C214 1.368 . S
C220 C219 1.523 . S
C221 C205 1.418 1_655 S
C221 C217 1.437 . S
C221 C222 1.526 . S
C222 C206 1.368 . S
C222 C218 1.368 . S
C222 C221 1.526 . S
H223 C198 0.950 . S
H224 C200 0.950 . S
H225 C201 0.949 . S
H226 C203 0.950 . S
H227 C205 0.950 . S
C228 C229 1.366 . S
C228 C230 1.324 1_565 S
C228 H253 0.936 1_565 S
C229 C228 1.366 . S
C229 C245 1.349 . S
C230 C228 1.324 1_545 S
C230 C249 1.429 1_545 S
C230 H254 0.950 . S
C231 C248 1.574 1_556 S
C231 C250 1.368 . S
C231 H255 0.949 . S
H232 C236 0.949 . S
C233 C234 1.366 . S
C233 C235 1.324 1_545 S
C233 H256 0.936 1_545 S
C234 C233 1.366 . S
C234 C246 1.349 . S
C235 C233 1.324 1_565 S
C235 C251 1.429 1_565 S
C235 H257 0.950 . S
C236 H232 0.949 . S
C236 C244 1.574 1_554 S
C236 C252 1.368 . S
H237 C245 0.950 . S
H238 C243 0.950 . S
H239 C244 0.949 . S
H240 C246 0.950 . S
H241 C247 0.950 . S
H242 C248 0.949 . S
C243 H238 0.950 . S
C243 C245 1.327 . S
C243 C249 1.429 . S
C244 C236 1.574 1_556 S
C244 H239 0.949 . S
C244 C250 1.368 1_545 S
C245 C229 1.349 . S
C245 H237 0.950 . S
C245 C243 1.327 . S
C246 C234 1.349 . S
C246 H240 0.950 . S
C246 C247 1.327 . S
C247 H241 0.950 . S
C247 C246 1.327 . S
C247 C251 1.429 . S
C248 C231 1.574 1_554 S
C248 H242 0.949 . S
C248 C252 1.368 1_565 S
C249 C230 1.429 1_565 S
C249 C243 1.429 . S
C249 C250 1.523 . S
C250 C231 1.368 . S
C250 C244 1.368 1_565 S
C250 C249 1.523 . S
C251 C235 1.429 1_545 S
C251 C247 1.429 . S
C251 C252 1.523 . S
C252 C236 1.368 . S
C252 C248 1.368 1_545 S
C252 C251 1.523 . S
H253 C228 0.936 1_545 S
H254 C230 0.950 . S
H255 C231 0.949 . S
H256 C233 0.936 1_565 S
H257 C235 0.950 . S
C258 C259 1.349 . S
C258 C260 1.327 . S
C258 H283 0.950 . S
C259 C258 1.349 . S
C259 C275 1.349 . S
C260 C258 1.327 . S
C260 C279 1.429 . S
C260 H284 0.950 . S
C261 C278 1.574 . S
C261 C280 1.368 . S
C261 H285 0.949 . S
H262 C266 0.949 . S
C263 C264 1.349 . S
C263 C265 1.327 . S
C263 H286 0.950 . S
C264 C263 1.349 . S
C264 C276 1.349 . S
C265 C263 1.327 . S
C265 C281 1.429 . S
C265 H287 0.950 . S
C266 H262 0.949 . S
C266 C274 1.574 . S
C266 C282 1.368 . S
H267 C275 0.950 . S
H268 C273 0.950 . S
H269 C274 0.949 . S
H270 C276 0.950 . S
H271 C277 0.950 . S
H272 C278 0.949 . S
C273 H268 0.950 . S
C273 C275 1.327 . S
C273 C279 1.429 . S
C274 C266 1.574 . S
C274 H269 0.949 . S
C274 C280 1.368 . S
C275 C259 1.349 . S
C275 H267 0.950 . S
C275 C273 1.327 . S
C276 C264 1.349 . S
C276 H270 0.950 . S
C276 C277 1.327 . S
C277 H271 0.950 . S
C277 C276 1.327 . S
C277 C281 1.429 . S
C278 C261 1.574 . S
C278 H272 0.949 . S
C278 C282 1.368 . S
C279 C260 1.429 . S
C279 C273 1.429 . S
C279 C280 1.523 . S
C280 C261 1.368 . S
C280 C274 1.368 . S
C280 C279 1.523 . S
C281 C265 1.429 . S
C281 C277 1.429 . S
C281 C282 1.523 . S
C282 C266 1.368 . S
C282 C278 1.368 . S
C282 C281 1.523 . S
H283 C258 0.950 . S
H284 C260 0.950 . S
H285 C261 0.949 . S
H286 C263 0.950 . S
H287 C265 0.950 . S
C288 C289 1.349 1_455 S
C288 C290 1.327 . S
C288 H313 0.950 . S
C289 C288 1.349 1_655 S
C289 C305 1.349 . S
C290 C288 1.327 . S
C290 C309 1.436 . S
C290 H314 0.950 . S
C291 C308 1.574 . S
C291 C310 1.368 1_655 S
C291 H315 0.949 . S
H292 C296 0.949 . S
C293 C294 1.349 . S
C293 C295 1.327 1_455 S
C293 H316 0.950 1_455 S
C294 C293 1.349 . S
C294 C306 1.349 . S
C295 C293 1.327 1_655 S
C295 C311 1.428 1_655 S
C295 H317 0.950 . S
C296 H292 0.949 . S
C296 C304 1.574 . S
C296 C312 1.368 . S
H297 C305 0.950 . S
H298 C303 0.950 . S
H299 C304 0.949 . S
H300 C306 0.950 . S
H301 C307 0.950 . S
H302 C308 0.949 . S
C303 H298 0.950 . S
C303 C305 1.327 . S
C303 C309 1.418 1_655 S
C304 C296 1.574 . S
C304 H299 0.949 . S
C304 C310 1.368 . S
C305 C289 1.349 . S
C305 H297 0.950 . S
C305 C303 1.327 . S
C306 C294 1.349 . S
C306 H300 0.950 . S
C306 C307 1.327 . S
C307 H301 0.950 . S
C307 C306 1.327 . S
C307 C311 1.429 . S
C308 C291 1.574 . S
C308 H302 0.949 . S
C308 C312 1.368 1_655 S
C309 C290 1.436 . S
C309 C303 1.418 1_455 S
C309 C310 1.526 . S
C310 C291 1.368 1_455 S
C310 C304 1.368 . S
C310 C309 1.526 . S
C311 C295 1.428 1_455 S
C311 C307 1.429 . S
C311 C312 1.523 . S
C312 C296 1.368 . S
C312 C308 1.368 1_455 S
C312 C311 1.523 . S
H313 C288 0.950 . S
H314 C290 0.950 . S
H315 C291 0.949 . S
H316 C293 0.950 1_655 S
H317 C295 0.950 . S
C318 C319 1.349 . S
C318 C320 1.327 . S
C318 H343 0.950 . S
C319 C318 1.349 . S
C319 C335 1.364 . S
C320 C318 1.327 . S
C320 C339 1.429 . S
C320 H344 0.950 . S
C321 C338 1.574 1_554 S
C321 C340 1.368 1_545 S
C321 H345 0.949 . S
H322 C326 0.949 . S
C323 C324 1.349 . S
C323 C325 1.327 . S
C323 H346 0.950 . S
C324 C323 1.349 . S
C324 C336 1.364 . S
C325 C323 1.327 . S
C325 C341 1.429 . S
C325 H347 0.950 . S
C326 H322 0.949 . S
C326 C334 1.574 1_556 S
C326 C342 1.368 1_565 S
H327 C335 0.941 1_545 S
H328 C333 0.950 . S
H329 C334 0.949 . S
H330 C336 0.941 1_565 S
H331 C337 0.950 . S
H332 C338 0.949 . S
C333 H328 0.950 . S
C333 C335 1.322 1_545 S
C333 C339 1.429 1_545 S
C334 C326 1.574 1_554 S
C334 H329 0.949 . S
C334 C340 1.368 . S
C335 C319 1.364 . S
C335 H327 0.941 1_565 S
C335 C333 1.322 1_565 S
C336 C324 1.364 . S
C336 H330 0.941 1_545 S
C336 C337 1.322 1_545 S
C337 H331 0.950 . S
C337 C336 1.322 1_565 S
C337 C341 1.429 1_565 S
C338 C321 1.574 1_556 S
C338 H332 0.949 . S
C338 C342 1.368 . S
C339 C320 1.429 . S
C339 C333 1.429 1_565 S
C339 C340 1.523 . S
C340 C321 1.368 1_565 S
C340 C334 1.368 . S
C340 C339 1.523 . S
C341 C325 1.429 . S
C341 C337 1.429 1_545 S
C341 C342 1.523 . S
C342 C326 1.368 1_545 S
C342 C338 1.368 . S
C342 C341 1.523 . S
H343 C318 0.950 . S
H344 C320 0.950 . S
H345 C321 0.949 . S
H346 C323 0.950 . S
H347 C325 0.950 . S
C348 C349 1.349 . S
C348 C350 1.327 . S
C348 H373 0.950 . S
C349 C348 1.349 . S
C349 C365 1.349 . S
C350 C348 1.327 . S
C350 C369 1.429 . S
C350 H374 0.950 1_556 S
C351 C368 1.574 . S
C351 C370 1.368 . S
C351 H375 0.949 . S
H352 C356 0.949 . S
C353 C354 1.349 . S
C353 C355 1.327 . S
C353 H376 0.950 . S
C354 C353 1.349 . S
C354 C366 1.349 . S
C355 C353 1.327 . S
C355 C371 1.429 . S
C355 H377 0.950 1_554 S
C356 H352 0.949 . S
C356 C364 1.574 . S
C356 C372 1.368 . S
H357 C365 0.950 . S
H358 C363 0.950 . S
H359 C364 0.949 . S
H360 C366 0.950 . S
H361 C367 0.950 . S
H362 C368 0.949 . S
C363 H358 0.950 . S
C363 C365 1.327 . S
C363 C369 1.429 . S
C364 C356 1.574 . S
C364 H359 0.949 . S
C364 C370 1.368 1_554 S
C365 C349 1.349 . S
C365 H357 0.950 . S
C365 C363 1.327 . S
C366 C354 1.349 . S
C366 H360 0.950 . S
C366 C367 1.327 . S
C367 H361 0.950 . S
C367 C366 1.327 . S
C367 C371 1.429 . S
C368 C351 1.574 . S
C368 H362 0.949 . S
C368 C372 1.368 1_556 S
C369 C350 1.429 . S
C369 C363 1.429 . S
C369 C370 1.523 . S
C370 C351 1.368 . S
C370 C364 1.368 1_556 S
C370 C369 1.523 . S
C371 C355 1.429 . S
C371 C367 1.429 . S
C371 C372 1.523 . S
C372 C356 1.368 . S
C372 C368 1.368 1_554 S
C372 C371 1.523 . S
H373 C348 0.950 . S
H374 C350 0.950 1_554 S
H375 C351 0.949 . S
H376 C353 0.950 . S
H377 C355 0.950 1_556 S
C378 C379 1.349 . S
C378 C380 1.327 . S
C378 H403 0.950 . S
C379 C378 1.349 . S
C379 C395 1.349 . S
C380 C378 1.327 . S
C380 C399 1.429 . S
C380 H404 0.950 . S
C381 C398 1.574 . S
C381 C400 1.368 . S
C381 H405 0.949 . S
H382 C386 0.949 . S
C383 C384 1.349 . S
C383 C385 1.327 . S
C383 H406 0.950 . S
C384 C383 1.349 . S
C384 C396 1.349 . S
C385 C383 1.327 . S
C385 C401 1.429 . S
C385 H407 0.950 . S
C386 H382 0.949 . S
C386 C394 1.574 . S
C386 C402 1.368 . S
H387 C395 0.950 . S
H388 C393 0.950 . S
H389 C394 0.949 . S
H390 C396 0.950 . S
H391 C397 0.950 . S
H392 C398 0.949 . S
C393 H388 0.950 . S
C393 C395 1.327 . S
C393 C399 1.429 . S
C394 C386 1.574 . S
C394 H389 0.949 . S
C394 C400 1.368 . S
C395 C379 1.349 . S
C395 H387 0.950 . S
C395 C393 1.327 . S
C396 C384 1.349 . S
C396 H390 0.950 . S
C396 C397 1.327 . S
C397 H391 0.950 . S
C397 C396 1.327 . S
C397 C401 1.429 . S
C398 C381 1.574 . S
C398 H392 0.949 . S
C398 C402 1.368 . S
C399 C380 1.429 . S
C399 C393 1.429 . S
C399 C400 1.523 . S
C400 C381 1.368 . S
C400 C394 1.368 . S
C400 C399 1.523 . S
C401 C385 1.429 . S
C401 C397 1.429 . S
C401 C402 1.523 . S
C402 C386 1.368 . S
C402 C398 1.368 . S
C402 C401 1.523 . S
H403 C378 0.950 . S
H404 C380 0.950 . S
H405 C381 0.949 . S
H406 C383 0.950 . S
H407 C385 0.950 . S
C408 C409 1.349 . S
C408 C410 1.327 . S
C408 H433 0.950 . S
C409 C408 1.349 . S
C409 C425 1.349 . S
C410 C408 1.327 . S
C410 C429 1.429 . S
C410 H434 0.950 . S
C411 C428 1.574 . S
C411 C430 1.368 . S
C411 H435 0.949 . S
H412 C416 0.949 . S
C413 C414 1.349 . S
C413 C415 1.327 . S
C413 H436 0.950 . S
C414 C413 1.349 . S
C414 C426 1.349 . S
C415 C413 1.327 . S
C415 C431 1.429 . S
C415 H437 0.950 . S
C416 H412 0.949 . S
C416 C424 1.574 . S
C416 C432 1.368 . S
H417 C425 0.950 . S
H418 C423 0.950 . S
H419 C424 0.949 . S
H420 C426 0.950 . S
H421 C427 0.950 . S
H422 C428 0.949 . S
C423 H418 0.950 . S
C423 C425 1.327 . S
C423 C429 1.429 . S
C424 C416 1.574 . S
C424 H419 0.949 . S
C424 C430 1.368 . S
C425 C409 1.349 . S
C425 H417 0.950 . S
C425 C423 1.327 . S
C426 C414 1.349 . S
C426 H420 0.950 . S
C426 C427 1.327 . S
C427 H421 0.950 . S
C427 C426 1.327 . S
C427 C431 1.429 . S
C428 C411 1.574 . S
C428 H422 0.949 . S
C428 C432 1.368 . S
C429 C410 1.429 . S
C429 C423 1.429 . S
C429 C430 1.523 . S
C430 C411 1.368 . S
C430 C424 1.368 . S
C430 C429 1.523 . S
C431 C415 1.429 . S
C431 C427 1.429 . S
C431 C432 1.523 . S
C432 C416 1.368 . S
C432 C428 1.368 . S
C432 C431 1.523 . S
H433 C408 0.950 . S
H434 C410 0.950 . S
H435 C411 0.949 . S
H436 C413 0.950 . S
H437 C415 0.950 . S
C438 C439 1.349 . S
C438 C440 1.327 . S
C438 H463 0.950 . S
C439 C438 1.349 . S
C439 C455 1.349 . S
C440 C438 1.327 . S
C440 C459 1.429 . S
C440 H464 0.950 . S
C441 C458 1.574 . S
C441 C460 1.368 1_556 S
C441 H465 0.949 . S
H442 C446 0.949 . S
C443 C444 1.349 . S
C443 C445 1.327 . S
C443 H466 0.950 . S
C444 C443 1.349 . S
C444 C456 1.349 . S
C445 C443 1.327 . S
C445 C461 1.429 . S
C445 H467 0.950 . S
C446 H442 0.949 . S
C446 C454 1.574 . S
C446 C462 1.368 1_554 S
H447 C455 0.950 . S
H448 C453 0.950 1_556 S
H449 C454 0.949 . S
H450 C456 0.950 . S
H451 C457 0.950 1_554 S
H452 C458 0.949 . S
C453 H448 0.950 1_554 S
C453 C455 1.327 . S
C453 C459 1.429 . S
C454 C446 1.574 . S
C454 H449 0.949 . S
C454 C460 1.368 . S
C455 C439 1.349 . S
C455 H447 0.950 . S
C455 C453 1.327 . S
C456 C444 1.349 . S
C456 H450 0.950 . S
C456 C457 1.327 . S
C457 H451 0.950 1_556 S
C457 C456 1.327 . S
C457 C461 1.429 . S
C458 C441 1.574 . S
C458 H452 0.949 . S
C458 C462 1.368 . S
C459 C440 1.429 . S
C459 C453 1.429 . S
C459 C460 1.523 . S
C460 C441 1.368 1_554 S
C460 C454 1.368 . S
C460 C459 1.523 . S
C461 C445 1.429 . S
C461 C457 1.429 . S
C461 C462 1.523 . S
C462 C446 1.368 1_556 S
C462 C458 1.368 . S
C462 C461 1.523 . S
H463 C438 0.950 . S
H464 C440 0.950 . S
H465 C441 0.949 . S
H466 C443 0.950 . S
H467 C445 0.950 . S
C468 C469 1.349 . S
C468 C470 1.327 . S
C468 H493 0.950 . S
C469 C468 1.349 . S
C469 C485 1.349 . S
C470 C468 1.327 . S
C470 C489 1.429 . S
C470 H494 0.950 . S
C471 C488 1.574 . S
C471 C490 1.368 . S
C471 H495 0.949 . S
H472 C476 0.949 . S
C473 C474 1.349 . S
C473 C475 1.327 . S
C473 H496 0.950 . S
C474 C473 1.349 . S
C474 C486 1.349 . S
C475 C473 1.327 . S
C475 C491 1.429 . S
C475 H497 0.950 . S
C476 H472 0.949 . S
C476 C484 1.574 . S
C476 C492 1.368 . S
H477 C485 0.950 . S
H478 C483 0.950 . S
H479 C484 0.949 . S
H480 C486 0.950 . S
H481 C487 0.950 . S
H482 C488 0.949 . S
C483 H478 0.950 . S
C483 C485 1.327 . S
C483 C489 1.429 . S
C484 C476 1.574 . S
C484 H479 0.949 . S
C484 C490 1.368 . S
C485 C469 1.349 . S
C485 H477 0.950 . S
C485 C483 1.327 . S
C486 C474 1.349 . S
C486 H480 0.950 . S
C486 C487 1.327 . S
C487 H481 0.950 . S
C487 C486 1.327 . S
C487 C491 1.429 . S
C488 C471 1.574 . S
C488 H482 0.949 . S
C488 C492 1.368 . S
C489 C470 1.429 . S
C489 C483 1.429 . S
C489 C490 1.523 . S
C490 C471 1.368 . S
C490 C484 1.368 . S
C490 C489 1.523 . S
C491 C475 1.429 . S
C491 C487 1.429 . S
C491 C492 1.523 . S
C492 C476 1.368 . S
C492 C488 1.368 . S
C492 C491 1.523 . S
H493 C468 0.950 . S
H494 C470 0.950 . S
H495 C471 0.949 . S
H496 C473 0.950 . S
H497 C475 0.950 . S
C498 C499 1.349 . S
C498 C500 1.327 . S
C498 H523 0.950 . S
C499 C498 1.349 . S
C499 C515 1.349 . S
C500 C498 1.327 . S
C500 C519 1.429 . S
C500 H524 0.950 . S
C501 C518 1.574 . S
C501 C520 1.368 . S
C501 H525 0.949 . S
H502 C506 0.949 . S
C503 C504 1.349 . S
C503 C505 1.327 . S
C503 H526 0.950 . S
C504 C503 1.349 . S
C504 C516 1.349 . S
C505 C503 1.327 . S
C505 C521 1.429 . S
C505 H527 0.950 . S
C506 H502 0.949 . S
C506 C514 1.574 . S
C506 C522 1.368 . S
H507 C515 0.950 . S
H508 C513 0.950 . S
H509 C514 0.949 . S
H510 C516 0.950 . S
H511 C517 0.950 . S
H512 C518 0.949 . S
C513 H508 0.950 . S
C513 C515 1.327 . S
C513 C519 1.429 . S
C514 C506 1.574 . S
C514 H509 0.949 . S
C514 C520 1.368 . S
C515 C499 1.349 . S
C515 H507 0.950 . S
C515 C513 1.327 . S
C516 C504 1.349 . S
C516 H510 0.950 . S
C516 C517 1.327 . S
C517 H511 0.950 . S
C517 C516 1.327 . S
C517 C521 1.429 . S
C518 C501 1.574 . S
C518 H512 0.949 . S
C518 C522 1.368 . S
C519 C500 1.429 . S
C519 C513 1.429 . S
C519 C520 1.523 . S
C520 C501 1.368 . S
C520 C514 1.368 . S
C520 C519 1.523 . S
C521 C505 1.429 . S
C521 C517 1.429 . S
C521 C522 1.523 . S
C522 C506 1.368 . S
C522 C518 1.368 . S
C522 C521 1.523 . S
H523 C498 0.950 . S
H524 C500 0.950 . S
H525 C501 0.949 . S
H526 C503 0.950 . S
H527 C505 0.950 . S
C528 C529 1.349 . S
C528 C530 1.327 . S
C528 H553 0.950 . S
C529 C528 1.349 . S
C529 C545 1.349 . S
C530 C528 1.327 . S
C530 C549 1.429 . S
C530 H554 0.950 . S
C531 C548 1.574 . S
C531 C550 1.368 . S
C531 H555 0.949 . S
H532 C536 0.949 . S
C533 C534 1.349 1_556 S
C533 C535 1.327 . S
C533 H556 0.950 . S
C534 C533 1.349 1_554 S
C534 C546 1.349 1_554 S
C535 C533 1.327 . S
C535 C551 1.429 . S
C535 H557 0.950 . S
C536 H532 0.949 . S
C536 C544 1.574 . S
C536 C552 1.368 . S
H537 C545 0.950 . S
H538 C543 0.950 . S
H539 C544 0.949 . S
H540 C546 0.950 1_554 S
H541 C547 0.950 . S
H542 C548 0.949 . S
C543 H538 0.950 . S
C543 C545 1.327 . S
C543 C549 1.429 . S
C544 C536 1.574 . S
C544 H539 0.949 . S
C544 C550 1.368 . S
C545 C529 1.349 . S
C545 H537 0.950 . S
C545 C543 1.327 . S
C546 C534 1.349 1_556 S
C546 H540 0.950 1_556 S
C546 C547 1.327 . S
C547 H541 0.950 . S
C547 C546 1.327 . S
C547 C551 1.429 . S
C548 C531 1.574 . S
C548 H542 0.949 . S
C548 C552 1.368 . S
C549 C530 1.429 . S
C549 C543 1.429 . S
C549 C550 1.523 . S
C550 C531 1.368 . S
C550 C544 1.368 . S
C550 C549 1.523 . S
C551 C535 1.429 . S
C551 C547 1.429 . S
C551 C552 1.523 . S
C552 C536 1.368 . S
C552 C548 1.368 . S
C552 C551 1.523 . S
H553 C528 0.950 . S
H554 C530 0.950 . S
H555 C531 0.949 . S
H556 C533 0.950 . S
H557 C535 0.950 . S
C558 C559 1.349 . S
C558 C560 1.339 . S
C558 H583 0.950 1_655 S
C559 C558 1.349 . S
C559 C575 1.349 . S
C560 C558 1.339 . S
C560 C579 1.453 . S
C560 H584 0.916 1_655 S
C561 C578 1.574 . S
C561 C580 1.368 . S
C561 H585 0.949 . S
H562 C566 0.949 . S
C563 C564 1.349 1_654 S
C563 C565 1.327 . S
C563 H586 0.950 1_554 S
C564 C563 1.349 1_456 S
C564 C576 1.349 1_556 S
C565 C563 1.327 . S
C565 C581 1.411 1_655 S
C565 H587 0.950 . S
C566 H562 0.949 . S
C566 C574 1.574 . S
C566 C582 1.368 1_455 S
H567 C575 0.950 . S
H568 C573 0.950 . S
H569 C574 0.949 . S
H570 C576 0.950 . S
H571 C577 0.950 . S
H572 C578 0.949 . S
C573 H568 0.950 . S
C573 C575 1.327 . S
C573 C579 1.429 . S
C574 C566 1.574 . S
C574 H569 0.949 . S
C574 C580 1.368 1_455 S
C575 C559 1.349 . S
C575 H567 0.950 . S
C575 C573 1.327 . S
C576 C564 1.349 1_554 S
C576 H570 0.950 . S
C576 C577 1.327 . S
C577 H571 0.950 . S
C577 C576 1.327 . S
C577 C581 1.455 . S
C578 C561 1.574 . S
C578 H572 0.949 . S
C578 C582 1.368 . S
C579 C560 1.453 . S
C579 C573 1.429 . S
C579 C580 1.523 . S
C580 C561 1.368 . S
C580 C574 1.368 1_655 S
C580 C579 1.523 . S
C581 C565 1.411 1_455 S
C581 C577 1.455 . S
C581 C582 1.516 1_455 S
C582 C566 1.368 1_655 S
C582 C578 1.368 . S
C582 C581 1.516 1_655 S
H583 C558 0.950 1_455 S
H584 C560 0.916 1_455 S
H585 C561 0.949 . S
H586 C563 0.950 1_556 S
H587 C565 0.950 . S
C588 C589 1.356 . S
C588 C590 1.324 1_565 S
C588 H613 0.946 1_565 S
C589 C588 1.356 . S
C589 C605 1.349 . S
C590 C588 1.324 1_545 S
C590 C609 1.429 1_545 S
C590 H614 0.950 . S
C591 C608 1.574 . S
C591 C610 1.368 . S
C591 H615 0.949 . S
H592 C596 0.949 . S
C593 C594 1.356 . S
C593 C595 1.324 1_545 S
C593 H616 0.946 1_545 S
C594 C593 1.356 . S
C594 C606 1.349 . S
C595 C593 1.324 1_565 S
C595 C611 1.429 1_565 S
C595 H617 0.950 . S
C596 H592 0.949 . S
C596 C604 1.574 . S
C596 C612 1.368 . S
H597 C605 0.950 . S
H598 C603 0.950 . S
H599 C604 0.949 . S
H600 C606 0.950 . S
H601 C607 0.950 . S
H602 C608 0.949 . S
C603 H598 0.950 . S
C603 C605 1.327 . S
C603 C609 1.429 . S
C604 C596 1.574 . S
C604 H599 0.949 . S
C604 C610 1.368 1_545 S
C605 C589 1.349 . S
C605 H597 0.950 . S
C605 C603 1.327 . S
C606 C594 1.349 . S
C606 H600 0.950 . S
C606 C607 1.327 . S
C607 H601 0.950 . S
C607 C606 1.327 . S
C607 C611 1.429 . S
C608 C591 1.574 . S
C608 H602 0.949 . S
C608 C612 1.368 1_565 S
C609 C590 1.429 1_565 S
C609 C603 1.429 . S
C609 C610 1.523 . S
C610 C591 1.368 . S
C610 C604 1.368 1_565 S
C610 C609 1.523 . S
C611 C595 1.429 1_545 S
C611 C607 1.429 . S
C611 C612 1.523 . S
C612 C596 1.368 . S
C612 C608 1.368 1_545 S
C612 C611 1.523 . S
H613 C588 0.946 1_545 S
H614 C590 0.950 . S
H615 C591 0.949 . S
H616 C593 0.946 1_565 S
H617 C595 0.950 . S
C618 C619 1.349 . S
C618 C620 1.327 . S
C618 H643 0.950 . S
C619 C618 1.349 . S
C619 C635 1.349 . S
C620 C618 1.327 . S
C620 C639 1.429 . S
C620 H644 0.950 . S
C621 C638 1.574 . S
C621 C640 1.368 . S
C621 H645 0.949 . S
H622 C626 0.949 . S
C623 C624 1.349 1_556 S
C623 C625 1.327 . S
C623 H646 0.950 1_556 S
C624 C623 1.349 1_554 S
C624 C636 1.349 1_554 S
C625 C623 1.327 . S
C625 C641 1.429 . S
C625 H647 0.950 . S
C626 H622 0.949 . S
C626 C634 1.574 . S
C626 C642 1.368 . S
H627 C635 0.950 . S
H628 C633 0.950 . S
H629 C634 0.949 . S
H630 C636 0.950 . S
H631 C637 0.950 . S
H632 C638 0.949 . S
C633 H628 0.950 . S
C633 C635 1.327 . S
C633 C639 1.429 . S
C634 C626 1.574 . S
C634 H629 0.949 . S
C634 C640 1.368 . S
C635 C619 1.349 . S
C635 H627 0.950 . S
C635 C633 1.327 . S
C636 C624 1.349 1_556 S
C636 H630 0.950 . S
C636 C637 1.327 . S
C637 H631 0.950 . S
C637 C636 1.327 . S
C637 C641 1.429 . S
C638 C621 1.574 . S
C638 H632 0.949 . S
C638 C642 1.368 . S
C639 C620 1.429 . S
C639 C633 1.429 . S
C639 C640 1.523 . S
C640 C621 1.368 . S
C640 C634 1.368 . S
C640 C639 1.523 . S
C641 C625 1.429 . S
C641 C637 1.429 . S
C641 C642 1.523 . S
C642 C626 1.368 . S
C642 C638 1.368 . S
C642 C641 1.523 . S
H643 C618 0.950 . S
H644 C620 0.950 . S
H645 C621 0.949 . S
H646 C623 0.950 1_554 S
H647 C625 0.950 . S
C648 C649 1.349 . S
C648 C650 1.327 . S
C648 H673 0.950 . S
C649 C648 1.349 . S
C649 C665 1.349 . S
C650 C648 1.327 . S
C650 C669 1.429 . S
C650 H674 0.950 . S
C651 C668 1.574 . S
C651 C670 1.368 1_655 S
C651 H675 0.949 . S
H652 C656 0.949 . S
C653 C654 1.349 1_554 S
C653 C655 1.327 . S
C653 H676 0.950 . S
C654 C653 1.349 1_556 S
C654 C666 1.349 1_656 S
C655 C653 1.327 . S
C655 C671 1.451 . S
C655 H677 0.950 . S
C656 H652 0.949 . S
C656 C664 1.574 . S
C656 C672 1.368 . S
H657 C665 0.950 1_655 S
H658 C663 0.950 1_655 S
H659 C664 0.949 . S
H660 C666 0.950 1_556 S
H661 C667 0.950 . S
H662 C668 0.949 . S
C663 H658 0.950 1_455 S
C663 C665 1.327 . S
C663 C669 1.429 . S
C664 C656 1.574 . S
C664 H659 0.949 . S
C664 C670 1.368 . S
C665 C649 1.349 . S
C665 H657 0.950 1_455 S
C665 C663 1.327 . S
C666 C654 1.349 1_454 S
C666 H660 0.950 1_554 S
C666 C667 1.327 . S
C667 H661 0.950 . S
C667 C666 1.327 . S
C667 C671 1.415 1_455 S
C668 C651 1.574 . S
C668 H662 0.949 . S
C668 C672 1.368 1_655 S
C669 C650 1.429 . S
C669 C663 1.429 . S
C669 C670 1.523 . S
C670 C651 1.368 1_455 S
C670 C664 1.368 . S
C670 C669 1.523 . S
C671 C655 1.451 . S
C671 C667 1.415 1_655 S
C671 C672 1.516 1_655 S
C672 C656 1.368 . S
C672 C668 1.368 1_455 S
C672 C671 1.516 1_455 S
H673 C648 0.950 . S
H674 C650 0.950 . S
H675 C651 0.949 . S
H676 C653 0.950 . S
H677 C655 0.950 . S
C678 C679 1.349 . S
C678 C680 1.327 . S
C678 H703 0.950 . S
C679 C678 1.349 . S
C679 C695 1.349 1_565 S
C680 C678 1.327 . S
C680 C699 1.429 . S
C680 H704 0.950 . S
C681 C698 1.574 . S
C681 C700 1.368 1_545 S
C681 H705 0.949 . S
H682 C686 0.949 . S
C683 C684 1.349 . S
C683 C685 1.327 . S
C683 H706 0.950 . S
C684 C683 1.349 . S
C684 C696 1.349 1_545 S
C685 C683 1.327 . S
C685 C701 1.429 . S
C685 H707 0.950 . S
C686 H682 0.949 . S
C686 C694 1.574 . S
C686 C702 1.368 1_565 S
H687 C695 0.950 . S
H688 C693 0.950 . S
H689 C694 0.949 . S
H690 C696 0.950 . S
H691 C697 0.950 . S
H692 C698 0.949 . S
C693 H688 0.950 . S
C693 C695 1.327 . S
C693 C699 1.429 1_545 S
C694 C686 1.574 . S
C694 H689 0.949 . S
C694 C700 1.368 . S
C695 C679 1.349 1_545 S
C695 H687 0.950 . S
C695 C693 1.327 . S
C696 C684 1.349 1_565 S
C696 H690 0.950 . S
C696 C697 1.327 . S
C697 H691 0.950 . S
C697 C696 1.327 . S
C697 C701 1.429 1_565 S
C698 C681 1.574 . S
C698 H692 0.949 . S
C698 C702 1.368 . S
C699 C680 1.429 . S
C699 C693 1.429 1_565 S
C699 C700 1.523 . S
C700 C681 1.368 1_565 S
C700 C694 1.368 . S
C700 C699 1.523 . S
C701 C685 1.429 . S
C701 C697 1.429 1_545 S
C701 C702 1.523 . S
C702 C686 1.368 1_545 S
C702 C698 1.368 . S
C702 C701 1.523 . S
H703 C678 0.950 . S
H704 C680 0.950 . S
H705 C681 0.949 . S
H706 C683 0.950 . S
H707 C685 0.950 . S
C708 C709 1.349 . S
C708 C710 1.327 . S
C708 H733 0.950 . S
C709 C708 1.349 . S
C709 C725 1.349 . S
C710 C708 1.327 . S
C710 C729 1.429 . S
C710 H734 0.950 . S
C711 C728 1.574 . S
C711 C730 1.368 . S
C711 H735 0.949 . S
H712 C716 0.949 . S
C713 C714 1.349 . S
C713 C715 1.327 . S
C713 H736 0.950 . S
C714 C713 1.349 . S
C714 C726 1.349 . S
C715 C713 1.327 . S
C715 C731 1.429 . S
C715 H737 0.950 . S
C716 H712 0.949 . S
C716 C724 1.574 . S
C716 C732 1.368 . S
H717 C725 0.950 . S
H718 C723 0.950 . S
H719 C724 0.949 . S
H720 C726 0.950 . S
H721 C727 0.950 . S
H722 C728 0.949 . S
C723 H718 0.950 . S
C723 C725 1.327 . S
C723 C729 1.429 . S
C724 C716 1.574 . S
C724 H719 0.949 . S
C724 C730 1.368 . S
C725 C709 1.349 . S
C725 H717 0.950 . S
C725 C723 1.327 . S
C726 C714 1.349 . S
C726 H720 0.950 . S
C726 C727 1.327 . S
C727 H721 0.950 . S
C727 C726 1.327 . S
C727 C731 1.429 . S
C728 C711 1.574 . S
C728 H722 0.949 . S
C728 C732 1.368 . S
C729 C710 1.429 . S
C729 C723 1.429 . S
C729 C730 1.523 . S
C730 C711 1.368 . S
C730 C724 1.368 . S
C730 C729 1.523 . S
C731 C715 1.429 . S
C731 C727 1.429 . S
C731 C732 1.523 . S
C732 C716 1.368 . S
C732 C728 1.368 . S
C732 C731 1.523 . S
H733 C708 0.950 . S
H734 C710 0.950 . S
H735 C711 0.949 . S
H736 C713 0.950 . S
H737 C715 0.950 . S
C738 C739 1.349 . S
C738 C740 1.327 . S
C738 H763 0.950 . S
C739 C738 1.349 . S
C739 C755 1.349 . S
C740 C738 1.327 . S
C740 C759 1.429 . S
C740 H764 0.950 . S
C741 C758 1.574 . S
C741 C760 1.368 . S
C741 H765 0.949 . S
H742 C746 0.949 . S
C743 C744 1.349 . S
C743 C745 1.327 . S
C743 H766 0.950 . S
C744 C743 1.349 . S
C744 C756 1.349 . S
C745 C743 1.327 . S
C745 C761 1.429 . S
C745 H767 0.950 . S
C746 H742 0.949 . S
C746 C754 1.574 . S
C746 C762 1.368 . S
H747 C755 0.950 . S
H748 C753 0.950 . S
H749 C754 0.949 . S
H750 C756 0.950 . S
H751 C757 0.950 . S
H752 C758 0.949 . S
C753 H748 0.950 . S
C753 C755 1.327 . S
C753 C759 1.429 . S
C754 C746 1.574 . S
C754 H749 0.949 . S
C754 C760 1.368 1_655 S
C755 C739 1.349 . S
C755 H747 0.950 . S
C755 C753 1.327 . S
C756 C744 1.349 . S
C756 H750 0.950 . S
C756 C757 1.327 . S
C757 H751 0.950 . S
C757 C756 1.327 . S
C757 C761 1.429 . S
C758 C741 1.574 . S
C758 H752 0.949 . S
C758 C762 1.368 1_455 S
C759 C740 1.429 . S
C759 C753 1.429 . S
C759 C760 1.523 . S
C760 C741 1.368 . S
C760 C754 1.368 1_455 S
C760 C759 1.523 . S
C761 C745 1.429 . S
C761 C757 1.429 . S
C761 C762 1.523 . S
C762 C746 1.368 . S
C762 C758 1.368 1_655 S
C762 C761 1.523 . S
H763 C738 0.950 . S
H764 C740 0.950 . S
H765 C741 0.949 . S
H766 C743 0.950 . S
H767 C745 0.950 . S
C768 C769 1.349 . S
C768 C770 1.327 . S
C768 H793 0.950 . S
C769 C768 1.349 . S
C769 C785 1.349 . S
C770 C768 1.327 . S
C770 C789 1.429 . S
C770 H794 0.950 . S
C771 C788 1.574 . S
C771 C790 1.368 . S
C771 H795 0.949 . S
H772 C776 0.949 . S
C773 C774 1.349 . S
C773 C775 1.327 . S
C773 H796 0.950 . S
C774 C773 1.349 . S
C774 C786 1.349 . S
C775 C773 1.327 . S
C775 C791 1.429 . S
C775 H797 0.950 . S
C776 H772 0.949 . S
C776 C784 1.574 . S
C776 C792 1.368 . S
H777 C785 0.950 . S
H778 C783 0.950 . S
H779 C784 0.949 . S
H780 C786 0.950 . S
H781 C787 0.950 . S
H782 C788 0.949 . S
C783 H778 0.950 . S
C783 C785 1.327 . S
C783 C789 1.429 . S
C784 C776 1.574 . S
C784 H779 0.949 . S
C784 C790 1.368 1_545 S
C785 C769 1.349 . S
C785 H777 0.950 . S
C785 C783 1.327 . S
C786 C774 1.349 . S
C786 H780 0.950 . S
C786 C787 1.327 . S
C787 H781 0.950 . S
C787 C786 1.327 . S
C787 C791 1.429 . S
C788 C771 1.574 . S
C788 H782 0.949 . S
C788 C792 1.368 1_565 S
C789 C770 1.429 . S
C789 C783 1.429 . S
C789 C790 1.523 . S
C790 C771 1.368 . S
C790 C784 1.368 1_565 S
C790 C789 1.523 . S
C791 C775 1.429 . S
C791 C787 1.429 . S
C791 C792 1.523 . S
C792 C776 1.368 . S
C792 C788 1.368 1_545 S
C792 C791 1.523 . S
H793 C768 0.950 . S
H794 C770 0.950 . S
H795 C771 0.949 . S
H796 C773 0.950 . S
H797 C775 0.950 . S
C798 C799 1.349 . S
C798 C800 1.327 . S
C798 H823 0.950 . S
C799 C798 1.349 . S
C799 C815 1.349 . S
C800 C798 1.327 . S
C800 C819 1.429 . S
C800 H824 0.950 . S
C801 C818 1.574 . S
C801 C820 1.368 . S
C801 H825 0.949 . S
H802 C806 0.949 . S
C803 C804 1.349 . S
C803 C805 1.327 . S
C803 H826 0.950 . S
C804 C803 1.349 . S
C804 C816 1.349 . S
C805 C803 1.327 . S
C805 C821 1.429 . S
C805 H827 0.950 . S
C806 H802 0.949 . S
C806 C814 1.574 . S
C806 C822 1.368 . S
H807 C815 0.950 . S
H808 C813 0.950 . S
H809 C814 0.949 . S
H810 C816 0.950 . S
H811 C817 0.950 . S
H812 C818 0.949 . S
C813 H808 0.950 . S
C813 C815 1.327 . S
C813 C819 1.429 . S
C814 C806 1.574 . S
C814 H809 0.949 . S
C814 C820 1.368 . S
C815 C799 1.349 . S
C815 H807 0.950 . S
C815 C813 1.327 . S
C816 C804 1.349 . S
C816 H810 0.950 . S
C816 C817 1.327 . S
C817 H811 0.950 . S
C817 C816 1.327 . S
C817 C821 1.429 . S
C818 C801 1.574 . S
C818 H812 0.949 . S
C818 C822 1.368 . S
C819 C800 1.429 . S
C819 C813 1.429 . S
C819 C820 1.523 . S
C820 C801 1.368 . S
C820 C814 1.368 . S
C820 C819 1.523 . S
C821 C805 1.429 . S
C821 C817 1.429 . S
C821 C822 1.523 . S
C822 C806 1.368 . S
C822 C818 1.368 . S
C822 C821 1.523 . S
H823 C798 0.950 . S
H824 C800 0.950 . S
H825 C801 0.949 . S
H826 C803 0.950 . S
H827 C805 0.950 . S
C828 C829 1.349 . S
C828 C830 1.327 . S
C828 H853 0.950 . S
C829 C828 1.349 . S
C829 C845 1.349 . S
C830 C828 1.327 . S
C830 C849 1.429 . S
C830 H854 0.931 1_655 S
C831 C848 1.574 . S
C831 C850 1.368 . S
C831 H855 0.949 . S
H832 C836 0.949 . S
C833 C834 1.349 . S
C833 C835 1.327 . S
C833 H856 0.950 . S
C834 C833 1.349 . S
C834 C846 1.349 . S
C835 C833 1.327 . S
C835 C851 1.429 . S
C835 H857 0.931 1_455 S
C836 H832 0.949 . S
C836 C844 1.574 . S
C836 C852 1.368 . S
H837 C845 0.950 . S
H838 C843 0.950 . S
H839 C844 0.949 . S
H840 C846 0.950 . S
H841 C847 0.950 . S
H842 C848 0.949 . S
C843 H838 0.950 . S
C843 C845 1.327 . S
C843 C849 1.429 . S
C844 C836 1.574 . S
C844 H839 0.949 . S
C844 C850 1.368 1_455 S
C845 C829 1.349 . S
C845 H837 0.950 . S
C845 C843 1.327 . S
C846 C834 1.349 . S
C846 H840 0.950 . S
C846 C847 1.327 . S
C847 H841 0.950 . S
C847 C846 1.327 . S
C847 C851 1.429 . S
C848 C831 1.574 . S
C848 H842 0.949 . S
C848 C852 1.368 1_655 S
C849 C830 1.429 . S
C849 C843 1.429 . S
C849 C850 1.523 . S
C850 C831 1.368 . S
C850 C844 1.368 1_655 S
C850 C849 1.523 . S
C851 C835 1.429 . S
C851 C847 1.429 . S
C851 C852 1.523 . S
C852 C836 1.368 . S
C852 C848 1.368 1_455 S
C852 C851 1.523 . S
H853 C828 0.950 . S
H854 C830 0.931 1_455 S
H855 C831 0.949 . S
H856 C833 0.950 . S
H857 C835 0.931 1_655 S
C858 C859 1.349 . S
C858 C860 1.327 . S
C858 H883 0.950 . S
C859 C858 1.349 . S
C859 C875 1.349 . S
C860 C858 1.327 . S
C860 C879 1.429 . S
C860 H884 0.950 . S
C861 C878 1.574 . S
C861 C880 1.368 1_565 S
C861 H885 0.949 . S
H862 C866 0.949 . S
C863 C864 1.349 . S
C863 C865 1.327 . S
C863 H886 0.950 . S
C864 C863 1.349 . S
C864 C876 1.349 . S
C865 C863 1.327 . S
C865 C881 1.429 . S
C865 H887 0.950 . S
C866 H862 0.949 . S
C866 C874 1.574 . S
C866 C882 1.368 1_545 S
H867 C875 0.950 . S
H868 C873 0.950 . S
H869 C874 0.949 . S
H870 C876 0.950 . S
H871 C877 0.950 . S
H872 C878 0.949 . S
C873 H868 0.950 . S
C873 C875 1.327 . S
C873 C879 1.429 . S
C874 C866 1.574 . S
C874 H869 0.949 . S
C874 C880 1.368 . S
C875 C859 1.349 . S
C875 H867 0.950 . S
C875 C873 1.327 . S
C876 C864 1.349 . S
C876 H870 0.950 . S
C876 C877 1.327 . S
C877 H871 0.950 . S
C877 C876 1.327 . S
C877 C881 1.429 . S
C878 C861 1.574 . S
C878 H872 0.949 . S
C878 C882 1.368 . S
C879 C860 1.429 . S
C879 C873 1.429 . S
C879 C880 1.523 . S
C880 C861 1.368 1_545 S
C880 C874 1.368 . S
C880 C879 1.523 . S
C881 C865 1.429 . S
C881 C877 1.429 . S
C881 C882 1.523 . S
C882 C866 1.368 1_565 S
C882 C878 1.368 . S
C882 C881 1.523 . S
H883 C858 0.950 . S
H884 C860 0.950 . S
H885 C861 0.949 . S
H886 C863 0.950 . S
H887 C865 0.950 . S
C169 C11 1.356 . S
C174 C137 1.362 . S
C199 C25 1.362 . S
C204 C151 1.356 . S
C229 C33 0.891 . S
C234 C159 0.891 . S
C259 C53 1.356 . S
C264 C95 1.362 . S
C289 C109 1.356 . S
C294 C67 1.362 . S
C319 C117 0.891 . S
C324 C75 0.891 . S
C349 C145 1.099 . S
C354 C5 1.099 . S
C379 C19 1.065 . S
C384 C165 1.170 . S
C409 C39 1.170 . S
C414 C89 1.065 . S
C439 C47 1.099 . S
C444 C103 1.099 . S
C469 C61 1.065 . S
C474 C123 1.170 . S
C499 C81 1.170 . S
C504 C131 1.065 . S
C529 C130 0.520 . S
C534 C4 0.527 . S
C559 C18 0.520 . S
C564 C144 0.527 . S
C589 C40 0.340 . S
C594 C166 0.340 . S
C619 C88 0.520 . S
C624 C46 0.527 . S
C649 C60 0.520 . S
C654 C102 0.527 . S
C679 C124 0.340 . S
C684 C82 0.340 . S
C709 C12 1.264 . S
C714 C54 1.264 . S
C739 C68 1.293 . S
C744 C26 1.293 . S
C769 C32 1.234 . S
C774 C74 1.234 . S
C799 C96 1.292 . S
C804 C138 1.292 . S
C829 C110 1.264 . S
C834 C152 1.264 . S
C859 C158 1.234 . S
C864 C116 1.234 . S
