# Generated by pormake.
# Topology mer, (4)-cn, num edge types: 1
# Building blocks:
#     Node 0, Type 0, BuildingBlock: ICAMEG_clean_sbu_1, # of connection points: 4
#     Node 1, Type 0, BuildingBlock: ICAMEG_clean_sbu_1, # of connection points: 4
#     Node 2, Type 0, BuildingBlock: ICAMEG_clean_sbu_1, # of connection points: 4
#     Node 3, Type 0, BuildingBlock: ICAMEG_clean_sbu_1, # of connection points: 4
#     Node 4, Type 0, BuildingBlock: ICAMEG_clean_sbu_1, # of connection points: 4
#     Node 5, Type 0, BuildingBlock: ICAMEG_clean_sbu_1, # of connection points: 4
#     Node 6, Type 0, BuildingBlock: ICAMEG_clean_sbu_1, # of connection points: 4
#     Node 7, Type 0, BuildingBlock: ICAMEG_clean_sbu_1, # of connection points: 4
#     Node 8, Type 0, BuildingBlock: ICAMEG_clean_sbu_1, # of connection points: 4
#     Node 9, Type 0, BuildingBlock: ICAMEG_clean_sbu_1, # of connection points: 4
#     Node 10, Type 0, BuildingBlock: ICAMEG_clean_sbu_1, # of connection points: 4
#     Node 11, Type 0, BuildingBlock: ICAMEG_clean_sbu_1, # of connection points: 4
#     Node 12, Type 0, BuildingBlock: ICAMEG_clean_sbu_1, # of connection points: 4
#     Node 13, Type 0, BuildingBlock: ICAMEG_clean_sbu_1, # of connection points: 4
#     Node 14, Type 0, BuildingBlock: ICAMEG_clean_sbu_1, # of connection points: 4
#     Node 15, Type 0, BuildingBlock: ICAMEG_clean_sbu_1, # of connection points: 4
#     Node 16, Type 0, BuildingBlock: ICAMEG_clean_sbu_1, # of connection points: 4
#     Node 17, Type 0, BuildingBlock: ICAMEG_clean_sbu_1, # of connection points: 4
#     Node 18, Type 0, BuildingBlock: ICAMEG_clean_sbu_1, # of connection points: 4
#     Node 19, Type 0, BuildingBlock: ICAMEG_clean_sbu_1, # of connection points: 4
#     Node 20, Type 0, BuildingBlock: ICAMEG_clean_sbu_1, # of connection points: 4
#     Node 21, Type 0, BuildingBlock: ICAMEG_clean_sbu_1, # of connection points: 4
#     Node 22, Type 0, BuildingBlock: ICAMEG_clean_sbu_1, # of connection points: 4
#     Node 23, Type 0, BuildingBlock: ICAMEG_clean_sbu_1, # of connection points: 4
#     Node 24, Type 0, BuildingBlock: ICAMEG_clean_sbu_1, # of connection points: 4
#     Node 25, Type 0, BuildingBlock: ICAMEG_clean_sbu_1, # of connection points: 4
#     Node 26, Type 0, BuildingBlock: ICAMEG_clean_sbu_1, # of connection points: 4
#     Node 27, Type 0, BuildingBlock: ICAMEG_clean_sbu_1, # of connection points: 4
#     Node 28, Type 0, BuildingBlock: ICAMEG_clean_sbu_1, # of connection points: 4
#     Node 29, Type 0, BuildingBlock: ICAMEG_clean_sbu_1, # of connection points: 4
#     Node 30, Type 0, BuildingBlock: ICAMEG_clean_sbu_1, # of connection points: 4
#     Node 31, Type 0, BuildingBlock: ICAMEG_clean_sbu_1, # of connection points: 4
#     Edge 32, Type (0, 0), None
#     Edge 33, Type (0, 0), None
#     Edge 34, Type (0, 0), None
#     Edge 35, Type (0, 0), None
#     Edge 36, Type (0, 0), None
#     Edge 37, Type (0, 0), None
#     Edge 38, Type (0, 0), None
#     Edge 39, Type (0, 0), None
#     Edge 40, Type (0, 0), None
#     Edge 41, Type (0, 0), None
#     Edge 42, Type (0, 0), None
#     Edge 43, Type (0, 0), None
#     Edge 44, Type (0, 0), None
#     Edge 45, Type (0, 0), None
#     Edge 46, Type (0, 0), None
#     Edge 47, Type (0, 0), None
#     Edge 48, Type (0, 0), None
#     Edge 49, Type (0, 0), None
#     Edge 50, Type (0, 0), None
#     Edge 51, Type (0, 0), None
#     Edge 52, Type (0, 0), None
#     Edge 53, Type (0, 0), None
#     Edge 54, Type (0, 0), None
#     Edge 55, Type (0, 0), None
#     Edge 56, Type (0, 0), None
#     Edge 57, Type (0, 0), None
#     Edge 58, Type (0, 0), None
#     Edge 59, Type (0, 0), None
#     Edge 60, Type (0, 0), None
#     Edge 61, Type (0, 0), None
#     Edge 62, Type (0, 0), None
#     Edge 63, Type (0, 0), None
#     Edge 64, Type (0, 0), None
#     Edge 65, Type (0, 0), None
#     Edge 66, Type (0, 0), None
#     Edge 67, Type (0, 0), None
#     Edge 68, Type (0, 0), None
#     Edge 69, Type (0, 0), None
#     Edge 70, Type (0, 0), None
#     Edge 71, Type (0, 0), None
#     Edge 72, Type (0, 0), None
#     Edge 73, Type (0, 0), None
#     Edge 74, Type (0, 0), None
#     Edge 75, Type (0, 0), None
#     Edge 76, Type (0, 0), None
#     Edge 77, Type (0, 0), None
#     Edge 78, Type (0, 0), None
#     Edge 79, Type (0, 0), None
#     Edge 80, Type (0, 0), None
#     Edge 81, Type (0, 0), None
#     Edge 82, Type (0, 0), None
#     Edge 83, Type (0, 0), None
#     Edge 84, Type (0, 0), None
#     Edge 85, Type (0, 0), None
#     Edge 86, Type (0, 0), None
#     Edge 87, Type (0, 0), None
#     Edge 88, Type (0, 0), None
#     Edge 89, Type (0, 0), None
#     Edge 90, Type (0, 0), None
#     Edge 91, Type (0, 0), None
#     Edge 92, Type (0, 0), None
#     Edge 93, Type (0, 0), None
#     Edge 94, Type (0, 0), None
#     Edge 95, Type (0, 0), None
# Relax obj value: 0.030
# Max RMSD: 0.073
# Mean RMSD: 0.073
data_MOF--net-mer--node1-ICAMEG_clean_sbu_1--edge1-none
_symmetry_space_group_name_H-M    P1
_symmetry_Int_Tables_number       1
_symmetry_cell_setting            triclinic
loop_
_symmetry_equiv_pos_as_xyz
'x, y, z'
_cell_length_a     31.792799
_cell_length_b     31.792824
_cell_length_c     27.826446
_cell_angle_alpha  89.344589
_cell_angle_beta   89.344609
_cell_angle_gamma 89.908238
loop_
_atom_site_label
_atom_site_type_symbol
_atom_site_fract_x
_atom_site_fract_y
_atom_site_fract_z
_atom_type_partial_charge
Co0 Co 0.17906 0.32058 0.39026 0.0
Co1 Co 0.09522 0.25154 0.3969 0.0
O2 O 0.12357 0.30101 0.37127 0.0
C3 C 0.18557 0.29534 0.28837 0.0
O4 O 0.16342 0.26221 0.30045 0.0
C5 C 0.01964 0.30485 0.43162 0.0
O6 O 0.0389 0.31831 0.46998 0.0
O7 O 0.11099 0.26763 0.46344 0.0
O8 O 0.16143 0.31768 0.46018 0.0
H9 H 0.04123 0.10207 0.39944 0.0
H10 H 0.1325 0.36824 0.31541 0.0
O11 O 0.19646 0.32189 0.32009 0.0
H12 H 0.15739 0.46961 0.4448 0.0
H13 H 0.30988 0.4089 0.37025 0.0
H14 H 0.23369 0.30956 0.47619 0.0
H15 H 0.1797 0.39557 0.45382 0.0
H16 H 0.24281 0.37721 0.34404 0.0
O17 O 0.03952 0.28312 0.40045 0.0
H18 H 0.09414 0.15543 0.38169 0.0
H19 H 0.0367 0.23832 0.47987 0.0
H20 H 0.29517 0.34653 0.50579 0.0
H21 H 0.1104 0.442 0.30463 0.0
H22 H 0.33488 0.39545 0.45256 0.0
H23 H 0.12355 0.49336 0.3691 0.0
O24 O 0.20271 0.26252 0.3956 0.0
H25 H 0.02489 0.28287 0.24029 0.0
H26 H 0.11825 0.18346 0.3207 0.0
H27 H 0.08436 0.16255 0.24589 0.0
H28 H 0.03438 0.21202 0.20644 0.0
H29 H 0.05229 0.29862 0.31951 0.0
H30 H 0.98487 0.18505 0.50186 0.0
H31 H 0.98687 0.11533 0.46062 0.0
O32 O 0.14885 0.21685 0.39368 0.0
C33 C 0.13635 0.29331 0.48349 0.0
C34 C 0.03981 0.13215 0.41679 0.0
C35 C 0.00756 0.17875 0.47367 0.0
N36 N 0.06491 0.20291 0.42348 0.0
C37 C 0.06866 0.16357 0.40483 0.0
C38 C 0.03684 0.2094 0.46032 0.0
C39 C 0.0087 0.13998 0.45096 0.0
C40 C 0.13811 0.3903 0.34387 0.0
N41 N 0.15781 0.37766 0.38499 0.0
C42 C 0.12541 0.43204 0.33758 0.0
C43 C 0.13266 0.46083 0.3739 0.0
C44 C 0.15178 0.44751 0.41627 0.0
C45 C 0.16416 0.40551 0.42126 0.0
C46 C 0.29236 0.38799 0.39377 0.0
C47 C 0.24903 0.33242 0.45303 0.0
C48 C 0.25507 0.36913 0.37886 0.0
N49 N 0.23369 0.3419 0.40858 0.0
C50 C 0.28435 0.35298 0.47006 0.0
C51 C 0.30659 0.3804 0.44007 0.0
C52 C 0.18829 0.22512 0.39568 0.0
C53 C 0.04187 0.25903 0.26003 0.0
C54 C 0.09342 0.20276 0.30689 0.0
C55 C 0.07592 0.19182 0.26291 0.0
C56 C 0.04847 0.21966 0.2404 0.0
N57 N 0.0803 0.23808 0.3304 0.0
C58 C 0.05774 0.26762 0.30527 0.0
Co59 Co 0.68441 0.16483 0.39135 0.0
Co60 Co 0.76453 0.09246 0.40028 0.0
O61 O 0.71151 0.11209 0.37407 0.0
C62 C 0.69134 0.16554 0.28348 0.0
O63 O 0.72692 0.14514 0.28767 0.0
C64 C 0.71022 0.01607 0.42161 0.0
O65 O 0.68079 0.03961 0.44103 0.0
O66 O 0.74277 0.10113 0.46812 0.0
O67 O 0.69776 0.1554 0.46187 0.0
H68 H 0.8709 0.06902 0.53107 0.0
H69 H 0.63834 0.1022 0.33413 0.0
O70 O 0.67022 0.17614 0.32106 0.0
H71 H 0.55627 0.11625 0.4845 0.0
H72 H 0.56472 0.26923 0.40029 0.0
H73 H 0.70856 0.23584 0.45145 0.0
H74 H 0.61952 0.15943 0.46991 0.0
H75 H 0.60112 0.20531 0.36962 0.0
O76 O 0.74309 0.03264 0.40277 0.0
H77 H 0.81315 0.10667 0.49278 0.0
H78 H 0.81564 0.05966 0.40473 0.0
H79 H 0.67516 0.30151 0.47646 0.0
H80 H 0.5755 0.05801 0.34762 0.0
H81 H 0.60253 0.31838 0.45184 0.0
H82 H 0.53477 0.06417 0.42391 0.0
O83 O 0.73788 0.19705 0.38103 0.0
H84 H 0.75586 0.0327 0.23358 0.0
H85 H 0.83878 0.12218 0.34053 0.0
H86 H 0.86318 0.1112 0.25743 0.0
H87 H 0.82208 0.06538 0.20357 0.0
H88 H 0.73189 0.04539 0.31663 0.0
H89 H 0.89606 0.00165 0.40182 0.0
H90 H 0.91607 0.02167 0.48388 0.0
O91 O 0.78966 0.15149 0.3986 0.0
C92 C 0.71845 0.12869 0.48709 0.0
C93 C 0.86355 0.06274 0.49427 0.0
C94 C 0.87671 0.02368 0.42155 0.0
N95 N 0.8175 0.07027 0.42609 0.0
C96 C 0.83008 0.08294 0.473 0.0
C97 C 0.84053 0.0396 0.39998 0.0
C98 C 0.88819 0.03517 0.46785 0.0
C99 C 0.62023 0.10566 0.36695 0.0
N100 N 0.63257 0.13349 0.40107 0.0
C101 C 0.58479 0.08042 0.37448 0.0
C102 C 0.56184 0.08397 0.4172 0.0
C103 C 0.57415 0.11293 0.45146 0.0
C104 C 0.60997 0.13735 0.44291 0.0
C105 C 0.59676 0.26246 0.40978 0.0
C106 C 0.67734 0.24327 0.43894 0.0
C107 C 0.61734 0.22633 0.39337 0.0
N108 N 0.65692 0.21685 0.40881 0.0
C109 C 0.65827 0.2802 0.45424 0.0
C110 C 0.61774 0.28988 0.43965 0.0
C111 C 0.77669 0.18853 0.3873 0.0
C112 C 0.77426 0.05233 0.2569 0.0
C113 C 0.82015 0.10295 0.31723 0.0
C114 C 0.83436 0.09656 0.27019 0.0
C115 C 0.8113 0.07089 0.23998 0.0
N116 N 0.784 0.08423 0.33388 0.0
C117 C 0.76103 0.05938 0.30418 0.0
Co118 Co 0.82579 0.66808 0.39163 0.0
Co119 Co 0.88994 0.75446 0.38727 0.0
O120 O 0.87404 0.6994 0.37053 0.0
C121 C 0.81935 0.68048 0.28762 0.0
O122 O 0.82281 0.72014 0.2977 0.0
C123 C 0.96912 0.70847 0.41221 0.0
O124 O 0.94743 0.68046 0.43702 0.0
O125 O 0.88322 0.73857 0.4582 0.0
O126 O 0.83621 0.68454 0.46078 0.0
H127 H 0.93608 0.87497 0.49088 0.0
H128 H 0.88906 0.62831 0.32665 0.0
O129 O 0.81544 0.65348 0.32187 0.0
H130 H 0.90482 0.55559 0.48259 0.0
H131 H 0.74992 0.53007 0.40123 0.0
H132 H 0.74523 0.67915 0.44862 0.0
H133 H 0.84874 0.60846 0.47128 0.0
H134 H 0.80443 0.57926 0.37318 0.0
O135 O 0.95071 0.73767 0.38865 0.0
H136 H 0.90347 0.80637 0.47658 0.0
H137 H 0.93324 0.82546 0.32863 0.0
H138 H 0.68528 0.63196 0.46788 0.0
H139 H 0.94419 0.57465 0.33618 0.0
H140 H 0.68919 0.55672 0.44874 0.0
H141 H 0.95296 0.53852 0.41498 0.0
O142 O 0.78545 0.71833 0.38602 0.0
H143 H 0.95348 0.74064 0.22125 0.0
H144 H 0.84157 0.80812 0.31635 0.0
H145 H 0.85007 0.8269 0.2313 0.0
H146 H 0.90804 0.79579 0.18417 0.0
H147 H 0.94294 0.72131 0.30614 0.0
H148 H 0.94784 0.89821 0.34185 0.0
H149 H 0.9478 0.92488 0.42493 0.0
O150 O 0.8298 0.77341 0.38993 0.0
C151 C 0.85994 0.71157 0.48146 0.0
C152 C 0.92996 0.86509 0.45523 0.0
C153 C 0.93719 0.87839 0.37143 0.0
N154 N 0.90965 0.81176 0.40039 0.0
C155 C 0.91281 0.82563 0.44634 0.0
C156 C 0.92632 0.83668 0.36396 0.0
C157 C 0.93764 0.89309 0.41778 0.0
C158 C 0.89161 0.61189 0.36068 0.0
N159 N 0.86536 0.62155 0.39831 0.0
C160 C 0.92331 0.58181 0.36598 0.0
C161 C 0.92832 0.56168 0.41023 0.0
C162 C 0.90125 0.5713 0.44826 0.0
C163 C 0.86965 0.60132 0.44161 0.0
C164 C 0.74858 0.56273 0.41173 0.0
C165 C 0.74617 0.64673 0.43742 0.0
C166 C 0.77974 0.59083 0.3965 0.0
N167 N 0.77925 0.63191 0.41093 0.0
C168 C 0.71268 0.6201 0.44973 0.0
C169 C 0.71458 0.57767 0.43828 0.0
C170 C 0.79252 0.75806 0.38903 0.0
C171 C 0.929 0.7558 0.24215 0.0
C172 C 0.86643 0.79349 0.29628 0.0
C173 C 0.871 0.80422 0.2478 0.0
C174 C 0.90327 0.78616 0.22108 0.0
N175 N 0.89341 0.76559 0.3179 0.0
C176 C 0.92315 0.74535 0.29065 0.0
Co177 Co 0.3178 0.81758 0.39762 0.0
Co178 Co 0.24756 0.8994 0.38872 0.0
O179 O 0.3001 0.87202 0.37579 0.0
C180 C 0.31058 0.81206 0.29068 0.0
O181 O 0.27471 0.83187 0.29526 0.0
C182 C 0.29188 0.97464 0.43193 0.0
O183 O 0.29599 0.95561 0.47366 0.0
O184 O 0.2526 0.88638 0.46022 0.0
O185 O 0.30103 0.83342 0.46615 0.0
H186 H 0.09342 0.90308 0.37201 0.0
H187 H 0.40389 0.79418 0.36391 0.0
O188 O 0.33226 0.80288 0.328 0.0
H189 H 0.4211 0.92455 0.45592 0.0
H190 H 0.35684 0.66692 0.37334 0.0
H191 H 0.36637 0.78781 0.48203 0.0
H192 H 0.351 0.89318 0.44625 0.0
H193 H 0.3157 0.73134 0.35796 0.0
O194 O 0.27905 0.95474 0.39541 0.0
H195 H 0.15426 0.87658 0.41749 0.0
H196 H 0.20857 0.9457 0.39133 0.0
H197 H 0.4078 0.72382 0.49906 0.0
H198 H 0.47462 0.8247 0.37241 0.0
H199 H 0.40366 0.66299 0.44415 0.0
H200 H 0.48323 0.89025 0.41872 0.0
O201 O 0.26101 0.79164 0.39071 0.0
H202 H 0.29979 0.96297 0.23412 0.0
H203 H 0.18297 0.88528 0.31173 0.0
H204 H 0.17456 0.91323 0.22936 0.0
H205 H 0.23219 0.95604 0.19245 0.0
H206 H 0.30658 0.93544 0.31646 0.0
H207 H 0.1576 0.01565 0.3356 0.0
H208 H 0.09502 0.97113 0.33158 0.0
O209 O 0.21531 0.84508 0.38257 0.0
C210 C 0.27516 0.86023 0.4851 0.0
C211 C 0.1205 0.92222 0.37602 0.0
C212 C 0.15798 0.98504 0.3528 0.0
N213 N 0.19388 0.93051 0.39662 0.0
C214 C 0.15527 0.90744 0.40093 0.0
C215 C 0.19428 0.97163 0.37623 0.0
C216 C 0.12217 0.96024 0.3513 0.0
C217 C 0.40747 0.82284 0.38396 0.0
N218 N 0.37331 0.84172 0.40489 0.0
C219 C 0.4476 0.83988 0.38876 0.0
C220 C 0.45251 0.87664 0.41483 0.0
C221 C 0.41757 0.89589 0.43573 0.0
C222 C 0.37796 0.87787 0.43034 0.0
C223 C 0.35907 0.69325 0.39749 0.0
C224 C 0.3632 0.7609 0.45902 0.0
C225 C 0.33552 0.72968 0.38922 0.0
N226 N 0.33887 0.76338 0.41894 0.0
C227 C 0.3871 0.72492 0.46851 0.0
C228 C 0.38516 0.69099 0.43734 0.0
C229 C 0.22369 0.80585 0.38637 0.0
C230 C 0.27402 0.94587 0.2509 0.0
C231 C 0.20857 0.9023 0.29497 0.0
C232 C 0.2037 0.91793 0.24828 0.0
C233 C 0.23624 0.94104 0.22697 0.0
N234 N 0.24434 0.91061 0.31994 0.0
C235 C 0.27753 0.93035 0.29763 0.0
Co236 Co 0.17195 0.67173 0.62816 0.0
Co237 Co 0.09014 0.74197 0.63706 0.0
O238 O 0.11751 0.68944 0.64999 0.0
C239 C 0.17748 0.67895 0.7351 0.0
O240 O 0.15767 0.71483 0.73051 0.0
C241 C 0.01489 0.69766 0.59385 0.0
O242 O 0.03393 0.69354 0.55212 0.0
O243 O 0.10315 0.73694 0.56555 0.0
O244 O 0.15612 0.6885 0.55963 0.0
H245 H 0.08646 0.89611 0.65377 0.0
H246 H 0.19536 0.58564 0.66187 0.0
O247 O 0.18666 0.65727 0.69778 0.0
H248 H 0.06498 0.56843 0.56986 0.0
H249 H 0.32262 0.63269 0.65243 0.0
H250 H 0.20173 0.62317 0.54375 0.0
H251 H 0.09636 0.63853 0.57952 0.0
H252 H 0.2582 0.67384 0.66782 0.0
O253 O 0.03479 0.71049 0.63037 0.0
H254 H 0.11295 0.83527 0.60829 0.0
H255 H 0.04383 0.78096 0.63445 0.0
H256 H 0.26571 0.58174 0.52672 0.0
H257 H 0.16483 0.51492 0.65337 0.0
H258 H 0.32654 0.58588 0.58163 0.0
H259 H 0.09929 0.5063 0.60706 0.0
O260 O 0.19789 0.72853 0.63507 0.0
H261 H 0.02656 0.68975 0.79166 0.0
H262 H 0.10426 0.80657 0.71404 0.0
H263 H 0.07631 0.81497 0.79642 0.0
H264 H 0.03349 0.75735 0.83333 0.0
H265 H 0.0541 0.68296 0.70932 0.0
H266 H 0.97389 0.83194 0.69017 0.0
H267 H 0.0184 0.89451 0.6942 0.0
O268 O 0.14446 0.77423 0.6432 0.0
C269 C 0.1293 0.71438 0.54068 0.0
C270 C 0.06731 0.86903 0.64975 0.0
C271 C 0.0045 0.83155 0.67298 0.0
N272 N 0.05902 0.79566 0.62916 0.0
C273 C 0.0821 0.83426 0.62485 0.0
C274 C 0.0179 0.79526 0.64955 0.0
C275 C 0.0293 0.86736 0.67448 0.0
C276 C 0.16669 0.58207 0.64182 0.0
N277 N 0.14782 0.61622 0.62089 0.0
C278 C 0.14966 0.54193 0.63702 0.0
C279 C 0.1129 0.53703 0.61095 0.0
C280 C 0.09364 0.57196 0.59005 0.0
C281 C 0.11167 0.61157 0.59544 0.0
C282 C 0.29629 0.63046 0.62829 0.0
C283 C 0.22864 0.62634 0.56676 0.0
C284 C 0.25986 0.65402 0.63656 0.0
N285 N 0.22615 0.65067 0.60683 0.0
C286 C 0.26462 0.60244 0.55727 0.0
C287 C 0.29854 0.60437 0.58844 0.0
C288 C 0.18368 0.76585 0.63941 0.0
C289 C 0.04366 0.71552 0.77487 0.0
C290 C 0.08723 0.78096 0.7308 0.0
C291 C 0.0716 0.78584 0.7775 0.0
C292 C 0.0485 0.75329 0.7988 0.0
N293 N 0.07893 0.7452 0.70584 0.0
C294 C 0.05919 0.71201 0.72814 0.0
Co295 Co 0.32146 0.16374 0.63415 0.0
Co296 Co 0.23507 0.0996 0.6385 0.0
O297 O 0.29013 0.11549 0.65524 0.0
C298 C 0.30905 0.17019 0.73816 0.0
O299 O 0.2694 0.16672 0.72808 0.0
C300 C 0.28107 0.02041 0.61357 0.0
O301 O 0.30908 0.0421 0.58876 0.0
O302 O 0.25097 0.10631 0.56758 0.0
O303 O 0.305 0.15333 0.565 0.0
H304 H 0.11456 0.05346 0.53489 0.0
H305 H 0.36123 0.10047 0.69912 0.0
O306 O 0.33606 0.17409 0.70391 0.0
H307 H 0.43394 0.08471 0.54318 0.0
H308 H 0.45946 0.23961 0.62455 0.0
H309 H 0.31038 0.2443 0.57715 0.0
H310 H 0.38107 0.1408 0.5545 0.0
H311 H 0.41028 0.1851 0.65259 0.0
O312 O 0.25186 0.03883 0.63713 0.0
H313 H 0.18316 0.08606 0.5492 0.0
H314 H 0.16407 0.05629 0.69715 0.0
H315 H 0.35757 0.30426 0.5579 0.0
H316 H 0.41489 0.04534 0.6896 0.0
H317 H 0.43281 0.30035 0.57704 0.0
H318 H 0.45102 0.03657 0.6108 0.0
O319 O 0.27121 0.20409 0.63975 0.0
H320 H 0.24889 0.03605 0.80453 0.0
H321 H 0.18142 0.14796 0.70942 0.0
H322 H 0.16263 0.13946 0.79447 0.0
H323 H 0.19374 0.08149 0.8416 0.0
H324 H 0.26823 0.04659 0.71963 0.0
H325 H 0.09132 0.0417 0.68393 0.0
H326 H 0.06465 0.04173 0.60085 0.0
O327 O 0.21613 0.15974 0.63585 0.0
C328 C 0.27796 0.1296 0.54431 0.0
C329 C 0.12444 0.05957 0.57055 0.0
C330 C 0.11115 0.05235 0.65434 0.0
N331 N 0.17777 0.07989 0.62539 0.0
C332 C 0.16391 0.07672 0.57943 0.0
C333 C 0.15286 0.06321 0.66181 0.0
C334 C 0.09644 0.05189 0.60799 0.0
C335 C 0.37765 0.09792 0.66509 0.0
N336 N 0.36799 0.12417 0.62747 0.0
C337 C 0.40773 0.06622 0.65979 0.0
C338 C 0.42786 0.06121 0.61555 0.0
C339 C 0.41824 0.08828 0.57751 0.0
C340 C 0.38822 0.11988 0.58417 0.0
C341 C 0.4268 0.24095 0.61405 0.0
C342 C 0.3428 0.24336 0.58836 0.0
C343 C 0.3987 0.20979 0.62927 0.0
N344 N 0.35762 0.21028 0.61485 0.0
C345 C 0.36944 0.27685 0.57605 0.0
C346 C 0.41187 0.27496 0.5875 0.0
C347 C 0.23147 0.19701 0.63675 0.0
C348 C 0.23374 0.06054 0.78363 0.0
C349 C 0.19604 0.1231 0.7295 0.0
C350 C 0.18532 0.11853 0.77798 0.0
C351 C 0.20337 0.08626 0.80469 0.0
N352 N 0.22395 0.09613 0.70787 0.0
C353 C 0.24418 0.06639 0.73513 0.0
Co354 Co 0.8247 0.30512 0.63442 0.0
Co355 Co 0.89708 0.225 0.6255 0.0
O356 O 0.87744 0.27803 0.65171 0.0
C357 C 0.824 0.2982 0.74229 0.0
O358 O 0.8444 0.26261 0.73811 0.0
C359 C 0.97346 0.27931 0.60416 0.0
O360 O 0.94992 0.30874 0.58475 0.0
O361 O 0.8884 0.24677 0.55766 0.0
O362 O 0.83413 0.29177 0.5639 0.0
H363 H 0.92051 0.11864 0.49471 0.0
H364 H 0.88734 0.3512 0.69165 0.0
O365 O 0.8134 0.31931 0.70471 0.0
H366 H 0.87329 0.43327 0.54128 0.0
H367 H 0.72031 0.42482 0.62548 0.0
H368 H 0.7537 0.28097 0.57433 0.0
H369 H 0.83011 0.37001 0.55587 0.0
H370 H 0.78422 0.38842 0.65616 0.0
O371 O 0.9569 0.24644 0.62301 0.0
H372 H 0.88287 0.17638 0.53299 0.0
H373 H 0.92987 0.17389 0.62105 0.0
H374 H 0.68802 0.31437 0.54931 0.0
H375 H 0.93153 0.41404 0.67815 0.0
H376 H 0.67116 0.387 0.57394 0.0
H377 H 0.92537 0.45477 0.60187 0.0
O378 O 0.79249 0.25165 0.64475 0.0
H379 H 0.95683 0.23367 0.79219 0.0
H380 H 0.86736 0.15075 0.68525 0.0
H381 H 0.87834 0.12636 0.76835 0.0
H382 H 0.92416 0.16746 0.8222 0.0
H383 H 0.94415 0.25765 0.70915 0.0
H384 H 0.98789 0.09347 0.62396 0.0
H385 H 0.96786 0.07347 0.5419 0.0
O386 O 0.83804 0.19987 0.62718 0.0
C387 C 0.86084 0.27109 0.53869 0.0
C388 C 0.9268 0.12598 0.53151 0.0
C389 C 0.96585 0.11283 0.60422 0.0
N390 N 0.91927 0.17203 0.59969 0.0
C391 C 0.90659 0.15946 0.55278 0.0
C392 C 0.94993 0.14901 0.6258 0.0
C393 C 0.95437 0.10134 0.55793 0.0
C394 C 0.88388 0.3693 0.65883 0.0
N395 N 0.85605 0.35697 0.62471 0.0
C396 C 0.90912 0.40474 0.65129 0.0
C397 C 0.90557 0.42769 0.60857 0.0
C398 C 0.87661 0.41538 0.57432 0.0
C399 C 0.85219 0.37957 0.58287 0.0
C400 C 0.72708 0.39277 0.616 0.0
C401 C 0.74626 0.3122 0.58684 0.0
C402 C 0.7632 0.3722 0.63241 0.0
N403 N 0.77269 0.33261 0.61696 0.0
C404 C 0.70933 0.33127 0.57154 0.0
C405 C 0.69965 0.37179 0.58613 0.0
C406 C 0.801 0.21285 0.63848 0.0
C407 C 0.93721 0.21527 0.76887 0.0
C408 C 0.88658 0.16938 0.70855 0.0
C409 C 0.89298 0.15517 0.75559 0.0
C410 C 0.91864 0.17823 0.78579 0.0
N411 N 0.90531 0.20553 0.6919 0.0
C412 C 0.93016 0.2285 0.7216 0.0
Co413 Co 0.66895 0.81047 0.63551 0.0
Co414 Co 0.73799 0.89432 0.62887 0.0
O415 O 0.68853 0.86596 0.65451 0.0
C416 C 0.69419 0.80396 0.73741 0.0
O417 O 0.72733 0.82611 0.72533 0.0
C418 C 0.68468 0.96989 0.59416 0.0
O419 O 0.67123 0.95063 0.55579 0.0
O420 O 0.72191 0.87854 0.56233 0.0
O421 O 0.67185 0.82811 0.5656 0.0
H422 H 0.88747 0.9483 0.62634 0.0
H423 H 0.6213 0.85703 0.71037 0.0
O424 O 0.66764 0.79307 0.70569 0.0
H425 H 0.51992 0.83215 0.58098 0.0
H426 H 0.58064 0.67965 0.65553 0.0
H427 H 0.67997 0.75584 0.54958 0.0
H428 H 0.59396 0.80983 0.57196 0.0
H429 H 0.61233 0.74672 0.68174 0.0
O430 O 0.70641 0.95002 0.62533 0.0
H431 H 0.83411 0.8954 0.64408 0.0
H432 H 0.75121 0.95283 0.54591 0.0
H433 H 0.643 0.69437 0.51999 0.0
H434 H 0.54754 0.87913 0.72115 0.0
H435 H 0.59408 0.65465 0.57322 0.0
H436 H 0.49618 0.86599 0.65668 0.0
O437 O 0.72701 0.78682 0.63017 0.0
H438 H 0.70667 0.96464 0.78549 0.0
H439 H 0.80607 0.87128 0.70508 0.0
H440 H 0.82698 0.90518 0.77988 0.0
H441 H 0.77751 0.95515 0.81933 0.0
H442 H 0.69092 0.93725 0.70627 0.0
H443 H 0.80448 0.00467 0.52391 0.0
H444 H 0.8742 0.00267 0.56516 0.0
O445 O 0.77268 0.84069 0.6321 0.0
C446 C 0.69623 0.85318 0.54228 0.0
C447 C 0.85739 0.94973 0.60899 0.0
C448 C 0.81079 0.98197 0.55211 0.0
N449 N 0.78662 0.92463 0.6023 0.0
C450 C 0.82597 0.92088 0.62095 0.0
C451 C 0.78014 0.9527 0.56546 0.0
C452 C 0.84955 0.98084 0.57482 0.0
C453 C 0.59923 0.85142 0.68191 0.0
N454 N 0.61188 0.83173 0.64078 0.0
C455 C 0.5575 0.86413 0.68819 0.0
C456 C 0.5287 0.85688 0.65187 0.0
C457 C 0.54202 0.83775 0.60951 0.0
C458 C 0.58403 0.82537 0.60452 0.0
C459 C 0.60155 0.69717 0.63201 0.0
C460 C 0.65712 0.7405 0.57275 0.0
C461 C 0.6204 0.73447 0.64692 0.0
N462 N 0.64763 0.75584 0.6172 0.0
C463 C 0.63656 0.70518 0.55571 0.0
C464 C 0.60913 0.68295 0.58571 0.0
C465 C 0.76441 0.80124 0.6301 0.0
C466 C 0.7305 0.94766 0.76575 0.0
C467 C 0.78678 0.89612 0.71889 0.0
C468 C 0.79772 0.91361 0.76287 0.0
C469 C 0.76987 0.94107 0.78537 0.0
N470 N 0.75145 0.90923 0.69538 0.0
C471 C 0.72191 0.9318 0.7205 0.0
Co472 Co 0.82327 0.67664 0.63111 0.0
Co473 Co 0.895 0.75671 0.62285 0.0
O474 O 0.87329 0.70548 0.64967 0.0
C475 C 0.81798 0.68623 0.73898 0.0
O476 O 0.84106 0.72018 0.73551 0.0
C477 C 0.9687 0.70052 0.59568 0.0
O478 O 0.94606 0.68086 0.56389 0.0
O479 O 0.88426 0.73871 0.5553 0.0
O480 O 0.83591 0.68725 0.55975 0.0
H481 H 0.94368 0.90845 0.62072 0.0
H482 H 0.88438 0.63686 0.69719 0.0
O483 O 0.80839 0.66563 0.70145 0.0
H484 H 0.87666 0.54139 0.55936 0.0
H485 H 0.7287 0.55113 0.64121 0.0
H486 H 0.75225 0.68951 0.56324 0.0
H487 H 0.83459 0.60681 0.56083 0.0
H488 H 0.78744 0.59597 0.66539 0.0
O489 O 0.95266 0.72963 0.62142 0.0
H490 H 0.89179 0.85362 0.64027 0.0
H491 H 0.95313 0.77044 0.54415 0.0
H492 H 0.69098 0.64656 0.54176 0.0
H493 H 0.92791 0.57278 0.69629 0.0
H494 H 0.67902 0.57704 0.5793 0.0
H495 H 0.92454 0.52483 0.6269 0.0
O496 O 0.78999 0.73072 0.63315 0.0
H497 H 0.96242 0.74835 0.78675 0.0
H498 H 0.85377 0.81887 0.69193 0.0
H499 H 0.86686 0.84197 0.77316 0.0
H500 H 0.92305 0.80864 0.82071 0.0
H501 H 0.95055 0.72697 0.70415 0.0
H502 H 0.00296 0.823 0.5229 0.0
H503 H 0.00053 0.89418 0.56257 0.0
O504 O 0.83727 0.7835 0.62285 0.0
C505 C 0.86001 0.7123 0.53544 0.0
C506 C 0.94511 0.87834 0.60335 0.0
C507 C 0.97961 0.83089 0.54928 0.0
N508 N 0.92076 0.80729 0.5963 0.0
C509 C 0.91622 0.84659 0.61506 0.0
C510 C 0.95029 0.80052 0.56136 0.0
C511 C 0.97756 0.87012 0.57093 0.0
C512 C 0.88261 0.61614 0.66679 0.0
N513 N 0.85679 0.62551 0.62919 0.0
C514 C 0.90741 0.57991 0.66647 0.0
C515 C 0.90548 0.55298 0.62747 0.0
C516 C 0.87893 0.56254 0.58935 0.0
C517 C 0.85512 0.5995 0.59048 0.0
C518 C 0.73305 0.58177 0.6246 0.0
C519 C 0.74679 0.65951 0.58091 0.0
C520 C 0.76645 0.6073 0.63782 0.0
N521 N 0.77362 0.64512 0.61506 0.0
C522 C 0.7122 0.63531 0.56828 0.0
C523 C 0.70547 0.59614 0.58973 0.0
C524 C 0.79946 0.76997 0.62862 0.0
C525 C 0.94011 0.76531 0.76494 0.0
C526 C 0.87937 0.80444 0.71066 0.0
C527 C 0.88613 0.81753 0.75758 0.0
C528 C 0.91735 0.79841 0.78449 0.0
N529 N 0.90441 0.77452 0.68954 0.0
C530 C 0.93324 0.75365 0.7174 0.0
Co531 Co 0.30591 0.82476 0.63451 0.0
Co532 Co 0.22595 0.89664 0.62578 0.0
O533 O 0.27902 0.87753 0.65222 0.0
C534 C 0.29854 0.82419 0.74216 0.0
O535 O 0.26237 0.84332 0.73714 0.0
C536 C 0.27908 0.97431 0.61011 0.0
O537 O 0.30841 0.95285 0.58755 0.0
O538 O 0.24886 0.88999 0.55841 0.0
O539 O 0.29161 0.83396 0.56398 0.0
H540 H 0.1219 0.91893 0.49229 0.0
H541 H 0.35316 0.88698 0.69117 0.0
O542 O 0.32044 0.81385 0.70495 0.0
H543 H 0.43318 0.87288 0.53935 0.0
H544 H 0.42402 0.71827 0.62628 0.0
H545 H 0.28072 0.75384 0.57463 0.0
H546 H 0.36965 0.8303 0.55478 0.0
H547 H 0.38909 0.78416 0.65449 0.0
O548 O 0.24612 0.95635 0.6265 0.0
H549 H 0.18029 0.88316 0.53106 0.0
H550 H 0.17415 0.92829 0.6205 0.0
H551 H 0.31298 0.68746 0.5501 0.0
H552 H 0.41657 0.93024 0.67717 0.0
H553 H 0.38528 0.66945 0.57515 0.0
H554 H 0.4567 0.92373 0.6005 0.0
O555 O 0.25285 0.79257 0.64584 0.0
H556 H 0.22999 0.95482 0.79359 0.0
H557 H 0.15224 0.86332 0.68405 0.0
H558 H 0.12538 0.8738 0.76627 0.0
H559 H 0.16379 0.92071 0.82136 0.0
H560 H 0.25623 0.94291 0.71143 0.0
H561 H 0.08605 0.9733 0.62606 0.0
H562 H 0.07205 0.96126 0.54092 0.0
O563 O 0.20194 0.83775 0.62492 0.0
C564 C 0.27165 0.86149 0.53904 0.0
C565 C 0.12741 0.92378 0.52994 0.0
C566 C 0.10951 0.95789 0.60424 0.0
N567 N 0.17286 0.91761 0.5989 0.0
C568 C 0.16169 0.90517 0.55143 0.0
C569 C 0.1466 0.94459 0.62601 0.0
C570 C 0.10053 0.94898 0.55674 0.0
C571 C 0.37079 0.88352 0.65803 0.0
N572 N 0.35773 0.85601 0.62394 0.0
C573 C 0.40653 0.90829 0.65017 0.0
C574 C 0.42898 0.9047 0.6071 0.0
C575 C 0.41577 0.87623 0.57273 0.0
C576 C 0.37976 0.85217 0.58171 0.0
C577 C 0.39223 0.72584 0.61618 0.0
C578 C 0.31192 0.74611 0.58698 0.0
C579 C 0.37247 0.76279 0.63163 0.0
N580 N 0.3329 0.77257 0.6166 0.0
C581 C 0.33031 0.70869 0.57208 0.0
C582 C 0.37067 0.69842 0.5868 0.0
C583 C 0.21444 0.80107 0.63768 0.0
C584 C 0.21262 0.93484 0.76964 0.0
C585 C 0.16959 0.88315 0.70783 0.0
C586 C 0.15409 0.88914 0.75442 0.0
C587 C 0.17565 0.91543 0.78533 0.0
N588 N 0.20533 0.90314 0.6921 0.0
C589 C 0.22709 0.92826 0.72275 0.0
Co590 Co 0.16771 0.32106 0.63411 0.0
Co591 Co 0.10309 0.23651 0.61566 0.0
O592 O 0.1164 0.2872 0.64989 0.0
C593 C 0.16929 0.30774 0.73889 0.0
O594 O 0.15661 0.26911 0.73165 0.0
C595 C 0.01991 0.28193 0.60191 0.0
O596 O 0.03893 0.31607 0.58607 0.0
O597 O 0.1097 0.26722 0.55499 0.0
O598 O 0.16452 0.31016 0.56189 0.0
H599 H 0.14178 0.14705 0.47813 0.0
H600 H 0.09761 0.3567 0.69202 0.0
O601 O 0.17392 0.33348 0.70401 0.0
H602 H 0.10035 0.43946 0.54109 0.0
H603 H 0.25139 0.45246 0.65787 0.0
H604 H 0.25178 0.312 0.58399 0.0
H605 H 0.1557 0.38715 0.55781 0.0
H606 H 0.1893 0.40703 0.66403 0.0
O607 O 0.041 0.24943 0.61405 0.0
H608 H 0.15038 0.20297 0.53616 0.0
H609 H 0.03935 0.16514 0.61138 0.0
H610 H 0.31656 0.35568 0.58228 0.0
H611 H 0.04224 0.40945 0.6772 0.0
H612 H 0.31614 0.42621 0.61764 0.0
H613 H 0.04247 0.4501 0.60053 0.0
O614 O 0.20677 0.27028 0.64246 0.0
H615 H 0.03944 0.22241 0.78002 0.0
H616 H 0.12213 0.14979 0.65493 0.0
H617 H 0.10119 0.11132 0.72946 0.0
H618 H 0.06018 0.1478 0.79256 0.0
H619 H 0.0595 0.25905 0.70491 0.0
H620 H 0.03411 0.10415 0.55538 0.0
H621 H 0.08155 0.09841 0.4874 0.0
O622 O 0.16331 0.21929 0.61935 0.0
C623 C 0.13665 0.29178 0.53674 0.0
C624 C 0.11919 0.15073 0.50715 0.0
C625 C 0.05747 0.12786 0.55047 0.0
N626 N 0.09484 0.18766 0.57692 0.0
C627 C 0.12378 0.18217 0.54054 0.0
C628 C 0.06168 0.16108 0.58226 0.0
C629 C 0.08529 0.12394 0.512 0.0
C630 C 0.09876 0.37523 0.65923 0.0
N631 N 0.12967 0.36845 0.62564 0.0
C632 C 0.06707 0.40479 0.65086 0.0
C633 C 0.06718 0.42752 0.60778 0.0
C634 C 0.0996 0.4215 0.57438 0.0
C635 C 0.13088 0.39184 0.58409 0.0
C636 C 0.25183 0.42171 0.64156 0.0
C637 C 0.2515 0.34276 0.60017 0.0
C638 C 0.21641 0.39595 0.6441 0.0
N639 N 0.21626 0.35714 0.62313 0.0
C640 C 0.28812 0.36721 0.59876 0.0
C641 C 0.28806 0.40701 0.61902 0.0
C642 C 0.19944 0.2317 0.63234 0.0
C643 C 0.05776 0.20619 0.75297 0.0
C644 C 0.10413 0.16576 0.68237 0.0
C645 C 0.09232 0.14385 0.72428 0.0
C646 C 0.06924 0.16434 0.75985 0.0
N647 N 0.09247 0.20669 0.67578 0.0
C648 C 0.0695 0.22687 0.71042 0.0
Co649 Co 0.67044 0.17325 0.62779 0.0
Co650 Co 0.73773 0.08943 0.6379 0.0
O651 O 0.68559 0.11789 0.64879 0.0
C652 C 0.67825 0.17784 0.73477 0.0
O653 O 0.71441 0.15881 0.72937 0.0
C654 C 0.68801 0.01651 0.59418 0.0
O655 O 0.68212 0.03761 0.55405 0.0
O656 O 0.73472 0.10266 0.56626 0.0
O657 O 0.68766 0.15704 0.55929 0.0
H658 H 0.89223 0.0895 0.6261 0.0
H659 H 0.58544 0.19939 0.66231 0.0
O660 O 0.65629 0.18753 0.69776 0.0
H661 H 0.56221 0.07265 0.56578 0.0
H662 H 0.63588 0.32429 0.65517 0.0
H663 H 0.62315 0.20568 0.54367 0.0
H664 H 0.63374 0.10042 0.57659 0.0
H665 H 0.67576 0.25877 0.66865 0.0
O666 O 0.70596 0.03389 0.62983 0.0
H667 H 0.82393 0.10832 0.59236 0.0
H668 H 0.77727 0.04354 0.64248 0.0
H669 H 0.58233 0.27058 0.52906 0.0
H670 H 0.51335 0.17285 0.65228 0.0
H671 H 0.58815 0.33025 0.58533 0.0
H672 H 0.50149 0.10934 0.60337 0.0
O673 O 0.72804 0.19744 0.63511 0.0
H674 H 0.67579 0.03428 0.79205 0.0
H675 H 0.80087 0.1007 0.71736 0.0
H676 H 0.80418 0.07468 0.80129 0.0
H677 H 0.74201 0.0372 0.83684 0.0
H678 H 0.67486 0.05741 0.70766 0.0
H679 H 0.83821 0.98657 0.70393 0.0
H680 H 0.89909 0.03165 0.68468 0.0
O681 O 0.77188 0.14303 0.64509 0.0
C682 C 0.71351 0.12968 0.54094 0.0
C683 C 0.86553 0.07094 0.63514 0.0
C684 C 0.8342 0.01363 0.6805 0.0
N685 N 0.7908 0.05808 0.63158 0.0
C686 C 0.82699 0.08087 0.61537 0.0
C687 C 0.79469 0.02129 0.66063 0.0
C688 C 0.86888 0.03862 0.66889 0.0
C689 C 0.58059 0.17144 0.64135 0.0
N690 N 0.61391 0.15149 0.61991 0.0
C691 C 0.53965 0.15668 0.63565 0.0
C692 C 0.53297 0.12101 0.60821 0.0
C693 C 0.56706 0.1005 0.58701 0.0
C694 C 0.60753 0.11638 0.59317 0.0
C695 C 0.63286 0.29844 0.63048 0.0
C696 C 0.62698 0.23209 0.56732 0.0
C697 C 0.6558 0.26145 0.63759 0.0
N698 N 0.6515 0.22837 0.60712 0.0
C699 C 0.60347 0.26859 0.55916 0.0
C700 C 0.60629 0.30185 0.59114 0.0
C701 C 0.76494 0.18248 0.64025 0.0
C702 C 0.70353 0.04843 0.77579 0.0
C703 C 0.77349 0.08599 0.73362 0.0
C704 C 0.77555 0.0713 0.78102 0.0
C705 C 0.74065 0.0511 0.80139 0.0
N706 N 0.73838 0.07878 0.70697 0.0
C707 C 0.7032 0.06174 0.72807 0.0
Co708 Co 0.81629 0.3191 0.39799 0.0
Co709 Co 0.90011 0.25181 0.38788 0.0
O710 O 0.87165 0.30395 0.37698 0.0
C711 C 0.81169 0.31128 0.29101 0.0
O712 O 0.83072 0.27513 0.29641 0.0
C713 C 0.97302 0.30153 0.4316 0.0
O714 O 0.95193 0.30742 0.47173 0.0
O715 O 0.88688 0.25482 0.45951 0.0
O716 O 0.8325 0.30187 0.46648 0.0
H717 H 0.90004 0.0973 0.39968 0.0
H718 H 0.79014 0.40409 0.36346 0.0
O719 O 0.802 0.33325 0.32801 0.0
H720 H 0.91689 0.42733 0.46 0.0
H721 H 0.66525 0.35365 0.3706 0.0
H722 H 0.78386 0.36638 0.48211 0.0
H723 H 0.88912 0.35579 0.44918 0.0
H724 H 0.73076 0.31378 0.35713 0.0
O725 O 0.95564 0.28358 0.39595 0.0
H726 H 0.88121 0.1656 0.43342 0.0
H727 H 0.946 0.21226 0.38329 0.0
H728 H 0.71896 0.4072 0.49671 0.0
H729 H 0.81669 0.47619 0.3735 0.0
H730 H 0.65928 0.40138 0.44045 0.0
H731 H 0.8802 0.48804 0.42241 0.0
O732 O 0.79209 0.26149 0.39067 0.0
H733 H 0.95526 0.31374 0.23373 0.0
H734 H 0.88884 0.18867 0.30841 0.0
H735 H 0.91485 0.18536 0.22449 0.0
H736 H 0.95233 0.24753 0.18894 0.0
H737 H 0.93212 0.31468 0.31812 0.0
H738 H 0.00296 0.15132 0.32185 0.0
H739 H 0.95789 0.09045 0.3411 0.0
O740 O 0.8465 0.21765 0.38068 0.0
C741 C 0.85985 0.27603 0.48484 0.0
C742 C 0.91859 0.12401 0.39063 0.0
C743 C 0.9759 0.15533 0.34527 0.0
N744 N 0.93145 0.19874 0.3942 0.0
C745 C 0.90866 0.16254 0.4104 0.0
C746 C 0.96824 0.19485 0.36514 0.0
C747 C 0.95091 0.12065 0.35689 0.0
C748 C 0.81809 0.40894 0.38442 0.0
N749 N 0.83804 0.37563 0.40586 0.0
C750 C 0.83285 0.44989 0.39012 0.0
C751 C 0.86852 0.45657 0.41757 0.0
C752 C 0.88903 0.42247 0.43877 0.0
C753 C 0.87315 0.382 0.43261 0.0
C754 C 0.69109 0.35667 0.39529 0.0
C755 C 0.75744 0.36256 0.45846 0.0
C756 C 0.72809 0.33374 0.38819 0.0
N757 N 0.76116 0.33804 0.41865 0.0
C758 C 0.72094 0.38607 0.46662 0.0
C759 C 0.68768 0.38324 0.43463 0.0
C760 C 0.80706 0.22459 0.38553 0.0
C761 C 0.9411 0.28601 0.24998 0.0
C762 C 0.90355 0.21604 0.29216 0.0
C763 C 0.91823 0.21398 0.24476 0.0
C764 C 0.93844 0.24888 0.22438 0.0
N765 N 0.91076 0.25115 0.31881 0.0
C766 C 0.9278 0.28633 0.29771 0.0
Co767 Co 0.66847 0.82183 0.39167 0.0
Co768 Co 0.75303 0.88645 0.41011 0.0
O769 O 0.70234 0.87313 0.37589 0.0
C770 C 0.6818 0.82024 0.28689 0.0
O771 O 0.72042 0.83292 0.29412 0.0
C772 C 0.7076 0.96962 0.42387 0.0
O773 O 0.67347 0.95061 0.43971 0.0
O774 O 0.72232 0.87984 0.47079 0.0
O775 O 0.67937 0.82502 0.46389 0.0
H776 H 0.84248 0.84776 0.54765 0.0
H777 H 0.63283 0.89192 0.33376 0.0
O778 O 0.65606 0.81561 0.32177 0.0
H779 H 0.55007 0.88919 0.48469 0.0
H780 H 0.53708 0.73814 0.36791 0.0
H781 H 0.67753 0.73776 0.44179 0.0
H782 H 0.60239 0.83383 0.46797 0.0
H783 H 0.58251 0.80024 0.36175 0.0
O784 O 0.74011 0.94854 0.41173 0.0
H785 H 0.78656 0.83916 0.48961 0.0
H786 H 0.8244 0.95018 0.4144 0.0
H787 H 0.63386 0.67297 0.44349 0.0
H788 H 0.58009 0.9473 0.34858 0.0
H789 H 0.56333 0.6734 0.40814 0.0
H790 H 0.53943 0.94706 0.42525 0.0
O791 O 0.71926 0.78277 0.38332 0.0
H792 H 0.76712 0.95009 0.24576 0.0
H793 H 0.83974 0.8674 0.37085 0.0
H794 H 0.87821 0.88834 0.29631 0.0
H795 H 0.84174 0.92935 0.23321 0.0
H796 H 0.73048 0.93003 0.32087 0.0
H797 H 0.88538 0.95542 0.4704 0.0
H798 H 0.89112 0.90799 0.53838 0.0
O799 O 0.77024 0.82622 0.40643 0.0
C800 C 0.69775 0.85288 0.48904 0.0
C801 C 0.83881 0.87035 0.51863 0.0
C802 C 0.86167 0.93206 0.47531 0.0
N803 N 0.80188 0.89469 0.44885 0.0
C804 C 0.80736 0.86575 0.48524 0.0
C805 C 0.82846 0.92786 0.44351 0.0
C806 C 0.86559 0.90424 0.51378 0.0
C807 C 0.6143 0.89078 0.36654 0.0
N808 N 0.62108 0.85987 0.40014 0.0
C809 C 0.58475 0.92246 0.37492 0.0
C810 C 0.56202 0.92235 0.418 0.0
C811 C 0.56803 0.88994 0.45139 0.0
C812 C 0.5977 0.85865 0.44169 0.0
C813 C 0.56782 0.73771 0.38421 0.0
C814 C 0.64678 0.73803 0.42561 0.0
C815 C 0.59358 0.77313 0.38168 0.0
N816 N 0.63239 0.77327 0.40265 0.0
C817 C 0.62232 0.70141 0.42702 0.0
C818 C 0.58253 0.70148 0.40675 0.0
C819 C 0.75783 0.7901 0.39344 0.0
C820 C 0.78334 0.93178 0.27281 0.0
C821 C 0.82377 0.8854 0.34341 0.0
C822 C 0.84569 0.89721 0.3015 0.0
C823 C 0.82519 0.92029 0.26592 0.0
N824 N 0.78284 0.89707 0.35 0.0
C825 C 0.76267 0.92003 0.31535 0.0
Co826 Co 0.16478 0.68363 0.39127 0.0
Co827 Co 0.09289 0.76359 0.4 0.0
O828 O 0.112 0.71051 0.37356 0.0
C829 C 0.16535 0.69099 0.28361 0.0
O830 O 0.14622 0.72716 0.28863 0.0
C831 C 0.01522 0.71045 0.41567 0.0
O832 O 0.03669 0.68113 0.43823 0.0
O833 O 0.09954 0.74068 0.46737 0.0
O834 O 0.15558 0.69792 0.4618 0.0
H835 H 0.07061 0.86763 0.53349 0.0
H836 H 0.10256 0.63637 0.3346 0.0
O837 O 0.17569 0.6691 0.32083 0.0
H838 H 0.11665 0.55635 0.48643 0.0
H839 H 0.27127 0.56552 0.3995 0.0
H840 H 0.23569 0.70881 0.45115 0.0
H841 H 0.15923 0.61988 0.47099 0.0
H842 H 0.20537 0.60044 0.37128 0.0
O843 O 0.03318 0.74341 0.39928 0.0
H844 H 0.10638 0.80924 0.49471 0.0
H845 H 0.06124 0.81539 0.40528 0.0
H846 H 0.30207 0.67655 0.47567 0.0
H847 H 0.05929 0.57297 0.34861 0.0
H848 H 0.32009 0.60425 0.45063 0.0
H849 H 0.06581 0.53284 0.42527 0.0
O850 O 0.19697 0.73669 0.37993 0.0
H851 H 0.03471 0.75955 0.23219 0.0
H852 H 0.12621 0.8373 0.34173 0.0
H853 H 0.11573 0.86415 0.2595 0.0
H854 H 0.06882 0.82574 0.20441 0.0
H855 H 0.04662 0.7333 0.31435 0.0
H856 H 0.01623 0.90349 0.39971 0.0
H857 H 0.02828 0.91749 0.48485 0.0
O858 O 0.15179 0.78759 0.40085 0.0
C859 C 0.12805 0.71788 0.48673 0.0
C860 C 0.06576 0.86213 0.49584 0.0
C861 C 0.03164 0.88002 0.42154 0.0
N862 N 0.07192 0.81667 0.42688 0.0
C863 C 0.08436 0.82785 0.47435 0.0
C864 C 0.04494 0.84294 0.39976 0.0
C865 C 0.04056 0.88901 0.46904 0.0
C866 C 0.10601 0.61874 0.36775 0.0
N867 N 0.13353 0.6318 0.40183 0.0
C868 C 0.08124 0.583 0.37561 0.0
C869 C 0.08484 0.56055 0.41868 0.0
C870 C 0.11331 0.57377 0.45305 0.0
C871 C 0.13737 0.60978 0.44407 0.0
C872 C 0.26369 0.5973 0.4096 0.0
C873 C 0.24343 0.67761 0.4388 0.0
C874 C 0.22675 0.61706 0.39415 0.0
N875 N 0.21697 0.65664 0.40917 0.0
C876 C 0.28084 0.65922 0.4537 0.0
C877 C 0.29111 0.61887 0.43897 0.0
C878 C 0.18846 0.7751 0.3881 0.0
C879 C 0.05469 0.77692 0.25614 0.0
C880 C 0.10639 0.81994 0.31795 0.0
C881 C 0.10039 0.83545 0.27135 0.0
C882 C 0.0741 0.81389 0.24044 0.0
N883 N 0.08639 0.78421 0.33368 0.0
C884 C 0.06127 0.76245 0.30303 0.0
Co885 Co 0.3129 0.16626 0.39467 0.0
Co886 Co 0.23282 0.09453 0.40293 0.0
O887 O 0.28406 0.11624 0.37611 0.0
C888 C 0.3033 0.17156 0.2868 0.0
O889 O 0.26935 0.14847 0.29027 0.0
C890 C 0.28901 0.02084 0.43009 0.0
O891 O 0.30868 0.04348 0.46189 0.0
O892 O 0.25082 0.10527 0.47048 0.0
O893 O 0.30228 0.15363 0.46603 0.0
H894 H 0.08108 0.04585 0.40506 0.0
H895 H 0.35268 0.10516 0.32858 0.0
O896 O 0.3239 0.18115 0.32433 0.0
H897 H 0.44814 0.11287 0.46642 0.0
H898 H 0.43841 0.26083 0.38456 0.0
H899 H 0.30002 0.23729 0.46254 0.0
H900 H 0.38273 0.15494 0.46495 0.0
H901 H 0.39357 0.2021 0.36039 0.0
O902 O 0.2599 0.03688 0.40436 0.0
H903 H 0.13591 0.09774 0.38551 0.0
H904 H 0.21909 0.0364 0.48162 0.0
H905 H 0.34298 0.29855 0.48402 0.0
H906 H 0.41676 0.06163 0.32949 0.0
H907 H 0.4125 0.31051 0.44648 0.0
H908 H 0.4647 0.06499 0.39888 0.0
O909 O 0.25881 0.19955 0.39263 0.0
H910 H 0.24118 0.02712 0.23902 0.0
H911 H 0.17066 0.13577 0.33385 0.0
H912 H 0.14756 0.12268 0.25261 0.0
H913 H 0.18089 0.06648 0.20507 0.0
H914 H 0.26256 0.03899 0.32163 0.0
H915 H 0.16653 0.98658 0.50287 0.0
H916 H 0.09536 0.989 0.4632 0.0
O917 O 0.20603 0.15226 0.40293 0.0
C918 C 0.27724 0.12952 0.49034 0.0
C919 C 0.11119 0.04443 0.42243 0.0
C920 C 0.15865 0.00992 0.47649 0.0
N921 N 0.18224 0.06877 0.42948 0.0
C922 C 0.14295 0.07331 0.41072 0.0
C923 C 0.18902 0.03924 0.46442 0.0
C924 C 0.11942 0.01197 0.45485 0.0
C925 C 0.37339 0.10692 0.35899 0.0
N926 N 0.36403 0.13275 0.39659 0.0
C927 C 0.40963 0.08212 0.3593 0.0
C928 C 0.43656 0.08406 0.3983 0.0
C929 C 0.42699 0.1106 0.43642 0.0
C930 C 0.39003 0.13442 0.4353 0.0
C931 C 0.40776 0.25649 0.40118 0.0
C932 C 0.33002 0.24275 0.44486 0.0
C933 C 0.38223 0.22308 0.38796 0.0
N934 N 0.34442 0.21591 0.41072 0.0
C935 C 0.35422 0.27734 0.4575 0.0
C936 C 0.3934 0.28406 0.43605 0.0
C937 C 0.21956 0.19008 0.39715 0.0
C938 C 0.22423 0.04942 0.26083 0.0
C939 C 0.18509 0.11016 0.31512 0.0
C940 C 0.17201 0.1034 0.26819 0.0
C941 C 0.19113 0.07219 0.24129 0.0
N942 N 0.21502 0.08513 0.33624 0.0
C943 C 0.23588 0.05629 0.30838 0.0
Co944 Co 0.67906 0.82058 0.89027 0.0
Co945 Co 0.59522 0.75154 0.89691 0.0
O946 O 0.62357 0.80101 0.87127 0.0
C947 C 0.68558 0.79534 0.78837 0.0
O948 O 0.66342 0.76221 0.80045 0.0
C949 C 0.51964 0.80485 0.93162 0.0
O950 O 0.5389 0.81831 0.96998 0.0
O951 O 0.61099 0.76763 0.96345 0.0
O952 O 0.66143 0.81768 0.96018 0.0
H953 H 0.54123 0.60207 0.89944 0.0
H954 H 0.6325 0.86824 0.81541 0.0
O955 O 0.69646 0.82189 0.82009 0.0
H956 H 0.65739 0.96961 0.9448 0.0
H957 H 0.80988 0.9089 0.87024 0.0
H958 H 0.73369 0.80957 0.9762 0.0
H959 H 0.6797 0.89558 0.95382 0.0
H960 H 0.74282 0.8772 0.84403 0.0
O961 O 0.53952 0.78312 0.90045 0.0
H962 H 0.59414 0.65543 0.8817 0.0
H963 H 0.5367 0.73832 0.97987 0.0
H964 H 0.79516 0.84655 1.0058 0.0
H965 H 0.6104 0.942 0.80463 0.0
H966 H 0.83488 0.89547 0.95256 0.0
H967 H 0.62354 0.99336 0.8691 0.0
O968 O 0.70271 0.76252 0.89561 0.0
H969 H 0.52489 0.78287 0.74029 0.0
H970 H 0.61825 0.68346 0.8207 0.0
H971 H 0.58436 0.66255 0.7459 0.0
H972 H 0.53438 0.71203 0.70645 0.0
H973 H 0.55229 0.79862 0.81951 0.0
H974 H 0.48487 0.68505 1.00187 0.0
H975 H 0.48686 0.61533 0.96062 0.0
O976 O 0.64885 0.71685 0.89368 0.0
C977 C 0.63635 0.79331 0.9835 0.0
C978 C 0.53981 0.63215 0.91679 0.0
C979 C 0.50756 0.67875 0.97367 0.0
N980 N 0.56491 0.70291 0.92348 0.0
C981 C 0.56866 0.66357 0.90483 0.0
C982 C 0.53683 0.7094 0.96032 0.0
C983 C 0.5087 0.63998 0.95096 0.0
C984 C 0.63811 0.8903 0.84387 0.0
N985 N 0.65781 0.87766 0.885 0.0
C986 C 0.62541 0.93204 0.83758 0.0
C987 C 0.63266 0.96083 0.8739 0.0
C988 C 0.65178 0.94752 0.91627 0.0
C989 C 0.66416 0.90551 0.92126 0.0
C990 C 0.79237 0.88799 0.89377 0.0
C991 C 0.74903 0.83243 0.95304 0.0
C992 C 0.75507 0.86913 0.87886 0.0
N993 N 0.73369 0.8419 0.90858 0.0
C994 C 0.78435 0.85299 0.97007 0.0
C995 C 0.80658 0.88041 0.94007 0.0
C996 C 0.68829 0.72513 0.89568 0.0
C997 C 0.54187 0.75903 0.76003 0.0
C998 C 0.59342 0.70276 0.80689 0.0
C999 C 0.57593 0.69182 0.76291 0.0
C1000 C 0.54847 0.71967 0.7404 0.0
N1001 N 0.5803 0.73808 0.8304 0.0
C1002 C 0.55774 0.76763 0.80528 0.0
Co1003 Co 0.18441 0.66483 0.89135 0.0
Co1004 Co 0.26453 0.59246 0.90028 0.0
O1005 O 0.21151 0.61209 0.87407 0.0
C1006 C 0.19134 0.66553 0.78348 0.0
O1007 O 0.22692 0.64514 0.78767 0.0
C1008 C 0.21022 0.51607 0.92161 0.0
O1009 O 0.18079 0.53961 0.94103 0.0
O1010 O 0.24277 0.60113 0.96812 0.0
O1011 O 0.19776 0.6554 0.96187 0.0
H1012 H 0.3709 0.56902 0.03107 0.0
H1013 H 0.13834 0.6022 0.83413 0.0
O1014 O 0.17022 0.67614 0.82106 0.0
H1015 H 0.05627 0.61624 0.9845 0.0
H1016 H 0.06472 0.76923 0.9003 0.0
H1017 H 0.20856 0.73584 0.95145 0.0
H1018 H 0.11952 0.65943 0.96991 0.0
H1019 H 0.10112 0.70531 0.86962 0.0
O1020 O 0.24309 0.53264 0.90277 0.0
H1021 H 0.31315 0.60667 0.99278 0.0
H1022 H 0.31564 0.55966 0.90473 0.0
H1023 H 0.17516 0.80151 0.97646 0.0
H1024 H 0.0755 0.55801 0.84762 0.0
H1025 H 0.10253 0.81838 0.95184 0.0
H1026 H 0.03477 0.56416 0.92391 0.0
O1027 O 0.23788 0.69705 0.88103 0.0
H1028 H 0.25586 0.5327 0.73358 0.0
H1029 H 0.33878 0.62218 0.84053 0.0
H1030 H 0.36318 0.6112 0.75743 0.0
H1031 H 0.32208 0.56538 0.70357 0.0
H1032 H 0.23189 0.54539 0.81663 0.0
H1033 H 0.39606 0.50165 0.90182 0.0
H1034 H 0.41607 0.52168 0.98388 0.0
O1035 O 0.28966 0.65149 0.8986 0.0
C1036 C 0.21845 0.62869 0.98708 0.0
C1037 C 0.36355 0.56274 0.99427 0.0
C1038 C 0.37671 0.52368 0.92155 0.0
N1039 N 0.3175 0.57027 0.92609 0.0
C1040 C 0.33008 0.58294 0.973 0.0
C1041 C 0.34053 0.5396 0.89998 0.0
C1042 C 0.38819 0.53517 0.96785 0.0
C1043 C 0.12024 0.60566 0.86695 0.0
N1044 N 0.13257 0.63349 0.90107 0.0
C1045 C 0.0848 0.58042 0.87448 0.0
C1046 C 0.06185 0.58397 0.9172 0.0
C1047 C 0.07415 0.61292 0.95146 0.0
C1048 C 0.10997 0.63735 0.94291 0.0
C1049 C 0.09676 0.76245 0.90978 0.0
C1050 C 0.17734 0.74327 0.93894 0.0
C1051 C 0.11734 0.72633 0.89337 0.0
N1052 N 0.15692 0.71685 0.90881 0.0
C1053 C 0.15827 0.7802 0.95424 0.0
C1054 C 0.11774 0.78988 0.93965 0.0
C1055 C 0.27669 0.68853 0.8873 0.0
C1056 C 0.27426 0.55233 0.7569 0.0
C1057 C 0.32016 0.60295 0.81723 0.0
C1058 C 0.33437 0.59656 0.77019 0.0
C1059 C 0.3113 0.57089 0.73998 0.0
N1060 N 0.28401 0.58423 0.83388 0.0
C1061 C 0.26103 0.55938 0.80418 0.0
Co1062 Co 0.32579 0.16808 0.89162 0.0
Co1063 Co 0.38994 0.25446 0.88727 0.0
O1064 O 0.37404 0.19941 0.87053 0.0
C1065 C 0.31935 0.18049 0.78762 0.0
O1066 O 0.32281 0.22015 0.79769 0.0
C1067 C 0.46912 0.20847 0.91221 0.0
O1068 O 0.44743 0.18045 0.93701 0.0
O1069 O 0.38322 0.23857 0.95819 0.0
O1070 O 0.33621 0.18453 0.96078 0.0
H1071 H 0.43607 0.37497 0.99088 0.0
H1072 H 0.38907 0.12831 0.82665 0.0
O1073 O 0.31545 0.15348 0.82187 0.0
H1074 H 0.40482 0.05559 0.98259 0.0
H1075 H 0.24993 0.03007 0.90122 0.0
H1076 H 0.24524 0.17915 0.94862 0.0
H1077 H 0.34874 0.10846 0.97128 0.0
H1078 H 0.30444 0.07926 0.87318 0.0
O1079 O 0.45071 0.23767 0.88865 0.0
H1080 H 0.40347 0.30637 0.97657 0.0
H1081 H 0.43325 0.32546 0.82863 0.0
H1082 H 0.18528 0.13195 0.96788 0.0
H1083 H 0.44419 0.07465 0.83617 0.0
H1084 H 0.1892 0.05672 0.94873 0.0
H1085 H 0.45297 0.03852 0.91497 0.0
O1086 O 0.28545 0.21833 0.88602 0.0
H1087 H 0.45348 0.24064 0.72124 0.0
H1088 H 0.34158 0.30812 0.81635 0.0
H1089 H 0.35008 0.32691 0.7313 0.0
H1090 H 0.40805 0.29579 0.68417 0.0
H1091 H 0.44294 0.22131 0.80614 0.0
H1092 H 0.44784 0.39821 0.84185 0.0
H1093 H 0.4478 0.42488 0.92493 0.0
O1094 O 0.3298 0.27341 0.88992 0.0
C1095 C 0.35994 0.21157 0.98146 0.0
C1096 C 0.42996 0.36509 0.95523 0.0
C1097 C 0.43719 0.37838 0.87143 0.0
N1098 N 0.40965 0.31176 0.90038 0.0
C1099 C 0.41281 0.32563 0.94634 0.0
C1100 C 0.42633 0.33667 0.86396 0.0
C1101 C 0.43765 0.39309 0.91778 0.0
C1102 C 0.39162 0.11189 0.86068 0.0
N1103 N 0.36537 0.12155 0.8983 0.0
C1104 C 0.42332 0.08181 0.86598 0.0
C1105 C 0.42832 0.06168 0.91022 0.0
C1106 C 0.40125 0.0713 0.94826 0.0
C1107 C 0.36965 0.10132 0.9416 0.0
C1108 C 0.24859 0.06273 0.91172 0.0
C1109 C 0.24618 0.14673 0.93742 0.0
C1110 C 0.27975 0.09083 0.8965 0.0
N1111 N 0.27926 0.13191 0.91093 0.0
C1112 C 0.21269 0.12009 0.94973 0.0
C1113 C 0.21459 0.07766 0.93828 0.0
C1114 C 0.29253 0.25806 0.88902 0.0
C1115 C 0.429 0.2558 0.74214 0.0
C1116 C 0.36644 0.29349 0.79628 0.0
C1117 C 0.37101 0.30422 0.7478 0.0
C1118 C 0.40328 0.28616 0.72108 0.0
N1119 N 0.39341 0.26559 0.8179 0.0
C1120 C 0.42315 0.24535 0.79065 0.0
Co1121 Co 0.8178 0.31758 0.89762 0.0
Co1122 Co 0.74756 0.3994 0.88872 0.0
O1123 O 0.8001 0.37202 0.87579 0.0
C1124 C 0.81058 0.31206 0.79068 0.0
O1125 O 0.77471 0.33187 0.79526 0.0
C1126 C 0.79188 0.47464 0.93193 0.0
O1127 O 0.79599 0.45561 0.97366 0.0
O1128 O 0.7526 0.38638 0.96022 0.0
O1129 O 0.80103 0.33342 0.96615 0.0
H1130 H 0.59342 0.40308 0.872 0.0
H1131 H 0.90389 0.29418 0.86391 0.0
O1132 O 0.83226 0.30288 0.828 0.0
H1133 H 0.9211 0.42455 0.95592 0.0
H1134 H 0.85684 0.16692 0.87334 0.0
H1135 H 0.86637 0.28781 0.98203 0.0
H1136 H 0.851 0.39318 0.94625 0.0
H1137 H 0.8157 0.23134 0.85796 0.0
O1138 O 0.77905 0.45474 0.89541 0.0
H1139 H 0.65426 0.37658 0.91749 0.0
H1140 H 0.70857 0.4457 0.89133 0.0
H1141 H 0.9078 0.22382 0.99906 0.0
H1142 H 0.97462 0.32471 0.87241 0.0
H1143 H 0.90366 0.16299 0.94415 0.0
H1144 H 0.98323 0.39025 0.91872 0.0
O1145 O 0.76101 0.29164 0.89071 0.0
H1146 H 0.79979 0.46297 0.73412 0.0
H1147 H 0.68297 0.38528 0.81173 0.0
H1148 H 0.67456 0.41323 0.72936 0.0
H1149 H 0.73219 0.45605 0.69245 0.0
H1150 H 0.80658 0.43544 0.81646 0.0
H1151 H 0.6576 0.51565 0.8356 0.0
H1152 H 0.59502 0.47114 0.83158 0.0
O1153 O 0.71531 0.34508 0.88257 0.0
C1154 C 0.77516 0.36023 0.9851 0.0
C1155 C 0.6205 0.42222 0.87602 0.0
C1156 C 0.65798 0.48504 0.8528 0.0
N1157 N 0.69388 0.43051 0.89662 0.0
C1158 C 0.65527 0.40744 0.90093 0.0
C1159 C 0.69428 0.47163 0.87623 0.0
C1160 C 0.62217 0.46024 0.85129 0.0
C1161 C 0.90747 0.32284 0.88396 0.0
N1162 N 0.87331 0.34172 0.90489 0.0
C1163 C 0.9476 0.33988 0.88876 0.0
C1164 C 0.95251 0.37664 0.91483 0.0
C1165 C 0.91757 0.39589 0.93573 0.0
C1166 C 0.87796 0.37787 0.93034 0.0
C1167 C 0.85907 0.19325 0.89749 0.0
C1168 C 0.8632 0.2609 0.95902 0.0
C1169 C 0.83552 0.22968 0.88922 0.0
N1170 N 0.83887 0.26338 0.91894 0.0
C1171 C 0.8871 0.22492 0.96851 0.0
C1172 C 0.88516 0.19099 0.93734 0.0
C1173 C 0.72369 0.30585 0.88637 0.0
C1174 C 0.77402 0.44588 0.7509 0.0
C1175 C 0.70858 0.4023 0.79497 0.0
C1176 C 0.7037 0.41793 0.74828 0.0
C1177 C 0.73624 0.44104 0.72697 0.0
N1178 N 0.74434 0.41061 0.81994 0.0
C1179 C 0.77753 0.43035 0.79764 0.0
Co1180 Co 0.67195 0.17173 0.12816 0.0
Co1181 Co 0.59014 0.24197 0.13706 0.0
O1182 O 0.61751 0.18944 0.14999 0.0
C1183 C 0.67747 0.17895 0.2351 0.0
O1184 O 0.65767 0.21483 0.23051 0.0
C1185 C 0.51489 0.19766 0.09384 0.0
O1186 O 0.53393 0.19354 0.05212 0.0
O1187 O 0.60315 0.23694 0.06555 0.0
O1188 O 0.65612 0.1885 0.05963 0.0
H1189 H 0.58646 0.39611 0.15377 0.0
H1190 H 0.69536 0.08564 0.16187 0.0
O1191 O 0.68666 0.15727 0.19778 0.0
H1192 H 0.56498 0.06843 0.06986 0.0
H1193 H 0.82262 0.13269 0.15243 0.0
H1194 H 0.70173 0.12317 0.04375 0.0
H1195 H 0.59636 0.13853 0.07952 0.0
H1196 H 0.7582 0.17384 0.16782 0.0
O1197 O 0.53479 0.21049 0.13037 0.0
H1198 H 0.61295 0.33527 0.10829 0.0
H1199 H 0.54383 0.28096 0.13445 0.0
H1200 H 0.76572 0.08174 0.02672 0.0
H1201 H 0.66483 0.01492 0.15337 0.0
H1202 H 0.82654 0.08588 0.08163 0.0
H1203 H 0.59929 0.0063 0.10706 0.0
O1204 O 0.69789 0.22853 0.13507 0.0
H1205 H 0.52656 0.18975 0.29166 0.0
H1206 H 0.60426 0.30657 0.21404 0.0
H1207 H 0.57631 0.31497 0.29642 0.0
H1208 H 0.53349 0.25735 0.33333 0.0
H1209 H 0.55409 0.18296 0.20932 0.0
H1210 H 0.47389 0.33193 0.19017 0.0
H1211 H 0.5184 0.39451 0.1942 0.0
O1212 O 0.64446 0.27423 0.14321 0.0
C1213 C 0.62931 0.21437 0.04068 0.0
C1214 C 0.56731 0.36903 0.14975 0.0
C1215 C 0.5045 0.33155 0.17298 0.0
N1216 N 0.55902 0.29566 0.12916 0.0
C1217 C 0.5821 0.33426 0.12485 0.0
C1218 C 0.5179 0.29526 0.14955 0.0
C1219 C 0.52929 0.36736 0.17448 0.0
C1220 C 0.66669 0.08207 0.14182 0.0
N1221 N 0.64782 0.11622 0.12089 0.0
C1222 C 0.64966 0.04193 0.13702 0.0
C1223 C 0.6129 0.03703 0.11095 0.0
C1224 C 0.59364 0.07196 0.09005 0.0
C1225 C 0.61167 0.11157 0.09544 0.0
C1226 C 0.79629 0.13046 0.12829 0.0
C1227 C 0.72864 0.12634 0.06676 0.0
C1228 C 0.75986 0.15402 0.13656 0.0
N1229 N 0.72615 0.15067 0.10683 0.0
C1230 C 0.76462 0.10244 0.05727 0.0
C1231 C 0.79854 0.10437 0.08844 0.0
C1232 C 0.68368 0.26584 0.13941 0.0
C1233 C 0.54366 0.21552 0.27487 0.0
C1234 C 0.58723 0.28096 0.2308 0.0
C1235 C 0.5716 0.28584 0.2775 0.0
C1236 C 0.5485 0.25329 0.2988 0.0
N1237 N 0.57893 0.2452 0.20584 0.0
C1238 C 0.55919 0.21201 0.22814 0.0
Co1239 Co 0.82146 0.66374 0.13416 0.0
Co1240 Co 0.73507 0.5996 0.13851 0.0
O1241 O 0.79013 0.61549 0.15525 0.0
C1242 C 0.80904 0.67019 0.23816 0.0
O1243 O 0.76939 0.66672 0.22809 0.0
C1244 C 0.78107 0.52041 0.11357 0.0
O1245 O 0.80908 0.5421 0.08876 0.0
O1246 O 0.75097 0.60631 0.06758 0.0
O1247 O 0.805 0.65333 0.065 0.0
H1248 H 0.61456 0.55346 0.0349 0.0
H1249 H 0.86123 0.60047 0.19913 0.0
O1250 O 0.83606 0.67409 0.20391 0.0
H1251 H 0.93394 0.58471 0.04319 0.0
H1252 H 0.95947 0.7396 0.12456 0.0
H1253 H 0.81039 0.7443 0.07716 0.0
H1254 H 0.88107 0.64079 0.0545 0.0
H1255 H 0.91027 0.6851 0.1526 0.0
O1256 O 0.75186 0.53883 0.13713 0.0
H1257 H 0.68316 0.58606 0.0492 0.0
H1258 H 0.66408 0.55629 0.19715 0.0
H1259 H 0.85758 0.80425 0.0579 0.0
H1260 H 0.91489 0.54534 0.18961 0.0
H1261 H 0.93282 0.80034 0.07704 0.0
H1262 H 0.95102 0.53657 0.11081 0.0
O1263 O 0.77121 0.70409 0.13976 0.0
H1264 H 0.7489 0.53605 0.30453 0.0
H1265 H 0.68141 0.64796 0.20943 0.0
H1266 H 0.66263 0.63946 0.29448 0.0
H1267 H 0.69374 0.58148 0.3416 0.0
H1268 H 0.76823 0.54659 0.21964 0.0
H1269 H 0.59132 0.54169 0.18393 0.0
H1270 H 0.56465 0.54173 0.10085 0.0
O1271 O 0.71613 0.65973 0.13585 0.0
C1272 C 0.77796 0.62959 0.04432 0.0
C1273 C 0.62444 0.55957 0.07055 0.0
C1274 C 0.61115 0.55234 0.15434 0.0
N1275 N 0.67777 0.57988 0.12539 0.0
C1276 C 0.66391 0.57672 0.07943 0.0
C1277 C 0.65286 0.56321 0.16181 0.0
C1278 C 0.59644 0.55189 0.108 0.0
C1279 C 0.87765 0.59792 0.1651 0.0
N1280 N 0.86798 0.62417 0.12747 0.0
C1281 C 0.90773 0.56622 0.1598 0.0
C1282 C 0.92786 0.56121 0.11556 0.0
C1283 C 0.91824 0.58828 0.07752 0.0
C1284 C 0.88821 0.61988 0.08417 0.0
C1285 C 0.92681 0.74095 0.11405 0.0
C1286 C 0.84281 0.74336 0.08836 0.0
C1287 C 0.8987 0.70979 0.12928 0.0
N1288 N 0.85762 0.71028 0.11485 0.0
C1289 C 0.86944 0.77685 0.07605 0.0
C1290 C 0.91187 0.77495 0.0875 0.0
C1291 C 0.73147 0.69701 0.13675 0.0
C1292 C 0.73374 0.56053 0.28363 0.0
C1293 C 0.69604 0.6231 0.2295 0.0
C1294 C 0.68531 0.61853 0.27798 0.0
C1295 C 0.70337 0.58625 0.30469 0.0
N1296 N 0.72394 0.59612 0.20788 0.0
C1297 C 0.74418 0.56639 0.23513 0.0
Co1298 Co 0.3247 0.80512 0.13442 0.0
Co1299 Co 0.39708 0.725 0.1255 0.0
O1300 O 0.37744 0.77803 0.15171 0.0
C1301 C 0.324 0.7982 0.24229 0.0
O1302 O 0.3444 0.76261 0.23811 0.0
C1303 C 0.47346 0.77931 0.10416 0.0
O1304 O 0.44992 0.80874 0.08475 0.0
O1305 O 0.3884 0.74677 0.05766 0.0
O1306 O 0.33413 0.79177 0.06391 0.0
H1307 H 0.42051 0.61864 0.99471 0.0
H1308 H 0.38734 0.8512 0.19165 0.0
O1309 O 0.3134 0.81931 0.20471 0.0
H1310 H 0.37329 0.93326 0.04128 0.0
H1311 H 0.22031 0.92482 0.12548 0.0
H1312 H 0.2537 0.78097 0.07433 0.0
H1313 H 0.33011 0.87001 0.05587 0.0
H1314 H 0.28422 0.88842 0.15616 0.0
O1315 O 0.4569 0.74644 0.12301 0.0
H1316 H 0.38287 0.67638 0.03299 0.0
H1317 H 0.42987 0.67389 0.12105 0.0
H1318 H 0.18802 0.81437 0.04931 0.0
H1319 H 0.43153 0.91404 0.17815 0.0
H1320 H 0.17116 0.887 0.07394 0.0
H1321 H 0.42537 0.95476 0.10187 0.0
O1322 O 0.29248 0.75165 0.14475 0.0
H1323 H 0.45683 0.73367 0.29219 0.0
H1324 H 0.36736 0.65075 0.18524 0.0
H1325 H 0.37834 0.62636 0.26835 0.0
H1326 H 0.42416 0.66745 0.3222 0.0
H1327 H 0.44415 0.75765 0.20915 0.0
H1328 H 0.48789 0.59347 0.12396 0.0
H1329 H 0.46786 0.57347 0.0419 0.0
O1330 O 0.33804 0.69987 0.12718 0.0
C1331 C 0.36084 0.77109 0.03869 0.0
C1332 C 0.4268 0.62598 0.03151 0.0
C1333 C 0.46585 0.61283 0.10422 0.0
N1334 N 0.41927 0.67203 0.09969 0.0
C1335 C 0.40659 0.65946 0.05278 0.0
C1336 C 0.44993 0.64901 0.1258 0.0
C1337 C 0.45437 0.60134 0.05793 0.0
C1338 C 0.38388 0.8693 0.15883 0.0
N1339 N 0.35605 0.85697 0.12471 0.0
C1340 C 0.40912 0.90474 0.15129 0.0
C1341 C 0.40557 0.92769 0.10857 0.0
C1342 C 0.37661 0.91538 0.07432 0.0
C1343 C 0.35218 0.87957 0.08287 0.0
C1344 C 0.22708 0.89277 0.116 0.0
C1345 C 0.24626 0.8122 0.08684 0.0
C1346 C 0.2632 0.8722 0.13241 0.0
N1347 N 0.27269 0.83261 0.11696 0.0
C1348 C 0.20933 0.83127 0.07154 0.0
C1349 C 0.19965 0.87179 0.08613 0.0
C1350 C 0.301 0.71284 0.13848 0.0
C1351 C 0.4372 0.71527 0.26887 0.0
C1352 C 0.38658 0.66938 0.20855 0.0
C1353 C 0.39298 0.65517 0.25559 0.0
C1354 C 0.41864 0.67823 0.28579 0.0
N1355 N 0.40531 0.70553 0.1919 0.0
C1356 C 0.43016 0.7285 0.2216 0.0
Co1357 Co 0.16895 0.31047 0.13551 0.0
Co1358 Co 0.23799 0.39432 0.12887 0.0
O1359 O 0.18853 0.36596 0.15451 0.0
C1360 C 0.19419 0.30396 0.23741 0.0
O1361 O 0.22733 0.32611 0.22533 0.0
C1362 C 0.18468 0.46989 0.09416 0.0
O1363 O 0.17123 0.45063 0.05579 0.0
O1364 O 0.22191 0.37854 0.06233 0.0
O1365 O 0.17185 0.32811 0.0656 0.0
H1366 H 0.38747 0.4483 0.12634 0.0
H1367 H 0.1213 0.35703 0.21036 0.0
O1368 O 0.16765 0.29307 0.20569 0.0
H1369 H 0.01992 0.33215 0.08098 0.0
H1370 H 0.08064 0.17965 0.15554 0.0
H1371 H 0.17996 0.25584 0.04957 0.0
H1372 H 0.09396 0.30983 0.07196 0.0
H1373 H 0.11233 0.24672 0.18174 0.0
O1374 O 0.20641 0.45002 0.12533 0.0
H1375 H 0.33411 0.39539 0.14408 0.0
H1376 H 0.25121 0.45283 0.04591 0.0
H1377 H 0.14299 0.19437 0.01998 0.0
H1378 H 0.04754 0.37913 0.22115 0.0
H1379 H 0.09407 0.15465 0.07322 0.0
H1380 H -0.00382 0.36599 0.15668 0.0
O1381 O 0.22701 0.28682 0.13017 0.0
H1382 H 0.20667 0.46464 0.28549 0.0
H1383 H 0.30607 0.37128 0.20508 0.0
H1384 H 0.32698 0.40517 0.27988 0.0
H1385 H 0.27751 0.45515 0.31933 0.0
H1386 H 0.19092 0.43725 0.20626 0.0
H1387 H 0.30448 0.50467 0.02391 0.0
H1388 H 0.3742 0.50267 0.06516 0.0
O1389 O 0.27268 0.34069 0.1321 0.0
C1390 C 0.19623 0.35318 0.04228 0.0
C1391 C 0.35739 0.44973 0.10899 0.0
C1392 C 0.31079 0.48197 0.05211 0.0
N1393 N 0.28662 0.42463 0.10229 0.0
C1394 C 0.32597 0.42088 0.12095 0.0
C1395 C 0.28014 0.4527 0.06546 0.0
C1396 C 0.34955 0.48084 0.07482 0.0
C1397 C 0.09923 0.35142 0.18191 0.0
N1398 N 0.11188 0.33173 0.14078 0.0
C1399 C 0.0575 0.36413 0.18819 0.0
C1400 C 0.0287 0.35688 0.15187 0.0
C1401 C 0.04202 0.33775 0.10951 0.0
C1402 C 0.08403 0.32538 0.10452 0.0
C1403 C 0.10155 0.19717 0.13201 0.0
C1404 C 0.15711 0.24051 0.07274 0.0
C1405 C 0.1204 0.23447 0.14692 0.0
N1406 N 0.14763 0.25584 0.1172 0.0
C1407 C 0.13654 0.20518 0.05571 0.0
C1408 C 0.10912 0.18295 0.08571 0.0
C1409 C 0.26441 0.30124 0.1301 0.0
C1410 C 0.2305 0.44766 0.26574 0.0
C1411 C 0.28678 0.39612 0.21889 0.0
C1412 C 0.29772 0.41361 0.26287 0.0
C1413 C 0.26987 0.44107 0.28537 0.0
N1414 N 0.25145 0.40923 0.19537 0.0
C1415 C 0.22191 0.4318 0.2205 0.0
Co1416 Co 0.32327 0.17663 0.1311 0.0
Co1417 Co 0.395 0.25671 0.12285 0.0
O1418 O 0.37329 0.20547 0.14967 0.0
C1419 C 0.31797 0.18623 0.23897 0.0
O1420 O 0.34106 0.22018 0.2355 0.0
C1421 C 0.4687 0.20052 0.09568 0.0
O1422 O 0.44606 0.18086 0.06388 0.0
O1423 O 0.38426 0.23871 0.0553 0.0
O1424 O 0.33591 0.18725 0.05974 0.0
H1425 H 0.44368 0.40845 0.12072 0.0
H1426 H 0.38437 0.13686 0.19719 0.0
O1427 O 0.30839 0.16563 0.20144 0.0
H1428 H 0.37666 0.04139 0.05935 0.0
H1429 H 0.22869 0.05113 0.1412 0.0
H1430 H 0.25225 0.18952 0.06324 0.0
H1431 H 0.33459 0.10681 0.06082 0.0
H1432 H 0.28743 0.09597 0.16538 0.0
O1433 O 0.45266 0.22963 0.12142 0.0
H1434 H 0.39179 0.35362 0.14027 0.0
H1435 H 0.45313 0.27044 0.04415 0.0
H1436 H 0.19098 0.14658 0.04176 0.0
H1437 H 0.4279 0.07277 0.19628 0.0
H1438 H 0.17901 0.07705 0.07929 0.0
H1439 H 0.42454 0.02483 0.12689 0.0
O1440 O 0.28999 0.23072 0.13314 0.0
H1441 H 0.46242 0.24835 0.28675 0.0
H1442 H 0.35377 0.31887 0.19193 0.0
H1443 H 0.36685 0.34197 0.27316 0.0
H1444 H 0.42305 0.30864 0.32071 0.0
H1445 H 0.45055 0.22697 0.20415 0.0
H1446 H 0.50296 0.323 0.0229 0.0
H1447 H 0.50053 0.39418 0.06257 0.0
O1448 O 0.33727 0.2835 0.12285 0.0
C1449 C 0.36001 0.2123 0.03544 0.0
C1450 C 0.44511 0.37834 0.10335 0.0
C1451 C 0.47961 0.33089 0.04928 0.0
N1452 N 0.42076 0.30729 0.0963 0.0
C1453 C 0.41622 0.34659 0.11506 0.0
C1454 C 0.45029 0.30052 0.06135 0.0
C1455 C 0.47756 0.37011 0.07093 0.0
C1456 C 0.38261 0.11614 0.16678 0.0
N1457 N 0.35678 0.12551 0.12919 0.0
C1458 C 0.40741 0.0799 0.16647 0.0
C1459 C 0.40547 0.05298 0.12747 0.0
C1460 C 0.37893 0.06254 0.08935 0.0
C1461 C 0.35511 0.0995 0.09048 0.0
C1462 C 0.23304 0.08178 0.12458 0.0
C1463 C 0.24678 0.15952 0.08091 0.0
C1464 C 0.26645 0.10731 0.13781 0.0
N1465 N 0.27362 0.14512 0.11505 0.0
C1466 C 0.21219 0.13533 0.06827 0.0
C1467 C 0.20546 0.09615 0.08972 0.0
C1468 C 0.29946 0.26997 0.12862 0.0
C1469 C 0.44011 0.26531 0.26494 0.0
C1470 C 0.37937 0.30444 0.21066 0.0
C1471 C 0.38613 0.31753 0.25758 0.0
C1472 C 0.41735 0.29841 0.28449 0.0
N1473 N 0.40441 0.27452 0.18954 0.0
C1474 C 0.43324 0.25365 0.2174 0.0
Co1475 Co 0.80591 0.32475 0.13451 0.0
Co1476 Co 0.72594 0.39664 0.12578 0.0
O1477 O 0.77902 0.37753 0.15222 0.0
C1478 C 0.79854 0.32419 0.24216 0.0
O1479 O 0.76237 0.34331 0.23714 0.0
C1480 C 0.77908 0.47431 0.11011 0.0
O1481 O 0.80841 0.45285 0.08755 0.0
O1482 O 0.74886 0.38999 0.05841 0.0
O1483 O 0.79161 0.33396 0.06398 0.0
H1484 H 0.6219 0.41893 0.99229 0.0
H1485 H 0.85316 0.38698 0.19117 0.0
O1486 O 0.82044 0.31385 0.20495 0.0
H1487 H 0.93318 0.37288 0.03935 0.0
H1488 H 0.92402 0.21827 0.12627 0.0
H1489 H 0.78072 0.25384 0.07463 0.0
H1490 H 0.86965 0.3303 0.05478 0.0
H1491 H 0.88909 0.28416 0.15449 0.0
O1492 O 0.74612 0.45635 0.1265 0.0
H1493 H 0.68029 0.38316 0.03106 0.0
H1494 H 0.67415 0.42829 0.1205 0.0
H1495 H 0.81298 0.18746 0.0501 0.0
H1496 H 0.91657 0.43024 0.17717 0.0
H1497 H 0.88528 0.16945 0.07515 0.0
H1498 H 0.9567 0.42373 0.1005 0.0
O1499 O 0.75285 0.29257 0.14584 0.0
H1500 H 0.72999 0.45482 0.29359 0.0
H1501 H 0.65224 0.36332 0.18405 0.0
H1502 H 0.62538 0.3738 0.26627 0.0
H1503 H 0.66379 0.42071 0.32136 0.0
H1504 H 0.75623 0.44291 0.21143 0.0
H1505 H 0.58605 0.4733 0.12606 0.0
H1506 H 0.57205 0.46126 0.04092 0.0
O1507 O 0.70194 0.33775 0.12492 0.0
C1508 C 0.77165 0.36148 0.03904 0.0
C1509 C 0.62741 0.42378 0.02994 0.0
C1510 C 0.60951 0.45789 0.10424 0.0
N1511 N 0.67286 0.41761 0.0989 0.0
C1512 C 0.66169 0.40517 0.05143 0.0
C1513 C 0.6466 0.44459 0.12601 0.0
C1514 C 0.60053 0.44898 0.05674 0.0
C1515 C 0.87079 0.38352 0.15803 0.0
N1516 N 0.85773 0.35601 0.12394 0.0
C1517 C 0.90653 0.40829 0.15017 0.0
C1518 C 0.92898 0.4047 0.1071 0.0
C1519 C 0.91577 0.37623 0.07273 0.0
C1520 C 0.87976 0.35217 0.0817 0.0
C1521 C 0.89223 0.22584 0.11618 0.0
C1522 C 0.81192 0.24611 0.08698 0.0
C1523 C 0.87247 0.26279 0.13163 0.0
N1524 N 0.8329 0.27256 0.1166 0.0
C1525 C 0.83031 0.20869 0.07208 0.0
C1526 C 0.87067 0.19842 0.0868 0.0
C1527 C 0.71444 0.30107 0.13768 0.0
C1528 C 0.71261 0.43484 0.26964 0.0
C1529 C 0.66959 0.38314 0.20783 0.0
C1530 C 0.65409 0.38914 0.25442 0.0
C1531 C 0.67564 0.41543 0.28533 0.0
N1532 N 0.70533 0.40314 0.1921 0.0
C1533 C 0.72709 0.42826 0.22275 0.0
Co1534 Co 0.66771 0.82106 0.13411 0.0
Co1535 Co 0.60309 0.7365 0.11567 0.0
O1536 O 0.6164 0.78719 0.14989 0.0
C1537 C 0.66929 0.80774 0.23889 0.0
O1538 O 0.65661 0.76911 0.23166 0.0
C1539 C 0.51991 0.78193 0.10191 0.0
O1540 O 0.53893 0.81607 0.08607 0.0
O1541 O 0.6097 0.76722 0.05499 0.0
O1542 O 0.66452 0.81016 0.06189 0.0
H1543 H 0.64178 0.64705 0.97813 0.0
H1544 H 0.59761 0.8567 0.19202 0.0
O1545 O 0.67392 0.83348 0.20401 0.0
H1546 H 0.60035 0.93946 0.04109 0.0
H1547 H 0.7514 0.95245 0.15787 0.0
H1548 H 0.75178 0.81199 0.084 0.0
H1549 H 0.6557 0.88715 0.05781 0.0
H1550 H 0.6893 0.90702 0.16403 0.0
O1551 O 0.541 0.74943 0.11405 0.0
H1552 H 0.65038 0.70297 0.03616 0.0
H1553 H 0.53935 0.66514 0.11138 0.0
H1554 H 0.81657 0.85566 0.0823 0.0
H1555 H 0.54224 0.90945 0.1772 0.0
H1556 H 0.81614 0.9262 0.11765 0.0
H1557 H 0.54248 0.9501 0.10053 0.0
O1558 O 0.70676 0.77027 0.14246 0.0
H1559 H 0.53944 0.72241 0.28002 0.0
H1560 H 0.62213 0.64979 0.15493 0.0
H1561 H 0.60119 0.61132 0.22946 0.0
H1562 H 0.56018 0.6478 0.29256 0.0
H1563 H 0.5595 0.75905 0.20491 0.0
H1564 H 0.53411 0.60415 0.05538 0.0
H1565 H 0.58154 0.59841 0.9874 0.0
O1566 O 0.66331 0.71929 0.11935 0.0
C1567 C 0.63665 0.79178 0.03674 0.0
C1568 C 0.61918 0.65073 1.00715 0.0
C1569 C 0.55747 0.62786 0.05047 0.0
N1570 N 0.59484 0.68766 0.07692 0.0
C1571 C 0.62378 0.68217 0.04054 0.0
C1572 C 0.56168 0.66108 0.08226 0.0
C1573 C 0.58529 0.62394 1.012 0.0
C1574 C 0.59876 0.87523 0.15923 0.0
N1575 N 0.62967 0.86845 0.12564 0.0
C1576 C 0.56707 0.90479 0.15086 0.0
C1577 C 0.56719 0.92752 0.10778 0.0
C1578 C 0.5996 0.9215 0.07438 0.0
C1579 C 0.63088 0.89183 0.08409 0.0
C1580 C 0.75183 0.92171 0.14157 0.0
C1581 C 0.7515 0.84275 0.10018 0.0
C1582 C 0.71641 0.89595 0.1441 0.0
N1583 N 0.71627 0.85714 0.12313 0.0
C1584 C 0.78813 0.8672 0.09877 0.0
C1585 C 0.78806 0.907 0.11903 0.0
C1586 C 0.69944 0.7317 0.13234 0.0
C1587 C 0.55776 0.70619 0.25297 0.0
C1588 C 0.60413 0.66576 0.18237 0.0
C1589 C 0.59232 0.64385 0.22428 0.0
C1590 C 0.56924 0.66434 0.25985 0.0
N1591 N 0.59247 0.70669 0.17578 0.0
C1592 C 0.5695 0.72686 0.21042 0.0
Co1593 Co 0.17044 0.67324 0.12779 0.0
Co1594 Co 0.23773 0.58943 0.1379 0.0
O1595 O 0.18559 0.61789 0.14879 0.0
C1596 C 0.17825 0.67784 0.23477 0.0
O1597 O 0.21441 0.65881 0.22937 0.0
C1598 C 0.18801 0.51651 0.09417 0.0
O1599 O 0.18212 0.5376 0.05404 0.0
O1600 O 0.23472 0.60266 0.06626 0.0
O1601 O 0.18766 0.65704 0.05929 0.0
H1602 H 0.39223 0.58949 0.1261 0.0
H1603 H 0.08544 0.69939 0.16231 0.0
O1604 O 0.15628 0.68753 0.19776 0.0
H1605 H 0.06221 0.57265 0.06578 0.0
H1606 H 0.13588 0.82429 0.15517 0.0
H1607 H 0.12315 0.70568 0.04367 0.0
H1608 H 0.13374 0.60042 0.07659 0.0
H1609 H 0.17576 0.75877 0.16865 0.0
O1610 O 0.20596 0.53389 0.12983 0.0
H1611 H 0.32393 0.60832 0.09236 0.0
H1612 H 0.27727 0.54353 0.14248 0.0
H1613 H 0.08233 0.77058 0.02906 0.0
H1614 H 0.01335 0.67285 0.15228 0.0
H1615 H 0.08815 0.83025 0.08533 0.0
H1616 H 0.00149 0.60934 0.10337 0.0
O1617 O 0.22804 0.69744 0.1351 0.0
H1618 H 0.17579 0.53428 0.29205 0.0
H1619 H 0.30087 0.6007 0.21736 0.0
H1620 H 0.30418 0.57468 0.30129 0.0
H1621 H 0.242 0.5372 0.33684 0.0
H1622 H 0.17486 0.55741 0.20766 0.0
H1623 H 0.33821 0.48657 0.20393 0.0
H1624 H 0.39909 0.53165 0.18468 0.0
O1625 O 0.27188 0.64303 0.14509 0.0
C1626 C 0.21351 0.62968 0.04094 0.0
C1627 C 0.36553 0.57094 0.13514 0.0
C1628 C 0.3342 0.51363 0.1805 0.0
N1629 N 0.2908 0.55808 0.13158 0.0
C1630 C 0.32699 0.58087 0.11537 0.0
C1631 C 0.29469 0.52129 0.16063 0.0
C1632 C 0.36888 0.53862 0.16889 0.0
C1633 C 0.08059 0.67144 0.14135 0.0
N1634 N 0.11391 0.65149 0.11991 0.0
C1635 C 0.03964 0.65668 0.13565 0.0
C1636 C 0.03297 0.62101 0.10821 0.0
C1637 C 0.06706 0.6005 0.08701 0.0
C1638 C 0.10753 0.61638 0.09317 0.0
C1639 C 0.13286 0.79844 0.13048 0.0
C1640 C 0.12698 0.73209 0.06731 0.0
C1641 C 0.15579 0.76145 0.13758 0.0
N1642 N 0.1515 0.72837 0.10712 0.0
C1643 C 0.10347 0.76859 0.05916 0.0
C1644 C 0.10629 0.80185 0.09114 0.0
C1645 C 0.26494 0.68247 0.14025 0.0
C1646 C 0.20353 0.54843 0.27579 0.0
C1647 C 0.27349 0.58599 0.23361 0.0
C1648 C 0.27555 0.5713 0.28102 0.0
C1649 C 0.24065 0.55109 0.30139 0.0
N1650 N 0.23838 0.57878 0.20697 0.0
C1651 C 0.2032 0.56174 0.22807 0.0
Co1652 Co 0.31629 0.8191 0.89799 0.0
Co1653 Co 0.40011 0.75181 0.88788 0.0
O1654 O 0.37165 0.80395 0.87698 0.0
C1655 C 0.31169 0.81128 0.79101 0.0
O1656 O 0.33072 0.77513 0.79641 0.0
C1657 C 0.47302 0.80153 0.9316 0.0
O1658 O 0.45193 0.80742 0.97173 0.0
O1659 O 0.38688 0.75482 0.95951 0.0
O1660 O 0.3325 0.80187 0.96648 0.0
H1661 H 0.40004 0.5973 0.89968 0.0
H1662 H 0.29014 0.90409 0.86346 0.0
O1663 O 0.302 0.83325 0.82801 0.0
H1664 H 0.41689 0.92733 0.96 0.0
H1665 H 0.16525 0.85365 0.8706 0.0
H1666 H 0.28386 0.86638 0.98211 0.0
H1667 H 0.38912 0.85579 0.94918 0.0
H1668 H 0.23076 0.81378 0.85713 0.0
O1669 O 0.45564 0.78358 0.89595 0.0
H1670 H 0.38121 0.6656 0.93342 0.0
H1671 H 0.446 0.71226 0.88329 0.0
H1672 H 0.21896 0.9072 0.99671 0.0
H1673 H 0.31669 0.97619 0.8735 0.0
H1674 H 0.15928 0.90138 0.94045 0.0
H1675 H 0.3802 0.98804 0.9224 0.0
O1676 O 0.29209 0.76149 0.89067 0.0
H1677 H 0.45526 0.81375 0.73373 0.0
H1678 H 0.38884 0.68867 0.80841 0.0
H1679 H 0.41486 0.68536 0.72449 0.0
H1680 H 0.45233 0.74753 0.68894 0.0
H1681 H 0.43212 0.81468 0.81812 0.0
H1682 H 0.50296 0.65132 0.82185 0.0
H1683 H 0.45789 0.59045 0.8411 0.0
O1684 O 0.3465 0.71765 0.88068 0.0
C1685 C 0.35985 0.77603 0.98484 0.0
C1686 C 0.41859 0.62401 0.89063 0.0
C1687 C 0.4759 0.65534 0.84527 0.0
N1688 N 0.43145 0.69874 0.8942 0.0
C1689 C 0.40866 0.66254 0.9104 0.0
C1690 C 0.46824 0.69485 0.86514 0.0
C1691 C 0.45091 0.62065 0.85689 0.0
C1692 C 0.31809 0.90894 0.88442 0.0
N1693 N 0.33804 0.87563 0.90586 0.0
C1694 C 0.33285 0.94989 0.89012 0.0
C1695 C 0.36852 0.95657 0.91757 0.0
C1696 C 0.38903 0.92247 0.93877 0.0
C1697 C 0.37315 0.882 0.93261 0.0
C1698 C 0.19109 0.85667 0.89529 0.0
C1699 C 0.25744 0.86256 0.95846 0.0
C1700 C 0.22809 0.83374 0.88819 0.0
N1701 N 0.26116 0.83804 0.91865 0.0
C1702 C 0.22094 0.88607 0.96662 0.0
C1703 C 0.18768 0.88324 0.93463 0.0
C1704 C 0.30706 0.72459 0.88553 0.0
C1705 C 0.4411 0.78601 0.74998 0.0
C1706 C 0.40355 0.71605 0.79216 0.0
C1707 C 0.41823 0.71398 0.74476 0.0
C1708 C 0.43844 0.74888 0.72438 0.0
N1709 N 0.41076 0.75115 0.81881 0.0
C1710 C 0.4278 0.78633 0.79771 0.0
Co1711 Co 0.16847 0.32183 0.89166 0.0
Co1712 Co 0.25303 0.38645 0.91011 0.0
O1713 O 0.20234 0.37313 0.87589 0.0
C1714 C 0.1818 0.32025 0.78689 0.0
O1715 O 0.22042 0.33292 0.79412 0.0
C1716 C 0.20761 0.46962 0.92386 0.0
O1717 O 0.17347 0.45061 0.9397 0.0
O1718 O 0.22232 0.37984 0.97079 0.0
O1719 O 0.17937 0.32501 0.96389 0.0
H1720 H 0.34248 0.34776 0.04765 0.0
H1721 H 0.13283 0.39192 0.83376 0.0
O1722 O 0.15606 0.31561 0.82177 0.0
H1723 H 0.05008 0.38918 0.98468 0.0
H1724 H 0.03708 0.23814 0.86791 0.0
H1725 H 0.17754 0.23775 0.94178 0.0
H1726 H 0.10239 0.33383 0.96796 0.0
H1727 H 0.08251 0.30023 0.86175 0.0
O1728 O 0.24011 0.44854 0.91173 0.0
H1729 H 0.28656 0.33916 0.98961 0.0
H1730 H 0.3244 0.45018 0.9144 0.0
H1731 H 0.13387 0.17297 0.94348 0.0
H1732 H 0.08009 0.4473 0.84858 0.0
H1733 H 0.06334 0.17339 0.90813 0.0
H1734 H 0.03943 0.44706 0.92525 0.0
O1735 O 0.21926 0.28277 0.88331 0.0
H1736 H 0.26713 0.45009 0.74575 0.0
H1737 H 0.33974 0.36741 0.87085 0.0
H1738 H 0.37822 0.38835 0.79632 0.0
H1739 H 0.34174 0.42936 0.73321 0.0
H1740 H 0.23048 0.43003 0.82087 0.0
H1741 H 0.38538 0.45542 0.9704 0.0
H1742 H 0.39112 0.40799 0.03838 0.0
O1743 O 0.27024 0.32622 0.90643 0.0
C1744 C 0.19775 0.35288 0.98903 0.0
C1745 C 0.33881 0.37035 0.01862 0.0
C1746 C 0.36167 0.43206 0.97531 0.0
N1747 N 0.30188 0.39469 0.94885 0.0
C1748 C 0.30736 0.36575 0.98524 0.0
C1749 C 0.32846 0.42786 0.94351 0.0
C1750 C 0.36559 0.40424 0.01378 0.0
C1751 C 0.1143 0.39078 0.86654 0.0
N1752 N 0.12108 0.35987 0.90014 0.0
C1753 C 0.08475 0.42246 0.87492 0.0
C1754 C 0.06202 0.42235 0.918 0.0
C1755 C 0.06803 0.38994 0.95139 0.0
C1756 C 0.0977 0.35865 0.94169 0.0
C1757 C 0.06783 0.2377 0.88421 0.0
C1758 C 0.14678 0.23803 0.9256 0.0
C1759 C 0.09358 0.27313 0.88167 0.0
N1760 N 0.1324 0.27327 0.90264 0.0
C1761 C 0.12233 0.20141 0.92701 0.0
C1762 C 0.08254 0.20147 0.90675 0.0
C1763 C 0.25784 0.2901 0.89344 0.0
C1764 C 0.28334 0.43178 0.7728 0.0
C1765 C 0.32378 0.3854 0.84341 0.0
C1766 C 0.34569 0.39722 0.8015 0.0
C1767 C 0.3252 0.42029 0.76592 0.0
N1768 N 0.28284 0.39707 0.85 0.0
C1769 C 0.26267 0.42003 0.81535 0.0
Co1770 Co 0.66478 0.18363 0.89127 0.0
Co1771 Co 0.59289 0.26359 0.9 0.0
O1772 O 0.612 0.21051 0.87356 0.0
C1773 C 0.66535 0.19099 0.78362 0.0
O1774 O 0.64622 0.22717 0.78863 0.0
C1775 C 0.51523 0.21045 0.91567 0.0
O1776 O 0.53669 0.18113 0.93823 0.0
O1777 O 0.59954 0.24068 0.96737 0.0
O1778 O 0.65558 0.19792 0.9618 0.0
H1779 H 0.57061 0.36763 0.03349 0.0
H1780 H 0.60256 0.13637 0.8346 0.0
O1781 O 0.67569 0.1691 0.82083 0.0
H1782 H 0.61666 0.05635 0.98643 0.0
H1783 H 0.77127 0.06552 0.8995 0.0
H1784 H 0.73569 0.20881 0.95115 0.0
H1785 H 0.65923 0.11988 0.97099 0.0
H1786 H 0.70537 0.10044 0.87128 0.0
O1787 O 0.53318 0.24341 0.89928 0.0
H1788 H 0.60638 0.30924 0.99471 0.0
H1789 H 0.56124 0.31539 0.90528 0.0
H1790 H 0.80207 0.17655 0.97567 0.0
H1791 H 0.55929 0.07297 0.84861 0.0
H1792 H 0.82009 0.10425 0.95063 0.0
H1793 H 0.56581 0.03284 0.92527 0.0
O1794 O 0.69697 0.23669 0.87993 0.0
H1795 H 0.53471 0.25955 0.73219 0.0
H1796 H 0.62621 0.3373 0.84173 0.0
H1797 H 0.61573 0.36415 0.7595 0.0
H1798 H 0.56882 0.32574 0.70442 0.0
H1799 H 0.54662 0.2333 0.81435 0.0
H1800 H 0.51624 0.40349 0.89972 0.0
H1801 H 0.52828 0.41749 0.98486 0.0
O1802 O 0.65179 0.28759 0.90085 0.0
C1803 C 0.62805 0.21788 0.98673 0.0
C1804 C 0.56576 0.36213 0.99584 0.0
C1805 C 0.53164 0.38002 0.92154 0.0
N1806 N 0.57192 0.31667 0.92688 0.0
C1807 C 0.58436 0.32785 0.97435 0.0
C1808 C 0.54494 0.34294 0.89976 0.0
C1809 C 0.54056 0.38901 0.96904 0.0
C1810 C 0.60601 0.11874 0.86775 0.0
N1811 N 0.63353 0.1318 0.90183 0.0
C1812 C 0.58124 0.083 0.87561 0.0
C1813 C 0.58484 0.06055 0.91868 0.0
C1814 C 0.61331 0.07377 0.95305 0.0
C1815 C 0.63737 0.10978 0.94407 0.0
C1816 C 0.76369 0.0973 0.9096 0.0
C1817 C 0.74343 0.17761 0.9388 0.0
C1818 C 0.72675 0.11706 0.89415 0.0
N1819 N 0.71697 0.15664 0.90917 0.0
C1820 C 0.78084 0.15922 0.9537 0.0
C1821 C 0.79111 0.11887 0.93897 0.0
C1822 C 0.68846 0.2751 0.8881 0.0
C1823 C 0.55469 0.27692 0.75614 0.0
C1824 C 0.60639 0.31994 0.81795 0.0
C1825 C 0.60039 0.33545 0.77136 0.0
C1826 C 0.57411 0.31389 0.74044 0.0
N1827 N 0.58639 0.28421 0.83368 0.0
C1828 C 0.56127 0.26245 0.80303 0.0
Co1829 Co 0.8129 0.66626 0.89468 0.0
Co1830 Co 0.73282 0.59453 0.90293 0.0
O1831 O 0.78406 0.61625 0.87611 0.0
C1832 C 0.80331 0.67156 0.7868 0.0
O1833 O 0.76935 0.64848 0.79027 0.0
C1834 C 0.78901 0.52084 0.9301 0.0
O1835 O 0.80868 0.54348 0.96189 0.0
O1836 O 0.75082 0.60527 0.97048 0.0
O1837 O 0.80228 0.65363 0.96603 0.0
H1838 H 0.58108 0.54585 0.90506 0.0
H1839 H 0.85268 0.60516 0.82859 0.0
O1840 O 0.8239 0.68115 0.82434 0.0
H1841 H 0.94814 0.61288 0.96643 0.0
H1842 H 0.9384 0.76084 0.88458 0.0
H1843 H 0.80001 0.73729 0.96254 0.0
H1844 H 0.88273 0.65495 0.96496 0.0
H1845 H 0.89357 0.70211 0.8604 0.0
O1846 O 0.7599 0.53688 0.90436 0.0
H1847 H 0.63591 0.59774 0.88551 0.0
H1848 H 0.71909 0.5364 0.98163 0.0
H1849 H 0.84296 0.79855 0.98402 0.0
H1850 H 0.91676 0.56163 0.8295 0.0
H1851 H 0.91249 0.81053 0.94649 0.0
H1852 H 0.9647 0.565 0.89889 0.0
O1853 O 0.75881 0.69955 0.89263 0.0
H1854 H 0.74118 0.52712 0.73903 0.0
H1855 H 0.67066 0.63577 0.83385 0.0
H1856 H 0.64756 0.62268 0.75262 0.0
H1857 H 0.68089 0.56648 0.70507 0.0
H1858 H 0.76256 0.53899 0.82163 0.0
H1859 H 0.66653 0.48658 1.00287 0.0
H1860 H 0.59536 0.489 0.96321 0.0
O1861 O 0.70603 0.65226 0.90293 0.0
C1862 C 0.77724 0.62952 0.99034 0.0
C1863 C 0.61119 0.54443 0.92243 0.0
C1864 C 0.65864 0.50993 0.97649 0.0
N1865 N 0.68225 0.56877 0.92948 0.0
C1866 C 0.64295 0.57331 0.91072 0.0
C1867 C 0.68902 0.53924 0.96442 0.0
C1868 C 0.61942 0.51198 0.95485 0.0
C1869 C 0.87339 0.60693 0.85899 0.0
N1870 N 0.86403 0.63275 0.89659 0.0
C1871 C 0.90963 0.58213 0.85931 0.0
C1872 C 0.93656 0.58406 0.89831 0.0
C1873 C 0.92699 0.61061 0.93643 0.0
C1874 C 0.89003 0.63442 0.9353 0.0
C1875 C 0.90776 0.7565 0.90119 0.0
C1876 C 0.83002 0.74275 0.94487 0.0
C1877 C 0.88223 0.72309 0.88797 0.0
N1878 N 0.84442 0.71592 0.91072 0.0
C1879 C 0.85421 0.77734 0.9575 0.0
C1880 C 0.89339 0.78407 0.93606 0.0
C1881 C 0.71956 0.69008 0.89716 0.0
C1882 C 0.72423 0.54942 0.76083 0.0
C1883 C 0.6851 0.61016 0.81512 0.0
C1884 C 0.67201 0.60341 0.7682 0.0
C1885 C 0.69113 0.57219 0.74129 0.0
N1886 N 0.71502 0.58513 0.83624 0.0
C1887 C 0.73588 0.55629 0.80838 0.0
loop_
_geom_bond_atom_site_label_1
_geom_bond_atom_site_label_2
_geom_bond_distance
_geom_bond_site_symmetry_2
_ccdc_geom_bond_type
Co0 O2 2.143 . S
Co0 O8 2.074 . S
Co0 O11 2.093 . S
Co0 O24 2.097 . S
Co0 N41 2.151 . S
Co0 N49 2.214 . S
Co1 O2 2.160 . S
Co1 O7 2.058 . S
Co1 O17 2.057 . S
Co1 O32 2.037 . S
Co1 N36 2.145 . S
Co1 N57 2.257 . S
O2 Co0 2.143 . S
O2 Co1 2.160 . S
C3 O4 1.278 . S
C3 O11 1.224 . S
O4 C3 1.278 . S
C5 O6 1.245 . S
C5 O17 1.232 . S
O6 C5 1.245 . S
O7 Co1 2.058 . S
O7 C33 1.269 . S
O8 Co0 2.074 . S
O8 C33 1.257 . S
H9 C34 0.930 . S
H10 C40 0.930 . S
O11 Co0 2.093 . S
O11 C3 1.224 . S
H12 C44 0.929 . S
H13 C46 0.930 . S
H14 C47 0.930 . S
H15 C45 0.929 . S
H16 C48 0.928 . S
O17 Co1 2.057 . S
O17 C5 1.232 . S
H18 C37 0.929 . S
H19 C38 0.929 . S
H20 C50 0.931 . S
H21 C42 0.929 . S
H22 C51 0.930 . S
H23 C43 0.931 . S
O24 Co0 2.097 . S
O24 C52 1.214 . S
H25 C53 0.929 . S
H26 C54 0.929 . S
H27 C55 0.930 . S
H28 C56 0.929 . S
H29 C58 0.930 . S
H30 C35 0.930 1_655 S
H31 C39 0.930 . S
O32 Co1 2.037 . S
O32 C52 1.234 . S
C33 O7 1.269 . S
C33 O8 1.257 . S
C34 H9 0.930 . S
C34 C37 1.388 . S
C34 C39 1.418 . S
C35 H30 0.930 1_455 S
C35 C38 1.404 . S
C35 C39 1.353 . S
N36 Co1 2.145 . S
N36 C37 1.397 . S
N36 C38 1.334 . S
C37 H18 0.929 . S
C37 C34 1.388 . S
C37 N36 1.397 . S
C38 H19 0.929 . S
C38 C35 1.404 . S
C38 N36 1.334 . S
C39 H31 0.930 . S
C39 C34 1.418 . S
C39 C35 1.353 . S
C40 H10 0.930 . S
C40 N41 1.330 . S
C40 C42 1.446 . S
N41 Co0 2.151 . S
N41 C40 1.330 . S
N41 C45 1.418 . S
C42 H21 0.929 . S
C42 C40 1.446 . S
C42 C43 1.332 . S
C43 H23 0.931 . S
C43 C42 1.332 . S
C43 C44 1.267 . S
C44 H12 0.929 . S
C44 C43 1.267 . S
C44 C45 1.251 . S
C45 H15 0.929 . S
C45 N41 1.418 . S
C45 C44 1.251 . S
C46 H13 0.930 . S
C46 C48 1.406 . S
C46 C51 1.261 . S
C47 H14 0.930 . S
C47 N49 1.325 . S
C47 C50 1.357 . S
C48 H16 0.928 . S
C48 C46 1.406 . S
C48 N49 1.261 . S
N49 Co0 2.214 . S
N49 C47 1.325 . S
N49 C48 1.261 . S
C50 H20 0.931 . S
C50 C47 1.357 . S
C50 C51 1.312 . S
C51 H22 0.930 . S
C51 C46 1.261 . S
C51 C50 1.312 . S
C52 O24 1.214 . S
C52 O32 1.234 . S
C53 H25 0.929 . S
C53 C56 1.391 . S
C53 C58 1.391 . S
C54 H26 0.929 . S
C54 C55 1.390 . S
C54 N57 1.391 . S
C55 H27 0.930 . S
C55 C54 1.390 . S
C55 C56 1.392 . S
C56 H28 0.929 . S
C56 C53 1.391 . S
C56 C55 1.392 . S
N57 Co1 2.257 . S
N57 C54 1.391 . S
N57 C58 1.388 . S
C58 H29 0.930 . S
C58 C53 1.391 . S
C58 N57 1.388 . S
Co59 O61 2.143 . S
Co59 O67 2.074 . S
Co59 O70 2.093 . S
Co59 O83 2.097 . S
Co59 N100 2.151 . S
Co59 N108 2.214 . S
Co60 O61 2.160 . S
Co60 O66 2.058 . S
Co60 O76 2.057 . S
Co60 O91 2.037 . S
Co60 N95 2.145 . S
Co60 N116 2.257 . S
O61 Co59 2.143 . S
O61 Co60 2.160 . S
C62 O63 1.278 . S
C62 O70 1.224 . S
O63 C62 1.278 . S
C64 O65 1.245 . S
C64 O76 1.232 . S
O65 C64 1.245 . S
O66 Co60 2.058 . S
O66 C92 1.269 . S
O67 Co59 2.074 . S
O67 C92 1.257 . S
H68 C93 0.930 . S
H69 C99 0.930 . S
O70 Co59 2.093 . S
O70 C62 1.224 . S
H71 C103 0.929 . S
H72 C105 0.930 . S
H73 C106 0.930 . S
H74 C104 0.929 . S
H75 C107 0.928 . S
O76 Co60 2.057 . S
O76 C64 1.232 . S
H77 C96 0.929 . S
H78 C97 0.929 . S
H79 C109 0.931 . S
H80 C101 0.929 . S
H81 C110 0.930 . S
H82 C102 0.931 . S
O83 Co59 2.097 . S
O83 C111 1.214 . S
H84 C112 0.929 . S
H85 C113 0.929 . S
H86 C114 0.930 . S
H87 C115 0.929 . S
H88 C117 0.930 . S
H89 C94 0.930 1_565 S
H90 C98 0.930 . S
O91 Co60 2.037 . S
O91 C111 1.234 . S
C92 O66 1.269 . S
C92 O67 1.257 . S
C93 H68 0.930 . S
C93 C96 1.388 . S
C93 C98 1.418 . S
C94 H89 0.930 1_545 S
C94 C97 1.404 . S
C94 C98 1.353 . S
N95 Co60 2.145 . S
N95 C96 1.397 . S
N95 C97 1.334 . S
C96 H77 0.929 . S
C96 C93 1.388 . S
C96 N95 1.397 . S
C97 H78 0.929 . S
C97 C94 1.404 . S
C97 N95 1.334 . S
C98 H90 0.930 . S
C98 C93 1.418 . S
C98 C94 1.353 . S
C99 H69 0.930 . S
C99 N100 1.330 . S
C99 C101 1.446 . S
N100 Co59 2.151 . S
N100 C99 1.330 . S
N100 C104 1.418 . S
C101 H80 0.929 . S
C101 C99 1.446 . S
C101 C102 1.332 . S
C102 H82 0.931 . S
C102 C101 1.332 . S
C102 C103 1.267 . S
C103 H71 0.929 . S
C103 C102 1.267 . S
C103 C104 1.251 . S
C104 H74 0.929 . S
C104 N100 1.418 . S
C104 C103 1.251 . S
C105 H72 0.930 . S
C105 C107 1.406 . S
C105 C110 1.261 . S
C106 H73 0.930 . S
C106 N108 1.325 . S
C106 C109 1.357 . S
C107 H75 0.928 . S
C107 C105 1.406 . S
C107 N108 1.261 . S
N108 Co59 2.214 . S
N108 C106 1.325 . S
N108 C107 1.261 . S
C109 H79 0.931 . S
C109 C106 1.357 . S
C109 C110 1.312 . S
C110 H81 0.930 . S
C110 C105 1.261 . S
C110 C109 1.312 . S
C111 O83 1.214 . S
C111 O91 1.234 . S
C112 H84 0.929 . S
C112 C115 1.391 . S
C112 C117 1.391 . S
C113 H85 0.929 . S
C113 C114 1.390 . S
C113 N116 1.391 . S
C114 H86 0.930 . S
C114 C113 1.390 . S
C114 C115 1.392 . S
C115 H87 0.929 . S
C115 C112 1.391 . S
C115 C114 1.392 . S
N116 Co60 2.257 . S
N116 C113 1.391 . S
N116 C117 1.388 . S
C117 H88 0.930 . S
C117 C112 1.391 . S
C117 N116 1.388 . S
Co118 O120 2.143 . S
Co118 O126 2.074 . S
Co118 O129 2.093 . S
Co118 O142 2.097 . S
Co118 N159 2.151 . S
Co118 N167 2.214 . S
Co119 O120 2.160 . S
Co119 O125 2.058 . S
Co119 O135 2.057 . S
Co119 O150 2.037 . S
Co119 N154 2.145 . S
Co119 N175 2.257 . S
O120 Co118 2.143 . S
O120 Co119 2.160 . S
C121 O122 1.278 . S
C121 O129 1.224 . S
O122 C121 1.278 . S
C123 O124 1.245 . S
C123 O135 1.232 . S
O124 C123 1.245 . S
O125 Co119 2.058 . S
O125 C151 1.269 . S
O126 Co118 2.074 . S
O126 C151 1.257 . S
H127 C152 0.930 . S
H128 C158 0.930 . S
O129 Co118 2.093 . S
O129 C121 1.224 . S
H130 C162 0.929 . S
H131 C164 0.930 . S
H132 C165 0.930 . S
H133 C163 0.929 . S
H134 C166 0.928 . S
O135 Co119 2.057 . S
O135 C123 1.232 . S
H136 C155 0.929 . S
H137 C156 0.929 . S
H138 C168 0.931 . S
H139 C160 0.929 . S
H140 C169 0.930 . S
H141 C161 0.931 . S
O142 Co118 2.097 . S
O142 C170 1.214 . S
H143 C171 0.929 . S
H144 C172 0.929 . S
H145 C173 0.930 . S
H146 C174 0.929 . S
H147 C176 0.930 . S
H148 C153 0.930 1_455 S
H149 C157 0.930 . S
O150 Co119 2.037 . S
O150 C170 1.234 . S
C151 O125 1.269 . S
C151 O126 1.257 . S
C152 H127 0.930 . S
C152 C155 1.388 . S
C152 C157 1.418 . S
C153 H148 0.930 1_655 S
C153 C156 1.404 . S
C153 C157 1.353 . S
N154 Co119 2.145 . S
N154 C155 1.397 . S
N154 C156 1.334 . S
C155 H136 0.929 . S
C155 C152 1.388 . S
C155 N154 1.397 . S
C156 H137 0.929 . S
C156 C153 1.404 . S
C156 N154 1.334 . S
C157 H149 0.930 . S
C157 C152 1.418 . S
C157 C153 1.353 . S
C158 H128 0.930 . S
C158 N159 1.330 . S
C158 C160 1.446 . S
N159 Co118 2.151 . S
N159 C158 1.330 . S
N159 C163 1.418 . S
C160 H139 0.929 . S
C160 C158 1.446 . S
C160 C161 1.332 . S
C161 H141 0.931 . S
C161 C160 1.332 . S
C161 C162 1.267 . S
C162 H130 0.929 . S
C162 C161 1.267 . S
C162 C163 1.251 . S
C163 H133 0.929 . S
C163 N159 1.418 . S
C163 C162 1.251 . S
C164 H131 0.930 . S
C164 C166 1.406 . S
C164 C169 1.261 . S
C165 H132 0.930 . S
C165 N167 1.325 . S
C165 C168 1.357 . S
C166 H134 0.928 . S
C166 C164 1.406 . S
C166 N167 1.261 . S
N167 Co118 2.214 . S
N167 C165 1.325 . S
N167 C166 1.261 . S
C168 H138 0.931 . S
C168 C165 1.357 . S
C168 C169 1.312 . S
C169 H140 0.930 . S
C169 C164 1.261 . S
C169 C168 1.312 . S
C170 O142 1.214 . S
C170 O150 1.234 . S
C171 H143 0.929 . S
C171 C174 1.391 . S
C171 C176 1.391 . S
C172 H144 0.929 . S
C172 C173 1.390 . S
C172 N175 1.391 . S
C173 H145 0.930 . S
C173 C172 1.390 . S
C173 C174 1.392 . S
C174 H146 0.929 . S
C174 C171 1.391 . S
C174 C173 1.392 . S
N175 Co119 2.257 . S
N175 C172 1.391 . S
N175 C176 1.388 . S
C176 H147 0.930 . S
C176 C171 1.391 . S
C176 N175 1.388 . S
Co177 O179 2.143 . S
Co177 O185 2.074 . S
Co177 O188 2.093 . S
Co177 O201 2.097 . S
Co177 N218 2.151 . S
Co177 N226 2.214 . S
Co178 O179 2.160 . S
Co178 O184 2.058 . S
Co178 O194 2.057 . S
Co178 O209 2.037 . S
Co178 N213 2.145 . S
Co178 N234 2.257 . S
O179 Co177 2.143 . S
O179 Co178 2.160 . S
C180 O181 1.278 . S
C180 O188 1.224 . S
O181 C180 1.278 . S
C182 O183 1.245 . S
C182 O194 1.232 . S
O183 C182 1.245 . S
O184 Co178 2.058 . S
O184 C210 1.269 . S
O185 Co177 2.074 . S
O185 C210 1.257 . S
H186 C211 0.930 . S
H187 C217 0.930 . S
O188 Co177 2.093 . S
O188 C180 1.224 . S
H189 C221 0.929 . S
H190 C223 0.930 . S
H191 C224 0.930 . S
H192 C222 0.929 . S
H193 C225 0.928 . S
O194 Co178 2.057 . S
O194 C182 1.232 . S
H195 C214 0.929 . S
H196 C215 0.929 . S
H197 C227 0.931 . S
H198 C219 0.929 . S
H199 C228 0.930 . S
H200 C220 0.931 . S
O201 Co177 2.097 . S
O201 C229 1.214 . S
H202 C230 0.929 . S
H203 C231 0.929 . S
H204 C232 0.930 . S
H205 C233 0.929 . S
H206 C235 0.930 . S
H207 C212 0.930 1_545 S
H208 C216 0.930 . S
O209 Co178 2.037 . S
O209 C229 1.234 . S
C210 O184 1.269 . S
C210 O185 1.257 . S
C211 H186 0.930 . S
C211 C214 1.388 . S
C211 C216 1.418 . S
C212 H207 0.930 1_565 S
C212 C215 1.404 . S
C212 C216 1.353 . S
N213 Co178 2.145 . S
N213 C214 1.397 . S
N213 C215 1.334 . S
C214 H195 0.929 . S
C214 C211 1.388 . S
C214 N213 1.397 . S
C215 H196 0.929 . S
C215 C212 1.404 . S
C215 N213 1.334 . S
C216 H208 0.930 . S
C216 C211 1.418 . S
C216 C212 1.353 . S
C217 H187 0.930 . S
C217 N218 1.330 . S
C217 C219 1.446 . S
N218 Co177 2.151 . S
N218 C217 1.330 . S
N218 C222 1.418 . S
C219 H198 0.929 . S
C219 C217 1.446 . S
C219 C220 1.332 . S
C220 H200 0.931 . S
C220 C219 1.332 . S
C220 C221 1.267 . S
C221 H189 0.929 . S
C221 C220 1.267 . S
C221 C222 1.251 . S
C222 H192 0.929 . S
C222 N218 1.418 . S
C222 C221 1.251 . S
C223 H190 0.930 . S
C223 C225 1.406 . S
C223 C228 1.261 . S
C224 H191 0.930 . S
C224 N226 1.325 . S
C224 C227 1.357 . S
C225 H193 0.928 . S
C225 C223 1.406 . S
C225 N226 1.261 . S
N226 Co177 2.214 . S
N226 C224 1.325 . S
N226 C225 1.261 . S
C227 H197 0.931 . S
C227 C224 1.357 . S
C227 C228 1.312 . S
C228 H199 0.930 . S
C228 C223 1.261 . S
C228 C227 1.312 . S
C229 O201 1.214 . S
C229 O209 1.234 . S
C230 H202 0.929 . S
C230 C233 1.391 . S
C230 C235 1.391 . S
C231 H203 0.929 . S
C231 C232 1.390 . S
C231 N234 1.391 . S
C232 H204 0.930 . S
C232 C231 1.390 . S
C232 C233 1.392 . S
C233 H205 0.929 . S
C233 C230 1.391 . S
C233 C232 1.392 . S
N234 Co178 2.257 . S
N234 C231 1.391 . S
N234 C235 1.388 . S
C235 H206 0.930 . S
C235 C230 1.391 . S
C235 N234 1.388 . S
Co236 O238 2.143 . S
Co236 O244 2.074 . S
Co236 O247 2.093 . S
Co236 O260 2.097 . S
Co236 N277 2.151 . S
Co236 N285 2.214 . S
Co237 O238 2.160 . S
Co237 O243 2.058 . S
Co237 O253 2.057 . S
Co237 O268 2.037 . S
Co237 N272 2.145 . S
Co237 N293 2.257 . S
O238 Co236 2.143 . S
O238 Co237 2.160 . S
C239 O240 1.278 . S
C239 O247 1.224 . S
O240 C239 1.278 . S
C241 O242 1.245 . S
C241 O253 1.232 . S
O242 C241 1.245 . S
O243 Co237 2.058 . S
O243 C269 1.269 . S
O244 Co236 2.074 . S
O244 C269 1.257 . S
H245 C270 0.930 . S
H246 C276 0.930 . S
O247 Co236 2.093 . S
O247 C239 1.224 . S
H248 C280 0.929 . S
H249 C282 0.930 . S
H250 C283 0.930 . S
H251 C281 0.929 . S
H252 C284 0.928 . S
O253 Co237 2.057 . S
O253 C241 1.232 . S
H254 C273 0.929 . S
H255 C274 0.929 . S
H256 C286 0.931 . S
H257 C278 0.929 . S
H258 C287 0.930 . S
H259 C279 0.931 . S
O260 Co236 2.097 . S
O260 C288 1.214 . S
H261 C289 0.929 . S
H262 C290 0.929 . S
H263 C291 0.930 . S
H264 C292 0.929 . S
H265 C294 0.930 . S
H266 C271 0.930 1_655 S
H267 C275 0.930 . S
O268 Co237 2.037 . S
O268 C288 1.234 . S
C269 O243 1.269 . S
C269 O244 1.257 . S
C270 H245 0.930 . S
C270 C273 1.388 . S
C270 C275 1.418 . S
C271 H266 0.930 1_455 S
C271 C274 1.404 . S
C271 C275 1.353 . S
N272 Co237 2.145 . S
N272 C273 1.397 . S
N272 C274 1.334 . S
C273 H254 0.929 . S
C273 C270 1.388 . S
C273 N272 1.397 . S
C274 H255 0.929 . S
C274 C271 1.404 . S
C274 N272 1.334 . S
C275 H267 0.930 . S
C275 C270 1.418 . S
C275 C271 1.353 . S
C276 H246 0.930 . S
C276 N277 1.330 . S
C276 C278 1.446 . S
N277 Co236 2.151 . S
N277 C276 1.330 . S
N277 C281 1.418 . S
C278 H257 0.929 . S
C278 C276 1.446 . S
C278 C279 1.332 . S
C279 H259 0.931 . S
C279 C278 1.332 . S
C279 C280 1.267 . S
C280 H248 0.929 . S
C280 C279 1.267 . S
C280 C281 1.251 . S
C281 H251 0.929 . S
C281 N277 1.418 . S
C281 C280 1.251 . S
C282 H249 0.930 . S
C282 C284 1.406 . S
C282 C287 1.261 . S
C283 H250 0.930 . S
C283 N285 1.325 . S
C283 C286 1.357 . S
C284 H252 0.928 . S
C284 C282 1.406 . S
C284 N285 1.261 . S
N285 Co236 2.214 . S
N285 C283 1.325 . S
N285 C284 1.261 . S
C286 H256 0.931 . S
C286 C283 1.357 . S
C286 C287 1.312 . S
C287 H258 0.930 . S
C287 C282 1.261 . S
C287 C286 1.312 . S
C288 O260 1.214 . S
C288 O268 1.234 . S
C289 H261 0.929 . S
C289 C292 1.391 . S
C289 C294 1.391 . S
C290 H262 0.929 . S
C290 C291 1.390 . S
C290 N293 1.391 . S
C291 H263 0.930 . S
C291 C290 1.390 . S
C291 C292 1.392 . S
C292 H264 0.929 . S
C292 C289 1.391 . S
C292 C291 1.392 . S
N293 Co237 2.257 . S
N293 C290 1.391 . S
N293 C294 1.388 . S
C294 H265 0.930 . S
C294 C289 1.391 . S
C294 N293 1.388 . S
Co295 O297 2.143 . S
Co295 O303 2.074 . S
Co295 O306 2.093 . S
Co295 O319 2.097 . S
Co295 N336 2.151 . S
Co295 N344 2.214 . S
Co296 O297 2.160 . S
Co296 O302 2.058 . S
Co296 O312 2.057 . S
Co296 O327 2.037 . S
Co296 N331 2.145 . S
Co296 N352 2.257 . S
O297 Co295 2.143 . S
O297 Co296 2.160 . S
C298 O299 1.278 . S
C298 O306 1.224 . S
O299 C298 1.278 . S
C300 O301 1.245 . S
C300 O312 1.232 . S
O301 C300 1.245 . S
O302 Co296 2.058 . S
O302 C328 1.269 . S
O303 Co295 2.074 . S
O303 C328 1.257 . S
H304 C329 0.930 . S
H305 C335 0.930 . S
O306 Co295 2.093 . S
O306 C298 1.224 . S
H307 C339 0.929 . S
H308 C341 0.930 . S
H309 C342 0.930 . S
H310 C340 0.929 . S
H311 C343 0.928 . S
O312 Co296 2.057 . S
O312 C300 1.232 . S
H313 C332 0.929 . S
H314 C333 0.929 . S
H315 C345 0.931 . S
H316 C337 0.929 . S
H317 C346 0.930 . S
H318 C338 0.931 . S
O319 Co295 2.097 . S
O319 C347 1.214 . S
H320 C348 0.929 . S
H321 C349 0.929 . S
H322 C350 0.930 . S
H323 C351 0.929 . S
H324 C353 0.930 . S
H325 C330 0.930 1_565 S
H326 C334 0.930 . S
O327 Co296 2.037 . S
O327 C347 1.234 . S
C328 O302 1.269 . S
C328 O303 1.257 . S
C329 H304 0.930 . S
C329 C332 1.388 . S
C329 C334 1.418 . S
C330 H325 0.930 1_545 S
C330 C333 1.404 . S
C330 C334 1.353 . S
N331 Co296 2.145 . S
N331 C332 1.397 . S
N331 C333 1.334 . S
C332 H313 0.929 . S
C332 C329 1.388 . S
C332 N331 1.397 . S
C333 H314 0.929 . S
C333 C330 1.404 . S
C333 N331 1.334 . S
C334 H326 0.930 . S
C334 C329 1.418 . S
C334 C330 1.353 . S
C335 H305 0.930 . S
C335 N336 1.330 . S
C335 C337 1.446 . S
N336 Co295 2.151 . S
N336 C335 1.330 . S
N336 C340 1.418 . S
C337 H316 0.929 . S
C337 C335 1.446 . S
C337 C338 1.332 . S
C338 H318 0.931 . S
C338 C337 1.332 . S
C338 C339 1.267 . S
C339 H307 0.929 . S
C339 C338 1.267 . S
C339 C340 1.251 . S
C340 H310 0.929 . S
C340 N336 1.418 . S
C340 C339 1.251 . S
C341 H308 0.930 . S
C341 C343 1.406 . S
C341 C346 1.261 . S
C342 H309 0.930 . S
C342 N344 1.325 . S
C342 C345 1.357 . S
C343 H311 0.928 . S
C343 C341 1.406 . S
C343 N344 1.261 . S
N344 Co295 2.214 . S
N344 C342 1.325 . S
N344 C343 1.261 . S
C345 H315 0.931 . S
C345 C342 1.357 . S
C345 C346 1.312 . S
C346 H317 0.930 . S
C346 C341 1.261 . S
C346 C345 1.312 . S
C347 O319 1.214 . S
C347 O327 1.234 . S
C348 H320 0.929 . S
C348 C351 1.391 . S
C348 C353 1.391 . S
C349 H321 0.929 . S
C349 C350 1.390 . S
C349 N352 1.391 . S
C350 H322 0.930 . S
C350 C349 1.390 . S
C350 C351 1.392 . S
C351 H323 0.929 . S
C351 C348 1.391 . S
C351 C350 1.392 . S
N352 Co296 2.257 . S
N352 C349 1.391 . S
N352 C353 1.388 . S
C353 H324 0.930 . S
C353 C348 1.391 . S
C353 N352 1.388 . S
Co354 O356 2.143 . S
Co354 O362 2.074 . S
Co354 O365 2.093 . S
Co354 O378 2.097 . S
Co354 N395 2.151 . S
Co354 N403 2.214 . S
Co355 O356 2.160 . S
Co355 O361 2.058 . S
Co355 O371 2.057 . S
Co355 O386 2.037 . S
Co355 N390 2.145 . S
Co355 N411 2.257 . S
O356 Co354 2.143 . S
O356 Co355 2.160 . S
C357 O358 1.278 . S
C357 O365 1.224 . S
O358 C357 1.278 . S
C359 O360 1.245 . S
C359 O371 1.232 . S
O360 C359 1.245 . S
O361 Co355 2.058 . S
O361 C387 1.269 . S
O362 Co354 2.074 . S
O362 C387 1.257 . S
H363 C388 0.930 . S
H364 C394 0.930 . S
O365 Co354 2.093 . S
O365 C357 1.224 . S
H366 C398 0.929 . S
H367 C400 0.930 . S
H368 C401 0.930 . S
H369 C399 0.929 . S
H370 C402 0.928 . S
O371 Co355 2.057 . S
O371 C359 1.232 . S
H372 C391 0.929 . S
H373 C392 0.929 . S
H374 C404 0.931 . S
H375 C396 0.929 . S
H376 C405 0.930 . S
H377 C397 0.931 . S
O378 Co354 2.097 . S
O378 C406 1.214 . S
H379 C407 0.929 . S
H380 C408 0.929 . S
H381 C409 0.930 . S
H382 C410 0.929 . S
H383 C412 0.930 . S
H384 C389 0.930 1_455 S
H385 C393 0.930 . S
O386 Co355 2.037 . S
O386 C406 1.234 . S
C387 O361 1.269 . S
C387 O362 1.257 . S
C388 H363 0.930 . S
C388 C391 1.388 . S
C388 C393 1.418 . S
C389 H384 0.930 1_655 S
C389 C392 1.404 . S
C389 C393 1.353 . S
N390 Co355 2.145 . S
N390 C391 1.397 . S
N390 C392 1.334 . S
C391 H372 0.929 . S
C391 C388 1.388 . S
C391 N390 1.397 . S
C392 H373 0.929 . S
C392 C389 1.404 . S
C392 N390 1.334 . S
C393 H385 0.930 . S
C393 C388 1.418 . S
C393 C389 1.353 . S
C394 H364 0.930 . S
C394 N395 1.330 . S
C394 C396 1.446 . S
N395 Co354 2.151 . S
N395 C394 1.330 . S
N395 C399 1.418 . S
C396 H375 0.929 . S
C396 C394 1.446 . S
C396 C397 1.332 . S
C397 H377 0.931 . S
C397 C396 1.332 . S
C397 C398 1.267 . S
C398 H366 0.929 . S
C398 C397 1.267 . S
C398 C399 1.251 . S
C399 H369 0.929 . S
C399 N395 1.418 . S
C399 C398 1.251 . S
C400 H367 0.930 . S
C400 C402 1.406 . S
C400 C405 1.261 . S
C401 H368 0.930 . S
C401 N403 1.325 . S
C401 C404 1.357 . S
C402 H370 0.928 . S
C402 C400 1.406 . S
C402 N403 1.261 . S
N403 Co354 2.214 . S
N403 C401 1.325 . S
N403 C402 1.261 . S
C404 H374 0.931 . S
C404 C401 1.357 . S
C404 C405 1.312 . S
C405 H376 0.930 . S
C405 C400 1.261 . S
C405 C404 1.312 . S
C406 O378 1.214 . S
C406 O386 1.234 . S
C407 H379 0.929 . S
C407 C410 1.391 . S
C407 C412 1.391 . S
C408 H380 0.929 . S
C408 C409 1.390 . S
C408 N411 1.391 . S
C409 H381 0.930 . S
C409 C408 1.390 . S
C409 C410 1.392 . S
C410 H382 0.929 . S
C410 C407 1.391 . S
C410 C409 1.392 . S
N411 Co355 2.257 . S
N411 C408 1.391 . S
N411 C412 1.388 . S
C412 H383 0.930 . S
C412 C407 1.391 . S
C412 N411 1.388 . S
Co413 O415 2.143 . S
Co413 O421 2.074 . S
Co413 O424 2.093 . S
Co413 O437 2.097 . S
Co413 N454 2.151 . S
Co413 N462 2.214 . S
Co414 O415 2.160 . S
Co414 O420 2.058 . S
Co414 O430 2.057 . S
Co414 O445 2.037 . S
Co414 N449 2.145 . S
Co414 N470 2.257 . S
O415 Co413 2.143 . S
O415 Co414 2.160 . S
C416 O417 1.278 . S
C416 O424 1.224 . S
O417 C416 1.278 . S
C418 O419 1.245 . S
C418 O430 1.232 . S
O419 C418 1.245 . S
O420 Co414 2.058 . S
O420 C446 1.269 . S
O421 Co413 2.074 . S
O421 C446 1.257 . S
H422 C447 0.930 . S
H423 C453 0.930 . S
O424 Co413 2.093 . S
O424 C416 1.224 . S
H425 C457 0.929 . S
H426 C459 0.930 . S
H427 C460 0.930 . S
H428 C458 0.929 . S
H429 C461 0.928 . S
O430 Co414 2.057 . S
O430 C418 1.232 . S
H431 C450 0.929 . S
H432 C451 0.929 . S
H433 C463 0.931 . S
H434 C455 0.929 . S
H435 C464 0.930 . S
H436 C456 0.931 . S
O437 Co413 2.097 . S
O437 C465 1.214 . S
H438 C466 0.929 . S
H439 C467 0.929 . S
H440 C468 0.930 . S
H441 C469 0.929 . S
H442 C471 0.930 . S
H443 C448 0.930 1_545 S
H444 C452 0.930 . S
O445 Co414 2.037 . S
O445 C465 1.234 . S
C446 O420 1.269 . S
C446 O421 1.257 . S
C447 H422 0.930 . S
C447 C450 1.388 . S
C447 C452 1.418 . S
C448 H443 0.930 1_565 S
C448 C451 1.404 . S
C448 C452 1.353 . S
N449 Co414 2.145 . S
N449 C450 1.397 . S
N449 C451 1.334 . S
C450 H431 0.929 . S
C450 C447 1.388 . S
C450 N449 1.397 . S
C451 H432 0.929 . S
C451 C448 1.404 . S
C451 N449 1.334 . S
C452 H444 0.930 . S
C452 C447 1.418 . S
C452 C448 1.353 . S
C453 H423 0.930 . S
C453 N454 1.330 . S
C453 C455 1.446 . S
N454 Co413 2.151 . S
N454 C453 1.330 . S
N454 C458 1.418 . S
C455 H434 0.929 . S
C455 C453 1.446 . S
C455 C456 1.332 . S
C456 H436 0.931 . S
C456 C455 1.332 . S
C456 C457 1.267 . S
C457 H425 0.929 . S
C457 C456 1.267 . S
C457 C458 1.251 . S
C458 H428 0.929 . S
C458 N454 1.418 . S
C458 C457 1.251 . S
C459 H426 0.930 . S
C459 C461 1.406 . S
C459 C464 1.261 . S
C460 H427 0.930 . S
C460 N462 1.325 . S
C460 C463 1.357 . S
C461 H429 0.928 . S
C461 C459 1.406 . S
C461 N462 1.261 . S
N462 Co413 2.214 . S
N462 C460 1.325 . S
N462 C461 1.261 . S
C463 H433 0.931 . S
C463 C460 1.357 . S
C463 C464 1.312 . S
C464 H435 0.930 . S
C464 C459 1.261 . S
C464 C463 1.312 . S
C465 O437 1.214 . S
C465 O445 1.234 . S
C466 H438 0.929 . S
C466 C469 1.391 . S
C466 C471 1.391 . S
C467 H439 0.929 . S
C467 C468 1.390 . S
C467 N470 1.391 . S
C468 H440 0.930 . S
C468 C467 1.390 . S
C468 C469 1.392 . S
C469 H441 0.929 . S
C469 C466 1.391 . S
C469 C468 1.392 . S
N470 Co414 2.257 . S
N470 C467 1.391 . S
N470 C471 1.388 . S
C471 H442 0.930 . S
C471 C466 1.391 . S
C471 N470 1.388 . S
Co472 O474 2.143 . S
Co472 O480 2.074 . S
Co472 O483 2.093 . S
Co472 O496 2.097 . S
Co472 N513 2.151 . S
Co472 N521 2.214 . S
Co473 O474 2.160 . S
Co473 O479 2.058 . S
Co473 O489 2.057 . S
Co473 O504 2.037 . S
Co473 N508 2.145 . S
Co473 N529 2.257 . S
O474 Co472 2.143 . S
O474 Co473 2.160 . S
C475 O476 1.278 . S
C475 O483 1.224 . S
O476 C475 1.278 . S
C477 O478 1.245 . S
C477 O489 1.232 . S
O478 C477 1.245 . S
O479 Co473 2.058 . S
O479 C505 1.269 . S
O480 Co472 2.074 . S
O480 C505 1.257 . S
H481 C506 0.930 . S
H482 C512 0.930 . S
O483 Co472 2.093 . S
O483 C475 1.224 . S
H484 C516 0.929 . S
H485 C518 0.930 . S
H486 C519 0.930 . S
H487 C517 0.929 . S
H488 C520 0.928 . S
O489 Co473 2.057 . S
O489 C477 1.232 . S
H490 C509 0.929 . S
H491 C510 0.929 . S
H492 C522 0.931 . S
H493 C514 0.929 . S
H494 C523 0.930 . S
H495 C515 0.931 . S
O496 Co472 2.097 . S
O496 C524 1.214 . S
H497 C525 0.929 . S
H498 C526 0.929 . S
H499 C527 0.930 . S
H500 C528 0.929 . S
H501 C530 0.930 . S
H502 C507 0.930 1_455 S
H503 C511 0.930 . S
O504 Co473 2.037 . S
O504 C524 1.234 . S
C505 O479 1.269 . S
C505 O480 1.257 . S
C506 H481 0.930 . S
C506 C509 1.388 . S
C506 C511 1.418 . S
C507 H502 0.930 1_655 S
C507 C510 1.404 . S
C507 C511 1.353 . S
N508 Co473 2.145 . S
N508 C509 1.397 . S
N508 C510 1.334 . S
C509 H490 0.929 . S
C509 C506 1.388 . S
C509 N508 1.397 . S
C510 H491 0.929 . S
C510 C507 1.404 . S
C510 N508 1.334 . S
C511 H503 0.930 . S
C511 C506 1.418 . S
C511 C507 1.353 . S
C512 H482 0.930 . S
C512 N513 1.330 . S
C512 C514 1.446 . S
N513 Co472 2.151 . S
N513 C512 1.330 . S
N513 C517 1.418 . S
C514 H493 0.929 . S
C514 C512 1.446 . S
C514 C515 1.332 . S
C515 H495 0.931 . S
C515 C514 1.332 . S
C515 C516 1.267 . S
C516 H484 0.929 . S
C516 C515 1.267 . S
C516 C517 1.251 . S
C517 H487 0.929 . S
C517 N513 1.418 . S
C517 C516 1.251 . S
C518 H485 0.930 . S
C518 C520 1.406 . S
C518 C523 1.261 . S
C519 H486 0.930 . S
C519 N521 1.325 . S
C519 C522 1.357 . S
C520 H488 0.928 . S
C520 C518 1.406 . S
C520 N521 1.261 . S
N521 Co472 2.214 . S
N521 C519 1.325 . S
N521 C520 1.261 . S
C522 H492 0.931 . S
C522 C519 1.357 . S
C522 C523 1.312 . S
C523 H494 0.930 . S
C523 C518 1.261 . S
C523 C522 1.312 . S
C524 O496 1.214 . S
C524 O504 1.234 . S
C525 H497 0.929 . S
C525 C528 1.391 . S
C525 C530 1.391 . S
C526 H498 0.929 . S
C526 C527 1.390 . S
C526 N529 1.391 . S
C527 H499 0.930 . S
C527 C526 1.390 . S
C527 C528 1.392 . S
C528 H500 0.929 . S
C528 C525 1.391 . S
C528 C527 1.392 . S
N529 Co473 2.257 . S
N529 C526 1.391 . S
N529 C530 1.388 . S
C530 H501 0.930 . S
C530 C525 1.391 . S
C530 N529 1.388 . S
Co531 O533 2.143 . S
Co531 O539 2.074 . S
Co531 O542 2.093 . S
Co531 O555 2.097 . S
Co531 N572 2.151 . S
Co531 N580 2.214 . S
Co532 O533 2.160 . S
Co532 O538 2.058 . S
Co532 O548 2.057 . S
Co532 O563 2.037 . S
Co532 N567 2.145 . S
Co532 N588 2.257 . S
O533 Co531 2.143 . S
O533 Co532 2.160 . S
C534 O535 1.278 . S
C534 O542 1.224 . S
O535 C534 1.278 . S
C536 O537 1.245 . S
C536 O548 1.232 . S
O537 C536 1.245 . S
O538 Co532 2.058 . S
O538 C564 1.269 . S
O539 Co531 2.074 . S
O539 C564 1.257 . S
H540 C565 0.930 . S
H541 C571 0.930 . S
O542 Co531 2.093 . S
O542 C534 1.224 . S
H543 C575 0.929 . S
H544 C577 0.930 . S
H545 C578 0.930 . S
H546 C576 0.929 . S
H547 C579 0.928 . S
O548 Co532 2.057 . S
O548 C536 1.232 . S
H549 C568 0.929 . S
H550 C569 0.929 . S
H551 C581 0.931 . S
H552 C573 0.929 . S
H553 C582 0.930 . S
H554 C574 0.931 . S
O555 Co531 2.097 . S
O555 C583 1.214 . S
H556 C584 0.929 . S
H557 C585 0.929 . S
H558 C586 0.930 . S
H559 C587 0.929 . S
H560 C589 0.930 . S
H561 C566 0.930 1_545 S
H562 C570 0.930 . S
O563 Co532 2.037 . S
O563 C583 1.234 . S
C564 O538 1.269 . S
C564 O539 1.257 . S
C565 H540 0.930 . S
C565 C568 1.388 . S
C565 C570 1.418 . S
C566 H561 0.930 1_565 S
C566 C569 1.404 . S
C566 C570 1.353 . S
N567 Co532 2.145 . S
N567 C568 1.397 . S
N567 C569 1.334 . S
C568 H549 0.929 . S
C568 C565 1.388 . S
C568 N567 1.397 . S
C569 H550 0.929 . S
C569 C566 1.404 . S
C569 N567 1.334 . S
C570 H562 0.930 . S
C570 C565 1.418 . S
C570 C566 1.353 . S
C571 H541 0.930 . S
C571 N572 1.330 . S
C571 C573 1.446 . S
N572 Co531 2.151 . S
N572 C571 1.330 . S
N572 C576 1.418 . S
C573 H552 0.929 . S
C573 C571 1.446 . S
C573 C574 1.332 . S
C574 H554 0.931 . S
C574 C573 1.332 . S
C574 C575 1.267 . S
C575 H543 0.929 . S
C575 C574 1.267 . S
C575 C576 1.251 . S
C576 H546 0.929 . S
C576 N572 1.418 . S
C576 C575 1.251 . S
C577 H544 0.930 . S
C577 C579 1.406 . S
C577 C582 1.261 . S
C578 H545 0.930 . S
C578 N580 1.325 . S
C578 C581 1.357 . S
C579 H547 0.928 . S
C579 C577 1.406 . S
C579 N580 1.261 . S
N580 Co531 2.214 . S
N580 C578 1.325 . S
N580 C579 1.261 . S
C581 H551 0.931 . S
C581 C578 1.357 . S
C581 C582 1.312 . S
C582 H553 0.930 . S
C582 C577 1.261 . S
C582 C581 1.312 . S
C583 O555 1.214 . S
C583 O563 1.234 . S
C584 H556 0.929 . S
C584 C587 1.391 . S
C584 C589 1.391 . S
C585 H557 0.929 . S
C585 C586 1.390 . S
C585 N588 1.391 . S
C586 H558 0.930 . S
C586 C585 1.390 . S
C586 C587 1.392 . S
C587 H559 0.929 . S
C587 C584 1.391 . S
C587 C586 1.392 . S
N588 Co532 2.257 . S
N588 C585 1.391 . S
N588 C589 1.388 . S
C589 H560 0.930 . S
C589 C584 1.391 . S
C589 N588 1.388 . S
Co590 O592 2.143 . S
Co590 O598 2.074 . S
Co590 O601 2.093 . S
Co590 O614 2.097 . S
Co590 N631 2.151 . S
Co590 N639 2.214 . S
Co591 O592 2.160 . S
Co591 O597 2.058 . S
Co591 O607 2.057 . S
Co591 O622 2.037 . S
Co591 N626 2.145 . S
Co591 N647 2.257 . S
O592 Co590 2.143 . S
O592 Co591 2.160 . S
C593 O594 1.278 . S
C593 O601 1.224 . S
O594 C593 1.278 . S
C595 O596 1.245 . S
C595 O607 1.232 . S
O596 C595 1.245 . S
O597 Co591 2.058 . S
O597 C623 1.269 . S
O598 Co590 2.074 . S
O598 C623 1.257 . S
H599 C624 0.930 . S
H600 C630 0.930 . S
O601 Co590 2.093 . S
O601 C593 1.224 . S
H602 C634 0.929 . S
H603 C636 0.930 . S
H604 C637 0.930 . S
H605 C635 0.929 . S
H606 C638 0.928 . S
O607 Co591 2.057 . S
O607 C595 1.232 . S
H608 C627 0.929 . S
H609 C628 0.929 . S
H610 C640 0.931 . S
H611 C632 0.929 . S
H612 C641 0.930 . S
H613 C633 0.931 . S
O614 Co590 2.097 . S
O614 C642 1.214 . S
H615 C643 0.929 . S
H616 C644 0.929 . S
H617 C645 0.930 . S
H618 C646 0.929 . S
H619 C648 0.930 . S
H620 C625 0.930 1_655 S
H621 C629 0.930 . S
O622 Co591 2.037 . S
O622 C642 1.234 . S
C623 O597 1.269 . S
C623 O598 1.257 . S
C624 H599 0.930 . S
C624 C627 1.388 . S
C624 C629 1.418 . S
C625 H620 0.930 1_455 S
C625 C628 1.404 . S
C625 C629 1.353 . S
N626 Co591 2.145 . S
N626 C627 1.397 . S
N626 C628 1.334 . S
C627 H608 0.929 . S
C627 C624 1.388 . S
C627 N626 1.397 . S
C628 H609 0.929 . S
C628 C625 1.404 . S
C628 N626 1.334 . S
C629 H621 0.930 . S
C629 C624 1.418 . S
C629 C625 1.353 . S
C630 H600 0.930 . S
C630 N631 1.330 . S
C630 C632 1.446 . S
N631 Co590 2.151 . S
N631 C630 1.330 . S
N631 C635 1.418 . S
C632 H611 0.929 . S
C632 C630 1.446 . S
C632 C633 1.332 . S
C633 H613 0.931 . S
C633 C632 1.332 . S
C633 C634 1.267 . S
C634 H602 0.929 . S
C634 C633 1.267 . S
C634 C635 1.251 . S
C635 H605 0.929 . S
C635 N631 1.418 . S
C635 C634 1.251 . S
C636 H603 0.930 . S
C636 C638 1.406 . S
C636 C641 1.261 . S
C637 H604 0.930 . S
C637 N639 1.325 . S
C637 C640 1.357 . S
C638 H606 0.928 . S
C638 C636 1.406 . S
C638 N639 1.261 . S
N639 Co590 2.214 . S
N639 C637 1.325 . S
N639 C638 1.261 . S
C640 H610 0.931 . S
C640 C637 1.357 . S
C640 C641 1.312 . S
C641 H612 0.930 . S
C641 C636 1.261 . S
C641 C640 1.312 . S
C642 O614 1.214 . S
C642 O622 1.234 . S
C643 H615 0.929 . S
C643 C646 1.391 . S
C643 C648 1.391 . S
C644 H616 0.929 . S
C644 C645 1.390 . S
C644 N647 1.391 . S
C645 H617 0.930 . S
C645 C644 1.390 . S
C645 C646 1.392 . S
C646 H618 0.929 . S
C646 C643 1.391 . S
C646 C645 1.392 . S
N647 Co591 2.257 . S
N647 C644 1.391 . S
N647 C648 1.388 . S
C648 H619 0.930 . S
C648 C643 1.391 . S
C648 N647 1.388 . S
Co649 O651 2.143 . S
Co649 O657 2.074 . S
Co649 O660 2.093 . S
Co649 O673 2.097 . S
Co649 N690 2.151 . S
Co649 N698 2.214 . S
Co650 O651 2.160 . S
Co650 O656 2.058 . S
Co650 O666 2.057 . S
Co650 O681 2.037 . S
Co650 N685 2.145 . S
Co650 N706 2.257 . S
O651 Co649 2.143 . S
O651 Co650 2.160 . S
C652 O653 1.278 . S
C652 O660 1.224 . S
O653 C652 1.278 . S
C654 O655 1.245 . S
C654 O666 1.232 . S
O655 C654 1.245 . S
O656 Co650 2.058 . S
O656 C682 1.269 . S
O657 Co649 2.074 . S
O657 C682 1.257 . S
H658 C683 0.930 . S
H659 C689 0.930 . S
O660 Co649 2.093 . S
O660 C652 1.224 . S
H661 C693 0.929 . S
H662 C695 0.930 . S
H663 C696 0.930 . S
H664 C694 0.929 . S
H665 C697 0.928 . S
O666 Co650 2.057 . S
O666 C654 1.232 . S
H667 C686 0.929 . S
H668 C687 0.929 . S
H669 C699 0.931 . S
H670 C691 0.929 . S
H671 C700 0.930 . S
H672 C692 0.931 . S
O673 Co649 2.097 . S
O673 C701 1.214 . S
H674 C702 0.929 . S
H675 C703 0.929 . S
H676 C704 0.930 . S
H677 C705 0.929 . S
H678 C707 0.930 . S
H679 C684 0.930 1_565 S
H680 C688 0.930 . S
O681 Co650 2.037 . S
O681 C701 1.234 . S
C682 O656 1.269 . S
C682 O657 1.257 . S
C683 H658 0.930 . S
C683 C686 1.388 . S
C683 C688 1.418 . S
C684 H679 0.930 1_545 S
C684 C687 1.404 . S
C684 C688 1.353 . S
N685 Co650 2.145 . S
N685 C686 1.397 . S
N685 C687 1.334 . S
C686 H667 0.929 . S
C686 C683 1.388 . S
C686 N685 1.397 . S
C687 H668 0.929 . S
C687 C684 1.404 . S
C687 N685 1.334 . S
C688 H680 0.930 . S
C688 C683 1.418 . S
C688 C684 1.353 . S
C689 H659 0.930 . S
C689 N690 1.330 . S
C689 C691 1.446 . S
N690 Co649 2.151 . S
N690 C689 1.330 . S
N690 C694 1.418 . S
C691 H670 0.929 . S
C691 C689 1.446 . S
C691 C692 1.332 . S
C692 H672 0.931 . S
C692 C691 1.332 . S
C692 C693 1.267 . S
C693 H661 0.929 . S
C693 C692 1.267 . S
C693 C694 1.251 . S
C694 H664 0.929 . S
C694 N690 1.418 . S
C694 C693 1.251 . S
C695 H662 0.930 . S
C695 C697 1.406 . S
C695 C700 1.261 . S
C696 H663 0.930 . S
C696 N698 1.325 . S
C696 C699 1.357 . S
C697 H665 0.928 . S
C697 C695 1.406 . S
C697 N698 1.261 . S
N698 Co649 2.214 . S
N698 C696 1.325 . S
N698 C697 1.261 . S
C699 H669 0.931 . S
C699 C696 1.357 . S
C699 C700 1.312 . S
C700 H671 0.930 . S
C700 C695 1.261 . S
C700 C699 1.312 . S
C701 O673 1.214 . S
C701 O681 1.234 . S
C702 H674 0.929 . S
C702 C705 1.391 . S
C702 C707 1.391 . S
C703 H675 0.929 . S
C703 C704 1.390 . S
C703 N706 1.391 . S
C704 H676 0.930 . S
C704 C703 1.390 . S
C704 C705 1.392 . S
C705 H677 0.929 . S
C705 C702 1.391 . S
C705 C704 1.392 . S
N706 Co650 2.257 . S
N706 C703 1.391 . S
N706 C707 1.388 . S
C707 H678 0.930 . S
C707 C702 1.391 . S
C707 N706 1.388 . S
Co708 O710 2.143 . S
Co708 O716 2.074 . S
Co708 O719 2.093 . S
Co708 O732 2.097 . S
Co708 N749 2.151 . S
Co708 N757 2.214 . S
Co709 O710 2.160 . S
Co709 O715 2.058 . S
Co709 O725 2.057 . S
Co709 O740 2.037 . S
Co709 N744 2.145 . S
Co709 N765 2.257 . S
O710 Co708 2.143 . S
O710 Co709 2.160 . S
C711 O712 1.278 . S
C711 O719 1.224 . S
O712 C711 1.278 . S
C713 O714 1.245 . S
C713 O725 1.232 . S
O714 C713 1.245 . S
O715 Co709 2.058 . S
O715 C741 1.269 . S
O716 Co708 2.074 . S
O716 C741 1.257 . S
H717 C742 0.930 . S
H718 C748 0.930 . S
O719 Co708 2.093 . S
O719 C711 1.224 . S
H720 C752 0.929 . S
H721 C754 0.930 . S
H722 C755 0.930 . S
H723 C753 0.929 . S
H724 C756 0.928 . S
O725 Co709 2.057 . S
O725 C713 1.232 . S
H726 C745 0.929 . S
H727 C746 0.929 . S
H728 C758 0.931 . S
H729 C750 0.929 . S
H730 C759 0.930 . S
H731 C751 0.931 . S
O732 Co708 2.097 . S
O732 C760 1.214 . S
H733 C761 0.929 . S
H734 C762 0.929 . S
H735 C763 0.930 . S
H736 C764 0.929 . S
H737 C766 0.930 . S
H738 C743 0.930 1_455 S
H739 C747 0.930 . S
O740 Co709 2.037 . S
O740 C760 1.234 . S
C741 O715 1.269 . S
C741 O716 1.257 . S
C742 H717 0.930 . S
C742 C745 1.388 . S
C742 C747 1.418 . S
C743 H738 0.930 1_655 S
C743 C746 1.404 . S
C743 C747 1.353 . S
N744 Co709 2.145 . S
N744 C745 1.397 . S
N744 C746 1.334 . S
C745 H726 0.929 . S
C745 C742 1.388 . S
C745 N744 1.397 . S
C746 H727 0.929 . S
C746 C743 1.404 . S
C746 N744 1.334 . S
C747 H739 0.930 . S
C747 C742 1.418 . S
C747 C743 1.353 . S
C748 H718 0.930 . S
C748 N749 1.330 . S
C748 C750 1.446 . S
N749 Co708 2.151 . S
N749 C748 1.330 . S
N749 C753 1.418 . S
C750 H729 0.929 . S
C750 C748 1.446 . S
C750 C751 1.332 . S
C751 H731 0.931 . S
C751 C750 1.332 . S
C751 C752 1.267 . S
C752 H720 0.929 . S
C752 C751 1.267 . S
C752 C753 1.251 . S
C753 H723 0.929 . S
C753 N749 1.418 . S
C753 C752 1.251 . S
C754 H721 0.930 . S
C754 C756 1.406 . S
C754 C759 1.261 . S
C755 H722 0.930 . S
C755 N757 1.325 . S
C755 C758 1.357 . S
C756 H724 0.928 . S
C756 C754 1.406 . S
C756 N757 1.261 . S
N757 Co708 2.214 . S
N757 C755 1.325 . S
N757 C756 1.261 . S
C758 H728 0.931 . S
C758 C755 1.357 . S
C758 C759 1.312 . S
C759 H730 0.930 . S
C759 C754 1.261 . S
C759 C758 1.312 . S
C760 O732 1.214 . S
C760 O740 1.234 . S
C761 H733 0.929 . S
C761 C764 1.391 . S
C761 C766 1.391 . S
C762 H734 0.929 . S
C762 C763 1.390 . S
C762 N765 1.391 . S
C763 H735 0.930 . S
C763 C762 1.390 . S
C763 C764 1.392 . S
C764 H736 0.929 . S
C764 C761 1.391 . S
C764 C763 1.392 . S
N765 Co709 2.257 . S
N765 C762 1.391 . S
N765 C766 1.388 . S
C766 H737 0.930 . S
C766 C761 1.391 . S
C766 N765 1.388 . S
Co767 O769 2.143 . S
Co767 O775 2.074 . S
Co767 O778 2.093 . S
Co767 O791 2.097 . S
Co767 N808 2.151 . S
Co767 N816 2.214 . S
Co768 O769 2.160 . S
Co768 O774 2.058 . S
Co768 O784 2.057 . S
Co768 O799 2.037 . S
Co768 N803 2.145 . S
Co768 N824 2.257 . S
O769 Co767 2.143 . S
O769 Co768 2.160 . S
C770 O771 1.278 . S
C770 O778 1.224 . S
O771 C770 1.278 . S
C772 O773 1.245 . S
C772 O784 1.232 . S
O773 C772 1.245 . S
O774 Co768 2.058 . S
O774 C800 1.269 . S
O775 Co767 2.074 . S
O775 C800 1.257 . S
H776 C801 0.930 . S
H777 C807 0.930 . S
O778 Co767 2.093 . S
O778 C770 1.224 . S
H779 C811 0.929 . S
H780 C813 0.930 . S
H781 C814 0.930 . S
H782 C812 0.929 . S
H783 C815 0.928 . S
O784 Co768 2.057 . S
O784 C772 1.232 . S
H785 C804 0.929 . S
H786 C805 0.929 . S
H787 C817 0.931 . S
H788 C809 0.929 . S
H789 C818 0.930 . S
H790 C810 0.931 . S
O791 Co767 2.097 . S
O791 C819 1.214 . S
H792 C820 0.929 . S
H793 C821 0.929 . S
H794 C822 0.930 . S
H795 C823 0.929 . S
H796 C825 0.930 . S
H797 C802 0.930 1_545 S
H798 C806 0.930 . S
O799 Co768 2.037 . S
O799 C819 1.234 . S
C800 O774 1.269 . S
C800 O775 1.257 . S
C801 H776 0.930 . S
C801 C804 1.388 . S
C801 C806 1.418 . S
C802 H797 0.930 1_565 S
C802 C805 1.404 . S
C802 C806 1.353 . S
N803 Co768 2.145 . S
N803 C804 1.397 . S
N803 C805 1.334 . S
C804 H785 0.929 . S
C804 C801 1.388 . S
C804 N803 1.397 . S
C805 H786 0.929 . S
C805 C802 1.404 . S
C805 N803 1.334 . S
C806 H798 0.930 . S
C806 C801 1.418 . S
C806 C802 1.353 . S
C807 H777 0.930 . S
C807 N808 1.330 . S
C807 C809 1.446 . S
N808 Co767 2.151 . S
N808 C807 1.330 . S
N808 C812 1.418 . S
C809 H788 0.929 . S
C809 C807 1.446 . S
C809 C810 1.332 . S
C810 H790 0.931 . S
C810 C809 1.332 . S
C810 C811 1.267 . S
C811 H779 0.929 . S
C811 C810 1.267 . S
C811 C812 1.251 . S
C812 H782 0.929 . S
C812 N808 1.418 . S
C812 C811 1.251 . S
C813 H780 0.930 . S
C813 C815 1.406 . S
C813 C818 1.261 . S
C814 H781 0.930 . S
C814 N816 1.325 . S
C814 C817 1.357 . S
C815 H783 0.928 . S
C815 C813 1.406 . S
C815 N816 1.261 . S
N816 Co767 2.214 . S
N816 C814 1.325 . S
N816 C815 1.261 . S
C817 H787 0.931 . S
C817 C814 1.357 . S
C817 C818 1.312 . S
C818 H789 0.930 . S
C818 C813 1.261 . S
C818 C817 1.312 . S
C819 O791 1.214 . S
C819 O799 1.234 . S
C820 H792 0.929 . S
C820 C823 1.391 . S
C820 C825 1.391 . S
C821 H793 0.929 . S
C821 C822 1.390 . S
C821 N824 1.391 . S
C822 H794 0.930 . S
C822 C821 1.390 . S
C822 C823 1.392 . S
C823 H795 0.929 . S
C823 C820 1.391 . S
C823 C822 1.392 . S
N824 Co768 2.257 . S
N824 C821 1.391 . S
N824 C825 1.388 . S
C825 H796 0.930 . S
C825 C820 1.391 . S
C825 N824 1.388 . S
Co826 O828 2.143 . S
Co826 O834 2.074 . S
Co826 O837 2.093 . S
Co826 O850 2.097 . S
Co826 N867 2.151 . S
Co826 N875 2.214 . S
Co827 O828 2.160 . S
Co827 O833 2.058 . S
Co827 O843 2.057 . S
Co827 O858 2.037 . S
Co827 N862 2.145 . S
Co827 N883 2.257 . S
O828 Co826 2.143 . S
O828 Co827 2.160 . S
C829 O830 1.278 . S
C829 O837 1.224 . S
O830 C829 1.278 . S
C831 O832 1.245 . S
C831 O843 1.232 . S
O832 C831 1.245 . S
O833 Co827 2.058 . S
O833 C859 1.269 . S
O834 Co826 2.074 . S
O834 C859 1.257 . S
H835 C860 0.930 . S
H836 C866 0.930 . S
O837 Co826 2.093 . S
O837 C829 1.224 . S
H838 C870 0.929 . S
H839 C872 0.930 . S
H840 C873 0.930 . S
H841 C871 0.929 . S
H842 C874 0.928 . S
O843 Co827 2.057 . S
O843 C831 1.232 . S
H844 C863 0.929 . S
H845 C864 0.929 . S
H846 C876 0.931 . S
H847 C868 0.929 . S
H848 C877 0.930 . S
H849 C869 0.931 . S
O850 Co826 2.097 . S
O850 C878 1.214 . S
H851 C879 0.929 . S
H852 C880 0.929 . S
H853 C881 0.930 . S
H854 C882 0.929 . S
H855 C884 0.930 . S
H856 C861 0.930 1_655 S
H857 C865 0.930 . S
O858 Co827 2.037 . S
O858 C878 1.234 . S
C859 O833 1.269 . S
C859 O834 1.257 . S
C860 H835 0.930 . S
C860 C863 1.388 . S
C860 C865 1.418 . S
C861 H856 0.930 1_455 S
C861 C864 1.404 . S
C861 C865 1.353 . S
N862 Co827 2.145 . S
N862 C863 1.397 . S
N862 C864 1.334 . S
C863 H844 0.929 . S
C863 C860 1.388 . S
C863 N862 1.397 . S
C864 H845 0.929 . S
C864 C861 1.404 . S
C864 N862 1.334 . S
C865 H857 0.930 . S
C865 C860 1.418 . S
C865 C861 1.353 . S
C866 H836 0.930 . S
C866 N867 1.330 . S
C866 C868 1.446 . S
N867 Co826 2.151 . S
N867 C866 1.330 . S
N867 C871 1.418 . S
C868 H847 0.929 . S
C868 C866 1.446 . S
C868 C869 1.332 . S
C869 H849 0.931 . S
C869 C868 1.332 . S
C869 C870 1.267 . S
C870 H838 0.929 . S
C870 C869 1.267 . S
C870 C871 1.251 . S
C871 H841 0.929 . S
C871 N867 1.418 . S
C871 C870 1.251 . S
C872 H839 0.930 . S
C872 C874 1.406 . S
C872 C877 1.261 . S
C873 H840 0.930 . S
C873 N875 1.325 . S
C873 C876 1.357 . S
C874 H842 0.928 . S
C874 C872 1.406 . S
C874 N875 1.261 . S
N875 Co826 2.214 . S
N875 C873 1.325 . S
N875 C874 1.261 . S
C876 H846 0.931 . S
C876 C873 1.357 . S
C876 C877 1.312 . S
C877 H848 0.930 . S
C877 C872 1.261 . S
C877 C876 1.312 . S
C878 O850 1.214 . S
C878 O858 1.234 . S
C879 H851 0.929 . S
C879 C882 1.391 . S
C879 C884 1.391 . S
C880 H852 0.929 . S
C880 C881 1.390 . S
C880 N883 1.391 . S
C881 H853 0.930 . S
C881 C880 1.390 . S
C881 C882 1.392 . S
C882 H854 0.929 . S
C882 C879 1.391 . S
C882 C881 1.392 . S
N883 Co827 2.257 . S
N883 C880 1.391 . S
N883 C884 1.388 . S
C884 H855 0.930 . S
C884 C879 1.391 . S
C884 N883 1.388 . S
Co885 O887 2.143 . S
Co885 O893 2.074 . S
Co885 O896 2.093 . S
Co885 O909 2.097 . S
Co885 N926 2.151 . S
Co885 N934 2.214 . S
Co886 O887 2.160 . S
Co886 O892 2.058 . S
Co886 O902 2.057 . S
Co886 O917 2.037 . S
Co886 N921 2.145 . S
Co886 N942 2.257 . S
O887 Co885 2.143 . S
O887 Co886 2.160 . S
C888 O889 1.278 . S
C888 O896 1.224 . S
O889 C888 1.278 . S
C890 O891 1.245 . S
C890 O902 1.232 . S
O891 C890 1.245 . S
O892 Co886 2.058 . S
O892 C918 1.269 . S
O893 Co885 2.074 . S
O893 C918 1.257 . S
H894 C919 0.930 . S
H895 C925 0.930 . S
O896 Co885 2.093 . S
O896 C888 1.224 . S
H897 C929 0.929 . S
H898 C931 0.930 . S
H899 C932 0.930 . S
H900 C930 0.929 . S
H901 C933 0.928 . S
O902 Co886 2.057 . S
O902 C890 1.232 . S
H903 C922 0.929 . S
H904 C923 0.929 . S
H905 C935 0.931 . S
H906 C927 0.929 . S
H907 C936 0.930 . S
H908 C928 0.931 . S
O909 Co885 2.097 . S
O909 C937 1.214 . S
H910 C938 0.929 . S
H911 C939 0.929 . S
H912 C940 0.930 . S
H913 C941 0.929 . S
H914 C943 0.930 . S
H915 C920 0.930 1_565 S
H916 C924 0.930 . S
O917 Co886 2.037 . S
O917 C937 1.234 . S
C918 O892 1.269 . S
C918 O893 1.257 . S
C919 H894 0.930 . S
C919 C922 1.388 . S
C919 C924 1.418 . S
C920 H915 0.930 1_545 S
C920 C923 1.404 . S
C920 C924 1.353 . S
N921 Co886 2.145 . S
N921 C922 1.397 . S
N921 C923 1.334 . S
C922 H903 0.929 . S
C922 C919 1.388 . S
C922 N921 1.397 . S
C923 H904 0.929 . S
C923 C920 1.404 . S
C923 N921 1.334 . S
C924 H916 0.930 . S
C924 C919 1.418 . S
C924 C920 1.353 . S
C925 H895 0.930 . S
C925 N926 1.330 . S
C925 C927 1.446 . S
N926 Co885 2.151 . S
N926 C925 1.330 . S
N926 C930 1.418 . S
C927 H906 0.929 . S
C927 C925 1.446 . S
C927 C928 1.332 . S
C928 H908 0.931 . S
C928 C927 1.332 . S
C928 C929 1.267 . S
C929 H897 0.929 . S
C929 C928 1.267 . S
C929 C930 1.251 . S
C930 H900 0.929 . S
C930 N926 1.418 . S
C930 C929 1.251 . S
C931 H898 0.930 . S
C931 C933 1.406 . S
C931 C936 1.261 . S
C932 H899 0.930 . S
C932 N934 1.325 . S
C932 C935 1.357 . S
C933 H901 0.928 . S
C933 C931 1.406 . S
C933 N934 1.261 . S
N934 Co885 2.214 . S
N934 C932 1.325 . S
N934 C933 1.261 . S
C935 H905 0.931 . S
C935 C932 1.357 . S
C935 C936 1.312 . S
C936 H907 0.930 . S
C936 C931 1.261 . S
C936 C935 1.312 . S
C937 O909 1.214 . S
C937 O917 1.234 . S
C938 H910 0.929 . S
C938 C941 1.391 . S
C938 C943 1.391 . S
C939 H911 0.929 . S
C939 C940 1.390 . S
C939 N942 1.391 . S
C940 H912 0.930 . S
C940 C939 1.390 . S
C940 C941 1.392 . S
C941 H913 0.929 . S
C941 C938 1.391 . S
C941 C940 1.392 . S
N942 Co886 2.257 . S
N942 C939 1.391 . S
N942 C943 1.388 . S
C943 H914 0.930 . S
C943 C938 1.391 . S
C943 N942 1.388 . S
Co944 O946 2.143 . S
Co944 O952 2.074 . S
Co944 O955 2.093 . S
Co944 O968 2.097 . S
Co944 N985 2.151 . S
Co944 N993 2.214 . S
Co945 O946 2.160 . S
Co945 O951 2.058 . S
Co945 O961 2.057 . S
Co945 O976 2.037 . S
Co945 N980 2.145 . S
Co945 N1001 2.257 . S
O946 Co944 2.143 . S
O946 Co945 2.160 . S
C947 O948 1.278 . S
C947 O955 1.224 . S
O948 C947 1.278 . S
C949 O950 1.245 . S
C949 O961 1.232 . S
O950 C949 1.245 . S
O951 Co945 2.058 . S
O951 C977 1.269 . S
O952 Co944 2.074 . S
O952 C977 1.257 . S
H953 C978 0.930 1_554 S
H954 C984 0.930 . S
O955 Co944 2.093 . S
O955 C947 1.224 . S
H956 C988 0.929 . S
H957 C990 0.930 . S
H958 C991 0.930 . S
H959 C989 0.929 . S
H960 C992 0.928 . S
O961 Co945 2.057 . S
O961 C949 1.232 . S
H962 C981 0.929 . S
H963 C982 0.929 . S
H964 C994 0.931 . S
H965 C986 0.929 . S
H966 C995 0.930 . S
H967 C987 0.931 1_545 S
O968 Co944 2.097 . S
O968 C996 1.214 . S
H969 C997 0.929 . S
H970 C998 0.929 . S
H971 C999 0.930 . S
H972 C1000 0.929 . S
H973 C1002 0.930 . S
H974 C979 0.930 . S
H975 C983 0.930 . S
O976 Co945 2.037 . S
O976 C996 1.234 . S
C977 O951 1.269 . S
C977 O952 1.257 . S
C978 H953 0.930 1_556 S
C978 C981 1.388 . S
C978 C983 1.418 . S
C979 H974 0.930 . S
C979 C982 1.404 . S
C979 C983 1.353 . S
N980 Co945 2.145 . S
N980 C981 1.397 . S
N980 C982 1.334 . S
C981 H962 0.929 . S
C981 C978 1.388 . S
C981 N980 1.397 . S
C982 H963 0.929 . S
C982 C979 1.404 . S
C982 N980 1.334 . S
C983 H975 0.930 . S
C983 C978 1.418 . S
C983 C979 1.353 . S
C984 H954 0.930 . S
C984 N985 1.330 . S
C984 C986 1.446 . S
N985 Co944 2.151 . S
N985 C984 1.330 . S
N985 C989 1.418 . S
C986 H965 0.929 . S
C986 C984 1.446 . S
C986 C987 1.332 . S
C987 H967 0.931 1_565 S
C987 C986 1.332 . S
C987 C988 1.267 . S
C988 H956 0.929 . S
C988 C987 1.267 . S
C988 C989 1.251 . S
C989 H959 0.929 . S
C989 N985 1.418 . S
C989 C988 1.251 . S
C990 H957 0.930 . S
C990 C992 1.406 . S
C990 C995 1.261 . S
C991 H958 0.930 . S
C991 N993 1.325 . S
C991 C994 1.357 . S
C992 H960 0.928 . S
C992 C990 1.406 . S
C992 N993 1.261 . S
N993 Co944 2.214 . S
N993 C991 1.325 . S
N993 C992 1.261 . S
C994 H964 0.931 . S
C994 C991 1.357 . S
C994 C995 1.312 . S
C995 H966 0.930 . S
C995 C990 1.261 . S
C995 C994 1.312 . S
C996 O968 1.214 . S
C996 O976 1.234 . S
C997 H969 0.929 . S
C997 C1000 1.391 . S
C997 C1002 1.391 . S
C998 H970 0.929 . S
C998 C999 1.390 . S
C998 N1001 1.391 . S
C999 H971 0.930 . S
C999 C998 1.390 . S
C999 C1000 1.392 . S
C1000 H972 0.929 . S
C1000 C997 1.391 . S
C1000 C999 1.392 . S
N1001 Co945 2.257 . S
N1001 C998 1.391 . S
N1001 C1002 1.388 . S
C1002 H973 0.930 . S
C1002 C997 1.391 . S
C1002 N1001 1.388 . S
Co1003 O1005 2.143 . S
Co1003 O1011 2.074 . S
Co1003 O1014 2.093 . S
Co1003 O1027 2.097 . S
Co1003 N1044 2.151 . S
Co1003 N1052 2.214 . S
Co1004 O1005 2.160 . S
Co1004 O1010 2.058 . S
Co1004 O1020 2.057 . S
Co1004 O1035 2.037 . S
Co1004 N1039 2.145 . S
Co1004 N1060 2.257 . S
O1005 Co1003 2.143 . S
O1005 Co1004 2.160 . S
C1006 O1007 1.278 . S
C1006 O1014 1.224 . S
O1007 C1006 1.278 . S
C1008 O1009 1.245 . S
C1008 O1020 1.232 . S
O1009 C1008 1.245 . S
O1010 Co1004 2.058 . S
O1010 C1036 1.269 . S
O1011 Co1003 2.074 . S
O1011 C1036 1.257 . S
H1012 C1037 0.930 1_554 S
H1013 C1043 0.930 . S
O1014 Co1003 2.093 . S
O1014 C1006 1.224 . S
H1015 C1047 0.929 . S
H1016 C1049 0.930 . S
H1017 C1050 0.930 . S
H1018 C1048 0.929 . S
H1019 C1051 0.928 . S
O1020 Co1004 2.057 . S
O1020 C1008 1.232 . S
H1021 C1040 0.929 . S
H1022 C1041 0.929 . S
H1023 C1053 0.931 . S
H1024 C1045 0.929 . S
H1025 C1054 0.930 . S
H1026 C1046 0.931 1_655 S
O1027 Co1003 2.097 . S
O1027 C1055 1.214 . S
H1028 C1056 0.929 . S
H1029 C1057 0.929 . S
H1030 C1058 0.930 . S
H1031 C1059 0.929 . S
H1032 C1061 0.930 . S
H1033 C1038 0.930 . S
H1034 C1042 0.930 . S
O1035 Co1004 2.037 . S
O1035 C1055 1.234 . S
C1036 O1010 1.269 . S
C1036 O1011 1.257 . S
C1037 H1012 0.930 1_556 S
C1037 C1040 1.388 . S
C1037 C1042 1.418 . S
C1038 H1033 0.930 . S
C1038 C1041 1.404 . S
C1038 C1042 1.353 . S
N1039 Co1004 2.145 . S
N1039 C1040 1.397 . S
N1039 C1041 1.334 . S
C1040 H1021 0.929 . S
C1040 C1037 1.388 . S
C1040 N1039 1.397 . S
C1041 H1022 0.929 . S
C1041 C1038 1.404 . S
C1041 N1039 1.334 . S
C1042 H1034 0.930 . S
C1042 C1037 1.418 . S
C1042 C1038 1.353 . S
C1043 H1013 0.930 . S
C1043 N1044 1.330 . S
C1043 C1045 1.446 . S
N1044 Co1003 2.151 . S
N1044 C1043 1.330 . S
N1044 C1048 1.418 . S
C1045 H1024 0.929 . S
C1045 C1043 1.446 . S
C1045 C1046 1.332 . S
C1046 H1026 0.931 1_455 S
C1046 C1045 1.332 . S
C1046 C1047 1.267 . S
C1047 H1015 0.929 . S
C1047 C1046 1.267 . S
C1047 C1048 1.251 . S
C1048 H1018 0.929 . S
C1048 N1044 1.418 . S
C1048 C1047 1.251 . S
C1049 H1016 0.930 . S
C1049 C1051 1.406 . S
C1049 C1054 1.261 . S
C1050 H1017 0.930 . S
C1050 N1052 1.325 . S
C1050 C1053 1.357 . S
C1051 H1019 0.928 . S
C1051 C1049 1.406 . S
C1051 N1052 1.261 . S
N1052 Co1003 2.214 . S
N1052 C1050 1.325 . S
N1052 C1051 1.261 . S
C1053 H1023 0.931 . S
C1053 C1050 1.357 . S
C1053 C1054 1.312 . S
C1054 H1025 0.930 . S
C1054 C1049 1.261 . S
C1054 C1053 1.312 . S
C1055 O1027 1.214 . S
C1055 O1035 1.234 . S
C1056 H1028 0.929 . S
C1056 C1059 1.391 . S
C1056 C1061 1.391 . S
C1057 H1029 0.929 . S
C1057 C1058 1.390 . S
C1057 N1060 1.391 . S
C1058 H1030 0.930 . S
C1058 C1057 1.390 . S
C1058 C1059 1.392 . S
C1059 H1031 0.929 . S
C1059 C1056 1.391 . S
C1059 C1058 1.392 . S
N1060 Co1004 2.257 . S
N1060 C1057 1.391 . S
N1060 C1061 1.388 . S
C1061 H1032 0.930 . S
C1061 C1056 1.391 . S
C1061 N1060 1.388 . S
Co1062 O1064 2.143 . S
Co1062 O1070 2.074 . S
Co1062 O1073 2.093 . S
Co1062 O1086 2.097 . S
Co1062 N1103 2.151 . S
Co1062 N1111 2.214 . S
Co1063 O1064 2.160 . S
Co1063 O1069 2.058 . S
Co1063 O1079 2.057 . S
Co1063 O1094 2.037 . S
Co1063 N1098 2.145 . S
Co1063 N1119 2.257 . S
O1064 Co1062 2.143 . S
O1064 Co1063 2.160 . S
C1065 O1066 1.278 . S
C1065 O1073 1.224 . S
O1066 C1065 1.278 . S
C1067 O1068 1.245 . S
C1067 O1079 1.232 . S
O1068 C1067 1.245 . S
O1069 Co1063 2.058 . S
O1069 C1095 1.269 . S
O1070 Co1062 2.074 . S
O1070 C1095 1.257 . S
H1071 C1096 0.930 1_554 S
H1072 C1102 0.930 . S
O1073 Co1062 2.093 . S
O1073 C1065 1.224 . S
H1074 C1106 0.929 . S
H1075 C1108 0.930 . S
H1076 C1109 0.930 . S
H1077 C1107 0.929 . S
H1078 C1110 0.928 . S
O1079 Co1063 2.057 . S
O1079 C1067 1.232 . S
H1080 C1099 0.929 . S
H1081 C1100 0.929 . S
H1082 C1112 0.931 . S
H1083 C1104 0.929 . S
H1084 C1113 0.930 . S
H1085 C1105 0.931 1_565 S
O1086 Co1062 2.097 . S
O1086 C1114 1.214 . S
H1087 C1115 0.929 . S
H1088 C1116 0.929 . S
H1089 C1117 0.930 . S
H1090 C1118 0.929 . S
H1091 C1120 0.930 . S
H1092 C1097 0.930 . S
H1093 C1101 0.930 . S
O1094 Co1063 2.037 . S
O1094 C1114 1.234 . S
C1095 O1069 1.269 . S
C1095 O1070 1.257 . S
C1096 H1071 0.930 1_556 S
C1096 C1099 1.388 . S
C1096 C1101 1.418 . S
C1097 H1092 0.930 . S
C1097 C1100 1.404 . S
C1097 C1101 1.353 . S
N1098 Co1063 2.145 . S
N1098 C1099 1.397 . S
N1098 C1100 1.334 . S
C1099 H1080 0.929 . S
C1099 C1096 1.388 . S
C1099 N1098 1.397 . S
C1100 H1081 0.929 . S
C1100 C1097 1.404 . S
C1100 N1098 1.334 . S
C1101 H1093 0.930 . S
C1101 C1096 1.418 . S
C1101 C1097 1.353 . S
C1102 H1072 0.930 . S
C1102 N1103 1.330 . S
C1102 C1104 1.446 . S
N1103 Co1062 2.151 . S
N1103 C1102 1.330 . S
N1103 C1107 1.418 . S
C1104 H1083 0.929 . S
C1104 C1102 1.446 . S
C1104 C1105 1.332 . S
C1105 H1085 0.931 1_545 S
C1105 C1104 1.332 . S
C1105 C1106 1.267 . S
C1106 H1074 0.929 . S
C1106 C1105 1.267 . S
C1106 C1107 1.251 . S
C1107 H1077 0.929 . S
C1107 N1103 1.418 . S
C1107 C1106 1.251 . S
C1108 H1075 0.930 . S
C1108 C1110 1.406 . S
C1108 C1113 1.261 . S
C1109 H1076 0.930 . S
C1109 N1111 1.325 . S
C1109 C1112 1.357 . S
C1110 H1078 0.928 . S
C1110 C1108 1.406 . S
C1110 N1111 1.261 . S
N1111 Co1062 2.214 . S
N1111 C1109 1.325 . S
N1111 C1110 1.261 . S
C1112 H1082 0.931 . S
C1112 C1109 1.357 . S
C1112 C1113 1.312 . S
C1113 H1084 0.930 . S
C1113 C1108 1.261 . S
C1113 C1112 1.312 . S
C1114 O1086 1.214 . S
C1114 O1094 1.234 . S
C1115 H1087 0.929 . S
C1115 C1118 1.391 . S
C1115 C1120 1.391 . S
C1116 H1088 0.929 . S
C1116 C1117 1.390 . S
C1116 N1119 1.391 . S
C1117 H1089 0.930 . S
C1117 C1116 1.390 . S
C1117 C1118 1.392 . S
C1118 H1090 0.929 . S
C1118 C1115 1.391 . S
C1118 C1117 1.392 . S
N1119 Co1063 2.257 . S
N1119 C1116 1.391 . S
N1119 C1120 1.388 . S
C1120 H1091 0.930 . S
C1120 C1115 1.391 . S
C1120 N1119 1.388 . S
Co1121 O1123 2.143 . S
Co1121 O1129 2.074 . S
Co1121 O1132 2.093 . S
Co1121 O1145 2.097 . S
Co1121 N1162 2.151 . S
Co1121 N1170 2.214 . S
Co1122 O1123 2.160 . S
Co1122 O1128 2.058 . S
Co1122 O1138 2.057 . S
Co1122 O1153 2.037 . S
Co1122 N1157 2.145 . S
Co1122 N1178 2.257 . S
O1123 Co1121 2.143 . S
O1123 Co1122 2.160 . S
C1124 O1125 1.278 . S
C1124 O1132 1.224 . S
O1125 C1124 1.278 . S
C1126 O1127 1.245 . S
C1126 O1138 1.232 . S
O1127 C1126 1.245 . S
O1128 Co1122 2.058 . S
O1128 C1154 1.269 . S
O1129 Co1121 2.074 . S
O1129 C1154 1.257 . S
H1130 C1155 0.930 1_554 S
H1131 C1161 0.930 . S
O1132 Co1121 2.093 . S
O1132 C1124 1.224 . S
H1133 C1165 0.929 . S
H1134 C1167 0.930 . S
H1135 C1168 0.930 . S
H1136 C1166 0.929 . S
H1137 C1169 0.928 . S
O1138 Co1122 2.057 . S
O1138 C1126 1.232 . S
H1139 C1158 0.929 . S
H1140 C1159 0.929 . S
H1141 C1171 0.931 . S
H1142 C1163 0.929 . S
H1143 C1172 0.930 . S
H1144 C1164 0.931 1_455 S
O1145 Co1121 2.097 . S
O1145 C1173 1.214 . S
H1146 C1174 0.929 . S
H1147 C1175 0.929 . S
H1148 C1176 0.930 . S
H1149 C1177 0.929 . S
H1150 C1179 0.930 . S
H1151 C1156 0.930 . S
H1152 C1160 0.930 . S
O1153 Co1122 2.037 . S
O1153 C1173 1.234 . S
C1154 O1128 1.269 . S
C1154 O1129 1.257 . S
C1155 H1130 0.930 1_556 S
C1155 C1158 1.388 . S
C1155 C1160 1.418 . S
C1156 H1151 0.930 . S
C1156 C1159 1.404 . S
C1156 C1160 1.353 . S
N1157 Co1122 2.145 . S
N1157 C1158 1.397 . S
N1157 C1159 1.334 . S
C1158 H1139 0.929 . S
C1158 C1155 1.388 . S
C1158 N1157 1.397 . S
C1159 H1140 0.929 . S
C1159 C1156 1.404 . S
C1159 N1157 1.334 . S
C1160 H1152 0.930 . S
C1160 C1155 1.418 . S
C1160 C1156 1.353 . S
C1161 H1131 0.930 . S
C1161 N1162 1.330 . S
C1161 C1163 1.446 . S
N1162 Co1121 2.151 . S
N1162 C1161 1.330 . S
N1162 C1166 1.418 . S
C1163 H1142 0.929 . S
C1163 C1161 1.446 . S
C1163 C1164 1.332 . S
C1164 H1144 0.931 1_655 S
C1164 C1163 1.332 . S
C1164 C1165 1.267 . S
C1165 H1133 0.929 . S
C1165 C1164 1.267 . S
C1165 C1166 1.251 . S
C1166 H1136 0.929 . S
C1166 N1162 1.418 . S
C1166 C1165 1.251 . S
C1167 H1134 0.930 . S
C1167 C1169 1.406 . S
C1167 C1172 1.261 . S
C1168 H1135 0.930 . S
C1168 N1170 1.325 . S
C1168 C1171 1.357 . S
C1169 H1137 0.928 . S
C1169 C1167 1.406 . S
C1169 N1170 1.261 . S
N1170 Co1121 2.214 . S
N1170 C1168 1.325 . S
N1170 C1169 1.261 . S
C1171 H1141 0.931 . S
C1171 C1168 1.357 . S
C1171 C1172 1.312 . S
C1172 H1143 0.930 . S
C1172 C1167 1.261 . S
C1172 C1171 1.312 . S
C1173 O1145 1.214 . S
C1173 O1153 1.234 . S
C1174 H1146 0.929 . S
C1174 C1177 1.391 . S
C1174 C1179 1.391 . S
C1175 H1147 0.929 . S
C1175 C1176 1.390 . S
C1175 N1178 1.391 . S
C1176 H1148 0.930 . S
C1176 C1175 1.390 . S
C1176 C1177 1.392 . S
C1177 H1149 0.929 . S
C1177 C1174 1.391 . S
C1177 C1176 1.392 . S
N1178 Co1122 2.257 . S
N1178 C1175 1.391 . S
N1178 C1179 1.388 . S
C1179 H1150 0.930 . S
C1179 C1174 1.391 . S
C1179 N1178 1.388 . S
Co1180 O1182 2.143 . S
Co1180 O1188 2.074 . S
Co1180 O1191 2.093 . S
Co1180 O1204 2.097 . S
Co1180 N1221 2.151 . S
Co1180 N1229 2.214 . S
Co1181 O1182 2.160 . S
Co1181 O1187 2.058 . S
Co1181 O1197 2.057 . S
Co1181 O1212 2.037 . S
Co1181 N1216 2.145 . S
Co1181 N1237 2.257 . S
O1182 Co1180 2.143 . S
O1182 Co1181 2.160 . S
C1183 O1184 1.278 . S
C1183 O1191 1.224 . S
O1184 C1183 1.278 . S
C1185 O1186 1.245 . S
C1185 O1197 1.232 . S
O1186 C1185 1.245 . S
O1187 Co1181 2.058 . S
O1187 C1213 1.269 . S
O1188 Co1180 2.074 . S
O1188 C1213 1.257 . S
H1189 C1214 0.930 1_556 S
H1190 C1220 0.930 . S
O1191 Co1180 2.093 . S
O1191 C1183 1.224 . S
H1192 C1224 0.929 . S
H1193 C1226 0.930 . S
H1194 C1227 0.930 . S
H1195 C1225 0.929 . S
H1196 C1228 0.928 . S
O1197 Co1181 2.057 . S
O1197 C1185 1.232 . S
H1198 C1217 0.929 . S
H1199 C1218 0.929 . S
H1200 C1230 0.931 . S
H1201 C1222 0.929 . S
H1202 C1231 0.930 . S
H1203 C1223 0.931 1_565 S
O1204 Co1180 2.097 . S
O1204 C1232 1.214 . S
H1205 C1233 0.929 . S
H1206 C1234 0.929 . S
H1207 C1235 0.930 . S
H1208 C1236 0.929 . S
H1209 C1238 0.930 . S
H1210 C1215 0.930 . S
H1211 C1219 0.930 . S
O1212 Co1181 2.037 . S
O1212 C1232 1.234 . S
C1213 O1187 1.269 . S
C1213 O1188 1.257 . S
C1214 H1189 0.930 1_554 S
C1214 C1217 1.388 . S
C1214 C1219 1.418 . S
C1215 H1210 0.930 . S
C1215 C1218 1.404 . S
C1215 C1219 1.353 . S
N1216 Co1181 2.145 . S
N1216 C1217 1.397 . S
N1216 C1218 1.334 . S
C1217 H1198 0.929 . S
C1217 C1214 1.388 . S
C1217 N1216 1.397 . S
C1218 H1199 0.929 . S
C1218 C1215 1.404 . S
C1218 N1216 1.334 . S
C1219 H1211 0.930 . S
C1219 C1214 1.418 . S
C1219 C1215 1.353 . S
C1220 H1190 0.930 . S
C1220 N1221 1.330 . S
C1220 C1222 1.446 . S
N1221 Co1180 2.151 . S
N1221 C1220 1.330 . S
N1221 C1225 1.418 . S
C1222 H1201 0.929 . S
C1222 C1220 1.446 . S
C1222 C1223 1.332 . S
C1223 H1203 0.931 1_545 S
C1223 C1222 1.332 . S
C1223 C1224 1.267 . S
C1224 H1192 0.929 . S
C1224 C1223 1.267 . S
C1224 C1225 1.251 . S
C1225 H1195 0.929 . S
C1225 N1221 1.418 . S
C1225 C1224 1.251 . S
C1226 H1193 0.930 . S
C1226 C1228 1.406 . S
C1226 C1231 1.261 . S
C1227 H1194 0.930 . S
C1227 N1229 1.325 . S
C1227 C1230 1.357 . S
C1228 H1196 0.928 . S
C1228 C1226 1.406 . S
C1228 N1229 1.261 . S
N1229 Co1180 2.214 . S
N1229 C1227 1.325 . S
N1229 C1228 1.261 . S
C1230 H1200 0.931 . S
C1230 C1227 1.357 . S
C1230 C1231 1.312 . S
C1231 H1202 0.930 . S
C1231 C1226 1.261 . S
C1231 C1230 1.312 . S
C1232 O1204 1.214 . S
C1232 O1212 1.234 . S
C1233 H1205 0.929 . S
C1233 C1236 1.391 . S
C1233 C1238 1.391 . S
C1234 H1206 0.929 . S
C1234 C1235 1.390 . S
C1234 N1237 1.391 . S
C1235 H1207 0.930 . S
C1235 C1234 1.390 . S
C1235 C1236 1.392 . S
C1236 H1208 0.929 . S
C1236 C1233 1.391 . S
C1236 C1235 1.392 . S
N1237 Co1181 2.257 . S
N1237 C1234 1.391 . S
N1237 C1238 1.388 . S
C1238 H1209 0.930 . S
C1238 C1233 1.391 . S
C1238 N1237 1.388 . S
Co1239 O1241 2.143 . S
Co1239 O1247 2.074 . S
Co1239 O1250 2.093 . S
Co1239 O1263 2.097 . S
Co1239 N1280 2.151 . S
Co1239 N1288 2.214 . S
Co1240 O1241 2.160 . S
Co1240 O1246 2.058 . S
Co1240 O1256 2.057 . S
Co1240 O1271 2.037 . S
Co1240 N1275 2.145 . S
Co1240 N1296 2.257 . S
O1241 Co1239 2.143 . S
O1241 Co1240 2.160 . S
C1242 O1243 1.278 . S
C1242 O1250 1.224 . S
O1243 C1242 1.278 . S
C1244 O1245 1.245 . S
C1244 O1256 1.232 . S
O1245 C1244 1.245 . S
O1246 Co1240 2.058 . S
O1246 C1272 1.269 . S
O1247 Co1239 2.074 . S
O1247 C1272 1.257 . S
H1248 C1273 0.930 1_556 S
H1249 C1279 0.930 . S
O1250 Co1239 2.093 . S
O1250 C1242 1.224 . S
H1251 C1283 0.929 . S
H1252 C1285 0.930 . S
H1253 C1286 0.930 . S
H1254 C1284 0.929 . S
H1255 C1287 0.928 . S
O1256 Co1240 2.057 . S
O1256 C1244 1.232 . S
H1257 C1276 0.929 . S
H1258 C1277 0.929 . S
H1259 C1289 0.931 . S
H1260 C1281 0.929 . S
H1261 C1290 0.930 . S
H1262 C1282 0.931 1_455 S
O1263 Co1239 2.097 . S
O1263 C1291 1.214 . S
H1264 C1292 0.929 . S
H1265 C1293 0.929 . S
H1266 C1294 0.930 . S
H1267 C1295 0.929 . S
H1268 C1297 0.930 . S
H1269 C1274 0.930 . S
H1270 C1278 0.930 . S
O1271 Co1240 2.037 . S
O1271 C1291 1.234 . S
C1272 O1246 1.269 . S
C1272 O1247 1.257 . S
C1273 H1248 0.930 1_554 S
C1273 C1276 1.388 . S
C1273 C1278 1.418 . S
C1274 H1269 0.930 . S
C1274 C1277 1.404 . S
C1274 C1278 1.353 . S
N1275 Co1240 2.145 . S
N1275 C1276 1.397 . S
N1275 C1277 1.334 . S
C1276 H1257 0.929 . S
C1276 C1273 1.388 . S
C1276 N1275 1.397 . S
C1277 H1258 0.929 . S
C1277 C1274 1.404 . S
C1277 N1275 1.334 . S
C1278 H1270 0.930 . S
C1278 C1273 1.418 . S
C1278 C1274 1.353 . S
C1279 H1249 0.930 . S
C1279 N1280 1.330 . S
C1279 C1281 1.446 . S
N1280 Co1239 2.151 . S
N1280 C1279 1.330 . S
N1280 C1284 1.418 . S
C1281 H1260 0.929 . S
C1281 C1279 1.446 . S
C1281 C1282 1.332 . S
C1282 H1262 0.931 1_655 S
C1282 C1281 1.332 . S
C1282 C1283 1.267 . S
C1283 H1251 0.929 . S
C1283 C1282 1.267 . S
C1283 C1284 1.251 . S
C1284 H1254 0.929 . S
C1284 N1280 1.418 . S
C1284 C1283 1.251 . S
C1285 H1252 0.930 . S
C1285 C1287 1.406 . S
C1285 C1290 1.261 . S
C1286 H1253 0.930 . S
C1286 N1288 1.325 . S
C1286 C1289 1.357 . S
C1287 H1255 0.928 . S
C1287 C1285 1.406 . S
C1287 N1288 1.261 . S
N1288 Co1239 2.214 . S
N1288 C1286 1.325 . S
N1288 C1287 1.261 . S
C1289 H1259 0.931 . S
C1289 C1286 1.357 . S
C1289 C1290 1.312 . S
C1290 H1261 0.930 . S
C1290 C1285 1.261 . S
C1290 C1289 1.312 . S
C1291 O1263 1.214 . S
C1291 O1271 1.234 . S
C1292 H1264 0.929 . S
C1292 C1295 1.391 . S
C1292 C1297 1.391 . S
C1293 H1265 0.929 . S
C1293 C1294 1.390 . S
C1293 N1296 1.391 . S
C1294 H1266 0.930 . S
C1294 C1293 1.390 . S
C1294 C1295 1.392 . S
C1295 H1267 0.929 . S
C1295 C1292 1.391 . S
C1295 C1294 1.392 . S
N1296 Co1240 2.257 . S
N1296 C1293 1.391 . S
N1296 C1297 1.388 . S
C1297 H1268 0.930 . S
C1297 C1292 1.391 . S
C1297 N1296 1.388 . S
Co1298 O1300 2.143 . S
Co1298 O1306 2.074 . S
Co1298 O1309 2.093 . S
Co1298 O1322 2.097 . S
Co1298 N1339 2.151 . S
Co1298 N1347 2.214 . S
Co1299 O1300 2.160 . S
Co1299 O1305 2.058 . S
Co1299 O1315 2.057 . S
Co1299 O1330 2.037 . S
Co1299 N1334 2.145 . S
Co1299 N1355 2.257 . S
O1300 Co1298 2.143 . S
O1300 Co1299 2.160 . S
C1301 O1302 1.278 . S
C1301 O1309 1.224 . S
O1302 C1301 1.278 . S
C1303 O1304 1.245 . S
C1303 O1315 1.232 . S
O1304 C1303 1.245 . S
O1305 Co1299 2.058 . S
O1305 C1331 1.269 . S
O1306 Co1298 2.074 . S
O1306 C1331 1.257 . S
H1307 C1332 0.930 1_556 S
H1308 C1338 0.930 . S
O1309 Co1298 2.093 . S
O1309 C1301 1.224 . S
H1310 C1342 0.929 . S
H1311 C1344 0.930 . S
H1312 C1345 0.930 . S
H1313 C1343 0.929 . S
H1314 C1346 0.928 . S
O1315 Co1299 2.057 . S
O1315 C1303 1.232 . S
H1316 C1335 0.929 . S
H1317 C1336 0.929 . S
H1318 C1348 0.931 . S
H1319 C1340 0.929 . S
H1320 C1349 0.930 . S
H1321 C1341 0.931 1_545 S
O1322 Co1298 2.097 . S
O1322 C1350 1.214 . S
H1323 C1351 0.929 . S
H1324 C1352 0.929 . S
H1325 C1353 0.930 . S
H1326 C1354 0.929 . S
H1327 C1356 0.930 . S
H1328 C1333 0.930 . S
H1329 C1337 0.930 . S
O1330 Co1299 2.037 . S
O1330 C1350 1.234 . S
C1331 O1305 1.269 . S
C1331 O1306 1.257 . S
C1332 H1307 0.930 1_554 S
C1332 C1335 1.388 . S
C1332 C1337 1.418 . S
C1333 H1328 0.930 . S
C1333 C1336 1.404 . S
C1333 C1337 1.353 . S
N1334 Co1299 2.145 . S
N1334 C1335 1.397 . S
N1334 C1336 1.334 . S
C1335 H1316 0.929 . S
C1335 C1332 1.388 . S
C1335 N1334 1.397 . S
C1336 H1317 0.929 . S
C1336 C1333 1.404 . S
C1336 N1334 1.334 . S
C1337 H1329 0.930 . S
C1337 C1332 1.418 . S
C1337 C1333 1.353 . S
C1338 H1308 0.930 . S
C1338 N1339 1.330 . S
C1338 C1340 1.446 . S
N1339 Co1298 2.151 . S
N1339 C1338 1.330 . S
N1339 C1343 1.418 . S
C1340 H1319 0.929 . S
C1340 C1338 1.446 . S
C1340 C1341 1.332 . S
C1341 H1321 0.931 1_565 S
C1341 C1340 1.332 . S
C1341 C1342 1.267 . S
C1342 H1310 0.929 . S
C1342 C1341 1.267 . S
C1342 C1343 1.251 . S
C1343 H1313 0.929 . S
C1343 N1339 1.418 . S
C1343 C1342 1.251 . S
C1344 H1311 0.930 . S
C1344 C1346 1.406 . S
C1344 C1349 1.261 . S
C1345 H1312 0.930 . S
C1345 N1347 1.325 . S
C1345 C1348 1.357 . S
C1346 H1314 0.928 . S
C1346 C1344 1.406 . S
C1346 N1347 1.261 . S
N1347 Co1298 2.214 . S
N1347 C1345 1.325 . S
N1347 C1346 1.261 . S
C1348 H1318 0.931 . S
C1348 C1345 1.357 . S
C1348 C1349 1.312 . S
C1349 H1320 0.930 . S
C1349 C1344 1.261 . S
C1349 C1348 1.312 . S
C1350 O1322 1.214 . S
C1350 O1330 1.234 . S
C1351 H1323 0.929 . S
C1351 C1354 1.391 . S
C1351 C1356 1.391 . S
C1352 H1324 0.929 . S
C1352 C1353 1.390 . S
C1352 N1355 1.391 . S
C1353 H1325 0.930 . S
C1353 C1352 1.390 . S
C1353 C1354 1.392 . S
C1354 H1326 0.929 . S
C1354 C1351 1.391 . S
C1354 C1353 1.392 . S
N1355 Co1299 2.257 . S
N1355 C1352 1.391 . S
N1355 C1356 1.388 . S
C1356 H1327 0.930 . S
C1356 C1351 1.391 . S
C1356 N1355 1.388 . S
Co1357 O1359 2.143 . S
Co1357 O1365 2.074 . S
Co1357 O1368 2.093 . S
Co1357 O1381 2.097 . S
Co1357 N1398 2.151 . S
Co1357 N1406 2.214 . S
Co1358 O1359 2.160 . S
Co1358 O1364 2.058 . S
Co1358 O1374 2.057 . S
Co1358 O1389 2.037 . S
Co1358 N1393 2.145 . S
Co1358 N1414 2.257 . S
O1359 Co1357 2.143 . S
O1359 Co1358 2.160 . S
C1360 O1361 1.278 . S
C1360 O1368 1.224 . S
O1361 C1360 1.278 . S
C1362 O1363 1.245 . S
C1362 O1374 1.232 . S
O1363 C1362 1.245 . S
O1364 Co1358 2.058 . S
O1364 C1390 1.269 . S
O1365 Co1357 2.074 . S
O1365 C1390 1.257 . S
H1366 C1391 0.930 1_556 S
H1367 C1397 0.930 . S
O1368 Co1357 2.093 . S
O1368 C1360 1.224 . S
H1369 C1401 0.929 . S
H1370 C1403 0.930 . S
H1371 C1404 0.930 . S
H1372 C1402 0.929 . S
H1373 C1405 0.928 . S
O1374 Co1358 2.057 . S
O1374 C1362 1.232 . S
H1375 C1394 0.929 . S
H1376 C1395 0.929 . S
H1377 C1407 0.931 . S
H1378 C1399 0.929 . S
H1379 C1408 0.930 . S
H1380 C1400 0.931 1_655 S
O1381 Co1357 2.097 . S
O1381 C1409 1.214 . S
H1382 C1410 0.929 . S
H1383 C1411 0.929 . S
H1384 C1412 0.930 . S
H1385 C1413 0.929 . S
H1386 C1415 0.930 . S
H1387 C1392 0.930 . S
H1388 C1396 0.930 . S
O1389 Co1358 2.037 . S
O1389 C1409 1.234 . S
C1390 O1364 1.269 . S
C1390 O1365 1.257 . S
C1391 H1366 0.930 1_554 S
C1391 C1394 1.388 . S
C1391 C1396 1.418 . S
C1392 H1387 0.930 . S
C1392 C1395 1.404 . S
C1392 C1396 1.353 . S
N1393 Co1358 2.145 . S
N1393 C1394 1.397 . S
N1393 C1395 1.334 . S
C1394 H1375 0.929 . S
C1394 C1391 1.388 . S
C1394 N1393 1.397 . S
C1395 H1376 0.929 . S
C1395 C1392 1.404 . S
C1395 N1393 1.334 . S
C1396 H1388 0.930 . S
C1396 C1391 1.418 . S
C1396 C1392 1.353 . S
C1397 H1367 0.930 . S
C1397 N1398 1.330 . S
C1397 C1399 1.446 . S
N1398 Co1357 2.151 . S
N1398 C1397 1.330 . S
N1398 C1402 1.418 . S
C1399 H1378 0.929 . S
C1399 C1397 1.446 . S
C1399 C1400 1.332 . S
C1400 H1380 0.931 1_455 S
C1400 C1399 1.332 . S
C1400 C1401 1.267 . S
C1401 H1369 0.929 . S
C1401 C1400 1.267 . S
C1401 C1402 1.251 . S
C1402 H1372 0.929 . S
C1402 N1398 1.418 . S
C1402 C1401 1.251 . S
C1403 H1370 0.930 . S
C1403 C1405 1.406 . S
C1403 C1408 1.261 . S
C1404 H1371 0.930 . S
C1404 N1406 1.325 . S
C1404 C1407 1.357 . S
C1405 H1373 0.928 . S
C1405 C1403 1.406 . S
C1405 N1406 1.261 . S
N1406 Co1357 2.214 . S
N1406 C1404 1.325 . S
N1406 C1405 1.261 . S
C1407 H1377 0.931 . S
C1407 C1404 1.357 . S
C1407 C1408 1.312 . S
C1408 H1379 0.930 . S
C1408 C1403 1.261 . S
C1408 C1407 1.312 . S
C1409 O1381 1.214 . S
C1409 O1389 1.234 . S
C1410 H1382 0.929 . S
C1410 C1413 1.391 . S
C1410 C1415 1.391 . S
C1411 H1383 0.929 . S
C1411 C1412 1.390 . S
C1411 N1414 1.391 . S
C1412 H1384 0.930 . S
C1412 C1411 1.390 . S
C1412 C1413 1.392 . S
C1413 H1385 0.929 . S
C1413 C1410 1.391 . S
C1413 C1412 1.392 . S
N1414 Co1358 2.257 . S
N1414 C1411 1.391 . S
N1414 C1415 1.388 . S
C1415 H1386 0.930 . S
C1415 C1410 1.391 . S
C1415 N1414 1.388 . S
Co1416 O1418 2.143 . S
Co1416 O1424 2.074 . S
Co1416 O1427 2.093 . S
Co1416 O1440 2.097 . S
Co1416 N1457 2.151 . S
Co1416 N1465 2.214 . S
Co1417 O1418 2.160 . S
Co1417 O1423 2.058 . S
Co1417 O1433 2.057 . S
Co1417 O1448 2.037 . S
Co1417 N1452 2.145 . S
Co1417 N1473 2.257 . S
O1418 Co1416 2.143 . S
O1418 Co1417 2.160 . S
C1419 O1420 1.278 . S
C1419 O1427 1.224 . S
O1420 C1419 1.278 . S
C1421 O1422 1.245 . S
C1421 O1433 1.232 . S
O1422 C1421 1.245 . S
O1423 Co1417 2.058 . S
O1423 C1449 1.269 . S
O1424 Co1416 2.074 . S
O1424 C1449 1.257 . S
H1425 C1450 0.930 1_556 S
H1426 C1456 0.930 . S
O1427 Co1416 2.093 . S
O1427 C1419 1.224 . S
H1428 C1460 0.929 . S
H1429 C1462 0.930 . S
H1430 C1463 0.930 . S
H1431 C1461 0.929 . S
H1432 C1464 0.928 . S
O1433 Co1417 2.057 . S
O1433 C1421 1.232 . S
H1434 C1453 0.929 . S
H1435 C1454 0.929 . S
H1436 C1466 0.931 . S
H1437 C1458 0.929 . S
H1438 C1467 0.930 . S
H1439 C1459 0.931 1_565 S
O1440 Co1416 2.097 . S
O1440 C1468 1.214 . S
H1441 C1469 0.929 . S
H1442 C1470 0.929 . S
H1443 C1471 0.930 . S
H1444 C1472 0.929 . S
H1445 C1474 0.930 . S
H1446 C1451 0.930 . S
H1447 C1455 0.930 . S
O1448 Co1417 2.037 . S
O1448 C1468 1.234 . S
C1449 O1423 1.269 . S
C1449 O1424 1.257 . S
C1450 H1425 0.930 1_554 S
C1450 C1453 1.388 . S
C1450 C1455 1.418 . S
C1451 H1446 0.930 . S
C1451 C1454 1.404 . S
C1451 C1455 1.353 . S
N1452 Co1417 2.145 . S
N1452 C1453 1.397 . S
N1452 C1454 1.334 . S
C1453 H1434 0.929 . S
C1453 C1450 1.388 . S
C1453 N1452 1.397 . S
C1454 H1435 0.929 . S
C1454 C1451 1.404 . S
C1454 N1452 1.334 . S
C1455 H1447 0.930 . S
C1455 C1450 1.418 . S
C1455 C1451 1.353 . S
C1456 H1426 0.930 . S
C1456 N1457 1.330 . S
C1456 C1458 1.446 . S
N1457 Co1416 2.151 . S
N1457 C1456 1.330 . S
N1457 C1461 1.418 . S
C1458 H1437 0.929 . S
C1458 C1456 1.446 . S
C1458 C1459 1.332 . S
C1459 H1439 0.931 1_545 S
C1459 C1458 1.332 . S
C1459 C1460 1.267 . S
C1460 H1428 0.929 . S
C1460 C1459 1.267 . S
C1460 C1461 1.251 . S
C1461 H1431 0.929 . S
C1461 N1457 1.418 . S
C1461 C1460 1.251 . S
C1462 H1429 0.930 . S
C1462 C1464 1.406 . S
C1462 C1467 1.261 . S
C1463 H1430 0.930 . S
C1463 N1465 1.325 . S
C1463 C1466 1.357 . S
C1464 H1432 0.928 . S
C1464 C1462 1.406 . S
C1464 N1465 1.261 . S
N1465 Co1416 2.214 . S
N1465 C1463 1.325 . S
N1465 C1464 1.261 . S
C1466 H1436 0.931 . S
C1466 C1463 1.357 . S
C1466 C1467 1.312 . S
C1467 H1438 0.930 . S
C1467 C1462 1.261 . S
C1467 C1466 1.312 . S
C1468 O1440 1.214 . S
C1468 O1448 1.234 . S
C1469 H1441 0.929 . S
C1469 C1472 1.391 . S
C1469 C1474 1.391 . S
C1470 H1442 0.929 . S
C1470 C1471 1.390 . S
C1470 N1473 1.391 . S
C1471 H1443 0.930 . S
C1471 C1470 1.390 . S
C1471 C1472 1.392 . S
C1472 H1444 0.929 . S
C1472 C1469 1.391 . S
C1472 C1471 1.392 . S
N1473 Co1417 2.257 . S
N1473 C1470 1.391 . S
N1473 C1474 1.388 . S
C1474 H1445 0.930 . S
C1474 C1469 1.391 . S
C1474 N1473 1.388 . S
Co1475 O1477 2.143 . S
Co1475 O1483 2.074 . S
Co1475 O1486 2.093 . S
Co1475 O1499 2.097 . S
Co1475 N1516 2.151 . S
Co1475 N1524 2.214 . S
Co1476 O1477 2.160 . S
Co1476 O1482 2.058 . S
Co1476 O1492 2.057 . S
Co1476 O1507 2.037 . S
Co1476 N1511 2.145 . S
Co1476 N1532 2.257 . S
O1477 Co1475 2.143 . S
O1477 Co1476 2.160 . S
C1478 O1479 1.278 . S
C1478 O1486 1.224 . S
O1479 C1478 1.278 . S
C1480 O1481 1.245 . S
C1480 O1492 1.232 . S
O1481 C1480 1.245 . S
O1482 Co1476 2.058 . S
O1482 C1508 1.269 . S
O1483 Co1475 2.074 . S
O1483 C1508 1.257 . S
H1484 C1509 0.930 1_556 S
H1485 C1515 0.930 . S
O1486 Co1475 2.093 . S
O1486 C1478 1.224 . S
H1487 C1519 0.929 . S
H1488 C1521 0.930 . S
H1489 C1522 0.930 . S
H1490 C1520 0.929 . S
H1491 C1523 0.928 . S
O1492 Co1476 2.057 . S
O1492 C1480 1.232 . S
H1493 C1512 0.929 . S
H1494 C1513 0.929 . S
H1495 C1525 0.931 . S
H1496 C1517 0.929 . S
H1497 C1526 0.930 . S
H1498 C1518 0.931 1_455 S
O1499 Co1475 2.097 . S
O1499 C1527 1.214 . S
H1500 C1528 0.929 . S
H1501 C1529 0.929 . S
H1502 C1530 0.930 . S
H1503 C1531 0.929 . S
H1504 C1533 0.930 . S
H1505 C1510 0.930 . S
H1506 C1514 0.930 . S
O1507 Co1476 2.037 . S
O1507 C1527 1.234 . S
C1508 O1482 1.269 . S
C1508 O1483 1.257 . S
C1509 H1484 0.930 1_554 S
C1509 C1512 1.388 . S
C1509 C1514 1.418 . S
C1510 H1505 0.930 . S
C1510 C1513 1.404 . S
C1510 C1514 1.353 . S
N1511 Co1476 2.145 . S
N1511 C1512 1.397 . S
N1511 C1513 1.334 . S
C1512 H1493 0.929 . S
C1512 C1509 1.388 . S
C1512 N1511 1.397 . S
C1513 H1494 0.929 . S
C1513 C1510 1.404 . S
C1513 N1511 1.334 . S
C1514 H1506 0.930 . S
C1514 C1509 1.418 . S
C1514 C1510 1.353 . S
C1515 H1485 0.930 . S
C1515 N1516 1.330 . S
C1515 C1517 1.446 . S
N1516 Co1475 2.151 . S
N1516 C1515 1.330 . S
N1516 C1520 1.418 . S
C1517 H1496 0.929 . S
C1517 C1515 1.446 . S
C1517 C1518 1.332 . S
C1518 H1498 0.931 1_655 S
C1518 C1517 1.332 . S
C1518 C1519 1.267 . S
C1519 H1487 0.929 . S
C1519 C1518 1.267 . S
C1519 C1520 1.251 . S
C1520 H1490 0.929 . S
C1520 N1516 1.418 . S
C1520 C1519 1.251 . S
C1521 H1488 0.930 . S
C1521 C1523 1.406 . S
C1521 C1526 1.261 . S
C1522 H1489 0.930 . S
C1522 N1524 1.325 . S
C1522 C1525 1.357 . S
C1523 H1491 0.928 . S
C1523 C1521 1.406 . S
C1523 N1524 1.261 . S
N1524 Co1475 2.214 . S
N1524 C1522 1.325 . S
N1524 C1523 1.261 . S
C1525 H1495 0.931 . S
C1525 C1522 1.357 . S
C1525 C1526 1.312 . S
C1526 H1497 0.930 . S
C1526 C1521 1.261 . S
C1526 C1525 1.312 . S
C1527 O1499 1.214 . S
C1527 O1507 1.234 . S
C1528 H1500 0.929 . S
C1528 C1531 1.391 . S
C1528 C1533 1.391 . S
C1529 H1501 0.929 . S
C1529 C1530 1.390 . S
C1529 N1532 1.391 . S
C1530 H1502 0.930 . S
C1530 C1529 1.390 . S
C1530 C1531 1.392 . S
C1531 H1503 0.929 . S
C1531 C1528 1.391 . S
C1531 C1530 1.392 . S
N1532 Co1476 2.257 . S
N1532 C1529 1.391 . S
N1532 C1533 1.388 . S
C1533 H1504 0.930 . S
C1533 C1528 1.391 . S
C1533 N1532 1.388 . S
Co1534 O1536 2.143 . S
Co1534 O1542 2.074 . S
Co1534 O1545 2.093 . S
Co1534 O1558 2.097 . S
Co1534 N1575 2.151 . S
Co1534 N1583 2.214 . S
Co1535 O1536 2.160 . S
Co1535 O1541 2.058 . S
Co1535 O1551 2.057 . S
Co1535 O1566 2.037 . S
Co1535 N1570 2.145 . S
Co1535 N1591 2.257 . S
O1536 Co1534 2.143 . S
O1536 Co1535 2.160 . S
C1537 O1538 1.278 . S
C1537 O1545 1.224 . S
O1538 C1537 1.278 . S
C1539 O1540 1.245 . S
C1539 O1551 1.232 . S
O1540 C1539 1.245 . S
O1541 Co1535 2.058 . S
O1541 C1567 1.269 . S
O1542 Co1534 2.074 . S
O1542 C1567 1.257 . S
H1543 C1568 0.930 1_556 S
H1544 C1574 0.930 . S
O1545 Co1534 2.093 . S
O1545 C1537 1.224 . S
H1546 C1578 0.929 . S
H1547 C1580 0.930 . S
H1548 C1581 0.930 . S
H1549 C1579 0.929 . S
H1550 C1582 0.928 . S
O1551 Co1535 2.057 . S
O1551 C1539 1.232 . S
H1552 C1571 0.929 . S
H1553 C1572 0.929 . S
H1554 C1584 0.931 . S
H1555 C1576 0.929 . S
H1556 C1585 0.930 . S
H1557 C1577 0.931 1_545 S
O1558 Co1534 2.097 . S
O1558 C1586 1.214 . S
H1559 C1587 0.929 . S
H1560 C1588 0.929 . S
H1561 C1589 0.930 . S
H1562 C1590 0.929 . S
H1563 C1592 0.930 . S
H1564 C1569 0.930 . S
H1565 C1573 0.930 . S
O1566 Co1535 2.037 . S
O1566 C1586 1.234 . S
C1567 O1541 1.269 . S
C1567 O1542 1.257 . S
C1568 H1543 0.930 1_554 S
C1568 C1571 1.388 . S
C1568 C1573 1.418 . S
C1569 H1564 0.930 . S
C1569 C1572 1.404 . S
C1569 C1573 1.353 . S
N1570 Co1535 2.145 . S
N1570 C1571 1.397 . S
N1570 C1572 1.334 . S
C1571 H1552 0.929 . S
C1571 C1568 1.388 . S
C1571 N1570 1.397 . S
C1572 H1553 0.929 . S
C1572 C1569 1.404 . S
C1572 N1570 1.334 . S
C1573 H1565 0.930 . S
C1573 C1568 1.418 . S
C1573 C1569 1.353 . S
C1574 H1544 0.930 . S
C1574 N1575 1.330 . S
C1574 C1576 1.446 . S
N1575 Co1534 2.151 . S
N1575 C1574 1.330 . S
N1575 C1579 1.418 . S
C1576 H1555 0.929 . S
C1576 C1574 1.446 . S
C1576 C1577 1.332 . S
C1577 H1557 0.931 1_565 S
C1577 C1576 1.332 . S
C1577 C1578 1.267 . S
C1578 H1546 0.929 . S
C1578 C1577 1.267 . S
C1578 C1579 1.251 . S
C1579 H1549 0.929 . S
C1579 N1575 1.418 . S
C1579 C1578 1.251 . S
C1580 H1547 0.930 . S
C1580 C1582 1.406 . S
C1580 C1585 1.261 . S
C1581 H1548 0.930 . S
C1581 N1583 1.325 . S
C1581 C1584 1.357 . S
C1582 H1550 0.928 . S
C1582 C1580 1.406 . S
C1582 N1583 1.261 . S
N1583 Co1534 2.214 . S
N1583 C1581 1.325 . S
N1583 C1582 1.261 . S
C1584 H1554 0.931 . S
C1584 C1581 1.357 . S
C1584 C1585 1.312 . S
C1585 H1556 0.930 . S
C1585 C1580 1.261 . S
C1585 C1584 1.312 . S
C1586 O1558 1.214 . S
C1586 O1566 1.234 . S
C1587 H1559 0.929 . S
C1587 C1590 1.391 . S
C1587 C1592 1.391 . S
C1588 H1560 0.929 . S
C1588 C1589 1.390 . S
C1588 N1591 1.391 . S
C1589 H1561 0.930 . S
C1589 C1588 1.390 . S
C1589 C1590 1.392 . S
C1590 H1562 0.929 . S
C1590 C1587 1.391 . S
C1590 C1589 1.392 . S
N1591 Co1535 2.257 . S
N1591 C1588 1.391 . S
N1591 C1592 1.388 . S
C1592 H1563 0.930 . S
C1592 C1587 1.391 . S
C1592 N1591 1.388 . S
Co1593 O1595 2.143 . S
Co1593 O1601 2.074 . S
Co1593 O1604 2.093 . S
Co1593 O1617 2.097 . S
Co1593 N1634 2.151 . S
Co1593 N1642 2.214 . S
Co1594 O1595 2.160 . S
Co1594 O1600 2.058 . S
Co1594 O1610 2.057 . S
Co1594 O1625 2.037 . S
Co1594 N1629 2.145 . S
Co1594 N1650 2.257 . S
O1595 Co1593 2.143 . S
O1595 Co1594 2.160 . S
C1596 O1597 1.278 . S
C1596 O1604 1.224 . S
O1597 C1596 1.278 . S
C1598 O1599 1.245 . S
C1598 O1610 1.232 . S
O1599 C1598 1.245 . S
O1600 Co1594 2.058 . S
O1600 C1626 1.269 . S
O1601 Co1593 2.074 . S
O1601 C1626 1.257 . S
H1602 C1627 0.930 1_556 S
H1603 C1633 0.930 . S
O1604 Co1593 2.093 . S
O1604 C1596 1.224 . S
H1605 C1637 0.929 . S
H1606 C1639 0.930 . S
H1607 C1640 0.930 . S
H1608 C1638 0.929 . S
H1609 C1641 0.928 . S
O1610 Co1594 2.057 . S
O1610 C1598 1.232 . S
H1611 C1630 0.929 . S
H1612 C1631 0.929 . S
H1613 C1643 0.931 . S
H1614 C1635 0.929 . S
H1615 C1644 0.930 . S
H1616 C1636 0.931 1_655 S
O1617 Co1593 2.097 . S
O1617 C1645 1.214 . S
H1618 C1646 0.929 . S
H1619 C1647 0.929 . S
H1620 C1648 0.930 . S
H1621 C1649 0.929 . S
H1622 C1651 0.930 . S
H1623 C1628 0.930 . S
H1624 C1632 0.930 . S
O1625 Co1594 2.037 . S
O1625 C1645 1.234 . S
C1626 O1600 1.269 . S
C1626 O1601 1.257 . S
C1627 H1602 0.930 1_554 S
C1627 C1630 1.388 . S
C1627 C1632 1.418 . S
C1628 H1623 0.930 . S
C1628 C1631 1.404 . S
C1628 C1632 1.353 . S
N1629 Co1594 2.145 . S
N1629 C1630 1.397 . S
N1629 C1631 1.334 . S
C1630 H1611 0.929 . S
C1630 C1627 1.388 . S
C1630 N1629 1.397 . S
C1631 H1612 0.929 . S
C1631 C1628 1.404 . S
C1631 N1629 1.334 . S
C1632 H1624 0.930 . S
C1632 C1627 1.418 . S
C1632 C1628 1.353 . S
C1633 H1603 0.930 . S
C1633 N1634 1.330 . S
C1633 C1635 1.446 . S
N1634 Co1593 2.151 . S
N1634 C1633 1.330 . S
N1634 C1638 1.418 . S
C1635 H1614 0.929 . S
C1635 C1633 1.446 . S
C1635 C1636 1.332 . S
C1636 H1616 0.931 1_455 S
C1636 C1635 1.332 . S
C1636 C1637 1.267 . S
C1637 H1605 0.929 . S
C1637 C1636 1.267 . S
C1637 C1638 1.251 . S
C1638 H1608 0.929 . S
C1638 N1634 1.418 . S
C1638 C1637 1.251 . S
C1639 H1606 0.930 . S
C1639 C1641 1.406 . S
C1639 C1644 1.261 . S
C1640 H1607 0.930 . S
C1640 N1642 1.325 . S
C1640 C1643 1.357 . S
C1641 H1609 0.928 . S
C1641 C1639 1.406 . S
C1641 N1642 1.261 . S
N1642 Co1593 2.214 . S
N1642 C1640 1.325 . S
N1642 C1641 1.261 . S
C1643 H1613 0.931 . S
C1643 C1640 1.357 . S
C1643 C1644 1.312 . S
C1644 H1615 0.930 . S
C1644 C1639 1.261 . S
C1644 C1643 1.312 . S
C1645 O1617 1.214 . S
C1645 O1625 1.234 . S
C1646 H1618 0.929 . S
C1646 C1649 1.391 . S
C1646 C1651 1.391 . S
C1647 H1619 0.929 . S
C1647 C1648 1.390 . S
C1647 N1650 1.391 . S
C1648 H1620 0.930 . S
C1648 C1647 1.390 . S
C1648 C1649 1.392 . S
C1649 H1621 0.929 . S
C1649 C1646 1.391 . S
C1649 C1648 1.392 . S
N1650 Co1594 2.257 . S
N1650 C1647 1.391 . S
N1650 C1651 1.388 . S
C1651 H1622 0.930 . S
C1651 C1646 1.391 . S
C1651 N1650 1.388 . S
Co1652 O1654 2.143 . S
Co1652 O1660 2.074 . S
Co1652 O1663 2.093 . S
Co1652 O1676 2.097 . S
Co1652 N1693 2.151 . S
Co1652 N1701 2.214 . S
Co1653 O1654 2.160 . S
Co1653 O1659 2.058 . S
Co1653 O1669 2.057 . S
Co1653 O1684 2.037 . S
Co1653 N1688 2.145 . S
Co1653 N1709 2.257 . S
O1654 Co1652 2.143 . S
O1654 Co1653 2.160 . S
C1655 O1656 1.278 . S
C1655 O1663 1.224 . S
O1656 C1655 1.278 . S
C1657 O1658 1.245 . S
C1657 O1669 1.232 . S
O1658 C1657 1.245 . S
O1659 Co1653 2.058 . S
O1659 C1685 1.269 . S
O1660 Co1652 2.074 . S
O1660 C1685 1.257 . S
H1661 C1686 0.930 1_554 S
H1662 C1692 0.930 . S
O1663 Co1652 2.093 . S
O1663 C1655 1.224 . S
H1664 C1696 0.929 . S
H1665 C1698 0.930 . S
H1666 C1699 0.930 . S
H1667 C1697 0.929 . S
H1668 C1700 0.928 . S
O1669 Co1653 2.057 . S
O1669 C1657 1.232 . S
H1670 C1689 0.929 . S
H1671 C1690 0.929 . S
H1672 C1702 0.931 . S
H1673 C1694 0.929 . S
H1674 C1703 0.930 . S
H1675 C1695 0.931 1_545 S
O1676 Co1652 2.097 . S
O1676 C1704 1.214 . S
H1677 C1705 0.929 . S
H1678 C1706 0.929 . S
H1679 C1707 0.930 . S
H1680 C1708 0.929 . S
H1681 C1710 0.930 . S
H1682 C1687 0.930 . S
H1683 C1691 0.930 . S
O1684 Co1653 2.037 . S
O1684 C1704 1.234 . S
C1685 O1659 1.269 . S
C1685 O1660 1.257 . S
C1686 H1661 0.930 1_556 S
C1686 C1689 1.388 . S
C1686 C1691 1.418 . S
C1687 H1682 0.930 . S
C1687 C1690 1.404 . S
C1687 C1691 1.353 . S
N1688 Co1653 2.145 . S
N1688 C1689 1.397 . S
N1688 C1690 1.334 . S
C1689 H1670 0.929 . S
C1689 C1686 1.388 . S
C1689 N1688 1.397 . S
C1690 H1671 0.929 . S
C1690 C1687 1.404 . S
C1690 N1688 1.334 . S
C1691 H1683 0.930 . S
C1691 C1686 1.418 . S
C1691 C1687 1.353 . S
C1692 H1662 0.930 . S
C1692 N1693 1.330 . S
C1692 C1694 1.446 . S
N1693 Co1652 2.151 . S
N1693 C1692 1.330 . S
N1693 C1697 1.418 . S
C1694 H1673 0.929 . S
C1694 C1692 1.446 . S
C1694 C1695 1.332 . S
C1695 H1675 0.931 1_565 S
C1695 C1694 1.332 . S
C1695 C1696 1.267 . S
C1696 H1664 0.929 . S
C1696 C1695 1.267 . S
C1696 C1697 1.251 . S
C1697 H1667 0.929 . S
C1697 N1693 1.418 . S
C1697 C1696 1.251 . S
C1698 H1665 0.930 . S
C1698 C1700 1.406 . S
C1698 C1703 1.261 . S
C1699 H1666 0.930 . S
C1699 N1701 1.325 . S
C1699 C1702 1.357 . S
C1700 H1668 0.928 . S
C1700 C1698 1.406 . S
C1700 N1701 1.261 . S
N1701 Co1652 2.214 . S
N1701 C1699 1.325 . S
N1701 C1700 1.261 . S
C1702 H1672 0.931 . S
C1702 C1699 1.357 . S
C1702 C1703 1.312 . S
C1703 H1674 0.930 . S
C1703 C1698 1.261 . S
C1703 C1702 1.312 . S
C1704 O1676 1.214 . S
C1704 O1684 1.234 . S
C1705 H1677 0.929 . S
C1705 C1708 1.391 . S
C1705 C1710 1.391 . S
C1706 H1678 0.929 . S
C1706 C1707 1.390 . S
C1706 N1709 1.391 . S
C1707 H1679 0.930 . S
C1707 C1706 1.390 . S
C1707 C1708 1.392 . S
C1708 H1680 0.929 . S
C1708 C1705 1.391 . S
C1708 C1707 1.392 . S
N1709 Co1653 2.257 . S
N1709 C1706 1.391 . S
N1709 C1710 1.388 . S
C1710 H1681 0.930 . S
C1710 C1705 1.391 . S
C1710 N1709 1.388 . S
Co1711 O1713 2.143 . S
Co1711 O1719 2.074 . S
Co1711 O1722 2.093 . S
Co1711 O1735 2.097 . S
Co1711 N1752 2.151 . S
Co1711 N1760 2.214 . S
Co1712 O1713 2.160 . S
Co1712 O1718 2.058 . S
Co1712 O1728 2.057 . S
Co1712 O1743 2.037 . S
Co1712 N1747 2.145 . S
Co1712 N1768 2.257 . S
O1713 Co1711 2.143 . S
O1713 Co1712 2.160 . S
C1714 O1715 1.278 . S
C1714 O1722 1.224 . S
O1715 C1714 1.278 . S
C1716 O1717 1.245 . S
C1716 O1728 1.232 . S
O1717 C1716 1.245 . S
O1718 Co1712 2.058 . S
O1718 C1744 1.269 . S
O1719 Co1711 2.074 . S
O1719 C1744 1.257 . S
H1720 C1745 0.930 1_554 S
H1721 C1751 0.930 . S
O1722 Co1711 2.093 . S
O1722 C1714 1.224 . S
H1723 C1755 0.929 . S
H1724 C1757 0.930 . S
H1725 C1758 0.930 . S
H1726 C1756 0.929 . S
H1727 C1759 0.928 . S
O1728 Co1712 2.057 . S
O1728 C1716 1.232 . S
H1729 C1748 0.929 . S
H1730 C1749 0.929 . S
H1731 C1761 0.931 . S
H1732 C1753 0.929 . S
H1733 C1762 0.930 . S
H1734 C1754 0.931 1_655 S
O1735 Co1711 2.097 . S
O1735 C1763 1.214 . S
H1736 C1764 0.929 . S
H1737 C1765 0.929 . S
H1738 C1766 0.930 . S
H1739 C1767 0.929 . S
H1740 C1769 0.930 . S
H1741 C1746 0.930 . S
H1742 C1750 0.930 . S
O1743 Co1712 2.037 . S
O1743 C1763 1.234 . S
C1744 O1718 1.269 . S
C1744 O1719 1.257 . S
C1745 H1720 0.930 1_556 S
C1745 C1748 1.388 . S
C1745 C1750 1.418 . S
C1746 H1741 0.930 . S
C1746 C1749 1.404 . S
C1746 C1750 1.353 . S
N1747 Co1712 2.145 . S
N1747 C1748 1.397 . S
N1747 C1749 1.334 . S
C1748 H1729 0.929 . S
C1748 C1745 1.388 . S
C1748 N1747 1.397 . S
C1749 H1730 0.929 . S
C1749 C1746 1.404 . S
C1749 N1747 1.334 . S
C1750 H1742 0.930 . S
C1750 C1745 1.418 . S
C1750 C1746 1.353 . S
C1751 H1721 0.930 . S
C1751 N1752 1.330 . S
C1751 C1753 1.446 . S
N1752 Co1711 2.151 . S
N1752 C1751 1.330 . S
N1752 C1756 1.418 . S
C1753 H1732 0.929 . S
C1753 C1751 1.446 . S
C1753 C1754 1.332 . S
C1754 H1734 0.931 1_455 S
C1754 C1753 1.332 . S
C1754 C1755 1.267 . S
C1755 H1723 0.929 . S
C1755 C1754 1.267 . S
C1755 C1756 1.251 . S
C1756 H1726 0.929 . S
C1756 N1752 1.418 . S
C1756 C1755 1.251 . S
C1757 H1724 0.930 . S
C1757 C1759 1.406 . S
C1757 C1762 1.261 . S
C1758 H1725 0.930 . S
C1758 N1760 1.325 . S
C1758 C1761 1.357 . S
C1759 H1727 0.928 . S
C1759 C1757 1.406 . S
C1759 N1760 1.261 . S
N1760 Co1711 2.214 . S
N1760 C1758 1.325 . S
N1760 C1759 1.261 . S
C1761 H1731 0.931 . S
C1761 C1758 1.357 . S
C1761 C1762 1.312 . S
C1762 H1733 0.930 . S
C1762 C1757 1.261 . S
C1762 C1761 1.312 . S
C1763 O1735 1.214 . S
C1763 O1743 1.234 . S
C1764 H1736 0.929 . S
C1764 C1767 1.391 . S
C1764 C1769 1.391 . S
C1765 H1737 0.929 . S
C1765 C1766 1.390 . S
C1765 N1768 1.391 . S
C1766 H1738 0.930 . S
C1766 C1765 1.390 . S
C1766 C1767 1.392 . S
C1767 H1739 0.929 . S
C1767 C1764 1.391 . S
C1767 C1766 1.392 . S
N1768 Co1712 2.257 . S
N1768 C1765 1.391 . S
N1768 C1769 1.388 . S
C1769 H1740 0.930 . S
C1769 C1764 1.391 . S
C1769 N1768 1.388 . S
Co1770 O1772 2.143 . S
Co1770 O1778 2.074 . S
Co1770 O1781 2.093 . S
Co1770 O1794 2.097 . S
Co1770 N1811 2.151 . S
Co1770 N1819 2.214 . S
Co1771 O1772 2.160 . S
Co1771 O1777 2.058 . S
Co1771 O1787 2.057 . S
Co1771 O1802 2.037 . S
Co1771 N1806 2.145 . S
Co1771 N1827 2.257 . S
O1772 Co1770 2.143 . S
O1772 Co1771 2.160 . S
C1773 O1774 1.278 . S
C1773 O1781 1.224 . S
O1774 C1773 1.278 . S
C1775 O1776 1.245 . S
C1775 O1787 1.232 . S
O1776 C1775 1.245 . S
O1777 Co1771 2.058 . S
O1777 C1803 1.269 . S
O1778 Co1770 2.074 . S
O1778 C1803 1.257 . S
H1779 C1804 0.930 1_554 S
H1780 C1810 0.930 . S
O1781 Co1770 2.093 . S
O1781 C1773 1.224 . S
H1782 C1814 0.929 . S
H1783 C1816 0.930 . S
H1784 C1817 0.930 . S
H1785 C1815 0.929 . S
H1786 C1818 0.928 . S
O1787 Co1771 2.057 . S
O1787 C1775 1.232 . S
H1788 C1807 0.929 . S
H1789 C1808 0.929 . S
H1790 C1820 0.931 . S
H1791 C1812 0.929 . S
H1792 C1821 0.930 . S
H1793 C1813 0.931 1_565 S
O1794 Co1770 2.097 . S
O1794 C1822 1.214 . S
H1795 C1823 0.929 . S
H1796 C1824 0.929 . S
H1797 C1825 0.930 . S
H1798 C1826 0.929 . S
H1799 C1828 0.930 . S
H1800 C1805 0.930 . S
H1801 C1809 0.930 . S
O1802 Co1771 2.037 . S
O1802 C1822 1.234 . S
C1803 O1777 1.269 . S
C1803 O1778 1.257 . S
C1804 H1779 0.930 1_556 S
C1804 C1807 1.388 . S
C1804 C1809 1.418 . S
C1805 H1800 0.930 . S
C1805 C1808 1.404 . S
C1805 C1809 1.353 . S
N1806 Co1771 2.145 . S
N1806 C1807 1.397 . S
N1806 C1808 1.334 . S
C1807 H1788 0.929 . S
C1807 C1804 1.388 . S
C1807 N1806 1.397 . S
C1808 H1789 0.929 . S
C1808 C1805 1.404 . S
C1808 N1806 1.334 . S
C1809 H1801 0.930 . S
C1809 C1804 1.418 . S
C1809 C1805 1.353 . S
C1810 H1780 0.930 . S
C1810 N1811 1.330 . S
C1810 C1812 1.446 . S
N1811 Co1770 2.151 . S
N1811 C1810 1.330 . S
N1811 C1815 1.418 . S
C1812 H1791 0.929 . S
C1812 C1810 1.446 . S
C1812 C1813 1.332 . S
C1813 H1793 0.931 1_545 S
C1813 C1812 1.332 . S
C1813 C1814 1.267 . S
C1814 H1782 0.929 . S
C1814 C1813 1.267 . S
C1814 C1815 1.251 . S
C1815 H1785 0.929 . S
C1815 N1811 1.418 . S
C1815 C1814 1.251 . S
C1816 H1783 0.930 . S
C1816 C1818 1.406 . S
C1816 C1821 1.261 . S
C1817 H1784 0.930 . S
C1817 N1819 1.325 . S
C1817 C1820 1.357 . S
C1818 H1786 0.928 . S
C1818 C1816 1.406 . S
C1818 N1819 1.261 . S
N1819 Co1770 2.214 . S
N1819 C1817 1.325 . S
N1819 C1818 1.261 . S
C1820 H1790 0.931 . S
C1820 C1817 1.357 . S
C1820 C1821 1.312 . S
C1821 H1792 0.930 . S
C1821 C1816 1.261 . S
C1821 C1820 1.312 . S
C1822 O1794 1.214 . S
C1822 O1802 1.234 . S
C1823 H1795 0.929 . S
C1823 C1826 1.391 . S
C1823 C1828 1.391 . S
C1824 H1796 0.929 . S
C1824 C1825 1.390 . S
C1824 N1827 1.391 . S
C1825 H1797 0.930 . S
C1825 C1824 1.390 . S
C1825 C1826 1.392 . S
C1826 H1798 0.929 . S
C1826 C1823 1.391 . S
C1826 C1825 1.392 . S
N1827 Co1771 2.257 . S
N1827 C1824 1.391 . S
N1827 C1828 1.388 . S
C1828 H1799 0.930 . S
C1828 C1823 1.391 . S
C1828 N1827 1.388 . S
Co1829 O1831 2.143 . S
Co1829 O1837 2.074 . S
Co1829 O1840 2.093 . S
Co1829 O1853 2.097 . S
Co1829 N1870 2.151 . S
Co1829 N1878 2.214 . S
Co1830 O1831 2.160 . S
Co1830 O1836 2.058 . S
Co1830 O1846 2.057 . S
Co1830 O1861 2.037 . S
Co1830 N1865 2.145 . S
Co1830 N1886 2.257 . S
O1831 Co1829 2.143 . S
O1831 Co1830 2.160 . S
C1832 O1833 1.278 . S
C1832 O1840 1.224 . S
O1833 C1832 1.278 . S
C1834 O1835 1.245 . S
C1834 O1846 1.232 . S
O1835 C1834 1.245 . S
O1836 Co1830 2.058 . S
O1836 C1862 1.269 . S
O1837 Co1829 2.074 . S
O1837 C1862 1.257 . S
H1838 C1863 0.930 1_554 S
H1839 C1869 0.930 . S
O1840 Co1829 2.093 . S
O1840 C1832 1.224 . S
H1841 C1873 0.929 . S
H1842 C1875 0.930 . S
H1843 C1876 0.930 . S
H1844 C1874 0.929 . S
H1845 C1877 0.928 . S
O1846 Co1830 2.057 . S
O1846 C1834 1.232 . S
H1847 C1866 0.929 . S
H1848 C1867 0.929 . S
H1849 C1879 0.931 . S
H1850 C1871 0.929 . S
H1851 C1880 0.930 . S
H1852 C1872 0.931 1_455 S
O1853 Co1829 2.097 . S
O1853 C1881 1.214 . S
H1854 C1882 0.929 . S
H1855 C1883 0.929 . S
H1856 C1884 0.930 . S
H1857 C1885 0.929 . S
H1858 C1887 0.930 . S
H1859 C1864 0.930 . S
H1860 C1868 0.930 . S
O1861 Co1830 2.037 . S
O1861 C1881 1.234 . S
C1862 O1836 1.269 . S
C1862 O1837 1.257 . S
C1863 H1838 0.930 1_556 S
C1863 C1866 1.388 . S
C1863 C1868 1.418 . S
C1864 H1859 0.930 . S
C1864 C1867 1.404 . S
C1864 C1868 1.353 . S
N1865 Co1830 2.145 . S
N1865 C1866 1.397 . S
N1865 C1867 1.334 . S
C1866 H1847 0.929 . S
C1866 C1863 1.388 . S
C1866 N1865 1.397 . S
C1867 H1848 0.929 . S
C1867 C1864 1.404 . S
C1867 N1865 1.334 . S
C1868 H1860 0.930 . S
C1868 C1863 1.418 . S
C1868 C1864 1.353 . S
C1869 H1839 0.930 . S
C1869 N1870 1.330 . S
C1869 C1871 1.446 . S
N1870 Co1829 2.151 . S
N1870 C1869 1.330 . S
N1870 C1874 1.418 . S
C1871 H1850 0.929 . S
C1871 C1869 1.446 . S
C1871 C1872 1.332 . S
C1872 H1852 0.931 1_655 S
C1872 C1871 1.332 . S
C1872 C1873 1.267 . S
C1873 H1841 0.929 . S
C1873 C1872 1.267 . S
C1873 C1874 1.251 . S
C1874 H1844 0.929 . S
C1874 N1870 1.418 . S
C1874 C1873 1.251 . S
C1875 H1842 0.930 . S
C1875 C1877 1.406 . S
C1875 C1880 1.261 . S
C1876 H1843 0.930 . S
C1876 N1878 1.325 . S
C1876 C1879 1.357 . S
C1877 H1845 0.928 . S
C1877 C1875 1.406 . S
C1877 N1878 1.261 . S
N1878 Co1829 2.214 . S
N1878 C1876 1.325 . S
N1878 C1877 1.261 . S
C1879 H1849 0.931 . S
C1879 C1876 1.357 . S
C1879 C1880 1.312 . S
C1880 H1851 0.930 . S
C1880 C1875 1.261 . S
C1880 C1879 1.312 . S
C1881 O1853 1.214 . S
C1881 O1861 1.234 . S
C1882 H1854 0.929 . S
C1882 C1885 1.391 . S
C1882 C1887 1.391 . S
C1883 H1855 0.929 . S
C1883 C1884 1.390 . S
C1883 N1886 1.391 . S
C1884 H1856 0.930 . S
C1884 C1883 1.390 . S
C1884 C1885 1.392 . S
C1885 H1857 0.929 . S
C1885 C1882 1.391 . S
C1885 C1884 1.392 . S
N1886 Co1830 2.257 . S
N1886 C1883 1.391 . S
N1886 C1887 1.388 . S
C1887 H1858 0.930 . S
C1887 C1882 1.391 . S
C1887 N1886 1.388 . S
C937 C52 1.606 . S
C111 C760 1.606 . S
C170 C819 1.606 . S
C878 C229 1.606 . S
C288 C583 1.606 . S
C347 C642 1.606 . S
C701 C406 1.606 . S
C524 C465 1.606 . S
C996 C1881 1.606 . S
C1055 C1704 1.606 . S
C1114 C1763 1.606 . S
C1822 C1173 1.606 . S
C1232 C1527 1.606 . S
C1291 C1586 1.606 . S
C1645 C1350 1.606 . S
C1409 C1468 1.606 . S
C713 C5 1.533 1_655 S
C64 C772 1.533 1_545 S
C831 C123 1.533 1_455 S
C182 C890 1.533 1_565 S
C241 C477 1.533 1_455 S
C536 C300 1.533 1_565 S
C595 C359 1.533 1_455 S
C654 C418 1.533 1_545 S
C949 C1657 1.533 . S
C1716 C1008 1.533 . S
C1067 C1775 1.533 . S
C1126 C1834 1.533 . S
C1421 C1185 1.533 . S
C1244 C1480 1.533 . S
C1303 C1539 1.533 . S
C1362 C1598 1.533 . S
C33 C623 1.325 . S
C682 C92 1.325 . S
C151 C505 1.325 . S
C564 C210 1.325 . S
C859 C269 1.325 . S
C918 C328 1.325 . S
C741 C387 1.325 . S
C446 C800 1.325 . S
C1567 C977 1.325 1_554 S
C1036 C1626 1.325 1_556 S
C1449 C1095 1.325 1_554 S
C1508 C1154 1.325 1_554 S
C1213 C1803 1.325 1_554 S
C1272 C1862 1.325 1_554 S
C1685 C1331 1.325 1_556 S
C1744 C1390 1.325 1_556 S
C1360 C3 1.596 . S
C1183 C62 1.596 . S
C1242 C121 1.596 . S
C1301 C180 1.596 . S
C1006 C239 1.596 . S
C298 C1065 1.596 . S
C357 C1124 1.596 . S
C416 C947 1.596 . S
C475 C1832 1.596 . S
C1655 C534 1.596 . S
C593 C1714 1.596 . S
C652 C1773 1.596 . S
C1478 C711 1.596 . S
C1537 C770 1.596 . S
C829 C1596 1.596 . S
C888 C1419 1.596 . S
