# Generated by pormake.
# Topology wmi, (6)-cn, num edge types: 1
# Building blocks:
#     Node 0, Type 0, BuildingBlock: KUMJIN_clean_sbu_1, # of connection points: 6
#     Node 1, Type 0, BuildingBlock: KUMJIN_clean_sbu_1, # of connection points: 6
#     Node 2, Type 0, BuildingBlock: KUMJIN_clean_sbu_1, # of connection points: 6
#     Node 3, Type 0, BuildingBlock: KUMJIN_clean_sbu_1, # of connection points: 6
#     Node 4, Type 0, BuildingBlock: KUMJIN_clean_sbu_1, # of connection points: 6
#     Node 5, Type 0, BuildingBlock: KUMJIN_clean_sbu_1, # of connection points: 6
#     Node 6, Type 0, BuildingBlock: KUMJIN_clean_sbu_1, # of connection points: 6
#     Node 7, Type 0, BuildingBlock: KUMJIN_clean_sbu_1, # of connection points: 6
#     Node 8, Type 0, BuildingBlock: KUMJIN_clean_sbu_1, # of connection points: 6
#     Node 9, Type 0, BuildingBlock: KUMJIN_clean_sbu_1, # of connection points: 6
#     Node 10, Type 0, BuildingBlock: KUMJIN_clean_sbu_1, # of connection points: 6
#     Node 11, Type 0, BuildingBlock: KUMJIN_clean_sbu_1, # of connection points: 6
#     Node 12, Type 0, BuildingBlock: KUMJIN_clean_sbu_1, # of connection points: 6
#     Node 13, Type 0, BuildingBlock: KUMJIN_clean_sbu_1, # of connection points: 6
#     Node 14, Type 0, BuildingBlock: KUMJIN_clean_sbu_1, # of connection points: 6
#     Node 15, Type 0, BuildingBlock: KUMJIN_clean_sbu_1, # of connection points: 6
#     Node 16, Type 0, BuildingBlock: KUMJIN_clean_sbu_1, # of connection points: 6
#     Node 17, Type 0, BuildingBlock: KUMJIN_clean_sbu_1, # of connection points: 6
#     Edge 18, Type (0, 0), BuildingBlock: KIFKEQ_clean_linker_1, # of connection points: 2
#     Edge 19, Type (0, 0), BuildingBlock: KIFKEQ_clean_linker_1, # of connection points: 2
#     Edge 20, Type (0, 0), BuildingBlock: KIFKEQ_clean_linker_1, # of connection points: 2
#     Edge 21, Type (0, 0), BuildingBlock: KIFKEQ_clean_linker_1, # of connection points: 2
#     Edge 22, Type (0, 0), BuildingBlock: KIFKEQ_clean_linker_1, # of connection points: 2
#     Edge 23, Type (0, 0), BuildingBlock: KIFKEQ_clean_linker_1, # of connection points: 2
#     Edge 24, Type (0, 0), BuildingBlock: KIFKEQ_clean_linker_1, # of connection points: 2
#     Edge 25, Type (0, 0), BuildingBlock: KIFKEQ_clean_linker_1, # of connection points: 2
#     Edge 26, Type (0, 0), BuildingBlock: KIFKEQ_clean_linker_1, # of connection points: 2
#     Edge 27, Type (0, 0), BuildingBlock: KIFKEQ_clean_linker_1, # of connection points: 2
#     Edge 28, Type (0, 0), BuildingBlock: KIFKEQ_clean_linker_1, # of connection points: 2
#     Edge 29, Type (0, 0), BuildingBlock: KIFKEQ_clean_linker_1, # of connection points: 2
#     Edge 30, Type (0, 0), BuildingBlock: KIFKEQ_clean_linker_1, # of connection points: 2
#     Edge 31, Type (0, 0), BuildingBlock: KIFKEQ_clean_linker_1, # of connection points: 2
#     Edge 32, Type (0, 0), BuildingBlock: KIFKEQ_clean_linker_1, # of connection points: 2
#     Edge 33, Type (0, 0), BuildingBlock: KIFKEQ_clean_linker_1, # of connection points: 2
#     Edge 34, Type (0, 0), BuildingBlock: KIFKEQ_clean_linker_1, # of connection points: 2
#     Edge 35, Type (0, 0), BuildingBlock: KIFKEQ_clean_linker_1, # of connection points: 2
#     Edge 36, Type (0, 0), BuildingBlock: KIFKEQ_clean_linker_1, # of connection points: 2
#     Edge 37, Type (0, 0), BuildingBlock: KIFKEQ_clean_linker_1, # of connection points: 2
#     Edge 38, Type (0, 0), BuildingBlock: KIFKEQ_clean_linker_1, # of connection points: 2
#     Edge 39, Type (0, 0), BuildingBlock: KIFKEQ_clean_linker_1, # of connection points: 2
#     Edge 40, Type (0, 0), BuildingBlock: KIFKEQ_clean_linker_1, # of connection points: 2
#     Edge 41, Type (0, 0), BuildingBlock: KIFKEQ_clean_linker_1, # of connection points: 2
#     Edge 42, Type (0, 0), BuildingBlock: KIFKEQ_clean_linker_1, # of connection points: 2
#     Edge 43, Type (0, 0), BuildingBlock: KIFKEQ_clean_linker_1, # of connection points: 2
#     Edge 44, Type (0, 0), BuildingBlock: KIFKEQ_clean_linker_1, # of connection points: 2
#     Edge 45, Type (0, 0), BuildingBlock: KIFKEQ_clean_linker_1, # of connection points: 2
#     Edge 46, Type (0, 0), BuildingBlock: KIFKEQ_clean_linker_1, # of connection points: 2
#     Edge 47, Type (0, 0), BuildingBlock: KIFKEQ_clean_linker_1, # of connection points: 2
#     Edge 48, Type (0, 0), BuildingBlock: KIFKEQ_clean_linker_1, # of connection points: 2
#     Edge 49, Type (0, 0), BuildingBlock: KIFKEQ_clean_linker_1, # of connection points: 2
#     Edge 50, Type (0, 0), BuildingBlock: KIFKEQ_clean_linker_1, # of connection points: 2
#     Edge 51, Type (0, 0), BuildingBlock: KIFKEQ_clean_linker_1, # of connection points: 2
#     Edge 52, Type (0, 0), BuildingBlock: KIFKEQ_clean_linker_1, # of connection points: 2
#     Edge 53, Type (0, 0), BuildingBlock: KIFKEQ_clean_linker_1, # of connection points: 2
#     Edge 54, Type (0, 0), BuildingBlock: KIFKEQ_clean_linker_1, # of connection points: 2
#     Edge 55, Type (0, 0), BuildingBlock: KIFKEQ_clean_linker_1, # of connection points: 2
#     Edge 56, Type (0, 0), BuildingBlock: KIFKEQ_clean_linker_1, # of connection points: 2
#     Edge 57, Type (0, 0), BuildingBlock: KIFKEQ_clean_linker_1, # of connection points: 2
#     Edge 58, Type (0, 0), BuildingBlock: KIFKEQ_clean_linker_1, # of connection points: 2
#     Edge 59, Type (0, 0), BuildingBlock: KIFKEQ_clean_linker_1, # of connection points: 2
#     Edge 60, Type (0, 0), BuildingBlock: KIFKEQ_clean_linker_1, # of connection points: 2
#     Edge 61, Type (0, 0), BuildingBlock: KIFKEQ_clean_linker_1, # of connection points: 2
#     Edge 62, Type (0, 0), BuildingBlock: KIFKEQ_clean_linker_1, # of connection points: 2
#     Edge 63, Type (0, 0), BuildingBlock: KIFKEQ_clean_linker_1, # of connection points: 2
#     Edge 64, Type (0, 0), BuildingBlock: KIFKEQ_clean_linker_1, # of connection points: 2
#     Edge 65, Type (0, 0), BuildingBlock: KIFKEQ_clean_linker_1, # of connection points: 2
#     Edge 66, Type (0, 0), BuildingBlock: KIFKEQ_clean_linker_1, # of connection points: 2
#     Edge 67, Type (0, 0), BuildingBlock: KIFKEQ_clean_linker_1, # of connection points: 2
#     Edge 68, Type (0, 0), BuildingBlock: KIFKEQ_clean_linker_1, # of connection points: 2
#     Edge 69, Type (0, 0), BuildingBlock: KIFKEQ_clean_linker_1, # of connection points: 2
#     Edge 70, Type (0, 0), BuildingBlock: KIFKEQ_clean_linker_1, # of connection points: 2
#     Edge 71, Type (0, 0), BuildingBlock: KIFKEQ_clean_linker_1, # of connection points: 2
# Relax obj value: 0.065
# Max RMSD: 0.178
# Mean RMSD: 0.178
data_MOF--net-wmi--node1-KUMJIN_clean_sbu_1--edge1-KIFKEQ_clean_linker_1
_symmetry_space_group_name_H-M    P1
_symmetry_Int_Tables_number       1
_symmetry_cell_setting            triclinic
loop_
_symmetry_equiv_pos_as_xyz
'x, y, z'
_cell_length_a     39.570835
_cell_length_b     39.522809
_cell_length_c     82.398858
_cell_angle_alpha  90.02519
_cell_angle_beta   89.966251
_cell_angle_gamma 120.0608
loop_
_atom_site_label
_atom_site_type_symbol
_atom_site_fract_x
_atom_site_fract_y
_atom_site_fract_z
_atom_type_partial_charge
Eu0 Eu 0.43641 0.99608 0.08328 0.0
C1 C 0.57267 1.00769 0.12801 0.0
N2 N 0.55532 0.0298 0.12944 0.0
C3 C 0.55548 0.02489 0.15842 0.0
C4 C 0.58164 0.9928 0.14188 0.0
C5 C 0.54698 0.03889 0.14432 0.0
C6 C 0.57277 1.00165 0.1572 0.0
C7 C 0.59852 0.97617 0.11072 0.0
C8 C 0.58093 0.99938 0.11259 0.0
C9 C 0.60733 0.96117 0.12451 0.0
C10 C 0.59894 0.96947 0.14004 0.0
Eu11 Eu 0.54129 0.05127 0.10502 0.0
N12 N 0.57085 0.01319 0.09942 0.0
C13 C 0.60658 0.96856 0.09503 0.0
C14 C 0.5805 1.00756 0.08416 0.0
C15 C 0.59794 0.98472 0.08171 0.0
H16 H 0.5341 0.0573 0.14536 0.0
H17 H 0.60486 0.97973 0.06955 0.0
H18 H 0.44958 0.9927 0.04316 0.0
H19 H 0.36512 0.06232 0.11693 0.0
H20 H 0.57522 0.02085 0.07385 0.0
H21 H 0.61988 0.95069 0.09308 0.0
H22 H 0.39678 0.02269 0.11349 0.0
H23 H 0.54876 0.03209 0.17021 0.0
H24 H 0.62065 0.94311 0.1233 0.0
H25 H 0.60593 0.95769 0.15056 0.0
H26 H 0.44008 0.02102 0.01802 0.0
H27 H 0.57923 0.99078 0.16814 0.0
H28 H 0.35343 0.09294 0.09303 0.0
N29 N 0.4264 0.01932 0.05849 0.0
C30 C 0.40853 0.04103 0.05949 0.0
C31 C 0.43128 0.02706 0.0296 0.0
C32 C 0.40199 0.05728 0.04543 0.0
C33 C 0.43709 1.01147 0.04386 0.0
C34 C 0.41389 0.05028 0.0304 0.0
N35 N 0.40466 0.03219 0.08808 0.0
C36 C 0.3926 0.03647 0.10305 0.0
C37 C 0.37875 0.07001 0.07603 0.0
C38 C 0.39703 0.04735 0.07465 0.0
C39 C 0.36757 0.07571 0.09146 0.0
C40 C 0.37425 0.05861 0.10499 0.0
H41 H 0.40953 0.06242 0.01935 0.0
H42 H 0.37871 0.09275 0.03614 0.0
H43 H 0.35837 0.10387 0.06289 0.0
O44 O 0.38536 0.94487 0.09359 0.0
O45 O 0.47099 0.06364 0.08286 0.0
O46 O 0.50559 0.08085 0.10672 0.0
O47 O 0.39149 0.95185 0.06762 0.0
O48 O 0.43794 0.98899 0.11042 0.0
O49 O 0.49092 0.04419 0.1214 0.0
O50 O 0.59661 0.09448 0.09417 0.0
O51 O 0.5051 0.98496 0.1077 0.0
O52 O 0.47341 0.96696 0.08335 0.0
O53 O 0.58544 0.10063 0.11929 0.0
O54 O 0.53715 0.05869 0.0773 0.0
O55 O 0.48652 0.99889 0.06962 0.0
C56 C 0.48962 0.08898 0.09458 0.0
C57 C 0.36827 0.88851 0.07806 0.0
C58 C 0.33188 0.81835 0.08357 0.0
C59 C 0.3631 0.81506 0.07725 0.0
C60 C 0.39862 0.88417 0.0714 0.0
C61 C 0.39609 0.84774 0.07111 0.0
C62 C 0.33459 0.85533 0.08397 0.0
C63 C 0.45574 0.01273 0.12264 0.0
C64 C 0.37312 0.92795 0.07952 0.0
C65 C 0.38391 0.07998 0.04681 0.0
C66 C 0.37231 0.0863 0.06205 0.0
C67 C 0.48791 0.95903 0.09616 0.0
C68 C 0.62901 0.15839 0.1047 0.0
C69 C 0.68869 0.22093 0.09938 0.0
C70 C 0.66562 0.23873 0.09798 0.0
C71 C 0.60682 0.17686 0.1032 0.0
C72 C 0.66992 0.18049 0.10283 0.0
C73 C 0.62509 0.21684 0.0999 0.0
C74 C 0.51811 0.03175 0.06613 0.0
C75 C 0.6098 0.11575 0.10721 0.0
H76 H 0.36154 0.78691 0.07668 0.0
H77 H 0.42442 0.90901 0.06644 0.0
H78 H 0.41973 0.84479 0.06604 0.0
H79 H 0.3109 0.85829 0.08902 0.0
H80 H 0.67895 0.26976 0.0956 0.0
H81 H 0.57542 0.16026 0.10444 0.0
H82 H 0.68695 0.16599 0.10371 0.0
H83 H 0.60773 0.23091 0.09878 0.0
Eu84 Eu 0.06962 0.45917 0.08423 0.0
C85 C 0.05831 0.58356 0.12897 0.0
N86 N 0.03632 0.54407 0.13054 0.0
C87 C 0.04236 0.54973 0.15948 0.0
C88 C 0.07375 0.60774 0.14274 0.0
C89 C 0.0278 0.52691 0.14548 0.0
C90 C 0.06555 0.59029 0.15811 0.0
C91 C 0.08898 0.6407 0.1115 0.0
C92 C 0.06596 0.59985 0.11351 0.0
C93 C 0.10455 0.66481 0.12519 0.0
C94 C 0.09695 0.64839 0.14076 0.0
Eu95 Eu 1.01391 0.50803 0.10626 0.0
N96 N 0.0516 0.57568 0.10042 0.0
C97 C 0.0958 0.6561 0.09577 0.0
C98 C 0.05637 0.59072 0.08515 0.0
C99 C 0.079 0.63102 0.08256 0.0
H100 H 1.00943 0.49561 0.14665 0.0
H101 H 0.08328 0.64272 0.07038 0.0
H102 H 0.07853 0.48081 0.0445 0.0
H103 H 0.99837 0.31772 0.11497 0.0
H104 H 0.04241 0.57197 0.07495 0.0
H105 H 0.1135 0.68729 0.09371 0.0
H106 H 0.03779 0.38962 0.11316 0.0
H107 H 0.03564 0.53602 0.17132 0.0
H108 H 0.1225 0.69622 0.12386 0.0
H109 H 0.10916 0.66739 0.1512 0.0
H110 H 0.05507 0.44608 0.01841 0.0
H111 H 0.07686 0.60787 0.16899 0.0
H112 H 0.97224 0.27823 0.09 0.0
N113 N 0.05007 0.42902 0.05867 0.0
C114 C 0.02854 0.38932 0.05877 0.0
C115 C 0.04714 0.42975 0.02965 0.0
C116 C 1.01485 0.36823 0.04414 0.0
C117 C 0.06004 0.4494 0.04445 0.0
C118 C 0.02426 0.389 0.02949 0.0
N119 N 0.03297 0.3908 0.08753 0.0
C120 C 0.02624 0.37275 0.10223 0.0
C121 C 0.99753 0.32852 0.07403 0.0
C122 C 0.02005 0.36964 0.07357 0.0
C123 C 0.98947 0.30979 0.08913 0.0
C124 C 1.00409 0.33199 0.10327 0.0
H125 H 1.01432 0.37386 0.01799 0.0
H126 H 0.98152 0.31054 0.03348 0.0
H127 H 0.96631 0.27584 0.05961 0.0
O128 O 0.12065 0.46058 0.09532 0.0
O129 O 1.00214 0.42495 0.08391 0.0
O130 O 0.98404 0.44252 0.10757 0.0
O131 O 0.11499 0.45871 0.06928 0.0
O132 O 0.07522 0.46518 0.11149 0.0
O133 O 0.0209 0.46466 0.12261 0.0
O134 O 0.97105 0.5212 0.09594 0.0
O135 O 0.08013 0.53774 0.10913 0.0
O136 O 0.09764 0.52516 0.0845 0.0
O137 O 0.96461 0.50198 0.12079 0.0
O138 O 1.00603 0.4963 0.07857 0.0
O139 O 0.06608 0.50654 0.07091 0.0
C140 C 0.97631 0.41852 0.09539 0.0
C141 C 0.17768 0.49939 0.08009 0.0
C142 C 0.24793 0.5326 0.08514 0.0
C143 C 0.25129 0.56746 0.07915 0.0
C144 C 0.18206 0.53437 0.07374 0.0
C145 C 0.21857 0.5682 0.07341 0.0
C146 C 0.21086 0.49846 0.08562 0.0
C147 C 0.052 0.46038 0.12377 0.0
C148 C 0.13826 0.46476 0.08146 0.0
C149 C 0.99235 0.32724 0.04459 0.0
C150 C 0.98371 0.30746 0.05948 0.0
C151 C 0.10591 0.54707 0.0975 0.0
C152 C 0.90712 0.48877 0.10629 0.0
C153 C 0.84498 0.48619 0.10057 0.0
C154 C 0.82707 0.44525 0.09918 0.0
C155 C 0.88855 0.44804 0.10478 0.0
C156 C 0.88526 0.50774 0.10422 0.0
C157 C 0.84872 0.42643 0.10128 0.0
C158 C 0.03287 0.50431 0.06736 0.0
C159 C 0.94965 0.51211 0.10896 0.0
H160 H 0.27948 0.59397 0.07852 0.0
H161 H 0.15724 0.53559 0.069 0.0
H162 H 0.22156 0.59503 0.06858 0.0
H163 H 0.20783 0.47153 0.0904 0.0
H164 H 0.79614 0.42762 0.09665 0.0
H165 H 0.90497 0.43311 0.10616 0.0
H166 H 0.89986 0.53933 0.10508 0.0
H167 H 0.83456 0.39494 0.10015 0.0
Eu168 Eu 0.60514 0.62646 0.08384 0.0
C169 C 0.48219 0.49189 0.12895 0.0
N170 N 0.52163 0.50991 0.1307 0.0
C171 C 0.5153 0.51163 0.15956 0.0
C172 C 0.4577 0.48357 0.14258 0.0
C173 C 0.53844 0.51947 0.14569 0.0
C174 C 0.47477 0.49374 0.158 0.0
C175 C 0.42551 0.46414 0.11123 0.0
C176 C 0.46628 0.4824 0.11342 0.0
C177 C 0.40109 0.45599 0.12478 0.0
C178 C 0.41712 0.46566 0.14041 0.0
Eu179 Eu 0.55815 0.52267 0.10663 0.0
N180 N 0.49073 0.49188 0.10045 0.0
C181 C 0.4105 0.45476 0.09546 0.0
C182 C 0.4761 0.4809 0.08516 0.0
C183 C 0.43589 0.46273 0.0824 0.0
H184 H 0.56971 0.53284 0.14699 0.0
H185 H 0.42449 0.45472 0.0702 0.0
H186 H 0.58272 0.61216 0.04418 0.0
H187 H 0.74709 0.70117 0.11396 0.0
H188 H 0.49514 0.48551 0.07509 0.0
H189 H 0.37937 0.44089 0.09327 0.0
H190 H 0.67516 0.66683 0.11242 0.0
H191 H 0.52871 0.51934 0.17144 0.0
H192 H 0.36973 0.4422 0.12331 0.0
H193 H 0.39787 0.45918 0.15074 0.0
H194 H 0.61711 0.62353 0.01793 0.0
H195 H 0.45694 0.48781 0.16877 0.0
H196 H 0.78615 0.71474 0.08886 0.0
N197 N 0.63481 0.63714 0.05815 0.0
C198 C 0.6745 0.6562 0.05809 0.0
C199 C 0.63358 0.63269 0.02913 0.0
C200 C 0.69534 0.66376 0.04339 0.0
C201 C 0.61417 0.6259 0.044 0.0
C202 C 0.67433 0.65154 0.02883 0.0
N203 N 0.67356 0.65991 0.08683 0.0
C204 C 0.69186 0.6722 0.10144 0.0
C205 C 0.73557 0.68793 0.0731 0.0
C206 C 0.69444 0.66826 0.0728 0.0
C207 C 0.75458 0.69956 0.08812 0.0
C208 C 0.73262 0.69187 0.10233 0.0
H209 H 0.68932 0.65683 0.01729 0.0
H210 H 0.75283 0.68927 0.0325 0.0
H211 H 0.788 0.71035 0.05848 0.0
O212 O 0.60233 0.6755 0.09482 0.0
O213 O 0.64116 0.59507 0.08408 0.0
O214 O 0.62358 0.5589 0.10768 0.0
O215 O 0.60377 0.67125 0.06878 0.0
O216 O 0.59962 0.62682 0.11114 0.0
O217 O 0.60139 0.57389 0.12259 0.0
O218 O 0.54446 0.46573 0.0971 0.0
O219 O 0.52807 0.55895 0.1091 0.0
O220 O 0.53948 0.58687 0.08409 0.0
O221 O 0.56538 0.48086 0.12167 0.0
O222 O 0.57107 0.52574 0.07914 0.0
O223 O 0.55886 0.57385 0.07087 0.0
C224 C 0.64767 0.57573 0.09556 0.0
C225 C 0.56269 0.69272 0.07968 0.0
C226 C 0.52915 0.72957 0.08446 0.0
C227 C 0.49422 0.69737 0.07894 0.0
C228 C 0.52762 0.66143 0.07376 0.0
C229 C 0.49359 0.66367 0.07352 0.0
C230 C 0.56351 0.7271 0.08484 0.0
C231 C 0.60549 0.60926 0.12348 0.0
C232 C 0.59763 0.68849 0.08095 0.0
C233 C 0.73633 0.68327 0.04368 0.0
C234 C 0.75638 0.69531 0.05848 0.0
C235 C 0.51807 0.57422 0.09724 0.0
C236 C 0.57824 0.43581 0.10751 0.0
C237 C 0.58104 0.37647 0.10141 0.0
C238 C 0.62197 0.39961 0.10025 0.0
C239 C 0.61896 0.45813 0.10621 0.0
C240 C 0.55939 0.39504 0.10513 0.0
C241 C 0.64067 0.44005 0.10264 0.0
C242 C 0.56286 0.54369 0.06765 0.0
C243 C 0.55471 0.45478 0.11018 0.0
H244 H 0.46754 0.69868 0.07841 0.0
H245 H 0.52649 0.63519 0.06927 0.0
H246 H 0.46668 0.6393 0.06903 0.0
H247 H 0.59052 0.75156 0.08927 0.0
H248 H 0.63966 0.38641 0.09767 0.0
H249 H 0.63383 0.48949 0.1078 0.0
H250 H 0.52781 0.37798 0.10581 0.0
H251 H 0.67215 0.45749 0.10167 0.0
Eu252 Eu 1.00849 0.42804 0.92584 0.0
C253 C 0.02185 0.57636 0.89643 0.0
N254 N 0.0388 0.55597 0.8909 0.0
C255 C 1.01676 0.55672 0.8639 0.0
C256 C 1.00014 0.58634 0.88589 0.0
C257 C 0.03778 0.54723 0.87482 0.0
C258 C 0.99753 0.57601 0.86948 0.0
C259 C 1.00813 0.60753 0.9188 0.0
C260 C 0.02582 0.58672 0.91273 0.0
C261 C 0.98543 0.61642 0.90846 0.0
C262 C 0.98157 0.60599 0.89204 0.0
Eu263 Eu 0.0733 0.54067 0.91005 0.0
N264 N 0.04781 0.57752 0.92251 0.0
C265 C 1.01446 0.61957 0.93502 0.0
C266 C 0.05684 0.59236 0.93789 0.0
C267 C 0.03953 0.61261 0.9445 0.0
H268 H 0.05286 0.53256 0.87047 0.0
H269 H 0.04609 0.62342 0.95684 0.0
H270 H 0.99728 0.43563 0.96611 0.0
H271 H 0.05955 0.33931 0.89566 0.0
H272 H 0.07805 0.5896 0.9451 0.0
H273 H 1.00132 0.63552 0.94015 0.0
H274 H 0.02507 0.37701 0.89796 0.0
H275 H 1.01539 0.54914 0.8512 0.0
H276 H 0.97128 0.63196 0.91299 0.0
H277 H 0.96434 0.61345 0.88417 0.0
H278 H 0.02414 0.4273 0.99175 0.0
H279 H 0.98108 0.58312 0.86101 0.0
H280 H 0.09301 0.33197 0.91966 0.0
N281 N 0.0297 0.41796 0.95129 0.0
C282 C 0.05149 0.40016 0.95094 0.0
C283 C 0.03275 0.42024 0.98036 0.0
C284 C 0.06635 0.39335 0.96536 0.0
C285 C 0.01824 0.42579 0.96576 0.0
C286 C 0.05758 0.40466 0.98016 0.0
N287 N 0.04009 0.39137 0.92274 0.0
C288 C 0.03981 0.3739 0.9084 0.0
C289 C 0.07636 0.36485 0.93555 0.0
C290 C 0.0564 0.38598 0.93626 0.0
C291 C 0.07803 0.34851 0.92069 0.0
C292 C 0.05915 0.35254 0.90711 0.0
H293 H 0.06837 0.39991 0.99152 0.0
H294 H 0.09993 0.36884 0.97555 0.0
H295 H 0.10873 0.34393 0.94944 0.0
O296 O 0.95538 0.38736 0.91278 0.0
O297 O 0.07123 0.45117 0.917 0.0
O298 O 0.10011 0.51392 0.92599 0.0
O299 O 0.96127 0.37736 0.9381 0.0
O300 O 1.00945 0.43675 0.89877 0.0
O301 O 0.06712 0.49375 0.89151 0.0
O302 O 0.11533 0.60354 0.91003 0.0
O303 O 1.00911 0.50219 0.90343 0.0
O304 O 0.98363 0.4686 0.92686 0.0
O305 O 0.12571 0.56549 0.89477 0.0
O306 O 0.07422 0.52993 0.93754 0.0
O307 O 1.01288 0.47666 0.94192 0.0
C308 C 0.10274 0.48372 0.9213 0.0
C309 C 0.91858 0.32245 0.92227 0.0
C310 C 0.85651 0.26238 0.91795 0.0
C311 C 0.87681 0.24176 0.91642 0.0
C312 C 0.93837 0.30146 0.92095 0.0
C313 C 0.91748 0.26126 0.91796 0.0
C314 C 0.87782 0.30288 0.92079 0.0
C315 C 0.03741 0.45809 0.88838 0.0
C316 C 0.93935 0.3647 0.92525 0.0
C317 C 0.08798 0.37401 0.96462 0.0
C318 C 0.09293 0.35976 0.94975 0.0
C319 C 0.98121 0.48753 0.91428 0.0
C320 C 0.18169 0.62484 0.90401 0.0
C321 C 0.2389 0.68801 0.91136 0.0
C322 C 0.26183 0.66998 0.91114 0.0
C323 C 0.20576 0.60819 0.90342 0.0
C324 C 0.19864 0.66509 0.90776 0.0
C325 C 0.2454 0.63055 0.90711 0.0
C326 C 0.04425 0.5081 0.94716 0.0
C327 C 0.13943 0.60115 0.90004 0.0
H328 H 0.8612 0.21049 0.91436 0.0
H329 H 0.96973 0.31601 0.9223 0.0
H330 H 0.93281 0.2451 0.91693 0.0
H331 H 0.86272 0.31934 0.92175 0.0
H332 H 0.29287 0.68673 0.91359 0.0
H333 H 0.19406 0.57796 0.89995 0.0
H334 H 0.18055 0.67852 0.90786 0.0
H335 H 0.26366 0.61737 0.90663 0.0
Eu336 Eu 0.64674 0.60313 0.92441 0.0
C337 C 0.48589 0.47649 0.89489 0.0
N338 N 0.51001 0.5143 0.89052 0.0
C339 C 0.50395 0.49577 0.86252 0.0
C340 C 0.47087 0.44646 0.88316 0.0
C341 C 0.51842 0.5245 0.8746 0.0
C342 C 0.48034 0.45654 0.86683 0.0
C343 C 0.45232 0.4287 0.91612 0.0
C344 C 0.47676 0.46782 0.9112 0.0
C345 C 0.43809 0.3986 0.90453 0.0
C346 C 0.44721 0.40746 0.88809 0.0
Eu347 Eu 0.53316 0.56105 0.9115 0.0
N348 N 0.49099 0.49759 0.92216 0.0
C349 C 0.44229 0.42101 0.93252 0.0
C350 C 0.4788 0.49036 0.93795 0.0
C351 C 0.45508 0.45204 0.94342 0.0
H352 H 0.53622 0.5548 0.87118 0.0
H353 H 0.44617 0.44652 0.95602 0.0
H354 H 0.64267 0.58742 0.96514 0.0
H355 H 0.7325 0.7407 0.89214 0.0
H356 H 0.48633 0.5139 0.94638 0.0
H357 H 0.42369 0.39136 0.93679 0.0
H358 H 0.69542 0.6686 0.89546 0.0
H359 H 0.51098 0.5039 0.84991 0.0
H360 H 0.41959 0.36838 0.90813 0.0
H361 H 0.43575 0.38395 0.87927 0.0
H362 H 0.65294 0.62477 0.99031 0.0
H363 H 0.46937 0.43432 0.85745 0.0
H364 H 0.74273 0.78344 0.91582 0.0
N365 N 0.65957 0.63636 0.94962 0.0
C366 C 0.678 0.67606 0.94877 0.0
C367 C 0.65948 0.63954 0.9787 0.0
C368 C 0.68612 0.69894 0.96293 0.0
C369 C 0.65265 0.61823 0.96434 0.0
C370 C 0.6756 0.68003 0.97799 0.0
N371 N 0.68393 0.67126 0.92044 0.0
C372 C 0.69982 0.68732 0.90575 0.0
C373 C 0.71208 0.73512 0.93253 0.0
C374 C 0.69111 0.69405 0.9338 0.0
C375 C 0.72647 0.75197 0.91729 0.0
C376 C 0.72076 0.72795 0.90389 0.0
H377 H 0.68131 0.69653 0.98916 0.0
H378 H 0.71184 0.75792 0.9724 0.0
H379 H 0.73443 0.78957 0.94578 0.0
O380 O 0.68913 0.59547 0.91014 0.0
O381 O 0.62497 0.64517 0.91688 0.0
O382 O 0.56665 0.61069 0.92878 0.0
O383 O 0.69723 0.60447 0.93588 0.0
O384 O 0.63046 0.58884 0.89818 0.0
O385 O 0.57995 0.60073 0.89257 0.0
O386 O 0.47449 0.55187 0.91552 0.0
O387 O 0.56339 0.52749 0.90383 0.0
O388 O 0.60424 0.53726 0.92523 0.0
O389 O 0.51277 0.59552 0.89833 0.0
O390 O 0.54733 0.56782 0.9389 0.0
O391 O 0.60108 0.55963 0.94186 0.0
C392 C 0.5937 0.6438 0.92296 0.0
C393 C 0.71327 0.56018 0.92408 0.0
C394 C 0.75179 0.52817 0.92013 0.0
C395 C 0.71975 0.49275 0.92541 0.0
C396 C 0.68206 0.52467 0.92969 0.0
C397 C 0.68521 0.49113 0.93022 0.0
C398 C 0.74836 0.56198 0.91946 0.0
C399 C 0.6132 0.60207 0.88862 0.0
C400 C 0.70851 0.59473 0.92274 0.0
C401 C 0.70568 0.7399 0.96167 0.0
C402 C 0.71864 0.75794 0.94651 0.0
C403 C 0.57962 0.51438 0.91403 0.0
C404 C 0.44399 0.56393 0.89335 0.0
C405 C 0.37411 0.54095 0.8894 0.0
C406 C 0.38039 0.54283 0.8725 0.0
C407 C 0.44894 0.56472 0.87647 0.0
C408 C 0.40648 0.55169 0.89975 0.0
C409 C 0.4173 0.55423 0.86616 0.0
C410 C 0.5688 0.55724 0.94752 0.0
C411 C 0.47764 0.57673 0.90447 0.0
H412 H 0.72176 0.46645 0.92621 0.0
H413 H 0.65526 0.52282 0.93374 0.0
H414 H 0.66089 0.46387 0.93449 0.0
H415 H 0.7727 0.58938 0.91526 0.0
H416 H 0.35696 0.53614 0.86403 0.0
H417 H 0.4773 0.5738 0.8712 0.0
H418 H 0.40269 0.55042 0.91279 0.0
H419 H 0.42148 0.55538 0.85314 0.0
Eu420 Eu 0.4755 0.06965 0.92589 0.0
C421 C 0.60484 0.05246 0.89034 0.0
N422 N 0.56643 0.0353 0.88629 0.0
C423 C 0.58315 0.05059 0.85825 0.0
C424 C 0.63408 0.06967 0.87834 0.0
C425 C 0.55516 0.03377 0.87054 0.0
C426 C 0.62277 0.06863 0.86216 0.0
C427 C 0.65467 0.07162 0.9111 0.0
C428 C 0.61496 0.0538 0.90661 0.0
C429 C 0.68378 0.0883 0.89914 0.0
C430 C 0.67354 0.08751 0.88283 0.0
Eu431 Eu 0.52148 1.00671 0.90771 0.0
N432 N 0.58615 0.03771 0.91801 0.0
C433 C 0.66402 0.07178 0.92747 0.0
C434 C 0.59523 0.03504 0.93376 0.0
C435 C 0.63414 0.05294 0.93881 0.0
H436 H 0.52458 0.01917 0.86739 0.0
H437 H 0.64104 0.05132 0.95139 0.0
H438 H 0.49626 0.08492 0.96567 0.0
H439 H 0.33508 1.00209 0.8947 0.0
H440 H 0.5729 0.01779 0.94243 0.0
H441 H 0.69416 0.08534 0.9314 0.0
H442 H 0.40702 0.03795 0.89679 0.0
H443 H 0.57414 0.04942 0.84577 0.0
H444 H 0.71436 0.10189 0.9024 0.0
H445 H 0.6964 0.10081 0.87378 0.0
H446 H 0.4608 0.06649 0.99181 0.0
H447 H 0.64438 0.0816 0.85261 0.0
H448 H 0.29476 0.98116 0.91963 0.0
N449 N 0.44472 0.05598 0.95144 0.0
C450 C 0.40503 0.03604 0.95125 0.0
C451 C 0.44477 0.05757 0.9805 0.0
C452 C 0.38357 0.02561 0.96586 0.0
C453 C 0.46479 0.06755 0.96571 0.0
C454 C 0.40398 0.03631 0.98058 0.0
N455 N 0.40723 0.03587 0.92251 0.0
C456 C 0.38969 0.02843 0.90769 0.0
C457 C 0.34461 1.00576 0.9358 0.0
C458 C 0.38573 0.02612 0.9364 0.0
C459 C 0.32631 0.99674 0.9206 0.0
C460 C 0.34897 1.0084 0.90649 0.0
H461 H 0.38851 0.02864 0.99205 0.0
H462 H 0.32558 0.99668 0.97641 0.0
H463 H 0.29152 0.97942 0.95012 0.0
O464 O 0.47965 0.11882 0.9121 0.0
O465 O 0.43715 1.00209 0.92704 0.0
O466 O 0.45632 0.97769 0.90562 0.0
O467 O 0.48006 0.12075 0.93831 0.0
O468 O 0.4836 0.07025 0.89877 0.0
O469 O 0.47961 1.01242 0.88996 0.0
O470 O 0.52427 0.95659 0.91753 0.0
O471 O 0.55157 0.07233 0.90305 0.0
O472 O 0.54133 0.09563 0.92675 0.0
O473 O 0.52177 0.96266 0.89166 0.0
O474 O 0.50655 1.00224 0.93512 0.0
O475 O 0.51991 0.06452 0.94075 0.0
C476 C 0.43096 0.97387 0.91673 0.0
C477 C 0.45828 0.1589 0.92446 0.0
C478 C 0.45677 0.21993 0.9218 0.0
C479 C 0.41579 0.19819 0.92314 0.0
C480 C 0.41751 0.13793 0.92575 0.0
C481 C 0.39643 0.15758 0.9251 0.0
C482 C 0.47778 0.19978 0.92249 0.0
C483 C 0.47567 0.0435 0.88764 0.0
C484 C 0.48108 0.13879 0.92494 0.0
C485 C 0.34256 1.00499 0.96531 0.0
C486 C 0.32315 0.99517 0.95033 0.0
C487 C 0.56351 0.09952 0.91421 0.0
C488 C 0.50007 0.89869 0.90183 0.0
C489 C 0.49552 0.8343 0.90311 0.0
C490 C 0.45628 0.81728 0.89804 0.0
C491 C 0.46084 0.88075 0.89713 0.0
C492 C 0.51727 0.87544 0.9049 0.0
C493 C 0.43917 0.84027 0.89522 0.0
C494 C 0.51517 0.03092 0.94553 0.0
C495 C 0.52367 0.94162 0.90339 0.0
H496 H 0.39864 0.21261 0.92293 0.0
H497 H 0.40205 0.1065 0.92725 0.0
H498 H 0.36494 0.14128 0.92616 0.0
H499 H 0.5093 0.21575 0.92128 0.0
H500 H 0.43867 0.78609 0.89607 0.0
H501 H 0.44711 0.89807 0.89481 0.0
H502 H 0.54741 0.88948 0.90885 0.0
H503 H 0.40895 0.82661 0.89143 0.0
Eu504 Eu 0.10203 0.32038 0.42168 0.0
C505 C 0.25012 0.34114 0.45784 0.0
N506 N 0.22768 0.35728 0.46149 0.0
C507 C 0.22921 0.34362 0.48972 0.0
C508 C 0.26279 0.32529 0.47016 0.0
C509 C 0.21742 0.35911 0.47714 0.0
C510 C 0.25197 0.32663 0.48622 0.0
C511 C 0.28232 0.32235 0.43759 0.0
C512 C 0.2595 0.33942 0.44166 0.0
C513 C 0.29556 0.30726 0.44988 0.0
C514 C 0.28564 0.3085 0.46609 0.0
Eu515 Eu 0.21131 0.38434 0.4395 0.0
N516 N 0.24587 0.3538 0.42991 0.0
C517 C 0.29125 0.32098 0.42126 0.0
C518 C 0.25658 0.35465 0.41411 0.0
C519 C 0.27859 0.3375 0.40949 0.0
H520 H 0.20073 0.3731 0.48002 0.0
H521 H 0.28644 0.33774 0.39689 0.0
H522 H 0.10686 0.30557 0.3817 0.0
H523 H 0.02566 0.3833 0.45359 0.0
H524 H 0.24951 0.36959 0.40505 0.0
H525 H 0.30847 0.30788 0.41765 0.0
H526 H 0.06313 0.34893 0.45105 0.0
H527 H 0.221 0.34507 0.50212 0.0
H528 H 0.31346 0.29448 0.44696 0.0
H529 H 0.29578 0.29635 0.47541 0.0
H530 H 0.08911 0.32412 0.35579 0.0
H531 H 0.26111 0.31472 0.49602 0.0
H532 H 1.00581 0.40455 0.4289 0.0
N533 N 0.08397 0.33378 0.39627 0.0
C534 C 0.06352 0.35301 0.39667 0.0
C535 C 0.08191 0.33257 0.3672 0.0
C536 C 0.05195 0.36333 0.3822 0.0
C537 C 0.0924 0.32259 0.38188 0.0
C538 C 0.06181 0.35324 0.36736 0.0
N539 N 0.06602 0.35252 0.4254 0.0
C540 C 0.05524 0.35876 0.4403 0.0
C541 C 0.03215 0.38157 0.41245 0.0
C542 C 0.05378 0.36213 0.41163 0.0
C543 C 0.02242 0.38967 0.42775 0.0
C544 C 0.0337 0.37786 0.44173 0.0
H545 H 0.0536 0.36086 0.356 0.0
H546 H 0.02179 0.39143 0.37196 0.0
H547 H 1.0044 0.40731 0.39843 0.0
O548 O 0.05726 0.27211 0.43594 0.0
O549 O 0.12852 0.38775 0.42177 0.0
O550 O 0.17607 0.41427 0.44178 0.0
O551 O 0.05581 0.26824 0.40974 0.0
O552 O 0.11504 0.31847 0.44815 0.0
O553 O 0.16329 0.37802 0.45729 0.0
O554 O 0.26375 0.43432 0.42924 0.0
O555 O 0.1785 0.31797 0.44255 0.0
O556 O 0.1423 0.29489 0.4193 0.0
O557 O 0.2566 0.42828 0.4552 0.0
O558 O 0.20074 0.38949 0.41214 0.0
O559 O 0.15115 0.32767 0.40593 0.0
C560 C 0.15188 0.41667 0.43158 0.0
C561 C 0.99601 0.23056 0.4237 0.0
C562 C 0.93403 0.16884 0.42557 0.0
C563 C 0.91421 0.1901 0.42503 0.0
C564 C 0.97572 0.25112 0.42314 0.0
C565 C 0.93497 0.23088 0.4238 0.0
C566 C 0.97515 0.18953 0.42486 0.0
C567 C 0.12842 0.34641 0.45897 0.0
C568 C 0.03891 0.25112 0.42327 0.0
C569 C 0.03082 0.38317 0.38297 0.0
C570 C 0.0209 0.3922 0.39805 0.0
C571 C 0.16291 0.29151 0.43107 0.0
C572 C 0.29858 0.49212 0.44497 0.0
C573 C 0.35863 0.55625 0.44365 0.0
C574 C 0.33701 0.57339 0.44934 0.0
C575 C 0.27789 0.51014 0.45037 0.0
C576 C 0.33885 0.51521 0.44155 0.0
C577 C 0.29706 0.55055 0.45255 0.0
C578 C 0.18035 0.36146 0.40149 0.0
C579 C 0.27893 0.44922 0.4433 0.0
H580 H 0.88262 0.17517 0.42535 0.0
H581 H 0.99132 0.28268 0.42223 0.0
H582 H 0.91937 0.24686 0.42334 0.0
H583 H 0.99105 0.17382 0.42547 0.0
H584 H 0.35098 0.60452 0.45155 0.0
H585 H 0.24706 0.49289 0.45309 0.0
H586 H 0.35455 0.50112 0.43714 0.0
H587 H 0.28095 0.56425 0.45688 0.0
Eu588 Eu 0.74015 0.78494 0.42143 0.0
C589 C 0.71533 0.91791 0.4499 0.0
N590 N 0.70134 0.88038 0.45474 0.0
C591 C 0.71846 0.90139 0.48231 0.0
C592 C 0.73247 0.94896 0.46114 0.0
C593 C 0.70193 0.8716 0.47072 0.0
C594 C 0.73398 0.94027 0.4775 0.0
C595 C 0.72821 0.96405 0.42813 0.0
C596 C 0.71322 0.92526 0.43358 0.0
C597 C 0.74589 0.99512 0.43923 0.0
C598 C 0.74787 0.98759 0.4557 0.0
Eu599 Eu 0.67278 0.8315 0.43462 0.0
N600 N 0.69581 0.89456 0.42313 0.0
C601 C 0.72432 0.97047 0.41173 0.0
C602 C 0.68935 0.90066 0.40738 0.0
C603 C 0.70428 0.93858 0.40137 0.0
H604 H 0.68938 0.84158 0.47456 0.0
H605 H 0.69966 0.94315 0.3888 0.0
H606 H 0.74676 0.79687 0.38038 0.0
H607 H 0.68936 0.65024 0.45568 0.0
H608 H 0.67177 0.87653 0.39942 0.0
H609 H 0.73555 0.99981 0.40706 0.0
H610 H 0.72516 0.72198 0.4512 0.0
H611 H 0.71911 0.89434 0.49496 0.0
H612 H 0.75775 0.02507 0.43522 0.0
H613 H 0.76144 1.01185 0.46413 0.0
H614 H 0.71615 0.75732 0.35602 0.0
H615 H 0.74692 0.9633 0.4865 0.0
H616 H 0.65395 0.60556 0.43287 0.0
N617 N 0.71624 0.74957 0.39683 0.0
C618 C 0.69468 0.71 0.39835 0.0
C619 C 0.70924 0.74369 0.36787 0.0
C620 C 0.67788 0.68586 0.38465 0.0
C621 C 0.72573 0.76628 0.38179 0.0
C622 C 0.68458 0.70336 0.36932 0.0
N623 N 0.70872 0.71724 0.42644 0.0
C624 C 0.70959 0.70242 0.44129 0.0
C625 C 0.6707 0.6524 0.41547 0.0
C626 C 0.69133 0.69332 0.41353 0.0
C627 C 0.66952 0.63687 0.43089 0.0
C628 C 0.68947 0.66199 0.4438 0.0
H629 H 0.67221 0.68587 0.3585 0.0
H630 H 0.64269 0.62613 0.37623 0.0
H631 H 0.63626 0.59687 0.40322 0.0
O632 O 0.79202 0.79424 0.43471 0.0
O633 O 0.67664 0.74469 0.42969 0.0
O634 O 0.65294 0.77976 0.41809 0.0
O635 O 0.78636 0.77956 0.40935 0.0
O636 O 0.73936 0.79925 0.4478 0.0
O637 O 0.67804 0.79077 0.45356 0.0
O638 O 0.62355 0.83993 0.42926 0.0
O639 O 0.73684 0.86243 0.44176 0.0
O640 O 0.76577 0.85112 0.42005 0.0
O641 O 0.62036 0.80533 0.45 0.0
O642 O 0.67767 0.82209 0.40725 0.0
O643 O 0.73861 0.82832 0.40385 0.0
C644 C 0.64681 0.74667 0.42396 0.0
C645 C 0.84822 0.82717 0.4186 0.0
C646 C 0.91895 0.8633 0.42183 0.0
C647 C 0.92027 0.89567 0.41412 0.0
C648 C 0.85038 0.8595 0.41051 0.0
C649 C 0.88615 0.89363 0.40843 0.0
C650 C 0.88268 0.82898 0.4241 0.0
C651 C 0.70938 0.78834 0.45755 0.0
C652 C 0.80983 0.79251 0.42173 0.0
C653 C 0.6561 0.64508 0.3866 0.0
C654 C 0.65252 0.62839 0.40196 0.0
C655 C 0.76564 0.87457 0.43136 0.0
C656 C 0.58812 0.8429 0.45145 0.0
C657 C 0.54587 0.87178 0.45247 0.0
C658 C 0.56207 0.88818 0.46765 0.0
C659 C 0.60343 0.85924 0.46669 0.0
C660 C 0.55906 0.84897 0.44446 0.0
C661 C 0.59047 0.88176 0.4747 0.0
C662 C 0.7091 0.83154 0.39839 0.0
C663 C 0.60385 0.82187 0.44212 0.0
H664 H 0.94788 0.92224 0.41211 0.0
H665 H 0.82442 0.8584 0.40574 0.0
H666 H 0.88746 0.91846 0.40228 0.0
H667 H 0.88126 0.80402 0.43021 0.0
H668 H 0.55226 0.90543 0.47422 0.0
H669 H 0.62556 0.85489 0.47237 0.0
H670 H 0.54736 0.83667 0.43263 0.0
H671 H 0.60252 0.89436 0.48642 0.0
Eu672 Eu 0.27729 0.96177 0.41785 0.0
C673 C 0.14028 0.82562 0.45425 0.0
N674 N 0.17796 0.84258 0.45931 0.0
C675 C 0.15838 0.84495 0.48661 0.0
C676 C 0.11004 0.81816 0.46527 0.0
C677 C 0.18737 0.85183 0.47524 0.0
C678 C 0.11956 0.82822 0.4816 0.0
C679 C 0.09307 0.7976 0.43243 0.0
C680 C 0.13206 0.81583 0.43796 0.0
C681 C 0.06297 0.79087 0.4433 0.0
C682 C 0.07142 0.80108 0.45967 0.0
Eu683 Eu 0.22545 0.85461 0.43937 0.0
N684 N 0.16193 0.82328 0.42764 0.0
C685 C 0.08537 0.78592 0.4162 0.0
C686 C 0.15385 0.80821 0.41229 0.0
C687 C 0.1158 0.7905 0.40619 0.0
H688 H 0.21725 0.86433 0.47921 0.0
H689 H 0.10986 0.77959 0.39386 0.0
H690 H 0.24829 0.94994 0.37899 0.0
H691 H 0.42397 0.03854 0.44374 0.0
H692 H 0.17616 0.80833 0.40481 0.0
H693 H 0.05587 0.77194 0.41147 0.0
H694 H 0.35208 1.00045 0.44437 0.0
H695 H 0.16598 0.85249 0.49924 0.0
H696 H 0.03297 0.77732 0.43919 0.0
H697 H 0.04785 0.79544 0.46793 0.0
H698 H 0.27814 0.96326 0.35165 0.0
H699 H 0.09716 0.82299 0.49043 0.0
H700 H 0.45875 0.05611 0.41742 0.0
N701 N 0.30264 0.97447 0.39131 0.0
C702 C 0.34219 0.99444 0.39004 0.0
C703 C 0.29645 0.97201 0.36235 0.0
C704 C 0.36049 1.00372 0.37472 0.0
C705 C 0.27963 0.96399 0.37781 0.0
C706 C 0.33707 0.99181 0.36081 0.0
N707 N 0.34608 0.99623 0.41872 0.0
C708 C 0.36682 1.00795 0.43284 0.0
C709 C 0.40564 0.02781 0.40318 0.0
C710 C 0.36453 1.00619 0.40411 0.0
C711 C 0.42713 0.03948 0.41763 0.0
C712 C 0.40761 0.02956 0.43251 0.0
H713 H 0.35017 0.99829 0.34888 0.0
H714 H 0.41598 0.03218 0.36206 0.0
H715 H 0.45549 0.05338 0.38698 0.0
O716 O 0.26974 1.00506 0.43134 0.0
O717 O 0.3137 0.93093 0.41837 0.0
O718 O 0.2908 0.88974 0.4406 0.0
O719 O 0.27576 1.00953 0.40517 0.0
O720 O 0.27961 0.9617 0.4451 0.0
O721 O 0.26605 0.90285 0.4574 0.0
O722 O 0.22386 0.80065 0.43165 0.0
O723 O 0.20189 0.89615 0.44326 0.0
O724 O 0.2116 0.92311 0.41818 0.0
O725 O 0.22344 0.81214 0.45706 0.0
O726 O 0.24085 0.86022 0.41198 0.0
O727 O 0.23003 0.90979 0.40505 0.0
C728 C 0.31615 0.90693 0.42888 0.0
C729 C 0.29381 0.06765 0.41978 0.0
C730 C 0.29364 0.12911 0.42247 0.0
C731 C 0.33471 0.14919 0.42298 0.0
C732 C 0.3347 0.08806 0.42025 0.0
C733 C 0.35502 0.12873 0.42183 0.0
C734 C 0.27346 0.08818 0.42084 0.0
C735 C 0.2785 0.94108 0.45783 0.0
C736 C 0.27146 0.02494 0.41843 0.0
C737 C 0.40144 0.02483 0.37374 0.0
C738 C 0.42394 0.03694 0.38793 0.0
C739 C 0.19105 0.91101 0.43157 0.0
C740 C 0.18671 0.74565 0.44843 0.0
C741 C 0.15752 0.67465 0.44431 0.0
C742 C 0.12299 0.66925 0.45161 0.0
C743 C 0.15184 0.73887 0.45577 0.0
C744 C 0.18955 0.71327 0.44279 0.0
C745 C 0.12029 0.70104 0.45728 0.0
C746 C 0.23429 0.88035 0.40089 0.0
C747 C 0.21939 0.78641 0.44621 0.0
H748 H 0.35115 0.18073 0.42408 0.0
H749 H 0.35078 0.07259 0.41943 0.0
H750 H 0.38661 0.14448 0.42217 0.0
H751 H 0.24179 0.0721 0.42068 0.0
H752 H 0.09814 0.6402 0.45328 0.0
H753 H 0.14887 0.76277 0.46041 0.0
H754 H 0.21633 0.71818 0.4371 0.0
H755 H 0.09361 0.69631 0.46298 0.0
Eu756 Eu 0.6743 0.76782 0.26094 0.0
C757 C 0.68914 0.91062 0.22263 0.0
N758 N 0.70416 0.88744 0.21857 0.0
C759 C 0.68412 0.885 0.19097 0.0
C760 C 0.67075 0.9218 0.21085 0.0
C761 C 0.70229 0.87484 0.20301 0.0
C762 C 0.66825 0.90855 0.1949 0.0
C763 C 0.67668 0.94715 0.24313 0.0
C764 C 0.69187 0.92288 0.23866 0.0
C765 C 0.65862 0.95853 0.2314 0.0
C766 C 0.65551 0.94578 0.21533 0.0
Eu767 Eu 0.73581 0.87336 0.23944 0.0
N768 N 0.70953 0.91139 0.24981 0.0
C769 C 0.68057 0.95976 0.25922 0.0
C770 C 0.71597 0.92621 0.26519 0.0
C771 C 0.70071 0.94962 0.27025 0.0
H772 H 0.71528 0.85737 0.19981 0.0
H773 H 0.70534 0.96062 0.28256 0.0
H774 H 0.66319 0.77943 0.30059 0.0
H775 H 0.73802 0.69 0.23073 0.0
H776 H 0.73408 0.92156 0.27354 0.0
H777 H 0.66911 0.97824 0.26314 0.0
H778 H 0.70554 0.72939 0.23224 0.0
H779 H 0.68261 0.8749 0.17863 0.0
H780 H 0.64708 0.97736 0.23463 0.0
H781 H 0.64134 0.95471 0.20645 0.0
H782 H 0.68046 0.76226 0.32698 0.0
H783 H 0.6543 0.91647 0.18552 0.0
H784 H 0.75636 0.66926 0.25597 0.0
N785 N 0.68834 0.75234 0.2867 0.0
C786 C 0.70645 0.73083 0.28677 0.0
C787 C 0.68799 0.75331 0.31576 0.0
C788 C 0.71612 0.71969 0.30153 0.0
C789 C 0.67863 0.76334 0.30084 0.0
C790 C 0.70684 0.73141 0.31612 0.0
N791 N 0.70673 0.73196 0.25797 0.0
C792 C 0.71388 0.72095 0.24328 0.0
C793 C 0.73384 0.69724 0.27175 0.0
C794 C 0.71542 0.71989 0.27203 0.0
C795 C 0.74223 0.68666 0.2567 0.0
C796 C 0.73204 0.69842 0.24241 0.0
H797 H 0.71388 0.7235 0.3277 0.0
H798 H 0.74229 0.68845 0.31249 0.0
H799 H 0.75765 0.66869 0.28646 0.0
O800 O 0.62279 0.72313 0.24834 0.0
O801 O 0.74149 0.79604 0.26169 0.0
O802 O 0.75934 0.83231 0.23844 0.0
O803 O 0.62461 0.72283 0.27459 0.0
O804 O 0.66987 0.77001 0.23363 0.0
O805 O 0.72592 0.82246 0.22274 0.0
O806 O 0.79004 0.92577 0.24684 0.0
O807 O 0.66943 0.83887 0.23705 0.0
O808 O 0.65 0.80915 0.26176 0.0
O809 O 0.77868 0.91166 0.22148 0.0
O810 O 0.74474 0.86806 0.26685 0.0
O811 O 0.68335 0.82065 0.27461 0.0
C812 C 0.76835 0.81864 0.25109 0.0
C813 C 0.58491 0.66245 0.2613 0.0
C814 C 0.52404 0.60023 0.25882 0.0
C815 C 0.5456 0.58075 0.25888 0.0
C816 C 0.60598 0.64263 0.26142 0.0
C817 C 0.5863 0.60189 0.26025 0.0
C818 C 0.54406 0.64122 0.2601 0.0
C819 C 0.69391 0.78765 0.22148 0.0
C820 C 0.60476 0.70528 0.26162 0.0
C821 C 0.73466 0.69729 0.30127 0.0
C822 C 0.7434 0.68603 0.28644 0.0
C823 C 0.64461 0.82634 0.24916 0.0
C824 C 0.81073 0.97901 0.22872 0.0
C825 C 0.85201 0.04954 0.23359 0.0
C826 C 0.82764 0.05614 0.22322 0.0
C827 C 0.78748 0.98682 0.21823 0.0
C828 C 0.84321 1.01061 0.23632 0.0
C829 C 0.79574 0.02503 0.21563 0.0
C830 C 0.71808 0.8495 0.27817 0.0
C831 C 0.80064 0.93809 0.23205 0.0
H832 H 0.53095 0.54918 0.25802 0.0
H833 H 0.6375 0.65858 0.26226 0.0
H834 H 0.60265 0.58665 0.26032 0.0
H835 H 0.52792 0.65673 0.25978 0.0
H836 H 0.83383 0.08555 0.22058 0.0
H837 H 0.76295 0.96348 0.21192 0.0
H838 H 0.86137 1.00485 0.24438 0.0
H839 H 0.77754 0.0306 0.20753 0.0
Eu840 Eu 0.31013 0.93108 0.25973 0.0
C841 C 0.16123 0.8055 0.22104 0.0
N842 N 0.18187 0.84489 0.21884 0.0
C843 C 0.17701 0.83631 0.18997 0.0
C844 C 0.14782 0.77988 0.20762 0.0
C845 C 0.18953 0.8606 0.20361 0.0
C846 C 0.15613 0.79579 0.19197 0.0
C847 C 0.13239 0.74991 0.23938 0.0
C848 C 0.15386 0.79067 0.23677 0.0
C849 C 0.1187 0.72441 0.22603 0.0
C850 C 0.12656 0.73933 0.21021 0.0
Eu851 Eu 0.2009 0.88314 0.24264 0.0
N852 N 0.16828 0.81601 0.2495 0.0
C853 C 0.12551 0.73596 0.25534 0.0
C854 C 0.16001 0.80257 0.26506 0.0
C855 C 0.13916 0.76243 0.26823 0.0
H856 H 0.20465 0.89189 0.20192 0.0
H857 H 0.13323 0.75194 0.28062 0.0
H858 H 0.30591 0.91751 0.30013 0.0
H859 H 0.37995 0.06593 0.22432 0.0
H860 H 0.16864 0.82252 0.27509 0.0
H861 H 0.10937 0.70486 0.25784 0.0
H862 H 0.34563 0.99457 0.22863 0.0
H863 H 0.18319 0.84887 0.17791 0.0
H864 H 0.10203 0.69306 0.22781 0.0
H865 H 0.11595 0.71923 0.20005 0.0
H866 H 0.3229 0.95741 0.32498 0.0
H867 H 0.14636 0.77706 0.18136 0.0
H868 H 0.39919 0.11051 0.24794 0.0
N869 N 0.32761 0.96634 0.28425 0.0
C870 C 0.34693 1.00595 0.28283 0.0
C871 C 0.32974 0.97149 0.31323 0.0
C872 C 0.35796 0.02998 0.29672 0.0
C873 C 0.31964 0.94888 0.29912 0.0
C874 C 0.34883 1.01223 0.31203 0.0
N875 N 0.34341 0.99867 0.2542 0.0
C876 C 0.35293 0.01366 0.23892 0.0
C877 C 0.37547 0.06356 0.26557 0.0
C878 C 0.35546 0.0226 0.26741 0.0
C879 C 0.38385 0.07918 0.24986 0.0
C880 C 0.37286 0.05411 0.2365 0.0
H881 H 0.35666 0.02976 0.32297 0.0
H882 H 0.38624 0.08971 0.30546 0.0
H883 H 0.40165 0.11908 0.27821 0.0
O884 O 0.35668 0.92916 0.24639 0.0
O885 O 0.27913 0.9674 0.26139 0.0
O886 O 0.23684 0.94821 0.23972 0.0
O887 O 0.35737 0.92914 0.27268 0.0
O888 O 0.29912 0.91651 0.23309 0.0
O889 O 0.24823 0.92497 0.22473 0.0
O890 O 0.15096 0.87983 0.25555 0.0
O891 O 0.23355 0.84982 0.23902 0.0
O892 O 0.27254 0.86496 0.26154 0.0
O893 O 0.15286 0.88296 0.22941 0.0
O894 O 0.21161 0.89616 0.2702 0.0
O895 O 0.2634 0.88703 0.27583 0.0
C896 C 0.25801 0.97389 0.2508 0.0
C897 C 0.41781 0.95273 0.25907 0.0
C898 C 0.48057 0.9553 0.25708 0.0
C899 C 0.49936 0.99635 0.25664 0.0
C900 C 0.43688 0.99365 0.25873 0.0
C901 C 0.47758 0.01534 0.25755 0.0
C902 C 0.43968 0.93374 0.25836 0.0
C903 C 0.28198 0.92652 0.22204 0.0
C904 C 0.37514 0.92882 0.25943 0.0
C905 C 0.37761 0.0708 0.29492 0.0
C906 C 0.38639 0.08754 0.27939 0.0
C907 C 0.25183 0.84061 0.24988 0.0
C908 C 0.11462 0.90514 0.24293 0.0
C909 C 0.05605 0.91056 0.24704 0.0
C910 C 0.07864 0.95078 0.24342 0.0
C911 C 0.13631 0.94517 0.23955 0.0
C912 C 0.0746 0.88792 0.24673 0.0
C913 C 0.11838 0.96785 0.23981 0.0
C914 C 0.23248 0.88833 0.28046 0.0
C915 C 0.1332 0.88087 0.24242 0.0
H916 H 0.53086 0.01372 0.25573 0.0
H917 H 0.42038 1.0087 0.25922 0.0
H918 H 0.49228 0.04694 0.25725 0.0
H919 H 0.4247 0.90205 0.2584 0.0
H920 H 0.06555 0.96913 0.24307 0.0
H921 H 0.16697 0.9587 0.23661 0.0
H922 H 0.05814 0.857 0.24956 0.0
H923 H 0.13528 0.99875 0.23706 0.0
Eu924 Eu 0.14276 0.39988 0.26178 0.0
C925 C 0.27422 0.38774 0.22613 0.0
N926 N 0.23614 0.37155 0.22167 0.0
C927 C 0.25496 0.39114 0.1941 0.0
C928 C 0.30434 0.40654 0.21459 0.0
C929 C 0.22606 0.37257 0.20593 0.0
C930 C 0.29427 0.40824 0.19844 0.0
C931 C 0.32233 0.40192 0.2472 0.0
C932 C 0.28303 0.38565 0.24232 0.0
C933 C 0.35236 0.42055 0.23572 0.0
C934 C 0.34342 0.42296 0.21948 0.0
Eu935 Eu 0.18942 0.3394 0.24222 0.0
N936 N 0.25332 0.36733 0.25321 0.0
C937 C 0.33035 0.39841 0.26343 0.0
C938 C 0.26108 0.36112 0.26872 0.0
C939 C 0.29956 0.37746 0.27418 0.0
H940 H 0.19573 0.35867 0.20243 0.0
H941 H 0.30542 0.37301 0.28659 0.0
H942 H 0.16051 0.4089 0.30191 0.0
H943 H 1.00469 0.33693 0.22885 0.0
H944 H 0.238 0.34233 0.27684 0.0
H945 H 0.36014 0.41066 0.26766 0.0
H946 H 0.07633 0.37138 0.23182 0.0
H947 H 0.2469 0.392 0.18162 0.0
H948 H 0.38265 0.43301 0.23928 0.0
H949 H 0.36695 0.43751 0.21079 0.0
H950 H 0.12297 0.38757 0.32752 0.0
H951 H 0.31657 0.42247 0.18923 0.0
H952 H 0.96258 0.31439 0.25325 0.0
N953 N 0.11007 0.38303 0.28693 0.0
C954 C 0.07042 0.36397 0.28622 0.0
C955 C 0.10786 0.38063 0.31598 0.0
C956 C 0.04784 0.3521 0.30052 0.0
C957 C 0.12903 0.39217 0.30148 0.0
C958 C 0.06708 0.36036 0.3155 0.0
N959 N 0.07476 0.36685 0.25749 0.0
C960 C 0.0583 0.36106 0.24248 0.0
C961 C 1.01121 0.3366 0.27001 0.0
C962 C 0.05226 0.35615 0.27111 0.0
C963 C 0.99403 0.32935 0.25461 0.0
C964 C 1.0177 0.34187 0.2408 0.0
H965 H 0.05071 0.35149 0.32674 0.0
H966 H 0.9891 0.32304 0.31032 0.0
H967 H 0.95707 0.30959 0.28364 0.0
O968 O 0.14658 0.45031 0.24931 0.0
O969 O 0.10472 0.33256 0.26246 0.0
O970 O 0.1245 0.31224 0.24013 0.0
O971 O 0.14695 0.449 0.2756 0.0
O972 O 0.15258 0.40436 0.23465 0.0
O973 O 0.14824 0.34728 0.22481 0.0
O974 O 0.18896 0.28621 0.25031 0.0
O975 O 0.22027 0.40557 0.23887 0.0
O976 O 0.20867 0.42635 0.26296 0.0
O977 O 0.18723 0.29654 0.2248 0.0
O978 O 0.17422 0.33226 0.26967 0.0
O979 O 0.18699 0.39384 0.27637 0.0
C980 C 0.09957 0.30538 0.25183 0.0
C981 C 0.12453 0.48792 0.26309 0.0
C982 C 0.12338 0.54895 0.26163 0.0
C983 C 0.08245 0.52757 0.26308 0.0
C984 C 0.08379 0.46694 0.26458 0.0
C985 C 0.06287 0.48682 0.26458 0.0
C986 C 0.14412 0.52868 0.26162 0.0
C987 C 0.14494 0.37886 0.22299 0.0
C988 C 0.14763 0.46835 0.26271 0.0
C989 C 1.00692 0.33241 0.29945 0.0
C990 C 0.98867 0.32476 0.28425 0.0
C991 C 0.23169 0.43141 0.25058 0.0
C992 C 0.22293 0.26564 0.23289 0.0
C993 C 0.25159 0.22385 0.23755 0.0
C994 C 0.28441 0.2502 0.22846 0.0
C995 C 0.2557 0.29063 0.22349 0.0
C996 C 0.22079 0.23186 0.23978 0.0
C997 C 0.28629 0.28317 0.22145 0.0
C998 C 0.18267 0.36004 0.28053 0.0
C999 C 0.19152 0.27516 0.2357 0.0
H1000 H 0.06565 0.54236 0.26324 0.0
H1001 H 0.06826 0.43543 0.26568 0.0
H1002 H 0.03139 0.47062 0.26574 0.0
H1003 H 0.1756 0.54456 0.2602 0.0
H1004 H 0.30823 0.24467 0.22631 0.0
H1005 H 0.25769 0.31586 0.21755 0.0
H1006 H 0.19543 0.21204 0.24687 0.0
H1007 H 0.31142 0.30282 0.21423 0.0
Eu1008 Eu 0.76947 0.66827 0.75215 0.0
C1009 C 0.90985 0.68796 0.79704 0.0
N1010 N 0.89163 0.70937 0.79773 0.0
C1011 C 0.89401 0.70952 0.8268 0.0
C1012 C 0.92041 0.67599 0.81136 0.0
C1013 C 0.88406 0.72071 0.81228 0.0
C1014 C 0.91211 0.68694 0.82634 0.0
C1015 C 0.93654 0.65547 0.78083 0.0
C1016 C 0.91782 0.67777 0.78195 0.0
C1017 C 0.94687 0.64332 0.79507 0.0
C1018 C 0.93884 0.65356 0.81028 0.0
Eu1019 Eu 0.87579 0.72642 0.7726 0.0
N1020 N 0.90629 0.68881 0.76837 0.0
C1021 C 0.94412 0.64587 0.76541 0.0
C1022 C 0.91526 0.68116 0.75333 0.0
C1023 C 0.93376 0.6591 0.75161 0.0
H1024 H 0.87084 0.73888 0.81274 0.0
H1025 H 0.9401 0.6524 0.73964 0.0
H1026 H 0.77815 0.65615 0.71221 0.0
H1027 H 0.6993 0.73874 0.78329 0.0
H1028 H 0.90813 0.69195 0.74265 0.0
H1029 H 0.95827 0.62862 0.76404 0.0
H1030 H 0.73258 0.70022 0.7812 0.0
H1031 H 0.88787 0.71847 0.83832 0.0
H1032 H 0.96111 0.62601 0.79444 0.0
H1033 H 0.94706 0.64401 0.82116 0.0
H1034 H 0.76493 0.67825 0.6862 0.0
H1035 H 0.91978 0.67833 0.83761 0.0
H1036 H 0.68401 0.76344 0.75839 0.0
N1037 N 0.75613 0.6855 0.72659 0.0
C1038 C 0.73792 0.70694 0.72681 0.0
C1039 C 0.75737 0.6867 0.69753 0.0
C1040 C 0.72918 0.7196 0.71223 0.0
C1041 C 0.76522 0.67458 0.71228 0.0
C1042 C 0.73952 0.70953 0.6975 0.0
N1043 N 0.73754 0.70454 0.7556 0.0
C1044 C 0.72666 0.71141 0.77036 0.0
C1045 C 0.70878 0.73826 0.74227 0.0
C1046 C 0.72792 0.71632 0.74169 0.0
C1047 C 0.69879 0.7467 0.75744 0.0
C1048 C 0.7075 0.73293 0.77153 0.0
H1049 H 0.73354 0.71898 0.68607 0.0
H1050 H 0.70352 0.75178 0.7017 0.0
H1051 H 0.68557 0.76798 0.72796 0.0
O1052 O 0.72044 0.6213 0.76506 0.0
O1053 O 0.80209 0.73584 0.75139 0.0
O1054 O 0.84 0.75576 0.77444 0.0
O1055 O 0.72314 0.6188 0.73885 0.0
O1056 O 0.77831 0.66224 0.77882 0.0
O1057 O 0.82595 0.72002 0.78941 0.0
O1058 O 0.92877 0.76866 0.75996 0.0
O1059 O 0.84268 0.65975 0.77452 0.0
O1060 O 0.80586 0.63859 0.75119 0.0
O1061 O 0.92245 0.77722 0.78538 0.0
O1062 O 0.86942 0.73123 0.74479 0.0
O1063 O 0.81821 0.67116 0.73741 0.0
C1064 C 0.82246 0.76247 0.76248 0.0
C1065 C 0.66102 0.58184 0.75133 0.0
C1066 C 0.59887 0.52058 0.75275 0.0
C1067 C 0.57925 0.54198 0.75197 0.0
C1068 C 0.64117 0.60281 0.75048 0.0
C1069 C 0.60034 0.58282 0.75077 0.0
C1070 C 0.63989 0.54093 0.75237 0.0
C1071 C 0.79078 0.68849 0.79034 0.0
C1072 C 0.70371 0.60153 0.75195 0.0
C1073 C 0.71042 0.74177 0.71279 0.0
C1074 C 0.70018 0.751 0.72775 0.0
C1075 C 0.82411 0.63302 0.76333 0.0
C1076 C 0.96487 0.83337 0.7696 0.0
C1077 C 0.02575 0.89481 0.76413 0.0
C1078 C 1.00351 0.91325 0.76179 0.0
C1079 C 0.94355 0.85248 0.76716 0.0
C1080 C 1.00596 0.85463 0.76815 0.0
C1081 C 0.96283 0.89224 0.76334 0.0
C1082 C 0.85046 0.70342 0.7339 0.0
C1083 C 0.94468 0.79085 0.77258 0.0
H1084 H 0.54765 0.52714 0.75216 0.0
H1085 H 0.65716 0.63443 0.74976 0.0
H1086 H 0.58499 0.59901 0.75014 0.0
H1087 H 0.65552 0.52498 0.75331 0.0
H1088 H 1.01761 0.94412 0.75895 0.0
H1089 H 0.91202 0.83654 0.76806 0.0
H1090 H 0.02236 0.83965 0.76976 0.0
H1091 H 0.94615 0.90683 0.76151 0.0
Eu1092 Eu 0.40807 0.1374 0.75292 0.0
C1093 C 0.39009 0.26304 0.79183 0.0
N1094 N 0.37485 0.22439 0.79521 0.0
C1095 C 0.39164 0.2392 0.82327 0.0
C1096 C 0.40694 0.2914 0.80419 0.0
C1097 C 0.37495 0.21208 0.81066 0.0
C1098 C 0.40776 0.27902 0.82002 0.0
C1099 C 0.40412 0.31411 0.77213 0.0
C1100 C 0.38885 0.27424 0.77592 0.0
C1101 C 0.42062 0.34234 0.78445 0.0
C1102 C 0.42221 0.33106 0.8004 0.0
Eu1103 Eu 0.34589 0.18086 0.7733 0.0
N1104 N 0.37277 0.24625 0.76418 0.0
C1105 C 0.40206 0.32446 0.75609 0.0
C1106 C 0.36841 0.2561 0.74877 0.0
C1107 C 0.38378 0.29528 0.7444 0.0
H1108 H 0.36161 0.18132 0.81338 0.0
H1109 H 0.38076 0.30288 0.73208 0.0
H1110 H 0.4188 0.15658 0.71299 0.0
H1111 H 0.34468 0.998 0.7851 0.0
H1112 H 0.352 0.23404 0.73987 0.0
H1113 H 0.41367 0.35478 0.75269 0.0
H1114 H 0.38005 0.06983 0.78249 0.0
H1115 H 0.39174 0.22934 0.83551 0.0
H1116 H 0.43212 0.37302 0.78176 0.0
H1117 H 0.43516 0.35324 0.80975 0.0
H1118 H 0.39835 0.12009 0.68725 0.0
H1119 H 0.42048 0.29993 0.82984 0.0
H1120 H 0.32108 0.95666 0.76049 0.0
N1121 N 0.3919 0.10553 0.72766 0.0
C1122 C 0.37217 0.0658 0.72815 0.0
C1123 C 0.39044 0.10438 0.69863 0.0
C1124 C 0.3602 0.0437 0.71372 0.0
C1125 C 0.40177 0.12504 0.71324 0.0
C1126 C 0.36922 0.06353 0.69886 0.0
N1127 N 0.37489 0.06916 0.7569 0.0
C1128 C 0.36922 0.05214 0.77178 0.0
C1129 C 0.34371 1.00593 0.74401 0.0
C1130 C 0.36385 0.04708 0.74315 0.0
C1131 C 0.3364 0.9882 0.75931 0.0
C1132 C 0.34954 1.01143 0.77324 0.0
H1133 H 0.36019 0.0475 0.68754 0.0
H1134 H 0.33027 0.98524 0.70358 0.0
H1135 H 0.316 0.9522 0.73008 0.0
O1136 O 0.45708 0.13911 0.7657 0.0
O1137 O 0.34059 0.09917 0.75206 0.0
O1138 O 0.32058 0.11597 0.77525 0.0
O1139 O 0.45836 0.14317 0.73946 0.0
O1140 O 0.41426 0.15218 0.77957 0.0
O1141 O 0.35552 0.13964 0.7901 0.0
O1142 O 0.29244 0.17881 0.76458 0.0
O1143 O 0.41238 0.21612 0.77528 0.0
O1144 O 0.43423 0.20351 0.7515 0.0
O1145 O 0.30131 0.17654 0.79022 0.0
O1146 O 0.33984 0.1682 0.74554 0.0
O1147 O 0.40114 0.18074 0.73811 0.0
C1148 C 0.31366 0.09221 0.76308 0.0
C1149 C 0.49712 0.12016 0.75183 0.0
C1150 C 0.55891 0.12052 0.75339 0.0
C1151 C 0.53824 0.0795 0.75208 0.0
C1152 C 0.47692 0.07934 0.75047 0.0
C1153 C 0.49753 0.05915 0.75057 0.0
C1154 C 0.53794 0.14057 0.75321 0.0
C1155 C 0.38826 0.13834 0.79118 0.0
C1156 C 0.4766 0.14236 0.75248 0.0
C1157 C 0.33975 1.00268 0.71455 0.0
C1158 C 0.33162 0.98386 0.72965 0.0
C1159 C 0.43792 0.22736 0.76342 0.0
C1160 C 0.26985 0.21144 0.78178 0.0
C1161 C 0.2283 0.23987 0.77623 0.0
C1162 C 0.25318 0.27223 0.78589 0.0
C1163 C 0.29319 0.24357 0.79182 0.0
C1164 C 0.23692 0.20944 0.77415 0.0
C1165 C 0.2852 0.27388 0.79367 0.0
C1166 C 0.3675 0.1775 0.7345 0.0
C1167 C 0.2803 0.18063 0.77908 0.0
H1168 H 0.55358 0.06322 0.75206 0.0
H1169 H 0.4454 0.06321 0.74945 0.0
H1170 H 0.4819 0.0276 0.74952 0.0
H1171 H 0.5533 0.17212 0.75452 0.0
H1172 H 0.24709 0.29575 0.78788 0.0
H1173 H 0.31752 0.24528 0.79841 0.0
H1174 H 0.21821 0.18447 0.76663 0.0
H1175 H 0.30364 0.29856 0.80135 0.0
Eu1176 Eu 0.93974 0.30164 0.75002 0.0
C1177 C 0.81983 0.16312 0.79634 0.0
N1178 N 0.85948 0.18293 0.79717 0.0
C1179 C 0.85672 0.18268 0.82622 0.0
C1180 C 0.79699 0.15255 0.81058 0.0
C1181 C 0.87817 0.19237 0.81178 0.0
C1182 C 0.81596 0.16279 0.82562 0.0
C1183 C 0.76088 0.13249 0.77996 0.0
C1184 C 0.80197 0.15346 0.78118 0.0
C1185 C 0.73808 0.12198 0.79412 0.0
C1186 C 0.75607 0.13208 0.80938 0.0
Eu1187 Eu 0.89286 0.19754 0.77218 0.0
N1188 N 0.82474 0.1651 0.76765 0.0
C1189 C 0.74392 0.12288 0.76451 0.0
C1190 C 0.80838 0.15442 0.75261 0.0
C1191 C 0.76779 0.1337 0.75079 0.0
H1192 H 0.90963 0.20684 0.81236 0.0
H1193 H 0.75496 0.12583 0.73881 0.0
H1194 H 0.92134 0.28593 0.71 0.0
H1195 H 0.07889 0.37891 0.78225 0.0
H1196 H 0.8264 0.16135 0.74199 0.0
H1197 H 0.71248 0.10685 0.76305 0.0
H1198 H 1.00729 0.34498 0.77943 0.0
H1199 H 0.87163 0.1903 0.8378 0.0
H1200 H 0.70649 0.10605 0.79341 0.0
H1201 H 0.73807 0.12377 0.82019 0.0
H1202 H 0.95812 0.29473 0.68466 0.0
H1203 H 0.79944 0.15522 0.83684 0.0
H1204 H 0.12025 0.39027 0.75804 0.0
N1205 N 0.97188 0.3109 0.72495 0.0
C1206 C 1.01156 0.32999 0.72558 0.0
C1207 C 0.9735 0.30451 0.69609 0.0
C1208 C 0.03379 0.33624 0.71136 0.0
C1209 C 0.95269 0.29905 0.71048 0.0
C1210 C 1.01421 0.32285 0.69654 0.0
N1211 N 1.0079 0.33546 0.75415 0.0
C1212 C 0.02489 0.34898 0.7689 0.0
C1213 C 0.07118 0.36256 0.74153 0.0
C1214 C 0.0301 0.34302 0.74053 0.0
C1215 C 0.08878 0.37517 0.75676 0.0
C1216 C 0.06552 0.36864 0.77047 0.0
H1217 H 0.03029 0.32686 0.68539 0.0
H1218 H 0.09223 0.36048 0.70156 0.0
H1219 H 0.12492 0.3835 0.72794 0.0
O1220 O 0.93974 0.35294 0.76009 0.0
O1221 O 0.97483 0.2693 0.74995 0.0
O1222 O 0.95808 0.23355 0.77356 0.0
O1223 O 0.93944 0.34565 0.73414 0.0
O1224 O 0.92991 0.29929 0.77712 0.0
O1225 O 0.93616 0.24902 0.78822 0.0
O1226 O 0.88098 0.14272 0.76096 0.0
O1227 O 0.86053 0.23155 0.77454 0.0
O1228 O 0.87351 0.26394 0.7503 0.0
O1229 O 0.89954 0.1537 0.78597 0.0
O1230 O 0.90365 0.20156 0.74441 0.0
O1231 O 0.89278 0.25091 0.73648 0.0
C1232 C 0.98229 0.25096 0.76154 0.0
C1233 C 0.89965 0.36889 0.74466 0.0
C1234 C 0.86626 0.40549 0.74992 0.0
C1235 C 0.8313 0.37371 0.7442 0.0
C1236 C 0.8646 0.33794 0.7385 0.0
C1237 C 0.83061 0.34025 0.73842 0.0
C1238 C 0.90052 0.40297 0.75017 0.0
C1239 C 0.93987 0.28426 0.78914 0.0
C1240 C 0.93438 0.36446 0.74598 0.0
C1241 C 0.07471 0.35552 0.71236 0.0
C1242 C 0.09333 0.36867 0.72739 0.0
C1243 C 0.85076 0.24775 0.76295 0.0
C1244 C 0.91256 0.11003 0.77084 0.0
C1245 C 0.91424 0.04995 0.76522 0.0
C1246 C 0.95498 0.07272 0.76314 0.0
C1247 C 0.95301 0.13198 0.76856 0.0
C1248 C 0.89327 0.06906 0.76918 0.0
C1249 C 0.97412 0.11337 0.76482 0.0
C1250 C 0.8938 0.21907 0.73328 0.0
C1251 C 0.88963 0.12944 0.7738 0.0
H1252 H 0.8047 0.3752 0.7438 0.0
H1253 H 0.86344 0.31189 0.73375 0.0
H1254 H 0.80372 0.31613 0.73377 0.0
H1255 H 0.92749 0.42717 0.75478 0.0
H1256 H 0.97218 0.05908 0.76037 0.0
H1257 H 0.96804 0.16345 0.76949 0.0
H1258 H 0.86182 0.05224 0.77059 0.0
H1259 H 1.00543 0.13055 0.76314 0.0
Eu1260 Eu 0.33733 0.09537 0.59828 0.0
C1261 C 0.345 0.23219 0.55716 0.0
N1262 N 0.36197 0.21042 0.55378 0.0
C1263 C 0.34304 0.20559 0.52589 0.0
C1264 C 0.32628 0.24157 0.54485 0.0
C1265 C 0.3616 0.19735 0.53843 0.0
C1266 C 0.32526 0.22776 0.52911 0.0
C1267 C 0.32989 0.26867 0.57668 0.0
C1268 C 0.3465 0.24523 0.57297 0.0
C1269 C 0.31146 0.27824 0.56444 0.0
C1270 C 0.30943 0.26454 0.5486 0.0
Eu1271 Eu 0.39373 0.19899 0.57545 0.0
N1272 N 0.36495 0.23587 0.58459 0.0
C1273 C 0.33307 0.28263 0.59252 0.0
C1274 C 0.37102 0.25241 0.59964 0.0
C1275 C 0.3542 0.27491 0.60398 0.0
H1276 H 0.37605 0.18096 0.53578 0.0
H1277 H 0.35852 0.28722 0.61605 0.0
H1278 H 0.33109 0.11091 0.6379 0.0
H1279 H 0.40565 0.02167 0.56792 0.0
H1280 H 0.39011 0.25002 0.60823 0.0
H1281 H 0.32053 0.30054 0.59586 0.0
H1282 H 0.36577 0.05338 0.5697 0.0
H1283 H 0.34272 0.19511 0.51372 0.0
H1284 H 0.29897 0.29655 0.56708 0.0
H1285 H 0.29503 0.27214 0.5393 0.0
H1286 H 0.35828 0.10405 0.66378 0.0
H1287 H 0.3111 0.2343 0.51934 0.0
H1288 H 0.43526 1.01237 0.59272 0.0
N1289 N 0.35923 0.08734 0.62374 0.0
C1290 C 0.38124 0.06973 0.62367 0.0
C1291 C 0.36533 0.0946 0.65261 0.0
C1292 C 0.39705 0.06478 0.6382 0.0
C1293 C 0.35031 0.0989 0.63792 0.0
C1294 C 0.38923 0.07792 0.65273 0.0
N1295 N 0.3737 0.06325 0.59507 0.0
C1296 C 0.37889 0.05004 0.58053 0.0
C1297 C 0.41129 0.03887 0.60855 0.0
C1298 C 0.38831 0.05693 0.60898 0.0
C1299 C 0.41779 0.02639 0.59356 0.0
C1300 C 0.40125 0.03173 0.57952 0.0
H1301 H 0.40127 0.07499 0.66408 0.0
H1302 H 0.43259 0.04302 0.64882 0.0
H1303 H 0.44499 0.0203 0.62289 0.0
O1304 O 0.28596 0.04384 0.58836 0.0
O1305 O 0.40484 0.12953 0.59894 0.0
O1306 O 0.4212 0.16136 0.57455 0.0
O1307 O 0.2929 0.05167 0.61428 0.0
O1308 O 0.33109 0.09382 0.57099 0.0
O1309 O 0.38531 0.1472 0.55956 0.0
O1310 O 0.44737 0.25201 0.58294 0.0
O1311 O 0.32789 0.16191 0.57215 0.0
O1312 O 0.30881 0.13306 0.59697 0.0
O1313 O 0.43611 0.23836 0.55756 0.0
O1314 O 0.40077 0.19615 0.60336 0.0
O1315 O 0.34017 0.14679 0.61082 0.0
C1316 C 0.43028 0.14782 0.58723 0.0
C1317 C 0.2299 0.0285 0.60371 0.0
C1318 C 0.15977 0.99189 0.59863 0.0
C1319 C 0.15695 0.02423 0.60385 0.0
C1320 C 0.22614 0.06005 0.60935 0.0
C1321 C 0.18995 0.05799 0.60928 0.0
C1322 C 0.19645 0.99413 0.59855 0.0
C1323 C 0.35497 0.11102 0.55874 0.0
C1324 C 0.26901 0.03267 0.60248 0.0
C1325 C 0.42013 0.04699 0.63778 0.0
C1326 C 0.42717 0.03402 0.623 0.0
C1327 C 0.30229 0.14808 0.58393 0.0
C1328 C 0.46742 0.30555 0.56501 0.0
C1329 C 0.50898 0.37627 0.56934 0.0
C1330 C 0.4829 0.38237 0.5599 0.0
C1331 C 0.44257 0.31292 0.55534 0.0
C1332 C 0.50096 0.33751 0.57188 0.0
C1333 C 0.4501 0.35095 0.55295 0.0
C1334 C 0.3731 0.17815 0.61439 0.0
C1335 C 0.4579 0.26471 0.56819 0.0
H1336 H 0.12898 0.023 0.60409 0.0
H1337 H 0.25119 0.08641 0.6138 0.0
H1338 H 0.18746 0.08258 0.61351 0.0
H1339 H 0.19897 0.96951 0.59431 0.0
H1340 H 0.48844 0.41166 0.55749 0.0
H1341 H 0.41735 0.28936 0.54951 0.0
H1342 H 0.52053 0.33221 0.57924 0.0
H1343 H 0.4306 0.35614 0.54551 0.0
Eu1344 Eu 0.97037 0.25955 0.59374 0.0
C1345 C 0.82278 0.14206 0.55141 0.0
N1346 N 0.84411 0.18169 0.55024 0.0
C1347 C 0.84002 0.17751 0.52122 0.0
C1348 C 0.80955 0.11851 0.53738 0.0
C1349 C 0.85239 0.19969 0.53547 0.0
C1350 C 0.81864 0.13676 0.52217 0.0
C1351 C 0.79195 0.08389 0.56832 0.0
C1352 C 0.81424 0.1249 0.56672 0.0
C1353 C 0.77886 0.0604 0.55436 0.0
C1354 C 0.7877 0.07765 0.53894 0.0
Eu1355 Eu 0.8633 0.21625 0.575 0.0
N1356 N 0.8285 0.14827 0.58002 0.0
C1357 C 0.78378 0.06771 0.58393 0.0
C1358 C 0.81928 0.13277 0.59525 0.0
C1359 C 0.7973 0.09229 0.59744 0.0
H1360 H 0.86801 0.23119 0.53461 0.0
H1361 H 0.79062 0.08008 0.60956 0.0
H1362 H 0.96495 0.23997 0.63372 0.0
H1363 H 0.04394 0.39915 0.56172 0.0
H1364 H 0.82856 0.15147 0.60574 0.0
H1365 H 0.76687 0.03635 0.58567 0.0
H1366 H 1.00754 0.32727 0.56422 0.0
H1367 H 0.84675 0.19188 0.50952 0.0
H1368 H 0.76192 0.02884 0.55536 0.0
H1369 H 0.77739 0.05911 0.52829 0.0
H1370 H 0.98282 0.27643 0.65957 0.0
H1371 H 0.80904 0.11969 0.5111 0.0
H1372 H 0.0637 0.44027 0.58644 0.0
N1373 N 0.98791 0.29108 0.61911 0.0
C1374 C 1.00792 0.33082 0.61866 0.0
C1375 C 0.98985 0.29208 0.64816 0.0
C1376 C 0.01929 0.35282 0.63313 0.0
C1377 C 0.9794 0.27149 0.63351 0.0
C1378 C 1.00965 0.33292 0.64798 0.0
N1379 N 1.00508 0.32776 0.58989 0.0
C1380 C 1.0153 0.34489 0.575 0.0
C1381 C 0.03824 0.39084 0.60286 0.0
C1382 C 1.01719 0.34969 0.60368 0.0
C1383 C 0.0475 0.40871 0.58757 0.0
C1384 C 0.03627 0.38561 0.57359 0.0
H1385 H 1.01768 0.34885 0.65934 0.0
H1386 H 0.04882 0.41122 0.64335 0.0
H1387 H 0.06552 0.44445 0.61688 0.0
O1388 O 1.01627 0.25811 0.57972 0.0
O1389 O 0.94124 0.29785 0.59517 0.0
O1390 O 0.90174 0.28112 0.57267 0.0
O1391 O 1.0168 0.2546 0.60597 0.0
O1392 O 0.9585 0.24376 0.56726 0.0
O1393 O 0.91277 0.25776 0.55767 0.0
O1394 O 0.81273 0.20986 0.58821 0.0
O1395 O 0.89273 0.17939 0.57251 0.0
O1396 O 0.93129 0.19346 0.59525 0.0
O1397 O 0.81776 0.22272 0.56256 0.0
O1398 O 0.87261 0.22836 0.60266 0.0
O1399 O 0.92185 0.21597 0.60929 0.0
C1400 C 0.92086 0.30522 0.58449 0.0
C1401 C 0.07694 0.27735 0.59212 0.0
C1402 C 0.13795 0.27643 0.58976 0.0
C1403 C 0.15847 0.31754 0.58931 0.0
C1404 C 0.09773 0.3183 0.59177 0.0
C1405 C 0.13842 0.33827 0.59041 0.0
C1406 C 0.09709 0.25661 0.59125 0.0
C1407 C 0.94645 0.25858 0.55606 0.0
C1408 C 0.03419 0.2552 0.59246 0.0
C1409 C 0.03991 0.39385 0.63235 0.0
C1410 C 0.04943 0.41279 0.61727 0.0
C1411 C 0.91026 0.16948 0.58351 0.0
C1412 C 0.77826 0.23994 0.57851 0.0
C1413 C 0.71883 0.24261 0.58425 0.0
C1414 C 0.74203 0.28341 0.58615 0.0
C1415 C 0.80072 0.28052 0.58048 0.0
C1416 C 0.73743 0.22113 0.58036 0.0
C1417 C 0.7826 0.30213 0.58424 0.0
C1418 C 0.89096 0.21808 0.61324 0.0
C1419 C 0.79677 0.21615 0.57562 0.0
H1420 H 0.18999 0.33361 0.58826 0.0
H1421 H 0.08254 0.33468 0.59237 0.0
H1422 H 0.15446 0.3699 0.5901 0.0
H1423 H 0.08077 0.2249 0.59128 0.0
H1424 H 0.72878 0.30097 0.58891 0.0
H1425 H 0.83217 0.29532 0.57928 0.0
H1426 H 0.72028 0.18962 0.57913 0.0
H1427 H 0.80009 0.33351 0.58573 0.0
Eu1428 Eu 0.79924 0.72863 0.59476 0.0
C1429 C 0.92302 0.71025 0.55184 0.0
N1430 N 0.88343 0.68876 0.55066 0.0
C1431 C 0.88778 0.68973 0.52164 0.0
C1432 C 0.94657 0.72286 0.5378 0.0
C1433 C 0.8656 0.67789 0.53589 0.0
C1434 C 0.92841 0.71245 0.52259 0.0
C1435 C 0.98105 0.74241 0.56875 0.0
C1436 C 0.94011 0.71995 0.56714 0.0
C1437 C 1.00452 0.75516 0.55478 0.0
C1438 C 0.98735 0.74542 0.53936 0.0
Eu1439 Eu 0.84885 0.67047 0.57542 0.0
N1440 N 0.9166 0.70838 0.58047 0.0
C1441 C 0.99714 0.7516 0.58436 0.0
C1442 C 0.93216 0.71566 0.59569 0.0
C1443 C 0.97259 0.73786 0.59788 0.0
H1444 H 0.83427 0.65957 0.53504 0.0
H1445 H 0.98479 0.74424 0.60999 0.0
H1446 H 0.81917 0.74156 0.6348 0.0
H1447 H 0.65928 0.65948 0.56317 0.0
H1448 H 0.91353 0.70441 0.60616 0.0
H1449 H 0.02843 0.76897 0.5861 0.0
H1450 H 0.73113 0.69677 0.5655 0.0
H1451 H 0.87354 0.68116 0.50994 0.0
H1452 H 0.03601 0.7726 0.55578 0.0
H1453 H 1.00588 0.75545 0.5287 0.0
H1454 H 0.78319 0.72074 0.6607 0.0
H1455 H 0.9455 0.72155 0.51152 0.0
H1456 H 0.61861 0.63627 0.58796 0.0
N1457 N 0.76807 0.71237 0.62025 0.0
C1458 C 0.72838 0.69164 0.61991 0.0
C1459 C 0.76742 0.71213 0.64932 0.0
C1460 C 0.70661 0.67978 0.63443 0.0
C1461 C 0.78776 0.72349 0.63463 0.0
C1462 C 0.72668 0.68993 0.64923 0.0
N1463 N 0.73106 0.69322 0.59114 0.0
C1464 C 0.71369 0.68625 0.5763 0.0
C1465 C 0.66821 0.66109 0.60427 0.0
C1466 C 0.70933 0.68229 0.60498 0.0
C1467 C 0.65014 0.65251 0.58902 0.0
C1468 C 0.673 0.66542 0.57499 0.0
H1469 H 0.71096 0.68111 0.66063 0.0
H1470 H 0.64846 0.64892 0.64479 0.0
H1471 H 0.61488 0.63265 0.6184 0.0
O1472 O 0.79763 0.77521 0.58129 0.0
O1473 O 0.76264 0.66113 0.59495 0.0
O1474 O 0.78361 0.63918 0.57331 0.0
O1475 O 0.80268 0.77879 0.60751 0.0
O1476 O 0.81561 0.73378 0.56829 0.0
O1477 O 0.80567 0.67585 0.5581 0.0
O1478 O 0.85997 0.62864 0.58817 0.0
O1479 O 0.88202 0.7372 0.57345 0.0
O1480 O 0.86524 0.75817 0.59651 0.0
O1481 O 0.84656 0.62059 0.56262 0.0
O1482 O 0.83562 0.66524 0.60304 0.0
O1483 O 0.84391 0.72522 0.61013 0.0
C1484 C 0.75761 0.63379 0.58439 0.0
C1485 C 0.7777 0.81524 0.59463 0.0
C1486 C 0.77718 0.87668 0.59346 0.0
C1487 C 0.73618 0.85548 0.5946 0.0
C1488 C 0.73691 0.79446 0.59582 0.0
C1489 C 0.71627 0.81464 0.59581 0.0
C1490 C 0.79761 0.85609 0.59346 0.0
C1491 C 0.8015 0.70701 0.55698 0.0
C1492 C 0.80063 0.79551 0.59423 0.0
C1493 C 0.66564 0.65834 0.63375 0.0
C1494 C 0.6465 0.64909 0.61872 0.0
C1495 C 0.88972 0.76385 0.58462 0.0
C1496 C 0.83233 0.56426 0.57826 0.0
C1497 C 0.8314 0.50258 0.58339 0.0
C1498 C 0.79057 0.484 0.58527 0.0
C1499 C 0.79179 0.54507 0.58036 0.0
C1500 C 0.85206 0.54297 0.57975 0.0
C1501 C 0.77104 0.5051 0.58375 0.0
C1502 C 0.8437 0.69298 0.61386 0.0
C1503 C 0.85468 0.60685 0.57549 0.0
H1504 H 0.71956 0.87045 0.59474 0.0
H1505 H 0.72117 0.76287 0.5967 0.0
H1506 H 0.68474 0.7986 0.59673 0.0
H1507 H 0.82915 0.87182 0.59227 0.0
H1508 H 0.77358 0.45296 0.58776 0.0
H1509 H 0.77636 0.56112 0.57953 0.0
H1510 H 0.88355 0.55806 0.57844 0.0
H1511 H 0.73966 0.49043 0.58528 0.0
H1512 H 0.49659 0.92014 0.12178 0.0
H1513 H 0.49532 0.92277 0.0694 0.0
H1514 H 0.51129 0.86679 0.12077 0.0
H1515 H 0.51029 0.86997 0.06842 0.0
H1516 H 0.57625 0.80322 0.0728 0.0
H1517 H 0.56855 0.86052 0.07683 0.0
H1518 H 0.4737 0.79449 0.11017 0.0
H1519 H 0.48115 0.73722 0.10602 0.0
C1520 C 0.4992 0.90915 0.11008 0.0
C1521 C 0.49441 0.92531 0.09567 0.0
C1522 C 0.5077 0.87877 0.10951 0.0
C1523 C 0.51221 0.86451 0.09451 0.0
C1524 C 0.50745 0.88074 0.08014 0.0
C1525 C 0.49836 0.91061 0.08071 0.0
C1526 C 0.55439 0.80132 0.08126 0.0
C1527 C 0.52922 0.76587 0.08907 0.0
C1528 C 0.54977 0.8339 0.08345 0.0
C1529 C 0.52032 0.83175 0.0937 0.0
C1530 C 0.4967 0.79698 0.10225 0.0
C1531 C 0.5009 0.76425 0.09985 0.0
H1532 H 0.32675 0.76374 0.10515 0.0
H1533 H 0.25705 0.79155 0.07361 0.0
H1534 H 0.27012 0.69898 0.1102 0.0
H1535 H 0.20043 0.72655 0.07853 0.0
H1536 H 0.14058 0.59111 0.07068 0.0
H1537 H 0.1924 0.65925 0.06955 0.0
H1538 H 0.19796 0.66345 0.12187 0.0
H1539 H 0.14536 0.59488 0.12306 0.0
C1540 C 0.29906 0.7562 0.09957 0.0
C1541 C 0.29619 0.78248 0.08895 0.0
C1542 C 0.26671 0.71927 0.1025 0.0
C1543 C 0.2311 0.70775 0.09463 0.0
C1544 C 0.22771 0.73472 0.08464 0.0
C1545 C 0.25992 0.77192 0.08192 0.0
C1546 C 0.15299 0.60638 0.08196 0.0
C1547 C 0.13912 0.5876 0.09696 0.0
C1548 C 0.18231 0.64555 0.0813 0.0
C1549 C 0.19889 0.66665 0.09562 0.0
C1550 C 0.1856 0.64777 0.11066 0.0
C1551 C 0.15569 0.60863 0.11133 0.0
H1552 H 0.27298 0.48329 0.07481 0.0
H1553 H 0.30427 0.5822 0.10613 0.0
H1554 H 0.33751 0.49036 0.07919 0.0
H1555 H 0.36859 0.58914 0.11059 0.0
H1556 H 0.47169 0.56833 0.12293 0.0
H1557 H 0.40348 0.55312 0.12209 0.0
H1558 H 0.4048 0.54653 0.06982 0.0
H1559 H 0.47261 0.56189 0.07063 0.0
C1560 C 0.2933 0.50588 0.08295 0.0
C1561 C 0.2838 0.53231 0.09008 0.0
C1562 C 0.33025 0.51013 0.08534 0.0
C1563 C 0.35808 0.54051 0.09511 0.0
C1564 C 0.34766 0.5654 0.10305 0.0
C1565 C 0.31097 0.56152 0.10046 0.0
C1566 C 0.45737 0.56386 0.11128 0.0
C1567 C 0.47755 0.56675 0.09684 0.0
C1568 C 0.41842 0.55509 0.11081 0.0
C1569 C 0.39885 0.5484 0.09589 0.0
C1570 C 0.41902 0.55106 0.08149 0.0
C1571 C 0.45801 0.5604 0.08195 0.0
H1572 H 0.94954 0.50589 0.93956 0.0
H1573 H 0.94282 0.4916 0.88755 0.0
H1574 H 0.8977 0.52225 0.93879 0.0
H1575 H 0.89057 0.5079 0.88671 0.0
H1576 H 0.76196 0.47901 0.90016 0.0
H1577 H 0.82064 0.47386 0.89711 0.0
H1578 H 0.88391 0.57439 0.92819 0.0
H1579 H 0.82496 0.57941 0.93129 0.0
C1580 C 0.93679 0.50613 0.92798 0.0
C1581 C 0.94981 0.49722 0.91364 0.0
C1582 C 0.90753 0.51602 0.9275 0.0
C1583 C 0.8902 0.5165 0.91268 0.0
C1584 C 0.90332 0.50761 0.8983 0.0
C1585 C 0.93309 0.49829 0.89877 0.0
C1586 C 0.78862 0.5004 0.9061 0.0
C1587 C 0.7889 0.52941 0.91607 0.0
C1588 C 0.82224 0.4976 0.90428 0.0
C1589 C 0.8567 0.5235 0.91254 0.0
C1590 C 0.85757 0.5538 0.92183 0.0
C1591 C 0.82401 0.55687 0.92349 0.0
H1592 H 0.43457 0.2634 0.90333 0.0
H1593 H 0.52556 0.27524 0.93579 0.0
H1594 H 0.46631 0.33431 0.90112 0.0
H1595 H 0.55812 0.34617 0.93307 0.0
H1596 H 0.57738 0.47054 0.94001 0.0
H1597 H 0.54941 0.3999 0.94136 0.0
H1598 H 0.52322 0.39126 0.89012 0.0
H1599 H 0.55129 0.46217 0.88887 0.0
C1600 C 0.4614 0.28108 0.90998 0.0
C1601 C 0.47731 0.2634 0.91982 0.0
C1602 C 0.47989 0.32184 0.90855 0.0
C1603 C 0.51484 0.34613 0.91691 0.0
C1604 C 0.53104 0.32846 0.92658 0.0
C1605 C 0.51256 0.28769 0.928 0.0
C1606 C 0.566 0.45362 0.92901 0.0
C1607 C 0.56589 0.47188 0.9144 0.0
C1608 C 0.55 0.41304 0.92976 0.0
C1609 C 0.53369 0.38965 0.91588 0.0
C1610 C 0.53481 0.40817 0.90113 0.0
C1611 C 0.55089 0.44881 0.9004 0.0
H1612 H 0.60989 0.13238 0.94063 0.0
H1613 H 0.61133 0.13392 0.88828 0.0
H1614 H 0.68058 0.17424 0.94106 0.0
H1615 H 0.68212 0.17697 0.8886 0.0
H1616 H 0.80575 0.27175 0.93736 0.0
H1617 H 0.73473 0.23763 0.93577 0.0
H1618 H 0.73845 0.17193 0.89454 0.0
H1619 H 0.80947 0.20665 0.89597 0.0
C1620 C 0.62528 0.14256 0.92922 0.0
C1621 C 0.60524 0.12975 0.91443 0.0
C1622 C 0.66585 0.16662 0.92943 0.0
C1623 C 0.68721 0.17885 0.91485 0.0
C1624 C 0.66675 0.16757 0.90005 0.0
C1625 C 0.6262 0.14319 0.89985 0.0
C1626 C 0.79137 0.25023 0.92787 0.0
C1627 C 0.81322 0.24176 0.91683 0.0
C1628 C 0.75061 0.23039 0.92705 0.0
C1629 C 0.73069 0.20165 0.91514 0.0
C1630 C 0.75267 0.19381 0.90389 0.0
C1631 C 0.79343 0.21346 0.90478 0.0
H1632 H 0.3073 0.18842 0.44336 0.0
H1633 H 0.23035 0.11818 0.40474 0.0
H1634 H 0.27162 0.22357 0.44567 0.0
H1635 H 0.19409 0.15292 0.40723 0.0
H1636 H 0.17157 0.2572 0.40381 0.0
H1637 H 0.20129 0.21615 0.40186 0.0
H1638 H 0.21058 0.21684 0.45413 0.0
H1639 H 0.18174 0.25869 0.45596 0.0
C1640 C 0.28285 0.18061 0.43531 0.0
C1641 C 0.2718 0.15061 0.42382 0.0
C1642 C 0.26211 0.20054 0.43673 0.0
C1643 C 0.22998 0.19124 0.42661 0.0
C1644 C 0.2189 0.16116 0.41512 0.0
C1645 C 0.23949 0.14101 0.41378 0.0
C1646 C 0.1794 0.24805 0.41488 0.0
C1647 C 0.17484 0.26157 0.43002 0.0
C1648 C 0.19642 0.22446 0.41378 0.0
C1649 C 0.20881 0.21351 0.42783 0.0
C1650 C 0.20218 0.22536 0.44303 0.0
C1651 C 0.18541 0.24912 0.4441 0.0
H1652 H 0.94728 0.11571 0.40949 0.0
H1653 H 0.87039 0.12329 0.44466 0.0
H1654 H 0.91029 0.04447 0.41144 0.0
H1655 H 0.83288 0.05222 0.44629 0.0
H1656 H 0.79395 0.92525 0.45686 0.0
H1657 H 0.83667 0.99614 0.45588 0.0
H1658 H 0.84679 0.9899 0.40389 0.0
H1659 H 0.80432 0.91905 0.405 0.0
C1660 C 0.92261 0.10221 0.41769 0.0
C1661 C 0.91181 0.12531 0.42689 0.0
C1662 C 0.90115 0.06132 0.41869 0.0
C1663 C 0.86849 0.04248 0.42899 0.0
C1664 C 0.85801 0.06563 0.43833 0.0
C1665 C 0.8793 0.10646 0.43726 0.0
C1666 C 0.80549 0.9391 0.44525 0.0
C1667 C 0.79527 0.91672 0.43097 0.0
C1668 C 0.82987 0.97972 0.44466 0.0
C1669 C 0.84486 0.99891 0.42978 0.0
C1670 C 0.83601 0.97618 0.41558 0.0
C1671 C 0.8116 0.93553 0.41619 0.0
H1672 H 0.14265 0.89325 0.4057 0.0
H1673 H 0.14845 0.91139 0.45753 0.0
H1674 H 0.07451 0.877 0.40576 0.0
H1675 H 0.08 0.89567 0.45755 0.0
H1676 H 0.94372 0.81225 0.41415 0.0
H1677 H 1.00922 0.82158 0.41822 0.0
H1678 H 0.04305 0.92879 0.44418 0.0
H1679 H 0.9777 0.9196 0.44002 0.0
C1680 C 0.12944 0.8942 0.41707 0.0
C1681 C 0.15075 0.90377 0.43161 0.0
C1682 C 0.09034 0.88442 0.41714 0.0
C1683 C 0.07205 0.88481 0.43168 0.0
C1684 C 0.09355 0.89518 0.44619 0.0
C1685 C 0.13256 0.90423 0.44617 0.0
C1686 C 0.96491 0.83728 0.42104 0.0
C1687 C 0.9559 0.86535 0.42669 0.0
C1688 C 1.00235 0.84275 0.42326 0.0
C1689 C 0.0311 0.87606 0.43138 0.0
C1690 C 0.02131 0.90282 0.43793 0.0
C1691 C 0.98409 0.89766 0.43549 0.0
H1692 H 0.53876 0.96893 0.23565 0.0
H1693 H 0.47314 0.89489 0.27579 0.0
H1694 H 0.57505 0.93417 0.2334 0.0
H1695 H 0.50935 0.86001 0.27355 0.0
H1696 H 0.60821 0.84084 0.22426 0.0
H1697 H 0.56688 0.87044 0.22598 0.0
H1698 H 0.57549 0.87214 0.27827 0.0
H1699 H 0.6164 0.84232 0.27651 0.0
C1700 C 0.53233 0.9454 0.24406 0.0
C1701 C 0.50326 0.93475 0.25594 0.0
C1702 C 0.55289 0.92526 0.24269 0.0
C1703 C 0.54527 0.89442 0.25335 0.0
C1704 C 0.51623 0.88388 0.26526 0.0
C1705 C 0.49532 0.90368 0.26648 0.0
C1706 C 0.60091 0.84725 0.23611 0.0
C1707 C 0.61577 0.83961 0.25024 0.0
C1708 C 0.57743 0.86436 0.2371 0.0
C1709 C 0.56814 0.87396 0.25226 0.0
C1710 C 0.58179 0.86482 0.26641 0.0
C1711 C 0.60523 0.84771 0.26541 0.0
H1712 H 0.22778 0.78718 0.22537 0.0
H1713 H 0.2521 0.80038 0.27676 0.0
H1714 H 0.19934 0.71656 0.22793 0.0
H1715 H 0.22284 0.72981 0.27944 0.0
H1716 H 0.10356 0.59354 0.24291 0.0
H1717 H 0.13936 0.66437 0.23967 0.0
H1718 H 0.22796 0.67282 0.27271 0.0
H1719 H 0.19152 0.60209 0.27637 0.0
C1720 C 0.22743 0.77499 0.23719 0.0
C1721 C 0.24147 0.79918 0.25093 0.0
C1722 C 0.2109 0.73455 0.23868 0.0
C1723 C 0.20815 0.71747 0.25394 0.0
C1724 C 0.22453 0.74198 0.2675 0.0
C1725 C 0.24126 0.78247 0.26598 0.0
C1726 C 0.13046 0.61056 0.24961 0.0
C1727 C 0.14467 0.59218 0.2599 0.0
C1728 C 0.15126 0.65112 0.24759 0.0
C1729 C 0.18666 0.67426 0.25585 0.0
C1730 C 0.20071 0.65589 0.26623 0.0
C1731 C 0.17998 0.61533 0.26822 0.0
H1732 H 0.48009 0.54166 0.2374 0.0
H1733 H 0.47051 0.60893 0.27658 0.0
H1734 H 0.40913 0.50489 0.23489 0.0
H1735 H 0.39944 0.57224 0.27406 0.0
H1736 H 0.27555 0.46332 0.27775 0.0
H1737 H 0.34607 0.50618 0.27936 0.0
H1738 H 0.35283 0.51084 0.227 0.0
H1739 H 0.28212 0.46744 0.22546 0.0
C1740 C 0.46275 0.54843 0.24552 0.0
C1741 C 0.48083 0.57799 0.25725 0.0
C1742 C 0.42209 0.52759 0.24401 0.0
C1743 C 0.39852 0.53541 0.25435 0.0
C1744 C 0.41669 0.56518 0.26602 0.0
C1745 C 0.45739 0.58636 0.2674 0.0
C1746 C 0.29201 0.474 0.2666 0.0
C1747 C 0.27345 0.46166 0.25148 0.0
C1748 C 0.33246 0.49861 0.26751 0.0
C1749 C 0.35519 0.51171 0.25331 0.0
C1750 C 0.33628 0.50076 0.23817 0.0
C1751 C 0.29581 0.47608 0.23728 0.0
H1752 H 0.8242 0.59254 0.73662 0.0
H1753 H 0.83974 0.59836 0.78864 0.0
H1754 H 0.84027 0.54051 0.73525 0.0
H1755 H 0.8551 0.5455 0.78724 0.0
H1756 H 0.8206 0.41307 0.77266 0.0
H1757 H 0.81332 0.47032 0.77743 0.0
H1758 H 0.90383 0.53569 0.74225 0.0
H1759 H 0.91161 0.47859 0.73771 0.0
C1760 C 0.83068 0.58245 0.74777 0.0
C1761 C 0.83067 0.59943 0.76274 0.0
C1762 C 0.84029 0.55301 0.74696 0.0
C1763 C 0.84923 0.53939 0.76113 0.0
C1764 C 0.84836 0.55565 0.77616 0.0
C1765 C 0.83948 0.5857 0.77695 0.0
C1766 C 0.83951 0.44001 0.76626 0.0
C1767 C 0.86662 0.44162 0.75482 0.0
C1768 C 0.83541 0.47266 0.769 0.0
C1769 C 0.85782 0.50712 0.7601 0.0
C1770 C 0.88611 0.50927 0.74918 0.0
C1771 C 0.89074 0.47683 0.74667 0.0
H1772 H 0.53709 0.47568 0.77272 0.0
H1773 H 0.61138 0.46761 0.73637 0.0
H1774 H 0.50202 0.4047 0.77563 0.0
H1775 H 0.57662 0.39659 0.73943 0.0
H1776 H 0.47248 0.26939 0.736 0.0
H1777 H 0.51264 0.3402 0.73353 0.0
H1778 H 0.51095 0.35133 0.78564 0.0
H1779 H 0.47036 0.28041 0.78803 0.0
C1780 C 0.54576 0.4587 0.76528 0.0
C1781 C 0.57691 0.47725 0.75428 0.0
C1782 C 0.52592 0.41804 0.76707 0.0
C1783 C 0.53646 0.3949 0.75776 0.0
C1784 C 0.56753 0.41348 0.74669 0.0
C1785 C 0.58761 0.45418 0.74502 0.0
C1786 C 0.481 0.28691 0.74693 0.0
C1787 C 0.46741 0.26943 0.76217 0.0
C1788 C 0.50414 0.32753 0.74552 0.0
C1789 C 0.51453 0.35154 0.75937 0.0
C1790 C 0.50275 0.33379 0.7747 0.0
C1791 C 0.4796 0.29317 0.77608 0.0
H1792 H 0.6115 0.18776 0.73787 0.0
H1793 H 0.60403 0.10308 0.77292 0.0
H1794 H 0.68245 0.22428 0.74094 0.0
H1795 H 0.67496 0.13924 0.77581 0.0
H1796 H 0.79934 0.22942 0.78804 0.0
H1797 H 0.72872 0.20182 0.78621 0.0
H1798 H 0.73803 0.21527 0.7341 0.0
H1799 H 0.8084 0.24282 0.73595 0.0
C1800 C 0.62501 0.17703 0.74627 0.0
C1801 C 0.60215 0.14247 0.75513 0.0
C1802 C 0.66566 0.19782 0.74795 0.0
C1803 C 0.68437 0.18472 0.75864 0.0
C1804 C 0.66145 0.15035 0.7676 0.0
C1805 C 0.62085 0.12937 0.76581 0.0
C1806 C 0.78633 0.22709 0.77623 0.0
C1807 C 0.80941 0.23793 0.76213 0.0
C1808 C 0.74588 0.21107 0.77517 0.0
C1809 C 0.72768 0.20584 0.75999 0.0
C1810 C 0.75111 0.21902 0.74599 0.0
C1811 C 0.79153 0.23492 0.74705 0.0
H1812 H 0.19449 0.28702 0.56797 0.0
H1813 H 0.12806 0.21495 0.60841 0.0
H1814 H 0.22884 0.25039 0.56581 0.0
H1815 H 0.16243 0.17822 0.60631 0.0
H1816 H 0.26912 0.16043 0.61061 0.0
H1817 H 0.22674 0.18848 0.61152 0.0
H1818 H 0.2229 0.18813 0.5591 0.0
H1819 H 0.26612 0.16058 0.55828 0.0
C1820 C 0.18744 0.26347 0.57646 0.0
C1821 C 0.15886 0.25409 0.58845 0.0
C1822 C 0.20692 0.24225 0.57516 0.0
C1823 C 0.1988 0.21159 0.58601 0.0
C1824 C 0.16985 0.20198 0.59789 0.0
C1825 C 0.14998 0.22285 0.59905 0.0
C1826 C 0.25882 0.1658 0.59929 0.0
C1827 C 0.27157 0.15902 0.58437 0.0
C1828 C 0.23436 0.18181 0.59979 0.0
C1829 C 0.2217 0.19103 0.58538 0.0
C1830 C 0.23271 0.18212 0.57044 0.0
C1831 C 0.2573 0.16619 0.56995 0.0
H1832 H 0.75859 0.92275 0.57503 0.0
H1833 H 0.84502 0.92877 0.60872 0.0
H1834 H 0.7951 0.99377 0.57234 0.0
H1835 H 0.88218 0.99963 0.60563 0.0
H1836 H 0.90842 0.12792 0.61033 0.0
H1837 H 0.87782 0.05707 0.61265 0.0
H1838 H 0.85603 0.04581 0.561 0.0
H1839 H 0.88597 0.11663 0.55878 0.0
C1840 C 0.7853 0.93923 0.5819 0.0
C1841 C 0.79886 0.92006 0.59208 0.0
C1842 C 0.80652 0.9799 0.5802 0.0
C1843 C 0.84173 1.00239 0.58869 0.0
C1844 C 0.8551 0.98324 0.59898 0.0
C1845 C 0.83395 0.94258 0.60064 0.0
C1846 C 0.89776 0.11037 0.59944 0.0
C1847 C 0.89899 0.12775 0.58443 0.0
C1848 C 0.88019 0.06973 0.60076 0.0
C1849 C 0.86388 0.0457 0.58705 0.0
C1850 C 0.86751 0.06339 0.57186 0.0
C1851 C 0.88493 0.10397 0.57056 0.0
H1852 H 0.13087 0.91936 0.61168 0.0
H1853 H 0.10718 0.98357 0.57547 0.0
H1854 H 0.06585 0.86233 0.60719 0.0
H1855 H 0.04254 0.92642 0.57076 0.0
H1856 H 0.94119 0.79857 0.55964 0.0
H1857 H 1.00929 0.85152 0.56142 0.0
H1858 H 0.99711 0.85692 0.61325 0.0
H1859 H 0.92907 0.80475 0.61149 0.0
C1860 C 0.1121 0.92084 0.60248 0.0
C1861 C 0.12379 0.95568 0.59393 0.0
C1862 C 0.07495 0.88845 0.6 0.0
C1863 C 0.04927 0.89023 0.58871 0.0
C1864 C 0.06189 0.92432 0.57948 0.0
C1865 C 0.09872 0.95693 0.58218 0.0
C1866 C 0.95304 0.81131 0.57139 0.0
C1867 C 0.92985 0.79758 0.58543 0.0
C1868 C 0.99193 0.84145 0.57239 0.0
C1869 C 1.00841 0.85788 0.58749 0.0
C1870 C 0.98518 0.8443 0.6015 0.0
C1871 C 0.94616 0.81475 0.60046 0.0
H1872 H 0.52227 0.97719 0.04805 0.0
H1873 H 0.54148 0.09453 0.04584 0.0
H1874 H 0.52686 0.97576 0.01859 0.0
H1875 H 0.54551 0.09312 0.01617 0.0
H1876 H 0.47673 0.96926 0.96662 0.0
H1877 H 0.48467 0.97141 0.99621 0.0
H1878 H 0.58119 0.08984 0.99273 0.0
H1879 H 0.57275 0.08769 0.96343 0.0
C1880 C 0.52854 1.00313 0.04122 0.0
C1881 C 0.53183 0.03612 0.04919 0.0
C1882 C 0.53061 1.00208 0.02433 0.0
C1883 C 0.53593 0.03402 0.01496 0.0
C1884 C 0.5417 0.06807 0.02302 0.0
C1885 C 0.53976 0.06914 0.04001 0.0
C1886 C 0.5002 0.99525 0.9722 0.0
C1887 C 0.52402 0.02828 0.96277 0.0
C1888 C 0.50475 0.99666 0.98914 0.0
C1889 C 0.53337 0.03105 0.99689 0.0
C1890 C 0.55841 0.06322 0.98725 0.0
C1891 C 0.55378 0.06183 0.97044 0.0
H1892 H 0.10434 0.53766 0.96913 0.0
H1893 H 0.98234 0.50116 0.96399 0.0
H1894 H 0.09879 0.54207 0.99857 0.0
H1895 H 0.97679 0.50646 0.99319 0.0
H1896 H 0.97258 0.46246 0.0463 0.0
H1897 H 0.97563 0.4697 0.01671 0.0
H1898 H 0.08823 0.57479 0.0209 0.0
H1899 H 0.08535 0.5667 0.05026 0.0
C1900 C 0.07671 0.53183 0.97426 0.0
C1901 C 0.0438 0.51899 0.96431 0.0
C1902 C 0.07337 0.53421 0.99112 0.0
C1903 C 0.03713 0.52419 0.99832 0.0
C1904 C 1.00489 0.51361 0.98816 0.0
C1905 C 1.0082 0.51101 0.97139 0.0
C1906 C 0.99716 0.48782 0.04087 0.0
C1907 C 0.02854 0.51418 0.05051 0.0
C1908 C 0.99917 0.49193 0.02391 0.0
C1909 C 0.03252 0.52262 0.01635 0.0
C1910 C 0.06255 0.55038 0.02622 0.0
C1911 C 0.06064 0.54608 0.04306 0.0
H1912 H 0.53295 0.58102 0.96946 0.0
H1913 H 0.58394 0.50734 0.96445 0.0
H1914 H 0.52677 0.56903 0.99866 0.0
H1915 H 0.57654 0.49404 0.99347 0.0
H1916 H 0.61024 0.53078 0.04764 0.0
H1917 H 0.60651 0.52771 0.01798 0.0
H1918 H 0.49544 0.52387 0.02003 0.0
H1919 H 0.50032 0.5286 0.04949 0.0
C1920 C 0.5418 0.56139 0.97455 0.0
C1921 C 0.55899 0.54523 0.96469 0.0
C1922 C 0.53825 0.55439 0.9913 0.0
C1923 C 0.55134 0.53062 0.99852 0.0
C1924 C 0.56679 0.513 0.98844 0.0
C1925 C 0.57065 0.52031 0.97176 0.0
C1926 C 0.58443 0.52772 0.04171 0.0
C1927 C 0.55544 0.52958 0.05077 0.0
C1928 C 0.58229 0.52623 0.0247 0.0
C1929 C 0.5509 0.52618 0.01653 0.0
C1930 C 0.52048 0.52487 0.02582 0.0
C1931 C 0.52292 0.5269 0.04272 0.0
H1932 H 0.20344 0.42347 0.38051 0.0
H1933 H 0.18164 0.30525 0.38342 0.0
H1934 H 0.20848 0.42131 0.35084 0.0
H1935 H 0.18675 0.30299 0.35407 0.0
H1936 H 0.14063 0.29836 0.30121 0.0
H1937 H 0.14587 0.3002 0.33094 0.0
H1938 H 0.24687 0.41607 0.32827 0.0
H1939 H 0.24138 0.41409 0.2988 0.0
C1940 C 0.20092 0.39755 0.37486 0.0
C1941 C 0.19213 0.36457 0.38425 0.0
C1942 C 0.20352 0.39611 0.35788 0.0
C1943 C 0.19746 0.36168 0.35006 0.0
C1944 C 0.19079 0.32961 0.35963 0.0
C1945 C 0.18825 0.33109 0.37647 0.0
C1946 C 0.16463 0.32354 0.307 0.0
C1947 C 0.19063 0.35599 0.29774 0.0
C1948 C 0.16753 0.32486 0.32401 0.0
C1949 C 0.19653 0.35861 0.332 0.0
C1950 C 0.22377 0.39001 0.32257 0.0
C1951 C 0.22089 0.38866 0.30567 0.0
H1952 H 0.77466 0.87947 0.38138 0.0
H1953 H 0.6494 0.81064 0.37662 0.0
H1954 H 0.78087 0.89321 0.35244 0.0
H1955 H 0.65553 0.82321 0.3474 0.0
H1956 H 0.67288 0.86717 0.29661 0.0
H1957 H 0.67211 0.87008 0.32615 0.0
H1958 H 0.77484 0.85813 0.32795 0.0
H1959 H 0.776 0.85653 0.29826 0.0
C1960 C 0.74834 0.86769 0.37415 0.0
C1961 C 0.7115 0.84396 0.38127 0.0
C1962 C 0.75196 0.87524 0.3575 0.0
C1963 C 0.71882 0.85907 0.34749 0.0
C1964 C 0.68173 0.83661 0.35474 0.0
C1965 C 0.6781 0.82932 0.37149 0.0
C1966 C 0.69602 0.86652 0.30337 0.0
C1967 C 0.72476 0.86207 0.29524 0.0
C1968 C 0.69527 0.86759 0.32029 0.0
C1969 C 0.72299 0.8637 0.3295 0.0
C1970 C 0.75323 0.86164 0.32128 0.0
C1971 C 0.75418 0.86099 0.30427 0.0
H1972 H 0.23506 0.83154 0.29753 0.0
H1973 H 0.20565 0.92241 0.3022 0.0
H1974 H 0.23018 0.82191 0.32677 0.0
H1975 H 0.20107 0.91314 0.33177 0.0
H1976 H 0.27688 0.86324 0.3796 0.0
H1977 H 0.27004 0.85987 0.34995 0.0
H1978 H 0.16546 0.86791 0.35418 0.0
H1979 H 0.17267 0.87158 0.3836 0.0
C1980 C 0.22683 0.84901 0.30484 0.0
C1981 C 0.22073 0.87775 0.2976 0.0
C1982 C 0.2244 0.84372 0.32163 0.0
C1983 C 0.21578 0.86705 0.33167 0.0
C1984 C 0.2075 0.89442 0.32436 0.0
C1985 C 0.20988 0.89967 0.30744 0.0
C1986 C 0.25175 0.8628 0.37416 0.0
C1987 C 0.22522 0.86743 0.38384 0.0
C1988 C 0.2479 0.86122 0.3572 0.0
C1989 C 0.21742 0.86418 0.34967 0.0
C1990 C 0.18963 0.86632 0.35952 0.0
C1991 C 0.19349 0.86789 0.37638 0.0
H1992 H 0.87312 0.76414 0.71245 0.0
H1993 H 0.85543 0.64773 0.71706 0.0
H1994 H 0.87719 0.75989 0.68286 0.0
H1995 H 0.85974 0.64336 0.6877 0.0
H1996 H 0.80715 0.63223 0.63549 0.0
H1997 H 0.81651 0.6367 0.66503 0.0
H1998 H 0.91353 0.75435 0.65984 0.0
H1999 H 0.90383 0.74978 0.63056 0.0
C2000 C 0.87171 0.73835 0.70718 0.0
C2001 C 0.86428 0.70642 0.71701 0.0
C2002 C 0.87367 0.73565 0.69023 0.0
C2003 C 0.86826 0.70098 0.68287 0.0
C2004 C 0.86329 0.67014 0.69289 0.0
C2005 C 0.86134 0.67285 0.70973 0.0
C2006 C 0.83126 0.65839 0.64067 0.0
C2007 C 0.85486 0.69054 0.63076 0.0
C2008 C 0.83653 0.66119 0.65759 0.0
C2009 C 0.86553 0.69618 0.66485 0.0
C2010 C 0.89051 0.72732 0.65474 0.0
C2011 C 0.88522 0.72451 0.63794 0.0
H2012 H 0.43474 0.2027 0.63556 0.0
H2013 H 0.31769 0.18315 0.63142 0.0
H2014 H 0.43129 0.20795 0.66517 0.0
H2015 H 0.31399 0.18805 0.66076 0.0
H2016 H 0.4207 0.23894 0.71722 0.0
H2017 H 0.42419 0.24664 0.68784 0.0
H2018 H 0.31007 0.14386 0.68357 0.0
H2019 H 0.30688 0.1361 0.71324 0.0
C2020 C 0.40894 0.20105 0.64091 0.0
C2021 C 0.37656 0.19264 0.63122 0.0
C2022 C 0.40671 0.20363 0.65786 0.0
C2023 C 0.37203 0.19776 0.66533 0.0
C2024 C 0.34076 0.19195 0.65545 0.0
C2025 C 0.34309 0.1896 0.63862 0.0
C2026 C 0.39594 0.21852 0.71003 0.0
C2027 C 0.36343 0.18702 0.71751 0.0
C2028 C 0.39815 0.22273 0.69319 0.0
C2029 C 0.36772 0.19564 0.68334 0.0
C2030 C 0.33396 0.16542 0.69086 0.0
C2031 C 0.33186 0.1611 0.70783 0.0
H2032 H 0.88837 0.15944 0.63086 0.0
H2033 H 0.86696 0.25598 0.6342 0.0
H2034 H 0.88273 0.15129 0.6602 0.0
H2035 H 0.86165 0.24823 0.66381 0.0
H2036 H 0.93184 0.19478 0.71265 0.0
H2037 H 0.92388 0.18873 0.68309 0.0
H2038 H 0.82475 0.20623 0.68665 0.0
H2039 H 0.83316 0.21266 0.71599 0.0
C2040 C 0.8816 0.17842 0.6379 0.0
C2041 C 0.87801 0.20831 0.63028 0.0
C2042 C 0.87878 0.17399 0.65473 0.0
C2043 C 0.87227 0.19937 0.66441 0.0
C2044 C 0.86637 0.22792 0.6567 0.0
C2045 C 0.86914 0.2323 0.63975 0.0
C2046 C 0.90752 0.19577 0.70713 0.0
C2047 C 0.88303 0.20398 0.71657 0.0
C2048 C 0.90306 0.19267 0.69019 0.0
C2049 C 0.87394 0.19758 0.68246 0.0
C2050 C 0.84791 0.2031 0.69213 0.0
C2051 C 0.85242 0.20626 0.70896 0.0
H2052 H 0.31943 0.89372 0.20758 0.0
H2053 H 0.29178 0.98542 0.20094 0.0
H2054 H 0.36319 0.91742 0.18452 0.0
H2055 H 0.3359 1.0093 0.1772 0.0
H2056 H 0.45481 0.0611 0.14695 0.0
H2057 H 0.4097 0.04095 0.17034 0.0
H2058 H 0.35907 0.92044 0.15544 0.0
H2059 H 0.40381 0.9401 0.13279 0.0
C2060 C 0.32211 0.91861 0.20092 0.0
C2061 C 0.30174 0.9374 0.20599 0.0
C2062 C 0.34737 0.9323 0.18767 0.0
C2063 C 0.35327 0.96538 0.17896 0.0
C2064 C 0.33228 0.98394 0.18374 0.0
C2065 C 0.30646 0.96987 0.1971 0.0
C2066 C 0.43449 0.03033 0.14895 0.0
C2067 C 0.43316 1.00222 0.13808 0.0
C2068 C 0.40823 0.01882 0.16215 0.0
C2069 C 0.38061 0.97902 0.16477 0.0
C2070 C 0.38003 0.95125 0.15397 0.0
C2071 C 0.40582 0.96262 0.14091 0.0
H2072 H 1.0046 0.40814 0.14748 0.0
H2073 H 0.12497 0.48682 0.13476 0.0
H2074 H 0.02636 0.38526 0.17104 0.0
H2075 H 0.14638 0.46415 0.15775 0.0
H2076 H 0.17134 0.45048 0.21019 0.0
H2077 H 0.14592 0.46918 0.18726 0.0
H2078 H 0.06369 0.34771 0.17746 0.0
H2079 H 0.08936 0.32875 0.20095 0.0
C2080 C 0.03554 0.42097 0.14987 0.0
C2081 C 0.06305 0.44952 0.13935 0.0
C2082 C 0.04803 0.40747 0.16317 0.0
C2083 C 0.08818 0.42277 0.16627 0.0
C2084 C 0.11531 0.45186 0.15587 0.0
C2085 C 0.10297 0.46491 0.14265 0.0
C2086 C 0.14816 0.42756 0.20306 0.0
C2087 C 0.13269 0.38807 0.20731 0.0
C2088 C 0.1335 0.43834 0.18988 0.0
C2089 C 0.10265 0.41003 0.18049 0.0
C2090 C 0.08726 0.37028 0.18454 0.0
C2091 C 0.10237 0.35936 0.19779 0.0
H2092 H 0.62135 0.74124 0.20987 0.0
H2093 H 0.74222 0.78143 0.19879 0.0
H2094 H 0.60098 0.69637 0.18707 0.0
H2095 H 0.72154 0.73593 0.17553 0.0
H2096 H 0.65842 0.61436 0.14674 0.0
H2097 H 0.68288 0.65986 0.17001 0.0
H2098 H 0.60481 0.70216 0.15719 0.0
H2099 H 0.58067 0.65732 0.13439 0.0
C2100 C 0.64367 0.74083 0.20238 0.0
C2101 C 0.68343 0.7652 0.20605 0.0
C2102 C 0.63194 0.71499 0.18931 0.0
C2103 C 0.65957 0.71238 0.17948 0.0
C2104 C 0.69954 0.73702 0.18297 0.0
C2105 C 0.71141 0.76348 0.19609 0.0
C2106 C 0.64616 0.63297 0.14915 0.0
C2107 C 0.61742 0.63204 0.13882 0.0
C2108 C 0.66054 0.6594 0.16228 0.0
C2109 C 0.64589 0.68478 0.16542 0.0
C2110 C 0.61661 0.68297 0.15523 0.0
C2111 C 0.60273 0.65717 0.14214 0.0
H2112 H 0.97926 0.44537 0.86815 0.0
H2113 H 0.07808 0.42827 0.87273 0.0
H2114 H 0.95636 0.40206 0.8448 0.0
H2115 H 0.05584 0.38517 0.84876 0.0
H2116 H 0.976 0.27485 0.81652 0.0
H2117 H 1.00386 0.32 0.83969 0.0
H2118 H 0.96893 0.39673 0.81752 0.0
H2119 H 0.94014 0.3519 0.79531 0.0
C2120 C 0.99693 0.43345 0.86369 0.0
C2121 C 0.0311 0.44122 0.8719 0.0
C2122 C 0.98371 0.40831 0.85032 0.0
C2123 C 1.0042 0.38994 0.84472 0.0
C2124 C 0.0391 0.39849 0.85275 0.0
C2125 C 0.05239 0.42388 0.86623 0.0
C2126 C 0.97386 0.30111 0.81677 0.0
C2127 C 0.95539 0.30925 0.804 0.0
C2128 C 0.9903 0.32731 0.82995 0.0
C2129 C 0.98859 0.36217 0.83061 0.0
C2130 C 0.9703 0.37005 0.81775 0.0
C2131 C 0.95382 0.34408 0.80483 0.0
H2132 H 0.6335 0.5616 0.86878 0.0
H2133 H 0.63727 0.67216 0.87271 0.0
H2134 H 0.67758 0.58563 0.84585 0.0
H2135 H 0.68134 0.69661 0.84898 0.0
H2136 H 0.79644 0.73467 0.81718 0.0
H2137 H 0.75015 0.7157 0.84013 0.0
H2138 H 0.67941 0.60194 0.81843 0.0
H2139 H 0.72535 0.61942 0.7967 0.0
C2140 C 0.64281 0.59079 0.86433 0.0
C2141 C 0.63114 0.61461 0.87232 0.0
C2142 C 0.66835 0.60477 0.85116 0.0
C2143 C 0.68317 0.64318 0.84539 0.0
C2144 C 0.67075 0.66697 0.85312 0.0
C2145 C 0.64482 0.65274 0.86646 0.0
C2146 C 0.77122 0.70552 0.81751 0.0
C2147 C 0.76509 0.67869 0.80501 0.0
C2148 C 0.74438 0.69478 0.83053 0.0
C2149 C 0.71097 0.65705 0.83127 0.0
C2150 C 0.70496 0.6309 0.81859 0.0
C2151 C 0.73155 0.64128 0.8059 0.0
H2152 H 0.46067 0.15393 0.79966 0.0
H2153 H 0.34073 0.0889 0.81576 0.0
H2154 H 0.48007 0.12608 0.82112 0.0
H2155 H 0.36102 0.06164 0.83824 0.0
H2156 H 0.4129 0.99564 0.86802 0.0
H2157 H 0.38874 0.017 0.84477 0.0
H2158 H 0.4878 0.1336 0.84964 0.0
H2159 H 0.51179 0.11218 0.87213 0.0
C2160 C 0.43826 0.1339 0.80792 0.0
C2161 C 0.39899 0.1239 0.80593 0.0
C2162 C 0.44959 0.11794 0.82037 0.0
C2163 C 0.42228 0.09169 0.83154 0.0
C2164 C 0.38281 0.08157 0.82975 0.0
C2165 C 0.37126 0.09764 0.81707 0.0
C2166 C 0.42996 0.02541 0.86366 0.0
C2167 C 0.46461 0.0521 0.87165 0.0
C2168 C 0.41577 0.03788 0.85061 0.0
C2169 C 0.43625 0.0771 0.8453 0.0
C2170 C 0.47142 0.10311 0.85314 0.0
C2171 C 0.48533 0.0908 0.86604 0.0
H2172 H 0.95252 0.31292 0.53295 0.0
H2173 H 0.99629 0.23569 0.54531 0.0
H2174 H 0.99897 0.33844 0.50996 0.0
H2175 H 0.04225 0.26138 0.52321 0.0
H2176 H 0.0823 0.27488 0.47173 0.0
H2177 H 0.0367 0.25612 0.49396 0.0
H2178 H 0.07478 0.37742 0.50352 0.0
H2179 H 0.12082 0.39662 0.48043 0.0
C2180 C 0.97154 0.30109 0.53068 0.0
C2181 C 0.97032 0.27198 0.54092 0.0
C2182 C 0.99856 0.31613 0.51771 0.0
C2183 C 0.02439 0.30195 0.51472 0.0
C2184 C 0.02266 0.27277 0.52497 0.0
C2185 C 0.99611 0.258 0.53774 0.0
C2186 C 0.08146 0.29787 0.47857 0.0
C2187 C 0.10563 0.33738 0.47434 0.0
C2188 C 0.05513 0.287 0.49139 0.0
C2189 C 0.05197 0.31517 0.50061 0.0
C2190 C 0.07631 0.35496 0.49658 0.0
C2191 C 0.10314 0.36601 0.48359 0.0
H2192 H 0.66386 0.71902 0.47397 0.0
H2193 H 0.76985 0.83045 0.47728 0.0
H2194 H 0.6839 0.69607 0.49802 0.0
H2195 H 0.79041 0.80788 0.50053 0.0
H2196 H 0.80592 0.77609 0.54987 0.0
H2197 H 0.7773 0.79269 0.52794 0.0
H2198 H 0.7331 0.67767 0.50732 0.0
H2199 H 0.76049 0.65964 0.5305 0.0
C2200 C 0.69072 0.73898 0.48017 0.0
C2201 C 0.71481 0.77692 0.47405 0.0
C2202 C 0.70268 0.72559 0.4937 0.0
C2203 C 0.73885 0.75002 0.50135 0.0
C2204 C 0.76207 0.78827 0.49532 0.0
C2205 C 0.75022 0.80142 0.48196 0.0
C2206 C 0.78995 0.75378 0.54086 0.0
C2207 C 0.78572 0.71628 0.54214 0.0
C2208 C 0.77367 0.76365 0.52804 0.0
C2209 C 0.75311 0.73687 0.5156 0.0
C2210 C 0.74854 0.69908 0.51672 0.0
C2211 C 0.76469 0.68887 0.52988 0.0
H2212 H 0.31246 0.02028 0.46103 0.0
H2213 H 0.28033 0.91637 0.48941 0.0
H2214 H 0.33454 0.0598 0.48509 0.0
H2215 H 0.30283 0.95709 0.51398 0.0
H2216 H 0.29441 0.03697 0.55357 0.0
H2217 H 0.28097 0.99529 0.53015 0.0
H2218 H 0.38387 0.08602 0.50642 0.0
H2219 H 0.39774 0.12845 0.53018 0.0
C2220 C 0.3103 1.00553 0.47238 0.0
C2221 C 0.29408 0.96452 0.47309 0.0
C2222 C 0.32347 0.0287 0.48628 0.0
C2223 C 0.32069 1.0119 0.50153 0.0
C2224 C 0.30517 0.97102 0.50239 0.0
C2225 C 0.29226 0.9476 0.48831 0.0
C2226 C 0.31451 0.04838 0.54345 0.0
C2227 C 0.34722 0.08655 0.54385 0.0
C2228 C 0.30686 0.02401 0.53002 0.0
C2229 C 0.33136 0.03697 0.5164 0.0
C2230 C 0.36421 0.07508 0.51671 0.0
C2231 C 0.37215 0.09953 0.5303 0.0
H2232 H 0.51976 0.31847 0.11851 0.0
H2233 H 0.59765 0.33612 0.07858 0.0
H2234 H 0.49058 0.24782 0.11553 0.0
H2235 H 0.56923 0.2655 0.07593 0.0
H2236 H 0.49272 0.13363 0.06833 0.0
H2237 H 0.50971 0.2026 0.06876 0.0
H2238 H 0.51311 0.20176 0.12114 0.0
H2239 H 0.49606 0.13356 0.12068 0.0
C2240 C 0.53039 0.30735 0.10898 0.0
C2241 C 0.56133 0.33317 0.09889 0.0
C2242 C 0.51385 0.26678 0.10735 0.0
C2243 C 0.52763 0.25086 0.09553 0.0
C2244 C 0.55761 0.27663 0.08506 0.0
C2245 C 0.57428 0.31721 0.08674 0.0
C2246 C 0.49638 0.14811 0.0799 0.0
C2247 C 0.49346 0.12832 0.09446 0.0
C2248 C 0.50645 0.18766 0.08016 0.0
C2249 C 0.51306 0.20789 0.09499 0.0
C2250 C 0.50795 0.18721 0.10951 0.0
C2251 C 0.49836 0.14806 0.10924 0.0
H2252 H 0.7303 0.27842 0.07691 0.0
H2253 H 0.74566 0.21779 0.11728 0.0
H2254 H 0.80093 0.32116 0.07507 0.0
H2255 H 0.81641 0.25993 0.11515 0.0
H2256 H 0.93015 0.38025 0.12116 0.0
H2257 H 0.86201 0.32884 0.12103 0.0
H2258 H 0.86426 0.32486 0.06868 0.0
H2259 H 0.93309 0.37702 0.06885 0.0
C2260 C 0.74873 0.27399 0.08534 0.0
C2261 C 0.73209 0.24479 0.09736 0.0
C2262 C 0.78933 0.29824 0.08414 0.0
C2263 C 0.81449 0.29412 0.09497 0.0
C2264 C 0.79793 0.26418 0.10669 0.0
C2265 C 0.75732 0.23977 0.10782 0.0
C2266 C 0.91634 0.36805 0.1096 0.0
C2267 C 0.93693 0.38301 0.095 0.0
C2268 C 0.87722 0.33835 0.10954 0.0
C2269 C 0.85741 0.32276 0.09485 0.0
C2270 C 0.87849 0.33653 0.08021 0.0
C2271 C 0.91798 0.36614 0.08029 0.0
H2272 H 0.68615 0.56892 0.12145 0.0
H2273 H 0.68951 0.57419 0.06913 0.0
H2274 H 0.7377 0.55253 0.12151 0.0
H2275 H 0.74186 0.55789 0.06915 0.0
H2276 H 0.78809 0.47034 0.07785 0.0
H2277 H 0.74565 0.49846 0.07572 0.0
H2278 H 0.80639 0.57563 0.11579 0.0
H2279 H 0.84817 0.54675 0.11823 0.0
C2280 C 0.69844 0.56723 0.10993 0.0
C2281 C 0.68346 0.57246 0.09527 0.0
C2282 C 0.72823 0.558 0.10997 0.0
C2283 C 0.74389 0.5536 0.09534 0.0
C2284 C 0.73014 0.5606 0.08064 0.0
C2285 C 0.70043 0.57028 0.08061 0.0
C2286 C 0.79247 0.49334 0.08622 0.0
C2287 C 0.82139 0.50593 0.09834 0.0
C2288 C 0.7684 0.50984 0.08484 0.0
C2289 C 0.77246 0.53929 0.09559 0.0
C2290 C 0.80218 0.55275 0.10739 0.0
C2291 C 0.82639 0.5364 0.10871 0.0
H2292 H 0.35406 0.56509 0.91755 0.0
H2293 H 0.30254 0.48819 0.8764 0.0
H2294 H 0.28941 0.54671 0.92747 0.0
H2295 H 0.23849 0.47331 0.88526 0.0
H2296 H 0.12176 0.43268 0.90699 0.0
H2297 H 0.18626 0.44208 0.90182 0.0
H2298 H 0.23789 0.5561 0.92443 0.0
H2299 H 0.17328 0.54503 0.93064 0.0
C2300 C 0.3291 0.54422 0.91057 0.0
C2301 C 0.33414 0.52859 0.896 0.0
C2302 C 0.29169 0.53414 0.91614 0.0
C2303 C 0.25801 0.50869 0.90717 0.0
C2304 C 0.26314 0.49253 0.89278 0.0
C2305 C 0.30039 0.50187 0.88743 0.0
C2306 C 0.14685 0.45938 0.91114 0.0
C2307 C 0.14213 0.48818 0.91909 0.0
C2308 C 0.18418 0.4652 0.90793 0.0
C2309 C 0.21804 0.5004 0.91229 0.0
C2310 C 0.21306 0.52847 0.92087 0.0
C2311 C 0.17571 0.52229 0.92433 0.0
H2312 H 0.57143 0.84992 0.89806 0.0
H2313 H 0.45948 0.76036 0.91616 0.0
H2314 H 0.59859 0.80756 0.90358 0.0
H2315 H 0.48549 0.71738 0.92041 0.0
H2316 H 0.54422 0.6567 0.94102 0.0
H2317 H 0.52434 0.70498 0.9371 0.0
H2318 H 0.60148 0.75129 0.89571 0.0
H2319 H 0.623 0.70364 0.90034 0.0
C2320 C 0.55251 0.82131 0.90322 0.0
C2321 C 0.51302 0.80885 0.90658 0.0
C2322 C 0.56804 0.79667 0.90617 0.0
C2323 C 0.54452 0.75876 0.91254 0.0
C2324 C 0.50507 0.74646 0.91583 0.0
C2325 C 0.48977 0.77111 0.91308 0.0
C2326 C 0.55721 0.67737 0.93114 0.0
C2327 C 0.5849 0.67602 0.9209 0.0
C2328 C 0.54549 0.705 0.92876 0.0
C2329 C 0.56039 0.73182 0.91581 0.0
C2330 C 0.58928 0.73137 0.90585 0.0
C2331 C 0.6016 0.70394 0.90845 0.0
H2332 H 0.3858 0.93354 0.94314 0.0
H2333 H 0.39332 0.92721 0.89109 0.0
H2334 H 0.33234 0.86507 0.94351 0.0
H2335 H 0.34047 0.85969 0.89142 0.0
H2336 H 0.23091 0.74327 0.89433 0.0
H2337 H 0.27014 0.81446 0.89694 0.0
H2338 H 0.33053 0.80126 0.93788 0.0
H2339 H 0.29116 0.73023 0.93535 0.0
C2340 C 0.37543 0.91788 0.93178 0.0
C2341 C 0.39398 0.93565 0.91712 0.0
C2342 C 0.34506 0.87861 0.93198 0.0
C2343 C 0.33216 0.85673 0.91749 0.0
C2344 C 0.34925 0.87556 0.90278 0.0
C2345 C 0.37979 0.91432 0.90262 0.0
C2346 C 0.25188 0.75555 0.90413 0.0
C2347 C 0.25807 0.731 0.91454 0.0
C2348 C 0.27459 0.79638 0.90556 0.0
C2349 C 0.30373 0.81369 0.91756 0.0
C2350 C 0.30823 0.78906 0.92858 0.0
C2351 C 0.28586 0.7483 0.92704 0.0
H2352 H 0.10189 0.60968 0.42818 0.0
H2353 H 0.21737 0.65919 0.44872 0.0
H2354 H 0.10024 0.5478 0.42377 0.0
H2355 H 0.21624 0.5976 0.44387 0.0
H2356 H 0.17788 0.47072 0.45579 0.0
H2357 H 0.18177 0.53376 0.45642 0.0
H2358 H 0.12591 0.51074 0.40952 0.0
H2359 H 0.12247 0.4469 0.40876 0.0
C2360 C 0.12721 0.60755 0.43156 0.0
C2361 C 0.15958 0.6394 0.43905 0.0
C2362 C 0.12635 0.57206 0.42889 0.0
C2363 C 0.15781 0.56729 0.43368 0.0
C2364 C 0.1911 0.59986 0.44031 0.0
C2365 C 0.19201 0.63544 0.44293 0.0
C2366 C 0.16676 0.47903 0.44545 0.0
C2367 C 0.15048 0.45375 0.43207 0.0
C2368 C 0.16913 0.51549 0.44582 0.0
C2369 C 0.15495 0.52799 0.43289 0.0
C2370 C 0.13731 0.50222 0.41969 0.0
C2371 C 0.13519 0.46553 0.41926 0.0
H2372 H 0.61621 0.68607 0.44613 0.0
H2373 H 0.58476 0.73411 0.40575 0.0
H2374 H 0.547 0.6381 0.45054 0.0
H2375 H 0.51655 0.6855 0.40945 0.0
H2376 H 0.39647 0.63033 0.43085 0.0
H2377 H 0.46549 0.67312 0.4264 0.0
H2378 H 0.48798 0.58205 0.4423 0.0
H2379 H 0.41847 0.53985 0.44798 0.0
C2380 C 0.59457 0.68592 0.43804 0.0
C2381 C 0.60587 0.71426 0.42577 0.0
C2382 C 0.55484 0.65832 0.4405 0.0
C2383 C 0.52564 0.65814 0.43057 0.0
C2384 C 0.53763 0.68531 0.41776 0.0
C2385 C 0.57698 0.71311 0.41551 0.0
C2386 C 0.41595 0.61935 0.43366 0.0
C2387 C 0.40141 0.58145 0.43996 0.0
C2388 C 0.45587 0.64387 0.4308 0.0
C2389 C 0.48286 0.63125 0.43381 0.0
C2390 C 0.46839 0.59314 0.43994 0.0
C2391 C 0.42827 0.56862 0.44299 0.0
H2392 H 0.54395 0.94003 0.45043 0.0
H2393 H 0.47709 0.81728 0.43856 0.0
H2394 H 0.48955 0.9485 0.4417 0.0
H2395 H 0.42284 0.82582 0.42971 0.0
H2396 H 0.32147 0.84818 0.44336 0.0
H2397 H 0.3781 0.84024 0.44606 0.0
H2398 H 0.44632 0.9444 0.41753 0.0
H2399 H 0.38876 0.95203 0.4145 0.0
C2400 C 0.51778 0.91495 0.44579 0.0
C2401 C 0.51469 0.87788 0.44535 0.0
C2402 C 0.48679 0.9199 0.44063 0.0
C2403 C 0.4518 0.8878 0.4351 0.0
C2404 C 0.44932 0.85107 0.43403 0.0
C2405 C 0.48047 0.84621 0.43901 0.0
C2406 C 0.34839 0.86942 0.43753 0.0
C2407 C 0.35066 0.90134 0.42897 0.0
C2408 C 0.38084 0.8646 0.43898 0.0
C2409 C 0.41678 0.89171 0.43206 0.0
C2410 C 0.41906 0.92318 0.42312 0.0
C2411 C 0.38612 0.92761 0.4214 0.0
H2412 H 0.79956 0.77752 0.26613 0.0
H2413 H 0.83132 0.88392 0.23991 0.0
H2414 H 0.86906 0.79597 0.26721 0.0
H2415 H 0.89977 0.90257 0.24146 0.0
H2416 H 0.01929 0.94323 0.26374 0.0
H2417 H 0.94945 0.91816 0.26662 0.0
H2418 H 0.92517 0.81155 0.24249 0.0
H2419 H 0.99531 0.83716 0.23883 0.0
C2420 C 0.82122 0.80483 0.26074 0.0
C2421 C 0.80985 0.82912 0.25286 0.0
C2422 C 0.86089 0.81531 0.26131 0.0
C2423 C 0.88975 0.85078 0.25445 0.0
C2424 C 0.87825 0.87522 0.24693 0.0
C2425 C 0.83892 0.86438 0.246 0.0
C2426 C 0.9993 0.91448 0.25895 0.0
C2427 C 1.01332 0.89271 0.25072 0.0
C2428 C 0.95922 0.89998 0.26079 0.0
C2429 C 0.93193 0.86298 0.25475 0.0
C2430 C 0.94563 0.84004 0.24739 0.0
C2431 C 0.98588 0.85481 0.24532 0.0
H2432 H 0.2336 1.00301 0.22649 0.0
H2433 H 0.284 0.0312 0.27454 0.0
H2434 H 0.22902 0.06185 0.22632 0.0
H2435 H 0.28042 0.09154 0.2741 0.0
H2436 H 0.3082 0.21605 0.25337 0.0
H2437 H 0.30937 0.1557 0.25852 0.0
H2438 H 0.19146 0.08845 0.24045 0.0
H2439 H 0.19049 0.14884 0.23512 0.0
C2440 C 0.24356 0.02166 0.23711 0.0
C2441 C 0.2585 1.01182 0.25067 0.0
C2442 C 0.24079 0.05547 0.237 0.0
C2443 C 0.25358 0.08105 0.25032 0.0
C2444 C 0.27002 0.07223 0.26369 0.0
C2445 C 0.27223 0.03778 0.26391 0.0
C2446 C 0.28229 0.18832 0.25075 0.0
C2447 C 0.24937 0.18726 0.24367 0.0
C2448 C 0.28291 0.15374 0.2538 0.0
C2449 C 0.25075 0.1173 0.24969 0.0
C2450 C 0.21696 0.11614 0.24354 0.0
C2451 C 0.21621 0.1507 0.24063 0.0
H2452 H 0.8586 0.11653 0.24665 0.0
H2453 H 0.92591 0.06046 0.23628 0.0
H2454 H 0.91841 0.17692 0.25346 0.0
H2455 H 0.98558 0.12043 0.24364 0.0
H2456 H 0.08037 0.24527 0.23085 0.0
H2457 H 0.02131 0.18242 0.22964 0.0
H2458 H 0.97594 0.21276 0.2714 0.0
H2459 H 0.03603 0.27661 0.27272 0.0
C2460 C 0.88612 0.11689 0.24607 0.0
C2461 C 0.88745 0.08376 0.24063 0.0
C2462 C 0.92041 0.15146 0.25015 0.0
C2463 C 0.95694 0.15381 0.24887 0.0
C2464 C 0.958 0.11989 0.24448 0.0
C2465 C 0.92371 0.0853 0.24042 0.0
C2466 C 0.05807 0.23884 0.23989 0.0
C2467 C 0.06301 0.26656 0.25178 0.0
C2468 C 0.02414 0.20236 0.23926 0.0
C2469 C 0.99384 0.19222 0.25048 0.0
C2470 C 0.99864 0.2197 0.2625 0.0
C2471 C 0.03303 0.25638 0.26323 0.0
H2472 H 0.82058 0.80377 0.7359 0.0
H2473 H 0.83339 0.81011 0.78801 0.0
H2474 H 0.83729 0.87267 0.73537 0.0
H2475 H 0.85006 0.87816 0.78751 0.0
H2476 H 0.85539 0.99396 0.78395 0.0
H2477 H 0.82566 0.92304 0.78206 0.0
H2478 H 0.89836 0.93641 0.7407 0.0
H2479 H 0.92733 1.0073 0.74229 0.0
C2480 C 0.82623 0.81962 0.74723 0.0
C2481 C 0.82604 0.80166 0.76196 0.0
C2482 C 0.83611 0.85911 0.74694 0.0
C2483 C 0.84525 0.88106 0.7614 0.0
C2484 C 0.8429 0.86222 0.77616 0.0
C2485 C 0.83353 0.82316 0.77643 0.0
C2486 C 0.86455 0.98181 0.77427 0.0
C2487 C 0.89405 1.00649 0.76337 0.0
C2488 C 0.8477 0.94111 0.77325 0.0
C2489 C 0.85971 0.92396 0.76126 0.0
C2490 C 0.88813 0.94855 0.74999 0.0
C2491 C 0.90513 0.98926 0.75105 0.0
H2492 H 0.27352 0.04797 0.73639 0.0
H2493 H 0.26433 0.05594 0.78828 0.0
H2494 H 0.20484 0.9953 0.73548 0.0
H2495 H 0.1966 1.00396 0.78741 0.0
H2496 H 0.08104 0.89265 0.78361 0.0
H2497 H 0.15201 0.9343 0.78226 0.0
H2498 H 0.14033 0.99149 0.73978 0.0
H2499 H 0.06947 0.94941 0.74096 0.0
C2500 C 0.25712 0.03806 0.7476 0.0
C2501 C 0.27434 0.05645 0.76237 0.0
C2502 C 0.21771 1.00811 0.74709 0.0
C2503 C 0.19498 0.99543 0.76137 0.0
C2504 C 0.21306 0.01258 0.77618 0.0
C2505 C 0.252 0.04268 0.77666 0.0
C2506 C 0.0936 0.91362 0.77381 0.0
C2507 C 0.06934 0.91783 0.7625 0.0
C2508 C 0.13434 0.93774 0.7731 0.0
C2509 C 0.15205 0.96651 0.76096 0.0
C2510 C 0.12788 0.96954 0.74923 0.0
C2511 C 0.08713 0.94567 0.75003 0.0
H2512 H 0.15332 0.17906 0.77831 0.0
H2513 H 0.22193 0.29618 0.75946 0.0
H2514 H 0.09348 0.18062 0.7724 0.0
H2515 H 0.1621 0.29778 0.75359 0.0
H2516 H 0.0371 0.27133 0.73703 0.0
H2517 H 0.09656 0.26631 0.73756 0.0
H2518 H 0.06982 0.22224 0.78657 0.0
H2519 H 1.01195 0.22844 0.78634 0.0
C2520 C 0.15557 0.20468 0.77248 0.0
C2521 C 0.19231 0.23758 0.76947 0.0
C2522 C 0.12136 0.20574 0.76923 0.0
C2523 C 0.12313 0.23955 0.76272 0.0
C2524 C 0.15976 0.27133 0.75857 0.0
C2525 C 0.19399 0.27045 0.762 0.0
C2526 C 0.04419 0.261 0.74796 0.0
C2527 C 0.01947 0.25008 0.76159 0.0
C2528 C 0.07808 0.25788 0.74822 0.0
C2529 C 0.08742 0.2431 0.762 0.0
C2530 C 0.06299 0.23282 0.77563 0.0
C2531 C 0.02983 0.23665 0.7755 0.0
H2532 H 0.4789 0.16102 0.56179 0.0
H2533 H 0.47254 0.1478 0.61391 0.0
H2534 H 0.54707 0.17872 0.56231 0.0
H2535 H 0.54172 0.16571 0.61443 0.0
H2536 H 0.67658 0.25626 0.60721 0.0
H2537 H 0.60572 0.22716 0.60902 0.0
H2538 H 0.59179 0.15415 0.56769 0.0
H2539 H 0.66255 0.18382 0.56563 0.0
C2540 C 0.49198 0.16146 0.5734 0.0
C2541 C 0.4703 0.15338 0.58784 0.0
C2542 C 0.53115 0.17138 0.57367 0.0
C2543 C 0.55007 0.17384 0.5884 0.0
C2544 C 0.52811 0.16445 0.60288 0.0
C2545 C 0.48846 0.15395 0.60258 0.0
C2546 C 0.6584 0.23397 0.59851 0.0
C2547 C 0.67542 0.22273 0.58616 0.0
C2548 C 0.61772 0.21691 0.59969 0.0
C2549 C 0.59297 0.18838 0.58848 0.0
C2550 C 0.60995 0.17628 0.57645 0.0
C2551 C 0.65058 0.19313 0.57533 0.0
H2552 H 0.92229 0.34709 0.61151 0.0
H2553 H 0.9132 0.34484 0.55929 0.0
H2554 H 0.90646 0.39984 0.61247 0.0
H2555 H 0.89739 0.3968 0.56021 0.0
H2556 H 0.89119 0.5068 0.56481 0.0
H2557 H 0.92072 0.46542 0.56633 0.0
H2558 H 0.84667 0.40376 0.60706 0.0
H2559 H 0.81793 0.44578 0.60584 0.0
C2560 C 0.91778 0.35843 0.60025 0.0
C2561 C 0.91872 0.34164 0.58535 0.0
C2562 C 0.90833 0.38834 0.60079 0.0
C2563 C 0.90037 0.40248 0.58641 0.0
C2564 C 0.90363 0.38705 0.57151 0.0
C2565 C 0.91254 0.35704 0.57099 0.0
C2566 C 0.88169 0.48493 0.57429 0.0
C2567 C 0.85185 0.4795 0.5851 0.0
C2568 C 0.89843 0.46095 0.57508 0.0
C2569 C 0.886 0.43104 0.58678 0.0
C2570 C 0.85727 0.42666 0.59799 0.0
C2571 C 0.8404 0.45048 0.59715 0.0
H2572 H 0.58394 0.38969 0.56838 0.0
H2573 H 0.51613 0.44172 0.58411 0.0
H2574 H 0.64404 0.4509 0.57427 0.0
H2575 H 0.57618 0.50314 0.58969 0.0
H2576 H 0.69783 0.60266 0.60707 0.0
H2577 H 0.63782 0.53861 0.60615 0.0
H2578 H 0.6739 0.51455 0.56019 0.0
H2579 H 0.73264 0.57797 0.56086 0.0
C2580 C 0.58183 0.41389 0.57342 0.0
C2581 C 0.54522 0.41091 0.5756 0.0
C2582 C 0.61627 0.44913 0.57663 0.0
C2583 C 0.61494 0.48216 0.58222 0.0
C2584 C 0.57831 0.47835 0.58543 0.0
C2585 C 0.5439 0.4432 0.58211 0.0
C2586 C 0.69273 0.58382 0.59672 0.0
C2587 C 0.7203 0.59565 0.58408 0.0
C2588 C 0.65845 0.54703 0.59623 0.0
C2589 C 0.65133 0.52113 0.58322 0.0
C2590 C 0.67878 0.53325 0.57059 0.0
C2591 C 0.7125 0.56994 0.57095 0.0
loop_
_geom_bond_atom_site_label_1
_geom_bond_atom_site_label_2
_geom_bond_distance
_geom_bond_site_symmetry_2
_ccdc_geom_bond_type
Eu0 N29 2.600 . S
Eu0 N35 2.562 . S
Eu0 O44 2.462 . S
Eu0 O45 2.373 1_565 S
Eu0 O47 2.432 . S
Eu0 O48 2.291 . S
Eu0 O52 2.335 . S
Eu0 O55 2.372 . S
Eu0 C64 2.787 . S
C1 N2 1.365 . S
C1 C4 1.405 1_545 S
C1 C8 1.448 . S
N2 C1 1.365 . S
N2 C5 1.319 . S
N2 Eu11 2.600 . S
C3 C5 1.399 1_565 S
C3 C6 1.364 . S
C3 H23 0.935 . S
C4 C1 1.405 1_565 S
C4 C6 1.403 . S
C4 C10 1.439 . S
C5 N2 1.319 . S
C5 C3 1.399 1_545 S
C5 H16 0.930 . S
C6 C3 1.364 . S
C6 C4 1.403 . S
C6 H27 0.929 . S
C7 C8 1.430 1_565 S
C7 C9 1.387 . S
C7 C13 1.404 . S
C8 C1 1.448 . S
C8 C7 1.430 1_545 S
C8 N12 1.351 . S
C9 C7 1.387 . S
C9 C10 1.374 . S
C9 H24 0.931 . S
C10 C4 1.439 . S
C10 C9 1.374 . S
C10 H25 0.931 . S
Eu11 N2 2.600 . S
Eu11 N12 2.562 . S
Eu11 O46 2.335 . S
Eu11 O49 2.372 . S
Eu11 O50 2.462 . S
Eu11 O51 2.373 1_545 S
Eu11 O53 2.432 . S
Eu11 O54 2.291 . S
Eu11 C75 2.787 . S
N12 C8 1.351 . S
N12 Eu11 2.562 . S
N12 C14 1.325 . S
C13 C7 1.404 . S
C13 C15 1.366 1_565 S
C13 H21 0.930 . S
C14 N12 1.325 . S
C14 C15 1.416 . S
C14 H20 0.929 . S
C15 C13 1.366 1_545 S
C15 C14 1.416 . S
C15 H17 0.930 . S
H16 C5 0.930 . S
H17 C15 0.930 . S
H18 C33 0.930 . S
H19 C40 0.930 . S
H20 C14 0.929 . S
H21 C13 0.930 . S
H22 C36 0.929 . S
H23 C3 0.935 . S
H24 C9 0.931 . S
H25 C10 0.931 . S
H26 C31 0.931 . S
H27 C6 0.929 . S
H28 C39 0.930 . S
N29 Eu0 2.600 . S
N29 C30 1.365 1_565 S
N29 C33 1.319 . S
C30 N29 1.365 1_545 S
C30 C32 1.405 . S
C30 C38 1.448 . S
C31 H26 0.931 . S
C31 C33 1.397 1_545 S
C31 C34 1.367 . S
C32 C30 1.405 . S
C32 C34 1.403 . S
C32 C65 1.439 . S
C33 H18 0.930 . S
C33 N29 1.319 . S
C33 C31 1.397 1_565 S
C34 C31 1.367 . S
C34 C32 1.403 . S
C34 H41 0.929 . S
N35 Eu0 2.562 . S
N35 C36 1.325 . S
N35 C38 1.351 1_565 S
C36 H22 0.929 . S
C36 N35 1.325 . S
C36 C40 1.416 1_565 S
C37 C38 1.430 . S
C37 C39 1.404 . S
C37 C66 1.387 . S
C38 C30 1.448 . S
C38 N35 1.351 1_545 S
C38 C37 1.430 . S
C39 H28 0.930 . S
C39 C37 1.404 . S
C39 C40 1.366 . S
C40 H19 0.930 . S
C40 C36 1.416 1_545 S
C40 C39 1.366 . S
H41 C34 0.929 . S
H42 C65 0.931 . S
H43 C66 0.931 . S
O44 Eu0 2.462 . S
O44 C64 1.252 . S
O45 Eu0 2.373 1_545 S
O45 C56 1.249 . S
O46 Eu11 2.335 . S
O46 C56 1.264 . S
O47 Eu0 2.432 . S
O47 C64 1.268 . S
O48 Eu0 2.291 . S
O48 C63 1.255 . S
O49 Eu11 2.372 . S
O49 C63 1.257 1_545 S
O50 Eu11 2.462 . S
O50 C75 1.252 . S
O51 Eu11 2.373 1_565 S
O51 C67 1.249 . S
O52 Eu0 2.335 . S
O52 C67 1.264 . S
O53 Eu11 2.432 . S
O53 C75 1.268 . S
O54 Eu11 2.291 . S
O54 C74 1.255 . S
O55 Eu0 2.372 . S
O55 C74 1.257 1_565 S
C56 O45 1.249 . S
C56 O46 1.264 . S
C57 C60 1.382 . S
C57 C62 1.390 . S
C57 C64 1.506 . S
C58 C59 1.398 . S
C58 C62 1.392 . S
C59 C58 1.398 . S
C59 C61 1.372 . S
C59 H76 0.931 . S
C60 C57 1.382 . S
C60 C61 1.390 . S
C60 H77 0.931 . S
C61 C59 1.372 . S
C61 C60 1.390 . S
C61 H78 0.929 . S
C62 C57 1.390 . S
C62 C58 1.392 . S
C62 H79 0.930 . S
C63 O48 1.255 . S
C63 O49 1.257 1_565 S
C64 Eu0 2.787 . S
C64 O44 1.252 . S
C64 O47 1.268 . S
C64 C57 1.506 . S
C65 C32 1.439 . S
C65 H42 0.931 . S
C65 C66 1.374 . S
C66 C37 1.387 . S
C66 H43 0.931 . S
C66 C65 1.374 . S
C67 O51 1.249 . S
C67 O52 1.264 . S
C68 C71 1.382 . S
C68 C72 1.390 . S
C68 C75 1.506 . S
C69 C70 1.398 . S
C69 C72 1.392 . S
C70 C69 1.398 . S
C70 C73 1.372 . S
C70 H80 0.931 . S
C71 C68 1.382 . S
C71 C73 1.390 . S
C71 H81 0.931 . S
C72 C68 1.390 . S
C72 C69 1.392 . S
C72 H82 0.930 . S
C73 C70 1.372 . S
C73 C71 1.390 . S
C73 H83 0.929 . S
C74 O54 1.255 . S
C74 O55 1.257 1_545 S
C75 Eu11 2.787 . S
C75 O50 1.252 . S
C75 O53 1.268 . S
C75 C68 1.506 . S
H76 C59 0.931 . S
H77 C60 0.931 . S
H78 C61 0.929 . S
H79 C62 0.930 . S
H80 C70 0.931 . S
H81 C71 0.931 . S
H82 C72 0.930 . S
H83 C73 0.929 . S
Eu84 N113 2.600 . S
Eu84 N119 2.562 . S
Eu84 O128 2.462 . S
Eu84 O129 2.373 1_455 S
Eu84 O131 2.432 . S
Eu84 O132 2.291 . S
Eu84 O136 2.335 . S
Eu84 O139 2.372 . S
Eu84 C148 2.787 . S
C85 N86 1.365 . S
C85 C88 1.405 . S
C85 C92 1.448 . S
N86 C85 1.365 . S
N86 C89 1.319 . S
N86 Eu95 2.600 . S
C87 C89 1.397 . S
C87 C90 1.367 . S
C87 H107 0.931 . S
C88 C85 1.405 . S
C88 C90 1.403 . S
C88 C94 1.439 . S
C89 N86 1.319 . S
C89 C87 1.397 . S
C89 H100 0.930 . S
C90 C87 1.367 . S
C90 C88 1.403 . S
C90 H111 0.929 . S
C91 C92 1.430 . S
C91 C93 1.387 . S
C91 C97 1.404 . S
C92 C85 1.448 . S
C92 C91 1.430 . S
C92 N96 1.351 . S
C93 C91 1.387 . S
C93 C94 1.374 . S
C93 H108 0.931 . S
C94 C88 1.439 . S
C94 C93 1.374 . S
C94 H109 0.931 . S
Eu95 N86 2.600 . S
Eu95 N96 2.562 . S
Eu95 O130 2.335 1_455 S
Eu95 O133 2.372 . S
Eu95 O134 2.462 1_455 S
Eu95 O135 2.373 . S
Eu95 O137 2.432 1_455 S
Eu95 O138 2.291 . S
Eu95 C159 2.787 1_455 S
N96 C92 1.351 . S
N96 Eu95 2.562 . S
N96 C98 1.325 . S
C97 C91 1.404 . S
C97 C99 1.366 . S
C97 H105 0.930 . S
C98 N96 1.325 . S
C98 C99 1.416 . S
C98 H104 0.929 . S
C99 C97 1.366 . S
C99 C98 1.416 . S
C99 H101 0.930 . S
H100 C89 0.930 . S
H101 C99 0.930 . S
H102 C117 0.930 . S
H103 C124 0.930 . S
H104 C98 0.929 . S
H105 C97 0.930 . S
H106 C120 0.929 . S
H107 C87 0.931 . S
H108 C93 0.931 . S
H109 C94 0.931 . S
H110 C115 0.931 . S
H111 C90 0.929 . S
H112 C123 0.930 . S
N113 Eu84 2.600 . S
N113 C114 1.365 . S
N113 C117 1.319 . S
C114 N113 1.365 . S
C114 C116 1.405 . S
C114 C122 1.448 . S
C115 H110 0.931 . S
C115 C117 1.397 . S
C115 C118 1.367 . S
C116 C114 1.405 . S
C116 C118 1.403 . S
C116 C149 1.439 1_455 S
C117 H102 0.930 . S
C117 N113 1.319 . S
C117 C115 1.397 . S
C118 C115 1.367 . S
C118 C116 1.403 . S
C118 H125 0.929 . S
N119 Eu84 2.562 . S
N119 C120 1.325 . S
N119 C122 1.351 . S
C120 H106 0.929 . S
C120 N119 1.325 . S
C120 C124 1.416 . S
C121 C122 1.430 . S
C121 C123 1.404 . S
C121 C150 1.386 1_455 S
C122 C114 1.448 . S
C122 N119 1.351 . S
C122 C121 1.430 . S
C123 H112 0.930 . S
C123 C121 1.404 . S
C123 C124 1.366 . S
C124 H103 0.930 . S
C124 C120 1.416 . S
C124 C123 1.366 . S
H125 C118 0.929 . S
H126 C149 0.931 . S
H127 C150 0.928 . S
O128 Eu84 2.462 . S
O128 C148 1.252 . S
O129 Eu84 2.373 1_655 S
O129 C140 1.249 . S
O130 Eu95 2.335 1_655 S
O130 C140 1.264 . S
O131 Eu84 2.432 . S
O131 C148 1.268 . S
O132 Eu84 2.291 . S
O132 C147 1.255 . S
O133 Eu95 2.372 . S
O133 C147 1.257 . S
O134 Eu95 2.462 1_655 S
O134 C159 1.252 . S
O135 Eu95 2.373 . S
O135 C151 1.249 . S
O136 Eu84 2.335 . S
O136 C151 1.264 . S
O137 Eu95 2.432 1_655 S
O137 C159 1.268 . S
O138 Eu95 2.291 . S
O138 C158 1.255 . S
O139 Eu84 2.372 . S
O139 C158 1.257 . S
C140 O129 1.249 . S
C140 O130 1.264 . S
C141 C144 1.382 . S
C141 C146 1.390 . S
C141 C148 1.506 . S
C142 C143 1.398 . S
C142 C146 1.392 . S
C143 C142 1.398 . S
C143 C145 1.372 . S
C143 H160 0.931 . S
C144 C141 1.382 . S
C144 C145 1.390 . S
C144 H161 0.931 . S
C145 C143 1.372 . S
C145 C144 1.390 . S
C145 H162 0.929 . S
C146 C141 1.390 . S
C146 C142 1.392 . S
C146 H163 0.930 . S
C147 O132 1.255 . S
C147 O133 1.257 . S
C148 Eu84 2.787 . S
C148 O128 1.252 . S
C148 O131 1.268 . S
C148 C141 1.506 . S
C149 C116 1.439 1_655 S
C149 H126 0.931 . S
C149 C150 1.377 . S
C150 C121 1.386 1_655 S
C150 H127 0.928 . S
C150 C149 1.377 . S
C151 O135 1.249 . S
C151 O136 1.264 . S
C152 C155 1.382 . S
C152 C156 1.390 . S
C152 C159 1.506 . S
C153 C154 1.398 . S
C153 C156 1.392 . S
C154 C153 1.398 . S
C154 C157 1.372 . S
C154 H164 0.931 . S
C155 C152 1.382 . S
C155 C157 1.390 . S
C155 H165 0.931 . S
C156 C152 1.390 . S
C156 C153 1.392 . S
C156 H166 0.930 . S
C157 C154 1.372 . S
C157 C155 1.390 . S
C157 H167 0.929 . S
C158 O138 1.255 . S
C158 O139 1.257 . S
C159 Eu95 2.787 1_655 S
C159 O134 1.252 . S
C159 O137 1.268 . S
C159 C152 1.506 . S
H160 C143 0.931 . S
H161 C144 0.931 . S
H162 C145 0.929 . S
H163 C146 0.930 . S
H164 C154 0.931 . S
H165 C155 0.931 . S
H166 C156 0.930 . S
H167 C157 0.929 . S
Eu168 N197 2.600 . S
Eu168 N203 2.562 . S
Eu168 O212 2.462 . S
Eu168 O213 2.373 . S
Eu168 O215 2.432 . S
Eu168 O216 2.291 . S
Eu168 O220 2.335 . S
Eu168 O223 2.372 . S
Eu168 C232 2.787 . S
C169 N170 1.365 . S
C169 C172 1.405 . S
C169 C176 1.448 . S
N170 C169 1.365 . S
N170 C173 1.319 . S
N170 Eu179 2.600 . S
C171 C173 1.397 . S
C171 C174 1.367 . S
C171 H191 0.931 . S
C172 C169 1.405 . S
C172 C174 1.403 . S
C172 C178 1.439 . S
C173 N170 1.319 . S
C173 C171 1.397 . S
C173 H184 0.930 . S
C174 C171 1.367 . S
C174 C172 1.403 . S
C174 H195 0.929 . S
C175 C176 1.430 . S
C175 C177 1.387 . S
C175 C181 1.404 . S
C176 C169 1.448 . S
C176 C175 1.430 . S
C176 N180 1.351 . S
C177 C175 1.387 . S
C177 C178 1.374 . S
C177 H192 0.931 . S
C178 C172 1.439 . S
C178 C177 1.374 . S
C178 H193 0.931 . S
Eu179 N170 2.600 . S
Eu179 N180 2.562 . S
Eu179 O214 2.335 . S
Eu179 O217 2.372 . S
Eu179 O218 2.462 . S
Eu179 O219 2.373 . S
Eu179 O221 2.432 . S
Eu179 O222 2.291 . S
Eu179 C243 2.787 . S
N180 C176 1.351 . S
N180 Eu179 2.562 . S
N180 C182 1.325 . S
C181 C175 1.404 . S
C181 C183 1.366 . S
C181 H189 0.930 . S
C182 N180 1.325 . S
C182 C183 1.416 . S
C182 H188 0.929 . S
C183 C181 1.366 . S
C183 C182 1.416 . S
C183 H185 0.930 . S
H184 C173 0.930 . S
H185 C183 0.930 . S
H186 C201 0.930 . S
H187 C208 0.930 . S
H188 C182 0.929 . S
H189 C181 0.930 . S
H190 C204 0.929 . S
H191 C171 0.931 . S
H192 C177 0.931 . S
H193 C178 0.931 . S
H194 C199 0.931 . S
H195 C174 0.929 . S
H196 C207 0.930 . S
N197 Eu168 2.600 . S
N197 C198 1.365 . S
N197 C201 1.319 . S
C198 N197 1.365 . S
C198 C200 1.405 . S
C198 C206 1.448 . S
C199 H194 0.931 . S
C199 C201 1.397 . S
C199 C202 1.367 . S
C200 C198 1.405 . S
C200 C202 1.403 . S
C200 C233 1.439 . S
C201 H186 0.930 . S
C201 N197 1.319 . S
C201 C199 1.397 . S
C202 C199 1.367 . S
C202 C200 1.403 . S
C202 H209 0.929 . S
N203 Eu168 2.562 . S
N203 C204 1.325 . S
N203 C206 1.351 . S
C204 H190 0.929 . S
C204 N203 1.325 . S
C204 C208 1.416 . S
C205 C206 1.430 . S
C205 C207 1.404 . S
C205 C234 1.387 . S
C206 C198 1.448 . S
C206 N203 1.351 . S
C206 C205 1.430 . S
C207 H196 0.930 . S
C207 C205 1.404 . S
C207 C208 1.366 . S
C208 H187 0.930 . S
C208 C204 1.416 . S
C208 C207 1.366 . S
H209 C202 0.929 . S
H210 C233 0.931 . S
H211 C234 0.931 . S
O212 Eu168 2.462 . S
O212 C232 1.252 . S
O213 Eu168 2.373 . S
O213 C224 1.249 . S
O214 Eu179 2.335 . S
O214 C224 1.264 . S
O215 Eu168 2.432 . S
O215 C232 1.268 . S
O216 Eu168 2.291 . S
O216 C231 1.255 . S
O217 Eu179 2.372 . S
O217 C231 1.257 . S
O218 Eu179 2.462 . S
O218 C243 1.252 . S
O219 Eu179 2.373 . S
O219 C235 1.249 . S
O220 Eu168 2.335 . S
O220 C235 1.264 . S
O221 Eu179 2.432 . S
O221 C243 1.268 . S
O222 Eu179 2.291 . S
O222 C242 1.255 . S
O223 Eu168 2.372 . S
O223 C242 1.257 . S
C224 O213 1.249 . S
C224 O214 1.264 . S
C225 C228 1.382 . S
C225 C230 1.390 . S
C225 C232 1.506 . S
C226 C227 1.398 . S
C226 C230 1.392 . S
C227 C226 1.398 . S
C227 C229 1.372 . S
C227 H244 0.931 . S
C228 C225 1.382 . S
C228 C229 1.390 . S
C228 H245 0.931 . S
C229 C227 1.372 . S
C229 C228 1.390 . S
C229 H246 0.929 . S
C230 C225 1.390 . S
C230 C226 1.392 . S
C230 H247 0.930 . S
C231 O216 1.255 . S
C231 O217 1.257 . S
C232 Eu168 2.787 . S
C232 O212 1.252 . S
C232 O215 1.268 . S
C232 C225 1.506 . S
C233 C200 1.439 . S
C233 H210 0.931 . S
C233 C234 1.374 . S
C234 C205 1.387 . S
C234 H211 0.931 . S
C234 C233 1.374 . S
C235 O219 1.249 . S
C235 O220 1.264 . S
C236 C239 1.382 . S
C236 C240 1.390 . S
C236 C243 1.506 . S
C237 C238 1.398 . S
C237 C240 1.392 . S
C238 C237 1.398 . S
C238 C241 1.372 . S
C238 H248 0.931 . S
C239 C236 1.382 . S
C239 C241 1.390 . S
C239 H249 0.931 . S
C240 C236 1.390 . S
C240 C237 1.392 . S
C240 H250 0.930 . S
C241 C238 1.372 . S
C241 C239 1.390 . S
C241 H251 0.929 . S
C242 O222 1.255 . S
C242 O223 1.257 . S
C243 Eu179 2.787 . S
C243 O218 1.252 . S
C243 O221 1.268 . S
C243 C236 1.506 . S
H244 C227 0.931 . S
H245 C228 0.931 . S
H246 C229 0.929 . S
H247 C230 0.930 . S
H248 C238 0.931 . S
H249 C239 0.931 . S
H250 C240 0.930 . S
H251 C241 0.929 . S
Eu252 N281 2.600 . S
Eu252 N287 2.562 . S
Eu252 O296 2.462 . S
Eu252 O297 2.373 1_655 S
Eu252 O299 2.432 . S
Eu252 O300 2.291 . S
Eu252 O304 2.335 . S
Eu252 O307 2.372 . S
Eu252 C316 2.787 . S
C253 N254 1.365 . S
C253 C256 1.405 1_455 S
C253 C260 1.448 . S
N254 C253 1.365 . S
N254 C257 1.319 . S
N254 Eu263 2.600 . S
C255 C257 1.399 1_655 S
C255 C258 1.364 . S
C255 H275 0.935 . S
C256 C253 1.405 1_655 S
C256 C258 1.403 . S
C256 C262 1.439 . S
C257 N254 1.319 . S
C257 C255 1.399 1_455 S
C257 H268 0.930 . S
C258 C255 1.364 . S
C258 C256 1.403 . S
C258 H279 0.929 . S
C259 C260 1.430 1_655 S
C259 C261 1.387 . S
C259 C265 1.404 . S
C260 C253 1.448 . S
C260 C259 1.430 1_455 S
C260 N264 1.351 . S
C261 C259 1.387 . S
C261 C262 1.374 . S
C261 H276 0.931 . S
C262 C256 1.439 . S
C262 C261 1.374 . S
C262 H277 0.931 . S
Eu263 N254 2.600 . S
Eu263 N264 2.562 . S
Eu263 O298 2.335 . S
Eu263 O301 2.372 . S
Eu263 O302 2.462 . S
Eu263 O303 2.373 1_455 S
Eu263 O305 2.432 . S
Eu263 O306 2.291 . S
Eu263 C327 2.787 . S
N264 C260 1.351 . S
N264 Eu263 2.562 . S
N264 C266 1.325 . S
C265 C259 1.404 . S
C265 C267 1.366 1_655 S
C265 H273 0.930 . S
C266 N264 1.325 . S
C266 C267 1.416 . S
C266 H272 0.929 . S
C267 C265 1.366 1_455 S
C267 C266 1.416 . S
C267 H269 0.930 . S
H268 C257 0.930 . S
H269 C267 0.930 . S
H270 C285 0.930 . S
H271 C292 0.930 . S
H272 C266 0.929 . S
H273 C265 0.930 . S
H274 C288 0.929 . S
H275 C255 0.935 . S
H276 C261 0.931 . S
H277 C262 0.931 . S
H278 C283 0.931 . S
H279 C258 0.929 . S
H280 C291 0.930 . S
N281 Eu252 2.600 . S
N281 C282 1.365 1_655 S
N281 C285 1.319 . S
C282 N281 1.365 1_455 S
C282 C284 1.405 . S
C282 C290 1.448 . S
C283 H278 0.931 . S
C283 C285 1.397 1_455 S
C283 C286 1.367 . S
C284 C282 1.405 . S
C284 C286 1.403 . S
C284 C317 1.439 . S
C285 H270 0.930 . S
C285 N281 1.319 . S
C285 C283 1.397 1_655 S
C286 C283 1.367 . S
C286 C284 1.403 . S
C286 H293 0.929 . S
N287 Eu252 2.562 . S
N287 C288 1.325 . S
N287 C290 1.351 1_655 S
C288 H274 0.929 . S
C288 N287 1.325 . S
C288 C292 1.416 1_655 S
C289 C290 1.430 . S
C289 C291 1.404 . S
C289 C318 1.387 . S
C290 C282 1.448 . S
C290 N287 1.351 1_455 S
C290 C289 1.430 . S
C291 H280 0.930 . S
C291 C289 1.404 . S
C291 C292 1.366 . S
C292 H271 0.930 . S
C292 C288 1.416 1_455 S
C292 C291 1.366 . S
H293 C286 0.929 . S
H294 C317 0.931 . S
H295 C318 0.931 . S
O296 Eu252 2.462 . S
O296 C316 1.252 . S
O297 Eu252 2.373 1_455 S
O297 C308 1.249 . S
O298 Eu263 2.335 . S
O298 C308 1.264 . S
O299 Eu252 2.432 . S
O299 C316 1.268 . S
O300 Eu252 2.291 . S
O300 C315 1.255 . S
O301 Eu263 2.372 . S
O301 C315 1.257 1_455 S
O302 Eu263 2.462 . S
O302 C327 1.252 . S
O303 Eu263 2.373 1_655 S
O303 C319 1.249 . S
O304 Eu252 2.335 . S
O304 C319 1.264 . S
O305 Eu263 2.432 . S
O305 C327 1.268 . S
O306 Eu263 2.291 . S
O306 C326 1.255 . S
O307 Eu252 2.372 . S
O307 C326 1.257 1_655 S
C308 O297 1.249 . S
C308 O298 1.264 . S
C309 C312 1.382 . S
C309 C314 1.390 . S
C309 C316 1.506 . S
C310 C311 1.398 . S
C310 C314 1.392 . S
C311 C310 1.398 . S
C311 C313 1.372 . S
C311 H328 0.931 . S
C312 C309 1.382 . S
C312 C313 1.390 . S
C312 H329 0.931 . S
C313 C311 1.372 . S
C313 C312 1.390 . S
C313 H330 0.929 . S
C314 C309 1.390 . S
C314 C310 1.392 . S
C314 H331 0.930 . S
C315 O300 1.255 . S
C315 O301 1.257 1_655 S
C316 Eu252 2.787 . S
C316 O296 1.252 . S
C316 O299 1.268 . S
C316 C309 1.506 . S
C317 C284 1.439 . S
C317 H294 0.931 . S
C317 C318 1.374 . S
C318 C289 1.387 . S
C318 H295 0.931 . S
C318 C317 1.374 . S
C319 O303 1.249 . S
C319 O304 1.264 . S
C320 C323 1.382 . S
C320 C324 1.390 . S
C320 C327 1.506 . S
C321 C322 1.398 . S
C321 C324 1.392 . S
C322 C321 1.398 . S
C322 C325 1.372 . S
C322 H332 0.931 . S
C323 C320 1.382 . S
C323 C325 1.390 . S
C323 H333 0.931 . S
C324 C320 1.390 . S
C324 C321 1.392 . S
C324 H334 0.930 . S
C325 C322 1.372 . S
C325 C323 1.390 . S
C325 H335 0.929 . S
C326 O306 1.255 . S
C326 O307 1.257 1_455 S
C327 Eu263 2.787 . S
C327 O302 1.252 . S
C327 O305 1.268 . S
C327 C320 1.506 . S
H328 C311 0.931 . S
H329 C312 0.931 . S
H330 C313 0.929 . S
H331 C314 0.930 . S
H332 C322 0.931 . S
H333 C323 0.931 . S
H334 C324 0.930 . S
H335 C325 0.929 . S
Eu336 N365 2.600 . S
Eu336 N371 2.562 . S
Eu336 O380 2.462 . S
Eu336 O381 2.373 . S
Eu336 O383 2.432 . S
Eu336 O384 2.291 . S
Eu336 O388 2.335 . S
Eu336 O391 2.372 . S
Eu336 C400 2.787 . S
C337 N338 1.365 . S
C337 C340 1.405 . S
C337 C344 1.448 . S
N338 C337 1.365 . S
N338 C341 1.319 . S
N338 Eu347 2.600 . S
C339 C341 1.397 . S
C339 C342 1.367 . S
C339 H359 0.931 . S
C340 C337 1.405 . S
C340 C342 1.403 . S
C340 C346 1.439 . S
C341 N338 1.319 . S
C341 C339 1.397 . S
C341 H352 0.930 . S
C342 C339 1.367 . S
C342 C340 1.403 . S
C342 H363 0.929 . S
C343 C344 1.430 . S
C343 C345 1.387 . S
C343 C349 1.404 . S
C344 C337 1.448 . S
C344 C343 1.430 . S
C344 N348 1.351 . S
C345 C343 1.387 . S
C345 C346 1.374 . S
C345 H360 0.931 . S
C346 C340 1.439 . S
C346 C345 1.374 . S
C346 H361 0.931 . S
Eu347 N338 2.600 . S
Eu347 N348 2.562 . S
Eu347 O382 2.335 . S
Eu347 O385 2.372 . S
Eu347 O386 2.462 . S
Eu347 O387 2.373 . S
Eu347 O389 2.432 . S
Eu347 O390 2.291 . S
Eu347 C411 2.787 . S
N348 C344 1.351 . S
N348 Eu347 2.562 . S
N348 C350 1.325 . S
C349 C343 1.404 . S
C349 C351 1.366 . S
C349 H357 0.930 . S
C350 N348 1.325 . S
C350 C351 1.416 . S
C350 H356 0.929 . S
C351 C349 1.366 . S
C351 C350 1.416 . S
C351 H353 0.930 . S
H352 C341 0.930 . S
H353 C351 0.930 . S
H354 C369 0.930 . S
H355 C376 0.930 . S
H356 C350 0.929 . S
H357 C349 0.930 . S
H358 C372 0.929 . S
H359 C339 0.931 . S
H360 C345 0.931 . S
H361 C346 0.931 . S
H362 C367 0.931 . S
H363 C342 0.929 . S
H364 C375 0.930 . S
N365 Eu336 2.600 . S
N365 C366 1.365 . S
N365 C369 1.319 . S
C366 N365 1.365 . S
C366 C368 1.405 . S
C366 C374 1.448 . S
C367 H362 0.931 . S
C367 C369 1.397 . S
C367 C370 1.367 . S
C368 C366 1.405 . S
C368 C370 1.403 . S
C368 C401 1.439 . S
C369 H354 0.930 . S
C369 N365 1.319 . S
C369 C367 1.397 . S
C370 C367 1.367 . S
C370 C368 1.403 . S
C370 H377 0.929 . S
N371 Eu336 2.562 . S
N371 C372 1.325 . S
N371 C374 1.351 . S
C372 H358 0.929 . S
C372 N371 1.325 . S
C372 C376 1.416 . S
C373 C374 1.430 . S
C373 C375 1.404 . S
C373 C402 1.387 . S
C374 C366 1.448 . S
C374 N371 1.351 . S
C374 C373 1.430 . S
C375 H364 0.930 . S
C375 C373 1.404 . S
C375 C376 1.366 . S
C376 H355 0.930 . S
C376 C372 1.416 . S
C376 C375 1.366 . S
H377 C370 0.929 . S
H378 C401 0.931 . S
H379 C402 0.931 . S
O380 Eu336 2.462 . S
O380 C400 1.252 . S
O381 Eu336 2.373 . S
O381 C392 1.249 . S
O382 Eu347 2.335 . S
O382 C392 1.264 . S
O383 Eu336 2.432 . S
O383 C400 1.268 . S
O384 Eu336 2.291 . S
O384 C399 1.255 . S
O385 Eu347 2.372 . S
O385 C399 1.257 . S
O386 Eu347 2.462 . S
O386 C411 1.252 . S
O387 Eu347 2.373 . S
O387 C403 1.249 . S
O388 Eu336 2.335 . S
O388 C403 1.264 . S
O389 Eu347 2.432 . S
O389 C411 1.268 . S
O390 Eu347 2.291 . S
O390 C410 1.255 . S
O391 Eu336 2.372 . S
O391 C410 1.257 . S
C392 O381 1.249 . S
C392 O382 1.264 . S
C393 C396 1.382 . S
C393 C398 1.390 . S
C393 C400 1.506 . S
C394 C395 1.398 . S
C394 C398 1.392 . S
C395 C394 1.398 . S
C395 C397 1.372 . S
C395 H412 0.931 . S
C396 C393 1.382 . S
C396 C397 1.390 . S
C396 H413 0.931 . S
C397 C395 1.372 . S
C397 C396 1.390 . S
C397 H414 0.929 . S
C398 C393 1.390 . S
C398 C394 1.392 . S
C398 H415 0.930 . S
C399 O384 1.255 . S
C399 O385 1.257 . S
C400 Eu336 2.787 . S
C400 O380 1.252 . S
C400 O383 1.268 . S
C400 C393 1.506 . S
C401 C368 1.439 . S
C401 H378 0.931 . S
C401 C402 1.374 . S
C402 C373 1.387 . S
C402 H379 0.931 . S
C402 C401 1.374 . S
C403 O387 1.249 . S
C403 O388 1.264 . S
C404 C407 1.382 . S
C404 C408 1.390 . S
C404 C411 1.506 . S
C405 C406 1.398 . S
C405 C408 1.392 . S
C406 C405 1.398 . S
C406 C409 1.372 . S
C406 H416 0.931 . S
C407 C404 1.382 . S
C407 C409 1.390 . S
C407 H417 0.931 . S
C408 C404 1.390 . S
C408 C405 1.392 . S
C408 H418 0.930 . S
C409 C406 1.372 . S
C409 C407 1.390 . S
C409 H419 0.929 . S
C410 O390 1.255 . S
C410 O391 1.257 . S
C411 Eu347 2.787 . S
C411 O386 1.252 . S
C411 O389 1.268 . S
C411 C404 1.506 . S
H412 C395 0.931 . S
H413 C396 0.931 . S
H414 C397 0.929 . S
H415 C398 0.930 . S
H416 C406 0.931 . S
H417 C407 0.931 . S
H418 C408 0.930 . S
H419 C409 0.929 . S
Eu420 N449 2.600 . S
Eu420 N455 2.562 . S
Eu420 O464 2.462 . S
Eu420 O465 2.373 1_545 S
Eu420 O467 2.432 . S
Eu420 O468 2.291 . S
Eu420 O472 2.335 . S
Eu420 O475 2.372 . S
Eu420 C484 2.787 . S
C421 N422 1.365 . S
C421 C424 1.405 . S
C421 C428 1.448 . S
N422 C421 1.365 . S
N422 C425 1.319 . S
N422 Eu431 2.600 . S
C423 C425 1.397 . S
C423 C426 1.367 . S
C423 H443 0.931 . S
C424 C421 1.405 . S
C424 C426 1.403 . S
C424 C430 1.439 . S
C425 N422 1.319 . S
C425 C423 1.397 . S
C425 H436 0.930 . S
C426 C423 1.367 . S
C426 C424 1.403 . S
C426 H447 0.929 . S
C427 C428 1.430 . S
C427 C429 1.387 . S
C427 C433 1.404 . S
C428 C421 1.448 . S
C428 C427 1.430 . S
C428 N432 1.351 . S
C429 C427 1.387 . S
C429 C430 1.374 . S
C429 H444 0.931 . S
C430 C424 1.439 . S
C430 C429 1.374 . S
C430 H445 0.931 . S
Eu431 N422 2.600 . S
Eu431 N432 2.562 . S
Eu431 O466 2.335 1_545 S
Eu431 O469 2.372 . S
Eu431 O470 2.462 1_545 S
Eu431 O471 2.373 . S
Eu431 O473 2.432 1_545 S
Eu431 O474 2.291 . S
Eu431 C495 2.787 1_545 S
N432 C428 1.351 . S
N432 Eu431 2.562 . S
N432 C434 1.325 . S
C433 C427 1.404 . S
C433 C435 1.366 . S
C433 H441 0.930 . S
C434 N432 1.325 . S
C434 C435 1.416 . S
C434 H440 0.929 . S
C435 C433 1.366 . S
C435 C434 1.416 . S
C435 H437 0.930 . S
H436 C425 0.930 . S
H437 C435 0.930 . S
H438 C453 0.930 . S
H439 C460 0.930 . S
H440 C434 0.929 . S
H441 C433 0.930 . S
H442 C456 0.929 . S
H443 C423 0.931 . S
H444 C429 0.931 . S
H445 C430 0.931 . S
H446 C451 0.931 . S
H447 C426 0.929 . S
H448 C459 0.930 . S
N449 Eu420 2.600 . S
N449 C450 1.365 . S
N449 C453 1.319 . S
C450 N449 1.365 . S
C450 C452 1.405 . S
C450 C458 1.448 . S
C451 H446 0.931 . S
C451 C453 1.397 . S
C451 C454 1.367 . S
C452 C450 1.405 . S
C452 C454 1.403 . S
C452 C485 1.439 1_545 S
C453 H438 0.930 . S
C453 N449 1.319 . S
C453 C451 1.397 . S
C454 C451 1.367 . S
C454 C452 1.403 . S
C454 H461 0.929 . S
N455 Eu420 2.562 . S
N455 C456 1.325 . S
N455 C458 1.351 . S
C456 H442 0.929 . S
C456 N455 1.325 . S
C456 C460 1.416 . S
C457 C458 1.430 . S
C457 C459 1.404 . S
C457 C486 1.386 1_545 S
C458 C450 1.448 . S
C458 N455 1.351 . S
C458 C457 1.430 . S
C459 H448 0.930 . S
C459 C457 1.404 . S
C459 C460 1.366 . S
C460 H439 0.930 . S
C460 C456 1.416 . S
C460 C459 1.366 . S
H461 C454 0.929 . S
H462 C485 0.931 . S
H463 C486 0.928 . S
O464 Eu420 2.462 . S
O464 C484 1.252 . S
O465 Eu420 2.373 1_565 S
O465 C476 1.249 . S
O466 Eu431 2.335 1_565 S
O466 C476 1.264 . S
O467 Eu420 2.432 . S
O467 C484 1.268 . S
O468 Eu420 2.291 . S
O468 C483 1.255 . S
O469 Eu431 2.372 . S
O469 C483 1.257 . S
O470 Eu431 2.462 1_565 S
O470 C495 1.252 . S
O471 Eu431 2.373 . S
O471 C487 1.249 . S
O472 Eu420 2.335 . S
O472 C487 1.264 . S
O473 Eu431 2.432 1_565 S
O473 C495 1.268 . S
O474 Eu431 2.291 . S
O474 C494 1.255 . S
O475 Eu420 2.372 . S
O475 C494 1.257 . S
C476 O465 1.249 . S
C476 O466 1.264 . S
C477 C480 1.382 . S
C477 C482 1.390 . S
C477 C484 1.506 . S
C478 C479 1.398 . S
C478 C482 1.392 . S
C479 C478 1.398 . S
C479 C481 1.372 . S
C479 H496 0.931 . S
C480 C477 1.382 . S
C480 C481 1.390 . S
C480 H497 0.931 . S
C481 C479 1.372 . S
C481 C480 1.390 . S
C481 H498 0.929 . S
C482 C477 1.390 . S
C482 C478 1.392 . S
C482 H499 0.930 . S
C483 O468 1.255 . S
C483 O469 1.257 . S
C484 Eu420 2.787 . S
C484 O464 1.252 . S
C484 O467 1.268 . S
C484 C477 1.506 . S
C485 C452 1.439 1_565 S
C485 H462 0.931 . S
C485 C486 1.377 . S
C486 C457 1.386 1_565 S
C486 H463 0.928 . S
C486 C485 1.377 . S
C487 O471 1.249 . S
C487 O472 1.264 . S
C488 C491 1.382 . S
C488 C492 1.390 . S
C488 C495 1.506 . S
C489 C490 1.398 . S
C489 C492 1.392 . S
C490 C489 1.398 . S
C490 C493 1.372 . S
C490 H500 0.931 . S
C491 C488 1.382 . S
C491 C493 1.390 . S
C491 H501 0.931 . S
C492 C488 1.390 . S
C492 C489 1.392 . S
C492 H502 0.930 . S
C493 C490 1.372 . S
C493 C491 1.390 . S
C493 H503 0.929 . S
C494 O474 1.255 . S
C494 O475 1.257 . S
C495 Eu431 2.787 1_565 S
C495 O470 1.252 . S
C495 O473 1.268 . S
C495 C488 1.506 . S
H496 C479 0.931 . S
H497 C480 0.931 . S
H498 C481 0.929 . S
H499 C482 0.930 . S
H500 C490 0.931 . S
H501 C491 0.931 . S
H502 C492 0.930 . S
H503 C493 0.929 . S
Eu504 N533 2.600 . S
Eu504 N539 2.562 . S
Eu504 O548 2.462 . S
Eu504 O549 2.373 . S
Eu504 O551 2.432 . S
Eu504 O552 2.291 . S
Eu504 O556 2.335 . S
Eu504 O559 2.372 . S
Eu504 C568 2.787 . S
C505 N506 1.365 . S
C505 C508 1.405 . S
C505 C512 1.448 . S
N506 C505 1.365 . S
N506 C509 1.319 . S
N506 Eu515 2.600 . S
C507 C509 1.397 . S
C507 C510 1.367 . S
C507 H527 0.931 . S
C508 C505 1.405 . S
C508 C510 1.403 . S
C508 C514 1.439 . S
C509 N506 1.319 . S
C509 C507 1.397 . S
C509 H520 0.930 . S
C510 C507 1.367 . S
C510 C508 1.403 . S
C510 H531 0.929 . S
C511 C512 1.430 . S
C511 C513 1.387 . S
C511 C517 1.404 . S
C512 C505 1.448 . S
C512 C511 1.430 . S
C512 N516 1.351 . S
C513 C511 1.387 . S
C513 C514 1.374 . S
C513 H528 0.931 . S
C514 C508 1.439 . S
C514 C513 1.374 . S
C514 H529 0.931 . S
Eu515 N506 2.600 . S
Eu515 N516 2.562 . S
Eu515 O550 2.335 . S
Eu515 O553 2.372 . S
Eu515 O554 2.462 . S
Eu515 O555 2.373 . S
Eu515 O557 2.432 . S
Eu515 O558 2.291 . S
Eu515 C579 2.787 . S
N516 C512 1.351 . S
N516 Eu515 2.562 . S
N516 C518 1.325 . S
C517 C511 1.404 . S
C517 C519 1.366 . S
C517 H525 0.930 . S
C518 N516 1.325 . S
C518 C519 1.416 . S
C518 H524 0.929 . S
C519 C517 1.366 . S
C519 C518 1.416 . S
C519 H521 0.930 . S
H520 C509 0.930 . S
H521 C519 0.930 . S
H522 C537 0.930 . S
H523 C544 0.930 . S
H524 C518 0.929 . S
H525 C517 0.930 . S
H526 C540 0.929 . S
H527 C507 0.931 . S
H528 C513 0.931 . S
H529 C514 0.931 . S
H530 C535 0.931 . S
H531 C510 0.929 . S
H532 C543 0.930 1_655 S
N533 Eu504 2.600 . S
N533 C534 1.365 . S
N533 C537 1.319 . S
C534 N533 1.365 . S
C534 C536 1.405 . S
C534 C542 1.448 . S
C535 H530 0.931 . S
C535 C537 1.397 . S
C535 C538 1.367 . S
C536 C534 1.405 . S
C536 C538 1.403 . S
C536 C569 1.439 . S
C537 H522 0.930 . S
C537 N533 1.319 . S
C537 C535 1.397 . S
C538 C535 1.367 . S
C538 C536 1.403 . S
C538 H545 0.929 . S
N539 Eu504 2.562 . S
N539 C540 1.325 . S
N539 C542 1.351 . S
C540 H526 0.929 . S
C540 N539 1.325 . S
C540 C544 1.416 . S
C541 C542 1.430 . S
C541 C543 1.404 . S
C541 C570 1.387 . S
C542 C534 1.448 . S
C542 N539 1.351 . S
C542 C541 1.430 . S
C543 H532 0.930 1_455 S
C543 C541 1.404 . S
C543 C544 1.366 . S
C544 H523 0.930 . S
C544 C540 1.416 . S
C544 C543 1.366 . S
H545 C538 0.929 . S
H546 C569 0.931 . S
H547 C570 0.931 1_655 S
O548 Eu504 2.462 . S
O548 C568 1.252 . S
O549 Eu504 2.373 . S
O549 C560 1.249 . S
O550 Eu515 2.335 . S
O550 C560 1.264 . S
O551 Eu504 2.432 . S
O551 C568 1.268 . S
O552 Eu504 2.291 . S
O552 C567 1.255 . S
O553 Eu515 2.372 . S
O553 C567 1.257 . S
O554 Eu515 2.462 . S
O554 C579 1.252 . S
O555 Eu515 2.373 . S
O555 C571 1.249 . S
O556 Eu504 2.335 . S
O556 C571 1.264 . S
O557 Eu515 2.432 . S
O557 C579 1.268 . S
O558 Eu515 2.291 . S
O558 C578 1.255 . S
O559 Eu504 2.372 . S
O559 C578 1.257 . S
C560 O549 1.249 . S
C560 O550 1.264 . S
C561 C564 1.382 . S
C561 C566 1.390 1_455 S
C561 C568 1.506 . S
C562 C563 1.398 . S
C562 C566 1.392 . S
C563 C562 1.398 . S
C563 C565 1.372 . S
C563 H580 0.931 . S
C564 C561 1.382 . S
C564 C565 1.390 1_455 S
C564 H581 0.931 . S
C565 C563 1.372 . S
C565 C564 1.390 1_655 S
C565 H582 0.929 . S
C566 C561 1.390 1_655 S
C566 C562 1.392 . S
C566 H583 0.930 1_655 S
C567 O552 1.255 . S
C567 O553 1.257 . S
C568 Eu504 2.787 . S
C568 O548 1.252 . S
C568 O551 1.268 . S
C568 C561 1.506 . S
C569 C536 1.439 . S
C569 H546 0.931 . S
C569 C570 1.374 . S
C570 C541 1.387 . S
C570 H547 0.931 1_455 S
C570 C569 1.374 . S
C571 O555 1.249 . S
C571 O556 1.264 . S
C572 C575 1.382 . S
C572 C576 1.390 . S
C572 C579 1.506 . S
C573 C574 1.398 . S
C573 C576 1.392 . S
C574 C573 1.398 . S
C574 C577 1.372 . S
C574 H584 0.931 . S
C575 C572 1.382 . S
C575 C577 1.390 . S
C575 H585 0.931 . S
C576 C572 1.390 . S
C576 C573 1.392 . S
C576 H586 0.930 . S
C577 C574 1.372 . S
C577 C575 1.390 . S
C577 H587 0.929 . S
C578 O558 1.255 . S
C578 O559 1.257 . S
C579 Eu515 2.787 . S
C579 O554 1.252 . S
C579 O557 1.268 . S
C579 C572 1.506 . S
H580 C563 0.931 . S
H581 C564 0.931 . S
H582 C565 0.929 . S
H583 C566 0.930 1_455 S
H584 C574 0.931 . S
H585 C575 0.931 . S
H586 C576 0.930 . S
H587 C577 0.929 . S
Eu588 N617 2.600 . S
Eu588 N623 2.562 . S
Eu588 O632 2.462 . S
Eu588 O633 2.373 . S
Eu588 O635 2.432 . S
Eu588 O636 2.291 . S
Eu588 O640 2.335 . S
Eu588 O643 2.372 . S
Eu588 C652 2.787 . S
C589 N590 1.365 . S
C589 C592 1.405 . S
C589 C596 1.448 . S
N590 C589 1.365 . S
N590 C593 1.319 . S
N590 Eu599 2.600 . S
C591 C593 1.397 . S
C591 C594 1.367 . S
C591 H611 0.931 . S
C592 C589 1.405 . S
C592 C594 1.403 . S
C592 C598 1.439 1_565 S
C593 N590 1.319 . S
C593 C591 1.397 . S
C593 H604 0.930 . S
C594 C591 1.367 . S
C594 C592 1.403 . S
C594 H615 0.929 . S
C595 C596 1.430 1_545 S
C595 C597 1.387 . S
C595 C601 1.404 . S
C596 C589 1.448 . S
C596 C595 1.430 1_565 S
C596 N600 1.351 . S
C597 C595 1.387 . S
C597 C598 1.374 . S
C597 H612 0.931 . S
C598 C592 1.439 1_545 S
C598 C597 1.374 . S
C598 H613 0.931 . S
Eu599 N590 2.600 . S
Eu599 N600 2.562 . S
Eu599 O634 2.335 . S
Eu599 O637 2.372 . S
Eu599 O638 2.462 . S
Eu599 O639 2.373 . S
Eu599 O641 2.432 . S
Eu599 O642 2.291 . S
Eu599 C663 2.787 . S
N600 C596 1.351 . S
N600 Eu599 2.562 . S
N600 C602 1.325 . S
C601 C595 1.404 . S
C601 C603 1.366 1_545 S
C601 H609 0.930 . S
C602 N600 1.325 . S
C602 C603 1.416 . S
C602 H608 0.929 . S
C603 C601 1.366 1_565 S
C603 C602 1.416 . S
C603 H605 0.940 . S
H604 C593 0.930 . S
H605 C603 0.940 . S
H606 C621 0.930 . S
H607 C628 0.930 . S
H608 C602 0.929 . S
H609 C601 0.930 . S
H610 C624 0.929 . S
H611 C591 0.931 . S
H612 C597 0.931 . S
H613 C598 0.931 . S
H614 C619 0.931 . S
H615 C594 0.929 . S
H616 C627 0.930 . S
N617 Eu588 2.600 . S
N617 C618 1.365 . S
N617 C621 1.319 . S
C618 N617 1.365 . S
C618 C620 1.405 . S
C618 C626 1.448 . S
C619 H614 0.931 . S
C619 C621 1.397 . S
C619 C622 1.367 . S
C620 C618 1.405 . S
C620 C622 1.403 . S
C620 C653 1.439 . S
C621 H606 0.930 . S
C621 N617 1.319 . S
C621 C619 1.397 . S
C622 C619 1.367 . S
C622 C620 1.403 . S
C622 H629 0.929 . S
N623 Eu588 2.562 . S
N623 C624 1.325 . S
N623 C626 1.351 . S
C624 H610 0.929 . S
C624 N623 1.325 . S
C624 C628 1.416 . S
C625 C626 1.430 . S
C625 C627 1.404 . S
C625 C654 1.387 . S
C626 C618 1.448 . S
C626 N623 1.351 . S
C626 C625 1.430 . S
C627 H616 0.930 . S
C627 C625 1.404 . S
C627 C628 1.366 . S
C628 H607 0.930 . S
C628 C624 1.416 . S
C628 C627 1.366 . S
H629 C622 0.929 . S
H630 C653 0.931 . S
H631 C654 0.931 . S
O632 Eu588 2.462 . S
O632 C652 1.252 . S
O633 Eu588 2.373 . S
O633 C644 1.249 . S
O634 Eu599 2.335 . S
O634 C644 1.264 . S
O635 Eu588 2.432 . S
O635 C652 1.268 . S
O636 Eu588 2.291 . S
O636 C651 1.255 . S
O637 Eu599 2.372 . S
O637 C651 1.257 . S
O638 Eu599 2.462 . S
O638 C663 1.252 . S
O639 Eu599 2.373 . S
O639 C655 1.249 . S
O640 Eu588 2.335 . S
O640 C655 1.264 . S
O641 Eu599 2.432 . S
O641 C663 1.268 . S
O642 Eu599 2.291 . S
O642 C662 1.255 . S
O643 Eu588 2.372 . S
O643 C662 1.257 . S
C644 O633 1.249 . S
C644 O634 1.264 . S
C645 C648 1.382 . S
C645 C650 1.390 . S
C645 C652 1.506 . S
C646 C647 1.398 . S
C646 C650 1.392 . S
C647 C646 1.398 . S
C647 C649 1.372 . S
C647 H664 0.931 . S
C648 C645 1.382 . S
C648 C649 1.390 . S
C648 H665 0.931 . S
C649 C647 1.372 . S
C649 C648 1.390 . S
C649 H666 0.929 . S
C650 C645 1.390 . S
C650 C646 1.392 . S
C650 H667 0.930 . S
C651 O636 1.255 . S
C651 O637 1.257 . S
C652 Eu588 2.787 . S
C652 O632 1.252 . S
C652 O635 1.268 . S
C652 C645 1.506 . S
C653 C620 1.439 . S
C653 H630 0.931 . S
C653 C654 1.374 . S
C654 C625 1.387 . S
C654 H631 0.931 . S
C654 C653 1.374 . S
C655 O639 1.249 . S
C655 O640 1.264 . S
C656 C659 1.382 . S
C656 C660 1.390 . S
C656 C663 1.506 . S
C657 C658 1.398 . S
C657 C660 1.392 . S
C658 C657 1.398 . S
C658 C661 1.372 . S
C658 H668 0.931 . S
C659 C656 1.382 . S
C659 C661 1.390 . S
C659 H669 0.931 . S
C660 C656 1.390 . S
C660 C657 1.392 . S
C660 H670 0.930 . S
C661 C658 1.372 . S
C661 C659 1.390 . S
C661 H671 0.929 . S
C662 O642 1.255 . S
C662 O643 1.257 . S
C663 Eu599 2.787 . S
C663 O638 1.252 . S
C663 O641 1.268 . S
C663 C656 1.506 . S
H664 C647 0.931 . S
H665 C648 0.931 . S
H666 C649 0.929 . S
H667 C650 0.930 . S
H668 C658 0.931 . S
H669 C659 0.931 . S
H670 C660 0.930 . S
H671 C661 0.929 . S
Eu672 N701 2.600 . S
Eu672 N707 2.562 . S
Eu672 O716 2.462 . S
Eu672 O717 2.373 . S
Eu672 O719 2.432 . S
Eu672 O720 2.291 . S
Eu672 O724 2.335 . S
Eu672 O727 2.372 . S
Eu672 C736 2.787 . S
C673 N674 1.365 . S
C673 C676 1.405 . S
C673 C680 1.448 . S
N674 C673 1.365 . S
N674 C677 1.319 . S
N674 Eu683 2.600 . S
C675 C677 1.397 . S
C675 C678 1.367 . S
C675 H695 0.931 . S
C676 C673 1.405 . S
C676 C678 1.403 . S
C676 C682 1.439 . S
C677 N674 1.319 . S
C677 C675 1.397 . S
C677 H688 0.930 . S
C678 C675 1.367 . S
C678 C676 1.403 . S
C678 H699 0.929 . S
C679 C680 1.430 . S
C679 C681 1.387 . S
C679 C685 1.404 . S
C680 C673 1.448 . S
C680 C679 1.430 . S
C680 N684 1.351 . S
C681 C679 1.387 . S
C681 C682 1.374 . S
C681 H696 0.931 1_455 S
C682 C676 1.439 . S
C682 C681 1.374 . S
C682 H697 0.931 1_455 S
Eu683 N674 2.600 . S
Eu683 N684 2.562 . S
Eu683 O718 2.335 . S
Eu683 O721 2.372 . S
Eu683 O722 2.462 . S
Eu683 O723 2.373 . S
Eu683 O725 2.432 . S
Eu683 O726 2.291 . S
Eu683 C747 2.787 . S
N684 C680 1.351 . S
N684 Eu683 2.562 . S
N684 C686 1.325 . S
C685 C679 1.404 . S
C685 C687 1.366 . S
C685 H693 0.930 1_455 S
C686 N684 1.325 . S
C686 C687 1.416 . S
C686 H692 0.929 . S
C687 C685 1.366 . S
C687 C686 1.416 . S
C687 H689 0.930 . S
H688 C677 0.930 . S
H689 C687 0.930 . S
H690 C705 0.930 . S
H691 C712 0.930 . S
H692 C686 0.929 . S
H693 C685 0.930 1_655 S
H694 C708 0.929 . S
H695 C675 0.931 . S
H696 C681 0.931 1_655 S
H697 C682 0.931 1_655 S
H698 C703 0.931 . S
H699 C678 0.929 . S
H700 C711 0.930 . S
N701 Eu672 2.600 . S
N701 C702 1.365 . S
N701 C705 1.319 . S
C702 N701 1.365 . S
C702 C704 1.405 . S
C702 C710 1.448 . S
C703 H698 0.931 . S
C703 C705 1.397 . S
C703 C706 1.367 . S
C704 C702 1.405 . S
C704 C706 1.403 . S
C704 C737 1.439 1_565 S
C705 H690 0.930 . S
C705 N701 1.319 . S
C705 C703 1.397 . S
C706 C703 1.367 . S
C706 C704 1.403 . S
C706 H713 0.929 . S
N707 Eu672 2.562 . S
N707 C708 1.325 . S
N707 C710 1.351 . S
C708 H694 0.929 . S
C708 N707 1.325 . S
C708 C712 1.416 1_565 S
C709 C710 1.430 1_545 S
C709 C711 1.404 . S
C709 C738 1.387 . S
C710 C702 1.448 . S
C710 N707 1.351 . S
C710 C709 1.430 1_565 S
C711 H700 0.930 . S
C711 C709 1.404 . S
C711 C712 1.366 . S
C712 H691 0.930 . S
C712 C708 1.416 1_545 S
C712 C711 1.366 . S
H713 C706 0.929 . S
H714 C737 0.931 . S
H715 C738 0.931 . S
O716 Eu672 2.462 . S
O716 C736 1.252 . S
O717 Eu672 2.373 . S
O717 C728 1.249 . S
O718 Eu683 2.335 . S
O718 C728 1.264 . S
O719 Eu672 2.432 . S
O719 C736 1.268 . S
O720 Eu672 2.291 . S
O720 C735 1.255 . S
O721 Eu683 2.372 . S
O721 C735 1.257 . S
O722 Eu683 2.462 . S
O722 C747 1.252 . S
O723 Eu683 2.373 . S
O723 C739 1.249 . S
O724 Eu672 2.335 . S
O724 C739 1.264 . S
O725 Eu683 2.432 . S
O725 C747 1.268 . S
O726 Eu683 2.291 . S
O726 C746 1.255 . S
O727 Eu672 2.372 . S
O727 C746 1.257 . S
C728 O717 1.249 . S
C728 O718 1.264 . S
C729 C732 1.382 . S
C729 C734 1.390 . S
C729 C736 1.506 1_545 S
C730 C731 1.398 . S
C730 C734 1.392 . S
C731 C730 1.398 . S
C731 C733 1.372 . S
C731 H748 0.931 . S
C732 C729 1.382 . S
C732 C733 1.390 . S
C732 H749 0.931 . S
C733 C731 1.372 . S
C733 C732 1.390 . S
C733 H750 0.929 . S
C734 C729 1.390 . S
C734 C730 1.392 . S
C734 H751 0.930 . S
C735 O720 1.255 . S
C735 O721 1.257 . S
C736 Eu672 2.787 . S
C736 O716 1.252 . S
C736 O719 1.268 . S
C736 C729 1.506 1_565 S
C737 C704 1.439 1_545 S
C737 H714 0.931 . S
C737 C738 1.374 . S
C738 C709 1.387 . S
C738 H715 0.931 . S
C738 C737 1.374 . S
C739 O723 1.249 . S
C739 O724 1.264 . S
C740 C743 1.382 . S
C740 C744 1.390 . S
C740 C747 1.506 . S
C741 C742 1.398 . S
C741 C744 1.392 . S
C742 C741 1.398 . S
C742 C745 1.372 . S
C742 H752 0.931 . S
C743 C740 1.382 . S
C743 C745 1.390 . S
C743 H753 0.931 . S
C744 C740 1.390 . S
C744 C741 1.392 . S
C744 H754 0.930 . S
C745 C742 1.372 . S
C745 C743 1.390 . S
C745 H755 0.929 . S
C746 O726 1.255 . S
C746 O727 1.257 . S
C747 Eu683 2.787 . S
C747 O722 1.252 . S
C747 O725 1.268 . S
C747 C740 1.506 . S
H748 C731 0.931 . S
H749 C732 0.931 . S
H750 C733 0.929 . S
H751 C734 0.930 . S
H752 C742 0.931 . S
H753 C743 0.931 . S
H754 C744 0.930 . S
H755 C745 0.929 . S
Eu756 N785 2.600 . S
Eu756 N791 2.562 . S
Eu756 O800 2.462 . S
Eu756 O801 2.373 . S
Eu756 O803 2.432 . S
Eu756 O804 2.291 . S
Eu756 O808 2.335 . S
Eu756 O811 2.372 . S
Eu756 C820 2.787 . S
C757 N758 1.365 . S
C757 C760 1.405 . S
C757 C764 1.448 . S
N758 C757 1.365 . S
N758 C761 1.319 . S
N758 Eu767 2.600 . S
C759 C761 1.397 . S
C759 C762 1.367 . S
C759 H779 0.931 . S
C760 C757 1.405 . S
C760 C762 1.403 . S
C760 C766 1.439 . S
C761 N758 1.319 . S
C761 C759 1.397 . S
C761 H772 0.930 . S
C762 C759 1.367 . S
C762 C760 1.403 . S
C762 H783 0.929 . S
C763 C764 1.430 . S
C763 C765 1.387 . S
C763 C769 1.404 . S
C764 C757 1.448 . S
C764 C763 1.430 . S
C764 N768 1.351 . S
C765 C763 1.387 . S
C765 C766 1.374 . S
C765 H780 0.931 1_565 S
C766 C760 1.439 . S
C766 C765 1.374 . S
C766 H781 0.931 . S
Eu767 N758 2.600 . S
Eu767 N768 2.562 . S
Eu767 O802 2.335 . S
Eu767 O805 2.372 . S
Eu767 O806 2.462 . S
Eu767 O807 2.373 . S
Eu767 O809 2.432 . S
Eu767 O810 2.291 . S
Eu767 C831 2.787 . S
N768 C764 1.351 . S
N768 Eu767 2.562 . S
N768 C770 1.325 . S
C769 C763 1.404 . S
C769 C771 1.366 . S
C769 H777 0.930 1_565 S
C770 N768 1.325 . S
C770 C771 1.416 . S
C770 H776 0.929 . S
C771 C769 1.366 . S
C771 C770 1.416 . S
C771 H773 0.930 . S
H772 C761 0.930 . S
H773 C771 0.930 . S
H774 C789 0.930 . S
H775 C796 0.930 . S
H776 C770 0.929 . S
H777 C769 0.930 1_545 S
H778 C792 0.929 . S
H779 C759 0.931 . S
H780 C765 0.931 1_545 S
H781 C766 0.931 . S
H782 C787 0.931 . S
H783 C762 0.929 . S
H784 C795 0.930 . S
N785 Eu756 2.600 . S
N785 C786 1.365 . S
N785 C789 1.319 . S
C786 N785 1.365 . S
C786 C788 1.405 . S
C786 C794 1.448 . S
C787 H782 0.931 . S
C787 C789 1.397 . S
C787 C790 1.367 . S
C788 C786 1.405 . S
C788 C790 1.403 . S
C788 C821 1.439 . S
C789 H774 0.930 . S
C789 N785 1.319 . S
C789 C787 1.397 . S
C790 C787 1.367 . S
C790 C788 1.403 . S
C790 H797 0.929 . S
N791 Eu756 2.562 . S
N791 C792 1.325 . S
N791 C794 1.351 . S
C792 H778 0.929 . S
C792 N791 1.325 . S
C792 C796 1.416 . S
C793 C794 1.430 . S
C793 C795 1.404 . S
C793 C822 1.387 . S
C794 C786 1.448 . S
C794 N791 1.351 . S
C794 C793 1.430 . S
C795 H784 0.930 . S
C795 C793 1.404 . S
C795 C796 1.366 . S
C796 H775 0.930 . S
C796 C792 1.416 . S
C796 C795 1.366 . S
H797 C790 0.929 . S
H798 C821 0.931 . S
H799 C822 0.931 . S
O800 Eu756 2.462 . S
O800 C820 1.252 . S
O801 Eu756 2.373 . S
O801 C812 1.249 . S
O802 Eu767 2.335 . S
O802 C812 1.264 . S
O803 Eu756 2.432 . S
O803 C820 1.268 . S
O804 Eu756 2.291 . S
O804 C819 1.255 . S
O805 Eu767 2.372 . S
O805 C819 1.257 . S
O806 Eu767 2.462 . S
O806 C831 1.252 . S
O807 Eu767 2.373 . S
O807 C823 1.249 . S
O808 Eu756 2.335 . S
O808 C823 1.264 . S
O809 Eu767 2.432 . S
O809 C831 1.268 . S
O810 Eu767 2.291 . S
O810 C830 1.255 . S
O811 Eu756 2.372 . S
O811 C830 1.257 . S
C812 O801 1.249 . S
C812 O802 1.264 . S
C813 C816 1.382 . S
C813 C818 1.390 . S
C813 C820 1.506 . S
C814 C815 1.398 . S
C814 C818 1.392 . S
C815 C814 1.398 . S
C815 C817 1.372 . S
C815 H832 0.931 . S
C816 C813 1.382 . S
C816 C817 1.390 . S
C816 H833 0.931 . S
C817 C815 1.372 . S
C817 C816 1.390 . S
C817 H834 0.929 . S
C818 C813 1.390 . S
C818 C814 1.392 . S
C818 H835 0.930 . S
C819 O804 1.255 . S
C819 O805 1.257 . S
C820 Eu756 2.787 . S
C820 O800 1.252 . S
C820 O803 1.268 . S
C820 C813 1.506 . S
C821 C788 1.439 . S
C821 H798 0.931 . S
C821 C822 1.374 . S
C822 C793 1.387 . S
C822 H799 0.931 . S
C822 C821 1.374 . S
C823 O807 1.249 . S
C823 O808 1.264 . S
C824 C827 1.382 . S
C824 C828 1.390 1_565 S
C824 C831 1.506 . S
C825 C826 1.398 . S
C825 C828 1.392 . S
C826 C825 1.398 . S
C826 C829 1.372 . S
C826 H836 0.931 . S
C827 C824 1.382 . S
C827 C829 1.390 1_565 S
C827 H837 0.931 . S
C828 C824 1.390 1_545 S
C828 C825 1.392 . S
C828 H838 0.930 1_545 S
C829 C826 1.372 . S
C829 C827 1.390 1_545 S
C829 H839 0.929 . S
C830 O810 1.255 . S
C830 O811 1.257 . S
C831 Eu767 2.787 . S
C831 O806 1.252 . S
C831 O809 1.268 . S
C831 C824 1.506 . S
H832 C815 0.931 . S
H833 C816 0.931 . S
H834 C817 0.929 . S
H835 C818 0.930 . S
H836 C826 0.931 . S
H837 C827 0.931 . S
H838 C828 0.930 1_565 S
H839 C829 0.929 . S
Eu840 N869 2.600 . S
Eu840 N875 2.562 . S
Eu840 O884 2.462 . S
Eu840 O885 2.373 . S
Eu840 O887 2.432 . S
Eu840 O888 2.291 . S
Eu840 O892 2.335 . S
Eu840 O895 2.372 . S
Eu840 C904 2.787 . S
C841 N842 1.365 . S
C841 C844 1.405 . S
C841 C848 1.448 . S
N842 C841 1.365 . S
N842 C845 1.319 . S
N842 Eu851 2.600 . S
C843 C845 1.397 . S
C843 C846 1.367 . S
C843 H863 0.931 . S
C844 C841 1.405 . S
C844 C846 1.403 . S
C844 C850 1.439 . S
C845 N842 1.319 . S
C845 C843 1.397 . S
C845 H856 0.930 . S
C846 C843 1.367 . S
C846 C844 1.403 . S
C846 H867 0.929 . S
C847 C848 1.430 . S
C847 C849 1.387 . S
C847 C853 1.404 . S
C848 C841 1.448 . S
C848 C847 1.430 . S
C848 N852 1.351 . S
C849 C847 1.387 . S
C849 C850 1.374 . S
C849 H864 0.931 . S
C850 C844 1.439 . S
C850 C849 1.374 . S
C850 H865 0.931 . S
Eu851 N842 2.600 . S
Eu851 N852 2.562 . S
Eu851 O886 2.335 . S
Eu851 O889 2.372 . S
Eu851 O890 2.462 . S
Eu851 O891 2.373 . S
Eu851 O893 2.432 . S
Eu851 O894 2.291 . S
Eu851 C915 2.787 . S
N852 C848 1.351 . S
N852 Eu851 2.562 . S
N852 C854 1.325 . S
C853 C847 1.404 . S
C853 C855 1.366 . S
C853 H861 0.930 . S
C854 N852 1.325 . S
C854 C855 1.416 . S
C854 H860 0.929 . S
C855 C853 1.366 . S
C855 C854 1.416 . S
C855 H857 0.930 . S
H856 C845 0.930 . S
H857 C855 0.930 . S
H858 C873 0.930 . S
H859 C880 0.930 . S
H860 C854 0.929 . S
H861 C853 0.930 . S
H862 C876 0.929 . S
H863 C843 0.931 . S
H864 C849 0.931 . S
H865 C850 0.931 . S
H866 C871 0.931 . S
H867 C846 0.929 . S
H868 C879 0.930 . S
N869 Eu840 2.600 . S
N869 C870 1.365 . S
N869 C873 1.319 . S
C870 N869 1.365 . S
C870 C872 1.405 . S
C870 C878 1.448 . S
C871 H866 0.931 . S
C871 C873 1.397 . S
C871 C874 1.367 . S
C872 C870 1.405 . S
C872 C874 1.403 . S
C872 C905 1.439 1_565 S
C873 H858 0.930 . S
C873 N869 1.319 . S
C873 C871 1.397 . S
C874 C871 1.367 . S
C874 C872 1.403 . S
C874 H881 0.929 1_565 S
N875 Eu840 2.562 . S
N875 C876 1.325 . S
N875 C878 1.351 . S
C876 H862 0.929 . S
C876 N875 1.325 . S
C876 C880 1.416 1_565 S
C877 C878 1.430 1_545 S
C877 C879 1.404 . S
C877 C906 1.387 . S
C878 C870 1.448 . S
C878 N875 1.351 . S
C878 C877 1.430 1_565 S
C879 H868 0.930 . S
C879 C877 1.404 . S
C879 C880 1.366 . S
C880 H859 0.930 . S
C880 C876 1.416 1_545 S
C880 C879 1.366 . S
H881 C874 0.929 1_545 S
H882 C905 0.931 . S
H883 C906 0.931 . S
O884 Eu840 2.462 . S
O884 C904 1.252 . S
O885 Eu840 2.373 . S
O885 C896 1.249 . S
O886 Eu851 2.335 . S
O886 C896 1.264 . S
O887 Eu840 2.432 . S
O887 C904 1.268 . S
O888 Eu840 2.291 . S
O888 C903 1.255 . S
O889 Eu851 2.372 . S
O889 C903 1.257 . S
O890 Eu851 2.462 . S
O890 C915 1.252 . S
O891 Eu851 2.373 . S
O891 C907 1.249 . S
O892 Eu840 2.335 . S
O892 C907 1.264 . S
O893 Eu851 2.432 . S
O893 C915 1.268 . S
O894 Eu851 2.291 . S
O894 C914 1.255 . S
O895 Eu840 2.372 . S
O895 C914 1.257 . S
C896 O885 1.249 . S
C896 O886 1.264 . S
C897 C900 1.382 . S
C897 C902 1.390 . S
C897 C904 1.506 . S
C898 C899 1.398 . S
C898 C902 1.392 . S
C899 C898 1.398 . S
C899 C901 1.372 . S
C899 H916 0.931 . S
C900 C897 1.382 . S
C900 C901 1.390 . S
C900 H917 0.931 . S
C901 C899 1.372 . S
C901 C900 1.390 . S
C901 H918 0.929 . S
C902 C897 1.390 . S
C902 C898 1.392 . S
C902 H919 0.930 . S
C903 O888 1.255 . S
C903 O889 1.257 . S
C904 Eu840 2.787 . S
C904 O884 1.252 . S
C904 O887 1.268 . S
C904 C897 1.506 . S
C905 C872 1.439 1_545 S
C905 H882 0.931 . S
C905 C906 1.374 . S
C906 C877 1.387 . S
C906 H883 0.931 . S
C906 C905 1.374 . S
C907 O891 1.249 . S
C907 O892 1.264 . S
C908 C911 1.382 . S
C908 C912 1.390 . S
C908 C915 1.506 . S
C909 C910 1.393 1_455 S
C909 C912 1.405 . S
C910 C909 1.393 1_655 S
C910 C913 1.372 1_655 S
C910 H920 0.931 . S
C911 C908 1.382 . S
C911 C913 1.390 . S
C911 H921 0.931 . S
C912 C908 1.390 . S
C912 C909 1.405 . S
C912 H922 0.930 . S
C913 C910 1.372 1_455 S
C913 C911 1.390 . S
C913 H923 0.935 . S
C914 O894 1.255 . S
C914 O895 1.257 . S
C915 Eu851 2.787 . S
C915 O890 1.252 . S
C915 O893 1.268 . S
C915 C908 1.506 . S
H916 C899 0.931 . S
H917 C900 0.931 . S
H918 C901 0.929 . S
H919 C902 0.930 . S
H920 C910 0.931 . S
H921 C911 0.931 . S
H922 C912 0.930 . S
H923 C913 0.935 . S
Eu924 N953 2.600 . S
Eu924 N959 2.562 . S
Eu924 O968 2.462 . S
Eu924 O969 2.373 . S
Eu924 O971 2.432 . S
Eu924 O972 2.291 . S
Eu924 O976 2.335 . S
Eu924 O979 2.372 . S
Eu924 C988 2.787 . S
C925 N926 1.365 . S
C925 C928 1.405 . S
C925 C932 1.448 . S
N926 C925 1.365 . S
N926 C929 1.319 . S
N926 Eu935 2.600 . S
C927 C929 1.397 . S
C927 C930 1.367 . S
C927 H947 0.931 . S
C928 C925 1.405 . S
C928 C930 1.403 . S
C928 C934 1.439 . S
C929 N926 1.319 . S
C929 C927 1.397 . S
C929 H940 0.930 . S
C930 C927 1.367 . S
C930 C928 1.403 . S
C930 H951 0.929 . S
C931 C932 1.430 . S
C931 C933 1.387 . S
C931 C937 1.404 . S
C932 C925 1.448 . S
C932 C931 1.430 . S
C932 N936 1.351 . S
C933 C931 1.387 . S
C933 C934 1.374 . S
C933 H948 0.931 . S
C934 C928 1.439 . S
C934 C933 1.374 . S
C934 H949 0.931 . S
Eu935 N926 2.600 . S
Eu935 N936 2.562 . S
Eu935 O970 2.335 . S
Eu935 O973 2.372 . S
Eu935 O974 2.462 . S
Eu935 O975 2.373 . S
Eu935 O977 2.432 . S
Eu935 O978 2.291 . S
Eu935 C999 2.787 . S
N936 C932 1.351 . S
N936 Eu935 2.562 . S
N936 C938 1.325 . S
C937 C931 1.404 . S
C937 C939 1.366 . S
C937 H945 0.930 . S
C938 N936 1.325 . S
C938 C939 1.416 . S
C938 H944 0.929 . S
C939 C937 1.366 . S
C939 C938 1.416 . S
C939 H941 0.930 . S
H940 C929 0.930 . S
H941 C939 0.930 . S
H942 C957 0.930 . S
H943 C964 0.930 . S
H944 C938 0.929 . S
H945 C937 0.930 . S
H946 C960 0.929 . S
H947 C927 0.931 . S
H948 C933 0.931 . S
H949 C934 0.931 . S
H950 C955 0.931 . S
H951 C930 0.929 . S
H952 C963 0.930 1_655 S
N953 Eu924 2.600 . S
N953 C954 1.365 . S
N953 C957 1.319 . S
C954 N953 1.365 . S
C954 C956 1.405 . S
C954 C962 1.448 . S
C955 H950 0.931 . S
C955 C957 1.397 . S
C955 C958 1.367 . S
C956 C954 1.405 . S
C956 C958 1.403 . S
C956 C989 1.439 . S
C957 H942 0.930 . S
C957 N953 1.319 . S
C957 C955 1.397 . S
C958 C955 1.367 . S
C958 C956 1.403 . S
C958 H965 0.929 . S
N959 Eu924 2.562 . S
N959 C960 1.325 . S
N959 C962 1.351 . S
C960 H946 0.929 . S
C960 N959 1.325 . S
C960 C964 1.416 . S
C961 C962 1.430 . S
C961 C963 1.404 . S
C961 C990 1.387 1_455 S
C962 C954 1.448 . S
C962 N959 1.351 . S
C962 C961 1.430 . S
C963 H952 0.930 1_455 S
C963 C961 1.404 . S
C963 C964 1.366 . S
C964 H943 0.930 . S
C964 C960 1.416 . S
C964 C963 1.366 . S
H965 C958 0.929 . S
H966 C989 0.931 1_655 S
H967 C990 0.931 . S
O968 Eu924 2.462 . S
O968 C988 1.252 . S
O969 Eu924 2.373 . S
O969 C980 1.249 . S
O970 Eu935 2.335 . S
O970 C980 1.264 . S
O971 Eu924 2.432 . S
O971 C988 1.268 . S
O972 Eu924 2.291 . S
O972 C987 1.255 . S
O973 Eu935 2.372 . S
O973 C987 1.257 . S
O974 Eu935 2.462 . S
O974 C999 1.252 . S
O975 Eu935 2.373 . S
O975 C991 1.249 . S
O976 Eu924 2.335 . S
O976 C991 1.264 . S
O977 Eu935 2.432 . S
O977 C999 1.268 . S
O978 Eu935 2.291 . S
O978 C998 1.255 . S
O979 Eu924 2.372 . S
O979 C998 1.257 . S
C980 O969 1.249 . S
C980 O970 1.264 . S
C981 C984 1.382 . S
C981 C986 1.390 . S
C981 C988 1.506 . S
C982 C983 1.398 . S
C982 C986 1.392 . S
C983 C982 1.398 . S
C983 C985 1.372 . S
C983 H1000 0.931 . S
C984 C981 1.382 . S
C984 C985 1.390 . S
C984 H1001 0.931 . S
C985 C983 1.372 . S
C985 C984 1.390 . S
C985 H1002 0.929 . S
C986 C981 1.390 . S
C986 C982 1.392 . S
C986 H1003 0.930 . S
C987 O972 1.255 . S
C987 O973 1.257 . S
C988 Eu924 2.787 . S
C988 O968 1.252 . S
C988 O971 1.268 . S
C988 C981 1.506 . S
C989 C956 1.439 . S
C989 H966 0.931 1_455 S
C989 C990 1.374 1_455 S
C990 C961 1.387 1_655 S
C990 H967 0.931 . S
C990 C989 1.374 1_655 S
C991 O975 1.249 . S
C991 O976 1.264 . S
C992 C995 1.382 . S
C992 C996 1.390 . S
C992 C999 1.506 . S
C993 C994 1.398 . S
C993 C996 1.392 . S
C994 C993 1.398 . S
C994 C997 1.372 . S
C994 H1004 0.931 . S
C995 C992 1.382 . S
C995 C997 1.390 . S
C995 H1005 0.931 . S
C996 C992 1.390 . S
C996 C993 1.392 . S
C996 H1006 0.930 . S
C997 C994 1.372 . S
C997 C995 1.390 . S
C997 H1007 0.929 . S
C998 O978 1.255 . S
C998 O979 1.257 . S
C999 Eu935 2.787 . S
C999 O974 1.252 . S
C999 O977 1.268 . S
C999 C992 1.506 . S
H1000 C983 0.931 . S
H1001 C984 0.931 . S
H1002 C985 0.929 . S
H1003 C986 0.930 . S
H1004 C994 0.931 . S
H1005 C995 0.931 . S
H1006 C996 0.930 . S
H1007 C997 0.929 . S
Eu1008 N1037 2.600 . S
Eu1008 N1043 2.562 . S
Eu1008 O1052 2.462 . S
Eu1008 O1053 2.373 . S
Eu1008 O1055 2.432 . S
Eu1008 O1056 2.291 . S
Eu1008 O1060 2.335 . S
Eu1008 O1063 2.372 . S
Eu1008 C1072 2.787 . S
C1009 N1010 1.365 . S
C1009 C1012 1.405 . S
C1009 C1016 1.448 . S
N1010 C1009 1.365 . S
N1010 C1013 1.319 . S
N1010 Eu1019 2.600 . S
C1011 C1013 1.397 . S
C1011 C1014 1.367 . S
C1011 H1031 0.931 . S
C1012 C1009 1.405 . S
C1012 C1014 1.403 . S
C1012 C1018 1.439 . S
C1013 N1010 1.319 . S
C1013 C1011 1.397 . S
C1013 H1024 0.930 . S
C1014 C1011 1.367 . S
C1014 C1012 1.403 . S
C1014 H1035 0.929 . S
C1015 C1016 1.430 . S
C1015 C1017 1.387 . S
C1015 C1021 1.404 . S
C1016 C1009 1.448 . S
C1016 C1015 1.430 . S
C1016 N1020 1.351 . S
C1017 C1015 1.387 . S
C1017 C1018 1.374 . S
C1017 H1032 0.931 1_655 S
C1018 C1012 1.439 . S
C1018 C1017 1.374 . S
C1018 H1033 0.931 . S
Eu1019 N1010 2.600 . S
Eu1019 N1020 2.562 . S
Eu1019 O1054 2.335 . S
Eu1019 O1057 2.372 . S
Eu1019 O1058 2.462 . S
Eu1019 O1059 2.373 . S
Eu1019 O1061 2.432 . S
Eu1019 O1062 2.291 . S
Eu1019 C1083 2.787 . S
N1020 C1016 1.351 . S
N1020 Eu1019 2.562 . S
N1020 C1022 1.325 . S
C1021 C1015 1.404 . S
C1021 C1023 1.366 . S
C1021 H1029 0.930 1_655 S
C1022 N1020 1.325 . S
C1022 C1023 1.416 . S
C1022 H1028 0.929 . S
C1023 C1021 1.366 . S
C1023 C1022 1.416 . S
C1023 H1025 0.930 . S
H1024 C1013 0.930 . S
H1025 C1023 0.930 . S
H1026 C1041 0.930 . S
H1027 C1048 0.930 . S
H1028 C1022 0.929 . S
H1029 C1021 0.930 1_455 S
H1030 C1044 0.929 . S
H1031 C1011 0.931 . S
H1032 C1017 0.931 1_455 S
H1033 C1018 0.931 . S
H1034 C1039 0.931 . S
H1035 C1014 0.929 . S
H1036 C1047 0.930 . S
N1037 Eu1008 2.600 . S
N1037 C1038 1.365 . S
N1037 C1041 1.319 . S
C1038 N1037 1.365 . S
C1038 C1040 1.405 . S
C1038 C1046 1.448 . S
C1039 H1034 0.931 . S
C1039 C1041 1.397 . S
C1039 C1042 1.367 . S
C1040 C1038 1.405 . S
C1040 C1042 1.403 . S
C1040 C1073 1.439 . S
C1041 H1026 0.930 . S
C1041 N1037 1.319 . S
C1041 C1039 1.397 . S
C1042 C1039 1.367 . S
C1042 C1040 1.403 . S
C1042 H1049 0.929 . S
N1043 Eu1008 2.562 . S
N1043 C1044 1.325 . S
N1043 C1046 1.351 . S
C1044 H1030 0.929 . S
C1044 N1043 1.325 . S
C1044 C1048 1.416 . S
C1045 C1046 1.430 . S
C1045 C1047 1.404 . S
C1045 C1074 1.387 . S
C1046 C1038 1.448 . S
C1046 N1043 1.351 . S
C1046 C1045 1.430 . S
C1047 H1036 0.930 . S
C1047 C1045 1.404 . S
C1047 C1048 1.366 . S
C1048 H1027 0.930 . S
C1048 C1044 1.416 . S
C1048 C1047 1.366 . S
H1049 C1042 0.929 . S
H1050 C1073 0.931 . S
H1051 C1074 0.931 . S
O1052 Eu1008 2.462 . S
O1052 C1072 1.252 . S
O1053 Eu1008 2.373 . S
O1053 C1064 1.249 . S
O1054 Eu1019 2.335 . S
O1054 C1064 1.264 . S
O1055 Eu1008 2.432 . S
O1055 C1072 1.268 . S
O1056 Eu1008 2.291 . S
O1056 C1071 1.255 . S
O1057 Eu1019 2.372 . S
O1057 C1071 1.257 . S
O1058 Eu1019 2.462 . S
O1058 C1083 1.252 . S
O1059 Eu1019 2.373 . S
O1059 C1075 1.249 . S
O1060 Eu1008 2.335 . S
O1060 C1075 1.264 . S
O1061 Eu1019 2.432 . S
O1061 C1083 1.268 . S
O1062 Eu1019 2.291 . S
O1062 C1082 1.255 . S
O1063 Eu1008 2.372 . S
O1063 C1082 1.257 . S
C1064 O1053 1.249 . S
C1064 O1054 1.264 . S
C1065 C1068 1.382 . S
C1065 C1070 1.390 . S
C1065 C1072 1.506 . S
C1066 C1067 1.398 . S
C1066 C1070 1.392 . S
C1067 C1066 1.398 . S
C1067 C1069 1.372 . S
C1067 H1084 0.931 . S
C1068 C1065 1.382 . S
C1068 C1069 1.390 . S
C1068 H1085 0.931 . S
C1069 C1067 1.372 . S
C1069 C1068 1.390 . S
C1069 H1086 0.929 . S
C1070 C1065 1.390 . S
C1070 C1066 1.392 . S
C1070 H1087 0.930 . S
C1071 O1056 1.255 . S
C1071 O1057 1.257 . S
C1072 Eu1008 2.787 . S
C1072 O1052 1.252 . S
C1072 O1055 1.268 . S
C1072 C1065 1.506 . S
C1073 C1040 1.439 . S
C1073 H1050 0.931 . S
C1073 C1074 1.374 . S
C1074 C1045 1.387 . S
C1074 H1051 0.931 . S
C1074 C1073 1.374 . S
C1075 O1059 1.249 . S
C1075 O1060 1.264 . S
C1076 C1079 1.382 . S
C1076 C1080 1.390 1_655 S
C1076 C1083 1.506 . S
C1077 C1078 1.398 . S
C1077 C1080 1.392 . S
C1078 C1077 1.398 . S
C1078 C1081 1.372 . S
C1078 H1088 0.931 . S
C1079 C1076 1.382 . S
C1079 C1081 1.390 1_655 S
C1079 H1089 0.931 . S
C1080 C1076 1.390 1_455 S
C1080 C1077 1.392 . S
C1080 H1090 0.930 1_455 S
C1081 C1078 1.372 . S
C1081 C1079 1.390 1_455 S
C1081 H1091 0.929 . S
C1082 O1062 1.255 . S
C1082 O1063 1.257 . S
C1083 Eu1019 2.787 . S
C1083 O1058 1.252 . S
C1083 O1061 1.268 . S
C1083 C1076 1.506 . S
H1084 C1067 0.931 . S
H1085 C1068 0.931 . S
H1086 C1069 0.929 . S
H1087 C1070 0.930 . S
H1088 C1078 0.931 . S
H1089 C1079 0.931 . S
H1090 C1080 0.930 1_655 S
H1091 C1081 0.929 . S
Eu1092 N1121 2.600 . S
Eu1092 N1127 2.562 . S
Eu1092 O1136 2.462 . S
Eu1092 O1137 2.373 . S
Eu1092 O1139 2.432 . S
Eu1092 O1140 2.291 . S
Eu1092 O1144 2.335 . S
Eu1092 O1147 2.372 . S
Eu1092 C1156 2.787 . S
C1093 N1094 1.365 . S
C1093 C1096 1.405 . S
C1093 C1100 1.448 . S
N1094 C1093 1.365 . S
N1094 C1097 1.319 . S
N1094 Eu1103 2.600 . S
C1095 C1097 1.397 . S
C1095 C1098 1.367 . S
C1095 H1115 0.931 . S
C1096 C1093 1.405 . S
C1096 C1098 1.403 . S
C1096 C1102 1.439 . S
C1097 N1094 1.319 . S
C1097 C1095 1.397 . S
C1097 H1108 0.930 . S
C1098 C1095 1.367 . S
C1098 C1096 1.403 . S
C1098 H1119 0.929 . S
C1099 C1100 1.430 . S
C1099 C1101 1.387 . S
C1099 C1105 1.404 . S
C1100 C1093 1.448 . S
C1100 C1099 1.430 . S
C1100 N1104 1.351 . S
C1101 C1099 1.387 . S
C1101 C1102 1.374 . S
C1101 H1116 0.931 . S
C1102 C1096 1.439 . S
C1102 C1101 1.374 . S
C1102 H1117 0.931 . S
Eu1103 N1094 2.600 . S
Eu1103 N1104 2.562 . S
Eu1103 O1138 2.335 . S
Eu1103 O1141 2.372 . S
Eu1103 O1142 2.462 . S
Eu1103 O1143 2.373 . S
Eu1103 O1145 2.432 . S
Eu1103 O1146 2.291 . S
Eu1103 C1167 2.787 . S
N1104 C1100 1.351 . S
N1104 Eu1103 2.562 . S
N1104 C1106 1.325 . S
C1105 C1099 1.404 . S
C1105 C1107 1.366 . S
C1105 H1113 0.930 . S
C1106 N1104 1.325 . S
C1106 C1107 1.416 . S
C1106 H1112 0.929 . S
C1107 C1105 1.366 . S
C1107 C1106 1.416 . S
C1107 H1109 0.930 . S
H1108 C1097 0.930 . S
H1109 C1107 0.930 . S
H1110 C1125 0.930 . S
H1111 C1132 0.930 . S
H1112 C1106 0.929 . S
H1113 C1105 0.930 . S
H1114 C1128 0.929 . S
H1115 C1095 0.931 . S
H1116 C1101 0.931 . S
H1117 C1102 0.931 . S
H1118 C1123 0.931 . S
H1119 C1098 0.929 . S
H1120 C1131 0.930 1_565 S
N1121 Eu1092 2.600 . S
N1121 C1122 1.365 . S
N1121 C1125 1.319 . S
C1122 N1121 1.365 . S
C1122 C1124 1.405 . S
C1122 C1130 1.448 . S
C1123 H1118 0.931 . S
C1123 C1125 1.397 . S
C1123 C1126 1.367 . S
C1124 C1122 1.405 . S
C1124 C1126 1.403 . S
C1124 C1157 1.439 . S
C1125 H1110 0.930 . S
C1125 N1121 1.319 . S
C1125 C1123 1.397 . S
C1126 C1123 1.367 . S
C1126 C1124 1.403 . S
C1126 H1133 0.929 . S
N1127 Eu1092 2.562 . S
N1127 C1128 1.325 . S
N1127 C1130 1.351 . S
C1128 H1114 0.929 . S
C1128 N1127 1.325 . S
C1128 C1132 1.416 . S
C1129 C1130 1.430 . S
C1129 C1131 1.404 . S
C1129 C1158 1.387 1_545 S
C1130 C1122 1.448 . S
C1130 N1127 1.351 . S
C1130 C1129 1.430 . S
C1131 H1120 0.930 1_545 S
C1131 C1129 1.404 . S
C1131 C1132 1.366 . S
C1132 H1111 0.930 . S
C1132 C1128 1.416 . S
C1132 C1131 1.366 . S
H1133 C1126 0.929 . S
H1134 C1157 0.931 1_565 S
H1135 C1158 0.931 . S
O1136 Eu1092 2.462 . S
O1136 C1156 1.252 . S
O1137 Eu1092 2.373 . S
O1137 C1148 1.249 . S
O1138 Eu1103 2.335 . S
O1138 C1148 1.264 . S
O1139 Eu1092 2.432 . S
O1139 C1156 1.268 . S
O1140 Eu1092 2.291 . S
O1140 C1155 1.255 . S
O1141 Eu1103 2.372 . S
O1141 C1155 1.257 . S
O1142 Eu1103 2.462 . S
O1142 C1167 1.252 . S
O1143 Eu1103 2.373 . S
O1143 C1159 1.249 . S
O1144 Eu1092 2.335 . S
O1144 C1159 1.264 . S
O1145 Eu1103 2.432 . S
O1145 C1167 1.268 . S
O1146 Eu1103 2.291 . S
O1146 C1166 1.255 . S
O1147 Eu1092 2.372 . S
O1147 C1166 1.257 . S
C1148 O1137 1.249 . S
C1148 O1138 1.264 . S
C1149 C1152 1.382 . S
C1149 C1154 1.390 . S
C1149 C1156 1.506 . S
C1150 C1151 1.398 . S
C1150 C1154 1.392 . S
C1151 C1150 1.398 . S
C1151 C1153 1.372 . S
C1151 H1168 0.931 . S
C1152 C1149 1.382 . S
C1152 C1153 1.390 . S
C1152 H1169 0.931 . S
C1153 C1151 1.372 . S
C1153 C1152 1.390 . S
C1153 H1170 0.929 . S
C1154 C1149 1.390 . S
C1154 C1150 1.392 . S
C1154 H1171 0.930 . S
C1155 O1140 1.255 . S
C1155 O1141 1.257 . S
C1156 Eu1092 2.787 . S
C1156 O1136 1.252 . S
C1156 O1139 1.268 . S
C1156 C1149 1.506 . S
C1157 C1124 1.439 . S
C1157 H1134 0.931 1_545 S
C1157 C1158 1.374 1_545 S
C1158 C1129 1.387 1_565 S
C1158 H1135 0.931 . S
C1158 C1157 1.374 1_565 S
C1159 O1143 1.249 . S
C1159 O1144 1.264 . S
C1160 C1163 1.382 . S
C1160 C1164 1.390 . S
C1160 C1167 1.506 . S
C1161 C1162 1.398 . S
C1161 C1164 1.392 . S
C1162 C1161 1.398 . S
C1162 C1165 1.372 . S
C1162 H1172 0.931 . S
C1163 C1160 1.382 . S
C1163 C1165 1.390 . S
C1163 H1173 0.931 . S
C1164 C1160 1.390 . S
C1164 C1161 1.392 . S
C1164 H1174 0.930 . S
C1165 C1162 1.372 . S
C1165 C1163 1.390 . S
C1165 H1175 0.929 . S
C1166 O1146 1.255 . S
C1166 O1147 1.257 . S
C1167 Eu1103 2.787 . S
C1167 O1142 1.252 . S
C1167 O1145 1.268 . S
C1167 C1160 1.506 . S
H1168 C1151 0.931 . S
H1169 C1152 0.931 . S
H1170 C1153 0.929 . S
H1171 C1154 0.930 . S
H1172 C1162 0.931 . S
H1173 C1163 0.931 . S
H1174 C1164 0.930 . S
H1175 C1165 0.929 . S
Eu1176 N1205 2.600 . S
Eu1176 N1211 2.562 . S
Eu1176 O1220 2.462 . S
Eu1176 O1221 2.373 . S
Eu1176 O1223 2.432 . S
Eu1176 O1224 2.291 . S
Eu1176 O1228 2.335 . S
Eu1176 O1231 2.372 . S
Eu1176 C1240 2.787 . S
C1177 N1178 1.365 . S
C1177 C1180 1.405 . S
C1177 C1184 1.448 . S
N1178 C1177 1.365 . S
N1178 C1181 1.319 . S
N1178 Eu1187 2.600 . S
C1179 C1181 1.397 . S
C1179 C1182 1.367 . S
C1179 H1199 0.931 . S
C1180 C1177 1.405 . S
C1180 C1182 1.403 . S
C1180 C1186 1.439 . S
C1181 N1178 1.319 . S
C1181 C1179 1.397 . S
C1181 H1192 0.930 . S
C1182 C1179 1.367 . S
C1182 C1180 1.403 . S
C1182 H1203 0.929 . S
C1183 C1184 1.430 . S
C1183 C1185 1.387 . S
C1183 C1189 1.404 . S
C1184 C1177 1.448 . S
C1184 C1183 1.430 . S
C1184 N1188 1.351 . S
C1185 C1183 1.387 . S
C1185 C1186 1.374 . S
C1185 H1200 0.931 . S
C1186 C1180 1.439 . S
C1186 C1185 1.374 . S
C1186 H1201 0.931 . S
Eu1187 N1178 2.600 . S
Eu1187 N1188 2.562 . S
Eu1187 O1222 2.335 . S
Eu1187 O1225 2.372 . S
Eu1187 O1226 2.462 . S
Eu1187 O1227 2.373 . S
Eu1187 O1229 2.432 . S
Eu1187 O1230 2.291 . S
Eu1187 C1251 2.787 . S
N1188 C1184 1.351 . S
N1188 Eu1187 2.562 . S
N1188 C1190 1.325 . S
C1189 C1183 1.404 . S
C1189 C1191 1.366 . S
C1189 H1197 0.930 . S
C1190 N1188 1.325 . S
C1190 C1191 1.416 . S
C1190 H1196 0.929 . S
C1191 C1189 1.366 . S
C1191 C1190 1.416 . S
C1191 H1193 0.930 . S
H1192 C1181 0.930 . S
H1193 C1191 0.930 . S
H1194 C1209 0.930 . S
H1195 C1216 0.930 . S
H1196 C1190 0.929 . S
H1197 C1189 0.930 . S
H1198 C1212 0.929 . S
H1199 C1179 0.931 . S
H1200 C1185 0.931 . S
H1201 C1186 0.931 . S
H1202 C1207 0.931 . S
H1203 C1182 0.929 . S
H1204 C1215 0.930 . S
N1205 Eu1176 2.600 . S
N1205 C1206 1.365 . S
N1205 C1209 1.319 . S
C1206 N1205 1.365 . S
C1206 C1208 1.405 . S
C1206 C1214 1.448 . S
C1207 H1202 0.931 . S
C1207 C1209 1.397 . S
C1207 C1210 1.367 . S
C1208 C1206 1.405 . S
C1208 C1210 1.403 . S
C1208 C1241 1.439 1_655 S
C1209 H1194 0.930 . S
C1209 N1205 1.319 . S
C1209 C1207 1.397 . S
C1210 C1207 1.367 . S
C1210 C1208 1.403 . S
C1210 H1217 0.929 1_655 S
N1211 Eu1176 2.562 . S
N1211 C1212 1.325 . S
N1211 C1214 1.351 . S
C1212 H1198 0.929 . S
C1212 N1211 1.325 . S
C1212 C1216 1.416 1_655 S
C1213 C1214 1.430 1_455 S
C1213 C1215 1.404 . S
C1213 C1242 1.387 . S
C1214 C1206 1.448 . S
C1214 N1211 1.351 . S
C1214 C1213 1.430 1_655 S
C1215 H1204 0.930 . S
C1215 C1213 1.404 . S
C1215 C1216 1.366 . S
C1216 H1195 0.930 . S
C1216 C1212 1.416 1_455 S
C1216 C1215 1.366 . S
H1217 C1210 0.929 1_455 S
H1218 C1241 0.931 . S
H1219 C1242 0.931 . S
O1220 Eu1176 2.462 . S
O1220 C1240 1.252 . S
O1221 Eu1176 2.373 . S
O1221 C1232 1.249 . S
O1222 Eu1187 2.335 . S
O1222 C1232 1.264 . S
O1223 Eu1176 2.432 . S
O1223 C1240 1.268 . S
O1224 Eu1176 2.291 . S
O1224 C1239 1.255 . S
O1225 Eu1187 2.372 . S
O1225 C1239 1.257 . S
O1226 Eu1187 2.462 . S
O1226 C1251 1.252 . S
O1227 Eu1187 2.373 . S
O1227 C1243 1.249 . S
O1228 Eu1176 2.335 . S
O1228 C1243 1.264 . S
O1229 Eu1187 2.432 . S
O1229 C1251 1.268 . S
O1230 Eu1187 2.291 . S
O1230 C1250 1.255 . S
O1231 Eu1176 2.372 . S
O1231 C1250 1.257 . S
C1232 O1221 1.249 . S
C1232 O1222 1.264 . S
C1233 C1236 1.382 . S
C1233 C1238 1.390 . S
C1233 C1240 1.506 . S
C1234 C1235 1.398 . S
C1234 C1238 1.392 . S
C1235 C1234 1.398 . S
C1235 C1237 1.372 . S
C1235 H1252 0.931 . S
C1236 C1233 1.382 . S
C1236 C1237 1.390 . S
C1236 H1253 0.931 . S
C1237 C1235 1.372 . S
C1237 C1236 1.390 . S
C1237 H1254 0.929 . S
C1238 C1233 1.390 . S
C1238 C1234 1.392 . S
C1238 H1255 0.930 . S
C1239 O1224 1.255 . S
C1239 O1225 1.257 . S
C1240 Eu1176 2.787 . S
C1240 O1220 1.252 . S
C1240 O1223 1.268 . S
C1240 C1233 1.506 . S
C1241 C1208 1.439 1_455 S
C1241 H1218 0.931 . S
C1241 C1242 1.374 . S
C1242 C1213 1.387 . S
C1242 H1219 0.931 . S
C1242 C1241 1.374 . S
C1243 O1227 1.249 . S
C1243 O1228 1.264 . S
C1244 C1247 1.382 . S
C1244 C1248 1.390 . S
C1244 C1251 1.506 . S
C1245 C1246 1.393 1_545 S
C1245 C1248 1.405 . S
C1246 C1245 1.393 1_565 S
C1246 C1249 1.372 1_565 S
C1246 H1256 0.931 . S
C1247 C1244 1.382 . S
C1247 C1249 1.390 . S
C1247 H1257 0.931 . S
C1248 C1244 1.390 . S
C1248 C1245 1.405 . S
C1248 H1258 0.930 . S
C1249 C1246 1.372 1_545 S
C1249 C1247 1.390 . S
C1249 H1259 0.935 . S
C1250 O1230 1.255 . S
C1250 O1231 1.257 . S
C1251 Eu1187 2.787 . S
C1251 O1226 1.252 . S
C1251 O1229 1.268 . S
C1251 C1244 1.506 . S
H1252 C1235 0.931 . S
H1253 C1236 0.931 . S
H1254 C1237 0.929 . S
H1255 C1238 0.930 . S
H1256 C1246 0.931 . S
H1257 C1247 0.931 . S
H1258 C1248 0.930 . S
H1259 C1249 0.935 . S
Eu1260 N1289 2.600 . S
Eu1260 N1295 2.562 . S
Eu1260 O1304 2.462 . S
Eu1260 O1305 2.373 . S
Eu1260 O1307 2.432 . S
Eu1260 O1308 2.291 . S
Eu1260 O1312 2.335 . S
Eu1260 O1315 2.372 . S
Eu1260 C1324 2.787 . S
C1261 N1262 1.365 . S
C1261 C1264 1.405 . S
C1261 C1268 1.448 . S
N1262 C1261 1.365 . S
N1262 C1265 1.319 . S
N1262 Eu1271 2.600 . S
C1263 C1265 1.397 . S
C1263 C1266 1.367 . S
C1263 H1283 0.931 . S
C1264 C1261 1.405 . S
C1264 C1266 1.403 . S
C1264 C1270 1.439 . S
C1265 N1262 1.319 . S
C1265 C1263 1.397 . S
C1265 H1276 0.930 . S
C1266 C1263 1.367 . S
C1266 C1264 1.403 . S
C1266 H1287 0.929 . S
C1267 C1268 1.430 . S
C1267 C1269 1.387 . S
C1267 C1273 1.404 . S
C1268 C1261 1.448 . S
C1268 C1267 1.430 . S
C1268 N1272 1.351 . S
C1269 C1267 1.387 . S
C1269 C1270 1.374 . S
C1269 H1284 0.931 . S
C1270 C1264 1.439 . S
C1270 C1269 1.374 . S
C1270 H1285 0.931 . S
Eu1271 N1262 2.600 . S
Eu1271 N1272 2.562 . S
Eu1271 O1306 2.335 . S
Eu1271 O1309 2.372 . S
Eu1271 O1310 2.462 . S
Eu1271 O1311 2.373 . S
Eu1271 O1313 2.432 . S
Eu1271 O1314 2.291 . S
Eu1271 C1335 2.787 . S
N1272 C1268 1.351 . S
N1272 Eu1271 2.562 . S
N1272 C1274 1.325 . S
C1273 C1267 1.404 . S
C1273 C1275 1.366 . S
C1273 H1281 0.930 . S
C1274 N1272 1.325 . S
C1274 C1275 1.416 . S
C1274 H1280 0.929 . S
C1275 C1273 1.366 . S
C1275 C1274 1.416 . S
C1275 H1277 0.930 . S
H1276 C1265 0.930 . S
H1277 C1275 0.930 . S
H1278 C1293 0.930 . S
H1279 C1300 0.930 . S
H1280 C1274 0.929 . S
H1281 C1273 0.930 . S
H1282 C1296 0.929 . S
H1283 C1263 0.931 . S
H1284 C1269 0.931 . S
H1285 C1270 0.931 . S
H1286 C1291 0.931 . S
H1287 C1266 0.929 . S
H1288 C1299 0.930 1_565 S
N1289 Eu1260 2.600 . S
N1289 C1290 1.365 . S
N1289 C1293 1.319 . S
C1290 N1289 1.365 . S
C1290 C1292 1.405 . S
C1290 C1298 1.448 . S
C1291 H1286 0.931 . S
C1291 C1293 1.397 . S
C1291 C1294 1.367 . S
C1292 C1290 1.405 . S
C1292 C1294 1.403 . S
C1292 C1325 1.439 . S
C1293 H1278 0.930 . S
C1293 N1289 1.319 . S
C1293 C1291 1.397 . S
C1294 C1291 1.367 . S
C1294 C1292 1.403 . S
C1294 H1301 0.929 . S
N1295 Eu1260 2.562 . S
N1295 C1296 1.325 . S
N1295 C1298 1.351 . S
C1296 H1282 0.929 . S
C1296 N1295 1.325 . S
C1296 C1300 1.416 . S
C1297 C1298 1.430 . S
C1297 C1299 1.404 . S
C1297 C1326 1.387 . S
C1298 C1290 1.448 . S
C1298 N1295 1.351 . S
C1298 C1297 1.430 . S
C1299 H1288 0.930 1_545 S
C1299 C1297 1.404 . S
C1299 C1300 1.366 . S
C1300 H1279 0.930 . S
C1300 C1296 1.416 . S
C1300 C1299 1.366 . S
H1301 C1294 0.929 . S
H1302 C1325 0.931 . S
H1303 C1326 0.931 1_565 S
O1304 Eu1260 2.462 . S
O1304 C1324 1.252 . S
O1305 Eu1260 2.373 . S
O1305 C1316 1.249 . S
O1306 Eu1271 2.335 . S
O1306 C1316 1.264 . S
O1307 Eu1260 2.432 . S
O1307 C1324 1.268 . S
O1308 Eu1260 2.291 . S
O1308 C1323 1.255 . S
O1309 Eu1271 2.372 . S
O1309 C1323 1.257 . S
O1310 Eu1271 2.462 . S
O1310 C1335 1.252 . S
O1311 Eu1271 2.373 . S
O1311 C1327 1.249 . S
O1312 Eu1260 2.335 . S
O1312 C1327 1.264 . S
O1313 Eu1271 2.432 . S
O1313 C1335 1.268 . S
O1314 Eu1271 2.291 . S
O1314 C1334 1.255 . S
O1315 Eu1260 2.372 . S
O1315 C1334 1.257 . S
C1316 O1305 1.249 . S
C1316 O1306 1.264 . S
C1317 C1320 1.382 . S
C1317 C1322 1.390 1_545 S
C1317 C1324 1.506 . S
C1318 C1319 1.398 . S
C1318 C1322 1.392 . S
C1319 C1318 1.398 . S
C1319 C1321 1.372 . S
C1319 H1336 0.931 . S
C1320 C1317 1.382 . S
C1320 C1321 1.390 1_545 S
C1320 H1337 0.931 . S
C1321 C1319 1.372 . S
C1321 C1320 1.390 1_565 S
C1321 H1338 0.929 . S
C1322 C1317 1.390 1_565 S
C1322 C1318 1.392 . S
C1322 H1339 0.930 1_565 S
C1323 O1308 1.255 . S
C1323 O1309 1.257 . S
C1324 Eu1260 2.787 . S
C1324 O1304 1.252 . S
C1324 O1307 1.268 . S
C1324 C1317 1.506 . S
C1325 C1292 1.439 . S
C1325 H1302 0.931 . S
C1325 C1326 1.374 . S
C1326 C1297 1.387 . S
C1326 H1303 0.931 1_545 S
C1326 C1325 1.374 . S
C1327 O1311 1.249 . S
C1327 O1312 1.264 . S
C1328 C1331 1.382 . S
C1328 C1332 1.390 . S
C1328 C1335 1.506 . S
C1329 C1330 1.398 . S
C1329 C1332 1.392 . S
C1330 C1329 1.398 . S
C1330 C1333 1.372 . S
C1330 H1340 0.931 . S
C1331 C1328 1.382 . S
C1331 C1333 1.390 . S
C1331 H1341 0.931 . S
C1332 C1328 1.390 . S
C1332 C1329 1.392 . S
C1332 H1342 0.930 . S
C1333 C1330 1.372 . S
C1333 C1331 1.390 . S
C1333 H1343 0.929 . S
C1334 O1314 1.255 . S
C1334 O1315 1.257 . S
C1335 Eu1271 2.787 . S
C1335 O1310 1.252 . S
C1335 O1313 1.268 . S
C1335 C1328 1.506 . S
H1336 C1319 0.931 . S
H1337 C1320 0.931 . S
H1338 C1321 0.929 . S
H1339 C1322 0.930 1_545 S
H1340 C1330 0.931 . S
H1341 C1331 0.931 . S
H1342 C1332 0.930 . S
H1343 C1333 0.929 . S
Eu1344 N1373 2.600 . S
Eu1344 N1379 2.562 . S
Eu1344 O1388 2.462 . S
Eu1344 O1389 2.373 . S
Eu1344 O1391 2.432 . S
Eu1344 O1392 2.291 . S
Eu1344 O1396 2.335 . S
Eu1344 O1399 2.372 . S
Eu1344 C1408 2.787 . S
C1345 N1346 1.365 . S
C1345 C1348 1.405 . S
C1345 C1352 1.448 . S
N1346 C1345 1.365 . S
N1346 C1349 1.319 . S
N1346 Eu1355 2.600 . S
C1347 C1349 1.397 . S
C1347 C1350 1.367 . S
C1347 H1367 0.931 . S
C1348 C1345 1.405 . S
C1348 C1350 1.403 . S
C1348 C1354 1.439 . S
C1349 N1346 1.319 . S
C1349 C1347 1.397 . S
C1349 H1360 0.930 . S
C1350 C1347 1.367 . S
C1350 C1348 1.403 . S
C1350 H1371 0.929 . S
C1351 C1352 1.430 . S
C1351 C1353 1.387 . S
C1351 C1357 1.404 . S
C1352 C1345 1.448 . S
C1352 C1351 1.430 . S
C1352 N1356 1.351 . S
C1353 C1351 1.387 . S
C1353 C1354 1.374 . S
C1353 H1368 0.931 1_545 S
C1354 C1348 1.439 . S
C1354 C1353 1.374 . S
C1354 H1369 0.931 1_545 S
Eu1355 N1346 2.600 . S
Eu1355 N1356 2.562 . S
Eu1355 O1390 2.335 . S
Eu1355 O1393 2.372 . S
Eu1355 O1394 2.462 . S
Eu1355 O1395 2.373 . S
Eu1355 O1397 2.432 . S
Eu1355 O1398 2.291 . S
Eu1355 C1419 2.787 . S
N1356 C1352 1.351 . S
N1356 Eu1355 2.562 . S
N1356 C1358 1.325 . S
C1357 C1351 1.404 . S
C1357 C1359 1.366 . S
C1357 H1365 0.930 1_545 S
C1358 N1356 1.325 . S
C1358 C1359 1.416 . S
C1358 H1364 0.929 . S
C1359 C1357 1.366 . S
C1359 C1358 1.416 . S
C1359 H1361 0.930 . S
H1360 C1349 0.930 . S
H1361 C1359 0.930 . S
H1362 C1377 0.930 . S
H1363 C1384 0.930 . S
H1364 C1358 0.929 . S
H1365 C1357 0.930 1_565 S
H1366 C1380 0.929 . S
H1367 C1347 0.931 . S
H1368 C1353 0.931 1_565 S
H1369 C1354 0.931 1_565 S
H1370 C1375 0.931 . S
H1371 C1350 0.929 . S
H1372 C1383 0.930 . S
N1373 Eu1344 2.600 . S
N1373 C1374 1.365 . S
N1373 C1377 1.319 . S
C1374 N1373 1.365 . S
C1374 C1376 1.405 . S
C1374 C1382 1.448 . S
C1375 H1370 0.931 . S
C1375 C1377 1.397 . S
C1375 C1378 1.367 . S
C1376 C1374 1.405 . S
C1376 C1378 1.403 . S
C1376 C1409 1.439 1_655 S
C1377 H1362 0.930 . S
C1377 N1373 1.319 . S
C1377 C1375 1.397 . S
C1378 C1375 1.367 . S
C1378 C1376 1.403 . S
C1378 H1385 0.929 . S
N1379 Eu1344 2.562 . S
N1379 C1380 1.325 . S
N1379 C1382 1.351 . S
C1380 H1366 0.929 . S
C1380 N1379 1.325 . S
C1380 C1384 1.416 1_655 S
C1381 C1382 1.430 1_455 S
C1381 C1383 1.404 . S
C1381 C1410 1.387 . S
C1382 C1374 1.448 . S
C1382 N1379 1.351 . S
C1382 C1381 1.430 1_655 S
C1383 H1372 0.930 . S
C1383 C1381 1.404 . S
C1383 C1384 1.366 . S
C1384 H1363 0.930 . S
C1384 C1380 1.416 1_455 S
C1384 C1383 1.366 . S
H1385 C1378 0.929 . S
H1386 C1409 0.931 . S
H1387 C1410 0.931 . S
O1388 Eu1344 2.462 . S
O1388 C1408 1.252 . S
O1389 Eu1344 2.373 . S
O1389 C1400 1.249 . S
O1390 Eu1355 2.335 . S
O1390 C1400 1.264 . S
O1391 Eu1344 2.432 . S
O1391 C1408 1.268 . S
O1392 Eu1344 2.291 . S
O1392 C1407 1.255 . S
O1393 Eu1355 2.372 . S
O1393 C1407 1.257 . S
O1394 Eu1355 2.462 . S
O1394 C1419 1.252 . S
O1395 Eu1355 2.373 . S
O1395 C1411 1.249 . S
O1396 Eu1344 2.335 . S
O1396 C1411 1.264 . S
O1397 Eu1355 2.432 . S
O1397 C1419 1.268 . S
O1398 Eu1355 2.291 . S
O1398 C1418 1.255 . S
O1399 Eu1344 2.372 . S
O1399 C1418 1.257 . S
C1400 O1389 1.249 . S
C1400 O1390 1.264 . S
C1401 C1404 1.382 . S
C1401 C1406 1.390 . S
C1401 C1408 1.506 1_455 S
C1402 C1403 1.398 . S
C1402 C1406 1.392 . S
C1403 C1402 1.398 . S
C1403 C1405 1.372 . S
C1403 H1420 0.931 . S
C1404 C1401 1.382 . S
C1404 C1405 1.390 . S
C1404 H1421 0.931 . S
C1405 C1403 1.372 . S
C1405 C1404 1.390 . S
C1405 H1422 0.929 . S
C1406 C1401 1.390 . S
C1406 C1402 1.392 . S
C1406 H1423 0.930 . S
C1407 O1392 1.255 . S
C1407 O1393 1.257 . S
C1408 Eu1344 2.787 . S
C1408 O1388 1.252 . S
C1408 O1391 1.268 . S
C1408 C1401 1.506 1_655 S
C1409 C1376 1.439 1_455 S
C1409 H1386 0.931 . S
C1409 C1410 1.374 . S
C1410 C1381 1.387 . S
C1410 H1387 0.931 . S
C1410 C1409 1.374 . S
C1411 O1395 1.249 . S
C1411 O1396 1.264 . S
C1412 C1415 1.382 . S
C1412 C1416 1.390 . S
C1412 C1419 1.506 . S
C1413 C1414 1.398 . S
C1413 C1416 1.392 . S
C1414 C1413 1.398 . S
C1414 C1417 1.372 . S
C1414 H1424 0.931 . S
C1415 C1412 1.382 . S
C1415 C1417 1.390 . S
C1415 H1425 0.931 . S
C1416 C1412 1.390 . S
C1416 C1413 1.392 . S
C1416 H1426 0.930 . S
C1417 C1414 1.372 . S
C1417 C1415 1.390 . S
C1417 H1427 0.929 . S
C1418 O1398 1.255 . S
C1418 O1399 1.257 . S
C1419 Eu1355 2.787 . S
C1419 O1394 1.252 . S
C1419 O1397 1.268 . S
C1419 C1412 1.506 . S
H1420 C1403 0.931 . S
H1421 C1404 0.931 . S
H1422 C1405 0.929 . S
H1423 C1406 0.930 . S
H1424 C1414 0.931 . S
H1425 C1415 0.931 . S
H1426 C1416 0.930 . S
H1427 C1417 0.929 . S
Eu1428 N1457 2.600 . S
Eu1428 N1463 2.562 . S
Eu1428 O1472 2.462 . S
Eu1428 O1473 2.373 . S
Eu1428 O1475 2.432 . S
Eu1428 O1476 2.291 . S
Eu1428 O1480 2.335 . S
Eu1428 O1483 2.372 . S
Eu1428 C1492 2.787 . S
C1429 N1430 1.365 . S
C1429 C1432 1.405 . S
C1429 C1436 1.448 . S
N1430 C1429 1.365 . S
N1430 C1433 1.319 . S
N1430 Eu1439 2.600 . S
C1431 C1433 1.397 . S
C1431 C1434 1.367 . S
C1431 H1451 0.931 . S
C1432 C1429 1.405 . S
C1432 C1434 1.403 . S
C1432 C1438 1.439 1_655 S
C1433 N1430 1.319 . S
C1433 C1431 1.397 . S
C1433 H1444 0.930 . S
C1434 C1431 1.367 . S
C1434 C1432 1.403 . S
C1434 H1455 0.929 . S
C1435 C1436 1.430 1_455 S
C1435 C1437 1.387 . S
C1435 C1441 1.404 . S
C1436 C1429 1.448 . S
C1436 C1435 1.430 1_655 S
C1436 N1440 1.351 . S
C1437 C1435 1.387 . S
C1437 C1438 1.374 . S
C1437 H1452 0.931 . S
C1438 C1432 1.439 1_455 S
C1438 C1437 1.374 . S
C1438 H1453 0.931 . S
Eu1439 N1430 2.600 . S
Eu1439 N1440 2.562 . S
Eu1439 O1474 2.335 . S
Eu1439 O1477 2.372 . S
Eu1439 O1478 2.462 . S
Eu1439 O1479 2.373 . S
Eu1439 O1481 2.432 . S
Eu1439 O1482 2.291 . S
Eu1439 C1503 2.787 . S
N1440 C1436 1.351 . S
N1440 Eu1439 2.562 . S
N1440 C1442 1.325 . S
C1441 C1435 1.404 . S
C1441 C1443 1.366 1_455 S
C1441 H1449 0.930 . S
C1442 N1440 1.325 . S
C1442 C1443 1.416 . S
C1442 H1448 0.929 . S
C1443 C1441 1.366 1_655 S
C1443 C1442 1.416 . S
C1443 H1445 0.940 . S
H1444 C1433 0.930 . S
H1445 C1443 0.940 . S
H1446 C1461 0.930 . S
H1447 C1468 0.930 . S
H1448 C1442 0.929 . S
H1449 C1441 0.930 . S
H1450 C1464 0.929 . S
H1451 C1431 0.931 . S
H1452 C1437 0.931 . S
H1453 C1438 0.931 . S
H1454 C1459 0.931 . S
H1455 C1434 0.929 . S
H1456 C1467 0.930 . S
N1457 Eu1428 2.600 . S
N1457 C1458 1.365 . S
N1457 C1461 1.319 . S
C1458 N1457 1.365 . S
C1458 C1460 1.405 . S
C1458 C1466 1.448 . S
C1459 H1454 0.931 . S
C1459 C1461 1.397 . S
C1459 C1462 1.367 . S
C1460 C1458 1.405 . S
C1460 C1462 1.403 . S
C1460 C1493 1.439 . S
C1461 H1446 0.930 . S
C1461 N1457 1.319 . S
C1461 C1459 1.397 . S
C1462 C1459 1.367 . S
C1462 C1460 1.403 . S
C1462 H1469 0.929 . S
N1463 Eu1428 2.562 . S
N1463 C1464 1.325 . S
N1463 C1466 1.351 . S
C1464 H1450 0.929 . S
C1464 N1463 1.325 . S
C1464 C1468 1.416 . S
C1465 C1466 1.430 . S
C1465 C1467 1.404 . S
C1465 C1494 1.387 . S
C1466 C1458 1.448 . S
C1466 N1463 1.351 . S
C1466 C1465 1.430 . S
C1467 H1456 0.930 . S
C1467 C1465 1.404 . S
C1467 C1468 1.366 . S
C1468 H1447 0.930 . S
C1468 C1464 1.416 . S
C1468 C1467 1.366 . S
H1469 C1462 0.929 . S
H1470 C1493 0.931 . S
H1471 C1494 0.931 . S
O1472 Eu1428 2.462 . S
O1472 C1492 1.252 . S
O1473 Eu1428 2.373 . S
O1473 C1484 1.249 . S
O1474 Eu1439 2.335 . S
O1474 C1484 1.264 . S
O1475 Eu1428 2.432 . S
O1475 C1492 1.268 . S
O1476 Eu1428 2.291 . S
O1476 C1491 1.255 . S
O1477 Eu1439 2.372 . S
O1477 C1491 1.257 . S
O1478 Eu1439 2.462 . S
O1478 C1503 1.252 . S
O1479 Eu1439 2.373 . S
O1479 C1495 1.249 . S
O1480 Eu1428 2.335 . S
O1480 C1495 1.264 . S
O1481 Eu1439 2.432 . S
O1481 C1503 1.268 . S
O1482 Eu1439 2.291 . S
O1482 C1502 1.255 . S
O1483 Eu1428 2.372 . S
O1483 C1502 1.257 . S
C1484 O1473 1.249 . S
C1484 O1474 1.264 . S
C1485 C1488 1.382 . S
C1485 C1490 1.390 . S
C1485 C1492 1.506 . S
C1486 C1487 1.398 . S
C1486 C1490 1.392 . S
C1487 C1486 1.398 . S
C1487 C1489 1.372 . S
C1487 H1504 0.931 . S
C1488 C1485 1.382 . S
C1488 C1489 1.390 . S
C1488 H1505 0.931 . S
C1489 C1487 1.372 . S
C1489 C1488 1.390 . S
C1489 H1506 0.929 . S
C1490 C1485 1.390 . S
C1490 C1486 1.392 . S
C1490 H1507 0.930 . S
C1491 O1476 1.255 . S
C1491 O1477 1.257 . S
C1492 Eu1428 2.787 . S
C1492 O1472 1.252 . S
C1492 O1475 1.268 . S
C1492 C1485 1.506 . S
C1493 C1460 1.439 . S
C1493 H1470 0.931 . S
C1493 C1494 1.374 . S
C1494 C1465 1.387 . S
C1494 H1471 0.931 . S
C1494 C1493 1.374 . S
C1495 O1479 1.249 . S
C1495 O1480 1.264 . S
C1496 C1499 1.382 . S
C1496 C1500 1.390 . S
C1496 C1503 1.506 . S
C1497 C1498 1.398 . S
C1497 C1500 1.392 . S
C1498 C1497 1.398 . S
C1498 C1501 1.372 . S
C1498 H1508 0.931 . S
C1499 C1496 1.382 . S
C1499 C1501 1.390 . S
C1499 H1509 0.931 . S
C1500 C1496 1.390 . S
C1500 C1497 1.392 . S
C1500 H1510 0.930 . S
C1501 C1498 1.372 . S
C1501 C1499 1.390 . S
C1501 H1511 0.929 . S
C1502 O1482 1.255 . S
C1502 O1483 1.257 . S
C1503 Eu1439 2.787 . S
C1503 O1478 1.252 . S
C1503 O1481 1.268 . S
C1503 C1496 1.506 . S
H1504 C1487 0.931 . S
H1505 C1488 0.931 . S
H1506 C1489 0.929 . S
H1507 C1490 0.930 . S
H1508 C1498 0.931 . S
H1509 C1499 0.931 . S
H1510 C1500 0.930 . S
H1511 C1501 0.929 . S
H1512 C1520 0.950 . S
H1513 C1525 0.950 . S
H1514 C1522 0.950 . S
H1515 C1524 0.950 . S
H1516 C1526 0.950 . S
H1517 C1528 0.950 . S
H1518 C1530 0.950 . S
H1519 C1531 0.950 . S
C1520 H1512 0.950 . S
C1520 C1521 1.386 . S
C1520 C1522 1.391 . S
C1521 C1520 1.386 . S
C1521 C1525 1.393 . S
C1522 H1514 0.950 . S
C1522 C1520 1.391 . S
C1522 C1523 1.400 . S
C1523 C1522 1.400 . S
C1523 C1524 1.398 . S
C1523 C1529 1.491 . S
C1524 H1515 0.950 . S
C1524 C1523 1.398 . S
C1524 C1525 1.391 . S
C1525 H1513 0.950 . S
C1525 C1521 1.393 . S
C1525 C1524 1.391 . S
C1526 H1516 0.950 . S
C1526 C1527 1.386 . S
C1526 C1528 1.391 . S
C1527 C1526 1.386 . S
C1527 C1531 1.393 . S
C1528 H1517 0.950 . S
C1528 C1526 1.391 . S
C1528 C1529 1.400 . S
C1529 C1523 1.491 . S
C1529 C1528 1.400 . S
C1529 C1530 1.398 . S
C1530 H1518 0.950 . S
C1530 C1529 1.398 . S
C1530 C1531 1.391 . S
C1531 H1519 0.950 . S
C1531 C1527 1.393 . S
C1531 C1530 1.391 . S
H1532 C1540 0.950 . S
H1533 C1545 0.950 . S
H1534 C1542 0.950 . S
H1535 C1544 0.950 . S
H1536 C1546 0.950 . S
H1537 C1548 0.950 . S
H1538 C1550 0.950 . S
H1539 C1551 0.950 . S
C1540 H1532 0.950 . S
C1540 C1541 1.386 . S
C1540 C1542 1.391 . S
C1541 C1540 1.386 . S
C1541 C1545 1.393 . S
C1542 H1534 0.950 . S
C1542 C1540 1.391 . S
C1542 C1543 1.400 . S
C1543 C1542 1.400 . S
C1543 C1544 1.398 . S
C1543 C1549 1.491 . S
C1544 H1535 0.950 . S
C1544 C1543 1.398 . S
C1544 C1545 1.391 . S
C1545 H1533 0.950 . S
C1545 C1541 1.393 . S
C1545 C1544 1.391 . S
C1546 H1536 0.950 . S
C1546 C1547 1.386 . S
C1546 C1548 1.391 . S
C1547 C1546 1.386 . S
C1547 C1551 1.393 . S
C1548 H1537 0.950 . S
C1548 C1546 1.391 . S
C1548 C1549 1.400 . S
C1549 C1543 1.491 . S
C1549 C1548 1.400 . S
C1549 C1550 1.398 . S
C1550 H1538 0.950 . S
C1550 C1549 1.398 . S
C1550 C1551 1.391 . S
C1551 H1539 0.950 . S
C1551 C1547 1.393 . S
C1551 C1550 1.391 . S
H1552 C1560 0.950 . S
H1553 C1565 0.950 . S
H1554 C1562 0.950 . S
H1555 C1564 0.950 . S
H1556 C1566 0.950 . S
H1557 C1568 0.950 . S
H1558 C1570 0.950 . S
H1559 C1571 0.950 . S
C1560 H1552 0.950 . S
C1560 C1561 1.386 . S
C1560 C1562 1.391 . S
C1561 C1560 1.386 . S
C1561 C1565 1.393 . S
C1562 H1554 0.950 . S
C1562 C1560 1.391 . S
C1562 C1563 1.400 . S
C1563 C1562 1.400 . S
C1563 C1564 1.398 . S
C1563 C1569 1.491 . S
C1564 H1555 0.950 . S
C1564 C1563 1.398 . S
C1564 C1565 1.391 . S
C1565 H1553 0.950 . S
C1565 C1561 1.393 . S
C1565 C1564 1.391 . S
C1566 H1556 0.950 . S
C1566 C1567 1.386 . S
C1566 C1568 1.391 . S
C1567 C1566 1.386 . S
C1567 C1571 1.393 . S
C1568 H1557 0.950 . S
C1568 C1566 1.391 . S
C1568 C1569 1.400 . S
C1569 C1563 1.491 . S
C1569 C1568 1.400 . S
C1569 C1570 1.398 . S
C1570 H1558 0.950 . S
C1570 C1569 1.398 . S
C1570 C1571 1.391 . S
C1571 H1559 0.950 . S
C1571 C1567 1.393 . S
C1571 C1570 1.391 . S
H1572 C1580 0.950 . S
H1573 C1585 0.950 . S
H1574 C1582 0.950 . S
H1575 C1584 0.950 . S
H1576 C1586 0.950 . S
H1577 C1588 0.950 . S
H1578 C1590 0.950 . S
H1579 C1591 0.950 . S
C1580 H1572 0.950 . S
C1580 C1581 1.386 . S
C1580 C1582 1.391 . S
C1581 C1580 1.386 . S
C1581 C1585 1.393 . S
C1582 H1574 0.950 . S
C1582 C1580 1.391 . S
C1582 C1583 1.400 . S
C1583 C1582 1.400 . S
C1583 C1584 1.398 . S
C1583 C1589 1.491 . S
C1584 H1575 0.950 . S
C1584 C1583 1.398 . S
C1584 C1585 1.391 . S
C1585 H1573 0.950 . S
C1585 C1581 1.393 . S
C1585 C1584 1.391 . S
C1586 H1576 0.950 . S
C1586 C1587 1.386 . S
C1586 C1588 1.391 . S
C1587 C1586 1.386 . S
C1587 C1591 1.393 . S
C1588 H1577 0.950 . S
C1588 C1586 1.391 . S
C1588 C1589 1.400 . S
C1589 C1583 1.491 . S
C1589 C1588 1.400 . S
C1589 C1590 1.398 . S
C1590 H1578 0.950 . S
C1590 C1589 1.398 . S
C1590 C1591 1.391 . S
C1591 H1579 0.950 . S
C1591 C1587 1.393 . S
C1591 C1590 1.391 . S
H1592 C1600 0.950 . S
H1593 C1605 0.950 . S
H1594 C1602 0.950 . S
H1595 C1604 0.950 . S
H1596 C1606 0.950 . S
H1597 C1608 0.950 . S
H1598 C1610 0.950 . S
H1599 C1611 0.950 . S
C1600 H1592 0.950 . S
C1600 C1601 1.386 . S
C1600 C1602 1.391 . S
C1601 C1600 1.386 . S
C1601 C1605 1.393 . S
C1602 H1594 0.950 . S
C1602 C1600 1.391 . S
C1602 C1603 1.400 . S
C1603 C1602 1.400 . S
C1603 C1604 1.398 . S
C1603 C1609 1.491 . S
C1604 H1595 0.950 . S
C1604 C1603 1.398 . S
C1604 C1605 1.391 . S
C1605 H1593 0.950 . S
C1605 C1601 1.393 . S
C1605 C1604 1.391 . S
C1606 H1596 0.950 . S
C1606 C1607 1.386 . S
C1606 C1608 1.391 . S
C1607 C1606 1.386 . S
C1607 C1611 1.393 . S
C1608 H1597 0.950 . S
C1608 C1606 1.391 . S
C1608 C1609 1.400 . S
C1609 C1603 1.491 . S
C1609 C1608 1.400 . S
C1609 C1610 1.398 . S
C1610 H1598 0.950 . S
C1610 C1609 1.398 . S
C1610 C1611 1.391 . S
C1611 H1599 0.950 . S
C1611 C1607 1.393 . S
C1611 C1610 1.391 . S
H1612 C1620 0.950 . S
H1613 C1625 0.950 . S
H1614 C1622 0.950 . S
H1615 C1624 0.950 . S
H1616 C1626 0.950 . S
H1617 C1628 0.950 . S
H1618 C1630 0.950 . S
H1619 C1631 0.950 . S
C1620 H1612 0.950 . S
C1620 C1621 1.386 . S
C1620 C1622 1.391 . S
C1621 C1620 1.386 . S
C1621 C1625 1.393 . S
C1622 H1614 0.950 . S
C1622 C1620 1.391 . S
C1622 C1623 1.400 . S
C1623 C1622 1.400 . S
C1623 C1624 1.398 . S
C1623 C1629 1.491 . S
C1624 H1615 0.950 . S
C1624 C1623 1.398 . S
C1624 C1625 1.391 . S
C1625 H1613 0.950 . S
C1625 C1621 1.393 . S
C1625 C1624 1.391 . S
C1626 H1616 0.950 . S
C1626 C1627 1.386 . S
C1626 C1628 1.391 . S
C1627 C1626 1.386 . S
C1627 C1631 1.393 . S
C1628 H1617 0.950 . S
C1628 C1626 1.391 . S
C1628 C1629 1.400 . S
C1629 C1623 1.491 . S
C1629 C1628 1.400 . S
C1629 C1630 1.398 . S
C1630 H1618 0.950 . S
C1630 C1629 1.398 . S
C1630 C1631 1.391 . S
C1631 H1619 0.950 . S
C1631 C1627 1.393 . S
C1631 C1630 1.391 . S
H1632 C1640 0.950 . S
H1633 C1645 0.950 . S
H1634 C1642 0.950 . S
H1635 C1644 0.950 . S
H1636 C1646 0.950 . S
H1637 C1648 0.950 . S
H1638 C1650 0.950 . S
H1639 C1651 0.950 . S
C1640 H1632 0.950 . S
C1640 C1641 1.386 . S
C1640 C1642 1.391 . S
C1641 C1640 1.386 . S
C1641 C1645 1.393 . S
C1642 H1634 0.950 . S
C1642 C1640 1.391 . S
C1642 C1643 1.400 . S
C1643 C1642 1.400 . S
C1643 C1644 1.398 . S
C1643 C1649 1.491 . S
C1644 H1635 0.950 . S
C1644 C1643 1.398 . S
C1644 C1645 1.391 . S
C1645 H1633 0.950 . S
C1645 C1641 1.393 . S
C1645 C1644 1.391 . S
C1646 H1636 0.950 . S
C1646 C1647 1.386 . S
C1646 C1648 1.391 . S
C1647 C1646 1.386 . S
C1647 C1651 1.393 . S
C1648 H1637 0.950 . S
C1648 C1646 1.391 . S
C1648 C1649 1.400 . S
C1649 C1643 1.491 . S
C1649 C1648 1.400 . S
C1649 C1650 1.398 . S
C1650 H1638 0.950 . S
C1650 C1649 1.398 . S
C1650 C1651 1.391 . S
C1651 H1639 0.950 . S
C1651 C1647 1.393 . S
C1651 C1650 1.391 . S
H1652 C1660 0.950 . S
H1653 C1665 0.950 . S
H1654 C1662 0.950 . S
H1655 C1664 0.950 . S
H1656 C1666 0.950 . S
H1657 C1668 0.950 . S
H1658 C1670 0.950 . S
H1659 C1671 0.950 . S
C1660 H1652 0.950 . S
C1660 C1661 1.386 . S
C1660 C1662 1.391 . S
C1661 C1660 1.386 . S
C1661 C1665 1.393 . S
C1662 H1654 0.950 . S
C1662 C1660 1.391 . S
C1662 C1663 1.400 . S
C1663 C1662 1.400 . S
C1663 C1664 1.398 . S
C1663 C1669 1.491 . S
C1664 H1655 0.950 . S
C1664 C1663 1.398 . S
C1664 C1665 1.391 . S
C1665 H1653 0.950 . S
C1665 C1661 1.393 . S
C1665 C1664 1.391 . S
C1666 H1656 0.950 . S
C1666 C1667 1.386 . S
C1666 C1668 1.391 1_565 S
C1667 C1666 1.386 . S
C1667 C1671 1.393 . S
C1668 H1657 0.950 . S
C1668 C1666 1.391 1_545 S
C1668 C1669 1.400 . S
C1669 C1663 1.491 . S
C1669 C1668 1.400 . S
C1669 C1670 1.398 1_545 S
C1670 H1658 0.950 . S
C1670 C1669 1.398 1_565 S
C1670 C1671 1.391 . S
C1671 H1659 0.950 . S
C1671 C1667 1.393 . S
C1671 C1670 1.391 . S
H1672 C1680 0.950 . S
H1673 C1685 0.950 . S
H1674 C1682 0.950 . S
H1675 C1684 0.950 . S
H1676 C1686 0.950 . S
H1677 C1688 0.950 . S
H1678 C1690 0.954 . S
H1679 C1691 0.950 . S
C1680 H1672 0.950 . S
C1680 C1681 1.386 . S
C1680 C1682 1.391 . S
C1681 C1680 1.386 . S
C1681 C1685 1.393 . S
C1682 H1674 0.950 . S
C1682 C1680 1.391 . S
C1682 C1683 1.400 . S
C1683 C1682 1.400 . S
C1683 C1684 1.398 . S
C1683 C1689 1.491 1_455 S
C1684 H1675 0.950 . S
C1684 C1683 1.398 . S
C1684 C1685 1.391 . S
C1685 H1673 0.950 . S
C1685 C1681 1.393 . S
C1685 C1684 1.391 . S
C1686 H1676 0.950 . S
C1686 C1687 1.386 . S
C1686 C1688 1.391 . S
C1687 C1686 1.386 . S
C1687 C1691 1.393 . S
C1688 H1677 0.950 . S
C1688 C1686 1.391 . S
C1688 C1689 1.400 . S
C1689 C1683 1.491 1_655 S
C1689 C1688 1.400 . S
C1689 C1690 1.398 . S
C1690 H1678 0.954 . S
C1690 C1689 1.398 . S
C1690 C1691 1.391 . S
C1691 H1679 0.950 . S
C1691 C1687 1.393 . S
C1691 C1690 1.391 . S
H1692 C1700 0.950 . S
H1693 C1705 0.950 . S
H1694 C1702 0.950 . S
H1695 C1704 0.950 . S
H1696 C1706 0.950 . S
H1697 C1708 0.950 . S
H1698 C1710 0.950 . S
H1699 C1711 0.950 . S
C1700 H1692 0.950 . S
C1700 C1701 1.386 . S
C1700 C1702 1.391 . S
C1701 C1700 1.386 . S
C1701 C1705 1.393 . S
C1702 H1694 0.950 . S
C1702 C1700 1.391 . S
C1702 C1703 1.400 . S
C1703 C1702 1.400 . S
C1703 C1704 1.398 . S
C1703 C1709 1.491 . S
C1704 H1695 0.950 . S
C1704 C1703 1.398 . S
C1704 C1705 1.391 . S
C1705 H1693 0.950 . S
C1705 C1701 1.393 . S
C1705 C1704 1.391 . S
C1706 H1696 0.950 . S
C1706 C1707 1.386 . S
C1706 C1708 1.391 . S
C1707 C1706 1.386 . S
C1707 C1711 1.393 . S
C1708 H1697 0.950 . S
C1708 C1706 1.391 . S
C1708 C1709 1.400 . S
C1709 C1703 1.491 . S
C1709 C1708 1.400 . S
C1709 C1710 1.398 . S
C1710 H1698 0.950 . S
C1710 C1709 1.398 . S
C1710 C1711 1.391 . S
C1711 H1699 0.950 . S
C1711 C1707 1.393 . S
C1711 C1710 1.391 . S
H1712 C1720 0.950 . S
H1713 C1725 0.950 . S
H1714 C1722 0.950 . S
H1715 C1724 0.950 . S
H1716 C1726 0.950 . S
H1717 C1728 0.950 . S
H1718 C1730 0.950 . S
H1719 C1731 0.950 . S
C1720 H1712 0.950 . S
C1720 C1721 1.386 . S
C1720 C1722 1.391 . S
C1721 C1720 1.386 . S
C1721 C1725 1.393 . S
C1722 H1714 0.950 . S
C1722 C1720 1.391 . S
C1722 C1723 1.400 . S
C1723 C1722 1.400 . S
C1723 C1724 1.398 . S
C1723 C1729 1.491 . S
C1724 H1715 0.950 . S
C1724 C1723 1.398 . S
C1724 C1725 1.391 . S
C1725 H1713 0.950 . S
C1725 C1721 1.393 . S
C1725 C1724 1.391 . S
C1726 H1716 0.950 . S
C1726 C1727 1.386 . S
C1726 C1728 1.391 . S
C1727 C1726 1.386 . S
C1727 C1731 1.393 . S
C1728 H1717 0.950 . S
C1728 C1726 1.391 . S
C1728 C1729 1.400 . S
C1729 C1723 1.491 . S
C1729 C1728 1.400 . S
C1729 C1730 1.398 . S
C1730 H1718 0.950 . S
C1730 C1729 1.398 . S
C1730 C1731 1.391 . S
C1731 H1719 0.950 . S
C1731 C1727 1.393 . S
C1731 C1730 1.391 . S
H1732 C1740 0.950 . S
H1733 C1745 0.950 . S
H1734 C1742 0.950 . S
H1735 C1744 0.950 . S
H1736 C1746 0.950 . S
H1737 C1748 0.950 . S
H1738 C1750 0.950 . S
H1739 C1751 0.950 . S
C1740 H1732 0.950 . S
C1740 C1741 1.386 . S
C1740 C1742 1.391 . S
C1741 C1740 1.386 . S
C1741 C1745 1.393 . S
C1742 H1734 0.950 . S
C1742 C1740 1.391 . S
C1742 C1743 1.400 . S
C1743 C1742 1.400 . S
C1743 C1744 1.398 . S
C1743 C1749 1.491 . S
C1744 H1735 0.950 . S
C1744 C1743 1.398 . S
C1744 C1745 1.391 . S
C1745 H1733 0.950 . S
C1745 C1741 1.393 . S
C1745 C1744 1.391 . S
C1746 H1736 0.950 . S
C1746 C1747 1.386 . S
C1746 C1748 1.391 . S
C1747 C1746 1.386 . S
C1747 C1751 1.393 . S
C1748 H1737 0.950 . S
C1748 C1746 1.391 . S
C1748 C1749 1.400 . S
C1749 C1743 1.491 . S
C1749 C1748 1.400 . S
C1749 C1750 1.398 . S
C1750 H1738 0.950 . S
C1750 C1749 1.398 . S
C1750 C1751 1.391 . S
C1751 H1739 0.950 . S
C1751 C1747 1.393 . S
C1751 C1750 1.391 . S
H1752 C1760 0.950 . S
H1753 C1765 0.950 . S
H1754 C1762 0.950 . S
H1755 C1764 0.950 . S
H1756 C1766 0.950 . S
H1757 C1768 0.950 . S
H1758 C1770 0.950 . S
H1759 C1771 0.950 . S
C1760 H1752 0.950 . S
C1760 C1761 1.386 . S
C1760 C1762 1.391 . S
C1761 C1760 1.386 . S
C1761 C1765 1.393 . S
C1762 H1754 0.950 . S
C1762 C1760 1.391 . S
C1762 C1763 1.400 . S
C1763 C1762 1.400 . S
C1763 C1764 1.398 . S
C1763 C1769 1.491 . S
C1764 H1755 0.950 . S
C1764 C1763 1.398 . S
C1764 C1765 1.391 . S
C1765 H1753 0.950 . S
C1765 C1761 1.393 . S
C1765 C1764 1.391 . S
C1766 H1756 0.950 . S
C1766 C1767 1.386 . S
C1766 C1768 1.391 . S
C1767 C1766 1.386 . S
C1767 C1771 1.393 . S
C1768 H1757 0.950 . S
C1768 C1766 1.391 . S
C1768 C1769 1.400 . S
C1769 C1763 1.491 . S
C1769 C1768 1.400 . S
C1769 C1770 1.398 . S
C1770 H1758 0.950 . S
C1770 C1769 1.398 . S
C1770 C1771 1.391 . S
C1771 H1759 0.950 . S
C1771 C1767 1.393 . S
C1771 C1770 1.391 . S
H1772 C1780 0.950 . S
H1773 C1785 0.950 . S
H1774 C1782 0.950 . S
H1775 C1784 0.950 . S
H1776 C1786 0.950 . S
H1777 C1788 0.950 . S
H1778 C1790 0.950 . S
H1779 C1791 0.950 . S
C1780 H1772 0.950 . S
C1780 C1781 1.386 . S
C1780 C1782 1.391 . S
C1781 C1780 1.386 . S
C1781 C1785 1.393 . S
C1782 H1774 0.950 . S
C1782 C1780 1.391 . S
C1782 C1783 1.400 . S
C1783 C1782 1.400 . S
C1783 C1784 1.398 . S
C1783 C1789 1.491 . S
C1784 H1775 0.950 . S
C1784 C1783 1.398 . S
C1784 C1785 1.391 . S
C1785 H1773 0.950 . S
C1785 C1781 1.393 . S
C1785 C1784 1.391 . S
C1786 H1776 0.950 . S
C1786 C1787 1.386 . S
C1786 C1788 1.391 . S
C1787 C1786 1.386 . S
C1787 C1791 1.393 . S
C1788 H1777 0.950 . S
C1788 C1786 1.391 . S
C1788 C1789 1.400 . S
C1789 C1783 1.491 . S
C1789 C1788 1.400 . S
C1789 C1790 1.398 . S
C1790 H1778 0.950 . S
C1790 C1789 1.398 . S
C1790 C1791 1.391 . S
C1791 H1779 0.950 . S
C1791 C1787 1.393 . S
C1791 C1790 1.391 . S
H1792 C1800 0.950 . S
H1793 C1805 0.950 . S
H1794 C1802 0.950 . S
H1795 C1804 0.950 . S
H1796 C1806 0.950 . S
H1797 C1808 0.950 . S
H1798 C1810 0.950 . S
H1799 C1811 0.950 . S
C1800 H1792 0.950 . S
C1800 C1801 1.386 . S
C1800 C1802 1.391 . S
C1801 C1800 1.386 . S
C1801 C1805 1.393 . S
C1802 H1794 0.950 . S
C1802 C1800 1.391 . S
C1802 C1803 1.400 . S
C1803 C1802 1.400 . S
C1803 C1804 1.398 . S
C1803 C1809 1.491 . S
C1804 H1795 0.950 . S
C1804 C1803 1.398 . S
C1804 C1805 1.391 . S
C1805 H1793 0.950 . S
C1805 C1801 1.393 . S
C1805 C1804 1.391 . S
C1806 H1796 0.950 . S
C1806 C1807 1.386 . S
C1806 C1808 1.391 . S
C1807 C1806 1.386 . S
C1807 C1811 1.393 . S
C1808 H1797 0.950 . S
C1808 C1806 1.391 . S
C1808 C1809 1.400 . S
C1809 C1803 1.491 . S
C1809 C1808 1.400 . S
C1809 C1810 1.398 . S
C1810 H1798 0.950 . S
C1810 C1809 1.398 . S
C1810 C1811 1.391 . S
C1811 H1799 0.950 . S
C1811 C1807 1.393 . S
C1811 C1810 1.391 . S
H1812 C1820 0.950 . S
H1813 C1825 0.950 . S
H1814 C1822 0.950 . S
H1815 C1824 0.950 . S
H1816 C1826 0.950 . S
H1817 C1828 0.950 . S
H1818 C1830 0.950 . S
H1819 C1831 0.950 . S
C1820 H1812 0.950 . S
C1820 C1821 1.386 . S
C1820 C1822 1.391 . S
C1821 C1820 1.386 . S
C1821 C1825 1.393 . S
C1822 H1814 0.950 . S
C1822 C1820 1.391 . S
C1822 C1823 1.400 . S
C1823 C1822 1.400 . S
C1823 C1824 1.398 . S
C1823 C1829 1.491 . S
C1824 H1815 0.950 . S
C1824 C1823 1.398 . S
C1824 C1825 1.391 . S
C1825 H1813 0.950 . S
C1825 C1821 1.393 . S
C1825 C1824 1.391 . S
C1826 H1816 0.950 . S
C1826 C1827 1.386 . S
C1826 C1828 1.391 . S
C1827 C1826 1.386 . S
C1827 C1831 1.393 . S
C1828 H1817 0.950 . S
C1828 C1826 1.391 . S
C1828 C1829 1.400 . S
C1829 C1823 1.491 . S
C1829 C1828 1.400 . S
C1829 C1830 1.398 . S
C1830 H1818 0.950 . S
C1830 C1829 1.398 . S
C1830 C1831 1.391 . S
C1831 H1819 0.950 . S
C1831 C1827 1.393 . S
C1831 C1830 1.391 . S
H1832 C1840 0.950 . S
H1833 C1845 0.950 . S
H1834 C1842 0.950 . S
H1835 C1844 0.950 . S
H1836 C1846 0.950 . S
H1837 C1848 0.950 . S
H1838 C1850 0.950 . S
H1839 C1851 0.950 . S
C1840 H1832 0.950 . S
C1840 C1841 1.386 . S
C1840 C1842 1.391 . S
C1841 C1840 1.386 . S
C1841 C1845 1.393 . S
C1842 H1834 0.950 . S
C1842 C1840 1.391 . S
C1842 C1843 1.400 . S
C1843 C1842 1.400 . S
C1843 C1844 1.398 . S
C1843 C1849 1.491 1_565 S
C1844 H1835 0.950 . S
C1844 C1843 1.398 . S
C1844 C1845 1.391 . S
C1845 H1833 0.950 . S
C1845 C1841 1.393 . S
C1845 C1844 1.391 . S
C1846 H1836 0.950 . S
C1846 C1847 1.386 . S
C1846 C1848 1.391 . S
C1847 C1846 1.386 . S
C1847 C1851 1.393 . S
C1848 H1837 0.950 . S
C1848 C1846 1.391 . S
C1848 C1849 1.400 . S
C1849 C1843 1.491 1_545 S
C1849 C1848 1.400 . S
C1849 C1850 1.398 . S
C1850 H1838 0.950 . S
C1850 C1849 1.398 . S
C1850 C1851 1.391 . S
C1851 H1839 0.950 . S
C1851 C1847 1.393 . S
C1851 C1850 1.391 . S
H1852 C1860 0.950 . S
H1853 C1865 0.950 . S
H1854 C1862 0.950 . S
H1855 C1864 0.950 . S
H1856 C1866 0.950 . S
H1857 C1868 0.950 . S
H1858 C1870 0.950 . S
H1859 C1871 0.950 . S
C1860 H1852 0.950 . S
C1860 C1861 1.386 . S
C1860 C1862 1.391 . S
C1861 C1860 1.386 . S
C1861 C1865 1.393 . S
C1862 H1854 0.950 . S
C1862 C1860 1.391 . S
C1862 C1863 1.400 . S
C1863 C1862 1.400 . S
C1863 C1864 1.398 . S
C1863 C1869 1.491 . S
C1864 H1855 0.950 . S
C1864 C1863 1.398 . S
C1864 C1865 1.391 . S
C1865 H1853 0.950 . S
C1865 C1861 1.393 . S
C1865 C1864 1.391 . S
C1866 H1856 0.950 . S
C1866 C1867 1.386 . S
C1866 C1868 1.391 . S
C1867 C1866 1.386 . S
C1867 C1871 1.393 . S
C1868 H1857 0.950 . S
C1868 C1866 1.391 . S
C1868 C1869 1.400 1_655 S
C1869 C1863 1.491 . S
C1869 C1868 1.400 1_455 S
C1869 C1870 1.398 . S
C1870 H1858 0.950 . S
C1870 C1869 1.398 . S
C1870 C1871 1.391 1_455 S
C1871 H1859 0.950 . S
C1871 C1867 1.393 . S
C1871 C1870 1.391 1_655 S
H1872 C1880 0.950 . S
H1873 C1885 0.950 . S
H1874 C1882 0.950 . S
H1875 C1884 0.950 . S
H1876 C1886 0.950 . S
H1877 C1888 0.950 . S
H1878 C1890 0.950 . S
H1879 C1891 0.950 . S
C1880 H1872 0.950 . S
C1880 C1881 1.386 . S
C1880 C1882 1.391 . S
C1881 C1880 1.386 . S
C1881 C1885 1.393 . S
C1882 H1874 0.950 . S
C1882 C1880 1.391 . S
C1882 C1883 1.400 . S
C1883 C1882 1.400 . S
C1883 C1884 1.398 . S
C1883 C1889 1.491 1_554 S
C1884 H1875 0.950 . S
C1884 C1883 1.398 . S
C1884 C1885 1.391 . S
C1885 H1873 0.950 . S
C1885 C1881 1.393 . S
C1885 C1884 1.391 . S
C1886 H1876 0.950 . S
C1886 C1887 1.386 . S
C1886 C1888 1.391 . S
C1887 C1886 1.386 . S
C1887 C1891 1.393 . S
C1888 H1877 0.950 . S
C1888 C1886 1.391 . S
C1888 C1889 1.400 . S
C1889 C1883 1.491 1_556 S
C1889 C1888 1.400 . S
C1889 C1890 1.398 . S
C1890 H1878 0.950 . S
C1890 C1889 1.398 . S
C1890 C1891 1.391 . S
C1891 H1879 0.950 . S
C1891 C1887 1.393 . S
C1891 C1890 1.391 . S
H1892 C1900 0.950 . S
H1893 C1905 0.950 . S
H1894 C1902 0.950 . S
H1895 C1904 0.950 . S
H1896 C1906 0.950 . S
H1897 C1908 0.950 . S
H1898 C1910 0.950 . S
H1899 C1911 0.950 . S
C1900 H1892 0.950 . S
C1900 C1901 1.386 . S
C1900 C1902 1.391 . S
C1901 C1900 1.386 . S
C1901 C1905 1.393 1_455 S
C1902 H1894 0.950 . S
C1902 C1900 1.391 . S
C1902 C1903 1.400 . S
C1903 C1902 1.400 . S
C1903 C1904 1.398 1_455 S
C1903 C1909 1.491 1_556 S
C1904 H1895 0.950 . S
C1904 C1903 1.398 1_655 S
C1904 C1905 1.391 . S
C1905 H1893 0.950 . S
C1905 C1901 1.393 1_655 S
C1905 C1904 1.391 . S
C1906 H1896 0.950 . S
C1906 C1907 1.386 1_655 S
C1906 C1908 1.391 . S
C1907 C1906 1.386 1_455 S
C1907 C1911 1.393 . S
C1908 H1897 0.950 . S
C1908 C1906 1.391 . S
C1908 C1909 1.400 1_655 S
C1909 C1903 1.491 1_554 S
C1909 C1908 1.400 1_455 S
C1909 C1910 1.398 . S
C1910 H1898 0.950 . S
C1910 C1909 1.398 . S
C1910 C1911 1.391 . S
C1911 H1899 0.950 . S
C1911 C1907 1.393 . S
C1911 C1910 1.391 . S
H1912 C1920 0.950 . S
H1913 C1925 0.950 . S
H1914 C1922 0.950 . S
H1915 C1924 0.950 . S
H1916 C1926 0.950 . S
H1917 C1928 0.950 . S
H1918 C1930 0.950 . S
H1919 C1931 0.950 . S
C1920 H1912 0.950 . S
C1920 C1921 1.386 . S
C1920 C1922 1.391 . S
C1921 C1920 1.386 . S
C1921 C1925 1.393 . S
C1922 H1914 0.950 . S
C1922 C1920 1.391 . S
C1922 C1923 1.400 . S
C1923 C1922 1.400 . S
C1923 C1924 1.398 . S
C1923 C1929 1.491 1_556 S
C1924 H1915 0.950 . S
C1924 C1923 1.398 . S
C1924 C1925 1.391 . S
C1925 H1913 0.950 . S
C1925 C1921 1.393 . S
C1925 C1924 1.391 . S
C1926 H1916 0.950 . S
C1926 C1927 1.386 . S
C1926 C1928 1.391 . S
C1927 C1926 1.386 . S
C1927 C1931 1.393 . S
C1928 H1917 0.950 . S
C1928 C1926 1.391 . S
C1928 C1929 1.400 . S
C1929 C1923 1.491 1_554 S
C1929 C1928 1.400 . S
C1929 C1930 1.398 . S
C1930 H1918 0.950 . S
C1930 C1929 1.398 . S
C1930 C1931 1.391 . S
C1931 H1919 0.950 . S
C1931 C1927 1.393 . S
C1931 C1930 1.391 . S
H1932 C1940 0.950 . S
H1933 C1945 0.950 . S
H1934 C1942 0.950 . S
H1935 C1944 0.950 . S
H1936 C1946 0.950 . S
H1937 C1948 0.950 . S
H1938 C1950 0.950 . S
H1939 C1951 0.950 . S
C1940 H1932 0.950 . S
C1940 C1941 1.386 . S
C1940 C1942 1.391 . S
C1941 C1940 1.386 . S
C1941 C1945 1.393 . S
C1942 H1934 0.950 . S
C1942 C1940 1.391 . S
C1942 C1943 1.400 . S
C1943 C1942 1.400 . S
C1943 C1944 1.398 . S
C1943 C1949 1.491 . S
C1944 H1935 0.950 . S
C1944 C1943 1.398 . S
C1944 C1945 1.391 . S
C1945 H1933 0.950 . S
C1945 C1941 1.393 . S
C1945 C1944 1.391 . S
C1946 H1936 0.950 . S
C1946 C1947 1.386 . S
C1946 C1948 1.391 . S
C1947 C1946 1.386 . S
C1947 C1951 1.393 . S
C1948 H1937 0.950 . S
C1948 C1946 1.391 . S
C1948 C1949 1.400 . S
C1949 C1943 1.491 . S
C1949 C1948 1.400 . S
C1949 C1950 1.398 . S
C1950 H1938 0.950 . S
C1950 C1949 1.398 . S
C1950 C1951 1.391 . S
C1951 H1939 0.950 . S
C1951 C1947 1.393 . S
C1951 C1950 1.391 . S
H1952 C1960 0.950 . S
H1953 C1965 0.950 . S
H1954 C1962 0.950 . S
H1955 C1964 0.950 . S
H1956 C1966 0.950 . S
H1957 C1968 0.950 . S
H1958 C1970 0.950 . S
H1959 C1971 0.950 . S
C1960 H1952 0.950 . S
C1960 C1961 1.386 . S
C1960 C1962 1.391 . S
C1961 C1960 1.386 . S
C1961 C1965 1.393 . S
C1962 H1954 0.950 . S
C1962 C1960 1.391 . S
C1962 C1963 1.400 . S
C1963 C1962 1.400 . S
C1963 C1964 1.398 . S
C1963 C1969 1.491 . S
C1964 H1955 0.950 . S
C1964 C1963 1.398 . S
C1964 C1965 1.391 . S
C1965 H1953 0.950 . S
C1965 C1961 1.393 . S
C1965 C1964 1.391 . S
C1966 H1956 0.950 . S
C1966 C1967 1.386 . S
C1966 C1968 1.391 . S
C1967 C1966 1.386 . S
C1967 C1971 1.393 . S
C1968 H1957 0.950 . S
C1968 C1966 1.391 . S
C1968 C1969 1.400 . S
C1969 C1963 1.491 . S
C1969 C1968 1.400 . S
C1969 C1970 1.398 . S
C1970 H1958 0.950 . S
C1970 C1969 1.398 . S
C1970 C1971 1.391 . S
C1971 H1959 0.950 . S
C1971 C1967 1.393 . S
C1971 C1970 1.391 . S
H1972 C1980 0.950 . S
H1973 C1985 0.950 . S
H1974 C1982 0.950 . S
H1975 C1984 0.950 . S
H1976 C1986 0.950 . S
H1977 C1988 0.950 . S
H1978 C1990 0.950 . S
H1979 C1991 0.950 . S
C1980 H1972 0.950 . S
C1980 C1981 1.386 . S
C1980 C1982 1.391 . S
C1981 C1980 1.386 . S
C1981 C1985 1.393 . S
C1982 H1974 0.950 . S
C1982 C1980 1.391 . S
C1982 C1983 1.400 . S
C1983 C1982 1.400 . S
C1983 C1984 1.398 . S
C1983 C1989 1.491 . S
C1984 H1975 0.950 . S
C1984 C1983 1.398 . S
C1984 C1985 1.391 . S
C1985 H1973 0.950 . S
C1985 C1981 1.393 . S
C1985 C1984 1.391 . S
C1986 H1976 0.950 . S
C1986 C1987 1.386 . S
C1986 C1988 1.391 . S
C1987 C1986 1.386 . S
C1987 C1991 1.393 . S
C1988 H1977 0.950 . S
C1988 C1986 1.391 . S
C1988 C1989 1.400 . S
C1989 C1983 1.491 . S
C1989 C1988 1.400 . S
C1989 C1990 1.398 . S
C1990 H1978 0.950 . S
C1990 C1989 1.398 . S
C1990 C1991 1.391 . S
C1991 H1979 0.950 . S
C1991 C1987 1.393 . S
C1991 C1990 1.391 . S
H1992 C2000 0.950 . S
H1993 C2005 0.950 . S
H1994 C2002 0.950 . S
H1995 C2004 0.950 . S
H1996 C2006 0.950 . S
H1997 C2008 0.950 . S
H1998 C2010 0.950 . S
H1999 C2011 0.950 . S
C2000 H1992 0.950 . S
C2000 C2001 1.386 . S
C2000 C2002 1.391 . S
C2001 C2000 1.386 . S
C2001 C2005 1.393 . S
C2002 H1994 0.950 . S
C2002 C2000 1.391 . S
C2002 C2003 1.400 . S
C2003 C2002 1.400 . S
C2003 C2004 1.398 . S
C2003 C2009 1.491 . S
C2004 H1995 0.950 . S
C2004 C2003 1.398 . S
C2004 C2005 1.391 . S
C2005 H1993 0.950 . S
C2005 C2001 1.393 . S
C2005 C2004 1.391 . S
C2006 H1996 0.950 . S
C2006 C2007 1.386 . S
C2006 C2008 1.391 . S
C2007 C2006 1.386 . S
C2007 C2011 1.393 . S
C2008 H1997 0.950 . S
C2008 C2006 1.391 . S
C2008 C2009 1.400 . S
C2009 C2003 1.491 . S
C2009 C2008 1.400 . S
C2009 C2010 1.398 . S
C2010 H1998 0.950 . S
C2010 C2009 1.398 . S
C2010 C2011 1.391 . S
C2011 H1999 0.950 . S
C2011 C2007 1.393 . S
C2011 C2010 1.391 . S
H2012 C2020 0.950 . S
H2013 C2025 0.950 . S
H2014 C2022 0.950 . S
H2015 C2024 0.950 . S
H2016 C2026 0.950 . S
H2017 C2028 0.950 . S
H2018 C2030 0.950 . S
H2019 C2031 0.950 . S
C2020 H2012 0.950 . S
C2020 C2021 1.386 . S
C2020 C2022 1.391 . S
C2021 C2020 1.386 . S
C2021 C2025 1.393 . S
C2022 H2014 0.950 . S
C2022 C2020 1.391 . S
C2022 C2023 1.400 . S
C2023 C2022 1.400 . S
C2023 C2024 1.398 . S
C2023 C2029 1.491 . S
C2024 H2015 0.950 . S
C2024 C2023 1.398 . S
C2024 C2025 1.391 . S
C2025 H2013 0.950 . S
C2025 C2021 1.393 . S
C2025 C2024 1.391 . S
C2026 H2016 0.950 . S
C2026 C2027 1.386 . S
C2026 C2028 1.391 . S
C2027 C2026 1.386 . S
C2027 C2031 1.393 . S
C2028 H2017 0.950 . S
C2028 C2026 1.391 . S
C2028 C2029 1.400 . S
C2029 C2023 1.491 . S
C2029 C2028 1.400 . S
C2029 C2030 1.398 . S
C2030 H2018 0.950 . S
C2030 C2029 1.398 . S
C2030 C2031 1.391 . S
C2031 H2019 0.950 . S
C2031 C2027 1.393 . S
C2031 C2030 1.391 . S
H2032 C2040 0.950 . S
H2033 C2045 0.950 . S
H2034 C2042 0.950 . S
H2035 C2044 0.950 . S
H2036 C2046 0.950 . S
H2037 C2048 0.950 . S
H2038 C2050 0.950 . S
H2039 C2051 0.950 . S
C2040 H2032 0.950 . S
C2040 C2041 1.386 . S
C2040 C2042 1.391 . S
C2041 C2040 1.386 . S
C2041 C2045 1.393 . S
C2042 H2034 0.950 . S
C2042 C2040 1.391 . S
C2042 C2043 1.400 . S
C2043 C2042 1.400 . S
C2043 C2044 1.398 . S
C2043 C2049 1.491 . S
C2044 H2035 0.950 . S
C2044 C2043 1.398 . S
C2044 C2045 1.391 . S
C2045 H2033 0.950 . S
C2045 C2041 1.393 . S
C2045 C2044 1.391 . S
C2046 H2036 0.950 . S
C2046 C2047 1.386 . S
C2046 C2048 1.391 . S
C2047 C2046 1.386 . S
C2047 C2051 1.393 . S
C2048 H2037 0.950 . S
C2048 C2046 1.391 . S
C2048 C2049 1.400 . S
C2049 C2043 1.491 . S
C2049 C2048 1.400 . S
C2049 C2050 1.398 . S
C2050 H2038 0.950 . S
C2050 C2049 1.398 . S
C2050 C2051 1.391 . S
C2051 H2039 0.950 . S
C2051 C2047 1.393 . S
C2051 C2050 1.391 . S
H2052 C2060 0.950 . S
H2053 C2065 0.950 . S
H2054 C2062 0.950 . S
H2055 C2064 0.950 . S
H2056 C2066 0.950 . S
H2057 C2068 0.950 . S
H2058 C2070 0.950 . S
H2059 C2071 0.950 . S
C2060 H2052 0.950 . S
C2060 C2061 1.386 . S
C2060 C2062 1.391 . S
C2061 C2060 1.386 . S
C2061 C2065 1.393 . S
C2062 H2054 0.950 . S
C2062 C2060 1.391 . S
C2062 C2063 1.400 . S
C2063 C2062 1.400 . S
C2063 C2064 1.398 . S
C2063 C2069 1.491 . S
C2064 H2055 0.950 . S
C2064 C2063 1.398 . S
C2064 C2065 1.391 . S
C2065 H2053 0.950 . S
C2065 C2061 1.393 . S
C2065 C2064 1.391 . S
C2066 H2056 0.950 . S
C2066 C2067 1.386 . S
C2066 C2068 1.391 . S
C2067 C2066 1.386 . S
C2067 C2071 1.393 . S
C2068 H2057 0.950 . S
C2068 C2066 1.391 . S
C2068 C2069 1.400 . S
C2069 C2063 1.491 . S
C2069 C2068 1.400 . S
C2069 C2070 1.398 . S
C2070 H2058 0.950 . S
C2070 C2069 1.398 . S
C2070 C2071 1.391 . S
C2071 H2059 0.950 . S
C2071 C2067 1.393 . S
C2071 C2070 1.391 . S
H2072 C2080 0.950 . S
H2073 C2085 0.950 . S
H2074 C2082 0.950 . S
H2075 C2084 0.950 . S
H2076 C2086 0.950 . S
H2077 C2088 0.950 . S
H2078 C2090 0.950 . S
H2079 C2091 0.950 . S
C2080 H2072 0.950 . S
C2080 C2081 1.386 . S
C2080 C2082 1.391 . S
C2081 C2080 1.386 . S
C2081 C2085 1.393 . S
C2082 H2074 0.950 . S
C2082 C2080 1.391 . S
C2082 C2083 1.400 . S
C2083 C2082 1.400 . S
C2083 C2084 1.398 . S
C2083 C2089 1.491 . S
C2084 H2075 0.950 . S
C2084 C2083 1.398 . S
C2084 C2085 1.391 . S
C2085 H2073 0.950 . S
C2085 C2081 1.393 . S
C2085 C2084 1.391 . S
C2086 H2076 0.950 . S
C2086 C2087 1.386 . S
C2086 C2088 1.391 . S
C2087 C2086 1.386 . S
C2087 C2091 1.393 . S
C2088 H2077 0.950 . S
C2088 C2086 1.391 . S
C2088 C2089 1.400 . S
C2089 C2083 1.491 . S
C2089 C2088 1.400 . S
C2089 C2090 1.398 . S
C2090 H2078 0.950 . S
C2090 C2089 1.398 . S
C2090 C2091 1.391 . S
C2091 H2079 0.950 . S
C2091 C2087 1.393 . S
C2091 C2090 1.391 . S
H2092 C2100 0.950 . S
H2093 C2105 0.950 . S
H2094 C2102 0.950 . S
H2095 C2104 0.950 . S
H2096 C2106 0.950 . S
H2097 C2108 0.950 . S
H2098 C2110 0.950 . S
H2099 C2111 0.950 . S
C2100 H2092 0.950 . S
C2100 C2101 1.386 . S
C2100 C2102 1.391 . S
C2101 C2100 1.386 . S
C2101 C2105 1.393 . S
C2102 H2094 0.950 . S
C2102 C2100 1.391 . S
C2102 C2103 1.400 . S
C2103 C2102 1.400 . S
C2103 C2104 1.398 . S
C2103 C2109 1.491 . S
C2104 H2095 0.950 . S
C2104 C2103 1.398 . S
C2104 C2105 1.391 . S
C2105 H2093 0.950 . S
C2105 C2101 1.393 . S
C2105 C2104 1.391 . S
C2106 H2096 0.950 . S
C2106 C2107 1.386 . S
C2106 C2108 1.391 . S
C2107 C2106 1.386 . S
C2107 C2111 1.393 . S
C2108 H2097 0.950 . S
C2108 C2106 1.391 . S
C2108 C2109 1.400 . S
C2109 C2103 1.491 . S
C2109 C2108 1.400 . S
C2109 C2110 1.398 . S
C2110 H2098 0.950 . S
C2110 C2109 1.398 . S
C2110 C2111 1.391 . S
C2111 H2099 0.950 . S
C2111 C2107 1.393 . S
C2111 C2110 1.391 . S
H2112 C2120 0.950 . S
H2113 C2125 0.950 1_455 S
H2114 C2122 0.950 . S
H2115 C2124 0.950 . S
H2116 C2126 0.950 . S
H2117 C2128 0.950 . S
H2118 C2130 0.950 . S
H2119 C2131 0.950 . S
C2120 H2112 0.950 . S
C2120 C2121 1.386 . S
C2120 C2122 1.391 . S
C2121 C2120 1.386 . S
C2121 C2125 1.393 . S
C2122 H2114 0.950 . S
C2122 C2120 1.391 . S
C2122 C2123 1.400 . S
C2123 C2122 1.400 . S
C2123 C2124 1.398 . S
C2123 C2129 1.491 . S
C2124 H2115 0.950 . S
C2124 C2123 1.398 . S
C2124 C2125 1.391 . S
C2125 H2113 0.950 1_655 S
C2125 C2121 1.393 . S
C2125 C2124 1.391 . S
C2126 H2116 0.950 . S
C2126 C2127 1.386 . S
C2126 C2128 1.391 . S
C2127 C2126 1.386 . S
C2127 C2131 1.393 . S
C2128 H2117 0.950 . S
C2128 C2126 1.391 . S
C2128 C2129 1.400 . S
C2129 C2123 1.491 . S
C2129 C2128 1.400 . S
C2129 C2130 1.398 . S
C2130 H2118 0.950 . S
C2130 C2129 1.398 . S
C2130 C2131 1.391 . S
C2131 H2119 0.950 . S
C2131 C2127 1.393 . S
C2131 C2130 1.391 . S
H2132 C2140 0.950 . S
H2133 C2145 0.950 . S
H2134 C2142 0.950 . S
H2135 C2144 0.950 . S
H2136 C2146 0.950 . S
H2137 C2148 0.950 . S
H2138 C2150 0.950 . S
H2139 C2151 0.950 . S
C2140 H2132 0.950 . S
C2140 C2141 1.386 . S
C2140 C2142 1.391 . S
C2141 C2140 1.386 . S
C2141 C2145 1.393 . S
C2142 H2134 0.950 . S
C2142 C2140 1.391 . S
C2142 C2143 1.400 . S
C2143 C2142 1.400 . S
C2143 C2144 1.398 . S
C2143 C2149 1.491 . S
C2144 H2135 0.950 . S
C2144 C2143 1.398 . S
C2144 C2145 1.391 . S
C2145 H2133 0.950 . S
C2145 C2141 1.393 . S
C2145 C2144 1.391 . S
C2146 H2136 0.950 . S
C2146 C2147 1.386 . S
C2146 C2148 1.391 . S
C2147 C2146 1.386 . S
C2147 C2151 1.393 . S
C2148 H2137 0.950 . S
C2148 C2146 1.391 . S
C2148 C2149 1.400 . S
C2149 C2143 1.491 . S
C2149 C2148 1.400 . S
C2149 C2150 1.398 . S
C2150 H2138 0.950 . S
C2150 C2149 1.398 . S
C2150 C2151 1.391 . S
C2151 H2139 0.950 . S
C2151 C2147 1.393 . S
C2151 C2150 1.391 . S
H2152 C2160 0.950 . S
H2153 C2165 0.950 . S
H2154 C2162 0.950 . S
H2155 C2164 0.950 . S
H2156 C2166 0.950 . S
H2157 C2168 0.950 . S
H2158 C2170 0.950 . S
H2159 C2171 0.950 . S
C2160 H2152 0.950 . S
C2160 C2161 1.386 . S
C2160 C2162 1.391 . S
C2161 C2160 1.386 . S
C2161 C2165 1.393 . S
C2162 H2154 0.950 . S
C2162 C2160 1.391 . S
C2162 C2163 1.400 . S
C2163 C2162 1.400 . S
C2163 C2164 1.398 . S
C2163 C2169 1.491 . S
C2164 H2155 0.950 . S
C2164 C2163 1.398 . S
C2164 C2165 1.391 . S
C2165 H2153 0.950 . S
C2165 C2161 1.393 . S
C2165 C2164 1.391 . S
C2166 H2156 0.950 . S
C2166 C2167 1.386 . S
C2166 C2168 1.391 . S
C2167 C2166 1.386 . S
C2167 C2171 1.393 . S
C2168 H2157 0.950 . S
C2168 C2166 1.391 . S
C2168 C2169 1.400 . S
C2169 C2163 1.491 . S
C2169 C2168 1.400 . S
C2169 C2170 1.398 . S
C2170 H2158 0.950 . S
C2170 C2169 1.398 . S
C2170 C2171 1.391 . S
C2171 H2159 0.950 . S
C2171 C2167 1.393 . S
C2171 C2170 1.391 . S
H2172 C2180 0.950 . S
H2173 C2185 0.950 . S
H2174 C2182 0.950 . S
H2175 C2184 0.950 1_455 S
H2176 C2186 0.950 . S
H2177 C2188 0.950 . S
H2178 C2190 0.950 . S
H2179 C2191 0.950 . S
C2180 H2172 0.950 . S
C2180 C2181 1.386 . S
C2180 C2182 1.391 . S
C2181 C2180 1.386 . S
C2181 C2185 1.393 . S
C2182 H2174 0.950 . S
C2182 C2180 1.391 . S
C2182 C2183 1.400 1_655 S
C2183 C2182 1.400 1_455 S
C2183 C2184 1.398 1_455 S
C2183 C2189 1.491 . S
C2184 H2175 0.950 1_655 S
C2184 C2183 1.398 1_655 S
C2184 C2185 1.391 . S
C2185 H2173 0.950 . S
C2185 C2181 1.393 . S
C2185 C2184 1.391 . S
C2186 H2176 0.950 . S
C2186 C2187 1.386 . S
C2186 C2188 1.391 . S
C2187 C2186 1.386 . S
C2187 C2191 1.393 . S
C2188 H2177 0.950 . S
C2188 C2186 1.391 . S
C2188 C2189 1.400 . S
C2189 C2183 1.491 . S
C2189 C2188 1.400 . S
C2189 C2190 1.398 . S
C2190 H2178 0.950 . S
C2190 C2189 1.398 . S
C2190 C2191 1.391 . S
C2191 H2179 0.950 . S
C2191 C2187 1.393 . S
C2191 C2190 1.391 . S
H2192 C2200 0.950 . S
H2193 C2205 0.950 . S
H2194 C2202 0.950 . S
H2195 C2204 0.950 . S
H2196 C2206 0.950 . S
H2197 C2208 0.950 . S
H2198 C2210 0.950 . S
H2199 C2211 0.950 . S
C2200 H2192 0.950 . S
C2200 C2201 1.386 . S
C2200 C2202 1.391 . S
C2201 C2200 1.386 . S
C2201 C2205 1.393 . S
C2202 H2194 0.950 . S
C2202 C2200 1.391 . S
C2202 C2203 1.400 . S
C2203 C2202 1.400 . S
C2203 C2204 1.398 . S
C2203 C2209 1.491 . S
C2204 H2195 0.950 . S
C2204 C2203 1.398 . S
C2204 C2205 1.391 . S
C2205 H2193 0.950 . S
C2205 C2201 1.393 . S
C2205 C2204 1.391 . S
C2206 H2196 0.950 . S
C2206 C2207 1.386 . S
C2206 C2208 1.391 . S
C2207 C2206 1.386 . S
C2207 C2211 1.393 . S
C2208 H2197 0.950 . S
C2208 C2206 1.391 . S
C2208 C2209 1.400 . S
C2209 C2203 1.491 . S
C2209 C2208 1.400 . S
C2209 C2210 1.398 . S
C2210 H2198 0.950 . S
C2210 C2209 1.398 . S
C2210 C2211 1.391 . S
C2211 H2199 0.950 . S
C2211 C2207 1.393 . S
C2211 C2210 1.391 . S
H2212 C2220 0.950 . S
H2213 C2225 0.950 . S
H2214 C2222 0.950 . S
H2215 C2224 0.950 . S
H2216 C2226 0.950 . S
H2217 C2228 0.950 . S
H2218 C2230 0.950 . S
H2219 C2231 0.950 . S
C2220 H2212 0.950 . S
C2220 C2221 1.386 . S
C2220 C2222 1.391 1_565 S
C2221 C2220 1.386 . S
C2221 C2225 1.393 . S
C2222 H2214 0.950 . S
C2222 C2220 1.391 1_545 S
C2222 C2223 1.400 . S
C2223 C2222 1.400 . S
C2223 C2224 1.398 1_545 S
C2223 C2229 1.491 . S
C2224 H2215 0.950 . S
C2224 C2223 1.398 1_565 S
C2224 C2225 1.391 . S
C2225 H2213 0.950 . S
C2225 C2221 1.393 . S
C2225 C2224 1.391 . S
C2226 H2216 0.950 . S
C2226 C2227 1.386 . S
C2226 C2228 1.391 . S
C2227 C2226 1.386 . S
C2227 C2231 1.393 . S
C2228 H2217 0.950 . S
C2228 C2226 1.391 . S
C2228 C2229 1.400 . S
C2229 C2223 1.491 . S
C2229 C2228 1.400 . S
C2229 C2230 1.398 . S
C2230 H2218 0.950 . S
C2230 C2229 1.398 . S
C2230 C2231 1.391 . S
C2231 H2219 0.950 . S
C2231 C2227 1.393 . S
C2231 C2230 1.391 . S
H2232 C2240 0.950 . S
H2233 C2245 0.950 . S
H2234 C2242 0.950 . S
H2235 C2244 0.950 . S
H2236 C2246 0.950 . S
H2237 C2248 0.950 . S
H2238 C2250 0.950 . S
H2239 C2251 0.950 . S
C2240 H2232 0.950 . S
C2240 C2241 1.386 . S
C2240 C2242 1.391 . S
C2241 C2240 1.386 . S
C2241 C2245 1.393 . S
C2242 H2234 0.950 . S
C2242 C2240 1.391 . S
C2242 C2243 1.400 . S
C2243 C2242 1.400 . S
C2243 C2244 1.398 . S
C2243 C2249 1.491 . S
C2244 H2235 0.950 . S
C2244 C2243 1.398 . S
C2244 C2245 1.391 . S
C2245 H2233 0.950 . S
C2245 C2241 1.393 . S
C2245 C2244 1.391 . S
C2246 H2236 0.950 . S
C2246 C2247 1.386 . S
C2246 C2248 1.391 . S
C2247 C2246 1.386 . S
C2247 C2251 1.393 . S
C2248 H2237 0.950 . S
C2248 C2246 1.391 . S
C2248 C2249 1.400 . S
C2249 C2243 1.491 . S
C2249 C2248 1.400 . S
C2249 C2250 1.398 . S
C2250 H2238 0.950 . S
C2250 C2249 1.398 . S
C2250 C2251 1.391 . S
C2251 H2239 0.950 . S
C2251 C2247 1.393 . S
C2251 C2250 1.391 . S
H2252 C2260 0.950 . S
H2253 C2265 0.950 . S
H2254 C2262 0.950 . S
H2255 C2264 0.950 . S
H2256 C2266 0.950 . S
H2257 C2268 0.950 . S
H2258 C2270 0.950 . S
H2259 C2271 0.950 . S
C2260 H2252 0.950 . S
C2260 C2261 1.386 . S
C2260 C2262 1.391 . S
C2261 C2260 1.386 . S
C2261 C2265 1.393 . S
C2262 H2254 0.950 . S
C2262 C2260 1.391 . S
C2262 C2263 1.400 . S
C2263 C2262 1.400 . S
C2263 C2264 1.398 . S
C2263 C2269 1.491 . S
C2264 H2255 0.950 . S
C2264 C2263 1.398 . S
C2264 C2265 1.391 . S
C2265 H2253 0.950 . S
C2265 C2261 1.393 . S
C2265 C2264 1.391 . S
C2266 H2256 0.950 . S
C2266 C2267 1.386 . S
C2266 C2268 1.391 . S
C2267 C2266 1.386 . S
C2267 C2271 1.393 . S
C2268 H2257 0.950 . S
C2268 C2266 1.391 . S
C2268 C2269 1.400 . S
C2269 C2263 1.491 . S
C2269 C2268 1.400 . S
C2269 C2270 1.398 . S
C2270 H2258 0.950 . S
C2270 C2269 1.398 . S
C2270 C2271 1.391 . S
C2271 H2259 0.950 . S
C2271 C2267 1.393 . S
C2271 C2270 1.391 . S
H2272 C2280 0.950 . S
H2273 C2285 0.950 . S
H2274 C2282 0.950 . S
H2275 C2284 0.950 . S
H2276 C2286 0.950 . S
H2277 C2288 0.950 . S
H2278 C2290 0.950 . S
H2279 C2291 0.950 . S
C2280 H2272 0.950 . S
C2280 C2281 1.386 . S
C2280 C2282 1.391 . S
C2281 C2280 1.386 . S
C2281 C2285 1.393 . S
C2282 H2274 0.950 . S
C2282 C2280 1.391 . S
C2282 C2283 1.400 . S
C2283 C2282 1.400 . S
C2283 C2284 1.398 . S
C2283 C2289 1.491 . S
C2284 H2275 0.950 . S
C2284 C2283 1.398 . S
C2284 C2285 1.391 . S
C2285 H2273 0.950 . S
C2285 C2281 1.393 . S
C2285 C2284 1.391 . S
C2286 H2276 0.950 . S
C2286 C2287 1.386 . S
C2286 C2288 1.391 . S
C2287 C2286 1.386 . S
C2287 C2291 1.393 . S
C2288 H2277 0.950 . S
C2288 C2286 1.391 . S
C2288 C2289 1.400 . S
C2289 C2283 1.491 . S
C2289 C2288 1.400 . S
C2289 C2290 1.398 . S
C2290 H2278 0.950 . S
C2290 C2289 1.398 . S
C2290 C2291 1.391 . S
C2291 H2279 0.950 . S
C2291 C2287 1.393 . S
C2291 C2290 1.391 . S
H2292 C2300 0.950 . S
H2293 C2305 0.950 . S
H2294 C2302 0.950 . S
H2295 C2304 0.950 . S
H2296 C2306 0.950 . S
H2297 C2308 0.950 . S
H2298 C2310 0.950 . S
H2299 C2311 0.950 . S
C2300 H2292 0.950 . S
C2300 C2301 1.386 . S
C2300 C2302 1.391 . S
C2301 C2300 1.386 . S
C2301 C2305 1.393 . S
C2302 H2294 0.950 . S
C2302 C2300 1.391 . S
C2302 C2303 1.400 . S
C2303 C2302 1.400 . S
C2303 C2304 1.398 . S
C2303 C2309 1.491 . S
C2304 H2295 0.950 . S
C2304 C2303 1.398 . S
C2304 C2305 1.391 . S
C2305 H2293 0.950 . S
C2305 C2301 1.393 . S
C2305 C2304 1.391 . S
C2306 H2296 0.950 . S
C2306 C2307 1.386 . S
C2306 C2308 1.391 . S
C2307 C2306 1.386 . S
C2307 C2311 1.393 . S
C2308 H2297 0.950 . S
C2308 C2306 1.391 . S
C2308 C2309 1.400 . S
C2309 C2303 1.491 . S
C2309 C2308 1.400 . S
C2309 C2310 1.398 . S
C2310 H2298 0.950 . S
C2310 C2309 1.398 . S
C2310 C2311 1.391 . S
C2311 H2299 0.950 . S
C2311 C2307 1.393 . S
C2311 C2310 1.391 . S
H2312 C2320 0.950 . S
H2313 C2325 0.950 . S
H2314 C2322 0.950 . S
H2315 C2324 0.950 . S
H2316 C2326 0.950 . S
H2317 C2328 0.950 . S
H2318 C2330 0.950 . S
H2319 C2331 0.950 . S
C2320 H2312 0.950 . S
C2320 C2321 1.386 . S
C2320 C2322 1.391 . S
C2321 C2320 1.386 . S
C2321 C2325 1.393 . S
C2322 H2314 0.950 . S
C2322 C2320 1.391 . S
C2322 C2323 1.400 . S
C2323 C2322 1.400 . S
C2323 C2324 1.398 . S
C2323 C2329 1.491 . S
C2324 H2315 0.950 . S
C2324 C2323 1.398 . S
C2324 C2325 1.391 . S
C2325 H2313 0.950 . S
C2325 C2321 1.393 . S
C2325 C2324 1.391 . S
C2326 H2316 0.950 . S
C2326 C2327 1.386 . S
C2326 C2328 1.391 . S
C2327 C2326 1.386 . S
C2327 C2331 1.393 . S
C2328 H2317 0.950 . S
C2328 C2326 1.391 . S
C2328 C2329 1.400 . S
C2329 C2323 1.491 . S
C2329 C2328 1.400 . S
C2329 C2330 1.398 . S
C2330 H2318 0.950 . S
C2330 C2329 1.398 . S
C2330 C2331 1.391 . S
C2331 H2319 0.950 . S
C2331 C2327 1.393 . S
C2331 C2330 1.391 . S
H2332 C2340 0.950 . S
H2333 C2345 0.950 . S
H2334 C2342 0.950 . S
H2335 C2344 0.950 . S
H2336 C2346 0.950 . S
H2337 C2348 0.950 . S
H2338 C2350 0.950 . S
H2339 C2351 0.950 . S
C2340 H2332 0.950 . S
C2340 C2341 1.386 . S
C2340 C2342 1.391 . S
C2341 C2340 1.386 . S
C2341 C2345 1.393 . S
C2342 H2334 0.950 . S
C2342 C2340 1.391 . S
C2342 C2343 1.400 . S
C2343 C2342 1.400 . S
C2343 C2344 1.398 . S
C2343 C2349 1.491 . S
C2344 H2335 0.950 . S
C2344 C2343 1.398 . S
C2344 C2345 1.391 . S
C2345 H2333 0.950 . S
C2345 C2341 1.393 . S
C2345 C2344 1.391 . S
C2346 H2336 0.950 . S
C2346 C2347 1.386 . S
C2346 C2348 1.391 . S
C2347 C2346 1.386 . S
C2347 C2351 1.393 . S
C2348 H2337 0.950 . S
C2348 C2346 1.391 . S
C2348 C2349 1.400 . S
C2349 C2343 1.491 . S
C2349 C2348 1.400 . S
C2349 C2350 1.398 . S
C2350 H2338 0.950 . S
C2350 C2349 1.398 . S
C2350 C2351 1.391 . S
C2351 H2339 0.950 . S
C2351 C2347 1.393 . S
C2351 C2350 1.391 . S
H2352 C2360 0.950 . S
H2353 C2365 0.950 . S
H2354 C2362 0.950 . S
H2355 C2364 0.950 . S
H2356 C2366 0.950 . S
H2357 C2368 0.950 . S
H2358 C2370 0.950 . S
H2359 C2371 0.950 . S
C2360 H2352 0.950 . S
C2360 C2361 1.386 . S
C2360 C2362 1.391 . S
C2361 C2360 1.386 . S
C2361 C2365 1.393 . S
C2362 H2354 0.950 . S
C2362 C2360 1.391 . S
C2362 C2363 1.400 . S
C2363 C2362 1.400 . S
C2363 C2364 1.398 . S
C2363 C2369 1.491 . S
C2364 H2355 0.950 . S
C2364 C2363 1.398 . S
C2364 C2365 1.391 . S
C2365 H2353 0.950 . S
C2365 C2361 1.393 . S
C2365 C2364 1.391 . S
C2366 H2356 0.950 . S
C2366 C2367 1.386 . S
C2366 C2368 1.391 . S
C2367 C2366 1.386 . S
C2367 C2371 1.393 . S
C2368 H2357 0.950 . S
C2368 C2366 1.391 . S
C2368 C2369 1.400 . S
C2369 C2363 1.491 . S
C2369 C2368 1.400 . S
C2369 C2370 1.398 . S
C2370 H2358 0.950 . S
C2370 C2369 1.398 . S
C2370 C2371 1.391 . S
C2371 H2359 0.950 . S
C2371 C2367 1.393 . S
C2371 C2370 1.391 . S
H2372 C2380 0.950 . S
H2373 C2385 0.950 . S
H2374 C2382 0.950 . S
H2375 C2384 0.950 . S
H2376 C2386 0.950 . S
H2377 C2388 0.950 . S
H2378 C2390 0.950 . S
H2379 C2391 0.950 . S
C2380 H2372 0.950 . S
C2380 C2381 1.386 . S
C2380 C2382 1.391 . S
C2381 C2380 1.386 . S
C2381 C2385 1.393 . S
C2382 H2374 0.950 . S
C2382 C2380 1.391 . S
C2382 C2383 1.400 . S
C2383 C2382 1.400 . S
C2383 C2384 1.398 . S
C2383 C2389 1.491 . S
C2384 H2375 0.950 . S
C2384 C2383 1.398 . S
C2384 C2385 1.391 . S
C2385 H2373 0.950 . S
C2385 C2381 1.393 . S
C2385 C2384 1.391 . S
C2386 H2376 0.950 . S
C2386 C2387 1.386 . S
C2386 C2388 1.391 . S
C2387 C2386 1.386 . S
C2387 C2391 1.393 . S
C2388 H2377 0.950 . S
C2388 C2386 1.391 . S
C2388 C2389 1.400 . S
C2389 C2383 1.491 . S
C2389 C2388 1.400 . S
C2389 C2390 1.398 . S
C2390 H2378 0.950 . S
C2390 C2389 1.398 . S
C2390 C2391 1.391 . S
C2391 H2379 0.950 . S
C2391 C2387 1.393 . S
C2391 C2390 1.391 . S
H2392 C2400 0.950 . S
H2393 C2405 0.950 . S
H2394 C2402 0.950 . S
H2395 C2404 0.950 . S
H2396 C2406 0.950 . S
H2397 C2408 0.950 . S
H2398 C2410 0.950 . S
H2399 C2411 0.950 . S
C2400 H2392 0.950 . S
C2400 C2401 1.386 . S
C2400 C2402 1.391 . S
C2401 C2400 1.386 . S
C2401 C2405 1.393 . S
C2402 H2394 0.950 . S
C2402 C2400 1.391 . S
C2402 C2403 1.400 . S
C2403 C2402 1.400 . S
C2403 C2404 1.398 . S
C2403 C2409 1.491 . S
C2404 H2395 0.950 . S
C2404 C2403 1.398 . S
C2404 C2405 1.391 . S
C2405 H2393 0.950 . S
C2405 C2401 1.393 . S
C2405 C2404 1.391 . S
C2406 H2396 0.950 . S
C2406 C2407 1.386 . S
C2406 C2408 1.391 . S
C2407 C2406 1.386 . S
C2407 C2411 1.393 . S
C2408 H2397 0.950 . S
C2408 C2406 1.391 . S
C2408 C2409 1.400 . S
C2409 C2403 1.491 . S
C2409 C2408 1.400 . S
C2409 C2410 1.398 . S
C2410 H2398 0.950 . S
C2410 C2409 1.398 . S
C2410 C2411 1.391 . S
C2411 H2399 0.950 . S
C2411 C2407 1.393 . S
C2411 C2410 1.391 . S
H2412 C2420 0.950 . S
H2413 C2425 0.950 . S
H2414 C2422 0.950 . S
H2415 C2424 0.950 . S
H2416 C2426 0.950 . S
H2417 C2428 0.950 . S
H2418 C2430 0.950 . S
H2419 C2431 0.950 . S
C2420 H2412 0.950 . S
C2420 C2421 1.386 . S
C2420 C2422 1.391 . S
C2421 C2420 1.386 . S
C2421 C2425 1.393 . S
C2422 H2414 0.950 . S
C2422 C2420 1.391 . S
C2422 C2423 1.400 . S
C2423 C2422 1.400 . S
C2423 C2424 1.398 . S
C2423 C2429 1.491 . S
C2424 H2415 0.950 . S
C2424 C2423 1.398 . S
C2424 C2425 1.391 . S
C2425 H2413 0.950 . S
C2425 C2421 1.393 . S
C2425 C2424 1.391 . S
C2426 H2416 0.950 . S
C2426 C2427 1.386 . S
C2426 C2428 1.391 . S
C2427 C2426 1.386 . S
C2427 C2431 1.393 . S
C2428 H2417 0.950 . S
C2428 C2426 1.391 . S
C2428 C2429 1.400 . S
C2429 C2423 1.491 . S
C2429 C2428 1.400 . S
C2429 C2430 1.398 . S
C2430 H2418 0.950 . S
C2430 C2429 1.398 . S
C2430 C2431 1.391 . S
C2431 H2419 0.950 . S
C2431 C2427 1.393 . S
C2431 C2430 1.391 . S
H2432 C2440 0.950 . S
H2433 C2445 0.950 . S
H2434 C2442 0.950 . S
H2435 C2444 0.950 . S
H2436 C2446 0.950 . S
H2437 C2448 0.950 . S
H2438 C2450 0.950 . S
H2439 C2451 0.950 . S
C2440 H2432 0.950 . S
C2440 C2441 1.386 . S
C2440 C2442 1.391 1_565 S
C2441 C2440 1.386 . S
C2441 C2445 1.393 . S
C2442 H2434 0.950 . S
C2442 C2440 1.391 1_545 S
C2442 C2443 1.400 . S
C2443 C2442 1.400 . S
C2443 C2444 1.398 . S
C2443 C2449 1.491 . S
C2444 H2435 0.950 . S
C2444 C2443 1.398 . S
C2444 C2445 1.391 1_545 S
C2445 H2433 0.950 . S
C2445 C2441 1.393 . S
C2445 C2444 1.391 1_565 S
C2446 H2436 0.950 . S
C2446 C2447 1.386 . S
C2446 C2448 1.391 . S
C2447 C2446 1.386 . S
C2447 C2451 1.393 . S
C2448 H2437 0.950 . S
C2448 C2446 1.391 . S
C2448 C2449 1.400 . S
C2449 C2443 1.491 . S
C2449 C2448 1.400 . S
C2449 C2450 1.398 . S
C2450 H2438 0.950 . S
C2450 C2449 1.398 . S
C2450 C2451 1.391 . S
C2451 H2439 0.950 . S
C2451 C2447 1.393 . S
C2451 C2450 1.391 . S
H2452 C2460 0.950 . S
H2453 C2465 0.950 . S
H2454 C2462 0.950 . S
H2455 C2464 0.950 . S
H2456 C2466 0.950 . S
H2457 C2468 0.950 . S
H2458 C2470 0.950 1_655 S
H2459 C2471 0.950 . S
C2460 H2452 0.950 . S
C2460 C2461 1.386 . S
C2460 C2462 1.391 . S
C2461 C2460 1.386 . S
C2461 C2465 1.393 . S
C2462 H2454 0.950 . S
C2462 C2460 1.391 . S
C2462 C2463 1.400 . S
C2463 C2462 1.400 . S
C2463 C2464 1.398 . S
C2463 C2469 1.491 1_655 S
C2464 H2455 0.950 . S
C2464 C2463 1.398 . S
C2464 C2465 1.391 . S
C2465 H2453 0.950 . S
C2465 C2461 1.393 . S
C2465 C2464 1.391 . S
C2466 H2456 0.950 . S
C2466 C2467 1.386 . S
C2466 C2468 1.391 . S
C2467 C2466 1.386 . S
C2467 C2471 1.393 . S
C2468 H2457 0.950 . S
C2468 C2466 1.391 . S
C2468 C2469 1.400 . S
C2469 C2463 1.491 1_455 S
C2469 C2468 1.400 . S
C2469 C2470 1.398 . S
C2470 H2458 0.950 1_455 S
C2470 C2469 1.398 . S
C2470 C2471 1.391 . S
C2471 H2459 0.950 . S
C2471 C2467 1.393 . S
C2471 C2470 1.391 . S
H2472 C2480 0.950 . S
H2473 C2485 0.950 . S
H2474 C2482 0.950 . S
H2475 C2484 0.950 . S
H2476 C2486 0.950 . S
H2477 C2488 0.950 . S
H2478 C2490 0.950 . S
H2479 C2491 0.950 . S
C2480 H2472 0.950 . S
C2480 C2481 1.386 . S
C2480 C2482 1.391 . S
C2481 C2480 1.386 . S
C2481 C2485 1.393 . S
C2482 H2474 0.950 . S
C2482 C2480 1.391 . S
C2482 C2483 1.400 . S
C2483 C2482 1.400 . S
C2483 C2484 1.398 . S
C2483 C2489 1.491 . S
C2484 H2475 0.950 . S
C2484 C2483 1.398 . S
C2484 C2485 1.391 . S
C2485 H2473 0.950 . S
C2485 C2481 1.393 . S
C2485 C2484 1.391 . S
C2486 H2476 0.950 . S
C2486 C2487 1.386 . S
C2486 C2488 1.391 . S
C2487 C2486 1.386 . S
C2487 C2491 1.393 . S
C2488 H2477 0.950 . S
C2488 C2486 1.391 . S
C2488 C2489 1.400 . S
C2489 C2483 1.491 . S
C2489 C2488 1.400 . S
C2489 C2490 1.398 . S
C2490 H2478 0.950 . S
C2490 C2489 1.398 . S
C2490 C2491 1.391 . S
C2491 H2479 0.950 . S
C2491 C2487 1.393 . S
C2491 C2490 1.391 . S
H2492 C2500 0.950 . S
H2493 C2505 0.950 . S
H2494 C2502 0.950 . S
H2495 C2504 0.950 1_565 S
H2496 C2506 0.950 . S
H2497 C2508 0.950 . S
H2498 C2510 0.950 . S
H2499 C2511 0.950 . S
C2500 H2492 0.950 . S
C2500 C2501 1.386 . S
C2500 C2502 1.391 . S
C2501 C2500 1.386 . S
C2501 C2505 1.393 . S
C2502 H2494 0.950 . S
C2502 C2500 1.391 . S
C2502 C2503 1.400 . S
C2503 C2502 1.400 . S
C2503 C2504 1.398 . S
C2503 C2509 1.491 1_545 S
C2504 H2495 0.950 1_545 S
C2504 C2503 1.398 . S
C2504 C2505 1.391 . S
C2505 H2493 0.950 . S
C2505 C2501 1.393 . S
C2505 C2504 1.391 . S
C2506 H2496 0.950 . S
C2506 C2507 1.386 . S
C2506 C2508 1.391 . S
C2507 C2506 1.386 . S
C2507 C2511 1.393 . S
C2508 H2497 0.950 . S
C2508 C2506 1.391 . S
C2508 C2509 1.400 . S
C2509 C2503 1.491 1_565 S
C2509 C2508 1.400 . S
C2509 C2510 1.398 . S
C2510 H2498 0.950 . S
C2510 C2509 1.398 . S
C2510 C2511 1.391 . S
C2511 H2499 0.950 . S
C2511 C2507 1.393 . S
C2511 C2510 1.391 . S
H2512 C2520 0.950 . S
H2513 C2525 0.950 . S
H2514 C2522 0.950 . S
H2515 C2524 0.950 . S
H2516 C2526 0.950 . S
H2517 C2528 0.950 . S
H2518 C2530 0.950 . S
H2519 C2531 0.950 . S
C2520 H2512 0.950 . S
C2520 C2521 1.386 . S
C2520 C2522 1.391 . S
C2521 C2520 1.386 . S
C2521 C2525 1.393 . S
C2522 H2514 0.950 . S
C2522 C2520 1.391 . S
C2522 C2523 1.400 . S
C2523 C2522 1.400 . S
C2523 C2524 1.398 . S
C2523 C2529 1.491 . S
C2524 H2515 0.950 . S
C2524 C2523 1.398 . S
C2524 C2525 1.391 . S
C2525 H2513 0.950 . S
C2525 C2521 1.393 . S
C2525 C2524 1.391 . S
C2526 H2516 0.950 . S
C2526 C2527 1.386 . S
C2526 C2528 1.391 1_655 S
C2527 C2526 1.386 . S
C2527 C2531 1.393 . S
C2528 H2517 0.950 . S
C2528 C2526 1.391 1_455 S
C2528 C2529 1.400 . S
C2529 C2523 1.491 . S
C2529 C2528 1.400 . S
C2529 C2530 1.398 . S
C2530 H2518 0.950 . S
C2530 C2529 1.398 . S
C2530 C2531 1.391 1_455 S
C2531 H2519 0.950 . S
C2531 C2527 1.393 . S
C2531 C2530 1.391 1_655 S
H2532 C2540 0.950 . S
H2533 C2545 0.950 . S
H2534 C2542 0.950 . S
H2535 C2544 0.950 . S
H2536 C2546 0.950 . S
H2537 C2548 0.950 . S
H2538 C2550 0.950 . S
H2539 C2551 0.950 . S
C2540 H2532 0.950 . S
C2540 C2541 1.386 . S
C2540 C2542 1.391 . S
C2541 C2540 1.386 . S
C2541 C2545 1.393 . S
C2542 H2534 0.950 . S
C2542 C2540 1.391 . S
C2542 C2543 1.400 . S
C2543 C2542 1.400 . S
C2543 C2544 1.398 . S
C2543 C2549 1.491 . S
C2544 H2535 0.950 . S
C2544 C2543 1.398 . S
C2544 C2545 1.391 . S
C2545 H2533 0.950 . S
C2545 C2541 1.393 . S
C2545 C2544 1.391 . S
C2546 H2536 0.950 . S
C2546 C2547 1.386 . S
C2546 C2548 1.391 . S
C2547 C2546 1.386 . S
C2547 C2551 1.393 . S
C2548 H2537 0.950 . S
C2548 C2546 1.391 . S
C2548 C2549 1.400 . S
C2549 C2543 1.491 . S
C2549 C2548 1.400 . S
C2549 C2550 1.398 . S
C2550 H2538 0.950 . S
C2550 C2549 1.398 . S
C2550 C2551 1.391 . S
C2551 H2539 0.950 . S
C2551 C2547 1.393 . S
C2551 C2550 1.391 . S
H2552 C2560 0.950 . S
H2553 C2565 0.950 . S
H2554 C2562 0.950 . S
H2555 C2564 0.950 . S
H2556 C2566 0.950 . S
H2557 C2568 0.950 . S
H2558 C2570 0.950 . S
H2559 C2571 0.950 . S
C2560 H2552 0.950 . S
C2560 C2561 1.386 . S
C2560 C2562 1.391 . S
C2561 C2560 1.386 . S
C2561 C2565 1.393 . S
C2562 H2554 0.950 . S
C2562 C2560 1.391 . S
C2562 C2563 1.400 . S
C2563 C2562 1.400 . S
C2563 C2564 1.398 . S
C2563 C2569 1.491 . S
C2564 H2555 0.950 . S
C2564 C2563 1.398 . S
C2564 C2565 1.391 . S
C2565 H2553 0.950 . S
C2565 C2561 1.393 . S
C2565 C2564 1.391 . S
C2566 H2556 0.950 . S
C2566 C2567 1.386 . S
C2566 C2568 1.391 . S
C2567 C2566 1.386 . S
C2567 C2571 1.393 . S
C2568 H2557 0.950 . S
C2568 C2566 1.391 . S
C2568 C2569 1.400 . S
C2569 C2563 1.491 . S
C2569 C2568 1.400 . S
C2569 C2570 1.398 . S
C2570 H2558 0.950 . S
C2570 C2569 1.398 . S
C2570 C2571 1.391 . S
C2571 H2559 0.950 . S
C2571 C2567 1.393 . S
C2571 C2570 1.391 . S
H2572 C2580 0.950 . S
H2573 C2585 0.950 . S
H2574 C2582 0.950 . S
H2575 C2584 0.950 . S
H2576 C2586 0.950 . S
H2577 C2588 0.950 . S
H2578 C2590 0.950 . S
H2579 C2591 0.950 . S
C2580 H2572 0.950 . S
C2580 C2581 1.386 . S
C2580 C2582 1.391 . S
C2581 C2580 1.386 . S
C2581 C2585 1.393 . S
C2582 H2574 0.950 . S
C2582 C2580 1.391 . S
C2582 C2583 1.400 . S
C2583 C2582 1.400 . S
C2583 C2584 1.398 . S
C2583 C2589 1.491 . S
C2584 H2575 0.950 . S
C2584 C2583 1.398 . S
C2584 C2585 1.391 . S
C2585 H2573 0.950 . S
C2585 C2581 1.393 . S
C2585 C2584 1.391 . S
C2586 H2576 0.950 . S
C2586 C2587 1.386 . S
C2586 C2588 1.391 . S
C2587 C2586 1.386 . S
C2587 C2591 1.393 . S
C2588 H2577 0.950 . S
C2588 C2586 1.391 . S
C2588 C2589 1.400 . S
C2589 C2583 1.491 . S
C2589 C2588 1.400 . S
C2589 C2590 1.398 . S
C2590 H2578 0.950 . S
C2590 C2589 1.398 . S
C2590 C2591 1.391 . S
C2591 H2579 0.950 . S
C2591 C2587 1.393 . S
C2591 C2590 1.391 . S
C1521 C67 0.975 . S
C1527 C226 0.919 . S
C1541 C58 0.915 . S
C1547 C151 0.974 . S
C1561 C142 0.865 . S
C1567 C235 0.961 . S
C1581 C319 0.960 . S
C1587 C394 0.859 . S
C1601 C478 0.883 . S
C1607 C403 0.966 . S
C1621 C487 0.960 . S
C1627 C310 0.858 . S
C1641 C730 0.868 . S
C1647 C571 0.962 . S
C1661 C562 0.919 . S
C1667 C655 0.975 . S
C1681 C739 0.974 . S
C1687 C646 0.917 . S
C1701 C898 0.854 . S
C1707 C823 0.959 . S
C1721 C907 0.976 . S
C1727 C982 0.923 . S
C1741 C814 0.862 . S
C1747 C991 0.961 . S
C1761 C1075 0.963 . S
C1767 C1234 0.871 . S
C1781 C1066 0.878 . S
C1787 C1159 0.965 . S
C1801 C1150 0.916 . S
C1807 C1243 0.974 . S
C1821 C1402 0.865 . S
C1827 C1327 0.961 . S
C1841 C1486 0.877 . S
C1847 C1411 0.965 . S
C1861 C1318 0.872 . S
C1867 C1495 0.963 . S
C1881 C74 1.874 . S
C1887 C494 1.874 . S
C1901 C326 1.888 . S
C1907 C158 1.875 . S
C1921 C410 1.879 . S
C1927 C242 1.872 . S
C1941 C578 1.882 . S
C1947 C998 1.873 . S
C1961 C662 1.882 . S
C1967 C830 1.895 . S
C1981 C914 1.872 . S
C1987 C746 1.879 . S
C2001 C1082 1.898 . S
C2007 C1502 1.889 . S
C2021 C1334 1.895 . S
C2027 C1166 1.898 . S
C2041 C1418 1.872 . S
C2047 C1250 1.877 . S
C2061 C903 2.094 . S
C2067 C63 2.088 . S
C2081 C147 2.085 . S
C2087 C987 2.081 . S
C2101 C819 2.091 . S
C2107 C231 2.093 . S
C2121 C315 2.093 . S
C2127 C1239 2.092 . S
C2141 C399 2.086 . S
C2147 C1071 2.094 . S
C2161 C1155 2.088 . S
C2167 C483 2.094 . S
C2181 C1407 2.081 . S
C2187 C567 2.085 . S
C2201 C651 2.086 . S
C2207 C1491 2.081 . S
C2221 C735 2.094 . S
C2227 C1323 2.085 . S
C2241 C237 1.530 . S
C2247 C56 1.708 . S
C2261 C69 1.516 . S
C2267 C140 1.711 . S
C2281 C224 1.710 . S
C2287 C153 1.536 . S
C2301 C405 1.505 . S
C2307 C308 1.705 . S
C2321 C489 1.542 . S
C2327 C392 1.712 . S
C2341 C476 1.710 . S
C2347 C321 1.514 . S
C2361 C741 1.539 . S
C2367 C560 1.716 . S
C2381 C644 1.712 . S
C2387 C573 1.541 . S
C2401 C657 1.543 . S
C2407 C728 1.716 . S
C2421 C812 1.715 . S
C2427 C909 1.533 1_655 S
C2441 C896 1.705 . S
C2447 C993 1.519 . S
C2461 C825 1.537 . S
C2467 C980 1.716 . S
C2481 C1064 1.708 . S
C2487 C1245 1.495 1_565 S
C2501 C1148 1.710 . S
C2507 C1077 1.513 . S
C2521 C1161 1.512 . S
C2527 C1232 1.704 . S
C2541 C1316 1.712 . S
C2547 C1413 1.541 . S
C2561 C1400 1.711 . S
C2567 C1497 1.517 . S
C2581 C1329 1.513 . S
C2587 C1484 1.705 . S
