# Generated by pormake.
# Topology uoj, (4)-cn, num edge types: 1
# Building blocks:
#     Node 0, Type 0, BuildingBlock: KUFVIS_clean_sbu_0, # of connection points: 4
#     Node 1, Type 0, BuildingBlock: KUFVIS_clean_sbu_0, # of connection points: 4
#     Node 2, Type 0, BuildingBlock: KUFVIS_clean_sbu_0, # of connection points: 4
#     Node 3, Type 0, BuildingBlock: KUFVIS_clean_sbu_0, # of connection points: 4
#     Node 4, Type 0, BuildingBlock: KUFVIS_clean_sbu_0, # of connection points: 4
#     Node 5, Type 0, BuildingBlock: KUFVIS_clean_sbu_0, # of connection points: 4
#     Node 6, Type 0, BuildingBlock: KUFVIS_clean_sbu_0, # of connection points: 4
#     Node 7, Type 0, BuildingBlock: KUFVIS_clean_sbu_0, # of connection points: 4
#     Edge 8, Type (0, 0), BuildingBlock: AJUNOK_clean_linker_0, # of connection points: 2
#     Edge 9, Type (0, 0), BuildingBlock: AJUNOK_clean_linker_0, # of connection points: 2
#     Edge 10, Type (0, 0), BuildingBlock: AJUNOK_clean_linker_0, # of connection points: 2
#     Edge 11, Type (0, 0), BuildingBlock: AJUNOK_clean_linker_0, # of connection points: 2
#     Edge 12, Type (0, 0), BuildingBlock: AJUNOK_clean_linker_0, # of connection points: 2
#     Edge 13, Type (0, 0), BuildingBlock: AJUNOK_clean_linker_0, # of connection points: 2
#     Edge 14, Type (0, 0), BuildingBlock: AJUNOK_clean_linker_0, # of connection points: 2
#     Edge 15, Type (0, 0), BuildingBlock: AJUNOK_clean_linker_0, # of connection points: 2
#     Edge 16, Type (0, 0), BuildingBlock: AJUNOK_clean_linker_0, # of connection points: 2
#     Edge 17, Type (0, 0), BuildingBlock: AJUNOK_clean_linker_0, # of connection points: 2
#     Edge 18, Type (0, 0), BuildingBlock: AJUNOK_clean_linker_0, # of connection points: 2
#     Edge 19, Type (0, 0), BuildingBlock: AJUNOK_clean_linker_0, # of connection points: 2
#     Edge 20, Type (0, 0), BuildingBlock: AJUNOK_clean_linker_0, # of connection points: 2
#     Edge 21, Type (0, 0), BuildingBlock: AJUNOK_clean_linker_0, # of connection points: 2
#     Edge 22, Type (0, 0), BuildingBlock: AJUNOK_clean_linker_0, # of connection points: 2
#     Edge 23, Type (0, 0), BuildingBlock: AJUNOK_clean_linker_0, # of connection points: 2
# Relax obj value: 0.135
# Max RMSD: 0.157
# Mean RMSD: 0.157
data_MOF--net-uoj--node1-KUFVIS_clean_sbu_0--edge1-AJUNOK_clean_linker_0
_symmetry_space_group_name_H-M    P1
_symmetry_Int_Tables_number       1
_symmetry_cell_setting            triclinic
loop_
_symmetry_equiv_pos_as_xyz
'x, y, z'
_cell_length_a     24.144689
_cell_length_b     24.16895
_cell_length_c     26.576521
_cell_angle_alpha  89.995456
_cell_angle_beta   89.952508
_cell_angle_gamma 90.175782
loop_
_atom_site_label
_atom_site_type_symbol
_atom_site_fract_x
_atom_site_fract_y
_atom_site_fract_z
_atom_type_partial_charge
Mn0 Mn 0.06057 0.30006 0.42926 0.0
Mn1 Mn 0.07857 0.29665 0.55483 0.0
C2 C 0.03289 0.37474 0.47872 0.0
C3 C 0.09468 0.31997 0.34796 0.0
C4 C 0.9814 0.24164 0.50345 0.0
O5 O 0.11304 0.23418 0.4377 0.0
O6 O 0.12026 0.23738 0.52153 0.0
C7 C 0.19701 0.32852 0.55168 0.0
N8 N 0.14486 0.33637 0.56982 0.0
C9 C 0.17729 0.40202 0.63086 0.0
C10 C 0.23145 0.39495 0.61288 0.0
C11 C 0.24123 0.35853 0.57264 0.0
C12 C 0.1346 0.37332 0.60658 0.0
H13 H 0.20477 0.29924 0.52183 0.0
C14 C 0.13171 0.21551 0.47924 0.0
O15 O 0.05402 0.2855 0.35508 0.0
O16 O 0.11635 0.34139 0.38812 0.0
N17 N 0.04172 0.3503 0.59494 0.0
C18 C 0.9875 0.34995 0.6091 0.0
C19 C 0.97141 0.37901 0.65222 0.0
C20 C 0.01143 0.40714 0.68065 0.0
C21 C 0.06656 0.40916 0.66427 0.0
C22 C 0.08015 0.3793 0.62106 0.0
H23 H 0.95723 0.32542 0.5891 0.0
O24 O 0.01382 0.36768 0.43361 0.0
O25 O 0.07039 0.33948 0.49295 0.0
O26 O 0.99612 0.25376 0.45842 0.0
O27 O 0.0092 0.25592 0.5422 0.0
C28 C 0.10914 0.43675 0.69072 0.0
C29 C 0.1642 0.43458 0.67311 0.0
H30 H 0.26586 0.41668 0.63009 0.0
H31 H 0.2829 0.35261 0.55865 0.0
H32 H 0.92877 0.37774 0.66476 0.0
H33 H -0.00051 0.42596 0.71565 0.0
H34 H 0.10031 0.45938 0.72489 0.0
H35 H 0.19641 0.45642 0.69343 0.0
Mn36 Mn 0.32061 0.93534 0.57463 0.0
Mn37 Mn 0.31797 0.91884 0.44929 0.0
C38 C 0.39607 0.96436 0.52654 0.0
C39 C 0.33893 0.8992 0.65495 0.0
C40 C 0.25786 0.01156 0.50247 0.0
O41 O 0.25566 0.88215 0.56421 0.0
O42 O 0.26261 0.86929 0.48091 0.0
C43 C 0.36035 0.8042 0.44464 0.0
N44 N 0.36385 0.85826 0.43058 0.0
C45 C 0.43289 0.83779 0.36833 0.0
C46 C 0.4304 0.78181 0.38213 0.0
C47 C 0.39445 0.76506 0.42093 0.0
C48 C 0.40001 0.87518 0.39504 0.0
H49 H 0.33136 0.79113 0.47328 0.0
C50 C 0.23973 0.85942 0.52335 0.0
O51 O 0.30457 0.93985 0.64847 0.0
O52 O 0.36152 0.87908 0.61469 0.0
N53 N 0.36831 0.9639 0.41252 0.0
C54 C 0.36555 0.01945 0.40429 0.0
C55 C 0.39681 0.04293 0.36539 0.0
C56 C 0.42931 0.00883 0.3347 0.0
C57 C 0.43271 0.95187 0.34471 0.0
C58 C 0.40148 0.93107 0.38468 0.0
H59 H 0.33836 0.04541 0.42618 0.0
O60 O 0.38818 0.98285 0.57177 0.0
O61 O 0.36054 0.92724 0.51143 0.0
O62 O 0.27413 -0.00044 0.54689 0.0
O63 O 0.27038 0.98279 0.46398 0.0
C64 C 0.46369 0.91446 0.31543 0.0
C65 C 0.46504 0.85777 0.32801 0.0
H66 H 0.45543 0.75129 0.36286 0.0
H67 H 0.39208 0.72192 0.43169 0.0
H68 H 0.39429 0.08685 0.35784 0.0
H69 H 0.4505 0.0272 0.30319 0.0
H70 H 0.48666 0.92858 0.28311 0.0
H71 H 0.4899 0.82975 0.30566 0.0
Mn72 Mn 0.95103 0.67478 0.43975 0.0
Mn73 Mn 0.94277 0.67038 0.56609 0.0
C74 C 0.98168 0.59717 0.48335 0.0
C75 C 0.91157 0.66135 0.35951 0.0
C76 C 0.03651 0.72753 0.51196 0.0
O77 O 0.89959 0.73977 0.45498 0.0
O78 O 0.90132 0.73349 0.53889 0.0
C79 C 0.82311 0.6432 0.56745 0.0
N80 N 0.876 0.6316 0.58172 0.0
C81 C 0.84504 0.55787 0.63538 0.0
C82 C 0.79017 0.56904 0.62155 0.0
C83 C 0.77921 0.61157 0.58698 0.0
C84 C 0.88719 0.58928 0.61304 0.0
H85 H 0.81444 0.67649 0.54159 0.0
C86 C 0.88583 0.75712 0.49854 0.0
O87 O 0.95286 0.69501 0.36662 0.0
O88 O 0.89251 0.63656 0.39923 0.0
N89 N 0.97998 0.61232 0.60041 0.0
C90 C 0.03473 0.60994 0.6125 0.0
C91 C 0.05222 0.57363 0.65029 0.0
C92 C 0.01305 0.54117 0.67579 0.0
C93 C 0.9572 0.54275 0.66166 0.0
C94 C 0.94216 0.58006 0.62403 0.0
H95 H 0.0645 0.6372 0.59493 0.0
O96 O 0.99767 0.60691 0.43762 0.0
O97 O 0.94551 0.6316 0.50161 0.0
O98 O 0.01722 0.71916 0.4677 0.0
O99 O 0.0127 0.70992 0.55186 0.0
C100 C 0.91535 0.51141 0.68547 0.0
C101 C 0.85948 0.51805 0.6716 0.0
H102 H 0.75614 0.54559 0.63756 0.0
H103 H 0.73701 0.62054 0.57608 0.0
H104 H 0.09537 0.57239 0.66122 0.0
H105 H 0.02614 0.51693 0.7075 0.0
H106 H 0.9253 0.48265 0.71507 0.0
H107 H 0.82784 0.49361 0.69021 0.0
Mn108 Mn 0.69393 0.04433 0.58286 0.0
Mn109 Mn 0.70203 0.047 0.45696 0.0
C110 C 0.62031 0.01032 0.53507 0.0
C111 C 0.67304 0.08995 0.6587 0.0
C112 C 0.76077 0.96197 0.52075 0.0
O113 O 0.76024 0.09518 0.56886 0.0
O114 O 0.75343 0.10282 0.48489 0.0
C115 C 0.65524 0.15798 0.43795 0.0
N116 N 0.65442 0.10229 0.43032 0.0
C117 C 0.58653 0.11065 0.36497 0.0
C118 C 0.58622 0.16816 0.37205 0.0
C119 C 0.62029 0.19188 0.40917 0.0
C120 C 0.62021 0.07886 0.39636 0.0
H121 H 0.6828 0.17628 0.46534 0.0
C122 C 0.77614 0.11537 0.52679 0.0
O123 O 0.70704 0.04841 0.65722 0.0
O124 O 0.65237 0.10553 0.616 0.0
N125 N 0.65554 0.99476 0.42406 0.0
C126 C 0.66098 0.93867 0.42205 0.0
C127 C 0.63116 0.90857 0.38601 0.0
C128 C 0.59763 0.93669 0.35149 0.0
C129 C 0.59226 0.99435 0.35488 0.0
C130 C 0.6216 0.02195 0.39241 0.0
H131 H 0.6888 0.91706 0.44692 0.0
O132 O 0.62543 0.9975 0.58223 0.0
O133 O 0.65706 0.04507 0.51801 0.0
O134 O 0.74048 0.97677 0.56304 0.0
O135 O 0.75166 0.98801 0.47995 0.0
C136 C 0.56103 0.02579 0.32098 0.0
C137 C 0.55657 0.08369 0.32679 0.0
H138 H 0.56052 0.19451 0.34886 0.0
H139 H 0.62055 0.23624 0.41474 0.0
H140 H 0.63554 0.8641 0.3837 0.0
H141 H 0.57724 0.91359 0.322 0.0
H142 H 0.54084 0.00537 0.29014 0.0
H143 H 0.53118 0.10727 0.30104 0.0
Mn144 Mn 0.4433 0.8192 0.93833 0.0
Mn145 Mn 0.42916 0.82155 0.06412 0.0
C146 C 0.47174 0.89658 0.98377 0.0
C147 C 0.40752 0.83344 0.85722 0.0
C148 C 0.52256 0.76184 0.01183 0.0
O149 O 0.39072 0.75423 0.95141 0.0
O150 O 0.3822 0.76306 0.03501 0.0
C151 C 0.31267 0.85925 0.06648 0.0
N152 N 0.36641 0.86535 0.081 0.0
C153 C 0.34235 0.93576 0.14067 0.0
C154 C 0.28661 0.93043 0.12655 0.0
C155 C 0.27182 0.89249 0.08875 0.0
C156 C 0.38145 0.9036 0.11528 0.0
H157 H 0.30115 0.82895 0.03849 0.0
C158 C 0.37036 0.73921 0.99362 0.0
O159 O 0.44828 0.79973 0.86546 0.0
O160 O 0.38668 0.85782 0.89637 0.0
N161 N 0.4718 0.8753 0.09917 0.0
C162 C 0.52725 0.87455 0.10849 0.0
C163 C 0.54877 0.90724 0.14734 0.0
C164 C 0.51283 0.93915 0.17679 0.0
C165 C 0.45609 0.94073 0.16544 0.0
C166 C 0.43719 0.90786 0.12586 0.0
H167 H 0.55458 0.84758 0.08775 0.0
O168 O 0.49011 0.88732 0.93869 0.0
O169 O 0.43521 0.86133 1.00031 0.0
O170 O 0.50814 0.77467 0.96711 0.0
O171 O 0.49529 0.77638 0.05069 0.0
C172 C 0.41703 0.97115 0.19337 0.0
C173 C 0.36049 0.97003 0.18014 0.0
H174 H 0.25483 0.95482 0.1448 0.0
H175 H 0.22892 0.888 0.07767 0.0
H176 H 0.59254 0.90604 0.15597 0.0
H177 H 0.52943 0.96084 0.20882 0.0
H178 H 0.42978 0.99546 0.2252 0.0
H179 H 0.3312 0.99447 0.20152 0.0
Mn180 Mn 0.80858 0.5599 0.08046 0.0
Mn181 Mn 0.80019 0.5723 0.95441 0.0
C182 C 0.88141 0.53029 0.02991 0.0
C183 C 0.83067 0.59759 0.15981 0.0
C184 C 0.74438 0.48012 0.01238 0.0
O185 O 0.74261 0.61187 0.07109 0.0
O186 O 0.74659 0.62194 0.98722 0.0
C187 C 0.84133 0.68724 0.94483 0.0
N188 N 0.84453 0.63281 0.93203 0.0
C189 C 0.90742 0.65262 0.86433 0.0
C190 C 0.9053 0.70897 0.87686 0.0
C191 C 0.87265 0.72626 0.91775 0.0
C192 C 0.87783 0.61543 0.89447 0.0
H193 H 0.81448 0.7007 0.97496 0.0
C194 C 0.72533 0.63308 0.03 0.0
O195 O 0.79608 0.55667 0.155 0.0
O196 O 0.85093 0.6176 0.1184 0.0
N197 N 0.84855 0.52676 0.91606 0.0
C198 C 0.84451 0.47117 0.90833 0.0
C199 C 0.87157 0.4473 0.86715 0.0
C200 C 0.90086 0.48108 0.83349 0.0
C201 C 0.90572 0.53807 0.84282 0.0
C202 C 0.87886 0.55931 0.88517 0.0
H203 H 0.81922 0.44542 0.93235 0.0
O204 O 0.87629 0.51337 0.07599 0.0
O205 O 0.8453 0.5667 0.0153 0.0
O206 O 0.7619 0.494 0.05594 0.0
O207 O 0.75409 0.50824 0.9728 0.0
C208 C 0.9335 0.57512 0.81048 0.0
C209 C 0.93571 0.6321 0.82194 0.0
H210 H 0.9279 0.73936 0.85495 0.0
H211 H 0.87045 0.76968 0.92745 0.0
H212 H 0.86785 0.40334 0.86013 0.0
H213 H 0.91813 0.46258 0.80009 0.0
H214 H 0.95365 0.5604 0.77677 0.0
H215 H 0.95802 0.65991 0.79714 0.0
Mn216 Mn 0.54863 0.19561 0.92782 0.0
Mn217 Mn 0.55052 0.20171 0.05389 0.0
C218 C 0.51465 0.12147 0.97489 0.0
C219 C 0.59276 0.17597 0.85099 0.0
C220 C 0.46611 0.26136 0.99024 0.0
O221 O 0.59989 0.26157 0.94293 0.0
O222 O 0.6074 0.25203 0.02683 0.0
C223 C 0.66055 0.15303 0.07405 0.0
N224 N 0.60475 0.15346 0.08132 0.0
C225 C 0.61162 0.09067 0.15086 0.0
C226 C 0.66927 0.08924 0.14434 0.0
C227 C 0.69377 0.11992 0.10521 0.0
C228 C 0.58052 0.12185 0.11687 0.0
H229 H 0.67941 0.17832 0.0452 0.0
C230 C 0.62068 0.27532 0.98544 0.0
O231 O 0.5517 0.21036 0.85394 0.0
O232 O 0.60941 0.15441 0.89306 0.0
N233 N 0.49714 0.15596 0.08619 0.0
C234 C 0.44101 0.16188 0.08708 0.0
C235 C 0.41004 0.13493 0.12439 0.0
C236 C 0.43737 0.10409 0.16143 0.0
C237 C 0.4951 0.09808 0.15915 0.0
C238 C 0.52351 0.12399 0.12003 0.0
H239 H 0.42007 0.18815 0.06041 0.0
O240 O 0.50168 0.12724 0.92782 0.0
O241 O 0.54947 0.15777 0.99231 0.0
O242 O 0.48093 0.24145 0.94794 0.0
O243 O 0.49239 0.25236 0.03089 0.0
C244 C 0.52586 0.06988 0.19568 0.0
C245 C 0.58388 0.0646 0.19095 0.0
H246 H 0.69512 0.06529 0.16948 0.0
H247 H 0.73822 0.11929 0.10001 0.0
H248 H 0.36553 0.13981 0.12583 0.0
H249 H 0.41362 0.08631 0.19193 0.0
H250 H 0.50479 0.05225 0.22749 0.0
H251 H 0.60685 0.04152 0.21889 0.0
Mn252 Mn 0.1792 0.45029 0.07336 0.0
Mn253 Mn 0.18122 0.45048 0.94662 0.0
C254 C 0.10387 0.48402 0.02846 0.0
C255 C 0.16145 0.40463 0.15019 0.0
C256 C 0.24082 0.53613 0.00936 0.0
O257 O 0.24464 0.40001 0.0566 0.0
O258 O 0.23674 0.39809 0.97234 0.0
C259 C 0.13888 0.33683 0.93052 0.0
N260 N 0.13535 0.39224 0.92204 0.0
C261 C 0.06433 0.37922 0.86 0.0
C262 C 0.06709 0.3219 0.86782 0.0
C263 C 0.1041 0.30066 0.90373 0.0
C264 C 0.09824 0.41325 0.88937 0.0
H265 H 0.16827 0.32048 0.95725 0.0
C266 C 0.25991 0.38302 0.01321 0.0
O267 O 0.19565 0.44609 0.14716 0.0
O268 O 0.1389 0.38878 0.1083 0.0
N269 N 0.13036 0.49954 0.91524 0.0
C270 C 0.13306 0.55579 0.91239 0.0
C271 C 0.10056 0.58363 0.87687 0.0
C272 C 0.06686 0.55322 0.84394 0.0
C273 C 0.06386 0.49546 0.84844 0.0
C274 C 0.09646 0.47008 0.88502 0.0
H275 H 0.16101 0.57915 0.93595 0.0
O276 O 0.11095 0.49665 0.07546 0.0
O277 O 0.13974 0.44978 0.00969 0.0
O278 O 0.22492 0.51824 0.05226 0.0
O279 O 0.2286 0.51243 0.96799 0.0
C280 C 0.03185 0.46186 0.81657 0.0
C281 C 0.03067 0.40393 0.82317 0.0
H282 H 0.04134 0.29384 0.84625 0.0
H283 H 0.10655 0.25649 0.91001 0.0
H284 H 0.10303 0.6282 0.87363 0.0
H285 H 0.04468 0.5747 0.81463 0.0
H286 H 0.00831 0.48035 0.78666 0.0
H287 H 0.00483 0.37871 0.79898 0.0
C288 C 0.17059 0.399 0.24432 0.0
C289 C 0.14656 0.37894 0.19961 0.0
C290 C 0.15457 0.37861 0.2917 0.0
C291 C 0.11366 0.33721 0.29671 0.0
H292 H 0.20144 0.43159 0.24294 0.0
H293 H 0.17379 0.39644 0.32478 0.0
S294 S 0.03973 0.26825 0.19135 0.0
N295 N 0.08112 0.3133 0.16345 0.0
N296 N 0.05107 0.2752 0.25228 0.0
C297 C 0.0903 0.31564 0.25226 0.0
C298 C 0.1067 0.33639 0.20389 0.0
C299 C 0.3316 0.90397 0.74921 0.0
C300 C 0.35392 0.87863 0.70605 0.0
C301 C 0.34807 0.88807 0.7978 0.0
C302 C 0.38765 0.84617 0.8054 0.0
H303 H 0.30188 0.9372 0.74556 0.0
H304 H 0.33039 0.90977 0.82962 0.0
S305 S 0.45629 0.76407 0.70512 0.0
N306 N 0.41591 0.8074 0.67435 0.0
N307 N 0.44676 0.77773 0.76535 0.0
C308 C 0.40912 0.81933 0.76262 0.0
C309 C 0.39231 0.83548 0.71311 0.0
C310 C 0.84799 0.60796 0.30226 0.0
C311 C 0.88888 0.64918 0.30836 0.0
C312 C 0.82848 0.59268 0.25438 0.0
C313 C 0.84885 0.61795 0.21031 0.0
H314 H 0.83154 0.58633 0.33472 0.0
H315 H 0.79787 0.55993 0.25197 0.0
S316 S 0.95375 0.73072 0.20539 0.0
N317 N 0.94727 0.71682 0.26592 0.0
N318 N 0.9107 0.68832 0.17625 0.0
C319 C 0.88859 0.66041 0.21589 0.0
C320 C 0.90854 0.67592 0.26472 0.0
C321 C 0.65508 0.11493 0.7995 0.0
C322 C 0.6167 0.15868 0.80166 0.0
C323 C 0.67428 0.09411 0.75328 0.0
C324 C 0.656 0.11614 0.70714 0.0
H325 H 0.66941 0.09544 0.83378 0.0
H326 H 0.70267 0.05951 0.75384 0.0
S327 S 0.55925 0.23426 0.69183 0.0
N328 N 0.56379 0.22564 0.75329 0.0
N329 N 0.59975 0.18675 0.66678 0.0
C330 C 0.61922 0.16131 0.70877 0.0
C331 C 0.59964 0.18248 0.75585 0.0
C332 C 0.22442 0.10355 0.5324 0.0
C333 C 0.22567 0.06322 0.49441 0.0
C334 C 0.19585 0.1532 0.52588 0.0
C335 C 0.16664 0.16497 0.48117 0.0
H336 H 0.24596 0.09704 0.56764 0.0
H337 H 0.19631 0.18243 0.55679 0.0
S338 S 0.15746 0.07379 0.36925 0.0
N339 N 0.196 0.03891 0.40948 0.0
N340 N 0.14166 0.13239 0.39771 0.0
C341 C 0.16827 0.12561 0.44231 0.0
C342 C 0.19774 0.07476 0.44885 0.0
C343 C 0.16888 0.80374 0.47661 0.0
C344 C 0.19004 0.82255 0.52306 0.0
C345 C 0.11985 0.77296 0.47369 0.0
C346 C 0.08945 0.75903 0.51706 0.0
H347 H 0.18969 0.81367 0.44163 0.0
H348 H 0.10561 0.76038 0.43678 0.0
S349 S 0.12828 0.79477 0.64861 0.0
N350 N 0.17776 0.82265 0.61393 0.0
N351 N 0.0856 0.76449 0.60862 0.0
C352 C 0.1108 0.77609 0.56408 0.0
C353 C 0.16094 0.80782 0.56703 0.0
C354 C 0.81978 0.8964 0.47104 0.0
C355 C 0.79353 0.9101 0.51691 0.0
C356 C 0.84828 0.84642 0.46484 0.0
C357 C 0.85197 0.80799 0.50428 0.0
H358 H 0.81838 0.92449 0.43931 0.0
H359 H 0.86831 0.83837 0.4291 0.0
S360 S 0.78815 0.82203 0.63127 0.0
N361 N 0.77168 0.8798 0.60192 0.0
N362 N 0.82491 0.78605 0.59053 0.0
C363 C 0.82535 0.82076 0.55024 0.0
C364 C 0.79638 0.8717 0.55652 0.0
C365 C 0.84033 0.17704 0.47815 0.0
C366 C 0.82611 0.1517 0.52427 0.0
C367 C 0.89031 0.20577 0.47191 0.0
C368 C 0.92848 0.21096 0.51155 0.0
H369 H 0.81308 0.17393 0.44591 0.0
H370 H 0.89899 0.22393 0.43547 0.0
S371 S 0.91062 0.15463 0.64091 0.0
N372 N 0.8539 0.1354 0.61094 0.0
N373 N 0.94768 0.1897 0.59951 0.0
C374 C 0.91423 0.18726 0.55845 0.0
C375 C 0.86317 0.15774 0.56475 0.0
C376 C 0.30455 0.60026 0.96281 0.0
C377 C 0.27315 0.58833 0.00629 0.0
C378 C 0.33439 0.64987 0.95811 0.0
C379 C 0.33391 0.68968 0.99665 0.0
H380 H 0.30675 0.5707 0.93224 0.0
H381 H 0.35903 0.65636 0.92453 0.0
S382 S 0.25348 0.68122 0.11599 0.0
N383 N 0.24039 0.62222 0.08709 0.0
N384 N 0.29587 0.71542 0.07841 0.0
C385 C 0.30122 0.67899 0.03971 0.0
C386 C 0.27113 0.62837 0.04455 0.0
C387 C 0.66272 0.6982 0.98472 0.0
C388 C 0.67594 0.66974 0.02946 0.0
C389 C 0.61332 0.72758 0.97962 0.0
C390 C 0.57479 0.73045 0.01914 0.0
H391 H 0.69034 0.69714 0.95259 0.0
H392 H 0.60541 0.74815 0.94414 0.0
S393 S 0.59027 0.66606 0.14544 0.0
N394 N 0.64705 0.64814 0.11495 0.0
N395 N 0.55417 0.70409 0.10571 0.0
C396 C 0.58809 0.70387 0.06488 0.0
C397 C 0.63861 0.6735 0.06998 0.0
C398 C 0.68095 0.41836 0.96289 0.0
C399 C 0.71417 0.42702 1.00587 0.0
C400 C 0.65316 0.36805 0.95488 0.0
C401 C 0.65765 0.3243 0.98945 0.0
H402 H 0.67553 0.4511 0.93551 0.0
H403 H 0.62639 0.36425 0.92237 0.0
S404 S 0.74525 0.32299 0.10451 0.0
N405 N 0.75382 0.38561 0.08097 0.0
N406 N 0.70206 0.2912 0.066 0.0
C407 C 0.69269 0.33158 0.03144 0.0
C408 C 0.72068 0.38285 0.0397 0.0
C409 C 0.40191 0.3227 0.03872 0.0
C410 C 0.41352 0.29271 0.99439 0.0
C411 C 0.35127 0.34983 0.04553 0.0
C412 C 0.31009 0.34821 0.00827 0.0
H413 H 0.43232 0.32558 0.06855 0.0
H414 H 0.34506 0.37346 0.0797 0.0
S415 S 0.31749 0.27174 0.887 0.0
N416 N 0.37801 0.26056 0.91386 0.0
N417 N 0.28295 0.31144 0.9265 0.0
C418 C 0.32055 0.31734 0.96421 0.0
C419 C 0.37219 0.28978 0.95725 0.0
C420 C 0.95313 0.50261 0.50899 0.0
C421 C 0.99507 0.5429 0.50586 0.0
C422 C 0.96613 0.44595 0.50745 0.0
C423 C 0.02143 0.42791 0.50415 0.0
H424 H 0.91006 0.51476 0.50641 0.0
H425 H 0.93261 0.41633 0.50368 0.0
S426 S 0.14623 0.51715 0.50643 0.0
N427 N 0.09391 0.56107 0.50708 0.0
N428 N 0.11828 0.45468 0.50648 0.0
C429 C 0.06362 0.46769 0.5082 0.0
C430 C 0.05041 0.52531 0.50836 0.0
C431 C 0.52878 0.03951 0.50167 0.0
C432 C 0.56741 0.99694 0.50941 0.0
C433 C 0.4716 0.02796 0.49961 0.0
C434 C 0.45138 0.97339 0.50366 0.0
H435 H 0.54207 0.08234 0.50341 0.0
H436 H 0.44287 0.0623 0.50004 0.0
S437 S 0.53651 0.84674 0.51336 0.0
N438 N 0.58212 0.89785 0.51397 0.0
N439 N 0.4752 0.87609 0.50719 0.0
C440 C 0.49014 0.93022 0.50423 0.0
C441 C 0.54812 0.94203 0.50799 0.0
C442 C 0.54542 0.03036 0.00719 0.0
C443 C 0.50211 0.06828 0.99996 0.0
C444 C 0.53475 0.97314 0.00898 0.0
C445 C 0.48039 0.95231 1.00539 0.0
H446 H 0.58806 0.04431 1.00527 0.0
H447 H 0.56952 0.9449 0.00827 0.0
S448 S 0.35221 0.03542 0.99716 0.0
N449 N 0.4027 0.08171 0.99625 0.0
N450 N 0.38255 0.97457 1.0028 0.0
C451 C 0.43654 0.99029 1.00528 0.0
C452 C 0.44745 0.04832 1.00167 0.0
C453 C 0.03084 0.55143 1.00512 0.0
C454 C 0.05003 0.49653 1.00488 0.0
C455 C 0.97388 0.56315 1.0038 0.0
C456 C 0.93455 0.52016 1.00421 0.0
H457 H 0.05971 0.58517 0.01122 0.0
H458 H 0.96073 0.60556 0.00929 0.0
S459 S 0.96378 0.37018 0.99504 0.0
N460 N 0.02561 0.39955 0.99656 0.0
N461 N 0.91863 0.42134 0.99736 0.0
C462 C 0.95338 0.46564 0.99835 0.0
C463 C 0.01129 0.45384 0.99794 0.0
loop_
_geom_bond_atom_site_label_1
_geom_bond_atom_site_label_2
_geom_bond_distance
_geom_bond_site_symmetry_2
_ccdc_geom_bond_type
Mn0 O5 2.095 . S
Mn0 O15 2.162 . S
Mn0 O16 2.297 . S
Mn0 O24 2.385 . S
Mn0 O25 2.209 . S
Mn0 O26 2.094 1_455 S
Mn1 O6 2.121 . S
Mn1 N8 2.257 . S
Mn1 N17 2.282 1_455 S
Mn1 O25 2.215 . S
Mn1 O27 2.117 1_455 S
C2 O24 1.234 . S
C2 O25 1.283 . S
C3 O15 1.281 . S
C3 O16 1.236 . S
C4 O26 1.240 . S
C4 O27 1.264 . S
O5 Mn0 2.095 . S
O5 C14 1.250 . S
O6 Mn1 2.121 . S
O6 C14 1.258 . S
C7 N8 1.326 . S
C7 C11 1.460 . S
C7 H13 0.929 . S
N8 Mn1 2.257 . S
N8 C7 1.326 . S
N8 C12 1.362 . S
C9 C10 1.258 . S
C9 C12 1.431 . S
C9 C29 1.449 . S
C10 C9 1.258 . S
C10 C11 1.477 . S
C10 H30 0.931 . S
C11 C7 1.460 . S
C11 C10 1.477 . S
C11 H31 0.930 . S
C12 N8 1.362 . S
C12 C9 1.431 . S
C12 C22 1.476 . S
H13 C7 0.929 . S
C14 O5 1.250 . S
C14 O6 1.258 . S
O15 Mn0 2.162 . S
O15 C3 1.281 . S
O16 Mn0 2.297 . S
O16 C3 1.236 . S
N17 Mn1 2.282 1_655 S
N17 C18 1.328 . S
N17 C22 1.318 1_655 S
C18 N17 1.328 . S
C18 C19 1.457 . S
C18 H23 0.929 . S
C19 C18 1.457 . S
C19 C20 1.291 . S
C19 H32 0.931 . S
C20 C19 1.291 . S
C20 C21 1.373 . S
C20 H33 0.929 . S
C21 C20 1.373 . S
C21 C22 1.396 1_655 S
C21 C28 1.403 1_655 S
C22 C12 1.476 . S
C22 N17 1.318 1_455 S
C22 C21 1.396 1_455 S
H23 C18 0.929 . S
O24 Mn0 2.385 . S
O24 C2 1.234 . S
O25 Mn0 2.209 . S
O25 Mn1 2.215 . S
O25 C2 1.283 . S
O26 Mn0 2.094 1_655 S
O26 C4 1.240 . S
O27 Mn1 2.117 1_655 S
O27 C4 1.264 . S
C28 C21 1.403 1_455 S
C28 C29 1.399 . S
C28 H34 0.929 1_455 S
C29 C9 1.449 . S
C29 C28 1.399 . S
C29 H35 0.930 . S
H30 C10 0.931 . S
H31 C11 0.930 . S
H32 C19 0.931 . S
H33 C20 0.929 . S
H34 C28 0.929 1_655 S
H35 C29 0.930 . S
Mn36 O41 2.095 . S
Mn36 O51 2.162 . S
Mn36 O52 2.297 . S
Mn36 O60 2.385 . S
Mn36 O61 2.209 . S
Mn36 O62 2.094 1_565 S
Mn37 O42 2.121 . S
Mn37 N44 2.257 . S
Mn37 N53 2.282 1_565 S
Mn37 O61 2.215 . S
Mn37 O63 2.117 1_565 S
C38 O60 1.234 . S
C38 O61 1.283 . S
C39 O51 1.281 . S
C39 O52 1.236 . S
C40 O62 1.240 . S
C40 O63 1.264 . S
O41 Mn36 2.095 . S
O41 C50 1.250 . S
O42 Mn37 2.121 . S
O42 C50 1.258 . S
C43 N44 1.326 . S
C43 C47 1.460 . S
C43 H49 0.929 . S
N44 Mn37 2.257 . S
N44 C43 1.326 . S
N44 C48 1.362 . S
C45 C46 1.258 . S
C45 C48 1.431 . S
C45 C65 1.449 . S
C46 C45 1.258 . S
C46 C47 1.477 . S
C46 H66 0.931 . S
C47 C43 1.460 . S
C47 C46 1.477 . S
C47 H67 0.930 . S
C48 N44 1.362 . S
C48 C45 1.431 . S
C48 C58 1.476 . S
H49 C43 0.929 . S
C50 O41 1.250 . S
C50 O42 1.258 . S
O51 Mn36 2.162 . S
O51 C39 1.281 . S
O52 Mn36 2.297 . S
O52 C39 1.236 . S
N53 Mn37 2.282 1_545 S
N53 C54 1.328 . S
N53 C58 1.318 1_545 S
C54 N53 1.328 . S
C54 C55 1.457 . S
C54 H59 0.929 . S
C55 C54 1.457 . S
C55 C56 1.291 . S
C55 H68 0.931 . S
C56 C55 1.291 . S
C56 C57 1.373 . S
C56 H69 0.929 . S
C57 C56 1.373 . S
C57 C58 1.396 1_545 S
C57 C64 1.403 1_545 S
C58 C48 1.476 . S
C58 N53 1.318 1_565 S
C58 C57 1.396 1_565 S
H59 C54 0.929 . S
O60 Mn36 2.385 . S
O60 C38 1.234 . S
O61 Mn36 2.209 . S
O61 Mn37 2.215 . S
O61 C38 1.283 . S
O62 Mn36 2.094 1_545 S
O62 C40 1.240 . S
O63 Mn37 2.117 1_545 S
O63 C40 1.264 . S
C64 C57 1.403 1_565 S
C64 C65 1.399 . S
C64 H70 0.929 1_565 S
C65 C45 1.449 . S
C65 C64 1.399 . S
C65 H71 0.930 . S
H66 C46 0.931 . S
H67 C47 0.930 . S
H68 C55 0.931 . S
H69 C56 0.929 . S
H70 C64 0.929 1_545 S
H71 C65 0.930 . S
Mn72 O77 2.095 . S
Mn72 O87 2.162 . S
Mn72 O88 2.297 . S
Mn72 O96 2.385 . S
Mn72 O97 2.209 . S
Mn72 O98 2.094 1_655 S
Mn73 O78 2.121 . S
Mn73 N80 2.257 . S
Mn73 N89 2.282 1_655 S
Mn73 O97 2.215 . S
Mn73 O99 2.117 1_655 S
C74 O96 1.234 . S
C74 O97 1.283 . S
C75 O87 1.281 . S
C75 O88 1.236 . S
C76 O98 1.240 . S
C76 O99 1.264 . S
O77 Mn72 2.095 . S
O77 C86 1.250 . S
O78 Mn73 2.121 . S
O78 C86 1.258 . S
C79 N80 1.326 . S
C79 C83 1.460 . S
C79 H85 0.929 . S
N80 Mn73 2.257 . S
N80 C79 1.326 . S
N80 C84 1.362 . S
C81 C82 1.258 . S
C81 C84 1.431 . S
C81 C101 1.449 . S
C82 C81 1.258 . S
C82 C83 1.477 . S
C82 H102 0.931 . S
C83 C79 1.460 . S
C83 C82 1.477 . S
C83 H103 0.930 . S
C84 N80 1.362 . S
C84 C81 1.431 . S
C84 C94 1.476 . S
H85 C79 0.929 . S
C86 O77 1.250 . S
C86 O78 1.258 . S
O87 Mn72 2.162 . S
O87 C75 1.281 . S
O88 Mn72 2.297 . S
O88 C75 1.236 . S
N89 Mn73 2.282 1_455 S
N89 C90 1.328 . S
N89 C94 1.318 1_455 S
C90 N89 1.328 . S
C90 C91 1.457 . S
C90 H95 0.929 . S
C91 C90 1.457 . S
C91 C92 1.291 . S
C91 H104 0.931 . S
C92 C91 1.291 . S
C92 C93 1.373 . S
C92 H105 0.929 . S
C93 C92 1.373 . S
C93 C94 1.396 1_455 S
C93 C100 1.403 1_455 S
C94 C84 1.476 . S
C94 N89 1.318 1_655 S
C94 C93 1.396 1_655 S
H95 C90 0.929 . S
O96 Mn72 2.385 . S
O96 C74 1.234 . S
O97 Mn72 2.209 . S
O97 Mn73 2.215 . S
O97 C74 1.283 . S
O98 Mn72 2.094 1_455 S
O98 C76 1.240 . S
O99 Mn73 2.117 1_455 S
O99 C76 1.264 . S
C100 C93 1.403 1_655 S
C100 C101 1.399 . S
C100 H106 0.929 1_655 S
C101 C81 1.449 . S
C101 C100 1.399 . S
C101 H107 0.930 . S
H102 C82 0.931 . S
H103 C83 0.930 . S
H104 C91 0.931 . S
H105 C92 0.929 . S
H106 C100 0.929 1_455 S
H107 C101 0.930 . S
Mn108 O113 2.095 . S
Mn108 O123 2.162 . S
Mn108 O124 2.297 . S
Mn108 O132 2.385 . S
Mn108 O133 2.209 . S
Mn108 O134 2.094 1_545 S
Mn109 O114 2.121 . S
Mn109 N116 2.257 . S
Mn109 N125 2.282 1_545 S
Mn109 O133 2.215 . S
Mn109 O135 2.117 1_545 S
C110 O132 1.234 . S
C110 O133 1.283 . S
C111 O123 1.281 . S
C111 O124 1.236 . S
C112 O134 1.240 . S
C112 O135 1.264 . S
O113 Mn108 2.095 . S
O113 C122 1.250 . S
O114 Mn109 2.121 . S
O114 C122 1.258 . S
C115 N116 1.326 . S
C115 C119 1.460 . S
C115 H121 0.929 . S
N116 Mn109 2.257 . S
N116 C115 1.326 . S
N116 C120 1.362 . S
C117 C118 1.258 . S
C117 C120 1.431 . S
C117 C137 1.449 . S
C118 C117 1.258 . S
C118 C119 1.477 . S
C118 H138 0.931 . S
C119 C115 1.460 . S
C119 C118 1.477 . S
C119 H139 0.930 . S
C120 N116 1.362 . S
C120 C117 1.431 . S
C120 C130 1.476 . S
H121 C115 0.929 . S
C122 O113 1.250 . S
C122 O114 1.258 . S
O123 Mn108 2.162 . S
O123 C111 1.281 . S
O124 Mn108 2.297 . S
O124 C111 1.236 . S
N125 Mn109 2.282 1_565 S
N125 C126 1.328 . S
N125 C130 1.318 1_565 S
C126 N125 1.328 . S
C126 C127 1.457 . S
C126 H131 0.929 . S
C127 C126 1.457 . S
C127 C128 1.291 . S
C127 H140 0.931 . S
C128 C127 1.291 . S
C128 C129 1.373 . S
C128 H141 0.929 . S
C129 C128 1.373 . S
C129 C130 1.396 1_565 S
C129 C136 1.403 1_565 S
C130 C120 1.476 . S
C130 N125 1.318 1_545 S
C130 C129 1.396 1_545 S
H131 C126 0.929 . S
O132 Mn108 2.385 . S
O132 C110 1.234 . S
O133 Mn108 2.209 . S
O133 Mn109 2.215 . S
O133 C110 1.283 . S
O134 Mn108 2.094 1_565 S
O134 C112 1.240 . S
O135 Mn109 2.117 1_565 S
O135 C112 1.264 . S
C136 C129 1.403 1_545 S
C136 C137 1.399 . S
C136 H142 0.929 1_545 S
C137 C117 1.449 . S
C137 C136 1.399 . S
C137 H143 0.930 . S
H138 C118 0.931 . S
H139 C119 0.930 . S
H140 C127 0.931 . S
H141 C128 0.929 . S
H142 C136 0.929 1_565 S
H143 C137 0.930 . S
Mn144 O149 2.095 . S
Mn144 O159 2.162 . S
Mn144 O160 2.297 . S
Mn144 O168 2.385 . S
Mn144 O169 2.209 . S
Mn144 O170 2.094 . S
Mn145 O150 2.121 . S
Mn145 N152 2.257 . S
Mn145 N161 2.282 . S
Mn145 O169 2.215 1_554 S
Mn145 O171 2.117 . S
C146 O168 1.234 . S
C146 O169 1.283 . S
C147 O159 1.281 . S
C147 O160 1.236 . S
C148 O170 1.240 . S
C148 O171 1.264 1_556 S
O149 Mn144 2.095 . S
O149 C158 1.250 1_556 S
O150 Mn145 2.121 . S
O150 C158 1.258 . S
C151 N152 1.326 . S
C151 C155 1.460 . S
C151 H157 0.929 . S
N152 Mn145 2.257 . S
N152 C151 1.326 . S
N152 C156 1.362 . S
C153 C154 1.258 . S
C153 C156 1.431 . S
C153 C173 1.449 . S
C154 C153 1.258 . S
C154 C155 1.477 . S
C154 H174 0.931 . S
C155 C151 1.460 . S
C155 C154 1.477 . S
C155 H175 0.930 . S
C156 N152 1.362 . S
C156 C153 1.431 . S
C156 C166 1.476 . S
H157 C151 0.929 . S
C158 O149 1.250 1_554 S
C158 O150 1.258 . S
O159 Mn144 2.162 . S
O159 C147 1.281 . S
O160 Mn144 2.297 . S
O160 C147 1.236 . S
N161 Mn145 2.282 . S
N161 C162 1.328 . S
N161 C166 1.318 . S
C162 N161 1.328 . S
C162 C163 1.457 . S
C162 H167 0.929 . S
C163 C162 1.457 . S
C163 C164 1.291 . S
C163 H176 0.931 . S
C164 C163 1.291 . S
C164 C165 1.373 . S
C164 H177 0.929 . S
C165 C164 1.373 . S
C165 C166 1.396 . S
C165 C172 1.403 . S
C166 C156 1.476 . S
C166 N161 1.318 . S
C166 C165 1.396 . S
H167 C162 0.929 . S
O168 Mn144 2.385 . S
O168 C146 1.234 . S
O169 Mn144 2.209 . S
O169 Mn145 2.215 1_556 S
O169 C146 1.283 . S
O170 Mn144 2.094 . S
O170 C148 1.240 . S
O171 Mn145 2.117 . S
O171 C148 1.264 1_554 S
C172 C165 1.403 . S
C172 C173 1.399 . S
C172 H178 0.929 1_565 S
C173 C153 1.449 . S
C173 C172 1.399 . S
C173 H179 0.930 1_565 S
H174 C154 0.931 . S
H175 C155 0.930 . S
H176 C163 0.931 . S
H177 C164 0.929 . S
H178 C172 0.929 1_545 S
H179 C173 0.930 1_545 S
Mn180 O185 2.095 . S
Mn180 O195 2.162 . S
Mn180 O196 2.297 . S
Mn180 O204 2.385 . S
Mn180 O205 2.209 . S
Mn180 O206 2.094 . S
Mn181 O186 2.121 . S
Mn181 N188 2.257 . S
Mn181 N197 2.282 . S
Mn181 O205 2.215 1_556 S
Mn181 O207 2.117 . S
C182 O204 1.234 . S
C182 O205 1.283 . S
C183 O195 1.281 . S
C183 O196 1.236 . S
C184 O206 1.240 . S
C184 O207 1.264 1_554 S
O185 Mn180 2.095 . S
O185 C194 1.250 1_554 S
O186 Mn181 2.121 . S
O186 C194 1.258 . S
C187 N188 1.326 . S
C187 C191 1.460 . S
C187 H193 0.929 . S
N188 Mn181 2.257 . S
N188 C187 1.326 . S
N188 C192 1.362 . S
C189 C190 1.258 . S
C189 C192 1.431 . S
C189 C209 1.449 . S
C190 C189 1.258 . S
C190 C191 1.477 . S
C190 H210 0.931 . S
C191 C187 1.460 . S
C191 C190 1.477 . S
C191 H211 0.930 . S
C192 N188 1.362 . S
C192 C189 1.431 . S
C192 C202 1.476 . S
H193 C187 0.929 . S
C194 O185 1.250 1_556 S
C194 O186 1.258 . S
O195 Mn180 2.162 . S
O195 C183 1.281 . S
O196 Mn180 2.297 . S
O196 C183 1.236 . S
N197 Mn181 2.282 . S
N197 C198 1.328 . S
N197 C202 1.318 . S
C198 N197 1.328 . S
C198 C199 1.457 . S
C198 H203 0.929 . S
C199 C198 1.457 . S
C199 C200 1.291 . S
C199 H212 0.931 . S
C200 C199 1.291 . S
C200 C201 1.373 . S
C200 H213 0.929 . S
C201 C200 1.373 . S
C201 C202 1.396 . S
C201 C208 1.403 . S
C202 C192 1.476 . S
C202 N197 1.318 . S
C202 C201 1.396 . S
H203 C198 0.929 . S
O204 Mn180 2.385 . S
O204 C182 1.234 . S
O205 Mn180 2.209 . S
O205 Mn181 2.215 1_554 S
O205 C182 1.283 . S
O206 Mn180 2.094 . S
O206 C184 1.240 . S
O207 Mn181 2.117 . S
O207 C184 1.264 1_556 S
C208 C201 1.403 . S
C208 C209 1.399 . S
C208 H214 0.929 1_655 S
C209 C189 1.449 . S
C209 C208 1.399 . S
C209 H215 0.930 1_655 S
H210 C190 0.931 . S
H211 C191 0.930 . S
H212 C199 0.931 . S
H213 C200 0.929 . S
H214 C208 0.929 1_455 S
H215 C209 0.930 1_455 S
Mn216 O221 2.095 . S
Mn216 O231 2.162 . S
Mn216 O232 2.297 . S
Mn216 O240 2.385 . S
Mn216 O241 2.209 . S
Mn216 O242 2.094 . S
Mn217 O222 2.121 . S
Mn217 N224 2.257 . S
Mn217 N233 2.282 . S
Mn217 O241 2.215 1_554 S
Mn217 O243 2.117 . S
C218 O240 1.234 . S
C218 O241 1.283 . S
C219 O231 1.281 . S
C219 O232 1.236 . S
C220 O242 1.240 . S
C220 O243 1.264 1_556 S
O221 Mn216 2.095 . S
O221 C230 1.250 1_556 S
O222 Mn217 2.121 . S
O222 C230 1.258 . S
C223 N224 1.326 . S
C223 C227 1.460 . S
C223 H229 0.929 . S
N224 Mn217 2.257 . S
N224 C223 1.326 . S
N224 C228 1.362 . S
C225 C226 1.258 . S
C225 C228 1.431 . S
C225 C245 1.449 . S
C226 C225 1.258 . S
C226 C227 1.477 . S
C226 H246 0.931 . S
C227 C223 1.460 . S
C227 C226 1.477 . S
C227 H247 0.930 . S
C228 N224 1.362 . S
C228 C225 1.431 . S
C228 C238 1.476 . S
H229 C223 0.929 . S
C230 O221 1.250 1_554 S
C230 O222 1.258 . S
O231 Mn216 2.162 . S
O231 C219 1.281 . S
O232 Mn216 2.297 . S
O232 C219 1.236 . S
N233 Mn217 2.282 . S
N233 C234 1.328 . S
N233 C238 1.318 . S
C234 N233 1.328 . S
C234 C235 1.457 . S
C234 H239 0.929 . S
C235 C234 1.457 . S
C235 C236 1.291 . S
C235 H248 0.931 . S
C236 C235 1.291 . S
C236 C237 1.373 . S
C236 H249 0.929 . S
C237 C236 1.373 . S
C237 C238 1.396 . S
C237 C244 1.403 . S
C238 C228 1.476 . S
C238 N233 1.318 . S
C238 C237 1.396 . S
H239 C234 0.929 . S
O240 Mn216 2.385 . S
O240 C218 1.234 . S
O241 Mn216 2.209 . S
O241 Mn217 2.215 1_556 S
O241 C218 1.283 . S
O242 Mn216 2.094 . S
O242 C220 1.240 . S
O243 Mn217 2.117 . S
O243 C220 1.264 1_554 S
C244 C237 1.403 . S
C244 C245 1.399 . S
C244 H250 0.929 1_545 S
C245 C225 1.449 . S
C245 C244 1.399 . S
C245 H251 0.930 1_545 S
H246 C226 0.931 . S
H247 C227 0.930 . S
H248 C235 0.931 . S
H249 C236 0.929 . S
H250 C244 0.929 1_565 S
H251 C245 0.930 1_565 S
Mn252 O257 2.095 . S
Mn252 O267 2.162 . S
Mn252 O268 2.297 . S
Mn252 O276 2.385 . S
Mn252 O277 2.209 . S
Mn252 O278 2.094 . S
Mn253 O258 2.121 . S
Mn253 N260 2.257 . S
Mn253 N269 2.282 . S
Mn253 O277 2.215 1_556 S
Mn253 O279 2.117 . S
C254 O276 1.234 . S
C254 O277 1.283 . S
C255 O267 1.281 . S
C255 O268 1.236 . S
C256 O278 1.240 . S
C256 O279 1.264 1_554 S
O257 Mn252 2.095 . S
O257 C266 1.250 1_554 S
O258 Mn253 2.121 . S
O258 C266 1.258 . S
C259 N260 1.326 . S
C259 C263 1.460 . S
C259 H265 0.929 . S
N260 Mn253 2.257 . S
N260 C259 1.326 . S
N260 C264 1.362 . S
C261 C262 1.258 . S
C261 C264 1.431 . S
C261 C281 1.449 . S
C262 C261 1.258 . S
C262 C263 1.477 . S
C262 H282 0.931 . S
C263 C259 1.460 . S
C263 C262 1.477 . S
C263 H283 0.930 . S
C264 N260 1.362 . S
C264 C261 1.431 . S
C264 C274 1.476 . S
H265 C259 0.929 . S
C266 O257 1.250 1_556 S
C266 O258 1.258 . S
O267 Mn252 2.162 . S
O267 C255 1.281 . S
O268 Mn252 2.297 . S
O268 C255 1.236 . S
N269 Mn253 2.282 . S
N269 C270 1.328 . S
N269 C274 1.318 . S
C270 N269 1.328 . S
C270 C271 1.457 . S
C270 H275 0.929 . S
C271 C270 1.457 . S
C271 C272 1.291 . S
C271 H284 0.931 . S
C272 C271 1.291 . S
C272 C273 1.373 . S
C272 H285 0.929 . S
C273 C272 1.373 . S
C273 C274 1.396 . S
C273 C280 1.403 . S
C274 C264 1.476 . S
C274 N269 1.318 . S
C274 C273 1.396 . S
H275 C270 0.929 . S
O276 Mn252 2.385 . S
O276 C254 1.234 . S
O277 Mn252 2.209 . S
O277 Mn253 2.215 1_554 S
O277 C254 1.283 . S
O278 Mn252 2.094 . S
O278 C256 1.240 . S
O279 Mn253 2.117 . S
O279 C256 1.264 1_556 S
C280 C273 1.403 . S
C280 C281 1.399 . S
C280 H286 0.929 1_455 S
C281 C261 1.449 . S
C281 C280 1.399 . S
C281 H287 0.930 1_455 S
H282 C262 0.931 . S
H283 C263 0.930 . S
H284 C271 0.931 . S
H285 C272 0.929 . S
H286 C280 0.929 1_655 S
H287 C281 0.930 1_655 S
C288 C289 1.369 . S
C288 C290 1.419 . S
C288 H292 0.930 . S
C289 C288 1.369 . S
C289 C298 1.429 . S
C290 C288 1.419 . S
C290 C291 1.363 . S
C290 H293 0.929 . S
C291 C290 1.363 . S
C291 C297 1.428 . S
H292 C288 0.930 . S
H293 C290 0.929 . S
S294 N295 1.613 . S
S294 N296 1.610 . S
N295 S294 1.613 . S
N295 C298 1.350 . S
N296 S294 1.610 . S
N296 C297 1.351 . S
C297 C291 1.428 . S
C297 N296 1.351 . S
C297 C298 1.434 . S
C298 C289 1.429 . S
C298 N295 1.350 . S
C298 C297 1.434 . S
C299 C300 1.369 . S
C299 C301 1.419 . S
C299 H303 0.930 . S
C300 C299 1.369 . S
C300 C309 1.429 . S
C301 C299 1.419 . S
C301 C302 1.363 . S
C301 H304 0.929 . S
C302 C301 1.363 . S
C302 C308 1.428 . S
H303 C299 0.930 . S
H304 C301 0.929 . S
S305 N306 1.613 . S
S305 N307 1.610 . S
N306 S305 1.613 . S
N306 C309 1.350 . S
N307 S305 1.610 . S
N307 C308 1.351 . S
C308 C302 1.428 . S
C308 N307 1.351 . S
C308 C309 1.434 . S
C309 C300 1.429 . S
C309 N306 1.350 . S
C309 C308 1.434 . S
C310 C311 1.369 . S
C310 C312 1.419 . S
C310 H314 0.930 . S
C311 C310 1.369 . S
C311 C320 1.429 . S
C312 C310 1.419 . S
C312 C313 1.363 . S
C312 H315 0.929 . S
C313 C312 1.363 . S
C313 C319 1.428 . S
H314 C310 0.930 . S
H315 C312 0.929 . S
S316 N317 1.613 . S
S316 N318 1.610 . S
N317 S316 1.613 . S
N317 C320 1.350 . S
N318 S316 1.610 . S
N318 C319 1.351 . S
C319 C313 1.428 . S
C319 N318 1.351 . S
C319 C320 1.434 . S
C320 C311 1.429 . S
C320 N317 1.350 . S
C320 C319 1.434 . S
C321 C322 1.369 . S
C321 C323 1.419 . S
C321 H325 0.930 . S
C322 C321 1.369 . S
C322 C331 1.429 . S
C323 C321 1.419 . S
C323 C324 1.363 . S
C323 H326 0.929 . S
C324 C323 1.363 . S
C324 C330 1.428 . S
H325 C321 0.930 . S
H326 C323 0.929 . S
S327 N328 1.613 . S
S327 N329 1.610 . S
N328 S327 1.613 . S
N328 C331 1.350 . S
N329 S327 1.610 . S
N329 C330 1.351 . S
C330 C324 1.428 . S
C330 N329 1.351 . S
C330 C331 1.434 . S
C331 C322 1.429 . S
C331 N328 1.350 . S
C331 C330 1.434 . S
C332 C333 1.369 . S
C332 C334 1.419 . S
C332 H336 0.930 . S
C333 C332 1.369 . S
C333 C342 1.429 . S
C334 C332 1.419 . S
C334 C335 1.363 . S
C334 H337 0.929 . S
C335 C334 1.363 . S
C335 C341 1.428 . S
H336 C332 0.930 . S
H337 C334 0.929 . S
S338 N339 1.613 . S
S338 N340 1.610 . S
N339 S338 1.613 . S
N339 C342 1.350 . S
N340 S338 1.610 . S
N340 C341 1.351 . S
C341 C335 1.428 . S
C341 N340 1.351 . S
C341 C342 1.434 . S
C342 C333 1.429 . S
C342 N339 1.350 . S
C342 C341 1.434 . S
C343 C344 1.369 . S
C343 C345 1.419 . S
C343 H347 0.930 . S
C344 C343 1.369 . S
C344 C353 1.429 . S
C345 C343 1.419 . S
C345 C346 1.363 . S
C345 H348 0.929 . S
C346 C345 1.363 . S
C346 C352 1.428 . S
H347 C343 0.930 . S
H348 C345 0.929 . S
S349 N350 1.613 . S
S349 N351 1.610 . S
N350 S349 1.613 . S
N350 C353 1.350 . S
N351 S349 1.610 . S
N351 C352 1.351 . S
C352 C346 1.428 . S
C352 N351 1.351 . S
C352 C353 1.434 . S
C353 C344 1.429 . S
C353 N350 1.350 . S
C353 C352 1.434 . S
C354 C355 1.369 . S
C354 C356 1.419 . S
C354 H358 0.930 . S
C355 C354 1.369 . S
C355 C364 1.429 . S
C356 C354 1.419 . S
C356 C357 1.363 . S
C356 H359 0.929 . S
C357 C356 1.363 . S
C357 C363 1.428 . S
H358 C354 0.930 . S
H359 C356 0.929 . S
S360 N361 1.613 . S
S360 N362 1.610 . S
N361 S360 1.613 . S
N361 C364 1.350 . S
N362 S360 1.610 . S
N362 C363 1.351 . S
C363 C357 1.428 . S
C363 N362 1.351 . S
C363 C364 1.434 . S
C364 C355 1.429 . S
C364 N361 1.350 . S
C364 C363 1.434 . S
C365 C366 1.369 . S
C365 C367 1.419 . S
C365 H369 0.930 . S
C366 C365 1.369 . S
C366 C375 1.429 . S
C367 C365 1.419 . S
C367 C368 1.363 . S
C367 H370 0.929 . S
C368 C367 1.363 . S
C368 C374 1.428 . S
H369 C365 0.930 . S
H370 C367 0.929 . S
S371 N372 1.613 . S
S371 N373 1.610 . S
N372 S371 1.613 . S
N372 C375 1.350 . S
N373 S371 1.610 . S
N373 C374 1.351 . S
C374 C368 1.428 . S
C374 N373 1.351 . S
C374 C375 1.434 . S
C375 C366 1.429 . S
C375 N372 1.350 . S
C375 C374 1.434 . S
C376 C377 1.369 1_556 S
C376 C378 1.419 . S
C376 H380 0.930 . S
C377 C376 1.369 1_554 S
C377 C386 1.429 . S
C378 C376 1.419 . S
C378 C379 1.363 1_556 S
C378 H381 0.929 . S
C379 C378 1.363 1_554 S
C379 C385 1.428 . S
H380 C376 0.930 . S
H381 C378 0.929 . S
S382 N383 1.613 . S
S382 N384 1.610 . S
N383 S382 1.613 . S
N383 C386 1.350 . S
N384 S382 1.610 . S
N384 C385 1.351 . S
C385 C379 1.428 . S
C385 N384 1.351 . S
C385 C386 1.434 . S
C386 C377 1.429 . S
C386 N383 1.350 . S
C386 C385 1.434 . S
C387 C388 1.369 . S
C387 C389 1.419 . S
C387 H391 0.930 1_556 S
C388 C387 1.369 . S
C388 C397 1.429 . S
C389 C387 1.419 . S
C389 C390 1.363 . S
C389 H392 0.930 . S
C390 C389 1.363 . S
C390 C396 1.428 . S
H391 C387 0.930 1_554 S
H392 C389 0.930 . S
S393 N394 1.613 . S
S393 N395 1.610 . S
N394 S393 1.613 . S
N394 C397 1.350 . S
N395 S393 1.610 . S
N395 C396 1.351 . S
C396 C390 1.428 . S
C396 N395 1.351 . S
C396 C397 1.434 . S
C397 C388 1.429 . S
C397 N394 1.350 . S
C397 C396 1.434 . S
C398 C399 1.369 1_556 S
C398 C400 1.419 . S
C398 H402 0.930 . S
C399 C398 1.369 1_554 S
C399 C408 1.429 . S
C400 C398 1.419 . S
C400 C401 1.363 1_556 S
C400 H403 0.929 . S
C401 C400 1.363 1_554 S
C401 C407 1.428 . S
H402 C398 0.930 . S
H403 C400 0.929 . S
S404 N405 1.613 . S
S404 N406 1.610 . S
N405 S404 1.613 . S
N405 C408 1.350 . S
N406 S404 1.610 . S
N406 C407 1.351 . S
C407 C401 1.428 . S
C407 N406 1.351 . S
C407 C408 1.434 . S
C408 C399 1.429 . S
C408 N405 1.350 . S
C408 C407 1.434 . S
C409 C410 1.369 1_554 S
C409 C411 1.419 . S
C409 H413 0.930 . S
C410 C409 1.369 1_556 S
C410 C419 1.429 . S
C411 C409 1.419 . S
C411 C412 1.363 1_554 S
C411 H414 0.929 . S
C412 C411 1.363 1_556 S
C412 C418 1.428 . S
H413 C409 0.930 . S
H414 C411 0.929 . S
S415 N416 1.613 . S
S415 N417 1.610 . S
N416 S415 1.613 . S
N416 C419 1.350 . S
N417 S415 1.610 . S
N417 C418 1.351 . S
C418 C412 1.428 . S
C418 N417 1.351 . S
C418 C419 1.434 . S
C419 C410 1.429 . S
C419 N416 1.350 . S
C419 C418 1.434 . S
C420 C421 1.369 . S
C420 C422 1.419 . S
C420 H424 0.930 . S
C421 C420 1.369 . S
C421 C430 1.429 1_655 S
C422 C420 1.419 . S
C422 C423 1.363 1_655 S
C422 H425 0.929 . S
C423 C422 1.363 1_455 S
C423 C429 1.428 . S
H424 C420 0.930 . S
H425 C422 0.929 . S
S426 N427 1.613 . S
S426 N428 1.610 . S
N427 S426 1.613 . S
N427 C430 1.350 . S
N428 S426 1.610 . S
N428 C429 1.351 . S
C429 C423 1.428 . S
C429 N428 1.351 . S
C429 C430 1.434 . S
C430 C421 1.429 1_455 S
C430 N427 1.350 . S
C430 C429 1.434 . S
C431 C432 1.369 . S
C431 C433 1.419 . S
C431 H435 0.930 . S
C432 C431 1.369 . S
C432 C441 1.429 1_545 S
C433 C431 1.419 . S
C433 C434 1.363 1_545 S
C433 H436 0.929 . S
C434 C433 1.363 1_565 S
C434 C440 1.428 . S
H435 C431 0.930 . S
H436 C433 0.929 . S
S437 N438 1.613 . S
S437 N439 1.610 . S
N438 S437 1.613 . S
N438 C441 1.350 . S
N439 S437 1.610 . S
N439 C440 1.351 . S
C440 C434 1.428 . S
C440 N439 1.351 . S
C440 C441 1.434 . S
C441 C432 1.429 1_565 S
C441 N438 1.350 . S
C441 C440 1.434 . S
C442 C443 1.369 . S
C442 C444 1.419 1_545 S
C442 H446 0.930 . S
C443 C442 1.369 . S
C443 C452 1.429 1_556 S
C444 C442 1.419 1_565 S
C444 C445 1.363 . S
C444 H447 0.929 . S
C445 C444 1.363 . S
C445 C451 1.428 1_556 S
H446 C442 0.930 . S
H447 C444 0.929 . S
S448 N449 1.613 . S
S448 N450 1.610 1_545 S
N449 S448 1.613 . S
N449 C452 1.350 . S
N450 S448 1.610 1_565 S
N450 C451 1.351 . S
C451 C445 1.428 1_554 S
C451 N450 1.351 . S
C451 C452 1.434 1_565 S
C452 C443 1.429 1_554 S
C452 N449 1.350 . S
C452 C451 1.434 1_545 S
C453 C454 1.369 . S
C453 C455 1.419 1_455 S
C453 H457 0.930 . S
C454 C453 1.369 . S
C454 C463 1.429 1_554 S
C455 C453 1.419 1_655 S
C455 C456 1.363 . S
C455 H458 0.929 . S
C456 C455 1.363 . S
C456 C462 1.428 1_554 S
H457 C453 0.930 . S
H458 C455 0.929 . S
S459 N460 1.613 1_655 S
S459 N461 1.610 . S
N460 S459 1.613 1_455 S
N460 C463 1.350 . S
N461 S459 1.610 . S
N461 C462 1.351 . S
C462 C456 1.428 1_556 S
C462 N461 1.351 . S
C462 C463 1.434 1_655 S
C463 C454 1.429 1_556 S
C463 N460 1.350 . S
C463 C462 1.434 1_455 S
C289 C255 1.540 . S
C291 C3 1.539 . S
C300 C39 1.540 . S
C302 C147 1.539 . S
C311 C75 1.538 . S
C313 C183 1.540 . S
C322 C219 1.538 . S
C324 C111 1.539 . S
C333 C40 1.527 . S
C335 C14 1.465 . S
C344 C50 1.471 . S
C346 C76 1.526 . S
C355 C112 1.527 . S
C357 C86 1.462 . S
C366 C122 1.462 . S
C368 C4 1.527 . S
C377 C256 1.525 . S
C379 C158 1.467 . S
C388 C194 1.461 . S
C390 C148 1.527 . S
C399 C184 1.525 . S
C401 C230 1.466 . S
C410 C220 1.527 . S
C412 C266 1.463 . S
C421 C74 1.099 . S
C423 C2 1.102 . S
C432 C110 1.098 . S
C434 C38 1.108 . S
C443 C218 1.111 . S
C445 C146 1.110 . S
C454 C254 1.111 . S
C456 C182 1.110 . S
