# Generated by pormake.
# Topology snk, (6)-cn, num edge types: 1
# Building blocks:
#     Node 0, Type 0, BuildingBlock: UKALOJ_clean_sbu_0, # of connection points: 6
#     Node 1, Type 0, BuildingBlock: UKALOJ_clean_sbu_0, # of connection points: 6
#     Node 2, Type 0, BuildingBlock: UKALOJ_clean_sbu_0, # of connection points: 6
#     Node 3, Type 0, BuildingBlock: UKALOJ_clean_sbu_0, # of connection points: 6
#     Node 4, Type 0, BuildingBlock: UKALOJ_clean_sbu_0, # of connection points: 6
#     Node 5, Type 0, BuildingBlock: UKALOJ_clean_sbu_0, # of connection points: 6
#     Node 6, Type 0, BuildingBlock: UKALOJ_clean_sbu_0, # of connection points: 6
#     Node 7, Type 0, BuildingBlock: UKALOJ_clean_sbu_0, # of connection points: 6
#     Edge 8, Type (0, 0), BuildingBlock: XIVTED_clean_linker_0, # of connection points: 2
#     Edge 9, Type (0, 0), BuildingBlock: XIVTED_clean_linker_0, # of connection points: 2
#     Edge 10, Type (0, 0), BuildingBlock: XIVTED_clean_linker_0, # of connection points: 2
#     Edge 11, Type (0, 0), BuildingBlock: XIVTED_clean_linker_0, # of connection points: 2
#     Edge 12, Type (0, 0), BuildingBlock: XIVTED_clean_linker_0, # of connection points: 2
#     Edge 13, Type (0, 0), BuildingBlock: XIVTED_clean_linker_0, # of connection points: 2
#     Edge 14, Type (0, 0), BuildingBlock: XIVTED_clean_linker_0, # of connection points: 2
#     Edge 15, Type (0, 0), BuildingBlock: XIVTED_clean_linker_0, # of connection points: 2
#     Edge 16, Type (0, 0), BuildingBlock: XIVTED_clean_linker_0, # of connection points: 2
#     Edge 17, Type (0, 0), BuildingBlock: XIVTED_clean_linker_0, # of connection points: 2
#     Edge 18, Type (0, 0), BuildingBlock: XIVTED_clean_linker_0, # of connection points: 2
#     Edge 19, Type (0, 0), BuildingBlock: XIVTED_clean_linker_0, # of connection points: 2
#     Edge 20, Type (0, 0), BuildingBlock: XIVTED_clean_linker_0, # of connection points: 2
#     Edge 21, Type (0, 0), BuildingBlock: XIVTED_clean_linker_0, # of connection points: 2
#     Edge 22, Type (0, 0), BuildingBlock: XIVTED_clean_linker_0, # of connection points: 2
#     Edge 23, Type (0, 0), BuildingBlock: XIVTED_clean_linker_0, # of connection points: 2
#     Edge 24, Type (0, 0), BuildingBlock: XIVTED_clean_linker_0, # of connection points: 2
#     Edge 25, Type (0, 0), BuildingBlock: XIVTED_clean_linker_0, # of connection points: 2
#     Edge 26, Type (0, 0), BuildingBlock: XIVTED_clean_linker_0, # of connection points: 2
#     Edge 27, Type (0, 0), BuildingBlock: XIVTED_clean_linker_0, # of connection points: 2
#     Edge 28, Type (0, 0), BuildingBlock: XIVTED_clean_linker_0, # of connection points: 2
#     Edge 29, Type (0, 0), BuildingBlock: XIVTED_clean_linker_0, # of connection points: 2
#     Edge 30, Type (0, 0), BuildingBlock: XIVTED_clean_linker_0, # of connection points: 2
#     Edge 31, Type (0, 0), BuildingBlock: XIVTED_clean_linker_0, # of connection points: 2
# Relax obj value: 0.134
# Max RMSD: 0.103
# Mean RMSD: 0.094
data_MOF--net-snk--node1-UKALOJ_clean_sbu_0--edge1-XIVTED_clean_linker_0
_symmetry_space_group_name_H-M    P1
_symmetry_Int_Tables_number       1
_symmetry_cell_setting            triclinic
loop_
_symmetry_equiv_pos_as_xyz
'x, y, z'
_cell_length_a     47.711812
_cell_length_b     47.748244
_cell_length_c     15.55957
_cell_angle_alpha  78.365016
_cell_angle_beta   78.296951
_cell_angle_gamma 93.304922
loop_
_atom_site_label
_atom_site_type_symbol
_atom_site_fract_x
_atom_site_fract_y
_atom_site_fract_z
_atom_type_partial_charge
Zn0 Zn 0.04734 1.01432 0.50022 0.0
O1 O 0.04715 1.01415 0.63649 0.0
C2 C 0.98623 0.98676 0.55138 0.0
Zn3 Zn 1.01551 0.04687 0.50076 0.0
C4 C 0.03151 0.02993 0.67826 0.0
O5 O 1.01578 0.04592 0.63742 0.0
C6 C 0.03141 0.03121 0.3227 0.0
O7 O 0.05059 0.08033 0.46051 0.0
O8 O 0.08185 0.04831 0.46053 0.0
N9 N 0.98614 0.07668 0.50498 0.0
C10 C 0.98 0.0978 0.44172 0.0
C11 C 0.95112 0.09809 0.56543 0.0
N12 N 0.9682 0.07702 0.5818 0.0
N13 N 0.9581 0.1114 0.47796 0.0
C14 C 0.07991 0.96176 0.5629 0.0
C15 C 0.11092 0.96114 0.44378 0.0
N16 N 0.07618 0.98394 0.49852 0.0
N17 N 0.09544 0.98342 0.4245 0.0
N18 N 0.1016 0.94726 0.53031 0.0
H19 H 0.03934 0.9595 0.65719 0.0
H20 H 0.071 0.9641 0.70119 0.0
H21 H 0.06017 0.92966 0.68198 0.0
C22 C 0.06136 0.95322 0.65596 0.0
C23 C 0.99632 0.10615 0.34595 0.0
H24 H 1.01907 0.10161 0.34046 0.0
H25 H 0.99553 0.12932 0.31808 0.0
H26 H 0.9862 0.09364 0.30552 0.0
O27 O 1.01555 0.04684 0.3646 0.0
O28 O 0.04734 1.0154 0.36338 0.0
C29 C 0.07666 0.07454 0.449 0.0
O30 O 1.01228 0.98103 0.53903 0.0
O31 O 0.98102 1.01294 0.54106 0.0
Zn32 Zn 0.25491 0.7534 0.79999 0.0
O33 O 0.21763 0.776 0.7964 0.0
C34 C 0.27304 0.77043 0.59968 0.0
Zn35 Zn 0.28467 0.79314 0.75485 0.0
C36 C 0.22215 0.80326 0.77274 0.0
O37 O 0.24773 0.81528 0.75392 0.0
C38 C 0.31772 0.74349 0.7808 0.0
O39 O 0.28184 0.79551 0.89139 0.0
O40 O 0.25248 0.75592 0.93567 0.0
N41 N 0.30898 0.83127 0.71113 0.0
C42 C 0.33109 0.8422 0.73971 0.0
C43 C 0.31967 0.87591 0.64449 0.0
N44 N 0.30211 0.85209 0.65109 0.0
N45 N 0.33828 0.87008 0.69854 0.0
C46 C 0.21466 0.70069 0.80449 0.0
C47 C 0.22853 0.66897 0.89941 0.0
N48 N 0.23171 0.71452 0.84458 0.0
N49 N 0.23976 0.69485 0.90534 0.0
N50 N 0.21271 0.67207 0.83636 0.0
H51 H 0.20128 0.7379 0.72391 0.0
H52 H 0.18029 0.7041 0.73422 0.0
H53 H 0.2155 0.71151 0.66346 0.0
C54 C 0.20223 0.71463 0.72727 0.0
C55 C 0.34376 0.82671 0.81466 0.0
H56 H 0.33336 0.80471 0.84395 0.0
H57 H 0.34198 0.83903 0.86855 0.0
H58 H 0.36693 0.82529 0.78867 0.0
O59 O 0.32181 0.77067 0.75608 0.0
O60 O 0.29221 0.73125 0.80169 0.0
C61 C 0.2667 0.77622 0.95484 0.0
O62 O 0.25796 0.75097 0.6629 0.0
O63 O 0.2869 0.79088 0.61928 0.0
Zn64 Zn 0.55659 0.05303 0.9506 0.0
O65 O 0.53451 0.09063 0.95372 0.0
C66 C 0.53907 0.03491 0.15116 0.0
Zn67 Zn 0.51649 1.02379 -0.00443 0.0
C68 C 0.5072 0.08646 0.97725 0.0
O69 O 0.49484 0.06103 -0.00371 0.0
C70 C 0.5657 0.99011 0.96997 0.0
O71 O 0.51441 0.0269 0.85872 0.0
O72 O 0.55442 0.05567 0.81452 0.0
N73 N 0.47801 1.0 0.03803 0.0
C74 C 0.46689 0.97828 0.00822 0.0
C75 C 0.43309 0.99004 0.10261 0.0
N76 N 0.45713 1.00707 0.09758 0.0
N77 N 0.43881 0.97156 0.04803 0.0
C78 C 0.60964 0.09218 0.94902 0.0
C79 C 0.64149 0.078 0.85491 0.0
N80 N 0.5958 0.07563 0.9075 0.0
N81 N 0.61556 0.06736 0.84735 0.0
N82 N 0.63831 0.0936 0.91857 0.0
H83 H 0.57246 0.10683 0.02611 0.0
H84 H 0.60663 0.12677 0.01845 0.0
H85 H 0.59771 0.09178 0.08974 0.0
C86 C 0.59554 0.10512 0.02497 0.0
C87 C 0.48244 0.96561 0.93324 0.0
H88 H 0.50467 0.97556 0.90528 0.0
H89 H 0.47047 0.96793 0.87844 0.0
H90 H 0.48332 0.94233 0.95872 0.0
O91 O 0.53848 0.98632 -0.00551 0.0
O92 O 0.57823 1.01546 0.94922 0.0
C93 C 0.53392 0.04175 0.79531 0.0
O94 O 0.55869 0.04977 0.08798 0.0
O95 O 0.51844 1.02132 0.13151 0.0
Zn96 Zn 0.29819 0.2643 0.2435 0.0
O97 O 0.29844 0.26445 0.1072 0.0
C98 C 0.32667 0.32502 0.19218 0.0
Zn99 Zn 0.26618 0.29667 0.2425 0.0
C100 C 0.28291 0.28035 0.06522 0.0
O101 O 0.26717 0.29632 0.10586 0.0
C102 C 0.28152 0.28054 0.42079 0.0
O103 O 0.2322 0.26213 0.2828 0.0
O104 O 0.26365 0.23029 0.28312 0.0
N105 N 0.2369 0.32655 0.23748 0.0
C106 C 0.21601 0.33324 0.30042 0.0
C107 C 0.21619 0.36195 0.17613 0.0
N108 N 0.23685 0.34438 0.1603 0.0
N109 N 0.20285 0.35539 0.26362 0.0
C110 C 0.35028 0.23095 0.18187 0.0
C111 C 0.35039 0.19998 0.3014 0.0
N112 N 0.3281 0.23499 0.24588 0.0
N113 N 0.3283 0.21576 0.32015 0.0
N114 N 0.36447 0.20908 0.21498 0.0
H115 H 0.35317 0.27146 0.08715 0.0
H116 H 0.34818 0.23982 0.04343 0.0
H117 H 0.38271 0.2502 0.06301 0.0
C118 C 0.35915 0.24934 0.08872 0.0
C119 C 0.20744 0.31726 0.39648 0.0
H120 H 0.21145 0.29438 0.40261 0.0
H121 H 0.18435 0.31861 0.42432 0.0
H122 H 0.22026 0.32722 0.43646 0.0
O123 O 0.26617 0.29667 0.37866 0.0
O124 O 0.29705 0.26434 0.38035 0.0
C125 C 0.23753 0.23594 0.29447 0.0
O126 O 0.33201 0.29888 0.20475 0.0
O127 O 0.30058 0.33061 0.20223 0.0
Zn128 Zn 0.76045 0.25809 0.28063 0.0
O129 O 0.72427 0.28259 0.275 0.0
C130 C 0.77977 0.27398 0.08066 0.0
Zn131 Zn 0.79243 0.29608 0.23595 0.0
C132 C 0.73064 0.30969 0.25016 0.0
O133 O 0.75686 0.31988 0.23193 0.0
C134 C 0.8227 0.245 0.26577 0.0
O135 O 0.7896 0.29893 0.37255 0.0
O136 O 0.75807 0.261 0.4156 0.0
N137 N 0.81828 0.33321 0.19083 0.0
C138 C 0.84013 0.34373 0.22135 0.0
C139 C 0.83063 0.37746 0.12215 0.0
N140 N 0.81265 0.354 0.12816 0.0
N141 N 0.84832 0.3714 0.17916 0.0
C142 C 0.71871 0.20601 0.28859 0.0
C143 C 0.72992 0.17521 0.392 0.0
N144 N 0.73567 0.22021 0.32793 0.0
N145 N 0.74207 0.20117 0.39385 0.0
N146 N 0.71518 0.17768 0.32625 0.0
H147 H 0.7075 0.24275 0.20058 0.0
H148 H 0.68554 0.20925 0.2136 0.0
H149 H 0.72135 0.21466 0.14677 0.0
C150 C 0.70764 0.21921 0.2078 0.0
C151 C 0.8513 0.32824 0.29968 0.0
H152 H 0.84741 0.34009 0.35476 0.0
H153 H 0.87485 0.32763 0.27882 0.0
H154 H 0.8414 0.30593 0.32564 0.0
O155 O 0.82813 0.27206 0.24008 0.0
O156 O 0.79673 0.23398 0.28515 0.0
C157 C 0.77324 0.28041 0.43552 0.0
O158 O 0.76337 0.25532 0.1434 0.0
O159 O 0.79477 0.29344 0.10103 0.0
Zn160 Zn 0.79727 0.76507 0.74782 0.0
O161 O 0.79767 0.76557 0.61135 0.0
C162 C 0.82612 0.82528 0.69767 0.0
Zn163 Zn 0.76514 0.79726 0.74696 0.0
C164 C 0.78217 0.78147 0.56925 0.0
O165 O 0.76622 0.79728 0.61 0.0
C166 C 0.7805 0.78076 0.92552 0.0
O167 O 0.73076 0.76315 0.78606 0.0
O168 O 0.76234 0.73155 0.78648 0.0
N169 N 0.73607 0.82733 0.74278 0.0
C170 C 0.71452 0.83302 0.80574 0.0
C171 C 0.71525 0.86295 0.68331 0.0
N172 N 0.73638 0.84592 0.66673 0.0
N173 N 0.70125 0.85528 0.77012 0.0
C174 C 0.8502 0.73162 0.69207 0.0
C175 C 0.8406 0.69354 0.79576 0.0
N176 N 0.82591 0.73467 0.75001 0.0
N177 N 0.82018 0.71106 0.81467 0.0
N178 N 0.85982 0.706 0.71947 0.0
H179 H 0.85041 0.77077 0.59258 0.0
H180 H 0.86606 0.74143 0.54907 0.0
H181 H 0.88511 0.76135 0.60913 0.0
C182 C 0.86341 0.75262 0.60576 0.0
C183 C 0.70538 0.81591 0.90044 0.0
H184 H 0.71027 0.79333 0.90466 0.0
H185 H 0.68199 0.81632 0.92641 0.0
H186 H 0.71711 0.82567 0.9435 0.0
O187 O 0.76506 0.79684 0.88351 0.0
O188 O 0.79617 0.76471 0.88484 0.0
C189 C 0.73621 0.73703 0.79752 0.0
O190 O 0.83149 0.79913 0.71001 0.0
O191 O 0.80002 0.83089 0.70756 0.0
Zn192 Zn 0.54648 0.51585 -0.00215 0.0
O193 O 0.54602 0.51502 0.1346 0.0
C194 C 0.48618 0.48697 0.04766 0.0
Zn195 Zn 0.51414 0.54784 -0.00094 0.0
C196 C 0.53013 0.53055 0.17672 0.0
O197 O 0.51436 0.54652 0.13598 0.0
C198 C 0.53058 0.5329 0.8202 0.0
O199 O 0.54814 0.58218 0.95999 0.0
O200 O 0.58002 0.55086 0.95979 0.0
N201 N 0.48394 0.57676 0.00487 0.0
C202 C 0.47781 0.59823 0.9427 0.0
C203 C 0.44846 0.59736 0.06655 0.0
N204 N 0.46571 0.57637 0.08179 0.0
N205 N 0.45563 0.61136 0.97972 0.0
C206 C 0.58079 0.46371 0.05348 0.0
C207 C 0.61693 0.47128 0.94282 0.0
N208 N 0.57688 0.48718 -0.00609 0.0
N209 N 0.59927 0.49165 0.92497 0.0
N210 N 0.60573 0.45335 0.02274 0.0
H211 H 0.57242 0.45907 0.19599 0.0
H212 H 0.55852 0.4288 0.16016 0.0
H213 H 0.54055 0.46109 0.15017 0.0
C214 C 0.56176 0.4526 0.14491 0.0
C215 C 0.49442 0.6074 0.84738 0.0
H216 H 0.49357 0.63068 0.82132 0.0
H217 H 0.48458 0.59535 0.80524 0.0
H218 H 0.51717 0.60292 0.84199 0.0
O219 O 0.51434 0.54817 0.86251 0.0
O220 O 0.54674 0.51735 0.86066 0.0
C221 C 0.57434 0.57693 0.94873 0.0
O222 O 0.51235 0.48158 0.03503 0.0
O223 O 0.4806 0.51304 0.03832 0.0
Zn224 Zn 1.0183 0.52325 0.49284 0.0
O225 O 1.01556 0.5259 0.35629 0.0
C226 C 0.06914 0.4925 0.46372 0.0
Zn227 Zn 0.05663 0.55483 0.44824 0.0
C228 C 0.03423 0.54212 0.29335 0.0
O229 O 0.05373 0.55719 0.3133 0.0
C230 C 0.0405 0.53583 0.64811 0.0
O231 O 0.03227 0.59118 0.45382 0.0
O232 O 0.99474 0.55888 0.49615 0.0
N233 N 0.09467 0.57946 0.4011 0.0
C234 C 0.10862 0.59687 0.43974 0.0
C235 C 0.13981 0.58513 0.33825 0.0
N236 N 0.11395 0.57275 0.33631 0.0
N237 N 0.13705 0.6004 0.40278 0.0
C238 C 0.9706 0.47536 0.50932 0.0
C239 C 0.93678 0.48524 0.60774 0.0
N240 N 0.98101 0.49762 0.53818 0.0
N241 N 0.96015 0.50352 0.60031 0.0
N242 N 0.94298 0.4671 0.55225 0.0
H243 H 1.00817 0.47418 0.40378 0.0
H244 H 0.97383 0.46632 0.37807 0.0
H245 H 0.98751 0.44037 0.45511 0.0
C246 C 0.98614 0.46368 0.43206 0.0
C247 C 0.0952 0.60797 0.52035 0.0
H248 H 0.07162 0.60784 0.5277 0.0
H249 H 0.10492 0.63017 0.51424 0.0
H250 H 0.09988 0.59448 0.58148 0.0
O251 O 0.05939 0.55195 0.58538 0.0
O252 O 1.02085 0.52108 0.62773 0.0
C253 C 1.0051 0.585 0.47814 0.0
O254 O 0.04203 0.48744 0.48951 0.0
O255 O 0.08052 0.51833 0.44385 0.0
H256 H 0.13488 0.07005 0.42168 0.0
H257 H 0.17931 0.24031 0.32322 0.0
H258 H 0.07343 0.13293 0.42091 0.0
H259 H 0.24087 0.17756 0.32117 0.0
H260 H 0.14035 0.20134 0.35983 0.0
H261 H 0.17388 0.10901 0.38501 0.0
C262 C 0.12953 0.09204 0.41364 0.0
C263 C 0.1007 0.0981 0.42453 0.0
C264 C 0.16237 0.19606 0.35147 0.0
C265 C 0.14549 0.14303 0.3826 0.0
C266 C 0.18469 0.21835 0.3306 0.0
C267 C 0.21355 0.21233 0.31896 0.0
C268 C 0.16879 0.16736 0.36091 0.0
C269 C 0.21903 0.18334 0.32948 0.0
C270 C 0.15187 0.11432 0.39276 0.0
C271 C 0.09526 0.12711 0.41326 0.0
N272 N 0.19693 0.16203 0.34972 0.0
N273 N 0.11737 0.1484 0.39307 0.0
H274 H 0.11263 0.89757 0.47925 0.0
H275 H 0.21682 0.85668 0.805 0.0
H276 H 0.11996 0.94417 0.6847 0.0
H277 H 0.17529 0.7914 0.70463 0.0
H278 H 0.18297 0.88991 0.75727 0.0
H279 H 0.13736 0.85906 0.55383 0.0
C280 C 0.11922 0.89942 0.54066 0.0
C281 C 0.11412 0.92374 0.5767 0.0
C282 C 0.18091 0.86817 0.74707 0.0
C283 C 0.14268 0.88045 0.66103 0.0
C284 C 0.20018 0.84922 0.77432 0.0
C285 C 0.1987 0.82129 0.75894 0.0
C286 C 0.16055 0.85941 0.70164 0.0
C287 C 0.1769 0.8127 0.7184 0.0
C288 C 0.13313 0.8775 0.58334 0.0
C289 C 0.12315 0.92547 0.65593 0.0
N290 N 0.15897 0.83191 0.68947 0.0
N291 N 0.13734 0.90427 0.6949 0.0
H292 H 0.39391 0.8703 0.70762 0.0
H293 H 0.39436 0.99227 0.98275 0.0
H294 H 0.31884 0.91516 0.76279 0.0
H295 H 0.43785 0.91619 0.03564 0.0
H296 H 0.36907 0.97002 0.88675 0.0
H297 H 0.41634 0.89549 0.80294 0.0
C298 C 0.38255 0.88601 0.7384 0.0
C299 C 0.35452 0.89049 0.72938 0.0
C300 C 0.38384 0.95809 0.92058 0.0
C301 C 0.37948 0.91892 0.83786 0.0
C302 C 0.39784 0.97053 0.97606 0.0
C303 C 0.41832 0.95599 0.01545 0.0
C304 C 0.39091 0.9313 0.90409 0.0
C305 C 0.42254 0.92808 0.00459 0.0
C306 C 0.39508 0.90004 0.79326 0.0
C307 C 0.34057 0.9113 0.76876 0.0
N308 N 0.40936 0.91677 0.94824 0.0
N309 N 0.35311 0.92467 0.82253 0.0
H310 H 0.45403 0.09252 0.94355 0.0
H311 H 0.41387 0.19748 0.26732 0.0
H312 H 0.51952 0.13322 0.0452 0.0
H313 H 0.36767 0.19065 0.06062 0.0
H314 H 0.45217 0.17223 0.19383 0.0
H315 H 0.42121 0.1269 0.98998 0.0
C316 C 0.46162 0.10908 0.97426 0.0
C317 C 0.48948 0.11018 -0.00961 0.0
C318 C 0.43387 0.17669 0.16381 0.0
C319 C 0.45183 0.14894 0.04619 0.0
C320 C 0.41207 0.19089 0.20587 0.0
C321 C 0.38791 0.19627 0.16917 0.0
C322 C 0.43097 0.16713 0.08608 0.0
C323 C 0.38624 0.18724 0.0899 0.0
C324 C 0.44291 0.12866 0.00075 0.0
C325 C 0.49826 0.1319 0.03089 0.0
N326 N 0.40732 0.17276 0.05154 0.0
N327 N 0.47927 0.15014 0.0591 0.0
H328 H 0.92802 0.99116 0.57832 0.0
H329 H 0.88431 0.821 0.67036 0.0
H330 H 0.98969 0.92849 0.5779 0.0
H331 H 0.82253 0.88355 0.67211 0.0
H332 H 0.9231 0.86004 0.63594 0.0
H333 H 0.88917 0.95214 0.613 0.0
C334 C 0.93343 0.96921 0.58573 0.0
C335 C 0.96227 0.9632 0.57505 0.0
C336 C 0.90107 0.86526 0.64376 0.0
C337 C 0.9177 0.91824 0.61463 0.0
C338 C 0.87886 0.84293 0.66338 0.0
C339 C 0.85 0.8489 0.6743 0.0
C340 C 0.89453 0.8939 0.6349 0.0
C341 C 0.84439 0.87784 0.6643 0.0
C342 C 0.91119 0.9469 0.60544 0.0
C343 C 0.96784 0.93424 0.58542 0.0
N344 N 0.86639 0.89918 0.64532 0.0
N345 N 0.94582 0.91293 0.60448 0.0
H346 H 0.94823 0.16244 0.52002 0.0
H347 H 0.8236 0.18808 0.26228 0.0
H348 H 0.93236 0.10866 0.34034 0.0
H349 H 0.8741 0.25989 0.30492 0.0
H350 H 0.86012 0.15679 0.30215 0.0
H351 H 0.91802 0.19724 0.45463 0.0
C352 C 0.93859 0.15827 0.46596 0.0
C353 C 0.94285 0.13303 0.43449 0.0
C354 C 0.86333 0.17947 0.30162 0.0
C355 C 0.90789 0.17191 0.36156 0.0
C356 C 0.84252 0.19729 0.27918 0.0
C357 C 0.84589 0.22659 0.28029 0.0
C358 C 0.88723 0.19089 0.3278 0.0
C359 C 0.87077 0.23744 0.30276 0.0
C360 C 0.9215 0.17802 0.42865 0.0
C361 C 0.92979 0.12818 0.36511 0.0
N362 N 0.8903 0.21949 0.32714 0.0
N363 N 0.9125 0.14727 0.3317 0.0
H364 H 0.75172 0.17047 0.17987 0.0
H365 H 0.63954 0.05967 0.07659 0.0
H366 H 0.67108 0.1361 0.36237 0.0
H367 H 0.68276 0.13478 0.88192 0.0
H368 H 0.66636 0.07178 0.18536 0.0
H369 H 0.74097 0.14084 0.07642 0.0
C370 C 0.73212 0.15594 0.19879 0.0
C371 C 0.71181 0.15585 0.27777 0.0
C372 C 0.67057 0.08507 0.11797 0.0
C373 C 0.69984 0.12197 0.16243 0.0
C374 C 0.65541 0.07826 0.05642 0.0
C375 C 0.65876 0.0968 0.97198 0.0
C376 C 0.68953 0.11019 0.0935 0.0
C377 C 0.67959 0.12037 0.94718 0.0
C378 C 0.72608 0.13919 0.14029 0.0
C379 C 0.68689 0.13674 0.30118 0.0
N380 N 0.69408 0.12673 0.00856 0.0
N381 N 0.68132 0.12066 0.24274 0.0
H382 H 0.70181 0.87803 0.91497 0.0
H383 H 0.54956 0.94002 0.92481 0.0
H384 H 0.65127 0.86692 0.72217 0.0
H385 H 0.62097 0.98541 0.98758 0.0
H386 H 0.58087 0.90311 0.88679 0.0
H387 H 0.66616 0.90774 0.97892 0.0
C388 C 0.68284 0.88142 0.88759 0.0
C389 C 0.67918 0.87005 0.81387 0.0
C390 C 0.58946 0.92099 0.91008 0.0
C391 C 0.63857 0.90364 0.88608 0.0
C392 C 0.57164 0.94189 0.9323 0.0
C393 C 0.58281 0.96579 0.95891 0.0
C394 C 0.61835 0.92376 0.91674 0.0
C395 C 0.61162 0.96737 0.96675 0.0
C396 C 0.6627 0.89843 0.92345 0.0
C397 C 0.65464 0.8754 0.77916 0.0
N398 N 0.62841 0.94662 0.94586 0.0
N399 N 0.63514 0.89179 0.81573 0.0
H400 H 0.56994 0.6351 0.9206 0.0
H401 H 0.74034 0.67889 0.82486 0.0
H402 H 0.6327 0.57353 0.92288 0.0
H403 H 0.67781 0.74068 0.82443 0.0
H404 H 0.70122 0.64016 0.8608 0.0
H405 H 0.60899 0.67398 0.88477 0.0
C406 C 0.59192 0.6297 0.91345 0.0
C407 C 0.59794 0.60087 0.92491 0.0
C408 C 0.69601 0.66217 0.85295 0.0
C409 C 0.64294 0.64552 0.88386 0.0
C410 C 0.71839 0.68436 0.83247 0.0
C411 C 0.71247 0.71321 0.82147 0.0
C412 C 0.66733 0.66871 0.86261 0.0
C413 C 0.68349 0.71883 0.8322 0.0
C414 C 0.61425 0.65198 0.89302 0.0
C415 C 0.62693 0.59535 0.91471 0.0
N416 N 0.66208 0.69684 0.85203 0.0
N417 N 0.64826 0.6174 0.8949 0.0
H418 H 0.73635 0.36725 0.23833 0.0
H419 H 0.58793 0.39656 0.08751 0.0
H420 H 0.67519 0.29828 0.22924 0.0
H421 H 0.65755 0.46141 0.06028 0.0
H422 H 0.61564 0.36009 0.15872 0.0
H423 H 0.70354 0.40174 0.19523 0.0
C424 C 0.71583 0.3593 0.22798 0.0
C425 C 0.70865 0.32981 0.23651 0.0
C426 C 0.6247 0.38235 0.13795 0.0
C427 C 0.67085 0.36952 0.1857 0.0
C428 C 0.60886 0.40308 0.09805 0.0
C429 C 0.62054 0.4319 0.06916 0.0
C430 C 0.65228 0.3907 0.14896 0.0
C431 C 0.64794 0.43936 0.08194 0.0
C432 C 0.69708 0.37909 0.20307 0.0
C433 C 0.68158 0.32084 0.22324 0.0
N434 N 0.66285 0.41893 0.12087 0.0
N435 N 0.66372 0.34068 0.19748 0.0
H436 H 0.94312 0.41179 0.54037 0.0
H437 H 0.82684 0.41566 0.24335 0.0
H438 H 0.89832 0.48691 0.48676 0.0
H439 H 0.90311 0.37192 0.19777 0.0
H440 H 0.84705 0.43946 0.34642 0.0
H441 H 0.91974 0.39064 0.43853 0.0
C442 C 0.92767 0.42335 0.50888 0.0
C443 C 0.92278 0.45108 0.52006 0.0
C444 C 0.85952 0.42502 0.31257 0.0
C445 C 0.89657 0.42769 0.40381 0.0
C446 C 0.84828 0.41191 0.25295 0.0
C447 C 0.86339 0.39173 0.21361 0.0
C448 C 0.88569 0.41736 0.33315 0.0
C449 C 0.89083 0.38709 0.22843 0.0
C450 C 0.91474 0.4116 0.45013 0.0
C451 C 0.90245 0.46538 0.47923 0.0
N452 N 0.90094 0.39937 0.28879 0.0
N453 N 0.89022 0.45364 0.42155 0.0
H454 H 0.9164 0.72533 0.65225 0.0
H455 H 0.94791 0.5802 0.48346 0.0
H456 H 0.85303 0.65424 0.6805 0.0
H457 H 1.01632 0.63956 0.50634 0.0
H458 H 0.91314 0.61238 0.52982 0.0
H459 H 0.95341 0.69899 0.57676 0.0
C460 C 0.91029 0.70438 0.64122 0.0
C461 C 0.88172 0.69187 0.67181 0.0
C462 C 0.93574 0.61859 0.52425 0.0
C463 C 0.92355 0.66177 0.58666 0.0
C464 C 0.95568 0.60023 0.49741 0.0
C465 C 0.98507 0.60703 0.49203 0.0
C466 C 0.94503 0.64404 0.54672 0.0
C467 C 0.99384 0.63348 0.50984 0.0
C468 C 0.93135 0.68932 0.59885 0.0
C469 C 0.87487 0.66448 0.65799 0.0
N470 N 0.97382 0.65095 0.53751 0.0
N471 N 0.89557 0.6504 0.61641 0.0
H472 H 0.38488 0.32079 0.16488 0.0
H473 H 0.42797 0.49096 0.07492 0.0
H474 H 0.32302 0.38327 0.16634 0.0
H475 H 0.49009 0.42873 0.07247 0.0
H476 H 0.38936 0.4518 0.10886 0.0
H477 H 0.42364 0.35989 0.13059 0.0
C478 C 0.3794 0.34272 0.15782 0.0
C479 C 0.35053 0.34865 0.16864 0.0
C480 C 0.41142 0.44667 0.101 0.0
C481 C 0.39501 0.39369 0.12947 0.0
C482 C 0.43354 0.46907 0.0817 0.0
C483 C 0.46244 0.46323 0.0707 0.0
C484 C 0.41809 0.41809 0.10948 0.0
C485 C 0.46819 0.43434 0.08028 0.0
C486 C 0.4016 0.36507 0.13829 0.0
C487 C 0.34489 0.37758 0.1586 0.0
N488 N 0.44627 0.41292 0.09899 0.0
N489 N 0.36685 0.39893 0.13975 0.0
H490 H 0.44421 0.66112 0.02907 0.0
H491 H 0.32158 0.68799 0.76498 0.0
H492 H 0.43163 0.61068 0.83732 0.0
H493 H 0.36826 0.75926 0.82412 0.0
H494 H 0.35918 0.65764 0.80053 0.0
H495 H 0.41394 0.69625 0.96564 0.0
C496 C 0.43531 0.65777 0.97278 0.0
C497 C 0.44047 0.63334 0.93745 0.0
C498 C 0.36137 0.68002 0.8045 0.0
C499 C 0.4055 0.67261 0.86653 0.0
C500 C 0.33993 0.6973 0.78451 0.0
C501 C 0.34188 0.72613 0.79168 0.0
C502 C 0.38447 0.69144 0.83439 0.0
C503 C 0.36607 0.73716 0.81732 0.0
C504 C 0.4182 0.67773 0.93654 0.0
C505 C 0.42837 0.62956 0.86518 0.0
N506 N 0.38622 0.71964 0.83938 0.0
N507 N 0.41104 0.64879 0.83284 0.0
H508 H 0.16891 0.63074 0.86465 0.0
H509 H 0.1758 0.64637 0.37573 0.0
H510 H 0.24924 0.6683 0.6857 0.0
H511 H 0.14553 0.56262 0.54417 0.0
H512 H 0.20366 0.65603 0.48559 0.0
H513 H 0.15886 0.60466 0.75104 0.0
C514 C 0.18471 0.63264 0.80251 0.0
C515 C 0.20964 0.65159 0.78294 0.0
C516 C 0.19162 0.63519 0.49687 0.0
C517 C 0.19827 0.62316 0.65362 0.0
C518 C 0.17589 0.62981 0.43454 0.0
C519 C 0.15851 0.60391 0.45248 0.0
C520 C 0.18894 0.61476 0.57777 0.0
C521 C 0.15879 0.5829 0.52949 0.0
C522 C 0.17911 0.61793 0.73803 0.0
C523 C 0.22967 0.65384 0.7017 0.0
N524 N 0.1731 0.58908 0.59117 0.0
N525 N 0.22317 0.64046 0.63833 0.0
H526 H 0.20669 0.38166 0.39933 0.0
H527 H 0.05301 0.44088 0.42857 0.0
H528 H 0.15173 0.36591 0.22276 0.0
H529 H 0.12623 0.4908 0.46548 0.0
H530 H 0.08441 0.40429 0.38963 0.0
H531 H 0.17245 0.4131 0.46105 0.0
C532 C 0.18708 0.38446 0.37511 0.0
C533 C 0.1817 0.37124 0.30663 0.0
C534 C 0.09345 0.42314 0.40724 0.0
C535 C 0.14273 0.40669 0.37638 0.0
C536 C 0.07558 0.44391 0.42992 0.0
C537 C 0.08712 0.46893 0.44987 0.0
C538 C 0.12285 0.42714 0.40661 0.0
C539 C 0.11655 0.47188 0.44998 0.0
C540 C 0.16776 0.40245 0.40961 0.0
C541 C 0.15638 0.37579 0.27576 0.0
N542 N 0.13344 0.45117 0.42885 0.0
N543 N 0.13768 0.39308 0.31116 0.0
H544 H 0.06663 1.00289 0.78044 0.0
H545 H 0.99592 0.05767 0.22086 0.0
H546 H 0.99714 0.05701 0.7924 0.0
H547 H 0.06616 1.00451 0.2082 0.0
H548 H 0.99598 0.05757 0.06417 0.0
H549 H 0.06659 1.00295 0.93724 0.0
C550 C 0.05125 1.01467 0.8161 0.0
C551 C 0.03174 0.02982 0.77324 0.0
C552 C 1.01143 0.04597 0.09555 0.0
C553 C 0.03174 0.03018 0.95287 0.0
C554 C 1.01148 0.04611 0.18507 0.0
C555 C 0.0312 0.03126 0.22773 0.0
C556 C 0.03121 0.0308 0.04813 0.0
C557 C 0.05058 1.01629 0.17809 0.0
C558 C 0.05131 1.01478 0.90565 0.0
C559 C 1.01256 0.045 0.82268 0.0
N560 N 0.05011 1.01647 0.09094 0.0
N561 N 1.01303 0.04478 0.90985 0.0
H562 H 0.25049 0.72773 0.53107 0.0
H563 H 0.29443 0.81651 0.02012 0.0
H564 H 0.2963 0.8127 0.45055 0.0
H565 H 0.24012 0.73603 0.10584 0.0
H566 H 0.29677 0.81484 0.17658 0.0
H567 H 0.24836 0.72943 0.37467 0.0
C568 C 0.26002 0.74678 0.48069 0.0
C569 C 0.27328 0.77023 0.5044 0.0
C570 C 0.28425 0.7976 0.16119 0.0
C571 C 0.27117 0.77225 0.3246 0.0
C572 C 0.28285 0.79857 0.07184 0.0
C573 C 0.26699 0.7764 0.04973 0.0
C574 C 0.26982 0.77423 0.22902 0.0
C575 C 0.25254 0.75364 0.11966 0.0
C576 C 0.25886 0.74772 0.3912 0.0
C577 C 0.2858 0.79412 0.43558 0.0
N578 N 0.25437 0.75311 0.20601 0.0
N579 N 0.28438 0.79454 0.34895 0.0
H580 H 0.49288 1.01508 0.7302 0.0
H581 H 0.58254 0.05589 0.21988 0.0
H582 H 0.5747 0.06722 0.64425 0.0
H583 H 0.49615 1.01317 0.30008 0.0
H584 H 0.58101 0.0582 0.37607 0.0
H585 H 0.49437 1.0126 0.57398 0.0
C586 C 0.51109 1.02616 0.67847 0.0
C587 C 0.53368 0.04145 0.70046 0.0
C588 C 0.56237 0.04835 0.35951 0.0
C589 C 0.53564 0.03844 0.5214 0.0
C590 C 0.5632 0.0471 0.27014 0.0
C591 C 0.53931 0.03467 0.24639 0.0
C592 C 0.5375 0.03695 0.42596 0.0
C593 C 0.51507 1.02302 0.31509 0.0
C594 C 0.51195 1.02467 0.58925 0.0
C595 C 0.55676 0.05526 0.63051 0.0
N596 N 0.51477 1.02451 0.40162 0.0
N597 N 0.55718 0.05335 0.54427 0.0
H598 H 0.30954 0.24493 0.96321 0.0
H599 H 0.25562 0.31642 0.52235 0.0
H600 H 0.25625 0.31506 0.95087 0.0
H601 H 0.30771 0.24536 0.53559 0.0
H602 H 0.25575 0.31634 0.67902 0.0
H603 H 0.30945 0.24498 0.80641 0.0
C604 C 0.29793 0.26045 0.92747 0.0
C605 C 0.28302 0.28013 0.97023 0.0
C606 C 0.26711 0.30072 0.64778 0.0
C607 C 0.28263 0.28016 0.79061 0.0
C608 C 0.26695 0.30068 0.55826 0.0
C609 C 0.28149 0.28074 0.51577 0.0
C610 C 0.28199 0.2807 0.69535 0.0
C611 C 0.29617 0.26112 0.56557 0.0
C612 C 0.2978 0.26039 0.83792 0.0
C613 C 0.26806 0.2995 0.92069 0.0
N614 N 0.29602 0.26158 0.65271 0.0
N615 N 0.26827 0.29904 0.83353 0.0
H616 H 0.80895 0.31375 0.93233 0.0
H617 H 0.74212 0.2425 0.58501 0.0
H618 H 0.75177 0.2352 0.0098 0.0
H619 H 0.80441 0.31739 0.50372 0.0
H620 H 0.7443 0.24046 0.7414 0.0
H621 H 0.80719 0.31585 0.77548 0.0
C622 C 0.79609 0.29684 0.9165 0.0
C623 C 0.78028 0.27432 0.98484 0.0
C624 C 0.75746 0.25738 0.68947 0.0
C625 C 0.77803 0.27678 0.80489 0.0
C626 C 0.75615 0.25864 0.60002 0.0
C627 C 0.7731 0.28018 0.53094 0.0
C628 C 0.77583 0.27781 0.7104 0.0
C629 C 0.79092 0.30044 0.55469 0.0
C630 C 0.79505 0.29812 0.82678 0.0
C631 C 0.76404 0.25309 0.95988 0.0
N632 N 0.79184 0.29874 0.6424 0.0
N633 N 0.76325 0.25489 0.87208 0.0
H634 H 0.81292 0.74948 0.46315 0.0
H635 H 0.75273 0.81518 0.02903 0.0
H636 H 0.75218 0.81311 0.45842 0.0
H637 H 0.80863 0.7472 0.03833 0.0
H638 H 0.75315 0.81542 0.18527 0.0
H639 H 0.81266 0.74918 0.30648 0.0
C640 C 0.79954 0.76341 0.4292 0.0
C641 C 0.7825 0.78132 0.47409 0.0
C642 C 0.76527 0.80039 0.15328 0.0
C643 C 0.78214 0.78109 0.29461 0.0
C644 C 0.76497 0.80018 0.06398 0.0
C645 C 0.7805 0.78101 0.02047 0.0
C646 C 0.78133 0.78137 0.19962 0.0
C647 C 0.79629 0.76233 0.06912 0.0
C648 C 0.79939 0.7632 0.33972 0.0
C649 C 0.76563 0.79893 0.42658 0.0
N650 N 0.7963 0.76298 0.15605 0.0
N651 N 0.76588 0.79837 0.33947 0.0
H652 H 0.49612 0.56052 0.71663 0.0
H653 H 0.56278 0.50064 0.28223 0.0
H654 H 0.56437 0.50492 0.70735 0.0
H655 H 0.49782 0.55998 0.28804 0.0
H656 H 0.563 0.50109 0.4388 0.0
H657 H 0.49593 0.55993 0.56041 0.0
C658 C 0.51119 0.54831 0.6817 0.0
C659 C 0.5304 0.53289 0.72521 0.0
C660 C 0.5487 0.51401 0.40584 0.0
C661 C 0.53013 0.53189 0.54612 0.0
C662 C 0.54852 0.51373 0.31642 0.0
C663 C 0.53025 0.5303 0.27186 0.0
C664 C 0.53044 0.53095 0.45119 0.0
C665 C 0.51228 0.54688 0.31962 0.0
C666 C 0.51101 0.54791 0.59242 0.0
C667 C 0.5492 0.51717 0.67657 0.0
N668 N 0.51283 0.54677 0.40664 0.0
N669 N 0.54858 0.51707 0.58968 0.0
H670 H 1.00053 0.50693 0.7964 0.0
H671 H 0.07234 0.57304 0.14392 0.0
H672 H 0.07948 0.56358 0.71892 0.0
H673 H 0.9971 0.51116 0.22508 0.0
H674 H 0.07434 0.57093 0.98748 0.0
H675 H 0.9985 0.50862 0.95326 0.0
C676 C 1.01754 0.51966 0.81223 0.0
C677 C 0.04016 0.53533 0.74391 0.0
C678 C 0.05734 0.55785 0.0394 0.0
C679 C 0.03778 0.5375 0.92388 0.0
C680 C 0.05611 0.55911 0.12887 0.0
C681 C 0.03448 0.54226 0.19792 0.0
C682 C 0.0368 0.53962 0.01841 0.0
C683 C 1.01411 0.52457 0.17413 0.0
C684 C 1.0163 0.52066 0.90197 0.0
C685 C 0.06152 0.5514 0.76886 0.0
N686 N 1.01579 0.5237 0.08638 0.0
N687 N 0.05976 0.55215 0.85669 0.0
loop_
_geom_bond_atom_site_label_1
_geom_bond_atom_site_label_2
_geom_bond_distance
_geom_bond_site_symmetry_2
_ccdc_geom_bond_type
Zn0 O1 2.055 . S
Zn0 O8 2.046 1_565 S
Zn0 N16 2.036 . S
Zn0 O28 2.053 . S
Zn0 O30 2.066 1_455 S
O1 Zn0 2.055 . S
O1 C4 1.259 1_565 S
C2 O30 1.256 . S
C2 O31 1.244 . S
Zn3 O5 2.046 . S
Zn3 O7 2.055 1_655 S
Zn3 N9 2.036 . S
Zn3 O27 2.066 . S
Zn3 O31 2.053 1_545 S
C4 O1 1.259 1_545 S
C4 O5 1.254 1_455 S
O5 Zn3 2.046 . S
O5 C4 1.254 1_655 S
C6 O27 1.256 1_455 S
C6 O28 1.244 1_545 S
O7 Zn3 2.055 1_455 S
O7 C29 1.259 . S
O8 Zn0 2.046 1_545 S
O8 C29 1.254 . S
N9 Zn3 2.036 . S
N9 C10 1.298 . S
N9 N12 1.398 . S
C10 N9 1.298 . S
C10 N13 1.367 . S
C10 C23 1.481 . S
C11 N12 1.299 . S
C11 N13 1.379 . S
N12 N9 1.398 . S
N12 C11 1.299 . S
N13 C10 1.367 . S
N13 C11 1.379 . S
C14 N16 1.298 . S
C14 N18 1.367 . S
C14 C22 1.481 . S
C15 N17 1.299 . S
C15 N18 1.379 . S
N16 Zn0 2.036 . S
N16 C14 1.298 . S
N16 N17 1.398 . S
N17 C15 1.299 . S
N17 N16 1.398 . S
N18 C14 1.367 . S
N18 C15 1.379 . S
H19 C22 0.980 . S
H20 C22 0.981 . S
H21 C22 0.981 . S
C22 C14 1.481 . S
C22 H19 0.980 . S
C22 H20 0.981 . S
C22 H21 0.981 . S
C23 C10 1.481 . S
C23 H24 0.980 . S
C23 H25 0.981 . S
C23 H26 0.981 . S
H24 C23 0.980 . S
H25 C23 0.981 . S
H26 C23 0.981 . S
O27 Zn3 2.066 . S
O27 C6 1.256 1_655 S
O28 Zn0 2.053 . S
O28 C6 1.244 1_565 S
C29 O7 1.259 . S
C29 O8 1.254 . S
O30 Zn0 2.066 1_655 S
O30 C2 1.256 . S
O31 C2 1.244 . S
O31 Zn3 2.053 1_565 S
Zn32 O33 2.055 . S
Zn32 O40 2.046 . S
Zn32 N48 2.036 . S
Zn32 O60 2.053 . S
Zn32 O62 2.066 . S
O33 Zn32 2.055 . S
O33 C36 1.259 . S
C34 O62 1.256 . S
C34 O63 1.244 . S
Zn35 O37 2.046 . S
Zn35 O39 2.055 . S
Zn35 N41 2.036 . S
Zn35 O59 2.066 . S
Zn35 O63 2.053 . S
C36 O33 1.259 . S
C36 O37 1.254 . S
O37 Zn35 2.046 . S
O37 C36 1.254 . S
C38 O59 1.256 . S
C38 O60 1.244 . S
O39 Zn35 2.055 . S
O39 C61 1.259 . S
O40 Zn32 2.046 . S
O40 C61 1.254 . S
N41 Zn35 2.036 . S
N41 C42 1.298 . S
N41 N44 1.398 . S
C42 N41 1.298 . S
C42 N45 1.367 . S
C42 C55 1.481 . S
C43 N44 1.299 . S
C43 N45 1.379 . S
N44 N41 1.398 . S
N44 C43 1.299 . S
N45 C42 1.367 . S
N45 C43 1.379 . S
C46 N48 1.298 . S
C46 N50 1.367 . S
C46 C54 1.481 . S
C47 N49 1.299 . S
C47 N50 1.379 . S
N48 Zn32 2.036 . S
N48 C46 1.298 . S
N48 N49 1.398 . S
N49 C47 1.299 . S
N49 N48 1.398 . S
N50 C46 1.367 . S
N50 C47 1.379 . S
H51 C54 0.980 . S
H52 C54 0.981 . S
H53 C54 0.981 . S
C54 C46 1.481 . S
C54 H51 0.980 . S
C54 H52 0.981 . S
C54 H53 0.981 . S
C55 C42 1.481 . S
C55 H56 0.980 . S
C55 H57 0.981 . S
C55 H58 0.981 . S
H56 C55 0.980 . S
H57 C55 0.981 . S
H58 C55 0.981 . S
O59 Zn35 2.066 . S
O59 C38 1.256 . S
O60 Zn32 2.053 . S
O60 C38 1.244 . S
C61 O39 1.259 . S
C61 O40 1.254 . S
O62 Zn32 2.066 . S
O62 C34 1.256 . S
O63 C34 1.244 . S
O63 Zn35 2.053 . S
Zn64 O65 2.055 1_556 S
Zn64 O72 2.046 . S
Zn64 N80 2.036 . S
Zn64 O92 2.053 1_545 S
Zn64 O94 2.066 1_556 S
O65 Zn64 2.055 1_554 S
O65 C68 1.259 . S
C66 O94 1.256 . S
C66 O95 1.244 1_545 S
Zn67 O69 2.046 1_566 S
Zn67 O71 2.055 . S
Zn67 N73 2.036 1_556 S
Zn67 O91 2.066 . S
Zn67 O95 2.053 1_556 S
C68 O65 1.259 . S
C68 O69 1.254 . S
O69 Zn67 2.046 1_544 S
O69 C68 1.254 . S
C70 O91 1.256 . S
C70 O92 1.244 . S
O71 Zn67 2.055 . S
O71 C93 1.259 1_565 S
O72 Zn64 2.046 . S
O72 C93 1.254 . S
N73 Zn67 2.036 1_554 S
N73 C74 1.298 1_554 S
N73 N76 1.398 . S
C74 N73 1.298 1_556 S
C74 N77 1.367 . S
C74 C87 1.481 . S
C75 N76 1.299 . S
C75 N77 1.379 1_554 S
N76 N73 1.398 . S
N76 C75 1.299 . S
N77 C74 1.367 . S
N77 C75 1.379 1_556 S
C78 N80 1.298 1_554 S
C78 N82 1.367 . S
C78 C86 1.481 . S
C79 N81 1.299 . S
C79 N82 1.379 1_556 S
N80 Zn64 2.036 . S
N80 C78 1.298 1_556 S
N80 N81 1.398 . S
N81 C79 1.299 . S
N81 N80 1.398 . S
N82 C78 1.367 . S
N82 C79 1.379 1_554 S
H83 C86 0.980 . S
H84 C86 0.981 . S
H85 C86 0.981 . S
C86 C78 1.481 . S
C86 H83 0.980 . S
C86 H84 0.981 . S
C86 H85 0.981 . S
C87 C74 1.481 . S
C87 H88 0.980 . S
C87 H89 0.981 . S
C87 H90 0.981 . S
H88 C87 0.980 . S
H89 C87 0.981 . S
H90 C87 0.981 . S
O91 Zn67 2.066 . S
O91 C70 1.256 . S
O92 Zn64 2.053 1_565 S
O92 C70 1.244 . S
C93 O71 1.259 1_545 S
C93 O72 1.254 . S
O94 Zn64 2.066 1_554 S
O94 C66 1.256 . S
O95 C66 1.244 1_565 S
O95 Zn67 2.053 1_554 S
Zn96 O97 2.055 . S
Zn96 O104 2.046 . S
Zn96 N112 2.036 . S
Zn96 O124 2.053 . S
Zn96 O126 2.066 . S
O97 Zn96 2.055 . S
O97 C100 1.259 . S
C98 O126 1.256 . S
C98 O127 1.244 . S
Zn99 O101 2.046 . S
Zn99 O103 2.055 . S
Zn99 N105 2.036 . S
Zn99 O123 2.066 . S
Zn99 O127 2.053 . S
C100 O97 1.259 . S
C100 O101 1.254 . S
O101 Zn99 2.046 . S
O101 C100 1.254 . S
C102 O123 1.256 . S
C102 O124 1.244 . S
O103 Zn99 2.055 . S
O103 C125 1.259 . S
O104 Zn96 2.046 . S
O104 C125 1.254 . S
N105 Zn99 2.036 . S
N105 C106 1.298 . S
N105 N108 1.398 . S
C106 N105 1.298 . S
C106 N109 1.367 . S
C106 C119 1.481 . S
C107 N108 1.299 . S
C107 N109 1.379 . S
N108 N105 1.398 . S
N108 C107 1.299 . S
N109 C106 1.367 . S
N109 C107 1.379 . S
C110 N112 1.298 . S
C110 N114 1.367 . S
C110 C118 1.481 . S
C111 N113 1.299 . S
C111 N114 1.379 . S
N112 Zn96 2.036 . S
N112 C110 1.298 . S
N112 N113 1.398 . S
N113 C111 1.299 . S
N113 N112 1.398 . S
N114 C110 1.367 . S
N114 C111 1.379 . S
H115 C118 0.980 . S
H116 C118 0.981 . S
H117 C118 0.981 . S
C118 C110 1.481 . S
C118 H115 0.980 . S
C118 H116 0.981 . S
C118 H117 0.981 . S
C119 C106 1.481 . S
C119 H120 0.980 . S
C119 H121 0.981 . S
C119 H122 0.981 . S
H120 C119 0.980 . S
H121 C119 0.981 . S
H122 C119 0.981 . S
O123 Zn99 2.066 . S
O123 C102 1.256 . S
O124 Zn96 2.053 . S
O124 C102 1.244 . S
C125 O103 1.259 . S
C125 O104 1.254 . S
O126 Zn96 2.066 . S
O126 C98 1.256 . S
O127 C98 1.244 . S
O127 Zn99 2.053 . S
Zn128 O129 2.055 . S
Zn128 O136 2.046 . S
Zn128 N144 2.036 . S
Zn128 O156 2.053 . S
Zn128 O158 2.066 . S
O129 Zn128 2.055 . S
O129 C132 1.259 . S
C130 O158 1.256 . S
C130 O159 1.244 . S
Zn131 O133 2.046 . S
Zn131 O135 2.055 . S
Zn131 N137 2.036 . S
Zn131 O155 2.066 . S
Zn131 O159 2.053 . S
C132 O129 1.259 . S
C132 O133 1.254 . S
O133 Zn131 2.046 . S
O133 C132 1.254 . S
C134 O155 1.256 . S
C134 O156 1.244 . S
O135 Zn131 2.055 . S
O135 C157 1.259 . S
O136 Zn128 2.046 . S
O136 C157 1.254 . S
N137 Zn131 2.036 . S
N137 C138 1.298 . S
N137 N140 1.398 . S
C138 N137 1.298 . S
C138 N141 1.367 . S
C138 C151 1.481 . S
C139 N140 1.299 . S
C139 N141 1.379 . S
N140 N137 1.398 . S
N140 C139 1.299 . S
N141 C138 1.367 . S
N141 C139 1.379 . S
C142 N144 1.298 . S
C142 N146 1.367 . S
C142 C150 1.481 . S
C143 N145 1.299 . S
C143 N146 1.379 . S
N144 Zn128 2.036 . S
N144 C142 1.298 . S
N144 N145 1.398 . S
N145 C143 1.299 . S
N145 N144 1.398 . S
N146 C142 1.367 . S
N146 C143 1.379 . S
H147 C150 0.980 . S
H148 C150 0.981 . S
H149 C150 0.981 . S
C150 C142 1.481 . S
C150 H147 0.980 . S
C150 H148 0.981 . S
C150 H149 0.981 . S
C151 C138 1.481 . S
C151 H152 0.980 . S
C151 H153 0.981 . S
C151 H154 0.981 . S
H152 C151 0.980 . S
H153 C151 0.981 . S
H154 C151 0.981 . S
O155 Zn131 2.066 . S
O155 C134 1.256 . S
O156 Zn128 2.053 . S
O156 C134 1.244 . S
C157 O135 1.259 . S
C157 O136 1.254 . S
O158 Zn128 2.066 . S
O158 C130 1.256 . S
O159 C130 1.244 . S
O159 Zn131 2.053 . S
Zn160 O161 2.055 . S
Zn160 O168 2.046 . S
Zn160 N176 2.036 . S
Zn160 O188 2.053 . S
Zn160 O190 2.066 . S
O161 Zn160 2.055 . S
O161 C164 1.259 . S
C162 O190 1.256 . S
C162 O191 1.244 . S
Zn163 O165 2.046 . S
Zn163 O167 2.055 . S
Zn163 N169 2.036 . S
Zn163 O187 2.066 . S
Zn163 O191 2.053 . S
C164 O161 1.259 . S
C164 O165 1.254 . S
O165 Zn163 2.046 . S
O165 C164 1.254 . S
C166 O187 1.256 . S
C166 O188 1.244 . S
O167 Zn163 2.055 . S
O167 C189 1.259 . S
O168 Zn160 2.046 . S
O168 C189 1.254 . S
N169 Zn163 2.036 . S
N169 C170 1.298 . S
N169 N172 1.398 . S
C170 N169 1.298 . S
C170 N173 1.367 . S
C170 C183 1.481 . S
C171 N172 1.299 . S
C171 N173 1.379 . S
N172 N169 1.398 . S
N172 C171 1.299 . S
N173 C170 1.367 . S
N173 C171 1.379 . S
C174 N176 1.298 . S
C174 N178 1.367 . S
C174 C182 1.481 . S
C175 N177 1.299 . S
C175 N178 1.379 . S
N176 Zn160 2.036 . S
N176 C174 1.298 . S
N176 N177 1.398 . S
N177 C175 1.299 . S
N177 N176 1.398 . S
N178 C174 1.367 . S
N178 C175 1.379 . S
H179 C182 0.980 . S
H180 C182 0.981 . S
H181 C182 0.981 . S
C182 C174 1.481 . S
C182 H179 0.980 . S
C182 H180 0.981 . S
C182 H181 0.981 . S
C183 C170 1.481 . S
C183 H184 0.980 . S
C183 H185 0.981 . S
C183 H186 0.981 . S
H184 C183 0.980 . S
H185 C183 0.981 . S
H186 C183 0.981 . S
O187 Zn163 2.066 . S
O187 C166 1.256 . S
O188 Zn160 2.053 . S
O188 C166 1.244 . S
C189 O167 1.259 . S
C189 O168 1.254 . S
O190 Zn160 2.066 . S
O190 C162 1.256 . S
O191 C162 1.244 . S
O191 Zn163 2.053 . S
Zn192 O193 2.055 . S
Zn192 O200 2.046 . S
Zn192 N208 2.036 . S
Zn192 O220 2.053 1_554 S
Zn192 O222 2.066 . S
O193 Zn192 2.055 . S
O193 C196 1.259 . S
C194 O222 1.256 . S
C194 O223 1.244 . S
Zn195 O197 2.046 . S
Zn195 O199 2.055 1_554 S
Zn195 N201 2.036 . S
Zn195 O219 2.066 1_554 S
Zn195 O223 2.053 . S
C196 O193 1.259 . S
C196 O197 1.254 . S
O197 Zn195 2.046 . S
O197 C196 1.254 . S
C198 O219 1.256 . S
C198 O220 1.244 . S
O199 Zn195 2.055 1_556 S
O199 C221 1.259 . S
O200 Zn192 2.046 . S
O200 C221 1.254 1_554 S
N201 Zn195 2.036 . S
N201 C202 1.298 1_554 S
N201 N204 1.398 . S
C202 N201 1.298 1_556 S
C202 N205 1.367 . S
C202 C215 1.481 . S
C203 N204 1.299 . S
C203 N205 1.379 1_554 S
N204 N201 1.398 . S
N204 C203 1.299 . S
N205 C202 1.367 . S
N205 C203 1.379 1_556 S
C206 N208 1.298 . S
C206 N210 1.367 . S
C206 C214 1.481 . S
C207 N209 1.299 . S
C207 N210 1.379 1_556 S
N208 Zn192 2.036 . S
N208 C206 1.298 . S
N208 N209 1.398 1_554 S
N209 C207 1.299 . S
N209 N208 1.398 1_556 S
N210 C206 1.367 . S
N210 C207 1.379 1_554 S
H211 C214 0.980 . S
H212 C214 0.981 . S
H213 C214 0.981 . S
C214 C206 1.481 . S
C214 H211 0.980 . S
C214 H212 0.981 . S
C214 H213 0.981 . S
C215 C202 1.481 . S
C215 H216 0.980 . S
C215 H217 0.981 . S
C215 H218 0.981 . S
H216 C215 0.980 . S
H217 C215 0.981 . S
H218 C215 0.981 . S
O219 Zn195 2.066 1_556 S
O219 C198 1.256 . S
O220 Zn192 2.053 1_556 S
O220 C198 1.244 . S
C221 O199 1.259 . S
C221 O200 1.254 1_556 S
O222 Zn192 2.066 . S
O222 C194 1.256 . S
O223 C194 1.244 . S
O223 Zn195 2.053 . S
Zn224 O225 2.055 . S
Zn224 O232 2.046 . S
Zn224 N240 2.036 . S
Zn224 O252 2.053 . S
Zn224 O254 2.066 1_655 S
O225 Zn224 2.055 . S
O225 C228 1.259 1_655 S
C226 O254 1.256 . S
C226 O255 1.244 . S
Zn227 O229 2.046 . S
Zn227 O231 2.055 1_455 S
Zn227 N233 2.036 . S
Zn227 O251 2.066 . S
Zn227 O255 2.053 . S
C228 O225 1.259 1_455 S
C228 O229 1.254 . S
O229 Zn227 2.046 . S
O229 C228 1.254 . S
C230 O251 1.256 . S
C230 O252 1.244 1_455 S
O231 Zn227 2.055 1_655 S
O231 C253 1.259 . S
O232 Zn224 2.046 . S
O232 C253 1.254 . S
N233 Zn227 2.036 . S
N233 C234 1.298 . S
N233 N236 1.398 . S
C234 N233 1.298 . S
C234 N237 1.367 . S
C234 C247 1.481 . S
C235 N236 1.299 . S
C235 N237 1.379 . S
N236 N233 1.398 . S
N236 C235 1.299 . S
N237 C234 1.367 . S
N237 C235 1.379 . S
C238 N240 1.298 . S
C238 N242 1.367 . S
C238 C246 1.481 . S
C239 N241 1.299 . S
C239 N242 1.379 . S
N240 Zn224 2.036 . S
N240 C238 1.298 . S
N240 N241 1.398 . S
N241 C239 1.299 . S
N241 N240 1.398 . S
N242 C238 1.367 . S
N242 C239 1.379 . S
H243 C246 0.980 . S
H244 C246 0.981 . S
H245 C246 0.981 . S
C246 C238 1.481 . S
C246 H243 0.980 . S
C246 H244 0.981 . S
C246 H245 0.981 . S
C247 C234 1.481 . S
C247 H248 0.980 . S
C247 H249 0.981 . S
C247 H250 0.981 . S
H248 C247 0.980 . S
H249 C247 0.981 . S
H250 C247 0.981 . S
O251 Zn227 2.066 . S
O251 C230 1.256 . S
O252 Zn224 2.053 . S
O252 C230 1.244 1_655 S
C253 O231 1.259 . S
C253 O232 1.254 . S
O254 Zn224 2.066 1_455 S
O254 C226 1.256 . S
O255 C226 1.244 . S
O255 Zn227 2.053 . S
H256 C262 0.930 . S
H257 C266 0.930 . S
H258 C271 0.929 . S
H259 C269 0.929 . S
H260 C264 0.929 . S
H261 C270 0.929 . S
C262 H256 0.930 . S
C262 C263 1.367 . S
C262 C270 1.378 . S
C263 C262 1.367 . S
C263 C271 1.433 . S
C264 H260 0.929 . S
C264 C266 1.378 . S
C264 C268 1.350 . S
C265 C268 1.463 . S
C265 C270 1.350 . S
C265 N273 1.427 . S
C266 H257 0.930 . S
C266 C264 1.378 . S
C266 C267 1.367 . S
C267 C266 1.367 . S
C267 C269 1.433 . S
C268 C264 1.350 . S
C268 C265 1.463 . S
C268 N272 1.427 . S
C269 H259 0.929 . S
C269 C267 1.433 . S
C269 N272 1.384 . S
C270 H261 0.929 . S
C270 C262 1.378 . S
C270 C265 1.350 . S
C271 H258 0.929 . S
C271 C263 1.433 . S
C271 N273 1.384 . S
N272 C268 1.427 . S
N272 C269 1.384 . S
N273 C265 1.427 . S
N273 C271 1.384 . S
H274 C280 0.930 . S
H275 C284 0.930 . S
H276 C289 0.929 . S
H277 C287 0.929 . S
H278 C282 0.929 . S
H279 C288 0.929 . S
C280 H274 0.930 . S
C280 C281 1.367 . S
C280 C288 1.378 . S
C281 C280 1.367 . S
C281 C289 1.433 . S
C282 H278 0.929 . S
C282 C284 1.378 . S
C282 C286 1.350 . S
C283 C286 1.463 . S
C283 C288 1.350 . S
C283 N291 1.427 . S
C284 H275 0.930 . S
C284 C282 1.378 . S
C284 C285 1.367 . S
C285 C284 1.367 . S
C285 C287 1.433 . S
C286 C282 1.350 . S
C286 C283 1.463 . S
C286 N290 1.427 . S
C287 H277 0.929 . S
C287 C285 1.433 . S
C287 N290 1.384 . S
C288 H279 0.929 . S
C288 C280 1.378 . S
C288 C283 1.350 . S
C289 H276 0.929 . S
C289 C281 1.433 . S
C289 N291 1.384 . S
N290 C286 1.427 . S
N290 C287 1.384 . S
N291 C283 1.427 . S
N291 C289 1.384 . S
H292 C298 0.930 . S
H293 C302 0.930 . S
H294 C307 0.929 . S
H295 C305 0.929 . S
H296 C300 0.929 . S
H297 C306 0.929 . S
C298 H292 0.930 . S
C298 C299 1.367 . S
C298 C306 1.378 . S
C299 C298 1.367 . S
C299 C307 1.433 . S
C300 H296 0.929 . S
C300 C302 1.378 1_556 S
C300 C304 1.350 . S
C301 C304 1.463 . S
C301 C306 1.350 . S
C301 N309 1.427 . S
C302 H293 0.930 . S
C302 C300 1.378 1_554 S
C302 C303 1.367 1_554 S
C303 C302 1.367 1_556 S
C303 C305 1.433 . S
C304 C300 1.350 . S
C304 C301 1.463 . S
C304 N308 1.427 . S
C305 H295 0.929 . S
C305 C303 1.433 . S
C305 N308 1.384 . S
C306 H297 0.929 . S
C306 C298 1.378 . S
C306 C301 1.350 . S
C307 H294 0.929 . S
C307 C299 1.433 . S
C307 N309 1.384 . S
N308 C304 1.427 . S
N308 C305 1.384 . S
N309 C301 1.427 . S
N309 C307 1.384 . S
H310 C316 0.930 . S
H311 C320 0.930 . S
H312 C325 0.929 . S
H313 C323 0.929 . S
H314 C318 0.929 . S
H315 C324 0.929 1_556 S
C316 H310 0.930 . S
C316 C317 1.367 1_556 S
C316 C324 1.378 1_556 S
C317 C316 1.367 1_554 S
C317 C325 1.433 . S
C318 H314 0.929 . S
C318 C320 1.378 . S
C318 C322 1.350 . S
C319 C322 1.463 . S
C319 C324 1.350 . S
C319 N327 1.427 . S
C320 H311 0.930 . S
C320 C318 1.378 . S
C320 C321 1.367 . S
C321 C320 1.367 . S
C321 C323 1.433 . S
C322 C318 1.350 . S
C322 C319 1.463 . S
C322 N326 1.427 . S
C323 H313 0.929 . S
C323 C321 1.433 . S
C323 N326 1.384 . S
C324 H315 0.929 1_554 S
C324 C316 1.378 1_554 S
C324 C319 1.350 . S
C325 H312 0.929 . S
C325 C317 1.433 . S
C325 N327 1.384 . S
N326 C322 1.427 . S
N326 C323 1.384 . S
N327 C319 1.427 . S
N327 C325 1.384 . S
H328 C334 0.930 . S
H329 C338 0.930 . S
H330 C343 0.929 . S
H331 C341 0.929 . S
H332 C336 0.929 . S
H333 C342 0.929 . S
C334 H328 0.930 . S
C334 C335 1.367 . S
C334 C342 1.378 . S
C335 C334 1.367 . S
C335 C343 1.433 . S
C336 H332 0.929 . S
C336 C338 1.378 . S
C336 C340 1.350 . S
C337 C340 1.463 . S
C337 C342 1.350 . S
C337 N345 1.427 . S
C338 H329 0.930 . S
C338 C336 1.378 . S
C338 C339 1.367 . S
C339 C338 1.367 . S
C339 C341 1.433 . S
C340 C336 1.350 . S
C340 C337 1.463 . S
C340 N344 1.427 . S
C341 H331 0.929 . S
C341 C339 1.433 . S
C341 N344 1.384 . S
C342 H333 0.929 . S
C342 C334 1.378 . S
C342 C337 1.350 . S
C343 H330 0.929 . S
C343 C335 1.433 . S
C343 N345 1.384 . S
N344 C340 1.427 . S
N344 C341 1.384 . S
N345 C337 1.427 . S
N345 C343 1.384 . S
H346 C352 0.930 . S
H347 C356 0.930 . S
H348 C361 0.929 . S
H349 C359 0.929 . S
H350 C354 0.929 . S
H351 C360 0.929 . S
C352 H346 0.930 . S
C352 C353 1.367 . S
C352 C360 1.378 . S
C353 C352 1.367 . S
C353 C361 1.433 . S
C354 H350 0.929 . S
C354 C356 1.378 . S
C354 C358 1.350 . S
C355 C358 1.463 . S
C355 C360 1.350 . S
C355 N363 1.427 . S
C356 H347 0.930 . S
C356 C354 1.378 . S
C356 C357 1.367 . S
C357 C356 1.367 . S
C357 C359 1.433 . S
C358 C354 1.350 . S
C358 C355 1.463 . S
C358 N362 1.427 . S
C359 H349 0.929 . S
C359 C357 1.433 . S
C359 N362 1.384 . S
C360 H351 0.929 . S
C360 C352 1.378 . S
C360 C355 1.350 . S
C361 H348 0.929 . S
C361 C353 1.433 . S
C361 N363 1.384 . S
N362 C358 1.427 . S
N362 C359 1.384 . S
N363 C355 1.427 . S
N363 C361 1.384 . S
H364 C370 0.930 . S
H365 C374 0.930 . S
H366 C379 0.929 . S
H367 C377 0.929 . S
H368 C372 0.929 . S
H369 C378 0.929 . S
C370 H364 0.930 . S
C370 C371 1.367 . S
C370 C378 1.378 . S
C371 C370 1.367 . S
C371 C379 1.433 . S
C372 H368 0.929 . S
C372 C374 1.378 . S
C372 C376 1.350 . S
C373 C376 1.463 . S
C373 C378 1.350 . S
C373 N381 1.427 . S
C374 H365 0.930 . S
C374 C372 1.378 . S
C374 C375 1.367 . S
C375 C374 1.367 . S
C375 C377 1.433 1_554 S
C376 C372 1.350 . S
C376 C373 1.463 . S
C376 N380 1.427 . S
C377 H367 0.929 . S
C377 C375 1.433 1_556 S
C377 N380 1.384 1_556 S
C378 H369 0.929 . S
C378 C370 1.378 . S
C378 C373 1.350 . S
C379 H366 0.929 . S
C379 C371 1.433 . S
C379 N381 1.384 . S
N380 C376 1.427 . S
N380 C377 1.384 1_554 S
N381 C373 1.427 . S
N381 C379 1.384 . S
H382 C388 0.930 . S
H383 C392 0.930 . S
H384 C397 0.929 . S
H385 C395 0.929 . S
H386 C390 0.929 . S
H387 C396 0.929 1_554 S
C388 H382 0.930 . S
C388 C389 1.367 . S
C388 C396 1.378 . S
C389 C388 1.367 . S
C389 C397 1.433 . S
C390 H386 0.929 . S
C390 C392 1.378 . S
C390 C394 1.350 . S
C391 C394 1.463 . S
C391 C396 1.350 . S
C391 N399 1.427 . S
C392 H383 0.930 . S
C392 C390 1.378 . S
C392 C393 1.367 . S
C393 C392 1.367 . S
C393 C395 1.433 1_556 S
C394 C390 1.350 . S
C394 C391 1.463 . S
C394 N398 1.427 . S
C395 H385 0.929 . S
C395 C393 1.433 1_554 S
C395 N398 1.384 1_554 S
C396 H387 0.929 1_556 S
C396 C388 1.378 . S
C396 C391 1.350 . S
C397 H384 0.929 . S
C397 C389 1.433 . S
C397 N399 1.384 . S
N398 C394 1.427 . S
N398 C395 1.384 1_556 S
N399 C391 1.427 . S
N399 C397 1.384 . S
H400 C406 0.930 . S
H401 C410 0.930 . S
H402 C415 0.929 . S
H403 C413 0.929 . S
H404 C408 0.929 . S
H405 C414 0.929 . S
C406 H400 0.930 . S
C406 C407 1.367 . S
C406 C414 1.378 . S
C407 C406 1.367 . S
C407 C415 1.433 . S
C408 H404 0.929 . S
C408 C410 1.378 . S
C408 C412 1.350 . S
C409 C412 1.463 . S
C409 C414 1.350 . S
C409 N417 1.427 . S
C410 H401 0.930 . S
C410 C408 1.378 . S
C410 C411 1.367 . S
C411 C410 1.367 . S
C411 C413 1.433 . S
C412 C408 1.350 . S
C412 C409 1.463 . S
C412 N416 1.427 . S
C413 H403 0.929 . S
C413 C411 1.433 . S
C413 N416 1.384 . S
C414 H405 0.929 . S
C414 C406 1.378 . S
C414 C409 1.350 . S
C415 H402 0.929 . S
C415 C407 1.433 . S
C415 N417 1.384 . S
N416 C412 1.427 . S
N416 C413 1.384 . S
N417 C409 1.427 . S
N417 C415 1.384 . S
H418 C424 0.930 . S
H419 C428 0.930 . S
H420 C433 0.929 . S
H421 C431 0.929 . S
H422 C426 0.929 . S
H423 C432 0.929 . S
C424 H418 0.930 . S
C424 C425 1.367 . S
C424 C432 1.378 . S
C425 C424 1.367 . S
C425 C433 1.433 . S
C426 H422 0.929 . S
C426 C428 1.378 . S
C426 C430 1.350 . S
C427 C430 1.463 . S
C427 C432 1.350 . S
C427 N435 1.427 . S
C428 H419 0.930 . S
C428 C426 1.378 . S
C428 C429 1.367 . S
C429 C428 1.367 . S
C429 C431 1.433 . S
C430 C426 1.350 . S
C430 C427 1.463 . S
C430 N434 1.427 . S
C431 H421 0.929 . S
C431 C429 1.433 . S
C431 N434 1.384 . S
C432 H423 0.929 . S
C432 C424 1.378 . S
C432 C427 1.350 . S
C433 H420 0.929 . S
C433 C425 1.433 . S
C433 N435 1.384 . S
N434 C430 1.427 . S
N434 C431 1.384 . S
N435 C427 1.427 . S
N435 C433 1.384 . S
H436 C442 0.930 . S
H437 C446 0.930 . S
H438 C451 0.929 . S
H439 C449 0.929 . S
H440 C444 0.929 . S
H441 C450 0.929 . S
C442 H436 0.930 . S
C442 C443 1.367 . S
C442 C450 1.378 . S
C443 C442 1.367 . S
C443 C451 1.433 . S
C444 H440 0.929 . S
C444 C446 1.378 . S
C444 C448 1.350 . S
C445 C448 1.463 . S
C445 C450 1.350 . S
C445 N453 1.427 . S
C446 H437 0.930 . S
C446 C444 1.378 . S
C446 C447 1.367 . S
C447 C446 1.367 . S
C447 C449 1.433 . S
C448 C444 1.350 . S
C448 C445 1.463 . S
C448 N452 1.427 . S
C449 H439 0.929 . S
C449 C447 1.433 . S
C449 N452 1.384 . S
C450 H441 0.929 . S
C450 C442 1.378 . S
C450 C445 1.350 . S
C451 H438 0.929 . S
C451 C443 1.433 . S
C451 N453 1.384 . S
N452 C448 1.427 . S
N452 C449 1.384 . S
N453 C445 1.427 . S
N453 C451 1.384 . S
H454 C460 0.930 . S
H455 C464 0.930 . S
H456 C469 0.929 . S
H457 C467 0.929 . S
H458 C462 0.929 . S
H459 C468 0.929 . S
C460 H454 0.930 . S
C460 C461 1.367 . S
C460 C468 1.378 . S
C461 C460 1.367 . S
C461 C469 1.433 . S
C462 H458 0.929 . S
C462 C464 1.378 . S
C462 C466 1.350 . S
C463 C466 1.463 . S
C463 C468 1.350 . S
C463 N471 1.427 . S
C464 H455 0.930 . S
C464 C462 1.378 . S
C464 C465 1.367 . S
C465 C464 1.367 . S
C465 C467 1.433 . S
C466 C462 1.350 . S
C466 C463 1.463 . S
C466 N470 1.427 . S
C467 H457 0.929 . S
C467 C465 1.433 . S
C467 N470 1.384 . S
C468 H459 0.929 . S
C468 C460 1.378 . S
C468 C463 1.350 . S
C469 H456 0.929 . S
C469 C461 1.433 . S
C469 N471 1.384 . S
N470 C466 1.427 . S
N470 C467 1.384 . S
N471 C463 1.427 . S
N471 C469 1.384 . S
H472 C478 0.930 . S
H473 C482 0.930 . S
H474 C487 0.929 . S
H475 C485 0.929 . S
H476 C480 0.929 . S
H477 C486 0.929 . S
C478 H472 0.930 . S
C478 C479 1.367 . S
C478 C486 1.378 . S
C479 C478 1.367 . S
C479 C487 1.433 . S
C480 H476 0.929 . S
C480 C482 1.378 . S
C480 C484 1.350 . S
C481 C484 1.463 . S
C481 C486 1.350 . S
C481 N489 1.427 . S
C482 H473 0.930 . S
C482 C480 1.378 . S
C482 C483 1.367 . S
C483 C482 1.367 . S
C483 C485 1.433 . S
C484 C480 1.350 . S
C484 C481 1.463 . S
C484 N488 1.427 . S
C485 H475 0.929 . S
C485 C483 1.433 . S
C485 N488 1.384 . S
C486 H477 0.929 . S
C486 C478 1.378 . S
C486 C481 1.350 . S
C487 H474 0.929 . S
C487 C479 1.433 . S
C487 N489 1.384 . S
N488 C484 1.427 . S
N488 C485 1.384 . S
N489 C481 1.427 . S
N489 C487 1.384 . S
H490 C496 0.930 1_554 S
H491 C500 0.930 . S
H492 C505 0.929 . S
H493 C503 0.929 . S
H494 C498 0.929 . S
H495 C504 0.929 . S
C496 H490 0.930 1_556 S
C496 C497 1.367 . S
C496 C504 1.378 . S
C497 C496 1.367 . S
C497 C505 1.433 . S
C498 H494 0.929 . S
C498 C500 1.378 . S
C498 C502 1.350 . S
C499 C502 1.463 . S
C499 C504 1.350 . S
C499 N507 1.427 . S
C500 H491 0.930 . S
C500 C498 1.378 . S
C500 C501 1.367 . S
C501 C500 1.367 . S
C501 C503 1.433 . S
C502 C498 1.350 . S
C502 C499 1.463 . S
C502 N506 1.427 . S
C503 H493 0.929 . S
C503 C501 1.433 . S
C503 N506 1.384 . S
C504 H495 0.929 . S
C504 C496 1.378 . S
C504 C499 1.350 . S
C505 H492 0.929 . S
C505 C497 1.433 . S
C505 N507 1.384 . S
N506 C502 1.427 . S
N506 C503 1.384 . S
N507 C499 1.427 . S
N507 C505 1.384 . S
H508 C514 0.930 . S
H509 C518 0.930 . S
H510 C523 0.929 . S
H511 C521 0.929 . S
H512 C516 0.929 . S
H513 C522 0.929 . S
C514 H508 0.930 . S
C514 C515 1.367 . S
C514 C522 1.378 . S
C515 C514 1.367 . S
C515 C523 1.433 . S
C516 H512 0.929 . S
C516 C518 1.378 . S
C516 C520 1.350 . S
C517 C520 1.463 . S
C517 C522 1.350 . S
C517 N525 1.427 . S
C518 H509 0.930 . S
C518 C516 1.378 . S
C518 C519 1.367 . S
C519 C518 1.367 . S
C519 C521 1.433 . S
C520 C516 1.350 . S
C520 C517 1.463 . S
C520 N524 1.427 . S
C521 H511 0.929 . S
C521 C519 1.433 . S
C521 N524 1.384 . S
C522 H513 0.929 . S
C522 C514 1.378 . S
C522 C517 1.350 . S
C523 H510 0.929 . S
C523 C515 1.433 . S
C523 N525 1.384 . S
N524 C520 1.427 . S
N524 C521 1.384 . S
N525 C517 1.427 . S
N525 C523 1.384 . S
H526 C532 0.930 . S
H527 C536 0.930 . S
H528 C541 0.929 . S
H529 C539 0.929 . S
H530 C534 0.929 . S
H531 C540 0.929 . S
C532 H526 0.930 . S
C532 C533 1.367 . S
C532 C540 1.378 . S
C533 C532 1.367 . S
C533 C541 1.433 . S
C534 H530 0.929 . S
C534 C536 1.378 . S
C534 C538 1.350 . S
C535 C538 1.463 . S
C535 C540 1.350 . S
C535 N543 1.427 . S
C536 H527 0.930 . S
C536 C534 1.378 . S
C536 C537 1.367 . S
C537 C536 1.367 . S
C537 C539 1.433 . S
C538 C534 1.350 . S
C538 C535 1.463 . S
C538 N542 1.427 . S
C539 H529 0.929 . S
C539 C537 1.433 . S
C539 N542 1.384 . S
C540 H531 0.929 . S
C540 C532 1.378 . S
C540 C535 1.350 . S
C541 H528 0.929 . S
C541 C533 1.433 . S
C541 N543 1.384 . S
N542 C538 1.427 . S
N542 C539 1.384 . S
N543 C535 1.427 . S
N543 C541 1.384 . S
H544 C550 0.930 . S
H545 C554 0.930 . S
H546 C559 0.929 . S
H547 C557 0.929 . S
H548 C552 0.929 . S
H549 C558 0.929 . S
C550 H544 0.930 . S
C550 C551 1.373 1_565 S
C550 C558 1.378 . S
C551 C550 1.373 1_545 S
C551 C559 1.423 1_655 S
C552 H548 0.929 . S
C552 C554 1.378 . S
C552 C556 1.350 . S
C553 C556 1.463 1_556 S
C553 C558 1.350 1_445 S
C553 N561 1.427 . S
C554 H545 0.930 . S
C554 C552 1.378 . S
C554 C555 1.367 . S
C555 C554 1.367 . S
C555 C557 1.433 1_445 S
C556 C552 1.350 . S
C556 C553 1.463 1_554 S
C556 N560 1.427 1_445 S
C557 H547 0.929 . S
C557 C555 1.433 1_665 S
C557 N560 1.384 . S
C558 H549 0.929 . S
C558 C550 1.378 . S
C558 C553 1.350 1_665 S
C559 H546 0.929 . S
C559 C551 1.423 1_455 S
C559 N561 1.384 . S
N560 C556 1.427 1_665 S
N560 C557 1.384 . S
N561 C553 1.427 . S
N561 C559 1.384 . S
H562 C568 0.930 . S
H563 C572 0.930 . S
H564 C577 0.929 . S
H565 C575 0.929 . S
H566 C570 0.929 . S
H567 C576 0.929 . S
C568 H562 0.930 . S
C568 C569 1.367 . S
C568 C576 1.378 . S
C569 C568 1.367 . S
C569 C577 1.433 . S
C570 H566 0.929 . S
C570 C572 1.378 . S
C570 C574 1.350 . S
C571 C574 1.463 . S
C571 C576 1.350 . S
C571 N579 1.427 . S
C572 H563 0.930 . S
C572 C570 1.378 . S
C572 C573 1.367 . S
C573 C572 1.367 . S
C573 C575 1.433 . S
C574 C570 1.350 . S
C574 C571 1.463 . S
C574 N578 1.427 . S
C575 H565 0.929 . S
C575 C573 1.433 . S
C575 N578 1.384 . S
C576 H567 0.929 . S
C576 C568 1.378 . S
C576 C571 1.350 . S
C577 H564 0.929 . S
C577 C569 1.433 . S
C577 N579 1.384 . S
N578 C574 1.427 . S
N578 C575 1.384 . S
N579 C571 1.427 . S
N579 C577 1.384 . S
H580 C586 0.930 . S
H581 C590 0.930 . S
H582 C595 0.929 . S
H583 C593 0.929 . S
H584 C588 0.929 . S
H585 C594 0.929 . S
C586 H580 0.930 . S
C586 C587 1.367 1_565 S
C586 C594 1.378 . S
C587 C586 1.367 1_545 S
C587 C595 1.433 . S
C588 H584 0.929 . S
C588 C590 1.378 . S
C588 C592 1.350 . S
C589 C592 1.463 . S
C589 C594 1.350 1_545 S
C589 N597 1.427 . S
C590 H581 0.930 . S
C590 C588 1.378 . S
C590 C591 1.367 . S
C591 C590 1.367 . S
C591 C593 1.433 1_545 S
C592 C588 1.350 . S
C592 C589 1.463 . S
C592 N596 1.427 1_545 S
C593 H583 0.929 . S
C593 C591 1.433 1_565 S
C593 N596 1.384 . S
C594 H585 0.929 . S
C594 C586 1.378 . S
C594 C589 1.350 1_565 S
C595 H582 0.929 . S
C595 C587 1.433 . S
C595 N597 1.384 . S
N596 C592 1.427 1_565 S
N596 C593 1.384 . S
N597 C589 1.427 . S
N597 C595 1.384 . S
H598 C604 0.930 . S
H599 C608 0.930 . S
H600 C613 0.929 . S
H601 C611 0.929 . S
H602 C606 0.929 . S
H603 C612 0.929 . S
C604 H598 0.930 . S
C604 C605 1.367 . S
C604 C612 1.378 . S
C605 C604 1.367 . S
C605 C613 1.433 . S
C606 H602 0.929 . S
C606 C608 1.378 . S
C606 C610 1.350 . S
C607 C610 1.463 . S
C607 C612 1.350 . S
C607 N615 1.427 . S
C608 H599 0.930 . S
C608 C606 1.378 . S
C608 C609 1.367 . S
C609 C608 1.367 . S
C609 C611 1.433 . S
C610 C606 1.350 . S
C610 C607 1.463 . S
C610 N614 1.427 . S
C611 H601 0.929 . S
C611 C609 1.433 . S
C611 N614 1.384 . S
C612 H603 0.929 . S
C612 C604 1.378 . S
C612 C607 1.350 . S
C613 H600 0.929 . S
C613 C605 1.433 . S
C613 N615 1.384 . S
N614 C610 1.427 . S
N614 C611 1.384 . S
N615 C607 1.427 . S
N615 C613 1.384 . S
H616 C622 0.930 . S
H617 C626 0.930 . S
H618 C631 0.929 1_554 S
H619 C629 0.929 . S
H620 C624 0.929 . S
H621 C630 0.929 . S
C622 H616 0.930 . S
C622 C623 1.367 1_556 S
C622 C630 1.378 . S
C623 C622 1.367 1_554 S
C623 C631 1.433 1_554 S
C624 H620 0.929 . S
C624 C626 1.378 . S
C624 C628 1.350 . S
C625 C628 1.463 . S
C625 C630 1.350 . S
C625 N633 1.427 . S
C626 H617 0.930 . S
C626 C624 1.378 . S
C626 C627 1.367 . S
C627 C626 1.367 . S
C627 C629 1.433 . S
C628 C624 1.350 . S
C628 C625 1.463 . S
C628 N632 1.427 . S
C629 H619 0.929 . S
C629 C627 1.433 . S
C629 N632 1.384 . S
C630 H621 0.929 . S
C630 C622 1.378 . S
C630 C625 1.350 . S
C631 H618 0.929 1_556 S
C631 C623 1.433 1_556 S
C631 N633 1.384 . S
N632 C628 1.427 . S
N632 C629 1.384 . S
N633 C625 1.427 . S
N633 C631 1.384 . S
H634 C640 0.930 . S
H635 C644 0.930 1_556 S
H636 C649 0.929 . S
H637 C647 0.929 . S
H638 C642 0.929 . S
H639 C648 0.929 . S
C640 H634 0.930 . S
C640 C641 1.367 . S
C640 C648 1.378 . S
C641 C640 1.367 . S
C641 C649 1.433 . S
C642 H638 0.929 . S
C642 C644 1.378 . S
C642 C646 1.350 . S
C643 C646 1.463 . S
C643 C648 1.350 . S
C643 N651 1.427 . S
C644 H635 0.930 1_554 S
C644 C642 1.378 . S
C644 C645 1.367 . S
C645 C644 1.367 . S
C645 C647 1.433 . S
C646 C642 1.350 . S
C646 C643 1.463 . S
C646 N650 1.427 . S
C647 H637 0.929 . S
C647 C645 1.433 . S
C647 N650 1.384 . S
C648 H639 0.929 . S
C648 C640 1.378 . S
C648 C643 1.350 . S
C649 H636 0.929 . S
C649 C641 1.433 . S
C649 N651 1.384 . S
N650 C646 1.427 . S
N650 C647 1.384 . S
N651 C643 1.427 . S
N651 C649 1.384 . S
H652 C658 0.930 . S
H653 C662 0.930 . S
H654 C667 0.929 . S
H655 C665 0.929 . S
H656 C660 0.929 . S
H657 C666 0.929 . S
C658 H652 0.930 . S
C658 C659 1.367 . S
C658 C666 1.378 . S
C659 C658 1.367 . S
C659 C667 1.433 . S
C660 H656 0.929 . S
C660 C662 1.378 . S
C660 C664 1.350 . S
C661 C664 1.463 . S
C661 C666 1.350 . S
C661 N669 1.427 . S
C662 H653 0.930 . S
C662 C660 1.378 . S
C662 C663 1.367 . S
C663 C662 1.367 . S
C663 C665 1.433 . S
C664 C660 1.350 . S
C664 C661 1.463 . S
C664 N668 1.427 . S
C665 H655 0.929 . S
C665 C663 1.433 . S
C665 N668 1.384 . S
C666 H657 0.929 . S
C666 C658 1.378 . S
C666 C661 1.350 . S
C667 H654 0.929 . S
C667 C659 1.433 . S
C667 N669 1.384 . S
N668 C664 1.427 . S
N668 C665 1.384 . S
N669 C661 1.427 . S
N669 C667 1.384 . S
H670 C676 0.930 . S
H671 C680 0.932 . S
H672 C685 0.929 . S
H673 C683 0.929 . S
H674 C678 0.929 1_655 S
H675 C684 0.929 . S
C676 H670 0.930 . S
C676 C677 1.367 . S
C676 C684 1.378 . S
C677 C676 1.367 . S
C677 C685 1.433 1_455 S
C678 H674 0.929 1_455 S
C678 C680 1.378 . S
C678 C682 1.350 . S
C679 C682 1.463 1_556 S
C679 C684 1.350 . S
C679 N687 1.431 . S
C680 H671 0.932 . S
C680 C678 1.378 . S
C680 C681 1.367 . S
C681 C680 1.367 . S
C681 C683 1.433 . S
C682 C678 1.350 . S
C682 C679 1.463 1_554 S
C682 N686 1.427 . S
C683 H673 0.929 . S
C683 C681 1.433 . S
C683 N686 1.384 . S
C684 H675 0.929 . S
C684 C676 1.378 . S
C684 C679 1.350 . S
C685 H672 0.929 . S
C685 C677 1.433 1_655 S
C685 N687 1.382 1_655 S
N686 C682 1.427 . S
N686 C683 1.384 . S
N687 C679 1.431 . S
N687 C685 1.382 1_455 S
C263 C29 2.706 . S
C267 C125 2.706 . S
C281 N18 1.489 . S
C285 C36 1.536 . S
C299 N45 0.672 . S
C303 N77 0.652 . S
C317 C68 1.536 . S
C321 N114 1.489 . S
C335 C2 3.057 . S
C339 C162 3.057 . S
C353 N13 1.451 . S
C357 C134 1.493 . S
C371 N146 0.314 . S
C375 N82 0.331 . S
C389 N173 1.458 . S
C393 C70 1.494 . S
C407 C221 2.708 . S
C411 C189 2.708 . S
C425 C132 1.537 . S
C429 N210 1.496 . S
C443 N242 0.665 . S
C447 N141 0.660 . S
C461 N178 1.495 . S
C465 C253 1.538 . S
C479 C98 3.058 . S
C483 C194 3.057 . S
C497 N205 1.452 . S
C501 C38 1.493 . S
C515 N50 0.295 . S
C519 N237 0.320 . S
C533 N109 1.457 . S
C537 C226 1.494 . S
C551 C4 1.359 1_655 S
C555 C6 1.361 . S
C569 C34 1.379 . S
C573 C61 1.380 1_554 S
C587 C93 1.383 . S
C591 C66 1.380 . S
C605 C100 1.352 1_556 S
C609 C102 1.357 . S
C623 C130 1.385 . S
C627 C157 1.385 . S
C641 C164 1.352 . S
C645 C166 1.358 1_554 S
C659 C198 1.361 . S
C663 C196 1.358 . S
C677 C230 1.384 . S
C681 C228 1.383 . S
