# Generated by pormake.
# Topology wiv, (6)-cn, num edge types: 1
# Building blocks:
#     Node 0, Type 0, BuildingBlock: FUNLAD_clean_sbu_0, # of connection points: 6
#     Node 1, Type 0, BuildingBlock: FUNLAD_clean_sbu_0, # of connection points: 6
#     Node 2, Type 0, BuildingBlock: FUNLAD_clean_sbu_0, # of connection points: 6
#     Node 3, Type 0, BuildingBlock: FUNLAD_clean_sbu_0, # of connection points: 6
#     Node 4, Type 0, BuildingBlock: FUNLAD_clean_sbu_0, # of connection points: 6
#     Node 5, Type 0, BuildingBlock: FUNLAD_clean_sbu_0, # of connection points: 6
#     Node 6, Type 0, BuildingBlock: FUNLAD_clean_sbu_0, # of connection points: 6
#     Node 7, Type 0, BuildingBlock: FUNLAD_clean_sbu_0, # of connection points: 6
#     Node 8, Type 0, BuildingBlock: FUNLAD_clean_sbu_0, # of connection points: 6
#     Node 9, Type 0, BuildingBlock: FUNLAD_clean_sbu_0, # of connection points: 6
#     Node 10, Type 0, BuildingBlock: FUNLAD_clean_sbu_0, # of connection points: 6
#     Node 11, Type 0, BuildingBlock: FUNLAD_clean_sbu_0, # of connection points: 6
#     Node 12, Type 0, BuildingBlock: FUNLAD_clean_sbu_0, # of connection points: 6
#     Node 13, Type 0, BuildingBlock: FUNLAD_clean_sbu_0, # of connection points: 6
#     Node 14, Type 0, BuildingBlock: FUNLAD_clean_sbu_0, # of connection points: 6
#     Node 15, Type 0, BuildingBlock: FUNLAD_clean_sbu_0, # of connection points: 6
#     Edge 16, Type (0, 0), BuildingBlock: CIFDUS_clean_linker_0, # of connection points: 2
#     Edge 17, Type (0, 0), BuildingBlock: CIFDUS_clean_linker_0, # of connection points: 2
#     Edge 18, Type (0, 0), BuildingBlock: CIFDUS_clean_linker_0, # of connection points: 2
#     Edge 19, Type (0, 0), BuildingBlock: CIFDUS_clean_linker_0, # of connection points: 2
#     Edge 20, Type (0, 0), BuildingBlock: CIFDUS_clean_linker_0, # of connection points: 2
#     Edge 21, Type (0, 0), BuildingBlock: CIFDUS_clean_linker_0, # of connection points: 2
#     Edge 22, Type (0, 0), BuildingBlock: CIFDUS_clean_linker_0, # of connection points: 2
#     Edge 23, Type (0, 0), BuildingBlock: CIFDUS_clean_linker_0, # of connection points: 2
#     Edge 24, Type (0, 0), BuildingBlock: CIFDUS_clean_linker_0, # of connection points: 2
#     Edge 25, Type (0, 0), BuildingBlock: CIFDUS_clean_linker_0, # of connection points: 2
#     Edge 26, Type (0, 0), BuildingBlock: CIFDUS_clean_linker_0, # of connection points: 2
#     Edge 27, Type (0, 0), BuildingBlock: CIFDUS_clean_linker_0, # of connection points: 2
#     Edge 28, Type (0, 0), BuildingBlock: CIFDUS_clean_linker_0, # of connection points: 2
#     Edge 29, Type (0, 0), BuildingBlock: CIFDUS_clean_linker_0, # of connection points: 2
#     Edge 30, Type (0, 0), BuildingBlock: CIFDUS_clean_linker_0, # of connection points: 2
#     Edge 31, Type (0, 0), BuildingBlock: CIFDUS_clean_linker_0, # of connection points: 2
#     Edge 32, Type (0, 0), BuildingBlock: CIFDUS_clean_linker_0, # of connection points: 2
#     Edge 33, Type (0, 0), BuildingBlock: CIFDUS_clean_linker_0, # of connection points: 2
#     Edge 34, Type (0, 0), BuildingBlock: CIFDUS_clean_linker_0, # of connection points: 2
#     Edge 35, Type (0, 0), BuildingBlock: CIFDUS_clean_linker_0, # of connection points: 2
#     Edge 36, Type (0, 0), BuildingBlock: CIFDUS_clean_linker_0, # of connection points: 2
#     Edge 37, Type (0, 0), BuildingBlock: CIFDUS_clean_linker_0, # of connection points: 2
#     Edge 38, Type (0, 0), BuildingBlock: CIFDUS_clean_linker_0, # of connection points: 2
#     Edge 39, Type (0, 0), BuildingBlock: CIFDUS_clean_linker_0, # of connection points: 2
#     Edge 40, Type (0, 0), BuildingBlock: CIFDUS_clean_linker_0, # of connection points: 2
#     Edge 41, Type (0, 0), BuildingBlock: CIFDUS_clean_linker_0, # of connection points: 2
#     Edge 42, Type (0, 0), BuildingBlock: CIFDUS_clean_linker_0, # of connection points: 2
#     Edge 43, Type (0, 0), BuildingBlock: CIFDUS_clean_linker_0, # of connection points: 2
#     Edge 44, Type (0, 0), BuildingBlock: CIFDUS_clean_linker_0, # of connection points: 2
#     Edge 45, Type (0, 0), BuildingBlock: CIFDUS_clean_linker_0, # of connection points: 2
#     Edge 46, Type (0, 0), BuildingBlock: CIFDUS_clean_linker_0, # of connection points: 2
#     Edge 47, Type (0, 0), BuildingBlock: CIFDUS_clean_linker_0, # of connection points: 2
#     Edge 48, Type (0, 0), BuildingBlock: CIFDUS_clean_linker_0, # of connection points: 2
#     Edge 49, Type (0, 0), BuildingBlock: CIFDUS_clean_linker_0, # of connection points: 2
#     Edge 50, Type (0, 0), BuildingBlock: CIFDUS_clean_linker_0, # of connection points: 2
#     Edge 51, Type (0, 0), BuildingBlock: CIFDUS_clean_linker_0, # of connection points: 2
#     Edge 52, Type (0, 0), BuildingBlock: CIFDUS_clean_linker_0, # of connection points: 2
#     Edge 53, Type (0, 0), BuildingBlock: CIFDUS_clean_linker_0, # of connection points: 2
#     Edge 54, Type (0, 0), BuildingBlock: CIFDUS_clean_linker_0, # of connection points: 2
#     Edge 55, Type (0, 0), BuildingBlock: CIFDUS_clean_linker_0, # of connection points: 2
#     Edge 56, Type (0, 0), BuildingBlock: CIFDUS_clean_linker_0, # of connection points: 2
#     Edge 57, Type (0, 0), BuildingBlock: CIFDUS_clean_linker_0, # of connection points: 2
#     Edge 58, Type (0, 0), BuildingBlock: CIFDUS_clean_linker_0, # of connection points: 2
#     Edge 59, Type (0, 0), BuildingBlock: CIFDUS_clean_linker_0, # of connection points: 2
#     Edge 60, Type (0, 0), BuildingBlock: CIFDUS_clean_linker_0, # of connection points: 2
#     Edge 61, Type (0, 0), BuildingBlock: CIFDUS_clean_linker_0, # of connection points: 2
#     Edge 62, Type (0, 0), BuildingBlock: CIFDUS_clean_linker_0, # of connection points: 2
#     Edge 63, Type (0, 0), BuildingBlock: CIFDUS_clean_linker_0, # of connection points: 2
# Relax obj value: 0.143
# Max RMSD: 0.143
# Mean RMSD: 0.143
data_MOF--net-wiv--node1-FUNLAD_clean_sbu_0--edge1-CIFDUS_clean_linker_0
_symmetry_space_group_name_H-M    P1
_symmetry_Int_Tables_number       1
_symmetry_cell_setting            triclinic
loop_
_symmetry_equiv_pos_as_xyz
'x, y, z'
_cell_length_a     63.161493
_cell_length_b     63.201646
_cell_length_c     12.922306
_cell_angle_alpha  89.85528
_cell_angle_beta   90.161561
_cell_angle_gamma 90.072126
loop_
_atom_site_label
_atom_site_type_symbol
_atom_site_fract_x
_atom_site_fract_y
_atom_site_fract_z
_atom_type_partial_charge
C0 C 0.37404 0.10694 0.84493 0.0
N1 N 0.36106 0.15996 0.02571 0.0
C2 C 0.37576 0.17075 -0.03046 0.0
C3 C 0.37507 0.19282 -0.03613 0.0
C4 C 0.35929 0.20384 0.01772 0.0
C5 C 0.34415 0.19231 0.07363 0.0
C6 C 0.34524 0.17028 0.076 0.0
Zn7 Zn 0.36299 0.12778 0.0403 0.0
C8 C 0.3213 0.10789 -0.01555 0.0
N9 N 0.36619 0.06024 0.07148 0.0
C10 C 0.38382 0.05009 0.03738 0.0
C11 C 0.3511 0.04971 0.12631 0.0
C12 C 0.35379 0.02834 0.15179 0.0
C13 C 0.37217 0.01758 0.12035 0.0
C14 C 0.38709 0.02871 0.06063 0.0
Zn15 Zn 0.36398 0.09257 0.05229 0.0
O16 O 0.37055 0.12478 0.88633 0.0
C17 C 0.40556 0.11417 0.10654 0.0
O18 O 0.37345 0.0902 0.89917 0.0
H19 H 0.33726 0.05807 0.15339 0.0
H20 H 0.38825 0.16226 0.93051 0.0
H21 H 0.39569 0.05872 -0.00571 0.0
O22 O 0.39505 0.13036 0.07939 0.0
O23 O 0.39667 0.09604 0.10406 0.0
H24 H 0.3336 0.16142 0.11945 0.0
O25 O 0.35455 0.09543 0.20474 0.0
O26 O 0.35542 0.1301 0.19518 0.0
O27 O 0.33104 0.09045 -0.00021 0.0
O28 O 0.33104 0.12517 0.00043 0.0
C29 C 0.35283 0.11336 0.24762 0.0
H30 H 0.38711 0.20122 0.92055 0.0
H31 H 0.33164 0.20028 0.11535 0.0
H32 H 0.34193 0.02058 0.19886 0.0
H33 H 0.40131 0.02106 0.03292 0.0
C34 C 0.10839 0.68128 0.67562 0.0
N35 N 0.06069 0.66453 0.87852 0.0
C36 C 0.04857 0.67937 0.83022 0.0
C37 C 0.02734 0.67521 0.80698 0.0
C38 C 0.01835 0.65555 0.83358 0.0
C39 C 0.031 0.64091 0.88756 0.0
C40 C 0.0522 0.64573 0.9093 0.0
Zn41 Zn 0.09309 0.66873 0.88243 0.0
C42 C 0.11578 0.62875 0.81618 0.0
N43 N 0.16042 0.67541 0.87089 0.0
C44 C 0.16957 0.69122 0.81486 0.0
C45 C 0.17238 0.66114 0.92415 0.0
C46 C 0.19441 0.66247 0.92255 0.0
C47 C 0.20423 0.67838 0.86406 0.0
C48 C 0.1916 0.69288 0.80957 0.0
Zn49 Zn 0.12823 0.67212 0.87303 0.0
O50 O 0.09185 0.67799 0.72834 0.0
C51 C 0.10751 0.71231 0.94147 0.0
O52 O 0.12646 0.6802 0.71823 0.0
H53 H 0.16485 0.64853 -0.03286 0.0
H54 H 0.05565 0.69409 0.80497 0.0
H55 H 0.15979 0.70245 0.77346 0.0
O56 O 0.09041 0.70158 0.93401 0.0
O57 O 0.12493 0.7037 0.91671 0.0
H58 H 0.0621 0.63406 0.94699 0.0
O59 O 0.12927 0.66378 0.02808 0.0
O60 O 0.0947 0.65965 0.0361 0.0
O61 O 0.13163 0.64072 0.82984 0.0
O62 O 0.09728 0.63602 0.83273 0.0
C63 C 0.11275 0.65949 0.0796 0.0
H64 H 0.01837 0.68693 0.76428 0.0
H65 H 0.02471 0.6257 0.91113 0.0
H66 H 0.2037 0.65088 -0.03535 0.0
H67 H 0.1987 0.70542 0.76404 0.0
C68 C 0.65524 0.92915 0.84541 0.0
N69 N 0.67464 0.87864 0.03067 0.0
C70 C 0.661 0.86627 -0.0241 0.0
C71 C 0.6636 0.84435 -0.02581 0.0
C72 C 0.68017 0.83508 0.03075 0.0
C73 C 0.69423 0.84818 0.08517 0.0
C74 C 0.69127 0.87007 0.0833 0.0
Zn75 Zn 0.66891 0.91037 0.04157 0.0
C76 C 0.7075 0.93556 -0.0179 0.0
N77 N 0.65697 0.9767 0.06877 0.0
C78 C 0.63804 0.98369 0.03152 0.0
C79 C 0.66955 0.98944 0.1273 0.0
C80 C 0.66279 1.00976 0.15404 0.0
C81 C 0.64292 0.0171 0.11995 0.0
C82 C 0.63072 1.0039 0.05599 0.0
Zn83 Zn 0.66393 0.94519 0.05287 0.0
O84 O 0.6605 0.91179 0.8876 0.0
C85 C 0.62542 0.91919 0.10884 0.0
O86 O 0.65429 0.94591 0.89893 0.0
H87 H 0.68443 0.98352 0.15706 0.0
H88 H 0.64777 0.87336 0.93545 0.0
H89 H 0.62815 0.97327 -0.01404 0.0
O90 O 0.63735 0.90393 0.0836 0.0
O91 O 0.63246 0.93801 0.10359 0.0
H92 H 0.70201 0.88018 0.12584 0.0
O93 O 0.67358 0.94402 0.20577 0.0
O94 O 0.67736 0.90957 0.19671 0.0
O95 O 0.69587 0.95154 0.00178 0.0
O96 O 0.70021 0.91704 -0.0026 0.0
C97 C 0.67774 0.92649 0.24896 0.0
H98 H 0.65233 0.8347 0.93208 0.0
H99 H 0.70727 0.84154 0.12909 0.0
H100 H 0.67268 0.01924 0.20443 0.0
H101 H 0.61549 1.00899 0.02645 0.0
C102 C 0.933 0.34968 0.6648 0.0
N103 N 0.98046 0.36839 0.86631 0.0
C104 C 0.99245 0.35336 0.81935 0.0
C105 C 1.01389 0.35694 0.80038 0.0
C106 C 0.02322 0.37619 0.83002 0.0
C107 C 1.01065 0.39112 0.88198 0.0
C108 C 0.9892 0.38688 0.89934 0.0
Zn109 Zn 0.94832 0.36375 0.87016 0.0
C110 C 0.92468 0.40255 0.79957 0.0
N111 N 0.88117 0.35439 0.86279 0.0
C112 C 0.87241 0.3356 0.83384 0.0
C113 C 0.86883 0.37095 0.89226 0.0
C114 C 0.84683 0.3692 0.89079 0.0
C115 C 0.83743 0.35006 0.86122 0.0
C116 C 0.8504 0.33301 0.83358 0.0
Zn117 Zn 0.91338 0.35863 0.86263 0.0
O118 O 0.94933 0.35493 0.7158 0.0
C119 C 0.93651 0.31993 0.93586 0.0
O120 O 0.91507 0.349 0.70882 0.0
H121 H 0.87603 0.38564 0.91677 0.0
H122 H 0.98519 0.33886 0.7926 0.0
H123 H 0.88247 0.32264 0.81048 0.0
O124 O 0.95267 0.33149 0.91905 0.0
O125 O 0.91816 0.3273 0.91689 0.0
H126 H 0.97937 0.39865 0.93621 0.0
O127 O 0.91209 0.3685 0.01569 0.0
O128 O 0.94668 0.37229 0.02516 0.0
O129 O 0.90923 0.38987 0.80964 0.0
O130 O 0.94325 0.39616 0.82204 0.0
C131 C 0.9286 0.3726 0.06803 0.0
H132 H 0.0228 0.34507 0.75882 0.0
H133 H 1.01724 0.40605 0.9075 0.0
H134 H 0.83722 0.3826 0.91343 0.0
H135 H 0.84356 0.31803 0.81019 0.0
C136 C 0.38202 0.41891 0.34181 0.0
N137 N 0.366 0.37169 0.13228 0.0
C138 C 0.37975 0.3594 0.18702 0.0
C139 C 0.37785 0.33742 0.18558 0.0
C140 C 0.36193 0.32797 0.12566 0.0
C141 C 0.34805 0.34092 0.06911 0.0
C142 C 0.35025 0.3629 0.07435 0.0
Zn143 Zn 0.36977 0.40386 0.13656 0.0
C144 C 0.32923 0.42506 0.20326 0.0
N145 N 0.37718 0.47114 0.14287 0.0
C146 C 0.39651 0.47845 0.17297 0.0
C147 C 0.36282 0.48423 0.09732 0.0
C148 C 0.36818 0.50521 0.07476 0.0
C149 C 0.38862 0.51278 0.09806 0.0
C150 C 0.40261 0.49923 0.15096 0.0
Zn151 Zn 0.37222 0.439 0.14354 0.0
O152 O 0.37748 0.40234 0.29149 0.0
C153 C 0.4125 0.41654 0.07688 0.0
O154 O 0.38201 0.43682 0.29711 0.0
H155 H 0.34757 0.4781 0.07352 0.0
H156 H 0.39233 0.36663 0.23151 0.0
H157 H 0.40776 0.46778 0.20867 0.0
O158 O 0.40159 0.40019 0.09666 0.0
O159 O 0.40424 0.43474 0.08838 0.0
H160 H 0.33942 0.37294 0.0318 0.0
O161 O 0.36228 0.44083 -0.00911 0.0
O162 O 0.36233 0.40616 -0.01931 0.0
O163 O 0.34002 0.44211 0.19761 0.0
O164 O 0.33782 0.40765 0.17771 0.0
C165 C 0.36019 0.42412 0.93794 0.0
H166 H 0.38896 0.32787 0.22937 0.0
H167 H 0.33552 0.33411 0.02244 0.0
H168 H 0.35664 0.51517 0.03629 0.0
H169 H 0.41856 0.50417 0.17002 0.0
C170 C 0.41877 0.6751 -0.02926 0.0
N171 N 0.47068 0.65811 0.79346 0.0
C172 C 0.48339 0.67209 0.84415 0.0
C173 C 0.50436 0.66673 0.86852 0.0
C174 C 0.51236 0.64668 0.84162 0.0
C175 C 0.499 0.63291 0.78637 0.0
C176 C 0.47827 0.63898 0.76271 0.0
Zn177 Zn 0.43858 0.66351 0.77576 0.0
C178 C 0.41387 0.62327 0.82276 0.0
N179 N 0.37154 0.67109 0.74973 0.0
C180 C 0.36244 0.68714 0.80375 0.0
C181 C 0.35966 0.65771 0.69101 0.0
C182 C 0.33768 0.65994 0.6868 0.0
C183 C 0.32788 0.67592 0.74466 0.0
C184 C 0.34053 0.68975 0.80285 0.0
Zn185 Zn 0.40348 0.66662 0.76305 0.0
O186 O 0.43665 0.67279 0.92798 0.0
C187 C 0.42613 0.7073 0.71556 0.0
O188 O 0.4019 0.67312 0.91856 0.0
H189 H 0.3672 0.64501 0.64902 0.0
H190 H 0.47709 0.68718 0.86842 0.0
H191 H 0.37216 0.69773 0.8492 0.0
O192 O 0.4431 0.69647 0.72609 0.0
O193 O 0.40839 0.69841 0.7307 0.0
H194 H 0.46796 0.628 0.72292 0.0
O195 O 0.40585 0.66009 0.60869 0.0
O196 O 0.44006 0.65422 0.62256 0.0
O197 O 0.39845 0.63473 0.79455 0.0
O198 O 0.43245 0.63111 0.82537 0.0
C199 C 0.42338 0.65514 0.56789 0.0
H200 H 0.51408 0.67813 0.90921 0.0
H201 H 0.50415 0.6172 0.76484 0.0
H202 H 0.32838 0.64888 0.64165 0.0
H203 H 0.33351 0.70238 0.84771 0.0
C204 C 0.65869 0.61547 0.3439 0.0
N205 N 0.6731 0.66768 0.15784 0.0
C206 C 0.68551 0.67713 0.23065 0.0
C207 C 0.68824 0.69911 0.23016 0.0
C208 C 0.678 0.71145 0.15434 0.0
C209 C 0.6649 0.70122 0.08207 0.0
C210 C 0.66282 0.67931 0.08468 0.0
Zn211 Zn 0.67029 0.63548 0.14837 0.0
C212 C 0.71117 0.61415 0.2008 0.0
N213 N 0.66424 0.56819 0.11981 0.0
C214 C 0.64619 0.55829 0.15109 0.0
C215 C 0.67966 0.5574 0.06903 0.0
C216 C 0.67701 0.53599 0.0455 0.0
C217 C 0.65832 0.52543 0.07449 0.0
C218 C 0.6429 0.53685 0.1292 0.0
Zn219 Zn 0.66734 0.60042 0.13659 0.0
O220 O 0.66326 0.63311 0.3024 0.0
C221 C 0.6265 0.62318 0.08893 0.0
O222 O 0.65815 0.59873 0.28992 0.0
H223 H 0.6938 0.56557 0.04393 0.0
H224 H 0.69359 0.66759 0.28802 0.0
H225 H 0.63409 0.56715 0.19109 0.0
O226 O 0.63792 0.63878 0.1151 0.0
O227 O 0.63457 0.60471 0.08731 0.0
H228 H 0.65314 0.67156 0.02696 0.0
O229 O 0.67649 0.60265 -0.01596 0.0
O230 O 0.67742 0.6373 -0.00675 0.0
O231 O 0.70033 0.5973 0.18729 0.0
O232 O 0.70245 0.63194 0.18426 0.0
C233 C 0.67911 0.62049 0.94105 0.0
H234 H 0.6986 0.70627 0.28705 0.0
H235 H 0.65628 0.71003 0.0237 0.0
H236 H 0.68924 0.52799 0.00201 0.0
H237 H 0.62838 0.52934 0.15444 0.0
C238 C 0.61652 0.35738 0.0094 0.0
N239 N 0.56853 0.37467 0.80875 0.0
C240 C 0.55617 0.35785 0.83486 0.0
C241 C 0.53503 0.36078 0.86276 0.0
C242 C 0.52655 0.38135 0.86861 0.0
C243 C 0.53938 0.39828 0.83527 0.0
C244 C 0.56022 0.39453 0.80406 0.0
Zn245 Zn 0.60096 0.37052 0.80273 0.0
C246 C 0.62401 0.41048 0.87279 0.0
N247 N 0.66846 0.36351 0.81209 0.0
C248 C 0.68001 0.36899 0.8971 0.0
C249 C 0.67803 0.35605 0.7252 0.0
C250 C 0.70005 0.35451 0.7204 0.0
C251 C 0.71225 0.36019 0.80666 0.0
C252 C 0.70206 0.36721 0.89638 0.0
Zn253 Zn 0.63621 0.36747 0.81232 0.0
O254 O 0.59995 0.36089 0.95663 0.0
C255 C 0.61456 0.32748 0.73965 0.0
O256 O 0.63456 0.35836 -0.03325 0.0
H257 H 0.66861 0.35158 0.65876 0.0
H258 H 0.5629 0.34218 0.83942 0.0
H259 H 0.67217 0.37507 -0.03493 0.0
O260 O 0.59766 0.33825 0.74975 0.0
O261 O 0.63219 0.33589 0.76379 0.0
H262 H 0.57004 0.40777 0.78188 0.0
O263 O 0.63694 0.37693 0.65796 0.0
O264 O 0.60226 0.37992 0.64885 0.0
O265 O 0.64019 0.39893 0.85994 0.0
O266 O 0.60575 0.40279 0.85423 0.0
C267 C 0.62031 0.38067 0.60577 0.0
H268 H 0.52577 0.34699 0.88321 0.0
H269 H 0.53394 0.41448 0.83817 0.0
H270 H 0.7075 0.349 0.65004 0.0
H271 H 0.7111 0.37189 -0.03606 0.0
C272 C 0.87738 0.60835 0.34338 0.0
N273 N 0.86016 0.65622 0.54836 0.0
C274 C 0.87518 0.6676 0.49732 0.0
C275 C 0.87518 0.68962 0.5011 0.0
C276 C 0.85986 0.70026 0.55981 0.0
C277 C 0.84417 0.68817 0.60969 0.0
C278 C 0.84459 0.66605 0.60267 0.0
Zn279 Zn 0.86361 0.62389 0.54861 0.0
C280 C 0.82453 0.60116 0.47742 0.0
N281 N 0.87356 0.55667 0.54717 0.0
C282 C 0.8924 0.54841 0.5162 0.0
C283 C 0.85876 0.54433 0.59428 0.0
C284 C 0.86294 0.52304 0.61534 0.0
C285 C 0.88257 0.51423 0.58785 0.0
C286 C 0.89725 0.52716 0.53589 0.0
Zn287 Zn 0.86869 0.58888 0.5418 0.0
O288 O 0.87275 0.62477 0.39456 0.0
C289 C 0.90764 0.61268 0.61077 0.0
O290 O 0.87752 0.59034 0.38722 0.0
H291 H 0.844 0.55122 0.6196 0.0
H292 H 0.88759 0.65961 0.45542 0.0
H293 H 0.90401 0.55848 0.47932 0.0
O294 O 0.89506 0.62808 0.59776 0.0
O295 O 0.90113 0.59402 0.59134 0.0
H296 H 0.83284 0.65673 0.64306 0.0
O297 O 0.8596 0.58786 0.69568 0.0
O298 O 0.85469 0.62223 0.70316 0.0
O299 O 0.83618 0.5849 0.4916 0.0
O300 O 0.83196 0.61941 0.4983 0.0
C301 C 0.85488 0.60423 0.74693 0.0
H302 H 0.88732 0.69818 0.4593 0.0
H303 H 0.83212 0.69563 0.6565 0.0
H304 H 0.85121 0.51383 0.65668 0.0
H305 H 0.91246 0.521 0.5119 0.0
C306 C 0.60707 0.18686 0.17643 0.0
N307 N 0.5603 0.16452 0.37173 0.0
C308 C 0.54663 0.18029 0.34552 0.0
C309 C 0.52586 0.17564 0.31545 0.0
C310 C 0.51905 0.15446 0.30814 0.0
C311 C 0.53315 0.13859 0.34143 0.0
C312 C 0.55364 0.144 0.37402 0.0
Zn313 Zn 0.59239 0.17169 0.38165 0.0
C314 C 0.61981 0.13514 0.31377 0.0
N315 N 0.65898 0.18555 0.37813 0.0
C316 C 0.66769 0.20125 0.31966 0.0
C317 C 0.67137 0.17239 0.43584 0.0
C318 C 0.69329 0.17473 0.43642 0.0
C319 C 0.70269 0.19043 0.37517 0.0
C320 C 0.6897 0.20384 0.31616 0.0
Zn321 Zn 0.62702 0.17949 0.37539 0.0
O322 O 0.59094 0.18154 0.22841 0.0
C323 C 0.60194 0.21646 0.4469 0.0
O324 O 0.62511 0.18781 0.21975 0.0
H325 H 0.66432 0.15966 0.47987 0.0
H326 H 0.55205 0.1965 0.34266 0.0
H327 H 0.65761 0.21153 0.27415 0.0
O328 O 0.58632 0.20379 0.43608 0.0
O329 O 0.62037 0.21033 0.42171 0.0
H330 H 0.56452 0.13157 0.39568 0.0
O331 O 0.62789 0.17075 0.5303 0.0
O332 O 0.59412 0.16214 0.53579 0.0
O333 O 0.63387 0.14897 0.33076 0.0
O334 O 0.60044 0.13988 0.32857 0.0
C335 C 0.61195 0.16422 0.58053 0.0
H336 H 0.51555 0.18864 0.29471 0.0
H337 H 0.52893 0.12202 0.33747 0.0
H338 H 0.70288 0.16391 0.48171 0.0
H339 H 0.6965 0.21612 0.26794 0.0
C340 C 0.16532 0.42638 0.35868 0.0
N341 N 0.18443 0.37528 0.54406 0.0
C342 C 0.16996 0.36298 0.49426 0.0
C343 C 0.17219 0.34098 0.49307 0.0
C344 C 0.18934 0.33141 0.54467 0.0
C345 C 0.20434 0.34458 0.59296 0.0
C346 C 0.20161 0.36653 0.59139 0.0
Zn347 Zn 0.17929 0.40731 0.5558 0.0
C348 C 0.2178 0.43222 0.49572 0.0
N349 N 0.16805 0.47405 0.5813 0.0
C350 C 0.14933 0.48228 0.54748 0.0
C351 C 0.18218 0.48617 0.63427 0.0
C352 C 0.17756 0.50726 0.65697 0.0
C353 C 0.15817 0.51609 0.62495 0.0
C354 C 0.14405 0.50332 0.56862 0.0
Zn355 Zn 0.17388 0.44224 0.56475 0.0
O356 O 0.17 0.40894 0.40201 0.0
C357 C 0.13536 0.41685 0.62137 0.0
O358 O 0.16503 0.44335 0.41083 0.0
H359 H 0.19686 0.4793 0.66147 0.0
H360 H 0.15641 0.3702 0.45708 0.0
H361 H 0.13825 0.47237 0.50583 0.0
O362 O 0.14778 0.40151 0.60338 0.0
O363 O 0.14202 0.43569 0.6094 0.0
H364 H 0.21296 0.37656 0.63053 0.0
O365 O 0.18269 0.44054 0.71895 0.0
O366 O 0.18856 0.40637 0.70958 0.0
O367 O 0.20614 0.44801 0.51807 0.0
O368 O 0.21054 0.41359 0.50758 0.0
C369 C 0.18781 0.42324 0.76211 0.0
H370 H 0.16042 0.33158 0.45295 0.0
H371 H 0.2177 0.33803 0.63473 0.0
H372 H 0.18884 0.51637 0.70177 0.0
H373 H 0.12906 0.50951 0.54124 0.0
C374 C 0.4172 0.85085 0.17202 0.0
N375 N 0.46908 0.87005 0.34486 0.0
C376 C 0.48145 0.85399 0.30991 0.0
C377 C 0.50239 0.85775 0.28072 0.0
C378 C 0.51068 0.87845 0.28333 0.0
C379 C 0.49766 0.8946 0.32267 0.0
C380 C 0.47703 0.88998 0.3545 0.0
Zn381 Zn 0.4372 0.86461 0.36765 0.0
C382 C 0.41139 0.9033 0.31417 0.0
N383 N 0.37018 0.85408 0.39647 0.0
C384 C 0.36041 0.83802 0.34481 0.0
C385 C 0.35884 0.86785 0.45522 0.0
C386 C 0.33686 0.86592 0.46275 0.0
C387 C 0.32635 0.84991 0.40773 0.0
C388 C 0.33839 0.83576 0.3486 0.0
Zn389 Zn 0.40223 0.85898 0.37911 0.0
O390 O 0.43461 0.85574 0.21474 0.0
C391 C 0.42767 0.82042 0.4361 0.0
O392 O 0.40036 0.85017 0.22501 0.0
H393 H 0.36679 0.88069 0.49461 0.0
H394 H 0.47494 0.83827 0.30149 0.0
H395 H 0.36966 0.82716 0.29886 0.0
O396 O 0.4431 0.83255 0.41382 0.0
O397 O 0.4088 0.82725 0.426 0.0
H398 H 0.46715 0.9026 0.38328 0.0
O399 O 0.40506 0.86787 0.5322 0.0
O400 O 0.43938 0.87348 0.52123 0.0
O401 O 0.39609 0.89085 0.33376 0.0
O402 O 0.43024 0.89648 0.32301 0.0
C403 C 0.42255 0.87273 0.57456 0.0
H404 H 0.51176 0.8445 0.25456 0.0
H405 H 0.5029 0.91088 0.32556 0.0
H406 H 0.32808 0.87726 0.50834 0.0
H407 H 0.33083 0.82314 0.30555 0.0
C408 C 0.87055 0.91796 0.81764 0.0
N409 N 0.85339 0.87026 0.61002 0.0
C410 C 0.86747 0.85787 0.66202 0.0
C411 C 0.86539 0.83589 0.66116 0.0
C412 C 0.84885 0.82638 0.60479 0.0
C413 C 0.83443 0.8396 0.55255 0.0
C414 C 0.83694 0.86157 0.55669 0.0
Zn415 Zn 0.85754 0.90246 0.61126 0.0
C416 C 0.81766 0.92417 0.68168 0.0
N417 N 0.8654 0.97006 0.61512 0.0
C418 C 0.88531 0.97821 0.62281 0.0
C419 C 0.84885 0.98257 0.58674 0.0
C420 C 0.85216 1.00373 0.55959 0.0
C421 C 0.87285 1.0121 0.55727 0.0
C422 C 0.88945 0.99908 0.59276 0.0
Zn423 Zn 0.86099 0.93766 0.62045 0.0
O424 O 0.86614 0.90144 0.76628 0.0
C425 C 0.90077 0.91457 0.55178 0.0
O426 O 0.87047 0.93599 0.77391 0.0
H427 H 0.83314 0.97593 0.57993 0.0
H428 H 0.88045 0.86504 0.70395 0.0
H429 H 0.89833 0.96823 0.64658 0.0
O430 O 0.88913 0.89847 0.56613 0.0
O431 O 0.89319 0.93289 0.56873 0.0
H432 H 0.82587 0.87168 0.51614 0.0
O433 O 0.8513 0.93895 0.46676 0.0
O434 O 0.84926 0.90434 0.45642 0.0
O435 O 0.82874 0.94096 0.67364 0.0
O436 O 0.82583 0.90654 0.65672 0.0
C437 C 0.8481 0.9224 0.41385 0.0
H438 H 0.87666 0.82648 0.70451 0.0
H439 H 0.82159 0.8331 0.50698 0.0
H440 H 0.8386 1.01313 0.53712 0.0
H441 H 0.90573 1.0044 0.59243 0.0
C442 C 0.91817 0.17817 0.49225 0.0
N443 N 0.96886 0.15926 0.30975 0.0
C444 C 0.98243 0.17351 0.35262 0.0
C445 C 1.00355 0.16797 0.3722 0.0
C446 C 1.01077 0.14741 0.34916 0.0
C447 C 0.99643 0.1333 0.30235 0.0
C448 C 0.97564 0.13962 0.28249 0.0
Zn449 Zn 0.93688 0.16528 0.2963 0.0
C450 C 0.91189 0.12573 0.35448 0.0
N451 N 0.86984 0.17391 0.27495 0.0
C452 C 0.86157 0.191 0.32437 0.0
C453 C 0.85724 0.16038 0.22077 0.0
C454 C 0.83539 0.16369 0.21578 0.0
C455 C 0.82642 0.18095 0.26797 0.0
C456 C 0.83981 0.19476 0.32234 0.0
Zn457 Zn 0.90176 0.16862 0.28546 0.0
O458 O 0.93592 0.17525 0.44888 0.0
C459 C 0.92531 0.20853 0.22794 0.0
O460 O 0.90118 0.17651 0.44057 0.0
H461 H 0.86412 0.14687 0.18231 0.0
H462 H 0.97676 0.18904 0.37393 0.0
H463 H 0.87185 0.20167 0.36629 0.0
O464 O 0.94203 0.19755 0.24218 0.0
O465 O 0.90737 0.20012 0.24474 0.0
H466 H 0.96469 0.12848 0.24823 0.0
O467 O 0.90312 0.16076 0.13087 0.0
O468 O 0.9374 0.15528 0.14328 0.0
O469 O 0.89623 0.13689 0.32604 0.0
O470 O 0.93044 0.1336 0.35069 0.0
C471 C 0.92061 0.15585 0.08931 0.0
H472 H 1.01399 0.17965 0.40611 0.0
H473 H 1.00089 0.11721 0.2843 0.0
H474 H 0.82555 0.15257 0.17383 0.0
H475 H 0.83351 0.20835 0.36276 0.0
C476 C 0.15677 0.11348 0.83334 0.0
N477 N 0.17657 0.16161 0.63291 0.0
C478 C 0.16294 0.17358 0.68934 0.0
C479 C 0.16357 0.19559 0.68369 0.0
C480 C 0.17806 0.20565 0.61752 0.0
C481 C 0.19257 0.19299 0.56323 0.0
C482 C 0.19157 0.17089 0.57228 0.0
Zn483 Zn 0.17101 0.12942 0.62999 0.0
C484 C 0.20881 0.10362 0.69461 0.0
N485 N 0.15698 0.06264 0.62127 0.0
C486 C 0.16463 0.04773 0.68782 0.0
C487 C 0.14511 0.05694 0.53767 0.0
C488 C 0.14065 0.03573 0.51767 0.0
C489 C 0.14854 0.01993 0.58368 0.0
C490 C 0.16062 0.02617 0.6702 0.0
Zn491 Zn 0.16399 0.09454 0.63289 0.0
O492 O 0.16296 0.1297 0.7842 0.0
C493 C 0.12616 0.12139 0.57524 0.0
O494 O 0.15515 0.09571 0.78809 0.0
H495 H 0.13947 0.06885 0.48418 0.0
H496 H 0.15089 0.16609 0.73606 0.0
H497 H 0.17414 0.05251 0.75349 0.0
O498 O 0.13951 0.13604 0.5903 0.0
O499 O 0.13186 0.1022 0.58561 0.0
H500 H 0.20222 0.16116 0.52754 0.0
O501 O 0.1733 0.09384 0.48022 0.0
O502 O 0.17866 0.12816 0.47329 0.0
O503 O 0.19601 0.08821 0.68143 0.0
O504 O 0.20267 0.1224 0.67425 0.0
C505 C 0.17823 0.11023 0.42935 0.0
H506 H 0.15238 0.2046 0.72907 0.0
H507 H 0.20396 0.19998 0.51083 0.0
H508 H 0.13166 0.03174 0.44891 0.0
H509 H 0.16696 1.01452 0.72345 0.0
C510 C 0.10525 0.85269 0.51588 0.0
N511 N 0.05772 0.8711 0.31432 0.0
C512 C 0.04568 0.85586 0.35988 0.0
C513 C 0.02418 0.85924 0.37792 0.0
C514 C 1.01481 0.87853 0.34897 0.0
C515 C 0.02747 0.8938 0.29944 0.0
C516 C 0.04899 0.88973 0.28272 0.0
Zn517 Zn 0.08992 0.86635 0.3102 0.0
C518 C 0.11361 0.90546 0.37792 0.0
N519 N 0.15737 0.85719 0.31798 0.0
C520 C 0.1663 0.84085 0.37142 0.0
C521 C 0.16959 0.87125 0.26487 0.0
C522 C 0.19158 0.86905 0.263 0.0
C523 C 0.20119 0.85248 0.31807 0.0
C524 C 0.18832 0.83832 0.37335 0.0
Zn525 Zn 0.12504 0.86154 0.31761 0.0
O526 O 0.08885 0.85747 0.46441 0.0
C527 C 0.10155 0.82255 0.24663 0.0
O528 O 0.12322 0.85244 0.47228 0.0
H529 H 0.16231 0.88432 0.22412 0.0
H530 H 0.05292 0.84128 0.38586 0.0
H531 H 0.15635 0.8298 0.41293 0.0
O532 O 0.08553 0.8343 0.26232 0.0
O533 O 0.12001 0.82974 0.26582 0.0
H534 H 0.05885 0.9017 0.24711 0.0
O535 O 0.12606 0.87091 0.16378 0.0
O536 O 0.0915 0.87499 0.15516 0.0
O537 O 0.12943 0.89325 0.36735 0.0
O538 O 0.09516 0.89847 0.3573 0.0
C539 C 0.10954 0.87518 0.1119 0.0
H540 H 1.01521 0.84712 0.4178 0.0
H541 H 0.02088 0.9088 0.27475 0.0
H542 H 0.20102 0.88041 0.22039 0.0
H543 H 0.19521 0.8253 0.41642 0.0
H544 H 0.37368 0.92112 0.25781 0.0
H545 H 0.44021 0.93524 0.29288 0.0
H546 H 0.43398 0.97154 0.23577 0.0
H547 H 0.40969 0.99946 0.17803 0.0
H548 H 0.34336 0.98513 0.13633 0.0
H549 H 0.34949 0.9489 0.19503 0.0
C550 C 0.38682 0.93215 0.2532 0.0
C551 C 0.40738 0.92541 0.28007 0.0
C552 C 0.38318 0.95303 0.2193 0.0
C553 C 0.42422 0.93993 0.27281 0.0
C554 C 0.42068 0.96073 0.24011 0.0
C555 C 0.39658 0.98838 0.18021 0.0
C556 C 0.37606 0.99518 0.15264 0.0
C557 C 0.40024 0.96746 0.21305 0.0
C558 C 0.35927 0.98055 0.1583 0.0
C559 C 0.36277 0.95975 0.1914 0.0
H560 H 0.9227 0.64937 0.69072 0.0
H561 H 0.94131 0.58522 0.62288 0.0
H562 H 0.97701 0.59259 0.68856 0.0
H563 H 1.00317 0.61769 0.76093 0.0
H564 H 0.98365 0.68143 0.83278 0.0
H565 H 0.94812 0.67376 0.76911 0.0
C566 C 0.93454 0.63694 0.68998 0.0
C567 C 0.92933 0.61678 0.65104 0.0
C568 C 0.95491 0.64125 0.72849 0.0
C569 C 0.94487 0.60088 0.65201 0.0
C570 C 0.96529 0.6051 0.68962 0.0
C571 C 0.99108 0.62983 0.76417 0.0
C572 C 0.99625 0.6502 0.80126 0.0
C573 C 0.97051 0.62527 0.72779 0.0
C574 C 0.98034 0.66575 0.80325 0.0
C575 C 0.95994 0.66135 0.76722 0.0
H576 H 0.665 0.05378 0.14108 0.0
H577 H 0.6023 0.02758 0.17549 0.0
H578 H 0.5892 0.06177 0.23565 0.0
H579 H 0.59587 0.09918 0.2836 0.0
H580 H 0.65932 0.1241 0.25367 0.0
H581 H 0.67168 0.0904 0.18878 0.0
C582 C 0.6485 0.05544 0.16254 0.0
C583 C 0.63473 0.03807 0.15372 0.0
C584 C 0.64114 0.07499 0.19868 0.0
C585 C 0.61327 0.04073 0.18004 0.0
C586 C 0.60576 0.06026 0.21531 0.0
C587 C 0.61237 0.0972 0.2628 0.0
C588 C 0.62657 0.11421 0.27416 0.0
C589 C 0.61959 0.07753 0.22557 0.0
C590 C 0.64795 0.11133 0.2466 0.0
C591 C 0.65512 0.09202 0.20909 0.0
H592 H 0.03959 0.41362 0.76075 0.0
H593 H 0.0572 0.34932 0.83437 0.0
H594 H 0.09315 0.35612 0.77418 0.0
H595 H 0.11946 0.38004 0.69772 0.0
H596 H 0.10236 0.44473 0.63011 0.0
H597 H 0.06642 0.43808 0.69197 0.0
C598 C 0.05136 0.40118 0.76536 0.0
C599 C 0.04558 0.38094 0.80166 0.0
C600 C 0.07209 0.40522 0.73114 0.0
C601 C 0.06105 0.36495 0.80537 0.0
C602 C 0.08166 0.36883 0.77127 0.0
C603 C 0.10786 0.39269 0.69623 0.0
C604 C 0.11355 0.41281 0.65856 0.0
C605 C 0.0873 0.38883 0.73302 0.0
C606 C 0.09839 0.42907 0.65845 0.0
C607 C 0.07783 0.42529 0.69387 0.0
H608 H 0.37867 0.53224 0.91596 0.0
H609 H 0.41528 0.54104 0.19526 0.0
H610 H 0.42828 0.57491 0.12968 0.0
H611 H 0.42822 0.60288 -0.00513 0.0
H612 H 0.38894 0.59506 0.72438 0.0
H613 H 0.37799 0.56004 0.78457 0.0
C614 C 0.38921 0.54165 -0.03637 0.0
C615 C 0.39584 0.53399 0.06087 0.0
C616 C 0.39632 0.56129 0.92639 0.0
C617 C 0.41001 0.54633 0.11973 0.0
C618 C 0.41743 0.56578 0.08241 0.0
C619 C 0.41756 0.59328 0.94866 0.0
C620 C 0.40959 0.60129 0.85478 0.0
C621 C 0.41068 0.57345 -0.01418 0.0
C622 C 0.39537 0.58905 0.79651 0.0
C623 C 0.38903 0.5691 0.83113 0.0
H624 H 0.60458 0.6091 0.92 0.0
H625 H 0.59873 0.64703 0.195 0.0
H626 H 0.56284 0.65726 0.14464 0.0
H627 H 0.53355 0.65633 0.02054 0.0
H628 H 0.54039 0.62122 0.73635 0.0
H629 H 0.57516 0.6089 0.79238 0.0
C630 C 0.59524 0.61931 -0.03065 0.0
C631 C 0.6041 0.62708 0.06174 0.0
C632 C 0.57483 0.6258 0.93785 0.0
C633 C 0.59212 0.64074 0.12394 0.0
C634 C 0.57165 0.64667 0.09495 0.0
C635 C 0.54268 0.64624 -0.03021 0.0
C636 C 0.5341 0.63979 0.87411 0.0
C637 C 0.56295 0.63955 0.00137 0.0
C638 C 0.54624 0.62627 0.81112 0.0
C639 C 0.56627 0.61926 0.84287 0.0
H640 H 0.62166 0.50671 0.00738 0.0
H641 H 0.68723 0.49323 0.07569 0.0
H642 H 0.68236 0.4568 0.01877 0.0
H643 H 0.6598 0.42887 0.9473 0.0
H644 H 0.59395 0.44169 0.88303 0.0
H645 H 0.59858 0.47817 0.94209 0.0
C646 C 0.63482 0.49575 0.01124 0.0
C647 C 0.65484 0.50286 0.04532 0.0
C648 C 0.63189 0.47469 -0.02112 0.0
C649 C 0.67175 0.48839 0.04826 0.0
C650 C 0.66896 0.46748 0.01617 0.0
C651 C 0.64643 0.43962 0.94601 0.0
C652 C 0.62658 0.43255 0.91001 0.0
C653 C 0.64917 0.46051 -0.01945 0.0
C654 C 0.60941 0.44669 0.91005 0.0
C655 C 0.61206 0.46757 0.94381 0.0
H656 H 0.43969 0.3844 0.11306 0.0
H657 H 0.4334 0.44302 0.94453 0.0
H658 H 0.46763 0.4369 0.86095 0.0
H659 H 0.4985 0.41411 0.83127 0.0
H660 H 0.50627 0.35757 0.01734 0.0
H661 H 0.47197 0.36335 0.09502 0.0
C662 C 0.4459 0.39591 0.05854 0.0
C663 C 0.43406 0.41409 0.03467 0.0
C664 C 0.46567 0.39246 0.01222 0.0
C665 C 0.44233 0.42897 -0.03534 0.0
C666 C 0.46181 0.42539 0.91635 0.0
C667 C 0.49302 0.40314 0.88987 0.0
C668 C 0.50521 0.38514 0.91583 0.0
C669 C 0.47356 0.40708 0.93898 0.0
C670 C 0.49724 0.37114 -0.00844 0.0
C671 C 0.47763 0.37458 0.03786 0.0
H672 H 0.88826 0.41788 0.71713 0.0
H673 H 0.95228 0.43617 0.79315 0.0
H674 H 0.94516 0.47214 0.73118 0.0
H675 H 0.92028 0.49866 0.66053 0.0
H676 H 0.85661 0.4796 0.58118 0.0
H677 H 0.86409 0.4437 0.64001 0.0
C678 C 0.90071 0.4297 0.72032 0.0
C679 C 0.92075 0.42433 0.76053 0.0
C680 C 0.89654 0.45026 0.68413 0.0
C681 C 0.9367 0.43985 0.76289 0.0
C682 C 0.93263 0.46044 0.72746 0.0
C683 C 0.90812 0.4866 0.65461 0.0
C684 C 0.88783 0.49197 0.61693 0.0
C685 C 0.91256 0.46585 0.68833 0.0
C686 C 0.87224 0.4761 0.61131 0.0
C687 C 0.87653 0.4555 0.64456 0.0
H688 H 0.49277 0.12015 0.34669 0.0
H689 H 0.49795 0.17616 0.15517 0.0
H690 H 0.46393 0.16847 0.07725 0.0
H691 H 0.43233 0.14633 0.06297 0.0
H692 H 0.42774 0.08875 0.24109 0.0
H693 H 0.46222 0.09618 0.32123 0.0
C694 C 0.4867 0.1306 0.28708 0.0
C695 C 0.49806 0.14908 0.25964 0.0
C696 C 0.46723 0.12568 0.23881 0.0
C697 C 0.48951 0.1623 0.18201 0.0
C698 C 0.47006 0.15776 0.13573 0.0
C699 C 0.43894 0.13529 0.11879 0.0
C700 C 0.42744 0.11706 0.14632 0.0
C701 C 0.45873 0.1396 0.16385 0.0
C702 C 0.43632 0.10284 0.21804 0.0
C703 C 0.45597 0.10718 0.26443 0.0
H704 H 0.15227 0.6127 0.74187 0.0
H705 H 0.0875 0.59552 0.80677 0.0
H706 H 0.09467 0.55917 0.75025 0.0
H707 H 0.11994 0.53206 0.68812 0.0
H708 H 0.18436 0.5504 0.62084 0.0
H709 H 0.17668 0.58654 0.67351 0.0
C710 C 0.13964 0.60106 0.74391 0.0
C711 C 0.11939 0.60681 0.77947 0.0
C712 C 0.14386 0.58037 0.71121 0.0
C713 C 0.10323 0.59151 0.78009 0.0
C714 C 0.10735 0.57073 0.74787 0.0
C715 C 0.13223 0.54402 0.68374 0.0
C716 C 0.15279 0.53839 0.65141 0.0
C717 C 0.12767 0.56494 0.71386 0.0
C718 C 0.16853 0.55412 0.64722 0.0
C719 C 0.16413 0.57485 0.67683 0.0
H720 H 0.59937 0.88683 0.05695 0.0
H721 H 0.6036 0.942 0.25147 0.0
H722 H 0.56903 0.93373 0.32671 0.0
H723 H 0.53822 0.91033 0.33999 0.0
H724 H 0.53215 0.85772 0.12818 0.0
H725 H 0.56709 0.86511 0.06008 0.0
C726 C 0.59264 0.89706 0.11555 0.0
C727 C 0.60398 0.91494 0.14894 0.0
C728 C 0.57258 0.8925 0.15664 0.0
C729 C 0.59507 0.92821 0.22413 0.0
C730 C 0.57537 0.92343 0.26751 0.0
C731 C 0.54419 0.90061 0.2777 0.0
C732 C 0.53228 0.88323 0.24123 0.0
C733 C 0.56401 0.90556 0.23453 0.0
C734 C 0.54091 0.87076 0.16138 0.0
C735 C 0.56091 0.87515 0.12081 0.0
H736 H 0.90555 0.0398 0.60166 0.0
H737 H 0.85032 0.033 0.40542 0.0
H738 H 0.8572 0.06734 0.3291 0.0
H739 H 0.8791 0.09927 0.31409 0.0
H740 H 0.93647 0.10445 0.49397 0.0
H741 H 0.92897 0.0704 0.5769 0.0
C742 C 0.8951 0.0455 0.54117 0.0
C743 C 0.87717 0.03355 0.51159 0.0
C744 C 0.89969 0.06499 0.4931 0.0
C745 C 0.86382 0.04182 0.43368 0.0
C746 C 0.86791 0.06146 0.38824 0.0
C747 C 0.89002 0.09288 0.37107 0.0
C748 C 0.90828 0.10436 0.39799 0.0
C749 C 0.88579 0.07316 0.41711 0.0
C750 C 0.92237 0.09582 0.47134 0.0
C751 C 0.91801 0.07643 0.51927 0.0
H752 H 0.10169 0.10629 0.41794 0.0
H753 H 0.10187 0.15006 0.67301 0.0
H754 H 0.06613 0.16174 0.62738 0.0
H755 H 0.03503 0.1597 0.51475 0.0
H756 H 0.03632 0.11899 0.24669 0.0
H757 H 0.071 0.10583 0.29818 0.0
C758 C 0.09372 0.11821 0.4638 0.0
C759 C 0.10414 0.12712 0.54945 0.0
C760 C 0.07346 0.12546 0.43464 0.0
C761 C 0.09399 0.14291 0.60714 0.0
C762 C 0.07362 0.14963 0.58092 0.0
C763 C 0.04294 0.14824 0.46611 0.0
C764 C 0.03271 0.14034 0.3771 0.0
C765 C 0.06325 0.14115 0.4943 0.0
C766 C 0.04336 0.12512 0.31694 0.0
C767 C 0.06336 0.11763 0.3459 0.0
H768 H 0.14929 0.92295 0.4614 0.0
H769 H 0.08455 0.93745 0.38037 0.0
H770 H 0.08936 0.9737 0.44113 0.0
H771 H 0.11209 1.00153 0.51413 0.0
H772 H 0.17681 0.98717 0.59525 0.0
H773 H 0.1717 0.95055 0.53982 0.0
C774 C 0.13622 0.93404 0.45684 0.0
C775 C 0.11662 0.92747 0.41551 0.0
C776 C 0.13904 0.95487 0.49278 0.0
C777 C 0.09982 0.94203 0.41143 0.0
C778 C 0.10255 0.96279 0.44627 0.0
C779 C 0.1251 0.9904 0.51959 0.0
C780 C 0.14485 0.99719 0.55849 0.0
C781 C 0.12212 0.96942 0.48661 0.0
C782 C 0.16139 0.9824 0.56671 0.0
C783 C 0.15854 0.96148 0.53412 0.0
H784 H 0.99722 0.91531 0.41994 0.0
H785 H 0.9814 0.85115 0.33536 0.0
H786 H 0.94501 0.8567 0.39112 0.0
H787 H 0.91791 0.87924 0.46841 0.0
H788 H 0.93291 0.9438 0.5484 0.0
H789 H 0.96932 0.93868 0.48871 0.0
C790 C 0.98575 0.90264 0.41211 0.0
C791 C 0.99218 0.88276 0.37427 0.0
C792 C 0.96471 0.90596 0.444 0.0
C793 C 0.97706 0.86648 0.36588 0.0
C794 C 0.95619 0.86966 0.39741 0.0
C795 C 0.92913 0.89222 0.47297 0.0
C796 C 0.92273 0.91182 0.5138 0.0
C797 C 0.94991 0.88922 0.4378 0.0
C798 C 0.93742 0.92853 0.51768 0.0
C799 C 0.95825 0.9256 0.48355 0.0
H800 H 0.35691 0.22908 0.18573 0.0
H801 H 0.36158 0.23089 0.8531 0.0
H802 H 0.36176 0.26966 0.85653 0.0
H803 H 0.36134 0.30305 0.95524 0.0
H804 H 0.35864 0.30092 0.28837 0.0
H805 H 0.35678 0.26225 0.28408 0.0
C806 C 0.35778 0.23801 0.11404 0.0
C807 C 0.3591 0.22725 0.01928 0.0
C808 C 0.35824 0.26019 0.1169 0.0
C809 C 0.36062 0.23891 0.92693 0.0
C810 C 0.36066 0.26103 0.9289 0.0
C811 C 0.36016 0.29404 0.02659 0.0
C812 C 0.36002 0.30468 0.12195 0.0
C813 C 0.35957 0.27183 0.02349 0.0
C814 C 0.35881 0.29296 0.2142 0.0
C815 C 0.35774 0.27091 0.21174 0.0
H816 H 0.30347 0.67848 0.91542 0.0
H817 H 0.30013 0.67656 0.58233 0.0
H818 H 0.26141 0.67831 0.58961 0.0
H819 H 0.22849 0.67939 0.69163 0.0
H820 H 0.23202 0.67938 0.02482 0.0
H821 H 0.27073 0.67954 0.01704 0.0
C822 C 0.29423 0.67867 0.84451 0.0
C823 C 0.30453 0.67752 0.74849 0.0
C824 C 0.27207 0.6793 0.8495 0.0
C825 C 0.29246 0.67737 0.65708 0.0
C826 C 0.27037 0.67841 0.66125 0.0
C827 C 0.23781 0.67964 0.76227 0.0
C828 C 0.22756 0.67947 0.85863 0.0
C829 C 0.26001 0.67926 0.75708 0.0
C830 C 0.23967 0.67945 0.94989 0.0
C831 C 0.26175 0.67956 0.94543 0.0
H832 H 0.68345 0.81088 0.2034 0.0
H833 H 0.68081 0.80728 0.87048 0.0
H834 H 0.68147 0.76861 0.87954 0.0
H835 H 0.68131 0.73606 -0.01798 0.0
H836 H 0.68121 0.73948 0.31573 0.0
H837 H 0.68376 0.778 0.3065 0.0
C838 C 0.6833 0.80157 0.13299 0.0
C839 C 0.6821 0.81179 0.0364 0.0
C840 C 0.68321 0.77938 0.13899 0.0
C841 C 0.68161 0.79966 0.94559 0.0
C842 C 0.68201 0.77761 0.9508 0.0
C843 C 0.68164 0.74519 0.05295 0.0
C844 C 0.68085 0.73481 0.14944 0.0
C845 C 0.68248 0.76732 0.0471 0.0
C846 C 0.68196 0.74696 0.24036 0.0
C847 C 0.68325 0.76903 0.23517 0.0
H848 H 0.81037 0.37259 0.743 0.0
H849 H 0.81268 0.32342 -0.02588 0.0
H850 H 0.77385 0.32217 -0.02126 0.0
H851 H 0.7392 0.33606 0.92006 0.0
H852 H 0.73718 0.38361 0.68078 0.0
H853 H 0.77593 0.3846 0.67563 0.0
C854 C 0.80228 0.36155 0.79379 0.0
C855 C 0.81414 0.34819 0.85856 0.0
C856 C 0.78008 0.36072 0.7946 0.0
C857 C 0.8037 0.33378 0.92357 0.0
C858 C 0.78157 0.33314 0.92642 0.0
C859 C 0.74736 0.34653 0.86677 0.0
C860 C 0.73557 0.35984 0.8013 0.0
C861 C 0.7696 0.34668 0.8629 0.0
C862 C 0.74609 0.37325 0.73163 0.0
C863 C 0.76818 0.37383 0.72887 0.0
H864 H 0.82707 0.72868 0.56872 0.0
H865 H 0.89533 0.72473 0.57938 0.0
H866 H 0.8978 0.76301 0.59119 0.0
H867 H 0.8809 0.79763 0.59555 0.0
H868 H 0.81269 0.80202 0.59912 0.0
H869 H 0.80998 0.76361 0.58415 0.0
C870 C 0.84248 0.73615 0.57483 0.0
C871 C 0.86096 0.7237 0.57147 0.0
C872 C 0.84385 0.7583 0.58364 0.0
C873 C 0.8808 0.73381 0.57881 0.0
C874 C 0.88226 0.75575 0.58648 0.0
C875 C 0.86539 0.79026 0.59498 0.0
C876 C 0.84705 0.80287 0.59849 0.0
C877 C 0.86392 0.76816 0.58847 0.0
C878 C 0.82713 0.79286 0.59493 0.0
C879 C 0.82555 0.77083 0.58712 0.0
H880 H 0.80166 0.18904 0.43401 0.0
H881 H 0.79909 0.17968 0.1038 0.0
H882 H 0.76054 0.1836 0.10652 0.0
H883 H 0.72737 0.18804 0.20459 0.0
H884 H 0.73002 0.19537 0.53582 0.0
H885 H 0.76875 0.19425 0.53114 0.0
C886 C 0.79266 0.18813 0.36252 0.0
C887 C 0.80316 0.18412 0.26884 0.0
C888 C 0.77054 0.19007 0.36501 0.0
C889 C 0.79131 0.1826 0.17696 0.0
C890 C 0.7693 0.18492 0.17845 0.0
C891 C 0.73652 0.18973 0.27526 0.0
C892 C 0.72602 0.19193 0.37031 0.0
C893 C 0.75872 0.18845 0.27218 0.0
C894 C 0.73789 0.1937 0.46188 0.0
C895 C 0.75997 0.19301 0.45921 0.0
H896 H 0.15729 0.30292 0.56788 0.0
H897 H 0.22527 0.30679 0.53981 0.0
H898 H 0.22792 0.26845 0.56077 0.0
H899 H 0.21087 0.23374 0.58995 0.0
H900 H 0.14265 0.23032 0.60663 0.0
H901 H 0.14028 0.26847 0.58658 0.0
C902 C 0.1727 0.29543 0.56437 0.0
C903 C 0.19103 0.30788 0.55222 0.0
C904 C 0.17411 0.27337 0.57518 0.0
C905 C 0.21087 0.29774 0.55048 0.0
C906 C 0.21241 0.27576 0.56189 0.0
C907 C 0.19548 0.2413 0.58817 0.0
C908 C 0.17701 0.22904 0.60162 0.0
C909 C 0.19413 0.26339 0.57482 0.0
C910 C 0.15721 0.23926 0.59952 0.0
C911 C 0.15578 0.26114 0.58707 0.0
H912 H 0.29988 0.84815 0.24246 0.0
H913 H 0.30036 0.84923 0.5759 0.0
H914 H 0.26158 0.84881 0.57805 0.0
H915 H 0.22746 0.84953 0.4844 0.0
H916 H 0.22718 0.85079 0.15092 0.0
H917 H 0.26587 0.8488 0.14903 0.0
C918 C 0.29145 0.84805 0.31547 0.0
C919 C 0.3029 0.8486 0.40889 0.0
C920 C 0.26919 0.84831 0.31593 0.0
C921 C 0.29184 0.84885 0.50306 0.0
C922 C 0.26969 0.84859 0.50427 0.0
C923 C 0.23593 0.84915 0.41152 0.0
C924 C 0.22456 0.85023 0.31793 0.0
C925 C 0.25819 0.84851 0.41116 0.0
C926 C 0.23565 0.85004 0.22385 0.0
C927 C 0.25774 0.84888 0.22278 0.0
H928 H 0.23313 0.13281 0.79035 0.0
H929 H 0.23172 0.06661 0.71111 0.0
H930 H 0.26602 0.06145 0.79756 0.0
H931 H 0.29696 0.07626 0.89459 0.0
H932 H 0.29621 0.14249 -0.02313 0.0
H933 H 0.2623 0.14692 0.89179 0.0
C934 C 0.24035 0.11724 0.79105 0.0
C935 C 0.22997 0.10021 0.74282 0.0
C936 C 0.25973 0.11432 0.84265 0.0
C937 C 0.23943 0.08007 0.74679 0.0
C938 C 0.25903 0.0771 0.7966 0.0
C939 C 0.28922 0.09156 0.89491 0.0
C940 C 0.29936 0.109 0.94197 0.0
C941 C 0.26938 0.09415 0.84508 0.0
C942 C 0.28903 0.12875 0.94107 0.0
C943 C 0.26956 0.13139 0.89202 0.0
H944 H 0.0763 0.73418 0.04634 0.0
H945 H 0.14078 0.73938 0.93833 0.0
H946 H 0.14477 0.77299 0.02632 0.0
H947 H 0.13074 0.80071 0.13752 0.0
H948 H 0.06604 0.7974 0.24163 0.0
H949 H 0.06148 0.76343 0.15288 0.0
C950 C 0.0911 0.74282 0.04103 0.0
C951 C 0.1082 0.73405 -0.0142 0.0
C952 C 0.09343 0.76243 0.09249 0.0
C953 C 0.12732 0.74553 -0.01961 0.0
C954 C 0.12971 0.76481 0.03112 0.0
C955 C 0.11567 0.79249 0.14168 0.0
C956 C 0.09888 0.80146 0.19749 0.0
C957 C 0.11301 0.77328 0.08851 0.0
C958 C 0.07932 0.79077 0.19992 0.0
C959 C 0.07667 0.77137 0.1488 0.0
H960 H 0.72879 0.9053 0.87999 0.0
H961 H 0.73314 0.97097 -0.03264 0.0
H962 H 0.7674 0.97378 0.87836 0.0
H963 H 0.79651 0.95697 0.77732 0.0
H964 H 0.79008 0.89137 0.68867 0.0
H965 H 0.75619 0.88932 0.77567 0.0
C966 C 0.73723 0.92026 0.88054 0.0
C967 C 0.72851 0.93782 0.93172 0.0
C968 C 0.75654 0.92182 0.828 0.0
C969 C 0.73956 0.95715 0.92934 0.0
C970 C 0.75912 0.95876 0.87818 0.0
C971 C 0.78756 0.94232 0.77619 0.0
C972 C 0.79601 0.92434 0.72656 0.0
C973 C 0.76781 0.94115 0.82713 0.0
C974 C 0.78416 0.90547 0.72628 0.0
C975 C 0.76472 0.90421 0.77638 0.0
H976 H 0.9063 0.29838 0.03881 0.0
H977 H 0.97176 0.29434 0.94758 0.0
H978 H 0.9748 0.25983 0.03424 0.0
H979 H 0.9582 0.23022 0.13368 0.0
H980 H 0.89287 0.23635 0.22739 0.0
H981 H 0.89063 0.27057 0.1434 0.0
C982 C 0.92124 0.28994 0.03711 0.0
C983 C 0.93867 0.2988 -0.01459 0.0
C984 C 0.92296 0.27044 0.08858 0.0
C985 C 0.95802 0.28779 -0.01387 0.0
C986 C 0.95977 0.26808 0.03595 0.0
C987 C 0.9436 0.23919 0.13674 0.0
C988 C 0.92572 0.23051 0.18645 0.0
C989 C 0.9423 0.25918 0.0875 0.0
C990 C 0.90689 0.24242 0.18927 0.0
C991 C 0.90551 0.26206 0.14093 0.0
H992 H 0.30727 0.45662 0.30444 0.0
H993 H 0.30195 0.392 0.19864 0.0
H994 H 0.26772 0.38865 0.28153 0.0
H995 H 0.2397 0.4032 0.38762 0.0
H996 H 0.24309 0.46788 0.4918 0.0
H997 H 0.27759 0.472 0.40666 0.0
C998 C 0.29849 0.44191 0.29863 0.0
C999 C 0.30735 0.42458 0.24552 0.0
C1000 C 0.27855 0.43997 0.34725 0.0
C1001 C 0.29571 0.40561 0.23919 0.0
C1002 C 0.27607 0.40361 0.2869 0.0
C1003 C 0.24799 0.41821 0.39257 0.0
C1004 C 0.23893 0.4351 0.44737 0.0
C1005 C 0.26749 0.42054 0.34217 0.0
C1006 C 0.24978 0.45454 0.45082 0.0
C1007 C 0.26948 0.45691 0.40188 0.0
H1008 H 0.45575 0.72969 0.60095 0.0
H1009 H 0.39523 0.73552 0.75299 0.0
H1010 H 0.39028 0.77039 0.67835 0.0
H1011 H 0.40179 0.79864 0.56339 0.0
H1012 H 0.46262 0.79487 0.41452 0.0
H1013 H 0.4687 0.75998 0.49337 0.0
C1014 C 0.44171 0.73879 0.61907 0.0
C1015 C 0.42583 0.72982 0.682 0.0
C1016 C 0.43878 0.75912 0.57495 0.0
C1017 C 0.40765 0.74185 0.70416 0.0
C1018 C 0.40471 0.76184 0.6612 0.0
C1019 C 0.41635 0.79015 0.54757 0.0
C1020 C 0.43154 0.79917 0.48169 0.0
C1021 C 0.41991 0.77044 0.59484 0.0
C1022 C 0.45055 0.78817 0.46423 0.0
C1023 C 0.45406 0.76824 0.50958 0.0
H1024 H 0.73429 0.58049 0.28003 0.0
H1025 H 0.73782 0.64759 0.21686 0.0
H1026 H 0.77237 0.64935 0.29841 0.0
H1027 H 0.80136 0.63259 0.39132 0.0
H1028 H 0.79971 0.56553 0.45282 0.0
H1029 H 0.76483 0.56309 0.36918 0.0
C1030 C 0.74274 0.59542 0.28319 0.0
C1031 C 0.73325 0.61387 0.24221 0.0
C1032 C 0.76292 0.59645 0.33105 0.0
C1033 C 0.74451 0.6331 0.24763 0.0
C1034 C 0.76435 0.63419 0.2947 0.0
C1035 C 0.79338 0.6174 0.38721 0.0
C1036 C 0.80311 0.59932 0.42961 0.0
C1037 C 0.7736 0.61608 0.33767 0.0
C1038 C 0.79257 0.57975 0.42155 0.0
C1039 C 0.77262 0.57835 0.37342 0.0
H1040 H 0.63328 0.2399 0.52896 0.0
H1041 H 0.56562 0.23982 0.48325 0.0
H1042 H 0.56315 0.27406 0.57269 0.0
H1043 H 0.58077 0.30436 0.66268 0.0
H1044 H 0.64852 0.30212 0.71011 0.0
H1045 H 0.65024 0.2684 0.622 0.0
C1046 C 0.61792 0.24735 0.53757 0.0
C1047 C 0.59969 0.2374 0.49796 0.0
C1048 C 0.61662 0.26663 0.59035 0.0
C1049 C 0.57994 0.2472 0.51218 0.0
C1050 C 0.57853 0.26675 0.56358 0.0
C1051 C 0.59585 0.29639 0.65443 0.0
C1052 C 0.61448 0.30596 0.69314 0.0
C1053 C 0.59683 0.27666 0.60311 0.0
C1054 C 0.63389 0.29532 0.68146 0.0
C1055 C 0.63495 0.27597 0.63059 0.0
H1056 H 0.36464 0.08284 0.37989 0.0
H1057 H 0.34175 0.14717 0.36511 0.0
H1058 H 0.34863 0.15143 0.55002 0.0
H1059 H 0.36209 0.13724 0.71172 0.0
H1060 H 0.38496 0.07289 0.72739 0.0
H1061 H 0.378 0.06855 0.54248 0.0
C1062 C 0.36074 0.09765 0.41754 0.0
C1063 C 0.35259 0.11465 0.36004 0.0
C1064 C 0.36541 0.10019 0.52204 0.0
C1065 C 0.34791 0.13387 0.40883 0.0
C1066 C 0.35208 0.13638 0.51375 0.0
C1067 C 0.36591 0.12235 0.67455 0.0
C1068 C 0.37409 0.10541 0.73236 0.0
C1069 C 0.3612 0.11977 0.57024 0.0
C1070 C 0.37875 0.08616 0.68368 0.0
C1071 C 0.37455 0.0836 0.5787 0.0
H1072 H 0.13821 0.66875 0.54252 0.0
H1073 H 0.07434 0.69278 0.55937 0.0
H1074 H 0.06926 0.68566 0.37509 0.0
H1075 H 0.08279 0.67184 0.21226 0.0
H1076 H 0.14664 0.6478 0.19584 0.0
H1077 H 0.15167 0.65485 0.38018 0.0
C1078 C 0.12334 0.67287 0.50534 0.0
C1079 C 0.10672 0.68145 0.56321 0.0
C1080 C 0.12031 0.66802 0.40135 0.0
C1081 C 0.08738 0.68633 0.51522 0.0
C1082 C 0.08439 0.68202 0.41068 0.0
C1083 C 0.09762 0.66768 0.24969 0.0
C1084 C 0.11426 0.65913 0.19195 0.0
C1085 C 0.10062 0.67248 0.3538 0.0
C1086 C 0.13359 0.65422 0.24002 0.0
C1087 C 0.13655 0.65849 0.34455 0.0
H1088 H 0.66132 0.95472 0.38044 0.0
H1089 H 0.69385 0.8947 0.36749 0.0
H1090 H 0.6876 0.88931 0.55227 0.0
H1091 H 0.67196 0.90117 0.71347 0.0
H1092 H 0.63935 0.96115 0.72681 0.0
H1093 H 0.64578 0.96666 0.54223 0.0
C1094 C 0.66744 0.94066 0.41849 0.0
C1095 C 0.67815 0.92517 0.36151 0.0
C1096 C 0.66313 0.93736 0.52284 0.0
C1097 C 0.68569 0.90687 0.41079 0.0
C1098 C 0.6819 0.90368 0.51564 0.0
C1099 C 0.66589 0.91528 0.67572 0.0
C1100 C 0.65507 0.93069 0.73278 0.0
C1101 C 0.67026 0.91863 0.57154 0.0
C1102 C 0.64758 0.94903 0.68358 0.0
C1103 C 0.65148 0.95229 0.57881 0.0
H1104 H 0.95843 0.35976 0.20197 0.0
H1105 H 0.89463 0.38392 0.184 0.0
H1106 H 0.88949 0.37635 0.3679 0.0
H1107 H 0.90297 0.36216 0.53127 0.0
H1108 H 0.9668 0.33813 0.54899 0.0
H1109 H 0.97186 0.34551 0.36488 0.0
C1110 C 0.94358 0.36383 0.23892 0.0
C1111 C 0.92701 0.37262 0.18071 0.0
C1112 C 0.94051 0.35873 0.34286 0.0
C1113 C 0.90766 0.37736 0.22838 0.0
C1114 C 0.90463 0.37278 0.33274 0.0
C1115 C 0.91779 0.35804 0.49406 0.0
C1116 C 0.93441 0.34936 0.55222 0.0
C1117 C 0.92082 0.36309 0.38998 0.0
C1118 C 0.95374 0.34459 0.5045 0.0
C1119 C 0.95672 0.34907 0.40006 0.0
H1120 H 0.36961 0.44909 0.4732 0.0
H1121 H 0.39408 0.38541 0.45946 0.0
H1122 H 0.38718 0.3807 0.6441 0.0
H1123 H 0.37316 0.39431 0.80566 0.0
H1124 H 0.34857 0.45797 0.82013 0.0
H1125 H 0.35574 0.46282 0.63576 0.0
C1126 C 0.37391 0.43438 0.51132 0.0
C1127 C 0.38252 0.41768 0.45423 0.0
C1128 C 0.36917 0.43155 0.61566 0.0
C1129 C 0.3876 0.3985 0.50313 0.0
C1130 C 0.38342 0.39573 0.60785 0.0
C1131 C 0.36896 0.4091 0.76808 0.0
C1132 C 0.36019 0.42571 0.82536 0.0
C1133 C 0.37379 0.412 0.66401 0.0
C1134 C 0.35517 0.44493 0.77659 0.0
C1135 C 0.35951 0.44779 0.67196 0.0
H1136 H 0.44827 0.6613 0.10327 0.0
H1137 H 0.38584 0.68898 0.08642 0.0
H1138 H 0.38103 0.68301 0.27168 0.0
H1139 H 0.39415 0.66903 0.43402 0.0
H1140 H 0.45662 0.64137 0.45204 0.0
H1141 H 0.46151 0.6474 0.26676 0.0
C1142 C 0.43379 0.66643 0.14063 0.0
C1143 C 0.41746 0.67567 0.08271 0.0
C1144 C 0.4309 0.66231 0.24526 0.0
C1145 C 0.39862 0.68194 0.13075 0.0
C1146 C 0.39578 0.67832 0.23579 0.0
C1147 C 0.40873 0.66399 0.39733 0.0
C1148 C 0.42501 0.65476 0.4557 0.0
C1149 C 0.41167 0.66815 0.29291 0.0
C1150 C 0.44387 0.64846 0.40773 0.0
C1151 C 0.44676 0.65212 0.30259 0.0
H1152 H 0.66565 0.59078 0.80917 0.0
H1153 H 0.69236 0.65368 0.82395 0.0
H1154 H 0.68617 0.65836 0.63864 0.0
H1155 H 0.67229 0.64496 0.4767 0.0
H1156 H 0.64549 0.58208 0.46116 0.0
H1157 H 0.65178 0.57732 0.64643 0.0
C1158 C 0.67052 0.60535 0.77143 0.0
C1159 C 0.67955 0.62184 0.82887 0.0
C1160 C 0.66625 0.60817 0.66678 0.0
C1161 C 0.68549 0.64078 0.78013 0.0
C1162 C 0.68174 0.64353 0.67502 0.0
C1163 C 0.66748 0.63032 0.51396 0.0
C1164 C 0.6584 0.61389 0.45623 0.0
C1165 C 0.67176 0.62748 0.61846 0.0
C1166 C 0.65243 0.59495 0.50493 0.0
C1167 C 0.65624 0.59214 0.61009 0.0
H1168 H 0.59065 0.36729 0.47213 0.0
H1169 H 0.654 0.39277 0.48943 0.0
H1170 H 0.65926 0.38534 0.30573 0.0
H1171 H 0.64611 0.37079 0.14319 0.0
H1172 H 0.58275 0.34534 0.12563 0.0
H1173 H 0.57748 0.35276 0.30938 0.0
C1174 C 0.60541 0.37169 0.43504 0.0
C1175 C 0.62183 0.3808 0.49307 0.0
C1176 C 0.60856 0.36667 0.33118 0.0
C1177 C 0.64108 0.38596 0.44523 0.0
C1178 C 0.64418 0.38146 0.34098 0.0
C1179 C 0.63133 0.36641 0.18019 0.0
C1180 C 0.61492 0.35731 0.12209 0.0
C1181 C 0.62817 0.37144 0.284 0.0
C1182 C 0.59566 0.35215 0.16987 0.0
C1183 C 0.59255 0.35664 0.27414 0.0
H1184 H 0.86755 0.63407 0.88013 0.0
H1185 H 0.84315 0.57035 0.8629 0.0
H1186 H 0.85047 0.56516 0.04713 0.0
H1187 H 0.86466 0.57851 0.21018 0.0
H1188 H 0.88912 0.6422 0.2273 0.0
H1189 H 0.88177 0.6474 0.04313 0.0
C1190 C 0.86336 0.61924 0.91741 0.0
C1191 C 0.8546 0.60269 0.85942 0.0
C1192 C 0.86836 0.61613 0.02147 0.0
C1193 C 0.8497 0.58335 0.90727 0.0
C1194 C 0.85413 0.58029 0.01177 0.0
C1195 C 0.86886 0.59333 0.1729 0.0
C1196 C 0.87764 0.60987 0.23086 0.0
C1197 C 0.86386 0.59644 0.06883 0.0
C1198 C 0.88256 0.62921 0.18297 0.0
C1199 C 0.8781 0.63227 0.07851 0.0
H1200 H 0.58147 0.17528 0.71343 0.0
H1201 H 0.64627 0.15408 0.69669 0.0
H1202 H 0.6512 0.16173 0.88057 0.0
H1203 H 0.63734 0.17543 0.04308 0.0
H1204 H 0.57253 0.19667 0.06025 0.0
H1205 H 0.56753 0.18886 0.87652 0.0
C1206 C 0.59648 0.17182 0.75089 0.0
C1207 C 0.61341 0.16387 0.69309 0.0
C1208 C 0.5994 0.17702 0.85483 0.0
C1209 C 0.63299 0.15996 0.74099 0.0
C1210 C 0.63588 0.1646 0.84527 0.0
C1211 C 0.62228 0.17883 0.0059 0.0
C1212 C 0.6054 0.18687 0.0638 0.0
C1213 C 0.61933 0.17356 0.90213 0.0
C1214 C 0.58579 0.19072 0.01601 0.0
C1215 C 0.58286 0.18599 0.91178 0.0
H1216 H 0.18223 0.3983 0.22781 0.0
H1217 H 0.14897 0.45793 0.23915 0.0
H1218 H 0.15525 0.46323 0.05435 0.0
H1219 H 0.17095 0.45132 0.8932 0.0
H1220 H 0.20416 0.39165 0.88162 0.0
H1221 H 0.19792 0.38637 0.06649 0.0
C1222 C 0.17597 0.41225 0.18947 0.0
C1223 C 0.16502 0.42765 0.24603 0.0
C1224 C 0.18026 0.4155 0.08506 0.0
C1225 C 0.1573 0.44583 0.19624 0.0
C1226 C 0.16111 0.44897 0.09135 0.0
C1227 C 0.1772 0.43734 0.93144 0.0
C1228 C 0.18811 0.42194 0.87478 0.0
C1229 C 0.17291 0.43409 0.03582 0.0
C1230 C 0.19583 0.40376 0.92455 0.0
C1231 C 0.19205 0.40062 0.02949 0.0
H1232 H 0.44674 0.86521 0.04062 0.0
H1233 H 0.3844 0.83703 0.0523 0.0
H1234 H 0.37984 0.84353 0.86711 0.0
H1235 H 0.39313 0.85815 0.70598 0.0
H1236 H 0.45545 0.88638 0.69423 0.0
H1237 H 0.46008 0.87975 0.8793 0.0
C1238 C 0.43228 0.86013 0.00248 0.0
C1239 C 0.41593 0.8506 0.05931 0.0
C1240 C 0.42951 0.86457 0.89787 0.0
C1241 C 0.39722 0.84431 0.0094 0.0
C1242 C 0.39451 0.84824 0.90424 0.0
C1243 C 0.4076 0.86322 0.74405 0.0
C1244 C 0.42391 0.87283 0.68726 0.0
C1245 C 0.4104 0.85873 0.84858 0.0
C1246 C 0.44266 0.87906 0.7371 0.0
C1247 C 0.44539 0.87506 0.8422 0.0
H1248 H 0.86083 0.89261 0.28079 0.0
H1249 H 0.8368 0.95645 0.297 0.0
H1250 H 0.84417 0.96152 0.11293 0.0
H1251 H 0.85813 0.94797 0.95024 0.0
H1252 H 0.88214 0.88414 0.93452 0.0
H1253 H 0.87492 0.87915 0.11872 0.0
C1254 C 0.85676 0.90748 0.24353 0.0
C1255 C 0.84809 0.92407 0.30125 0.0
C1256 C 0.86174 0.9105 0.1396 0.0
C1257 C 0.84331 0.94341 0.25305 0.0
C1258 C 0.84776 0.9464 0.1486 0.0
C1259 C 0.86226 0.93315 -0.0122 0.0
C1260 C 0.87086 0.9165 0.93018 0.0
C1261 C 0.85735 0.93017 0.0919 0.0
C1262 C 0.8757 0.8972 -0.0215 0.0
C1263 C 0.87132 0.89426 0.08299 0.0
H1264 H 0.89261 0.17234 0.95563 0.0
H1265 H 0.9528 0.14011 -0.02738 0.0
H1266 H 0.95844 0.14654 0.78808 0.0
H1267 H 0.94651 0.16198 0.62495 0.0
H1268 H 0.88632 0.19416 0.60883 0.0
H1269 H 0.88081 0.18788 0.79348 0.0
C1270 C 0.90679 0.16635 0.91867 0.0
C1271 C 0.92222 0.15564 -0.02326 0.0
C1272 C 0.91022 0.17074 0.81452 0.0
C1273 C 0.94066 0.14826 0.92858 0.0
C1274 C 0.944 0.15215 0.82382 0.0
C1275 C 0.93242 0.16805 0.66245 0.0
C1276 C 0.91691 0.17868 0.60466 0.0
C1277 C 0.92905 0.16372 0.76682 0.0
C1278 C 0.89851 0.1861 0.65293 0.0
C1279 C 0.89525 0.18228 0.75768 0.0
H1280 H 0.16991 0.08396 -0.03303 0.0
H1281 H 0.14344 0.14673 0.94708 0.0
H1282 H 0.15022 0.15225 0.13144 0.0
H1283 H 0.16471 0.13953 0.29525 0.0
H1284 H 0.19125 0.07678 0.31538 0.0
H1285 H 0.18429 0.07118 0.13125 0.0
C1286 C 0.16512 0.09859 0.00397 0.0
C1287 C 0.15593 0.11482 0.9454 0.0
C1288 C 0.16985 0.10193 0.10805 0.0
C1289 C 0.15029 0.13398 -0.0077 0.0
C1290 C 0.15444 0.13724 0.09676 0.0
C1291 C 0.16944 0.12486 0.25852 0.0
C1292 C 0.17872 0.10869 0.31714 0.0
C1293 C 0.16464 0.12149 0.15457 0.0
C1294 C 0.18432 0.08949 0.27028 0.0
C1295 C 0.18007 0.08619 0.16591 0.0
H1296 H 0.13515 0.86539 0.6492 0.0
H1297 H 0.07146 0.84083 0.63162 0.0
H1298 H 0.06634 0.84808 0.81562 0.0
H1299 H 0.07971 0.86231 -0.02156 0.0
H1300 H 0.14338 0.88697 -0.00399 0.0
H1301 H 0.14854 0.87962 0.81214 0.0
C1302 C 0.12035 0.86115 0.68639 0.0
C1303 C 0.10378 0.85236 0.62836 0.0
C1304 C 0.11728 0.86612 0.7903 0.0
C1305 C 0.08447 0.84739 0.67604 0.0
C1306 C 0.08146 0.85179 0.7804 0.0
C1307 C 0.09453 0.86654 0.94134 0.0
C1308 C 0.11107 0.87539 -0.00063 0.0
C1309 C 0.09761 0.86156 0.83747 0.0
C1310 C 0.13038 0.88036 0.95167 0.0
C1311 C 0.13342 0.8759 0.84737 0.0
loop_
_geom_bond_atom_site_label_1
_geom_bond_atom_site_label_2
_geom_bond_distance
_geom_bond_site_symmetry_2
_ccdc_geom_bond_type
C0 O16 1.251 . S
C0 O18 1.254 . S
N1 C2 1.333 . S
N1 C6 1.307 . S
N1 Zn7 2.020 . S
C2 N1 1.333 . S
C2 C3 1.379 . S
C2 H20 0.952 1_554 S
C3 C2 1.379 . S
C3 C4 1.390 . S
C3 H30 0.949 1_554 S
C4 C3 1.390 . S
C4 C5 1.357 . S
C5 C4 1.357 . S
C5 C6 1.370 . S
C5 H31 0.950 . S
C6 N1 1.307 . S
C6 C5 1.370 . S
C6 H24 0.948 . S
Zn7 N1 2.020 . S
Zn7 O16 2.039 1_554 S
Zn7 O22 2.034 . S
Zn7 O26 2.025 . S
Zn7 O28 2.024 . S
C8 O27 1.246 . S
C8 O28 1.249 . S
N9 C10 1.307 . S
N9 C11 1.333 . S
N9 Zn15 2.020 . S
C10 N9 1.307 . S
C10 C14 1.370 . S
C10 H21 0.948 . S
C11 N9 1.333 . S
C11 C12 1.379 . S
C11 H19 0.952 . S
C12 C11 1.379 . S
C12 C13 1.390 . S
C12 H32 0.949 . S
C13 C12 1.390 . S
C13 C14 1.357 . S
C14 C10 1.370 . S
C14 C13 1.357 . S
C14 H33 0.950 . S
Zn15 N9 2.020 . S
Zn15 O18 2.025 1_554 S
Zn15 O23 2.024 . S
Zn15 O25 2.039 . S
Zn15 O27 2.034 . S
O16 C0 1.251 . S
O16 Zn7 2.039 1_556 S
C17 O22 1.246 . S
C17 O23 1.249 . S
O18 C0 1.254 . S
O18 Zn15 2.025 1_556 S
H19 C11 0.952 . S
H20 C2 0.952 1_556 S
H21 C10 0.948 . S
O22 Zn7 2.034 . S
O22 C17 1.246 . S
O23 Zn15 2.024 . S
O23 C17 1.249 . S
H24 C6 0.948 . S
O25 Zn15 2.039 . S
O25 C29 1.251 . S
O26 Zn7 2.025 . S
O26 C29 1.254 . S
O27 C8 1.246 . S
O27 Zn15 2.034 . S
O28 Zn7 2.024 . S
O28 C8 1.249 . S
C29 O25 1.251 . S
C29 O26 1.254 . S
H30 C3 0.949 1_556 S
H31 C5 0.950 . S
H32 C12 0.949 . S
H33 C14 0.950 . S
C34 O50 1.251 . S
C34 O52 1.254 . S
N35 C36 1.333 . S
N35 C40 1.307 . S
N35 Zn41 2.020 . S
C36 N35 1.333 . S
C36 C37 1.379 . S
C36 H54 0.952 . S
C37 C36 1.379 . S
C37 C38 1.390 . S
C37 H64 0.949 . S
C38 C37 1.390 . S
C38 C39 1.357 . S
C39 C38 1.357 . S
C39 C40 1.370 . S
C39 H65 0.950 . S
C40 N35 1.307 . S
C40 C39 1.370 . S
C40 H58 0.948 . S
Zn41 N35 2.020 . S
Zn41 O50 2.039 . S
Zn41 O56 2.034 . S
Zn41 O60 2.025 1_556 S
Zn41 O62 2.024 . S
C42 O61 1.246 . S
C42 O62 1.249 . S
N43 C44 1.307 . S
N43 C45 1.333 . S
N43 Zn49 2.020 . S
C44 N43 1.307 . S
C44 C48 1.370 . S
C44 H55 0.948 . S
C45 N43 1.333 . S
C45 C46 1.379 . S
C45 H53 0.952 1_556 S
C46 C45 1.379 . S
C46 C47 1.390 . S
C46 H66 0.949 1_556 S
C47 C46 1.390 . S
C47 C48 1.357 . S
C48 C44 1.370 . S
C48 C47 1.357 . S
C48 H67 0.950 . S
Zn49 N43 2.020 . S
Zn49 O52 2.025 . S
Zn49 O57 2.024 . S
Zn49 O59 2.039 1_556 S
Zn49 O61 2.034 . S
O50 C34 1.251 . S
O50 Zn41 2.039 . S
C51 O56 1.246 . S
C51 O57 1.249 . S
O52 C34 1.254 . S
O52 Zn49 2.025 . S
H53 C45 0.952 1_554 S
H54 C36 0.952 . S
H55 C44 0.948 . S
O56 Zn41 2.034 . S
O56 C51 1.246 . S
O57 Zn49 2.024 . S
O57 C51 1.249 . S
H58 C40 0.948 . S
O59 Zn49 2.039 1_554 S
O59 C63 1.251 . S
O60 Zn41 2.025 1_554 S
O60 C63 1.254 . S
O61 C42 1.246 . S
O61 Zn49 2.034 . S
O62 Zn41 2.024 . S
O62 C42 1.249 . S
C63 O59 1.251 . S
C63 O60 1.254 . S
H64 C37 0.949 . S
H65 C39 0.950 . S
H66 C46 0.949 1_554 S
H67 C48 0.950 . S
C68 O84 1.251 . S
C68 O86 1.254 . S
N69 C70 1.333 . S
N69 C74 1.307 . S
N69 Zn75 2.020 . S
C70 N69 1.333 . S
C70 C71 1.379 . S
C70 H88 0.952 1_554 S
C71 C70 1.379 . S
C71 C72 1.390 . S
C71 H98 0.949 1_554 S
C72 C71 1.390 . S
C72 C73 1.357 . S
C73 C72 1.357 . S
C73 C74 1.370 . S
C73 H99 0.950 . S
C74 N69 1.307 . S
C74 C73 1.370 . S
C74 H92 0.948 . S
Zn75 N69 2.020 . S
Zn75 O84 2.039 1_554 S
Zn75 O90 2.034 . S
Zn75 O94 2.025 . S
Zn75 O96 2.024 . S
C76 O95 1.246 . S
C76 O96 1.249 . S
N77 C78 1.307 . S
N77 C79 1.333 . S
N77 Zn83 2.020 . S
C78 N77 1.307 . S
C78 C82 1.370 . S
C78 H89 0.948 . S
C79 N77 1.333 . S
C79 C80 1.379 . S
C79 H87 0.952 . S
C80 C79 1.379 . S
C80 C81 1.390 . S
C80 H100 0.949 . S
C81 C80 1.390 . S
C81 C82 1.357 . S
C82 C78 1.370 . S
C82 C81 1.357 . S
C82 H101 0.950 . S
Zn83 N77 2.020 . S
Zn83 O86 2.025 1_554 S
Zn83 O91 2.024 . S
Zn83 O93 2.039 . S
Zn83 O95 2.034 . S
O84 C68 1.251 . S
O84 Zn75 2.039 1_556 S
C85 O90 1.246 . S
C85 O91 1.249 . S
O86 C68 1.254 . S
O86 Zn83 2.025 1_556 S
H87 C79 0.952 . S
H88 C70 0.952 1_556 S
H89 C78 0.948 . S
O90 Zn75 2.034 . S
O90 C85 1.246 . S
O91 Zn83 2.024 . S
O91 C85 1.249 . S
H92 C74 0.948 . S
O93 Zn83 2.039 . S
O93 C97 1.251 . S
O94 Zn75 2.025 . S
O94 C97 1.254 . S
O95 C76 1.246 . S
O95 Zn83 2.034 . S
O96 Zn75 2.024 . S
O96 C76 1.249 . S
C97 O93 1.251 . S
C97 O94 1.254 . S
H98 C71 0.949 1_556 S
H99 C73 0.950 . S
H100 C80 0.949 . S
H101 C82 0.950 . S
C102 O118 1.251 . S
C102 O120 1.254 . S
N103 C104 1.333 . S
N103 C108 1.307 . S
N103 Zn109 2.020 . S
C104 N103 1.333 . S
C104 C105 1.379 . S
C104 H122 0.952 . S
C105 C104 1.379 . S
C105 C106 1.390 . S
C105 H132 0.949 . S
C106 C105 1.390 . S
C106 C107 1.357 . S
C107 C106 1.357 . S
C107 C108 1.370 . S
C107 H133 0.950 . S
C108 N103 1.307 . S
C108 C107 1.370 . S
C108 H126 0.948 . S
Zn109 N103 2.020 . S
Zn109 O118 2.039 . S
Zn109 O124 2.034 . S
Zn109 O128 2.025 1_556 S
Zn109 O130 2.024 . S
C110 O129 1.246 . S
C110 O130 1.249 . S
N111 C112 1.307 . S
N111 C113 1.333 . S
N111 Zn117 2.020 . S
C112 N111 1.307 . S
C112 C116 1.370 . S
C112 H123 0.948 . S
C113 N111 1.333 . S
C113 C114 1.379 . S
C113 H121 0.952 1_556 S
C114 C113 1.379 . S
C114 C115 1.390 . S
C114 H134 0.949 1_556 S
C115 C114 1.390 . S
C115 C116 1.357 . S
C116 C112 1.370 . S
C116 C115 1.357 . S
C116 H135 0.950 . S
Zn117 N111 2.020 . S
Zn117 O120 2.025 . S
Zn117 O125 2.024 . S
Zn117 O127 2.039 1_556 S
Zn117 O129 2.034 . S
O118 C102 1.251 . S
O118 Zn109 2.039 . S
C119 O124 1.246 . S
C119 O125 1.249 . S
O120 C102 1.254 . S
O120 Zn117 2.025 . S
H121 C113 0.952 1_554 S
H122 C104 0.952 . S
H123 C112 0.948 . S
O124 Zn109 2.034 . S
O124 C119 1.246 . S
O125 Zn117 2.024 . S
O125 C119 1.249 . S
H126 C108 0.948 . S
O127 Zn117 2.039 1_554 S
O127 C131 1.251 . S
O128 Zn109 2.025 1_554 S
O128 C131 1.254 . S
O129 C110 1.246 . S
O129 Zn117 2.034 . S
O130 Zn109 2.024 . S
O130 C110 1.249 . S
C131 O127 1.251 . S
C131 O128 1.254 . S
H132 C105 0.949 . S
H133 C107 0.950 . S
H134 C114 0.949 1_554 S
H135 C116 0.950 . S
C136 O152 1.251 . S
C136 O154 1.254 . S
N137 C138 1.333 . S
N137 C142 1.307 . S
N137 Zn143 2.020 . S
C138 N137 1.333 . S
C138 C139 1.379 . S
C138 H156 0.952 . S
C139 C138 1.379 . S
C139 C140 1.390 . S
C139 H166 0.949 . S
C140 C139 1.390 . S
C140 C141 1.357 . S
C141 C140 1.357 . S
C141 C142 1.370 . S
C141 H167 0.950 . S
C142 N137 1.307 . S
C142 C141 1.370 . S
C142 H160 0.948 . S
Zn143 N137 2.020 . S
Zn143 O152 2.039 . S
Zn143 O158 2.034 . S
Zn143 O162 2.025 1_554 S
Zn143 O164 2.024 . S
C144 O163 1.246 . S
C144 O164 1.249 . S
N145 C146 1.307 . S
N145 C147 1.333 . S
N145 Zn151 2.020 . S
C146 N145 1.307 . S
C146 C150 1.370 . S
C146 H157 0.948 . S
C147 N145 1.333 . S
C147 C148 1.379 . S
C147 H155 0.952 1_554 S
C148 C147 1.379 . S
C148 C149 1.390 . S
C148 H168 0.949 1_554 S
C149 C148 1.390 . S
C149 C150 1.357 . S
C150 C146 1.370 . S
C150 C149 1.357 . S
C150 H169 0.950 . S
Zn151 N145 2.020 . S
Zn151 O154 2.025 . S
Zn151 O159 2.024 . S
Zn151 O161 2.039 1_554 S
Zn151 O163 2.034 . S
O152 C136 1.251 . S
O152 Zn143 2.039 . S
C153 O158 1.246 . S
C153 O159 1.249 . S
O154 C136 1.254 . S
O154 Zn151 2.025 . S
H155 C147 0.952 1_556 S
H156 C138 0.952 . S
H157 C146 0.948 . S
O158 Zn143 2.034 . S
O158 C153 1.246 . S
O159 Zn151 2.024 . S
O159 C153 1.249 . S
H160 C142 0.948 . S
O161 Zn151 2.039 1_556 S
O161 C165 1.251 . S
O162 Zn143 2.025 1_556 S
O162 C165 1.254 . S
O163 C144 1.246 . S
O163 Zn151 2.034 . S
O164 Zn143 2.024 . S
O164 C144 1.249 . S
C165 O161 1.251 . S
C165 O162 1.254 . S
H166 C139 0.949 . S
H167 C141 0.950 . S
H168 C148 0.949 1_556 S
H169 C150 0.950 . S
C170 O186 1.251 . S
C170 O188 1.254 . S
N171 C172 1.333 . S
N171 C176 1.307 . S
N171 Zn177 2.020 . S
C172 N171 1.333 . S
C172 C173 1.379 . S
C172 H190 0.952 1_556 S
C173 C172 1.379 . S
C173 C174 1.390 . S
C173 H200 0.949 1_556 S
C174 C173 1.390 . S
C174 C175 1.357 . S
C175 C174 1.357 . S
C175 C176 1.370 . S
C175 H201 0.950 . S
C176 N171 1.307 . S
C176 C175 1.370 . S
C176 H194 0.948 . S
Zn177 N171 2.020 . S
Zn177 O186 2.039 1_556 S
Zn177 O192 2.034 . S
Zn177 O196 2.025 . S
Zn177 O198 2.024 . S
C178 O197 1.246 . S
C178 O198 1.249 . S
N179 C180 1.307 . S
N179 C181 1.333 . S
N179 Zn185 2.020 . S
C180 N179 1.307 . S
C180 C184 1.370 . S
C180 H191 0.948 . S
C181 N179 1.333 . S
C181 C182 1.379 . S
C181 H189 0.952 . S
C182 C181 1.379 . S
C182 C183 1.390 . S
C182 H202 0.949 . S
C183 C182 1.390 . S
C183 C184 1.357 . S
C184 C180 1.370 . S
C184 C183 1.357 . S
C184 H203 0.950 . S
Zn185 N179 2.020 . S
Zn185 O188 2.025 1_556 S
Zn185 O193 2.024 . S
Zn185 O195 2.039 . S
Zn185 O197 2.034 . S
O186 C170 1.251 . S
O186 Zn177 2.039 1_554 S
C187 O192 1.246 . S
C187 O193 1.249 . S
O188 C170 1.254 . S
O188 Zn185 2.025 1_554 S
H189 C181 0.952 . S
H190 C172 0.952 1_554 S
H191 C180 0.948 . S
O192 Zn177 2.034 . S
O192 C187 1.246 . S
O193 Zn185 2.024 . S
O193 C187 1.249 . S
H194 C176 0.948 . S
O195 Zn185 2.039 . S
O195 C199 1.251 . S
O196 Zn177 2.025 . S
O196 C199 1.254 . S
O197 C178 1.246 . S
O197 Zn185 2.034 . S
O198 Zn177 2.024 . S
O198 C178 1.249 . S
C199 O195 1.251 . S
C199 O196 1.254 . S
H200 C173 0.949 1_554 S
H201 C175 0.950 . S
H202 C182 0.949 . S
H203 C184 0.950 . S
C204 O220 1.251 . S
C204 O222 1.254 . S
N205 C206 1.333 . S
N205 C210 1.307 . S
N205 Zn211 2.020 . S
C206 N205 1.333 . S
C206 C207 1.379 . S
C206 H224 0.952 . S
C207 C206 1.379 . S
C207 C208 1.390 . S
C207 H234 0.949 . S
C208 C207 1.390 . S
C208 C209 1.357 . S
C209 C208 1.357 . S
C209 C210 1.370 . S
C209 H235 0.950 . S
C210 N205 1.307 . S
C210 C209 1.370 . S
C210 H228 0.948 . S
Zn211 N205 2.020 . S
Zn211 O220 2.039 . S
Zn211 O226 2.034 . S
Zn211 O230 2.025 1_554 S
Zn211 O232 2.024 . S
C212 O231 1.246 . S
C212 O232 1.249 . S
N213 C214 1.307 . S
N213 C215 1.333 . S
N213 Zn219 2.020 . S
C214 N213 1.307 . S
C214 C218 1.370 . S
C214 H225 0.948 . S
C215 N213 1.333 . S
C215 C216 1.379 . S
C215 H223 0.952 1_554 S
C216 C215 1.379 . S
C216 C217 1.390 . S
C216 H236 0.949 1_554 S
C217 C216 1.390 . S
C217 C218 1.357 . S
C218 C214 1.370 . S
C218 C217 1.357 . S
C218 H237 0.950 . S
Zn219 N213 2.020 . S
Zn219 O222 2.025 . S
Zn219 O227 2.024 . S
Zn219 O229 2.039 1_554 S
Zn219 O231 2.034 . S
O220 C204 1.251 . S
O220 Zn211 2.039 . S
C221 O226 1.246 . S
C221 O227 1.249 . S
O222 C204 1.254 . S
O222 Zn219 2.025 . S
H223 C215 0.952 1_556 S
H224 C206 0.952 . S
H225 C214 0.948 . S
O226 Zn211 2.034 . S
O226 C221 1.246 . S
O227 Zn219 2.024 . S
O227 C221 1.249 . S
H228 C210 0.948 . S
O229 Zn219 2.039 1_556 S
O229 C233 1.251 . S
O230 Zn211 2.025 1_556 S
O230 C233 1.254 . S
O231 C212 1.246 . S
O231 Zn219 2.034 . S
O232 Zn211 2.024 . S
O232 C212 1.249 . S
C233 O229 1.251 . S
C233 O230 1.254 . S
H234 C207 0.949 . S
H235 C209 0.950 . S
H236 C216 0.949 1_556 S
H237 C218 0.950 . S
C238 O254 1.251 . S
C238 O256 1.254 . S
N239 C240 1.333 . S
N239 C244 1.307 . S
N239 Zn245 2.020 . S
C240 N239 1.333 . S
C240 C241 1.379 . S
C240 H258 0.952 1_556 S
C241 C240 1.379 . S
C241 C242 1.390 . S
C241 H268 0.949 1_556 S
C242 C241 1.390 . S
C242 C243 1.357 . S
C243 C242 1.357 . S
C243 C244 1.370 . S
C243 H269 0.950 . S
C244 N239 1.307 . S
C244 C243 1.370 . S
C244 H262 0.948 . S
Zn245 N239 2.020 . S
Zn245 O254 2.039 1_556 S
Zn245 O260 2.034 . S
Zn245 O264 2.025 . S
Zn245 O266 2.024 . S
C246 O265 1.246 . S
C246 O266 1.249 . S
N247 C248 1.307 . S
N247 C249 1.333 . S
N247 Zn253 2.020 . S
C248 N247 1.307 . S
C248 C252 1.370 . S
C248 H259 0.948 . S
C249 N247 1.333 . S
C249 C250 1.379 . S
C249 H257 0.952 . S
C250 C249 1.379 . S
C250 C251 1.390 . S
C250 H270 0.949 . S
C251 C250 1.390 . S
C251 C252 1.357 . S
C252 C248 1.370 . S
C252 C251 1.357 . S
C252 H271 0.950 . S
Zn253 N247 2.020 . S
Zn253 O256 2.025 1_556 S
Zn253 O261 2.024 . S
Zn253 O263 2.039 . S
Zn253 O265 2.034 . S
O254 C238 1.251 . S
O254 Zn245 2.039 1_554 S
C255 O260 1.246 . S
C255 O261 1.249 . S
O256 C238 1.254 . S
O256 Zn253 2.025 1_554 S
H257 C249 0.952 . S
H258 C240 0.952 1_554 S
H259 C248 0.948 . S
O260 Zn245 2.034 . S
O260 C255 1.246 . S
O261 Zn253 2.024 . S
O261 C255 1.249 . S
H262 C244 0.948 . S
O263 Zn253 2.039 . S
O263 C267 1.251 . S
O264 Zn245 2.025 . S
O264 C267 1.254 . S
O265 C246 1.246 . S
O265 Zn253 2.034 . S
O266 Zn245 2.024 . S
O266 C246 1.249 . S
C267 O263 1.251 . S
C267 O264 1.254 . S
H268 C241 0.949 1_554 S
H269 C243 0.950 . S
H270 C250 0.949 . S
H271 C252 0.950 . S
C272 O288 1.251 . S
C272 O290 1.254 . S
N273 C274 1.333 . S
N273 C278 1.307 . S
N273 Zn279 2.020 . S
C274 N273 1.333 . S
C274 C275 1.379 . S
C274 H292 0.952 . S
C275 C274 1.379 . S
C275 C276 1.390 . S
C275 H302 0.949 . S
C276 C275 1.390 . S
C276 C277 1.357 . S
C277 C276 1.357 . S
C277 C278 1.370 . S
C277 H303 0.950 . S
C278 N273 1.307 . S
C278 C277 1.370 . S
C278 H296 0.948 . S
Zn279 N273 2.020 . S
Zn279 O288 2.039 . S
Zn279 O294 2.034 . S
Zn279 O298 2.025 . S
Zn279 O300 2.024 . S
C280 O299 1.246 . S
C280 O300 1.249 . S
N281 C282 1.307 . S
N281 C283 1.333 . S
N281 Zn287 2.020 . S
C282 N281 1.307 . S
C282 C286 1.370 . S
C282 H293 0.948 . S
C283 N281 1.333 . S
C283 C284 1.379 . S
C283 H291 0.952 . S
C284 C283 1.379 . S
C284 C285 1.390 . S
C284 H304 0.949 . S
C285 C284 1.390 . S
C285 C286 1.357 . S
C286 C282 1.370 . S
C286 C285 1.357 . S
C286 H305 0.950 . S
Zn287 N281 2.020 . S
Zn287 O290 2.025 . S
Zn287 O295 2.024 . S
Zn287 O297 2.039 . S
Zn287 O299 2.034 . S
O288 C272 1.251 . S
O288 Zn279 2.039 . S
C289 O294 1.246 . S
C289 O295 1.249 . S
O290 C272 1.254 . S
O290 Zn287 2.025 . S
H291 C283 0.952 . S
H292 C274 0.952 . S
H293 C282 0.948 . S
O294 Zn279 2.034 . S
O294 C289 1.246 . S
O295 Zn287 2.024 . S
O295 C289 1.249 . S
H296 C278 0.948 . S
O297 Zn287 2.039 . S
O297 C301 1.251 . S
O298 Zn279 2.025 . S
O298 C301 1.254 . S
O299 C280 1.246 . S
O299 Zn287 2.034 . S
O300 Zn279 2.024 . S
O300 C280 1.249 . S
C301 O297 1.251 . S
C301 O298 1.254 . S
H302 C275 0.949 . S
H303 C277 0.950 . S
H304 C284 0.949 . S
H305 C286 0.950 . S
C306 O322 1.251 . S
C306 O324 1.254 . S
N307 C308 1.333 . S
N307 C312 1.307 . S
N307 Zn313 2.020 . S
C308 N307 1.333 . S
C308 C309 1.379 . S
C308 H326 0.952 . S
C309 C308 1.379 . S
C309 C310 1.390 . S
C309 H336 0.949 . S
C310 C309 1.390 . S
C310 C311 1.357 . S
C311 C310 1.357 . S
C311 C312 1.370 . S
C311 H337 0.950 . S
C312 N307 1.307 . S
C312 C311 1.370 . S
C312 H330 0.948 . S
Zn313 N307 2.020 . S
Zn313 O322 2.039 . S
Zn313 O328 2.034 . S
Zn313 O332 2.025 . S
Zn313 O334 2.024 . S
C314 O333 1.246 . S
C314 O334 1.249 . S
N315 C316 1.307 . S
N315 C317 1.333 . S
N315 Zn321 2.020 . S
C316 N315 1.307 . S
C316 C320 1.370 . S
C316 H327 0.948 . S
C317 N315 1.333 . S
C317 C318 1.379 . S
C317 H325 0.952 . S
C318 C317 1.379 . S
C318 C319 1.390 . S
C318 H338 0.949 . S
C319 C318 1.390 . S
C319 C320 1.357 . S
C320 C316 1.370 . S
C320 C319 1.357 . S
C320 H339 0.950 . S
Zn321 N315 2.020 . S
Zn321 O324 2.025 . S
Zn321 O329 2.024 . S
Zn321 O331 2.039 . S
Zn321 O333 2.034 . S
O322 C306 1.251 . S
O322 Zn313 2.039 . S
C323 O328 1.246 . S
C323 O329 1.249 . S
O324 C306 1.254 . S
O324 Zn321 2.025 . S
H325 C317 0.952 . S
H326 C308 0.952 . S
H327 C316 0.948 . S
O328 Zn313 2.034 . S
O328 C323 1.246 . S
O329 Zn321 2.024 . S
O329 C323 1.249 . S
H330 C312 0.948 . S
O331 Zn321 2.039 . S
O331 C335 1.251 . S
O332 Zn313 2.025 . S
O332 C335 1.254 . S
O333 C314 1.246 . S
O333 Zn321 2.034 . S
O334 Zn313 2.024 . S
O334 C314 1.249 . S
C335 O331 1.251 . S
C335 O332 1.254 . S
H336 C309 0.949 . S
H337 C311 0.950 . S
H338 C318 0.949 . S
H339 C320 0.950 . S
C340 O356 1.251 . S
C340 O358 1.254 . S
N341 C342 1.333 . S
N341 C346 1.307 . S
N341 Zn347 2.020 . S
C342 N341 1.333 . S
C342 C343 1.379 . S
C342 H360 0.952 . S
C343 C342 1.379 . S
C343 C344 1.390 . S
C343 H370 0.949 . S
C344 C343 1.390 . S
C344 C345 1.357 . S
C345 C344 1.357 . S
C345 C346 1.370 . S
C345 H371 0.950 . S
C346 N341 1.307 . S
C346 C345 1.370 . S
C346 H364 0.948 . S
Zn347 N341 2.020 . S
Zn347 O356 2.039 . S
Zn347 O362 2.034 . S
Zn347 O366 2.025 . S
Zn347 O368 2.024 . S
C348 O367 1.246 . S
C348 O368 1.249 . S
N349 C350 1.307 . S
N349 C351 1.333 . S
N349 Zn355 2.020 . S
C350 N349 1.307 . S
C350 C354 1.370 . S
C350 H361 0.948 . S
C351 N349 1.333 . S
C351 C352 1.379 . S
C351 H359 0.952 . S
C352 C351 1.379 . S
C352 C353 1.390 . S
C352 H372 0.949 . S
C353 C352 1.390 . S
C353 C354 1.357 . S
C354 C350 1.370 . S
C354 C353 1.357 . S
C354 H373 0.950 . S
Zn355 N349 2.020 . S
Zn355 O358 2.025 . S
Zn355 O363 2.024 . S
Zn355 O365 2.039 . S
Zn355 O367 2.034 . S
O356 C340 1.251 . S
O356 Zn347 2.039 . S
C357 O362 1.246 . S
C357 O363 1.249 . S
O358 C340 1.254 . S
O358 Zn355 2.025 . S
H359 C351 0.952 . S
H360 C342 0.952 . S
H361 C350 0.948 . S
O362 Zn347 2.034 . S
O362 C357 1.246 . S
O363 Zn355 2.024 . S
O363 C357 1.249 . S
H364 C346 0.948 . S
O365 Zn355 2.039 . S
O365 C369 1.251 . S
O366 Zn347 2.025 . S
O366 C369 1.254 . S
O367 C348 1.246 . S
O367 Zn355 2.034 . S
O368 Zn347 2.024 . S
O368 C348 1.249 . S
C369 O365 1.251 . S
C369 O366 1.254 . S
H370 C343 0.949 . S
H371 C345 0.950 . S
H372 C352 0.949 . S
H373 C354 0.950 . S
C374 O390 1.251 . S
C374 O392 1.254 . S
N375 C376 1.333 . S
N375 C380 1.307 . S
N375 Zn381 2.020 . S
C376 N375 1.333 . S
C376 C377 1.379 . S
C376 H394 0.952 . S
C377 C376 1.379 . S
C377 C378 1.390 . S
C377 H404 0.949 . S
C378 C377 1.390 . S
C378 C379 1.357 . S
C379 C378 1.357 . S
C379 C380 1.370 . S
C379 H405 0.950 . S
C380 N375 1.307 . S
C380 C379 1.370 . S
C380 H398 0.948 . S
Zn381 N375 2.020 . S
Zn381 O390 2.039 . S
Zn381 O396 2.034 . S
Zn381 O400 2.025 . S
Zn381 O402 2.024 . S
C382 O401 1.246 . S
C382 O402 1.249 . S
N383 C384 1.307 . S
N383 C385 1.333 . S
N383 Zn389 2.020 . S
C384 N383 1.307 . S
C384 C388 1.370 . S
C384 H395 0.948 . S
C385 N383 1.333 . S
C385 C386 1.379 . S
C385 H393 0.952 . S
C386 C385 1.379 . S
C386 C387 1.390 . S
C386 H406 0.949 . S
C387 C386 1.390 . S
C387 C388 1.357 . S
C388 C384 1.370 . S
C388 C387 1.357 . S
C388 H407 0.950 . S
Zn389 N383 2.020 . S
Zn389 O392 2.025 . S
Zn389 O397 2.024 . S
Zn389 O399 2.039 . S
Zn389 O401 2.034 . S
O390 C374 1.251 . S
O390 Zn381 2.039 . S
C391 O396 1.246 . S
C391 O397 1.249 . S
O392 C374 1.254 . S
O392 Zn389 2.025 . S
H393 C385 0.952 . S
H394 C376 0.952 . S
H395 C384 0.948 . S
O396 Zn381 2.034 . S
O396 C391 1.246 . S
O397 Zn389 2.024 . S
O397 C391 1.249 . S
H398 C380 0.948 . S
O399 Zn389 2.039 . S
O399 C403 1.251 . S
O400 Zn381 2.025 . S
O400 C403 1.254 . S
O401 C382 1.246 . S
O401 Zn389 2.034 . S
O402 Zn381 2.024 . S
O402 C382 1.249 . S
C403 O399 1.251 . S
C403 O400 1.254 . S
H404 C377 0.949 . S
H405 C379 0.950 . S
H406 C386 0.949 . S
H407 C388 0.950 . S
C408 O424 1.251 . S
C408 O426 1.254 . S
N409 C410 1.333 . S
N409 C414 1.307 . S
N409 Zn415 2.020 . S
C410 N409 1.333 . S
C410 C411 1.379 . S
C410 H428 0.952 . S
C411 C410 1.379 . S
C411 C412 1.390 . S
C411 H438 0.949 . S
C412 C411 1.390 . S
C412 C413 1.357 . S
C413 C412 1.357 . S
C413 C414 1.370 . S
C413 H439 0.950 . S
C414 N409 1.307 . S
C414 C413 1.370 . S
C414 H432 0.948 . S
Zn415 N409 2.020 . S
Zn415 O424 2.039 . S
Zn415 O430 2.034 . S
Zn415 O434 2.025 . S
Zn415 O436 2.024 . S
C416 O435 1.246 . S
C416 O436 1.249 . S
N417 C418 1.307 . S
N417 C419 1.333 . S
N417 Zn423 2.020 . S
C418 N417 1.307 . S
C418 C422 1.370 . S
C418 H429 0.948 . S
C419 N417 1.333 . S
C419 C420 1.379 . S
C419 H427 0.952 . S
C420 C419 1.379 . S
C420 C421 1.390 . S
C420 H440 0.949 . S
C421 C420 1.390 . S
C421 C422 1.357 . S
C422 C418 1.370 . S
C422 C421 1.357 . S
C422 H441 0.950 . S
Zn423 N417 2.020 . S
Zn423 O426 2.025 . S
Zn423 O431 2.024 . S
Zn423 O433 2.039 . S
Zn423 O435 2.034 . S
O424 C408 1.251 . S
O424 Zn415 2.039 . S
C425 O430 1.246 . S
C425 O431 1.249 . S
O426 C408 1.254 . S
O426 Zn423 2.025 . S
H427 C419 0.952 . S
H428 C410 0.952 . S
H429 C418 0.948 . S
O430 Zn415 2.034 . S
O430 C425 1.246 . S
O431 Zn423 2.024 . S
O431 C425 1.249 . S
H432 C414 0.948 . S
O433 Zn423 2.039 . S
O433 C437 1.251 . S
O434 Zn415 2.025 . S
O434 C437 1.254 . S
O435 C416 1.246 . S
O435 Zn423 2.034 . S
O436 Zn415 2.024 . S
O436 C416 1.249 . S
C437 O433 1.251 . S
C437 O434 1.254 . S
H438 C411 0.949 . S
H439 C413 0.950 . S
H440 C420 0.949 . S
H441 C422 0.950 . S
C442 O458 1.251 . S
C442 O460 1.254 . S
N443 C444 1.333 . S
N443 C448 1.307 . S
N443 Zn449 2.020 . S
C444 N443 1.333 . S
C444 C445 1.379 . S
C444 H462 0.952 . S
C445 C444 1.379 . S
C445 C446 1.390 . S
C445 H472 0.949 . S
C446 C445 1.390 . S
C446 C447 1.357 . S
C447 C446 1.357 . S
C447 C448 1.370 . S
C447 H473 0.950 . S
C448 N443 1.307 . S
C448 C447 1.370 . S
C448 H466 0.948 . S
Zn449 N443 2.020 . S
Zn449 O458 2.039 . S
Zn449 O464 2.034 . S
Zn449 O468 2.025 . S
Zn449 O470 2.024 . S
C450 O469 1.246 . S
C450 O470 1.249 . S
N451 C452 1.307 . S
N451 C453 1.333 . S
N451 Zn457 2.020 . S
C452 N451 1.307 . S
C452 C456 1.370 . S
C452 H463 0.948 . S
C453 N451 1.333 . S
C453 C454 1.379 . S
C453 H461 0.952 . S
C454 C453 1.379 . S
C454 C455 1.390 . S
C454 H474 0.949 . S
C455 C454 1.390 . S
C455 C456 1.357 . S
C456 C452 1.370 . S
C456 C455 1.357 . S
C456 H475 0.950 . S
Zn457 N451 2.020 . S
Zn457 O460 2.025 . S
Zn457 O465 2.024 . S
Zn457 O467 2.039 . S
Zn457 O469 2.034 . S
O458 C442 1.251 . S
O458 Zn449 2.039 . S
C459 O464 1.246 . S
C459 O465 1.249 . S
O460 C442 1.254 . S
O460 Zn457 2.025 . S
H461 C453 0.952 . S
H462 C444 0.952 . S
H463 C452 0.948 . S
O464 Zn449 2.034 . S
O464 C459 1.246 . S
O465 Zn457 2.024 . S
O465 C459 1.249 . S
H466 C448 0.948 . S
O467 Zn457 2.039 . S
O467 C471 1.251 . S
O468 Zn449 2.025 . S
O468 C471 1.254 . S
O469 C450 1.246 . S
O469 Zn457 2.034 . S
O470 Zn449 2.024 . S
O470 C450 1.249 . S
C471 O467 1.251 . S
C471 O468 1.254 . S
H472 C445 0.949 . S
H473 C447 0.950 . S
H474 C454 0.949 . S
H475 C456 0.950 . S
C476 O492 1.251 . S
C476 O494 1.254 . S
N477 C478 1.333 . S
N477 C482 1.307 . S
N477 Zn483 2.020 . S
C478 N477 1.333 . S
C478 C479 1.379 . S
C478 H496 0.952 . S
C479 C478 1.379 . S
C479 C480 1.390 . S
C479 H506 0.949 . S
C480 C479 1.390 . S
C480 C481 1.357 . S
C481 C480 1.357 . S
C481 C482 1.370 . S
C481 H507 0.950 . S
C482 N477 1.307 . S
C482 C481 1.370 . S
C482 H500 0.948 . S
Zn483 N477 2.020 . S
Zn483 O492 2.039 . S
Zn483 O498 2.034 . S
Zn483 O502 2.025 . S
Zn483 O504 2.024 . S
C484 O503 1.246 . S
C484 O504 1.249 . S
N485 C486 1.307 . S
N485 C487 1.333 . S
N485 Zn491 2.020 . S
C486 N485 1.307 . S
C486 C490 1.370 . S
C486 H497 0.948 . S
C487 N485 1.333 . S
C487 C488 1.379 . S
C487 H495 0.952 . S
C488 C487 1.379 . S
C488 C489 1.390 . S
C488 H508 0.949 . S
C489 C488 1.390 . S
C489 C490 1.357 . S
C490 C486 1.370 . S
C490 C489 1.357 . S
C490 H509 0.950 . S
Zn491 N485 2.020 . S
Zn491 O494 2.025 . S
Zn491 O499 2.024 . S
Zn491 O501 2.039 . S
Zn491 O503 2.034 . S
O492 C476 1.251 . S
O492 Zn483 2.039 . S
C493 O498 1.246 . S
C493 O499 1.249 . S
O494 C476 1.254 . S
O494 Zn491 2.025 . S
H495 C487 0.952 . S
H496 C478 0.952 . S
H497 C486 0.948 . S
O498 Zn483 2.034 . S
O498 C493 1.246 . S
O499 Zn491 2.024 . S
O499 C493 1.249 . S
H500 C482 0.948 . S
O501 Zn491 2.039 . S
O501 C505 1.251 . S
O502 Zn483 2.025 . S
O502 C505 1.254 . S
O503 C484 1.246 . S
O503 Zn491 2.034 . S
O504 Zn483 2.024 . S
O504 C484 1.249 . S
C505 O501 1.251 . S
C505 O502 1.254 . S
H506 C479 0.949 . S
H507 C481 0.950 . S
H508 C488 0.949 . S
H509 C490 0.950 . S
C510 O526 1.251 . S
C510 O528 1.254 . S
N511 C512 1.333 . S
N511 C516 1.307 . S
N511 Zn517 2.020 . S
C512 N511 1.333 . S
C512 C513 1.379 . S
C512 H530 0.952 . S
C513 C512 1.379 . S
C513 C514 1.390 . S
C513 H540 0.949 . S
C514 C513 1.390 . S
C514 C515 1.357 . S
C515 C514 1.357 . S
C515 C516 1.370 . S
C515 H541 0.950 . S
C516 N511 1.307 . S
C516 C515 1.370 . S
C516 H534 0.948 . S
Zn517 N511 2.020 . S
Zn517 O526 2.039 . S
Zn517 O532 2.034 . S
Zn517 O536 2.025 . S
Zn517 O538 2.024 . S
C518 O537 1.246 . S
C518 O538 1.249 . S
N519 C520 1.307 . S
N519 C521 1.333 . S
N519 Zn525 2.020 . S
C520 N519 1.307 . S
C520 C524 1.370 . S
C520 H531 0.948 . S
C521 N519 1.333 . S
C521 C522 1.379 . S
C521 H529 0.952 . S
C522 C521 1.379 . S
C522 C523 1.390 . S
C522 H542 0.949 . S
C523 C522 1.390 . S
C523 C524 1.357 . S
C524 C520 1.370 . S
C524 C523 1.357 . S
C524 H543 0.950 . S
Zn525 N519 2.020 . S
Zn525 O528 2.025 . S
Zn525 O533 2.024 . S
Zn525 O535 2.039 . S
Zn525 O537 2.034 . S
O526 C510 1.251 . S
O526 Zn517 2.039 . S
C527 O532 1.246 . S
C527 O533 1.249 . S
O528 C510 1.254 . S
O528 Zn525 2.025 . S
H529 C521 0.952 . S
H530 C512 0.952 . S
H531 C520 0.948 . S
O532 Zn517 2.034 . S
O532 C527 1.246 . S
O533 Zn525 2.024 . S
O533 C527 1.249 . S
H534 C516 0.948 . S
O535 Zn525 2.039 . S
O535 C539 1.251 . S
O536 Zn517 2.025 . S
O536 C539 1.254 . S
O537 C518 1.246 . S
O537 Zn525 2.034 . S
O538 Zn517 2.024 . S
O538 C518 1.249 . S
C539 O535 1.251 . S
C539 O536 1.254 . S
H540 C513 0.949 . S
H541 C515 0.950 . S
H542 C522 0.949 . S
H543 C524 0.950 . S
H544 C550 0.930 . S
H545 C553 0.930 . S
H546 C554 0.930 . S
H547 C555 0.930 . S
H548 C558 0.930 . S
H549 C559 0.930 . S
C550 H544 0.930 . S
C550 C551 1.355 . S
C550 C552 1.415 . S
C551 C550 1.355 . S
C551 C553 1.419 . S
C552 C550 1.415 . S
C552 C557 1.425 . S
C552 C559 1.409 . S
C553 H545 0.930 . S
C553 C551 1.419 . S
C553 C554 1.362 . S
C554 H546 0.930 . S
C554 C553 1.362 . S
C554 C557 1.409 . S
C555 H547 0.930 . S
C555 C556 1.355 . S
C555 C557 1.415 . S
C556 C555 1.355 . S
C556 C558 1.419 . S
C557 C552 1.425 . S
C557 C554 1.409 . S
C557 C555 1.415 . S
C558 H548 0.930 . S
C558 C556 1.419 . S
C558 C559 1.362 . S
C559 H549 0.930 . S
C559 C552 1.409 . S
C559 C558 1.362 . S
H560 C566 0.930 . S
H561 C569 0.930 . S
H562 C570 0.930 . S
H563 C571 0.930 . S
H564 C574 0.930 . S
H565 C575 0.930 . S
C566 H560 0.930 . S
C566 C567 1.355 . S
C566 C568 1.415 . S
C567 C566 1.355 . S
C567 C569 1.419 . S
C568 C566 1.415 . S
C568 C573 1.425 . S
C568 C575 1.409 . S
C569 H561 0.930 . S
C569 C567 1.419 . S
C569 C570 1.362 . S
C570 H562 0.930 . S
C570 C569 1.362 . S
C570 C573 1.409 . S
C571 H563 0.930 . S
C571 C572 1.355 . S
C571 C573 1.415 . S
C572 C571 1.355 . S
C572 C574 1.419 . S
C573 C568 1.425 . S
C573 C570 1.409 . S
C573 C571 1.415 . S
C574 H564 0.930 . S
C574 C572 1.419 . S
C574 C575 1.362 . S
C575 H565 0.930 . S
C575 C568 1.409 . S
C575 C574 1.362 . S
H576 C582 0.930 . S
H577 C585 0.930 . S
H578 C586 0.930 . S
H579 C587 0.930 . S
H580 C590 0.930 . S
H581 C591 0.930 . S
C582 H576 0.930 . S
C582 C583 1.355 . S
C582 C584 1.415 . S
C583 C582 1.355 . S
C583 C585 1.419 . S
C584 C582 1.415 . S
C584 C589 1.425 . S
C584 C591 1.409 . S
C585 H577 0.930 . S
C585 C583 1.419 . S
C585 C586 1.362 . S
C586 H578 0.930 . S
C586 C585 1.362 . S
C586 C589 1.409 . S
C587 H579 0.930 . S
C587 C588 1.355 . S
C587 C589 1.415 . S
C588 C587 1.355 . S
C588 C590 1.419 . S
C589 C584 1.425 . S
C589 C586 1.409 . S
C589 C587 1.415 . S
C590 H580 0.930 . S
C590 C588 1.419 . S
C590 C591 1.362 . S
C591 H581 0.930 . S
C591 C584 1.409 . S
C591 C590 1.362 . S
H592 C598 0.930 . S
H593 C601 0.930 . S
H594 C602 0.930 . S
H595 C603 0.930 . S
H596 C606 0.930 . S
H597 C607 0.930 . S
C598 H592 0.930 . S
C598 C599 1.355 . S
C598 C600 1.415 . S
C599 C598 1.355 . S
C599 C601 1.419 . S
C600 C598 1.415 . S
C600 C605 1.425 . S
C600 C607 1.409 . S
C601 H593 0.930 . S
C601 C599 1.419 . S
C601 C602 1.362 . S
C602 H594 0.930 . S
C602 C601 1.362 . S
C602 C605 1.409 . S
C603 H595 0.930 . S
C603 C604 1.355 . S
C603 C605 1.415 . S
C604 C603 1.355 . S
C604 C606 1.419 . S
C605 C600 1.425 . S
C605 C602 1.409 . S
C605 C603 1.415 . S
C606 H596 0.930 . S
C606 C604 1.419 . S
C606 C607 1.362 . S
C607 H597 0.930 . S
C607 C600 1.409 . S
C607 C606 1.362 . S
H608 C614 0.930 . S
H609 C617 0.930 . S
H610 C618 0.930 . S
H611 C619 0.930 . S
H612 C622 0.930 . S
H613 C623 0.930 . S
C614 H608 0.930 . S
C614 C615 1.355 1_556 S
C614 C616 1.415 . S
C615 C614 1.355 1_554 S
C615 C617 1.419 . S
C616 C614 1.415 . S
C616 C621 1.425 1_556 S
C616 C623 1.409 . S
C617 H609 0.930 . S
C617 C615 1.419 . S
C617 C618 1.362 . S
C618 H610 0.930 . S
C618 C617 1.362 . S
C618 C621 1.409 . S
C619 H611 0.930 . S
C619 C620 1.355 1_554 S
C619 C621 1.415 . S
C620 C619 1.355 1_556 S
C620 C622 1.419 . S
C621 C616 1.425 1_554 S
C621 C618 1.409 . S
C621 C619 1.415 . S
C622 H612 0.930 . S
C622 C620 1.419 . S
C622 C623 1.362 . S
C623 H613 0.930 . S
C623 C616 1.409 . S
C623 C622 1.362 . S
H624 C630 0.930 . S
H625 C633 0.930 . S
H626 C634 0.930 . S
H627 C635 0.930 . S
H628 C638 0.930 . S
H629 C639 0.930 . S
C630 H624 0.930 . S
C630 C631 1.355 1_556 S
C630 C632 1.415 . S
C631 C630 1.355 1_554 S
C631 C633 1.419 . S
C632 C630 1.415 . S
C632 C637 1.425 1_556 S
C632 C639 1.409 . S
C633 H625 0.930 . S
C633 C631 1.419 . S
C633 C634 1.362 . S
C634 H626 0.930 . S
C634 C633 1.362 . S
C634 C637 1.409 . S
C635 H627 0.930 . S
C635 C636 1.355 1_554 S
C635 C637 1.415 . S
C636 C635 1.355 1_556 S
C636 C638 1.419 . S
C637 C632 1.425 1_554 S
C637 C634 1.409 . S
C637 C635 1.415 . S
C638 H628 0.930 . S
C638 C636 1.419 . S
C638 C639 1.362 . S
C639 H629 0.930 . S
C639 C632 1.409 . S
C639 C638 1.362 . S
H640 C646 0.930 . S
H641 C649 0.930 . S
H642 C650 0.930 . S
H643 C651 0.930 . S
H644 C654 0.930 . S
H645 C655 0.930 . S
C646 H640 0.930 . S
C646 C647 1.355 . S
C646 C648 1.415 . S
C647 C646 1.355 . S
C647 C649 1.419 1_554 S
C648 C646 1.415 . S
C648 C653 1.425 1_554 S
C648 C655 1.409 . S
C649 H641 0.930 . S
C649 C647 1.419 1_556 S
C649 C650 1.362 . S
C650 H642 0.930 . S
C650 C649 1.362 . S
C650 C653 1.409 . S
C651 H643 0.930 . S
C651 C652 1.355 . S
C651 C653 1.415 . S
C652 C651 1.355 . S
C652 C654 1.419 1_556 S
C653 C648 1.425 1_556 S
C653 C650 1.409 . S
C653 C651 1.415 . S
C654 H644 0.930 . S
C654 C652 1.419 1_554 S
C654 C655 1.362 . S
C655 H645 0.930 . S
C655 C648 1.409 . S
C655 C654 1.362 . S
H656 C662 0.930 . S
H657 C665 0.930 . S
H658 C666 0.930 . S
H659 C667 0.930 . S
H660 C670 0.930 . S
H661 C671 0.930 . S
C662 H656 0.930 . S
C662 C663 1.355 . S
C662 C664 1.415 . S
C663 C662 1.355 . S
C663 C665 1.419 1_554 S
C664 C662 1.415 . S
C664 C669 1.425 1_554 S
C664 C671 1.409 . S
C665 H657 0.930 . S
C665 C663 1.419 1_556 S
C665 C666 1.362 . S
C666 H658 0.930 . S
C666 C665 1.362 . S
C666 C669 1.409 . S
C667 H659 0.930 . S
C667 C668 1.355 . S
C667 C669 1.415 . S
C668 C667 1.355 . S
C668 C670 1.419 1_556 S
C669 C664 1.425 1_556 S
C669 C666 1.409 . S
C669 C667 1.415 . S
C670 H660 0.930 . S
C670 C668 1.419 1_554 S
C670 C671 1.362 . S
C671 H661 0.930 . S
C671 C664 1.409 . S
C671 C670 1.362 . S
H672 C678 0.930 . S
H673 C681 0.930 . S
H674 C682 0.930 . S
H675 C683 0.930 . S
H676 C686 0.930 . S
H677 C687 0.930 . S
C678 H672 0.930 . S
C678 C679 1.355 . S
C678 C680 1.415 . S
C679 C678 1.355 . S
C679 C681 1.419 . S
C680 C678 1.415 . S
C680 C685 1.425 . S
C680 C687 1.409 . S
C681 H673 0.930 . S
C681 C679 1.419 . S
C681 C682 1.362 . S
C682 H674 0.930 . S
C682 C681 1.362 . S
C682 C685 1.409 . S
C683 H675 0.930 . S
C683 C684 1.355 . S
C683 C685 1.415 . S
C684 C683 1.355 . S
C684 C686 1.419 . S
C685 C680 1.425 . S
C685 C682 1.409 . S
C685 C683 1.415 . S
C686 H676 0.930 . S
C686 C684 1.419 . S
C686 C687 1.362 . S
C687 H677 0.930 . S
C687 C680 1.409 . S
C687 C686 1.362 . S
H688 C694 0.930 . S
H689 C697 0.930 . S
H690 C698 0.930 . S
H691 C699 0.930 . S
H692 C702 0.930 . S
H693 C703 0.930 . S
C694 H688 0.930 . S
C694 C695 1.355 . S
C694 C696 1.415 . S
C695 C694 1.355 . S
C695 C697 1.419 . S
C696 C694 1.415 . S
C696 C701 1.425 . S
C696 C703 1.409 . S
C697 H689 0.930 . S
C697 C695 1.419 . S
C697 C698 1.362 . S
C698 H690 0.930 . S
C698 C697 1.362 . S
C698 C701 1.409 . S
C699 H691 0.930 . S
C699 C700 1.355 . S
C699 C701 1.415 . S
C700 C699 1.355 . S
C700 C702 1.419 . S
C701 C696 1.425 . S
C701 C698 1.409 . S
C701 C699 1.415 . S
C702 H692 0.930 . S
C702 C700 1.419 . S
C702 C703 1.362 . S
C703 H693 0.930 . S
C703 C696 1.409 . S
C703 C702 1.362 . S
H704 C710 0.930 . S
H705 C713 0.930 . S
H706 C714 0.930 . S
H707 C715 0.930 . S
H708 C718 0.930 . S
H709 C719 0.930 . S
C710 H704 0.930 . S
C710 C711 1.355 . S
C710 C712 1.415 . S
C711 C710 1.355 . S
C711 C713 1.419 . S
C712 C710 1.415 . S
C712 C717 1.425 . S
C712 C719 1.409 . S
C713 H705 0.930 . S
C713 C711 1.419 . S
C713 C714 1.362 . S
C714 H706 0.930 . S
C714 C713 1.362 . S
C714 C717 1.409 . S
C715 H707 0.930 . S
C715 C716 1.355 . S
C715 C717 1.415 . S
C716 C715 1.355 . S
C716 C718 1.419 . S
C717 C712 1.425 . S
C717 C714 1.409 . S
C717 C715 1.415 . S
C718 H708 0.930 . S
C718 C716 1.419 . S
C718 C719 1.362 . S
C719 H709 0.930 . S
C719 C712 1.409 . S
C719 C718 1.362 . S
H720 C726 0.930 . S
H721 C729 0.930 . S
H722 C730 0.930 . S
H723 C731 0.930 . S
H724 C734 0.930 . S
H725 C735 0.930 . S
C726 H720 0.930 . S
C726 C727 1.355 . S
C726 C728 1.415 . S
C727 C726 1.355 . S
C727 C729 1.419 . S
C728 C726 1.415 . S
C728 C733 1.425 . S
C728 C735 1.409 . S
C729 H721 0.930 . S
C729 C727 1.419 . S
C729 C730 1.362 . S
C730 H722 0.930 . S
C730 C729 1.362 . S
C730 C733 1.409 . S
C731 H723 0.930 . S
C731 C732 1.355 . S
C731 C733 1.415 . S
C732 C731 1.355 . S
C732 C734 1.419 . S
C733 C728 1.425 . S
C733 C730 1.409 . S
C733 C731 1.415 . S
C734 H724 0.930 . S
C734 C732 1.419 . S
C734 C735 1.362 . S
C735 H725 0.930 . S
C735 C728 1.409 . S
C735 C734 1.362 . S
H736 C742 0.930 . S
H737 C745 0.930 . S
H738 C746 0.930 . S
H739 C747 0.930 . S
H740 C750 0.930 . S
H741 C751 0.930 . S
C742 H736 0.930 . S
C742 C743 1.355 . S
C742 C744 1.415 . S
C743 C742 1.355 . S
C743 C745 1.419 . S
C744 C742 1.415 . S
C744 C749 1.425 . S
C744 C751 1.409 . S
C745 H737 0.930 . S
C745 C743 1.419 . S
C745 C746 1.362 . S
C746 H738 0.930 . S
C746 C745 1.362 . S
C746 C749 1.409 . S
C747 H739 0.930 . S
C747 C748 1.355 . S
C747 C749 1.415 . S
C748 C747 1.355 . S
C748 C750 1.419 . S
C749 C744 1.425 . S
C749 C746 1.409 . S
C749 C747 1.415 . S
C750 H740 0.930 . S
C750 C748 1.419 . S
C750 C751 1.362 . S
C751 H741 0.930 . S
C751 C744 1.409 . S
C751 C750 1.362 . S
H752 C758 0.930 . S
H753 C761 0.930 . S
H754 C762 0.930 . S
H755 C763 0.930 . S
H756 C766 0.930 . S
H757 C767 0.930 . S
C758 H752 0.930 . S
C758 C759 1.355 . S
C758 C760 1.415 . S
C759 C758 1.355 . S
C759 C761 1.419 . S
C760 C758 1.415 . S
C760 C765 1.425 . S
C760 C767 1.409 . S
C761 H753 0.930 . S
C761 C759 1.419 . S
C761 C762 1.362 . S
C762 H754 0.930 . S
C762 C761 1.362 . S
C762 C765 1.409 . S
C763 H755 0.930 . S
C763 C764 1.355 . S
C763 C765 1.415 . S
C764 C763 1.355 . S
C764 C766 1.419 . S
C765 C760 1.425 . S
C765 C762 1.409 . S
C765 C763 1.415 . S
C766 H756 0.930 . S
C766 C764 1.419 . S
C766 C767 1.362 . S
C767 H757 0.930 . S
C767 C760 1.409 . S
C767 C766 1.362 . S
H768 C774 0.930 . S
H769 C777 0.930 . S
H770 C778 0.930 . S
H771 C779 0.930 . S
H772 C782 0.930 . S
H773 C783 0.930 . S
C774 H768 0.930 . S
C774 C775 1.355 . S
C774 C776 1.415 . S
C775 C774 1.355 . S
C775 C777 1.419 . S
C776 C774 1.415 . S
C776 C781 1.425 . S
C776 C783 1.409 . S
C777 H769 0.930 . S
C777 C775 1.419 . S
C777 C778 1.362 . S
C778 H770 0.930 . S
C778 C777 1.362 . S
C778 C781 1.409 . S
C779 H771 0.930 . S
C779 C780 1.355 . S
C779 C781 1.415 . S
C780 C779 1.355 . S
C780 C782 1.419 . S
C781 C776 1.425 . S
C781 C778 1.409 . S
C781 C779 1.415 . S
C782 H772 0.930 . S
C782 C780 1.419 . S
C782 C783 1.362 . S
C783 H773 0.930 . S
C783 C776 1.409 . S
C783 C782 1.362 . S
H784 C790 0.930 . S
H785 C793 0.930 . S
H786 C794 0.930 . S
H787 C795 0.930 . S
H788 C798 0.930 . S
H789 C799 0.930 . S
C790 H784 0.930 . S
C790 C791 1.355 . S
C790 C792 1.415 . S
C791 C790 1.355 . S
C791 C793 1.419 . S
C792 C790 1.415 . S
C792 C797 1.425 . S
C792 C799 1.409 . S
C793 H785 0.930 . S
C793 C791 1.419 . S
C793 C794 1.362 . S
C794 H786 0.930 . S
C794 C793 1.362 . S
C794 C797 1.409 . S
C795 H787 0.930 . S
C795 C796 1.355 . S
C795 C797 1.415 . S
C796 C795 1.355 . S
C796 C798 1.419 . S
C797 C792 1.425 . S
C797 C794 1.409 . S
C797 C795 1.415 . S
C798 H788 0.930 . S
C798 C796 1.419 . S
C798 C799 1.362 . S
C799 H789 0.930 . S
C799 C792 1.409 . S
C799 C798 1.362 . S
H800 C806 0.930 . S
H801 C809 0.930 . S
H802 C810 0.930 . S
H803 C811 0.930 . S
H804 C814 0.930 . S
H805 C815 0.930 . S
C806 H800 0.930 . S
C806 C807 1.355 . S
C806 C808 1.415 . S
C807 C806 1.355 . S
C807 C809 1.419 1_554 S
C808 C806 1.415 . S
C808 C813 1.425 . S
C808 C815 1.409 . S
C809 H801 0.930 . S
C809 C807 1.419 1_556 S
C809 C810 1.362 . S
C810 H802 0.930 . S
C810 C809 1.362 . S
C810 C813 1.409 1_556 S
C811 H803 0.930 . S
C811 C812 1.355 . S
C811 C813 1.415 . S
C812 C811 1.355 . S
C812 C814 1.419 . S
C813 C808 1.425 . S
C813 C810 1.409 1_554 S
C813 C811 1.415 . S
C814 H804 0.930 . S
C814 C812 1.419 . S
C814 C815 1.362 . S
C815 H805 0.930 . S
C815 C808 1.409 . S
C815 C814 1.362 . S
H816 C822 0.930 . S
H817 C825 0.930 . S
H818 C826 0.930 . S
H819 C827 0.930 . S
H820 C830 0.930 . S
H821 C831 0.937 . S
C822 H816 0.930 . S
C822 C823 1.355 . S
C822 C824 1.415 . S
C823 C822 1.355 . S
C823 C825 1.419 . S
C824 C822 1.415 . S
C824 C829 1.425 . S
C824 C831 1.403 1_556 S
C825 H817 0.930 . S
C825 C823 1.419 . S
C825 C826 1.362 . S
C826 H818 0.930 . S
C826 C825 1.362 . S
C826 C829 1.409 . S
C827 H819 0.930 . S
C827 C828 1.355 . S
C827 C829 1.415 . S
C828 C827 1.355 . S
C828 C830 1.419 1_556 S
C829 C824 1.425 . S
C829 C826 1.409 . S
C829 C827 1.415 . S
C830 H820 0.930 . S
C830 C828 1.419 1_554 S
C830 C831 1.362 . S
C831 H821 0.937 . S
C831 C824 1.403 1_554 S
C831 C830 1.362 . S
H832 C838 0.930 . S
H833 C841 0.930 1_556 S
H834 C842 0.930 1_556 S
H835 C843 0.930 . S
H836 C846 0.930 . S
H837 C847 0.930 . S
C838 H832 0.930 . S
C838 C839 1.355 . S
C838 C840 1.415 . S
C839 C838 1.355 . S
C839 C841 1.419 . S
C840 C838 1.415 . S
C840 C845 1.425 . S
C840 C847 1.409 . S
C841 H833 0.930 1_554 S
C841 C839 1.419 . S
C841 C842 1.362 . S
C842 H834 0.930 1_554 S
C842 C841 1.362 . S
C842 C845 1.409 . S
C843 H835 0.930 . S
C843 C844 1.355 . S
C843 C845 1.415 . S
C844 C843 1.355 . S
C844 C846 1.419 . S
C845 C840 1.425 . S
C845 C842 1.409 . S
C845 C843 1.415 . S
C846 H836 0.930 . S
C846 C844 1.419 . S
C846 C847 1.362 . S
C847 H837 0.930 . S
C847 C840 1.409 . S
C847 C846 1.362 . S
H848 C854 0.930 . S
H849 C857 0.930 1_554 S
H850 C858 0.930 1_554 S
H851 C859 0.930 . S
H852 C862 0.930 . S
H853 C863 0.930 . S
C854 H848 0.930 . S
C854 C855 1.355 . S
C854 C856 1.415 . S
C855 C854 1.355 . S
C855 C857 1.419 . S
C856 C854 1.415 . S
C856 C861 1.425 . S
C856 C863 1.409 . S
C857 H849 0.930 1_556 S
C857 C855 1.419 . S
C857 C858 1.362 . S
C858 H850 0.930 1_556 S
C858 C857 1.362 . S
C858 C861 1.409 . S
C859 H851 0.930 . S
C859 C860 1.355 . S
C859 C861 1.415 . S
C860 C859 1.355 . S
C860 C862 1.419 . S
C861 C856 1.425 . S
C861 C858 1.409 . S
C861 C859 1.415 . S
C862 H852 0.930 . S
C862 C860 1.419 . S
C862 C863 1.362 . S
C863 H853 0.930 . S
C863 C856 1.409 . S
C863 C862 1.362 . S
H864 C870 0.930 . S
H865 C873 0.930 . S
H866 C874 0.930 . S
H867 C875 0.930 . S
H868 C878 0.930 . S
H869 C879 0.930 . S
C870 H864 0.930 . S
C870 C871 1.355 . S
C870 C872 1.415 . S
C871 C870 1.355 . S
C871 C873 1.419 . S
C872 C870 1.415 . S
C872 C877 1.425 . S
C872 C879 1.409 . S
C873 H865 0.930 . S
C873 C871 1.419 . S
C873 C874 1.362 . S
C874 H866 0.930 . S
C874 C873 1.362 . S
C874 C877 1.409 . S
C875 H867 0.930 . S
C875 C876 1.355 . S
C875 C877 1.415 . S
C876 C875 1.355 . S
C876 C878 1.419 . S
C877 C872 1.425 . S
C877 C874 1.409 . S
C877 C875 1.415 . S
C878 H868 0.930 . S
C878 C876 1.419 . S
C878 C879 1.362 . S
C879 H869 0.930 . S
C879 C872 1.409 . S
C879 C878 1.362 . S
H880 C886 0.930 . S
H881 C889 0.930 . S
H882 C890 0.930 . S
H883 C891 0.930 . S
H884 C894 0.930 . S
H885 C895 0.930 . S
C886 H880 0.930 . S
C886 C887 1.355 . S
C886 C888 1.415 . S
C887 C886 1.355 . S
C887 C889 1.419 . S
C888 C886 1.415 . S
C888 C893 1.425 . S
C888 C895 1.409 . S
C889 H881 0.930 . S
C889 C887 1.419 . S
C889 C890 1.362 . S
C890 H882 0.930 . S
C890 C889 1.362 . S
C890 C893 1.409 . S
C891 H883 0.930 . S
C891 C892 1.355 . S
C891 C893 1.415 . S
C892 C891 1.355 . S
C892 C894 1.419 . S
C893 C888 1.425 . S
C893 C890 1.409 . S
C893 C891 1.415 . S
C894 H884 0.930 . S
C894 C892 1.419 . S
C894 C895 1.362 . S
C895 H885 0.930 . S
C895 C888 1.409 . S
C895 C894 1.362 . S
H896 C902 0.930 . S
H897 C905 0.930 . S
H898 C906 0.930 . S
H899 C907 0.930 . S
H900 C910 0.930 . S
H901 C911 0.930 . S
C902 H896 0.930 . S
C902 C903 1.355 . S
C902 C904 1.415 . S
C903 C902 1.355 . S
C903 C905 1.419 . S
C904 C902 1.415 . S
C904 C909 1.425 . S
C904 C911 1.409 . S
C905 H897 0.930 . S
C905 C903 1.419 . S
C905 C906 1.362 . S
C906 H898 0.930 . S
C906 C905 1.362 . S
C906 C909 1.409 . S
C907 H899 0.930 . S
C907 C908 1.355 . S
C907 C909 1.415 . S
C908 C907 1.355 . S
C908 C910 1.419 . S
C909 C904 1.425 . S
C909 C906 1.409 . S
C909 C907 1.415 . S
C910 H900 0.930 . S
C910 C908 1.419 . S
C910 C911 1.362 . S
C911 H901 0.930 . S
C911 C904 1.409 . S
C911 C910 1.362 . S
H912 C918 0.930 . S
H913 C921 0.930 . S
H914 C922 0.930 . S
H915 C923 0.930 . S
H916 C926 0.930 . S
H917 C927 0.930 . S
C918 H912 0.930 . S
C918 C919 1.355 . S
C918 C920 1.415 . S
C919 C918 1.355 . S
C919 C921 1.419 . S
C920 C918 1.415 . S
C920 C925 1.425 . S
C920 C927 1.409 . S
C921 H913 0.930 . S
C921 C919 1.419 . S
C921 C922 1.362 . S
C922 H914 0.930 . S
C922 C921 1.362 . S
C922 C925 1.409 . S
C923 H915 0.930 . S
C923 C924 1.355 . S
C923 C925 1.415 . S
C924 C923 1.355 . S
C924 C926 1.419 . S
C925 C920 1.425 . S
C925 C922 1.409 . S
C925 C923 1.415 . S
C926 H916 0.930 . S
C926 C924 1.419 . S
C926 C927 1.362 . S
C927 H917 0.930 . S
C927 C920 1.409 . S
C927 C926 1.362 . S
H928 C934 0.930 . S
H929 C937 0.930 . S
H930 C938 0.930 1_554 S
H931 C939 0.930 . S
H932 C942 0.930 . S
H933 C943 0.930 . S
C934 H928 0.930 . S
C934 C935 1.355 . S
C934 C936 1.415 . S
C935 C934 1.355 . S
C935 C937 1.419 . S
C936 C934 1.415 . S
C936 C941 1.425 . S
C936 C943 1.409 . S
C937 H929 0.930 . S
C937 C935 1.419 . S
C937 C938 1.362 . S
C938 H930 0.930 1_556 S
C938 C937 1.362 . S
C938 C941 1.409 . S
C939 H931 0.930 . S
C939 C940 1.355 1_554 S
C939 C941 1.415 1_554 S
C940 C939 1.355 1_556 S
C940 C942 1.419 . S
C941 C936 1.425 . S
C941 C938 1.409 . S
C941 C939 1.415 1_556 S
C942 H932 0.930 . S
C942 C940 1.419 . S
C942 C943 1.362 . S
C943 H933 0.930 . S
C943 C936 1.409 . S
C943 C942 1.362 . S
H944 C950 0.930 . S
H945 C953 0.930 . S
H946 C954 0.930 . S
H947 C955 0.930 . S
H948 C958 0.930 . S
H949 C959 0.930 . S
C950 H944 0.930 . S
C950 C951 1.355 1_554 S
C950 C952 1.415 . S
C951 C950 1.355 1_556 S
C951 C953 1.419 . S
C952 C950 1.415 . S
C952 C957 1.425 . S
C952 C959 1.409 . S
C953 H945 0.930 . S
C953 C951 1.419 . S
C953 C954 1.362 . S
C954 H946 0.930 . S
C954 C953 1.362 . S
C954 C957 1.409 1_556 S
C955 H947 0.930 . S
C955 C956 1.355 . S
C955 C957 1.415 . S
C956 C955 1.355 . S
C956 C958 1.419 . S
C957 C952 1.425 . S
C957 C954 1.409 1_554 S
C957 C955 1.415 . S
C958 H948 0.930 . S
C958 C956 1.419 . S
C958 C959 1.362 . S
C959 H949 0.930 . S
C959 C952 1.409 . S
C959 C958 1.362 . S
H960 C966 0.930 . S
H961 C969 0.930 . S
H962 C970 0.930 . S
H963 C971 0.930 . S
H964 C974 0.930 . S
H965 C975 0.930 . S
C966 H960 0.930 . S
C966 C967 1.355 1_556 S
C966 C968 1.415 . S
C967 C966 1.355 1_554 S
C967 C969 1.419 . S
C968 C966 1.415 . S
C968 C973 1.425 . S
C968 C975 1.409 . S
C969 H961 0.930 . S
C969 C967 1.419 . S
C969 C970 1.362 . S
C970 H962 0.930 . S
C970 C969 1.362 . S
C970 C973 1.409 1_554 S
C971 H963 0.930 . S
C971 C972 1.355 . S
C971 C973 1.415 . S
C972 C971 1.355 . S
C972 C974 1.419 . S
C973 C968 1.425 . S
C973 C970 1.409 1_556 S
C973 C971 1.415 . S
C974 H964 0.930 . S
C974 C972 1.419 . S
C974 C975 1.362 . S
C975 H965 0.930 . S
C975 C968 1.409 . S
C975 C974 1.362 . S
H976 C982 0.930 1_556 S
H977 C985 0.930 . S
H978 C986 0.930 . S
H979 C987 0.930 . S
H980 C990 0.930 . S
H981 C991 0.930 . S
C982 H976 0.930 1_554 S
C982 C983 1.355 . S
C982 C984 1.415 . S
C983 C982 1.355 . S
C983 C985 1.419 . S
C984 C982 1.415 . S
C984 C989 1.425 . S
C984 C991 1.409 . S
C985 H977 0.930 . S
C985 C983 1.419 . S
C985 C986 1.362 . S
C986 H978 0.930 . S
C986 C985 1.362 . S
C986 C989 1.409 . S
C987 H979 0.930 . S
C987 C988 1.355 . S
C987 C989 1.415 . S
C988 C987 1.355 . S
C988 C990 1.419 . S
C989 C984 1.425 . S
C989 C986 1.409 . S
C989 C987 1.415 . S
C990 H980 0.930 . S
C990 C988 1.419 . S
C990 C991 1.362 . S
C991 H981 0.930 . S
C991 C984 1.409 . S
C991 C990 1.362 . S
H992 C998 0.930 . S
H993 C1001 0.930 . S
H994 C1002 0.930 . S
H995 C1003 0.930 . S
H996 C1006 0.930 . S
H997 C1007 0.930 . S
C998 H992 0.930 . S
C998 C999 1.355 . S
C998 C1000 1.415 . S
C999 C998 1.355 . S
C999 C1001 1.419 . S
C1000 C998 1.415 . S
C1000 C1005 1.425 . S
C1000 C1007 1.409 . S
C1001 H993 0.930 . S
C1001 C999 1.419 . S
C1001 C1002 1.362 . S
C1002 H994 0.930 . S
C1002 C1001 1.362 . S
C1002 C1005 1.409 . S
C1003 H995 0.930 . S
C1003 C1004 1.355 . S
C1003 C1005 1.415 . S
C1004 C1003 1.355 . S
C1004 C1006 1.419 . S
C1005 C1000 1.425 . S
C1005 C1002 1.409 . S
C1005 C1003 1.415 . S
C1006 H996 0.930 . S
C1006 C1004 1.419 . S
C1006 C1007 1.362 . S
C1007 H997 0.930 . S
C1007 C1000 1.409 . S
C1007 C1006 1.362 . S
H1008 C1014 0.930 . S
H1009 C1017 0.930 . S
H1010 C1018 0.930 . S
H1011 C1019 0.930 . S
H1012 C1022 0.930 . S
H1013 C1023 0.930 . S
C1014 H1008 0.930 . S
C1014 C1015 1.355 . S
C1014 C1016 1.415 . S
C1015 C1014 1.355 . S
C1015 C1017 1.419 . S
C1016 C1014 1.415 . S
C1016 C1021 1.425 . S
C1016 C1023 1.409 . S
C1017 H1009 0.930 . S
C1017 C1015 1.419 . S
C1017 C1018 1.362 . S
C1018 H1010 0.930 . S
C1018 C1017 1.362 . S
C1018 C1021 1.409 . S
C1019 H1011 0.930 . S
C1019 C1020 1.355 . S
C1019 C1021 1.415 . S
C1020 C1019 1.355 . S
C1020 C1022 1.419 . S
C1021 C1016 1.425 . S
C1021 C1018 1.409 . S
C1021 C1019 1.415 . S
C1022 H1012 0.930 . S
C1022 C1020 1.419 . S
C1022 C1023 1.362 . S
C1023 H1013 0.930 . S
C1023 C1016 1.409 . S
C1023 C1022 1.362 . S
H1024 C1030 0.930 . S
H1025 C1033 0.930 . S
H1026 C1034 0.930 . S
H1027 C1035 0.930 . S
H1028 C1038 0.930 . S
H1029 C1039 0.930 . S
C1030 H1024 0.930 . S
C1030 C1031 1.355 . S
C1030 C1032 1.415 . S
C1031 C1030 1.355 . S
C1031 C1033 1.419 . S
C1032 C1030 1.415 . S
C1032 C1037 1.425 . S
C1032 C1039 1.409 . S
C1033 H1025 0.930 . S
C1033 C1031 1.419 . S
C1033 C1034 1.362 . S
C1034 H1026 0.930 . S
C1034 C1033 1.362 . S
C1034 C1037 1.409 . S
C1035 H1027 0.930 . S
C1035 C1036 1.355 . S
C1035 C1037 1.415 . S
C1036 C1035 1.355 . S
C1036 C1038 1.419 . S
C1037 C1032 1.425 . S
C1037 C1034 1.409 . S
C1037 C1035 1.415 . S
C1038 H1028 0.930 . S
C1038 C1036 1.419 . S
C1038 C1039 1.362 . S
C1039 H1029 0.930 . S
C1039 C1032 1.409 . S
C1039 C1038 1.362 . S
H1040 C1046 0.930 . S
H1041 C1049 0.930 . S
H1042 C1050 0.930 . S
H1043 C1051 0.930 . S
H1044 C1054 0.930 . S
H1045 C1055 0.930 . S
C1046 H1040 0.930 . S
C1046 C1047 1.355 . S
C1046 C1048 1.415 . S
C1047 C1046 1.355 . S
C1047 C1049 1.419 . S
C1048 C1046 1.415 . S
C1048 C1053 1.425 . S
C1048 C1055 1.409 . S
C1049 H1041 0.930 . S
C1049 C1047 1.419 . S
C1049 C1050 1.362 . S
C1050 H1042 0.930 . S
C1050 C1049 1.362 . S
C1050 C1053 1.409 . S
C1051 H1043 0.930 . S
C1051 C1052 1.355 . S
C1051 C1053 1.415 . S
C1052 C1051 1.355 . S
C1052 C1054 1.419 . S
C1053 C1048 1.425 . S
C1053 C1050 1.409 . S
C1053 C1051 1.415 . S
C1054 H1044 0.930 . S
C1054 C1052 1.419 . S
C1054 C1055 1.362 . S
C1055 H1045 0.930 . S
C1055 C1048 1.409 . S
C1055 C1054 1.362 . S
H1056 C1062 0.930 . S
H1057 C1065 0.930 . S
H1058 C1066 0.930 . S
H1059 C1067 0.930 . S
H1060 C1070 0.930 . S
H1061 C1071 0.930 . S
C1062 H1056 0.930 . S
C1062 C1063 1.355 . S
C1062 C1064 1.415 . S
C1063 C1062 1.355 . S
C1063 C1065 1.419 . S
C1064 C1062 1.415 . S
C1064 C1069 1.425 . S
C1064 C1071 1.409 . S
C1065 H1057 0.930 . S
C1065 C1063 1.419 . S
C1065 C1066 1.362 . S
C1066 H1058 0.930 . S
C1066 C1065 1.362 . S
C1066 C1069 1.409 . S
C1067 H1059 0.930 . S
C1067 C1068 1.355 . S
C1067 C1069 1.415 . S
C1068 C1067 1.355 . S
C1068 C1070 1.419 . S
C1069 C1064 1.425 . S
C1069 C1066 1.409 . S
C1069 C1067 1.415 . S
C1070 H1060 0.930 . S
C1070 C1068 1.419 . S
C1070 C1071 1.362 . S
C1071 H1061 0.930 . S
C1071 C1064 1.409 . S
C1071 C1070 1.362 . S
H1072 C1078 0.930 . S
H1073 C1081 0.930 . S
H1074 C1082 0.930 . S
H1075 C1083 0.930 . S
H1076 C1086 0.930 . S
H1077 C1087 0.930 . S
C1078 H1072 0.930 . S
C1078 C1079 1.355 . S
C1078 C1080 1.415 . S
C1079 C1078 1.355 . S
C1079 C1081 1.419 . S
C1080 C1078 1.415 . S
C1080 C1085 1.425 . S
C1080 C1087 1.409 . S
C1081 H1073 0.930 . S
C1081 C1079 1.419 . S
C1081 C1082 1.362 . S
C1082 H1074 0.930 . S
C1082 C1081 1.362 . S
C1082 C1085 1.409 . S
C1083 H1075 0.930 . S
C1083 C1084 1.355 . S
C1083 C1085 1.415 . S
C1084 C1083 1.355 . S
C1084 C1086 1.419 . S
C1085 C1080 1.425 . S
C1085 C1082 1.409 . S
C1085 C1083 1.415 . S
C1086 H1076 0.930 . S
C1086 C1084 1.419 . S
C1086 C1087 1.362 . S
C1087 H1077 0.930 . S
C1087 C1080 1.409 . S
C1087 C1086 1.362 . S
H1088 C1094 0.930 . S
H1089 C1097 0.930 . S
H1090 C1098 0.930 . S
H1091 C1099 0.930 . S
H1092 C1102 0.930 . S
H1093 C1103 0.930 . S
C1094 H1088 0.930 . S
C1094 C1095 1.355 . S
C1094 C1096 1.415 . S
C1095 C1094 1.355 . S
C1095 C1097 1.419 . S
C1096 C1094 1.415 . S
C1096 C1101 1.425 . S
C1096 C1103 1.409 . S
C1097 H1089 0.930 . S
C1097 C1095 1.419 . S
C1097 C1098 1.362 . S
C1098 H1090 0.930 . S
C1098 C1097 1.362 . S
C1098 C1101 1.409 . S
C1099 H1091 0.930 . S
C1099 C1100 1.355 . S
C1099 C1101 1.415 . S
C1100 C1099 1.355 . S
C1100 C1102 1.419 . S
C1101 C1096 1.425 . S
C1101 C1098 1.409 . S
C1101 C1099 1.415 . S
C1102 H1092 0.930 . S
C1102 C1100 1.419 . S
C1102 C1103 1.362 . S
C1103 H1093 0.930 . S
C1103 C1096 1.409 . S
C1103 C1102 1.362 . S
H1104 C1110 0.930 . S
H1105 C1113 0.930 . S
H1106 C1114 0.930 . S
H1107 C1115 0.930 . S
H1108 C1118 0.930 . S
H1109 C1119 0.930 . S
C1110 H1104 0.930 . S
C1110 C1111 1.355 . S
C1110 C1112 1.415 . S
C1111 C1110 1.355 . S
C1111 C1113 1.419 . S
C1112 C1110 1.415 . S
C1112 C1117 1.425 . S
C1112 C1119 1.409 . S
C1113 H1105 0.930 . S
C1113 C1111 1.419 . S
C1113 C1114 1.362 . S
C1114 H1106 0.930 . S
C1114 C1113 1.362 . S
C1114 C1117 1.409 . S
C1115 H1107 0.930 . S
C1115 C1116 1.355 . S
C1115 C1117 1.415 . S
C1116 C1115 1.355 . S
C1116 C1118 1.419 . S
C1117 C1112 1.425 . S
C1117 C1114 1.409 . S
C1117 C1115 1.415 . S
C1118 H1108 0.930 . S
C1118 C1116 1.419 . S
C1118 C1119 1.362 . S
C1119 H1109 0.930 . S
C1119 C1112 1.409 . S
C1119 C1118 1.362 . S
H1120 C1126 0.930 . S
H1121 C1129 0.930 . S
H1122 C1130 0.930 . S
H1123 C1131 0.930 . S
H1124 C1134 0.930 . S
H1125 C1135 0.930 . S
C1126 H1120 0.930 . S
C1126 C1127 1.355 . S
C1126 C1128 1.415 . S
C1127 C1126 1.355 . S
C1127 C1129 1.419 . S
C1128 C1126 1.415 . S
C1128 C1133 1.425 . S
C1128 C1135 1.409 . S
C1129 H1121 0.930 . S
C1129 C1127 1.419 . S
C1129 C1130 1.362 . S
C1130 H1122 0.930 . S
C1130 C1129 1.362 . S
C1130 C1133 1.409 . S
C1131 H1123 0.930 . S
C1131 C1132 1.355 . S
C1131 C1133 1.415 . S
C1132 C1131 1.355 . S
C1132 C1134 1.419 . S
C1133 C1128 1.425 . S
C1133 C1130 1.409 . S
C1133 C1131 1.415 . S
C1134 H1124 0.930 . S
C1134 C1132 1.419 . S
C1134 C1135 1.362 . S
C1135 H1125 0.930 . S
C1135 C1128 1.409 . S
C1135 C1134 1.362 . S
H1136 C1142 0.930 . S
H1137 C1145 0.930 . S
H1138 C1146 0.930 . S
H1139 C1147 0.930 . S
H1140 C1150 0.930 . S
H1141 C1151 0.930 . S
C1142 H1136 0.930 . S
C1142 C1143 1.355 . S
C1142 C1144 1.415 . S
C1143 C1142 1.355 . S
C1143 C1145 1.419 . S
C1144 C1142 1.415 . S
C1144 C1149 1.425 . S
C1144 C1151 1.409 . S
C1145 H1137 0.930 . S
C1145 C1143 1.419 . S
C1145 C1146 1.362 . S
C1146 H1138 0.930 . S
C1146 C1145 1.362 . S
C1146 C1149 1.409 . S
C1147 H1139 0.930 . S
C1147 C1148 1.355 . S
C1147 C1149 1.415 . S
C1148 C1147 1.355 . S
C1148 C1150 1.419 . S
C1149 C1144 1.425 . S
C1149 C1146 1.409 . S
C1149 C1147 1.415 . S
C1150 H1140 0.930 . S
C1150 C1148 1.419 . S
C1150 C1151 1.362 . S
C1151 H1141 0.930 . S
C1151 C1144 1.409 . S
C1151 C1150 1.362 . S
H1152 C1158 0.930 . S
H1153 C1161 0.930 . S
H1154 C1162 0.930 . S
H1155 C1163 0.930 . S
H1156 C1166 0.930 . S
H1157 C1167 0.930 . S
C1158 H1152 0.930 . S
C1158 C1159 1.355 . S
C1158 C1160 1.415 . S
C1159 C1158 1.355 . S
C1159 C1161 1.419 . S
C1160 C1158 1.415 . S
C1160 C1165 1.425 . S
C1160 C1167 1.409 . S
C1161 H1153 0.930 . S
C1161 C1159 1.419 . S
C1161 C1162 1.362 . S
C1162 H1154 0.930 . S
C1162 C1161 1.362 . S
C1162 C1165 1.409 . S
C1163 H1155 0.930 . S
C1163 C1164 1.355 . S
C1163 C1165 1.415 . S
C1164 C1163 1.355 . S
C1164 C1166 1.419 . S
C1165 C1160 1.425 . S
C1165 C1162 1.409 . S
C1165 C1163 1.415 . S
C1166 H1156 0.930 . S
C1166 C1164 1.419 . S
C1166 C1167 1.362 . S
C1167 H1157 0.930 . S
C1167 C1160 1.409 . S
C1167 C1166 1.362 . S
H1168 C1174 0.930 . S
H1169 C1177 0.930 . S
H1170 C1178 0.930 . S
H1171 C1179 0.930 . S
H1172 C1182 0.930 . S
H1173 C1183 0.930 . S
C1174 H1168 0.930 . S
C1174 C1175 1.355 . S
C1174 C1176 1.415 . S
C1175 C1174 1.355 . S
C1175 C1177 1.419 . S
C1176 C1174 1.415 . S
C1176 C1181 1.425 . S
C1176 C1183 1.409 . S
C1177 H1169 0.930 . S
C1177 C1175 1.419 . S
C1177 C1178 1.362 . S
C1178 H1170 0.930 . S
C1178 C1177 1.362 . S
C1178 C1181 1.409 . S
C1179 H1171 0.930 . S
C1179 C1180 1.355 . S
C1179 C1181 1.415 . S
C1180 C1179 1.355 . S
C1180 C1182 1.419 . S
C1181 C1176 1.425 . S
C1181 C1178 1.409 . S
C1181 C1179 1.415 . S
C1182 H1172 0.930 . S
C1182 C1180 1.419 . S
C1182 C1183 1.362 . S
C1183 H1173 0.930 . S
C1183 C1176 1.409 . S
C1183 C1182 1.362 . S
H1184 C1190 0.929 1_556 S
H1185 C1193 0.930 . S
H1186 C1194 0.930 . S
H1187 C1195 0.930 . S
H1188 C1198 0.930 . S
H1189 C1199 0.930 . S
C1190 H1184 0.929 1_554 S
C1190 C1191 1.353 1_554 S
C1190 C1192 1.417 . S
C1191 C1190 1.353 1_556 S
C1191 C1193 1.419 . S
C1192 C1190 1.417 . S
C1192 C1197 1.425 . S
C1192 C1199 1.409 . S
C1193 H1185 0.930 . S
C1193 C1191 1.419 . S
C1193 C1194 1.362 1_556 S
C1194 H1186 0.930 . S
C1194 C1193 1.362 1_554 S
C1194 C1197 1.409 . S
C1195 H1187 0.930 . S
C1195 C1196 1.355 . S
C1195 C1197 1.415 . S
C1196 C1195 1.355 . S
C1196 C1198 1.419 . S
C1197 C1192 1.425 . S
C1197 C1194 1.409 . S
C1197 C1195 1.415 . S
C1198 H1188 0.930 . S
C1198 C1196 1.419 . S
C1198 C1199 1.362 . S
C1199 H1189 0.930 . S
C1199 C1192 1.409 . S
C1199 C1198 1.362 . S
H1200 C1206 0.930 . S
H1201 C1209 0.930 . S
H1202 C1210 0.930 . S
H1203 C1211 0.930 . S
H1204 C1214 0.930 . S
H1205 C1215 0.930 . S
C1206 H1200 0.930 . S
C1206 C1207 1.355 . S
C1206 C1208 1.415 . S
C1207 C1206 1.355 . S
C1207 C1209 1.419 . S
C1208 C1206 1.415 . S
C1208 C1213 1.425 . S
C1208 C1215 1.409 . S
C1209 H1201 0.930 . S
C1209 C1207 1.419 . S
C1209 C1210 1.362 . S
C1210 H1202 0.930 . S
C1210 C1209 1.362 . S
C1210 C1213 1.409 . S
C1211 H1203 0.930 . S
C1211 C1212 1.355 . S
C1211 C1213 1.415 1_554 S
C1212 C1211 1.355 . S
C1212 C1214 1.419 . S
C1213 C1208 1.425 . S
C1213 C1210 1.409 . S
C1213 C1211 1.415 1_556 S
C1214 H1204 0.930 . S
C1214 C1212 1.419 . S
C1214 C1215 1.362 1_554 S
C1215 H1205 0.930 . S
C1215 C1208 1.409 . S
C1215 C1214 1.362 1_556 S
H1216 C1222 0.930 . S
H1217 C1225 0.930 . S
H1218 C1226 0.930 . S
H1219 C1227 0.930 . S
H1220 C1230 0.930 . S
H1221 C1231 0.930 . S
C1222 H1216 0.930 . S
C1222 C1223 1.355 . S
C1222 C1224 1.415 . S
C1223 C1222 1.355 . S
C1223 C1225 1.419 . S
C1224 C1222 1.415 . S
C1224 C1229 1.425 . S
C1224 C1231 1.409 . S
C1225 H1217 0.930 . S
C1225 C1223 1.419 . S
C1225 C1226 1.362 . S
C1226 H1218 0.930 . S
C1226 C1225 1.362 . S
C1226 C1229 1.409 . S
C1227 H1219 0.930 . S
C1227 C1228 1.355 . S
C1227 C1229 1.415 1_556 S
C1228 C1227 1.355 . S
C1228 C1230 1.419 . S
C1229 C1224 1.425 . S
C1229 C1226 1.409 . S
C1229 C1227 1.415 1_554 S
C1230 H1220 0.930 . S
C1230 C1228 1.419 . S
C1230 C1231 1.362 1_556 S
C1231 H1221 0.930 . S
C1231 C1224 1.409 . S
C1231 C1230 1.362 1_554 S
H1232 C1238 0.930 . S
H1233 C1241 0.930 . S
H1234 C1242 0.930 . S
H1235 C1243 0.930 . S
H1236 C1246 0.930 . S
H1237 C1247 0.930 . S
C1238 H1232 0.930 . S
C1238 C1239 1.355 . S
C1238 C1240 1.415 1_554 S
C1239 C1238 1.355 . S
C1239 C1241 1.419 . S
C1240 C1238 1.415 1_556 S
C1240 C1245 1.425 . S
C1240 C1247 1.409 . S
C1241 H1233 0.930 . S
C1241 C1239 1.419 . S
C1241 C1242 1.362 1_554 S
C1242 H1234 0.930 . S
C1242 C1241 1.362 1_556 S
C1242 C1245 1.409 . S
C1243 H1235 0.930 . S
C1243 C1244 1.355 . S
C1243 C1245 1.415 . S
C1244 C1243 1.355 . S
C1244 C1246 1.419 . S
C1245 C1240 1.425 . S
C1245 C1242 1.409 . S
C1245 C1243 1.415 . S
C1246 H1236 0.930 . S
C1246 C1244 1.419 . S
C1246 C1247 1.362 . S
C1247 H1237 0.930 . S
C1247 C1240 1.409 . S
C1247 C1246 1.362 . S
H1248 C1254 0.930 . S
H1249 C1257 0.930 . S
H1250 C1258 0.930 . S
H1251 C1259 0.930 . S
H1252 C1262 0.930 . S
H1253 C1263 0.930 . S
C1254 H1248 0.930 . S
C1254 C1255 1.355 . S
C1254 C1256 1.415 . S
C1255 C1254 1.355 . S
C1255 C1257 1.419 . S
C1256 C1254 1.415 . S
C1256 C1261 1.425 . S
C1256 C1263 1.409 . S
C1257 H1249 0.930 . S
C1257 C1255 1.419 . S
C1257 C1258 1.362 . S
C1258 H1250 0.930 . S
C1258 C1257 1.362 . S
C1258 C1261 1.409 . S
C1259 H1251 0.930 . S
C1259 C1260 1.355 . S
C1259 C1261 1.415 1_556 S
C1260 C1259 1.355 . S
C1260 C1262 1.419 . S
C1261 C1256 1.425 . S
C1261 C1258 1.409 . S
C1261 C1259 1.415 1_554 S
C1262 H1252 0.930 . S
C1262 C1260 1.419 . S
C1262 C1263 1.362 1_556 S
C1263 H1253 0.930 . S
C1263 C1256 1.409 . S
C1263 C1262 1.362 1_554 S
H1264 C1270 0.930 . S
H1265 C1273 0.930 . S
H1266 C1274 0.930 . S
H1267 C1275 0.930 . S
H1268 C1278 0.930 . S
H1269 C1279 0.930 . S
C1270 H1264 0.930 . S
C1270 C1271 1.355 . S
C1270 C1272 1.415 1_554 S
C1271 C1270 1.355 . S
C1271 C1273 1.419 . S
C1272 C1270 1.415 1_556 S
C1272 C1277 1.425 . S
C1272 C1279 1.409 . S
C1273 H1265 0.930 . S
C1273 C1271 1.419 . S
C1273 C1274 1.362 1_554 S
C1274 H1266 0.930 . S
C1274 C1273 1.362 1_556 S
C1274 C1277 1.409 . S
C1275 H1267 0.930 . S
C1275 C1276 1.355 . S
C1275 C1277 1.415 . S
C1276 C1275 1.355 . S
C1276 C1278 1.419 . S
C1277 C1272 1.425 . S
C1277 C1274 1.409 . S
C1277 C1275 1.415 . S
C1278 H1268 0.930 . S
C1278 C1276 1.419 . S
C1278 C1279 1.362 . S
C1279 H1269 0.930 . S
C1279 C1272 1.409 . S
C1279 C1278 1.362 . S
H1280 C1286 0.930 . S
H1281 C1289 0.930 . S
H1282 C1290 0.930 . S
H1283 C1291 0.930 . S
H1284 C1294 0.930 . S
H1285 C1295 0.930 . S
C1286 H1280 0.930 . S
C1286 C1287 1.355 . S
C1286 C1288 1.415 1_556 S
C1287 C1286 1.355 . S
C1287 C1289 1.419 . S
C1288 C1286 1.415 1_554 S
C1288 C1293 1.425 . S
C1288 C1295 1.409 . S
C1289 H1281 0.930 . S
C1289 C1287 1.419 . S
C1289 C1290 1.362 1_556 S
C1290 H1282 0.930 . S
C1290 C1289 1.362 1_554 S
C1290 C1293 1.409 . S
C1291 H1283 0.930 . S
C1291 C1292 1.355 . S
C1291 C1293 1.415 . S
C1292 C1291 1.355 . S
C1292 C1294 1.419 . S
C1293 C1288 1.425 . S
C1293 C1290 1.409 . S
C1293 C1291 1.415 . S
C1294 H1284 0.930 . S
C1294 C1292 1.419 . S
C1294 C1295 1.362 . S
C1295 H1285 0.930 . S
C1295 C1288 1.409 . S
C1295 C1294 1.362 . S
H1296 C1302 0.930 . S
H1297 C1305 0.930 . S
H1298 C1306 0.930 . S
H1299 C1307 0.930 . S
H1300 C1310 0.930 . S
H1301 C1311 0.930 . S
C1302 H1296 0.930 . S
C1302 C1303 1.355 . S
C1302 C1304 1.415 . S
C1303 C1302 1.355 . S
C1303 C1305 1.419 . S
C1304 C1302 1.415 . S
C1304 C1309 1.425 . S
C1304 C1311 1.409 . S
C1305 H1297 0.930 . S
C1305 C1303 1.419 . S
C1305 C1306 1.362 . S
C1306 H1298 0.930 . S
C1306 C1305 1.362 . S
C1306 C1309 1.409 . S
C1307 H1299 0.930 . S
C1307 C1308 1.355 . S
C1307 C1309 1.415 1_554 S
C1308 C1307 1.355 . S
C1308 C1310 1.419 . S
C1309 C1304 1.425 . S
C1309 C1306 1.409 . S
C1309 C1307 1.415 1_556 S
C1310 H1300 0.930 . S
C1310 C1308 1.419 . S
C1310 C1311 1.362 1_554 S
C1311 H1301 0.930 . S
C1311 C1304 1.409 . S
C1311 C1310 1.362 1_556 S
C551 C382 1.673 . S
C556 C13 1.669 1_565 S
C567 C289 1.663 . S
C572 C38 1.663 1_655 S
C583 C81 1.637 1_545 S
C588 C314 1.656 . S
C599 C106 1.661 1_455 S
C604 C357 1.672 . S
C615 C149 1.640 . S
C620 C178 1.650 . S
C631 C221 1.650 . S
C636 C174 1.642 . S
C647 C217 1.664 . S
C652 C246 1.673 . S
C663 C153 1.669 . S
C668 C242 1.655 . S
C679 C110 1.672 . S
C684 C285 1.670 . S
C695 C310 1.648 . S
C700 C17 1.665 . S
C711 C42 1.669 . S
C716 C353 1.654 . S
C727 C85 1.671 . S
C732 C378 1.658 . S
C743 C421 1.651 1_545 S
C748 C450 1.667 . S
C759 C493 1.651 . S
C764 C446 1.644 1_455 S
C775 C518 1.665 . S
C780 C489 1.665 1_565 S
C791 C514 1.655 1_655 S
C796 C425 1.669 . S
C807 C4 1.273 . S
C812 C140 1.274 . S
C823 C183 1.274 . S
C828 C47 1.271 . S
C839 C72 1.265 . S
C844 C208 1.253 . S
C855 C115 1.273 . S
C860 C251 1.266 . S
C871 C276 1.238 . S
C876 C412 1.252 . S
C887 C455 1.270 . S
C892 C319 1.274 . S
C903 C344 1.258 . S
C908 C480 1.244 . S
C919 C387 1.267 . S
C924 C523 1.274 . S
C935 C484 2.191 . S
C940 C8 2.188 1_556 S
C951 C51 2.216 . S
C956 C527 2.221 . S
C967 C76 2.218 . S
C972 C416 2.221 . S
C983 C119 2.197 1_554 S
C988 C459 2.188 . S
C999 C144 2.216 . S
C1004 C348 2.221 . S
C1015 C187 2.220 . S
C1020 C391 2.220 . S
C1031 C212 2.191 . S
C1036 C280 2.188 . S
C1047 C323 2.192 . S
C1052 C255 2.188 . S
C1063 C29 0.936 . S
C1068 C0 0.936 . S
C1079 C34 0.932 . S
C1084 C63 0.932 . S
C1095 C97 0.923 . S
C1100 C68 0.923 . S
C1111 C131 0.938 . S
C1116 C102 0.938 . S
C1127 C136 0.922 . S
C1132 C165 0.922 . S
C1143 C170 0.928 . S
C1148 C199 0.928 . S
C1159 C233 0.940 . S
C1164 C204 0.940 . S
C1175 C267 0.924 . S
C1180 C238 0.924 . S
C1191 C301 0.909 . S
C1196 C272 0.909 . S
C1207 C335 0.933 . S
C1212 C306 0.933 . S
C1223 C340 0.927 . S
C1228 C369 0.927 . S
C1239 C374 0.937 . S
C1244 C403 0.937 . S
C1255 C437 0.947 . S
C1260 C408 0.947 . S
C1271 C471 0.938 . S
C1276 C442 0.938 . S
C1287 C476 0.913 . S
C1292 C505 0.913 . S
C1303 C510 0.918 . S
C1308 C539 0.918 . S
