# Generated by pormake.
# Topology ukj, (4)-cn, num edge types: 1
# Building blocks:
#     Node 0, Type 0, BuildingBlock: NAWXER_clean_sbu_0, # of connection points: 4
#     Node 1, Type 0, BuildingBlock: NAWXER_clean_sbu_0, # of connection points: 4
#     Node 2, Type 0, BuildingBlock: NAWXER_clean_sbu_0, # of connection points: 4
#     Node 3, Type 0, BuildingBlock: NAWXER_clean_sbu_0, # of connection points: 4
#     Node 4, Type 0, BuildingBlock: NAWXER_clean_sbu_0, # of connection points: 4
#     Node 5, Type 0, BuildingBlock: NAWXER_clean_sbu_0, # of connection points: 4
#     Node 6, Type 0, BuildingBlock: NAWXER_clean_sbu_0, # of connection points: 4
#     Node 7, Type 0, BuildingBlock: NAWXER_clean_sbu_0, # of connection points: 4
#     Node 8, Type 0, BuildingBlock: NAWXER_clean_sbu_0, # of connection points: 4
#     Node 9, Type 0, BuildingBlock: NAWXER_clean_sbu_0, # of connection points: 4
#     Node 10, Type 0, BuildingBlock: NAWXER_clean_sbu_0, # of connection points: 4
#     Node 11, Type 0, BuildingBlock: NAWXER_clean_sbu_0, # of connection points: 4
#     Node 12, Type 0, BuildingBlock: NAWXER_clean_sbu_0, # of connection points: 4
#     Node 13, Type 0, BuildingBlock: NAWXER_clean_sbu_0, # of connection points: 4
#     Node 14, Type 0, BuildingBlock: NAWXER_clean_sbu_0, # of connection points: 4
#     Node 15, Type 0, BuildingBlock: NAWXER_clean_sbu_0, # of connection points: 4
#     Node 16, Type 0, BuildingBlock: NAWXER_clean_sbu_0, # of connection points: 4
#     Node 17, Type 0, BuildingBlock: NAWXER_clean_sbu_0, # of connection points: 4
#     Node 18, Type 0, BuildingBlock: NAWXER_clean_sbu_0, # of connection points: 4
#     Node 19, Type 0, BuildingBlock: NAWXER_clean_sbu_0, # of connection points: 4
#     Node 20, Type 0, BuildingBlock: NAWXER_clean_sbu_0, # of connection points: 4
#     Node 21, Type 0, BuildingBlock: NAWXER_clean_sbu_0, # of connection points: 4
#     Node 22, Type 0, BuildingBlock: NAWXER_clean_sbu_0, # of connection points: 4
#     Node 23, Type 0, BuildingBlock: NAWXER_clean_sbu_0, # of connection points: 4
#     Node 24, Type 0, BuildingBlock: NAWXER_clean_sbu_0, # of connection points: 4
#     Node 25, Type 0, BuildingBlock: NAWXER_clean_sbu_0, # of connection points: 4
#     Node 26, Type 0, BuildingBlock: NAWXER_clean_sbu_0, # of connection points: 4
#     Node 27, Type 0, BuildingBlock: NAWXER_clean_sbu_0, # of connection points: 4
#     Node 28, Type 0, BuildingBlock: NAWXER_clean_sbu_0, # of connection points: 4
#     Node 29, Type 0, BuildingBlock: NAWXER_clean_sbu_0, # of connection points: 4
#     Node 30, Type 0, BuildingBlock: NAWXER_clean_sbu_0, # of connection points: 4
#     Node 31, Type 0, BuildingBlock: NAWXER_clean_sbu_0, # of connection points: 4
#     Edge 32, Type (0, 0), BuildingBlock: XIVTED_clean_linker_0, # of connection points: 2
#     Edge 33, Type (0, 0), BuildingBlock: XIVTED_clean_linker_0, # of connection points: 2
#     Edge 34, Type (0, 0), BuildingBlock: XIVTED_clean_linker_0, # of connection points: 2
#     Edge 35, Type (0, 0), BuildingBlock: XIVTED_clean_linker_0, # of connection points: 2
#     Edge 36, Type (0, 0), BuildingBlock: XIVTED_clean_linker_0, # of connection points: 2
#     Edge 37, Type (0, 0), BuildingBlock: XIVTED_clean_linker_0, # of connection points: 2
#     Edge 38, Type (0, 0), BuildingBlock: XIVTED_clean_linker_0, # of connection points: 2
#     Edge 39, Type (0, 0), BuildingBlock: XIVTED_clean_linker_0, # of connection points: 2
#     Edge 40, Type (0, 0), BuildingBlock: XIVTED_clean_linker_0, # of connection points: 2
#     Edge 41, Type (0, 0), BuildingBlock: XIVTED_clean_linker_0, # of connection points: 2
#     Edge 42, Type (0, 0), BuildingBlock: XIVTED_clean_linker_0, # of connection points: 2
#     Edge 43, Type (0, 0), BuildingBlock: XIVTED_clean_linker_0, # of connection points: 2
#     Edge 44, Type (0, 0), BuildingBlock: XIVTED_clean_linker_0, # of connection points: 2
#     Edge 45, Type (0, 0), BuildingBlock: XIVTED_clean_linker_0, # of connection points: 2
#     Edge 46, Type (0, 0), BuildingBlock: XIVTED_clean_linker_0, # of connection points: 2
#     Edge 47, Type (0, 0), BuildingBlock: XIVTED_clean_linker_0, # of connection points: 2
#     Edge 48, Type (0, 0), BuildingBlock: XIVTED_clean_linker_0, # of connection points: 2
#     Edge 49, Type (0, 0), BuildingBlock: XIVTED_clean_linker_0, # of connection points: 2
#     Edge 50, Type (0, 0), BuildingBlock: XIVTED_clean_linker_0, # of connection points: 2
#     Edge 51, Type (0, 0), BuildingBlock: XIVTED_clean_linker_0, # of connection points: 2
#     Edge 52, Type (0, 0), BuildingBlock: XIVTED_clean_linker_0, # of connection points: 2
#     Edge 53, Type (0, 0), BuildingBlock: XIVTED_clean_linker_0, # of connection points: 2
#     Edge 54, Type (0, 0), BuildingBlock: XIVTED_clean_linker_0, # of connection points: 2
#     Edge 55, Type (0, 0), BuildingBlock: XIVTED_clean_linker_0, # of connection points: 2
#     Edge 56, Type (0, 0), BuildingBlock: XIVTED_clean_linker_0, # of connection points: 2
#     Edge 57, Type (0, 0), BuildingBlock: XIVTED_clean_linker_0, # of connection points: 2
#     Edge 58, Type (0, 0), BuildingBlock: XIVTED_clean_linker_0, # of connection points: 2
#     Edge 59, Type (0, 0), BuildingBlock: XIVTED_clean_linker_0, # of connection points: 2
#     Edge 60, Type (0, 0), BuildingBlock: XIVTED_clean_linker_0, # of connection points: 2
#     Edge 61, Type (0, 0), BuildingBlock: XIVTED_clean_linker_0, # of connection points: 2
#     Edge 62, Type (0, 0), BuildingBlock: XIVTED_clean_linker_0, # of connection points: 2
#     Edge 63, Type (0, 0), BuildingBlock: XIVTED_clean_linker_0, # of connection points: 2
#     Edge 64, Type (0, 0), BuildingBlock: XIVTED_clean_linker_0, # of connection points: 2
#     Edge 65, Type (0, 0), BuildingBlock: XIVTED_clean_linker_0, # of connection points: 2
#     Edge 66, Type (0, 0), BuildingBlock: XIVTED_clean_linker_0, # of connection points: 2
#     Edge 67, Type (0, 0), BuildingBlock: XIVTED_clean_linker_0, # of connection points: 2
#     Edge 68, Type (0, 0), BuildingBlock: XIVTED_clean_linker_0, # of connection points: 2
#     Edge 69, Type (0, 0), BuildingBlock: XIVTED_clean_linker_0, # of connection points: 2
#     Edge 70, Type (0, 0), BuildingBlock: XIVTED_clean_linker_0, # of connection points: 2
#     Edge 71, Type (0, 0), BuildingBlock: XIVTED_clean_linker_0, # of connection points: 2
#     Edge 72, Type (0, 0), BuildingBlock: XIVTED_clean_linker_0, # of connection points: 2
#     Edge 73, Type (0, 0), BuildingBlock: XIVTED_clean_linker_0, # of connection points: 2
#     Edge 74, Type (0, 0), BuildingBlock: XIVTED_clean_linker_0, # of connection points: 2
#     Edge 75, Type (0, 0), BuildingBlock: XIVTED_clean_linker_0, # of connection points: 2
#     Edge 76, Type (0, 0), BuildingBlock: XIVTED_clean_linker_0, # of connection points: 2
#     Edge 77, Type (0, 0), BuildingBlock: XIVTED_clean_linker_0, # of connection points: 2
#     Edge 78, Type (0, 0), BuildingBlock: XIVTED_clean_linker_0, # of connection points: 2
#     Edge 79, Type (0, 0), BuildingBlock: XIVTED_clean_linker_0, # of connection points: 2
#     Edge 80, Type (0, 0), BuildingBlock: XIVTED_clean_linker_0, # of connection points: 2
#     Edge 81, Type (0, 0), BuildingBlock: XIVTED_clean_linker_0, # of connection points: 2
#     Edge 82, Type (0, 0), BuildingBlock: XIVTED_clean_linker_0, # of connection points: 2
#     Edge 83, Type (0, 0), BuildingBlock: XIVTED_clean_linker_0, # of connection points: 2
#     Edge 84, Type (0, 0), BuildingBlock: XIVTED_clean_linker_0, # of connection points: 2
#     Edge 85, Type (0, 0), BuildingBlock: XIVTED_clean_linker_0, # of connection points: 2
#     Edge 86, Type (0, 0), BuildingBlock: XIVTED_clean_linker_0, # of connection points: 2
#     Edge 87, Type (0, 0), BuildingBlock: XIVTED_clean_linker_0, # of connection points: 2
#     Edge 88, Type (0, 0), BuildingBlock: XIVTED_clean_linker_0, # of connection points: 2
#     Edge 89, Type (0, 0), BuildingBlock: XIVTED_clean_linker_0, # of connection points: 2
#     Edge 90, Type (0, 0), BuildingBlock: XIVTED_clean_linker_0, # of connection points: 2
#     Edge 91, Type (0, 0), BuildingBlock: XIVTED_clean_linker_0, # of connection points: 2
#     Edge 92, Type (0, 0), BuildingBlock: XIVTED_clean_linker_0, # of connection points: 2
#     Edge 93, Type (0, 0), BuildingBlock: XIVTED_clean_linker_0, # of connection points: 2
#     Edge 94, Type (0, 0), BuildingBlock: XIVTED_clean_linker_0, # of connection points: 2
#     Edge 95, Type (0, 0), BuildingBlock: XIVTED_clean_linker_0, # of connection points: 2
# Relax obj value: 0.006
# Max RMSD: 0.183
# Mean RMSD: 0.183
data_MOF--net-ukj--node1-NAWXER_clean_sbu_0--edge1-XIVTED_clean_linker_0
_symmetry_space_group_name_H-M    P1
_symmetry_Int_Tables_number       1
_symmetry_cell_setting            triclinic
loop_
_symmetry_equiv_pos_as_xyz
'x, y, z'
_cell_length_a     35.066033
_cell_length_b     54.634074
_cell_length_c     58.967259
_cell_angle_alpha  89.999301
_cell_angle_beta   89.998172
_cell_angle_gamma 90.005586
loop_
_atom_site_label
_atom_site_type_symbol
_atom_site_fract_x
_atom_site_fract_y
_atom_site_fract_z
_atom_type_partial_charge
C0 C 0.15182 0.35988 0.29049 0.0
C1 C 0.1496 0.35578 0.20815 0.0
O2 O 0.16684 0.33999 0.28313 0.0
Zn3 Zn 0.17887 0.32372 0.25057 0.0
O4 O 0.13954 0.37564 0.27646 0.0
Zn5 Zn 0.15193 0.35805 0.24925 0.0
O6 O 0.11404 0.32658 0.25047 0.0
O7 O 0.15066 0.29375 0.25197 0.0
O8 O 0.13853 0.37313 0.22087 0.0
O9 O 0.16488 0.33669 0.217 0.0
O10 O 0.2336 0.32126 0.25011 0.0
O11 O 0.21333 0.35939 0.24877 0.0
C12 C 0.11757 0.30318 0.2514 0.0
C13 C 0.24092 0.34399 0.24917 0.0
C14 C 0.09948 0.89003 0.28993 0.0
C15 C 0.10374 0.89159 0.20757 0.0
O16 O 0.08447 0.9097 0.28203 0.0
Zn17 Zn 0.07343 0.92505 0.24881 0.0
O18 O 0.11247 0.87409 0.27632 0.0
Zn19 Zn 0.10092 0.89098 0.24867 0.0
O20 O 0.13838 0.92236 0.24966 0.0
O21 O 0.10181 0.95518 0.24942 0.0
O22 O 0.11668 0.87547 0.22102 0.0
O23 O 0.08679 0.91057 0.21553 0.0
O24 O 0.01888 0.9276 0.24809 0.0
O25 O 0.03919 0.88941 0.24738 0.0
C26 C 0.1349 0.94575 0.24974 0.0
C27 C 0.01157 0.90485 0.24735 0.0
C28 C 0.15365 0.89231 0.95804 0.0
C29 C 0.14664 0.89262 0.04033 0.0
O30 O 0.17058 0.91104 0.96648 0.0
Zn31 Zn 0.17943 0.92624 -6e-05 0.0
O32 O 0.13715 0.87714 0.97105 0.0
Zn33 Zn 0.14999 0.8928 -0.00079 0.0
O34 O 0.11427 0.92472 0.99856 0.0
O35 O 0.15207 0.95689 -0.00088 0.0
O36 O 0.13302 0.87707 0.02654 0.0
O37 O 0.16469 0.91137 0.0328 0.0
O38 O 0.2337 0.92802 0.00157 0.0
O39 O 0.21199 0.89008 0.00081 0.0
C40 C 0.11864 0.94801 0.99864 0.0
C41 C 0.24016 0.90515 0.0016 0.0
C42 C 0.134 0.3034 0.99711 0.0
C43 C 0.01021 0.34384 -0.00065 0.0
O44 O 0.1371 0.3268 0.99811 0.0
Zn45 Zn 0.0991 0.35809 -0.00052 0.0
O46 O 0.10107 0.29369 0.99652 0.0
Zn47 Zn 0.07234 0.32354 0.99801 0.0
O48 O 0.08449 0.33992 0.96561 0.0
O49 O 0.11138 0.37574 0.97219 0.0
O50 O 0.0175 0.3211 0.99837 0.0
O51 O 0.03782 0.35923 -0.00015 0.0
O52 O 0.11234 0.37288 0.0281 0.0
O53 O 0.08623 0.33632 0.03154 0.0
C54 C 0.09934 0.35984 0.9582 0.0
C55 C 0.1014 0.35531 0.04062 0.0
C56 C 0.8528 0.64466 0.7901 0.0
C57 C 0.85095 0.64147 0.70769 0.0
O58 O 0.86406 0.62745 0.77727 0.0
Zn59 Zn 0.85076 0.6428 0.74896 0.0
O60 O 0.83747 0.66379 0.78136 0.0
Zn61 Zn 0.8236 0.67709 0.74793 0.0
O62 O 0.76883 0.67939 0.74832 0.0
O63 O 0.78934 0.6413 0.74929 0.0
O64 O 0.83581 0.66123 0.71527 0.0
O65 O 0.86333 0.62556 0.72154 0.0
O66 O 0.88851 0.67436 0.74813 0.0
O67 O 0.85173 0.70712 0.74687 0.0
C68 C 0.76164 0.65664 0.74899 0.0
C69 C 0.88488 0.69776 0.74743 0.0
C70 C 0.86865 0.05299 0.74719 0.0
C71 C 0.99284 0.09295 0.74927 0.0
O72 O 0.90154 0.04326 0.74672 0.0
Zn73 Zn 0.93045 0.07303 0.74789 0.0
O74 O 0.86564 0.07642 0.74791 0.0
Zn75 Zn 0.90404 0.1076 0.7489 0.0
O76 O 0.89217 0.12499 0.72145 0.0
O77 O 0.91893 0.08908 0.71518 0.0
O78 O 0.96543 0.1085 0.7495 0.0
O79 O 0.98524 0.07025 0.74849 0.0
O80 O 0.91652 0.08644 0.78132 0.0
O81 O 0.89078 0.12302 0.77718 0.0
C82 C 0.90431 0.109 0.7076 0.0
C83 C 0.90151 0.10569 0.79004 0.0
C84 C 0.85028 0.1106 0.04006 0.0
C85 C 0.85276 0.10606 0.95757 0.0
O86 O 0.86252 0.12648 0.02611 0.0
Zn87 Zn 0.85028 0.10885 0.99875 0.0
O88 O 0.83534 0.09073 0.0326 0.0
Zn89 Zn 0.82328 0.07443 0.00016 0.0
O90 O 0.8516 0.04452 0.00171 0.0
O91 O 0.88811 0.07741 0.00022 0.0
O92 O 0.83741 0.08712 0.96665 0.0
O93 O 0.86379 0.1236 0.9701 0.0
O94 O 0.78891 0.11016 0.99827 0.0
O95 O 0.76853 0.07205 -0.0003 0.0
C96 C 0.88466 0.05402 0.00122 0.0
C97 C 0.76127 0.09479 0.99872 0.0
C98 C 0.89938 0.64432 0.95779 0.0
C99 C 0.90148 0.63896 0.04014 0.0
O100 O 0.88819 0.62672 0.9702 0.0
Zn101 Zn 0.90161 0.64124 0.99889 0.0
O102 O 0.91473 0.66319 0.967 0.0
Zn103 Zn 0.92872 0.67559 0.00066 0.0
O104 O 0.98352 0.67789 0.00027 0.0
O105 O 0.96294 0.63984 0.99843 0.0
O106 O 0.91654 0.6589 0.03294 0.0
O107 O 0.8892 0.62332 0.02599 0.0
O108 O 0.86389 0.67271 0.00054 0.0
O109 O 0.90045 0.70555 0.00242 0.0
C110 C 0.99065 0.65515 -0.00095 0.0
C111 C 0.86737 0.69608 0.00175 0.0
C112 C 0.11798 0.80466 0.75234 0.0
C113 C 0.24 0.84705 0.74869 0.0
O114 O 0.11378 0.82796 0.75109 0.0
Zn115 Zn 0.15019 0.85983 0.74962 0.0
O116 O 0.15135 0.79568 0.75303 0.0
Zn117 Zn 0.17889 0.82607 0.75082 0.0
O118 O 0.16929 0.84306 0.78336 0.0
O119 O 0.13668 0.87695 0.777 0.0
O120 O 0.23342 0.82421 0.74943 0.0
O121 O 0.2119 0.86214 0.74874 0.0
O122 O 0.13576 0.87458 0.7212 0.0
O123 O 0.16374 0.83865 0.71731 0.0
C124 C 0.15252 0.86232 0.79081 0.0
C125 C 0.14748 0.85741 0.70846 0.0
C126 C 0.10365 0.39372 0.70825 0.0
C127 C 0.10087 0.39048 0.79067 0.0
O128 O 0.08822 0.41282 0.71698 0.0
Zn129 Zn 0.07394 0.4261 0.75033 0.0
O130 O 0.11471 0.37644 0.72107 0.0
Zn131 Zn 0.10108 0.39169 0.74938 0.0
O132 O 0.0398 0.39023 0.74879 0.0
O133 O 0.01904 0.42827 0.74972 0.0
O134 O 0.11331 0.3745 0.77689 0.0
O135 O 0.08585 0.41023 0.78301 0.0
O136 O 0.10238 0.45612 0.7515 0.0
O137 O 0.13878 0.42317 0.75041 0.0
C138 C 0.01201 0.40549 0.74899 0.0
C139 C 0.13542 0.44658 0.7511 0.0
C140 C 0.1501 0.39439 0.54055 0.0
C141 C 0.15139 0.38924 0.4582 0.0
O142 O 0.16508 0.41338 0.53135 0.0
Zn143 Zn 0.17843 0.42599 0.49764 0.0
O144 O 0.13894 0.37679 0.52813 0.0
Zn145 Zn 0.1518 0.3915 0.49944 0.0
O146 O 0.21319 0.39044 0.49965 0.0
O147 O 0.23322 0.4286 0.49782 0.0
O148 O 0.13937 0.37354 0.47238 0.0
O149 O 0.16623 0.40926 0.46537 0.0
O150 O 0.14967 0.45579 0.49607 0.0
O151 O 0.11358 0.42275 0.49804 0.0
C152 C 0.24069 0.4059 0.49895 0.0
C153 C 0.11672 0.44615 0.49687 0.0
C154 C 0.09954 0.86184 0.45804 0.0
C155 C 0.10218 0.85644 0.54051 0.0
O156 O 0.08505 0.84175 0.46529 0.0
Zn157 Zn 0.07357 0.8249 0.49761 0.0
O158 O 0.1117 0.87756 0.47216 0.0
Zn159 Zn 0.09992 0.85947 0.49935 0.0
O160 O 0.13841 0.82833 0.49775 0.0
O161 O 0.10249 0.79521 0.49582 0.0
O162 O 0.11299 0.87413 0.52809 0.0
O163 O 0.08727 0.83743 0.5313 0.0
O164 O 0.01885 0.82202 0.49808 0.0
O165 O 0.03848 0.86027 0.49988 0.0
C166 C 0.13539 0.80492 0.49654 0.0
C167 C 0.01114 0.84468 0.4993 0.0
C168 C 0.85029 0.14086 0.20769 0.0
C169 C 0.85258 0.14415 0.29018 0.0
O170 O 0.86288 0.12495 0.2215 0.0
Zn171 Zn 0.8502 0.14207 0.249 0.0
O172 O 0.8349 0.1605 0.21534 0.0
Zn173 Zn 0.82251 0.17626 0.248 0.0
O174 O 0.85026 0.20649 0.24685 0.0
O175 O 0.88734 0.17385 0.24801 0.0
O176 O 0.83687 0.16313 0.2814 0.0
O177 O 0.86396 0.12693 0.27738 0.0
O178 O 0.7889 0.14019 0.24946 0.0
O179 O 0.76766 0.17811 0.24849 0.0
C180 C 0.88349 0.19723 0.24729 0.0
C181 C 0.76092 0.1553 0.24919 0.0
C182 C 0.902 0.60983 0.20788 0.0
C183 C 0.90049 0.60509 0.29024 0.0
O184 O 0.89001 0.6256 0.22199 0.0
Zn185 Zn 0.90246 0.60781 0.24912 0.0
O186 O 0.9169 0.58986 0.21512 0.0
Zn187 Zn 0.92913 0.57333 0.24749 0.0
O188 O 0.90047 0.54348 0.24601 0.0
O189 O 0.86436 0.57653 0.24778 0.0
O190 O 0.91556 0.58607 0.28114 0.0
O191 O 0.88943 0.62263 0.27772 0.0
O192 O 0.96381 0.60894 0.24939 0.0
O193 O 0.98391 0.57078 0.24775 0.0
C194 C 0.86752 0.55312 0.2467 0.0
C195 C 0.99134 0.59349 0.2488 0.0
C196 C 0.88461 0.55396 0.50092 0.0
C197 C 0.76135 0.59522 0.49879 0.0
O198 O 0.85153 0.54448 0.50141 0.0
Zn199 Zn 0.82322 0.57454 0.50011 0.0
O200 O 0.88807 0.57736 0.5001 0.0
Zn201 Zn 0.85048 0.6089 0.49895 0.0
O202 O 0.86289 0.62627 0.52633 0.0
O203 O 0.83536 0.59061 0.53269 0.0
O204 O 0.78919 0.61044 0.49847 0.0
O205 O 0.76831 0.57244 0.49961 0.0
O206 O 0.83745 0.58759 0.46666 0.0
O207 O 0.86403 0.62397 0.47055 0.0
C208 C 0.85047 0.6104 0.54022 0.0
C209 C 0.8529 0.60663 0.45782 0.0
C210 C 0.9925 0.15761 0.49855 0.0
C211 C 0.86836 0.1976 0.50135 0.0
O212 O 0.98501 0.18031 0.49963 0.0
Zn213 Zn 0.93019 0.17761 0.50026 0.0
O214 O 0.96502 0.14212 0.49817 0.0
Zn215 Zn 0.90368 0.14302 0.49887 0.0
O216 O 0.89027 0.1281 0.47033 0.0
O217 O 0.91611 0.16473 0.46673 0.0
O218 O 0.86538 0.17418 0.50035 0.0
O219 O 0.90124 0.20736 0.50186 0.0
O220 O 0.91874 0.16111 0.53274 0.0
O221 O 0.89196 0.12526 0.5262 0.0
C222 C 0.90102 0.14566 0.45774 0.0
C223 C 0.90416 0.14112 0.54017 0.0
C224 C 0.65173 0.36086 0.78976 0.0
C225 C 0.6499 0.35667 0.70732 0.0
O226 O 0.66679 0.34104 0.78229 0.0
Zn227 Zn 0.6791 0.32483 0.74986 0.0
O228 O 0.63948 0.37674 0.77582 0.0
Zn229 Zn 0.65196 0.35925 0.74846 0.0
O230 O 0.61422 0.3278 0.74966 0.0
O231 O 0.6506 0.29486 0.7512 0.0
O232 O 0.63865 0.37412 0.71988 0.0
O233 O 0.66524 0.33771 0.71636 0.0
O234 O 0.734 0.32265 0.74952 0.0
O235 O 0.71326 0.36068 0.7481 0.0
C236 C 0.61757 0.3044 0.75059 0.0
C237 C 0.74104 0.34542 0.74858 0.0
C238 C 0.60286 0.89427 0.70804 0.0
C239 C 0.59931 0.88935 0.79055 0.0
O240 O 0.58775 0.9133 0.7171 0.0
Zn241 Zn 0.57369 0.92606 0.75069 0.0
O242 O 0.6137 0.8767 0.7206 0.0
Zn243 Zn 0.60026 0.8915 0.74922 0.0
O244 O 0.5389 0.89061 0.74842 0.0
O245 O 0.51888 0.9288 0.75 0.0
O246 O 0.61174 0.87359 0.77655 0.0
O247 O 0.58484 0.90939 0.78314 0.0
O248 O 0.60261 0.95581 0.75242 0.0
O249 O 0.63854 0.92269 0.75082 0.0
C250 C 0.51141 0.9061 0.74883 0.0
C251 C 0.63551 0.9461 0.75189 0.0
C252 C 0.64888 0.89259 0.54012 0.0
C253 C 0.65245 0.88853 0.45756 0.0
O254 O 0.66389 0.91174 0.53122 0.0
Zn255 Zn 0.67798 0.9248 0.49776 0.0
O256 O 0.63824 0.87509 0.52742 0.0
Zn257 Zn 0.65164 0.89019 0.49891 0.0
O258 O 0.71306 0.8894 0.49965 0.0
O259 O 0.73269 0.92768 0.49848 0.0
O260 O 0.64017 0.87257 0.47141 0.0
O261 O 0.66685 0.9085 0.46516 0.0
O262 O 0.64907 0.9545 0.49626 0.0
O263 O 0.61314 0.92135 0.49756 0.0
C264 C 0.7404 0.90501 0.49939 0.0
C265 C 0.61617 0.94477 0.49669 0.0
C266 C 0.60188 0.35685 0.53978 0.0
C267 C 0.59952 0.35979 0.45735 0.0
O268 O 0.58686 0.3376 0.53108 0.0
Zn269 Zn 0.573 0.32409 0.49774 0.0
O270 O 0.61269 0.37416 0.52692 0.0
Zn271 Zn 0.5995 0.35868 0.49863 0.0
O272 O 0.53815 0.35966 0.49909 0.0
O273 O 0.5182 0.32144 0.49825 0.0
O274 O 0.61158 0.37589 0.47113 0.0
O275 O 0.5848 0.33995 0.46503 0.0
O276 O 0.60189 0.29429 0.4967 0.0
O277 O 0.63779 0.32746 0.49777 0.0
C278 C 0.51068 0.34415 0.49889 0.0
C279 C 0.63478 0.30403 0.49713 0.0
C280 C 0.35235 0.64329 0.29003 0.0
C281 C 0.35018 0.63921 0.20769 0.0
O282 O 0.36321 0.62583 0.27737 0.0
Zn283 Zn 0.35003 0.6409 0.24892 0.0
O284 O 0.3373 0.66242 0.28112 0.0
Zn285 Zn 0.32349 0.67545 0.24762 0.0
O286 O 0.2687 0.67808 0.24803 0.0
O287 O 0.28869 0.63988 0.24932 0.0
O288 O 0.33543 0.65915 0.21511 0.0
O289 O 0.36219 0.62329 0.22166 0.0
O290 O 0.38828 0.67212 0.24763 0.0
O291 O 0.35228 0.70524 0.24624 0.0
C292 C 0.26121 0.65537 0.24891 0.0
C293 C 0.3852 0.69554 0.24673 0.0
C294 C 0.36696 0.05359 0.24678 0.0
C295 C 0.49038 0.0946 0.2488 0.0
O296 O 0.39999 0.04405 0.24621 0.0
Zn297 Zn 0.42849 0.07401 0.24753 0.0
O298 O 0.36361 0.07699 0.24771 0.0
Zn299 Zn 0.40129 0.10844 0.24896 0.0
O300 O 0.38883 0.12594 0.22158 0.0
O301 O 0.41617 0.09025 0.21511 0.0
O302 O 0.46257 0.10984 0.24929 0.0
O303 O 0.48338 0.07182 0.24784 0.0
O304 O 0.41478 0.08689 0.28105 0.0
O305 O 0.38809 0.12328 0.27761 0.0
C306 C 0.4011 0.11006 0.20764 0.0
C307 C 0.39948 0.10583 0.29014 0.0
C308 C 0.34894 0.10954 0.54036 0.0
C309 C 0.3542 0.10615 0.45798 0.0
O310 O 0.36464 0.12456 0.52685 0.0
Zn311 Zn 0.35144 0.10792 0.49915 0.0
O312 O 0.33246 0.09035 0.53255 0.0
Zn313 Zn 0.32313 0.0739 0.49982 0.0
O314 O 0.35124 0.04366 0.50158 0.0
O315 O 0.38823 0.07626 0.50021 0.0
O316 O 0.33817 0.08718 0.46659 0.0
O317 O 0.36573 0.1232 0.47092 0.0
O318 O 0.28975 0.10989 0.49826 0.0
O319 O 0.26858 0.07186 0.49837 0.0
C320 C 0.38446 0.05291 0.50109 0.0
C321 C 0.2618 0.09469 0.49797 0.0
C322 C 0.40113 0.64004 0.53992 0.0
C323 C 0.39951 0.64478 0.45761 0.0
O324 O 0.38875 0.62438 0.52581 0.0
Zn325 Zn 0.40145 0.64209 0.49869 0.0
O326 O 0.41635 0.65992 0.53267 0.0
Zn327 Zn 0.42877 0.6764 0.50031 0.0
O328 O 0.40049 0.70646 0.50179 0.0
O329 O 0.3639 0.67363 0.49998 0.0
O330 O 0.41492 0.66371 0.46668 0.0
O331 O 0.38814 0.62734 0.47013 0.0
O332 O 0.46275 0.6405 0.49837 0.0
O333 O 0.48368 0.67847 0.5 0.0
C334 C 0.36739 0.69702 0.50104 0.0
C335 C 0.49061 0.6557 0.49894 0.0
C336 C 0.65327 0.85833 0.28971 0.0
C337 C 0.649 0.85705 0.20729 0.0
O338 O 0.66827 0.83873 0.28167 0.0
Zn339 Zn 0.67933 0.82353 0.24845 0.0
O340 O 0.64025 0.87439 0.27621 0.0
Zn341 Zn 0.65177 0.85764 0.24841 0.0
O342 O 0.61439 0.82624 0.24935 0.0
O343 O 0.65092 0.7934 0.24897 0.0
O344 O 0.63594 0.87315 0.22072 0.0
O345 O 0.66599 0.8381 0.21525 0.0
O346 O 0.73388 0.82105 0.24773 0.0
O347 O 0.7135 0.85922 0.24713 0.0
C348 C 0.61785 0.80285 0.24935 0.0
C349 C 0.74115 0.8438 0.24706 0.0
C350 C 0.59963 0.3899 0.28971 0.0
C351 C 0.602 0.39347 0.20728 0.0
O352 O 0.5849 0.40978 0.28213 0.0
Zn353 Zn 0.57307 0.42586 0.24954 0.0
O354 O 0.61172 0.37388 0.27586 0.0
Zn355 Zn 0.59963 0.3913 0.24843 0.0
O356 O 0.63785 0.42255 0.24953 0.0
O357 O 0.60183 0.45567 0.25079 0.0
O358 O 0.61284 0.37607 0.22002 0.0
O359 O 0.58694 0.41264 0.21612 0.0
O360 O 0.51831 0.42851 0.24908 0.0
O361 O 0.53828 0.39029 0.248 0.0
C362 C 0.63475 0.44597 0.25032 0.0
C363 C 0.51081 0.40579 0.24832 0.0
C364 C 0.64985 0.3953 0.03973 0.0
C365 C 0.65195 0.39155 0.95729 0.0
O366 O 0.66516 0.41435 0.03081 0.0
Zn367 Zn 0.67911 0.42743 0.99737 0.0
O368 O 0.63869 0.37792 0.02705 0.0
Zn369 Zn 0.65208 0.39299 0.99858 0.0
O370 O 0.7134 0.39164 -0.00096 0.0
O371 O 0.73392 0.42973 0.99781 0.0
O372 O 0.63972 0.37561 0.97117 0.0
O373 O 0.66697 0.41136 0.96482 0.0
O374 O 0.65068 0.45738 0.99612 0.0
O375 O 0.61431 0.42442 0.99746 0.0
C376 C 0.74109 0.40698 0.99868 0.0
C377 C 0.61766 0.44783 0.99664 0.0
C378 C 0.6016 0.8557 0.04046 0.0
C379 C 0.59769 0.85707 0.95807 0.0
O380 O 0.58456 0.83675 0.03251 0.0
Zn381 Zn 0.57128 0.8222 -0.00077 0.0
O382 O 0.61478 0.87173 0.027 0.0
Zn383 Zn 0.59905 0.85618 -0.00064 0.0
O384 O 0.53732 0.85789 0.00062 0.0
O385 O 0.51673 0.81976 -0.00012 0.0
O386 O 0.6108 0.87299 0.97167 0.0
O387 O 0.58251 0.83747 0.966 0.0
O388 O 0.59936 0.792 0.99872 0.0
O389 O 0.63626 0.82467 0.99853 0.0
C390 C 0.5096 0.84252 0.00063 0.0
C391 C 0.63253 0.8013 0.99848 0.0
C392 C 0.26274 0.15495 0.74944 0.0
C393 C 0.38577 0.1963 0.7464 0.0
O394 O 0.26973 0.17775 0.74886 0.0
Zn395 Zn 0.32429 0.17551 0.74764 0.0
O396 O 0.29056 0.13965 0.74937 0.0
Zn397 Zn 0.35228 0.14143 0.74869 0.0
O398 O 0.36622 0.12637 0.77706 0.0
O399 O 0.33896 0.16252 0.78105 0.0
O400 O 0.38937 0.17295 0.74749 0.0
O401 O 0.35263 0.20564 0.74574 0.0
O402 O 0.33395 0.15876 0.71506 0.0
O403 O 0.3657 0.12448 0.72121 0.0
C404 C 0.35477 0.14358 0.78984 0.0
C405 C 0.3504 0.13944 0.70749 0.0
C406 C 0.4014 0.60596 0.78988 0.0
C407 C 0.40247 0.61065 0.70757 0.0
O408 O 0.39028 0.62347 0.77736 0.0
Zn409 Zn 0.40312 0.6086 0.74879 0.0
O410 O 0.41638 0.5869 0.78079 0.0
Zn411 Zn 0.42972 0.5741 0.74712 0.0
O412 O 0.48455 0.5715 0.74728 0.0
O413 O 0.46448 0.60967 0.74898 0.0
O414 O 0.41736 0.59066 0.71477 0.0
O415 O 0.39058 0.62642 0.72173 0.0
O416 O 0.3649 0.57736 0.74757 0.0
O417 O 0.40092 0.54428 0.74572 0.0
C418 C 0.492 0.59421 0.74834 0.0
C419 C 0.36799 0.55395 0.74651 0.0
C420 C 0.35097 0.61198 0.03972 0.0
C421 C 0.35358 0.60794 0.95738 0.0
O422 O 0.36326 0.62785 0.02579 0.0
Zn423 Zn 0.35103 0.61034 0.99849 0.0
O424 O 0.33604 0.59211 0.03225 0.0
Zn425 Zn 0.32411 0.57589 -0.00027 0.0
O426 O 0.35259 0.54597 0.00113 0.0
O427 O 0.38891 0.57895 -0.00024 0.0
O428 O 0.33829 0.58887 0.96626 0.0
O429 O 0.3645 0.62537 0.97007 0.0
O430 O 0.28973 0.61161 0.99799 0.0
O431 O 0.2693 0.5735 -0.0008 0.0
C432 C 0.3856 0.55554 0.00064 0.0
C433 C 0.26208 0.59624 0.99833 0.0
C434 C 0.40236 0.14086 0.04009 0.0
C435 C 0.40087 0.14497 0.95761 0.0
O436 O 0.3905 0.12488 0.02613 0.0
Zn437 Zn 0.40281 0.14243 0.99878 0.0
O438 O 0.41714 0.16078 0.03265 0.0
Zn439 Zn 0.42933 0.17704 0.0002 0.0
O440 O 0.40042 0.20681 0.00148 0.0
O441 O 0.36457 0.17362 -7e-05 0.0
O442 O 0.41583 0.16405 0.96666 0.0
O443 O 0.38988 0.12744 0.97017 0.0
O444 O 0.46413 0.14148 0.99849 0.0
O445 O 0.48413 0.17968 -8e-05 0.0
C446 C 0.36755 0.19704 0.00085 0.0
C447 C 0.49161 0.15697 -0.00102 0.0
H448 H 0.13183 0.39586 0.18204 0.0
H449 H 0.09736 0.31716 0.07026 0.0
H450 H 0.15322 0.31817 0.17786 0.0
H451 H 0.11958 0.39483 0.06743 0.0
H452 H 0.10952 0.31786 0.11095 0.0
H453 H 0.11989 0.3965 0.14102 0.0
C454 C 0.13408 0.37898 0.17251 0.0
C455 C 0.14355 0.35692 0.18337 0.0
C456 C 0.11175 0.33476 0.10144 0.0
C457 C 0.12952 0.35752 0.1367 0.0
C458 C 0.1046 0.33442 0.07822 0.0
C459 C 0.10751 0.35598 0.06541 0.0
C460 C 0.12142 0.35687 0.11207 0.0
C461 C 0.11718 0.37778 0.07666 0.0
C462 C 0.12737 0.37938 0.14914 0.0
C463 C 0.14616 0.3356 0.1702 0.0
N464 N 0.12365 0.3777 0.09942 0.0
N465 N 0.13891 0.3364 0.14761 0.0
H466 H 0.08308 0.8755 0.06173 0.0
H467 H 0.16604 0.8733 0.18579 0.0
H468 H 0.19588 0.90375 0.07459 0.0
H469 H 0.05508 0.90469 0.17357 0.0
H470 H 0.17705 0.87194 0.1446 0.0
H471 H 0.07179 0.8737 0.1029 0.0
C472 C 0.10558 0.88099 0.07324 0.0
C473 C 0.14042 0.88982 0.0649 0.0
C474 C 0.15024 0.87892 0.15105 0.0
C475 C 0.12801 0.88731 0.11155 0.0
C476 C 0.14386 0.87958 0.17441 0.0
C477 C 0.10965 0.88916 0.18295 0.0
C478 C 0.12172 0.88715 0.13624 0.0
C479 C 0.08189 0.89729 0.16757 0.0
C480 C 0.09905 0.88009 0.09659 0.0
C481 C 0.1686 0.89694 0.08044 0.0
N482 N 0.08837 0.8959 0.14486 0.0
N483 N 0.16192 0.89532 0.1031 0.0
H484 H 0.8708 0.60447 0.81604 0.0
H485 H 0.90352 0.68264 0.92834 0.0
H486 H 0.84861 0.68205 0.82059 0.0
H487 H 0.88157 0.60492 0.93076 0.0
H488 H 0.89184 0.68211 0.8876 0.0
H489 H 0.88235 0.60363 0.85711 0.0
C490 C 0.86829 0.62129 0.82566 0.0
C491 C 0.8587 0.64337 0.81489 0.0
C492 C 0.88956 0.66516 0.89703 0.0
C493 C 0.8723 0.64254 0.86161 0.0
C494 C 0.89643 0.66541 0.92029 0.0
C495 C 0.89346 0.64378 0.93298 0.0
C496 C 0.88012 0.64308 0.88626 0.0
C497 C 0.88401 0.62202 0.92161 0.0
C498 C 0.87478 0.62076 0.84906 0.0
C499 C 0.85578 0.6646 0.82817 0.0
N500 N 0.87781 0.62219 0.89882 0.0
N501 N 0.86281 0.66369 0.85078 0.0
H502 H 0.8483 0.06789 0.92798 0.0
H503 H 0.88405 0.14601 0.81596 0.0
H504 H 0.8715 0.14546 0.93069 0.0
H505 H 0.90456 0.06825 0.82052 0.0
H506 H 0.87196 0.14691 0.85698 0.0
H507 H 0.86053 0.06845 0.8873 0.0
C508 C 0.85578 0.0851 0.92 0.0
C509 C 0.85894 0.10667 0.93277 0.0
C510 C 0.87928 0.12972 0.84893 0.0
C511 C 0.87294 0.10739 0.8861 0.0
C512 C 0.88608 0.12917 0.82557 0.0
C513 C 0.89535 0.10702 0.81481 0.0
C514 C 0.88114 0.10791 0.86148 0.0
C515 C 0.89766 0.08575 0.82808 0.0
C516 C 0.86297 0.08536 0.89678 0.0
C517 C 0.86889 0.12839 0.92148 0.0
N518 N 0.89033 0.0867 0.85066 0.0
N519 N 0.87541 0.12824 0.89872 0.0
H520 H 0.12852 0.8972 0.68224 0.0
H521 H 0.09864 0.81817 0.57008 0.0
H522 H 0.15218 0.81978 0.67823 0.0
H523 H 0.1189 0.89607 0.56753 0.0
H524 H 0.10979 0.81895 0.6109 0.0
H525 H 0.11721 0.89767 0.64114 0.0
C526 C 0.13136 0.88033 0.67273 0.0
C527 C 0.14136 0.85842 0.68366 0.0
C528 C 0.11181 0.83588 0.60142 0.0
C529 C 0.12805 0.85881 0.63689 0.0
C530 C 0.10526 0.83549 0.57812 0.0
C531 C 0.1079 0.8571 0.56536 0.0
C532 C 0.12059 0.85809 0.61217 0.0
C533 C 0.11673 0.87898 0.57672 0.0
C534 C 0.12502 0.88064 0.64932 0.0
C535 C 0.14471 0.83711 0.67052 0.0
N536 N 0.12262 0.87894 0.59954 0.0
N537 N 0.13782 0.83781 0.64788 0.0
H538 H 0.15489 0.43248 0.57024 0.0
H539 H 0.12169 0.35363 0.68215 0.0
H540 H 0.13249 0.35482 0.56742 0.0
H541 H 0.10013 0.43131 0.67798 0.0
H542 H 0.13354 0.35302 0.6411 0.0
H543 H 0.14357 0.43168 0.61102 0.0
C544 C 0.14778 0.4152 0.57821 0.0
C545 C 0.14455 0.39368 0.56539 0.0
C546 C 0.12606 0.37013 0.64924 0.0
C547 C 0.13162 0.39267 0.61215 0.0
C548 C 0.1194 0.37052 0.67262 0.0
C549 C 0.10985 0.39255 0.68348 0.0
C550 C 0.1238 0.392 0.6368 0.0
C551 C 0.10723 0.41389 0.67032 0.0
C552 C 0.14112 0.4148 0.60149 0.0
C553 C 0.13511 0.37185 0.57667 0.0
N554 N 0.11441 0.4131 0.64773 0.0
N555 N 0.1291 0.37187 0.59947 0.0
H556 H 0.87148 0.10426 0.31635 0.0
H557 H 0.90438 0.18368 0.42791 0.0
H558 H 0.84822 0.18174 0.32042 0.0
H559 H 0.88352 0.10587 0.43109 0.0
H560 H 0.8923 0.18266 0.38721 0.0
H561 H 0.88355 0.10384 0.35738 0.0
C562 C 0.86885 0.12114 0.32585 0.0
C563 C 0.85879 0.14307 0.31496 0.0
C564 C 0.89035 0.1658 0.39681 0.0
C565 C 0.87299 0.14274 0.36163 0.0
C566 C 0.89745 0.16633 0.42003 0.0
C567 C 0.8949 0.14482 0.43294 0.0
C568 C 0.8811 0.14356 0.38626 0.0
C569 C 0.88563 0.12289 0.42178 0.0
C570 C 0.87564 0.12086 0.34923 0.0
C571 C 0.85573 0.16439 0.3281 0.0
N572 N 0.87921 0.12278 0.39901 0.0
N573 N 0.86306 0.16372 0.35068 0.0
H574 H 0.90494 0.56712 0.32009 0.0
H575 H 0.871 0.64655 0.43155 0.0
H576 H 0.88267 0.64477 0.3169 0.0
H577 H 0.84937 0.56886 0.42773 0.0
H578 H 0.88304 0.64693 0.39052 0.0
H579 H 0.89321 0.56811 0.36083 0.0
C580 C 0.89778 0.58443 0.32797 0.0
C581 C 0.89471 0.60591 0.31505 0.0
C582 C 0.8755 0.62987 0.39873 0.0
C583 C 0.8813 0.60712 0.36176 0.0
C584 C 0.86872 0.62961 0.4221 0.0
C585 C 0.85912 0.60764 0.43305 0.0
C586 C 0.87329 0.60793 0.38639 0.0
C587 C 0.85651 0.58624 0.41999 0.0
C588 C 0.89088 0.58494 0.35122 0.0
C589 C 0.88518 0.62778 0.32622 0.0
N590 N 0.86382 0.58689 0.3974 0.0
N591 N 0.87894 0.62786 0.349 0.0
H592 H 0.6194 0.39713 0.56575 0.0
H593 H 0.65485 0.31867 0.67758 0.0
H594 H 0.59872 0.31937 0.57018 0.0
H595 H 0.63124 0.39617 0.68056 0.0
H596 H 0.64291 0.31941 0.63688 0.0
H597 H 0.63143 0.39793 0.60679 0.0
C598 C 0.61732 0.38027 0.57534 0.0
C599 C 0.60801 0.35815 0.56455 0.0
C600 C 0.64032 0.33626 0.64643 0.0
C601 C 0.62216 0.35893 0.61121 0.0
C602 C 0.64734 0.3359 0.66966 0.0
C603 C 0.64397 0.3574 0.68251 0.0
C604 C 0.6303 0.35833 0.63583 0.0
C605 C 0.634 0.37916 0.67129 0.0
C606 C 0.62409 0.38077 0.59871 0.0
C607 C 0.60564 0.33686 0.57778 0.0
N608 N 0.62763 0.37911 0.64852 0.0
N609 N 0.61293 0.33775 0.60035 0.0
H610 H 0.59867 0.93225 0.67817 0.0
H611 H 0.63136 0.85264 0.56658 0.0
H612 H 0.62053 0.85455 0.68132 0.0
H613 H 0.65215 0.93043 0.57017 0.0
H614 H 0.6199 0.85229 0.60768 0.0
H615 H 0.61001 0.93122 0.6374 0.0
C616 C 0.60569 0.91492 0.67028 0.0
C617 C 0.60872 0.89345 0.6832 0.0
C618 C 0.62711 0.86937 0.5994 0.0
C619 C 0.62166 0.89217 0.63641 0.0
C620 C 0.63356 0.8696 0.57598 0.0
C621 C 0.64278 0.89159 0.56493 0.0
C622 C 0.62928 0.89134 0.6117 0.0
C623 C 0.64529 0.91303 0.57796 0.0
C624 C 0.61235 0.91439 0.64699 0.0
C625 C 0.61805 0.87155 0.672 0.0
N626 N 0.63834 0.91239 0.60059 0.0
N627 N 0.62406 0.87144 0.64919 0.0
H628 H 0.36994 0.60334 0.31636 0.0
H629 H 0.40417 0.68274 0.42778 0.0
H630 H 0.34893 0.6811 0.32009 0.0
H631 H 0.38139 0.60515 0.43098 0.0
H632 H 0.39243 0.68178 0.38703 0.0
H633 H 0.38178 0.60296 0.3574 0.0
C634 C 0.36775 0.62029 0.3258 0.0
C635 C 0.3584 0.64228 0.31481 0.0
C636 C 0.38999 0.66496 0.39665 0.0
C637 C 0.37233 0.64199 0.36148 0.0
C638 C 0.3969 0.66545 0.41989 0.0
C639 C 0.39369 0.64399 0.43281 0.0
C640 C 0.38028 0.6428 0.38611 0.0
C641 C 0.38401 0.62214 0.42165 0.0
C642 C 0.37442 0.62004 0.34917 0.0
C643 C 0.35589 0.66371 0.32785 0.0
N644 N 0.37777 0.62206 0.39888 0.0
N645 N 0.36308 0.66305 0.35044 0.0
H646 H 0.37282 0.14628 0.43205 0.0
H647 H 0.40432 0.06779 0.31982 0.0
H648 H 0.34991 0.06878 0.42753 0.0
H649 H 0.38184 0.14544 0.31704 0.0
H650 H 0.39331 0.06858 0.36061 0.0
H651 H 0.38422 0.14707 0.39093 0.0
C652 C 0.37016 0.12947 0.42243 0.0
C653 C 0.36036 0.10743 0.43321 0.0
C654 C 0.39077 0.08546 0.35109 0.0
C655 C 0.37377 0.10819 0.38647 0.0
C656 C 0.39725 0.08506 0.3278 0.0
C657 C 0.39392 0.10659 0.31498 0.0
C658 C 0.38135 0.10758 0.36178 0.0
C659 C 0.38453 0.12841 0.32629 0.0
C660 C 0.37655 0.12997 0.39901 0.0
C661 C 0.35723 0.08621 0.41994 0.0
N662 N 0.37871 0.12838 0.34912 0.0
N663 N 0.36417 0.08709 0.39733 0.0
H664 H 0.69876 0.84519 0.17353 0.0
H665 H 0.5528 0.84241 0.07433 0.0
H666 H 0.58577 0.87366 0.18527 0.0
H667 H 0.66356 0.87426 0.06243 0.0
H668 H 0.56428 0.84517 0.11542 0.0
H669 H 0.68705 0.84721 0.13243 0.0
C670 C 0.67159 0.85193 0.16741 0.0
C671 C 0.64321 0.8594 0.18265 0.0
C672 C 0.58586 0.85166 0.10373 0.0
C673 C 0.62941 0.86102 0.13611 0.0
C674 C 0.57944 0.85002 0.08041 0.0
C675 C 0.60726 0.85823 0.06511 0.0
C676 C 0.6208 0.86076 0.11165 0.0
C677 C 0.64133 0.86794 0.07375 0.0
C678 C 0.66503 0.85314 0.14408 0.0
C679 C 0.60844 0.86796 0.17397 0.0
N680 N 0.64746 0.86858 0.09652 0.0
N681 N 0.60221 0.86817 0.1512 0.0
H682 H 0.65446 0.43307 0.06974 0.0
H683 H 0.61977 0.35347 0.18098 0.0
H684 H 0.63149 0.35552 0.06618 0.0
H685 H 0.59858 0.43121 0.17718 0.0
H686 H 0.63174 0.35309 0.13993 0.0
H687 H 0.64258 0.43193 0.11044 0.0
C688 C 0.64711 0.41575 0.07754 0.0
C689 C 0.6439 0.39435 0.06453 0.0
C690 C 0.6243 0.37016 0.14815 0.0
C691 C 0.6303 0.39296 0.11121 0.0
C692 C 0.61757 0.37042 0.17153 0.0
C693 C 0.60813 0.39241 0.1825 0.0
C694 C 0.62221 0.39211 0.13583 0.0
C695 C 0.6056 0.41382 0.16944 0.0
C696 C 0.64012 0.41515 0.10077 0.0
C697 C 0.63412 0.37245 0.07558 0.0
N698 N 0.61287 0.41315 0.14686 0.0
N699 N 0.62779 0.37228 0.09836 0.0
H700 H 0.37344 0.10368 0.81603 0.0
H701 H 0.40491 0.18296 0.92781 0.0
H702 H 0.35032 0.18118 0.82007 0.0
H703 H 0.38365 0.10519 0.93087 0.0
H704 H 0.39355 0.18197 0.88705 0.0
H705 H 0.385 0.10321 0.85712 0.0
C706 C 0.37076 0.12056 0.82554 0.0
C707 C 0.36087 0.1425 0.81463 0.0
C708 C 0.39136 0.16511 0.89663 0.0
C709 C 0.37446 0.14211 0.86136 0.0
C710 C 0.39805 0.16562 0.91989 0.0
C711 C 0.39517 0.14411 0.93278 0.0
C712 C 0.38218 0.14289 0.88603 0.0
C713 C 0.38601 0.1222 0.92157 0.0
C714 C 0.37724 0.12024 0.84894 0.0
C715 C 0.35771 0.16382 0.82776 0.0
N716 N 0.37997 0.12212 0.89876 0.0
N717 N 0.36474 0.16311 0.85038 0.0
H718 H 0.40615 0.56809 0.81982 0.0
H719 H 0.37154 0.64782 0.93103 0.0
H720 H 0.38356 0.64569 0.81644 0.0
H721 H 0.35043 0.57006 0.92741 0.0
H722 H 0.38377 0.64808 0.89002 0.0
H723 H 0.39445 0.56918 0.86056 0.0
C724 C 0.39893 0.58541 0.82766 0.0
C725 C 0.39574 0.60684 0.8147 0.0
C726 C 0.37631 0.63103 0.89827 0.0
C727 C 0.38237 0.60818 0.86139 0.0
C728 C 0.36942 0.63085 0.92163 0.0
C729 C 0.3599 0.60889 0.93263 0.0
C730 C 0.37429 0.60904 0.886 0.0
C731 C 0.3575 0.58743 0.91963 0.0
C732 C 0.39205 0.58598 0.85091 0.0
C733 C 0.38616 0.62873 0.8258 0.0
N734 N 0.3649 0.58802 0.89706 0.0
N735 N 0.37992 0.62887 0.84858 0.0
H736 H 0.88632 0.24741 0.24623 0.0
H737 H 0.11441 0.25307 0.25278 0.0
H738 H 0.95853 0.18347 0.24898 0.0
H739 H 0.04255 0.31716 0.24957 0.0
H740 H 0.05753 0.22732 0.25163 0.0
H741 H 0.94313 0.27329 0.24744 0.0
C742 C 0.9141 0.23879 0.24704 0.0
C743 C 0.91761 0.2132 0.2475 0.0
C744 C 0.05419 0.24701 0.2512 0.0
C745 C 0.98282 0.24276 0.24896 0.0
C746 C 0.08668 0.26175 0.25188 0.0
C747 C 0.0833 0.28734 0.25127 0.0
C748 C 0.01796 0.2579 0.24989 0.0
C749 C 0.04657 0.29752 0.25009 0.0
C750 C 0.94654 0.2536 0.24776 0.0
C751 C 0.95439 0.2031 0.24858 0.0
N752 N 0.01536 0.28278 0.24942 0.0
N753 N 0.98552 0.21789 0.24929 0.0
H754 H 0.20969 0.93139 0.24975 0.0
H755 H 0.2922 0.06807 0.24762 0.0
H756 H 0.13866 0.99594 0.2496 0.0
H757 H 0.36301 0.00343 0.24627 0.0
H758 H 0.23568 0.04199 0.24855 0.0
H759 H 0.26613 0.95751 0.2489 0.0
C760 C 0.20592 0.95106 0.24958 0.0
C761 C 0.16931 0.96147 0.24974 0.0
C762 C 0.26357 0.0335 0.24802 0.0
C763 C 0.23398 0.99153 0.24871 0.0
C764 C 0.2959 0.04839 0.24747 0.0
C765 C 0.33248 0.03794 0.24686 0.0
C766 C 0.26774 0.00793 0.24799 0.0
C767 C 0.33542 0.01231 0.24672 0.0
C768 C 0.23821 0.96598 0.24907 0.0
C769 C 0.16628 0.98709 0.24949 0.0
N770 N 0.3035 0.9982 0.2473 0.0
N771 N 0.19818 0.00124 0.24897 0.0
H772 H 0.11634 0.9983 0.99871 0.0
H773 H 0.88801 0.00393 0.00229 0.0
H774 H 0.04357 0.93453 0.99874 0.0
H775 H 0.95967 0.06817 0.00017 0.0
H776 H 0.94498 0.9783 0.00153 0.0
H777 H 0.05955 0.02432 -0.00046 0.0
C778 C 0.08847 0.98976 0.99885 0.0
C779 C 0.08476 0.96418 0.99865 0.0
C780 C 0.94828 0.998 0.00124 0.0
C781 C 0.01966 0.99385 -0.00032 0.0
C782 C 0.91572 0.01267 0.00171 0.0
C783 C 0.91901 0.03826 0.00129 0.0
C784 C 0.9845 0.00896 0.00036 0.0
C785 C 0.95573 0.04852 0.00052 0.0
C786 C 0.05605 0.00463 -0.00066 0.0
C787 C 0.04788 0.95415 0.99886 0.0
N788 N 0.98703 0.03384 7e-05 0.0
N789 N 0.01683 0.969 -0.00061 0.0
H790 H 0.29305 0.1821 -0.00082 0.0
H791 H 0.20851 0.31826 0.99864 0.0
H792 H 0.36284 0.24715 0.00196 0.0
H793 H 0.13859 0.25326 0.99592 0.0
H794 H 0.26532 0.29249 -0.0003 0.0
H795 H 0.23618 0.20783 0.99804 0.0
C796 C 0.29646 0.2018 -0.0004 0.0
C797 C 0.33284 0.21247 0.00067 0.0
C798 C 0.23757 0.28385 0.99884 0.0
C799 C 0.26771 0.24208 -0.0007 0.0
C800 C 0.20506 0.29856 0.99821 0.0
C801 C 0.16865 0.28792 0.99719 0.0
C802 C 0.23374 0.25827 0.99846 0.0
C803 C 0.16604 0.26228 0.99669 0.0
C804 C 0.26392 0.21649 0.99892 0.0
C805 C 0.33541 0.23811 0.00115 0.0
N806 N 0.19814 0.24834 0.99736 0.0
N807 N 0.3033 0.25202 0.00044 0.0
H808 H 0.88774 0.74788 0.74637 0.0
H809 H 0.11575 0.75443 0.7538 0.0
H810 H 0.96001 0.68399 0.74952 0.0
H811 H 0.04281 0.818 0.75055 0.0
H812 H 0.0592 0.72826 0.75252 0.0
H813 H 0.94439 0.77379 0.74789 0.0
C814 C 0.91551 0.73927 0.74733 0.0
C815 C 0.91907 0.71368 0.74781 0.0
C816 C 0.05558 0.74794 0.75212 0.0
C817 C 0.98419 0.74332 0.74963 0.0
C818 C 0.08787 0.7629 0.75288 0.0
C819 C 0.08407 0.78848 0.75228 0.0
C820 C 0.01919 0.7586 0.75073 0.0
C821 C 0.04718 0.7984 0.75106 0.0
C822 C 0.94789 0.7541 0.74823 0.0
C823 C 0.95586 0.70361 0.74909 0.0
N824 N 0.01623 0.78345 0.7503 0.0
N825 N 0.98697 0.71845 0.74997 0.0
H826 H 0.71015 0.93135 0.75046 0.0
H827 H 0.79402 0.06776 0.74877 0.0
H828 H 0.63996 0.99623 0.75295 0.0
H829 H 0.86417 0.00286 0.74651 0.0
H830 H 0.73729 0.04188 0.75023 0.0
H831 H 0.76686 0.95725 0.7492 0.0
C832 C 0.70662 0.95105 0.75081 0.0
C833 C 0.67016 0.96161 0.75181 0.0
C834 C 0.76509 0.03329 0.74939 0.0
C835 C 0.73513 0.99142 0.75029 0.0
C836 C 0.79753 0.04806 0.74853 0.0
C837 C 0.83399 0.03749 0.74751 0.0
C838 C 0.76902 0.0077 0.74926 0.0
C839 C 0.83669 0.01184 0.74727 0.0
C840 C 0.73907 0.96583 0.75006 0.0
C841 C 0.66745 0.98726 0.7522 0.0
N842 N 0.80466 0.99784 0.74816 0.0
N843 N 0.69948 0.00126 0.7514 0.0
H844 H 0.63566 0.75111 0.99816 0.0
H845 H 0.86392 0.7462 0.00319 0.0
H846 H 0.70748 0.8153 -0.0007 0.0
H847 H 0.79246 0.68191 0.0003 0.0
H848 H 0.80684 0.77179 0.00231 0.0
H849 H 0.69269 0.72542 -0.00077 0.0
C850 C 0.6634 0.75982 0.99859 0.0
C851 C 0.66675 0.78542 0.99863 0.0
C852 C 0.80363 0.75208 0.00189 0.0
C853 C 0.7322 0.75609 -7e-05 0.0
C854 C 0.83624 0.73744 0.00242 0.0
C855 C 0.83303 0.71184 0.00181 0.0
C856 C 0.76746 0.74108 0.00073 0.0
C857 C 0.79636 0.70156 0.0008 0.0
C858 C 0.69597 0.74513 -0.00078 0.0
C859 C 0.70348 0.79566 -0.00078 0.0
N860 N 0.76504 0.7162 0.00028 0.0
N861 N 0.73473 0.78097 -0.00013 0.0
H862 H 0.29333 0.56862 0.74828 0.0
H863 H 0.21012 0.43207 0.74973 0.0
H864 H 0.36367 0.50383 0.74547 0.0
H865 H 0.13947 0.49676 0.75179 0.0
H866 H 0.26665 0.45809 0.74843 0.0
H867 H 0.23668 0.54265 0.74961 0.0
C868 C 0.2969 0.54893 0.74789 0.0
C869 C 0.33339 0.5384 0.74676 0.0
C870 C 0.2388 0.46661 0.74919 0.0
C871 C 0.26851 0.50853 0.74834 0.0
C872 C 0.20645 0.45175 0.74996 0.0
C873 C 0.16992 0.46222 0.75087 0.0
C874 C 0.23469 0.49219 0.74932 0.0
C875 C 0.16703 0.48786 0.75111 0.0
C876 C 0.2645 0.5341 0.74867 0.0
C877 C 0.33617 0.51277 0.74632 0.0
N878 N 0.19897 0.50195 0.75032 0.0
N879 N 0.30419 0.49873 0.74714 0.0
H880 H 0.95938 0.56831 0.49931 0.0
H881 H 0.04199 0.4316 0.49876 0.0
H882 H 0.88842 0.50378 0.50195 0.0
H883 H 0.11258 0.49626 0.49546 0.0
H884 H 0.98544 0.45767 0.49993 0.0
H885 H 0.01577 0.54217 0.49811 0.0
C886 C 0.95562 0.54864 0.49969 0.0
C887 C 0.91904 0.53825 0.50073 0.0
C888 C 0.01329 0.46616 0.49892 0.0
C889 C 0.98366 0.50815 0.4993 0.0
C890 C 0.04563 0.45128 0.49823 0.0
C891 C 0.08216 0.46174 0.49701 0.0
C892 C 0.0174 0.49173 0.49841 0.0
C893 C 0.08504 0.48737 0.49639 0.0
C894 C 0.98788 0.53371 0.49898 0.0
C895 C 0.91602 0.51262 0.50116 0.0
N896 N 0.05312 0.50146 0.49712 0.0
N897 N 0.94789 0.49846 0.50042 0.0
H898 H 0.29263 0.68275 0.49898 0.0
H899 H 0.21013 0.8195 0.49866 0.0
H900 H 0.36366 0.7472 0.50238 0.0
H901 H 0.13962 0.75484 0.49487 0.0
H902 H 0.2667 0.79343 0.49992 0.0
H903 H 0.23632 0.70894 0.49762 0.0
C904 C 0.29642 0.70242 0.4995 0.0
C905 C 0.33301 0.71277 0.5008 0.0
C906 C 0.23886 0.78494 0.49878 0.0
C907 C 0.26846 0.74294 0.49917 0.0
C908 C 0.20651 0.79983 0.49803 0.0
C909 C 0.17 0.78937 0.49666 0.0
C910 C 0.23475 0.75937 0.49818 0.0
C911 C 0.16714 0.76374 0.49592 0.0
C912 C 0.2642 0.71738 0.49868 0.0
C913 C 0.33606 0.7384 0.50139 0.0
N914 N 0.19906 0.74965 0.49672 0.0
N915 N 0.30423 0.75259 0.50055 0.0
H916 H 0.79288 0.56776 0.24839 0.0
H917 H 0.70939 0.43128 0.24876 0.0
H918 H 0.86326 0.50299 0.2454 0.0
H919 H 0.63907 0.49609 0.2514 0.0
H920 H 0.76606 0.45723 0.24767 0.0
H921 H 0.73625 0.5418 0.24944 0.0
C922 C 0.79646 0.54808 0.24791 0.0
C923 C 0.83295 0.53756 0.24681 0.0
C924 C 0.73825 0.46578 0.24851 0.0
C925 C 0.76809 0.50768 0.24807 0.0
C926 C 0.70583 0.45097 0.24916 0.0
C927 C 0.66935 0.46151 0.25017 0.0
C928 C 0.73425 0.49136 0.24887 0.0
C929 C 0.66658 0.48714 0.25063 0.0
C930 C 0.76407 0.53325 0.24853 0.0
C931 C 0.83574 0.51192 0.24624 0.0
N932 N 0.69857 0.50117 0.24996 0.0
N933 N 0.80376 0.49788 0.2469 0.0
H934 H 0.70933 0.31892 0.49854 0.0
H935 H 0.7938 0.1827 0.50006 0.0
H936 H 0.6394 0.2539 0.49655 0.0
H937 H 0.86369 0.24772 0.50235 0.0
H938 H 0.73695 0.20846 0.49893 0.0
H939 H 0.76616 0.29314 0.49987 0.0
C940 C 0.70589 0.29921 0.49834 0.0
C941 C 0.66947 0.28857 0.49743 0.0
C942 C 0.76471 0.21711 0.49971 0.0
C943 C 0.73456 0.25891 0.49901 0.0
C944 C 0.79723 0.2024 0.50038 0.0
C945 C 0.83365 0.21304 0.50129 0.0
C946 C 0.76853 0.2427 0.49993 0.0
C947 C 0.83624 0.23869 0.50166 0.0
C948 C 0.73839 0.2845 0.49912 0.0
C949 C 0.66686 0.26292 0.49723 0.0
N950 N 0.80414 0.25263 0.50095 0.0
N951 N 0.69895 0.24898 0.49802 0.0
H952 H 0.46055 0.18207 0.74799 0.0
H953 H 0.54281 0.31884 0.74888 0.0
H954 H 0.38942 0.24651 0.74526 0.0
H955 H 0.61361 0.25425 0.75166 0.0
H956 H 0.48633 0.29272 0.74763 0.0
H957 H 0.51686 0.20826 0.74919 0.0
C958 C 0.45673 0.20174 0.74759 0.0
C959 C 0.42012 0.21209 0.74652 0.0
C960 C 0.51421 0.28425 0.74854 0.0
C961 C 0.48468 0.24225 0.74796 0.0
C962 C 0.54652 0.29916 0.74928 0.0
C963 C 0.58308 0.28874 0.75038 0.0
C964 C 0.51839 0.25869 0.74888 0.0
C965 C 0.58604 0.26311 0.75082 0.0
C966 C 0.48896 0.2167 0.7483 0.0
C967 C 0.41704 0.23771 0.74607 0.0
N968 N 0.55414 0.24898 0.75006 0.0
N969 N 0.44889 0.2519 0.74681 0.0
H970 H 0.45929 0.06699 0.49981 0.0
H971 H 0.54137 0.93017 0.49814 0.0
H972 H 0.38782 0.00266 0.50179 0.0
H973 H 0.61199 0.99486 0.49572 0.0
H974 H 0.48479 0.95625 0.49941 0.0
H975 H 0.51546 0.04071 0.4985 0.0
C976 C 0.45536 0.04732 0.50003 0.0
C977 C 0.4187 0.03704 0.50092 0.0
C978 C 0.51266 0.96474 0.49857 0.0
C979 C 0.48312 0.00676 0.49934 0.0
C980 C 0.54502 0.94985 0.49781 0.0
C981 C 0.58156 0.96032 0.49682 0.0
C982 C 0.5168 0.99031 0.49835 0.0
C983 C 0.58445 0.98595 0.49647 0.0
C984 C 0.48751 0.03231 0.49925 0.0
C985 C 0.41549 0.01141 0.50113 0.0
N986 N 0.55253 1.00004 0.49726 0.0
N987 N 0.44728 0.99716 0.50033 0.0
H988 H 0.54313 0.81731 0.24937 0.0
H989 H 0.45988 0.68081 0.2475 0.0
H990 H 0.61393 0.75265 0.24918 0.0
H991 H 0.38955 0.74566 0.24609 0.0
H992 H 0.51661 0.70674 0.2483 0.0
H993 H 0.48661 0.79128 0.24857 0.0
C994 C 0.54684 0.79763 0.24921 0.0
C995 C 0.58341 0.78717 0.24934 0.0
C996 C 0.48877 0.7153 0.24779 0.0
C997 C 0.51862 0.7572 0.24837 0.0
C998 C 0.45633 0.7005 0.24732 0.0
C999 C 0.41983 0.71106 0.24673 0.0
C1000 C 0.48478 0.74088 0.24771 0.0
C1001 C 0.41707 0.73669 0.24653 0.0
C1002 C 0.51449 0.78277 0.24872 0.0
C1003 C 0.58634 0.76153 0.24909 0.0
N1004 N 0.44908 0.75071 0.24705 0.0
N1005 N 0.55439 0.74744 0.24861 0.0
H1006 H 0.54292 0.43336 0.99804 0.0
H1007 H 0.46034 0.57004 -0.00069 0.0
H1008 H 0.61374 0.49798 0.99583 0.0
H1009 H 0.38956 0.5054 0.00155 0.0
H1010 H 0.51683 0.54395 0.99818 0.0
H1011 H 0.48646 0.45946 -0.00076 0.0
C1012 C 0.54664 0.45304 0.99776 0.0
C1013 C 0.58319 0.46348 0.99683 0.0
C1014 C 0.48896 0.53546 -0.00106 0.0
C1015 C 0.51852 0.49351 0.99827 0.0
C1016 C 0.45664 0.55036 -0.00038 0.0
C1017 C 0.42009 0.53991 0.00053 0.0
C1018 C 0.48478 0.5099 -0.00084 0.0
C1019 C 0.41714 0.51428 0.00087 0.0
C1020 C 0.51433 0.46794 0.99847 0.0
C1021 C 0.58616 0.48911 0.99653 0.0
N1022 N 0.44904 0.50017 0.00016 0.0
N1023 N 0.55427 0.50323 0.99726 0.0
H1024 H 0.13857 0.34554 0.43665 0.0
H1025 H 0.13781 0.40327 0.31219 0.0
H1026 H 0.15847 0.42225 0.42367 0.0
H1027 H 0.16002 0.32678 0.32494 0.0
H1028 H 0.13556 0.41043 0.35315 0.0
H1029 H 0.13663 0.33822 0.39567 0.0
C1030 C 0.14233 0.36085 0.4252 0.0
C1031 C 0.14885 0.38452 0.43357 0.0
C1032 C 0.14088 0.39208 0.34694 0.0
C1033 C 0.14641 0.3763 0.3868 0.0
C1034 C 0.14203 0.38797 0.32359 0.0
C1035 C 0.14928 0.36441 0.31515 0.0
C1036 C 0.14648 0.37245 0.36194 0.0
C1037 C 0.1546 0.34526 0.33072 0.0
C1038 C 0.14137 0.35664 0.40184 0.0
C1039 C 0.15362 0.40368 0.41795 0.0
N1040 N 0.15299 0.34969 0.35337 0.0
N1041 N 0.15219 0.39916 0.39532 0.0
H1042 H 0.11368 0.84707 0.31222 0.0
H1043 H 0.11097 0.90566 0.43629 0.0
H1044 H 0.08938 0.92347 0.32406 0.0
H1045 H 0.09261 0.82874 0.42358 0.0
H1046 H 0.11228 0.91287 0.39524 0.0
H1047 H 0.11528 0.84038 0.35321 0.0
C1048 C 0.10882 0.86246 0.32343 0.0
C1049 C 0.10125 0.88586 0.3147 0.0
C1050 C 0.108 0.89443 0.4015 0.0
C1051 C 0.10331 0.87832 0.36162 0.0
C1052 C 0.10741 0.89028 0.42488 0.0
C1053 C 0.10156 0.86657 0.43336 0.0
C1054 C 0.1033 0.87467 0.38652 0.0
C1055 C 0.09698 0.84734 0.4178 0.0
C1056 C 0.10961 0.8586 0.34682 0.0
C1057 C 0.0951 0.90511 0.33006 0.0
N1058 N 0.0981 0.8518 0.39515 0.0
N1059 N 0.0964 0.90094 0.35279 0.0
H1060 H 0.09508 0.88272 0.81576 0.0
H1061 H 0.21102 0.90204 0.92824 0.0
H1062 H 0.20891 0.85345 0.82145 0.0
H1063 H 0.09633 0.87378 0.93184 0.0
H1064 H 0.21084 0.89479 0.88707 0.0
H1065 H 0.09479 0.8901 0.85696 0.0
C1066 C 0.12003 0.87802 0.82568 0.0
C1067 C 0.15203 0.86741 0.81534 0.0
C1068 C 0.18577 0.89026 0.89696 0.0
C1069 C 0.15215 0.87628 0.86192 0.0
C1070 C 0.18577 0.89446 0.92031 0.0
C1071 C 0.15368 0.88838 0.93333 0.0
C1072 C 0.15303 0.88071 0.88657 0.0
C1073 C 0.12169 0.87852 0.92234 0.0
C1074 C 0.11975 0.88211 0.84907 0.0
C1075 C 0.18362 0.86152 0.82888 0.0
N1076 N 0.12197 0.87523 0.89947 0.0
N1077 N 0.1831 0.8663 0.8515 0.0
H1078 H 0.09233 0.42421 0.82452 0.0
H1079 H 0.09254 0.32619 0.92421 0.0
H1080 H 0.11437 0.34744 0.81316 0.0
H1081 H 0.11202 0.40318 0.93596 0.0
H1082 H 0.09516 0.33363 0.88337 0.0
H1083 H 0.0942 0.41691 0.86542 0.0
C1084 C 0.0976 0.40582 0.83062 0.0
C1085 C 0.10312 0.38638 0.81541 0.0
C1086 C 0.09905 0.34887 0.89489 0.0
C1087 C 0.10501 0.37792 0.86215 0.0
C1088 C 0.0974 0.34467 0.9182 0.0
C1089 C 0.10199 0.36412 0.93351 0.0
C1090 C 0.10475 0.37274 0.88681 0.0
C1091 C 0.10841 0.38765 0.92476 0.0
C1092 C 0.09882 0.4017 0.85396 0.0
C1093 C 0.11004 0.36296 0.82428 0.0
N1094 N 0.10929 0.39135 0.90196 0.0
N1095 N 0.11048 0.35934 0.84708 0.0
H1096 H 0.84295 0.6751 0.67371 0.0
H1097 H 0.84259 0.57682 0.57424 0.0
H1098 H 0.86413 0.59829 0.68539 0.0
H1099 H 0.8637 0.65363 0.56246 0.0
H1100 H 0.84489 0.58433 0.61509 0.0
H1101 H 0.84499 0.66763 0.63284 0.0
C1102 C 0.84808 0.65666 0.66768 0.0
C1103 C 0.85332 0.63727 0.68298 0.0
C1104 C 0.8492 0.5995 0.60356 0.0
C1105 C 0.85538 0.6286 0.63626 0.0
C1106 C 0.84774 0.59527 0.58025 0.0
C1107 C 0.8529 0.61465 0.56493 0.0
C1108 C 0.85527 0.62335 0.61163 0.0
C1109 C 0.85967 0.63815 0.57367 0.0
C1110 C 0.84938 0.65245 0.64436 0.0
C1111 C 0.86003 0.61378 0.6742 0.0
N1112 N 0.86035 0.64188 0.59646 0.0
N1113 N 0.86056 0.61006 0.65141 0.0
H1114 H 0.91252 0.07552 0.67346 0.0
H1115 H 0.91197 0.17445 0.5744 0.0
H1116 H 0.89145 0.15229 0.68542 0.0
H1117 H 0.89181 0.09762 0.56221 0.0
H1118 H 0.91013 0.16665 0.6152 0.0
H1119 H 0.91058 0.0832 0.6326 0.0
C1120 C 0.90746 0.09399 0.6675 0.0
C1121 C 0.90219 0.11332 0.68287 0.0
C1122 C 0.90594 0.15153 0.60359 0.0
C1123 C 0.90023 0.12221 0.63617 0.0
C1124 C 0.90713 0.15594 0.5803 0.0
C1125 C 0.90208 0.13664 0.56487 0.0
C1126 C 0.90023 0.1276 0.61155 0.0
C1127 C 0.89574 0.11304 0.5735 0.0
C1128 C 0.90621 0.09832 0.64418 0.0
C1129 C 0.89557 0.13685 0.67418 0.0
N1130 N 0.89528 0.10914 0.59628 0.0
N1131 N 0.89506 0.14067 0.6514 0.0
H1132 H 0.84192 0.17464 0.17387 0.0
H1133 H 0.84325 0.07688 0.07398 0.0
H1134 H 0.86425 0.0979 0.18516 0.0
H1135 H 0.86289 0.15388 0.06242 0.0
H1136 H 0.84556 0.08423 0.11484 0.0
H1137 H 0.84424 0.16744 0.13296 0.0
C1138 C 0.84735 0.15627 0.16775 0.0
C1139 C 0.85282 0.13681 0.18295 0.0
C1140 C 0.84955 0.09949 0.10336 0.0
C1141 C 0.85522 0.12846 0.13618 0.0
C1142 C 0.84808 0.09534 0.08004 0.0
C1143 C 0.85281 0.11483 0.06477 0.0
C1144 C 0.8552 0.12334 0.11151 0.0
C1145 C 0.85919 0.13833 0.07359 0.0
C1146 C 0.84883 0.15221 0.1444 0.0
C1147 C 0.85995 0.11343 0.17405 0.0
N1148 N 0.85988 0.14198 0.0964 0.0
N1149 N 0.86063 0.10986 0.15124 0.0
H1150 H 0.888 0.59539 0.06178 0.0
H1151 H 0.88843 0.65333 0.1862 0.0
H1152 H 0.90906 0.67201 0.07461 0.0
H1153 H 0.90934 0.57669 0.17343 0.0
H1154 H 0.88605 0.66047 0.14522 0.0
H1155 H 0.88591 0.58819 0.10277 0.0
C1156 C 0.89199 0.61071 0.0732 0.0
C1157 C 0.89889 0.63432 0.06478 0.0
C1158 C 0.89111 0.6421 0.15143 0.0
C1159 C 0.89626 0.62622 0.11158 0.0
C1160 C 0.89233 0.638 0.17479 0.0
C1161 C 0.89927 0.6144 0.18323 0.0
C1162 C 0.89633 0.62242 0.13643 0.0
C1163 C 0.90418 0.59521 0.16766 0.0
C1164 C 0.89093 0.60656 0.09656 0.0
C1165 C 0.90393 0.65348 0.08037 0.0
N1166 N 0.90251 0.59962 0.14501 0.0
N1167 N 0.90241 0.64903 0.10301 0.0
H1168 H 0.65972 0.42525 0.92336 0.0
H1169 H 0.65912 0.32721 0.82371 0.0
H1170 H 0.63855 0.34841 0.93492 0.0
H1171 H 0.63872 0.40411 0.81207 0.0
H1172 H 0.65688 0.33461 0.86457 0.0
H1173 H 0.65733 0.4179 0.88248 0.0
C1174 C 0.65453 0.40683 0.9173 0.0
C1175 C 0.64941 0.38739 0.93257 0.0
C1176 C 0.65269 0.34983 0.85306 0.0
C1177 C 0.64691 0.37887 0.88584 0.0
C1178 C 0.65412 0.34566 0.82975 0.0
C1179 C 0.64918 0.36509 0.81446 0.0
C1180 C 0.64686 0.37368 0.86119 0.0
C1181 C 0.6426 0.38859 0.82325 0.0
C1182 C 0.65301 0.40268 0.89398 0.0
C1183 C 0.64258 0.36393 0.92375 0.0
N1184 N 0.64194 0.39227 0.84606 0.0
N1185 N 0.64184 0.36028 0.90095 0.0
H1186 H 0.58739 0.82362 0.92399 0.0
H1187 H 0.5918 0.92257 0.82488 0.0
H1188 H 0.61183 0.90001 0.93571 0.0
H1189 H 0.61018 0.8456 0.8125 0.0
H1190 H 0.59279 0.91457 0.86565 0.0
H1191 H 0.58939 0.8312 0.88305 0.0
C1192 C 0.59317 0.84198 0.91796 0.0
C1193 C 0.59944 0.86122 0.9333 0.0
C1194 C 0.59676 0.89945 0.85401 0.0
C1195 C 0.60145 0.87002 0.88655 0.0
C1196 C 0.59607 0.90398 0.83073 0.0
C1197 C 0.60091 0.88471 0.81525 0.0
C1198 C 0.60173 0.87543 0.86192 0.0
C1199 C 0.60647 0.861 0.82383 0.0
C1200 C 0.59446 0.84625 0.89462 0.0
C1201 C 0.60695 0.88462 0.92452 0.0
N1202 N 0.60644 0.85699 0.84661 0.0
N1203 N 0.60747 0.8884 0.90175 0.0
H1204 H 0.6598 0.92221 0.42361 0.0
H1205 H 0.66336 0.8245 0.32345 0.0
H1206 H 0.64139 0.84509 0.43513 0.0
H1207 H 0.63944 0.9011 0.31249 0.0
H1208 H 0.66152 0.83161 0.36444 0.0
H1209 H 0.65854 0.91478 0.38275 0.0
C1210 C 0.65547 0.9037 0.41754 0.0
C1211 C 0.6507 0.88423 0.43281 0.0
C1212 C 0.65652 0.84681 0.35304 0.0
C1213 C 0.64956 0.87559 0.38604 0.0
C1214 C 0.65772 0.84281 0.32966 0.0
C1215 C 0.65157 0.86225 0.31452 0.0
C1216 C 0.64973 0.8705 0.36135 0.0
C1217 C 0.64424 0.88557 0.32353 0.0
C1218 C 0.65461 0.8995 0.39422 0.0
C1219 C 0.64505 0.86064 0.42396 0.0
N1220 N 0.64379 0.88907 0.34635 0.0
N1221 N 0.64492 0.85695 0.40115 0.0
H1222 H 0.59169 0.32594 0.42354 0.0
H1223 H 0.59216 0.42368 0.32357 0.0
H1224 H 0.61259 0.40285 0.43481 0.0
H1225 H 0.6123 0.34671 0.31216 0.0
H1226 H 0.59428 0.41639 0.36445 0.0
H1227 H 0.59389 0.33314 0.38264 0.0
C1228 C 0.59678 0.34434 0.41742 0.0
C1229 C 0.60189 0.36385 0.43261 0.0
C1230 C 0.59842 0.40113 0.35299 0.0
C1231 C 0.60416 0.3722 0.38585 0.0
C1232 C 0.59707 0.40524 0.32966 0.0
C1233 C 0.60199 0.38575 0.31444 0.0
C1234 C 0.60417 0.3773 0.36118 0.0
C1235 C 0.60845 0.36226 0.3233 0.0
C1236 C 0.59818 0.3484 0.39408 0.0
C1237 C 0.60857 0.38728 0.42371 0.0
N1238 N 0.60905 0.35866 0.34611 0.0
N1239 N 0.60922 0.39084 0.4009 0.0
H1240 H 0.36334 0.59588 0.18564 0.0
H1241 H 0.3645 0.65524 0.06183 0.0
H1242 H 0.343 0.67272 0.17356 0.0
H1243 H 0.34299 0.57851 0.07382 0.0
H1244 H 0.36643 0.66194 0.10288 0.0
H1245 H 0.36567 0.58916 0.1446 0.0
C1246 C 0.35955 0.61134 0.17437 0.0
C1247 C 0.35279 0.63487 0.18301 0.0
C1248 C 0.36133 0.64365 0.09648 0.0
C1249 C 0.35569 0.62734 0.13616 0.0
C1250 C 0.36037 0.63979 0.07309 0.0
C1251 C 0.35341 0.6163 0.06441 0.0
C1252 C 0.35583 0.62382 0.11128 0.0
C1253 C 0.34819 0.59696 0.07978 0.0
C1254 C 0.36074 0.60748 0.15098 0.0
C1255 C 0.34801 0.65424 0.16762 0.0
N1256 N 0.34961 0.60113 0.10247 0.0
N1257 N 0.34966 0.65006 0.14494 0.0
H1258 H 0.40877 0.07642 0.17369 0.0
H1259 H 0.40935 0.17455 0.07408 0.0
H1260 H 0.38793 0.15328 0.1853 0.0
H1261 H 0.38927 0.09762 0.0624 0.0
H1262 H 0.40661 0.16716 0.11494 0.0
H1263 H 0.40672 0.08383 0.13283 0.0
C1264 C 0.40371 0.09486 0.16764 0.0
C1265 C 0.3986 0.11429 0.18292 0.0
C1266 C 0.40261 0.15193 0.10342 0.0
C1267 C 0.3965 0.12288 0.13619 0.0
C1268 C 0.40432 0.15609 0.08011 0.0
C1269 C 0.39961 0.13664 0.06481 0.0
C1270 C 0.39673 0.12808 0.11153 0.0
C1271 C 0.39299 0.11315 0.07358 0.0
C1272 C 0.40239 0.09904 0.14432 0.0
C1273 C 0.39194 0.13777 0.17412 0.0
N1274 N 0.39204 0.10948 0.09638 0.0
N1275 N 0.3914 0.14145 0.15132 0.0
H1276 H 0.40802 0.11943 0.68242 0.0
H1277 H 0.29204 0.10002 0.57039 0.0
H1278 H 0.29421 0.14876 0.67692 0.0
H1279 H 0.40612 0.12918 0.56608 0.0
H1280 H 0.29254 0.1076 0.61147 0.0
H1281 H 0.40846 0.11261 0.64111 0.0
C1282 C 0.38312 0.12426 0.67252 0.0
C1283 C 0.35105 0.13469 0.68293 0.0
C1284 C 0.31738 0.11229 0.60145 0.0
C1285 C 0.35113 0.12651 0.63626 0.0
C1286 C 0.31721 0.10792 0.57815 0.0
C1287 C 0.34905 0.11411 0.56496 0.0
C1288 C 0.35007 0.12213 0.61164 0.0
C1289 C 0.38095 0.12436 0.57573 0.0
C1290 C 0.3835 0.12052 0.64908 0.0
C1291 C 0.31953 0.1408 0.66943 0.0
N1292 N 0.38088 0.12779 0.59858 0.0
N1293 N 0.32013 0.13633 0.64677 0.0
H1294 H 0.38903 0.65423 0.68602 0.0
H1295 H 0.38732 0.59654 0.56154 0.0
H1296 H 0.40944 0.57757 0.67306 0.0
H1297 H 0.40916 0.67306 0.57439 0.0
H1298 H 0.38543 0.58929 0.60252 0.0
H1299 H 0.38643 0.66147 0.64506 0.0
C1300 C 0.39277 0.63891 0.67457 0.0
C1301 C 0.39964 0.61528 0.68294 0.0
C1302 C 0.39057 0.60766 0.59632 0.0
C1303 C 0.39643 0.62342 0.63618 0.0
C1304 C 0.39151 0.61183 0.57297 0.0
C1305 C 0.39858 0.63542 0.56456 0.0
C1306 C 0.3962 0.62728 0.61134 0.0
C1307 C 0.40388 0.65455 0.58015 0.0
C1308 C 0.39142 0.64308 0.65123 0.0
C1309 C 0.40435 0.59611 0.66733 0.0
N1310 N 0.40248 0.65007 0.60279 0.0
N1311 N 0.40255 0.60059 0.64469 0.0
H1312 H 0.30653 0.31663 0.24924 0.0
H1313 H 0.44526 0.43326 0.24834 0.0
H1314 H 0.26647 0.39135 0.248 0.0
H1315 H 0.4851 0.35848 0.24764 0.0
H1316 H 0.37955 0.41829 0.24825 0.0
H1317 H 0.37216 0.33165 0.2487 0.0
C1318 C 0.3115 0.3362 0.24884 0.0
C1319 C 0.28089 0.35275 0.24867 0.0
C1320 C 0.40268 0.40516 0.24809 0.0
C1321 C 0.35605 0.37008 0.24808 0.0
C1322 C 0.44023 0.4137 0.24815 0.0
C1323 C 0.4708 0.39711 0.24801 0.0
C1324 C 0.39558 0.37984 0.24793 0.0
C1325 C 0.46248 0.37196 0.24775 0.0
C1326 C 0.34902 0.34476 0.24853 0.0
C1327 C 0.28913 0.3779 0.24814 0.0
N1328 N 0.42571 0.36411 0.24775 0.0
N1329 N 0.32589 0.38579 0.24789 0.0
H1330 H 0.80654 0.81629 0.24648 0.0
H1331 H 0.94619 0.9324 0.24686 0.0
H1332 H 0.76708 0.89114 0.24625 0.0
H1333 H 0.98559 0.85753 0.2463 0.0
H1334 H 0.88044 0.91765 0.24625 0.0
H1335 H 0.87228 0.83106 0.24602 0.0
C1336 C 0.81166 0.83584 0.24631 0.0
C1337 C 0.78117 0.85249 0.24644 0.0
C1338 C 0.90346 0.90444 0.24623 0.0
C1339 C 0.85652 0.86955 0.24593 0.0
C1340 C 0.94106 0.91285 0.24658 0.0
C1341 C 0.97154 0.89619 0.24666 0.0
C1342 C 0.89617 0.87916 0.24598 0.0
C1343 C 0.96305 0.87107 0.24627 0.0
C1344 C 0.84925 0.84426 0.24604 0.0
C1345 C 0.78963 0.87762 0.24618 0.0
N1346 N 0.9262 0.86333 0.24598 0.0
N1347 N 0.82648 0.88536 0.24597 0.0
H1348 H 0.30601 0.93201 0.0033 0.0
H1349 H 0.44396 0.81518 0.00063 0.0
H1350 H 0.26509 0.8575 0.00121 0.0
H1351 H 0.48407 0.88988 0.00229 0.0
H1352 H 0.37831 0.83018 0.00143 0.0
H1353 H 0.37137 0.91677 0.00357 0.0
C1354 C 0.31073 0.91242 0.00293 0.0
C1355 C 0.27993 0.89602 0.0022 0.0
C1356 C 0.40147 0.84329 0.00164 0.0
C1357 C 0.35495 0.8784 0.00248 0.0
C1358 C 0.439 0.83474 0.00119 0.0
C1359 C 0.46964 0.8513 0.00137 0.0
C1360 C 0.39445 0.86859 0.00228 0.0
C1361 C 0.46141 0.87643 0.00211 0.0
C1362 C 0.34813 0.90373 0.00308 0.0
C1363 C 0.28791 0.87083 0.00176 0.0
N1364 N 0.42464 0.88429 0.00251 0.0
N1365 N 0.32463 0.8628 0.00188 0.0
H1366 H 0.94431 0.3167 -0.00106 0.0
H1367 H 0.80704 0.43404 0.99886 0.0
H1368 H 0.98509 0.39125 0.00047 0.0
H1369 H 0.76609 0.35951 -0.00047 0.0
H1370 H 0.8725 0.4187 -0.00065 0.0
H1371 H 0.87879 0.332 -0.00092 0.0
C1372 C 0.93952 0.33628 -0.00067 0.0
C1373 C 0.9703 0.3527 -0.00032 0.0
C1374 C 0.84919 0.4057 -0.00059 0.0
C1375 C 0.89531 0.37037 -0.00019 0.0
C1376 C 0.81178 0.41446 -0.00088 0.0
C1377 C 0.78097 0.39806 -0.00086 0.0
C1378 C 0.85591 0.38034 -0.00031 0.0
C1379 C 0.78891 0.37285 -0.0005 0.0
C1380 C 0.90208 0.34501 -0.00059 0.0
C1381 C 0.9623 0.37789 0.00018 0.0
N1382 N 0.82556 0.36478 -0.00026 0.0
N1383 N 0.92564 0.38593 0.0002 0.0
H1384 H 0.69584 0.68381 0.74907 0.0
H1385 H 0.5577 0.56687 0.74789 0.0
H1386 H 0.73637 0.60918 0.74944 0.0
H1387 H 0.51752 0.64154 0.74965 0.0
H1388 H 0.62336 0.58196 0.74831 0.0
H1389 H 0.63031 0.66862 0.74915 0.0
C1390 C 0.691 0.66423 0.74918 0.0
C1391 C 0.72172 0.64776 0.74924 0.0
C1392 C 0.60017 0.59504 0.74862 0.0
C1393 C 0.64664 0.63022 0.7493 0.0
C1394 C 0.56265 0.58643 0.74838 0.0
C1395 C 0.53199 0.60295 0.74873 0.0
C1396 C 0.60715 0.62036 0.74919 0.0
C1397 C 0.5402 0.62811 0.74936 0.0
C1398 C 0.65353 0.65556 0.74923 0.0
C1399 C 0.71362 0.62257 0.74939 0.0
N1400 N 0.57694 0.63603 0.74955 0.0
N1401 N 0.6769 0.61459 0.7494 0.0
H1402 H 0.05838 0.06542 0.74914 0.0
H1403 H 0.19701 0.1821 0.75007 0.0
H1404 H 0.01869 0.14021 0.75045 0.0
H1405 H 0.23743 0.10745 0.74986 0.0
H1406 H 0.13149 0.16698 0.7504 0.0
H1407 H 0.12415 0.08034 0.74958 0.0
C1408 C 0.06346 0.08497 0.74954 0.0
C1409 C 0.0329 0.10158 0.74975 0.0
C1410 C 0.15467 0.15389 0.75031 0.0
C1411 C 0.10818 0.11879 0.75023 0.0
C1412 C 0.19214 0.16252 0.75012 0.0
C1413 C 0.22284 0.14603 0.74992 0.0
C1414 C 0.14772 0.12856 0.75027 0.0
C1415 C 0.2147 0.12085 0.75 0.0
C1416 C 0.10104 0.09348 0.74979 0.0
C1417 C 0.04127 0.12671 0.75027 0.0
N1418 N 0.17795 0.1129 0.75015 0.0
N1419 N 0.07806 0.13453 0.75047 0.0
H1420 H 0.55726 0.18437 -0.00083 0.0
H1421 H 0.69555 0.06753 0.99882 0.0
H1422 H 0.51717 0.10965 0.99792 0.0
H1423 H 0.73592 0.14219 0.99778 0.0
H1424 H 0.62998 0.08266 0.99859 0.0
H1425 H 0.62292 0.16932 0.99878 0.0
C1426 C 0.56223 0.16481 0.9988 0.0
C1427 C 0.5316 0.14826 0.99859 0.0
C1428 C 0.65318 0.09574 0.99838 0.0
C1429 C 0.60675 0.1309 0.99816 0.0
C1430 C 0.69066 0.08711 0.99852 0.0
C1431 C 0.72134 0.10361 0.99833 0.0
C1432 C 0.64624 0.12107 0.99809 0.0
C1433 C 0.7132 0.12878 0.99794 0.0
C1434 C 0.59975 0.15622 0.99857 0.0
C1435 C 0.53983 0.1231 0.9981 0.0
N1436 N 0.67647 0.13673 0.99786 0.0
N1437 N 0.57657 0.11521 0.99792 0.0
H1438 H 0.23702 0.64368 0.99755 0.0
H1439 H 0.01562 0.6077 0.99742 0.0
H1440 H 0.19614 0.56913 0.99828 0.0
H1441 H 0.05662 0.68219 -0.00057 0.0
H1442 H 0.08149 0.59326 0.99686 0.0
H1443 H 0.17115 0.6581 0.99735 0.0
C1444 C 0.2142 0.63032 0.99764 0.0
C1445 C 0.22218 0.60513 0.99795 0.0
C1446 C 0.0761 0.61276 0.99741 0.0
C1447 C 0.14653 0.62157 0.99774 0.0
C1448 C 0.03846 0.62105 0.99772 0.0
C1449 C 0.03052 0.64623 0.99849 0.0
C1450 C 0.10615 0.62975 0.99785 0.0
C1451 C 0.06135 0.66262 0.99885 0.0
C1452 C 0.17656 0.63858 0.99754 0.0
C1453 C 0.19138 0.58871 0.99806 0.0
N1454 N 0.09777 0.6541 0.99853 0.0
N1455 N 0.15494 0.59722 0.99796 0.0
H1456 H 0.48604 0.85881 0.74683 0.0
H1457 H 0.26456 0.89472 0.74823 0.0
H1458 H 0.44558 0.9334 0.74936 0.0
H1459 H 0.30611 0.82033 0.74776 0.0
H1460 H 0.33044 0.90937 0.74776 0.0
H1461 H 0.42016 0.84455 0.74627 0.0
C1462 C 0.46331 0.87222 0.74724 0.0
C1463 C 0.47143 0.89737 0.74818 0.0
C1464 C 0.32513 0.88984 0.74774 0.0
C1465 C 0.39568 0.88109 0.74755 0.0
C1466 C 0.2875 0.88145 0.74799 0.0
C1467 C 0.27973 0.85623 0.74806 0.0
C1468 C 0.35528 0.87291 0.74753 0.0
C1469 C 0.31067 0.83992 0.74774 0.0
C1470 C 0.42563 0.86404 0.74693 0.0
C1471 C 0.4407 0.91385 0.74866 0.0
N1472 N 0.34702 0.84855 0.74751 0.0
N1473 N 0.4042 0.90542 0.74836 0.0
H1474 H 0.76565 0.39295 0.74728 0.0
H1475 H 0.98742 0.35794 0.74828 0.0
H1476 H 0.8073 0.31861 0.74907 0.0
H1477 H 0.94574 0.4323 0.74867 0.0
H1478 H 0.92171 0.34322 0.74785 0.0
H1479 H 0.83137 0.40766 0.74705 0.0
C1480 C 0.7886 0.37969 0.7476 0.0
C1481 C 0.78087 0.35447 0.74821 0.0
C1482 C 0.92691 0.36276 0.74802 0.0
C1483 C 0.85637 0.37126 0.74796 0.0
C1484 C 0.96447 0.3712 0.74825 0.0
C1485 C 0.97218 0.39643 0.74853 0.0
C1486 C 0.8967 0.37963 0.74804 0.0
C1487 C 0.9412 0.4127 0.74848 0.0
C1488 C 0.82617 0.38813 0.74748 0.0
C1489 C 0.81186 0.3382 0.74861 0.0
N1490 N 0.90485 0.40402 0.74825 0.0
N1491 N 0.84821 0.34688 0.74849 0.0
H1492 H 0.30629 0.43331 0.4982 0.0
H1493 H 0.4451 0.3167 0.49932 0.0
H1494 H 0.26635 0.35859 0.50044 0.0
H1495 H 0.48498 0.39147 0.49924 0.0
H1496 H 0.3794 0.33167 0.49961 0.0
H1497 H 0.37197 0.41832 0.49845 0.0
C1498 C 0.31129 0.41375 0.49877 0.0
C1499 C 0.2807 0.39719 0.4993 0.0
C1500 C 0.40253 0.34481 0.49955 0.0
C1501 C 0.3559 0.37989 0.49956 0.0
C1502 C 0.44008 0.33626 0.49938 0.0
C1503 C 0.47066 0.35284 0.49925 0.0
C1504 C 0.39544 0.37013 0.49956 0.0
C1505 C 0.46235 0.37799 0.49934 0.0
C1506 C 0.34883 0.4052 0.49891 0.0
C1507 C 0.28899 0.37205 0.50002 0.0
N1508 N 0.42558 0.38585 0.49946 0.0
N1509 N 0.32575 0.36418 0.50011 0.0
H1510 H 0.94591 0.81692 0.49904 0.0
H1511 H 0.80563 0.93278 0.49962 0.0
H1512 H 0.98489 0.89187 0.50072 0.0
H1513 H 0.76666 0.85781 0.5003 0.0
H1514 H 0.8715 0.91815 0.50001 0.0
H1515 H 0.88004 0.83155 0.49948 0.0
C1516 C 0.94065 0.83645 0.49952 0.0
C1517 C 0.97104 0.85318 0.49983 0.0
C1518 C 0.84854 0.9049 0.50011 0.0
C1519 C 0.89561 0.87007 0.50031 0.0
C1520 C 0.81089 0.91324 0.49988 0.0
C1521 C 0.78051 0.89651 0.49991 0.0
C1522 C 0.85594 0.87962 0.50033 0.0
C1523 C 0.78913 0.8714 0.50026 0.0
C1524 C 0.90301 0.8448 0.49978 0.0
C1525 C 0.96242 0.87828 0.50047 0.0
N1526 N 0.826 0.86374 0.50043 0.0
N1527 N 0.92555 0.88595 0.50065 0.0
H1528 H 0.5148 0.14215 0.24997 0.0
H1529 H 0.73675 0.10764 0.24992 0.0
H1530 H 0.55673 0.06786 0.24854 0.0
H1531 H 0.69449 0.18186 0.24919 0.0
H1532 H 0.67112 0.09272 0.2501 0.0
H1533 H 0.58042 0.15696 0.25036 0.0
C1534 C 0.53779 0.12892 0.24976 0.0
C1535 C 0.53017 0.10369 0.24921 0.0
C1536 C 0.67618 0.11227 0.24991 0.0
C1537 C 0.60558 0.1206 0.24966 0.0
C1538 C 0.71369 0.12083 0.24982 0.0
C1539 C 0.7212 0.14607 0.24953 0.0
C1540 C 0.64585 0.12905 0.24973 0.0
C1541 C 0.6901 0.16225 0.2494 0.0
C1542 C 0.57531 0.13742 0.24997 0.0
C1543 C 0.56121 0.08746 0.24895 0.0
N1544 N 0.65382 0.15346 0.2495 0.0
N1545 N 0.59753 0.09619 0.24918 0.0
H1546 H 0.05696 0.56611 0.24849 0.0
H1547 H 0.19561 0.68279 0.24885 0.0
H1548 H 0.01691 0.64083 0.24993 0.0
H1549 H 0.23557 0.60805 0.24977 0.0
H1550 H 0.12993 0.66779 0.2491 0.0
H1551 H 0.12261 0.58114 0.24881 0.0
C1552 C 0.06194 0.58567 0.24889 0.0
C1553 C 0.03132 0.60222 0.24917 0.0
C1554 C 0.15307 0.65467 0.24927 0.0
C1555 C 0.10649 0.61957 0.24952 0.0
C1556 C 0.19061 0.66323 0.24912 0.0
C1557 C 0.22121 0.64667 0.24928 0.0
C1558 C 0.14602 0.62935 0.24955 0.0
C1559 C 0.21293 0.62151 0.24964 0.0
C1560 C 0.09946 0.59425 0.24908 0.0
C1561 C 0.03957 0.62738 0.2497 0.0
N1562 N 0.17617 0.61364 0.24974 0.0
N1563 N 0.07633 0.63527 0.24983 0.0
H1564 H 0.73692 0.6428 0.49801 0.0
H1565 H 0.51501 0.60812 0.49759 0.0
H1566 H 0.69499 0.5685 0.49872 0.0
H1567 H 0.55699 0.68239 0.49937 0.0
H1568 H 0.58066 0.5933 0.49723 0.0
H1569 H 0.67127 0.6576 0.49773 0.0
C1570 C 0.71392 0.62957 0.49808 0.0
C1571 C 0.72155 0.60434 0.4984 0.0
C1572 C 0.57555 0.61284 0.49769 0.0
C1573 C 0.64612 0.62124 0.49809 0.0
C1574 C 0.53802 0.62134 0.49788 0.0
C1575 C 0.5304 0.64657 0.49853 0.0
C1576 C 0.60583 0.62966 0.49812 0.0
C1577 C 0.56145 0.66279 0.49889 0.0
C1578 C 0.67639 0.63806 0.49794 0.0
C1579 C 0.69051 0.5881 0.49849 0.0
N1580 N 0.59777 0.65406 0.49868 0.0
N1581 N 0.65418 0.59683 0.49834 0.0
H1582 H 0.05825 0.18496 0.49895 0.0
H1583 H 0.19582 0.06781 0.49688 0.0
H1584 H 0.01797 0.11031 0.49677 0.0
H1585 H 0.23696 0.14229 0.49793 0.0
H1586 H 0.13046 0.08318 0.49658 0.0
H1587 H 0.12391 0.16984 0.49835 0.0
C1588 C 0.06317 0.1654 0.49832 0.0
C1589 C 0.03249 0.1489 0.49794 0.0
C1590 C 0.15377 0.09618 0.49685 0.0
C1591 C 0.10762 0.13145 0.49726 0.0
C1592 C 0.19115 0.0874 0.49702 0.0
C1593 C 0.222 0.10377 0.49745 0.0
C1594 C 0.14706 0.12153 0.49714 0.0
C1595 C 0.2141 0.12898 0.4976 0.0
C1596 C 0.10069 0.15678 0.49798 0.0
C1597 C 0.04066 0.12374 0.49711 0.0
N1598 N 0.17744 0.13708 0.49748 0.0
N1599 N 0.07738 0.11581 0.49682 0.0
loop_
_geom_bond_atom_site_label_1
_geom_bond_atom_site_label_2
_geom_bond_distance
_geom_bond_site_symmetry_2
_ccdc_geom_bond_type
C0 O2 1.247 . S
C0 O4 1.258 . S
C1 O8 1.247 . S
C1 O9 1.258 . S
O2 C0 1.247 . S
O2 Zn3 2.028 . S
Zn3 O2 2.028 . S
Zn3 O7 2.035 . S
Zn3 O9 2.035 . S
Zn3 O10 2.028 . S
O4 C0 1.258 . S
O4 Zn5 2.035 . S
Zn5 O4 2.035 . S
Zn5 O6 2.028 . S
Zn5 O8 2.028 . S
Zn5 O11 2.035 . S
O6 Zn5 2.028 . S
O6 C12 1.247 . S
O7 Zn3 2.035 . S
O7 C12 1.258 . S
O8 C1 1.247 . S
O8 Zn5 2.028 . S
O9 C1 1.258 . S
O9 Zn3 2.035 . S
O10 Zn3 2.028 . S
O10 C13 1.247 . S
O11 Zn5 2.035 . S
O11 C13 1.258 . S
C12 O6 1.247 . S
C12 O7 1.258 . S
C13 O10 1.247 . S
C13 O11 1.258 . S
C14 O16 1.247 . S
C14 O18 1.258 . S
C15 O22 1.247 . S
C15 O23 1.258 . S
O16 C14 1.247 . S
O16 Zn17 2.028 . S
Zn17 O16 2.028 . S
Zn17 O21 2.035 . S
Zn17 O23 2.035 . S
Zn17 O24 2.028 . S
O18 C14 1.258 . S
O18 Zn19 2.035 . S
Zn19 O18 2.035 . S
Zn19 O20 2.028 . S
Zn19 O22 2.028 . S
Zn19 O25 2.035 . S
O20 Zn19 2.028 . S
O20 C26 1.247 . S
O21 Zn17 2.035 . S
O21 C26 1.258 . S
O22 C15 1.247 . S
O22 Zn19 2.028 . S
O23 C15 1.258 . S
O23 Zn17 2.035 . S
O24 Zn17 2.028 . S
O24 C27 1.247 . S
O25 Zn19 2.035 . S
O25 C27 1.258 . S
C26 O20 1.247 . S
C26 O21 1.258 . S
C27 O24 1.247 . S
C27 O25 1.258 . S
C28 O30 1.247 . S
C28 O32 1.258 . S
C29 O36 1.247 . S
C29 O37 1.258 . S
O30 C28 1.247 . S
O30 Zn31 2.028 . S
Zn31 O30 2.028 . S
Zn31 O35 2.035 . S
Zn31 O37 2.035 1_556 S
Zn31 O38 2.026 1_556 S
O32 C28 1.258 . S
O32 Zn33 2.035 1_556 S
Zn33 O32 2.035 1_554 S
Zn33 O34 2.028 1_554 S
Zn33 O36 2.028 . S
Zn33 O39 2.035 . S
O34 Zn33 2.028 1_556 S
O34 C40 1.247 . S
O35 Zn31 2.035 . S
O35 C40 1.258 . S
O36 C29 1.247 . S
O36 Zn33 2.028 . S
O37 C29 1.258 . S
O37 Zn31 2.035 1_554 S
O38 Zn31 2.026 1_554 S
O38 C41 1.248 . S
O39 Zn33 2.035 . S
O39 C41 1.258 . S
C40 O34 1.247 . S
C40 O35 1.258 . S
C41 O38 1.248 . S
C41 O39 1.258 . S
C42 O44 1.247 . S
C42 O46 1.258 . S
C43 O50 1.248 . S
C43 O51 1.258 . S
O44 C42 1.247 . S
O44 Zn45 2.028 1_556 S
Zn45 O44 2.028 1_554 S
Zn45 O49 2.035 1_554 S
Zn45 O51 2.035 . S
Zn45 O52 2.028 . S
O46 C42 1.258 . S
O46 Zn47 2.035 . S
Zn47 O46 2.035 . S
Zn47 O48 2.028 . S
Zn47 O50 2.026 1_556 S
Zn47 O53 2.035 1_556 S
O48 Zn47 2.028 . S
O48 C54 1.247 . S
O49 Zn45 2.035 1_556 S
O49 C54 1.258 . S
O50 C43 1.248 . S
O50 Zn47 2.026 1_554 S
O51 C43 1.258 . S
O51 Zn45 2.035 . S
O52 Zn45 2.028 . S
O52 C55 1.247 . S
O53 Zn47 2.035 1_554 S
O53 C55 1.258 . S
C54 O48 1.247 . S
C54 O49 1.258 . S
C55 O52 1.247 . S
C55 O53 1.258 . S
C56 O58 1.247 . S
C56 O60 1.258 . S
C57 O64 1.247 . S
C57 O65 1.258 . S
O58 C56 1.247 . S
O58 Zn59 2.028 . S
Zn59 O58 2.028 . S
Zn59 O63 2.035 . S
Zn59 O65 2.035 . S
Zn59 O66 2.028 . S
O60 C56 1.258 . S
O60 Zn61 2.035 . S
Zn61 O60 2.035 . S
Zn61 O62 2.028 . S
Zn61 O64 2.028 . S
Zn61 O67 2.035 . S
O62 Zn61 2.028 . S
O62 C68 1.247 . S
O63 Zn59 2.035 . S
O63 C68 1.258 . S
O64 C57 1.247 . S
O64 Zn61 2.028 . S
O65 C57 1.258 . S
O65 Zn59 2.035 . S
O66 Zn59 2.028 . S
O66 C69 1.247 . S
O67 Zn61 2.035 . S
O67 C69 1.258 . S
C68 O62 1.247 . S
C68 O63 1.258 . S
C69 O66 1.247 . S
C69 O67 1.258 . S
C70 O72 1.247 . S
C70 O74 1.258 . S
C71 O78 1.247 . S
C71 O79 1.258 . S
O72 C70 1.247 . S
O72 Zn73 2.028 . S
Zn73 O72 2.028 . S
Zn73 O77 2.035 . S
Zn73 O79 2.035 . S
Zn73 O80 2.028 . S
O74 C70 1.258 . S
O74 Zn75 2.035 . S
Zn75 O74 2.035 . S
Zn75 O76 2.028 . S
Zn75 O78 2.028 . S
Zn75 O81 2.035 . S
O76 Zn75 2.028 . S
O76 C82 1.247 . S
O77 Zn73 2.035 . S
O77 C82 1.258 . S
O78 C71 1.247 . S
O78 Zn75 2.028 . S
O79 C71 1.258 . S
O79 Zn73 2.035 . S
O80 Zn73 2.028 . S
O80 C83 1.247 . S
O81 Zn75 2.035 . S
O81 C83 1.258 . S
C82 O76 1.247 . S
C82 O77 1.258 . S
C83 O80 1.247 . S
C83 O81 1.258 . S
C84 O86 1.247 . S
C84 O88 1.258 . S
C85 O92 1.247 . S
C85 O93 1.258 . S
O86 C84 1.247 . S
O86 Zn87 2.028 1_554 S
Zn87 O86 2.028 1_556 S
Zn87 O91 2.032 1_556 S
Zn87 O93 2.035 . S
Zn87 O94 2.028 . S
O88 C84 1.258 . S
O88 Zn89 2.035 . S
Zn89 O88 2.035 . S
Zn89 O90 2.028 . S
Zn89 O92 2.028 1_554 S
Zn89 O95 2.034 1_554 S
O90 Zn89 2.028 . S
O90 C96 1.247 . S
O91 Zn87 2.032 1_554 S
O91 C96 1.261 . S
O92 C85 1.247 . S
O92 Zn89 2.028 1_556 S
O93 C85 1.258 . S
O93 Zn87 2.035 . S
O94 Zn87 2.028 . S
O94 C97 1.247 . S
O95 Zn89 2.034 1_556 S
O95 C97 1.259 . S
C96 O90 1.247 . S
C96 O91 1.261 . S
C97 O94 1.247 . S
C97 O95 1.259 . S
C98 O100 1.247 . S
C98 O102 1.258 . S
C99 O106 1.247 . S
C99 O107 1.258 . S
O100 C98 1.247 . S
O100 Zn101 2.028 . S
Zn101 O100 2.028 . S
Zn101 O105 2.035 . S
Zn101 O107 2.035 1_556 S
Zn101 O108 2.028 1_556 S
O102 C98 1.258 . S
O102 Zn103 2.035 1_556 S
Zn103 O102 2.035 1_554 S
Zn103 O104 2.026 1_554 S
Zn103 O106 2.028 . S
Zn103 O109 2.035 . S
O104 Zn103 2.026 1_556 S
O104 C110 1.248 . S
O105 Zn101 2.035 . S
O105 C110 1.258 . S
O106 C99 1.247 . S
O106 Zn103 2.028 . S
O107 C99 1.258 . S
O107 Zn101 2.035 1_554 S
O108 Zn101 2.028 1_554 S
O108 C111 1.247 . S
O109 Zn103 2.035 . S
O109 C111 1.258 . S
C110 O104 1.248 . S
C110 O105 1.258 . S
C111 O108 1.247 . S
C111 O109 1.258 . S
C112 O114 1.247 . S
C112 O116 1.258 . S
C113 O120 1.247 . S
C113 O121 1.258 . S
O114 C112 1.247 . S
O114 Zn115 2.028 . S
Zn115 O114 2.028 . S
Zn115 O119 2.035 . S
Zn115 O121 2.035 . S
Zn115 O122 2.028 . S
O116 C112 1.258 . S
O116 Zn117 2.035 . S
Zn117 O116 2.035 . S
Zn117 O118 2.028 . S
Zn117 O120 2.028 . S
Zn117 O123 2.035 . S
O118 Zn117 2.028 . S
O118 C124 1.247 . S
O119 Zn115 2.035 . S
O119 C124 1.258 . S
O120 C113 1.247 . S
O120 Zn117 2.028 . S
O121 C113 1.258 . S
O121 Zn115 2.035 . S
O122 Zn115 2.028 . S
O122 C125 1.247 . S
O123 Zn117 2.035 . S
O123 C125 1.258 . S
C124 O118 1.247 . S
C124 O119 1.258 . S
C125 O122 1.247 . S
C125 O123 1.258 . S
C126 O128 1.247 . S
C126 O130 1.258 . S
C127 O134 1.247 . S
C127 O135 1.258 . S
O128 C126 1.247 . S
O128 Zn129 2.028 . S
Zn129 O128 2.028 . S
Zn129 O133 2.035 . S
Zn129 O135 2.035 . S
Zn129 O136 2.028 . S
O130 C126 1.258 . S
O130 Zn131 2.035 . S
Zn131 O130 2.035 . S
Zn131 O132 2.028 . S
Zn131 O134 2.028 . S
Zn131 O137 2.035 . S
O132 Zn131 2.028 . S
O132 C138 1.247 . S
O133 Zn129 2.035 . S
O133 C138 1.258 . S
O134 C127 1.247 . S
O134 Zn131 2.028 . S
O135 C127 1.258 . S
O135 Zn129 2.035 . S
O136 Zn129 2.028 . S
O136 C139 1.247 . S
O137 Zn131 2.035 . S
O137 C139 1.258 . S
C138 O132 1.247 . S
C138 O133 1.258 . S
C139 O136 1.247 . S
C139 O137 1.258 . S
C140 O142 1.247 . S
C140 O144 1.258 . S
C141 O148 1.247 . S
C141 O149 1.258 . S
O142 C140 1.247 . S
O142 Zn143 2.028 . S
Zn143 O142 2.028 . S
Zn143 O147 2.035 . S
Zn143 O149 2.035 . S
Zn143 O150 2.028 . S
O144 C140 1.258 . S
O144 Zn145 2.035 . S
Zn145 O144 2.035 . S
Zn145 O146 2.028 . S
Zn145 O148 2.028 . S
Zn145 O151 2.035 . S
O146 Zn145 2.028 . S
O146 C152 1.247 . S
O147 Zn143 2.035 . S
O147 C152 1.258 . S
O148 C141 1.247 . S
O148 Zn145 2.028 . S
O149 C141 1.258 . S
O149 Zn143 2.035 . S
O150 Zn143 2.028 . S
O150 C153 1.247 . S
O151 Zn145 2.035 . S
O151 C153 1.258 . S
C152 O146 1.247 . S
C152 O147 1.258 . S
C153 O150 1.247 . S
C153 O151 1.258 . S
C154 O156 1.247 . S
C154 O158 1.258 . S
C155 O162 1.247 . S
C155 O163 1.258 . S
O156 C154 1.247 . S
O156 Zn157 2.028 . S
Zn157 O156 2.028 . S
Zn157 O161 2.035 . S
Zn157 O163 2.035 . S
Zn157 O164 2.028 . S
O158 C154 1.258 . S
O158 Zn159 2.035 . S
Zn159 O158 2.035 . S
Zn159 O160 2.028 . S
Zn159 O162 2.028 . S
Zn159 O165 2.035 . S
O160 Zn159 2.028 . S
O160 C166 1.247 . S
O161 Zn157 2.035 . S
O161 C166 1.258 . S
O162 C155 1.247 . S
O162 Zn159 2.028 . S
O163 C155 1.258 . S
O163 Zn157 2.035 . S
O164 Zn157 2.028 . S
O164 C167 1.247 . S
O165 Zn159 2.035 . S
O165 C167 1.258 . S
C166 O160 1.247 . S
C166 O161 1.258 . S
C167 O164 1.247 . S
C167 O165 1.258 . S
C168 O170 1.247 . S
C168 O172 1.258 . S
C169 O176 1.247 . S
C169 O177 1.258 . S
O170 C168 1.247 . S
O170 Zn171 2.028 . S
Zn171 O170 2.028 . S
Zn171 O175 2.035 . S
Zn171 O177 2.035 . S
Zn171 O178 2.028 . S
O172 C168 1.258 . S
O172 Zn173 2.035 . S
Zn173 O172 2.035 . S
Zn173 O174 2.028 . S
Zn173 O176 2.028 . S
Zn173 O179 2.035 . S
O174 Zn173 2.028 . S
O174 C180 1.247 . S
O175 Zn171 2.035 . S
O175 C180 1.258 . S
O176 C169 1.247 . S
O176 Zn173 2.028 . S
O177 C169 1.258 . S
O177 Zn171 2.035 . S
O178 Zn171 2.028 . S
O178 C181 1.247 . S
O179 Zn173 2.035 . S
O179 C181 1.258 . S
C180 O174 1.247 . S
C180 O175 1.258 . S
C181 O178 1.247 . S
C181 O179 1.258 . S
C182 O184 1.247 . S
C182 O186 1.258 . S
C183 O190 1.247 . S
C183 O191 1.258 . S
O184 C182 1.247 . S
O184 Zn185 2.028 . S
Zn185 O184 2.028 . S
Zn185 O189 2.035 . S
Zn185 O191 2.035 . S
Zn185 O192 2.028 . S
O186 C182 1.258 . S
O186 Zn187 2.035 . S
Zn187 O186 2.035 . S
Zn187 O188 2.028 . S
Zn187 O190 2.028 . S
Zn187 O193 2.035 . S
O188 Zn187 2.028 . S
O188 C194 1.247 . S
O189 Zn185 2.035 . S
O189 C194 1.258 . S
O190 C183 1.247 . S
O190 Zn187 2.028 . S
O191 C183 1.258 . S
O191 Zn185 2.035 . S
O192 Zn185 2.028 . S
O192 C195 1.247 . S
O193 Zn187 2.035 . S
O193 C195 1.258 . S
C194 O188 1.247 . S
C194 O189 1.258 . S
C195 O192 1.247 . S
C195 O193 1.258 . S
C196 O198 1.247 . S
C196 O200 1.258 . S
C197 O204 1.247 . S
C197 O205 1.258 . S
O198 C196 1.247 . S
O198 Zn199 2.028 . S
Zn199 O198 2.028 . S
Zn199 O203 2.035 . S
Zn199 O205 2.035 . S
Zn199 O206 2.028 . S
O200 C196 1.258 . S
O200 Zn201 2.035 . S
Zn201 O200 2.035 . S
Zn201 O202 2.028 . S
Zn201 O204 2.028 . S
Zn201 O207 2.035 . S
O202 Zn201 2.028 . S
O202 C208 1.247 . S
O203 Zn199 2.035 . S
O203 C208 1.258 . S
O204 C197 1.247 . S
O204 Zn201 2.028 . S
O205 C197 1.258 . S
O205 Zn199 2.035 . S
O206 Zn199 2.028 . S
O206 C209 1.247 . S
O207 Zn201 2.035 . S
O207 C209 1.258 . S
C208 O202 1.247 . S
C208 O203 1.258 . S
C209 O206 1.247 . S
C209 O207 1.258 . S
C210 O212 1.247 . S
C210 O214 1.258 . S
C211 O218 1.247 . S
C211 O219 1.258 . S
O212 C210 1.247 . S
O212 Zn213 2.028 . S
Zn213 O212 2.028 . S
Zn213 O217 2.035 . S
Zn213 O219 2.035 . S
Zn213 O220 2.028 . S
O214 C210 1.258 . S
O214 Zn215 2.035 . S
Zn215 O214 2.035 . S
Zn215 O216 2.028 . S
Zn215 O218 2.028 . S
Zn215 O221 2.035 . S
O216 Zn215 2.028 . S
O216 C222 1.247 . S
O217 Zn213 2.035 . S
O217 C222 1.258 . S
O218 C211 1.247 . S
O218 Zn215 2.028 . S
O219 C211 1.258 . S
O219 Zn213 2.035 . S
O220 Zn213 2.028 . S
O220 C223 1.247 . S
O221 Zn215 2.035 . S
O221 C223 1.258 . S
C222 O216 1.247 . S
C222 O217 1.258 . S
C223 O220 1.247 . S
C223 O221 1.258 . S
C224 O226 1.247 . S
C224 O228 1.258 . S
C225 O232 1.247 . S
C225 O233 1.258 . S
O226 C224 1.247 . S
O226 Zn227 2.028 . S
Zn227 O226 2.028 . S
Zn227 O231 2.035 . S
Zn227 O233 2.035 . S
Zn227 O234 2.028 . S
O228 C224 1.258 . S
O228 Zn229 2.035 . S
Zn229 O228 2.035 . S
Zn229 O230 2.028 . S
Zn229 O232 2.028 . S
Zn229 O235 2.035 . S
O230 Zn229 2.028 . S
O230 C236 1.247 . S
O231 Zn227 2.035 . S
O231 C236 1.258 . S
O232 C225 1.247 . S
O232 Zn229 2.028 . S
O233 C225 1.258 . S
O233 Zn227 2.035 . S
O234 Zn227 2.028 . S
O234 C237 1.247 . S
O235 Zn229 2.035 . S
O235 C237 1.258 . S
C236 O230 1.247 . S
C236 O231 1.258 . S
C237 O234 1.247 . S
C237 O235 1.258 . S
C238 O240 1.247 . S
C238 O242 1.258 . S
C239 O246 1.247 . S
C239 O247 1.258 . S
O240 C238 1.247 . S
O240 Zn241 2.028 . S
Zn241 O240 2.028 . S
Zn241 O245 2.035 . S
Zn241 O247 2.035 . S
Zn241 O248 2.028 . S
O242 C238 1.258 . S
O242 Zn243 2.035 . S
Zn243 O242 2.035 . S
Zn243 O244 2.028 . S
Zn243 O246 2.028 . S
Zn243 O249 2.035 . S
O244 Zn243 2.028 . S
O244 C250 1.247 . S
O245 Zn241 2.035 . S
O245 C250 1.258 . S
O246 C239 1.247 . S
O246 Zn243 2.028 . S
O247 C239 1.258 . S
O247 Zn241 2.035 . S
O248 Zn241 2.028 . S
O248 C251 1.247 . S
O249 Zn243 2.035 . S
O249 C251 1.258 . S
C250 O244 1.247 . S
C250 O245 1.258 . S
C251 O248 1.247 . S
C251 O249 1.258 . S
C252 O254 1.247 . S
C252 O256 1.258 . S
C253 O260 1.247 . S
C253 O261 1.258 . S
O254 C252 1.247 . S
O254 Zn255 2.028 . S
Zn255 O254 2.028 . S
Zn255 O259 2.035 . S
Zn255 O261 2.035 . S
Zn255 O262 2.028 . S
O256 C252 1.258 . S
O256 Zn257 2.035 . S
Zn257 O256 2.035 . S
Zn257 O258 2.028 . S
Zn257 O260 2.028 . S
Zn257 O263 2.035 . S
O258 Zn257 2.028 . S
O258 C264 1.247 . S
O259 Zn255 2.035 . S
O259 C264 1.258 . S
O260 C253 1.247 . S
O260 Zn257 2.028 . S
O261 C253 1.258 . S
O261 Zn255 2.035 . S
O262 Zn255 2.028 . S
O262 C265 1.247 . S
O263 Zn257 2.035 . S
O263 C265 1.258 . S
C264 O258 1.247 . S
C264 O259 1.258 . S
C265 O262 1.247 . S
C265 O263 1.258 . S
C266 O268 1.247 . S
C266 O270 1.258 . S
C267 O274 1.247 . S
C267 O275 1.258 . S
O268 C266 1.247 . S
O268 Zn269 2.028 . S
Zn269 O268 2.028 . S
Zn269 O273 2.035 . S
Zn269 O275 2.035 . S
Zn269 O276 2.028 . S
O270 C266 1.258 . S
O270 Zn271 2.035 . S
Zn271 O270 2.035 . S
Zn271 O272 2.028 . S
Zn271 O274 2.028 . S
Zn271 O277 2.035 . S
O272 Zn271 2.028 . S
O272 C278 1.247 . S
O273 Zn269 2.035 . S
O273 C278 1.258 . S
O274 C267 1.247 . S
O274 Zn271 2.028 . S
O275 C267 1.258 . S
O275 Zn269 2.035 . S
O276 Zn269 2.028 . S
O276 C279 1.247 . S
O277 Zn271 2.035 . S
O277 C279 1.258 . S
C278 O272 1.247 . S
C278 O273 1.258 . S
C279 O276 1.247 . S
C279 O277 1.258 . S
C280 O282 1.247 . S
C280 O284 1.258 . S
C281 O288 1.247 . S
C281 O289 1.258 . S
O282 C280 1.247 . S
O282 Zn283 2.028 . S
Zn283 O282 2.028 . S
Zn283 O287 2.035 . S
Zn283 O289 2.035 . S
Zn283 O290 2.028 . S
O284 C280 1.258 . S
O284 Zn285 2.035 . S
Zn285 O284 2.035 . S
Zn285 O286 2.028 . S
Zn285 O288 2.028 . S
Zn285 O291 2.035 . S
O286 Zn285 2.028 . S
O286 C292 1.247 . S
O287 Zn283 2.035 . S
O287 C292 1.258 . S
O288 C281 1.247 . S
O288 Zn285 2.028 . S
O289 C281 1.258 . S
O289 Zn283 2.035 . S
O290 Zn283 2.028 . S
O290 C293 1.247 . S
O291 Zn285 2.035 . S
O291 C293 1.258 . S
C292 O286 1.247 . S
C292 O287 1.258 . S
C293 O290 1.247 . S
C293 O291 1.258 . S
C294 O296 1.247 . S
C294 O298 1.258 . S
C295 O302 1.247 . S
C295 O303 1.258 . S
O296 C294 1.247 . S
O296 Zn297 2.028 . S
Zn297 O296 2.028 . S
Zn297 O301 2.035 . S
Zn297 O303 2.035 . S
Zn297 O304 2.028 . S
O298 C294 1.258 . S
O298 Zn299 2.035 . S
Zn299 O298 2.035 . S
Zn299 O300 2.028 . S
Zn299 O302 2.028 . S
Zn299 O305 2.035 . S
O300 Zn299 2.028 . S
O300 C306 1.247 . S
O301 Zn297 2.035 . S
O301 C306 1.258 . S
O302 C295 1.247 . S
O302 Zn299 2.028 . S
O303 C295 1.258 . S
O303 Zn297 2.035 . S
O304 Zn297 2.028 . S
O304 C307 1.247 . S
O305 Zn299 2.035 . S
O305 C307 1.258 . S
C306 O300 1.247 . S
C306 O301 1.258 . S
C307 O304 1.247 . S
C307 O305 1.258 . S
C308 O310 1.247 . S
C308 O312 1.258 . S
C309 O316 1.247 . S
C309 O317 1.258 . S
O310 C308 1.247 . S
O310 Zn311 2.028 . S
Zn311 O310 2.028 . S
Zn311 O315 2.035 . S
Zn311 O317 2.035 . S
Zn311 O318 2.028 . S
O312 C308 1.258 . S
O312 Zn313 2.035 . S
Zn313 O312 2.035 . S
Zn313 O314 2.028 . S
Zn313 O316 2.028 . S
Zn313 O319 2.035 . S
O314 Zn313 2.028 . S
O314 C320 1.247 . S
O315 Zn311 2.035 . S
O315 C320 1.258 . S
O316 C309 1.247 . S
O316 Zn313 2.028 . S
O317 C309 1.258 . S
O317 Zn311 2.035 . S
O318 Zn311 2.028 . S
O318 C321 1.247 . S
O319 Zn313 2.035 . S
O319 C321 1.258 . S
C320 O314 1.247 . S
C320 O315 1.258 . S
C321 O318 1.247 . S
C321 O319 1.258 . S
C322 O324 1.247 . S
C322 O326 1.258 . S
C323 O330 1.247 . S
C323 O331 1.258 . S
O324 C322 1.247 . S
O324 Zn325 2.028 . S
Zn325 O324 2.028 . S
Zn325 O329 2.035 . S
Zn325 O331 2.035 . S
Zn325 O332 2.028 . S
O326 C322 1.258 . S
O326 Zn327 2.035 . S
Zn327 O326 2.035 . S
Zn327 O328 2.028 . S
Zn327 O330 2.028 . S
Zn327 O333 2.035 . S
O328 Zn327 2.028 . S
O328 C334 1.247 . S
O329 Zn325 2.035 . S
O329 C334 1.258 . S
O330 C323 1.247 . S
O330 Zn327 2.028 . S
O331 C323 1.258 . S
O331 Zn325 2.035 . S
O332 Zn325 2.028 . S
O332 C335 1.247 . S
O333 Zn327 2.035 . S
O333 C335 1.258 . S
C334 O328 1.247 . S
C334 O329 1.258 . S
C335 O332 1.247 . S
C335 O333 1.258 . S
C336 O338 1.247 . S
C336 O340 1.258 . S
C337 O344 1.247 . S
C337 O345 1.258 . S
O338 C336 1.247 . S
O338 Zn339 2.028 . S
Zn339 O338 2.028 . S
Zn339 O343 2.035 . S
Zn339 O345 2.035 . S
Zn339 O346 2.028 . S
O340 C336 1.258 . S
O340 Zn341 2.035 . S
Zn341 O340 2.035 . S
Zn341 O342 2.028 . S
Zn341 O344 2.028 . S
Zn341 O347 2.035 . S
O342 Zn341 2.028 . S
O342 C348 1.247 . S
O343 Zn339 2.035 . S
O343 C348 1.258 . S
O344 C337 1.247 . S
O344 Zn341 2.028 . S
O345 C337 1.258 . S
O345 Zn339 2.035 . S
O346 Zn339 2.028 . S
O346 C349 1.247 . S
O347 Zn341 2.035 . S
O347 C349 1.258 . S
C348 O342 1.247 . S
C348 O343 1.258 . S
C349 O346 1.247 . S
C349 O347 1.258 . S
C350 O352 1.247 . S
C350 O354 1.258 . S
C351 O358 1.247 . S
C351 O359 1.258 . S
O352 C350 1.247 . S
O352 Zn353 2.028 . S
Zn353 O352 2.028 . S
Zn353 O357 2.035 . S
Zn353 O359 2.035 . S
Zn353 O360 2.028 . S
O354 C350 1.258 . S
O354 Zn355 2.035 . S
Zn355 O354 2.035 . S
Zn355 O356 2.028 . S
Zn355 O358 2.028 . S
Zn355 O361 2.035 . S
O356 Zn355 2.028 . S
O356 C362 1.247 . S
O357 Zn353 2.035 . S
O357 C362 1.258 . S
O358 C351 1.247 . S
O358 Zn355 2.028 . S
O359 C351 1.258 . S
O359 Zn353 2.035 . S
O360 Zn353 2.028 . S
O360 C363 1.247 . S
O361 Zn355 2.035 . S
O361 C363 1.258 . S
C362 O356 1.247 . S
C362 O357 1.258 . S
C363 O360 1.247 . S
C363 O361 1.258 . S
C364 O366 1.247 . S
C364 O368 1.258 . S
C365 O372 1.247 . S
C365 O373 1.258 . S
O366 C364 1.247 . S
O366 Zn367 2.028 1_554 S
Zn367 O366 2.028 1_556 S
Zn367 O371 2.034 1_556 S
Zn367 O373 2.035 . S
Zn367 O374 2.028 . S
O368 C364 1.258 . S
O368 Zn369 2.035 . S
Zn369 O368 2.035 . S
Zn369 O370 2.028 . S
Zn369 O372 2.028 1_554 S
Zn369 O375 2.032 1_554 S
O370 Zn369 2.028 . S
O370 C376 1.247 . S
O371 Zn367 2.034 1_554 S
O371 C376 1.259 . S
O372 C365 1.247 . S
O372 Zn369 2.028 1_556 S
O373 C365 1.258 . S
O373 Zn367 2.035 . S
O374 Zn367 2.028 . S
O374 C377 1.247 . S
O375 Zn369 2.032 1_556 S
O375 C377 1.261 . S
C376 O370 1.247 . S
C376 O371 1.259 . S
C377 O374 1.247 . S
C377 O375 1.261 . S
C378 O380 1.247 . S
C378 O382 1.258 . S
C379 O386 1.247 . S
C379 O387 1.258 . S
O380 C378 1.247 . S
O380 Zn381 2.028 1_554 S
Zn381 O380 2.028 1_556 S
Zn381 O385 2.034 1_556 S
Zn381 O387 2.035 . S
Zn381 O388 2.028 . S
O382 C378 1.258 . S
O382 Zn383 2.035 . S
Zn383 O382 2.035 . S
Zn383 O384 2.028 . S
Zn383 O386 2.028 1_554 S
Zn383 O389 2.032 1_554 S
O384 Zn383 2.028 . S
O384 C390 1.247 . S
O385 Zn381 2.034 1_554 S
O385 C390 1.259 . S
O386 C379 1.247 . S
O386 Zn383 2.028 1_556 S
O387 C379 1.258 . S
O387 Zn381 2.035 . S
O388 Zn381 2.028 . S
O388 C391 1.247 . S
O389 Zn383 2.032 1_556 S
O389 C391 1.261 . S
C390 O384 1.247 . S
C390 O385 1.259 . S
C391 O388 1.247 . S
C391 O389 1.261 . S
C392 O394 1.247 . S
C392 O396 1.258 . S
C393 O400 1.247 . S
C393 O401 1.258 . S
O394 C392 1.247 . S
O394 Zn395 2.028 . S
Zn395 O394 2.028 . S
Zn395 O399 2.035 . S
Zn395 O401 2.035 . S
Zn395 O402 2.028 . S
O396 C392 1.258 . S
O396 Zn397 2.035 . S
Zn397 O396 2.035 . S
Zn397 O398 2.028 . S
Zn397 O400 2.028 . S
Zn397 O403 2.035 . S
O398 Zn397 2.028 . S
O398 C404 1.247 . S
O399 Zn395 2.035 . S
O399 C404 1.258 . S
O400 C393 1.247 . S
O400 Zn397 2.028 . S
O401 C393 1.258 . S
O401 Zn395 2.035 . S
O402 Zn395 2.028 . S
O402 C405 1.247 . S
O403 Zn397 2.035 . S
O403 C405 1.258 . S
C404 O398 1.247 . S
C404 O399 1.258 . S
C405 O402 1.247 . S
C405 O403 1.258 . S
C406 O408 1.247 . S
C406 O410 1.258 . S
C407 O414 1.247 . S
C407 O415 1.258 . S
O408 C406 1.247 . S
O408 Zn409 2.028 . S
Zn409 O408 2.028 . S
Zn409 O413 2.035 . S
Zn409 O415 2.035 . S
Zn409 O416 2.028 . S
O410 C406 1.258 . S
O410 Zn411 2.035 . S
Zn411 O410 2.035 . S
Zn411 O412 2.028 . S
Zn411 O414 2.028 . S
Zn411 O417 2.035 . S
O412 Zn411 2.028 . S
O412 C418 1.247 . S
O413 Zn409 2.035 . S
O413 C418 1.258 . S
O414 C407 1.247 . S
O414 Zn411 2.028 . S
O415 C407 1.258 . S
O415 Zn409 2.035 . S
O416 Zn409 2.028 . S
O416 C419 1.247 . S
O417 Zn411 2.035 . S
O417 C419 1.258 . S
C418 O412 1.247 . S
C418 O413 1.258 . S
C419 O416 1.247 . S
C419 O417 1.258 . S
C420 O422 1.247 . S
C420 O424 1.258 . S
C421 O428 1.247 . S
C421 O429 1.258 . S
O422 C420 1.247 . S
O422 Zn423 2.028 1_554 S
Zn423 O422 2.028 1_556 S
Zn423 O427 2.032 1_556 S
Zn423 O429 2.035 . S
Zn423 O430 2.028 . S
O424 C420 1.258 . S
O424 Zn425 2.035 . S
Zn425 O424 2.035 . S
Zn425 O426 2.028 . S
Zn425 O428 2.028 1_554 S
Zn425 O431 2.034 1_554 S
O426 Zn425 2.028 . S
O426 C432 1.247 . S
O427 Zn423 2.032 1_554 S
O427 C432 1.261 . S
O428 C421 1.247 . S
O428 Zn425 2.028 1_556 S
O429 C421 1.258 . S
O429 Zn423 2.035 . S
O430 Zn423 2.028 . S
O430 C433 1.247 . S
O431 Zn425 2.034 1_556 S
O431 C433 1.259 . S
C432 O426 1.247 . S
C432 O427 1.261 . S
C433 O430 1.247 . S
C433 O431 1.259 . S
C434 O436 1.247 . S
C434 O438 1.258 . S
C435 O442 1.247 . S
C435 O443 1.258 . S
O436 C434 1.247 . S
O436 Zn437 2.028 1_554 S
Zn437 O436 2.028 1_556 S
Zn437 O441 2.032 1_556 S
Zn437 O443 2.035 . S
Zn437 O444 2.028 . S
O438 C434 1.258 . S
O438 Zn439 2.035 . S
Zn439 O438 2.035 . S
Zn439 O440 2.028 . S
Zn439 O442 2.028 1_554 S
Zn439 O445 2.034 1_554 S
O440 Zn439 2.028 . S
O440 C446 1.247 . S
O441 Zn437 2.032 1_554 S
O441 C446 1.261 . S
O442 C435 1.247 . S
O442 Zn439 2.028 1_556 S
O443 C435 1.258 . S
O443 Zn437 2.035 . S
O444 Zn437 2.028 . S
O444 C447 1.247 . S
O445 Zn439 2.034 1_556 S
O445 C447 1.259 . S
C446 O440 1.247 . S
C446 O441 1.261 . S
C447 O444 1.247 . S
C447 O445 1.259 . S
H448 C454 0.930 . S
H449 C458 0.930 . S
H450 C463 0.929 . S
H451 C461 0.929 . S
H452 C456 0.929 . S
H453 C462 0.929 . S
C454 H448 0.930 . S
C454 C455 1.367 . S
C454 C462 1.378 . S
C455 C454 1.367 . S
C455 C463 1.433 . S
C456 H452 0.929 . S
C456 C458 1.378 . S
C456 C460 1.350 . S
C457 C460 1.463 . S
C457 C462 1.350 . S
C457 N465 1.427 . S
C458 H449 0.930 . S
C458 C456 1.378 . S
C458 C459 1.367 . S
C459 C458 1.367 . S
C459 C461 1.433 . S
C460 C456 1.350 . S
C460 C457 1.463 . S
C460 N464 1.427 . S
C461 H451 0.929 . S
C461 C459 1.433 . S
C461 N464 1.384 . S
C462 H453 0.929 . S
C462 C454 1.378 . S
C462 C457 1.350 . S
C463 H450 0.929 . S
C463 C455 1.433 . S
C463 N465 1.384 . S
N464 C460 1.427 . S
N464 C461 1.384 . S
N465 C457 1.427 . S
N465 C463 1.384 . S
H466 C472 0.930 . S
H467 C476 0.930 . S
H468 C481 0.929 . S
H469 C479 0.929 . S
H470 C474 0.929 . S
H471 C480 0.929 . S
C472 H466 0.930 . S
C472 C473 1.367 . S
C472 C480 1.378 . S
C473 C472 1.367 . S
C473 C481 1.433 . S
C474 H470 0.929 . S
C474 C476 1.378 . S
C474 C478 1.350 . S
C475 C478 1.463 . S
C475 C480 1.350 . S
C475 N483 1.427 . S
C476 H467 0.930 . S
C476 C474 1.378 . S
C476 C477 1.367 . S
C477 C476 1.367 . S
C477 C479 1.433 . S
C478 C474 1.350 . S
C478 C475 1.463 . S
C478 N482 1.427 . S
C479 H469 0.929 . S
C479 C477 1.433 . S
C479 N482 1.384 . S
C480 H471 0.929 . S
C480 C472 1.378 . S
C480 C475 1.350 . S
C481 H468 0.929 . S
C481 C473 1.433 . S
C481 N483 1.384 . S
N482 C478 1.427 . S
N482 C479 1.384 . S
N483 C475 1.427 . S
N483 C481 1.384 . S
H484 C490 0.930 . S
H485 C494 0.930 . S
H486 C499 0.929 . S
H487 C497 0.929 . S
H488 C492 0.929 . S
H489 C498 0.929 . S
C490 H484 0.930 . S
C490 C491 1.367 . S
C490 C498 1.378 . S
C491 C490 1.367 . S
C491 C499 1.433 . S
C492 H488 0.929 . S
C492 C494 1.378 . S
C492 C496 1.350 . S
C493 C496 1.463 . S
C493 C498 1.350 . S
C493 N501 1.427 . S
C494 H485 0.930 . S
C494 C492 1.378 . S
C494 C495 1.367 . S
C495 C494 1.367 . S
C495 C497 1.433 . S
C496 C492 1.350 . S
C496 C493 1.463 . S
C496 N500 1.427 . S
C497 H487 0.929 . S
C497 C495 1.433 . S
C497 N500 1.384 . S
C498 H489 0.929 . S
C498 C490 1.378 . S
C498 C493 1.350 . S
C499 H486 0.929 . S
C499 C491 1.433 . S
C499 N501 1.384 . S
N500 C496 1.427 . S
N500 C497 1.384 . S
N501 C493 1.427 . S
N501 C499 1.384 . S
H502 C508 0.930 . S
H503 C512 0.930 . S
H504 C517 0.929 . S
H505 C515 0.929 . S
H506 C510 0.929 . S
H507 C516 0.929 . S
C508 H502 0.930 . S
C508 C509 1.367 . S
C508 C516 1.378 . S
C509 C508 1.367 . S
C509 C517 1.433 . S
C510 H506 0.929 . S
C510 C512 1.378 . S
C510 C514 1.350 . S
C511 C514 1.463 . S
C511 C516 1.350 . S
C511 N519 1.427 . S
C512 H503 0.930 . S
C512 C510 1.378 . S
C512 C513 1.367 . S
C513 C512 1.367 . S
C513 C515 1.433 . S
C514 C510 1.350 . S
C514 C511 1.463 . S
C514 N518 1.427 . S
C515 H505 0.929 . S
C515 C513 1.433 . S
C515 N518 1.384 . S
C516 H507 0.929 . S
C516 C508 1.378 . S
C516 C511 1.350 . S
C517 H504 0.929 . S
C517 C509 1.433 . S
C517 N519 1.384 . S
N518 C514 1.427 . S
N518 C515 1.384 . S
N519 C511 1.427 . S
N519 C517 1.384 . S
H520 C526 0.930 . S
H521 C530 0.930 . S
H522 C535 0.929 . S
H523 C533 0.929 . S
H524 C528 0.929 . S
H525 C534 0.929 . S
C526 H520 0.930 . S
C526 C527 1.367 . S
C526 C534 1.378 . S
C527 C526 1.367 . S
C527 C535 1.433 . S
C528 H524 0.929 . S
C528 C530 1.378 . S
C528 C532 1.350 . S
C529 C532 1.463 . S
C529 C534 1.350 . S
C529 N537 1.427 . S
C530 H521 0.930 . S
C530 C528 1.378 . S
C530 C531 1.367 . S
C531 C530 1.367 . S
C531 C533 1.433 . S
C532 C528 1.350 . S
C532 C529 1.463 . S
C532 N536 1.427 . S
C533 H523 0.929 . S
C533 C531 1.433 . S
C533 N536 1.384 . S
C534 H525 0.929 . S
C534 C526 1.378 . S
C534 C529 1.350 . S
C535 H522 0.929 . S
C535 C527 1.433 . S
C535 N537 1.384 . S
N536 C532 1.427 . S
N536 C533 1.384 . S
N537 C529 1.427 . S
N537 C535 1.384 . S
H538 C544 0.930 . S
H539 C548 0.930 . S
H540 C553 0.929 . S
H541 C551 0.929 . S
H542 C546 0.929 . S
H543 C552 0.929 . S
C544 H538 0.930 . S
C544 C545 1.367 . S
C544 C552 1.378 . S
C545 C544 1.367 . S
C545 C553 1.433 . S
C546 H542 0.929 . S
C546 C548 1.378 . S
C546 C550 1.350 . S
C547 C550 1.463 . S
C547 C552 1.350 . S
C547 N555 1.427 . S
C548 H539 0.930 . S
C548 C546 1.378 . S
C548 C549 1.367 . S
C549 C548 1.367 . S
C549 C551 1.433 . S
C550 C546 1.350 . S
C550 C547 1.463 . S
C550 N554 1.427 . S
C551 H541 0.929 . S
C551 C549 1.433 . S
C551 N554 1.384 . S
C552 H543 0.929 . S
C552 C544 1.378 . S
C552 C547 1.350 . S
C553 H540 0.929 . S
C553 C545 1.433 . S
C553 N555 1.384 . S
N554 C550 1.427 . S
N554 C551 1.384 . S
N555 C547 1.427 . S
N555 C553 1.384 . S
H556 C562 0.930 . S
H557 C566 0.930 . S
H558 C571 0.929 . S
H559 C569 0.929 . S
H560 C564 0.929 . S
H561 C570 0.929 . S
C562 H556 0.930 . S
C562 C563 1.367 . S
C562 C570 1.378 . S
C563 C562 1.367 . S
C563 C571 1.433 . S
C564 H560 0.929 . S
C564 C566 1.378 . S
C564 C568 1.350 . S
C565 C568 1.463 . S
C565 C570 1.350 . S
C565 N573 1.427 . S
C566 H557 0.930 . S
C566 C564 1.378 . S
C566 C567 1.367 . S
C567 C566 1.367 . S
C567 C569 1.433 . S
C568 C564 1.350 . S
C568 C565 1.463 . S
C568 N572 1.427 . S
C569 H559 0.929 . S
C569 C567 1.433 . S
C569 N572 1.384 . S
C570 H561 0.929 . S
C570 C562 1.378 . S
C570 C565 1.350 . S
C571 H558 0.929 . S
C571 C563 1.433 . S
C571 N573 1.384 . S
N572 C568 1.427 . S
N572 C569 1.384 . S
N573 C565 1.427 . S
N573 C571 1.384 . S
H574 C580 0.930 . S
H575 C584 0.930 . S
H576 C589 0.929 . S
H577 C587 0.929 . S
H578 C582 0.929 . S
H579 C588 0.929 . S
C580 H574 0.930 . S
C580 C581 1.367 . S
C580 C588 1.378 . S
C581 C580 1.367 . S
C581 C589 1.433 . S
C582 H578 0.929 . S
C582 C584 1.378 . S
C582 C586 1.350 . S
C583 C586 1.463 . S
C583 C588 1.350 . S
C583 N591 1.427 . S
C584 H575 0.930 . S
C584 C582 1.378 . S
C584 C585 1.367 . S
C585 C584 1.367 . S
C585 C587 1.433 . S
C586 C582 1.350 . S
C586 C583 1.463 . S
C586 N590 1.427 . S
C587 H577 0.929 . S
C587 C585 1.433 . S
C587 N590 1.384 . S
C588 H579 0.929 . S
C588 C580 1.378 . S
C588 C583 1.350 . S
C589 H576 0.929 . S
C589 C581 1.433 . S
C589 N591 1.384 . S
N590 C586 1.427 . S
N590 C587 1.384 . S
N591 C583 1.427 . S
N591 C589 1.384 . S
H592 C598 0.930 . S
H593 C602 0.930 . S
H594 C607 0.929 . S
H595 C605 0.929 . S
H596 C600 0.929 . S
H597 C606 0.929 . S
C598 H592 0.930 . S
C598 C599 1.367 . S
C598 C606 1.378 . S
C599 C598 1.367 . S
C599 C607 1.433 . S
C600 H596 0.929 . S
C600 C602 1.378 . S
C600 C604 1.350 . S
C601 C604 1.463 . S
C601 C606 1.350 . S
C601 N609 1.427 . S
C602 H593 0.930 . S
C602 C600 1.378 . S
C602 C603 1.367 . S
C603 C602 1.367 . S
C603 C605 1.433 . S
C604 C600 1.350 . S
C604 C601 1.463 . S
C604 N608 1.427 . S
C605 H595 0.929 . S
C605 C603 1.433 . S
C605 N608 1.384 . S
C606 H597 0.929 . S
C606 C598 1.378 . S
C606 C601 1.350 . S
C607 H594 0.929 . S
C607 C599 1.433 . S
C607 N609 1.384 . S
N608 C604 1.427 . S
N608 C605 1.384 . S
N609 C601 1.427 . S
N609 C607 1.384 . S
H610 C616 0.930 . S
H611 C620 0.930 . S
H612 C625 0.929 . S
H613 C623 0.929 . S
H614 C618 0.929 . S
H615 C624 0.929 . S
C616 H610 0.930 . S
C616 C617 1.367 . S
C616 C624 1.378 . S
C617 C616 1.367 . S
C617 C625 1.433 . S
C618 H614 0.929 . S
C618 C620 1.378 . S
C618 C622 1.350 . S
C619 C622 1.463 . S
C619 C624 1.350 . S
C619 N627 1.427 . S
C620 H611 0.930 . S
C620 C618 1.378 . S
C620 C621 1.367 . S
C621 C620 1.367 . S
C621 C623 1.433 . S
C622 C618 1.350 . S
C622 C619 1.463 . S
C622 N626 1.427 . S
C623 H613 0.929 . S
C623 C621 1.433 . S
C623 N626 1.384 . S
C624 H615 0.929 . S
C624 C616 1.378 . S
C624 C619 1.350 . S
C625 H612 0.929 . S
C625 C617 1.433 . S
C625 N627 1.384 . S
N626 C622 1.427 . S
N626 C623 1.384 . S
N627 C619 1.427 . S
N627 C625 1.384 . S
H628 C634 0.930 . S
H629 C638 0.930 . S
H630 C643 0.929 . S
H631 C641 0.929 . S
H632 C636 0.929 . S
H633 C642 0.929 . S
C634 H628 0.930 . S
C634 C635 1.367 . S
C634 C642 1.378 . S
C635 C634 1.367 . S
C635 C643 1.433 . S
C636 H632 0.929 . S
C636 C638 1.378 . S
C636 C640 1.350 . S
C637 C640 1.463 . S
C637 C642 1.350 . S
C637 N645 1.427 . S
C638 H629 0.930 . S
C638 C636 1.378 . S
C638 C639 1.367 . S
C639 C638 1.367 . S
C639 C641 1.433 . S
C640 C636 1.350 . S
C640 C637 1.463 . S
C640 N644 1.427 . S
C641 H631 0.929 . S
C641 C639 1.433 . S
C641 N644 1.384 . S
C642 H633 0.929 . S
C642 C634 1.378 . S
C642 C637 1.350 . S
C643 H630 0.929 . S
C643 C635 1.433 . S
C643 N645 1.384 . S
N644 C640 1.427 . S
N644 C641 1.384 . S
N645 C637 1.427 . S
N645 C643 1.384 . S
H646 C652 0.930 . S
H647 C656 0.930 . S
H648 C661 0.929 . S
H649 C659 0.929 . S
H650 C654 0.929 . S
H651 C660 0.929 . S
C652 H646 0.930 . S
C652 C653 1.367 . S
C652 C660 1.378 . S
C653 C652 1.367 . S
C653 C661 1.433 . S
C654 H650 0.929 . S
C654 C656 1.378 . S
C654 C658 1.350 . S
C655 C658 1.463 . S
C655 C660 1.350 . S
C655 N663 1.427 . S
C656 H647 0.930 . S
C656 C654 1.378 . S
C656 C657 1.367 . S
C657 C656 1.367 . S
C657 C659 1.433 . S
C658 C654 1.350 . S
C658 C655 1.463 . S
C658 N662 1.427 . S
C659 H649 0.929 . S
C659 C657 1.433 . S
C659 N662 1.384 . S
C660 H651 0.929 . S
C660 C652 1.378 . S
C660 C655 1.350 . S
C661 H648 0.929 . S
C661 C653 1.433 . S
C661 N663 1.384 . S
N662 C658 1.427 . S
N662 C659 1.384 . S
N663 C655 1.427 . S
N663 C661 1.384 . S
H664 C670 0.930 . S
H665 C674 0.930 . S
H666 C679 0.929 . S
H667 C677 0.929 . S
H668 C672 0.929 . S
H669 C678 0.929 . S
C670 H664 0.930 . S
C670 C671 1.367 . S
C670 C678 1.378 . S
C671 C670 1.367 . S
C671 C679 1.433 . S
C672 H668 0.929 . S
C672 C674 1.378 . S
C672 C676 1.350 . S
C673 C676 1.463 . S
C673 C678 1.350 . S
C673 N681 1.427 . S
C674 H665 0.930 . S
C674 C672 1.378 . S
C674 C675 1.367 . S
C675 C674 1.367 . S
C675 C677 1.433 . S
C676 C672 1.350 . S
C676 C673 1.463 . S
C676 N680 1.427 . S
C677 H667 0.929 . S
C677 C675 1.433 . S
C677 N680 1.384 . S
C678 H669 0.929 . S
C678 C670 1.378 . S
C678 C673 1.350 . S
C679 H666 0.929 . S
C679 C671 1.433 . S
C679 N681 1.384 . S
N680 C676 1.427 . S
N680 C677 1.384 . S
N681 C673 1.427 . S
N681 C679 1.384 . S
H682 C688 0.930 . S
H683 C692 0.930 . S
H684 C697 0.929 . S
H685 C695 0.929 . S
H686 C690 0.929 . S
H687 C696 0.929 . S
C688 H682 0.930 . S
C688 C689 1.367 . S
C688 C696 1.378 . S
C689 C688 1.367 . S
C689 C697 1.433 . S
C690 H686 0.929 . S
C690 C692 1.378 . S
C690 C694 1.350 . S
C691 C694 1.463 . S
C691 C696 1.350 . S
C691 N699 1.427 . S
C692 H683 0.930 . S
C692 C690 1.378 . S
C692 C693 1.367 . S
C693 C692 1.367 . S
C693 C695 1.433 . S
C694 C690 1.350 . S
C694 C691 1.463 . S
C694 N698 1.427 . S
C695 H685 0.929 . S
C695 C693 1.433 . S
C695 N698 1.384 . S
C696 H687 0.929 . S
C696 C688 1.378 . S
C696 C691 1.350 . S
C697 H684 0.929 . S
C697 C689 1.433 . S
C697 N699 1.384 . S
N698 C694 1.427 . S
N698 C695 1.384 . S
N699 C691 1.427 . S
N699 C697 1.384 . S
H700 C706 0.930 . S
H701 C710 0.930 . S
H702 C715 0.929 . S
H703 C713 0.929 . S
H704 C708 0.929 . S
H705 C714 0.929 . S
C706 H700 0.930 . S
C706 C707 1.367 . S
C706 C714 1.378 . S
C707 C706 1.367 . S
C707 C715 1.433 . S
C708 H704 0.929 . S
C708 C710 1.378 . S
C708 C712 1.350 . S
C709 C712 1.463 . S
C709 C714 1.350 . S
C709 N717 1.427 . S
C710 H701 0.930 . S
C710 C708 1.378 . S
C710 C711 1.367 . S
C711 C710 1.367 . S
C711 C713 1.433 . S
C712 C708 1.350 . S
C712 C709 1.463 . S
C712 N716 1.427 . S
C713 H703 0.929 . S
C713 C711 1.433 . S
C713 N716 1.384 . S
C714 H705 0.929 . S
C714 C706 1.378 . S
C714 C709 1.350 . S
C715 H702 0.929 . S
C715 C707 1.433 . S
C715 N717 1.384 . S
N716 C712 1.427 . S
N716 C713 1.384 . S
N717 C709 1.427 . S
N717 C715 1.384 . S
H718 C724 0.930 . S
H719 C728 0.930 . S
H720 C733 0.929 . S
H721 C731 0.929 . S
H722 C726 0.929 . S
H723 C732 0.929 . S
C724 H718 0.930 . S
C724 C725 1.367 . S
C724 C732 1.378 . S
C725 C724 1.367 . S
C725 C733 1.433 . S
C726 H722 0.929 . S
C726 C728 1.378 . S
C726 C730 1.350 . S
C727 C730 1.463 . S
C727 C732 1.350 . S
C727 N735 1.427 . S
C728 H719 0.930 . S
C728 C726 1.378 . S
C728 C729 1.367 . S
C729 C728 1.367 . S
C729 C731 1.433 . S
C730 C726 1.350 . S
C730 C727 1.463 . S
C730 N734 1.427 . S
C731 H721 0.929 . S
C731 C729 1.433 . S
C731 N734 1.384 . S
C732 H723 0.929 . S
C732 C724 1.378 . S
C732 C727 1.350 . S
C733 H720 0.929 . S
C733 C725 1.433 . S
C733 N735 1.384 . S
N734 C730 1.427 . S
N734 C731 1.384 . S
N735 C727 1.427 . S
N735 C733 1.384 . S
H736 C742 0.930 . S
H737 C746 0.930 . S
H738 C751 0.929 . S
H739 C749 0.929 . S
H740 C744 0.929 . S
H741 C750 0.929 . S
C742 H736 0.930 . S
C742 C743 1.367 . S
C742 C750 1.378 . S
C743 C742 1.367 . S
C743 C751 1.433 . S
C744 H740 0.929 . S
C744 C746 1.378 . S
C744 C748 1.350 . S
C745 C748 1.463 1_655 S
C745 C750 1.350 . S
C745 N753 1.427 . S
C746 H737 0.930 . S
C746 C744 1.378 . S
C746 C747 1.367 . S
C747 C746 1.367 . S
C747 C749 1.433 . S
C748 C744 1.350 . S
C748 C745 1.463 1_455 S
C748 N752 1.427 . S
C749 H739 0.929 . S
C749 C747 1.433 . S
C749 N752 1.384 . S
C750 H741 0.929 . S
C750 C742 1.378 . S
C750 C745 1.350 . S
C751 H738 0.929 . S
C751 C743 1.433 . S
C751 N753 1.384 . S
N752 C748 1.427 . S
N752 C749 1.384 . S
N753 C745 1.427 . S
N753 C751 1.384 . S
H754 C760 0.930 . S
H755 C764 0.930 . S
H756 C769 0.929 . S
H757 C767 0.929 . S
H758 C762 0.929 . S
H759 C768 0.929 . S
C760 H754 0.930 . S
C760 C761 1.367 . S
C760 C768 1.378 . S
C761 C760 1.367 . S
C761 C769 1.433 . S
C762 H758 0.929 . S
C762 C764 1.378 . S
C762 C766 1.350 . S
C763 C766 1.463 1_565 S
C763 C768 1.350 . S
C763 N771 1.427 . S
C764 H755 0.930 . S
C764 C762 1.378 . S
C764 C765 1.367 . S
C765 C764 1.367 . S
C765 C767 1.433 . S
C766 C762 1.350 . S
C766 C763 1.463 1_545 S
C766 N770 1.427 . S
C767 H757 0.929 . S
C767 C765 1.433 . S
C767 N770 1.384 . S
C768 H759 0.929 . S
C768 C760 1.378 . S
C768 C763 1.350 . S
C769 H756 0.929 . S
C769 C761 1.433 . S
C769 N771 1.384 . S
N770 C766 1.427 . S
N770 C767 1.384 . S
N771 C763 1.427 . S
N771 C769 1.384 . S
H772 C778 0.930 . S
H773 C782 0.930 . S
H774 C787 0.929 . S
H775 C785 0.929 . S
H776 C780 0.929 . S
H777 C786 0.929 . S
C778 H772 0.930 . S
C778 C779 1.367 . S
C778 C786 1.378 . S
C779 C778 1.367 . S
C779 C787 1.433 1_556 S
C780 H776 0.929 . S
C780 C782 1.378 . S
C780 C784 1.385 . S
C781 C784 1.460 1_466 S
C781 C786 1.383 . S
C781 N789 1.395 1_556 S
C782 H773 0.930 . S
C782 C780 1.378 . S
C782 C783 1.367 . S
C783 C782 1.367 . S
C783 C785 1.433 1_554 S
C784 C780 1.385 . S
C784 C781 1.460 1_644 S
C784 N788 1.393 1_554 S
C785 H775 0.929 . S
C785 C783 1.433 1_556 S
C785 N788 1.384 . S
C786 H777 0.929 . S
C786 C778 1.378 . S
C786 C781 1.383 . S
C787 H774 0.929 . S
C787 C779 1.433 1_554 S
C787 N789 1.384 . S
N788 C784 1.393 1_556 S
N788 C785 1.384 . S
N789 C781 1.395 1_554 S
N789 C787 1.384 . S
H790 C796 0.930 . S
H791 C800 0.930 . S
H792 C805 0.929 . S
H793 C803 0.929 . S
H794 C798 0.929 . S
H795 C804 0.929 . S
C796 H790 0.930 . S
C796 C797 1.358 1_556 S
C796 C804 1.378 . S
C797 C796 1.358 1_554 S
C797 C805 1.442 . S
C798 H794 0.929 . S
C798 C800 1.378 . S
C798 C802 1.354 . S
C799 C802 1.462 1_556 S
C799 C804 1.353 . S
C799 N807 1.424 1_556 S
C800 H791 0.930 . S
C800 C798 1.378 . S
C800 C801 1.359 1_554 S
C801 C800 1.359 1_556 S
C801 C803 1.441 . S
C802 C798 1.354 . S
C802 C799 1.462 1_554 S
C802 N806 1.423 1_554 S
C803 H793 0.929 . S
C803 C801 1.441 . S
C803 N806 1.384 . S
C804 H795 0.929 . S
C804 C796 1.378 . S
C804 C799 1.353 . S
C805 H792 0.929 . S
C805 C797 1.442 . S
C805 N807 1.384 . S
N806 C802 1.423 1_556 S
N806 C803 1.384 . S
N807 C799 1.424 1_554 S
N807 C805 1.384 . S
H808 C814 0.930 . S
H809 C818 0.930 . S
H810 C823 0.929 . S
H811 C821 0.929 . S
H812 C816 0.929 . S
H813 C822 0.929 . S
C814 H808 0.930 . S
C814 C815 1.367 . S
C814 C822 1.378 . S
C815 C814 1.367 . S
C815 C823 1.433 . S
C816 H812 0.929 . S
C816 C818 1.378 . S
C816 C820 1.350 . S
C817 C820 1.463 1_655 S
C817 C822 1.350 . S
C817 N825 1.427 . S
C818 H809 0.930 . S
C818 C816 1.378 . S
C818 C819 1.367 . S
C819 C818 1.367 . S
C819 C821 1.433 . S
C820 C816 1.350 . S
C820 C817 1.463 1_455 S
C820 N824 1.427 . S
C821 H811 0.929 . S
C821 C819 1.433 . S
C821 N824 1.384 . S
C822 H813 0.929 . S
C822 C814 1.378 . S
C822 C817 1.350 . S
C823 H810 0.929 . S
C823 C815 1.433 . S
C823 N825 1.384 . S
N824 C820 1.427 . S
N824 C821 1.384 . S
N825 C817 1.427 . S
N825 C823 1.384 . S
H826 C832 0.930 . S
H827 C836 0.930 . S
H828 C841 0.929 . S
H829 C839 0.929 . S
H830 C834 0.929 . S
H831 C840 0.929 . S
C832 H826 0.930 . S
C832 C833 1.367 . S
C832 C840 1.378 . S
C833 C832 1.367 . S
C833 C841 1.433 . S
C834 H830 0.929 . S
C834 C836 1.378 . S
C834 C838 1.350 . S
C835 C838 1.463 1_565 S
C835 C840 1.350 . S
C835 N843 1.427 . S
C836 H827 0.930 . S
C836 C834 1.378 . S
C836 C837 1.367 . S
C837 C836 1.367 . S
C837 C839 1.433 . S
C838 C834 1.350 . S
C838 C835 1.463 1_545 S
C838 N842 1.427 . S
C839 H829 0.929 . S
C839 C837 1.433 . S
C839 N842 1.384 . S
C840 H831 0.929 . S
C840 C832 1.378 . S
C840 C835 1.350 . S
C841 H828 0.929 . S
C841 C833 1.433 . S
C841 N843 1.384 . S
N842 C838 1.427 . S
N842 C839 1.384 . S
N843 C835 1.427 . S
N843 C841 1.384 . S
H844 C850 0.930 . S
H845 C854 0.930 . S
H846 C859 0.929 . S
H847 C857 0.929 . S
H848 C852 0.929 . S
H849 C858 0.929 . S
C850 H844 0.930 . S
C850 C851 1.367 . S
C850 C858 1.378 . S
C851 C850 1.367 . S
C851 C859 1.433 1_556 S
C852 H848 0.929 . S
C852 C854 1.378 . S
C852 C856 1.388 . S
C853 C856 1.459 1_556 S
C853 C858 1.387 . S
C853 N861 1.391 1_556 S
C854 H845 0.930 . S
C854 C852 1.378 . S
C854 C855 1.367 . S
C855 C854 1.367 . S
C855 C857 1.433 1_554 S
C856 C852 1.388 . S
C856 C853 1.459 1_554 S
C856 N860 1.389 1_554 S
C857 H847 0.929 . S
C857 C855 1.433 1_556 S
C857 N860 1.384 . S
C858 H849 0.929 . S
C858 C850 1.378 . S
C858 C853 1.387 . S
C859 H846 0.929 . S
C859 C851 1.433 1_554 S
C859 N861 1.384 . S
N860 C856 1.389 1_556 S
N860 C857 1.384 . S
N861 C853 1.391 1_554 S
N861 C859 1.384 . S
H862 C868 0.930 . S
H863 C872 0.930 . S
H864 C877 0.929 . S
H865 C875 0.929 . S
H866 C870 0.929 . S
H867 C876 0.929 . S
C868 H862 0.930 . S
C868 C869 1.367 . S
C868 C876 1.378 . S
C869 C868 1.367 . S
C869 C877 1.433 . S
C870 H866 0.929 . S
C870 C872 1.378 . S
C870 C874 1.350 . S
C871 C874 1.463 . S
C871 C876 1.350 . S
C871 N879 1.427 . S
C872 H863 0.930 . S
C872 C870 1.378 . S
C872 C873 1.367 . S
C873 C872 1.367 . S
C873 C875 1.433 . S
C874 C870 1.350 . S
C874 C871 1.463 . S
C874 N878 1.427 . S
C875 H865 0.929 . S
C875 C873 1.433 . S
C875 N878 1.384 . S
C876 H867 0.929 . S
C876 C868 1.378 . S
C876 C871 1.350 . S
C877 H864 0.929 . S
C877 C869 1.433 . S
C877 N879 1.384 . S
N878 C874 1.427 . S
N878 C875 1.384 . S
N879 C871 1.427 . S
N879 C877 1.384 . S
H880 C886 0.930 . S
H881 C890 0.930 . S
H882 C895 0.929 . S
H883 C893 0.929 . S
H884 C888 0.929 1_655 S
H885 C894 0.929 1_455 S
C886 H880 0.930 . S
C886 C887 1.367 . S
C886 C894 1.378 . S
C887 C886 1.367 . S
C887 C895 1.433 . S
C888 H884 0.929 1_455 S
C888 C890 1.378 . S
C888 C892 1.350 . S
C889 C892 1.463 1_655 S
C889 C894 1.350 . S
C889 N897 1.427 . S
C890 H881 0.930 . S
C890 C888 1.378 . S
C890 C891 1.367 . S
C891 C890 1.367 . S
C891 C893 1.433 . S
C892 C888 1.350 . S
C892 C889 1.463 1_455 S
C892 N896 1.427 . S
C893 H883 0.929 . S
C893 C891 1.433 . S
C893 N896 1.384 . S
C894 H885 0.929 1_655 S
C894 C886 1.378 . S
C894 C889 1.350 . S
C895 H882 0.929 . S
C895 C887 1.433 . S
C895 N897 1.384 . S
N896 C892 1.427 . S
N896 C893 1.384 . S
N897 C889 1.427 . S
N897 C895 1.384 . S
H898 C904 0.930 . S
H899 C908 0.930 . S
H900 C913 0.929 . S
H901 C911 0.929 . S
H902 C906 0.929 . S
H903 C912 0.929 . S
C904 H898 0.930 . S
C904 C905 1.367 . S
C904 C912 1.378 . S
C905 C904 1.367 . S
C905 C913 1.433 . S
C906 H902 0.929 . S
C906 C908 1.378 . S
C906 C910 1.350 . S
C907 C910 1.463 . S
C907 C912 1.350 . S
C907 N915 1.427 . S
C908 H899 0.930 . S
C908 C906 1.378 . S
C908 C909 1.367 . S
C909 C908 1.367 . S
C909 C911 1.433 . S
C910 C906 1.350 . S
C910 C907 1.463 . S
C910 N914 1.427 . S
C911 H901 0.929 . S
C911 C909 1.433 . S
C911 N914 1.384 . S
C912 H903 0.929 . S
C912 C904 1.378 . S
C912 C907 1.350 . S
C913 H900 0.929 . S
C913 C905 1.433 . S
C913 N915 1.384 . S
N914 C910 1.427 . S
N914 C911 1.384 . S
N915 C907 1.427 . S
N915 C913 1.384 . S
H916 C922 0.930 . S
H917 C926 0.930 . S
H918 C931 0.929 . S
H919 C929 0.929 . S
H920 C924 0.929 . S
H921 C930 0.929 . S
C922 H916 0.930 . S
C922 C923 1.367 . S
C922 C930 1.378 . S
C923 C922 1.367 . S
C923 C931 1.433 . S
C924 H920 0.929 . S
C924 C926 1.378 . S
C924 C928 1.350 . S
C925 C928 1.463 . S
C925 C930 1.350 . S
C925 N933 1.427 . S
C926 H917 0.930 . S
C926 C924 1.378 . S
C926 C927 1.367 . S
C927 C926 1.367 . S
C927 C929 1.433 . S
C928 C924 1.350 . S
C928 C925 1.463 . S
C928 N932 1.427 . S
C929 H919 0.929 . S
C929 C927 1.433 . S
C929 N932 1.384 . S
C930 H921 0.929 . S
C930 C922 1.378 . S
C930 C925 1.350 . S
C931 H918 0.929 . S
C931 C923 1.433 . S
C931 N933 1.384 . S
N932 C928 1.427 . S
N932 C929 1.384 . S
N933 C925 1.427 . S
N933 C931 1.384 . S
H934 C940 0.930 . S
H935 C944 0.930 . S
H936 C949 0.929 . S
H937 C947 0.929 . S
H938 C942 0.929 . S
H939 C948 0.929 . S
C940 H934 0.930 . S
C940 C941 1.367 . S
C940 C948 1.378 . S
C941 C940 1.367 . S
C941 C949 1.433 . S
C942 H938 0.929 . S
C942 C944 1.378 . S
C942 C946 1.350 . S
C943 C946 1.463 . S
C943 C948 1.350 . S
C943 N951 1.427 . S
C944 H935 0.930 . S
C944 C942 1.378 . S
C944 C945 1.367 . S
C945 C944 1.367 . S
C945 C947 1.433 . S
C946 C942 1.350 . S
C946 C943 1.463 . S
C946 N950 1.427 . S
C947 H937 0.929 . S
C947 C945 1.433 . S
C947 N950 1.384 . S
C948 H939 0.929 . S
C948 C940 1.378 . S
C948 C943 1.350 . S
C949 H936 0.929 . S
C949 C941 1.433 . S
C949 N951 1.384 . S
N950 C946 1.427 . S
N950 C947 1.384 . S
N951 C943 1.427 . S
N951 C949 1.384 . S
H952 C958 0.930 . S
H953 C962 0.930 . S
H954 C967 0.929 . S
H955 C965 0.929 . S
H956 C960 0.929 . S
H957 C966 0.929 . S
C958 H952 0.930 . S
C958 C959 1.367 . S
C958 C966 1.378 . S
C959 C958 1.367 . S
C959 C967 1.433 . S
C960 H956 0.929 . S
C960 C962 1.378 . S
C960 C964 1.350 . S
C961 C964 1.463 . S
C961 C966 1.350 . S
C961 N969 1.427 . S
C962 H953 0.930 . S
C962 C960 1.378 . S
C962 C963 1.367 . S
C963 C962 1.367 . S
C963 C965 1.433 . S
C964 C960 1.350 . S
C964 C961 1.463 . S
C964 N968 1.427 . S
C965 H955 0.929 . S
C965 C963 1.433 . S
C965 N968 1.384 . S
C966 H957 0.929 . S
C966 C958 1.378 . S
C966 C961 1.350 . S
C967 H954 0.929 . S
C967 C959 1.433 . S
C967 N969 1.384 . S
N968 C964 1.427 . S
N968 C965 1.384 . S
N969 C961 1.427 . S
N969 C967 1.384 . S
H970 C976 0.930 . S
H971 C980 0.930 . S
H972 C985 0.929 . S
H973 C983 0.929 . S
H974 C978 0.929 . S
H975 C984 0.929 . S
C976 H970 0.930 . S
C976 C977 1.367 . S
C976 C984 1.378 . S
C977 C976 1.367 . S
C977 C985 1.433 . S
C978 H974 0.929 . S
C978 C980 1.378 . S
C978 C982 1.350 . S
C979 C982 1.463 1_545 S
C979 C984 1.350 . S
C979 N987 1.427 . S
C980 H971 0.930 . S
C980 C978 1.378 . S
C980 C981 1.367 . S
C981 C980 1.367 . S
C981 C983 1.433 . S
C982 C978 1.350 . S
C982 C979 1.463 1_565 S
C982 N986 1.427 . S
C983 H973 0.929 . S
C983 C981 1.433 . S
C983 N986 1.384 . S
C984 H975 0.929 . S
C984 C976 1.378 . S
C984 C979 1.350 . S
C985 H972 0.929 . S
C985 C977 1.433 . S
C985 N987 1.384 . S
N986 C982 1.427 . S
N986 C983 1.384 . S
N987 C979 1.427 . S
N987 C985 1.384 . S
H988 C994 0.930 . S
H989 C998 0.930 . S
H990 C1003 0.929 . S
H991 C1001 0.929 . S
H992 C996 0.929 . S
H993 C1002 0.929 . S
C994 H988 0.930 . S
C994 C995 1.367 . S
C994 C1002 1.378 . S
C995 C994 1.367 . S
C995 C1003 1.433 . S
C996 H992 0.929 . S
C996 C998 1.378 . S
C996 C1000 1.350 . S
C997 C1000 1.463 . S
C997 C1002 1.350 . S
C997 N1005 1.427 . S
C998 H989 0.930 . S
C998 C996 1.378 . S
C998 C999 1.367 . S
C999 C998 1.367 . S
C999 C1001 1.433 . S
C1000 C996 1.350 . S
C1000 C997 1.463 . S
C1000 N1004 1.427 . S
C1001 H991 0.929 . S
C1001 C999 1.433 . S
C1001 N1004 1.384 . S
C1002 H993 0.929 . S
C1002 C994 1.378 . S
C1002 C997 1.350 . S
C1003 H990 0.929 . S
C1003 C995 1.433 . S
C1003 N1005 1.384 . S
N1004 C1000 1.427 . S
N1004 C1001 1.384 . S
N1005 C997 1.427 . S
N1005 C1003 1.384 . S
H1006 C1012 0.930 . S
H1007 C1016 0.930 . S
H1008 C1021 0.929 . S
H1009 C1019 0.929 . S
H1010 C1014 0.929 . S
H1011 C1020 0.929 . S
C1012 H1006 0.930 . S
C1012 C1013 1.367 . S
C1012 C1020 1.378 . S
C1013 C1012 1.367 . S
C1013 C1021 1.433 1_556 S
C1014 H1010 0.929 . S
C1014 C1016 1.378 . S
C1014 C1018 1.384 . S
C1015 C1018 1.460 1_556 S
C1015 C1020 1.383 . S
C1015 N1023 1.395 1_556 S
C1016 H1007 0.930 . S
C1016 C1014 1.378 . S
C1016 C1017 1.367 . S
C1017 C1016 1.367 . S
C1017 C1019 1.433 1_554 S
C1018 C1014 1.384 . S
C1018 C1015 1.460 1_554 S
C1018 N1022 1.393 1_554 S
C1019 H1009 0.929 . S
C1019 C1017 1.433 1_556 S
C1019 N1022 1.384 . S
C1020 H1011 0.929 . S
C1020 C1012 1.378 . S
C1020 C1015 1.383 . S
C1021 H1008 0.929 . S
C1021 C1013 1.433 1_554 S
C1021 N1023 1.384 . S
N1022 C1018 1.393 1_556 S
N1022 C1019 1.384 . S
N1023 C1015 1.395 1_554 S
N1023 C1021 1.384 . S
H1024 C1030 0.930 . S
H1025 C1034 0.930 . S
H1026 C1039 0.929 . S
H1027 C1037 0.929 . S
H1028 C1032 0.929 . S
H1029 C1038 0.929 . S
C1030 H1024 0.930 . S
C1030 C1031 1.367 . S
C1030 C1038 1.378 . S
C1031 C1030 1.367 . S
C1031 C1039 1.433 . S
C1032 H1028 0.929 . S
C1032 C1034 1.378 . S
C1032 C1036 1.350 . S
C1033 C1036 1.463 . S
C1033 C1038 1.350 . S
C1033 N1041 1.427 . S
C1034 H1025 0.930 . S
C1034 C1032 1.378 . S
C1034 C1035 1.367 . S
C1035 C1034 1.367 . S
C1035 C1037 1.433 . S
C1036 C1032 1.350 . S
C1036 C1033 1.463 . S
C1036 N1040 1.427 . S
C1037 H1027 0.929 . S
C1037 C1035 1.433 . S
C1037 N1040 1.384 . S
C1038 H1029 0.929 . S
C1038 C1030 1.378 . S
C1038 C1033 1.350 . S
C1039 H1026 0.929 . S
C1039 C1031 1.433 . S
C1039 N1041 1.384 . S
N1040 C1036 1.427 . S
N1040 C1037 1.384 . S
N1041 C1033 1.427 . S
N1041 C1039 1.384 . S
H1042 C1048 0.930 . S
H1043 C1052 0.930 . S
H1044 C1057 0.929 . S
H1045 C1055 0.929 . S
H1046 C1050 0.929 . S
H1047 C1056 0.929 . S
C1048 H1042 0.930 . S
C1048 C1049 1.367 . S
C1048 C1056 1.378 . S
C1049 C1048 1.367 . S
C1049 C1057 1.433 . S
C1050 H1046 0.929 . S
C1050 C1052 1.378 . S
C1050 C1054 1.350 . S
C1051 C1054 1.463 . S
C1051 C1056 1.350 . S
C1051 N1059 1.427 . S
C1052 H1043 0.930 . S
C1052 C1050 1.378 . S
C1052 C1053 1.367 . S
C1053 C1052 1.367 . S
C1053 C1055 1.433 . S
C1054 C1050 1.350 . S
C1054 C1051 1.463 . S
C1054 N1058 1.427 . S
C1055 H1045 0.929 . S
C1055 C1053 1.433 . S
C1055 N1058 1.384 . S
C1056 H1047 0.929 . S
C1056 C1048 1.378 . S
C1056 C1051 1.350 . S
C1057 H1044 0.929 . S
C1057 C1049 1.433 . S
C1057 N1059 1.384 . S
N1058 C1054 1.427 . S
N1058 C1055 1.384 . S
N1059 C1051 1.427 . S
N1059 C1057 1.384 . S
H1060 C1066 0.930 . S
H1061 C1070 0.930 . S
H1062 C1075 0.929 . S
H1063 C1073 0.929 . S
H1064 C1068 0.929 . S
H1065 C1074 0.929 . S
C1066 H1060 0.930 . S
C1066 C1067 1.367 . S
C1066 C1074 1.378 . S
C1067 C1066 1.367 . S
C1067 C1075 1.433 . S
C1068 H1064 0.929 . S
C1068 C1070 1.378 . S
C1068 C1072 1.350 . S
C1069 C1072 1.463 . S
C1069 C1074 1.350 . S
C1069 N1077 1.427 . S
C1070 H1061 0.930 . S
C1070 C1068 1.378 . S
C1070 C1071 1.367 . S
C1071 C1070 1.367 . S
C1071 C1073 1.433 . S
C1072 C1068 1.350 . S
C1072 C1069 1.463 . S
C1072 N1076 1.427 . S
C1073 H1063 0.929 . S
C1073 C1071 1.433 . S
C1073 N1076 1.384 . S
C1074 H1065 0.929 . S
C1074 C1066 1.378 . S
C1074 C1069 1.350 . S
C1075 H1062 0.929 . S
C1075 C1067 1.433 . S
C1075 N1077 1.384 . S
N1076 C1072 1.427 . S
N1076 C1073 1.384 . S
N1077 C1069 1.427 . S
N1077 C1075 1.384 . S
H1078 C1084 0.930 . S
H1079 C1088 0.930 . S
H1080 C1093 0.929 . S
H1081 C1091 0.929 . S
H1082 C1086 0.929 . S
H1083 C1092 0.929 . S
C1084 H1078 0.930 . S
C1084 C1085 1.367 . S
C1084 C1092 1.378 . S
C1085 C1084 1.367 . S
C1085 C1093 1.433 . S
C1086 H1082 0.929 . S
C1086 C1088 1.378 . S
C1086 C1090 1.350 . S
C1087 C1090 1.463 . S
C1087 C1092 1.350 . S
C1087 N1095 1.427 . S
C1088 H1079 0.930 . S
C1088 C1086 1.378 . S
C1088 C1089 1.367 . S
C1089 C1088 1.367 . S
C1089 C1091 1.433 . S
C1090 C1086 1.350 . S
C1090 C1087 1.463 . S
C1090 N1094 1.427 . S
C1091 H1081 0.929 . S
C1091 C1089 1.433 . S
C1091 N1094 1.384 . S
C1092 H1083 0.929 . S
C1092 C1084 1.378 . S
C1092 C1087 1.350 . S
C1093 H1080 0.929 . S
C1093 C1085 1.433 . S
C1093 N1095 1.384 . S
N1094 C1090 1.427 . S
N1094 C1091 1.384 . S
N1095 C1087 1.427 . S
N1095 C1093 1.384 . S
H1096 C1102 0.930 . S
H1097 C1106 0.930 . S
H1098 C1111 0.929 . S
H1099 C1109 0.929 . S
H1100 C1104 0.929 . S
H1101 C1110 0.929 . S
C1102 H1096 0.930 . S
C1102 C1103 1.367 . S
C1102 C1110 1.378 . S
C1103 C1102 1.367 . S
C1103 C1111 1.433 . S
C1104 H1100 0.929 . S
C1104 C1106 1.378 . S
C1104 C1108 1.350 . S
C1105 C1108 1.463 . S
C1105 C1110 1.350 . S
C1105 N1113 1.427 . S
C1106 H1097 0.930 . S
C1106 C1104 1.378 . S
C1106 C1107 1.367 . S
C1107 C1106 1.367 . S
C1107 C1109 1.433 . S
C1108 C1104 1.350 . S
C1108 C1105 1.463 . S
C1108 N1112 1.427 . S
C1109 H1099 0.929 . S
C1109 C1107 1.433 . S
C1109 N1112 1.384 . S
C1110 H1101 0.929 . S
C1110 C1102 1.378 . S
C1110 C1105 1.350 . S
C1111 H1098 0.929 . S
C1111 C1103 1.433 . S
C1111 N1113 1.384 . S
N1112 C1108 1.427 . S
N1112 C1109 1.384 . S
N1113 C1105 1.427 . S
N1113 C1111 1.384 . S
H1114 C1120 0.930 . S
H1115 C1124 0.930 . S
H1116 C1129 0.929 . S
H1117 C1127 0.929 . S
H1118 C1122 0.929 . S
H1119 C1128 0.929 . S
C1120 H1114 0.930 . S
C1120 C1121 1.367 . S
C1120 C1128 1.378 . S
C1121 C1120 1.367 . S
C1121 C1129 1.433 . S
C1122 H1118 0.929 . S
C1122 C1124 1.378 . S
C1122 C1126 1.350 . S
C1123 C1126 1.463 . S
C1123 C1128 1.350 . S
C1123 N1131 1.427 . S
C1124 H1115 0.930 . S
C1124 C1122 1.378 . S
C1124 C1125 1.367 . S
C1125 C1124 1.367 . S
C1125 C1127 1.433 . S
C1126 C1122 1.350 . S
C1126 C1123 1.463 . S
C1126 N1130 1.427 . S
C1127 H1117 0.929 . S
C1127 C1125 1.433 . S
C1127 N1130 1.384 . S
C1128 H1119 0.929 . S
C1128 C1120 1.378 . S
C1128 C1123 1.350 . S
C1129 H1116 0.929 . S
C1129 C1121 1.433 . S
C1129 N1131 1.384 . S
N1130 C1126 1.427 . S
N1130 C1127 1.384 . S
N1131 C1123 1.427 . S
N1131 C1129 1.384 . S
H1132 C1138 0.930 . S
H1133 C1142 0.930 . S
H1134 C1147 0.929 . S
H1135 C1145 0.929 . S
H1136 C1140 0.929 . S
H1137 C1146 0.929 . S
C1138 H1132 0.930 . S
C1138 C1139 1.367 . S
C1138 C1146 1.378 . S
C1139 C1138 1.367 . S
C1139 C1147 1.433 . S
C1140 H1136 0.929 . S
C1140 C1142 1.378 . S
C1140 C1144 1.350 . S
C1141 C1144 1.463 . S
C1141 C1146 1.350 . S
C1141 N1149 1.427 . S
C1142 H1133 0.930 . S
C1142 C1140 1.378 . S
C1142 C1143 1.367 . S
C1143 C1142 1.367 . S
C1143 C1145 1.433 . S
C1144 C1140 1.350 . S
C1144 C1141 1.463 . S
C1144 N1148 1.427 . S
C1145 H1135 0.929 . S
C1145 C1143 1.433 . S
C1145 N1148 1.384 . S
C1146 H1137 0.929 . S
C1146 C1138 1.378 . S
C1146 C1141 1.350 . S
C1147 H1134 0.929 . S
C1147 C1139 1.433 . S
C1147 N1149 1.384 . S
N1148 C1144 1.427 . S
N1148 C1145 1.384 . S
N1149 C1141 1.427 . S
N1149 C1147 1.384 . S
H1150 C1156 0.930 . S
H1151 C1160 0.930 . S
H1152 C1165 0.929 . S
H1153 C1163 0.929 . S
H1154 C1158 0.929 . S
H1155 C1164 0.929 . S
C1156 H1150 0.930 . S
C1156 C1157 1.367 . S
C1156 C1164 1.378 . S
C1157 C1156 1.367 . S
C1157 C1165 1.433 . S
C1158 H1154 0.929 . S
C1158 C1160 1.378 . S
C1158 C1162 1.350 . S
C1159 C1162 1.463 . S
C1159 C1164 1.350 . S
C1159 N1167 1.427 . S
C1160 H1151 0.930 . S
C1160 C1158 1.378 . S
C1160 C1161 1.367 . S
C1161 C1160 1.367 . S
C1161 C1163 1.433 . S
C1162 C1158 1.350 . S
C1162 C1159 1.463 . S
C1162 N1166 1.427 . S
C1163 H1153 0.929 . S
C1163 C1161 1.433 . S
C1163 N1166 1.384 . S
C1164 H1155 0.929 . S
C1164 C1156 1.378 . S
C1164 C1159 1.350 . S
C1165 H1152 0.929 . S
C1165 C1157 1.433 . S
C1165 N1167 1.384 . S
N1166 C1162 1.427 . S
N1166 C1163 1.384 . S
N1167 C1159 1.427 . S
N1167 C1165 1.384 . S
H1168 C1174 0.930 . S
H1169 C1178 0.930 . S
H1170 C1183 0.929 . S
H1171 C1181 0.929 . S
H1172 C1176 0.929 . S
H1173 C1182 0.929 . S
C1174 H1168 0.930 . S
C1174 C1175 1.367 . S
C1174 C1182 1.378 . S
C1175 C1174 1.367 . S
C1175 C1183 1.433 . S
C1176 H1172 0.929 . S
C1176 C1178 1.378 . S
C1176 C1180 1.350 . S
C1177 C1180 1.463 . S
C1177 C1182 1.350 . S
C1177 N1185 1.427 . S
C1178 H1169 0.930 . S
C1178 C1176 1.378 . S
C1178 C1179 1.367 . S
C1179 C1178 1.367 . S
C1179 C1181 1.433 . S
C1180 C1176 1.350 . S
C1180 C1177 1.463 . S
C1180 N1184 1.427 . S
C1181 H1171 0.929 . S
C1181 C1179 1.433 . S
C1181 N1184 1.384 . S
C1182 H1173 0.929 . S
C1182 C1174 1.378 . S
C1182 C1177 1.350 . S
C1183 H1170 0.929 . S
C1183 C1175 1.433 . S
C1183 N1185 1.384 . S
N1184 C1180 1.427 . S
N1184 C1181 1.384 . S
N1185 C1177 1.427 . S
N1185 C1183 1.384 . S
H1186 C1192 0.930 . S
H1187 C1196 0.930 . S
H1188 C1201 0.929 . S
H1189 C1199 0.929 . S
H1190 C1194 0.929 . S
H1191 C1200 0.929 . S
C1192 H1186 0.930 . S
C1192 C1193 1.367 . S
C1192 C1200 1.378 . S
C1193 C1192 1.367 . S
C1193 C1201 1.433 . S
C1194 H1190 0.929 . S
C1194 C1196 1.378 . S
C1194 C1198 1.350 . S
C1195 C1198 1.463 . S
C1195 C1200 1.350 . S
C1195 N1203 1.427 . S
C1196 H1187 0.930 . S
C1196 C1194 1.378 . S
C1196 C1197 1.367 . S
C1197 C1196 1.367 . S
C1197 C1199 1.433 . S
C1198 C1194 1.350 . S
C1198 C1195 1.463 . S
C1198 N1202 1.427 . S
C1199 H1189 0.929 . S
C1199 C1197 1.433 . S
C1199 N1202 1.384 . S
C1200 H1191 0.929 . S
C1200 C1192 1.378 . S
C1200 C1195 1.350 . S
C1201 H1188 0.929 . S
C1201 C1193 1.433 . S
C1201 N1203 1.384 . S
N1202 C1198 1.427 . S
N1202 C1199 1.384 . S
N1203 C1195 1.427 . S
N1203 C1201 1.384 . S
H1204 C1210 0.930 . S
H1205 C1214 0.930 . S
H1206 C1219 0.929 . S
H1207 C1217 0.929 . S
H1208 C1212 0.929 . S
H1209 C1218 0.929 . S
C1210 H1204 0.930 . S
C1210 C1211 1.367 . S
C1210 C1218 1.378 . S
C1211 C1210 1.367 . S
C1211 C1219 1.433 . S
C1212 H1208 0.929 . S
C1212 C1214 1.378 . S
C1212 C1216 1.350 . S
C1213 C1216 1.463 . S
C1213 C1218 1.350 . S
C1213 N1221 1.427 . S
C1214 H1205 0.930 . S
C1214 C1212 1.378 . S
C1214 C1215 1.367 . S
C1215 C1214 1.367 . S
C1215 C1217 1.433 . S
C1216 C1212 1.350 . S
C1216 C1213 1.463 . S
C1216 N1220 1.427 . S
C1217 H1207 0.929 . S
C1217 C1215 1.433 . S
C1217 N1220 1.384 . S
C1218 H1209 0.929 . S
C1218 C1210 1.378 . S
C1218 C1213 1.350 . S
C1219 H1206 0.929 . S
C1219 C1211 1.433 . S
C1219 N1221 1.384 . S
N1220 C1216 1.427 . S
N1220 C1217 1.384 . S
N1221 C1213 1.427 . S
N1221 C1219 1.384 . S
H1222 C1228 0.930 . S
H1223 C1232 0.930 . S
H1224 C1237 0.929 . S
H1225 C1235 0.929 . S
H1226 C1230 0.929 . S
H1227 C1236 0.929 . S
C1228 H1222 0.930 . S
C1228 C1229 1.367 . S
C1228 C1236 1.378 . S
C1229 C1228 1.367 . S
C1229 C1237 1.433 . S
C1230 H1226 0.929 . S
C1230 C1232 1.378 . S
C1230 C1234 1.350 . S
C1231 C1234 1.463 . S
C1231 C1236 1.350 . S
C1231 N1239 1.427 . S
C1232 H1223 0.930 . S
C1232 C1230 1.378 . S
C1232 C1233 1.367 . S
C1233 C1232 1.367 . S
C1233 C1235 1.433 . S
C1234 C1230 1.350 . S
C1234 C1231 1.463 . S
C1234 N1238 1.427 . S
C1235 H1225 0.929 . S
C1235 C1233 1.433 . S
C1235 N1238 1.384 . S
C1236 H1227 0.929 . S
C1236 C1228 1.378 . S
C1236 C1231 1.350 . S
C1237 H1224 0.929 . S
C1237 C1229 1.433 . S
C1237 N1239 1.384 . S
N1238 C1234 1.427 . S
N1238 C1235 1.384 . S
N1239 C1231 1.427 . S
N1239 C1237 1.384 . S
H1240 C1246 0.930 . S
H1241 C1250 0.930 . S
H1242 C1255 0.929 . S
H1243 C1253 0.929 . S
H1244 C1248 0.929 . S
H1245 C1254 0.929 . S
C1246 H1240 0.930 . S
C1246 C1247 1.367 . S
C1246 C1254 1.378 . S
C1247 C1246 1.367 . S
C1247 C1255 1.433 . S
C1248 H1244 0.929 . S
C1248 C1250 1.378 . S
C1248 C1252 1.350 . S
C1249 C1252 1.463 . S
C1249 C1254 1.350 . S
C1249 N1257 1.427 . S
C1250 H1241 0.930 . S
C1250 C1248 1.378 . S
C1250 C1251 1.367 . S
C1251 C1250 1.367 . S
C1251 C1253 1.433 . S
C1252 C1248 1.350 . S
C1252 C1249 1.463 . S
C1252 N1256 1.427 . S
C1253 H1243 0.929 . S
C1253 C1251 1.433 . S
C1253 N1256 1.384 . S
C1254 H1245 0.929 . S
C1254 C1246 1.378 . S
C1254 C1249 1.350 . S
C1255 H1242 0.929 . S
C1255 C1247 1.433 . S
C1255 N1257 1.384 . S
N1256 C1252 1.427 . S
N1256 C1253 1.384 . S
N1257 C1249 1.427 . S
N1257 C1255 1.384 . S
H1258 C1264 0.930 . S
H1259 C1268 0.930 . S
H1260 C1273 0.929 . S
H1261 C1271 0.929 . S
H1262 C1266 0.929 . S
H1263 C1272 0.929 . S
C1264 H1258 0.930 . S
C1264 C1265 1.367 . S
C1264 C1272 1.378 . S
C1265 C1264 1.367 . S
C1265 C1273 1.433 . S
C1266 H1262 0.929 . S
C1266 C1268 1.378 . S
C1266 C1270 1.350 . S
C1267 C1270 1.463 . S
C1267 C1272 1.350 . S
C1267 N1275 1.427 . S
C1268 H1259 0.930 . S
C1268 C1266 1.378 . S
C1268 C1269 1.367 . S
C1269 C1268 1.367 . S
C1269 C1271 1.433 . S
C1270 C1266 1.350 . S
C1270 C1267 1.463 . S
C1270 N1274 1.427 . S
C1271 H1261 0.929 . S
C1271 C1269 1.433 . S
C1271 N1274 1.384 . S
C1272 H1263 0.929 . S
C1272 C1264 1.378 . S
C1272 C1267 1.350 . S
C1273 H1260 0.929 . S
C1273 C1265 1.433 . S
C1273 N1275 1.384 . S
N1274 C1270 1.427 . S
N1274 C1271 1.384 . S
N1275 C1267 1.427 . S
N1275 C1273 1.384 . S
H1276 C1282 0.930 . S
H1277 C1286 0.930 . S
H1278 C1291 0.929 . S
H1279 C1289 0.929 . S
H1280 C1284 0.929 . S
H1281 C1290 0.929 . S
C1282 H1276 0.930 . S
C1282 C1283 1.367 . S
C1282 C1290 1.378 . S
C1283 C1282 1.367 . S
C1283 C1291 1.433 . S
C1284 H1280 0.929 . S
C1284 C1286 1.378 . S
C1284 C1288 1.350 . S
C1285 C1288 1.463 . S
C1285 C1290 1.350 . S
C1285 N1293 1.427 . S
C1286 H1277 0.930 . S
C1286 C1284 1.378 . S
C1286 C1287 1.367 . S
C1287 C1286 1.367 . S
C1287 C1289 1.433 . S
C1288 C1284 1.350 . S
C1288 C1285 1.463 . S
C1288 N1292 1.427 . S
C1289 H1279 0.929 . S
C1289 C1287 1.433 . S
C1289 N1292 1.384 . S
C1290 H1281 0.929 . S
C1290 C1282 1.378 . S
C1290 C1285 1.350 . S
C1291 H1278 0.929 . S
C1291 C1283 1.433 . S
C1291 N1293 1.384 . S
N1292 C1288 1.427 . S
N1292 C1289 1.384 . S
N1293 C1285 1.427 . S
N1293 C1291 1.384 . S
H1294 C1300 0.930 . S
H1295 C1304 0.930 . S
H1296 C1309 0.929 . S
H1297 C1307 0.929 . S
H1298 C1302 0.929 . S
H1299 C1308 0.929 . S
C1300 H1294 0.930 . S
C1300 C1301 1.367 . S
C1300 C1308 1.378 . S
C1301 C1300 1.367 . S
C1301 C1309 1.433 . S
C1302 H1298 0.929 . S
C1302 C1304 1.378 . S
C1302 C1306 1.350 . S
C1303 C1306 1.463 . S
C1303 C1308 1.350 . S
C1303 N1311 1.427 . S
C1304 H1295 0.930 . S
C1304 C1302 1.378 . S
C1304 C1305 1.367 . S
C1305 C1304 1.367 . S
C1305 C1307 1.433 . S
C1306 C1302 1.350 . S
C1306 C1303 1.463 . S
C1306 N1310 1.427 . S
C1307 H1297 0.929 . S
C1307 C1305 1.433 . S
C1307 N1310 1.384 . S
C1308 H1299 0.929 . S
C1308 C1300 1.378 . S
C1308 C1303 1.350 . S
C1309 H1296 0.929 . S
C1309 C1301 1.433 . S
C1309 N1311 1.384 . S
N1310 C1306 1.427 . S
N1310 C1307 1.384 . S
N1311 C1303 1.427 . S
N1311 C1309 1.384 . S
H1312 C1318 0.930 . S
H1313 C1322 0.930 . S
H1314 C1327 0.929 . S
H1315 C1325 0.929 . S
H1316 C1320 0.929 . S
H1317 C1326 0.929 . S
C1318 H1312 0.930 . S
C1318 C1319 1.367 . S
C1318 C1326 1.378 . S
C1319 C1318 1.367 . S
C1319 C1327 1.433 . S
C1320 H1316 0.929 . S
C1320 C1322 1.378 . S
C1320 C1324 1.350 . S
C1321 C1324 1.463 . S
C1321 C1326 1.350 . S
C1321 N1329 1.427 . S
C1322 H1313 0.930 . S
C1322 C1320 1.378 . S
C1322 C1323 1.367 . S
C1323 C1322 1.367 . S
C1323 C1325 1.433 . S
C1324 C1320 1.350 . S
C1324 C1321 1.463 . S
C1324 N1328 1.427 . S
C1325 H1315 0.929 . S
C1325 C1323 1.433 . S
C1325 N1328 1.384 . S
C1326 H1317 0.929 . S
C1326 C1318 1.378 . S
C1326 C1321 1.350 . S
C1327 H1314 0.929 . S
C1327 C1319 1.433 . S
C1327 N1329 1.384 . S
N1328 C1324 1.427 . S
N1328 C1325 1.384 . S
N1329 C1321 1.427 . S
N1329 C1327 1.384 . S
H1330 C1336 0.930 . S
H1331 C1340 0.930 . S
H1332 C1345 0.929 . S
H1333 C1343 0.929 . S
H1334 C1338 0.929 . S
H1335 C1344 0.929 . S
C1336 H1330 0.930 . S
C1336 C1337 1.367 . S
C1336 C1344 1.378 . S
C1337 C1336 1.367 . S
C1337 C1345 1.433 . S
C1338 H1334 0.929 . S
C1338 C1340 1.378 . S
C1338 C1342 1.350 . S
C1339 C1342 1.463 . S
C1339 C1344 1.350 . S
C1339 N1347 1.427 . S
C1340 H1331 0.930 . S
C1340 C1338 1.378 . S
C1340 C1341 1.367 . S
C1341 C1340 1.367 . S
C1341 C1343 1.433 . S
C1342 C1338 1.350 . S
C1342 C1339 1.463 . S
C1342 N1346 1.427 . S
C1343 H1333 0.929 . S
C1343 C1341 1.433 . S
C1343 N1346 1.384 . S
C1344 H1335 0.929 . S
C1344 C1336 1.378 . S
C1344 C1339 1.350 . S
C1345 H1332 0.929 . S
C1345 C1337 1.433 . S
C1345 N1347 1.384 . S
N1346 C1342 1.427 . S
N1346 C1343 1.384 . S
N1347 C1339 1.427 . S
N1347 C1345 1.384 . S
H1348 C1354 0.930 . S
H1349 C1358 0.930 . S
H1350 C1363 0.929 . S
H1351 C1361 0.929 . S
H1352 C1356 0.929 . S
H1353 C1362 0.929 . S
C1354 H1348 0.930 . S
C1354 C1355 1.369 . S
C1354 C1362 1.378 . S
C1355 C1354 1.369 . S
C1355 C1363 1.431 1_556 S
C1356 H1352 0.929 . S
C1356 C1358 1.378 . S
C1356 C1360 1.393 . S
C1357 C1360 1.460 1_556 S
C1357 C1362 1.363 . S
C1357 N1365 1.414 1_556 S
C1358 H1349 0.930 . S
C1358 C1356 1.378 . S
C1358 C1359 1.399 . S
C1359 C1358 1.399 . S
C1359 C1361 1.400 1_554 S
C1360 C1356 1.393 . S
C1360 C1357 1.460 1_554 S
C1360 N1364 1.384 1_554 S
C1361 H1351 0.929 . S
C1361 C1359 1.400 1_556 S
C1361 N1364 1.384 . S
C1362 H1353 0.929 . S
C1362 C1354 1.378 . S
C1362 C1357 1.363 . S
C1363 H1350 0.929 . S
C1363 C1355 1.431 1_554 S
C1363 N1365 1.384 . S
N1364 C1360 1.384 1_556 S
N1364 C1361 1.384 . S
N1365 C1357 1.414 1_554 S
N1365 C1363 1.384 . S
H1366 C1372 0.930 . S
H1367 C1376 0.930 . S
H1368 C1381 0.929 . S
H1369 C1379 0.929 . S
H1370 C1374 0.929 . S
H1371 C1380 0.929 . S
C1372 H1366 0.930 . S
C1372 C1373 1.367 . S
C1372 C1380 1.378 . S
C1373 C1372 1.367 . S
C1373 C1381 1.433 1_556 S
C1374 H1370 0.929 . S
C1374 C1376 1.378 . S
C1374 C1378 1.385 . S
C1375 C1378 1.461 1_556 S
C1375 C1380 1.358 . S
C1375 N1383 1.419 1_556 S
C1376 H1367 0.930 . S
C1376 C1374 1.378 . S
C1376 C1377 1.393 . S
C1377 C1376 1.393 . S
C1377 C1379 1.407 1_554 S
C1378 C1374 1.385 . S
C1378 C1375 1.461 1_554 S
C1378 N1382 1.393 1_554 S
C1379 H1369 0.929 . S
C1379 C1377 1.407 1_556 S
C1379 N1382 1.384 . S
C1380 H1371 0.929 . S
C1380 C1372 1.378 . S
C1380 C1375 1.358 . S
C1381 H1368 0.929 . S
C1381 C1373 1.433 1_554 S
C1381 N1383 1.384 . S
N1382 C1378 1.393 1_556 S
N1382 C1379 1.384 . S
N1383 C1375 1.419 1_554 S
N1383 C1381 1.384 . S
H1384 C1390 0.930 . S
H1385 C1394 0.930 . S
H1386 C1399 0.929 . S
H1387 C1397 0.929 . S
H1388 C1392 0.929 . S
H1389 C1398 0.929 . S
C1390 H1384 0.930 . S
C1390 C1391 1.367 . S
C1390 C1398 1.378 . S
C1391 C1390 1.367 . S
C1391 C1399 1.433 . S
C1392 H1388 0.929 . S
C1392 C1394 1.378 . S
C1392 C1396 1.350 . S
C1393 C1396 1.463 . S
C1393 C1398 1.350 . S
C1393 N1401 1.427 . S
C1394 H1385 0.930 . S
C1394 C1392 1.378 . S
C1394 C1395 1.367 . S
C1395 C1394 1.367 . S
C1395 C1397 1.433 . S
C1396 C1392 1.350 . S
C1396 C1393 1.463 . S
C1396 N1400 1.427 . S
C1397 H1387 0.929 . S
C1397 C1395 1.433 . S
C1397 N1400 1.384 . S
C1398 H1389 0.929 . S
C1398 C1390 1.378 . S
C1398 C1393 1.350 . S
C1399 H1386 0.929 . S
C1399 C1391 1.433 . S
C1399 N1401 1.384 . S
N1400 C1396 1.427 . S
N1400 C1397 1.384 . S
N1401 C1393 1.427 . S
N1401 C1399 1.384 . S
H1402 C1408 0.930 . S
H1403 C1412 0.930 . S
H1404 C1417 0.929 . S
H1405 C1415 0.929 . S
H1406 C1410 0.929 . S
H1407 C1416 0.929 . S
C1408 H1402 0.930 . S
C1408 C1409 1.367 . S
C1408 C1416 1.378 . S
C1409 C1408 1.367 . S
C1409 C1417 1.433 . S
C1410 H1406 0.929 . S
C1410 C1412 1.378 . S
C1410 C1414 1.350 . S
C1411 C1414 1.463 . S
C1411 C1416 1.350 . S
C1411 N1419 1.427 . S
C1412 H1403 0.930 . S
C1412 C1410 1.378 . S
C1412 C1413 1.367 . S
C1413 C1412 1.367 . S
C1413 C1415 1.433 . S
C1414 C1410 1.350 . S
C1414 C1411 1.463 . S
C1414 N1418 1.427 . S
C1415 H1405 0.929 . S
C1415 C1413 1.433 . S
C1415 N1418 1.384 . S
C1416 H1407 0.929 . S
C1416 C1408 1.378 . S
C1416 C1411 1.350 . S
C1417 H1404 0.929 . S
C1417 C1409 1.433 . S
C1417 N1419 1.384 . S
N1418 C1414 1.427 . S
N1418 C1415 1.384 . S
N1419 C1411 1.427 . S
N1419 C1417 1.384 . S
H1420 C1426 0.930 . S
H1421 C1430 0.930 . S
H1422 C1435 0.929 . S
H1423 C1433 0.929 . S
H1424 C1428 0.929 . S
H1425 C1434 0.929 . S
C1426 H1420 0.930 . S
C1426 C1427 1.364 . S
C1426 C1434 1.378 . S
C1427 C1426 1.364 . S
C1427 C1435 1.436 1_554 S
C1428 H1424 0.929 . S
C1428 C1430 1.378 . S
C1428 C1432 1.369 . S
C1429 C1432 1.462 1_554 S
C1429 C1434 1.352 . S
C1429 N1437 1.426 1_554 S
C1430 H1421 0.930 . S
C1430 C1428 1.378 . S
C1430 C1431 1.381 . S
C1431 C1430 1.381 . S
C1431 C1433 1.419 1_556 S
C1432 C1428 1.369 . S
C1432 C1429 1.462 1_556 S
C1432 N1436 1.409 1_556 S
C1433 H1423 0.929 . S
C1433 C1431 1.419 1_554 S
C1433 N1436 1.384 . S
C1434 H1425 0.929 . S
C1434 C1426 1.378 . S
C1434 C1429 1.352 . S
C1435 H1422 0.929 . S
C1435 C1427 1.436 1_556 S
C1435 N1437 1.384 . S
N1436 C1432 1.409 1_554 S
N1436 C1433 1.384 . S
N1437 C1429 1.426 1_556 S
N1437 C1435 1.384 . S
H1438 C1444 0.930 . S
H1439 C1448 0.930 . S
H1440 C1453 0.929 . S
H1441 C1451 0.929 . S
H1442 C1446 0.929 . S
H1443 C1452 0.929 . S
C1444 H1438 0.930 . S
C1444 C1445 1.367 . S
C1444 C1452 1.378 . S
C1445 C1444 1.367 . S
C1445 C1453 1.433 1_554 S
C1446 H1442 0.929 . S
C1446 C1448 1.378 . S
C1446 C1450 1.378 . S
C1447 C1450 1.461 1_554 S
C1447 C1452 1.357 . S
C1447 N1455 1.421 1_554 S
C1448 H1439 0.930 . S
C1448 C1446 1.378 . S
C1448 C1449 1.388 . S
C1449 C1448 1.388 . S
C1449 C1451 1.412 1_556 S
C1450 C1446 1.378 . S
C1450 C1447 1.461 1_556 S
C1450 N1454 1.399 1_556 S
C1451 H1441 0.929 . S
C1451 C1449 1.412 1_554 S
C1451 N1454 1.384 . S
C1452 H1443 0.929 . S
C1452 C1444 1.378 . S
C1452 C1447 1.357 . S
C1453 H1440 0.929 . S
C1453 C1445 1.433 1_556 S
C1453 N1455 1.384 . S
N1454 C1450 1.399 1_554 S
N1454 C1451 1.384 . S
N1455 C1447 1.421 1_556 S
N1455 C1453 1.384 . S
H1456 C1462 0.930 . S
H1457 C1466 0.930 . S
H1458 C1471 0.929 . S
H1459 C1469 0.929 . S
H1460 C1464 0.929 . S
H1461 C1470 0.929 . S
C1462 H1456 0.930 . S
C1462 C1463 1.367 . S
C1462 C1470 1.378 . S
C1463 C1462 1.367 . S
C1463 C1471 1.433 . S
C1464 H1460 0.929 . S
C1464 C1466 1.378 . S
C1464 C1468 1.350 . S
C1465 C1468 1.463 . S
C1465 C1470 1.350 . S
C1465 N1473 1.427 . S
C1466 H1457 0.930 . S
C1466 C1464 1.378 . S
C1466 C1467 1.367 . S
C1467 C1466 1.367 . S
C1467 C1469 1.433 . S
C1468 C1464 1.350 . S
C1468 C1465 1.463 . S
C1468 N1472 1.427 . S
C1469 H1459 0.929 . S
C1469 C1467 1.433 . S
C1469 N1472 1.384 . S
C1470 H1461 0.929 . S
C1470 C1462 1.378 . S
C1470 C1465 1.350 . S
C1471 H1458 0.929 . S
C1471 C1463 1.433 . S
C1471 N1473 1.384 . S
N1472 C1468 1.427 . S
N1472 C1469 1.384 . S
N1473 C1465 1.427 . S
N1473 C1471 1.384 . S
H1474 C1480 0.930 . S
H1475 C1484 0.930 . S
H1476 C1489 0.929 . S
H1477 C1487 0.929 . S
H1478 C1482 0.929 . S
H1479 C1488 0.929 . S
C1480 H1474 0.930 . S
C1480 C1481 1.367 . S
C1480 C1488 1.378 . S
C1481 C1480 1.367 . S
C1481 C1489 1.433 . S
C1482 H1478 0.929 . S
C1482 C1484 1.378 . S
C1482 C1486 1.350 . S
C1483 C1486 1.463 . S
C1483 C1488 1.350 . S
C1483 N1491 1.427 . S
C1484 H1475 0.930 . S
C1484 C1482 1.378 . S
C1484 C1485 1.367 . S
C1485 C1484 1.367 . S
C1485 C1487 1.433 . S
C1486 C1482 1.350 . S
C1486 C1483 1.463 . S
C1486 N1490 1.427 . S
C1487 H1477 0.929 . S
C1487 C1485 1.433 . S
C1487 N1490 1.384 . S
C1488 H1479 0.929 . S
C1488 C1480 1.378 . S
C1488 C1483 1.350 . S
C1489 H1476 0.929 . S
C1489 C1481 1.433 . S
C1489 N1491 1.384 . S
N1490 C1486 1.427 . S
N1490 C1487 1.384 . S
N1491 C1483 1.427 . S
N1491 C1489 1.384 . S
H1492 C1498 0.930 . S
H1493 C1502 0.930 . S
H1494 C1507 0.929 . S
H1495 C1505 0.929 . S
H1496 C1500 0.929 . S
H1497 C1506 0.929 . S
C1498 H1492 0.930 . S
C1498 C1499 1.367 . S
C1498 C1506 1.378 . S
C1499 C1498 1.367 . S
C1499 C1507 1.433 . S
C1500 H1496 0.929 . S
C1500 C1502 1.378 . S
C1500 C1504 1.350 . S
C1501 C1504 1.463 . S
C1501 C1506 1.350 . S
C1501 N1509 1.427 . S
C1502 H1493 0.930 . S
C1502 C1500 1.378 . S
C1502 C1503 1.367 . S
C1503 C1502 1.367 . S
C1503 C1505 1.433 . S
C1504 C1500 1.350 . S
C1504 C1501 1.463 . S
C1504 N1508 1.427 . S
C1505 H1495 0.929 . S
C1505 C1503 1.433 . S
C1505 N1508 1.384 . S
C1506 H1497 0.929 . S
C1506 C1498 1.378 . S
C1506 C1501 1.350 . S
C1507 H1494 0.929 . S
C1507 C1499 1.433 . S
C1507 N1509 1.384 . S
N1508 C1504 1.427 . S
N1508 C1505 1.384 . S
N1509 C1501 1.427 . S
N1509 C1507 1.384 . S
H1510 C1516 0.930 . S
H1511 C1520 0.930 . S
H1512 C1525 0.929 . S
H1513 C1523 0.929 . S
H1514 C1518 0.929 . S
H1515 C1524 0.929 . S
C1516 H1510 0.930 . S
C1516 C1517 1.367 . S
C1516 C1524 1.378 . S
C1517 C1516 1.367 . S
C1517 C1525 1.433 . S
C1518 H1514 0.929 . S
C1518 C1520 1.378 . S
C1518 C1522 1.350 . S
C1519 C1522 1.463 . S
C1519 C1524 1.350 . S
C1519 N1527 1.427 . S
C1520 H1511 0.930 . S
C1520 C1518 1.378 . S
C1520 C1521 1.367 . S
C1521 C1520 1.367 . S
C1521 C1523 1.433 . S
C1522 C1518 1.350 . S
C1522 C1519 1.463 . S
C1522 N1526 1.427 . S
C1523 H1513 0.929 . S
C1523 C1521 1.433 . S
C1523 N1526 1.384 . S
C1524 H1515 0.929 . S
C1524 C1516 1.378 . S
C1524 C1519 1.350 . S
C1525 H1512 0.929 . S
C1525 C1517 1.433 . S
C1525 N1527 1.384 . S
N1526 C1522 1.427 . S
N1526 C1523 1.384 . S
N1527 C1519 1.427 . S
N1527 C1525 1.384 . S
H1528 C1534 0.930 . S
H1529 C1538 0.930 . S
H1530 C1543 0.929 . S
H1531 C1541 0.929 . S
H1532 C1536 0.929 . S
H1533 C1542 0.929 . S
C1534 H1528 0.930 . S
C1534 C1535 1.367 . S
C1534 C1542 1.378 . S
C1535 C1534 1.367 . S
C1535 C1543 1.433 . S
C1536 H1532 0.929 . S
C1536 C1538 1.378 . S
C1536 C1540 1.350 . S
C1537 C1540 1.463 . S
C1537 C1542 1.350 . S
C1537 N1545 1.427 . S
C1538 H1529 0.930 . S
C1538 C1536 1.378 . S
C1538 C1539 1.367 . S
C1539 C1538 1.367 . S
C1539 C1541 1.433 . S
C1540 C1536 1.350 . S
C1540 C1537 1.463 . S
C1540 N1544 1.427 . S
C1541 H1531 0.929 . S
C1541 C1539 1.433 . S
C1541 N1544 1.384 . S
C1542 H1533 0.929 . S
C1542 C1534 1.378 . S
C1542 C1537 1.350 . S
C1543 H1530 0.929 . S
C1543 C1535 1.433 . S
C1543 N1545 1.384 . S
N1544 C1540 1.427 . S
N1544 C1541 1.384 . S
N1545 C1537 1.427 . S
N1545 C1543 1.384 . S
H1546 C1552 0.930 . S
H1547 C1556 0.930 . S
H1548 C1561 0.929 . S
H1549 C1559 0.929 . S
H1550 C1554 0.929 . S
H1551 C1560 0.929 . S
C1552 H1546 0.930 . S
C1552 C1553 1.367 . S
C1552 C1560 1.378 . S
C1553 C1552 1.367 . S
C1553 C1561 1.433 . S
C1554 H1550 0.929 . S
C1554 C1556 1.378 . S
C1554 C1558 1.350 . S
C1555 C1558 1.463 . S
C1555 C1560 1.350 . S
C1555 N1563 1.427 . S
C1556 H1547 0.930 . S
C1556 C1554 1.378 . S
C1556 C1557 1.367 . S
C1557 C1556 1.367 . S
C1557 C1559 1.433 . S
C1558 C1554 1.350 . S
C1558 C1555 1.463 . S
C1558 N1562 1.427 . S
C1559 H1549 0.929 . S
C1559 C1557 1.433 . S
C1559 N1562 1.384 . S
C1560 H1551 0.929 . S
C1560 C1552 1.378 . S
C1560 C1555 1.350 . S
C1561 H1548 0.929 . S
C1561 C1553 1.433 . S
C1561 N1563 1.384 . S
N1562 C1558 1.427 . S
N1562 C1559 1.384 . S
N1563 C1555 1.427 . S
N1563 C1561 1.384 . S
H1564 C1570 0.930 . S
H1565 C1574 0.930 . S
H1566 C1579 0.929 . S
H1567 C1577 0.929 . S
H1568 C1572 0.929 . S
H1569 C1578 0.929 . S
C1570 H1564 0.930 . S
C1570 C1571 1.367 . S
C1570 C1578 1.378 . S
C1571 C1570 1.367 . S
C1571 C1579 1.433 . S
C1572 H1568 0.929 . S
C1572 C1574 1.378 . S
C1572 C1576 1.350 . S
C1573 C1576 1.463 . S
C1573 C1578 1.350 . S
C1573 N1581 1.427 . S
C1574 H1565 0.930 . S
C1574 C1572 1.378 . S
C1574 C1575 1.367 . S
C1575 C1574 1.367 . S
C1575 C1577 1.433 . S
C1576 C1572 1.350 . S
C1576 C1573 1.463 . S
C1576 N1580 1.427 . S
C1577 H1567 0.929 . S
C1577 C1575 1.433 . S
C1577 N1580 1.384 . S
C1578 H1569 0.929 . S
C1578 C1570 1.378 . S
C1578 C1573 1.350 . S
C1579 H1566 0.929 . S
C1579 C1571 1.433 . S
C1579 N1581 1.384 . S
N1580 C1576 1.427 . S
N1580 C1577 1.384 . S
N1581 C1573 1.427 . S
N1581 C1579 1.384 . S
H1582 C1588 0.930 . S
H1583 C1592 0.930 . S
H1584 C1597 0.929 . S
H1585 C1595 0.929 . S
H1586 C1590 0.929 . S
H1587 C1596 0.929 . S
C1588 H1582 0.930 . S
C1588 C1589 1.367 . S
C1588 C1596 1.378 . S
C1589 C1588 1.367 . S
C1589 C1597 1.433 . S
C1590 H1586 0.929 . S
C1590 C1592 1.378 . S
C1590 C1594 1.350 . S
C1591 C1594 1.463 . S
C1591 C1596 1.350 . S
C1591 N1599 1.427 . S
C1592 H1583 0.930 . S
C1592 C1590 1.378 . S
C1592 C1593 1.367 . S
C1593 C1592 1.367 . S
C1593 C1595 1.433 . S
C1594 C1590 1.350 . S
C1594 C1591 1.463 . S
C1594 N1598 1.427 . S
C1595 H1585 0.929 . S
C1595 C1593 1.433 . S
C1595 N1598 1.384 . S
C1596 H1587 0.929 . S
C1596 C1588 1.378 . S
C1596 C1591 1.350 . S
C1597 H1584 0.929 . S
C1597 C1589 1.433 . S
C1597 N1599 1.384 . S
N1598 C1594 1.427 . S
N1598 C1595 1.384 . S
N1599 C1591 1.427 . S
N1599 C1597 1.384 . S
C455 C1 1.563 . S
C459 C55 1.567 . S
C473 C29 1.563 . S
C477 C15 1.563 . S
C491 C56 1.562 . S
C495 C98 1.564 . S
C509 C85 1.567 . S
C513 C83 1.563 . S
C527 C125 1.563 . S
C531 C155 1.567 . S
C545 C140 1.567 . S
C549 C126 1.562 . S
C563 C169 1.563 . S
C567 C222 1.566 . S
C581 C183 1.568 . S
C585 C209 1.564 . S
C599 C266 1.563 . S
C603 C225 1.567 . S
C617 C238 1.566 . S
C621 C252 1.563 . S
C635 C280 1.562 . S
C639 C323 1.565 . S
C653 C309 1.562 . S
C657 C307 1.566 . S
C671 C337 1.564 . S
C675 C378 1.567 . S
C689 C364 1.566 . S
C693 C351 1.561 . S
C707 C404 1.561 . S
C711 C435 1.566 . S
C725 C406 1.567 . S
C729 C421 1.564 . S
C743 C180 1.596 . S
C747 C12 1.598 . S
C761 C26 1.600 . S
C765 C294 1.598 . S
C779 C40 1.598 . S
C783 C96 1.596 . S
C797 C446 1.604 . S
C801 C42 1.605 . S
C815 C69 1.596 . S
C819 C112 1.596 . S
C833 C251 1.599 . S
C837 C70 1.599 . S
C851 C391 1.597 . S
C855 C111 1.599 . S
C869 C419 1.603 . S
C873 C139 1.601 . S
C887 C196 1.603 . S
C891 C153 1.603 . S
C905 C334 1.600 . S
C909 C166 1.601 . S
C923 C194 1.602 . S
C927 C362 1.604 . S
C941 C279 1.602 . S
C945 C211 1.604 . S
C959 C393 1.604 . S
C963 C236 1.604 . S
C977 C320 1.601 . S
C981 C265 1.601 . S
C995 C348 1.602 . S
C999 C293 1.602 . S
C1013 C377 1.599 . S
C1017 C432 1.599 . S
C1031 C141 1.692 . S
C1035 C0 1.695 . S
C1049 C14 1.693 . S
C1053 C154 1.696 . S
C1067 C124 1.694 . S
C1071 C28 1.698 . S
C1085 C127 1.698 . S
C1089 C54 1.696 . S
C1103 C57 1.699 . S
C1107 C208 1.697 . S
C1121 C82 1.695 . S
C1125 C223 1.700 . S
C1139 C168 1.696 . S
C1143 C84 1.698 . S
C1157 C99 1.696 . S
C1161 C182 1.692 . S
C1175 C365 1.698 . S
C1179 C224 1.698 . S
C1193 C379 1.698 . S
C1197 C239 1.697 . S
C1211 C253 1.698 . S
C1215 C336 1.699 . S
C1229 C267 1.698 . S
C1233 C350 1.700 . S
C1247 C281 1.697 . S
C1251 C420 1.692 . S
C1265 C306 1.696 . S
C1269 C434 1.699 . S
C1283 C405 1.695 . S
C1287 C308 1.698 . S
C1301 C407 1.696 . S
C1305 C322 1.692 . S
C1319 C13 1.698 . S
C1323 C363 1.696 . S
C1337 C349 1.695 . S
C1341 C27 1.695 1_655 S
C1355 C41 1.698 1_556 S
C1359 C390 1.700 . S
C1373 C43 1.697 1_656 S
C1377 C376 1.699 . S
C1391 C68 1.698 . S
C1395 C418 1.696 . S
C1409 C71 1.697 1_455 S
C1413 C392 1.696 . S
C1427 C447 1.698 1_554 S
C1431 C97 1.698 . S
C1445 C433 1.704 1_554 S
C1449 C110 1.702 1_455 S
C1463 C250 1.703 . S
C1467 C113 1.703 . S
C1481 C237 1.698 . S
C1485 C138 1.702 1_655 S
C1499 C152 1.702 . S
C1503 C278 1.700 . S
C1517 C167 1.697 1_655 S
C1521 C264 1.701 . S
C1535 C295 1.703 . S
C1539 C181 1.701 . S
C1553 C195 1.697 1_455 S
C1557 C292 1.695 . S
C1571 C197 1.704 . S
C1575 C335 1.703 . S
C1589 C210 1.697 1_455 S
C1593 C321 1.701 . S
