# Generated by pormake.
# Topology uny, (4)-cn, num edge types: 1
# Building blocks:
#     Node 0, Type 0, BuildingBlock: QUQFOY_clean_sbu_3, # of connection points: 4
#     Node 1, Type 0, BuildingBlock: QUQFOY_clean_sbu_3, # of connection points: 4
#     Node 2, Type 0, BuildingBlock: QUQFOY_clean_sbu_3, # of connection points: 4
#     Node 3, Type 0, BuildingBlock: QUQFOY_clean_sbu_3, # of connection points: 4
#     Node 4, Type 0, BuildingBlock: QUQFOY_clean_sbu_3, # of connection points: 4
#     Node 5, Type 0, BuildingBlock: QUQFOY_clean_sbu_3, # of connection points: 4
#     Node 6, Type 0, BuildingBlock: QUQFOY_clean_sbu_3, # of connection points: 4
#     Node 7, Type 0, BuildingBlock: QUQFOY_clean_sbu_3, # of connection points: 4
#     Node 8, Type 0, BuildingBlock: QUQFOY_clean_sbu_3, # of connection points: 4
#     Node 9, Type 0, BuildingBlock: QUQFOY_clean_sbu_3, # of connection points: 4
#     Node 10, Type 0, BuildingBlock: QUQFOY_clean_sbu_3, # of connection points: 4
#     Node 11, Type 0, BuildingBlock: QUQFOY_clean_sbu_3, # of connection points: 4
#     Node 12, Type 0, BuildingBlock: QUQFOY_clean_sbu_3, # of connection points: 4
#     Node 13, Type 0, BuildingBlock: QUQFOY_clean_sbu_3, # of connection points: 4
#     Node 14, Type 0, BuildingBlock: QUQFOY_clean_sbu_3, # of connection points: 4
#     Node 15, Type 0, BuildingBlock: QUQFOY_clean_sbu_3, # of connection points: 4
#     Node 16, Type 0, BuildingBlock: QUQFOY_clean_sbu_3, # of connection points: 4
#     Node 17, Type 0, BuildingBlock: QUQFOY_clean_sbu_3, # of connection points: 4
#     Edge 18, Type (0, 0), BuildingBlock: MIFKUJ_clean_linker_0, # of connection points: 2
#     Edge 19, Type (0, 0), BuildingBlock: MIFKUJ_clean_linker_0, # of connection points: 2
#     Edge 20, Type (0, 0), BuildingBlock: MIFKUJ_clean_linker_0, # of connection points: 2
#     Edge 21, Type (0, 0), BuildingBlock: MIFKUJ_clean_linker_0, # of connection points: 2
#     Edge 22, Type (0, 0), BuildingBlock: MIFKUJ_clean_linker_0, # of connection points: 2
#     Edge 23, Type (0, 0), BuildingBlock: MIFKUJ_clean_linker_0, # of connection points: 2
#     Edge 24, Type (0, 0), BuildingBlock: MIFKUJ_clean_linker_0, # of connection points: 2
#     Edge 25, Type (0, 0), BuildingBlock: MIFKUJ_clean_linker_0, # of connection points: 2
#     Edge 26, Type (0, 0), BuildingBlock: MIFKUJ_clean_linker_0, # of connection points: 2
#     Edge 27, Type (0, 0), BuildingBlock: MIFKUJ_clean_linker_0, # of connection points: 2
#     Edge 28, Type (0, 0), BuildingBlock: MIFKUJ_clean_linker_0, # of connection points: 2
#     Edge 29, Type (0, 0), BuildingBlock: MIFKUJ_clean_linker_0, # of connection points: 2
#     Edge 30, Type (0, 0), BuildingBlock: MIFKUJ_clean_linker_0, # of connection points: 2
#     Edge 31, Type (0, 0), BuildingBlock: MIFKUJ_clean_linker_0, # of connection points: 2
#     Edge 32, Type (0, 0), BuildingBlock: MIFKUJ_clean_linker_0, # of connection points: 2
#     Edge 33, Type (0, 0), BuildingBlock: MIFKUJ_clean_linker_0, # of connection points: 2
#     Edge 34, Type (0, 0), BuildingBlock: MIFKUJ_clean_linker_0, # of connection points: 2
#     Edge 35, Type (0, 0), BuildingBlock: MIFKUJ_clean_linker_0, # of connection points: 2
#     Edge 36, Type (0, 0), BuildingBlock: MIFKUJ_clean_linker_0, # of connection points: 2
#     Edge 37, Type (0, 0), BuildingBlock: MIFKUJ_clean_linker_0, # of connection points: 2
#     Edge 38, Type (0, 0), BuildingBlock: MIFKUJ_clean_linker_0, # of connection points: 2
#     Edge 39, Type (0, 0), BuildingBlock: MIFKUJ_clean_linker_0, # of connection points: 2
#     Edge 40, Type (0, 0), BuildingBlock: MIFKUJ_clean_linker_0, # of connection points: 2
#     Edge 41, Type (0, 0), BuildingBlock: MIFKUJ_clean_linker_0, # of connection points: 2
#     Edge 42, Type (0, 0), BuildingBlock: MIFKUJ_clean_linker_0, # of connection points: 2
#     Edge 43, Type (0, 0), BuildingBlock: MIFKUJ_clean_linker_0, # of connection points: 2
#     Edge 44, Type (0, 0), BuildingBlock: MIFKUJ_clean_linker_0, # of connection points: 2
#     Edge 45, Type (0, 0), BuildingBlock: MIFKUJ_clean_linker_0, # of connection points: 2
#     Edge 46, Type (0, 0), BuildingBlock: MIFKUJ_clean_linker_0, # of connection points: 2
#     Edge 47, Type (0, 0), BuildingBlock: MIFKUJ_clean_linker_0, # of connection points: 2
#     Edge 48, Type (0, 0), BuildingBlock: MIFKUJ_clean_linker_0, # of connection points: 2
#     Edge 49, Type (0, 0), BuildingBlock: MIFKUJ_clean_linker_0, # of connection points: 2
#     Edge 50, Type (0, 0), BuildingBlock: MIFKUJ_clean_linker_0, # of connection points: 2
#     Edge 51, Type (0, 0), BuildingBlock: MIFKUJ_clean_linker_0, # of connection points: 2
#     Edge 52, Type (0, 0), BuildingBlock: MIFKUJ_clean_linker_0, # of connection points: 2
#     Edge 53, Type (0, 0), BuildingBlock: MIFKUJ_clean_linker_0, # of connection points: 2
# Relax obj value: 0.238
# Max RMSD: 0.636
# Mean RMSD: 0.418
data_MOF--net-uny--node1-QUQFOY_clean_sbu_3--edge1-MIFKUJ_clean_linker_0
_symmetry_space_group_name_H-M    P1
_symmetry_Int_Tables_number       1
_symmetry_cell_setting            triclinic
loop_
_symmetry_equiv_pos_as_xyz
'x, y, z'
_cell_length_a     58.274826
_cell_length_b     58.101764
_cell_length_c     11.584723
_cell_angle_alpha  94.158058
_cell_angle_beta   87.616532
_cell_angle_gamma 121.69856
loop_
_atom_site_label
_atom_site_type_symbol
_atom_site_fract_x
_atom_site_fract_y
_atom_site_fract_z
_atom_type_partial_charge
C0 C 0.08522 0.24031 0.24585 0.0
O1 O 0.07708 0.24751 0.33676 0.0
Cd2 Cd 0.04938 0.20977 0.45302 0.0
O3 O 0.06884 0.21865 0.18741 0.0
Cd4 Cd -0.0038 0.1591 0.18523 0.0
C5 C 0.05782 0.14883 0.31551 0.0
O6 O 0.98839 0.17755 0.40308 0.0
O7 O 0.95701 0.1616 0.2751 0.0
O8 O 0.97875 0.15727 0.99469 0.0
C9 C 0.97569 0.16035 0.31844 0.0
O10 O 0.06654 0.17236 0.37253 0.0
C11 C 0.95763 0.13401 0.00481 0.0
O12 O 0.03361 0.13447 0.26747 0.0
O13 O 0.95849 0.11933 0.07688 0.0
C14 C 0.85179 0.81482 0.07469 0.0
O15 O 0.83105 0.80822 0.01593 0.0
Cd16 Cd 0.85433 0.84974 0.9103 0.0
O17 O 0.8708 0.83946 0.07754 0.0
Cd18 Cd 0.86148 0.87115 0.98561 0.0
C19 C 0.91303 0.86865 0.8728 0.0
O20 O 0.84944 0.87851 0.79164 0.0
O21 O 0.87373 0.91336 0.9123 0.0
O22 O 0.81473 0.84689 0.03774 0.0
C23 C 0.86129 0.90405 0.81608 0.0
O24 O 0.89231 0.85018 0.8197 0.0
C25 C 0.81704 0.86424 0.11803 0.0
O26 O 0.90955 0.88198 0.9569 0.0
O27 O 0.84096 0.88334 0.14686 0.0
C28 C 0.25688 0.98441 0.47943 0.0
O29 O 0.27139 0.00383 0.55139 0.0
Cd30 Cd 0.25011 0.03122 0.54686 0.0
O31 O 0.2431 0.98744 0.40837 0.0
Cd32 Cd 0.23149 0.01526 0.32835 0.0
C33 C 0.18431 0.97775 0.49519 0.0
O34 O 0.25115 0.06205 0.40742 0.0
O35 O 0.20802 0.03696 0.40474 0.0
O36 O 0.27021 0.03077 0.21018 0.0
C37 C 0.22857 0.06057 0.40141 0.0
O38 O 0.20221 0.99594 0.56406 0.0
C39 C 0.25909 0.02868 0.1148 0.0
O40 O 0.18923 0.97687 0.38717 0.0
O41 O 0.23334 0.01609 0.11388 0.0
C42 C 0.07949 0.8462 0.19798 0.0
O43 O 0.07985 0.8547 0.30247 0.0
Cd44 Cd 0.05963 0.87918 0.3836 0.0
O45 O 0.06476 0.84745 0.1234 0.0
Cd46 Cd 0.03367 0.86428 0.12074 0.0
C47 C 0.08594 0.92917 0.19138 0.0
O48 O 0.01727 0.8651 0.31476 0.0
O49 O 0.98654 0.84035 0.19235 0.0
O50 O 0.01442 0.83245 0.95882 0.0
C51 C -0.00582 0.85748 0.27739 0.0
O52 O 0.08622 0.92059 0.28885 0.0
C53 C 0.00068 0.84203 0.92575 0.0
O54 O 0.06822 0.91407 0.11466 0.0
O55 O 0.00635 0.86512 0.97013 0.0
C56 C 0.24824 0.22964 0.71736 0.0
O57 O 0.23796 0.23007 0.62348 0.0
Cd58 Cd 0.19013 0.21586 0.6034 0.0
O59 O 0.23524 0.22601 0.81129 0.0
Cd60 Cd 0.19524 0.22785 0.82667 0.0
C61 C 0.17067 0.16182 0.73385 0.0
O62 O 0.16247 0.22919 0.71339 0.0
O63 O 0.14943 0.20934 0.87907 0.0
O64 O 0.22294 0.2735 0.7753 0.0
C65 C 0.14376 0.21659 0.7882 0.0
O66 O 0.16714 0.16929 0.63947 0.0
C67 C 0.22334 0.28318 0.87839 0.0
O68 O 0.18346 0.17925 0.817 0.0
O69 O 0.21247 0.26657 0.95938 0.0
C70 C 0.88126 0.08941 0.74759 0.0
O71 O 0.90435 0.09222 0.7507 0.0
Cd72 Cd 0.91045 0.07505 0.92194 0.0
O73 O 0.86174 0.07087 0.80542 0.0
Cd74 Cd 0.85308 0.02822 0.90661 0.0
C75 C 0.86904 0.06272 0.14333 0.0
O76 O 0.89603 0.0282 0.88143 0.0
O77 O 0.8672 0.00462 0.01336 0.0
O78 O 0.83187 0.99423 0.74382 0.0
C79 C 0.88889 0.01128 0.95953 0.0
O80 O 0.8779 0.07718 0.05668 0.0
C81 C 0.81113 0.97857 0.80209 0.0
O82 O 0.84958 0.0388 0.11997 0.0
O83 O 0.80855 0.98752 0.90209 0.0
C84 C 0.64844 0.54835 0.84317 0.0
O85 O 0.66783 0.55151 0.77849 0.0
Cd86 Cd 0.68003 0.52894 0.91422 0.0
O87 O 0.64588 0.5382 0.93913 0.0
Cd88 Cd 0.68722 0.53488 0.95604 0.0
C89 C 0.6451 0.48882 0.08894 0.0
O90 O 0.69232 0.49702 0.8719 0.0
O91 O 0.7058 0.51415 0.04788 0.0
O92 O 0.72187 0.56448 0.81677 0.0
C93 C 0.70113 0.49575 0.96931 0.0
O94 O 0.63898 0.48952 0.9862 0.0
C95 C 0.73434 0.58406 0.89166 0.0
O96 O 0.66543 0.51036 0.1325 0.0
O97 O 0.72468 0.58086 0.99451 0.0
C98 C 0.49068 0.12291 0.5906 0.0
O99 O 0.48271 0.13393 0.5252 0.0
Cd100 Cd 0.50925 0.17617 0.63848 0.0
O101 O 0.50197 0.13562 0.68539 0.0
Cd102 Cd 0.51338 0.1858 0.71376 0.0
C103 C 0.56524 0.18529 0.70708 0.0
O104 O 0.5239 0.21356 0.53437 0.0
O105 O 0.54159 0.23408 0.69982 0.0
O106 O 0.46687 0.17177 0.70343 0.0
C107 C 0.53819 0.23574 0.59407 0.0
O108 O 0.54859 0.17212 0.62703 0.0
C109 C 0.46741 0.18717 0.78815 0.0
O110 O 0.55805 0.19617 0.78842 0.0
O111 O 0.48785 0.19797 0.85493 0.0
C112 C 0.90543 0.37177 0.76378 0.0
O113 O 0.88113 0.35685 0.732 0.0
Cd114 Cd 0.86664 0.35145 0.93158 0.0
O115 O 0.91051 0.37377 0.87061 0.0
Cd116 Cd 0.86939 0.34391 0.00146 0.0
C117 C 0.86524 0.3931 0.08649 0.0
O118 O 0.82062 0.32503 0.93231 0.0
O119 O 0.8323 0.297 0.95612 0.0
O120 O 0.89556 0.32454 0.02857 0.0
C121 C 0.81306 0.30083 0.94709 0.0
O122 O 0.87599 0.3961 0.98749 0.0
C123 C 0.88928 0.31945 0.13383 0.0
O124 O 0.86199 0.37335 0.1395 0.0
O125 O 0.87444 0.3273 0.18271 0.0
C126 C 0.73831 0.13919 0.07959 0.0
O127 O 0.71558 0.12866 0.12999 0.0
Cd128 Cd 0.70884 0.16297 0.05869 0.0
O129 O 0.74496 0.15814 0.01292 0.0
Cd130 Cd 0.71105 0.17114 0.96578 0.0
C131 C 0.75573 0.22331 0.09941 0.0
O132 O 0.66999 0.16304 0.09798 0.0
O133 O 0.68539 0.19212 0.96447 0.0
O134 O 0.68808 0.12806 0.86137 0.0
C135 C 0.66779 0.17984 0.04165 0.0
O136 O 0.7426 0.20378 0.16363 0.0
C137 C 0.68449 0.13668 0.77026 0.0
O138 O 0.75104 0.2182 0.99115 0.0
O139 O 0.69749 0.16228 0.76204 0.0
C140 C 0.92628 0.54918 0.87649 0.0
O141 O 0.92072 0.56703 0.86024 0.0
Cd142 Cd 0.87186 0.53381 0.87802 0.0
O143 O 0.90692 0.52594 0.89913 0.0
Cd144 Cd 0.86238 0.52487 0.9335 0.0
C145 C 0.85179 0.4712 0.88623 0.0
O146 O 0.84232 0.53577 0.75933 0.0
O147 O 0.81919 0.49907 0.85033 0.0
O148 O 0.88754 0.56619 0.0567 0.0
C149 C 0.81966 0.51412 0.7751 0.0
O150 O 0.86222 0.48825 0.80899 0.0
C151 C 0.86711 0.56673 0.09414 0.0
O152 O 0.84727 0.47884 0.98564 0.0
O153 O 0.84475 0.54457 0.08208 0.0
C154 C 0.50747 0.389 0.99198 0.0
O155 O 0.5257 0.3851 0.95214 0.0
Cd156 Cd 0.52475 0.36376 0.12265 0.0
O157 O 0.49486 0.37691 0.08158 0.0
Cd158 Cd 0.50845 0.34464 0.1527 0.0
C159 C 0.55137 0.39319 0.34177 0.0
O160 O 0.54931 0.34586 0.05321 0.0
O161 O 0.51096 0.31365 0.99299 0.0
O162 O 0.47994 0.30177 0.2452 0.0
C163 C 0.53625 0.32418 0.99206 0.0
O164 O 0.55254 0.40308 0.24672 0.0
C165 C 0.45855 0.29587 0.19334 0.0
O166 O 0.53439 0.36785 0.34728 0.0
O167 O 0.45979 0.31414 0.1352 0.0
C168 C 0.42877 0.93127 0.03265 0.0
O169 O 0.41147 0.92959 0.10702 0.0
Cd170 Cd 0.38186 0.88143 0.04727 0.0
O171 O 0.4221 0.91108 0.96193 0.0
Cd172 Cd 0.37342 0.87057 0.98585 0.0
C173 C 0.40824 0.84798 0.95372 0.0
O174 O 0.36169 0.85312 0.19279 0.0
O175 O 0.34556 0.82486 0.04225 0.0
O176 O 0.34777 0.89333 0.0074 0.0
C177 C 0.34768 0.82879 0.15127 0.0
O178 O 0.41278 0.86511 0.03677 0.0
C179 C 0.33299 0.88164 0.91887 0.0
O180 O 0.39031 0.84325 0.88083 0.0
O181 O 0.33852 0.86652 0.85358 0.0
C182 C 0.1764 0.49589 0.8175 0.0
O183 O 0.16663 0.49772 0.72515 0.0
Cd184 Cd 0.18611 0.54317 0.65772 0.0
O185 O 0.18844 0.51607 0.88905 0.0
Cd186 Cd 0.19876 0.5606 0.93481 0.0
C187 C 0.24882 0.56513 0.78335 0.0
O188 O 0.19155 0.57984 0.78075 0.0
O189 O 0.22741 0.60623 0.88619 0.0
O190 O 0.15383 0.54188 0.00407 0.0
C191 C 0.21453 0.60193 0.79375 0.0
O192 O 0.23226 0.55992 0.70267 0.0
C193 C 0.16081 0.55669 0.09773 0.0
O194 O 0.2414 0.56234 0.88945 0.0
O195 O 0.186 0.57176 0.11902 0.0
C196 C 0.54212 0.64661 0.16838 0.0
O197 O 0.54588 0.65724 0.27096 0.0
Cd198 Cd 0.54378 0.69789 0.30932 0.0
O199 O 0.54284 0.6596 0.08378 0.0
Cd200 Cd 0.55115 0.70166 0.02443 0.0
C201 C 0.48717 0.67246 0.13969 0.0
O202 O 0.5692 0.73412 0.18707 0.0
O203 O 0.55104 0.74199 0.04685 0.0
O204 O 0.59603 0.71294 0.97754 0.0
C205 C 0.56175 0.749 0.14639 0.0
O206 O 0.49938 0.67972 0.23623 0.0
C207 C 0.59583 0.71868 0.8739 0.0
O208 O 0.49991 0.67591 0.04293 0.0
O209 O 0.57315 0.71289 0.83381 0.0
C210 C 0.40859 0.49714 0.3532 0.0
O211 O 0.38954 0.48282 0.42211 0.0
Cd212 Cd 0.35358 0.4922 0.48097 0.0
O213 O 0.40492 0.51023 0.28069 0.0
Cd214 Cd 0.35961 0.49515 0.32884 0.0
C215 C 0.40083 0.54485 0.54439 0.0
O216 O 0.32613 0.50585 0.37239 0.0
O217 O 0.34311 0.51309 0.19623 0.0
O218 O 0.3364 0.448 0.3969 0.0
C219 C 0.32681 0.51378 0.27149 0.0
O220 O 0.38405 0.52817 0.61404 0.0
C221 C 0.33496 0.43684 0.29658 0.0
O222 O 0.39683 0.53836 0.43654 0.0
O223 O 0.34486 0.45241 0.21276 0.0
C224 C 0.61158 0.90458 0.86654 0.0
O225 O 0.61027 0.90571 0.7583 0.0
Cd226 Cd 0.56629 0.88637 0.67241 0.0
O227 O 0.59097 0.8979 0.92955 0.0
Cd228 Cd 0.54608 0.88959 0.9054 0.0
C229 C 0.53135 0.82746 0.81455 0.0
O230 O 0.53661 0.9023 0.71766 0.0
O231 O 0.50505 0.86973 0.81599 0.0
O232 O 0.56236 0.93342 0.00104 0.0
C233 C 0.51167 0.8845 0.7313 0.0
O234 O 0.5416 0.83964 0.72197 0.0
C235 C 0.54454 0.92554 0.08017 0.0
O236 O 0.53157 0.84075 0.90803 0.0
O237 O 0.52747 0.90016 0.08157 0.0
C238 C 0.17777 0.7108 0.44104 0.0
O239 O 0.19564 0.70666 0.47305 0.0
Cd240 Cd 0.17042 0.6657 0.57727 0.0
O241 O 0.15389 0.69454 0.473 0.0
Cd242 Cd 0.15621 0.66181 0.59027 0.0
C243 C 0.21679 0.69687 0.71221 0.0
O244 O 0.15816 0.63856 0.40238 0.0
O245 O 0.1594 0.61887 0.5458 0.0
O246 O 0.11033 0.65104 0.60173 0.0
C247 C 0.1597 0.61934 0.43653 0.0
O248 O 0.21014 0.67269 0.68588 0.0
C249 C 0.10311 0.63292 0.67297 0.0
O250 O 0.1985 0.70214 0.70107 0.0
O251 O 0.122 0.63364 0.7276 0.0
H252 H 0.31757 0.39954 0.45976 0.0
H253 H 0.28169 0.35192 0.43743 0.0
H254 H 0.27939 0.35892 0.07104 0.0
H255 H 0.31574 0.40656 0.09191 0.0
H256 H 0.23492 0.35339 0.29776 0.0
H257 H 0.27778 0.31178 0.0382 0.0
H258 H 0.31392 0.30162 0.01068 0.0
H259 H 0.29502 0.26649 0.34098 0.0
H260 H 0.25856 0.27611 0.36943 0.0
H261 H 0.1163 0.24301 0.05693 0.0
H262 H 0.16436 0.25824 0.05851 0.0
H263 H 0.16374 0.26441 0.4318 0.0
H264 H 0.11643 0.25019 0.43069 0.0
H265 H 0.21184 0.25899 0.20549 0.0
H266 H 0.19347 0.32833 0.48878 0.0
H267 H 0.15721 0.33701 0.54514 0.0
H268 H 0.12899 0.31869 0.19439 0.0
H269 H 0.16486 0.30974 0.13657 0.0
C270 C 0.31031 0.39068 0.37354 0.0
C271 C 0.31923 0.40691 0.27782 0.0
C272 C 0.29 0.36335 0.36083 0.0
C273 C 0.27823 0.35181 0.25242 0.0
C274 C 0.28877 0.36726 0.15488 0.0
C275 C 0.30939 0.39458 0.16722 0.0
C276 C 0.25053 0.32794 0.24841 0.0
C277 C 0.22989 0.33293 0.2757 0.0
C278 C 0.24422 0.30105 0.22457 0.0
C279 C 0.26563 0.29477 0.20603 0.0
C280 C 0.28138 0.3019 0.10477 0.0
C281 C 0.30183 0.29614 0.08888 0.0
C282 C 0.30675 0.28339 0.17397 0.0
C283 C 0.29113 0.27625 0.27491 0.0
C284 C 0.27049 0.28172 0.2907 0.0
C285 C 0.12656 0.24762 0.13894 0.0
C286 C 0.11346 0.24766 0.24326 0.0
C287 C 0.15377 0.25557 0.14003 0.0
C288 C 0.16776 0.26337 0.2455 0.0
C289 C 0.15335 0.25883 0.3496 0.0
C290 C 0.12657 0.25166 0.3486 0.0
C291 C 0.19638 0.28514 0.24808 0.0
C292 C 0.21698 0.27973 0.22414 0.0
C293 C 0.20299 0.31203 0.27588 0.0
C294 C 0.18207 0.31868 0.30811 0.0
C295 C 0.17964 0.32637 0.42364 0.0
C296 C 0.15905 0.33117 0.45598 0.0
C297 C 0.14086 0.32849 0.37333 0.0
C298 C 0.14318 0.32092 0.25825 0.0
C299 C 0.16367 0.31602 0.22562 0.0
H300 H 0.12494 0.33221 0.39849 0.0
H301 H 0.32264 0.27904 0.1617 0.0
H302 H 0.81323 0.89837 0.2854 0.0
H303 H 0.77852 0.91032 0.29248 0.0
H304 H 0.73103 0.84379 0.04563 0.0
H305 H 0.76604 0.83285 0.03313 0.0
H306 H 0.76438 0.92494 0.08403 0.0
H307 H 0.66022 0.82078 0.13299 0.0
H308 H 0.64323 0.77959 0.23818 0.0
H309 H 0.70914 0.82254 0.47567 0.0
H310 H 0.72562 0.86452 0.37786 0.0
H311 H 0.6524 0.90164 0.75716 0.0
H312 H 0.68725 0.898 0.84796 0.0
H313 H 0.66082 0.91135 0.18529 0.0
H314 H 0.6247 0.91341 0.09551 0.0
H315 H 0.66622 0.8649 0.15515 0.0
H316 H 0.7394 0.96781 0.16385 0.0
H317 H 0.75539 0.01042 0.06815 0.0
H318 H 0.74943 0.96956 0.7365 0.0
H319 H 0.73422 0.92705 0.83097 0.0
C320 C 0.7954 0.88634 0.23292 0.0
C321 C 0.79303 0.8655 0.15492 0.0
C322 C 0.77551 0.89305 0.23764 0.0
C323 C 0.75247 0.87822 0.16792 0.0
C324 C 0.7487 0.85554 0.09993 0.0
C325 C 0.76876 0.84923 0.09343 0.0
C326 C 0.73351 0.8876 0.15554 0.0
C327 C 0.74298 0.91187 0.1008 0.0
C328 C 0.7056 0.87085 0.17989 0.0
C329 C 0.69474 0.84589 0.24491 0.0
C330 C 0.67108 0.82167 0.20813 0.0
C331 C 0.66134 0.79813 0.26755 0.0
C332 C 0.67511 0.79843 0.36391 0.0
C333 C 0.69836 0.82238 0.40204 0.0
C334 C 0.70791 0.84609 0.34451 0.0
C335 C 0.65439 0.90449 0.85046 0.0
C336 C 0.63582 0.90783 0.91912 0.0
C337 C 0.67449 0.90262 0.90224 0.0
C338 C 0.6771 0.90516 0.02308 0.0
C339 C 0.65928 0.90959 0.09181 0.0
C340 C 0.63875 0.91086 0.04028 0.0
C341 C 0.69705 0.90092 0.07697 0.0
C342 C 0.68771 0.87784 0.13988 0.0
C343 C 0.725 0.91862 0.06101 0.0
C344 C 0.73563 0.94434 0.00418 0.0
C345 C 0.74174 0.96805 0.07062 0.0
C346 C 0.7507 0.99217 0.01668 0.0
C347 C 0.75339 0.99269 0.89627 0.0
C348 C 0.74731 0.96915 0.82971 0.0
C349 C 0.73871 0.9451 0.88348 0.0
H350 H 0.76021 0.01133 0.8546 0.0
H351 H 0.66779 0.78012 0.4089 0.0
H352 H 0.21395 0.93899 0.39074 0.0
H353 H 0.20517 0.89367 0.3762 0.0
H354 H 0.27866 0.92021 0.56045 0.0
H355 H 0.2887 0.9674 0.57103 0.0
H356 H 0.26789 0.88526 0.34795 0.0
H357 H 0.22247 0.88949 0.69438 0.0
H358 H 0.19416 0.90476 0.79139 0.0
H359 H 0.12671 0.84692 0.58092 0.0
H360 H 0.15537 0.83309 0.47411 0.0
H361 H 0.22616 0.74632 0.35377 0.0
H362 H 0.2444 0.79451 0.3543 0.0
H363 H 0.1629 0.77865 0.36548 0.0
H364 H 0.1461 0.73146 0.39831 0.0
H365 H 0.18254 0.81177 0.50856 0.0
H366 H 0.22436 0.81347 0.14049 0.0
H367 H 0.25267 0.8083 0.98903 0.0
H368 H 0.32259 0.85858 0.20071 0.0
H369 H 0.2945 0.86215 0.35474 0.0
C370 C 0.22871 0.93565 0.42715 0.0
C371 C 0.25241 0.95701 0.48039 0.0
C372 C 0.22336 0.90949 0.41971 0.0
C373 C 0.24105 0.90364 0.4685 0.0
C374 C 0.26476 0.9246 0.52286 0.0
C375 C 0.27039 0.95133 0.52946 0.0
C376 C 0.2341 0.87532 0.45918 0.0
C377 C 0.2496 0.86889 0.38488 0.0
C378 C 0.20936 0.85442 0.50256 0.0
C379 C 0.19124 0.86036 0.57558 0.0
C380 C 0.20162 0.88 0.66845 0.0
C381 C 0.18549 0.88849 0.725 0.0
C382 C 0.1585 0.87654 0.69387 0.0
C383 C 0.14759 0.85608 0.60552 0.0
C384 C 0.16388 0.8481 0.54597 0.0
C385 C 0.21257 0.75366 0.36006 0.0
C386 C 0.18546 0.73601 0.38695 0.0
C387 C 0.22277 0.78124 0.35544 0.0
C388 C 0.2053 0.79117 0.36419 0.0
C389 C 0.17724 0.77216 0.36566 0.0
C390 C 0.16742 0.74492 0.38172 0.0
C391 C 0.21575 0.82065 0.39087 0.0
C392 C 0.2009 0.8275 0.46981 0.0
C393 C 0.24063 0.84197 0.34802 0.0
C394 C 0.25717 0.83772 0.25903 0.0
C395 C 0.24563 0.82265 0.15504 0.0
C396 C 0.26168 0.81979 0.06936 0.0
C397 C 0.28943 0.83246 0.08645 0.0
C398 C 0.30108 0.84783 0.18898 0.0
C399 C 0.28506 0.8502 0.27557 0.0
H400 H 0.30212 0.83103 0.01942 0.0
H401 H 0.1462 0.88341 0.73721 0.0
H402 H 0.40685 0.27884 0.13398 0.0
H403 H 0.37105 0.23243 0.07662 0.0
H404 H 0.42191 0.20302 0.16573 0.0
H405 H 0.45803 0.24931 0.2153 0.0
H406 H 0.39776 0.18089 0.95765 0.0
H407 H 0.36993 0.18621 0.3457 0.0
H408 H 0.36997 0.21839 0.49669 0.0
H409 H 0.31366 0.22577 0.30014 0.0
H410 H 0.31313 0.19337 0.14724 0.0
H411 H 0.31103 0.04613 0.05858 0.0
H412 H 0.34333 0.09329 0.02515 0.0
H413 H 0.27833 0.10513 0.95188 0.0
H414 H 0.24578 0.05731 0.98313 0.0
H415 H 0.30721 0.1372 0.13917 0.0
H416 H 0.32994 0.12197 0.75368 0.0
H417 H 0.34188 0.10101 0.58837 0.0
H418 H 0.41314 0.11853 0.76518 0.0
H419 H 0.40161 0.13952 0.93178 0.0
C420 C 0.41022 0.26241 0.14274 0.0
C421 C 0.43515 0.26774 0.18172 0.0
C422 C 0.38976 0.23591 0.11016 0.0
C423 C 0.39375 0.21421 0.11775 0.0
C424 C 0.41834 0.21941 0.15958 0.0
C425 C 0.43883 0.24589 0.19074 0.0
C426 C 0.37228 0.18608 0.08186 0.0
C427 C 0.37784 0.17167 0.99478 0.0
C428 C 0.3465 0.17357 0.13394 0.0
C429 C 0.34147 0.18742 0.2353 0.0
C430 C 0.35699 0.19416 0.33602 0.0
C431 C 0.35733 0.21262 0.42116 0.0
C432 C 0.34209 0.22436 0.40672 0.0
C433 C 0.32545 0.21663 0.3102 0.0
C434 C 0.32498 0.19808 0.22465 0.0
C435 C 0.30365 0.05828 0.02817 0.0
C436 C 0.27588 0.04838 0.02842 0.0
C437 C 0.32218 0.08547 0.01015 0.0
C438 C 0.31324 0.10303 0.98938 0.0
C439 C 0.28565 0.09208 0.97043 0.0
C440 C 0.26707 0.06464 0.98716 0.0
C441 C 0.33226 0.13273 0.00699 0.0
C442 C 0.32657 0.14717 0.09514 0.0
C443 C 0.35805 0.14552 0.95428 0.0
C444 C 0.36478 0.13218 0.85572 0.0
C445 C 0.34802 0.12111 0.75787 0.0
C446 C 0.35478 0.10932 0.66368 0.0
C447 C 0.37821 0.10837 0.66639 0.0
C448 C 0.39495 0.11921 0.76332 0.0
C449 C 0.38835 0.13115 0.85751 0.0
H450 H 0.38344 0.09928 0.59328 0.0
H451 H 0.34313 0.23942 0.47056 0.0
H452 H 0.75492 0.10914 0.95511 0.0
H453 H 0.80085 0.11795 0.96262 0.0
H454 H 0.81607 0.17153 0.26689 0.0
H455 H 0.77006 0.16085 0.2643 0.0
H456 H 0.83682 0.16402 0.92735 0.0
H457 H 0.85799 0.1856 0.40942 0.0
H458 H 0.83611 0.1584 0.57857 0.0
H459 H 0.81844 0.08597 0.37903 0.0
H460 H 0.83833 0.1123 0.20619 0.0
H461 H 0.93977 0.14625 0.82594 0.0
H462 H 0.9135 0.16495 0.84906 0.0
H463 H 0.89403 0.1429 0.19853 0.0
H464 H 0.91939 0.12122 0.17345 0.0
H465 H 0.9006 0.18461 0.23487 0.0
H466 H 0.873 0.23102 0.70338 0.0
H467 H 0.89296 0.27 0.61638 0.0
H468 H 0.96766 0.29866 0.77585 0.0
H469 H 0.9521 0.26041 0.86658 0.0
C470 C 0.76761 0.12112 0.02821 0.0
C471 C 0.75902 0.13392 0.11064 0.0
C472 C 0.79394 0.12649 0.03172 0.0
C473 C 0.81215 0.14554 0.11506 0.0
C474 C 0.80251 0.15614 0.20374 0.0
C475 C 0.77602 0.15003 0.20239 0.0
C476 C 0.84177 0.15882 0.09626 0.0
C477 C 0.85268 0.16891 0.98692 0.0
C478 C 0.85938 0.16593 0.18893 0.0
C479 C 0.84962 0.15091 0.29551 0.0
C480 C 0.84967 0.16394 0.40211 0.0
C481 C 0.83743 0.14863 0.49833 0.0
C482 C 0.82627 0.12061 0.49037 0.0
C483 C 0.82708 0.10767 0.38543 0.0
C484 C 0.83847 0.12269 0.28797 0.0
C485 C 0.92871 0.14422 0.90608 0.0
C486 C 0.93235 0.13303 -0.00169 0.0
C487 C 0.91375 0.15631 0.9208 0.0
C488 C 0.90337 0.15978 0.02688 0.0
C489 C 0.90341 0.14404 0.11508 0.0
C490 C 0.91769 0.13083 0.10049 0.0
C491 C 0.89442 0.18035 0.05039 0.0
C492 C 0.88688 0.18146 0.16655 0.0
C493 C 0.88193 0.18885 0.96388 0.0
C494 C 0.90641 0.23551 0.82276 0.0
C495 C 0.89366 0.24299 0.73273 0.0
C496 C 0.90503 0.26709 0.6756 0.0
C497 C 0.93121 0.2874 0.69363 0.0
C498 C 0.94653 0.28311 0.76469 0.0
C499 C 0.93551 0.259 0.8211 0.0
H500 H 0.93983 0.30609 0.64998 0.0
H501 H 0.81681 0.10889 0.56525 0.0
H502 H 0.89298 0.59703 0.90113 0.0
H503 H 0.90199 0.64474 0.84123 0.0
H504 H 0.84333 0.63791 0.25172 0.0
H505 H 0.84349 0.59156 0.25399 0.0
H506 H 0.83626 0.66943 0.00448 0.0
H507 H 0.8523 0.68197 0.341 0.0
H508 H 0.85897 0.66533 0.51863 0.0
H509 H 0.94204 0.69726 0.42671 0.0
H510 H 0.93562 0.7137 0.24675 0.0
H511 H 0.81565 0.76031 0.09459 0.0
H512 H 0.82794 0.72582 0.07735 0.0
H513 H 0.9115 0.78797 0.12918 0.0
H514 H 0.8995 0.82238 0.14432 0.0
H515 H 0.90099 0.74609 0.2204 0.0
H516 H 0.91075 0.73046 0.64421 0.0
H517 H 0.91341 0.75158 0.4814 0.0
H518 H 0.82899 0.71523 0.47647 0.0
H519 H 0.82401 0.69404 0.64419 0.0
C520 C 0.88518 0.60693 0.95835 0.0
C521 C 0.868 0.59208 0.08057 0.0
C522 C 0.89062 0.63709 0.92145 0.0
C523 C 0.86977 0.65647 0.07431 0.0
C524 C 0.85406 0.63388 0.18322 0.0
C525 C 0.85365 0.60407 0.18202 0.0
C526 C 0.86994 0.68352 0.09244 0.0
C527 C 0.85372 0.68865 0.02617 0.0
C528 C 0.88768 0.705 0.16685 0.0
C529 C 0.89341 0.69871 0.27983 0.0
C530 C 0.87206 0.68556 0.35904 0.0
C531 C 0.87568 0.67592 0.45946 0.0
C532 C 0.90089 0.68007 0.48359 0.0
C533 C 0.92251 0.69402 0.40754 0.0
C534 C 0.91886 0.70344 0.30598 0.0
C535 C 0.83659 0.76654 0.10423 0.0
C536 C 0.85681 0.79411 0.11271 0.0
C537 C 0.84367 0.7469 0.09223 0.0
C538 C 0.871 0.75474 0.08909 0.0
C539 C 0.89048 0.78167 0.12225 0.0
C540 C 0.8835 0.80132 0.13274 0.0
C541 C 0.87897 0.73457 0.05663 0.0
C542 C 0.8915 0.73054 0.15093 0.0
C543 C 0.86568 0.71373 0.95832 0.0
C544 C 0.86782 0.71693 0.70885 0.0
C545 C 0.89188 0.72889 0.62919 0.0
C546 C 0.89414 0.7409 0.52566 0.0
C547 C 0.8718 0.73806 0.47599 0.0
C548 C 0.84705 0.72034 0.52235 0.0
C549 C 0.84505 0.70845 0.62625 0.0
H550 H 0.87341 0.74725 0.39569 0.0
H551 H 0.9037 0.67264 0.56155 0.0
H552 H 0.76872 0.59312 0.70475 0.0
H553 H 0.81254 0.63511 0.67152 0.0
H554 H 0.79814 0.67347 0.97525 0.0
H555 H 0.7556 0.63268 0.00783 0.0
H556 H 0.81477 0.70996 0.83784 0.0
H557 H 0.91956 0.68505 0.00378 0.0
H558 H 0.90826 0.65662 0.09714 0.0
H559 H 0.83213 0.5955 -0.00266 0.0
H560 H 0.83215 0.62627 0.83947 0.0
H561 H 0.95331 0.84113 0.95458 0.0
H562 H 0.90849 0.80119 0.91999 0.0
H563 H 0.9454 0.76018 0.74619 0.0
H564 H 0.98892 0.79998 0.77318 0.0
H565 H 0.91963 0.72322 0.83445 0.0
H566 H 0.8947 0.78264 0.68707 0.0
H567 H 0.88401 0.81197 0.59198 0.0
H568 H 0.81123 0.78211 0.79075 0.0
H569 H 0.82101 0.75202 0.8857 0.0
C570 C 0.77516 0.61071 0.76399 0.0
C571 C 0.75924 0.60942 0.86164 0.0
C572 C 0.80019 0.63454 0.74508 0.0
C573 C 0.80969 0.65685 0.82554 0.0
C574 C 0.7922 0.65616 0.91485 0.0
C575 C 0.76772 0.63268 0.93429 0.0
C576 C 0.83661 0.68236 0.81813 0.0
C577 C 0.83441 0.71225 0.84029 0.0
C578 C 0.87037 0.6863 0.81646 0.0
C579 C 0.87593 0.66684 0.87083 0.0
C580 C 0.9064 0.68427 0.94293 0.0
C581 C 0.91714 0.67387 0.05438 0.0
C582 C 0.89536 0.64074 0.10867 0.0
C583 C 0.85021 0.61576 0.99255 0.0
C584 C 0.8498 0.63511 0.89136 0.0
C585 C 0.95148 0.82378 0.90443 0.0
C586 C 0.97465 0.82341 0.8682 0.0
C587 C 0.92575 0.80044 0.88848 0.0
C588 C 0.92284 0.77615 0.84015 0.0
C589 C 0.94601 0.77737 0.79086 0.0
C590 C 0.97145 0.80067 0.80399 0.0
C591 C 0.89682 0.74926 0.84618 0.0
C592 C 0.89965 0.72001 0.83376 0.0
C593 C 0.864 0.7452 0.84712 0.0
C594 C 0.86007 0.76647 0.80338 0.0
C595 C 0.87719 0.7832 0.71662 0.0
C596 C 0.87089 0.79959 0.65966 0.0
C597 C 0.84739 0.79958 0.68777 0.0
C598 C 0.82986 0.78271 0.77116 0.0
C599 C 0.83589 0.76599 0.82707 0.0
H600 H 0.84256 0.81229 0.64355 0.0
H601 H 0.90036 0.6307 0.18819 0.0
H602 H 0.26623 0.2058 0.55952 0.0
H603 H 0.30544 0.20174 0.57683 0.0
H604 H 0.32763 0.25209 0.89486 0.0
H605 H 0.28776 0.25547 0.87872 0.0
H606 H 0.3707 0.26638 0.77743 0.0
H607 H 0.29321 0.17479 0.86199 0.0
H608 H 0.25115 0.13175 0.80977 0.0
H609 H 0.28935 0.11897 0.50919 0.0
H610 H 0.3314 0.16226 0.55711 0.0
H611 H 0.46418 0.22496 0.93845 0.0
H612 H 0.43258 0.24076 0.92459 0.0
H613 H 0.39824 0.18809 0.61695 0.0
H614 H 0.42808 0.17172 0.63301 0.0
H615 H 0.36127 0.17653 0.74972 0.0
H616 H 0.43875 0.26176 0.654 0.0
H617 H 0.48192 0.30538 0.67747 0.0
H618 H 0.44784 0.3323 0.94921 0.0
H619 H 0.40491 0.28848 0.93276 0.0
C620 C 0.27982 0.21643 0.63174 0.0
C621 C 0.27414 0.23101 0.7176 0.0
C622 C 0.3022 0.21397 0.64226 0.0
C623 C 0.31968 0.22652 0.73744 0.0
C624 C 0.31463 0.24226 0.82033 0.0
C625 C 0.29192 0.24428 0.81099 0.0
C626 C 0.34317 0.22337 0.75125 0.0
C627 C 0.36877 0.24673 0.77274 0.0
C628 C 0.3408 0.1978 0.741 0.0
C629 C 0.31524 0.17202 0.71219 0.0
C630 C 0.29248 0.163 0.78395 0.0
C631 C 0.26869 0.13849 0.7554 0.0
C632 C 0.26755 0.12258 0.65684 0.0
C633 C 0.2902 0.13127 0.5856 0.0
C634 C 0.31398 0.15584 0.61311 0.0
C635 C 0.44951 0.21653 0.86931 0.0
C636 C 0.44783 0.19611 0.79016 0.0
C637 C 0.43184 0.22598 0.86 0.0
C638 C 0.41236 0.21506 0.77157 0.0
C639 C 0.41233 0.19624 0.68845 0.0
C640 C 0.42937 0.18662 0.69859 0.0
C641 C 0.38947 0.21961 0.77092 0.0
C642 C 0.36366 0.19637 0.75456 0.0
C643 C 0.39213 0.24538 0.78091 0.0
C644 C 0.41864 0.27128 0.79445 0.0
C645 C 0.44058 0.27656 0.72129 0.0
C646 C 0.46504 0.30138 0.73311 0.0
C647 C 0.4677 0.32135 0.81557 0.0
C648 C 0.4459 0.31663 0.88654 0.0
C649 C 0.42155 0.29172 0.87667 0.0
H650 H 0.48659 0.34058 0.82345 0.0
H651 H 0.24914 0.10349 0.636 0.0
H652 H 0.91675 0.13011 0.60621 0.0
H653 H 0.92246 0.17476 0.60504 0.0
H654 H 0.84536 0.14288 0.77691 0.0
H655 H 0.84054 0.0996 0.78026 0.0
H656 H 0.84885 0.18394 0.73902 0.0
H657 H 0.96462 0.21474 -0.00089 0.0
H658 H 0.01204 0.23282 0.94356 0.0
H659 H 0.99332 0.23359 0.59064 0.0
H660 H 0.94668 0.21935 0.64813 0.0
H661 H 0.85035 0.27134 0.21129 0.0
H662 H 0.85111 0.23076 0.14701 0.0
H663 H 0.93682 0.28044 0.0853 0.0
H664 H 0.93596 0.32054 0.15088 0.0
H665 H 0.92553 0.22039 0.93596 0.0
H666 H 0.87528 0.26618 0.9031 0.0
H667 H 0.8467 0.27708 0.80076 0.0
H668 H 0.78045 0.19496 0.81275 0.0
H669 H 0.81035 0.18226 0.89492 0.0
C670 C 0.90093 0.13281 0.64182 0.0
C671 C 0.87926 0.11179 0.70171 0.0
C672 C 0.90427 0.15874 0.64185 0.0
C673 C 0.88614 0.1641 0.70472 0.0
C674 C 0.86148 0.14112 0.73815 0.0
C675 C 0.85829 0.11554 0.73893 0.0
C676 C 0.89427 0.19099 0.77074 0.0
C677 C 0.86602 0.19445 0.79585 0.0
C678 C 0.92355 0.20946 0.86879 0.0
C679 C 0.9514 0.21321 0.82534 0.0
C680 C 0.9704 0.21775 0.90881 0.0
C681 C -0.00268 0.22788 0.87771 0.0
C682 C 0.00544 0.23287 0.76254 0.0
C683 C 0.98679 0.22868 0.67906 0.0
C684 C 0.96006 0.21963 0.71094 0.0
C685 C 0.86964 0.27329 0.19213 0.0
C686 C 0.89296 0.29897 0.18094 0.0
C687 C 0.86995 0.25014 0.15242 0.0
C688 C 0.89364 0.25291 0.10333 0.0
C689 C 0.91802 0.27783 0.11884 0.0
C690 C 0.91767 0.30088 0.15806 0.0
C691 C 0.89254 0.23273 0.0154 0.0
C692 C 0.9215 0.23018 -0.00251 0.0
C693 C 0.86512 0.21555 0.91607 0.0
C694 C 0.84498 0.22335 0.90762 0.0
C695 C 0.8544 0.25047 0.88758 0.0
C696 C 0.8382 0.25688 0.82986 0.0
C697 C 0.81147 0.23706 0.80528 0.0
C698 C 0.80112 0.2104 0.8338 0.0
C699 C 0.818 0.20338 0.88252 0.0
H700 H 0.7991 0.24242 0.76247 0.0
H701 H 0.02633 0.24077 0.7387 0.0
H702 H 0.79901 0.93624 0.92559 0.0
H703 H 0.76753 0.88808 0.87637 0.0
H704 H 0.75178 0.90756 0.54792 0.0
H705 H 0.78434 0.95612 0.59582 0.0
H706 H 0.70598 0.87834 0.71528 0.0
H707 H 0.77334 0.87222 0.51134 0.0
H708 H 0.81583 0.87481 0.4548 0.0
H709 H 0.80538 0.8236 0.72626 0.0
H710 H 0.76357 0.82175 0.78868 0.0
H711 H 0.60415 0.73765 0.6565 0.0
H712 H 0.64387 0.78032 0.59707 0.0
H713 H 0.68646 0.78343 0.89886 0.0
H714 H 0.64655 0.74224 0.96199 0.0
H715 H 0.71885 0.80031 0.69514 0.0
H716 H 0.66245 0.82119 0.9331 0.0
H717 H 0.62249 0.822 0.00596 0.0
H718 H 0.61345 0.84554 0.67599 0.0
H719 H 0.65383 0.84536 0.60254 0.0
C720 C 0.78906 0.93018 0.84228 0.0
C721 C 0.79348 0.94973 0.76542 0.0
C722 C 0.77141 0.90269 0.8136 0.0
C723 C 0.75753 0.89426 0.70817 0.0
C724 C 0.76258 0.91371 0.62915 0.0
C725 C 0.78095 0.94132 0.65667 0.0
C726 C 0.73476 0.86589 0.6917 0.0
C727 C 0.70868 0.86119 0.70688 0.0
C728 C 0.73859 0.8437 0.68477 0.0
C729 C 0.76525 0.84703 0.65547 0.0
C730 C 0.78038 0.86205 0.56108 0.0
C731 C 0.80431 0.86327 0.52746 0.0
C732 C 0.81316 0.84922 0.58621 0.0
C733 C 0.79838 0.83432 0.68022 0.0
C734 C 0.77468 0.83337 0.71541 0.0
C735 C 0.62203 0.7475 0.70954 0.0
C736 C 0.62173 0.73736 0.81628 0.0
C737 C 0.64473 0.77169 0.67533 0.0
C738 C 0.66783 0.78535 0.74523 0.0
C739 C 0.66872 0.77338 0.84437 0.0
C740 C 0.64586 0.74966 0.87988 0.0
C741 C 0.69031 0.813 0.72088 0.0
C742 C 0.71622 0.8175 0.70038 0.0
C743 C 0.6865 0.83517 0.72383 0.0
C744 C 0.66078 0.83275 0.76214 0.0
C745 C 0.65163 0.82611 0.87594 0.0
C746 C 0.62909 0.82672 0.91757 0.0
C747 C 0.61535 0.83377 0.84563 0.0
C748 C 0.6241 0.84007 0.73162 0.0
C749 C 0.64688 0.83981 0.69011 0.0
H750 H 0.59793 0.8343 0.87805 0.0
H751 H 0.83158 0.85002 0.55942 0.0
H752 H 0.12486 0.85877 0.31416 0.0
H753 H 0.1656 0.8626 0.22913 0.0
H754 H 0.1244 0.82703 0.90442 0.0
H755 H 0.08324 0.82294 0.98927 0.0
H756 H 0.15976 0.81116 0.95251 0.0
H757 H 0.15651 0.88945 0.94987 0.0
H758 H 0.1531 0.92876 0.01197 0.0
H759 H 0.22733 0.96416 0.19845 0.0
H760 H 0.23059 0.92428 0.14313 0.0
H761 H 0.29894 0.86509 0.73049 0.0
H762 H 0.25353 0.85782 0.73061 0.0
H763 H 0.2627 0.88656 0.0895 0.0
H764 H 0.30884 0.89716 0.0851 0.0
H765 H 0.23868 0.90513 0.96428 0.0
H766 H 0.18821 0.79098 0.02574 0.0
H767 H 0.18237 0.74823 0.9403 0.0
H768 H 0.20611 0.78224 0.60845 0.0
H769 H 0.21185 0.8251 0.69294 0.0
C770 C 0.12409 0.85097 0.22564 0.0
C771 C 0.10091 0.84102 0.15753 0.0
C772 C 0.14754 0.85344 0.17693 0.0
C773 C 0.14818 0.84583 0.0597 0.0
C774 C 0.12435 0.83332 0.99474 0.0
C775 C 0.10088 0.83101 0.04328 0.0
C776 C 0.17418 0.85274 0.00362 0.0
C777 C 0.17714 0.8317 0.95506 0.0
C778 C 0.19631 0.87979 0.00303 0.0
C779 C 0.19369 0.90341 0.04261 0.0
C780 C 0.17185 0.90517 0.00649 0.0
C781 C 0.16993 0.92766 0.04062 0.0
C782 C 0.18987 0.94885 0.11015 0.0
C783 C 0.21174 0.94756 0.14573 0.0
C784 C 0.21359 0.92493 0.11313 0.0
C785 C 0.2913 0.87021 0.80866 0.0
C786 C 0.3074 0.8812 0.90841 0.0
C787 C 0.26485 0.86509 0.80998 0.0
C788 C 0.25361 0.86962 0.91269 0.0
C789 C 0.27041 0.88215 0.00966 0.0
C790 C 0.29703 0.8884 0.00677 0.0
C791 C 0.22518 0.86321 0.92245 0.0
C792 C 0.22145 0.88453 0.96239 0.0
C793 C 0.20223 0.83637 0.91456 0.0
C794 C 0.20289 0.81227 0.86767 0.0
C795 C 0.19367 0.78991 0.936 0.0
C796 C 0.18972 0.76538 0.88726 0.0
C797 C 0.19416 0.76264 0.76918 0.0
C798 C 0.20308 0.78456 0.70022 0.0
C799 C 0.20705 0.80911 0.7489 0.0
H800 H 0.19005 0.74334 0.7306 0.0
H801 H 0.18844 0.96633 0.13589 0.0
H802 H 0.25937 0.32751 0.75792 0.0
H803 H 0.25999 0.37012 0.75643 0.0
H804 H 0.1992 0.34218 0.02466 0.0
H805 H 0.20007 0.30153 0.03066 0.0
H806 H 0.22772 0.38004 0.68871 0.0
H807 H 0.18651 0.37449 0.16188 0.0
H808 H 0.2012 0.38014 0.36378 0.0
H809 H 0.2838 0.42543 0.2563 0.0
H810 H 0.2698 0.41794 0.05228 0.0
H811 H 0.14484 0.44198 0.74201 0.0
H812 H 0.15667 0.40716 0.75385 0.0
H813 H 0.23188 0.46684 0.91808 0.0
H814 H 0.21981 0.50065 0.91324 0.0
H815 H 0.20174 0.41845 0.02926 0.0
H816 H 0.2577 0.44555 0.64851 0.0
H817 H 0.26084 0.46734 0.4682 0.0
H818 H 0.1758 0.41341 0.41401 0.0
H819 H 0.17244 0.39051 0.59105 0.0
C820 C 0.24721 0.33132 0.82045 0.0
C821 C 0.23006 0.31143 0.89686 0.0
C822 C 0.24733 0.35553 0.81878 0.0
C823 C 0.22987 0.35987 0.89193 0.0
C824 C 0.21388 0.34039 0.97142 0.0
C825 C 0.21432 0.31681 0.975 0.0
C826 C 0.22487 0.38215 0.87636 0.0
C827 C 0.22234 0.38849 0.76385 0.0
C828 C 0.21872 0.39452 0.97257 0.0
C829 C 0.22709 0.39507 0.09195 0.0
C830 C 0.20783 0.3849 0.18114 0.0
C831 C 0.21606 0.38836 0.29576 0.0
C832 C 0.24347 0.40284 0.32288 0.0
C833 C 0.26268 0.41348 0.23486 0.0
C834 C 0.25462 0.40921 0.11945 0.0
C835 C 0.16364 0.44734 0.78183 0.0
C836 C 0.18112 0.47375 0.82854 0.0
C837 C 0.17057 0.42771 0.78686 0.0
C838 C 0.1954 0.43477 0.83463 0.0
C839 C 0.21271 0.4611 0.88064 0.0
C840 C 0.20556 0.48029 0.87877 0.0
C841 C 0.20343 0.41486 0.84381 0.0
C842 C 0.20679 0.40939 0.95501 0.0
C843 C 0.21257 0.4056 0.74734 0.0
C844 C 0.21484 0.41631 0.63254 0.0
C845 C 0.23979 0.43801 0.59676 0.0
C846 C 0.2416 0.45062 0.49548 0.0
C847 C 0.21852 0.44186 0.43003 0.0
C848 C 0.19364 0.42025 0.46501 0.0
C849 C 0.19183 0.40724 0.56507 0.0
H850 H 0.21994 0.45177 0.35217 0.0
H851 H 0.2498 0.40571 0.41194 0.0
H852 H 0.89935 0.40243 0.62304 0.0
H853 H 0.93507 0.44496 0.553 0.0
H854 H -0.00593 0.42629 0.65159 0.0
H855 H 0.95795 0.38566 0.7397 0.0
H856 H 0.0142 0.47126 0.7131 0.0
H857 H 0.98489 0.43891 0.3483 0.0
H858 H 0.95237 0.41054 0.19424 0.0
H859 H 0.91706 0.45954 0.23039 0.0
H860 H 0.95011 0.4889 0.38215 0.0
H861 H 0.10727 0.59778 0.53013 0.0
H862 H 0.07262 0.55147 0.47239 0.0
H863 H 0.01327 0.5621 0.66226 0.0
H864 H 0.04862 0.60912 0.7224 0.0
H865 H 0.00144 0.52028 0.41318 0.0
H866 H 0.04415 0.55116 0.81297 0.0
H867 H 0.08826 0.57754 0.90778 0.0
H868 H 0.11112 0.52344 0.74855 0.0
H869 H 0.06802 0.49833 0.64271 0.0
C870 C 0.91991 0.40719 0.62681 0.0
C871 C 0.92603 0.3911 0.68676 0.0
C872 C 0.94049 0.43143 0.58503 0.0
C873 C 0.96765 0.43912 0.59471 0.0
C874 C 0.97347 0.42129 0.64402 0.0
C875 C 0.95285 0.39783 0.69276 0.0
C876 C 0.98945 0.46725 0.56988 0.0
C877 C 0.01099 0.48162 0.64767 0.0
C878 C 0.98739 0.48104 0.47846 0.0
C879 C 0.9696 0.46577 0.37809 0.0
C880 C 0.97029 0.44375 0.32293 0.0
C881 C 0.95182 0.42752 0.23609 0.0
C882 C 0.93247 0.43303 0.20408 0.0
C883 C 0.93196 0.4552 0.25646 0.0
C884 C 0.95081 0.47188 0.3417 0.0
C885 C 0.0868 0.59027 0.55908 0.0
C886 C 0.08064 0.60619 0.63537 0.0
C887 C 0.06697 0.56412 0.52349 0.0
C888 C 0.04065 0.55341 0.56475 0.0
C889 C 0.03368 0.5702 0.63069 0.0
C890 C 0.05378 0.59669 0.66667 0.0
C891 C 0.02323 0.52382 0.56567 0.0
C892 C 0.00349 0.50944 0.48046 0.0
C893 C 0.02834 0.5096 0.64479 0.0
C894 C 0.05294 0.52315 0.71808 0.0
C895 C 0.05863 0.54506 0.79666 0.0
C896 C 0.08354 0.55984 0.85246 0.0
C897 C 0.10242 0.55203 0.8354 0.0
C898 C 0.09647 0.52948 0.76179 0.0
C899 C 0.07191 0.51517 0.70277 0.0
H900 H 0.12173 0.5635 0.8785 0.0
H901 H 0.91835 0.42047 0.13653 0.0
H902 H 0.45492 0.54515 0.31982 0.0
H903 H 0.49844 0.56191 0.41058 0.0
H904 H 0.46588 0.48591 0.57024 0.0
H905 H 0.42267 0.46869 0.47679 0.0
H906 H 0.51749 0.56987 0.62521 0.0
H907 H 0.5137 0.46754 0.56125 0.0
H908 H 0.48615 0.42431 0.44791 0.0
H909 H 0.47337 0.46586 0.18987 0.0
H910 H 0.50292 0.50942 0.29503 0.0
H911 H 0.5961 0.51883 0.89685 0.0
H912 H 0.559 0.51948 0.81187 0.0
H913 H 0.61523 0.58509 0.60459 0.0
H914 H 0.65303 0.58497 0.69262 0.0
H915 H 0.55716 0.51271 0.54779 0.0
H916 H 0.56433 0.61599 0.60971 0.0
H917 H 0.58642 0.65775 0.73723 0.0
H918 H 0.58986 0.61341 0.00975 0.0
H919 H 0.56675 0.57129 0.88649 0.0
C920 C 0.45742 0.53161 0.37007 0.0
C921 C 0.43587 0.50511 0.38645 0.0
C922 C 0.48209 0.54144 0.42386 0.0
C923 C 0.48559 0.52484 0.49368 0.0
C924 C 0.46375 0.49878 0.514 0.0
C925 C 0.43926 0.48882 0.4592 0.0
C926 C 0.5126 0.53362 0.53663 0.0
C927 C 0.52646 0.55768 0.60696 0.0
C928 C 0.52409 0.51751 0.51194 0.0
C929 C 0.51027 0.49188 0.43741 0.0
C930 C 0.50573 0.46759 0.47848 0.0
C931 C 0.48979 0.44294 0.41525 0.0
C932 C 0.47792 0.44223 0.31168 0.0
C933 C 0.48267 0.46628 0.26938 0.0
C934 C 0.49943 0.49104 0.3298 0.0
C935 C 0.60069 0.53426 0.8375 0.0
C936 C 0.62729 0.55218 0.80274 0.0
C937 C 0.57952 0.5343 0.78779 0.0
C938 C 0.5846 0.55234 0.7029 0.0
C939 C 0.61119 0.57126 0.67126 0.0
C940 C 0.63259 0.57114 0.72108 0.0
C941 C 0.56156 0.54843 0.63903 0.0
C942 C 0.54849 0.52524 0.56378 0.0
C943 C 0.5509 0.56528 0.65978 0.0
C944 C 0.56445 0.59046 0.73692 0.0
C945 C 0.56978 0.61511 0.69685 0.0
C946 C 0.58239 0.63887 0.76871 0.0
C947 C 0.58983 0.6383 0.88104 0.0
C948 C 0.58452 0.61394 0.92202 0.0
C949 C 0.57166 0.59008 0.85096 0.0
H950 H 0.5995 0.6567 0.93663 0.0
H951 H 0.46516 0.42309 0.26395 0.0
H952 H 0.5327 0.11773 0.63392 0.0
H953 H 0.54382 0.08596 0.54035 0.0
H954 H 0.46918 0.04627 0.35091 0.0
H955 H 0.45859 0.07962 0.43908 0.0
H956 H 0.50021 0.02269 0.54502 0.0
H957 H 0.4977 0.06244 0.17808 0.0
H958 H 0.5135 0.10014 0.05052 0.0
H959 H 0.59523 0.12076 0.08943 0.0
H960 H 0.57998 0.08358 0.21975 0.0
H961 H 0.50145 0.9175 0.21374 0.0
H962 H 0.4952 0.95241 0.31257 0.0
H963 H 0.57648 0.01375 0.22112 0.0
H964 H 0.58253 0.979 0.11943 0.0
H965 H 0.54616 0.0302 0.16958 0.0
H966 H 0.56116 0.00645 0.51608 0.0
H967 H 0.56084 0.97858 0.66763 0.0
H968 H 0.47475 0.93992 0.69805 0.0
H969 H 0.47457 0.96701 0.54453 0.0
C970 C 0.51853 0.10225 0.57244 0.0
C971 C 0.49457 0.10091 0.54451 0.0
C972 C 0.52511 0.08431 0.51834 0.0
C973 C 0.50766 0.06432 0.43698 0.0
C974 C 0.48324 0.06219 0.41121 0.0
C975 C 0.47701 0.08085 0.46275 0.0
C976 C 0.51411 0.04416 0.38946 0.0
C977 C 0.50941 0.02368 0.4612 0.0
C978 C 0.52857 0.04728 0.28479 0.0
C979 C 0.53768 0.07059 0.21158 0.0
C980 C 0.51908 0.07544 0.16237 0.0
C981 C 0.52795 0.09662 0.08867 0.0
C982 C 0.55537 0.11298 0.06258 0.0
C983 C 0.57401 0.10819 0.1102 0.0
C984 C 0.56525 0.0871 0.1842 0.0
C985 C 0.51818 0.93833 0.21709 0.0
C986 C 0.54239 0.94555 0.1583 0.0
C987 C 0.51464 0.95831 0.27388 0.0
C988 C 0.53538 0.98577 0.2743 0.0
C989 C 0.56012 0.99276 0.22131 0.0
C990 C 0.56357 0.97285 0.16356 0.0
C991 C 0.53019 0.00713 0.32059 0.0
C992 C 0.53588 0.02832 0.25099 0.0
C993 C 0.51822 0.00584 0.43 0.0
C994 C 0.51779 0.98842 0.51799 0.0
C995 C 0.54212 0.99162 0.55378 0.0
C996 C 0.54206 0.97598 0.63991 0.0
C997 C 0.51779 0.95714 0.69092 0.0
C998 C 0.49353 0.95407 0.65677 0.0
C999 C 0.49348 0.96955 0.57012 0.0
H1000 H 0.51792 0.94516 0.7578 0.0
H1001 H 0.56216 0.12924 0.00494 0.0
H1002 H 0.44481 0.98479 0.0783 0.0
H1003 H 0.4888 0.02413 0.0279 0.0
H1004 H 0.51777 0.97081 0.92755 0.0
H1005 H 0.47422 0.93192 0.97474 0.0
H1006 H 0.55621 0.01349 0.00488 0.0
H1007 H 0.48199 0.99417 0.75664 0.0
H1008 H 0.44056 0.99243 0.70525 0.0
H1009 H 0.4791 0.07813 0.78322 0.0
H1010 H 0.52106 0.08049 0.83244 0.0
H1011 H 0.66423 0.0849 0.68144 0.0
H1012 H 0.61642 0.05059 0.69984 0.0
H1013 H 0.59845 0.11358 0.76417 0.0
H1014 H 0.64584 0.14773 0.73544 0.0
H1015 H 0.55376 0.06933 0.70769 0.0
H1016 H 0.61945 0.09367 0.98866 0.0
H1017 H 0.66116 0.10321 0.08064 0.0
H1018 H 0.63867 0.02037 0.00912 0.0
H1019 H 0.59679 0.01037 0.91601 0.0
C1020 C 0.4608 0.98169 0.0467 0.0
C1021 C 0.45599 0.95541 0.02595 0.0
C1022 C 0.48583 0.00409 0.01736 0.0
C1023 C 0.50606 0.00027 0.96672 0.0
C1024 C 0.50208 0.97422 0.96018 0.0
C1025 C 0.47719 0.95197 0.9877 0.0
C1026 C 0.53073 0.02245 0.91302 0.0
C1027 C 0.55552 0.0258 0.9408 0.0
C1028 C 0.53009 0.03901 0.83024 0.0
C1029 C 0.50478 0.03746 0.79874 0.0
C1030 C 0.48174 0.01267 0.7625 0.0
C1031 C 0.45814 0.01159 0.73334 0.0
C1032 C 0.45722 0.03518 0.74054 0.0
C1033 C 0.47989 0.05988 0.77703 0.0
C1034 C 0.50364 0.06111 0.80499 0.0
C1035 C 0.64981 0.09134 0.69055 0.0
C1036 C 0.65875 0.11891 0.70973 0.0
C1037 C 0.62251 0.07175 0.70356 0.0
C1038 C 0.60414 0.07959 0.74032 0.0
C1039 C 0.61229 0.10699 0.73847 0.0
C1040 C 0.63949 0.12657 0.7209 0.0
C1041 C 0.57895 0.06037 0.80183 0.0
C1042 C 0.55425 0.05743 0.77427 0.0
C1043 C 0.57964 0.04544 0.89159 0.0
C1044 C 0.60523 0.0514 0.94347 0.0
C1045 C 0.62356 0.07757 0.9912 0.0
C1046 C 0.64719 0.08303 0.04394 0.0
C1047 C 0.65269 0.06246 0.04994 0.0
C1048 C 0.63447 0.03633 0.00376 0.0
C1049 C 0.61076 0.03074 0.95106 0.0
H1050 H 0.67101 0.06674 0.09085 0.0
H1051 H 0.43893 0.03432 0.71805 0.0
H1052 H 0.95449 0.52842 0.76647 0.0
H1053 H -0.00443 0.53238 0.83826 0.0
H1054 H -0.0028 0.58514 0.12509 0.0
H1055 H 0.95803 0.58314 0.04709 0.0
H1056 H 0.04346 0.60287 0.06312 0.0
H1057 H 0.96879 0.51194 0.09501 0.0
H1058 H 0.93307 0.46769 0.01242 0.0
H1059 H 0.99236 0.44966 0.88552 0.0
H1060 H 0.02866 0.49554 0.94855 0.0
H1061 H 0.1176 0.52684 0.24114 0.0
H1062 H 0.07858 0.53215 0.26577 0.0
H1063 H 0.1208 0.60353 0.06722 0.0
H1064 H 0.15998 0.60045 0.06092 0.0
H1065 H 0.04853 0.52213 0.11983 0.0
H1066 H 0.09967 0.62906 0.98649 0.0
H1067 H 0.12977 0.67753 0.04437 0.0
H1068 H 0.10721 0.66052 0.39913 0.0
H1069 H 0.07913 0.61169 0.34492 0.0
C1070 C 0.96447 0.54171 0.84207 0.0
C1071 C 0.95374 0.55608 0.89996 0.0
C1072 C 0.98759 0.54358 0.88441 0.0
C1073 C -0.00073 0.55856 0.98892 0.0
C1074 C 0.98876 0.57346 0.0443 0.0
C1075 C 0.9665 0.57255 -0.00072 0.0
C1076 C 0.02259 0.55942 0.04188 0.0
C1077 C 0.04432 0.58503 0.07664 0.0
C1078 C 0.0238 0.53613 0.06021 0.0
C1079 C 0.00173 0.50795 0.02432 0.0
C1080 C 0.97442 0.4991 0.04571 0.0
C1081 C 0.954 0.47379 0.00036 0.0
C1082 C 0.96046 0.456 0.94251 0.0
C1083 C 0.9874 0.4637 0.92813 0.0
C1084 C 0.00795 0.48968 0.9662 0.0
C1085 C 0.11878 0.5446 0.21029 0.0
C1086 C 0.14164 0.56341 0.15001 0.0
C1087 C 0.09637 0.54753 0.22255 0.0
C1088 C 0.09591 0.56825 0.1677 0.0
C1089 C 0.11997 0.58809 0.11615 0.0
C1090 C 0.14268 0.58604 0.11013 0.0
C1091 C 0.06964 0.56579 0.14127 0.0
C1092 C 0.0473 0.53983 0.1101 0.0
C1093 C 0.06741 0.58857 0.12663 0.0
C1094 C 0.08819 0.61672 0.16227 0.0
C1095 C 0.10208 0.63563 0.0775 0.0
C1096 C 0.11894 0.6631 0.10976 0.0
C1097 C 0.12105 0.67202 0.22608 0.0
C1098 C 0.10666 0.65342 0.31024 0.0
C1099 C 0.09066 0.62577 0.27906 0.0
H1100 H 0.13339 0.69339 0.25046 0.0
H1101 H 0.94459 0.43614 0.91013 0.0
H1102 H 0.54545 0.43236 0.87764 0.0
H1103 H 0.54847 0.47583 0.87907 0.0
H1104 H 0.46774 0.43932 0.01898 0.0
H1105 H 0.46501 0.39608 0.02199 0.0
H1106 H 0.47767 0.47884 0.89575 0.0
H1107 H 0.52413 0.46171 0.17126 0.0
H1108 H 0.55616 0.45493 0.26953 0.0
H1109 H 0.621 0.53358 0.18132 0.0
H1110 H 0.58916 0.54108 0.08252 0.0
H1111 H 0.54268 0.61197 0.31683 0.0
H1112 H 0.53143 0.56543 0.26901 0.0
H1113 H 0.51482 0.57177 0.91661 0.0
H1114 H 0.52532 0.61736 0.96361 0.0
H1115 H 0.55281 0.54679 0.14844 0.0
H1116 H 0.47637 0.51397 0.7699 0.0
H1117 H 0.4375 0.51727 0.71861 0.0
H1118 H 0.4256 0.53299 0.0769 0.0
H1119 H 0.464 0.52915 0.1301 0.0
C1120 C 0.52798 0.43339 0.90491 0.0
C1121 C 0.50525 0.41117 0.95294 0.0
C1122 C 0.52984 0.45832 0.90628 0.0
C1123 C 0.50886 0.46105 0.95432 0.0
C1124 C 0.48457 0.43786 0.98542 0.0
C1125 C 0.48291 0.41309 0.98639 0.0
C1126 C 0.5132 0.48806 0.98724 0.0
C1127 C 0.49427 0.49386 0.95014 0.0
C1128 C 0.53441 0.50712 0.06236 0.0
C1129 C 0.55396 0.50175 0.11624 0.0
C1130 C 0.54513 0.47754 0.17077 0.0
C1131 C 0.56338 0.47359 0.22752 0.0
C1132 C 0.59072 0.49375 0.23118 0.0
C1133 C 0.59982 0.51791 0.17816 0.0
C1134 C 0.58159 0.52202 0.12195 0.0
C1135 C 0.53639 0.60325 0.22961 0.0
C1136 C 0.5352 0.61845 0.14395 0.0
C1137 C 0.52984 0.57664 0.20233 0.0
C1138 C 0.52173 0.56478 0.08957 0.0
C1139 C 0.52009 0.5799 0.00511 0.0
C1140 C 0.52662 0.60632 0.03196 0.0
C1141 C 0.51732 0.53759 0.05713 0.0
C1142 C 0.5364 0.53188 0.0932 0.0
C1143 C 0.49561 0.51805 0.98618 0.0
C1144 C 0.4731 0.52135 0.95409 0.0
C1145 C 0.46538 0.51803 0.83768 0.0
C1146 C 0.44342 0.51994 0.80828 0.0
C1147 C 0.42896 0.52507 0.89473 0.0
C1148 C 0.43671 0.5288 0.01033 0.0
C1149 C 0.45858 0.52681 0.04009 0.0
H1150 H 0.41164 0.52602 0.87241 0.0
H1151 H 0.60487 0.49081 0.2756 0.0
H1152 H 0.10826 0.16942 0.40059 0.0
H1153 H 0.14571 0.1687 0.30238 0.0
H1154 H 0.09433 0.12215 0.01201 0.0
H1155 H 0.05651 0.12168 0.11266 0.0
H1156 H 0.17622 0.17656 0.08691 0.0
H1157 H 0.09504 0.08709 0.31575 0.0
H1158 H 0.05006 0.04518 0.29163 0.0
H1159 H 0.06583 0.03866 0.92898 0.0
H1160 H 0.11038 0.08074 0.95069 0.0
H1161 H 0.22433 0.10721 0.47605 0.0
H1162 H 0.20513 0.13345 0.37207 0.0
H1163 H 0.2029 0.06341 0.00238 0.0
H1164 H 0.22178 0.04754 0.1657 0.0
H1165 H 0.14544 0.08882 0.2382 0.0
H1166 H 0.22223 0.16381 0.93064 0.0
H1167 H 0.27066 0.19819 0.92938 0.0
H1168 H 0.26766 0.21582 0.29432 0.0
H1169 H 0.2194 0.18037 0.29783 0.0
C1170 C 0.10487 0.15881 0.31625 0.0
C1171 C 0.07914 0.14471 0.26601 0.0
C1172 C 0.12653 0.15933 0.2582 0.0
C1173 C 0.1229 0.14574 0.14895 0.0
C1174 C 0.09764 0.13306 0.09552 0.0
C1175 C 0.07585 0.13205 0.15473 0.0
C1176 C 0.14171 0.13676 0.11634 0.0
C1177 C 0.16949 0.15575 0.1025 0.0
C1178 C 0.13355 0.11067 0.14715 0.0
C1179 C 0.10562 0.08726 0.13443 0.0
C1180 C 0.08858 0.07694 0.23072 0.0
C1181 C 0.06319 0.05317 0.21734 0.0
C1182 C 0.05491 0.03945 0.10849 0.0
C1183 C 0.07196 0.04952 0.01271 0.0
C1184 C 0.09718 0.07339 0.02536 0.0
C1185 C 0.22031 0.10228 0.38451 0.0
C1186 C 0.22525 0.07762 0.32505 0.0
C1187 C 0.20798 0.11889 0.32012 0.0
C1188 C 0.19821 0.11186 0.17821 0.0
C1189 C 0.20736 0.0745 0.08711 0.0
C1190 C 0.21973 0.06447 0.1877 0.0
C1191 C 0.17979 0.12225 0.15472 0.0
C1192 C 0.15261 0.10609 0.18667 0.0
C1193 C 0.18864 0.14826 0.11702 0.0
C1194 C 0.21749 0.16925 0.11446 0.0
C1195 C 0.23201 0.17488 0.01035 0.0
C1196 C 0.25947 0.19461 0.00932 0.0
C1197 C 0.27236 0.20951 0.11127 0.0
C1198 C 0.25782 0.20434 0.21509 0.0
C1199 C 0.23047 0.18421 0.21689 0.0
H1200 H 0.29359 0.22499 0.10967 0.0
H1201 H 0.0354 0.02091 0.09855 0.0
H1202 H 0.95598 0.13754 0.54518 0.0
H1203 H 0.95122 0.09042 0.62637 0.0
H1204 H 0.98681 0.0733 0.25772 0.0
H1205 H 0.99164 0.11932 0.16813 0.0
H1206 H 0.93515 0.0322 0.32136 0.0
H1207 H 0.01686 0.06503 0.57052 0.0
H1208 H 0.06709 0.11434 0.83293 0.0
H1209 H 0.97593 0.08853 -0.00023 0.0
H1210 H 0.94682 0.05823 0.82017 0.0
H1211 H 0.87786 0.90442 0.59599 0.0
H1212 H 0.90492 0.94572 0.49132 0.0
H1213 H 0.87906 0.98778 0.73105 0.0
H1214 H 0.8537 0.94685 0.84096 0.0
H1215 H 0.93784 0.00942 0.72103 0.0
H1216 H 0.88241 0.02232 0.42074 0.0
H1217 H 0.84097 0.00159 0.30432 0.0
H1218 H 0.84949 0.93389 0.20533 0.0
H1219 H 0.88992 0.95342 0.32458 0.0
C1220 C 0.95989 0.12464 0.48695 0.0
C1221 C 0.96942 0.13313 0.34067 0.0
C1222 C 0.95892 0.09623 0.53998 0.0
C1223 C 0.96767 0.0758 0.45217 0.0
C1224 C 0.98074 0.08537 0.31061 0.0
C1225 C 0.98148 0.11371 0.25036 0.0
C1226 C 0.95628 0.04738 0.48407 0.0
C1227 C 0.93636 0.02749 0.4084 0.0
C1228 C 0.95753 0.04036 0.59773 0.0
C1229 C 0.97856 0.05896 0.68345 0.0
C1230 C 0.01195 0.07124 0.65479 0.0
C1231 C 0.04259 0.10273 0.83103 0.0
C1232 C 0.02116 0.10404 0.94496 0.0
C1233 C 0.98719 0.0867 0.92735 0.0
C1234 C 0.96827 0.06668 0.81161 0.0
C1235 C 0.87735 0.92226 0.62362 0.0
C1236 C 0.8653 0.92317 0.7294 0.0
C1237 C 0.89268 0.94584 0.56377 0.0
C1238 C 0.8946 0.97006 0.60561 0.0
C1239 C 0.87879 0.96962 0.70089 0.0
C1240 C 0.86428 0.9463 0.76298 0.0
C1241 C 0.91579 0.99624 0.5608 0.0
C1242 C 0.93733 0.01473 0.6337 0.0
C1243 C 0.91493 0.00312 0.44796 0.0
C1244 C 0.88937 0.98944 0.38186 0.0
C1245 C 0.87519 0.0028 0.37517 0.0
C1246 C 0.85167 0.99111 0.30942 0.0
C1247 C 0.8422 0.96608 0.24915 0.0
C1248 C 0.85614 0.95269 0.25565 0.0
C1249 C 0.87945 0.9641 0.32258 0.0
H1250 H 0.82427 0.95722 0.19643 0.0
H1251 H 0.03549 0.1058 0.89559 0.0
H1252 H 0.96156 0.90389 0.97392 0.0
H1253 H 0.00668 0.91864 0.89578 0.0
H1254 H 0.97112 0.864 0.59576 0.0
H1255 H 0.92619 0.8482 0.67734 0.0
H1256 H 0.01484 0.8641 0.71805 0.0
H1257 H 0.0301 0.9594 0.81802 0.0
H1258 H 0.02927 0.00019 0.79256 0.0
H1259 H 0.03154 0.98799 0.42364 0.0
H1260 H 0.03449 0.94783 0.44902 0.0
H1261 H 0.14546 0.92682 0.41119 0.0
H1262 H 0.09882 0.9003 0.4792 0.0
H1263 H 0.11483 0.96286 0.74417 0.0
H1264 H 0.16201 0.98788 0.68533 0.0
H1265 H 0.07782 0.9565 0.59037 0.0
H1266 H 0.09215 0.90066 0.82846 0.0
H1267 H 0.10638 0.86922 0.87356 0.0
H1268 H 0.05406 0.81167 0.60893 0.0
H1269 H 0.03931 0.84282 0.56304 0.0
C1270 C 0.96348 0.89551 0.89069 0.0
C1271 C 0.94032 0.87582 0.83031 0.0
C1272 C 0.9892 0.90425 0.84471 0.0
C1273 C 0.99229 0.89397 0.73549 0.0
C1274 C 0.96924 0.8731 0.6778 0.0
C1275 C 0.94353 0.86397 0.72513 0.0
C1276 C 0.01964 0.90259 0.68915 0.0
C1277 C 0.02863 0.8844 0.69128 0.0
C1278 C 0.03754 0.92873 0.64909 0.0
C1279 C 0.03015 0.94914 0.63479 0.0
C1280 C 0.02879 0.96434 0.7314 0.0
C1281 C 0.02868 0.98791 0.71708 0.0
C1282 C 0.02917 0.99624 0.60639 0.0
C1283 C 0.03044 0.98123 0.5095 0.0
C1284 C 0.03133 0.95803 0.52378 0.0
C1285 C 0.13901 0.93461 0.48513 0.0
C1286 C 0.15704 0.95979 0.54093 0.0
C1287 C 0.11224 0.91957 0.52316 0.0
C1288 C 0.10288 0.93029 0.61256 0.0
C1289 C 0.12145 0.95447 0.67331 0.0
C1290 C 0.14835 0.96882 0.63911 0.0
C1291 C 0.07369 0.91909 0.6329 0.0
C1292 C 0.06408 0.93636 0.62011 0.0
C1293 C 0.05565 0.8926 0.66739 0.0
C1294 C 0.06499 0.87419 0.69116 0.0
C1295 C 0.0839 0.8814 0.77914 0.0
C1296 C 0.09189 0.86356 0.80541 0.0
C1297 C 0.08123 0.83849 0.74375 0.0
C1298 C 0.06236 0.83114 0.65633 0.0
C1299 C 0.05409 0.84883 0.63043 0.0
H1300 H 0.08759 0.82476 0.76368 0.0
H1301 H 0.02925 0.01464 0.59579 0.0
H1302 H 0.028 0.91214 0.30141 0.0
H1303 H 0.01846 0.94668 0.2562 0.0
H1304 H 0.93549 0.88466 0.18929 0.0
H1305 H 0.94495 0.84972 0.23298 0.0
H1306 H 0.99106 0.94821 0.03557 0.0
H1307 H 0.90137 0.90372 0.28741 0.0
H1308 H 0.88031 0.8697 0.43476 0.0
H1309 H 0.95443 0.91093 0.62642 0.0
H1310 H 0.97588 0.94429 0.47815 0.0
H1311 H 0.87228 0.96091 0.01873 0.0
H1312 H 0.89918 0.94508 0.10013 0.0
H1313 H 0.9701 0.02498 0.08373 0.0
H1314 H 0.9427 0.04067 0.00196 0.0
H1315 H 0.93341 0.96598 0.3076 0.0
H1316 H -0.00221 0.01007 0.92441 0.0
H1317 H 0.98902 0.0114 0.7158 0.0
H1318 H 0.92235 0.92975 0.71783 0.0
H1319 H 0.93005 0.92863 0.92255 0.0
C1320 C 0.00746 0.90582 0.28084 0.0
C1321 C 0.98688 0.8782 0.27501 0.0
C1322 C 0.00225 0.92561 0.25314 0.0
C1323 C 0.97629 0.91826 0.22179 0.0
C1324 C 0.95561 0.89075 0.21584 0.0
C1325 C 0.96089 0.87086 0.24199 0.0
C1326 C 0.97045 0.93943 0.20021 0.0
C1327 C 0.9789 0.95251 0.09601 0.0
C1328 C 0.95361 0.94412 0.27623 0.0
C1329 C 0.94008 0.92668 0.37348 0.0
C1330 C 0.91297 0.90561 0.36212 0.0
C1331 C 0.9011 0.88611 0.4444 0.0
C1332 C 0.91599 0.88796 0.53982 0.0
C1333 C 0.94289 0.90911 0.55204 0.0
C1334 C 0.95495 0.92836 0.46898 0.0
C1335 C 0.89373 0.97488 0.02931 0.0
C1336 C 0.90592 0.00165 -0.00235 0.0
C1337 C 0.90892 0.96599 0.07788 0.0
C1338 C 0.93646 0.98391 0.09812 0.0
C1339 C 0.9488 0.01085 0.06814 0.0
C1340 C 0.93347 0.01964 0.01842 0.0
C1341 C 0.9523 0.97313 0.13962 0.0
C1342 C 0.94625 0.96239 0.2488 0.0
C1343 C 0.96799 0.96737 0.06097 0.0
C1344 C 0.96538 0.96867 0.93584 0.0
C1345 C 0.98163 0.99244 0.87846 0.0
C1346 C 0.97668 0.99332 0.76182 0.0
C1347 C 0.95568 0.97063 0.70298 0.0
C1348 C 0.93906 0.94722 0.76132 0.0
C1349 C 0.94379 0.94634 0.87706 0.0
H1350 H 0.95208 0.97137 0.61284 0.0
H1351 H 0.90651 0.87317 0.60461 0.0
H1352 H 0.12149 0.11607 0.70169 0.0
H1353 H 0.11425 0.07256 0.62022 0.0
H1354 H 0.19823 0.10181 0.67143 0.0
H1355 H 0.20561 0.14529 0.74888 0.0
H1356 H 0.16702 0.09346 0.42678 0.0
H1357 H 0.17402 0.03729 0.74993 0.0
H1358 H 0.15612 0.0206 0.94358 0.0
H1359 H 0.07721 -0.00064 0.84109 0.0
H1360 H 0.0942 0.01431 0.64426 0.0
H1361 H 0.13988 0.95251 0.17807 0.0
H1362 H 0.17178 -0.00121 0.2533 0.0
H1363 H 0.10811 0.01577 0.26492 0.0
H1364 H 0.07652 0.9699 0.18681 0.0
H1365 H 0.13485 -0.00123 0.48484 0.0
H1366 H 0.14276 0.05091 0.13588 0.0
H1367 H 0.16024 0.07712 0.94106 0.0
H1368 H 0.25423 0.13705 0.02024 0.0
H1369 H 0.25389 0.12147 0.23528 0.0
C1370 C 0.13796 0.11249 0.70221 0.0
C1371 C 0.16399 0.1337 0.73456 0.0
C1372 C 0.13378 0.08764 0.65603 0.0
C1373 C 0.15564 0.08389 0.64153 0.0
C1374 C 0.18099 0.10408 0.68493 0.0
C1375 C 0.18517 0.12889 0.73058 0.0
C1376 C 0.15466 0.06429 0.55029 0.0
C1377 C 0.16393 0.07393 0.44086 0.0
C1378 C 0.14603 0.03742 0.56914 0.0
C1379 C 0.13526 0.02646 0.68279 0.0
C1380 C 0.15272 0.02852 0.76822 0.0
C1381 C 0.14271 0.01926 0.87798 0.0
C1382 C 0.11547 0.00877 0.90379 0.0
C1383 C 0.09811 0.00705 0.81959 0.0
C1384 C 0.10784 0.01562 0.70878 0.0
C1385 C 0.13331 0.96686 0.18827 0.0
C1386 C 0.10589 0.95785 0.17575 0.0
C1387 C 0.15154 0.99325 0.23224 0.0
C1388 C 0.14239 0.01073 0.26543 0.0
C1389 C 0.11581 0.00282 0.23774 0.0
C1390 C 0.09765 0.97652 0.19309 0.0
C1391 C 0.15501 0.03067 0.36455 0.0
C1392 C 0.1451 0.0204 0.47475 0.0
C1393 C 0.16906 0.05904 0.35314 0.0
C1394 C 0.185 0.07284 0.24396 0.0
C1395 C 0.16405 0.06569 0.12918 0.0
C1396 C 0.17529 0.08261 0.00643 0.0
C1397 C 0.20711 0.10749 0.9741 0.0
C1398 C 0.23533 0.12117 0.05422 0.0
C1399 C 0.23479 0.11099 0.18802 0.0
H1400 H 0.20962 0.1156 0.89089 0.0
H1401 H 0.10782 0.00217 0.98919 0.0
H1402 H 0.09749 0.1811 0.9035 0.0
H1403 H 0.052 0.15731 0.82447 0.0
H1404 H 0.08199 0.20761 0.53298 0.0
H1405 H 0.12635 0.23179 0.61226 0.0
H1406 H 0.02303 0.18462 0.57499 0.0
H1407 H 0.07372 0.11623 0.56742 0.0
H1408 H 0.07103 0.07449 0.6624 0.0
H1409 H 0.99229 0.04788 0.89533 0.0
H1410 H -0.0023 0.11266 0.75618 0.0
H1411 H 0.90838 0.05424 0.09127 0.0
H1412 H 0.94592 0.06671 0.1802 0.0
H1413 H 0.91394 0.08828 0.49224 0.0
H1414 H 0.87625 0.07643 0.38199 0.0
H1415 H 0.00185 0.1182 0.45655 0.0
H1416 H 0.02352 0.21554 0.34695 0.0
H1417 H 0.01662 0.22458 0.15846 0.0
H1418 H 0.0413 0.17286 0.98642 0.0
H1419 H 0.0353 0.17302 0.25112 0.0
C1420 C 0.094 0.18775 0.82466 0.0
C1421 C 0.11565 0.2078 0.76201 0.0
C1422 C 0.06787 0.17402 0.7793 0.0
C1423 C 0.06299 0.17996 0.67083 0.0
C1424 C 0.08425 0.20232 0.61672 0.0
C1425 C 0.11019 0.21614 0.6618 0.0
C1426 C 0.03891 0.15983 0.6006 0.0
C1427 C 0.02529 0.16841 0.53587 0.0
C1428 C 0.03444 0.13398 0.57351 0.0
C1429 C 0.03765 0.11894 0.65785 0.0
C1430 C 0.05823 0.10658 0.63249 0.0
C1431 C 0.05594 0.07918 0.69046 0.0
C1432 C 0.03252 0.05814 0.78547 0.0
C1433 C 0.00678 0.06238 0.83541 0.0
C1434 C 0.01059 0.10408 0.74875 0.0
C1435 C 0.9099 0.06224 0.17884 0.0
C1436 C 0.88996 0.06595 0.22397 0.0
C1437 C 0.93346 0.071 0.2384 0.0
C1438 C 0.9424 0.08757 0.35162 0.0
C1439 C 0.91632 0.0833 0.40242 0.0
C1440 C 0.89247 0.07507 0.33966 0.0
C1441 C -0.00212 0.12413 0.43287 0.0
C1442 C 0.01454 0.11607 0.49758 0.0
C1443 C 0.01736 0.15799 0.41909 0.0
C1444 C 0.03106 0.17925 0.29539 0.0
C1445 C 0.0258 0.20331 0.27754 0.0
C1446 C 0.02208 0.20958 0.16545 0.0
C1447 C 0.02721 0.19815 0.06297 0.0
C1448 C 0.03614 0.1798 0.06599 0.0
C1449 C 0.03993 0.1713 0.17258 0.0
H1450 H 0.02537 0.20425 0.97977 0.0
H1451 H 0.03412 0.04194 0.81529 0.0
H1452 H 0.7138 0.48793 0.17893 0.0
H1453 H 0.72958 0.45854 0.21881 0.0
H1454 H 0.70902 0.42164 0.87281 0.0
H1455 H 0.691 0.45033 0.83413 0.0
H1456 H 0.71727 0.39275 0.97802 0.0
H1457 H 0.77123 0.49044 0.97271 0.0
H1458 H 0.78238 0.53605 0.04381 0.0
H1459 H 0.80108 0.52263 0.37764 0.0
H1460 H 0.78995 0.47681 0.30786 0.0
H1461 H 0.82285 0.36986 0.95137 0.0
H1462 H 0.78737 0.37856 0.94489 0.0
H1463 H 0.8204 0.43436 0.24595 0.0
H1464 H 0.85839 0.42715 0.2429 0.0
H1465 H 0.80801 0.45671 0.14076 0.0
H1466 H 0.75114 0.36315 0.19337 0.0
H1467 H 0.72367 0.31369 0.18276 0.0
H1468 H 0.70383 0.31305 0.82931 0.0
H1469 H 0.72894 0.36307 0.84193 0.0
C1470 C 0.71232 0.47343 0.11081 0.0
C1471 C 0.70422 0.47343 -0.00174 0.0
C1472 C 0.72133 0.45649 0.13407 0.0
C1473 C 0.72388 0.44072 0.04325 0.0
C1474 C 0.70973 0.43589 0.94035 0.0
C1475 C 0.69979 0.4524 0.91765 0.0
C1476 C 0.74432 0.43302 0.04964 0.0
C1477 C 0.73732 0.4067 0.01232 0.0
C1478 C 0.77038 0.45136 0.09614 0.0
C1479 C 0.77988 0.48009 0.13415 0.0
C1480 C 0.7783 0.49737 0.0601 0.0
C1481 C 0.78426 0.52317 0.10083 0.0
C1482 C 0.79229 0.53218 0.21545 0.0
C1483 C 0.79479 0.51558 0.2889 0.0
C1484 C 0.7887 0.48969 0.24859 0.0
C1485 C 0.8224 0.38386 0.01685 0.0
C1486 C 0.84334 0.39821 0.09662 0.0
C1487 C 0.80153 0.38852 0.01495 0.0
C1488 C 0.80046 0.40717 0.09524 0.0
C1489 C 0.82075 0.42028 0.18086 0.0
C1490 C 0.84234 0.41609 0.18054 0.0
C1491 C 0.78014 0.41503 0.0815 0.0
C1492 C 0.78791 0.44216 0.1092 0.0
C1493 C 0.75412 0.3969 0.0331 0.0
C1494 C 0.74182 0.36699 0.01905 0.0
C1495 C 0.74108 0.35256 0.11291 0.0
C1496 C 0.7255 0.32435 0.10716 0.0
C1497 C 0.71221 0.31004 0.00495 0.0
C1498 C 0.7141 0.32411 0.90865 0.0
C1499 C 0.72848 0.35247 0.91598 0.0
H1500 H 0.70038 0.28811 0.00061 0.0
H1501 H 0.79659 0.55203 0.24727 0.0
H1502 H 0.55663 0.28515 0.70578 0.0
H1503 H 0.58172 0.32955 0.6223 0.0
H1504 H 0.57965 0.29052 0.28836 0.0
H1505 H 0.55093 0.24614 0.36761 0.0
H1506 H 0.63438 0.35154 0.41954 0.0
H1507 H 0.54975 0.30229 0.17235 0.0
H1508 H 0.50772 0.25857 0.19583 0.0
H1509 H 0.49639 0.28721 0.53178 0.0
H1510 H 0.53774 0.33144 0.50717 0.0
H1511 H 0.66817 0.47756 0.25871 0.0
H1512 H 0.65586 0.43372 0.32054 0.0
H1513 H 0.59123 0.39476 0.07303 0.0
H1514 H 0.60223 0.43902 0.01657 0.0
H1515 H 0.57127 0.36846 0.2265 0.0
H1516 H 0.68336 0.42045 0.33784 0.0
H1517 H 0.7235 0.41771 0.2928 0.0
H1518 H 0.67565 0.34009 0.12309 0.0
H1519 H 0.63525 0.34339 0.14795 0.0
C1520 C 0.56132 0.28609 0.61443 0.0
C1521 C 0.55226 0.26226 0.5432 0.0
C1522 C 0.57612 0.31143 0.5677 0.0
C1523 C 0.58306 0.31318 0.45023 0.0
C1524 C 0.57485 0.28945 0.37997 0.0
C1525 C 0.55833 0.26417 0.42489 0.0
C1526 C 0.59318 0.33875 0.39435 0.0
C1527 C 0.6208 0.35646 0.382 0.0
C1528 C 0.57513 0.34255 0.33427 0.0
C1529 C 0.54609 0.32098 0.33356 0.0
C1530 C 0.53703 0.30011 0.24612 0.0
C1531 C 0.51378 0.27487 0.26181 0.0
C1532 C 0.49931 0.27021 0.36547 0.0
C1533 C 0.50744 0.29109 0.45119 0.0
C1534 C 0.53067 0.3164 0.43558 0.0
C1535 C 0.65111 0.45967 0.21796 0.0
C1536 C 0.63557 0.46204 0.13585 0.0
C1537 C 0.64472 0.43421 0.25054 0.0
C1538 C 0.62282 0.41014 0.20178 0.0
C1539 C 0.60791 0.41256 0.11554 0.0
C1540 C 0.61408 0.43808 0.08361 0.0
C1541 C 0.61317 0.38352 0.25443 0.0
C1542 C 0.58526 0.36514 0.26752 0.0
C1543 C 0.63089 0.37709 0.30365 0.0
C1544 C 0.65596 0.38221 0.24553 0.0
C1545 C 0.68114 0.40333 0.28602 0.0
C1546 C 0.70382 0.40138 0.26704 0.0
C1547 C 0.7013 0.3779 0.21611 0.0
C1548 C 0.67714 0.35797 0.16545 0.0
C1549 C 0.65453 0.36029 0.17803 0.0
H1550 H 0.71838 0.37567 0.21551 0.0
H1551 H 0.4819 0.25037 0.3799 0.0
H1552 H 0.82328 0.30844 0.18578 0.0
H1553 H 0.75979 0.27034 0.4033 0.0
H1554 H 0.71131 0.24019 0.05004 0.0
H1555 H 0.75317 0.26437 0.90443 0.0
H1556 H 0.70494 0.27452 0.27369 0.0
H1557 H 0.67126 0.16613 0.32231 0.0
H1558 H 0.68521 0.13291 0.33024 0.0
H1559 H 0.76332 0.19605 0.45261 0.0
H1560 H 0.74979 0.22929 0.44431 0.0
H1561 H 0.58488 0.15796 0.5828 0.0
H1562 H 0.62691 0.17832 0.47485 0.0
H1563 H 0.65203 0.2559 0.65335 0.0
H1564 H 0.60785 0.23565 0.7443 0.0
H1565 H 0.67378 0.19811 0.52441 0.0
H1566 H 0.69642 0.29079 0.59626 0.0
H1567 H 0.69863 0.33402 0.60994 0.0
H1568 H 0.6556 0.31285 0.29014 0.0
H1569 H 0.6562 0.27093 0.26844 0.0
C1570 C 0.80176 0.29441 0.16999 0.0
C1571 C 0.79131 0.28725 0.02971 0.0
C1572 C 0.76128 0.26977 0.30931 0.0
C1573 C 0.73193 0.25115 0.23623 0.0
C1574 C 0.73107 0.25076 0.08876 0.0
C1575 C 0.75803 0.26693 0.99518 0.0
C1576 C 0.70778 0.24056 0.30912 0.0
C1577 C 0.6971 0.25712 0.32555 0.0
C1578 C 0.70002 0.21961 0.38503 0.0
C1579 C 0.70997 0.20068 0.37644 0.0
C1580 C 0.69173 0.17308 0.34687 0.0
C1581 C 0.69943 0.15411 0.35293 0.0
C1582 C 0.72525 0.16239 0.39062 0.0
C1583 C 0.74341 0.18966 0.42201 0.0
C1584 C 0.73574 0.20866 0.41584 0.0
C1585 C 0.59972 0.17925 0.60089 0.0
C1586 C 0.5937 0.19521 0.67719 0.0
C1587 C 0.6238 0.1911 0.53819 0.0
C1588 C 0.6431 0.21912 0.55299 0.0
C1589 C 0.63773 0.23468 0.63513 0.0
C1590 C 0.613 0.22288 0.69366 0.0
C1591 C 0.66841 0.23055 0.48246 0.0
C1592 C 0.68032 0.21483 0.46916 0.0
C1593 C 0.67851 0.25339 0.41396 0.0
C1594 C 0.67377 0.27603 0.43638 0.0
C1595 C 0.68661 0.29479 0.53058 0.0
C1596 C 0.68823 0.3197 0.53789 0.0
C1597 C 0.67689 0.3262 0.45165 0.0
C1598 C 0.6643 0.3079 0.35737 0.0
C1599 C 0.66363 0.28346 0.34766 0.0
H1600 H 0.67812 0.34549 0.45693 0.0
H1601 H 0.73104 0.14762 0.39679 0.0
H1602 H 0.65493 0.2004 0.23752 0.0
H1603 H 0.63207 0.22576 0.23668 0.0
H1604 H 0.60823 0.19663 0.88453 0.0
H1605 H 0.63233 0.17288 0.8823 0.0
H1606 H 0.64113 0.25591 0.9136 0.0
H1607 H 0.55346 0.18309 0.19593 0.0
H1608 H 0.54593 0.17624 0.40595 0.0
H1609 H 0.60803 0.25928 0.48321 0.0
H1610 H 0.61312 0.26709 0.27548 0.0
H1611 H 0.51236 0.27007 0.92965 0.0
H1612 H 0.53454 0.24415 0.9302 0.0
H1613 H 0.61141 0.3187 0.97701 0.0
H1614 H 0.58984 0.34441 0.97023 0.0
H1615 H 0.55923 0.24407 0.11432 0.0
H1616 H 0.6594 0.31531 0.95671 0.0
H1617 H 0.67921 0.35438 0.83369 0.0
H1618 H 0.61953 0.30599 0.57473 0.0
H1619 H 0.59705 0.26809 0.70411 0.0
C1620 C 0.6445 0.19931 0.16059 0.0
C1621 C 0.64607 0.1855 0.05907 0.0
C1622 C 0.63162 0.21406 0.15936 0.0
C1623 C 0.61993 0.21476 0.05659 0.0
C1624 C 0.61853 0.19785 0.96131 0.0
C1625 C 0.63174 0.1837 0.96146 0.0
C1626 C 0.6106 0.23387 0.04103 0.0
C1627 C 0.62298 0.25304 0.95657 0.0
C1628 C 0.5883 0.2319 0.10134 0.0
C1629 C 0.58446 0.22545 0.22225 0.0
C1630 C 0.5655 0.19965 0.25835 0.0
C1631 C 0.56143 0.19575 0.37672 0.0
C1632 C 0.57675 0.21745 0.4568 0.0
C1633 C 0.59655 0.24261 0.42054 0.0
C1634 C 0.59964 0.24686 0.30347 0.0
C1635 C 0.53417 0.2809 0.93322 0.0
C1636 C 0.54937 0.30929 0.94937 0.0
C1637 C 0.54683 0.26606 0.935 0.0
C1638 C 0.57488 0.2793 0.95123 0.0
C1639 C 0.5901 0.30775 0.95914 0.0
C1640 C 0.57759 0.32257 0.9559 0.0
C1641 C 0.58743 0.26346 0.97611 0.0
C1642 C 0.5761 0.24544 0.06484 0.0
C1643 C 0.61196 0.26822 0.92514 0.0
C1644 C 0.62652 0.28917 0.84067 0.0
C1645 C 0.65043 0.31325 0.87406 0.0
C1646 C 0.66161 0.33536 0.80461 0.0
C1647 C 0.64979 0.33294 0.69846 0.0
C1648 C 0.62751 0.30821 0.65995 0.0
C1649 C 0.61533 0.28659 0.7321 0.0
H1650 H 0.6581 0.34996 0.64453 0.0
H1651 H 0.57245 0.21586 0.54712 0.0
H1652 H 0.79651 0.24026 0.27679 0.0
H1653 H 0.81957 0.28452 0.42586 0.0
H1654 H 0.78166 0.33451 0.29488 0.0
H1655 H 0.75237 0.29902 0.11959 0.0
H1656 H 0.83556 0.36427 0.34976 0.0
H1657 H 0.75116 0.31092 0.60364 0.0
H1658 H 0.71254 0.26657 0.65872 0.0
H1659 H 0.76402 0.2352 0.66988 0.0
H1660 H 0.8039 0.28005 0.62495 0.0
H1661 H 0.80253 0.43183 0.81373 0.0
H1662 H 0.79159 0.38952 0.70426 0.0
H1663 H 0.87213 0.40732 0.76058 0.0
H1664 H 0.88303 0.4495 0.87097 0.0
H1665 H 0.80305 0.34197 0.75277 0.0
H1666 H 0.88736 0.4192 0.47788 0.0
H1667 H 0.90501 0.46785 0.45929 0.0
H1668 H 0.82447 0.45235 0.46937 0.0
H1669 H 0.80643 0.40384 0.49108 0.0
C1670 C 0.79234 0.25606 0.2662 0.0
C1671 C 0.7705 0.25179 0.15793 0.0
C1672 C 0.80651 0.2841 0.36113 0.0
C1673 C 0.80206 0.31128 0.36744 0.0
C1674 C 0.78292 0.31662 0.27915 0.0
C1675 C 0.76448 0.29407 0.16949 0.0
C1676 C 0.81355 0.33183 0.46547 0.0
C1677 C 0.82956 0.35922 0.4387 0.0
C1678 C 0.80339 0.32558 0.57997 0.0
C1679 C 0.78035 0.29859 0.60797 0.0
C1680 C 0.75438 0.29464 0.61866 0.0
C1681 C 0.73244 0.26964 0.64919 0.0
C1682 C 0.73609 0.24836 0.66782 0.0
C1683 C 0.76177 0.25215 0.65814 0.0
C1684 C 0.78402 0.27729 0.62999 0.0
C1685 C 0.81743 0.426 0.80685 0.0
C1686 C 0.84326 0.44317 0.85349 0.0
C1687 C 0.81126 0.40201 0.74407 0.0
C1688 C 0.83105 0.39531 0.72554 0.0
C1689 C 0.85659 0.41207 0.77537 0.0
C1690 C 0.8627 0.43593 0.83904 0.0
C1691 C 0.82655 0.37369 0.63773 0.0
C1692 C 0.81111 0.34664 0.66574 0.0
C1693 C 0.83501 0.38008 0.52255 0.0
C1694 C 0.84567 0.40801 0.48757 0.0
C1695 C 0.87349 0.42617 0.4758 0.0
C1696 C 0.88354 0.45372 0.46461 0.0
C1697 C 0.86592 0.46316 0.46249 0.0
C1698 C 0.83815 0.44507 0.47103 0.0
C1699 C 0.82801 0.41755 0.48237 0.0
H1700 H 0.8738 0.4845 0.45429 0.0
H1701 H 0.719 0.2289 0.68977 0.0
H1702 H 0.56749 0.37626 0.52538 0.0
H1703 H 0.61249 0.4005 0.61237 0.0
H1704 H 0.63266 0.46996 0.42199 0.0
H1705 H 0.58854 0.44662 0.34183 0.0
H1706 H 0.65699 0.41486 0.52305 0.0
H1707 H 0.68785 0.52462 0.47838 0.0
H1708 H 0.66037 0.54457 0.4488 0.0
H1709 H 0.60119 0.49148 0.68931 0.0
H1710 H 0.62912 0.47244 0.72597 0.0
H1711 H 0.77393 0.46682 0.79452 0.0
H1712 H 0.73026 0.454 0.74229 0.0
H1713 H 0.75993 0.52663 0.56203 0.0
H1714 H 0.80605 0.5427 0.63226 0.0
H1715 H 0.71197 0.51295 0.64119 0.0
H1716 H 0.6802 0.39996 0.65873 0.0
H1717 H 0.70601 0.37733 0.66363 0.0
H1718 H 0.76755 0.43632 0.4501 0.0
H1719 H 0.74257 0.45972 0.4445 0.0
C1720 C 0.58126 0.39707 0.50597 0.0
C1721 C 0.57422 0.40926 0.42494 0.0
C1722 C 0.60729 0.41097 0.55501 0.0
C1723 C 0.62678 0.43755 0.52537 0.0
C1724 C 0.61859 0.45012 0.4517 0.0
C1725 C 0.59285 0.43646 0.40411 0.0
C1726 C 0.65605 0.45124 0.56127 0.0
C1727 C 0.66875 0.43618 0.55054 0.0
C1728 C 0.6722 0.47948 0.59379 0.0
C1729 C 0.66035 0.49675 0.60325 0.0
C1730 C 0.66958 0.51804 0.52879 0.0
C1731 C 0.65376 0.52899 0.50984 0.0
C1732 C 0.62879 0.51887 0.56514 0.0
C1733 C 0.62039 0.49908 0.64547 0.0
C1734 C 0.63646 0.48859 0.66717 0.0
C1735 C 0.77177 0.48085 0.74603 0.0
C1736 C 0.79384 0.50612 0.71957 0.0
C1737 C 0.74608 0.47329 0.71646 0.0
C1738 C 0.74093 0.48864 0.64656 0.0
C1739 C 0.76301 0.514 0.61569 0.0
C1740 C 0.78941 0.52292 0.65364 0.0
C1741 C 0.71257 0.47643 0.60356 0.0
C1742 C 0.70011 0.49165 0.61328 0.0
C1743 C 0.69672 0.4484 0.56719 0.0
C1744 C 0.70911 0.43142 0.54978 0.0
C1745 C 0.69869 0.40757 0.60905 0.0
C1746 C 0.71335 0.39477 0.61307 0.0
C1747 C 0.73804 0.40501 0.55556 0.0
C1748 C 0.74836 0.42831 0.49449 0.0
C1749 C 0.73398 0.44141 0.49101 0.0
H1750 H 0.74929 0.39504 0.55941 0.0
H1751 H 0.61605 0.52653 0.54655 0.0
H1752 H 0.58092 0.80128 0.11376 0.0
H1753 H 0.55234 0.81998 0.1405 0.0
H1754 H 0.49933 0.75552 0.35809 0.0
H1755 H 0.52703 0.73568 0.32543 0.0
H1756 H 0.47584 0.75149 0.1614 0.0
H1757 H 0.52649 0.82387 0.44421 0.0
H1758 H 0.57105 0.86024 0.51574 0.0
H1759 H 0.58266 0.90454 0.21592 0.0
H1760 H 0.53973 0.86675 0.13568 0.0
H1761 H 0.38868 0.80764 0.09554 0.0
H1762 H 0.41293 0.78791 0.17019 0.0
H1763 H 0.47668 0.83012 0.92516 0.0
H1764 H 0.45266 0.85067 0.85271 0.0
H1765 H 0.48884 0.8431 0.18257 0.0
H1766 H 0.45754 0.77753 0.87579 0.0
H1767 H 0.42822 0.74023 0.73682 0.0
H1768 H 0.39344 0.68606 0.01264 0.0
H1769 H 0.42233 0.72326 0.15408 0.0
C1770 C 0.56427 0.79221 0.17438 0.0
C1771 C 0.55634 0.76724 0.21853 0.0
C1772 C 0.5477 0.80282 0.18926 0.0
C1773 C 0.52324 0.78872 0.25031 0.0
C1774 C 0.51788 0.76637 0.31054 0.0
C1775 C 0.5342 0.75547 0.2941 0.0
C1776 C 0.501 0.79303 0.22617 0.0
C1777 C 0.47807 0.77129 0.17025 0.0
C1778 C 0.50479 0.81917 0.23217 0.0
C1779 C 0.52942 0.84284 0.28527 0.0
C1780 C 0.53844 0.84144 0.39381 0.0
C1781 C 0.56358 0.86219 0.43547 0.0
C1782 C 0.57935 0.8851 0.37233 0.0
C1783 C 0.57027 0.88699 0.26577 0.0
C1784 C 0.54562 0.8658 0.22162 0.0
C1785 C 0.40727 0.81167 0.05389 0.0
C1786 C 0.41842 0.82991 0.96544 0.0
C1787 C 0.4212 0.8006 0.09721 0.0
C1788 C 0.4467 0.80792 0.053 0.0
C1789 C 0.45709 0.82469 0.95975 0.0
C1790 C 0.4432 0.8359 0.91701 0.0
C1791 C 0.46434 0.80172 0.11467 0.0
C1792 C 0.486 0.82304 0.17852 0.0
C1793 C 0.46049 0.77556 0.10907 0.0
C1794 C 0.44141 0.75353 0.02646 0.0
C1795 C 0.44311 0.75791 0.90762 0.0
C1796 C 0.42683 0.73669 0.82802 0.0
C1797 C 0.40876 0.71091 0.86597 0.0
C1798 C 0.40728 0.70612 0.98345 0.0
C1799 C 0.42356 0.72732 0.06351 0.0
H1800 H 0.3958 0.69477 0.80413 0.0
H1801 H 0.59876 0.90119 0.40519 0.0
H1802 H 0.19051 0.61276 0.63993 0.0
H1803 H 0.21174 0.64725 0.4989 0.0
H1804 H 0.28939 0.66157 0.57681 0.0
H1805 H 0.26892 0.63323 0.74413 0.0
H1806 H 0.2404 0.6925 0.52563 0.0
H1807 H 0.32782 0.67973 0.37189 0.0
H1808 H 0.3229 0.65396 0.2628 0.0
H1809 H 0.25704 0.60198 0.00878 0.0
H1810 H 0.24625 0.63888 0.11822 0.0
H1811 H 0.3726 0.81212 0.28358 0.0
H1812 H 0.35158 0.76975 0.38423 0.0
H1813 H 0.27433 0.74785 0.25234 0.0
H1814 H 0.29498 0.79053 0.15757 0.0
H1815 H 0.31409 0.71541 0.25497 0.0
H1816 H 0.2662 0.76609 0.42127 0.0
H1817 H 0.26221 0.80386 0.55034 0.0
H1818 H 0.2818 0.78951 0.92779 0.0
H1819 H 0.2898 0.74867 0.86429 0.0
C1820 C 0.21191 0.62285 0.62443 0.0
C1821 C 0.22779 0.61974 0.69871 0.0
C1822 C 0.22383 0.64126 0.53956 0.0
C1823 C 0.25142 0.65397 0.51379 0.0
C1824 C 0.26767 0.65028 0.58717 0.0
C1825 C 0.256 0.63429 0.68296 0.0
C1826 C 0.26342 0.67747 0.43999 0.0
C1827 C 0.25846 0.69782 0.47903 0.0
C1828 C 0.28187 0.68256 0.34699 0.0
C1829 C 0.28459 0.66102 0.27541 0.0
C1830 C 0.31555 0.6629 0.29749 0.0
C1831 C 0.32409 0.64094 0.20851 0.0
C1832 C 0.30027 0.61673 0.10309 0.0
C1833 C 0.26985 0.61514 0.07728 0.0
C1834 C 0.26149 0.63687 0.15847 0.0
C1835 C 0.35095 0.79912 0.28374 0.0
C1836 C 0.335 0.8056 0.22284 0.0
C1837 C 0.33905 0.77487 0.33939 0.0
C1838 C 0.31109 0.75734 0.33609 0.0
C1839 C 0.2956 0.76262 0.2656 0.0
C1840 C 0.30733 0.7869 0.21159 0.0
C1841 C 0.29801 0.73119 0.38829 0.0
C1842 C 0.29943 0.71012 0.3243 0.0
C1843 C 0.27859 0.72498 0.4781 0.0
C1844 C 0.27774 0.74578 0.56925 0.0
C1845 C 0.26975 0.76739 0.51167 0.0
C1846 C 0.26732 0.79146 0.59496 0.0
C1847 C 0.27192 0.79846 0.74097 0.0
C1848 C 0.28014 0.78329 0.83724 0.0
C1849 C 0.28496 0.75742 0.79565 0.0
H1850 H 0.26883 0.81429 0.77688 0.0
H1851 H 0.30519 0.60361 0.0514 0.0
H1852 H 0.45043 0.68844 0.12913 0.0
H1853 H 0.40713 0.66665 0.23088 0.0
H1854 H 0.41483 0.59842 0.28117 0.0
H1855 H 0.45701 0.61934 0.17651 0.0
H1856 H 0.38092 0.58403 0.39423 0.0
H1857 H 0.44206 0.67332 0.48631 0.0
H1858 H 0.47381 0.72168 0.47197 0.0
H1859 H 0.40889 0.7337 0.40612 0.0
H1860 H 0.37645 0.68446 0.41514 0.0
H1861 H 0.29108 0.56261 0.87046 0.0
H1862 H 0.33637 0.58322 0.78762 0.0
H1863 H 0.31604 0.6225 0.54449 0.0
H1864 H 0.27109 0.60043 0.6192 0.0
H1865 H 0.36533 0.65323 0.58994 0.0
H1866 H 0.31405 0.54454 0.48734 0.0
H1867 H 0.29513 0.50386 0.60016 0.0
H1868 H 0.36385 0.54493 0.82475 0.0
H1869 H 0.38383 0.585 0.7076 0.0
C1870 C 0.4425 0.6685 0.16066 0.0
C1871 C 0.45759 0.65601 0.14893 0.0
C1872 C 0.41821 0.65643 0.22388 0.0
C1873 C 0.41006 0.63315 0.286 0.0
C1874 C 0.42236 0.6183 0.25261 0.0
C1875 C 0.44618 0.62985 0.18742 0.0
C1876 C 0.39121 0.62598 0.3907 0.0
C1877 C 0.37799 0.59968 0.43402 0.0
C1878 C 0.38807 0.64588 0.45698 0.0
C1879 C 0.40701 0.67529 0.44966 0.0
C1880 C 0.43457 0.68624 0.46797 0.0
C1881 C 0.45269 0.71391 0.46111 0.0
C1882 C 0.44353 0.7311 0.43924 0.0
C1883 C 0.41601 0.72043 0.42322 0.0
C1884 C 0.39771 0.69257 0.42859 0.0
C1885 C 0.29651 0.57565 0.79917 0.0
C1886 C 0.27744 0.57966 0.75029 0.0
C1887 C 0.32238 0.5872 0.75002 0.0
C1888 C 0.32949 0.60315 0.65301 0.0
C1889 C 0.3111 0.60938 0.6147 0.0
C1890 C 0.28534 0.59719 0.65998 0.0
C1891 C 0.35421 0.61166 0.58091 0.0
C1892 C 0.36868 0.63815 0.54522 0.0
C1893 C 0.3607 0.59294 0.5311 0.0
C1894 C 0.3509 0.56716 0.58555 0.0
C1895 C 0.32559 0.54433 0.55724 0.0
C1896 C 0.31458 0.5215 0.62266 0.0
C1897 C 0.32835 0.52168 0.71893 0.0
C1898 C 0.35331 0.5446 0.74927 0.0
C1899 C 0.36485 0.56706 0.68134 0.0
H1900 H 0.31959 0.50415 0.77055 0.0
H1901 H 0.45769 0.75265 0.43459 0.0
H1902 H 0.19527 0.64481 0.2726 0.0
H1903 H 0.23463 0.64733 0.27833 0.0
H1904 H 0.19344 0.56323 0.36823 0.0
H1905 H 0.15746 0.56973 0.43805 0.0
H1906 H 0.22801 0.58016 0.48066 0.0
H1907 H 0.28482 0.68405 0.11105 0.0
H1908 H 0.29434 0.70162 0.93431 0.0
H1909 H 0.34803 0.67482 0.85283 0.0
H1910 H 0.34107 0.65596 0.0251 0.0
H1911 H 0.27242 0.49303 0.27101 0.0
H1912 H 0.25047 0.51908 0.28693 0.0
H1913 H 0.32865 0.59296 0.26377 0.0
H1914 H 0.34921 0.56636 0.22899 0.0
H1915 H 0.30986 0.61248 0.35489 0.0
H1916 H 0.27614 0.54949 0.53674 0.0
H1917 H 0.25476 0.50681 0.63566 0.0
H1918 H 0.17811 0.48324 0.49363 0.0
H1919 H 0.19882 0.52618 0.3967 0.0
C1920 C 0.19465 0.62671 0.29569 0.0
C1921 C 0.1738 0.60838 0.36407 0.0
C1922 C 0.21882 0.62731 0.29168 0.0
C1923 C 0.22181 0.60545 0.32049 0.0
C1924 C 0.19619 0.58279 0.35642 0.0
C1925 C 0.174 0.58536 0.38997 0.0
C1926 C 0.24913 0.60475 0.33037 0.0
C1927 C 0.24244 0.58422 0.41102 0.0
C1928 C 0.27851 0.61861 0.27244 0.0
C1929 C 0.30555 0.65943 0.10157 0.0
C1930 C 0.29825 0.67912 0.06419 0.0
C1931 C 0.30331 0.69022 0.9562 0.0
C1932 C 0.31976 0.68714 0.87724 0.0
C1933 C 0.3333 0.67538 0.91109 0.0
C1934 C 0.32807 0.66395 0.01843 0.0
C1935 C 0.2846 0.51487 0.26721 0.0
C1936 C 0.31258 0.52789 0.25246 0.0
C1937 C 0.27221 0.53005 0.28136 0.0
C1938 C 0.2878 0.55869 0.29396 0.0
C1939 C 0.31558 0.57125 0.2657 0.0
C1940 C 0.32764 0.55597 0.24369 0.0
C1941 C 0.27522 0.57534 0.33022 0.0
C1942 C 0.28964 0.60322 0.32182 0.0
C1943 C 0.25187 0.5665 0.39567 0.0
C1944 C 0.23908 0.54133 0.45993 0.0
C1945 C 0.25468 0.53543 0.52773 0.0
C1946 C 0.24269 0.51116 0.58334 0.0
C1947 C 0.21516 0.49234 0.57041 0.0
C1948 C 0.19945 0.49794 0.50376 0.0
C1949 C 0.21126 0.52241 0.44952 0.0
H1950 H 0.20607 0.4733 0.61119 0.0
H1951 H 0.32356 0.6956 0.79339 0.0
H1952 H 0.42226 0.5628 0.76331 0.0
H1953 H 0.45338 0.60971 0.83412 0.0
H1954 H 0.45666 0.63675 0.49431 0.0
H1955 H 0.43087 0.58923 0.4196 0.0
H1956 H 0.50498 0.66837 0.62617 0.0
H1957 H 0.40936 0.66467 0.73018 0.0
H1958 H 0.36491 0.64241 0.82723 0.0
H1959 H 0.38959 0.60142 0.03703 0.0
H1960 H 0.43493 0.62599 0.95127 0.0
H1961 H 0.5199 0.79416 0.62087 0.0
H1962 H 0.50342 0.74637 0.60634 0.0
H1963 H 0.49781 0.74401 0.97765 0.0
H1964 H 0.51564 0.79325 0.99279 0.0
H1965 H 0.45381 0.69968 0.87313 0.0
H1966 H 0.54762 0.7452 0.83135 0.0
H1967 H 0.59046 0.78121 0.75459 0.0
H1968 H 0.56901 0.74258 0.4149 0.0
H1969 H 0.52493 0.70639 0.48883 0.0
C1970 C 0.43003 0.57868 0.70342 0.0
C1971 C 0.42256 0.5725 0.58635 0.0
C1972 C 0.44701 0.60565 0.745 0.0
C1973 C 0.45496 0.62706 0.67271 0.0
C1974 C 0.44967 0.62076 0.55372 0.0
C1975 C 0.43442 0.59368 0.51095 0.0
C1976 C 0.46788 0.6558 0.71994 0.0
C1977 C 0.49385 0.67514 0.68096 0.0
C1978 C 0.45359 0.66488 0.79261 0.0
C1979 C 0.42544 0.64667 0.83192 0.0
C1980 C 0.40517 0.65076 0.79658 0.0
C1981 C 0.37998 0.63816 0.85125 0.0
C1982 C 0.37439 0.62047 0.93822 0.0
C1983 C 0.39393 0.61518 0.96982 0.0
C1984 C 0.41951 0.62865 0.91867 0.0
C1985 C 0.51508 0.78367 0.70014 0.0
C1986 C 0.51923 0.79764 0.80894 0.0
C1987 C 0.5052 0.75602 0.69126 0.0
C1988 C 0.49903 0.74127 0.79034 0.0
C1989 C 0.50229 0.75487 0.89963 0.0
C1990 C 0.51248 0.78291 0.9086 0.0
C1991 C 0.49035 0.71203 0.77727 0.0
C1992 C 0.46521 0.69277 0.82122 0.0
C1993 C 0.50539 0.7031 0.70963 0.0
C1994 C 0.5328 0.72303 0.66582 0.0
C1995 C 0.55181 0.74432 0.74002 0.0
C1996 C 0.5761 0.76506 0.69658 0.0
C1997 C 0.58202 0.76466 0.5789 0.0
C1998 C 0.56395 0.74301 0.50533 0.0
C1999 C 0.53931 0.72234 0.54802 0.0
H2000 H 0.60089 0.78076 0.54528 0.0
H2001 H 0.35491 0.6108 0.98083 0.0
H2002 H 0.26638 0.69331 0.7225 0.0
H2003 H 0.31832 0.7284 0.68317 0.0
H2004 H 0.31323 0.80697 0.64595 0.0
H2005 H 0.23398 0.75278 0.69509 0.0
H2006 H 0.34583 0.81199 0.5222 0.0
H2007 H 0.33811 0.78551 0.88418 0.0
H2008 H 0.32869 0.76257 0.06526 0.0
H2009 H 0.38092 0.73397 0.9608 0.0
H2010 H 0.38784 0.75332 0.77057 0.0
H2011 H 0.47799 0.90266 0.74124 0.0
H2012 H 0.43093 0.87451 0.68686 0.0
H2013 H 0.44714 0.8165 0.51113 0.0
H2014 H 0.49514 0.84641 0.55648 0.0
H2015 H 0.41212 0.80057 0.72267 0.0
H2016 H 0.42361 0.84173 0.36399 0.0
H2017 H 0.44123 0.8821 0.25162 0.0
H2018 H 0.38957 0.90375 0.4396 0.0
H2019 H 0.37212 0.86388 0.55596 0.0
C2020 C 0.27173 0.71381 0.70981 0.0
C2021 C 0.24566 0.7194 0.71347 0.0
C2022 C 0.30539 0.73658 0.68465 0.0
C2023 C 0.32071 0.77025 0.6607 0.0
C2024 C 0.30231 0.78523 0.65875 0.0
C2025 C 0.25148 0.75064 0.69357 0.0
C2026 C 0.35051 0.78795 0.64284 0.0
C2027 C 0.36001 0.80916 0.56701 0.0
C2028 C 0.36971 0.78548 0.70353 0.0
C2029 C 0.36277 0.77028 0.81048 0.0
C2030 C 0.34657 0.77318 0.8966 0.0
C2031 C 0.34181 0.76093 0.00142 0.0
C2032 C 0.35462 0.74723 0.02518 0.0
C2033 C 0.37123 0.74472 0.94182 0.0
C2034 C 0.37499 0.75571 0.83421 0.0
C2035 C 0.47225 0.8857 0.67956 0.0
C2036 C 0.4905 0.87751 0.64831 0.0
C2037 C 0.445 0.8689 0.65223 0.0
C2038 C 0.43557 0.84326 0.59673 0.0
C2039 C 0.45411 0.8362 0.55459 0.0
C2040 C 0.48157 0.85356 0.57836 0.0
C2041 C 0.40637 0.82279 0.5992 0.0
C2042 C 0.39725 0.80197 0.67555 0.0
C2043 C 0.38763 0.82678 0.54547 0.0
C2044 C 0.39674 0.84986 0.47013 0.0
C2045 C 0.41616 0.85521 0.38252 0.0
C2046 C 0.4261 0.87799 0.31781 0.0
C2047 C 0.41665 0.89556 0.33898 0.0
C2048 C 0.39694 0.89015 0.42369 0.0
C2049 C 0.38695 0.86739 0.48893 0.0
H2050 H 0.42461 0.91336 0.28981 0.0
H2051 H 0.35154 0.73841 0.10777 0.0
loop_
_geom_bond_atom_site_label_1
_geom_bond_atom_site_label_2
_geom_bond_distance
_geom_bond_site_symmetry_2
_ccdc_geom_bond_type
C0 O1 1.306 . S
C0 O3 1.160 . S
O1 C0 1.306 . S
O1 Cd2 2.228 . S
Cd2 O1 2.228 . S
Cd2 O6 2.273 . S
Cd2 O10 2.277 . S
O3 C0 1.160 . S
O3 Cd4 2.203 . S
Cd4 O3 2.203 . S
Cd4 O6 2.411 . S
Cd4 O7 2.333 . S
Cd4 O8 2.352 . S
Cd4 O12 2.277 1_554 S
Cd4 O13 2.356 . S
C5 O10 1.209 . S
C5 O12 1.226 1_554 S
O6 Cd2 2.273 . S
O6 Cd4 2.411 . S
O6 C9 1.320 . S
O7 Cd4 2.333 . S
O7 C9 1.214 . S
O8 Cd4 2.352 . S
O8 C11 1.258 1_455 S
C9 O6 1.320 . S
C9 O7 1.214 . S
O10 Cd2 2.277 . S
O10 C5 1.209 . S
C11 O8 1.258 1_655 S
C11 O13 1.282 1_655 S
O12 Cd4 2.277 1_556 S
O12 C5 1.226 1_556 S
O13 Cd4 2.356 . S
O13 C11 1.282 1_455 S
C14 O15 1.306 . S
C14 O17 1.160 1_556 S
O15 C14 1.306 . S
O15 Cd16 2.228 . S
Cd16 O15 2.228 . S
Cd16 O20 2.273 . S
Cd16 O24 2.277 . S
O17 C14 1.160 1_554 S
O17 Cd18 2.203 . S
Cd18 O17 2.203 . S
Cd18 O20 2.411 1_554 S
Cd18 O21 2.333 1_554 S
Cd18 O22 2.352 . S
Cd18 O26 2.277 . S
Cd18 O27 2.356 . S
C19 O24 1.209 1_554 S
C19 O26 1.226 . S
O20 Cd16 2.273 . S
O20 Cd18 2.411 1_556 S
O20 C23 1.320 . S
O21 Cd18 2.333 1_556 S
O21 C23 1.214 . S
O22 Cd18 2.352 . S
O22 C25 1.258 . S
C23 O20 1.320 . S
C23 O21 1.214 . S
O24 Cd16 2.277 . S
O24 C19 1.209 1_556 S
C25 O22 1.258 . S
C25 O27 1.282 . S
O26 Cd18 2.277 . S
O26 C19 1.226 . S
O27 Cd18 2.356 . S
O27 C25 1.282 . S
C28 O29 1.306 . S
C28 O31 1.160 . S
O29 C28 1.306 . S
O29 Cd30 2.228 . S
Cd30 O29 2.228 . S
Cd30 O34 2.273 1_565 S
Cd30 O38 2.277 . S
O31 C28 1.160 . S
O31 Cd32 2.203 1_565 S
Cd32 O31 2.203 1_545 S
Cd32 O34 2.411 . S
Cd32 O35 2.333 . S
Cd32 O36 2.352 . S
Cd32 O40 2.277 1_544 S
Cd32 O41 2.356 1_554 S
C33 O38 1.209 . S
C33 O40 1.226 1_554 S
O34 Cd30 2.273 1_545 S
O34 Cd32 2.411 . S
O34 C37 1.320 . S
O35 Cd32 2.333 . S
O35 C37 1.214 . S
O36 Cd32 2.352 . S
O36 C39 1.258 1_554 S
C37 O34 1.320 . S
C37 O35 1.214 . S
O38 Cd30 2.277 . S
O38 C33 1.209 . S
C39 O36 1.258 1_556 S
C39 O41 1.282 . S
O40 Cd32 2.277 1_566 S
O40 C33 1.226 1_556 S
O41 Cd32 2.356 1_556 S
O41 C39 1.282 . S
C42 O43 1.306 . S
C42 O45 1.158 1_554 S
O43 C42 1.306 . S
O43 Cd44 2.228 . S
Cd44 O43 2.228 . S
Cd44 O48 2.273 . S
Cd44 O52 2.277 . S
O45 C42 1.158 1_556 S
O45 Cd46 2.204 . S
Cd46 O45 2.204 . S
Cd46 O48 2.411 1_556 S
Cd46 O49 2.333 . S
Cd46 O50 2.352 . S
Cd46 O54 2.277 . S
Cd46 O55 2.356 . S
C47 O52 1.209 1_556 S
C47 O54 1.226 . S
O48 Cd44 2.273 . S
O48 Cd46 2.411 1_554 S
O48 C51 1.320 . S
O49 Cd46 2.333 . S
O49 C51 1.214 1_556 S
O50 Cd46 2.352 . S
O50 C53 1.258 . S
C51 O48 1.320 . S
C51 O49 1.214 1_554 S
O52 Cd44 2.277 . S
O52 C47 1.209 1_554 S
C53 O50 1.258 . S
C53 O55 1.282 . S
O54 Cd46 2.277 . S
O54 C47 1.226 . S
O55 Cd46 2.356 . S
O55 C53 1.282 . S
C56 O57 1.306 . S
C56 O59 1.160 . S
O57 C56 1.306 . S
O57 Cd58 2.228 . S
Cd58 O57 2.228 . S
Cd58 O62 2.273 . S
Cd58 O66 2.277 . S
O59 C56 1.160 . S
O59 Cd60 2.203 . S
Cd60 O59 2.203 . S
Cd60 O62 2.411 . S
Cd60 O63 2.333 . S
Cd60 O64 2.352 . S
Cd60 O68 2.277 1_556 S
Cd60 O69 2.356 1_556 S
C61 O66 1.209 . S
C61 O68 1.226 1_556 S
O62 Cd58 2.273 . S
O62 Cd60 2.411 . S
O62 C65 1.320 . S
O63 Cd60 2.333 . S
O63 C65 1.214 . S
O64 Cd60 2.352 . S
O64 C67 1.258 1_556 S
C65 O62 1.320 . S
C65 O63 1.214 . S
O66 Cd58 2.277 . S
O66 C61 1.209 . S
C67 O64 1.258 1_554 S
C67 O69 1.282 . S
O68 Cd60 2.277 1_554 S
O68 C61 1.226 1_554 S
O69 Cd60 2.356 1_554 S
O69 C67 1.282 . S
C70 O71 1.306 . S
C70 O73 1.160 1_556 S
O71 C70 1.306 . S
O71 Cd72 2.228 . S
Cd72 O71 2.228 . S
Cd72 O76 2.273 . S
Cd72 O80 2.277 1_556 S
O73 C70 1.160 1_554 S
O73 Cd74 2.203 . S
Cd74 O73 2.203 . S
Cd74 O76 2.411 1_554 S
Cd74 O77 2.333 1_554 S
Cd74 O78 2.352 1_554 S
Cd74 O82 2.277 . S
Cd74 O83 2.337 1_545 S
C75 O80 1.209 . S
C75 O82 1.226 . S
O76 Cd72 2.273 . S
O76 Cd74 2.411 1_556 S
O76 C79 1.320 . S
O77 Cd74 2.333 1_556 S
O77 C79 1.214 . S
O78 Cd74 2.352 1_556 S
O78 C81 1.258 1_546 S
C79 O76 1.320 . S
C79 O77 1.214 . S
O80 Cd72 2.277 1_554 S
O80 C75 1.209 . S
C81 O78 1.258 1_564 S
C81 O83 1.277 . S
O82 Cd74 2.277 . S
O82 C75 1.226 . S
O83 Cd74 2.337 1_565 S
O83 C81 1.277 . S
C84 O85 1.306 . S
C84 O87 1.160 . S
O85 C84 1.306 . S
O85 Cd86 2.228 . S
Cd86 O85 2.228 . S
Cd86 O90 2.273 . S
Cd86 O94 2.277 1_556 S
O87 C84 1.160 . S
O87 Cd88 2.203 1_556 S
Cd88 O87 2.203 1_554 S
Cd88 O90 2.411 1_554 S
Cd88 O91 2.333 . S
Cd88 O92 2.352 1_554 S
Cd88 O96 2.277 . S
Cd88 O97 2.356 . S
C89 O94 1.209 . S
C89 O96 1.226 . S
O90 Cd86 2.273 . S
O90 Cd88 2.411 1_556 S
O90 C93 1.320 . S
O91 Cd88 2.333 . S
O91 C93 1.214 1_554 S
O92 Cd88 2.352 1_556 S
O92 C95 1.258 1_556 S
C93 O90 1.320 . S
C93 O91 1.214 1_556 S
O94 Cd86 2.277 1_554 S
O94 C89 1.209 . S
C95 O92 1.258 1_554 S
C95 O97 1.282 . S
O96 Cd88 2.277 . S
O96 C89 1.226 . S
O97 Cd88 2.356 . S
O97 C95 1.282 . S
C98 O99 1.306 . S
C98 O101 1.160 . S
O99 C98 1.306 . S
O99 Cd100 2.228 . S
Cd100 O99 2.228 . S
Cd100 O104 2.273 . S
Cd100 O108 2.277 . S
O101 C98 1.160 . S
O101 Cd102 2.203 . S
Cd102 O101 2.203 . S
Cd102 O104 2.411 . S
Cd102 O105 2.333 . S
Cd102 O106 2.352 . S
Cd102 O110 2.277 . S
Cd102 O111 2.356 . S
C103 O108 1.209 . S
C103 O110 1.226 . S
O104 Cd100 2.273 . S
O104 Cd102 2.411 . S
O104 C107 1.320 . S
O105 Cd102 2.333 . S
O105 C107 1.214 . S
O106 Cd102 2.352 . S
O106 C109 1.258 . S
C107 O104 1.320 . S
C107 O105 1.214 . S
O108 Cd100 2.277 . S
O108 C103 1.209 . S
C109 O106 1.258 . S
C109 O111 1.282 . S
O110 Cd102 2.277 . S
O110 C103 1.226 . S
O111 Cd102 2.356 . S
O111 C109 1.282 . S
C112 O113 1.306 . S
C112 O115 1.160 . S
O113 C112 1.306 . S
O113 Cd114 2.228 . S
Cd114 O113 2.228 . S
Cd114 O118 2.273 . S
Cd114 O122 2.277 1_556 S
O115 C112 1.160 . S
O115 Cd116 2.203 1_556 S
Cd116 O115 2.203 1_554 S
Cd116 O118 2.411 1_554 S
Cd116 O119 2.333 . S
Cd116 O120 2.352 1_554 S
Cd116 O124 2.277 . S
Cd116 O125 2.356 . S
C117 O122 1.209 . S
C117 O124 1.226 . S
O118 Cd114 2.273 . S
O118 Cd116 2.411 1_556 S
O118 C121 1.320 . S
O119 Cd116 2.333 . S
O119 C121 1.214 1_554 S
O120 Cd116 2.352 1_556 S
O120 C123 1.258 1_556 S
C121 O118 1.320 . S
C121 O119 1.214 1_556 S
O122 Cd114 2.277 1_554 S
O122 C117 1.209 . S
C123 O120 1.258 1_554 S
C123 O125 1.282 . S
O124 Cd116 2.277 . S
O124 C117 1.226 . S
O125 Cd116 2.356 . S
O125 C123 1.282 . S
C126 O127 1.306 . S
C126 O129 1.160 . S
O127 C126 1.306 . S
O127 Cd128 2.228 . S
Cd128 O127 2.228 . S
Cd128 O132 2.273 . S
Cd128 O136 2.277 . S
O129 C126 1.160 . S
O129 Cd130 2.203 1_554 S
Cd130 O129 2.203 1_556 S
Cd130 O132 2.411 1_556 S
Cd130 O133 2.333 1_556 S
Cd130 O134 2.352 . S
Cd130 O138 2.277 . S
Cd130 O139 2.356 . S
C131 O136 1.209 1_556 S
C131 O138 1.226 . S
O132 Cd128 2.273 . S
O132 Cd130 2.411 1_554 S
O132 C135 1.320 . S
O133 Cd130 2.333 1_554 S
O133 C135 1.214 . S
O134 Cd130 2.352 . S
O134 C137 1.258 . S
C135 O132 1.320 . S
C135 O133 1.214 . S
O136 Cd128 2.277 . S
O136 C131 1.209 1_554 S
C137 O134 1.258 . S
C137 O139 1.282 . S
O138 Cd130 2.277 . S
O138 C131 1.226 . S
O139 Cd130 2.356 . S
O139 C137 1.282 . S
C140 O141 1.306 . S
C140 O143 1.160 1_556 S
O141 C140 1.306 . S
O141 Cd142 2.228 . S
Cd142 O141 2.228 . S
Cd142 O146 2.273 . S
Cd142 O150 2.277 . S
O143 C140 1.160 1_554 S
O143 Cd144 2.203 . S
Cd144 O143 2.203 . S
Cd144 O146 2.411 1_554 S
Cd144 O147 2.333 1_554 S
Cd144 O148 2.352 . S
Cd144 O152 2.277 . S
Cd144 O153 2.356 . S
C145 O150 1.209 1_554 S
C145 O152 1.226 . S
O146 Cd142 2.273 . S
O146 Cd144 2.411 1_556 S
O146 C149 1.320 . S
O147 Cd144 2.333 1_556 S
O147 C149 1.214 . S
O148 Cd144 2.352 . S
O148 C151 1.258 . S
C149 O146 1.320 . S
C149 O147 1.214 . S
O150 Cd142 2.277 . S
O150 C145 1.209 1_556 S
C151 O148 1.258 . S
C151 O153 1.282 . S
O152 Cd144 2.277 . S
O152 C145 1.226 . S
O153 Cd144 2.356 . S
O153 C151 1.282 . S
C154 O155 1.306 1_554 S
C154 O157 1.160 . S
O155 C154 1.306 1_556 S
O155 Cd156 2.228 . S
Cd156 O155 2.228 . S
Cd156 O160 2.273 . S
Cd156 O164 2.276 1_556 S
O157 C154 1.160 . S
O157 Cd158 2.203 . S
Cd158 O157 2.203 . S
Cd158 O160 2.411 1_554 S
Cd158 O161 2.333 . S
Cd158 O162 2.352 . S
Cd158 O166 2.277 . S
Cd158 O167 2.356 . S
C159 O164 1.209 . S
C159 O166 1.226 . S
O160 Cd156 2.273 . S
O160 Cd158 2.411 1_556 S
O160 C163 1.320 1_556 S
O161 Cd158 2.333 . S
O161 C163 1.214 . S
O162 Cd158 2.352 . S
O162 C165 1.258 . S
C163 O160 1.320 1_554 S
C163 O161 1.214 . S
O164 Cd156 2.276 1_554 S
O164 C159 1.209 . S
C165 O162 1.258 . S
C165 O167 1.282 . S
O166 Cd158 2.277 . S
O166 C159 1.226 . S
O167 Cd158 2.356 . S
O167 C165 1.282 . S
C168 O169 1.306 . S
C168 O171 1.160 1_554 S
O169 C168 1.306 . S
O169 Cd170 2.228 . S
Cd170 O169 2.228 . S
Cd170 O174 2.273 . S
Cd170 O178 2.277 1_554 S
O171 C168 1.160 1_556 S
O171 Cd172 2.203 . S
Cd172 O171 2.203 . S
Cd172 O174 2.411 1_556 S
Cd172 O175 2.333 1_556 S
Cd172 O176 2.352 1_556 S
Cd172 O180 2.277 . S
Cd172 O181 2.356 . S
C173 O178 1.209 . S
C173 O180 1.226 . S
O174 Cd170 2.273 . S
O174 Cd172 2.411 1_554 S
O174 C177 1.320 . S
O175 Cd172 2.333 1_554 S
O175 C177 1.214 . S
O176 Cd172 2.352 1_554 S
O176 C179 1.258 1_554 S
C177 O174 1.320 . S
C177 O175 1.214 . S
O178 Cd170 2.277 1_556 S
O178 C173 1.209 . S
C179 O176 1.258 1_556 S
C179 O181 1.282 . S
O180 Cd172 2.277 . S
O180 C173 1.226 . S
O181 Cd172 2.356 . S
O181 C179 1.282 . S
C182 O183 1.306 . S
C182 O185 1.167 . S
O183 C182 1.306 . S
O183 Cd184 2.228 . S
Cd184 O183 2.228 . S
Cd184 O188 2.273 . S
Cd184 O192 2.277 . S
O185 C182 1.167 . S
O185 Cd186 2.205 . S
Cd186 O185 2.205 . S
Cd186 O188 2.411 . S
Cd186 O189 2.333 . S
Cd186 O190 2.352 . S
Cd186 O194 2.277 1_556 S
Cd186 O195 2.356 1_556 S
C187 O192 1.209 . S
C187 O194 1.226 1_556 S
O188 Cd184 2.273 . S
O188 Cd186 2.411 . S
O188 C191 1.320 . S
O189 Cd186 2.333 . S
O189 C191 1.214 . S
O190 Cd186 2.352 . S
O190 C193 1.258 1_556 S
C191 O188 1.320 . S
C191 O189 1.214 . S
O192 Cd184 2.277 . S
O192 C187 1.209 . S
C193 O190 1.258 1_554 S
C193 O195 1.282 . S
O194 Cd186 2.277 1_554 S
O194 C187 1.226 1_554 S
O195 Cd186 2.356 1_554 S
O195 C193 1.282 . S
C196 O197 1.306 . S
C196 O199 1.160 . S
O197 C196 1.306 . S
O197 Cd198 2.228 . S
Cd198 O197 2.228 . S
Cd198 O202 2.273 . S
Cd198 O206 2.277 . S
O199 C196 1.160 . S
O199 Cd200 2.203 1_554 S
Cd200 O199 2.203 1_556 S
Cd200 O202 2.411 1_556 S
Cd200 O203 2.333 . S
Cd200 O204 2.352 . S
Cd200 O208 2.277 . S
Cd200 O209 2.356 . S
C201 O206 1.209 1_556 S
C201 O208 1.226 . S
O202 Cd198 2.273 . S
O202 Cd200 2.411 1_554 S
O202 C205 1.320 . S
O203 Cd200 2.333 . S
O203 C205 1.214 1_556 S
O204 Cd200 2.352 . S
O204 C207 1.258 . S
C205 O202 1.320 . S
C205 O203 1.214 1_554 S
O206 Cd198 2.277 . S
O206 C201 1.209 1_554 S
C207 O204 1.258 . S
C207 O209 1.282 . S
O208 Cd200 2.277 . S
O208 C201 1.226 . S
O209 Cd200 2.356 . S
O209 C207 1.282 . S
C210 O211 1.306 . S
C210 O213 1.160 . S
O211 C210 1.306 . S
O211 Cd212 2.228 . S
Cd212 O211 2.228 . S
Cd212 O216 2.273 . S
Cd212 O220 2.277 . S
O213 C210 1.160 . S
O213 Cd214 2.203 . S
Cd214 O213 2.203 . S
Cd214 O216 2.411 . S
Cd214 O217 2.333 . S
Cd214 O218 2.352 . S
Cd214 O222 2.277 . S
Cd214 O223 2.356 . S
C215 O220 1.209 . S
C215 O222 1.226 . S
O216 Cd212 2.273 . S
O216 Cd214 2.411 . S
O216 C219 1.320 . S
O217 Cd214 2.333 . S
O217 C219 1.214 . S
O218 Cd214 2.352 . S
O218 C221 1.258 . S
C219 O216 1.320 . S
C219 O217 1.214 . S
O220 Cd212 2.277 . S
O220 C215 1.209 . S
C221 O218 1.258 . S
C221 O223 1.282 . S
O222 Cd214 2.277 . S
O222 C215 1.226 . S
O223 Cd214 2.356 . S
O223 C221 1.282 . S
C224 O225 1.306 . S
C224 O227 1.160 1_556 S
O225 C224 1.306 . S
O225 Cd226 2.228 . S
Cd226 O225 2.228 . S
Cd226 O230 2.273 . S
Cd226 O234 2.277 . S
O227 C224 1.160 1_554 S
O227 Cd228 2.203 . S
Cd228 O227 2.203 . S
Cd228 O230 2.411 1_554 S
Cd228 O231 2.333 1_554 S
Cd228 O232 2.352 . S
Cd228 O236 2.277 . S
Cd228 O237 2.356 . S
C229 O234 1.209 1_554 S
C229 O236 1.226 . S
O230 Cd226 2.273 . S
O230 Cd228 2.411 1_556 S
O230 C233 1.320 . S
O231 Cd228 2.333 1_556 S
O231 C233 1.214 . S
O232 Cd228 2.352 . S
O232 C235 1.258 . S
C233 O230 1.320 . S
C233 O231 1.214 . S
O234 Cd226 2.277 . S
O234 C229 1.209 1_556 S
C235 O232 1.258 . S
C235 O237 1.282 . S
O236 Cd228 2.277 . S
O236 C229 1.226 . S
O237 Cd228 2.356 . S
O237 C235 1.282 . S
C238 O239 1.306 . S
C238 O241 1.160 . S
O239 C238 1.306 . S
O239 Cd240 2.228 . S
Cd240 O239 2.228 . S
Cd240 O244 2.273 . S
Cd240 O248 2.277 . S
O241 C238 1.160 . S
O241 Cd242 2.203 . S
Cd242 O241 2.203 . S
Cd242 O244 2.411 . S
Cd242 O245 2.333 . S
Cd242 O246 2.352 . S
Cd242 O250 2.277 . S
Cd242 O251 2.356 . S
C243 O248 1.209 . S
C243 O250 1.226 . S
O244 Cd240 2.273 . S
O244 Cd242 2.411 . S
O244 C247 1.320 . S
O245 Cd242 2.333 . S
O245 C247 1.214 . S
O246 Cd242 2.352 . S
O246 C249 1.258 . S
C247 O244 1.320 . S
C247 O245 1.214 . S
O248 Cd240 2.277 . S
O248 C243 1.209 . S
C249 O246 1.258 . S
C249 O251 1.282 . S
O250 Cd242 2.277 . S
O250 C243 1.226 . S
O251 Cd242 2.356 . S
O251 C249 1.282 . S
H252 C270 0.951 . S
H253 C272 0.951 . S
H254 C274 0.950 1_556 S
H255 C275 0.950 1_556 S
H256 C277 0.950 . S
H257 C280 0.950 . S
H258 C281 0.950 . S
H259 C283 0.950 . S
H260 C284 0.950 . S
H261 C285 0.951 . S
H262 C287 0.951 . S
H263 C289 0.950 . S
H264 C290 0.950 . S
H265 C292 0.950 . S
H266 C295 0.950 . S
H267 C296 0.950 . S
H268 C298 0.950 1_556 S
H269 C299 0.950 1_556 S
C270 H252 0.951 . S
C270 C271 1.366 . S
C270 C272 1.388 . S
C271 C270 1.366 . S
C271 C275 1.385 . S
C272 H253 0.951 . S
C272 C270 1.388 . S
C272 C273 1.366 . S
C273 C272 1.366 . S
C273 C274 1.414 . S
C273 C276 1.499 . S
C274 H254 0.950 1_554 S
C274 C273 1.414 . S
C274 C275 1.374 . S
C275 H255 0.950 1_554 S
C275 C271 1.385 . S
C275 C274 1.374 . S
C276 C273 1.499 . S
C276 C277 1.373 . S
C276 C278 1.389 . S
C277 H256 0.950 . S
C277 C276 1.373 . S
C277 C293 1.377 . S
C278 C276 1.389 . S
C278 C279 1.524 . S
C278 C292 1.377 . S
C279 C278 1.524 . S
C279 C280 1.397 . S
C279 C284 1.363 . S
C280 H257 0.950 . S
C280 C279 1.397 . S
C280 C281 1.334 . S
C281 H258 0.950 . S
C281 C280 1.334 . S
C281 C282 1.287 . S
C282 C281 1.287 . S
C282 C283 1.524 . S
C282 H301 0.913 . S
C283 H259 0.950 . S
C283 C282 1.524 . S
C283 C284 1.415 . S
C284 H260 0.950 . S
C284 C279 1.363 . S
C284 C283 1.415 . S
C285 H261 0.951 . S
C285 C286 1.366 . S
C285 C287 1.388 . S
C286 C285 1.366 . S
C286 C290 1.385 . S
C287 H262 0.951 . S
C287 C285 1.388 . S
C287 C288 1.366 . S
C288 C287 1.366 . S
C288 C289 1.414 . S
C288 C291 1.499 . S
C289 H263 0.950 . S
C289 C288 1.414 . S
C289 C290 1.374 . S
C290 H264 0.950 . S
C290 C286 1.385 . S
C290 C289 1.374 . S
C291 C288 1.499 . S
C291 C292 1.373 . S
C291 C293 1.389 . S
C292 H265 0.950 . S
C292 C278 1.377 . S
C292 C291 1.373 . S
C293 C277 1.377 . S
C293 C291 1.389 . S
C293 C294 1.524 . S
C294 C293 1.524 . S
C294 C295 1.397 . S
C294 C299 1.363 . S
C295 H266 0.950 . S
C295 C294 1.397 . S
C295 C296 1.334 . S
C296 H267 0.950 . S
C296 C295 1.334 . S
C296 C297 1.287 . S
C297 C296 1.287 . S
C297 C298 1.524 . S
C297 H300 0.999 . S
C298 H268 0.950 1_554 S
C298 C297 1.524 . S
C298 C299 1.415 . S
C299 H269 0.950 1_554 S
C299 C294 1.363 . S
C299 C298 1.415 . S
H300 C297 0.999 . S
H301 C282 0.913 . S
H302 C320 0.951 . S
H303 C322 0.951 . S
H304 C324 0.950 1_556 S
H305 C325 0.950 . S
H306 C327 0.950 . S
H307 C330 0.950 . S
H308 C331 0.950 . S
H309 C333 0.950 . S
H310 C334 0.950 . S
H311 C335 0.951 . S
H312 C337 0.951 . S
H313 C339 0.950 . S
H314 C340 0.950 . S
H315 C342 0.950 . S
H316 C345 0.950 . S
H317 C346 0.950 . S
H318 C348 0.950 . S
H319 C349 0.950 . S
C320 H302 0.951 . S
C320 C321 1.366 . S
C320 C322 1.388 . S
C321 C320 1.366 . S
C321 C325 1.385 . S
C322 H303 0.951 . S
C322 C320 1.388 . S
C322 C323 1.366 . S
C323 C322 1.366 . S
C323 C324 1.414 . S
C323 C326 1.499 . S
C324 H304 0.950 1_554 S
C324 C323 1.414 . S
C324 C325 1.374 . S
C325 H305 0.950 . S
C325 C321 1.385 . S
C325 C324 1.374 . S
C326 C323 1.499 . S
C326 C327 1.373 1_554 S
C326 C328 1.389 . S
C327 H306 0.950 . S
C327 C326 1.373 1_556 S
C327 C343 1.377 . S
C328 C326 1.389 . S
C328 C329 1.524 . S
C328 C342 1.377 . S
C329 C328 1.524 . S
C329 C330 1.397 . S
C329 C334 1.363 . S
C330 H307 0.950 . S
C330 C329 1.397 . S
C330 C331 1.334 . S
C331 H308 0.950 . S
C331 C330 1.334 . S
C331 C332 1.287 . S
C332 C331 1.287 . S
C332 C333 1.524 . S
C332 H351 0.913 . S
C333 H309 0.950 . S
C333 C332 1.524 . S
C333 C334 1.415 . S
C334 H310 0.950 . S
C334 C329 1.363 . S
C334 C333 1.415 . S
C335 H311 0.951 . S
C335 C336 1.366 . S
C335 C337 1.388 . S
C336 C335 1.366 . S
C336 C340 1.385 1_556 S
C337 H312 0.951 . S
C337 C335 1.388 . S
C337 C338 1.366 1_556 S
C338 C337 1.366 1_554 S
C338 C339 1.414 . S
C338 C341 1.499 . S
C339 H313 0.950 . S
C339 C338 1.414 . S
C339 C340 1.374 . S
C340 H314 0.950 . S
C340 C336 1.385 1_554 S
C340 C339 1.374 . S
C341 C338 1.499 . S
C341 C342 1.373 . S
C341 C343 1.389 1_554 S
C342 H315 0.950 . S
C342 C328 1.377 . S
C342 C341 1.373 . S
C343 C327 1.377 . S
C343 C341 1.389 1_556 S
C343 C344 1.524 . S
C344 C343 1.524 . S
C344 C345 1.397 . S
C344 C349 1.363 . S
C345 H316 0.950 . S
C345 C344 1.397 . S
C345 C346 1.334 . S
C346 H317 0.950 . S
C346 C345 1.334 . S
C346 C347 1.287 . S
C347 C346 1.287 . S
C347 C348 1.524 . S
C347 H350 0.999 . S
C348 H318 0.950 . S
C348 C347 1.524 . S
C348 C349 1.415 . S
C349 H319 0.950 . S
C349 C344 1.363 . S
C349 C348 1.415 . S
H350 C347 0.999 . S
H351 C332 0.913 . S
H352 C370 0.951 . S
H353 C372 0.951 . S
H354 C374 0.950 . S
H355 C375 0.950 . S
H356 C377 0.950 . S
H357 C380 0.950 . S
H358 C381 0.950 . S
H359 C383 0.950 . S
H360 C384 0.950 . S
H361 C385 0.951 . S
H362 C387 0.951 . S
H363 C389 0.950 . S
H364 C390 0.950 . S
H365 C392 0.950 . S
H366 C395 0.950 . S
H367 C396 0.950 . S
H368 C398 0.950 1_556 S
H369 C399 0.950 . S
C370 H352 0.951 . S
C370 C371 1.366 . S
C370 C372 1.388 . S
C371 C370 1.366 . S
C371 C375 1.385 . S
C372 H353 0.951 . S
C372 C370 1.388 . S
C372 C373 1.366 . S
C373 C372 1.366 . S
C373 C374 1.414 . S
C373 C376 1.499 . S
C374 H354 0.950 . S
C374 C373 1.414 . S
C374 C375 1.374 . S
C375 H355 0.950 . S
C375 C371 1.385 . S
C375 C374 1.374 . S
C376 C373 1.499 . S
C376 C377 1.373 . S
C376 C378 1.389 . S
C377 H356 0.950 . S
C377 C376 1.373 . S
C377 C393 1.377 . S
C378 C376 1.389 . S
C378 C379 1.524 . S
C378 C392 1.377 . S
C379 C378 1.524 . S
C379 C380 1.397 . S
C379 C384 1.363 . S
C380 H357 0.950 . S
C380 C379 1.397 . S
C380 C381 1.334 . S
C381 H358 0.950 . S
C381 C380 1.334 . S
C381 C382 1.287 . S
C382 C381 1.287 . S
C382 C383 1.524 . S
C382 H401 0.913 . S
C383 H359 0.950 . S
C383 C382 1.524 . S
C383 C384 1.415 . S
C384 H360 0.950 . S
C384 C379 1.363 . S
C384 C383 1.415 . S
C385 H361 0.951 . S
C385 C386 1.366 . S
C385 C387 1.388 . S
C386 C385 1.366 . S
C386 C390 1.385 . S
C387 H362 0.951 . S
C387 C385 1.388 . S
C387 C388 1.366 . S
C388 C387 1.366 . S
C388 C389 1.414 . S
C388 C391 1.499 . S
C389 H363 0.950 . S
C389 C388 1.414 . S
C389 C390 1.374 . S
C390 H364 0.950 . S
C390 C386 1.385 . S
C390 C389 1.374 . S
C391 C388 1.499 . S
C391 C392 1.373 . S
C391 C393 1.389 . S
C392 H365 0.950 . S
C392 C378 1.377 . S
C392 C391 1.373 . S
C393 C377 1.377 . S
C393 C391 1.389 . S
C393 C394 1.524 . S
C394 C393 1.524 . S
C394 C395 1.397 . S
C394 C399 1.363 . S
C395 H366 0.950 . S
C395 C394 1.397 . S
C395 C396 1.334 1_554 S
C396 H367 0.950 . S
C396 C395 1.334 1_556 S
C396 C397 1.287 . S
C397 C396 1.287 . S
C397 C398 1.524 1_556 S
C397 H400 0.999 . S
C398 H368 0.950 1_554 S
C398 C397 1.524 1_554 S
C398 C399 1.415 . S
C399 H369 0.950 . S
C399 C394 1.363 . S
C399 C398 1.415 . S
H400 C397 0.999 . S
H401 C382 0.913 . S
H402 C420 0.951 . S
H403 C422 0.951 . S
H404 C424 0.950 . S
H405 C425 0.950 . S
H406 C427 0.950 . S
H407 C430 0.950 . S
H408 C431 0.950 . S
H409 C433 0.950 . S
H410 C434 0.950 . S
H411 C435 0.951 . S
H412 C437 0.951 . S
H413 C439 0.950 1_554 S
H414 C440 0.950 . S
H415 C442 0.950 . S
H416 C445 0.950 . S
H417 C446 0.950 . S
H418 C448 0.950 . S
H419 C449 0.950 . S
C420 H402 0.951 . S
C420 C421 1.366 . S
C420 C422 1.388 . S
C421 C420 1.366 . S
C421 C425 1.385 . S
C422 H403 0.951 . S
C422 C420 1.388 . S
C422 C423 1.366 . S
C423 C422 1.366 . S
C423 C424 1.414 . S
C423 C426 1.499 . S
C424 H404 0.950 . S
C424 C423 1.414 . S
C424 C425 1.374 . S
C425 H405 0.950 . S
C425 C421 1.385 . S
C425 C424 1.374 . S
C426 C423 1.499 . S
C426 C427 1.373 1_554 S
C426 C428 1.389 . S
C427 H406 0.950 . S
C427 C426 1.373 1_556 S
C427 C443 1.377 . S
C428 C426 1.389 . S
C428 C429 1.524 . S
C428 C442 1.377 . S
C429 C428 1.524 . S
C429 C430 1.397 . S
C429 C434 1.363 . S
C430 H407 0.950 . S
C430 C429 1.397 . S
C430 C431 1.334 . S
C431 H408 0.950 . S
C431 C430 1.334 . S
C431 C432 1.287 . S
C432 C431 1.287 . S
C432 C433 1.524 . S
C432 H451 0.913 . S
C433 H409 0.950 . S
C433 C432 1.524 . S
C433 C434 1.415 . S
C434 H410 0.950 . S
C434 C429 1.363 . S
C434 C433 1.415 . S
C435 H411 0.951 . S
C435 C436 1.366 . S
C435 C437 1.388 . S
C436 C435 1.366 . S
C436 C440 1.385 . S
C437 H412 0.951 . S
C437 C435 1.388 . S
C437 C438 1.366 . S
C438 C437 1.366 . S
C438 C439 1.414 . S
C438 C441 1.499 . S
C439 H413 0.950 1_556 S
C439 C438 1.414 . S
C439 C440 1.374 . S
C440 H414 0.950 . S
C440 C436 1.385 . S
C440 C439 1.374 . S
C441 C438 1.499 . S
C441 C442 1.373 1_556 S
C441 C443 1.389 . S
C442 H415 0.950 . S
C442 C428 1.377 . S
C442 C441 1.373 1_554 S
C443 C427 1.377 . S
C443 C441 1.389 . S
C443 C444 1.524 . S
C444 C443 1.524 . S
C444 C445 1.397 . S
C444 C449 1.363 . S
C445 H416 0.950 . S
C445 C444 1.397 . S
C445 C446 1.334 . S
C446 H417 0.950 . S
C446 C445 1.334 . S
C446 C447 1.287 . S
C447 C446 1.287 . S
C447 C448 1.524 . S
C447 H450 0.999 . S
C448 H418 0.950 . S
C448 C447 1.524 . S
C448 C449 1.415 . S
C449 H419 0.950 . S
C449 C444 1.363 . S
C449 C448 1.415 . S
H450 C447 0.999 . S
H451 C432 0.913 . S
H452 C470 0.951 . S
H453 C472 0.951 . S
H454 C474 0.950 . S
H455 C475 0.950 . S
H456 C477 0.950 . S
H457 C480 0.950 . S
H458 C481 0.950 . S
H459 C483 0.950 . S
H460 C484 0.950 . S
H461 C485 0.951 . S
H462 C487 0.951 . S
H463 C489 0.950 1_556 S
H464 C490 0.950 . S
H465 C492 0.950 . S
H466 C495 0.950 . S
H467 C496 0.950 . S
H468 C498 0.950 . S
H469 C499 0.950 . S
C470 H452 0.951 . S
C470 C471 1.366 . S
C470 C472 1.388 . S
C471 C470 1.366 . S
C471 C475 1.385 . S
C472 H453 0.951 . S
C472 C470 1.388 . S
C472 C473 1.366 . S
C473 C472 1.366 . S
C473 C474 1.414 . S
C473 C476 1.499 . S
C474 H454 0.950 . S
C474 C473 1.414 . S
C474 C475 1.374 . S
C475 H455 0.950 . S
C475 C471 1.385 . S
C475 C474 1.374 . S
C476 C473 1.499 . S
C476 C477 1.373 . S
C476 C478 1.389 . S
C477 H456 0.950 . S
C477 C476 1.373 . S
C477 C493 1.377 . S
C478 C476 1.389 . S
C478 C479 1.524 . S
C478 C492 1.377 . S
C479 C478 1.524 . S
C479 C480 1.397 . S
C479 C484 1.363 . S
C480 H457 0.950 . S
C480 C479 1.397 . S
C480 C481 1.334 . S
C481 H458 0.950 . S
C481 C480 1.334 . S
C481 C482 1.287 . S
C482 C481 1.287 . S
C482 C483 1.524 . S
C482 H501 0.913 . S
C483 H459 0.950 . S
C483 C482 1.524 . S
C483 C484 1.415 . S
C484 H460 0.950 . S
C484 C479 1.363 . S
C484 C483 1.415 . S
C485 H461 0.951 . S
C485 C486 1.366 . S
C485 C487 1.388 . S
C486 C485 1.366 . S
C486 C490 1.385 1_554 S
C487 H462 0.951 . S
C487 C485 1.388 . S
C487 C488 1.366 . S
C488 C487 1.366 . S
C488 C489 1.414 . S
C488 C491 1.499 . S
C489 H463 0.950 1_554 S
C489 C488 1.414 . S
C489 C490 1.374 1_554 S
C490 H464 0.950 . S
C490 C486 1.385 1_556 S
C490 C489 1.374 1_556 S
C491 C488 1.499 . S
C491 C492 1.373 . S
C491 C493 1.389 . S
C492 H465 0.950 . S
C492 C478 1.377 . S
C492 C491 1.373 . S
C493 C477 1.377 . S
C493 C491 1.389 . S
C493 C494 1.524 . S
C494 C493 1.524 . S
C494 C495 1.397 1_554 S
C494 C499 1.363 . S
C495 H466 0.950 . S
C495 C494 1.397 1_556 S
C495 C496 1.334 . S
C496 H467 0.950 . S
C496 C495 1.334 . S
C496 C497 1.287 . S
C497 C496 1.287 . S
C497 C498 1.524 1_556 S
C497 H500 0.999 . S
C498 H468 0.950 . S
C498 C497 1.524 1_554 S
C498 C499 1.415 . S
C499 H469 0.950 . S
C499 C494 1.363 . S
C499 C498 1.415 . S
H500 C497 0.999 . S
H501 C482 0.913 . S
H502 C520 0.951 . S
H503 C522 0.951 . S
H504 C524 0.950 . S
H505 C525 0.950 . S
H506 C527 0.950 . S
H507 C530 0.950 . S
H508 C531 0.950 . S
H509 C533 0.950 . S
H510 C534 0.950 . S
H511 C535 0.951 . S
H512 C537 0.951 . S
H513 C539 0.950 . S
H514 C540 0.950 . S
H515 C542 0.950 . S
H516 C545 0.950 . S
H517 C546 0.950 . S
H518 C548 0.950 . S
H519 C549 0.950 . S
C520 H502 0.951 . S
C520 C521 1.366 . S
C520 C522 1.388 . S
C521 C520 1.366 . S
C521 C525 1.385 . S
C522 H503 0.951 . S
C522 C520 1.388 . S
C522 C523 1.366 . S
C523 C522 1.366 . S
C523 C524 1.414 . S
C523 C526 1.499 . S
C524 H504 0.950 . S
C524 C523 1.414 . S
C524 C525 1.374 . S
C525 H505 0.950 . S
C525 C521 1.385 . S
C525 C524 1.374 . S
C526 C523 1.499 . S
C526 C527 1.373 1_554 S
C526 C528 1.389 . S
C527 H506 0.950 . S
C527 C526 1.373 1_556 S
C527 C543 1.377 . S
C528 C526 1.389 . S
C528 C529 1.524 . S
C528 C542 1.377 . S
C529 C528 1.524 . S
C529 C530 1.397 . S
C529 C534 1.363 . S
C530 H507 0.950 . S
C530 C529 1.397 . S
C530 C531 1.334 . S
C531 H508 0.950 . S
C531 C530 1.334 . S
C531 C532 1.287 . S
C532 C531 1.287 . S
C532 C533 1.524 . S
C532 H551 0.913 . S
C533 H509 0.950 . S
C533 C532 1.524 . S
C533 C534 1.415 . S
C534 H510 0.950 . S
C534 C529 1.363 . S
C534 C533 1.415 . S
C535 H511 0.951 . S
C535 C536 1.366 . S
C535 C537 1.388 . S
C536 C535 1.366 . S
C536 C540 1.385 1_556 S
C537 H512 0.951 . S
C537 C535 1.388 . S
C537 C538 1.366 1_556 S
C538 C537 1.366 1_554 S
C538 C539 1.414 . S
C538 C541 1.499 . S
C539 H513 0.950 . S
C539 C538 1.414 . S
C539 C540 1.374 . S
C540 H514 0.950 . S
C540 C536 1.385 1_554 S
C540 C539 1.374 . S
C541 C538 1.499 . S
C541 C542 1.373 . S
C541 C543 1.389 1_554 S
C542 H515 0.950 . S
C542 C528 1.377 . S
C542 C541 1.373 . S
C543 C527 1.377 . S
C543 C541 1.389 1_556 S
C543 C544 1.524 . S
C544 C543 1.524 . S
C544 C545 1.397 . S
C544 C549 1.363 . S
C545 H516 0.950 . S
C545 C544 1.397 . S
C545 C546 1.334 . S
C546 H517 0.950 . S
C546 C545 1.334 . S
C546 C547 1.287 . S
C547 C546 1.287 . S
C547 C548 1.524 . S
C547 H550 0.999 . S
C548 H518 0.950 . S
C548 C547 1.524 . S
C548 C549 1.415 . S
C549 H519 0.950 . S
C549 C544 1.363 . S
C549 C548 1.415 . S
H550 C547 0.999 . S
H551 C532 0.913 . S
H552 C570 0.951 . S
H553 C572 0.951 . S
H554 C574 0.950 . S
H555 C575 0.950 . S
H556 C577 0.950 . S
H557 C580 0.950 . S
H558 C581 0.950 . S
H559 C583 0.950 . S
H560 C584 0.950 1_556 S
H561 C585 0.951 . S
H562 C587 0.951 . S
H563 C589 0.950 . S
H564 C590 0.950 . S
H565 C592 0.950 . S
H566 C595 0.950 . S
H567 C596 0.950 . S
H568 C598 0.950 . S
H569 C599 0.950 . S
C570 H552 0.951 . S
C570 C571 1.366 1_556 S
C570 C572 1.388 . S
C571 C570 1.366 1_554 S
C571 C575 1.385 . S
C572 H553 0.951 . S
C572 C570 1.388 . S
C572 C573 1.366 . S
C573 C572 1.366 . S
C573 C574 1.414 1_556 S
C573 C576 1.499 . S
C574 H554 0.950 . S
C574 C573 1.414 1_554 S
C574 C575 1.374 . S
C575 H555 0.950 . S
C575 C571 1.385 . S
C575 C574 1.374 . S
C576 C573 1.499 . S
C576 C577 1.373 . S
C576 C578 1.389 . S
C577 H556 0.950 . S
C577 C576 1.373 . S
C577 C593 1.377 . S
C578 C576 1.389 . S
C578 C579 1.524 1_556 S
C578 C592 1.377 . S
C579 C578 1.524 1_554 S
C579 C580 1.397 . S
C579 C584 1.363 . S
C580 H557 0.950 . S
C580 C579 1.397 . S
C580 C581 1.334 . S
C581 H558 0.950 . S
C581 C580 1.334 . S
C581 C582 1.287 . S
C582 C581 1.287 . S
C582 C583 1.524 . S
C582 H601 0.913 . S
C583 H559 0.950 . S
C583 C582 1.524 . S
C583 C584 1.415 . S
C584 H560 0.950 1_554 S
C584 C579 1.363 . S
C584 C583 1.415 . S
C585 H561 0.951 . S
C585 C586 1.366 . S
C585 C587 1.388 . S
C586 C585 1.366 . S
C586 C590 1.385 . S
C587 H562 0.951 . S
C587 C585 1.388 . S
C587 C588 1.366 . S
C588 C587 1.366 . S
C588 C589 1.414 . S
C588 C591 1.499 . S
C589 H563 0.950 . S
C589 C588 1.414 . S
C589 C590 1.374 . S
C590 H564 0.950 . S
C590 C586 1.385 . S
C590 C589 1.374 . S
C591 C588 1.499 . S
C591 C592 1.373 . S
C591 C593 1.389 . S
C592 H565 0.950 . S
C592 C578 1.377 . S
C592 C591 1.373 . S
C593 C577 1.377 . S
C593 C591 1.389 . S
C593 C594 1.524 . S
C594 C593 1.524 . S
C594 C595 1.397 . S
C594 C599 1.363 . S
C595 H566 0.950 . S
C595 C594 1.397 . S
C595 C596 1.334 . S
C596 H567 0.950 . S
C596 C595 1.334 . S
C596 C597 1.287 . S
C597 C596 1.287 . S
C597 C598 1.524 . S
C597 H600 0.999 . S
C598 H568 0.950 . S
C598 C597 1.524 . S
C598 C599 1.415 . S
C599 H569 0.950 . S
C599 C594 1.363 . S
C599 C598 1.415 . S
H600 C597 0.999 . S
H601 C582 0.913 . S
H602 C620 0.951 . S
H603 C622 0.951 . S
H604 C624 0.950 . S
H605 C625 0.950 . S
H606 C627 0.950 . S
H607 C630 0.950 . S
H608 C631 0.950 . S
H609 C633 0.950 . S
H610 C634 0.950 . S
H611 C635 0.951 . S
H612 C637 0.951 . S
H613 C639 0.950 . S
H614 C640 0.950 . S
H615 C642 0.950 . S
H616 C645 0.950 . S
H617 C646 0.950 . S
H618 C648 0.951 . S
H619 C649 0.950 1_554 S
C620 H602 0.951 . S
C620 C621 1.366 . S
C620 C622 1.388 . S
C621 C620 1.366 . S
C621 C625 1.385 . S
C622 H603 0.951 . S
C622 C620 1.388 . S
C622 C623 1.366 . S
C623 C622 1.366 . S
C623 C624 1.414 . S
C623 C626 1.499 . S
C624 H604 0.950 . S
C624 C623 1.414 . S
C624 C625 1.374 . S
C625 H605 0.950 . S
C625 C621 1.385 . S
C625 C624 1.374 . S
C626 C623 1.499 . S
C626 C627 1.373 . S
C626 C628 1.389 . S
C627 H606 0.950 . S
C627 C626 1.373 . S
C627 C643 1.377 . S
C628 C626 1.389 . S
C628 C629 1.524 . S
C628 C642 1.377 . S
C629 C628 1.524 . S
C629 C630 1.397 . S
C629 C634 1.363 . S
C630 H607 0.950 . S
C630 C629 1.397 . S
C630 C631 1.334 . S
C631 H608 0.950 . S
C631 C630 1.334 . S
C631 C632 1.287 . S
C632 C631 1.287 . S
C632 C633 1.524 . S
C632 H651 0.913 . S
C633 H609 0.950 . S
C633 C632 1.524 . S
C633 C634 1.415 . S
C634 H610 0.950 . S
C634 C629 1.363 . S
C634 C633 1.415 . S
C635 H611 0.951 . S
C635 C636 1.366 . S
C635 C637 1.388 . S
C636 C635 1.366 . S
C636 C640 1.385 . S
C637 H612 0.951 . S
C637 C635 1.388 . S
C637 C638 1.366 . S
C638 C637 1.366 . S
C638 C639 1.414 . S
C638 C641 1.499 . S
C639 H613 0.950 . S
C639 C638 1.414 . S
C639 C640 1.374 . S
C640 H614 0.950 . S
C640 C636 1.385 . S
C640 C639 1.374 . S
C641 C638 1.499 . S
C641 C642 1.373 . S
C641 C643 1.389 . S
C642 H615 0.950 . S
C642 C628 1.377 . S
C642 C641 1.373 . S
C643 C627 1.377 . S
C643 C641 1.389 . S
C643 C644 1.524 . S
C644 C643 1.524 . S
C644 C645 1.397 . S
C644 C649 1.363 . S
C645 H616 0.950 . S
C645 C644 1.397 . S
C645 C646 1.334 . S
C646 H617 0.950 . S
C646 C645 1.334 . S
C646 C647 1.287 . S
C647 C646 1.287 . S
C647 C648 1.522 1_556 S
C647 H650 0.999 . S
C648 H618 0.951 . S
C648 C647 1.522 1_554 S
C648 C649 1.415 1_554 S
C649 H619 0.950 1_556 S
C649 C644 1.363 . S
C649 C648 1.415 1_556 S
H650 C647 0.999 . S
H651 C632 0.913 . S
H652 C670 0.951 . S
H653 C672 0.951 . S
H654 C674 0.950 . S
H655 C675 0.950 . S
H656 C677 0.950 . S
H657 C680 0.950 . S
H658 C681 0.950 . S
H659 C683 0.950 . S
H660 C684 0.950 . S
H661 C685 0.951 . S
H662 C687 0.951 . S
H663 C689 0.950 . S
H664 C690 0.950 . S
H665 C692 0.950 . S
H666 C695 0.950 . S
H667 C696 0.950 . S
H668 C698 0.950 . S
H669 C699 0.950 . S
C670 H652 0.951 . S
C670 C671 1.366 . S
C670 C672 1.388 . S
C671 C670 1.366 . S
C671 C675 1.385 . S
C672 H653 0.951 . S
C672 C670 1.388 . S
C672 C673 1.366 . S
C673 C672 1.366 . S
C673 C674 1.414 . S
C673 C676 1.499 . S
C674 H654 0.950 . S
C674 C673 1.414 . S
C674 C675 1.374 . S
C675 H655 0.950 . S
C675 C671 1.385 . S
C675 C674 1.374 . S
C676 C673 1.499 . S
C676 C677 1.373 . S
C676 C678 1.389 1_556 S
C677 H656 0.950 . S
C677 C676 1.373 . S
C677 C693 1.377 . S
C678 C676 1.389 1_554 S
C678 C679 1.524 . S
C678 C692 1.377 . S
C679 C678 1.524 . S
C679 C680 1.397 . S
C679 C684 1.363 . S
C680 H657 0.950 . S
C680 C679 1.397 . S
C680 C681 1.334 . S
C681 H658 0.950 . S
C681 C680 1.334 . S
C681 C682 1.287 . S
C682 C681 1.287 . S
C682 C683 1.524 . S
C682 H701 0.913 . S
C683 H659 0.950 . S
C683 C682 1.524 . S
C683 C684 1.415 . S
C684 H660 0.950 . S
C684 C679 1.363 . S
C684 C683 1.415 . S
C685 H661 0.951 . S
C685 C686 1.366 . S
C685 C687 1.388 . S
C686 C685 1.366 . S
C686 C690 1.385 . S
C687 H662 0.951 . S
C687 C685 1.388 . S
C687 C688 1.366 . S
C688 C687 1.366 . S
C688 C689 1.414 . S
C688 C691 1.499 . S
C689 H663 0.950 . S
C689 C688 1.414 . S
C689 C690 1.374 . S
C690 H664 0.950 . S
C690 C686 1.385 . S
C690 C689 1.374 . S
C691 C688 1.499 . S
C691 C692 1.373 . S
C691 C693 1.389 1_554 S
C692 H665 0.950 . S
C692 C678 1.377 . S
C692 C691 1.373 . S
C693 C677 1.377 . S
C693 C691 1.389 1_556 S
C693 C694 1.524 . S
C694 C693 1.524 . S
C694 C695 1.397 . S
C694 C699 1.363 . S
C695 H666 0.950 . S
C695 C694 1.397 . S
C695 C696 1.334 . S
C696 H667 0.950 . S
C696 C695 1.334 . S
C696 C697 1.287 . S
C697 C696 1.287 . S
C697 C698 1.524 . S
C697 H700 0.999 . S
C698 H668 0.950 . S
C698 C697 1.524 . S
C698 C699 1.415 . S
C699 H669 0.950 . S
C699 C694 1.363 . S
C699 C698 1.415 . S
H700 C697 0.999 . S
H701 C682 0.913 . S
H702 C720 0.951 . S
H703 C722 0.951 . S
H704 C724 0.950 . S
H705 C725 0.950 . S
H706 C727 0.950 . S
H707 C730 0.950 . S
H708 C731 0.950 . S
H709 C733 0.950 1_554 S
H710 C734 0.950 1_554 S
H711 C735 0.951 . S
H712 C737 0.951 . S
H713 C739 0.950 1_554 S
H714 C740 0.950 . S
H715 C742 0.950 . S
H716 C745 0.950 1_554 S
H717 C746 0.950 1_554 S
H718 C748 0.950 . S
H719 C749 0.950 . S
C720 H702 0.951 . S
C720 C721 1.366 1_554 S
C720 C722 1.388 . S
C721 C720 1.366 1_556 S
C721 C725 1.385 . S
C722 H703 0.951 . S
C722 C720 1.388 . S
C722 C723 1.366 1_554 S
C723 C722 1.366 1_556 S
C723 C724 1.414 . S
C723 C726 1.499 . S
C724 H704 0.950 . S
C724 C723 1.414 . S
C724 C725 1.374 . S
C725 H705 0.950 . S
C725 C721 1.385 . S
C725 C724 1.374 . S
C726 C723 1.499 . S
C726 C727 1.373 . S
C726 C728 1.389 . S
C727 H706 0.950 . S
C727 C726 1.373 . S
C727 C743 1.377 . S
C728 C726 1.389 . S
C728 C729 1.524 . S
C728 C742 1.377 . S
C729 C728 1.524 . S
C729 C730 1.397 . S
C729 C734 1.363 . S
C730 H707 0.950 . S
C730 C729 1.397 . S
C730 C731 1.334 . S
C731 H708 0.950 . S
C731 C730 1.334 . S
C731 C732 1.287 . S
C732 C731 1.287 . S
C732 C733 1.524 . S
C732 H751 0.913 . S
C733 H709 0.950 1_556 S
C733 C732 1.524 . S
C733 C734 1.415 . S
C734 H710 0.950 1_556 S
C734 C729 1.363 . S
C734 C733 1.415 . S
C735 H711 0.951 . S
C735 C736 1.366 . S
C735 C737 1.388 . S
C736 C735 1.366 . S
C736 C740 1.385 . S
C737 H712 0.951 . S
C737 C735 1.388 . S
C737 C738 1.366 . S
C738 C737 1.366 . S
C738 C739 1.414 . S
C738 C741 1.499 . S
C739 H713 0.950 1_556 S
C739 C738 1.414 . S
C739 C740 1.374 . S
C740 H714 0.950 . S
C740 C736 1.385 . S
C740 C739 1.374 . S
C741 C738 1.499 . S
C741 C742 1.373 . S
C741 C743 1.389 . S
C742 H715 0.950 . S
C742 C728 1.377 . S
C742 C741 1.373 . S
C743 C727 1.377 . S
C743 C741 1.389 . S
C743 C744 1.524 . S
C744 C743 1.524 . S
C744 C745 1.397 . S
C744 C749 1.363 . S
C745 H716 0.950 1_556 S
C745 C744 1.397 . S
C745 C746 1.334 . S
C746 H717 0.950 1_556 S
C746 C745 1.334 . S
C746 C747 1.287 . S
C747 C746 1.287 . S
C747 C748 1.524 . S
C747 H750 0.999 . S
C748 H718 0.950 . S
C748 C747 1.524 . S
C748 C749 1.415 . S
C749 H719 0.950 . S
C749 C744 1.363 . S
C749 C748 1.415 . S
H750 C747 0.999 . S
H751 C732 0.913 . S
H752 C770 0.951 . S
H753 C772 0.951 . S
H754 C774 0.950 . S
H755 C775 0.950 1_556 S
H756 C777 0.950 . S
H757 C780 0.950 . S
H758 C781 0.950 . S
H759 C783 0.950 . S
H760 C784 0.950 . S
H761 C785 0.951 . S
H762 C787 0.951 . S
H763 C789 0.950 . S
H764 C790 0.950 . S
H765 C792 0.950 1_556 S
H766 C795 0.950 . S
H767 C796 0.950 . S
H768 C798 0.950 . S
H769 C799 0.950 . S
C770 H752 0.951 . S
C770 C771 1.366 . S
C770 C772 1.388 . S
C771 C770 1.366 . S
C771 C775 1.385 . S
C772 H753 0.951 . S
C772 C770 1.388 . S
C772 C773 1.366 . S
C773 C772 1.366 . S
C773 C774 1.414 1_554 S
C773 C776 1.499 . S
C774 H754 0.950 . S
C774 C773 1.414 1_556 S
C774 C775 1.374 1_556 S
C775 H755 0.950 1_554 S
C775 C771 1.385 . S
C775 C774 1.374 1_554 S
C776 C773 1.499 . S
C776 C777 1.373 . S
C776 C778 1.389 . S
C777 H756 0.950 . S
C777 C776 1.373 . S
C777 C793 1.377 . S
C778 C776 1.389 . S
C778 C779 1.524 . S
C778 C792 1.377 . S
C779 C778 1.524 . S
C779 C780 1.397 1_554 S
C779 C784 1.363 . S
C780 H757 0.950 . S
C780 C779 1.397 1_556 S
C780 C781 1.334 . S
C781 H758 0.950 . S
C781 C780 1.334 . S
C781 C782 1.287 . S
C782 C781 1.287 . S
C782 C783 1.524 1_556 S
C782 H801 0.913 . S
C783 H759 0.950 . S
C783 C782 1.524 1_554 S
C783 C784 1.415 . S
C784 H760 0.950 . S
C784 C779 1.363 . S
C784 C783 1.415 . S
C785 H761 0.951 . S
C785 C786 1.366 . S
C785 C787 1.388 . S
C786 C785 1.366 . S
C786 C790 1.385 1_556 S
C787 H762 0.951 . S
C787 C785 1.388 . S
C787 C788 1.366 . S
C788 C787 1.366 . S
C788 C789 1.414 1_556 S
C788 C791 1.499 . S
C789 H763 0.950 . S
C789 C788 1.414 1_554 S
C789 C790 1.374 . S
C790 H764 0.950 . S
C790 C786 1.385 1_554 S
C790 C789 1.374 . S
C791 C788 1.499 . S
C791 C792 1.373 1_556 S
C791 C793 1.389 1_556 S
C792 H765 0.950 1_554 S
C792 C778 1.377 . S
C792 C791 1.373 1_554 S
C793 C777 1.377 . S
C793 C791 1.389 1_554 S
C793 C794 1.524 . S
C794 C793 1.524 . S
C794 C795 1.397 . S
C794 C799 1.363 1_554 S
C795 H766 0.950 . S
C795 C794 1.397 . S
C795 C796 1.334 . S
C796 H767 0.950 . S
C796 C795 1.334 . S
C796 C797 1.287 . S
C797 C796 1.287 . S
C797 C798 1.524 1_554 S
C797 H800 0.999 . S
C798 H768 0.950 . S
C798 C797 1.524 1_556 S
C798 C799 1.415 . S
C799 H769 0.950 . S
C799 C794 1.363 1_556 S
C799 C798 1.415 . S
H800 C797 0.999 . S
H801 C782 0.913 . S
H802 C820 0.951 . S
H803 C822 0.951 . S
H804 C824 0.950 . S
H805 C825 0.950 . S
H806 C827 0.950 . S
H807 C830 0.950 . S
H808 C831 0.950 . S
H809 C833 0.950 . S
H810 C834 0.950 . S
H811 C835 0.951 . S
H812 C837 0.951 . S
H813 C839 0.950 . S
H814 C840 0.950 . S
H815 C842 0.950 . S
H816 C845 0.950 . S
H817 C846 0.950 . S
H818 C848 0.950 . S
H819 C849 0.950 . S
C820 H802 0.951 . S
C820 C821 1.366 . S
C820 C822 1.388 . S
C821 C820 1.366 . S
C821 C825 1.385 1_554 S
C822 H803 0.951 . S
C822 C820 1.388 . S
C822 C823 1.366 . S
C823 C822 1.366 . S
C823 C824 1.414 1_554 S
C823 C826 1.499 . S
C824 H804 0.950 . S
C824 C823 1.414 1_556 S
C824 C825 1.374 . S
C825 H805 0.950 . S
C825 C821 1.385 1_556 S
C825 C824 1.374 . S
C826 C823 1.499 . S
C826 C827 1.373 1_554 S
C826 C828 1.389 . S
C827 H806 0.950 . S
C827 C826 1.373 1_556 S
C827 C843 1.377 . S
C828 C826 1.389 . S
C828 C829 1.524 . S
C828 C842 1.377 . S
C829 C828 1.524 . S
C829 C830 1.397 . S
C829 C834 1.363 . S
C830 H807 0.950 . S
C830 C829 1.397 . S
C830 C831 1.334 . S
C831 H808 0.950 . S
C831 C830 1.334 . S
C831 C832 1.287 . S
C832 C831 1.287 . S
C832 C833 1.524 . S
C832 H851 0.913 . S
C833 H809 0.950 . S
C833 C832 1.524 . S
C833 C834 1.415 . S
C834 H810 0.950 . S
C834 C829 1.363 . S
C834 C833 1.415 . S
C835 H811 0.951 . S
C835 C836 1.366 . S
C835 C837 1.388 . S
C836 C835 1.366 . S
C836 C840 1.385 1_556 S
C837 H812 0.951 . S
C837 C835 1.388 . S
C837 C838 1.366 . S
C838 C837 1.366 . S
C838 C839 1.414 1_556 S
C838 C841 1.499 . S
C839 H813 0.950 . S
C839 C838 1.414 1_554 S
C839 C840 1.374 . S
C840 H814 0.950 . S
C840 C836 1.385 1_554 S
C840 C839 1.374 . S
C841 C838 1.499 . S
C841 C842 1.373 1_556 S
C841 C843 1.389 . S
C842 H815 0.950 . S
C842 C828 1.377 . S
C842 C841 1.373 1_554 S
C843 C827 1.377 . S
C843 C841 1.389 . S
C843 C844 1.524 . S
C844 C843 1.524 . S
C844 C845 1.397 . S
C844 C849 1.363 . S
C845 H816 0.950 . S
C845 C844 1.397 . S
C845 C846 1.334 . S
C846 H817 0.950 . S
C846 C845 1.334 . S
C846 C847 1.287 . S
C847 C846 1.287 . S
C847 C848 1.524 . S
C847 H850 0.999 . S
C848 H818 0.950 . S
C848 C847 1.524 . S
C848 C849 1.415 . S
C849 H819 0.950 . S
C849 C844 1.363 . S
C849 C848 1.415 . S
H850 C847 0.999 . S
H851 C832 0.913 . S
H852 C870 0.951 . S
H853 C872 0.951 . S
H854 C874 0.950 . S
H855 C875 0.950 . S
H856 C877 0.950 . S
H857 C880 0.950 . S
H858 C881 0.950 . S
H859 C883 0.950 . S
H860 C884 0.950 . S
H861 C885 0.951 . S
H862 C887 0.951 . S
H863 C889 0.950 . S
H864 C890 0.950 . S
H865 C892 0.950 . S
H866 C895 0.950 . S
H867 C896 0.950 . S
H868 C898 0.950 . S
H869 C899 0.950 . S
C870 H852 0.951 . S
C870 C871 1.366 . S
C870 C872 1.388 . S
C871 C870 1.366 . S
C871 C875 1.385 . S
C872 H853 0.951 . S
C872 C870 1.388 . S
C872 C873 1.366 . S
C873 C872 1.366 . S
C873 C874 1.414 . S
C873 C876 1.499 1_655 S
C874 H854 0.950 . S
C874 C873 1.414 . S
C874 C875 1.374 . S
C875 H855 0.950 . S
C875 C871 1.385 . S
C875 C874 1.374 . S
C876 C873 1.499 1_455 S
C876 C877 1.373 . S
C876 C878 1.389 . S
C877 H856 0.950 . S
C877 C876 1.373 . S
C877 C893 1.377 . S
C878 C876 1.389 . S
C878 C879 1.524 1_455 S
C878 C892 1.377 . S
C879 C878 1.524 1_655 S
C879 C880 1.397 . S
C879 C884 1.363 . S
C880 H857 0.950 . S
C880 C879 1.397 . S
C880 C881 1.334 . S
C881 H858 0.950 . S
C881 C880 1.334 . S
C881 C882 1.287 . S
C882 C881 1.287 . S
C882 C883 1.524 . S
C882 H901 0.913 . S
C883 H859 0.950 . S
C883 C882 1.524 . S
C883 C884 1.415 . S
C884 H860 0.950 . S
C884 C879 1.363 . S
C884 C883 1.415 . S
C885 H861 0.951 . S
C885 C886 1.366 . S
C885 C887 1.388 . S
C886 C885 1.366 . S
C886 C890 1.385 . S
C887 H862 0.951 . S
C887 C885 1.388 . S
C887 C888 1.366 . S
C888 C887 1.366 . S
C888 C889 1.414 . S
C888 C891 1.499 . S
C889 H863 0.950 . S
C889 C888 1.414 . S
C889 C890 1.374 . S
C890 H864 0.950 . S
C890 C886 1.385 . S
C890 C889 1.374 . S
C891 C888 1.499 . S
C891 C892 1.373 . S
C891 C893 1.389 . S
C892 H865 0.950 . S
C892 C878 1.377 . S
C892 C891 1.373 . S
C893 C877 1.377 . S
C893 C891 1.389 . S
C893 C894 1.524 . S
C894 C893 1.524 . S
C894 C895 1.397 . S
C894 C899 1.363 . S
C895 H866 0.950 . S
C895 C894 1.397 . S
C895 C896 1.334 1_556 S
C896 H867 0.950 . S
C896 C895 1.334 1_554 S
C896 C897 1.287 . S
C897 C896 1.287 . S
C897 C898 1.524 . S
C897 H900 0.999 . S
C898 H868 0.950 . S
C898 C897 1.524 . S
C898 C899 1.415 1_554 S
C899 H869 0.950 . S
C899 C894 1.363 . S
C899 C898 1.415 1_556 S
H900 C897 0.999 . S
H901 C882 0.913 . S
H902 C920 0.951 . S
H903 C922 0.951 . S
H904 C924 0.950 . S
H905 C925 0.950 . S
H906 C927 0.950 . S
H907 C930 0.950 . S
H908 C931 0.950 . S
H909 C933 0.950 . S
H910 C934 0.950 . S
H911 C935 0.951 . S
H912 C937 0.951 . S
H913 C939 0.950 . S
H914 C940 0.950 . S
H915 C942 0.950 . S
H916 C945 0.950 . S
H917 C946 0.950 . S
H918 C948 0.950 . S
H919 C949 0.950 . S
C920 H902 0.951 . S
C920 C921 1.366 . S
C920 C922 1.388 . S
C921 C920 1.366 . S
C921 C925 1.385 . S
C922 H903 0.951 . S
C922 C920 1.388 . S
C922 C923 1.366 . S
C923 C922 1.366 . S
C923 C924 1.414 . S
C923 C926 1.499 . S
C924 H904 0.950 . S
C924 C923 1.414 . S
C924 C925 1.374 . S
C925 H905 0.950 . S
C925 C921 1.385 . S
C925 C924 1.374 . S
C926 C923 1.499 . S
C926 C927 1.373 . S
C926 C928 1.389 . S
C927 H906 0.950 . S
C927 C926 1.373 . S
C927 C943 1.377 . S
C928 C926 1.389 . S
C928 C929 1.524 . S
C928 C942 1.377 . S
C929 C928 1.524 . S
C929 C930 1.397 . S
C929 C934 1.363 . S
C930 H907 0.950 . S
C930 C929 1.397 . S
C930 C931 1.334 . S
C931 H908 0.950 . S
C931 C930 1.334 . S
C931 C932 1.287 . S
C932 C931 1.287 . S
C932 C933 1.524 . S
C932 H951 0.913 . S
C933 H909 0.950 . S
C933 C932 1.524 . S
C933 C934 1.415 . S
C934 H910 0.950 . S
C934 C929 1.363 . S
C934 C933 1.415 . S
C935 H911 0.951 . S
C935 C936 1.366 . S
C935 C937 1.388 . S
C936 C935 1.366 . S
C936 C940 1.385 . S
C937 H912 0.951 . S
C937 C935 1.388 . S
C937 C938 1.366 . S
C938 C937 1.366 . S
C938 C939 1.414 . S
C938 C941 1.499 . S
C939 H913 0.950 . S
C939 C938 1.414 . S
C939 C940 1.374 . S
C940 H914 0.950 . S
C940 C936 1.385 . S
C940 C939 1.374 . S
C941 C938 1.499 . S
C941 C942 1.373 . S
C941 C943 1.389 . S
C942 H915 0.950 . S
C942 C928 1.377 . S
C942 C941 1.373 . S
C943 C927 1.377 . S
C943 C941 1.389 . S
C943 C944 1.524 . S
C944 C943 1.524 . S
C944 C945 1.397 . S
C944 C949 1.363 . S
C945 H916 0.950 . S
C945 C944 1.397 . S
C945 C946 1.334 . S
C946 H917 0.950 . S
C946 C945 1.334 . S
C946 C947 1.287 1_556 S
C947 C946 1.287 1_554 S
C947 C948 1.524 . S
C947 H950 0.999 . S
C948 H918 0.950 . S
C948 C947 1.524 . S
C948 C949 1.415 1_554 S
C949 H919 0.950 . S
C949 C944 1.363 . S
C949 C948 1.415 1_556 S
H950 C947 0.999 . S
H951 C932 0.913 . S
H952 C970 0.951 . S
H953 C972 0.951 . S
H954 C974 0.950 . S
H955 C975 0.950 . S
H956 C977 0.950 . S
H957 C980 0.950 . S
H958 C981 0.950 . S
H959 C983 0.950 . S
H960 C984 0.950 . S
H961 C985 0.951 . S
H962 C987 0.951 . S
H963 C989 0.950 1_545 S
H964 C990 0.950 . S
H965 C992 0.950 . S
H966 C995 0.950 . S
H967 C996 0.950 . S
H968 C998 0.950 . S
H969 C999 0.950 . S
C970 H952 0.951 . S
C970 C971 1.366 . S
C970 C972 1.388 . S
C971 C970 1.366 . S
C971 C975 1.385 . S
C972 H953 0.951 . S
C972 C970 1.388 . S
C972 C973 1.366 . S
C973 C972 1.366 . S
C973 C974 1.414 . S
C973 C976 1.499 . S
C974 H954 0.950 . S
C974 C973 1.414 . S
C974 C975 1.374 . S
C975 H955 0.950 . S
C975 C971 1.385 . S
C975 C974 1.374 . S
C976 C973 1.499 . S
C976 C977 1.373 . S
C976 C978 1.389 . S
C977 H956 0.950 . S
C977 C976 1.373 . S
C977 C993 1.377 . S
C978 C976 1.389 . S
C978 C979 1.524 . S
C978 C992 1.377 . S
C979 C978 1.524 . S
C979 C980 1.397 . S
C979 C984 1.363 . S
C980 H957 0.950 . S
C980 C979 1.397 . S
C980 C981 1.334 . S
C981 H958 0.950 . S
C981 C980 1.334 . S
C981 C982 1.287 . S
C982 C981 1.287 . S
C982 C983 1.524 . S
C982 H1001 0.913 1_554 S
C983 H959 0.950 . S
C983 C982 1.524 . S
C983 C984 1.415 . S
C984 H960 0.950 . S
C984 C979 1.363 . S
C984 C983 1.415 . S
C985 H961 0.951 . S
C985 C986 1.366 . S
C985 C987 1.388 . S
C986 C985 1.366 . S
C986 C990 1.385 . S
C987 H962 0.951 . S
C987 C985 1.388 . S
C987 C988 1.366 . S
C988 C987 1.366 . S
C988 C989 1.414 . S
C988 C991 1.499 1_565 S
C989 H963 0.950 1_565 S
C989 C988 1.414 . S
C989 C990 1.374 . S
C990 H964 0.950 . S
C990 C986 1.385 . S
C990 C989 1.374 . S
C991 C988 1.499 1_545 S
C991 C992 1.373 . S
C991 C993 1.389 . S
C992 H965 0.950 . S
C992 C978 1.377 . S
C992 C991 1.373 . S
C993 C977 1.377 . S
C993 C991 1.389 . S
C993 C994 1.524 1_545 S
C994 C993 1.524 1_565 S
C994 C995 1.397 . S
C994 C999 1.363 . S
C995 H966 0.950 . S
C995 C994 1.397 . S
C995 C996 1.334 . S
C996 H967 0.950 . S
C996 C995 1.334 . S
C996 C997 1.287 . S
C997 C996 1.287 . S
C997 C998 1.524 . S
C997 H1000 0.999 . S
C998 H968 0.950 . S
C998 C997 1.524 . S
C998 C999 1.415 . S
C999 H969 0.950 . S
C999 C994 1.363 . S
C999 C998 1.415 . S
H1000 C997 0.999 . S
H1001 C982 0.913 1_556 S
H1002 C1020 0.951 . S
H1003 C1022 0.951 . S
H1004 C1024 0.950 . S
H1005 C1025 0.950 . S
H1006 C1027 0.950 1_564 S
H1007 C1030 0.961 . S
H1008 C1031 0.950 . S
H1009 C1033 0.950 . S
H1010 C1034 0.950 . S
H1011 C1035 0.951 . S
H1012 C1037 0.951 . S
H1013 C1039 0.950 . S
H1014 C1040 0.950 . S
H1015 C1042 0.950 . S
H1016 C1045 0.950 . S
H1017 C1046 0.950 . S
H1018 C1048 0.950 . S
H1019 C1049 0.956 1_556 S
C1020 H1002 0.951 . S
C1020 C1021 1.366 1_554 S
C1020 C1022 1.388 1_554 S
C1021 C1020 1.366 1_556 S
C1021 C1025 1.385 . S
C1022 H1003 0.951 . S
C1022 C1020 1.388 1_556 S
C1022 C1023 1.366 . S
C1023 C1022 1.366 . S
C1023 C1024 1.414 . S
C1023 C1026 1.499 1_565 S
C1024 H1004 0.950 . S
C1024 C1023 1.414 . S
C1024 C1025 1.374 . S
C1025 H1005 0.950 . S
C1025 C1021 1.385 . S
C1025 C1024 1.374 . S
C1026 C1023 1.499 1_545 S
C1026 C1027 1.373 . S
C1026 C1028 1.389 . S
C1027 H1006 0.950 1_546 S
C1027 C1026 1.373 . S
C1027 C1043 1.377 . S
C1028 C1026 1.389 . S
C1028 C1029 1.524 . S
C1028 C1042 1.377 . S
C1029 C1028 1.524 . S
C1029 C1030 1.389 1_545 S
C1029 C1034 1.363 . S
C1030 H1007 0.961 . S
C1030 C1029 1.389 1_565 S
C1030 C1031 1.330 . S
C1031 H1008 0.950 . S
C1031 C1030 1.330 . S
C1031 C1032 1.287 1_565 S
C1032 C1031 1.287 1_545 S
C1032 C1033 1.524 . S
C1032 H1051 0.913 . S
C1033 H1009 0.950 . S
C1033 C1032 1.524 . S
C1033 C1034 1.415 . S
C1034 H1010 0.950 . S
C1034 C1029 1.363 . S
C1034 C1033 1.415 . S
C1035 H1011 0.951 . S
C1035 C1036 1.366 . S
C1035 C1037 1.388 . S
C1036 C1035 1.366 . S
C1036 C1040 1.385 . S
C1037 H1012 0.951 . S
C1037 C1035 1.388 . S
C1037 C1038 1.366 . S
C1038 C1037 1.366 . S
C1038 C1039 1.414 . S
C1038 C1041 1.499 . S
C1039 H1013 0.950 . S
C1039 C1038 1.414 . S
C1039 C1040 1.374 . S
C1040 H1014 0.950 . S
C1040 C1036 1.385 . S
C1040 C1039 1.374 . S
C1041 C1038 1.499 . S
C1041 C1042 1.373 . S
C1041 C1043 1.389 . S
C1042 H1015 0.950 . S
C1042 C1028 1.377 . S
C1042 C1041 1.373 . S
C1043 C1027 1.377 . S
C1043 C1041 1.389 . S
C1043 C1044 1.524 1_556 S
C1044 C1043 1.524 1_554 S
C1044 C1045 1.397 . S
C1044 C1049 1.363 . S
C1045 H1016 0.950 . S
C1045 C1044 1.397 . S
C1045 C1046 1.334 . S
C1046 H1017 0.950 . S
C1046 C1045 1.334 . S
C1046 C1047 1.287 . S
C1047 C1046 1.287 . S
C1047 C1048 1.524 . S
C1047 H1050 0.999 . S
C1048 H1018 0.950 . S
C1048 C1047 1.524 . S
C1048 C1049 1.415 . S
C1049 H1019 0.956 1_554 S
C1049 C1044 1.363 . S
C1049 C1048 1.415 . S
H1050 C1047 0.999 . S
H1051 C1032 0.913 . S
H1052 C1070 0.951 . S
H1053 C1072 0.951 . S
H1054 C1074 0.950 . S
H1055 C1075 0.950 . S
H1056 C1077 0.950 . S
H1057 C1080 0.950 . S
H1058 C1081 0.950 1_554 S
H1059 C1083 0.950 . S
H1060 C1084 0.950 . S
H1061 C1085 0.951 . S
H1062 C1087 0.951 . S
H1063 C1089 0.950 . S
H1064 C1090 0.950 1_556 S
H1065 C1092 0.950 1_556 S
H1066 C1095 0.950 . S
H1067 C1096 0.950 . S
H1068 C1098 0.950 . S
H1069 C1099 0.950 . S
C1070 H1052 0.951 . S
C1070 C1071 1.366 . S
C1070 C1072 1.388 . S
C1071 C1070 1.366 . S
C1071 C1075 1.385 1_556 S
C1072 H1053 0.951 . S
C1072 C1070 1.388 . S
C1072 C1073 1.366 1_556 S
C1073 C1072 1.366 1_554 S
C1073 C1074 1.414 . S
C1073 C1076 1.499 1_655 S
C1074 H1054 0.950 . S
C1074 C1073 1.414 . S
C1074 C1075 1.374 . S
C1075 H1055 0.950 . S
C1075 C1071 1.385 1_554 S
C1075 C1074 1.374 . S
C1076 C1073 1.499 1_455 S
C1076 C1077 1.373 . S
C1076 C1078 1.387 1_554 S
C1077 H1056 0.950 . S
C1077 C1076 1.373 . S
C1077 C1093 1.377 . S
C1078 C1076 1.387 1_556 S
C1078 C1079 1.528 . S
C1078 C1092 1.375 1_556 S
C1079 C1078 1.528 . S
C1079 C1080 1.397 1_456 S
C1079 C1084 1.363 . S
C1080 H1057 0.950 . S
C1080 C1079 1.397 1_654 S
C1080 C1081 1.334 1_554 S
C1081 H1058 0.950 1_556 S
C1081 C1080 1.334 1_556 S
C1081 C1082 1.287 . S
C1082 C1081 1.287 . S
C1082 C1083 1.524 . S
C1082 H1101 0.913 . S
C1083 H1059 0.950 . S
C1083 C1082 1.524 . S
C1083 C1084 1.415 1_655 S
C1084 H1060 0.950 . S
C1084 C1079 1.363 . S
C1084 C1083 1.415 1_455 S
C1085 H1061 0.951 . S
C1085 C1086 1.366 . S
C1085 C1087 1.388 . S
C1086 C1085 1.366 . S
C1086 C1090 1.385 . S
C1087 H1062 0.951 . S
C1087 C1085 1.388 . S
C1087 C1088 1.366 . S
C1088 C1087 1.366 . S
C1088 C1089 1.414 1_554 S
C1088 C1091 1.499 . S
C1089 H1063 0.950 . S
C1089 C1088 1.414 1_556 S
C1089 C1090 1.374 1_556 S
C1090 H1064 0.950 1_554 S
C1090 C1086 1.385 . S
C1090 C1089 1.374 1_554 S
C1091 C1088 1.499 . S
C1091 C1092 1.373 . S
C1091 C1093 1.389 . S
C1092 H1065 0.950 1_554 S
C1092 C1078 1.375 1_554 S
C1092 C1091 1.373 . S
C1093 C1077 1.377 . S
C1093 C1091 1.389 . S
C1093 C1094 1.524 . S
C1094 C1093 1.524 . S
C1094 C1095 1.397 . S
C1094 C1099 1.363 . S
C1095 H1066 0.950 . S
C1095 C1094 1.397 . S
C1095 C1096 1.334 . S
C1096 H1067 0.950 . S
C1096 C1095 1.334 . S
C1096 C1097 1.287 . S
C1097 C1096 1.287 . S
C1097 C1098 1.524 . S
C1097 H1100 0.999 . S
C1098 H1068 0.950 . S
C1098 C1097 1.524 . S
C1098 C1099 1.415 . S
C1099 H1069 0.950 . S
C1099 C1094 1.363 . S
C1099 C1098 1.415 . S
H1100 C1097 0.999 . S
H1101 C1082 0.913 . S
H1102 C1120 0.951 . S
H1103 C1122 0.951 . S
H1104 C1124 0.950 . S
H1105 C1125 0.950 . S
H1106 C1127 0.950 . S
H1107 C1130 0.950 . S
H1108 C1131 0.950 . S
H1109 C1133 0.950 . S
H1110 C1134 0.950 . S
H1111 C1135 0.951 . S
H1112 C1137 0.951 . S
H1113 C1139 0.950 1_556 S
H1114 C1140 0.950 . S
H1115 C1142 0.950 . S
H1116 C1145 0.950 . S
H1117 C1146 0.950 . S
H1118 C1148 0.950 . S
H1119 C1149 0.950 . S
C1120 H1102 0.951 . S
C1120 C1121 1.366 1_556 S
C1120 C1122 1.388 . S
C1121 C1120 1.366 1_554 S
C1121 C1125 1.385 . S
C1122 H1103 0.951 . S
C1122 C1120 1.388 . S
C1122 C1123 1.366 1_556 S
C1123 C1122 1.366 1_554 S
C1123 C1124 1.414 . S
C1123 C1126 1.499 . S
C1124 H1104 0.950 . S
C1124 C1123 1.414 . S
C1124 C1125 1.374 . S
C1125 H1105 0.950 . S
C1125 C1121 1.385 . S
C1125 C1124 1.374 . S
C1126 C1123 1.499 . S
C1126 C1127 1.373 . S
C1126 C1128 1.389 . S
C1127 H1106 0.950 . S
C1127 C1126 1.373 . S
C1127 C1143 1.377 . S
C1128 C1126 1.389 . S
C1128 C1129 1.524 . S
C1128 C1142 1.377 . S
C1129 C1128 1.524 . S
C1129 C1130 1.397 . S
C1129 C1134 1.363 . S
C1130 H1107 0.950 . S
C1130 C1129 1.397 . S
C1130 C1131 1.334 . S
C1131 H1108 0.950 . S
C1131 C1130 1.334 . S
C1131 C1132 1.287 . S
C1132 C1131 1.287 . S
C1132 C1133 1.524 . S
C1132 H1151 0.913 . S
C1133 H1109 0.950 . S
C1133 C1132 1.524 . S
C1133 C1134 1.415 . S
C1134 H1110 0.950 . S
C1134 C1129 1.363 . S
C1134 C1133 1.415 . S
C1135 H1111 0.951 . S
C1135 C1136 1.366 . S
C1135 C1137 1.388 . S
C1136 C1135 1.366 . S
C1136 C1140 1.385 . S
C1137 H1112 0.951 . S
C1137 C1135 1.388 . S
C1137 C1138 1.366 . S
C1138 C1137 1.366 . S
C1138 C1139 1.414 . S
C1138 C1141 1.499 . S
C1139 H1113 0.950 1_554 S
C1139 C1138 1.414 . S
C1139 C1140 1.374 . S
C1140 H1114 0.950 . S
C1140 C1136 1.385 . S
C1140 C1139 1.374 . S
C1141 C1138 1.499 . S
C1141 C1142 1.373 . S
C1141 C1143 1.389 . S
C1142 H1115 0.950 . S
C1142 C1128 1.377 . S
C1142 C1141 1.373 . S
C1143 C1127 1.377 . S
C1143 C1141 1.389 . S
C1143 C1144 1.524 . S
C1144 C1143 1.524 . S
C1144 C1145 1.397 1_554 S
C1144 C1149 1.363 . S
C1145 H1116 0.950 . S
C1145 C1144 1.397 1_556 S
C1145 C1146 1.334 . S
C1146 H1117 0.950 . S
C1146 C1145 1.334 . S
C1146 C1147 1.287 . S
C1147 C1146 1.287 . S
C1147 C1148 1.524 1_556 S
C1147 H1150 0.999 . S
C1148 H1118 0.950 . S
C1148 C1147 1.524 1_554 S
C1148 C1149 1.415 . S
C1149 H1119 0.950 . S
C1149 C1144 1.363 . S
C1149 C1148 1.415 . S
H1150 C1147 0.999 . S
H1151 C1132 0.913 . S
H1152 C1170 0.951 . S
H1153 C1172 0.951 . S
H1154 C1174 0.950 . S
H1155 C1175 0.950 . S
H1156 C1177 0.950 . S
H1157 C1180 0.950 1_554 S
H1158 C1181 0.950 . S
H1159 C1183 0.950 . S
H1160 C1184 0.950 . S
H1161 C1185 0.951 . S
H1162 C1187 0.951 . S
H1163 C1189 0.950 . S
H1164 C1190 0.950 . S
H1165 C1192 0.949 1_556 S
H1166 C1195 0.950 . S
H1167 C1196 0.950 . S
H1168 C1198 0.950 . S
H1169 C1199 0.950 . S
C1170 H1152 0.951 . S
C1170 C1171 1.366 1_556 S
C1170 C1172 1.388 . S
C1171 C1170 1.366 1_554 S
C1171 C1175 1.385 . S
C1172 H1153 0.951 . S
C1172 C1170 1.388 . S
C1172 C1173 1.366 1_556 S
C1173 C1172 1.366 1_554 S
C1173 C1174 1.414 . S
C1173 C1176 1.499 . S
C1174 H1154 0.950 . S
C1174 C1173 1.414 . S
C1174 C1175 1.374 . S
C1175 H1155 0.950 . S
C1175 C1171 1.385 . S
C1175 C1174 1.374 . S
C1176 C1173 1.499 . S
C1176 C1177 1.373 . S
C1176 C1178 1.389 . S
C1177 H1156 0.950 . S
C1177 C1176 1.373 . S
C1177 C1193 1.377 . S
C1178 C1176 1.389 . S
C1178 C1179 1.524 1_554 S
C1178 C1192 1.377 . S
C1179 C1178 1.524 1_556 S
C1179 C1180 1.397 . S
C1179 C1184 1.363 . S
C1180 H1157 0.950 1_556 S
C1180 C1179 1.397 . S
C1180 C1181 1.334 . S
C1181 H1158 0.950 . S
C1181 C1180 1.334 . S
C1181 C1182 1.287 . S
C1182 C1181 1.287 . S
C1182 C1183 1.524 . S
C1182 H1201 0.913 . S
C1183 H1159 0.950 . S
C1183 C1182 1.524 . S
C1183 C1184 1.415 . S
C1184 H1160 0.950 . S
C1184 C1179 1.363 . S
C1184 C1183 1.415 . S
C1185 H1161 0.951 . S
C1185 C1186 1.366 . S
C1185 C1187 1.388 . S
C1186 C1185 1.366 . S
C1186 C1190 1.385 . S
C1187 H1162 0.951 . S
C1187 C1185 1.388 . S
C1187 C1188 1.366 . S
C1188 C1187 1.366 . S
C1188 C1189 1.414 . S
C1188 C1191 1.499 . S
C1189 H1163 0.950 . S
C1189 C1188 1.414 . S
C1189 C1190 1.374 . S
C1190 H1164 0.950 . S
C1190 C1186 1.385 . S
C1190 C1189 1.374 . S
C1191 C1188 1.499 . S
C1191 C1192 1.373 . S
C1191 C1193 1.389 . S
C1192 H1165 0.949 1_554 S
C1192 C1178 1.377 . S
C1192 C1191 1.373 . S
C1193 C1177 1.377 . S
C1193 C1191 1.389 . S
C1193 C1194 1.524 . S
C1194 C1193 1.524 . S
C1194 C1195 1.397 . S
C1194 C1199 1.363 . S
C1195 H1166 0.950 . S
C1195 C1194 1.397 . S
C1195 C1196 1.334 . S
C1196 H1167 0.950 . S
C1196 C1195 1.334 . S
C1196 C1197 1.287 . S
C1197 C1196 1.287 . S
C1197 C1198 1.524 . S
C1197 H1200 0.999 . S
C1198 H1168 0.950 . S
C1198 C1197 1.524 . S
C1198 C1199 1.415 . S
C1199 H1169 0.950 . S
C1199 C1194 1.363 . S
C1199 C1198 1.415 . S
H1200 C1197 0.999 . S
H1201 C1182 0.913 . S
H1202 C1220 0.951 . S
H1203 C1222 0.951 . S
H1204 C1224 0.950 . S
H1205 C1225 0.950 . S
H1206 C1227 0.950 . S
H1207 C1230 0.950 . S
H1208 C1231 0.950 . S
H1209 C1233 0.950 . S
H1210 C1234 0.950 1_655 S
H1211 C1235 0.951 . S
H1212 C1237 0.951 . S
H1213 C1239 0.950 . S
H1214 C1240 0.950 . S
H1215 C1242 0.950 . S
H1216 C1245 0.950 . S
H1217 C1246 0.950 . S
H1218 C1248 0.950 . S
H1219 C1249 0.950 . S
C1220 H1202 0.951 . S
C1220 C1221 1.366 . S
C1220 C1222 1.388 1_455 S
C1221 C1220 1.366 . S
C1221 C1225 1.385 . S
C1222 H1203 0.951 . S
C1222 C1220 1.388 1_655 S
C1222 C1223 1.366 . S
C1223 C1222 1.366 . S
C1223 C1224 1.414 . S
C1223 C1226 1.499 . S
C1224 H1204 0.950 . S
C1224 C1223 1.414 . S
C1224 C1225 1.374 1_655 S
C1225 H1205 0.950 . S
C1225 C1221 1.385 . S
C1225 C1224 1.374 1_455 S
C1226 C1223 1.499 . S
C1226 C1227 1.373 . S
C1226 C1228 1.389 . S
C1227 H1206 0.950 . S
C1227 C1226 1.373 . S
C1227 C1243 1.377 . S
C1228 C1226 1.389 . S
C1228 C1229 1.524 1_655 S
C1228 C1242 1.377 . S
C1229 C1228 1.524 1_455 S
C1229 C1230 1.397 . S
C1229 C1234 1.363 . S
C1230 H1207 0.950 . S
C1230 C1229 1.397 . S
C1230 C1231 1.334 . S
C1231 H1208 0.950 . S
C1231 C1230 1.334 . S
C1231 C1232 1.287 . S
C1232 C1231 1.287 . S
C1232 C1233 1.524 . S
C1232 H1251 0.913 . S
C1233 H1209 0.950 . S
C1233 C1232 1.524 . S
C1233 C1234 1.415 . S
C1234 H1210 0.950 1_455 S
C1234 C1229 1.363 . S
C1234 C1233 1.415 . S
C1235 H1211 0.951 . S
C1235 C1236 1.366 . S
C1235 C1237 1.388 . S
C1236 C1235 1.366 . S
C1236 C1240 1.385 . S
C1237 H1212 0.951 . S
C1237 C1235 1.388 . S
C1237 C1238 1.366 . S
C1238 C1237 1.366 . S
C1238 C1239 1.414 . S
C1238 C1241 1.499 1_565 S
C1239 H1213 0.950 . S
C1239 C1238 1.414 . S
C1239 C1240 1.374 . S
C1240 H1214 0.950 . S
C1240 C1236 1.385 . S
C1240 C1239 1.374 . S
C1241 C1238 1.499 1_545 S
C1241 C1242 1.373 . S
C1241 C1243 1.389 . S
C1242 H1215 0.950 . S
C1242 C1228 1.377 . S
C1242 C1241 1.373 . S
C1243 C1227 1.377 . S
C1243 C1241 1.389 . S
C1243 C1244 1.524 1_545 S
C1244 C1243 1.524 1_565 S
C1244 C1245 1.397 . S
C1244 C1249 1.363 . S
C1245 H1216 0.950 . S
C1245 C1244 1.397 . S
C1245 C1246 1.334 . S
C1246 H1217 0.950 . S
C1246 C1245 1.334 . S
C1246 C1247 1.287 . S
C1247 C1246 1.287 . S
C1247 C1248 1.524 . S
C1247 H1250 0.999 . S
C1248 H1218 0.950 . S
C1248 C1247 1.524 . S
C1248 C1249 1.415 . S
C1249 H1219 0.950 . S
C1249 C1244 1.363 . S
C1249 C1248 1.415 . S
H1250 C1247 0.999 . S
H1251 C1232 0.913 . S
H1252 C1270 0.951 . S
H1253 C1272 0.951 . S
H1254 C1274 0.950 . S
H1255 C1275 0.950 . S
H1256 C1277 0.950 . S
H1257 C1280 0.950 . S
H1258 C1281 0.950 . S
H1259 C1283 0.950 . S
H1260 C1284 0.950 1_545 S
H1261 C1285 0.951 . S
H1262 C1287 0.951 . S
H1263 C1289 0.950 . S
H1264 C1290 0.950 . S
H1265 C1292 0.950 . S
H1266 C1295 0.950 . S
H1267 C1296 0.950 . S
H1268 C1298 0.950 . S
H1269 C1299 0.950 . S
C1270 H1252 0.951 . S
C1270 C1271 1.366 1_455 S
C1270 C1272 1.388 . S
C1271 C1270 1.366 1_655 S
C1271 C1275 1.385 . S
C1272 H1253 0.951 . S
C1272 C1270 1.388 . S
C1272 C1273 1.366 . S
C1273 C1272 1.366 . S
C1273 C1274 1.414 1_455 S
C1273 C1276 1.499 . S
C1274 H1254 0.950 . S
C1274 C1273 1.414 1_655 S
C1274 C1275 1.374 . S
C1275 H1255 0.950 . S
C1275 C1271 1.385 . S
C1275 C1274 1.374 . S
C1276 C1273 1.499 . S
C1276 C1277 1.373 . S
C1276 C1278 1.389 . S
C1277 H1256 0.950 . S
C1277 C1276 1.373 . S
C1277 C1293 1.377 . S
C1278 C1276 1.389 . S
C1278 C1279 1.524 . S
C1278 C1292 1.377 . S
C1279 C1278 1.524 . S
C1279 C1280 1.397 1_455 S
C1279 C1284 1.363 . S
C1280 H1257 0.950 . S
C1280 C1279 1.397 1_655 S
C1280 C1281 1.334 . S
C1281 H1258 0.950 . S
C1281 C1280 1.334 . S
C1281 C1282 1.287 . S
C1282 C1281 1.287 . S
C1282 C1283 1.524 1_665 S
C1282 H1301 0.913 1_565 S
C1283 H1259 0.950 . S
C1283 C1282 1.524 1_445 S
C1283 C1284 1.415 1_545 S
C1284 H1260 0.950 1_565 S
C1284 C1279 1.363 . S
C1284 C1283 1.415 1_565 S
C1285 H1261 0.951 . S
C1285 C1286 1.366 . S
C1285 C1287 1.388 . S
C1286 C1285 1.366 . S
C1286 C1290 1.385 . S
C1287 H1262 0.951 . S
C1287 C1285 1.388 . S
C1287 C1288 1.366 . S
C1288 C1287 1.366 . S
C1288 C1289 1.414 . S
C1288 C1291 1.499 . S
C1289 H1263 0.950 . S
C1289 C1288 1.414 . S
C1289 C1290 1.374 . S
C1290 H1264 0.950 . S
C1290 C1286 1.385 . S
C1290 C1289 1.374 . S
C1291 C1288 1.499 . S
C1291 C1292 1.373 . S
C1291 C1293 1.389 . S
C1292 H1265 0.950 . S
C1292 C1278 1.377 . S
C1292 C1291 1.373 . S
C1293 C1277 1.377 . S
C1293 C1291 1.389 . S
C1293 C1294 1.524 . S
C1294 C1293 1.524 . S
C1294 C1295 1.397 . S
C1294 C1299 1.363 . S
C1295 H1266 0.950 . S
C1295 C1294 1.397 . S
C1295 C1296 1.334 . S
C1296 H1267 0.950 . S
C1296 C1295 1.334 . S
C1296 C1297 1.287 . S
C1297 C1296 1.287 . S
C1297 C1298 1.524 . S
C1297 H1300 0.999 . S
C1298 H1268 0.950 . S
C1298 C1297 1.524 . S
C1298 C1299 1.415 . S
C1299 H1269 0.950 . S
C1299 C1294 1.363 . S
C1299 C1298 1.415 . S
H1300 C1297 0.999 . S
H1301 C1282 0.913 1_545 S
H1302 C1320 0.951 . S
H1303 C1322 0.951 . S
H1304 C1324 0.950 . S
H1305 C1325 0.950 . S
H1306 C1327 0.950 . S
H1307 C1330 0.950 . S
H1308 C1331 0.950 . S
H1309 C1333 0.951 1_445 S
H1310 C1334 0.950 . S
H1311 C1335 0.951 . S
H1312 C1337 0.951 . S
H1313 C1339 0.950 . S
H1314 C1340 0.950 . S
H1315 C1342 0.950 . S
H1316 C1345 0.950 . S
H1317 C1346 0.950 . S
H1318 C1348 0.950 . S
H1319 C1349 0.950 . S
C1320 H1302 0.951 . S
C1320 C1321 1.366 . S
C1320 C1322 1.388 . S
C1321 C1320 1.366 . S
C1321 C1325 1.385 1_455 S
C1322 H1303 0.951 . S
C1322 C1320 1.388 . S
C1322 C1323 1.366 1_455 S
C1323 C1322 1.366 1_655 S
C1323 C1324 1.414 . S
C1323 C1326 1.499 . S
C1324 H1304 0.950 . S
C1324 C1323 1.414 . S
C1324 C1325 1.374 . S
C1325 H1305 0.950 . S
C1325 C1321 1.385 1_655 S
C1325 C1324 1.374 . S
C1326 C1323 1.499 . S
C1326 C1327 1.373 1_554 S
C1326 C1328 1.389 . S
C1327 H1306 0.950 . S
C1327 C1326 1.373 1_556 S
C1327 C1343 1.377 . S
C1328 C1326 1.389 . S
C1328 C1329 1.524 . S
C1328 C1342 1.377 . S
C1329 C1328 1.524 . S
C1329 C1330 1.397 . S
C1329 C1334 1.363 . S
C1330 H1307 0.950 . S
C1330 C1329 1.397 . S
C1330 C1331 1.334 . S
C1331 H1308 0.950 . S
C1331 C1330 1.334 . S
C1331 C1332 1.287 . S
C1332 C1331 1.287 . S
C1332 C1333 1.524 . S
C1332 H1351 0.913 . S
C1333 H1309 0.951 1_665 S
C1333 C1332 1.524 . S
C1333 C1334 1.415 . S
C1334 H1310 0.950 . S
C1334 C1329 1.363 . S
C1334 C1333 1.415 . S
C1335 H1311 0.951 . S
C1335 C1336 1.366 1_565 S
C1335 C1337 1.388 . S
C1336 C1335 1.366 1_545 S
C1336 C1340 1.385 . S
C1337 H1312 0.951 . S
C1337 C1335 1.388 . S
C1337 C1338 1.366 . S
C1338 C1337 1.366 . S
C1338 C1339 1.414 1_565 S
C1338 C1341 1.499 . S
C1339 H1313 0.950 . S
C1339 C1338 1.414 1_545 S
C1339 C1340 1.374 . S
C1340 H1314 0.950 . S
C1340 C1336 1.385 . S
C1340 C1339 1.374 . S
C1341 C1338 1.499 . S
C1341 C1342 1.373 1_556 S
C1341 C1343 1.389 . S
C1342 H1315 0.950 . S
C1342 C1328 1.377 . S
C1342 C1341 1.373 1_554 S
C1343 C1327 1.377 . S
C1343 C1341 1.389 . S
C1343 C1344 1.524 . S
C1344 C1343 1.524 . S
C1344 C1345 1.397 . S
C1344 C1349 1.363 . S
C1345 H1316 0.950 . S
C1345 C1344 1.397 . S
C1345 C1346 1.334 . S
C1346 H1317 0.950 . S
C1346 C1345 1.334 . S
C1346 C1347 1.287 . S
C1347 C1346 1.287 . S
C1347 C1348 1.524 . S
C1347 H1350 0.999 . S
C1348 H1318 0.950 . S
C1348 C1347 1.524 . S
C1348 C1349 1.415 . S
C1349 H1319 0.950 . S
C1349 C1344 1.363 . S
C1349 C1348 1.415 . S
H1350 C1347 0.999 . S
H1351 C1332 0.913 . S
H1352 C1370 0.951 . S
H1353 C1372 0.951 . S
H1354 C1374 0.950 . S
H1355 C1375 0.950 . S
H1356 C1377 0.950 . S
H1357 C1380 0.950 . S
H1358 C1381 0.944 . S
H1359 C1383 0.950 . S
H1360 C1384 0.950 . S
H1361 C1385 0.951 . S
H1362 C1387 0.951 . S
H1363 C1389 0.950 . S
H1364 C1390 0.950 . S
H1365 C1392 0.950 1_565 S
H1366 C1395 0.950 . S
H1367 C1396 0.950 1_556 S
H1368 C1398 0.950 . S
H1369 C1399 0.950 . S
C1370 H1352 0.951 . S
C1370 C1371 1.366 . S
C1370 C1372 1.388 . S
C1371 C1370 1.366 . S
C1371 C1375 1.385 . S
C1372 H1353 0.951 . S
C1372 C1370 1.388 . S
C1372 C1373 1.366 . S
C1373 C1372 1.366 . S
C1373 C1374 1.414 . S
C1373 C1376 1.499 . S
C1374 H1354 0.950 . S
C1374 C1373 1.414 . S
C1374 C1375 1.374 . S
C1375 H1355 0.950 . S
C1375 C1371 1.385 . S
C1375 C1374 1.374 . S
C1376 C1373 1.499 . S
C1376 C1377 1.373 . S
C1376 C1378 1.389 . S
C1377 H1356 0.950 . S
C1377 C1376 1.373 . S
C1377 C1393 1.377 . S
C1378 C1376 1.389 . S
C1378 C1379 1.524 . S
C1378 C1392 1.377 . S
C1379 C1378 1.524 . S
C1379 C1380 1.397 . S
C1379 C1384 1.363 1_545 S
C1380 H1357 0.950 . S
C1380 C1379 1.397 . S
C1380 C1381 1.351 . S
C1381 H1358 0.944 . S
C1381 C1380 1.351 . S
C1381 C1382 1.278 1_545 S
C1382 C1381 1.278 1_565 S
C1382 C1383 1.524 . S
C1382 H1401 0.913 . S
C1383 H1359 0.950 . S
C1383 C1382 1.524 . S
C1383 C1384 1.415 . S
C1384 H1360 0.950 . S
C1384 C1379 1.363 1_565 S
C1384 C1383 1.415 . S
C1385 H1361 0.951 . S
C1385 C1386 1.366 . S
C1385 C1387 1.388 1_565 S
C1386 C1385 1.366 . S
C1386 C1390 1.385 . S
C1387 H1362 0.951 . S
C1387 C1385 1.388 1_545 S
C1387 C1388 1.360 . S
C1388 C1387 1.360 . S
C1388 C1389 1.409 1_545 S
C1388 C1391 1.509 . S
C1389 H1363 0.950 . S
C1389 C1388 1.409 1_565 S
C1389 C1390 1.374 . S
C1390 H1364 0.950 . S
C1390 C1386 1.385 . S
C1390 C1389 1.374 . S
C1391 C1388 1.509 . S
C1391 C1392 1.373 . S
C1391 C1393 1.389 . S
C1392 H1365 0.950 1_545 S
C1392 C1378 1.377 . S
C1392 C1391 1.373 . S
C1393 C1377 1.377 . S
C1393 C1391 1.389 . S
C1393 C1394 1.524 . S
C1394 C1393 1.524 . S
C1394 C1395 1.397 . S
C1394 C1399 1.363 . S
C1395 H1366 0.950 . S
C1395 C1394 1.397 . S
C1395 C1396 1.334 . S
C1396 H1367 0.950 1_554 S
C1396 C1395 1.334 . S
C1396 C1397 1.287 . S
C1397 C1396 1.287 . S
C1397 C1398 1.524 . S
C1397 H1400 0.999 1_554 S
C1398 H1368 0.950 . S
C1398 C1397 1.524 . S
C1398 C1399 1.415 . S
C1399 H1369 0.950 . S
C1399 C1394 1.363 . S
C1399 C1398 1.415 . S
H1400 C1397 0.999 1_556 S
H1401 C1382 0.913 . S
H1402 C1420 0.951 . S
H1403 C1422 0.951 . S
H1404 C1424 0.950 . S
H1405 C1425 0.950 . S
H1406 C1427 0.950 . S
H1407 C1430 0.950 . S
H1408 C1431 0.950 . S
H1409 C1433 0.950 . S
H1410 C1434 0.950 . S
H1411 C1435 0.951 . S
H1412 C1437 0.951 1_455 S
H1413 C1439 0.950 . S
H1414 C1440 0.950 . S
H1415 C1442 0.950 . S
H1416 C1445 0.950 . S
H1417 C1446 0.950 . S
H1418 C1448 0.950 1_556 S
H1419 C1449 0.950 . S
C1420 H1402 0.951 . S
C1420 C1421 1.366 . S
C1420 C1422 1.388 . S
C1421 C1420 1.366 . S
C1421 C1425 1.385 . S
C1422 H1403 0.951 . S
C1422 C1420 1.388 . S
C1422 C1423 1.366 . S
C1423 C1422 1.366 . S
C1423 C1424 1.414 . S
C1423 C1426 1.499 . S
C1424 H1404 0.950 . S
C1424 C1423 1.414 . S
C1424 C1425 1.374 . S
C1425 H1405 0.950 . S
C1425 C1421 1.385 . S
C1425 C1424 1.374 . S
C1426 C1423 1.499 . S
C1426 C1427 1.373 . S
C1426 C1428 1.389 . S
C1427 H1406 0.950 . S
C1427 C1426 1.373 . S
C1427 C1443 1.377 . S
C1428 C1426 1.389 . S
C1428 C1429 1.524 . S
C1428 C1442 1.377 . S
C1429 C1428 1.524 . S
C1429 C1430 1.397 . S
C1429 C1434 1.363 . S
C1430 H1407 0.950 . S
C1430 C1429 1.397 . S
C1430 C1431 1.334 . S
C1431 H1408 0.950 . S
C1431 C1430 1.334 . S
C1431 C1432 1.287 . S
C1432 C1431 1.287 . S
C1432 C1433 1.524 . S
C1432 H1451 0.913 . S
C1433 H1409 0.950 . S
C1433 C1432 1.524 . S
C1433 C1434 1.415 . S
C1434 H1410 0.950 . S
C1434 C1429 1.363 . S
C1434 C1433 1.415 . S
C1435 H1411 0.951 . S
C1435 C1436 1.366 . S
C1435 C1437 1.388 . S
C1436 C1435 1.366 . S
C1436 C1440 1.385 . S
C1437 H1412 0.951 1_655 S
C1437 C1435 1.388 . S
C1437 C1438 1.366 . S
C1438 C1437 1.366 . S
C1438 C1439 1.414 . S
C1438 C1441 1.499 1_655 S
C1439 H1413 0.950 . S
C1439 C1438 1.414 . S
C1439 C1440 1.374 . S
C1440 H1414 0.950 . S
C1440 C1436 1.385 . S
C1440 C1439 1.374 . S
C1441 C1438 1.499 1_455 S
C1441 C1442 1.373 . S
C1441 C1443 1.389 . S
C1442 H1415 0.950 . S
C1442 C1428 1.377 . S
C1442 C1441 1.373 . S
C1443 C1427 1.377 . S
C1443 C1441 1.389 . S
C1443 C1444 1.524 . S
C1444 C1443 1.524 . S
C1444 C1445 1.397 . S
C1444 C1449 1.363 . S
C1445 H1416 0.950 . S
C1445 C1444 1.397 . S
C1445 C1446 1.334 . S
C1446 H1417 0.950 . S
C1446 C1445 1.334 . S
C1446 C1447 1.287 . S
C1447 C1446 1.287 . S
C1447 C1448 1.524 . S
C1447 H1450 0.999 . S
C1448 H1418 0.950 1_554 S
C1448 C1447 1.524 . S
C1448 C1449 1.415 . S
C1449 H1419 0.950 . S
C1449 C1444 1.363 . S
C1449 C1448 1.415 . S
H1450 C1447 0.999 . S
H1451 C1432 0.913 . S
H1452 C1470 0.951 1_554 S
H1453 C1472 0.951 . S
H1454 C1474 0.950 . S
H1455 C1475 0.950 . S
H1456 C1477 0.950 . S
H1457 C1480 0.950 . S
H1458 C1481 0.950 . S
H1459 C1483 0.950 1_554 S
H1460 C1484 0.950 . S
H1461 C1485 0.951 . S
H1462 C1487 0.951 1_556 S
H1463 C1489 0.950 . S
H1464 C1490 0.950 . S
H1465 C1492 0.950 . S
H1466 C1495 0.950 . S
H1467 C1496 0.950 . S
H1468 C1498 0.950 . S
H1469 C1499 0.950 1_556 S
C1470 H1452 0.951 1_556 S
C1470 C1471 1.366 . S
C1470 C1472 1.388 1_556 S
C1471 C1470 1.366 . S
C1471 C1475 1.385 . S
C1472 H1453 0.951 . S
C1472 C1470 1.388 1_554 S
C1472 C1473 1.366 1_554 S
C1473 C1472 1.366 1_556 S
C1473 C1474 1.414 . S
C1473 C1476 1.499 . S
C1474 H1454 0.950 . S
C1474 C1473 1.414 . S
C1474 C1475 1.374 . S
C1475 H1455 0.950 . S
C1475 C1471 1.385 . S
C1475 C1474 1.374 . S
C1476 C1473 1.499 . S
C1476 C1477 1.373 1_556 S
C1476 C1478 1.389 . S
C1477 H1456 0.950 . S
C1477 C1476 1.373 1_554 S
C1477 C1493 1.377 . S
C1478 C1476 1.389 . S
C1478 C1479 1.524 . S
C1478 C1492 1.377 1_556 S
C1479 C1478 1.524 . S
C1479 C1480 1.397 . S
C1479 C1484 1.363 1_556 S
C1480 H1457 0.950 . S
C1480 C1479 1.397 . S
C1480 C1481 1.334 . S
C1481 H1458 0.950 . S
C1481 C1480 1.334 . S
C1481 C1482 1.287 . S
C1482 C1481 1.287 . S
C1482 C1483 1.524 . S
C1482 H1501 0.913 . S
C1483 H1459 0.950 1_556 S
C1483 C1482 1.524 . S
C1483 C1484 1.415 1_556 S
C1484 H1460 0.950 . S
C1484 C1479 1.363 1_554 S
C1484 C1483 1.415 1_554 S
C1485 H1461 0.951 . S
C1485 C1486 1.366 . S
C1485 C1487 1.388 . S
C1486 C1485 1.366 . S
C1486 C1490 1.385 . S
C1487 H1462 0.951 1_554 S
C1487 C1485 1.388 . S
C1487 C1488 1.366 . S
C1488 C1487 1.366 . S
C1488 C1489 1.414 . S
C1488 C1491 1.499 . S
C1489 H1463 0.950 . S
C1489 C1488 1.414 . S
C1489 C1490 1.374 . S
C1490 H1464 0.950 . S
C1490 C1486 1.385 . S
C1490 C1489 1.374 . S
C1491 C1488 1.499 . S
C1491 C1492 1.373 . S
C1491 C1493 1.389 . S
C1492 H1465 0.950 . S
C1492 C1478 1.377 1_554 S
C1492 C1491 1.373 . S
C1493 C1477 1.377 . S
C1493 C1491 1.389 . S
C1493 C1494 1.524 . S
C1494 C1493 1.524 . S
C1494 C1495 1.397 . S
C1494 C1499 1.363 . S
C1495 H1466 0.950 . S
C1495 C1494 1.397 . S
C1495 C1496 1.334 . S
C1496 H1467 0.950 . S
C1496 C1495 1.334 . S
C1496 C1497 1.287 . S
C1497 C1496 1.287 . S
C1497 C1498 1.524 . S
C1497 H1500 0.999 . S
C1498 H1468 0.950 . S
C1498 C1497 1.524 . S
C1498 C1499 1.415 . S
C1499 H1469 0.950 1_554 S
C1499 C1494 1.363 . S
C1499 C1498 1.415 . S
H1500 C1497 0.999 . S
H1501 C1482 0.913 . S
H1502 C1520 0.951 . S
H1503 C1522 0.951 . S
H1504 C1524 0.950 . S
H1505 C1525 0.950 . S
H1506 C1527 0.950 . S
H1507 C1530 0.950 . S
H1508 C1531 0.950 . S
H1509 C1533 0.950 . S
H1510 C1534 0.950 . S
H1511 C1535 0.951 . S
H1512 C1537 0.951 . S
H1513 C1539 0.950 . S
H1514 C1540 0.950 . S
H1515 C1542 0.950 . S
H1516 C1545 0.950 . S
H1517 C1546 0.950 . S
H1518 C1548 0.950 . S
H1519 C1549 0.950 . S
C1520 H1502 0.951 . S
C1520 C1521 1.366 . S
C1520 C1522 1.388 . S
C1521 C1520 1.366 . S
C1521 C1525 1.385 . S
C1522 H1503 0.951 . S
C1522 C1520 1.388 . S
C1522 C1523 1.366 . S
C1523 C1522 1.366 . S
C1523 C1524 1.414 . S
C1523 C1526 1.499 . S
C1524 H1504 0.950 . S
C1524 C1523 1.414 . S
C1524 C1525 1.374 . S
C1525 H1505 0.950 . S
C1525 C1521 1.385 . S
C1525 C1524 1.374 . S
C1526 C1523 1.499 . S
C1526 C1527 1.373 . S
C1526 C1528 1.389 . S
C1527 H1506 0.950 . S
C1527 C1526 1.373 . S
C1527 C1543 1.377 . S
C1528 C1526 1.389 . S
C1528 C1529 1.524 . S
C1528 C1542 1.377 . S
C1529 C1528 1.524 . S
C1529 C1530 1.397 . S
C1529 C1534 1.363 . S
C1530 H1507 0.950 . S
C1530 C1529 1.397 . S
C1530 C1531 1.334 . S
C1531 H1508 0.950 . S
C1531 C1530 1.334 . S
C1531 C1532 1.287 . S
C1532 C1531 1.287 . S
C1532 C1533 1.524 . S
C1532 H1551 0.913 . S
C1533 H1509 0.950 . S
C1533 C1532 1.524 . S
C1533 C1534 1.415 . S
C1534 H1510 0.950 . S
C1534 C1529 1.363 . S
C1534 C1533 1.415 . S
C1535 H1511 0.951 . S
C1535 C1536 1.366 . S
C1535 C1537 1.388 . S
C1536 C1535 1.366 . S
C1536 C1540 1.385 . S
C1537 H1512 0.951 . S
C1537 C1535 1.388 . S
C1537 C1538 1.366 . S
C1538 C1537 1.366 . S
C1538 C1539 1.414 . S
C1538 C1541 1.499 . S
C1539 H1513 0.950 . S
C1539 C1538 1.414 . S
C1539 C1540 1.374 . S
C1540 H1514 0.950 . S
C1540 C1536 1.385 . S
C1540 C1539 1.374 . S
C1541 C1538 1.499 . S
C1541 C1542 1.373 . S
C1541 C1543 1.389 . S
C1542 H1515 0.950 . S
C1542 C1528 1.377 . S
C1542 C1541 1.373 . S
C1543 C1527 1.377 . S
C1543 C1541 1.389 . S
C1543 C1544 1.524 . S
C1544 C1543 1.524 . S
C1544 C1545 1.397 . S
C1544 C1549 1.363 . S
C1545 H1516 0.950 . S
C1545 C1544 1.397 . S
C1545 C1546 1.334 . S
C1546 H1517 0.950 . S
C1546 C1545 1.334 . S
C1546 C1547 1.287 . S
C1547 C1546 1.287 . S
C1547 C1548 1.524 . S
C1547 H1550 0.999 . S
C1548 H1518 0.950 . S
C1548 C1547 1.524 . S
C1548 C1549 1.415 . S
C1549 H1519 0.950 . S
C1549 C1544 1.363 . S
C1549 C1548 1.415 . S
H1550 C1547 0.999 . S
H1551 C1532 0.913 . S
H1552 C1570 0.951 . S
H1553 C1572 0.951 . S
H1554 C1574 0.950 . S
H1555 C1575 0.950 . S
H1556 C1577 0.950 . S
H1557 C1580 0.950 . S
H1558 C1581 0.950 . S
H1559 C1583 0.950 . S
H1560 C1584 0.950 . S
H1561 C1585 0.951 . S
H1562 C1587 0.951 . S
H1563 C1589 0.950 . S
H1564 C1590 0.950 . S
H1565 C1592 0.950 . S
H1566 C1595 0.950 . S
H1567 C1596 0.950 . S
H1568 C1598 0.950 . S
H1569 C1599 0.950 . S
C1570 H1552 0.951 . S
C1570 C1571 1.366 1_554 S
C1570 C1572 1.388 . S
C1571 C1570 1.366 1_556 S
C1571 C1575 1.385 . S
C1572 H1553 0.951 . S
C1572 C1570 1.388 . S
C1572 C1573 1.366 . S
C1573 C1572 1.366 . S
C1573 C1574 1.414 . S
C1573 C1576 1.499 . S
C1574 H1554 0.950 . S
C1574 C1573 1.414 . S
C1574 C1575 1.374 1_554 S
C1575 H1555 0.950 . S
C1575 C1571 1.385 . S
C1575 C1574 1.374 1_556 S
C1576 C1573 1.499 . S
C1576 C1577 1.373 . S
C1576 C1578 1.389 . S
C1577 H1556 0.950 . S
C1577 C1576 1.373 . S
C1577 C1593 1.377 . S
C1578 C1576 1.389 . S
C1578 C1579 1.524 . S
C1578 C1592 1.377 . S
C1579 C1578 1.524 . S
C1579 C1580 1.397 . S
C1579 C1584 1.363 . S
C1580 H1557 0.950 . S
C1580 C1579 1.397 . S
C1580 C1581 1.334 . S
C1581 H1558 0.950 . S
C1581 C1580 1.334 . S
C1581 C1582 1.287 . S
C1582 C1581 1.287 . S
C1582 C1583 1.524 . S
C1582 H1601 0.913 . S
C1583 H1559 0.950 . S
C1583 C1582 1.524 . S
C1583 C1584 1.415 . S
C1584 H1560 0.950 . S
C1584 C1579 1.363 . S
C1584 C1583 1.415 . S
C1585 H1561 0.951 . S
C1585 C1586 1.366 . S
C1585 C1587 1.388 . S
C1586 C1585 1.366 . S
C1586 C1590 1.385 . S
C1587 H1562 0.951 . S
C1587 C1585 1.388 . S
C1587 C1588 1.366 . S
C1588 C1587 1.366 . S
C1588 C1589 1.414 . S
C1588 C1591 1.499 . S
C1589 H1563 0.950 . S
C1589 C1588 1.414 . S
C1589 C1590 1.374 . S
C1590 H1564 0.950 . S
C1590 C1586 1.385 . S
C1590 C1589 1.374 . S
C1591 C1588 1.499 . S
C1591 C1592 1.373 . S
C1591 C1593 1.389 . S
C1592 H1565 0.950 . S
C1592 C1578 1.377 . S
C1592 C1591 1.373 . S
C1593 C1577 1.377 . S
C1593 C1591 1.389 . S
C1593 C1594 1.524 . S
C1594 C1593 1.524 . S
C1594 C1595 1.397 . S
C1594 C1599 1.363 . S
C1595 H1566 0.950 . S
C1595 C1594 1.397 . S
C1595 C1596 1.334 . S
C1596 H1567 0.950 . S
C1596 C1595 1.334 . S
C1596 C1597 1.287 . S
C1597 C1596 1.287 . S
C1597 C1598 1.524 . S
C1597 H1600 0.999 . S
C1598 H1568 0.950 . S
C1598 C1597 1.524 . S
C1598 C1599 1.415 . S
C1599 H1569 0.950 . S
C1599 C1594 1.363 . S
C1599 C1598 1.415 . S
H1600 C1597 0.999 . S
H1601 C1582 0.913 . S
H1602 C1620 0.951 . S
H1603 C1622 0.951 . S
H1604 C1624 0.950 . S
H1605 C1625 0.950 . S
H1606 C1627 0.950 . S
H1607 C1630 0.950 . S
H1608 C1631 0.950 . S
H1609 C1633 0.950 . S
H1610 C1634 0.950 . S
H1611 C1635 0.951 . S
H1612 C1637 0.951 . S
H1613 C1639 0.950 . S
H1614 C1640 0.950 . S
H1615 C1642 0.950 . S
H1616 C1645 0.950 . S
H1617 C1646 0.950 . S
H1618 C1648 0.950 . S
H1619 C1649 0.950 . S
C1620 H1602 0.951 . S
C1620 C1621 1.366 . S
C1620 C1622 1.388 . S
C1621 C1620 1.366 . S
C1621 C1625 1.385 . S
C1622 H1603 0.951 . S
C1622 C1620 1.388 . S
C1622 C1623 1.366 . S
C1623 C1622 1.366 . S
C1623 C1624 1.414 . S
C1623 C1626 1.499 . S
C1624 H1604 0.950 . S
C1624 C1623 1.414 . S
C1624 C1625 1.374 . S
C1625 H1605 0.950 . S
C1625 C1621 1.385 . S
C1625 C1624 1.374 . S
C1626 C1623 1.499 . S
C1626 C1627 1.373 1_554 S
C1626 C1628 1.389 . S
C1627 H1606 0.950 . S
C1627 C1626 1.373 1_556 S
C1627 C1643 1.377 . S
C1628 C1626 1.389 . S
C1628 C1629 1.524 . S
C1628 C1642 1.377 . S
C1629 C1628 1.524 . S
C1629 C1630 1.397 . S
C1629 C1634 1.363 . S
C1630 H1607 0.950 . S
C1630 C1629 1.397 . S
C1630 C1631 1.334 . S
C1631 H1608 0.950 . S
C1631 C1630 1.334 . S
C1631 C1632 1.287 . S
C1632 C1631 1.287 . S
C1632 C1633 1.524 . S
C1632 H1651 0.913 . S
C1633 H1609 0.950 . S
C1633 C1632 1.524 . S
C1633 C1634 1.415 . S
C1634 H1610 0.950 . S
C1634 C1629 1.363 . S
C1634 C1633 1.415 . S
C1635 H1611 0.951 . S
C1635 C1636 1.366 . S
C1635 C1637 1.388 . S
C1636 C1635 1.366 . S
C1636 C1640 1.385 1_556 S
C1637 H1612 0.951 . S
C1637 C1635 1.388 . S
C1637 C1638 1.366 1_556 S
C1638 C1637 1.366 1_554 S
C1638 C1639 1.414 . S
C1638 C1641 1.499 . S
C1639 H1613 0.950 . S
C1639 C1638 1.414 . S
C1639 C1640 1.374 . S
C1640 H1614 0.950 . S
C1640 C1636 1.385 1_554 S
C1640 C1639 1.374 . S
C1641 C1638 1.499 . S
C1641 C1642 1.373 . S
C1641 C1643 1.389 1_554 S
C1642 H1615 0.950 . S
C1642 C1628 1.377 . S
C1642 C1641 1.373 . S
C1643 C1627 1.377 . S
C1643 C1641 1.389 1_556 S
C1643 C1644 1.524 . S
C1644 C1643 1.524 . S
C1644 C1645 1.397 . S
C1644 C1649 1.363 . S
C1645 H1616 0.950 . S
C1645 C1644 1.397 . S
C1645 C1646 1.334 . S
C1646 H1617 0.950 . S
C1646 C1645 1.334 . S
C1646 C1647 1.287 . S
C1647 C1646 1.287 . S
C1647 C1648 1.524 . S
C1647 H1650 0.999 . S
C1648 H1618 0.950 . S
C1648 C1647 1.524 . S
C1648 C1649 1.415 . S
C1649 H1619 0.950 . S
C1649 C1644 1.363 . S
C1649 C1648 1.415 . S
H1650 C1647 0.999 . S
H1651 C1632 0.913 . S
H1652 C1670 0.951 . S
H1653 C1672 0.951 . S
H1654 C1674 0.950 . S
H1655 C1675 0.950 . S
H1656 C1677 0.950 . S
H1657 C1680 0.950 . S
H1658 C1681 0.950 . S
H1659 C1683 0.950 . S
H1660 C1684 0.950 . S
H1661 C1685 0.951 . S
H1662 C1687 0.951 . S
H1663 C1689 0.950 . S
H1664 C1690 0.950 . S
H1665 C1692 0.950 . S
H1666 C1695 0.950 . S
H1667 C1696 0.950 . S
H1668 C1698 0.950 . S
H1669 C1699 0.950 . S
C1670 H1652 0.951 . S
C1670 C1671 1.366 . S
C1670 C1672 1.388 . S
C1671 C1670 1.366 . S
C1671 C1675 1.385 . S
C1672 H1653 0.951 . S
C1672 C1670 1.388 . S
C1672 C1673 1.366 . S
C1673 C1672 1.366 . S
C1673 C1674 1.414 . S
C1673 C1676 1.499 . S
C1674 H1654 0.950 . S
C1674 C1673 1.414 . S
C1674 C1675 1.374 . S
C1675 H1655 0.950 . S
C1675 C1671 1.385 . S
C1675 C1674 1.374 . S
C1676 C1673 1.499 . S
C1676 C1677 1.373 . S
C1676 C1678 1.389 . S
C1677 H1656 0.950 . S
C1677 C1676 1.373 . S
C1677 C1693 1.377 . S
C1678 C1676 1.389 . S
C1678 C1679 1.524 . S
C1678 C1692 1.377 . S
C1679 C1678 1.524 . S
C1679 C1680 1.397 . S
C1679 C1684 1.363 . S
C1680 H1657 0.950 . S
C1680 C1679 1.397 . S
C1680 C1681 1.334 . S
C1681 H1658 0.950 . S
C1681 C1680 1.334 . S
C1681 C1682 1.287 . S
C1682 C1681 1.287 . S
C1682 C1683 1.524 . S
C1682 H1701 0.913 . S
C1683 H1659 0.950 . S
C1683 C1682 1.524 . S
C1683 C1684 1.415 . S
C1684 H1660 0.950 . S
C1684 C1679 1.363 . S
C1684 C1683 1.415 . S
C1685 H1661 0.951 . S
C1685 C1686 1.366 . S
C1685 C1687 1.388 . S
C1686 C1685 1.366 . S
C1686 C1690 1.385 . S
C1687 H1662 0.951 . S
C1687 C1685 1.388 . S
C1687 C1688 1.366 . S
C1688 C1687 1.366 . S
C1688 C1689 1.414 . S
C1688 C1691 1.499 . S
C1689 H1663 0.950 . S
C1689 C1688 1.414 . S
C1689 C1690 1.374 . S
C1690 H1664 0.950 . S
C1690 C1686 1.385 . S
C1690 C1689 1.374 . S
C1691 C1688 1.499 . S
C1691 C1692 1.373 . S
C1691 C1693 1.389 . S
C1692 H1665 0.950 . S
C1692 C1678 1.377 . S
C1692 C1691 1.373 . S
C1693 C1677 1.377 . S
C1693 C1691 1.389 . S
C1693 C1694 1.524 . S
C1694 C1693 1.524 . S
C1694 C1695 1.397 . S
C1694 C1699 1.363 . S
C1695 H1666 0.950 . S
C1695 C1694 1.397 . S
C1695 C1696 1.334 . S
C1696 H1667 0.950 . S
C1696 C1695 1.334 . S
C1696 C1697 1.287 . S
C1697 C1696 1.287 . S
C1697 C1698 1.524 . S
C1697 H1700 0.999 . S
C1698 H1668 0.950 . S
C1698 C1697 1.524 . S
C1698 C1699 1.415 . S
C1699 H1669 0.950 . S
C1699 C1694 1.363 . S
C1699 C1698 1.415 . S
H1700 C1697 0.999 . S
H1701 C1682 0.913 . S
H1702 C1720 0.951 . S
H1703 C1722 0.951 . S
H1704 C1724 0.950 . S
H1705 C1725 0.950 . S
H1706 C1727 0.950 . S
H1707 C1730 0.950 . S
H1708 C1731 0.950 . S
H1709 C1733 0.950 . S
H1710 C1734 0.950 . S
H1711 C1735 0.951 . S
H1712 C1737 0.951 . S
H1713 C1739 0.950 . S
H1714 C1740 0.950 . S
H1715 C1742 0.950 . S
H1716 C1745 0.950 . S
H1717 C1746 0.950 . S
H1718 C1748 0.950 . S
H1719 C1749 0.950 . S
C1720 H1702 0.951 . S
C1720 C1721 1.366 . S
C1720 C1722 1.388 . S
C1721 C1720 1.366 . S
C1721 C1725 1.385 . S
C1722 H1703 0.951 . S
C1722 C1720 1.388 . S
C1722 C1723 1.366 . S
C1723 C1722 1.366 . S
C1723 C1724 1.414 . S
C1723 C1726 1.499 . S
C1724 H1704 0.950 . S
C1724 C1723 1.414 . S
C1724 C1725 1.374 . S
C1725 H1705 0.950 . S
C1725 C1721 1.385 . S
C1725 C1724 1.374 . S
C1726 C1723 1.499 . S
C1726 C1727 1.373 . S
C1726 C1728 1.389 . S
C1727 H1706 0.950 . S
C1727 C1726 1.373 . S
C1727 C1743 1.377 . S
C1728 C1726 1.389 . S
C1728 C1729 1.524 . S
C1728 C1742 1.377 . S
C1729 C1728 1.524 . S
C1729 C1730 1.397 . S
C1729 C1734 1.363 . S
C1730 H1707 0.950 . S
C1730 C1729 1.397 . S
C1730 C1731 1.334 . S
C1731 H1708 0.950 . S
C1731 C1730 1.334 . S
C1731 C1732 1.287 . S
C1732 C1731 1.287 . S
C1732 C1733 1.524 . S
C1732 H1751 0.913 . S
C1733 H1709 0.950 . S
C1733 C1732 1.524 . S
C1733 C1734 1.415 . S
C1734 H1710 0.950 . S
C1734 C1729 1.363 . S
C1734 C1733 1.415 . S
C1735 H1711 0.951 . S
C1735 C1736 1.366 . S
C1735 C1737 1.388 . S
C1736 C1735 1.366 . S
C1736 C1740 1.385 . S
C1737 H1712 0.951 . S
C1737 C1735 1.388 . S
C1737 C1738 1.366 . S
C1738 C1737 1.366 . S
C1738 C1739 1.414 . S
C1738 C1741 1.499 . S
C1739 H1713 0.950 . S
C1739 C1738 1.414 . S
C1739 C1740 1.374 . S
C1740 H1714 0.950 . S
C1740 C1736 1.385 . S
C1740 C1739 1.374 . S
C1741 C1738 1.499 . S
C1741 C1742 1.373 . S
C1741 C1743 1.389 . S
C1742 H1715 0.950 . S
C1742 C1728 1.377 . S
C1742 C1741 1.373 . S
C1743 C1727 1.377 . S
C1743 C1741 1.389 . S
C1743 C1744 1.524 . S
C1744 C1743 1.524 . S
C1744 C1745 1.397 . S
C1744 C1749 1.363 . S
C1745 H1716 0.950 . S
C1745 C1744 1.397 . S
C1745 C1746 1.334 . S
C1746 H1717 0.950 . S
C1746 C1745 1.334 . S
C1746 C1747 1.287 . S
C1747 C1746 1.287 . S
C1747 C1748 1.524 . S
C1747 H1750 0.999 . S
C1748 H1718 0.950 . S
C1748 C1747 1.524 . S
C1748 C1749 1.415 . S
C1749 H1719 0.950 . S
C1749 C1744 1.363 . S
C1749 C1748 1.415 . S
H1750 C1747 0.999 . S
H1751 C1732 0.913 . S
H1752 C1770 0.951 1_556 S
H1753 C1772 0.951 1_556 S
H1754 C1774 0.950 . S
H1755 C1775 0.950 . S
H1756 C1777 0.950 . S
H1757 C1780 0.950 . S
H1758 C1781 0.950 . S
H1759 C1783 0.950 . S
H1760 C1784 0.950 . S
H1761 C1785 0.951 1_554 S
H1762 C1787 0.951 1_554 S
H1763 C1789 0.950 . S
H1764 C1790 0.950 . S
H1765 C1792 0.950 . S
H1766 C1795 0.950 . S
H1767 C1796 0.950 . S
H1768 C1798 0.950 . S
H1769 C1799 0.950 . S
C1770 H1752 0.951 1_554 S
C1770 C1771 1.366 . S
C1770 C1772 1.388 . S
C1771 C1770 1.366 . S
C1771 C1775 1.385 . S
C1772 H1753 0.951 1_554 S
C1772 C1770 1.388 . S
C1772 C1773 1.366 . S
C1773 C1772 1.366 . S
C1773 C1774 1.414 . S
C1773 C1776 1.499 . S
C1774 H1754 0.950 . S
C1774 C1773 1.414 . S
C1774 C1775 1.374 . S
C1775 H1755 0.950 . S
C1775 C1771 1.385 . S
C1775 C1774 1.374 . S
C1776 C1773 1.499 . S
C1776 C1777 1.373 . S
C1776 C1778 1.389 1_554 S
C1777 H1756 0.950 . S
C1777 C1776 1.373 . S
C1777 C1793 1.377 . S
C1778 C1776 1.389 1_556 S
C1778 C1779 1.524 . S
C1778 C1792 1.377 . S
C1779 C1778 1.524 . S
C1779 C1780 1.397 1_556 S
C1779 C1784 1.363 . S
C1780 H1757 0.950 . S
C1780 C1779 1.397 1_554 S
C1780 C1781 1.334 . S
C1781 H1758 0.950 . S
C1781 C1780 1.334 . S
C1781 C1782 1.287 . S
C1782 C1781 1.287 . S
C1782 C1783 1.524 1_554 S
C1782 H1801 0.913 . S
C1783 H1759 0.950 . S
C1783 C1782 1.524 1_556 S
C1783 C1784 1.415 . S
C1784 H1760 0.950 . S
C1784 C1779 1.363 . S
C1784 C1783 1.415 . S
C1785 H1761 0.951 1_556 S
C1785 C1786 1.366 . S
C1785 C1787 1.388 . S
C1786 C1785 1.366 . S
C1786 C1790 1.385 . S
C1787 H1762 0.951 1_556 S
C1787 C1785 1.388 . S
C1787 C1788 1.366 . S
C1788 C1787 1.366 . S
C1788 C1789 1.414 . S
C1788 C1791 1.499 . S
C1789 H1763 0.950 . S
C1789 C1788 1.414 . S
C1789 C1790 1.374 . S
C1790 H1764 0.950 . S
C1790 C1786 1.385 . S
C1790 C1789 1.374 . S
C1791 C1788 1.499 . S
C1791 C1792 1.373 . S
C1791 C1793 1.389 1_556 S
C1792 H1765 0.950 . S
C1792 C1778 1.377 . S
C1792 C1791 1.373 . S
C1793 C1777 1.377 . S
C1793 C1791 1.389 1_554 S
C1793 C1794 1.524 . S
C1794 C1793 1.524 . S
C1794 C1795 1.397 1_554 S
C1794 C1799 1.363 . S
C1795 H1766 0.950 . S
C1795 C1794 1.397 1_556 S
C1795 C1796 1.334 . S
C1796 H1767 0.950 . S
C1796 C1795 1.334 . S
C1796 C1797 1.287 . S
C1797 C1796 1.287 . S
C1797 C1798 1.524 1_556 S
C1797 H1800 0.999 . S
C1798 H1768 0.950 . S
C1798 C1797 1.524 1_554 S
C1798 C1799 1.415 . S
C1799 H1769 0.950 . S
C1799 C1794 1.363 . S
C1799 C1798 1.415 . S
H1800 C1797 0.999 . S
H1801 C1782 0.913 . S
H1802 C1820 0.951 . S
H1803 C1822 0.951 . S
H1804 C1824 0.950 . S
H1805 C1825 0.950 . S
H1806 C1827 0.950 . S
H1807 C1830 0.950 . S
H1808 C1831 0.950 . S
H1809 C1833 0.950 . S
H1810 C1834 0.950 . S
H1811 C1835 0.951 . S
H1812 C1837 0.951 . S
H1813 C1839 0.950 . S
H1814 C1840 0.950 . S
H1815 C1842 0.950 . S
H1816 C1845 0.950 . S
H1817 C1846 0.950 . S
H1818 C1848 0.950 . S
H1819 C1849 0.950 . S
C1820 H1802 0.951 . S
C1820 C1821 1.366 . S
C1820 C1822 1.388 . S
C1821 C1820 1.366 . S
C1821 C1825 1.385 . S
C1822 H1803 0.951 . S
C1822 C1820 1.388 . S
C1822 C1823 1.366 . S
C1823 C1822 1.366 . S
C1823 C1824 1.414 . S
C1823 C1826 1.499 . S
C1824 H1804 0.950 . S
C1824 C1823 1.414 . S
C1824 C1825 1.374 . S
C1825 H1805 0.950 . S
C1825 C1821 1.385 . S
C1825 C1824 1.374 . S
C1826 C1823 1.499 . S
C1826 C1827 1.373 . S
C1826 C1828 1.389 . S
C1827 H1806 0.950 . S
C1827 C1826 1.373 . S
C1827 C1843 1.377 . S
C1828 C1826 1.389 . S
C1828 C1829 1.524 . S
C1828 C1842 1.377 . S
C1829 C1828 1.524 . S
C1829 C1830 1.397 . S
C1829 C1834 1.363 . S
C1830 H1807 0.950 . S
C1830 C1829 1.397 . S
C1830 C1831 1.334 . S
C1831 H1808 0.950 . S
C1831 C1830 1.334 . S
C1831 C1832 1.287 . S
C1832 C1831 1.287 . S
C1832 C1833 1.524 . S
C1832 H1851 0.913 . S
C1833 H1809 0.950 . S
C1833 C1832 1.524 . S
C1833 C1834 1.415 . S
C1834 H1810 0.950 . S
C1834 C1829 1.363 . S
C1834 C1833 1.415 . S
C1835 H1811 0.951 . S
C1835 C1836 1.366 . S
C1835 C1837 1.388 . S
C1836 C1835 1.366 . S
C1836 C1840 1.385 . S
C1837 H1812 0.951 . S
C1837 C1835 1.388 . S
C1837 C1838 1.366 . S
C1838 C1837 1.366 . S
C1838 C1839 1.414 . S
C1838 C1841 1.499 . S
C1839 H1813 0.950 . S
C1839 C1838 1.414 . S
C1839 C1840 1.374 . S
C1840 H1814 0.950 . S
C1840 C1836 1.385 . S
C1840 C1839 1.374 . S
C1841 C1838 1.499 . S
C1841 C1842 1.373 . S
C1841 C1843 1.389 . S
C1842 H1815 0.950 . S
C1842 C1828 1.377 . S
C1842 C1841 1.373 . S
C1843 C1827 1.377 . S
C1843 C1841 1.389 . S
C1843 C1844 1.524 . S
C1844 C1843 1.524 . S
C1844 C1845 1.397 . S
C1844 C1849 1.363 . S
C1845 H1816 0.950 . S
C1845 C1844 1.397 . S
C1845 C1846 1.334 . S
C1846 H1817 0.950 . S
C1846 C1845 1.334 . S
C1846 C1847 1.287 . S
C1847 C1846 1.287 . S
C1847 C1848 1.524 . S
C1847 H1850 0.999 . S
C1848 H1818 0.950 . S
C1848 C1847 1.524 . S
C1848 C1849 1.415 . S
C1849 H1819 0.950 . S
C1849 C1844 1.363 . S
C1849 C1848 1.415 . S
H1850 C1847 0.999 . S
H1851 C1832 0.913 . S
H1852 C1870 0.951 . S
H1853 C1872 0.951 . S
H1854 C1874 0.950 . S
H1855 C1875 0.950 . S
H1856 C1877 0.950 . S
H1857 C1880 0.950 . S
H1858 C1881 0.950 . S
H1859 C1883 0.950 . S
H1860 C1884 0.950 . S
H1861 C1885 0.951 . S
H1862 C1887 0.951 . S
H1863 C1889 0.950 . S
H1864 C1890 0.950 . S
H1865 C1892 0.950 . S
H1866 C1895 0.950 . S
H1867 C1896 0.950 . S
H1868 C1898 0.950 . S
H1869 C1899 0.950 . S
C1870 H1852 0.951 . S
C1870 C1871 1.366 . S
C1870 C1872 1.388 . S
C1871 C1870 1.366 . S
C1871 C1875 1.385 . S
C1872 H1853 0.951 . S
C1872 C1870 1.388 . S
C1872 C1873 1.366 . S
C1873 C1872 1.366 . S
C1873 C1874 1.414 . S
C1873 C1876 1.499 . S
C1874 H1854 0.950 . S
C1874 C1873 1.414 . S
C1874 C1875 1.374 . S
C1875 H1855 0.950 . S
C1875 C1871 1.385 . S
C1875 C1874 1.374 . S
C1876 C1873 1.499 . S
C1876 C1877 1.373 . S
C1876 C1878 1.389 . S
C1877 H1856 0.950 . S
C1877 C1876 1.373 . S
C1877 C1893 1.377 . S
C1878 C1876 1.389 . S
C1878 C1879 1.524 . S
C1878 C1892 1.377 . S
C1879 C1878 1.524 . S
C1879 C1880 1.397 . S
C1879 C1884 1.363 . S
C1880 H1857 0.950 . S
C1880 C1879 1.397 . S
C1880 C1881 1.334 . S
C1881 H1858 0.950 . S
C1881 C1880 1.334 . S
C1881 C1882 1.287 . S
C1882 C1881 1.287 . S
C1882 C1883 1.524 . S
C1882 H1901 0.913 . S
C1883 H1859 0.950 . S
C1883 C1882 1.524 . S
C1883 C1884 1.415 . S
C1884 H1860 0.950 . S
C1884 C1879 1.363 . S
C1884 C1883 1.415 . S
C1885 H1861 0.951 . S
C1885 C1886 1.366 . S
C1885 C1887 1.388 . S
C1886 C1885 1.366 . S
C1886 C1890 1.385 . S
C1887 H1862 0.951 . S
C1887 C1885 1.388 . S
C1887 C1888 1.366 . S
C1888 C1887 1.366 . S
C1888 C1889 1.414 . S
C1888 C1891 1.499 . S
C1889 H1863 0.950 . S
C1889 C1888 1.414 . S
C1889 C1890 1.374 . S
C1890 H1864 0.950 . S
C1890 C1886 1.385 . S
C1890 C1889 1.374 . S
C1891 C1888 1.499 . S
C1891 C1892 1.373 . S
C1891 C1893 1.389 . S
C1892 H1865 0.950 . S
C1892 C1878 1.377 . S
C1892 C1891 1.373 . S
C1893 C1877 1.377 . S
C1893 C1891 1.389 . S
C1893 C1894 1.524 . S
C1894 C1893 1.524 . S
C1894 C1895 1.397 . S
C1894 C1899 1.363 . S
C1895 H1866 0.950 . S
C1895 C1894 1.397 . S
C1895 C1896 1.334 . S
C1896 H1867 0.950 . S
C1896 C1895 1.334 . S
C1896 C1897 1.287 . S
C1897 C1896 1.287 . S
C1897 C1898 1.524 . S
C1897 H1900 0.999 . S
C1898 H1868 0.950 . S
C1898 C1897 1.524 . S
C1898 C1899 1.415 . S
C1899 H1869 0.950 . S
C1899 C1894 1.363 . S
C1899 C1898 1.415 . S
H1900 C1897 0.999 . S
H1901 C1882 0.913 . S
H1902 C1920 0.951 . S
H1903 C1922 0.951 . S
H1904 C1924 0.950 . S
H1905 C1925 0.950 . S
H1906 C1927 0.950 . S
H1907 C1930 0.950 . S
H1908 C1931 0.950 1_556 S
H1909 C1933 0.950 . S
H1910 C1934 0.950 . S
H1911 C1935 0.951 . S
H1912 C1937 0.951 . S
H1913 C1939 0.950 . S
H1914 C1940 0.950 . S
H1915 C1942 0.950 . S
H1916 C1945 0.950 . S
H1917 C1946 0.950 . S
H1918 C1948 0.950 . S
H1919 C1949 0.950 . S
C1920 H1902 0.951 . S
C1920 C1921 1.366 . S
C1920 C1922 1.388 . S
C1921 C1920 1.366 . S
C1921 C1925 1.385 . S
C1922 H1903 0.951 . S
C1922 C1920 1.388 . S
C1922 C1923 1.366 . S
C1923 C1922 1.366 . S
C1923 C1924 1.414 . S
C1923 C1926 1.499 . S
C1924 H1904 0.950 . S
C1924 C1923 1.414 . S
C1924 C1925 1.374 . S
C1925 H1905 0.950 . S
C1925 C1921 1.385 . S
C1925 C1924 1.374 . S
C1926 C1923 1.499 . S
C1926 C1927 1.373 . S
C1926 C1928 1.389 . S
C1927 H1906 0.950 . S
C1927 C1926 1.373 . S
C1927 C1943 1.377 . S
C1928 C1926 1.389 . S
C1928 C1929 1.524 . S
C1928 C1942 1.377 . S
C1929 C1928 1.524 . S
C1929 C1930 1.397 . S
C1929 C1934 1.363 . S
C1930 H1907 0.950 . S
C1930 C1929 1.397 . S
C1930 C1931 1.334 . S
C1931 H1908 0.950 1_554 S
C1931 C1930 1.334 . S
C1931 C1932 1.287 . S
C1932 C1931 1.287 . S
C1932 C1933 1.524 . S
C1932 H1951 0.913 1_554 S
C1933 H1909 0.950 . S
C1933 C1932 1.524 . S
C1933 C1934 1.415 . S
C1934 H1910 0.950 . S
C1934 C1929 1.363 . S
C1934 C1933 1.415 . S
C1935 H1911 0.951 . S
C1935 C1936 1.366 . S
C1935 C1937 1.388 . S
C1936 C1935 1.366 . S
C1936 C1940 1.385 . S
C1937 H1912 0.951 . S
C1937 C1935 1.388 . S
C1937 C1938 1.366 . S
C1938 C1937 1.366 . S
C1938 C1939 1.414 . S
C1938 C1941 1.499 . S
C1939 H1913 0.950 . S
C1939 C1938 1.414 . S
C1939 C1940 1.374 . S
C1940 H1914 0.950 . S
C1940 C1936 1.385 . S
C1940 C1939 1.374 . S
C1941 C1938 1.499 . S
C1941 C1942 1.373 . S
C1941 C1943 1.389 . S
C1942 H1915 0.950 . S
C1942 C1928 1.377 . S
C1942 C1941 1.373 . S
C1943 C1927 1.377 . S
C1943 C1941 1.389 . S
C1943 C1944 1.524 . S
C1944 C1943 1.524 . S
C1944 C1945 1.397 . S
C1944 C1949 1.363 . S
C1945 H1916 0.950 . S
C1945 C1944 1.397 . S
C1945 C1946 1.334 . S
C1946 H1917 0.950 . S
C1946 C1945 1.334 . S
C1946 C1947 1.287 . S
C1947 C1946 1.287 . S
C1947 C1948 1.524 . S
C1947 H1950 0.999 . S
C1948 H1918 0.950 . S
C1948 C1947 1.524 . S
C1948 C1949 1.415 . S
C1949 H1919 0.950 . S
C1949 C1944 1.363 . S
C1949 C1948 1.415 . S
H1950 C1947 0.999 . S
H1951 C1932 0.913 1_556 S
H1952 C1970 0.951 . S
H1953 C1972 0.951 . S
H1954 C1974 0.950 . S
H1955 C1975 0.950 . S
H1956 C1977 0.950 . S
H1957 C1980 0.950 . S
H1958 C1981 0.950 . S
H1959 C1983 0.950 . S
H1960 C1984 0.950 . S
H1961 C1985 0.951 . S
H1962 C1987 0.951 . S
H1963 C1989 0.950 . S
H1964 C1990 0.950 . S
H1965 C1992 0.950 . S
H1966 C1995 0.950 . S
H1967 C1996 0.950 . S
H1968 C1998 0.950 . S
H1969 C1999 0.950 . S
C1970 H1952 0.951 . S
C1970 C1971 1.366 . S
C1970 C1972 1.388 . S
C1971 C1970 1.366 . S
C1971 C1975 1.385 . S
C1972 H1953 0.951 . S
C1972 C1970 1.388 . S
C1972 C1973 1.366 . S
C1973 C1972 1.366 . S
C1973 C1974 1.414 . S
C1973 C1976 1.499 . S
C1974 H1954 0.950 . S
C1974 C1973 1.414 . S
C1974 C1975 1.374 . S
C1975 H1955 0.950 . S
C1975 C1971 1.385 . S
C1975 C1974 1.374 . S
C1976 C1973 1.499 . S
C1976 C1977 1.373 . S
C1976 C1978 1.389 . S
C1977 H1956 0.950 . S
C1977 C1976 1.373 . S
C1977 C1993 1.377 . S
C1978 C1976 1.389 . S
C1978 C1979 1.524 . S
C1978 C1992 1.377 . S
C1979 C1978 1.524 . S
C1979 C1980 1.397 . S
C1979 C1984 1.363 . S
C1980 H1957 0.950 . S
C1980 C1979 1.397 . S
C1980 C1981 1.334 . S
C1981 H1958 0.950 . S
C1981 C1980 1.334 . S
C1981 C1982 1.287 . S
C1982 C1981 1.287 . S
C1982 C1983 1.524 . S
C1982 H2001 0.913 . S
C1983 H1959 0.950 . S
C1983 C1982 1.524 . S
C1983 C1984 1.415 . S
C1984 H1960 0.950 . S
C1984 C1979 1.363 . S
C1984 C1983 1.415 . S
C1985 H1961 0.951 . S
C1985 C1986 1.366 . S
C1985 C1987 1.388 . S
C1986 C1985 1.366 . S
C1986 C1990 1.385 1_556 S
C1987 H1962 0.951 . S
C1987 C1985 1.388 . S
C1987 C1988 1.366 . S
C1988 C1987 1.366 . S
C1988 C1989 1.414 . S
C1988 C1991 1.499 . S
C1989 H1963 0.950 . S
C1989 C1988 1.414 . S
C1989 C1990 1.374 1_556 S
C1990 H1964 0.950 . S
C1990 C1986 1.385 1_554 S
C1990 C1989 1.374 1_554 S
C1991 C1988 1.499 . S
C1991 C1992 1.373 . S
C1991 C1993 1.389 . S
C1992 H1965 0.950 . S
C1992 C1978 1.377 . S
C1992 C1991 1.373 . S
C1993 C1977 1.377 . S
C1993 C1991 1.389 . S
C1993 C1994 1.524 . S
C1994 C1993 1.524 . S
C1994 C1995 1.397 . S
C1994 C1999 1.363 . S
C1995 H1966 0.950 . S
C1995 C1994 1.397 . S
C1995 C1996 1.334 . S
C1996 H1967 0.950 . S
C1996 C1995 1.334 . S
C1996 C1997 1.287 . S
C1997 C1996 1.287 . S
C1997 C1998 1.524 . S
C1997 H2000 0.999 . S
C1998 H1968 0.950 . S
C1998 C1997 1.524 . S
C1998 C1999 1.415 . S
C1999 H1969 0.950 . S
C1999 C1994 1.363 . S
C1999 C1998 1.415 . S
H2000 C1997 0.999 . S
H2001 C1982 0.913 . S
H2002 C2020 0.951 . S
H2003 C2022 0.951 . S
H2004 C2024 0.950 . S
H2005 C2025 0.950 . S
H2006 C2027 0.950 . S
H2007 C2030 0.950 . S
H2008 C2031 0.950 . S
H2009 C2033 0.950 1_554 S
H2010 C2034 0.950 . S
H2011 C2035 0.951 . S
H2012 C2037 0.951 . S
H2013 C2039 0.950 . S
H2014 C2040 0.950 . S
H2015 C2042 0.950 . S
H2016 C2045 0.950 . S
H2017 C2046 0.950 . S
H2018 C2048 0.950 . S
H2019 C2049 0.950 . S
C2020 H2002 0.951 . S
C2020 C2021 1.366 . S
C2020 C2022 1.388 . S
C2021 C2020 1.366 . S
C2021 C2025 1.385 . S
C2022 H2003 0.951 . S
C2022 C2020 1.388 . S
C2022 C2023 1.366 . S
C2023 C2022 1.366 . S
C2023 C2024 1.414 . S
C2023 C2026 1.499 . S
C2024 H2004 0.950 . S
C2024 C2023 1.414 . S
C2024 C2025 1.374 . S
C2025 H2005 0.950 . S
C2025 C2021 1.385 . S
C2025 C2024 1.374 . S
C2026 C2023 1.499 . S
C2026 C2027 1.373 . S
C2026 C2028 1.389 . S
C2027 H2006 0.950 . S
C2027 C2026 1.373 . S
C2027 C2043 1.377 . S
C2028 C2026 1.389 . S
C2028 C2029 1.524 . S
C2028 C2042 1.377 . S
C2029 C2028 1.524 . S
C2029 C2030 1.397 . S
C2029 C2034 1.363 . S
C2030 H2007 0.950 . S
C2030 C2029 1.397 . S
C2030 C2031 1.334 1_556 S
C2031 H2008 0.950 . S
C2031 C2030 1.334 1_554 S
C2031 C2032 1.287 . S
C2032 C2031 1.287 . S
C2032 C2033 1.524 1_554 S
C2032 H2051 0.913 . S
C2033 H2009 0.950 1_556 S
C2033 C2032 1.524 1_556 S
C2033 C2034 1.415 . S
C2034 H2010 0.950 . S
C2034 C2029 1.363 . S
C2034 C2033 1.415 . S
C2035 H2011 0.951 . S
C2035 C2036 1.366 . S
C2035 C2037 1.388 . S
C2036 C2035 1.366 . S
C2036 C2040 1.385 . S
C2037 H2012 0.951 . S
C2037 C2035 1.388 . S
C2037 C2038 1.366 . S
C2038 C2037 1.366 . S
C2038 C2039 1.414 . S
C2038 C2041 1.499 . S
C2039 H2013 0.950 . S
C2039 C2038 1.414 . S
C2039 C2040 1.374 . S
C2040 H2014 0.950 . S
C2040 C2036 1.385 . S
C2040 C2039 1.374 . S
C2041 C2038 1.499 . S
C2041 C2042 1.373 . S
C2041 C2043 1.389 . S
C2042 H2015 0.950 . S
C2042 C2028 1.377 . S
C2042 C2041 1.373 . S
C2043 C2027 1.377 . S
C2043 C2041 1.389 . S
C2043 C2044 1.524 . S
C2044 C2043 1.524 . S
C2044 C2045 1.397 . S
C2044 C2049 1.363 . S
C2045 H2016 0.950 . S
C2045 C2044 1.397 . S
C2045 C2046 1.334 . S
C2046 H2017 0.950 . S
C2046 C2045 1.334 . S
C2046 C2047 1.287 . S
C2047 C2046 1.287 . S
C2047 C2048 1.524 . S
C2047 H2050 0.999 . S
C2048 H2018 0.950 . S
C2048 C2047 1.524 . S
C2048 C2049 1.415 . S
C2049 H2019 0.950 . S
C2049 C2044 1.363 . S
C2049 C2048 1.415 . S
H2050 C2047 0.999 . S
H2051 C2032 0.913 . S
C271 C221 1.929 . S
C286 C0 2.014 . S
C321 C25 2.029 . S
C336 C224 2.093 . S
C371 C28 1.527 . S
C386 C238 1.543 . S
C421 C165 2.176 . S
C436 C39 2.038 . S
C471 C126 1.526 . S
C486 C11 1.553 . S
C521 C151 2.092 . S
C536 C14 2.182 . S
C571 C95 1.981 . S
C586 C53 1.870 1_655 S
C621 C56 1.881 . S
C636 C109 1.840 . S
C671 C70 1.595 . S
C686 C123 1.587 . S
C721 C81 2.132 1_556 S
C736 C207 2.002 . S
C771 C42 1.580 . S
C786 C179 1.614 . S
C821 C67 2.035 . S
C836 C182 2.114 . S
C871 C112 1.679 . S
C886 C249 1.740 . S
C921 C210 1.689 . S
C936 C84 1.709 . S
C971 C98 1.841 . S
C986 C235 1.838 . S
C1021 C168 2.250 1_556 S
C1036 C137 2.128 . S
C1071 C140 2.218 . S
C1086 C193 2.133 . S
C1121 C154 1.625 . S
C1136 C196 1.599 . S
C1171 C5 0.507 . S
C1186 C37 0.545 . S
C1221 C9 0.620 . S
C1236 C23 0.627 . S
C1271 C19 1.820 1_556 S
C1286 C33 1.770 . S
C1321 C51 0.641 . S
C1336 C79 0.600 . S
C1371 C61 1.641 . S
C1386 C47 1.622 1_554 S
C1421 C65 0.723 . S
C1436 C75 0.721 . S
C1471 C93 0.584 . S
C1486 C117 0.634 . S
C1521 C107 0.644 . S
C1536 C89 0.657 . S
C1571 C121 1.081 . S
C1586 C103 1.073 . S
C1621 C135 0.594 . S
C1636 C163 0.538 1_556 S
C1671 C131 1.982 1_554 S
C1686 C145 1.998 1_556 S
C1721 C159 0.720 . S
C1736 C149 0.722 . S
C1771 C205 0.631 . S
C1786 C173 0.588 . S
C1821 C191 0.806 . S
C1836 C177 0.807 . S
C1871 C201 1.863 1_554 S
C1886 C187 1.902 . S
C1921 C247 0.543 . S
C1936 C219 0.529 . S
C1971 C215 1.244 . S
C1986 C229 1.326 1_556 S
C2021 C243 0.521 . S
C2036 C233 0.577 . S
