# Generated by pormake.
# Topology uku, (4)-cn, num edge types: 1
# Building blocks:
#     Node 0, Type 0, BuildingBlock: QUQFOY_clean_sbu_1, # of connection points: 4
#     Node 1, Type 0, BuildingBlock: QUQFOY_clean_sbu_1, # of connection points: 4
#     Node 2, Type 0, BuildingBlock: QUQFOY_clean_sbu_1, # of connection points: 4
#     Node 3, Type 0, BuildingBlock: QUQFOY_clean_sbu_1, # of connection points: 4
#     Node 4, Type 0, BuildingBlock: QUQFOY_clean_sbu_1, # of connection points: 4
#     Node 5, Type 0, BuildingBlock: QUQFOY_clean_sbu_1, # of connection points: 4
#     Node 6, Type 0, BuildingBlock: QUQFOY_clean_sbu_1, # of connection points: 4
#     Node 7, Type 0, BuildingBlock: QUQFOY_clean_sbu_1, # of connection points: 4
#     Node 8, Type 0, BuildingBlock: QUQFOY_clean_sbu_1, # of connection points: 4
#     Node 9, Type 0, BuildingBlock: QUQFOY_clean_sbu_1, # of connection points: 4
#     Node 10, Type 0, BuildingBlock: QUQFOY_clean_sbu_1, # of connection points: 4
#     Node 11, Type 0, BuildingBlock: QUQFOY_clean_sbu_1, # of connection points: 4
#     Edge 12, Type (0, 0), BuildingBlock: XIVTED_clean_linker_0, # of connection points: 2
#     Edge 13, Type (0, 0), BuildingBlock: XIVTED_clean_linker_0, # of connection points: 2
#     Edge 14, Type (0, 0), BuildingBlock: XIVTED_clean_linker_0, # of connection points: 2
#     Edge 15, Type (0, 0), BuildingBlock: XIVTED_clean_linker_0, # of connection points: 2
#     Edge 16, Type (0, 0), BuildingBlock: XIVTED_clean_linker_0, # of connection points: 2
#     Edge 17, Type (0, 0), BuildingBlock: XIVTED_clean_linker_0, # of connection points: 2
#     Edge 18, Type (0, 0), BuildingBlock: XIVTED_clean_linker_0, # of connection points: 2
#     Edge 19, Type (0, 0), BuildingBlock: XIVTED_clean_linker_0, # of connection points: 2
#     Edge 20, Type (0, 0), BuildingBlock: XIVTED_clean_linker_0, # of connection points: 2
#     Edge 21, Type (0, 0), BuildingBlock: XIVTED_clean_linker_0, # of connection points: 2
#     Edge 22, Type (0, 0), BuildingBlock: XIVTED_clean_linker_0, # of connection points: 2
#     Edge 23, Type (0, 0), BuildingBlock: XIVTED_clean_linker_0, # of connection points: 2
#     Edge 24, Type (0, 0), BuildingBlock: XIVTED_clean_linker_0, # of connection points: 2
#     Edge 25, Type (0, 0), BuildingBlock: XIVTED_clean_linker_0, # of connection points: 2
#     Edge 26, Type (0, 0), BuildingBlock: XIVTED_clean_linker_0, # of connection points: 2
#     Edge 27, Type (0, 0), BuildingBlock: XIVTED_clean_linker_0, # of connection points: 2
#     Edge 28, Type (0, 0), BuildingBlock: XIVTED_clean_linker_0, # of connection points: 2
#     Edge 29, Type (0, 0), BuildingBlock: XIVTED_clean_linker_0, # of connection points: 2
#     Edge 30, Type (0, 0), BuildingBlock: XIVTED_clean_linker_0, # of connection points: 2
#     Edge 31, Type (0, 0), BuildingBlock: XIVTED_clean_linker_0, # of connection points: 2
#     Edge 32, Type (0, 0), BuildingBlock: XIVTED_clean_linker_0, # of connection points: 2
#     Edge 33, Type (0, 0), BuildingBlock: XIVTED_clean_linker_0, # of connection points: 2
#     Edge 34, Type (0, 0), BuildingBlock: XIVTED_clean_linker_0, # of connection points: 2
#     Edge 35, Type (0, 0), BuildingBlock: XIVTED_clean_linker_0, # of connection points: 2
# Relax obj value: 0.261
# Max RMSD: 0.220
# Mean RMSD: 0.220
data_MOF--net-uku--node1-QUQFOY_clean_sbu_1--edge1-XIVTED_clean_linker_0
_symmetry_space_group_name_H-M    P1
_symmetry_Int_Tables_number       1
_symmetry_cell_setting            triclinic
loop_
_symmetry_equiv_pos_as_xyz
'x, y, z'
_cell_length_a     43.578863
_cell_length_b     43.606187
_cell_length_c     43.603731
_cell_angle_alpha  90.014433
_cell_angle_beta   89.967784
_cell_angle_gamma 89.985416
loop_
_atom_site_label
_atom_site_type_symbol
_atom_site_fract_x
_atom_site_fract_y
_atom_site_fract_z
_atom_type_partial_charge
O0 O 0.08114 0.10193 0.60822 0.0
Cd1 Cd 0.10649 0.14149 0.60457 0.0
Cd2 Cd 0.08192 0.15257 0.65751 0.0
O3 O 0.05003 0.1205 0.64363 0.0
O4 O 0.10422 0.15627 0.56117 0.0
O5 O 0.07939 0.17786 0.6 0.0
C6 C 0.08384 0.17565 0.57079 0.0
C7 C 0.07133 0.19709 0.68554 0.0
C8 C 0.05705 0.09956 0.62453 0.0
C9 C 0.1481 0.13314 0.65556 0.0
O10 O 0.12294 0.13386 0.67023 0.0
O11 O 0.14868 0.1407 0.62734 0.0
O12 O 0.06607 0.17021 0.69663 0.0
O13 O 0.08039 0.19893 0.65746 0.0
O14 O 0.92353 0.89684 0.6124 0.0
Cd15 Cd 0.89701 0.85805 0.6089 0.0
Cd16 Cd 0.91893 0.84832 0.66292 0.0
O17 O 0.95289 0.87829 0.6492 0.0
O18 O 0.89923 0.84345 0.56543 0.0
O19 O 0.923 0.82085 0.6043 0.0
C20 C 0.91891 0.82341 0.57507 0.0
C21 C 0.92636 0.80275 0.69022 0.0
C22 C 0.94725 0.89884 0.62925 0.0
C23 C 0.85402 0.87027 0.65792 0.0
O24 O 0.87856 0.86965 0.67356 0.0
O25 O 0.85411 0.86086 0.63024 0.0
O26 O 0.93246 0.82909 0.70222 0.0
O27 O 0.91789 0.80206 0.6619 0.0
O28 O 0.08013 0.89532 0.39098 0.0
Cd29 Cd 0.10619 0.85615 0.39432 0.0
Cd30 Cd 0.08468 0.84717 0.34033 0.0
O31 O 0.05059 0.87681 0.35433 0.0
O32 O 0.10348 0.84125 0.4376 0.0
O33 O 0.07965 0.81927 0.39837 0.0
C34 C 0.08355 0.82159 0.42766 0.0
C35 C 0.07726 0.80235 0.31182 0.0
C36 C 0.05635 0.89737 0.37423 0.0
C37 C 0.14951 0.8687 0.34592 0.0
O38 O 0.12499 0.86884 0.33024 0.0
O39 O 0.14928 0.85853 0.37331 0.0
O40 O 0.07123 0.82902 0.30055 0.0
O41 O 0.08574 0.80087 0.34011 0.0
O42 O 0.9201 0.09904 0.38909 0.0
Cd43 Cd 0.89455 0.13862 0.39253 0.0
Cd44 Cd 0.9151 0.14658 0.33807 0.0
O45 O 0.94919 0.1169 0.35176 0.0
O46 O 0.89811 0.15414 0.43554 0.0
O47 O 0.92154 0.1753 0.39562 0.0
C48 C 0.91799 0.17353 0.42499 0.0
C49 C 0.92236 0.19084 0.30874 0.0
C50 C 0.94356 0.09657 0.37192 0.0
C51 C 0.85015 0.12615 0.34516 0.0
O52 O 0.87439 0.12522 0.32905 0.0
O53 O 0.85106 0.13678 0.37236 0.0
O54 O 0.92784 0.16394 0.29774 0.0
O55 O 0.91459 0.19286 0.33721 0.0
O56 O 0.61015 0.08118 0.10263 0.0
Cd57 Cd 0.60613 0.10755 0.14147 0.0
Cd58 Cd 0.66069 0.08676 0.15101 0.0
O59 O 0.64779 0.05267 0.12086 0.0
O60 O 0.56258 0.10465 0.15579 0.0
O61 O 0.6017 0.08153 0.17867 0.0
C62 C 0.57241 0.08515 0.17591 0.0
C63 C 0.68779 0.07934 0.19674 0.0
C64 C 0.62762 0.05794 0.10042 0.0
C65 C 0.65418 0.15144 0.12889 0.0
O66 O 0.67044 0.1273 0.12962 0.0
O67 O 0.62653 0.15083 0.13842 0.0
O68 O 0.70013 0.07379 0.17042 0.0
O69 O 0.65936 0.08751 0.19729 0.0
O70 O 0.38898 0.92109 0.10406 0.0
Cd71 Cd 0.39343 0.89534 0.14327 0.0
Cd72 Cd 0.33845 0.91473 0.15203 0.0
O73 O 0.35066 0.949 0.1218 0.0
O74 O 0.43694 0.89909 0.15733 0.0
O75 O 0.39756 0.9219 0.18017 0.0
C76 C 0.4269 0.91867 0.17729 0.0
C77 C 0.31093 0.92138 0.19761 0.0
C78 C 0.37104 0.94393 0.1015 0.0
C79 C 0.34681 0.85009 0.13071 0.0
O80 O 0.33 0.87386 0.13075 0.0
O81 O 0.37424 0.85149 0.14073 0.0
O82 O 0.29857 0.92659 0.17125 0.0
O83 O 0.33961 0.91411 0.19829 0.0
O84 O 0.61396 0.92404 0.89756 0.0
Cd85 Cd 0.61003 0.89846 0.85817 0.0
Cd86 Cd 0.66359 0.92068 0.84831 0.0
O87 O 0.65007 0.95417 0.87889 0.0
O88 O 0.56626 0.90054 0.84463 0.0
O89 O 0.60437 0.92529 0.82166 0.0
C90 C 0.57522 0.9208 0.82486 0.0
C91 C 0.69108 0.92875 0.80296 0.0
C92 C 0.6306 0.94788 0.89973 0.0
C93 C 0.65905 0.85551 0.86934 0.0
O94 O 0.67452 0.88016 0.86912 0.0
O95 O 0.63138 0.85557 0.85991 0.0
O96 O 0.70289 0.9346 0.82943 0.0
O97 O 0.66276 0.92021 0.80201 0.0
O98 O 0.38592 0.07931 0.90007 0.0
Cd99 Cd 0.39037 0.10605 0.86153 0.0
Cd100 Cd 0.33644 0.08482 0.85104 0.0
O101 O 0.34909 0.05039 0.8809 0.0
O102 O 0.43435 0.10425 0.84852 0.0
O103 O 0.39652 0.08049 0.82417 0.0
C104 C 0.42562 0.08477 0.82788 0.0
C105 C 0.30995 0.07831 0.80484 0.0
C106 C 0.36878 0.05578 0.90177 0.0
C107 C 0.34184 0.14936 0.87392 0.0
O108 O 0.32595 0.12499 0.87286 0.0
O109 O 0.36957 0.14915 0.8646 0.0
O110 O 0.2973 0.07226 0.83089 0.0
O111 O 0.33848 0.08618 0.8048 0.0
O112 O 0.10467 0.61489 0.07826 0.0
Cd113 Cd 0.14406 0.6097 0.10349 0.0
Cd114 Cd 0.15508 0.6633 0.08172 0.0
O115 O 0.124 0.65077 0.04828 0.0
O116 O 0.15671 0.5657 0.10043 0.0
O117 O 0.18013 0.60382 0.07617 0.0
C118 C 0.17638 0.57468 0.08005 0.0
C119 C 0.20149 0.68905 0.07399 0.0
C120 C 0.10277 0.63171 0.05454 0.0
C121 C 0.1342 0.65855 0.14695 0.0
O122 O 0.13471 0.67427 0.12246 0.0
O123 O 0.14301 0.63068 0.14659 0.0
O124 O 0.17551 0.70197 0.06817 0.0
O125 O 0.2013 0.66067 0.08227 0.0
O126 O 0.09855 0.3842 0.91411 0.0
Cd127 Cd 0.13904 0.39015 0.89098 0.0
Cd128 Cd 0.15212 0.33905 0.91857 0.0
O129 O 0.11934 0.35464 0.94951 0.0
O130 O 0.15239 0.43415 0.8939 0.0
O131 O 0.17382 0.396 0.91976 0.0
C132 C 0.17116 0.42509 0.91507 0.0
C133 C 0.19774 0.31309 0.93005 0.0
C134 C 0.09681 0.37058 0.93982 0.0
C135 C 0.13434 0.33771 0.85162 0.0
O136 O 0.13463 0.32442 0.87755 0.0
O137 O 0.14101 0.3661 0.8498 0.0
O138 O 0.1713 0.30115 0.93586 0.0
O139 O 0.19842 0.34093 0.92016 0.0
O140 O 0.89819 0.61445 0.92332 0.0
Cd141 Cd 0.85869 0.61082 0.8979 0.0
Cd142 Cd 0.85019 0.66499 0.91898 0.0
O143 O 0.88051 0.65166 0.95271 0.0
O144 O 0.84449 0.56734 0.90063 0.0
O145 O 0.82211 0.60615 0.92483 0.0
C146 C 0.82486 0.57691 0.92077 0.0
C147 C 0.805 0.6929 0.92651 0.0
C148 C 0.90085 0.63157 0.94677 0.0
C149 C 0.87106 0.65861 0.85399 0.0
O150 O 0.87135 0.67463 0.87829 0.0
O151 O 0.86081 0.63126 0.85461 0.0
O152 O 0.83155 0.70467 0.93213 0.0
O153 O 0.80387 0.66448 0.91839 0.0
O154 O 0.89754 0.38421 0.08268 0.0
Cd155 Cd 0.8571 0.38964 0.10614 0.0
Cd156 Cd 0.84566 0.33854 0.07967 0.0
O157 O 0.87664 0.35476 0.04735 0.0
O158 O 0.84413 0.43377 0.10417 0.0
O159 O 0.82214 0.39634 0.07769 0.0
C160 C 0.82512 0.42532 0.08296 0.0
C161 C 0.7993 0.31304 0.07066 0.0
C162 C 0.89911 0.37088 0.05681 0.0
C163 C 0.86507 0.33804 0.14563 0.0
O164 O 0.86579 0.32465 0.11976 0.0
O165 O 0.85572 0.36568 0.14741 0.0
O166 O 0.82528 0.30081 0.0634 0.0
O167 O 0.79944 0.3408 0.08084 0.0
H168 H 0.97298 0.19969 0.41009 0.0
H169 H 0.02935 0.20368 0.58415 0.0
H170 H 0.91433 0.18043 0.48751 0.0
H171 H 0.08784 0.17947 0.50798 0.0
H172 H 0.98777 0.21447 0.54811 0.0
H173 H 0.0149 0.21153 0.44547 0.0
C174 C 0.96857 0.19886 0.43453 0.0
C175 C 0.94015 0.18864 0.44586 0.0
C176 C 0.00994 0.2075 0.5393 0.0
C177 C 0.98811 0.2022 0.48634 0.0
C178 C 0.03382 0.20152 0.55981 0.0
C179 C 0.06207 0.1902 0.5491 0.0
C180 C 0.01445 0.20256 0.50784 0.0
C181 C 0.06637 0.18784 0.51727 0.0
C182 C 0.99262 0.20542 0.45466 0.0
C183 C 0.93592 0.18792 0.47777 0.0
N184 N 0.04269 0.19361 0.49776 0.0
N185 N 0.95975 0.19427 0.4969 0.0
H186 H 0.02839 0.79523 0.41387 0.0
H187 H 0.9732 0.79504 0.58843 0.0
H188 H 0.08775 0.81602 0.49029 0.0
H189 H 0.91456 0.81892 0.51235 0.0
H190 H 0.01448 0.78332 0.55224 0.0
H191 H 0.9867 0.78448 0.44989 0.0
C192 C 0.03301 0.7966 0.43824 0.0
C193 C 0.06156 0.80695 0.44907 0.0
C194 C 0.99232 0.79042 0.5435 0.0
C195 C 0.01386 0.79463 0.49029 0.0
C196 C 0.96862 0.79692 0.56409 0.0
C197 C 0.94043 0.8084 0.55342 0.0
C198 C 0.98767 0.79495 0.51201 0.0
C199 C 0.93599 0.81043 0.5216 0.0
C200 C 0.00908 0.79067 0.45874 0.0
C201 C 0.06606 0.8084 0.48092 0.0
N202 N 0.95948 0.8041 0.50201 0.0
N203 N 0.04235 0.80265 0.50042 0.0
H204 H 0.41249 0.97358 0.20383 0.0
H205 H 0.58641 0.03095 0.20404 0.0
H206 H 0.48965 0.91536 0.18232 0.0
H207 H 0.50958 0.08869 0.18025 0.0
H208 H 0.55072 0.9892 0.21549 0.0
H209 H 0.44801 0.01568 0.21458 0.0
C210 C 0.43692 0.9693 0.20229 0.0
C211 C 0.44811 0.94095 0.19177 0.0
C212 C 0.5417 0.01126 0.20847 0.0
C213 C 0.48874 0.9891 0.2041 0.0
C214 C 0.562 0.03522 0.20213 0.0
C215 C 0.55099 0.06331 0.19076 0.0
C216 C 0.51014 0.01554 0.20389 0.0
C217 C 0.51909 0.06736 0.18867 0.0
C218 C 0.45713 0.99346 0.20823 0.0
C219 C 0.48002 0.93689 0.19009 0.0
N220 N 0.49979 0.04362 0.19484 0.0
N221 N 0.49923 0.96081 0.19587 0.0
H222 H 0.51269 0.91469 0.82021 0.0
H223 H 0.48822 0.09098 0.82416 0.0
H224 H 0.58683 0.97695 0.79963 0.0
H225 H 0.41427 0.02976 0.80014 0.0
H226 H 0.52498 0.05022 0.81221 0.0
H227 H 0.47601 0.95594 0.80981 0.0
C228 C 0.52123 0.93679 0.81273 0.0
C229 C 0.55289 0.94241 0.81104 0.0
C230 C 0.50074 0.04595 0.80884 0.0
C231 C 0.51111 0.98996 0.80001 0.0
C232 C 0.47974 0.06925 0.81562 0.0
C233 C 0.4481 0.06373 0.8134 0.0
C234 C 0.48998 0.01671 0.80055 0.0
C235 C 0.43844 0.03505 0.80227 0.0
C236 C 0.50029 0.96037 0.80685 0.0
C237 C 0.56264 0.97156 0.8013 0.0
N238 N 0.45924 0.01239 0.79697 0.0
N239 N 0.54188 0.99443 0.79688 0.0
H240 H 0.19844 0.41239 0.96998 0.0
H241 H 0.20143 0.58728 0.02402 0.0
H242 H 0.17427 0.48801 0.91087 0.0
H243 H 0.17949 0.51188 0.08427 0.0
H244 H 0.20994 0.55073 0.98228 0.0
H245 H 0.20985 0.44883 0.01103 0.0
C246 C 0.19632 0.43669 0.96529 0.0
C247 C 0.18501 0.44714 0.93696 0.0
C248 C 0.20394 0.54221 0.00484 0.0
C249 C 0.19817 0.48887 0.98397 0.0
C250 C 0.19932 0.56299 0.02879 0.0
C251 C 0.1894 0.55264 0.05768 0.0
C252 C 0.19916 0.51083 0.00992 0.0
C253 C 0.18688 0.52089 0.06234 0.0
C254 C 0.20267 0.45742 0.98886 0.0
C255 C 0.18268 0.47892 0.93238 0.0
N256 N 0.19146 0.5011 0.03862 0.0
N257 N 0.18894 0.49868 0.95574 0.0
H258 H 0.7999 0.58979 0.9768 0.0
H259 H 0.79716 0.41408 0.02805 0.0
H260 H 0.81898 0.51443 0.91551 0.0
H261 H 0.82304 0.48816 0.08839 0.0
H262 H 0.78645 0.45145 0.98766 0.0
H263 H 0.78962 0.55301 0.01793 0.0
C264 C 0.801 0.5655 0.97167 0.0
C265 C 0.81067 0.55516 0.94269 0.0
C266 C 0.79383 0.45951 0.00997 0.0
C267 C 0.7989 0.5131 0.98973 0.0
C268 C 0.79979 0.43825 0.03316 0.0
C269 C 0.81143 0.44797 0.06161 0.0
C270 C 0.7991 0.49076 0.01536 0.0
C271 C 0.81438 0.47961 0.06676 0.0
C272 C 0.79536 0.54458 0.99527 0.0
C273 C 0.81185 0.52341 0.93753 0.0
N274 N 0.80855 0.49989 0.04374 0.0
N275 N 0.80633 0.50349 0.96092 0.0
H276 H 0.20975 0.13751 0.63943 0.0
H277 H 0.32415 0.10533 0.74964 0.0
H278 H 0.14903 0.10233 0.70934 0.0
H279 H 0.25249 0.05541 0.79619 0.0
H280 H 0.2886 0.11617 0.70767 0.0
H281 H 0.25375 0.11964 0.66989 0.0
C282 C 0.20569 0.12608 0.66111 0.0
C283 C 0.17566 0.12193 0.67204 0.0
C284 C 0.28076 0.1022 0.72658 0.0
C285 C 0.22563 0.10154 0.7071 0.0
C286 C 0.30115 0.09596 0.75064 0.0
C287 C 0.29115 0.07971 0.77663 0.0
C288 C 0.25022 0.09195 0.72863 0.0
C289 C 0.26112 0.06831 0.7768 0.0
C290 C 0.23082 0.116 0.67863 0.0
C291 C 0.17169 0.10664 0.7001 0.0
N292 N 0.24173 0.07494 0.75342 0.0
N293 N 0.19624 0.09716 0.71651 0.0
H294 H 0.74568 0.95779 0.79459 0.0
H295 H 0.79238 0.85719 0.64838 0.0
H296 H 0.68159 0.89787 0.74888 0.0
H297 H 0.85349 0.91495 0.70051 0.0
H298 H 0.74892 0.87742 0.67864 0.0
H299 H 0.78251 0.94893 0.75359 0.0
C300 C 0.73919 0.94312 0.77561 0.0
C301 C 0.7107 0.9283 0.77531 0.0
C302 C 0.77185 0.88586 0.68308 0.0
C303 C 0.75316 0.91728 0.72845 0.0
C304 C 0.79656 0.87439 0.66581 0.0
C305 C 0.82657 0.88402 0.67236 0.0
C306 C 0.77742 0.90726 0.70666 0.0
C307 C 0.8308 0.90639 0.6951 0.0
C308 C 0.76029 0.93793 0.75219 0.0
C309 C 0.7034 0.90969 0.75 0.0
N310 N 0.80664 0.91703 0.71145 0.0
N311 N 0.72474 0.90424 0.7278 0.0
H312 H 0.32305 0.89275 0.25239 0.0
H313 H 0.15091 0.91841 0.30959 0.0
H314 H 0.25491 0.94767 0.20622 0.0
H315 H 0.21035 0.85043 0.3499 0.0
H316 H 0.19352 0.93726 0.27909 0.0
H317 H 0.28678 0.8846 0.29479 0.0
C318 C 0.30073 0.90363 0.25148 0.0
C319 C 0.29182 0.92069 0.22562 0.0
C320 C 0.19752 0.91839 0.29473 0.0
C321 C 0.25042 0.91142 0.27384 0.0
C322 C 0.17316 0.90762 0.3122 0.0
C323 C 0.17705 0.88252 0.3319 0.0
C324 C 0.22609 0.90371 0.29644 0.0
C325 C 0.20646 0.86976 0.33482 0.0
C326 C 0.28002 0.89881 0.27559 0.0
C327 C 0.26263 0.93412 0.22554 0.0
N328 N 0.22988 0.88018 0.3168 0.0
N329 N 0.24297 0.92903 0.24912 0.0
H330 H 0.6763 0.10834 0.25146 0.0
H331 H 0.84658 0.07549 0.3103 0.0
H332 H 0.74273 0.05099 0.20567 0.0
H333 H 0.79022 0.14708 0.3488 0.0
H334 H 0.80329 0.05808 0.27986 0.0
H335 H 0.71244 0.11497 0.2942 0.0
C336 C 0.6982 0.09662 0.2507 0.0
C337 C 0.7067 0.0793 0.22486 0.0
C338 C 0.80011 0.07741 0.29514 0.0
C339 C 0.74793 0.08681 0.27348 0.0
C340 C 0.82483 0.08733 0.31259 0.0
C341 C 0.82202 0.11302 0.33171 0.0
C342 C 0.7723 0.09355 0.2963 0.0
C343 C 0.79325 0.12723 0.33419 0.0
C344 C 0.71883 0.10057 0.275 0.0
C345 C 0.73536 0.06477 0.22497 0.0
N346 N 0.7695 0.11762 0.31619 0.0
N347 N 0.75495 0.06901 0.24876 0.0
H348 H 0.69035 0.15196 0.07901 0.0
H349 H 0.74534 0.32485 0.10096 0.0
H350 H 0.64901 0.21272 0.14522 0.0
H351 H 0.78926 0.25801 0.04263 0.0
H352 H 0.70344 0.28843 0.11022 0.0
H353 H 0.71949 0.19461 0.05827 0.0
C354 C 0.68725 0.1745 0.08904 0.0
C355 C 0.66765 0.17878 0.11418 0.0
C356 C 0.72198 0.28199 0.09497 0.0
C357 C 0.70153 0.22793 0.09079 0.0
C358 C 0.74582 0.30281 0.0895 0.0
C359 C 0.77102 0.29429 0.07124 0.0
C360 C 0.72335 0.25258 0.08192 0.0
C361 C 0.77049 0.26545 0.05711 0.0
C362 C 0.70392 0.1989 0.07715 0.0
C363 C 0.66405 0.20852 0.12591 0.0
N364 N 0.74725 0.24559 0.06298 0.0
N365 N 0.68132 0.23199 0.11444 0.0
H366 H 0.2551 0.67669 0.1046 0.0
H367 H 0.31419 0.84782 0.07861 0.0
H368 H 0.21223 0.74376 0.04586 0.0
H369 H 0.35034 0.78958 0.14982 0.0
H370 H 0.28523 0.80477 0.05834 0.0
H371 H 0.29761 0.71258 0.11355 0.0
C372 C 0.25499 0.69865 0.093 0.0
C373 C 0.22995 0.70744 0.07469 0.0
C374 C 0.29968 0.80111 0.0782 0.0
C375 C 0.27828 0.74843 0.08491 0.0
C376 C 0.31627 0.82571 0.08977 0.0
C377 C 0.33428 0.82227 0.11616 0.0
C378 C 0.30053 0.7728 0.09342 0.0
C379 C 0.33657 0.79309 0.12947 0.0
C380 C 0.27915 0.71916 0.09829 0.0
C381 C 0.23089 0.73617 0.06039 0.0
N382 N 0.31935 0.76946 0.11825 0.0
N383 N 0.25448 0.75567 0.06599 0.0
H384 H 0.79681 0.74764 0.95529 0.0
H385 H 0.65024 0.79401 0.85524 0.0
H386 H 0.75082 0.68334 0.89583 0.0
H387 H 0.70118 0.85477 0.91441 0.0
H388 H 0.68084 0.75062 0.87501 0.0
H389 H 0.75564 0.78432 0.94669 0.0
C390 C 0.77775 0.74108 0.94075 0.0
C391 C 0.77739 0.71257 0.92601 0.0
C392 C 0.68494 0.77345 0.88387 0.0
C393 C 0.73032 0.75484 0.91529 0.0
C394 C 0.66747 0.79811 0.87265 0.0
C395 C 0.67362 0.82802 0.8828 0.0
C396 C 0.7083 0.77896 0.90552 0.0
C397 C 0.6961 0.83217 0.90544 0.0
C398 C 0.75422 0.76208 0.93572 0.0
C399 C 0.75198 0.70518 0.90758 0.0
N400 N 0.71265 0.80806 0.91581 0.0
N401 N 0.72967 0.72642 0.90227 0.0
H402 H 0.3022 0.14931 0.92119 0.0
H403 H 0.25308 0.32423 0.90205 0.0
H404 H 0.3492 0.211 0.85982 0.0
H405 H 0.20564 0.25756 0.95769 0.0
H406 H 0.29432 0.28688 0.89343 0.0
H407 H 0.27309 0.19207 0.94168 0.0
C408 C 0.30651 0.17205 0.91213 0.0
C409 C 0.32776 0.17657 0.8884 0.0
C410 C 0.27516 0.28068 0.90798 0.0
C411 C 0.29397 0.22595 0.91159 0.0
C412 C 0.2517 0.30203 0.9131 0.0
C413 C 0.2257 0.29384 0.93036 0.0
C414 C 0.27258 0.25106 0.92035 0.0
C415 C 0.22506 0.26476 0.94398 0.0
C416 C 0.28987 0.19653 0.92391 0.0
C417 C 0.33286 0.20658 0.87799 0.0
N418 N 0.24794 0.24438 0.93842 0.0
N419 N 0.31564 0.23018 0.88931 0.0
H420 H 0.04843 0.79504 0.25701 0.0
H421 H 0.14741 0.64822 0.20843 0.0
H422 H 0.10806 0.74807 0.32045 0.0
H423 H 0.09047 0.7021 0.14806 0.0
H424 H 0.12777 0.67835 0.25225 0.0
H425 H 0.05709 0.75454 0.21963 0.0
C426 C 0.06302 0.77591 0.26322 0.0
C427 C 0.0778 0.77508 0.29171 0.0
C428 C 0.1194 0.68322 0.22939 0.0
C429 C 0.08858 0.72878 0.24864 0.0
C430 C 0.13054 0.66603 0.20449 0.0
C431 C 0.12097 0.67309 0.17459 0.0
C432 C 0.09837 0.7072 0.22413 0.0
C433 C 0.099 0.69628 0.17065 0.0
C434 C 0.0681 0.75276 0.24182 0.0
C435 C 0.09628 0.74958 0.29865 0.0
N436 N 0.08866 0.71251 0.19499 0.0
N437 N 0.10161 0.72764 0.27703 0.0
H438 H 0.04223 0.20343 0.7404 0.0
H439 H 0.1201 0.27726 0.85069 0.0
H440 H 0.10181 0.25169 0.6778 0.0
H441 H 0.12442 0.35651 0.79136 0.0
H442 H 0.09894 0.24759 0.80906 0.0
H443 H 0.05353 0.24163 0.77969 0.0
C444 C 0.05731 0.22236 0.73477 0.0
C445 C 0.07162 0.22404 0.70606 0.0
C446 C 0.10397 0.2716 0.80516 0.0
C447 C 0.08568 0.26705 0.75129 0.0
C448 C 0.1165 0.2886 0.82889 0.0
C449 C 0.1238 0.31969 0.82475 0.0
C450 C 0.09857 0.28548 0.77671 0.0
C451 C 0.11896 0.33267 0.79561 0.0
C452 C 0.064 0.24397 0.75728 0.0
C453 C 0.09056 0.24941 0.69983 0.0
N454 N 0.10674 0.31539 0.7725 0.0
N455 N 0.09757 0.26972 0.72253 0.0
H456 H 0.9209 0.6948 0.85229 0.0
H457 H 0.89659 0.74838 0.67913 0.0
H458 H 0.85339 0.65334 0.79311 0.0
H459 H 0.95375 0.79415 0.74567 0.0
H460 H 0.88786 0.70681 0.71611 0.0
H461 H 0.94063 0.72389 0.80915 0.0
C462 C 0.91037 0.69166 0.82999 0.0
C463 C 0.88515 0.67206 0.82631 0.0
C464 C 0.90272 0.72571 0.72236 0.0
C465 C 0.90739 0.70587 0.77662 0.0
C466 C 0.90787 0.74934 0.70124 0.0
C467 C 0.92568 0.77491 0.70951 0.0
C468 C 0.91569 0.72765 0.75177 0.0
C469 C 0.9396 0.77506 0.73845 0.0
C470 C 0.92167 0.70831 0.80532 0.0
C471 C 0.87277 0.6684 0.79685 0.0
N472 N 0.93411 0.75197 0.75855 0.0
N473 N 0.8837 0.68564 0.7731 0.0
H474 H 0.94825 0.19632 0.25224 0.0
H475 H 0.85533 0.34851 0.20775 0.0
H476 H 0.89384 0.24626 0.31817 0.0
H477 H 0.90333 0.28934 0.14445 0.0
H478 H 0.87474 0.31685 0.2505 0.0
H479 H 0.93881 0.23648 0.21474 0.0
C480 C 0.93465 0.21601 0.25896 0.0
C481 C 0.92154 0.21778 0.28822 0.0
C482 C 0.88111 0.31108 0.22719 0.0
C483 C 0.9099 0.26374 0.24506 0.0
C484 C 0.87006 0.3291 0.20287 0.0
C485 C 0.87729 0.32126 0.17248 0.0
C486 C 0.89975 0.28546 0.22088 0.0
C487 C 0.89661 0.29599 0.16742 0.0
C488 C 0.92911 0.23895 0.23748 0.0
C489 C 0.9043 0.24399 0.29576 0.0
N490 N 0.907 0.27906 0.19124 0.0
N491 N 0.89854 0.26578 0.27412 0.0
H492 H 0.05017 0.06054 0.57602 0.0
H493 H 0.98071 0.92527 0.67506 0.0
H494 H 0.02417 0.07314 0.6707 0.0
H495 H 0.95638 0.93602 0.57974 0.0
H496 H 0.007 0.97497 0.67328 0.0
H497 H 0.02444 0.01045 0.5763 0.0
C498 C 0.03884 0.05284 0.59675 0.0
C499 C 0.03909 0.07098 0.62333 0.0
C500 C 0.99603 0.96626 0.65276 0.0
C501 C 0.01068 0.01368 0.62402 0.0
C502 C 0.98135 0.93785 0.65365 0.0
C503 C 0.96636 0.92664 0.62751 0.0
C504 C 0.99626 0.98314 0.62537 0.0
C505 C 0.96758 0.94399 0.60042 0.0
C506 C 0.02427 0.02435 0.59689 0.0
C507 C 0.02421 0.05996 0.64965 0.0
N508 N 0.98241 0.97138 0.59998 0.0
N509 N 0.01091 0.03179 0.64946 0.0
H510 H 0.97734 0.07067 0.32605 0.0
H511 H 0.04738 0.93494 0.42355 0.0
H512 H 0.95177 0.05833 0.4209 0.0
H513 H 0.02316 0.92371 0.32826 0.0
H514 H 0.02023 0.98429 0.42399 0.0
H515 H 0.00374 0.02107 0.32734 0.0
C516 C 0.97768 0.05774 0.34726 0.0
C517 C 0.96237 0.06852 0.37342 0.0
C518 C 0.02072 0.97082 0.40312 0.0
C519 C 0.99243 0.01208 0.37498 0.0
C520 C 0.03612 0.94277 0.40283 0.0
C521 C 0.03735 0.92527 0.37585 0.0
C522 C 0.00729 0.98172 0.37602 0.0
C523 C 0.0225 0.93641 0.34959 0.0
C524 C 0.99244 0.02938 0.34786 0.0
C525 C 0.96324 0.05071 0.40022 0.0
N526 N 0.0084 0.96418 0.3502 0.0
N527 N 0.97818 0.02336 0.40038 0.0
H528 H 0.67629 0.98211 0.92546 0.0
H529 H 0.5782 0.04741 0.06354 0.0
H530 H 0.58197 0.95492 0.93855 0.0
H531 H 0.67457 0.0268 0.07309 0.0
H532 H 0.57815 0.02105 0.01382 0.0
H533 H 0.67512 0.00775 0.97553 0.0
C534 C 0.65522 0.98195 0.93866 0.0
C535 C 0.62918 0.96641 0.92795 0.0
C536 C 0.59919 0.02214 0.02698 0.0
C537 C 0.62775 0.99553 0.9849 0.0
C538 C 0.59925 0.03708 0.05527 0.0
C539 C 0.62641 0.03911 0.0724 0.0
C540 C 0.62666 0.00994 0.01548 0.0
C541 C 0.6531 0.02546 0.06068 0.0
C542 C 0.6547 0.99626 0.96728 0.0
C543 C 0.60256 0.96659 0.94609 0.0
N544 N 0.65267 0.01177 0.03269 0.0
N545 N 0.60246 0.98107 0.97368 0.0
H546 H 0.42045 0.95455 0.0646 0.0
H547 H 0.32259 0.02173 0.92699 0.0
H548 H 0.32392 0.97461 0.0739 0.0
H549 H 0.41738 0.04712 0.94018 0.0
H550 H 0.32345 0.99526 0.97663 0.0
H551 H 0.42056 0.98091 0.01494 0.0
C552 C 0.39936 0.96473 0.05628 0.0
C553 C 0.37216 0.96258 0.07336 0.0
C554 C 0.34405 0.00652 0.96849 0.0
C555 C 0.37198 0.99181 0.01647 0.0
C556 C 0.34369 0.02131 0.94011 0.0
C557 C 0.36996 0.03661 0.92957 0.0
C558 C 0.37104 0.00655 0.98603 0.0
C559 C 0.39662 0.03566 0.94759 0.0
C560 C 0.39945 0.97968 0.02801 0.0
C561 C 0.34543 0.97605 0.06155 0.0
N562 N 0.39654 0.02077 0.97494 0.0
N563 N 0.34591 0.98981 0.03359 0.0
H564 H 0.93772 0.5819 0.956 0.0
H565 H 0.07721 0.67815 0.02115 0.0
H566 H 0.92894 0.67801 0.97793 0.0
H567 H 0.06366 0.58355 0.04687 0.0
H568 H 0.02692 0.67776 0.99585 0.0
H569 H 0.98785 0.58126 0.98153 0.0
C570 C 0.94626 0.60277 0.96644 0.0
C571 C 0.9292 0.63002 0.96506 0.0
C572 C 0.03513 0.6571 0.00693 0.0
C573 C 0.98659 0.62961 0.99328 0.0
C574 C 0.06387 0.65719 0.02104 0.0
C575 C 0.07449 0.63084 0.03609 0.0
C576 C 0.01733 0.63029 0.00737 0.0
C577 C 0.05619 0.60437 0.03559 0.0
C578 C 0.97478 0.60238 0.98091 0.0
C579 C 0.94128 0.65647 0.97881 0.0
N580 N 0.0285 0.6047 0.02133 0.0
N581 N 0.96949 0.65572 0.99204 0.0
H582 H 0.03993 0.38355 0.91755 0.0
H583 H 0.95596 0.38462 0.07862 0.0
H584 H 0.08734 0.36004 0.00121 0.0
H585 H 0.90834 0.3599 0.99541 0.0
H586 H 0.00435 0.38481 0.05031 0.0
H587 H 0.99142 0.38397 0.94571 0.0
C588 C 0.04017 0.37869 0.94191 0.0
C589 C 0.06772 0.3718 0.95713 0.0
C590 C 0.98329 0.37938 0.03829 0.0
C591 C 0.01234 0.37248 0.98935 0.0
C592 C 0.95564 0.37947 0.05431 0.0
C593 C 0.92807 0.37227 0.03928 0.0
C594 C 0.98335 0.37265 0.00689 0.0
C595 C 0.92909 0.36551 0.00785 0.0
C596 C 0.01246 0.37874 0.95785 0.0
C597 C 0.06662 0.36541 0.98863 0.0
N598 N 0.95632 0.36607 0.99258 0.0
N599 N 0.03934 0.36613 0.0038 0.0
loop_
_geom_bond_atom_site_label_1
_geom_bond_atom_site_label_2
_geom_bond_distance
_geom_bond_site_symmetry_2
_ccdc_geom_bond_type
O0 Cd1 2.223 . S
O0 C8 1.315 . S
Cd1 O0 2.223 . S
Cd1 O4 2.297 . S
Cd1 O5 2.439 . S
Cd1 O11 2.240 . S
Cd2 O3 2.240 . S
Cd2 O10 2.223 . S
Cd2 O12 2.297 . S
Cd2 O13 2.439 . S
O3 Cd2 2.240 . S
O3 C8 1.279 . S
O4 Cd1 2.297 . S
O4 C6 1.247 . S
O5 Cd1 2.439 . S
O5 C6 1.208 . S
C6 O4 1.247 . S
C6 O5 1.208 . S
C7 O12 1.247 . S
C7 O13 1.208 . S
C8 O0 1.315 . S
C8 O3 1.279 . S
C9 O10 1.315 . S
C9 O11 1.279 . S
O10 Cd2 2.223 . S
O10 C9 1.315 . S
O11 Cd1 2.240 . S
O11 C9 1.279 . S
O12 Cd2 2.297 . S
O12 C7 1.247 . S
O13 Cd2 2.439 . S
O13 C7 1.208 . S
O14 Cd15 2.223 . S
O14 C22 1.315 . S
Cd15 O14 2.223 . S
Cd15 O18 2.297 . S
Cd15 O19 2.439 . S
Cd15 O25 2.240 . S
Cd16 O17 2.240 . S
Cd16 O24 2.223 . S
Cd16 O26 2.297 . S
Cd16 O27 2.439 . S
O17 Cd16 2.240 . S
O17 C22 1.279 . S
O18 Cd15 2.297 . S
O18 C20 1.247 . S
O19 Cd15 2.439 . S
O19 C20 1.208 . S
C20 O18 1.247 . S
C20 O19 1.208 . S
C21 O26 1.247 . S
C21 O27 1.208 . S
C22 O14 1.315 . S
C22 O17 1.279 . S
C23 O24 1.315 . S
C23 O25 1.279 . S
O24 Cd16 2.223 . S
O24 C23 1.315 . S
O25 Cd15 2.240 . S
O25 C23 1.279 . S
O26 Cd16 2.297 . S
O26 C21 1.247 . S
O27 Cd16 2.439 . S
O27 C21 1.208 . S
O28 Cd29 2.223 . S
O28 C36 1.315 . S
Cd29 O28 2.223 . S
Cd29 O32 2.297 . S
Cd29 O33 2.439 . S
Cd29 O39 2.240 . S
Cd30 O31 2.240 . S
Cd30 O38 2.223 . S
Cd30 O40 2.297 . S
Cd30 O41 2.439 . S
O31 Cd30 2.240 . S
O31 C36 1.279 . S
O32 Cd29 2.297 . S
O32 C34 1.247 . S
O33 Cd29 2.439 . S
O33 C34 1.208 . S
C34 O32 1.247 . S
C34 O33 1.208 . S
C35 O40 1.247 . S
C35 O41 1.208 . S
C36 O28 1.315 . S
C36 O31 1.279 . S
C37 O38 1.315 . S
C37 O39 1.279 . S
O38 Cd30 2.223 . S
O38 C37 1.315 . S
O39 Cd29 2.240 . S
O39 C37 1.279 . S
O40 Cd30 2.297 . S
O40 C35 1.247 . S
O41 Cd30 2.439 . S
O41 C35 1.208 . S
O42 Cd43 2.223 . S
O42 C50 1.315 . S
Cd43 O42 2.223 . S
Cd43 O46 2.297 . S
Cd43 O47 2.439 . S
Cd43 O53 2.240 . S
Cd44 O45 2.240 . S
Cd44 O52 2.223 . S
Cd44 O54 2.297 . S
Cd44 O55 2.439 . S
O45 Cd44 2.240 . S
O45 C50 1.279 . S
O46 Cd43 2.297 . S
O46 C48 1.247 . S
O47 Cd43 2.439 . S
O47 C48 1.208 . S
C48 O46 1.247 . S
C48 O47 1.208 . S
C49 O54 1.247 . S
C49 O55 1.208 . S
C50 O42 1.315 . S
C50 O45 1.279 . S
C51 O52 1.315 . S
C51 O53 1.279 . S
O52 Cd44 2.223 . S
O52 C51 1.315 . S
O53 Cd43 2.240 . S
O53 C51 1.279 . S
O54 Cd44 2.297 . S
O54 C49 1.247 . S
O55 Cd44 2.439 . S
O55 C49 1.208 . S
O56 Cd57 2.223 . S
O56 C64 1.315 . S
Cd57 O56 2.223 . S
Cd57 O60 2.297 . S
Cd57 O61 2.439 . S
Cd57 O67 2.240 . S
Cd58 O59 2.240 . S
Cd58 O66 2.223 . S
Cd58 O68 2.297 . S
Cd58 O69 2.439 . S
O59 Cd58 2.240 . S
O59 C64 1.279 . S
O60 Cd57 2.297 . S
O60 C62 1.247 . S
O61 Cd57 2.439 . S
O61 C62 1.208 . S
C62 O60 1.247 . S
C62 O61 1.208 . S
C63 O68 1.247 . S
C63 O69 1.208 . S
C64 O56 1.315 . S
C64 O59 1.279 . S
C65 O66 1.315 . S
C65 O67 1.279 . S
O66 Cd58 2.223 . S
O66 C65 1.315 . S
O67 Cd57 2.240 . S
O67 C65 1.279 . S
O68 Cd58 2.297 . S
O68 C63 1.247 . S
O69 Cd58 2.439 . S
O69 C63 1.208 . S
O70 Cd71 2.223 . S
O70 C78 1.315 . S
Cd71 O70 2.223 . S
Cd71 O74 2.297 . S
Cd71 O75 2.439 . S
Cd71 O81 2.240 . S
Cd72 O73 2.240 . S
Cd72 O80 2.223 . S
Cd72 O82 2.297 . S
Cd72 O83 2.439 . S
O73 Cd72 2.240 . S
O73 C78 1.279 . S
O74 Cd71 2.297 . S
O74 C76 1.247 . S
O75 Cd71 2.439 . S
O75 C76 1.208 . S
C76 O74 1.247 . S
C76 O75 1.208 . S
C77 O82 1.247 . S
C77 O83 1.208 . S
C78 O70 1.315 . S
C78 O73 1.279 . S
C79 O80 1.315 . S
C79 O81 1.279 . S
O80 Cd72 2.223 . S
O80 C79 1.315 . S
O81 Cd71 2.240 . S
O81 C79 1.279 . S
O82 Cd72 2.297 . S
O82 C77 1.247 . S
O83 Cd72 2.439 . S
O83 C77 1.208 . S
O84 Cd85 2.223 . S
O84 C92 1.315 . S
Cd85 O84 2.223 . S
Cd85 O88 2.297 . S
Cd85 O89 2.439 . S
Cd85 O95 2.240 . S
Cd86 O87 2.240 . S
Cd86 O94 2.223 . S
Cd86 O96 2.297 . S
Cd86 O97 2.439 . S
O87 Cd86 2.240 . S
O87 C92 1.279 . S
O88 Cd85 2.297 . S
O88 C90 1.247 . S
O89 Cd85 2.439 . S
O89 C90 1.208 . S
C90 O88 1.247 . S
C90 O89 1.208 . S
C91 O96 1.247 . S
C91 O97 1.208 . S
C92 O84 1.315 . S
C92 O87 1.279 . S
C93 O94 1.315 . S
C93 O95 1.279 . S
O94 Cd86 2.223 . S
O94 C93 1.315 . S
O95 Cd85 2.240 . S
O95 C93 1.279 . S
O96 Cd86 2.297 . S
O96 C91 1.247 . S
O97 Cd86 2.439 . S
O97 C91 1.208 . S
O98 Cd99 2.223 . S
O98 C106 1.315 . S
Cd99 O98 2.223 . S
Cd99 O102 2.297 . S
Cd99 O103 2.439 . S
Cd99 O109 2.240 . S
Cd100 O101 2.240 . S
Cd100 O108 2.223 . S
Cd100 O110 2.297 . S
Cd100 O111 2.439 . S
O101 Cd100 2.240 . S
O101 C106 1.279 . S
O102 Cd99 2.297 . S
O102 C104 1.247 . S
O103 Cd99 2.439 . S
O103 C104 1.208 . S
C104 O102 1.247 . S
C104 O103 1.208 . S
C105 O110 1.247 . S
C105 O111 1.208 . S
C106 O98 1.315 . S
C106 O101 1.279 . S
C107 O108 1.315 . S
C107 O109 1.279 . S
O108 Cd100 2.223 . S
O108 C107 1.315 . S
O109 Cd99 2.240 . S
O109 C107 1.279 . S
O110 Cd100 2.297 . S
O110 C105 1.247 . S
O111 Cd100 2.439 . S
O111 C105 1.208 . S
O112 Cd113 2.223 . S
O112 C120 1.315 . S
Cd113 O112 2.223 . S
Cd113 O116 2.297 . S
Cd113 O117 2.439 . S
Cd113 O123 2.240 . S
Cd114 O115 2.240 . S
Cd114 O122 2.223 . S
Cd114 O124 2.297 . S
Cd114 O125 2.439 . S
O115 Cd114 2.240 . S
O115 C120 1.279 . S
O116 Cd113 2.297 . S
O116 C118 1.247 . S
O117 Cd113 2.439 . S
O117 C118 1.208 . S
C118 O116 1.247 . S
C118 O117 1.208 . S
C119 O124 1.247 . S
C119 O125 1.208 . S
C120 O112 1.315 . S
C120 O115 1.279 . S
C121 O122 1.315 . S
C121 O123 1.279 . S
O122 Cd114 2.223 . S
O122 C121 1.315 . S
O123 Cd113 2.240 . S
O123 C121 1.279 . S
O124 Cd114 2.297 . S
O124 C119 1.247 . S
O125 Cd114 2.439 . S
O125 C119 1.208 . S
O126 Cd127 2.223 . S
O126 C134 1.315 . S
Cd127 O126 2.223 . S
Cd127 O130 2.297 . S
Cd127 O131 2.439 . S
Cd127 O137 2.240 . S
Cd128 O129 2.240 . S
Cd128 O136 2.223 . S
Cd128 O138 2.297 . S
Cd128 O139 2.439 . S
O129 Cd128 2.240 . S
O129 C134 1.279 . S
O130 Cd127 2.297 . S
O130 C132 1.247 . S
O131 Cd127 2.439 . S
O131 C132 1.208 . S
C132 O130 1.247 . S
C132 O131 1.208 . S
C133 O138 1.247 . S
C133 O139 1.208 . S
C134 O126 1.315 . S
C134 O129 1.279 . S
C135 O136 1.315 . S
C135 O137 1.279 . S
O136 Cd128 2.223 . S
O136 C135 1.315 . S
O137 Cd127 2.240 . S
O137 C135 1.279 . S
O138 Cd128 2.297 . S
O138 C133 1.247 . S
O139 Cd128 2.439 . S
O139 C133 1.208 . S
O140 Cd141 2.223 . S
O140 C148 1.315 . S
Cd141 O140 2.223 . S
Cd141 O144 2.297 . S
Cd141 O145 2.439 . S
Cd141 O151 2.240 . S
Cd142 O143 2.240 . S
Cd142 O150 2.223 . S
Cd142 O152 2.297 . S
Cd142 O153 2.439 . S
O143 Cd142 2.240 . S
O143 C148 1.279 . S
O144 Cd141 2.297 . S
O144 C146 1.247 . S
O145 Cd141 2.439 . S
O145 C146 1.208 . S
C146 O144 1.247 . S
C146 O145 1.208 . S
C147 O152 1.247 . S
C147 O153 1.208 . S
C148 O140 1.315 . S
C148 O143 1.279 . S
C149 O150 1.315 . S
C149 O151 1.279 . S
O150 Cd142 2.223 . S
O150 C149 1.315 . S
O151 Cd141 2.240 . S
O151 C149 1.279 . S
O152 Cd142 2.297 . S
O152 C147 1.247 . S
O153 Cd142 2.439 . S
O153 C147 1.208 . S
O154 Cd155 2.223 . S
O154 C162 1.315 . S
Cd155 O154 2.223 . S
Cd155 O158 2.297 . S
Cd155 O159 2.439 . S
Cd155 O165 2.240 . S
Cd156 O157 2.240 . S
Cd156 O164 2.223 . S
Cd156 O166 2.297 . S
Cd156 O167 2.439 . S
O157 Cd156 2.240 . S
O157 C162 1.279 . S
O158 Cd155 2.297 . S
O158 C160 1.247 . S
O159 Cd155 2.439 . S
O159 C160 1.208 . S
C160 O158 1.247 . S
C160 O159 1.208 . S
C161 O166 1.247 . S
C161 O167 1.208 . S
C162 O154 1.315 . S
C162 O157 1.279 . S
C163 O164 1.315 . S
C163 O165 1.279 . S
O164 Cd156 2.223 . S
O164 C163 1.315 . S
O165 Cd155 2.240 . S
O165 C163 1.279 . S
O166 Cd156 2.297 . S
O166 C161 1.247 . S
O167 Cd156 2.439 . S
O167 C161 1.208 . S
H168 C174 0.930 1_455 S
H169 C178 0.930 1_655 S
H170 C183 0.929 . S
H171 C181 0.929 . S
H172 C176 0.929 . S
H173 C182 0.929 . S
C174 H168 0.930 1_655 S
C174 C175 1.367 . S
C174 C182 1.378 1_655 S
C175 C174 1.367 . S
C175 C183 1.433 . S
C176 H172 0.929 . S
C176 C178 1.378 1_655 S
C176 C180 1.350 1_655 S
C177 C180 1.463 1_655 S
C177 C182 1.350 1_655 S
C177 N185 1.427 . S
C178 H169 0.930 1_455 S
C178 C176 1.378 1_455 S
C178 C179 1.367 . S
C179 C178 1.367 . S
C179 C181 1.433 . S
C180 C176 1.350 1_455 S
C180 C177 1.463 1_455 S
C180 N184 1.427 . S
C181 H171 0.929 . S
C181 C179 1.433 . S
C181 N184 1.384 . S
C182 H173 0.929 . S
C182 C174 1.378 1_455 S
C182 C177 1.350 1_455 S
C183 H170 0.929 . S
C183 C175 1.433 . S
C183 N185 1.384 . S
N184 C180 1.427 . S
N184 C181 1.384 . S
N185 C177 1.427 . S
N185 C183 1.384 . S
H186 C192 0.930 1_655 S
H187 C196 0.930 1_455 S
H188 C201 0.929 . S
H189 C199 0.929 . S
H190 C194 0.929 . S
H191 C200 0.929 . S
C192 H186 0.930 1_455 S
C192 C193 1.367 . S
C192 C200 1.378 1_455 S
C193 C192 1.367 . S
C193 C201 1.433 . S
C194 H190 0.929 . S
C194 C196 1.378 1_455 S
C194 C198 1.350 1_455 S
C195 C198 1.463 1_455 S
C195 C200 1.350 1_455 S
C195 N203 1.427 . S
C196 H187 0.930 1_655 S
C196 C194 1.378 1_655 S
C196 C197 1.367 . S
C197 C196 1.367 . S
C197 C199 1.433 . S
C198 C194 1.350 1_655 S
C198 C195 1.463 1_655 S
C198 N202 1.427 . S
C199 H189 0.929 . S
C199 C197 1.433 . S
C199 N202 1.384 . S
C200 H191 0.929 . S
C200 C192 1.378 1_655 S
C200 C195 1.350 1_655 S
C201 H188 0.929 . S
C201 C193 1.433 . S
C201 N203 1.384 . S
N202 C198 1.427 . S
N202 C199 1.384 . S
N203 C195 1.427 . S
N203 C201 1.384 . S
H204 C210 0.930 1_545 S
H205 C214 0.930 1_565 S
H206 C219 0.929 . S
H207 C217 0.929 . S
H208 C212 0.929 . S
H209 C218 0.929 . S
C210 H204 0.930 1_565 S
C210 C211 1.367 . S
C210 C218 1.378 1_565 S
C211 C210 1.367 . S
C211 C219 1.433 . S
C212 H208 0.929 . S
C212 C214 1.378 1_565 S
C212 C216 1.350 1_565 S
C213 C216 1.463 1_565 S
C213 C218 1.350 1_565 S
C213 N221 1.427 . S
C214 H205 0.930 1_545 S
C214 C212 1.378 1_545 S
C214 C215 1.367 . S
C215 C214 1.367 . S
C215 C217 1.433 . S
C216 C212 1.350 1_545 S
C216 C213 1.463 1_545 S
C216 N220 1.427 . S
C217 H207 0.929 . S
C217 C215 1.433 . S
C217 N220 1.384 . S
C218 H209 0.929 . S
C218 C210 1.378 1_545 S
C218 C213 1.350 1_545 S
C219 H206 0.929 . S
C219 C211 1.433 . S
C219 N221 1.384 . S
N220 C216 1.427 . S
N220 C217 1.384 . S
N221 C213 1.427 . S
N221 C219 1.384 . S
H222 C228 0.930 . S
H223 C232 0.930 . S
H224 C237 0.929 . S
H225 C235 0.929 . S
H226 C230 0.929 . S
H227 C236 0.929 . S
C228 H222 0.930 . S
C228 C229 1.367 . S
C228 C236 1.378 . S
C229 C228 1.367 . S
C229 C237 1.433 1_565 S
C230 H226 0.929 . S
C230 C232 1.378 . S
C230 C234 1.350 . S
C231 C234 1.463 1_565 S
C231 C236 1.350 . S
C231 N239 1.427 1_565 S
C232 H223 0.930 . S
C232 C230 1.378 . S
C232 C233 1.367 . S
C233 C232 1.367 . S
C233 C235 1.433 1_545 S
C234 C230 1.350 . S
C234 C231 1.463 1_545 S
C234 N238 1.427 1_545 S
C235 H225 0.929 . S
C235 C233 1.433 1_565 S
C235 N238 1.384 . S
C236 H227 0.929 . S
C236 C228 1.378 . S
C236 C231 1.350 . S
C237 H224 0.929 . S
C237 C229 1.433 1_545 S
C237 N239 1.384 . S
N238 C234 1.427 1_565 S
N238 C235 1.384 . S
N239 C231 1.427 1_545 S
N239 C237 1.384 . S
H240 C246 0.918 1_554 S
H241 C250 0.918 1_556 S
H242 C255 0.929 . S
H243 C253 0.929 . S
H244 C248 0.929 . S
H245 C254 0.929 . S
C246 H240 0.918 1_556 S
C246 C247 1.388 . S
C246 C254 1.369 1_556 S
C247 C246 1.388 . S
C247 C255 1.433 . S
C248 H244 0.929 . S
C248 C250 1.369 1_556 S
C248 C252 1.350 1_556 S
C249 C252 1.463 1_556 S
C249 C254 1.350 1_556 S
C249 N257 1.427 . S
C250 H241 0.918 1_554 S
C250 C248 1.369 1_554 S
C250 C251 1.388 . S
C251 C250 1.388 . S
C251 C253 1.433 . S
C252 C248 1.350 1_554 S
C252 C249 1.463 1_554 S
C252 N256 1.427 . S
C253 H243 0.929 . S
C253 C251 1.433 . S
C253 N256 1.384 . S
C254 H245 0.929 . S
C254 C246 1.369 1_554 S
C254 C249 1.350 1_554 S
C255 H242 0.929 . S
C255 C247 1.433 . S
C255 N257 1.384 . S
N256 C252 1.427 . S
N256 C253 1.384 . S
N257 C249 1.427 . S
N257 C255 1.384 . S
H258 C264 0.930 1_554 S
H259 C268 0.930 1_556 S
H260 C273 0.929 . S
H261 C271 0.929 . S
H262 C266 0.929 . S
H263 C272 0.929 . S
C264 H258 0.930 1_556 S
C264 C265 1.367 . S
C264 C272 1.378 1_556 S
C265 C264 1.367 . S
C265 C273 1.433 . S
C266 H262 0.929 . S
C266 C268 1.378 1_556 S
C266 C270 1.350 1_556 S
C267 C270 1.463 1_556 S
C267 C272 1.350 1_556 S
C267 N275 1.427 . S
C268 H259 0.930 1_554 S
C268 C266 1.378 1_554 S
C268 C269 1.367 . S
C269 C268 1.367 . S
C269 C271 1.433 . S
C270 C266 1.350 1_554 S
C270 C267 1.463 1_554 S
C270 N274 1.427 . S
C271 H261 0.929 . S
C271 C269 1.433 . S
C271 N274 1.384 . S
C272 H263 0.929 . S
C272 C264 1.378 1_554 S
C272 C267 1.350 1_554 S
C273 H260 0.929 . S
C273 C265 1.433 . S
C273 N275 1.384 . S
N274 C270 1.427 . S
N274 C271 1.384 . S
N275 C267 1.427 . S
N275 C273 1.384 . S
H276 C282 0.930 . S
H277 C286 0.930 . S
H278 C291 0.929 . S
H279 C289 0.929 . S
H280 C284 0.929 . S
H281 C290 0.929 . S
C282 H276 0.930 . S
C282 C283 1.367 . S
C282 C290 1.378 . S
C283 C282 1.367 . S
C283 C291 1.433 . S
C284 H280 0.929 . S
C284 C286 1.378 . S
C284 C288 1.350 . S
C285 C288 1.463 . S
C285 C290 1.350 . S
C285 N293 1.427 . S
C286 H277 0.930 . S
C286 C284 1.378 . S
C286 C287 1.367 . S
C287 C286 1.367 . S
C287 C289 1.433 . S
C288 C284 1.350 . S
C288 C285 1.463 . S
C288 N292 1.427 . S
C289 H279 0.929 . S
C289 C287 1.433 . S
C289 N292 1.384 . S
C290 H281 0.929 . S
C290 C282 1.378 . S
C290 C285 1.350 . S
C291 H278 0.929 . S
C291 C283 1.433 . S
C291 N293 1.384 . S
N292 C288 1.427 . S
N292 C289 1.384 . S
N293 C285 1.427 . S
N293 C291 1.384 . S
H294 C300 0.930 . S
H295 C304 0.930 . S
H296 C309 0.929 . S
H297 C307 0.929 . S
H298 C302 0.929 . S
H299 C308 0.929 . S
C300 H294 0.930 . S
C300 C301 1.367 . S
C300 C308 1.378 . S
C301 C300 1.367 . S
C301 C309 1.433 . S
C302 H298 0.929 . S
C302 C304 1.378 . S
C302 C306 1.350 . S
C303 C306 1.463 . S
C303 C308 1.350 . S
C303 N311 1.427 . S
C304 H295 0.930 . S
C304 C302 1.378 . S
C304 C305 1.367 . S
C305 C304 1.367 . S
C305 C307 1.433 . S
C306 C302 1.350 . S
C306 C303 1.463 . S
C306 N310 1.427 . S
C307 H297 0.929 . S
C307 C305 1.433 . S
C307 N310 1.384 . S
C308 H299 0.929 . S
C308 C300 1.378 . S
C308 C303 1.350 . S
C309 H296 0.929 . S
C309 C301 1.433 . S
C309 N311 1.384 . S
N310 C306 1.427 . S
N310 C307 1.384 . S
N311 C303 1.427 . S
N311 C309 1.384 . S
H312 C318 0.930 . S
H313 C322 0.930 . S
H314 C327 0.929 . S
H315 C325 0.929 . S
H316 C320 0.929 . S
H317 C326 0.929 . S
C318 H312 0.930 . S
C318 C319 1.367 . S
C318 C326 1.378 . S
C319 C318 1.367 . S
C319 C327 1.433 . S
C320 H316 0.929 . S
C320 C322 1.378 . S
C320 C324 1.350 . S
C321 C324 1.463 . S
C321 C326 1.350 . S
C321 N329 1.427 . S
C322 H313 0.930 . S
C322 C320 1.378 . S
C322 C323 1.367 . S
C323 C322 1.367 . S
C323 C325 1.433 . S
C324 C320 1.350 . S
C324 C321 1.463 . S
C324 N328 1.427 . S
C325 H315 0.929 . S
C325 C323 1.433 . S
C325 N328 1.384 . S
C326 H317 0.929 . S
C326 C318 1.378 . S
C326 C321 1.350 . S
C327 H314 0.929 . S
C327 C319 1.433 . S
C327 N329 1.384 . S
N328 C324 1.427 . S
N328 C325 1.384 . S
N329 C321 1.427 . S
N329 C327 1.384 . S
H330 C336 0.930 . S
H331 C340 0.930 . S
H332 C345 0.929 . S
H333 C343 0.929 . S
H334 C338 0.929 . S
H335 C344 0.929 . S
C336 H330 0.930 . S
C336 C337 1.367 . S
C336 C344 1.378 . S
C337 C336 1.367 . S
C337 C345 1.433 . S
C338 H334 0.929 . S
C338 C340 1.378 . S
C338 C342 1.350 . S
C339 C342 1.463 . S
C339 C344 1.350 . S
C339 N347 1.427 . S
C340 H331 0.930 . S
C340 C338 1.378 . S
C340 C341 1.367 . S
C341 C340 1.367 . S
C341 C343 1.433 . S
C342 C338 1.350 . S
C342 C339 1.463 . S
C342 N346 1.427 . S
C343 H333 0.929 . S
C343 C341 1.433 . S
C343 N346 1.384 . S
C344 H335 0.929 . S
C344 C336 1.378 . S
C344 C339 1.350 . S
C345 H332 0.929 . S
C345 C337 1.433 . S
C345 N347 1.384 . S
N346 C342 1.427 . S
N346 C343 1.384 . S
N347 C339 1.427 . S
N347 C345 1.384 . S
H348 C354 0.930 . S
H349 C358 0.930 . S
H350 C363 0.929 . S
H351 C361 0.929 . S
H352 C356 0.929 . S
H353 C362 0.929 . S
C354 H348 0.930 . S
C354 C355 1.367 . S
C354 C362 1.378 . S
C355 C354 1.367 . S
C355 C363 1.433 . S
C356 H352 0.929 . S
C356 C358 1.378 . S
C356 C360 1.350 . S
C357 C360 1.463 . S
C357 C362 1.350 . S
C357 N365 1.427 . S
C358 H349 0.930 . S
C358 C356 1.378 . S
C358 C359 1.367 . S
C359 C358 1.367 . S
C359 C361 1.433 . S
C360 C356 1.350 . S
C360 C357 1.463 . S
C360 N364 1.427 . S
C361 H351 0.929 . S
C361 C359 1.433 . S
C361 N364 1.384 . S
C362 H353 0.929 . S
C362 C354 1.378 . S
C362 C357 1.350 . S
C363 H350 0.929 . S
C363 C355 1.433 . S
C363 N365 1.384 . S
N364 C360 1.427 . S
N364 C361 1.384 . S
N365 C357 1.427 . S
N365 C363 1.384 . S
H366 C372 0.930 . S
H367 C376 0.930 . S
H368 C381 0.929 . S
H369 C379 0.929 . S
H370 C374 0.929 . S
H371 C380 0.929 . S
C372 H366 0.930 . S
C372 C373 1.367 . S
C372 C380 1.378 . S
C373 C372 1.367 . S
C373 C381 1.433 . S
C374 H370 0.929 . S
C374 C376 1.378 . S
C374 C378 1.350 . S
C375 C378 1.463 . S
C375 C380 1.350 . S
C375 N383 1.427 . S
C376 H367 0.930 . S
C376 C374 1.378 . S
C376 C377 1.367 . S
C377 C376 1.367 . S
C377 C379 1.433 . S
C378 C374 1.350 . S
C378 C375 1.463 . S
C378 N382 1.427 . S
C379 H369 0.929 . S
C379 C377 1.433 . S
C379 N382 1.384 . S
C380 H371 0.929 . S
C380 C372 1.378 . S
C380 C375 1.350 . S
C381 H368 0.929 . S
C381 C373 1.433 . S
C381 N383 1.384 . S
N382 C378 1.427 . S
N382 C379 1.384 . S
N383 C375 1.427 . S
N383 C381 1.384 . S
H384 C390 0.930 . S
H385 C394 0.930 . S
H386 C399 0.929 . S
H387 C397 0.929 . S
H388 C392 0.929 . S
H389 C398 0.929 . S
C390 H384 0.930 . S
C390 C391 1.367 . S
C390 C398 1.378 . S
C391 C390 1.367 . S
C391 C399 1.433 . S
C392 H388 0.929 . S
C392 C394 1.378 . S
C392 C396 1.350 . S
C393 C396 1.463 . S
C393 C398 1.350 . S
C393 N401 1.427 . S
C394 H385 0.930 . S
C394 C392 1.378 . S
C394 C395 1.367 . S
C395 C394 1.367 . S
C395 C397 1.433 . S
C396 C392 1.350 . S
C396 C393 1.463 . S
C396 N400 1.427 . S
C397 H387 0.929 . S
C397 C395 1.433 . S
C397 N400 1.384 . S
C398 H389 0.929 . S
C398 C390 1.378 . S
C398 C393 1.350 . S
C399 H386 0.929 . S
C399 C391 1.433 . S
C399 N401 1.384 . S
N400 C396 1.427 . S
N400 C397 1.384 . S
N401 C393 1.427 . S
N401 C399 1.384 . S
H402 C408 0.930 . S
H403 C412 0.930 . S
H404 C417 0.929 . S
H405 C415 0.929 . S
H406 C410 0.929 . S
H407 C416 0.929 . S
C408 H402 0.930 . S
C408 C409 1.367 . S
C408 C416 1.378 . S
C409 C408 1.367 . S
C409 C417 1.433 . S
C410 H406 0.929 . S
C410 C412 1.378 . S
C410 C414 1.350 . S
C411 C414 1.463 . S
C411 C416 1.350 . S
C411 N419 1.427 . S
C412 H403 0.930 . S
C412 C410 1.378 . S
C412 C413 1.367 . S
C413 C412 1.367 . S
C413 C415 1.433 . S
C414 C410 1.350 . S
C414 C411 1.463 . S
C414 N418 1.427 . S
C415 H405 0.929 . S
C415 C413 1.433 . S
C415 N418 1.384 . S
C416 H407 0.929 . S
C416 C408 1.378 . S
C416 C411 1.350 . S
C417 H404 0.929 . S
C417 C409 1.433 . S
C417 N419 1.384 . S
N418 C414 1.427 . S
N418 C415 1.384 . S
N419 C411 1.427 . S
N419 C417 1.384 . S
H420 C426 0.930 . S
H421 C430 0.930 . S
H422 C435 0.929 . S
H423 C433 0.929 . S
H424 C428 0.929 . S
H425 C434 0.929 . S
C426 H420 0.930 . S
C426 C427 1.367 . S
C426 C434 1.378 . S
C427 C426 1.367 . S
C427 C435 1.433 . S
C428 H424 0.929 . S
C428 C430 1.378 . S
C428 C432 1.350 . S
C429 C432 1.463 . S
C429 C434 1.350 . S
C429 N437 1.427 . S
C430 H421 0.930 . S
C430 C428 1.378 . S
C430 C431 1.367 . S
C431 C430 1.367 . S
C431 C433 1.433 . S
C432 C428 1.350 . S
C432 C429 1.463 . S
C432 N436 1.427 . S
C433 H423 0.929 . S
C433 C431 1.433 . S
C433 N436 1.384 . S
C434 H425 0.929 . S
C434 C426 1.378 . S
C434 C429 1.350 . S
C435 H422 0.929 . S
C435 C427 1.433 . S
C435 N437 1.384 . S
N436 C432 1.427 . S
N436 C433 1.384 . S
N437 C429 1.427 . S
N437 C435 1.384 . S
H438 C444 0.930 . S
H439 C448 0.930 . S
H440 C453 0.929 . S
H441 C451 0.929 . S
H442 C446 0.929 . S
H443 C452 0.929 . S
C444 H438 0.930 . S
C444 C445 1.367 . S
C444 C452 1.378 . S
C445 C444 1.367 . S
C445 C453 1.433 . S
C446 H442 0.929 . S
C446 C448 1.378 . S
C446 C450 1.350 . S
C447 C450 1.463 . S
C447 C452 1.350 . S
C447 N455 1.427 . S
C448 H439 0.930 . S
C448 C446 1.378 . S
C448 C449 1.367 . S
C449 C448 1.367 . S
C449 C451 1.433 . S
C450 C446 1.350 . S
C450 C447 1.463 . S
C450 N454 1.427 . S
C451 H441 0.929 . S
C451 C449 1.433 . S
C451 N454 1.384 . S
C452 H443 0.929 . S
C452 C444 1.378 . S
C452 C447 1.350 . S
C453 H440 0.929 . S
C453 C445 1.433 . S
C453 N455 1.384 . S
N454 C450 1.427 . S
N454 C451 1.384 . S
N455 C447 1.427 . S
N455 C453 1.384 . S
H456 C462 0.930 . S
H457 C466 0.930 . S
H458 C471 0.929 . S
H459 C469 0.929 . S
H460 C464 0.929 . S
H461 C470 0.929 . S
C462 H456 0.930 . S
C462 C463 1.367 . S
C462 C470 1.378 . S
C463 C462 1.367 . S
C463 C471 1.433 . S
C464 H460 0.929 . S
C464 C466 1.378 . S
C464 C468 1.350 . S
C465 C468 1.463 . S
C465 C470 1.350 . S
C465 N473 1.427 . S
C466 H457 0.930 . S
C466 C464 1.378 . S
C466 C467 1.367 . S
C467 C466 1.367 . S
C467 C469 1.433 . S
C468 C464 1.350 . S
C468 C465 1.463 . S
C468 N472 1.427 . S
C469 H459 0.929 . S
C469 C467 1.433 . S
C469 N472 1.384 . S
C470 H461 0.929 . S
C470 C462 1.378 . S
C470 C465 1.350 . S
C471 H458 0.929 . S
C471 C463 1.433 . S
C471 N473 1.384 . S
N472 C468 1.427 . S
N472 C469 1.384 . S
N473 C465 1.427 . S
N473 C471 1.384 . S
H474 C480 0.930 . S
H475 C484 0.930 . S
H476 C489 0.929 . S
H477 C487 0.929 . S
H478 C482 0.929 . S
H479 C488 0.929 . S
C480 H474 0.930 . S
C480 C481 1.367 . S
C480 C488 1.378 . S
C481 C480 1.367 . S
C481 C489 1.433 . S
C482 H478 0.929 . S
C482 C484 1.378 . S
C482 C486 1.350 . S
C483 C486 1.463 . S
C483 C488 1.350 . S
C483 N491 1.427 . S
C484 H475 0.930 . S
C484 C482 1.378 . S
C484 C485 1.367 . S
C485 C484 1.367 . S
C485 C487 1.433 . S
C486 C482 1.350 . S
C486 C483 1.463 . S
C486 N490 1.427 . S
C487 H477 0.929 . S
C487 C485 1.433 . S
C487 N490 1.384 . S
C488 H479 0.929 . S
C488 C480 1.378 . S
C488 C483 1.350 . S
C489 H476 0.929 . S
C489 C481 1.433 . S
C489 N491 1.384 . S
N490 C486 1.427 . S
N490 C487 1.384 . S
N491 C483 1.427 . S
N491 C489 1.384 . S
H492 C498 0.930 . S
H493 C502 0.930 . S
H494 C507 0.929 . S
H495 C505 0.929 . S
H496 C500 0.929 . S
H497 C506 0.929 . S
C498 H492 0.930 . S
C498 C499 1.367 . S
C498 C506 1.378 . S
C499 C498 1.367 . S
C499 C507 1.433 . S
C500 H496 0.929 . S
C500 C502 1.378 . S
C500 C504 1.350 . S
C501 C504 1.463 1_445 S
C501 C506 1.350 . S
C501 N509 1.427 1_455 S
C502 H493 0.930 . S
C502 C500 1.378 . S
C502 C503 1.367 . S
C503 C502 1.367 . S
C503 C505 1.433 . S
C504 C500 1.350 . S
C504 C501 1.463 1_665 S
C504 N508 1.427 1_655 S
C505 H495 0.929 . S
C505 C503 1.433 . S
C505 N508 1.384 1_655 S
C506 H497 0.929 . S
C506 C498 1.378 . S
C506 C501 1.350 . S
C507 H494 0.929 . S
C507 C499 1.433 . S
C507 N509 1.384 1_455 S
N508 C504 1.427 1_455 S
N508 C505 1.384 1_455 S
N509 C501 1.427 1_655 S
N509 C507 1.384 1_655 S
H510 C516 0.930 . S
H511 C520 0.930 . S
H512 C525 0.929 . S
H513 C523 0.929 . S
H514 C518 0.928 1_655 S
H515 C524 0.928 1_455 S
C516 H510 0.930 . S
C516 C517 1.367 . S
C516 C524 1.378 . S
C517 C516 1.367 . S
C517 C525 1.433 . S
C518 H514 0.928 1_455 S
C518 C520 1.378 . S
C518 C522 1.350 . S
C519 C522 1.463 1_645 S
C519 C524 1.350 . S
C519 N527 1.427 . S
C520 H511 0.930 . S
C520 C518 1.378 . S
C520 C521 1.367 . S
C521 C520 1.367 . S
C521 C523 1.433 . S
C522 C518 1.350 . S
C522 C519 1.463 1_465 S
C522 N526 1.427 . S
C523 H513 0.929 . S
C523 C521 1.433 . S
C523 N526 1.384 . S
C524 H515 0.928 1_655 S
C524 C516 1.378 . S
C524 C519 1.350 . S
C525 H512 0.929 . S
C525 C517 1.433 . S
C525 N527 1.384 . S
N526 C522 1.427 . S
N526 C523 1.384 . S
N527 C519 1.427 . S
N527 C525 1.384 . S
H528 C534 0.930 . S
H529 C538 0.930 . S
H530 C543 0.929 . S
H531 C541 0.929 . S
H532 C536 0.929 . S
H533 C542 0.929 . S
C534 H528 0.930 . S
C534 C535 1.367 . S
C534 C542 1.378 . S
C535 C534 1.367 . S
C535 C543 1.433 . S
C536 H532 0.929 . S
C536 C538 1.378 . S
C536 C540 1.350 . S
C537 C540 1.463 1_566 S
C537 C542 1.350 . S
C537 N545 1.427 . S
C538 H529 0.930 . S
C538 C536 1.378 . S
C538 C539 1.367 . S
C539 C538 1.367 . S
C539 C541 1.433 . S
C540 C536 1.350 . S
C540 C537 1.463 1_544 S
C540 N544 1.427 . S
C541 H531 0.929 . S
C541 C539 1.433 . S
C541 N544 1.384 . S
C542 H533 0.929 . S
C542 C534 1.378 . S
C542 C537 1.350 . S
C543 H530 0.929 . S
C543 C535 1.433 . S
C543 N545 1.384 . S
N544 C540 1.427 . S
N544 C541 1.384 . S
N545 C537 1.427 . S
N545 C543 1.384 . S
H546 C552 0.930 1_545 S
H547 C556 0.930 1_565 S
H548 C561 0.929 . S
H549 C559 0.929 . S
H550 C554 0.929 . S
H551 C560 0.929 . S
C552 H546 0.930 1_565 S
C552 C553 1.367 . S
C552 C560 1.378 1_565 S
C553 C552 1.367 . S
C553 C561 1.433 . S
C554 H550 0.929 . S
C554 C556 1.378 1_565 S
C554 C558 1.350 1_565 S
C555 C558 1.463 1_564 S
C555 C560 1.350 1_565 S
C555 N563 1.427 . S
C556 H547 0.930 1_545 S
C556 C554 1.378 1_545 S
C556 C557 1.367 . S
C557 C556 1.367 . S
C557 C559 1.433 . S
C558 C554 1.350 1_545 S
C558 C555 1.463 1_546 S
C558 N562 1.427 . S
C559 H549 0.929 . S
C559 C557 1.433 . S
C559 N562 1.384 . S
C560 H551 0.929 . S
C560 C552 1.378 1_545 S
C560 C555 1.350 1_545 S
C561 H548 0.929 . S
C561 C553 1.433 . S
C561 N563 1.384 . S
N562 C558 1.427 . S
N562 C559 1.384 . S
N563 C555 1.427 . S
N563 C561 1.384 . S
H564 C570 0.930 . S
H565 C574 0.930 . S
H566 C579 0.929 . S
H567 C577 0.929 . S
H568 C572 0.929 . S
H569 C578 0.929 . S
C570 H564 0.930 . S
C570 C571 1.367 . S
C570 C578 1.378 . S
C571 C570 1.367 . S
C571 C579 1.433 . S
C572 H568 0.929 . S
C572 C574 1.378 . S
C572 C576 1.350 . S
C573 C576 1.463 1_656 S
C573 C578 1.350 . S
C573 N581 1.427 . S
C574 H565 0.930 . S
C574 C572 1.378 . S
C574 C575 1.367 . S
C575 C574 1.367 . S
C575 C577 1.433 . S
C576 C572 1.350 . S
C576 C573 1.463 1_454 S
C576 N580 1.427 . S
C577 H567 0.929 . S
C577 C575 1.433 . S
C577 N580 1.384 . S
C578 H569 0.929 . S
C578 C570 1.378 . S
C578 C573 1.350 . S
C579 H566 0.929 . S
C579 C571 1.433 . S
C579 N581 1.384 . S
N580 C576 1.427 . S
N580 C577 1.384 . S
N581 C573 1.427 . S
N581 C579 1.384 . S
H582 C588 0.930 . S
H583 C592 0.930 . S
H584 C597 0.929 . S
H585 C595 0.929 . S
H586 C590 0.929 . S
H587 C596 0.929 . S
C588 H582 0.930 . S
C588 C589 1.367 . S
C588 C596 1.378 . S
C589 C588 1.367 . S
C589 C597 1.433 1_556 S
C590 H586 0.929 . S
C590 C592 1.378 . S
C590 C594 1.350 . S
C591 C594 1.463 1_456 S
C591 C596 1.350 . S
C591 N599 1.427 1_556 S
C592 H583 0.930 . S
C592 C590 1.378 . S
C592 C593 1.367 . S
C593 C592 1.367 . S
C593 C595 1.433 1_554 S
C594 C590 1.350 . S
C594 C591 1.463 1_654 S
C594 N598 1.427 1_554 S
C595 H585 0.929 . S
C595 C593 1.433 1_556 S
C595 N598 1.384 . S
C596 H587 0.929 . S
C596 C588 1.378 . S
C596 C591 1.350 . S
C597 H584 0.929 . S
C597 C589 1.433 1_554 S
C597 N599 1.384 . S
N598 C594 1.427 1_556 S
N598 C595 1.384 . S
N599 C591 1.427 1_554 S
N599 C597 1.384 . S
C175 C48 1.064 . S
C179 C6 1.075 . S
C193 C34 1.063 . S
C197 C20 1.075 . S
C211 C76 1.064 . S
C215 C62 1.075 . S
C229 C90 1.062 . S
C233 C104 1.057 . S
C247 C132 1.065 . S
C251 C118 1.075 . S
C265 C146 1.075 . S
C269 C160 1.063 . S
C283 C9 1.116 . S
C287 C105 1.022 . S
C301 C91 1.021 . S
C305 C23 1.116 . S
C319 C77 1.027 . S
C323 C37 1.114 . S
C337 C63 1.029 . S
C341 C51 1.113 . S
C355 C65 1.114 . S
C359 C161 1.027 . S
C373 C119 1.043 . S
C377 C79 1.107 . S
C391 C147 1.033 . S
C395 C93 1.109 . S
C409 C107 1.109 . S
C413 C133 1.039 . S
C427 C35 1.021 . S
C431 C121 1.116 . S
C445 C7 1.049 . S
C449 C135 1.102 . S
C463 C149 1.105 . S
C467 C21 1.048 . S
C481 C49 1.022 . S
C485 C163 1.116 . S
C499 C8 1.450 . S
C503 C22 1.459 . S
C517 C50 1.461 . S
C521 C36 1.452 . S
C535 C92 1.461 . S
C539 C64 1.451 . S
C553 C78 1.454 . S
C557 C106 1.461 . S
C571 C148 1.451 . S
C575 C120 1.461 . S
C589 C134 1.453 . S
C593 C162 1.454 . S
