# Generated by pormake.
# Topology umd, (4)-cn, num edge types: 1
# Building blocks:
#     Node 0, Type 0, BuildingBlock: QUQFOY_clean_sbu_1, # of connection points: 4
#     Node 1, Type 0, BuildingBlock: QUQFOY_clean_sbu_1, # of connection points: 4
#     Node 2, Type 0, BuildingBlock: QUQFOY_clean_sbu_1, # of connection points: 4
#     Node 3, Type 0, BuildingBlock: QUQFOY_clean_sbu_1, # of connection points: 4
#     Node 4, Type 0, BuildingBlock: QUQFOY_clean_sbu_1, # of connection points: 4
#     Node 5, Type 0, BuildingBlock: QUQFOY_clean_sbu_1, # of connection points: 4
#     Node 6, Type 0, BuildingBlock: QUQFOY_clean_sbu_1, # of connection points: 4
#     Node 7, Type 0, BuildingBlock: QUQFOY_clean_sbu_1, # of connection points: 4
#     Node 8, Type 0, BuildingBlock: QUQFOY_clean_sbu_1, # of connection points: 4
#     Node 9, Type 0, BuildingBlock: QUQFOY_clean_sbu_1, # of connection points: 4
#     Node 10, Type 0, BuildingBlock: QUQFOY_clean_sbu_1, # of connection points: 4
#     Node 11, Type 0, BuildingBlock: QUQFOY_clean_sbu_1, # of connection points: 4
#     Node 12, Type 0, BuildingBlock: QUQFOY_clean_sbu_1, # of connection points: 4
#     Node 13, Type 0, BuildingBlock: QUQFOY_clean_sbu_1, # of connection points: 4
#     Node 14, Type 0, BuildingBlock: QUQFOY_clean_sbu_1, # of connection points: 4
#     Node 15, Type 0, BuildingBlock: QUQFOY_clean_sbu_1, # of connection points: 4
#     Edge 16, Type (0, 0), BuildingBlock: AJUNOK_clean_linker_0, # of connection points: 2
#     Edge 17, Type (0, 0), BuildingBlock: AJUNOK_clean_linker_0, # of connection points: 2
#     Edge 18, Type (0, 0), BuildingBlock: AJUNOK_clean_linker_0, # of connection points: 2
#     Edge 19, Type (0, 0), BuildingBlock: AJUNOK_clean_linker_0, # of connection points: 2
#     Edge 20, Type (0, 0), BuildingBlock: AJUNOK_clean_linker_0, # of connection points: 2
#     Edge 21, Type (0, 0), BuildingBlock: AJUNOK_clean_linker_0, # of connection points: 2
#     Edge 22, Type (0, 0), BuildingBlock: AJUNOK_clean_linker_0, # of connection points: 2
#     Edge 23, Type (0, 0), BuildingBlock: AJUNOK_clean_linker_0, # of connection points: 2
#     Edge 24, Type (0, 0), BuildingBlock: AJUNOK_clean_linker_0, # of connection points: 2
#     Edge 25, Type (0, 0), BuildingBlock: AJUNOK_clean_linker_0, # of connection points: 2
#     Edge 26, Type (0, 0), BuildingBlock: AJUNOK_clean_linker_0, # of connection points: 2
#     Edge 27, Type (0, 0), BuildingBlock: AJUNOK_clean_linker_0, # of connection points: 2
#     Edge 28, Type (0, 0), BuildingBlock: AJUNOK_clean_linker_0, # of connection points: 2
#     Edge 29, Type (0, 0), BuildingBlock: AJUNOK_clean_linker_0, # of connection points: 2
#     Edge 30, Type (0, 0), BuildingBlock: AJUNOK_clean_linker_0, # of connection points: 2
#     Edge 31, Type (0, 0), BuildingBlock: AJUNOK_clean_linker_0, # of connection points: 2
#     Edge 32, Type (0, 0), BuildingBlock: AJUNOK_clean_linker_0, # of connection points: 2
#     Edge 33, Type (0, 0), BuildingBlock: AJUNOK_clean_linker_0, # of connection points: 2
#     Edge 34, Type (0, 0), BuildingBlock: AJUNOK_clean_linker_0, # of connection points: 2
#     Edge 35, Type (0, 0), BuildingBlock: AJUNOK_clean_linker_0, # of connection points: 2
#     Edge 36, Type (0, 0), BuildingBlock: AJUNOK_clean_linker_0, # of connection points: 2
#     Edge 37, Type (0, 0), BuildingBlock: AJUNOK_clean_linker_0, # of connection points: 2
#     Edge 38, Type (0, 0), BuildingBlock: AJUNOK_clean_linker_0, # of connection points: 2
#     Edge 39, Type (0, 0), BuildingBlock: AJUNOK_clean_linker_0, # of connection points: 2
#     Edge 40, Type (0, 0), BuildingBlock: AJUNOK_clean_linker_0, # of connection points: 2
#     Edge 41, Type (0, 0), BuildingBlock: AJUNOK_clean_linker_0, # of connection points: 2
#     Edge 42, Type (0, 0), BuildingBlock: AJUNOK_clean_linker_0, # of connection points: 2
#     Edge 43, Type (0, 0), BuildingBlock: AJUNOK_clean_linker_0, # of connection points: 2
#     Edge 44, Type (0, 0), BuildingBlock: AJUNOK_clean_linker_0, # of connection points: 2
#     Edge 45, Type (0, 0), BuildingBlock: AJUNOK_clean_linker_0, # of connection points: 2
#     Edge 46, Type (0, 0), BuildingBlock: AJUNOK_clean_linker_0, # of connection points: 2
#     Edge 47, Type (0, 0), BuildingBlock: AJUNOK_clean_linker_0, # of connection points: 2
# Relax obj value: 0.066
# Max RMSD: 0.197
# Mean RMSD: 0.197
data_MOF--net-umd--node1-QUQFOY_clean_sbu_1--edge1-AJUNOK_clean_linker_0
_symmetry_space_group_name_H-M    P1
_symmetry_Int_Tables_number       1
_symmetry_cell_setting            triclinic
loop_
_symmetry_equiv_pos_as_xyz
'x, y, z'
_cell_length_a     29.832132
_cell_length_b     29.860326
_cell_length_c     42.040574
_cell_angle_alpha  90.010126
_cell_angle_beta   90.045899
_cell_angle_gamma 90.003257
loop_
_atom_site_label
_atom_site_type_symbol
_atom_site_fract_x
_atom_site_fract_y
_atom_site_fract_z
_atom_type_partial_charge
O0 O 0.21325 0.4435 0.10204 0.0
Cd1 Cd 0.18992 0.42508 0.14631 0.0
Cd2 Cd 0.21848 0.50993 0.15719 0.0
O3 O 0.24801 0.50709 0.11257 0.0
O4 O 0.18946 0.35741 0.14506 0.0
O5 O 0.23507 0.39664 0.17543 0.0
C6 C 0.22307 0.35819 0.16443 0.0
C7 C 0.25284 0.51643 0.20677 0.0
C8 C 0.23746 0.47622 0.09306 0.0
C9 C 0.11933 0.49385 0.16099 0.0
O10 O 0.15074 0.52225 0.15785 0.0
O11 O 0.12806 0.45196 0.16008 0.0
O12 O 0.24772 0.55111 0.1887 0.0
O13 O 0.24174 0.47796 0.19529 0.0
O14 O 0.60549 0.21278 0.60262 0.0
Cd15 Cd 0.62536 0.18911 0.64648 0.0
Cd16 Cd 0.5378 0.21244 0.65748 0.0
O17 O 0.53922 0.2424 0.61292 0.0
O18 O 0.69314 0.19037 0.6443 0.0
O19 O 0.65377 0.23408 0.67586 0.0
C20 C 0.69221 0.2232 0.66426 0.0
C21 C 0.53329 0.24645 0.70733 0.0
C22 C 0.57114 0.23463 0.5936 0.0
C23 C 0.55989 0.1145 0.66052 0.0
O24 O 0.52945 0.1441 0.65789 0.0
O25 O 0.60118 0.12586 0.65959 0.0
O26 O 0.49755 0.24021 0.69043 0.0
O27 O 0.57127 0.23633 0.69462 0.0
O28 O 0.83594 0.60183 0.10215 0.0
Cd29 Cd 0.85947 0.62131 0.14615 0.0
Cd30 Cd 0.8345 0.53396 0.15692 0.0
O31 O 0.80506 0.53608 0.11216 0.0
O32 O 0.8591 0.68908 0.14408 0.0
O33 O 0.81457 0.65011 0.17531 0.0
C34 C 0.82605 0.68843 0.16388 0.0
C35 C 0.8001 0.53035 0.20664 0.0
C36 C 0.81362 0.5679 0.09294 0.0
C37 C 0.93282 0.5546 0.16064 0.0
O38 O 0.90274 0.52468 0.15772 0.0
O39 O 0.92216 0.59604 0.15971 0.0
O40 O 0.80572 0.49443 0.18989 0.0
O41 O 0.811 0.568 0.19382 0.0
O42 O 0.45128 0.83063 0.6026 0.0
Cd43 Cd 0.43298 0.8557 0.64642 0.0
Cd44 Cd 0.51977 0.82809 0.65691 0.0
O45 O 0.51665 0.79853 0.61228 0.0
O46 O 0.36524 0.85722 0.64426 0.0
O47 O 0.4028 0.81218 0.67599 0.0
C48 C 0.36487 0.82433 0.66417 0.0
C49 C 0.52225 0.79344 0.70655 0.0
C50 C 0.48443 0.80719 0.59338 0.0
C51 C 0.50199 0.92709 0.66043 0.0
O52 O 0.53088 0.89601 0.65772 0.0
O53 O 0.46016 0.91787 0.65934 0.0
O54 O 0.55844 0.79829 0.68996 0.0
O55 O 0.48492 0.80534 0.69365 0.0
O56 O 0.21557 0.60164 0.44891 0.0
Cd57 Cd 0.19159 0.6218 0.4053 0.0
Cd58 Cd 0.21735 0.53482 0.39327 0.0
O59 O 0.24746 0.53667 0.43786 0.0
O60 O 0.19301 0.68958 0.40743 0.0
O61 O 0.23673 0.64965 0.37618 0.0
C62 C 0.22609 0.6882 0.38766 0.0
C63 C 0.2514 0.53047 0.34339 0.0
C64 C 0.23868 0.56794 0.4575 0.0
C65 C 0.11878 0.555 0.39015 0.0
O66 O 0.14909 0.52526 0.39276 0.0
O67 O 0.1291 0.5965 0.39146 0.0
O68 O 0.24569 0.4948 0.36037 0.0
O69 O 0.24076 0.56833 0.35602 0.0
O70 O 0.44522 0.21254 0.94829 0.0
Cd71 Cd 0.42637 0.1897 0.90392 0.0
Cd72 Cd 0.51251 0.21456 0.89368 0.0
O73 O 0.51039 0.2445 0.93815 0.0
O74 O 0.35867 0.19023 0.90535 0.0
O75 O 0.39829 0.23521 0.87485 0.0
C76 C 0.35972 0.22368 0.88592 0.0
C77 C 0.51932 0.24829 0.84397 0.0
C78 C 0.47884 0.2354 0.95746 0.0
C79 C 0.49276 0.11644 0.88976 0.0
O80 O 0.52255 0.1465 0.89326 0.0
O81 O 0.45129 0.12708 0.89015 0.0
O82 O 0.5541 0.24243 0.86189 0.0
O83 O 0.48066 0.23822 0.85566 0.0
O84 O 0.83831 0.44281 0.44732 0.0
Cd85 Cd 0.86187 0.42461 0.40312 0.0
Cd86 Cd 0.83332 0.50996 0.39263 0.0
O87 O 0.80396 0.50679 0.43725 0.0
O88 O 0.86134 0.35685 0.40387 0.0
O89 O 0.81666 0.3973 0.37361 0.0
C90 C 0.82798 0.35852 0.3843 0.0
C91 C 0.7987 0.51696 0.3432 0.0
C92 C 0.81429 0.47555 0.4565 0.0
C93 C 0.93256 0.49344 0.38884 0.0
O94 O 0.90112 0.52184 0.39193 0.0
O95 O 0.92386 0.45154 0.38967 0.0
O96 O 0.80417 0.55153 0.36133 0.0
O97 O 0.80965 0.47839 0.35453 0.0
O98 O 0.60403 0.83572 0.94749 0.0
Cd99 Cd 0.62273 0.85985 0.90364 0.0
Cd100 Cd 0.53643 0.83083 0.89244 0.0
O101 O 0.53966 0.80193 0.93733 0.0
O102 O 0.6906 0.85946 0.90486 0.0
O103 O 0.65038 0.81521 0.87411 0.0
C104 C 0.6891 0.82635 0.88511 0.0
C105 C 0.53124 0.7953 0.84311 0.0
C106 C 0.5711 0.8119 0.95659 0.0
C107 C 0.55368 0.9302 0.88863 0.0
O108 O 0.52514 0.89877 0.89121 0.0
O109 O 0.5956 0.92157 0.8901 0.0
O110 O 0.49592 0.80098 0.86048 0.0
O111 O 0.56931 0.80679 0.8551 0.0
O112 O 0.83567 0.60225 0.94727 0.0
Cd113 Cd 0.85892 0.62194 0.90325 0.0
Cd114 Cd 0.83505 0.5343 0.89255 0.0
O115 O 0.80548 0.53618 0.93723 0.0
O116 O 0.85761 0.68972 0.90519 0.0
O117 O 0.81357 0.65002 0.87402 0.0
C118 C 0.82456 0.68855 0.88537 0.0
C119 C 0.80092 0.52989 0.84274 0.0
C120 C 0.8137 0.5681 0.95646 0.0
C121 C 0.93309 0.55611 0.88886 0.0
O122 O 0.9034 0.52583 0.89188 0.0
O123 O 0.92192 0.59742 0.88969 0.0
O124 O 0.80693 0.49416 0.85963 0.0
O125 O 0.8112 0.56778 0.85548 0.0
O126 O 0.44975 0.83294 0.44939 0.0
Cd127 Cd 0.43003 0.85808 0.40603 0.0
Cd128 Cd 0.51651 0.82993 0.39354 0.0
O129 O 0.51395 0.79956 0.43805 0.0
O130 O 0.36216 0.85744 0.4079 0.0
O131 O 0.40186 0.81369 0.37651 0.0
C132 C 0.36333 0.82455 0.38796 0.0
C133 C 0.52044 0.79647 0.34338 0.0
C134 C 0.48275 0.80864 0.45769 0.0
C135 C 0.49863 0.92909 0.39095 0.0
O136 O 0.52746 0.89788 0.39325 0.0
O137 O 0.4568 0.92008 0.39255 0.0
O138 O 0.55618 0.80125 0.3605 0.0
O139 O 0.48271 0.80756 0.35604 0.0
O140 O 0.21432 0.44616 0.94682 0.0
Cd141 Cd 0.19128 0.42857 0.90233 0.0
Cd142 Cd 0.21933 0.51471 0.89288 0.0
O143 O 0.2482 0.51066 0.93774 0.0
O144 O 0.19002 0.36091 0.90372 0.0
O145 O 0.2363 0.39936 0.87344 0.0
C146 C 0.22382 0.36115 0.88457 0.0
C147 C 0.25463 0.51978 0.84357 0.0
C148 C 0.23797 0.47886 0.95656 0.0
C149 C 0.12029 0.49742 0.88811 0.0
O150 O 0.15137 0.52613 0.89167 0.0
O151 O 0.12943 0.4556 0.88865 0.0
O152 O 0.2494 0.55503 0.86107 0.0
O153 O 0.24291 0.48174 0.85546 0.0
O154 O 0.60449 0.21386 0.44781 0.0
Cd155 Cd 0.62334 0.19021 0.40371 0.0
Cd156 Cd 0.53606 0.21424 0.39339 0.0
O157 O 0.53811 0.24365 0.43811 0.0
O158 O 0.6911 0.191 0.40523 0.0
O159 O 0.65133 0.23479 0.37392 0.0
C160 C 0.68994 0.22364 0.38512 0.0
C161 C 0.53016 0.24894 0.34387 0.0
C162 C 0.57031 0.23566 0.45718 0.0
C163 C 0.55742 0.11611 0.38999 0.0
O164 O 0.52723 0.14594 0.39271 0.0
O165 O 0.59878 0.12714 0.39082 0.0
O166 O 0.49494 0.2424 0.36119 0.0
O167 O 0.56854 0.23876 0.35601 0.0
O168 O 0.84135 0.44221 0.60121 0.0
Cd169 Cd 0.8655 0.4233 0.64507 0.0
Cd170 Cd 0.8364 0.50845 0.65687 0.0
O171 O 0.80671 0.50573 0.61226 0.0
O172 O 0.86435 0.35553 0.64424 0.0
O173 O 0.8203 0.39656 0.67457 0.0
C174 C 0.83111 0.35763 0.66386 0.0
C175 C 0.80147 0.51556 0.70623 0.0
C176 C 0.81689 0.47494 0.5926 0.0
C177 C 0.93582 0.49209 0.66043 0.0
O178 O 0.90426 0.52046 0.65778 0.0
O179 O 0.9273 0.4502 0.65891 0.0
O180 O 0.80719 0.55009 0.68812 0.0
O181 O 0.81247 0.47697 0.69495 0.0
O182 O 0.60667 0.83771 0.10091 0.0
Cd183 Cd 0.62636 0.86191 0.14458 0.0
Cd184 Cd 0.54156 0.83253 0.1573 0.0
O185 O 0.54336 0.80301 0.11259 0.0
O186 O 0.69415 0.86067 0.14347 0.0
O187 O 0.65322 0.81688 0.17407 0.0
C188 C 0.69213 0.8276 0.16323 0.0
C189 C 0.53453 0.79764 0.20674 0.0
C190 C 0.57374 0.81326 0.09262 0.0
C191 C 0.55781 0.93195 0.16056 0.0
O192 O 0.52947 0.90031 0.15828 0.0
O193 O 0.59972 0.92358 0.15858 0.0
O194 O 0.49994 0.80352 0.18867 0.0
O195 O 0.57317 0.8084 0.19538 0.0
O196 O 0.21893 0.60113 0.60307 0.0
Cd197 Cd 0.19531 0.62033 0.64712 0.0
Cd198 Cd 0.22056 0.53343 0.65752 0.0
O199 O 0.24987 0.53535 0.61285 0.0
O200 O 0.19474 0.68797 0.64462 0.0
O201 O 0.23978 0.6502 0.67625 0.0
C202 C 0.22787 0.68815 0.66438 0.0
C203 C 0.25542 0.53006 0.70705 0.0
C204 C 0.24124 0.56727 0.59374 0.0
C205 C 0.12214 0.55347 0.66121 0.0
O206 O 0.15237 0.52371 0.65832 0.0
O207 O 0.13261 0.59495 0.66041 0.0
O208 O 0.2496 0.49407 0.6904 0.0
O209 O 0.24436 0.5677 0.69426 0.0
O210 O 0.4471 0.21391 0.10359 0.0
Cd211 Cd 0.4287 0.19064 0.14786 0.0
Cd212 Cd 0.51578 0.21623 0.15756 0.0
O213 O 0.51271 0.24561 0.11288 0.0
O214 O 0.36101 0.1895 0.14576 0.0
O215 O 0.39888 0.23516 0.17688 0.0
C216 C 0.36084 0.22282 0.16531 0.0
C217 C 0.51928 0.25058 0.20725 0.0
C218 C 0.48059 0.23654 0.09398 0.0
C219 C 0.49609 0.1179 0.16155 0.0
O220 O 0.52575 0.14814 0.15819 0.0
O221 O 0.45455 0.12828 0.16123 0.0
O222 O 0.55522 0.24531 0.19045 0.0
O223 O 0.48161 0.23934 0.19451 0.0
C224 C 0.03628 0.47962 0.16153 0.0
C225 C 0.07214 0.51002 0.16383 0.0
C226 C 0.99162 0.49437 0.16135 0.0
C227 C 0.98062 0.54026 0.16348 0.0
H228 H 0.04264 0.44408 0.15903 0.0
H229 H 0.96554 0.46939 0.15882 0.0
S230 S 0.06183 0.63359 0.17286 0.0
N231 N 0.09337 0.58832 0.17047 0.0
N232 N 1.0096 0.61583 0.17 0.0
C233 C 1.01607 0.57097 0.16695 0.0
C234 C 0.06166 0.55594 0.16716 0.0
C235 C 0.48651 1.00988 0.6614 0.0
C236 C 0.51755 0.97451 0.66315 0.0
C237 C 0.50056 0.05475 0.66136 0.0
C238 C 0.54635 0.06647 0.66307 0.0
H239 H 0.45098 1.00299 0.65931 0.0
H240 H 0.47509 0.08043 0.65931 0.0
S241 S 0.64128 0.98674 0.67064 0.0
N242 N 0.59643 0.95452 0.66861 0.0
N243 N 0.62259 0.03865 0.6684 0.0
C244 C 0.57772 0.0315 0.6659 0.0
C245 C 0.56342 0.9857 0.66597 0.0
C246 C 0.06027 0.49448 0.3896 0.0
C247 C 0.0711 0.54037 0.38715 0.0
C248 C 1.01567 0.47951 0.38915 0.0
C249 C 0.97974 0.50971 0.38622 0.0
H250 H 0.08641 0.46967 0.39262 0.0
H251 H 1.0094 0.444 0.39193 0.0
S252 S 0.98969 0.63313 0.37603 0.0
N253 N 0.04193 0.61566 0.37959 0.0
N254 N 0.9583 0.58777 0.37859 0.0
C255 C 0.99008 0.55561 0.38255 0.0
C256 C 0.03559 0.57085 0.38305 0.0
C257 C 0.56789 1.01316 0.88913 0.0
C258 C 0.53757 0.97738 0.88591 0.0
C259 C 0.55309 0.05776 0.88955 0.0
C260 C 0.50723 0.06876 0.88676 0.0
H261 H 0.60338 1.00677 0.89219 0.0
H262 H 0.57798 0.08377 0.8928 0.0
S263 S 0.41423 0.98783 0.87481 0.0
N264 N 0.45947 0.95628 0.87765 0.0
N265 N 0.43187 0.03994 0.87858 0.0
C266 C 0.47665 0.03342 0.88235 0.0
C267 C 0.49173 0.9879 0.88189 0.0
C268 C 0.99258 0.49655 0.88798 0.0
C269 C 0.98105 0.54232 0.88594 0.0
C270 C 0.0374 0.48229 0.88766 0.0
C271 C 0.07291 0.51309 0.88531 0.0
H272 H 0.9668 0.47127 0.89054 0.0
H273 H 0.04417 0.44682 0.89011 0.0
S274 S 0.06117 0.63653 0.87643 0.0
N275 N 1.00916 0.6182 0.87941 0.0
N276 N 0.09323 0.59161 0.8787 0.0
C277 C 0.0619 0.55889 0.88206 0.0
C278 C 1.01614 0.57342 0.8824 0.0
C279 C 0.49777 0.05671 0.38986 0.0
C280 C 0.54356 0.06817 0.38759 0.0
C281 C 0.48351 1.01192 0.39007 0.0
C282 C 0.51433 0.9764 0.388 0.0
H283 H 0.47248 0.08252 0.39219 0.0
H284 H 0.44801 1.00521 0.3926 0.0
S285 S 0.63791 0.98798 0.37894 0.0
N286 N 0.61952 0.03998 0.38134 0.0
N287 N 0.59296 0.956 0.38159 0.0
C288 C 0.56018 0.98734 0.3846 0.0
C289 C 0.5747 0.03306 0.38442 0.0
C290 C 1.01892 0.47815 0.66088 0.0
C291 C 0.98296 0.50837 0.66351 0.0
C292 C 0.06353 0.49305 0.661 0.0
C293 C 0.07438 0.53891 0.66376 0.0
H294 H 1.01268 0.44266 0.6579 0.0
H295 H 0.08969 0.46822 0.65818 0.0
S296 S 0.99287 0.63171 0.67423 0.0
N297 N 0.96147 0.58641 0.67116 0.0
N298 N 0.04516 0.61419 0.67124 0.0
C299 C 0.03883 0.56941 0.66756 0.0
C300 C 0.99328 0.55423 0.66748 0.0
C301 C 0.55667 0.0595 0.16126 0.0
C302 C 0.51077 0.07024 0.16409 0.0
C303 C 0.57165 1.01496 0.16107 0.0
C304 C 0.54146 0.97898 0.16371 0.0
H305 H 0.58147 0.08569 0.15844 0.0
H306 H 0.60717 1.0088 0.15805 0.0
S307 S 0.41802 0.98863 0.17454 0.0
N308 N 0.43548 0.0409 0.1716 0.0
N309 N 0.4634 0.95735 0.1714 0.0
C310 C 0.49556 0.9892 0.16775 0.0
C311 C 0.48031 0.03467 0.1679 0.0
C312 C 0.26456 0.48573 0.29382 0.0
C313 C 0.26329 0.52768 0.30905 0.0
C314 C 0.26498 0.48237 0.26052 0.0
C315 C 0.26425 0.52083 0.24108 0.0
H316 H 0.2623 0.45514 0.30757 0.0
H317 H 0.2631 0.44928 0.25004 0.0
S318 S 0.26926 0.63855 0.26911 0.0
N319 N 0.26766 0.6085 0.30203 0.0
N320 N 0.26864 0.6021 0.23963 0.0
C321 C 0.26735 0.56287 0.25601 0.0
C322 C 0.26679 0.56632 0.28993 0.0
C323 C 0.4885 0.25939 0.75688 0.0
C324 C 0.53048 0.25836 0.74166 0.0
C325 C 0.48517 0.25991 0.79017 0.0
C326 C 0.52368 0.25944 0.80962 0.0
H327 H 0.45788 0.25693 0.74313 0.0
H328 H 0.45206 0.25787 0.80064 0.0
S329 S 0.64145 0.26521 0.78161 0.0
N330 N 0.61135 0.26333 0.74867 0.0
N331 N 0.605 0.26436 0.81108 0.0
C332 C 0.56573 0.26273 0.7947 0.0
C333 C 0.56915 0.26215 0.76078 0.0
C334 C 0.78562 0.48621 0.25628 0.0
C335 C 0.78809 0.52804 0.24097 0.0
C336 C 0.78518 0.48301 0.28958 0.0
C337 C 0.78713 0.52152 0.30894 0.0
H338 H 0.78694 0.45551 0.24259 0.0
H339 H 0.7861 0.44993 0.30014 0.0
S340 S 0.78565 0.63922 0.28071 0.0
N341 N 0.78617 0.60899 0.24784 0.0
N342 N 0.78522 0.60288 0.31025 0.0
C343 C 0.7852 0.56357 0.29395 0.0
C344 C 0.78575 0.56685 0.26002 0.0
C345 C 0.56747 0.78234 0.79026 0.0
C346 C 0.52822 0.78268 0.80893 0.0
C347 C 0.56541 0.78181 0.75694 0.0
C348 C 0.52402 0.78158 0.74089 0.0
H349 H 0.60013 0.78542 0.80133 0.0
H350 H 0.59648 0.78472 0.74378 0.0
S351 S 0.41178 0.77218 0.77856 0.0
N352 N 0.44699 0.77532 0.8088 0.0
N353 N 0.4431 0.77407 0.74624 0.0
C354 C 0.48473 0.77714 0.75924 0.0
C355 C 0.48683 0.77773 0.79323 0.0
C356 C 0.78775 0.48518 0.79315 0.0
C357 C 0.78929 0.52714 0.80835 0.0
C358 C 0.78784 0.48176 0.75986 0.0
C359 C 0.78944 0.52017 0.7404 0.0
H360 H 0.78942 0.45459 0.80695 0.0
H361 H 0.78947 0.44862 0.74942 0.0
S362 S 0.78532 0.638 0.76824 0.0
N363 N 0.78594 0.608 0.80121 0.0
N364 N 0.78603 0.60147 0.73881 0.0
C365 C 0.78654 0.56227 0.75524 0.0
C366 C 0.78652 0.56578 0.78916 0.0
C367 C 0.56507 0.7836 0.29369 0.0
C368 C 0.5231 0.78523 0.30892 0.0
C369 C 0.56843 0.78385 0.26039 0.0
C370 C 0.52995 0.78566 0.24093 0.0
H371 H 0.59571 0.78505 0.30749 0.0
H372 H 0.60158 0.78538 0.24995 0.0
S373 S 0.41204 0.78203 0.26883 0.0
N374 N 0.44215 0.78239 0.30178 0.0
N375 N 0.44855 0.78268 0.23939 0.0
C376 C 0.48782 0.78295 0.25579 0.0
C377 C 0.48438 0.78281 0.28972 0.0
C378 C 0.26646 0.48393 0.79047 0.0
C379 C 0.26696 0.52295 0.80935 0.0
C380 C 0.26671 0.48631 0.75716 0.0
C381 C 0.26749 0.52781 0.74134 0.0
H382 H 0.26291 0.45125 0.80136 0.0
H383 H 0.26317 0.45545 0.74385 0.0
S384 S 0.27907 0.6394 0.7796 0.0
N385 N 0.27565 0.60398 0.80965 0.0
N386 N 0.27635 0.60847 0.74711 0.0
C387 C 0.27273 0.56681 0.75989 0.0
C388 C 0.27243 0.56438 0.79387 0.0
C389 C 0.56576 0.26115 0.2907 0.0
C390 C 0.52678 0.26118 0.30963 0.0
C391 C 0.56324 0.26165 0.25738 0.0
C392 C 0.52163 0.26224 0.24162 0.0
H393 H 0.59855 0.25784 0.30154 0.0
H394 H 0.5941 0.2585 0.24401 0.0
S395 S 0.41 0.27249 0.28007 0.0
N396 N 0.4456 0.26912 0.31006 0.0
N397 N 0.44085 0.27032 0.24753 0.0
C398 C 0.48263 0.26694 0.26024 0.0
C399 C 0.4852 0.26636 0.29421 0.0
C400 C 0.25101 0.43967 1.00786 0.0
C401 C 0.24963 0.48024 0.99087 0.0
C402 C 0.25087 0.43902 0.04109 0.0
C403 C 0.24938 0.47889 0.05886 0.0
H404 H 0.24968 0.40794 0.99538 0.0
H405 H 0.24941 0.40681 0.05293 0.0
S406 S 0.2518 0.59418 0.02602 0.0
N407 N 0.25182 0.56152 0.99429 0.0
N408 N 0.2516 0.56027 0.05708 0.0
C409 C 0.2521 0.5198 0.04233 0.0
C410 C 0.25222 0.52048 1.00823 0.0
C411 C 0.60779 0.25174 0.50874 0.0
C412 C 0.56765 0.2474 0.49143 0.0
C413 C 0.60798 0.25148 0.54198 0.0
C414 C 0.56804 0.24685 0.55944 0.0
H415 H 0.63973 0.25278 0.49649 0.0
H416 H 0.64007 0.25234 0.55407 0.0
S417 S 0.45327 0.24069 0.52569 0.0
N418 N 0.48632 0.24341 0.49423 0.0
N419 N 0.48669 0.2429 0.55702 0.0
C420 C 0.52725 0.24659 0.54259 0.0
C421 C 0.52705 0.24687 0.50849 0.0
C422 C 0.79768 0.60523 0.04135 0.0
C423 C 0.80173 0.56516 0.05871 0.0
C424 C 0.79771 0.60528 1.00811 0.0
C425 C 0.80181 0.56526 0.99069 0.0
H426 H 0.79702 0.6372 0.05354 0.0
H427 H 0.79707 0.63729 0.99597 0.0
S428 S 0.80707 0.45069 1.02462 0.0
N429 N 0.8049 0.48387 0.05604 0.0
N430 N 0.80497 0.48395 0.99324 0.0
C431 C 0.80179 0.52457 1.00761 0.0
C432 C 0.80175 0.52453 0.04172 0.0
C433 C 0.52641 0.79833 0.54198 0.0
C434 C 0.48625 0.79438 0.55936 0.0
C435 C 0.52602 0.79864 0.50846 0.0
C436 C 0.48547 0.79499 0.4915 0.0
H437 H 0.55768 0.80491 0.55423 0.0
H438 H 0.557 0.80548 0.49594 0.0
S439 S 0.37303 0.77369 0.52592 0.0
N440 N 0.40628 0.77916 0.55709 0.0
N441 N 0.40557 0.77973 0.49446 0.0
C442 C 0.44601 0.78632 0.50867 0.0
C443 C 0.44639 0.78602 0.54253 0.0
C444 C 0.25613 0.60488 0.50895 0.0
C445 C 0.25155 0.56493 0.49152 0.0
C446 C 0.25677 0.60474 0.54218 0.0
C447 C 0.25284 0.56462 0.55948 0.0
H448 H 0.2566 0.63693 0.49684 0.0
H449 H 0.25769 0.63667 0.55442 0.0
S450 S 0.24659 0.45028 0.52524 0.0
N451 N 0.24822 0.48364 0.49391 0.0
N452 N 0.24942 0.48333 0.55671 0.0
C453 C 0.25246 0.52403 0.54244 0.0
C454 C 0.25181 0.52419 0.50834 0.0
C455 C 0.44169 0.25027 1.00927 0.0
C456 C 0.48165 0.24736 0.99167 0.0
C457 C 0.44213 0.25065 0.04251 0.0
C458 C 0.48255 0.24807 0.05967 0.0
H459 H 0.4095 0.2498 0.9973 0.0
H460 H 0.41025 0.25042 0.05486 0.0
S461 S 0.59684 0.24618 0.02498 0.0
N462 N 0.56313 0.24689 0.99379 0.0
N463 N 0.56395 0.24752 0.05657 0.0
C464 C 0.52301 0.24919 0.04247 0.0
C465 C 0.52256 0.24884 1.00837 0.0
C466 C 0.8 0.43757 0.50798 0.0
C467 C 0.80251 0.47781 0.4907 0.0
C468 C 0.80071 0.43743 0.54121 0.0
C469 C 0.80394 0.47751 0.55861 0.0
H470 H 0.80017 0.40564 0.49573 0.0
H471 H 0.80138 0.40539 0.55331 0.0
S472 S 0.80489 0.59229 0.52493 0.0
N473 N 0.80314 0.55917 0.49346 0.0
N474 N 0.80445 0.55888 0.55625 0.0
C475 C 0.80222 0.51824 0.54182 0.0
C476 C 0.80151 0.51839 0.50773 0.0
C477 C 0.61025 0.79676 0.04095 0.0
C478 C 0.57045 0.80044 0.05865 0.0
C479 C 0.60959 0.79635 1.00773 0.0
C480 C 0.5691 0.79967 0.99073 0.0
H481 H 0.6425 0.79687 0.05284 0.0
H482 H 0.64137 0.79617 0.99525 0.0
S483 S 0.4551 0.80342 0.02575 0.0
N484 N 0.489 0.80217 0.05685 0.0
N485 N 0.48775 0.80148 0.99404 0.0
C486 C 0.52874 0.79909 1.00803 0.0
C487 C 0.52941 0.79947 0.04212 0.0
C488 C 0.28936 0.32164 0.19006 0.0
C489 C 0.25149 0.31795 0.1702 0.0
C490 C 0.32286 0.28871 0.19029 0.0
C491 C 0.32004 0.25061 0.17065 0.0
H492 H 0.29464 0.3515 0.20423 0.0
H493 H 0.35248 0.29465 0.20462 0.0
S494 S 0.22382 0.22074 0.11868 0.0
N495 N 0.21015 0.26994 0.13374 0.0
N496 N 0.2731 0.20808 0.13415 0.0
C497 C 0.28038 0.24438 0.15296 0.0
C498 C 0.24613 0.27802 0.15274 0.0
C499 C 0.8043 0.28025 0.65021 0.0
C500 C 0.80175 0.31825 0.66999 0.0
C501 C 0.77034 0.2476 0.65026 0.0
C502 C 0.73244 0.25169 0.67004 0.0
H503 H 0.83117 0.27707 0.63305 0.0
H504 H 0.77251 0.22053 0.63318 0.0
S505 S 0.714 0.34048 0.73056 0.0
N506 N 0.76153 0.35455 0.71319 0.0
N507 N 0.69778 0.29372 0.71306 0.0
C508 C 0.73159 0.28744 0.6919 0.0
C509 C 0.7662 0.32054 0.69194 0.0
C510 C 0.80201 0.76653 0.14963 0.0
C511 C 0.7979 0.72887 0.16961 0.0
C512 C 0.76944 0.80057 0.14951 0.0
C513 C 0.73155 0.79832 0.16942 0.0
H514 H 0.82896 0.76841 0.13243 0.0
H515 H 0.77257 0.82723 0.13218 0.0
S516 S 0.70949 0.71138 0.23055 0.0
N517 N 0.75607 0.69482 0.21296 0.0
N518 N 0.69545 0.75874 0.21299 0.0
C519 C 0.72933 0.76307 0.19158 0.0
C520 C 0.76232 0.72837 0.19161 0.0
C521 C 0.29323 0.72622 0.69016 0.0
C522 C 0.25591 0.72879 0.6697 0.0
C523 C 0.32653 0.75938 0.69013 0.0
C524 C 0.32403 0.79661 0.66963 0.0
H525 H 0.29828 0.69703 0.70504 0.0
H526 H 0.35578 0.75425 0.70498 0.0
S527 S 0.22918 0.8235 0.61565 0.0
N528 N 0.21535 0.77492 0.63161 0.0
N529 N 0.27792 0.83717 0.63154 0.0
C530 C 0.28484 0.80179 0.65127 0.0
C531 C 0.25081 0.76792 0.65131 0.0
C532 C 0.28531 0.7992 0.40174 0.0
C533 C 0.3234 0.79571 0.38209 0.0
C534 C 0.25187 0.76596 0.40168 0.0
C535 C 0.25524 0.72793 0.38196 0.0
H536 H 0.28259 0.82627 0.41879 0.0
H537 H 0.22474 0.76877 0.41866 0.0
S538 S 0.34438 0.70668 0.32223 0.0
N539 N 0.3593 0.754 0.33948 0.0
N540 N 0.29691 0.69195 0.33937 0.0
C541 C 0.29115 0.72612 0.3603 0.0
C542 C 0.32508 0.75987 0.36036 0.0
C543 C 0.32373 0.2905 0.86064 0.0
C544 C 0.31961 0.25229 0.88005 0.0
C545 C 0.29066 0.32388 0.86027 0.0
C546 C 0.25196 0.32057 0.8793 0.0
H547 H 0.35396 0.29612 0.84695 0.0
H548 H 0.29691 0.35374 0.84633 0.0
S549 S 0.221 0.22342 0.92989 0.0
N550 N 0.2707 0.2102 0.91541 0.0
N551 N 0.2086 0.2729 0.91473 0.0
C552 C 0.24542 0.28063 0.89653 0.0
C553 C 0.27921 0.24652 0.89691 0.0
C554 C 0.7679 0.24852 0.39892 0.0
C555 C 0.73018 0.25181 0.37887 0.0
C556 C 0.80165 0.28136 0.39867 0.0
C557 C 0.79901 0.31878 0.37837 0.0
H558 H 0.77003 0.22206 0.41648 0.0
H559 H 0.82833 0.27887 0.41608 0.0
S560 S 0.71209 0.33813 0.31657 0.0
N561 N 0.69592 0.29183 0.33469 0.0
N562 N 0.75914 0.35334 0.33423 0.0
C563 C 0.76374 0.32012 0.35609 0.0
C564 C 0.72939 0.28671 0.35635 0.0
C565 C 0.79953 0.76644 0.89938 0.0
C566 C 0.79595 0.72863 0.87947 0.0
C567 C 0.76661 0.80016 0.89926 0.0
C568 C 0.72888 0.79743 0.87917 0.0
H569 H 0.82634 0.7687 0.91668 0.0
H570 H 0.76934 0.82694 0.91653 0.0
S571 S 0.70813 0.70989 0.81818 0.0
N572 N 0.75476 0.69391 0.83602 0.0
N573 N 0.69348 0.75721 0.83556 0.0
C574 C 0.72716 0.76201 0.8571 0.0
C575 C 0.76051 0.72765 0.85732 0.0
loop_
_geom_bond_atom_site_label_1
_geom_bond_atom_site_label_2
_geom_bond_distance
_geom_bond_site_symmetry_2
_ccdc_geom_bond_type
O0 Cd1 2.223 . S
O0 C8 1.315 . S
Cd1 O0 2.223 . S
Cd1 O4 2.297 . S
Cd1 O5 2.439 . S
Cd1 O11 2.240 . S
Cd2 O3 2.240 . S
Cd2 O10 2.223 . S
Cd2 O12 2.297 . S
Cd2 O13 2.439 . S
O3 Cd2 2.240 . S
O3 C8 1.279 . S
O4 Cd1 2.297 . S
O4 C6 1.247 . S
O5 Cd1 2.439 . S
O5 C6 1.208 . S
C6 O4 1.247 . S
C6 O5 1.208 . S
C7 O12 1.247 . S
C7 O13 1.208 . S
C8 O0 1.315 . S
C8 O3 1.279 . S
C9 O10 1.315 . S
C9 O11 1.279 . S
O10 Cd2 2.223 . S
O10 C9 1.315 . S
O11 Cd1 2.240 . S
O11 C9 1.279 . S
O12 Cd2 2.297 . S
O12 C7 1.247 . S
O13 Cd2 2.439 . S
O13 C7 1.208 . S
O14 Cd15 2.223 . S
O14 C22 1.315 . S
Cd15 O14 2.223 . S
Cd15 O18 2.297 . S
Cd15 O19 2.439 . S
Cd15 O25 2.240 . S
Cd16 O17 2.240 . S
Cd16 O24 2.223 . S
Cd16 O26 2.297 . S
Cd16 O27 2.439 . S
O17 Cd16 2.240 . S
O17 C22 1.279 . S
O18 Cd15 2.297 . S
O18 C20 1.247 . S
O19 Cd15 2.439 . S
O19 C20 1.208 . S
C20 O18 1.247 . S
C20 O19 1.208 . S
C21 O26 1.247 . S
C21 O27 1.208 . S
C22 O14 1.315 . S
C22 O17 1.279 . S
C23 O24 1.315 . S
C23 O25 1.279 . S
O24 Cd16 2.223 . S
O24 C23 1.315 . S
O25 Cd15 2.240 . S
O25 C23 1.279 . S
O26 Cd16 2.297 . S
O26 C21 1.247 . S
O27 Cd16 2.439 . S
O27 C21 1.208 . S
O28 Cd29 2.223 . S
O28 C36 1.315 . S
Cd29 O28 2.223 . S
Cd29 O32 2.297 . S
Cd29 O33 2.439 . S
Cd29 O39 2.240 . S
Cd30 O31 2.240 . S
Cd30 O38 2.223 . S
Cd30 O40 2.297 . S
Cd30 O41 2.439 . S
O31 Cd30 2.240 . S
O31 C36 1.279 . S
O32 Cd29 2.297 . S
O32 C34 1.247 . S
O33 Cd29 2.439 . S
O33 C34 1.208 . S
C34 O32 1.247 . S
C34 O33 1.208 . S
C35 O40 1.247 . S
C35 O41 1.208 . S
C36 O28 1.315 . S
C36 O31 1.279 . S
C37 O38 1.315 . S
C37 O39 1.279 . S
O38 Cd30 2.223 . S
O38 C37 1.315 . S
O39 Cd29 2.240 . S
O39 C37 1.279 . S
O40 Cd30 2.297 . S
O40 C35 1.247 . S
O41 Cd30 2.439 . S
O41 C35 1.208 . S
O42 Cd43 2.223 . S
O42 C50 1.315 . S
Cd43 O42 2.223 . S
Cd43 O46 2.297 . S
Cd43 O47 2.439 . S
Cd43 O53 2.240 . S
Cd44 O45 2.240 . S
Cd44 O52 2.223 . S
Cd44 O54 2.297 . S
Cd44 O55 2.439 . S
O45 Cd44 2.240 . S
O45 C50 1.279 . S
O46 Cd43 2.297 . S
O46 C48 1.247 . S
O47 Cd43 2.439 . S
O47 C48 1.208 . S
C48 O46 1.247 . S
C48 O47 1.208 . S
C49 O54 1.247 . S
C49 O55 1.208 . S
C50 O42 1.315 . S
C50 O45 1.279 . S
C51 O52 1.315 . S
C51 O53 1.279 . S
O52 Cd44 2.223 . S
O52 C51 1.315 . S
O53 Cd43 2.240 . S
O53 C51 1.279 . S
O54 Cd44 2.297 . S
O54 C49 1.247 . S
O55 Cd44 2.439 . S
O55 C49 1.208 . S
O56 Cd57 2.223 . S
O56 C64 1.315 . S
Cd57 O56 2.223 . S
Cd57 O60 2.297 . S
Cd57 O61 2.439 . S
Cd57 O67 2.240 . S
Cd58 O59 2.240 . S
Cd58 O66 2.223 . S
Cd58 O68 2.297 . S
Cd58 O69 2.439 . S
O59 Cd58 2.240 . S
O59 C64 1.279 . S
O60 Cd57 2.297 . S
O60 C62 1.247 . S
O61 Cd57 2.439 . S
O61 C62 1.208 . S
C62 O60 1.247 . S
C62 O61 1.208 . S
C63 O68 1.247 . S
C63 O69 1.208 . S
C64 O56 1.315 . S
C64 O59 1.279 . S
C65 O66 1.315 . S
C65 O67 1.279 . S
O66 Cd58 2.223 . S
O66 C65 1.315 . S
O67 Cd57 2.240 . S
O67 C65 1.279 . S
O68 Cd58 2.297 . S
O68 C63 1.247 . S
O69 Cd58 2.439 . S
O69 C63 1.208 . S
O70 Cd71 2.223 . S
O70 C78 1.315 . S
Cd71 O70 2.223 . S
Cd71 O74 2.297 . S
Cd71 O75 2.439 . S
Cd71 O81 2.240 . S
Cd72 O73 2.240 . S
Cd72 O80 2.223 . S
Cd72 O82 2.297 . S
Cd72 O83 2.439 . S
O73 Cd72 2.240 . S
O73 C78 1.279 . S
O74 Cd71 2.297 . S
O74 C76 1.247 . S
O75 Cd71 2.439 . S
O75 C76 1.208 . S
C76 O74 1.247 . S
C76 O75 1.208 . S
C77 O82 1.247 . S
C77 O83 1.208 . S
C78 O70 1.315 . S
C78 O73 1.279 . S
C79 O80 1.315 . S
C79 O81 1.279 . S
O80 Cd72 2.223 . S
O80 C79 1.315 . S
O81 Cd71 2.240 . S
O81 C79 1.279 . S
O82 Cd72 2.297 . S
O82 C77 1.247 . S
O83 Cd72 2.439 . S
O83 C77 1.208 . S
O84 Cd85 2.223 . S
O84 C92 1.315 . S
Cd85 O84 2.223 . S
Cd85 O88 2.297 . S
Cd85 O89 2.439 . S
Cd85 O95 2.240 . S
Cd86 O87 2.240 . S
Cd86 O94 2.223 . S
Cd86 O96 2.297 . S
Cd86 O97 2.439 . S
O87 Cd86 2.240 . S
O87 C92 1.279 . S
O88 Cd85 2.297 . S
O88 C90 1.247 . S
O89 Cd85 2.439 . S
O89 C90 1.208 . S
C90 O88 1.247 . S
C90 O89 1.208 . S
C91 O96 1.247 . S
C91 O97 1.208 . S
C92 O84 1.315 . S
C92 O87 1.279 . S
C93 O94 1.315 . S
C93 O95 1.279 . S
O94 Cd86 2.223 . S
O94 C93 1.315 . S
O95 Cd85 2.240 . S
O95 C93 1.279 . S
O96 Cd86 2.297 . S
O96 C91 1.247 . S
O97 Cd86 2.439 . S
O97 C91 1.208 . S
O98 Cd99 2.223 . S
O98 C106 1.315 . S
Cd99 O98 2.223 . S
Cd99 O102 2.297 . S
Cd99 O103 2.439 . S
Cd99 O109 2.240 . S
Cd100 O101 2.240 . S
Cd100 O108 2.223 . S
Cd100 O110 2.297 . S
Cd100 O111 2.439 . S
O101 Cd100 2.240 . S
O101 C106 1.279 . S
O102 Cd99 2.297 . S
O102 C104 1.247 . S
O103 Cd99 2.439 . S
O103 C104 1.208 . S
C104 O102 1.247 . S
C104 O103 1.208 . S
C105 O110 1.247 . S
C105 O111 1.208 . S
C106 O98 1.315 . S
C106 O101 1.279 . S
C107 O108 1.315 . S
C107 O109 1.279 . S
O108 Cd100 2.223 . S
O108 C107 1.315 . S
O109 Cd99 2.240 . S
O109 C107 1.279 . S
O110 Cd100 2.297 . S
O110 C105 1.247 . S
O111 Cd100 2.439 . S
O111 C105 1.208 . S
O112 Cd113 2.223 . S
O112 C120 1.315 . S
Cd113 O112 2.223 . S
Cd113 O116 2.297 . S
Cd113 O117 2.439 . S
Cd113 O123 2.240 . S
Cd114 O115 2.240 . S
Cd114 O122 2.223 . S
Cd114 O124 2.297 . S
Cd114 O125 2.439 . S
O115 Cd114 2.240 . S
O115 C120 1.279 . S
O116 Cd113 2.297 . S
O116 C118 1.247 . S
O117 Cd113 2.439 . S
O117 C118 1.208 . S
C118 O116 1.247 . S
C118 O117 1.208 . S
C119 O124 1.247 . S
C119 O125 1.208 . S
C120 O112 1.315 . S
C120 O115 1.279 . S
C121 O122 1.315 . S
C121 O123 1.279 . S
O122 Cd114 2.223 . S
O122 C121 1.315 . S
O123 Cd113 2.240 . S
O123 C121 1.279 . S
O124 Cd114 2.297 . S
O124 C119 1.247 . S
O125 Cd114 2.439 . S
O125 C119 1.208 . S
O126 Cd127 2.223 . S
O126 C134 1.315 . S
Cd127 O126 2.223 . S
Cd127 O130 2.297 . S
Cd127 O131 2.439 . S
Cd127 O137 2.240 . S
Cd128 O129 2.240 . S
Cd128 O136 2.223 . S
Cd128 O138 2.297 . S
Cd128 O139 2.439 . S
O129 Cd128 2.240 . S
O129 C134 1.279 . S
O130 Cd127 2.297 . S
O130 C132 1.247 . S
O131 Cd127 2.439 . S
O131 C132 1.208 . S
C132 O130 1.247 . S
C132 O131 1.208 . S
C133 O138 1.247 . S
C133 O139 1.208 . S
C134 O126 1.315 . S
C134 O129 1.279 . S
C135 O136 1.315 . S
C135 O137 1.279 . S
O136 Cd128 2.223 . S
O136 C135 1.315 . S
O137 Cd127 2.240 . S
O137 C135 1.279 . S
O138 Cd128 2.297 . S
O138 C133 1.247 . S
O139 Cd128 2.439 . S
O139 C133 1.208 . S
O140 Cd141 2.223 . S
O140 C148 1.315 . S
Cd141 O140 2.223 . S
Cd141 O144 2.297 . S
Cd141 O145 2.439 . S
Cd141 O151 2.240 . S
Cd142 O143 2.240 . S
Cd142 O150 2.223 . S
Cd142 O152 2.297 . S
Cd142 O153 2.439 . S
O143 Cd142 2.240 . S
O143 C148 1.279 . S
O144 Cd141 2.297 . S
O144 C146 1.247 . S
O145 Cd141 2.439 . S
O145 C146 1.208 . S
C146 O144 1.247 . S
C146 O145 1.208 . S
C147 O152 1.247 . S
C147 O153 1.208 . S
C148 O140 1.315 . S
C148 O143 1.279 . S
C149 O150 1.315 . S
C149 O151 1.279 . S
O150 Cd142 2.223 . S
O150 C149 1.315 . S
O151 Cd141 2.240 . S
O151 C149 1.279 . S
O152 Cd142 2.297 . S
O152 C147 1.247 . S
O153 Cd142 2.439 . S
O153 C147 1.208 . S
O154 Cd155 2.223 . S
O154 C162 1.315 . S
Cd155 O154 2.223 . S
Cd155 O158 2.297 . S
Cd155 O159 2.439 . S
Cd155 O165 2.240 . S
Cd156 O157 2.240 . S
Cd156 O164 2.223 . S
Cd156 O166 2.297 . S
Cd156 O167 2.439 . S
O157 Cd156 2.240 . S
O157 C162 1.279 . S
O158 Cd155 2.297 . S
O158 C160 1.247 . S
O159 Cd155 2.439 . S
O159 C160 1.208 . S
C160 O158 1.247 . S
C160 O159 1.208 . S
C161 O166 1.247 . S
C161 O167 1.208 . S
C162 O154 1.315 . S
C162 O157 1.279 . S
C163 O164 1.315 . S
C163 O165 1.279 . S
O164 Cd156 2.223 . S
O164 C163 1.315 . S
O165 Cd155 2.240 . S
O165 C163 1.279 . S
O166 Cd156 2.297 . S
O166 C161 1.247 . S
O167 Cd156 2.439 . S
O167 C161 1.208 . S
O168 Cd169 2.223 . S
O168 C176 1.315 . S
Cd169 O168 2.223 . S
Cd169 O172 2.297 . S
Cd169 O173 2.439 . S
Cd169 O179 2.240 . S
Cd170 O171 2.240 . S
Cd170 O178 2.223 . S
Cd170 O180 2.297 . S
Cd170 O181 2.439 . S
O171 Cd170 2.240 . S
O171 C176 1.279 . S
O172 Cd169 2.297 . S
O172 C174 1.247 . S
O173 Cd169 2.439 . S
O173 C174 1.208 . S
C174 O172 1.247 . S
C174 O173 1.208 . S
C175 O180 1.247 . S
C175 O181 1.208 . S
C176 O168 1.315 . S
C176 O171 1.279 . S
C177 O178 1.315 . S
C177 O179 1.279 . S
O178 Cd170 2.223 . S
O178 C177 1.315 . S
O179 Cd169 2.240 . S
O179 C177 1.279 . S
O180 Cd170 2.297 . S
O180 C175 1.247 . S
O181 Cd170 2.439 . S
O181 C175 1.208 . S
O182 Cd183 2.223 . S
O182 C190 1.315 . S
Cd183 O182 2.223 . S
Cd183 O186 2.297 . S
Cd183 O187 2.439 . S
Cd183 O193 2.240 . S
Cd184 O185 2.240 . S
Cd184 O192 2.223 . S
Cd184 O194 2.297 . S
Cd184 O195 2.439 . S
O185 Cd184 2.240 . S
O185 C190 1.279 . S
O186 Cd183 2.297 . S
O186 C188 1.247 . S
O187 Cd183 2.439 . S
O187 C188 1.208 . S
C188 O186 1.247 . S
C188 O187 1.208 . S
C189 O194 1.247 . S
C189 O195 1.208 . S
C190 O182 1.315 . S
C190 O185 1.279 . S
C191 O192 1.315 . S
C191 O193 1.279 . S
O192 Cd184 2.223 . S
O192 C191 1.315 . S
O193 Cd183 2.240 . S
O193 C191 1.279 . S
O194 Cd184 2.297 . S
O194 C189 1.247 . S
O195 Cd184 2.439 . S
O195 C189 1.208 . S
O196 Cd197 2.223 . S
O196 C204 1.315 . S
Cd197 O196 2.223 . S
Cd197 O200 2.297 . S
Cd197 O201 2.439 . S
Cd197 O207 2.240 . S
Cd198 O199 2.240 . S
Cd198 O206 2.223 . S
Cd198 O208 2.297 . S
Cd198 O209 2.439 . S
O199 Cd198 2.240 . S
O199 C204 1.279 . S
O200 Cd197 2.297 . S
O200 C202 1.247 . S
O201 Cd197 2.439 . S
O201 C202 1.208 . S
C202 O200 1.247 . S
C202 O201 1.208 . S
C203 O208 1.247 . S
C203 O209 1.208 . S
C204 O196 1.315 . S
C204 O199 1.279 . S
C205 O206 1.315 . S
C205 O207 1.279 . S
O206 Cd198 2.223 . S
O206 C205 1.315 . S
O207 Cd197 2.240 . S
O207 C205 1.279 . S
O208 Cd198 2.297 . S
O208 C203 1.247 . S
O209 Cd198 2.439 . S
O209 C203 1.208 . S
O210 Cd211 2.223 . S
O210 C218 1.315 . S
Cd211 O210 2.223 . S
Cd211 O214 2.297 . S
Cd211 O215 2.439 . S
Cd211 O221 2.240 . S
Cd212 O213 2.240 . S
Cd212 O220 2.223 . S
Cd212 O222 2.297 . S
Cd212 O223 2.439 . S
O213 Cd212 2.240 . S
O213 C218 1.279 . S
O214 Cd211 2.297 . S
O214 C216 1.247 . S
O215 Cd211 2.439 . S
O215 C216 1.208 . S
C216 O214 1.247 . S
C216 O215 1.208 . S
C217 O222 1.247 . S
C217 O223 1.208 . S
C218 O210 1.315 . S
C218 O213 1.279 . S
C219 O220 1.315 . S
C219 O221 1.279 . S
O220 Cd212 2.223 . S
O220 C219 1.315 . S
O221 Cd211 2.240 . S
O221 C219 1.279 . S
O222 Cd212 2.297 . S
O222 C217 1.247 . S
O223 Cd212 2.439 . S
O223 C217 1.208 . S
C224 C225 1.369 . S
C224 C226 1.419 1_455 S
C224 H228 0.930 . S
C225 C224 1.369 . S
C225 C234 1.429 . S
C226 C224 1.419 1_655 S
C226 C227 1.363 . S
C226 H229 0.929 . S
C227 C226 1.363 . S
C227 C233 1.428 . S
H228 C224 0.930 . S
H229 C226 0.929 . S
S230 N231 1.613 . S
S230 N232 1.610 1_455 S
N231 S230 1.613 . S
N231 C234 1.350 . S
N232 S230 1.610 1_655 S
N232 C233 1.351 . S
C233 C227 1.428 . S
C233 N232 1.351 . S
C233 C234 1.434 1_655 S
C234 C225 1.429 . S
C234 N231 1.350 . S
C234 C233 1.434 1_455 S
C235 C236 1.369 . S
C235 C237 1.419 1_565 S
C235 H239 0.930 . S
C236 C235 1.369 . S
C236 C245 1.429 . S
C237 C235 1.419 1_545 S
C237 C238 1.363 . S
C237 H240 0.929 . S
C238 C237 1.363 . S
C238 C244 1.428 . S
H239 C235 0.930 . S
H240 C237 0.929 . S
S241 N242 1.613 . S
S241 N243 1.604 1_565 S
N242 S241 1.613 . S
N242 C245 1.350 . S
N243 S241 1.604 1_545 S
N243 C244 1.351 . S
C244 C238 1.428 . S
C244 N243 1.351 . S
C244 C245 1.434 1_545 S
C245 C236 1.429 . S
C245 N242 1.350 . S
C245 C244 1.434 1_565 S
C246 C247 1.369 . S
C246 C248 1.419 1_455 S
C246 H250 0.930 . S
C247 C246 1.369 . S
C247 C256 1.429 . S
C248 C246 1.419 1_655 S
C248 C249 1.363 . S
C248 H251 0.929 . S
C249 C248 1.363 . S
C249 C255 1.428 . S
H250 C246 0.930 . S
H251 C248 0.929 . S
S252 N253 1.611 1_655 S
S252 N254 1.610 . S
N253 S252 1.611 1_455 S
N253 C256 1.350 . S
N254 S252 1.610 . S
N254 C255 1.351 . S
C255 C249 1.428 . S
C255 N254 1.351 . S
C255 C256 1.434 1_655 S
C256 C247 1.429 . S
C256 N253 1.350 . S
C256 C255 1.434 1_455 S
C257 C258 1.369 1_545 S
C257 C259 1.419 . S
C257 H261 0.930 . S
C258 C257 1.369 1_565 S
C258 C267 1.429 . S
C259 C257 1.419 . S
C259 C260 1.363 . S
C259 H262 0.929 . S
C260 C259 1.363 . S
C260 C266 1.428 1_545 S
H261 C257 0.930 . S
H262 C259 0.929 . S
S263 N264 1.613 . S
S263 N265 1.610 . S
N264 S263 1.613 . S
N264 C267 1.350 . S
N265 S263 1.610 . S
N265 C266 1.351 . S
C266 C260 1.428 1_565 S
C266 N265 1.351 . S
C266 C267 1.434 . S
C267 C258 1.429 . S
C267 N264 1.350 . S
C267 C266 1.434 . S
C268 C269 1.369 . S
C268 C270 1.419 1_655 S
C268 H272 0.930 . S
C269 C268 1.369 . S
C269 C278 1.429 . S
C270 C268 1.419 1_455 S
C270 C271 1.363 . S
C270 H273 0.929 . S
C271 C270 1.363 . S
C271 C277 1.428 . S
H272 C268 0.930 . S
H273 C270 0.929 . S
S274 N275 1.613 1_455 S
S274 N276 1.610 . S
N275 S274 1.613 1_655 S
N275 C278 1.350 . S
N276 S274 1.610 . S
N276 C277 1.351 . S
C277 C271 1.428 . S
C277 N276 1.351 . S
C277 C278 1.434 1_455 S
C278 C269 1.429 . S
C278 N275 1.350 . S
C278 C277 1.434 1_655 S
C279 C280 1.369 . S
C279 C281 1.419 1_545 S
C279 H283 0.930 . S
C280 C279 1.369 . S
C280 C289 1.429 . S
C281 C279 1.419 1_565 S
C281 C282 1.363 . S
C281 H284 0.929 . S
C282 C281 1.363 . S
C282 C288 1.428 . S
H283 C279 0.930 . S
H284 C281 0.929 . S
S285 N286 1.613 1_565 S
S285 N287 1.610 . S
N286 S285 1.613 1_545 S
N286 C289 1.350 . S
N287 S285 1.610 . S
N287 C288 1.351 . S
C288 C282 1.428 . S
C288 N287 1.351 . S
C288 C289 1.434 1_565 S
C289 C280 1.429 . S
C289 N286 1.350 . S
C289 C288 1.434 1_545 S
C290 C291 1.349 1_455 S
C290 C292 1.437 . S
C290 H294 0.932 . S
C291 C290 1.349 1_655 S
C291 C300 1.429 . S
C292 C290 1.437 . S
C292 C293 1.363 . S
C292 H295 0.929 . S
C293 C292 1.363 . S
C293 C299 1.428 1_455 S
H294 C290 0.932 . S
H295 C292 0.929 . S
S296 N297 1.613 . S
S296 N298 1.610 . S
N297 S296 1.613 . S
N297 C300 1.350 . S
N298 S296 1.610 . S
N298 C299 1.351 . S
C299 C293 1.428 1_655 S
C299 N298 1.351 . S
C299 C300 1.434 . S
C300 C291 1.429 . S
C300 N297 1.350 . S
C300 C299 1.434 . S
C301 C302 1.369 . S
C301 C303 1.419 1_545 S
C301 H305 0.930 . S
C302 C301 1.369 . S
C302 C311 1.429 . S
C303 C301 1.419 1_565 S
C303 C304 1.363 . S
C303 H306 0.929 . S
C304 C303 1.363 . S
C304 C310 1.428 . S
H305 C301 0.930 . S
H306 C303 0.929 . S
S307 N308 1.613 . S
S307 N309 1.610 . S
N308 S307 1.613 . S
N308 C311 1.350 1_565 S
N309 S307 1.610 . S
N309 C310 1.351 . S
C310 C304 1.428 . S
C310 N309 1.351 . S
C310 C311 1.434 1_565 S
C311 C302 1.429 . S
C311 N308 1.350 1_545 S
C311 C310 1.434 1_545 S
C312 C313 1.369 . S
C312 C314 1.419 . S
C312 H316 0.930 . S
C313 C312 1.369 . S
C313 C322 1.429 . S
C314 C312 1.419 . S
C314 C315 1.363 . S
C314 H317 0.929 . S
C315 C314 1.363 . S
C315 C321 1.428 . S
H316 C312 0.930 . S
H317 C314 0.929 . S
S318 N319 1.613 . S
S318 N320 1.610 . S
N319 S318 1.613 . S
N319 C322 1.350 . S
N320 S318 1.610 . S
N320 C321 1.351 . S
C321 C315 1.428 . S
C321 N320 1.351 . S
C321 C322 1.434 . S
C322 C313 1.429 . S
C322 N319 1.350 . S
C322 C321 1.434 . S
C323 C324 1.369 . S
C323 C325 1.419 . S
C323 H327 0.930 . S
C324 C323 1.369 . S
C324 C333 1.429 . S
C325 C323 1.419 . S
C325 C326 1.363 . S
C325 H328 0.929 . S
C326 C325 1.363 . S
C326 C332 1.428 . S
H327 C323 0.930 . S
H328 C325 0.929 . S
S329 N330 1.613 . S
S329 N331 1.610 . S
N330 S329 1.613 . S
N330 C333 1.350 . S
N331 S329 1.610 . S
N331 C332 1.351 . S
C332 C326 1.428 . S
C332 N331 1.351 . S
C332 C333 1.434 . S
C333 C324 1.429 . S
C333 N330 1.350 . S
C333 C332 1.434 . S
C334 C335 1.369 . S
C334 C336 1.419 . S
C334 H338 0.930 . S
C335 C334 1.369 . S
C335 C344 1.429 . S
C336 C334 1.419 . S
C336 C337 1.363 . S
C336 H339 0.929 . S
C337 C336 1.363 . S
C337 C343 1.428 . S
H338 C334 0.930 . S
H339 C336 0.929 . S
S340 N341 1.613 . S
S340 N342 1.610 . S
N341 S340 1.613 . S
N341 C344 1.350 . S
N342 S340 1.610 . S
N342 C343 1.351 . S
C343 C337 1.428 . S
C343 N342 1.351 . S
C343 C344 1.434 . S
C344 C335 1.429 . S
C344 N341 1.350 . S
C344 C343 1.434 . S
C345 C346 1.369 . S
C345 C347 1.419 . S
C345 H349 0.930 . S
C346 C345 1.369 . S
C346 C355 1.429 . S
C347 C345 1.419 . S
C347 C348 1.363 . S
C347 H350 0.929 . S
C348 C347 1.363 . S
C348 C354 1.428 . S
H349 C345 0.930 . S
H350 C347 0.929 . S
S351 N352 1.613 . S
S351 N353 1.610 . S
N352 S351 1.613 . S
N352 C355 1.350 . S
N353 S351 1.610 . S
N353 C354 1.351 . S
C354 C348 1.428 . S
C354 N353 1.351 . S
C354 C355 1.434 . S
C355 C346 1.429 . S
C355 N352 1.350 . S
C355 C354 1.434 . S
C356 C357 1.369 . S
C356 C358 1.419 . S
C356 H360 0.930 . S
C357 C356 1.369 . S
C357 C366 1.429 . S
C358 C356 1.419 . S
C358 C359 1.363 . S
C358 H361 0.929 . S
C359 C358 1.363 . S
C359 C365 1.428 . S
H360 C356 0.930 . S
H361 C358 0.929 . S
S362 N363 1.613 . S
S362 N364 1.610 . S
N363 S362 1.613 . S
N363 C366 1.350 . S
N364 S362 1.610 . S
N364 C365 1.351 . S
C365 C359 1.428 . S
C365 N364 1.351 . S
C365 C366 1.434 . S
C366 C357 1.429 . S
C366 N363 1.350 . S
C366 C365 1.434 . S
C367 C368 1.369 . S
C367 C369 1.419 . S
C367 H371 0.930 . S
C368 C367 1.369 . S
C368 C377 1.429 . S
C369 C367 1.419 . S
C369 C370 1.363 . S
C369 H372 0.929 . S
C370 C369 1.363 . S
C370 C376 1.428 . S
H371 C367 0.930 . S
H372 C369 0.929 . S
S373 N374 1.613 . S
S373 N375 1.610 . S
N374 S373 1.613 . S
N374 C377 1.350 . S
N375 S373 1.610 . S
N375 C376 1.351 . S
C376 C370 1.428 . S
C376 N375 1.351 . S
C376 C377 1.434 . S
C377 C368 1.429 . S
C377 N374 1.350 . S
C377 C376 1.434 . S
C378 C379 1.369 . S
C378 C380 1.419 . S
C378 H382 0.930 . S
C379 C378 1.369 . S
C379 C388 1.429 . S
C380 C378 1.419 . S
C380 C381 1.363 . S
C380 H383 0.929 . S
C381 C380 1.363 . S
C381 C387 1.428 . S
H382 C378 0.930 . S
H383 C380 0.929 . S
S384 N385 1.613 . S
S384 N386 1.610 . S
N385 S384 1.613 . S
N385 C388 1.350 . S
N386 S384 1.610 . S
N386 C387 1.351 . S
C387 C381 1.428 . S
C387 N386 1.351 . S
C387 C388 1.434 . S
C388 C379 1.429 . S
C388 N385 1.350 . S
C388 C387 1.434 . S
C389 C390 1.369 . S
C389 C391 1.419 . S
C389 H393 0.930 . S
C390 C389 1.369 . S
C390 C399 1.429 . S
C391 C389 1.419 . S
C391 C392 1.363 . S
C391 H394 0.929 . S
C392 C391 1.363 . S
C392 C398 1.428 . S
H393 C389 0.930 . S
H394 C391 0.929 . S
S395 N396 1.613 . S
S395 N397 1.610 . S
N396 S395 1.613 . S
N396 C399 1.350 . S
N397 S395 1.610 . S
N397 C398 1.351 . S
C398 C392 1.428 . S
C398 N397 1.351 . S
C398 C399 1.434 . S
C399 C390 1.429 . S
C399 N396 1.350 . S
C399 C398 1.434 . S
C400 C401 1.369 . S
C400 C402 1.419 1_556 S
C400 H404 0.930 . S
C401 C400 1.369 . S
C401 C410 1.429 . S
C402 C400 1.419 1_554 S
C402 C403 1.363 . S
C402 H405 0.929 . S
C403 C402 1.363 . S
C403 C409 1.428 . S
H404 C400 0.930 . S
H405 C402 0.929 . S
S406 N407 1.616 1_554 S
S406 N408 1.608 . S
N407 S406 1.616 1_556 S
N407 C410 1.350 . S
N408 S406 1.608 . S
N408 C409 1.351 . S
C409 C403 1.428 . S
C409 N408 1.351 . S
C409 C410 1.434 1_554 S
C410 C401 1.429 . S
C410 N407 1.350 . S
C410 C409 1.434 1_556 S
C411 C412 1.369 . S
C411 C413 1.419 . S
C411 H415 0.930 . S
C412 C411 1.369 . S
C412 C421 1.429 . S
C413 C411 1.419 . S
C413 C414 1.363 . S
C413 H416 0.929 . S
C414 C413 1.363 . S
C414 C420 1.428 . S
H415 C411 0.930 . S
H416 C413 0.929 . S
S417 N418 1.613 . S
S417 N419 1.610 . S
N418 S417 1.613 . S
N418 C421 1.350 . S
N419 S417 1.610 . S
N419 C420 1.351 . S
C420 C414 1.428 . S
C420 N419 1.351 . S
C420 C421 1.434 . S
C421 C412 1.429 . S
C421 N418 1.350 . S
C421 C420 1.434 . S
C422 C423 1.369 . S
C422 C424 1.419 1_554 S
C422 H426 0.930 . S
C423 C422 1.369 . S
C423 C432 1.429 . S
C424 C422 1.419 1_556 S
C424 C425 1.363 . S
C424 H427 0.929 . S
C425 C424 1.363 . S
C425 C431 1.428 . S
H426 C422 0.930 . S
H427 C424 0.929 . S
S428 N429 1.616 1_556 S
S428 N430 1.608 . S
N429 S428 1.616 1_554 S
N429 C432 1.350 . S
N430 S428 1.608 . S
N430 C431 1.351 . S
C431 C425 1.428 . S
C431 N430 1.351 . S
C431 C432 1.434 1_556 S
C432 C423 1.429 . S
C432 N429 1.350 . S
C432 C431 1.434 1_554 S
C433 C434 1.369 . S
C433 C435 1.419 . S
C433 H437 0.930 . S
C434 C433 1.369 . S
C434 C443 1.429 . S
C435 C433 1.419 . S
C435 C436 1.363 . S
C435 H438 0.929 . S
C436 C435 1.363 . S
C436 C442 1.428 . S
H437 C433 0.930 . S
H438 C435 0.929 . S
S439 N440 1.613 . S
S439 N441 1.610 . S
N440 S439 1.613 . S
N440 C443 1.350 . S
N441 S439 1.610 . S
N441 C442 1.351 . S
C442 C436 1.428 . S
C442 N441 1.351 . S
C442 C443 1.434 . S
C443 C434 1.429 . S
C443 N440 1.350 . S
C443 C442 1.434 . S
C444 C445 1.369 . S
C444 C446 1.419 . S
C444 H448 0.930 . S
C445 C444 1.369 . S
C445 C454 1.429 . S
C446 C444 1.419 . S
C446 C447 1.363 . S
C446 H449 0.929 . S
C447 C446 1.363 . S
C447 C453 1.428 . S
H448 C444 0.930 . S
H449 C446 0.929 . S
S450 N451 1.613 . S
S450 N452 1.610 . S
N451 S450 1.613 . S
N451 C454 1.350 . S
N452 S450 1.610 . S
N452 C453 1.351 . S
C453 C447 1.428 . S
C453 N452 1.351 . S
C453 C454 1.434 . S
C454 C445 1.429 . S
C454 N451 1.350 . S
C454 C453 1.434 . S
C455 C456 1.369 . S
C455 C457 1.419 1_556 S
C455 H459 0.930 . S
C456 C455 1.369 . S
C456 C465 1.429 . S
C457 C455 1.419 1_554 S
C457 C458 1.363 . S
C457 H460 0.929 . S
C458 C457 1.363 . S
C458 C464 1.428 . S
H459 C455 0.930 . S
H460 C457 0.929 . S
S461 N462 1.616 1_554 S
S461 N463 1.608 . S
N462 S461 1.616 1_556 S
N462 C465 1.350 . S
N463 S461 1.608 . S
N463 C464 1.351 . S
C464 C458 1.428 . S
C464 N463 1.351 . S
C464 C465 1.434 1_554 S
C465 C456 1.429 . S
C465 N462 1.350 . S
C465 C464 1.434 1_556 S
C466 C467 1.369 . S
C466 C468 1.419 . S
C466 H470 0.930 . S
C467 C466 1.369 . S
C467 C476 1.429 . S
C468 C466 1.419 . S
C468 C469 1.363 . S
C468 H471 0.929 . S
C469 C468 1.363 . S
C469 C475 1.428 . S
H470 C466 0.930 . S
H471 C468 0.929 . S
S472 N473 1.613 . S
S472 N474 1.610 . S
N473 S472 1.613 . S
N473 C476 1.350 . S
N474 S472 1.610 . S
N474 C475 1.351 . S
C475 C469 1.428 . S
C475 N474 1.351 . S
C475 C476 1.434 . S
C476 C467 1.429 . S
C476 N473 1.350 . S
C476 C475 1.434 . S
C477 C478 1.369 . S
C477 C479 1.419 1_554 S
C477 H481 0.930 . S
C478 C477 1.369 . S
C478 C487 1.429 . S
C479 C477 1.419 1_556 S
C479 C480 1.363 . S
C479 H482 0.929 . S
C480 C479 1.363 . S
C480 C486 1.428 . S
H481 C477 0.930 . S
H482 C479 0.929 . S
S483 N484 1.616 1_556 S
S483 N485 1.608 . S
N484 S483 1.616 1_554 S
N484 C487 1.350 . S
N485 S483 1.608 . S
N485 C486 1.351 . S
C486 C480 1.428 . S
C486 N485 1.351 . S
C486 C487 1.434 1_556 S
C487 C478 1.429 . S
C487 N484 1.350 . S
C487 C486 1.434 1_554 S
C488 C489 1.369 . S
C488 C490 1.419 . S
C488 H492 0.930 . S
C489 C488 1.369 . S
C489 C498 1.429 . S
C490 C488 1.419 . S
C490 C491 1.363 . S
C490 H493 0.929 . S
C491 C490 1.363 . S
C491 C497 1.428 . S
H492 C488 0.930 . S
H493 C490 0.929 . S
S494 N495 1.613 . S
S494 N496 1.610 . S
N495 S494 1.613 . S
N495 C498 1.350 . S
N496 S494 1.610 . S
N496 C497 1.351 . S
C497 C491 1.428 . S
C497 N496 1.351 . S
C497 C498 1.434 . S
C498 C489 1.429 . S
C498 N495 1.350 . S
C498 C497 1.434 . S
C499 C500 1.369 . S
C499 C501 1.419 . S
C499 H503 0.930 . S
C500 C499 1.369 . S
C500 C509 1.429 . S
C501 C499 1.419 . S
C501 C502 1.363 . S
C501 H504 0.929 . S
C502 C501 1.363 . S
C502 C508 1.428 . S
H503 C499 0.930 . S
H504 C501 0.929 . S
S505 N506 1.613 . S
S505 N507 1.610 . S
N506 S505 1.613 . S
N506 C509 1.350 . S
N507 S505 1.610 . S
N507 C508 1.351 . S
C508 C502 1.428 . S
C508 N507 1.351 . S
C508 C509 1.434 . S
C509 C500 1.429 . S
C509 N506 1.350 . S
C509 C508 1.434 . S
C510 C511 1.369 . S
C510 C512 1.419 . S
C510 H514 0.930 . S
C511 C510 1.369 . S
C511 C520 1.429 . S
C512 C510 1.419 . S
C512 C513 1.363 . S
C512 H515 0.929 . S
C513 C512 1.363 . S
C513 C519 1.428 . S
H514 C510 0.930 . S
H515 C512 0.929 . S
S516 N517 1.613 . S
S516 N518 1.610 . S
N517 S516 1.613 . S
N517 C520 1.350 . S
N518 S516 1.610 . S
N518 C519 1.351 . S
C519 C513 1.428 . S
C519 N518 1.351 . S
C519 C520 1.434 . S
C520 C511 1.429 . S
C520 N517 1.350 . S
C520 C519 1.434 . S
C521 C522 1.369 . S
C521 C523 1.419 . S
C521 H525 0.930 . S
C522 C521 1.369 . S
C522 C531 1.429 . S
C523 C521 1.419 . S
C523 C524 1.363 . S
C523 H526 0.929 . S
C524 C523 1.363 . S
C524 C530 1.428 . S
H525 C521 0.930 . S
H526 C523 0.929 . S
S527 N528 1.613 . S
S527 N529 1.610 . S
N528 S527 1.613 . S
N528 C531 1.350 . S
N529 S527 1.610 . S
N529 C530 1.351 . S
C530 C524 1.428 . S
C530 N529 1.351 . S
C530 C531 1.434 . S
C531 C522 1.429 . S
C531 N528 1.350 . S
C531 C530 1.434 . S
C532 C533 1.369 . S
C532 C534 1.419 . S
C532 H536 0.930 . S
C533 C532 1.369 . S
C533 C542 1.429 . S
C534 C532 1.419 . S
C534 C535 1.363 . S
C534 H537 0.929 . S
C535 C534 1.363 . S
C535 C541 1.428 . S
H536 C532 0.930 . S
H537 C534 0.929 . S
S538 N539 1.613 . S
S538 N540 1.610 . S
N539 S538 1.613 . S
N539 C542 1.350 . S
N540 S538 1.610 . S
N540 C541 1.351 . S
C541 C535 1.428 . S
C541 N540 1.351 . S
C541 C542 1.434 . S
C542 C533 1.429 . S
C542 N539 1.350 . S
C542 C541 1.434 . S
C543 C544 1.369 . S
C543 C545 1.419 . S
C543 H547 0.930 . S
C544 C543 1.369 . S
C544 C553 1.429 . S
C545 C543 1.419 . S
C545 C546 1.363 . S
C545 H548 0.929 . S
C546 C545 1.363 . S
C546 C552 1.428 . S
H547 C543 0.930 . S
H548 C545 0.929 . S
S549 N550 1.613 . S
S549 N551 1.610 . S
N550 S549 1.613 . S
N550 C553 1.350 . S
N551 S549 1.610 . S
N551 C552 1.351 . S
C552 C546 1.428 . S
C552 N551 1.351 . S
C552 C553 1.434 . S
C553 C544 1.429 . S
C553 N550 1.350 . S
C553 C552 1.434 . S
C554 C555 1.369 . S
C554 C556 1.419 . S
C554 H558 0.930 . S
C555 C554 1.369 . S
C555 C564 1.429 . S
C556 C554 1.419 . S
C556 C557 1.363 . S
C556 H559 0.929 . S
C557 C556 1.363 . S
C557 C563 1.428 . S
H558 C554 0.930 . S
H559 C556 0.929 . S
S560 N561 1.613 . S
S560 N562 1.610 . S
N561 S560 1.613 . S
N561 C564 1.350 . S
N562 S560 1.610 . S
N562 C563 1.351 . S
C563 C557 1.428 . S
C563 N562 1.351 . S
C563 C564 1.434 . S
C564 C555 1.429 . S
C564 N561 1.350 . S
C564 C563 1.434 . S
C565 C566 1.369 . S
C565 C567 1.419 . S
C565 H569 0.930 . S
C566 C565 1.369 . S
C566 C575 1.429 . S
C567 C565 1.419 . S
C567 C568 1.363 . S
C567 H570 0.929 . S
C568 C567 1.363 . S
C568 C574 1.428 . S
H569 C565 0.930 . S
H570 C567 0.929 . S
S571 N572 1.613 . S
S571 N573 1.610 . S
N572 S571 1.613 . S
N572 C575 1.350 . S
N573 S571 1.610 . S
N573 C574 1.351 . S
C574 C568 1.428 . S
C574 N573 1.351 . S
C574 C575 1.434 . S
C575 C566 1.429 . S
C575 N572 1.350 . S
C575 C574 1.434 . S
C225 C9 1.304 . S
C227 C37 1.313 . S
C236 C51 1.305 . S
C238 C23 1.310 . S
C247 C65 1.313 . S
C249 C93 1.308 . S
C258 C107 1.302 . S
C260 C79 1.313 . S
C269 C121 1.308 . S
C271 C149 1.306 . S
C280 C163 1.307 . S
C282 C135 1.307 . S
C291 C177 1.301 . S
C293 C205 1.314 . S
C302 C219 1.310 . S
C304 C191 1.305 . S
C313 C63 1.572 . S
C315 C7 1.574 . S
C324 C21 1.570 . S
C326 C77 1.573 . S
C335 C35 1.571 . S
C337 C91 1.573 . S
C346 C105 1.573 . S
C348 C49 1.571 . S
C357 C119 1.571 . S
C359 C175 1.573 . S
C368 C133 1.574 . S
C370 C189 1.573 . S
C379 C147 1.573 . S
C381 C203 1.571 . S
C390 C161 1.571 . S
C392 C217 1.571 . S
C401 C148 1.249 . S
C403 C8 1.249 . S
C412 C162 1.248 . S
C414 C22 1.248 . S
C423 C36 1.257 . S
C425 C120 1.255 . S
C434 C50 1.250 . S
C436 C134 1.250 . S
C445 C64 1.256 . S
C447 C204 1.255 . S
C456 C78 1.248 . S
C458 C218 1.249 . S
C467 C92 1.245 . S
C469 C176 1.247 . S
C478 C190 1.250 . S
C480 C106 1.250 . S
C489 C6 1.461 . S
C491 C216 1.461 . S
C500 C174 1.463 . S
C502 C20 1.462 . S
C511 C34 1.462 . S
C513 C188 1.462 . S
C522 C202 1.459 . S
C524 C48 1.460 . S
C533 C132 1.463 . S
C535 C62 1.462 . S
C544 C76 1.460 . S
C546 C146 1.461 . S
C555 C160 1.462 . S
C557 C90 1.462 . S
C566 C118 1.463 . S
C568 C104 1.463 . S
