# Generated by pormake.
# Topology upc, (4)-cn, num edge types: 1
# Building blocks:
#     Node 0, Type 0, BuildingBlock: MUDLON_clean_sbu_0, # of connection points: 4
#     Node 1, Type 0, BuildingBlock: MUDLON_clean_sbu_0, # of connection points: 4
#     Node 2, Type 0, BuildingBlock: MUDLON_clean_sbu_0, # of connection points: 4
#     Node 3, Type 0, BuildingBlock: MUDLON_clean_sbu_0, # of connection points: 4
#     Node 4, Type 0, BuildingBlock: MUDLON_clean_sbu_0, # of connection points: 4
#     Node 5, Type 0, BuildingBlock: MUDLON_clean_sbu_0, # of connection points: 4
#     Node 6, Type 0, BuildingBlock: MUDLON_clean_sbu_0, # of connection points: 4
#     Node 7, Type 0, BuildingBlock: MUDLON_clean_sbu_0, # of connection points: 4
#     Node 8, Type 0, BuildingBlock: MUDLON_clean_sbu_0, # of connection points: 4
#     Node 9, Type 0, BuildingBlock: MUDLON_clean_sbu_0, # of connection points: 4
#     Node 10, Type 0, BuildingBlock: MUDLON_clean_sbu_0, # of connection points: 4
#     Node 11, Type 0, BuildingBlock: MUDLON_clean_sbu_0, # of connection points: 4
#     Node 12, Type 0, BuildingBlock: MUDLON_clean_sbu_0, # of connection points: 4
#     Node 13, Type 0, BuildingBlock: MUDLON_clean_sbu_0, # of connection points: 4
#     Node 14, Type 0, BuildingBlock: MUDLON_clean_sbu_0, # of connection points: 4
#     Node 15, Type 0, BuildingBlock: MUDLON_clean_sbu_0, # of connection points: 4
#     Edge 16, Type (0, 0), BuildingBlock: UVAHIK_clean_linker_0, # of connection points: 2
#     Edge 17, Type (0, 0), BuildingBlock: UVAHIK_clean_linker_0, # of connection points: 2
#     Edge 18, Type (0, 0), BuildingBlock: UVAHIK_clean_linker_0, # of connection points: 2
#     Edge 19, Type (0, 0), BuildingBlock: UVAHIK_clean_linker_0, # of connection points: 2
#     Edge 20, Type (0, 0), BuildingBlock: UVAHIK_clean_linker_0, # of connection points: 2
#     Edge 21, Type (0, 0), BuildingBlock: UVAHIK_clean_linker_0, # of connection points: 2
#     Edge 22, Type (0, 0), BuildingBlock: UVAHIK_clean_linker_0, # of connection points: 2
#     Edge 23, Type (0, 0), BuildingBlock: UVAHIK_clean_linker_0, # of connection points: 2
#     Edge 24, Type (0, 0), BuildingBlock: UVAHIK_clean_linker_0, # of connection points: 2
#     Edge 25, Type (0, 0), BuildingBlock: UVAHIK_clean_linker_0, # of connection points: 2
#     Edge 26, Type (0, 0), BuildingBlock: UVAHIK_clean_linker_0, # of connection points: 2
#     Edge 27, Type (0, 0), BuildingBlock: UVAHIK_clean_linker_0, # of connection points: 2
#     Edge 28, Type (0, 0), BuildingBlock: UVAHIK_clean_linker_0, # of connection points: 2
#     Edge 29, Type (0, 0), BuildingBlock: UVAHIK_clean_linker_0, # of connection points: 2
#     Edge 30, Type (0, 0), BuildingBlock: UVAHIK_clean_linker_0, # of connection points: 2
#     Edge 31, Type (0, 0), BuildingBlock: UVAHIK_clean_linker_0, # of connection points: 2
#     Edge 32, Type (0, 0), BuildingBlock: UVAHIK_clean_linker_0, # of connection points: 2
#     Edge 33, Type (0, 0), BuildingBlock: UVAHIK_clean_linker_0, # of connection points: 2
#     Edge 34, Type (0, 0), BuildingBlock: UVAHIK_clean_linker_0, # of connection points: 2
#     Edge 35, Type (0, 0), BuildingBlock: UVAHIK_clean_linker_0, # of connection points: 2
#     Edge 36, Type (0, 0), BuildingBlock: UVAHIK_clean_linker_0, # of connection points: 2
#     Edge 37, Type (0, 0), BuildingBlock: UVAHIK_clean_linker_0, # of connection points: 2
#     Edge 38, Type (0, 0), BuildingBlock: UVAHIK_clean_linker_0, # of connection points: 2
#     Edge 39, Type (0, 0), BuildingBlock: UVAHIK_clean_linker_0, # of connection points: 2
#     Edge 40, Type (0, 0), BuildingBlock: UVAHIK_clean_linker_0, # of connection points: 2
#     Edge 41, Type (0, 0), BuildingBlock: UVAHIK_clean_linker_0, # of connection points: 2
#     Edge 42, Type (0, 0), BuildingBlock: UVAHIK_clean_linker_0, # of connection points: 2
#     Edge 43, Type (0, 0), BuildingBlock: UVAHIK_clean_linker_0, # of connection points: 2
#     Edge 44, Type (0, 0), BuildingBlock: UVAHIK_clean_linker_0, # of connection points: 2
#     Edge 45, Type (0, 0), BuildingBlock: UVAHIK_clean_linker_0, # of connection points: 2
#     Edge 46, Type (0, 0), BuildingBlock: UVAHIK_clean_linker_0, # of connection points: 2
#     Edge 47, Type (0, 0), BuildingBlock: UVAHIK_clean_linker_0, # of connection points: 2
# Relax obj value: 0.273
# Max RMSD: 0.206
# Mean RMSD: 0.206
data_MOF--net-upc--node1-MUDLON_clean_sbu_0--edge1-UVAHIK_clean_linker_0
_symmetry_space_group_name_H-M    P1
_symmetry_Int_Tables_number       1
_symmetry_cell_setting            triclinic
loop_
_symmetry_equiv_pos_as_xyz
'x, y, z'
_cell_length_a     46.141251
_cell_length_b     46.388844
_cell_length_c     56.048159
_cell_angle_alpha  90.056706
_cell_angle_beta   89.893918
_cell_angle_gamma 90.101077
loop_
_atom_site_label
_atom_site_type_symbol
_atom_site_fract_x
_atom_site_fract_y
_atom_site_fract_z
_atom_type_partial_charge
Mg0 Mg 0.06212 0.66273 0.12635 0.0
C1 C 0.02275 0.62755 0.1562 0.0
O2 O 0.01201 0.62359 0.13474 0.0
C3 C 0.11983 0.68408 0.11019 0.0
O4 O 0.10531 0.68347 0.09005 0.0
C5 C 0.06828 0.60744 0.09601 0.0
O6 O 0.08903 0.60163 0.11128 0.0
O7 O 0.05488 0.63133 0.0977 0.0
O8 O 0.04485 0.64366 0.15864 0.0
O9 O 0.03775 0.70135 0.11725 0.0
C10 C 0.02813 0.72341 0.12832 0.0
O11 O 0.01364 0.74253 0.11585 0.0
O12 O 0.10741 0.6753 0.12911 0.0
Mg13 Mg 0.87103 0.0629 0.12143 0.0
C14 C 0.90111 0.0226 0.15286 0.0
O15 O 0.9012 0.00936 0.13214 0.0
C16 C 0.83753 0.11562 0.10765 0.0
O17 O 0.83307 0.09894 0.08905 0.0
C18 C 0.90527 0.03855 0.07942 0.0
O19 O 0.88442 0.01929 0.08078 0.0
O20 O 0.90486 0.05989 0.09376 0.0
O21 O 0.88967 0.04742 0.15436 0.0
O22 O 0.8361 0.03321 0.11278 0.0
C23 C 0.81985 0.01862 0.1267 0.0
O24 O 0.8018 0.99993 0.11721 0.0
O25 O 0.85352 0.1064 0.12445 0.0
Mg26 Mg 0.44734 0.86503 0.12576 0.0
C27 C 0.48496 0.88545 0.16589 0.0
O28 O 0.50486 0.87439 0.15182 0.0
C29 C 0.39224 0.837 0.1084 0.0
O30 O 0.40588 0.84015 0.08796 0.0
C31 C 0.4753 0.90466 0.08988 0.0
O32 O 0.49752 0.88892 0.09651 0.0
O33 O 0.45053 0.89932 0.09897 0.0
O34 O 0.45856 0.88429 0.15965 0.0
O35 O 0.47749 0.83108 0.11548 0.0
C36 C 0.49217 0.81207 0.12654 0.0
O37 O 0.50952 0.79557 0.11391 0.0
O38 O 0.40417 0.84625 0.12735 0.0
Mg39 Mg 0.66414 0.44544 0.13366 0.0
C40 C 0.63355 0.48112 0.16899 0.0
O41 O 0.63799 0.49919 0.15132 0.0
C42 C 0.6859 0.38772 0.11567 0.0
O43 O 0.6752 0.39794 0.09569 0.0
C44 C 0.62822 0.47294 0.09386 0.0
O45 O 0.6463 0.49415 0.0984 0.0
O46 O 0.63093 0.44941 0.10542 0.0
O47 O 0.64306 0.45555 0.16711 0.0
O48 O 0.69798 0.47724 0.12745 0.0
C49 C 0.71393 0.49138 0.14188 0.0
O50 O 0.73107 0.51143 0.13317 0.0
O51 O 0.68381 0.40276 0.13457 0.0
Mg52 Mg 0.05092 0.8338 0.38669 0.0
C53 C 0.01826 0.87454 0.35624 0.0
O54 O 1.00654 0.87915 0.37727 0.0
C55 C 0.10002 0.79094 0.38965 0.0
O56 O 0.07846 0.77452 0.39671 0.0
C57 C 0.02586 0.86706 0.42916 0.0
O58 O 1.00478 0.84832 0.42619 0.0
O59 O 0.04814 0.86542 0.41577 0.0
O60 O 0.03843 0.85605 0.35437 0.0
O61 O 0.02101 0.79821 0.39302 0.0
C62 C 0.01442 0.77748 0.3791 0.0
O63 O 0.99779 0.75667 0.3872 0.0
O64 O 0.09496 0.81708 0.3842 0.0
Mg65 Mg 0.65919 0.0728 0.38448 0.0
C66 C 0.63027 0.03631 0.34935 0.0
O67 O 0.65426 0.02273 0.35476 0.0
C68 C 0.68895 0.12674 0.39577 0.0
O69 O 0.70735 0.10639 0.4017 0.0
C70 C 0.63395 0.0299 0.42086 0.0
O71 O 0.63388 0.0129 0.40212 0.0
O72 O 0.64576 0.05469 0.41916 0.0
O73 O 0.62526 0.06043 0.35933 0.0
O74 O 0.6999 0.06196 0.36593 0.0
C75 C 0.71536 0.03941 0.36363 0.0
O76 O 0.70884 0.01612 0.37584 0.0
O77 O 0.66399 0.11933 0.38829 0.0
Mg78 Mg 0.44355 0.6435 0.38539 0.0
C79 C 0.45625 0.58579 0.36013 0.0
O80 O 0.45675 0.5749 0.38175 0.0
C81 C 0.39179 0.68017 0.39378 0.0
O82 O 0.41315 0.69867 0.39636 0.0
C83 C 0.48682 0.61443 0.41927 0.0
O84 O 0.50368 0.61622 0.40041 0.0
O85 O 0.46169 0.62573 0.41845 0.0
O86 O 0.44942 0.61208 0.35726 0.0
O87 O 0.4625 0.68235 0.36958 0.0
C88 C 0.48187 0.68031 0.35346 0.0
O89 O 0.49443 0.65527 0.34992 0.0
O90 O 0.39783 0.65385 0.38975 0.0
Mg91 Mg 0.84739 0.4645 0.3922 0.0
C92 C 0.88226 0.50018 0.35974 0.0
O93 O 0.88409 0.51406 0.38011 0.0
C94 C 0.80252 0.41665 0.39515 0.0
O95 O 0.78593 0.43877 0.40032 0.0
C96 C 0.88328 0.48999 0.43333 0.0
O97 O 0.86383 0.51047 0.43115 0.0
O98 O 0.88132 0.46783 0.41993 0.0
O99 O 0.86746 0.47707 0.35885 0.0
O100 O 0.81329 0.4956 0.3997 0.0
C101 C 0.79365 0.5085 0.38779 0.0
O102 O 0.77754 0.52733 0.39924 0.0
O103 O 0.82933 0.42091 0.39096 0.0
Mg104 Mg 0.95051 0.3602 0.88791 0.0
C105 C 0.98903 0.32606 0.85377 0.0
O106 O 1.00257 0.35093 0.85241 0.0
C107 C 0.95522 0.39615 0.9308 0.0
O108 O 0.93084 0.40397 0.9206 0.0
C109 C 0.89846 0.32364 0.89566 0.0
O110 O 0.91968 0.30498 0.89785 0.0
O111 O 0.90473 0.34999 0.892 0.0
O112 O 0.96888 0.32302 0.86911 0.0
O113 O 0.95682 0.39569 0.86324 0.0
C114 C 0.97875 0.41181 0.86669 0.0
O115 O 0.99488 0.40737 0.88561 0.0
O116 O 0.96911 0.37507 0.92176 0.0
Mg117 Mg 0.1815 0.9533 0.88033 0.0
C118 C 0.23804 0.99192 0.8751 0.0
O119 O 0.25752 0.0087 0.88508 0.0
C120 C 0.14584 0.98339 0.91905 0.0
O121 O 0.16464 1.00398 0.91454 0.0
C122 C 0.21932 0.90077 0.88573 0.0
O123 O 0.23689 0.92079 0.89386 0.0
O124 O 0.19418 0.90801 0.87863 0.0
O125 O 0.21933 0.97974 0.88853 0.0
O126 O 0.16257 0.96834 0.84733 0.0
C127 C 0.16334 0.99534 0.84357 0.0
O128 O 0.17588 0.01222 0.8593 0.0
O129 O 0.14809 0.95956 0.90787 0.0
Mg130 Mg 0.5537 0.1768 0.88745 0.0
C131 C 0.51479 0.23417 0.88224 0.0
O132 O 0.49711 0.25198 0.89324 0.0
C133 C 0.52582 0.14309 0.9283 0.0
O134 O 0.50496 0.16168 0.92425 0.0
C135 C 0.60421 0.21825 0.88909 0.0
O136 O 0.58284 0.23596 0.894 0.0
O137 O 0.59852 0.19178 0.88526 0.0
O138 O 0.52493 0.21318 0.89434 0.0
O139 O 0.53907 0.15495 0.85549 0.0
C140 C 0.51209 0.14951 0.85484 0.0
O141 O 0.49571 0.15807 0.87267 0.0
O142 O 0.54914 0.14496 0.91619 0.0
Mg143 Mg 0.35599 0.5534 0.889 0.0
C144 C 0.29892 0.51287 0.88595 0.0
O145 O 0.28158 0.49596 0.89826 0.0
C146 C 0.39338 0.52359 0.92671 0.0
O147 O 0.37647 0.50199 0.92064 0.0
C148 C 0.31534 0.60489 0.89064 0.0
O149 O 0.29652 0.58438 0.89534 0.0
O150 O 0.3418 0.59824 0.88732 0.0
O151 O 0.3195 0.52521 0.89724 0.0
O152 O 0.37573 0.53996 0.85582 0.0
C153 C 0.37706 0.51309 0.85157 0.0
O154 O 0.36522 0.49504 0.86678 0.0
O155 O 0.38948 0.548 0.91677 0.0
Mg156 Mg 0.95845 0.15177 0.62264 0.0
C157 C 0.9971 0.20858 0.62047 0.0
O158 O 0.01207 0.22693 0.60751 0.0
C159 C 0.98439 0.11254 0.58517 0.0
O160 O 1.00637 0.12993 0.58915 0.0
C161 C 0.90265 0.17913 0.60913 0.0
O162 O 0.91754 0.18059 0.58916 0.0
O163 O 0.91411 0.1669 0.62708 0.0
O164 O 0.98393 0.18817 0.60972 0.0
O165 O 0.97706 0.13486 0.65519 0.0
C166 C 1.00436 0.13667 0.65771 0.0
O167 O 0.01988 0.14916 0.64098 0.0
O168 O 0.96074 0.11686 0.59636 0.0
Mg169 Mg 0.36249 0.95046 0.62647 0.0
C170 C 0.30528 0.98823 0.62475 0.0
O171 O 0.28721 1.00404 0.61228 0.0
C172 C 0.40867 0.97797 0.59483 0.0
O173 O 0.39711 1.00107 0.60446 0.0
C174 C 0.33489 0.89509 0.61202 0.0
O175 O 0.33285 0.91042 0.59239 0.0
O176 O 0.34743 0.90616 0.63003 0.0
O177 O 0.32604 0.97584 0.61374 0.0
O178 O 0.37772 0.96837 0.65995 0.0
C179 C 0.37605 0.99553 0.66271 0.0
O180 O 0.36424 0.01111 0.64578 0.0
O181 O 0.39833 0.95336 0.60039 0.0
Mg182 Mg 0.5718 0.35183 0.62884 0.0
C183 C 0.5398 0.29206 0.63184 0.0
O184 O 0.5267 0.27021 0.62154 0.0
C185 C 0.54349 0.39774 0.59847 0.0
O186 O 0.522 0.39078 0.61278 0.0
C187 C 0.63001 0.33067 0.61341 0.0
O188 O 0.61734 0.33491 0.59273 0.0
O189 O 0.61629 0.33707 0.63238 0.0
O190 O 0.54651 0.31393 0.61921 0.0
O191 O 0.55545 0.37006 0.66168 0.0
C192 C 0.55751 0.39692 0.66583 0.0
O193 O 0.57133 0.41342 0.65053 0.0
O194 O 0.56756 0.38459 0.60074 0.0
Mg195 Mg 0.16308 0.56384 0.63289 0.0
C196 C 0.21461 0.51975 0.64056 0.0
O197 O 0.23186 0.49989 0.63178 0.0
C198 C 0.12528 0.53588 0.59451 0.0
O199 O 0.14195 0.51394 0.6 0.0
C200 C 0.18735 0.6205 0.615 0.0
O201 O 0.18005 0.60884 0.59449 0.0
O202 O 0.18223 0.60671 0.63414 0.0
O203 O 0.19739 0.53266 0.62639 0.0
O204 O 0.14209 0.55391 0.66633 0.0
C205 C 0.13724 0.52756 0.67101 0.0
O206 O 0.14601 0.50778 0.65585 0.0
O207 O 0.12958 0.55993 0.60498 0.0
C208 C 0.16331 0.70205 0.1328 0.0
C209 C 0.14929 0.69689 0.11094 0.0
C210 C 0.19027 0.71595 0.13338 0.0
C211 C 0.25378 0.73432 0.09586 0.0
H212 H 0.26545 0.79587 0.14173 0.0
C213 C 0.35014 0.81297 0.08831 0.0
C214 C 0.36412 0.82152 0.10942 0.0
C215 C 0.32422 0.79736 0.08917 0.0
C216 C 0.26273 0.77849 0.12901 0.0
H217 H 0.15295 0.70173 0.07255 0.0
H218 H 0.19981 0.72587 0.0736 0.0
H219 H 0.22036 0.76832 0.14228 0.0
H220 H 0.36165 0.82047 0.14807 0.0
H221 H 0.31664 0.79287 0.14959 0.0
H222 H 0.29607 0.74438 0.08256 0.0
C223 C 0.1901 0.71906 0.09028 0.0
C224 C 0.23687 0.76269 0.12933 0.0
C225 C 0.16313 0.70534 0.0897 0.0
C226 C 0.35138 0.81434 0.13145 0.0
C227 C 0.32549 0.7986 0.13232 0.0
C228 C 0.27966 0.75002 0.09559 0.0
C229 C 0.20388 0.72479 0.11213 0.0
C230 C 0.23198 0.74059 0.11262 0.0
C231 C 0.31166 0.78975 0.11118 0.0
C232 C 0.28438 0.7725 0.112 0.0
H233 H 0.15324 0.69583 0.14949 0.0
H234 H 0.20047 0.71977 0.15049 0.0
H235 H 0.25089 0.71713 0.08299 0.0
H236 H 0.35925 0.81827 0.07103 0.0
H237 H 0.31392 0.7914 0.07253 0.0
C238 C 0.82508 0.16109 0.13 0.0
C239 C 0.82336 0.14428 0.10914 0.0
C240 C 0.81095 0.18776 0.1314 0.0
C241 C 0.78006 0.24549 0.09373 0.0
H242 H 0.7365 0.26565 0.15055 0.0
C243 C 0.70214 0.34243 0.0952 0.0
C244 C 0.70121 0.35959 0.11587 0.0
C245 C 0.71733 0.31637 0.09502 0.0
C246 C 0.74886 0.26055 0.13466 0.0
H247 H 0.80552 0.14248 0.07338 0.0
H248 H 0.78099 0.18879 0.07584 0.0
H249 H 0.76312 0.22024 0.14912 0.0
H250 H 0.71541 0.36262 0.15266 0.0
H251 H 0.74224 0.31733 0.15224 0.0
H252 H 0.76597 0.28572 0.07924 0.0
C253 C 0.79343 0.18153 0.09106 0.0
C254 C 0.76412 0.23449 0.13384 0.0
C255 C 0.80739 0.15486 0.0897 0.0
C256 C 0.71559 0.34989 0.13645 0.0
C257 C 0.73089 0.32383 0.13624 0.0
C258 C 0.76491 0.27155 0.09456 0.0
C259 C 0.79496 0.1983 0.11193 0.0
C260 C 0.7797 0.22653 0.11328 0.0
C261 C 0.73211 0.30681 0.11546 0.0
C262 C 0.74888 0.27934 0.11495 0.0
H263 H 0.83718 0.15356 0.14532 0.0
H264 H 0.81278 0.20026 0.14766 0.0
H265 H 0.79225 0.24028 0.07777 0.0
H266 H 0.69117 0.34913 0.07907 0.0
H267 H 0.71731 0.30361 0.07883 0.0
C268 C 0.13442 0.74936 0.39111 0.0
C269 C 0.1298 0.77915 0.38873 0.0
C270 C 0.16247 0.73808 0.39099 0.0
C271 C 0.23856 0.75586 0.37463 0.0
H272 H 0.25653 0.69295 0.41767 0.0
C273 C 0.35566 0.72025 0.39431 0.0
C274 C 0.36142 0.6905 0.39396 0.0
C275 C 0.32722 0.73041 0.39338 0.0
C276 C 0.25176 0.71032 0.40539 0.0
H277 H 0.15107 0.82049 0.38418 0.0
H278 H 0.2001 0.80095 0.38453 0.0
H279 H 0.20744 0.71228 0.41648 0.0
H280 H 0.34173 0.64804 0.39276 0.0
H281 H 0.29184 0.66588 0.39142 0.0
H282 H 0.28313 0.75421 0.36396 0.0
C283 C 0.18201 0.78616 0.38604 0.0
C284 C 0.2236 0.72139 0.40464 0.0
C285 C 0.15389 0.79742 0.38596 0.0
C286 C 0.33801 0.67108 0.39307 0.0
C287 C 0.30947 0.68128 0.39237 0.0
C288 C 0.26676 0.74495 0.37554 0.0
C289 C 0.18668 0.75634 0.38867 0.0
C290 C 0.21663 0.74435 0.38927 0.0
C291 C 0.30382 0.71107 0.39229 0.0
C292 C 0.27368 0.72212 0.39097 0.0
H293 H 0.11631 0.73464 0.39305 0.0
H294 H 0.16515 0.71498 0.39257 0.0
H295 H 0.23393 0.77314 0.36225 0.0
H296 H 0.37315 0.73583 0.39498 0.0
H297 H 0.32354 0.75346 0.39366 0.0
C298 C 0.75972 0.38336 0.3943 0.0
C299 C 0.78995 0.38724 0.39416 0.0
C300 C 0.74767 0.35569 0.39358 0.0
C301 C 0.76587 0.27932 0.37946 0.0
H302 H 0.69659 0.26294 0.4164 0.0
C303 C 0.72794 0.16382 0.39961 0.0
C304 C 0.6985 0.15728 0.39599 0.0
C305 C 0.73779 0.19224 0.39871 0.0
C306 C 0.71576 0.2673 0.4058 0.0
H307 H 0.83123 0.36505 0.39327 0.0
H308 H 0.81031 0.31679 0.39273 0.0
H309 H 0.71675 0.31164 0.41629 0.0
H310 H 0.65618 0.17567 0.38906 0.0
H311 H 0.67347 0.22573 0.38791 0.0
H312 H 0.76527 0.23471 0.36959 0.0
C313 C 0.79581 0.33511 0.3928 0.0
C314 C 0.72732 0.29523 0.40566 0.0
C315 C 0.80786 0.36281 0.39326 0.0
C316 C 0.67899 0.18 0.39191 0.0
C317 C 0.68885 0.20862 0.39131 0.0
C318 C 0.75449 0.25139 0.37982 0.0
C319 C 0.76552 0.33115 0.39294 0.0
C320 C 0.75268 0.30158 0.39261 0.0
C321 C 0.71844 0.21495 0.39442 0.0
C322 C 0.72945 0.24502 0.39313 0.0
H323 H 0.74528 0.40173 0.39479 0.0
H324 H 0.7243 0.35361 0.39328 0.0
H325 H 0.78499 0.28344 0.36876 0.0
H326 H 0.74362 0.14691 0.40279 0.0
H327 H 0.76064 0.19648 0.4015 0.0
C328 C 0.84481 0.33311 0.89447 0.0
C329 C 0.86797 0.31354 0.89594 0.0
C330 C 0.81615 0.32315 0.89378 0.0
C331 C 0.77285 0.25904 0.87827 0.0
H332 H 0.71296 0.29519 0.91648 0.0
C333 C 0.658 0.20998 0.88758 0.0
C334 C 0.63443 0.22908 0.88869 0.0
C335 C 0.68647 0.22043 0.88814 0.0
C336 C 0.72931 0.28507 0.90542 0.0
H337 H 0.87911 0.26817 0.89812 0.0
H338 H 0.82929 0.25093 0.89691 0.0
H339 H 0.76245 0.31358 0.91817 0.0
H340 H 0.62231 0.27419 0.89064 0.0
H341 H 0.67176 0.29238 0.89105 0.0
H342 H 0.73978 0.23074 0.86528 0.0
C343 C 0.83326 0.27393 0.89609 0.0
C344 C 0.7577 0.29561 0.90645 0.0
C345 C 0.86182 0.28386 0.89694 0.0
C346 C 0.63996 0.25885 0.88996 0.0
C347 C 0.66837 0.26929 0.89035 0.0
C348 C 0.74443 0.24862 0.87711 0.0
C349 C 0.8101 0.29342 0.89435 0.0
C350 C 0.7798 0.28263 0.89296 0.0
C351 C 0.69202 0.25024 0.88965 0.0
C352 C 0.72229 0.26144 0.89072 0.0
H353 H 0.84881 0.3561 0.89364 0.0
H354 H 0.79876 0.33869 0.89229 0.0
H355 H 0.78934 0.24884 0.86739 0.0
H356 H 0.65448 0.18691 0.88668 0.0
H357 H 0.70411 0.20508 0.88786 0.0
C358 C 0.3259 0.65797 0.8885 0.0
C359 C 0.30567 0.63529 0.88913 0.0
C360 C 0.31658 0.68664 0.88752 0.0
C361 C 0.25485 0.73221 0.87041 0.0
H362 H 0.28913 0.78799 0.91352 0.0
C363 C 0.20907 0.84781 0.88102 0.0
C364 C 0.22893 0.87031 0.88495 0.0
C365 C 0.21833 0.81906 0.88103 0.0
C366 C 0.27959 0.77286 0.90107 0.0
H367 H 0.25979 0.62494 0.88882 0.0
H368 H 0.24361 0.67493 0.88687 0.0
H369 H 0.30592 0.73826 0.914 0.0
H370 H 0.27419 0.88032 0.89133 0.0
H371 H 0.29041 0.83053 0.89065 0.0
H372 H 0.22884 0.76681 0.85717 0.0
C373 C 0.26665 0.67052 0.88716 0.0
C374 C 0.2892 0.7443 0.90142 0.0
C375 C 0.27595 0.64189 0.88843 0.0
C376 C 0.25826 0.86349 0.88848 0.0
C377 C 0.26755 0.83485 0.88825 0.0
C378 C 0.24543 0.76086 0.86988 0.0
C379 C 0.28685 0.69322 0.88684 0.0
C380 C 0.2769 0.72365 0.88614 0.0
C381 C 0.2477 0.81219 0.88475 0.0
C382 C 0.25765 0.7816 0.88523 0.0
H383 H 0.34894 0.65362 0.889 0.0
H384 H 0.33265 0.70368 0.88708 0.0
H385 H 0.24517 0.71681 0.85825 0.0
H386 H 0.1863 0.85235 0.87833 0.0
H387 H 0.20232 0.80223 0.87858 0.0
C388 C 0.6743 0.31111 0.59332 0.0
C389 C 0.65878 0.31653 0.61444 0.0
C390 C 0.70046 0.29602 0.59387 0.0
C391 C 0.75986 0.27238 0.6338 0.0
H392 H 0.77367 0.21702 0.58316 0.0
C393 C 0.8592 0.19541 0.63279 0.0
C394 C 0.8737 0.19284 0.61079 0.0
C395 C 0.83246 0.2096 0.63424 0.0
C396 C 0.77025 0.23254 0.59734 0.0
H397 H 0.65896 0.31079 0.65284 0.0
H398 H 0.70456 0.28413 0.65379 0.0
H399 H 0.72853 0.24407 0.58392 0.0
H400 H 0.87127 0.20292 0.57305 0.0
H401 H 0.82485 0.2275 0.57559 0.0
H402 H 0.80173 0.26068 0.64718 0.0
C403 C 0.69661 0.29184 0.63679 0.0
C404 C 0.74438 0.24813 0.59775 0.0
C405 C 0.67042 0.30706 0.63624 0.0
C406 C 0.8607 0.20443 0.59028 0.0
C407 C 0.83397 0.21842 0.5917 0.0
C408 C 0.78576 0.25667 0.63343 0.0
C409 C 0.71177 0.28581 0.61556 0.0
C410 C 0.73898 0.26852 0.6158 0.0
C411 C 0.81957 0.2213 0.61369 0.0
C412 C 0.79139 0.23681 0.61502 0.0
H413 H 0.6661 0.31827 0.57623 0.0
H414 H 0.71184 0.29235 0.57723 0.0
H415 H 0.75654 0.28807 0.64785 0.0
H416 H 0.86865 0.18677 0.64894 0.0
H417 H 0.82179 0.21125 0.65141 0.0
C418 C 0.20669 0.6646 0.59459 0.0
C419 C 0.20236 0.6488 0.61568 0.0
C420 C 0.22164 0.69084 0.595 0.0
C421 C 0.24558 0.74967 0.63532 0.0
H422 H 0.29835 0.76689 0.5833 0.0
C423 C 0.32018 0.85068 0.63484 0.0
C424 C 0.32164 0.86596 0.61321 0.0
C425 C 0.30661 0.82366 0.63588 0.0
C426 C 0.28354 0.76252 0.59787 0.0
H427 H 0.21023 0.64835 0.65383 0.0
H428 H 0.23663 0.69397 0.6545 0.0
H429 H 0.2725 0.72108 0.58378 0.0
H430 H 0.31019 0.86467 0.57569 0.0
H431 H 0.28662 0.81778 0.57753 0.0
H432 H 0.25674 0.79122 0.64937 0.0
C433 C 0.22813 0.68626 0.63766 0.0
C434 C 0.26864 0.73626 0.59813 0.0
C435 C 0.21309 0.66002 0.63726 0.0
C436 C 0.30953 0.85349 0.59264 0.0
C437 C 0.29614 0.82649 0.59365 0.0
C438 C 0.26058 0.77594 0.63509 0.0
C439 C 0.23275 0.70192 0.6165 0.0
C440 C 0.24925 0.72959 0.61673 0.0
C441 C 0.2944 0.81127 0.61528 0.0
C442 C 0.27952 0.78279 0.61624 0.0
H443 H 0.19859 0.6567 0.57768 0.0
H444 H 0.22431 0.70254 0.57843 0.0
H445 H 0.23059 0.74542 0.64978 0.0
H446 H 0.32925 0.85969 0.65102 0.0
H447 H 0.30586 0.81237 0.65277 0.0
C448 C 0.9174 0.53411 0.3408 0.0
C449 C 0.89731 0.51148 0.33843 0.0
C450 C 0.93158 0.54523 0.32083 0.0
C451 C 0.92462 0.55329 0.25625 0.0
H452 H 1.00706 0.56957 0.25867 0.0
C453 C 0.98793 0.59206 0.17361 0.0
C454 C 1.00916 0.6134 0.177 0.0
C455 C 0.9748 0.57869 0.19313 0.0
C456 C 0.98397 0.56548 0.2578 0.0
H457 H 0.87627 0.48279 0.31324 0.0
H458 H 0.90105 0.50245 0.27818 0.0
H459 H 0.98317 0.54749 0.29296 0.0
H460 H 0.0332 0.63763 0.20353 0.0
H461 H 1.00983 0.61469 0.2377 0.0
H462 H 0.9252 0.57175 0.22132 0.0
C463 C 0.90574 0.51152 0.29557 0.0
C464 C 0.97033 0.55274 0.2774 0.0
C465 C 0.89169 0.50018 0.31563 0.0
C466 C 0.01703 0.62111 0.20035 0.0
C467 C 1.00374 0.60785 0.21992 0.0
C468 C 0.93822 0.5662 0.2367 0.0
C469 C 0.92584 0.53415 0.29801 0.0
C470 C 0.9405 0.54661 0.27685 0.0
C471 C 0.98243 0.5865 0.21652 0.0
C472 C 0.96805 0.57253 0.23726 0.0
H473 H 0.92222 0.54329 0.35812 0.0
H474 H 0.94669 0.5629 0.32322 0.0
H475 H 0.90152 0.54918 0.25547 0.0
H476 H 0.98152 0.58549 0.15582 0.0
H477 H 0.95885 0.562 0.18985 0.0
C478 C 0.93154 0.9841 0.17096 0.0
C479 C 0.91378 0.00839 0.17394 0.0
C480 C 0.94329 0.97012 0.1907 0.0
C481 C 0.96019 0.98018 0.25458 0.0
H482 H 0.96385 0.89663 0.25441 0.0
C483 C 0.98846 0.91364 0.33816 0.0
C484 C 1.00755 0.89034 0.33518 0.0
C485 C 0.97776 0.92843 0.3184 0.0
C486 C 0.96327 0.91997 0.25459 0.0
H487 H 0.89407 0.03696 0.19993 0.0
H488 H 0.91424 0.01218 0.23457 0.0
H489 H 0.94293 0.92174 0.2204 0.0
H490 H 0.03042 0.86423 0.30915 0.0
H491 H 0.0116 0.89013 0.27451 0.0
H492 H 0.98022 0.97827 0.28897 0.0
C493 C 0.91957 1.00431 0.21691 0.0
C494 C 0.95129 0.93438 0.23511 0.0
C495 C 0.90795 0.01845 0.19709 0.0
C496 C 0.0158 0.88215 0.312 0.0
C497 C 1.0049 0.89685 0.29219 0.0
C498 C 0.97204 0.96574 0.27411 0.0
C499 C 0.93735 0.97994 0.21392 0.0
C500 C 0.94967 0.96467 0.23484 0.0
C501 C 0.98575 0.92013 0.29522 0.0
C502 C 0.97371 0.93549 0.2743 0.0
H503 H 0.93657 0.97593 0.15332 0.0
H504 H 0.9573 0.95175 0.18772 0.0
H505 H 0.9597 1.00352 0.25479 0.0
H506 H 0.98168 0.92048 0.35579 0.0
H507 H 0.96278 0.94606 0.32127 0.0
C508 C 0.58227 0.03453 0.32784 0.0
C509 C 0.60952 0.02247 0.33284 0.0
C510 C 0.56286 0.02015 0.31266 0.0
C511 C 0.54858 0.94757 0.28744 0.0
H512 H 0.51236 0.98813 0.23496 0.0
C513 C 0.52025 0.89376 0.19878 0.0
C514 C 0.49339 0.89987 0.18827 0.0
C515 C 0.52899 0.90836 0.21931 0.0
C516 C 0.52191 0.97662 0.24979 0.0
H517 H 0.63796 0.98622 0.32549 0.0
H518 H 0.60467 0.96173 0.29917 0.0
H519 H 0.53762 0.01549 0.26602 0.0
H520 H 0.45437 0.92569 0.19108 0.0
H521 H 0.47011 0.95179 0.22685 0.0
H522 H 0.53424 0.90867 0.27059 0.0
C523 C 0.59784 0.98182 0.30725 0.0
C524 C 0.53629 0.99225 0.26757 0.0
C525 C 0.61707 0.99608 0.32224 0.0
C526 C 0.4752 0.92054 0.19887 0.0
C527 C 0.48419 0.93554 0.21922 0.0
C528 C 0.53446 0.932 0.26963 0.0
C529 C 0.57043 0.99347 0.30243 0.0
C530 C 0.55066 0.97777 0.2861 0.0
C531 C 0.51122 0.92962 0.22954 0.0
C532 C 0.52182 0.94632 0.25026 0.0
H533 H 0.57587 0.05485 0.33577 0.0
H534 H 0.54188 0.02966 0.30918 0.0
H535 H 0.55886 0.93585 0.30183 0.0
H536 H 0.53461 0.87781 0.19106 0.0
H537 H 0.55008 0.90359 0.2268 0.0
C538 C 0.61258 0.47183 0.20966 0.0
C539 C 0.61617 0.4901 0.18988 0.0
C540 C 0.5951 0.48021 0.22889 0.0
C541 C 0.56159 0.54496 0.25623 0.0
H542 H 0.50931 0.49003 0.28593 0.0
C543 C 0.47044 0.58286 0.31721 0.0
C544 C 0.46907 0.56984 0.33983 0.0
C545 C 0.48702 0.57065 0.29903 0.0
C546 C 0.52395 0.5055 0.27787 0.0
H547 H 0.60431 0.53147 0.17477 0.0
H548 H 0.57359 0.54576 0.20786 0.0
H549 H 0.54247 0.47392 0.25446 0.0
H550 H 0.48238 0.53265 0.36053 0.0
H551 H 0.51129 0.51115 0.32848 0.0
H552 H 0.54278 0.5766 0.27922 0.0
C553 C 0.58464 0.52522 0.20887 0.0
C554 C 0.54302 0.4963 0.25996 0.0
C555 C 0.60217 0.51695 0.18979 0.0
C556 C 0.48304 0.54325 0.34332 0.0
C557 C 0.49958 0.53093 0.325 0.0
C558 C 0.54243 0.55414 0.2739 0.0
C559 C 0.58084 0.50699 0.22866 0.0
C560 C 0.56181 0.51604 0.24873 0.0
C561 C 0.50249 0.54508 0.30298 0.0
C562 C 0.52318 0.53462 0.28469 0.0
H563 H 0.62319 0.45103 0.21028 0.0
H564 H 0.59292 0.46581 0.24398 0.0
H565 H 0.57624 0.5606 0.24842 0.0
H566 H 0.45974 0.60321 0.3138 0.0
H567 H 0.48844 0.58171 0.28205 0.0
C568 C 0.11691 0.49011 0.69829 0.0
C569 C 0.12016 0.51929 0.69224 0.0
C570 C 0.09922 0.482 0.71736 0.0
C571 C 0.0469 0.46948 0.7479 0.0
H572 H 0.04688 0.51188 0.80754 0.0
C573 C 0.97479 0.43332 0.82579 0.0
C574 C 0.98904 0.43167 0.84787 0.0
C575 C 0.98723 0.44857 0.80685 0.0
C576 C 0.04663 0.49982 0.79099 0.0
H577 H 0.10795 0.56297 0.70176 0.0
H578 H 0.07672 0.54876 0.73492 0.0
H579 H 0.07735 0.52825 0.77461 0.0
H580 H 0.02652 0.4463 0.86789 0.0
H581 H 0.04838 0.47229 0.8349 0.0
H582 H 0.01733 0.44027 0.76453 0.0
C583 C 0.08807 0.53215 0.72505 0.0
C584 C 0.0639 0.50935 0.77205 0.0
C585 C 0.1059 0.54028 0.70602 0.0
C586 C 0.01503 0.44701 0.85106 0.0
C587 C 0.0275 0.46213 0.83215 0.0
C588 C 0.02976 0.4599 0.76683 0.0
C589 C 0.08425 0.50288 0.73075 0.0
C590 C 0.06461 0.49397 0.75043 0.0
C591 C 0.01419 0.4624 0.80962 0.0
C592 C 0.02976 0.47468 0.78874 0.0
H593 H 0.12784 0.47343 0.68818 0.0
H594 H 0.09731 0.45931 0.72163 0.0
H595 H 0.04652 0.45745 0.73133 0.0
H596 H 0.95461 0.42191 0.82282 0.0
H597 H 0.97615 0.44883 0.78984 0.0
C598 C 0.12489 0.99407 0.81223 0.0
C599 C 0.14857 0.00808 0.82285 0.0
C600 C 0.10902 0.00772 0.79428 0.0
C601 C 0.09507 0.08085 0.76973 0.0
H602 H 0.05908 0.03807 0.71819 0.0
C603 C 0.04659 0.13305 0.6852 0.0
C604 C 0.01888 0.12357 0.67842 0.0
C605 C 0.06135 0.11941 0.70372 0.0
C606 C 0.06883 0.05019 0.73263 0.0
H607 H 0.1754 0.04644 0.82218 0.0
H608 H 0.14864 0.06973 0.79018 0.0
H609 H 0.08851 0.01261 0.7475 0.0
H610 H 0.98461 0.09281 0.68586 0.0
H611 H 0.01084 0.06848 0.71801 0.0
H612 H 0.07609 0.11855 0.75421 0.0
C613 C 0.14143 0.04877 0.79629 0.0
C614 C 0.08563 0.03565 0.74947 0.0
C615 C 0.15694 0.03535 0.8145 0.0
C616 C 1.00594 0.10057 0.69078 0.0
C617 C 0.02096 0.08656 0.70902 0.0
C618 C 0.07866 0.0954 0.75268 0.0
C619 C 0.11684 0.03545 0.78632 0.0
C620 C 0.09903 0.0508 0.76824 0.0
C621 C 0.04887 0.09575 0.71551 0.0
C622 C 0.06542 0.08021 0.734 0.0
H623 H 0.1179 0.97308 0.81845 0.0
H624 H 0.09007 0.99687 0.78725 0.0
H625 H 0.1044 0.09319 0.78422 0.0
H626 H 0.05697 0.15086 0.67604 0.0
H627 H 0.0829 0.12681 0.70837 0.0
C628 C 0.47026 0.12373 0.83635 0.0
C629 C 0.49928 0.13283 0.83501 0.0
C630 C 0.45806 0.10742 0.81801 0.0
C631 C 0.46534 0.09129 0.7544 0.0
H632 H 0.41566 0.02618 0.76948 0.0
C633 C 0.38974 0.04008 0.68499 0.0
C634 C 0.38917 0.00984 0.68363 0.0
C635 C 0.40384 0.05393 0.70378 0.0
C636 C 0.42965 0.04416 0.765 0.0
H637 H 0.53823 0.13217 0.8133 0.0
H638 H 0.51676 0.10371 0.78107 0.0
H639 H 0.44008 0.05222 0.80162 0.0
H640 H 0.4022 0.97037 0.70132 0.0
H641 H 0.42677 0.9947 0.73434 0.0
H642 H 0.45486 0.0833 0.71781 0.0
C643 C 0.50351 0.10927 0.79637 0.0
C644 C 0.44342 0.05921 0.78338 0.0
C645 C 0.51582 0.12546 0.81483 0.0
C646 C 0.40232 0.9937 0.70185 0.0
C647 C 0.41631 0.00761 0.72077 0.0
C648 C 0.45143 0.07637 0.73605 0.0
C649 C 0.47454 0.09999 0.79784 0.0
C650 C 0.4612 0.08308 0.77828 0.0
C651 C 0.41754 0.03787 0.72171 0.0
C652 C 0.43322 0.05283 0.74118 0.0
H653 H 0.45691 0.12905 0.85164 0.0
H654 H 0.43556 0.10096 0.81947 0.0
H655 H 0.47876 0.1097 0.74995 0.0
H656 H 0.3797 0.05317 0.67133 0.0
H657 H 0.40398 0.07728 0.70427 0.0
C658 C 0.52693 0.392 0.7025 0.0
C659 C 0.54197 0.40972 0.68635 0.0
C660 C 0.51026 0.40404 0.72073 0.0
C661 C 0.47129 0.47048 0.73647 0.0
H662 H 0.46872 0.43623 0.79951 0.0
C663 C 0.40904 0.52114 0.81597 0.0
C664 C 0.39407 0.5021 0.83113 0.0
C665 C 0.42706 0.51052 0.79792 0.0
C666 C 0.46897 0.44585 0.78191 0.0
H667 H 0.55197 0.45405 0.67711 0.0
H668 H 0.52302 0.47511 0.70916 0.0
H669 H 0.50167 0.41679 0.76955 0.0
H670 H 0.3854 0.45702 0.83866 0.0
H671 H 0.41655 0.43857 0.80706 0.0
H672 H 0.43847 0.49948 0.74886 0.0
C673 C 0.52384 0.45186 0.70747 0.0
C674 C 0.48788 0.43475 0.76477 0.0
C675 C 0.54059 0.43979 0.68923 0.0
C676 C 0.39678 0.47228 0.8274 0.0
C677 C 0.4148 0.46168 0.8094 0.0
C678 C 0.45236 0.48161 0.75364 0.0
C679 C 0.50821 0.43412 0.72324 0.0
C680 C 0.48912 0.44681 0.7418 0.0
C681 C 0.43048 0.48067 0.7947 0.0
C682 C 0.45084 0.46926 0.77649 0.0
H683 H 0.52754 0.36878 0.70078 0.0
H684 H 0.49826 0.38976 0.73243 0.0
H685 H 0.47143 0.47999 0.71882 0.0
H686 H 0.40739 0.54425 0.81837 0.0
H687 H 0.43897 0.5257 0.78697 0.0
C688 C 0.01606 0.75034 0.16561 0.0
C689 C 0.03205 0.72831 0.1544 0.0
C690 C 0.01939 0.75616 0.18989 0.0
C691 C 0.03971 0.72403 0.24671 0.0
H692 H 0.04487 0.80353 0.26787 0.0
C693 C 0.04157 0.75176 0.34713 0.0
C694 C 0.02527 0.77572 0.35438 0.0
C695 C 0.04766 0.74709 0.32296 0.0
C696 C 0.04318 0.78122 0.26236 0.0
H697 H 0.06497 0.69588 0.16018 0.0
H698 H 0.06985 0.70515 0.20307 0.0
H699 H 0.04523 0.79252 0.22532 0.0
H700 H 1.00204 0.8133 0.34222 0.0
H701 H 0.01225 0.80528 0.3 0.0
H702 H 0.0363 0.71266 0.28356 0.0
C703 C 0.05463 0.71782 0.19281 0.0
C704 C 0.04354 0.77491 0.23793 0.0
C705 C 0.05162 0.71228 0.16826 0.0
C706 C 0.01558 0.79528 0.33712 0.0
C707 C 0.02136 0.79049 0.31288 0.0
C708 C 0.03901 0.73034 0.27117 0.0
C709 C 0.03865 0.74 0.20382 0.0
C710 C 0.04134 0.74629 0.2298 0.0
C711 C 0.03697 0.76595 0.30537 0.0
C712 C 0.04029 0.75909 0.27937 0.0
H713 H 1.00075 0.76323 0.15564 0.0
H714 H 1.00646 0.77311 0.19786 0.0
H715 H 0.03768 0.7018 0.24101 0.0
H716 H 0.04897 0.7362 0.36017 0.0
H717 H 0.06021 0.7283 0.31805 0.0
C718 C 0.81463 0.998 0.16755 0.0
C719 C 0.82042 0.02198 0.153 0.0
C720 C 0.81071 1.00122 0.19216 0.0
C721 C 0.78493 0.05477 0.23522 0.0
H722 H 0.8085 0.9981 0.28212 0.0
C723 C 0.74591 0.06383 0.33256 0.0
C724 C 0.73644 0.03822 0.34353 0.0
C725 C 0.76182 0.06304 0.31128 0.0
C726 C 0.80156 0.01404 0.26925 0.0
H727 H 0.82722 0.06812 0.15293 0.0
H728 H 0.82046 0.07391 0.19607 0.0
H729 H 0.82684 0.99486 0.24128 0.0
H730 H 0.73754 0.99161 0.3412 0.0
H731 H 0.7648 0.99016 0.30389 0.0
H732 H 0.75882 0.07337 0.2627 0.0
C733 C 0.81902 0.05252 0.18839 0.0
C734 C 0.81218 0.01223 0.24583 0.0
C735 C 0.82323 0.04921 0.16373 0.0
C736 C 0.7446 0.01174 0.33333 0.0
C737 C 0.76033 0.01095 0.31188 0.0
C738 C 0.77421 0.0565 0.25855 0.0
C739 C 0.81207 0.02862 0.20284 0.0
C740 C 0.80365 0.03232 0.22841 0.0
C741 C 0.7685 0.03662 0.3002 0.0
C742 C 0.78201 0.03593 0.27587 0.0
H743 H 0.81224 0.97674 0.15977 0.0
H744 H 0.80512 0.98238 0.2026 0.0
H745 H 0.77748 0.07033 0.22222 0.0
H746 H 0.74025 0.08462 0.34004 0.0
H747 H 0.76832 0.08326 0.30324 0.0
C748 C 0.46386 0.72458 0.33232 0.0
C749 C 0.48548 0.70356 0.33546 0.0
C750 C 0.46459 0.74314 0.31259 0.0
C751 C 0.51173 0.772 0.26465 0.0
H752 H 0.44194 0.77183 0.22621 0.0
C753 C 0.51469 0.79519 0.16433 0.0
C754 C 0.49099 0.80805 0.15282 0.0
C755 C 0.51359 0.78861 0.18859 0.0
C756 C 0.46144 0.77275 0.23689 0.0
H757 H 0.52569 0.68676 0.32108 0.0
H758 H 0.52731 0.71951 0.28706 0.0
H759 H 0.4414 0.74959 0.26563 0.0
H760 H 0.44751 0.82435 0.15795 0.0
H761 H 0.44568 0.81342 0.20075 0.0
H762 H 0.53194 0.79488 0.23596 0.0
C763 C 0.50968 0.72153 0.29973 0.0
C764 C 0.46114 0.75989 0.25951 0.0
C765 C 0.50872 0.7027 0.31922 0.0
C766 C 0.46626 0.81481 0.16636 0.0
C767 C 0.46514 0.80823 0.19083 0.0
C768 C 0.51197 0.78513 0.24217 0.0
C769 C 0.48722 0.74143 0.29581 0.0
C770 C 0.48651 0.75864 0.27336 0.0
C771 C 0.48871 0.79466 0.20221 0.0
C772 C 0.48709 0.78488 0.22762 0.0
H773 H 0.44555 0.72575 0.34441 0.0
H774 H 0.4471 0.7584 0.31016 0.0
H775 H 0.5315 0.7718 0.27505 0.0
H776 H 0.53411 0.78965 0.15445 0.0
H777 H 0.53199 0.7777 0.19642 0.0
C778 C 0.72106 0.45994 0.17784 0.0
C779 C 0.71358 0.48674 0.16797 0.0
C780 C 0.72752 0.45763 0.20229 0.0
C781 C 0.71851 0.49382 0.2606 0.0
H782 H 0.7948 0.46449 0.27634 0.0
C783 C 0.77133 0.5237 0.34936 0.0
C784 C 0.78777 0.50327 0.36197 0.0
C785 C 0.7622 0.51845 0.32604 0.0
C786 C 0.77324 0.47232 0.2724 0.0
H787 H 0.70559 0.53167 0.17588 0.0
H788 H 0.71541 0.52745 0.21851 0.0
H789 H 0.77626 0.45956 0.23558 0.0
H790 H 0.80865 0.46166 0.35911 0.0
H791 H 0.79216 0.45205 0.3183 0.0
H792 H 0.71517 0.50659 0.29712 0.0
C793 C 0.7167 0.50827 0.20751 0.0
C794 C 0.76261 0.46946 0.24902 0.0
C795 C 0.71099 0.5107 0.18312 0.0
C796 C 0.79591 0.4778 0.35009 0.0
C797 C 0.78645 0.47234 0.32661 0.0
C798 C 0.72893 0.49638 0.28393 0.0
C799 C 0.7259 0.48195 0.21731 0.0
C800 C 0.73542 0.48087 0.24273 0.0
C801 C 0.76882 0.49237 0.31447 0.0
C802 C 0.75682 0.4865 0.29007 0.0
H803 H 0.72366 0.44125 0.16644 0.0
H804 H 0.73441 0.43703 0.20936 0.0
H805 H 0.69733 0.50247 0.25642 0.0
H806 H 0.76504 0.54384 0.35767 0.0
H807 H 0.74965 0.53493 0.31714 0.0
C808 C 0.02026 0.226 0.65795 0.0
C809 C 0.9969 0.21197 0.64681 0.0
C810 C 0.01992 0.2315 0.68244 0.0
C811 C 0.9692 0.24162 0.73276 0.0
H812 H 0.0404 0.24364 0.76941 0.0
C813 C 0.97174 0.28319 0.83018 0.0
C814 C 0.99293 0.30444 0.83444 0.0
C815 C 0.97279 0.26621 0.80948 0.0
C816 C 0.02033 0.24317 0.75943 0.0
H817 H 0.9548 0.19269 0.65282 0.0
H818 H 0.95432 0.20173 0.69586 0.0
H819 H 0.04067 0.2236 0.72914 0.0
H820 H 0.03277 0.32322 0.82094 0.0
H821 H 0.03482 0.29342 0.78515 0.0
H822 H 0.949 0.26158 0.76299 0.0
C823 C 0.97293 0.20862 0.68554 0.0
C824 C 0.02046 0.23175 0.73629 0.0
C825 C 0.9733 0.20311 0.66089 0.0
C826 C 0.01609 0.30709 0.81824 0.0
C827 C 0.01731 0.28991 0.79772 0.0
C828 C 0.96903 0.25284 0.75598 0.0
C829 C 0.99614 0.22321 0.6966 0.0
C830 C 0.99508 0.23155 0.72237 0.0
C831 C 0.99527 0.26981 0.79275 0.0
C832 C 0.99475 0.25442 0.76937 0.0
H833 H 0.03878 0.23317 0.64763 0.0
H834 H 0.03796 0.24323 0.6901 0.0
H835 H 0.9493 0.24215 0.72257 0.0
H836 H 0.95354 0.28059 0.84223 0.0
H837 H 0.95565 0.25071 0.80631 0.0
C838 C 0.30419 0.96044 0.66346 0.0
C839 C 0.30125 0.98649 0.65097 0.0
C840 C 0.29601 0.95861 0.68761 0.0
C841 C 0.25075 0.99834 0.73262 0.0
H842 H 0.28882 0.94874 0.77845 0.0
C843 C 0.2439 0.01317 0.83466 0.0
C844 C 0.23817 0.98883 0.84879 0.0
C845 C 0.24821 0.0105 0.81007 0.0
C846 C 0.27775 0.9624 0.76573 0.0
H847 H 0.28919 0.03138 0.6542 0.0
H848 H 0.27652 0.02877 0.69618 0.0
H849 H 0.30538 0.94922 0.73693 0.0
H850 H 0.23199 0.94259 0.84817 0.0
H851 H 0.24059 0.93769 0.80501 0.0
H852 H 0.22412 0.01249 0.76176 0.0
C853 C 0.28376 0.00928 0.6874 0.0
C854 C 0.28722 0.9627 0.7419 0.0
C855 C 0.29138 0.01091 0.66331 0.0
C856 C 0.23612 0.96172 0.8377 0.0
C857 C 0.24126 0.95891 0.81307 0.0
C858 C 0.24168 0.99838 0.75645 0.0
C859 C 0.28503 0.98293 0.6998 0.0
C860 C 0.27417 0.98108 0.72503 0.0
C861 C 0.2477 0.98328 0.79908 0.0
C862 C 0.25529 0.9807 0.77334 0.0
H863 H 0.31141 0.9412 0.65431 0.0
H864 H 0.29726 0.93789 0.6964 0.0
H865 H 0.23939 0.0121 0.72018 0.0
H866 H 0.24562 0.03433 0.84274 0.0
H867 H 0.2532 0.02965 0.79979 0.0
C868 C 0.54348 0.22415 0.84429 0.0
C869 C 0.52184 0.23946 0.85661 0.0
C870 C 0.54962 0.23022 0.82023 0.0
C871 C 0.54255 0.28789 0.77498 0.0
H872 H 0.54711 0.2262 0.7285 0.0
C873 C 0.53157 0.30863 0.67366 0.0
C874 C 0.54598 0.2904 0.65763 0.0
C875 C 0.53275 0.30339 0.69827 0.0
C876 C 0.54649 0.24376 0.74122 0.0
H877 H 0.48986 0.27352 0.85297 0.0
H878 H 0.50075 0.28416 0.81158 0.0
H879 H 0.54178 0.21464 0.77072 0.0
H880 H 0.5732 0.25269 0.6545 0.0
H881 H 0.57654 0.24423 0.69746 0.0
H882 H 0.54721 0.31708 0.74567 0.0
C883 C 0.51307 0.26746 0.82045 0.0
C884 C 0.54335 0.23706 0.76548 0.0
C885 C 0.50675 0.26118 0.84426 0.0
C886 C 0.56227 0.26733 0.6666 0.0
C887 C 0.56382 0.26229 0.6912 0.0
C888 C 0.54595 0.29461 0.75078 0.0
C889 C 0.53458 0.25213 0.80809 0.0
C890 C 0.54078 0.25905 0.7826 0.0
C891 C 0.54851 0.27983 0.70741 0.0
C892 C 0.54745 0.27267 0.73346 0.0
H893 H 0.55605 0.20785 0.85319 0.0
H894 H 0.56651 0.21815 0.81126 0.0
H895 H 0.54111 0.30536 0.78776 0.0
H896 H 0.51795 0.32588 0.6671 0.0
H897 H 0.52007 0.31696 0.71002 0.0
C898 C 0.3022 0.54108 0.84706 0.0
C899 C 0.29332 0.51658 0.85995 0.0
C900 C 0.29262 0.54546 0.82347 0.0
C901 C 0.23362 0.52054 0.78236 0.0
H902 H 0.2807 0.55413 0.73224 0.0
C903 C 0.2131 0.50199 0.68229 0.0
C904 C 0.21539 0.52535 0.66652 0.0
C905 C 0.21962 0.5053 0.70648 0.0
C906 C 0.26714 0.54512 0.74617 0.0
H907 H 0.2694 0.47641 0.85733 0.0
H908 H 0.25391 0.48335 0.81658 0.0
H909 H 0.30003 0.55076 0.77286 0.0
H910 H 0.22597 0.57067 0.66362 0.0
H911 H 0.23821 0.57643 0.70617 0.0
H912 H 0.20131 0.51373 0.7555 0.0
C913 C 0.26702 0.50001 0.82478 0.0
C914 C 0.27822 0.54316 0.76947 0.0
C915 C 0.27622 0.49586 0.84821 0.0
C916 C 0.22356 0.55244 0.67554 0.0
C917 C 0.23086 0.55563 0.69977 0.0
C918 C 0.22277 0.52217 0.75912 0.0
C919 C 0.27421 0.52527 0.81223 0.0
C920 C 0.26187 0.53016 0.7878 0.0
C921 C 0.22942 0.53192 0.71541 0.0
C922 C 0.23957 0.53395 0.74063 0.0
H923 H 0.31556 0.55734 0.85542 0.0
H924 H 0.29883 0.56511 0.81439 0.0
H925 H 0.2199 0.51126 0.79604 0.0
H926 H 0.2072 0.48081 0.6757 0.0
H927 H 0.21844 0.48658 0.71799 0.0
C928 C 0.07544 0.56034 0.0744 0.0
C929 C 0.05907 0.5855 0.07817 0.0
C930 C 0.06599 0.53911 0.05836 0.0
C931 C 0.01424 0.52707 0.00808 0.0
H932 H 0.02499 0.44624 0.02329 0.0
C933 C 0.95197 0.4384 0.9584 0.0
C934 C 0.96771 0.41449 0.95002 0.0
C935 C 0.96438 0.45797 0.97435 0.0
C936 C 0.02208 0.46872 0.01869 0.0
H937 H 0.0198 0.60792 0.068 0.0
H938 H 1.00304 0.57084 0.04061 0.0
H939 H 0.04432 0.48323 0.05003 0.0
H940 H 1.00865 0.39187 0.95271 0.0
H941 H 0.03033 0.42611 0.981 0.0
H942 H 0.99143 0.51256 0.97708 0.0
C943 C 0.02356 0.56767 0.04954 0.0
C944 C 0.03323 0.49 0.03398 0.0
C945 C 0.03312 0.58897 0.0654 0.0
C946 C 0.99589 0.41002 0.95883 0.0
C947 C 1.00831 0.42962 0.97502 0.0
C948 C 1.00291 0.50587 0.99298 0.0
C949 C 0.03981 0.54237 0.04578 0.0
C950 C 0.0292 0.51952 0.02901 0.0
C951 C 0.99287 0.45418 0.98253 0.0
C952 C 1.00637 0.47644 0.99821 0.0
H953 H 0.09558 0.55699 0.08389 0.0
H954 H 0.07936 0.52021 0.05573 0.0
H955 H 0.0113 0.54946 1.00323 0.0
H956 H 0.93015 0.44251 0.95219 0.0
H957 H 0.95168 0.47632 0.98014 0.0
C958 C 0.09924 0.96828 0.93914 0.0
C959 C 0.12169 0.98854 0.93621 0.0
C960 C 0.07599 0.97387 0.95462 0.0
C961 C 0.05399 0.01923 1.00622 0.0
H962 H 0.97604 1.00021 0.98586 0.0
C963 C 0.95262 0.05408 0.06068 0.0
C964 C 0.92963 0.03422 0.06232 0.0
C965 C 0.97594 0.04912 0.0451 0.0
C966 C 0.99767 1.00538 0.99201 0.0
H967 H 0.13731 0.03048 0.94762 0.0
H968 H 0.09694 0.04015 0.97452 0.0
H969 H 0.01692 0.98961 0.95972 0.0
H970 H 0.91328 0.99354 0.04868 0.0
H971 H 0.95384 0.98475 0.02197 0.0
H972 H 0.03481 0.03479 0.03859 0.0
C973 C 0.09734 0.01984 0.96498 0.0
C974 C 0.02116 0.99927 0.97697 0.0
C975 C 0.12047 0.01433 0.94941 0.0
C976 C 0.93048 0.00943 0.04786 0.0
C977 C 0.95376 1.00444 0.03237 0.0
C978 C 0.0305 0.02524 0.02132 0.0
C979 C 0.07468 0.99979 0.9677 0.0
C980 C 0.04966 1.00608 0.98386 0.0
C981 C 0.9769 0.02414 0.03078 0.0
C982 C 1.00197 0.01836 0.01446 0.0
H983 H 0.09945 0.94818 0.92928 0.0
H984 H 0.05912 0.95778 0.95648 0.0
H985 H 0.07565 0.02446 0.01227 0.0
H986 H 0.95268 0.07343 0.07152 0.0
H987 H 0.99313 0.065 0.04417 0.0
C988 C 0.50683 0.93293 0.06186 0.0
C989 C 0.47961 0.92869 0.07267 0.0
C990 C 0.51149 0.95591 0.04615 0.0
C991 C 0.48334 0.02772 0.02973 0.0
H992 H 0.52915 0.01643 0.97242 0.0
C993 C 0.49451 0.11617 0.95745 0.0
C994 C 0.5213 0.11928 0.94571 0.0
C995 C 0.48955 0.09315 0.97307 0.0
C996 C 0.51665 0.02012 0.9885 0.0
H997 H 0.43583 0.94534 0.07521 0.0
H998 H 0.44396 0.98549 0.04771 0.0
H999 H 0.51971 0.97578 0.99886 0.0
H1000 H 0.5641 0.10069 0.94156 0.0
H1001 H 0.55566 0.06081 0.96913 0.0
H1002 H 0.48045 0.07208 0.01952 0.0
C1003 C 0.46179 0.97109 0.05157 0.0
C1004 C 0.51116 0.99673 1.00365 0.0
C1005 C 0.45707 0.94796 0.06723 0.0
C1006 C 0.54317 0.09894 0.95024 0.0
C1007 C 0.53824 0.07592 0.96594 0.0
C1008 C 0.48892 0.05114 0.01463 0.0
C1009 C 0.4891 0.97539 0.04087 0.0
C1010 C 0.49444 1.00022 0.02448 0.0
C1011 C 0.51128 0.0726 0.97747 0.0
C1012 C 0.50565 0.04768 0.99378 0.0
H1013 H 0.52473 0.91859 0.06563 0.0
H1014 H 0.53288 0.95872 0.0385 0.0
H1015 H 0.47078 0.03131 0.0458 0.0
H1016 H 0.47708 0.1313 0.95434 0.0
H1017 H 0.46839 0.09116 0.9813 0.0
C1018 C 0.4371 0.54092 0.94988 0.0
C1019 C 0.41712 0.51897 0.94435 0.0
C1020 C 0.4598 0.53593 0.96602 0.0
C1021 C 0.50165 0.47635 0.99462 0.0
H1022 H 0.52576 0.53625 0.03856 0.0
C1023 C 0.58403 0.4554 0.07136 0.0
C1024 C 0.60441 0.47722 0.07623 0.0
C1025 C 0.56124 0.46018 0.05524 0.0
C1026 C 0.51955 0.51934 0.02625 0.0
H1027 H 0.40533 0.4746 0.9519 0.0
H1028 H 0.44435 0.46612 0.98013 0.0
H1029 H 0.48628 0.54548 0.01079 0.0
H1030 H 0.61677 0.52115 0.06756 0.0
H1031 H 0.57749 0.5293 0.03952 0.0
H1032 H 0.53489 0.45018 0.01016 0.0
C1033 C 0.44293 0.48707 0.9717 0.0
C1034 C 0.49685 0.52467 0.01025 0.0
C1035 C 0.42032 0.49203 0.95557 0.0
C1036 C 0.6015 0.50381 0.06439 0.0
C1037 C 0.57876 0.5086 0.04837 0.0
C1038 C 0.52432 0.471 0.01066 0.0
C1039 C 0.46314 0.50886 0.97711 0.0
C1040 C 0.48753 0.50326 0.99416 0.0
C1041 C 0.55817 0.48694 0.04362 0.0
C1042 C 0.53367 0.49243 0.02669 0.0
H1043 H 0.43541 0.5619 0.94153 0.0
H1044 H 0.47506 0.55319 0.96947 0.0
H1045 H 0.49551 0.45944 0.98228 0.0
H1046 H 0.58551 0.43468 0.08017 0.0
H1047 H 0.5457 0.44305 0.05223 0.0
C1048 C 0.99681 0.89403 0.45982 0.0
C1049 C 0.02245 0.89122 0.4464 0.0
C1050 C 0.99273 0.91759 0.47507 0.0
C1051 C 0.03199 0.97537 0.50745 0.0
H1052 H 0.95683 0.01263 0.50858 0.0
C1053 C 0.01386 0.08381 0.55598 0.0
C1054 C 0.98782 0.08764 0.56868 0.0
C1055 C 0.01779 0.05991 0.54109 0.0
C1056 C 0.97785 1.0023 0.50874 0.0
H1057 H 0.06412 0.91095 0.43885 0.0
H1058 H 0.05697 0.95207 0.46544 0.0
H1059 H 0.96455 0.97074 0.48305 0.0
H1060 H 0.94536 0.06927 0.57545 0.0
H1061 H 0.95232 0.02735 0.54967 0.0
H1062 H 0.0453 1.00683 0.53318 0.0
C1063 C 0.04007 0.9359 0.46429 0.0
C1064 C 0.9823 0.97824 0.49406 0.0
C1065 C 0.04413 0.91235 0.44895 0.0
C1066 C 0.96566 0.06707 0.56588 0.0
C1067 C 0.96962 0.04307 0.55099 0.0
C1068 C 0.02754 0.99938 0.52216 0.0
C1069 C 0.0142 0.93896 0.47739 0.0
C1070 C 1.00944 0.96448 0.49319 0.0
C1071 C 0.99583 0.03907 0.5385 0.0
C1072 C 1.00042 0.01325 0.52298 0.0
H1073 H 0.97965 0.87817 0.45837 0.0
H1074 H 0.97272 0.91899 0.48515 0.0
H1075 H 0.05304 0.96508 0.50752 0.0
H1076 H 0.03137 0.09927 0.55757 0.0
H1077 H 0.03805 0.0579 0.53145 0.0
C1078 C 0.60782 0.04303 0.4589 0.0
C1079 C 0.61611 0.02207 0.44209 0.0
C1080 C 0.58761 0.03647 0.47685 0.0
C1081 C 0.52867 0.98387 0.49071 0.0
H1082 H 0.53059 0.0204 0.55289 0.0
C1083 C 0.44498 0.95728 0.5656 0.0
C1084 C 0.43367 0.98103 0.57814 0.0
C1085 C 0.46846 0.96074 0.54986 0.0
C1086 C 0.52963 0.01013 0.53554 0.0
H1087 H 0.61071 0.9773 0.43185 0.0
H1088 H 0.57635 0.96565 0.46343 0.0
H1089 H 0.56994 0.02897 0.52466 0.0
H1090 H 0.43851 0.02706 0.58396 0.0
H1091 H 0.47917 0.03299 0.55673 0.0
H1092 H 0.48833 0.96502 0.50169 0.0
C1093 C 0.58471 0.98744 0.4624 0.0
C1094 C 0.55222 0.01511 0.51929 0.0
C1095 C 0.6047 0.99406 0.44437 0.0
C1096 C 0.44657 0.00823 0.57465 0.0
C1097 C 0.4701 0.01164 0.55912 0.0
C1098 C 0.50619 0.97875 0.50703 0.0
C1099 C 0.57531 0.0087 0.4786 0.0
C1100 C 0.55197 1.00228 0.4965 0.0
C1101 C 0.48138 0.98799 0.54647 0.0
C1102 C 0.50619 0.99206 0.52958 0.0
H1103 H 0.61598 0.06488 0.45761 0.0
H1104 H 0.58081 0.05357 0.48876 0.0
H1105 H 0.5273 0.97396 0.47325 0.0
H1106 H 0.43562 0.93602 0.56786 0.0
H1107 H 0.47672 0.94202 0.54053 0.0
C1108 C 0.51335 0.43634 0.57941 0.0
C1109 C 0.53962 0.42104 0.5805 0.0
C1110 C 0.50942 0.45847 0.56279 0.0
C1111 C 0.53691 0.48654 0.50523 0.0
H1112 H 0.49559 0.5557 0.52398 0.0
C1113 C 0.52259 0.58236 0.44016 0.0
C1114 C 0.49533 0.59589 0.43977 0.0
C1115 C 0.5296 0.5626 0.45814 0.0
C1116 C 0.50692 0.53644 0.51833 0.0
H1117 H 0.58241 0.41719 0.5648 0.0
H1118 H 0.57556 0.45592 0.53574 0.0
H1119 H 0.50477 0.51813 0.55337 0.0
H1120 H 0.45432 0.59963 0.45848 0.0
H1121 H 0.46638 0.56506 0.48962 0.0
H1122 H 0.53871 0.50462 0.47013 0.0
C1123 C 0.55789 0.45059 0.5477 0.0
C1124 C 0.51222 0.51485 0.53523 0.0
C1125 C 0.56188 0.42845 0.56444 0.0
C1126 C 0.47558 0.58975 0.45824 0.0
C1127 C 0.48256 0.56994 0.47619 0.0
C1128 C 0.53154 0.5081 0.48831 0.0
C1129 C 0.53161 0.46596 0.54671 0.0
C1130 C 0.52709 0.48949 0.52888 0.0
C1131 C 0.50953 0.55575 0.47623 0.0
C1132 C 0.51629 0.53329 0.49456 0.0
H1133 H 0.49567 0.43124 0.59144 0.0
H1134 H 0.48874 0.46947 0.56234 0.0
H1135 H 0.54808 0.46718 0.4996 0.0
H1136 H 0.53841 0.58659 0.4263 0.0
H1137 H 0.55077 0.55257 0.45777 0.0
C1138 C 0.92937 0.47247 0.45291 0.0
C1139 C 0.90797 0.49379 0.45022 0.0
C1140 C 0.95296 0.47681 0.46834 0.0
C1141 C 0.99469 0.53492 0.49874 0.0
H1142 H 0.02254 0.47288 0.5388 0.0
C1143 C 0.08067 0.5538 0.573 0.0
C1144 C 0.10115 0.53193 0.57711 0.0
C1145 C 0.05739 0.54929 0.5573 0.0
C1146 C 0.01536 0.4904 0.52753 0.0
H1147 H 0.89469 0.53637 0.46196 0.0
H1148 H 0.93548 0.5438 0.48874 0.0
H1149 H 0.98188 0.46438 0.51197 0.0
H1150 H 0.11332 0.48831 0.56741 0.0
H1151 H 0.07336 0.48071 0.53988 0.0
H1152 H 0.02822 0.56092 0.51415 0.0
C1153 C 0.9343 0.52383 0.47876 0.0
C1154 C 0.99194 0.48549 0.51211 0.0
C1155 C 0.91071 0.51944 0.46348 0.0
C1156 C 0.09794 0.50563 0.56484 0.0
C1157 C 0.07479 0.50117 0.54912 0.0
C1158 C 0.01818 0.53981 0.51409 0.0
C1159 C 0.95586 0.50266 0.48136 0.0
C1160 C 0.98119 0.5077 0.49754 0.0
C1161 C 0.054 0.52281 0.54521 0.0
C1162 C 0.02888 0.51764 0.52876 0.0
H1163 H 0.92804 0.45248 0.44297 0.0
H1164 H 0.96924 0.46011 0.4697 0.0
H1165 H 0.98735 0.55245 0.48754 0.0
H1166 H 0.08236 0.57429 0.58218 0.0
H1167 H 0.04173 0.56641 0.55503 0.0
loop_
_geom_bond_atom_site_label_1
_geom_bond_atom_site_label_2
_geom_bond_distance
_geom_bond_site_symmetry_2
_ccdc_geom_bond_type
Mg0 O7 2.141 . S
Mg0 O8 2.048 . S
Mg0 O9 2.048 . S
Mg0 O12 2.141 . S
C1 O2 1.313 . S
C1 O8 1.195 1_655 S
O2 C1 1.313 . S
C3 O4 1.245 . S
C3 O12 1.289 . S
O4 C3 1.245 . S
C5 O6 1.245 . S
C5 O7 1.289 . S
O6 C5 1.245 . S
O7 Mg0 2.141 . S
O7 C5 1.289 . S
O8 Mg0 2.048 . S
O8 C1 1.195 1_455 S
O9 Mg0 2.048 . S
O9 C10 1.195 . S
C10 O9 1.195 . S
C10 O11 1.313 . S
O11 C10 1.313 . S
O12 Mg0 2.141 . S
O12 C3 1.289 . S
Mg13 O20 2.141 . S
Mg13 O21 2.048 . S
Mg13 O22 2.048 . S
Mg13 O25 2.141 . S
C14 O15 1.313 . S
C14 O21 1.195 1_565 S
O15 C14 1.313 . S
C16 O17 1.245 . S
C16 O25 1.289 . S
O17 C16 1.245 . S
C18 O19 1.245 . S
C18 O20 1.289 . S
O19 C18 1.245 . S
O20 Mg13 2.141 . S
O20 C18 1.289 . S
O21 Mg13 2.048 . S
O21 C14 1.195 1_545 S
O22 Mg13 2.048 . S
O22 C23 1.195 . S
C23 O22 1.195 . S
C23 O24 1.313 . S
O24 C23 1.313 . S
O25 Mg13 2.141 . S
O25 C16 1.289 . S
Mg26 O33 2.141 . S
Mg26 O34 2.048 . S
Mg26 O35 2.048 . S
Mg26 O38 2.141 . S
C27 O28 1.313 . S
C27 O34 1.195 . S
O28 C27 1.313 . S
C29 O30 1.245 . S
C29 O38 1.289 . S
O30 C29 1.245 . S
C31 O32 1.245 . S
C31 O33 1.289 . S
O32 C31 1.245 . S
O33 Mg26 2.141 . S
O33 C31 1.289 . S
O34 Mg26 2.048 . S
O34 C27 1.195 . S
O35 Mg26 2.048 . S
O35 C36 1.195 . S
C36 O35 1.195 . S
C36 O37 1.313 . S
O37 C36 1.313 . S
O38 Mg26 2.141 . S
O38 C29 1.289 . S
Mg39 O46 2.141 . S
Mg39 O47 2.048 . S
Mg39 O48 2.048 . S
Mg39 O51 2.141 . S
C40 O41 1.313 . S
C40 O47 1.195 . S
O41 C40 1.313 . S
C42 O43 1.245 . S
C42 O51 1.289 . S
O43 C42 1.245 . S
C44 O45 1.245 . S
C44 O46 1.289 . S
O45 C44 1.245 . S
O46 Mg39 2.141 . S
O46 C44 1.289 . S
O47 Mg39 2.048 . S
O47 C40 1.195 . S
O48 Mg39 2.048 . S
O48 C49 1.195 . S
C49 O48 1.195 . S
C49 O50 1.313 . S
O50 C49 1.313 . S
O51 Mg39 2.141 . S
O51 C42 1.289 . S
Mg52 O59 2.141 . S
Mg52 O60 2.048 . S
Mg52 O61 2.048 . S
Mg52 O64 2.141 . S
C53 O54 1.313 . S
C53 O60 1.195 1_655 S
O54 C53 1.313 . S
C55 O56 1.245 . S
C55 O64 1.289 . S
O56 C55 1.245 . S
C57 O58 1.245 . S
C57 O59 1.289 . S
O58 C57 1.245 . S
O59 Mg52 2.141 . S
O59 C57 1.289 . S
O60 Mg52 2.048 . S
O60 C53 1.195 1_455 S
O61 Mg52 2.048 . S
O61 C62 1.195 . S
C62 O61 1.195 . S
C62 O63 1.313 . S
O63 C62 1.313 . S
O64 Mg52 2.141 . S
O64 C55 1.289 . S
Mg65 O72 2.141 . S
Mg65 O73 2.048 . S
Mg65 O74 2.048 . S
Mg65 O77 2.141 . S
C66 O67 1.313 . S
C66 O73 1.195 1_565 S
O67 C66 1.313 . S
C68 O69 1.245 . S
C68 O77 1.289 . S
O69 C68 1.245 . S
C70 O71 1.245 . S
C70 O72 1.289 . S
O71 C70 1.245 . S
O72 Mg65 2.141 . S
O72 C70 1.289 . S
O73 Mg65 2.048 . S
O73 C66 1.195 1_545 S
O74 Mg65 2.048 . S
O74 C75 1.195 . S
C75 O74 1.195 . S
C75 O76 1.313 . S
O76 C75 1.313 . S
O77 Mg65 2.141 . S
O77 C68 1.289 . S
Mg78 O85 2.141 . S
Mg78 O86 2.048 . S
Mg78 O87 2.048 . S
Mg78 O90 2.141 . S
C79 O80 1.313 . S
C79 O86 1.195 . S
O80 C79 1.313 . S
C81 O82 1.245 . S
C81 O90 1.289 . S
O82 C81 1.245 . S
C83 O84 1.245 . S
C83 O85 1.289 . S
O84 C83 1.245 . S
O85 Mg78 2.141 . S
O85 C83 1.289 . S
O86 Mg78 2.048 . S
O86 C79 1.195 . S
O87 Mg78 2.048 . S
O87 C88 1.195 . S
C88 O87 1.195 . S
C88 O89 1.313 . S
O89 C88 1.313 . S
O90 Mg78 2.141 . S
O90 C81 1.289 . S
Mg91 O98 2.141 . S
Mg91 O99 2.048 . S
Mg91 O100 2.048 . S
Mg91 O103 2.141 . S
C92 O93 1.313 . S
C92 O99 1.195 . S
O93 C92 1.313 . S
C94 O95 1.245 . S
C94 O103 1.289 . S
O95 C94 1.245 . S
C96 O97 1.245 . S
C96 O98 1.289 . S
O97 C96 1.245 . S
O98 Mg91 2.141 . S
O98 C96 1.289 . S
O99 Mg91 2.048 . S
O99 C92 1.195 . S
O100 Mg91 2.048 . S
O100 C101 1.195 . S
C101 O100 1.195 . S
C101 O102 1.313 . S
O102 C101 1.313 . S
O103 Mg91 2.141 . S
O103 C94 1.289 . S
Mg104 O111 2.141 . S
Mg104 O112 2.048 . S
Mg104 O113 2.048 . S
Mg104 O116 2.141 . S
C105 O106 1.313 . S
C105 O112 1.195 . S
O106 C105 1.313 . S
C107 O108 1.245 . S
C107 O116 1.289 . S
O108 C107 1.245 . S
C109 O110 1.245 . S
C109 O111 1.289 . S
O110 C109 1.245 . S
O111 Mg104 2.141 . S
O111 C109 1.289 . S
O112 Mg104 2.048 . S
O112 C105 1.195 . S
O113 Mg104 2.048 . S
O113 C114 1.195 1_655 S
C114 O113 1.195 1_455 S
C114 O115 1.313 . S
O115 C114 1.313 . S
O116 Mg104 2.141 . S
O116 C107 1.289 . S
Mg117 O124 2.141 . S
Mg117 O125 2.048 . S
Mg117 O126 2.048 . S
Mg117 O129 2.141 . S
C118 O119 1.313 . S
C118 O125 1.195 . S
O119 C118 1.313 . S
C120 O121 1.245 . S
C120 O129 1.289 . S
O121 C120 1.245 . S
C122 O123 1.245 . S
C122 O124 1.289 . S
O123 C122 1.245 . S
O124 Mg117 2.141 . S
O124 C122 1.289 . S
O125 Mg117 2.048 . S
O125 C118 1.195 . S
O126 Mg117 2.048 . S
O126 C127 1.195 1_565 S
C127 O126 1.195 1_545 S
C127 O128 1.313 . S
O128 C127 1.313 . S
O129 Mg117 2.141 . S
O129 C120 1.289 . S
Mg130 O137 2.141 . S
Mg130 O138 2.048 . S
Mg130 O139 2.048 . S
Mg130 O142 2.141 . S
C131 O132 1.313 . S
C131 O138 1.195 . S
O132 C131 1.313 . S
C133 O134 1.245 . S
C133 O142 1.289 . S
O134 C133 1.245 . S
C135 O136 1.245 . S
C135 O137 1.289 . S
O136 C135 1.245 . S
O137 Mg130 2.141 . S
O137 C135 1.289 . S
O138 Mg130 2.048 . S
O138 C131 1.195 . S
O139 Mg130 2.048 . S
O139 C140 1.195 . S
C140 O139 1.195 . S
C140 O141 1.313 . S
O141 C140 1.313 . S
O142 Mg130 2.141 . S
O142 C133 1.289 . S
Mg143 O150 2.141 . S
Mg143 O151 2.048 . S
Mg143 O152 2.048 . S
Mg143 O155 2.141 . S
C144 O145 1.313 . S
C144 O151 1.195 . S
O145 C144 1.313 . S
C146 O147 1.245 . S
C146 O155 1.289 . S
O147 C146 1.245 . S
C148 O149 1.245 . S
C148 O150 1.289 . S
O149 C148 1.245 . S
O150 Mg143 2.141 . S
O150 C148 1.289 . S
O151 Mg143 2.048 . S
O151 C144 1.195 . S
O152 Mg143 2.048 . S
O152 C153 1.195 . S
C153 O152 1.195 . S
C153 O154 1.313 . S
O154 C153 1.313 . S
O155 Mg143 2.141 . S
O155 C146 1.289 . S
Mg156 O163 2.141 . S
Mg156 O164 2.048 . S
Mg156 O165 2.048 . S
Mg156 O168 2.141 . S
C157 O158 1.313 . S
C157 O164 1.195 . S
O158 C157 1.313 . S
C159 O160 1.245 . S
C159 O168 1.289 . S
O160 C159 1.245 . S
C161 O162 1.245 . S
C161 O163 1.289 . S
O162 C161 1.245 . S
O163 Mg156 2.141 . S
O163 C161 1.289 . S
O164 Mg156 2.048 . S
O164 C157 1.195 . S
O165 Mg156 2.048 . S
O165 C166 1.195 1_655 S
C166 O165 1.195 1_455 S
C166 O167 1.313 . S
O167 C166 1.313 . S
O168 Mg156 2.141 . S
O168 C159 1.289 . S
Mg169 O176 2.141 . S
Mg169 O177 2.048 . S
Mg169 O178 2.048 . S
Mg169 O181 2.141 . S
C170 O171 1.313 . S
C170 O177 1.195 . S
O171 C170 1.313 . S
C172 O173 1.245 . S
C172 O181 1.289 . S
O173 C172 1.245 . S
C174 O175 1.245 . S
C174 O176 1.289 . S
O175 C174 1.245 . S
O176 Mg169 2.141 . S
O176 C174 1.289 . S
O177 Mg169 2.048 . S
O177 C170 1.195 . S
O178 Mg169 2.048 . S
O178 C179 1.195 1_565 S
C179 O178 1.195 1_545 S
C179 O180 1.313 . S
O180 C179 1.313 . S
O181 Mg169 2.141 . S
O181 C172 1.289 . S
Mg182 O189 2.141 . S
Mg182 O190 2.048 . S
Mg182 O191 2.048 . S
Mg182 O194 2.141 . S
C183 O184 1.313 . S
C183 O190 1.195 . S
O184 C183 1.313 . S
C185 O186 1.245 . S
C185 O194 1.289 . S
O186 C185 1.245 . S
C187 O188 1.245 . S
C187 O189 1.289 . S
O188 C187 1.245 . S
O189 Mg182 2.141 . S
O189 C187 1.289 . S
O190 Mg182 2.048 . S
O190 C183 1.195 . S
O191 Mg182 2.048 . S
O191 C192 1.195 . S
C192 O191 1.195 . S
C192 O193 1.313 . S
O193 C192 1.313 . S
O194 Mg182 2.141 . S
O194 C185 1.289 . S
Mg195 O202 2.141 . S
Mg195 O203 2.048 . S
Mg195 O204 2.048 . S
Mg195 O207 2.141 . S
C196 O197 1.313 . S
C196 O203 1.195 . S
O197 C196 1.313 . S
C198 O199 1.245 . S
C198 O207 1.289 . S
O199 C198 1.245 . S
C200 O201 1.245 . S
C200 O202 1.289 . S
O201 C200 1.245 . S
O202 Mg195 2.141 . S
O202 C200 1.289 . S
O203 Mg195 2.048 . S
O203 C196 1.195 . S
O204 Mg195 2.048 . S
O204 C205 1.195 . S
C205 O204 1.195 . S
C205 O206 1.313 . S
O206 C205 1.313 . S
O207 Mg195 2.141 . S
O207 C198 1.289 . S
C208 C209 1.349 . S
C208 C210 1.327 . S
C208 H233 0.950 . S
C209 C208 1.349 . S
C209 C225 1.349 . S
C210 C208 1.327 . S
C210 C229 1.429 . S
C210 H234 0.950 . S
C211 C228 1.574 . S
C211 C230 1.368 . S
C211 H235 0.949 . S
H212 C216 0.949 . S
C213 C214 1.349 . S
C213 C215 1.327 . S
C213 H236 0.950 . S
C214 C213 1.349 . S
C214 C226 1.349 . S
C215 C213 1.327 . S
C215 C231 1.429 . S
C215 H237 0.950 . S
C216 H212 0.949 . S
C216 C224 1.574 . S
C216 C232 1.368 . S
H217 C225 0.950 . S
H218 C223 0.950 . S
H219 C224 0.949 . S
H220 C226 0.950 . S
H221 C227 0.950 . S
H222 C228 0.949 . S
C223 H218 0.950 . S
C223 C225 1.327 . S
C223 C229 1.429 . S
C224 C216 1.574 . S
C224 H219 0.949 . S
C224 C230 1.368 . S
C225 C209 1.349 . S
C225 H217 0.950 . S
C225 C223 1.327 . S
C226 C214 1.349 . S
C226 H220 0.950 . S
C226 C227 1.327 . S
C227 H221 0.950 . S
C227 C226 1.327 . S
C227 C231 1.429 . S
C228 C211 1.574 . S
C228 H222 0.949 . S
C228 C232 1.368 . S
C229 C210 1.429 . S
C229 C223 1.429 . S
C229 C230 1.523 . S
C230 C211 1.368 . S
C230 C224 1.368 . S
C230 C229 1.523 . S
C231 C215 1.429 . S
C231 C227 1.429 . S
C231 C232 1.523 . S
C232 C216 1.368 . S
C232 C228 1.368 . S
C232 C231 1.523 . S
H233 C208 0.950 . S
H234 C210 0.950 . S
H235 C211 0.949 . S
H236 C213 0.950 . S
H237 C215 0.950 . S
C238 C239 1.349 . S
C238 C240 1.327 . S
C238 H263 0.950 . S
C239 C238 1.349 . S
C239 C255 1.349 . S
C240 C238 1.327 . S
C240 C259 1.429 . S
C240 H264 0.950 . S
C241 C258 1.574 . S
C241 C260 1.368 . S
C241 H265 0.949 . S
H242 C246 0.949 . S
C243 C244 1.349 . S
C243 C245 1.327 . S
C243 H266 0.950 . S
C244 C243 1.349 . S
C244 C256 1.349 . S
C245 C243 1.327 . S
C245 C261 1.429 . S
C245 H267 0.950 . S
C246 H242 0.949 . S
C246 C254 1.574 . S
C246 C262 1.368 . S
H247 C255 0.950 . S
H248 C253 0.950 . S
H249 C254 0.949 . S
H250 C256 0.950 . S
H251 C257 0.950 . S
H252 C258 0.949 . S
C253 H248 0.950 . S
C253 C255 1.327 . S
C253 C259 1.429 . S
C254 C246 1.574 . S
C254 H249 0.949 . S
C254 C260 1.368 . S
C255 C239 1.349 . S
C255 H247 0.950 . S
C255 C253 1.327 . S
C256 C244 1.349 . S
C256 H250 0.950 . S
C256 C257 1.327 . S
C257 H251 0.950 . S
C257 C256 1.327 . S
C257 C261 1.429 . S
C258 C241 1.574 . S
C258 H252 0.949 . S
C258 C262 1.368 . S
C259 C240 1.429 . S
C259 C253 1.429 . S
C259 C260 1.523 . S
C260 C241 1.368 . S
C260 C254 1.368 . S
C260 C259 1.523 . S
C261 C245 1.429 . S
C261 C257 1.429 . S
C261 C262 1.523 . S
C262 C246 1.368 . S
C262 C258 1.368 . S
C262 C261 1.523 . S
H263 C238 0.950 . S
H264 C240 0.950 . S
H265 C241 0.949 . S
H266 C243 0.950 . S
H267 C245 0.950 . S
C268 C269 1.349 . S
C268 C270 1.327 . S
C268 H293 0.950 . S
C269 C268 1.349 . S
C269 C285 1.349 . S
C270 C268 1.327 . S
C270 C289 1.429 . S
C270 H294 0.950 . S
C271 C288 1.574 . S
C271 C290 1.368 . S
C271 H295 0.949 . S
H272 C276 0.949 . S
C273 C274 1.349 . S
C273 C275 1.327 . S
C273 H296 0.950 . S
C274 C273 1.349 . S
C274 C286 1.349 . S
C275 C273 1.327 . S
C275 C291 1.429 . S
C275 H297 0.950 . S
C276 H272 0.949 . S
C276 C284 1.574 . S
C276 C292 1.368 . S
H277 C285 0.950 . S
H278 C283 0.950 . S
H279 C284 0.949 . S
H280 C286 0.950 . S
H281 C287 0.950 . S
H282 C288 0.949 . S
C283 H278 0.950 . S
C283 C285 1.327 . S
C283 C289 1.429 . S
C284 C276 1.574 . S
C284 H279 0.949 . S
C284 C290 1.368 . S
C285 C269 1.349 . S
C285 H277 0.950 . S
C285 C283 1.327 . S
C286 C274 1.349 . S
C286 H280 0.950 . S
C286 C287 1.327 . S
C287 H281 0.950 . S
C287 C286 1.327 . S
C287 C291 1.429 . S
C288 C271 1.574 . S
C288 H282 0.949 . S
C288 C292 1.368 . S
C289 C270 1.429 . S
C289 C283 1.429 . S
C289 C290 1.523 . S
C290 C271 1.368 . S
C290 C284 1.368 . S
C290 C289 1.523 . S
C291 C275 1.429 . S
C291 C287 1.429 . S
C291 C292 1.523 . S
C292 C276 1.368 . S
C292 C288 1.368 . S
C292 C291 1.523 . S
H293 C268 0.950 . S
H294 C270 0.950 . S
H295 C271 0.949 . S
H296 C273 0.950 . S
H297 C275 0.950 . S
C298 C299 1.349 . S
C298 C300 1.327 . S
C298 H323 0.950 . S
C299 C298 1.349 . S
C299 C315 1.349 . S
C300 C298 1.327 . S
C300 C319 1.429 . S
C300 H324 0.950 . S
C301 C318 1.574 . S
C301 C320 1.368 . S
C301 H325 0.949 . S
H302 C306 0.949 . S
C303 C304 1.349 . S
C303 C305 1.327 . S
C303 H326 0.950 . S
C304 C303 1.349 . S
C304 C316 1.349 . S
C305 C303 1.327 . S
C305 C321 1.429 . S
C305 H327 0.950 . S
C306 H302 0.949 . S
C306 C314 1.574 . S
C306 C322 1.368 . S
H307 C315 0.950 . S
H308 C313 0.950 . S
H309 C314 0.949 . S
H310 C316 0.950 . S
H311 C317 0.950 . S
H312 C318 0.949 . S
C313 H308 0.950 . S
C313 C315 1.327 . S
C313 C319 1.429 . S
C314 C306 1.574 . S
C314 H309 0.949 . S
C314 C320 1.368 . S
C315 C299 1.349 . S
C315 H307 0.950 . S
C315 C313 1.327 . S
C316 C304 1.349 . S
C316 H310 0.950 . S
C316 C317 1.327 . S
C317 H311 0.950 . S
C317 C316 1.327 . S
C317 C321 1.429 . S
C318 C301 1.574 . S
C318 H312 0.949 . S
C318 C322 1.368 . S
C319 C300 1.429 . S
C319 C313 1.429 . S
C319 C320 1.523 . S
C320 C301 1.368 . S
C320 C314 1.368 . S
C320 C319 1.523 . S
C321 C305 1.429 . S
C321 C317 1.429 . S
C321 C322 1.523 . S
C322 C306 1.368 . S
C322 C318 1.368 . S
C322 C321 1.523 . S
H323 C298 0.950 . S
H324 C300 0.950 . S
H325 C301 0.949 . S
H326 C303 0.950 . S
H327 C305 0.950 . S
C328 C329 1.349 . S
C328 C330 1.327 . S
C328 H353 0.950 . S
C329 C328 1.349 . S
C329 C345 1.349 . S
C330 C328 1.327 . S
C330 C349 1.429 . S
C330 H354 0.950 . S
C331 C348 1.574 . S
C331 C350 1.368 . S
C331 H355 0.949 . S
H332 C336 0.949 . S
C333 C334 1.349 . S
C333 C335 1.327 . S
C333 H356 0.950 . S
C334 C333 1.349 . S
C334 C346 1.349 . S
C335 C333 1.327 . S
C335 C351 1.429 . S
C335 H357 0.950 . S
C336 H332 0.949 . S
C336 C344 1.574 . S
C336 C352 1.368 . S
H337 C345 0.950 . S
H338 C343 0.950 . S
H339 C344 0.949 . S
H340 C346 0.950 . S
H341 C347 0.950 . S
H342 C348 0.949 . S
C343 H338 0.950 . S
C343 C345 1.327 . S
C343 C349 1.429 . S
C344 C336 1.574 . S
C344 H339 0.949 . S
C344 C350 1.368 . S
C345 C329 1.349 . S
C345 H337 0.950 . S
C345 C343 1.327 . S
C346 C334 1.349 . S
C346 H340 0.950 . S
C346 C347 1.327 . S
C347 H341 0.950 . S
C347 C346 1.327 . S
C347 C351 1.429 . S
C348 C331 1.574 . S
C348 H342 0.949 . S
C348 C352 1.368 . S
C349 C330 1.429 . S
C349 C343 1.429 . S
C349 C350 1.523 . S
C350 C331 1.368 . S
C350 C344 1.368 . S
C350 C349 1.523 . S
C351 C335 1.429 . S
C351 C347 1.429 . S
C351 C352 1.523 . S
C352 C336 1.368 . S
C352 C348 1.368 . S
C352 C351 1.523 . S
H353 C328 0.950 . S
H354 C330 0.950 . S
H355 C331 0.949 . S
H356 C333 0.950 . S
H357 C335 0.950 . S
C358 C359 1.349 . S
C358 C360 1.327 . S
C358 H383 0.950 . S
C359 C358 1.349 . S
C359 C375 1.349 . S
C360 C358 1.327 . S
C360 C379 1.429 . S
C360 H384 0.950 . S
C361 C378 1.574 . S
C361 C380 1.368 . S
C361 H385 0.949 . S
H362 C366 0.949 . S
C363 C364 1.349 . S
C363 C365 1.327 . S
C363 H386 0.950 . S
C364 C363 1.349 . S
C364 C376 1.349 . S
C365 C363 1.327 . S
C365 C381 1.429 . S
C365 H387 0.950 . S
C366 H362 0.949 . S
C366 C374 1.574 . S
C366 C382 1.368 . S
H367 C375 0.950 . S
H368 C373 0.950 . S
H369 C374 0.949 . S
H370 C376 0.950 . S
H371 C377 0.950 . S
H372 C378 0.949 . S
C373 H368 0.950 . S
C373 C375 1.327 . S
C373 C379 1.429 . S
C374 C366 1.574 . S
C374 H369 0.949 . S
C374 C380 1.368 . S
C375 C359 1.349 . S
C375 H367 0.950 . S
C375 C373 1.327 . S
C376 C364 1.349 . S
C376 H370 0.950 . S
C376 C377 1.327 . S
C377 H371 0.950 . S
C377 C376 1.327 . S
C377 C381 1.429 . S
C378 C361 1.574 . S
C378 H372 0.949 . S
C378 C382 1.368 . S
C379 C360 1.429 . S
C379 C373 1.429 . S
C379 C380 1.523 . S
C380 C361 1.368 . S
C380 C374 1.368 . S
C380 C379 1.523 . S
C381 C365 1.429 . S
C381 C377 1.429 . S
C381 C382 1.523 . S
C382 C366 1.368 . S
C382 C378 1.368 . S
C382 C381 1.523 . S
H383 C358 0.950 . S
H384 C360 0.950 . S
H385 C361 0.949 . S
H386 C363 0.950 . S
H387 C365 0.950 . S
C388 C389 1.349 . S
C388 C390 1.327 . S
C388 H413 0.950 . S
C389 C388 1.349 . S
C389 C405 1.349 . S
C390 C388 1.327 . S
C390 C409 1.429 . S
C390 H414 0.950 . S
C391 C408 1.574 . S
C391 C410 1.368 . S
C391 H415 0.949 . S
H392 C396 0.949 . S
C393 C394 1.349 . S
C393 C395 1.327 . S
C393 H416 0.950 . S
C394 C393 1.349 . S
C394 C406 1.349 . S
C395 C393 1.327 . S
C395 C411 1.429 . S
C395 H417 0.950 . S
C396 H392 0.949 . S
C396 C404 1.574 . S
C396 C412 1.368 . S
H397 C405 0.950 . S
H398 C403 0.950 . S
H399 C404 0.949 . S
H400 C406 0.950 . S
H401 C407 0.950 . S
H402 C408 0.949 . S
C403 H398 0.950 . S
C403 C405 1.327 . S
C403 C409 1.429 . S
C404 C396 1.574 . S
C404 H399 0.949 . S
C404 C410 1.368 . S
C405 C389 1.349 . S
C405 H397 0.950 . S
C405 C403 1.327 . S
C406 C394 1.349 . S
C406 H400 0.950 . S
C406 C407 1.327 . S
C407 H401 0.950 . S
C407 C406 1.327 . S
C407 C411 1.429 . S
C408 C391 1.574 . S
C408 H402 0.949 . S
C408 C412 1.368 . S
C409 C390 1.429 . S
C409 C403 1.429 . S
C409 C410 1.523 . S
C410 C391 1.368 . S
C410 C404 1.368 . S
C410 C409 1.523 . S
C411 C395 1.429 . S
C411 C407 1.429 . S
C411 C412 1.523 . S
C412 C396 1.368 . S
C412 C408 1.368 . S
C412 C411 1.523 . S
H413 C388 0.950 . S
H414 C390 0.950 . S
H415 C391 0.949 . S
H416 C393 0.950 . S
H417 C395 0.950 . S
C418 C419 1.349 . S
C418 C420 1.327 . S
C418 H443 0.950 . S
C419 C418 1.349 . S
C419 C435 1.349 . S
C420 C418 1.327 . S
C420 C439 1.429 . S
C420 H444 0.950 . S
C421 C438 1.574 . S
C421 C440 1.368 . S
C421 H445 0.949 . S
H422 C426 0.949 . S
C423 C424 1.349 . S
C423 C425 1.327 . S
C423 H446 0.950 . S
C424 C423 1.349 . S
C424 C436 1.349 . S
C425 C423 1.327 . S
C425 C441 1.429 . S
C425 H447 0.950 . S
C426 H422 0.949 . S
C426 C434 1.574 . S
C426 C442 1.368 . S
H427 C435 0.950 . S
H428 C433 0.950 . S
H429 C434 0.949 . S
H430 C436 0.950 . S
H431 C437 0.950 . S
H432 C438 0.949 . S
C433 H428 0.950 . S
C433 C435 1.327 . S
C433 C439 1.429 . S
C434 C426 1.574 . S
C434 H429 0.949 . S
C434 C440 1.368 . S
C435 C419 1.349 . S
C435 H427 0.950 . S
C435 C433 1.327 . S
C436 C424 1.349 . S
C436 H430 0.950 . S
C436 C437 1.327 . S
C437 H431 0.950 . S
C437 C436 1.327 . S
C437 C441 1.429 . S
C438 C421 1.574 . S
C438 H432 0.949 . S
C438 C442 1.368 . S
C439 C420 1.429 . S
C439 C433 1.429 . S
C439 C440 1.523 . S
C440 C421 1.368 . S
C440 C434 1.368 . S
C440 C439 1.523 . S
C441 C425 1.429 . S
C441 C437 1.429 . S
C441 C442 1.523 . S
C442 C426 1.368 . S
C442 C438 1.368 . S
C442 C441 1.523 . S
H443 C418 0.950 . S
H444 C420 0.950 . S
H445 C421 0.949 . S
H446 C423 0.950 . S
H447 C425 0.950 . S
C448 C449 1.349 . S
C448 C450 1.327 . S
C448 H473 0.950 . S
C449 C448 1.349 . S
C449 C465 1.349 . S
C450 C448 1.327 . S
C450 C469 1.429 . S
C450 H474 0.950 . S
C451 C468 1.574 . S
C451 C470 1.368 . S
C451 H475 0.949 . S
H452 C456 0.949 . S
C453 C454 1.349 . S
C453 C455 1.327 . S
C453 H476 0.950 . S
C454 C453 1.349 . S
C454 C466 1.349 . S
C455 C453 1.327 . S
C455 C471 1.429 . S
C455 H477 0.950 . S
C456 H452 0.949 . S
C456 C464 1.574 . S
C456 C472 1.368 . S
H457 C465 0.950 . S
H458 C463 0.950 . S
H459 C464 0.949 . S
H460 C466 0.950 . S
H461 C467 0.950 . S
H462 C468 0.949 . S
C463 H458 0.950 . S
C463 C465 1.327 . S
C463 C469 1.429 . S
C464 C456 1.574 . S
C464 H459 0.949 . S
C464 C470 1.368 . S
C465 C449 1.349 . S
C465 H457 0.950 . S
C465 C463 1.327 . S
C466 C454 1.349 . S
C466 H460 0.950 . S
C466 C467 1.327 . S
C467 H461 0.950 . S
C467 C466 1.327 . S
C467 C471 1.429 . S
C468 C451 1.574 . S
C468 H462 0.949 . S
C468 C472 1.368 . S
C469 C450 1.429 . S
C469 C463 1.429 . S
C469 C470 1.523 . S
C470 C451 1.368 . S
C470 C464 1.368 . S
C470 C469 1.523 . S
C471 C455 1.429 . S
C471 C467 1.429 . S
C471 C472 1.523 . S
C472 C456 1.368 . S
C472 C468 1.368 . S
C472 C471 1.523 . S
H473 C448 0.950 . S
H474 C450 0.950 . S
H475 C451 0.949 . S
H476 C453 0.950 . S
H477 C455 0.950 . S
C478 C479 1.349 . S
C478 C480 1.327 . S
C478 H503 0.950 . S
C479 C478 1.349 . S
C479 C495 1.349 . S
C480 C478 1.327 . S
C480 C499 1.429 . S
C480 H504 0.950 . S
C481 C498 1.574 . S
C481 C500 1.368 . S
C481 H505 0.949 . S
H482 C486 0.949 . S
C483 C484 1.349 . S
C483 C485 1.327 . S
C483 H506 0.950 . S
C484 C483 1.349 . S
C484 C496 1.349 . S
C485 C483 1.327 . S
C485 C501 1.429 . S
C485 H507 0.950 . S
C486 H482 0.949 . S
C486 C494 1.574 . S
C486 C502 1.368 . S
H487 C495 0.950 . S
H488 C493 0.950 . S
H489 C494 0.949 . S
H490 C496 0.950 1_455 S
H491 C497 0.950 . S
H492 C498 0.949 . S
C493 H488 0.950 . S
C493 C495 1.327 . S
C493 C499 1.429 . S
C494 C486 1.574 . S
C494 H489 0.949 . S
C494 C500 1.368 . S
C495 C479 1.349 . S
C495 H487 0.950 . S
C495 C493 1.327 . S
C496 C484 1.349 . S
C496 H490 0.950 1_655 S
C496 C497 1.327 . S
C497 H491 0.950 . S
C497 C496 1.327 . S
C497 C501 1.429 . S
C498 C481 1.574 . S
C498 H492 0.949 . S
C498 C502 1.368 . S
C499 C480 1.429 . S
C499 C493 1.429 . S
C499 C500 1.523 . S
C500 C481 1.368 . S
C500 C494 1.368 . S
C500 C499 1.523 . S
C501 C485 1.429 . S
C501 C497 1.429 . S
C501 C502 1.523 . S
C502 C486 1.368 . S
C502 C498 1.368 . S
C502 C501 1.523 . S
H503 C478 0.950 . S
H504 C480 0.950 . S
H505 C481 0.949 . S
H506 C483 0.950 . S
H507 C485 0.950 . S
C508 C509 1.349 . S
C508 C510 1.327 . S
C508 H533 0.950 1_565 S
C509 C508 1.349 . S
C509 C525 1.349 . S
C510 C508 1.327 . S
C510 C529 1.429 . S
C510 H534 0.950 . S
C511 C528 1.574 . S
C511 C530 1.368 . S
C511 H535 0.949 . S
H512 C516 0.949 . S
C513 C514 1.349 . S
C513 C515 1.327 . S
C513 H536 0.950 . S
C514 C513 1.349 . S
C514 C526 1.349 . S
C515 C513 1.327 . S
C515 C531 1.429 . S
C515 H537 0.950 . S
C516 H512 0.949 . S
C516 C524 1.574 . S
C516 C532 1.368 . S
H517 C525 0.950 . S
H518 C523 0.950 . S
H519 C524 0.949 . S
H520 C526 0.950 . S
H521 C527 0.950 . S
H522 C528 0.949 . S
C523 H518 0.950 . S
C523 C525 1.327 . S
C523 C529 1.429 . S
C524 C516 1.574 . S
C524 H519 0.949 . S
C524 C530 1.368 . S
C525 C509 1.349 . S
C525 H517 0.950 . S
C525 C523 1.327 . S
C526 C514 1.349 . S
C526 H520 0.950 . S
C526 C527 1.327 . S
C527 H521 0.950 . S
C527 C526 1.327 . S
C527 C531 1.429 . S
C528 C511 1.574 . S
C528 H522 0.949 . S
C528 C532 1.368 . S
C529 C510 1.429 . S
C529 C523 1.429 . S
C529 C530 1.523 . S
C530 C511 1.368 . S
C530 C524 1.368 . S
C530 C529 1.523 . S
C531 C515 1.429 . S
C531 C527 1.429 . S
C531 C532 1.523 . S
C532 C516 1.368 . S
C532 C528 1.368 . S
C532 C531 1.523 . S
H533 C508 0.950 1_545 S
H534 C510 0.950 . S
H535 C511 0.949 . S
H536 C513 0.950 . S
H537 C515 0.950 . S
C538 C539 1.349 . S
C538 C540 1.327 . S
C538 H563 0.950 . S
C539 C538 1.349 . S
C539 C555 1.349 . S
C540 C538 1.327 . S
C540 C559 1.429 . S
C540 H564 0.950 . S
C541 C558 1.574 . S
C541 C560 1.368 . S
C541 H565 0.949 . S
H542 C546 0.949 . S
C543 C544 1.349 . S
C543 C545 1.327 . S
C543 H566 0.950 . S
C544 C543 1.349 . S
C544 C556 1.349 . S
C545 C543 1.327 . S
C545 C561 1.429 . S
C545 H567 0.950 . S
C546 H542 0.949 . S
C546 C554 1.574 . S
C546 C562 1.368 . S
H547 C555 0.950 . S
H548 C553 0.950 . S
H549 C554 0.949 . S
H550 C556 0.950 . S
H551 C557 0.950 . S
H552 C558 0.949 . S
C553 H548 0.950 . S
C553 C555 1.327 . S
C553 C559 1.429 . S
C554 C546 1.574 . S
C554 H549 0.949 . S
C554 C560 1.368 . S
C555 C539 1.349 . S
C555 H547 0.950 . S
C555 C553 1.327 . S
C556 C544 1.349 . S
C556 H550 0.950 . S
C556 C557 1.327 . S
C557 H551 0.950 . S
C557 C556 1.327 . S
C557 C561 1.429 . S
C558 C541 1.574 . S
C558 H552 0.949 . S
C558 C562 1.368 . S
C559 C540 1.429 . S
C559 C553 1.429 . S
C559 C560 1.523 . S
C560 C541 1.368 . S
C560 C554 1.368 . S
C560 C559 1.523 . S
C561 C545 1.429 . S
C561 C557 1.429 . S
C561 C562 1.523 . S
C562 C546 1.368 . S
C562 C558 1.368 . S
C562 C561 1.523 . S
H563 C538 0.950 . S
H564 C540 0.950 . S
H565 C541 0.949 . S
H566 C543 0.950 . S
H567 C545 0.950 . S
C568 C569 1.349 . S
C568 C570 1.327 . S
C568 H593 0.950 . S
C569 C568 1.349 . S
C569 C585 1.349 . S
C570 C568 1.327 . S
C570 C589 1.429 . S
C570 H594 0.950 . S
C571 C588 1.574 . S
C571 C590 1.368 . S
C571 H595 0.949 . S
H572 C576 0.949 . S
C573 C574 1.349 . S
C573 C575 1.327 . S
C573 H596 0.950 1_455 S
C574 C573 1.349 . S
C574 C586 1.349 . S
C575 C573 1.327 . S
C575 C591 1.429 . S
C575 H597 0.950 . S
C576 H572 0.949 . S
C576 C584 1.574 . S
C576 C592 1.368 . S
H577 C585 0.950 . S
H578 C583 0.950 . S
H579 C584 0.949 . S
H580 C586 0.950 . S
H581 C587 0.950 . S
H582 C588 0.949 . S
C583 H578 0.950 . S
C583 C585 1.327 . S
C583 C589 1.429 . S
C584 C576 1.574 . S
C584 H579 0.949 . S
C584 C590 1.368 . S
C585 C569 1.349 . S
C585 H577 0.950 . S
C585 C583 1.327 . S
C586 C574 1.349 . S
C586 H580 0.950 . S
C586 C587 1.327 . S
C587 H581 0.950 . S
C587 C586 1.327 . S
C587 C591 1.429 . S
C588 C571 1.574 . S
C588 H582 0.949 . S
C588 C592 1.368 . S
C589 C570 1.429 . S
C589 C583 1.429 . S
C589 C590 1.523 . S
C590 C571 1.368 . S
C590 C584 1.368 . S
C590 C589 1.523 . S
C591 C575 1.429 . S
C591 C587 1.429 . S
C591 C592 1.523 . S
C592 C576 1.368 . S
C592 C588 1.368 . S
C592 C591 1.523 . S
H593 C568 0.950 . S
H594 C570 0.950 . S
H595 C571 0.949 . S
H596 C573 0.950 1_655 S
H597 C575 0.950 . S
C598 C599 1.349 . S
C598 C600 1.327 . S
C598 H623 0.950 1_545 S
C599 C598 1.349 . S
C599 C615 1.349 . S
C600 C598 1.327 . S
C600 C619 1.429 . S
C600 H624 0.950 . S
C601 C618 1.574 . S
C601 C620 1.368 . S
C601 H625 0.949 . S
H602 C606 0.949 . S
C603 C604 1.349 . S
C603 C605 1.327 . S
C603 H626 0.950 . S
C604 C603 1.349 . S
C604 C616 1.349 . S
C605 C603 1.327 . S
C605 C621 1.429 . S
C605 H627 0.950 . S
C606 H602 0.949 . S
C606 C614 1.574 . S
C606 C622 1.368 . S
H607 C615 0.950 . S
H608 C613 0.950 . S
H609 C614 0.949 . S
H610 C616 0.950 . S
H611 C617 0.950 . S
H612 C618 0.949 . S
C613 H608 0.950 . S
C613 C615 1.327 . S
C613 C619 1.429 . S
C614 C606 1.574 . S
C614 H609 0.949 . S
C614 C620 1.368 . S
C615 C599 1.349 . S
C615 H607 0.950 . S
C615 C613 1.327 . S
C616 C604 1.349 . S
C616 H610 0.950 . S
C616 C617 1.327 . S
C617 H611 0.950 . S
C617 C616 1.327 . S
C617 C621 1.429 . S
C618 C601 1.574 . S
C618 H612 0.949 . S
C618 C622 1.368 . S
C619 C600 1.429 . S
C619 C613 1.429 . S
C619 C620 1.523 . S
C620 C601 1.368 . S
C620 C614 1.368 . S
C620 C619 1.523 . S
C621 C605 1.429 . S
C621 C617 1.429 . S
C621 C622 1.523 . S
C622 C606 1.368 . S
C622 C618 1.368 . S
C622 C621 1.523 . S
H623 C598 0.950 1_565 S
H624 C600 0.950 . S
H625 C601 0.949 . S
H626 C603 0.950 . S
H627 C605 0.950 . S
C628 C629 1.349 . S
C628 C630 1.327 . S
C628 H653 0.950 . S
C629 C628 1.349 . S
C629 C645 1.349 . S
C630 C628 1.327 . S
C630 C649 1.429 . S
C630 H654 0.950 . S
C631 C648 1.574 . S
C631 C650 1.368 . S
C631 H655 0.949 . S
H632 C636 0.949 . S
C633 C634 1.349 . S
C633 C635 1.327 . S
C633 H656 0.950 . S
C634 C633 1.349 . S
C634 C646 1.349 . S
C635 C633 1.327 . S
C635 C651 1.429 . S
C635 H657 0.950 . S
C636 H632 0.949 . S
C636 C644 1.574 . S
C636 C652 1.368 . S
H637 C645 0.950 . S
H638 C643 0.950 . S
H639 C644 0.949 . S
H640 C646 0.950 1_565 S
H641 C647 0.950 . S
H642 C648 0.949 . S
C643 H638 0.950 . S
C643 C645 1.327 . S
C643 C649 1.429 . S
C644 C636 1.574 . S
C644 H639 0.949 . S
C644 C650 1.368 . S
C645 C629 1.349 . S
C645 H637 0.950 . S
C645 C643 1.327 . S
C646 C634 1.349 . S
C646 H640 0.950 1_545 S
C646 C647 1.327 . S
C647 H641 0.950 . S
C647 C646 1.327 . S
C647 C651 1.429 . S
C648 C631 1.574 . S
C648 H642 0.949 . S
C648 C652 1.368 . S
C649 C630 1.429 . S
C649 C643 1.429 . S
C649 C650 1.523 . S
C650 C631 1.368 . S
C650 C644 1.368 . S
C650 C649 1.523 . S
C651 C635 1.429 . S
C651 C647 1.429 . S
C651 C652 1.523 . S
C652 C636 1.368 . S
C652 C648 1.368 . S
C652 C651 1.523 . S
H653 C628 0.950 . S
H654 C630 0.950 . S
H655 C631 0.949 . S
H656 C633 0.950 . S
H657 C635 0.950 . S
C658 C659 1.349 . S
C658 C660 1.327 . S
C658 H683 0.950 . S
C659 C658 1.349 . S
C659 C675 1.349 . S
C660 C658 1.327 . S
C660 C679 1.429 . S
C660 H684 0.950 . S
C661 C678 1.574 . S
C661 C680 1.368 . S
C661 H685 0.949 . S
H662 C666 0.949 . S
C663 C664 1.349 . S
C663 C665 1.327 . S
C663 H686 0.950 . S
C664 C663 1.349 . S
C664 C676 1.349 . S
C665 C663 1.327 . S
C665 C681 1.429 . S
C665 H687 0.950 . S
C666 H662 0.949 . S
C666 C674 1.574 . S
C666 C682 1.368 . S
H667 C675 0.950 . S
H668 C673 0.950 . S
H669 C674 0.949 . S
H670 C676 0.950 . S
H671 C677 0.950 . S
H672 C678 0.949 . S
C673 H668 0.950 . S
C673 C675 1.327 . S
C673 C679 1.429 . S
C674 C666 1.574 . S
C674 H669 0.949 . S
C674 C680 1.368 . S
C675 C659 1.349 . S
C675 H667 0.950 . S
C675 C673 1.327 . S
C676 C664 1.349 . S
C676 H670 0.950 . S
C676 C677 1.327 . S
C677 H671 0.950 . S
C677 C676 1.327 . S
C677 C681 1.429 . S
C678 C661 1.574 . S
C678 H672 0.949 . S
C678 C682 1.368 . S
C679 C660 1.429 . S
C679 C673 1.429 . S
C679 C680 1.523 . S
C680 C661 1.368 . S
C680 C674 1.368 . S
C680 C679 1.523 . S
C681 C665 1.429 . S
C681 C677 1.429 . S
C681 C682 1.523 . S
C682 C666 1.368 . S
C682 C678 1.368 . S
C682 C681 1.523 . S
H683 C658 0.950 . S
H684 C660 0.950 . S
H685 C661 0.949 . S
H686 C663 0.950 . S
H687 C665 0.950 . S
C688 C689 1.349 . S
C688 C690 1.327 . S
C688 H713 0.950 . S
C689 C688 1.349 . S
C689 C705 1.349 . S
C690 C688 1.327 . S
C690 C709 1.429 . S
C690 H714 0.950 . S
C691 C708 1.574 . S
C691 C710 1.368 . S
C691 H715 0.949 . S
H692 C696 0.949 . S
C693 C694 1.349 . S
C693 C695 1.327 . S
C693 H716 0.950 . S
C694 C693 1.349 . S
C694 C706 1.349 . S
C695 C693 1.327 . S
C695 C711 1.429 . S
C695 H717 0.950 . S
C696 H692 0.949 . S
C696 C704 1.574 . S
C696 C712 1.368 . S
H697 C705 0.950 . S
H698 C703 0.950 . S
H699 C704 0.949 . S
H700 C706 0.950 . S
H701 C707 0.950 . S
H702 C708 0.949 . S
C703 H698 0.950 . S
C703 C705 1.327 . S
C703 C709 1.429 . S
C704 C696 1.574 . S
C704 H699 0.949 . S
C704 C710 1.368 . S
C705 C689 1.349 . S
C705 H697 0.950 . S
C705 C703 1.327 . S
C706 C694 1.349 . S
C706 H700 0.950 . S
C706 C707 1.327 . S
C707 H701 0.950 . S
C707 C706 1.327 . S
C707 C711 1.429 . S
C708 C691 1.574 . S
C708 H702 0.949 . S
C708 C712 1.368 . S
C709 C690 1.429 . S
C709 C703 1.429 . S
C709 C710 1.523 . S
C710 C691 1.368 . S
C710 C704 1.368 . S
C710 C709 1.523 . S
C711 C695 1.429 . S
C711 C707 1.429 . S
C711 C712 1.523 . S
C712 C696 1.368 . S
C712 C708 1.368 . S
C712 C711 1.523 . S
H713 C688 0.950 . S
H714 C690 0.950 . S
H715 C691 0.949 . S
H716 C693 0.950 . S
H717 C695 0.950 . S
C718 C719 1.349 . S
C718 C720 1.327 . S
C718 H743 0.950 . S
C719 C718 1.349 . S
C719 C735 1.349 . S
C720 C718 1.327 . S
C720 C739 1.429 . S
C720 H744 0.950 . S
C721 C738 1.574 . S
C721 C740 1.368 . S
C721 H745 0.949 . S
H722 C726 0.949 . S
C723 C724 1.349 . S
C723 C725 1.327 . S
C723 H746 0.950 . S
C724 C723 1.349 . S
C724 C736 1.349 . S
C725 C723 1.327 . S
C725 C741 1.429 . S
C725 H747 0.950 . S
C726 H722 0.949 . S
C726 C734 1.574 . S
C726 C742 1.368 . S
H727 C735 0.950 . S
H728 C733 0.950 . S
H729 C734 0.949 . S
H730 C736 0.950 . S
H731 C737 0.950 . S
H732 C738 0.949 . S
C733 H728 0.950 . S
C733 C735 1.327 . S
C733 C739 1.429 . S
C734 C726 1.574 . S
C734 H729 0.949 . S
C734 C740 1.368 . S
C735 C719 1.349 . S
C735 H727 0.950 . S
C735 C733 1.327 . S
C736 C724 1.349 . S
C736 H730 0.950 . S
C736 C737 1.327 . S
C737 H731 0.950 . S
C737 C736 1.327 . S
C737 C741 1.429 . S
C738 C721 1.574 . S
C738 H732 0.949 . S
C738 C742 1.368 . S
C739 C720 1.429 . S
C739 C733 1.429 . S
C739 C740 1.523 . S
C740 C721 1.368 . S
C740 C734 1.368 . S
C740 C739 1.523 . S
C741 C725 1.429 . S
C741 C737 1.429 . S
C741 C742 1.523 . S
C742 C726 1.368 . S
C742 C738 1.368 . S
C742 C741 1.523 . S
H743 C718 0.950 . S
H744 C720 0.950 . S
H745 C721 0.949 . S
H746 C723 0.950 . S
H747 C725 0.950 . S
C748 C749 1.349 . S
C748 C750 1.327 . S
C748 H773 0.950 . S
C749 C748 1.349 . S
C749 C765 1.349 . S
C750 C748 1.327 . S
C750 C769 1.429 . S
C750 H774 0.950 . S
C751 C768 1.574 . S
C751 C770 1.368 . S
C751 H775 0.949 . S
H752 C756 0.949 . S
C753 C754 1.349 . S
C753 C755 1.327 . S
C753 H776 0.950 . S
C754 C753 1.349 . S
C754 C766 1.349 . S
C755 C753 1.327 . S
C755 C771 1.429 . S
C755 H777 0.950 . S
C756 H752 0.949 . S
C756 C764 1.574 . S
C756 C772 1.368 . S
H757 C765 0.950 . S
H758 C763 0.950 . S
H759 C764 0.949 . S
H760 C766 0.950 . S
H761 C767 0.950 . S
H762 C768 0.949 . S
C763 H758 0.950 . S
C763 C765 1.327 . S
C763 C769 1.429 . S
C764 C756 1.574 . S
C764 H759 0.949 . S
C764 C770 1.368 . S
C765 C749 1.349 . S
C765 H757 0.950 . S
C765 C763 1.327 . S
C766 C754 1.349 . S
C766 H760 0.950 . S
C766 C767 1.327 . S
C767 H761 0.950 . S
C767 C766 1.327 . S
C767 C771 1.429 . S
C768 C751 1.574 . S
C768 H762 0.949 . S
C768 C772 1.368 . S
C769 C750 1.429 . S
C769 C763 1.429 . S
C769 C770 1.523 . S
C770 C751 1.368 . S
C770 C764 1.368 . S
C770 C769 1.523 . S
C771 C755 1.429 . S
C771 C767 1.429 . S
C771 C772 1.523 . S
C772 C756 1.368 . S
C772 C768 1.368 . S
C772 C771 1.523 . S
H773 C748 0.950 . S
H774 C750 0.950 . S
H775 C751 0.949 . S
H776 C753 0.950 . S
H777 C755 0.950 . S
C778 C779 1.349 . S
C778 C780 1.327 . S
C778 H803 0.950 . S
C779 C778 1.349 . S
C779 C795 1.349 . S
C780 C778 1.327 . S
C780 C799 1.429 . S
C780 H804 0.950 . S
C781 C798 1.574 . S
C781 C800 1.368 . S
C781 H805 0.949 . S
H782 C786 0.949 . S
C783 C784 1.349 . S
C783 C785 1.327 . S
C783 H806 0.950 . S
C784 C783 1.349 . S
C784 C796 1.349 . S
C785 C783 1.327 . S
C785 C801 1.429 . S
C785 H807 0.950 . S
C786 H782 0.949 . S
C786 C794 1.574 . S
C786 C802 1.368 . S
H787 C795 0.950 . S
H788 C793 0.950 . S
H789 C794 0.949 . S
H790 C796 0.950 . S
H791 C797 0.950 . S
H792 C798 0.949 . S
C793 H788 0.950 . S
C793 C795 1.327 . S
C793 C799 1.429 . S
C794 C786 1.574 . S
C794 H789 0.949 . S
C794 C800 1.368 . S
C795 C779 1.349 . S
C795 H787 0.950 . S
C795 C793 1.327 . S
C796 C784 1.349 . S
C796 H790 0.950 . S
C796 C797 1.327 . S
C797 H791 0.950 . S
C797 C796 1.327 . S
C797 C801 1.429 . S
C798 C781 1.574 . S
C798 H792 0.949 . S
C798 C802 1.368 . S
C799 C780 1.429 . S
C799 C793 1.429 . S
C799 C800 1.523 . S
C800 C781 1.368 . S
C800 C794 1.368 . S
C800 C799 1.523 . S
C801 C785 1.429 . S
C801 C797 1.429 . S
C801 C802 1.523 . S
C802 C786 1.368 . S
C802 C798 1.368 . S
C802 C801 1.523 . S
H803 C778 0.950 . S
H804 C780 0.950 . S
H805 C781 0.949 . S
H806 C783 0.950 . S
H807 C785 0.950 . S
C808 C809 1.349 . S
C808 C810 1.327 . S
C808 H833 0.950 . S
C809 C808 1.349 . S
C809 C825 1.349 . S
C810 C808 1.327 . S
C810 C829 1.429 . S
C810 H834 0.950 . S
C811 C828 1.574 . S
C811 C830 1.368 . S
C811 H835 0.949 . S
H812 C816 0.949 . S
C813 C814 1.349 . S
C813 C815 1.327 . S
C813 H836 0.950 . S
C814 C813 1.349 . S
C814 C826 1.349 . S
C815 C813 1.327 . S
C815 C831 1.429 . S
C815 H837 0.950 . S
C816 H812 0.949 . S
C816 C824 1.574 . S
C816 C832 1.368 . S
H817 C825 0.950 . S
H818 C823 0.950 . S
H819 C824 0.949 . S
H820 C826 0.950 . S
H821 C827 0.950 . S
H822 C828 0.949 . S
C823 H818 0.950 . S
C823 C825 1.327 . S
C823 C829 1.429 . S
C824 C816 1.574 . S
C824 H819 0.949 . S
C824 C830 1.368 . S
C825 C809 1.349 . S
C825 H817 0.950 . S
C825 C823 1.327 . S
C826 C814 1.349 . S
C826 H820 0.950 . S
C826 C827 1.327 . S
C827 H821 0.950 . S
C827 C826 1.327 . S
C827 C831 1.429 . S
C828 C811 1.574 . S
C828 H822 0.949 . S
C828 C832 1.368 . S
C829 C810 1.429 . S
C829 C823 1.429 . S
C829 C830 1.523 . S
C830 C811 1.368 . S
C830 C824 1.368 . S
C830 C829 1.523 . S
C831 C815 1.429 . S
C831 C827 1.429 . S
C831 C832 1.523 . S
C832 C816 1.368 . S
C832 C828 1.368 . S
C832 C831 1.523 . S
H833 C808 0.950 . S
H834 C810 0.950 . S
H835 C811 0.949 . S
H836 C813 0.950 . S
H837 C815 0.950 . S
C838 C839 1.349 . S
C838 C840 1.327 . S
C838 H863 0.950 . S
C839 C838 1.349 . S
C839 C855 1.349 . S
C840 C838 1.327 . S
C840 C859 1.429 . S
C840 H864 0.950 . S
C841 C858 1.574 . S
C841 C860 1.368 . S
C841 H865 0.949 . S
H842 C846 0.949 . S
C843 C844 1.349 . S
C843 C845 1.327 . S
C843 H866 0.950 . S
C844 C843 1.349 . S
C844 C856 1.349 . S
C845 C843 1.327 . S
C845 C861 1.429 . S
C845 H867 0.950 . S
C846 H842 0.949 . S
C846 C854 1.574 . S
C846 C862 1.368 . S
H847 C855 0.950 . S
H848 C853 0.950 . S
H849 C854 0.949 . S
H850 C856 0.950 . S
H851 C857 0.950 . S
H852 C858 0.949 . S
C853 H848 0.950 . S
C853 C855 1.327 . S
C853 C859 1.429 . S
C854 C846 1.574 . S
C854 H849 0.949 . S
C854 C860 1.368 . S
C855 C839 1.349 . S
C855 H847 0.950 . S
C855 C853 1.327 . S
C856 C844 1.349 . S
C856 H850 0.950 . S
C856 C857 1.327 . S
C857 H851 0.950 . S
C857 C856 1.327 . S
C857 C861 1.429 . S
C858 C841 1.574 . S
C858 H852 0.949 . S
C858 C862 1.368 . S
C859 C840 1.429 . S
C859 C853 1.429 . S
C859 C860 1.523 . S
C860 C841 1.368 . S
C860 C854 1.368 . S
C860 C859 1.523 . S
C861 C845 1.429 . S
C861 C857 1.429 . S
C861 C862 1.523 . S
C862 C846 1.368 . S
C862 C858 1.368 . S
C862 C861 1.523 . S
H863 C838 0.950 . S
H864 C840 0.950 . S
H865 C841 0.949 . S
H866 C843 0.950 . S
H867 C845 0.950 . S
C868 C869 1.349 . S
C868 C870 1.327 . S
C868 H893 0.950 . S
C869 C868 1.349 . S
C869 C885 1.349 . S
C870 C868 1.327 . S
C870 C889 1.429 . S
C870 H894 0.950 . S
C871 C888 1.574 . S
C871 C890 1.368 . S
C871 H895 0.949 . S
H872 C876 0.949 . S
C873 C874 1.349 . S
C873 C875 1.327 . S
C873 H896 0.950 . S
C874 C873 1.349 . S
C874 C886 1.349 . S
C875 C873 1.327 . S
C875 C891 1.429 . S
C875 H897 0.950 . S
C876 H872 0.949 . S
C876 C884 1.574 . S
C876 C892 1.368 . S
H877 C885 0.950 . S
H878 C883 0.950 . S
H879 C884 0.949 . S
H880 C886 0.950 . S
H881 C887 0.950 . S
H882 C888 0.949 . S
C883 H878 0.950 . S
C883 C885 1.327 . S
C883 C889 1.429 . S
C884 C876 1.574 . S
C884 H879 0.949 . S
C884 C890 1.368 . S
C885 C869 1.349 . S
C885 H877 0.950 . S
C885 C883 1.327 . S
C886 C874 1.349 . S
C886 H880 0.950 . S
C886 C887 1.327 . S
C887 H881 0.950 . S
C887 C886 1.327 . S
C887 C891 1.429 . S
C888 C871 1.574 . S
C888 H882 0.949 . S
C888 C892 1.368 . S
C889 C870 1.429 . S
C889 C883 1.429 . S
C889 C890 1.523 . S
C890 C871 1.368 . S
C890 C884 1.368 . S
C890 C889 1.523 . S
C891 C875 1.429 . S
C891 C887 1.429 . S
C891 C892 1.523 . S
C892 C876 1.368 . S
C892 C888 1.368 . S
C892 C891 1.523 . S
H893 C868 0.950 . S
H894 C870 0.950 . S
H895 C871 0.949 . S
H896 C873 0.950 . S
H897 C875 0.950 . S
C898 C899 1.349 . S
C898 C900 1.327 . S
C898 H923 0.950 . S
C899 C898 1.349 . S
C899 C915 1.349 . S
C900 C898 1.327 . S
C900 C919 1.429 . S
C900 H924 0.950 . S
C901 C918 1.574 . S
C901 C920 1.368 . S
C901 H925 0.949 . S
H902 C906 0.949 . S
C903 C904 1.349 . S
C903 C905 1.327 . S
C903 H926 0.950 . S
C904 C903 1.349 . S
C904 C916 1.349 . S
C905 C903 1.327 . S
C905 C921 1.429 . S
C905 H927 0.950 . S
C906 H902 0.949 . S
C906 C914 1.574 . S
C906 C922 1.368 . S
H907 C915 0.950 . S
H908 C913 0.950 . S
H909 C914 0.949 . S
H910 C916 0.950 . S
H911 C917 0.950 . S
H912 C918 0.949 . S
C913 H908 0.950 . S
C913 C915 1.327 . S
C913 C919 1.429 . S
C914 C906 1.574 . S
C914 H909 0.949 . S
C914 C920 1.368 . S
C915 C899 1.349 . S
C915 H907 0.950 . S
C915 C913 1.327 . S
C916 C904 1.349 . S
C916 H910 0.950 . S
C916 C917 1.327 . S
C917 H911 0.950 . S
C917 C916 1.327 . S
C917 C921 1.429 . S
C918 C901 1.574 . S
C918 H912 0.949 . S
C918 C922 1.368 . S
C919 C900 1.429 . S
C919 C913 1.429 . S
C919 C920 1.523 . S
C920 C901 1.368 . S
C920 C914 1.368 . S
C920 C919 1.523 . S
C921 C905 1.429 . S
C921 C917 1.429 . S
C921 C922 1.523 . S
C922 C906 1.368 . S
C922 C918 1.368 . S
C922 C921 1.523 . S
H923 C898 0.950 . S
H924 C900 0.950 . S
H925 C901 0.949 . S
H926 C903 0.950 . S
H927 C905 0.950 . S
C928 C929 1.349 . S
C928 C930 1.327 . S
C928 H953 0.950 . S
C929 C928 1.349 . S
C929 C945 1.349 . S
C930 C928 1.327 . S
C930 C949 1.429 . S
C930 H954 0.950 . S
C931 C948 1.574 . S
C931 C950 1.368 1_655 S
C931 H955 0.949 . S
H932 C936 0.949 . S
C933 C934 1.349 . S
C933 C935 1.327 . S
C933 H956 0.950 . S
C934 C933 1.349 . S
C934 C946 1.349 . S
C935 C933 1.327 . S
C935 C951 1.429 . S
C935 H957 0.950 . S
C936 H932 0.949 . S
C936 C944 1.574 . S
C936 C952 1.368 1_455 S
H937 C945 0.950 . S
H938 C943 0.950 1_655 S
H939 C944 0.949 . S
H940 C946 0.950 . S
H941 C947 0.950 1_455 S
H942 C948 0.949 . S
C943 H938 0.950 1_455 S
C943 C945 1.327 . S
C943 C949 1.429 . S
C944 C936 1.574 . S
C944 H939 0.949 . S
C944 C950 1.368 1_556 S
C945 C929 1.349 . S
C945 H937 0.950 . S
C945 C943 1.327 . S
C946 C934 1.349 . S
C946 H940 0.950 . S
C946 C947 1.327 . S
C947 H941 0.950 1_655 S
C947 C946 1.327 . S
C947 C951 1.429 . S
C948 C931 1.574 . S
C948 H942 0.949 . S
C948 C952 1.368 1_554 S
C949 C930 1.429 . S
C949 C943 1.429 . S
C949 C950 1.523 . S
C950 C931 1.368 1_455 S
C950 C944 1.368 1_554 S
C950 C949 1.523 . S
C951 C935 1.429 . S
C951 C947 1.429 . S
C951 C952 1.523 . S
C952 C936 1.368 1_655 S
C952 C948 1.368 1_556 S
C952 C951 1.523 . S
H953 C928 0.950 . S
H954 C930 0.950 . S
H955 C931 0.949 . S
H956 C933 0.950 . S
H957 C935 0.950 . S
C958 C959 1.349 . S
C958 C960 1.327 . S
C958 H983 0.950 . S
C959 C958 1.349 . S
C959 C975 1.349 . S
C960 C958 1.327 . S
C960 C979 1.429 . S
C960 H984 0.950 1_565 S
C961 C978 1.574 1_455 S
C961 C980 1.368 1_554 S
C961 H985 0.949 . S
H962 C966 0.949 . S
C963 C964 1.349 . S
C963 C965 1.327 . S
C963 H986 0.950 . S
C964 C963 1.349 . S
C964 C976 1.349 . S
C965 C963 1.327 . S
C965 C981 1.429 . S
C965 H987 0.950 1_545 S
C966 H962 0.949 . S
C966 C974 1.574 1_655 S
C966 C982 1.368 1_556 S
H967 C975 0.950 . S
H968 C973 0.950 . S
H969 C974 0.949 . S
H970 C976 0.950 . S
H971 C977 0.950 . S
H972 C978 0.949 . S
C973 H968 0.950 . S
C973 C975 1.327 . S
C973 C979 1.429 . S
C974 C966 1.574 1_455 S
C974 H969 0.949 . S
C974 C980 1.368 1_545 S
C975 C959 1.349 . S
C975 H967 0.950 . S
C975 C973 1.327 . S
C976 C964 1.349 . S
C976 H970 0.950 . S
C976 C977 1.327 . S
C977 H971 0.950 . S
C977 C976 1.327 . S
C977 C981 1.429 . S
C978 C961 1.574 1_655 S
C978 H972 0.949 . S
C978 C982 1.368 1_565 S
C979 C960 1.429 . S
C979 C973 1.429 . S
C979 C980 1.523 . S
C980 C961 1.368 1_556 S
C980 C974 1.368 1_565 S
C980 C979 1.523 . S
C981 C965 1.429 . S
C981 C977 1.429 . S
C981 C982 1.523 . S
C982 C966 1.368 1_554 S
C982 C978 1.368 1_545 S
C982 C981 1.523 . S
H983 C958 0.950 . S
H984 C960 0.950 1_545 S
H985 C961 0.949 . S
H986 C963 0.950 . S
H987 C965 0.950 1_565 S
C988 C989 1.349 . S
C988 C990 1.327 . S
C988 H1013 0.950 . S
C989 C988 1.349 . S
C989 C1005 1.349 . S
C990 C988 1.327 . S
C990 C1009 1.429 . S
C990 H1014 0.950 . S
C991 C1008 1.574 . S
C991 C1010 1.368 1_545 S
C991 H1015 0.949 . S
H992 C996 0.949 . S
C993 C994 1.349 . S
C993 C995 1.327 . S
C993 H1016 0.950 . S
C994 C993 1.349 . S
C994 C1006 1.349 . S
C995 C993 1.327 . S
C995 C1011 1.429 . S
C995 H1017 0.950 . S
C996 H992 0.949 . S
C996 C1004 1.574 . S
C996 C1012 1.368 1_565 S
H997 C1005 0.950 . S
H998 C1003 0.950 . S
H999 C1004 0.949 . S
H1000 C1006 0.950 . S
H1001 C1007 0.950 . S
H1002 C1008 0.949 . S
C1003 H998 0.950 . S
C1003 C1005 1.327 . S
C1003 C1009 1.429 . S
C1004 C996 1.574 . S
C1004 H999 0.949 . S
C1004 C1010 1.368 1_556 S
C1005 C989 1.349 . S
C1005 H997 0.950 . S
C1005 C1003 1.327 . S
C1006 C994 1.349 . S
C1006 H1000 0.950 . S
C1006 C1007 1.327 . S
C1007 H1001 0.950 . S
C1007 C1006 1.327 . S
C1007 C1011 1.429 . S
C1008 C991 1.574 . S
C1008 H1002 0.949 . S
C1008 C1012 1.368 1_554 S
C1009 C990 1.429 . S
C1009 C1003 1.429 . S
C1009 C1010 1.523 . S
C1010 C991 1.368 1_565 S
C1010 C1004 1.368 1_554 S
C1010 C1009 1.523 . S
C1011 C995 1.429 . S
C1011 C1007 1.429 . S
C1011 C1012 1.523 . S
C1012 C996 1.368 1_545 S
C1012 C1008 1.368 1_556 S
C1012 C1011 1.523 . S
H1013 C988 0.950 . S
H1014 C990 0.950 . S
H1015 C991 0.949 . S
H1016 C993 0.950 . S
H1017 C995 0.950 . S
C1018 C1019 1.349 . S
C1018 C1020 1.327 . S
C1018 H1043 0.950 . S
C1019 C1018 1.349 . S
C1019 C1035 1.349 . S
C1020 C1018 1.327 . S
C1020 C1039 1.429 . S
C1020 H1044 0.950 . S
C1021 C1038 1.574 1_556 S
C1021 C1040 1.368 . S
C1021 H1045 0.949 . S
H1022 C1026 0.949 . S
C1023 C1024 1.349 . S
C1023 C1025 1.327 . S
C1023 H1046 0.950 . S
C1024 C1023 1.349 . S
C1024 C1036 1.349 . S
C1025 C1023 1.327 . S
C1025 C1041 1.429 . S
C1025 H1047 0.950 . S
C1026 H1022 0.949 . S
C1026 C1034 1.574 1_554 S
C1026 C1042 1.368 . S
H1027 C1035 0.950 . S
H1028 C1033 0.950 . S
H1029 C1034 0.949 . S
H1030 C1036 0.950 . S
H1031 C1037 0.950 . S
H1032 C1038 0.949 . S
C1033 H1028 0.950 . S
C1033 C1035 1.327 . S
C1033 C1039 1.429 . S
C1034 C1026 1.574 1_556 S
C1034 H1029 0.949 . S
C1034 C1040 1.368 . S
C1035 C1019 1.349 . S
C1035 H1027 0.950 . S
C1035 C1033 1.327 . S
C1036 C1024 1.349 . S
C1036 H1030 0.950 . S
C1036 C1037 1.327 . S
C1037 H1031 0.950 . S
C1037 C1036 1.327 . S
C1037 C1041 1.429 . S
C1038 C1021 1.574 1_554 S
C1038 H1032 0.949 . S
C1038 C1042 1.368 . S
C1039 C1020 1.429 . S
C1039 C1033 1.429 . S
C1039 C1040 1.523 . S
C1040 C1021 1.368 . S
C1040 C1034 1.368 . S
C1040 C1039 1.523 . S
C1041 C1025 1.429 . S
C1041 C1037 1.429 . S
C1041 C1042 1.523 . S
C1042 C1026 1.368 . S
C1042 C1038 1.368 . S
C1042 C1041 1.523 . S
H1043 C1018 0.950 . S
H1044 C1020 0.950 . S
H1045 C1021 0.949 . S
H1046 C1023 0.950 . S
H1047 C1025 0.950 . S
C1048 C1049 1.349 . S
C1048 C1050 1.327 1_455 S
C1048 H1073 0.950 1_455 S
C1049 C1048 1.349 . S
C1049 C1065 1.349 . S
C1050 C1048 1.327 1_655 S
C1050 C1069 1.429 1_655 S
C1050 H1074 0.950 . S
C1051 C1068 1.574 1_565 S
C1051 C1070 1.368 . S
C1051 H1075 0.949 . S
H1052 C1056 0.949 . S
C1053 C1054 1.349 . S
C1053 C1055 1.327 1_655 S
C1053 H1076 0.950 1_655 S
C1054 C1053 1.349 . S
C1054 C1066 1.349 . S
C1055 C1053 1.327 1_455 S
C1055 C1071 1.429 1_455 S
C1055 H1077 0.950 . S
C1056 H1052 0.949 . S
C1056 C1064 1.574 1_545 S
C1056 C1072 1.368 . S
H1057 C1065 0.950 . S
H1058 C1063 0.950 . S
H1059 C1064 0.949 . S
H1060 C1066 0.950 . S
H1061 C1067 0.950 . S
H1062 C1068 0.949 . S
C1063 H1058 0.950 . S
C1063 C1065 1.327 . S
C1063 C1069 1.429 . S
C1064 C1056 1.574 1_565 S
C1064 H1059 0.949 . S
C1064 C1070 1.368 1_655 S
C1065 C1049 1.349 . S
C1065 H1057 0.950 . S
C1065 C1063 1.327 . S
C1066 C1054 1.349 . S
C1066 H1060 0.950 . S
C1066 C1067 1.327 . S
C1067 H1061 0.950 . S
C1067 C1066 1.327 . S
C1067 C1071 1.429 . S
C1068 C1051 1.574 1_545 S
C1068 H1062 0.949 . S
C1068 C1072 1.368 1_455 S
C1069 C1050 1.429 1_455 S
C1069 C1063 1.429 . S
C1069 C1070 1.523 . S
C1070 C1051 1.368 . S
C1070 C1064 1.368 1_455 S
C1070 C1069 1.523 . S
C1071 C1055 1.429 1_655 S
C1071 C1067 1.429 . S
C1071 C1072 1.523 . S
C1072 C1056 1.368 . S
C1072 C1068 1.368 1_655 S
C1072 C1071 1.523 . S
H1073 C1048 0.950 1_655 S
H1074 C1050 0.950 . S
H1075 C1051 0.949 . S
H1076 C1053 0.950 1_455 S
H1077 C1055 0.950 . S
C1078 C1079 1.349 . S
C1078 C1080 1.327 . S
C1078 H1103 0.950 . S
C1079 C1078 1.349 . S
C1079 C1095 1.349 . S
C1080 C1078 1.327 . S
C1080 C1099 1.429 . S
C1080 H1104 0.950 . S
C1081 C1098 1.574 . S
C1081 C1100 1.368 1_565 S
C1081 H1105 0.949 . S
H1082 C1086 0.949 . S
C1083 C1084 1.349 . S
C1083 C1085 1.327 . S
C1083 H1106 0.950 . S
C1084 C1083 1.349 . S
C1084 C1096 1.349 . S
C1085 C1083 1.327 . S
C1085 C1101 1.429 . S
C1085 H1107 0.950 . S
C1086 H1082 0.949 . S
C1086 C1094 1.574 . S
C1086 C1102 1.368 1_545 S
H1087 C1095 0.950 1_565 S
H1088 C1093 0.950 . S
H1089 C1094 0.949 . S
H1090 C1096 0.950 1_545 S
H1091 C1097 0.950 . S
H1092 C1098 0.949 . S
C1093 H1088 0.950 . S
C1093 C1095 1.327 1_565 S
C1093 C1099 1.429 1_565 S
C1094 C1086 1.574 . S
C1094 H1089 0.949 . S
C1094 C1100 1.368 . S
C1095 C1079 1.349 . S
C1095 H1087 0.950 1_545 S
C1095 C1093 1.327 1_545 S
C1096 C1084 1.349 . S
C1096 H1090 0.950 1_565 S
C1096 C1097 1.327 1_565 S
C1097 H1091 0.950 . S
C1097 C1096 1.327 1_545 S
C1097 C1101 1.429 1_545 S
C1098 C1081 1.574 . S
C1098 H1092 0.949 . S
C1098 C1102 1.368 . S
C1099 C1080 1.429 . S
C1099 C1093 1.429 1_545 S
C1099 C1100 1.523 . S
C1100 C1081 1.368 1_545 S
C1100 C1094 1.368 . S
C1100 C1099 1.523 . S
C1101 C1085 1.429 . S
C1101 C1097 1.429 1_565 S
C1101 C1102 1.523 . S
C1102 C1086 1.368 1_565 S
C1102 C1098 1.368 . S
C1102 C1101 1.523 . S
H1103 C1078 0.950 . S
H1104 C1080 0.950 . S
H1105 C1081 0.949 . S
H1106 C1083 0.950 . S
H1107 C1085 0.950 . S
C1108 C1109 1.349 . S
C1108 C1110 1.327 . S
C1108 H1133 0.950 . S
C1109 C1108 1.349 . S
C1109 C1125 1.349 . S
C1110 C1108 1.327 . S
C1110 C1129 1.429 . S
C1110 H1134 0.950 . S
C1111 C1128 1.574 . S
C1111 C1130 1.368 . S
C1111 H1135 0.949 . S
H1112 C1116 0.949 . S
C1113 C1114 1.349 . S
C1113 C1115 1.327 . S
C1113 H1136 0.950 . S
C1114 C1113 1.349 . S
C1114 C1126 1.349 . S
C1115 C1113 1.327 . S
C1115 C1131 1.429 . S
C1115 H1137 0.950 . S
C1116 H1112 0.949 . S
C1116 C1124 1.574 . S
C1116 C1132 1.368 . S
H1117 C1125 0.950 . S
H1118 C1123 0.950 . S
H1119 C1124 0.949 . S
H1120 C1126 0.950 . S
H1121 C1127 0.950 . S
H1122 C1128 0.949 . S
C1123 H1118 0.950 . S
C1123 C1125 1.327 . S
C1123 C1129 1.429 . S
C1124 C1116 1.574 . S
C1124 H1119 0.949 . S
C1124 C1130 1.368 . S
C1125 C1109 1.349 . S
C1125 H1117 0.950 . S
C1125 C1123 1.327 . S
C1126 C1114 1.349 . S
C1126 H1120 0.950 . S
C1126 C1127 1.327 . S
C1127 H1121 0.950 . S
C1127 C1126 1.327 . S
C1127 C1131 1.429 . S
C1128 C1111 1.574 . S
C1128 H1122 0.949 . S
C1128 C1132 1.368 . S
C1129 C1110 1.429 . S
C1129 C1123 1.429 . S
C1129 C1130 1.523 . S
C1130 C1111 1.368 . S
C1130 C1124 1.368 . S
C1130 C1129 1.523 . S
C1131 C1115 1.429 . S
C1131 C1127 1.429 . S
C1131 C1132 1.523 . S
C1132 C1116 1.368 . S
C1132 C1128 1.368 . S
C1132 C1131 1.523 . S
H1133 C1108 0.950 . S
H1134 C1110 0.950 . S
H1135 C1111 0.949 . S
H1136 C1113 0.950 . S
H1137 C1115 0.950 . S
C1138 C1139 1.349 . S
C1138 C1140 1.327 . S
C1138 H1163 0.950 . S
C1139 C1138 1.349 . S
C1139 C1155 1.349 . S
C1140 C1138 1.327 . S
C1140 C1159 1.429 . S
C1140 H1164 0.950 . S
C1141 C1158 1.574 1_655 S
C1141 C1160 1.368 . S
C1141 H1165 0.949 . S
H1142 C1146 0.949 . S
C1143 C1144 1.349 . S
C1143 C1145 1.327 . S
C1143 H1166 0.950 . S
C1144 C1143 1.349 . S
C1144 C1156 1.349 . S
C1145 C1143 1.327 . S
C1145 C1161 1.429 . S
C1145 H1167 0.950 . S
C1146 H1142 0.949 . S
C1146 C1154 1.574 1_455 S
C1146 C1162 1.368 . S
H1147 C1155 0.950 . S
H1148 C1153 0.950 . S
H1149 C1154 0.949 . S
H1150 C1156 0.950 . S
H1151 C1157 0.950 . S
H1152 C1158 0.949 . S
C1153 H1148 0.950 . S
C1153 C1155 1.327 . S
C1153 C1159 1.429 . S
C1154 C1146 1.574 1_655 S
C1154 H1149 0.949 . S
C1154 C1160 1.368 . S
C1155 C1139 1.349 . S
C1155 H1147 0.950 . S
C1155 C1153 1.327 . S
C1156 C1144 1.349 . S
C1156 H1150 0.950 . S
C1156 C1157 1.327 . S
C1157 H1151 0.950 . S
C1157 C1156 1.327 . S
C1157 C1161 1.429 . S
C1158 C1141 1.574 1_455 S
C1158 H1152 0.949 . S
C1158 C1162 1.368 . S
C1159 C1140 1.429 . S
C1159 C1153 1.429 . S
C1159 C1160 1.523 . S
C1160 C1141 1.368 . S
C1160 C1154 1.368 . S
C1160 C1159 1.523 . S
C1161 C1145 1.429 . S
C1161 C1157 1.429 . S
C1161 C1162 1.523 . S
C1162 C1146 1.368 . S
C1162 C1158 1.368 . S
C1162 C1161 1.523 . S
H1163 C1138 0.950 . S
H1164 C1140 0.950 . S
H1165 C1141 0.949 . S
H1166 C1143 0.950 . S
H1167 C1145 0.950 . S
C209 C3 2.361 . S
C214 C29 2.361 . S
C239 C16 2.361 . S
C244 C42 2.361 . S
C269 C55 2.361 . S
C274 C81 2.361 . S
C299 C94 2.361 . S
C304 C68 2.361 . S
C329 C109 2.361 . S
C334 C135 2.361 . S
C359 C148 2.361 . S
C364 C122 2.361 . S
C389 C187 2.361 . S
C394 C161 2.361 . S
C419 C200 2.361 . S
C424 C174 2.361 . S
C449 C92 1.908 . S
C454 C1 1.908 . S
C479 C14 1.907 . S
C484 C53 1.907 . S
C509 C66 1.908 . S
C514 C27 1.908 . S
C539 C40 1.908 . S
C544 C79 1.908 . S
C569 C205 1.908 . S
C574 C114 1.908 . S
C599 C127 1.907 . S
C604 C166 1.907 . S
C629 C140 1.908 . S
C634 C179 1.908 . S
C659 C192 1.908 . S
C664 C153 1.908 . S
C689 C10 0.223 . S
C694 C62 0.223 . S
C719 C23 0.223 . S
C724 C75 0.222 . S
C749 C88 0.222 . S
C754 C36 0.222 . S
C779 C49 0.222 . S
C784 C101 0.222 . S
C809 C157 0.223 . S
C814 C105 0.223 . S
C839 C170 0.222 . S
C844 C118 0.223 . S
C869 C131 0.222 . S
C874 C183 0.222 . S
C899 C144 0.222 . S
C904 C196 0.222 . S
C929 C5 1.898 . S
C934 C107 1.898 . S
C959 C120 1.898 . S
C964 C18 1.898 . S
C989 C31 1.897 . S
C994 C133 1.897 . S
C1019 C146 1.897 . S
C1024 C44 1.897 . S
C1049 C57 1.898 . S
C1054 C159 1.898 . S
C1079 C70 1.898 . S
C1084 C172 1.898 . S
C1109 C185 1.897 . S
C1114 C83 1.897 . S
C1139 C96 1.897 . S
C1144 C198 1.897 . S
