# Generated by pormake.
# Topology ooa, (5)-cn, num edge types: 1
# Building blocks:
#     Node 0, Type 0, BuildingBlock: XOMCOT_clean_sbu_1, # of connection points: 5
#     Node 1, Type 0, BuildingBlock: XOMCOT_clean_sbu_1, # of connection points: 5
#     Node 2, Type 0, BuildingBlock: XOMCOT_clean_sbu_1, # of connection points: 5
#     Node 3, Type 0, BuildingBlock: XOMCOT_clean_sbu_1, # of connection points: 5
#     Node 4, Type 0, BuildingBlock: XOMCOT_clean_sbu_1, # of connection points: 5
#     Node 5, Type 0, BuildingBlock: XOMCOT_clean_sbu_1, # of connection points: 5
#     Node 6, Type 0, BuildingBlock: XOMCOT_clean_sbu_1, # of connection points: 5
#     Node 7, Type 0, BuildingBlock: XOMCOT_clean_sbu_1, # of connection points: 5
#     Edge 8, Type (0, 0), BuildingBlock: UVAHIK_clean_linker_0, # of connection points: 2
#     Edge 9, Type (0, 0), BuildingBlock: UVAHIK_clean_linker_0, # of connection points: 2
#     Edge 10, Type (0, 0), BuildingBlock: UVAHIK_clean_linker_0, # of connection points: 2
#     Edge 11, Type (0, 0), BuildingBlock: UVAHIK_clean_linker_0, # of connection points: 2
#     Edge 12, Type (0, 0), BuildingBlock: UVAHIK_clean_linker_0, # of connection points: 2
#     Edge 13, Type (0, 0), BuildingBlock: UVAHIK_clean_linker_0, # of connection points: 2
#     Edge 14, Type (0, 0), BuildingBlock: UVAHIK_clean_linker_0, # of connection points: 2
#     Edge 15, Type (0, 0), BuildingBlock: UVAHIK_clean_linker_0, # of connection points: 2
#     Edge 16, Type (0, 0), BuildingBlock: UVAHIK_clean_linker_0, # of connection points: 2
#     Edge 17, Type (0, 0), BuildingBlock: UVAHIK_clean_linker_0, # of connection points: 2
#     Edge 18, Type (0, 0), BuildingBlock: UVAHIK_clean_linker_0, # of connection points: 2
#     Edge 19, Type (0, 0), BuildingBlock: UVAHIK_clean_linker_0, # of connection points: 2
#     Edge 20, Type (0, 0), BuildingBlock: UVAHIK_clean_linker_0, # of connection points: 2
#     Edge 21, Type (0, 0), BuildingBlock: UVAHIK_clean_linker_0, # of connection points: 2
#     Edge 22, Type (0, 0), BuildingBlock: UVAHIK_clean_linker_0, # of connection points: 2
#     Edge 23, Type (0, 0), BuildingBlock: UVAHIK_clean_linker_0, # of connection points: 2
#     Edge 24, Type (0, 0), BuildingBlock: UVAHIK_clean_linker_0, # of connection points: 2
#     Edge 25, Type (0, 0), BuildingBlock: UVAHIK_clean_linker_0, # of connection points: 2
#     Edge 26, Type (0, 0), BuildingBlock: UVAHIK_clean_linker_0, # of connection points: 2
#     Edge 27, Type (0, 0), BuildingBlock: UVAHIK_clean_linker_0, # of connection points: 2
# Relax obj value: 0.414
# Max RMSD: 0.217
# Mean RMSD: 0.217
data_MOF--net-ooa--node1-XOMCOT_clean_sbu_1--edge1-UVAHIK_clean_linker_0
_symmetry_space_group_name_H-M    P1
_symmetry_Int_Tables_number       1
_symmetry_cell_setting            triclinic
loop_
_symmetry_equiv_pos_as_xyz
'x, y, z'
_cell_length_a     37.228669
_cell_length_b     38.191224
_cell_length_c     61.002013
_cell_angle_alpha  90.006275
_cell_angle_beta   90.049128
_cell_angle_gamma 90.046052
loop_
_atom_site_label
_atom_site_type_symbol
_atom_site_fract_x
_atom_site_fract_y
_atom_site_fract_z
_atom_type_partial_charge
C0 C 0.08544 0.17068 0.10072 0.0
C1 C 0.10764 0.14337 0.10631 0.0
N2 N 0.13121 0.1383 0.08983 0.0
N3 N 0.09521 0.1831 0.08094 0.0
C4 C 0.12296 0.16275 0.07462 0.0
H5 H 0.06298 0.18037 0.11019 0.0
Co6 Co 0.07063 0.21715 0.06524 0.0
C7 C 0.13245 0.26021 0.04946 0.0
O8 O 0.11826 0.28885 0.05769 0.0
N9 N 0.0436 0.24975 0.04907 0.0
C10 C 0.01931 0.28217 0.02251 0.0
C11 C 0.051 0.27063 0.03173 0.0
C12 C 1.00733 0.24848 0.04957 0.0
N13 N 0.99186 0.26778 0.03366 0.0
O14 O 0.06235 0.18371 0.04285 0.0
H15 H 0.07717 0.27466 0.02462 0.0
H16 H 0.99247 0.23191 0.06071 0.0
O17 O 0.11561 0.23112 0.05101 0.0
C18 C 0.0361 0.16364 0.0474 0.0
O19 O 0.01782 0.16946 0.06546 0.0
N20 N 0.07741 0.24873 0.08876 0.0
C21 C 0.08074 0.26946 0.13255 0.0
C22 C 0.11221 0.26154 0.12099 0.0
C23 C 0.10996 0.25103 0.09913 0.0
C24 C 0.04708 0.25982 0.09917 0.0
C25 C 0.04822 0.27071 0.12098 0.0
H26 H 0.13387 0.24055 0.09156 0.0
H27 H 0.02117 0.25671 0.09158 0.0
H28 H 0.1363 0.16541 0.05897 0.0
H29 H 0.10558 0.12761 0.12099 0.0
H30 H 0.01673 0.29733 0.0076 0.0
H31 H 0.13785 0.25968 0.12931 0.0
H32 H 0.02331 0.27702 0.12924 0.0
C33 C 0.42111 0.81753 0.10306 0.0
C34 C 0.39763 0.84388 0.1083 0.0
N35 N 0.37659 0.8502 0.09074 0.0
N36 N 0.41476 0.80688 0.08236 0.0
C37 C 0.38763 0.82739 0.07519 0.0
H38 H 0.44229 0.80749 0.11343 0.0
Co39 Co 0.44278 0.77439 0.06746 0.0
C40 C 0.38649 0.73142 0.04449 0.0
O41 O 0.40069 0.70186 0.05111 0.0
N42 N 0.47323 0.74203 0.05255 0.0
C43 C 0.50741 0.69573 0.04453 0.0
C44 C 0.47711 0.70706 0.05528 0.0
C45 C 0.50187 0.75103 0.04005 0.0
N46 N 0.52327 0.72358 0.03512 0.0
O47 O 0.45322 0.80965 0.04638 0.0
H48 H 0.46093 0.69089 0.06593 0.0
H49 H 0.50814 0.77755 0.03543 0.0
O50 O 0.40089 0.76051 0.05 0.0
C51 C 0.47609 0.83191 0.05326 0.0
O52 O 0.49153 0.82649 0.07235 0.0
N53 N 0.43336 0.74205 0.08976 0.0
C54 C 0.42361 0.71937 0.13272 0.0
C55 C 0.39416 0.7227 0.11849 0.0
C56 C 0.39954 0.73454 0.09708 0.0
C57 C 0.46248 0.73606 0.10275 0.0
C58 C 0.45826 0.72441 0.12423 0.0
H59 H 0.37627 0.74148 0.08745 0.0
H60 H 0.48889 0.74385 0.09719 0.0
H61 H 0.37688 0.82613 0.05872 0.0
H62 H 0.39728 0.85834 0.12356 0.0
H63 H 0.51834 0.6695 0.04512 0.0
H64 H 0.36696 0.71905 0.12436 0.0
H65 H 0.48177 0.72291 0.13465 0.0
C66 C 0.09651 0.31581 0.39354 0.0
C67 C 0.11987 0.34228 0.38821 0.0
N68 N 0.14067 0.34911 0.40581 0.0
N69 N 0.1027 0.3056 0.41434 0.0
C70 C 0.12961 0.32647 0.42147 0.0
H71 H 0.07551 0.30543 0.38315 0.0
Co72 Co 0.07474 0.27331 0.42952 0.0
C73 C 0.13104 0.23101 0.45286 0.0
O74 O 0.11647 0.20128 0.44681 0.0
N75 N 0.04432 0.24117 0.44476 0.0
C76 C 0.01002 0.19505 0.45318 0.0
C77 C 0.04021 0.20617 0.44219 0.0
C78 C 0.01595 0.25035 0.45744 0.0
N79 N 0.99448 0.22303 0.46259 0.0
O80 O 0.06423 0.30899 0.45024 0.0
H81 H 0.05622 0.18983 0.43156 0.0
H82 H 0.00993 0.2769 0.46208 0.0
O83 O 0.11674 0.25994 0.44701 0.0
C84 C 0.0409 0.33057 0.44315 0.0
O85 O 0.02531 0.32419 0.42422 0.0
N86 N 0.08416 0.24052 0.4075 0.0
C87 C 0.09386 0.21727 0.36466 0.0
C88 C 0.12333 0.2208 0.37887 0.0
C89 C 0.11797 0.23291 0.40022 0.0
C90 C 0.05502 0.2343 0.39455 0.0
C91 C 0.05922 0.22234 0.37314 0.0
H92 H 0.14125 0.24 0.4098 0.0
H93 H 0.02863 0.24217 0.40007 0.0
H94 H 0.14016 0.32563 0.43799 0.0
H95 H 0.12027 0.35646 0.37285 0.0
H96 H 0.99898 0.16883 0.45278 0.0
H97 H 0.15051 0.21713 0.373 0.0
H98 H 0.0357 0.22069 0.36274 0.0
C99 C 0.43128 0.67103 0.39667 0.0
C100 C 0.40923 0.64362 0.39096 0.0
N101 N 0.38551 0.63838 0.40734 0.0
N102 N 0.42127 0.68334 0.41643 0.0
C103 C 0.39352 0.66283 0.42262 0.0
H104 H 0.45376 0.68088 0.38729 0.0
Co105 Co 0.44552 0.71761 0.43221 0.0
C106 C 0.38347 0.75992 0.44812 0.0
O107 O 0.39731 0.78862 0.43974 0.0
N108 N 0.47212 0.75047 0.4485 0.0
C109 C 0.49555 0.78249 0.47554 0.0
C110 C 0.4642 0.77057 0.46611 0.0
C111 C 0.50842 0.75004 0.44806 0.0
N112 N 0.52338 0.76912 0.46428 0.0
O113 O 0.45428 0.68411 0.45446 0.0
H114 H 0.43796 0.77369 0.47329 0.0
H115 H 0.52366 0.73407 0.43677 0.0
O116 O 0.40049 0.73096 0.44655 0.0
C117 C 0.48089 0.66459 0.44982 0.0
O118 O 0.4991 0.67103 0.43182 0.0
N119 N 0.43832 0.74926 0.40878 0.0
C120 C 0.4348 0.77032 0.36506 0.0
C121 C 0.40342 0.7618 0.37655 0.0
C122 C 0.40577 0.75114 0.39838 0.0
C123 C 0.46852 0.76089 0.39844 0.0
C124 C 0.46728 0.77196 0.37667 0.0
H125 H 0.38199 0.74027 0.40591 0.0
H126 H 0.49445 0.7581 0.40603 0.0
H127 H 0.37997 0.66542 0.43821 0.0
H128 H 0.41148 0.62794 0.37626 0.0
H129 H 0.49766 0.79706 0.49071 0.0
H130 H 0.37784 0.75964 0.3682 0.0
H131 H 0.49212 0.77872 0.36845 0.0
C132 C 0.92777 0.8201 0.89734 0.0
C133 C 0.90514 0.84715 0.89195 0.0
N134 N 0.88223 0.8523 0.90875 0.0
N135 N 0.91895 0.80793 0.91735 0.0
C136 C 0.89132 0.82817 0.92399 0.0
H137 H 0.94987 0.81044 0.88757 0.0
Co138 Co 0.94443 0.77399 0.93255 0.0
C139 C 0.88414 0.73076 0.95036 0.0
O140 O 0.89856 0.70192 0.94256 0.0
N141 N 0.97241 0.74137 0.94811 0.0
C142 C 0.99815 0.71038 0.97483 0.0
C143 C 0.96606 0.7222 0.96635 0.0
C144 C 1.00862 0.74148 0.94635 0.0
N145 N 0.02494 0.72299 0.96233 0.0
O146 O 0.95401 0.8074 0.95473 0.0
H147 H 0.9406 0.71993 0.97463 0.0
H148 H 0.02295 0.75716 0.93447 0.0
O149 O 0.90028 0.76005 0.9478 0.0
C150 C 0.98045 0.82706 0.94993 0.0
O151 O 0.99826 0.82088 0.93174 0.0
N152 N 0.93623 0.74255 0.90919 0.0
C153 C 0.92852 0.72217 0.86547 0.0
C154 C 0.89828 0.72756 0.87871 0.0
C155 C 0.90268 0.7385 0.90034 0.0
C156 C 0.9658 0.73394 0.89718 0.0
C157 C 0.96257 0.72359 0.87532 0.0
H158 H 0.87916 0.74764 0.90893 0.0
H159 H 0.99229 0.73905 0.90351 0.0
H160 H 0.87862 0.82563 0.93985 0.0
H161 H 0.90645 0.86267 0.87713 0.0
H162 H 1.00165 0.69663 0.9902 0.0
H163 H 0.87142 0.72644 0.87191 0.0
H164 H 0.98681 0.72031 0.86574 0.0
C165 C 0.59418 0.17424 0.89475 0.0
C166 C 0.61749 0.14768 0.88963 0.0
N167 N 0.63836 0.14131 0.90726 0.0
N168 N 0.60045 0.18496 0.91544 0.0
C169 C 0.62738 0.16431 0.92272 0.0
H170 H 0.57311 0.18432 0.8843 0.0
Co171 Co 0.57248 0.21747 0.93034 0.0
C172 C 0.62879 0.26057 0.95322 0.0
O173 O 0.61422 0.29014 0.94691 0.0
N174 N 0.54208 0.24984 0.94528 0.0
C175 C 0.50783 0.29608 0.95336 0.0
C176 C 0.53801 0.28478 0.94247 0.0
C177 C 0.51366 0.24084 0.95797 0.0
N178 N 0.49224 0.26824 0.96294 0.0
O179 O 0.56224 0.18227 0.9515 0.0
H180 H 0.55401 0.30094 0.9317 0.0
H181 H 0.50757 0.21434 0.96272 0.0
O182 O 0.6145 0.23147 0.94763 0.0
C183 C 0.53936 0.15997 0.94468 0.0
O184 O 0.52379 0.16535 0.92563 0.0
N185 N 0.58172 0.24975 0.90798 0.0
C186 C 0.59135 0.27228 0.86498 0.0
C187 C 0.62082 0.26914 0.87921 0.0
C188 C 0.6155 0.25737 0.90064 0.0
C189 C 0.55256 0.25558 0.89498 0.0
C190 C 0.55673 0.26715 0.87348 0.0
H191 H 0.63881 0.25058 0.91027 0.0
H192 H 0.52619 0.24772 0.90057 0.0
H193 H 0.63797 0.16555 0.93922 0.0
H194 H 0.61779 0.1331 0.87442 0.0
H195 H 0.49679 0.32227 0.95277 0.0
H196 H 0.648 0.27288 0.87333 0.0
H197 H 0.53321 0.26852 0.86307 0.0
C198 C 0.9309 0.67054 0.60159 0.0
C199 C 0.90881 0.64338 0.60764 0.0
N200 N 0.88506 0.63764 0.59132 0.0
N201 N 0.92086 0.68222 0.58167 0.0
C202 C 0.89305 0.66157 0.57575 0.0
H203 H 0.95349 0.68057 0.61082 0.0
Co204 Co 0.94524 0.71573 0.56534 0.0
C205 C 0.88319 0.75874 0.54994 0.0
O206 O 0.89745 0.78734 0.55823 0.0
N207 N 0.9719 0.7478 0.54853 0.0
C208 C 0.99502 0.78029 0.52165 0.0
C209 C 0.96376 0.76868 0.53132 0.0
C210 C 1.00817 0.74654 0.54848 0.0
N211 N 0.02295 0.76597 0.53238 0.0
O212 O 0.95263 0.68166 0.54319 0.0
H213 H 0.93732 0.77282 0.52463 0.0
H214 H 0.02346 0.73005 0.55945 0.0
O215 O 0.89999 0.72964 0.55141 0.0
C216 C 0.9786 0.66139 0.54793 0.0
O217 O 0.99698 0.66747 0.56594 0.0
N218 N 0.93958 0.74793 0.58864 0.0
C219 C 0.9385 0.76976 0.63225 0.0
C220 C 0.90642 0.76176 0.6213 0.0
C221 C 0.90754 0.75068 0.59951 0.0
C222 C 0.97049 0.75905 0.59845 0.0
C223 C 0.97047 0.77047 0.62015 0.0
H224 H 0.88321 0.7402 0.59241 0.0
H225 H 0.99601 0.75553 0.59049 0.0
H226 H 0.87954 0.66359 0.56009 0.0
H227 H 0.91113 0.62808 0.62251 0.0
H228 H 0.99691 0.79559 0.50675 0.0
H229 H 0.88117 0.76032 0.63007 0.0
H230 H 0.99581 0.77678 0.62795 0.0
C231 C 0.58822 0.32054 0.60162 0.0
C232 C 0.61077 0.34742 0.60757 0.0
N233 N 0.63443 0.35275 0.59117 0.0
N234 N 0.59788 0.30863 0.58169 0.0
C235 C 0.6259 0.32889 0.57565 0.0
H236 H 0.56567 0.31075 0.61097 0.0
Co237 Co 0.57311 0.27505 0.56562 0.0
C238 C 0.63491 0.23207 0.5497 0.0
O239 O 0.62064 0.20335 0.5578 0.0
N240 N 0.5459 0.24295 0.5491 0.0
C241 C 0.52164 0.21063 0.52246 0.0
C242 C 0.55332 0.22193 0.53184 0.0
C243 C 0.50964 0.24455 0.5494 0.0
N244 N 0.49419 0.2253 0.53344 0.0
O245 O 0.56516 0.30902 0.54351 0.0
H246 H 0.57955 0.21752 0.52492 0.0
H247 H 0.49478 0.26118 0.5605 0.0
O248 O 0.61811 0.26115 0.55136 0.0
C249 C 0.53903 0.32909 0.54823 0.0
O250 O 0.52088 0.32309 0.56632 0.0
N251 N 0.57947 0.24292 0.58888 0.0
C252 C 0.582 0.22147 0.63254 0.0
C253 C 0.6137 0.22946 0.62122 0.0
C254 C 0.61186 0.24031 0.59941 0.0
C255 C 0.54893 0.2317 0.59902 0.0
C256 C 0.54967 0.22044 0.62076 0.0
H257 H 0.63593 0.25082 0.59204 0.0
H258 H 0.52315 0.23502 0.5913 0.0
H259 H 0.63929 0.32657 0.55998 0.0
H260 H 0.60894 0.36272 0.62246 0.0
H261 H 0.5191 0.19533 0.5076 0.0
H262 H 0.63921 0.23113 0.62971 0.0
H263 H 0.5246 0.21404 0.62882 0.0
C264 C 0.99748 0.11235 0.03872 0.0
C265 C 0.02883 0.13171 0.03458 0.0
C266 C 0.99216 0.07989 0.02882 0.0
C267 C 0.0428 0.00684 0.00541 0.0
H268 H 0.94911 0.97621 0.98514 0.0
C269 C 0.0197 0.87816 0.95813 0.0
C270 C 0.9883 0.85902 0.96258 0.0
C271 C 0.0254 0.91071 0.96785 0.0
C272 C 0.97532 0.98424 0.99103 0.0
H273 H 0.07862 0.133 0.01618 0.0
H274 H 0.06912 0.07614 0.99861 0.0
H275 H 0.95703 0.03607 0.99818 0.0
H276 H 0.93891 0.85821 0.98139 0.0
H277 H 0.94906 0.91521 0.9986 0.0
H278 H 0.06107 0.95497 0.99824 0.0
C279 C 0.04889 0.08599 0.00976 0.0
C280 C 0.97989 0.01855 0.99838 0.0
C281 C 0.05417 0.11864 0.01964 0.0
C282 C 0.96337 0.87239 0.97767 0.0
C283 C 0.96902 0.90512 0.98735 0.0
C284 C 0.03823 0.97252 0.99804 0.0
C285 C 0.0181 0.06604 0.01457 0.0
C286 C 0.01366 0.03019 0.00569 0.0
C287 C 0.99978 0.92487 0.98219 0.0
C288 C 1.00442 0.96085 0.99081 0.0
H289 H 0.9774 0.1218 0.05012 0.0
H290 H 0.96833 0.06505 0.03302 0.0
H291 H 0.06899 0.01485 0.01132 0.0
H292 H 0.03947 0.86846 0.94662 0.0
H293 H 0.04922 0.92539 0.96342 0.0
C294 C 0.50464 0.10475 0.94961 0.0
C295 C 0.53146 0.12773 0.9571 0.0
C296 C 0.49858 0.07294 0.96018 0.0
C297 C 0.51342 0.02563 0.01194 0.0
H298 H 0.49927 0.9433 0.97564 0.0
C299 C 0.51106 0.887 0.04838 0.0
C300 C 0.48419 0.86411 0.04085 0.0
C301 C 0.51731 0.91876 0.0378 0.0
C302 C 0.5028 0.9661 0.98599 0.0
H303 H 0.57255 0.13573 0.98182 0.0
H304 H 0.56204 0.07987 0.00031 0.0
H305 H 0.50895 0.00014 0.95841 0.0
H306 H 0.44323 0.85621 0.01604 0.0
H307 H 0.45406 0.912 0.99754 0.0
H308 H 0.50725 0.99159 0.03952 0.0
C309 C 0.54551 0.08668 0.98633 0.0
C310 C 0.50834 -0.00135 0.97614 0.0
C311 C 0.55158 0.11861 0.97573 0.0
C312 C 0.46422 0.87326 0.02216 0.0
C313 C 0.47048 0.90515 0.01156 0.0
C314 C 0.50788 0.99308 0.02179 0.0
C315 C 0.51923 0.06333 0.97847 0.0
C316 C 0.51366 0.02877 0.98901 0.0
C317 C 0.4968 0.92842 0.01946 0.0
C318 C 0.50253 0.96296 0.00892 0.0
H319 H 0.4885 0.11109 0.93537 0.0
H320 H 0.47769 0.05583 0.95398 0.0
H321 H 0.51694 0.04843 0.02229 0.0
H322 H 0.52709 0.88062 0.06266 0.0
H323 H 0.53823 0.93581 0.04403 0.0
C324 C 0.01519 0.6081 0.54086 0.0
C325 C 0.98582 0.62934 0.53518 0.0
C326 C 0.02053 0.57601 0.53053 0.0
C327 C 0.99827 0.52463 0.4816 0.0
H328 H 0.02103 0.44551 0.51904 0.0
C329 C 1.00357 0.38405 0.4482 0.0
C330 C 0.03226 0.36295 0.45519 0.0
C331 C 0.99673 0.41606 0.45833 0.0
C332 C 0.01508 0.4674 0.50835 0.0
H333 H 0.93961 0.63415 0.51373 0.0
H334 H 0.94907 0.57777 0.49553 0.0
H335 H 0.01177 0.50315 0.53525 0.0
H336 H 0.07593 0.35846 0.47856 0.0
H337 H 0.06422 0.41473 0.49618 0.0
H338 H 1.00193 0.48899 0.45466 0.0
C339 C 0.96796 0.58615 0.50799 0.0
C340 C 0.00974 0.50038 0.51762 0.0
C341 C 0.96254 0.61836 0.51839 0.0
C342 C 0.0535 0.3741 0.4729 0.0
C343 C 0.04673 0.40627 0.48301 0.0
C344 C 1.00374 0.49165 0.47231 0.0
C345 C 0.99666 0.56441 0.51426 0.0
C346 C 1.00146 0.52935 0.50434 0.0
C347 C 0.01853 0.42779 0.47563 0.0
C348 C 0.01228 0.46269 0.48558 0.0
H349 H 0.03382 0.61592 0.5536 0.0
H350 H 0.04327 0.56012 0.5354 0.0
H351 H 0.99231 0.54657 0.47096 0.0
H352 H 0.98653 0.37604 0.43469 0.0
H353 H 0.97438 0.43169 0.45255 0.0
C354 C 0.5201 0.61355 0.458 0.0
C355 C 0.48867 0.63259 0.46245 0.0
C356 C 0.52589 0.58106 0.46776 0.0
C357 C 0.47632 0.50744 0.49145 0.0
H358 H 0.57045 0.4778 0.51143 0.0
C359 C 0.50011 0.38019 0.53974 0.0
C360 C 0.53146 0.36095 0.53543 0.0
C361 C 0.49442 0.41248 0.52972 0.0
C362 C 0.54414 0.48554 0.50561 0.0
H363 H 0.43926 0.63325 0.48123 0.0
H364 H 0.44959 0.57638 0.49855 0.0
H365 H 0.56199 0.53743 0.49811 0.0
H366 H 0.58084 0.35971 0.51663 0.0
H367 H 0.5707 0.41631 0.49887 0.0
H368 H 0.45846 0.45557 0.49898 0.0
C369 C 0.4695 0.58649 0.48726 0.0
C370 C 0.53925 0.51972 0.4981 0.0
C371 C 0.46375 0.61915 0.47753 0.0
C372 C 0.55641 0.37399 0.52023 0.0
C373 C 0.55076 0.40648 0.51024 0.0
C374 C 0.48121 0.47327 0.49897 0.0
C375 C 0.50035 0.56687 0.48216 0.0
C376 C 0.50528 0.53104 0.49096 0.0
C377 C 0.51998 0.42629 0.51519 0.0
C378 C 0.51515 0.46198 0.50616 0.0
H379 H 0.53987 0.62328 0.44649 0.0
H380 H 0.54976 0.56648 0.46335 0.0
H381 H 0.45 0.5152 0.48565 0.0
H382 H 0.48031 0.37075 0.55133 0.0
H383 H 0.4706 0.42723 0.53403 0.0
C384 C 0.34191 0.89257 0.06829 0.0
C385 C 0.35027 0.87774 0.08879 0.0
C386 C 0.31848 0.92116 0.06684 0.0
C387 C 0.28497 0.99443 0.09996 0.0
H388 H 0.20791 -6e-05 0.05731 0.0
C389 C 0.17179 0.09563 0.1075 0.0
C390 C 0.1579 0.11103 0.08837 0.0
C391 C 0.19652 0.06828 0.10625 0.0
C392 C 0.22966 -0.00093 0.0691 0.0
H393 H 0.33887 0.88017 0.12363 0.0
H394 H 0.29856 0.93004 0.1211 0.0
H395 H 0.2481 0.94932 0.05727 0.0
H396 H 0.15947 0.10964 0.05282 0.0
H397 H 0.20337 0.06241 0.05064 0.0
H398 H 0.26688 0.04402 0.1118 0.0
C399 C 0.31061 0.92001 0.10621 0.0
C400 C 0.25259 0.97004 0.06909 0.0
C401 C 0.33376 0.89142 0.10765 0.0
C402 C 0.16983 0.09867 0.0679 0.0
C403 C 0.19469 0.07128 0.06664 0.0
C404 C 0.26227 0.02348 0.09988 0.0
C405 C 0.30316 0.93556 0.08586 0.0
C406 C 0.28008 0.96717 0.08478 0.0
C407 C 0.20821 0.05565 0.08581 0.0
C408 C 0.23394 0.02591 0.08471 0.0
H409 H 0.35433 0.88291 0.05345 0.0
H410 H 0.31328 0.93271 0.05093 0.0
H411 H 0.30641 0.99328 0.11195 0.0
H412 H 0.16357 0.10471 0.12353 0.0
H413 H 0.20597 0.0566 0.12136 0.0
C414 C 0.175 0.39195 0.42817 0.0
C415 C 0.16677 0.37692 0.4077 0.0
C416 C 0.19834 0.42065 0.42959 0.0
C417 C 0.23222 0.49378 0.39636 0.0
H418 H 0.30859 0.49974 0.43944 0.0
C419 C 0.34527 0.59556 0.38943 0.0
C420 C 0.35884 0.611 0.40864 0.0
C421 C 0.32059 0.56809 0.39053 0.0
C422 C 0.28704 0.49875 0.42753 0.0
H423 H 0.17826 0.37924 0.37287 0.0
H424 H 0.21842 0.4293 0.37534 0.0
H425 H 0.26846 0.44903 0.43936 0.0
H426 H 0.35673 0.60957 0.44418 0.0
H427 H 0.31293 0.56216 0.4461 0.0
H428 H 0.25045 0.54335 0.38452 0.0
C429 C 0.20633 0.41932 0.39023 0.0
C430 C 0.26413 0.46966 0.42746 0.0
C431 C 0.18327 0.39061 0.38883 0.0
C432 C 0.34663 0.59858 0.42904 0.0
C433 C 0.32183 0.57107 0.43015 0.0
C434 C 0.2549 0.52289 0.39651 0.0
C435 C 0.21373 0.43499 0.41056 0.0
C436 C 0.23686 0.46663 0.41164 0.0
C437 C 0.30863 0.55539 0.41089 0.0
C438 C 0.28297 0.52551 0.41185 0.0
H439 H 0.16259 0.38233 0.44303 0.0
H440 H 0.20346 0.43229 0.44548 0.0
H441 H 0.21096 0.49253 0.38425 0.0
H442 H 0.35369 0.60468 0.37345 0.0
H443 H 0.3114 0.55638 0.37536 0.0
C444 C 0.84412 0.89208 0.93091 0.0
C445 C 0.85533 0.87935 0.91038 0.0
C446 C 0.81919 0.91941 0.93229 0.0
C447 C 0.75042 0.9665 0.89948 0.0
H448 H 0.76634 0.04182 0.94104 0.0
C449 C 0.68057 0.09917 0.89063 0.0
C450 C 0.66435 0.11349 0.9094 0.0
C451 C 0.70337 0.07034 0.89228 0.0
C452 C 0.76137 0.02078 0.92952 0.0
H453 H 0.84821 0.88481 0.87526 0.0
H454 H 0.80574 0.93279 0.87761 0.0
H455 H 0.80619 0.99093 0.94116 0.0
H456 H 0.66048 0.10917 0.9448 0.0
H457 H 0.70099 0.05901 0.94767 0.0
H458 H 0.70621 -0.00331 0.88749 0.0
C459 C 0.8158 0.92149 0.89269 0.0
C460 C 0.78409 0.99159 0.92962 0.0
C461 C 0.84059 0.89421 0.89133 0.0
C462 C 0.67268 0.09904 0.93002 0.0
C463 C 0.69578 0.07023 0.93168 0.0
C464 C 0.72795 -0.00429 0.89929 0.0
C465 C 0.80487 0.93456 0.91317 0.0
C466 C 0.7792 0.96434 0.91435 0.0
C467 C 0.71079 0.05522 0.91276 0.0
C468 C 0.73351 0.0234 0.91407 0.0
H469 H 0.85513 0.8815 0.94593 0.0
H470 H 0.8111 0.92863 0.94833 0.0
H471 H 0.74533 0.94566 0.88784 0.0
H472 H 0.67551 0.1101 0.87456 0.0
H473 H 0.71519 0.0598 0.87746 0.0
C474 C 0.67602 0.39395 0.60941 0.0
C475 C 0.66148 0.37976 0.59008 0.0
C476 C 0.70113 0.42107 0.60851 0.0
C477 C 0.73382 0.49202 0.57261 0.0
H478 H 0.81332 0.49392 0.6137 0.0
C479 C 0.84736 0.59636 0.56994 0.0
C480 C 0.85879 0.60989 0.59024 0.0
C481 C 0.82338 0.56816 0.56905 0.0
C482 C 0.79107 0.49393 0.60225 0.0
H483 H 0.66223 0.38301 0.55457 0.0
H484 H 0.70666 0.42992 0.553 0.0
H485 H 0.77241 0.44413 0.61351 0.0
H486 H 0.85272 0.60519 0.62547 0.0
H487 H 0.81112 0.55608 0.62392 0.0
H488 H 0.75261 0.54195 0.56139 0.0
C489 C 0.69826 0.42026 0.56888 0.0
C490 C 0.76762 0.46539 0.60213 0.0
C491 C 0.6731 0.39306 0.56978 0.0
C492 C 0.84508 0.59502 0.60958 0.0
C493 C 0.82122 0.56684 0.60869 0.0
C494 C 0.75738 0.52058 0.57269 0.0
C495 C 0.71244 0.4347 0.58825 0.0
C496 C 0.73847 0.46424 0.58749 0.0
C497 C 0.81039 0.55283 0.58844 0.0
C498 C 0.78603 0.52202 0.58768 0.0
H499 H 0.66802 0.38409 0.6253 0.0
H500 H 0.71118 0.43181 0.62377 0.0
H501 H 0.71139 0.49217 0.56129 0.0
H502 H 0.85768 0.60685 0.55472 0.0
H503 H 0.81576 0.55777 0.55319 0.0
C504 C 0.1886 0.29276 0.03942 0.0
C505 C 0.16888 0.26134 0.03966 0.0
C506 C 0.22364 0.2936 0.03119 0.0
C507 C 0.28677 0.24568 0.99541 0.0
H508 H 0.35956 0.2977 0.02725 0.0
C509 C 0.43675 0.23599 0.97292 0.0
C510 C 0.45716 0.26704 0.9731 0.0
C511 C 0.40199 0.23532 0.98153 0.0
C512 C 0.3395 0.28338 0.01802 0.0
H513 H 0.17049 0.20621 0.03114 0.0
H514 H 0.23164 0.20769 0.01682 0.0
H515 H 0.29793 0.29666 0.04079 0.0
H516 H 0.45698 0.32151 0.9831 0.0
H517 H 0.39604 0.32053 0.99773 0.0
H518 H 0.32818 0.23254 0.97257 0.0
C519 C 0.21988 0.23175 0.02287 0.0
C520 C 0.30415 0.28278 0.02578 0.0
C521 C 0.18486 0.23087 0.03117 0.0
C522 C 0.442 0.29724 0.98249 0.0
C523 C 0.40714 0.29658 0.99108 0.0
C524 C 0.32207 0.24636 0.98762 0.0
C525 C 0.23979 0.26308 0.02293 0.0
C526 C 0.27736 0.26388 0.01459 0.0
C527 C 0.38655 0.26568 0.99051 0.0
C528 C 0.34893 0.26514 -0.00116 0.0
H529 H 0.17714 0.31674 0.0458 0.0
H530 H 0.23802 0.31827 0.03119 0.0
H531 H 0.2667 0.23132 0.98621 0.0
H532 H 0.4471 0.21226 0.96563 0.0
H533 H 0.38716 0.21092 0.9811 0.0
C534 C 0.0785 0.6941 0.97804 0.0
C535 C 0.06265 0.72314 0.96775 0.0
C536 C 0.11465 0.69499 0.98436 0.0
C537 C 0.18592 0.75623 0.0001 0.0
H538 H 0.25005 0.6784 0.98881 0.0
C539 C 0.33598 0.7618 0.02474 0.0
C540 C 0.35126 0.73092 0.03311 0.0
C541 C 0.30185 0.76125 0.01505 0.0
C542 C 0.23245 0.70023 0.99236 0.0
H543 H 0.07222 0.77606 0.95623 0.0
H544 H 0.1352 0.77764 0.96732 0.0
H545 H 0.18828 0.67613 0.97554 0.0
H546 H 0.34262 0.6752 0.03771 0.0
H547 H 0.28313 0.67442 0.0215 0.0
H548 H 0.22947 0.77997 0.0175 0.0
C549 C 0.11973 0.75411 0.97038 0.0
C550 C 0.19706 0.69891 0.98467 0.0
C551 C 0.08376 0.75304 0.96381 0.0
C552 C 0.33183 0.69947 0.03132 0.0
C553 C 0.29766 0.69898 0.02185 0.0
C554 C 0.22118 0.7574 0.00802 0.0
C555 C 0.13553 0.72518 0.98082 0.0
C556 C 0.17338 0.72684 0.98852 0.0
C557 C 0.28205 0.72987 0.01367 0.0
C558 C 0.24492 0.72933 0.00436 0.0
H559 H 0.06284 0.67076 0.98125 0.0
H560 H 0.12603 0.67239 0.99253 0.0
H561 H 0.16815 0.77799 0.00354 0.0
H562 H 0.35029 0.78645 0.02576 0.0
H563 H 0.29103 0.78548 0.00862 0.0
C564 C 0.43586 0.25575 0.53003 0.0
C565 C 0.45684 0.22549 0.52714 0.0
C566 C 0.40003 0.2565 0.52318 0.0
C567 C 0.32259 0.20038 0.51057 0.0
H568 H 0.28951 0.27968 0.4764 0.0
C569 C 0.18589 0.19929 0.46591 0.0
C570 C 0.16666 0.23078 0.4638 0.0
C571 C 0.22047 0.19902 0.47483 0.0
C572 C 0.29801 0.25761 0.48625 0.0
H573 H 0.45658 0.17221 0.51506 0.0
H574 H 0.39362 0.17333 0.50325 0.0
H575 H 0.35125 0.27827 0.48967 0.0
H576 H 0.16843 0.28664 0.47004 0.0
H577 H 0.2284 0.28609 0.48622 0.0
H578 H 0.26936 0.17986 0.50751 0.0
C579 C 0.40501 0.19646 0.51083 0.0
C580 C 0.33351 0.25675 0.49377 0.0
C581 C 0.44105 0.19586 0.51744 0.0
C582 C 0.18256 0.26194 0.47132 0.0
C583 C 0.2171 0.26164 0.48046 0.0
C584 C 0.28696 0.20139 0.50327 0.0
C585 C 0.3842 0.2269 0.51348 0.0
C586 C 0.34627 0.22802 0.50588 0.0
C587 C 0.23671 0.2302 0.48212 0.0
C588 C 0.27423 0.22989 0.49083 0.0
H589 H 0.44735 0.27919 0.53713 0.0
H590 H 0.38463 0.28025 0.52556 0.0
H591 H 0.33151 0.17812 0.52014 0.0
H592 H 0.17462 0.17479 0.46017 0.0
H593 H 0.2348 0.17438 0.47545 0.0
C594 C 0.07466 0.79568 0.51495 0.0
C595 C 0.06014 0.76643 0.52576 0.0
C596 C 0.11037 0.79551 0.50777 0.0
C597 C 0.18279 0.73516 0.49191 0.0
H598 H 0.24478 0.81578 0.49988 0.0
C599 C 0.3331 0.73106 0.46869 0.0
C600 C 0.34763 0.76101 0.45865 0.0
C601 C 0.29872 0.73192 0.47792 0.0
C602 C 0.22772 0.79317 0.49729 0.0
H603 H 0.07176 0.71389 0.53729 0.0
H604 H 0.13393 0.71373 0.52496 0.0
H605 H 0.18335 0.81729 0.51378 0.0
H606 H 0.33741 0.81541 0.45054 0.0
H607 H 0.27738 0.81672 0.46621 0.0
H608 H 0.22674 0.71119 0.47509 0.0
C609 C 0.11773 0.7368 0.52202 0.0
C610 C 0.19253 0.79405 0.50529 0.0
C611 C 0.08218 0.73707 0.52933 0.0
C612 C 0.32713 0.7919 0.45823 0.0
C613 C 0.29272 0.79271 0.46736 0.0
C614 C 0.21787 0.73435 0.48378 0.0
C615 C 0.13219 0.76592 0.51105 0.0
C616 C 0.16967 0.76505 0.50269 0.0
C617 C 0.27796 0.7627 0.47723 0.0
C618 C 0.24082 0.76335 0.48634 0.0
H619 H 0.05838 0.81869 0.51206 0.0
H620 H 0.12065 0.81826 0.49923 0.0
H621 H 0.16567 0.71258 0.48935 0.0
H622 H 0.34822 0.70686 0.46938 0.0
H623 H 0.28849 0.70846 0.48569 0.0
C624 C 0.57388 0.69441 0.01602 0.0
C625 C 0.55852 0.72471 0.02518 0.0
C626 C 0.60891 0.69498 0.0077 0.0
C627 C 0.69388 0.74541 0.01148 0.0
H628 H 0.71918 0.69392 0.95896 0.0
C629 C 0.83162 0.76031 0.96839 0.0
C630 C 0.84784 0.72966 0.96033 0.0
C631 C 0.79655 0.75949 0.97662 0.0
C632 C 0.71262 0.70814 0.97378 0.0
H633 H 0.56845 0.77959 0.03248 0.0
H634 H 0.62865 0.78077 0.01742 0.0
H635 H 0.65728 0.69312 0.97202 0.0
H636 H 0.84001 0.67399 0.95497 0.0
H637 H 0.77904 0.6726 0.96944 0.0
H638 H 0.7492 0.76061 0.01314 0.0
C639 C 0.61385 0.75635 0.017 0.0
C640 C 0.67712 0.70767 0.98128 0.0
C641 C 0.57893 0.75577 0.02537 0.0
C642 C 0.82837 0.69812 0.96101 0.0
C643 C 0.79328 0.69734 0.96915 0.0
C644 C 0.72933 0.74598 0.00394 0.0
C645 C 0.62948 0.72589 0.00829 0.0
C646 C 0.66727 0.72633 0.00022 0.0
C647 C 0.77685 0.72805 0.97691 0.0
C648 C 0.73915 0.72735 0.985 0.0
H649 H 0.55892 0.67013 0.0154 0.0
H650 H 0.62014 0.67095 0.00125 0.0
H651 H 0.68745 0.75955 0.02635 0.0
H652 H 0.8458 0.78507 0.96809 0.0
H653 H 0.78458 0.78368 0.9823 0.0
C654 C 0.68361 0.29267 0.96602 0.0
C655 C 0.66439 0.26111 0.96416 0.0
C656 C 0.71818 0.29318 0.97494 0.0
C657 C 0.79571 0.23497 0.98668 0.0
H658 H 0.82922 0.31495 0.02016 0.0
C659 C 0.93344 0.23738 0.03043 0.0
C660 C 0.95449 0.2676 0.02742 0.0
C661 C 0.89762 0.23659 0.0236 0.0
C662 C 0.82029 0.29256 0.01071 0.0
H663 H 0.66616 0.20538 0.97085 0.0
H664 H 0.72613 0.20636 0.98701 0.0
H665 H 0.76707 0.31296 0.00754 0.0
H666 H 0.95435 0.32076 0.01516 0.0
H667 H 0.89138 0.31957 0.00336 0.0
H668 H 0.84895 0.21443 0.9902 0.0
C669 C 0.71482 0.23067 0.98106 0.0
C670 C 0.78467 0.2914 0.00341 0.0
C671 C 0.68028 0.23012 0.97193 0.0
C672 C 0.93877 0.29715 0.01763 0.0
C673 C 0.90273 0.29651 0.01103 0.0
C674 C 0.83121 0.23598 0.99419 0.0
C675 C 0.73442 0.26217 0.98246 0.0
C676 C 0.77194 0.2627 0.99114 0.0
C677 C 0.88186 0.2661 0.01379 0.0
C678 C 0.84395 0.26488 0.00616 0.0
H679 H 0.67233 0.31703 0.96008 0.0
H680 H 0.73252 0.31785 0.97537 0.0
H681 H 0.78721 0.21275 0.97695 0.0
H682 H 0.94488 0.21398 0.03759 0.0
H683 H 0.88217 0.21287 0.02607 0.0
C684 C 0.83259 0.73055 0.52915 0.0
C685 C 0.84731 0.76021 0.53943 0.0
C686 C 0.79829 0.73187 0.51977 0.0
C687 C 0.72813 0.7942 0.50046 0.0
H688 H 0.6653 0.7139 0.50709 0.0
C689 C 0.57524 0.79824 0.48198 0.0
C690 C 0.56064 0.76937 0.47079 0.0
C691 C 0.61091 0.79768 0.48928 0.0
C692 C 0.68265 0.73641 0.5049 0.0
H693 H 0.83749 0.81455 0.54788 0.0
H694 H 0.77761 0.81663 0.53198 0.0
H695 H 0.7261 0.71167 0.52179 0.0
H696 H 0.5721 0.71715 0.45865 0.0
H697 H 0.63419 0.71632 0.4712 0.0
H698 H 0.68422 0.81911 0.48391 0.0
C699 C 0.79274 0.79251 0.53073 0.0
C700 C 0.71758 0.73512 0.51328 0.0
C701 C 0.82707 0.79125 0.53999 0.0
C702 C 0.58259 0.74006 0.46691 0.0
C703 C 0.61809 0.73939 0.47434 0.0
C704 C 0.69308 0.79557 0.49221 0.0
C705 C 0.77781 0.76282 0.52055 0.0
C706 C 0.74081 0.764 0.5112 0.0
C707 C 0.6326 0.76808 0.48574 0.0
C708 C 0.66995 0.76669 0.49434 0.0
H709 H 0.84751 0.70625 0.52835 0.0
H710 H 0.78794 0.70863 0.51178 0.0
H711 H 0.7454 0.81674 0.49822 0.0
H712 H 0.55901 0.82119 0.48514 0.0
H713 H 0.62124 0.8201 0.49815 0.0
C714 C 0.94413 0.19432 0.48228 0.0
C715 C 0.95942 0.22441 0.47279 0.0
C716 C 0.9093 0.19515 0.49093 0.0
C717 C 0.82447 0.24579 0.48763 0.0
H718 H 0.80033 0.19545 0.5408 0.0
C719 C 0.68741 0.26147 0.53145 0.0
C720 C 0.67135 0.23098 0.53989 0.0
C721 C 0.72242 0.26059 0.52312 0.0
C722 C 0.80654 0.20936 0.5258 0.0
H723 H 0.94957 0.27917 0.4652 0.0
H724 H 0.88974 0.28082 0.48079 0.0
H725 H 0.86187 0.1942 0.52713 0.0
H726 H 0.67948 0.17554 0.5459 0.0
H727 H 0.74031 0.17401 0.53124 0.0
H728 H 0.76917 0.26107 0.48638 0.0
C729 C 0.90443 0.25636 0.48124 0.0
C730 C 0.84185 0.20862 0.51796 0.0
C731 C 0.93915 0.25552 0.47257 0.0
C732 C 0.69099 0.19955 0.53957 0.0
C733 C 0.726 0.1987 0.53131 0.0
C734 C 0.78921 0.2466 0.49552 0.0
C735 C 0.88887 0.22612 0.49033 0.0
C736 C 0.85129 0.22685 0.49877 0.0
C737 C 0.74224 0.22923 0.52309 0.0
C738 C 0.77979 0.22839 0.51469 0.0
H739 H 0.95899 0.17 0.48292 0.0
H740 H 0.89812 0.17128 0.49765 0.0
H741 H 0.83056 0.25961 0.47259 0.0
H742 H 0.67311 0.28616 0.53149 0.0
H743 H 0.73424 0.28466 0.5171 0.0
C744 C 0.12549 0.23579 0.33035 0.0
C745 C 0.09905 0.21506 0.34055 0.0
C746 C 0.12586 0.23988 0.30761 0.0
C747 C 0.06279 0.24037 0.262 0.0
H748 H 0.1478 0.24389 0.22539 0.0
C749 C 0.05467 0.25014 0.16823 0.0
C750 C 0.08094 0.26941 0.15689 0.0
C751 C 0.05727 0.24511 0.1908 0.0
C752 C 0.12388 0.24357 0.23547 0.0
H753 H 0.0541 0.18017 0.33463 0.0
H754 H 0.05462 0.18755 0.29486 0.0
H755 H 0.15344 0.22811 0.26406 0.0
H756 H 0.12987 0.29964 0.16055 0.0
H757 H 0.13413 0.29133 0.20025 0.0
H758 H 0.03322 0.25633 0.2337 0.0
C759 C 0.07471 0.201 0.30458 0.0
C760 C 0.1271 0.23426 0.25756 0.0
C761 C 0.07448 0.19671 0.32733 0.0
C762 C 0.10928 0.28457 0.16882 0.0
C763 C 0.11183 0.27961 0.19151 0.0
C764 C 0.05959 0.2499 0.24002 0.0
C765 C 0.09967 0.22353 0.29459 0.0
C766 C 0.09653 0.23231 0.27099 0.0
C767 C 0.08616 0.25927 0.20268 0.0
C768 C 0.09004 0.25136 0.22642 0.0
H769 H 0.14447 0.25082 0.33999 0.0
H770 H 0.14528 0.25757 0.30039 0.0
H771 H 0.03886 0.23992 0.27209 0.0
H772 H 0.03299 0.23727 0.15953 0.0
H773 H 0.03737 0.22879 0.19875 0.0
C774 C 0.44298 0.69915 0.17013 0.0
C775 C 0.41837 0.71731 0.15684 0.0
C776 C 0.44258 0.70346 0.19287 0.0
C777 C 0.38956 0.73602 0.23976 0.0
H778 H 0.48303 0.75893 0.26397 0.0
C779 C 0.40621 0.78543 0.32881 0.0
C780 C 0.43469 0.77051 0.34072 0.0
C781 C 0.40385 0.78072 0.30609 0.0
C782 C 0.45677 0.75226 0.25756 0.0
H783 H 0.37276 0.75277 0.15729 0.0
H784 H 0.37165 0.75953 0.19689 0.0
H785 H 0.47785 0.74277 0.22551 0.0
H786 H 0.48305 0.73905 0.33801 0.0
H787 H 0.47898 0.73099 0.29875 0.0
H788 H 0.36852 0.7451 0.27191 0.0
C789 C 0.39122 0.74198 0.18971 0.0
C790 C 0.45383 0.74288 0.23553 0.0
C791 C 0.39177 0.73789 0.16697 0.0
C792 C 0.46125 0.75173 0.32933 0.0
C793 C 0.45884 0.74695 0.30674 0.0
C794 C 0.39252 0.74515 0.2619 0.0
C795 C 0.4174 0.7258 0.2028 0.0
C796 C 0.42025 0.73451 0.22642 0.0
C797 C 0.42984 0.76088 0.29486 0.0
C798 C 0.42621 0.75322 0.27107 0.0
H799 H 0.46348 0.68272 0.16288 0.0
H800 H 0.46266 0.69014 0.20265 0.0
H801 H 0.36334 0.72962 0.23316 0.0
H802 H 0.3854 0.80011 0.33711 0.0
H803 H 0.38146 0.79226 0.29736 0.0
C804 C 0.91208 0.78646 0.6688 0.0
C805 C 0.93949 0.7704 0.65658 0.0
C806 C 0.91062 0.78231 0.69158 0.0
C807 C 0.96438 0.75271 0.73962 0.0
H808 H 0.87092 0.73453 0.76525 0.0
C809 C 0.94927 0.70244 0.82812 0.0
C810 C 0.92508 0.72155 0.84116 0.0
C811 C 0.94958 0.7067 0.80535 0.0
C812 C 0.89717 0.73968 0.75831 0.0
H813 H 0.98691 0.73752 0.65878 0.0
H814 H 0.98434 0.73032 0.69817 0.0
H815 H 0.87543 0.74867 0.72633 0.0
H816 H 0.88158 0.75952 0.84016 0.0
H817 H 0.88159 0.766 0.80064 0.0
H818 H 0.98609 0.74327 0.77157 0.0
C819 C 0.96439 0.74677 0.69036 0.0
C820 C 0.89976 0.74806 0.73607 0.0
C821 C 0.96594 0.75103 0.6677 0.0
C822 C 0.90007 0.74366 0.83074 0.0
C823 C 0.90018 0.74764 0.80801 0.0
C824 C 0.9618 0.74408 0.7618 0.0
C825 C 0.9364 0.76183 0.70256 0.0
C826 C 0.93342 0.75464 0.72644 0.0
C827 C 0.92552 0.72991 0.79514 0.0
C828 C 0.92819 0.73745 0.77137 0.0
H829 H 0.8914 0.80163 0.66069 0.0
H830 H 0.88902 0.79475 0.70055 0.0
H831 H 0.99067 0.75816 0.73284 0.0
H832 H 0.96859 0.68489 0.83555 0.0
H833 H 0.96908 0.69231 0.79574 0.0
C834 C 0.60987 0.20598 0.66895 0.0
C835 C 0.58174 0.22122 0.65689 0.0
C836 C 0.61198 0.21065 0.69168 0.0
C837 C 0.55878 0.23955 0.73996 0.0
H838 H 0.65208 0.26164 0.76473 0.0
C839 C 0.57198 0.29233 0.82754 0.0
C840 C 0.59658 0.27424 0.84086 0.0
C841 C 0.57248 0.288 0.80479 0.0
C842 C 0.62589 0.25539 0.75803 0.0
H843 H 0.53372 0.25323 0.65937 0.0
H844 H 0.53732 0.26119 0.69865 0.0
H845 H 0.64722 0.24619 0.72596 0.0
H846 H 0.64224 0.23884 0.84049 0.0
H847 H 0.64351 0.23203 0.8009 0.0
H848 H 0.53741 0.24912 0.77193 0.0
C849 C 0.55739 0.24501 0.69075 0.0
C850 C 0.62311 0.24628 0.73589 0.0
C851 C 0.55524 0.24029 0.66815 0.0
C852 C 0.62324 0.25368 0.83078 0.0
C853 C 0.62387 0.24955 0.80804 0.0
C854 C 0.56153 0.24888 0.76201 0.0
C855 C 0.58607 0.23077 0.70277 0.0
C856 C 0.58947 0.2384 0.72657 0.0
C857 C 0.59774 0.2657 0.7949 0.0
C858 C 0.59507 0.25705 0.77126 0.0
H859 H 0.63063 0.19106 0.66075 0.0
H860 H 0.63413 0.19888 0.70052 0.0
H861 H 0.53254 0.23306 0.73343 0.0
H862 H 0.55143 0.30873 0.83475 0.0
H863 H 0.55243 0.30131 0.79498 0.0
loop_
_geom_bond_atom_site_label_1
_geom_bond_atom_site_label_2
_geom_bond_distance
_geom_bond_site_symmetry_2
_ccdc_geom_bond_type
C0 C1 1.351 . S
C0 N3 1.368 . S
C0 H5 0.931 . S
C1 C0 1.351 . S
C1 N2 1.373 . S
C1 H29 0.930 . S
N2 C1 1.373 . S
N2 C4 1.340 . S
N3 C0 1.368 . S
N3 C4 1.321 . S
N3 Co6 2.135 . S
C4 N2 1.340 . S
C4 N3 1.321 . S
C4 H28 0.930 . S
H5 C0 0.931 . S
Co6 N3 2.135 . S
Co6 N9 2.121 . S
Co6 O14 2.055 . S
Co6 O17 2.039 . S
Co6 N20 2.140 . S
C7 O8 1.227 . S
C7 O17 1.265 . S
O8 C7 1.227 . S
N9 Co6 2.121 . S
N9 C11 1.375 . S
N9 C12 1.313 . S
C10 C11 1.338 . S
C10 N13 1.377 1_455 S
C10 H30 0.930 . S
C11 N9 1.375 . S
C11 C10 1.338 . S
C11 H15 0.931 . S
C12 N9 1.313 . S
C12 N13 1.344 1_455 S
C12 H16 0.930 . S
N13 C10 1.377 1_655 S
N13 C12 1.344 1_655 S
O14 Co6 2.055 . S
O14 C18 1.253 . S
H15 C11 0.931 . S
H16 C12 0.930 . S
O17 Co6 2.039 . S
O17 C7 1.265 . S
C18 O14 1.253 . S
C18 O19 1.227 . S
O19 C18 1.227 . S
N20 Co6 2.140 . S
N20 C23 1.346 . S
N20 C24 1.345 . S
C21 C22 1.387 . S
C21 C25 1.391 . S
C22 C21 1.387 . S
C22 C23 1.369 . S
C22 H31 0.929 . S
C23 N20 1.346 . S
C23 C22 1.369 . S
C23 H26 0.928 . S
C24 N20 1.345 . S
C24 C25 1.371 . S
C24 H27 0.931 . S
C25 C21 1.391 . S
C25 C24 1.371 . S
C25 H32 0.930 . S
H26 C23 0.928 . S
H27 C24 0.931 . S
H28 C4 0.930 . S
H29 C1 0.930 . S
H30 C10 0.930 . S
H31 C22 0.929 . S
H32 C25 0.930 . S
C33 C34 1.351 . S
C33 N36 1.368 . S
C33 H38 0.931 . S
C34 C33 1.351 . S
C34 N35 1.373 . S
C34 H62 0.930 . S
N35 C34 1.373 . S
N35 C37 1.340 . S
N36 C33 1.368 . S
N36 C37 1.321 . S
N36 Co39 2.135 . S
C37 N35 1.340 . S
C37 N36 1.321 . S
C37 H61 0.930 . S
H38 C33 0.931 . S
Co39 N36 2.135 . S
Co39 N42 2.121 . S
Co39 O47 2.055 . S
Co39 O50 2.039 . S
Co39 N53 2.140 . S
C40 O41 1.227 . S
C40 O50 1.265 . S
O41 C40 1.227 . S
N42 Co39 2.121 . S
N42 C44 1.375 . S
N42 C45 1.313 . S
C43 C44 1.338 . S
C43 N46 1.377 . S
C43 H63 0.930 . S
C44 N42 1.375 . S
C44 C43 1.338 . S
C44 H48 0.931 . S
C45 N42 1.313 . S
C45 N46 1.344 . S
C45 H49 0.930 . S
N46 C43 1.377 . S
N46 C45 1.344 . S
O47 Co39 2.055 . S
O47 C51 1.253 . S
H48 C44 0.931 . S
H49 C45 0.930 . S
O50 Co39 2.039 . S
O50 C40 1.265 . S
C51 O47 1.253 . S
C51 O52 1.227 . S
O52 C51 1.227 . S
N53 Co39 2.140 . S
N53 C56 1.346 . S
N53 C57 1.345 . S
C54 C55 1.387 . S
C54 C58 1.391 . S
C55 C54 1.387 . S
C55 C56 1.369 . S
C55 H64 0.929 . S
C56 N53 1.346 . S
C56 C55 1.369 . S
C56 H59 0.928 . S
C57 N53 1.345 . S
C57 C58 1.371 . S
C57 H60 0.931 . S
C58 C54 1.391 . S
C58 C57 1.371 . S
C58 H65 0.930 . S
H59 C56 0.928 . S
H60 C57 0.931 . S
H61 C37 0.930 . S
H62 C34 0.930 . S
H63 C43 0.930 . S
H64 C55 0.929 . S
H65 C58 0.930 . S
C66 C67 1.351 . S
C66 N69 1.368 . S
C66 H71 0.931 . S
C67 C66 1.351 . S
C67 N68 1.373 . S
C67 H95 0.930 . S
N68 C67 1.373 . S
N68 C70 1.340 . S
N69 C66 1.368 . S
N69 C70 1.321 . S
N69 Co72 2.135 . S
C70 N68 1.340 . S
C70 N69 1.321 . S
C70 H94 0.930 . S
H71 C66 0.931 . S
Co72 N69 2.135 . S
Co72 N75 2.121 . S
Co72 O80 2.055 . S
Co72 O83 2.039 . S
Co72 N86 2.140 . S
C73 O74 1.227 . S
C73 O83 1.265 . S
O74 C73 1.227 . S
N75 Co72 2.121 . S
N75 C77 1.375 . S
N75 C78 1.313 . S
C76 C77 1.338 . S
C76 N79 1.377 1_455 S
C76 H96 0.930 . S
C77 N75 1.375 . S
C77 C76 1.338 . S
C77 H81 0.931 . S
C78 N75 1.313 . S
C78 N79 1.344 1_455 S
C78 H82 0.930 . S
N79 C76 1.377 1_655 S
N79 C78 1.344 1_655 S
O80 Co72 2.055 . S
O80 C84 1.253 . S
H81 C77 0.931 . S
H82 C78 0.930 . S
O83 Co72 2.039 . S
O83 C73 1.265 . S
C84 O80 1.253 . S
C84 O85 1.227 . S
O85 C84 1.227 . S
N86 Co72 2.140 . S
N86 C89 1.346 . S
N86 C90 1.345 . S
C87 C88 1.387 . S
C87 C91 1.391 . S
C88 C87 1.387 . S
C88 C89 1.369 . S
C88 H97 0.929 . S
C89 N86 1.346 . S
C89 C88 1.369 . S
C89 H92 0.928 . S
C90 N86 1.345 . S
C90 C91 1.371 . S
C90 H93 0.931 . S
C91 C87 1.391 . S
C91 C90 1.371 . S
C91 H98 0.930 . S
H92 C89 0.928 . S
H93 C90 0.931 . S
H94 C70 0.930 . S
H95 C67 0.930 . S
H96 C76 0.930 . S
H97 C88 0.929 . S
H98 C91 0.930 . S
C99 C100 1.351 . S
C99 N102 1.368 . S
C99 H104 0.931 . S
C100 C99 1.351 . S
C100 N101 1.373 . S
C100 H128 0.930 . S
N101 C100 1.373 . S
N101 C103 1.340 . S
N102 C99 1.368 . S
N102 C103 1.321 . S
N102 Co105 2.135 . S
C103 N101 1.340 . S
C103 N102 1.321 . S
C103 H127 0.930 . S
H104 C99 0.931 . S
Co105 N102 2.135 . S
Co105 N108 2.121 . S
Co105 O113 2.055 . S
Co105 O116 2.039 . S
Co105 N119 2.140 . S
C106 O107 1.227 . S
C106 O116 1.265 . S
O107 C106 1.227 . S
N108 Co105 2.121 . S
N108 C110 1.375 . S
N108 C111 1.313 . S
C109 C110 1.338 . S
C109 N112 1.377 . S
C109 H129 0.930 . S
C110 N108 1.375 . S
C110 C109 1.338 . S
C110 H114 0.931 . S
C111 N108 1.313 . S
C111 N112 1.344 . S
C111 H115 0.930 . S
N112 C109 1.377 . S
N112 C111 1.344 . S
O113 Co105 2.055 . S
O113 C117 1.253 . S
H114 C110 0.931 . S
H115 C111 0.930 . S
O116 Co105 2.039 . S
O116 C106 1.265 . S
C117 O113 1.253 . S
C117 O118 1.227 . S
O118 C117 1.227 . S
N119 Co105 2.140 . S
N119 C122 1.346 . S
N119 C123 1.345 . S
C120 C121 1.387 . S
C120 C124 1.391 . S
C121 C120 1.387 . S
C121 C122 1.369 . S
C121 H130 0.929 . S
C122 N119 1.346 . S
C122 C121 1.369 . S
C122 H125 0.928 . S
C123 N119 1.345 . S
C123 C124 1.371 . S
C123 H126 0.931 . S
C124 C120 1.391 . S
C124 C123 1.371 . S
C124 H131 0.930 . S
H125 C122 0.928 . S
H126 C123 0.931 . S
H127 C103 0.930 . S
H128 C100 0.930 . S
H129 C109 0.930 . S
H130 C121 0.929 . S
H131 C124 0.930 . S
C132 C133 1.351 . S
C132 N135 1.368 . S
C132 H137 0.931 . S
C133 C132 1.351 . S
C133 N134 1.373 . S
C133 H161 0.930 . S
N134 C133 1.373 . S
N134 C136 1.340 . S
N135 C132 1.368 . S
N135 C136 1.321 . S
N135 Co138 2.135 . S
C136 N134 1.340 . S
C136 N135 1.321 . S
C136 H160 0.930 . S
H137 C132 0.931 . S
Co138 N135 2.135 . S
Co138 N141 2.121 . S
Co138 O146 2.055 . S
Co138 O149 2.039 . S
Co138 N152 2.140 . S
C139 O140 1.227 . S
C139 O149 1.265 . S
O140 C139 1.227 . S
N141 Co138 2.121 . S
N141 C143 1.375 . S
N141 C144 1.313 . S
C142 C143 1.338 . S
C142 N145 1.377 1_655 S
C142 H162 0.930 . S
C143 N141 1.375 . S
C143 C142 1.338 . S
C143 H147 0.931 . S
C144 N141 1.313 . S
C144 N145 1.344 1_655 S
C144 H148 0.930 . S
N145 C142 1.377 1_455 S
N145 C144 1.344 1_455 S
O146 Co138 2.055 . S
O146 C150 1.253 . S
H147 C143 0.931 . S
H148 C144 0.930 . S
O149 Co138 2.039 . S
O149 C139 1.265 . S
C150 O146 1.253 . S
C150 O151 1.227 . S
O151 C150 1.227 . S
N152 Co138 2.140 . S
N152 C155 1.346 . S
N152 C156 1.345 . S
C153 C154 1.387 . S
C153 C157 1.391 . S
C154 C153 1.387 . S
C154 C155 1.369 . S
C154 H163 0.929 . S
C155 N152 1.346 . S
C155 C154 1.369 . S
C155 H158 0.928 . S
C156 N152 1.345 . S
C156 C157 1.371 . S
C156 H159 0.931 . S
C157 C153 1.391 . S
C157 C156 1.371 . S
C157 H164 0.930 . S
H158 C155 0.928 . S
H159 C156 0.931 . S
H160 C136 0.930 . S
H161 C133 0.930 . S
H162 C142 0.930 . S
H163 C154 0.929 . S
H164 C157 0.930 . S
C165 C166 1.351 . S
C165 N168 1.368 . S
C165 H170 0.931 . S
C166 C165 1.351 . S
C166 N167 1.373 . S
C166 H194 0.930 . S
N167 C166 1.373 . S
N167 C169 1.340 . S
N168 C165 1.368 . S
N168 C169 1.321 . S
N168 Co171 2.135 . S
C169 N167 1.340 . S
C169 N168 1.321 . S
C169 H193 0.930 . S
H170 C165 0.931 . S
Co171 N168 2.135 . S
Co171 N174 2.121 . S
Co171 O179 2.055 . S
Co171 O182 2.039 . S
Co171 N185 2.140 . S
C172 O173 1.227 . S
C172 O182 1.265 . S
O173 C172 1.227 . S
N174 Co171 2.121 . S
N174 C176 1.375 . S
N174 C177 1.313 . S
C175 C176 1.338 . S
C175 N178 1.377 . S
C175 H195 0.930 . S
C176 N174 1.375 . S
C176 C175 1.338 . S
C176 H180 0.931 . S
C177 N174 1.313 . S
C177 N178 1.344 . S
C177 H181 0.930 . S
N178 C175 1.377 . S
N178 C177 1.344 . S
O179 Co171 2.055 . S
O179 C183 1.253 . S
H180 C176 0.931 . S
H181 C177 0.930 . S
O182 Co171 2.039 . S
O182 C172 1.265 . S
C183 O179 1.253 . S
C183 O184 1.227 . S
O184 C183 1.227 . S
N185 Co171 2.140 . S
N185 C188 1.346 . S
N185 C189 1.345 . S
C186 C187 1.387 . S
C186 C190 1.391 . S
C187 C186 1.387 . S
C187 C188 1.369 . S
C187 H196 0.929 . S
C188 N185 1.346 . S
C188 C187 1.369 . S
C188 H191 0.928 . S
C189 N185 1.345 . S
C189 C190 1.371 . S
C189 H192 0.931 . S
C190 C186 1.391 . S
C190 C189 1.371 . S
C190 H197 0.930 . S
H191 C188 0.928 . S
H192 C189 0.931 . S
H193 C169 0.930 . S
H194 C166 0.930 . S
H195 C175 0.930 . S
H196 C187 0.929 . S
H197 C190 0.930 . S
C198 C199 1.351 . S
C198 N201 1.368 . S
C198 H203 0.931 . S
C199 C198 1.351 . S
C199 N200 1.373 . S
C199 H227 0.930 . S
N200 C199 1.373 . S
N200 C202 1.340 . S
N201 C198 1.368 . S
N201 C202 1.321 . S
N201 Co204 2.135 . S
C202 N200 1.340 . S
C202 N201 1.321 . S
C202 H226 0.930 . S
H203 C198 0.931 . S
Co204 N201 2.135 . S
Co204 N207 2.121 . S
Co204 O212 2.055 . S
Co204 O215 2.039 . S
Co204 N218 2.140 . S
C205 O206 1.227 . S
C205 O215 1.265 . S
O206 C205 1.227 . S
N207 Co204 2.121 . S
N207 C209 1.375 . S
N207 C210 1.313 . S
C208 C209 1.338 . S
C208 N211 1.377 1_655 S
C208 H228 0.930 . S
C209 N207 1.375 . S
C209 C208 1.338 . S
C209 H213 0.931 . S
C210 N207 1.313 . S
C210 N211 1.344 1_655 S
C210 H214 0.930 . S
N211 C208 1.377 1_455 S
N211 C210 1.344 1_455 S
O212 Co204 2.055 . S
O212 C216 1.253 . S
H213 C209 0.931 . S
H214 C210 0.930 . S
O215 Co204 2.039 . S
O215 C205 1.265 . S
C216 O212 1.253 . S
C216 O217 1.227 . S
O217 C216 1.227 . S
N218 Co204 2.140 . S
N218 C221 1.346 . S
N218 C222 1.345 . S
C219 C220 1.387 . S
C219 C223 1.391 . S
C220 C219 1.387 . S
C220 C221 1.369 . S
C220 H229 0.929 . S
C221 N218 1.346 . S
C221 C220 1.369 . S
C221 H224 0.928 . S
C222 N218 1.345 . S
C222 C223 1.371 . S
C222 H225 0.931 . S
C223 C219 1.391 . S
C223 C222 1.371 . S
C223 H230 0.930 . S
H224 C221 0.928 . S
H225 C222 0.931 . S
H226 C202 0.930 . S
H227 C199 0.930 . S
H228 C208 0.930 . S
H229 C220 0.929 . S
H230 C223 0.930 . S
C231 C232 1.351 . S
C231 N234 1.368 . S
C231 H236 0.931 . S
C232 C231 1.351 . S
C232 N233 1.373 . S
C232 H260 0.930 . S
N233 C232 1.373 . S
N233 C235 1.340 . S
N234 C231 1.368 . S
N234 C235 1.321 . S
N234 Co237 2.135 . S
C235 N233 1.340 . S
C235 N234 1.321 . S
C235 H259 0.930 . S
H236 C231 0.931 . S
Co237 N234 2.135 . S
Co237 N240 2.121 . S
Co237 O245 2.055 . S
Co237 O248 2.039 . S
Co237 N251 2.140 . S
C238 O239 1.227 . S
C238 O248 1.265 . S
O239 C238 1.227 . S
N240 Co237 2.121 . S
N240 C242 1.375 . S
N240 C243 1.313 . S
C241 C242 1.338 . S
C241 N244 1.377 . S
C241 H261 0.930 . S
C242 N240 1.375 . S
C242 C241 1.338 . S
C242 H246 0.931 . S
C243 N240 1.313 . S
C243 N244 1.344 . S
C243 H247 0.930 . S
N244 C241 1.377 . S
N244 C243 1.344 . S
O245 Co237 2.055 . S
O245 C249 1.253 . S
H246 C242 0.931 . S
H247 C243 0.930 . S
O248 Co237 2.039 . S
O248 C238 1.265 . S
C249 O245 1.253 . S
C249 O250 1.227 . S
O250 C249 1.227 . S
N251 Co237 2.140 . S
N251 C254 1.346 . S
N251 C255 1.345 . S
C252 C253 1.387 . S
C252 C256 1.391 . S
C253 C252 1.387 . S
C253 C254 1.369 . S
C253 H262 0.929 . S
C254 N251 1.346 . S
C254 C253 1.369 . S
C254 H257 0.928 . S
C255 N251 1.345 . S
C255 C256 1.371 . S
C255 H258 0.931 . S
C256 C252 1.391 . S
C256 C255 1.371 . S
C256 H263 0.930 . S
H257 C254 0.928 . S
H258 C255 0.931 . S
H259 C235 0.930 . S
H260 C232 0.930 . S
H261 C241 0.930 . S
H262 C253 0.929 . S
H263 C256 0.930 . S
C264 C265 1.349 1_655 S
C264 C266 1.327 . S
C264 H289 0.950 . S
C265 C264 1.349 1_455 S
C265 C281 1.349 . S
C266 C264 1.327 . S
C266 C285 1.429 1_655 S
C266 H290 0.950 . S
C267 C284 1.574 1_545 S
C267 C286 1.368 1_556 S
C267 H291 0.949 . S
H268 C272 0.949 . S
C269 C270 1.349 1_455 S
C269 C271 1.327 . S
C269 H292 0.950 . S
C270 C269 1.349 1_655 S
C270 C282 1.349 . S
C271 C269 1.327 . S
C271 C287 1.429 1_455 S
C271 H293 0.950 . S
C272 H268 0.949 . S
C272 C280 1.574 1_565 S
C272 C288 1.368 1_554 S
H273 C281 0.950 . S
H274 C279 0.950 . S
H275 C280 0.949 . S
H276 C282 0.950 . S
H277 C283 0.950 . S
H278 C284 0.949 . S
C279 H274 0.950 . S
C279 C281 1.327 . S
C279 C285 1.429 . S
C280 C272 1.574 1_545 S
C280 H275 0.949 . S
C280 C286 1.368 1_655 S
C281 C265 1.349 . S
C281 H273 0.950 . S
C281 C279 1.327 . S
C282 C270 1.349 . S
C282 H276 0.950 . S
C282 C283 1.327 . S
C283 H277 0.950 . S
C283 C282 1.327 . S
C283 C287 1.429 . S
C284 C267 1.574 1_565 S
C284 H278 0.949 . S
C284 C288 1.368 1_455 S
C285 C266 1.429 1_455 S
C285 C279 1.429 . S
C285 C286 1.523 . S
C286 C267 1.368 1_554 S
C286 C280 1.368 1_455 S
C286 C285 1.523 . S
C287 C271 1.429 1_655 S
C287 C283 1.429 . S
C287 C288 1.523 . S
C288 C272 1.368 1_556 S
C288 C284 1.368 1_655 S
C288 C287 1.523 . S
H289 C264 0.950 . S
H290 C266 0.950 . S
H291 C267 0.949 . S
H292 C269 0.950 . S
H293 C271 0.950 . S
C294 C295 1.349 . S
C294 C296 1.327 . S
C294 H319 0.950 . S
C295 C294 1.349 . S
C295 C311 1.349 . S
C296 C294 1.327 . S
C296 C315 1.429 . S
C296 H320 0.950 . S
C297 C314 1.574 1_545 S
C297 C316 1.368 1_554 S
C297 H321 0.949 . S
H298 C302 0.949 . S
C299 C300 1.349 . S
C299 C301 1.327 . S
C299 H322 0.950 . S
C300 C299 1.349 . S
C300 C312 1.349 . S
C301 C299 1.327 . S
C301 C317 1.429 . S
C301 H323 0.950 . S
C302 H298 0.949 . S
C302 C310 1.574 1_565 S
C302 C318 1.368 1_556 S
H303 C311 0.950 . S
H304 C309 0.950 . S
H305 C310 0.949 . S
H306 C312 0.950 . S
H307 C313 0.950 . S
H308 C314 0.949 . S
C309 H304 0.950 . S
C309 C311 1.327 . S
C309 C315 1.429 . S
C310 C302 1.574 1_545 S
C310 H305 0.949 . S
C310 C316 1.368 . S
C311 C295 1.349 . S
C311 H303 0.950 . S
C311 C309 1.327 . S
C312 C300 1.349 . S
C312 H306 0.950 . S
C312 C313 1.327 . S
C313 H307 0.950 . S
C313 C312 1.327 . S
C313 C317 1.429 . S
C314 C297 1.574 1_565 S
C314 H308 0.949 . S
C314 C318 1.368 . S
C315 C296 1.429 . S
C315 C309 1.429 . S
C315 C316 1.523 . S
C316 C297 1.368 1_556 S
C316 C310 1.368 . S
C316 C315 1.523 . S
C317 C301 1.429 . S
C317 C313 1.429 . S
C317 C318 1.523 . S
C318 C302 1.368 1_554 S
C318 C314 1.368 . S
C318 C317 1.523 . S
H319 C294 0.950 . S
H320 C296 0.950 . S
H321 C297 0.949 . S
H322 C299 0.950 . S
H323 C301 0.950 . S
C324 C325 1.349 . S
C324 C326 1.327 . S
C324 H349 0.950 . S
C325 C324 1.349 . S
C325 C341 1.349 . S
C326 C324 1.327 . S
C326 C345 1.429 . S
C326 H350 0.950 . S
C327 C344 1.574 . S
C327 C346 1.368 1_455 S
C327 H351 0.949 . S
H328 C332 0.949 . S
C329 C330 1.349 . S
C329 C331 1.327 . S
C329 H352 0.950 . S
C330 C329 1.349 . S
C330 C342 1.349 . S
C331 C329 1.327 . S
C331 C347 1.429 . S
C331 H353 0.950 . S
C332 H328 0.949 . S
C332 C340 1.574 . S
C332 C348 1.368 1_655 S
H333 C341 0.950 1_455 S
H334 C339 0.950 . S
H335 C340 0.949 . S
H336 C342 0.950 1_655 S
H337 C343 0.950 . S
H338 C344 0.949 . S
C339 H334 0.950 . S
C339 C341 1.327 1_455 S
C339 C345 1.429 1_455 S
C340 C332 1.574 . S
C340 H335 0.949 . S
C340 C346 1.368 . S
C341 C325 1.349 . S
C341 H333 0.950 1_655 S
C341 C339 1.327 1_655 S
C342 C330 1.349 . S
C342 H336 0.950 1_455 S
C342 C343 1.327 1_455 S
C343 H337 0.950 . S
C343 C342 1.327 1_655 S
C343 C347 1.429 1_655 S
C344 C327 1.574 . S
C344 H338 0.949 . S
C344 C348 1.368 . S
C345 C326 1.429 . S
C345 C339 1.429 1_655 S
C345 C346 1.523 . S
C346 C327 1.368 1_655 S
C346 C340 1.368 . S
C346 C345 1.523 . S
C347 C331 1.429 . S
C347 C343 1.429 1_455 S
C347 C348 1.523 . S
C348 C332 1.368 1_455 S
C348 C344 1.368 . S
C348 C347 1.523 . S
H349 C324 0.950 . S
H350 C326 0.950 . S
H351 C327 0.949 . S
H352 C329 0.950 . S
H353 C331 0.950 . S
C354 C355 1.349 . S
C354 C356 1.327 . S
C354 H379 0.950 . S
C355 C354 1.349 . S
C355 C371 1.349 . S
C356 C354 1.327 . S
C356 C375 1.429 . S
C356 H380 0.950 . S
C357 C374 1.574 . S
C357 C376 1.368 . S
C357 H381 0.949 . S
H358 C362 0.949 . S
C359 C360 1.349 . S
C359 C361 1.327 . S
C359 H382 0.950 . S
C360 C359 1.349 . S
C360 C372 1.349 . S
C361 C359 1.327 . S
C361 C377 1.429 . S
C361 H383 0.950 . S
C362 H358 0.949 . S
C362 C370 1.574 . S
C362 C378 1.368 . S
H363 C371 0.950 . S
H364 C369 0.950 . S
H365 C370 0.949 . S
H366 C372 0.950 . S
H367 C373 0.950 . S
H368 C374 0.949 . S
C369 H364 0.950 . S
C369 C371 1.327 . S
C369 C375 1.429 . S
C370 C362 1.574 . S
C370 H365 0.949 . S
C370 C376 1.368 . S
C371 C355 1.349 . S
C371 H363 0.950 . S
C371 C369 1.327 . S
C372 C360 1.349 . S
C372 H366 0.950 . S
C372 C373 1.327 . S
C373 H367 0.950 . S
C373 C372 1.327 . S
C373 C377 1.429 . S
C374 C357 1.574 . S
C374 H368 0.949 . S
C374 C378 1.368 . S
C375 C356 1.429 . S
C375 C369 1.429 . S
C375 C376 1.523 . S
C376 C357 1.368 . S
C376 C370 1.368 . S
C376 C375 1.523 . S
C377 C361 1.429 . S
C377 C373 1.429 . S
C377 C378 1.523 . S
C378 C362 1.368 . S
C378 C374 1.368 . S
C378 C377 1.523 . S
H379 C354 0.950 . S
H380 C356 0.950 . S
H381 C357 0.949 . S
H382 C359 0.950 . S
H383 C361 0.950 . S
C384 C385 1.349 . S
C384 C386 1.327 . S
C384 H409 0.950 . S
C385 C384 1.349 . S
C385 C401 1.349 . S
C386 C384 1.327 . S
C386 C405 1.429 . S
C386 H410 0.950 . S
C387 C404 1.574 1_565 S
C387 C406 1.368 . S
C387 H411 0.949 . S
H388 C392 0.949 . S
C389 C390 1.349 . S
C389 C391 1.327 . S
C389 H412 0.950 . S
C390 C389 1.349 . S
C390 C402 1.349 . S
C391 C389 1.327 . S
C391 C407 1.429 . S
C391 H413 0.950 . S
C392 H388 0.949 . S
C392 C400 1.574 1_545 S
C392 C408 1.368 . S
H393 C401 0.950 . S
H394 C399 0.950 . S
H395 C400 0.949 . S
H396 C402 0.950 . S
H397 C403 0.950 . S
H398 C404 0.949 . S
C399 H394 0.950 . S
C399 C401 1.327 . S
C399 C405 1.429 . S
C400 C392 1.574 1_565 S
C400 H395 0.949 . S
C400 C406 1.368 . S
C401 C385 1.349 . S
C401 H393 0.950 . S
C401 C399 1.327 . S
C402 C390 1.349 . S
C402 H396 0.950 . S
C402 C403 1.327 . S
C403 H397 0.950 . S
C403 C402 1.327 . S
C403 C407 1.429 . S
C404 C387 1.574 1_545 S
C404 H398 0.949 . S
C404 C408 1.368 . S
C405 C386 1.429 . S
C405 C399 1.429 . S
C405 C406 1.523 . S
C406 C387 1.368 . S
C406 C400 1.368 . S
C406 C405 1.523 . S
C407 C391 1.429 . S
C407 C403 1.429 . S
C407 C408 1.523 . S
C408 C392 1.368 . S
C408 C404 1.368 . S
C408 C407 1.523 . S
H409 C384 0.950 . S
H410 C386 0.950 . S
H411 C387 0.949 . S
H412 C389 0.950 . S
H413 C391 0.950 . S
C414 C415 1.349 . S
C414 C416 1.327 . S
C414 H439 0.950 . S
C415 C414 1.349 . S
C415 C431 1.349 . S
C416 C414 1.327 . S
C416 C435 1.429 . S
C416 H440 0.950 . S
C417 C434 1.574 . S
C417 C436 1.368 . S
C417 H441 0.949 . S
H418 C422 0.949 . S
C419 C420 1.349 . S
C419 C421 1.327 . S
C419 H442 0.950 . S
C420 C419 1.349 . S
C420 C432 1.349 . S
C421 C419 1.327 . S
C421 C437 1.429 . S
C421 H443 0.950 . S
C422 H418 0.949 . S
C422 C430 1.574 . S
C422 C438 1.368 . S
H423 C431 0.950 . S
H424 C429 0.950 . S
H425 C430 0.949 . S
H426 C432 0.950 . S
H427 C433 0.950 . S
H428 C434 0.949 . S
C429 H424 0.950 . S
C429 C431 1.327 . S
C429 C435 1.429 . S
C430 C422 1.574 . S
C430 H425 0.949 . S
C430 C436 1.368 . S
C431 C415 1.349 . S
C431 H423 0.950 . S
C431 C429 1.327 . S
C432 C420 1.349 . S
C432 H426 0.950 . S
C432 C433 1.327 . S
C433 H427 0.950 . S
C433 C432 1.327 . S
C433 C437 1.429 . S
C434 C417 1.574 . S
C434 H428 0.949 . S
C434 C438 1.368 . S
C435 C416 1.429 . S
C435 C429 1.429 . S
C435 C436 1.523 . S
C436 C417 1.368 . S
C436 C430 1.368 . S
C436 C435 1.523 . S
C437 C421 1.429 . S
C437 C433 1.429 . S
C437 C438 1.523 . S
C438 C422 1.368 . S
C438 C434 1.368 . S
C438 C437 1.523 . S
H439 C414 0.950 . S
H440 C416 0.950 . S
H441 C417 0.949 . S
H442 C419 0.950 . S
H443 C421 0.950 . S
C444 C445 1.349 . S
C444 C446 1.327 . S
C444 H469 0.950 . S
C445 C444 1.349 . S
C445 C461 1.349 . S
C446 C444 1.327 . S
C446 C465 1.429 . S
C446 H470 0.950 . S
C447 C464 1.574 1_565 S
C447 C466 1.368 . S
C447 H471 0.949 . S
H448 C452 0.949 . S
C449 C450 1.349 . S
C449 C451 1.327 . S
C449 H472 0.950 . S
C450 C449 1.349 . S
C450 C462 1.349 . S
C451 C449 1.327 . S
C451 C467 1.429 . S
C451 H473 0.950 . S
C452 H448 0.949 . S
C452 C460 1.574 1_545 S
C452 C468 1.368 . S
H453 C461 0.950 . S
H454 C459 0.950 . S
H455 C460 0.949 . S
H456 C462 0.950 . S
H457 C463 0.950 . S
H458 C464 0.949 . S
C459 H454 0.950 . S
C459 C461 1.327 . S
C459 C465 1.429 . S
C460 C452 1.574 1_565 S
C460 H455 0.949 . S
C460 C466 1.368 . S
C461 C445 1.349 . S
C461 H453 0.950 . S
C461 C459 1.327 . S
C462 C450 1.349 . S
C462 H456 0.950 . S
C462 C463 1.327 . S
C463 H457 0.950 . S
C463 C462 1.327 . S
C463 C467 1.429 . S
C464 C447 1.574 1_545 S
C464 H458 0.949 . S
C464 C468 1.368 . S
C465 C446 1.429 . S
C465 C459 1.429 . S
C465 C466 1.523 . S
C466 C447 1.368 . S
C466 C460 1.368 . S
C466 C465 1.523 . S
C467 C451 1.429 . S
C467 C463 1.429 . S
C467 C468 1.523 . S
C468 C452 1.368 . S
C468 C464 1.368 . S
C468 C467 1.523 . S
H469 C444 0.950 . S
H470 C446 0.950 . S
H471 C447 0.949 . S
H472 C449 0.950 . S
H473 C451 0.950 . S
C474 C475 1.349 . S
C474 C476 1.327 . S
C474 H499 0.950 . S
C475 C474 1.349 . S
C475 C491 1.349 . S
C476 C474 1.327 . S
C476 C495 1.429 . S
C476 H500 0.950 . S
C477 C494 1.574 . S
C477 C496 1.368 . S
C477 H501 0.949 . S
H478 C482 0.949 . S
C479 C480 1.349 . S
C479 C481 1.327 . S
C479 H502 0.950 . S
C480 C479 1.349 . S
C480 C492 1.349 . S
C481 C479 1.327 . S
C481 C497 1.429 . S
C481 H503 0.950 . S
C482 H478 0.949 . S
C482 C490 1.574 . S
C482 C498 1.368 . S
H483 C491 0.950 . S
H484 C489 0.950 . S
H485 C490 0.949 . S
H486 C492 0.950 . S
H487 C493 0.950 . S
H488 C494 0.949 . S
C489 H484 0.950 . S
C489 C491 1.327 . S
C489 C495 1.429 . S
C490 C482 1.574 . S
C490 H485 0.949 . S
C490 C496 1.368 . S
C491 C475 1.349 . S
C491 H483 0.950 . S
C491 C489 1.327 . S
C492 C480 1.349 . S
C492 H486 0.950 . S
C492 C493 1.327 . S
C493 H487 0.950 . S
C493 C492 1.327 . S
C493 C497 1.429 . S
C494 C477 1.574 . S
C494 H488 0.949 . S
C494 C498 1.368 . S
C495 C476 1.429 . S
C495 C489 1.429 . S
C495 C496 1.523 . S
C496 C477 1.368 . S
C496 C490 1.368 . S
C496 C495 1.523 . S
C497 C481 1.429 . S
C497 C493 1.429 . S
C497 C498 1.523 . S
C498 C482 1.368 . S
C498 C494 1.368 . S
C498 C497 1.523 . S
H499 C474 0.950 . S
H500 C476 0.950 . S
H501 C477 0.949 . S
H502 C479 0.950 . S
H503 C481 0.950 . S
C504 C505 1.349 . S
C504 C506 1.327 . S
C504 H529 0.950 . S
C505 C504 1.349 . S
C505 C521 1.349 . S
C506 C504 1.327 . S
C506 C525 1.429 . S
C506 H530 0.950 . S
C507 C524 1.574 . S
C507 C526 1.368 1_556 S
C507 H531 0.949 . S
H508 C512 0.949 . S
C509 C510 1.349 . S
C509 C511 1.327 . S
C509 H532 0.950 . S
C510 C509 1.349 . S
C510 C522 1.349 . S
C511 C509 1.327 . S
C511 C527 1.429 . S
C511 H533 0.950 . S
C512 H508 0.949 . S
C512 C520 1.574 . S
C512 C528 1.368 1_554 S
H513 C521 0.950 . S
H514 C519 0.950 1_556 S
H515 C520 0.949 . S
H516 C522 0.950 . S
H517 C523 0.950 1_554 S
H518 C524 0.949 . S
C519 H514 0.950 1_554 S
C519 C521 1.327 . S
C519 C525 1.429 . S
C520 C512 1.574 . S
C520 H515 0.949 . S
C520 C526 1.368 . S
C521 C505 1.349 . S
C521 H513 0.950 . S
C521 C519 1.327 . S
C522 C510 1.349 . S
C522 H516 0.950 . S
C522 C523 1.327 . S
C523 H517 0.950 1_556 S
C523 C522 1.327 . S
C523 C527 1.429 . S
C524 C507 1.574 . S
C524 H518 0.949 . S
C524 C528 1.368 . S
C525 C506 1.429 . S
C525 C519 1.429 . S
C525 C526 1.523 . S
C526 C507 1.368 1_554 S
C526 C520 1.368 . S
C526 C525 1.523 . S
C527 C511 1.429 . S
C527 C523 1.429 . S
C527 C528 1.523 . S
C528 C512 1.368 1_556 S
C528 C524 1.368 . S
C528 C527 1.523 . S
H529 C504 0.950 . S
H530 C506 0.950 . S
H531 C507 0.949 . S
H532 C509 0.950 . S
H533 C511 0.950 . S
C534 C535 1.349 . S
C534 C536 1.327 . S
C534 H559 0.950 . S
C535 C534 1.349 . S
C535 C551 1.349 . S
C536 C534 1.327 . S
C536 C555 1.429 . S
C536 H560 0.950 . S
C537 C554 1.574 . S
C537 C556 1.368 1_554 S
C537 H561 0.949 . S
H538 C542 0.949 . S
C539 C540 1.349 . S
C539 C541 1.327 . S
C539 H562 0.950 . S
C540 C539 1.349 . S
C540 C552 1.349 . S
C541 C539 1.327 . S
C541 C557 1.429 . S
C541 H563 0.950 . S
C542 H538 0.949 . S
C542 C550 1.574 . S
C542 C558 1.368 1_556 S
H543 C551 0.950 . S
H544 C549 0.950 . S
H545 C550 0.949 . S
H546 C552 0.950 . S
H547 C553 0.950 . S
H548 C554 0.949 . S
C549 H544 0.950 . S
C549 C551 1.327 . S
C549 C555 1.429 . S
C550 C542 1.574 . S
C550 H545 0.949 . S
C550 C556 1.368 . S
C551 C535 1.349 . S
C551 H543 0.950 . S
C551 C549 1.327 . S
C552 C540 1.349 . S
C552 H546 0.950 . S
C552 C553 1.327 . S
C553 H547 0.950 . S
C553 C552 1.327 . S
C553 C557 1.429 . S
C554 C537 1.574 . S
C554 H548 0.949 . S
C554 C558 1.368 . S
C555 C536 1.429 . S
C555 C549 1.429 . S
C555 C556 1.523 . S
C556 C537 1.368 1_556 S
C556 C550 1.368 . S
C556 C555 1.523 . S
C557 C541 1.429 . S
C557 C553 1.429 . S
C557 C558 1.523 . S
C558 C542 1.368 1_554 S
C558 C554 1.368 . S
C558 C557 1.523 . S
H559 C534 0.950 . S
H560 C536 0.950 . S
H561 C537 0.949 . S
H562 C539 0.950 . S
H563 C541 0.950 . S
C564 C565 1.349 . S
C564 C566 1.327 . S
C564 H589 0.950 . S
C565 C564 1.349 . S
C565 C581 1.349 . S
C566 C564 1.327 . S
C566 C585 1.429 . S
C566 H590 0.950 . S
C567 C584 1.574 . S
C567 C586 1.368 . S
C567 H591 0.949 . S
H568 C572 0.949 . S
C569 C570 1.349 . S
C569 C571 1.327 . S
C569 H592 0.950 . S
C570 C569 1.349 . S
C570 C582 1.349 . S
C571 C569 1.327 . S
C571 C587 1.429 . S
C571 H593 0.950 . S
C572 H568 0.949 . S
C572 C580 1.574 . S
C572 C588 1.368 . S
H573 C581 0.950 . S
H574 C579 0.950 . S
H575 C580 0.949 . S
H576 C582 0.950 . S
H577 C583 0.950 . S
H578 C584 0.949 . S
C579 H574 0.950 . S
C579 C581 1.327 . S
C579 C585 1.429 . S
C580 C572 1.574 . S
C580 H575 0.949 . S
C580 C586 1.368 . S
C581 C565 1.349 . S
C581 H573 0.950 . S
C581 C579 1.327 . S
C582 C570 1.349 . S
C582 H576 0.950 . S
C582 C583 1.327 . S
C583 H577 0.950 . S
C583 C582 1.327 . S
C583 C587 1.429 . S
C584 C567 1.574 . S
C584 H578 0.949 . S
C584 C588 1.368 . S
C585 C566 1.429 . S
C585 C579 1.429 . S
C585 C586 1.523 . S
C586 C567 1.368 . S
C586 C580 1.368 . S
C586 C585 1.523 . S
C587 C571 1.429 . S
C587 C583 1.429 . S
C587 C588 1.523 . S
C588 C572 1.368 . S
C588 C584 1.368 . S
C588 C587 1.523 . S
H589 C564 0.950 . S
H590 C566 0.950 . S
H591 C567 0.949 . S
H592 C569 0.950 . S
H593 C571 0.950 . S
C594 C595 1.349 . S
C594 C596 1.327 . S
C594 H619 0.950 . S
C595 C594 1.349 . S
C595 C611 1.349 . S
C596 C594 1.327 . S
C596 C615 1.429 . S
C596 H620 0.950 . S
C597 C614 1.574 . S
C597 C616 1.368 . S
C597 H621 0.949 . S
H598 C602 0.949 . S
C599 C600 1.349 . S
C599 C601 1.327 . S
C599 H622 0.950 . S
C600 C599 1.349 . S
C600 C612 1.349 . S
C601 C599 1.327 . S
C601 C617 1.429 . S
C601 H623 0.950 . S
C602 H598 0.949 . S
C602 C610 1.574 . S
C602 C618 1.368 . S
H603 C611 0.950 . S
H604 C609 0.950 . S
H605 C610 0.949 . S
H606 C612 0.950 . S
H607 C613 0.950 . S
H608 C614 0.949 . S
C609 H604 0.950 . S
C609 C611 1.327 . S
C609 C615 1.429 . S
C610 C602 1.574 . S
C610 H605 0.949 . S
C610 C616 1.368 . S
C611 C595 1.349 . S
C611 H603 0.950 . S
C611 C609 1.327 . S
C612 C600 1.349 . S
C612 H606 0.950 . S
C612 C613 1.327 . S
C613 H607 0.950 . S
C613 C612 1.327 . S
C613 C617 1.429 . S
C614 C597 1.574 . S
C614 H608 0.949 . S
C614 C618 1.368 . S
C615 C596 1.429 . S
C615 C609 1.429 . S
C615 C616 1.523 . S
C616 C597 1.368 . S
C616 C610 1.368 . S
C616 C615 1.523 . S
C617 C601 1.429 . S
C617 C613 1.429 . S
C617 C618 1.523 . S
C618 C602 1.368 . S
C618 C614 1.368 . S
C618 C617 1.523 . S
H619 C594 0.950 . S
H620 C596 0.950 . S
H621 C597 0.949 . S
H622 C599 0.950 . S
H623 C601 0.950 . S
C624 C625 1.349 . S
C624 C626 1.327 . S
C624 H649 0.950 . S
C625 C624 1.349 . S
C625 C641 1.349 . S
C626 C624 1.327 . S
C626 C645 1.429 . S
C626 H650 0.950 1_554 S
C627 C644 1.574 . S
C627 C646 1.368 . S
C627 H651 0.949 . S
H628 C632 0.949 . S
C629 C630 1.349 . S
C629 C631 1.327 . S
C629 H652 0.950 . S
C630 C629 1.349 . S
C630 C642 1.349 . S
C631 C629 1.327 . S
C631 C647 1.429 . S
C631 H653 0.950 1_556 S
C632 H628 0.949 . S
C632 C640 1.574 . S
C632 C648 1.368 . S
H633 C641 0.950 . S
H634 C639 0.950 . S
H635 C640 0.949 . S
H636 C642 0.950 . S
H637 C643 0.950 . S
H638 C644 0.949 . S
C639 H634 0.950 . S
C639 C641 1.327 . S
C639 C645 1.429 . S
C640 C632 1.574 . S
C640 H635 0.949 . S
C640 C646 1.368 1_556 S
C641 C625 1.349 . S
C641 H633 0.950 . S
C641 C639 1.327 . S
C642 C630 1.349 . S
C642 H636 0.950 . S
C642 C643 1.327 . S
C643 H637 0.950 . S
C643 C642 1.327 . S
C643 C647 1.429 . S
C644 C627 1.574 . S
C644 H638 0.949 . S
C644 C648 1.368 1_554 S
C645 C626 1.429 . S
C645 C639 1.429 . S
C645 C646 1.523 . S
C646 C627 1.368 . S
C646 C640 1.368 1_554 S
C646 C645 1.523 . S
C647 C631 1.429 . S
C647 C643 1.429 . S
C647 C648 1.523 . S
C648 C632 1.368 . S
C648 C644 1.368 1_556 S
C648 C647 1.523 . S
H649 C624 0.950 . S
H650 C626 0.950 1_556 S
H651 C627 0.949 . S
H652 C629 0.950 . S
H653 C631 0.950 1_554 S
C654 C655 1.349 . S
C654 C656 1.327 . S
C654 H679 0.950 . S
C655 C654 1.349 . S
C655 C671 1.349 . S
C656 C654 1.327 . S
C656 C675 1.429 . S
C656 H680 0.950 . S
C657 C674 1.574 . S
C657 C676 1.368 . S
C657 H681 0.949 . S
H658 C662 0.949 . S
C659 C660 1.349 . S
C659 C661 1.327 . S
C659 H682 0.950 . S
C660 C659 1.349 . S
C660 C672 1.349 . S
C661 C659 1.327 . S
C661 C677 1.429 . S
C661 H683 0.950 . S
C662 H658 0.949 . S
C662 C670 1.574 . S
C662 C678 1.368 . S
H663 C671 0.950 . S
H664 C669 0.950 . S
H665 C670 0.949 . S
H666 C672 0.950 . S
H667 C673 0.950 . S
H668 C674 0.949 . S
C669 H664 0.950 . S
C669 C671 1.327 . S
C669 C675 1.429 . S
C670 C662 1.574 . S
C670 H665 0.949 . S
C670 C676 1.368 1_554 S
C671 C655 1.349 . S
C671 H663 0.950 . S
C671 C669 1.327 . S
C672 C660 1.349 . S
C672 H666 0.950 . S
C672 C673 1.327 . S
C673 H667 0.950 . S
C673 C672 1.327 . S
C673 C677 1.429 . S
C674 C657 1.574 . S
C674 H668 0.949 . S
C674 C678 1.368 1_556 S
C675 C656 1.429 . S
C675 C669 1.429 . S
C675 C676 1.523 . S
C676 C657 1.368 . S
C676 C670 1.368 1_556 S
C676 C675 1.523 . S
C677 C661 1.429 . S
C677 C673 1.429 . S
C677 C678 1.523 . S
C678 C662 1.368 . S
C678 C674 1.368 1_554 S
C678 C677 1.523 . S
H679 C654 0.950 . S
H680 C656 0.950 . S
H681 C657 0.949 . S
H682 C659 0.950 . S
H683 C661 0.950 . S
C684 C685 1.349 . S
C684 C686 1.327 . S
C684 H709 0.950 . S
C685 C684 1.349 . S
C685 C701 1.349 . S
C686 C684 1.327 . S
C686 C705 1.429 . S
C686 H710 0.950 . S
C687 C704 1.574 . S
C687 C706 1.368 . S
C687 H711 0.949 . S
H688 C692 0.949 . S
C689 C690 1.349 . S
C689 C691 1.327 . S
C689 H712 0.950 . S
C690 C689 1.349 . S
C690 C702 1.349 . S
C691 C689 1.327 . S
C691 C707 1.429 . S
C691 H713 0.950 . S
C692 H688 0.949 . S
C692 C700 1.574 . S
C692 C708 1.368 . S
H693 C701 0.950 . S
H694 C699 0.950 . S
H695 C700 0.949 . S
H696 C702 0.950 . S
H697 C703 0.950 . S
H698 C704 0.949 . S
C699 H694 0.950 . S
C699 C701 1.327 . S
C699 C705 1.429 . S
C700 C692 1.574 . S
C700 H695 0.949 . S
C700 C706 1.368 . S
C701 C685 1.349 . S
C701 H693 0.950 . S
C701 C699 1.327 . S
C702 C690 1.349 . S
C702 H696 0.950 . S
C702 C703 1.327 . S
C703 H697 0.950 . S
C703 C702 1.327 . S
C703 C707 1.429 . S
C704 C687 1.574 . S
C704 H698 0.949 . S
C704 C708 1.368 . S
C705 C686 1.429 . S
C705 C699 1.429 . S
C705 C706 1.523 . S
C706 C687 1.368 . S
C706 C700 1.368 . S
C706 C705 1.523 . S
C707 C691 1.429 . S
C707 C703 1.429 . S
C707 C708 1.523 . S
C708 C692 1.368 . S
C708 C704 1.368 . S
C708 C707 1.523 . S
H709 C684 0.950 . S
H710 C686 0.950 . S
H711 C687 0.949 . S
H712 C689 0.950 . S
H713 C691 0.950 . S
C714 C715 1.349 . S
C714 C716 1.327 . S
C714 H739 0.950 . S
C715 C714 1.349 . S
C715 C731 1.349 . S
C716 C714 1.327 . S
C716 C735 1.429 . S
C716 H740 0.950 . S
C717 C734 1.574 . S
C717 C736 1.368 . S
C717 H741 0.949 . S
H718 C722 0.949 . S
C719 C720 1.349 . S
C719 C721 1.327 . S
C719 H742 0.950 . S
C720 C719 1.349 . S
C720 C732 1.349 . S
C721 C719 1.327 . S
C721 C737 1.429 . S
C721 H743 0.950 . S
C722 H718 0.949 . S
C722 C730 1.574 . S
C722 C738 1.368 . S
H723 C731 0.950 . S
H724 C729 0.950 . S
H725 C730 0.949 . S
H726 C732 0.950 . S
H727 C733 0.950 . S
H728 C734 0.949 . S
C729 H724 0.950 . S
C729 C731 1.327 . S
C729 C735 1.429 . S
C730 C722 1.574 . S
C730 H725 0.949 . S
C730 C736 1.368 . S
C731 C715 1.349 . S
C731 H723 0.950 . S
C731 C729 1.327 . S
C732 C720 1.349 . S
C732 H726 0.950 . S
C732 C733 1.327 . S
C733 H727 0.950 . S
C733 C732 1.327 . S
C733 C737 1.429 . S
C734 C717 1.574 . S
C734 H728 0.949 . S
C734 C738 1.368 . S
C735 C716 1.429 . S
C735 C729 1.429 . S
C735 C736 1.523 . S
C736 C717 1.368 . S
C736 C730 1.368 . S
C736 C735 1.523 . S
C737 C721 1.429 . S
C737 C733 1.429 . S
C737 C738 1.523 . S
C738 C722 1.368 . S
C738 C734 1.368 . S
C738 C737 1.523 . S
H739 C714 0.950 . S
H740 C716 0.950 . S
H741 C717 0.949 . S
H742 C719 0.950 . S
H743 C721 0.950 . S
C744 C745 1.349 . S
C744 C746 1.327 . S
C744 H769 0.950 . S
C745 C744 1.349 . S
C745 C761 1.349 . S
C746 C744 1.327 . S
C746 C765 1.429 . S
C746 H770 0.950 . S
C747 C764 1.574 . S
C747 C766 1.368 . S
C747 H771 0.949 . S
H748 C752 0.949 . S
C749 C750 1.349 . S
C749 C751 1.327 . S
C749 H772 0.950 . S
C750 C749 1.349 . S
C750 C762 1.349 . S
C751 C749 1.327 . S
C751 C767 1.429 . S
C751 H773 0.950 . S
C752 H748 0.949 . S
C752 C760 1.574 . S
C752 C768 1.368 . S
H753 C761 0.950 . S
H754 C759 0.950 . S
H755 C760 0.949 . S
H756 C762 0.950 . S
H757 C763 0.950 . S
H758 C764 0.949 . S
C759 H754 0.950 . S
C759 C761 1.327 . S
C759 C765 1.429 . S
C760 C752 1.574 . S
C760 H755 0.949 . S
C760 C766 1.368 . S
C761 C745 1.349 . S
C761 H753 0.950 . S
C761 C759 1.327 . S
C762 C750 1.349 . S
C762 H756 0.950 . S
C762 C763 1.327 . S
C763 H757 0.950 . S
C763 C762 1.327 . S
C763 C767 1.429 . S
C764 C747 1.574 . S
C764 H758 0.949 . S
C764 C768 1.368 . S
C765 C746 1.429 . S
C765 C759 1.429 . S
C765 C766 1.523 . S
C766 C747 1.368 . S
C766 C760 1.368 . S
C766 C765 1.523 . S
C767 C751 1.429 . S
C767 C763 1.429 . S
C767 C768 1.523 . S
C768 C752 1.368 . S
C768 C764 1.368 . S
C768 C767 1.523 . S
H769 C744 0.950 . S
H770 C746 0.950 . S
H771 C747 0.949 . S
H772 C749 0.950 . S
H773 C751 0.950 . S
C774 C775 1.349 . S
C774 C776 1.327 . S
C774 H799 0.950 . S
C775 C774 1.349 . S
C775 C791 1.349 . S
C776 C774 1.327 . S
C776 C795 1.429 . S
C776 H800 0.950 . S
C777 C794 1.574 . S
C777 C796 1.368 . S
C777 H801 0.949 . S
H778 C782 0.949 . S
C779 C780 1.349 . S
C779 C781 1.327 . S
C779 H802 0.950 . S
C780 C779 1.349 . S
C780 C792 1.349 . S
C781 C779 1.327 . S
C781 C797 1.429 . S
C781 H803 0.950 . S
C782 H778 0.949 . S
C782 C790 1.574 . S
C782 C798 1.368 . S
H783 C791 0.950 . S
H784 C789 0.950 . S
H785 C790 0.949 . S
H786 C792 0.950 . S
H787 C793 0.950 . S
H788 C794 0.949 . S
C789 H784 0.950 . S
C789 C791 1.327 . S
C789 C795 1.429 . S
C790 C782 1.574 . S
C790 H785 0.949 . S
C790 C796 1.368 . S
C791 C775 1.349 . S
C791 H783 0.950 . S
C791 C789 1.327 . S
C792 C780 1.349 . S
C792 H786 0.950 . S
C792 C793 1.327 . S
C793 H787 0.950 . S
C793 C792 1.327 . S
C793 C797 1.429 . S
C794 C777 1.574 . S
C794 H788 0.949 . S
C794 C798 1.368 . S
C795 C776 1.429 . S
C795 C789 1.429 . S
C795 C796 1.523 . S
C796 C777 1.368 . S
C796 C790 1.368 . S
C796 C795 1.523 . S
C797 C781 1.429 . S
C797 C793 1.429 . S
C797 C798 1.523 . S
C798 C782 1.368 . S
C798 C794 1.368 . S
C798 C797 1.523 . S
H799 C774 0.950 . S
H800 C776 0.950 . S
H801 C777 0.949 . S
H802 C779 0.950 . S
H803 C781 0.950 . S
C804 C805 1.349 . S
C804 C806 1.327 . S
C804 H829 0.950 . S
C805 C804 1.349 . S
C805 C821 1.349 . S
C806 C804 1.327 . S
C806 C825 1.429 . S
C806 H830 0.950 . S
C807 C824 1.574 . S
C807 C826 1.368 . S
C807 H831 0.949 . S
H808 C812 0.949 . S
C809 C810 1.349 . S
C809 C811 1.327 . S
C809 H832 0.950 . S
C810 C809 1.349 . S
C810 C822 1.349 . S
C811 C809 1.327 . S
C811 C827 1.429 . S
C811 H833 0.950 . S
C812 H808 0.949 . S
C812 C820 1.574 . S
C812 C828 1.368 . S
H813 C821 0.950 . S
H814 C819 0.950 . S
H815 C820 0.949 . S
H816 C822 0.950 . S
H817 C823 0.950 . S
H818 C824 0.949 . S
C819 H814 0.950 . S
C819 C821 1.327 . S
C819 C825 1.429 . S
C820 C812 1.574 . S
C820 H815 0.949 . S
C820 C826 1.368 . S
C821 C805 1.349 . S
C821 H813 0.950 . S
C821 C819 1.327 . S
C822 C810 1.349 . S
C822 H816 0.950 . S
C822 C823 1.327 . S
C823 H817 0.950 . S
C823 C822 1.327 . S
C823 C827 1.429 . S
C824 C807 1.574 . S
C824 H818 0.949 . S
C824 C828 1.368 . S
C825 C806 1.429 . S
C825 C819 1.429 . S
C825 C826 1.523 . S
C826 C807 1.368 . S
C826 C820 1.368 . S
C826 C825 1.523 . S
C827 C811 1.429 . S
C827 C823 1.429 . S
C827 C828 1.523 . S
C828 C812 1.368 . S
C828 C824 1.368 . S
C828 C827 1.523 . S
H829 C804 0.950 . S
H830 C806 0.950 . S
H831 C807 0.949 . S
H832 C809 0.950 . S
H833 C811 0.950 . S
C834 C835 1.349 . S
C834 C836 1.327 . S
C834 H859 0.950 . S
C835 C834 1.349 . S
C835 C851 1.349 . S
C836 C834 1.327 . S
C836 C855 1.429 . S
C836 H860 0.950 . S
C837 C854 1.574 . S
C837 C856 1.368 . S
C837 H861 0.949 . S
H838 C842 0.949 . S
C839 C840 1.349 . S
C839 C841 1.327 . S
C839 H862 0.950 . S
C840 C839 1.349 . S
C840 C852 1.349 . S
C841 C839 1.327 . S
C841 C857 1.429 . S
C841 H863 0.950 . S
C842 H838 0.949 . S
C842 C850 1.574 . S
C842 C858 1.368 . S
H843 C851 0.950 . S
H844 C849 0.950 . S
H845 C850 0.949 . S
H846 C852 0.950 . S
H847 C853 0.950 . S
H848 C854 0.949 . S
C849 H844 0.950 . S
C849 C851 1.327 . S
C849 C855 1.429 . S
C850 C842 1.574 . S
C850 H845 0.949 . S
C850 C856 1.368 . S
C851 C835 1.349 . S
C851 H843 0.950 . S
C851 C849 1.327 . S
C852 C840 1.349 . S
C852 H846 0.950 . S
C852 C853 1.327 . S
C853 H847 0.950 . S
C853 C852 1.327 . S
C853 C857 1.429 . S
C854 C837 1.574 . S
C854 H848 0.949 . S
C854 C858 1.368 . S
C855 C836 1.429 . S
C855 C849 1.429 . S
C855 C856 1.523 . S
C856 C837 1.368 . S
C856 C850 1.368 . S
C856 C855 1.523 . S
C857 C841 1.429 . S
C857 C853 1.429 . S
C857 C858 1.523 . S
C858 C842 1.368 . S
C858 C854 1.368 . S
C858 C857 1.523 . S
H859 C834 0.950 . S
H860 C836 0.950 . S
H861 C837 0.949 . S
H862 C839 0.950 . S
H863 C841 0.950 . S
C265 C18 0.772 . S
C270 C150 0.772 . S
C295 C183 0.772 . S
C300 C51 0.772 . S
C325 C216 0.772 . S
C330 C84 0.772 . S
C355 C117 0.772 . S
C360 C249 0.772 . S
C385 N35 0.604 . S
C390 N2 0.604 . S
C415 N68 0.604 . S
C420 N101 0.604 . S
C445 N134 0.604 . S
C450 N167 0.604 . S
C475 N233 0.604 . S
C480 N200 0.604 . S
C505 C7 1.691 . S
C510 N178 1.773 . S
C535 N145 1.773 . S
C540 C40 1.691 . S
C565 N244 1.773 . S
C570 C73 1.691 . S
C595 N211 1.773 . S
C600 C106 1.691 . S
C625 N46 1.773 . S
C630 C139 1.691 . S
C655 C172 1.691 . S
C660 N13 1.773 . S
C685 C205 1.691 . S
C690 N112 1.773 . S
C715 N79 1.773 . S
C720 C238 1.691 . S
C745 C87 1.416 . S
C750 C21 1.416 . S
C775 C54 1.416 . S
C780 C120 1.416 . S
C805 C219 1.416 . S
C810 C153 1.416 . S
C835 C252 1.416 . S
C840 C186 1.416 . S
