# Generated by pormake.
# Topology qtz-e, (6)-cn, num edge types: 1
# Building blocks:
#     Node 0, Type 0, BuildingBlock: BETDAH_clean_sbu_0, # of connection points: 6
#     Node 1, Type 0, BuildingBlock: BETDAH_clean_sbu_0, # of connection points: 6
#     Node 2, Type 0, BuildingBlock: BETDAH_clean_sbu_0, # of connection points: 6
#     Node 3, Type 0, BuildingBlock: BETDAH_clean_sbu_0, # of connection points: 6
#     Node 4, Type 0, BuildingBlock: BETDAH_clean_sbu_0, # of connection points: 6
#     Node 5, Type 0, BuildingBlock: BETDAH_clean_sbu_0, # of connection points: 6
#     Edge 6, Type (0, 0), BuildingBlock: ZUJKAS_clean_linker_0, # of connection points: 2
#     Edge 7, Type (0, 0), BuildingBlock: ZUJKAS_clean_linker_0, # of connection points: 2
#     Edge 8, Type (0, 0), BuildingBlock: ZUJKAS_clean_linker_0, # of connection points: 2
#     Edge 9, Type (0, 0), BuildingBlock: ZUJKAS_clean_linker_0, # of connection points: 2
#     Edge 10, Type (0, 0), BuildingBlock: ZUJKAS_clean_linker_0, # of connection points: 2
#     Edge 11, Type (0, 0), BuildingBlock: ZUJKAS_clean_linker_0, # of connection points: 2
#     Edge 12, Type (0, 0), BuildingBlock: ZUJKAS_clean_linker_0, # of connection points: 2
#     Edge 13, Type (0, 0), BuildingBlock: ZUJKAS_clean_linker_0, # of connection points: 2
#     Edge 14, Type (0, 0), BuildingBlock: ZUJKAS_clean_linker_0, # of connection points: 2
#     Edge 15, Type (0, 0), BuildingBlock: ZUJKAS_clean_linker_0, # of connection points: 2
#     Edge 16, Type (0, 0), BuildingBlock: ZUJKAS_clean_linker_0, # of connection points: 2
#     Edge 17, Type (0, 0), BuildingBlock: ZUJKAS_clean_linker_0, # of connection points: 2
#     Edge 18, Type (0, 0), BuildingBlock: ZUJKAS_clean_linker_0, # of connection points: 2
#     Edge 19, Type (0, 0), BuildingBlock: ZUJKAS_clean_linker_0, # of connection points: 2
#     Edge 20, Type (0, 0), BuildingBlock: ZUJKAS_clean_linker_0, # of connection points: 2
#     Edge 21, Type (0, 0), BuildingBlock: ZUJKAS_clean_linker_0, # of connection points: 2
#     Edge 22, Type (0, 0), BuildingBlock: ZUJKAS_clean_linker_0, # of connection points: 2
#     Edge 23, Type (0, 0), BuildingBlock: ZUJKAS_clean_linker_0, # of connection points: 2
# Relax obj value: 0.107
# Max RMSD: 0.177
# Mean RMSD: 0.177
data_MOF--net-qtz-e--node1-BETDAH_clean_sbu_0--edge1-ZUJKAS_clean_linker_0
_symmetry_space_group_name_H-M    P1
_symmetry_Int_Tables_number       1
_symmetry_cell_setting            triclinic
loop_
_symmetry_equiv_pos_as_xyz
'x, y, z'
_cell_length_a     32.788839
_cell_length_b     32.953239
_cell_length_c     62.810095
_cell_angle_alpha  90.137217
_cell_angle_beta   90.100472
_cell_angle_gamma 119.99589
loop_
_atom_site_label
_atom_site_type_symbol
_atom_site_fract_x
_atom_site_fract_y
_atom_site_fract_z
_atom_type_partial_charge
Ho0 Ho 0.16537 0.44418 0.05231 0.0
Ho1 Ho 0.17252 0.35674 0.04126 0.0
C2 C 0.16135 0.37258 0.08998 0.0
C3 C 0.14214 0.50192 0.06853 0.0
C4 C 0.1403 0.51749 0.0904 0.0
C5 C 0.12054 0.48536 0.10721 0.0
C6 C 0.11975 0.50099 0.12786 0.0
C7 C 0.13941 0.54911 0.13217 0.0
C8 C 0.15952 0.58116 0.11535 0.0
C9 C 0.15984 0.56547 0.09467 0.0
C10 C 0.25316 0.45985 0.04784 0.0
C11 C 0.17923 0.42973 1.00415 0.0
C12 C 0.19415 0.29782 0.02475 0.0
C13 C 0.20861 0.28976 1.00359 0.0
C14 C 0.23893 0.27137 1.00219 0.0
C15 C 0.252 0.26219 0.98232 0.0
C16 C 0.23495 0.27113 0.96333 0.0
C17 C 0.20495 0.29017 0.96483 0.0
C18 C 0.19198 0.29941 0.98473 0.0
C19 C 0.08517 0.34442 0.04549 0.0
O20 O 0.15368 0.40665 0.08377 0.0
O21 O 0.17455 0.35026 0.07659 0.0
O22 O 0.18425 0.5149 0.06133 0.0
O23 O 0.11146 0.45851 0.06353 0.0
O24 O 0.24012 0.48966 0.04258 0.0
O25 O 0.21992 0.42433 0.05667 0.0
O26 O 0.19147 0.39916 1.01086 0.0
O27 O 0.15982 0.44703 0.01704 0.0
O28 O 0.15099 0.2899 0.0263 0.0
O29 O 0.22452 0.33584 0.03489 0.0
O30 O 0.09709 0.31494 0.05272 0.0
O31 O 0.11972 0.37767 0.0364 0.0
H32 H 0.10542 0.44814 0.10439 0.0
H33 H 0.10455 0.47547 0.14051 0.0
H34 H 0.17458 0.6184 0.11813 0.0
H35 H 0.17539 0.59086 0.08198 0.0
H36 H 0.25239 0.26389 1.01652 0.0
H37 H 0.27583 0.24841 0.98187 0.0
H38 H 0.19069 0.29713 0.95065 0.0
H39 H 0.16853 0.31366 0.98537 0.0
Ho40 Ho 0.75447 0.2124 0.38664 0.0
Ho41 Ho 0.82604 0.18344 0.374 0.0
C42 C 0.78059 0.15065 0.4195 0.0
C43 C 0.68145 0.21447 0.40077 0.0
C44 C 0.6635 0.21546 0.42212 0.0
C45 C 0.61622 0.20297 0.42472 0.0
C46 C 0.59894 0.20442 0.4449 0.0
C47 C 0.62878 0.21862 0.46284 0.0
C48 C 0.67613 0.23068 0.46016 0.0
C49 C 0.69328 0.2289 0.43999 0.0
C50 C 0.84458 0.27605 0.39531 0.0
C51 C 0.79943 0.2437 0.34106 0.0
C52 C 0.89878 0.18181 0.35922 0.0
C53 C 0.92569 0.19779 0.33917 0.0
C54 C 0.93717 0.24123 0.33019 0.0
C55 C 0.95991 0.25457 0.31052 0.0
C56 C 0.97188 0.22488 0.29942 0.0
C57 C 0.96117 0.1818 0.30865 0.0
C58 C 0.93819 0.16838 0.32832 0.0
C59 C 0.73501 0.12178 0.36526 0.0
O60 O 0.75091 0.16502 0.41373 0.0
O61 O 0.81701 0.1585 0.40759 0.0
O62 O 0.7207 0.25193 0.39535 0.0
O63 O 0.68083 0.1757 0.39557 0.0
O64 O 0.8131 0.2863 0.38921 0.0
O65 O 0.82609 0.23253 0.39793 0.0
O66 O 0.83201 0.23427 0.34805 0.0
O67 O 0.7606 0.23112 0.35209 0.0
O68 O 0.85581 0.14656 0.35744 0.0
O69 O 0.90166 0.21441 0.37214 0.0
O70 O 0.76429 0.10893 0.372 0.0
O71 O 0.75592 0.16524 0.363 0.0
H72 H 0.59271 0.19237 0.4111 0.0
H73 H 0.56242 0.19527 0.4464 0.0
H74 H 0.69983 0.2411 0.47369 0.0
H75 H 0.72983 0.23821 0.43833 0.0
H76 H 0.92813 0.26474 0.33826 0.0
H77 H 0.96821 0.28825 0.30401 0.0
H78 H 0.96948 0.15791 0.30045 0.0
H79 H 0.92951 0.13465 0.3349 0.0
Ho80 Ho 0.51118 0.74458 0.72269 0.0
Ho81 Ho 0.61156 0.7957 0.70354 0.0
C82 C 0.60164 0.75451 0.75028 0.0
C83 C 0.43196 0.68324 0.73927 0.0
C84 C 0.41223 0.66593 0.76059 0.0
C85 C 0.43569 0.65311 0.77551 0.0
C86 C 0.41562 0.63567 0.79542 0.0
C87 C 0.37168 0.63067 0.80077 0.0
C88 C 0.34853 0.64392 0.78583 0.0
C89 C 0.36862 0.66132 0.76594 0.0
C90 C 0.55876 0.83701 0.72917 0.0
C91 C 0.52272 0.78876 0.67679 0.0
C92 C 0.68771 0.853 0.68354 0.0
C93 C 0.69708 0.87877 0.66321 0.0
C94 C 0.67323 0.90281 0.65775 0.0
C95 C 0.68072 0.92496 0.638 0.0
C96 C 0.71215 0.92349 0.62321 0.0
C97 C 0.73619 0.89963 0.62878 0.0
C98 C 0.72875 0.87757 0.64857 0.0
C99 C 0.559 0.70256 0.69688 0.0
O100 O 0.55527 0.73326 0.74738 0.0
O101 O 0.63171 0.78458 0.73626 0.0
O102 O 0.44219 0.72605 0.73476 0.0
O103 O 0.46378 0.67344 0.73245 0.0
O104 O 0.51329 0.81244 0.72793 0.0
O105 O 0.57663 0.81097 0.72959 0.0
O106 O 0.56836 0.8137 0.68118 0.0
O107 O 0.49363 0.7537 0.68915 0.0
O108 O 0.66775 0.80745 0.68187 0.0
O109 O 0.66998 0.86597 0.69904 0.0
O110 O 0.60388 0.72336 0.70087 0.0
O111 O 0.54581 0.73211 0.69623 0.0
H112 H 0.46935 0.65625 0.77178 0.0
H113 H 0.43463 0.62632 0.80665 0.0
H114 H 0.31439 0.63994 0.78933 0.0
H115 H 0.34983 0.67079 0.75461 0.0
H116 H 0.64826 0.90402 0.66861 0.0
H117 H 0.66113 0.94244 0.63413 0.0
H118 H 0.76104 0.89826 0.61788 0.0
H119 H 0.74747 0.85918 0.65239 0.0
Ho120 Ho 0.79062 0.51608 0.04882 0.0
Ho121 Ho 0.80884 0.61592 0.03808 0.0
C122 C 0.81974 0.59725 0.08641 0.0
C123 C 0.79665 0.44637 0.06416 0.0
C124 C 0.80669 0.43402 0.08533 0.0
C125 C 0.83337 0.46875 0.10046 0.0
C126 C 0.83981 0.45648 0.12099 0.0
C127 C 0.81951 0.40908 0.12685 0.0
C128 C 0.79381 0.3744 0.11141 0.0
C129 C 0.78749 0.3868 0.09088 0.0
C130 C 0.71376 0.52385 0.04512 0.0
C131 C 0.77703 0.53468 1.00089 0.0
C132 C 0.80267 0.68369 0.02073 0.0
C133 C 0.78515 0.6887 0.9997 0.0
C134 C 0.74666 0.65043 0.98972 0.0
C135 C 0.73257 0.65476 0.96917 0.0
C136 C 0.75652 0.69754 0.95812 0.0
C137 C 0.79458 0.73595 0.96836 0.0
C138 C 0.80876 0.73151 0.98887 0.0
C139 C 0.88467 0.60469 0.0407 0.0
O140 O 0.81549 0.55686 0.07992 0.0
O141 O 0.81383 0.62546 0.07338 0.0
O142 O 0.75703 0.44661 0.06254 0.0
O143 O 0.83149 0.48217 0.05463 0.0
O144 O 0.71518 0.48648 0.03984 0.0
O145 O 0.75195 0.55394 0.05367 0.0
O146 O 0.77882 0.57345 1.00796 0.0
O147 O 0.78641 0.50796 1.01333 0.0
O148 O 0.84111 0.68091 0.02035 0.0
O149 O 0.77122 0.65377 0.03398 0.0
O150 O 0.88462 0.64182 0.04772 0.0
O151 O 0.84546 0.57719 0.03242 0.0
H152 H 0.84865 0.50538 0.09651 0.0
H153 H 0.86043 0.48417 0.1323 0.0
H154 H 0.77722 0.33757 0.11537 0.0
H155 H 0.76671 0.35944 0.07944 0.0
H156 H 0.72795 0.61683 0.99763 0.0
H157 H 0.7036 0.6242 0.96177 0.0
H158 H 0.81342 0.76964 0.96055 0.0
H159 H 0.83856 0.76147 0.99621 0.0
Ho160 Ho 0.22718 0.773 0.38764 0.0
Ho161 Ho 0.14632 0.78977 0.37708 0.0
C162 C 0.19599 0.82916 0.42137 0.0
C163 C 0.30569 0.78258 0.40157 0.0
C164 C 0.32638 0.78939 0.42325 0.0
C165 C 0.34532 0.83281 0.43388 0.0
C166 C 0.3621 0.83786 0.4548 0.0
C167 C 0.36011 0.7996 0.46561 0.0
C168 C 0.342 0.7565 0.45485 0.0
C169 C 0.32559 0.75154 0.4339 0.0
C170 C 0.1415 0.70301 0.3987 0.0
C171 C 0.17774 0.73324 0.34376 0.0
C172 C 0.06882 0.78095 0.36201 0.0
C173 C 0.04488 0.76459 0.34107 0.0
C174 C 0.03513 0.72125 0.33237 0.0
C175 C 0.01574 0.70781 0.31192 0.0
C176 C 0.00527 0.7372 0.29968 0.0
C177 C 0.01423 0.78017 0.3086 0.0
C178 C 0.03385 0.79369 0.32903 0.0
C179 C 0.23321 0.85745 0.36566 0.0
O180 O 0.22909 0.82114 0.41389 0.0
O181 O 0.15579 0.81473 0.411 0.0
O182 O 0.26841 0.74178 0.39777 0.0
O183 O 0.30186 0.81723 0.39362 0.0
O184 O 0.1753 0.69713 0.39172 0.0
O185 O 0.15567 0.74604 0.40088 0.0
O186 O 0.14323 0.73861 0.35169 0.0
O187 O 0.21894 0.75118 0.35351 0.0
O188 O 0.1088 0.82052 0.36184 0.0
O189 O 0.07036 0.74959 0.37423 0.0
O190 O 0.20228 0.86657 0.37377 0.0
O191 O 0.21605 0.81418 0.36392 0.0
H192 H 0.34648 0.86275 0.42622 0.0
H193 H 0.37559 0.87145 0.46269 0.0
H194 H 0.34068 0.72656 0.46262 0.0
H195 H 0.31162 0.71778 0.42612 0.0
H196 H 0.0429 0.69782 0.34127 0.0
H197 H 0.00872 0.6742 0.30575 0.0
H198 H 0.00711 0.80395 0.2996 0.0
H199 H 0.04116 0.82734 0.33529 0.0
Ho200 Ho 0.4567 0.26936 0.71733 0.0
Ho201 Ho 0.38059 0.16706 0.71033 0.0
C202 C 0.38394 0.20856 0.75596 0.0
C203 C 0.50379 0.35493 0.73064 0.0
C204 C 0.52327 0.37167 0.75211 0.0
C205 C 0.54882 0.41961 0.75698 0.0
C206 C 0.56906 0.43463 0.77725 0.0
C207 C 0.56371 0.40183 0.79296 0.0
C208 C 0.53758 0.35384 0.78795 0.0
C209 C 0.51783 0.33899 0.76774 0.0
C210 C 0.48571 0.20762 0.72421 0.0
C211 C 0.45257 0.22876 0.6716 0.0
C212 C 0.33342 0.0808 0.69762 0.0
C213 C 0.32233 0.05783 0.67639 0.0
C214 C 0.35787 0.06727 0.66145 0.0
C215 C 0.34637 0.04784 0.64095 0.0
C216 C 0.29907 0.01826 0.63493 0.0
C217 C 0.26367 0.00809 0.65009 0.0
C218 C 0.2752 0.02769 0.67055 0.0
C219 C 0.35516 0.23177 0.70287 0.0
O220 O 0.41231 0.24972 0.74716 0.0
O221 O 0.37064 0.1688 0.74561 0.0
O222 O 0.52294 0.33414 0.72038 0.0
O223 O 0.45777 0.3317 0.72928 0.0
O224 O 0.51223 0.24934 0.71687 0.0
O225 O 0.44587 0.20157 0.72934 0.0
O226 O 0.42539 0.18707 0.68035 0.0
O227 O 0.46363 0.26798 0.68196 0.0
O228 O 0.31398 0.10619 0.70179 0.0
O229 O 0.37728 0.1008 0.70409 0.0
O230 O 0.32763 0.19224 0.71211 0.0
O231 O 0.39317 0.23408 0.69791 0.0
H232 H 0.55355 0.44536 0.74509 0.0
H233 H 0.58873 0.47184 0.78066 0.0
H234 H 0.53338 0.32767 0.79949 0.0
H235 H 0.49889 0.30182 0.76419 0.0
H236 H 0.39459 0.09016 0.66548 0.0
H237 H 0.37461 0.05593 0.62983 0.0
H238 H 0.22688 0.98588 0.64598 0.0
H239 H 0.24713 0.01993 0.68174 0.0
H240 H 0.0948 0.67667 0.32291 0.0
H241 H 0.08397 0.64066 0.28774 0.0
H242 H 0.23447 0.70214 0.28173 0.0
H243 H 0.24541 0.73734 0.31704 0.0
H244 H 0.11219 0.67905 0.24958 0.0
H245 H 0.19255 0.56937 0.26593 0.0
H246 H 0.17856 0.59793 0.28687 0.0
H247 H 0.23236 0.62982 0.27199 0.0
C248 C 0.12557 0.68233 0.31415 0.0
C249 C 0.17095 0.70975 0.32284 0.0
C250 C 0.11932 0.66164 0.29404 0.0
C251 C 0.15833 0.66788 0.2822 0.0
C252 C 0.2037 0.69558 0.29078 0.0
H253 H 0.21238 0.62227 0.15307 0.0
H254 H 0.21341 0.64953 0.1895 0.0
C255 C 0.20994 0.71591 0.31097 0.0
C256 C 0.15178 0.64699 0.26055 0.0
H257 H 0.18186 0.58121 0.22914 0.0
C258 C 0.12697 0.65722 0.2452 0.0
C259 C 0.17067 0.61809 0.25483 0.0
C260 C 0.19456 0.60274 0.27085 0.0
C261 C 0.1221 0.64077 0.22415 0.0
C262 C 0.14271 0.61364 0.21831 0.0
C263 C 0.16654 0.60247 0.23369 0.0
C264 C 0.14112 0.59758 0.19614 0.0
C265 C 0.09603 0.65336 0.20808 0.0
C266 C 0.10012 0.5592 0.18792 0.0
C267 C 0.09946 0.54339 0.16713 0.0
C268 C 0.13974 0.56593 0.1542 0.0
C269 C 0.18064 0.60453 0.16253 0.0
C270 C 0.18137 0.62002 0.18335 0.0
H271 H 0.08485 0.67751 0.21478 0.0
H272 H 0.11865 0.67007 0.19399 0.0
H273 H 0.06424 0.62098 0.20251 0.0
H274 H 0.06879 0.54132 0.19764 0.0
H275 H 0.06734 0.5138 0.16111 0.0
H276 H 0.41873 0.15882 0.64183 0.0
H277 H 0.44958 0.16075 0.60622 0.0
H278 H 0.55592 0.30536 0.61568 0.0
H279 H 0.52534 0.30366 0.6515 0.0
H280 H 0.4634 0.22649 0.57111 0.0
H281 H 0.62847 0.23429 0.59893 0.0
H282 H 0.57741 0.21429 0.61578 0.0
H283 H 0.61422 0.27564 0.61053 0.0
C284 C 0.4488 0.19099 0.63642 0.0
C285 C 0.46989 0.23092 0.64961 0.0
C286 C 0.46622 0.1921 0.61601 0.0
C287 C 0.50536 0.23301 0.60844 0.0
C288 C 0.526 0.27327 0.62135 0.0
H289 H 0.67119 0.28824 0.49271 0.0
H290 H 0.64084 0.29307 0.52764 0.0
C291 C 0.50833 0.2723 0.64175 0.0
C292 C 0.5246 0.23323 0.58707 0.0
H293 H 0.61859 0.23688 0.5619 0.0
C294 C 0.49735 0.22883 0.56904 0.0
C295 C 0.56894 0.23645 0.58448 0.0
C296 C 0.59903 0.24013 0.60341 0.0
C297 C 0.51345 0.22794 0.54842 0.0
C298 C 0.55746 0.23019 0.54581 0.0
C299 C 0.58486 0.23505 0.56389 0.0
C300 C 0.57557 0.22717 0.52451 0.0
C301 C 0.48354 0.22556 0.52964 0.0
C302 C 0.54937 0.18818 0.51122 0.0
C303 C 0.56656 0.18543 0.49122 0.0
C304 C 0.61067 0.22129 0.4842 0.0
C305 C 0.63725 0.25987 0.4977 0.0
C306 C 0.61986 0.26276 0.51764 0.0
H307 H 0.45907 0.23842 0.53389 0.0
H308 H 0.50566 0.24652 0.51608 0.0
H309 H 0.46196 0.18857 0.52436 0.0
H310 H 0.51576 0.1596 0.5164 0.0
H311 H 0.54562 0.15487 0.48136 0.0
H312 H 0.16817 0.49852 0.98512 0.0
H313 H 0.19429 0.53163 0.94955 0.0
H314 H 0.24393 0.43465 0.93788 0.0
H315 H 0.21781 0.40118 0.97315 0.0
H316 H 0.28733 0.57392 0.93487 0.0
H317 H 0.16875 0.42263 0.88386 0.0
H318 H 0.15699 0.42623 0.91167 0.0
H319 H 0.19867 0.4086 0.90396 0.0
C320 C 0.18396 0.48371 0.97487 0.0
C321 C 0.19074 0.44707 0.982 0.0
C322 C 0.19895 0.50277 0.95457 0.0
C323 C 0.22052 0.48522 0.941 0.0
C324 C 0.22651 0.44809 0.94792 0.0
H325 H 0.36833 0.55632 0.82168 0.0
H326 H 0.33133 0.52321 0.85591 0.0
C327 C 0.21168 0.42913 0.96818 0.0
C328 C 0.23975 0.50763 0.92018 0.0
H329 H 0.2359 0.48507 0.86692 0.0
C330 C 0.27574 0.55473 0.91997 0.0
C331 C 0.22466 0.48237 0.90081 0.0
C332 C 0.18484 0.43228 0.89999 0.0
C333 C 0.29819 0.57684 0.90095 0.0
C334 C 0.28364 0.55132 0.88162 0.0
C335 C 0.24707 0.50448 0.88179 0.0
C336 C 0.30661 0.57224 0.86108 0.0
C337 C 0.33839 0.62676 0.9018 0.0
C338 C 0.30476 0.61064 0.85261 0.0
C339 C 0.32617 0.62987 0.83312 0.0
C340 C 0.34964 0.61088 0.82169 0.0
C341 C 0.3512 0.57225 0.83022 0.0
C342 C 0.32977 0.55305 0.84969 0.0
H343 H 0.35234 0.63754 0.91823 0.0
H344 H 0.36762 0.63149 0.89127 0.0
H345 H 0.32581 0.65052 0.89618 0.0
H346 H 0.28644 0.62553 0.86099 0.0
H347 H 0.32459 0.6598 0.82706 0.0
H348 H 0.73829 0.26427 0.32035 0.0
H349 H 0.74548 0.29535 0.28437 0.0
H350 H 0.87955 0.30227 0.27718 0.0
H351 H 0.87293 0.27167 0.31318 0.0
H352 H 0.87844 0.3829 0.26219 0.0
H353 H 0.72891 0.21865 0.22986 0.0
H354 H 0.71502 0.24155 0.25298 0.0
H355 H 0.75636 0.22102 0.25513 0.0
C356 C 0.76945 0.27257 0.31119 0.0
C357 C 0.80491 0.26512 0.31968 0.0
C358 C 0.77337 0.29013 0.29056 0.0
C359 C 0.8127 0.30045 0.27795 0.0
C360 C 0.84878 0.29436 0.28658 0.0
H361 H 0.83231 0.33694 0.14039 0.0
H362 H 0.8334 0.31233 0.17701 0.0
C363 C 0.84488 0.27677 0.30719 0.0
C364 C 0.8159 0.31692 0.25568 0.0
H365 H 0.76161 0.28473 0.20711 0.0
C366 C 0.85297 0.36145 0.25012 0.0
C367 C 0.78303 0.28861 0.23988 0.0
C368 C 0.7438 0.23962 0.24463 0.0
C369 C 0.85748 0.37878 0.22929 0.0
C370 C 0.82377 0.35098 0.21366 0.0
C371 C 0.78724 0.30614 0.21914 0.0
C372 C 0.82556 0.36763 0.19151 0.0
C373 C 0.89863 0.42639 0.2241 0.0
C374 C 0.82071 0.40689 0.18746 0.0
C375 C 0.81972 0.42088 0.16653 0.0
C376 C 0.82337 0.39576 0.14916 0.0
C377 C 0.8288 0.35676 0.15332 0.0
C378 C 0.82968 0.34276 0.17426 0.0
H379 H 0.92733 0.43788 0.23607 0.0
H380 H 0.91305 0.42633 0.20812 0.0
H381 H 0.88665 0.45248 0.22398 0.0
H382 H 0.81647 0.42604 0.20049 0.0
H383 H 0.81464 0.45054 0.16398 0.0
H384 H 0.43528 0.73601 0.65881 0.0
H385 H 0.40914 0.74552 0.62363 0.0
H386 H 0.5435 0.86999 0.61347 0.0
H387 H 0.5702 0.86036 0.64845 0.0
H388 H 0.40052 0.81692 0.60493 0.0
H389 H 0.53341 0.78986 0.56227 0.0
H390 H 0.52162 0.77784 0.59028 0.0
H391 H 0.55779 0.83708 0.58123 0.0
C392 C 0.45923 0.76563 0.64918 0.0
C393 C 0.50512 0.7971 0.6564 0.0
C394 C 0.44419 0.77101 0.62905 0.0
C395 C 0.47467 0.8079 0.61571 0.0
C396 C 0.51974 0.84057 0.62325 0.0
H397 H 0.44078 0.87055 0.48349 0.0
H398 H 0.46848 0.87656 0.52031 0.0
C399 C 0.53489 0.83513 0.64333 0.0
C400 C 0.45956 0.81128 0.59375 0.0
H401 H 0.48527 0.80845 0.54123 0.0
C402 C 0.41909 0.81513 0.59101 0.0
C403 C 0.48384 0.80899 0.57556 0.0
C404 C 0.52633 0.8028 0.57738 0.0
C405 C 0.40228 0.81675 0.57059 0.0
C406 C 0.4262 0.81381 0.55246 0.0
C407 C 0.46709 0.81081 0.55518 0.0
C408 C 0.40824 0.81159 0.53052 0.0
C409 C 0.35923 0.8219 0.56854 0.0
C410 C 0.36534 0.77298 0.52405 0.0
C411 C 0.34959 0.76934 0.50304 0.0
C412 C 0.37641 0.8043 0.48808 0.0
C413 C 0.41914 0.84326 0.49468 0.0
C414 C 0.43508 0.84667 0.51567 0.0
H415 H 0.352 0.83531 0.58347 0.0
H416 H 0.36339 0.846 0.55532 0.0
H417 H 0.32815 0.78717 0.56493 0.0
H418 H 0.34441 0.74518 0.53516 0.0
H419 H 0.31635 0.73912 0.49851 0.0
H420 H 0.77659 0.59001 0.96893 0.0
H421 H 0.74177 0.56625 0.93359 0.0
H422 H 0.7067 0.42398 0.94652 0.0
H423 H 0.74158 0.44762 0.98226 0.0
H424 H 0.7439 0.4569 0.90471 0.0
H425 H 0.59822 0.49032 0.92431 0.0
H426 H 0.65598 0.53922 0.92929 0.0
H427 H 0.63542 0.48637 0.94446 0.0
C428 C 0.76151 0.55361 0.96434 0.0
C429 C 0.76118 0.52054 0.97859 0.0
C430 C 0.74158 0.54011 0.94409 0.0
C431 C 0.72069 0.49318 0.93759 0.0
C432 C 0.72231 0.46035 0.95131 0.0
H433 H 0.52552 0.36507 0.8318 0.0
H434 H 0.56412 0.38657 0.86669 0.0
C435 C 0.74237 0.47391 0.97169 0.0
C436 C 0.69626 0.47856 0.91668 0.0
H437 H 0.60582 0.47496 0.88798 0.0
C438 C 0.7136 0.46064 0.90106 0.0
C439 C 0.65647 0.48312 0.91202 0.0
C440 C 0.63507 0.5004 0.92844 0.0
C441 C 0.69279 0.44809 0.88073 0.0
C442 C 0.65388 0.45396 0.87589 0.0
C443 C 0.63595 0.47095 0.89166 0.0
C444 C 0.63061 0.44176 0.85467 0.0
C445 C 0.71224 0.42816 0.86465 0.0
C446 C 0.65488 0.46631 0.83638 0.0
C447 C 0.63287 0.45415 0.81639 0.0
C448 C 0.58618 0.41711 0.81432 0.0
C449 C 0.56171 0.39333 0.83279 0.0
C450 C 0.58364 0.40567 0.85275 0.0
H451 H 0.73511 0.41631 0.87224 0.0
H452 H 0.68329 0.39814 0.85598 0.0
H453 H 0.73364 0.45556 0.85282 0.0
H454 H 0.69092 0.49479 0.83755 0.0
H455 H 0.6528 0.47297 0.80249 0.0
H456 H 0.29028 0.40679 0.06216 0.0
H457 H 0.37311 0.42697 0.06063 0.0
H458 H 0.40883 0.55742 0.02976 0.0
H459 H 0.32631 0.53695 0.0307 0.0
H460 H 0.44943 0.5125 1.01059 0.0
H461 H 0.47963 0.52384 0.09782 0.0
H462 H 0.43091 0.46869 0.08943 0.0
H463 H 0.42827 0.52152 0.08601 0.0
C464 C 0.31587 0.43959 0.05498 0.0
C465 C 0.30217 0.47041 0.04662 0.0
C466 C 0.36309 0.45129 0.05429 0.0
C467 C 0.39706 0.4941 0.04545 0.0
C468 C 0.38314 0.52442 0.03677 0.0
H469 H 0.69759 0.59129 0.0618 0.0
H470 H 0.62342 0.59275 0.06018 0.0
C471 C 0.33606 0.51267 0.03735 0.0
C472 C 0.44707 0.50704 0.04481 0.0
H473 H 0.5388 0.52255 0.07611 0.0
C474 C 0.46917 0.51517 0.02492 0.0
C475 C 0.47294 0.51164 0.06357 0.0
C476 C 0.45191 0.50646 0.08543 0.0
C477 C 0.516 0.52563 0.02322 0.0
C478 C 0.54082 0.52706 0.04188 0.0
C479 C 0.51947 0.52114 0.06183 0.0
C480 C 0.58704 0.52985 0.04096 0.0
C481 C 0.5383 0.53454 1.00147 0.0
C482 C 0.59086 0.49418 0.03063 0.0
C483 C 0.63278 0.49331 0.03153 0.0
C484 C 0.67145 0.5279 0.04294 0.0
C485 C 0.66818 0.56436 0.05285 0.0
C486 C 0.626 0.56519 0.05196 0.0
H487 H 0.52134 0.54767 0.99024 0.0
H488 H 0.57658 0.56034 1.00226 0.0
H489 H 0.53369 0.5012 0.99491 0.0
H490 H 0.56087 0.46603 0.02247 0.0
H491 H 0.63452 0.46487 0.02372 0.0
H492 H 0.14201 0.69129 0.44128 0.0
H493 H 0.09272 0.61727 0.46024 0.0
H494 H 0.01064 0.55815 0.40308 0.0
H495 H 0.06015 0.63149 0.38418 0.0
H496 H 0.95991 0.52954 0.44644 0.0
H497 H 0.11842 0.5102 0.43638 0.0
H498 H 0.12254 0.56114 0.44922 0.0
H499 H 0.11303 0.55346 0.42101 0.0
C500 C 0.11201 0.66301 0.43318 0.0
C501 C 0.10415 0.66656 0.41145 0.0
C502 C 0.08417 0.6209 0.44395 0.0
C503 C 0.04835 0.58246 0.43298 0.0
C504 C 0.03797 0.5877 0.41181 0.0
H505 H 0.91555 0.35337 0.37823 0.0
H506 H 0.97298 0.4229 0.39776 0.0
C507 C 0.06605 0.62943 0.40103 0.0
C508 C 0.02714 0.53457 0.4415 0.0
H509 H 0.04433 0.44145 0.43536 0.0
C510 C 0.97855 0.51017 0.4452 0.0
C511 C 0.05185 0.5097 0.43995 0.0
C512 C 0.10439 0.5347 0.43646 0.0
C513 C 0.95305 0.4611 0.44449 0.0
C514 C 0.97702 0.43652 0.43971 0.0
C515 C 0.02627 0.46065 0.43899 0.0
C516 C 0.95162 0.39086 0.42883 0.0
C517 C 0.90007 0.43618 0.44595 0.0
C518 C 0.92251 0.34936 0.43989 0.0
C519 C 0.89029 0.30924 0.42863 0.0
C520 C 0.8868 0.31098 0.40639 0.0
C521 C 0.9183 0.3514 0.39535 0.0
C522 C 0.95091 0.39096 0.4065 0.0
H523 H 0.8872 0.45979 0.45154 0.0
H524 H 0.88446 0.42211 0.43005 0.0
H525 H 0.88737 0.40613 0.45705 0.0
H526 H 0.92251 0.34895 0.45713 0.0
H527 H 0.86548 0.27839 0.43737 0.0
H528 H 0.43736 0.1194 0.74095 0.0
H529 H 0.46763 0.06541 0.74656 0.0
H530 H 0.60369 0.17009 0.72322 0.0
H531 H 0.57391 0.22383 0.71756 0.0
H532 H 0.5062 0.03811 0.71201 0.0
H533 H 0.63391 0.12069 0.77864 0.0
H534 H 0.58682 0.13291 0.77356 0.0
H535 H 0.63853 0.15889 0.75722 0.0
C536 C 0.47379 0.13088 0.73725 0.0
C537 C 0.5033 0.17549 0.72877 0.0
C538 C 0.49106 0.10028 0.74054 0.0
C539 C 0.53804 0.1143 0.73561 0.0
C540 C 0.56768 0.15916 0.72754 0.0
H541 H 0.61913 0.90989 0.70487 0.0
H542 H 0.63121 0.98928 0.70814 0.0
C543 C 0.55045 0.18956 0.72416 0.0
C544 C 0.5547 0.08039 0.73662 0.0
H545 H 0.63287 0.05606 0.76127 0.0
C546 C 0.53392 0.042 0.72274 0.0
C547 C 0.59111 0.08614 0.75057 0.0
C548 C 0.61379 0.12668 0.76599 0.0
C549 C 0.54814 0.00852 0.72257 0.0
C550 C 0.5846 0.01412 0.73649 0.0
C551 C 0.60567 0.05267 0.75035 0.0
C552 C 0.59594 0.97643 0.73852 0.0
C553 C 0.52294 0.96655 0.70797 0.0
C554 C 0.57562 0.94476 0.75534 0.0
C555 C 0.5688 0.89968 0.75347 0.0
C556 C 0.58295 0.88643 0.73494 0.0
C557 C 0.60892 0.91995 0.71945 0.0
C558 C 0.61561 0.96512 0.72127 0.0
H559 H 0.49121 0.96442 0.70046 0.0
H560 H 0.54717 0.9689 0.6951 0.0
H561 H 0.51199 0.93359 0.71685 0.0
H562 H 0.56007 0.95296 0.76869 0.0
H563 H 0.54823 0.87389 0.76544 0.0
H564 H 0.46675 0.65919 0.68673 0.0
H565 H 0.40803 0.57719 0.69179 0.0
H566 H 0.51723 0.54889 0.71213 0.0
H567 H 0.57598 0.63222 0.70852 0.0
H568 H 0.39416 0.50364 0.67367 0.0
H569 H 0.42465 0.48379 0.75818 0.0
H570 H 0.45059 0.5405 0.74562 0.0
H571 H 0.47914 0.50582 0.74418 0.0
C572 C 0.47821 0.63554 0.69245 0.0
C573 C 0.52567 0.652 0.69762 0.0
C574 C 0.44458 0.58868 0.69536 0.0
C575 C 0.4579 0.5571 0.703 0.0
C576 C 0.50582 0.57303 0.7071 0.0
H577 H 0.39211 0.29828 0.67319 0.0
H578 H 0.39732 0.37424 0.67409 0.0
C579 C 0.53947 0.62035 0.70465 0.0
C580 C 0.42222 0.50692 0.70518 0.0
H581 H 0.3922 0.41201 0.73655 0.0
C582 C 0.39285 0.48386 0.68769 0.0
C583 C 0.41868 0.48111 0.72374 0.0
C584 C 0.44458 0.50434 0.74406 0.0
C585 C 0.3641 0.43512 0.68739 0.0
C586 C 0.36625 0.40885 0.70465 0.0
C587 C 0.39127 0.43215 0.7231 0.0
C588 C 0.35308 0.35931 0.70192 0.0
C589 C 0.3339 0.41204 0.66804 0.0
C590 C 0.32609 0.3253 0.71719 0.0
C591 C 0.32317 0.28142 0.71669 0.0
C592 C 0.348 0.27195 0.70115 0.0
C593 C 0.37258 0.30495 0.68527 0.0
C594 C 0.37514 0.34822 0.68565 0.0
H595 H 0.31968 0.43384 0.66156 0.0
H596 H 0.35577 0.40884 0.6554 0.0
H597 H 0.30408 0.37661 0.67172 0.0
H598 H 0.30944 0.33355 0.73005 0.0
H599 H 0.30452 0.25644 0.72922 0.0
H600 H 0.05547 0.33849 0.0866 0.0
H601 H 0.00762 0.37154 0.1 0.0
H602 H 0.9806 0.39587 0.03537 0.0
H603 H 0.0297 0.36512 0.02217 0.0
H604 H 0.03864 0.46775 0.08838 0.0
H605 H 0.85309 0.35228 0.0661 0.0
H606 H 0.89321 0.33049 0.07082 0.0
H607 H 0.89154 0.35442 0.04527 0.0
C608 C 0.03761 0.34917 0.07534 0.0
C609 C 0.0458 0.34926 0.05338 0.0
C610 C 0.01046 0.36806 0.083 0.0
C611 C -0.0099 0.38553 0.06866 0.0
C612 C -0.00486 0.38166 0.04669 0.0
H613 H 0.91735 0.55833 0.01795 0.0
H614 H 0.94516 0.50762 0.03219 0.0
C615 C 0.02318 0.36415 0.03912 0.0
C616 C 0.97157 0.41592 0.0758 0.0
H617 H 0.88382 0.43682 0.06158 0.0
C618 C 0.00411 0.46071 0.0835 0.0
C619 C 0.92623 0.40631 0.06966 0.0
C620 C 0.88885 0.35801 0.06272 0.0
C621 C -0.00513 0.49789 0.08228 0.0
C622 C 0.95197 0.48951 0.07321 0.0
C623 C 0.91708 0.44338 0.06824 0.0
C624 C 0.94553 0.52794 0.06503 0.0
C625 C 0.03276 0.54658 0.08848 0.0
C626 C 0.93981 0.55853 0.07867 0.0
C627 C 0.92512 0.58863 0.0704 0.0
C628 C 0.91532 0.58749 0.04854 0.0
C629 C 0.92501 0.55987 0.03482 0.0
C630 C 0.94037 0.5306 0.04298 0.0
H631 H 0.06409 0.54693 0.09538 0.0
H632 H 0.04379 0.56972 0.07431 0.0
H633 H 0.0189 0.5614 0.10043 0.0
H634 H 0.94333 0.55677 0.09573 0.0
H635 H 0.9173 0.60937 0.08127 0.0
H636 H 0.2934 0.84248 0.3427 0.0
H637 H 0.37889 0.88973 0.34209 0.0
H638 H 0.37309 -0.00655 0.38204 0.0
H639 H 0.28657 0.94523 0.38308 0.0
H640 H 0.43821 0.97931 0.32874 0.0
H641 H 0.45943 0.95819 0.41517 0.0
H642 H 0.40451 0.92342 0.40116 0.0
H643 H 0.42265 0.98262 0.40881 0.0
C644 C 0.31028 0.87559 0.3512 0.0
C645 C 0.28369 0.89024 0.36307 0.0
C646 C 0.35907 0.9025 0.35083 0.0
C647 C 0.38221 0.94456 0.36231 0.0
C648 C 0.35571 0.96055 0.37341 0.0
H649 H 0.67545 0.14778 0.3491 0.0
H650 H 0.58993 0.10318 0.34834 0.0
C651 C 0.3065 0.93341 0.3738 0.0
C652 C 0.43414 0.97057 0.36278 0.0
H653 H 0.52899 0.00549 0.39562 0.0
C654 C 0.45812 0.98521 0.34336 0.0
C655 C 0.45974 0.97697 0.38183 0.0
C656 C 0.43541 0.95917 0.40294 0.0
C657 C 0.50722 0.00651 0.34246 0.0
C658 C 0.53298 0.01445 0.36159 0.0
C659 C 0.50902 -0.00059 0.38101 0.0
C660 C 0.58494 0.04049 0.36183 0.0
C661 C 0.5309 0.0195 0.32098 0.0
C662 C 0.6105 0.02027 0.37012 0.0
C663 C 0.65977 0.04608 0.37082 0.0
C664 C 0.68368 0.09234 0.36337 0.0
C665 C 0.65789 0.1121 0.35491 0.0
C666 C 0.60901 0.0866 0.35434 0.0
H667 H 0.50635 -0.00187 0.30802 0.0
H668 H 0.54268 0.05682 0.31769 0.0
H669 H 0.56216 0.01481 0.32054 0.0
H670 H 0.59234 0.98472 0.37609 0.0
H671 H 0.67899 0.03028 0.37752 0.0
H672 H 0.31218 0.1356 0.77817 0.0
H673 H 0.2835 0.13878 0.81398 0.0
H674 H 0.38963 0.28459 0.81924 0.0
H675 H 0.41813 0.28196 0.78381 0.0
H676 H 0.37994 0.22722 0.8562 0.0
H677 H 0.21075 0.21067 0.82864 0.0
H678 H 0.22508 0.16774 0.8191 0.0
H679 H 0.26009 0.22766 0.81099 0.0
C680 C 0.32952 0.16823 0.78701 0.0
C681 C 0.36737 0.20852 0.77801 0.0
C682 C 0.31295 0.17006 0.80742 0.0
C683 C 0.33418 0.21207 0.81919 0.0
C684 C 0.37262 0.25185 0.81044 0.0
H685 H 0.25392 0.32132 0.9261 0.0
H686 H 0.27586 0.30355 0.89156 0.0
C687 C 0.38883 0.25021 0.79009 0.0
C688 C 0.3165 0.21546 0.84055 0.0
H689 H 0.22604 0.2196 0.86552 0.0
C690 C 0.34608 0.22505 0.8583 0.0
C691 C 0.27263 0.21333 0.84318 0.0
C692 C 0.24021 0.20459 0.82452 0.0
C693 C 0.33309 0.23284 0.87858 0.0
C694 C 0.28924 0.23079 0.88122 0.0
C695 C 0.25953 0.22093 0.86349 0.0
C696 C 0.27443 0.24045 0.90213 0.0
C697 C 0.36702 0.24467 0.89692 0.0
C698 C 0.26567 0.21054 0.91951 0.0
C699 C 0.2527 0.22034 0.93927 0.0
C700 C 0.24819 0.26036 0.94213 0.0
C701 C 0.25647 0.28993 0.92454 0.0
C702 C 0.26925 0.27995 0.90476 0.0
H703 H 0.40285 0.25394 0.89145 0.0
H704 H 0.36953 0.27437 0.90637 0.0
H705 H 0.35401 0.21391 0.9076 0.0
H706 H 0.26868 0.17943 0.91777 0.0
H707 H 0.24568 0.19618 0.95225 0.0
H708 H 0.04437 0.21444 0.28394 0.0
H709 H 0.08131 0.23672 0.2488 0.0
H710 H -0.01158 0.28877 0.23174 0.0
H711 H 0.95062 0.26571 0.2666 0.0
H712 H -0.0035 0.23083 0.20025 0.0
H713 H 0.1712 0.37245 0.22849 0.0
H714 H 0.1494 0.31643 0.24107 0.0
H715 H 0.11912 0.34865 0.24488 0.0
C716 C 0.03163 0.2304 0.27267 0.0
C717 C -0.00531 0.23852 0.27814 0.0
C718 C 0.05307 0.24348 0.25267 0.0
C719 C 0.038 0.26493 0.23777 0.0
C720 C 0.00078 0.27253 0.24306 0.0
H721 H 0.15537 0.42171 0.12364 0.0
H722 H 0.12805 0.39328 0.1596 0.0
C723 C 0.97946 0.25964 0.26305 0.0
C724 C 0.06053 0.2791 0.21654 0.0
H725 H 0.16325 0.35546 0.19166 0.0
C726 C 0.03303 0.25785 0.19835 0.0
C727 C 0.10809 0.31465 0.21414 0.0
C728 C 0.13874 0.33975 0.23313 0.0
C729 C 0.05174 0.27139 0.1778 0.0
C730 C 0.09934 0.30682 0.1754 0.0
C731 C 0.12693 0.32793 0.19358 0.0
C732 C 0.11991 0.32478 0.15411 0.0
C733 C 0.02006 0.24884 0.15878 0.0
C734 C 0.12569 0.29613 0.13926 0.0
C735 C 0.14137 0.31234 0.1186 0.0
C736 C 0.15131 0.3574 0.11248 0.0
C737 C 0.14741 0.38662 0.12773 0.0
C738 C 0.132 0.37051 0.14834 0.0
H739 H 0.98236 0.22818 0.16336 0.0
H740 H 0.0243 0.27582 0.14704 0.0
H741 H 0.02993 0.22487 0.15085 0.0
H742 H 0.11708 0.2609 0.14351 0.0
H743 H 0.14392 0.28895 0.10724 0.0
H744 H 0.71906 0.88975 0.58423 0.0
H745 H 0.73172 0.92791 0.54951 0.0
H746 H 0.73331 0.0466 0.57939 0.0
H747 H 0.72164 0.00917 0.6142 0.0
H748 H 0.67524 0.95868 0.52857 0.0
H749 H 0.85605 0.10564 0.54432 0.0
H750 H 0.82843 0.05363 0.56059 0.0
H751 H 0.81323 0.09862 0.56396 0.0
C752 C 0.72264 0.92421 0.58345 0.0
C753 C 0.71961 0.94651 0.60204 0.0
C754 C 0.72955 0.94582 0.56358 0.0
C755 C 0.73405 -0.00965 0.56189 0.0
C756 C 0.73065 0.01254 0.58035 0.0
H757 H 0.71036 0.12875 0.44861 0.0
H758 H 0.69878 0.08896 0.48274 0.0
C759 C 0.72353 -0.00911 0.60022 0.0
C760 C 0.74161 0.01328 0.54077 0.0
H761 H 0.81908 0.10981 0.51253 0.0
C762 C 0.70672 -0.00834 0.52503 0.0
C763 C 0.78297 0.05602 0.53609 0.0
C764 C 0.82258 0.07975 0.55203 0.0
C765 C 0.71168 0.01209 0.50487 0.0
C766 C 0.7524 0.05557 0.50042 0.0
C767 C 0.78769 0.07671 0.51602 0.0
C768 C 0.75925 0.07955 0.47961 0.0
C769 C 0.67359 0.98664 0.48841 0.0
C770 C 0.79769 0.08845 0.46667 0.0
C771 C 0.80456 0.11137 0.44714 0.0
C772 C 0.77328 0.12621 0.44021 0.0
C773 C 0.73502 0.11761 0.45333 0.0
C774 C 0.72816 0.09461 0.47284 0.0
H775 H 0.65101 0.94895 0.49234 0.0
H776 H 0.65079 0.00262 0.48774 0.0
H777 H 0.68899 0.98952 0.47237 0.0
H778 H 0.82227 0.07737 0.47163 0.0
H779 H 0.83447 0.11747 0.43752 0.0
H780 H 0.69373 0.79258 0.7636 0.0
H781 H 0.7225 0.78048 0.79769 0.0
H782 H 0.57966 0.68643 0.8173 0.0
H783 H 0.55073 0.69773 0.78335 0.0
H784 H 0.70416 0.79999 0.83806 0.0
H785 H 0.64257 0.61037 0.83105 0.0
H786 H 0.6449 0.64541 0.80853 0.0
H787 H 0.5965 0.62389 0.8269 0.0
C788 C 0.66841 0.76893 0.77506 0.0
C789 C 0.61981 0.746 0.77058 0.0
C790 C 0.68496 0.76209 0.79458 0.0
C791 C 0.65335 0.73193 0.80999 0.0
C792 C 0.60489 0.70898 0.80553 0.0
H793 H 0.66701 0.65873 0.94141 0.0
H794 H 0.6439 0.66712 0.90534 0.0
C795 C 0.58835 0.71576 0.78607 0.0
C796 C 0.67067 0.7262 0.83112 0.0
H797 H 0.66724 0.64434 0.86562 0.0
C798 C 0.69649 0.76602 0.84399 0.0
C799 C 0.66056 0.68183 0.83894 0.0
C800 C 0.63502 0.63799 0.82556 0.0
C801 C 0.71127 0.76256 0.86462 0.0
C802 C 0.70063 0.71814 0.87254 0.0
C803 C 0.67525 0.67836 0.8596 0.0
C804 C 0.71508 0.7122 0.89431 0.0
C805 C 0.7369 0.80638 0.87802 0.0
C806 C 0.76285 0.73399 0.90005 0.0
C807 C 0.77624 0.72908 0.92065 0.0
C808 C 0.74216 0.70206 0.93601 0.0
C809 C 0.69432 0.67951 0.93003 0.0
C810 C 0.68098 0.68442 0.90941 0.0
H811 H 0.73202 0.8352 0.87178 0.0
H812 H 0.72462 0.79943 0.89478 0.0
H813 H 0.77515 0.81853 0.87791 0.0
H814 H 0.78989 0.75468 0.88855 0.0
H815 H 0.81342 0.74609 0.92445 0.0
H816 H 0.02931 0.69392 0.26867 0.0
H817 H -0.00349 0.67095 0.23276 0.0
H818 H 0.90453 0.72681 0.2446 0.0
H819 H 0.93613 0.74867 0.28076 0.0
H820 H 0.85842 0.63909 0.22554 0.0
H821 H 0.02247 0.75718 0.18181 0.0
H822 H 0.02844 0.71928 0.20049 0.0
H823 H 0.01593 0.76343 0.20997 0.0
C824 C 0.00186 0.70107 0.26373 0.0
C825 C 0.98549 0.72331 0.27768 0.0
C826 C 0.98352 0.68838 0.24306 0.0
C827 C 0.94852 0.69779 0.23581 0.0
C828 C 0.93174 0.71949 0.24975 0.0
H829 H 0.85609 0.68513 0.10399 0.0
H830 H 0.88544 0.70966 0.1404 0.0
C831 C 0.95011 0.73227 0.2704 0.0
C832 C 0.92864 0.6842 0.21389 0.0
H833 H 0.95789 0.70117 0.16112 0.0
C834 C 0.88016 0.65278 0.21146 0.0
C835 C 0.95687 0.70242 0.19548 0.0
C836 C 0.00874 0.73778 0.19697 0.0
C837 C 0.85937 0.63847 0.19119 0.0
C838 C 0.88782 0.65571 0.1728 0.0
C839 C 0.93612 0.68777 0.17521 0.0
C840 C 0.86824 0.64045 0.15095 0.0
C841 C 0.80697 0.6054 0.18962 0.0
C842 C 0.84872 0.5934 0.14474 0.0
C843 C 0.83184 0.57928 0.12399 0.0
C844 C 0.83428 0.61192 0.10888 0.0
C845 C 0.85331 0.65898 0.11521 0.0
C846 C 0.87037 0.67312 0.136 0.0
H847 H 0.78863 0.60498 0.20455 0.0
H848 H 0.79149 0.61514 0.17621 0.0
H849 H 0.80026 0.56934 0.18667 0.0
H850 H 0.84725 0.56762 0.15586 0.0
H851 H 0.8171 0.54273 0.11978 0.0
H852 H 0.23144 0.92969 0.62257 0.0
H853 H 0.21066 0.89814 0.58637 0.0
H854 H 0.31801 0.03022 0.56113 0.0
H855 H 0.33822 0.06251 0.59724 0.0
H856 H 0.23135 -0.00756 0.53925 0.0
H857 H 0.28872 0.8608 0.54844 0.0
H858 H 0.24783 0.85777 0.56824 0.0
H859 H 0.30562 0.90857 0.56698 0.0
C860 C 0.25047 0.95218 0.60933 0.0
C861 C 0.28669 -0.00136 0.61288 0.0
C862 C 0.23882 0.93391 0.58863 0.0
C863 C 0.26317 0.96159 0.57103 0.0
C864 C 0.29891 0.00811 0.57447 0.0
H865 H 0.27812 0.87174 0.44391 0.0
H866 H 0.29174 0.90431 0.47971 0.0
C867 C 0.31068 0.02639 0.59516 0.0
C868 C 0.25132 0.9422 0.54901 0.0
H869 H 0.24963 0.85826 0.51638 0.0
C870 C 0.23526 0.96305 0.53423 0.0
C871 C 0.2569 0.90416 0.54243 0.0
C872 C 0.27609 0.88168 0.55725 0.0
C873 C 0.22451 0.94682 0.51307 0.0
C874 C 0.22935 0.90828 0.50658 0.0
C875 C 0.24548 0.88751 0.52139 0.0
C876 C 0.22052 0.89042 0.48426 0.0
C877 C 0.20935 0.97191 0.4977 0.0
C878 C 0.17587 0.87191 0.47468 0.0
C879 C 0.16786 0.85317 0.45397 0.0
C880 C 0.20429 0.85227 0.44257 0.0
C881 C 0.24906 0.87154 0.45216 0.0
C882 C 0.257 0.89024 0.47272 0.0
H883 H 0.21799 0.00705 0.50374 0.0
H884 H 0.22639 0.97613 0.48197 0.0
H885 H 0.17065 0.95094 0.49536 0.0
H886 H 0.14691 0.87091 0.48339 0.0
H887 H 0.13291 0.83833 0.44715 0.0
loop_
_geom_bond_atom_site_label_1
_geom_bond_atom_site_label_2
_geom_bond_distance
_geom_bond_site_symmetry_2
_ccdc_geom_bond_type
Ho0 C3 2.811 . S
Ho0 O20 2.322 . S
Ho0 O22 2.378 . S
Ho0 O23 2.524 . S
Ho0 O24 2.381 . S
Ho0 O25 2.669 . S
Ho0 O27 2.346 . S
Ho0 O31 2.305 . S
Ho1 C12 2.811 1_554 S
Ho1 O21 2.346 . S
Ho1 O25 2.305 . S
Ho1 O26 2.322 1_554 S
Ho1 O28 2.378 1_554 S
Ho1 O29 2.524 1_554 S
Ho1 O30 2.381 . S
Ho1 O31 2.669 . S
C2 O20 1.259 . S
C2 O21 1.268 . S
C3 Ho0 2.811 . S
C3 C4 1.488 . S
C3 O22 1.215 . S
C3 O23 1.289 . S
C4 C3 1.488 . S
C4 C5 1.348 . S
C4 C9 1.413 . S
C5 C4 1.348 . S
C5 C6 1.442 . S
C5 H32 0.930 . S
C6 C5 1.442 . S
C6 C7 1.381 . S
C6 H33 0.931 . S
C7 C6 1.381 . S
C7 C8 1.321 . S
C8 C7 1.321 . S
C8 C9 1.403 . S
C8 H34 0.934 . S
C9 C4 1.413 . S
C9 C8 1.403 . S
C9 H35 0.930 . S
C10 O24 1.275 . S
C10 O25 1.256 . S
C11 O26 1.259 . S
C11 O27 1.268 1_556 S
C12 Ho1 2.811 1_556 S
C12 C13 1.488 . S
C12 O28 1.215 . S
C12 O29 1.289 . S
C13 C12 1.488 . S
C13 C14 1.348 . S
C13 C18 1.413 . S
C14 C13 1.348 . S
C14 C15 1.442 . S
C14 H36 0.930 . S
C15 C14 1.442 . S
C15 C16 1.381 . S
C15 H37 0.931 . S
C16 C15 1.381 . S
C16 C17 1.321 . S
C17 C16 1.321 . S
C17 C18 1.403 . S
C17 H38 0.934 . S
C18 C13 1.413 . S
C18 C17 1.403 . S
C18 H39 0.930 . S
C19 O30 1.275 . S
C19 O31 1.256 . S
O20 Ho0 2.322 . S
O20 C2 1.259 . S
O21 Ho1 2.346 . S
O21 C2 1.268 . S
O22 Ho0 2.378 . S
O22 C3 1.215 . S
O23 Ho0 2.524 . S
O23 C3 1.289 . S
O24 Ho0 2.381 . S
O24 C10 1.275 . S
O25 Ho0 2.669 . S
O25 Ho1 2.305 . S
O25 C10 1.256 . S
O26 Ho1 2.322 1_556 S
O26 C11 1.259 . S
O27 Ho0 2.346 . S
O27 C11 1.268 1_554 S
O28 Ho1 2.378 1_556 S
O28 C12 1.215 . S
O29 Ho1 2.524 1_556 S
O29 C12 1.289 . S
O30 Ho1 2.381 . S
O30 C19 1.275 . S
O31 Ho0 2.305 . S
O31 Ho1 2.669 . S
O31 C19 1.256 . S
H32 C5 0.930 . S
H33 C6 0.931 . S
H34 C8 0.934 . S
H35 C9 0.930 . S
H36 C14 0.930 . S
H37 C15 0.931 . S
H38 C17 0.934 . S
H39 C18 0.930 . S
Ho40 C43 2.811 . S
Ho40 O60 2.322 . S
Ho40 O62 2.378 . S
Ho40 O63 2.524 . S
Ho40 O64 2.381 . S
Ho40 O65 2.669 . S
Ho40 O67 2.346 . S
Ho40 O71 2.305 . S
Ho41 C52 2.811 . S
Ho41 O61 2.346 . S
Ho41 O65 2.305 . S
Ho41 O66 2.322 . S
Ho41 O68 2.378 . S
Ho41 O69 2.524 . S
Ho41 O70 2.381 . S
Ho41 O71 2.669 . S
C42 O60 1.259 . S
C42 O61 1.268 . S
C43 Ho40 2.811 . S
C43 C44 1.488 . S
C43 O62 1.215 . S
C43 O63 1.289 . S
C44 C43 1.488 . S
C44 C45 1.348 . S
C44 C49 1.413 . S
C45 C44 1.348 . S
C45 C46 1.442 . S
C45 H72 0.930 . S
C46 C45 1.442 . S
C46 C47 1.381 . S
C46 H73 0.931 . S
C47 C46 1.381 . S
C47 C48 1.321 . S
C48 C47 1.321 . S
C48 C49 1.403 . S
C48 H74 0.934 . S
C49 C44 1.413 . S
C49 C48 1.403 . S
C49 H75 0.930 . S
C50 O64 1.275 . S
C50 O65 1.256 . S
C51 O66 1.259 . S
C51 O67 1.268 . S
C52 Ho41 2.811 . S
C52 C53 1.488 . S
C52 O68 1.215 . S
C52 O69 1.289 . S
C53 C52 1.488 . S
C53 C54 1.348 . S
C53 C58 1.413 . S
C54 C53 1.348 . S
C54 C55 1.442 . S
C54 H76 0.930 . S
C55 C54 1.442 . S
C55 C56 1.381 . S
C55 H77 0.931 . S
C56 C55 1.381 . S
C56 C57 1.321 . S
C57 C56 1.321 . S
C57 C58 1.403 . S
C57 H78 0.934 . S
C58 C53 1.413 . S
C58 C57 1.403 . S
C58 H79 0.930 . S
C59 O70 1.275 . S
C59 O71 1.256 . S
O60 Ho40 2.322 . S
O60 C42 1.259 . S
O61 Ho41 2.346 . S
O61 C42 1.268 . S
O62 Ho40 2.378 . S
O62 C43 1.215 . S
O63 Ho40 2.524 . S
O63 C43 1.289 . S
O64 Ho40 2.381 . S
O64 C50 1.275 . S
O65 Ho40 2.669 . S
O65 Ho41 2.305 . S
O65 C50 1.256 . S
O66 Ho41 2.322 . S
O66 C51 1.259 . S
O67 Ho40 2.346 . S
O67 C51 1.268 . S
O68 Ho41 2.378 . S
O68 C52 1.215 . S
O69 Ho41 2.524 . S
O69 C52 1.289 . S
O70 Ho41 2.381 . S
O70 C59 1.275 . S
O71 Ho40 2.305 . S
O71 Ho41 2.669 . S
O71 C59 1.256 . S
H72 C45 0.930 . S
H73 C46 0.931 . S
H74 C48 0.934 . S
H75 C49 0.930 . S
H76 C54 0.930 . S
H77 C55 0.931 . S
H78 C57 0.934 . S
H79 C58 0.930 . S
Ho80 C83 2.811 . S
Ho80 O100 2.322 . S
Ho80 O102 2.378 . S
Ho80 O103 2.524 . S
Ho80 O104 2.381 . S
Ho80 O105 2.669 . S
Ho80 O107 2.346 . S
Ho80 O111 2.305 . S
Ho81 C92 2.811 . S
Ho81 O101 2.346 . S
Ho81 O105 2.305 . S
Ho81 O106 2.322 . S
Ho81 O108 2.378 . S
Ho81 O109 2.524 . S
Ho81 O110 2.381 . S
Ho81 O111 2.669 . S
C82 O100 1.259 . S
C82 O101 1.268 . S
C83 Ho80 2.811 . S
C83 C84 1.488 . S
C83 O102 1.215 . S
C83 O103 1.289 . S
C84 C83 1.488 . S
C84 C85 1.348 . S
C84 C89 1.413 . S
C85 C84 1.348 . S
C85 C86 1.442 . S
C85 H112 0.930 . S
C86 C85 1.442 . S
C86 C87 1.381 . S
C86 H113 0.931 . S
C87 C86 1.381 . S
C87 C88 1.321 . S
C88 C87 1.321 . S
C88 C89 1.403 . S
C88 H114 0.934 . S
C89 C84 1.413 . S
C89 C88 1.403 . S
C89 H115 0.930 . S
C90 O104 1.275 . S
C90 O105 1.256 . S
C91 O106 1.259 . S
C91 O107 1.268 . S
C92 Ho81 2.811 . S
C92 C93 1.488 . S
C92 O108 1.215 . S
C92 O109 1.289 . S
C93 C92 1.488 . S
C93 C94 1.348 . S
C93 C98 1.413 . S
C94 C93 1.348 . S
C94 C95 1.442 . S
C94 H116 0.930 . S
C95 C94 1.442 . S
C95 C96 1.381 . S
C95 H117 0.931 . S
C96 C95 1.381 . S
C96 C97 1.321 . S
C97 C96 1.321 . S
C97 C98 1.403 . S
C97 H118 0.934 . S
C98 C93 1.413 . S
C98 C97 1.403 . S
C98 H119 0.930 . S
C99 O110 1.275 . S
C99 O111 1.256 . S
O100 Ho80 2.322 . S
O100 C82 1.259 . S
O101 Ho81 2.346 . S
O101 C82 1.268 . S
O102 Ho80 2.378 . S
O102 C83 1.215 . S
O103 Ho80 2.524 . S
O103 C83 1.289 . S
O104 Ho80 2.381 . S
O104 C90 1.275 . S
O105 Ho80 2.669 . S
O105 Ho81 2.305 . S
O105 C90 1.256 . S
O106 Ho81 2.322 . S
O106 C91 1.259 . S
O107 Ho80 2.346 . S
O107 C91 1.268 . S
O108 Ho81 2.378 . S
O108 C92 1.215 . S
O109 Ho81 2.524 . S
O109 C92 1.289 . S
O110 Ho81 2.381 . S
O110 C99 1.275 . S
O111 Ho80 2.305 . S
O111 Ho81 2.669 . S
O111 C99 1.256 . S
H112 C85 0.930 . S
H113 C86 0.931 . S
H114 C88 0.934 . S
H115 C89 0.930 . S
H116 C94 0.930 . S
H117 C95 0.931 . S
H118 C97 0.934 . S
H119 C98 0.930 . S
Ho120 C123 2.811 . S
Ho120 O140 2.322 . S
Ho120 O142 2.378 . S
Ho120 O143 2.524 . S
Ho120 O144 2.381 . S
Ho120 O145 2.669 . S
Ho120 O147 2.346 . S
Ho120 O151 2.305 . S
Ho121 C132 2.811 1_554 S
Ho121 O141 2.346 . S
Ho121 O145 2.305 . S
Ho121 O146 2.322 1_554 S
Ho121 O148 2.378 1_554 S
Ho121 O149 2.524 1_554 S
Ho121 O150 2.381 . S
Ho121 O151 2.669 . S
C122 O140 1.259 . S
C122 O141 1.268 . S
C123 Ho120 2.811 . S
C123 C124 1.488 . S
C123 O142 1.215 . S
C123 O143 1.289 . S
C124 C123 1.488 . S
C124 C125 1.348 . S
C124 C129 1.413 . S
C125 C124 1.348 . S
C125 C126 1.442 . S
C125 H152 0.930 . S
C126 C125 1.442 . S
C126 C127 1.381 . S
C126 H153 0.931 . S
C127 C126 1.381 . S
C127 C128 1.321 . S
C128 C127 1.321 . S
C128 C129 1.403 . S
C128 H154 0.934 . S
C129 C124 1.413 . S
C129 C128 1.403 . S
C129 H155 0.930 . S
C130 O144 1.275 . S
C130 O145 1.256 . S
C131 O146 1.259 . S
C131 O147 1.268 1_556 S
C132 Ho121 2.811 1_556 S
C132 C133 1.488 . S
C132 O148 1.215 . S
C132 O149 1.289 . S
C133 C132 1.488 . S
C133 C134 1.348 . S
C133 C138 1.413 . S
C134 C133 1.348 . S
C134 C135 1.442 . S
C134 H156 0.930 . S
C135 C134 1.442 . S
C135 C136 1.381 . S
C135 H157 0.931 . S
C136 C135 1.381 . S
C136 C137 1.321 . S
C137 C136 1.321 . S
C137 C138 1.403 . S
C137 H158 0.934 . S
C138 C133 1.413 . S
C138 C137 1.403 . S
C138 H159 0.930 . S
C139 O150 1.275 . S
C139 O151 1.256 . S
O140 Ho120 2.322 . S
O140 C122 1.259 . S
O141 Ho121 2.346 . S
O141 C122 1.268 . S
O142 Ho120 2.378 . S
O142 C123 1.215 . S
O143 Ho120 2.524 . S
O143 C123 1.289 . S
O144 Ho120 2.381 . S
O144 C130 1.275 . S
O145 Ho120 2.669 . S
O145 Ho121 2.305 . S
O145 C130 1.256 . S
O146 Ho121 2.322 1_556 S
O146 C131 1.259 . S
O147 Ho120 2.346 . S
O147 C131 1.268 1_554 S
O148 Ho121 2.378 1_556 S
O148 C132 1.215 . S
O149 Ho121 2.524 1_556 S
O149 C132 1.289 . S
O150 Ho121 2.381 . S
O150 C139 1.275 . S
O151 Ho120 2.305 . S
O151 Ho121 2.669 . S
O151 C139 1.256 . S
H152 C125 0.930 . S
H153 C126 0.931 . S
H154 C128 0.934 . S
H155 C129 0.930 . S
H156 C134 0.930 . S
H157 C135 0.931 . S
H158 C137 0.934 . S
H159 C138 0.930 . S
Ho160 C163 2.811 . S
Ho160 O180 2.322 . S
Ho160 O182 2.378 . S
Ho160 O183 2.524 . S
Ho160 O184 2.381 . S
Ho160 O185 2.669 . S
Ho160 O187 2.346 . S
Ho160 O191 2.305 . S
Ho161 C172 2.811 . S
Ho161 O181 2.346 . S
Ho161 O185 2.305 . S
Ho161 O186 2.322 . S
Ho161 O188 2.378 . S
Ho161 O189 2.524 . S
Ho161 O190 2.381 . S
Ho161 O191 2.669 . S
C162 O180 1.259 . S
C162 O181 1.268 . S
C163 Ho160 2.811 . S
C163 C164 1.488 . S
C163 O182 1.215 . S
C163 O183 1.289 . S
C164 C163 1.488 . S
C164 C165 1.348 . S
C164 C169 1.413 . S
C165 C164 1.348 . S
C165 C166 1.442 . S
C165 H192 0.930 . S
C166 C165 1.442 . S
C166 C167 1.381 . S
C166 H193 0.931 . S
C167 C166 1.381 . S
C167 C168 1.321 . S
C168 C167 1.321 . S
C168 C169 1.403 . S
C168 H194 0.934 . S
C169 C164 1.413 . S
C169 C168 1.403 . S
C169 H195 0.930 . S
C170 O184 1.275 . S
C170 O185 1.256 . S
C171 O186 1.259 . S
C171 O187 1.268 . S
C172 Ho161 2.811 . S
C172 C173 1.488 . S
C172 O188 1.215 . S
C172 O189 1.289 . S
C173 C172 1.488 . S
C173 C174 1.348 . S
C173 C178 1.413 . S
C174 C173 1.348 . S
C174 C175 1.442 . S
C174 H196 0.930 . S
C175 C174 1.442 . S
C175 C176 1.381 . S
C175 H197 0.931 . S
C176 C175 1.381 . S
C176 C177 1.321 . S
C177 C176 1.321 . S
C177 C178 1.403 . S
C177 H198 0.934 . S
C178 C173 1.413 . S
C178 C177 1.403 . S
C178 H199 0.930 . S
C179 O190 1.275 . S
C179 O191 1.256 . S
O180 Ho160 2.322 . S
O180 C162 1.259 . S
O181 Ho161 2.346 . S
O181 C162 1.268 . S
O182 Ho160 2.378 . S
O182 C163 1.215 . S
O183 Ho160 2.524 . S
O183 C163 1.289 . S
O184 Ho160 2.381 . S
O184 C170 1.275 . S
O185 Ho160 2.669 . S
O185 Ho161 2.305 . S
O185 C170 1.256 . S
O186 Ho161 2.322 . S
O186 C171 1.259 . S
O187 Ho160 2.346 . S
O187 C171 1.268 . S
O188 Ho161 2.378 . S
O188 C172 1.215 . S
O189 Ho161 2.524 . S
O189 C172 1.289 . S
O190 Ho161 2.381 . S
O190 C179 1.275 . S
O191 Ho160 2.305 . S
O191 Ho161 2.669 . S
O191 C179 1.256 . S
H192 C165 0.930 . S
H193 C166 0.931 . S
H194 C168 0.934 . S
H195 C169 0.930 . S
H196 C174 0.930 . S
H197 C175 0.931 . S
H198 C177 0.934 . S
H199 C178 0.930 . S
Ho200 C203 2.811 . S
Ho200 O220 2.322 . S
Ho200 O222 2.378 . S
Ho200 O223 2.524 . S
Ho200 O224 2.381 . S
Ho200 O225 2.669 . S
Ho200 O227 2.346 . S
Ho200 O231 2.305 . S
Ho201 C212 2.811 . S
Ho201 O221 2.346 . S
Ho201 O225 2.305 . S
Ho201 O226 2.322 . S
Ho201 O228 2.378 . S
Ho201 O229 2.524 . S
Ho201 O230 2.381 . S
Ho201 O231 2.669 . S
C202 O220 1.259 . S
C202 O221 1.268 . S
C203 Ho200 2.811 . S
C203 C204 1.488 . S
C203 O222 1.215 . S
C203 O223 1.289 . S
C204 C203 1.488 . S
C204 C205 1.348 . S
C204 C209 1.413 . S
C205 C204 1.348 . S
C205 C206 1.442 . S
C205 H232 0.930 . S
C206 C205 1.442 . S
C206 C207 1.381 . S
C206 H233 0.931 . S
C207 C206 1.381 . S
C207 C208 1.321 . S
C208 C207 1.321 . S
C208 C209 1.403 . S
C208 H234 0.934 . S
C209 C204 1.413 . S
C209 C208 1.403 . S
C209 H235 0.930 . S
C210 O224 1.275 . S
C210 O225 1.256 . S
C211 O226 1.259 . S
C211 O227 1.268 . S
C212 Ho201 2.811 . S
C212 C213 1.488 . S
C212 O228 1.215 . S
C212 O229 1.289 . S
C213 C212 1.488 . S
C213 C214 1.348 . S
C213 C218 1.413 . S
C214 C213 1.348 . S
C214 C215 1.442 . S
C214 H236 0.930 . S
C215 C214 1.442 . S
C215 C216 1.381 . S
C215 H237 0.931 . S
C216 C215 1.381 . S
C216 C217 1.321 . S
C217 C216 1.321 . S
C217 C218 1.403 . S
C217 H238 0.934 . S
C218 C213 1.413 . S
C218 C217 1.403 . S
C218 H239 0.930 . S
C219 O230 1.275 . S
C219 O231 1.256 . S
O220 Ho200 2.322 . S
O220 C202 1.259 . S
O221 Ho201 2.346 . S
O221 C202 1.268 . S
O222 Ho200 2.378 . S
O222 C203 1.215 . S
O223 Ho200 2.524 . S
O223 C203 1.289 . S
O224 Ho200 2.381 . S
O224 C210 1.275 . S
O225 Ho200 2.669 . S
O225 Ho201 2.305 . S
O225 C210 1.256 . S
O226 Ho201 2.322 . S
O226 C211 1.259 . S
O227 Ho200 2.346 . S
O227 C211 1.268 . S
O228 Ho201 2.378 . S
O228 C212 1.215 . S
O229 Ho201 2.524 . S
O229 C212 1.289 . S
O230 Ho201 2.381 . S
O230 C219 1.275 . S
O231 Ho200 2.305 . S
O231 Ho201 2.669 . S
O231 C219 1.256 . S
H232 C205 0.930 . S
H233 C206 0.931 . S
H234 C208 0.934 . S
H235 C209 0.930 . S
H236 C214 0.930 . S
H237 C215 0.931 . S
H238 C217 0.934 . S
H239 C218 0.930 . S
H240 C248 0.929 . S
H241 C250 0.930 . S
H242 C252 0.930 . S
H243 C255 0.929 . S
H244 C258 0.930 . S
H245 C260 0.960 . S
H246 C260 0.960 . S
H247 C260 0.960 . S
C248 H240 0.929 . S
C248 C249 1.377 . S
C248 C250 1.384 . S
C249 C248 1.377 . S
C249 C255 1.390 . S
C250 H241 0.930 . S
C250 C248 1.384 . S
C250 C251 1.372 . S
C251 C250 1.372 . S
C251 C252 1.400 . S
C251 C256 1.490 . S
C252 H242 0.930 . S
C252 C251 1.400 . S
C252 C255 1.386 . S
H253 C269 0.930 . S
H254 C270 0.931 . S
C255 H243 0.929 . S
C255 C249 1.390 . S
C255 C252 1.386 . S
C256 C251 1.490 . S
C256 C258 1.395 . S
C256 C259 1.403 . S
H257 C263 0.930 . S
C258 H244 0.930 . S
C258 C256 1.395 . S
C258 C261 1.403 . S
C259 C256 1.403 . S
C259 C260 1.524 . S
C259 C263 1.400 . S
C260 H245 0.960 . S
C260 H246 0.960 . S
C260 H247 0.960 . S
C260 C259 1.524 . S
C261 C258 1.403 . S
C261 C262 1.392 . S
C261 C265 1.495 . S
C262 C261 1.392 . S
C262 C263 1.385 . S
C262 C264 1.478 . S
C263 H257 0.930 . S
C263 C259 1.400 . S
C263 C262 1.385 . S
C264 C262 1.478 . S
C264 C266 1.381 . S
C264 C270 1.383 . S
C265 C261 1.495 . S
C265 H271 0.959 . S
C265 H272 0.961 . S
C265 H273 0.960 . S
C266 C264 1.381 . S
C266 C267 1.394 . S
C266 H274 0.930 . S
C267 C266 1.394 . S
C267 C268 1.383 . S
C267 H275 0.929 . S
C268 C267 1.383 . S
C268 C269 1.377 . S
C269 H253 0.930 . S
C269 C268 1.377 . S
C269 C270 1.379 . S
C270 H254 0.931 . S
C270 C264 1.383 . S
C270 C269 1.379 . S
H271 C265 0.959 . S
H272 C265 0.961 . S
H273 C265 0.960 . S
H274 C266 0.930 . S
H275 C267 0.929 . S
H276 C284 0.929 . S
H277 C286 0.930 . S
H278 C288 0.930 . S
H279 C291 0.929 . S
H280 C294 0.930 . S
H281 C296 0.960 . S
H282 C296 0.960 . S
H283 C296 0.960 . S
C284 H276 0.929 . S
C284 C285 1.377 . S
C284 C286 1.384 . S
C285 C284 1.377 . S
C285 C291 1.390 . S
C286 H277 0.930 . S
C286 C284 1.384 . S
C286 C287 1.372 . S
C287 C286 1.372 . S
C287 C288 1.400 . S
C287 C292 1.490 . S
C288 H278 0.930 . S
C288 C287 1.400 . S
C288 C291 1.386 . S
H289 C305 0.930 . S
H290 C306 0.931 . S
C291 H279 0.929 . S
C291 C285 1.390 . S
C291 C288 1.386 . S
C292 C287 1.490 . S
C292 C294 1.395 . S
C292 C295 1.403 . S
H293 C299 0.930 . S
C294 H280 0.930 . S
C294 C292 1.395 . S
C294 C297 1.403 . S
C295 C292 1.403 . S
C295 C296 1.524 . S
C295 C299 1.400 . S
C296 H281 0.960 . S
C296 H282 0.960 . S
C296 H283 0.960 . S
C296 C295 1.524 . S
C297 C294 1.403 . S
C297 C298 1.392 . S
C297 C301 1.495 . S
C298 C297 1.392 . S
C298 C299 1.385 . S
C298 C300 1.478 . S
C299 H293 0.930 . S
C299 C295 1.400 . S
C299 C298 1.385 . S
C300 C298 1.478 . S
C300 C302 1.381 . S
C300 C306 1.383 . S
C301 C297 1.495 . S
C301 H307 0.959 . S
C301 H308 0.961 . S
C301 H309 0.960 . S
C302 C300 1.381 . S
C302 C303 1.394 . S
C302 H310 0.930 . S
C303 C302 1.394 . S
C303 C304 1.383 . S
C303 H311 0.929 . S
C304 C303 1.383 . S
C304 C305 1.377 . S
C305 H289 0.930 . S
C305 C304 1.377 . S
C305 C306 1.379 . S
C306 H290 0.931 . S
C306 C300 1.383 . S
C306 C305 1.379 . S
H307 C301 0.959 . S
H308 C301 0.961 . S
H309 C301 0.960 . S
H310 C302 0.930 . S
H311 C303 0.929 . S
H312 C320 0.929 . S
H313 C322 0.930 . S
H314 C324 0.930 . S
H315 C327 0.929 . S
H316 C330 0.930 . S
H317 C332 0.960 . S
H318 C332 0.960 . S
H319 C332 0.960 . S
C320 H312 0.929 . S
C320 C321 1.377 . S
C320 C322 1.384 . S
C321 C320 1.377 . S
C321 C327 1.390 . S
C322 H313 0.930 . S
C322 C320 1.384 . S
C322 C323 1.372 . S
C323 C322 1.372 . S
C323 C324 1.400 . S
C323 C328 1.490 . S
C324 H314 0.930 . S
C324 C323 1.400 . S
C324 C327 1.386 . S
H325 C341 0.930 . S
H326 C342 0.931 . S
C327 H315 0.929 . S
C327 C321 1.390 . S
C327 C324 1.386 . S
C328 C323 1.490 . S
C328 C330 1.395 . S
C328 C331 1.403 . S
H329 C335 0.930 . S
C330 H316 0.930 . S
C330 C328 1.395 . S
C330 C333 1.403 . S
C331 C328 1.403 . S
C331 C332 1.524 . S
C331 C335 1.400 . S
C332 H317 0.960 . S
C332 H318 0.960 . S
C332 H319 0.960 . S
C332 C331 1.524 . S
C333 C330 1.403 . S
C333 C334 1.392 . S
C333 C337 1.495 . S
C334 C333 1.392 . S
C334 C335 1.385 . S
C334 C336 1.478 . S
C335 H329 0.930 . S
C335 C331 1.400 . S
C335 C334 1.385 . S
C336 C334 1.478 . S
C336 C338 1.381 . S
C336 C342 1.383 . S
C337 C333 1.495 . S
C337 H343 0.959 . S
C337 H344 0.961 . S
C337 H345 0.960 . S
C338 C336 1.381 . S
C338 C339 1.394 . S
C338 H346 0.930 . S
C339 C338 1.394 . S
C339 C340 1.383 . S
C339 H347 0.929 . S
C340 C339 1.383 . S
C340 C341 1.377 . S
C341 H325 0.930 . S
C341 C340 1.377 . S
C341 C342 1.379 . S
C342 H326 0.931 . S
C342 C336 1.383 . S
C342 C341 1.379 . S
H343 C337 0.959 . S
H344 C337 0.961 . S
H345 C337 0.960 . S
H346 C338 0.930 . S
H347 C339 0.929 . S
H348 C356 0.929 . S
H349 C358 0.930 . S
H350 C360 0.930 . S
H351 C363 0.929 . S
H352 C366 0.930 . S
H353 C368 0.960 . S
H354 C368 0.960 . S
H355 C368 0.960 . S
C356 H348 0.929 . S
C356 C357 1.377 . S
C356 C358 1.384 . S
C357 C356 1.377 . S
C357 C363 1.390 . S
C358 H349 0.930 . S
C358 C356 1.384 . S
C358 C359 1.372 . S
C359 C358 1.372 . S
C359 C360 1.400 . S
C359 C364 1.490 . S
C360 H350 0.930 . S
C360 C359 1.400 . S
C360 C363 1.386 . S
H361 C377 0.930 . S
H362 C378 0.931 . S
C363 H351 0.929 . S
C363 C357 1.390 . S
C363 C360 1.386 . S
C364 C359 1.490 . S
C364 C366 1.395 . S
C364 C367 1.403 . S
H365 C371 0.930 . S
C366 H352 0.930 . S
C366 C364 1.395 . S
C366 C369 1.403 . S
C367 C364 1.403 . S
C367 C368 1.524 . S
C367 C371 1.400 . S
C368 H353 0.960 . S
C368 H354 0.960 . S
C368 H355 0.960 . S
C368 C367 1.524 . S
C369 C366 1.403 . S
C369 C370 1.392 . S
C369 C373 1.495 . S
C370 C369 1.392 . S
C370 C371 1.385 . S
C370 C372 1.478 . S
C371 H365 0.930 . S
C371 C367 1.400 . S
C371 C370 1.385 . S
C372 C370 1.478 . S
C372 C374 1.381 . S
C372 C378 1.383 . S
C373 C369 1.495 . S
C373 H379 0.959 . S
C373 H380 0.961 . S
C373 H381 0.960 . S
C374 C372 1.381 . S
C374 C375 1.394 . S
C374 H382 0.930 . S
C375 C374 1.394 . S
C375 C376 1.383 . S
C375 H383 0.929 . S
C376 C375 1.383 . S
C376 C377 1.377 . S
C377 H361 0.930 . S
C377 C376 1.377 . S
C377 C378 1.379 . S
C378 H362 0.931 . S
C378 C372 1.383 . S
C378 C377 1.379 . S
H379 C373 0.959 . S
H380 C373 0.961 . S
H381 C373 0.960 . S
H382 C374 0.930 . S
H383 C375 0.929 . S
H384 C392 0.929 . S
H385 C394 0.930 . S
H386 C396 0.930 . S
H387 C399 0.929 . S
H388 C402 0.930 . S
H389 C404 0.960 . S
H390 C404 0.960 . S
H391 C404 0.960 . S
C392 H384 0.929 . S
C392 C393 1.377 . S
C392 C394 1.384 . S
C393 C392 1.377 . S
C393 C399 1.390 . S
C394 H385 0.930 . S
C394 C392 1.384 . S
C394 C395 1.372 . S
C395 C394 1.372 . S
C395 C396 1.400 . S
C395 C400 1.490 . S
C396 H386 0.930 . S
C396 C395 1.400 . S
C396 C399 1.386 . S
H397 C413 0.930 . S
H398 C414 0.931 . S
C399 H387 0.929 . S
C399 C393 1.390 . S
C399 C396 1.386 . S
C400 C395 1.490 . S
C400 C402 1.395 . S
C400 C403 1.403 . S
H401 C407 0.930 . S
C402 H388 0.930 . S
C402 C400 1.395 . S
C402 C405 1.403 . S
C403 C400 1.403 . S
C403 C404 1.524 . S
C403 C407 1.400 . S
C404 H389 0.960 . S
C404 H390 0.960 . S
C404 H391 0.960 . S
C404 C403 1.524 . S
C405 C402 1.403 . S
C405 C406 1.392 . S
C405 C409 1.495 . S
C406 C405 1.392 . S
C406 C407 1.385 . S
C406 C408 1.478 . S
C407 H401 0.930 . S
C407 C403 1.400 . S
C407 C406 1.385 . S
C408 C406 1.478 . S
C408 C410 1.381 . S
C408 C414 1.383 . S
C409 C405 1.495 . S
C409 H415 0.959 . S
C409 H416 0.961 . S
C409 H417 0.960 . S
C410 C408 1.381 . S
C410 C411 1.394 . S
C410 H418 0.930 . S
C411 C410 1.394 . S
C411 C412 1.383 . S
C411 H419 0.929 . S
C412 C411 1.383 . S
C412 C413 1.377 . S
C413 H397 0.930 . S
C413 C412 1.377 . S
C413 C414 1.379 . S
C414 H398 0.931 . S
C414 C408 1.383 . S
C414 C413 1.379 . S
H415 C409 0.959 . S
H416 C409 0.961 . S
H417 C409 0.960 . S
H418 C410 0.930 . S
H419 C411 0.929 . S
H420 C428 0.929 . S
H421 C430 0.930 . S
H422 C432 0.930 . S
H423 C435 0.929 . S
H424 C438 0.930 . S
H425 C440 0.960 . S
H426 C440 0.960 . S
H427 C440 0.960 . S
C428 H420 0.929 . S
C428 C429 1.377 . S
C428 C430 1.384 . S
C429 C428 1.377 . S
C429 C435 1.390 . S
C430 H421 0.930 . S
C430 C428 1.384 . S
C430 C431 1.372 . S
C431 C430 1.372 . S
C431 C432 1.400 . S
C431 C436 1.490 . S
C432 H422 0.930 . S
C432 C431 1.400 . S
C432 C435 1.386 . S
H433 C449 0.930 . S
H434 C450 0.931 . S
C435 H423 0.929 . S
C435 C429 1.390 . S
C435 C432 1.386 . S
C436 C431 1.490 . S
C436 C438 1.395 . S
C436 C439 1.403 . S
H437 C443 0.930 . S
C438 H424 0.930 . S
C438 C436 1.395 . S
C438 C441 1.403 . S
C439 C436 1.403 . S
C439 C440 1.524 . S
C439 C443 1.400 . S
C440 H425 0.960 . S
C440 H426 0.960 . S
C440 H427 0.960 . S
C440 C439 1.524 . S
C441 C438 1.403 . S
C441 C442 1.392 . S
C441 C445 1.495 . S
C442 C441 1.392 . S
C442 C443 1.385 . S
C442 C444 1.478 . S
C443 H437 0.930 . S
C443 C439 1.400 . S
C443 C442 1.385 . S
C444 C442 1.478 . S
C444 C446 1.381 . S
C444 C450 1.383 . S
C445 C441 1.495 . S
C445 H451 0.959 . S
C445 H452 0.961 . S
C445 H453 0.960 . S
C446 C444 1.381 . S
C446 C447 1.394 . S
C446 H454 0.930 . S
C447 C446 1.394 . S
C447 C448 1.383 . S
C447 H455 0.929 . S
C448 C447 1.383 . S
C448 C449 1.377 . S
C449 H433 0.930 . S
C449 C448 1.377 . S
C449 C450 1.379 . S
C450 H434 0.931 . S
C450 C444 1.383 . S
C450 C449 1.379 . S
H451 C445 0.959 . S
H452 C445 0.961 . S
H453 C445 0.960 . S
H454 C446 0.930 . S
H455 C447 0.929 . S
H456 C464 0.929 . S
H457 C466 0.930 . S
H458 C468 0.930 . S
H459 C471 0.929 . S
H460 C474 0.930 . S
H461 C476 0.960 . S
H462 C476 0.960 . S
H463 C476 0.960 . S
C464 H456 0.929 . S
C464 C465 1.377 . S
C464 C466 1.384 . S
C465 C464 1.377 . S
C465 C471 1.390 . S
C466 H457 0.930 . S
C466 C464 1.384 . S
C466 C467 1.372 . S
C467 C466 1.372 . S
C467 C468 1.400 . S
C467 C472 1.490 . S
C468 H458 0.930 . S
C468 C467 1.400 . S
C468 C471 1.386 . S
H469 C485 0.930 . S
H470 C486 0.931 . S
C471 H459 0.929 . S
C471 C465 1.390 . S
C471 C468 1.386 . S
C472 C467 1.490 . S
C472 C474 1.395 . S
C472 C475 1.403 . S
H473 C479 0.930 . S
C474 H460 0.930 . S
C474 C472 1.395 . S
C474 C477 1.403 . S
C475 C472 1.403 . S
C475 C476 1.524 . S
C475 C479 1.400 . S
C476 H461 0.960 . S
C476 H462 0.960 . S
C476 H463 0.960 . S
C476 C475 1.524 . S
C477 C474 1.403 . S
C477 C478 1.392 . S
C477 C481 1.495 . S
C478 C477 1.392 . S
C478 C479 1.385 . S
C478 C480 1.478 . S
C479 H473 0.930 . S
C479 C475 1.400 . S
C479 C478 1.385 . S
C480 C478 1.478 . S
C480 C482 1.381 . S
C480 C486 1.383 . S
C481 C477 1.495 . S
C481 H487 0.959 . S
C481 H488 0.961 . S
C481 H489 0.960 . S
C482 C480 1.381 . S
C482 C483 1.394 . S
C482 H490 0.930 . S
C483 C482 1.394 . S
C483 C484 1.383 . S
C483 H491 0.929 . S
C484 C483 1.383 . S
C484 C485 1.377 . S
C485 H469 0.930 . S
C485 C484 1.377 . S
C485 C486 1.379 . S
C486 H470 0.931 . S
C486 C480 1.383 . S
C486 C485 1.379 . S
H487 C481 0.959 . S
H488 C481 0.961 . S
H489 C481 0.960 . S
H490 C482 0.930 . S
H491 C483 0.929 . S
H492 C500 0.929 . S
H493 C502 0.930 . S
H494 C504 0.930 . S
H495 C507 0.929 . S
H496 C510 0.930 . S
H497 C512 0.960 . S
H498 C512 0.960 . S
H499 C512 0.960 . S
C500 H492 0.929 . S
C500 C501 1.377 . S
C500 C502 1.384 . S
C501 C500 1.377 . S
C501 C507 1.390 . S
C502 H493 0.930 . S
C502 C500 1.384 . S
C502 C503 1.372 . S
C503 C502 1.372 . S
C503 C504 1.400 . S
C503 C508 1.490 . S
C504 H494 0.930 . S
C504 C503 1.400 . S
C504 C507 1.386 . S
H505 C521 0.930 . S
H506 C522 0.931 . S
C507 H495 0.929 . S
C507 C501 1.390 . S
C507 C504 1.386 . S
C508 C503 1.490 . S
C508 C510 1.395 1_455 S
C508 C511 1.403 . S
H509 C515 0.928 1_455 S
C510 H496 0.930 . S
C510 C508 1.395 1_655 S
C510 C513 1.403 . S
C511 C508 1.403 . S
C511 C512 1.524 . S
C511 C515 1.400 1_455 S
C512 H497 0.960 . S
C512 H498 0.960 . S
C512 H499 0.960 . S
C512 C511 1.524 . S
C513 C510 1.403 . S
C513 C514 1.392 . S
C513 C517 1.495 . S
C514 C513 1.392 . S
C514 C515 1.386 . S
C514 C516 1.478 . S
C515 H509 0.928 1_655 S
C515 C511 1.400 1_655 S
C515 C514 1.386 . S
C516 C514 1.478 . S
C516 C518 1.381 . S
C516 C522 1.383 . S
C517 C513 1.495 . S
C517 H523 0.959 . S
C517 H524 0.961 . S
C517 H525 0.960 . S
C518 C516 1.381 . S
C518 C519 1.394 . S
C518 H526 0.930 . S
C519 C518 1.394 . S
C519 C520 1.383 . S
C519 H527 0.929 . S
C520 C519 1.383 . S
C520 C521 1.377 . S
C521 H505 0.930 . S
C521 C520 1.377 . S
C521 C522 1.379 . S
C522 H506 0.931 . S
C522 C516 1.383 . S
C522 C521 1.379 . S
H523 C517 0.959 . S
H524 C517 0.961 . S
H525 C517 0.960 . S
H526 C518 0.930 . S
H527 C519 0.929 . S
H528 C536 0.929 . S
H529 C538 0.930 . S
H530 C540 0.930 . S
H531 C543 0.929 . S
H532 C546 0.930 . S
H533 C548 0.960 . S
H534 C548 0.960 . S
H535 C548 0.960 . S
C536 H528 0.929 . S
C536 C537 1.377 . S
C536 C538 1.384 . S
C537 C536 1.377 . S
C537 C543 1.390 . S
C538 H529 0.930 . S
C538 C536 1.384 . S
C538 C539 1.372 . S
C539 C538 1.372 . S
C539 C540 1.400 . S
C539 C544 1.490 . S
C540 H530 0.930 . S
C540 C539 1.400 . S
C540 C543 1.386 . S
H541 C557 0.930 . S
H542 C558 0.931 . S
C543 H531 0.929 . S
C543 C537 1.390 . S
C543 C540 1.386 . S
C544 C539 1.490 . S
C544 C546 1.395 1_545 S
C544 C547 1.403 . S
H545 C551 0.930 . S
C546 H532 0.930 . S
C546 C544 1.395 1_565 S
C546 C549 1.403 . S
C547 C544 1.403 . S
C547 C548 1.524 . S
C547 C551 1.400 . S
C548 H533 0.960 . S
C548 H534 0.960 . S
C548 H535 0.960 . S
C548 C547 1.524 . S
C549 C546 1.403 . S
C549 C550 1.392 . S
C549 C553 1.495 . S
C550 C549 1.392 . S
C550 C551 1.385 1_565 S
C550 C552 1.478 . S
C551 H545 0.930 . S
C551 C547 1.400 . S
C551 C550 1.385 1_545 S
C552 C550 1.478 . S
C552 C554 1.381 . S
C552 C558 1.383 . S
C553 C549 1.495 . S
C553 H559 0.959 . S
C553 H560 0.961 . S
C553 H561 0.960 . S
C554 C552 1.381 . S
C554 C555 1.394 . S
C554 H562 0.930 . S
C555 C554 1.394 . S
C555 C556 1.383 . S
C555 H563 0.929 . S
C556 C555 1.383 . S
C556 C557 1.377 . S
C557 H541 0.930 . S
C557 C556 1.377 . S
C557 C558 1.379 . S
C558 H542 0.931 . S
C558 C552 1.383 . S
C558 C557 1.379 . S
H559 C553 0.959 . S
H560 C553 0.961 . S
H561 C553 0.960 . S
H562 C554 0.930 . S
H563 C555 0.929 . S
H564 C572 0.929 . S
H565 C574 0.930 . S
H566 C576 0.930 . S
H567 C579 0.929 . S
H568 C582 0.930 . S
H569 C584 0.960 . S
H570 C584 0.960 . S
H571 C584 0.960 . S
C572 H564 0.929 . S
C572 C573 1.377 . S
C572 C574 1.384 . S
C573 C572 1.377 . S
C573 C579 1.390 . S
C574 H565 0.930 . S
C574 C572 1.384 . S
C574 C575 1.372 . S
C575 C574 1.372 . S
C575 C576 1.400 . S
C575 C580 1.490 . S
C576 H566 0.930 . S
C576 C575 1.400 . S
C576 C579 1.386 . S
H577 C593 0.930 . S
H578 C594 0.931 . S
C579 H567 0.929 . S
C579 C573 1.390 . S
C579 C576 1.386 . S
C580 C575 1.490 . S
C580 C582 1.395 . S
C580 C583 1.403 . S
H581 C587 0.930 . S
C582 H568 0.930 . S
C582 C580 1.395 . S
C582 C585 1.403 . S
C583 C580 1.403 . S
C583 C584 1.524 . S
C583 C587 1.400 . S
C584 H569 0.960 . S
C584 H570 0.960 . S
C584 H571 0.960 . S
C584 C583 1.524 . S
C585 C582 1.403 . S
C585 C586 1.392 . S
C585 C589 1.495 . S
C586 C585 1.392 . S
C586 C587 1.385 . S
C586 C588 1.478 . S
C587 H581 0.930 . S
C587 C583 1.400 . S
C587 C586 1.385 . S
C588 C586 1.478 . S
C588 C590 1.381 . S
C588 C594 1.383 . S
C589 C585 1.495 . S
C589 H595 0.959 . S
C589 H596 0.961 . S
C589 H597 0.960 . S
C590 C588 1.381 . S
C590 C591 1.394 . S
C590 H598 0.930 . S
C591 C590 1.394 . S
C591 C592 1.383 . S
C591 H599 0.929 . S
C592 C591 1.383 . S
C592 C593 1.377 . S
C593 H577 0.930 . S
C593 C592 1.377 . S
C593 C594 1.379 . S
C594 H578 0.931 . S
C594 C588 1.383 . S
C594 C593 1.379 . S
H595 C589 0.959 . S
H596 C589 0.961 . S
H597 C589 0.960 . S
H598 C590 0.930 . S
H599 C591 0.929 . S
H600 C608 0.929 . S
H601 C610 0.930 . S
H602 C612 0.930 1_556 S
H603 C615 0.929 1_556 S
H604 C618 0.930 . S
H605 C620 0.960 . S
H606 C620 0.975 . S
H607 C620 0.960 1_455 S
C608 H600 0.929 . S
C608 C609 1.377 . S
C608 C610 1.384 . S
C609 C608 1.377 . S
C609 C615 1.390 . S
C610 H601 0.930 . S
C610 C608 1.384 . S
C610 C611 1.372 . S
C611 C610 1.372 . S
C611 C612 1.400 . S
C611 C616 1.490 . S
C612 H602 0.930 1_554 S
C612 C611 1.400 . S
C612 C615 1.386 . S
H613 C629 0.925 . S
H614 C630 0.931 . S
C615 H603 0.929 1_554 S
C615 C609 1.390 . S
C615 C612 1.386 . S
C616 C611 1.490 . S
C616 C618 1.395 . S
C616 C619 1.403 1_455 S
H617 C623 0.930 . S
C618 H604 0.930 . S
C618 C616 1.395 . S
C618 C621 1.403 . S
C619 C616 1.403 1_655 S
C619 C620 1.524 1_554 S
C619 C623 1.400 . S
C620 H605 0.960 . S
C620 H606 0.975 . S
C620 H607 0.960 1_655 S
C620 C619 1.524 1_556 S
C621 C618 1.403 . S
C621 C622 1.392 1_455 S
C621 C625 1.495 . S
C622 C621 1.392 1_655 S
C622 C623 1.385 . S
C622 C624 1.478 . S
C623 H617 0.930 . S
C623 C619 1.400 . S
C623 C622 1.385 . S
C624 C622 1.478 . S
C624 C626 1.381 . S
C624 C630 1.383 . S
C625 C621 1.495 . S
C625 H631 0.959 . S
C625 H632 0.961 . S
C625 H633 0.960 1_455 S
C626 C624 1.381 . S
C626 C627 1.394 . S
C626 H634 0.930 . S
C627 C626 1.394 . S
C627 C628 1.383 . S
C627 H635 0.929 . S
C628 C627 1.383 . S
C628 C629 1.377 . S
C629 H613 0.925 . S
C629 C628 1.377 . S
C629 C630 1.379 . S
C630 H614 0.931 . S
C630 C624 1.383 . S
C630 C629 1.379 . S
H631 C625 0.959 . S
H632 C625 0.961 . S
H633 C625 0.960 1_655 S
H634 C626 0.930 . S
H635 C627 0.929 . S
H636 C644 0.929 . S
H637 C646 0.930 . S
H638 C648 0.930 . S
H639 C651 0.929 . S
H640 C654 0.930 . S
H641 C656 0.960 . S
H642 C656 0.960 . S
H643 C656 0.960 . S
C644 H636 0.929 . S
C644 C645 1.377 . S
C644 C646 1.384 . S
C645 C644 1.377 . S
C645 C651 1.390 . S
C646 H637 0.930 . S
C646 C644 1.384 . S
C646 C647 1.372 . S
C647 C646 1.372 . S
C647 C648 1.400 . S
C647 C652 1.490 . S
C648 H638 0.930 . S
C648 C647 1.400 . S
C648 C651 1.386 . S
H649 C665 0.930 . S
H650 C666 0.931 . S
C651 H639 0.929 . S
C651 C645 1.390 . S
C651 C648 1.386 . S
C652 C647 1.490 . S
C652 C654 1.395 . S
C652 C655 1.403 . S
H653 C659 0.930 . S
C654 H640 0.930 . S
C654 C652 1.395 . S
C654 C657 1.403 1_565 S
C655 C652 1.403 . S
C655 C656 1.524 . S
C655 C659 1.400 1_565 S
C656 H641 0.960 . S
C656 H642 0.960 . S
C656 H643 0.960 . S
C656 C655 1.524 . S
C657 C654 1.403 1_545 S
C657 C658 1.392 . S
C657 C661 1.495 . S
C658 C657 1.392 . S
C658 C659 1.385 . S
C658 C660 1.478 . S
C659 H653 0.930 . S
C659 C655 1.400 1_545 S
C659 C658 1.385 . S
C660 C658 1.478 . S
C660 C662 1.381 . S
C660 C666 1.383 . S
C661 C657 1.495 . S
C661 H667 0.959 . S
C661 H668 0.961 . S
C661 H669 0.960 . S
C662 C660 1.381 . S
C662 C663 1.394 . S
C662 H670 0.930 . S
C663 C662 1.394 . S
C663 C664 1.383 . S
C663 H671 0.929 . S
C664 C663 1.383 . S
C664 C665 1.377 . S
C665 H649 0.930 . S
C665 C664 1.377 . S
C665 C666 1.379 . S
C666 H650 0.931 . S
C666 C660 1.383 . S
C666 C665 1.379 . S
H667 C661 0.959 . S
H668 C661 0.961 . S
H669 C661 0.960 . S
H670 C662 0.930 . S
H671 C663 0.929 . S
H672 C680 0.929 . S
H673 C682 0.930 . S
H674 C684 0.930 . S
H675 C687 0.929 . S
H676 C690 0.930 . S
H677 C692 0.960 . S
H678 C692 0.960 . S
H679 C692 0.960 . S
C680 H672 0.929 . S
C680 C681 1.377 . S
C680 C682 1.384 . S
C681 C680 1.377 . S
C681 C687 1.390 . S
C682 H673 0.930 . S
C682 C680 1.384 . S
C682 C683 1.372 . S
C683 C682 1.372 . S
C683 C684 1.400 . S
C683 C688 1.490 . S
C684 H674 0.930 . S
C684 C683 1.400 . S
C684 C687 1.386 . S
H685 C701 0.930 . S
H686 C702 0.931 . S
C687 H675 0.929 . S
C687 C681 1.390 . S
C687 C684 1.386 . S
C688 C683 1.490 . S
C688 C690 1.395 . S
C688 C691 1.403 . S
H689 C695 0.930 . S
C690 H676 0.930 . S
C690 C688 1.395 . S
C690 C693 1.403 . S
C691 C688 1.403 . S
C691 C692 1.524 . S
C691 C695 1.400 . S
C692 H677 0.960 . S
C692 H678 0.960 . S
C692 H679 0.960 . S
C692 C691 1.524 . S
C693 C690 1.403 . S
C693 C694 1.392 . S
C693 C697 1.495 . S
C694 C693 1.392 . S
C694 C695 1.385 . S
C694 C696 1.478 . S
C695 H689 0.930 . S
C695 C691 1.400 . S
C695 C694 1.385 . S
C696 C694 1.478 . S
C696 C698 1.381 . S
C696 C702 1.383 . S
C697 C693 1.495 . S
C697 H703 0.959 . S
C697 H704 0.961 . S
C697 H705 0.960 . S
C698 C696 1.381 . S
C698 C699 1.394 . S
C698 H706 0.930 . S
C699 C698 1.394 . S
C699 C700 1.383 . S
C699 H707 0.929 . S
C700 C699 1.383 . S
C700 C701 1.377 . S
C701 H685 0.930 . S
C701 C700 1.377 . S
C701 C702 1.379 . S
C702 H686 0.931 . S
C702 C696 1.383 . S
C702 C701 1.379 . S
H703 C697 0.959 . S
H704 C697 0.961 . S
H705 C697 0.960 . S
H706 C698 0.930 . S
H707 C699 0.929 . S
H708 C716 0.929 1_455 S
H709 C718 0.930 . S
H710 C720 0.930 . S
H711 C723 0.929 . S
H712 C726 0.930 . S
H713 C728 0.960 . S
H714 C728 0.960 . S
H715 C728 0.960 . S
C716 H708 0.929 1_655 S
C716 C717 1.377 . S
C716 C718 1.384 1_655 S
C717 C716 1.377 . S
C717 C723 1.390 . S
C718 H709 0.930 . S
C718 C716 1.384 1_455 S
C718 C719 1.361 1_455 S
C719 C718 1.361 1_655 S
C719 C720 1.418 . S
C719 C724 1.483 1_655 S
C720 H710 0.930 . S
C720 C719 1.418 . S
C720 C723 1.386 . S
H721 C737 0.930 . S
H722 C738 0.931 . S
C723 H711 0.929 . S
C723 C717 1.390 . S
C723 C720 1.386 . S
C724 C719 1.483 1_455 S
C724 C726 1.395 . S
C724 C727 1.403 . S
H725 C731 0.930 . S
C726 H712 0.930 . S
C726 C724 1.395 . S
C726 C729 1.403 . S
C727 C724 1.403 . S
C727 C728 1.524 . S
C727 C731 1.400 . S
C728 H713 0.960 . S
C728 H714 0.960 . S
C728 H715 0.960 . S
C728 C727 1.524 . S
C729 C726 1.403 . S
C729 C730 1.392 . S
C729 C733 1.495 . S
C730 C729 1.392 . S
C730 C731 1.385 . S
C730 C732 1.478 . S
C731 H725 0.930 . S
C731 C727 1.400 . S
C731 C730 1.385 . S
C732 C730 1.478 . S
C732 C734 1.381 . S
C732 C738 1.383 . S
C733 C729 1.495 . S
C733 H739 0.959 . S
C733 H740 0.961 . S
C733 H741 0.960 . S
C734 C732 1.381 . S
C734 C735 1.394 . S
C734 H742 0.930 . S
C735 C734 1.394 . S
C735 C736 1.383 . S
C735 H743 0.929 . S
C736 C735 1.383 . S
C736 C737 1.377 . S
C737 H721 0.930 . S
C737 C736 1.377 . S
C737 C738 1.379 . S
C738 H722 0.931 . S
C738 C732 1.383 . S
C738 C737 1.379 . S
H739 C733 0.959 . S
H740 C733 0.961 . S
H741 C733 0.960 . S
H742 C734 0.930 . S
H743 C735 0.929 . S
H744 C752 0.929 . S
H745 C754 0.930 . S
H746 C756 0.930 . S
H747 C759 0.929 1_545 S
H748 C762 0.926 1_565 S
H749 C764 0.960 . S
H750 C764 0.960 . S
H751 C764 0.960 . S
C752 H744 0.929 . S
C752 C753 1.377 . S
C752 C754 1.384 . S
C753 C752 1.377 . S
C753 C759 1.390 . S
C754 H745 0.930 . S
C754 C752 1.384 . S
C754 C755 1.372 . S
C755 C754 1.372 . S
C755 C756 1.400 1_565 S
C755 C760 1.490 1_565 S
C756 H746 0.930 . S
C756 C755 1.400 1_545 S
C756 C759 1.386 1_545 S
H757 C773 0.930 . S
H758 C774 0.931 . S
C759 H747 0.929 1_565 S
C759 C753 1.390 . S
C759 C756 1.386 1_565 S
C760 C755 1.490 1_545 S
C760 C762 1.395 . S
C760 C763 1.403 . S
H761 C767 0.930 . S
C762 H748 0.926 1_545 S
C762 C760 1.395 . S
C762 C765 1.407 . S
C763 C760 1.403 . S
C763 C764 1.524 . S
C763 C767 1.400 . S
C764 H749 0.960 . S
C764 H750 0.960 . S
C764 H751 0.960 . S
C764 C763 1.524 . S
C765 C762 1.407 . S
C765 C766 1.392 . S
C765 C769 1.495 1_545 S
C766 C765 1.392 . S
C766 C767 1.385 . S
C766 C768 1.478 . S
C767 H761 0.930 . S
C767 C763 1.400 . S
C767 C766 1.385 . S
C768 C766 1.478 . S
C768 C770 1.381 . S
C768 C774 1.383 . S
C769 C765 1.495 1_565 S
C769 H775 0.961 . S
C769 H776 0.957 1_565 S
C769 H777 0.961 . S
C770 C768 1.381 . S
C770 C771 1.394 . S
C770 H778 0.930 . S
C771 C770 1.394 . S
C771 C772 1.383 . S
C771 H779 0.929 . S
C772 C771 1.383 . S
C772 C773 1.377 . S
C773 H757 0.930 . S
C773 C772 1.377 . S
C773 C774 1.379 . S
C774 H758 0.931 . S
C774 C768 1.383 . S
C774 C773 1.379 . S
H775 C769 0.961 . S
H776 C769 0.957 1_545 S
H777 C769 0.961 . S
H778 C770 0.930 . S
H779 C771 0.929 . S
H780 C788 0.929 . S
H781 C790 0.930 . S
H782 C792 0.930 . S
H783 C795 0.929 . S
H784 C798 0.930 . S
H785 C800 0.960 . S
H786 C800 0.960 . S
H787 C800 0.960 . S
C788 H780 0.929 . S
C788 C789 1.377 . S
C788 C790 1.384 . S
C789 C788 1.377 . S
C789 C795 1.390 . S
C790 H781 0.930 . S
C790 C788 1.384 . S
C790 C791 1.372 . S
C791 C790 1.372 . S
C791 C792 1.400 . S
C791 C796 1.490 . S
C792 H782 0.930 . S
C792 C791 1.400 . S
C792 C795 1.386 . S
H793 C809 0.930 . S
H794 C810 0.931 . S
C795 H783 0.929 . S
C795 C789 1.390 . S
C795 C792 1.386 . S
C796 C791 1.490 . S
C796 C798 1.395 . S
C796 C799 1.403 . S
H797 C803 0.930 . S
C798 H784 0.930 . S
C798 C796 1.395 . S
C798 C801 1.403 . S
C799 C796 1.403 . S
C799 C800 1.524 . S
C799 C803 1.400 . S
C800 H785 0.960 . S
C800 H786 0.960 . S
C800 H787 0.960 . S
C800 C799 1.524 . S
C801 C798 1.403 . S
C801 C802 1.392 . S
C801 C805 1.495 . S
C802 C801 1.392 . S
C802 C803 1.385 . S
C802 C804 1.478 . S
C803 H797 0.930 . S
C803 C799 1.400 . S
C803 C802 1.385 . S
C804 C802 1.478 . S
C804 C806 1.381 . S
C804 C810 1.383 . S
C805 C801 1.495 . S
C805 H811 0.959 . S
C805 H812 0.961 . S
C805 H813 0.960 . S
C806 C804 1.381 . S
C806 C807 1.394 . S
C806 H814 0.930 . S
C807 C806 1.394 . S
C807 C808 1.383 . S
C807 H815 0.929 . S
C808 C807 1.383 . S
C808 C809 1.377 . S
C809 H793 0.930 . S
C809 C808 1.377 . S
C809 C810 1.379 . S
C810 H794 0.931 . S
C810 C804 1.383 . S
C810 C809 1.379 . S
H811 C805 0.959 . S
H812 C805 0.961 . S
H813 C805 0.960 . S
H814 C806 0.930 . S
H815 C807 0.929 . S
H816 C824 0.929 . S
H817 C826 0.930 . S
H818 C828 0.930 . S
H819 C831 0.929 . S
H820 C834 0.930 . S
H821 C836 0.960 . S
H822 C836 0.960 . S
H823 C836 0.960 . S
C824 H816 0.929 . S
C824 C825 1.377 . S
C824 C826 1.384 . S
C825 C824 1.377 . S
C825 C831 1.390 . S
C826 H817 0.930 . S
C826 C824 1.384 . S
C826 C827 1.372 . S
C827 C826 1.372 . S
C827 C828 1.400 . S
C827 C832 1.490 1_455 S
C828 H818 0.930 . S
C828 C827 1.400 . S
C828 C831 1.386 . S
H829 C845 0.930 . S
H830 C846 0.931 . S
C831 H819 0.929 . S
C831 C825 1.390 . S
C831 C828 1.386 . S
C832 C827 1.490 1_655 S
C832 C834 1.395 . S
C832 C835 1.403 . S
H833 C839 0.930 . S
C834 H820 0.930 . S
C834 C832 1.395 . S
C834 C837 1.403 . S
C835 C832 1.403 . S
C835 C836 1.524 1_655 S
C835 C839 1.400 . S
C836 H821 0.960 . S
C836 H822 0.960 . S
C836 H823 0.960 . S
C836 C835 1.524 1_455 S
C837 C834 1.403 . S
C837 C838 1.392 . S
C837 C841 1.495 . S
C838 C837 1.392 . S
C838 C839 1.385 . S
C838 C840 1.478 . S
C839 H833 0.930 . S
C839 C835 1.400 . S
C839 C838 1.385 . S
C840 C838 1.478 . S
C840 C842 1.381 . S
C840 C846 1.383 . S
C841 C837 1.495 . S
C841 H847 0.959 . S
C841 H848 0.961 . S
C841 H849 0.960 . S
C842 C840 1.381 . S
C842 C843 1.394 . S
C842 H850 0.930 . S
C843 C842 1.394 . S
C843 C844 1.383 . S
C843 H851 0.929 . S
C844 C843 1.383 . S
C844 C845 1.377 . S
C845 H829 0.930 . S
C845 C844 1.377 . S
C845 C846 1.379 . S
C846 H830 0.931 . S
C846 C840 1.383 . S
C846 C845 1.379 . S
H847 C841 0.959 . S
H848 C841 0.961 . S
H849 C841 0.960 . S
H850 C842 0.930 . S
H851 C843 0.929 . S
H852 C860 0.929 . S
H853 C862 0.929 1_565 S
H854 C864 0.930 . S
H855 C867 0.929 . S
H856 C870 0.930 1_545 S
H857 C872 0.960 . S
H858 C872 0.960 . S
H859 C872 0.960 . S
C860 H852 0.929 . S
C860 C861 1.377 . S
C860 C862 1.395 . S
C861 C860 1.377 . S
C861 C867 1.390 . S
C862 H853 0.929 1_545 S
C862 C860 1.395 . S
C862 C863 1.362 . S
C863 C862 1.362 . S
C863 C864 1.400 . S
C863 C868 1.490 1_545 S
C864 H854 0.930 . S
C864 C863 1.400 . S
C864 C867 1.386 . S
H865 C881 0.930 . S
H866 C882 0.931 . S
C867 H855 0.929 . S
C867 C861 1.390 . S
C867 C864 1.386 . S
C868 C863 1.490 1_565 S
C868 C870 1.395 . S
C868 C871 1.403 . S
H869 C875 0.930 . S
C870 H856 0.930 1_565 S
C870 C868 1.395 . S
C870 C873 1.403 . S
C871 C868 1.403 . S
C871 C872 1.524 . S
C871 C875 1.400 . S
C872 H857 0.960 . S
C872 H858 0.960 . S
C872 H859 0.960 . S
C872 C871 1.524 . S
C873 C870 1.403 . S
C873 C874 1.392 . S
C873 C877 1.495 . S
C874 C873 1.392 . S
C874 C875 1.385 . S
C874 C876 1.478 . S
C875 H869 0.930 . S
C875 C871 1.400 . S
C875 C874 1.385 . S
C876 C874 1.478 . S
C876 C878 1.381 . S
C876 C882 1.383 . S
C877 C873 1.495 . S
C877 H883 0.959 1_565 S
C877 H884 0.961 . S
C877 H885 0.960 . S
C878 C876 1.381 . S
C878 C879 1.394 . S
C878 H886 0.930 . S
C879 C878 1.394 . S
C879 C880 1.383 . S
C879 H887 0.929 . S
C880 C879 1.383 . S
C880 C881 1.377 . S
C881 H865 0.930 . S
C881 C880 1.377 . S
C881 C882 1.379 . S
C882 H866 0.931 . S
C882 C876 1.383 . S
C882 C881 1.379 . S
H883 C877 0.959 1_545 S
H884 C877 0.961 . S
H885 C877 0.960 . S
H886 C878 0.930 . S
H887 C879 0.929 . S
C249 C171 1.160 . S
C268 C7 1.160 . S
C285 C211 1.158 . S
C304 C47 1.161 . S
C321 C11 1.155 . S
C340 C87 1.160 . S
C357 C51 1.157 . S
C376 C127 1.161 . S
C393 C91 1.155 . S
C412 C167 1.161 . S
C429 C131 1.158 . S
C448 C207 1.158 . S
C465 C10 0.656 . S
C484 C130 0.734 . S
C501 C170 0.627 . S
C520 C50 0.591 . S
C537 C210 0.632 . S
C556 C90 0.555 . S
C573 C99 0.588 . S
C592 C219 0.583 . S
C609 C19 0.590 . S
C628 C139 0.603 . S
C645 C179 0.588 . S
C664 C59 0.579 . S
C681 C202 1.248 . S
C700 C16 1.212 . S
C717 C56 1.230 . S
C736 C2 1.246 . S
C753 C96 1.236 . S
C772 C42 1.249 . S
C789 C82 1.249 . S
C808 C136 1.249 . S
C825 C176 1.229 . S
C844 C122 1.243 . S
C861 C216 1.232 . S
C880 C162 1.247 . S
