# Generated by pormake.
# Topology wjz, (5)-cn, num edge types: 1
# Building blocks:
#     Node 0, Type 0, BuildingBlock: XOMCOT_clean_sbu_1, # of connection points: 5
#     Node 1, Type 0, BuildingBlock: XOMCOT_clean_sbu_1, # of connection points: 5
#     Node 2, Type 0, BuildingBlock: XOMCOT_clean_sbu_1, # of connection points: 5
#     Node 3, Type 0, BuildingBlock: XOMCOT_clean_sbu_1, # of connection points: 5
#     Node 4, Type 0, BuildingBlock: XOMCOT_clean_sbu_1, # of connection points: 5
#     Node 5, Type 0, BuildingBlock: XOMCOT_clean_sbu_1, # of connection points: 5
#     Node 6, Type 0, BuildingBlock: XOMCOT_clean_sbu_1, # of connection points: 5
#     Node 7, Type 0, BuildingBlock: XOMCOT_clean_sbu_1, # of connection points: 5
#     Node 8, Type 0, BuildingBlock: XOMCOT_clean_sbu_1, # of connection points: 5
#     Node 9, Type 0, BuildingBlock: XOMCOT_clean_sbu_1, # of connection points: 5
#     Node 10, Type 0, BuildingBlock: XOMCOT_clean_sbu_1, # of connection points: 5
#     Node 11, Type 0, BuildingBlock: XOMCOT_clean_sbu_1, # of connection points: 5
#     Edge 12, Type (0, 0), BuildingBlock: CIFDUS_clean_linker_0, # of connection points: 2
#     Edge 13, Type (0, 0), BuildingBlock: CIFDUS_clean_linker_0, # of connection points: 2
#     Edge 14, Type (0, 0), BuildingBlock: CIFDUS_clean_linker_0, # of connection points: 2
#     Edge 15, Type (0, 0), BuildingBlock: CIFDUS_clean_linker_0, # of connection points: 2
#     Edge 16, Type (0, 0), BuildingBlock: CIFDUS_clean_linker_0, # of connection points: 2
#     Edge 17, Type (0, 0), BuildingBlock: CIFDUS_clean_linker_0, # of connection points: 2
#     Edge 18, Type (0, 0), BuildingBlock: CIFDUS_clean_linker_0, # of connection points: 2
#     Edge 19, Type (0, 0), BuildingBlock: CIFDUS_clean_linker_0, # of connection points: 2
#     Edge 20, Type (0, 0), BuildingBlock: CIFDUS_clean_linker_0, # of connection points: 2
#     Edge 21, Type (0, 0), BuildingBlock: CIFDUS_clean_linker_0, # of connection points: 2
#     Edge 22, Type (0, 0), BuildingBlock: CIFDUS_clean_linker_0, # of connection points: 2
#     Edge 23, Type (0, 0), BuildingBlock: CIFDUS_clean_linker_0, # of connection points: 2
#     Edge 24, Type (0, 0), BuildingBlock: CIFDUS_clean_linker_0, # of connection points: 2
#     Edge 25, Type (0, 0), BuildingBlock: CIFDUS_clean_linker_0, # of connection points: 2
#     Edge 26, Type (0, 0), BuildingBlock: CIFDUS_clean_linker_0, # of connection points: 2
#     Edge 27, Type (0, 0), BuildingBlock: CIFDUS_clean_linker_0, # of connection points: 2
#     Edge 28, Type (0, 0), BuildingBlock: CIFDUS_clean_linker_0, # of connection points: 2
#     Edge 29, Type (0, 0), BuildingBlock: CIFDUS_clean_linker_0, # of connection points: 2
#     Edge 30, Type (0, 0), BuildingBlock: CIFDUS_clean_linker_0, # of connection points: 2
#     Edge 31, Type (0, 0), BuildingBlock: CIFDUS_clean_linker_0, # of connection points: 2
#     Edge 32, Type (0, 0), BuildingBlock: CIFDUS_clean_linker_0, # of connection points: 2
#     Edge 33, Type (0, 0), BuildingBlock: CIFDUS_clean_linker_0, # of connection points: 2
#     Edge 34, Type (0, 0), BuildingBlock: CIFDUS_clean_linker_0, # of connection points: 2
#     Edge 35, Type (0, 0), BuildingBlock: CIFDUS_clean_linker_0, # of connection points: 2
#     Edge 36, Type (0, 0), BuildingBlock: CIFDUS_clean_linker_0, # of connection points: 2
#     Edge 37, Type (0, 0), BuildingBlock: CIFDUS_clean_linker_0, # of connection points: 2
#     Edge 38, Type (0, 0), BuildingBlock: CIFDUS_clean_linker_0, # of connection points: 2
#     Edge 39, Type (0, 0), BuildingBlock: CIFDUS_clean_linker_0, # of connection points: 2
#     Edge 40, Type (0, 0), BuildingBlock: CIFDUS_clean_linker_0, # of connection points: 2
#     Edge 41, Type (0, 0), BuildingBlock: CIFDUS_clean_linker_0, # of connection points: 2
# Relax obj value: 0.176
# Max RMSD: 0.193
# Mean RMSD: 0.193
data_MOF--net-wjz--node1-XOMCOT_clean_sbu_1--edge1-CIFDUS_clean_linker_0
_symmetry_space_group_name_H-M    P1
_symmetry_Int_Tables_number       1
_symmetry_cell_setting            triclinic
loop_
_symmetry_equiv_pos_as_xyz
'x, y, z'
_cell_length_a     65.286026
_cell_length_b     65.337992
_cell_length_c     15.544005
_cell_angle_alpha  90.060712
_cell_angle_beta   89.981359
_cell_angle_gamma 120.02368
loop_
_atom_site_label
_atom_site_type_symbol
_atom_site_fract_x
_atom_site_fract_y
_atom_site_fract_z
_atom_type_partial_charge
C0 C 0.32386 0.45258 0.03906 0.0
C1 C 0.321 0.45075 0.95111 0.0
N2 N 0.32324 0.47114 0.92152 0.0
N3 N 0.32833 0.4742 0.06416 0.0
C4 C 0.32726 0.48483 0.99142 0.0
H5 H 0.32343 0.43927 0.08144 0.0
Co6 Co 0.33639 0.48751 0.17311 0.0
C7 C 0.37721 0.53602 0.13989 0.0
O8 O 0.38791 0.53567 0.21104 0.0
N9 N 0.34364 0.50068 0.28381 0.0
C10 C 0.34609 0.5228 0.39692 0.0
C11 C 0.34483 0.5211 0.30863 0.0
C12 C 0.34355 0.49008 0.35842 0.0
N13 N 0.34527 0.50319 0.42792 0.0
O14 O 0.31073 0.49343 0.17046 0.0
H15 H 0.34367 0.53345 0.26548 0.0
H16 H 0.34032 0.47228 0.36318 0.0
O17 O 0.35714 0.51827 0.12052 0.0
C18 C 0.2915 0.47502 0.19117 0.0
O19 O 0.2918 0.45536 0.20579 0.0
N20 N 0.36052 0.4797 0.17722 0.0
C21 C 0.38958 0.45963 0.18195 0.0
C22 C 0.39581 0.4798 0.13203 0.0
C23 C 0.38077 0.48929 0.12907 0.0
C24 C 0.35381 0.45952 0.22265 0.0
C25 C 0.36827 0.44959 0.22797 0.0
H26 H 0.38493 0.50341 0.08431 0.0
H27 H 0.33646 0.45034 0.25172 0.0
H28 H 0.33026 0.50264 0.98925 0.0
H29 H 0.318 0.43581 0.91184 0.0
H30 H 0.34674 0.53696 0.4352 0.0
H31 H 0.41156 0.48748 0.09236 0.0
H32 H 0.36245 0.4338 0.26627 0.0
C33 C 0.83831 0.29757 0.14176 0.0
C34 C 0.84055 0.29749 0.05366 0.0
N35 N 0.85043 0.31994 0.02528 0.0
N36 N 0.84654 0.31996 0.16898 0.0
C37 C 0.85434 0.33312 0.09668 0.0
H38 H 0.83046 0.28206 0.18208 0.0
Co39 Co 0.84588 0.33196 0.27799 0.0
C40 C 0.82048 0.35762 0.22522 0.0
O41 O 0.80481 0.34947 0.28757 0.0
N42 N 0.84565 0.34405 0.38646 0.0
C43 C 0.84875 0.36609 0.5005 0.0
C44 C 0.8492 0.36538 0.41169 0.0
C45 C 0.84346 0.33238 0.46042 0.0
N46 N 0.84493 0.34514 0.53047 0.0
O47 O 0.81335 0.30847 0.29205 0.0
H48 H 0.85233 0.37966 0.36873 0.0
H49 H 0.84168 0.31508 0.46368 0.0
O50 O 0.83677 0.35236 0.22146 0.0
C51 C 0.811 0.28992 0.32795 0.0
O52 O 0.83005 0.28835 0.34135 0.0
N53 N 0.87781 0.3538 0.26842 0.0
C54 C 0.92685 0.38153 0.26654 0.0
C55 C 0.91267 0.39129 0.24448 0.0
C56 C 0.88802 0.37708 0.24614 0.0
C57 C 0.89123 0.34412 0.29086 0.0
C58 C 0.91578 0.35765 0.29051 0.0
H59 H 0.87732 0.38484 0.22965 0.0
H60 H 0.88268 0.32574 0.30972 0.0
H61 H 0.86174 0.35206 0.09612 0.0
H62 H 0.8348 0.28199 0.01369 0.0
H63 H 0.85095 0.38074 0.53979 0.0
H64 H 0.92051 0.40962 0.22527 0.0
H65 H 0.92597 0.34949 0.30991 0.0
C66 C 0.52736 0.8516 0.32684 0.0
C67 C 0.52938 0.85024 0.23905 0.0
N68 N 0.50776 0.83524 0.20714 0.0
N69 N 0.50452 0.83778 0.34969 0.0
C70 C 0.49313 0.82774 0.27559 0.0
H71 H 0.54144 0.86276 0.3707 0.0
Co72 Co 0.49172 0.8363 0.45797 0.0
C73 C 0.44485 0.83136 0.41448 0.0
O74 O 0.44695 0.84625 0.47549 0.0
N75 N 0.47909 0.83426 0.56876 0.0
C76 C 0.45642 0.81824 0.68442 0.0
C77 C 0.45715 0.81819 0.59605 0.0
C78 C 0.49148 0.84319 0.64233 0.0
N79 N 0.47813 0.83394 0.71339 0.0
O80 O 0.48463 0.80458 0.4713 0.0
H81 H 0.44301 0.80575 0.55506 0.0
H82 H 0.51044 0.85431 0.64481 0.0
O83 O 0.46101 0.826 0.40449 0.0
C84 C 0.50244 0.80616 0.51077 0.0
O85 O 0.52129 0.82722 0.51913 0.0
N86 N 0.50103 0.86842 0.44809 0.0
C87 C 0.52329 0.91755 0.43897 0.0
C88 C 0.50373 0.90342 0.3865 0.0
C89 C 0.49318 0.87877 0.39042 0.0
C90 C 0.52076 0.88204 0.49565 0.0
C91 C 0.53176 0.90651 0.49393 0.0
H92 H 0.47955 0.86829 0.34438 0.0
H93 H 0.52886 0.87391 0.53185 0.0
H94 H 0.47424 0.81612 0.27081 0.0
H95 H 0.54536 0.86002 0.20143 0.0
H96 H 0.4414 0.8067 0.72406 0.0
H97 H 0.49732 0.91134 0.34044 0.0
H98 H 0.54713 0.91668 0.53424 0.0
C99 C 0.68171 0.55087 0.48161 0.0
C100 C 0.6834 0.55287 0.39315 0.0
N101 N 0.67327 0.53095 0.35992 0.0
N102 N 0.6704 0.52776 0.50319 0.0
C103 C 0.66587 0.51616 0.42753 0.0
H104 H 0.687 0.56521 0.52701 0.0
Co105 Co 0.65963 0.51502 0.61213 0.0
C106 C 0.62876 0.46447 0.55635 0.0
O107 O 0.63921 0.45592 0.6047 0.0
N108 N 0.64916 0.50266 0.72124 0.0
C109 C 0.62832 0.48445 0.83757 0.0
C110 C 0.62776 0.48577 0.74924 0.0
C111 C 0.66227 0.51144 0.79303 0.0
N112 N 0.6501 0.50073 0.86502 0.0
O113 O 0.68129 0.50356 0.61538 0.0
H114 H 0.61247 0.47565 0.70876 0.0
H115 H 0.68006 0.52639 0.79262 0.0
O116 O 0.63538 0.4864 0.55908 0.0
C117 C 0.7012 0.5204 0.64052 0.0
O118 O 0.70377 0.54163 0.64691 0.0
N119 N 0.63977 0.52778 0.61327 0.0
C120 C 0.61309 0.55002 0.63109 0.0
C121 C 0.60755 0.53284 0.56705 0.0
C122 C 0.62121 0.52192 0.55901 0.0
C123 C 0.64585 0.54492 0.67376 0.0
C124 C 0.63256 0.55597 0.68482 0.0
H125 H 0.61701 0.50907 0.50867 0.0
H126 H 0.66108 0.54991 0.71438 0.0
H127 H 0.65625 0.49716 0.42101 0.0
H128 H 0.68988 0.56897 0.35615 0.0
H129 H 0.61365 0.4727 0.87819 0.0
H130 H 0.59305 0.5281 0.52278 0.0
H131 H 0.63742 0.56889 0.73581 0.0
C132 C 0.11962 0.66785 0.71476 0.0
C133 C 0.11781 0.66994 0.62736 0.0
N134 N 0.13269 0.66441 0.58673 0.0
N135 N 0.1354 0.66077 0.73042 0.0
C136 C 0.14332 0.65917 0.65125 0.0
H137 H 0.10968 0.67088 0.76375 0.0
Co138 Co 0.14277 0.65359 0.83985 0.0
C139 C 0.1526 0.61379 0.79502 0.0
O140 O 0.14793 0.60348 0.87064 0.0
N141 N 0.15077 0.64711 0.9509 0.0
C142 C 0.17308 0.6451 0.05563 0.0
C143 C 0.1707 0.64644 0.96823 0.0
C144 C 0.14182 0.64699 0.03015 0.0
N145 N 0.15494 0.64555 0.095 0.0
O146 O 0.17435 0.67875 0.8285 0.0
H147 H 0.1834 0.64794 0.92036 0.0
H148 H 0.12647 0.64877 0.041 0.0
O149 O 0.15086 0.63215 0.78279 0.0
C150 C 0.17604 0.6975 0.86004 0.0
O151 O 0.15667 0.69682 0.88764 0.0
N152 N 0.11108 0.63015 0.85324 0.0
C153 C 0.06181 0.60419 0.86288 0.0
C154 C 0.0743 0.59561 0.81568 0.0
C155 C 0.09904 0.60903 0.81092 0.0
C156 C 0.09918 0.63843 0.90026 0.0
C157 C 0.07469 0.62558 0.90745 0.0
H158 H 0.10807 0.60299 0.76903 0.0
H159 H 0.10872 0.65588 0.92847 0.0
H160 H 0.1567 0.65429 0.64128 0.0
H161 H 0.10585 0.6746 0.59656 0.0
H162 H 0.18778 0.64509 0.08779 0.0
H163 H 0.06502 0.57944 0.7787 0.0
H164 H 0.06586 0.63289 0.94488 0.0
C165 C 0.46551 0.13118 0.90418 0.0
C166 C 0.46139 0.13004 0.81682 0.0
N167 N 0.48231 0.14248 0.77583 0.0
N168 N 0.48893 0.14427 0.91898 0.0
C169 C 0.49867 0.15107 0.83954 0.0
H170 H 0.45234 0.1224 0.95378 0.0
Co171 Co 0.50325 0.14883 0.02811 0.0
C172 C 0.54987 0.155 0.97719 0.0
O173 O 0.54842 0.14026 0.03762 0.0
N174 N 0.51756 0.15419 0.14009 0.0
C175 C 0.54364 0.17161 0.24657 0.0
C176 C 0.54032 0.1701 0.15905 0.0
C177 C 0.50717 0.14744 0.21894 0.0
N178 N 0.52277 0.15733 0.2847 0.0
O179 O 0.50799 0.17986 0.03298 0.0
H180 H 0.55361 0.18123 0.1129 0.0
H181 H 0.48836 0.13647 0.2287 0.0
O182 O 0.53371 0.16048 0.97071 0.0
C183 C 0.49068 0.17944 0.07212 0.0
O184 O 0.47289 0.15883 0.09532 0.0
N185 N 0.49668 0.11717 0.02478 0.0
C186 C 0.47978 0.06857 0.01801 0.0
C187 C 0.49476 0.08352 0.95349 0.0
C188 C 0.50277 0.10775 0.95744 0.0
C189 C 0.48117 0.10257 0.08533 0.0
C190 C 0.47302 0.07838 0.08459 0.0
H191 H 0.51306 0.11869 0.9043 0.0
H192 H 0.47377 0.10931 0.13143 0.0
H193 H 0.51746 0.1619 0.8283 0.0
H194 H 0.44431 0.12007 0.78598 0.0
H195 H 0.55997 0.18339 0.27966 0.0
H196 H 0.49974 0.07648 0.89939 0.0
H197 H 0.46043 0.06725 0.13301 0.0
C198 C 0.55333 0.68719 0.91908 0.0
C199 C 0.55362 0.68902 0.00737 0.0
N200 N 0.53208 0.68462 0.03328 0.0
N201 N 0.5316 0.6814 0.89026 0.0
C202 C 0.51935 0.68055 0.96094 0.0
H203 H 0.56785 0.6894 0.87921 0.0
Co204 Co 0.51884 0.67453 0.78105 0.0
C205 C 0.4708 0.63028 0.81311 0.0
O206 O 0.46688 0.62161 0.73472 0.0
N207 N 0.50603 0.66846 0.67175 0.0
C208 C 0.48436 0.66799 0.56067 0.0
C209 C 0.48485 0.66567 0.64832 0.0
C210 C 0.51826 0.67307 0.5978 0.0
N211 N 0.50556 0.67289 0.52951 0.0
O212 O 0.50803 0.69642 0.79435 0.0
H213 H 0.4713 0.66392 0.69268 0.0
H214 H 0.53662 0.67795 0.59402 0.0
O215 O 0.48971 0.64953 0.83084 0.0
C216 C 0.52449 0.71777 0.78707 0.0
O217 O 0.54654 0.72242 0.78543 0.0
N218 N 0.53117 0.65437 0.7645 0.0
C219 C 0.55638 0.63105 0.73317 0.0
C220 C 0.5344 0.61945 0.77511 0.0
C221 C 0.52212 0.63152 0.79098 0.0
C222 C 0.55283 0.66604 0.72644 0.0
C223 C 0.56554 0.65468 0.7088 0.0
H224 H 0.50584 0.62252 0.82654 0.0
H225 H 0.56043 0.68455 0.71048 0.0
H226 H 0.5012 0.6767 0.95917 0.0
H227 H 0.56823 0.69234 0.04915 0.0
H228 H 0.47021 0.66779 0.52372 0.0
H229 H 0.52702 0.60144 0.79753 0.0
H230 H 0.58242 0.66441 0.67634 0.0
C231 C 0.8674 0.54215 0.99453 0.0
C232 C 0.86946 0.54616 0.0819 0.0
N233 N 0.85295 0.52649 0.12213 0.0
N234 N 0.84973 0.51998 0.97885 0.0
C235 C 0.84111 0.51097 0.05782 0.0
H236 H 0.87846 0.55445 0.94548 0.0
Co237 Co 0.8416 0.50585 0.86903 0.0
C238 C 0.82912 0.45617 0.90493 0.0
O239 O 0.83981 0.4555 0.83418 0.0
N240 N 0.83286 0.49193 0.757 0.0
C241 C 0.8097 0.46821 0.65224 0.0
C242 C 0.8123 0.47191 0.73959 0.0
C243 C 0.84188 0.50057 0.6777 0.0
N244 N 0.8283 0.48631 0.61303 0.0
O245 O 0.8117 0.50391 0.87545 0.0
H246 H 0.79936 0.46107 0.78737 0.0
H247 H 0.85761 0.51734 0.6664 0.0
O248 O 0.82857 0.47491 0.92377 0.0
C249 C 0.81321 0.52341 0.8545 0.0
O250 O 0.83428 0.5419 0.84201 0.0
N251 N 0.87203 0.50968 0.86054 0.0
C252 C 0.92053 0.5257 0.85459 0.0
C253 C 0.90567 0.50729 0.91023 0.0
C254 C 0.88148 0.49981 0.91341 0.0
C255 C 0.88638 0.52792 0.80796 0.0
C256 C 0.91043 0.53571 0.80193 0.0
H257 H 0.8709 0.48728 0.96241 0.0
H258 H 0.87943 0.53763 0.77475 0.0
H259 H 0.82636 0.49343 0.06798 0.0
H260 H 0.88264 0.56218 0.1132 0.0
H261 H 0.79465 0.4539 0.61994 0.0
H262 H 0.91285 0.49972 0.9546 0.0
H263 H 0.92116 0.55018 0.75879 0.0
C264 C 0.3278 0.88113 0.10417 0.0
C265 C 0.32549 0.88065 0.19235 0.0
N266 N 0.32427 0.86068 0.22153 0.0
N267 N 0.32857 0.86179 0.07831 0.0
C268 C 0.3257 0.84941 0.15119 0.0
H269 H 0.32934 0.89503 0.06243 0.0
Co270 Co 0.33436 0.85372 0.96926 0.0
C271 C 0.36347 0.82998 0.03006 0.0
O272 O 0.36395 0.81765 0.9642 0.0
N273 N 0.33945 0.84523 0.85986 0.0
C274 C 0.33621 0.82318 0.74581 0.0
C275 C 0.33485 0.82361 0.83398 0.0
C276 C 0.34296 0.85741 0.78593 0.0
N277 N 0.34119 0.84449 0.71559 0.0
O278 O 0.30664 0.82363 0.97865 0.0
H279 H 0.32886 0.80844 0.87559 0.0
H280 H 0.34471 0.8747 0.78273 0.0
O281 O 0.35286 0.84185 0.0246 0.0
C282 C 0.28749 0.82362 0.96405 0.0
O283 O 0.2883 0.84389 0.95118 0.0
N284 N 0.36104 0.88402 0.95775 0.0
C285 C 0.39622 0.93119 0.93959 0.0
C286 C 0.40154 0.91462 0.97454 0.0
C287 C 0.38369 0.89101 0.98261 0.0
C288 C 0.35569 0.89994 0.92326 0.0
C289 C 0.37301 0.92355 0.91298 0.0
H290 H 0.38831 0.87872 0.00985 0.0
H291 H 0.33764 0.89421 0.90462 0.0
H292 H 0.32582 0.83292 0.15323 0.0
H293 H 0.3251 0.89408 0.23201 0.0
H294 H 0.3326 0.80797 0.70706 0.0
H295 H 0.41932 0.91989 0.99566 0.0
H296 H 0.36809 0.93587 0.88695 0.0
C297 C 0.44142 0.31267 0.35298 0.0
C298 C 0.43784 0.31202 0.44045 0.0
N299 N 0.45877 0.31975 0.48036 0.0
N300 N 0.46455 0.32091 0.33723 0.0
C301 C 0.47465 0.32484 0.41622 0.0
H302 H 0.42807 0.30785 0.30375 0.0
Co303 Co 0.47823 0.3268 0.22709 0.0
C304 C 0.52504 0.36979 0.2565 0.0
O305 O 0.52292 0.37959 0.18574 0.0
N306 N 0.49199 0.33202 0.1152 0.0
C307 C 0.51743 0.33534 0.01282 0.0
C308 C 0.5138 0.33528 0.0998 0.0
C309 C 0.48245 0.32925 0.03532 0.0
N310 N 0.49763 0.33141 0.97171 0.0
O311 O 0.48525 0.30219 0.24136 0.0
H312 H 0.52611 0.33656 0.14893 0.0
H313 H 0.46428 0.32424 0.02344 0.0
O314 O 0.50864 0.3492 0.27805 0.0
C315 C 0.46739 0.28189 0.22785 0.0
O316 O 0.4467 0.28013 0.21438 0.0
N317 N 0.46933 0.34978 0.21127 0.0
C318 C 0.44657 0.37611 0.19394 0.0
C319 C 0.46568 0.3834 0.25079 0.0
C320 C 0.47653 0.36969 0.2599 0.0
C321 C 0.45031 0.34214 0.15821 0.0
C322 C 0.43912 0.35529 0.14665 0.0
H323 H 0.48963 0.37439 0.30974 0.0
H324 H 0.44273 0.3249 0.12886 0.0
H325 H 0.49339 0.33197 0.42664 0.0
H326 H 0.42107 0.30631 0.47214 0.0
H327 H 0.53337 0.33759 0.98271 0.0
H328 H 0.47132 0.39878 0.29144 0.0
H329 H 0.42416 0.34868 0.10324 0.0
C330 C 0.12808 0.46586 0.45329 0.0
C331 C 0.12798 0.46428 0.54193 0.0
N332 N 0.14299 0.48595 0.57312 0.0
N333 N 0.14297 0.48846 0.42994 0.0
C334 C 0.15216 0.50003 0.50419 0.0
H335 H 0.11715 0.45179 0.40903 0.0
Co336 Co 0.14813 0.50193 0.32139 0.0
C337 C 0.14679 0.54592 0.36249 0.0
O338 O 0.13222 0.54191 0.29801 0.0
N339 N 0.15432 0.5151 0.21081 0.0
C340 C 0.16829 0.53825 0.09543 0.0
C341 C 0.16542 0.53777 0.18319 0.0
C342 C 0.15234 0.50247 0.13939 0.0
N343 N 0.15999 0.51593 0.06823 0.0
O344 O 0.18045 0.51013 0.32753 0.0
H345 H 0.17232 0.55323 0.22371 0.0
H346 H 0.14591 0.48368 0.13978 0.0
O347 O 0.15516 0.53214 0.37456 0.0
C348 C 0.18204 0.49238 0.30313 0.0
O349 O 0.16239 0.47259 0.28593 0.0
N350 N 0.11538 0.49192 0.31356 0.0
C351 C 0.06605 0.47069 0.30545 0.0
C352 C 0.07867 0.48538 0.37477 0.0
C353 C 0.10329 0.49561 0.37809 0.0
C354 C 0.10316 0.47719 0.2472 0.0
C355 C 0.07877 0.46708 0.24044 0.0
H356 H 0.1125 0.50572 0.43449 0.0
H357 H 0.11188 0.47203 0.20093 0.0
H358 H 0.16489 0.51864 0.50835 0.0
H359 H 0.11674 0.44887 0.58042 0.0
H360 H 0.17665 0.55387 0.05528 0.0
H361 H 0.06957 0.4881 0.42793 0.0
H362 H 0.06991 0.45584 0.18566 0.0
C363 C 0.67581 0.11647 0.63853 0.0
C364 C 0.67895 0.11581 0.72597 0.0
N365 N 0.67367 0.13103 0.76523 0.0
N366 N 0.66845 0.13197 0.62141 0.0
C367 C 0.66764 0.14079 0.69991 0.0
H368 H 0.67805 0.10573 0.59063 0.0
Co369 Co 0.65888 0.13709 0.51136 0.0
C370 C 0.63235 0.1589 0.59081 0.0
O371 O 0.64565 0.18 0.55758 0.0
N372 N 0.64921 0.14191 0.4017 0.0
C373 C 0.62702 0.14251 0.2943 0.0
C374 C 0.62851 0.14065 0.38193 0.0
C375 C 0.65992 0.14434 0.32426 0.0
N376 N 0.64676 0.14479 0.25725 0.0
O377 O 0.6819 0.16967 0.51738 0.0
H378 H 0.61473 0.13744 0.42755 0.0
H379 H 0.67681 0.14516 0.31728 0.0
O380 O 0.63586 0.14199 0.5708 0.0
C381 C 0.7022 0.17221 0.5026 0.0
O382 O 0.70404 0.1533 0.49006 0.0
N383 N 0.6377 0.10493 0.50088 0.0
C384 C 0.61104 0.0565 0.47158 0.0
C385 C 0.60311 0.06757 0.52933 0.0
C386 C 0.61677 0.09192 0.54331 0.0
C387 C 0.64558 0.0945 0.44434 0.0
C388 C 0.63248 0.07034 0.42826 0.0
H389 H 0.61059 0.10004 0.58891 0.0
H390 H 0.66232 0.10509 0.41199 0.0
H391 H 0.66251 0.154 0.70916 0.0
H392 H 0.68386 0.10421 0.75809 0.0
H393 H 0.61191 0.14114 0.26039 0.0
H394 H 0.58682 0.05745 0.56505 0.0
H395 H 0.63916 0.06259 0.38249 0.0
H396 H 0.32662 0.51521 0.56025 0.0
H397 H 0.36002 0.47464 0.49434 0.0
H398 H 0.35499 0.46004 0.64162 0.0
H399 H 0.34132 0.45897 0.78922 0.0
H400 H 0.30884 0.5002 0.85692 0.0
H401 H 0.31347 0.51461 0.70893 0.0
C402 C 0.33307 0.50343 0.57838 0.0
C403 C 0.3436 0.49596 0.5163 0.0
C404 C 0.33017 0.49515 0.6633 0.0
C405 C 0.35157 0.4804 0.54064 0.0
C406 C 0.34876 0.47209 0.62486 0.0
C407 C 0.33495 0.47083 0.77116 0.0
C408 C 0.32459 0.47838 0.83345 0.0
C409 C 0.33794 0.47922 0.68652 0.0
C410 C 0.31693 0.49421 0.80987 0.0
C411 C 0.31957 0.50244 0.72542 0.0
H412 H 0.8261 0.29439 0.88682 0.0
H413 H 0.88041 0.3641 0.96511 0.0
H414 H 0.88261 0.37859 0.81895 0.0
H415 H 0.86926 0.37135 0.66752 0.0
H416 H 0.81592 0.30129 0.59 0.0
H417 H 0.81337 0.28699 0.73679 0.0
C418 C 0.83871 0.31266 0.87198 0.0
C419 C 0.85304 0.32805 0.93741 0.0
C420 C 0.84001 0.32086 0.78765 0.0
C421 C 0.86894 0.35184 0.9166 0.0
C422 C 0.87027 0.36017 0.8328 0.0
C423 C 0.85697 0.35305 0.68329 0.0
C424 C 0.84283 0.33739 0.61825 0.0
C425 C 0.85581 0.34486 0.76782 0.0
C426 C 0.82715 0.3136 0.63896 0.0
C427 C 0.82566 0.30543 0.72283 0.0
H428 H 0.52686 0.86559 0.07497 0.0
H429 H 0.47238 0.79488 0.13998 0.0
H430 H 0.45809 0.78812 0.99153 0.0
H431 H 0.46077 0.80259 0.84409 0.0
H432 H 0.51464 0.8737 0.77985 0.0
H433 H 0.52975 0.87995 0.92696 0.0
C434 C 0.51212 0.84859 0.05625 0.0
C435 C 0.50073 0.83073 0.11823 0.0
C436 C 0.50384 0.84496 0.97112 0.0
C437 C 0.48132 0.80893 0.09345 0.0
C438 C 0.47317 0.80507 0.00867 0.0
C439 C 0.47562 0.81955 0.86241 0.0
C440 C 0.48649 0.83768 0.801 0.0
C441 C 0.48413 0.82305 0.94719 0.0
C442 C 0.50608 0.85939 0.82564 0.0
C443 C 0.51468 0.863 0.9098 0.0
H444 H 0.62313 0.49287 0.00635 0.0
H445 H 0.69557 0.52337 0.92174 0.0
H446 H 0.70941 0.53657 0.06794 0.0
H447 H 0.70087 0.53951 0.22144 0.0
H448 H 0.62853 0.50748 0.3052 0.0
H449 H 0.61459 0.49448 0.15831 0.0
C450 C 0.64192 0.50208 0.01971 0.0
C451 C 0.6582 0.50721 0.95252 0.0
C452 C 0.64978 0.50938 0.10411 0.0
C453 C 0.68257 0.51951 0.97159 0.0
C454 C 0.69054 0.527 0.05542 0.0
C455 C 0.68213 0.52976 0.20666 0.0
C456 C 0.66564 0.52425 0.27296 0.0
C457 C 0.67432 0.52217 0.12216 0.0
C458 C 0.64136 0.51153 0.25451 0.0
C459 C 0.63346 0.50422 0.17078 0.0
H460 H 0.13444 0.66704 0.18 0.0
H461 H 0.1687 0.62597 0.21932 0.0
H462 H 0.1657 0.62882 0.37483 0.0
H463 H 0.15289 0.64252 0.50064 0.0
H464 H 0.11925 0.68428 0.46074 0.0
H465 H 0.12209 0.68117 0.30604 0.0
C466 C 0.14095 0.65842 0.22245 0.0
C467 C 0.15179 0.64629 0.18724 0.0
C468 C 0.13916 0.66012 0.31252 0.0
C469 C 0.16047 0.63562 0.24404 0.0
C470 C 0.15865 0.63713 0.33334 0.0
C471 C 0.14624 0.65107 0.45863 0.0
C472 C 0.13556 0.66337 0.49411 0.0
C473 C 0.14806 0.64938 0.36854 0.0
C474 C 0.12714 0.67426 0.43691 0.0
C475 C 0.12885 0.6726 0.34765 0.0
H476 H 0.52214 0.1514 0.68945 0.0
H477 H 0.45124 0.13875 0.65202 0.0
H478 H 0.45705 0.14135 0.49653 0.0
H479 H 0.48248 0.14773 0.36975 0.0
H480 H 0.55344 0.1608 0.40827 0.0
H481 H 0.54748 0.15787 0.56364 0.0
C482 C 0.508 0.14945 0.64764 0.0
C483 C 0.48622 0.14484 0.68344 0.0
C484 C 0.51147 0.15107 0.5577 0.0
C485 C 0.46808 0.14202 0.62709 0.0
C486 C 0.47142 0.1436 0.53774 0.0
C487 C 0.49655 0.14971 0.41202 0.0
C488 C 0.51844 0.15457 0.37671 0.0
C489 C 0.49302 0.14806 0.50209 0.0
C490 C 0.53654 0.15737 0.43318 0.0
C491 C 0.53311 0.1556 0.52233 0.0
H492 H 0.47951 0.65665 0.38669 0.0
H493 H 0.55044 0.70313 0.47801 0.0
H494 H 0.56499 0.71152 0.3306 0.0
H495 H 0.55766 0.70466 0.17588 0.0
H496 H 0.4865 0.65821 0.08575 0.0
H497 H 0.47189 0.65132 0.23214 0.0
C498 C 0.49807 0.66883 0.37412 0.0
C499 C 0.51388 0.67894 0.44283 0.0
C500 C 0.5063 0.67365 0.28943 0.0
C501 C 0.53797 0.69462 0.42605 0.0
C502 C 0.5463 0.69958 0.34182 0.0
C503 C 0.539 0.69299 0.18834 0.0
C504 C 0.52334 0.68183 0.11976 0.0
C505 C 0.53065 0.68894 0.27306 0.0
C506 C 0.49906 0.66714 0.13688 0.0
C507 C 0.49062 0.66306 0.22087 0.0
H508 H 0.84892 0.52809 0.52778 0.0
H509 H 0.81509 0.45274 0.49013 0.0
H510 H 0.81928 0.45832 0.33435 0.0
H511 H 0.83276 0.48465 0.20817 0.0
H512 H 0.86567 0.56004 0.24607 0.0
H513 H 0.8619 0.5544 0.4013 0.0
C514 C 0.84269 0.51292 0.48556 0.0
C515 C 0.83173 0.49001 0.52101 0.0
C516 C 0.84498 0.51626 0.39558 0.0
C517 C 0.8234 0.47054 0.46483 0.0
C518 C 0.82584 0.47373 0.37558 0.0
C519 C 0.83889 0.49986 0.25007 0.0
C520 C 0.84962 0.52278 0.2144 0.0
C521 C 0.83651 0.49651 0.34004 0.0
C522 C 0.85769 0.54221 0.27081 0.0
C523 C 0.85544 0.53901 0.36005 0.0
H524 H 0.34696 0.88975 0.35388 0.0
H525 H 0.30254 0.81645 0.28576 0.0
H526 H 0.30434 0.80469 0.43369 0.0
H527 H 0.31819 0.81539 0.5822 0.0
H528 H 0.36377 0.88872 0.64946 0.0
H529 H 0.36168 0.9004 0.50212 0.0
C530 C 0.33746 0.87125 0.37187 0.0
C531 C 0.32446 0.85398 0.30946 0.0
C532 C 0.33884 0.86465 0.45663 0.0
C533 C 0.31267 0.83001 0.33289 0.0
C534 C 0.3137 0.82331 0.41732 0.0
C535 C 0.32796 0.8339 0.56462 0.0
C536 C 0.34106 0.85114 0.62721 0.0
C537 C 0.3268 0.84049 0.47965 0.0
C538 C 0.35328 0.87509 0.60304 0.0
C539 C 0.35216 0.88179 0.51868 0.0
H540 H 0.46421 0.33552 0.88146 0.0
H541 H 0.52117 0.32049 0.85209 0.0
H542 H 0.51473 0.31642 0.69766 0.0
H543 H 0.49259 0.31644 0.56944 0.0
H544 H 0.43487 0.33015 0.59864 0.0
H545 H 0.44166 0.33491 0.75362 0.0
C546 C 0.4751 0.33114 0.8417 0.0
C547 C 0.49328 0.32851 0.87964 0.0
C548 C 0.47111 0.32845 0.75212 0.0
C549 C 0.50732 0.32309 0.82577 0.0
C550 C 0.50355 0.32058 0.73688 0.0
C551 C 0.48161 0.32063 0.60963 0.0
C552 C 0.46319 0.32285 0.57205 0.0
C553 C 0.48553 0.32324 0.69919 0.0
C554 C 0.44896 0.32801 0.62561 0.0
C555 C 0.45291 0.33086 0.71442 0.0
H556 H 0.1536 0.53549 0.92722 0.0
H557 H 0.16245 0.47775 0.01407 0.0
H558 H 0.15708 0.46254 0.86706 0.0
H559 H 0.14966 0.46575 0.71264 0.0
H560 H 0.14122 0.52384 0.6282 0.0
H561 H 0.1464 0.53876 0.77539 0.0
C562 C 0.15469 0.51978 0.91375 0.0
C563 C 0.15843 0.50781 0.98122 0.0
C564 C 0.15153 0.51115 0.82949 0.0
C565 C 0.15935 0.48717 0.96319 0.0
C566 C 0.15634 0.4785 0.87918 0.0
C567 C 0.14898 0.48164 0.72713 0.0
C568 C 0.14538 0.49391 0.66037 0.0
C569 C 0.15228 0.49027 0.81181 0.0
C570 C 0.14447 0.51448 0.67889 0.0
C571 C 0.14739 0.52297 0.76274 0.0
H572 H 0.64875 0.14798 0.851 0.0
H573 H 0.69697 0.12179 0.8908 0.0
H574 H 0.69355 0.12431 0.046 0.0
H575 H 0.67558 0.13235 0.17239 0.0
H576 H 0.62818 0.15951 0.13162 0.0
H577 H 0.6326 0.15814 0.97666 0.0
C578 C 0.65874 0.14304 0.89318 0.0
C579 C 0.67289 0.1344 0.85772 0.0
C580 C 0.65674 0.14455 0.98336 0.0
C581 C 0.68555 0.12806 0.91497 0.0
C582 C 0.68371 0.12961 1.00438 0.0
C583 C 0.66645 0.13828 0.12992 0.0
C584 C 0.6513 0.14574 0.16506 0.0
C585 C 0.66914 0.13757 0.03963 0.0
C586 C 0.63958 0.15319 0.10765 0.0
C587 C 0.6422 0.15256 0.01838 0.0
H588 H 0.4237 0.59806 0.80862 0.0
H589 H 0.48414 0.62973 0.97782 0.0
H590 H 0.46003 0.60506 0.09635 0.0
H591 H 0.42246 0.57263 0.14953 0.0
H592 H 0.36177 0.54077 0.98115 0.0
H593 H 0.38515 0.56727 0.86533 0.0
C594 C 0.43148 0.59958 0.87162 0.0
C595 C 0.45558 0.61583 0.8847 0.0
C596 C 0.41749 0.58518 0.93963 0.0
C597 C 0.46549 0.61771 0.96662 0.0
C598 C 0.45176 0.60345 0.03431 0.0
C599 C 0.41422 0.57163 0.0879 0.0
C600 C 0.39044 0.55438 0.07395 0.0
C601 C 0.42781 0.58693 0.02133 0.0
C602 C 0.38009 0.55355 0.99364 0.0
C603 C 0.39348 0.56874 0.9271 0.0
H604 H 0.80803 0.39184 0.23373 0.0
H605 H 0.82838 0.35438 0.05662 0.0
H606 H 0.83148 0.3806 0.94043 0.0
H607 H 0.83149 0.41603 0.8914 0.0
H608 H 0.80986 0.45326 0.0649 0.0
H609 H 0.80382 0.42525 0.17924 0.0
C610 C 0.81282 0.38931 0.16939 0.0
C611 C 0.81883 0.37176 0.15441 0.0
C612 C 0.81442 0.4045 0.10213 0.0
C613 C 0.82476 0.36845 0.07064 0.0
C614 C 0.82625 0.38328 1.00378 0.0
C615 C 0.82519 0.41792 0.95383 0.0
C616 C 0.82177 0.43715 0.96991 0.0
C617 C 0.82172 0.40173 0.01925 0.0
C618 C 0.81323 0.43901 0.05104 0.0
C619 C 0.80968 0.42291 0.11663 0.0
H620 H 0.38384 0.80377 0.07506 0.0
H621 H 0.3724 0.85974 0.16612 0.0
H622 H 0.39392 0.86291 0.29742 0.0
H623 H 0.41848 0.852 0.38228 0.0
H624 H 0.43162 0.79726 0.29052 0.0
H625 H 0.40707 0.79149 0.16407 0.0
C626 C 0.386 0.81661 0.12372 0.0
C627 C 0.3763 0.83135 0.11054 0.0
C628 C 0.39886 0.81869 0.19904 0.0
C629 C 0.37928 0.84787 0.1746 0.0
C630 C 0.39176 0.84984 0.24983 0.0
C631 C 0.41567 0.83851 0.33547 0.0
C632 C 0.42706 0.82524 0.34554 0.0
C633 C 0.40186 0.83555 0.2623 0.0
C634 C 0.42329 0.80793 0.28385 0.0
C635 C 0.40925 0.80462 0.21143 0.0
H636 H 0.55395 0.41719 0.25852 0.0
H637 H 0.54008 0.35354 0.39089 0.0
H638 H 0.5714 0.37697 0.49482 0.0
H639 H 0.60227 0.41599 0.55017 0.0
H640 H 0.61359 0.47907 0.41955 0.0
H641 H 0.58396 0.45552 0.31337 0.0
C642 C 0.5579 0.40838 0.30956 0.0
C643 C 0.5448 0.38368 0.31662 0.0
C644 C 0.57548 0.42193 0.36998 0.0
C645 C 0.54994 0.37259 0.384 0.0
C646 C 0.56783 0.38597 0.44352 0.0
C647 C 0.59824 0.42452 0.4984 0.0
C648 C 0.61026 0.44936 0.49323 0.0
C649 C 0.58063 0.41073 0.43759 0.0
C650 C 0.60467 0.46009 0.42585 0.0
C651 C 0.58768 0.44659 0.36459 0.0
H652 H 0.17226 0.55646 0.51218 0.0
H653 H 0.12731 0.57437 0.3653 0.0
H654 H 0.12613 0.59774 0.48518 0.0
H655 H 0.1353 0.61069 0.63503 0.0
H656 H 0.17735 0.59029 0.78712 0.0
H657 H 0.18215 0.57013 0.66198 0.0
C658 C 0.16224 0.56547 0.50614 0.0
C659 C 0.14953 0.5632 0.43006 0.0
C660 C 0.16108 0.57841 0.57646 0.0
C661 C 0.13714 0.57559 0.42304 0.0
C662 C 0.13638 0.58894 0.49181 0.0
C663 C 0.14584 0.60215 0.64043 0.0
C664 C 0.15619 0.60215 0.71973 0.0
C665 C 0.1479 0.5901 0.56927 0.0
C666 C 0.16924 0.59048 0.72657 0.0
C667 C 0.17201 0.57904 0.65507 0.0
H668 H 0.61309 0.18606 0.6409 0.0
H669 H 0.61674 0.12393 0.71008 0.0
H670 H 0.59365 0.11879 0.83807 0.0
H671 H 0.5719 0.13117 0.93065 0.0
H672 H 0.56488 0.19121 0.8607 0.0
H673 H 0.58983 0.198 0.73382 0.0
C674 C 0.60868 0.17135 0.68378 0.0
C675 C 0.61662 0.15539 0.665 0.0
C676 C 0.59492 0.16819 0.75788 0.0
C677 C 0.61065 0.13635 0.72138 0.0
C678 C 0.59756 0.13344 0.79551 0.0
C679 C 0.57609 0.14598 0.88847 0.0
C680 C 0.56683 0.16084 0.90567 0.0
C681 C 0.58964 0.14923 0.8145 0.0
C682 C 0.572 0.17962 0.84913 0.0
C683 C 0.58615 0.18343 0.77638 0.0
H684 H 0.2862 0.51284 0.23199 0.0
H685 H 0.24714 0.43787 0.18012 0.0
H686 H 0.21011 0.43685 0.21143 0.0
H687 H 0.18891 0.45663 0.25646 0.0
H688 H 0.2268 0.53138 0.31208 0.0
H689 H 0.26431 0.53307 0.27743 0.0
C690 C 0.26952 0.49639 0.22667 0.0
C691 C 0.26935 0.47546 0.20355 0.0
C692 C 0.24819 0.49582 0.24646 0.0
C693 C 0.24771 0.45419 0.19799 0.0
C694 C 0.22653 0.45356 0.21603 0.0
C695 C 0.20533 0.47336 0.26126 0.0
C696 C 0.20506 0.49384 0.28699 0.0
C697 C 0.2266 0.47418 0.24111 0.0
C698 C 0.22655 0.51532 0.29285 0.0
C699 C 0.24796 0.5163 0.27266 0.0
H700 H 0.80408 0.25617 0.44146 0.0
H701 H 0.76638 0.28178 0.28901 0.0
H702 H 0.72855 0.24882 0.33963 0.0
H703 H 0.70648 0.21063 0.41795 0.0
H704 H 0.74547 0.18519 0.56334 0.0
H705 H 0.78263 0.22051 0.52619 0.0
C706 C 0.78761 0.25462 0.4191 0.0
C707 C 0.78797 0.27109 0.36031 0.0
C708 C 0.7662 0.23575 0.44792 0.0
C709 C 0.7665 0.26912 0.33364 0.0
C710 C 0.74492 0.25032 0.36263 0.0
C711 C 0.72313 0.21324 0.44298 0.0
C712 C 0.72343 0.19553 0.49336 0.0
C713 C 0.74456 0.23327 0.4187 0.0
C714 C 0.74498 0.1987 0.52446 0.0
C715 C 0.76619 0.21878 0.50287 0.0
H716 H 0.53067 0.8093 0.64137 0.0
H717 H 0.4708 0.75855 0.49292 0.0
H718 H 0.47011 0.72618 0.57572 0.0
H719 H 0.48885 0.71264 0.68278 0.0
H720 H 0.54969 0.76424 0.82489 0.0
H721 H 0.54726 0.79621 0.75348 0.0
C722 C 0.51745 0.79116 0.62667 0.0
C723 C 0.50111 0.78624 0.55993 0.0
C724 C 0.51717 0.77292 0.67431 0.0
C725 C 0.48374 0.7627 0.54336 0.0
C726 C 0.48332 0.74427 0.59084 0.0
C727 C 0.50113 0.73089 0.6996 0.0
C728 C 0.51939 0.73621 0.7591 0.0
C729 C 0.50018 0.74918 0.65573 0.0
C730 C 0.53548 0.75985 0.77946 0.0
C731 C 0.53422 0.77808 0.73818 0.0
H732 H 0.77192 0.48886 0.78487 0.0
H733 H 0.8081 0.56174 0.86711 0.0
H734 H 0.77652 0.567 0.80735 0.0
H735 H 0.74026 0.55185 0.72549 0.0
H736 H 0.70336 0.47931 0.63937 0.0
H737 H 0.73385 0.47298 0.70598 0.0
C738 C 0.77255 0.5057 0.79112 0.0
C739 C 0.79218 0.52489 0.83064 0.0
C740 C 0.75457 0.50878 0.75446 0.0
C741 C 0.79312 0.54676 0.83705 0.0
C742 C 0.77516 0.54981 0.80251 0.0
C743 C 0.73882 0.53461 0.7207 0.0
C744 C 0.7197 0.51615 0.67658 0.0
C745 C 0.75612 0.53111 0.7596 0.0
C746 C 0.71805 0.49388 0.67226 0.0
C747 C 0.7354 0.49024 0.71072 0.0
H748 H 0.28099 0.78058 0.91753 0.0
H749 H 0.24343 0.81704 0.98498 0.0
H750 H 0.20573 0.78123 0.95747 0.0
H751 H 0.18355 0.74011 0.91168 0.0
H752 H 0.22042 0.70331 0.83939 0.0
H753 H 0.25839 0.73887 0.87022 0.0
C754 C 0.26451 0.78054 0.92708 0.0
C755 C 0.26491 0.80133 0.95372 0.0
C756 C 0.24287 0.76 0.90921 0.0
C757 C 0.24352 0.80123 0.96454 0.0
C758 C 0.22198 0.7808 0.94864 0.0
C759 C 0.19987 0.73981 0.90243 0.0
C760 C 0.19917 0.71911 0.87322 0.0
C761 C 0.22147 0.76019 0.92025 0.0
C762 C 0.2205 0.71909 0.86133 0.0
C763 C 0.24219 0.73936 0.8794 0.0
H764 H 0.50506 0.28034 0.16085 0.0
H765 H 0.43481 0.23661 0.26303 0.0
H766 H 0.43615 0.20106 0.22471 0.0
H767 H 0.45616 0.18253 0.15571 0.0
H768 H 0.52579 0.22549 0.04712 0.0
H769 H 0.52575 0.26134 0.09354 0.0
C770 C 0.49029 0.26299 0.17607 0.0
C771 C 0.46993 0.26097 0.21521 0.0
C772 C 0.4909 0.2426 0.15139 0.0
C773 C 0.45066 0.23849 0.23311 0.0
C774 C 0.45138 0.21821 0.21088 0.0
C775 C 0.47139 0.19971 0.14206 0.0
C776 C 0.4909 0.20134 0.09761 0.0
C777 C 0.4712 0.22007 0.16865 0.0
C778 C 0.51047 0.22377 0.08076 0.0
C779 C 0.5105 0.24425 0.10761 0.0
H780 H 0.37389 0.41267 0.17435 0.0
H781 H 0.43802 0.48041 0.18726 0.0
H782 H 0.46153 0.46067 0.19039 0.0
H783 H 0.46361 0.42387 0.1925 0.0
H784 H 0.3987 0.35655 0.18753 0.0
H785 H 0.37579 0.37649 0.17917 0.0
C786 C 0.393 0.42318 0.17908 0.0
C787 C 0.40414 0.44798 0.18165 0.0
C788 C 0.40629 0.41178 0.18217 0.0
C789 C 0.42898 0.46129 0.1849 0.0
C790 C 0.44242 0.45001 0.18719 0.0
C791 C 0.44446 0.41361 0.19006 0.0
C792 C 0.43296 0.38873 0.18958 0.0
C793 C 0.43124 0.42522 0.18644 0.0
C794 C 0.4081 0.37569 0.18593 0.0
C795 C 0.39492 0.38707 0.18181 0.0
H796 H 0.95493 0.4272 0.32022 0.0
H797 H 0.95767 0.36807 0.20837 0.0
H798 H 0.00068 0.39022 0.21338 0.0
H799 H 0.03724 0.42558 0.25256 0.0
H800 H 0.03561 0.48613 0.35559 0.0
H801 H 0.9923 0.464 0.35218 0.0
C802 C 0.96496 0.4193 0.29587 0.0
C803 C 0.95306 0.3959 0.2648 0.0
C804 C 0.98981 0.43225 0.29806 0.0
C805 C 0.96634 0.38585 0.23426 0.0
C806 C 0.99095 0.39853 0.23668 0.0
C807 C 0.02754 0.43423 0.27269 0.0
C808 C 0.03975 0.45761 0.30346 0.0
C809 C 0.00282 0.42164 0.26893 0.0
C810 C 0.02669 0.4681 0.33212 0.0
C811 C 0.00194 0.45551 0.32965 0.0
H812 H 0.56326 0.02769 0.45531 0.0
H813 H 0.62904 0.02697 0.46076 0.0
H814 H 0.60766 0.98424 0.44304 0.0
H815 H 0.57051 0.94704 0.43228 0.0
H816 H 0.50424 0.9466 0.43458 0.0
H817 H 0.5256 0.98992 0.44149 0.0
C818 C 0.57286 0.01813 0.45298 0.0
C819 C 0.59771 0.03052 0.45921 0.0
C820 C 0.56041 0.99343 0.44386 0.0
C821 C 0.60996 0.01794 0.45488 0.0
C822 C 0.59775 0.99348 0.44523 0.0
C823 C 0.56071 0.95641 0.43471 0.0
C824 C 0.53586 0.94369 0.43428 0.0
C825 C 0.57302 0.98106 0.4405 0.0
C826 C 0.5234 0.95606 0.43479 0.0
C827 C 0.53559 0.98077 0.43939 0.0
H828 H 0.62922 0.59604 0.67147 0.0
H829 H 0.56499 0.53071 0.61556 0.0
H830 H 0.54178 0.5501 0.64029 0.0
H831 H 0.53974 0.58547 0.68147 0.0
H832 H 0.60407 0.64956 0.74872 0.0
H833 H 0.62715 0.63059 0.71714 0.0
C834 C 0.61011 0.58588 0.66577 0.0
C835 C 0.5989 0.56189 0.64227 0.0
C836 C 0.59686 0.5969 0.68241 0.0
C837 C 0.57415 0.54926 0.63268 0.0
C838 C 0.56083 0.56028 0.64757 0.0
C839 C 0.55878 0.5952 0.69012 0.0
C840 C 0.57013 0.61898 0.71677 0.0
C841 C 0.57199 0.58405 0.67323 0.0
C842 C 0.59487 0.6314 0.72663 0.0
C843 C 0.60811 0.62053 0.70908 0.0
H844 H 0.02939 0.55673 0.87117 0.0
H845 H 0.03526 0.62527 0.84458 0.0
H846 H 0.99248 0.60704 0.84229 0.0
H847 H 0.95355 0.57214 0.84932 0.0
H848 H 0.9463 0.50295 0.8683 0.0
H849 H 0.98946 0.52095 0.87314 0.0
C850 C 0.02127 0.5676 0.86434 0.0
C851 C 0.03558 0.59238 0.8595 0.0
C852 C 0.99644 0.55694 0.86201 0.0
C853 C 0.02475 0.60624 0.85076 0.0
C854 C 0.00025 0.59583 0.84877 0.0
C855 C 0.96132 0.56087 0.85291 0.0
C856 C 0.94667 0.5362 0.85726 0.0
C857 C 0.98596 0.57126 0.85456 0.0
C858 C 0.95715 0.52201 0.86504 0.0
C859 C 0.98183 0.53229 0.86739 0.0
H860 H 0.45833 0.04086 0.87946 0.0
H861 H 0.47654 0.03818 0.14417 0.0
H862 H 0.45404 0.99495 0.14049 0.0
H863 H 0.42611 0.95821 0.0661 0.0
H864 H 0.40631 0.96107 0.80366 0.0
H865 H 0.43265 0.00394 0.80186 0.0
C866 C 0.45779 0.03076 0.93564 0.0
C867 C 0.46904 0.04259 0.01195 0.0
C868 C 0.44435 0.00599 0.93363 0.0
C869 C 0.46789 0.02937 0.08487 0.0
C870 C 0.45503 0.0047 0.0828 0.0
C871 C 0.42797 0.9682 0.00804 0.0
C872 C 0.41429 0.95659 0.93522 0.0
C873 C 0.44273 0.99285 0.00816 0.0
C874 C 0.41655 0.96972 0.86072 0.0
C875 C 0.43159 0.99419 0.85966 0.0
loop_
_geom_bond_atom_site_label_1
_geom_bond_atom_site_label_2
_geom_bond_distance
_geom_bond_site_symmetry_2
_ccdc_geom_bond_type
C0 C1 1.351 . S
C0 N3 1.368 . S
C0 H5 0.931 . S
C1 C0 1.351 . S
C1 N2 1.373 . S
C1 H29 0.930 . S
N2 C1 1.373 . S
N2 C4 1.340 . S
N3 C0 1.368 . S
N3 C4 1.321 . S
N3 Co6 2.135 1_556 S
C4 N2 1.340 . S
C4 N3 1.321 . S
C4 H28 0.930 . S
H5 C0 0.931 . S
Co6 N3 2.135 1_554 S
Co6 N9 2.121 . S
Co6 O14 2.055 . S
Co6 O17 2.039 . S
Co6 N20 2.140 . S
C7 O8 1.227 . S
C7 O17 1.265 . S
O8 C7 1.227 . S
N9 Co6 2.121 . S
N9 C11 1.375 . S
N9 C12 1.313 . S
C10 C11 1.338 . S
C10 N13 1.377 . S
C10 H30 0.930 . S
C11 N9 1.375 . S
C11 C10 1.338 . S
C11 H15 0.931 . S
C12 N9 1.313 . S
C12 N13 1.344 . S
C12 H16 0.930 . S
N13 C10 1.377 . S
N13 C12 1.344 . S
O14 Co6 2.055 . S
O14 C18 1.253 . S
H15 C11 0.931 . S
H16 C12 0.930 . S
O17 Co6 2.039 . S
O17 C7 1.265 . S
C18 O14 1.253 . S
C18 O19 1.227 . S
O19 C18 1.227 . S
N20 Co6 2.140 . S
N20 C23 1.346 . S
N20 C24 1.345 . S
C21 C22 1.387 . S
C21 C25 1.391 . S
C22 C21 1.387 . S
C22 C23 1.369 . S
C22 H31 0.929 1_554 S
C23 N20 1.346 . S
C23 C22 1.369 . S
C23 H26 0.928 1_554 S
C24 N20 1.345 . S
C24 C25 1.371 . S
C24 H27 0.931 . S
C25 C21 1.391 . S
C25 C24 1.371 . S
C25 H32 0.930 . S
H26 C23 0.928 1_556 S
H27 C24 0.931 . S
H28 C4 0.930 . S
H29 C1 0.930 . S
H30 C10 0.930 . S
H31 C22 0.929 1_556 S
H32 C25 0.930 . S
C33 C34 1.351 . S
C33 N36 1.368 . S
C33 H38 0.931 . S
C34 C33 1.351 . S
C34 N35 1.373 1_554 S
C34 H62 0.930 1_554 S
N35 C34 1.373 1_556 S
N35 C37 1.340 1_556 S
N36 C33 1.368 . S
N36 C37 1.321 . S
N36 Co39 2.135 . S
C37 N35 1.340 1_554 S
C37 N36 1.321 . S
C37 H61 0.930 . S
H38 C33 0.931 . S
Co39 N36 2.135 . S
Co39 N42 2.121 . S
Co39 O47 2.055 . S
Co39 O50 2.039 . S
Co39 N53 2.140 . S
C40 O41 1.227 . S
C40 O50 1.265 . S
O41 C40 1.227 . S
N42 Co39 2.121 . S
N42 C44 1.375 . S
N42 C45 1.313 . S
C43 C44 1.338 . S
C43 N46 1.377 . S
C43 H63 0.930 . S
C44 N42 1.375 . S
C44 C43 1.338 . S
C44 H48 0.931 . S
C45 N42 1.313 . S
C45 N46 1.344 . S
C45 H49 0.930 . S
N46 C43 1.377 . S
N46 C45 1.344 . S
O47 Co39 2.055 . S
O47 C51 1.253 . S
H48 C44 0.931 . S
H49 C45 0.930 . S
O50 Co39 2.039 . S
O50 C40 1.265 . S
C51 O47 1.253 . S
C51 O52 1.227 . S
O52 C51 1.227 . S
N53 Co39 2.140 . S
N53 C56 1.346 . S
N53 C57 1.345 . S
C54 C55 1.387 . S
C54 C58 1.391 . S
C55 C54 1.387 . S
C55 C56 1.369 . S
C55 H64 0.929 . S
C56 N53 1.346 . S
C56 C55 1.369 . S
C56 H59 0.928 . S
C57 N53 1.345 . S
C57 C58 1.371 . S
C57 H60 0.931 . S
C58 C54 1.391 . S
C58 C57 1.371 . S
C58 H65 0.930 . S
H59 C56 0.928 . S
H60 C57 0.931 . S
H61 C37 0.930 . S
H62 C34 0.930 1_556 S
H63 C43 0.930 . S
H64 C55 0.929 . S
H65 C58 0.930 . S
C66 C67 1.351 . S
C66 N69 1.368 . S
C66 H71 0.931 . S
C67 C66 1.351 . S
C67 N68 1.373 . S
C67 H95 0.930 . S
N68 C67 1.373 . S
N68 C70 1.340 . S
N69 C66 1.368 . S
N69 C70 1.321 . S
N69 Co72 2.135 . S
C70 N68 1.340 . S
C70 N69 1.321 . S
C70 H94 0.930 . S
H71 C66 0.931 . S
Co72 N69 2.135 . S
Co72 N75 2.121 . S
Co72 O80 2.055 . S
Co72 O83 2.039 . S
Co72 N86 2.140 . S
C73 O74 1.227 . S
C73 O83 1.265 . S
O74 C73 1.227 . S
N75 Co72 2.121 . S
N75 C77 1.375 . S
N75 C78 1.313 . S
C76 C77 1.338 . S
C76 N79 1.377 . S
C76 H96 0.930 . S
C77 N75 1.375 . S
C77 C76 1.338 . S
C77 H81 0.931 . S
C78 N75 1.313 . S
C78 N79 1.344 . S
C78 H82 0.930 . S
N79 C76 1.377 . S
N79 C78 1.344 . S
O80 Co72 2.055 . S
O80 C84 1.253 . S
H81 C77 0.931 . S
H82 C78 0.930 . S
O83 Co72 2.039 . S
O83 C73 1.265 . S
C84 O80 1.253 . S
C84 O85 1.227 . S
O85 C84 1.227 . S
N86 Co72 2.140 . S
N86 C89 1.346 . S
N86 C90 1.345 . S
C87 C88 1.387 . S
C87 C91 1.391 . S
C88 C87 1.387 . S
C88 C89 1.369 . S
C88 H97 0.929 . S
C89 N86 1.346 . S
C89 C88 1.369 . S
C89 H92 0.928 . S
C90 N86 1.345 . S
C90 C91 1.371 . S
C90 H93 0.931 . S
C91 C87 1.391 . S
C91 C90 1.371 . S
C91 H98 0.930 . S
H92 C89 0.928 . S
H93 C90 0.931 . S
H94 C70 0.930 . S
H95 C67 0.930 . S
H96 C76 0.930 . S
H97 C88 0.929 . S
H98 C91 0.930 . S
C99 C100 1.351 . S
C99 N102 1.368 . S
C99 H104 0.931 . S
C100 C99 1.351 . S
C100 N101 1.373 . S
C100 H128 0.930 . S
N101 C100 1.373 . S
N101 C103 1.340 . S
N102 C99 1.368 . S
N102 C103 1.321 . S
N102 Co105 2.135 . S
C103 N101 1.340 . S
C103 N102 1.321 . S
C103 H127 0.930 . S
H104 C99 0.931 . S
Co105 N102 2.135 . S
Co105 N108 2.121 . S
Co105 O113 2.055 . S
Co105 O116 2.039 . S
Co105 N119 2.140 . S
C106 O107 1.227 . S
C106 O116 1.265 . S
O107 C106 1.227 . S
N108 Co105 2.121 . S
N108 C110 1.375 . S
N108 C111 1.313 . S
C109 C110 1.338 . S
C109 N112 1.377 . S
C109 H129 0.930 . S
C110 N108 1.375 . S
C110 C109 1.338 . S
C110 H114 0.931 . S
C111 N108 1.313 . S
C111 N112 1.344 . S
C111 H115 0.930 . S
N112 C109 1.377 . S
N112 C111 1.344 . S
O113 Co105 2.055 . S
O113 C117 1.253 . S
H114 C110 0.931 . S
H115 C111 0.930 . S
O116 Co105 2.039 . S
O116 C106 1.265 . S
C117 O113 1.253 . S
C117 O118 1.227 . S
O118 C117 1.227 . S
N119 Co105 2.140 . S
N119 C122 1.346 . S
N119 C123 1.345 . S
C120 C121 1.387 . S
C120 C124 1.391 . S
C121 C120 1.387 . S
C121 C122 1.369 . S
C121 H130 0.929 . S
C122 N119 1.346 . S
C122 C121 1.369 . S
C122 H125 0.928 . S
C123 N119 1.345 . S
C123 C124 1.371 . S
C123 H126 0.931 . S
C124 C120 1.391 . S
C124 C123 1.371 . S
C124 H131 0.930 . S
H125 C122 0.928 . S
H126 C123 0.931 . S
H127 C103 0.930 . S
H128 C100 0.930 . S
H129 C109 0.930 . S
H130 C121 0.929 . S
H131 C124 0.930 . S
C132 C133 1.351 . S
C132 N135 1.368 . S
C132 H137 0.931 . S
C133 C132 1.351 . S
C133 N134 1.373 . S
C133 H161 0.930 . S
N134 C133 1.373 . S
N134 C136 1.340 . S
N135 C132 1.368 . S
N135 C136 1.321 . S
N135 Co138 2.135 . S
C136 N134 1.340 . S
C136 N135 1.321 . S
C136 H160 0.930 . S
H137 C132 0.931 . S
Co138 N135 2.135 . S
Co138 N141 2.121 . S
Co138 O146 2.055 . S
Co138 O149 2.039 . S
Co138 N152 2.140 . S
C139 O140 1.227 . S
C139 O149 1.265 . S
O140 C139 1.227 . S
N141 Co138 2.121 . S
N141 C143 1.375 . S
N141 C144 1.313 . S
C142 C143 1.338 . S
C142 N145 1.377 1_556 S
C142 H162 0.930 1_556 S
C143 N141 1.375 . S
C143 C142 1.338 . S
C143 H147 0.931 . S
C144 N141 1.313 . S
C144 N145 1.344 1_556 S
C144 H148 0.930 . S
N145 C142 1.377 1_554 S
N145 C144 1.344 1_554 S
O146 Co138 2.055 . S
O146 C150 1.253 . S
H147 C143 0.931 . S
H148 C144 0.930 . S
O149 Co138 2.039 . S
O149 C139 1.265 . S
C150 O146 1.253 . S
C150 O151 1.227 . S
O151 C150 1.227 . S
N152 Co138 2.140 . S
N152 C155 1.346 . S
N152 C156 1.345 . S
C153 C154 1.387 . S
C153 C157 1.391 . S
C154 C153 1.387 . S
C154 C155 1.369 . S
C154 H163 0.929 . S
C155 N152 1.346 . S
C155 C154 1.369 . S
C155 H158 0.928 . S
C156 N152 1.345 . S
C156 C157 1.371 . S
C156 H159 0.931 . S
C157 C153 1.391 . S
C157 C156 1.371 . S
C157 H164 0.930 . S
H158 C155 0.928 . S
H159 C156 0.931 . S
H160 C136 0.930 . S
H161 C133 0.930 . S
H162 C142 0.930 1_554 S
H163 C154 0.929 . S
H164 C157 0.930 . S
C165 C166 1.351 . S
C165 N168 1.368 . S
C165 H170 0.931 . S
C166 C165 1.351 . S
C166 N167 1.373 . S
C166 H194 0.930 . S
N167 C166 1.373 . S
N167 C169 1.340 . S
N168 C165 1.368 . S
N168 C169 1.321 . S
N168 Co171 2.135 . S
C169 N167 1.340 . S
C169 N168 1.321 . S
C169 H193 0.930 . S
H170 C165 0.931 . S
Co171 N168 2.135 . S
Co171 N174 2.121 1_556 S
Co171 O179 2.055 . S
Co171 O182 2.039 . S
Co171 N185 2.140 . S
C172 O173 1.227 . S
C172 O182 1.265 . S
O173 C172 1.227 . S
N174 Co171 2.121 1_554 S
N174 C176 1.375 . S
N174 C177 1.313 . S
C175 C176 1.338 . S
C175 N178 1.377 . S
C175 H195 0.930 . S
C176 N174 1.375 . S
C176 C175 1.338 . S
C176 H180 0.931 . S
C177 N174 1.313 . S
C177 N178 1.344 . S
C177 H181 0.930 . S
N178 C175 1.377 . S
N178 C177 1.344 . S
O179 Co171 2.055 . S
O179 C183 1.253 . S
H180 C176 0.931 . S
H181 C177 0.930 . S
O182 Co171 2.039 . S
O182 C172 1.265 . S
C183 O179 1.253 . S
C183 O184 1.227 . S
O184 C183 1.227 . S
N185 Co171 2.140 . S
N185 C188 1.346 . S
N185 C189 1.345 . S
C186 C187 1.387 . S
C186 C190 1.391 1_556 S
C187 C186 1.387 . S
C187 C188 1.369 . S
C187 H196 0.929 . S
C188 N185 1.346 . S
C188 C187 1.369 . S
C188 H191 0.928 . S
C189 N185 1.345 . S
C189 C190 1.371 1_556 S
C189 H192 0.931 1_556 S
C190 C186 1.391 1_554 S
C190 C189 1.371 1_554 S
C190 H197 0.930 . S
H191 C188 0.928 . S
H192 C189 0.931 1_554 S
H193 C169 0.930 . S
H194 C166 0.930 . S
H195 C175 0.930 . S
H196 C187 0.929 . S
H197 C190 0.930 . S
C198 C199 1.351 . S
C198 N201 1.368 . S
C198 H203 0.931 . S
C199 C198 1.351 . S
C199 N200 1.373 1_556 S
C199 H227 0.930 1_556 S
N200 C199 1.373 1_554 S
N200 C202 1.340 1_554 S
N201 C198 1.368 . S
N201 C202 1.321 . S
N201 Co204 2.135 . S
C202 N200 1.340 1_556 S
C202 N201 1.321 . S
C202 H226 0.930 . S
H203 C198 0.931 . S
Co204 N201 2.135 . S
Co204 N207 2.121 . S
Co204 O212 2.055 . S
Co204 O215 2.039 . S
Co204 N218 2.140 . S
C205 O206 1.227 . S
C205 O215 1.265 . S
O206 C205 1.227 . S
N207 Co204 2.121 . S
N207 C209 1.375 . S
N207 C210 1.313 . S
C208 C209 1.338 . S
C208 N211 1.377 . S
C208 H228 0.930 . S
C209 N207 1.375 . S
C209 C208 1.338 . S
C209 H213 0.931 . S
C210 N207 1.313 . S
C210 N211 1.344 . S
C210 H214 0.930 . S
N211 C208 1.377 . S
N211 C210 1.344 . S
O212 Co204 2.055 . S
O212 C216 1.253 . S
H213 C209 0.931 . S
H214 C210 0.930 . S
O215 Co204 2.039 . S
O215 C205 1.265 . S
C216 O212 1.253 . S
C216 O217 1.227 . S
O217 C216 1.227 . S
N218 Co204 2.140 . S
N218 C221 1.346 . S
N218 C222 1.345 . S
C219 C220 1.387 . S
C219 C223 1.391 . S
C220 C219 1.387 . S
C220 C221 1.369 . S
C220 H229 0.929 . S
C221 N218 1.346 . S
C221 C220 1.369 . S
C221 H224 0.928 . S
C222 N218 1.345 . S
C222 C223 1.371 . S
C222 H225 0.931 . S
C223 C219 1.391 . S
C223 C222 1.371 . S
C223 H230 0.930 . S
H224 C221 0.928 . S
H225 C222 0.931 . S
H226 C202 0.930 . S
H227 C199 0.930 1_554 S
H228 C208 0.930 . S
H229 C220 0.929 . S
H230 C223 0.930 . S
C231 C232 1.351 . S
C231 N234 1.368 . S
C231 H236 0.931 . S
C232 C231 1.351 . S
C232 N233 1.373 . S
C232 H260 0.930 . S
N233 C232 1.373 . S
N233 C235 1.340 . S
N234 C231 1.368 . S
N234 C235 1.321 . S
N234 Co237 2.135 1_554 S
C235 N233 1.340 . S
C235 N234 1.321 . S
C235 H259 0.930 . S
H236 C231 0.931 . S
Co237 N234 2.135 1_556 S
Co237 N240 2.121 . S
Co237 O245 2.055 . S
Co237 O248 2.039 . S
Co237 N251 2.140 . S
C238 O239 1.227 . S
C238 O248 1.265 . S
O239 C238 1.227 . S
N240 Co237 2.121 . S
N240 C242 1.375 . S
N240 C243 1.313 . S
C241 C242 1.338 . S
C241 N244 1.377 . S
C241 H261 0.930 . S
C242 N240 1.375 . S
C242 C241 1.338 . S
C242 H246 0.931 . S
C243 N240 1.313 . S
C243 N244 1.344 . S
C243 H247 0.930 . S
N244 C241 1.377 . S
N244 C243 1.344 . S
O245 Co237 2.055 . S
O245 C249 1.253 . S
H246 C242 0.931 . S
H247 C243 0.930 . S
O248 Co237 2.039 . S
O248 C238 1.265 . S
C249 O245 1.253 . S
C249 O250 1.227 . S
O250 C249 1.227 . S
N251 Co237 2.140 . S
N251 C254 1.346 . S
N251 C255 1.345 . S
C252 C253 1.387 . S
C252 C256 1.391 . S
C253 C252 1.387 . S
C253 C254 1.369 . S
C253 H262 0.929 1_556 S
C254 N251 1.346 . S
C254 C253 1.369 . S
C254 H257 0.928 1_556 S
C255 N251 1.345 . S
C255 C256 1.371 . S
C255 H258 0.931 . S
C256 C252 1.391 . S
C256 C255 1.371 . S
C256 H263 0.930 . S
H257 C254 0.928 1_554 S
H258 C255 0.931 . S
H259 C235 0.930 . S
H260 C232 0.930 . S
H261 C241 0.930 . S
H262 C253 0.929 1_554 S
H263 C256 0.930 . S
C264 C265 1.351 . S
C264 N267 1.368 . S
C264 H269 0.931 . S
C265 C264 1.351 . S
C265 N266 1.373 . S
C265 H293 0.930 . S
N266 C265 1.373 . S
N266 C268 1.340 . S
N267 C264 1.368 . S
N267 C268 1.321 . S
N267 Co270 2.135 . S
C268 N266 1.340 . S
C268 N267 1.321 . S
C268 H292 0.930 . S
H269 C264 0.931 . S
Co270 N267 2.135 . S
Co270 N273 2.121 1_554 S
Co270 O278 2.055 . S
Co270 O281 2.039 . S
Co270 N284 2.140 . S
C271 O272 1.227 . S
C271 O281 1.265 . S
O272 C271 1.227 . S
N273 Co270 2.121 1_556 S
N273 C275 1.375 . S
N273 C276 1.313 . S
C274 C275 1.338 . S
C274 N277 1.377 . S
C274 H294 0.930 . S
C275 N273 1.375 . S
C275 C274 1.338 . S
C275 H279 0.931 . S
C276 N273 1.313 . S
C276 N277 1.344 . S
C276 H280 0.930 . S
N277 C274 1.377 . S
N277 C276 1.344 . S
O278 Co270 2.055 . S
O278 C282 1.253 . S
H279 C275 0.931 . S
H280 C276 0.930 . S
O281 Co270 2.039 . S
O281 C271 1.265 . S
C282 O278 1.253 . S
C282 O283 1.227 . S
O283 C282 1.227 . S
N284 Co270 2.140 . S
N284 C287 1.346 . S
N284 C288 1.344 . S
C285 C286 1.387 . S
C285 C289 1.391 1_554 S
C286 C285 1.387 . S
C286 C287 1.369 . S
C286 H295 0.929 . S
C287 N284 1.346 . S
C287 C286 1.369 . S
C287 H290 0.928 . S
C288 N284 1.344 . S
C288 C289 1.371 1_554 S
C288 H291 0.931 1_554 S
C289 C285 1.391 1_556 S
C289 C288 1.371 1_556 S
C289 H296 0.930 . S
H290 C287 0.928 . S
H291 C288 0.931 1_556 S
H292 C268 0.930 . S
H293 C265 0.930 . S
H294 C274 0.930 . S
H295 C286 0.929 . S
H296 C289 0.930 . S
C297 C298 1.351 . S
C297 N300 1.368 . S
C297 H302 0.931 . S
C298 C297 1.351 . S
C298 N299 1.373 . S
C298 H326 0.930 . S
N299 C298 1.373 . S
N299 C301 1.340 . S
N300 C297 1.368 . S
N300 C301 1.321 . S
N300 Co303 2.135 . S
C301 N299 1.340 . S
C301 N300 1.321 . S
C301 H325 0.930 . S
H302 C297 0.931 . S
Co303 N300 2.135 . S
Co303 N306 2.121 . S
Co303 O311 2.055 . S
Co303 O314 2.039 . S
Co303 N317 2.140 . S
C304 O305 1.227 . S
C304 O314 1.265 . S
O305 C304 1.227 . S
N306 Co303 2.121 . S
N306 C308 1.375 . S
N306 C309 1.313 . S
C307 C308 1.338 . S
C307 N310 1.377 1_554 S
C307 H327 0.930 1_554 S
C308 N306 1.375 . S
C308 C307 1.338 . S
C308 H312 0.931 . S
C309 N306 1.313 . S
C309 N310 1.344 1_554 S
C309 H313 0.930 . S
N310 C307 1.377 1_556 S
N310 C309 1.344 1_556 S
O311 Co303 2.055 . S
O311 C315 1.253 . S
H312 C308 0.931 . S
H313 C309 0.930 . S
O314 Co303 2.039 . S
O314 C304 1.265 . S
C315 O311 1.253 . S
C315 O316 1.227 . S
O316 C315 1.227 . S
N317 Co303 2.140 . S
N317 C320 1.346 . S
N317 C321 1.345 . S
C318 C319 1.387 . S
C318 C322 1.391 . S
C319 C318 1.387 . S
C319 C320 1.369 . S
C319 H328 0.929 . S
C320 N317 1.346 . S
C320 C319 1.369 . S
C320 H323 0.928 . S
C321 N317 1.345 . S
C321 C322 1.371 . S
C321 H324 0.931 . S
C322 C318 1.391 . S
C322 C321 1.371 . S
C322 H329 0.930 . S
H323 C320 0.928 . S
H324 C321 0.931 . S
H325 C301 0.930 . S
H326 C298 0.930 . S
H327 C307 0.930 1_556 S
H328 C319 0.929 . S
H329 C322 0.930 . S
C330 C331 1.351 . S
C330 N333 1.368 . S
C330 H335 0.931 . S
C331 C330 1.351 . S
C331 N332 1.373 . S
C331 H359 0.930 . S
N332 C331 1.373 . S
N332 C334 1.340 . S
N333 C330 1.368 . S
N333 C334 1.321 . S
N333 Co336 2.135 . S
C334 N332 1.340 . S
C334 N333 1.321 . S
C334 H358 0.930 . S
H335 C330 0.931 . S
Co336 N333 2.135 . S
Co336 N339 2.121 . S
Co336 O344 2.055 . S
Co336 O347 2.039 . S
Co336 N350 2.140 . S
C337 O338 1.227 . S
C337 O347 1.265 . S
O338 C337 1.227 . S
N339 Co336 2.121 . S
N339 C341 1.375 . S
N339 C342 1.313 . S
C340 C341 1.338 . S
C340 N343 1.377 . S
C340 H360 0.930 . S
C341 N339 1.375 . S
C341 C340 1.338 . S
C341 H345 0.931 . S
C342 N339 1.313 . S
C342 N343 1.344 . S
C342 H346 0.930 . S
N343 C340 1.377 . S
N343 C342 1.344 . S
O344 Co336 2.055 . S
O344 C348 1.253 . S
H345 C341 0.931 . S
H346 C342 0.930 . S
O347 Co336 2.039 . S
O347 C337 1.265 . S
C348 O344 1.253 . S
C348 O349 1.227 . S
O349 C348 1.227 . S
N350 Co336 2.140 . S
N350 C353 1.346 . S
N350 C354 1.345 . S
C351 C352 1.387 . S
C351 C355 1.391 . S
C352 C351 1.387 . S
C352 C353 1.369 . S
C352 H361 0.929 . S
C353 N350 1.346 . S
C353 C352 1.369 . S
C353 H356 0.928 . S
C354 N350 1.345 . S
C354 C355 1.371 . S
C354 H357 0.931 . S
C355 C351 1.391 . S
C355 C354 1.371 . S
C355 H362 0.930 . S
H356 C353 0.928 . S
H357 C354 0.931 . S
H358 C334 0.930 . S
H359 C331 0.930 . S
H360 C340 0.930 . S
H361 C352 0.929 . S
H362 C355 0.930 . S
C363 C364 1.351 . S
C363 N366 1.368 . S
C363 H368 0.931 . S
C364 C363 1.351 . S
C364 N365 1.373 . S
C364 H392 0.930 . S
N365 C364 1.373 . S
N365 C367 1.340 . S
N366 C363 1.368 . S
N366 C367 1.321 . S
N366 Co369 2.135 . S
C367 N365 1.340 . S
C367 N366 1.321 . S
C367 H391 0.930 . S
H368 C363 0.931 . S
Co369 N366 2.135 . S
Co369 N372 2.121 . S
Co369 O377 2.055 . S
Co369 O380 2.039 . S
Co369 N383 2.140 . S
C370 O371 1.227 . S
C370 O380 1.265 . S
O371 C370 1.227 . S
N372 Co369 2.121 . S
N372 C374 1.375 . S
N372 C375 1.313 . S
C373 C374 1.338 . S
C373 N376 1.377 . S
C373 H393 0.930 . S
C374 N372 1.375 . S
C374 C373 1.338 . S
C374 H378 0.931 . S
C375 N372 1.313 . S
C375 N376 1.344 . S
C375 H379 0.930 . S
N376 C373 1.377 . S
N376 C375 1.344 . S
O377 Co369 2.055 . S
O377 C381 1.253 . S
H378 C374 0.931 . S
H379 C375 0.930 . S
O380 Co369 2.039 . S
O380 C370 1.265 . S
C381 O377 1.253 . S
C381 O382 1.227 . S
O382 C381 1.227 . S
N383 Co369 2.140 . S
N383 C386 1.346 . S
N383 C387 1.345 . S
C384 C385 1.387 . S
C384 C388 1.391 . S
C385 C384 1.387 . S
C385 C386 1.369 . S
C385 H394 0.929 . S
C386 N383 1.346 . S
C386 C385 1.369 . S
C386 H389 0.928 . S
C387 N383 1.345 . S
C387 C388 1.371 . S
C387 H390 0.931 . S
C388 C384 1.391 . S
C388 C387 1.371 . S
C388 H395 0.930 . S
H389 C386 0.928 . S
H390 C387 0.931 . S
H391 C367 0.930 . S
H392 C364 0.930 . S
H393 C373 0.930 . S
H394 C385 0.929 . S
H395 C388 0.930 . S
H396 C402 0.930 . S
H397 C405 0.930 . S
H398 C406 0.930 . S
H399 C407 0.930 . S
H400 C410 0.930 . S
H401 C411 0.930 . S
C402 H396 0.930 . S
C402 C403 1.355 . S
C402 C404 1.415 . S
C403 C402 1.355 . S
C403 C405 1.419 . S
C404 C402 1.415 . S
C404 C409 1.425 . S
C404 C411 1.409 . S
C405 H397 0.930 . S
C405 C403 1.419 . S
C405 C406 1.362 . S
C406 H398 0.930 . S
C406 C405 1.362 . S
C406 C409 1.409 . S
C407 H399 0.930 . S
C407 C408 1.355 . S
C407 C409 1.415 . S
C408 C407 1.355 . S
C408 C410 1.419 . S
C409 C404 1.425 . S
C409 C406 1.409 . S
C409 C407 1.415 . S
C410 H400 0.930 . S
C410 C408 1.419 . S
C410 C411 1.362 . S
C411 H401 0.930 . S
C411 C404 1.409 . S
C411 C410 1.362 . S
H412 C418 0.930 . S
H413 C421 0.930 . S
H414 C422 0.930 . S
H415 C423 0.930 . S
H416 C426 0.930 . S
H417 C427 0.930 . S
C418 H412 0.930 . S
C418 C419 1.355 . S
C418 C420 1.415 . S
C419 C418 1.355 . S
C419 C421 1.419 . S
C420 C418 1.415 . S
C420 C425 1.425 . S
C420 C427 1.409 . S
C421 H413 0.930 . S
C421 C419 1.419 . S
C421 C422 1.362 . S
C422 H414 0.930 . S
C422 C421 1.362 . S
C422 C425 1.409 . S
C423 H415 0.930 . S
C423 C424 1.355 . S
C423 C425 1.415 . S
C424 C423 1.355 . S
C424 C426 1.419 . S
C425 C420 1.425 . S
C425 C422 1.409 . S
C425 C423 1.415 . S
C426 H416 0.930 . S
C426 C424 1.419 . S
C426 C427 1.362 . S
C427 H417 0.930 . S
C427 C420 1.409 . S
C427 C426 1.362 . S
H428 C434 0.930 . S
H429 C437 0.930 . S
H430 C438 0.930 . S
H431 C439 0.930 . S
H432 C442 0.930 . S
H433 C443 0.930 . S
C434 H428 0.930 . S
C434 C435 1.355 . S
C434 C436 1.415 1_554 S
C435 C434 1.355 . S
C435 C437 1.419 . S
C436 C434 1.415 1_556 S
C436 C441 1.425 . S
C436 C443 1.409 . S
C437 H429 0.930 . S
C437 C435 1.419 . S
C437 C438 1.362 1_554 S
C438 H430 0.930 . S
C438 C437 1.362 1_556 S
C438 C441 1.409 . S
C439 H431 0.930 . S
C439 C440 1.355 . S
C439 C441 1.415 . S
C440 C439 1.355 . S
C440 C442 1.419 . S
C441 C436 1.425 . S
C441 C438 1.409 . S
C441 C439 1.415 . S
C442 H432 0.930 . S
C442 C440 1.419 . S
C442 C443 1.362 . S
C443 H433 0.930 . S
C443 C436 1.409 . S
C443 C442 1.362 . S
H444 C450 0.930 . S
H445 C453 0.930 . S
H446 C454 0.930 . S
H447 C455 0.930 . S
H448 C458 0.930 . S
H449 C459 0.930 . S
C450 H444 0.930 . S
C450 C451 1.355 . S
C450 C452 1.415 1_556 S
C451 C450 1.355 . S
C451 C453 1.419 . S
C452 C450 1.415 1_554 S
C452 C457 1.425 . S
C452 C459 1.409 . S
C453 H445 0.930 . S
C453 C451 1.419 . S
C453 C454 1.362 1_556 S
C454 H446 0.930 . S
C454 C453 1.362 1_554 S
C454 C457 1.409 . S
C455 H447 0.930 . S
C455 C456 1.355 . S
C455 C457 1.415 . S
C456 C455 1.355 . S
C456 C458 1.419 . S
C457 C452 1.425 . S
C457 C454 1.409 . S
C457 C455 1.415 . S
C458 H448 0.930 . S
C458 C456 1.419 . S
C458 C459 1.362 . S
C459 H449 0.930 . S
C459 C452 1.409 . S
C459 C458 1.362 . S
H460 C466 0.930 . S
H461 C469 0.930 . S
H462 C470 0.930 . S
H463 C471 0.930 . S
H464 C474 0.930 . S
H465 C475 0.930 . S
C466 H460 0.930 . S
C466 C467 1.355 . S
C466 C468 1.415 . S
C467 C466 1.355 . S
C467 C469 1.419 . S
C468 C466 1.415 . S
C468 C473 1.425 . S
C468 C475 1.409 . S
C469 H461 0.930 . S
C469 C467 1.419 . S
C469 C470 1.362 . S
C470 H462 0.930 . S
C470 C469 1.362 . S
C470 C473 1.409 . S
C471 H463 0.930 . S
C471 C472 1.355 . S
C471 C473 1.415 . S
C472 C471 1.355 . S
C472 C474 1.419 . S
C473 C468 1.425 . S
C473 C470 1.409 . S
C473 C471 1.415 . S
C474 H464 0.930 . S
C474 C472 1.419 . S
C474 C475 1.362 . S
C475 H465 0.930 . S
C475 C468 1.409 . S
C475 C474 1.362 . S
H476 C482 0.930 . S
H477 C485 0.930 . S
H478 C486 0.930 . S
H479 C487 0.930 . S
H480 C490 0.930 . S
H481 C491 0.930 . S
C482 H476 0.930 . S
C482 C483 1.355 . S
C482 C484 1.415 . S
C483 C482 1.355 . S
C483 C485 1.419 . S
C484 C482 1.415 . S
C484 C489 1.425 . S
C484 C491 1.409 . S
C485 H477 0.930 . S
C485 C483 1.419 . S
C485 C486 1.362 . S
C486 H478 0.930 . S
C486 C485 1.362 . S
C486 C489 1.409 . S
C487 H479 0.930 . S
C487 C488 1.355 . S
C487 C489 1.415 . S
C488 C487 1.355 . S
C488 C490 1.419 . S
C489 C484 1.425 . S
C489 C486 1.409 . S
C489 C487 1.415 . S
C490 H480 0.930 . S
C490 C488 1.419 . S
C490 C491 1.362 . S
C491 H481 0.930 . S
C491 C484 1.409 . S
C491 C490 1.362 . S
H492 C498 0.930 . S
H493 C501 0.930 . S
H494 C502 0.930 . S
H495 C503 0.930 . S
H496 C506 0.930 . S
H497 C507 0.930 . S
C498 H492 0.930 . S
C498 C499 1.355 . S
C498 C500 1.415 . S
C499 C498 1.355 . S
C499 C501 1.419 . S
C500 C498 1.415 . S
C500 C505 1.425 . S
C500 C507 1.409 . S
C501 H493 0.930 . S
C501 C499 1.419 . S
C501 C502 1.362 . S
C502 H494 0.930 . S
C502 C501 1.362 . S
C502 C505 1.409 . S
C503 H495 0.930 . S
C503 C504 1.355 . S
C503 C505 1.415 . S
C504 C503 1.355 . S
C504 C506 1.419 . S
C505 C500 1.425 . S
C505 C502 1.409 . S
C505 C503 1.415 . S
C506 H496 0.930 . S
C506 C504 1.419 . S
C506 C507 1.362 . S
C507 H497 0.930 . S
C507 C500 1.409 . S
C507 C506 1.362 . S
H508 C514 0.930 . S
H509 C517 0.930 . S
H510 C518 0.930 . S
H511 C519 0.930 . S
H512 C522 0.930 . S
H513 C523 0.930 . S
C514 H508 0.930 . S
C514 C515 1.355 . S
C514 C516 1.415 . S
C515 C514 1.355 . S
C515 C517 1.419 . S
C516 C514 1.415 . S
C516 C521 1.425 . S
C516 C523 1.409 . S
C517 H509 0.930 . S
C517 C515 1.419 . S
C517 C518 1.362 . S
C518 H510 0.930 . S
C518 C517 1.362 . S
C518 C521 1.409 . S
C519 H511 0.930 . S
C519 C520 1.355 . S
C519 C521 1.415 . S
C520 C519 1.355 . S
C520 C522 1.419 . S
C521 C516 1.425 . S
C521 C518 1.409 . S
C521 C519 1.415 . S
C522 H512 0.930 . S
C522 C520 1.419 . S
C522 C523 1.362 . S
C523 H513 0.930 . S
C523 C516 1.409 . S
C523 C522 1.362 . S
H524 C530 0.930 . S
H525 C533 0.930 . S
H526 C534 0.930 . S
H527 C535 0.930 . S
H528 C538 0.930 . S
H529 C539 0.930 . S
C530 H524 0.930 . S
C530 C531 1.355 . S
C530 C532 1.415 . S
C531 C530 1.355 . S
C531 C533 1.419 . S
C532 C530 1.415 . S
C532 C537 1.425 . S
C532 C539 1.409 . S
C533 H525 0.930 . S
C533 C531 1.419 . S
C533 C534 1.362 . S
C534 H526 0.930 . S
C534 C533 1.362 . S
C534 C537 1.409 . S
C535 H527 0.930 . S
C535 C536 1.355 . S
C535 C537 1.415 . S
C536 C535 1.355 . S
C536 C538 1.419 . S
C537 C532 1.425 . S
C537 C534 1.409 . S
C537 C535 1.415 . S
C538 H528 0.930 . S
C538 C536 1.419 . S
C538 C539 1.362 . S
C539 H529 0.930 . S
C539 C532 1.409 . S
C539 C538 1.362 . S
H540 C546 0.930 . S
H541 C549 0.930 . S
H542 C550 0.930 . S
H543 C551 0.930 . S
H544 C554 0.930 . S
H545 C555 0.930 . S
C546 H540 0.930 . S
C546 C547 1.355 . S
C546 C548 1.415 . S
C547 C546 1.355 . S
C547 C549 1.419 . S
C548 C546 1.415 . S
C548 C553 1.425 . S
C548 C555 1.409 . S
C549 H541 0.930 . S
C549 C547 1.419 . S
C549 C550 1.362 . S
C550 H542 0.930 . S
C550 C549 1.362 . S
C550 C553 1.409 . S
C551 H543 0.930 . S
C551 C552 1.355 . S
C551 C553 1.415 . S
C552 C551 1.355 . S
C552 C554 1.419 . S
C553 C548 1.425 . S
C553 C550 1.409 . S
C553 C551 1.415 . S
C554 H544 0.930 . S
C554 C552 1.419 . S
C554 C555 1.362 . S
C555 H545 0.930 . S
C555 C548 1.409 . S
C555 C554 1.362 . S
H556 C562 0.930 . S
H557 C565 0.930 . S
H558 C566 0.930 . S
H559 C567 0.930 . S
H560 C570 0.930 . S
H561 C571 0.930 . S
C562 H556 0.930 . S
C562 C563 1.355 . S
C562 C564 1.415 1_554 S
C563 C562 1.355 . S
C563 C565 1.419 . S
C564 C562 1.415 1_556 S
C564 C569 1.425 . S
C564 C571 1.409 . S
C565 H557 0.930 . S
C565 C563 1.419 . S
C565 C566 1.362 1_554 S
C566 H558 0.930 . S
C566 C565 1.362 1_556 S
C566 C569 1.409 . S
C567 H559 0.930 . S
C567 C568 1.355 . S
C567 C569 1.415 . S
C568 C567 1.355 . S
C568 C570 1.419 . S
C569 C564 1.425 . S
C569 C566 1.409 . S
C569 C567 1.415 . S
C570 H560 0.930 . S
C570 C568 1.419 . S
C570 C571 1.362 . S
C571 H561 0.930 . S
C571 C564 1.409 . S
C571 C570 1.362 . S
H572 C578 0.930 . S
H573 C581 0.930 . S
H574 C582 0.930 . S
H575 C583 0.930 . S
H576 C586 0.930 . S
H577 C587 0.930 . S
C578 H572 0.930 . S
C578 C579 1.355 . S
C578 C580 1.415 1_556 S
C579 C578 1.355 . S
C579 C581 1.419 . S
C580 C578 1.415 1_554 S
C580 C585 1.425 . S
C580 C587 1.409 . S
C581 H573 0.930 . S
C581 C579 1.419 . S
C581 C582 1.362 1_556 S
C582 H574 0.930 . S
C582 C581 1.362 1_554 S
C582 C585 1.409 . S
C583 H575 0.930 . S
C583 C584 1.355 . S
C583 C585 1.415 . S
C584 C583 1.355 . S
C584 C586 1.419 . S
C585 C580 1.425 . S
C585 C582 1.409 . S
C585 C583 1.415 . S
C586 H576 0.930 . S
C586 C584 1.419 . S
C586 C587 1.362 . S
C587 H577 0.930 . S
C587 C580 1.409 . S
C587 C586 1.362 . S
H588 C594 0.930 . S
H589 C597 0.930 . S
H590 C598 0.930 1_554 S
H591 C599 0.930 . S
H592 C602 0.930 . S
H593 C603 0.930 . S
C594 H588 0.930 . S
C594 C595 1.355 . S
C594 C596 1.415 . S
C595 C594 1.355 . S
C595 C597 1.419 . S
C596 C594 1.415 . S
C596 C601 1.425 . S
C596 C603 1.409 . S
C597 H589 0.930 . S
C597 C595 1.419 . S
C597 C598 1.362 . S
C598 H590 0.930 1_556 S
C598 C597 1.362 . S
C598 C601 1.409 . S
C599 H591 0.930 . S
C599 C600 1.355 1_554 S
C599 C601 1.415 1_554 S
C600 C599 1.355 1_556 S
C600 C602 1.419 . S
C601 C596 1.425 . S
C601 C598 1.409 . S
C601 C599 1.415 1_556 S
C602 H592 0.930 . S
C602 C600 1.419 . S
C602 C603 1.362 . S
C603 H593 0.930 . S
C603 C596 1.409 . S
C603 C602 1.362 . S
H604 C610 0.930 . S
H605 C613 0.930 . S
H606 C614 0.930 1_556 S
H607 C615 0.930 . S
H608 C618 0.930 . S
H609 C619 0.930 . S
C610 H604 0.930 . S
C610 C611 1.355 . S
C610 C612 1.415 . S
C611 C610 1.355 . S
C611 C613 1.419 . S
C612 C610 1.415 . S
C612 C617 1.425 . S
C612 C619 1.409 . S
C613 H605 0.930 . S
C613 C611 1.419 . S
C613 C614 1.362 . S
C614 H606 0.930 1_554 S
C614 C613 1.362 . S
C614 C617 1.409 . S
C615 H607 0.930 . S
C615 C616 1.355 1_556 S
C615 C617 1.415 1_556 S
C616 C615 1.355 1_554 S
C616 C618 1.419 . S
C617 C612 1.425 . S
C617 C614 1.409 . S
C617 C615 1.415 1_554 S
C618 H608 0.930 . S
C618 C616 1.419 . S
C618 C619 1.362 . S
C619 H609 0.930 . S
C619 C612 1.409 . S
C619 C618 1.362 . S
H620 C626 0.930 . S
H621 C629 0.930 . S
H622 C630 0.930 . S
H623 C631 0.930 . S
H624 C634 0.930 . S
H625 C635 0.930 . S
C626 H620 0.930 . S
C626 C627 1.355 . S
C626 C628 1.415 . S
C627 C626 1.355 . S
C627 C629 1.419 . S
C628 C626 1.415 . S
C628 C633 1.425 . S
C628 C635 1.409 . S
C629 H621 0.930 . S
C629 C627 1.419 . S
C629 C630 1.362 . S
C630 H622 0.930 . S
C630 C629 1.362 . S
C630 C633 1.409 . S
C631 H623 0.930 . S
C631 C632 1.355 . S
C631 C633 1.415 . S
C632 C631 1.355 . S
C632 C634 1.419 . S
C633 C628 1.425 . S
C633 C630 1.409 . S
C633 C631 1.415 . S
C634 H624 0.930 . S
C634 C632 1.419 . S
C634 C635 1.362 . S
C635 H625 0.930 . S
C635 C628 1.409 . S
C635 C634 1.362 . S
H636 C642 0.930 . S
H637 C645 0.930 . S
H638 C646 0.930 . S
H639 C647 0.930 . S
H640 C650 0.930 . S
H641 C651 0.930 . S
C642 H636 0.930 . S
C642 C643 1.355 . S
C642 C644 1.415 . S
C643 C642 1.355 . S
C643 C645 1.419 . S
C644 C642 1.415 . S
C644 C649 1.425 . S
C644 C651 1.409 . S
C645 H637 0.930 . S
C645 C643 1.419 . S
C645 C646 1.362 . S
C646 H638 0.930 . S
C646 C645 1.362 . S
C646 C649 1.409 . S
C647 H639 0.930 . S
C647 C648 1.355 . S
C647 C649 1.415 . S
C648 C647 1.355 . S
C648 C650 1.419 . S
C649 C644 1.425 . S
C649 C646 1.409 . S
C649 C647 1.415 . S
C650 H640 0.930 . S
C650 C648 1.419 . S
C650 C651 1.362 . S
C651 H641 0.930 . S
C651 C644 1.409 . S
C651 C650 1.362 . S
H652 C658 0.930 . S
H653 C661 0.930 . S
H654 C662 0.930 . S
H655 C663 0.930 . S
H656 C666 0.930 . S
H657 C667 0.930 . S
C658 H652 0.930 . S
C658 C659 1.355 . S
C658 C660 1.415 . S
C659 C658 1.355 . S
C659 C661 1.419 . S
C660 C658 1.415 . S
C660 C665 1.425 . S
C660 C667 1.409 . S
C661 H653 0.930 . S
C661 C659 1.419 . S
C661 C662 1.362 . S
C662 H654 0.930 . S
C662 C661 1.362 . S
C662 C665 1.409 . S
C663 H655 0.930 . S
C663 C664 1.355 . S
C663 C665 1.415 . S
C664 C663 1.355 . S
C664 C666 1.419 . S
C665 C660 1.425 . S
C665 C662 1.409 . S
C665 C663 1.415 . S
C666 H656 0.930 . S
C666 C664 1.419 . S
C666 C667 1.362 . S
C667 H657 0.930 . S
C667 C660 1.409 . S
C667 C666 1.362 . S
H668 C674 0.930 . S
H669 C677 0.930 . S
H670 C678 0.930 . S
H671 C679 0.930 . S
H672 C682 0.930 . S
H673 C683 0.930 . S
C674 H668 0.930 . S
C674 C675 1.355 . S
C674 C676 1.415 . S
C675 C674 1.355 . S
C675 C677 1.419 . S
C676 C674 1.415 . S
C676 C681 1.425 . S
C676 C683 1.409 . S
C677 H669 0.930 . S
C677 C675 1.419 . S
C677 C678 1.362 . S
C678 H670 0.930 . S
C678 C677 1.362 . S
C678 C681 1.409 . S
C679 H671 0.930 . S
C679 C680 1.355 . S
C679 C681 1.415 . S
C680 C679 1.355 . S
C680 C682 1.419 . S
C681 C676 1.425 . S
C681 C678 1.409 . S
C681 C679 1.415 . S
C682 H672 0.930 . S
C682 C680 1.419 . S
C682 C683 1.362 . S
C683 H673 0.930 . S
C683 C676 1.409 . S
C683 C682 1.362 . S
H684 C690 0.930 . S
H685 C693 0.930 . S
H686 C694 0.930 . S
H687 C695 0.930 . S
H688 C698 0.930 . S
H689 C699 0.930 . S
C690 H684 0.930 . S
C690 C691 1.355 . S
C690 C692 1.415 . S
C691 C690 1.355 . S
C691 C693 1.419 . S
C692 C690 1.415 . S
C692 C697 1.425 . S
C692 C699 1.409 . S
C693 H685 0.930 . S
C693 C691 1.419 . S
C693 C694 1.362 . S
C694 H686 0.930 . S
C694 C693 1.362 . S
C694 C697 1.409 . S
C695 H687 0.930 . S
C695 C696 1.355 . S
C695 C697 1.415 . S
C696 C695 1.355 . S
C696 C698 1.419 . S
C697 C692 1.425 . S
C697 C694 1.409 . S
C697 C695 1.415 . S
C698 H688 0.930 . S
C698 C696 1.419 . S
C698 C699 1.362 . S
C699 H689 0.930 . S
C699 C692 1.409 . S
C699 C698 1.362 . S
H700 C706 0.930 . S
H701 C709 0.930 . S
H702 C710 0.930 . S
H703 C711 0.930 . S
H704 C714 0.930 . S
H705 C715 0.930 . S
C706 H700 0.930 . S
C706 C707 1.355 . S
C706 C708 1.415 . S
C707 C706 1.355 . S
C707 C709 1.419 . S
C708 C706 1.415 . S
C708 C713 1.425 . S
C708 C715 1.409 . S
C709 H701 0.930 . S
C709 C707 1.419 . S
C709 C710 1.362 . S
C710 H702 0.930 . S
C710 C709 1.362 . S
C710 C713 1.409 . S
C711 H703 0.930 . S
C711 C712 1.355 . S
C711 C713 1.415 . S
C712 C711 1.355 . S
C712 C714 1.419 . S
C713 C708 1.425 . S
C713 C710 1.409 . S
C713 C711 1.415 . S
C714 H704 0.930 . S
C714 C712 1.419 . S
C714 C715 1.362 . S
C715 H705 0.930 . S
C715 C708 1.409 . S
C715 C714 1.362 . S
H716 C722 0.930 . S
H717 C725 0.930 . S
H718 C726 0.930 . S
H719 C727 0.930 . S
H720 C730 0.930 . S
H721 C731 0.930 . S
C722 H716 0.930 . S
C722 C723 1.355 . S
C722 C724 1.415 . S
C723 C722 1.355 . S
C723 C725 1.419 . S
C724 C722 1.415 . S
C724 C729 1.425 . S
C724 C731 1.409 . S
C725 H717 0.930 . S
C725 C723 1.419 . S
C725 C726 1.362 . S
C726 H718 0.930 . S
C726 C725 1.362 . S
C726 C729 1.409 . S
C727 H719 0.930 . S
C727 C728 1.355 . S
C727 C729 1.415 . S
C728 C727 1.355 . S
C728 C730 1.419 . S
C729 C724 1.425 . S
C729 C726 1.409 . S
C729 C727 1.415 . S
C730 H720 0.930 . S
C730 C728 1.419 . S
C730 C731 1.362 . S
C731 H721 0.930 . S
C731 C724 1.409 . S
C731 C730 1.362 . S
H732 C738 0.930 . S
H733 C741 0.930 . S
H734 C742 0.930 . S
H735 C743 0.930 . S
H736 C746 0.930 . S
H737 C747 0.930 . S
C738 H732 0.930 . S
C738 C739 1.355 . S
C738 C740 1.415 . S
C739 C738 1.355 . S
C739 C741 1.419 . S
C740 C738 1.415 . S
C740 C745 1.425 . S
C740 C747 1.409 . S
C741 H733 0.930 . S
C741 C739 1.419 . S
C741 C742 1.362 . S
C742 H734 0.930 . S
C742 C741 1.362 . S
C742 C745 1.409 . S
C743 H735 0.930 . S
C743 C744 1.355 . S
C743 C745 1.415 . S
C744 C743 1.355 . S
C744 C746 1.419 . S
C745 C740 1.425 . S
C745 C742 1.409 . S
C745 C743 1.415 . S
C746 H736 0.930 . S
C746 C744 1.419 . S
C746 C747 1.362 . S
C747 H737 0.930 . S
C747 C740 1.409 . S
C747 C746 1.362 . S
H748 C754 0.930 . S
H749 C757 0.930 . S
H750 C758 0.930 . S
H751 C759 0.930 . S
H752 C762 0.930 . S
H753 C763 0.930 . S
C754 H748 0.930 . S
C754 C755 1.355 1_556 S
C754 C756 1.415 . S
C755 C754 1.355 1_554 S
C755 C757 1.419 . S
C756 C754 1.415 . S
C756 C761 1.425 . S
C756 C763 1.409 . S
C757 H749 0.930 . S
C757 C755 1.419 . S
C757 C758 1.362 . S
C758 H750 0.930 . S
C758 C757 1.362 . S
C758 C761 1.409 1_554 S
C759 H751 0.930 . S
C759 C760 1.355 . S
C759 C761 1.415 . S
C760 C759 1.355 . S
C760 C762 1.419 . S
C761 C756 1.425 . S
C761 C758 1.409 1_556 S
C761 C759 1.415 . S
C762 H752 0.930 . S
C762 C760 1.419 . S
C762 C763 1.362 . S
C763 H753 0.930 . S
C763 C756 1.409 . S
C763 C762 1.362 . S
H764 C770 0.930 . S
H765 C773 0.930 . S
H766 C774 0.930 . S
H767 C775 0.931 . S
H768 C778 0.930 . S
H769 C779 0.930 . S
C770 H764 0.930 . S
C770 C771 1.355 . S
C770 C772 1.415 . S
C771 C770 1.355 . S
C771 C773 1.419 . S
C772 C770 1.415 . S
C772 C777 1.425 . S
C772 C779 1.409 . S
C773 H765 0.930 . S
C773 C771 1.419 . S
C773 C774 1.362 . S
C774 H766 0.930 . S
C774 C773 1.362 . S
C774 C777 1.409 . S
C775 H767 0.931 . S
C775 C776 1.354 1_556 S
C775 C777 1.413 1_556 S
C776 C775 1.354 1_554 S
C776 C778 1.419 . S
C777 C772 1.425 . S
C777 C774 1.409 . S
C777 C775 1.413 1_554 S
C778 H768 0.930 . S
C778 C776 1.419 . S
C778 C779 1.362 . S
C779 H769 0.930 . S
C779 C772 1.409 . S
C779 C778 1.362 . S
H780 C786 0.930 . S
H781 C789 0.930 . S
H782 C790 0.930 . S
H783 C791 0.930 . S
H784 C794 0.930 . S
H785 C795 0.930 . S
C786 H780 0.930 . S
C786 C787 1.355 . S
C786 C788 1.415 . S
C787 C786 1.355 . S
C787 C789 1.419 . S
C788 C786 1.415 . S
C788 C793 1.425 . S
C788 C795 1.409 . S
C789 H781 0.930 . S
C789 C787 1.419 . S
C789 C790 1.362 . S
C790 H782 0.930 . S
C790 C789 1.362 . S
C790 C793 1.409 . S
C791 H783 0.930 . S
C791 C792 1.355 . S
C791 C793 1.415 . S
C792 C791 1.355 . S
C792 C794 1.419 . S
C793 C788 1.425 . S
C793 C790 1.409 . S
C793 C791 1.415 . S
C794 H784 0.930 . S
C794 C792 1.419 . S
C794 C795 1.362 . S
C795 H785 0.930 . S
C795 C788 1.409 . S
C795 C794 1.362 . S
H796 C802 0.930 . S
H797 C805 0.930 . S
H798 C806 0.930 . S
H799 C807 0.930 . S
H800 C810 0.930 . S
H801 C811 0.930 . S
C802 H796 0.930 . S
C802 C803 1.355 . S
C802 C804 1.415 . S
C803 C802 1.355 . S
C803 C805 1.419 . S
C804 C802 1.415 . S
C804 C809 1.425 1_655 S
C804 C811 1.409 1_655 S
C805 H797 0.930 . S
C805 C803 1.419 . S
C805 C806 1.362 . S
C806 H798 0.930 . S
C806 C805 1.362 . S
C806 C809 1.409 1_655 S
C807 H799 0.930 . S
C807 C808 1.355 . S
C807 C809 1.415 . S
C808 C807 1.355 . S
C808 C810 1.419 . S
C809 C804 1.425 1_455 S
C809 C806 1.409 1_455 S
C809 C807 1.415 . S
C810 H800 0.930 . S
C810 C808 1.419 . S
C810 C811 1.362 . S
C811 H801 0.930 . S
C811 C804 1.409 1_455 S
C811 C810 1.362 . S
H812 C818 0.930 . S
H813 C821 0.930 . S
H814 C822 0.930 . S
H815 C823 0.930 . S
H816 C826 0.930 . S
H817 C827 0.930 . S
C818 H812 0.930 . S
C818 C819 1.355 . S
C818 C820 1.415 . S
C819 C818 1.355 . S
C819 C821 1.419 . S
C820 C818 1.415 . S
C820 C825 1.425 1_545 S
C820 C827 1.409 1_545 S
C821 H813 0.930 . S
C821 C819 1.419 . S
C821 C822 1.362 . S
C822 H814 0.930 . S
C822 C821 1.362 . S
C822 C825 1.409 1_545 S
C823 H815 0.930 . S
C823 C824 1.355 . S
C823 C825 1.415 . S
C824 C823 1.355 . S
C824 C826 1.419 . S
C825 C820 1.425 1_565 S
C825 C822 1.409 1_565 S
C825 C823 1.415 . S
C826 H816 0.930 . S
C826 C824 1.419 . S
C826 C827 1.362 . S
C827 H817 0.930 . S
C827 C820 1.409 1_565 S
C827 C826 1.362 . S
H828 C834 0.930 . S
H829 C837 0.930 . S
H830 C838 0.930 . S
H831 C839 0.930 . S
H832 C842 0.930 . S
H833 C843 0.930 . S
C834 H828 0.930 . S
C834 C835 1.355 . S
C834 C836 1.415 . S
C835 C834 1.355 . S
C835 C837 1.419 . S
C836 C834 1.415 . S
C836 C841 1.425 . S
C836 C843 1.409 . S
C837 H829 0.930 . S
C837 C835 1.419 . S
C837 C838 1.362 . S
C838 H830 0.930 . S
C838 C837 1.362 . S
C838 C841 1.409 . S
C839 H831 0.930 . S
C839 C840 1.355 . S
C839 C841 1.415 . S
C840 C839 1.355 . S
C840 C842 1.419 . S
C841 C836 1.425 . S
C841 C838 1.409 . S
C841 C839 1.415 . S
C842 H832 0.930 . S
C842 C840 1.419 . S
C842 C843 1.362 . S
C843 H833 0.930 . S
C843 C836 1.409 . S
C843 C842 1.362 . S
H844 C850 0.930 . S
H845 C853 0.930 . S
H846 C854 0.891 1_655 S
H847 C855 0.930 . S
H848 C858 0.930 . S
H849 C859 0.891 1_455 S
C850 H844 0.930 . S
C850 C851 1.355 . S
C850 C852 1.415 . S
C851 C850 1.355 . S
C851 C853 1.419 . S
C852 C850 1.415 . S
C852 C857 1.425 1_455 S
C852 C859 1.409 1_455 S
C853 H845 0.930 . S
C853 C851 1.419 . S
C853 C854 1.362 . S
C854 H846 0.891 1_455 S
C854 C853 1.362 . S
C854 C857 1.409 1_455 S
C855 H847 0.930 . S
C855 C856 1.355 . S
C855 C857 1.415 . S
C856 C855 1.355 . S
C856 C858 1.419 . S
C857 C852 1.425 1_655 S
C857 C854 1.409 1_655 S
C857 C855 1.415 . S
C858 H848 0.930 . S
C858 C856 1.419 . S
C858 C859 1.362 . S
C859 H849 0.891 1_655 S
C859 C852 1.409 1_655 S
C859 C858 1.362 . S
H860 C866 0.930 . S
H861 C869 0.930 . S
H862 C870 0.930 . S
H863 C871 0.930 . S
H864 C874 0.930 . S
H865 C875 0.930 . S
C866 H860 0.930 . S
C866 C867 1.355 . S
C866 C868 1.415 . S
C867 C866 1.355 . S
C867 C869 1.419 1_556 S
C868 C866 1.415 . S
C868 C873 1.425 1_546 S
C868 C875 1.409 1_545 S
C869 H861 0.930 . S
C869 C867 1.419 1_554 S
C869 C870 1.362 . S
C870 H862 0.930 . S
C870 C869 1.362 . S
C870 C873 1.409 1_545 S
C871 H863 0.930 . S
C871 C872 1.355 . S
C871 C873 1.415 . S
C872 C871 1.355 . S
C872 C874 1.419 1_554 S
C873 C868 1.425 1_564 S
C873 C870 1.409 1_565 S
C873 C871 1.415 . S
C874 H864 0.930 . S
C874 C872 1.419 1_556 S
C874 C875 1.362 . S
C875 H865 0.930 . S
C875 C868 1.409 1_565 S
C875 C874 1.362 . S
C403 N13 1.253 . S
C408 N2 1.251 . S
C419 N35 1.278 . S
C424 N46 1.278 . S
C435 N68 1.272 . S
C440 N79 1.272 . S
C451 N112 1.299 . S
C456 N101 1.299 . S
C467 N145 1.288 . S
C472 N134 1.286 . S
C483 N167 1.259 . S
C488 N178 1.262 . S
C499 N211 1.267 . S
C504 N200 1.266 . S
C515 N244 1.261 . S
C520 N233 1.259 . S
C531 N266 1.273 . S
C536 N277 1.273 . S
C547 N310 1.299 . S
C552 N299 1.299 . S
C563 N343 1.292 . S
C568 N332 1.293 . S
C579 N365 1.258 . S
C584 N376 1.261 . S
C595 C205 1.525 . S
C600 C7 1.535 1_556 S
C611 C40 1.553 . S
C616 C238 1.526 1_554 S
C627 C271 1.525 . S
C632 C73 1.547 . S
C643 C304 1.561 . S
C648 C106 1.530 . S
C659 C337 1.551 . S
C664 C139 1.580 . S
C675 C370 1.528 . S
C680 C172 1.530 . S
C691 C18 1.266 . S
C696 C348 1.249 . S
C707 C51 1.203 . S
C712 C381 1.212 . S
C723 C84 1.243 . S
C728 C216 1.265 . S
C739 C249 1.265 . S
C744 C117 1.246 . S
C755 C282 1.264 . S
C760 C150 1.240 . S
C771 C315 1.217 . S
C776 C183 1.202 1_554 S
C787 C21 1.483 . S
C792 C318 1.513 . S
C803 C54 1.530 . S
C808 C351 1.498 . S
C819 C384 1.509 . S
C824 C87 1.484 . S
C835 C120 1.484 . S
C840 C219 1.517 . S
C851 C153 1.529 . S
C856 C252 1.509 . S
C867 C186 1.492 . S
C872 C285 1.494 . S
