# Generated by pormake.
# Topology kag, (6)-cn, num edge types: 1
# Building blocks:
#     Node 0, Type 0, BuildingBlock: BETFEN_clean_sbu_0, # of connection points: 6
#     Node 1, Type 0, BuildingBlock: BETFEN_clean_sbu_0, # of connection points: 6
#     Node 2, Type 0, BuildingBlock: BETFEN_clean_sbu_0, # of connection points: 6
#     Edge 3, Type (0, 0), BuildingBlock: TEMPAE_clean_linker_10, # of connection points: 2
#     Edge 4, Type (0, 0), BuildingBlock: TEMPAE_clean_linker_10, # of connection points: 2
#     Edge 5, Type (0, 0), BuildingBlock: TEMPAE_clean_linker_10, # of connection points: 2
#     Edge 6, Type (0, 0), BuildingBlock: TEMPAE_clean_linker_10, # of connection points: 2
#     Edge 7, Type (0, 0), BuildingBlock: TEMPAE_clean_linker_10, # of connection points: 2
#     Edge 8, Type (0, 0), BuildingBlock: TEMPAE_clean_linker_10, # of connection points: 2
#     Edge 9, Type (0, 0), BuildingBlock: TEMPAE_clean_linker_10, # of connection points: 2
#     Edge 10, Type (0, 0), BuildingBlock: TEMPAE_clean_linker_10, # of connection points: 2
#     Edge 11, Type (0, 0), BuildingBlock: TEMPAE_clean_linker_10, # of connection points: 2
# Relax obj value: 0.076
# Max RMSD: 0.194
# Mean RMSD: 0.102
data_MOF--net-kag--node1-BETFEN_clean_sbu_0--edge1-TEMPAE_clean_linker_10
_symmetry_space_group_name_H-M    P1
_symmetry_Int_Tables_number       1
_symmetry_cell_setting            triclinic
loop_
_symmetry_equiv_pos_as_xyz
'x, y, z'
_cell_length_a     32.060597
_cell_length_b     42.993858
_cell_length_c     14.889398
_cell_angle_alpha  95.116223
_cell_angle_beta   91.130372
_cell_angle_gamma 96.600682
loop_
_atom_site_label
_atom_site_type_symbol
_atom_site_fract_x
_atom_site_fract_y
_atom_site_fract_z
_atom_type_partial_charge
Pr0 Pr 1.04844 0.46859 0.01915 0.0
Pr1 Pr 0.06218 0.54684 1.00298 0.0
C2 C 1.03416 0.41244 0.08583 0.0
C3 C 1.00578 0.38287 0.06954 0.0
C4 C 0.99538 0.36905 0.9817 0.0
C5 C 0.96867 0.34083 0.96804 0.0
C6 C 0.95158 0.32609 0.04189 0.0
C7 C 0.96171 0.34022 0.12963 0.0
C8 C 0.98865 0.3683 0.14325 0.0
C9 C 1.04577 0.48332 0.83834 0.0
C10 C 0.96425 0.50823 0.9985 0.0
C11 C 0.07868 0.603 0.93728 0.0
C12 C 0.10802 0.63211 0.95441 0.0
C13 C 0.1128 0.64884 0.04023 0.0
C14 C 0.14064 0.67648 0.05437 0.0
C15 C 0.16448 0.68773 0.98327 0.0
C16 C 0.15987 0.6708 0.89775 0.0
C17 C 0.1318 0.64333 0.88346 0.0
C18 C 0.06188 0.53191 0.18388 0.0
C19 C 0.14658 0.50744 0.02392 0.0
O20 O 1.01716 0.43722 0.1186 0.0
O21 O 0.06232 0.41853 0.02498 0.0
O22 O 1.0515 0.50181 0.90913 0.0
O23 O 1.03983 0.45455 0.86061 0.0
O24 O 0.9887 0.53429 0.98344 0.0
O25 O 0.97909 0.4819 0.0178 0.0
O26 O 0.0949 0.57787 0.90457 0.0
O27 O 1.04982 0.59727 0.99693 0.0
O28 O 0.0597 0.51362 0.11259 0.0
O29 O 0.06465 0.56074 0.16192 0.0
O30 O 0.12221 0.48089 0.03443 0.0
O31 O 0.13165 0.53414 0.00901 0.0
H32 H 1.00785 0.38003 0.92362 0.0
H33 H 0.96103 0.33068 0.89966 0.0
H34 H 0.94934 0.32928 0.18785 0.0
H35 H 0.99625 0.37862 0.21152 0.0
H36 H 0.0951 0.64061 0.09645 0.0
H37 H 0.14385 0.68889 0.12118 0.0
H38 H 0.17748 0.67908 0.84147 0.0
H39 H 0.12858 0.63084 0.81671 0.0
Pr40 Pr 0.60633 0.01609 0.99428 0.0
Pr41 Pr 0.5073 1.00461 0.02187 0.0
C42 C 0.67935 0.03418 0.91852 0.0
C43 C 0.711 0.06195 0.93276 0.0
C44 C 0.71988 0.0774 0.01933 0.0
C45 C 0.74707 0.10541 0.03088 0.0
C46 C 0.76541 0.11867 0.95596 0.0
C47 C 0.75671 0.10298 0.8695 0.0
C48 C 0.7298 0.07483 0.85809 0.0
C49 C 0.59079 0.01959 0.18044 0.0
C50 C 0.55118 0.07734 0.04171 0.0
C51 C 0.42955 0.98306 0.06987 0.0
C52 C 0.40373 0.95224 0.06212 0.0
C53 C 0.40372 0.93152 0.98359 0.0
C54 C 0.37917 0.90232 0.97721 0.0
C55 C 0.35465 0.89315 0.04964 0.0
C56 C 0.35538 0.91364 0.12883 0.0
C57 C 0.37961 0.94301 0.13483 0.0
C58 C 0.53242 0.01399 0.84668 0.0
C59 C 0.56284 0.94228 0.98808 0.0
O60 O 0.64289 0.03964 0.88593 0.0
O61 O 0.67635 0.01484 0.98218 0.0
O62 O 0.5643 0.01457 0.11581 0.0
O63 O 0.62838 0.02345 0.14897 0.0
O64 O 0.51927 0.05833 0.06816 0.0
O65 O 0.58392 0.06652 1.00208 0.0
O66 O 0.46222 0.98607 0.12532 0.0
O67 O 0.43717 0.99608 0.99478 0.0
O68 O 0.54939 0.99745 0.89989 0.0
O69 O 0.50038 0.02571 0.88298 0.0
O70 O 0.59761 0.96101 0.97555 0.0
O71 O 0.5268 0.95327 0.00749 0.0
H72 H 0.70508 0.06821 0.07781 0.0
H73 H 0.7528 0.11718 0.09812 0.0
H74 H 0.77064 0.11254 0.81067 0.0
H75 H 0.72296 0.06343 0.79069 0.0
H76 H 0.42268 0.93785 0.92712 0.0
H77 H 0.37961 0.88678 0.91591 0.0
H78 H 0.33662 0.90718 0.18547 0.0
H79 H 0.3795 0.95855 0.19624 0.0
Pr80 Pr 0.56233 0.54399 0.00728 0.0
Pr81 Pr 0.54899 0.47425 0.01525 0.0
C82 C 0.56432 0.60571 0.98537 0.0
C83 C 0.56655 0.63998 0.97593 0.0
C84 C 0.59372 0.66141 0.03299 0.0
C85 C 0.59418 0.69384 0.02911 0.0
C86 C 0.56734 0.70583 0.96832 0.0
C87 C 0.5408 0.68433 0.90967 0.0
C88 C 0.54042 0.65178 0.91343 0.0
C89 C 0.5661 0.52489 0.18159 0.0
C90 C 0.46452 0.50895 0.02232 0.0
C91 C 0.54734 0.41299 0.04222 0.0
C92 C 0.54514 0.37896 0.05474 0.0
C93 C 0.51457 0.3574 0.00675 0.0
C94 C 0.51404 0.32506 0.01245 0.0
C95 C 0.54422 0.31331 0.06595 0.0
C96 C 0.57419 0.33497 0.1159 0.0
C97 C 0.57462 0.36744 0.11038 0.0
C98 C 0.54529 0.49235 0.83983 0.0
C99 C 0.64672 0.50932 0.99935 0.0
O100 O 0.54281 0.58408 0.92992 0.0
O101 O 0.58487 0.59496 0.05023 0.0
O102 O 0.53849 0.51406 0.12228 0.0
O103 O 0.59313 0.54602 0.15216 0.0
O104 O 0.48186 0.48595 0.05595 0.0
O105 O 0.48825 0.53177 0.98708 0.0
O106 O 0.57145 0.43495 0.09167 0.0
O107 O 0.52404 0.42322 0.98089 0.0
O108 O 0.57213 0.50441 0.89956 0.0
O109 O 0.52095 0.46937 0.86807 0.0
O110 O 0.62941 0.53235 0.96566 0.0
O111 O 0.62301 0.4866 0.03506 0.0
H112 H 0.61445 0.65315 0.08164 0.0
H113 H 0.61566 0.70956 0.07407 0.0
H114 H 0.51944 0.69264 0.86246 0.0
H115 H 0.51902 0.63588 0.86875 0.0
H116 H 0.49122 0.36547 0.96363 0.0
H117 H 0.48996 0.30923 0.97446 0.0
H118 H 0.59814 0.32682 0.15724 0.0
H119 H 0.59869 0.38344 0.1479 0.0
C120 C 0.07616 0.51514 0.71643 0.0
C121 C 1.04603 0.49193 0.74387 0.0
C122 C 0.07924 0.52089 0.62473 0.0
C123 C 1.0504 0.5039 0.5593 0.0
C124 C 1.01902 0.48116 0.58773 0.0
C125 C 1.01789 0.47496 0.67906 0.0
C126 C 0.11409 0.54455 0.59753 0.0
C127 C 0.98639 0.46349 0.52178 0.0
C128 C 1.03589 0.54166 0.33958 0.0
C129 C 0.05713 0.52309 0.27775 0.0
C130 C 1.0325 0.53514 0.43032 0.0
C131 C 1.05251 0.51025 0.46162 0.0
C132 C 0.07432 0.4915 0.3993 0.0
C133 C 0.07559 0.49773 0.30769 0.0
C134 C 1.0073 0.55488 0.49263 0.0
C135 C 0.09732 0.46542 0.4299 0.0
H136 H 0.09846 0.52787 0.76612 0.0
H137 H 0.99456 0.45697 0.70013 0.0
H138 H 0.13336 0.53313 0.54601 0.0
H139 H 0.10073 0.56386 0.56645 0.0
H140 H 0.13492 0.5549 0.65572 0.0
H141 H 0.96261 0.448 0.55546 0.0
H142 H 0.97004 0.48033 0.48579 0.0
H143 H 1.00172 0.44882 0.4702 0.0
H144 H 1.02141 0.56123 0.31655 0.0
H145 H 0.09244 0.48355 0.26027 0.0
H146 H 1.02813 0.56817 0.54667 0.0
H147 H 0.98325 0.53949 0.52582 0.0
H148 H 0.99126 0.57189 0.4565 0.0
H149 H 0.12054 0.475 0.48457 0.0
H150 H 0.11402 0.45374 0.37409 0.0
H151 H 0.07496 0.44746 0.45806 0.0
C152 C 0.5447 1.0033 0.30675 0.0
C153 C 0.58151 0.01981 0.27783 0.0
C154 C 0.53703 1.00204 0.39937 0.0
C155 C 0.56637 0.01836 0.46475 0.0
C156 C 0.60319 0.0356 0.4355 0.0
C157 C 0.61057 0.03571 0.34261 0.0
C158 C 0.49786 0.98278 0.42725 0.0
C159 C 0.63476 0.05406 0.50235 0.0
C160 C 0.52679 0.03828 0.7009 0.0
C161 C 0.54284 0.01578 0.75027 0.0
C162 C 0.5347 0.03967 0.60858 0.0
C163 C 0.55852 0.01756 0.5636 0.0
C164 C 0.5749 0.99479 0.61333 0.0
C165 C 0.56729 0.99441 0.70621 0.0
C166 C 0.5175 0.06483 0.55913 0.0
C167 C 0.59988 0.97046 0.56805 0.0
H168 H 0.52246 0.99061 0.25697 0.0
H169 H 0.63905 0.04858 0.32053 0.0
H170 H 0.50657 0.96452 0.47002 0.0
H171 H 0.47837 0.99798 0.46835 0.0
H172 H 0.47854 0.97105 0.36836 0.0
H173 H 0.66105 0.06711 0.46872 0.0
H174 H 0.61907 0.07113 0.5463 0.0
H175 H 0.64795 0.038 0.54673 0.0
H176 H 0.50805 0.05497 0.73467 0.0
H177 H 0.57963 0.97687 0.74388 0.0
H178 H 0.49527 0.05384 0.50424 0.0
H179 H 0.54342 0.07888 0.52729 0.0
H180 H 0.50092 0.08097 0.60443 0.0
H181 H 0.58081 0.95665 0.51197 0.0
H182 H 0.60981 0.95403 0.6156 0.0
H183 H 0.6283 0.98217 0.5383 0.0
C184 C 0.55683 0.5276 0.71679 0.0
C185 C 0.54904 0.49721 0.74386 0.0
C186 C 0.55913 0.53244 0.6249 0.0
C187 C 0.55547 0.50613 0.55951 0.0
C188 C 0.54884 0.47534 0.58722 0.0
C189 C 0.54476 0.47129 0.67913 0.0
C190 C 0.56465 0.56564 0.59777 0.0
C191 C 0.54649 0.44669 0.51995 0.0
C192 C 0.52409 0.51452 0.3165 0.0
C193 C 0.56333 0.51916 0.27714 0.0
C194 C 0.5211 0.51098 0.40898 0.0
C195 C 0.55822 0.51074 0.46201 0.0
C196 C 0.5979 0.51452 0.4216 0.0
C197 C 0.59999 0.51939 0.32979 0.0
C198 C 0.47832 0.50809 0.45019 0.0
C199 C 0.63805 0.51308 0.47503 0.0
H200 H 0.55994 0.54756 0.76735 0.0
H201 H 0.53919 0.44776 0.70065 0.0
H202 H 0.5944 0.56994 0.5617 0.0
H203 H 0.53868 0.56902 0.55054 0.0
H204 H 0.56517 0.58346 0.65674 0.0
H205 H 0.54373 0.42444 0.55316 0.0
H206 H 0.51904 0.4461 0.47312 0.0
H207 H 0.57498 0.4478 0.47862 0.0
H208 H 0.49579 0.51468 0.2755 0.0
H209 H 0.63028 0.52282 0.29866 0.0
H210 H 0.47747 0.52663 0.50676 0.0
H211 H 0.47196 0.48508 0.47847 0.0
H212 H 0.45276 0.5102 0.40039 0.0
H213 H 0.64226 0.53243 0.53001 0.0
H214 H 0.66613 0.51491 0.43239 0.0
H215 H 0.63634 0.49064 0.50707 0.0
C216 C 0.21954 0.53415 0.06283 0.0
C217 C 0.19313 0.50732 0.02765 0.0
C218 C 0.26362 0.53463 0.06529 0.0
C219 C 0.28212 0.50804 0.02865 0.0
C220 C 0.25553 0.48099 0.99219 0.0
C221 C 0.21149 0.48077 0.9936 0.0
C222 C 0.29042 0.56359 0.10759 0.0
C223 C 0.27363 0.45247 0.94982 0.0
C224 C 0.39637 0.52179 0.95635 0.0
C225 C 0.41807 0.50927 0.02483 0.0
C226 C 0.35225 0.52112 0.95604 0.0
C227 C 0.32916 0.50863 0.02765 0.0
C228 C 0.35114 0.49664 0.0981 0.0
C229 C 0.3951 0.49659 0.09499 0.0
C230 C 0.33027 0.5333 0.87811 0.0
C231 C 0.32827 0.48408 0.17734 0.0
H232 H 0.20564 0.55471 0.0898 0.0
H233 H 0.19137 0.46007 0.9654 0.0
H234 H 0.31152 0.5571 0.16109 0.0
H235 H 0.31064 0.57424 0.05618 0.0
H236 H 0.27127 0.58159 0.13761 0.0
H237 H 0.24887 0.43365 0.92226 0.0
H238 H 0.29442 0.45928 0.89435 0.0
H239 H 0.29318 0.44278 1.00033 0.0
H240 H 0.41383 0.53139 0.90151 0.0
H241 H 0.41166 0.4871 0.14856 0.0
H242 H 0.31333 0.55331 0.90281 0.0
H243 H 0.30649 0.51461 0.84594 0.0
H244 H 0.35245 0.54122 0.82611 0.0
H245 H 0.30995 0.50218 0.20972 0.0
H246 H 0.35005 0.47708 0.22883 0.0
H247 H 0.30561 0.46335 0.15393 0.0
C248 C 0.78679 0.17296 0.91176 0.0
C249 C 0.7927 0.14918 0.96776 0.0
C250 C 0.81195 0.20208 0.92281 0.0
C251 C 0.84405 0.20744 0.99097 0.0
C252 C 0.85024 0.18347 0.04754 0.0
C253 C 0.82434 0.15468 0.03554 0.0
C254 C 0.80403 0.22718 0.86188 0.0
C255 C 0.88438 0.18819 0.12045 0.0
C256 C 0.93434 0.27141 0.96709 0.0
C257 C 0.92361 0.29592 0.02764 0.0
C258 C 0.90872 0.24251 0.95444 0.0
C259 C 0.87128 0.23809 1.00298 0.0
C260 C 0.86004 0.26287 0.06348 0.0
C261 C 0.88644 0.29143 0.07537 0.0
C262 C 0.92194 0.21659 0.88988 0.0
C263 C 0.82014 0.25919 0.11568 0.0
H264 H 0.76197 0.16894 0.8601 0.0
H265 H 0.82921 0.13625 0.07848 0.0
H266 H 0.79682 0.24864 0.90289 0.0
H267 H 0.83266 0.23383 0.82406 0.0
H268 H 0.77757 0.21938 0.81271 0.0
H269 H 0.88524 0.16714 0.15837 0.0
H270 H 0.91543 0.19363 0.09024 0.0
H271 H 0.87953 0.20854 0.16876 0.0
H272 H 0.96327 0.27465 0.93081 0.0
H273 H 0.87777 0.31043 0.12145 0.0
H274 H 0.89717 0.20932 0.83664 0.0
H275 H 0.92586 0.19566 0.92637 0.0
H276 H 0.95188 0.22383 0.85705 0.0
H277 H 0.79263 0.25308 0.06841 0.0
H278 H 0.81554 0.2809 0.15883 0.0
H279 H 0.82079 0.2396 0.15922 0.0
C280 C 0.60172 0.89445 0.9713 0.0
C281 C 0.56367 0.90753 0.97984 0.0
C282 C 0.60274 0.86168 0.96649 0.0
C283 C 0.5648 0.84136 0.96972 0.0
C284 C 0.52625 0.85438 0.97679 0.0
C285 C 0.52616 0.88719 0.98201 0.0
C286 C 0.64455 0.84881 0.95952 0.0
C287 C 0.48502 0.83367 0.97995 0.0
C288 C 0.56301 0.7545 0.88675 0.0
C289 C 0.56654 0.74057 0.96798 0.0
C290 C 0.56244 0.7872 0.88618 0.0
C291 C 0.56553 0.80658 0.96876 0.0
C292 C 0.56901 0.79267 0.05089 0.0
C293 C 0.56935 0.75996 0.04952 0.0
C294 C 0.55861 0.80104 0.79713 0.0
C295 C 0.57223 0.81236 0.14051 0.0
H296 H 0.63089 0.90983 0.96966 0.0
H297 H 0.49648 0.89689 0.98809 0.0
H298 H 0.65018 0.83601 0.01929 0.0
H299 H 0.64428 0.83169 0.89911 0.0
H300 H 0.67108 0.86759 0.95516 0.0
H301 H 0.45764 0.84737 0.98242 0.0
H302 H 0.48104 0.81628 0.91983 0.0
H303 H 0.48494 0.82026 0.04026 0.0
H304 H 0.56126 0.73988 0.82333 0.0
H305 H 0.5713 0.74949 0.11281 0.0
H306 H 0.58627 0.81845 0.78875 0.0
H307 H 0.53039 0.81372 0.79593 0.0
H308 H 0.55626 0.78283 0.73886 0.0
H309 H 0.59977 0.83059 0.14206 0.0
H310 H 0.57538 0.79805 0.19829 0.0
H311 H 0.54391 0.82478 0.14957 0.0
C312 C 0.89099 0.48178 0.96144 0.0
C313 C 0.91776 0.50862 0.99503 0.0
C314 C 0.84696 0.48173 0.95871 0.0
C315 C 0.82892 0.50877 0.99361 0.0
C316 C 0.85591 0.53581 0.02862 0.0
C317 C 0.89988 0.53559 0.02736 0.0
C318 C 0.81973 0.45275 0.91789 0.0
C319 C 0.83832 0.56479 0.06931 0.0
C320 C 0.71629 0.52094 0.92637 0.0
C321 C 0.69316 0.50888 0.99717 0.0
C322 C 0.76018 0.52043 0.92332 0.0
C323 C 0.78194 0.50866 0.99451 0.0
C324 C 0.7587 0.4969 0.0669 0.0
C325 C 0.71465 0.49663 0.0665 0.0
C326 C 0.78322 0.5322 0.84328 0.0
C327 C 0.78046 0.48507 0.14571 0.0
H328 H 0.90456 0.46091 0.93579 0.0
H329 H 0.92032 0.5563 0.0543 0.0
H330 H 0.79935 0.44266 0.9699 0.0
H331 H 0.79878 0.45907 0.86385 0.0
H332 H 0.83856 0.43437 0.88893 0.0
H333 H 0.86336 0.58353 0.09606 0.0
H334 H 0.81905 0.57435 0.01801 0.0
H335 H 0.81737 0.55858 0.12507 0.0
H336 H 0.69988 0.53023 0.8722 0.0
H337 H 0.69707 0.48754 0.12186 0.0
H338 H 0.80107 0.51366 0.81175 0.0
H339 H 0.8063 0.5528 0.86561 0.0
H340 H 0.76159 0.53915 0.79141 0.0
H341 H 0.79687 0.46464 0.1222 0.0
H342 H 0.75821 0.47786 0.19837 0.0
H343 H 0.80465 0.50368 0.17669 0.0
C344 C 0.18055 0.74419 0.04387 0.0
C345 C 0.19363 0.7173 0.99769 0.0
C346 C 0.20716 0.77266 0.05486 0.0
C347 C 0.24796 0.77417 0.01953 0.0
C348 C 0.26164 0.74692 0.97444 0.0
C349 C 0.23422 0.71885 0.96366 0.0
C350 C 0.19129 0.80128 0.10258 0.0
C351 C 0.30509 0.74751 0.93679 0.0
C352 C 0.30122 0.85364 0.96578 0.0
C353 C 0.32779 0.8625 0.04184 0.0
C354 C 0.275 0.825 0.95785 0.0
C355 C 0.27581 0.80454 0.02716 0.0
C356 C 0.30296 0.81321 0.10372 0.0
C357 C 0.32842 0.84223 0.11045 0.0
C358 C 0.24612 0.81679 0.87572 0.0
C359 C 0.30514 0.79182 0.17833 0.0
H360 H 0.14905 0.74317 0.06948 0.0
H361 H 0.24461 0.698 0.92889 0.0
H362 H 0.21271 0.8109 0.16035 0.0
H363 H 0.19091 0.81994 0.05577 0.0
H364 H 0.15914 0.796 0.12798 0.0
H365 H 0.31151 0.72399 0.90693 0.0
H366 H 0.30875 0.76418 0.88397 0.0
H367 H 0.32912 0.75597 0.99077 0.0
H368 H 0.30039 0.86944 0.9131 0.0
H369 H 0.34927 0.84894 0.16892 0.0
H370 H 0.21301 0.81322 0.89665 0.0
H371 H 0.25311 0.79439 0.83946 0.0
H372 H 0.24912 0.83536 0.82815 0.0
H373 H 0.2739 0.78756 0.20859 0.0
H374 H 0.32846 0.80178 0.23252 0.0
H375 H 0.31368 0.76867 0.1505 0.0
C376 C 0.53722 0.25859 0.98725 0.0
C377 C 0.54498 0.27861 0.06715 0.0
C378 C 0.53777 0.22593 0.98658 0.0
C379 C 0.54655 0.21273 0.06769 0.0
C380 C 0.5545 0.23272 0.14862 0.0
C381 C 0.55359 0.26536 0.14742 0.0
C382 C 0.52924 0.20555 0.89869 0.0
C383 C 0.56409 0.21962 0.23648 0.0
C384 C 0.5129 0.12488 0.0747 0.0
C385 C 0.55021 0.11201 0.05378 0.0
C386 C 0.51139 0.15761 0.081 0.0
C387 C 0.54816 0.17806 0.06697 0.0
C388 C 0.58616 0.16524 0.04826 0.0
C389 C 0.58667 0.13247 0.04151 0.0
C390 C 0.47017 0.17027 0.10041 0.0
C391 C 0.62619 0.18612 0.03369 0.0
H392 H 0.53131 0.26852 0.92449 0.0
H393 H 0.55919 0.28049 0.2097 0.0
H394 H 0.55703 0.19329 0.88137 0.0
H395 H 0.50249 0.1872 0.90565 0.0
H396 H 0.52187 0.21932 0.84194 0.0
H397 H 0.56941 0.23823 0.2936 0.0
H398 H 0.53774 0.20215 0.25269 0.0
H399 H 0.59249 0.20718 0.23009 0.0
H400 H 0.48454 0.10934 0.08411 0.0
H401 H 0.6158 0.12288 0.02606 0.0
H402 H 0.46015 0.18235 0.04221 0.0
H403 H 0.47396 0.18795 0.15985 0.0
H404 H 0.44486 0.15145 0.11343 0.0
H405 H 0.62231 0.19893 0.97316 0.0
H406 H 0.65358 0.17262 0.0243 0.0
H407 H 0.63317 0.20401 0.09206 0.0
loop_
_geom_bond_atom_site_label_1
_geom_bond_atom_site_label_2
_geom_bond_distance
_geom_bond_site_symmetry_2
_ccdc_geom_bond_type
Pr0 C2 2.880 . S
Pr0 O20 2.562 1_556 S
Pr0 O21 2.490 . S
Pr0 O22 2.695 1_655 S
Pr0 O23 2.512 . S
Pr0 O25 2.437 . S
Pr0 O28 2.436 1_556 S
Pr0 O30 2.438 1_655 S
Pr1 C11 2.880 . S
Pr1 O22 2.436 1_554 S
Pr1 O24 2.438 1_455 S
Pr1 O26 2.562 1_554 S
Pr1 O27 2.490 . S
Pr1 O28 2.695 1_455 S
Pr1 O29 2.512 . S
Pr1 O31 2.437 . S
C2 Pr0 2.880 . S
C2 C3 1.491 . S
C2 O20 1.254 1_556 S
C2 O21 1.225 . S
C3 C2 1.491 . S
C3 C4 1.392 . S
C3 C8 1.356 1_556 S
C4 C3 1.392 . S
C4 C5 1.368 . S
C4 H32 0.929 . S
C5 C4 1.368 . S
C5 C6 1.386 . S
C5 H33 0.929 . S
C6 C5 1.386 . S
C6 C7 1.373 1_556 S
C7 C6 1.373 1_554 S
C7 C8 1.409 . S
C7 H34 0.931 . S
C8 C3 1.356 1_554 S
C8 C7 1.409 . S
C8 H35 0.930 . S
C9 O22 1.270 . S
C9 O23 1.248 1_455 S
C10 O24 1.267 1_556 S
C10 O25 1.278 . S
C11 Pr1 2.880 . S
C11 C12 1.491 . S
C11 O26 1.254 1_554 S
C11 O27 1.225 . S
C12 C11 1.491 . S
C12 C13 1.392 . S
C12 C17 1.356 1_554 S
C13 C12 1.392 . S
C13 C14 1.368 . S
C13 H36 0.929 . S
C14 C13 1.368 . S
C14 C15 1.386 . S
C14 H37 0.929 . S
C15 C14 1.386 . S
C15 C16 1.373 1_554 S
C16 C15 1.373 1_556 S
C16 C17 1.409 . S
C16 H38 0.931 . S
C17 C12 1.356 1_556 S
C17 C16 1.409 . S
C17 H39 0.930 . S
C18 O28 1.270 1_455 S
C18 O29 1.248 . S
C19 O30 1.267 1_554 S
C19 O31 1.278 . S
O20 Pr0 2.562 1_554 S
O20 C2 1.254 1_554 S
O21 Pr0 2.490 . S
O21 C2 1.225 . S
O22 Pr0 2.695 1_455 S
O22 Pr1 2.436 1_556 S
O22 C9 1.270 . S
O23 Pr0 2.512 . S
O23 C9 1.248 1_655 S
O24 Pr1 2.438 1_655 S
O24 C10 1.267 1_554 S
O25 Pr0 2.437 . S
O25 C10 1.278 . S
O26 Pr1 2.562 1_556 S
O26 C11 1.254 1_556 S
O27 Pr1 2.490 . S
O27 C11 1.225 . S
O28 Pr0 2.436 1_554 S
O28 Pr1 2.695 1_655 S
O28 C18 1.270 1_655 S
O29 Pr1 2.512 . S
O29 C18 1.248 . S
O30 Pr0 2.438 1_455 S
O30 C19 1.267 1_556 S
O31 Pr1 2.437 . S
O31 C19 1.278 . S
H32 C4 0.929 . S
H33 C5 0.929 . S
H34 C7 0.931 . S
H35 C8 0.930 . S
H36 C13 0.929 . S
H37 C14 0.929 . S
H38 C16 0.931 . S
H39 C17 0.930 . S
Pr40 C42 2.880 . S
Pr40 O60 2.562 1_554 S
Pr40 O61 2.490 . S
Pr40 O62 2.695 1_545 S
Pr40 O63 2.512 . S
Pr40 O65 2.437 . S
Pr40 O68 2.436 1_554 S
Pr40 O70 2.438 1_545 S
Pr41 C51 2.880 . S
Pr41 O62 2.436 1_556 S
Pr41 O64 2.438 1_565 S
Pr41 O66 2.562 1_556 S
Pr41 O67 2.490 . S
Pr41 O68 2.695 1_565 S
Pr41 O69 2.512 . S
Pr41 O71 2.437 . S
C42 Pr40 2.880 . S
C42 C43 1.491 1_554 S
C42 O60 1.254 1_554 S
C42 O61 1.225 . S
C43 C42 1.491 1_556 S
C43 C44 1.390 1_556 S
C43 C48 1.358 . S
C44 C43 1.390 1_554 S
C44 C45 1.368 . S
C44 H72 0.929 . S
C45 C44 1.368 . S
C45 C46 1.386 1_554 S
C45 H73 0.929 . S
C46 C45 1.386 1_556 S
C46 C47 1.373 . S
C47 C46 1.373 . S
C47 C48 1.409 . S
C47 H74 0.931 . S
C48 C43 1.358 . S
C48 C47 1.409 . S
C48 H75 0.930 . S
C49 O62 1.270 1_545 S
C49 O63 1.248 . S
C50 O64 1.266 1_554 S
C50 O65 1.278 . S
C51 Pr41 2.880 . S
C51 C52 1.490 1_556 S
C51 O66 1.254 1_556 S
C51 O67 1.225 . S
C52 C51 1.490 1_554 S
C52 C53 1.386 1_554 S
C52 C57 1.363 . S
C53 C52 1.386 1_556 S
C53 C54 1.368 . S
C53 H76 0.929 . S
C54 C53 1.368 . S
C54 C55 1.386 1_556 S
C54 H77 0.929 . S
C55 C54 1.386 1_554 S
C55 C56 1.373 . S
C56 C55 1.373 . S
C56 C57 1.409 . S
C56 H78 0.931 . S
C57 C52 1.363 . S
C57 C56 1.409 . S
C57 H79 0.930 . S
C58 O68 1.270 1_565 S
C58 O69 1.248 . S
C59 O70 1.267 1_556 S
C59 O71 1.278 . S
O60 Pr40 2.562 1_556 S
O60 C42 1.254 1_556 S
O61 Pr40 2.490 . S
O61 C42 1.225 . S
O62 Pr40 2.695 1_565 S
O62 Pr41 2.436 1_554 S
O62 C49 1.270 1_565 S
O63 Pr40 2.512 . S
O63 C49 1.248 . S
O64 Pr41 2.438 1_545 S
O64 C50 1.266 1_556 S
O65 Pr40 2.437 . S
O65 C50 1.278 . S
O66 Pr41 2.562 1_554 S
O66 C51 1.254 1_554 S
O67 Pr41 2.490 . S
O67 C51 1.225 . S
O68 Pr40 2.436 1_556 S
O68 Pr41 2.695 1_545 S
O68 C58 1.270 1_545 S
O69 Pr41 2.512 . S
O69 C58 1.248 . S
O70 Pr40 2.438 1_565 S
O70 C59 1.267 1_554 S
O71 Pr41 2.437 . S
O71 C59 1.278 . S
H72 C44 0.929 . S
H73 C45 0.929 . S
H74 C47 0.931 . S
H75 C48 0.930 . S
H76 C53 0.929 . S
H77 C54 0.929 . S
H78 C56 0.931 . S
H79 C57 0.930 . S
Pr80 C82 2.880 . S
Pr80 O100 2.562 1_554 S
Pr80 O101 2.490 . S
Pr80 O102 2.695 . S
Pr80 O103 2.512 . S
Pr80 O105 2.437 . S
Pr80 O108 2.436 1_554 S
Pr80 O110 2.438 . S
Pr81 C91 2.880 . S
Pr81 O102 2.436 1_556 S
Pr81 O104 2.438 . S
Pr81 O106 2.562 1_556 S
Pr81 O107 2.490 . S
Pr81 O108 2.695 . S
Pr81 O109 2.512 . S
Pr81 O111 2.437 . S
C82 Pr80 2.880 . S
C82 C83 1.491 . S
C82 O100 1.254 1_554 S
C82 O101 1.225 . S
C83 C82 1.491 . S
C83 C84 1.392 . S
C83 C88 1.356 1_554 S
C84 C83 1.392 . S
C84 C85 1.368 . S
C84 H112 0.929 . S
C85 C84 1.368 . S
C85 C86 1.392 . S
C85 H113 0.929 . S
C86 C85 1.392 . S
C86 C87 1.368 1_554 S
C87 C86 1.368 1_556 S
C87 C88 1.409 . S
C87 H114 0.931 . S
C88 C83 1.356 1_556 S
C88 C87 1.409 . S
C88 H115 0.930 . S
C89 O102 1.270 . S
C89 O103 1.248 . S
C90 O104 1.267 1_554 S
C90 O105 1.278 . S
C91 Pr81 2.880 . S
C91 C92 1.491 . S
C91 O106 1.254 1_556 S
C91 O107 1.225 . S
C92 C91 1.491 . S
C92 C93 1.392 . S
C92 C97 1.356 1_556 S
C93 C92 1.392 . S
C93 C94 1.368 . S
C93 H116 0.929 . S
C94 C93 1.368 . S
C94 C95 1.387 . S
C94 H117 0.929 . S
C95 C94 1.387 . S
C95 C96 1.372 1_556 S
C96 C95 1.372 1_554 S
C96 C97 1.409 . S
C96 H118 0.931 . S
C97 C92 1.356 1_554 S
C97 C96 1.409 . S
C97 H119 0.930 . S
C98 O108 1.270 . S
C98 O109 1.248 . S
C99 O110 1.267 1_556 S
C99 O111 1.278 . S
O100 Pr80 2.562 1_556 S
O100 C82 1.254 1_556 S
O101 Pr80 2.490 . S
O101 C82 1.225 . S
O102 Pr80 2.695 . S
O102 Pr81 2.436 1_554 S
O102 C89 1.270 . S
O103 Pr80 2.512 . S
O103 C89 1.248 . S
O104 Pr81 2.438 . S
O104 C90 1.267 1_556 S
O105 Pr80 2.437 . S
O105 C90 1.278 . S
O106 Pr81 2.562 1_554 S
O106 C91 1.254 1_554 S
O107 Pr81 2.490 . S
O107 C91 1.225 . S
O108 Pr80 2.436 1_556 S
O108 Pr81 2.695 . S
O108 C98 1.270 . S
O109 Pr81 2.512 . S
O109 C98 1.248 . S
O110 Pr80 2.438 . S
O110 C99 1.267 1_554 S
O111 Pr81 2.437 . S
O111 C99 1.278 . S
H112 C84 0.929 . S
H113 C85 0.929 . S
H114 C87 0.931 . S
H115 C88 0.930 . S
H116 C93 0.929 . S
H117 C94 0.929 . S
H118 C96 0.931 . S
H119 C97 0.930 . S
C120 C121 1.391 . S
C120 C122 1.394 . S
C120 H136 0.931 . S
C121 C120 1.391 . S
C121 C125 1.376 1_455 S
C122 C120 1.394 . S
C122 C123 1.369 . S
C122 C126 1.531 . S
C123 C122 1.369 . S
C123 C124 1.410 1_455 S
C123 C131 1.503 . S
C124 C123 1.410 1_655 S
C124 C125 1.392 . S
C124 C127 1.511 . S
C125 C121 1.376 1_655 S
C125 C124 1.392 . S
C125 H137 0.929 . S
C126 C122 1.531 . S
C126 H138 0.960 . S
C126 H139 0.962 . S
C126 H140 0.960 . S
C127 C124 1.511 . S
C127 H141 0.961 . S
C127 H142 0.961 . S
C127 H143 0.961 . S
C128 C129 1.370 1_655 S
C128 C130 1.363 . S
C128 H144 0.931 . S
C129 C128 1.370 1_455 S
C129 C133 1.408 . S
C130 C128 1.363 . S
C130 C131 1.370 1_655 S
C130 C134 1.524 . S
C131 C123 1.503 . S
C131 C130 1.370 1_455 S
C131 C132 1.403 . S
C132 C131 1.403 . S
C132 C133 1.404 . S
C132 C135 1.539 . S
C133 C129 1.408 . S
C133 C132 1.404 . S
C133 H145 0.930 . S
C134 C130 1.524 . S
C134 H146 0.956 1_655 S
C134 H147 0.961 . S
C134 H148 0.961 . S
C135 C132 1.539 . S
C135 H149 0.958 . S
C135 H150 0.961 . S
C135 H151 0.960 . S
H136 C120 0.931 . S
H137 C125 0.929 . S
H138 C126 0.960 . S
H139 C126 0.962 . S
H140 C126 0.960 . S
H141 C127 0.961 . S
H142 C127 0.961 . S
H143 C127 0.961 . S
H144 C128 0.931 . S
H145 C133 0.930 . S
H146 C134 0.956 1_455 S
H147 C134 0.961 . S
H148 C134 0.961 . S
H149 C135 0.958 . S
H150 C135 0.961 . S
H151 C135 0.960 . S
C152 C153 1.375 1_565 S
C152 C154 1.394 . S
C152 H168 0.931 . S
C153 C152 1.375 1_545 S
C153 C157 1.389 . S
C154 C152 1.394 . S
C154 C155 1.379 . S
C154 C158 1.531 . S
C155 C154 1.379 . S
C155 C156 1.398 1_565 S
C155 C163 1.504 . S
C156 C155 1.398 1_545 S
C156 C157 1.392 . S
C156 C159 1.511 . S
C157 C153 1.389 . S
C157 C156 1.392 . S
C157 H169 0.929 . S
C158 C154 1.531 . S
C158 H170 0.960 . S
C158 H171 0.962 . S
C158 H172 0.960 . S
C159 C156 1.511 . S
C159 H173 0.961 . S
C159 H174 0.961 . S
C159 H175 0.961 . S
C160 C161 1.372 . S
C160 C162 1.362 1_565 S
C160 H176 0.933 . S
C161 C160 1.372 . S
C161 C165 1.405 . S
C162 C160 1.362 1_545 S
C162 C163 1.369 1_545 S
C162 C166 1.524 . S
C163 C155 1.504 . S
C163 C162 1.369 1_565 S
C163 C164 1.404 . S
C164 C163 1.404 . S
C164 C165 1.402 . S
C164 C167 1.540 1_565 S
C165 C161 1.405 . S
C165 C164 1.402 . S
C165 H177 0.936 . S
C166 C162 1.524 . S
C166 H178 0.956 1_545 S
C166 H179 0.961 . S
C166 H180 0.961 . S
C167 C164 1.540 1_545 S
C167 H181 0.950 1_545 S
C167 H182 0.964 . S
C167 H183 0.964 . S
H168 C152 0.931 . S
H169 C157 0.929 . S
H170 C158 0.960 . S
H171 C158 0.962 . S
H172 C158 0.960 . S
H173 C159 0.961 . S
H174 C159 0.961 . S
H175 C159 0.961 . S
H176 C160 0.933 . S
H177 C165 0.936 . S
H178 C166 0.956 1_565 S
H179 C166 0.961 . S
H180 C166 0.961 . S
H181 C167 0.950 1_565 S
H182 C167 0.964 . S
H183 C167 0.964 . S
C184 C185 1.391 . S
C184 C186 1.394 . S
C184 H200 0.931 . S
C185 C184 1.391 . S
C185 C189 1.376 . S
C186 C184 1.394 . S
C186 C187 1.369 . S
C186 C190 1.531 . S
C187 C186 1.369 . S
C187 C188 1.410 . S
C187 C195 1.503 . S
C188 C187 1.410 . S
C188 C189 1.392 . S
C188 C191 1.511 . S
C189 C185 1.376 . S
C189 C188 1.392 . S
C189 H201 0.929 . S
C190 C186 1.531 . S
C190 H202 0.960 . S
C190 H203 0.962 . S
C190 H204 0.960 . S
C191 C188 1.511 . S
C191 H205 0.961 . S
C191 H206 0.961 . S
C191 H207 0.961 . S
C192 C193 1.370 . S
C192 C194 1.363 . S
C192 H208 0.931 . S
C193 C192 1.370 . S
C193 C197 1.408 . S
C194 C192 1.363 . S
C194 C195 1.370 . S
C194 C198 1.524 . S
C195 C187 1.503 . S
C195 C194 1.370 . S
C195 C196 1.403 . S
C196 C195 1.403 . S
C196 C197 1.404 . S
C196 C199 1.539 . S
C197 C193 1.408 . S
C197 C196 1.404 . S
C197 H209 0.930 . S
C198 C194 1.524 . S
C198 H210 0.956 . S
C198 H211 0.961 . S
C198 H212 0.961 . S
C199 C196 1.539 . S
C199 H213 0.958 . S
C199 H214 0.961 . S
C199 H215 0.960 . S
H200 C184 0.931 . S
H201 C189 0.929 . S
H202 C190 0.960 . S
H203 C190 0.962 . S
H204 C190 0.960 . S
H205 C191 0.961 . S
H206 C191 0.961 . S
H207 C191 0.961 . S
H208 C192 0.931 . S
H209 C197 0.930 . S
H210 C198 0.956 . S
H211 C198 0.961 . S
H212 C198 0.961 . S
H213 C199 0.958 . S
H214 C199 0.961 . S
H215 C199 0.960 . S
C216 C217 1.391 . S
C216 C218 1.394 . S
C216 H232 0.931 . S
C217 C216 1.391 . S
C217 C221 1.376 . S
C218 C216 1.394 . S
C218 C219 1.369 . S
C218 C222 1.531 . S
C219 C218 1.369 . S
C219 C220 1.410 . S
C219 C227 1.503 . S
C220 C219 1.410 . S
C220 C221 1.392 . S
C220 C223 1.511 . S
C221 C217 1.376 . S
C221 C220 1.392 . S
C221 H233 0.929 . S
C222 C218 1.531 . S
C222 H234 0.960 . S
C222 H235 0.962 1_554 S
C222 H236 0.960 . S
C223 C220 1.511 . S
C223 H237 0.961 1_554 S
C223 H238 0.961 1_554 S
C223 H239 0.961 . S
C224 C225 1.370 . S
C224 C226 1.363 . S
C224 H240 0.931 . S
C225 C224 1.370 . S
C225 C229 1.408 1_556 S
C226 C224 1.363 . S
C226 C227 1.370 1_556 S
C226 C230 1.524 . S
C227 C219 1.503 . S
C227 C226 1.370 1_554 S
C227 C228 1.403 . S
C228 C227 1.403 . S
C228 C229 1.404 . S
C228 C231 1.539 . S
C229 C225 1.408 1_554 S
C229 C228 1.404 . S
C229 H241 0.930 . S
C230 C226 1.524 . S
C230 H242 0.956 . S
C230 H243 0.961 . S
C230 H244 0.961 . S
C231 C228 1.539 . S
C231 H245 0.958 . S
C231 H246 0.961 . S
C231 H247 0.960 . S
H232 C216 0.931 . S
H233 C221 0.929 . S
H234 C222 0.960 . S
H235 C222 0.962 1_556 S
H236 C222 0.960 . S
H237 C223 0.961 1_556 S
H238 C223 0.961 1_556 S
H239 C223 0.961 . S
H240 C224 0.931 . S
H241 C229 0.930 . S
H242 C230 0.956 . S
H243 C230 0.961 . S
H244 C230 0.961 . S
H245 C231 0.958 . S
H246 C231 0.961 . S
H247 C231 0.960 . S
C248 C249 1.394 . S
C248 C250 1.394 . S
C248 H264 0.931 . S
C249 C248 1.394 . S
C249 C253 1.373 1_556 S
C250 C248 1.394 . S
C250 C251 1.369 1_556 S
C250 C254 1.531 . S
C251 C250 1.369 1_554 S
C251 C252 1.410 . S
C251 C259 1.503 . S
C252 C251 1.410 . S
C252 C253 1.392 . S
C252 C255 1.511 . S
C253 C249 1.373 1_554 S
C253 C252 1.392 . S
C253 H265 0.929 . S
C254 C250 1.531 . S
C254 H266 0.960 . S
C254 H267 0.962 . S
C254 H268 0.960 . S
C255 C252 1.511 . S
C255 H269 0.961 . S
C255 H270 0.961 . S
C255 H271 0.961 . S
C256 C257 1.370 1_556 S
C256 C258 1.363 . S
C256 H272 0.931 . S
C257 C256 1.370 1_554 S
C257 C261 1.408 . S
C258 C256 1.363 . S
C258 C259 1.370 1_556 S
C258 C262 1.524 . S
C259 C251 1.503 . S
C259 C258 1.370 1_554 S
C259 C260 1.403 . S
C260 C259 1.403 . S
C260 C261 1.404 . S
C260 C263 1.539 . S
C261 C257 1.408 . S
C261 C260 1.404 . S
C261 H273 0.930 . S
C262 C258 1.524 . S
C262 H274 0.956 . S
C262 H275 0.961 . S
C262 H276 0.961 . S
C263 C260 1.539 . S
C263 H277 0.958 . S
C263 H278 0.961 . S
C263 H279 0.960 . S
H264 C248 0.931 . S
H265 C253 0.929 . S
H266 C254 0.960 . S
H267 C254 0.962 . S
H268 C254 0.960 . S
H269 C255 0.961 . S
H270 C255 0.961 . S
H271 C255 0.961 . S
H272 C256 0.931 . S
H273 C261 0.930 . S
H274 C262 0.956 . S
H275 C262 0.961 . S
H276 C262 0.961 . S
H277 C263 0.958 . S
H278 C263 0.961 . S
H279 C263 0.960 . S
C280 C281 1.391 . S
C280 C282 1.394 . S
C280 H296 0.931 . S
C281 C280 1.391 . S
C281 C285 1.376 1_554 S
C282 C280 1.394 . S
C282 C283 1.369 . S
C282 C286 1.531 . S
C283 C282 1.369 . S
C283 C284 1.410 1_554 S
C283 C291 1.503 . S
C284 C283 1.410 1_556 S
C284 C285 1.392 . S
C284 C287 1.511 . S
C285 C281 1.376 1_556 S
C285 C284 1.392 . S
C285 H297 0.929 . S
C286 C282 1.531 . S
C286 H298 0.960 . S
C286 H299 0.962 . S
C286 H300 0.960 . S
C287 C284 1.511 . S
C287 H301 0.961 . S
C287 H302 0.961 . S
C287 H303 0.961 . S
C288 C289 1.369 1_556 S
C288 C290 1.363 . S
C288 H304 0.931 . S
C289 C288 1.369 1_554 S
C289 C293 1.410 . S
C290 C288 1.363 . S
C290 C291 1.370 1_556 S
C290 C294 1.524 . S
C291 C283 1.503 . S
C291 C290 1.370 1_554 S
C291 C292 1.403 . S
C292 C291 1.403 . S
C292 C293 1.404 . S
C292 C295 1.539 . S
C293 C289 1.410 . S
C293 C292 1.404 . S
C293 H305 0.930 . S
C294 C290 1.524 . S
C294 H306 0.956 . S
C294 H307 0.961 . S
C294 H308 0.961 . S
C295 C292 1.539 . S
C295 H309 0.958 . S
C295 H310 0.961 . S
C295 H311 0.960 . S
H296 C280 0.931 . S
H297 C285 0.929 . S
H298 C286 0.960 . S
H299 C286 0.962 . S
H300 C286 0.960 . S
H301 C287 0.961 . S
H302 C287 0.961 . S
H303 C287 0.961 . S
H304 C288 0.931 . S
H305 C293 0.930 . S
H306 C294 0.956 . S
H307 C294 0.961 . S
H308 C294 0.961 . S
H309 C295 0.958 . S
H310 C295 0.961 . S
H311 C295 0.960 . S
C312 C313 1.391 . S
C312 C314 1.394 . S
C312 H328 0.931 . S
C313 C312 1.391 . S
C313 C317 1.376 . S
C314 C312 1.394 . S
C314 C315 1.369 . S
C314 C318 1.531 . S
C315 C314 1.369 . S
C315 C316 1.410 . S
C315 C323 1.503 . S
C316 C315 1.410 . S
C316 C317 1.392 . S
C316 C319 1.511 . S
C317 C313 1.376 . S
C317 C316 1.392 . S
C317 H329 0.929 . S
C318 C314 1.531 . S
C318 H330 0.960 . S
C318 H331 0.962 1_554 S
C318 H332 0.960 . S
C319 C316 1.511 . S
C319 H333 0.961 1_554 S
C319 H334 0.961 1_554 S
C319 H335 0.961 . S
C320 C321 1.370 1_556 S
C320 C322 1.363 . S
C320 H336 0.931 . S
C321 C320 1.370 1_554 S
C321 C325 1.408 . S
C322 C320 1.363 . S
C322 C323 1.370 1_556 S
C322 C326 1.524 . S
C323 C315 1.503 . S
C323 C322 1.370 1_554 S
C323 C324 1.403 . S
C324 C323 1.403 . S
C324 C325 1.404 . S
C324 C327 1.539 . S
C325 C321 1.408 . S
C325 C324 1.404 . S
C325 H337 0.930 . S
C326 C322 1.524 . S
C326 H338 0.956 . S
C326 H339 0.961 . S
C326 H340 0.961 . S
C327 C324 1.539 . S
C327 H341 0.958 . S
C327 H342 0.961 . S
C327 H343 0.960 . S
H328 C312 0.931 . S
H329 C317 0.929 . S
H330 C318 0.960 . S
H331 C318 0.962 1_556 S
H332 C318 0.960 . S
H333 C319 0.961 1_556 S
H334 C319 0.961 1_556 S
H335 C319 0.961 . S
H336 C320 0.931 . S
H337 C325 0.930 . S
H338 C326 0.956 . S
H339 C326 0.961 . S
H340 C326 0.961 . S
H341 C327 0.958 . S
H342 C327 0.961 . S
H343 C327 0.960 . S
C344 C345 1.391 . S
C344 C346 1.394 . S
C344 H360 0.931 . S
C345 C344 1.391 . S
C345 C349 1.376 1_554 S
C346 C344 1.394 . S
C346 C347 1.369 . S
C346 C350 1.531 . S
C347 C346 1.369 . S
C347 C348 1.410 1_554 S
C347 C355 1.503 . S
C348 C347 1.410 1_556 S
C348 C349 1.392 . S
C348 C351 1.511 . S
C349 C345 1.376 1_556 S
C349 C348 1.392 . S
C349 H361 0.929 . S
C350 C346 1.531 . S
C350 H362 0.960 . S
C350 H363 0.962 . S
C350 H364 0.960 . S
C351 C348 1.511 . S
C351 H365 0.961 . S
C351 H366 0.961 . S
C351 H367 0.961 . S
C352 C353 1.370 1_556 S
C352 C354 1.363 . S
C352 H368 0.931 . S
C353 C352 1.370 1_554 S
C353 C357 1.408 . S
C354 C352 1.363 . S
C354 C355 1.370 1_556 S
C354 C358 1.524 . S
C355 C347 1.503 . S
C355 C354 1.370 1_554 S
C355 C356 1.403 . S
C356 C355 1.403 . S
C356 C357 1.404 . S
C356 C359 1.539 . S
C357 C353 1.408 . S
C357 C356 1.404 . S
C357 H369 0.930 . S
C358 C354 1.524 . S
C358 H370 0.956 . S
C358 H371 0.961 . S
C358 H372 0.961 . S
C359 C356 1.539 . S
C359 H373 0.958 . S
C359 H374 0.961 . S
C359 H375 0.960 . S
H360 C344 0.931 . S
H361 C349 0.929 . S
H362 C350 0.960 . S
H363 C350 0.962 . S
H364 C350 0.960 . S
H365 C351 0.961 . S
H366 C351 0.961 . S
H367 C351 0.961 . S
H368 C352 0.931 . S
H369 C357 0.930 . S
H370 C358 0.956 . S
H371 C358 0.961 . S
H372 C358 0.961 . S
H373 C359 0.958 . S
H374 C359 0.961 . S
H375 C359 0.960 . S
C376 C377 1.391 1_556 S
C376 C378 1.394 . S
C376 H392 0.931 . S
C377 C376 1.391 1_554 S
C377 C381 1.376 . S
C378 C376 1.394 . S
C378 C379 1.369 1_556 S
C378 C382 1.531 . S
C379 C378 1.369 1_554 S
C379 C380 1.410 . S
C379 C387 1.503 . S
C380 C379 1.410 . S
C380 C381 1.392 . S
C380 C383 1.511 . S
C381 C377 1.376 . S
C381 C380 1.392 . S
C381 H393 0.929 . S
C382 C378 1.531 . S
C382 H394 0.960 . S
C382 H395 0.962 . S
C382 H396 0.960 . S
C383 C380 1.511 . S
C383 H397 0.961 . S
C383 H398 0.961 . S
C383 H399 0.961 . S
C384 C385 1.370 1_556 S
C384 C386 1.363 . S
C384 H400 0.931 . S
C385 C384 1.370 1_554 S
C385 C389 1.408 . S
C386 C384 1.363 . S
C386 C387 1.370 1_556 S
C386 C390 1.524 . S
C387 C379 1.503 . S
C387 C386 1.370 1_554 S
C387 C388 1.403 . S
C388 C387 1.403 . S
C388 C389 1.404 . S
C388 C391 1.539 . S
C389 C385 1.408 . S
C389 C388 1.404 . S
C389 H401 0.930 . S
C390 C386 1.524 . S
C390 H402 0.956 . S
C390 H403 0.961 . S
C390 H404 0.961 . S
C391 C388 1.539 . S
C391 H405 0.958 . S
C391 H406 0.961 . S
C391 H407 0.960 . S
H392 C376 0.931 . S
H393 C381 0.929 . S
H394 C382 0.960 . S
H395 C382 0.962 . S
H396 C382 0.960 . S
H397 C383 0.961 . S
H398 C383 0.961 . S
H399 C383 0.961 . S
H400 C384 0.931 . S
H401 C389 0.930 . S
H402 C390 0.956 . S
H403 C390 0.961 . S
H404 C390 0.961 . S
H405 C391 0.958 . S
H406 C391 0.961 . S
H407 C391 0.960 . S
C121 C9 1.420 . S
C129 C18 1.464 . S
C153 C49 1.417 . S
C161 C58 1.461 . S
C185 C98 1.463 . S
C193 C89 1.450 . S
C217 C19 2.601 . S
C225 C90 2.562 1_556 S
C249 C46 0.864 . S
C257 C6 0.886 1_554 S
C281 C59 2.021 1_554 S
C289 C86 1.992 . S
C313 C10 2.615 1_554 S
C321 C99 2.568 1_554 S
C345 C15 0.891 . S
C353 C55 0.880 . S
C377 C95 1.989 1_554 S
C385 C50 2.023 . S
