# Generated by pormake.
# Topology fnh, (5)-cn, num edge types: 1
# Building blocks:
#     Node 0, Type 0, BuildingBlock: XOMCOT_clean_sbu_0, # of connection points: 5
#     Node 1, Type 0, BuildingBlock: XOMCOT_clean_sbu_0, # of connection points: 5
#     Node 2, Type 0, BuildingBlock: XOMCOT_clean_sbu_0, # of connection points: 5
#     Node 3, Type 0, BuildingBlock: XOMCOT_clean_sbu_0, # of connection points: 5
#     Node 4, Type 0, BuildingBlock: XOMCOT_clean_sbu_0, # of connection points: 5
#     Node 5, Type 0, BuildingBlock: XOMCOT_clean_sbu_0, # of connection points: 5
#     Node 6, Type 0, BuildingBlock: XOMCOT_clean_sbu_0, # of connection points: 5
#     Node 7, Type 0, BuildingBlock: XOMCOT_clean_sbu_0, # of connection points: 5
#     Node 8, Type 0, BuildingBlock: XOMCOT_clean_sbu_0, # of connection points: 5
#     Node 9, Type 0, BuildingBlock: XOMCOT_clean_sbu_0, # of connection points: 5
#     Node 10, Type 0, BuildingBlock: XOMCOT_clean_sbu_0, # of connection points: 5
#     Node 11, Type 0, BuildingBlock: XOMCOT_clean_sbu_0, # of connection points: 5
#     Node 12, Type 0, BuildingBlock: XOMCOT_clean_sbu_0, # of connection points: 5
#     Node 13, Type 0, BuildingBlock: XOMCOT_clean_sbu_0, # of connection points: 5
#     Node 14, Type 0, BuildingBlock: XOMCOT_clean_sbu_0, # of connection points: 5
#     Node 15, Type 0, BuildingBlock: XOMCOT_clean_sbu_0, # of connection points: 5
#     Node 16, Type 0, BuildingBlock: XOMCOT_clean_sbu_0, # of connection points: 5
#     Node 17, Type 0, BuildingBlock: XOMCOT_clean_sbu_0, # of connection points: 5
#     Edge 18, Type (0, 0), BuildingBlock: EZIPEK_clean_linker_0, # of connection points: 2
#     Edge 19, Type (0, 0), BuildingBlock: EZIPEK_clean_linker_0, # of connection points: 2
#     Edge 20, Type (0, 0), BuildingBlock: EZIPEK_clean_linker_0, # of connection points: 2
#     Edge 21, Type (0, 0), BuildingBlock: EZIPEK_clean_linker_0, # of connection points: 2
#     Edge 22, Type (0, 0), BuildingBlock: EZIPEK_clean_linker_0, # of connection points: 2
#     Edge 23, Type (0, 0), BuildingBlock: EZIPEK_clean_linker_0, # of connection points: 2
#     Edge 24, Type (0, 0), BuildingBlock: EZIPEK_clean_linker_0, # of connection points: 2
#     Edge 25, Type (0, 0), BuildingBlock: EZIPEK_clean_linker_0, # of connection points: 2
#     Edge 26, Type (0, 0), BuildingBlock: EZIPEK_clean_linker_0, # of connection points: 2
#     Edge 27, Type (0, 0), BuildingBlock: EZIPEK_clean_linker_0, # of connection points: 2
#     Edge 28, Type (0, 0), BuildingBlock: EZIPEK_clean_linker_0, # of connection points: 2
#     Edge 29, Type (0, 0), BuildingBlock: EZIPEK_clean_linker_0, # of connection points: 2
#     Edge 30, Type (0, 0), BuildingBlock: EZIPEK_clean_linker_0, # of connection points: 2
#     Edge 31, Type (0, 0), BuildingBlock: EZIPEK_clean_linker_0, # of connection points: 2
#     Edge 32, Type (0, 0), BuildingBlock: EZIPEK_clean_linker_0, # of connection points: 2
#     Edge 33, Type (0, 0), BuildingBlock: EZIPEK_clean_linker_0, # of connection points: 2
#     Edge 34, Type (0, 0), BuildingBlock: EZIPEK_clean_linker_0, # of connection points: 2
#     Edge 35, Type (0, 0), BuildingBlock: EZIPEK_clean_linker_0, # of connection points: 2
#     Edge 36, Type (0, 0), BuildingBlock: EZIPEK_clean_linker_0, # of connection points: 2
#     Edge 37, Type (0, 0), BuildingBlock: EZIPEK_clean_linker_0, # of connection points: 2
#     Edge 38, Type (0, 0), BuildingBlock: EZIPEK_clean_linker_0, # of connection points: 2
#     Edge 39, Type (0, 0), BuildingBlock: EZIPEK_clean_linker_0, # of connection points: 2
#     Edge 40, Type (0, 0), BuildingBlock: EZIPEK_clean_linker_0, # of connection points: 2
#     Edge 41, Type (0, 0), BuildingBlock: EZIPEK_clean_linker_0, # of connection points: 2
#     Edge 42, Type (0, 0), BuildingBlock: EZIPEK_clean_linker_0, # of connection points: 2
#     Edge 43, Type (0, 0), BuildingBlock: EZIPEK_clean_linker_0, # of connection points: 2
#     Edge 44, Type (0, 0), BuildingBlock: EZIPEK_clean_linker_0, # of connection points: 2
#     Edge 45, Type (0, 0), BuildingBlock: EZIPEK_clean_linker_0, # of connection points: 2
#     Edge 46, Type (0, 0), BuildingBlock: EZIPEK_clean_linker_0, # of connection points: 2
#     Edge 47, Type (0, 0), BuildingBlock: EZIPEK_clean_linker_0, # of connection points: 2
#     Edge 48, Type (0, 0), BuildingBlock: EZIPEK_clean_linker_0, # of connection points: 2
#     Edge 49, Type (0, 0), BuildingBlock: EZIPEK_clean_linker_0, # of connection points: 2
#     Edge 50, Type (0, 0), BuildingBlock: EZIPEK_clean_linker_0, # of connection points: 2
#     Edge 51, Type (0, 0), BuildingBlock: EZIPEK_clean_linker_0, # of connection points: 2
#     Edge 52, Type (0, 0), BuildingBlock: EZIPEK_clean_linker_0, # of connection points: 2
#     Edge 53, Type (0, 0), BuildingBlock: EZIPEK_clean_linker_0, # of connection points: 2
#     Edge 54, Type (0, 0), BuildingBlock: EZIPEK_clean_linker_0, # of connection points: 2
#     Edge 55, Type (0, 0), BuildingBlock: EZIPEK_clean_linker_0, # of connection points: 2
#     Edge 56, Type (0, 0), BuildingBlock: EZIPEK_clean_linker_0, # of connection points: 2
#     Edge 57, Type (0, 0), BuildingBlock: EZIPEK_clean_linker_0, # of connection points: 2
#     Edge 58, Type (0, 0), BuildingBlock: EZIPEK_clean_linker_0, # of connection points: 2
#     Edge 59, Type (0, 0), BuildingBlock: EZIPEK_clean_linker_0, # of connection points: 2
#     Edge 60, Type (0, 0), BuildingBlock: EZIPEK_clean_linker_0, # of connection points: 2
#     Edge 61, Type (0, 0), BuildingBlock: EZIPEK_clean_linker_0, # of connection points: 2
#     Edge 62, Type (0, 0), BuildingBlock: EZIPEK_clean_linker_0, # of connection points: 2
# Relax obj value: 0.240
# Max RMSD: 0.208
# Mean RMSD: 0.208
data_MOF--net-fnh--node1-XOMCOT_clean_sbu_0--edge1-EZIPEK_clean_linker_0
_symmetry_space_group_name_H-M    P1
_symmetry_Int_Tables_number       1
_symmetry_cell_setting            triclinic
loop_
_symmetry_equiv_pos_as_xyz
'x, y, z'
_cell_length_a     52.5301
_cell_length_b     52.573681
_cell_length_c     17.981
_cell_angle_alpha  90.082173
_cell_angle_beta   90.049539
_cell_angle_gamma 119.71838
loop_
_atom_site_label
_atom_site_type_symbol
_atom_site_fract_x
_atom_site_fract_y
_atom_site_fract_z
_atom_type_partial_charge
Co0 Co 0.11609 0.17708 0.29463 0.0
C1 C 0.06039 0.17218 0.341 0.0
C2 C 0.05816 0.13102 0.32154 0.0
C3 C 0.0303 0.12673 0.32081 0.0
N4 N 0.0772 0.15957 0.3338 0.0
N5 N 0.03157 0.15273 0.33254 0.0
H6 H 0.06889 0.19535 0.34772 0.0
H7 H 0.06412 0.11476 0.3064 0.0
C8 C 0.07524 0.1722 0.15484 0.0
O9 O 0.06855 0.18986 0.19059 0.0
N10 N 0.15401 0.19291 0.25164 0.0
C11 C 0.17914 0.21793 0.2666 0.0
C12 C 0.19959 0.22127 0.21361 0.0
C13 C 0.15948 0.18099 0.19265 0.0
N14 N 0.1869 0.19787 0.16794 0.0
C15 C 0.12431 0.22839 0.37288 0.0
C16 C 0.14589 0.26841 0.25841 0.0
C17 C 0.14922 0.27944 0.33182 0.0
C18 C 0.13739 0.25858 0.38872 0.0
C19 C 0.13246 0.23768 0.24463 0.0
N20 N 0.12225 0.21783 0.30188 0.0
H21 H 0.11682 0.21335 0.41918 0.0
H22 H 0.13229 0.23012 0.18857 0.0
H23 H 0.18195 0.23325 0.31038 0.0
H24 H 0.14304 0.16137 0.16491 0.0
O25 O 0.1337 0.17797 0.39448 0.0
O26 O 0.11834 0.14048 0.32258 0.0
O27 O 0.09512 0.16696 0.18513 0.0
C28 C 0.13077 0.15226 0.38623 0.0
H29 H 1.01067 0.1059 0.31192 0.0
H30 H 0.22126 0.24 0.20639 0.0
H31 H 0.15471 0.28349 0.21222 0.0
H32 H 0.13915 0.26563 0.44603 0.0
Co33 Co 0.86016 0.92933 0.31689 0.0
C34 C 0.86111 0.89196 0.4378 0.0
C35 C 0.85034 0.87117 0.33128 0.0
C36 C 0.84087 0.84975 0.3841 0.0
N37 N 0.86248 0.89774 0.36446 0.0
N38 N 0.84796 0.86285 0.45084 0.0
H39 H 0.86653 0.9082 0.48101 0.0
H40 H 0.8442 0.86704 0.27365 0.0
C41 C 0.86732 0.90187 0.15528 0.0
O42 O 0.83902 0.88516 0.14517 0.0
N43 N 0.85605 0.95923 0.26887 0.0
C44 C 0.83279 0.96354 0.27196 0.0
C45 C 0.8368 0.98444 0.22054 0.0
C46 C 0.87443 0.97825 0.21919 0.0
N47 N 0.86281 0.99328 0.18749 0.0
C48 C 0.8031 0.89412 0.37633 0.0
C49 C 0.76738 0.87937 0.25363 0.0
C50 C 0.75383 0.87071 0.32441 0.0
C51 C 0.77257 0.8786 0.38548 0.0
C52 C 0.7987 0.89543 0.2468 0.0
N53 N 0.81652 0.90213 0.30826 0.0
H54 H 0.81611 0.90102 0.42597 0.0
H55 H 0.8082 0.90384 0.19301 0.0
H56 H 0.81367 0.95141 0.3065 0.0
H57 H 0.89453 0.97917 0.20164 0.0
O58 O 0.85829 0.94753 0.41405 0.0
O59 O 0.89933 0.96052 0.35928 0.0
O60 O 0.8762 0.91888 0.21486 0.0
C61 C 0.8863 0.96516 0.41529 0.0
H62 H 0.82773 0.82639 0.37459 0.0
H63 H 0.82102 0.991 0.2045 0.0
H64 H 0.75393 0.87461 0.20431 0.0
H65 H 0.76356 0.87335 0.44114 0.0
Co66 Co 0.11619 0.94535 0.30972 0.0
C67 C 0.17205 0.99674 0.33883 0.0
C68 C 0.13898 0.99831 0.40548 0.0
C69 C 0.16579 0.02215 0.42225 0.0
N70 N 0.14327 0.982 0.35466 0.0
N71 N 0.18649 0.02087 0.38038 0.0
H72 H 0.18247 0.98926 0.29996 0.0
H73 H 0.11826 0.99296 0.43064 0.0
C74 C 0.14947 0.98024 0.15733 0.0
O75 O 0.17045 0.97402 0.1683 0.0
N76 N 0.0895 0.90914 0.26224 0.0
C77 C 0.08199 0.88192 0.28554 0.0
C78 C 0.06523 0.86221 0.23107 0.0
C79 C 0.07717 0.90582 0.19491 0.0
N80 N 0.06236 0.87745 0.17473 0.0
C81 C 0.15977 0.93409 0.37455 0.0
C82 C 0.16872 0.90503 0.2587 0.0
C83 C 0.18137 0.90523 0.32836 0.0
C84 C 0.17687 0.92057 0.38593 0.0
C85 C 0.1516 0.91904 0.24938 0.0
N86 N 0.14717 0.93353 0.30712 0.0
H87 H 0.15567 0.94422 0.42194 0.0
H88 H 0.14087 0.91702 0.19666 0.0
H89 H 0.08929 0.87693 0.33694 0.0
H90 H 0.07975 0.92371 0.16009 0.0
O91 O 0.10024 0.92687 0.40982 0.0
O92 O 0.08111 0.94832 0.34905 0.0
O93 O 0.12714 0.96934 0.2042 0.0
C94 C 0.07976 0.93371 0.40944 0.0
H95 H 0.17009 0.03805 0.4658 0.0
H96 H 0.05655 0.83875 0.23156 0.0
H97 H 0.17111 0.89319 0.21244 0.0
H98 H 0.18576 0.92128 0.44076 0.0
Co99 Co 0.20598 0.10232 0.74269 0.0
C100 C 0.23009 0.07999 0.63645 0.0
C101 C 0.19132 0.04388 0.6823 0.0
C102 C 0.20313 0.03355 0.62959 0.0
N103 N 0.20861 0.07302 0.68617 0.0
N104 N 0.2278 0.05645 0.60129 0.0
H105 H 0.24654 0.10228 0.6254 0.0
H106 H 0.17103 0.03137 0.71232 0.0
C107 C 0.19798 0.06943 0.90461 0.0
O108 O 0.225 0.08854 0.92347 0.0
N109 N 0.20472 0.13358 0.79678 0.0
C110 C 0.21134 0.16004 0.76868 0.0
C111 C 0.21168 0.17779 0.82453 0.0
C112 C 0.20001 0.13543 0.86964 0.0
N113 N 0.20448 0.16223 0.88759 0.0
C114 C 0.26703 0.14753 0.7411 0.0
C115 C 0.29257 0.11417 0.77528 0.0
C116 C 0.31088 0.14245 0.74578 0.0
C117 C 0.29744 0.15917 0.73082 0.0
C118 C 0.26185 0.10315 0.78496 0.0
N119 N 0.24896 0.11956 0.76643 0.0
H120 H 0.25788 0.16061 0.72168 0.0
H121 H 0.24822 0.08054 0.80129 0.0
H122 H 0.21661 0.16683 0.71192 0.0
H123 H 0.19356 0.11792 0.90885 0.0
O124 O 0.21113 0.12396 0.6468 0.0
O125 O 0.1685 0.09417 0.68831 0.0
O126 O 0.18874 0.07253 0.8385 0.0
C127 C 0.18328 0.11267 0.63516 0.0
H128 H 0.19303 1.01119 0.60967 0.0
H129 H 0.21663 0.20031 0.81956 0.0
H130 H 0.30166 0.10012 0.78752 0.0
H131 H 0.31023 0.18095 0.70772 0.0
Co132 Co 0.95069 0.10044 0.74622 0.0
C133 C 0.97429 0.1396 0.62203 0.0
C134 C 1.00861 0.13687 0.68031 0.0
C135 C 1.01978 0.15188 0.61479 0.0
N136 N 0.98005 0.12894 0.68346 0.0
N137 N 0.99797 0.15315 0.57841 0.0
H138 H 0.95239 0.13408 0.60476 0.0
H139 H 1.01963 0.12969 0.71861 0.0
C140 C 0.98909 0.13199 0.89745 0.0
O141 O 0.97283 0.14385 0.91278 0.0
N142 N 0.92042 0.07139 0.80828 0.0
C143 C 0.89421 0.04896 0.78579 0.0
C144 C 0.87857 0.0338 0.84662 0.0
C145 C 0.92039 0.06921 0.88261 0.0
N146 N 0.89523 0.04651 0.90678 0.0
C147 C 0.90542 0.11597 0.74173 0.0
C148 C 0.93833 0.17595 0.75402 0.0
C149 C 0.90867 0.16395 0.73124 0.0
C150 C 0.89251 0.13334 0.72657 0.0
C151 C 0.9508 0.15756 0.76765 0.0
N152 N 0.93439 0.12759 0.76117 0.0
H153 H 0.89207 0.09291 0.73139 0.0
H154 H 0.97403 0.16766 0.77909 0.0
H155 H 0.88641 0.04367 0.72926 0.0
H156 H 0.93814 0.08339 0.91871 0.0
O157 O 0.92598 0.08025 0.65713 0.0
O158 O 0.95693 0.06863 0.69926 0.0
O159 O 0.98261 0.11555 0.83729 0.0
C160 C 0.93679 0.06304 0.64884 0.0
H161 H 0.04107 0.1581 0.59149 0.0
H162 H 0.85724 1.0142 0.84685 0.0
H163 H 0.95209 0.19947 0.75873 0.0
H164 H 0.86981 0.12263 0.70883 0.0
Co165 Co 0.95287 0.8603 0.75988 0.0
C166 C 0.89659 0.85482 0.73406 0.0
C167 C 0.92902 0.89175 0.67316 0.0
C168 C 0.90188 0.88882 0.66009 0.0
N169 N 0.92525 0.86961 0.71749 0.0
N170 N 0.88139 0.86518 0.69762 0.0
H171 H 0.88663 0.83564 0.76908 0.0
H172 H 0.94961 0.90821 0.64992 0.0
C173 C 0.93253 0.88771 0.88967 0.0
O174 O 0.93789 0.90868 0.84201 0.0
N175 N 0.97998 0.85094 0.8057 0.0
C176 C 0.98689 0.83048 0.78464 0.0
C177 C 1.00445 0.82855 0.83891 0.0
C178 C 0.9934 0.86139 0.87116 0.0
N179 N 1.00833 0.84804 0.89264 0.0
C180 C 0.91462 0.80516 0.68706 0.0
C181 C 0.89589 0.76782 0.80729 0.0
C182 C 0.88826 0.75485 0.73543 0.0
C183 C 0.89797 0.77461 0.67551 0.0
C184 C 0.91362 0.79885 0.81661 0.0
N185 N 0.92305 0.81735 0.75655 0.0
H186 H 0.92129 0.81915 0.63871 0.0
H187 H 0.92026 0.8078 0.87198 0.0
H188 H 0.97872 0.81709 0.73514 0.0
H189 H 0.9913 0.87752 0.90405 0.0
O190 O 0.97032 0.86068 0.6598 0.0
O191 O 0.98761 0.89965 0.72597 0.0
O192 O 0.93831 0.86712 0.86774 0.0
C193 C 0.99008 0.88788 0.66377 0.0
H194 H 0.89721 0.90116 0.61947 0.0
H195 H 1.0128 0.81342 0.84037 0.0
H196 H 0.88879 0.75402 0.85616 0.0
H197 H 0.89288 0.76646 0.61898 0.0
Co198 Co 0.77848 0.52118 0.64693 0.0
C199 C 0.75175 0.54419 0.74649 0.0
C200 C 0.71858 0.50441 0.69646 0.0
C201 C 0.70532 0.51608 0.74003 0.0
N202 N 0.74759 0.52283 0.69873 0.0
N203 N 0.72632 0.5416 0.77016 0.0
H204 H 0.77325 0.56128 0.76281 0.0
H205 H 0.70794 0.48404 0.66582 0.0
C206 C 0.73022 0.50799 0.51291 0.0
O207 O 0.72054 0.52347 0.54757 0.0
N208 N 0.81014 0.51943 0.59665 0.0
C209 C 0.83331 0.5188 0.62775 0.0
C210 C 0.85188 0.51998 0.57303 0.0
C211 C 0.81467 0.52009 0.52288 0.0
N212 N 0.83989 0.52041 0.50747 0.0
C213 C 0.82706 0.58113 0.63933 0.0
C214 C 0.79553 0.61005 0.63321 0.0
C215 C 0.82557 0.62693 0.65249 0.0
C216 C 0.84135 0.61177 0.65059 0.0
C217 C 0.7824 0.57957 0.61656 0.0
N218 N 0.79753 0.5646 0.62469 0.0
H219 H 0.83997 0.57071 0.64854 0.0
H220 H 0.7592 0.56776 0.60571 0.0
H221 H 0.83707 0.51771 0.68592 0.0
H222 H 0.80001 0.52023 0.48115 0.0
O223 O 0.79856 0.52635 0.74511 0.0
O224 O 0.76965 0.48362 0.70223 0.0
O225 O 0.75212 0.506 0.54383 0.0
C226 C 0.78755 0.49861 0.75665 0.0
H227 H 0.68208 0.50575 0.75145 0.0
H228 H 0.87205 0.5194 0.58032 0.0
H229 H 0.78182 0.62006 0.63343 0.0
H230 H 0.86459 0.62324 0.66301 0.0
Co231 Co 0.54204 0.27263 0.63603 0.0
C232 C 0.53392 0.2243 0.73475 0.0
C233 C 0.55959 0.22836 0.63876 0.0
C234 C 0.5494 0.20105 0.66711 0.0
N235 N 0.54845 0.24249 0.67814 0.0
N236 N 0.53437 0.19878 0.72947 0.0
H237 H 0.52196 0.229 0.77639 0.0
H238 H 0.5731 0.23628 0.58985 0.0
C239 C 0.54199 0.245 0.4723 0.0
O240 O 0.51349 0.23354 0.46598 0.0
N241 N 0.53645 0.30293 0.59065 0.0
C242 C 0.53023 0.3223 0.6241 0.0
C243 C 0.52669 0.33892 0.57069 0.0
C244 C 0.53798 0.30912 0.51768 0.0
N245 N 0.53206 0.33083 0.50422 0.0
C246 C 0.48076 0.25394 0.65877 0.0
C247 C 0.45495 0.19524 0.6262 0.0
C248 C 0.43695 0.20542 0.65814 0.0
C249 C 0.45063 0.23553 0.67209 0.0
C250 C 0.48546 0.21479 0.61253 0.0
N251 N 0.49845 0.24418 0.62879 0.0
H252 H 0.48994 0.27594 0.67869 0.0
H253 H 0.4987 0.20573 0.59304 0.0
H254 H 0.52789 0.32417 0.68323 0.0
H255 H 0.5434 0.29828 0.4747 0.0
O256 O 0.53985 0.28765 0.73764 0.0
O257 O 0.58072 0.30473 0.67918 0.0
O258 O 0.55495 0.26223 0.52969 0.0
C259 C 0.56749 0.30684 0.73879 0.0
H260 H 0.5525 0.18397 0.64255 0.0
H261 H 0.52146 0.35618 0.57982 0.0
H262 H 0.44587 0.1721 0.61502 0.0
H263 H 0.43831 0.2448 0.69732 0.0
Co264 Co 0.78638 0.27755 0.64813 0.0
C265 C 0.82418 0.3131 0.77337 0.0
C266 C 0.8448 0.32466 0.66704 0.0
C267 C 0.86633 0.33502 0.72018 0.0
N268 N 0.81819 0.31017 0.6998 0.0
N269 N 0.85339 0.32822 0.78712 0.0
H270 H 0.80807 0.30118 0.81563 0.0
H271 H 0.84879 0.32359 0.60863 0.0
C272 C 0.8134 0.31109 0.48546 0.0
O273 O 0.82436 0.2943 0.46777 0.0
N274 N 0.75661 0.24502 0.59527 0.0
C275 C 0.74791 0.21662 0.60854 0.0
C276 C 0.72998 0.20008 0.55129 0.0
C277 C 0.74362 0.24555 0.53174 0.0
N278 N 0.72755 0.21847 0.5036 0.0
C279 C 0.82158 0.25478 0.70623 0.0
C280 C 0.83492 0.2327 0.5833 0.0
C281 C 0.84529 0.229 0.65322 0.0
C282 C 0.83809 0.24056 0.7144 0.0
C283 C 0.81852 0.24783 0.57739 0.0
N284 N 0.81289 0.25993 0.63874 0.0
H285 H 0.81428 0.26032 0.75608 0.0
H286 H 0.80897 0.24794 0.52449 0.0
H287 H 0.75548 0.20876 0.65432 0.0
H288 H 0.74719 0.26526 0.50411 0.0
O289 O 0.76669 0.25656 0.74387 0.0
O290 O 0.755 0.28579 0.69032 0.0
O291 O 0.79911 0.30586 0.54916 0.0
C292 C 0.74938 0.2675 0.74531 0.0
H293 H 0.88954 0.34417 0.70999 0.0
H294 H 0.72061 0.17672 0.54321 0.0
H295 H 0.83852 0.2231 0.53396 0.0
H296 H 0.84406 0.23731 0.76977 0.0
Co297 Co 0.86149 0.43836 0.08911 0.0
C298 C 0.86206 0.38504 0.06579 0.0
C299 C 0.82901 0.38508 0.99572 0.0
C300 C 0.82981 0.35962 0.98412 0.0
N301 N 0.84976 0.4011 0.04603 0.0
N302 N 0.85097 0.35986 0.02775 0.0
H303 H 0.88038 0.39264 0.10356 0.0
H304 H 0.8156 0.39195 0.9662 0.0
C305 C 0.83364 0.39305 0.22264 0.0
O306 O 0.81052 0.37978 0.17931 0.0
N307 N 0.87346 0.47524 0.13506 0.0
C308 C 0.89866 0.50087 0.12688 0.0
C309 C 0.90018 0.5196 0.1826 0.0
C310 C 0.85964 0.47883 0.19291 0.0
N311 N 0.87562 0.50547 0.22358 0.0
C312 C 0.91615 0.45829 1.0091 0.0
C313 C 0.95345 0.46383 0.12329 0.0
C314 C 0.96652 0.47537 0.05295 0.0
C315 C 0.94665 0.47219 0.99627 0.0
C316 C 0.92265 0.45196 0.13548 0.0
N317 N 0.90408 0.44937 0.0785 0.0
H318 H 0.90241 0.45587 0.9621 0.0
H319 H 0.91401 0.44533 0.19097 0.0
H320 H 0.91556 0.50509 0.08664 0.0
H321 H 0.83976 0.46128 0.21681 0.0
O322 O 0.85895 0.45562 0.99195 0.0
O323 O 0.82175 0.43522 0.06446 0.0
O324 O 0.856 0.41742 0.19702 0.0
C325 C 0.83224 0.44949 1.00193 0.0
H326 H 0.81823 0.34386 0.94035 0.0
H327 H 0.91867 0.5409 0.19548 0.0
H328 H 0.96707 0.46478 0.16961 0.0
H329 H 0.9546 0.48051 0.94105 0.0
Co330 Co 0.61645 0.43594 0.08306 0.0
C331 C 0.66202 0.49366 0.03396 0.0
C332 C 0.67146 0.46054 0.99592 0.0
C333 C 0.69255 0.4873 0.96915 0.0
N334 N 0.65208 0.46461 0.0358 0.0
N335 N 0.68643 0.50798 0.99351 0.0
H336 H 0.65196 0.50436 0.06287 0.0
H337 H 0.67 0.43967 0.9846 0.0
C338 C 0.66142 0.47193 0.22102 0.0
O339 O 0.67169 0.49653 0.18427 0.0
N340 N 0.5809 0.40786 0.13003 0.0
C341 C 0.55338 0.40047 0.10943 0.0
C342 C 0.53434 0.38315 0.16415 0.0
C343 C 0.57842 0.39473 0.19555 0.0
N344 N 0.5503 0.37965 0.21761 0.0
C345 C 0.59603 0.47216 1.01409 0.0
C346 C 0.57563 0.48861 0.13559 0.0
C347 C 0.57007 0.49636 0.06418 0.0
C348 C 0.58103 0.48795 1.00365 0.0
C349 C 0.591 0.47259 0.14394 0.0
N350 N 0.60111 0.46438 0.08323 0.0
H351 H 0.60355 0.46598 0.96507 0.0
H352 H 0.5939 0.46606 0.1989 0.0
H353 H 0.54777 0.4085 0.06029 0.0
H354 H 0.59683 0.39746 0.22867 0.0
O355 O 0.59875 0.41774 0.9838 0.0
O356 O 0.62285 0.40244 0.04824 0.0
O357 O 0.63935 0.44807 0.1912 0.0
C358 C 0.60772 0.39889 0.98727 0.0
H359 H 0.71007 0.49109 0.93116 0.0
H360 H 0.51097 0.375 0.16652 0.0
H361 H 0.56762 0.49435 0.18461 0.0
H362 H 0.57765 0.49323 0.94762 0.0
Co363 Co 0.61405 0.18897 0.07258 0.0
C364 C 0.56419 0.16653 0.97523 0.0
C365 C 0.5684 0.20332 0.03628 0.0
C366 C 0.54093 0.18895 1.00438 0.0
N367 N 0.58282 0.18901 1.01803 0.0
N368 N 0.53805 0.16531 0.96701 0.0
H369 H 0.56954 0.15076 0.95242 0.0
H370 H 0.5766 0.22199 0.07326 0.0
C371 C 0.59075 0.19487 0.23872 0.0
O372 O 0.59264 0.17251 0.26456 0.0
N373 N 0.64496 0.18826 0.12787 0.0
C374 C 0.66076 0.17549 0.10721 0.0
C375 C 0.67952 0.17841 0.1638 0.0
C376 C 0.65522 0.19988 0.19521 0.0
N377 N 0.67575 0.19359 0.21856 0.0
C378 C 0.59584 0.12797 0.0415 0.0
C379 C 0.54307 0.09949 0.11475 0.0
C380 C 0.55044 0.08217 0.06831 0.0
C381 C 0.57758 0.09748 0.03238 0.0
C382 C 0.56196 0.13063 0.12126 0.0
N383 N 0.58847 0.1449 0.08505 0.0
H384 H 0.61537 0.13796 1.0084 0.0
H385 H 0.55449 0.14317 0.15266 0.0
H386 H 0.65919 0.16493 0.05467 0.0
H387 H 0.64793 0.21247 0.22712 0.0
O388 O 0.6339 0.18791 0.97736 0.0
O389 O 0.64425 0.2286 0.02996 0.0
O390 O 0.59836 0.20243 0.16912 0.0
C391 C 0.65039 0.21609 0.97521 0.0
H392 H 0.52462 0.19575 1.0078 0.0
H393 H 0.69455 0.16992 0.16527 0.0
H394 H 0.52242 0.0892 0.14429 0.0
H395 H 0.58465 0.08588 0.9955 0.0
Co396 Co 0.43855 0.84748 0.96989 0.0
C397 C 0.38882 0.8548 1.0052 0.0
C398 C 0.38737 0.82013 0.07146 0.0
C399 C 0.36445 0.82435 0.09143 0.0
N400 N 0.40299 0.83983 1.01859 0.0
N401 N 0.36562 0.84629 0.04989 0.0
H402 H 0.39619 0.87262 0.96609 0.0
H403 H 0.3927 0.80464 0.09616 0.0
C404 C 0.40351 0.84735 0.81815 0.0
O405 O 0.41228 0.87524 0.82754 0.0
N406 N 0.47342 0.85495 0.91914 0.0
C407 C 0.50125 0.87584 0.93381 0.0
C408 C 0.51891 0.87571 0.87728 0.0
C409 C 0.47442 0.84186 0.85623 0.0
N410 N 0.50178 0.85434 0.82916 0.0
C411 C 0.45317 0.90261 0.0396 0.0
C412 C 0.48101 0.94131 0.92504 0.0
C413 C 0.482 0.95338 0.99626 0.0
C414 C 0.46742 0.93312 0.05323 0.0
C415 C 0.46643 0.91026 0.91351 0.0
N416 N 0.45231 0.89092 0.97052 0.0
H417 H 0.44345 0.88815 0.08652 0.0
H418 H 0.46778 0.90198 0.85945 0.0
H419 H 0.50791 0.89098 0.9801 0.0
H420 H 0.45541 0.82444 0.82896 0.0
O421 O 0.45809 0.84829 0.06719 0.0
O422 O 0.43379 0.8084 1.00515 0.0
O423 O 0.41311 0.835 0.86605 0.0
C424 C 0.44974 0.82064 0.06456 0.0
H425 H 0.34941 0.81369 0.137 0.0
H426 H 0.54211 0.89075 0.87025 0.0
H427 H 0.49229 0.95576 0.87896 0.0
H428 H 0.4676 0.94084 0.10922 0.0
Co429 Co 0.20284 0.60656 0.96727 0.0
C430 C 0.18447 0.5524 0.04578 0.0
C431 C 0.2299 0.57269 1.01691 0.0
C432 C 0.22062 0.54444 0.03983 0.0
N433 N 0.20677 0.57704 1.01863 0.0
N434 N 0.19161 0.53139 0.05533 0.0
H435 H 0.16334 0.54995 0.05816 0.0
H436 H 0.25137 0.58826 0.99604 0.0
C437 C 0.21324 0.56817 0.83924 0.0
O438 O 0.20021 0.54481 0.8813 0.0
N439 N 0.19908 0.63649 0.91606 0.0
C440 C 0.18996 0.6546 0.94335 0.0
C441 C 0.18849 0.67106 0.88612 0.0
C442 C 0.20399 0.64287 0.84365 0.0
N443 N 0.19724 0.66343 0.82384 0.0
C444 C 0.14229 0.5893 0.99978 0.0
C445 C 0.11276 0.5342 0.93855 0.0
C446 C 0.09604 0.54323 0.98201 0.0
C447 C 0.11172 0.57199 1.00942 0.0
C448 C 0.14345 0.55325 0.92559 0.0
N449 N 0.15858 0.58031 0.95915 0.0
H450 H 0.15281 0.60988 0.02866 0.0
H451 H 0.15491 0.5452 0.89234 0.0
H452 H 0.18491 0.65619 1.00077 0.0
H453 H 0.2124 0.63291 0.80559 0.0
O454 O 0.20267 0.62506 0.06512 0.0
O455 O 0.24273 0.6381 1.00493 0.0
O456 O 0.21434 0.59254 0.86325 0.0
C457 C 0.23065 0.6428 0.06318 0.0
H458 H 0.23427 0.53445 0.04475 0.0
H459 H 0.18175 0.68742 0.88989 0.0
H460 H 0.10235 0.5123 0.9154 0.0
H461 H 0.10056 0.58089 0.04181 0.0
Co462 Co 0.43607 0.59709 0.96176 0.0
C463 C 0.49151 0.64832 0.99024 0.0
C464 C 0.45775 0.65244 0.04653 0.0
C465 C 0.48439 0.67697 0.06045 0.0
N466 N 0.46265 0.63409 1.00481 0.0
N467 N 0.5057 0.6741 0.02568 0.0
H468 H 0.50232 0.63929 0.95726 0.0
H469 H 0.43668 0.64817 0.06707 0.0
C470 C 0.45321 0.64373 0.83116 0.0
O471 O 0.44435 0.65726 0.87684 0.0
N472 N 0.41003 0.56077 0.91474 0.0
C473 C 0.40396 0.53354 0.93388 0.0
C474 C 0.38761 0.51458 0.87747 0.0
C475 C 0.39717 0.55821 0.84869 0.0
N476 N 0.38358 0.53038 0.82459 0.0
C477 C 0.47673 0.58348 0.037 0.0
C478 C 0.49242 0.55976 0.9209 0.0
C479 C 0.50208 0.55762 0.99311 0.0
C480 C 0.49407 0.57024 0.05089 0.0
C481 C 0.47487 0.57329 0.90911 0.0
N482 N 0.46682 0.58479 0.96713 0.0
H483 H 0.47066 0.59223 0.08385 0.0
H484 H 0.46691 0.57347 0.85374 0.0
H485 H 0.41213 0.52817 0.98319 0.0
H486 H 0.39892 0.57649 0.81698 0.0
O487 O 0.41826 0.57973 0.06115 0.0
O488 O 0.40032 0.60059 0.9934 0.0
O489 O 0.45069 0.61876 0.85442 0.0
C490 C 0.3978 0.58638 0.05551 0.0
H491 H 0.48814 0.69418 0.09953 0.0
H492 H 0.38033 0.49142 0.8739 0.0
H493 H 0.49781 0.55041 0.87397 0.0
H494 H 0.50081 0.56948 0.10739 0.0
Co495 Co 0.51992 0.75979 0.40581 0.0
C496 C 0.52238 0.72275 0.28398 0.0
C497 C 0.53083 0.71185 0.39189 0.0
C498 C 0.54122 0.70001 0.34066 0.0
N499 N 0.51931 0.72662 0.35699 0.0
N500 N 0.53547 0.70643 0.2728 0.0
H501 H 0.51887 0.73466 0.2402 0.0
H502 H 0.53591 0.71341 0.45022 0.0
C503 C 0.51403 0.72618 0.56839 0.0
O504 O 0.54215 0.74144 0.58284 0.0
N505 N 0.52272 0.79312 0.45634 0.0
C506 C 0.53984 0.82121 0.43498 0.0
C507 C 0.53993 0.83929 0.49032 0.0
C508 C 0.51267 0.79432 0.52412 0.0
N509 N 0.52291 0.82223 0.54578 0.0
C510 C 0.57739 0.783 0.3466 0.0
C511 C 0.6128 0.80445 0.46955 0.0
C512 C 0.62653 0.80872 0.39916 0.0
C513 C 0.60794 0.79791 0.33788 0.0
C514 C 0.58145 0.78942 0.47581 0.0
N515 N 0.56378 0.77754 0.41448 0.0
H516 H 0.56455 0.77688 0.29668 0.0
H517 H 0.57184 0.78879 0.52909 0.0
H518 H 0.55254 0.82806 0.38429 0.0
H519 H 0.49939 0.77551 0.55848 0.0
O520 O 0.52128 0.77972 0.30805 0.0
O521 O 0.48047 0.75141 0.36162 0.0
O522 O 0.50453 0.73233 0.5065 0.0
C523 C 0.49324 0.76897 0.30546 0.0
H524 H 0.55435 0.68983 0.35244 0.0
H525 H 0.55232 0.86299 0.49134 0.0
H526 H 0.62611 0.81335 0.51898 0.0
H527 H 0.6171 0.80151 0.2824 0.0
Co528 Co 0.28598 0.77465 0.39526 0.0
C529 C 0.30841 0.81848 0.28318 0.0
C530 C 0.34292 0.82627 0.3591 0.0
C531 C 0.35185 0.85068 0.31498 0.0
N532 N 0.3156 0.80614 0.33861 0.0
N533 N 0.32966 0.84605 0.26838 0.0
H534 H 0.28715 0.80766 0.25692 0.0
H535 H 0.35505 0.82411 0.40491 0.0
C536 C 0.31284 0.7977 0.56281 0.0
O537 O 0.28732 0.79386 0.58455 0.0
N538 N 0.25462 0.74306 0.44926 0.0
C539 C 0.22675 0.72658 0.42439 0.0
C540 C 0.2099 0.70798 0.47935 0.0
C541 C 0.25462 0.73298 0.51782 0.0
N542 N 0.22749 0.71216 0.53758 0.0
C543 C 0.24198 0.79155 0.36908 0.0
C544 C 0.2684 0.84598 0.43504 0.0
C545 C 0.24245 0.83749 0.39347 0.0
C546 C 0.2294 0.8096 0.36135 0.0
C547 C 0.28048 0.82695 0.44166 0.0
N548 N 0.26716 0.79968 0.40913 0.0
H549 H 0.232 0.77164 0.33749 0.0
H550 H 0.30124 0.83488 0.46978 0.0
H551 H 0.21874 0.72747 0.36986 0.0
H552 H 0.27363 0.7407 0.55326 0.0
O553 O 0.26537 0.75482 0.30007 0.0
O554 O 0.29661 0.74527 0.35227 0.0
O555 O 0.31475 0.79097 0.49313 0.0
C556 C 0.27796 0.73905 0.29753 0.0
H557 H 0.37316 0.87018 0.31738 0.0
H558 H 0.18653 0.69284 0.47746 0.0
H559 H 0.27967 0.86744 0.46065 0.0
H560 H 0.20979 0.80198 0.32786 0.0
Co561 Co 0.27199 0.51329 0.40948 0.0
C562 C 0.22855 0.51338 0.3016 0.0
C563 C 0.21261 0.50049 0.41186 0.0
C564 C 0.18893 0.49193 0.36661 0.0
N565 N 0.23769 0.51366 0.37171 0.0
N566 N 0.19895 0.50026 0.29756 0.0
H567 H 0.24265 0.52007 0.25385 0.0
H568 H 0.21086 0.49309 0.46814 0.0
C569 C 0.24815 0.52064 0.57565 0.0
O570 O 0.23331 0.49242 0.58874 0.0
N571 N 0.30424 0.51083 0.45171 0.0
C572 C 0.31445 0.4933 0.42722 0.0
C573 C 0.33287 0.4924 0.48036 0.0
C574 C 0.31656 0.52049 0.51886 0.0
N575 N 0.33398 0.50946 0.53751 0.0
C576 C 0.2355 0.45564 0.35408 0.0
C577 C 0.22611 0.42107 0.4768 0.0
C578 C 0.21448 0.40685 0.40777 0.0
C579 C 0.2197 0.42503 0.34656 0.0
C580 C 0.24231 0.45242 0.48188 0.0
N581 N 0.24634 0.46962 0.42076 0.0
H582 H 0.23979 0.46829 0.30413 0.0
H583 H 0.25219 0.46249 0.5341 0.0
H584 H 0.30737 0.48039 0.37675 0.0
H585 H 0.31167 0.53384 0.55536 0.0
O586 O 0.28692 0.51075 0.30688 0.0
O587 O 0.30131 0.55205 0.35984 0.0
O588 O 0.26361 0.5297 0.51373 0.0
C589 C 0.30439 0.53866 0.30195 0.0
H590 H 0.16615 0.47828 0.38191 0.0
H591 H 0.34327 0.47905 0.47925 0.0
H592 H 0.2233 0.40811 0.52602 0.0
H593 H 0.21192 0.41555 0.292 0.0
C594 C 0.181 0.18234 0.96729 0.0
C595 C 0.20152 0.17257 0.95878 0.0
C596 C 0.2157 0.18335 0.08928 0.0
C597 C 0.19632 0.19453 0.09607 0.0
N598 N 0.16626 0.21172 0.03933 0.0
N599 N 0.24286 0.16941 1.00558 0.0
C600 C 0.18104 0.19655 0.03379 0.0
C601 C 0.22029 0.17474 1.01807 0.0
N602 N 0.16043 0.17647 0.91349 0.0
N603 N 0.22865 0.1799 0.15133 0.0
H604 H 0.24715 0.1638 0.9533 0.0
H605 H 0.25876 0.17305 0.04531 0.0
H606 H 0.22597 0.1867 0.20385 0.0
H607 H 0.24053 0.16887 0.15129 0.0
H608 H 0.14321 0.18078 0.91978 0.0
H609 H 0.15873 0.16445 0.86572 0.0
H610 H 0.15646 0.21588 0.9941 0.0
H611 H 0.16637 0.22262 0.08801 0.0
C612 C 0.88608 0.05016 0.03934 0.0
C613 C 0.88948 0.03455 0.97967 0.0
C614 C 0.87191 0.99108 0.05521 0.0
C615 C 0.87132 1.00735 0.11721 0.0
N616 N 0.88192 0.05314 0.173 0.0
N617 N 0.89427 0.99372 0.93656 0.0
C618 C 0.87968 0.03725 0.1108 0.0
C619 C 0.88515 1.00608 0.98949 0.0
N620 N 0.88781 0.07658 0.02691 0.0
N621 N 0.85853 0.96122 0.05796 0.0
H622 H 0.90545 1.00497 0.88885 0.0
H623 H 0.89372 0.9738 0.94427 0.0
H624 H 0.84643 0.94913 0.1037 0.0
H625 H 0.85659 0.94837 1.01177 0.0
H626 H 0.88287 0.08772 0.06716 0.0
H627 H 0.89202 0.08627 0.97446 0.0
H628 H 0.89048 0.07575 0.17256 0.0
H629 H 0.87731 0.0439 0.22604 0.0
C630 C 0.06639 0.87296 0.03986 0.0
C631 C 0.04868 0.86637 0.10409 0.0
C632 C 1.0045 0.84143 0.02792 0.0
C633 C 1.02216 0.85158 0.96346 0.0
N634 N 0.0694 0.87884 0.90584 0.0
N635 N 1.00127 0.84676 0.16101 0.0
C636 C 0.05305 0.86761 0.9687 0.0
C637 C 1.01776 0.85093 0.09877 0.0
N638 N 0.09587 0.88394 0.04754 0.0
N639 N 0.97511 0.82258 1.02073 0.0
H640 H 1.01054 0.85375 0.21362 0.0
H641 H 0.97867 0.83832 0.15993 0.0
H642 H 0.96507 0.81516 0.96902 0.0
H643 H 0.96123 0.81237 0.06557 0.0
H644 H 0.10984 0.88707 1.00317 0.0
H645 H 0.10592 0.88746 0.0995 0.0
H646 H 0.09188 0.89341 0.90642 0.0
H647 H 0.06003 0.87509 0.85294 0.0
C648 C 0.88078 0.8697 0.06847 0.0
C649 C 0.88793 0.89829 0.09618 0.0
C650 C 0.92937 0.91768 1.0031 0.0
C651 C 0.91914 0.88969 0.9673 0.0
N652 N 0.88099 0.83922 0.96575 0.0
N653 N 0.91855 0.9501 0.07754 0.0
C654 C 0.89383 0.86579 1.00056 0.0
C655 C 0.91227 0.92234 0.06022 0.0
N656 N 0.86211 0.8457 0.10905 0.0
N657 N 0.95644 0.94011 0.98455 0.0
H658 H 0.90704 0.95444 0.11785 0.0
H659 H 0.93332 0.96846 0.04747 0.0
H660 H 0.97016 0.93746 0.94729 0.0
H661 H 0.96662 0.9601 1.01258 0.0
H662 H 0.85809 0.82464 0.09704 0.0
H663 H 0.85347 0.8473 0.15986 0.0
H664 H 0.86063 0.82189 0.98111 0.0
H665 H 0.88949 0.83523 0.91765 0.0
C666 C 0.17721 0.05348 0.04141 0.0
C667 C 0.17902 0.04527 0.96556 0.0
C668 C 0.15605 0.99314 1.01428 0.0
C669 C 0.15429 1.00149 0.08958 0.0
N670 N 0.15934 0.04011 0.16973 0.0
N671 N 0.16582 1.00512 0.88151 0.0
C672 C 0.1636 0.0318 0.10095 0.0
C673 C 0.16683 1.01438 0.95291 0.0
N674 N 0.18937 0.08258 0.05782 0.0
N675 N 0.14802 0.96451 1.00153 0.0
H676 H 0.17471 0.01965 0.8373 0.0
H677 H 0.15472 0.98328 0.86503 0.0
H678 H 0.13844 0.94847 0.04253 0.0
H679 H 0.15171 0.95666 0.95194 0.0
H680 H 0.19317 0.09099 0.11162 0.0
H681 H 0.19707 0.0988 1.01736 0.0
H682 H 0.16228 0.06074 0.182 0.0
H683 H 0.15033 0.02539 0.21372 0.0
C684 C 1.0157 0.11975 1.00638 0.0
C685 C 1.01576 0.13987 0.95215 0.0
C686 C 0.05923 0.1796 1.02213 0.0
C687 C 0.05858 0.15981 0.07817 0.0
N688 N 0.03797 0.10961 0.1149 0.0
N689 N 0.04253 0.18834 0.90217 0.0
C690 C 0.03741 0.12943 0.06696 0.0
C691 C 0.03906 0.16957 0.95876 0.0
N692 N 0.99405 0.09121 1.00138 0.0
N693 N 0.07917 0.20867 0.03024 0.0
H694 H 1.02882 0.18181 0.85565 0.0
H695 H 0.06025 0.20945 0.89742 0.0
H696 H 0.09584 0.2164 0.07003 0.0
H697 H 0.07883 0.22527 0.99966 0.0
H698 H 0.98961 0.07549 0.04194 0.0
H699 H 0.97986 0.08333 0.95599 0.0
H700 H 1.02523 0.08703 0.10909 0.0
H701 H 0.05297 0.11591 0.15855 0.0
C702 C 0.85675 0.53971 0.38128 0.0
C703 C 0.85031 0.51798 0.43595 0.0
C704 C 0.8693 0.49411 0.35581 0.0
C705 C 0.87109 0.51271 0.29707 0.0
N706 N 0.86414 0.55161 0.24997 0.0
N707 N 0.8439 0.47062 0.46848 0.0
C708 C 0.86436 0.5353 0.30867 0.0
C709 C 0.8549 0.49411 0.4216 0.0
N710 N 0.85636 0.56473 0.39945 0.0
N711 N 0.88143 0.47651 0.3483 0.0
H712 H 0.83106 0.46879 0.51455 0.0
H713 H 0.84457 0.45155 0.45665 0.0
H714 H 0.89324 0.47702 0.30112 0.0
H715 H 0.88254 0.46401 0.3918 0.0
H716 H 0.86324 0.58241 0.36334 0.0
H717 H 0.85171 0.56885 0.45305 0.0
H718 H 0.85648 0.56644 0.25373 0.0
H719 H 0.8698 0.54876 0.19625 0.0
C720 C 0.52337 0.33692 0.29958 0.0
C721 C 0.54074 0.36752 0.29016 0.0
C722 C 0.55163 0.37417 0.42248 0.0
C723 C 0.53317 0.34368 0.43312 0.0
N724 N 0.49515 0.29744 0.3857 0.0
N725 N 0.56275 0.41564 0.3439 0.0
C726 C 0.51695 0.32543 0.37272 0.0
C727 C 0.55189 0.38628 0.35235 0.0
N728 N 0.51423 0.31889 0.23897 0.0
N729 N 0.57061 0.39118 0.47693 0.0
H730 H 0.56262 0.42486 0.29263 0.0
H731 H 0.56877 0.43006 0.3888 0.0
H732 H 0.57336 0.38273 0.52673 0.0
H733 H 0.58604 0.41315 0.46912 0.0
H734 H 0.50404 0.29616 0.24281 0.0
H735 H 0.51878 0.32684 0.18467 0.0
H736 H 0.48112 0.28383 0.34425 0.0
H737 H 0.4892 0.28898 0.43931 0.0
C738 C 0.68383 0.19364 0.42481 0.0
C739 C 0.71453 0.21137 0.43147 0.0
C740 C 0.71923 0.21922 0.29755 0.0
C741 C 0.68893 0.19946 0.2904 0.0
N742 N 0.64332 0.1629 0.34365 0.0
N743 N 0.76232 0.23575 0.37459 0.0
C744 C 0.67141 0.1852 0.35311 0.0
C745 C 0.73257 0.22272 0.36786 0.0
N746 N 0.66664 0.18576 0.48686 0.0
N747 N 0.73493 0.23516 0.23756 0.0
H748 H 0.77264 0.23728 0.42524 0.0
H749 H 0.77647 0.24229 0.32922 0.0
H750 H 0.72542 0.23322 0.18538 0.0
H751 H 0.7566 0.25204 0.24113 0.0
H752 H 0.64383 0.17517 0.48484 0.0
H753 H 0.67529 0.19214 0.54026 0.0
H754 H 0.63028 0.15 0.38722 0.0
H755 H 0.63407 0.15546 0.29122 0.0
C756 C 0.59263 0.24055 0.31043 0.0
C757 C 0.57824 0.2097 0.29368 0.0
C758 C 0.54513 0.20306 0.4025 0.0
C759 C 0.55731 0.23389 0.41492 0.0
N760 N 0.59143 0.28202 0.37051 0.0
N761 N 0.53512 0.1632 0.31707 0.0
C762 C 0.5808 0.25257 0.36591 0.0
C763 C 0.55298 0.19163 0.33818 0.0
N764 N 0.61842 0.25854 0.27541 0.0
N765 N 0.52663 0.18406 0.45469 0.0
H766 H 0.53882 0.15423 0.26936 0.0
H767 H 0.51483 0.14965 0.34149 0.0
H768 H 0.52132 0.19108 0.50345 0.0
H769 H 0.51947 0.1617 0.45404 0.0
H770 H 0.63192 0.28042 0.28985 0.0
H771 H 0.62735 0.25091 0.23532 0.0
H772 H 0.606 0.29693 0.33214 0.0
H773 H 0.58395 0.29126 0.41022 0.0
C774 C 0.853 0.37033 0.32604 0.0
C775 C 0.83162 0.37763 0.30022 0.0
C776 C 0.79839 0.34381 0.40192 0.0
C777 C 0.82001 0.33697 0.42879 0.0
N778 N 0.87162 0.35272 0.42642 0.0
N779 N 0.78656 0.37648 0.33169 0.0
C780 C 0.84831 0.35293 0.3934 0.0
C781 C 0.80515 0.36576 0.34378 0.0
N782 N 0.87766 0.37888 0.28465 0.0
N783 N 0.77065 0.32855 0.42958 0.0
H784 H 0.79112 0.39306 0.2933 0.0
H785 H 0.76854 0.37149 0.36527 0.0
H786 H 0.76509 0.31378 0.47319 0.0
H787 H 0.75282 0.32917 0.40616 0.0
H788 H 0.89229 0.37124 0.29388 0.0
H789 H 0.88238 0.39197 0.23762 0.0
H790 H 0.89319 0.36586 0.409 0.0
H791 H 0.86983 0.34217 0.47682 0.0
C792 C 0.70972 0.4881 0.29764 0.0
C793 C 0.67817 0.47416 0.2966 0.0
C794 C 0.68173 0.47529 0.43704 0.0
C795 C 0.7133 0.49271 0.43796 0.0
N796 N 0.75614 0.51916 0.36223 0.0
N797 N 0.63521 0.4585 0.37116 0.0
C798 C 0.72685 0.49968 0.36612 0.0
C799 C 0.66461 0.46862 0.36817 0.0
N800 N 0.7237 0.49001 0.23218 0.0
N801 N 0.6677 0.4643 0.50293 0.0
H802 H 0.62219 0.45281 0.3235 0.0
H803 H 0.62441 0.4582 0.41995 0.0
H804 H 0.679 0.46793 0.55303 0.0
H805 H 0.6454 0.44921 0.50674 0.0
H806 H 0.74601 0.49703 0.2287 0.0
H807 H 0.71237 0.48158 0.18236 0.0
H808 H 0.76714 0.52806 0.31256 0.0
H809 H 0.7689 0.52849 0.40951 0.0
C810 C 0.53312 0.82827 0.67995 0.0
C811 C 0.51905 0.8319 0.61701 0.0
C812 C 0.49842 0.85551 0.69335 0.0
C813 C 0.50962 0.84876 0.75735 0.0
N814 N 0.53454 0.8259 0.81443 0.0
N815 N 0.4856 0.84538 0.56295 0.0
C816 C 0.52632 0.8345 0.75151 0.0
C817 C 0.50101 0.84467 0.62337 0.0
N818 N 0.55346 0.81957 0.67067 0.0
N819 N 0.48593 0.87284 0.6998 0.0
H820 H 0.48709 0.83739 0.51094 0.0
H821 H 0.46969 0.85167 0.56563 0.0
H822 H 0.48454 0.88172 0.75051 0.0
H823 H 0.47945 0.88057 0.65445 0.0
H824 H 0.56643 0.81896 0.71368 0.0
H825 H 0.55917 0.81541 0.61838 0.0
H826 H 0.54418 0.81273 0.81393 0.0
H827 H 0.5297 0.83021 0.86764 0.0
C828 C 0.19201 0.65709 0.68839 0.0
C829 C 0.20103 0.67578 0.7512 0.0
C830 C 0.22195 0.71836 0.67056 0.0
C831 C 0.21809 0.69978 0.60954 0.0
N832 N 0.20291 0.65162 0.56085 0.0
N833 N 0.22768 0.72338 0.80462 0.0
C834 C 0.20392 0.66908 0.61836 0.0
C835 C 0.21674 0.70641 0.74278 0.0
N836 N 0.1716 0.62818 0.69578 0.0
N837 N 0.22904 0.74677 0.65899 0.0
H838 H 0.24156 0.74602 0.80357 0.0
H839 H 0.24156 0.74602 0.80357 0.0
H840 H 0.23083 0.75538 0.60581 0.0
H841 H 0.22958 0.76054 0.70143 0.0
H842 H 0.16273 0.61399 0.65063 0.0
H843 H 0.16123 0.61935 0.74631 0.0
H844 H 0.19505 0.62923 0.56666 0.0
H845 H 0.21253 0.66004 0.50937 0.0
C846 C 0.37759 0.52824 0.61771 0.0
C847 C 0.34687 0.5115 0.6091 0.0
C848 C 0.34045 0.50498 0.74355 0.0
C849 C 0.37119 0.52102 0.75206 0.0
N850 N 0.41941 0.54249 0.69908 0.0
N851 N 0.2997 0.47767 0.65973 0.0
C852 C 0.38992 0.53087 0.68941 0.0
C853 C 0.32845 0.49789 0.67098 0.0
N854 N 0.3947 0.54259 0.55792 0.0
N855 N 0.32284 0.49776 0.80471 0.0
H856 H 0.29099 0.47121 0.60654 0.0
H857 H 0.28551 0.46526 0.70219 0.0
H858 H 0.33119 0.50268 0.85871 0.0
H859 H 0.30019 0.48886 0.80166 0.0
H860 H 0.41701 0.55758 0.56183 0.0
H861 H 0.38605 0.54102 0.50477 0.0
H862 H 0.43417 0.54801 0.65531 0.0
H863 H 0.42874 0.54411 0.75136 0.0
C864 C 0.24858 0.55351 0.77351 0.0
C865 C 0.22833 0.56438 0.76691 0.0
C866 C 0.22624 0.5528 0.62931 0.0
C867 C 0.24558 0.54089 0.63693 0.0
N868 N 0.27902 0.53532 0.71662 0.0
N869 N 0.20147 0.57789 0.68354 0.0
C870 C 0.25777 0.54297 0.70936 0.0
C871 C 0.21853 0.56526 0.69296 0.0
N872 N 0.25882 0.55267 0.84279 0.0
N873 N 0.21419 0.55111 0.56097 0.0
H874 H 0.19519 0.58626 0.72809 0.0
H875 H 0.19505 0.58184 0.63214 0.0
H876 H 0.22059 0.54402 0.51412 0.0
H877 H 0.19759 0.55595 0.55048 0.0
H878 H 0.26979 0.54135 0.85592 0.0
H879 H 0.25561 0.56291 0.88852 0.0
H880 H 0.29142 0.5386 0.76443 0.0
H881 H 0.28603 0.52767 0.672 0.0
C882 C 0.46728 0.695 0.65553 0.0
C883 C 0.49488 0.70055 0.6257 0.0
C884 C 0.49417 0.66584 0.72565 0.0
C885 C 0.46619 0.65958 0.75386 0.0
N886 N 0.42326 0.66339 0.72767 0.0
N887 N 0.52889 0.68226 0.6225 0.0
C888 C 0.4521 0.67286 0.71321 0.0
C889 C 0.5065 0.68328 0.65825 0.0
N890 N 0.4557 0.71168 0.63131 0.0
N891 N 0.51006 0.6563 0.76487 0.0
H892 H 0.53726 0.6927 0.57187 0.0
H893 H 0.53659 0.66818 0.63794 0.0
H894 H 0.50206 0.64341 0.81237 0.0
H895 H 0.53196 0.66309 0.75362 0.0
H896 H 0.438 0.71184 0.65692 0.0
H897 H 0.46507 0.72691 0.58873 0.0
H898 H 0.41051 0.66947 0.69614 0.0
H899 H 0.41118 0.64674 0.76572 0.0
C900 C 0.35629 0.83754 0.74592 0.0
C901 C 0.37972 0.83117 0.75427 0.0
C902 C 0.3597 0.80124 0.63534 0.0
C903 C 0.33857 0.81078 0.62328 0.0
N904 N 0.32569 0.84693 0.66187 0.0
N905 N 0.40549 0.80968 0.69456 0.0
C906 C 0.33956 0.8314 0.67737 0.0
C907 C 0.38178 0.81368 0.69535 0.0
N908 N 0.34889 0.84875 0.80528 0.0
N909 N 0.35834 0.7795 0.59124 0.0
H910 H 0.4214 0.81809 0.73614 0.0
H911 H 0.41048 0.80021 0.65008 0.0
H912 H 0.34313 0.77013 0.54827 0.0
H913 H 0.37066 0.76927 0.60112 0.0
H914 H 0.33038 0.85123 0.80557 0.0
H915 H 0.35894 0.852 0.85716 0.0
H916 H 0.32772 0.86404 0.69538 0.0
H917 H 0.31567 0.84559 0.61082 0.0
C918 C 0.21273 0.35775 0.38254 0.0
C919 C 0.1975 0.37346 0.39602 0.0
C920 C 0.15057 0.32747 0.36941 0.0
C921 C 0.16596 0.3123 0.35097 0.0
N922 N 0.21218 0.31387 0.33524 0.0
N923 N 0.1518 0.37364 0.39569 0.0
C924 C 0.1972 0.32778 0.3564 0.0
C925 C 0.16636 0.35828 0.38777 0.0
N926 N 0.24223 0.3715 0.39577 0.0
N927 N 0.12062 0.3122 0.37051 0.0
H928 H 0.16214 0.39544 0.41313 0.0
H929 H 0.1299 0.36543 0.38147 0.0
H930 H 0.10841 0.29038 0.35371 0.0
H931 H 0.10778 0.32047 0.39192 0.0
H932 H 0.25461 0.36103 0.39502 0.0
H933 H 0.25423 0.39329 0.41289 0.0
H934 H 0.23484 0.32425 0.32939 0.0
H935 H 0.20177 0.29196 0.31884 0.0
C936 C 0.70528 0.87032 0.34774 0.0
C937 C 0.7206 0.85445 0.33819 0.0
C938 C 0.67466 0.80882 0.37235 0.0
C939 C 0.6598 0.82489 0.38587 0.0
N940 N 0.66201 0.87159 0.3928 0.0
N941 N 0.72049 0.80883 0.3501 0.0
C942 C 0.67552 0.85586 0.37529 0.0
C943 C 0.70535 0.82375 0.35295 0.0
N944 N 0.71919 0.89934 0.32924 0.0
N945 N 0.65915 0.77894 0.37635 0.0
H946 H 0.7422 0.81843 0.33227 0.0
H947 H 0.71221 0.78749 0.36915 0.0
H948 H 0.63743 0.76741 0.39427 0.0
H949 H 0.66713 0.76541 0.35819 0.0
H950 H 0.70896 0.91193 0.32721 0.0
H951 H 0.74082 0.91057 0.31064 0.0
H952 H 0.67254 0.89434 0.39402 0.0
H953 H 0.6404 0.86179 0.41144 0.0
C954 C 0.20012 0.8481 0.41142 0.0
C955 C 0.2284 0.85681 0.38142 0.0
C956 C 0.22685 0.89852 0.31967 0.0
C957 C 0.19746 0.88806 0.34388 0.0
N958 N 0.1547 0.84982 0.40415 0.0
N959 N 0.26707 0.88873 0.29842 0.0
C960 C 0.18381 0.86201 0.38751 0.0
C961 C 0.24134 0.8817 0.33343 0.0
N962 N 0.18911 0.82696 0.46506 0.0
N963 N 0.24138 0.92511 0.28524 0.0
H964 H 0.27857 0.87762 0.30804 0.0
H965 H 0.27597 0.90418 0.25608 0.0
H966 H 0.2315 0.93765 0.27336 0.0
H967 H 0.26372 0.93575 0.2736 0.0
H968 H 0.17021 0.82161 0.49524 0.0
H969 H 0.20043 0.81668 0.48465 0.0
H970 H 0.14245 0.82925 0.42828 0.0
H971 H 0.14203 0.85907 0.38763 0.0
C972 C 0.3821 0.16869 0.62986 0.0
C973 C 0.40478 0.1855 0.68224 0.0
C974 C 0.36593 0.17234 0.77848 0.0
C975 C 0.34347 0.15467 0.72681 0.0
N976 N 0.33157 0.13043 0.60815 0.0
N977 N 0.41768 0.19655 0.81164 0.0
C978 C 0.3521 0.15112 0.65408 0.0
C979 C 0.39641 0.18526 0.75809 0.0
N980 N 0.38882 0.17061 0.55601 0.0
N981 N 0.35819 0.17741 0.84706 0.0
H982 H 0.43989 0.20533 0.79964 0.0
H983 H 0.41319 0.19451 0.8684 0.0
H984 H 0.33647 0.16744 0.86496 0.0
H985 H 0.37306 0.19287 0.88419 0.0
H986 H 0.37303 0.16166 0.51424 0.0
H987 H 0.41007 0.18332 0.53585 0.0
H988 H 0.33658 0.1246 0.55712 0.0
H989 H 0.30995 0.11689 0.62497 0.0
C990 C 0.90398 0.20318 0.65263 0.0
C991 C 0.89378 0.18214 0.71155 0.0
C992 C 0.84937 0.18759 0.7182 0.0
C993 C 0.86124 0.21135 0.66671 0.0
N994 N 0.90322 0.24465 0.59431 0.0
N995 N 0.85906 0.16014 0.81149 0.0
C996 C 0.8895 0.21989 0.63647 0.0
C997 C 0.86711 0.17608 0.7473 0.0
N998 N 0.92677 0.20645 0.60945 0.0
N999 N 0.82052 0.17507 0.73774 0.0
H1000 H 0.87191 0.15253 0.83665 0.0
H1001 H 0.84147 0.1574 0.84401 0.0
H1002 H 0.80647 0.18176 0.71529 0.0
H1003 H 0.80985 0.156 0.76928 0.0
H1004 H 0.93324 0.21902 0.56117 0.0
H1005 H 0.93741 0.19441 0.61774 0.0
H1006 H 0.92499 0.25386 0.57751 0.0
H1007 H 0.89366 0.25738 0.58154 0.0
C1008 C 0.84672 0.70947 0.66882 0.0
C1009 C 0.87048 0.72134 0.72066 0.0
C1010 C 0.85965 0.67006 0.74019 0.0
C1011 C 0.84039 0.6595 0.67711 0.0
N1012 N 0.82219 0.6739 0.57085 0.0
N1013 N 0.90294 0.7111 0.79407 0.0
C1014 C 0.83579 0.68058 0.63846 0.0
C1015 C 0.87788 0.70108 0.75321 0.0
N1016 N 0.83325 0.7251 0.65137 0.0
N1017 N 0.85966 0.65067 0.79053 0.0
H1018 H 0.9178 0.7333 0.80138 0.0
H1019 H 0.91045 0.6973 0.81339 0.0
H1020 H 0.84498 0.62823 0.78754 0.0
H1021 H 0.87153 0.65732 0.84009 0.0
H1022 H 0.81466 0.71683 0.61765 0.0
H1023 H 0.83815 0.74423 0.67998 0.0
H1024 H 0.82037 0.68938 0.53852 0.0
H1025 H 0.8161 0.65424 0.54332 0.0
C1026 C 0.04143 0.50616 0.94694 0.0
C1027 C 0.06299 0.52356 1.00118 0.0
C1028 C 1.02143 0.51161 0.08787 0.0
C1029 C 1.00017 0.49097 0.03728 0.0
N1030 N 0.99444 0.46273 0.92571 0.0
N1031 N 0.07134 0.53296 0.13323 0.0
C1032 C 1.01155 0.48651 0.96895 0.0
C1033 C 0.0523 0.52322 0.07465 0.0
N1034 N 0.04865 0.50919 0.87338 0.0
N1035 N 1.01275 0.52194 0.14653 0.0
H1036 H 0.09345 0.53925 0.1276 0.0
H1037 H 0.06431 0.53113 0.18819 0.0
H1038 H 0.9911 0.51686 0.15445 0.0
H1039 H 1.02767 0.53859 0.18127 0.0
H1040 H 0.03308 0.49874 0.83159 0.0
H1041 H 0.06921 0.52472 0.85373 0.0
H1042 H 1.00242 0.4573 0.87879 0.0
H1043 H 0.97365 0.44659 0.94205 0.0
C1044 C 0.55087 0.55794 1.01799 0.0
C1045 C 0.51971 0.54186 1.00989 0.0
C1046 C 0.52129 0.49674 0.04687 0.0
C1047 C 0.55258 0.51251 0.05048 0.0
N1048 N 0.59721 0.55803 0.03156 0.0
N1049 N 0.47559 0.49503 1.01031 0.0
C1050 C 0.56728 0.5431 0.03383 0.0
C1051 C 0.50511 0.51098 1.02274 0.0
N1052 N 0.56488 0.58775 1.01197 0.0
N1053 N 0.50686 0.46797 0.06769 0.0
H1054 H 0.46307 0.50459 0.99509 0.0
H1055 H 0.46367 0.47226 1.01008 0.0
H1056 H 0.51774 0.45673 0.08312 0.0
H1057 H 0.48427 0.45564 0.07471 0.0
H1058 H 0.58678 0.60145 0.0259 0.0
H1059 H 0.55406 0.5991 0.99703 0.0
H1060 H 0.60958 0.57921 1.01102 0.0
H1061 H 0.60985 0.54856 0.04653 0.0
C1062 C 0.50265 0.03575 1.0219 0.0
C1063 C 0.53109 0.04858 0.05568 0.0
C1064 C 0.52817 0.99971 0.04372 0.0
C1065 C 0.49926 0.98659 1.01365 0.0
N1066 N 0.45724 0.99169 0.9862 0.0
N1067 N 0.56716 0.03967 0.11424 0.0
C1068 C 0.48608 1.00457 1.00638 0.0
C1069 C 0.54271 0.02957 0.07064 0.0
N1070 N 0.49168 0.05346 1.00172 0.0
N1071 N 0.54222 0.98372 0.04541 0.0
H1072 H 0.57761 0.06062 0.13746 0.0
H1073 H 0.57523 0.02643 0.13403 0.0
H1074 H 0.53234 0.96196 0.02777 0.0
H1075 H 0.56437 0.99268 0.05818 0.0
H1076 H 0.47315 0.04654 0.96852 0.0
H1077 H 0.50218 0.07572 1.01401 0.0
H1078 H 0.44501 1.00233 0.98834 0.0
H1079 H 0.44487 0.96954 0.97242 0.0
C1080 C 0.12686 0.11353 0.48615 0.0
C1081 C 0.14404 0.1396 0.44403 0.0
C1082 C 0.18649 0.14878 0.5265 0.0
C1083 C 0.16991 0.12158 0.56703 0.0
N1084 N 0.1253 0.07461 0.56317 0.0
N1085 N 0.1929 0.17658 0.41293 0.0
C1086 C 0.14033 0.1031 0.54052 0.0
C1087 C 0.17451 0.15547 0.46139 0.0
N1088 N 0.09725 0.09871 0.47567 0.0
N1089 N 0.21366 0.16958 0.55023 0.0
H1090 H 0.18544 0.18142 0.36423 0.0
H1091 H 0.21566 0.1866 0.41607 0.0
H1092 H 0.22553 0.16699 0.59239 0.0
H1093 H 0.224 0.19105 0.53064 0.0
H1094 H 0.08286 0.08166 0.50997 0.0
H1095 H 0.08698 0.10508 0.4361 0.0
H1096 H 0.10505 0.05936 0.54112 0.0
H1097 H 0.13457 0.06515 0.59643 0.0
C1098 C 0.92791 1.0122 0.59332 0.0
C1099 C 0.92527 0.03817 0.58719 0.0
C1100 C 0.89542 1.01483 0.47123 0.0
C1101 C 0.90117 0.99095 0.47275 0.0
N1102 N 0.92716 0.96996 0.53312 0.0
N1103 N 0.90991 0.06481 0.50457 0.0
C1104 C 0.91897 0.99087 0.5328 0.0
C1105 C 0.90986 0.03946 0.52196 0.0
N1106 N 0.93676 1.00623 0.65923 0.0
N1107 N 0.87571 1.01421 0.42081 0.0
H1108 H 0.92093 0.08418 0.53441 0.0
H1109 H 0.90237 0.06813 0.45394 0.0
H1110 H 0.86649 0.9984 0.37951 0.0
H1111 H 0.86681 0.02804 0.42355 0.0
H1112 H 0.93627 0.98654 0.66998 0.0
H1113 H 0.94102 0.01906 0.70662 0.0
H1114 H 0.94262 0.97023 0.56992 0.0
H1115 H 0.92031 0.95374 0.49231 0.0
C1116 C 0.06557 0.92986 0.55168 0.0
C1117 C 0.05664 0.9247 0.47481 0.0
C1118 C 1.00457 0.90032 0.52281 0.0
C1119 C 1.01344 0.90311 0.59955 0.0
N1120 N 0.05399 0.91762 0.68337 0.0
N1121 N 1.01591 0.90013 0.3908 0.0
C1122 C 0.04442 0.91735 0.61257 0.0
C1123 C 1.02563 0.90883 0.46181 0.0
N1124 N 0.09458 0.94772 0.56736 0.0
N1125 N 0.97564 0.89016 0.50746 0.0
H1126 H 1.03001 0.9055 0.3455 0.0
H1127 H 0.99415 0.88546 0.37748 0.0
H1128 H 0.95973 0.88365 0.54871 0.0
H1129 H 0.96779 0.89075 0.45468 0.0
H1130 H 0.10254 0.95552 0.62049 0.0
H1131 H 0.11056 0.95697 0.52627 0.0
H1132 H 0.07563 0.92398 0.69659 0.0
H1133 H 0.03979 0.90917 0.72853 0.0
C1134 C 0.83646 0.86073 0.65088 0.0
C1135 C 0.85241 0.84674 0.66943 0.0
C1136 C 0.84981 0.8294 0.54489 0.0
C1137 C 0.84014 0.84899 0.52216 0.0
N1138 N 0.80836 0.86791 0.55475 0.0
N1139 N 0.85102 0.80098 0.64877 0.0
C1140 C 0.82783 0.85948 0.57595 0.0
C1141 C 0.84977 0.82437 0.6216 0.0
N1142 N 0.8335 0.87813 0.70209 0.0
N1143 N 0.86168 0.8182 0.4964 0.0
H1144 H 0.85082 0.79741 0.70591 0.0
H1145 H 0.84898 0.7842 0.61405 0.0
H1146 H 0.86378 0.82252 0.43972 0.0
H1147 H 0.87157 0.80627 0.51419 0.0
H1148 H 0.82484 0.89167 0.68953 0.0
H1149 H 0.84092 0.87926 0.75662 0.0
H1150 H 0.79814 0.87519 0.59197 0.0
H1151 H 0.79971 0.86313 0.50121 0.0
C1152 C 0.22816 0.01992 0.43664 0.0
C1153 C 0.21716 0.03582 0.39752 0.0
C1154 C 0.24592 0.07714 0.47755 0.0
C1155 C 0.24237 0.05656 0.5331 0.0
N1156 N 0.24395 1.0128 0.55845 0.0
N1157 N 0.22437 0.08285 0.36392 0.0
C1158 C 0.23932 0.0297 0.5091 0.0
C1159 C 0.23024 0.06606 0.41063 0.0
N1160 N 0.22663 0.99551 0.40609 0.0
N1161 N 0.26369 0.10632 0.48896 0.0
H1162 H 0.21227 0.07399 0.31518 0.0
H1163 H 0.23057 0.10463 0.37508 0.0
H1164 H 0.27729 0.1141 0.53542 0.0
H1165 H 0.26752 0.12197 0.44844 0.0
H1166 H 0.23473 0.98329 0.43209 0.0
H1167 H 0.22023 0.98968 0.351 0.0
H1168 H 0.23931 0.99148 0.54727 0.0
H1169 H 0.25201 0.02066 0.61175 0.0
C1170 C 1.00975 0.18303 0.46458 0.0
C1171 C 0.9964 0.15526 0.49966 0.0
C1172 C 0.98289 0.13255 0.37859 0.0
C1173 C 1.00732 0.1573 0.35049 0.0
N1174 N 1.0276 0.20915 0.34652 0.0
N1175 N 0.97372 0.10249 0.48584 0.0
C1176 C 1.01435 0.18388 0.38635 0.0
C1177 C 0.9826 0.12934 0.45586 0.0
N1178 N 1.01918 0.20776 0.50629 0.0
N1179 N 0.96469 0.11045 0.33253 0.0
H1180 H 0.97633 0.09948 0.54192 0.0
H1181 H 0.96665 0.08383 0.45282 0.0
H1182 H 0.9672 0.11274 0.27484 0.0
H1183 H 0.94664 0.0914 0.35244 0.0
H1184 H 1.03019 0.22883 0.48446 0.0
H1185 H 1.01559 0.20674 0.5636 0.0
H1186 H 0.03381 0.22972 0.36862 0.0
H1187 H 0.03137 0.20863 0.28959 0.0
C1188 C 0.82531 0.50299 0.86205 0.0
C1189 C 0.79744 0.48592 0.82431 0.0
C1190 C 0.79025 0.44419 0.90913 0.0
C1191 C 0.81748 0.46175 0.94715 0.0
N1192 N 0.85484 0.51105 0.97337 0.0
N1193 N 0.75055 0.44154 0.83227 0.0
C1194 C 0.83303 0.49194 0.92713 0.0
C1195 C 0.77925 0.45682 0.85361 0.0
N1196 N 0.84584 0.52974 0.83546 0.0
N1197 N 0.77469 0.41507 0.92526 0.0
H1198 H 0.74103 0.45019 0.79709 0.0
H1199 H 0.73531 0.42175 0.85613 0.0
H1200 H 0.78055 0.40585 0.96858 0.0
H1201 H 0.75698 0.4 0.89359 0.0
H1202 H 0.86762 0.54023 0.85313 0.0
H1203 H 0.84286 0.54099 0.79235 0.0
H1204 H 0.86475 0.53373 0.96834 0.0
H1205 H 0.86032 0.50442 1.0225 0.0
C1206 C 0.58654 0.34439 0.93967 0.0
C1207 C 0.60057 0.3752 0.92416 0.0
C1208 C 0.5969 0.36158 0.78736 0.0
C1209 C 0.58139 0.3307 0.80268 0.0
N1210 N 0.56201 0.2933 0.89647 0.0
N1211 N 0.61923 0.41258 0.8302 0.0
C1212 C 0.57657 0.32251 0.87991 0.0
C1213 C 0.60577 0.38341 0.84697 0.0
N1214 N 0.58257 0.33582 1.01246 0.0
N1215 N 0.60325 0.37029 0.71492 0.0
H1216 H 0.62872 0.42897 0.87042 0.0
H1217 H 0.62067 0.42096 0.77711 0.0
H1218 H 0.59567 0.35575 0.67031 0.0
H1219 H 0.61703 0.39173 0.69799 0.0
H1220 H 0.57561 0.3146 0.03037 0.0
H1221 H 0.58741 0.35038 0.05654 0.0
H1222 H 0.55402 0.2847 0.94879 0.0
H1223 H 0.55725 0.27711 0.85665 0.0
C1224 C 0.70499 0.2532 0.93436 0.0
C1225 C 0.67537 0.23191 0.91513 0.0
C1226 C 0.694 0.23462 0.78385 0.0
C1227 C 0.72319 0.25703 0.80238 0.0
N1228 N 0.75322 0.2922 0.8947 0.0
N1229 N 0.64174 0.20759 0.8143 0.0
C1230 C 0.72759 0.26751 0.87758 0.0
C1231 C 0.67009 0.22413 0.83774 0.0
N1232 N 0.71228 0.25887 1.00778 0.0
N1233 N 0.68896 0.22266 0.71428 0.0
H1234 H 0.62391 0.20045 0.85017 0.0
H1235 H 0.63567 0.20351 0.75855 0.0
H1236 H 0.7049 0.2306 0.67285 0.0
H1237 H 0.66971 0.20382 0.69905 0.0
H1238 H 0.73381 0.2713 0.0265 0.0
H1239 H 0.69716 0.2489 0.05051 0.0
H1240 H 0.75726 0.30291 0.94577 0.0
H1241 H 0.76897 0.30392 0.85445 0.0
C1242 C 0.49477 0.15539 0.89589 0.0
C1243 C 0.5155 0.14694 0.91433 0.0
C1244 C 0.53694 0.15807 0.79566 0.0
C1245 C 0.52268 0.17482 0.78152 0.0
N1246 N 0.47714 0.17515 0.79938 0.0
N1247 N 0.53119 0.11528 0.86067 0.0
C1248 C 0.4976 0.16871 0.82533 0.0
C1249 C 0.52563 0.13777 0.85385 0.0
N1250 N 0.47533 0.15362 0.94836 0.0
N1251 N 0.56347 0.16469 0.76641 0.0
H1252 H 0.52557 0.10275 0.90906 0.0
H1253 H 0.53958 0.10868 0.81672 0.0
H1254 H 0.57744 0.18451 0.74092 0.0
H1255 H 0.57383 0.15274 0.77993 0.0
H1256 H 0.46124 0.16203 0.94134 0.0
H1257 H 0.47446 0.14414 1.00006 0.0
H1258 H 0.45794 0.16999 0.82787 0.0
H1259 H 0.47834 0.18292 0.74559 0.0
C1260 C 0.8521 0.31705 0.98627 0.0
C1261 C 0.868 0.3467 1.00588 0.0
C1262 C 0.88879 0.36064 0.88428 0.0
C1263 C 0.86715 0.33243 0.85891 0.0
N1264 N 0.84399 0.28141 0.89075 0.0
N1265 N 0.91661 0.38745 0.99291 0.0
C1266 C 0.85408 0.30953 0.91198 0.0
C1267 C 0.89243 0.36475 0.96181 0.0
N1268 N 0.8324 0.2975 0.0351 0.0
N1269 N 0.90329 0.38389 0.83769 0.0
H1270 H 0.9186 0.39038 0.05049 0.0
H1271 H 0.93533 0.40062 0.96191 0.0
H1272 H 0.90029 0.38278 0.78051 0.0
H1273 H 0.91704 0.40506 0.85752 0.0
H1274 H 0.81754 0.27586 1.02095 0.0
H1275 H 0.83079 0.30399 0.08907 0.0
H1276 H 0.83476 0.2638 0.92752 0.0
H1277 H 0.84949 0.27722 0.83847 0.0
C1278 C 0.682 0.54317 0.91368 0.0
C1279 C 0.69894 0.53715 0.96468 0.0
C1280 C 0.74169 0.5668 0.88989 0.0
C1281 C 0.72246 0.55826 0.82849 0.0
N1282 N 0.67774 0.55403 0.78387 0.0
N1283 N 0.7466 0.55241 1.01478 0.0
C1284 C 0.69382 0.55286 0.8418 0.0
C1285 C 0.72969 0.55322 0.95852 0.0
N1286 N 0.65499 0.53853 0.9331 0.0
N1287 N 0.77051 0.587 0.88173 0.0
H1288 H 0.73716 0.54189 0.06486 0.0
H1289 H 0.76921 0.56127 1.01033 0.0
H1290 H 0.77834 0.59833 0.83173 0.0
H1291 H 0.78524 0.59452 0.92609 0.0
H1292 H 0.64165 0.54256 0.89792 0.0
H1293 H 0.64752 0.53378 0.98763 0.0
H1294 H 0.65565 0.54787 0.78739 0.0
H1295 H 0.68727 0.56106 0.73148 0.0
C1296 C 0.47007 0.80086 0.26165 0.0
C1297 C 0.47809 0.77908 0.2455 0.0
C1298 C 0.46776 0.78425 0.11062 0.0
C1299 C 0.45809 0.80484 0.12707 0.0
N1300 N 0.44419 0.82678 0.22541 0.0
N1301 N 0.47619 0.74496 0.15389 0.0
C1302 C 0.45775 0.81145 0.2047 0.0
C1303 C 0.47451 0.76945 0.16965 0.0
N1304 N 0.47474 0.81217 0.33193 0.0
N1305 N 0.47207 0.77966 0.03812 0.0
H1306 H 0.47858 0.7326 0.19567 0.0
H1307 H 0.47134 0.7349 0.10185 0.0
H1308 H 0.46829 0.79017 0.99395 0.0
H1309 H 0.48214 0.76771 1.02226 0.0
H1310 H 0.4734 0.83068 0.34602 0.0
H1311 H 0.48181 0.80405 0.37533 0.0
H1312 H 0.44019 0.82973 0.28057 0.0
H1313 H 0.43402 0.83387 0.18761 0.0
C1314 C 0.25461 0.68394 0.25696 0.0
C1315 C 0.26941 0.71437 0.23757 0.0
C1316 C 0.26045 0.69822 0.10318 0.0
C1317 C 0.24655 0.66778 0.12256 0.0
N1318 N 0.23536 0.63273 0.22031 0.0
N1319 N 0.29019 0.74979 0.13945 0.0
C1320 C 0.24509 0.66113 0.20027 0.0
C1321 C 0.2733 0.72113 0.15975 0.0
N1322 N 0.24826 0.67654 0.3301 0.0
N1323 N 0.26022 0.70544 0.03036 0.0
H1324 H 0.29974 0.76676 0.17825 0.0
H1325 H 0.29692 0.75661 0.08514 0.0
H1326 H 0.25204 0.68991 0.98784 0.0
H1327 H 0.26627 0.7265 1.01239 0.0
H1328 H 0.23436 0.65528 0.34838 0.0
H1329 H 0.25531 0.69206 0.37266 0.0
H1330 H 0.23651 0.62624 0.27429 0.0
H1331 H 0.22856 0.61581 0.18146 0.0
C1332 C 0.32062 0.54624 0.15986 0.0
C1333 C 0.32803 0.5531 0.23742 0.0
C1334 C 0.38036 0.58507 0.19356 0.0
C1335 C 0.37315 0.57685 0.11687 0.0
N1336 N 0.33561 0.54546 0.03105 0.0
N1337 N 0.3677 0.57567 0.32545 0.0
C1338 C 0.34296 0.55653 0.10151 0.0
C1339 C 0.35866 0.57188 0.253 0.0
N1340 N 0.29176 0.53011 0.14075 0.0
N1341 N 0.4083 0.60629 0.21025 0.0
H1342 H 0.35332 0.56634 0.36991 0.0
H1343 H 0.3896 0.58566 0.34152 0.0
H1344 H 0.42475 0.61566 0.17033 0.0
H1345 H 0.41463 0.61638 0.26207 0.0
H1346 H 0.28404 0.52769 0.0864 0.0
H1347 H 0.27517 0.52064 0.17986 0.0
H1348 H 0.3153 0.52781 1.01665 0.0
H1349 H 0.35065 0.55249 0.98748 0.0
C1350 C 0.16133 0.50166 0.21724 0.0
C1351 C 0.18169 0.49195 0.2312 0.0
C1352 C 0.18541 0.48497 0.09926 0.0
C1353 C 0.17324 0.50318 0.08856 0.0
N1354 N 0.12899 0.50299 0.12286 0.0
N1355 N 0.19805 0.45898 0.19037 0.0
C1356 C 0.15339 0.50188 0.14274 0.0
C1357 C 0.18861 0.47808 0.17335 0.0
N1358 N 0.15187 0.51296 0.27186 0.0
N1359 N 0.19622 0.47735 0.03985 0.0
H1360 H 0.19701 0.45209 0.2451 0.0
H1361 H 0.2033 0.44784 0.15083 0.0
H1362 H 0.19362 0.48319 0.98599 0.0
H1363 H 0.20782 0.4661 0.04421 0.0
H1364 H 0.139 0.52251 0.26048 0.0
H1365 H 0.15817 0.51435 0.32722 0.0
H1366 H 0.1134 0.50127 0.16147 0.0
H1367 H 0.12365 0.50291 0.06683 0.0
C1368 C 0.55669 0.72344 0.1486 0.0
C1369 C 0.54475 0.70079 0.20245 0.0
C1370 C 0.53862 0.66721 0.1034 0.0
C1371 C 0.53482 0.68597 0.05471 0.0
N1372 N 0.55148 0.7356 1.02135 0.0
N1373 N 0.52606 0.6489 0.22798 0.0
C1374 C 0.54918 0.71579 0.07323 0.0
C1375 C 0.53723 0.67195 0.17998 0.0
N1376 N 0.57484 0.75149 0.17012 0.0
N1377 N 0.53979 0.64363 0.07669 0.0
H1378 H 0.52247 0.65061 0.28406 0.0
H1379 H 0.51817 0.62741 0.20984 0.0
H1380 H 0.54066 0.64053 1.01959 0.0
H1381 H 0.54309 0.62958 0.11124 0.0
H1382 H 0.58479 0.76891 0.13295 0.0
H1383 H 0.58281 0.75571 0.22431 0.0
H1384 H 0.55881 0.75754 0.03366 0.0
H1385 H 0.54484 0.72908 0.96646 0.0
C1386 C 0.3098 0.84983 0.14823 0.0
C1387 C 0.33007 0.86386 0.20649 0.0
C1388 C 0.36816 0.88806 0.11481 0.0
C1389 C 0.35176 0.86289 0.06997 0.0
N1390 N 0.30425 0.82663 0.02793 0.0
N1391 N 0.37164 0.91005 0.23705 0.0
C1392 C 0.32117 0.84697 0.07958 0.0
C1393 C 0.357 0.88827 0.18651 0.0
N1394 N 0.28062 0.83837 0.16051 0.0
N1395 N 0.39446 0.90994 0.09047 0.0
H1396 H 0.36222 0.90947 0.28868 0.0
H1397 H 0.392 0.9284 0.22749 0.0
H1398 H 0.40132 0.91023 0.03597 0.0
H1399 H 0.40824 0.92837 0.12179 0.0
H1400 H 0.26491 0.82866 0.11871 0.0
H1401 H 0.27297 0.8409 0.21208 0.0
H1402 H 0.28201 0.81193 0.0356 0.0
H1403 H 0.31339 0.82447 0.97835 0.0
loop_
_geom_bond_atom_site_label_1
_geom_bond_atom_site_label_2
_geom_bond_distance
_geom_bond_site_symmetry_2
_ccdc_geom_bond_type
Co0 N4 2.148 . S
Co0 N10 2.128 . S
Co0 N20 2.194 . S
Co0 O25 2.351 . S
Co0 O26 2.155 . S
Co0 O27 2.096 . S
C1 N4 1.301 . S
C1 N5 1.328 . S
C1 H6 0.930 . S
C2 C3 1.333 . S
C2 N4 1.317 . S
C2 H7 0.930 . S
C3 C2 1.333 . S
C3 N5 1.350 . S
C3 H29 0.931 1_455 S
N4 Co0 2.148 . S
N4 C1 1.301 . S
N4 C2 1.317 . S
N5 C1 1.328 . S
N5 C3 1.350 . S
H6 C1 0.930 . S
H7 C2 0.930 . S
C8 O9 1.224 . S
C8 O27 1.247 . S
O9 C8 1.224 . S
N10 Co0 2.128 . S
N10 C11 1.355 . S
N10 C13 1.311 . S
C11 N10 1.355 . S
C11 C12 1.363 . S
C11 H23 0.929 . S
C12 C11 1.363 . S
C12 N14 1.375 . S
C12 H30 0.931 . S
C13 N10 1.311 . S
C13 N14 1.347 . S
C13 H24 0.929 . S
N14 C12 1.375 . S
N14 C13 1.347 . S
C15 C18 1.365 . S
C15 N20 1.328 . S
C15 H21 0.929 . S
C16 C17 1.362 . S
C16 C19 1.378 . S
C16 H31 0.929 . S
C17 C16 1.362 . S
C17 C18 1.366 . S
C18 C15 1.365 . S
C18 C17 1.366 . S
C18 H32 0.930 . S
C19 C16 1.378 . S
C19 N20 1.315 . S
C19 H22 0.930 . S
N20 Co0 2.194 . S
N20 C15 1.328 . S
N20 C19 1.315 . S
H21 C15 0.929 . S
H22 C19 0.930 . S
H23 C11 0.929 . S
H24 C13 0.929 . S
O25 Co0 2.351 . S
O25 C28 1.244 . S
O26 Co0 2.155 . S
O26 C28 1.240 . S
O27 Co0 2.096 . S
O27 C8 1.247 . S
C28 O25 1.244 . S
C28 O26 1.240 . S
H29 C3 0.931 1_655 S
H30 C12 0.931 . S
H31 C16 0.929 . S
H32 C18 0.930 . S
Co33 N37 2.148 . S
Co33 N43 2.128 . S
Co33 N53 2.194 . S
Co33 O58 2.351 . S
Co33 O59 2.155 . S
Co33 O60 2.096 . S
C34 N37 1.301 . S
C34 N38 1.328 . S
C34 H39 0.930 . S
C35 C36 1.333 . S
C35 N37 1.317 . S
C35 H40 0.930 . S
C36 C35 1.333 . S
C36 N38 1.350 . S
C36 H62 0.931 . S
N37 Co33 2.148 . S
N37 C34 1.301 . S
N37 C35 1.317 . S
N38 C34 1.328 . S
N38 C36 1.350 . S
H39 C34 0.930 . S
H40 C35 0.930 . S
C41 O42 1.224 . S
C41 O60 1.247 . S
O42 C41 1.224 . S
N43 Co33 2.128 . S
N43 C44 1.355 . S
N43 C46 1.311 . S
C44 N43 1.355 . S
C44 C45 1.363 . S
C44 H56 0.929 . S
C45 C44 1.363 . S
C45 N47 1.375 . S
C45 H63 0.931 . S
C46 N43 1.311 . S
C46 N47 1.347 . S
C46 H57 0.929 . S
N47 C45 1.375 . S
N47 C46 1.347 . S
C48 C51 1.365 . S
C48 N53 1.328 . S
C48 H54 0.929 . S
C49 C50 1.362 . S
C49 C52 1.378 . S
C49 H64 0.929 . S
C50 C49 1.362 . S
C50 C51 1.366 . S
C51 C48 1.365 . S
C51 C50 1.366 . S
C51 H65 0.930 . S
C52 C49 1.378 . S
C52 N53 1.315 . S
C52 H55 0.930 . S
N53 Co33 2.194 . S
N53 C48 1.328 . S
N53 C52 1.315 . S
H54 C48 0.929 . S
H55 C52 0.930 . S
H56 C44 0.929 . S
H57 C46 0.929 . S
O58 Co33 2.351 . S
O58 C61 1.244 . S
O59 Co33 2.155 . S
O59 C61 1.240 . S
O60 Co33 2.096 . S
O60 C41 1.247 . S
C61 O58 1.244 . S
C61 O59 1.240 . S
H62 C36 0.931 . S
H63 C45 0.931 . S
H64 C49 0.929 . S
H65 C51 0.930 . S
Co66 N70 2.148 . S
Co66 N76 2.128 . S
Co66 N86 2.194 . S
Co66 O91 2.351 . S
Co66 O92 2.155 . S
Co66 O93 2.096 . S
C67 N70 1.301 . S
C67 N71 1.328 . S
C67 H72 0.930 . S
C68 C69 1.333 . S
C68 N70 1.317 . S
C68 H73 0.930 . S
C69 C68 1.333 . S
C69 N71 1.350 . S
C69 H95 0.931 1_565 S
N70 Co66 2.148 . S
N70 C67 1.301 . S
N70 C68 1.317 . S
N71 C67 1.328 . S
N71 C69 1.350 . S
H72 C67 0.930 . S
H73 C68 0.930 . S
C74 O75 1.224 . S
C74 O93 1.247 . S
O75 C74 1.224 . S
N76 Co66 2.128 . S
N76 C77 1.355 . S
N76 C79 1.311 . S
C77 N76 1.355 . S
C77 C78 1.363 . S
C77 H89 0.929 . S
C78 C77 1.363 . S
C78 N80 1.375 . S
C78 H96 0.931 . S
C79 N76 1.311 . S
C79 N80 1.347 . S
C79 H90 0.929 . S
N80 C78 1.375 . S
N80 C79 1.347 . S
C81 C84 1.365 . S
C81 N86 1.328 . S
C81 H87 0.929 . S
C82 C83 1.362 . S
C82 C85 1.378 . S
C82 H97 0.929 . S
C83 C82 1.362 . S
C83 C84 1.366 . S
C84 C81 1.365 . S
C84 C83 1.366 . S
C84 H98 0.930 . S
C85 C82 1.378 . S
C85 N86 1.315 . S
C85 H88 0.930 . S
N86 Co66 2.194 . S
N86 C81 1.328 . S
N86 C85 1.315 . S
H87 C81 0.929 . S
H88 C85 0.930 . S
H89 C77 0.929 . S
H90 C79 0.929 . S
O91 Co66 2.351 . S
O91 C94 1.244 . S
O92 Co66 2.155 . S
O92 C94 1.240 . S
O93 Co66 2.096 . S
O93 C74 1.247 . S
C94 O91 1.244 . S
C94 O92 1.240 . S
H95 C69 0.931 1_545 S
H96 C78 0.931 . S
H97 C82 0.929 . S
H98 C84 0.930 . S
Co99 N103 2.148 . S
Co99 N109 2.128 . S
Co99 N119 2.194 . S
Co99 O124 2.351 . S
Co99 O125 2.155 . S
Co99 O126 2.096 . S
C100 N103 1.301 . S
C100 N104 1.328 . S
C100 H105 0.930 . S
C101 C102 1.333 . S
C101 N103 1.317 . S
C101 H106 0.930 . S
C102 C101 1.333 . S
C102 N104 1.350 . S
C102 H128 0.931 1_545 S
N103 Co99 2.148 . S
N103 C100 1.301 . S
N103 C101 1.317 . S
N104 C100 1.328 . S
N104 C102 1.350 . S
H105 C100 0.930 . S
H106 C101 0.930 . S
C107 O108 1.224 . S
C107 O126 1.247 . S
O108 C107 1.224 . S
N109 Co99 2.128 . S
N109 C110 1.355 . S
N109 C112 1.311 . S
C110 N109 1.355 . S
C110 C111 1.363 . S
C110 H122 0.929 . S
C111 C110 1.363 . S
C111 N113 1.375 . S
C111 H129 0.931 . S
C112 N109 1.311 . S
C112 N113 1.347 . S
C112 H123 0.929 . S
N113 C111 1.375 . S
N113 C112 1.347 . S
C114 C117 1.365 . S
C114 N119 1.328 . S
C114 H120 0.929 . S
C115 C116 1.362 . S
C115 C118 1.378 . S
C115 H130 0.929 . S
C116 C115 1.362 . S
C116 C117 1.366 . S
C117 C114 1.365 . S
C117 C116 1.366 . S
C117 H131 0.930 . S
C118 C115 1.378 . S
C118 N119 1.315 . S
C118 H121 0.930 . S
N119 Co99 2.194 . S
N119 C114 1.328 . S
N119 C118 1.315 . S
H120 C114 0.929 . S
H121 C118 0.930 . S
H122 C110 0.929 . S
H123 C112 0.929 . S
O124 Co99 2.351 . S
O124 C127 1.244 . S
O125 Co99 2.155 . S
O125 C127 1.240 . S
O126 Co99 2.096 . S
O126 C107 1.247 . S
C127 O124 1.244 . S
C127 O125 1.240 . S
H128 C102 0.931 1_565 S
H129 C111 0.931 . S
H130 C115 0.929 . S
H131 C117 0.930 . S
Co132 N136 2.148 . S
Co132 N142 2.128 . S
Co132 N152 2.194 . S
Co132 O157 2.351 . S
Co132 O158 2.155 . S
Co132 O159 2.096 . S
C133 N136 1.301 . S
C133 N137 1.328 . S
C133 H138 0.930 . S
C134 C135 1.333 . S
C134 N136 1.317 . S
C134 H139 0.930 . S
C135 C134 1.333 . S
C135 N137 1.350 . S
C135 H161 0.931 1_655 S
N136 Co132 2.148 . S
N136 C133 1.301 . S
N136 C134 1.317 . S
N137 C133 1.328 . S
N137 C135 1.350 . S
H138 C133 0.930 . S
H139 C134 0.930 . S
C140 O141 1.224 . S
C140 O159 1.247 . S
O141 C140 1.224 . S
N142 Co132 2.128 . S
N142 C143 1.355 . S
N142 C145 1.311 . S
C143 N142 1.355 . S
C143 C144 1.363 . S
C143 H155 0.929 . S
C144 C143 1.363 . S
C144 N146 1.375 . S
C144 H162 0.931 . S
C145 N142 1.311 . S
C145 N146 1.347 . S
C145 H156 0.929 . S
N146 C144 1.375 . S
N146 C145 1.347 . S
C147 C150 1.365 . S
C147 N152 1.328 . S
C147 H153 0.929 . S
C148 C149 1.362 . S
C148 C151 1.378 . S
C148 H163 0.929 . S
C149 C148 1.362 . S
C149 C150 1.366 . S
C150 C147 1.365 . S
C150 C149 1.366 . S
C150 H164 0.930 . S
C151 C148 1.378 . S
C151 N152 1.315 . S
C151 H154 0.930 . S
N152 Co132 2.194 . S
N152 C147 1.328 . S
N152 C151 1.315 . S
H153 C147 0.929 . S
H154 C151 0.930 . S
H155 C143 0.929 . S
H156 C145 0.929 . S
O157 Co132 2.351 . S
O157 C160 1.244 . S
O158 Co132 2.155 . S
O158 C160 1.240 . S
O159 Co132 2.096 . S
O159 C140 1.247 . S
C160 O157 1.244 . S
C160 O158 1.240 . S
H161 C135 0.931 1_455 S
H162 C144 0.931 . S
H163 C148 0.929 . S
H164 C150 0.930 . S
Co165 N169 2.148 . S
Co165 N175 2.128 . S
Co165 N185 2.194 . S
Co165 O190 2.351 . S
Co165 O191 2.155 . S
Co165 O192 2.096 . S
C166 N169 1.301 . S
C166 N170 1.328 . S
C166 H171 0.930 . S
C167 C168 1.333 . S
C167 N169 1.317 . S
C167 H172 0.930 . S
C168 C167 1.333 . S
C168 N170 1.350 . S
C168 H194 0.931 . S
N169 Co165 2.148 . S
N169 C166 1.301 . S
N169 C167 1.317 . S
N170 C166 1.328 . S
N170 C168 1.350 . S
H171 C166 0.930 . S
H172 C167 0.930 . S
C173 O174 1.224 . S
C173 O192 1.247 . S
O174 C173 1.224 . S
N175 Co165 2.128 . S
N175 C176 1.355 . S
N175 C178 1.311 . S
C176 N175 1.355 . S
C176 C177 1.363 . S
C176 H188 0.929 . S
C177 C176 1.363 . S
C177 N179 1.375 . S
C177 H195 0.931 . S
C178 N175 1.311 . S
C178 N179 1.347 . S
C178 H189 0.929 . S
N179 C177 1.375 . S
N179 C178 1.347 . S
C180 C183 1.365 . S
C180 N185 1.328 . S
C180 H186 0.929 . S
C181 C182 1.362 . S
C181 C184 1.378 . S
C181 H196 0.929 . S
C182 C181 1.362 . S
C182 C183 1.366 . S
C183 C180 1.365 . S
C183 C182 1.366 . S
C183 H197 0.930 . S
C184 C181 1.378 . S
C184 N185 1.315 . S
C184 H187 0.930 . S
N185 Co165 2.194 . S
N185 C180 1.328 . S
N185 C184 1.315 . S
H186 C180 0.929 . S
H187 C184 0.930 . S
H188 C176 0.929 . S
H189 C178 0.929 . S
O190 Co165 2.351 . S
O190 C193 1.244 . S
O191 Co165 2.155 . S
O191 C193 1.240 . S
O192 Co165 2.096 . S
O192 C173 1.247 . S
C193 O190 1.244 . S
C193 O191 1.240 . S
H194 C168 0.931 . S
H195 C177 0.931 . S
H196 C181 0.929 . S
H197 C183 0.930 . S
Co198 N202 2.148 . S
Co198 N208 2.128 . S
Co198 N218 2.194 . S
Co198 O223 2.351 . S
Co198 O224 2.155 . S
Co198 O225 2.096 . S
C199 N202 1.301 . S
C199 N203 1.328 . S
C199 H204 0.930 . S
C200 C201 1.333 . S
C200 N202 1.317 . S
C200 H205 0.930 . S
C201 C200 1.333 . S
C201 N203 1.350 . S
C201 H227 0.931 . S
N202 Co198 2.148 . S
N202 C199 1.301 . S
N202 C200 1.317 . S
N203 C199 1.328 . S
N203 C201 1.350 . S
H204 C199 0.930 . S
H205 C200 0.930 . S
C206 O207 1.224 . S
C206 O225 1.247 . S
O207 C206 1.224 . S
N208 Co198 2.128 . S
N208 C209 1.355 . S
N208 C211 1.311 . S
C209 N208 1.355 . S
C209 C210 1.363 . S
C209 H221 0.929 . S
C210 C209 1.363 . S
C210 N212 1.375 . S
C210 H228 0.931 . S
C211 N208 1.311 . S
C211 N212 1.347 . S
C211 H222 0.929 . S
N212 C210 1.375 . S
N212 C211 1.347 . S
C213 C216 1.365 . S
C213 N218 1.328 . S
C213 H219 0.929 . S
C214 C215 1.362 . S
C214 C217 1.378 . S
C214 H229 0.929 . S
C215 C214 1.362 . S
C215 C216 1.366 . S
C216 C213 1.365 . S
C216 C215 1.366 . S
C216 H230 0.930 . S
C217 C214 1.378 . S
C217 N218 1.315 . S
C217 H220 0.930 . S
N218 Co198 2.194 . S
N218 C213 1.328 . S
N218 C217 1.315 . S
H219 C213 0.929 . S
H220 C217 0.930 . S
H221 C209 0.929 . S
H222 C211 0.929 . S
O223 Co198 2.351 . S
O223 C226 1.244 . S
O224 Co198 2.155 . S
O224 C226 1.240 . S
O225 Co198 2.096 . S
O225 C206 1.247 . S
C226 O223 1.244 . S
C226 O224 1.240 . S
H227 C201 0.931 . S
H228 C210 0.931 . S
H229 C214 0.929 . S
H230 C216 0.930 . S
Co231 N235 2.148 . S
Co231 N241 2.128 . S
Co231 N251 2.194 . S
Co231 O256 2.351 . S
Co231 O257 2.155 . S
Co231 O258 2.096 . S
C232 N235 1.301 . S
C232 N236 1.328 . S
C232 H237 0.930 . S
C233 C234 1.333 . S
C233 N235 1.317 . S
C233 H238 0.930 . S
C234 C233 1.333 . S
C234 N236 1.350 . S
C234 H260 0.931 . S
N235 Co231 2.148 . S
N235 C232 1.301 . S
N235 C233 1.317 . S
N236 C232 1.328 . S
N236 C234 1.350 . S
H237 C232 0.930 . S
H238 C233 0.930 . S
C239 O240 1.224 . S
C239 O258 1.247 . S
O240 C239 1.224 . S
N241 Co231 2.128 . S
N241 C242 1.355 . S
N241 C244 1.311 . S
C242 N241 1.355 . S
C242 C243 1.363 . S
C242 H254 0.929 . S
C243 C242 1.363 . S
C243 N245 1.375 . S
C243 H261 0.931 . S
C244 N241 1.311 . S
C244 N245 1.347 . S
C244 H255 0.929 . S
N245 C243 1.375 . S
N245 C244 1.347 . S
C246 C249 1.365 . S
C246 N251 1.328 . S
C246 H252 0.929 . S
C247 C248 1.362 . S
C247 C250 1.378 . S
C247 H262 0.929 . S
C248 C247 1.362 . S
C248 C249 1.366 . S
C249 C246 1.365 . S
C249 C248 1.366 . S
C249 H263 0.930 . S
C250 C247 1.378 . S
C250 N251 1.315 . S
C250 H253 0.930 . S
N251 Co231 2.194 . S
N251 C246 1.328 . S
N251 C250 1.315 . S
H252 C246 0.929 . S
H253 C250 0.930 . S
H254 C242 0.929 . S
H255 C244 0.929 . S
O256 Co231 2.351 . S
O256 C259 1.244 . S
O257 Co231 2.155 . S
O257 C259 1.240 . S
O258 Co231 2.096 . S
O258 C239 1.247 . S
C259 O256 1.244 . S
C259 O257 1.240 . S
H260 C234 0.931 . S
H261 C243 0.931 . S
H262 C247 0.929 . S
H263 C249 0.930 . S
Co264 N268 2.148 . S
Co264 N274 2.128 . S
Co264 N284 2.194 . S
Co264 O289 2.351 . S
Co264 O290 2.155 . S
Co264 O291 2.096 . S
C265 N268 1.301 . S
C265 N269 1.328 . S
C265 H270 0.930 . S
C266 C267 1.333 . S
C266 N268 1.317 . S
C266 H271 0.930 . S
C267 C266 1.333 . S
C267 N269 1.350 . S
C267 H293 0.931 . S
N268 Co264 2.148 . S
N268 C265 1.301 . S
N268 C266 1.317 . S
N269 C265 1.328 . S
N269 C267 1.350 . S
H270 C265 0.930 . S
H271 C266 0.930 . S
C272 O273 1.224 . S
C272 O291 1.247 . S
O273 C272 1.224 . S
N274 Co264 2.128 . S
N274 C275 1.355 . S
N274 C277 1.311 . S
C275 N274 1.355 . S
C275 C276 1.363 . S
C275 H287 0.929 . S
C276 C275 1.363 . S
C276 N278 1.375 . S
C276 H294 0.931 . S
C277 N274 1.311 . S
C277 N278 1.347 . S
C277 H288 0.929 . S
N278 C276 1.375 . S
N278 C277 1.347 . S
C279 C282 1.365 . S
C279 N284 1.328 . S
C279 H285 0.929 . S
C280 C281 1.362 . S
C280 C283 1.378 . S
C280 H295 0.929 . S
C281 C280 1.362 . S
C281 C282 1.366 . S
C282 C279 1.365 . S
C282 C281 1.366 . S
C282 H296 0.930 . S
C283 C280 1.378 . S
C283 N284 1.315 . S
C283 H286 0.930 . S
N284 Co264 2.194 . S
N284 C279 1.328 . S
N284 C283 1.315 . S
H285 C279 0.929 . S
H286 C283 0.930 . S
H287 C275 0.929 . S
H288 C277 0.929 . S
O289 Co264 2.351 . S
O289 C292 1.244 . S
O290 Co264 2.155 . S
O290 C292 1.240 . S
O291 Co264 2.096 . S
O291 C272 1.247 . S
C292 O289 1.244 . S
C292 O290 1.240 . S
H293 C267 0.931 . S
H294 C276 0.931 . S
H295 C280 0.929 . S
H296 C282 0.930 . S
Co297 N301 2.155 . S
Co297 N307 2.128 . S
Co297 N317 2.194 . S
Co297 O322 2.351 1_554 S
Co297 O323 2.155 . S
Co297 O324 2.096 . S
C298 N301 1.290 1_556 S
C298 N302 1.328 . S
C298 H303 0.930 . S
C299 C300 1.333 1_554 S
C299 N301 1.320 . S
C299 H304 0.930 . S
C300 C299 1.333 1_556 S
C300 N302 1.350 . S
C300 H326 0.931 . S
N301 Co297 2.155 . S
N301 C298 1.290 1_554 S
N301 C299 1.320 . S
N302 C298 1.328 . S
N302 C300 1.350 . S
H303 C298 0.930 . S
H304 C299 0.930 . S
C305 O306 1.224 . S
C305 O324 1.247 . S
O306 C305 1.224 . S
N307 Co297 2.128 . S
N307 C308 1.355 . S
N307 C310 1.311 . S
C308 N307 1.355 . S
C308 C309 1.363 . S
C308 H320 0.929 . S
C309 C308 1.363 . S
C309 N311 1.375 . S
C309 H327 0.931 . S
C310 N307 1.311 . S
C310 N311 1.347 . S
C310 H321 0.929 . S
N311 C309 1.375 . S
N311 C310 1.347 . S
C312 C315 1.365 . S
C312 N317 1.328 . S
C312 H318 0.929 1_554 S
C313 C314 1.362 . S
C313 C316 1.378 . S
C313 H328 0.929 . S
C314 C313 1.362 . S
C314 C315 1.366 . S
C315 C312 1.365 . S
C315 C314 1.366 . S
C315 H329 0.930 1_554 S
C316 C313 1.378 . S
C316 N317 1.315 . S
C316 H319 0.930 . S
N317 Co297 2.194 . S
N317 C312 1.328 . S
N317 C316 1.315 . S
H318 C312 0.929 1_556 S
H319 C316 0.930 . S
H320 C308 0.929 . S
H321 C310 0.929 . S
O322 Co297 2.351 1_556 S
O322 C325 1.244 . S
O323 Co297 2.155 . S
O323 C325 1.240 1_554 S
O324 Co297 2.096 . S
O324 C305 1.247 . S
C325 O322 1.244 . S
C325 O323 1.240 1_556 S
H326 C300 0.931 . S
H327 C309 0.931 . S
H328 C313 0.929 . S
H329 C315 0.930 1_556 S
Co330 N334 2.155 . S
Co330 N340 2.128 . S
Co330 N350 2.194 . S
Co330 O355 2.351 1_554 S
Co330 O356 2.155 . S
Co330 O357 2.096 . S
C331 N334 1.291 1_556 S
C331 N335 1.328 . S
C331 H336 0.930 . S
C332 C333 1.333 1_554 S
C332 N334 1.320 . S
C332 H337 0.930 . S
C333 C332 1.333 1_556 S
C333 N335 1.350 . S
C333 H359 0.931 . S
N334 Co330 2.155 . S
N334 C331 1.291 1_554 S
N334 C332 1.320 . S
N335 C331 1.328 . S
N335 C333 1.350 . S
H336 C331 0.930 . S
H337 C332 0.930 . S
C338 O339 1.224 . S
C338 O357 1.247 . S
O339 C338 1.224 . S
N340 Co330 2.128 . S
N340 C341 1.355 . S
N340 C343 1.311 . S
C341 N340 1.355 . S
C341 C342 1.363 . S
C341 H353 0.929 . S
C342 C341 1.363 . S
C342 N344 1.375 . S
C342 H360 0.931 . S
C343 N340 1.311 . S
C343 N344 1.347 . S
C343 H354 0.929 . S
N344 C342 1.375 . S
N344 C343 1.347 . S
C345 C348 1.365 . S
C345 N350 1.328 . S
C345 H351 0.929 1_554 S
C346 C347 1.362 . S
C346 C349 1.378 . S
C346 H361 0.929 . S
C347 C346 1.362 . S
C347 C348 1.366 . S
C348 C345 1.365 . S
C348 C347 1.366 . S
C348 H362 0.930 1_554 S
C349 C346 1.378 . S
C349 N350 1.315 . S
C349 H352 0.930 . S
N350 Co330 2.194 . S
N350 C345 1.328 . S
N350 C349 1.315 . S
H351 C345 0.929 1_556 S
H352 C349 0.930 . S
H353 C341 0.929 . S
H354 C343 0.929 . S
O355 Co330 2.351 1_556 S
O355 C358 1.244 . S
O356 Co330 2.155 . S
O356 C358 1.240 1_554 S
O357 Co330 2.096 . S
O357 C338 1.247 . S
C358 O355 1.244 . S
C358 O356 1.240 1_556 S
H359 C333 0.931 . S
H360 C342 0.931 . S
H361 C346 0.929 . S
H362 C348 0.930 1_556 S
Co363 N367 2.155 . S
Co363 N373 2.128 . S
Co363 N383 2.194 . S
Co363 O388 2.351 1_554 S
Co363 O389 2.155 . S
Co363 O390 2.096 . S
C364 N367 1.291 1_556 S
C364 N368 1.328 . S
C364 H369 0.930 . S
C365 C366 1.333 1_554 S
C365 N367 1.320 . S
C365 H370 0.930 . S
C366 C365 1.333 1_556 S
C366 N368 1.350 . S
C366 H392 0.931 . S
N367 Co363 2.155 . S
N367 C364 1.291 1_554 S
N367 C365 1.320 . S
N368 C364 1.328 . S
N368 C366 1.350 . S
H369 C364 0.930 . S
H370 C365 0.930 . S
C371 O372 1.224 . S
C371 O390 1.247 . S
O372 C371 1.224 . S
N373 Co363 2.128 . S
N373 C374 1.355 . S
N373 C376 1.311 . S
C374 N373 1.355 . S
C374 C375 1.363 . S
C374 H386 0.929 . S
C375 C374 1.363 . S
C375 N377 1.375 . S
C375 H393 0.931 . S
C376 N373 1.311 . S
C376 N377 1.347 . S
C376 H387 0.929 . S
N377 C375 1.375 . S
N377 C376 1.347 . S
C378 C381 1.365 . S
C378 N383 1.328 . S
C378 H384 0.929 1_554 S
C379 C380 1.362 . S
C379 C382 1.378 . S
C379 H394 0.929 . S
C380 C379 1.362 . S
C380 C381 1.366 . S
C381 C378 1.365 . S
C381 C380 1.366 . S
C381 H395 0.930 1_554 S
C382 C379 1.378 . S
C382 N383 1.315 . S
C382 H385 0.930 . S
N383 Co363 2.194 . S
N383 C378 1.328 . S
N383 C382 1.315 . S
H384 C378 0.929 1_556 S
H385 C382 0.930 . S
H386 C374 0.929 . S
H387 C376 0.929 . S
O388 Co363 2.351 1_556 S
O388 C391 1.244 . S
O389 Co363 2.155 . S
O389 C391 1.240 1_554 S
O390 Co363 2.096 . S
O390 C371 1.247 . S
C391 O388 1.244 . S
C391 O389 1.240 1_556 S
H392 C366 0.931 . S
H393 C375 0.931 . S
H394 C379 0.929 . S
H395 C381 0.930 1_556 S
Co396 N400 2.155 . S
Co396 N406 2.128 . S
Co396 N416 2.194 . S
Co396 O421 2.351 1_556 S
Co396 O422 2.155 . S
Co396 O423 2.096 . S
C397 N400 1.290 1_554 S
C397 N401 1.328 . S
C397 H402 0.930 . S
C398 C399 1.333 1_556 S
C398 N400 1.320 . S
C398 H403 0.930 . S
C399 C398 1.333 1_554 S
C399 N401 1.350 . S
C399 H425 0.931 . S
N400 Co396 2.155 . S
N400 C397 1.290 1_556 S
N400 C398 1.320 . S
N401 C397 1.328 . S
N401 C399 1.350 . S
H402 C397 0.930 . S
H403 C398 0.930 . S
C404 O405 1.224 . S
C404 O423 1.247 . S
O405 C404 1.224 . S
N406 Co396 2.128 . S
N406 C407 1.355 . S
N406 C409 1.311 . S
C407 N406 1.355 . S
C407 C408 1.363 . S
C407 H419 0.929 . S
C408 C407 1.363 . S
C408 N410 1.375 . S
C408 H426 0.931 . S
C409 N406 1.311 . S
C409 N410 1.347 . S
C409 H420 0.929 . S
N410 C408 1.375 . S
N410 C409 1.347 . S
C411 C414 1.365 . S
C411 N416 1.328 . S
C411 H417 0.929 1_556 S
C412 C413 1.362 . S
C412 C415 1.378 . S
C412 H427 0.929 . S
C413 C412 1.362 . S
C413 C414 1.366 . S
C414 C411 1.365 . S
C414 C413 1.366 . S
C414 H428 0.930 1_556 S
C415 C412 1.378 . S
C415 N416 1.315 . S
C415 H418 0.930 . S
N416 Co396 2.194 . S
N416 C411 1.328 . S
N416 C415 1.315 . S
H417 C411 0.929 1_554 S
H418 C415 0.930 . S
H419 C407 0.929 . S
H420 C409 0.929 . S
O421 Co396 2.351 1_554 S
O421 C424 1.244 . S
O422 Co396 2.155 . S
O422 C424 1.240 1_556 S
O423 Co396 2.096 . S
O423 C404 1.247 . S
C424 O421 1.244 . S
C424 O422 1.240 1_554 S
H425 C399 0.931 . S
H426 C408 0.931 . S
H427 C412 0.929 . S
H428 C414 0.930 1_554 S
Co429 N433 2.155 . S
Co429 N439 2.128 . S
Co429 N449 2.194 . S
Co429 O454 2.351 1_556 S
Co429 O455 2.155 . S
Co429 O456 2.096 . S
C430 N433 1.291 1_554 S
C430 N434 1.328 . S
C430 H435 0.930 . S
C431 C432 1.333 1_556 S
C431 N433 1.320 . S
C431 H436 0.930 . S
C432 C431 1.333 1_554 S
C432 N434 1.350 . S
C432 H458 0.931 . S
N433 Co429 2.155 . S
N433 C430 1.291 1_556 S
N433 C431 1.320 . S
N434 C430 1.328 . S
N434 C432 1.350 . S
H435 C430 0.930 . S
H436 C431 0.930 . S
C437 O438 1.224 . S
C437 O456 1.247 . S
O438 C437 1.224 . S
N439 Co429 2.128 . S
N439 C440 1.355 . S
N439 C442 1.311 . S
C440 N439 1.355 . S
C440 C441 1.363 . S
C440 H452 0.929 . S
C441 C440 1.363 . S
C441 N443 1.375 . S
C441 H459 0.931 . S
C442 N439 1.311 . S
C442 N443 1.347 . S
C442 H453 0.929 . S
N443 C441 1.375 . S
N443 C442 1.347 . S
C444 C447 1.365 . S
C444 N449 1.328 . S
C444 H450 0.929 1_556 S
C445 C446 1.362 . S
C445 C448 1.378 . S
C445 H460 0.929 . S
C446 C445 1.362 . S
C446 C447 1.366 . S
C447 C444 1.365 . S
C447 C446 1.366 . S
C447 H461 0.930 1_556 S
C448 C445 1.378 . S
C448 N449 1.315 . S
C448 H451 0.930 . S
N449 Co429 2.194 . S
N449 C444 1.328 . S
N449 C448 1.315 . S
H450 C444 0.929 1_554 S
H451 C448 0.930 . S
H452 C440 0.929 . S
H453 C442 0.929 . S
O454 Co429 2.351 1_554 S
O454 C457 1.244 . S
O455 Co429 2.155 . S
O455 C457 1.240 1_556 S
O456 Co429 2.096 . S
O456 C437 1.247 . S
C457 O454 1.244 . S
C457 O455 1.240 1_554 S
H458 C432 0.931 . S
H459 C441 0.931 . S
H460 C445 0.929 . S
H461 C447 0.930 1_554 S
Co462 N466 2.155 . S
Co462 N472 2.128 . S
Co462 N482 2.194 . S
Co462 O487 2.351 1_556 S
Co462 O488 2.155 . S
Co462 O489 2.096 . S
C463 N466 1.291 1_554 S
C463 N467 1.328 . S
C463 H468 0.930 . S
C464 C465 1.333 1_556 S
C464 N466 1.320 . S
C464 H469 0.930 . S
C465 C464 1.333 1_554 S
C465 N467 1.350 . S
C465 H491 0.931 . S
N466 Co462 2.155 . S
N466 C463 1.291 1_556 S
N466 C464 1.320 . S
N467 C463 1.328 . S
N467 C465 1.350 . S
H468 C463 0.930 . S
H469 C464 0.930 . S
C470 O471 1.224 . S
C470 O489 1.247 . S
O471 C470 1.224 . S
N472 Co462 2.128 . S
N472 C473 1.355 . S
N472 C475 1.311 . S
C473 N472 1.355 . S
C473 C474 1.363 . S
C473 H485 0.929 . S
C474 C473 1.363 . S
C474 N476 1.375 . S
C474 H492 0.931 . S
C475 N472 1.311 . S
C475 N476 1.347 . S
C475 H486 0.929 . S
N476 C474 1.375 . S
N476 C475 1.347 . S
C477 C480 1.365 . S
C477 N482 1.328 . S
C477 H483 0.929 1_556 S
C478 C479 1.362 . S
C478 C481 1.378 . S
C478 H493 0.929 . S
C479 C478 1.362 . S
C479 C480 1.366 . S
C480 C477 1.365 . S
C480 C479 1.366 . S
C480 H494 0.930 1_556 S
C481 C478 1.378 . S
C481 N482 1.315 . S
C481 H484 0.930 . S
N482 Co462 2.194 . S
N482 C477 1.328 . S
N482 C481 1.315 . S
H483 C477 0.929 1_554 S
H484 C481 0.930 . S
H485 C473 0.929 . S
H486 C475 0.929 . S
O487 Co462 2.351 1_554 S
O487 C490 1.244 . S
O488 Co462 2.155 . S
O488 C490 1.240 1_556 S
O489 Co462 2.096 . S
O489 C470 1.247 . S
C490 O487 1.244 . S
C490 O488 1.240 1_554 S
H491 C465 0.931 . S
H492 C474 0.931 . S
H493 C478 0.929 . S
H494 C480 0.930 1_554 S
Co495 N499 2.148 . S
Co495 N505 2.128 . S
Co495 N515 2.194 . S
Co495 O520 2.351 . S
Co495 O521 2.155 . S
Co495 O522 2.096 . S
C496 N499 1.301 . S
C496 N500 1.328 . S
C496 H501 0.930 . S
C497 C498 1.333 . S
C497 N499 1.317 . S
C497 H502 0.930 . S
C498 C497 1.333 . S
C498 N500 1.350 . S
C498 H524 0.931 . S
N499 Co495 2.148 . S
N499 C496 1.301 . S
N499 C497 1.317 . S
N500 C496 1.328 . S
N500 C498 1.350 . S
H501 C496 0.930 . S
H502 C497 0.930 . S
C503 O504 1.224 . S
C503 O522 1.247 . S
O504 C503 1.224 . S
N505 Co495 2.128 . S
N505 C506 1.355 . S
N505 C508 1.311 . S
C506 N505 1.355 . S
C506 C507 1.363 . S
C506 H518 0.929 . S
C507 C506 1.363 . S
C507 N509 1.375 . S
C507 H525 0.931 . S
C508 N505 1.311 . S
C508 N509 1.347 . S
C508 H519 0.929 . S
N509 C507 1.375 . S
N509 C508 1.347 . S
C510 C513 1.365 . S
C510 N515 1.328 . S
C510 H516 0.929 . S
C511 C512 1.362 . S
C511 C514 1.378 . S
C511 H526 0.929 . S
C512 C511 1.362 . S
C512 C513 1.366 . S
C513 C510 1.365 . S
C513 C512 1.366 . S
C513 H527 0.930 . S
C514 C511 1.378 . S
C514 N515 1.315 . S
C514 H517 0.930 . S
N515 Co495 2.194 . S
N515 C510 1.328 . S
N515 C514 1.315 . S
H516 C510 0.929 . S
H517 C514 0.930 . S
H518 C506 0.929 . S
H519 C508 0.929 . S
O520 Co495 2.351 . S
O520 C523 1.244 . S
O521 Co495 2.155 . S
O521 C523 1.240 . S
O522 Co495 2.096 . S
O522 C503 1.247 . S
C523 O520 1.244 . S
C523 O521 1.240 . S
H524 C498 0.931 . S
H525 C507 0.931 . S
H526 C511 0.929 . S
H527 C513 0.930 . S
Co528 N532 2.148 . S
Co528 N538 2.128 . S
Co528 N548 2.194 . S
Co528 O553 2.351 . S
Co528 O554 2.155 . S
Co528 O555 2.096 . S
C529 N532 1.301 . S
C529 N533 1.328 . S
C529 H534 0.930 . S
C530 C531 1.333 . S
C530 N532 1.317 . S
C530 H535 0.930 . S
C531 C530 1.333 . S
C531 N533 1.350 . S
C531 H557 0.931 . S
N532 Co528 2.148 . S
N532 C529 1.301 . S
N532 C530 1.317 . S
N533 C529 1.328 . S
N533 C531 1.350 . S
H534 C529 0.930 . S
H535 C530 0.930 . S
C536 O537 1.224 . S
C536 O555 1.247 . S
O537 C536 1.224 . S
N538 Co528 2.128 . S
N538 C539 1.355 . S
N538 C541 1.311 . S
C539 N538 1.355 . S
C539 C540 1.363 . S
C539 H551 0.929 . S
C540 C539 1.363 . S
C540 N542 1.375 . S
C540 H558 0.931 . S
C541 N538 1.311 . S
C541 N542 1.347 . S
C541 H552 0.929 . S
N542 C540 1.375 . S
N542 C541 1.347 . S
C543 C546 1.365 . S
C543 N548 1.328 . S
C543 H549 0.929 . S
C544 C545 1.362 . S
C544 C547 1.378 . S
C544 H559 0.929 . S
C545 C544 1.362 . S
C545 C546 1.366 . S
C546 C543 1.365 . S
C546 C545 1.366 . S
C546 H560 0.930 . S
C547 C544 1.378 . S
C547 N548 1.315 . S
C547 H550 0.930 . S
N548 Co528 2.194 . S
N548 C543 1.328 . S
N548 C547 1.315 . S
H549 C543 0.929 . S
H550 C547 0.930 . S
H551 C539 0.929 . S
H552 C541 0.929 . S
O553 Co528 2.351 . S
O553 C556 1.244 . S
O554 Co528 2.155 . S
O554 C556 1.240 . S
O555 Co528 2.096 . S
O555 C536 1.247 . S
C556 O553 1.244 . S
C556 O554 1.240 . S
H557 C531 0.931 . S
H558 C540 0.931 . S
H559 C544 0.929 . S
H560 C546 0.930 . S
Co561 N565 2.148 . S
Co561 N571 2.128 . S
Co561 N581 2.194 . S
Co561 O586 2.351 . S
Co561 O587 2.155 . S
Co561 O588 2.096 . S
C562 N565 1.301 . S
C562 N566 1.328 . S
C562 H567 0.930 . S
C563 C564 1.333 . S
C563 N565 1.317 . S
C563 H568 0.930 . S
C564 C563 1.333 . S
C564 N566 1.350 . S
C564 H590 0.931 . S
N565 Co561 2.148 . S
N565 C562 1.301 . S
N565 C563 1.317 . S
N566 C562 1.328 . S
N566 C564 1.350 . S
H567 C562 0.930 . S
H568 C563 0.930 . S
C569 O570 1.224 . S
C569 O588 1.247 . S
O570 C569 1.224 . S
N571 Co561 2.128 . S
N571 C572 1.355 . S
N571 C574 1.311 . S
C572 N571 1.355 . S
C572 C573 1.363 . S
C572 H584 0.929 . S
C573 C572 1.363 . S
C573 N575 1.375 . S
C573 H591 0.931 . S
C574 N571 1.311 . S
C574 N575 1.347 . S
C574 H585 0.929 . S
N575 C573 1.375 . S
N575 C574 1.347 . S
C576 C579 1.365 . S
C576 N581 1.328 . S
C576 H582 0.929 . S
C577 C578 1.362 . S
C577 C580 1.378 . S
C577 H592 0.929 . S
C578 C577 1.362 . S
C578 C579 1.366 . S
C579 C576 1.365 . S
C579 C578 1.366 . S
C579 H593 0.930 . S
C580 C577 1.378 . S
C580 N581 1.315 . S
C580 H583 0.930 . S
N581 Co561 2.194 . S
N581 C576 1.328 . S
N581 C580 1.315 . S
H582 C576 0.929 . S
H583 C580 0.930 . S
H584 C572 0.929 . S
H585 C574 0.929 . S
O586 Co561 2.351 . S
O586 C589 1.244 . S
O587 Co561 2.155 . S
O587 C589 1.240 . S
O588 Co561 2.096 . S
O588 C569 1.247 . S
C589 O586 1.244 . S
C589 O587 1.240 . S
H590 C564 0.931 . S
H591 C573 0.931 . S
H592 C577 0.929 . S
H593 C579 0.930 . S
C594 C595 1.363 . S
C594 C600 1.379 . S
C594 N602 1.356 . S
C595 C594 1.363 . S
C595 C601 1.363 1_556 S
C596 C597 1.363 . S
C596 C601 1.379 . S
C596 N603 1.356 . S
C597 C596 1.363 . S
C597 C600 1.363 1_554 S
N598 C600 1.356 . S
N598 H610 0.984 . S
N598 H611 0.985 1_556 S
N599 C601 1.356 . S
N599 H604 0.984 1_554 S
N599 H605 0.985 . S
C600 C594 1.379 . S
C600 C597 1.363 1_556 S
C600 N598 1.356 . S
C601 C595 1.363 1_554 S
C601 C596 1.379 . S
C601 N599 1.356 . S
N602 C594 1.356 . S
N602 H608 0.984 . S
N602 H609 0.984 . S
N603 C596 1.356 . S
N603 H606 0.984 . S
N603 H607 0.985 . S
H604 N599 0.984 1_556 S
H605 N599 0.985 . S
H606 N603 0.984 . S
H607 N603 0.985 . S
H608 N602 0.984 . S
H609 N602 0.984 . S
H610 N598 0.984 . S
H611 N598 0.985 1_554 S
C612 C613 1.363 1_554 S
C612 C618 1.354 1_545 S
C612 N620 1.356 . S
C613 C612 1.363 1_556 S
C613 C619 1.381 . S
C614 C615 1.363 1_556 S
C614 C619 1.354 1_565 S
C614 N621 1.356 . S
C615 C614 1.363 1_554 S
C615 C618 1.381 . S
N616 C618 1.370 . S
N616 H628 0.984 1_565 S
N616 H629 0.985 . S
N617 C619 1.370 . S
N617 H622 0.984 . S
N617 H623 0.985 1_545 S
C618 C612 1.354 1_565 S
C618 C615 1.381 . S
C618 N616 1.370 . S
C619 C613 1.381 . S
C619 C614 1.354 1_545 S
C619 N617 1.370 . S
N620 C612 1.356 . S
N620 H626 0.984 . S
N620 H627 0.984 1_554 S
N621 C614 1.356 . S
N621 H624 0.984 1_556 S
N621 H625 0.985 . S
H622 N617 0.984 . S
H623 N617 0.985 1_565 S
H624 N621 0.984 1_554 S
H625 N621 0.985 . S
H626 N620 0.984 . S
H627 N620 0.984 1_556 S
H628 N616 0.984 1_545 S
H629 N616 0.985 . S
C630 C631 1.363 1_556 S
C630 C636 1.379 1_455 S
C630 N638 1.356 . S
C631 C630 1.363 1_554 S
C631 C637 1.363 . S
C632 C633 1.363 1_554 S
C632 C637 1.379 1_655 S
C632 N639 1.356 . S
C633 C632 1.363 1_556 S
C633 C636 1.363 . S
N634 C636 1.356 . S
N634 H646 0.984 . S
N634 H647 0.985 . S
N635 C637 1.356 . S
N635 H640 0.984 . S
N635 H641 0.985 . S
C636 C630 1.379 1_655 S
C636 C633 1.363 . S
C636 N634 1.356 . S
C637 C631 1.363 . S
C637 C632 1.379 1_455 S
C637 N635 1.356 . S
N638 C630 1.356 . S
N638 H644 0.984 . S
N638 H645 0.984 1_556 S
N639 C632 1.356 . S
N639 H642 0.984 1_554 S
N639 H643 0.985 . S
H640 N635 0.984 . S
H641 N635 0.985 . S
H642 N639 0.984 1_556 S
H643 N639 0.985 . S
H644 N638 0.984 . S
H645 N638 0.984 1_554 S
H646 N634 0.984 . S
H647 N634 0.985 . S
C648 C649 1.363 . S
C648 C654 1.379 1_554 S
C648 N656 1.356 . S
C649 C648 1.363 . S
C649 C655 1.363 . S
C650 C651 1.363 . S
C650 C655 1.379 1_556 S
C650 N657 1.356 . S
C651 C650 1.363 . S
C651 C654 1.363 . S
N652 C654 1.356 . S
N652 H664 0.984 . S
N652 H665 0.985 . S
N653 C655 1.356 . S
N653 H658 0.984 . S
N653 H659 0.985 . S
C654 C648 1.379 1_556 S
C654 C651 1.363 . S
C654 N652 1.356 . S
C655 C649 1.363 . S
C655 C650 1.379 1_554 S
C655 N653 1.356 . S
N656 C648 1.356 . S
N656 H662 0.984 . S
N656 H663 0.984 . S
N657 C650 1.356 . S
N657 H660 0.984 . S
N657 H661 0.985 . S
H658 N653 0.984 . S
H659 N653 0.985 . S
H660 N657 0.984 . S
H661 N657 0.985 . S
H662 N656 0.984 . S
H663 N656 0.984 . S
H664 N652 0.984 . S
H665 N652 0.985 . S
C666 C667 1.363 1_554 S
C666 C672 1.379 . S
C666 N674 1.356 1_554 S
C667 C666 1.363 1_556 S
C667 C673 1.363 1_545 S
C668 C669 1.363 1_556 S
C668 C673 1.379 . S
C668 N675 1.356 1_556 S
C669 C668 1.363 1_554 S
C669 C672 1.363 1_565 S
N670 C672 1.356 . S
N670 H682 0.984 . S
N670 H683 0.985 1_545 S
N671 C673 1.356 . S
N671 H676 0.984 1_565 S
N671 H677 0.985 . S
C672 C666 1.379 . S
C672 C669 1.363 1_545 S
C672 N670 1.356 . S
C673 C667 1.363 1_565 S
C673 C668 1.379 . S
C673 N671 1.356 . S
N674 C666 1.356 1_556 S
N674 H680 0.984 1_556 S
N674 H681 0.984 . S
N675 C668 1.356 1_554 S
N675 H678 0.984 . S
N675 H679 0.985 1_554 S
H676 N671 0.984 1_545 S
H677 N671 0.985 . S
H678 N675 0.984 . S
H679 N675 0.985 1_556 S
H680 N674 0.984 1_554 S
H681 N674 0.984 . S
H682 N670 0.984 . S
H683 N670 0.985 1_565 S
C684 C685 1.363 1_554 S
C684 C690 1.379 . S
C684 N692 1.356 1_554 S
C685 C684 1.363 1_556 S
C685 C691 1.363 1_655 S
C686 C687 1.363 1_556 S
C686 C691 1.379 . S
C686 N693 1.356 1_556 S
C687 C686 1.363 1_554 S
C687 C690 1.363 1_455 S
N688 C690 1.356 . S
N688 H700 0.984 . S
N688 H701 0.985 1_655 S
N689 C691 1.356 . S
N689 H694 0.984 1_455 S
N689 H695 0.985 . S
C690 C684 1.379 . S
C690 C687 1.363 1_655 S
C690 N688 1.356 . S
C691 C685 1.363 1_455 S
C691 C686 1.379 . S
C691 N689 1.356 . S
N692 C684 1.356 1_556 S
N692 H698 0.984 1_556 S
N692 H699 0.984 . S
N693 C686 1.356 1_554 S
N693 H696 0.984 . S
N693 H697 0.985 1_554 S
H694 N689 0.984 1_655 S
H695 N689 0.985 . S
H696 N693 0.984 . S
H697 N693 0.985 1_556 S
H698 N692 0.984 1_554 S
H699 N692 0.984 . S
H700 N688 0.984 . S
H701 N688 0.985 1_455 S
C702 C703 1.363 . S
C702 C708 1.379 . S
C702 N710 1.356 . S
C703 C702 1.363 . S
C703 C709 1.363 . S
C704 C705 1.363 . S
C704 C709 1.379 . S
C704 N711 1.356 . S
C705 C704 1.363 . S
C705 C708 1.363 . S
N706 C708 1.356 . S
N706 H718 0.984 . S
N706 H719 0.985 . S
N707 C709 1.356 . S
N707 H712 0.984 . S
N707 H713 0.985 . S
C708 C702 1.379 . S
C708 C705 1.363 . S
C708 N706 1.356 . S
C709 C703 1.363 . S
C709 C704 1.379 . S
C709 N707 1.356 . S
N710 C702 1.356 . S
N710 H716 0.984 . S
N710 H717 0.984 . S
N711 C704 1.356 . S
N711 H714 0.984 . S
N711 H715 0.985 . S
H712 N707 0.984 . S
H713 N707 0.985 . S
H714 N711 0.984 . S
H715 N711 0.985 . S
H716 N710 0.984 . S
H717 N710 0.984 . S
H718 N706 0.984 . S
H719 N706 0.985 . S
C720 C721 1.363 . S
C720 C726 1.379 . S
C720 N728 1.356 . S
C721 C720 1.363 . S
C721 C727 1.363 . S
C722 C723 1.363 . S
C722 C727 1.379 . S
C722 N729 1.356 . S
C723 C722 1.363 . S
C723 C726 1.363 . S
N724 C726 1.356 . S
N724 H736 0.984 . S
N724 H737 0.985 . S
N725 C727 1.356 . S
N725 H730 0.984 . S
N725 H731 0.985 . S
C726 C720 1.379 . S
C726 C723 1.363 . S
C726 N724 1.356 . S
C727 C721 1.363 . S
C727 C722 1.379 . S
C727 N725 1.356 . S
N728 C720 1.356 . S
N728 H734 0.984 . S
N728 H735 0.984 . S
N729 C722 1.356 . S
N729 H732 0.984 . S
N729 H733 0.985 . S
H730 N725 0.984 . S
H731 N725 0.985 . S
H732 N729 0.984 . S
H733 N729 0.985 . S
H734 N728 0.984 . S
H735 N728 0.984 . S
H736 N724 0.984 . S
H737 N724 0.985 . S
C738 C739 1.363 . S
C738 C744 1.379 . S
C738 N746 1.356 . S
C739 C738 1.363 . S
C739 C745 1.363 . S
C740 C741 1.363 . S
C740 C745 1.379 . S
C740 N747 1.356 . S
C741 C740 1.363 . S
C741 C744 1.363 . S
N742 C744 1.356 . S
N742 H754 0.984 . S
N742 H755 0.985 . S
N743 C745 1.356 . S
N743 H748 0.984 . S
N743 H749 0.985 . S
C744 C738 1.379 . S
C744 C741 1.363 . S
C744 N742 1.356 . S
C745 C739 1.363 . S
C745 C740 1.379 . S
C745 N743 1.356 . S
N746 C738 1.356 . S
N746 H752 0.984 . S
N746 H753 0.984 . S
N747 C740 1.356 . S
N747 H750 0.984 . S
N747 H751 0.985 . S
H748 N743 0.984 . S
H749 N743 0.985 . S
H750 N747 0.984 . S
H751 N747 0.985 . S
H752 N746 0.984 . S
H753 N746 0.984 . S
H754 N742 0.984 . S
H755 N742 0.985 . S
C756 C757 1.363 . S
C756 C762 1.379 . S
C756 N764 1.356 . S
C757 C756 1.363 . S
C757 C763 1.363 . S
C758 C759 1.363 . S
C758 C763 1.379 . S
C758 N765 1.356 . S
C759 C758 1.363 . S
C759 C762 1.363 . S
N760 C762 1.356 . S
N760 H772 0.984 . S
N760 H773 0.985 . S
N761 C763 1.356 . S
N761 H766 0.984 . S
N761 H767 0.985 . S
C762 C756 1.379 . S
C762 C759 1.363 . S
C762 N760 1.356 . S
C763 C757 1.363 . S
C763 C758 1.379 . S
C763 N761 1.356 . S
N764 C756 1.356 . S
N764 H770 0.984 . S
N764 H771 0.984 . S
N765 C758 1.356 . S
N765 H768 0.984 . S
N765 H769 0.985 . S
H766 N761 0.984 . S
H767 N761 0.985 . S
H768 N765 0.984 . S
H769 N765 0.985 . S
H770 N764 0.984 . S
H771 N764 0.984 . S
H772 N760 0.984 . S
H773 N760 0.985 . S
C774 C775 1.363 . S
C774 C780 1.379 . S
C774 N782 1.356 . S
C775 C774 1.363 . S
C775 C781 1.363 . S
C776 C777 1.363 . S
C776 C781 1.379 . S
C776 N783 1.356 . S
C777 C776 1.363 . S
C777 C780 1.363 . S
N778 C780 1.356 . S
N778 H790 0.984 . S
N778 H791 0.985 . S
N779 C781 1.356 . S
N779 H784 0.984 . S
N779 H785 0.985 . S
C780 C774 1.379 . S
C780 C777 1.363 . S
C780 N778 1.356 . S
C781 C775 1.363 . S
C781 C776 1.379 . S
C781 N779 1.356 . S
N782 C774 1.356 . S
N782 H788 0.984 . S
N782 H789 0.984 . S
N783 C776 1.356 . S
N783 H786 0.984 . S
N783 H787 0.985 . S
H784 N779 0.984 . S
H785 N779 0.985 . S
H786 N783 0.984 . S
H787 N783 0.985 . S
H788 N782 0.984 . S
H789 N782 0.984 . S
H790 N778 0.984 . S
H791 N778 0.985 . S
C792 C793 1.363 . S
C792 C798 1.379 . S
C792 N800 1.356 . S
C793 C792 1.363 . S
C793 C799 1.363 . S
C794 C795 1.363 . S
C794 C799 1.379 . S
C794 N801 1.356 . S
C795 C794 1.363 . S
C795 C798 1.363 . S
N796 C798 1.356 . S
N796 H808 0.984 . S
N796 H809 0.985 . S
N797 C799 1.356 . S
N797 H802 0.984 . S
N797 H803 0.985 . S
C798 C792 1.379 . S
C798 C795 1.363 . S
C798 N796 1.356 . S
C799 C793 1.363 . S
C799 C794 1.379 . S
C799 N797 1.356 . S
N800 C792 1.356 . S
N800 H806 0.984 . S
N800 H807 0.984 . S
N801 C794 1.356 . S
N801 H804 0.984 . S
N801 H805 0.985 . S
H802 N797 0.984 . S
H803 N797 0.985 . S
H804 N801 0.984 . S
H805 N801 0.985 . S
H806 N800 0.984 . S
H807 N800 0.984 . S
H808 N796 0.984 . S
H809 N796 0.985 . S
C810 C811 1.363 . S
C810 C816 1.379 . S
C810 N818 1.356 . S
C811 C810 1.363 . S
C811 C817 1.363 . S
C812 C813 1.363 . S
C812 C817 1.379 . S
C812 N819 1.356 . S
C813 C812 1.363 . S
C813 C816 1.363 . S
N814 C816 1.356 . S
N814 H826 0.984 . S
N814 H827 0.985 . S
N815 C817 1.356 . S
N815 H820 0.984 . S
N815 H821 0.985 . S
C816 C810 1.379 . S
C816 C813 1.363 . S
C816 N814 1.356 . S
C817 C811 1.363 . S
C817 C812 1.379 . S
C817 N815 1.356 . S
N818 C810 1.356 . S
N818 H824 0.984 . S
N818 H825 0.984 . S
N819 C812 1.356 . S
N819 H822 0.984 . S
N819 H823 0.985 . S
H820 N815 0.984 . S
H821 N815 0.985 . S
H822 N819 0.984 . S
H823 N819 0.985 . S
H824 N818 0.984 . S
H825 N818 0.984 . S
H826 N814 0.984 . S
H827 N814 0.985 . S
C828 C829 1.363 . S
C828 C834 1.379 . S
C828 N836 1.356 . S
C829 C828 1.363 . S
C829 C835 1.363 . S
C830 C831 1.363 . S
C830 C835 1.379 . S
C830 N837 1.356 . S
C831 C830 1.363 . S
C831 C834 1.363 . S
N832 C834 1.356 . S
N832 H844 0.984 . S
N832 H845 0.985 . S
N833 C835 1.356 . S
N833 H838 0.984 . S
N833 H839 0.985 . S
C834 C828 1.379 . S
C834 C831 1.363 . S
C834 N832 1.356 . S
C835 C829 1.363 . S
C835 C830 1.379 . S
C835 N833 1.356 . S
N836 C828 1.356 . S
N836 H842 0.984 . S
N836 H843 0.984 . S
N837 C830 1.356 . S
N837 H840 0.984 . S
N837 H841 0.985 . S
H838 N833 0.984 . S
H839 N833 0.985 . S
H840 N837 0.984 . S
H841 N837 0.985 . S
H842 N836 0.984 . S
H843 N836 0.984 . S
H844 N832 0.984 . S
H845 N832 0.985 . S
C846 C847 1.363 . S
C846 C852 1.379 . S
C846 N854 1.356 . S
C847 C846 1.363 . S
C847 C853 1.363 . S
C848 C849 1.363 . S
C848 C853 1.379 . S
C848 N855 1.356 . S
C849 C848 1.363 . S
C849 C852 1.363 . S
N850 C852 1.356 . S
N850 H862 0.984 . S
N850 H863 0.985 . S
N851 C853 1.356 . S
N851 H856 0.984 . S
N851 H857 0.985 . S
C852 C846 1.379 . S
C852 C849 1.363 . S
C852 N850 1.356 . S
C853 C847 1.363 . S
C853 C848 1.379 . S
C853 N851 1.356 . S
N854 C846 1.356 . S
N854 H860 0.984 . S
N854 H861 0.984 . S
N855 C848 1.356 . S
N855 H858 0.984 . S
N855 H859 0.985 . S
H856 N851 0.984 . S
H857 N851 0.985 . S
H858 N855 0.984 . S
H859 N855 0.985 . S
H860 N854 0.984 . S
H861 N854 0.984 . S
H862 N850 0.984 . S
H863 N850 0.985 . S
C864 C865 1.363 . S
C864 C870 1.379 . S
C864 N872 1.356 . S
C865 C864 1.363 . S
C865 C871 1.363 . S
C866 C867 1.363 . S
C866 C871 1.379 . S
C866 N873 1.356 . S
C867 C866 1.363 . S
C867 C870 1.363 . S
N868 C870 1.356 . S
N868 H880 0.984 . S
N868 H881 0.985 . S
N869 C871 1.356 . S
N869 H874 0.984 . S
N869 H875 0.985 . S
C870 C864 1.379 . S
C870 C867 1.363 . S
C870 N868 1.356 . S
C871 C865 1.363 . S
C871 C866 1.379 . S
C871 N869 1.356 . S
N872 C864 1.356 . S
N872 H878 0.984 . S
N872 H879 0.984 . S
N873 C866 1.356 . S
N873 H876 0.984 . S
N873 H877 0.985 . S
H874 N869 0.984 . S
H875 N869 0.985 . S
H876 N873 0.984 . S
H877 N873 0.985 . S
H878 N872 0.984 . S
H879 N872 0.984 . S
H880 N868 0.984 . S
H881 N868 0.985 . S
C882 C883 1.363 . S
C882 C888 1.379 . S
C882 N890 1.356 . S
C883 C882 1.363 . S
C883 C889 1.363 . S
C884 C885 1.363 . S
C884 C889 1.379 . S
C884 N891 1.356 . S
C885 C884 1.363 . S
C885 C888 1.363 . S
N886 C888 1.356 . S
N886 H898 0.984 . S
N886 H899 0.985 . S
N887 C889 1.356 . S
N887 H892 0.984 . S
N887 H893 0.985 . S
C888 C882 1.379 . S
C888 C885 1.363 . S
C888 N886 1.356 . S
C889 C883 1.363 . S
C889 C884 1.379 . S
C889 N887 1.356 . S
N890 C882 1.356 . S
N890 H896 0.984 . S
N890 H897 0.984 . S
N891 C884 1.356 . S
N891 H894 0.984 . S
N891 H895 0.985 . S
H892 N887 0.984 . S
H893 N887 0.985 . S
H894 N891 0.984 . S
H895 N891 0.985 . S
H896 N890 0.984 . S
H897 N890 0.984 . S
H898 N886 0.984 . S
H899 N886 0.985 . S
C900 C901 1.363 . S
C900 C906 1.379 . S
C900 N908 1.356 . S
C901 C900 1.363 . S
C901 C907 1.363 . S
C902 C903 1.363 . S
C902 C907 1.379 . S
C902 N909 1.356 . S
C903 C902 1.363 . S
C903 C906 1.363 . S
N904 C906 1.356 . S
N904 H916 0.984 . S
N904 H917 0.985 . S
N905 C907 1.356 . S
N905 H910 0.984 . S
N905 H911 0.985 . S
C906 C900 1.379 . S
C906 C903 1.363 . S
C906 N904 1.356 . S
C907 C901 1.363 . S
C907 C902 1.379 . S
C907 N905 1.356 . S
N908 C900 1.356 . S
N908 H914 0.984 . S
N908 H915 0.984 . S
N909 C902 1.356 . S
N909 H912 0.984 . S
N909 H913 0.985 . S
H910 N905 0.984 . S
H911 N905 0.985 . S
H912 N909 0.984 . S
H913 N909 0.985 . S
H914 N908 0.984 . S
H915 N908 0.984 . S
H916 N904 0.984 . S
H917 N904 0.985 . S
C918 C919 1.363 . S
C918 C924 1.379 . S
C918 N926 1.356 . S
C919 C918 1.363 . S
C919 C925 1.363 . S
C920 C921 1.363 . S
C920 C925 1.379 . S
C920 N927 1.356 . S
C921 C920 1.363 . S
C921 C924 1.363 . S
N922 C924 1.356 . S
N922 H934 0.984 . S
N922 H935 0.985 . S
N923 C925 1.356 . S
N923 H928 0.984 . S
N923 H929 0.985 . S
C924 C918 1.379 . S
C924 C921 1.363 . S
C924 N922 1.356 . S
C925 C919 1.363 . S
C925 C920 1.379 . S
C925 N923 1.356 . S
N926 C918 1.356 . S
N926 H932 0.984 . S
N926 H933 0.984 . S
N927 C920 1.356 . S
N927 H930 0.984 . S
N927 H931 0.985 . S
H928 N923 0.984 . S
H929 N923 0.985 . S
H930 N927 0.984 . S
H931 N927 0.985 . S
H932 N926 0.984 . S
H933 N926 0.984 . S
H934 N922 0.984 . S
H935 N922 0.985 . S
C936 C937 1.363 . S
C936 C942 1.379 . S
C936 N944 1.356 . S
C937 C936 1.363 . S
C937 C943 1.363 . S
C938 C939 1.363 . S
C938 C943 1.379 . S
C938 N945 1.356 . S
C939 C938 1.363 . S
C939 C942 1.363 . S
N940 C942 1.356 . S
N940 H952 0.984 . S
N940 H953 0.985 . S
N941 C943 1.356 . S
N941 H946 0.984 . S
N941 H947 0.985 . S
C942 C936 1.379 . S
C942 C939 1.363 . S
C942 N940 1.356 . S
C943 C937 1.363 . S
C943 C938 1.379 . S
C943 N941 1.356 . S
N944 C936 1.356 . S
N944 H950 0.984 . S
N944 H951 0.984 . S
N945 C938 1.356 . S
N945 H948 0.984 . S
N945 H949 0.985 . S
H946 N941 0.984 . S
H947 N941 0.985 . S
H948 N945 0.984 . S
H949 N945 0.985 . S
H950 N944 0.984 . S
H951 N944 0.984 . S
H952 N940 0.984 . S
H953 N940 0.985 . S
C954 C955 1.363 . S
C954 C960 1.379 . S
C954 N962 1.356 . S
C955 C954 1.363 . S
C955 C961 1.363 . S
C956 C957 1.363 . S
C956 C961 1.379 . S
C956 N963 1.356 . S
C957 C956 1.363 . S
C957 C960 1.363 . S
N958 C960 1.356 . S
N958 H970 0.984 . S
N958 H971 0.985 . S
N959 C961 1.356 . S
N959 H964 0.984 . S
N959 H965 0.985 . S
C960 C954 1.379 . S
C960 C957 1.363 . S
C960 N958 1.356 . S
C961 C955 1.363 . S
C961 C956 1.379 . S
C961 N959 1.356 . S
N962 C954 1.356 . S
N962 H968 0.984 . S
N962 H969 0.984 . S
N963 C956 1.356 . S
N963 H966 0.984 . S
N963 H967 0.985 . S
H964 N959 0.984 . S
H965 N959 0.985 . S
H966 N963 0.984 . S
H967 N963 0.985 . S
H968 N962 0.984 . S
H969 N962 0.984 . S
H970 N958 0.984 . S
H971 N958 0.985 . S
C972 C973 1.363 . S
C972 C978 1.379 . S
C972 N980 1.356 . S
C973 C972 1.363 . S
C973 C979 1.363 . S
C974 C975 1.363 . S
C974 C979 1.379 . S
C974 N981 1.356 . S
C975 C974 1.363 . S
C975 C978 1.363 . S
N976 C978 1.356 . S
N976 H988 0.984 . S
N976 H989 0.985 . S
N977 C979 1.356 . S
N977 H982 0.984 . S
N977 H983 0.985 . S
C978 C972 1.379 . S
C978 C975 1.363 . S
C978 N976 1.356 . S
C979 C973 1.363 . S
C979 C974 1.379 . S
C979 N977 1.356 . S
N980 C972 1.356 . S
N980 H986 0.984 . S
N980 H987 0.984 . S
N981 C974 1.356 . S
N981 H984 0.984 . S
N981 H985 0.985 . S
H982 N977 0.984 . S
H983 N977 0.985 . S
H984 N981 0.984 . S
H985 N981 0.985 . S
H986 N980 0.984 . S
H987 N980 0.984 . S
H988 N976 0.984 . S
H989 N976 0.985 . S
C990 C991 1.363 . S
C990 C996 1.379 . S
C990 N998 1.356 . S
C991 C990 1.363 . S
C991 C997 1.363 . S
C992 C993 1.363 . S
C992 C997 1.379 . S
C992 N999 1.356 . S
C993 C992 1.363 . S
C993 C996 1.363 . S
N994 C996 1.356 . S
N994 H1006 0.984 . S
N994 H1007 0.985 . S
N995 C997 1.356 . S
N995 H1000 0.984 . S
N995 H1001 0.985 . S
C996 C990 1.379 . S
C996 C993 1.363 . S
C996 N994 1.356 . S
C997 C991 1.363 . S
C997 C992 1.379 . S
C997 N995 1.356 . S
N998 C990 1.356 . S
N998 H1004 0.984 . S
N998 H1005 0.984 . S
N999 C992 1.356 . S
N999 H1002 0.984 . S
N999 H1003 0.985 . S
H1000 N995 0.984 . S
H1001 N995 0.985 . S
H1002 N999 0.984 . S
H1003 N999 0.985 . S
H1004 N998 0.984 . S
H1005 N998 0.984 . S
H1006 N994 0.984 . S
H1007 N994 0.985 . S
C1008 C1009 1.363 . S
C1008 C1014 1.379 . S
C1008 N1016 1.356 . S
C1009 C1008 1.363 . S
C1009 C1015 1.363 . S
C1010 C1011 1.363 . S
C1010 C1015 1.379 . S
C1010 N1017 1.356 . S
C1011 C1010 1.363 . S
C1011 C1014 1.363 . S
N1012 C1014 1.356 . S
N1012 H1024 0.984 . S
N1012 H1025 0.985 . S
N1013 C1015 1.356 . S
N1013 H1018 0.984 . S
N1013 H1019 0.985 . S
C1014 C1008 1.379 . S
C1014 C1011 1.363 . S
C1014 N1012 1.356 . S
C1015 C1009 1.363 . S
C1015 C1010 1.379 . S
C1015 N1013 1.356 . S
N1016 C1008 1.356 . S
N1016 H1022 0.984 . S
N1016 H1023 0.984 . S
N1017 C1010 1.356 . S
N1017 H1020 0.984 . S
N1017 H1021 0.985 . S
H1018 N1013 0.984 . S
H1019 N1013 0.985 . S
H1020 N1017 0.984 . S
H1021 N1017 0.985 . S
H1022 N1016 0.984 . S
H1023 N1016 0.984 . S
H1024 N1012 0.984 . S
H1025 N1012 0.985 . S
C1026 C1027 1.363 . S
C1026 C1032 1.379 1_455 S
C1026 N1034 1.356 . S
C1027 C1026 1.363 . S
C1027 C1033 1.363 1_556 S
C1028 C1029 1.363 . S
C1028 C1033 1.379 1_655 S
C1028 N1035 1.356 . S
C1029 C1028 1.363 . S
C1029 C1032 1.363 1_554 S
N1030 C1032 1.356 . S
N1030 H1042 0.984 . S
N1030 H1043 0.985 . S
N1031 C1033 1.356 . S
N1031 H1036 0.984 . S
N1031 H1037 0.985 . S
C1032 C1026 1.379 1_655 S
C1032 C1029 1.363 1_556 S
C1032 N1030 1.356 . S
C1033 C1027 1.363 1_554 S
C1033 C1028 1.379 1_455 S
C1033 N1031 1.356 . S
N1034 C1026 1.356 . S
N1034 H1040 0.984 1_455 S
N1034 H1041 0.984 . S
N1035 C1028 1.356 . S
N1035 H1038 0.984 . S
N1035 H1039 0.985 1_655 S
H1036 N1031 0.984 . S
H1037 N1031 0.985 . S
H1038 N1035 0.984 . S
H1039 N1035 0.985 1_455 S
H1040 N1034 0.984 1_655 S
H1041 N1034 0.984 . S
H1042 N1030 0.984 . S
H1043 N1030 0.985 . S
C1044 C1045 1.363 . S
C1044 C1050 1.379 1_556 S
C1044 N1052 1.356 . S
C1045 C1044 1.363 . S
C1045 C1051 1.363 . S
C1046 C1047 1.363 . S
C1046 C1051 1.379 1_554 S
C1046 N1053 1.356 . S
C1047 C1046 1.363 . S
C1047 C1050 1.363 . S
N1048 C1050 1.356 . S
N1048 H1060 0.984 . S
N1048 H1061 0.985 . S
N1049 C1051 1.356 . S
N1049 H1054 0.984 . S
N1049 H1055 0.985 . S
C1050 C1044 1.379 1_554 S
C1050 C1047 1.363 . S
C1050 N1048 1.356 . S
C1051 C1045 1.363 . S
C1051 C1046 1.379 1_556 S
C1051 N1049 1.356 . S
N1052 C1044 1.356 . S
N1052 H1058 0.984 . S
N1052 H1059 0.984 . S
N1053 C1046 1.356 . S
N1053 H1056 0.984 . S
N1053 H1057 0.985 . S
H1054 N1049 0.984 . S
H1055 N1049 0.985 . S
H1056 N1053 0.984 . S
H1057 N1053 0.985 . S
H1058 N1052 0.984 . S
H1059 N1052 0.984 . S
H1060 N1048 0.984 . S
H1061 N1048 0.985 . S
C1062 C1063 1.363 1_556 S
C1062 C1068 1.379 1_545 S
C1062 N1070 1.356 . S
C1063 C1062 1.363 1_554 S
C1063 C1069 1.363 . S
C1064 C1065 1.363 1_554 S
C1064 C1069 1.379 1_565 S
C1064 N1071 1.356 . S
C1065 C1064 1.363 1_556 S
C1065 C1068 1.363 . S
N1066 C1068 1.356 . S
N1066 H1078 0.984 . S
N1066 H1079 0.985 . S
N1067 C1069 1.356 . S
N1067 H1072 0.984 . S
N1067 H1073 0.985 . S
C1068 C1062 1.379 1_565 S
C1068 C1065 1.363 . S
C1068 N1066 1.356 . S
C1069 C1063 1.363 . S
C1069 C1064 1.379 1_545 S
C1069 N1067 1.356 . S
N1070 C1062 1.356 . S
N1070 H1076 0.984 . S
N1070 H1077 0.984 1_556 S
N1071 C1064 1.356 . S
N1071 H1074 0.984 1_554 S
N1071 H1075 0.985 . S
H1072 N1067 0.984 . S
H1073 N1067 0.985 . S
H1074 N1071 0.984 1_556 S
H1075 N1071 0.985 . S
H1076 N1070 0.984 . S
H1077 N1070 0.984 1_554 S
H1078 N1066 0.984 . S
H1079 N1066 0.985 . S
C1080 C1081 1.363 . S
C1080 C1086 1.379 . S
C1080 N1088 1.356 . S
C1081 C1080 1.363 . S
C1081 C1087 1.363 . S
C1082 C1083 1.363 . S
C1082 C1087 1.379 . S
C1082 N1089 1.356 . S
C1083 C1082 1.363 . S
C1083 C1086 1.363 . S
N1084 C1086 1.356 . S
N1084 H1096 0.984 . S
N1084 H1097 0.985 . S
N1085 C1087 1.356 . S
N1085 H1090 0.984 . S
N1085 H1091 0.985 . S
C1086 C1080 1.379 . S
C1086 C1083 1.363 . S
C1086 N1084 1.356 . S
C1087 C1081 1.363 . S
C1087 C1082 1.379 . S
C1087 N1085 1.356 . S
N1088 C1080 1.356 . S
N1088 H1094 0.984 . S
N1088 H1095 0.984 . S
N1089 C1082 1.356 . S
N1089 H1092 0.984 . S
N1089 H1093 0.985 . S
H1090 N1085 0.984 . S
H1091 N1085 0.985 . S
H1092 N1089 0.984 . S
H1093 N1089 0.985 . S
H1094 N1088 0.984 . S
H1095 N1088 0.984 . S
H1096 N1084 0.984 . S
H1097 N1084 0.985 . S
C1098 C1099 1.363 1_565 S
C1098 C1104 1.379 . S
C1098 N1106 1.356 . S
C1099 C1098 1.363 1_545 S
C1099 C1105 1.363 . S
C1100 C1101 1.363 1_545 S
C1100 C1105 1.379 . S
C1100 N1107 1.356 . S
C1101 C1100 1.363 1_565 S
C1101 C1104 1.363 . S
N1102 C1104 1.356 . S
N1102 H1114 0.984 . S
N1102 H1115 0.985 . S
N1103 C1105 1.356 . S
N1103 H1108 0.984 . S
N1103 H1109 0.985 . S
C1104 C1098 1.379 . S
C1104 C1101 1.363 . S
C1104 N1102 1.356 . S
C1105 C1099 1.363 . S
C1105 C1100 1.379 . S
C1105 N1103 1.356 . S
N1106 C1098 1.356 . S
N1106 H1112 0.984 . S
N1106 H1113 0.984 1_565 S
N1107 C1100 1.356 . S
N1107 H1110 0.984 1_545 S
N1107 H1111 0.985 . S
H1108 N1103 0.984 . S
H1109 N1103 0.985 . S
H1110 N1107 0.984 1_565 S
H1111 N1107 0.985 . S
H1112 N1106 0.984 . S
H1113 N1106 0.984 1_545 S
H1114 N1102 0.984 . S
H1115 N1102 0.985 . S
C1116 C1117 1.363 . S
C1116 C1122 1.379 . S
C1116 N1124 1.356 . S
C1117 C1116 1.363 . S
C1117 C1123 1.363 1_455 S
C1118 C1119 1.363 . S
C1118 C1123 1.379 . S
C1118 N1125 1.356 . S
C1119 C1118 1.363 . S
C1119 C1122 1.363 1_655 S
N1120 C1122 1.356 . S
N1120 H1132 0.984 . S
N1120 H1133 0.985 1_455 S
N1121 C1123 1.356 . S
N1121 H1126 0.984 1_655 S
N1121 H1127 0.985 . S
C1122 C1116 1.379 . S
C1122 C1119 1.363 1_455 S
C1122 N1120 1.356 . S
C1123 C1117 1.363 1_655 S
C1123 C1118 1.379 . S
C1123 N1121 1.356 . S
N1124 C1116 1.356 . S
N1124 H1130 0.984 . S
N1124 H1131 0.984 . S
N1125 C1118 1.356 . S
N1125 H1128 0.984 . S
N1125 H1129 0.985 . S
H1126 N1121 0.984 1_455 S
H1127 N1121 0.985 . S
H1128 N1125 0.984 . S
H1129 N1125 0.985 . S
H1130 N1124 0.984 . S
H1131 N1124 0.984 . S
H1132 N1120 0.984 . S
H1133 N1120 0.985 1_655 S
C1134 C1135 1.363 . S
C1134 C1140 1.379 . S
C1134 N1142 1.356 . S
C1135 C1134 1.363 . S
C1135 C1141 1.363 . S
C1136 C1137 1.363 . S
C1136 C1141 1.379 . S
C1136 N1143 1.356 . S
C1137 C1136 1.363 . S
C1137 C1140 1.363 . S
N1138 C1140 1.356 . S
N1138 H1150 0.984 . S
N1138 H1151 0.985 . S
N1139 C1141 1.356 . S
N1139 H1144 0.984 . S
N1139 H1145 0.985 . S
C1140 C1134 1.379 . S
C1140 C1137 1.363 . S
C1140 N1138 1.356 . S
C1141 C1135 1.363 . S
C1141 C1136 1.379 . S
C1141 N1139 1.356 . S
N1142 C1134 1.356 . S
N1142 H1148 0.984 . S
N1142 H1149 0.984 . S
N1143 C1136 1.356 . S
N1143 H1146 0.984 . S
N1143 H1147 0.985 . S
H1144 N1139 0.984 . S
H1145 N1139 0.985 . S
H1146 N1143 0.984 . S
H1147 N1143 0.985 . S
H1148 N1142 0.984 . S
H1149 N1142 0.984 . S
H1150 N1138 0.984 . S
H1151 N1138 0.985 . S
C1152 C1153 1.363 . S
C1152 C1158 1.379 1_565 S
C1152 N1160 1.356 . S
C1153 C1152 1.363 . S
C1153 C1159 1.363 . S
C1154 C1155 1.363 . S
C1154 C1159 1.379 1_545 S
C1154 N1161 1.356 . S
C1155 C1154 1.363 . S
C1155 C1158 1.363 . S
N1156 C1158 1.356 . S
N1156 H1168 0.984 . S
N1156 H1169 0.985 . S
N1157 C1159 1.356 . S
N1157 H1162 0.984 . S
N1157 H1163 0.985 . S
C1158 C1152 1.379 1_545 S
C1158 C1155 1.363 . S
C1158 N1156 1.356 . S
C1159 C1153 1.363 . S
C1159 C1154 1.379 1_565 S
C1159 N1157 1.356 . S
N1160 C1152 1.356 . S
N1160 H1166 0.984 . S
N1160 H1167 0.984 . S
N1161 C1154 1.356 . S
N1161 H1164 0.984 . S
N1161 H1165 0.985 . S
H1162 N1157 0.984 . S
H1163 N1157 0.985 . S
H1164 N1161 0.984 . S
H1165 N1161 0.985 . S
H1166 N1160 0.984 . S
H1167 N1160 0.984 . S
H1168 N1156 0.984 . S
H1169 N1156 0.985 . S
C1170 C1171 1.363 . S
C1170 C1176 1.379 1_655 S
C1170 N1178 1.356 . S
C1171 C1170 1.363 . S
C1171 C1177 1.363 . S
C1172 C1173 1.363 . S
C1172 C1177 1.379 1_455 S
C1172 N1179 1.356 . S
C1173 C1172 1.363 . S
C1173 C1176 1.363 . S
N1174 C1176 1.356 . S
N1174 H1186 0.984 . S
N1174 H1187 0.985 . S
N1175 C1177 1.356 . S
N1175 H1180 0.984 . S
N1175 H1181 0.985 . S
C1176 C1170 1.379 1_455 S
C1176 C1173 1.363 . S
C1176 N1174 1.356 . S
C1177 C1171 1.363 . S
C1177 C1172 1.379 1_655 S
C1177 N1175 1.356 . S
N1178 C1170 1.356 . S
N1178 H1184 0.984 . S
N1178 H1185 0.984 . S
N1179 C1172 1.356 . S
N1179 H1182 0.984 . S
N1179 H1183 0.985 . S
H1180 N1175 0.984 . S
H1181 N1175 0.985 . S
H1182 N1179 0.984 . S
H1183 N1179 0.985 . S
H1184 N1178 0.984 . S
H1185 N1178 0.984 . S
H1186 N1174 0.984 . S
H1187 N1174 0.985 . S
C1188 C1189 1.363 . S
C1188 C1194 1.379 . S
C1188 N1196 1.356 . S
C1189 C1188 1.363 . S
C1189 C1195 1.363 . S
C1190 C1191 1.363 . S
C1190 C1195 1.379 . S
C1190 N1197 1.356 . S
C1191 C1190 1.363 . S
C1191 C1194 1.363 . S
N1192 C1194 1.356 . S
N1192 H1204 0.984 . S
N1192 H1205 0.985 . S
N1193 C1195 1.356 . S
N1193 H1198 0.984 . S
N1193 H1199 0.985 . S
C1194 C1188 1.379 . S
C1194 C1191 1.363 . S
C1194 N1192 1.356 . S
C1195 C1189 1.363 . S
C1195 C1190 1.379 . S
C1195 N1193 1.356 . S
N1196 C1188 1.356 . S
N1196 H1202 0.984 . S
N1196 H1203 0.984 . S
N1197 C1190 1.356 . S
N1197 H1200 0.984 . S
N1197 H1201 0.985 . S
H1198 N1193 0.984 . S
H1199 N1193 0.985 . S
H1200 N1197 0.984 . S
H1201 N1197 0.985 . S
H1202 N1196 0.984 . S
H1203 N1196 0.984 . S
H1204 N1192 0.984 . S
H1205 N1192 0.985 . S
C1206 C1207 1.363 . S
C1206 C1212 1.379 . S
C1206 N1214 1.356 . S
C1207 C1206 1.363 . S
C1207 C1213 1.363 . S
C1208 C1209 1.363 . S
C1208 C1213 1.379 . S
C1208 N1215 1.356 . S
C1209 C1208 1.363 . S
C1209 C1212 1.363 . S
N1210 C1212 1.356 . S
N1210 H1222 0.984 . S
N1210 H1223 0.985 . S
N1211 C1213 1.356 . S
N1211 H1216 0.984 . S
N1211 H1217 0.985 . S
C1212 C1206 1.379 . S
C1212 C1209 1.363 . S
C1212 N1210 1.356 . S
C1213 C1207 1.363 . S
C1213 C1208 1.379 . S
C1213 N1211 1.356 . S
N1214 C1206 1.356 . S
N1214 H1220 0.984 . S
N1214 H1221 0.989 . S
N1215 C1208 1.356 . S
N1215 H1218 0.984 . S
N1215 H1219 0.985 . S
H1216 N1211 0.984 . S
H1217 N1211 0.985 . S
H1218 N1215 0.984 . S
H1219 N1215 0.985 . S
H1220 N1214 0.984 . S
H1221 N1214 0.989 . S
H1222 N1210 0.984 . S
H1223 N1210 0.985 . S
C1224 C1225 1.363 . S
C1224 C1230 1.379 . S
C1224 N1232 1.356 . S
C1225 C1224 1.363 . S
C1225 C1231 1.363 . S
C1226 C1227 1.363 . S
C1226 C1231 1.379 . S
C1226 N1233 1.356 . S
C1227 C1226 1.363 . S
C1227 C1230 1.363 . S
N1228 C1230 1.356 . S
N1228 H1240 0.984 . S
N1228 H1241 0.985 . S
N1229 C1231 1.356 . S
N1229 H1234 0.984 . S
N1229 H1235 0.985 . S
C1230 C1224 1.379 . S
C1230 C1227 1.363 . S
C1230 N1228 1.356 . S
C1231 C1225 1.363 . S
C1231 C1226 1.379 . S
C1231 N1229 1.356 . S
N1232 C1224 1.356 . S
N1232 H1238 0.984 . S
N1232 H1239 0.984 . S
N1233 C1226 1.356 . S
N1233 H1236 0.984 . S
N1233 H1237 0.985 . S
H1234 N1229 0.984 . S
H1235 N1229 0.985 . S
H1236 N1233 0.984 . S
H1237 N1233 0.985 . S
H1238 N1232 0.984 . S
H1239 N1232 0.984 . S
H1240 N1228 0.984 . S
H1241 N1228 0.985 . S
C1242 C1243 1.363 . S
C1242 C1248 1.379 . S
C1242 N1250 1.356 . S
C1243 C1242 1.363 . S
C1243 C1249 1.363 . S
C1244 C1245 1.363 . S
C1244 C1249 1.379 . S
C1244 N1251 1.356 . S
C1245 C1244 1.363 . S
C1245 C1248 1.363 . S
N1246 C1248 1.356 . S
N1246 H1258 0.984 . S
N1246 H1259 0.985 . S
N1247 C1249 1.356 . S
N1247 H1252 0.984 . S
N1247 H1253 0.985 . S
C1248 C1242 1.379 . S
C1248 C1245 1.363 . S
C1248 N1246 1.356 . S
C1249 C1243 1.363 . S
C1249 C1244 1.379 . S
C1249 N1247 1.356 . S
N1250 C1242 1.356 . S
N1250 H1256 0.984 1_556 S
N1250 H1257 0.984 . S
N1251 C1244 1.356 . S
N1251 H1254 0.984 . S
N1251 H1255 0.985 . S
H1252 N1247 0.984 . S
H1253 N1247 0.985 . S
H1254 N1251 0.984 . S
H1255 N1251 0.985 . S
H1256 N1250 0.984 1_554 S
H1257 N1250 0.984 . S
H1258 N1246 0.984 . S
H1259 N1246 0.985 . S
C1260 C1261 1.363 . S
C1260 C1266 1.379 . S
C1260 N1268 1.356 . S
C1261 C1260 1.363 . S
C1261 C1267 1.363 . S
C1262 C1263 1.363 . S
C1262 C1267 1.379 . S
C1262 N1269 1.356 . S
C1263 C1262 1.363 . S
C1263 C1266 1.363 . S
N1264 C1266 1.356 . S
N1264 H1276 0.984 . S
N1264 H1277 0.985 . S
N1265 C1267 1.356 . S
N1265 H1270 0.984 . S
N1265 H1271 0.985 . S
C1266 C1260 1.379 . S
C1266 C1263 1.363 . S
C1266 N1264 1.356 . S
C1267 C1261 1.363 . S
C1267 C1262 1.379 . S
C1267 N1265 1.356 . S
N1268 C1260 1.356 . S
N1268 H1274 0.984 . S
N1268 H1275 0.984 . S
N1269 C1262 1.356 . S
N1269 H1272 0.984 . S
N1269 H1273 0.985 . S
H1270 N1265 0.984 . S
H1271 N1265 0.985 . S
H1272 N1269 0.984 . S
H1273 N1269 0.985 . S
H1274 N1268 0.984 . S
H1275 N1268 0.984 . S
H1276 N1264 0.984 . S
H1277 N1264 0.985 . S
C1278 C1279 1.363 . S
C1278 C1284 1.379 . S
C1278 N1286 1.356 . S
C1279 C1278 1.363 . S
C1279 C1285 1.363 . S
C1280 C1281 1.363 . S
C1280 C1285 1.379 . S
C1280 N1287 1.356 . S
C1281 C1280 1.363 . S
C1281 C1284 1.363 . S
N1282 C1284 1.356 . S
N1282 H1294 0.984 . S
N1282 H1295 0.985 . S
N1283 C1285 1.356 . S
N1283 H1288 0.984 . S
N1283 H1289 0.985 . S
C1284 C1278 1.379 . S
C1284 C1281 1.363 . S
C1284 N1282 1.356 . S
C1285 C1279 1.363 . S
C1285 C1280 1.379 . S
C1285 N1283 1.356 . S
N1286 C1278 1.356 . S
N1286 H1292 0.984 . S
N1286 H1293 0.984 . S
N1287 C1280 1.356 . S
N1287 H1290 0.984 . S
N1287 H1291 0.985 . S
H1288 N1283 0.984 . S
H1289 N1283 0.985 . S
H1290 N1287 0.984 . S
H1291 N1287 0.985 . S
H1292 N1286 0.984 . S
H1293 N1286 0.984 . S
H1294 N1282 0.984 . S
H1295 N1282 0.985 . S
C1296 C1297 1.363 . S
C1296 C1302 1.379 . S
C1296 N1304 1.356 . S
C1297 C1296 1.363 . S
C1297 C1303 1.363 . S
C1298 C1299 1.363 . S
C1298 C1303 1.379 . S
C1298 N1305 1.356 . S
C1299 C1298 1.363 . S
C1299 C1302 1.363 . S
N1300 C1302 1.356 . S
N1300 H1312 0.984 . S
N1300 H1313 0.985 . S
N1301 C1303 1.356 . S
N1301 H1306 0.984 . S
N1301 H1307 0.985 . S
C1302 C1296 1.379 . S
C1302 C1299 1.363 . S
C1302 N1300 1.356 . S
C1303 C1297 1.363 . S
C1303 C1298 1.379 . S
C1303 N1301 1.356 . S
N1304 C1296 1.356 . S
N1304 H1310 0.984 . S
N1304 H1311 0.984 . S
N1305 C1298 1.356 . S
N1305 H1308 0.985 1_554 S
N1305 H1309 0.985 . S
H1306 N1301 0.984 . S
H1307 N1301 0.985 . S
H1308 N1305 0.985 1_556 S
H1309 N1305 0.985 . S
H1310 N1304 0.984 . S
H1311 N1304 0.984 . S
H1312 N1300 0.984 . S
H1313 N1300 0.985 . S
C1314 C1315 1.363 . S
C1314 C1320 1.379 . S
C1314 N1322 1.356 . S
C1315 C1314 1.363 . S
C1315 C1321 1.363 . S
C1316 C1317 1.363 . S
C1316 C1321 1.379 . S
C1316 N1323 1.356 . S
C1317 C1316 1.363 . S
C1317 C1320 1.363 . S
N1318 C1320 1.356 . S
N1318 H1330 0.984 . S
N1318 H1331 0.985 . S
N1319 C1321 1.356 . S
N1319 H1324 0.984 . S
N1319 H1325 0.985 . S
C1320 C1314 1.379 . S
C1320 C1317 1.363 . S
C1320 N1318 1.356 . S
C1321 C1315 1.363 . S
C1321 C1316 1.379 . S
C1321 N1319 1.356 . S
N1322 C1314 1.356 . S
N1322 H1328 0.984 . S
N1322 H1329 0.984 . S
N1323 C1316 1.356 . S
N1323 H1326 0.984 . S
N1323 H1327 0.985 . S
H1324 N1319 0.984 . S
H1325 N1319 0.985 . S
H1326 N1323 0.984 . S
H1327 N1323 0.985 . S
H1328 N1322 0.984 . S
H1329 N1322 0.984 . S
H1330 N1318 0.984 . S
H1331 N1318 0.985 . S
C1332 C1333 1.363 . S
C1332 C1338 1.379 . S
C1332 N1340 1.356 . S
C1333 C1332 1.363 . S
C1333 C1339 1.363 . S
C1334 C1335 1.363 . S
C1334 C1339 1.379 . S
C1334 N1341 1.356 . S
C1335 C1334 1.363 . S
C1335 C1338 1.363 . S
N1336 C1338 1.356 . S
N1336 H1348 0.984 . S
N1336 H1349 0.985 . S
N1337 C1339 1.356 . S
N1337 H1342 0.984 . S
N1337 H1343 0.985 . S
C1338 C1332 1.379 . S
C1338 C1335 1.363 . S
C1338 N1336 1.356 . S
C1339 C1333 1.363 . S
C1339 C1334 1.379 . S
C1339 N1337 1.356 . S
N1340 C1332 1.356 . S
N1340 H1346 0.984 . S
N1340 H1347 0.984 . S
N1341 C1334 1.356 . S
N1341 H1344 0.984 . S
N1341 H1345 0.985 . S
H1342 N1337 0.984 . S
H1343 N1337 0.985 . S
H1344 N1341 0.984 . S
H1345 N1341 0.985 . S
H1346 N1340 0.984 . S
H1347 N1340 0.984 . S
H1348 N1336 0.984 . S
H1349 N1336 0.985 . S
C1350 C1351 1.363 . S
C1350 C1356 1.379 . S
C1350 N1358 1.356 . S
C1351 C1350 1.363 . S
C1351 C1357 1.363 . S
C1352 C1353 1.363 . S
C1352 C1357 1.379 . S
C1352 N1359 1.356 . S
C1353 C1352 1.363 . S
C1353 C1356 1.363 . S
N1354 C1356 1.356 . S
N1354 H1366 0.984 . S
N1354 H1367 0.985 . S
N1355 C1357 1.356 . S
N1355 H1360 0.984 . S
N1355 H1361 0.985 . S
C1356 C1350 1.379 . S
C1356 C1353 1.363 . S
C1356 N1354 1.356 . S
C1357 C1351 1.363 . S
C1357 C1352 1.379 . S
C1357 N1355 1.356 . S
N1358 C1350 1.356 . S
N1358 H1364 0.984 . S
N1358 H1365 0.984 . S
N1359 C1352 1.356 . S
N1359 H1362 0.984 . S
N1359 H1363 0.985 . S
H1360 N1355 0.984 . S
H1361 N1355 0.985 . S
H1362 N1359 0.984 . S
H1363 N1359 0.985 . S
H1364 N1358 0.984 . S
H1365 N1358 0.984 . S
H1366 N1354 0.984 . S
H1367 N1354 0.985 . S
C1368 C1369 1.363 . S
C1368 C1374 1.379 . S
C1368 N1376 1.356 . S
C1369 C1368 1.363 . S
C1369 C1375 1.363 . S
C1370 C1371 1.363 . S
C1370 C1375 1.379 . S
C1370 N1377 1.356 . S
C1371 C1370 1.363 . S
C1371 C1374 1.363 . S
N1372 C1374 1.356 . S
N1372 H1384 0.986 1_554 S
N1372 H1385 0.985 . S
N1373 C1375 1.356 . S
N1373 H1378 0.984 . S
N1373 H1379 0.985 . S
C1374 C1368 1.379 . S
C1374 C1371 1.363 . S
C1374 N1372 1.356 . S
C1375 C1369 1.363 . S
C1375 C1370 1.379 . S
C1375 N1373 1.356 . S
N1376 C1368 1.356 . S
N1376 H1382 0.984 . S
N1376 H1383 0.984 . S
N1377 C1370 1.356 . S
N1377 H1380 0.984 . S
N1377 H1381 0.985 . S
H1378 N1373 0.984 . S
H1379 N1373 0.985 . S
H1380 N1377 0.984 . S
H1381 N1377 0.985 . S
H1382 N1376 0.984 . S
H1383 N1376 0.984 . S
H1384 N1372 0.986 1_556 S
H1385 N1372 0.985 . S
C1386 C1387 1.363 . S
C1386 C1392 1.379 . S
C1386 N1394 1.356 . S
C1387 C1386 1.363 . S
C1387 C1393 1.363 . S
C1388 C1389 1.363 . S
C1388 C1393 1.379 . S
C1388 N1395 1.356 . S
C1389 C1388 1.363 . S
C1389 C1392 1.363 . S
N1390 C1392 1.356 . S
N1390 H1402 0.984 . S
N1390 H1403 0.985 . S
N1391 C1393 1.356 . S
N1391 H1396 0.984 . S
N1391 H1397 0.985 . S
C1392 C1386 1.379 . S
C1392 C1389 1.363 . S
C1392 N1390 1.356 . S
C1393 C1387 1.363 . S
C1393 C1388 1.379 . S
C1393 N1391 1.356 . S
N1394 C1386 1.356 . S
N1394 H1400 0.984 . S
N1394 H1401 0.984 . S
N1395 C1388 1.356 . S
N1395 H1398 0.984 . S
N1395 H1399 0.985 . S
H1396 N1391 0.984 . S
H1397 N1391 0.985 . S
H1398 N1395 0.984 . S
H1399 N1395 0.985 . S
H1400 N1394 0.984 . S
H1401 N1394 0.984 . S
H1402 N1390 0.984 . S
H1403 N1390 0.985 . S
C595 N113 1.197 . S
C597 N14 1.197 . S
C613 N146 1.197 . S
C615 N47 1.197 . S
C631 N80 1.197 . S
C633 N179 1.197 . S
C649 C41 2.238 . S
C651 C173 2.238 . S
C667 C107 2.238 . S
C669 C74 2.238 . S
C685 C140 2.238 . S
C687 C8 2.238 . S
C703 N212 1.197 . S
C705 N311 1.197 . S
C721 N344 1.197 . S
C723 N245 1.197 . S
C739 N278 1.197 . S
C741 N377 1.197 . S
C757 C371 2.238 . S
C759 C239 2.238 . S
C775 C305 2.238 . S
C777 C272 2.238 . S
C793 C338 2.238 . S
C795 C206 2.238 . S
C811 N509 1.197 . S
C813 N410 1.197 . S
C829 N443 1.197 . S
C831 N542 1.197 . S
C847 N575 1.197 . S
C849 N476 1.197 . S
C865 C437 2.238 . S
C867 C569 2.238 . S
C883 C503 2.238 . S
C885 C470 2.238 . S
C901 C404 2.238 . S
C903 C536 2.238 . S
C919 C578 1.511 . S
C921 C17 1.511 . S
C937 C50 1.511 . S
C939 C512 1.511 . S
C955 C545 1.511 . S
C957 C83 1.511 . S
C973 C248 1.511 . S
C975 C116 1.511 . S
C991 C149 1.511 . S
C993 C281 1.511 . S
C1009 C182 1.511 . S
C1011 C215 1.511 . S
C1027 C446 1.511 . S
C1029 C314 1.511 . S
C1045 C479 1.511 . S
C1047 C347 1.511 . S
C1063 C380 1.511 . S
C1065 C413 1.511 . S
C1081 C28 2.057 . S
C1083 C127 2.057 . S
C1099 C160 2.057 . S
C1101 C61 2.057 . S
C1117 C94 2.057 . S
C1119 C193 2.057 . S
C1135 N170 0.758 . S
C1137 N38 0.758 . S
C1153 N71 0.758 . S
C1155 N104 0.758 . S
C1171 N137 0.758 . S
C1173 N5 0.758 . S
C1189 C226 2.057 . S
C1191 C325 2.057 . S
C1207 C358 2.057 . S
C1209 C259 2.057 . S
C1225 C391 2.057 . S
C1227 C292 2.057 . S
C1243 N368 0.758 . S
C1245 N236 0.758 . S
C1261 N302 0.758 . S
C1263 N269 0.758 . S
C1279 N335 0.758 . S
C1281 N203 0.758 . S
C1297 C523 2.057 . S
C1299 C424 2.057 . S
C1315 C556 2.057 . S
C1317 C457 2.057 . S
C1333 C589 2.057 . S
C1335 C490 2.057 . S
C1351 N566 0.758 . S
C1353 N434 0.758 . S
C1369 N500 0.758 . S
C1371 N467 0.758 . S
C1387 N533 0.758 . S
C1389 N401 0.758 . S
