# Generated by pormake.
# Topology ecf, (8)-cn, num edge types: 1
# Building blocks:
#     Node 0, Type 0, BuildingBlock: TAGTUT_clean_sbu_3, # of connection points: 8
#     Node 1, Type 0, BuildingBlock: TAGTUT_clean_sbu_3, # of connection points: 8
#     Node 2, Type 0, BuildingBlock: TAGTUT_clean_sbu_3, # of connection points: 8
#     Node 3, Type 0, BuildingBlock: TAGTUT_clean_sbu_3, # of connection points: 8
#     Node 4, Type 0, BuildingBlock: TAGTUT_clean_sbu_3, # of connection points: 8
#     Node 5, Type 0, BuildingBlock: TAGTUT_clean_sbu_3, # of connection points: 8
#     Edge 6, Type (0, 0), BuildingBlock: MIFKUJ_clean_linker_0, # of connection points: 2
#     Edge 7, Type (0, 0), BuildingBlock: MIFKUJ_clean_linker_0, # of connection points: 2
#     Edge 8, Type (0, 0), BuildingBlock: MIFKUJ_clean_linker_0, # of connection points: 2
#     Edge 9, Type (0, 0), BuildingBlock: MIFKUJ_clean_linker_0, # of connection points: 2
#     Edge 10, Type (0, 0), BuildingBlock: MIFKUJ_clean_linker_0, # of connection points: 2
#     Edge 11, Type (0, 0), BuildingBlock: MIFKUJ_clean_linker_0, # of connection points: 2
#     Edge 12, Type (0, 0), BuildingBlock: MIFKUJ_clean_linker_0, # of connection points: 2
#     Edge 13, Type (0, 0), BuildingBlock: MIFKUJ_clean_linker_0, # of connection points: 2
#     Edge 14, Type (0, 0), BuildingBlock: MIFKUJ_clean_linker_0, # of connection points: 2
#     Edge 15, Type (0, 0), BuildingBlock: MIFKUJ_clean_linker_0, # of connection points: 2
#     Edge 16, Type (0, 0), BuildingBlock: MIFKUJ_clean_linker_0, # of connection points: 2
#     Edge 17, Type (0, 0), BuildingBlock: MIFKUJ_clean_linker_0, # of connection points: 2
#     Edge 18, Type (0, 0), BuildingBlock: MIFKUJ_clean_linker_0, # of connection points: 2
#     Edge 19, Type (0, 0), BuildingBlock: MIFKUJ_clean_linker_0, # of connection points: 2
#     Edge 20, Type (0, 0), BuildingBlock: MIFKUJ_clean_linker_0, # of connection points: 2
#     Edge 21, Type (0, 0), BuildingBlock: MIFKUJ_clean_linker_0, # of connection points: 2
#     Edge 22, Type (0, 0), BuildingBlock: MIFKUJ_clean_linker_0, # of connection points: 2
#     Edge 23, Type (0, 0), BuildingBlock: MIFKUJ_clean_linker_0, # of connection points: 2
#     Edge 24, Type (0, 0), BuildingBlock: MIFKUJ_clean_linker_0, # of connection points: 2
#     Edge 25, Type (0, 0), BuildingBlock: MIFKUJ_clean_linker_0, # of connection points: 2
#     Edge 26, Type (0, 0), BuildingBlock: MIFKUJ_clean_linker_0, # of connection points: 2
#     Edge 27, Type (0, 0), BuildingBlock: MIFKUJ_clean_linker_0, # of connection points: 2
#     Edge 28, Type (0, 0), BuildingBlock: MIFKUJ_clean_linker_0, # of connection points: 2
#     Edge 29, Type (0, 0), BuildingBlock: MIFKUJ_clean_linker_0, # of connection points: 2
# Relax obj value: 0.231
# Max RMSD: 0.186
# Mean RMSD: 0.186
data_MOF--net-ecf--node1-TAGTUT_clean_sbu_3--edge1-MIFKUJ_clean_linker_0
_symmetry_space_group_name_H-M    P1
_symmetry_Int_Tables_number       1
_symmetry_cell_setting            triclinic
loop_
_symmetry_equiv_pos_as_xyz
'x, y, z'
_cell_length_a     41.935606
_cell_length_b     41.861442
_cell_length_c     34.750643
_cell_angle_alpha  89.92357
_cell_angle_beta   90.107199
_cell_angle_gamma 120.14278
loop_
_atom_site_label
_atom_site_type_symbol
_atom_site_fract_x
_atom_site_fract_y
_atom_site_fract_z
_atom_type_partial_charge
C0 C 0.13178 0.32537 0.18402 0.0
C1 C 0.04152 0.26865 0.30368 0.0
C2 C 0.14654 0.33623 0.36555 0.0
Mg3 Mg 0.2245 0.36261 0.18608 0.0
Mg4 Mg 0.26889 0.34011 0.25012 0.0
O5 O 0.23168 0.35105 0.24057 0.0
Mg6 Mg 0.17992 0.32092 0.25711 0.0
O7 O 0.12669 0.29495 0.27184 0.0
Mg8 Mg 0.12174 0.34086 0.27556 0.0
Mg9 Mg 0.11397 0.26625 0.31628 0.0
C10 C 0.23133 0.31266 0.33153 0.0
O11 O 0.17507 0.26483 0.24974 0.0
O12 O 0.28838 0.4057 0.18616 0.0
O13 O 0.13588 0.23137 0.29742 0.0
O14 O 0.23435 0.31583 0.16277 0.0
O15 O 0.31538 0.3916 0.23396 0.0
O16 O 0.26026 0.29986 0.20961 0.0
O17 O 0.1824 0.37674 0.26388 0.0
O18 O 0.21418 0.40628 0.21152 0.0
C19 C 0.19595 0.40497 0.24149 0.0
C20 C 0.31681 0.41294 0.20679 0.0
O21 O 0.20269 0.3149 0.3209 0.0
O22 O 0.06031 0.30061 0.28805 0.0
O23 O 0.25799 0.32061 0.30837 0.0
O24 O 0.13551 0.35081 0.34041 0.0
O25 O 0.05641 0.25054 0.31684 0.0
O26 O 0.14291 0.30442 0.36097 0.0
O27 O 0.15973 0.3214 0.19315 0.0
O28 O 0.11417 0.3319 0.21027 0.0
C29 C 0.24706 0.29573 0.17588 0.0
C30 C 0.15819 0.2353 0.27003 0.0
C31 C 0.80221 0.20865 0.72923 0.0
C32 C 0.91563 0.33167 0.70258 0.0
C33 C 0.96606 0.26611 0.67003 0.0
Mg34 Mg 0.79212 0.13491 0.76335 0.0
Mg35 Mg 0.85756 0.12581 0.80467 0.0
O36 O 0.84302 0.14013 0.7603 0.0
Mg37 Mg 0.87042 0.19385 0.74746 0.0
O38 O 0.89247 0.24606 0.7327 0.0
Mg39 Mg 0.87577 0.24054 0.67759 0.0
Mg40 Mg 0.94019 0.28327 0.74501 0.0
C41 C 0.93539 0.17359 0.76469 0.0
O42 O 0.89424 0.21435 0.81217 0.0
O43 O 0.77013 0.07299 0.77443 0.0
O44 O 0.9465 0.26888 0.80294 0.0
O45 O 0.79569 0.14736 0.82908 0.0
O46 O 0.81579 0.0685 0.80347 0.0
O47 O 0.84762 0.15175 0.85126 0.0
O48 O 0.85248 0.17542 0.68261 0.0
O49 O 0.7953 0.12948 0.69772 0.0
C50 C 0.82043 0.14796 0.67247 0.0
C51 C 0.78292 0.05395 0.79001 0.0
O52 O 0.92357 0.19075 0.74354 0.0
O53 O 0.89584 0.30404 0.68032 0.0
O54 O 0.9151 0.14931 0.78981 0.0
O55 O 0.9335 0.25275 0.65605 0.0
O56 O 0.9345 0.3296 0.73047 0.0
O57 O 0.97388 0.27809 0.70433 0.0
O58 O 0.81658 0.19536 0.75227 0.0
O59 O 0.82036 0.22819 0.70036 0.0
C60 C 0.81982 0.15586 0.85568 0.0
C61 C 0.9252 0.24168 0.82456 0.0
C62 C 0.66785 0.81491 0.17943 0.0
C63 C 0.73158 0.78963 0.29725 0.0
C64 C 0.66161 0.81876 0.36154 0.0
Mg65 Mg 0.62424 0.86368 0.18182 0.0
Mg66 Mg 0.64674 0.93307 0.24279 0.0
O67 O 0.6356 0.88424 0.23588 0.0
Mg68 Mg 0.66879 0.86614 0.25225 0.0
O69 O 0.69876 0.84307 0.2663 0.0
Mg70 Mg 0.65575 0.79017 0.27078 0.0
Mg71 Mg 0.7289 0.86209 0.30951 0.0
C72 C 0.67559 0.92533 0.32514 0.0
O73 O 0.7216 0.92058 0.24439 0.0
O74 O 0.57969 0.88125 0.18165 0.0
O75 O 0.75937 0.91994 0.29048 0.0
O76 O 0.66586 0.91983 0.15527 0.0
O77 O 0.59375 0.92483 0.22684 0.0
O78 O 0.68484 0.96451 0.19938 0.0
O79 O 0.61583 0.8101 0.26035 0.0
O80 O 0.58379 0.80931 0.20895 0.0
C81 C 0.5871 0.79355 0.23891 0.0
C82 C 0.57216 0.90288 0.20085 0.0
O83 O 0.67361 0.89433 0.31548 0.0
O84 O 0.69921 0.77405 0.28255 0.0
O85 O 0.66739 0.94347 0.30124 0.0
O86 O 0.64757 0.79365 0.33581 0.0
O87 O 0.7484 0.82316 0.30931 0.0
O88 O 0.69168 0.84894 0.35618 0.0
O89 O 0.66922 0.84558 0.18891 0.0
O90 O 0.66396 0.7912 0.20523 0.0
C91 C 0.68616 0.9534 0.16579 0.0
C92 C 0.75165 0.93641 0.26386 0.0
C93 C 0.79744 0.59457 0.74284 0.0
C94 C 0.67498 0.58235 0.70909 0.0
C95 C 0.74123 0.69976 0.6758 0.0
Mg96 Mg 0.87137 0.65991 0.77591 0.0
Mg97 Mg 0.87713 0.73381 0.81596 0.0
O98 O 0.86496 0.70488 0.77186 0.0
Mg99 Mg 0.81151 0.67783 0.75774 0.0
O100 O 0.75964 0.64683 0.74142 0.0
Mg101 Mg 0.76661 0.63493 0.68718 0.0
Mg102 Mg 0.72146 0.65637 0.75075 0.0
C103 C 0.83258 0.76365 0.76899 0.0
O104 O 0.7886 0.68287 0.8215 0.0
O105 O 0.9326 0.70081 0.78859 0.0
O106 O 0.73263 0.67575 0.80896 0.0
O107 O 0.85932 0.65146 0.8416 0.0
O108 O 0.93455 0.74985 0.8176 0.0
O109 O 0.84982 0.69661 0.86179 0.0
O110 O 0.83117 0.67738 0.69395 0.0
O111 O 0.87786 0.66773 0.7096 0.0
C112 C 0.85893 0.67347 0.68408 0.0
C113 C 0.95035 0.73243 0.80512 0.0
O114 O 0.81534 0.73346 0.74979 0.0
O115 O 0.70331 0.59039 0.68805 0.0
O116 O 0.85524 0.76841 0.79637 0.0
O117 O 0.75476 0.68027 0.66312 0.0
O118 O 0.67591 0.60376 0.73585 0.0
O119 O 0.72822 0.69572 0.70959 0.0
O120 O 0.81062 0.62293 0.76494 0.0
O121 O 0.77863 0.59254 0.71302 0.0
C122 C 0.84855 0.66594 0.86714 0.0
C123 C 0.75939 0.68399 0.83218 0.0
C124 C 0.17209 0.84946 0.173 0.0
C125 C 0.21777 0.94749 0.28811 0.0
C126 C 0.18579 0.8472 0.35406 0.0
Mg127 Mg 0.11508 0.75828 0.18196 0.0
Mg128 Mg 0.05516 0.71708 0.25311 0.0
O129 O 0.10218 0.75395 0.23812 0.0
Mg130 Mg 0.1263 0.80672 0.25196 0.0
O131 O 0.15535 0.86091 0.26275 0.0
Mg132 Mg 0.20621 0.86584 0.26115 0.0
Mg133 Mg 0.14343 0.87584 0.30826 0.0
C134 C 0.07545 0.7583 0.33335 0.0
O135 O 0.07585 0.81194 0.24891 0.0
O136 O 0.09399 0.69472 0.18404 0.0
O137 O 0.08498 0.85344 0.29529 0.0
O138 O 0.05596 0.7475 0.16534 0.0
O139 O 0.05853 0.66987 0.23629 0.0
O140 O 0.01912 0.72364 0.21655 0.0
O141 O 0.17901 0.80388 0.25372 0.0
O142 O 0.17123 0.76925 0.20191 0.0
C143 C 0.19088 0.78855 0.23032 0.0
C144 C 0.07543 0.66731 0.2069 0.0
O145 O 0.10424 0.78699 0.31876 0.0
O146 O 0.22922 0.92836 0.27021 0.0
O147 O 0.05408 0.73033 0.31262 0.0
O148 O 0.20885 0.85713 0.32641 0.0
O149 O 0.18625 0.93304 0.30475 0.0
O150 O 0.15658 0.84922 0.35193 0.0
O151 O 0.14077 0.82337 0.18636 0.0
O152 O 0.19929 0.86906 0.19567 0.0
C153 C 0.02459 0.73522 0.18201 0.0
C154 C 0.06484 0.82991 0.26942 0.0
C155 C 0.40187 0.2008 0.73948 0.0
C156 C 0.41835 0.09495 0.70266 0.0
C157 C 0.30147 0.03994 0.66909 0.0
Mg158 Mg 0.3359 0.2055 0.7763 0.0
Mg159 Mg 0.26279 0.13503 0.81352 0.0
O160 O 0.29137 0.15398 0.76963 0.0
Mg161 Mg 0.31945 0.12939 0.75357 0.0
O162 O 0.35143 0.11047 0.73594 0.0
Mg163 Mg 0.36286 0.13103 0.68224 0.0
Mg164 Mg 0.34424 0.06337 0.74495 0.0
C165 C 0.23539 0.06096 0.76726 0.0
O166 O 0.31592 0.10103 0.81596 0.0
O167 O 0.29431 0.22409 0.7926 0.0
O168 O 0.32506 0.05335 0.80373 0.0
O169 O 0.34526 0.19851 0.84128 0.0
O170 O 0.24524 0.17472 0.81886 0.0
O171 O 0.29917 0.14345 0.85902 0.0
O172 O 0.31861 0.15103 0.69061 0.0
O173 O 0.32665 0.2059 0.71057 0.0
C174 C 0.32104 0.18275 0.68326 0.0
C175 C 0.26256 0.2088 0.80886 0.0
O176 O 0.26458 0.07549 0.7463 0.0
O177 O 0.40901 0.11441 0.68178 0.0
O178 O 0.2303 0.07856 0.79456 0.0
O179 O 0.31922 0.07355 0.65735 0.0
O180 O 0.39776 0.07391 0.72962 0.0
O181 O 0.30632 0.03053 0.70246 0.0
O182 O 0.37374 0.18417 0.76165 0.0
O183 O 0.40409 0.18535 0.70877 0.0
C184 C 0.33016 0.17206 0.86566 0.0
C185 C 0.31599 0.07133 0.82675 0.0
H186 H 0.14326 0.40578 0.28873 0.0
H187 H 0.12012 0.44903 0.28542 0.0
H188 H 0.20214 0.51297 0.1999 0.0
H189 H 0.22528 0.47019 0.20288 0.0
H190 H 0.1934 0.55731 0.24931 0.0
H191 H 0.11584 0.45163 0.17023 0.0
H192 H 0.07609 0.38515 0.15736 0.0
H193 H 0.00137 0.37788 0.24587 0.0
H194 H 0.04075 0.44459 0.2591 0.0
H195 H 0.12164 0.65682 0.1596 0.0
H196 H 0.13854 0.60911 0.16617 0.0
H197 H 0.05586 0.5554 0.25402 0.0
H198 H 0.03838 0.60266 0.24744 0.0
H199 H 0.06328 0.50534 0.20766 0.0
H200 H 0.14099 0.61603 0.28033 0.0
H201 H 0.18178 0.68325 0.28812 0.0
H202 H 0.25854 0.68151 0.20777 0.0
H203 H 0.21788 0.61433 0.199 0.0
C204 C 0.15658 0.42915 0.26949 0.0
C205 C 0.18551 0.43385 0.24535 0.0
C206 C 0.14329 0.45386 0.2676 0.0
C207 C 0.15896 0.4838 0.24183 0.0
C208 C 0.18946 0.48995 0.2198 0.0
C209 C 0.20255 0.46527 0.22148 0.0
C210 C 0.14254 0.50762 0.23579 0.0
C211 C 0.16501 0.54597 0.24005 0.0
C212 C 0.10542 0.49281 0.22401 0.0
C213 C 0.08138 0.45291 0.2159 0.0
C214 C 0.09101 0.43579 0.18706 0.0
C215 C 0.06854 0.39808 0.17969 0.0
C216 C 0.03633 0.37717 0.20099 0.0
C217 C 0.02637 0.39407 0.22947 0.0
C218 C 0.04869 0.43187 0.23683 0.0
C219 C 0.10625 0.63431 0.17954 0.0
C220 C 0.07906 0.63397 0.20347 0.0
C221 C 0.11614 0.60718 0.18342 0.0
C222 C 0.09907 0.57931 0.21129 0.0
C223 C 0.06961 0.57689 0.23262 0.0
C224 C 0.0597 0.60401 0.2288 0.0
C225 C 0.11427 0.55504 0.22082 0.0
C226 C 0.09155 0.51665 0.21728 0.0
C227 C 0.15134 0.56989 0.23291 0.0
C228 C 0.17622 0.61017 0.23877 0.0
C229 C 0.16646 0.63001 0.26415 0.0
C230 C 0.18956 0.6681 0.26875 0.0
C231 C 0.22269 0.68665 0.2484 0.0
C232 C 0.23284 0.66711 0.22349 0.0
C233 C 0.20979 0.62901 0.21871 0.0
H234 H 0.24055 0.71613 0.25203 0.0
H235 H 0.01903 0.34793 0.19532 0.0
H236 H 0.44753 0.05954 0.74295 0.0
H237 H 0.51202 0.0762 0.74698 0.0
H238 H 0.5401 0.15988 0.66029 0.0
H239 H 0.47531 0.14374 0.6562 0.0
H240 H 0.57702 0.11804 0.65264 0.0
H241 H 0.55517 0.18824 0.74794 0.0
H242 H 0.52236 0.1967 0.80225 0.0
H243 H 0.54449 0.12555 0.87252 0.0
H244 H 0.57717 0.11641 0.81845 0.0
H245 H 0.76544 0.23234 0.68368 0.0
H246 H 0.69956 0.20843 0.67962 0.0
H247 H 0.68145 0.13363 0.77337 0.0
H248 H 0.74821 0.15784 0.77805 0.0
H249 H 0.63854 0.16722 0.77852 0.0
H250 H 0.65771 0.09461 0.68395 0.0
H251 H 0.68791 0.0829 0.62936 0.0
H252 H 0.67132 0.15771 0.55895 0.0
H253 H 0.63999 0.16901 0.61292 0.0
C254 C 0.46717 0.08116 0.72422 0.0
C255 C 0.45614 0.10056 0.69948 0.0
C256 C 0.50411 0.09071 0.72674 0.0
C257 C 0.53084 0.11967 0.70446 0.0
C258 C 0.51981 0.13756 0.6779 0.0
C259 C 0.48276 0.12822 0.67554 0.0
C260 C 0.57042 0.13226 0.7104 0.0
C261 C 0.59058 0.12918 0.68 0.0
C262 C 0.58779 0.14582 0.74646 0.0
C263 C 0.56827 0.15133 0.77905 0.0
C264 C 0.55277 0.17416 0.77488 0.0
C265 C 0.53427 0.17914 0.80564 0.0
C266 C 0.53123 0.16157 0.84078 0.0
C267 C 0.54682 0.1391 0.84527 0.0
C268 C 0.56539 0.13405 0.8146 0.0
C269 C 0.74771 0.21088 0.70371 0.0
C270 C 0.76231 0.19656 0.73079 0.0
C271 C 0.70989 0.19709 0.70111 0.0
C272 C 0.68552 0.16859 0.72546 0.0
C273 C 0.69984 0.15533 0.75392 0.0
C274 C 0.73799 0.16918 0.75655 0.0
C275 C 0.64523 0.15313 0.72069 0.0
C276 C 0.62492 0.1558 0.75126 0.0
C277 C 0.62763 0.13905 0.68484 0.0
C278 C 0.64686 0.13288 0.65249 0.0
C279 C 0.66072 0.10871 0.65687 0.0
C280 C 0.67794 0.10207 0.62603 0.0
C281 C 0.68196 0.11989 0.59083 0.0
C282 C 0.6683 0.14402 0.58627 0.0
C283 C 0.65056 0.15033 0.61688 0.0
H284 H 0.69548 0.11484 0.56704 0.0
H285 H 0.51688 0.16543 0.86455 0.0
H286 H 0.38346 0.43568 0.24133 0.0
H287 H 0.43498 0.49878 0.24662 0.0
H288 H 0.37938 0.53652 0.17055 0.0
H289 H 0.32751 0.47331 0.16493 0.0
H290 H 0.45616 0.57342 0.1592 0.0
H291 H 0.36936 0.54004 0.26468 0.0
H292 H 0.33285 0.50108 0.31915 0.0
H293 H 0.43219 0.5216 0.37648 0.0
H294 H 0.46927 0.56028 0.32203 0.0
H295 H 0.51953 0.75576 0.20587 0.0
H296 H 0.47916 0.68926 0.20249 0.0
H297 H 0.55132 0.67367 0.27892 0.0
H298 H 0.59227 0.7409 0.28279 0.0
H299 H 0.47354 0.62416 0.29165 0.0
H300 H 0.56125 0.66278 0.19035 0.0
H301 H 0.59855 0.70289 0.13691 0.0
H302 H 0.5 0.67285 0.07241 0.0
H303 H 0.46204 0.633 0.12576 0.0
C304 C 0.38238 0.4572 0.22504 0.0
C305 C 0.351 0.44942 0.20311 0.0
C306 C 0.4119 0.4933 0.22821 0.0
C307 C 0.41065 0.5224 0.20962 0.0
C308 C 0.38078 0.51444 0.1853 0.0
C309 C 0.35115 0.47825 0.18209 0.0
C310 C 0.43871 0.56131 0.21827 0.0
C311 C 0.45986 0.58455 0.18809 0.0
C312 C 0.44428 0.57557 0.25621 0.0
C313 C 0.42204 0.55271 0.28913 0.0
C314 C 0.38339 0.53603 0.28878 0.0
C315 C 0.3626 0.51403 0.31966 0.0
C316 C 0.38018 0.50878 0.35121 0.0
C317 C 0.4186 0.52563 0.35199 0.0
C318 C 0.43952 0.54761 0.32115 0.0
C319 C 0.52683 0.73839 0.2224 0.0
C320 C 0.55981 0.75375 0.24376 0.0
C321 C 0.50365 0.7003 0.22034 0.0
C322 C 0.51282 0.67659 0.23957 0.0
C323 C 0.54409 0.69163 0.26345 0.0
C324 C 0.56749 0.73006 0.26558 0.0
C325 C 0.49047 0.63632 0.23249 0.0
C326 C 0.47032 0.61287 0.26289 0.0
C327 C 0.48606 0.62179 0.19481 0.0
C328 C 0.50876 0.64506 0.1622 0.0
C329 C 0.5475 0.66488 0.16487 0.0
C330 C 0.56878 0.68757 0.13459 0.0
C331 C 0.55165 0.69046 0.10132 0.0
C332 C 0.51322 0.67057 0.09821 0.0
C333 C 0.49181 0.64789 0.12845 0.0
H334 H 0.56817 0.70808 0.07793 0.0
H335 H 0.36404 0.49173 0.37509 0.0
H336 H 0.86532 0.34124 0.66129 0.0
H337 H 0.85209 0.39142 0.66815 0.0
H338 H 0.9446 0.44802 0.74537 0.0
H339 H 0.95778 0.39773 0.73913 0.0
H340 H 0.8841 0.44179 0.7767 0.0
H341 H 0.94528 0.48312 0.65605 0.0
H342 H 0.95941 0.47806 0.58826 0.0
H343 H 0.84887 0.44755 0.55574 0.0
H344 H 0.8339 0.45191 0.62343 0.0
H345 H 0.85338 0.59681 0.78751 0.0
H346 H 0.87958 0.55641 0.78135 0.0
H347 H 0.79363 0.48805 0.70095 0.0
H348 H 0.7682 0.52875 0.7058 0.0
H349 H 0.85924 0.50698 0.67205 0.0
H350 H 0.79689 0.45992 0.79379 0.0
H351 H 0.78294 0.46522 0.86162 0.0
H352 H 0.89647 0.50724 0.89184 0.0
H353 H 0.91117 0.50262 0.82407 0.0
C354 C 0.88348 0.36478 0.67895 0.0
C355 C 0.91244 0.36527 0.69988 0.0
C356 C 0.87585 0.3935 0.68287 0.0
C357 C 0.89732 0.42346 0.70738 0.0
C358 C 0.92755 0.42506 0.72651 0.0
C359 C 0.93511 0.39632 0.72274 0.0
C360 C 0.88627 0.45134 0.7155 0.0
C361 C 0.87933 0.4566 0.75386 0.0
C362 C 0.87949 0.47019 0.68571 0.0
C363 C 0.8884 0.46759 0.6449 0.0
C364 C 0.9239 0.47506 0.6345 0.0
C365 C 0.93208 0.47236 0.59607 0.0
C366 C 0.90504 0.46242 0.56772 0.0
C367 C 0.86979 0.45523 0.57773 0.0
C368 C 0.86145 0.45786 0.61612 0.0
C369 C 0.83994 0.57315 0.7687 0.0
C370 C 0.80934 0.56678 0.74627 0.0
C371 C 0.85485 0.54989 0.76537 0.0
C372 C 0.83884 0.51948 0.74025 0.0
C373 C 0.80682 0.5117 0.72 0.0
C374 C 0.79223 0.535 0.72298 0.0
C375 C 0.85611 0.49661 0.73309 0.0
C376 C 0.86436 0.49243 0.6949 0.0
C377 C 0.86409 0.4788 0.76303 0.0
C378 C 0.8552 0.48132 0.8038 0.0
C379 C 0.81892 0.47056 0.81485 0.0
C380 C 0.81088 0.47339 0.8533 0.0
C381 C 0.83883 0.48667 0.881 0.0
C382 C 0.87486 0.49702 0.87034 0.0
C383 C 0.88306 0.49427 0.83193 0.0
H384 H 0.83254 0.48887 0.91075 0.0
H385 H 0.91143 0.46035 0.53799 0.0
H386 H 0.24633 0.83844 0.27738 0.0
H387 H 0.31203 0.85925 0.27248 0.0
H388 H 0.28913 0.78004 0.18207 0.0
H389 H 0.2236 0.75902 0.18673 0.0
H390 H 0.34187 0.78497 0.23158 0.0
H391 H 0.3153 0.86702 0.15881 0.0
H392 H 0.29022 0.90875 0.15048 0.0
H393 H 0.36427 0.98122 0.23708 0.0
H394 H 0.38952 0.93968 0.24626 0.0
H395 H 0.51704 0.85728 0.15141 0.0
H396 H 0.45244 0.84086 0.15436 0.0
H397 H 0.47826 0.92121 0.24424 0.0
H398 H 0.54302 0.93834 0.24118 0.0
H399 H 0.42421 0.91644 0.19582 0.0
H400 H 0.45135 0.83421 0.2676 0.0
H401 H 0.47563 0.7918 0.27591 0.0
H402 H 0.39945 0.71874 0.19105 0.0
H403 H 0.37514 0.76106 0.18173 0.0
C404 C 0.25517 0.82523 0.25669 0.0
C405 C 0.22978 0.79774 0.23179 0.0
C406 C 0.29272 0.83717 0.25392 0.0
C407 C 0.30537 0.82168 0.22633 0.0
C408 C 0.27989 0.79256 0.20328 0.0
C409 C 0.24245 0.78073 0.20591 0.0
C410 C 0.34521 0.83708 0.21982 0.0
C411 C 0.35984 0.8136 0.22342 0.0
C412 C 0.36856 0.87457 0.20964 0.0
C413 C 0.35407 0.90007 0.20348 0.0
C414 C 0.32611 0.89176 0.17622 0.0
C415 C 0.31186 0.91537 0.17134 0.0
C416 C 0.32554 0.94754 0.19334 0.0
C417 C 0.35366 0.95626 0.22011 0.0
C418 C 0.36799 0.93272 0.22513 0.0
C419 C 0.50922 0.87211 0.17121 0.0
C420 C 0.53512 0.89861 0.19661 0.0
C421 C 0.47225 0.86259 0.17291 0.0
C422 C 0.46057 0.8792 0.20019 0.0
C423 C 0.48676 0.90788 0.22322 0.0
C424 C 0.52378 0.91754 0.22146 0.0
C425 C 0.42085 0.86425 0.20739 0.0
C426 C 0.40626 0.88781 0.20399 0.0
C427 C 0.39746 0.82676 0.21769 0.0
C428 C 0.41168 0.801 0.22369 0.0
C429 C 0.43995 0.80923 0.25051 0.0
C430 C 0.45371 0.7852 0.25542 0.0
C431 C 0.43915 0.75264 0.23396 0.0
C432 C 0.41074 0.744 0.20761 0.0
C433 C 0.39696 0.768 0.20251 0.0
H434 H 0.44979 0.73405 0.23783 0.0
H435 H 0.31441 0.96574 0.18957 0.0
H436 H 0.46898 0.23719 0.70571 0.0
H437 H 0.51275 0.30293 0.70596 0.0
H438 H 0.44437 0.32033 0.78589 0.0
H439 H 0.3997 0.25374 0.7857 0.0
H440 H 0.46574 0.36786 0.72327 0.0
H441 H 0.52509 0.33142 0.81597 0.0
H442 H 0.54902 0.29282 0.84234 0.0
H443 H 0.62539 0.32408 0.74845 0.0
H444 H 0.60152 0.36242 0.72114 0.0
H445 H 0.60826 0.55731 0.74423 0.0
H446 H 0.55946 0.49326 0.7521 0.0
H447 H 0.61811 0.45783 0.67786 0.0
H448 H 0.6675 0.52193 0.67025 0.0
H449 H 0.59991 0.42066 0.74501 0.0
H450 H 0.53734 0.45245 0.64966 0.0
H451 H 0.51212 0.48917 0.62127 0.0
H452 H 0.44155 0.46597 0.71925 0.0
H453 H 0.46673 0.42951 0.7485 0.0
C454 C 0.4632 0.25475 0.72376 0.0
C455 C 0.43039 0.24009 0.74524 0.0
C456 C 0.48847 0.29245 0.72397 0.0
C457 C 0.48191 0.31658 0.74597 0.0
C458 C 0.44987 0.30212 0.76861 0.0
C459 C 0.42442 0.26404 0.76857 0.0
C460 C 0.50798 0.35692 0.74321 0.0
C461 C 0.49499 0.37966 0.72887 0.0
C462 C 0.54624 0.37202 0.74956 0.0
C463 C 0.56134 0.34967 0.76638 0.0
C464 C 0.54686 0.32993 0.80082 0.0
C465 C 0.56042 0.30809 0.81595 0.0
C466 C 0.58865 0.30594 0.79704 0.0
C467 C 0.6035 0.32577 0.76306 0.0
C468 C 0.59001 0.34761 0.74777 0.0
C469 C 0.61051 0.53603 0.72887 0.0
C470 C 0.64202 0.54484 0.70679 0.0
C471 C 0.58247 0.49935 0.7334 0.0
C472 C 0.58518 0.4707 0.71572 0.0
C473 C 0.61557 0.47952 0.69195 0.0
C474 C 0.64365 0.51624 0.68735 0.0
C475 C 0.5578 0.4315 0.7243 0.0
C476 C 0.57062 0.40902 0.73983 0.0
C477 C 0.51942 0.4167 0.71901 0.0
C478 C 0.50423 0.43859 0.70146 0.0
C479 C 0.51668 0.45545 0.66531 0.0
C480 C 0.50234 0.47616 0.64903 0.0
C481 C 0.47533 0.47999 0.66849 0.0
C482 C 0.46252 0.46303 0.70424 0.0
C483 C 0.4768 0.44231 0.72067 0.0
H484 H 0.46426 0.49604 0.65584 0.0
H485 H 0.59904 0.28894 0.80875 0.0
H486 H 0.14421 0.17841 0.31816 0.0
H487 H 0.16781 0.13607 0.31296 0.0
H488 H 0.21813 0.18438 0.20396 0.0
H489 H 0.19401 0.22682 0.20866 0.0
H490 H 0.158 0.08509 0.25724 0.0
H491 H 0.31112 0.18323 0.21384 0.0
H492 H 0.35711 0.2495 0.2115 0.0
H493 H 0.29826 0.27107 0.299 0.0
H494 H 0.25238 0.20511 0.3024 0.0
H495 H 0.24755 0.98789 0.22381 0.0
H496 H 0.25854 0.05062 0.21399 0.0
H497 H 0.24586 0.06035 0.33564 0.0
H498 H 0.23377 0.99755 0.34533 0.0
H499 H 0.29293 0.13379 0.26667 0.0
H500 H 0.17104 0.02789 0.32654 0.0
H501 H 0.12797 0.96048 0.32768 0.0
H502 H 0.12628 0.95825 0.20409 0.0
H503 H 0.16904 0.0257 0.2025 0.0
C504 C 0.15971 0.17971 0.29273 0.0
C505 C 0.16781 0.20636 0.26409 0.0
C506 C 0.17329 0.15559 0.28987 0.0
C507 C 0.19525 0.1578 0.25846 0.0
C508 C 0.20181 0.18294 0.22873 0.0
C509 C 0.1881 0.2071 0.23153 0.0
C510 C 0.21178 0.13408 0.25809 0.0
C511 C 0.18752 0.09592 0.25904 0.0
C512 C 0.25047 0.1484 0.25979 0.0
C513 C 0.27774 0.18876 0.25798 0.0
C514 C 0.30789 0.20198 0.23264 0.0
C515 C 0.33413 0.23962 0.23123 0.0
C516 C 0.33065 0.26451 0.2551 0.0
C517 C 0.30092 0.2518 0.28043 0.0
C518 C 0.2747 0.21418 0.28202 0.0
C519 C 0.24909 0.00424 0.2486 0.0
C520 C 0.23886 0.98786 0.2851 0.0
C521 C 0.25555 0.04005 0.243 0.0
C522 C 0.25226 0.05956 0.27402 0.0
C523 C 0.24853 0.04558 0.31142 0.0
C524 C 0.24118 0.00952 0.31688 0.0
C525 C 0.23895 0.08544 0.26664 0.0
C526 C 0.26358 0.12351 0.26416 0.0
C527 C 0.20064 0.07153 0.26332 0.0
C528 C 0.17371 0.03145 0.26437 0.0
C529 C 0.16143 0.01292 0.29968 0.0
C530 C 0.13705 0.97477 0.30042 0.0
C531 C 0.12455 0.95505 0.26598 0.0
C532 C 0.13615 0.9735 0.23075 0.0
C533 C 0.16048 0.01164 0.22991 0.0
H534 H 0.10577 0.92552 0.26658 0.0
H535 H 0.35093 0.29365 0.25389 0.0
H536 H 0.98808 0.22066 0.71383 0.0
H537 H 0.0552 0.25031 0.72185 0.0
H538 H 0.03936 0.18464 0.82328 0.0
H539 H 0.97297 0.15544 0.81591 0.0
H540 H 0.08641 0.25466 0.83829 0.0
H541 H 0.06586 0.16878 0.73591 0.0
H542 H 0.05238 0.13864 0.6724 0.0
H543 H 0.13196 0.24096 0.62006 0.0
H544 H 0.14472 0.27212 0.683 0.0
H545 H 0.20687 0.19359 0.85844 0.0
H546 H 0.1658 0.21832 0.85596 0.0
H547 H 0.23579 0.2987 0.77141 0.0
H548 H 0.27687 0.27303 0.77303 0.0
H549 H 0.17226 0.25174 0.74261 0.0
H550 H 0.20389 0.32766 0.85354 0.0
H551 H 0.22406 0.34536 0.92073 0.0
H552 H 0.12727 0.24802 0.961 0.0
H553 H 0.10639 0.22981 0.89414 0.0
C554 C -0.001 0.21247 0.73765 0.0
C555 C 0.9752 0.18622 0.76455 0.0
C556 C 0.03721 0.22945 0.74219 0.0
C557 C 0.05209 0.22031 0.77361 0.0
C558 C 0.02839 0.19265 0.79923 0.0
C559 C 0.99037 0.17563 0.79466 0.0
C560 C 0.09225 0.2394 0.78053 0.0
C561 C 0.10534 0.25422 0.81733 0.0
C562 C 0.11726 0.24051 0.75259 0.0
C563 C 0.10567 0.223 0.71413 0.0
C564 C 0.07964 0.18515 0.71072 0.0
C565 C 0.07229 0.16781 0.67482 0.0
C566 C 0.09132 0.18786 0.64224 0.0
C567 C 0.11719 0.22546 0.64533 0.0
C568 C 0.12419 0.24306 0.68102 0.0
C569 C 0.21416 0.21724 0.84011 0.0
C570 C 0.24416 0.23046 0.81479 0.0
C571 C 0.19102 0.23201 0.83934 0.0
C572 C 0.19761 0.26042 0.81341 0.0
C573 C 0.23027 0.27683 0.79169 0.0
C574 C 0.25351 0.26192 0.7924 0.0
C575 C 0.16583 0.26408 0.80122 0.0
C576 C 0.15403 0.25405 0.7631 0.0
C577 C 0.1418 0.26606 0.82829 0.0
C578 C 0.15351 0.27749 0.86873 0.0
C579 C 0.18688 0.31005 0.87672 0.0
C580 C 0.19841 0.3202 0.91477 0.0
C581 C 0.17696 0.29784 0.94511 0.0
C582 C 0.14386 0.26532 0.93747 0.0
C583 C 0.132 0.25526 0.8995 0.0
H584 H 0.18598 0.3057 0.97454 0.0
H585 H 0.08608 0.17423 0.6146 0.0
H586 H -0.00024 0.27811 0.24984 0.0
H587 H 0.93498 0.23453 0.23556 0.0
H588 H 0.92716 0.17318 0.33839 0.0
H589 H 0.99213 0.21598 0.35227 0.0
H590 H 0.92391 0.16465 0.2228 0.0
H591 H 0.82813 0.12194 0.36207 0.0
H592 H 0.80949 0.15191 0.41053 0.0
H593 H 0.85501 0.25049 0.34213 0.0
H594 H 0.87132 0.22023 0.2915 0.0
H595 H 0.82705 0.97702 0.26621 0.0
H596 H 0.8653 0.0445 0.26136 0.0
H597 H 0.76752 0.05275 0.24594 0.0
H598 H 0.72957 0.98593 0.25276 0.0
H599 H 0.80945 0.09802 0.29953 0.0
H600 H 0.82575 0.07517 0.17165 0.0
H601 H 0.83764 0.04621 0.11588 0.0
H602 H 0.94741 0.08359 0.15692 0.0
H603 H 0.936 0.11211 0.21327 0.0
C604 C 0.98385 0.25619 0.27022 0.0
C605 C 0.00102 0.2498 0.30171 0.0
C606 C 0.94682 0.23145 0.26208 0.0
C607 C 0.92645 0.20069 0.28586 0.0
C608 C 0.94239 0.19697 0.31987 0.0
C609 C 0.97958 0.22119 0.32758 0.0
C610 C 0.89334 0.16789 0.27079 0.0
C611 C 0.89854 0.15031 0.23908 0.0
C612 C 0.86 0.14984 0.2917 0.0
C613 C 0.85144 0.16877 0.32286 0.0
C614 C 0.834 0.14991 0.35699 0.0
C615 C 0.82371 0.16697 0.38491 0.0
C616 C 0.83159 0.20329 0.37977 0.0
C617 C 0.84922 0.22245 0.34628 0.0
C618 C 0.85881 0.20524 0.31778 0.0
C619 C 0.81394 0.99333 0.2613 0.0
C620 C 0.77551 0.97638 0.25861 0.0
C621 C 0.83567 0.0317 0.25817 0.0
C622 C 0.81915 0.05345 0.25253 0.0
C623 C 0.78078 0.03642 0.24966 0.0
C624 C 0.75918 0.99824 0.25289 0.0
C625 C 0.84182 0.09408 0.25384 0.0
C626 C 0.83449 0.11289 0.28276 0.0
C627 C 0.87304 0.11355 0.23015 0.0
C628 C 0.87997 0.09582 0.1967 0.0
C629 C 0.85233 0.077 0.1689 0.0
C630 C 0.85899 0.06069 0.13718 0.0
C631 C 0.89325 0.06311 0.13285 0.0
C632 C 0.92089 0.08174 0.1603 0.0
C633 C 0.91432 0.09798 0.19215 0.0
H634 H 0.89838 0.05054 0.10822 0.0
H635 H 0.82381 0.21649 0.40162 0.0
H636 H 0.77908 0.00533 0.8439 0.0
H637 H 0.76441 0.94232 0.83034 0.0
H638 H 0.72554 0.94913 0.71742 0.0
H639 H 0.73902 0.01198 0.73132 0.0
H640 H 0.70256 0.86757 0.76543 0.0
H641 H 0.79935 0.97941 0.69656 0.0
H642 H 0.84212 0.04684 0.69686 0.0
H643 H 0.89116 0.03728 0.80164 0.0
H644 H 0.84832 0.96983 0.8021 0.0
H645 H 0.79638 0.7699 0.70659 0.0
H646 H 0.77462 0.81401 0.69811 0.0
H647 H 0.82821 0.86788 0.80391 0.0
H648 H 0.84963 0.82399 0.81304 0.0
H649 H 0.83589 0.91554 0.74194 0.0
H650 H 0.74466 0.79925 0.80051 0.0
H651 H 0.69909 0.73303 0.80189 0.0
H652 H 0.63567 0.74854 0.71447 0.0
H653 H 0.68142 0.81496 0.71182 0.0
C654 C 0.76541 0.99262 0.81708 0.0
C655 C 0.76111 0.01356 0.78819 0.0
C656 C 0.75662 0.95649 0.80951 0.0
C657 C 0.74463 0.94162 0.77265 0.0
C658 C 0.73466 0.96026 0.74605 0.0
C659 C 0.74272 0.99628 0.75393 0.0
C660 C 0.7561 0.91583 0.7587 0.0
C661 C 0.7314 0.87773 0.75907 0.0
C662 C 0.79378 0.92957 0.75054 0.0
C663 C 0.82066 0.96975 0.7494 0.0
C664 C 0.81931 0.99175 0.71961 0.0
C665 C 0.8435 0.02994 0.71967 0.0
C666 C 0.86935 0.04633 0.74925 0.0
C667 C 0.87115 0.02454 0.77873 0.0
C668 C 0.84697 0.98635 0.77881 0.0
C669 C 0.80346 0.79113 0.72803 0.0
C670 C 0.82389 0.79296 0.76096 0.0
C671 C 0.7911 0.81618 0.72302 0.0
C672 C 0.79904 0.84321 0.75089 0.0
C673 C 0.82152 0.84672 0.78238 0.0
C674 C 0.83375 0.82168 0.78751 0.0
C675 C 0.78253 0.86685 0.74906 0.0
C676 C 0.80663 0.90493 0.74624 0.0
C677 C 0.74414 0.8527 0.75405 0.0
C678 C 0.71693 0.81238 0.75563 0.0
C679 C 0.72133 0.78872 0.7812 0.0
C680 C 0.69534 0.75101 0.78228 0.0
C681 C 0.6645 0.73652 0.75821 0.0
C682 C 0.65958 0.75976 0.73306 0.0
C683 C 0.68559 0.79747 0.73175 0.0
H684 H 0.64441 0.70731 0.75904 0.0
H685 H 0.88796 0.07591 0.74933 0.0
H686 H 0.78412 0.79613 0.34747 0.0
H687 H 0.82785 0.77481 0.33677 0.0
H688 H 0.76865 0.71724 0.23435 0.0
H689 H 0.72421 0.73781 0.24535 0.0
H690 H 0.83417 0.71048 0.31648 0.0
H691 H 0.83762 0.75907 0.16464 0.0
H692 H 0.81557 0.79279 0.12435 0.0
H693 H 0.81958 0.85735 0.22207 0.0
H694 H 0.84307 0.82508 0.26241 0.0
H695 H 0.02236 0.80398 0.20536 0.0
H696 H 0.95517 0.77484 0.20215 0.0
H697 H 0.95291 0.80213 0.32147 0.0
H698 H 0.01999 0.83106 0.32497 0.0
H699 H 0.90891 0.79973 0.21426 0.0
H700 H 0.8825 0.73118 0.36724 0.0
H701 H 0.91061 0.70416 0.40851 0.0
H702 H 0.95777 0.68262 0.30925 0.0
H703 H 0.92885 0.70837 0.26722 0.0
C704 C 0.77969 0.77779 0.32353 0.0
C705 C 0.7516 0.76936 0.29668 0.0
C706 C 0.80429 0.76518 0.31772 0.0
C707 C 0.80149 0.74487 0.28455 0.0
C708 C 0.77097 0.73279 0.26013 0.0
C709 C 0.74589 0.74484 0.26633 0.0
C710 C 0.83504 0.74584 0.27103 0.0
C711 C 0.85046 0.72931 0.29366 0.0
C712 C 0.85559 0.76972 0.2405 0.0
C713 C 0.84135 0.78917 0.2166 0.0
C714 C 0.83375 0.78044 0.17744 0.0
C715 C 0.82112 0.79937 0.15459 0.0
C716 C 0.81583 0.82692 0.17073 0.0
C717 C 0.82349 0.83586 0.20965 0.0
C718 C 0.83658 0.81736 0.23247 0.0
C719 C 0.00744 0.80397 0.23078 0.0
C720 C 0.02605 0.81932 0.26556 0.0
C721 C 0.96923 0.78717 0.22893 0.0
C722 C 0.94928 0.78512 0.26196 0.0
C723 C 0.96799 0.80248 0.29603 0.0
C724 C 0.00622 0.81952 0.29785 0.0
C725 C 0.90883 0.76587 0.26094 0.0
C726 C 0.89223 0.77907 0.23552 0.0
C727 C 0.88736 0.73889 0.2888 0.0
C728 C 0.90355 0.7219 0.31399 0.0
C729 C 0.89846 0.72028 0.3541 0.0
C730 C 0.91465 0.70523 0.37769 0.0
C731 C 0.9361 0.69177 0.36153 0.0
C732 C 0.9412 0.69309 0.32174 0.0
C733 C 0.92485 0.70786 0.29802 0.0
H734 H 0.94873 0.68022 0.37976 0.0
H735 H 0.80607 0.84154 0.15302 0.0
H736 H 0.23553 0.01286 0.71421 0.0
H737 H 0.20134 0.94531 0.71838 0.0
H738 H 0.14243 0.95127 0.81695 0.0
H739 H 0.17706 0.01831 0.81403 0.0
H740 H 0.1711 0.90752 0.83032 0.0
H741 H 0.09948 0.92206 0.72349 0.0
H742 H 0.0997 0.94721 0.65907 0.0
H743 H 0.15447 0.89256 0.61256 0.0
H744 H 0.15408 0.86668 0.67653 0.0
H745 H 0.99481 0.78709 0.85434 0.0
H746 H 0.06069 0.82752 0.8485 0.0
H747 H 0.06393 0.75981 0.75659 0.0
H748 H -0.00284 0.71917 0.76207 0.0
H749 H 0.08538 0.82414 0.73059 0.0
H750 H 0.12762 0.78668 0.83374 0.0
H751 H 0.13496 0.7645 0.89698 0.0
H752 H 0.14675 0.8621 0.95079 0.0
H753 H 0.13849 0.88451 0.88826 0.0
C754 C 0.21515 -0.00026 0.73656 0.0
C755 C 0.20955 0.02094 0.76415 0.0
C756 C 0.19571 0.96128 0.73883 0.0
C757 C 0.17 0.94357 0.76824 0.0
C758 C 0.1627 0.96457 0.79437 0.0
C759 C 0.18225 0.00291 0.79235 0.0
C760 C 0.1508 0.90314 0.77278 0.0
C761 C 0.15258 0.88886 0.80865 0.0
C762 C 0.12865 0.87897 0.74338 0.0
C763 C 0.12677 0.89254 0.70462 0.0
C764 C 0.11128 0.91521 0.69937 0.0
C765 C 0.11144 0.92956 0.66297 0.0
C766 C 0.12703 0.9214 0.6317 0.0
C767 C 0.14216 0.89859 0.63671 0.0
C768 C 0.14182 0.88394 0.67297 0.0
C769 C 0.00965 0.78016 0.83361 0.0
C770 C 0.99079 0.75077 0.80781 0.0
C771 C 0.04761 0.80296 0.83073 0.0
C772 C 0.06743 0.79686 0.80193 0.0
C773 C 0.04919 0.76504 0.77899 0.0
C774 C 0.01103 0.74199 0.78201 0.0
C775 C 0.10322 0.82846 0.78982 0.0
C776 C 0.1052 0.84169 0.75213 0.0
C777 C 0.12956 0.85147 0.81748 0.0
C778 C 0.13248 0.83736 0.85594 0.0
C779 C 0.1313 0.80326 0.85906 0.0
C780 C 0.1357 0.79066 0.89486 0.0
C781 C 0.14138 0.8119 0.92786 0.0
C782 C 0.14241 0.84569 0.92519 0.0
C783 C 0.13789 0.85837 0.88951 0.0
H784 H 0.14496 0.80217 0.95551 0.0
H785 H 0.12741 0.93275 0.60359 0.0
H786 H 0.21972 0.27361 0.10278 0.0
H787 H 0.23771 0.24066 0.0577 0.0
H788 H 0.30361 0.22925 0.14648 0.0
H789 H 0.28364 0.25923 0.1918 0.0
H790 H 0.30047 0.26727 0.03249 0.0
H791 H 0.32744 0.16421 0.12499 0.0
H792 H 0.29568 0.11698 0.17525 0.0
H793 H 0.19291 0.10977 0.14561 0.0
H794 H 0.22358 0.15588 0.09433 0.0
H795 H 0.38917 0.23321 0.89875 0.0
H796 H 0.39149 0.24791 0.96709 0.0
H797 H 0.30349 0.13662 0.9892 0.0
H798 H 0.30426 0.12088 0.92296 0.0
H799 H 0.32254 0.16257 0.05187 0.0
H800 H 0.28848 0.20835 0.93996 0.0
H801 H 0.29957 0.2417 0.87845 0.0
H802 H 0.38215 0.34167 0.93213 0.0
H803 H 0.37172 0.30872 0.99402 0.0
C804 C 0.23712 0.26304 0.11285 0.0
C805 C 0.25107 0.26988 0.15048 0.0
C806 C 0.2475 0.24434 0.08714 0.0
C807 C 0.27252 0.23299 0.09855 0.0
C808 C 0.28405 0.2373 0.13695 0.0
C809 C 0.27292 0.255 0.16279 0.0
C810 C 0.29078 0.22187 0.06951 0.0
C811 C 0.30491 0.2441 0.03675 0.0
C812 C 0.29662 0.19164 0.07485 0.0
C813 C 0.27805 0.16405 0.10607 0.0
C814 C 0.29804 0.15247 0.12903 0.0
C815 C 0.28018 0.12577 0.15761 0.0
C816 C 0.24238 0.11058 0.16362 0.0
C817 C 0.22224 0.12177 0.14099 0.0
C818 C 0.23985 0.14816 0.11214 0.0
C819 C 0.37195 0.21137 0.91866 0.0
C820 C 0.3445 0.1767 0.90525 0.0
C821 C 0.37309 0.21982 0.95774 0.0
C822 C 0.34535 0.19434 0.98244 0.0
C823 C 0.32414 0.15748 0.97055 0.0
C824 C 0.32423 0.14856 0.93214 0.0
C825 C 0.3309 0.2071 0.01423 0.0
C826 C 0.31807 0.18573 0.04794 0.0
C827 C 0.32317 0.2361 1.00832 0.0
C828 C 0.32974 0.25603 0.97131 0.0
C829 C 0.30908 0.23742 0.93855 0.0
C830 C 0.31524 0.25623 0.90365 0.0
C831 C 0.34162 0.29375 0.9013 0.0
C832 C 0.36183 0.31258 0.93395 0.0
C833 C 0.35584 0.29387 0.96894 0.0
H834 H 0.34632 0.30824 0.87422 0.0
H835 H 0.22859 0.08993 0.18564 0.0
H836 H 0.96591 0.25612 0.59204 0.0
H837 H 0.01997 0.27481 0.55138 0.0
H838 H 0.08952 0.30592 0.65219 0.0
H839 H 0.03638 0.28955 0.69263 0.0
H840 H 0.11517 0.36019 0.60174 0.0
H841 H 0.06684 0.23053 0.59874 0.0
H842 H 0.0212 0.16485 0.58893 0.0
H843 H 0.01601 0.1848 0.46854 0.0
H844 H 0.06117 0.25068 0.47768 0.0
H845 H 0.19935 0.33505 0.40947 0.0
H846 H 0.2009 0.33878 0.47951 0.0
H847 H 0.12791 0.38338 0.47549 0.0
H848 H 0.12531 0.37834 0.4056 0.0
H849 H 0.12564 0.28862 0.49407 0.0
H850 H 0.12702 0.41609 0.56528 0.0
H851 H 0.16913 0.4833 0.56968 0.0
H852 H 0.26147 0.46875 0.54591 0.0
H853 H 0.22004 0.40136 0.54194 0.0
C854 C 0.99259 0.26631 0.60554 0.0
C855 C -0.00317 0.2712 0.64552 0.0
C856 C 0.02341 0.27685 0.58235 0.0
C857 C 0.0586 0.29154 0.59897 0.0
C858 C 0.06258 0.29468 0.63893 0.0
C859 C 0.03204 0.28492 0.66196 0.0
C860 C 0.0916 0.30676 0.57448 0.0
C861 C 0.11776 0.34451 0.57835 0.0
C862 C 0.09516 0.28582 0.54471 0.0
C863 C 0.06805 0.24577 0.53898 0.0
C864 C 0.05625 0.22097 0.57014 0.0
C865 C 0.03026 0.18365 0.5647 0.0
C866 C 0.01587 0.1706 0.52809 0.0
C867 C 0.02734 0.19489 0.49687 0.0
C868 C 0.05323 0.23226 0.5022 0.0
C869 C 0.1848 0.34692 0.42359 0.0
C870 C 0.16046 0.35428 0.40282 0.0
C871 C 0.18637 0.34981 0.46349 0.0
C872 C 0.16368 0.36031 0.48252 0.0
C873 C 0.14547 0.37498 0.4612 0.0
C874 C 0.14366 0.37176 0.42122 0.0
C875 C 0.14701 0.34256 0.51934 0.0
C876 C 0.12374 0.30404 0.51816 0.0
C877 C 0.14522 0.36294 0.55059 0.0
C878 C 0.17032 0.40353 0.55332 0.0
C879 C 0.15633 0.42712 0.56132 0.0
C880 C 0.18009 0.46531 0.56365 0.0
C881 C 0.21794 0.48029 0.55807 0.0
C882 C 0.23213 0.45711 0.55016 0.0
C883 C 0.2085 0.41891 0.5478 0.0
H884 H 0.23628 0.50986 0.55987 0.0
H885 H 0.99574 0.1417 0.52393 0.0
H886 H 0.75896 0.00595 0.15941 0.0
H887 H 0.78492 0.05793 0.11372 0.0
H888 H 0.67613 0.01878 0.06636 0.0
H889 H 0.65134 0.96547 0.10886 0.0
H890 H 0.7198 0.03509 0.01262 0.0
H891 H 0.7276 0.09893 0.13288 0.0
H892 H 0.74837 0.11544 0.20013 0.0
H893 H 0.86119 0.1651 0.16406 0.0
H894 H 0.84116 0.14859 0.09659 0.0
H895 H 0.75976 0.15931 0.88164 0.0
H896 H 0.73993 0.15026 0.94865 0.0
H897 H 0.84527 0.16558 0.98401 0.0
H898 H 0.86565 0.17551 0.91779 0.0
H899 H 0.80234 0.16668 0.04744 0.0
H900 H 0.7958 0.08445 0.94133 0.0
H901 H 0.78247 0.06336 0.87402 0.0
H902 H 0.67271 0.04554 0.8852 0.0
H903 H 0.68563 0.06674 0.95279 0.0
C904 C 0.74113 0.00828 0.13838 0.0
C905 C 0.7036 0.98161 0.13641 0.0
C906 C 0.75567 0.03826 0.11307 0.0
C907 C 0.73234 0.04271 0.08724 0.0
C908 C 0.69473 0.01595 0.08591 0.0
C909 C 0.68063 0.98535 0.10983 0.0
C910 C 0.74684 0.0734 0.05926 0.0
C911 C 0.73679 0.06391 0.02075 0.0
C912 C 0.77068 0.11093 0.06938 0.0
C913 C 0.78282 0.12248 0.10966 0.0
C914 C 0.75684 0.11344 0.13927 0.0
C915 C 0.7685 0.12275 0.17743 0.0
C916 C 0.80608 0.14137 0.18632 0.0
C917 C 0.83211 0.15086 0.15705 0.0
C918 C 0.82062 0.14157 0.11885 0.0
C919 C 0.77941 0.16276 0.90383 0.0
C920 C 0.81341 0.16589 0.89439 0.0
C921 C 0.76822 0.15811 0.94225 0.0
C922 C 0.79059 0.15548 0.97078 0.0
C923 C 0.82732 0.16672 0.96224 0.0
C924 C 0.8387 0.17178 0.92405 0.0
C925 C 0.77308 0.12809 1.00178 0.0
C926 C 0.78363 0.13796 0.04026 0.0
C927 C 0.74989 0.0905 0.99204 0.0
C928 C 0.74177 0.07748 0.95172 0.0
C929 C 0.76886 0.07607 0.92933 0.0
C930 C 0.76137 0.06407 0.89117 0.0
C931 C 0.72677 0.05317 0.87523 0.0
C932 C 0.69952 0.05408 0.89754 0.0
C933 C 0.70689 0.06603 0.93578 0.0
H934 H 0.72101 0.04394 0.84564 0.0
H935 H 0.81504 0.14848 0.21586 0.0
H936 H 0.71659 0.74643 0.69542 0.0
H937 H 0.69829 0.78013 0.65218 0.0
H938 H 0.73736 0.74526 0.5553 0.0
H939 H 0.756 0.71126 0.59847 0.0
H940 H 0.7499 0.81847 0.54954 0.0
H941 H 0.65213 0.6934 0.58214 0.0
H942 H 0.61207 0.6451 0.62838 0.0
H943 H 0.56996 0.7137 0.66865 0.0
H944 H 0.61048 0.76279 0.62323 0.0
H945 H 0.62367 0.75158 0.39636 0.0
H946 H 0.62498 0.74244 0.4654 0.0
H947 H 0.66869 0.8589 0.48396 0.0
H948 H 0.6663 0.868 0.41531 0.0
H949 H 0.61341 0.75772 0.54066 0.0
H950 H 0.74849 0.88953 0.52699 0.0
H951 H 0.78869 0.93438 0.47793 0.0
H952 H 0.75548 0.84662 0.3958 0.0
H953 H 0.7156 0.80127 0.44467 0.0
C954 C 0.72189 0.74632 0.66498 0.0
C955 C 0.73704 0.7255 0.65021 0.0
C956 C 0.71155 0.76578 0.64046 0.0
C957 C 0.71597 0.76454 0.60079 0.0
C958 C 0.73374 0.74633 0.58605 0.0
C959 C 0.74422 0.72683 0.61065 0.0
C960 C 0.6981 0.77813 0.57429 0.0
C961 C 0.72012 0.8058 0.54807 0.0
C962 C 0.65923 0.76157 0.57271 0.0
C963 C 0.63464 0.73191 0.59967 0.0
C964 C 0.63458 0.69831 0.60111 0.0
C965 C 0.61179 0.67079 0.62716 0.0
C966 C 0.58858 0.67638 0.65154 0.0
C967 C 0.588 0.70944 0.64979 0.0
C968 C 0.61093 0.73715 0.62398 0.0
C969 C 0.63141 0.77486 0.41536 0.0
C970 C 0.6466 0.81081 0.40069 0.0
C971 C 0.63203 0.76959 0.4549 0.0
C972 C 0.64786 0.80026 0.47961 0.0
C973 C 0.65636 0.83498 0.46545 0.0
C974 C 0.65562 0.84023 0.42603 0.0
C975 C 0.6652 0.7975 0.51536 0.0
C976 C 0.6432 0.77172 0.5433 0.0
C977 C 0.70415 0.8155 0.51841 0.0
C978 C 0.72891 0.84222 0.48926 0.0
C979 C 0.74997 0.87987 0.4985 0.0
C980 C 0.77267 0.90534 0.47076 0.0
C981 C 0.77449 0.89339 0.43369 0.0
C982 C 0.75396 0.85587 0.42446 0.0
C983 C 0.73139 0.83027 0.45219 0.0
H984 H 0.79186 0.91319 0.41217 0.0
H985 H 0.57096 0.65505 0.67169 0.0
H986 H 0.88031 0.63355 0.90735 0.0
H987 H 0.88122 0.63005 0.9772 0.0
H988 H 0.79665 0.65989 0.98454 0.0
H989 H 0.79602 0.66357 0.9144 0.0
H990 H 0.85698 0.71083 0.0155 0.0
H991 H 0.78613 0.58323 0.03428 0.0
H992 H 0.76155 0.51694 0.02202 0.0
H993 H 0.86829 0.53008 0.04385 0.0
H994 H 0.89371 0.59653 0.05566 0.0
H995 H 0.95316 0.69949 0.20598 0.0
H996 H 0.89835 0.6806 0.16707 0.0
H997 H 0.96658 0.73925 0.06981 0.0
H998 H 0.02207 0.75834 0.1086 0.0
H999 H 0.88696 0.63627 0.10341 0.0
H1000 H 0.91786 0.76808 0.01473 0.0
H1001 H 0.94157 0.83425 0.02659 0.0
H1002 H 0.91153 0.81171 0.14562 0.0
H1003 H 0.88696 0.74521 0.13453 0.0
C1004 C 0.86064 0.63752 0.92379 0.0
C1005 C 0.83898 0.65004 0.9059 0.0
C1006 C 0.861 0.63537 0.96381 0.0
C1007 C 0.83932 0.64523 0.98617 0.0
C1008 C 0.81384 0.65253 0.96788 0.0
C1009 C 0.8137 0.65492 0.9279 0.0
C1010 C 0.85039 0.65704 0.02641 0.0
C1011 C 0.86282 0.69428 0.03517 0.0
C1012 C 0.85691 0.63515 0.05263 0.0
C1013 C 0.84182 0.595 0.04598 0.0
C1014 C 0.80443 0.57205 0.03634 0.0
C1015 C 0.79034 0.53441 0.02946 0.0
C1016 C 0.81334 0.5193 0.03218 0.0
C1017 C 0.85048 0.5418 0.04185 0.0
C1018 C 0.86472 0.57946 0.04876 0.0
C1019 C 0.95672 0.70919 0.17655 0.0
C1020 C 0.99211 0.73002 0.16014 0.0
C1021 C 0.92523 0.69834 0.15447 0.0
C1022 C 0.92851 0.70846 0.11574 0.0
C1023 C 0.96362 0.73146 0.0999 0.0
C1024 C 0.99528 0.74215 0.12195 0.0
C1025 C 0.89616 0.69056 0.09018 0.0
C1026 C 0.87978 0.65231 0.08445 0.0
C1027 C 0.8859 0.71146 0.06679 0.0
C1028 C 0.90055 0.75151 0.07374 0.0
C1029 C 0.91599 0.7771 0.04341 0.0
C1030 C 0.92965 0.81471 0.05003 0.0
C1031 C 0.92804 0.82714 0.08686 0.0
C1032 C 0.91278 0.80198 0.11716 0.0
C1033 C 0.89902 0.76433 0.11073 0.0
H1034 H 0.93863 0.85626 0.09193 0.0
H1035 H 0.80238 0.49017 0.0268 0.0
H1036 H 0.25703 0.96752 0.68687 0.0
H1037 H 0.22284 0.9164 0.64306 0.0
H1038 H 0.25932 0.99251 0.54738 0.0
H1039 H 0.29124 0.04437 0.59171 0.0
H1040 H 0.19503 0.93862 0.53184 0.0
H1041 H 0.30803 0.94786 0.582 0.0
H1042 H 0.34879 0.94918 0.63407 0.0
H1043 H 0.26489 0.84155 0.67144 0.0
H1044 H 0.22352 0.83981 0.61976 0.0
H1045 H 0.25377 0.87603 0.38656 0.0
H1046 H 0.26391 0.88417 0.45581 0.0
H1047 H 0.14854 0.80772 0.47537 0.0
H1048 H 0.13835 0.79914 0.4065 0.0
H1049 H 0.23861 0.84805 0.53756 0.0
H1050 H 0.12254 0.86052 0.48509 0.0
H1051 H 0.09522 0.86954 0.4262 0.0
H1052 H 0.20339 0.94468 0.383 0.0
H1053 H 0.23118 0.93702 0.44233 0.0
C1054 C 0.25655 0.97363 0.6567 0.0
C1055 C 0.27677 0.01008 0.64278 0.0
C1056 C 0.23733 0.94423 0.63162 0.0
C1057 C 0.23927 0.95052 0.59193 0.0
C1058 C 0.25753 0.98701 0.57801 0.0
C1059 C 0.27594 0.01665 0.60331 0.0
C1060 C 0.22582 0.91938 0.56462 0.0
C1061 C 0.2039 0.91837 0.53368 0.0
C1062 C 0.23766 0.89302 0.5667 0.0
C1063 C 0.26263 0.89386 0.59735 0.0
C1064 C 0.29828 0.92456 0.60144 0.0
C1065 C 0.32146 0.92538 0.63086 0.0
C1066 C 0.3094 0.89551 0.65611 0.0
C1067 C 0.27417 0.86469 0.6519 0.0
C1068 C 0.25085 0.86375 0.62255 0.0
C1069 C 0.2311 0.85912 0.40572 0.0
C1070 C 0.195 0.83827 0.39164 0.0
C1071 C 0.23694 0.86359 0.44532 0.0
C1072 C 0.20668 0.84728 0.4704 0.0
C1073 C 0.17209 0.82066 0.45645 0.0
C1074 C 0.16623 0.81617 0.41699 0.0
C1075 C 0.20842 0.86794 0.50513 0.0
C1076 C 0.22821 0.86712 0.53709 0.0
C1077 C 0.19575 0.89349 0.50354 0.0
C1078 C 0.17882 0.89844 0.46827 0.0
C1079 C 0.14041 0.87935 0.46335 0.0
C1080 C 0.12485 0.88421 0.42982 0.0
C1081 C 0.14753 0.90789 0.4009 0.0
C1082 C 0.18581 0.92672 0.40551 0.0
C1083 C 0.20146 0.92224 0.43914 0.0
H1084 H 0.13548 0.91145 0.37484 0.0
H1085 H 0.32737 0.8962 0.67888 0.0
H1086 H 0.69562 0.6701 0.86714 0.0
H1087 H 0.68678 0.69769 0.92467 0.0
H1088 H 0.80378 0.75611 0.94546 0.0
H1089 H 0.81335 0.72986 0.88585 0.0
H1090 H 0.74277 0.71002 0.01401 0.0
H1091 H 0.78836 0.81154 0.92519 0.0
H1092 H 0.79381 0.84669 0.86624 0.0
H1093 H 0.67964 0.8154 0.87448 0.0
H1094 H 0.67343 0.77982 0.93349 0.0
H1095 H 0.73299 0.81852 0.1658 0.0
H1096 H 0.75269 0.79956 0.10817 0.0
H1097 H 0.65287 0.77796 0.05017 0.0
H1098 H 0.63332 0.7976 0.10813 0.0
H1099 H 0.70954 0.80773 1.00041 0.0
H1100 H 0.66569 0.71017 0.09267 0.0
H1101 H 0.66288 0.68168 0.15558 0.0
H1102 H 0.77437 0.70534 0.1418 0.0
H1103 H 0.77831 0.73498 0.07925 0.0
C1104 C 0.71979 0.68863 0.88379 0.0
C1105 C 0.75536 0.69718 0.87145 0.0
C1106 C 0.71451 0.70454 0.91691 0.0
C1107 C 0.74445 0.72928 0.93959 0.0
C1108 C 0.78007 0.73712 0.92852 0.0
C1109 C 0.78553 0.7217 0.89455 0.0
C1110 C 0.7376 0.74658 0.97435 0.0
C1111 C 0.73629 0.73195 0.01115 0.0
C1112 C 0.72772 0.77428 0.9708 0.0
C1113 C 0.73035 0.79268 0.93352 0.0
C1114 C 0.76423 0.81155 0.91405 0.0
C1115 C 0.76754 0.83183 0.8808 0.0
C1116 C 0.73716 0.83349 0.86678 0.0
C1117 C 0.7032 0.81427 0.88553 0.0
C1118 C 0.69978 0.79405 0.91888 0.0
C1119 C 0.71564 0.81065 0.14041 0.0
C1120 C 0.68192 0.8104 0.1414 0.0
C1121 C 0.72675 0.7993 0.1075 0.0
C1122 C 0.7042 0.78656 0.07456 0.0
C1123 C 0.67099 0.78756 0.07496 0.0
C1124 C 0.65987 0.79911 0.10805 0.0
C1125 C 0.71495 0.7715 0.04041 0.0
C1126 C 0.71639 0.78608 1.00355 0.0
C1127 C 0.725 0.74377 0.04403 0.0
C1128 C 0.7225 0.72541 0.08145 0.0
C1129 C 0.6898 0.70972 0.1032 0.0
C1130 C 0.688 0.69336 0.13884 0.0
C1131 C 0.71853 0.69196 0.15282 0.0
C1132 C 0.75084 0.70669 0.13106 0.0
C1133 C 0.75287 0.72331 0.09551 0.0
H1134 H 0.71708 0.67928 0.18041 0.0
H1135 H 0.73992 0.84963 0.84136 0.0
H1136 H 0.07727 0.81286 0.38166 0.0
H1137 H 0.0433 0.80269 0.44282 0.0
H1138 H 0.00959 0.68714 0.43838 0.0
H1139 H 0.04325 0.69716 0.3785 0.0
H1140 H 0.95146 0.6911 0.44857 0.0
H1141 H 0.06461 0.74152 0.51458 0.0
H1142 H 0.12674 0.78169 0.54143 0.0
H1143 H 0.09854 0.86477 0.56701 0.0
H1144 H 0.03608 0.82484 0.54102 0.0
H1145 H 0.88213 0.63381 0.64232 0.0
H1146 H 0.91855 0.65178 0.58285 0.0
H1147 H 0.91178 0.75096 0.57719 0.0
H1148 H 0.87394 0.73224 0.63618 0.0
H1149 H 0.98884 0.75843 0.57238 0.0
H1150 H 0.86911 0.69657 0.51229 0.0
H1151 H 0.80613 0.6447 0.50118 0.0
H1152 H 0.84967 0.57464 0.47085 0.0
H1153 H 0.91291 0.62596 0.48236 0.0
C1154 C 0.06372 0.7856 0.3945 0.0
C1155 C 0.06343 0.75595 0.37484 0.0
C1156 C 0.04397 0.77966 0.42953 0.0
C1157 C 0.02315 0.74388 0.44568 0.0
C1158 C 0.02477 0.71495 0.42696 0.0
C1159 C 0.04442 0.72085 0.39248 0.0
C1160 C -0.00322 0.73522 0.47932 0.0
C1161 C 0.95997 0.70618 0.47542 0.0
C1162 C 0.00699 0.75418 0.51515 0.0
C1163 C 0.0459 0.78048 0.52516 0.0
C1164 C 0.07193 0.76869 0.52517 0.0
C1165 C 0.10703 0.79118 0.54081 0.0
C1166 C 0.1166 0.82571 0.55603 0.0
C1167 C 0.09109 0.83791 0.55555 0.0
C1168 C 0.05585 0.81539 0.5403 0.0
C1169 C 0.8874 0.65892 0.62781 0.0
C1170 C 0.8743 0.68112 0.64385 0.0
C1171 C 0.90856 0.66936 0.59383 0.0
C1172 C 0.91832 0.70291 0.57522 0.0
C1173 C 0.90477 0.72493 0.59073 0.0
C1174 C 0.88267 0.71397 0.6243 0.0
C1175 C 0.94386 0.71528 0.54077 0.0
C1176 C 0.98037 0.74452 0.54479 0.0
C1177 C 0.93372 0.69598 0.50533 0.0
C1178 C 0.89573 0.66501 0.49863 0.0
C1179 C 0.86524 0.67 0.50367 0.0
C1180 C 0.8295 0.64072 0.49719 0.0
C1181 C 0.82389 0.60636 0.48543 0.0
C1182 C 0.85404 0.60125 0.48003 0.0
C1183 C 0.88984 0.63043 0.48649 0.0
H1184 H 0.7962 0.58373 0.48041 0.0
H1185 H 0.1438 0.84299 0.56807 0.0
H1186 H 0.34098 0.0345 0.87081 0.0
H1187 H 0.31191 0.99525 0.92681 0.0
H1188 H 0.22797 0.02589 0.92574 0.0
H1189 H 0.25758 0.06589 0.86955 0.0
H1190 H 0.24582 0.01995 0.99902 0.0
H1191 H 0.21801 0.94442 0.88634 0.0
H1192 H 0.23276 0.92029 0.8284 0.0
H1193 H 0.28636 0.87656 0.89817 0.0
H1194 H 0.27408 0.90225 0.95626 0.0
H1195 H 0.13241 0.8735 0.13061 0.0
H1196 H 0.15201 0.90975 0.07055 0.0
H1197 H 0.24566 0.89378 0.06393 0.0
H1198 H 0.22652 0.85838 0.12407 0.0
H1199 H 0.21614 0.88952 0.99169 0.0
H1200 H 0.25933 0.97392 0.09696 0.0
H1201 H 0.25528 0.00277 0.157 0.0
H1202 H 0.17898 0.02929 0.10376 0.0
H1203 H 0.18271 0.00059 0.04307 0.0
C1204 C 0.31673 0.03357 0.88288 0.0
C1205 C 0.30203 0.05392 0.86561 0.0
C1206 C 0.29976 0.01061 0.91485 0.0
C1207 C 0.26691 0.00643 0.93041 0.0
C1208 C 0.25306 0.02812 0.91444 0.0
C1209 C 0.27027 0.05142 0.88239 0.0
C1210 C 0.24702 0.97901 0.96263 0.0
C1211 C 0.2387 0.99127 0.99686 0.0
C1212 C 0.23836 0.94145 0.96093 0.0
C1213 C 0.24535 0.92563 0.92579 0.0
C1214 C 0.23331 0.93003 0.88937 0.0
C1215 C 0.2412 0.91604 0.85647 0.0
C1216 C 0.26015 0.89667 0.85967 0.0
C1217 C 0.2716 0.89152 0.89573 0.0
C1218 C 0.26438 0.90598 0.92864 0.0
C1219 C 0.15643 0.87662 0.11561 0.0
C1220 C 0.17736 0.86217 0.13186 0.0
C1221 C 0.16801 0.8979 0.08145 0.0
C1222 C 0.20065 0.90502 0.06235 0.0
C1223 C 0.22039 0.88887 0.0776 0.0
C1224 C 0.20924 0.86829 0.112 0.0
C1225 C 0.21548 0.9307 0.02793 0.0
C1226 C 0.2228 0.91809 0.99339 0.0
C1227 C 0.22388 0.96802 0.02943 0.0
C1228 C 0.22081 0.98459 0.06578 0.0
C1229 C 0.24135 0.98552 0.09819 0.0
C1230 C 0.23918 0.0019 0.13228 0.0
C1231 C 0.21656 0.01745 0.13431 0.0
C1232 C 0.1963 0.01699 0.10214 0.0
C1233 C 0.19849 0.00075 0.06785 0.0
H1234 H 0.21491 0.02999 0.16074 0.0
H1235 H 0.26605 0.88574 0.83417 0.0
H1236 H 0.33423 0.2501 0.65785 0.0
H1237 H 0.31197 0.26559 0.6002 0.0
H1238 H 0.26171 0.15262 0.56204 0.0
H1239 H 0.28427 0.13669 0.6205 0.0
H1240 H 0.29053 0.19616 0.50212 0.0
H1241 H 0.20953 0.19044 0.60014 0.0
H1242 H 0.19046 0.20322 0.66267 0.0
H1243 H 0.24358 0.31865 0.63496 0.0
H1244 H 0.26335 0.30668 0.57246 0.0
H1245 H 0.17638 0.26672 0.38432 0.0
H1246 H 0.18437 0.23854 0.44343 0.0
H1247 H 0.30149 0.29419 0.42378 0.0
H1248 H 0.29414 0.32341 0.36667 0.0
H1249 H 0.22685 0.26867 0.51247 0.0
H1250 H 0.33213 0.23552 0.44194 0.0
H1251 H 0.3417 0.20938 0.38237 0.0
H1252 H 0.22595 0.15661 0.35715 0.0
H1253 H 0.2158 0.18297 0.4162 0.0
C1254 C 0.3186 0.22828 0.63729 0.0
C1255 C 0.31111 0.19189 0.64447 0.0
C1256 C 0.30547 0.23728 0.60417 0.0
C1257 C 0.28409 0.21031 0.57666 0.0
C1258 C 0.27776 0.17414 0.58273 0.0
C1259 C 0.29093 0.16501 0.61621 0.0
C1260 C 0.26938 0.2205 0.54158 0.0
C1261 C 0.27663 0.21201 0.50465 0.0
C1262 C 0.25 0.2403 0.54408 0.0
C1263 C 0.23829 0.24769 0.58173 0.0
C1264 C 0.21744 0.2186 0.60751 0.0
C1265 C 0.20645 0.22569 0.64293 0.0
C1266 C 0.21602 0.26175 0.65286 0.0
C1267 C 0.23632 0.29076 0.62728 0.0
C1268 C 0.24738 0.28382 0.59182 0.0
C1269 C 0.20391 0.27375 0.39311 0.0
C1270 C 0.23455 0.2981 0.37048 0.0
C1271 C 0.20847 0.25722 0.42684 0.0
C1272 C 0.24361 0.26362 0.43817 0.0
C1273 C 0.27401 0.28813 0.41582 0.0
C1274 C 0.26964 0.30512 0.38295 0.0
C1275 C 0.24948 0.24559 0.47325 0.0
C1276 C 0.24072 0.25278 0.51012 0.0
C1277 C 0.26674 0.22388 0.47081 0.0
C1278 C 0.27329 0.21142 0.43331 0.0
C1279 C 0.30881 0.2187 0.42342 0.0
C1280 C 0.31432 0.20383 0.38979 0.0
C1281 C 0.28443 0.18125 0.3661 0.0
C1282 C 0.24907 0.17416 0.37553 0.0
C1283 C 0.24348 0.18935 0.40887 0.0
H1284 H 0.28868 0.16924 0.34047 0.0
H1285 H 0.20762 0.26722 0.68033 0.0
H1286 H 0.06813 0.32324 0.16269 0.0
H1287 H 0.03528 0.3057 0.10225 0.0
H1288 H 0.11915 0.28748 0.05344 0.0
H1289 H 0.1533 0.30575 0.11518 0.0
H1290 H 0.09511 0.3227 1.00118 0.0
H1291 H 0.03606 0.214 0.07929 0.0
H1292 H 0.00547 0.17602 0.13655 0.0
H1293 H 0.92023 0.20397 0.12811 0.0
H1294 H 0.95044 0.2424 0.07106 0.0
H1295 H 0.98542 0.23565 0.83685 0.0
H1296 H 0.02044 0.24587 0.89634 0.0
H1297 H 0.93888 0.25938 0.95812 0.0
H1298 H 0.90331 0.24839 0.89807 0.0
H1299 H 0.96349 0.22408 1.0028 0.0
H1300 H 0.02211 0.33353 0.92613 0.0
H1301 H 0.05036 0.36967 0.86726 0.0
H1302 H 0.13558 0.34149 0.87285 0.0
H1303 H 0.10755 0.30498 0.93165 0.0
C1304 C 0.08033 0.31601 0.13932 0.0
C1305 C 0.11398 0.31632 0.1445 0.0
C1306 C 0.06095 0.30549 0.10445 0.0
C1307 C 0.07399 0.29449 0.07294 0.0
C1308 C 0.1081 0.29559 0.07722 0.0
C1309 C 0.12773 0.3061 0.11264 0.0
C1310 C 0.05138 0.28188 0.03626 0.0
C1311 C 0.06656 0.30064 1.00148 0.0
C1312 C 0.01355 0.25382 0.03629 0.0
C1313 C 0.99571 0.23133 0.07107 0.0
C1314 C 0.01099 0.21234 0.08986 0.0
C1315 C 0.99366 0.19065 0.12221 0.0
C1316 C 0.96098 0.18765 0.13593 0.0
C1317 C 0.94554 0.20632 0.11742 0.0
C1318 C 0.96272 0.22802 0.08505 0.0
C1319 C 0.97438 0.23979 0.86333 0.0
C1320 C 0.94111 0.24042 0.86275 0.0
C1321 C 0.99479 0.2462 0.8974 0.0
C1322 C 0.98309 0.25434 0.93208 0.0
C1323 C 0.94889 0.25339 0.93197 0.0
C1324 C 0.92829 0.24679 0.89764 0.0
C1325 C 0.0071 0.26497 0.96776 0.0
C1326 C 0.99212 0.24597 1.0024 0.0
C1327 C 0.04498 0.29299 0.96761 0.0
C1328 C 0.06242 0.31594 0.93293 0.0
C1329 C 0.04673 0.33482 0.91467 0.0
C1330 C 0.06272 0.35544 0.88134 0.0
C1331 C 0.09464 0.3577 0.86619 0.0
C1332 C 0.11077 0.33958 0.88451 0.0
C1333 C 0.09486 0.31894 0.91783 0.0
H1334 H 0.10695 0.37363 0.84036 0.0
H1335 H 0.9476 0.17079 0.16081 0.0
H1336 H 0.86691 0.14545 0.6162 0.0
H1337 H 0.84769 0.10783 0.55686 0.0
H1338 H 0.73451 0.07575 0.57977 0.0
H1339 H 0.75351 0.11285 0.63826 0.0
H1340 H 0.73892 0.01578 0.56371 0.0
H1341 H 0.78873 0.1384 0.50869 0.0
H1342 H 0.83882 0.20214 0.49661 0.0
H1343 H 0.90224 0.16096 0.44083 0.0
H1344 H 0.85285 0.09692 0.45333 0.0
H1345 H 0.66537 0.97828 0.35917 0.0
H1346 H 0.69516 0.01569 0.4159 0.0
H1347 H 0.75008 0.95391 0.43668 0.0
H1348 H 0.72177 0.9172 0.37805 0.0
H1349 H 0.78068 0.05893 0.43061 0.0
H1350 H 0.73752 0.94986 0.54875 0.0
H1351 H 0.68716 0.88821 0.56791 0.0
H1352 H 0.61073 0.90361 0.49916 0.0
H1353 H 0.66045 0.96559 0.48025 0.0
C1354 C 0.83809 0.13118 0.60798 0.0
C1355 C 0.8118 0.13245 0.63221 0.0
C1356 C 0.82698 0.10928 0.57411 0.0
C1357 C 0.78935 0.08827 0.56355 0.0
C1358 C 0.76357 0.091 0.58702 0.0
C1359 C 0.77457 0.11264 0.62051 0.0
C1360 C 0.77589 0.06254 0.5291 0.0
C1361 C 0.7485 0.02533 0.5347 0.0
C1362 C 0.78812 0.07434 0.49087 0.0
C1363 C 0.81729 0.11284 0.48245 0.0
C1364 C 0.81351 0.14292 0.49421 0.0
C1365 C 0.84181 0.17912 0.48734 0.0
C1366 C 0.87383 0.1856 0.46827 0.0
C1367 C 0.87753 0.15589 0.45584 0.0
C1368 C 0.84939 0.11964 0.4628 0.0
C1369 C 0.68355 0.97213 0.37571 0.0
C1370 C 0.69029 0.94375 0.36378 0.0
C1371 C 0.70079 0.9939 0.40833 0.0
C1372 C 0.72501 0.98788 0.43098 0.0
C1373 C 0.73134 0.95908 0.42001 0.0
C1374 C 0.71463 0.93763 0.3866 0.0
C1375 C 0.74364 0.01233 0.46543 0.0
C1376 C 0.77182 0.04928 0.45975 0.0
C1377 C 0.73243 0.00028 0.50372 0.0
C1378 C 0.70285 0.96213 0.51262 0.0
C1379 C 0.70999 0.94001 0.53761 0.0
C1380 C 0.6815 0.90515 0.5487 0.0
C1381 C 0.64571 0.89214 0.53501 0.0
C1382 C 0.63845 0.91377 0.50981 0.0
C1383 C 0.66682 0.94872 0.49877 0.0
H1384 H 0.62369 0.86513 0.54359 0.0
H1385 H 0.89563 0.21363 0.46283 0.0
loop_
_geom_bond_atom_site_label_1
_geom_bond_atom_site_label_2
_geom_bond_distance
_geom_bond_site_symmetry_2
_ccdc_geom_bond_type
C0 O27 1.312 . S
C0 O28 1.208 . S
C1 O22 1.331 . S
C1 O25 1.244 . S
C2 O24 1.264 . S
C2 O26 1.273 . S
Mg3 O5 1.936 . S
Mg3 O12 2.081 . S
Mg3 O14 2.023 . S
Mg3 O18 2.031 . S
Mg3 O27 2.291 . S
Mg4 O5 1.963 . S
Mg4 O15 1.942 . S
Mg4 O16 1.955 . S
Mg4 O23 1.986 . S
O5 Mg3 1.936 . S
O5 Mg4 1.963 . S
O5 Mg6 1.915 . S
Mg6 O5 1.915 . S
Mg6 O7 1.915 . S
Mg6 O11 2.013 . S
Mg6 O17 2.114 . S
Mg6 O21 2.013 . S
Mg6 O27 2.114 . S
O7 Mg6 1.915 . S
O7 Mg8 1.936 . S
O7 Mg9 1.963 . S
Mg8 O7 1.936 . S
Mg8 O17 2.291 . S
Mg8 O22 2.081 . S
Mg8 O24 2.023 . S
Mg8 O28 2.031 . S
Mg9 O7 1.963 . S
Mg9 O13 1.986 . S
Mg9 O25 1.942 . S
Mg9 O26 1.955 . S
C10 O21 1.191 . S
C10 O23 1.307 . S
O11 Mg6 2.013 . S
O11 C30 1.191 . S
O12 Mg3 2.081 . S
O12 C20 1.331 . S
O13 Mg9 1.986 . S
O13 C30 1.307 . S
O14 Mg3 2.023 . S
O14 C29 1.264 . S
O15 Mg4 1.942 . S
O15 C20 1.244 . S
O16 Mg4 1.955 . S
O16 C29 1.273 . S
O17 Mg6 2.114 . S
O17 Mg8 2.291 . S
O17 C19 1.312 . S
O18 Mg3 2.031 . S
O18 C19 1.208 . S
C19 O17 1.312 . S
C19 O18 1.208 . S
C20 O12 1.331 . S
C20 O15 1.244 . S
O21 Mg6 2.013 . S
O21 C10 1.191 . S
O22 C1 1.331 . S
O22 Mg8 2.081 . S
O23 Mg4 1.986 . S
O23 C10 1.307 . S
O24 C2 1.264 . S
O24 Mg8 2.023 . S
O25 C1 1.244 . S
O25 Mg9 1.942 . S
O26 C2 1.273 . S
O26 Mg9 1.955 . S
O27 C0 1.312 . S
O27 Mg3 2.291 . S
O27 Mg6 2.114 . S
O28 C0 1.208 . S
O28 Mg8 2.031 . S
C29 O14 1.264 . S
C29 O16 1.273 . S
C30 O11 1.191 . S
C30 O13 1.307 . S
C31 O58 1.312 . S
C31 O59 1.208 . S
C32 O53 1.331 . S
C32 O56 1.244 . S
C33 O55 1.264 . S
C33 O57 1.273 . S
Mg34 O36 1.936 . S
Mg34 O43 2.081 . S
Mg34 O45 2.023 . S
Mg34 O49 2.031 . S
Mg34 O58 2.291 . S
Mg35 O36 1.963 . S
Mg35 O46 1.942 . S
Mg35 O47 1.955 . S
Mg35 O54 1.986 . S
O36 Mg34 1.936 . S
O36 Mg35 1.963 . S
O36 Mg37 1.915 . S
Mg37 O36 1.915 . S
Mg37 O38 1.915 . S
Mg37 O42 2.013 . S
Mg37 O48 2.114 . S
Mg37 O52 2.013 . S
Mg37 O58 2.114 . S
O38 Mg37 1.915 . S
O38 Mg39 1.936 . S
O38 Mg40 1.963 . S
Mg39 O38 1.936 . S
Mg39 O48 2.291 . S
Mg39 O53 2.081 . S
Mg39 O55 2.023 . S
Mg39 O59 2.031 . S
Mg40 O38 1.963 . S
Mg40 O44 1.986 . S
Mg40 O56 1.942 . S
Mg40 O57 1.955 . S
C41 O52 1.191 . S
C41 O54 1.307 . S
O42 Mg37 2.013 . S
O42 C61 1.191 . S
O43 Mg34 2.081 . S
O43 C51 1.331 . S
O44 Mg40 1.986 . S
O44 C61 1.307 . S
O45 Mg34 2.023 . S
O45 C60 1.264 . S
O46 Mg35 1.942 . S
O46 C51 1.244 . S
O47 Mg35 1.955 . S
O47 C60 1.273 . S
O48 Mg37 2.114 . S
O48 Mg39 2.291 . S
O48 C50 1.312 . S
O49 Mg34 2.031 . S
O49 C50 1.208 . S
C50 O48 1.312 . S
C50 O49 1.208 . S
C51 O43 1.331 . S
C51 O46 1.244 . S
O52 Mg37 2.013 . S
O52 C41 1.191 . S
O53 C32 1.331 . S
O53 Mg39 2.081 . S
O54 Mg35 1.986 . S
O54 C41 1.307 . S
O55 C33 1.264 . S
O55 Mg39 2.023 . S
O56 C32 1.244 . S
O56 Mg40 1.942 . S
O57 C33 1.273 . S
O57 Mg40 1.955 . S
O58 C31 1.312 . S
O58 Mg34 2.291 . S
O58 Mg37 2.114 . S
O59 C31 1.208 . S
O59 Mg39 2.031 . S
C60 O45 1.264 . S
C60 O47 1.273 . S
C61 O42 1.191 . S
C61 O44 1.307 . S
C62 O89 1.312 . S
C62 O90 1.208 . S
C63 O84 1.331 . S
C63 O87 1.244 . S
C64 O86 1.264 . S
C64 O88 1.273 . S
Mg65 O67 1.936 . S
Mg65 O74 2.081 . S
Mg65 O76 2.023 . S
Mg65 O80 2.031 . S
Mg65 O89 2.291 . S
Mg66 O67 1.963 . S
Mg66 O77 1.942 . S
Mg66 O78 1.955 . S
Mg66 O85 1.986 . S
O67 Mg65 1.936 . S
O67 Mg66 1.963 . S
O67 Mg68 1.915 . S
Mg68 O67 1.915 . S
Mg68 O69 1.915 . S
Mg68 O73 2.013 . S
Mg68 O79 2.114 . S
Mg68 O83 2.013 . S
Mg68 O89 2.114 . S
O69 Mg68 1.915 . S
O69 Mg70 1.936 . S
O69 Mg71 1.963 . S
Mg70 O69 1.936 . S
Mg70 O79 2.291 . S
Mg70 O84 2.081 . S
Mg70 O86 2.023 . S
Mg70 O90 2.031 . S
Mg71 O69 1.963 . S
Mg71 O75 1.986 . S
Mg71 O87 1.942 . S
Mg71 O88 1.955 . S
C72 O83 1.191 . S
C72 O85 1.307 . S
O73 Mg68 2.013 . S
O73 C92 1.191 . S
O74 Mg65 2.081 . S
O74 C82 1.331 . S
O75 Mg71 1.986 . S
O75 C92 1.307 . S
O76 Mg65 2.023 . S
O76 C91 1.264 . S
O77 Mg66 1.942 . S
O77 C82 1.244 . S
O78 Mg66 1.955 . S
O78 C91 1.273 . S
O79 Mg68 2.114 . S
O79 Mg70 2.291 . S
O79 C81 1.312 . S
O80 Mg65 2.031 . S
O80 C81 1.208 . S
C81 O79 1.312 . S
C81 O80 1.208 . S
C82 O74 1.331 . S
C82 O77 1.244 . S
O83 Mg68 2.013 . S
O83 C72 1.191 . S
O84 C63 1.331 . S
O84 Mg70 2.081 . S
O85 Mg66 1.986 . S
O85 C72 1.307 . S
O86 C64 1.264 . S
O86 Mg70 2.023 . S
O87 C63 1.244 . S
O87 Mg71 1.942 . S
O88 C64 1.273 . S
O88 Mg71 1.955 . S
O89 C62 1.312 . S
O89 Mg65 2.291 . S
O89 Mg68 2.114 . S
O90 C62 1.208 . S
O90 Mg70 2.031 . S
C91 O76 1.264 . S
C91 O78 1.273 . S
C92 O73 1.191 . S
C92 O75 1.307 . S
C93 O120 1.312 . S
C93 O121 1.208 . S
C94 O115 1.331 . S
C94 O118 1.244 . S
C95 O117 1.264 . S
C95 O119 1.273 . S
Mg96 O98 1.936 . S
Mg96 O105 2.081 . S
Mg96 O107 2.023 . S
Mg96 O111 2.031 . S
Mg96 O120 2.291 . S
Mg97 O98 1.963 . S
Mg97 O108 1.942 . S
Mg97 O109 1.955 . S
Mg97 O116 1.986 . S
O98 Mg96 1.936 . S
O98 Mg97 1.963 . S
O98 Mg99 1.915 . S
Mg99 O98 1.915 . S
Mg99 O100 1.915 . S
Mg99 O104 2.013 . S
Mg99 O110 2.114 . S
Mg99 O114 2.013 . S
Mg99 O120 2.114 . S
O100 Mg99 1.915 . S
O100 Mg101 1.936 . S
O100 Mg102 1.963 . S
Mg101 O100 1.936 . S
Mg101 O110 2.291 . S
Mg101 O115 2.081 . S
Mg101 O117 2.023 . S
Mg101 O121 2.031 . S
Mg102 O100 1.963 . S
Mg102 O106 1.986 . S
Mg102 O118 1.942 . S
Mg102 O119 1.955 . S
C103 O114 1.191 . S
C103 O116 1.307 . S
O104 Mg99 2.013 . S
O104 C123 1.191 . S
O105 Mg96 2.081 . S
O105 C113 1.331 . S
O106 Mg102 1.986 . S
O106 C123 1.307 . S
O107 Mg96 2.023 . S
O107 C122 1.264 . S
O108 Mg97 1.942 . S
O108 C113 1.244 . S
O109 Mg97 1.955 . S
O109 C122 1.273 . S
O110 Mg99 2.114 . S
O110 Mg101 2.291 . S
O110 C112 1.312 . S
O111 Mg96 2.031 . S
O111 C112 1.208 . S
C112 O110 1.312 . S
C112 O111 1.208 . S
C113 O105 1.331 . S
C113 O108 1.244 . S
O114 Mg99 2.013 . S
O114 C103 1.191 . S
O115 C94 1.331 . S
O115 Mg101 2.081 . S
O116 Mg97 1.986 . S
O116 C103 1.307 . S
O117 C95 1.264 . S
O117 Mg101 2.023 . S
O118 C94 1.244 . S
O118 Mg102 1.942 . S
O119 C95 1.273 . S
O119 Mg102 1.955 . S
O120 C93 1.312 . S
O120 Mg96 2.291 . S
O120 Mg99 2.114 . S
O121 C93 1.208 . S
O121 Mg101 2.031 . S
C122 O107 1.264 . S
C122 O109 1.273 . S
C123 O104 1.191 . S
C123 O106 1.307 . S
C124 O151 1.312 . S
C124 O152 1.208 . S
C125 O146 1.331 . S
C125 O149 1.244 . S
C126 O148 1.264 . S
C126 O150 1.273 . S
Mg127 O129 1.936 . S
Mg127 O136 2.081 . S
Mg127 O138 2.023 . S
Mg127 O142 2.031 . S
Mg127 O151 2.291 . S
Mg128 O129 1.963 . S
Mg128 O139 1.942 . S
Mg128 O140 1.955 . S
Mg128 O147 1.986 . S
O129 Mg127 1.936 . S
O129 Mg128 1.963 . S
O129 Mg130 1.915 . S
Mg130 O129 1.915 . S
Mg130 O131 1.915 . S
Mg130 O135 2.013 . S
Mg130 O141 2.114 . S
Mg130 O145 2.013 . S
Mg130 O151 2.114 . S
O131 Mg130 1.915 . S
O131 Mg132 1.936 . S
O131 Mg133 1.963 . S
Mg132 O131 1.936 . S
Mg132 O141 2.291 . S
Mg132 O146 2.081 . S
Mg132 O148 2.023 . S
Mg132 O152 2.031 . S
Mg133 O131 1.963 . S
Mg133 O137 1.986 . S
Mg133 O149 1.942 . S
Mg133 O150 1.955 . S
C134 O145 1.191 . S
C134 O147 1.307 . S
O135 Mg130 2.013 . S
O135 C154 1.191 . S
O136 Mg127 2.081 . S
O136 C144 1.331 . S
O137 Mg133 1.986 . S
O137 C154 1.307 . S
O138 Mg127 2.023 . S
O138 C153 1.264 . S
O139 Mg128 1.942 . S
O139 C144 1.244 . S
O140 Mg128 1.955 . S
O140 C153 1.273 . S
O141 Mg130 2.114 . S
O141 Mg132 2.291 . S
O141 C143 1.312 . S
O142 Mg127 2.031 . S
O142 C143 1.208 . S
C143 O141 1.312 . S
C143 O142 1.208 . S
C144 O136 1.331 . S
C144 O139 1.244 . S
O145 Mg130 2.013 . S
O145 C134 1.191 . S
O146 C125 1.331 . S
O146 Mg132 2.081 . S
O147 Mg128 1.986 . S
O147 C134 1.307 . S
O148 C126 1.264 . S
O148 Mg132 2.023 . S
O149 C125 1.244 . S
O149 Mg133 1.942 . S
O150 C126 1.273 . S
O150 Mg133 1.955 . S
O151 C124 1.312 . S
O151 Mg127 2.291 . S
O151 Mg130 2.114 . S
O152 C124 1.208 . S
O152 Mg132 2.031 . S
C153 O138 1.264 . S
C153 O140 1.273 . S
C154 O135 1.191 . S
C154 O137 1.307 . S
C155 O182 1.312 . S
C155 O183 1.208 . S
C156 O177 1.331 . S
C156 O180 1.244 . S
C157 O179 1.264 . S
C157 O181 1.273 . S
Mg158 O160 1.936 . S
Mg158 O167 2.081 . S
Mg158 O169 2.023 . S
Mg158 O173 2.031 . S
Mg158 O182 2.291 . S
Mg159 O160 1.963 . S
Mg159 O170 1.942 . S
Mg159 O171 1.955 . S
Mg159 O178 1.986 . S
O160 Mg158 1.936 . S
O160 Mg159 1.963 . S
O160 Mg161 1.915 . S
Mg161 O160 1.915 . S
Mg161 O162 1.915 . S
Mg161 O166 2.013 . S
Mg161 O172 2.114 . S
Mg161 O176 2.013 . S
Mg161 O182 2.114 . S
O162 Mg161 1.915 . S
O162 Mg163 1.936 . S
O162 Mg164 1.963 . S
Mg163 O162 1.936 . S
Mg163 O172 2.291 . S
Mg163 O177 2.081 . S
Mg163 O179 2.023 . S
Mg163 O183 2.031 . S
Mg164 O162 1.963 . S
Mg164 O168 1.986 . S
Mg164 O180 1.942 . S
Mg164 O181 1.955 . S
C165 O176 1.191 . S
C165 O178 1.307 . S
O166 Mg161 2.013 . S
O166 C185 1.191 . S
O167 Mg158 2.081 . S
O167 C175 1.331 . S
O168 Mg164 1.986 . S
O168 C185 1.307 . S
O169 Mg158 2.023 . S
O169 C184 1.264 . S
O170 Mg159 1.942 . S
O170 C175 1.244 . S
O171 Mg159 1.955 . S
O171 C184 1.273 . S
O172 Mg161 2.114 . S
O172 Mg163 2.291 . S
O172 C174 1.312 . S
O173 Mg158 2.031 . S
O173 C174 1.208 . S
C174 O172 1.312 . S
C174 O173 1.208 . S
C175 O167 1.331 . S
C175 O170 1.244 . S
O176 Mg161 2.013 . S
O176 C165 1.191 . S
O177 C156 1.331 . S
O177 Mg163 2.081 . S
O178 Mg159 1.986 . S
O178 C165 1.307 . S
O179 C157 1.264 . S
O179 Mg163 2.023 . S
O180 C156 1.244 . S
O180 Mg164 1.942 . S
O181 C157 1.273 . S
O181 Mg164 1.955 . S
O182 C155 1.312 . S
O182 Mg158 2.291 . S
O182 Mg161 2.114 . S
O183 C155 1.208 . S
O183 Mg163 2.031 . S
C184 O169 1.264 . S
C184 O171 1.273 . S
C185 O166 1.191 . S
C185 O168 1.307 . S
H186 C204 0.951 . S
H187 C206 0.951 . S
H188 C208 0.950 . S
H189 C209 0.950 . S
H190 C211 0.950 . S
H191 C214 0.950 . S
H192 C215 0.950 . S
H193 C217 0.950 . S
H194 C218 0.950 . S
H195 C219 0.951 . S
H196 C221 0.951 . S
H197 C223 0.950 . S
H198 C224 0.950 . S
H199 C226 0.950 . S
H200 C229 0.950 . S
H201 C230 0.950 . S
H202 C232 0.950 . S
H203 C233 0.950 . S
C204 H186 0.951 . S
C204 C205 1.366 . S
C204 C206 1.388 . S
C205 C204 1.366 . S
C205 C209 1.385 . S
C206 H187 0.951 . S
C206 C204 1.388 . S
C206 C207 1.366 . S
C207 C206 1.366 . S
C207 C208 1.414 . S
C207 C210 1.499 . S
C208 H188 0.950 . S
C208 C207 1.414 . S
C208 C209 1.374 . S
C209 H189 0.950 . S
C209 C205 1.385 . S
C209 C208 1.374 . S
C210 C207 1.499 . S
C210 C211 1.373 . S
C210 C212 1.389 . S
C211 H190 0.950 . S
C211 C210 1.373 . S
C211 C227 1.377 . S
C212 C210 1.389 . S
C212 C213 1.524 . S
C212 C226 1.377 . S
C213 C212 1.524 . S
C213 C214 1.397 . S
C213 C218 1.363 . S
C214 H191 0.950 . S
C214 C213 1.397 . S
C214 C215 1.334 . S
C215 H192 0.950 . S
C215 C214 1.334 . S
C215 C216 1.287 . S
C216 C215 1.287 . S
C216 C217 1.524 . S
C216 H235 0.913 . S
C217 H193 0.950 . S
C217 C216 1.524 . S
C217 C218 1.415 . S
C218 H194 0.950 . S
C218 C213 1.363 . S
C218 C217 1.415 . S
C219 H195 0.951 . S
C219 C220 1.366 . S
C219 C221 1.388 . S
C220 C219 1.366 . S
C220 C224 1.385 . S
C221 H196 0.951 . S
C221 C219 1.388 . S
C221 C222 1.366 . S
C222 C221 1.366 . S
C222 C223 1.414 . S
C222 C225 1.499 . S
C223 H197 0.950 . S
C223 C222 1.414 . S
C223 C224 1.374 . S
C224 H198 0.950 . S
C224 C220 1.385 . S
C224 C223 1.374 . S
C225 C222 1.499 . S
C225 C226 1.373 . S
C225 C227 1.389 . S
C226 H199 0.950 . S
C226 C212 1.377 . S
C226 C225 1.373 . S
C227 C211 1.377 . S
C227 C225 1.389 . S
C227 C228 1.524 . S
C228 C227 1.524 . S
C228 C229 1.397 . S
C228 C233 1.363 . S
C229 H200 0.950 . S
C229 C228 1.397 . S
C229 C230 1.334 . S
C230 H201 0.950 . S
C230 C229 1.334 . S
C230 C231 1.287 . S
C231 C230 1.287 . S
C231 C232 1.524 . S
C231 H234 0.999 . S
C232 H202 0.950 . S
C232 C231 1.524 . S
C232 C233 1.415 . S
C233 H203 0.950 . S
C233 C228 1.363 . S
C233 C232 1.415 . S
H234 C231 0.999 . S
H235 C216 0.913 . S
H236 C254 0.951 . S
H237 C256 0.951 . S
H238 C258 0.950 . S
H239 C259 0.950 . S
H240 C261 0.950 . S
H241 C264 0.950 . S
H242 C265 0.950 . S
H243 C267 0.950 . S
H244 C268 0.950 . S
H245 C269 0.951 . S
H246 C271 0.951 . S
H247 C273 0.950 . S
H248 C274 0.950 . S
H249 C276 0.950 . S
H250 C279 0.950 . S
H251 C280 0.950 . S
H252 C282 0.950 . S
H253 C283 0.950 . S
C254 H236 0.951 . S
C254 C255 1.366 . S
C254 C256 1.388 . S
C255 C254 1.366 . S
C255 C259 1.385 . S
C256 H237 0.951 . S
C256 C254 1.388 . S
C256 C257 1.366 . S
C257 C256 1.366 . S
C257 C258 1.414 . S
C257 C260 1.499 . S
C258 H238 0.950 . S
C258 C257 1.414 . S
C258 C259 1.374 . S
C259 H239 0.950 . S
C259 C255 1.385 . S
C259 C258 1.374 . S
C260 C257 1.499 . S
C260 C261 1.373 . S
C260 C262 1.389 . S
C261 H240 0.950 . S
C261 C260 1.373 . S
C261 C277 1.377 . S
C262 C260 1.389 . S
C262 C263 1.524 . S
C262 C276 1.377 . S
C263 C262 1.524 . S
C263 C264 1.397 . S
C263 C268 1.363 . S
C264 H241 0.950 . S
C264 C263 1.397 . S
C264 C265 1.334 . S
C265 H242 0.950 . S
C265 C264 1.334 . S
C265 C266 1.287 . S
C266 C265 1.287 . S
C266 C267 1.524 . S
C266 H285 0.913 . S
C267 H243 0.950 . S
C267 C266 1.524 . S
C267 C268 1.415 . S
C268 H244 0.950 . S
C268 C263 1.363 . S
C268 C267 1.415 . S
C269 H245 0.951 . S
C269 C270 1.366 . S
C269 C271 1.388 . S
C270 C269 1.366 . S
C270 C274 1.385 . S
C271 H246 0.951 . S
C271 C269 1.388 . S
C271 C272 1.366 . S
C272 C271 1.366 . S
C272 C273 1.414 . S
C272 C275 1.499 . S
C273 H247 0.950 . S
C273 C272 1.414 . S
C273 C274 1.374 . S
C274 H248 0.950 . S
C274 C270 1.385 . S
C274 C273 1.374 . S
C275 C272 1.499 . S
C275 C276 1.373 . S
C275 C277 1.389 . S
C276 H249 0.950 . S
C276 C262 1.377 . S
C276 C275 1.373 . S
C277 C261 1.377 . S
C277 C275 1.389 . S
C277 C278 1.524 . S
C278 C277 1.524 . S
C278 C279 1.397 . S
C278 C283 1.363 . S
C279 H250 0.950 . S
C279 C278 1.397 . S
C279 C280 1.334 . S
C280 H251 0.950 . S
C280 C279 1.334 . S
C280 C281 1.287 . S
C281 C280 1.287 . S
C281 C282 1.524 . S
C281 H284 0.999 . S
C282 H252 0.950 . S
C282 C281 1.524 . S
C282 C283 1.415 . S
C283 H253 0.950 . S
C283 C278 1.363 . S
C283 C282 1.415 . S
H284 C281 0.999 . S
H285 C266 0.913 . S
H286 C304 0.951 . S
H287 C306 0.951 . S
H288 C308 0.950 . S
H289 C309 0.950 . S
H290 C311 0.950 . S
H291 C314 0.950 . S
H292 C315 0.950 . S
H293 C317 0.950 . S
H294 C318 0.950 . S
H295 C319 0.951 . S
H296 C321 0.951 . S
H297 C323 0.950 . S
H298 C324 0.950 . S
H299 C326 0.950 . S
H300 C329 0.950 . S
H301 C330 0.950 . S
H302 C332 0.950 . S
H303 C333 0.950 . S
C304 H286 0.951 . S
C304 C305 1.366 . S
C304 C306 1.388 . S
C305 C304 1.366 . S
C305 C309 1.385 . S
C306 H287 0.951 . S
C306 C304 1.388 . S
C306 C307 1.366 . S
C307 C306 1.366 . S
C307 C308 1.414 . S
C307 C310 1.499 . S
C308 H288 0.950 . S
C308 C307 1.414 . S
C308 C309 1.374 . S
C309 H289 0.950 . S
C309 C305 1.385 . S
C309 C308 1.374 . S
C310 C307 1.499 . S
C310 C311 1.373 . S
C310 C312 1.389 . S
C311 H290 0.950 . S
C311 C310 1.373 . S
C311 C327 1.377 . S
C312 C310 1.389 . S
C312 C313 1.524 . S
C312 C326 1.377 . S
C313 C312 1.524 . S
C313 C314 1.397 . S
C313 C318 1.363 . S
C314 H291 0.950 . S
C314 C313 1.397 . S
C314 C315 1.334 . S
C315 H292 0.950 . S
C315 C314 1.334 . S
C315 C316 1.287 . S
C316 C315 1.287 . S
C316 C317 1.524 . S
C316 H335 0.913 . S
C317 H293 0.950 . S
C317 C316 1.524 . S
C317 C318 1.415 . S
C318 H294 0.950 . S
C318 C313 1.363 . S
C318 C317 1.415 . S
C319 H295 0.951 . S
C319 C320 1.366 . S
C319 C321 1.388 . S
C320 C319 1.366 . S
C320 C324 1.385 . S
C321 H296 0.951 . S
C321 C319 1.388 . S
C321 C322 1.366 . S
C322 C321 1.366 . S
C322 C323 1.414 . S
C322 C325 1.499 . S
C323 H297 0.950 . S
C323 C322 1.414 . S
C323 C324 1.374 . S
C324 H298 0.950 . S
C324 C320 1.385 . S
C324 C323 1.374 . S
C325 C322 1.499 . S
C325 C326 1.373 . S
C325 C327 1.389 . S
C326 H299 0.950 . S
C326 C312 1.377 . S
C326 C325 1.373 . S
C327 C311 1.377 . S
C327 C325 1.389 . S
C327 C328 1.524 . S
C328 C327 1.524 . S
C328 C329 1.397 . S
C328 C333 1.363 . S
C329 H300 0.950 . S
C329 C328 1.397 . S
C329 C330 1.334 . S
C330 H301 0.950 . S
C330 C329 1.334 . S
C330 C331 1.287 . S
C331 C330 1.287 . S
C331 C332 1.524 . S
C331 H334 0.999 . S
C332 H302 0.950 . S
C332 C331 1.524 . S
C332 C333 1.415 . S
C333 H303 0.950 . S
C333 C328 1.363 . S
C333 C332 1.415 . S
H334 C331 0.999 . S
H335 C316 0.913 . S
H336 C354 0.951 . S
H337 C356 0.951 . S
H338 C358 0.950 . S
H339 C359 0.950 . S
H340 C361 0.950 . S
H341 C364 0.950 . S
H342 C365 0.950 . S
H343 C367 0.950 . S
H344 C368 0.950 . S
H345 C369 0.951 . S
H346 C371 0.951 . S
H347 C373 0.950 . S
H348 C374 0.950 . S
H349 C376 0.950 . S
H350 C379 0.950 . S
H351 C380 0.950 . S
H352 C382 0.950 . S
H353 C383 0.950 . S
C354 H336 0.951 . S
C354 C355 1.366 . S
C354 C356 1.388 . S
C355 C354 1.366 . S
C355 C359 1.385 . S
C356 H337 0.951 . S
C356 C354 1.388 . S
C356 C357 1.366 . S
C357 C356 1.366 . S
C357 C358 1.414 . S
C357 C360 1.499 . S
C358 H338 0.950 . S
C358 C357 1.414 . S
C358 C359 1.374 . S
C359 H339 0.950 . S
C359 C355 1.385 . S
C359 C358 1.374 . S
C360 C357 1.499 . S
C360 C361 1.373 . S
C360 C362 1.389 . S
C361 H340 0.950 . S
C361 C360 1.373 . S
C361 C377 1.377 . S
C362 C360 1.389 . S
C362 C363 1.524 . S
C362 C376 1.377 . S
C363 C362 1.524 . S
C363 C364 1.397 . S
C363 C368 1.363 . S
C364 H341 0.950 . S
C364 C363 1.397 . S
C364 C365 1.334 . S
C365 H342 0.950 . S
C365 C364 1.334 . S
C365 C366 1.287 . S
C366 C365 1.287 . S
C366 C367 1.524 . S
C366 H385 0.913 . S
C367 H343 0.950 . S
C367 C366 1.524 . S
C367 C368 1.415 . S
C368 H344 0.950 . S
C368 C363 1.363 . S
C368 C367 1.415 . S
C369 H345 0.951 . S
C369 C370 1.366 . S
C369 C371 1.388 . S
C370 C369 1.366 . S
C370 C374 1.385 . S
C371 H346 0.951 . S
C371 C369 1.388 . S
C371 C372 1.366 . S
C372 C371 1.366 . S
C372 C373 1.414 . S
C372 C375 1.499 . S
C373 H347 0.950 . S
C373 C372 1.414 . S
C373 C374 1.374 . S
C374 H348 0.950 . S
C374 C370 1.385 . S
C374 C373 1.374 . S
C375 C372 1.499 . S
C375 C376 1.373 . S
C375 C377 1.389 . S
C376 H349 0.950 . S
C376 C362 1.377 . S
C376 C375 1.373 . S
C377 C361 1.377 . S
C377 C375 1.389 . S
C377 C378 1.524 . S
C378 C377 1.524 . S
C378 C379 1.397 . S
C378 C383 1.363 . S
C379 H350 0.950 . S
C379 C378 1.397 . S
C379 C380 1.334 . S
C380 H351 0.950 . S
C380 C379 1.334 . S
C380 C381 1.287 . S
C381 C380 1.287 . S
C381 C382 1.524 . S
C381 H384 0.999 . S
C382 H352 0.950 . S
C382 C381 1.524 . S
C382 C383 1.415 . S
C383 H353 0.950 . S
C383 C378 1.363 . S
C383 C382 1.415 . S
H384 C381 0.999 . S
H385 C366 0.913 . S
H386 C404 0.951 . S
H387 C406 0.951 . S
H388 C408 0.950 . S
H389 C409 0.950 . S
H390 C411 0.950 . S
H391 C414 0.950 . S
H392 C415 0.950 . S
H393 C417 0.950 . S
H394 C418 0.950 . S
H395 C419 0.951 . S
H396 C421 0.951 . S
H397 C423 0.950 . S
H398 C424 0.950 . S
H399 C426 0.950 . S
H400 C429 0.950 . S
H401 C430 0.950 . S
H402 C432 0.950 . S
H403 C433 0.950 . S
C404 H386 0.951 . S
C404 C405 1.366 . S
C404 C406 1.388 . S
C405 C404 1.366 . S
C405 C409 1.385 . S
C406 H387 0.951 . S
C406 C404 1.388 . S
C406 C407 1.366 . S
C407 C406 1.366 . S
C407 C408 1.414 . S
C407 C410 1.499 . S
C408 H388 0.950 . S
C408 C407 1.414 . S
C408 C409 1.374 . S
C409 H389 0.950 . S
C409 C405 1.385 . S
C409 C408 1.374 . S
C410 C407 1.499 . S
C410 C411 1.373 . S
C410 C412 1.389 . S
C411 H390 0.950 . S
C411 C410 1.373 . S
C411 C427 1.377 . S
C412 C410 1.389 . S
C412 C413 1.524 . S
C412 C426 1.377 . S
C413 C412 1.524 . S
C413 C414 1.397 . S
C413 C418 1.363 . S
C414 H391 0.950 . S
C414 C413 1.397 . S
C414 C415 1.334 . S
C415 H392 0.950 . S
C415 C414 1.334 . S
C415 C416 1.287 . S
C416 C415 1.287 . S
C416 C417 1.524 . S
C416 H435 0.913 . S
C417 H393 0.950 . S
C417 C416 1.524 . S
C417 C418 1.415 . S
C418 H394 0.950 . S
C418 C413 1.363 . S
C418 C417 1.415 . S
C419 H395 0.951 . S
C419 C420 1.366 . S
C419 C421 1.388 . S
C420 C419 1.366 . S
C420 C424 1.385 . S
C421 H396 0.951 . S
C421 C419 1.388 . S
C421 C422 1.366 . S
C422 C421 1.366 . S
C422 C423 1.414 . S
C422 C425 1.499 . S
C423 H397 0.950 . S
C423 C422 1.414 . S
C423 C424 1.374 . S
C424 H398 0.950 . S
C424 C420 1.385 . S
C424 C423 1.374 . S
C425 C422 1.499 . S
C425 C426 1.373 . S
C425 C427 1.389 . S
C426 H399 0.950 . S
C426 C412 1.377 . S
C426 C425 1.373 . S
C427 C411 1.377 . S
C427 C425 1.389 . S
C427 C428 1.524 . S
C428 C427 1.524 . S
C428 C429 1.397 . S
C428 C433 1.363 . S
C429 H400 0.950 . S
C429 C428 1.397 . S
C429 C430 1.334 . S
C430 H401 0.950 . S
C430 C429 1.334 . S
C430 C431 1.287 . S
C431 C430 1.287 . S
C431 C432 1.524 . S
C431 H434 0.999 . S
C432 H402 0.950 . S
C432 C431 1.524 . S
C432 C433 1.415 . S
C433 H403 0.950 . S
C433 C428 1.363 . S
C433 C432 1.415 . S
H434 C431 0.999 . S
H435 C416 0.913 . S
H436 C454 0.951 . S
H437 C456 0.951 . S
H438 C458 0.950 . S
H439 C459 0.950 . S
H440 C461 0.950 . S
H441 C464 0.950 . S
H442 C465 0.950 . S
H443 C467 0.950 . S
H444 C468 0.950 . S
H445 C469 0.951 . S
H446 C471 0.951 . S
H447 C473 0.950 . S
H448 C474 0.950 . S
H449 C476 0.950 . S
H450 C479 0.950 . S
H451 C480 0.950 . S
H452 C482 0.950 . S
H453 C483 0.950 . S
C454 H436 0.951 . S
C454 C455 1.366 . S
C454 C456 1.388 . S
C455 C454 1.366 . S
C455 C459 1.385 . S
C456 H437 0.951 . S
C456 C454 1.388 . S
C456 C457 1.366 . S
C457 C456 1.366 . S
C457 C458 1.414 . S
C457 C460 1.499 . S
C458 H438 0.950 . S
C458 C457 1.414 . S
C458 C459 1.374 . S
C459 H439 0.950 . S
C459 C455 1.385 . S
C459 C458 1.374 . S
C460 C457 1.499 . S
C460 C461 1.373 . S
C460 C462 1.389 . S
C461 H440 0.950 . S
C461 C460 1.373 . S
C461 C477 1.377 . S
C462 C460 1.389 . S
C462 C463 1.524 . S
C462 C476 1.377 . S
C463 C462 1.524 . S
C463 C464 1.397 . S
C463 C468 1.363 . S
C464 H441 0.950 . S
C464 C463 1.397 . S
C464 C465 1.334 . S
C465 H442 0.950 . S
C465 C464 1.334 . S
C465 C466 1.287 . S
C466 C465 1.287 . S
C466 C467 1.524 . S
C466 H485 0.913 . S
C467 H443 0.950 . S
C467 C466 1.524 . S
C467 C468 1.415 . S
C468 H444 0.950 . S
C468 C463 1.363 . S
C468 C467 1.415 . S
C469 H445 0.951 . S
C469 C470 1.366 . S
C469 C471 1.388 . S
C470 C469 1.366 . S
C470 C474 1.385 . S
C471 H446 0.951 . S
C471 C469 1.388 . S
C471 C472 1.366 . S
C472 C471 1.366 . S
C472 C473 1.414 . S
C472 C475 1.499 . S
C473 H447 0.950 . S
C473 C472 1.414 . S
C473 C474 1.374 . S
C474 H448 0.950 . S
C474 C470 1.385 . S
C474 C473 1.374 . S
C475 C472 1.499 . S
C475 C476 1.373 . S
C475 C477 1.389 . S
C476 H449 0.950 . S
C476 C462 1.377 . S
C476 C475 1.373 . S
C477 C461 1.377 . S
C477 C475 1.389 . S
C477 C478 1.524 . S
C478 C477 1.524 . S
C478 C479 1.397 . S
C478 C483 1.363 . S
C479 H450 0.950 . S
C479 C478 1.397 . S
C479 C480 1.334 . S
C480 H451 0.950 . S
C480 C479 1.334 . S
C480 C481 1.287 . S
C481 C480 1.287 . S
C481 C482 1.524 . S
C481 H484 0.999 . S
C482 H452 0.950 . S
C482 C481 1.524 . S
C482 C483 1.415 . S
C483 H453 0.950 . S
C483 C478 1.363 . S
C483 C482 1.415 . S
H484 C481 0.999 . S
H485 C466 0.913 . S
H486 C504 0.951 . S
H487 C506 0.951 . S
H488 C508 0.950 . S
H489 C509 0.950 . S
H490 C511 0.950 . S
H491 C514 0.950 . S
H492 C515 0.950 . S
H493 C517 0.950 . S
H494 C518 0.950 . S
H495 C519 0.951 . S
H496 C521 0.951 . S
H497 C523 0.950 . S
H498 C524 0.950 1_565 S
H499 C526 0.950 . S
H500 C529 0.950 . S
H501 C530 0.950 1_565 S
H502 C532 0.950 . S
H503 C533 0.950 . S
C504 H486 0.951 . S
C504 C505 1.366 . S
C504 C506 1.388 . S
C505 C504 1.366 . S
C505 C509 1.385 . S
C506 H487 0.951 . S
C506 C504 1.388 . S
C506 C507 1.366 . S
C507 C506 1.366 . S
C507 C508 1.414 . S
C507 C510 1.499 . S
C508 H488 0.950 . S
C508 C507 1.414 . S
C508 C509 1.374 . S
C509 H489 0.950 . S
C509 C505 1.385 . S
C509 C508 1.374 . S
C510 C507 1.499 . S
C510 C511 1.373 . S
C510 C512 1.389 . S
C511 H490 0.950 . S
C511 C510 1.373 . S
C511 C527 1.377 . S
C512 C510 1.389 . S
C512 C513 1.524 . S
C512 C526 1.377 . S
C513 C512 1.524 . S
C513 C514 1.397 . S
C513 C518 1.363 . S
C514 H491 0.950 . S
C514 C513 1.397 . S
C514 C515 1.334 . S
C515 H492 0.950 . S
C515 C514 1.334 . S
C515 C516 1.287 . S
C516 C515 1.287 . S
C516 C517 1.524 . S
C516 H535 0.913 . S
C517 H493 0.950 . S
C517 C516 1.524 . S
C517 C518 1.415 . S
C518 H494 0.950 . S
C518 C513 1.363 . S
C518 C517 1.415 . S
C519 H495 0.951 . S
C519 C520 1.366 1_545 S
C519 C521 1.388 . S
C520 C519 1.366 1_565 S
C520 C524 1.385 1_565 S
C521 H496 0.951 . S
C521 C519 1.388 . S
C521 C522 1.366 . S
C522 C521 1.366 . S
C522 C523 1.414 . S
C522 C525 1.499 . S
C523 H497 0.950 . S
C523 C522 1.414 . S
C523 C524 1.374 . S
C524 H498 0.950 1_545 S
C524 C520 1.385 1_545 S
C524 C523 1.374 . S
C525 C522 1.499 . S
C525 C526 1.373 . S
C525 C527 1.389 . S
C526 H499 0.950 . S
C526 C512 1.377 . S
C526 C525 1.373 . S
C527 C511 1.377 . S
C527 C525 1.389 . S
C527 C528 1.524 . S
C528 C527 1.524 . S
C528 C529 1.397 . S
C528 C533 1.363 . S
C529 H500 0.950 . S
C529 C528 1.397 . S
C529 C530 1.334 . S
C530 H501 0.950 1_545 S
C530 C529 1.334 . S
C530 C531 1.287 . S
C531 C530 1.287 . S
C531 C532 1.524 . S
C531 H534 0.999 . S
C532 H502 0.950 . S
C532 C531 1.524 . S
C532 C533 1.415 . S
C533 H503 0.950 . S
C533 C528 1.363 . S
C533 C532 1.415 . S
H534 C531 0.999 . S
H535 C516 0.913 . S
H536 C554 0.951 . S
H537 C556 0.951 . S
H538 C558 0.950 . S
H539 C559 0.950 . S
H540 C561 0.950 . S
H541 C564 0.950 1_655 S
H542 C565 0.950 1_655 S
H543 C567 0.950 . S
H544 C568 0.950 . S
H545 C569 0.951 . S
H546 C571 0.951 . S
H547 C573 0.950 . S
H548 C574 0.950 . S
H549 C576 0.950 . S
H550 C579 0.950 . S
H551 C580 0.950 . S
H552 C582 0.950 . S
H553 C583 0.950 . S
C554 H536 0.951 . S
C554 C555 1.366 . S
C554 C556 1.388 . S
C555 C554 1.366 . S
C555 C559 1.385 . S
C556 H537 0.951 . S
C556 C554 1.388 . S
C556 C557 1.366 . S
C557 C556 1.366 . S
C557 C558 1.414 . S
C557 C560 1.499 1_655 S
C558 H538 0.950 . S
C558 C557 1.414 . S
C558 C559 1.374 . S
C559 H539 0.950 . S
C559 C555 1.385 . S
C559 C558 1.374 . S
C560 C557 1.499 1_455 S
C560 C561 1.373 . S
C560 C562 1.389 . S
C561 H540 0.950 . S
C561 C560 1.373 . S
C561 C577 1.377 . S
C562 C560 1.389 . S
C562 C563 1.524 . S
C562 C576 1.377 . S
C563 C562 1.524 . S
C563 C564 1.397 . S
C563 C568 1.363 . S
C564 H541 0.950 1_455 S
C564 C563 1.397 . S
C564 C565 1.334 . S
C565 H542 0.950 1_455 S
C565 C564 1.334 . S
C565 C566 1.287 . S
C566 C565 1.287 . S
C566 C567 1.524 . S
C566 H585 0.913 . S
C567 H543 0.950 . S
C567 C566 1.524 . S
C567 C568 1.415 . S
C568 H544 0.950 . S
C568 C563 1.363 . S
C568 C567 1.415 . S
C569 H545 0.951 . S
C569 C570 1.366 . S
C569 C571 1.388 . S
C570 C569 1.366 . S
C570 C574 1.385 . S
C571 H546 0.951 . S
C571 C569 1.388 . S
C571 C572 1.366 . S
C572 C571 1.366 . S
C572 C573 1.414 . S
C572 C575 1.499 . S
C573 H547 0.950 . S
C573 C572 1.414 . S
C573 C574 1.374 . S
C574 H548 0.950 . S
C574 C570 1.385 . S
C574 C573 1.374 . S
C575 C572 1.499 . S
C575 C576 1.373 . S
C575 C577 1.389 . S
C576 H549 0.950 . S
C576 C562 1.377 . S
C576 C575 1.373 . S
C577 C561 1.377 . S
C577 C575 1.389 . S
C577 C578 1.524 . S
C578 C577 1.524 . S
C578 C579 1.397 . S
C578 C583 1.363 . S
C579 H550 0.950 . S
C579 C578 1.397 . S
C579 C580 1.334 . S
C580 H551 0.950 . S
C580 C579 1.334 . S
C580 C581 1.287 . S
C581 C580 1.287 . S
C581 C582 1.524 . S
C581 H584 0.999 . S
C582 H552 0.950 . S
C582 C581 1.524 . S
C582 C583 1.415 . S
C583 H553 0.950 . S
C583 C578 1.363 . S
C583 C582 1.415 . S
H584 C581 0.999 . S
H585 C566 0.913 . S
H586 C604 0.951 . S
H587 C606 0.951 . S
H588 C608 0.950 . S
H589 C609 0.950 . S
H590 C611 0.950 . S
H591 C614 0.950 . S
H592 C615 0.950 . S
H593 C617 0.950 . S
H594 C618 0.950 . S
H595 C619 0.951 . S
H596 C621 0.951 . S
H597 C623 0.950 . S
H598 C624 0.950 . S
H599 C626 0.950 . S
H600 C629 0.956 . S
H601 C630 0.950 . S
H602 C632 0.950 . S
H603 C633 0.950 . S
C604 H586 0.951 . S
C604 C605 1.366 1_655 S
C604 C606 1.388 . S
C605 C604 1.366 1_455 S
C605 C609 1.385 . S
C606 H587 0.951 . S
C606 C604 1.388 . S
C606 C607 1.366 . S
C607 C606 1.366 . S
C607 C608 1.414 . S
C607 C610 1.499 . S
C608 H588 0.950 . S
C608 C607 1.414 . S
C608 C609 1.374 1_655 S
C609 H589 0.950 . S
C609 C605 1.385 . S
C609 C608 1.374 1_455 S
C610 C607 1.499 . S
C610 C611 1.373 . S
C610 C612 1.389 . S
C611 H590 0.950 . S
C611 C610 1.373 . S
C611 C627 1.377 . S
C612 C610 1.389 . S
C612 C613 1.524 . S
C612 C626 1.377 . S
C613 C612 1.524 . S
C613 C614 1.397 . S
C613 C618 1.363 . S
C614 H591 0.950 . S
C614 C613 1.397 . S
C614 C615 1.334 . S
C615 H592 0.950 . S
C615 C614 1.334 . S
C615 C616 1.287 . S
C616 C615 1.287 . S
C616 C617 1.524 . S
C616 H635 0.913 . S
C617 H593 0.950 . S
C617 C616 1.524 . S
C617 C618 1.415 . S
C618 H594 0.950 . S
C618 C613 1.363 . S
C618 C617 1.415 . S
C619 H595 0.951 . S
C619 C620 1.366 . S
C619 C621 1.388 . S
C620 C619 1.366 . S
C620 C624 1.385 . S
C621 H596 0.951 . S
C621 C619 1.388 . S
C621 C622 1.366 . S
C622 C621 1.366 . S
C622 C623 1.414 . S
C622 C625 1.499 1_565 S
C623 H597 0.950 . S
C623 C622 1.414 . S
C623 C624 1.374 . S
C624 H598 0.950 . S
C624 C620 1.385 . S
C624 C623 1.374 . S
C625 C622 1.499 1_545 S
C625 C626 1.373 . S
C625 C627 1.389 . S
C626 H599 0.950 . S
C626 C612 1.377 . S
C626 C625 1.373 . S
C627 C611 1.377 . S
C627 C625 1.389 . S
C627 C628 1.524 . S
C628 C627 1.524 . S
C628 C629 1.397 . S
C628 C633 1.363 . S
C629 H600 0.956 . S
C629 C628 1.397 . S
C629 C630 1.327 1_545 S
C630 H601 0.950 . S
C630 C629 1.327 1_565 S
C630 C631 1.287 . S
C631 C630 1.287 . S
C631 C632 1.524 . S
C631 H634 0.999 . S
C632 H602 0.950 . S
C632 C631 1.524 . S
C632 C633 1.415 1_565 S
C633 H603 0.950 . S
C633 C628 1.363 . S
C633 C632 1.415 1_545 S
H634 C631 0.999 . S
H635 C616 0.913 . S
H636 C654 0.951 . S
H637 C656 0.951 . S
H638 C658 0.950 . S
H639 C659 0.950 1_545 S
H640 C661 0.950 . S
H641 C664 0.950 . S
H642 C665 0.950 1_545 S
H643 C667 0.950 . S
H644 C668 0.950 . S
H645 C669 0.951 . S
H646 C671 0.951 . S
H647 C673 0.950 . S
H648 C674 0.950 . S
H649 C676 0.950 . S
H650 C679 0.950 . S
H651 C680 0.950 . S
H652 C682 0.950 . S
H653 C683 0.950 . S
C654 H636 0.951 . S
C654 C655 1.366 1_565 S
C654 C656 1.388 . S
C655 C654 1.366 1_545 S
C655 C659 1.385 1_545 S
C656 H637 0.951 . S
C656 C654 1.388 . S
C656 C657 1.366 . S
C657 C656 1.366 . S
C657 C658 1.414 . S
C657 C660 1.499 . S
C658 H638 0.950 . S
C658 C657 1.414 . S
C658 C659 1.374 . S
C659 H639 0.950 1_565 S
C659 C655 1.385 1_565 S
C659 C658 1.374 . S
C660 C657 1.499 . S
C660 C661 1.373 . S
C660 C662 1.389 . S
C661 H640 0.950 . S
C661 C660 1.373 . S
C661 C677 1.377 . S
C662 C660 1.389 . S
C662 C663 1.524 . S
C662 C676 1.377 . S
C663 C662 1.524 . S
C663 C664 1.397 . S
C663 C668 1.363 . S
C664 H641 0.950 . S
C664 C663 1.397 . S
C664 C665 1.334 . S
C665 H642 0.950 1_565 S
C665 C664 1.334 . S
C665 C666 1.287 . S
C666 C665 1.287 . S
C666 C667 1.524 . S
C666 H685 0.913 . S
C667 H643 0.950 . S
C667 C666 1.524 . S
C667 C668 1.415 . S
C668 H644 0.950 . S
C668 C663 1.363 . S
C668 C667 1.415 . S
C669 H645 0.951 . S
C669 C670 1.366 . S
C669 C671 1.388 . S
C670 C669 1.366 . S
C670 C674 1.385 . S
C671 H646 0.951 . S
C671 C669 1.388 . S
C671 C672 1.366 . S
C672 C671 1.366 . S
C672 C673 1.414 . S
C672 C675 1.499 . S
C673 H647 0.950 . S
C673 C672 1.414 . S
C673 C674 1.374 . S
C674 H648 0.950 . S
C674 C670 1.385 . S
C674 C673 1.374 . S
C675 C672 1.499 . S
C675 C676 1.373 . S
C675 C677 1.389 . S
C676 H649 0.950 . S
C676 C662 1.377 . S
C676 C675 1.373 . S
C677 C661 1.377 . S
C677 C675 1.389 . S
C677 C678 1.524 . S
C678 C677 1.524 . S
C678 C679 1.397 . S
C678 C683 1.363 . S
C679 H650 0.950 . S
C679 C678 1.397 . S
C679 C680 1.334 . S
C680 H651 0.950 . S
C680 C679 1.334 . S
C680 C681 1.287 . S
C681 C680 1.287 . S
C681 C682 1.524 . S
C681 H684 0.999 . S
C682 H652 0.950 . S
C682 C681 1.524 . S
C682 C683 1.415 . S
C683 H653 0.950 . S
C683 C678 1.363 . S
C683 C682 1.415 . S
H684 C681 0.999 . S
H685 C666 0.913 . S
H686 C704 0.951 . S
H687 C706 0.951 . S
H688 C708 0.950 . S
H689 C709 0.950 . S
H690 C711 0.950 . S
H691 C714 0.950 . S
H692 C715 0.950 . S
H693 C717 0.950 . S
H694 C718 0.950 . S
H695 C719 0.951 . S
H696 C721 0.951 . S
H697 C723 0.950 . S
H698 C724 0.950 . S
H699 C726 0.950 . S
H700 C729 0.950 1_455 S
H701 C730 0.950 . S
H702 C732 0.950 . S
H703 C733 0.950 . S
C704 H686 0.951 . S
C704 C705 1.366 . S
C704 C706 1.388 . S
C705 C704 1.366 . S
C705 C709 1.385 . S
C706 H687 0.951 . S
C706 C704 1.388 . S
C706 C707 1.366 . S
C707 C706 1.366 . S
C707 C708 1.414 . S
C707 C710 1.499 . S
C708 H688 0.950 . S
C708 C707 1.414 . S
C708 C709 1.374 . S
C709 H689 0.950 . S
C709 C705 1.385 . S
C709 C708 1.374 . S
C710 C707 1.499 . S
C710 C711 1.373 . S
C710 C712 1.389 . S
C711 H690 0.950 . S
C711 C710 1.373 . S
C711 C727 1.377 . S
C712 C710 1.389 . S
C712 C713 1.524 . S
C712 C726 1.377 . S
C713 C712 1.524 . S
C713 C714 1.397 . S
C713 C718 1.363 . S
C714 H691 0.950 . S
C714 C713 1.397 . S
C714 C715 1.334 . S
C715 H692 0.950 . S
C715 C714 1.334 . S
C715 C716 1.287 . S
C716 C715 1.287 . S
C716 C717 1.524 . S
C716 H735 0.913 . S
C717 H693 0.950 . S
C717 C716 1.524 . S
C717 C718 1.415 . S
C718 H694 0.950 . S
C718 C713 1.363 . S
C718 C717 1.415 . S
C719 H695 0.951 . S
C719 C720 1.366 . S
C719 C721 1.388 . S
C720 C719 1.366 . S
C720 C724 1.385 . S
C721 H696 0.951 . S
C721 C719 1.388 . S
C721 C722 1.366 . S
C722 C721 1.366 . S
C722 C723 1.414 . S
C722 C725 1.499 1_455 S
C723 H697 0.950 . S
C723 C722 1.414 . S
C723 C724 1.374 . S
C724 H698 0.950 . S
C724 C720 1.385 . S
C724 C723 1.374 . S
C725 C722 1.499 1_655 S
C725 C726 1.373 . S
C725 C727 1.389 . S
C726 H699 0.950 . S
C726 C712 1.377 . S
C726 C725 1.373 . S
C727 C711 1.377 . S
C727 C725 1.389 . S
C727 C728 1.524 . S
C728 C727 1.524 . S
C728 C729 1.400 . S
C728 C733 1.363 . S
C729 H700 0.950 1_655 S
C729 C728 1.400 . S
C729 C730 1.331 1_655 S
C730 H701 0.950 . S
C730 C729 1.331 1_455 S
C730 C731 1.287 1_455 S
C731 C730 1.287 1_655 S
C731 C732 1.524 . S
C731 H734 0.999 1_655 S
C732 H702 0.950 . S
C732 C731 1.524 . S
C732 C733 1.415 . S
C733 H703 0.950 . S
C733 C728 1.363 . S
C733 C732 1.415 . S
H734 C731 0.999 1_455 S
H735 C716 0.913 . S
H736 C754 0.951 . S
H737 C756 0.951 . S
H738 C758 0.950 . S
H739 C759 0.950 . S
H740 C761 0.950 . S
H741 C764 0.950 . S
H742 C765 0.950 . S
H743 C767 0.950 . S
H744 C768 0.950 . S
H745 C769 0.957 . S
H746 C771 0.951 . S
H747 C773 0.950 . S
H748 C774 0.950 . S
H749 C776 0.950 . S
H750 C779 0.950 . S
H751 C780 0.950 . S
H752 C782 0.950 . S
H753 C783 0.950 . S
C754 H736 0.951 . S
C754 C755 1.366 . S
C754 C756 1.388 . S
C755 C754 1.366 . S
C755 C759 1.385 . S
C756 H737 0.951 . S
C756 C754 1.388 . S
C756 C757 1.366 . S
C757 C756 1.366 . S
C757 C758 1.414 . S
C757 C760 1.499 1_545 S
C758 H738 0.950 . S
C758 C757 1.414 . S
C758 C759 1.374 . S
C759 H739 0.950 . S
C759 C755 1.385 . S
C759 C758 1.374 . S
C760 C757 1.499 1_565 S
C760 C761 1.373 . S
C760 C762 1.389 . S
C761 H740 0.950 . S
C761 C760 1.373 . S
C761 C777 1.377 . S
C762 C760 1.389 . S
C762 C763 1.524 . S
C762 C776 1.377 . S
C763 C762 1.524 . S
C763 C764 1.397 1_565 S
C763 C768 1.363 . S
C764 H741 0.950 . S
C764 C763 1.397 1_545 S
C764 C765 1.334 . S
C765 H742 0.950 . S
C765 C764 1.334 . S
C765 C766 1.287 . S
C766 C765 1.287 . S
C766 C767 1.524 1_545 S
C766 H785 0.913 . S
C767 H743 0.950 . S
C767 C766 1.524 1_565 S
C767 C768 1.415 . S
C768 H744 0.950 . S
C768 C763 1.363 . S
C768 C767 1.415 . S
C769 H745 0.957 . S
C769 C770 1.366 1_455 S
C769 C771 1.388 . S
C770 C769 1.366 1_655 S
C770 C774 1.385 1_655 S
C771 H746 0.951 . S
C771 C769 1.388 . S
C771 C772 1.366 . S
C772 C771 1.366 . S
C772 C773 1.414 . S
C772 C775 1.499 . S
C773 H747 0.950 . S
C773 C772 1.414 . S
C773 C774 1.374 . S
C774 H748 0.950 . S
C774 C770 1.385 1_455 S
C774 C773 1.374 . S
C775 C772 1.499 . S
C775 C776 1.373 . S
C775 C777 1.389 . S
C776 H749 0.950 . S
C776 C762 1.377 . S
C776 C775 1.373 . S
C777 C761 1.377 . S
C777 C775 1.389 . S
C777 C778 1.524 . S
C778 C777 1.524 . S
C778 C779 1.397 . S
C778 C783 1.363 . S
C779 H750 0.950 . S
C779 C778 1.397 . S
C779 C780 1.334 . S
C780 H751 0.950 . S
C780 C779 1.334 . S
C780 C781 1.287 . S
C781 C780 1.287 . S
C781 C782 1.524 . S
C781 H784 0.999 . S
C782 H752 0.950 . S
C782 C781 1.524 . S
C782 C783 1.415 . S
C783 H753 0.950 . S
C783 C778 1.363 . S
C783 C782 1.415 . S
H784 C781 0.999 . S
H785 C766 0.913 . S
H786 C804 0.951 . S
H787 C806 0.951 . S
H788 C808 0.950 . S
H789 C809 0.950 . S
H790 C811 0.950 . S
H791 C814 0.950 . S
H792 C815 0.950 . S
H793 C817 0.950 . S
H794 C818 0.950 . S
H795 C819 0.951 . S
H796 C821 0.951 . S
H797 C823 0.950 . S
H798 C824 0.950 . S
H799 C826 0.950 . S
H800 C829 0.950 . S
H801 C830 0.950 . S
H802 C832 0.950 . S
H803 C833 0.950 . S
C804 H786 0.951 . S
C804 C805 1.366 . S
C804 C806 1.388 . S
C805 C804 1.366 . S
C805 C809 1.385 . S
C806 H787 0.951 . S
C806 C804 1.388 . S
C806 C807 1.366 . S
C807 C806 1.366 . S
C807 C808 1.414 . S
C807 C810 1.499 . S
C808 H788 0.950 . S
C808 C807 1.414 . S
C808 C809 1.374 . S
C809 H789 0.950 . S
C809 C805 1.385 . S
C809 C808 1.374 . S
C810 C807 1.499 . S
C810 C811 1.373 . S
C810 C812 1.389 . S
C811 H790 0.950 . S
C811 C810 1.373 . S
C811 C827 1.377 1_554 S
C812 C810 1.389 . S
C812 C813 1.524 . S
C812 C826 1.377 1_554 S
C813 C812 1.524 . S
C813 C814 1.397 . S
C813 C818 1.363 . S
C814 H791 0.950 . S
C814 C813 1.397 . S
C814 C815 1.334 . S
C815 H792 0.950 . S
C815 C814 1.334 . S
C815 C816 1.287 . S
C816 C815 1.287 . S
C816 C817 1.524 . S
C816 H835 0.913 . S
C817 H793 0.950 . S
C817 C816 1.524 . S
C817 C818 1.415 . S
C818 H794 0.950 . S
C818 C813 1.363 . S
C818 C817 1.415 . S
C819 H795 0.951 . S
C819 C820 1.366 . S
C819 C821 1.388 . S
C820 C819 1.366 . S
C820 C824 1.385 . S
C821 H796 0.951 . S
C821 C819 1.388 . S
C821 C822 1.366 . S
C822 C821 1.366 . S
C822 C823 1.414 . S
C822 C825 1.499 . S
C823 H797 0.950 . S
C823 C822 1.414 . S
C823 C824 1.374 . S
C824 H798 0.950 . S
C824 C820 1.385 . S
C824 C823 1.374 . S
C825 C822 1.499 . S
C825 C826 1.373 . S
C825 C827 1.389 . S
C826 H799 0.950 . S
C826 C812 1.377 1_556 S
C826 C825 1.373 . S
C827 C811 1.377 1_556 S
C827 C825 1.389 . S
C827 C828 1.524 . S
C828 C827 1.524 . S
C828 C829 1.397 . S
C828 C833 1.363 . S
C829 H800 0.950 . S
C829 C828 1.397 . S
C829 C830 1.334 . S
C830 H801 0.950 . S
C830 C829 1.334 . S
C830 C831 1.287 . S
C831 C830 1.287 . S
C831 C832 1.524 . S
C831 H834 0.999 . S
C832 H802 0.950 . S
C832 C831 1.524 . S
C832 C833 1.415 . S
C833 H803 0.950 . S
C833 C828 1.363 . S
C833 C832 1.415 . S
H834 C831 0.999 . S
H835 C816 0.913 . S
H836 C854 0.951 . S
H837 C856 0.951 . S
H838 C858 0.950 . S
H839 C859 0.950 . S
H840 C861 0.950 . S
H841 C864 0.950 . S
H842 C865 0.950 . S
H843 C867 0.950 . S
H844 C868 0.950 . S
H845 C869 0.951 . S
H846 C871 0.951 . S
H847 C873 0.950 1_655 S
H848 C874 0.950 . S
H849 C876 0.950 . S
H850 C879 0.950 . S
H851 C880 0.950 . S
H852 C882 0.950 . S
H853 C883 0.950 . S
C854 H836 0.951 . S
C854 C855 1.366 . S
C854 C856 1.388 . S
C855 C854 1.366 . S
C855 C859 1.385 . S
C856 H837 0.951 . S
C856 C854 1.388 . S
C856 C857 1.366 . S
C857 C856 1.366 . S
C857 C858 1.414 . S
C857 C860 1.499 . S
C858 H838 0.950 . S
C858 C857 1.414 . S
C858 C859 1.374 . S
C859 H839 0.950 . S
C859 C855 1.385 . S
C859 C858 1.374 . S
C860 C857 1.499 . S
C860 C861 1.373 . S
C860 C862 1.389 . S
C861 H840 0.950 . S
C861 C860 1.373 . S
C861 C877 1.377 1_655 S
C862 C860 1.389 . S
C862 C863 1.524 . S
C862 C876 1.377 . S
C863 C862 1.524 . S
C863 C864 1.397 . S
C863 C868 1.363 . S
C864 H841 0.950 . S
C864 C863 1.397 . S
C864 C865 1.334 . S
C865 H842 0.950 . S
C865 C864 1.334 . S
C865 C866 1.287 . S
C866 C865 1.287 . S
C866 C867 1.524 . S
C866 H885 0.913 . S
C867 H843 0.950 . S
C867 C866 1.524 . S
C867 C868 1.415 . S
C868 H844 0.950 . S
C868 C863 1.363 . S
C868 C867 1.415 . S
C869 H845 0.951 . S
C869 C870 1.366 . S
C869 C871 1.388 . S
C870 C869 1.366 . S
C870 C874 1.385 . S
C871 H846 0.951 . S
C871 C869 1.388 . S
C871 C872 1.366 . S
C872 C871 1.366 . S
C872 C873 1.414 . S
C872 C875 1.499 . S
C873 H847 0.950 1_455 S
C873 C872 1.414 . S
C873 C874 1.374 . S
C874 H848 0.950 . S
C874 C870 1.385 . S
C874 C873 1.374 . S
C875 C872 1.499 . S
C875 C876 1.373 1_455 S
C875 C877 1.389 . S
C876 H849 0.950 . S
C876 C862 1.377 . S
C876 C875 1.373 1_655 S
C877 C861 1.377 1_455 S
C877 C875 1.389 . S
C877 C878 1.524 . S
C878 C877 1.524 . S
C878 C879 1.397 . S
C878 C883 1.363 . S
C879 H850 0.950 . S
C879 C878 1.397 . S
C879 C880 1.334 . S
C880 H851 0.950 . S
C880 C879 1.334 . S
C880 C881 1.287 . S
C881 C880 1.287 . S
C881 C882 1.524 . S
C881 H884 0.999 . S
C882 H852 0.950 . S
C882 C881 1.524 . S
C882 C883 1.415 . S
C883 H853 0.950 . S
C883 C878 1.363 . S
C883 C882 1.415 . S
H884 C881 0.999 . S
H885 C866 0.913 . S
H886 C904 0.951 . S
H887 C906 0.951 . S
H888 C908 0.950 . S
H889 C909 0.950 . S
H890 C911 0.950 . S
H891 C914 0.950 . S
H892 C915 0.950 . S
H893 C917 0.950 . S
H894 C918 0.950 . S
H895 C919 0.951 . S
H896 C921 0.951 . S
H897 C923 0.950 . S
H898 C924 0.950 . S
H899 C926 0.950 . S
H900 C929 0.950 . S
H901 C930 0.950 . S
H902 C932 0.950 . S
H903 C933 0.950 . S
C904 H886 0.951 . S
C904 C905 1.366 . S
C904 C906 1.388 . S
C905 C904 1.366 . S
C905 C909 1.385 . S
C906 H887 0.951 . S
C906 C904 1.388 . S
C906 C907 1.366 . S
C907 C906 1.366 . S
C907 C908 1.414 . S
C907 C910 1.499 . S
C908 H888 0.950 . S
C908 C907 1.414 . S
C908 C909 1.374 . S
C909 H889 0.950 . S
C909 C905 1.385 . S
C909 C908 1.374 . S
C910 C907 1.499 . S
C910 C911 1.373 . S
C910 C912 1.369 1_565 S
C911 H890 0.950 . S
C911 C910 1.373 . S
C911 C927 1.377 1_554 S
C912 C910 1.369 1_545 S
C912 C913 1.536 . S
C912 C926 1.388 . S
C913 C912 1.536 . S
C913 C914 1.397 . S
C913 C918 1.363 . S
C914 H891 0.950 . S
C914 C913 1.397 . S
C914 C915 1.334 . S
C915 H892 0.950 . S
C915 C914 1.334 . S
C915 C916 1.287 . S
C916 C915 1.287 . S
C916 C917 1.524 . S
C916 H935 0.913 . S
C917 H893 0.950 . S
C917 C916 1.524 . S
C917 C918 1.415 . S
C918 H894 0.950 . S
C918 C913 1.363 . S
C918 C917 1.415 . S
C919 H895 0.951 . S
C919 C920 1.366 . S
C919 C921 1.388 . S
C920 C919 1.366 . S
C920 C924 1.385 . S
C921 H896 0.951 . S
C921 C919 1.388 . S
C921 C922 1.366 . S
C922 C921 1.366 . S
C922 C923 1.414 . S
C922 C925 1.499 . S
C923 H897 0.950 . S
C923 C922 1.414 . S
C923 C924 1.374 . S
C924 H898 0.950 . S
C924 C920 1.385 . S
C924 C923 1.374 . S
C925 C922 1.499 . S
C925 C926 1.373 1_556 S
C925 C927 1.389 1_545 S
C926 H899 0.950 . S
C926 C912 1.388 . S
C926 C925 1.373 1_554 S
C927 C911 1.377 1_556 S
C927 C925 1.389 1_565 S
C927 C928 1.524 . S
C928 C927 1.524 . S
C928 C929 1.397 . S
C928 C933 1.363 . S
C929 H900 0.950 . S
C929 C928 1.397 . S
C929 C930 1.334 . S
C930 H901 0.950 . S
C930 C929 1.334 . S
C930 C931 1.287 . S
C931 C930 1.287 . S
C931 C932 1.524 . S
C931 H934 0.999 . S
C932 H902 0.950 . S
C932 C931 1.524 . S
C932 C933 1.415 . S
C933 H903 0.950 . S
C933 C928 1.363 . S
C933 C932 1.415 . S
H934 C931 0.999 . S
H935 C916 0.913 . S
H936 C954 0.951 . S
H937 C956 0.951 . S
H938 C958 0.950 . S
H939 C959 0.950 . S
H940 C961 0.950 . S
H941 C964 0.950 . S
H942 C965 0.950 . S
H943 C967 0.950 . S
H944 C968 0.950 . S
H945 C969 0.951 . S
H946 C971 0.951 . S
H947 C973 0.950 . S
H948 C974 0.950 . S
H949 C976 0.950 . S
H950 C979 0.950 . S
H951 C980 0.950 . S
H952 C982 0.950 . S
H953 C983 0.950 . S
C954 H936 0.951 . S
C954 C955 1.366 . S
C954 C956 1.388 . S
C955 C954 1.366 . S
C955 C959 1.385 . S
C956 H937 0.951 . S
C956 C954 1.388 . S
C956 C957 1.366 . S
C957 C956 1.366 . S
C957 C958 1.414 . S
C957 C960 1.499 . S
C958 H938 0.950 . S
C958 C957 1.414 . S
C958 C959 1.374 . S
C959 H939 0.950 . S
C959 C955 1.385 . S
C959 C958 1.374 . S
C960 C957 1.499 . S
C960 C961 1.373 . S
C960 C962 1.389 . S
C961 H940 0.950 . S
C961 C960 1.373 . S
C961 C977 1.377 . S
C962 C960 1.389 . S
C962 C963 1.524 . S
C962 C976 1.377 . S
C963 C962 1.524 . S
C963 C964 1.397 . S
C963 C968 1.363 . S
C964 H941 0.950 . S
C964 C963 1.397 . S
C964 C965 1.334 . S
C965 H942 0.950 . S
C965 C964 1.334 . S
C965 C966 1.287 . S
C966 C965 1.287 . S
C966 C967 1.524 . S
C966 H985 0.913 . S
C967 H943 0.950 . S
C967 C966 1.524 . S
C967 C968 1.415 . S
C968 H944 0.950 . S
C968 C963 1.363 . S
C968 C967 1.415 . S
C969 H945 0.951 . S
C969 C970 1.366 . S
C969 C971 1.388 . S
C970 C969 1.366 . S
C970 C974 1.385 . S
C971 H946 0.951 . S
C971 C969 1.388 . S
C971 C972 1.366 . S
C972 C971 1.366 . S
C972 C973 1.414 . S
C972 C975 1.499 . S
C973 H947 0.950 . S
C973 C972 1.414 . S
C973 C974 1.374 . S
C974 H948 0.950 . S
C974 C970 1.385 . S
C974 C973 1.374 . S
C975 C972 1.499 . S
C975 C976 1.373 . S
C975 C977 1.389 . S
C976 H949 0.950 . S
C976 C962 1.377 . S
C976 C975 1.373 . S
C977 C961 1.377 . S
C977 C975 1.389 . S
C977 C978 1.524 . S
C978 C977 1.524 . S
C978 C979 1.397 . S
C978 C983 1.363 . S
C979 H950 0.950 . S
C979 C978 1.397 . S
C979 C980 1.334 . S
C980 H951 0.950 . S
C980 C979 1.334 . S
C980 C981 1.287 . S
C981 C980 1.287 . S
C981 C982 1.524 . S
C981 H984 0.999 . S
C982 H952 0.950 . S
C982 C981 1.524 . S
C982 C983 1.415 . S
C983 H953 0.950 . S
C983 C978 1.363 . S
C983 C982 1.415 . S
H984 C981 0.999 . S
H985 C966 0.913 . S
H986 C1004 0.951 . S
H987 C1006 0.951 1_455 S
H988 C1008 0.950 . S
H989 C1009 0.950 . S
H990 C1011 0.950 . S
H991 C1014 0.950 . S
H992 C1015 0.950 . S
H993 C1017 0.950 . S
H994 C1018 0.950 . S
H995 C1019 0.951 . S
H996 C1021 0.951 . S
H997 C1023 0.950 . S
H998 C1024 0.950 . S
H999 C1026 0.950 . S
H1000 C1029 0.950 . S
H1001 C1030 0.950 . S
H1002 C1032 0.950 . S
H1003 C1033 0.950 . S
C1004 H986 0.951 . S
C1004 C1005 1.366 . S
C1004 C1006 1.388 . S
C1005 C1004 1.366 . S
C1005 C1009 1.385 . S
C1006 H987 0.951 1_655 S
C1006 C1004 1.388 . S
C1006 C1007 1.366 . S
C1007 C1006 1.366 . S
C1007 C1008 1.414 . S
C1007 C1010 1.499 . S
C1008 H988 0.950 . S
C1008 C1007 1.414 . S
C1008 C1009 1.374 . S
C1009 H989 0.950 . S
C1009 C1005 1.385 . S
C1009 C1008 1.374 . S
C1010 C1007 1.499 . S
C1010 C1011 1.373 . S
C1010 C1012 1.389 1_655 S
C1011 H990 0.950 . S
C1011 C1010 1.373 . S
C1011 C1027 1.377 1_656 S
C1012 C1010 1.389 1_455 S
C1012 C1013 1.524 . S
C1012 C1026 1.377 1_556 S
C1013 C1012 1.524 . S
C1013 C1014 1.397 1_455 S
C1013 C1018 1.363 . S
C1014 H991 0.950 . S
C1014 C1013 1.397 1_655 S
C1014 C1015 1.334 . S
C1015 H992 0.950 . S
C1015 C1014 1.334 . S
C1015 C1016 1.287 1_655 S
C1016 C1015 1.287 1_455 S
C1016 C1017 1.524 . S
C1016 H1035 0.913 . S
C1017 H993 0.950 . S
C1017 C1016 1.524 . S
C1017 C1018 1.415 . S
C1018 H994 0.950 . S
C1018 C1013 1.363 . S
C1018 C1017 1.415 . S
C1019 H995 0.951 . S
C1019 C1020 1.366 . S
C1019 C1021 1.388 . S
C1020 C1019 1.366 . S
C1020 C1024 1.385 . S
C1021 H996 0.951 . S
C1021 C1019 1.388 . S
C1021 C1022 1.366 . S
C1022 C1021 1.366 . S
C1022 C1023 1.414 . S
C1022 C1025 1.499 . S
C1023 H997 0.950 . S
C1023 C1022 1.414 . S
C1023 C1024 1.374 . S
C1024 H998 0.950 . S
C1024 C1020 1.385 . S
C1024 C1023 1.374 . S
C1025 C1022 1.499 . S
C1025 C1026 1.373 . S
C1025 C1027 1.389 . S
C1026 H999 0.950 . S
C1026 C1012 1.377 1_554 S
C1026 C1025 1.373 . S
C1027 C1011 1.377 1_454 S
C1027 C1025 1.389 . S
C1027 C1028 1.524 . S
C1028 C1027 1.524 . S
C1028 C1029 1.397 . S
C1028 C1033 1.363 1_455 S
C1029 H1000 0.950 . S
C1029 C1028 1.397 . S
C1029 C1030 1.334 . S
C1030 H1001 0.950 . S
C1030 C1029 1.334 . S
C1030 C1031 1.287 . S
C1031 C1030 1.287 . S
C1031 C1032 1.524 1_455 S
C1031 H1034 0.999 . S
C1032 H1002 0.950 . S
C1032 C1031 1.524 1_655 S
C1032 C1033 1.415 . S
C1033 H1003 0.950 . S
C1033 C1028 1.363 1_655 S
C1033 C1032 1.415 . S
H1034 C1031 0.999 . S
H1035 C1016 0.913 . S
H1036 C1054 0.951 . S
H1037 C1056 0.951 . S
H1038 C1058 0.950 . S
H1039 C1059 0.950 . S
H1040 C1061 0.950 . S
H1041 C1064 0.950 . S
H1042 C1065 0.950 . S
H1043 C1067 0.950 . S
H1044 C1068 0.950 . S
H1045 C1069 0.951 . S
H1046 C1071 0.951 1_545 S
H1047 C1073 0.950 . S
H1048 C1074 0.950 . S
H1049 C1076 0.950 . S
H1050 C1079 0.950 . S
H1051 C1080 0.950 1_565 S
H1052 C1082 0.950 . S
H1053 C1083 0.950 . S
C1054 H1036 0.951 . S
C1054 C1055 1.366 . S
C1054 C1056 1.388 . S
C1055 C1054 1.366 . S
C1055 C1059 1.385 . S
C1056 H1037 0.951 . S
C1056 C1054 1.388 . S
C1056 C1057 1.366 . S
C1057 C1056 1.366 . S
C1057 C1058 1.414 . S
C1057 C1060 1.499 . S
C1058 H1038 0.950 . S
C1058 C1057 1.414 . S
C1058 C1059 1.374 . S
C1059 H1039 0.950 . S
C1059 C1055 1.385 . S
C1059 C1058 1.374 . S
C1060 C1057 1.499 . S
C1060 C1061 1.373 . S
C1060 C1062 1.389 . S
C1061 H1040 0.950 . S
C1061 C1060 1.373 . S
C1061 C1077 1.377 . S
C1062 C1060 1.389 . S
C1062 C1063 1.524 . S
C1062 C1076 1.377 1_545 S
C1063 C1062 1.524 . S
C1063 C1064 1.397 . S
C1063 C1068 1.363 1_545 S
C1064 H1041 0.950 . S
C1064 C1063 1.397 . S
C1064 C1065 1.334 . S
C1065 H1042 0.950 . S
C1065 C1064 1.334 . S
C1065 C1066 1.287 1_545 S
C1066 C1065 1.287 1_565 S
C1066 C1067 1.524 . S
C1066 H1085 0.913 . S
C1067 H1043 0.950 . S
C1067 C1066 1.524 . S
C1067 C1068 1.415 . S
C1068 H1044 0.950 . S
C1068 C1063 1.363 1_565 S
C1068 C1067 1.415 . S
C1069 H1045 0.951 . S
C1069 C1070 1.366 . S
C1069 C1071 1.388 . S
C1070 C1069 1.366 . S
C1070 C1074 1.385 . S
C1071 H1046 0.951 1_565 S
C1071 C1069 1.388 . S
C1071 C1072 1.366 . S
C1072 C1071 1.366 . S
C1072 C1073 1.414 . S
C1072 C1075 1.499 . S
C1073 H1047 0.950 . S
C1073 C1072 1.414 . S
C1073 C1074 1.374 . S
C1074 H1048 0.950 . S
C1074 C1070 1.385 . S
C1074 C1073 1.374 . S
C1075 C1072 1.499 . S
C1075 C1076 1.373 . S
C1075 C1077 1.389 1_565 S
C1076 H1049 0.950 . S
C1076 C1062 1.377 1_565 S
C1076 C1075 1.373 . S
C1077 C1061 1.377 . S
C1077 C1075 1.389 1_545 S
C1077 C1078 1.524 . S
C1078 C1077 1.524 . S
C1078 C1079 1.397 1_545 S
C1078 C1083 1.363 . S
C1079 H1050 0.950 . S
C1079 C1078 1.397 1_565 S
C1079 C1080 1.334 1_565 S
C1080 H1051 0.950 1_545 S
C1080 C1079 1.334 1_545 S
C1080 C1081 1.287 . S
C1081 C1080 1.287 . S
C1081 C1082 1.524 . S
C1081 H1084 0.999 . S
C1082 H1052 0.950 . S
C1082 C1081 1.524 . S
C1082 C1083 1.415 . S
C1083 H1053 0.950 . S
C1083 C1078 1.363 . S
C1083 C1082 1.415 . S
H1084 C1081 0.999 . S
H1085 C1066 0.913 . S
H1086 C1104 0.951 . S
H1087 C1106 0.951 . S
H1088 C1108 0.950 . S
H1089 C1109 0.950 . S
H1090 C1111 0.950 . S
H1091 C1114 0.950 . S
H1092 C1115 0.950 . S
H1093 C1117 0.950 . S
H1094 C1118 0.950 . S
H1095 C1119 0.951 . S
H1096 C1121 0.951 . S
H1097 C1123 0.950 . S
H1098 C1124 0.950 . S
H1099 C1126 0.950 . S
H1100 C1129 0.950 . S
H1101 C1130 0.950 . S
H1102 C1132 0.950 . S
H1103 C1133 0.950 . S
C1104 H1086 0.951 . S
C1104 C1105 1.366 . S
C1104 C1106 1.388 . S
C1105 C1104 1.366 . S
C1105 C1109 1.385 . S
C1106 H1087 0.951 . S
C1106 C1104 1.388 . S
C1106 C1107 1.366 . S
C1107 C1106 1.366 . S
C1107 C1108 1.414 . S
C1107 C1110 1.499 . S
C1108 H1088 0.950 . S
C1108 C1107 1.414 . S
C1108 C1109 1.374 . S
C1109 H1089 0.950 . S
C1109 C1105 1.385 . S
C1109 C1108 1.374 . S
C1110 C1107 1.499 . S
C1110 C1111 1.373 1_556 S
C1110 C1112 1.389 . S
C1111 H1090 0.950 . S
C1111 C1110 1.373 1_554 S
C1111 C1127 1.377 . S
C1112 C1110 1.389 . S
C1112 C1113 1.524 . S
C1112 C1126 1.377 . S
C1113 C1112 1.524 . S
C1113 C1114 1.397 . S
C1113 C1118 1.363 . S
C1114 H1091 0.950 . S
C1114 C1113 1.397 . S
C1114 C1115 1.334 . S
C1115 H1092 0.950 . S
C1115 C1114 1.334 . S
C1115 C1116 1.287 . S
C1116 C1115 1.287 . S
C1116 C1117 1.524 . S
C1116 H1135 0.913 . S
C1117 H1093 0.950 . S
C1117 C1116 1.524 . S
C1117 C1118 1.415 . S
C1118 H1094 0.950 . S
C1118 C1113 1.363 . S
C1118 C1117 1.415 . S
C1119 H1095 0.951 . S
C1119 C1120 1.366 . S
C1119 C1121 1.388 . S
C1120 C1119 1.366 . S
C1120 C1124 1.385 . S
C1121 H1096 0.951 . S
C1121 C1119 1.388 . S
C1121 C1122 1.366 . S
C1122 C1121 1.366 . S
C1122 C1123 1.414 . S
C1122 C1125 1.499 . S
C1123 H1097 0.950 . S
C1123 C1122 1.414 . S
C1123 C1124 1.374 . S
C1124 H1098 0.950 . S
C1124 C1120 1.385 . S
C1124 C1123 1.374 . S
C1125 C1122 1.499 . S
C1125 C1126 1.373 1_554 S
C1125 C1127 1.389 . S
C1126 H1099 0.950 . S
C1126 C1112 1.377 . S
C1126 C1125 1.373 1_556 S
C1127 C1111 1.377 . S
C1127 C1125 1.389 . S
C1127 C1128 1.524 . S
C1128 C1127 1.524 . S
C1128 C1129 1.397 . S
C1128 C1133 1.363 . S
C1129 H1100 0.950 . S
C1129 C1128 1.397 . S
C1129 C1130 1.334 . S
C1130 H1101 0.950 . S
C1130 C1129 1.334 . S
C1130 C1131 1.287 . S
C1131 C1130 1.287 . S
C1131 C1132 1.524 . S
C1131 H1134 0.999 . S
C1132 H1102 0.950 . S
C1132 C1131 1.524 . S
C1132 C1133 1.415 . S
C1133 H1103 0.950 . S
C1133 C1128 1.363 . S
C1133 C1132 1.415 . S
H1134 C1131 0.999 . S
H1135 C1116 0.913 . S
H1136 C1154 0.951 . S
H1137 C1156 0.951 . S
H1138 C1158 0.950 . S
H1139 C1159 0.950 . S
H1140 C1161 0.950 . S
H1141 C1164 0.950 . S
H1142 C1165 0.950 . S
H1143 C1167 0.950 . S
H1144 C1168 0.950 . S
H1145 C1169 0.951 . S
H1146 C1171 0.951 . S
H1147 C1173 0.950 . S
H1148 C1174 0.950 . S
H1149 C1176 0.950 . S
H1150 C1179 0.950 . S
H1151 C1180 0.950 . S
H1152 C1182 0.950 . S
H1153 C1183 0.950 . S
C1154 H1136 0.951 . S
C1154 C1155 1.366 . S
C1154 C1156 1.388 . S
C1155 C1154 1.366 . S
C1155 C1159 1.385 . S
C1156 H1137 0.951 . S
C1156 C1154 1.388 . S
C1156 C1157 1.366 . S
C1157 C1156 1.366 . S
C1157 C1158 1.414 . S
C1157 C1160 1.499 . S
C1158 H1138 0.950 . S
C1158 C1157 1.414 . S
C1158 C1159 1.374 . S
C1159 H1139 0.950 . S
C1159 C1155 1.385 . S
C1159 C1158 1.374 . S
C1160 C1157 1.499 . S
C1160 C1161 1.373 . S
C1160 C1162 1.389 . S
C1161 H1140 0.950 . S
C1161 C1160 1.373 . S
C1161 C1177 1.377 1_455 S
C1162 C1160 1.389 . S
C1162 C1163 1.524 . S
C1162 C1176 1.377 . S
C1163 C1162 1.524 . S
C1163 C1164 1.397 . S
C1163 C1168 1.363 . S
C1164 H1141 0.950 . S
C1164 C1163 1.397 . S
C1164 C1165 1.334 . S
C1165 H1142 0.950 . S
C1165 C1164 1.334 . S
C1165 C1166 1.287 . S
C1166 C1165 1.287 . S
C1166 C1167 1.524 . S
C1166 H1185 0.913 . S
C1167 H1143 0.950 . S
C1167 C1166 1.524 . S
C1167 C1168 1.415 . S
C1168 H1144 0.950 . S
C1168 C1163 1.363 . S
C1168 C1167 1.415 . S
C1169 H1145 0.951 . S
C1169 C1170 1.366 . S
C1169 C1171 1.388 . S
C1170 C1169 1.366 . S
C1170 C1174 1.385 . S
C1171 H1146 0.951 . S
C1171 C1169 1.388 . S
C1171 C1172 1.366 . S
C1172 C1171 1.366 . S
C1172 C1173 1.414 . S
C1172 C1175 1.499 . S
C1173 H1147 0.950 . S
C1173 C1172 1.414 . S
C1173 C1174 1.374 . S
C1174 H1148 0.950 . S
C1174 C1170 1.385 . S
C1174 C1173 1.374 . S
C1175 C1172 1.499 . S
C1175 C1176 1.373 1_655 S
C1175 C1177 1.389 . S
C1176 H1149 0.950 . S
C1176 C1162 1.377 . S
C1176 C1175 1.373 1_455 S
C1177 C1161 1.377 1_655 S
C1177 C1175 1.389 . S
C1177 C1178 1.524 . S
C1178 C1177 1.524 . S
C1178 C1179 1.397 . S
C1178 C1183 1.363 . S
C1179 H1150 0.950 . S
C1179 C1178 1.397 . S
C1179 C1180 1.334 . S
C1180 H1151 0.950 . S
C1180 C1179 1.334 . S
C1180 C1181 1.287 . S
C1181 C1180 1.287 . S
C1181 C1182 1.524 . S
C1181 H1184 0.999 . S
C1182 H1152 0.950 . S
C1182 C1181 1.524 . S
C1182 C1183 1.415 . S
C1183 H1153 0.950 . S
C1183 C1178 1.363 . S
C1183 C1182 1.415 . S
H1184 C1181 0.999 . S
H1185 C1166 0.913 . S
H1186 C1204 0.951 . S
H1187 C1206 0.951 . S
H1188 C1208 0.950 . S
H1189 C1209 0.950 . S
H1190 C1211 0.950 . S
H1191 C1214 0.974 . S
H1192 C1215 0.950 . S
H1193 C1217 0.950 . S
H1194 C1218 0.950 . S
H1195 C1219 0.951 . S
H1196 C1221 0.951 . S
H1197 C1223 0.950 . S
H1198 C1224 0.950 . S
H1199 C1226 0.951 . S
H1200 C1229 0.950 . S
H1201 C1230 0.950 . S
H1202 C1232 0.950 . S
H1203 C1233 0.950 . S
C1204 H1186 0.951 . S
C1204 C1205 1.366 . S
C1204 C1206 1.388 . S
C1205 C1204 1.366 . S
C1205 C1209 1.385 . S
C1206 H1187 0.951 . S
C1206 C1204 1.388 . S
C1206 C1207 1.366 . S
C1207 C1206 1.366 . S
C1207 C1208 1.414 . S
C1207 C1210 1.499 . S
C1208 H1188 0.950 . S
C1208 C1207 1.414 . S
C1208 C1209 1.374 . S
C1209 H1189 0.950 . S
C1209 C1205 1.385 . S
C1209 C1208 1.374 . S
C1210 C1207 1.499 . S
C1210 C1211 1.373 1_556 S
C1210 C1212 1.389 . S
C1211 H1190 0.950 . S
C1211 C1210 1.373 1_554 S
C1211 C1227 1.377 . S
C1212 C1210 1.389 . S
C1212 C1213 1.524 1_545 S
C1212 C1226 1.387 1_545 S
C1213 C1212 1.524 1_565 S
C1213 C1214 1.397 . S
C1213 C1218 1.363 . S
C1214 H1191 0.974 . S
C1214 C1213 1.397 . S
C1214 C1215 1.334 . S
C1215 H1192 0.950 . S
C1215 C1214 1.334 . S
C1215 C1216 1.287 . S
C1216 C1215 1.287 . S
C1216 C1217 1.524 . S
C1216 H1235 0.913 . S
C1217 H1193 0.950 . S
C1217 C1216 1.524 . S
C1217 C1218 1.415 . S
C1218 H1194 0.950 . S
C1218 C1213 1.363 . S
C1218 C1217 1.415 . S
C1219 H1195 0.951 . S
C1219 C1220 1.366 . S
C1219 C1221 1.388 . S
C1220 C1219 1.366 . S
C1220 C1224 1.385 . S
C1221 H1196 0.951 . S
C1221 C1219 1.388 . S
C1221 C1222 1.366 . S
C1222 C1221 1.366 . S
C1222 C1223 1.414 . S
C1222 C1225 1.499 . S
C1223 H1197 0.950 . S
C1223 C1222 1.414 . S
C1223 C1224 1.374 . S
C1224 H1198 0.950 . S
C1224 C1220 1.385 . S
C1224 C1223 1.374 . S
C1225 C1222 1.499 . S
C1225 C1226 1.363 1_554 S
C1225 C1227 1.389 1_565 S
C1226 H1199 0.951 . S
C1226 C1212 1.387 1_565 S
C1226 C1225 1.363 1_556 S
C1227 C1211 1.377 . S
C1227 C1225 1.389 1_545 S
C1227 C1228 1.524 . S
C1228 C1227 1.524 . S
C1228 C1229 1.397 . S
C1228 C1233 1.363 . S
C1229 H1200 0.950 . S
C1229 C1228 1.397 . S
C1229 C1230 1.334 . S
C1230 H1201 0.950 . S
C1230 C1229 1.334 . S
C1230 C1231 1.287 . S
C1231 C1230 1.287 . S
C1231 C1232 1.524 . S
C1231 H1234 0.999 . S
C1232 H1202 0.950 . S
C1232 C1231 1.524 . S
C1232 C1233 1.415 . S
C1233 H1203 0.950 . S
C1233 C1228 1.363 . S
C1233 C1232 1.415 . S
H1234 C1231 0.999 . S
H1235 C1216 0.913 . S
H1236 C1254 0.951 . S
H1237 C1256 0.951 . S
H1238 C1258 0.950 . S
H1239 C1259 0.950 . S
H1240 C1261 0.950 . S
H1241 C1264 0.950 . S
H1242 C1265 0.950 . S
H1243 C1267 0.950 . S
H1244 C1268 0.950 . S
H1245 C1269 0.951 . S
H1246 C1271 0.951 . S
H1247 C1273 0.950 . S
H1248 C1274 0.950 . S
H1249 C1276 0.950 . S
H1250 C1279 0.950 . S
H1251 C1280 0.950 . S
H1252 C1282 0.950 . S
H1253 C1283 0.950 . S
C1254 H1236 0.951 . S
C1254 C1255 1.366 . S
C1254 C1256 1.388 . S
C1255 C1254 1.366 . S
C1255 C1259 1.385 . S
C1256 H1237 0.951 . S
C1256 C1254 1.388 . S
C1256 C1257 1.366 . S
C1257 C1256 1.366 . S
C1257 C1258 1.414 . S
C1257 C1260 1.499 . S
C1258 H1238 0.950 . S
C1258 C1257 1.414 . S
C1258 C1259 1.374 . S
C1259 H1239 0.950 . S
C1259 C1255 1.385 . S
C1259 C1258 1.374 . S
C1260 C1257 1.499 . S
C1260 C1261 1.373 . S
C1260 C1262 1.389 . S
C1261 H1240 0.950 . S
C1261 C1260 1.373 . S
C1261 C1277 1.377 . S
C1262 C1260 1.389 . S
C1262 C1263 1.524 . S
C1262 C1276 1.377 . S
C1263 C1262 1.524 . S
C1263 C1264 1.397 . S
C1263 C1268 1.363 . S
C1264 H1241 0.950 . S
C1264 C1263 1.397 . S
C1264 C1265 1.334 . S
C1265 H1242 0.950 . S
C1265 C1264 1.334 . S
C1265 C1266 1.287 . S
C1266 C1265 1.287 . S
C1266 C1267 1.524 . S
C1266 H1285 0.913 . S
C1267 H1243 0.950 . S
C1267 C1266 1.524 . S
C1267 C1268 1.415 . S
C1268 H1244 0.950 . S
C1268 C1263 1.363 . S
C1268 C1267 1.415 . S
C1269 H1245 0.951 . S
C1269 C1270 1.366 . S
C1269 C1271 1.388 . S
C1270 C1269 1.366 . S
C1270 C1274 1.385 . S
C1271 H1246 0.951 . S
C1271 C1269 1.388 . S
C1271 C1272 1.366 . S
C1272 C1271 1.366 . S
C1272 C1273 1.414 . S
C1272 C1275 1.499 . S
C1273 H1247 0.950 . S
C1273 C1272 1.414 . S
C1273 C1274 1.374 . S
C1274 H1248 0.950 . S
C1274 C1270 1.385 . S
C1274 C1273 1.374 . S
C1275 C1272 1.499 . S
C1275 C1276 1.373 . S
C1275 C1277 1.389 . S
C1276 H1249 0.950 . S
C1276 C1262 1.377 . S
C1276 C1275 1.373 . S
C1277 C1261 1.377 . S
C1277 C1275 1.389 . S
C1277 C1278 1.524 . S
C1278 C1277 1.524 . S
C1278 C1279 1.397 . S
C1278 C1283 1.363 . S
C1279 H1250 0.950 . S
C1279 C1278 1.397 . S
C1279 C1280 1.334 . S
C1280 H1251 0.950 . S
C1280 C1279 1.334 . S
C1280 C1281 1.287 . S
C1281 C1280 1.287 . S
C1281 C1282 1.524 . S
C1281 H1284 0.999 . S
C1282 H1252 0.950 . S
C1282 C1281 1.524 . S
C1282 C1283 1.415 . S
C1283 H1253 0.950 . S
C1283 C1278 1.363 . S
C1283 C1282 1.415 . S
H1284 C1281 0.999 . S
H1285 C1266 0.913 . S
H1286 C1304 0.951 . S
H1287 C1306 0.921 1_655 S
H1288 C1308 0.950 . S
H1289 C1309 0.950 . S
H1290 C1311 0.950 . S
H1291 C1314 0.950 . S
H1292 C1315 0.950 . S
H1293 C1317 0.950 . S
H1294 C1318 0.950 . S
H1295 C1319 0.951 . S
H1296 C1321 0.951 . S
H1297 C1323 0.950 . S
H1298 C1324 0.950 . S
H1299 C1326 0.950 . S
H1300 C1329 0.950 1_655 S
H1301 C1330 0.950 . S
H1302 C1332 0.950 . S
H1303 C1333 0.950 . S
C1304 H1286 0.951 . S
C1304 C1305 1.366 . S
C1304 C1306 1.388 . S
C1305 C1304 1.366 . S
C1305 C1309 1.385 . S
C1306 H1287 0.921 1_455 S
C1306 C1304 1.388 . S
C1306 C1307 1.366 . S
C1307 C1306 1.366 . S
C1307 C1308 1.414 . S
C1307 C1310 1.499 . S
C1308 H1288 0.950 . S
C1308 C1307 1.414 . S
C1308 C1309 1.374 . S
C1309 H1289 0.950 . S
C1309 C1305 1.385 . S
C1309 C1308 1.374 . S
C1310 C1307 1.499 . S
C1310 C1311 1.373 1_554 S
C1310 C1312 1.389 1_455 S
C1311 H1290 0.950 . S
C1311 C1310 1.373 1_556 S
C1311 C1327 1.377 1_455 S
C1312 C1310 1.389 1_655 S
C1312 C1313 1.524 . S
C1312 C1326 1.377 . S
C1313 C1312 1.524 . S
C1313 C1314 1.397 . S
C1313 C1318 1.363 . S
C1314 H1291 0.950 . S
C1314 C1313 1.397 . S
C1314 C1315 1.334 . S
C1315 H1292 0.950 . S
C1315 C1314 1.334 . S
C1315 C1316 1.287 . S
C1316 C1315 1.287 . S
C1316 C1317 1.524 . S
C1316 H1335 0.913 . S
C1317 H1293 0.950 . S
C1317 C1316 1.524 . S
C1317 C1318 1.415 . S
C1318 H1294 0.950 . S
C1318 C1313 1.363 . S
C1318 C1317 1.415 . S
C1319 H1295 0.951 . S
C1319 C1320 1.366 . S
C1319 C1321 1.388 . S
C1320 C1319 1.366 . S
C1320 C1324 1.385 . S
C1321 H1296 0.951 . S
C1321 C1319 1.388 . S
C1321 C1322 1.366 . S
C1322 C1321 1.366 . S
C1322 C1323 1.414 . S
C1322 C1325 1.499 . S
C1323 H1297 0.950 . S
C1323 C1322 1.414 . S
C1323 C1324 1.374 . S
C1324 H1298 0.950 . S
C1324 C1320 1.385 . S
C1324 C1323 1.374 . S
C1325 C1322 1.499 . S
C1325 C1326 1.373 1_556 S
C1325 C1327 1.389 . S
C1326 H1299 0.950 . S
C1326 C1312 1.377 . S
C1326 C1325 1.373 1_554 S
C1327 C1311 1.377 1_655 S
C1327 C1325 1.389 . S
C1327 C1328 1.524 1_655 S
C1328 C1327 1.524 1_455 S
C1328 C1329 1.397 . S
C1328 C1333 1.363 . S
C1329 H1300 0.950 1_455 S
C1329 C1328 1.397 . S
C1329 C1330 1.334 . S
C1330 H1301 0.950 . S
C1330 C1329 1.334 . S
C1330 C1331 1.287 . S
C1331 C1330 1.287 . S
C1331 C1332 1.524 . S
C1331 H1334 0.999 . S
C1332 H1302 0.950 . S
C1332 C1331 1.524 . S
C1332 C1333 1.415 . S
C1333 H1303 0.950 . S
C1333 C1328 1.363 . S
C1333 C1332 1.415 . S
H1334 C1331 0.999 . S
H1335 C1316 0.913 . S
H1336 C1354 0.951 . S
H1337 C1356 0.951 . S
H1338 C1358 0.950 . S
H1339 C1359 0.950 . S
H1340 C1361 0.950 . S
H1341 C1364 0.950 . S
H1342 C1365 0.950 . S
H1343 C1367 0.950 . S
H1344 C1368 0.950 . S
H1345 C1369 0.951 . S
H1346 C1371 0.951 . S
H1347 C1373 0.950 . S
H1348 C1374 0.950 . S
H1349 C1376 0.950 . S
H1350 C1379 0.950 . S
H1351 C1380 0.950 . S
H1352 C1382 0.950 . S
H1353 C1383 0.950 . S
C1354 H1336 0.951 . S
C1354 C1355 1.366 . S
C1354 C1356 1.388 . S
C1355 C1354 1.366 . S
C1355 C1359 1.385 . S
C1356 H1337 0.951 . S
C1356 C1354 1.388 . S
C1356 C1357 1.366 . S
C1357 C1356 1.366 . S
C1357 C1358 1.414 . S
C1357 C1360 1.499 . S
C1358 H1338 0.950 . S
C1358 C1357 1.414 . S
C1358 C1359 1.374 . S
C1359 H1339 0.950 . S
C1359 C1355 1.385 . S
C1359 C1358 1.374 . S
C1360 C1357 1.499 . S
C1360 C1361 1.373 1_545 S
C1360 C1362 1.389 . S
C1361 H1340 0.950 . S
C1361 C1360 1.373 1_565 S
C1361 C1377 1.377 . S
C1362 C1360 1.389 . S
C1362 C1363 1.524 . S
C1362 C1376 1.377 1_545 S
C1363 C1362 1.524 . S
C1363 C1364 1.397 . S
C1363 C1368 1.363 . S
C1364 H1341 0.950 . S
C1364 C1363 1.397 . S
C1364 C1365 1.334 . S
C1365 H1342 0.950 . S
C1365 C1364 1.334 . S
C1365 C1366 1.287 . S
C1366 C1365 1.287 . S
C1366 C1367 1.524 . S
C1366 H1385 0.913 . S
C1367 H1343 0.950 . S
C1367 C1366 1.524 . S
C1367 C1368 1.415 . S
C1368 H1344 0.950 . S
C1368 C1363 1.363 . S
C1368 C1367 1.415 . S
C1369 H1345 0.951 . S
C1369 C1370 1.366 . S
C1369 C1371 1.388 . S
C1370 C1369 1.366 . S
C1370 C1374 1.385 . S
C1371 H1346 0.951 . S
C1371 C1369 1.388 . S
C1371 C1372 1.366 . S
C1372 C1371 1.366 . S
C1372 C1373 1.414 . S
C1372 C1375 1.499 . S
C1373 H1347 0.950 . S
C1373 C1372 1.414 . S
C1373 C1374 1.374 . S
C1374 H1348 0.950 . S
C1374 C1370 1.385 . S
C1374 C1373 1.374 . S
C1375 C1372 1.499 . S
C1375 C1376 1.373 . S
C1375 C1377 1.389 . S
C1376 H1349 0.950 . S
C1376 C1362 1.377 1_565 S
C1376 C1375 1.373 . S
C1377 C1361 1.377 . S
C1377 C1375 1.389 . S
C1377 C1378 1.524 . S
C1378 C1377 1.524 . S
C1378 C1379 1.397 . S
C1378 C1383 1.363 . S
C1379 H1350 0.950 . S
C1379 C1378 1.397 . S
C1379 C1380 1.334 . S
C1380 H1351 0.950 . S
C1380 C1379 1.334 . S
C1380 C1381 1.287 . S
C1381 C1380 1.287 . S
C1381 C1382 1.524 . S
C1381 H1384 0.999 . S
C1382 H1352 0.950 . S
C1382 C1381 1.524 . S
C1382 C1383 1.415 . S
C1383 H1353 0.950 . S
C1383 C1378 1.363 . S
C1383 C1382 1.415 . S
H1384 C1381 0.999 . S
H1385 C1366 0.913 . S
C205 C19 1.122 . S
C220 C144 1.184 . S
C255 C156 1.184 . S
C270 C31 1.122 . S
C305 C20 1.185 . S
C320 C81 1.122 . S
C355 C32 1.185 . S
C370 C93 1.120 . S
C405 C143 1.122 . S
C420 C82 1.184 . S
C455 C155 1.120 . S
C470 C94 1.185 . S
C505 C30 0.892 . S
C520 C125 0.903 . S
C555 C41 0.891 . S
C570 C175 0.904 . S
C605 C1 0.904 . S
C620 C92 0.891 . S
C655 C51 0.904 . S
C670 C103 0.891 . S
C705 C63 0.903 . S
C720 C154 0.893 . S
C755 C165 0.891 . S
C770 C113 0.904 . S
C805 C29 0.976 . S
C820 C184 0.946 . S
C855 C33 0.976 . S
C870 C2 0.945 . S
C905 C91 0.976 . S
C920 C60 0.946 . S
C955 C95 0.976 . S
C970 C64 0.946 . S
C1005 C122 0.945 . S
C1020 C153 0.976 . S
C1055 C157 0.976 . S
C1070 C126 0.946 . S
C1105 C123 2.218 . S
C1120 C62 2.252 . S
C1155 C134 2.217 . S
C1170 C112 2.251 . S
C1205 C185 2.218 . S
C1220 C124 2.252 . S
C1255 C174 2.252 . S
C1270 C10 2.218 . S
C1305 C0 2.252 . S
C1320 C61 2.218 . S
C1355 C50 2.251 . S
C1370 C72 2.217 . S
