# Generated by pormake.
# Topology umc, (4)-cn, num edge types: 1
# Building blocks:
#     Node 0, Type 0, BuildingBlock: GALJAG_clean_sbu_0, # of connection points: 4
#     Node 1, Type 0, BuildingBlock: GALJAG_clean_sbu_0, # of connection points: 4
#     Node 2, Type 0, BuildingBlock: GALJAG_clean_sbu_0, # of connection points: 4
#     Node 3, Type 0, BuildingBlock: GALJAG_clean_sbu_0, # of connection points: 4
#     Node 4, Type 0, BuildingBlock: GALJAG_clean_sbu_0, # of connection points: 4
#     Node 5, Type 0, BuildingBlock: GALJAG_clean_sbu_0, # of connection points: 4
#     Node 6, Type 0, BuildingBlock: GALJAG_clean_sbu_0, # of connection points: 4
#     Node 7, Type 0, BuildingBlock: GALJAG_clean_sbu_0, # of connection points: 4
#     Node 8, Type 0, BuildingBlock: GALJAG_clean_sbu_0, # of connection points: 4
#     Node 9, Type 0, BuildingBlock: GALJAG_clean_sbu_0, # of connection points: 4
#     Node 10, Type 0, BuildingBlock: GALJAG_clean_sbu_0, # of connection points: 4
#     Node 11, Type 0, BuildingBlock: GALJAG_clean_sbu_0, # of connection points: 4
#     Node 12, Type 0, BuildingBlock: GALJAG_clean_sbu_0, # of connection points: 4
#     Node 13, Type 0, BuildingBlock: GALJAG_clean_sbu_0, # of connection points: 4
#     Node 14, Type 0, BuildingBlock: GALJAG_clean_sbu_0, # of connection points: 4
#     Node 15, Type 0, BuildingBlock: GALJAG_clean_sbu_0, # of connection points: 4
#     Edge 16, Type (0, 0), BuildingBlock: XUDNAN_clean_linker_2, # of connection points: 2
#     Edge 17, Type (0, 0), BuildingBlock: XUDNAN_clean_linker_2, # of connection points: 2
#     Edge 18, Type (0, 0), BuildingBlock: XUDNAN_clean_linker_2, # of connection points: 2
#     Edge 19, Type (0, 0), BuildingBlock: XUDNAN_clean_linker_2, # of connection points: 2
#     Edge 20, Type (0, 0), BuildingBlock: XUDNAN_clean_linker_2, # of connection points: 2
#     Edge 21, Type (0, 0), BuildingBlock: XUDNAN_clean_linker_2, # of connection points: 2
#     Edge 22, Type (0, 0), BuildingBlock: XUDNAN_clean_linker_2, # of connection points: 2
#     Edge 23, Type (0, 0), BuildingBlock: XUDNAN_clean_linker_2, # of connection points: 2
#     Edge 24, Type (0, 0), BuildingBlock: XUDNAN_clean_linker_2, # of connection points: 2
#     Edge 25, Type (0, 0), BuildingBlock: XUDNAN_clean_linker_2, # of connection points: 2
#     Edge 26, Type (0, 0), BuildingBlock: XUDNAN_clean_linker_2, # of connection points: 2
#     Edge 27, Type (0, 0), BuildingBlock: XUDNAN_clean_linker_2, # of connection points: 2
#     Edge 28, Type (0, 0), BuildingBlock: XUDNAN_clean_linker_2, # of connection points: 2
#     Edge 29, Type (0, 0), BuildingBlock: XUDNAN_clean_linker_2, # of connection points: 2
#     Edge 30, Type (0, 0), BuildingBlock: XUDNAN_clean_linker_2, # of connection points: 2
#     Edge 31, Type (0, 0), BuildingBlock: XUDNAN_clean_linker_2, # of connection points: 2
#     Edge 32, Type (0, 0), BuildingBlock: XUDNAN_clean_linker_2, # of connection points: 2
#     Edge 33, Type (0, 0), BuildingBlock: XUDNAN_clean_linker_2, # of connection points: 2
#     Edge 34, Type (0, 0), BuildingBlock: XUDNAN_clean_linker_2, # of connection points: 2
#     Edge 35, Type (0, 0), BuildingBlock: XUDNAN_clean_linker_2, # of connection points: 2
#     Edge 36, Type (0, 0), BuildingBlock: XUDNAN_clean_linker_2, # of connection points: 2
#     Edge 37, Type (0, 0), BuildingBlock: XUDNAN_clean_linker_2, # of connection points: 2
#     Edge 38, Type (0, 0), BuildingBlock: XUDNAN_clean_linker_2, # of connection points: 2
#     Edge 39, Type (0, 0), BuildingBlock: XUDNAN_clean_linker_2, # of connection points: 2
#     Edge 40, Type (0, 0), BuildingBlock: XUDNAN_clean_linker_2, # of connection points: 2
#     Edge 41, Type (0, 0), BuildingBlock: XUDNAN_clean_linker_2, # of connection points: 2
#     Edge 42, Type (0, 0), BuildingBlock: XUDNAN_clean_linker_2, # of connection points: 2
#     Edge 43, Type (0, 0), BuildingBlock: XUDNAN_clean_linker_2, # of connection points: 2
#     Edge 44, Type (0, 0), BuildingBlock: XUDNAN_clean_linker_2, # of connection points: 2
#     Edge 45, Type (0, 0), BuildingBlock: XUDNAN_clean_linker_2, # of connection points: 2
#     Edge 46, Type (0, 0), BuildingBlock: XUDNAN_clean_linker_2, # of connection points: 2
#     Edge 47, Type (0, 0), BuildingBlock: XUDNAN_clean_linker_2, # of connection points: 2
# Relax obj value: 0.064
# Max RMSD: 0.131
# Mean RMSD: 0.131
data_MOF--net-umc--node1-GALJAG_clean_sbu_0--edge1-XUDNAN_clean_linker_2
_symmetry_space_group_name_H-M    P1
_symmetry_Int_Tables_number       1
_symmetry_cell_setting            triclinic
loop_
_symmetry_equiv_pos_as_xyz
'x, y, z'
_cell_length_a     41.414643
_cell_length_b     37.971772
_cell_length_c     56.732517
_cell_angle_alpha  89.984044
_cell_angle_beta   89.950185
_cell_angle_gamma 90.014188
loop_
_atom_site_label
_atom_site_type_symbol
_atom_site_fract_x
_atom_site_fract_y
_atom_site_fract_z
_atom_type_partial_charge
In0 In 0.34959 0.06421 0.36552 0.0
O1 O 0.36089 0.12167 0.35685 0.0
O2 O 0.31166 0.10671 0.36217 0.0
C3 C 0.4057 0.02802 0.36483 0.0
C4 C 0.33733 0.06791 0.41199 0.0
C5 C 0.32236 0.03703 0.32659 0.0
O6 O 0.40446 0.06056 0.36003 0.0
O7 O 0.37892 0.01429 0.37016 0.0
O8 O 0.31334 0.02773 0.34704 0.0
O9 O 0.3447 0.05962 0.32612 0.0
C10 C 0.33154 0.13115 0.35783 0.0
O11 O 0.32187 0.04669 0.39894 0.0
O12 O 0.35899 0.0855 0.40171 0.0
In13 In 0.68972 0.92116 0.36826 0.0
O14 O 0.71311 0.95745 0.39593 0.0
O15 O 0.67625 0.92171 0.40665 0.0
C16 C 0.71068 0.94411 0.32616 0.0
C17 C 0.72578 0.86238 0.37192 0.0
C18 C 0.62575 0.93129 0.36224 0.0
O19 O 0.70954 0.96424 0.34391 0.0
O20 O 0.70141 0.91295 0.32978 0.0
O21 O 0.63767 0.90091 0.36525 0.0
O22 O 0.64615 0.95596 0.36175 0.0
C23 C 0.69585 0.94553 0.41254 0.0
O24 O 0.69565 0.86115 0.36814 0.0
O25 O 0.73721 0.89301 0.37421 0.0
In26 In 0.33154 0.92572 0.1262 0.0
O27 O 0.34075 0.86674 0.1233 0.0
O28 O 0.29185 0.88419 0.12325 0.0
C29 C 0.39399 0.94344 0.13418 0.0
C30 C 0.31859 0.94521 0.08131 0.0
C31 C 0.30596 0.9483 0.16738 0.0
O32 O 0.38363 0.91225 0.13604 0.0
O33 O 0.37285 0.96572 0.12839 0.0
O34 O 0.31072 0.96899 0.15028 0.0
O35 O 0.3133 0.9167 0.16343 0.0
C36 C 0.31118 0.85849 0.12227 0.0
O37 O 0.29964 0.95282 0.09805 0.0
O38 O 0.34364 0.92885 0.08748 0.0
In39 In 0.67331 0.06847 0.1296 0.0
O40 O 0.67567 0.12896 0.13416 0.0
O41 O 0.71908 0.09986 0.12842 0.0
C42 C 0.61433 0.04002 0.13613 0.0
C43 C 0.67939 0.0571 0.08313 0.0
C44 C 0.69875 0.04054 0.16868 0.0
O45 O 0.61816 0.07323 0.13596 0.0
O46 O 0.63975 0.02241 0.13284 0.0
O47 O 0.70509 0.02856 0.14834 0.0
O48 O 0.67984 0.06671 0.16911 0.0
C49 C 0.7062 0.12951 0.13189 0.0
O50 O 0.69575 0.04003 0.09811 0.0
O51 O 0.66014 0.0795 0.09171 0.0
In52 In 0.66353 0.94664 0.62808 0.0
O53 O 0.69644 0.97179 0.59999 0.0
O54 O 0.65208 0.9486 0.58928 0.0
C55 C 0.69199 0.96316 0.66914 0.0
C56 C 0.67893 0.87779 0.62622 0.0
C57 C 0.60591 0.97842 0.63538 0.0
O58 O 0.69449 0.98276 0.6512 0.0
O59 O 0.67559 0.93555 0.6662 0.0
O60 O 0.60814 0.94566 0.63165 0.0
O61 O 0.63248 0.9946 0.63551 0.0
C62 C 0.6776 0.96424 0.5832 0.0
O63 O 0.65026 0.88823 0.62963 0.0
O64 O 0.69949 0.90206 0.62359 0.0
In65 In 0.31942 0.07992 0.63087 0.0
O66 O 0.31048 0.13766 0.64011 0.0
O67 O 0.26985 0.10518 0.63206 0.0
C68 C 0.38328 0.0682 0.63621 0.0
C69 C 0.31563 0.0814 0.5835 0.0
C70 C 0.29825 0.03998 0.66682 0.0
O71 O 0.37035 0.0973 0.64164 0.0
O72 O 0.36404 0.04545 0.62814 0.0
O73 O 0.29547 0.02997 0.64559 0.0
O74 O 0.3113 0.06975 0.66953 0.0
C75 C 0.28014 0.13543 0.63758 0.0
O76 O 0.30479 0.05536 0.59506 0.0
O77 O 0.32826 0.10533 0.59583 0.0
In78 In 0.65855 0.08345 0.86519 0.0
O79 O 0.65143 0.14292 0.86449 0.0
O80 O 0.69959 0.12372 0.86603 0.0
C81 C 0.59636 0.06363 0.85851 0.0
C82 C 0.67009 0.06723 0.9107 0.0
C83 C 0.6857 0.05469 0.82653 0.0
O84 O 0.60603 0.0948 0.85538 0.0
O85 O 0.61803 0.04242 0.86497 0.0
O86 O 0.68817 0.04088 0.84669 0.0
O87 O 0.66984 0.08302 0.82599 0.0
C88 C 0.68116 0.15017 0.86537 0.0
O89 O 0.68643 0.05416 0.89405 0.0
O90 O 0.64813 0.08811 0.9043 0.0
In91 In 0.32503 0.92025 0.86401 0.0
O92 O 0.29272 0.94518 0.89278 0.0
O93 O 0.33819 0.92343 0.90241 0.0
C94 C 0.29857 0.93414 0.82171 0.0
C95 C 0.31079 0.85133 0.86762 0.0
C96 C 0.38074 0.95553 0.8567 0.0
O97 O 0.29233 0.95275 0.83968 0.0
O98 O 0.31733 0.90854 0.82533 0.0
O99 O 0.38029 0.92247 0.85964 0.0
O100 O 0.35341 0.97013 0.85734 0.0
C101 C 0.31275 0.93867 0.90908 0.0
O102 O 0.33948 0.8623 0.86506 0.0
O103 O 0.2895 0.87514 0.86831 0.0
In104 In 0.84292 0.55992 0.36548 0.0
O105 O 0.81176 0.5344 0.39432 0.0
O106 O 0.85371 0.56316 0.4043 0.0
C107 C 0.81406 0.54222 0.32482 0.0
C108 C 0.82816 0.62906 0.36625 0.0
C109 C 0.89883 0.524 0.36035 0.0
O110 O 0.80504 0.52966 0.34442 0.0
O111 O 0.83747 0.56347 0.32591 0.0
O112 O 0.89797 0.55731 0.36081 0.0
O113 O 0.87168 0.50922 0.36228 0.0
C114 C 0.82952 0.54551 0.41085 0.0
O115 O 0.85696 0.6183 0.36417 0.0
O116 O 0.80723 0.60503 0.36774 0.0
In117 In 0.18345 0.41732 0.36686 0.0
O118 O 0.19091 0.35788 0.36153 0.0
O119 O 0.23228 0.39054 0.36577 0.0
C120 C 0.11935 0.4284 0.36192 0.0
C121 C 0.19074 0.43065 0.41314 0.0
C122 C 0.20289 0.45348 0.32876 0.0
O123 O 0.13163 0.398 0.36005 0.0
O124 O 0.13933 0.45261 0.36619 0.0
O125 O 0.20609 0.46551 0.34941 0.0
O126 O 0.19012 0.42335 0.3275 0.0
C127 C 0.22139 0.35992 0.36246 0.0
O128 O 0.20461 0.44894 0.39751 0.0
O129 O 0.17365 0.40574 0.40535 0.0
In130 In 0.8287 0.4307 0.12897 0.0
O131 O 0.83954 0.37224 0.13339 0.0
O132 O 0.79117 0.38715 0.12523 0.0
C133 C 0.89076 0.44898 0.1383 0.0
C134 C 0.81861 0.44476 0.08299 0.0
C135 C 0.79738 0.46095 0.16569 0.0
O136 O 0.87847 0.42051 0.14556 0.0
O137 O 0.87187 0.46793 0.12642 0.0
O138 O 0.81188 0.47885 0.15026 0.0
O139 O 0.7978 0.42831 0.16213 0.0
C140 C 0.81077 0.36247 0.12959 0.0
O141 O 0.80152 0.4587 0.09892 0.0
O142 O 0.84004 0.424 0.09038 0.0
In143 In 0.1714 0.56677 0.13015 0.0
O144 O 0.19555 0.52975 0.10363 0.0
O145 O 0.15731 0.56309 0.09191 0.0
C146 C 0.19723 0.55278 0.17227 0.0
C147 C 0.20373 0.62728 0.12281 0.0
C148 C 0.11154 0.54321 0.14024 0.0
O149 O 0.20022 0.53184 0.15502 0.0
O150 O 0.18158 0.58065 0.16809 0.0
O151 O 0.11613 0.57462 0.13331 0.0
O152 O 0.13675 0.52481 0.14198 0.0
C153 C 0.17807 0.54002 0.08667 0.0
O154 O 0.17394 0.6275 0.12819 0.0
O155 O 0.21614 0.59706 0.12097 0.0
In156 In 0.15678 0.43408 0.63088 0.0
O157 O 0.14326 0.37602 0.63642 0.0
O158 O 0.19278 0.3893 0.63135 0.0
C159 C 0.10085 0.47073 0.6343 0.0
C160 C 0.17165 0.44329 0.58509 0.0
C161 C 0.18674 0.45646 0.67004 0.0
O162 O 0.10138 0.43741 0.63476 0.0
O163 O 0.12819 0.48496 0.63221 0.0
O164 O 0.19436 0.46765 0.64979 0.0
O165 O 0.164 0.43431 0.67041 0.0
C166 C 0.17219 0.36539 0.63495 0.0
O167 O 0.18744 0.45804 0.60137 0.0
O168 O 0.14847 0.42432 0.59197 0.0
In169 In 0.81879 0.58562 0.6271 0.0
O170 O 0.79609 0.55127 0.5983 0.0
O171 O 0.83065 0.59013 0.5884 0.0
C172 C 0.79958 0.55535 0.66749 0.0
C173 C 0.78244 0.64469 0.62701 0.0
C174 C 0.88249 0.57253 0.63208 0.0
O175 O 0.79413 0.54162 0.64758 0.0
O176 O 0.81427 0.58448 0.66689 0.0
O177 O 0.87124 0.60356 0.63253 0.0
O178 O 0.86165 0.54867 0.62926 0.0
C179 C 0.81197 0.56575 0.58191 0.0
O180 O 0.81292 0.64587 0.62853 0.0
O181 O 0.77082 0.61408 0.62556 0.0
In182 In 0.18522 0.55199 0.87033 0.0
O183 O 0.18637 0.61254 0.8696 0.0
O184 O 0.22963 0.58417 0.87747 0.0
C185 C 0.12624 0.5257 0.86084 0.0
C186 C 0.18925 0.53227 0.91557 0.0
C187 C 0.21194 0.53397 0.82923 0.0
O188 O 0.13035 0.55844 0.86432 0.0
O189 O 0.15157 0.50735 0.86201 0.0
O190 O 0.2143 0.51434 0.84722 0.0
O191 O 0.19646 0.56228 0.83216 0.0
C192 C 0.21632 0.61376 0.87441 0.0
O193 O 0.20814 0.51977 0.9001 0.0
O194 O 0.16886 0.55427 0.90802 0.0
In195 In 0.83762 0.43189 0.86549 0.0
O196 O 0.81632 0.46751 0.89423 0.0
O197 O 0.84727 0.42514 0.90419 0.0
C198 C 0.8156 0.45575 0.82405 0.0
C199 C 0.79914 0.37497 0.86793 0.0
C200 C 0.90153 0.44255 0.85947 0.0
O201 O 0.81633 0.47536 0.8421 0.0
O202 O 0.82637 0.42503 0.827 0.0
O203 O 0.88911 0.41208 0.85894 0.0
O204 O 0.88172 0.46726 0.8629 0.0
C205 C 0.82976 0.45052 0.91075 0.0
O206 O 0.82943 0.37203 0.8652 0.0
O207 O 0.78896 0.40621 0.86963 0.0
H208 H 0.32004 0.02136 0.44764 0.0
H209 H 0.33692 0.13172 0.43207 0.0
H210 H 0.32758 0.1468 0.47365 0.0
H211 H 0.25821 0.03491 0.49469 0.0
H212 H 0.2737 0.99978 0.51282 0.0
H213 H 0.27752 0.99743 0.4812 0.0
H214 H 0.33934 0.98942 0.48537 0.0
H215 H 0.33573 0.99182 0.51695 0.0
H216 H 0.36236 0.02158 0.50161 0.0
H217 H 0.32137 0.15027 0.51619 0.0
H218 H 0.31979 0.14206 0.55906 0.0
H219 H 0.30788 0.02933 0.54948 0.0
C220 C 0.32099 0.04868 0.45304 0.0
C221 C 0.32894 0.0755 0.43672 0.0
C222 C 0.33086 0.11088 0.44436 0.0
C223 C 0.32543 0.11973 0.4679 0.0
C224 C 0.31832 0.09284 0.48371 0.0
C225 C 0.31613 0.05801 0.4768 0.0
C226 C 0.31093 0.03427 0.49809 0.0
C227 C 0.27813 0.01549 0.49661 0.0
C228 C 0.33875 0.00771 0.50065 0.0
C229 C 0.31127 0.06124 0.51792 0.0
C230 C 0.31518 0.09483 0.50898 0.0
C231 C 0.31796 0.12418 0.52346 0.0
C232 C 0.31717 0.11918 0.54781 0.0
C233 C 0.31365 0.08509 0.5576 0.0
C234 C 0.31015 0.05572 0.54244 0.0
H235 H 0.64048 0.94702 0.54563 0.0
H236 H 0.73197 0.9952 0.56414 0.0
H237 H 0.74536 0.00088 0.52164 0.0
H238 H 0.66981 0.8949 0.5003 0.0
H239 H 0.63446 0.89915 0.482 0.0
H240 H 0.63089 0.90308 0.51347 0.0
H241 H 0.60436 0.96452 0.50864 0.0
H242 H 0.60774 0.96073 0.47708 0.0
H243 H 0.62495 0.99819 0.492 0.0
H244 H 0.7497 0.99706 0.47646 0.0
H245 H 0.74524 0.9823 0.43392 0.0
H246 H 0.65147 0.93529 0.44683 0.0
C247 C 0.66313 0.95937 0.54082 0.0
C248 C 0.68514 0.97085 0.55814 0.0
C249 C 0.71468 0.98643 0.55109 0.0
C250 C 0.72244 0.98979 0.52702 0.0
C251 C 0.70031 0.97753 0.51037 0.0
C252 C 0.67122 0.96271 0.51709 0.0
C253 C 0.65242 0.94917 0.49619 0.0
C254 C 0.64658 0.90922 0.49811 0.0
C255 C 0.62048 0.96937 0.49331 0.0
C256 C 0.67574 0.95784 0.47659 0.0
C257 C 0.70306 0.97467 0.4849 0.0
C258 C 0.72828 0.98413 0.4698 0.0
C259 C 0.72557 0.97571 0.44571 0.0
C260 C 0.69808 0.95759 0.4372 0.0
C261 C 0.67282 0.94909 0.45286 0.0
H262 H 0.35865 0.93323 0.04436 0.0
H263 H 0.26312 0.97252 0.06136 0.0
H264 H 0.25141 0.97892 0.01862 0.0
H265 H 0.37323 0.98878 0.993 0.0
H266 H 0.39411 0.95413 0.97753 0.0
H267 H 0.39521 0.95577 0.00925 0.0
H268 H 0.37308 0.89194 0.01116 0.0
H269 H 0.37176 0.89015 0.9795 0.0
H270 H 0.33577 0.88142 0.99641 0.0
H271 H 0.24965 0.9767 0.97307 0.0
H272 H 0.25827 0.96662 0.93023 0.0
H273 H 0.35495 0.92871 0.94495 0.0
C274 C 0.33538 0.9437 0.03919 0.0
C275 C 0.3118 0.95249 0.05616 0.0
C276 C 0.2816 0.96583 0.04861 0.0
C277 C 0.27476 0.9695 0.02439 0.0
C278 C 0.29848 0.95989 0.00808 0.0
C279 C 0.32825 0.94747 0.01531 0.0
C280 C 0.34927 0.93728 0.99465 0.0
C281 C 0.37975 0.96038 0.99355 0.0
C282 C 0.35796 0.89787 0.99549 0.0
C283 C 0.32662 0.94533 0.97454 0.0
C284 C 0.29746 0.95855 0.98244 0.0
C285 C 0.27253 0.96665 0.96675 0.0
C286 C 0.27759 0.96085 0.94248 0.0
C287 C 0.30727 0.94695 0.93427 0.0
C288 C 0.33201 0.93949 0.95061 0.0
H289 H 0.63979 0.09597 0.94868 0.0
H290 H 0.71423 0.02097 0.9293 0.0
H291 H 0.72438 0.00886 0.97158 0.0
H292 H 0.68049 0.13194 -0.00153 0.0
H293 H 0.64411 0.13733 0.01555 0.0
H294 H 0.6424 0.13905 0.98387 0.0
H295 H 0.5995 0.0893 0.98382 0.0
H296 H 0.60108 0.08741 0.01551 0.0
H297 H 0.60827 0.0482 -0.00161 0.0
H298 H 0.72646 0.00582 0.01641 0.0
H299 H 0.7208 0.01274 0.05965 0.0
H300 H 0.64524 0.09015 0.04863 0.0
C301 C 0.65815 0.07686 0.95329 0.0
C302 C 0.6762 0.05931 0.93577 0.0
C303 C 0.70012 0.03466 0.9425 0.0
C304 C 0.70601 0.02761 0.96643 0.0
C305 C 0.68778 0.0455 0.98329 0.0
C306 C 0.66436 0.06964 0.97696 0.0
C307 C 0.64844 0.0859 -0.00168 0.0
C308 C 0.65422 0.12592 -0.00091 0.0
C309 C 0.61218 0.07716 -0.00095 0.0
C310 C 0.66656 0.06722 0.01774 0.0
C311 C 0.68911 0.04393 0.00881 0.0
C312 C 0.70884 0.02394 0.02357 0.0
C313 C 0.70546 0.02802 0.04807 0.0
C314 C 0.6826 0.05196 0.05745 0.0
C315 C 0.66293 0.07162 0.042 0.0
H316 H 0.85367 0.58242 0.54683 0.0
H317 H 0.76497 0.52538 0.56082 0.0
H318 H 0.76068 0.51056 0.51831 0.0
H319 H 0.83084 0.62031 0.49314 0.0
H320 H 0.8701 0.61596 0.47973 0.0
H321 H 0.86663 0.62001 0.51121 0.0
H322 H 0.89848 0.56173 0.51656 0.0
H323 H 0.90207 0.55751 0.48504 0.0
H324 H 0.88453 0.5223 0.5021 0.0
H325 H 0.7649 0.50584 0.4733 0.0
H326 H 0.77788 0.51053 0.43069 0.0
H327 H 0.86454 0.56931 0.44792 0.0
C328 C 0.8334 0.56663 0.54101 0.0
C329 C 0.80955 0.55516 0.55699 0.0
C330 C 0.78352 0.53436 0.54876 0.0
C331 C 0.78092 0.52584 0.5247 0.0
C332 C 0.80481 0.53795 0.50933 0.0
C333 C 0.83069 0.55763 0.5173 0.0
C334 C 0.85292 0.56815 0.49742 0.0
C335 C 0.85523 0.60849 0.49525 0.0
C336 C 0.88648 0.55142 0.50047 0.0
C337 C 0.83512 0.55222 0.47683 0.0
C338 C 0.80752 0.53468 0.48392 0.0
C339 C 0.78665 0.51918 0.46762 0.0
C340 C 0.79418 0.52196 0.4435 0.0
C341 C 0.82224 0.54016 0.43606 0.0
C342 C 0.843 0.55502 0.45304 0.0
H343 H 0.14572 0.40698 0.54834 0.0
H344 H 0.21584 0.48812 0.56502 0.0
H345 H 0.22888 0.49403 0.52256 0.0
H346 H 0.19183 0.36558 0.50256 0.0
H347 H 0.15693 0.3558 0.48476 0.0
H348 H 0.15311 0.35855 0.51633 0.0
H349 H 0.10825 0.40568 0.51173 0.0
H350 H 0.11191 0.40306 0.48016 0.0
H351 H 0.11631 0.4449 0.4948 0.0
H352 H 0.23334 0.49129 0.47784 0.0
H353 H 0.22975 0.47914 0.435 0.0
H354 H 0.1576 0.39881 0.4487 0.0
C355 C 0.16378 0.42607 0.54309 0.0
C356 C 0.17971 0.4472 0.55989 0.0
C357 C 0.20335 0.4717 0.55236 0.0
C358 C 0.21088 0.47524 0.52832 0.0
C359 C 0.19467 0.45392 0.51218 0.0
C360 C 0.17171 0.42973 0.51931 0.0
C361 C 0.15794 0.40962 0.49864 0.0
C362 C 0.16541 0.37005 0.5007 0.0
C363 C 0.12145 0.41623 0.49619 0.0
C364 C 0.1766 0.42636 0.47868 0.0
C365 C 0.19763 0.45192 0.48675 0.0
C366 C 0.21705 0.47124 0.47135 0.0
C367 C 0.21484 0.46419 0.44709 0.0
C368 C 0.1935 0.43797 0.4386 0.0
C369 C 0.17428 0.41888 0.45468 0.0
H370 H 0.85829 0.41773 0.9477 0.0
H371 H 0.7888 0.49934 0.93078 0.0
H372 H 0.77802 0.50783 0.97346 0.0
H373 H 0.81438 0.37928 0.99452 0.0
H374 H 0.84972 0.36964 0.01187 0.0
H375 H 0.85262 0.37148 0.98024 0.0
H376 H 0.89793 0.41842 0.98339 0.0
H377 H 0.89534 0.41654 0.01505 0.0
H378 H 0.89077 0.45809 5e-05 0.0
H379 H 0.77385 0.50506 0.01869 0.0
H380 H 0.77823 0.49284 0.06158 0.0
H381 H 0.85057 0.41311 0.04709 0.0
C382 C 0.84098 0.43765 0.9529 0.0
C383 C 0.8244 0.45794 0.93598 0.0
C384 C 0.80185 0.48362 0.94353 0.0
C385 C 0.79555 0.48853 0.96769 0.0
C386 C 0.81208 0.4676 0.98392 0.0
C387 C 0.83447 0.44282 0.97673 0.0
C388 C 0.84874 0.42311 0.99734 0.0
C389 C 0.84088 0.38355 0.9959 0.0
C390 C 0.88536 0.42944 -0.00094 0.0
C391 C 0.83089 0.44052 0.01737 0.0
C392 C 0.80978 0.46609 0.00945 0.0
C393 C 0.79043 0.48519 0.02504 0.0
C394 C 0.79299 0.47805 0.04932 0.0
C395 C 0.81477 0.45211 0.0576 0.0
C396 C 0.83377 0.4332 0.04132 0.0
H397 H 0.14033 0.55605 0.04911 0.0
H398 H 0.22657 0.49833 0.06873 0.0
H399 H 0.23672 0.48476 0.02662 0.0
H400 H 0.11632 0.49932 -0.00075 0.0
H401 H 0.10244 0.5365 0.98231 0.0
H402 H 0.10025 0.53752 0.01403 0.0
H403 H 0.13324 0.59558 0.01433 0.0
H404 H 0.13571 0.59464 0.98271 0.0
H405 H 0.17212 0.59686 2e-05 0.0
H406 H 0.23992 0.48303 0.98161 0.0
H407 H 0.23557 0.49304 0.93849 0.0
H408 H 0.14725 0.55209 0.94975 0.0
C409 C 0.16103 0.53995 0.04464 0.0
C410 C 0.18264 0.52815 0.06213 0.0
C411 C 0.2096 0.50742 0.05556 0.0
C412 C 0.21553 0.4996 0.03171 0.0
C413 C 0.19407 0.51245 0.01481 0.0
C414 C 0.16721 0.53194 0.02109 0.0
C415 C 0.14895 0.54485 -0.00025 0.0
C416 C 0.11498 0.52856 -0.00122 0.0
C417 C 0.14745 0.58537 -0.00082 0.0
C418 C 0.17024 0.53058 0.98038 0.0
C419 C 0.19596 0.51158 0.98926 0.0
C420 C 0.21963 0.49747 0.97448 0.0
C421 C 0.21701 0.50329 0.95006 0.0
C422 C 0.19108 0.52329 0.94084 0.0
C423 C 0.1673 0.53657 0.95625 0.0
H424 H 0.59584 0.99472 0.35554 0.0
H425 H 0.57634 0.88362 0.36653 0.0
H426 H 0.51772 0.8962 0.36729 0.0
H427 H 0.53533 0.02732 0.39373 0.0
H428 H 0.52491 0.06441 0.37542 0.0
H429 H 0.56511 0.04645 0.37437 0.0
H430 H 0.55992 0.03746 0.32926 0.0
H431 H 0.51974 0.05562 0.33014 0.0
H432 H 0.52641 0.01252 0.31774 0.0
H433 H 0.46156 0.92146 0.36907 0.0
H434 H 0.41171 0.95699 0.37026 0.0
H435 H 0.46781 0.05172 0.35767 0.0
C436 C 0.57923 0.97294 0.35783 0.0
C437 C 0.59062 0.93813 0.36092 0.0
C438 C 0.56813 0.91043 0.36403 0.0
C439 C 0.53482 0.91735 0.36452 0.0
C440 C 0.52445 0.95206 0.36176 0.0
C441 C 0.54597 0.97937 0.35831 0.0
C442 C 0.52865 0.01442 0.35635 0.0
C443 C 0.53912 0.03962 0.37615 0.0
C444 C 0.534 0.03097 0.33192 0.0
C445 C 0.49397 0.00266 0.35954 0.0
C446 C 0.49209 0.96658 0.36261 0.0
C447 C 0.46273 0.94967 0.36651 0.0
C448 C 0.43456 0.97012 0.36722 0.0
C449 C 0.43586 0.00712 0.36401 0.0
C450 C 0.46602 0.02349 0.36007 0.0
H451 H 0.42306 0.00811 0.12806 0.0
H452 H 0.44257 0.90003 0.14854 0.0
H453 H 0.50019 0.91463 0.15356 0.0
H454 H 0.4946 0.02057 0.09444 0.0
H455 H 0.50077 0.06566 0.10329 0.0
H456 H 0.4606 0.04754 0.10269 0.0
H457 H 0.45266 0.06471 0.1465 0.0
H458 H 0.49286 0.08289 0.14723 0.0
H459 H 0.48122 0.04954 0.1682 0.0
H460 H 0.5555 0.93937 0.15422 0.0
H461 H 0.6061 0.97276 0.15043 0.0
H462 H 0.55211 0.06583 0.12996 0.0
C463 C 0.43943 0.98763 0.13384 0.0
C464 C 0.42831 0.95289 0.13798 0.0
C465 C 0.45051 0.92678 0.14531 0.0
C466 C 0.48328 0.93485 0.14825 0.0
C467 C 0.49351 0.9692 0.14387 0.0
C468 C 0.47234 0.99526 0.13686 0.0
C469 C 0.49006 0.02972 0.13248 0.0
C470 C 0.48628 0.04156 0.10669 0.0
C471 C 0.47851 0.05841 0.14963 0.0
C472 C 0.52457 0.01875 0.13776 0.0
C473 C 0.5258 0.98373 0.1444 0.0
C474 C 0.55484 0.96687 0.14923 0.0
C475 C 0.58348 0.9861 0.14696 0.0
C476 C 0.58307 0.02194 0.13998 0.0
C477 C 0.55312 0.03863 0.13563 0.0
H478 H 0.54451 0.95318 0.62762 0.0
H479 H 0.59721 0.04597 0.65026 0.0
H480 H 0.54594 0.07855 0.65421 0.0
H481 H 0.48676 0.9989 0.59264 0.0
H482 H 0.45353 0.97037 0.60017 0.0
H483 H 0.49419 0.9536 0.60045 0.0
H484 H 0.48695 0.93376 0.64385 0.0
H485 H 0.44621 0.95039 0.64368 0.0
H486 H 0.4744 0.96544 0.66567 0.0
H487 H 0.489 0.10173 0.65462 0.0
H488 H 0.43049 0.11375 0.65098 0.0
H489 H 0.41501 0.00636 0.62737 0.0
C490 C 0.54519 0.98022 0.63366 0.0
C491 C 0.57483 0.997 0.63872 0.0
C492 C 0.57477 0.03257 0.64629 0.0
C493 C 0.54577 0.0513 0.64862 0.0
C494 C 0.51698 0.03416 0.64325 0.0
C495 C 0.51643 0.99943 0.63592 0.0
C496 C 0.4823 0.98763 0.63043 0.0
C497 C 0.47902 0.97701 0.60438 0.0
C498 C 0.47186 0.95752 0.6469 0.0
C499 C 0.46383 0.02118 0.63569 0.0
C500 C 0.48424 0.04767 0.64318 0.0
C501 C 0.47276 0.08116 0.64883 0.0
C502 C 0.43952 0.08776 0.6467 0.0
C503 C 0.41822 0.06104 0.63889 0.0
C504 C 0.43067 0.02735 0.6334 0.0
H505 H 0.56968 0.99808 0.86509 0.0
H506 H 0.54601 0.10522 0.84477 0.0
H507 H 0.48879 0.08821 0.84035 0.0
H508 H 0.51313 0.95448 0.82535 0.0
H509 H 0.50306 0.92045 0.84625 0.0
H510 H 0.54245 0.9406 0.84691 0.0
H511 H 0.53408 0.95708 0.8908 0.0
H512 H 0.49471 0.93699 0.89029 0.0
H513 H 0.49904 0.98228 0.89925 0.0
H514 H 0.43413 0.06056 0.83983 0.0
H515 H 0.38515 0.02404 0.84317 0.0
H516 H 0.44379 0.93424 0.86337 0.0
C517 C 0.55248 0.01789 0.85954 0.0
C518 C 0.56228 0.053 0.85523 0.0
C519 C 0.53905 0.07819 0.84813 0.0
C520 C 0.50651 0.06876 0.84554 0.0
C521 C 0.49761 0.034 0.85004 0.0
C522 C 0.51987 0.0089 0.85683 0.0
C523 C 0.50371 0.97361 0.86117 0.0
C524 C 0.51634 0.94564 0.84389 0.0
C525 C 0.50815 0.96181 0.88691 0.0
C526 C 0.46882 0.98293 0.85605 0.0
C527 C 0.46594 0.0179 0.84958 0.0
C528 C 0.4361 0.0331 0.84472 0.0
C529 C 0.40841 0.01212 0.8467 0.0
C530 C 0.41067 0.97627 0.85345 0.0
C531 C 0.44136 0.96146 0.85795 0.0
H532 H 0.96121 0.54862 0.36229 0.0
H533 H 0.90487 0.45301 0.35428 0.0
H534 H 0.95511 0.41809 0.35248 0.0
H535 H 0.02735 0.52342 0.32354 0.0
H536 H 0.05772 0.54355 0.34187 0.0
H537 H 0.01733 0.56114 0.3414 0.0
H538 H 0.0137 0.55428 0.38679 0.0
H539 H 0.05402 0.53661 0.38739 0.0
H540 H 0.02111 0.51181 0.39993 0.0
H541 H 0.01173 0.39327 0.35262 0.0
H542 H 0.07031 0.38073 0.35523 0.0
H543 H 0.08932 0.4924 0.36372 0.0
C544 C 0.95947 0.52039 0.35992 0.0
C545 C 0.92914 0.50355 0.35833 0.0
C546 C 0.92786 0.46649 0.35551 0.0
C547 C 0.95626 0.44641 0.35444 0.0
C548 C 0.98579 0.46376 0.35626 0.0
C549 C 0.9876 0.49991 0.35895 0.0
C550 C 0.02231 0.51195 0.36127 0.0
C551 C 0.03172 0.53646 0.3408 0.0
C552 C 0.02811 0.5297 0.38527 0.0
C553 C 0.0397 0.47695 0.35962 0.0
C554 C 0.01827 0.44945 0.35661 0.0
C555 C 0.02875 0.41461 0.3549 0.0
C556 C 0.06203 0.40773 0.35641 0.0
C557 C 0.08435 0.43554 0.35968 0.0
C558 C 0.07288 0.47054 0.3612 0.0
H559 H 0.05155 0.56458 0.12425 0.0
H560 H 0.0995 0.48604 0.16736 0.0
H561 H 0.04774 0.45535 0.17329 0.0
H562 H 0.97435 0.56569 0.15724 0.0
H563 H 0.9504 0.57014 0.1309 0.0
H564 H 0.99066 0.5881 0.13186 0.0
H565 H 0.00579 0.55214 0.09466 0.0
H566 H 0.9657 0.53389 0.09368 0.0
H567 H 1.00022 0.50504 0.09472 0.0
H568 H 0.99203 0.43053 0.17238 0.0
H569 H 0.93524 0.41383 0.16504 0.0
H570 H 0.92279 0.50757 0.12219 0.0
C571 C 0.05091 0.54139 0.13535 0.0
C572 C 0.07949 0.52781 0.14547 0.0
C573 C 0.07788 0.49693 0.15946 0.0
C574 C 0.04858 0.47931 0.16298 0.0
C575 C 0.02097 0.49278 0.15235 0.0
C576 C 0.02174 0.52317 0.13889 0.0
C577 C 0.98879 0.53071 0.12835 0.0
C578 C 0.97525 0.56574 0.13765 0.0
C579 C 0.99023 0.53041 0.10125 0.0
C580 C 0.96967 0.49959 0.13773 0.0
C581 C 0.98868 0.47818 0.15165 0.0
C582 C 0.97678 0.44724 0.16167 0.0
C583 C 0.94453 0.43791 0.15736 0.0
C584 C 0.92458 0.45939 0.14312 0.0
C585 C 0.9374 0.4907 0.13328 0.0
H586 H 0.91074 0.50742 0.6321 0.0
H587 H 0.93292 0.61894 0.63648 0.0
H588 H 0.99118 0.60475 0.63867 0.0
H589 H 0.97303 0.47751 0.67233 0.0
H590 H 0.98146 0.43817 0.65565 0.0
H591 H 0.94159 0.45714 0.65511 0.0
H592 H 0.94404 0.46056 0.60953 0.0
H593 H 0.9839 0.44166 0.60991 0.0
H594 H 0.97711 0.48337 0.59558 0.0
H595 H 0.04694 0.57839 0.63899 0.0
H596 H 0.09628 0.54209 0.63784 0.0
H597 H 0.03776 0.44746 0.63366 0.0
C598 C 0.92783 0.52889 0.63366 0.0
C599 C 0.91732 0.56434 0.63414 0.0
C600 C 0.94044 0.59163 0.63612 0.0
C601 C 0.97355 0.5838 0.63738 0.0
C602 C 0.98308 0.54856 0.63672 0.0
C603 C 0.96089 0.52155 0.63498 0.0
C604 C 0.97744 0.48593 0.63421 0.0
C605 C 0.96781 0.46336 0.6556 0.0
C606 C 0.97019 0.46677 0.61092 0.0
C607 C 0.0125 0.49711 0.63558 0.0
C608 C 0.01518 0.53336 0.63705 0.0
C609 C 0.04511 0.55 0.63796 0.0
C610 C 0.073 0.52912 0.63728 0.0
C611 C 0.07088 0.49192 0.63572 0.0
C612 C 0.04015 0.47579 0.635 0.0
H613 H 0.0652 0.55448 0.86595 0.0
H614 H 0.1156 0.45847 0.84666 0.0
H615 H 0.06366 0.42761 0.84263 0.0
H616 H 0.00501 0.51355 0.90084 0.0
H617 H 0.97264 0.54226 0.89182 0.0
H618 H 0.01365 0.55798 0.89155 0.0
H619 H 0.00817 0.57447 0.84742 0.0
H620 H 0.96704 0.55897 0.84759 0.0
H621 H 0.99546 0.54144 0.82657 0.0
H622 H 0.00688 0.40569 0.84327 0.0
H623 H 0.94824 0.39497 0.84725 0.0
H624 H 0.93398 0.50482 0.86565 0.0
C625 C 0.06521 0.52715 0.86051 0.0
C626 C 0.09448 0.50893 0.8566 0.0
C627 C 0.09351 0.47301 0.84979 0.0
C628 C 0.06411 0.4552 0.84742 0.0
C629 C 0.03572 0.47361 0.85183 0.0
C630 C 0.03591 0.50883 0.85808 0.0
C631 C 1.00187 0.5219 0.86264 0.0
C632 C 0.99808 0.53467 0.88823 0.0
C633 C 0.99259 0.55091 0.845 0.0
C634 C 0.98273 0.48844 0.85831 0.0
C635 C 0.00275 0.46093 0.85203 0.0
C636 C 0.99087 0.4271 0.84795 0.0
C637 C 0.95757 0.42122 0.85031 0.0
C638 C 0.93656 0.44904 0.85664 0.0
C639 C 0.94941 0.48308 0.86058 0.0
H640 H 0.20507 0.28966 0.36172 0.0
H641 H 0.28678 0.36095 0.3573 0.0
H642 H 0.32367 0.31027 0.35344 0.0
H643 H 0.24438 0.22489 0.39694 0.0
H644 H 0.22524 0.18792 0.38275 0.0
H645 H 0.20504 0.22986 0.38378 0.0
H646 H 0.19963 0.22936 0.33826 0.0
H647 H 0.21989 0.18741 0.3371 0.0
H648 H 0.23525 0.2241 0.32032 0.0
H649 H 0.35197 0.25182 0.35117 0.0
H650 H 0.36963 0.18959 0.35217 0.0
H651 H 0.26972 0.15643 0.35872 0.0
C652 C 0.23069 0.29456 0.35974 0.0
C653 C 0.24306 0.32923 0.35973 0.0
C654 C 0.27677 0.33459 0.35736 0.0
C655 C 0.29793 0.30599 0.35508 0.0
C656 C 0.28503 0.27213 0.35527 0.0
C657 C 0.25222 0.26625 0.35761 0.0
C658 C 0.24479 0.2272 0.35829 0.0
C659 C 0.22893 0.21687 0.38184 0.0
C660 C 0.22364 0.21639 0.33724 0.0
C661 C 0.27854 0.21212 0.35618 0.0
C662 C 0.30139 0.23845 0.35426 0.0
C663 C 0.33428 0.23094 0.35256 0.0
C664 C 0.34409 0.19556 0.35312 0.0
C665 C 0.32108 0.16821 0.35547 0.0
C666 C 0.2879 0.17675 0.3568 0.0
H667 H 0.70735 0.7929 0.36909 0.0
H668 H 0.79138 0.86048 0.37582 0.0
H669 H 0.82684 0.80829 0.37503 0.0
H670 H 0.73754 0.72228 0.40606 0.0
H671 H 0.71996 0.68804 0.38819 0.0
H672 H 0.70118 0.73077 0.38955 0.0
H673 H 0.70413 0.73555 0.34403 0.0
H674 H 0.72306 0.69291 0.34254 0.0
H675 H 0.74255 0.73058 0.32943 0.0
H676 H 0.85341 0.74878 0.37219 0.0
H677 H 0.86875 0.6859 0.36943 0.0
H678 H 0.76745 0.65722 0.36546 0.0
C679 C 0.7332 0.79667 0.37052 0.0
C680 C 0.74661 0.83074 0.3725 0.0
C681 C 0.78055 0.83461 0.37432 0.0
C682 C 0.80092 0.80513 0.37385 0.0
C683 C 0.78699 0.77192 0.37167 0.0
C684 C 0.7539 0.76749 0.3702 0.0
C685 C 0.74512 0.72891 0.36804 0.0
C686 C 0.72475 0.71679 0.38923 0.0
C687 C 0.72769 0.72157 0.34461 0.0
C688 C 0.77841 0.71241 0.36839 0.0
C689 C 0.80226 0.73765 0.3704 0.0
C690 C 0.83494 0.72874 0.37072 0.0
C691 C 0.84343 0.69302 0.36908 0.0
C692 C 0.81932 0.66674 0.36729 0.0
C693 C 0.78644 0.67672 0.36691 0.0
H694 H 0.18603 0.69733 0.12832 0.0
H695 H 0.26706 0.62958 0.1108 0.0
H696 H 0.30248 0.68128 0.10788 0.0
H697 H 0.20926 0.77002 0.08916 0.0
H698 H 0.19643 0.80367 0.10952 0.0
H699 H 0.17667 0.76139 0.10945 0.0
H700 H 0.1891 0.75424 0.15394 0.0
H701 H 0.209 0.79642 0.15412 0.0
H702 H 0.23023 0.75774 0.16405 0.0
H703 H 0.33015 0.73912 0.10893 0.0
H704 H 0.34794 0.80095 0.11217 0.0
H705 H 0.24955 0.83265 0.12791 0.0
C706 C 0.21114 0.6935 0.12363 0.0
C707 C 0.22372 0.65934 0.1198 0.0
C708 C 0.25678 0.65541 0.11383 0.0
C709 C 0.27719 0.68464 0.11212 0.0
C710 C 0.26424 0.71783 0.11627 0.0
C711 C 0.23199 0.7226 0.12173 0.0
C712 C 0.22464 0.76132 0.12568 0.0
C713 C 0.20031 0.7749 0.10736 0.0
C714 C 0.21253 0.7678 0.15095 0.0
C715 C 0.25785 0.77731 0.12185 0.0
C716 C 0.28029 0.75165 0.11647 0.0
C717 C 0.31279 0.75956 0.11293 0.0
C718 C 0.32268 0.79472 0.11487 0.0
C719 C 0.30014 0.82158 0.12017 0.0
C720 C 0.26728 0.81269 0.12362 0.0
H721 H 0.68713 0.1995 0.12923 0.0
H722 H 0.77104 0.13208 0.13746 0.0
H723 H 0.80631 0.18413 0.13831 0.0
H724 H 0.72516 0.26178 0.09052 0.0
H725 H 0.70526 0.29979 0.10282 0.0
H726 H 0.68588 0.25735 0.10392 0.0
H727 H 0.6803 0.26268 0.14927 0.0
H728 H 0.69956 0.30521 0.14828 0.0
H729 H 0.71572 0.27098 0.16686 0.0
H730 H 0.83297 0.24263 0.13769 0.0
H731 H 0.84946 0.30499 0.13534 0.0
H732 H 0.74918 0.3356 0.12655 0.0
C733 C 0.71287 0.19583 0.13142 0.0
C734 C 0.7263 0.1617 0.13332 0.0
C735 C 0.76017 0.15792 0.13592 0.0
C736 C 0.78047 0.18734 0.13646 0.0
C737 C 0.76665 0.22054 0.13429 0.0
C738 C 0.73369 0.22509 0.1318 0.0
C739 C 0.72546 0.26385 0.12916 0.0
C740 C 0.7095 0.27111 0.10518 0.0
C741 C 0.70399 0.27642 0.14961 0.0
C742 C 0.75892 0.28013 0.13047 0.0
C743 C 0.78226 0.25459 0.13355 0.0
C744 C 0.81494 0.26294 0.1353 0.0
C745 C 0.82408 0.29842 0.13392 0.0
C746 C 0.80066 0.32512 0.13071 0.0
C747 C 0.76766 0.31574 0.12893 0.0
H748 H 0.73992 0.85015 0.62411 0.0
H749 H 0.63885 0.8205 0.62809 0.0
H750 H 0.65451 0.75764 0.62842 0.0
H751 H 0.76579 0.77922 0.58619 0.0
H752 H 0.80402 0.77366 0.60088 0.0
H753 H 0.7848 0.8162 0.60047 0.0
H754 H 0.78704 0.8185 0.64609 0.0
H755 H 0.80621 0.77594 0.64664 0.0
H756 H 0.76947 0.78314 0.663 0.0
H757 H 0.68114 0.69829 0.62832 0.0
H758 H 0.71675 0.64625 0.62846 0.0
H759 H 0.80079 0.71445 0.62541 0.0
C760 C 0.72106 0.83043 0.62494 0.0
C761 C 0.68813 0.84016 0.62599 0.0
C762 C 0.6642 0.81361 0.62723 0.0
C763 C 0.67287 0.77787 0.62742 0.0
C764 C 0.70556 0.7692 0.62645 0.0
C765 C 0.7293 0.7947 0.62528 0.0
C766 C 0.7627 0.77835 0.62479 0.0
C767 C 0.78036 0.78739 0.6017 0.0
C768 C 0.78251 0.78966 0.64642 0.0
C769 C 0.75406 0.73962 0.62589 0.0
C770 C 0.72096 0.73496 0.62675 0.0
C771 C 0.70708 0.70161 0.62769 0.0
C772 C 0.72754 0.67222 0.62774 0.0
C773 C 0.76155 0.6763 0.62699 0.0
C774 C 0.7749 0.71051 0.62608 0.0
H775 H 0.23339 0.33894 0.63671 0.0
H776 H 0.13267 0.30749 0.63819 0.0
H777 H 0.14936 0.24495 0.64081 0.0
H778 H 0.26195 0.2689 0.60107 0.0
H779 H 0.29968 0.26428 0.61658 0.0
H780 H 0.27965 0.30633 0.61572 0.0
H781 H 0.2799 0.30873 0.66138 0.0
H782 H 0.29992 0.26664 0.66238 0.0
H783 H 0.2624 0.27296 0.67793 0.0
H784 H 0.17739 0.18576 0.64115 0.0
H785 H 0.21429 0.13464 0.63997 0.0
H786 H 0.2966 0.20534 0.63942 0.0
C787 C 0.21479 0.31893 0.6377 0.0
C788 C 0.18171 0.32801 0.63721 0.0
C789 C 0.15815 0.30107 0.63857 0.0
C790 C 0.16741 0.26553 0.64007 0.0
C791 C 0.20029 0.2575 0.64039 0.0
C792 C 0.2236 0.28349 0.63936 0.0
C793 C 0.25729 0.26798 0.63959 0.0
C794 C 0.27571 0.27743 0.61689 0.0
C795 C 0.27597 0.27978 0.66164 0.0
C796 C 0.24938 0.22911 0.64058 0.0
C797 C 0.21637 0.22359 0.64104 0.0
C798 C 0.20325 0.1898 0.64101 0.0
C799 C 0.2244 0.16094 0.64031 0.0
C800 C 0.25829 0.16605 0.63977 0.0
C801 C 0.27083 0.20062 0.64014 0.0
H802 H 0.74428 0.1726 0.8645 0.0
H803 H 0.64542 0.21036 0.86748 0.0
H804 H 0.66521 0.27161 0.86892 0.0
H805 H 0.77824 0.23709 0.90394 0.0
H806 H 0.81534 0.24174 0.88759 0.0
H807 H 0.79357 0.20068 0.88688 0.0
H808 H 0.79145 0.20358 0.84128 0.0
H809 H 0.81327 0.24461 0.84184 0.0
H810 H 0.77476 0.24201 0.82716 0.0
H811 H 0.69523 0.32827 0.87041 0.0
H812 H 0.7337 0.37768 0.87066 0.0
H813 H 0.81363 0.30398 0.86606 0.0
C814 C 0.72683 0.19378 0.86545 0.0
C815 C 0.69329 0.18676 0.86592 0.0
C816 C 0.67119 0.21515 0.8671 0.0
C817 C 0.6822 0.25001 0.86796 0.0
C818 C 0.71537 0.25604 0.86753 0.0
C819 C 0.73741 0.22882 0.86622 0.0
C820 C 0.77177 0.24272 0.86576 0.0
C821 C 0.79085 0.22979 0.88733 0.0
C822 C 0.78881 0.23263 0.84263 0.0
C823 C 0.76555 0.28202 0.86704 0.0
C824 C 0.73282 0.289 0.86814 0.0
C825 C 0.72091 0.32318 0.86953 0.0
C826 C 0.743 0.35106 0.86969 0.0
C827 C 0.77668 0.3447 0.86837 0.0
C828 C 0.78805 0.30965 0.86708 0.0
H829 H 0.19489 0.68243 0.86975 0.0
H830 H 0.2811 0.61951 0.88082 0.0
H831 H 0.3143 0.67325 0.88058 0.0
H832 H 0.23057 0.74532 0.83058 0.0
H833 H 0.20887 0.78255 0.8423 0.0
H834 H 0.19137 0.73918 0.84381 0.0
H835 H 0.18505 0.7454 0.88906 0.0
H836 H 0.20241 0.78886 0.88767 0.0
H837 H 0.21986 0.75602 0.90674 0.0
H838 H 0.33875 0.73313 0.87751 0.0
H839 H 0.35239 0.79625 0.87379 0.0
H840 H 0.25067 0.82111 0.8659 0.0
C841 C 0.22071 0.68005 0.87227 0.0
C842 C 0.23537 0.64674 0.8753 0.0
C843 C 0.26927 0.64471 0.87851 0.0
C844 C 0.28841 0.67509 0.87836 0.0
C845 C 0.27334 0.70746 0.87514 0.0
C846 C 0.24027 0.71027 0.87233 0.0
C847 C 0.23034 0.74842 0.86918 0.0
C848 C 0.21435 0.75419 0.84503 0.0
C849 C 0.2081 0.76038 0.88937 0.0
C850 C 0.263 0.76643 0.87049 0.0
C851 C 0.28747 0.74226 0.87384 0.0
C852 C 0.31979 0.75238 0.87504 0.0
C853 C 0.32732 0.78825 0.87285 0.0
C854 C 0.30262 0.81355 0.86967 0.0
C855 C 0.27006 0.80238 0.8685 0.0
H856 H 0.33072 0.06203 0.28205 0.0
H857 H 0.28528 0.97755 0.32144 0.0
H858 H 0.2692 0.94915 0.28393 0.0
H859 H 0.27142 0.06388 0.23253 0.0
H860 H 0.30262 0.07307 0.21122 0.0
H861 H 0.30655 0.08886 0.24105 0.0
H862 H 0.36192 0.05752 0.2446 0.0
H863 H 0.35816 0.04165 0.21489 0.0
H864 H 0.36457 0.01095 0.23867 0.0
H865 H 0.26597 0.92573 0.24252 0.0
H866 H 0.27382 0.91025 0.20058 0.0
H867 H 0.31871 0.01164 0.1881 0.0
C868 C 0.31676 0.03793 0.28281 0.0
C869 C 0.3092 0.02192 0.30461 0.0
C870 C 0.29112 0.99032 0.3049 0.0
C871 C 0.28188 0.97407 0.2837 0.0
C872 C 0.29041 0.99017 0.26245 0.0
C873 C 0.30709 0.02167 0.26188 0.0
C874 C 0.31539 0.03235 0.23687 0.0
C875 C 0.29794 0.06657 0.23002 0.0
C876 C 0.35218 0.03579 0.23358 0.0
C877 C 0.30203 0.00118 0.22344 0.0
C878 C 0.28748 0.97725 0.23849 0.0
C879 C 0.27651 0.94467 0.23051 0.0
C880 C 0.2811 0.93609 0.20669 0.0
C881 C 0.29626 0.96008 0.19111 0.0
C882 C 0.30609 0.99334 0.19949 0.0
H883 H 0.69192 0.06475 0.21373 0.0
H884 H 0.73154 0.97837 0.17287 0.0
H885 H 0.74572 0.94736 0.20972 0.0
H886 H 0.7513 0.05958 0.26332 0.0
H887 H 0.72082 0.0702 0.28487 0.0
H888 H 0.71796 0.0877 0.2554 0.0
H889 H 0.66061 0.06107 0.25132 0.0
H890 H 0.66331 0.04345 0.28066 0.0
H891 H 0.65483 0.01457 0.25622 0.0
H892 H 0.74745 0.92199 0.25022 0.0
H893 H 0.739 0.90512 0.29184 0.0
H894 H 0.70098 0.00907 0.30679 0.0
C895 C 0.70428 0.03968 0.21255 0.0
C896 C 0.7107 0.02393 0.19049 0.0
C897 C 0.72657 0.99096 0.18961 0.0
C898 C 0.73477 0.9732 0.21044 0.0
C899 C 0.72738 0.98908 0.23193 0.0
C900 C 0.71287 0.0218 0.23315 0.0
C901 C 0.70531 0.03189 0.25839 0.0
C902 C 0.72503 0.06426 0.26594 0.0
C903 C 0.66886 0.03809 0.26183 0.0
C904 C 0.71655 0.99908 0.27111 0.0
C905 C 0.72944 0.97482 0.25553 0.0
C906 C 0.73823 0.94107 0.26269 0.0
C907 C 0.73325 0.93169 0.28629 0.0
C908 C 0.71991 0.95606 0.30244 0.0
C909 C 0.71215 0.99039 0.29488 0.0
H910 H 0.68623 0.08196 0.78201 0.0
H911 H 0.71197 0.98896 0.82224 0.0
H912 H 0.72554 0.95789 0.7853 0.0
H913 H 0.64666 0.03994 0.73781 0.0
H914 H 0.66006 0.06804 0.71413 0.0
H915 H 0.65809 0.08491 0.74366 0.0
H916 H 0.71848 0.10256 0.74147 0.0
H917 H 0.72063 0.08574 0.71179 0.0
H918 H 0.74828 0.06986 0.73389 0.0
H919 H 0.72588 0.9338 0.74454 0.0
H920 H 0.71542 0.91928 0.70278 0.0
H921 H 0.69275 0.02859 0.6886 0.0
C922 C 0.69561 0.05539 0.78307 0.0
C923 C 0.69812 0.03782 0.80493 0.0
C924 C 0.71006 0.00294 0.80565 0.0
C925 C 0.71791 0.98513 0.78477 0.0
C926 C 0.71424 0.00285 0.76341 0.0
C927 C 0.70382 0.0374 0.76242 0.0
C928 C 0.69896 0.04936 0.7372 0.0
C929 C 0.66387 0.06123 0.73297 0.0
C930 C 0.72303 0.07861 0.73071 0.0
C931 C 0.70657 0.01557 0.72419 0.0
C932 C 0.71569 0.98916 0.73963 0.0
C933 C 0.7198 0.95447 0.73219 0.0
C934 C 0.71375 0.94644 0.7085 0.0
C935 C 0.70406 0.97303 0.69256 0.0
C936 C 0.70133 0.00814 0.70034 0.0
H937 H 0.28921 0.99986 0.80361 0.0
H938 H 0.28693 0.88912 0.78541 0.0
H939 H 0.27838 0.90458 0.74353 0.0
H940 H 0.23155 0.03241 0.75731 0.0
H941 H 0.25547 0.07134 0.75218 0.0
H942 H 0.25442 0.05163 0.78108 0.0
H943 H 0.31686 0.04713 0.7808 0.0
H944 H 0.3181 0.06653 0.75192 0.0
H945 H 0.33667 0.02427 0.75698 0.0
H946 H 0.27669 0.93204 0.70317 0.0
H947 H 0.28503 0.96913 0.66775 0.0
H948 H 0.29172 0.06164 0.7123 0.0
C949 C 0.28558 0.97896 0.7909 0.0
C950 C 0.28799 0.94334 0.79768 0.0
C951 C 0.28465 0.91658 0.7805 0.0
C952 C 0.27973 0.92511 0.75672 0.0
C953 C 0.2785 0.96056 0.75039 0.0
C954 C 0.28136 0.98708 0.76701 0.0
C955 C 0.28372 0.02287 0.75536 0.0
C956 C 0.25454 0.04592 0.76187 0.0
C957 C 0.31574 0.04125 0.76164 0.0
C958 C 0.28277 0.01226 0.72964 0.0
C959 C 0.279 0.97632 0.72709 0.0
C960 C 0.27921 0.96029 0.70495 0.0
C961 C 0.28394 0.9815 0.68493 0.0
C962 C 0.28897 0.01818 0.68731 0.0
C963 C 0.28777 0.03367 0.70994 0.0
H964 H 0.81711 0.52161 0.1867 0.0
H965 H 0.75355 0.43197 0.1958 0.0
H966 H 0.74347 0.44966 0.23703 0.0
H967 H 0.85601 0.5116 0.23801 0.0
H968 H 0.86143 0.55757 0.24487 0.0
H969 H 0.85706 0.54394 0.21475 0.0
H970 H 0.80857 0.5863 0.20945 0.0
H971 H 0.81305 0.60054 0.23959 0.0
H972 H 0.7748 0.58372 0.22945 0.0
H973 H 0.74817 0.47035 0.27861 0.0
H974 H 0.76729 0.49248 0.31714 0.0
H975 H 0.82933 0.56735 0.28123 0.0
C976 C 0.79988 0.50674 0.19707 0.0
C977 C 0.78567 0.47581 0.18808 0.0
C978 C 0.76432 0.45603 0.20238 0.0
C979 C 0.75842 0.46593 0.22578 0.0
C980 C 0.77407 0.49564 0.23457 0.0
C981 C 0.79418 0.51597 0.22058 0.0
C982 C 0.81187 0.54333 0.23505 0.0
C983 C 0.84875 0.5388 0.23305 0.0
C984 C 0.80143 0.58069 0.22796 0.0
C985 C 0.79984 0.53406 0.25946 0.0
C986 C 0.77749 0.50705 0.25879 0.0
C987 C 0.76512 0.49202 0.27934 0.0
C988 C 0.77619 0.50464 0.30113 0.0
C989 C 0.7997 0.53164 0.30212 0.0
C990 C 0.81109 0.54691 0.281 0.0
H991 H 0.20545 0.42938 0.28359 0.0
H992 H 0.21855 0.52337 0.32596 0.0
H993 H 0.22618 0.55849 0.28966 0.0
H994 H 0.26378 0.45399 0.2359 0.0
H995 H 0.23851 0.43479 0.21346 0.0
H996 H 0.23883 0.41646 0.24278 0.0
H997 H 0.1767 0.42396 0.24528 0.0
H998 H 0.1762 0.44235 0.2161 0.0
H999 H 0.15922 0.46682 0.24034 0.0
H1000 H 0.2232 0.58437 0.24916 0.0
H1001 H 0.21257 0.5987 0.20736 0.0
H1002 H 0.20442 0.48747 0.19132 0.0
C1003 C 0.2107 0.45721 0.28524 0.0
C1004 C 0.21145 0.47374 0.30751 0.0
C1005 C 0.21808 0.51022 0.30902 0.0
C1006 C 0.22249 0.53033 0.28852 0.0
C1007 C 0.22077 0.51336 0.26677 0.0
C1008 C 0.21549 0.47751 0.26501 0.0
C1009 C 0.21222 0.46605 0.23958 0.0
C1010 C 0.24 0.44136 0.23252 0.0
C1011 C 0.17912 0.4488 0.23508 0.0
C1012 C 0.21503 0.50127 0.22731 0.0
C1013 C 0.22022 0.52822 0.24328 0.0
C1014 C 0.22003 0.56345 0.23642 0.0
C1015 C 0.21388 0.57135 0.21271 0.0
C1016 C 0.20826 0.54411 0.1962 0.0
C1017 C 0.20962 0.50867 0.20351 0.0
H1018 H 0.20201 0.47087 0.80829 0.0
H1019 H 0.24245 0.57456 0.7968 0.0
H1020 H 0.24947 0.56107 0.75447 0.0
H1021 H 0.24781 0.422 0.76013 0.0
H1022 H 0.21233 0.39687 0.75268 0.0
H1023 H 0.21893 0.41069 0.7827 0.0
H1024 H 0.16275 0.4407 0.78293 0.0
H1025 H 0.15613 0.42746 0.75294 0.0
H1026 H 0.15353 0.47335 0.76085 0.0
H1027 H 0.24412 0.54026 0.71301 0.0
H1028 H 0.22416 0.51523 0.67552 0.0
H1029 H 0.18301 0.42703 0.71375 0.0
C1030 C 0.21385 0.4899 0.79698 0.0
C1031 C 0.22263 0.52327 0.80567 0.0
C1032 C 0.23632 0.54855 0.79035 0.0
C1033 C 0.24042 0.54107 0.76635 0.0
C1034 C 0.23027 0.50837 0.758 0.0
C1035 C 0.21723 0.48315 0.77287 0.0
C1036 C 0.20302 0.45279 0.75904 0.0
C1037 C 0.22165 0.41856 0.76393 0.0
C1038 C 0.16672 0.44836 0.76425 0.0
C1039 C 0.20878 0.46561 0.73414 0.0
C1040 C 0.22538 0.49718 0.73388 0.0
C1041 C 0.2316 0.51525 0.71296 0.0
C1042 C 0.22012 0.50091 0.69178 0.0
C1043 C 0.20206 0.46929 0.69183 0.0
C1044 C 0.19689 0.45119 0.71323 0.0
H1045 H 0.81009 0.57981 0.71211 0.0
H1046 H 0.7727 0.49021 0.67328 0.0
H1047 H 0.76621 0.45745 0.71058 0.0
H1048 H 0.857 0.53293 0.75081 0.0
H1049 H 0.84971 0.56028 0.77622 0.0
H1050 H 0.8467 0.57873 0.74712 0.0
H1051 H 0.78828 0.59932 0.75592 0.0
H1052 H 0.79115 0.58108 0.78519 0.0
H1053 H 0.75875 0.56779 0.76595 0.0
H1054 H 0.7719 0.43157 0.75052 0.0
H1055 H 0.78693 0.4149 0.79109 0.0
H1056 H 0.81858 0.5218 0.80473 0.0
C1057 C 0.79974 0.55363 0.71153 0.0
C1058 C 0.79179 0.53751 0.68986 0.0
C1059 C 0.77878 0.50307 0.68973 0.0
C1060 C 0.77494 0.48431 0.71082 0.0
C1061 C 0.78385 0.5006 0.73185 0.0
C1062 C 0.79561 0.53464 0.73243 0.0
C1063 C 0.80588 0.54499 0.75711 0.0
C1064 C 0.84196 0.55479 0.75784 0.0
C1065 C 0.78475 0.57508 0.7666 0.0
C1066 C 0.79933 0.51094 0.77013 0.0
C1067 C 0.78636 0.48579 0.75523 0.0
C1068 C 0.78128 0.45122 0.7625 0.0
C1069 C 0.79003 0.44198 0.7855 0.0
C1070 C 0.80347 0.46725 0.80097 0.0
C1071 C 0.80755 0.50231 0.79336 0.0
loop_
_geom_bond_atom_site_label_1
_geom_bond_atom_site_label_2
_geom_bond_distance
_geom_bond_site_symmetry_2
_ccdc_geom_bond_type
In0 O1 2.294 . S
In0 O2 2.326 . S
In0 O6 2.266 . S
In0 O7 2.326 . S
In0 O8 2.266 . S
In0 O9 2.326 . S
In0 O11 2.294 . S
In0 O12 2.326 . S
O1 In0 2.294 . S
O1 C10 1.240 . S
O2 In0 2.326 . S
O2 C10 1.252 . S
C3 O6 1.252 . S
C3 O7 1.260 . S
C4 O11 1.240 . S
C4 O12 1.252 . S
C5 O8 1.252 . S
C5 O9 1.260 . S
O6 In0 2.266 . S
O6 C3 1.252 . S
O7 In0 2.326 . S
O7 C3 1.260 . S
O8 In0 2.266 . S
O8 C5 1.252 . S
O9 In0 2.326 . S
O9 C5 1.260 . S
C10 O1 1.240 . S
C10 O2 1.252 . S
O11 In0 2.294 . S
O11 C4 1.240 . S
O12 In0 2.326 . S
O12 C4 1.252 . S
In13 O14 2.294 . S
In13 O15 2.326 . S
In13 O19 2.266 . S
In13 O20 2.326 . S
In13 O21 2.266 . S
In13 O22 2.326 . S
In13 O24 2.294 . S
In13 O25 2.326 . S
O14 In13 2.294 . S
O14 C23 1.240 . S
O15 In13 2.326 . S
O15 C23 1.252 . S
C16 O19 1.252 . S
C16 O20 1.260 . S
C17 O24 1.240 . S
C17 O25 1.252 . S
C18 O21 1.252 . S
C18 O22 1.260 . S
O19 In13 2.266 . S
O19 C16 1.252 . S
O20 In13 2.326 . S
O20 C16 1.260 . S
O21 In13 2.266 . S
O21 C18 1.252 . S
O22 In13 2.326 . S
O22 C18 1.260 . S
C23 O14 1.240 . S
C23 O15 1.252 . S
O24 In13 2.294 . S
O24 C17 1.240 . S
O25 In13 2.326 . S
O25 C17 1.252 . S
In26 O27 2.294 . S
In26 O28 2.326 . S
In26 O32 2.266 . S
In26 O33 2.326 . S
In26 O34 2.266 . S
In26 O35 2.326 . S
In26 O37 2.294 . S
In26 O38 2.326 . S
O27 In26 2.294 . S
O27 C36 1.240 . S
O28 In26 2.326 . S
O28 C36 1.252 . S
C29 O32 1.252 . S
C29 O33 1.260 . S
C30 O37 1.240 . S
C30 O38 1.252 . S
C31 O34 1.252 . S
C31 O35 1.260 . S
O32 In26 2.266 . S
O32 C29 1.252 . S
O33 In26 2.326 . S
O33 C29 1.260 . S
O34 In26 2.266 . S
O34 C31 1.252 . S
O35 In26 2.326 . S
O35 C31 1.260 . S
C36 O27 1.240 . S
C36 O28 1.252 . S
O37 In26 2.294 . S
O37 C30 1.240 . S
O38 In26 2.326 . S
O38 C30 1.252 . S
In39 O40 2.294 . S
In39 O41 2.326 . S
In39 O45 2.266 . S
In39 O46 2.326 . S
In39 O47 2.266 . S
In39 O48 2.326 . S
In39 O50 2.294 . S
In39 O51 2.326 . S
O40 In39 2.294 . S
O40 C49 1.240 . S
O41 In39 2.326 . S
O41 C49 1.252 . S
C42 O45 1.252 . S
C42 O46 1.260 . S
C43 O50 1.240 . S
C43 O51 1.252 . S
C44 O47 1.252 . S
C44 O48 1.260 . S
O45 In39 2.266 . S
O45 C42 1.252 . S
O46 In39 2.326 . S
O46 C42 1.260 . S
O47 In39 2.266 . S
O47 C44 1.252 . S
O48 In39 2.326 . S
O48 C44 1.260 . S
C49 O40 1.240 . S
C49 O41 1.252 . S
O50 In39 2.294 . S
O50 C43 1.240 . S
O51 In39 2.326 . S
O51 C43 1.252 . S
In52 O53 2.294 . S
In52 O54 2.326 . S
In52 O58 2.266 . S
In52 O59 2.326 . S
In52 O60 2.266 . S
In52 O61 2.326 . S
In52 O63 2.294 . S
In52 O64 2.326 . S
O53 In52 2.294 . S
O53 C62 1.240 . S
O54 In52 2.326 . S
O54 C62 1.252 . S
C55 O58 1.252 . S
C55 O59 1.260 . S
C56 O63 1.240 . S
C56 O64 1.252 . S
C57 O60 1.252 . S
C57 O61 1.260 . S
O58 In52 2.266 . S
O58 C55 1.252 . S
O59 In52 2.326 . S
O59 C55 1.260 . S
O60 In52 2.266 . S
O60 C57 1.252 . S
O61 In52 2.326 . S
O61 C57 1.260 . S
C62 O53 1.240 . S
C62 O54 1.252 . S
O63 In52 2.294 . S
O63 C56 1.240 . S
O64 In52 2.326 . S
O64 C56 1.252 . S
In65 O66 2.294 . S
In65 O67 2.326 . S
In65 O71 2.266 . S
In65 O72 2.326 . S
In65 O73 2.266 . S
In65 O74 2.326 . S
In65 O76 2.294 . S
In65 O77 2.326 . S
O66 In65 2.294 . S
O66 C75 1.240 . S
O67 In65 2.326 . S
O67 C75 1.252 . S
C68 O71 1.252 . S
C68 O72 1.260 . S
C69 O76 1.240 . S
C69 O77 1.252 . S
C70 O73 1.252 . S
C70 O74 1.260 . S
O71 In65 2.266 . S
O71 C68 1.252 . S
O72 In65 2.326 . S
O72 C68 1.260 . S
O73 In65 2.266 . S
O73 C70 1.252 . S
O74 In65 2.326 . S
O74 C70 1.260 . S
C75 O66 1.240 . S
C75 O67 1.252 . S
O76 In65 2.294 . S
O76 C69 1.240 . S
O77 In65 2.326 . S
O77 C69 1.252 . S
In78 O79 2.294 . S
In78 O80 2.326 . S
In78 O84 2.266 . S
In78 O85 2.326 . S
In78 O86 2.266 . S
In78 O87 2.326 . S
In78 O89 2.294 . S
In78 O90 2.326 . S
O79 In78 2.294 . S
O79 C88 1.240 . S
O80 In78 2.326 . S
O80 C88 1.252 . S
C81 O84 1.252 . S
C81 O85 1.260 . S
C82 O89 1.240 . S
C82 O90 1.252 . S
C83 O86 1.252 . S
C83 O87 1.260 . S
O84 In78 2.266 . S
O84 C81 1.252 . S
O85 In78 2.326 . S
O85 C81 1.260 . S
O86 In78 2.266 . S
O86 C83 1.252 . S
O87 In78 2.326 . S
O87 C83 1.260 . S
C88 O79 1.240 . S
C88 O80 1.252 . S
O89 In78 2.294 . S
O89 C82 1.240 . S
O90 In78 2.326 . S
O90 C82 1.252 . S
In91 O92 2.294 . S
In91 O93 2.326 . S
In91 O97 2.266 . S
In91 O98 2.326 . S
In91 O99 2.266 . S
In91 O100 2.326 . S
In91 O102 2.294 . S
In91 O103 2.326 . S
O92 In91 2.294 . S
O92 C101 1.240 . S
O93 In91 2.326 . S
O93 C101 1.252 . S
C94 O97 1.252 . S
C94 O98 1.260 . S
C95 O102 1.240 . S
C95 O103 1.252 . S
C96 O99 1.252 . S
C96 O100 1.260 . S
O97 In91 2.266 . S
O97 C94 1.252 . S
O98 In91 2.326 . S
O98 C94 1.260 . S
O99 In91 2.266 . S
O99 C96 1.252 . S
O100 In91 2.326 . S
O100 C96 1.260 . S
C101 O92 1.240 . S
C101 O93 1.252 . S
O102 In91 2.294 . S
O102 C95 1.240 . S
O103 In91 2.326 . S
O103 C95 1.252 . S
In104 O105 2.294 . S
In104 O106 2.326 . S
In104 O110 2.266 . S
In104 O111 2.326 . S
In104 O112 2.266 . S
In104 O113 2.326 . S
In104 O115 2.294 . S
In104 O116 2.326 . S
O105 In104 2.294 . S
O105 C114 1.240 . S
O106 In104 2.326 . S
O106 C114 1.252 . S
C107 O110 1.252 . S
C107 O111 1.260 . S
C108 O115 1.240 . S
C108 O116 1.252 . S
C109 O112 1.252 . S
C109 O113 1.260 . S
O110 In104 2.266 . S
O110 C107 1.252 . S
O111 In104 2.326 . S
O111 C107 1.260 . S
O112 In104 2.266 . S
O112 C109 1.252 . S
O113 In104 2.326 . S
O113 C109 1.260 . S
C114 O105 1.240 . S
C114 O106 1.252 . S
O115 In104 2.294 . S
O115 C108 1.240 . S
O116 In104 2.326 . S
O116 C108 1.252 . S
In117 O118 2.294 . S
In117 O119 2.326 . S
In117 O123 2.266 . S
In117 O124 2.326 . S
In117 O125 2.266 . S
In117 O126 2.326 . S
In117 O128 2.294 . S
In117 O129 2.326 . S
O118 In117 2.294 . S
O118 C127 1.240 . S
O119 In117 2.326 . S
O119 C127 1.252 . S
C120 O123 1.252 . S
C120 O124 1.260 . S
C121 O128 1.240 . S
C121 O129 1.252 . S
C122 O125 1.252 . S
C122 O126 1.260 . S
O123 In117 2.266 . S
O123 C120 1.252 . S
O124 In117 2.326 . S
O124 C120 1.260 . S
O125 In117 2.266 . S
O125 C122 1.252 . S
O126 In117 2.326 . S
O126 C122 1.260 . S
C127 O118 1.240 . S
C127 O119 1.252 . S
O128 In117 2.294 . S
O128 C121 1.240 . S
O129 In117 2.326 . S
O129 C121 1.252 . S
In130 O131 2.294 . S
In130 O132 2.326 . S
In130 O136 2.266 . S
In130 O137 2.326 . S
In130 O138 2.266 . S
In130 O139 2.326 . S
In130 O141 2.294 . S
In130 O142 2.326 . S
O131 In130 2.294 . S
O131 C140 1.240 . S
O132 In130 2.326 . S
O132 C140 1.252 . S
C133 O136 1.252 . S
C133 O137 1.260 . S
C134 O141 1.240 . S
C134 O142 1.252 . S
C135 O138 1.252 . S
C135 O139 1.260 . S
O136 In130 2.266 . S
O136 C133 1.252 . S
O137 In130 2.326 . S
O137 C133 1.260 . S
O138 In130 2.266 . S
O138 C135 1.252 . S
O139 In130 2.326 . S
O139 C135 1.260 . S
C140 O131 1.240 . S
C140 O132 1.252 . S
O141 In130 2.294 . S
O141 C134 1.240 . S
O142 In130 2.326 . S
O142 C134 1.252 . S
In143 O144 2.294 . S
In143 O145 2.326 . S
In143 O149 2.266 . S
In143 O150 2.326 . S
In143 O151 2.266 . S
In143 O152 2.326 . S
In143 O154 2.294 . S
In143 O155 2.326 . S
O144 In143 2.294 . S
O144 C153 1.240 . S
O145 In143 2.326 . S
O145 C153 1.252 . S
C146 O149 1.252 . S
C146 O150 1.260 . S
C147 O154 1.240 . S
C147 O155 1.252 . S
C148 O151 1.252 . S
C148 O152 1.260 . S
O149 In143 2.266 . S
O149 C146 1.252 . S
O150 In143 2.326 . S
O150 C146 1.260 . S
O151 In143 2.266 . S
O151 C148 1.252 . S
O152 In143 2.326 . S
O152 C148 1.260 . S
C153 O144 1.240 . S
C153 O145 1.252 . S
O154 In143 2.294 . S
O154 C147 1.240 . S
O155 In143 2.326 . S
O155 C147 1.252 . S
In156 O157 2.294 . S
In156 O158 2.326 . S
In156 O162 2.266 . S
In156 O163 2.326 . S
In156 O164 2.266 . S
In156 O165 2.326 . S
In156 O167 2.294 . S
In156 O168 2.326 . S
O157 In156 2.294 . S
O157 C166 1.240 . S
O158 In156 2.326 . S
O158 C166 1.252 . S
C159 O162 1.252 . S
C159 O163 1.260 . S
C160 O167 1.240 . S
C160 O168 1.252 . S
C161 O164 1.252 . S
C161 O165 1.260 . S
O162 In156 2.266 . S
O162 C159 1.252 . S
O163 In156 2.326 . S
O163 C159 1.260 . S
O164 In156 2.266 . S
O164 C161 1.252 . S
O165 In156 2.326 . S
O165 C161 1.260 . S
C166 O157 1.240 . S
C166 O158 1.252 . S
O167 In156 2.294 . S
O167 C160 1.240 . S
O168 In156 2.326 . S
O168 C160 1.252 . S
In169 O170 2.294 . S
In169 O171 2.326 . S
In169 O175 2.266 . S
In169 O176 2.326 . S
In169 O177 2.266 . S
In169 O178 2.326 . S
In169 O180 2.294 . S
In169 O181 2.326 . S
O170 In169 2.294 . S
O170 C179 1.240 . S
O171 In169 2.326 . S
O171 C179 1.252 . S
C172 O175 1.252 . S
C172 O176 1.260 . S
C173 O180 1.240 . S
C173 O181 1.252 . S
C174 O177 1.252 . S
C174 O178 1.260 . S
O175 In169 2.266 . S
O175 C172 1.252 . S
O176 In169 2.326 . S
O176 C172 1.260 . S
O177 In169 2.266 . S
O177 C174 1.252 . S
O178 In169 2.326 . S
O178 C174 1.260 . S
C179 O170 1.240 . S
C179 O171 1.252 . S
O180 In169 2.294 . S
O180 C173 1.240 . S
O181 In169 2.326 . S
O181 C173 1.252 . S
In182 O183 2.294 . S
In182 O184 2.326 . S
In182 O188 2.266 . S
In182 O189 2.326 . S
In182 O190 2.266 . S
In182 O191 2.326 . S
In182 O193 2.294 . S
In182 O194 2.326 . S
O183 In182 2.294 . S
O183 C192 1.240 . S
O184 In182 2.326 . S
O184 C192 1.252 . S
C185 O188 1.252 . S
C185 O189 1.260 . S
C186 O193 1.240 . S
C186 O194 1.252 . S
C187 O190 1.252 . S
C187 O191 1.260 . S
O188 In182 2.266 . S
O188 C185 1.252 . S
O189 In182 2.326 . S
O189 C185 1.260 . S
O190 In182 2.266 . S
O190 C187 1.252 . S
O191 In182 2.326 . S
O191 C187 1.260 . S
C192 O183 1.240 . S
C192 O184 1.252 . S
O193 In182 2.294 . S
O193 C186 1.240 . S
O194 In182 2.326 . S
O194 C186 1.252 . S
In195 O196 2.294 . S
In195 O197 2.326 . S
In195 O201 2.266 . S
In195 O202 2.326 . S
In195 O203 2.266 . S
In195 O204 2.326 . S
In195 O206 2.294 . S
In195 O207 2.326 . S
O196 In195 2.294 . S
O196 C205 1.240 . S
O197 In195 2.326 . S
O197 C205 1.252 . S
C198 O201 1.252 . S
C198 O202 1.260 . S
C199 O206 1.240 . S
C199 O207 1.252 . S
C200 O203 1.252 . S
C200 O204 1.260 . S
O201 In195 2.266 . S
O201 C198 1.252 . S
O202 In195 2.326 . S
O202 C198 1.260 . S
O203 In195 2.266 . S
O203 C200 1.252 . S
O204 In195 2.326 . S
O204 C200 1.260 . S
C205 O196 1.240 . S
C205 O197 1.252 . S
O206 In195 2.294 . S
O206 C199 1.240 . S
O207 In195 2.326 . S
O207 C199 1.252 . S
H208 C220 0.930 . S
H209 C222 0.930 . S
H210 C223 0.930 . S
H211 C227 0.959 . S
H212 C227 0.959 1_565 S
H213 C227 0.961 1_565 S
H214 C228 0.960 . S
H215 C228 0.961 . S
H216 C228 0.959 . S
H217 C231 0.929 . S
H218 C232 0.931 . S
H219 C234 0.930 . S
C220 H208 0.930 . S
C220 C221 1.399 . S
C220 C225 1.399 . S
C221 C220 1.399 . S
C221 C222 1.376 . S
C222 H209 0.930 . S
C222 C221 1.376 . S
C222 C223 1.388 . S
C223 H210 0.930 . S
C223 C222 1.388 . S
C223 C224 1.390 . S
C224 C223 1.390 . S
C224 C225 1.394 . S
C224 C230 1.465 . S
C225 C220 1.399 . S
C225 C224 1.394 . S
C225 C226 1.516 . S
C226 C225 1.516 . S
C226 C227 1.502 . S
C226 C228 1.561 1_545 S
C226 C229 1.526 . S
C227 H211 0.959 . S
C227 H212 0.959 1_545 S
C227 H213 0.961 1_545 S
C227 C226 1.502 . S
C228 H214 0.960 . S
C228 H215 0.961 . S
C228 H216 0.959 . S
C228 C226 1.561 1_565 S
C229 C226 1.526 . S
C229 C230 1.396 . S
C229 C234 1.390 . S
C230 C224 1.465 . S
C230 C229 1.396 . S
C230 C231 1.399 . S
C231 H217 0.929 . S
C231 C230 1.399 . S
C231 C232 1.385 . S
C232 H218 0.931 . S
C232 C231 1.385 . S
C232 C233 1.389 . S
C233 C232 1.389 . S
C233 C234 1.387 . S
C234 H219 0.930 . S
C234 C229 1.390 . S
C234 C233 1.387 . S
H235 C247 0.930 . S
H236 C249 0.930 . S
H237 C250 0.930 . S
H238 C254 0.959 . S
H239 C254 0.959 1_545 S
H240 C254 0.961 1_545 S
H241 C255 0.960 . S
H242 C255 0.961 . S
H243 C255 0.950 1_565 S
H244 C258 0.929 . S
H245 C259 0.931 . S
H246 C261 0.930 . S
C247 H235 0.930 . S
C247 C248 1.399 . S
C247 C252 1.399 . S
C248 C247 1.399 . S
C248 C249 1.376 . S
C249 H236 0.930 . S
C249 C248 1.376 . S
C249 C250 1.388 . S
C250 H237 0.930 . S
C250 C249 1.388 . S
C250 C251 1.390 . S
C251 C250 1.390 . S
C251 C252 1.394 . S
C251 C257 1.465 . S
C252 C247 1.399 . S
C252 C251 1.394 . S
C252 C253 1.516 . S
C253 C252 1.516 . S
C253 C254 1.502 . S
C253 C255 1.561 1_565 S
C253 C256 1.526 . S
C254 H238 0.959 . S
C254 H239 0.959 1_565 S
C254 H240 0.961 1_565 S
C254 C253 1.502 . S
C255 H241 0.960 . S
C255 H242 0.961 . S
C255 H243 0.950 1_545 S
C255 C253 1.561 1_545 S
C256 C253 1.526 . S
C256 C257 1.396 . S
C256 C261 1.390 . S
C257 C251 1.465 . S
C257 C256 1.396 . S
C257 C258 1.399 . S
C258 H244 0.929 . S
C258 C257 1.399 . S
C258 C259 1.385 . S
C259 H245 0.931 . S
C259 C258 1.385 . S
C259 C260 1.389 . S
C260 C259 1.389 . S
C260 C261 1.387 . S
C261 H246 0.930 . S
C261 C256 1.390 . S
C261 C260 1.387 . S
H262 C274 0.930 . S
H263 C276 0.930 . S
H264 C277 0.913 1_545 S
H265 C281 0.962 . S
H266 C281 0.979 . S
H267 C281 0.939 1_554 S
H268 C282 0.958 1_554 S
H269 C282 0.963 . S
H270 C282 0.959 . S
H271 C285 0.929 1_545 S
H272 C286 0.931 . S
H273 C288 0.930 . S
C274 H262 0.930 . S
C274 C275 1.399 . S
C274 C279 1.399 . S
C275 C274 1.399 . S
C275 C276 1.376 . S
C276 H263 0.930 . S
C276 C275 1.376 . S
C276 C277 1.388 . S
C277 H264 0.913 1_565 S
C277 C276 1.388 . S
C277 C278 1.390 . S
C278 C277 1.390 . S
C278 C279 1.394 . S
C278 C284 1.465 1_554 S
C279 C274 1.399 . S
C279 C278 1.394 . S
C279 C280 1.517 1_554 S
C280 C279 1.517 1_556 S
C280 C281 1.502 . S
C280 C282 1.561 . S
C280 C283 1.525 . S
C281 H265 0.962 . S
C281 H266 0.979 . S
C281 H267 0.939 1_556 S
C281 C280 1.502 . S
C282 H268 0.958 1_556 S
C282 H269 0.963 . S
C282 H270 0.959 . S
C282 C280 1.561 . S
C283 C280 1.525 . S
C283 C284 1.396 . S
C283 C288 1.390 . S
C284 C278 1.465 1_556 S
C284 C283 1.396 . S
C284 C285 1.399 . S
C285 H271 0.929 1_565 S
C285 C284 1.399 . S
C285 C286 1.385 . S
C286 H272 0.931 . S
C286 C285 1.385 . S
C286 C287 1.389 . S
C287 C286 1.389 . S
C287 C288 1.387 . S
C288 H273 0.930 . S
C288 C283 1.390 . S
C288 C287 1.387 . S
H289 C301 0.930 . S
H290 C303 0.930 . S
H291 C304 0.930 1_565 S
H292 C308 0.962 . S
H293 C308 0.979 . S
H294 C308 0.939 1_556 S
H295 C309 0.958 1_556 S
H296 C309 0.963 . S
H297 C309 0.959 . S
H298 C312 0.929 1_565 S
H299 C313 0.931 . S
H300 C315 0.930 . S
C301 H289 0.930 . S
C301 C302 1.399 . S
C301 C306 1.399 . S
C302 C301 1.399 . S
C302 C303 1.376 . S
C303 H290 0.930 . S
C303 C302 1.376 . S
C303 C304 1.388 . S
C304 H291 0.930 1_545 S
C304 C303 1.388 . S
C304 C305 1.390 . S
C305 C304 1.390 . S
C305 C306 1.394 . S
C305 C311 1.465 1_556 S
C306 C301 1.399 . S
C306 C305 1.394 . S
C306 C307 1.517 1_556 S
C307 C306 1.517 1_554 S
C307 C308 1.502 . S
C307 C309 1.561 . S
C307 C310 1.525 . S
C308 H292 0.962 . S
C308 H293 0.979 . S
C308 H294 0.939 1_554 S
C308 C307 1.502 . S
C309 H295 0.958 1_554 S
C309 H296 0.963 . S
C309 H297 0.959 . S
C309 C307 1.561 . S
C310 C307 1.525 . S
C310 C311 1.396 . S
C310 C315 1.390 . S
C311 C305 1.465 1_554 S
C311 C310 1.396 . S
C311 C312 1.399 . S
C312 H298 0.929 1_545 S
C312 C311 1.399 . S
C312 C313 1.385 . S
C313 H299 0.931 . S
C313 C312 1.385 . S
C313 C314 1.389 . S
C314 C313 1.389 . S
C314 C315 1.387 . S
C315 H300 0.930 . S
C315 C310 1.390 . S
C315 C314 1.387 . S
H316 C328 0.930 . S
H317 C330 0.930 . S
H318 C331 0.930 . S
H319 C335 0.959 . S
H320 C335 0.959 . S
H321 C335 0.961 . S
H322 C336 0.960 . S
H323 C336 0.961 . S
H324 C336 0.959 . S
H325 C339 0.929 . S
H326 C340 0.931 . S
H327 C342 0.930 . S
C328 H316 0.930 . S
C328 C329 1.399 . S
C328 C333 1.399 . S
C329 C328 1.399 . S
C329 C330 1.376 . S
C330 H317 0.930 . S
C330 C329 1.376 . S
C330 C331 1.388 . S
C331 H318 0.930 . S
C331 C330 1.388 . S
C331 C332 1.390 . S
C332 C331 1.390 . S
C332 C333 1.394 . S
C332 C338 1.465 . S
C333 C328 1.399 . S
C333 C332 1.394 . S
C333 C334 1.516 . S
C334 C333 1.516 . S
C334 C335 1.502 . S
C334 C336 1.561 . S
C334 C337 1.526 . S
C335 H319 0.959 . S
C335 H320 0.959 . S
C335 H321 0.961 . S
C335 C334 1.502 . S
C336 H322 0.960 . S
C336 H323 0.961 . S
C336 H324 0.959 . S
C336 C334 1.561 . S
C337 C334 1.526 . S
C337 C338 1.396 . S
C337 C342 1.390 . S
C338 C332 1.465 . S
C338 C337 1.396 . S
C338 C339 1.399 . S
C339 H325 0.929 . S
C339 C338 1.399 . S
C339 C340 1.385 . S
C340 H326 0.931 . S
C340 C339 1.385 . S
C340 C341 1.389 . S
C341 C340 1.389 . S
C341 C342 1.387 . S
C342 H327 0.930 . S
C342 C337 1.390 . S
C342 C341 1.387 . S
H343 C355 0.930 . S
H344 C357 0.930 . S
H345 C358 0.930 . S
H346 C362 0.959 . S
H347 C362 0.959 . S
H348 C362 0.961 . S
H349 C363 0.960 . S
H350 C363 0.961 . S
H351 C363 0.959 . S
H352 C366 0.929 . S
H353 C367 0.931 . S
H354 C369 0.930 . S
C355 H343 0.930 . S
C355 C356 1.399 . S
C355 C360 1.399 . S
C356 C355 1.399 . S
C356 C357 1.376 . S
C357 H344 0.930 . S
C357 C356 1.376 . S
C357 C358 1.388 . S
C358 H345 0.930 . S
C358 C357 1.388 . S
C358 C359 1.390 . S
C359 C358 1.390 . S
C359 C360 1.394 . S
C359 C365 1.465 . S
C360 C355 1.399 . S
C360 C359 1.394 . S
C360 C361 1.516 . S
C361 C360 1.516 . S
C361 C362 1.502 . S
C361 C363 1.561 . S
C361 C364 1.526 . S
C362 H346 0.959 . S
C362 H347 0.959 . S
C362 H348 0.961 . S
C362 C361 1.502 . S
C363 H349 0.960 . S
C363 H350 0.961 . S
C363 H351 0.959 . S
C363 C361 1.561 . S
C364 C361 1.526 . S
C364 C365 1.396 . S
C364 C369 1.390 . S
C365 C359 1.465 . S
C365 C364 1.396 . S
C365 C366 1.399 . S
C366 H352 0.929 . S
C366 C365 1.399 . S
C366 C367 1.385 . S
C367 H353 0.931 . S
C367 C366 1.385 . S
C367 C368 1.389 . S
C368 C367 1.389 . S
C368 C369 1.387 . S
C369 H354 0.930 . S
C369 C364 1.390 . S
C369 C368 1.387 . S
H370 C382 0.930 . S
H371 C384 0.930 . S
H372 C385 0.930 . S
H373 C389 0.962 . S
H374 C389 0.979 . S
H375 C389 0.939 1_556 S
H376 C390 0.958 1_556 S
H377 C390 0.963 . S
H378 C390 0.959 . S
H379 C393 0.929 . S
H380 C394 0.931 . S
H381 C396 0.930 . S
C382 H370 0.930 . S
C382 C383 1.399 . S
C382 C387 1.399 . S
C383 C382 1.399 . S
C383 C384 1.376 . S
C384 H371 0.930 . S
C384 C383 1.376 . S
C384 C385 1.388 . S
C385 H372 0.930 . S
C385 C384 1.388 . S
C385 C386 1.390 . S
C386 C385 1.390 . S
C386 C387 1.394 . S
C386 C392 1.465 1_556 S
C387 C382 1.399 . S
C387 C386 1.394 . S
C387 C388 1.517 1_556 S
C388 C387 1.517 1_554 S
C388 C389 1.502 . S
C388 C390 1.561 . S
C388 C391 1.525 . S
C389 H373 0.962 . S
C389 H374 0.979 . S
C389 H375 0.939 1_554 S
C389 C388 1.502 . S
C390 H376 0.958 1_554 S
C390 H377 0.963 . S
C390 H378 0.959 . S
C390 C388 1.561 . S
C391 C388 1.525 . S
C391 C392 1.396 . S
C391 C396 1.390 . S
C392 C386 1.465 1_554 S
C392 C391 1.396 . S
C392 C393 1.399 . S
C393 H379 0.929 . S
C393 C392 1.399 . S
C393 C394 1.385 . S
C394 H380 0.931 . S
C394 C393 1.385 . S
C394 C395 1.389 . S
C395 C394 1.389 . S
C395 C396 1.387 . S
C396 H381 0.930 . S
C396 C391 1.390 . S
C396 C395 1.387 . S
H397 C409 0.930 . S
H398 C411 0.930 . S
H399 C412 0.930 . S
H400 C416 0.962 . S
H401 C416 0.979 . S
H402 C416 0.939 1_554 S
H403 C417 0.958 1_554 S
H404 C417 0.963 . S
H405 C417 0.959 . S
H406 C420 0.929 . S
H407 C421 0.931 . S
H408 C423 0.930 . S
C409 H397 0.930 . S
C409 C410 1.399 . S
C409 C414 1.399 . S
C410 C409 1.399 . S
C410 C411 1.376 . S
C411 H398 0.930 . S
C411 C410 1.376 . S
C411 C412 1.388 . S
C412 H399 0.930 . S
C412 C411 1.388 . S
C412 C413 1.390 . S
C413 C412 1.390 . S
C413 C414 1.394 . S
C413 C419 1.465 1_554 S
C414 C409 1.399 . S
C414 C413 1.394 . S
C414 C415 1.517 1_554 S
C415 C414 1.517 1_556 S
C415 C416 1.502 . S
C415 C417 1.561 . S
C415 C418 1.525 . S
C416 H400 0.962 . S
C416 H401 0.979 . S
C416 H402 0.939 1_556 S
C416 C415 1.502 . S
C417 H403 0.958 1_556 S
C417 H404 0.963 . S
C417 H405 0.959 . S
C417 C415 1.561 . S
C418 C415 1.525 . S
C418 C419 1.396 . S
C418 C423 1.390 . S
C419 C413 1.465 1_556 S
C419 C418 1.396 . S
C419 C420 1.399 . S
C420 H406 0.929 . S
C420 C419 1.399 . S
C420 C421 1.385 . S
C421 H407 0.931 . S
C421 C420 1.385 . S
C421 C422 1.389 . S
C422 C421 1.389 . S
C422 C423 1.387 . S
C423 H408 0.930 . S
C423 C418 1.390 . S
C423 C422 1.387 . S
H424 C436 0.930 . S
H425 C438 0.930 . S
H426 C439 0.930 . S
H427 C443 0.959 . S
H428 C443 0.959 . S
H429 C443 0.961 . S
H430 C444 0.960 . S
H431 C444 0.961 . S
H432 C444 0.959 . S
H433 C447 0.929 . S
H434 C448 0.931 . S
H435 C450 0.930 . S
C436 H424 0.930 . S
C436 C437 1.399 . S
C436 C441 1.399 . S
C437 C436 1.399 . S
C437 C438 1.376 . S
C438 H425 0.930 . S
C438 C437 1.376 . S
C438 C439 1.388 . S
C439 H426 0.930 . S
C439 C438 1.388 . S
C439 C440 1.390 . S
C440 C439 1.390 . S
C440 C441 1.394 . S
C440 C446 1.465 . S
C441 C436 1.399 . S
C441 C440 1.394 . S
C441 C442 1.516 1_565 S
C442 C441 1.516 1_545 S
C442 C443 1.502 . S
C442 C444 1.561 1_545 S
C442 C445 1.526 . S
C443 H427 0.959 . S
C443 H428 0.959 . S
C443 H429 0.961 . S
C443 C442 1.502 . S
C444 H430 0.960 . S
C444 H431 0.961 . S
C444 H432 0.959 . S
C444 C442 1.561 1_565 S
C445 C442 1.526 . S
C445 C446 1.396 1_545 S
C445 C450 1.390 . S
C446 C440 1.465 . S
C446 C445 1.396 1_565 S
C446 C447 1.399 . S
C447 H433 0.929 . S
C447 C446 1.399 . S
C447 C448 1.385 1_565 S
C448 H434 0.931 . S
C448 C447 1.385 1_545 S
C448 C449 1.389 . S
C449 C448 1.389 . S
C449 C450 1.387 . S
C450 H435 0.930 . S
C450 C445 1.390 . S
C450 C449 1.387 . S
H451 C463 0.930 1_545 S
H452 C465 0.930 . S
H453 C466 0.930 . S
H454 C470 0.959 . S
H455 C470 0.959 . S
H456 C470 0.961 . S
H457 C471 0.960 . S
H458 C471 0.961 . S
H459 C471 0.959 . S
H460 C474 0.929 . S
H461 C475 0.940 . S
H462 C477 0.930 . S
C463 H451 0.930 1_565 S
C463 C464 1.399 . S
C463 C468 1.399 . S
C464 C463 1.399 . S
C464 C465 1.376 . S
C465 H452 0.930 . S
C465 C464 1.376 . S
C465 C466 1.388 . S
C466 H453 0.930 . S
C466 C465 1.388 . S
C466 C467 1.390 . S
C467 C466 1.390 . S
C467 C468 1.393 . S
C467 C473 1.465 . S
C468 C463 1.399 . S
C468 C467 1.393 . S
C468 C469 1.517 1_565 S
C469 C468 1.517 1_545 S
C469 C470 1.502 . S
C469 C471 1.561 . S
C469 C472 1.526 . S
C470 H454 0.959 . S
C470 H455 0.959 . S
C470 H456 0.961 . S
C470 C469 1.502 . S
C471 H457 0.960 . S
C471 H458 0.961 . S
C471 H459 0.959 . S
C471 C469 1.561 . S
C472 C469 1.526 . S
C472 C473 1.396 1_545 S
C472 C477 1.390 . S
C473 C467 1.465 . S
C473 C472 1.396 1_565 S
C473 C474 1.399 . S
C474 H460 0.929 . S
C474 C473 1.399 . S
C474 C475 1.400 . S
C475 H461 0.940 . S
C475 C474 1.400 . S
C475 C476 1.366 1_565 S
C476 C475 1.366 1_545 S
C476 C477 1.387 . S
C477 H462 0.930 . S
C477 C472 1.390 . S
C477 C476 1.387 . S
H478 C490 0.930 . S
H479 C492 0.930 . S
H480 C493 0.930 1_545 S
H481 C497 0.959 1_545 S
H482 C497 0.959 . S
H483 C497 0.961 . S
H484 C498 0.960 . S
H485 C498 0.961 . S
H486 C498 0.959 . S
H487 C501 0.929 . S
H488 C502 0.931 . S
H489 C504 0.930 . S
C490 H478 0.930 . S
C490 C491 1.399 . S
C490 C495 1.399 . S
C491 C490 1.399 . S
C491 C492 1.376 . S
C492 H479 0.930 . S
C492 C491 1.376 . S
C492 C493 1.388 . S
C493 H480 0.930 1_565 S
C493 C492 1.388 . S
C493 C494 1.390 . S
C494 C493 1.390 . S
C494 C495 1.394 . S
C494 C500 1.465 1_565 S
C495 C490 1.399 . S
C495 C494 1.394 . S
C495 C496 1.516 . S
C496 C495 1.516 . S
C496 C497 1.502 . S
C496 C498 1.561 . S
C496 C499 1.526 1_565 S
C497 H481 0.959 1_565 S
C497 H482 0.959 . S
C497 H483 0.961 . S
C497 C496 1.502 . S
C498 H484 0.960 . S
C498 H485 0.961 . S
C498 H486 0.959 . S
C498 C496 1.561 . S
C499 C496 1.526 1_545 S
C499 C500 1.396 . S
C499 C504 1.390 . S
C500 C494 1.465 1_545 S
C500 C499 1.396 . S
C500 C501 1.399 . S
C501 H487 0.929 . S
C501 C500 1.399 . S
C501 C502 1.385 . S
C502 H488 0.931 . S
C502 C501 1.385 . S
C502 C503 1.389 . S
C503 C502 1.389 . S
C503 C504 1.387 . S
C504 H489 0.930 . S
C504 C499 1.390 . S
C504 C503 1.387 . S
H505 C517 0.930 . S
H506 C519 0.930 . S
H507 C520 0.930 . S
H508 C524 0.959 . S
H509 C524 0.959 1_565 S
H510 C524 0.961 . S
H511 C525 0.960 . S
H512 C525 0.961 . S
H513 C525 0.959 . S
H514 C528 0.929 . S
H515 C529 0.931 . S
H516 C531 0.930 . S
C517 H505 0.930 . S
C517 C518 1.399 . S
C517 C522 1.399 . S
C518 C517 1.399 . S
C518 C519 1.376 . S
C519 H506 0.930 . S
C519 C518 1.376 . S
C519 C520 1.388 . S
C520 H507 0.930 . S
C520 C519 1.388 . S
C520 C521 1.390 . S
C521 C520 1.390 . S
C521 C522 1.394 . S
C521 C527 1.465 1_545 S
C522 C517 1.399 . S
C522 C521 1.394 . S
C522 C523 1.516 1_545 S
C523 C522 1.516 1_565 S
C523 C524 1.502 1_565 S
C523 C525 1.561 . S
C523 C526 1.526 . S
C524 H508 0.959 . S
C524 H509 0.959 1_545 S
C524 H510 0.961 . S
C524 C523 1.502 1_545 S
C525 H511 0.960 . S
C525 H512 0.961 . S
C525 H513 0.959 . S
C525 C523 1.561 . S
C526 C523 1.526 . S
C526 C527 1.396 . S
C526 C531 1.390 . S
C527 C521 1.465 1_565 S
C527 C526 1.396 . S
C527 C528 1.399 . S
C528 H514 0.929 . S
C528 C527 1.399 . S
C528 C529 1.385 . S
C529 H515 0.931 . S
C529 C528 1.385 . S
C529 C530 1.389 . S
C530 C529 1.389 . S
C530 C531 1.387 . S
C531 H516 0.930 . S
C531 C526 1.390 . S
C531 C530 1.387 . S
H532 C544 0.930 . S
H533 C546 0.930 . S
H534 C547 0.930 . S
H535 C551 0.959 . S
H536 C551 0.959 1_455 S
H537 C551 0.961 . S
H538 C552 0.960 1_655 S
H539 C552 0.961 . S
H540 C552 0.959 . S
H541 C555 0.929 . S
H542 C556 0.931 . S
H543 C558 0.930 . S
C544 H532 0.930 . S
C544 C545 1.399 . S
C544 C549 1.399 . S
C545 C544 1.399 . S
C545 C546 1.376 . S
C546 H533 0.930 . S
C546 C545 1.376 . S
C546 C547 1.388 . S
C547 H534 0.930 . S
C547 C546 1.388 . S
C547 C548 1.390 . S
C548 C547 1.390 . S
C548 C549 1.394 . S
C548 C554 1.465 1_655 S
C549 C544 1.399 . S
C549 C548 1.394 . S
C549 C550 1.516 . S
C550 C549 1.516 . S
C550 C551 1.502 . S
C550 C552 1.561 1_655 S
C550 C553 1.526 1_655 S
C551 H535 0.959 . S
C551 H536 0.959 1_655 S
C551 H537 0.961 . S
C551 C550 1.502 . S
C552 H538 0.960 1_455 S
C552 H539 0.961 . S
C552 H540 0.959 . S
C552 C550 1.561 1_455 S
C553 C550 1.526 1_455 S
C553 C554 1.396 . S
C553 C558 1.390 . S
C554 C548 1.465 1_455 S
C554 C553 1.396 . S
C554 C555 1.399 . S
C555 H541 0.929 . S
C555 C554 1.399 . S
C555 C556 1.385 . S
C556 H542 0.931 . S
C556 C555 1.385 . S
C556 C557 1.389 . S
C557 C556 1.389 . S
C557 C558 1.387 . S
C558 H543 0.930 . S
C558 C553 1.390 . S
C558 C557 1.387 . S
H559 C571 0.930 . S
H560 C573 0.930 . S
H561 C574 0.930 . S
H562 C578 0.959 . S
H563 C578 0.959 . S
H564 C578 0.961 1_455 S
H565 C579 0.960 . S
H566 C579 0.961 1_655 S
H567 C579 0.959 . S
H568 C582 0.929 . S
H569 C583 0.931 . S
H570 C585 0.930 . S
C571 H559 0.930 . S
C571 C572 1.399 . S
C571 C576 1.399 . S
C572 C571 1.399 . S
C572 C573 1.376 . S
C573 H560 0.930 . S
C573 C572 1.376 . S
C573 C574 1.388 . S
C574 H561 0.930 . S
C574 C573 1.388 . S
C574 C575 1.390 . S
C575 C574 1.390 . S
C575 C576 1.394 . S
C575 C581 1.465 1_455 S
C576 C571 1.399 . S
C576 C575 1.394 . S
C576 C577 1.513 1_455 S
C577 C576 1.513 1_655 S
C577 C578 1.503 . S
C577 C579 1.560 1_655 S
C577 C580 1.529 . S
C578 H562 0.959 . S
C578 H563 0.959 . S
C578 H564 0.961 1_655 S
C578 C577 1.503 . S
C579 H565 0.960 . S
C579 H566 0.961 1_455 S
C579 H567 0.959 . S
C579 C577 1.560 1_455 S
C580 C577 1.529 . S
C580 C581 1.396 . S
C580 C585 1.390 . S
C581 C575 1.465 1_655 S
C581 C580 1.396 . S
C581 C582 1.399 . S
C582 H568 0.929 . S
C582 C581 1.399 . S
C582 C583 1.385 . S
C583 H569 0.931 . S
C583 C582 1.385 . S
C583 C584 1.389 . S
C584 C583 1.389 . S
C584 C585 1.387 . S
C585 H570 0.930 . S
C585 C580 1.390 . S
C585 C584 1.387 . S
H586 C598 0.930 . S
H587 C600 0.930 . S
H588 C601 0.930 . S
H589 C605 0.959 1_455 S
H590 C605 0.959 1_455 S
H591 C605 0.961 . S
H592 C606 0.960 . S
H593 C606 0.961 . S
H594 C606 0.959 . S
H595 C609 0.929 . S
H596 C610 0.931 . S
H597 C612 0.930 . S
C598 H586 0.930 . S
C598 C599 1.399 . S
C598 C603 1.399 . S
C599 C598 1.399 . S
C599 C600 1.376 . S
C600 H587 0.930 . S
C600 C599 1.376 . S
C600 C601 1.388 . S
C601 H588 0.930 . S
C601 C600 1.388 . S
C601 C602 1.390 . S
C602 C601 1.390 . S
C602 C603 1.394 . S
C602 C608 1.465 1_655 S
C603 C598 1.399 . S
C603 C602 1.394 . S
C603 C604 1.516 . S
C604 C603 1.516 . S
C604 C605 1.502 . S
C604 C606 1.561 . S
C604 C607 1.526 1_655 S
C605 H589 0.959 1_655 S
C605 H590 0.959 1_655 S
C605 H591 0.961 . S
C605 C604 1.502 . S
C606 H592 0.960 . S
C606 H593 0.961 . S
C606 H594 0.959 . S
C606 C604 1.561 . S
C607 C604 1.526 1_455 S
C607 C608 1.396 . S
C607 C612 1.390 . S
C608 C602 1.465 1_455 S
C608 C607 1.396 . S
C608 C609 1.399 . S
C609 H595 0.929 . S
C609 C608 1.399 . S
C609 C610 1.385 . S
C610 H596 0.931 . S
C610 C609 1.385 . S
C610 C611 1.389 . S
C611 C610 1.389 . S
C611 C612 1.387 . S
C612 H597 0.930 . S
C612 C607 1.390 . S
C612 C611 1.387 . S
H613 C625 0.930 . S
H614 C627 0.930 . S
H615 C628 0.930 . S
H616 C632 0.959 . S
H617 C632 0.959 . S
H618 C632 0.961 . S
H619 C633 0.960 . S
H620 C633 0.961 . S
H621 C633 0.959 . S
H622 C636 0.929 . S
H623 C637 0.931 . S
H624 C639 0.930 . S
C625 H613 0.930 . S
C625 C626 1.399 . S
C625 C630 1.399 . S
C626 C625 1.399 . S
C626 C627 1.376 . S
C627 H614 0.930 . S
C627 C626 1.376 . S
C627 C628 1.388 . S
C628 H615 0.930 . S
C628 C627 1.388 . S
C628 C629 1.390 . S
C629 C628 1.390 . S
C629 C630 1.394 . S
C629 C635 1.465 1_455 S
C630 C625 1.399 . S
C630 C629 1.394 . S
C630 C631 1.516 1_455 S
C631 C630 1.516 1_655 S
C631 C632 1.502 . S
C631 C633 1.561 . S
C631 C634 1.526 . S
C632 H616 0.959 . S
C632 H617 0.959 . S
C632 H618 0.961 . S
C632 C631 1.502 . S
C633 H619 0.960 . S
C633 H620 0.961 . S
C633 H621 0.959 . S
C633 C631 1.561 . S
C634 C631 1.526 . S
C634 C635 1.396 . S
C634 C639 1.390 . S
C635 C629 1.465 1_655 S
C635 C634 1.396 . S
C635 C636 1.399 . S
C636 H622 0.929 . S
C636 C635 1.399 . S
C636 C637 1.385 . S
C637 H623 0.931 . S
C637 C636 1.385 . S
C637 C638 1.389 . S
C638 C637 1.389 . S
C638 C639 1.387 . S
C639 H624 0.930 . S
C639 C634 1.390 . S
C639 C638 1.387 . S
H640 C652 0.930 . S
H641 C654 0.930 . S
H642 C655 0.930 . S
H643 C659 0.959 . S
H644 C659 0.959 . S
H645 C659 0.961 . S
H646 C660 0.960 . S
H647 C660 0.961 . S
H648 C660 0.959 . S
H649 C663 0.929 . S
H650 C664 0.931 . S
H651 C666 0.930 . S
C652 H640 0.930 . S
C652 C653 1.399 . S
C652 C657 1.399 . S
C653 C652 1.399 . S
C653 C654 1.376 . S
C654 H641 0.930 . S
C654 C653 1.376 . S
C654 C655 1.388 . S
C655 H642 0.930 . S
C655 C654 1.388 . S
C655 C656 1.390 . S
C656 C655 1.390 . S
C656 C657 1.394 . S
C656 C662 1.465 . S
C657 C652 1.399 . S
C657 C656 1.394 . S
C657 C658 1.516 . S
C658 C657 1.516 . S
C658 C659 1.502 . S
C658 C660 1.561 . S
C658 C661 1.526 . S
C659 H643 0.959 . S
C659 H644 0.959 . S
C659 H645 0.961 . S
C659 C658 1.502 . S
C660 H646 0.960 . S
C660 H647 0.961 . S
C660 H648 0.959 . S
C660 C658 1.561 . S
C661 C658 1.526 . S
C661 C662 1.396 . S
C661 C666 1.390 . S
C662 C656 1.465 . S
C662 C661 1.396 . S
C662 C663 1.399 . S
C663 H649 0.929 . S
C663 C662 1.399 . S
C663 C664 1.385 . S
C664 H650 0.931 . S
C664 C663 1.385 . S
C664 C665 1.389 . S
C665 C664 1.389 . S
C665 C666 1.387 . S
C666 H651 0.930 . S
C666 C661 1.390 . S
C666 C665 1.387 . S
H667 C679 0.930 . S
H668 C681 0.930 . S
H669 C682 0.930 . S
H670 C686 0.959 . S
H671 C686 0.959 . S
H672 C686 0.961 . S
H673 C687 0.960 . S
H674 C687 0.961 . S
H675 C687 0.959 . S
H676 C690 0.929 . S
H677 C691 0.931 . S
H678 C693 0.930 . S
C679 H667 0.930 . S
C679 C680 1.399 . S
C679 C684 1.399 . S
C680 C679 1.399 . S
C680 C681 1.376 . S
C681 H668 0.930 . S
C681 C680 1.376 . S
C681 C682 1.388 . S
C682 H669 0.930 . S
C682 C681 1.388 . S
C682 C683 1.390 . S
C683 C682 1.390 . S
C683 C684 1.394 . S
C683 C689 1.465 . S
C684 C679 1.399 . S
C684 C683 1.394 . S
C684 C685 1.516 . S
C685 C684 1.516 . S
C685 C686 1.502 . S
C685 C687 1.561 . S
C685 C688 1.526 . S
C686 H670 0.959 . S
C686 H671 0.959 . S
C686 H672 0.961 . S
C686 C685 1.502 . S
C687 H673 0.960 . S
C687 H674 0.961 . S
C687 H675 0.959 . S
C687 C685 1.561 . S
C688 C685 1.526 . S
C688 C689 1.396 . S
C688 C693 1.390 . S
C689 C683 1.465 . S
C689 C688 1.396 . S
C689 C690 1.399 . S
C690 H676 0.929 . S
C690 C689 1.399 . S
C690 C691 1.385 . S
C691 H677 0.931 . S
C691 C690 1.385 . S
C691 C692 1.389 . S
C692 C691 1.389 . S
C692 C693 1.387 . S
C693 H678 0.930 . S
C693 C688 1.390 . S
C693 C692 1.387 . S
H694 C706 0.930 . S
H695 C708 0.930 . S
H696 C709 0.930 . S
H697 C713 0.959 . S
H698 C713 0.959 . S
H699 C713 0.961 . S
H700 C714 0.960 . S
H701 C714 0.961 . S
H702 C714 0.959 . S
H703 C717 0.929 . S
H704 C718 0.931 . S
H705 C720 0.930 . S
C706 H694 0.930 . S
C706 C707 1.399 . S
C706 C711 1.399 . S
C707 C706 1.399 . S
C707 C708 1.376 . S
C708 H695 0.930 . S
C708 C707 1.376 . S
C708 C709 1.388 . S
C709 H696 0.930 . S
C709 C708 1.388 . S
C709 C710 1.390 . S
C710 C709 1.390 . S
C710 C711 1.394 . S
C710 C716 1.465 . S
C711 C706 1.399 . S
C711 C710 1.394 . S
C711 C712 1.516 . S
C712 C711 1.516 . S
C712 C713 1.502 . S
C712 C714 1.561 . S
C712 C715 1.526 . S
C713 H697 0.959 . S
C713 H698 0.959 . S
C713 H699 0.961 . S
C713 C712 1.502 . S
C714 H700 0.960 . S
C714 H701 0.961 . S
C714 H702 0.959 . S
C714 C712 1.561 . S
C715 C712 1.526 . S
C715 C716 1.396 . S
C715 C720 1.390 . S
C716 C710 1.465 . S
C716 C715 1.396 . S
C716 C717 1.399 . S
C717 H703 0.929 . S
C717 C716 1.399 . S
C717 C718 1.385 . S
C718 H704 0.931 . S
C718 C717 1.385 . S
C718 C719 1.389 . S
C719 C718 1.389 . S
C719 C720 1.387 . S
C720 H705 0.930 . S
C720 C715 1.390 . S
C720 C719 1.387 . S
H721 C733 0.930 . S
H722 C735 0.930 . S
H723 C736 0.930 . S
H724 C740 0.959 . S
H725 C740 0.959 . S
H726 C740 0.961 . S
H727 C741 0.960 . S
H728 C741 0.961 . S
H729 C741 0.959 . S
H730 C744 0.929 . S
H731 C745 0.931 . S
H732 C747 0.930 . S
C733 H721 0.930 . S
C733 C734 1.399 . S
C733 C738 1.399 . S
C734 C733 1.399 . S
C734 C735 1.376 . S
C735 H722 0.930 . S
C735 C734 1.376 . S
C735 C736 1.388 . S
C736 H723 0.930 . S
C736 C735 1.388 . S
C736 C737 1.390 . S
C737 C736 1.390 . S
C737 C738 1.394 . S
C737 C743 1.465 . S
C738 C733 1.399 . S
C738 C737 1.394 . S
C738 C739 1.516 . S
C739 C738 1.516 . S
C739 C740 1.502 . S
C739 C741 1.561 . S
C739 C742 1.526 . S
C740 H724 0.959 . S
C740 H725 0.959 . S
C740 H726 0.961 . S
C740 C739 1.502 . S
C741 H727 0.960 . S
C741 H728 0.961 . S
C741 H729 0.959 . S
C741 C739 1.561 . S
C742 C739 1.526 . S
C742 C743 1.396 . S
C742 C747 1.390 . S
C743 C737 1.465 . S
C743 C742 1.396 . S
C743 C744 1.399 . S
C744 H730 0.929 . S
C744 C743 1.399 . S
C744 C745 1.385 . S
C745 H731 0.931 . S
C745 C744 1.385 . S
C745 C746 1.389 . S
C746 C745 1.389 . S
C746 C747 1.387 . S
C747 H732 0.930 . S
C747 C742 1.390 . S
C747 C746 1.387 . S
H748 C760 0.930 . S
H749 C762 0.930 . S
H750 C763 0.930 . S
H751 C767 0.959 . S
H752 C767 0.959 . S
H753 C767 0.961 . S
H754 C768 0.960 . S
H755 C768 0.961 . S
H756 C768 0.959 . S
H757 C771 0.929 . S
H758 C772 0.931 . S
H759 C774 0.930 . S
C760 H748 0.930 . S
C760 C761 1.399 . S
C760 C765 1.399 . S
C761 C760 1.399 . S
C761 C762 1.376 . S
C762 H749 0.930 . S
C762 C761 1.376 . S
C762 C763 1.388 . S
C763 H750 0.930 . S
C763 C762 1.388 . S
C763 C764 1.390 . S
C764 C763 1.390 . S
C764 C765 1.394 . S
C764 C770 1.465 . S
C765 C760 1.399 . S
C765 C764 1.394 . S
C765 C766 1.516 . S
C766 C765 1.516 . S
C766 C767 1.502 . S
C766 C768 1.561 . S
C766 C769 1.526 . S
C767 H751 0.959 . S
C767 H752 0.959 . S
C767 H753 0.961 . S
C767 C766 1.502 . S
C768 H754 0.960 . S
C768 H755 0.961 . S
C768 H756 0.959 . S
C768 C766 1.561 . S
C769 C766 1.526 . S
C769 C770 1.396 . S
C769 C774 1.390 . S
C770 C764 1.465 . S
C770 C769 1.396 . S
C770 C771 1.399 . S
C771 H757 0.929 . S
C771 C770 1.399 . S
C771 C772 1.385 . S
C772 H758 0.931 . S
C772 C771 1.385 . S
C772 C773 1.389 . S
C773 C772 1.389 . S
C773 C774 1.387 . S
C774 H759 0.930 . S
C774 C769 1.390 . S
C774 C773 1.387 . S
H775 C787 0.930 . S
H776 C789 0.930 . S
H777 C790 0.930 . S
H778 C794 0.959 . S
H779 C794 0.959 . S
H780 C794 0.961 . S
H781 C795 0.960 . S
H782 C795 0.961 . S
H783 C795 0.959 . S
H784 C798 0.929 . S
H785 C799 0.931 . S
H786 C801 0.930 . S
C787 H775 0.930 . S
C787 C788 1.399 . S
C787 C792 1.399 . S
C788 C787 1.399 . S
C788 C789 1.376 . S
C789 H776 0.930 . S
C789 C788 1.376 . S
C789 C790 1.388 . S
C790 H777 0.930 . S
C790 C789 1.388 . S
C790 C791 1.390 . S
C791 C790 1.390 . S
C791 C792 1.394 . S
C791 C797 1.465 . S
C792 C787 1.399 . S
C792 C791 1.394 . S
C792 C793 1.516 . S
C793 C792 1.516 . S
C793 C794 1.502 . S
C793 C795 1.561 . S
C793 C796 1.526 . S
C794 H778 0.959 . S
C794 H779 0.959 . S
C794 H780 0.961 . S
C794 C793 1.502 . S
C795 H781 0.960 . S
C795 H782 0.961 . S
C795 H783 0.959 . S
C795 C793 1.561 . S
C796 C793 1.526 . S
C796 C797 1.396 . S
C796 C801 1.390 . S
C797 C791 1.465 . S
C797 C796 1.396 . S
C797 C798 1.399 . S
C798 H784 0.929 . S
C798 C797 1.399 . S
C798 C799 1.385 . S
C799 H785 0.931 . S
C799 C798 1.385 . S
C799 C800 1.389 . S
C800 C799 1.389 . S
C800 C801 1.387 . S
C801 H786 0.930 . S
C801 C796 1.390 . S
C801 C800 1.387 . S
H802 C814 0.930 . S
H803 C816 0.930 . S
H804 C817 0.930 . S
H805 C821 0.959 . S
H806 C821 0.959 . S
H807 C821 0.961 . S
H808 C822 0.960 . S
H809 C822 0.961 . S
H810 C822 0.959 . S
H811 C825 0.929 . S
H812 C826 0.931 . S
H813 C828 0.930 . S
C814 H802 0.930 . S
C814 C815 1.399 . S
C814 C819 1.399 . S
C815 C814 1.399 . S
C815 C816 1.376 . S
C816 H803 0.930 . S
C816 C815 1.376 . S
C816 C817 1.388 . S
C817 H804 0.930 . S
C817 C816 1.388 . S
C817 C818 1.390 . S
C818 C817 1.390 . S
C818 C819 1.394 . S
C818 C824 1.465 . S
C819 C814 1.399 . S
C819 C818 1.394 . S
C819 C820 1.516 . S
C820 C819 1.516 . S
C820 C821 1.502 . S
C820 C822 1.561 . S
C820 C823 1.526 . S
C821 H805 0.959 . S
C821 H806 0.959 . S
C821 H807 0.961 . S
C821 C820 1.502 . S
C822 H808 0.960 . S
C822 H809 0.961 . S
C822 H810 0.959 . S
C822 C820 1.561 . S
C823 C820 1.526 . S
C823 C824 1.396 . S
C823 C828 1.390 . S
C824 C818 1.465 . S
C824 C823 1.396 . S
C824 C825 1.399 . S
C825 H811 0.929 . S
C825 C824 1.399 . S
C825 C826 1.385 . S
C826 H812 0.931 . S
C826 C825 1.385 . S
C826 C827 1.389 . S
C827 C826 1.389 . S
C827 C828 1.387 . S
C828 H813 0.930 . S
C828 C823 1.390 . S
C828 C827 1.387 . S
H829 C841 0.930 . S
H830 C843 0.930 . S
H831 C844 0.930 . S
H832 C848 0.959 . S
H833 C848 0.959 . S
H834 C848 0.961 . S
H835 C849 0.960 . S
H836 C849 0.961 . S
H837 C849 0.959 . S
H838 C852 0.929 . S
H839 C853 0.931 . S
H840 C855 0.930 . S
C841 H829 0.930 . S
C841 C842 1.399 . S
C841 C846 1.399 . S
C842 C841 1.399 . S
C842 C843 1.376 . S
C843 H830 0.930 . S
C843 C842 1.376 . S
C843 C844 1.388 . S
C844 H831 0.930 . S
C844 C843 1.388 . S
C844 C845 1.390 . S
C845 C844 1.390 . S
C845 C846 1.394 . S
C845 C851 1.465 . S
C846 C841 1.399 . S
C846 C845 1.394 . S
C846 C847 1.516 . S
C847 C846 1.516 . S
C847 C848 1.502 . S
C847 C849 1.561 . S
C847 C850 1.526 . S
C848 H832 0.959 . S
C848 H833 0.959 . S
C848 H834 0.961 . S
C848 C847 1.502 . S
C849 H835 0.960 . S
C849 H836 0.961 . S
C849 H837 0.959 . S
C849 C847 1.561 . S
C850 C847 1.526 . S
C850 C851 1.396 . S
C850 C855 1.390 . S
C851 C845 1.465 . S
C851 C850 1.396 . S
C851 C852 1.399 . S
C852 H838 0.929 . S
C852 C851 1.399 . S
C852 C853 1.385 . S
C853 H839 0.931 . S
C853 C852 1.385 . S
C853 C854 1.389 . S
C854 C853 1.389 . S
C854 C855 1.387 . S
C855 H840 0.930 . S
C855 C850 1.390 . S
C855 C854 1.387 . S
H856 C868 0.930 . S
H857 C870 0.930 . S
H858 C871 0.930 . S
H859 C875 0.959 . S
H860 C875 0.959 . S
H861 C875 0.961 . S
H862 C876 0.960 . S
H863 C876 0.961 . S
H864 C876 0.959 . S
H865 C879 0.929 . S
H866 C880 0.931 . S
H867 C882 0.930 . S
C868 H856 0.930 . S
C868 C869 1.399 . S
C868 C873 1.399 . S
C869 C868 1.399 . S
C869 C870 1.376 1_545 S
C870 H857 0.930 . S
C870 C869 1.376 1_565 S
C870 C871 1.388 . S
C871 H858 0.930 . S
C871 C870 1.388 . S
C871 C872 1.390 . S
C872 C871 1.390 . S
C872 C873 1.394 1_565 S
C872 C878 1.465 . S
C873 C868 1.399 . S
C873 C872 1.394 1_545 S
C873 C874 1.516 . S
C874 C873 1.516 . S
C874 C875 1.502 . S
C874 C876 1.561 . S
C874 C877 1.526 . S
C875 H859 0.959 . S
C875 H860 0.959 . S
C875 H861 0.961 . S
C875 C874 1.502 . S
C876 H862 0.960 . S
C876 H863 0.961 . S
C876 H864 0.959 . S
C876 C874 1.561 . S
C877 C874 1.526 . S
C877 C878 1.396 1_545 S
C877 C882 1.390 . S
C878 C872 1.465 . S
C878 C877 1.396 1_565 S
C878 C879 1.399 . S
C879 H865 0.929 . S
C879 C878 1.399 . S
C879 C880 1.385 . S
C880 H866 0.931 . S
C880 C879 1.385 . S
C880 C881 1.389 . S
C881 C880 1.389 . S
C881 C882 1.387 1_565 S
C882 H867 0.930 . S
C882 C877 1.390 . S
C882 C881 1.387 1_545 S
H883 C895 0.930 . S
H884 C897 0.930 . S
H885 C898 0.930 . S
H886 C902 0.959 . S
H887 C902 0.959 . S
H888 C902 0.961 . S
H889 C903 0.960 . S
H890 C903 0.961 . S
H891 C903 0.959 . S
H892 C906 0.929 . S
H893 C907 0.931 . S
H894 C909 0.930 . S
C895 H883 0.930 . S
C895 C896 1.399 . S
C895 C900 1.399 . S
C896 C895 1.399 . S
C896 C897 1.376 1_545 S
C897 H884 0.930 . S
C897 C896 1.376 1_565 S
C897 C898 1.388 . S
C898 H885 0.930 . S
C898 C897 1.388 . S
C898 C899 1.390 . S
C899 C898 1.390 . S
C899 C900 1.394 1_565 S
C899 C905 1.465 . S
C900 C895 1.399 . S
C900 C899 1.394 1_545 S
C900 C901 1.516 . S
C901 C900 1.516 . S
C901 C902 1.502 . S
C901 C903 1.561 . S
C901 C904 1.526 . S
C902 H886 0.959 . S
C902 H887 0.959 . S
C902 H888 0.961 . S
C902 C901 1.502 . S
C903 H889 0.960 . S
C903 H890 0.961 . S
C903 H891 0.959 . S
C903 C901 1.561 . S
C904 C901 1.526 . S
C904 C905 1.396 1_545 S
C904 C909 1.390 . S
C905 C899 1.465 . S
C905 C904 1.396 1_565 S
C905 C906 1.399 . S
C906 H892 0.929 . S
C906 C905 1.399 . S
C906 C907 1.385 . S
C907 H893 0.931 . S
C907 C906 1.385 . S
C907 C908 1.389 . S
C908 C907 1.389 . S
C908 C909 1.387 1_565 S
C909 H894 0.930 . S
C909 C904 1.390 . S
C909 C908 1.387 1_545 S
H910 C922 0.930 . S
H911 C924 0.930 . S
H912 C925 0.930 . S
H913 C929 0.959 . S
H914 C929 0.959 . S
H915 C929 0.961 . S
H916 C930 0.960 . S
H917 C930 0.961 . S
H918 C930 0.959 . S
H919 C933 0.929 . S
H920 C934 0.931 . S
H921 C936 0.930 . S
C922 H910 0.930 . S
C922 C923 1.399 . S
C922 C927 1.399 . S
C923 C922 1.399 . S
C923 C924 1.376 1_545 S
C924 H911 0.930 . S
C924 C923 1.376 1_565 S
C924 C925 1.388 . S
C925 H912 0.930 . S
C925 C924 1.388 . S
C925 C926 1.390 . S
C926 C925 1.390 . S
C926 C927 1.394 1_565 S
C926 C932 1.465 . S
C927 C922 1.399 . S
C927 C926 1.394 1_545 S
C927 C928 1.516 . S
C928 C927 1.516 . S
C928 C929 1.502 . S
C928 C930 1.561 . S
C928 C931 1.526 . S
C929 H913 0.959 . S
C929 H914 0.959 . S
C929 H915 0.961 . S
C929 C928 1.502 . S
C930 H916 0.960 . S
C930 H917 0.961 . S
C930 H918 0.959 . S
C930 C928 1.561 . S
C931 C928 1.526 . S
C931 C932 1.396 1_545 S
C931 C936 1.390 . S
C932 C926 1.465 . S
C932 C931 1.396 1_565 S
C932 C933 1.399 . S
C933 H919 0.929 . S
C933 C932 1.399 . S
C933 C934 1.385 . S
C934 H920 0.931 . S
C934 C933 1.385 . S
C934 C935 1.389 . S
C935 C934 1.389 . S
C935 C936 1.387 1_565 S
C936 H921 0.930 . S
C936 C931 1.390 . S
C936 C935 1.387 1_545 S
H937 C949 0.930 . S
H938 C951 0.930 . S
H939 C952 0.930 . S
H940 C956 0.959 . S
H941 C956 0.959 . S
H942 C956 0.961 . S
H943 C957 0.960 . S
H944 C957 0.961 . S
H945 C957 0.959 . S
H946 C960 0.929 . S
H947 C961 0.931 . S
H948 C963 0.930 . S
C949 H937 0.930 . S
C949 C950 1.399 1_545 S
C949 C954 1.399 . S
C950 C949 1.399 1_565 S
C950 C951 1.376 . S
C951 H938 0.930 . S
C951 C950 1.376 . S
C951 C952 1.388 . S
C952 H939 0.930 . S
C952 C951 1.388 . S
C952 C953 1.390 . S
C953 C952 1.390 . S
C953 C954 1.394 1_565 S
C953 C959 1.465 . S
C954 C949 1.399 . S
C954 C953 1.394 1_545 S
C954 C955 1.516 . S
C955 C954 1.516 . S
C955 C956 1.502 . S
C955 C957 1.561 . S
C955 C958 1.526 . S
C956 H940 0.959 . S
C956 H941 0.959 . S
C956 H942 0.961 . S
C956 C955 1.502 . S
C957 H943 0.960 . S
C957 H944 0.961 . S
C957 H945 0.959 . S
C957 C955 1.561 . S
C958 C955 1.526 . S
C958 C959 1.396 1_545 S
C958 C963 1.390 . S
C959 C953 1.465 . S
C959 C958 1.396 1_565 S
C959 C960 1.399 . S
C960 H946 0.929 . S
C960 C959 1.399 . S
C960 C961 1.385 . S
C961 H947 0.931 . S
C961 C960 1.385 . S
C961 C962 1.389 1_565 S
C962 C961 1.389 1_545 S
C962 C963 1.387 . S
C963 H948 0.930 . S
C963 C958 1.390 . S
C963 C962 1.387 . S
H964 C976 0.930 . S
H965 C978 0.930 . S
H966 C979 0.930 . S
H967 C983 0.959 . S
H968 C983 0.959 . S
H969 C983 0.961 . S
H970 C984 0.960 . S
H971 C984 0.961 . S
H972 C984 0.959 . S
H973 C987 0.929 . S
H974 C988 0.931 . S
H975 C990 0.930 . S
C976 H964 0.930 . S
C976 C977 1.399 . S
C976 C981 1.399 . S
C977 C976 1.399 . S
C977 C978 1.376 . S
C978 H965 0.930 . S
C978 C977 1.376 . S
C978 C979 1.388 . S
C979 H966 0.930 . S
C979 C978 1.388 . S
C979 C980 1.390 . S
C980 C979 1.390 . S
C980 C981 1.394 . S
C980 C986 1.465 . S
C981 C976 1.399 . S
C981 C980 1.394 . S
C981 C982 1.516 . S
C982 C981 1.516 . S
C982 C983 1.502 . S
C982 C984 1.561 . S
C982 C985 1.526 . S
C983 H967 0.959 . S
C983 H968 0.959 . S
C983 H969 0.961 . S
C983 C982 1.502 . S
C984 H970 0.960 . S
C984 H971 0.961 . S
C984 H972 0.959 . S
C984 C982 1.561 . S
C985 C982 1.526 . S
C985 C986 1.396 . S
C985 C990 1.390 . S
C986 C980 1.465 . S
C986 C985 1.396 . S
C986 C987 1.399 . S
C987 H973 0.929 . S
C987 C986 1.399 . S
C987 C988 1.385 . S
C988 H974 0.931 . S
C988 C987 1.385 . S
C988 C989 1.389 . S
C989 C988 1.389 . S
C989 C990 1.387 . S
C990 H975 0.930 . S
C990 C985 1.390 . S
C990 C989 1.387 . S
H991 C1003 0.930 . S
H992 C1005 0.930 . S
H993 C1006 0.930 . S
H994 C1010 0.959 . S
H995 C1010 0.959 . S
H996 C1010 0.961 . S
H997 C1011 0.960 . S
H998 C1011 0.961 . S
H999 C1011 0.959 . S
H1000 C1014 0.929 . S
H1001 C1015 0.931 . S
H1002 C1017 0.930 . S
C1003 H991 0.930 . S
C1003 C1004 1.399 . S
C1003 C1008 1.399 . S
C1004 C1003 1.399 . S
C1004 C1005 1.376 . S
C1005 H992 0.930 . S
C1005 C1004 1.376 . S
C1005 C1006 1.388 . S
C1006 H993 0.930 . S
C1006 C1005 1.388 . S
C1006 C1007 1.390 . S
C1007 C1006 1.390 . S
C1007 C1008 1.394 . S
C1007 C1013 1.465 . S
C1008 C1003 1.399 . S
C1008 C1007 1.394 . S
C1008 C1009 1.516 . S
C1009 C1008 1.516 . S
C1009 C1010 1.502 . S
C1009 C1011 1.561 . S
C1009 C1012 1.526 . S
C1010 H994 0.959 . S
C1010 H995 0.959 . S
C1010 H996 0.961 . S
C1010 C1009 1.502 . S
C1011 H997 0.960 . S
C1011 H998 0.961 . S
C1011 H999 0.959 . S
C1011 C1009 1.561 . S
C1012 C1009 1.526 . S
C1012 C1013 1.396 . S
C1012 C1017 1.390 . S
C1013 C1007 1.465 . S
C1013 C1012 1.396 . S
C1013 C1014 1.399 . S
C1014 H1000 0.929 . S
C1014 C1013 1.399 . S
C1014 C1015 1.385 . S
C1015 H1001 0.931 . S
C1015 C1014 1.385 . S
C1015 C1016 1.389 . S
C1016 C1015 1.389 . S
C1016 C1017 1.387 . S
C1017 H1002 0.930 . S
C1017 C1012 1.390 . S
C1017 C1016 1.387 . S
H1018 C1030 0.930 . S
H1019 C1032 0.930 . S
H1020 C1033 0.930 . S
H1021 C1037 0.959 . S
H1022 C1037 0.959 . S
H1023 C1037 0.961 . S
H1024 C1038 0.960 . S
H1025 C1038 0.961 . S
H1026 C1038 0.959 . S
H1027 C1041 0.929 . S
H1028 C1042 0.931 . S
H1029 C1044 0.930 . S
C1030 H1018 0.930 . S
C1030 C1031 1.399 . S
C1030 C1035 1.399 . S
C1031 C1030 1.399 . S
C1031 C1032 1.376 . S
C1032 H1019 0.930 . S
C1032 C1031 1.376 . S
C1032 C1033 1.388 . S
C1033 H1020 0.930 . S
C1033 C1032 1.388 . S
C1033 C1034 1.390 . S
C1034 C1033 1.390 . S
C1034 C1035 1.394 . S
C1034 C1040 1.465 . S
C1035 C1030 1.399 . S
C1035 C1034 1.394 . S
C1035 C1036 1.516 . S
C1036 C1035 1.516 . S
C1036 C1037 1.502 . S
C1036 C1038 1.561 . S
C1036 C1039 1.526 . S
C1037 H1021 0.959 . S
C1037 H1022 0.959 . S
C1037 H1023 0.961 . S
C1037 C1036 1.502 . S
C1038 H1024 0.960 . S
C1038 H1025 0.961 . S
C1038 H1026 0.959 . S
C1038 C1036 1.561 . S
C1039 C1036 1.526 . S
C1039 C1040 1.396 . S
C1039 C1044 1.390 . S
C1040 C1034 1.465 . S
C1040 C1039 1.396 . S
C1040 C1041 1.399 . S
C1041 H1027 0.929 . S
C1041 C1040 1.399 . S
C1041 C1042 1.385 . S
C1042 H1028 0.931 . S
C1042 C1041 1.385 . S
C1042 C1043 1.389 . S
C1043 C1042 1.389 . S
C1043 C1044 1.387 . S
C1044 H1029 0.930 . S
C1044 C1039 1.390 . S
C1044 C1043 1.387 . S
H1045 C1057 0.930 . S
H1046 C1059 0.930 . S
H1047 C1060 0.930 . S
H1048 C1064 0.959 . S
H1049 C1064 0.959 . S
H1050 C1064 0.961 . S
H1051 C1065 0.960 . S
H1052 C1065 0.961 . S
H1053 C1065 0.959 . S
H1054 C1068 0.929 . S
H1055 C1069 0.931 . S
H1056 C1071 0.930 . S
C1057 H1045 0.930 . S
C1057 C1058 1.399 . S
C1057 C1062 1.399 . S
C1058 C1057 1.399 . S
C1058 C1059 1.376 . S
C1059 H1046 0.930 . S
C1059 C1058 1.376 . S
C1059 C1060 1.388 . S
C1060 H1047 0.930 . S
C1060 C1059 1.388 . S
C1060 C1061 1.390 . S
C1061 C1060 1.390 . S
C1061 C1062 1.394 . S
C1061 C1067 1.465 . S
C1062 C1057 1.399 . S
C1062 C1061 1.394 . S
C1062 C1063 1.516 . S
C1063 C1062 1.516 . S
C1063 C1064 1.502 . S
C1063 C1065 1.561 . S
C1063 C1066 1.526 . S
C1064 H1048 0.959 . S
C1064 H1049 0.959 . S
C1064 H1050 0.961 . S
C1064 C1063 1.502 . S
C1065 H1051 0.960 . S
C1065 H1052 0.961 . S
C1065 H1053 0.959 . S
C1065 C1063 1.561 . S
C1066 C1063 1.526 . S
C1066 C1067 1.396 . S
C1066 C1071 1.390 . S
C1067 C1061 1.465 . S
C1067 C1066 1.396 . S
C1067 C1068 1.399 . S
C1068 H1054 0.929 . S
C1068 C1067 1.399 . S
C1068 C1069 1.385 . S
C1069 H1055 0.931 . S
C1069 C1068 1.385 . S
C1069 C1070 1.389 . S
C1070 C1069 1.389 . S
C1070 C1071 1.387 . S
C1071 H1056 0.930 . S
C1071 C1066 1.390 . S
C1071 C1070 1.387 . S
C221 C4 1.347 . S
C233 C69 1.350 . S
C248 C62 1.375 . S
C260 C23 1.368 . S
C275 C30 1.392 . S
C287 C101 1.389 . S
C302 C82 1.367 . S
C314 C43 1.374 . S
C329 C179 1.369 . S
C341 C114 1.363 . S
C356 C160 1.364 . S
C368 C121 1.371 . S
C383 C205 1.363 . S
C395 C134 1.370 . S
C410 C153 1.353 . S
C422 C186 1.359 . S
C437 C18 1.507 . S
C449 C3 1.499 . S
C464 C29 1.512 . S
C476 C42 1.499 . S
C491 C57 1.513 . S
C503 C68 1.514 . S
C518 C81 1.500 . S
C530 C96 1.501 . S
C545 C109 1.506 . S
C557 C120 1.499 . S
C572 C148 1.509 . S
C584 C133 1.514 . S
C599 C174 1.501 . S
C611 C159 1.500 . S
C626 C185 1.503 . S
C638 C200 1.514 . S
C653 C127 1.495 . S
C665 C10 1.490 . S
C680 C17 1.499 . S
C692 C108 1.491 . S
C707 C147 1.501 . S
C719 C36 1.499 . S
C734 C49 1.493 . S
C746 C140 1.490 . S
C761 C56 1.493 . S
C773 C173 1.498 . S
C788 C166 1.489 . S
C800 C75 1.493 . S
C815 C88 1.490 . S
C827 C199 1.493 . S
C842 C192 1.501 . S
C854 C95 1.499 . S
C869 C5 1.292 . S
C881 C31 1.266 . S
C896 C44 1.293 . S
C908 C16 1.266 . S
C923 C83 1.323 . S
C935 C55 1.289 . S
C950 C94 1.265 . S
C962 C70 1.306 . S
C977 C135 1.288 . S
C989 C107 1.320 . S
C1004 C122 1.297 . S
C1016 C146 1.268 . S
C1031 C187 1.265 . S
C1043 C161 1.303 . S
C1058 C172 1.323 . S
C1070 C198 1.292 . S
