# Generated by pormake.
# Topology ukg, (4)-cn, num edge types: 1
# Building blocks:
#     Node 0, Type 0, BuildingBlock: GALJAG_clean_sbu_0, # of connection points: 4
#     Node 1, Type 0, BuildingBlock: GALJAG_clean_sbu_0, # of connection points: 4
#     Node 2, Type 0, BuildingBlock: GALJAG_clean_sbu_0, # of connection points: 4
#     Node 3, Type 0, BuildingBlock: GALJAG_clean_sbu_0, # of connection points: 4
#     Node 4, Type 0, BuildingBlock: GALJAG_clean_sbu_0, # of connection points: 4
#     Node 5, Type 0, BuildingBlock: GALJAG_clean_sbu_0, # of connection points: 4
#     Node 6, Type 0, BuildingBlock: GALJAG_clean_sbu_0, # of connection points: 4
#     Node 7, Type 0, BuildingBlock: GALJAG_clean_sbu_0, # of connection points: 4
#     Edge 8, Type (0, 0), BuildingBlock: KIFKEQ_clean_linker_1, # of connection points: 2
#     Edge 9, Type (0, 0), BuildingBlock: KIFKEQ_clean_linker_1, # of connection points: 2
#     Edge 10, Type (0, 0), BuildingBlock: KIFKEQ_clean_linker_1, # of connection points: 2
#     Edge 11, Type (0, 0), BuildingBlock: KIFKEQ_clean_linker_1, # of connection points: 2
#     Edge 12, Type (0, 0), BuildingBlock: KIFKEQ_clean_linker_1, # of connection points: 2
#     Edge 13, Type (0, 0), BuildingBlock: KIFKEQ_clean_linker_1, # of connection points: 2
#     Edge 14, Type (0, 0), BuildingBlock: KIFKEQ_clean_linker_1, # of connection points: 2
#     Edge 15, Type (0, 0), BuildingBlock: KIFKEQ_clean_linker_1, # of connection points: 2
#     Edge 16, Type (0, 0), BuildingBlock: KIFKEQ_clean_linker_1, # of connection points: 2
#     Edge 17, Type (0, 0), BuildingBlock: KIFKEQ_clean_linker_1, # of connection points: 2
#     Edge 18, Type (0, 0), BuildingBlock: KIFKEQ_clean_linker_1, # of connection points: 2
#     Edge 19, Type (0, 0), BuildingBlock: KIFKEQ_clean_linker_1, # of connection points: 2
#     Edge 20, Type (0, 0), BuildingBlock: KIFKEQ_clean_linker_1, # of connection points: 2
#     Edge 21, Type (0, 0), BuildingBlock: KIFKEQ_clean_linker_1, # of connection points: 2
#     Edge 22, Type (0, 0), BuildingBlock: KIFKEQ_clean_linker_1, # of connection points: 2
#     Edge 23, Type (0, 0), BuildingBlock: KIFKEQ_clean_linker_1, # of connection points: 2
# Relax obj value: 0.111
# Max RMSD: 0.188
# Mean RMSD: 0.187
data_MOF--net-ukg--node1-GALJAG_clean_sbu_0--edge1-KIFKEQ_clean_linker_1
_symmetry_space_group_name_H-M    P1
_symmetry_Int_Tables_number       1
_symmetry_cell_setting            triclinic
loop_
_symmetry_equiv_pos_as_xyz
'x, y, z'
_cell_length_a     30.539989
_cell_length_b     30.515554
_cell_length_c     39.55134
_cell_angle_alpha  90.107594
_cell_angle_beta   89.873604
_cell_angle_gamma 90.009613
loop_
_atom_site_label
_atom_site_type_symbol
_atom_site_fract_x
_atom_site_fract_y
_atom_site_fract_z
_atom_type_partial_charge
In0 In 0.00823 0.67067 0.14432 0.0
O1 O 0.99137 0.65001 0.09013 0.0
O2 O 0.00735 0.60012 0.12534 0.0
C3 C 0.97739 0.75334 0.14773 0.0
C4 C 0.09461 0.68586 0.14045 0.0
C5 C 0.96599 0.64254 0.20008 0.0
O6 O 0.95725 0.72351 0.13186 0.0
O7 O 0.01337 0.74166 0.16033 0.0
O8 O 0.0069 0.63801 0.19658 0.0
O9 O 0.94683 0.65966 0.17519 0.0
C10 C -0.00291 0.60961 0.09539 0.0
O11 O 0.07704 0.66903 0.16635 0.0
O12 O 0.06868 0.69388 0.11643 0.0
In13 In 0.30939 0.50213 0.63779 0.0
O14 O 0.31151 0.57062 0.6608 0.0
O15 O 0.28492 0.56287 0.6113 0.0
C16 C 0.33646 0.45698 0.69234 0.0
C17 C 0.37186 0.49428 0.58959 0.0
C18 C 0.22701 0.47062 0.64021 0.0
O19 O 0.33812 0.49838 0.69132 0.0
O20 O 0.32278 0.43898 0.66566 0.0
O21 O 0.25703 0.45107 0.62406 0.0
O22 O 0.23833 0.50643 0.65342 0.0
C23 C 0.29367 0.58849 0.63548 0.0
O24 O 0.33177 0.4879 0.58348 0.0
O25 O 0.38029 0.50359 0.61995 0.0
In26 In 0.48725 0.82435 0.14652 0.0
O27 O 0.51055 0.84926 0.09481 0.0
O28 O 0.47541 0.89316 0.12656 0.0
C29 C 0.52022 0.74257 0.14914 0.0
C30 C 0.40245 0.80276 0.14195 0.0
C31 C 0.52913 0.8547 0.20181 0.0
O32 O 0.53875 0.77256 0.13231 0.0
O33 O 0.48487 0.75369 0.16321 0.0
O34 O 0.48807 0.85769 0.19877 0.0
O35 O 0.54849 0.83804 0.17676 0.0
C36 C 0.49441 0.88707 0.09864 0.0
O37 O 0.41841 0.82056 0.16808 0.0
O38 O 0.42918 0.79689 0.11791 0.0
In39 In 0.17951 0.9893 0.63969 0.0
O40 O 0.1778 0.921 0.66283 0.0
O41 O 0.19975 0.92762 0.61188 0.0
C42 C 0.1506 0.03045 0.69579 0.0
C43 C 0.11923 0.00177 0.59059 0.0
C44 C 0.263 0.01801 0.64279 0.0
O45 O 0.14467 0.98989 0.69113 0.0
O46 O 0.16999 0.0499 0.67197 0.0
O47 O 0.23318 0.04058 0.62911 0.0
O48 O 0.25076 0.9811 0.65339 0.0
C49 C 0.19269 0.90243 0.6366 0.0
O50 O 0.15976 0.0063 0.58526 0.0
O51 O 0.10935 0.99217 0.62061 0.0
In52 In 0.98301 0.31993 0.86086 0.0
O53 O 0.91172 0.32439 0.845 0.0
O54 O 0.92782 0.28403 0.88725 0.0
C55 C 0.0224 0.3516 0.80497 0.0
C56 C 0.99077 0.38061 0.91043 0.0
C57 C 0.01746 0.23937 0.8535 0.0
O58 O 0.98121 0.34995 0.80765 0.0
O59 O 0.04304 0.33914 0.83077 0.0
O60 O 0.03525 0.26795 0.87223 0.0
O61 O 0.98209 0.25118 0.8399 0.0
C62 C 0.89849 0.29842 0.86772 0.0
O63 O 0.00582 0.34225 0.91358 0.0
O64 O 0.97289 0.38814 0.88238 0.0
In65 In 0.67171 0.49026 0.36266 0.0
O66 O 0.67372 0.42152 0.34086 0.0
O67 O 0.69774 0.43131 0.39097 0.0
C68 C 0.64286 0.53175 0.30688 0.0
C69 C 0.60815 0.49732 0.4101 0.0
C70 C 0.7537 0.52284 0.35989 0.0
O71 O 0.64067 0.4906 0.30981 0.0
O72 O 0.65794 0.55148 0.33232 0.0
O73 O 0.72343 0.54236 0.37579 0.0
O74 O 0.74281 0.48664 0.34709 0.0
C75 C 0.69103 0.40488 0.36688 0.0
O76 O 0.64655 0.51135 0.41509 0.0
O77 O 0.602 0.48086 0.38127 0.0
In78 In 0.50317 0.17095 0.86089 0.0
O79 O 0.48389 0.15295 0.91544 0.0
O80 O 0.51358 0.10429 0.88438 0.0
C81 C 0.45725 0.24624 0.85502 0.0
C82 C 0.58798 0.19195 0.86699 0.0
C83 C 0.47367 0.13294 0.80369 0.0
O84 O 0.43946 0.21114 0.86499 0.0
O85 O 0.49779 0.24339 0.84984 0.0
O86 O 0.5047 0.16026 0.80336 0.0
O87 O 0.45846 0.12455 0.8326 0.0
C88 C 0.49759 0.11395 0.91282 0.0
O89 O 0.5748 0.16441 0.84535 0.0
O90 O 0.55853 0.20801 0.88569 0.0
In91 In 0.8257 0.011 0.36013 0.0
O92 O 0.82378 0.07997 0.33879 0.0
O93 O 0.7997 0.06975 0.38888 0.0
C94 C 0.85572 0.96841 0.30497 0.0
C95 C 0.88833 0.00356 0.40795 0.0
C96 C 0.74346 0.97936 0.35695 0.0
O97 O 0.85853 0.00956 0.30777 0.0
O98 O 0.83935 0.94927 0.3302 0.0
O99 O 0.7729 0.96043 0.37401 0.0
O100 O 0.75534 0.01446 0.34295 0.0
C101 C 0.80645 0.09638 0.365 0.0
O102 O 0.84993 0.98917 0.4124 0.0
O103 O 0.89499 0.02064 0.37942 0.0
H104 H 0.9485 0.45892 0.91201 0.0
H105 H 0.03608 0.37764 0.97013 0.0
H106 H 0.94856 0.51349 0.95681 0.0
H107 H 0.03777 0.43325 0.01464 0.0
H108 H -0.00305 0.52078 0.1026 0.0
H109 H 0.99513 0.46537 0.05817 0.0
H110 H 0.99181 0.56766 0.98269 0.0
H111 H 0.99177 0.62286 0.02729 0.0
C112 C 0.96819 0.45294 0.93428 0.0
C113 C 0.99233 0.414 0.93755 0.0
C114 C 0.96845 0.48442 0.95995 0.0
C115 C 0.99328 0.47803 0.98943 0.0
C116 C 0.01771 0.43907 0.99257 0.0
C117 C 0.01705 0.40729 0.96697 0.0
C118 C 0.99553 0.53135 0.07649 0.0
C119 C 0.99432 0.57614 0.06841 0.0
C120 C 0.9949 0.49958 0.05097 0.0
C121 C 0.99351 0.51187 0.01671 0.0
C122 C 0.99217 0.55683 0.00874 0.0
C123 C 0.99232 0.58857 0.0343 0.0
H124 H 0.46029 0.49374 0.59855 0.0
H125 H 0.36097 0.49299 0.52108 0.0
H126 H 0.51717 0.49447 0.5553 0.0
H127 H 0.41768 0.4957 0.47766 0.0
H128 H 0.52917 0.45636 0.40776 0.0
H129 H 0.47265 0.45439 0.45106 0.0
H130 H 0.55107 0.53925 0.51433 0.0
H131 H 0.60859 0.53948 0.47133 0.0
C132 C 0.45064 0.49388 0.57221 0.0
C133 C 0.40619 0.49314 0.56318 0.0
C134 C 0.48326 0.49472 0.54736 0.0
C135 C 0.47222 0.49538 0.51284 0.0
C136 C 0.42759 0.49451 0.50391 0.0
C137 C 0.39498 0.49313 0.52879 0.0
C138 C 0.53431 0.47469 0.4309 0.0
C139 C 0.57334 0.49808 0.43616 0.0
C140 C 0.50171 0.47379 0.45571 0.0
C141 C 0.50704 0.49671 0.48632 0.0
C142 C 0.54602 0.52057 0.49137 0.0
C143 C 0.5789 0.52104 0.46663 0.0
H144 H 0.54517 0.88857 0.04168 0.0
H145 H 0.44728 0.96268 0.09604 0.0
H146 H 0.54692 0.94465 0.99788 0.0
H147 H 0.44721 0.01771 0.05159 0.0
H148 H 0.48474 0.12914 0.98045 0.0
H149 H 0.48598 0.07533 0.02613 0.0
H150 H 0.50603 0.97188 0.95278 0.0
H151 H 0.50692 0.02581 0.90774 0.0
C152 C 0.52385 0.91677 0.04413 0.0
C153 C 0.49612 0.92125 0.07224 0.0
C154 C 0.52454 0.94883 0.0189 0.0
C155 C 0.49697 0.9858 0.02093 0.0
C156 C 0.46942 0.99021 0.04929 0.0
C157 C 0.46922 0.95847 0.07472 0.0
C158 C 0.48935 0.09486 0.97424 0.0
C159 C 0.49589 0.08168 0.9406 0.0
C160 C 0.48989 0.06391 1.00037 0.0
C161 C 0.49637 0.01906 0.99331 0.0
C162 C 0.50204 0.00608 0.95944 0.0
C163 C 0.50215 0.03701 0.93349 0.0
H164 H 0.88628 0.96079 0.46872 0.0
H165 H 0.96753 0.0443 0.40682 0.0
H166 H 0.94262 0.96052 0.51241 0.0
H167 H 0.02298 0.04566 0.45083 0.0
H168 H 0.13246 0.00442 0.52226 0.0
H169 H 0.07706 0.00336 0.47794 0.0
H170 H 0.97519 0.00558 0.55404 0.0
H171 H 0.03066 0.0048 0.59816 0.0
C172 C 0.91612 0.9792 0.46453 0.0
C173 C 0.92254 0.00245 0.43434 0.0
C174 C 0.94832 0.97938 0.48967 0.0
C175 C 0.98746 0.00321 0.4853 0.0
C176 C 0.99371 0.02635 0.45495 0.0
C177 C 0.96176 0.02578 0.42974 0.0
C178 C 0.09821 0.00493 0.52943 0.0
C179 C 0.08589 0.00466 0.56364 0.0
C180 C 0.06638 0.00447 0.50404 0.0
C181 C 0.02147 0.00419 0.5123 0.0
C182 C 0.00934 0.00484 0.54664 0.0
C183 C 0.04115 0.00483 0.57198 0.0
H184 H 0.13802 0.72429 0.08817 0.0
H185 H 0.15563 0.67786 0.19038 0.0
H186 H 0.21255 0.75273 0.08803 0.0
H187 H 0.23063 0.70564 0.19003 0.0
H188 H 0.34014 0.80815 0.19125 0.0
H189 H 0.26629 0.77769 0.19015 0.0
H190 H 0.28894 0.72926 0.08887 0.0
H191 H 0.36247 0.76042 0.08975 0.0
C192 C 0.15804 0.71965 0.11045 0.0
C193 C 0.14103 0.69899 0.13934 0.0
C194 C 0.20078 0.73583 0.11033 0.0
C195 C 0.22734 0.73169 0.1391 0.0
C196 C 0.21066 0.70995 0.16768 0.0
C197 C 0.1679 0.69372 0.16779 0.0
C198 C 0.3292 0.79127 0.16868 0.0
C199 C 0.35697 0.78672 0.14056 0.0
C200 C 0.28709 0.77347 0.16817 0.0
C201 C 0.27194 0.75081 0.13951 0.0
C202 C 0.29956 0.74685 0.11121 0.0
C203 C 0.34167 0.76462 0.11174 0.0
H204 H 0.25267 0.63203 0.58467 0.0
H205 H 0.30476 0.64971 0.68526 0.0
H206 H 0.22646 0.70734 0.58492 0.0
H207 H 0.27928 0.72561 0.68525 0.0
H208 H 0.18517 0.84237 0.68741 0.0
H209 H 0.21012 0.76632 0.68687 0.0
H210 H 0.25407 0.78177 0.58364 0.0
H211 H 0.22835 0.85728 0.58396 0.0
C212 C 0.25893 0.65219 0.60671 0.0
C213 C 0.28079 0.63504 0.63495 0.0
C214 C 0.24401 0.69538 0.60681 0.0
C215 C 0.25067 0.72239 0.63514 0.0
C216 C 0.27309 0.70539 0.66324 0.0
C217 C 0.28802 0.6621 0.66314 0.0
C218 C 0.19979 0.82932 0.66453 0.0
C219 C 0.20475 0.85567 0.63571 0.0
C220 C 0.21444 0.78594 0.66432 0.0
C221 C 0.23429 0.76813 0.63528 0.0
C222 C 0.23852 0.79437 0.6063 0.0
C223 C 0.22388 0.83767 0.60651 0.0
H224 H 0.61842 0.26695 0.89542 0.0
H225 H 0.66061 0.1498 0.84318 0.0
H226 H 0.69406 0.29324 0.89674 0.0
H227 H 0.7366 0.1758 0.84539 0.0
H228 H 0.86793 0.22428 0.89754 0.0
H229 H 0.79237 0.19738 0.89832 0.0
H230 H 0.75052 0.31249 0.84406 0.0
H231 H 0.82627 0.33898 0.8424 0.0
C232 C 0.64394 0.24665 0.88455 0.0
C233 C 0.63384 0.20638 0.86917 0.0
C234 C 0.68702 0.26179 0.8852 0.0
C235 C 0.72075 0.23644 0.87116 0.0
C236 C 0.71092 0.19571 0.85647 0.0
C237 C 0.66763 0.18098 0.85513 0.0
C238 C 0.84253 0.24392 0.88595 0.0
C239 C 0.85274 0.28369 0.86992 0.0
C240 C 0.79953 0.22842 0.88625 0.0
C241 C 0.76604 0.25296 0.87122 0.0
C242 C 0.776 0.29318 0.85588 0.0
C243 C 0.81916 0.30822 0.85489 0.0
H244 H 0.73168 0.36304 0.41891 0.0
H245 H 0.68388 0.34325 0.31727 0.0
H246 H 0.76105 0.2887 0.41914 0.0
H247 H 0.71259 0.26867 0.31771 0.0
H248 H 0.81336 0.15856 0.31589 0.0
H249 H 0.78475 0.23318 0.31727 0.0
H250 H 0.7369 0.21204 0.41884 0.0
H251 H 0.76616 0.13769 0.41767 0.0
C252 C 0.72704 0.34262 0.39677 0.0
C253 C 0.70559 0.35889 0.36804 0.0
C254 C 0.74376 0.30005 0.39694 0.0
C255 C 0.73938 0.273 0.36836 0.0
C256 C 0.7171 0.28904 0.3399 0.0
C257 C 0.70035 0.33157 0.33974 0.0
C258 C 0.79705 0.17001 0.33859 0.0
C259 C 0.79194 0.14237 0.36666 0.0
C260 C 0.78036 0.21257 0.33929 0.0
C261 C 0.75828 0.22831 0.36807 0.0
C262 C 0.75404 0.20093 0.39641 0.0
C263 C 0.77069 0.15835 0.39569 0.0
H264 H 0.7736 0.61012 0.36004 0.0
H265 H 0.82738 0.48259 0.33723 0.0
H266 H 0.83342 0.64452 0.32856 0.0
H267 H 0.88682 0.51677 0.30577 0.0
H268 H 0.99443 0.59139 0.25266 0.0
H269 H 0.95155 0.56711 0.30174 0.0
H270 H 0.84068 0.64136 0.26574 0.0
H271 H 0.88311 0.66533 0.21715 0.0
C272 C 0.79907 0.58955 0.34942 0.0
C273 C 0.79559 0.54372 0.35062 0.0
C274 C 0.8331 0.60919 0.33118 0.0
C275 C 0.86432 0.58327 0.31419 0.0
C276 C 0.86336 0.53764 0.31859 0.0
C277 C 0.82919 0.51804 0.33653 0.0
C278 C 0.96105 0.6028 0.25555 0.0
C279 C 0.94188 0.62974 0.23091 0.0
C280 C 0.93659 0.58901 0.2836 0.0
C281 C 0.89285 0.60255 0.28769 0.0
C282 C 0.87449 0.63095 0.26368 0.0
C283 C 0.89865 0.64422 0.23557 0.0
H284 H 0.3234 0.37001 0.70191 0.0
H285 H 0.37579 0.48527 0.75081 0.0
H286 H 0.34537 0.32552 0.74977 0.0
H287 H 0.39772 0.4404 0.79929 0.0
H288 H 0.48976 0.32679 0.84029 0.0
H289 H 0.45411 0.38335 0.80699 0.0
H290 H 0.3332 0.30997 0.81007 0.0
H291 H 0.36927 0.2528 0.84314 0.0
C292 C 0.33934 0.38592 0.72307 0.0
C293 C 0.34839 0.43103 0.72244 0.0
C294 C 0.35142 0.36047 0.75075 0.0
C295 C 0.37306 0.37944 0.77847 0.0
C296 C 0.38118 0.42485 0.77825 0.0
C297 C 0.36872 0.45049 0.75053 0.0
C298 C 0.4552 0.32334 0.83473 0.0
C299 C 0.43244 0.28508 0.84382 0.0
C300 C 0.4347 0.3559 0.81574 0.0
C301 C 0.39106 0.35075 0.80536 0.0
C302 C 0.36713 0.31442 0.81721 0.0
C303 C 0.38764 0.28188 0.83639 0.0
H304 H 0.50107 0.90835 0.25326 0.0
H305 H 0.61164 0.83179 0.21913 0.0
H306 H 0.54442 0.93474 0.30143 0.0
H307 H 0.65443 0.85766 0.26687 0.0
H308 H 0.72166 0.89267 0.36023 0.0
H309 H 0.66106 0.85753 0.33024 0.0
H310 H 0.61063 0.98472 0.30269 0.0
H311 H 0.67094 0.01967 0.33258 0.0
C312 C 0.53435 0.89677 0.25631 0.0
C313 C 0.55324 0.86854 0.23229 0.0
C314 C 0.55905 0.91175 0.28383 0.0
C315 C 0.60269 0.89802 0.28802 0.0
C316 C 0.6207 0.86827 0.2647 0.0
C317 C 0.59635 0.85389 0.23708 0.0
C318 C 0.6967 0.91306 0.34887 0.0
C319 C 0.70125 0.95882 0.34826 0.0
C320 C 0.66221 0.89298 0.33152 0.0
C321 C 0.63157 0.91842 0.31369 0.0
C322 C 0.63362 0.96426 0.31625 0.0
C323 C 0.66829 0.98428 0.33325 0.0
H324 H 0.10449 0.21918 0.85714 0.0
H325 H 0.97943 0.16784 0.82527 0.0
H326 H 0.14161 0.16041 0.82614 0.0
H327 H 0.01631 0.10946 0.79434 0.0
H328 H 0.09434 0.00171 0.74508 0.0
H329 H 0.06583 0.04404 0.7931 0.0
H330 H 0.14569 0.15425 0.76317 0.0
H331 H 0.17392 0.1123 0.71557 0.0
C332 C 0.08494 0.1945 0.8445 0.0
C333 C 0.03917 0.1983 0.84319 0.0
C334 C 0.10615 0.16109 0.82657 0.0
C335 C 0.08186 0.13075 0.80742 0.0
C336 C 0.03594 0.13218 0.80894 0.0
C337 C 0.01481 0.16577 0.82653 0.0
C338 C 0.10613 0.03478 0.74913 0.0
C339 C 0.13588 0.05395 0.72641 0.0
C340 C 0.08989 0.05894 0.77656 0.0
C341 C 0.10365 0.10239 0.78196 0.0
C342 C 0.13494 0.12066 0.76005 0.0
C343 C 0.15073 0.09678 0.73252 0.0
H344 H 0.9899 0.39817 0.75128 0.0
H345 H 0.10653 0.33432 0.78822 0.0
H346 H 0.03044 0.42239 0.70089 0.0
H347 H 0.14643 0.35775 0.73818 0.0
H348 H 0.20784 0.38334 0.64094 0.0
H349 H 0.14944 0.34908 0.67403 0.0
H350 H 0.09483 0.47662 0.69556 0.0
H351 H 0.15314 0.5108 0.66269 0.0
C352 C 0.02395 0.38896 0.74843 0.0
C353 C 0.04528 0.36489 0.77377 0.0
C354 C 0.04702 0.40263 0.71964 0.0
C355 C 0.0914 0.39152 0.71549 0.0
C356 C 0.11206 0.36612 0.74036 0.0
C357 C 0.08936 0.35321 0.76924 0.0
C358 C 0.18233 0.40387 0.65155 0.0
C359 C 0.18528 0.44971 0.64972 0.0
C360 C 0.14912 0.38431 0.67068 0.0
C361 C 0.11813 0.41031 0.68779 0.0
C362 C 0.11821 0.45579 0.68261 0.0
C363 C 0.15168 0.47536 0.66387 0.0
H364 H 0.59311 0.50195 0.25394 0.0
H365 H 0.66395 0.61512 0.2902 0.0
H366 H 0.56817 0.54433 0.2049 0.0
H367 H 0.6395 0.65698 0.24157 0.0
H368 H 0.60745 0.7232 0.14742 0.0
H369 H 0.64292 0.66341 0.17809 0.0
H370 H 0.51615 0.60897 0.20228 0.0
H371 H 0.48088 0.66851 0.17177 0.0
C372 C 0.60375 0.53562 0.25119 0.0
C373 C 0.62991 0.55549 0.27604 0.0
C374 C 0.58962 0.55976 0.22316 0.0
C375 C 0.60215 0.60384 0.21931 0.0
C376 C 0.6299 0.6229 0.24349 0.0
C377 C 0.64342 0.59908 0.27161 0.0
C378 C 0.58731 0.69749 0.15815 0.0
C379 C 0.54147 0.70072 0.15771 0.0
C380 C 0.60756 0.66348 0.17589 0.0
C381 C 0.58223 0.63201 0.19303 0.0
C382 C 0.53654 0.63265 0.18928 0.0
C383 C 0.51633 0.66686 0.17192 0.0
H384 H 0.47515 0.16589 0.73926 0.0
H385 H 0.42771 0.05756 0.7991 0.0
H386 H 0.43407 0.13812 0.69028 0.0
H387 H 0.38755 0.02978 0.75062 0.0
H388 H 0.33504 0.97157 0.66025 0.0
H389 H 0.39759 -0.0011 0.69207 0.0
H390 H 0.35053 0.13134 0.67998 0.0
H391 H 0.28798 0.10394 0.64765 0.0
C392 C 0.45678 0.13569 0.74167 0.0
C393 C 0.4544 0.11385 0.77289 0.0
C394 C 0.43323 0.11997 0.71377 0.0
C395 C 0.40789 0.08168 0.71659 0.0
C396 C 0.40734 0.05896 0.74747 0.0
C397 C 0.43008 0.07502 0.77533 0.0
C398 C 0.33885 0.00665 0.66335 0.0
C399 C 0.30633 0.03561 0.65204 0.0
C400 C 0.37458 0.02225 0.68165 0.0
C401 C 0.37834 0.06709 0.6891 0.0
C402 C 0.34845 0.09659 0.67457 0.0
C403 C 0.31263 0.08092 0.65607 0.0
H404 H 0.01856 0.82566 0.1721 0.0
H405 H 0.89083 0.77558 0.14576 0.0
H406 H 0.98451 0.886 0.20281 0.0
H407 H 0.85665 0.83619 0.17656 0.0
H408 H 0.83299 0.88554 0.28802 0.0
H409 H 0.85824 0.8425 0.24005 0.0
H410 H 0.9346 0.95255 0.20482 0.0
H411 H 0.9088 0.99616 0.25319 0.0
C412 C 0.98319 0.82844 0.1719 0.0
C413 C 0.95729 0.79563 0.15702 0.0
C414 C 0.96369 0.86313 0.18938 0.0
C415 C 0.91795 0.86535 0.19253 0.0
C416 C 0.89204 0.83489 0.17484 0.0
C417 C 0.91158 0.80039 0.15704 0.0
C418 C 0.85482 0.90077 0.26989 0.0
C419 C 0.86938 0.944 0.27451 0.0
C420 C 0.86884 0.87628 0.24215 0.0
C421 C 0.89817 0.89426 0.21855 0.0
C422 C 0.91192 0.93795 0.22263 0.0
C423 C 0.89728 0.9628 0.25026 0.0
loop_
_geom_bond_atom_site_label_1
_geom_bond_atom_site_label_2
_geom_bond_distance
_geom_bond_site_symmetry_2
_ccdc_geom_bond_type
In0 O1 2.293 1_455 S
In0 O2 2.327 . S
In0 O6 2.264 1_455 S
In0 O7 2.325 1_455 S
In0 O8 2.266 1_455 S
In0 O9 2.323 1_455 S
In0 O11 2.297 . S
In0 O12 2.329 . S
O1 In0 2.293 1_655 S
O1 C10 1.240 1_655 S
O2 In0 2.327 . S
O2 C10 1.252 . S
C3 O6 1.252 . S
C3 O7 1.260 . S
C4 O11 1.240 . S
C4 O12 1.252 . S
C5 O8 1.252 . S
C5 O9 1.260 . S
O6 In0 2.264 1_655 S
O6 C3 1.252 . S
O7 In0 2.325 1_655 S
O7 C3 1.260 . S
O8 In0 2.266 1_655 S
O8 C5 1.252 . S
O9 In0 2.323 1_655 S
O9 C5 1.260 . S
C10 O1 1.240 1_455 S
C10 O2 1.252 . S
O11 In0 2.297 . S
O11 C4 1.240 . S
O12 In0 2.329 . S
O12 C4 1.252 . S
In13 O14 2.294 . S
In13 O15 2.326 . S
In13 O19 2.266 . S
In13 O20 2.326 . S
In13 O21 2.266 . S
In13 O22 2.326 . S
In13 O24 2.294 . S
In13 O25 2.326 . S
O14 In13 2.294 . S
O14 C23 1.240 . S
O15 In13 2.326 . S
O15 C23 1.252 . S
C16 O19 1.252 . S
C16 O20 1.260 . S
C17 O24 1.240 . S
C17 O25 1.252 . S
C18 O21 1.252 . S
C18 O22 1.260 . S
O19 In13 2.266 . S
O19 C16 1.252 . S
O20 In13 2.326 . S
O20 C16 1.260 . S
O21 In13 2.266 . S
O21 C18 1.252 . S
O22 In13 2.326 . S
O22 C18 1.260 . S
C23 O14 1.240 . S
C23 O15 1.252 . S
O24 In13 2.294 . S
O24 C17 1.240 . S
O25 In13 2.326 . S
O25 C17 1.252 . S
In26 O27 2.294 . S
In26 O28 2.326 . S
In26 O32 2.266 . S
In26 O33 2.326 . S
In26 O34 2.266 . S
In26 O35 2.326 . S
In26 O37 2.294 . S
In26 O38 2.326 . S
O27 In26 2.294 . S
O27 C36 1.240 . S
O28 In26 2.326 . S
O28 C36 1.252 . S
C29 O32 1.252 . S
C29 O33 1.260 . S
C30 O37 1.240 . S
C30 O38 1.252 . S
C31 O34 1.252 . S
C31 O35 1.260 . S
O32 In26 2.266 . S
O32 C29 1.252 . S
O33 In26 2.326 . S
O33 C29 1.260 . S
O34 In26 2.266 . S
O34 C31 1.252 . S
O35 In26 2.326 . S
O35 C31 1.260 . S
C36 O27 1.240 . S
C36 O28 1.252 . S
O37 In26 2.294 . S
O37 C30 1.240 . S
O38 In26 2.326 . S
O38 C30 1.252 . S
In39 O40 2.297 . S
In39 O41 2.329 . S
In39 O45 2.266 1_565 S
In39 O46 2.323 1_565 S
In39 O47 2.264 1_565 S
In39 O48 2.325 1_565 S
In39 O50 2.293 1_565 S
In39 O51 2.327 . S
O40 In39 2.297 . S
O40 C49 1.240 . S
O41 In39 2.329 . S
O41 C49 1.252 . S
C42 O45 1.252 . S
C42 O46 1.260 . S
C43 O50 1.240 1_565 S
C43 O51 1.252 . S
C44 O47 1.252 . S
C44 O48 1.260 . S
O45 In39 2.266 1_545 S
O45 C42 1.252 . S
O46 In39 2.323 1_545 S
O46 C42 1.260 . S
O47 In39 2.264 1_545 S
O47 C44 1.252 . S
O48 In39 2.325 1_545 S
O48 C44 1.260 . S
C49 O40 1.240 . S
C49 O41 1.252 . S
O50 In39 2.293 1_545 S
O50 C43 1.240 1_545 S
O51 In39 2.327 . S
O51 C43 1.252 . S
In52 O53 2.297 . S
In52 O54 2.329 . S
In52 O58 2.266 1_655 S
In52 O59 2.323 1_655 S
In52 O60 2.264 1_655 S
In52 O61 2.325 1_655 S
In52 O63 2.293 1_655 S
In52 O64 2.327 . S
O53 In52 2.297 . S
O53 C62 1.240 . S
O54 In52 2.329 . S
O54 C62 1.252 . S
C55 O58 1.252 . S
C55 O59 1.260 . S
C56 O63 1.240 1_655 S
C56 O64 1.252 . S
C57 O60 1.252 . S
C57 O61 1.260 . S
O58 In52 2.266 1_455 S
O58 C55 1.252 . S
O59 In52 2.323 1_455 S
O59 C55 1.260 . S
O60 In52 2.264 1_455 S
O60 C57 1.252 . S
O61 In52 2.325 1_455 S
O61 C57 1.260 . S
C62 O53 1.240 . S
C62 O54 1.252 . S
O63 In52 2.293 1_455 S
O63 C56 1.240 1_455 S
O64 In52 2.327 . S
O64 C56 1.252 . S
In65 O66 2.294 . S
In65 O67 2.326 . S
In65 O71 2.266 . S
In65 O72 2.326 . S
In65 O73 2.266 . S
In65 O74 2.326 . S
In65 O76 2.294 . S
In65 O77 2.326 . S
O66 In65 2.294 . S
O66 C75 1.240 . S
O67 In65 2.326 . S
O67 C75 1.252 . S
C68 O71 1.252 . S
C68 O72 1.260 . S
C69 O76 1.240 . S
C69 O77 1.252 . S
C70 O73 1.252 . S
C70 O74 1.260 . S
O71 In65 2.266 . S
O71 C68 1.252 . S
O72 In65 2.326 . S
O72 C68 1.260 . S
O73 In65 2.266 . S
O73 C70 1.252 . S
O74 In65 2.326 . S
O74 C70 1.260 . S
C75 O66 1.240 . S
C75 O67 1.252 . S
O76 In65 2.294 . S
O76 C69 1.240 . S
O77 In65 2.326 . S
O77 C69 1.252 . S
In78 O79 2.294 . S
In78 O80 2.326 . S
In78 O84 2.266 . S
In78 O85 2.326 . S
In78 O86 2.266 . S
In78 O87 2.326 . S
In78 O89 2.294 . S
In78 O90 2.326 . S
O79 In78 2.294 . S
O79 C88 1.240 . S
O80 In78 2.326 . S
O80 C88 1.252 . S
C81 O84 1.252 . S
C81 O85 1.260 . S
C82 O89 1.240 . S
C82 O90 1.252 . S
C83 O86 1.252 . S
C83 O87 1.260 . S
O84 In78 2.266 . S
O84 C81 1.252 . S
O85 In78 2.326 . S
O85 C81 1.260 . S
O86 In78 2.266 . S
O86 C83 1.252 . S
O87 In78 2.326 . S
O87 C83 1.260 . S
C88 O79 1.240 . S
C88 O80 1.252 . S
O89 In78 2.294 . S
O89 C82 1.240 . S
O90 In78 2.326 . S
O90 C82 1.252 . S
In91 O92 2.297 . S
In91 O93 2.329 . S
In91 O97 2.266 1_545 S
In91 O98 2.323 1_545 S
In91 O99 2.264 1_545 S
In91 O100 2.325 1_545 S
In91 O102 2.293 1_545 S
In91 O103 2.327 . S
O92 In91 2.297 . S
O92 C101 1.240 . S
O93 In91 2.329 . S
O93 C101 1.252 . S
C94 O97 1.252 . S
C94 O98 1.260 . S
C95 O102 1.240 1_545 S
C95 O103 1.252 . S
C96 O99 1.252 . S
C96 O100 1.260 . S
O97 In91 2.266 1_565 S
O97 C94 1.252 . S
O98 In91 2.323 1_565 S
O98 C94 1.260 . S
O99 In91 2.264 1_565 S
O99 C96 1.252 . S
O100 In91 2.325 1_565 S
O100 C96 1.260 . S
C101 O92 1.240 . S
C101 O93 1.252 . S
O102 In91 2.293 1_565 S
O102 C95 1.240 1_565 S
O103 In91 2.327 . S
O103 C95 1.252 . S
H104 C112 0.950 . S
H105 C117 0.950 . S
H106 C114 0.950 . S
H107 C116 0.950 1_554 S
H108 C118 0.950 . S
H109 C120 0.950 . S
H110 C122 0.950 1_556 S
H111 C123 0.950 . S
C112 H104 0.950 . S
C112 C113 1.386 . S
C112 C114 1.391 . S
C113 C112 1.386 . S
C113 C117 1.393 1_655 S
C114 H106 0.950 . S
C114 C112 1.391 . S
C114 C115 1.420 . S
C115 C114 1.420 . S
C115 C116 1.380 1_655 S
C115 C121 1.490 1_656 S
C116 H107 0.950 1_556 S
C116 C115 1.380 1_455 S
C116 C117 1.391 . S
C117 H105 0.950 . S
C117 C113 1.393 1_455 S
C117 C116 1.391 . S
C118 H108 0.950 . S
C118 C119 1.386 . S
C118 C120 1.391 . S
C119 C118 1.386 . S
C119 C123 1.393 1_455 S
C120 H109 0.950 . S
C120 C118 1.391 . S
C120 C121 1.415 . S
C121 C115 1.490 1_454 S
C121 C120 1.415 . S
C121 C122 1.384 1_455 S
C122 H110 0.950 1_554 S
C122 C121 1.384 1_655 S
C122 C123 1.391 . S
C123 H111 0.950 . S
C123 C119 1.393 1_655 S
C123 C122 1.391 . S
H124 C132 0.950 . S
H125 C137 0.950 . S
H126 C134 0.950 . S
H127 C136 0.950 . S
H128 C138 0.950 . S
H129 C140 0.950 . S
H130 C142 0.950 . S
H131 C143 0.950 . S
C132 H124 0.950 . S
C132 C133 1.386 . S
C132 C134 1.391 . S
C133 C132 1.386 . S
C133 C137 1.393 . S
C134 H126 0.950 . S
C134 C132 1.391 . S
C134 C135 1.400 . S
C135 C134 1.400 . S
C135 C136 1.398 . S
C135 C141 1.491 . S
C136 H127 0.950 . S
C136 C135 1.398 . S
C136 C137 1.391 . S
C137 H125 0.950 . S
C137 C133 1.393 . S
C137 C136 1.391 . S
C138 H128 0.950 . S
C138 C139 1.386 . S
C138 C140 1.391 . S
C139 C138 1.386 . S
C139 C143 1.393 . S
C140 H129 0.950 . S
C140 C138 1.391 . S
C140 C141 1.400 . S
C141 C135 1.491 . S
C141 C140 1.400 . S
C141 C142 1.398 . S
C142 H130 0.950 . S
C142 C141 1.398 . S
C142 C143 1.391 . S
C143 H131 0.950 . S
C143 C139 1.393 . S
C143 C142 1.391 . S
H144 C152 0.950 . S
H145 C157 0.950 . S
H146 C154 0.950 . S
H147 C156 0.950 . S
H148 C158 0.950 . S
H149 C160 0.950 . S
H150 C162 0.950 . S
H151 C163 0.950 . S
C152 H144 0.950 . S
C152 C153 1.386 . S
C152 C154 1.391 . S
C153 C152 1.386 . S
C153 C157 1.393 . S
C154 H146 0.950 . S
C154 C152 1.391 . S
C154 C155 1.400 . S
C155 C154 1.400 . S
C155 C156 1.398 . S
C155 C161 1.491 1_564 S
C156 H147 0.950 . S
C156 C155 1.398 . S
C156 C157 1.391 . S
C157 H145 0.950 . S
C157 C153 1.393 . S
C157 C156 1.391 . S
C158 H148 0.950 . S
C158 C159 1.386 . S
C158 C160 1.391 . S
C159 C158 1.386 . S
C159 C163 1.393 . S
C160 H149 0.950 . S
C160 C158 1.391 . S
C160 C161 1.400 . S
C161 C155 1.491 1_546 S
C161 C160 1.400 . S
C161 C162 1.398 . S
C162 H150 0.950 . S
C162 C161 1.398 . S
C162 C163 1.391 . S
C163 H151 0.950 . S
C163 C159 1.393 . S
C163 C162 1.391 . S
H164 C172 0.950 . S
H165 C177 0.950 . S
H166 C174 0.950 . S
H167 C176 0.950 1_455 S
H168 C178 0.950 . S
H169 C180 0.950 . S
H170 C182 0.950 1_655 S
H171 C183 0.950 . S
C172 H164 0.950 . S
C172 C173 1.386 1_565 S
C172 C174 1.391 . S
C173 C172 1.386 1_545 S
C173 C177 1.393 . S
C174 H166 0.950 . S
C174 C172 1.391 . S
C174 C175 1.400 . S
C175 C174 1.400 . S
C175 C176 1.398 1_565 S
C175 C181 1.491 1_665 S
C176 H167 0.950 1_655 S
C176 C175 1.398 1_545 S
C176 C177 1.391 . S
C177 H165 0.950 . S
C177 C173 1.393 . S
C177 C176 1.391 . S
C178 H168 0.950 . S
C178 C179 1.386 1_545 S
C178 C180 1.391 . S
C179 C178 1.386 1_565 S
C179 C183 1.393 . S
C180 H169 0.950 . S
C180 C178 1.391 . S
C180 C181 1.402 . S
C181 C175 1.491 1_445 S
C181 C180 1.402 . S
C181 C182 1.396 1_545 S
C182 H170 0.950 1_455 S
C182 C181 1.396 1_565 S
C182 C183 1.391 . S
C183 H171 0.950 . S
C183 C179 1.393 . S
C183 C182 1.391 . S
H184 C192 0.950 . S
H185 C197 0.950 . S
H186 C194 0.950 . S
H187 C196 0.950 . S
H188 C198 0.950 . S
H189 C200 0.950 . S
H190 C202 0.950 . S
H191 C203 0.950 . S
C192 H184 0.950 . S
C192 C193 1.386 . S
C192 C194 1.391 . S
C193 C192 1.386 . S
C193 C197 1.393 . S
C194 H186 0.950 . S
C194 C192 1.391 . S
C194 C195 1.400 . S
C195 C194 1.400 . S
C195 C196 1.398 . S
C195 C201 1.491 . S
C196 H187 0.950 . S
C196 C195 1.398 . S
C196 C197 1.391 . S
C197 H185 0.950 . S
C197 C193 1.393 . S
C197 C196 1.391 . S
C198 H188 0.950 . S
C198 C199 1.386 . S
C198 C200 1.391 . S
C199 C198 1.386 . S
C199 C203 1.393 . S
C200 H189 0.950 . S
C200 C198 1.391 . S
C200 C201 1.400 . S
C201 C195 1.491 . S
C201 C200 1.400 . S
C201 C202 1.398 . S
C202 H190 0.950 . S
C202 C201 1.398 . S
C202 C203 1.391 . S
C203 H191 0.950 . S
C203 C199 1.393 . S
C203 C202 1.391 . S
H204 C212 0.950 . S
H205 C217 0.950 . S
H206 C214 0.950 . S
H207 C216 0.950 . S
H208 C218 0.950 . S
H209 C220 0.950 . S
H210 C222 0.950 . S
H211 C223 0.950 . S
C212 H204 0.950 . S
C212 C213 1.386 . S
C212 C214 1.391 . S
C213 C212 1.386 . S
C213 C217 1.393 . S
C214 H206 0.950 . S
C214 C212 1.391 . S
C214 C215 1.400 . S
C215 C214 1.400 . S
C215 C216 1.398 . S
C215 C221 1.491 . S
C216 H207 0.950 . S
C216 C215 1.398 . S
C216 C217 1.391 . S
C217 H205 0.950 . S
C217 C213 1.393 . S
C217 C216 1.391 . S
C218 H208 0.950 . S
C218 C219 1.386 . S
C218 C220 1.391 . S
C219 C218 1.386 . S
C219 C223 1.393 . S
C220 H209 0.950 . S
C220 C218 1.391 . S
C220 C221 1.400 . S
C221 C215 1.491 . S
C221 C220 1.400 . S
C221 C222 1.398 . S
C222 H210 0.950 . S
C222 C221 1.398 . S
C222 C223 1.391 . S
C223 H211 0.950 . S
C223 C219 1.393 . S
C223 C222 1.391 . S
H224 C232 0.950 . S
H225 C237 0.950 . S
H226 C234 0.950 . S
H227 C236 0.950 . S
H228 C238 0.950 . S
H229 C240 0.950 . S
H230 C242 0.950 . S
H231 C243 0.950 . S
C232 H224 0.950 . S
C232 C233 1.386 . S
C232 C234 1.391 . S
C233 C232 1.386 . S
C233 C237 1.393 . S
C234 H226 0.950 . S
C234 C232 1.391 . S
C234 C235 1.400 . S
C235 C234 1.400 . S
C235 C236 1.398 . S
C235 C241 1.491 . S
C236 H227 0.950 . S
C236 C235 1.398 . S
C236 C237 1.391 . S
C237 H225 0.950 . S
C237 C233 1.393 . S
C237 C236 1.391 . S
C238 H228 0.950 . S
C238 C239 1.386 . S
C238 C240 1.391 . S
C239 C238 1.386 . S
C239 C243 1.393 . S
C240 H229 0.950 . S
C240 C238 1.391 . S
C240 C241 1.400 . S
C241 C235 1.491 . S
C241 C240 1.400 . S
C241 C242 1.398 . S
C242 H230 0.950 . S
C242 C241 1.398 . S
C242 C243 1.391 . S
C243 H231 0.950 . S
C243 C239 1.393 . S
C243 C242 1.391 . S
H244 C252 0.950 . S
H245 C257 0.950 . S
H246 C254 0.950 . S
H247 C256 0.950 . S
H248 C258 0.950 . S
H249 C260 0.950 . S
H250 C262 0.950 . S
H251 C263 0.950 . S
C252 H244 0.950 . S
C252 C253 1.386 . S
C252 C254 1.391 . S
C253 C252 1.386 . S
C253 C257 1.393 . S
C254 H246 0.950 . S
C254 C252 1.391 . S
C254 C255 1.400 . S
C255 C254 1.400 . S
C255 C256 1.398 . S
C255 C261 1.491 . S
C256 H247 0.950 . S
C256 C255 1.398 . S
C256 C257 1.391 . S
C257 H245 0.950 . S
C257 C253 1.393 . S
C257 C256 1.391 . S
C258 H248 0.950 . S
C258 C259 1.386 . S
C258 C260 1.391 . S
C259 C258 1.386 . S
C259 C263 1.393 . S
C260 H249 0.950 . S
C260 C258 1.391 . S
C260 C261 1.400 . S
C261 C255 1.491 . S
C261 C260 1.400 . S
C261 C262 1.398 . S
C262 H250 0.950 . S
C262 C261 1.398 . S
C262 C263 1.391 . S
C263 H251 0.950 . S
C263 C259 1.393 . S
C263 C262 1.391 . S
H264 C272 0.950 . S
H265 C277 0.950 . S
H266 C274 0.950 . S
H267 C276 0.950 . S
H268 C278 0.950 . S
H269 C280 0.950 . S
H270 C282 0.950 . S
H271 C283 0.950 . S
C272 H264 0.950 . S
C272 C273 1.386 . S
C272 C274 1.391 . S
C273 C272 1.386 . S
C273 C277 1.393 . S
C274 H266 0.950 . S
C274 C272 1.391 . S
C274 C275 1.400 . S
C275 C274 1.400 . S
C275 C276 1.398 . S
C275 C281 1.491 . S
C276 H267 0.950 . S
C276 C275 1.398 . S
C276 C277 1.391 . S
C277 H265 0.950 . S
C277 C273 1.393 . S
C277 C276 1.391 . S
C278 H268 0.950 . S
C278 C279 1.386 . S
C278 C280 1.391 . S
C279 C278 1.386 . S
C279 C283 1.393 . S
C280 H269 0.950 . S
C280 C278 1.391 . S
C280 C281 1.400 . S
C281 C275 1.491 . S
C281 C280 1.400 . S
C281 C282 1.398 . S
C282 H270 0.950 . S
C282 C281 1.398 . S
C282 C283 1.391 . S
C283 H271 0.950 . S
C283 C279 1.393 . S
C283 C282 1.391 . S
H284 C292 0.950 . S
H285 C297 0.950 . S
H286 C294 0.950 . S
H287 C296 0.950 . S
H288 C298 0.950 . S
H289 C300 0.950 . S
H290 C302 0.950 . S
H291 C303 0.950 . S
C292 H284 0.950 . S
C292 C293 1.386 . S
C292 C294 1.391 . S
C293 C292 1.386 . S
C293 C297 1.393 . S
C294 H286 0.950 . S
C294 C292 1.391 . S
C294 C295 1.400 . S
C295 C294 1.400 . S
C295 C296 1.398 . S
C295 C301 1.491 . S
C296 H287 0.950 . S
C296 C295 1.398 . S
C296 C297 1.391 . S
C297 H285 0.950 . S
C297 C293 1.393 . S
C297 C296 1.391 . S
C298 H288 0.950 . S
C298 C299 1.386 . S
C298 C300 1.391 . S
C299 C298 1.386 . S
C299 C303 1.393 . S
C300 H289 0.950 . S
C300 C298 1.391 . S
C300 C301 1.400 . S
C301 C295 1.491 . S
C301 C300 1.400 . S
C301 C302 1.398 . S
C302 H290 0.950 . S
C302 C301 1.398 . S
C302 C303 1.391 . S
C303 H291 0.950 . S
C303 C299 1.393 . S
C303 C302 1.391 . S
H304 C312 0.950 . S
H305 C317 0.950 . S
H306 C314 0.950 . S
H307 C316 0.950 . S
H308 C318 0.950 . S
H309 C320 0.950 . S
H310 C322 0.950 . S
H311 C323 0.950 . S
C312 H304 0.950 . S
C312 C313 1.386 . S
C312 C314 1.391 . S
C313 C312 1.386 . S
C313 C317 1.393 . S
C314 H306 0.950 . S
C314 C312 1.391 . S
C314 C315 1.400 . S
C315 C314 1.400 . S
C315 C316 1.398 . S
C315 C321 1.491 . S
C316 H307 0.950 . S
C316 C315 1.398 . S
C316 C317 1.391 . S
C317 H305 0.950 . S
C317 C313 1.393 . S
C317 C316 1.391 . S
C318 H308 0.950 . S
C318 C319 1.386 . S
C318 C320 1.391 . S
C319 C318 1.386 . S
C319 C323 1.393 . S
C320 H309 0.950 . S
C320 C318 1.391 . S
C320 C321 1.400 . S
C321 C315 1.491 . S
C321 C320 1.400 . S
C321 C322 1.398 . S
C322 H310 0.950 . S
C322 C321 1.398 . S
C322 C323 1.391 . S
C323 H311 0.950 . S
C323 C319 1.393 . S
C323 C322 1.391 . S
H324 C332 0.950 . S
H325 C337 0.950 . S
H326 C334 0.950 . S
H327 C336 0.950 . S
H328 C338 0.950 . S
H329 C340 0.950 . S
H330 C342 0.950 . S
H331 C343 0.950 . S
C332 H324 0.950 . S
C332 C333 1.386 . S
C332 C334 1.391 . S
C333 C332 1.386 . S
C333 C337 1.393 . S
C334 H326 0.950 . S
C334 C332 1.391 . S
C334 C335 1.400 . S
C335 C334 1.400 . S
C335 C336 1.398 . S
C335 C341 1.491 . S
C336 H327 0.950 . S
C336 C335 1.398 . S
C336 C337 1.391 . S
C337 H325 0.950 . S
C337 C333 1.393 . S
C337 C336 1.391 . S
C338 H328 0.950 . S
C338 C339 1.386 . S
C338 C340 1.391 . S
C339 C338 1.386 . S
C339 C343 1.393 . S
C340 H329 0.950 . S
C340 C338 1.391 . S
C340 C341 1.400 . S
C341 C335 1.491 . S
C341 C340 1.400 . S
C341 C342 1.398 . S
C342 H330 0.950 . S
C342 C341 1.398 . S
C342 C343 1.391 . S
C343 H331 0.950 . S
C343 C339 1.393 . S
C343 C342 1.391 . S
H344 C352 0.950 . S
H345 C357 0.950 . S
H346 C354 0.950 . S
H347 C356 0.950 . S
H348 C358 0.950 . S
H349 C360 0.950 . S
H350 C362 0.950 . S
H351 C363 0.950 . S
C352 H344 0.950 . S
C352 C353 1.386 . S
C352 C354 1.391 . S
C353 C352 1.386 . S
C353 C357 1.393 . S
C354 H346 0.950 . S
C354 C352 1.391 . S
C354 C355 1.400 . S
C355 C354 1.400 . S
C355 C356 1.398 . S
C355 C361 1.491 . S
C356 H347 0.950 . S
C356 C355 1.398 . S
C356 C357 1.391 . S
C357 H345 0.950 . S
C357 C353 1.393 . S
C357 C356 1.391 . S
C358 H348 0.950 . S
C358 C359 1.386 . S
C358 C360 1.391 . S
C359 C358 1.386 . S
C359 C363 1.393 . S
C360 H349 0.950 . S
C360 C358 1.391 . S
C360 C361 1.400 . S
C361 C355 1.491 . S
C361 C360 1.400 . S
C361 C362 1.398 . S
C362 H350 0.950 . S
C362 C361 1.398 . S
C362 C363 1.391 . S
C363 H351 0.950 . S
C363 C359 1.393 . S
C363 C362 1.391 . S
H364 C372 0.950 . S
H365 C377 0.950 . S
H366 C374 0.950 . S
H367 C376 0.950 . S
H368 C378 0.950 . S
H369 C380 0.950 . S
H370 C382 0.950 . S
H371 C383 0.950 . S
C372 H364 0.950 . S
C372 C373 1.386 . S
C372 C374 1.391 . S
C373 C372 1.386 . S
C373 C377 1.393 . S
C374 H366 0.950 . S
C374 C372 1.391 . S
C374 C375 1.400 . S
C375 C374 1.400 . S
C375 C376 1.398 . S
C375 C381 1.491 . S
C376 H367 0.950 . S
C376 C375 1.398 . S
C376 C377 1.391 . S
C377 H365 0.950 . S
C377 C373 1.393 . S
C377 C376 1.391 . S
C378 H368 0.950 . S
C378 C379 1.386 . S
C378 C380 1.391 . S
C379 C378 1.386 . S
C379 C383 1.393 . S
C380 H369 0.950 . S
C380 C378 1.391 . S
C380 C381 1.400 . S
C381 C375 1.491 . S
C381 C380 1.400 . S
C381 C382 1.398 . S
C382 H370 0.950 . S
C382 C381 1.398 . S
C382 C383 1.391 . S
C383 H371 0.950 . S
C383 C379 1.393 . S
C383 C382 1.391 . S
H384 C392 0.950 . S
H385 C397 0.950 . S
H386 C394 0.950 . S
H387 C396 0.950 . S
H388 C398 0.950 1_565 S
H389 C400 0.950 . S
H390 C402 0.950 . S
H391 C403 0.950 . S
C392 H384 0.950 . S
C392 C393 1.386 . S
C392 C394 1.391 . S
C393 C392 1.386 . S
C393 C397 1.393 . S
C394 H386 0.950 . S
C394 C392 1.391 . S
C394 C395 1.400 . S
C395 C394 1.400 . S
C395 C396 1.398 . S
C395 C401 1.491 . S
C396 H387 0.950 . S
C396 C395 1.398 . S
C396 C397 1.391 . S
C397 H385 0.950 . S
C397 C393 1.393 . S
C397 C396 1.391 . S
C398 H388 0.950 1_545 S
C398 C399 1.386 . S
C398 C400 1.391 . S
C399 C398 1.386 . S
C399 C403 1.393 . S
C400 H389 0.950 . S
C400 C398 1.391 . S
C400 C401 1.400 . S
C401 C395 1.491 . S
C401 C400 1.400 . S
C401 C402 1.398 . S
C402 H390 0.950 . S
C402 C401 1.398 . S
C402 C403 1.391 . S
C403 H391 0.950 . S
C403 C399 1.393 . S
C403 C402 1.391 . S
H404 C412 0.950 1_455 S
H405 C417 0.950 . S
H406 C414 0.950 . S
H407 C416 0.950 . S
H408 C418 0.950 . S
H409 C420 0.950 . S
H410 C422 0.950 . S
H411 C423 0.950 . S
C412 H404 0.950 1_655 S
C412 C413 1.386 . S
C412 C414 1.391 . S
C413 C412 1.386 . S
C413 C417 1.393 . S
C414 H406 0.950 . S
C414 C412 1.391 . S
C414 C415 1.400 . S
C415 C414 1.400 . S
C415 C416 1.398 . S
C415 C421 1.491 . S
C416 H407 0.950 . S
C416 C415 1.398 . S
C416 C417 1.391 . S
C417 H405 0.950 . S
C417 C413 1.393 . S
C417 C416 1.391 . S
C418 H408 0.950 . S
C418 C419 1.386 . S
C418 C420 1.391 . S
C419 C418 1.386 . S
C419 C423 1.393 . S
C420 H409 0.950 . S
C420 C418 1.391 . S
C420 C421 1.400 . S
C421 C415 1.491 . S
C421 C420 1.400 . S
C421 C422 1.398 . S
C422 H410 0.950 . S
C422 C421 1.398 . S
C422 C423 1.391 . S
C423 H411 0.950 . S
C423 C419 1.393 . S
C423 C422 1.391 . S
C113 C56 1.737 . S
C119 C10 1.737 . S
C133 C17 1.742 . S
C139 C69 1.742 . S
C153 C36 1.731 . S
C159 C88 1.731 . S
C173 C95 1.712 . S
C179 C43 1.712 . S
C193 C4 1.677 . S
C199 C30 1.674 . S
C213 C23 1.676 . S
C219 C49 1.674 . S
C233 C82 1.681 . S
C239 C62 1.676 . S
C253 C75 1.681 . S
C259 C101 1.679 . S
C273 C70 1.065 . S
C279 C5 1.095 . S
C293 C16 1.098 . S
C299 C81 1.077 . S
C313 C31 1.073 . S
C319 C96 1.039 . S
C333 C57 1.061 . S
C339 C42 1.083 . S
C353 C55 1.088 . S
C359 C18 1.076 . S
C373 C68 1.099 . S
C379 C29 1.072 . S
C393 C83 1.079 . S
C399 C44 1.037 . S
C413 C3 1.064 . S
C419 C94 1.080 . S
