# Generated by pormake.
# Topology wjc, (7)-cn, num edge types: 1
# Building blocks:
#     Node 0, Type 0, BuildingBlock: NUHQUE_clean_sbu_2, # of connection points: 7
#     Node 1, Type 0, BuildingBlock: NUHQUE_clean_sbu_2, # of connection points: 7
#     Node 2, Type 0, BuildingBlock: NUHQUE_clean_sbu_2, # of connection points: 7
#     Node 3, Type 0, BuildingBlock: NUHQUE_clean_sbu_2, # of connection points: 7
#     Node 4, Type 0, BuildingBlock: NUHQUE_clean_sbu_2, # of connection points: 7
#     Node 5, Type 0, BuildingBlock: NUHQUE_clean_sbu_2, # of connection points: 7
#     Node 6, Type 0, BuildingBlock: NUHQUE_clean_sbu_2, # of connection points: 7
#     Node 7, Type 0, BuildingBlock: NUHQUE_clean_sbu_2, # of connection points: 7
#     Node 8, Type 0, BuildingBlock: NUHQUE_clean_sbu_2, # of connection points: 7
#     Node 9, Type 0, BuildingBlock: NUHQUE_clean_sbu_2, # of connection points: 7
#     Node 10, Type 0, BuildingBlock: NUHQUE_clean_sbu_2, # of connection points: 7
#     Node 11, Type 0, BuildingBlock: NUHQUE_clean_sbu_2, # of connection points: 7
#     Node 12, Type 0, BuildingBlock: NUHQUE_clean_sbu_2, # of connection points: 7
#     Node 13, Type 0, BuildingBlock: NUHQUE_clean_sbu_2, # of connection points: 7
#     Node 14, Type 0, BuildingBlock: NUHQUE_clean_sbu_2, # of connection points: 7
#     Node 15, Type 0, BuildingBlock: NUHQUE_clean_sbu_2, # of connection points: 7
#     Node 16, Type 0, BuildingBlock: NUHQUE_clean_sbu_2, # of connection points: 7
#     Node 17, Type 0, BuildingBlock: NUHQUE_clean_sbu_2, # of connection points: 7
#     Node 18, Type 0, BuildingBlock: NUHQUE_clean_sbu_2, # of connection points: 7
#     Node 19, Type 0, BuildingBlock: NUHQUE_clean_sbu_2, # of connection points: 7
#     Node 20, Type 0, BuildingBlock: NUHQUE_clean_sbu_2, # of connection points: 7
#     Node 21, Type 0, BuildingBlock: NUHQUE_clean_sbu_2, # of connection points: 7
#     Node 22, Type 0, BuildingBlock: NUHQUE_clean_sbu_2, # of connection points: 7
#     Node 23, Type 0, BuildingBlock: NUHQUE_clean_sbu_2, # of connection points: 7
#     Edge 24, Type (0, 0), BuildingBlock: CIFDUS_clean_linker_0, # of connection points: 2
#     Edge 25, Type (0, 0), BuildingBlock: CIFDUS_clean_linker_0, # of connection points: 2
#     Edge 26, Type (0, 0), BuildingBlock: CIFDUS_clean_linker_0, # of connection points: 2
#     Edge 27, Type (0, 0), BuildingBlock: CIFDUS_clean_linker_0, # of connection points: 2
#     Edge 28, Type (0, 0), BuildingBlock: CIFDUS_clean_linker_0, # of connection points: 2
#     Edge 29, Type (0, 0), BuildingBlock: CIFDUS_clean_linker_0, # of connection points: 2
#     Edge 30, Type (0, 0), BuildingBlock: CIFDUS_clean_linker_0, # of connection points: 2
#     Edge 31, Type (0, 0), BuildingBlock: CIFDUS_clean_linker_0, # of connection points: 2
#     Edge 32, Type (0, 0), BuildingBlock: CIFDUS_clean_linker_0, # of connection points: 2
#     Edge 33, Type (0, 0), BuildingBlock: CIFDUS_clean_linker_0, # of connection points: 2
#     Edge 34, Type (0, 0), BuildingBlock: CIFDUS_clean_linker_0, # of connection points: 2
#     Edge 35, Type (0, 0), BuildingBlock: CIFDUS_clean_linker_0, # of connection points: 2
#     Edge 36, Type (0, 0), BuildingBlock: CIFDUS_clean_linker_0, # of connection points: 2
#     Edge 37, Type (0, 0), BuildingBlock: CIFDUS_clean_linker_0, # of connection points: 2
#     Edge 38, Type (0, 0), BuildingBlock: CIFDUS_clean_linker_0, # of connection points: 2
#     Edge 39, Type (0, 0), BuildingBlock: CIFDUS_clean_linker_0, # of connection points: 2
#     Edge 40, Type (0, 0), BuildingBlock: CIFDUS_clean_linker_0, # of connection points: 2
#     Edge 41, Type (0, 0), BuildingBlock: CIFDUS_clean_linker_0, # of connection points: 2
#     Edge 42, Type (0, 0), BuildingBlock: CIFDUS_clean_linker_0, # of connection points: 2
#     Edge 43, Type (0, 0), BuildingBlock: CIFDUS_clean_linker_0, # of connection points: 2
#     Edge 44, Type (0, 0), BuildingBlock: CIFDUS_clean_linker_0, # of connection points: 2
#     Edge 45, Type (0, 0), BuildingBlock: CIFDUS_clean_linker_0, # of connection points: 2
#     Edge 46, Type (0, 0), BuildingBlock: CIFDUS_clean_linker_0, # of connection points: 2
#     Edge 47, Type (0, 0), BuildingBlock: CIFDUS_clean_linker_0, # of connection points: 2
#     Edge 48, Type (0, 0), BuildingBlock: CIFDUS_clean_linker_0, # of connection points: 2
#     Edge 49, Type (0, 0), BuildingBlock: CIFDUS_clean_linker_0, # of connection points: 2
#     Edge 50, Type (0, 0), BuildingBlock: CIFDUS_clean_linker_0, # of connection points: 2
#     Edge 51, Type (0, 0), BuildingBlock: CIFDUS_clean_linker_0, # of connection points: 2
#     Edge 52, Type (0, 0), BuildingBlock: CIFDUS_clean_linker_0, # of connection points: 2
#     Edge 53, Type (0, 0), BuildingBlock: CIFDUS_clean_linker_0, # of connection points: 2
#     Edge 54, Type (0, 0), BuildingBlock: CIFDUS_clean_linker_0, # of connection points: 2
#     Edge 55, Type (0, 0), BuildingBlock: CIFDUS_clean_linker_0, # of connection points: 2
#     Edge 56, Type (0, 0), BuildingBlock: CIFDUS_clean_linker_0, # of connection points: 2
#     Edge 57, Type (0, 0), BuildingBlock: CIFDUS_clean_linker_0, # of connection points: 2
#     Edge 58, Type (0, 0), BuildingBlock: CIFDUS_clean_linker_0, # of connection points: 2
#     Edge 59, Type (0, 0), BuildingBlock: CIFDUS_clean_linker_0, # of connection points: 2
#     Edge 60, Type (0, 0), BuildingBlock: CIFDUS_clean_linker_0, # of connection points: 2
#     Edge 61, Type (0, 0), BuildingBlock: CIFDUS_clean_linker_0, # of connection points: 2
#     Edge 62, Type (0, 0), BuildingBlock: CIFDUS_clean_linker_0, # of connection points: 2
#     Edge 63, Type (0, 0), BuildingBlock: CIFDUS_clean_linker_0, # of connection points: 2
#     Edge 64, Type (0, 0), BuildingBlock: CIFDUS_clean_linker_0, # of connection points: 2
#     Edge 65, Type (0, 0), BuildingBlock: CIFDUS_clean_linker_0, # of connection points: 2
#     Edge 66, Type (0, 0), BuildingBlock: CIFDUS_clean_linker_0, # of connection points: 2
#     Edge 67, Type (0, 0), BuildingBlock: CIFDUS_clean_linker_0, # of connection points: 2
#     Edge 68, Type (0, 0), BuildingBlock: CIFDUS_clean_linker_0, # of connection points: 2
#     Edge 69, Type (0, 0), BuildingBlock: CIFDUS_clean_linker_0, # of connection points: 2
#     Edge 70, Type (0, 0), BuildingBlock: CIFDUS_clean_linker_0, # of connection points: 2
#     Edge 71, Type (0, 0), BuildingBlock: CIFDUS_clean_linker_0, # of connection points: 2
#     Edge 72, Type (0, 0), BuildingBlock: CIFDUS_clean_linker_0, # of connection points: 2
#     Edge 73, Type (0, 0), BuildingBlock: CIFDUS_clean_linker_0, # of connection points: 2
#     Edge 74, Type (0, 0), BuildingBlock: CIFDUS_clean_linker_0, # of connection points: 2
#     Edge 75, Type (0, 0), BuildingBlock: CIFDUS_clean_linker_0, # of connection points: 2
#     Edge 76, Type (0, 0), BuildingBlock: CIFDUS_clean_linker_0, # of connection points: 2
#     Edge 77, Type (0, 0), BuildingBlock: CIFDUS_clean_linker_0, # of connection points: 2
#     Edge 78, Type (0, 0), BuildingBlock: CIFDUS_clean_linker_0, # of connection points: 2
#     Edge 79, Type (0, 0), BuildingBlock: CIFDUS_clean_linker_0, # of connection points: 2
#     Edge 80, Type (0, 0), BuildingBlock: CIFDUS_clean_linker_0, # of connection points: 2
#     Edge 81, Type (0, 0), BuildingBlock: CIFDUS_clean_linker_0, # of connection points: 2
#     Edge 82, Type (0, 0), BuildingBlock: CIFDUS_clean_linker_0, # of connection points: 2
#     Edge 83, Type (0, 0), BuildingBlock: CIFDUS_clean_linker_0, # of connection points: 2
#     Edge 84, Type (0, 0), BuildingBlock: CIFDUS_clean_linker_0, # of connection points: 2
#     Edge 85, Type (0, 0), BuildingBlock: CIFDUS_clean_linker_0, # of connection points: 2
#     Edge 86, Type (0, 0), BuildingBlock: CIFDUS_clean_linker_0, # of connection points: 2
#     Edge 87, Type (0, 0), BuildingBlock: CIFDUS_clean_linker_0, # of connection points: 2
#     Edge 88, Type (0, 0), BuildingBlock: CIFDUS_clean_linker_0, # of connection points: 2
#     Edge 89, Type (0, 0), BuildingBlock: CIFDUS_clean_linker_0, # of connection points: 2
#     Edge 90, Type (0, 0), BuildingBlock: CIFDUS_clean_linker_0, # of connection points: 2
#     Edge 91, Type (0, 0), BuildingBlock: CIFDUS_clean_linker_0, # of connection points: 2
#     Edge 92, Type (0, 0), BuildingBlock: CIFDUS_clean_linker_0, # of connection points: 2
#     Edge 93, Type (0, 0), BuildingBlock: CIFDUS_clean_linker_0, # of connection points: 2
#     Edge 94, Type (0, 0), BuildingBlock: CIFDUS_clean_linker_0, # of connection points: 2
#     Edge 95, Type (0, 0), BuildingBlock: CIFDUS_clean_linker_0, # of connection points: 2
#     Edge 96, Type (0, 0), BuildingBlock: CIFDUS_clean_linker_0, # of connection points: 2
#     Edge 97, Type (0, 0), BuildingBlock: CIFDUS_clean_linker_0, # of connection points: 2
#     Edge 98, Type (0, 0), BuildingBlock: CIFDUS_clean_linker_0, # of connection points: 2
#     Edge 99, Type (0, 0), BuildingBlock: CIFDUS_clean_linker_0, # of connection points: 2
#     Edge 100, Type (0, 0), BuildingBlock: CIFDUS_clean_linker_0, # of connection points: 2
#     Edge 101, Type (0, 0), BuildingBlock: CIFDUS_clean_linker_0, # of connection points: 2
#     Edge 102, Type (0, 0), BuildingBlock: CIFDUS_clean_linker_0, # of connection points: 2
#     Edge 103, Type (0, 0), BuildingBlock: CIFDUS_clean_linker_0, # of connection points: 2
#     Edge 104, Type (0, 0), BuildingBlock: CIFDUS_clean_linker_0, # of connection points: 2
#     Edge 105, Type (0, 0), BuildingBlock: CIFDUS_clean_linker_0, # of connection points: 2
#     Edge 106, Type (0, 0), BuildingBlock: CIFDUS_clean_linker_0, # of connection points: 2
#     Edge 107, Type (0, 0), BuildingBlock: CIFDUS_clean_linker_0, # of connection points: 2
# Relax obj value: 0.268
# Max RMSD: 0.229
# Mean RMSD: 0.229
data_MOF--net-wjc--node1-NUHQUE_clean_sbu_2--edge1-CIFDUS_clean_linker_0
_symmetry_space_group_name_H-M    P1
_symmetry_Int_Tables_number       1
_symmetry_cell_setting            triclinic
loop_
_symmetry_equiv_pos_as_xyz
'x, y, z'
_cell_length_a     46.241171
_cell_length_b     46.202113
_cell_length_c     48.5311
_cell_angle_alpha  89.952791
_cell_angle_beta   89.937621
_cell_angle_gamma 119.85911
loop_
_atom_site_label
_atom_site_type_symbol
_atom_site_fract_x
_atom_site_fract_y
_atom_site_fract_z
_atom_type_partial_charge
O0 O 0.49994 0.26152 0.13715 0.0
Tb1 Tb 0.44816 0.22355 0.14144 0.0
Eu2 Eu 0.40971 0.13851 0.14421 0.0
C3 C 0.51783 0.27915 0.15819 0.0
O4 O 0.50511 0.27122 0.18311 0.0
C5 C 0.41545 0.18296 0.19278 0.0
O6 O 0.37177 0.08399 0.139 0.0
C7 C 0.46885 0.14676 0.15367 0.0
C8 C 0.37084 0.06864 0.11595 0.0
O9 O 0.39255 0.08551 0.09647 0.0
C10 C 0.42718 0.179 0.08828 0.0
C11 C 0.49498 0.13988 0.14312 0.0
C12 C 0.52767 0.16663 0.13919 0.0
C13 C 0.55349 0.16041 0.13208 0.0
C14 C 0.54679 0.12753 0.12924 0.0
C15 C 0.51444 0.1004 0.13273 0.0
C16 C 0.4885 0.10688 0.13944 0.0
O17 O 0.44494 0.20196 0.18184 0.0
O18 O 0.39214 0.15887 0.17818 0.0
O19 O 0.44366 0.26808 0.14605 0.0
O20 O 0.40089 0.22294 0.13375 0.0
C21 C 0.41239 0.25447 0.13929 0.0
O22 O 0.40362 0.15296 0.10133 0.0
O23 O 0.45142 0.20417 0.10154 0.0
O24 O 0.44112 0.12147 0.16318 0.0
O25 O 0.46403 0.16879 0.14045 0.0
H26 H 0.53317 0.19212 0.14223 0.0
H27 H 0.5674 0.12328 0.125 0.0
H28 H 0.46337 0.08625 0.14216 0.0
O29 O 0.23696 0.47794 0.09386 0.0
Tb30 Tb 0.23242 0.43074 0.10667 0.0
Eu31 Eu 0.28575 0.39808 0.12086 0.0
C32 C 0.23776 0.4996 0.11188 0.0
O33 O 0.24053 0.49477 0.1382 0.0
C34 C 0.24838 0.41558 0.16351 0.0
O35 O 0.30975 0.36584 0.12475 0.0
C36 C 0.33256 0.46038 0.12333 0.0
C37 C 0.29401 0.33383 0.11864 0.0
O38 O 0.26303 0.31974 0.10996 0.0
C39 C 0.25773 0.39951 0.06099 0.0
C40 C 0.3674 0.48495 0.11637 0.0
C41 C 0.37595 0.51854 0.11353 0.0
C42 C 0.40936 0.54343 0.11045 0.0
C43 C 0.43422 0.53451 0.11046 0.0
C44 C 0.42648 0.50118 0.11336 0.0
C45 C 0.39265 0.47627 0.11601 0.0
O46 O 0.25622 0.44066 0.14666 0.0
O47 O 0.24849 0.38888 0.15436 0.0
O48 O 0.18196 0.42255 0.11107 0.0
O49 O 0.18846 0.38024 0.10982 0.0
C50 C 0.16661 0.3902 0.11211 0.0
O51 O 0.26249 0.38071 0.07881 0.0
O52 O 0.25406 0.42491 0.06862 0.0
O53 O 0.32794 0.438 0.14206 0.0
O54 O 0.31043 0.44864 0.10345 0.0
H55 H 0.35672 0.52544 0.11459 0.0
H56 H 0.46007 0.55421 0.1101 0.0
H57 H 0.38599 0.4504 0.11866 0.0
O58 O 0.76706 0.24414 0.14727 0.0
Tb59 Tb 0.80911 0.23658 0.13914 0.0
Eu60 Eu 0.89537 0.29053 0.14627 0.0
C61 C 0.74765 0.24367 0.12725 0.0
O62 O 0.75618 0.24244 0.10162 0.0
C63 C 0.85013 0.24224 0.18974 0.0
O64 O 0.95149 0.31981 0.14093 0.0
C65 C 0.87281 0.33078 0.15808 0.0
C66 C 0.96928 0.30514 0.13641 0.0
O67 O 0.95408 0.27241 0.1353 0.0
C68 C 0.85793 0.26626 0.08882 0.0
C69 C 0.87839 0.36397 0.15014 0.0
C70 C 0.85152 0.37017 0.14984 0.0
C71 C 0.85693 0.40198 0.14286 0.0
C72 C 0.88928 0.42766 0.13687 0.0
C73 C 0.9164 0.42199 0.13736 0.0
C74 C 0.91056 0.38976 0.14347 0.0
O75 O 0.83098 0.25307 0.17955 0.0
O76 O 0.87739 0.24857 0.17662 0.0
O77 O 0.81568 0.1926 0.1379 0.0
O78 O 0.76735 0.18639 0.1325 0.0
C79 C 0.78432 0.17094 0.13379 0.0
O80 O 0.88394 0.27051 0.10311 0.0
O81 O 0.83048 0.26237 0.10057 0.0
O82 O 0.89686 0.32992 0.17181 0.0
O83 O 0.85942 0.30741 0.13937 0.0
H84 H 0.8266 0.35043 0.15505 0.0
H85 H 0.89333 0.4525 0.13283 0.0
H86 H 0.9311 0.38474 0.14335 0.0
O87 O 0.56052 0.74724 0.1111 0.0
Tb88 Tb 0.6026 0.7939 0.12457 0.0
Eu89 Eu 0.61333 0.89776 0.12156 0.0
C90 C 0.52952 0.73602 0.11893 0.0
O91 O 0.52236 0.75317 0.13648 0.0
C92 C 0.60599 0.84772 0.16487 0.0
O93 O 0.641 0.95401 0.12308 0.0
C94 C 0.55202 0.87478 0.10609 0.0
C95 C 0.67365 0.97205 0.12513 0.0
O96 O 0.69137 0.95701 0.12654 0.0
C97 C 0.62297 0.84852 0.08056 0.0
C98 C 0.5265 0.88474 0.10408 0.0
C99 C 0.49305 0.85964 0.10134 0.0
C100 C 0.46772 0.86779 0.10214 0.0
C101 C 0.47585 0.90108 0.10528 0.0
C102 C 0.50913 0.92657 0.1077 0.0
C103 C 0.5346 0.91828 0.10701 0.0
O104 O 0.59416 0.83212 0.14153 0.0
O105 O 0.6156 0.87964 0.1646 0.0
O106 O 0.61996 0.77476 0.15796 0.0
O107 O 0.6518 0.79845 0.1235 0.0
C108 C 0.64877 0.78316 0.14683 0.0
O109 O 0.63627 0.86963 0.10128 0.0
O110 O 0.61413 0.81687 0.08416 0.0
O111 O 0.5605 0.87164 0.13124 0.0
O112 O 0.57745 0.88891 0.08897 0.0
H113 H 0.48667 0.83374 0.09935 0.0
H114 H 0.456 0.90715 0.10546 0.0
H115 H 0.56041 0.93761 0.10946 0.0
O116 O 0.77038 0.52167 0.1387 0.0
Tb117 Tb 0.78044 0.57285 0.13627 0.0
Eu118 Eu 0.74178 0.61673 0.15257 0.0
C119 C 0.76699 0.50459 0.11609 0.0
O120 O 0.76518 0.51728 0.09235 0.0
C121 C 0.78367 0.60289 0.19413 0.0
O122 O 0.73272 0.65968 0.15941 0.0
C123 C 0.68843 0.56009 0.1632 0.0
C124 C 0.75054 0.68811 0.14635 0.0
O125 O 0.77484 0.69171 0.13007 0.0
C126 C 0.75006 0.59914 0.09211 0.0
C127 C 0.65742 0.5315 0.15259 0.0
C128 C 0.65308 0.49941 0.1563 0.0
C129 C 0.62324 0.47117 0.14868 0.0
C130 C 0.5974 0.47488 0.13753 0.0
C131 C 0.6005 0.5065 0.1347 0.0
C132 C 0.63097 0.535 0.14177 0.0
O133 O 0.77324 0.5748 0.18054 0.0
O134 O 0.78201 0.62799 0.18327 0.0
O135 O 0.82584 0.5769 0.119 0.0
O136 O 0.82765 0.62071 0.13452 0.0
C137 C 0.84499 0.60864 0.12311 0.0
O138 O 0.75476 0.6241 0.10787 0.0
O139 O 0.74869 0.57217 0.10265 0.0
O140 O 0.68998 0.5891 0.16614 0.0
O141 O 0.71669 0.56253 0.15525 0.0
H142 H 0.67263 0.49631 0.16574 0.0
H143 H 0.5741 0.45277 0.13218 0.0
H144 H 0.63349 0.55953 0.14002 0.0
O145 O 0.26014 0.79856 0.1247 0.0
Tb146 Tb 0.22029 0.80825 0.11443 0.0
Eu147 Eu 0.11287 0.72173 0.11057 0.0
C148 C 0.27507 0.79071 0.10551 0.0
O149 O 0.26338 0.78565 0.08024 0.0
C150 C 0.15754 0.76892 0.15312 0.0
O151 O 0.05685 0.69867 0.10881 0.0
C152 C 0.13676 0.68157 0.10525 0.0
C153 C 0.03761 0.6723 0.09383 0.0
O154 O 0.05124 0.65888 0.07849 0.0
C155 C 0.16729 0.77267 0.06801 0.0
C156 C 0.12899 0.64664 0.10451 0.0
C157 C 0.15536 0.63966 0.1045 0.0
C158 C 0.14866 0.60653 0.10372 0.0
C159 C 0.11552 0.58055 0.1033 0.0
C160 C 0.089 0.58711 0.1045 0.0
C161 C 0.09587 0.62034 0.10472 0.0
O162 O 0.17408 0.76976 0.13105 0.0
O163 O 0.12584 0.74684 0.15221 0.0
O164 O 0.24393 0.85808 0.09686 0.0
O165 O 0.22646 0.85122 0.13839 0.0
C166 C 0.24188 0.87311 0.11883 0.0
O167 O 0.14526 0.7698 0.08677 0.0
O168 O 0.19968 0.79019 0.07342 0.0
O169 O 0.13346 0.69301 0.12912 0.0
O170 O 0.12672 0.69237 0.08428 0.0
H171 H 0.18097 0.65991 0.10512 0.0
H172 H 0.11038 0.55494 0.10301 0.0
H173 H 0.07564 0.62574 0.10599 0.0
O174 O 0.76318 0.55633 0.36314 0.0
Tb175 Tb 0.80668 0.60391 0.3724 0.0
Eu176 Eu 0.91046 0.61568 0.38278 0.0
C177 C 0.75088 0.53188 0.38121 0.0
O178 O 0.76691 0.53546 0.40443 0.0
C179 C 0.87115 0.62205 0.33748 0.0
O180 O 0.96613 0.64298 0.38755 0.0
C181 C 0.88457 0.5517 0.38956 0.0
C182 C 0.98411 0.67495 0.38178 0.0
O183 O 0.969 0.69145 0.37446 0.0
C184 C 0.85474 0.61485 0.42145 0.0
C185 C 0.89354 0.52536 0.39063 0.0
C186 C 0.86794 0.49182 0.38952 0.0
C187 C 0.87582 0.46625 0.38977 0.0
C188 C 0.90911 0.4742 0.39127 0.0
C189 C 0.93508 0.50745 0.39116 0.0
C190 C 0.92714 0.53318 0.39131 0.0
O191 O 0.8528 0.60802 0.35915 0.0
O192 O 0.90201 0.62882 0.33983 0.0
O193 O 0.8013 0.64106 0.34809 0.0
O194 O 0.79266 0.63766 0.39146 0.0
C195 C 0.79233 0.65278 0.36893 0.0
O196 O 0.87909 0.63422 0.40444 0.0
O197 O 0.82311 0.60198 0.41402 0.0
O198 O 0.88731 0.56571 0.36542 0.0
O199 O 0.8947 0.57305 0.41012 0.0
H200 H 0.8421 0.48568 0.38796 0.0
H201 H 0.91476 0.45405 0.39163 0.0
H202 H 0.94685 0.55906 0.39104 0.0
O203 O 0.25448 0.76425 0.36053 0.0
Tb204 Tb 0.24575 0.80562 0.35361 0.0
Eu205 Eu 0.28483 0.88587 0.34137 0.0
C206 C 0.25014 0.74265 0.34112 0.0
O207 O 0.24427 0.74834 0.31578 0.0
C208 C 0.24649 0.83475 0.29658 0.0
O209 O 0.30022 0.94053 0.34068 0.0
C210 C 0.33484 0.87693 0.33035 0.0
C211 C 0.28486 0.9519 0.35635 0.0
O212 O 0.25932 0.93077 0.37133 0.0
C213 C 0.2721 0.85649 0.40175 0.0
C214 C 0.36721 0.88109 0.33878 0.0
C215 C 0.37307 0.85444 0.33431 0.0
C216 C 0.40438 0.85817 0.33985 0.0
C217 C 0.43008 0.88872 0.34948 0.0
C218 C 0.42488 0.91582 0.35399 0.0
C219 C 0.39295 0.91156 0.34897 0.0
O220 O 0.25724 0.81715 0.30998 0.0
O221 O 0.24592 0.85977 0.30888 0.0
O222 O 0.1953 0.76444 0.35955 0.0
O223 O 0.20337 0.814 0.35932 0.0
C224 C 0.18109 0.78249 0.36183 0.0
O225 O 0.27027 0.87875 0.38616 0.0
O226 O 0.27312 0.83108 0.39065 0.0
O227 O 0.33349 0.9035 0.32258 0.0
O228 O 0.30844 0.8552 0.34401 0.0
H229 H 0.35352 0.83104 0.32599 0.0
H230 H 0.45465 0.89161 0.35218 0.0
H231 H 0.38822 0.932 0.35244 0.0
O232 O 0.48582 0.21633 0.37979 0.0
Tb233 Tb 0.43638 0.21055 0.37917 0.0
Eu234 Eu 0.41493 0.29661 0.38499 0.0
C235 C 0.49969 0.21542 0.40314 0.0
O236 O 0.48384 0.21257 0.42636 0.0
C237 C 0.42371 0.25752 0.34093 0.0
O238 O 0.38644 0.3244 0.38478 0.0
C239 C 0.47614 0.33575 0.40025 0.0
C240 C 0.35415 0.31026 0.38918 0.0
O241 O 0.3367 0.27796 0.39365 0.0
C242 C 0.40981 0.23919 0.42413 0.0
C243 C 0.50082 0.37139 0.40239 0.0
C244 C 0.53476 0.38092 0.4023 0.0
C245 C 0.55903 0.41467 0.40073 0.0
C246 C 0.54935 0.43891 0.39997 0.0
C247 C 0.51557 0.43003 0.40076 0.0
C248 C 0.49121 0.39591 0.40177 0.0
O249 O 0.43527 0.25377 0.36435 0.0
O250 O 0.41272 0.27867 0.34139 0.0
O251 O 0.39658 0.16021 0.38866 0.0
O252 O 0.40978 0.17397 0.34664 0.0
C253 C 0.39039 0.14982 0.36327 0.0
O254 O 0.3946 0.24488 0.4036 0.0
O255 O 0.42579 0.22246 0.41995 0.0
O256 O 0.46764 0.32453 0.37502 0.0
O257 O 0.45084 0.32354 0.41755 0.0
H258 H 0.54225 0.36209 0.40225 0.0
H259 H 0.56847 0.46491 0.39796 0.0
H260 H 0.46495 0.38836 0.40165 0.0
O261 O 0.26167 0.49143 0.38069 0.0
Tb262 Tb 0.22055 0.44091 0.37545 0.0
Eu263 Eu 0.14017 0.40246 0.36213 0.0
C264 C 0.28126 0.50887 0.36019 0.0
O265 O 0.27391 0.49685 0.33506 0.0
C266 C 0.19189 0.40932 0.31968 0.0
O267 O 0.08583 0.36342 0.35896 0.0
C268 C 0.15081 0.46147 0.34837 0.0
C269 C 0.07081 0.35436 0.3349 0.0
O270 O 0.08783 0.36842 0.31236 0.0
C271 C 0.16734 0.42066 0.42287 0.0
C272 C 0.14515 0.48914 0.35601 0.0
C273 C 0.17132 0.52209 0.35258 0.0
C274 C 0.16594 0.54898 0.35723 0.0
C275 C 0.13417 0.54284 0.36494 0.0
C276 C 0.10748 0.51013 0.36764 0.0
C277 C 0.11338 0.4833 0.36378 0.0
O278 O 0.20942 0.43851 0.33167 0.0
O279 O 0.166 0.38562 0.33258 0.0
O280 O 0.26231 0.43226 0.38097 0.0
O281 O 0.21309 0.39079 0.38349 0.0
C282 C 0.24476 0.4002 0.38464 0.0
O283 O 0.14422 0.3967 0.40779 0.0
O284 O 0.19454 0.44495 0.41152 0.0
O285 O 0.12497 0.43354 0.33999 0.0
O286 O 0.1716 0.4568 0.36352 0.0
H287 H 0.19559 0.52682 0.34563 0.0
H288 H 0.12981 0.56375 0.36685 0.0
H289 H 0.09299 0.45789 0.36585 0.0
O290 O 0.8091 0.26329 0.37079 0.0
Tb291 Tb 0.81487 0.21948 0.36968 0.0
Eu292 Eu 0.7281 0.10938 0.37584 0.0
C293 C 0.81761 0.28314 0.34926 0.0
O294 O 0.82861 0.27538 0.32711 0.0
C295 C 0.76755 0.15932 0.33222 0.0
O296 O 0.705 0.05347 0.37766 0.0
C297 C 0.68739 0.12958 0.39171 0.0
C298 C 0.723 0.0387 0.37912 0.0
O299 O 0.75568 0.05699 0.37949 0.0
C300 C 0.78417 0.16417 0.41411 0.0
C301 C 0.65266 0.11935 0.39836 0.0
C302 C 0.64515 0.14392 0.40697 0.0
C303 C 0.61214 0.1353 0.41265 0.0
C304 C 0.58672 0.10227 0.4094 0.0
C305 C 0.59363 0.07776 0.39983 0.0
C306 C 0.62688 0.08619 0.39484 0.0
O307 O 0.77158 0.17461 0.35562 0.0
O308 O 0.74657 0.12715 0.33248 0.0
O309 O 0.85573 0.22993 0.34097 0.0
O310 O 0.86319 0.22967 0.38438 0.0
C311 C 0.87727 0.23444 0.36033 0.0
O312 O 0.77955 0.1434 0.39377 0.0
O313 O 0.80138 0.19683 0.41016 0.0
O314 O 0.69432 0.1278 0.36571 0.0
O315 O 0.70316 0.12029 0.4089 0.0
H316 H 0.66481 0.16972 0.40879 0.0
H317 H 0.56108 0.09593 0.41317 0.0
H318 H 0.63253 0.06751 0.38722 0.0
O319 O 0.51871 0.76145 0.36404 0.0
Tb320 Tb 0.57073 0.77506 0.36634 0.0
Eu321 Eu 0.61738 0.74071 0.36409 0.0
C322 C 0.50609 0.76645 0.34149 0.0
O323 O 0.52416 0.77561 0.31889 0.0
C324 C 0.6099 0.77888 0.3145 0.0
O325 O 0.66152 0.73236 0.36446 0.0
C326 C 0.56285 0.68603 0.35105 0.0
C327 C 0.67365 0.72828 0.34114 0.0
O328 O 0.66032 0.73027 0.31783 0.0
C329 C 0.58824 0.7493 0.41992 0.0
C330 C 0.53443 0.65526 0.36254 0.0
C331 C 0.50189 0.65013 0.35956 0.0
C332 C 0.47425 0.62034 0.36864 0.0
C333 C 0.47919 0.59545 0.38036 0.0
C334 C 0.51113 0.59928 0.38227 0.0
C335 C 0.53884 0.6296 0.37387 0.0
O336 O 0.57932 0.76587 0.32391 0.0
O337 O 0.63322 0.77952 0.33037 0.0
O338 O 0.57281 0.82286 0.37107 0.0
O339 O 0.61783 0.82132 0.37476 0.0
C340 C 0.6047 0.84062 0.37527 0.0
O341 O 0.61605 0.75355 0.40879 0.0
O342 O 0.56396 0.74694 0.40423 0.0
O343 O 0.5925 0.68872 0.35102 0.0
O344 O 0.56376 0.71424 0.35649 0.0
H345 H 0.49799 0.66899 0.34972 0.0
H346 H 0.45772 0.57213 0.38677 0.0
H347 H 0.56356 0.63253 0.37496 0.0
O348 O 0.51109 0.74656 0.86969 0.0
Tb349 Tb 0.56225 0.78751 0.87061 0.0
Eu350 Eu 0.59081 0.87258 0.86378 0.0
C351 C 0.49947 0.72775 0.84759 0.0
O352 O 0.51806 0.73635 0.82528 0.0
C353 C 0.58773 0.8272 0.81615 0.0
O354 O 0.61746 0.92882 0.86788 0.0
C355 C 0.52782 0.85322 0.8574 0.0
C356 C 0.64973 0.94771 0.87216 0.0
O357 O 0.66852 0.93383 0.87364 0.0
C358 C 0.58323 0.83736 0.92159 0.0
C359 C 0.50214 0.86057 0.86792 0.0
C360 C 0.46894 0.83452 0.87011 0.0
C361 C 0.44353 0.84131 0.87745 0.0
C362 C 0.45153 0.87449 0.88181 0.0
C363 C 0.48451 0.90103 0.87993 0.0
C364 C 0.50988 0.89359 0.87351 0.0
O365 O 0.56078 0.80522 0.82924 0.0
O366 O 0.60988 0.85427 0.82894 0.0
O367 O 0.56688 0.74318 0.8765 0.0
O368 O 0.61086 0.78921 0.86868 0.0
C369 C 0.59896 0.7574 0.87341 0.0
O370 O 0.60341 0.86363 0.90671 0.0
O371 O 0.5607 0.80911 0.9102 0.0
O372 O 0.55175 0.87655 0.84243 0.0
O373 O 0.53844 0.83822 0.87414 0.0
H374 H 0.46282 0.80912 0.86558 0.0
H375 H 0.43134 0.87959 0.88514 0.0
H376 H 0.53557 0.91345 0.87216 0.0
O377 O 0.74874 0.51033 0.88029 0.0
Tb378 Tb 0.76611 0.56314 0.87554 0.0
Eu379 Eu 0.71874 0.60476 0.87126 0.0
C380 C 0.74813 0.4916 0.85969 0.0
O381 O 0.75325 0.50373 0.83454 0.0
C382 C 0.76297 0.60081 0.82693 0.0
O383 O 0.6973 0.63951 0.87404 0.0
C384 C 0.67274 0.54376 0.86009 0.0
C385 C 0.66841 0.62953 0.88627 0.0
O386 O 0.65327 0.5998 0.89774 0.0
C387 C 0.7403 0.58577 0.92841 0.0
C388 C 0.63981 0.51696 0.86959 0.0
C389 C 0.63568 0.48549 0.87655 0.0
C390 C 0.60433 0.45947 0.88473 0.0
C391 C 0.57708 0.46476 0.88562 0.0
C392 C 0.58054 0.49559 0.87809 0.0
C393 C 0.61208 0.52177 0.87038 0.0
O394 O 0.7473 0.57061 0.83722 0.0
O395 O 0.7597 0.62405 0.83957 0.0
O396 O 0.81216 0.56261 0.8677 0.0
O397 O 0.81535 0.60796 0.88094 0.0
C398 C 0.83245 0.59373 0.87354 0.0
O399 O 0.7358 0.6084 0.91541 0.0
O400 O 0.7462 0.56392 0.91582 0.0
O401 O 0.6743 0.57021 0.84847 0.0
O402 O 0.69813 0.55105 0.87623 0.0
H403 H 0.65665 0.48117 0.87539 0.0
H404 H 0.55284 0.44444 0.89177 0.0
H405 H 0.61469 0.54549 0.86418 0.0
O406 O 0.23412 0.77361 0.89264 0.0
Tb407 Tb 0.19881 0.7847 0.87259 0.0
Eu408 Eu 0.09897 0.70157 0.85422 0.0
C409 C 0.24991 0.76206 0.87769 0.0
O410 O 0.23968 0.75235 0.85237 0.0
C411 C 0.1593 0.75708 0.82038 0.0
O412 O 0.04382 0.68334 0.8561 0.0
C413 C 0.10963 0.65332 0.84085 0.0
C414 C 0.0316 0.7011 0.86694 0.0
O415 O 0.05213 0.73116 0.87632 0.0
C416 C 0.13478 0.74289 0.90637 0.0
C417 C 0.10454 0.61986 0.847 0.0
C418 C 0.13245 0.61539 0.84557 0.0
C419 C 0.1284 0.58341 0.84741 0.0
C420 C 0.09658 0.55585 0.85096 0.0
C421 C 0.06843 0.55964 0.85219 0.0
C422 C 0.07243 0.59185 0.85062 0.0
O423 O 0.17606 0.75039 0.83867 0.0
O424 O 0.12662 0.74314 0.82302 0.0
O425 O 0.22515 0.8254 0.8432 0.0
O426 O 0.21396 0.83621 0.88327 0.0
C427 C 0.22794 0.84897 0.85962 0.0
O428 O 0.10929 0.71393 0.89956 0.0
O429 O 0.14837 0.76542 0.88696 0.0
O430 O 0.08413 0.65569 0.83176 0.0
O431 O 0.12983 0.67816 0.85684 0.0
H432 H 0.15709 0.63656 0.84186 0.0
H433 H 0.09365 0.53104 0.85191 0.0
H434 H 0.05063 0.59484 0.8508 0.0
O435 O 0.48349 0.24808 0.86906 0.0
Tb436 Tb 0.43219 0.20832 0.87398 0.0
Eu437 Eu 0.39119 0.12163 0.86905 0.0
C438 C 0.50073 0.26623 0.89021 0.0
O439 O 0.48794 0.25736 0.91505 0.0
C440 C 0.40473 0.16913 0.81974 0.0
O441 O 0.35005 0.06839 0.87435 0.0
C442 C 0.4482 0.12366 0.8654 0.0
C443 C 0.34005 0.04729 0.85363 0.0
O444 O 0.35349 0.05794 0.8292 0.0
C445 C 0.40634 0.16066 0.92513 0.0
C446 C 0.47042 0.115 0.8809 0.0
C447 C 0.50143 0.14084 0.89014 0.0
C448 C 0.52425 0.13346 0.90274 0.0
C449 C 0.51637 0.10018 0.90563 0.0
C450 C 0.48613 0.07419 0.89586 0.0
C451 C 0.46283 0.08153 0.88398 0.0
O452 O 0.43219 0.18945 0.83305 0.0
O453 O 0.38022 0.1433 0.8321 0.0
O454 O 0.42788 0.25261 0.88076 0.0
O455 O 0.38446 0.20766 0.86924 0.0
C456 C 0.39635 0.23915 0.87515 0.0
O457 O 0.38248 0.13659 0.91074 0.0
O458 O 0.4325 0.18555 0.91317 0.0
O459 O 0.42022 0.09897 0.85578 0.0
O460 O 0.44516 0.14879 0.87455 0.0
H461 H 0.50825 0.1667 0.88686 0.0
H462 H 0.53464 0.09452 0.91426 0.0
H463 H 0.43969 0.06131 0.87599 0.0
O464 O 0.19872 0.45675 0.8475 0.0
Tb465 Tb 0.18817 0.40642 0.85623 0.0
Eu466 Eu 0.27377 0.38601 0.85286 0.0
C467 C 0.21649 0.48127 0.86468 0.0
O468 O 0.23006 0.47555 0.88624 0.0
C469 C 0.22358 0.38223 0.81293 0.0
O470 O 0.29947 0.35539 0.85566 0.0
C471 C 0.31479 0.44997 0.85653 0.0
C472 C 0.28285 0.32302 0.85105 0.0
O473 O 0.25127 0.30895 0.84407 0.0
C474 C 0.23077 0.39429 0.90036 0.0
C475 C 0.34989 0.47607 0.8536 0.0
C476 C 0.35741 0.50882 0.84732 0.0
C477 C 0.39064 0.5341 0.84425 0.0
C478 C 0.41625 0.52667 0.84765 0.0
C479 C 0.40928 0.49435 0.85465 0.0
C480 C 0.37583 0.4689 0.85729 0.0
O481 O 0.22106 0.39224 0.83746 0.0
O482 O 0.24678 0.37401 0.81156 0.0
O483 O 0.14093 0.37121 0.83663 0.0
O484 O 0.14247 0.37912 0.88006 0.0
C485 C 0.12333 0.36326 0.85927 0.0
O486 O 0.23112 0.37195 0.88346 0.0
O487 O 0.21315 0.40904 0.89481 0.0
O488 O 0.29904 0.43529 0.8338 0.0
O489 O 0.30709 0.42931 0.87742 0.0
H490 H 0.33752 0.51459 0.84479 0.0
H491 H 0.44185 0.54642 0.84484 0.0
H492 H 0.36994 0.44376 0.86264 0.0
O493 O 0.73205 0.21968 0.87773 0.0
Tb494 Tb 0.77461 0.21221 0.87981 0.0
Eu495 Eu 0.8575 0.26096 0.86794 0.0
C496 C 0.71658 0.22003 0.90034 0.0
O497 O 0.72831 0.21742 0.92429 0.0
C498 C 0.80761 0.21669 0.82492 0.0
O499 O 0.91215 0.27737 0.86668 0.0
C500 C 0.84706 0.3096 0.85464 0.0
C501 C 0.9264 0.27807 0.84303 0.0
O502 O 0.90818 0.26886 0.82055 0.0
C503 C 0.82596 0.24857 0.92746 0.0
C504 C 0.85181 0.34243 0.86301 0.0
C505 C 0.8244 0.34773 0.86168 0.0
C506 C 0.82847 0.37927 0.86741 0.0
C507 C 0.86003 0.4056 0.87443 0.0
C508 C 0.88789 0.40122 0.87473 0.0
C509 C 0.88361 0.36939 0.86936 0.0
O510 O 0.78938 0.22688 0.83772 0.0
O511 O 0.83421 0.21968 0.83705 0.0
O512 O 0.73425 0.16105 0.88589 0.0
O513 O 0.78381 0.16991 0.88241 0.0
C514 C 0.75258 0.14698 0.88539 0.0
O515 O 0.85063 0.24954 0.9132 0.0
O516 O 0.79781 0.24249 0.91589 0.0
O517 O 0.87348 0.30804 0.84687 0.0
O518 O 0.82554 0.28337 0.86873 0.0
H519 H 0.80016 0.32763 0.85541 0.0
H520 H 0.86333 0.43034 0.87745 0.0
H521 H 0.90517 0.36598 0.86925 0.0
O522 O 0.24549 0.44652 0.62044 0.0
Tb523 Tb 0.20224 0.39829 0.62932 0.0
Eu524 Eu 0.09896 0.38644 0.62351 0.0
C525 C 0.26427 0.46721 0.63981 0.0
O526 O 0.25529 0.45998 0.66573 0.0
C527 C 0.14118 0.38315 0.66871 0.0
O528 O 0.04289 0.36206 0.61973 0.0
C529 C 0.12754 0.45006 0.61373 0.0
C530 C 0.02274 0.32952 0.61886 0.0
O531 O 0.03535 0.30959 0.62004 0.0
C532 C 0.15094 0.38183 0.58245 0.0
C533 C 0.12066 0.47769 0.61165 0.0
C534 C 0.14763 0.51015 0.60836 0.0
C535 C 0.14225 0.53735 0.60825 0.0
C536 C 0.10986 0.53206 0.61107 0.0
C537 C 0.08255 0.49973 0.61406 0.0
C538 C 0.08808 0.47241 0.61426 0.0
O539 O 0.15888 0.39702 0.6466 0.0
O540 O 0.11026 0.3766 0.667 0.0
O541 O 0.22914 0.3824 0.65661 0.0
O542 O 0.20214 0.35167 0.62244 0.0
C543 C 0.22157 0.35512 0.64312 0.0
O544 O 0.12768 0.36508 0.60126 0.0
O545 O 0.18271 0.39245 0.58787 0.0
O546 O 0.12494 0.43747 0.63847 0.0
O547 O 0.11549 0.42739 0.5942 0.0
H548 H 0.1728 0.51432 0.60647 0.0
H549 H 0.10596 0.55335 0.61051 0.0
H550 H 0.06735 0.44729 0.61704 0.0
O551 O 0.75575 0.25747 0.61013 0.0
Tb552 Tb 0.75807 0.21188 0.61499 0.0
Eu553 Eu 0.71174 0.12684 0.62408 0.0
C554 C 0.75724 0.27577 0.63145 0.0
O555 O 0.75606 0.26423 0.65642 0.0
C556 C 0.74625 0.17725 0.6705 0.0
O557 O 0.69968 0.07305 0.6256 0.0
C558 C 0.65817 0.13143 0.62902 0.0
C559 C 0.6881 0.05421 0.60354 0.0
O560 O 0.68428 0.06745 0.58083 0.0
C561 C 0.72989 0.16165 0.56627 0.0
C562 C 0.62797 0.12589 0.61406 0.0
C563 C 0.6232 0.15326 0.60901 0.0
C564 C 0.59304 0.14842 0.59791 0.0
C565 C 0.56774 0.11586 0.59181 0.0
C566 C 0.57169 0.08829 0.59738 0.0
C567 C 0.60213 0.09343 0.60793 0.0
O568 O 0.73816 0.19614 0.65603 0.0
O569 O 0.7468 0.15185 0.65908 0.0
O570 O 0.81025 0.25095 0.61363 0.0
O571 O 0.79904 0.20049 0.61328 0.0
C572 C 0.82306 0.23155 0.61301 0.0
O573 O 0.73129 0.13849 0.58095 0.0
O574 O 0.73061 0.18775 0.57783 0.0
O575 O 0.65999 0.10513 0.63681 0.0
O576 O 0.68681 0.15624 0.62067 0.0
H577 H 0.64247 0.17818 0.61468 0.0
H578 H 0.54382 0.1116 0.58441 0.0
H579 H 0.60481 0.07202 0.61295 0.0
O580 O 0.5243 0.78719 0.63773 0.0
Tb581 Tb 0.57425 0.79515 0.63092 0.0
Eu582 Eu 0.60357 0.7139 0.62903 0.0
C583 C 0.50245 0.77632 0.61753 0.0
O584 O 0.51017 0.76697 0.59442 0.0
C585 C 0.60512 0.76299 0.67015 0.0
O586 O 0.63753 0.69206 0.62413 0.0
C587 C 0.54042 0.66953 0.62843 0.0
C588 C 0.67008 0.7115 0.62591 0.0
O589 O 0.68218 0.74366 0.62968 0.0
C590 C 0.59294 0.75924 0.58462 0.0
C591 C 0.51569 0.63363 0.62844 0.0
C592 C 0.48176 0.62389 0.63153 0.0
C593 C 0.45733 0.59005 0.63063 0.0
C594 C 0.46692 0.56603 0.62684 0.0
C595 C 0.50058 0.57512 0.62448 0.0
C596 C 0.52515 0.60913 0.62539 0.0
O597 O 0.58501 0.75948 0.64984 0.0
O598 O 0.61776 0.74325 0.66875 0.0
O599 O 0.60355 0.84219 0.60922 0.0
O600 O 0.6085 0.84132 0.65279 0.0
C601 C 0.61797 0.86028 0.63085 0.0
O602 O 0.61449 0.75914 0.60249 0.0
O603 O 0.57521 0.77377 0.59094 0.0
O604 O 0.55742 0.68204 0.65122 0.0
O605 O 0.5583 0.68208 0.60594 0.0
H606 H 0.47436 0.64258 0.6344 0.0
H607 H 0.44794 0.53982 0.62678 0.0
H608 H 0.55128 0.61646 0.62354 0.0
O609 O 0.7725 0.53018 0.65156 0.0
Tb610 Tb 0.80501 0.58038 0.63676 0.0
Eu611 Eu 0.88971 0.61846 0.63937 0.0
C612 C 0.75778 0.50465 0.63475 0.0
O613 O 0.76577 0.50895 0.60849 0.0
C614 C 0.84763 0.62562 0.684 0.0
O615 O 0.94493 0.6494 0.63115 0.0
C616 C 0.87501 0.55937 0.6569 0.0
C617 C 0.96066 0.68211 0.6334 0.0
O618 O 0.94372 0.69681 0.64061 0.0
C619 C 0.84923 0.59396 0.5835 0.0
C620 C 0.87932 0.53067 0.64951 0.0
C621 C 0.85128 0.49836 0.64898 0.0
C622 C 0.85503 0.47067 0.64309 0.0
C623 C 0.88696 0.47525 0.63855 0.0
C624 C 0.91534 0.50714 0.63939 0.0
C625 C 0.91118 0.53488 0.64441 0.0
O626 O 0.82843 0.59435 0.67693 0.0
O627 O 0.87322 0.64508 0.66855 0.0
O628 O 0.75656 0.57655 0.63023 0.0
O629 O 0.79966 0.62477 0.63122 0.0
C630 C 0.76726 0.60839 0.62856 0.0
O631 O 0.87574 0.61856 0.59515 0.0
O632 O 0.82343 0.57212 0.59797 0.0
O633 O 0.90164 0.58703 0.66474 0.0
O634 O 0.85499 0.56473 0.64134 0.0
H635 H 0.82666 0.49474 0.65324 0.0
H636 H 0.88963 0.45345 0.6356 0.0
H637 H 0.93279 0.55971 0.64465 0.0
O638 O 0.23227 0.74871 0.62792 0.0
Tb639 Tb 0.22228 0.78856 0.61795 0.0
Eu640 Eu 0.26176 0.87096 0.62164 0.0
C641 C 0.23618 0.73134 0.60833 0.0
O642 O 0.23837 0.74126 0.58265 0.0
C643 C 0.22078 0.82597 0.66901 0.0
O644 O 0.2763 0.92494 0.61514 0.0
C645 C 0.31262 0.86552 0.63762 0.0
C646 C 0.29395 0.94142 0.59345 0.0
O647 O 0.30331 0.92608 0.57583 0.0
C648 C 0.25157 0.83316 0.56518 0.0
C649 C 0.34682 0.87359 0.63015 0.0
C650 C 0.35659 0.84952 0.6344 0.0
C651 C 0.38992 0.85792 0.63045 0.0
C652 C 0.41344 0.89037 0.62247 0.0
C653 C 0.40425 0.9147 0.61786 0.0
C654 C 0.37058 0.90586 0.62131 0.0
O655 O 0.23391 0.80844 0.65959 0.0
O656 O 0.2208 0.84905 0.65329 0.0
O657 O 0.17625 0.79133 0.61527 0.0
O658 O 0.17408 0.74469 0.60967 0.0
C659 C 0.15655 0.75957 0.61073 0.0
O660 O 0.24908 0.85739 0.57705 0.0
O661 O 0.25 0.80832 0.57967 0.0
O662 O 0.30802 0.89045 0.64454 0.0
O663 O 0.28799 0.84249 0.62315 0.0
H664 H 0.33859 0.82469 0.64152 0.0
H665 H 0.43936 0.89681 0.62095 0.0
H666 H 0.36298 0.92427 0.61783 0.0
O667 O 0.44746 0.20606 0.58606 0.0
Tb668 Tb 0.40178 0.19899 0.60496 0.0
Eu669 Eu 0.41954 0.29242 0.64244 0.0
C670 C 0.47691 0.22444 0.59745 0.0
O671 O 0.47961 0.24211 0.61948 0.0
C672 C 0.41458 0.22587 0.66437 0.0
O673 O 0.38491 0.31174 0.65263 0.0
C674 C 0.47989 0.33043 0.65995 0.0
C675 C 0.35291 0.29312 0.6475 0.0
O676 O 0.34199 0.26366 0.63619 0.0
C677 C 0.4042 0.26415 0.58497 0.0
C678 C 0.50882 0.36391 0.65526 0.0
C679 C 0.54049 0.36705 0.65234 0.0
C680 C 0.56868 0.39858 0.64904 0.0
C681 C 0.56536 0.42706 0.64873 0.0
C682 C 0.53396 0.42437 0.65095 0.0
C683 C 0.50555 0.39266 0.65403 0.0
O684 O 0.4193 0.2066 0.64712 0.0
O685 O 0.39631 0.23907 0.65699 0.0
O686 O 0.37144 0.15415 0.58024 0.0
O687 O 0.3629 0.15282 0.62334 0.0
C688 C 0.35418 0.13526 0.60084 0.0
O689 O 0.41727 0.29366 0.59633 0.0
O690 O 0.38934 0.23821 0.60137 0.0
O691 O 0.45356 0.32863 0.67201 0.0
O692 O 0.47247 0.30874 0.63995 0.0
H693 H 0.54324 0.34507 0.65281 0.0
H694 H 0.58731 0.45144 0.64595 0.0
H695 H 0.48118 0.3905 0.65583 0.0
H696 H 0.32606 0.02467 0.15333 0.0
H697 H 0.35974 0.0321 0.06922 0.0
H698 H 0.32066 0.97299 0.06227 0.0
H699 H 0.27913 0.91865 0.08045 0.0
H700 H 0.24619 0.9096 0.16476 0.0
H701 H 0.28234 0.96994 0.17115 0.0
C702 C 0.32472 0.01338 0.13345 0.0
C703 C 0.34603 0.03285 0.11189 0.0
C704 C 0.30224 0.97911 0.12959 0.0
C705 C 0.34388 0.01778 0.08625 0.0
C706 C 0.32145 0.98393 0.0822 0.0
C707 C 0.27952 0.92993 0.10015 0.0
C708 C 0.26004 0.90978 0.1221 0.0
C709 C 0.30081 0.96431 0.10378 0.0
C710 C 0.2609 0.92468 0.14752 0.0
C711 C 0.2817 0.95912 0.1512 0.0
H712 H 0.35747 0.3552 0.13621 0.0
H713 H 0.26915 0.26748 0.10723 0.0
H714 H 0.29742 0.23489 0.11139 0.0
H715 H 0.34779 0.23132 0.12288 0.0
H716 H 0.43574 0.31949 0.15163 0.0
H717 H 0.40712 0.35163 0.148 0.0
C718 C 0.34432 0.32895 0.13081 0.0
C719 C 0.31117 0.31393 0.12139 0.0
C720 C 0.36073 0.3103 0.13323 0.0
C721 C 0.29465 0.27981 0.11453 0.0
C722 C 0.31082 0.26108 0.11691 0.0
C723 C 0.36057 0.25752 0.12842 0.0
C724 C 0.39386 0.27296 0.13751 0.0
C725 C 0.34391 0.27605 0.12619 0.0
C726 C 0.41013 0.30697 0.14457 0.0
C727 C 0.39378 0.32543 0.14248 0.0
H728 H 0.01382 0.28306 0.12848 0.0
H729 H 0.00765 0.37306 0.13501 0.0
H730 H 0.06769 0.40678 0.12787 0.0
H731 H 0.12202 0.41106 0.11973 0.0
H732 H 0.12925 0.3218 0.11363 0.0
H733 H 0.06879 0.28747 0.12059 0.0
C734 C 0.02558 0.31005 0.12836 0.0
C735 C 0.00604 0.32541 0.13229 0.0
C736 C 0.06035 0.32945 0.12428 0.0
C737 C 0.02188 0.36045 0.13208 0.0
C738 C 0.0563 0.37983 0.12797 0.0
C739 C 0.11038 0.38407 0.11989 0.0
C740 C 0.13008 0.36896 0.1161 0.0
C741 C 0.07576 0.36463 0.12403 0.0
C742 C 0.11463 0.334 0.11645 0.0
C743 C 0.08007 0.3144 0.12045 0.0
H744 H 0.71936 0.12563 0.12666 0.0
H745 H 0.8159 0.13423 0.13705 0.0
H746 H 0.79033 0.07328 0.13506 0.0
H747 H 0.74013 0.01747 0.13088 0.0
H748 H 0.64379 0.00995 0.12092 0.0
H749 H 0.6697 0.07048 0.12226 0.0
C750 C 0.73483 0.11417 0.12842 0.0
C751 C 0.76945 0.13432 0.13195 0.0
C752 C 0.71995 0.07927 0.12739 0.0
C753 C 0.78918 0.11917 0.13426 0.0
C754 C 0.77455 0.08436 0.13316 0.0
C755 C 0.72481 0.02907 0.12897 0.0
C756 C 0.69 0.00903 0.12583 0.0
C757 C 0.73991 0.06412 0.12981 0.0
C758 C 0.67059 0.02459 0.1234 0.0
C759 C 0.68538 0.05929 0.12415 0.0
H760 H 0.70627 0.69137 0.18133 0.0
H761 H 0.772 0.74267 0.11302 0.0
H762 H 0.74921 0.78017 0.10968 0.0
H763 H 0.70577 0.7936 0.12232 0.0
H764 H 0.63943 0.74181 0.19006 0.0
H765 H 0.66773 0.70974 0.19783 0.0
C766 C 0.71592 0.71104 0.16594 0.0
C767 C 0.74039 0.71384 0.14715 0.0
C768 C 0.70253 0.73237 0.16399 0.0
C769 C 0.75299 0.73977 0.12761 0.0
C770 C 0.73991 0.7612 0.12563 0.0
C771 C 0.69802 0.77582 0.13916 0.0
C772 C 0.67036 0.76972 0.15538 0.0
C773 C 0.71398 0.75705 0.14315 0.0
C774 C 0.66061 0.74678 0.17723 0.0
C775 C 0.67663 0.72829 0.18156 0.0
H776 H 1.00183 0.69869 0.11663 0.0
H777 H 0.9905 0.61131 0.0746 0.0
H778 H 0.93 0.58471 0.07906 0.0
H779 H 0.88039 0.58526 0.09639 0.0
H780 H 0.89102 0.67242 0.13803 0.0
H781 H 0.95172 0.70025 0.13208 0.0
C782 C 0.98613 0.67387 0.10835 0.0
C783 C 1.00078 0.657 0.09537 0.0
C784 C 0.95123 0.6587 0.11091 0.0
C785 C 0.97999 0.62494 0.08461 0.0
C786 C 0.94534 0.60965 0.08721 0.0
C787 C 0.89598 0.61046 0.10399 0.0
C788 C 0.88132 0.62677 0.11771 0.0
C789 C 0.93073 0.62617 0.10051 0.0
C790 C 0.90176 0.65941 0.12737 0.0
C791 C 0.93645 0.67524 0.12404 0.0
H792 H 0.13662 0.71916 0.37526 0.0
H793 H 0.14506 0.81478 0.3588 0.0
H794 H 0.08456 0.79017 0.3645 0.0
H795 H 0.02913 0.74073 0.37251 0.0
H796 H 0.02193 0.64558 0.38971 0.0
H797 H 0.08219 0.67086 0.38557 0.0
C798 C 0.12522 0.73464 0.373 0.0
C799 C 0.14506 0.76861 0.36643 0.0
C800 C 0.09069 0.7204 0.37645 0.0
C801 C 0.13014 0.78851 0.36381 0.0
C802 C 0.09561 0.77443 0.36703 0.0
C803 C 0.04077 0.72558 0.37552 0.0
C804 C 0.02095 0.69125 0.38124 0.0
C805 C 0.0756 0.7403 0.37312 0.0
C806 C 0.03649 0.67203 0.38524 0.0
C807 C 0.07098 0.68644 0.38281 0.0
H808 H 0.3422 0.10094 0.3941 0.0
H809 H 0.39086 0.11983 0.31501 0.0
H810 H 0.36136 0.05986 0.30514 0.0
H811 H 0.32517 1.00171 0.32089 0.0
H812 H 0.27501 0.98366 0.39936 0.0
H813 H 0.30147 0.04357 0.40752 0.0
C814 C 0.34594 0.09191 0.37454 0.0
C815 C 0.36882 0.11459 0.35541 0.0
C816 C 0.32884 0.05753 0.36901 0.0
C817 C 0.37331 0.10274 0.33004 0.0
C818 C 0.35662 0.06847 0.32448 0.0
C819 C 0.31985 0.01095 0.33964 0.0
C820 C 0.29844 0.98826 0.35961 0.0
C821 C 0.3349 0.04557 0.3441 0.0
C822 C 0.2914 1.00057 0.38366 0.0
C823 C 0.30661 0.03485 0.3884 0.0
H824 H 0.30993 0.41908 0.38404 0.0
H825 H 0.21226 0.33222 0.39145 0.0
H826 H 0.23741 0.29638 0.39413 0.0
H827 H 0.28753 0.28997 0.39317 0.0
H828 H 0.38473 0.37784 0.38479 0.0
H829 H 0.35936 0.41296 0.38366 0.0
C830 C 0.29412 0.3923 0.38638 0.0
C831 C 0.25933 0.37826 0.38758 0.0
C832 C 0.3087 0.37202 0.38761 0.0
C833 C 0.23914 0.34356 0.39053 0.0
C834 C 0.25352 0.32311 0.39201 0.0
C835 C 0.30314 0.31679 0.39117 0.0
C836 C 0.33802 0.33113 0.38899 0.0
C837 C 0.28832 0.33706 0.39038 0.0
C838 C 0.35784 0.36599 0.3864 0.0
C839 C 0.34337 0.3862 0.38577 0.0
H840 H 0.03231 0.31127 0.37477 0.0
H841 H 0.02834 0.34196 0.29156 0.0
H842 H 0.96795 0.30436 0.29062 0.0
H843 H 0.91545 0.26625 0.31518 0.0
H844 H 0.92053 0.23648 0.39849 0.0
H845 H 0.98117 0.26962 0.39746 0.0
C846 C 0.01829 0.3096 0.35636 0.0
C847 C 0.03474 0.32971 0.33344 0.0
C848 C 0.98367 0.28794 0.35595 0.0
C849 C 0.01625 0.32686 0.30958 0.0
C850 C 0.98169 0.30538 0.30902 0.0
C851 C 0.92996 0.26649 0.33281 0.0
C852 C 0.91361 0.24913 0.35692 0.0
C853 C 0.96501 0.28621 0.33228 0.0
C854 C 0.9326 0.24977 0.37973 0.0
C855 C 0.96728 0.26886 0.37923 0.0
H856 H 0.67209 0.88336 0.3774 0.0
H857 H 0.57723 0.8801 0.37943 0.0
H858 H 0.60536 0.94079 0.38146 0.0
H859 H 0.65654 0.99483 0.38111 0.0
H860 H 0.752 0.99933 0.37868 0.0
H861 H 0.72409 0.93833 0.3784 0.0
C862 C 0.6577 0.89603 0.3785 0.0
C863 C 0.62266 0.87731 0.37824 0.0
C864 C 0.67411 0.93117 0.37944 0.0
C865 C 0.60424 0.89396 0.37957 0.0
C866 C 0.62029 0.92869 0.38069 0.0
C867 C 0.67134 0.98256 0.38057 0.0
C868 C 0.70633 1.00171 0.37978 0.0
C869 C 0.65517 0.94756 0.38036 0.0
C870 C 0.72501 0.98525 0.37924 0.0
C871 C 0.70906 0.95032 0.37907 0.0
H872 H 0.70739 0.72331 0.38523 0.0
H873 H 0.69892 0.71146 0.29689 0.0
H874 H 0.73812 0.69056 0.29714 0.0
H875 H 0.77103 0.67081 0.32299 0.0
H876 H 0.77817 0.68165 0.41137 0.0
H877 H 0.74388 0.70819 0.41048 0.0
C878 C 0.71433 0.71646 0.36598 0.0
C879 C 0.69989 0.71865 0.34114 0.0
C880 C 0.73676 0.70424 0.36626 0.0
C881 C 0.70945 0.70988 0.31638 0.0
C882 C 0.73189 0.69788 0.31648 0.0
C883 C 0.76564 0.67966 0.34194 0.0
C884 C 0.77702 0.67421 0.36721 0.0
C885 C 0.74522 0.69431 0.34136 0.0
C886 C 0.76964 0.68553 0.39165 0.0
C887 C 0.74988 0.70056 0.39119 0.0
H888 H 0.68773 0.09886 0.88457 0.0
H889 H 0.7872 0.11309 0.88466 0.0
H890 H 0.76432 0.05257 0.88113 0.0
H891 H 0.71575 0.99559 0.87671 0.0
H892 H 0.61656 0.98257 0.87529 0.0
H893 H 0.63962 0.04249 0.88054 0.0
C894 C 0.70442 0.08871 0.88402 0.0
C895 C 0.73911 0.11039 0.88499 0.0
C896 C 0.6911 0.05405 0.88156 0.0
C897 C 0.7604 0.09689 0.88406 0.0
C898 C 0.74731 0.0623 0.88195 0.0
C899 C 0.69918 0.00584 0.87761 0.0
C900 C 0.6644 0.98441 0.87554 0.0
C901 C 0.71266 0.04061 0.88047 0.0
C902 C 0.64338 0.99829 0.87671 0.0
C903 C 0.65654 0.03265 0.87977 0.0
H904 H 0.57557 0.69385 0.88986 0.0
H905 H 0.66476 0.78006 0.86023 0.0
H906 H 0.69449 0.74835 0.86148 0.0
H907 H 0.69455 0.69527 0.87048 0.0
H908 H 0.60479 0.61033 0.90148 0.0
H909 H 0.57603 0.64229 0.90019 0.0
C910 C 0.60157 0.70578 0.88372 0.0
C911 C 0.61791 0.73925 0.87488 0.0
C912 C 0.61842 0.68751 0.88471 0.0
C913 C 0.65163 0.75435 0.86714 0.0
C914 C 0.66859 0.73617 0.86781 0.0
C915 C 0.66873 0.68382 0.877 0.0
C916 C 0.65194 0.65026 0.886 0.0
C917 C 0.65218 0.70261 0.87647 0.0
C918 C 0.61848 0.63598 0.89449 0.0
C919 C 0.6019 0.65427 0.89374 0.0
H920 H 0.98362 0.63791 0.85468 0.0
H921 H 0.99709 0.73167 0.88484 0.0
H922 H 0.93664 0.70707 0.88953 0.0
H923 H 0.87955 0.65834 0.88534 0.0
H924 H 0.86744 0.56491 0.85571 0.0
H925 H 0.92759 0.58994 0.8506 0.0
C926 C 0.97342 0.65309 0.86221 0.0
C927 C 0.99494 0.68663 0.86934 0.0
C928 C 0.93875 0.63876 0.86503 0.0
C929 C 0.98115 0.70577 0.87918 0.0
C930 C 0.94655 0.69172 0.88189 0.0
C931 C 0.89019 0.64357 0.8778 0.0
C932 C 0.8691 0.60983 0.87097 0.0
C933 C 0.92505 0.65816 0.87495 0.0
C934 C 0.88314 0.59092 0.86119 0.0
C935 C 0.91756 0.60521 0.85821 0.0
H936 H 0.31959 0.99614 0.81696 0.0
H937 H 0.30603 0.01786 0.90095 0.0
H938 H 0.26868 0.95858 0.90973 0.0
H939 H 0.24189 0.90024 0.89426 0.0
H940 H 0.25655 0.87825 0.81077 0.0
H941 H 0.29125 0.93792 0.80103 0.0
C942 C 0.30829 0.98796 0.83714 0.0
C943 C 0.31574 0.01148 0.85828 0.0
C944 C 0.28707 0.95373 0.84215 0.0
C945 C 0.30086 1.00036 0.8843 0.0
C946 C 0.27948 0.96642 0.88937 0.0
C947 C 0.25247 0.90857 0.87388 0.0
C948 C 0.24678 0.88499 0.85326 0.0
C949 C 0.27271 0.94285 0.86856 0.0
C950 C 0.26067 0.89602 0.82697 0.0
C951 C 0.28053 0.9301 0.82141 0.0
H952 H 0.34546 0.34292 0.86995 0.0
H953 H 0.25685 0.25667 0.83947 0.0
H954 H 0.2834 0.22265 0.84495 0.0
H955 H 0.3324 0.21744 0.85792 0.0
H956 H 0.4206 0.30402 0.88843 0.0
H957 H 0.39363 0.33759 0.88359 0.0
C958 C 0.33192 0.31669 0.86447 0.0
C959 C 0.29921 0.30248 0.85424 0.0
C960 C 0.34728 0.29718 0.86779 0.0
C961 C 0.28207 0.26836 0.84738 0.0
C962 C 0.29723 0.24882 0.85053 0.0
C963 C 0.34553 0.24358 0.86368 0.0
C964 C 0.37842 0.25818 0.87356 0.0
C965 C 0.32987 0.26294 0.8607 0.0
C966 C 0.39524 0.29214 0.88081 0.0
C967 C 0.37986 0.31143 0.87799 0.0
H968 H 0.97014 0.296 0.8856 0.0
H969 H 0.96428 0.28807 0.79693 0.0
H970 H 0.02459 0.31145 0.79416 0.0
H971 H 0.07952 0.33718 0.81682 0.0
H972 H 0.08512 0.3457 0.9054 0.0
H973 H 0.02445 0.31875 0.90832 0.0
C974 C 0.982 0.29921 0.86567 0.0
C975 C 0.96271 0.29051 0.84152 0.0
C976 C 0.0167 0.31277 0.8642 0.0
C977 C 0.97851 0.29466 0.81587 0.0
C978 C 0.01304 0.30805 0.81424 0.0
C979 C 0.06736 0.3327 0.83675 0.0
C980 C 0.08666 0.34343 0.86085 0.0
C981 C 0.03244 0.31758 0.83825 0.0
C982 C 0.07072 0.33764 0.88655 0.0
C983 C 0.03604 0.32235 0.88824 0.0
H984 H 0.87256 0.29568 0.61276 0.0
H985 H 0.85503 0.19491 0.61372 0.0
H986 H 0.91539 0.21618 0.6153 0.0
H987 H 0.97324 0.26381 0.61714 0.0
H988 H 0.98951 0.36434 0.6163 0.0
H989 H 0.92963 0.34275 0.61394 0.0
C990 C 0.88192 0.27833 0.61323 0.0
C991 C 0.85938 0.24377 0.61313 0.0
C992 C 0.91649 0.29074 0.61422 0.0
C993 C 0.8719 0.22162 0.61376 0.0
C994 C 0.9064 0.2338 0.6147 0.0
C995 C 0.9637 0.28099 0.61639 0.0
C996 C 0.98606 0.31573 0.61696 0.0
C997 C 0.92897 0.26836 0.61505 0.0
C998 C 0.9731 0.33755 0.61594 0.0
C999 C 0.93876 0.32522 0.61459 0.0
H1000 H 0.63304 0.90022 0.58637 0.0
H1001 H 0.64438 0.90308 0.67464 0.0
H1002 H 0.66906 0.96399 0.67398 0.0
H1003 H 0.68362 0.01595 0.64837 0.0
H1004 H 0.66988 0.01147 0.56015 0.0
H1005 H 0.64996 0.95179 0.56078 0.0
C1006 C 0.64131 0.9142 0.60545 0.0
C1007 C 0.63688 0.89721 0.63052 0.0
C1008 C 0.65475 0.94895 0.60493 0.0
C1009 C 0.64763 0.91564 0.65507 0.0
C1010 C 0.66156 0.95043 0.65469 0.0
C1011 C 0.67652 1.00196 0.62927 0.0
C1012 C 0.67807 0.01826 0.60427 0.0
C1013 C 0.66465 0.96731 0.62977 0.0
C1014 C 0.66875 0.99966 0.57972 0.0
C1015 C 0.65737 0.96545 0.58002 0.0
H1016 H 0.65353 0.64608 0.62128 0.0
H1017 H 0.73815 0.74542 0.62867 0.0
H1018 H 0.7758 0.72269 0.62922 0.0
H1019 H 0.78485 0.67429 0.62907 0.0
H1020 H 0.7001 0.5751 0.62216 0.0
H1021 H 0.66261 0.59799 0.61988 0.0
C1022 C 0.68021 0.6628 0.62287 0.0
C1023 C 0.69286 0.69744 0.625 0.0
C1024 C 0.70183 0.64954 0.62332 0.0
C1025 C 0.72759 0.71865 0.62705 0.0
C1026 C 0.74923 0.70567 0.62739 0.0
C1027 C 0.7582 0.65778 0.62688 0.0
C1028 C 0.74529 0.62307 0.6258 0.0
C1029 C 0.73665 0.67113 0.62575 0.0
C1030 C 0.71069 0.60193 0.62305 0.0
C1031 C 0.68919 0.61499 0.62177 0.0
H1032 H 1.00186 0.65982 0.61545 0.0
H1033 H 1.00159 0.74937 0.64028 0.0
H1034 H 0.06197 0.78186 0.6338 0.0
H1035 H 0.11548 0.78443 0.62297 0.0
H1036 H 0.11516 0.69447 0.59873 0.0
H1037 H 0.05454 0.66274 0.60284 0.0
C1038 C 0.01494 0.68646 0.61937 0.0
C1039 C 0.99716 0.70203 0.62849 0.0
C1040 C 0.04967 0.70501 0.61564 0.0
C1041 C 0.0146 0.73665 0.63331 0.0
C1042 C 0.04918 0.7553 0.6296 0.0
C1043 C 0.10202 0.75798 0.61825 0.0
C1044 C 0.11972 0.74181 0.61054 0.0
C1045 C 0.06705 0.73971 0.62099 0.0
C1046 C 0.10207 0.70749 0.60469 0.0
C1047 C 0.0674 0.68928 0.60712 0.0
H1048 H 0.28291 0.98187 0.62754 0.0
H1049 H 0.32741 0.9811 0.54951 0.0
H1050 H 0.34641 0.04031 0.54322 0.0
H1051 H 0.35409 0.09344 0.56147 0.0
H1052 H 0.31205 0.09469 0.64048 0.0
H1053 H 0.28788 0.03425 0.64454 0.0
C1054 C 0.29655 0.99457 0.60906 0.0
C1055 C 0.30391 0.97702 0.58916 0.0
C1056 C 0.30775 0.02879 0.60568 0.0
C1057 C 0.32157 0.99396 0.5653 0.0
C1058 C 0.33242 0.02787 0.56163 0.0
C1059 C 0.339 0.08032 0.57926 0.0
C1060 C 0.3347 0.09841 0.60059 0.0
C1061 C 0.32609 0.04568 0.58186 0.0
C1062 C 0.31556 0.08123 0.62374 0.0
C1063 C 0.30193 0.04671 0.62616 0.0
H1064 H 0.27761 0.37235 0.67211 0.0
H1065 H 0.20333 0.29425 0.62132 0.0
H1066 H 0.23638 0.26619 0.62035 0.0
H1067 H 0.28904 0.26726 0.62979 0.0
H1068 H 0.36521 0.34788 0.67763 0.0
H1069 H 0.32884 0.37162 0.68389 0.0
C1070 C 0.26838 0.34883 0.66133 0.0
C1071 C 0.2382 0.3353 0.64679 0.0
C1072 C 0.28812 0.33362 0.65996 0.0
C1073 C 0.22657 0.30504 0.63265 0.0
C1074 C 0.24553 0.28913 0.63197 0.0
C1075 C 0.29756 0.28983 0.64184 0.0
C1076 C 0.32988 0.30593 0.65302 0.0
C1077 C 0.2768 0.30374 0.64486 0.0
C1078 C 0.34055 0.33516 0.66856 0.0
C1079 C 0.31975 0.34873 0.67221 0.0
H1080 H 0.38215 0.1326 0.05283 0.0
H1081 H 0.47367 0.22757 0.05528 0.0
H1082 H 0.47503 0.23005 0.00528 0.0
H1083 H 0.45053 0.20582 0.96095 0.0
H1084 H 0.35899 0.1111 0.95763 0.0
H1085 H 0.35743 0.10813 0.00791 0.0
C1086 C 0.40241 0.15381 0.04243 0.0
C1087 C 0.42773 0.17981 0.05786 0.0
C1088 C 0.40307 0.15523 0.01352 0.0
C1089 C 0.45379 0.20714 0.04401 0.0
C1090 C 0.45464 0.20866 0.01536 0.0
C1091 C 0.43019 0.18447 0.97114 0.0
C1092 C 0.40496 0.15875 0.95552 0.0
C1093 C 0.42942 0.1829 -6e-05 0.0
C1094 C 0.37877 0.13132 0.96915 0.0
C1095 C 0.37785 0.12956 -0.00209 0.0
H1096 H 0.27569 0.44466 0.02011 0.0
H1097 H 0.23935 0.34009 0.03476 0.0
H1098 H 0.2322 0.32936 0.98498 0.0
H1099 H 0.22988 0.34922 0.93768 0.0
H1100 H 0.26527 0.45396 0.92476 0.0
H1101 H 0.27984 0.46526 0.97331 0.0
C1102 C 0.26645 0.41952 0.01243 0.0
C1103 C 0.25744 0.39311 0.03107 0.0
C1104 C 0.26231 0.41362 0.98401 0.0
C1105 C 0.24625 0.36082 0.02078 0.0
C1106 C 0.24208 0.35468 0.99234 0.0
C1107 C 0.24166 0.37456 0.94546 0.0
C1108 C 0.24636 0.40075 0.92782 0.0
C1109 C 0.24918 0.38079 0.97377 0.0
C1110 C 0.26128 0.43345 0.93808 0.0
C1111 C 0.26946 0.4399 0.96584 0.0
H1112 H 0.81401 0.26855 0.05373 0.0
H1113 H 0.90501 0.26399 0.05582 0.0
H1114 H 0.90426 0.25982 0.00554 0.0
H1115 H 0.8757 0.25425 0.96128 0.0
H1116 H 0.78428 0.2583 0.96064 0.0
H1117 H 0.7874 0.26588 0.01018 0.0
C1118 C 0.8338 0.26674 0.04328 0.0
C1119 C 0.85932 0.26624 0.05849 0.0
C1120 C 0.83308 0.2641 0.01463 0.0
C1121 C 0.88499 0.26433 0.04455 0.0
C1122 C 0.88454 0.26186 0.01582 0.0
C1123 C 0.85663 0.25703 0.97198 0.0
C1124 C 0.82964 0.25531 0.95728 0.0
C1125 C 0.85839 0.26123 0.00068 0.0
C1126 C 0.80515 0.25908 0.97143 0.0
C1127 C 0.80689 0.2635 -0.0002 0.0
H1128 H 0.63035 0.88623 0.95539 0.0
H1129 H 0.53706 0.79282 0.95693 0.0
H1130 H 0.53893 0.79161 0.00673 0.0
H1131 H 0.56944 0.81298 0.04938 0.0
H1132 H 0.66347 0.90477 0.04994 0.0
H1133 H 0.65848 0.91132 8e-05 0.0
C1134 C 0.6103 0.86584 0.96667 0.0
C1135 C 0.58394 0.83933 0.95219 0.0
C1136 C 0.61157 0.86503 0.99575 0.0
C1137 C 0.55801 0.81327 0.96726 0.0
C1138 C 0.55891 0.81256 0.99588 0.0
C1139 C 0.58854 0.83482 0.03868 0.0
C1140 C 0.61688 0.85821 0.05311 0.0
C1141 C 0.58592 0.83773 0.01022 0.0
C1142 C 0.64131 0.88655 0.0392 0.0
C1143 C 0.63862 0.89001 0.01066 0.0
H1144 H 0.7353 0.55096 0.05407 0.0
H1145 H 0.75547 0.65232 0.06272 0.0
H1146 H 0.75213 0.65683 0.0128 0.0
H1147 H 0.74666 0.63279 0.96621 0.0
H1148 H 0.72702 0.53137 0.95887 0.0
H1149 H 0.72682 0.52623 0.00856 0.0
C1150 C 0.7388 0.57401 0.04511 0.0
C1151 C 0.74587 0.60127 0.06211 0.0
C1152 C 0.73706 0.57654 0.01648 0.0
C1153 C 0.7501 0.63089 0.0501 0.0
C1154 C 0.74824 0.63355 0.02152 0.0
C1155 C 0.74201 0.60952 0.97554 0.0
C1156 C 0.73736 0.58277 0.95876 0.0
C1157 C 0.74218 0.60665 0.00443 0.0
C1158 C 0.73128 0.55268 0.97119 0.0
C1159 C 0.73105 0.54957 -0.00031 0.0
H1160 H 0.20438 0.79543 0.02148 0.0
H1161 H 0.10534 0.72536 0.05026 0.0
H1162 H 0.0873 0.70794 0.0028 0.0
H1163 H 0.09924 0.71429 0.95289 0.0
H1164 H 0.19657 0.7891 0.92447 0.0
H1165 H 0.2158 0.80292 0.97194 0.0
C1166 C 0.1789 0.77613 0.01743 0.0
C1167 C 0.15636 0.76139 0.03942 0.0
C1168 C 0.16841 0.76717 0.99009 0.0
C1169 C 0.12327 0.73691 0.03373 0.0
C1170 C 0.11292 0.72699 0.00658 0.0
C1171 C 0.12475 0.73339 0.95714 0.0
C1172 C 0.14663 0.75034 0.93517 0.0
C1173 C 0.13523 0.74214 0.98457 0.0
C1174 C 0.17936 0.7755 0.94095 0.0
C1175 C 0.19034 0.78347 0.96813 0.0
H1176 H 0.8975 0.63169 0.54585 0.0
H1177 H 0.79733 0.54795 0.55296 0.0
H1178 H 0.79188 0.54502 0.50316 0.0
H1179 H 0.81318 0.56916 0.45799 0.0
H1180 H 0.91277 0.65314 0.44989 0.0
H1181 H 0.92101 0.65256 0.49966 0.0
C1182 C 0.8746 0.61263 0.5365 0.0
C1183 C 0.84772 0.59046 0.5532 0.0
C1184 C 0.87144 0.61111 0.50768 0.0
C1185 C 0.81836 0.56561 0.54071 0.0
C1186 C 0.81514 0.56386 0.51217 0.0
C1187 C 0.83682 0.58718 0.46706 0.0
C1188 C 0.86207 0.61154 0.45044 0.0
C1189 C 0.84118 0.58697 0.49554 0.0
C1190 C 0.89283 0.63427 0.46234 0.0
C1191 C 0.89748 0.63406 0.4908 0.0
H1192 H 0.25853 0.88096 0.52814 0.0
H1193 H 0.25745 0.78712 0.53426 0.0
H1194 H 0.26542 0.78712 0.48472 0.0
H1195 H 0.27082 0.81245 0.43947 0.0
H1196 H 0.2712 0.9058 0.43254 0.0
H1197 H 0.26569 0.90734 0.48255 0.0
C1198 C 0.26011 0.86054 0.51866 0.0
C1199 C 0.25721 0.83401 0.53502 0.0
C1200 C 0.26463 0.86058 0.48997 0.0
C1201 C 0.25947 0.80785 0.5223 0.0
C1202 C 0.26406 0.80779 0.4939 0.0
C1203 C 0.26997 0.83332 0.44884 0.0
C1204 C 0.27137 0.85892 0.43219 0.0
C1205 C 0.26643 0.83388 0.47752 0.0
C1206 C 0.27015 0.8857 0.4448 0.0
C1207 C 0.26691 0.88657 0.47342 0.0
H1208 H 0.36783 0.26291 0.54168 0.0
H1209 H 0.4569 0.26121 0.56414 0.0
H1210 H 0.46703 0.2537 0.51575 0.0
H1211 H 0.44931 0.24621 0.46743 0.0
H1212 H 0.36242 0.25237 0.44433 0.0
H1213 H 0.35302 0.26069 0.49257 0.0
C1214 C 0.38935 0.2608 0.53577 0.0
C1215 C 0.41089 0.26093 0.5561 0.0
C1216 C 0.3955 0.25781 0.50793 0.0
C1217 C 0.43929 0.25935 0.54864 0.0
C1218 C 0.44527 0.25562 0.52105 0.0
C1219 C 0.42841 0.24954 0.47295 0.0
C1220 C 0.4063 0.24821 0.45251 0.0
C1221 C 0.4233 0.25444 0.50058 0.0
C1222 C 0.37971 0.25321 0.45979 0.0
C1223 C 0.37422 0.25777 0.48734 0.0
H1224 H 0.18636 0.43565 0.55107 0.0
H1225 H 0.09781 0.33881 0.55016 0.0
H1226 H 0.09298 0.34338 0.50005 0.0
H1227 H 0.11871 0.37233 0.45589 0.0
H1228 H 0.20804 0.46914 0.45858 0.0
H1229 H 0.20767 0.46715 0.50852 0.0
C1230 C 0.16563 0.41578 0.53995 0.0
C1231 C 0.14272 0.3868 0.55407 0.0
C1232 C 0.16347 0.4184 0.51138 0.0
C1233 C 0.11571 0.36141 0.53964 0.0
C1234 C 0.11319 0.36391 0.51098 0.0
C1235 C 0.1378 0.39318 0.46742 0.0
C1236 C 0.16371 0.42058 0.45331 0.0
C1237 C 0.13764 0.39186 0.49649 0.0
C1238 C 0.18805 0.44749 0.46868 0.0
C1239 C 0.1879 0.44645 0.49736 0.0
H1240 H 0.75443 0.19246 0.4411 0.0
H1241 H 0.77232 0.10947 0.44431 0.0
H1242 H 0.75172 0.09776 0.49201 0.0
H1243 H 0.73766 0.1175 0.53443 0.0
H1244 H 0.72151 0.20188 0.53021 0.0
H1245 H 0.73193 0.20637 0.4809 0.0
C1246 C 0.75338 0.17153 0.45219 0.0
C1247 C 0.76558 0.15234 0.43989 0.0
C1248 C 0.74211 0.16544 0.47932 0.0
C1249 C 0.76326 0.12467 0.45379 0.0
C1250 C 0.75171 0.11817 0.48098 0.0
C1251 C 0.73586 0.13649 0.52263 0.0
C1252 C 0.72987 0.15997 0.53604 0.0
C1253 C 0.74247 0.13935 0.49429 0.0
C1254 C 0.72692 0.18401 0.52047 0.0
C1255 C 0.73284 0.18663 0.49227 0.0
H1256 H 0.62939 0.74807 0.46055 0.0
H1257 H 0.53575 0.74577 0.44807 0.0
H1258 H 0.52807 0.74615 0.4975 0.0
H1259 H 0.54893 0.75051 0.5443 0.0
H1260 H 0.64197 0.7524 0.55818 0.0
H1261 H 0.64847 0.74823 0.50847 0.0
C1262 C 0.60722 0.74743 0.46866 0.0
C1263 C 0.58338 0.74718 0.45037 0.0
C1264 C 0.60275 0.74758 0.49747 0.0
C1265 C 0.55468 0.7461 0.46141 0.0
C1266 C 0.55018 0.74634 0.4898 0.0
C1267 C 0.57056 0.74977 0.53653 0.0
C1268 C 0.5951 0.7522 0.555 0.0
C1269 C 0.57423 0.74758 0.508 0.0
C1270 C 0.62269 0.75068 0.5445 0.0
C1271 C 0.62652 0.74847 0.51601 0.0
H1272 H 0.45634 0.1998 0.23623 0.0
H1273 H 0.35998 0.18333 0.21114 0.0
H1274 H 0.35312 0.20444 0.25564 0.0
H1275 H 0.3771 0.2319 0.30032 0.0
H1276 H 0.47191 0.24439 0.32594 0.0
H1277 H 0.47692 0.22035 0.28265 0.0
C1278 C 0.43367 0.20042 0.24076 0.0
C1279 C 0.40881 0.19041 0.22066 0.0
C1280 C 0.42981 0.21206 0.26633 0.0
C1281 C 0.37933 0.19086 0.22657 0.0
C1282 C 0.37555 0.20312 0.25185 0.0
C1283 C 0.39861 0.22898 0.29638 0.0
C1284 C 0.42424 0.23999 0.31595 0.0
C1285 C 0.40098 0.21448 0.27166 0.0
C1286 C 0.45191 0.23595 0.31102 0.0
C1287 C 0.45483 0.22231 0.28631 0.0
H1288 H 0.21124 0.36627 0.20042 0.0
H1289 H 0.2718 0.47318 0.19211 0.0
H1290 H 0.26055 0.48048 0.23988 0.0
H1291 H 0.23246 0.45692 0.28355 0.0
H1292 H 0.16903 0.35038 0.29191 0.0
H1293 H 0.18233 0.34249 0.24464 0.0
C1294 C 0.22214 0.39108 0.20922 0.0
C1295 C 0.24239 0.41912 0.19285 0.0
C1296 C 0.21489 0.3952 0.23663 0.0
C1297 C 0.25603 0.4512 0.2043 0.0
C1298 C 0.24964 0.45543 0.23162 0.0
C1299 C 0.22161 0.43193 0.27511 0.0
C1300 C 0.19984 0.40429 0.29121 0.0
C1301 C 0.22891 0.42766 0.24789 0.0
C1302 C 0.18579 0.37211 0.27986 0.0
C1303 C 0.19344 0.36757 0.25287 0.0
H1304 H 0.82045 0.25527 0.23103 0.0
H1305 H 0.86012 0.19178 0.20814 0.0
H1306 H 0.83761 0.1593 0.25079 0.0
H1307 H 0.80332 0.14742 0.29346 0.0
H1308 H 0.76641 0.21352 0.31566 0.0
H1309 H 0.79064 0.24636 0.27405 0.0
C1310 C 0.82441 0.23447 0.2355 0.0
C1311 C 0.84156 0.22561 0.21664 0.0
C1312 C 0.8115 0.21623 0.25969 0.0
C1313 C 0.84705 0.19902 0.22265 0.0
C1314 C 0.83396 0.18035 0.24683 0.0
C1315 C 0.80081 0.16907 0.289 0.0
C1316 C 0.78317 0.17823 0.30721 0.0
C1317 C 0.81557 0.18838 0.26528 0.0
C1318 C 0.78008 0.20633 0.30174 0.0
C1319 C 0.79387 0.22505 0.27804 0.0
H1320 H 0.65017 0.87002 0.20816 0.0
H1321 H 0.56042 0.78478 0.17836 0.0
H1322 H 0.55454 0.75515 0.22138 0.0
H1323 H 0.57247 0.75485 0.26882 0.0
H1324 H 0.66409 0.83765 0.29848 0.0
H1325 H 0.67202 0.86674 0.25433 0.0
C1326 C 0.62961 0.84483 0.21108 0.0
C1327 C 0.60568 0.82958 0.19012 0.0
C1328 C 0.6267 0.82757 0.23589 0.0
C1329 C 0.57925 0.7969 0.19406 0.0
C1330 C 0.57578 0.77999 0.21874 0.0
C1331 C 0.59442 0.77906 0.26542 0.0
C1332 C 0.61757 0.79422 0.28679 0.0
C1333 C 0.599 0.79525 0.23995 0.0
C1334 C 0.64605 0.82545 0.28218 0.0
C1335 C 0.65043 0.84216 0.25703 0.0
H1336 H 0.83919 0.65138 0.21831 0.0
H1337 H 0.74986 0.55765 0.23396 0.0
H1338 H 0.7672 0.55818 0.28167 0.0
H1339 H 0.80997 0.58274 0.31738 0.0
H1340 H 0.90289 0.67223 0.30007 0.0
H1341 H 0.88211 0.67639 0.25459 0.0
C1342 C 0.82351 0.63137 0.2324 0.0
C1343 C 0.79341 0.60456 0.22301 0.0
C1344 C 0.83438 0.63114 0.25933 0.0
C1345 C 0.77325 0.5784 0.24099 0.0
C1346 C 0.78311 0.57874 0.26817 0.0
C1347 C 0.82533 0.60349 0.30381 0.0
C1348 C 0.85763 0.62737 0.3119 0.0
C1349 C 0.81391 0.60463 0.27737 0.0
C1350 C 0.87782 0.65372 0.29409 0.0
C1351 C 0.866 0.656 0.26815 0.0
H1352 H 0.21772 0.7854 0.17376 0.0
H1353 H 0.13137 0.79569 0.18829 0.0
H1354 H 0.15366 0.82127 0.23321 0.0
H1355 H 0.19496 0.8351 0.27034 0.0
H1356 H 0.27708 0.81728 0.25782 0.0
H1357 H 0.25955 0.80044 0.2102 0.0
C1358 C 0.20425 0.794 0.18655 0.0
C1359 C 0.17325 0.78915 0.17779 0.0
C1360 C 0.21633 0.80691 0.21287 0.0
C1361 C 0.15545 0.79948 0.1947 0.0
C1362 C 0.1681 0.81392 0.22038 0.0
C1363 C 0.20918 0.82798 0.25696 0.0
C1364 C 0.23722 0.82742 0.26736 0.0
C1365 C 0.19808 0.81691 0.23001 0.0
C1366 C 0.25529 0.81769 0.25015 0.0
C1367 C 0.24531 0.80811 0.22296 0.0
H1368 H 0.56249 0.78058 0.69268 0.0
H1369 H 0.6605 0.79268 0.7024 0.0
H1370 H 0.66608 0.81882 0.74741 0.0
H1371 H 0.63985 0.83117 0.78678 0.0
H1372 H 0.53924 0.81253 0.77871 0.0
H1373 H 0.5379 0.79649 0.73054 0.0
C1374 C 0.5854 0.7898 0.70436 0.0
C1375 C 0.61113 0.78494 0.69421 0.0
C1376 C 0.58774 0.8033 0.73082 0.0
C1377 C 0.64041 0.79631 0.70978 0.0
C1378 C 0.64353 0.81108 0.7356 0.0
C1379 C 0.61803 0.82436 0.77418 0.0
C1380 C 0.58975 0.82317 0.78612 0.0
C1381 C 0.61691 0.81369 0.74676 0.0
C1382 C 0.5613 0.81364 0.76986 0.0
C1383 C 0.56048 0.80438 0.74235 0.0
H1384 H 0.7856 0.65098 0.78849 0.0
H1385 H 0.79542 0.56732 0.81573 0.0
H1386 H 0.8297 0.5731 0.77602 0.0
H1387 H 0.84857 0.59522 0.73006 0.0
H1388 H 0.83604 0.67575 0.6996 0.0
H1389 H 0.81194 0.67864 0.74403 0.0
C1390 C 0.79584 0.63453 0.78587 0.0
C1391 C 0.7875 0.60839 0.80473 0.0
C1392 C 0.81493 0.63737 0.76231 0.0
C1393 C 0.80095 0.58725 0.80126 0.0
C1394 C 0.82067 0.59056 0.77857 0.0
C1395 C 0.84157 0.61413 0.73357 0.0
C1396 C 0.84395 0.63525 0.71196 0.0
C1397 C 0.82663 0.61457 0.75847 0.0
C1398 C 0.83471 0.65957 0.71631 0.0
C1399 C 0.82052 0.66084 0.74152 0.0
H1400 H 0.24663 0.81278 0.71339 0.0
H1401 H 0.16408 0.82455 0.68736 0.0
H1402 H 0.13772 0.80567 0.73282 0.0
H1403 H 0.13647 0.7812 0.77885 0.0
H1404 H 0.22141 0.77247 0.80408 0.0
H1405 H 0.24856 0.79509 0.76033 0.0
C1406 C 0.22305 0.8116 0.71783 0.0
C1407 C 0.20709 0.81968 0.69719 0.0
C1408 C 0.20839 0.80109 0.74386 0.0
C1409 C 0.1768 0.81851 0.70312 0.0
C1410 C 0.16168 0.80752 0.72901 0.0
C1411 C 0.16104 0.7846 0.77483 0.0
C1412 C 0.17656 0.77466 0.7947 0.0
C1413 C 0.17693 0.79802 0.74939 0.0
C1414 C 0.20863 0.77963 0.78925 0.0
C1415 C 0.22429 0.79255 0.76413 0.0
H1416 H 0.43449 0.22755 0.79237 0.0
H1417 H 0.37104 0.12151 0.78089 0.0
H1418 H 0.37019 0.12982 0.73115 0.0
H1419 H 0.38744 0.16738 0.69112 0.0
H1420 H 0.44678 0.27363 0.70296 0.0
H1421 H 0.44966 0.2653 0.7526 0.0
C1422 C 0.42056 0.2063 0.77891 0.0
C1423 C 0.40305 0.17399 0.79004 0.0
C1424 C 0.41965 0.21136 0.75056 0.0
C1425 C 0.38461 0.14662 0.77264 0.0
C1426 C 0.38424 0.15134 0.74427 0.0
C1427 C 0.40122 0.18858 0.70466 0.0
C1428 C 0.4174 0.221 0.69376 0.0
C1429 C 0.40173 0.18358 0.73305 0.0
C1430 C 0.43448 0.24851 0.71121 0.0
C1431 C 0.43603 0.24372 0.73945 0.0
H1432 H 0.21304 0.34922 0.76384 0.0
H1433 H 0.19258 0.41851 0.80702 0.0
H1434 H 0.16328 0.42297 0.7671 0.0
H1435 H 0.14577 0.40953 0.71883 0.0
H1436 H 0.16583 0.3408 0.67472 0.0
H1437 H 0.19324 0.33385 0.71559 0.0
C1438 C 0.20188 0.36503 0.76452 0.0
C1439 C 0.20436 0.38296 0.78872 0.0
C1440 C 0.18539 0.36787 0.74109 0.0
C1441 C 0.19016 0.40366 0.78911 0.0
C1442 C 0.17366 0.4065 0.76611 0.0
C1443 C 0.15596 0.39285 0.71835 0.0
C1444 C 0.15484 0.37638 0.69377 0.0
C1445 C 0.17134 0.38896 0.74192 0.0
C1446 C 0.16772 0.35462 0.69326 0.0
C1447 C 0.18301 0.35044 0.71668 0.0
H1448 H 0.76315 0.22186 0.79325 0.0
H1449 H 0.83458 0.18754 0.7922 0.0
H1450 H 0.82017 0.16999 0.74406 0.0
H1451 H 0.78789 0.16599 0.70213 0.0
H1452 H 0.71926 0.20377 0.70414 0.0
H1453 H 0.7318 0.2182 0.75256 0.0
C1454 C 0.7756 0.21044 0.78264 0.0
C1455 C 0.79985 0.20595 0.79615 0.0
C1456 C 0.76758 0.20099 0.75528 0.0
C1457 C 0.81587 0.19132 0.78205 0.0
C1458 C 0.80759 0.18125 0.75465 0.0
C1459 C 0.77555 0.17707 0.71338 0.0
C1460 C 0.7527 0.18381 0.6999 0.0
C1461 C 0.78353 0.18611 0.74105 0.0
C1462 C 0.73705 0.19855 0.71427 0.0
C1463 C 0.74418 0.20679 0.74186 0.0
H1464 H 0.54475 0.07675 0.09806 0.0
H1465 H 0.47143 0.04544 0.16326 0.0
H1466 H 0.46417 0.9895 0.16167 0.0
H1467 H 0.47927 0.94964 0.14247 0.0
H1468 H 0.55487 0.98165 0.0794 0.0
H1469 H 0.56202 0.03786 0.08065 0.0
C1470 C 0.5275 0.05796 0.11227 0.0
C1471 C 0.50867 0.06563 0.13075 0.0
C1472 C 0.52433 0.02611 0.11201 0.0
C1473 C 0.48583 0.04038 0.14841 0.0
C1474 C 0.48195 0.00839 0.14779 0.0
C1475 C 0.49739 0.96899 0.12905 0.0
C1476 C 0.51642 0.96152 0.11075 0.0
C1477 C 0.50118 1.00106 0.12979 0.0
C1478 C 0.54014 0.98689 0.09379 0.0
C1479 C 0.54397 0.01888 0.09432 0.0
H1480 H 0.53736 0.46953 0.1541 0.0
H1481 H 0.59682 0.54862 0.09681 0.0
H1482 H 0.54714 0.55101 0.08271 0.0
H1483 H 0.48728 0.53127 0.08742 0.0
H1484 H 0.42908 0.45503 0.14751 0.0
H1485 H 0.47746 0.44938 0.1584 0.0
C1486 C 0.53942 0.48709 0.13831 0.0
C1487 C 0.57075 0.50881 0.12641 0.0
C1488 C 0.51087 0.48836 0.13044 0.0
C1489 C 0.57308 0.53185 0.1064 0.0
C1490 C 0.54465 0.53301 0.09821 0.0
C1491 C 0.48507 0.51348 0.10303 0.0
C1492 C 0.45436 0.49386 0.11676 0.0
C1493 C 0.51346 0.51149 0.11022 0.0
C1494 C 0.45202 0.47024 0.13628 0.0
C1495 C 0.4799 0.46733 0.14286 0.0
H1496 H 0.93756 0.47447 0.10149 0.0
H1497 H 0.9729 0.43342 0.16443 0.0
H1498 H 0.02902 0.4806 0.15942 0.0
H1499 H 0.0677 0.53421 0.13856 0.0
H1500 H 0.03291 0.57722 0.07714 0.0
H1501 H 0.97641 0.52919 0.08114 0.0
C1502 C 0.95744 0.47594 0.1143 0.0
C1503 C 0.95088 0.45019 0.13321 0.0
C1504 C 0.9896 0.50369 0.1119 0.0
C1505 C 0.97719 0.45237 0.14928 0.0
C1506 C 0.00929 0.47957 0.14667 0.0
C1507 C 0.04781 0.53292 0.12582 0.0
C1508 C 0.05447 0.55894 0.10733 0.0
C1509 C 0.0157 0.50539 0.12818 0.0
C1510 C 0.02832 0.55744 0.09153 0.0
C1511 C 0.99614 0.52994 0.09371 0.0
H1512 H 0.08606 0.54397 0.40053 0.0
H1513 H 0.0516 0.46412 0.34099 0.0
H1514 H 0.99611 0.45765 0.34234 0.0
H1515 H 0.95798 0.47562 0.35886 0.0
H1516 H 0.99065 0.55462 0.41883 0.0
H1517 H 0.04692 0.56176 0.41768 0.0
C1518 C 0.06638 0.52513 0.38788 0.0
C1519 C 0.07303 0.50437 0.37086 0.0
C1520 C 0.0345 0.5219 0.38835 0.0
C1521 C 0.04714 0.47993 0.35476 0.0
C1522 C 0.01546 0.4765 0.35521 0.0
C1523 C 0.97725 0.49418 0.37199 0.0
C1524 C 0.96999 0.51422 0.38923 0.0
C1525 C 0.00898 0.49746 0.37175 0.0
C1526 C 0.9956 0.53892 0.40534 0.0
C1527 C 0.02765 0.54276 0.40487 0.0
H1528 H 0.54082 0.0647 0.36822 0.0
H1529 H 0.58324 0.01653 0.41623 0.0
H1530 H 0.53353 0.96203 0.40771 0.0
H1531 H 0.47756 0.92887 0.38769 0.0
H1532 H 0.43749 0.97764 0.33707 0.0
H1533 H 0.48615 0.0315 0.34683 0.0
C1534 C 0.53912 0.04221 0.37684 0.0
C1535 C 0.56536 0.04445 0.393 0.0
C1536 C 0.51067 0.01132 0.3719 0.0
C1537 C 0.56329 0.01525 0.40366 0.0
C1538 C 0.53483 0.98424 0.39896 0.0
C1539 C 0.47952 0.95117 0.37849 0.0
C1540 C 0.45358 0.94893 0.36169 0.0
C1541 C 0.50827 0.98206 0.38327 0.0
C1542 C 0.45648 0.97839 0.35056 0.0
C1543 C 0.48459 0.00927 0.3558 0.0
H1544 H 0.54649 0.49144 0.42487 0.0
H1545 H 0.4647 0.42896 0.37091 0.0
H1546 H 0.4552 0.47552 0.3618 0.0
H1547 H 0.47352 0.53508 0.36554 0.0
H1548 H 0.55708 0.59849 0.41745 0.0
H1549 H 0.56348 0.55062 0.43002 0.0
C1550 C 0.5266 0.48796 0.41105 0.0
C1551 C 0.5066 0.45673 0.39836 0.0
C1552 C 0.52208 0.51516 0.40508 0.0
C1553 C 0.48034 0.45252 0.38116 0.0
C1554 C 0.47514 0.47928 0.37566 0.0
C1555 C 0.49282 0.53837 0.37997 0.0
C1556 C 0.51476 0.57031 0.39064 0.0
C1557 C 0.49636 0.51086 0.38699 0.0
C1558 C 0.54008 0.57425 0.4088 0.0
C1559 C 0.54359 0.54687 0.4161 0.0
H1560 H 0.52322 0.05292 0.8693 0.0
H1561 H 0.43783 0.01932 0.92256 0.0
H1562 H 0.43195 0.96352 0.92464 0.0
H1563 H 0.45157 0.92501 0.91154 0.0
H1564 H 0.53296 0.95723 0.85342 0.0
H1565 H 0.54108 0.01338 0.85428 0.0
C1566 C 0.50328 0.03323 0.88126 0.0
C1567 C 0.48094 0.03993 0.89578 0.0
C1568 C 0.49981 1.00129 0.88193 0.0
C1569 C 0.45509 0.01446 0.91112 0.0
C1570 C 0.45192 0.98274 0.91242 0.0
C1571 C 0.47078 0.94396 0.89859 0.0
C1572 C 0.49143 0.93627 0.88232 0.0
C1573 C 0.47416 0.9759 0.89788 0.0
C1574 C 0.51694 0.96202 0.86662 0.0
C1575 C 0.52135 0.99422 0.86673 0.0
H1576 H 0.46753 0.53393 0.88127 0.0
H1577 H 0.41398 0.44012 0.8381 0.0
H1578 H 0.46199 0.43179 0.84253 0.0
H1579 H 0.5202 0.45282 0.85616 0.0
H1580 H 0.57435 0.54759 0.89767 0.0
H1581 H 0.52533 0.5546 0.8954 0.0
C1582 C 0.46639 0.51175 0.87261 0.0
C1583 C 0.43729 0.48783 0.85912 0.0
C1584 C 0.49431 0.50758 0.87458 0.0
C1585 C 0.43595 0.4588 0.84874 0.0
C1586 C 0.46349 0.45418 0.85105 0.0
C1587 C 0.52112 0.47482 0.86499 0.0
C1588 C 0.55079 0.49969 0.87709 0.0
C1589 C 0.49291 0.47861 0.8636 0.0
C1590 C 0.55187 0.52834 0.88801 0.0
C1591 C 0.52382 0.53221 0.88687 0.0
H1592 H 0.01786 0.54208 0.88927 0.0
H1593 H 0.04518 0.50876 0.81587 0.0
H1594 H 0.993 0.45569 0.81771 0.0
H1595 H 0.93947 0.41882 0.83983 0.0
H1596 H 0.91083 0.45142 0.91287 0.0
H1597 H 0.96366 0.50441 0.91183 0.0
C1598 C 0.01206 0.52325 0.87359 0.0
C1599 C 0.03516 0.52921 0.85246 0.0
C1600 C 0.98205 0.49251 0.87495 0.0
C1601 C 0.02769 0.50459 0.83236 0.0
C1602 C 0.99796 0.47422 0.83345 0.0
C1603 C 0.94512 0.43725 0.85584 0.0
C1604 C 0.92156 0.43112 0.87657 0.0
C1605 C 0.97509 0.4678 0.85475 0.0
C1606 C 0.92878 0.45558 0.89679 0.0
C1607 C 0.95885 0.48592 0.89611 0.0
H1608 H 0.93466 0.47179 0.60626 0.0
H1609 H 0.97231 0.55038 0.66715 0.0
H1610 H 0.02681 0.55444 0.66491 0.0
H1611 H 0.0635 0.53489 0.64667 0.0
H1612 H 0.02556 0.45465 0.58756 0.0
H1613 H 0.97082 0.45081 0.58927 0.0
C1614 C 0.9546 0.4896 0.61931 0.0
C1615 C 0.94916 0.51082 0.63678 0.0
C1616 C 0.98567 0.49108 0.61864 0.0
C1617 C 0.97573 0.53418 0.65305 0.0
C1618 C 0.00688 0.53625 0.65207 0.0
C1619 C 0.04324 0.5166 0.63412 0.0
C1620 C 0.04859 0.49522 0.61688 0.0
C1621 C 0.01206 0.51473 0.63506 0.0
C1622 C 0.02198 0.47121 0.60113 0.0
C1623 C 0.99081 0.46924 0.60192 0.0
H1624 H 0.51078 0.06788 0.61887 0.0
H1625 H 0.56714 0.03259 0.57317 0.0
H1626 H 0.51858 0.97607 0.57269 0.0
H1627 H 0.46107 0.93675 0.587 0.0
H1628 H 0.40722 0.97212 0.63653 0.0
H1629 H 0.45329 0.02898 0.63239 0.0
C1630 C 0.51227 0.0479 0.60841 0.0
C1631 C 0.54232 0.0543 0.59588 0.0
C1632 C 0.4846 0.01565 0.60864 0.0
C1633 C 0.54422 0.02812 0.58298 0.0
C1634 C 0.51648 0.99594 0.58265 0.0
C1635 C 0.45938 0.9568 0.59704 0.0
C1636 C 0.43056 0.94984 0.61222 0.0
C1637 C 0.48667 0.98937 0.59572 0.0
C1638 C 0.42865 0.97648 0.62436 0.0
C1639 C 0.45525 0.00908 0.62233 0.0
H1640 H 0.49928 0.43886 0.61391 0.0
H1641 H 0.56446 0.47888 0.68399 0.0
H1642 H 0.5631 0.53108 0.68025 0.0
H1643 H 0.54133 0.56444 0.65802 0.0
H1644 H 0.47677 0.52443 0.58752 0.0
H1645 H 0.48049 0.47353 0.58992 0.0
C1646 C 0.51291 0.45899 0.62843 0.0
C1647 C 0.53146 0.45502 0.64945 0.0
C1648 C 0.51255 0.48909 0.62578 0.0
C1649 C 0.54972 0.48143 0.66782 0.0
C1650 C 0.5491 0.51127 0.66559 0.0
C1651 C 0.52882 0.54489 0.64282 0.0
C1652 C 0.5089 0.54811 0.6226 0.0
C1653 C 0.53054 0.51539 0.64468 0.0
C1654 C 0.49231 0.52241 0.60323 0.0
C1655 C 0.49419 0.49323 0.60474 0.0
H1656 H 0.70037 0.23935 0.09124 0.0
H1657 H 0.71817 0.23376 0.17788 0.0
H1658 H 0.6593 0.21268 0.18777 0.0
H1659 H 0.60146 0.18728 0.17086 0.0
H1660 H 0.58336 0.19092 0.08431 0.0
H1661 H 0.64349 0.2218 0.07532 0.0
C1662 C 0.69153 0.23417 0.11236 0.0
C1663 C 0.71365 0.23758 0.13369 0.0
C1664 C 0.65744 0.22156 0.1179 0.0
C1665 C 0.70174 0.23108 0.16097 0.0
C1666 C 0.66798 0.21889 0.16668 0.0
C1667 C 0.61087 0.19607 0.15025 0.0
C1668 C 0.5883 0.18738 0.12829 0.0
C1669 C 0.64541 0.21286 0.1452 0.0
C1670 C 0.60047 0.19797 0.10151 0.0
C1671 C 0.6348 0.21523 0.09637 0.0
H1672 H 0.45113 0.58998 0.0745 0.0
H1673 H 0.39188 0.57729 0.14685 0.0
H1674 H 0.4211 0.63786 0.1538 0.0
H1675 H 0.47017 0.6931 0.1437 0.0
H1676 H 0.53145 0.70395 0.07294 0.0
H1677 H 0.49487 0.64564 0.06093 0.0
C1678 C 0.44412 0.60063 0.09139 0.0
C1679 C 0.41977 0.57937 0.1103 0.0
C1680 C 0.46189 0.63513 0.09584 0.0
C1681 C 0.41053 0.59327 0.13197 0.0
C1682 C 0.42752 0.62784 0.13613 0.0
C1683 C 0.47503 0.68283 0.12534 0.0
C1684 C 0.50378 0.70261 0.10952 0.0
C1685 C 0.45428 0.64887 0.1189 0.0
C1686 C 0.50979 0.68905 0.08574 0.0
C1687 C 0.48887 0.65571 0.07881 0.0
H1688 H 0.77454 0.47361 0.16123 0.0
H1689 H 0.77516 0.47234 0.07227 0.0
H1690 H 0.79865 0.43541 0.07286 0.0
H1691 H 0.82756 0.41129 0.0985 0.0
H1692 H 0.82785 0.41292 0.18717 0.0
H1693 H 0.7951 0.44144 0.18696 0.0
C1694 C 0.77912 0.46468 0.14197 0.0
C1695 C 0.77371 0.47635 0.11676 0.0
C1696 C 0.79307 0.44368 0.14243 0.0
C1697 C 0.7794 0.46412 0.09201 0.0
C1698 C 0.79299 0.44307 0.09229 0.0
C1699 C 0.81938 0.41692 0.11771 0.0
C1700 C 0.82978 0.41001 0.14281 0.0
C1701 C 0.80116 0.43381 0.11734 0.0
C1702 C 0.81964 0.41772 0.16766 0.0
C1703 C 0.80126 0.43431 0.1675 0.0
H1704 H 0.31817 0.78748 0.06893 0.0
H1705 H 0.30723 0.80439 0.15488 0.0
H1706 H 0.36637 0.82502 0.16237 0.0
H1707 H 0.42246 0.84746 0.14278 0.0
H1708 H 0.43425 0.83247 0.05689 0.0
H1709 H 0.37348 0.80143 0.05106 0.0
C1710 C 0.32855 0.79493 0.08944 0.0
C1711 C 0.30847 0.79518 0.11114 0.0
C1712 C 0.36281 0.80743 0.09352 0.0
C1713 C 0.32222 0.80448 0.13768 0.0
C1714 C 0.3561 0.81639 0.142 0.0
C1715 C 0.41152 0.83642 0.12304 0.0
C1716 C 0.43233 0.84209 0.10025 0.0
C1717 C 0.37682 0.81938 0.11983 0.0
C1718 C 0.41837 0.82806 0.07467 0.0
C1719 C 0.38374 0.81063 0.07133 0.0
H1720 H 0.61062 0.42184 0.11276 0.0
H1721 H 0.61946 0.44486 0.19934 0.0
H1722 H 0.59199 0.38533 0.21071 0.0
H1723 H 0.55594 0.3274 0.19543 0.0
H1724 H 0.54658 0.30493 0.10843 0.0
H1725 H 0.58448 0.3634 0.09783 0.0
C1726 C 0.60751 0.41369 0.13408 0.0
C1727 C 0.61664 0.43728 0.15522 0.0
C1728 C 0.59117 0.37956 0.14035 0.0
C1729 C 0.61263 0.42687 0.18282 0.0
C1730 C 0.59666 0.39289 0.18928 0.0
C1731 C 0.56289 0.33513 0.1742 0.0
C1732 C 0.54761 0.312 0.15274 0.0
C1733 C 0.58433 0.36901 0.16816 0.0
C1734 C 0.55738 0.32232 0.12537 0.0
C1735 C 0.57901 0.35583 0.11922 0.0
H1736 H 0.16334 0.57204 0.06671 0.0
H1737 H 0.19241 0.62034 0.14575 0.0
H1738 H 0.22645 0.59415 0.15431 0.0
H1739 H 0.24104 0.55115 0.1419 0.0
H1740 H 0.21203 0.50343 0.06236 0.0
H1741 H 0.18542 0.5361 0.05121 0.0
C1742 C 0.17794 0.5775 0.08544 0.0
C1743 C 0.17543 0.59792 0.10563 0.0
C1744 C 0.1971 0.56211 0.09027 0.0
C1745 C 0.19427 0.60488 0.12987 0.0
C1746 C 0.21343 0.58964 0.13485 0.0
C1747 C 0.22947 0.54838 0.12192 0.0
C1748 C 0.22807 0.52441 0.10322 0.0
C1749 C 0.21402 0.56723 0.11562 0.0
C1750 C 0.21334 0.52148 0.07726 0.0
C1751 C 0.19793 0.54007 0.07088 0.0
H1752 H 0.85822 0.43388 0.34173 0.0
H1753 H 0.84062 0.41993 0.42906 0.0
H1754 H 0.81563 0.35938 0.4235 0.0
H1755 H 0.80877 0.31242 0.39483 0.0
H1756 H 0.83075 0.32781 0.3078 0.0
H1757 H 0.84372 0.38562 0.31203 0.0
C1758 C 0.84754 0.41731 0.35929 0.0
C1759 C 0.85067 0.43094 0.38567 0.0
C1760 C 0.83485 0.38291 0.35603 0.0
C1761 C 0.83775 0.40966 0.40853 0.0
C1762 C 0.82398 0.37518 0.40536 0.0
C1763 C 0.81573 0.32822 0.37669 0.0
C1764 C 0.81944 0.31599 0.35114 0.0
C1765 C 0.82392 0.36175 0.37938 0.0
C1766 C 0.82823 0.33673 0.3278 0.0
C1767 C 0.83564 0.36982 0.33018 0.0
H1768 H 0.47631 0.7826 0.30063 0.0
H1769 H 0.46961 0.76037 0.38763 0.0
H1770 H 0.43184 0.78226 0.39402 0.0
H1771 H 0.40989 0.81753 0.37649 0.0
H1772 H 0.41759 0.84112 0.29003 0.0
H1773 H 0.44544 0.8086 0.28166 0.0
C1774 C 0.46593 0.78176 0.32086 0.0
C1775 C 0.47653 0.77073 0.34371 0.0
C1776 C 0.4447 0.79502 0.32453 0.0
C1777 C 0.46236 0.76925 0.36971 0.0
C1778 C 0.44084 0.78192 0.37346 0.0
C1779 C 0.41669 0.81445 0.35574 0.0
C1780 C 0.41192 0.83145 0.33387 0.0
C1781 C 0.43321 0.79636 0.35127 0.0
C1782 C 0.42094 0.82786 0.30703 0.0
C1783 C 0.43708 0.80956 0.30233 0.0
H1784 H 0.7128 0.48328 0.41837 0.0
H1785 H 0.71132 0.51801 0.33599 0.0
H1786 H 0.65139 0.48018 0.33337 0.0
H1787 H 0.59855 0.4442 0.35713 0.0
H1788 H 0.59905 0.41044 0.43973 0.0
H1789 H 0.66028 0.44049 0.43958 0.0
C1790 C 0.6995 0.48206 0.39962 0.0
C1791 C 0.71641 0.50398 0.37765 0.0
C1792 C 0.66482 0.46063 0.39841 0.0
C1793 C 0.69885 0.50181 0.35339 0.0
C1794 C 0.66453 0.48022 0.35186 0.0
C1795 C 0.61223 0.4428 0.37476 0.0
C1796 C 0.59476 0.42551 0.39845 0.0
C1797 C 0.64714 0.4606 0.37465 0.0
C1798 C 0.61229 0.42362 0.42128 0.0
C1799 C 0.64718 0.44099 0.42124 0.0
H1800 H 0.19449 0.60063 0.39266 0.0
H1801 H 0.1933 0.57457 0.30736 0.0
H1802 H 0.22394 0.63379 0.29467 0.0
H1803 H 0.2428 0.69223 0.30731 0.0
H1804 H 0.24404 0.71775 0.39306 0.0
H1805 H 0.22233 0.65971 0.40617 0.0
C1806 C 0.20193 0.6081 0.37145 0.0
C1807 C 0.19174 0.58362 0.35091 0.0
C1808 C 0.21911 0.64205 0.36436 0.0
C1809 C 0.20122 0.59322 0.32345 0.0
C1810 C 0.21841 0.62701 0.3162 0.0
C1811 C 0.23898 0.68519 0.3289 0.0
C1812 C 0.24434 0.70922 0.34907 0.0
C1813 C 0.22626 0.65159 0.33637 0.0
C1814 C 0.23979 0.69978 0.37701 0.0
C1815 C 0.22722 0.6665 0.38458 0.0
H1816 H 0.6088 0.17721 0.37632 0.0
H1817 H 0.59099 0.14691 0.4614 0.0
H1818 H 0.55813 0.17483 0.46729 0.0
H1819 H 0.52643 0.19848 0.44584 0.0
H1820 H 0.54036 0.22409 0.3594 0.0
H1821 H 0.58303 0.20786 0.3564 0.0
C1822 C 0.59879 0.178 0.39636 0.0
C1823 C 0.60244 0.16055 0.4185 0.0
C1824 C 0.57859 0.19256 0.39912 0.0
C1825 C 0.58875 0.16073 0.44427 0.0
C1826 C 0.56968 0.1763 0.44749 0.0
C1827 C 0.5393 0.2012 0.42649 0.0
C1828 C 0.52978 0.21188 0.40277 0.0
C1829 C 0.56313 0.19087 0.42471 0.0
C1830 C 0.54686 0.21546 0.37789 0.0
C1831 C 0.57127 0.20616 0.37613 0.0
H1832 H 0.42455 0.60251 0.40567 0.0
H1833 H 0.44644 0.61857 0.31891 0.0
H1834 H 0.38674 0.5889 0.30834 0.0
H1835 H 0.32933 0.5498 0.32364 0.0
H1836 H 0.3081 0.53312 0.41073 0.0
H1837 H 0.36632 0.57194 0.42131 0.0
C1838 C 0.4161 0.60041 0.38454 0.0
C1839 C 0.43962 0.61238 0.36307 0.0
C1840 C 0.38188 0.58264 0.37866 0.0
C1841 C 0.42866 0.60967 0.33574 0.0
C1842 C 0.39456 0.59235 0.3297 0.0
C1843 C 0.33728 0.5552 0.34494 0.0
C1844 C 0.31449 0.53789 0.36631 0.0
C1845 C 0.37103 0.57736 0.35094 0.0
C1846 C 0.32514 0.54564 0.39382 0.0
C1847 C 0.35851 0.56782 0.39993 0.0
H1848 H 0.3979 0.83031 0.91712 0.0
H1849 H 0.40911 0.79393 0.83835 0.0
H1850 H 0.34847 0.76058 0.83376 0.0
H1851 H 0.29314 0.75012 0.84836 0.0
H1852 H 0.28242 0.78935 0.92605 0.0
H1853 H 0.34184 0.81278 0.93502 0.0
C1854 C 0.38698 0.81447 0.89924 0.0
C1855 C 0.40786 0.81491 0.87792 0.0
C1856 C 0.35218 0.79625 0.89638 0.0
C1857 C 0.39356 0.79398 0.85504 0.0
C1858 C 0.35888 0.77518 0.8523 0.0
C1859 C 0.3036 0.76313 0.86756 0.0
C1860 C 0.28342 0.76857 0.88622 0.0
C1861 C 0.33801 0.77734 0.87226 0.0
C1862 C 0.29739 0.78513 0.91115 0.0
C1863 C 0.33144 0.79869 0.91625 0.0
H1864 H 0.59479 0.4117 0.84821 0.0
H1865 H 0.59736 0.43149 0.93508 0.0
H1866 H 0.56981 0.37163 0.94509 0.0
H1867 H 0.53607 0.31419 0.92837 0.0
H1868 H 0.5302 0.2945 0.84102 0.0
H1869 H 0.56839 0.35351 0.83193 0.0
C1870 C 0.59046 0.40279 0.86934 0.0
C1871 C 0.59824 0.42566 0.89095 0.0
C1872 C 0.57338 0.36832 0.87477 0.0
C1873 C 0.5919 0.41413 0.91825 0.0
C1874 C 0.57583 0.37994 0.9239 0.0
C1875 C 0.54373 0.32263 0.90738 0.0
C1876 C 0.52969 0.3 0.88539 0.0
C1877 C 0.56504 0.3568 0.90223 0.0
C1878 C 0.54022 0.3114 0.85835 0.0
C1879 C 0.56202 0.34522 0.85309 0.0
H1880 H 0.17171 0.58561 0.88569 0.0
H1881 H 0.14492 0.56482 0.80014 0.0
H1882 H 0.17656 0.53552 0.79636 0.0
H1883 H 0.20102 0.50601 0.82007 0.0
H1884 H 0.22614 0.52495 0.90625 0.0
H1885 H 0.20688 0.56545 0.90706 0.0
C1886 C 0.17414 0.57587 0.86602 0.0
C1887 C 0.15627 0.57717 0.8432 0.0
C1888 C 0.19148 0.55818 0.8643 0.0
C1889 C 0.15888 0.56416 0.81782 0.0
C1890 C 0.17661 0.54714 0.81577 0.0
C1891 C 0.20308 0.51967 0.83883 0.0
C1892 C 0.21409 0.51189 0.86321 0.0
C1893 C 0.19138 0.54242 0.83927 0.0
C1894 C 0.21735 0.53022 0.88726 0.0
C1895 C 0.20613 0.55325 0.8878 0.0
H1896 H 0.67115 0.20359 0.94141 0.0
H1897 H 0.68653 0.22774 0.85475 0.0
H1898 H 0.6274 0.20928 0.84924 0.0
H1899 H 0.57029 0.17633 0.86719 0.0
H1900 H 0.55465 0.14733 0.95266 0.0
H1901 H 0.61486 0.17823 0.96077 0.0
C1902 C 0.66174 0.20557 0.92145 0.0
C1903 C 0.68303 0.21631 0.89841 0.0
C1904 C 0.62754 0.19379 0.91823 0.0
C1905 C 0.67052 0.21901 0.87273 0.0
C1906 C 0.63669 0.20841 0.86955 0.0
C1907 C 0.58016 0.17795 0.88776 0.0
C1908 C 0.55843 0.15979 0.90934 0.0
C1909 C 0.61476 0.19429 0.89187 0.0
C1910 C 0.57119 0.16135 0.93586 0.0
C1911 C 0.60554 0.17872 0.9404 0.0
H1912 H 0.39632 0.58063 0.88066 0.0
H1913 H 0.40834 0.56536 0.79488 0.0
H1914 H 0.43938 0.62577 0.7872 0.0
H1915 H 0.47086 0.68201 0.80668 0.0
H1916 H 0.46167 0.69722 0.89328 0.0
H1917 H 0.42128 0.63799 0.89881 0.0
C1918 C 0.40471 0.59071 0.86014 0.0
C1919 C 0.39993 0.56893 0.83826 0.0
C1920 C 0.42355 0.62542 0.85618 0.0
C1921 C 0.41146 0.58191 0.81184 0.0
C1922 C 0.42947 0.61637 0.80756 0.0
C1923 C 0.45952 0.67254 0.82667 0.0
C1924 C 0.46981 0.69394 0.84963 0.0
C1925 C 0.4369 0.6383 0.82984 0.0
C1926 C 0.45451 0.68129 0.87529 0.0
C1927 C 0.43148 0.64734 0.87851 0.0
H1928 H 0.75314 0.44931 0.82318 0.0
H1929 H 0.74971 0.4666 0.91026 0.0
H1930 H 0.76927 0.42776 0.92079 0.0
H1931 H 0.7976 0.39769 0.90492 0.0
H1932 H 0.80142 0.38027 0.81822 0.0
H1933 H 0.77101 0.40979 0.80785 0.0
C1934 C 0.75583 0.44394 0.84448 0.0
C1935 C 0.75086 0.46161 0.86582 0.0
C1936 C 0.76752 0.42175 0.85046 0.0
C1937 C 0.75391 0.45386 0.89334 0.0
C1938 C 0.76525 0.4317 0.89944 0.0
C1939 C 0.79059 0.39935 0.8839 0.0
C1940 C 0.80161 0.38704 0.86233 0.0
C1941 C 0.77367 0.4168 0.87813 0.0
C1942 C 0.7928 0.38939 0.8351 0.0
C1943 C 0.77578 0.40658 0.82918 0.0
H1944 H 0.16791 0.5836 0.64808 0.0
H1945 H 0.17694 0.56775 0.56186 0.0
H1946 H 0.21284 0.62802 0.55486 0.0
H1947 H 0.2332 0.68497 0.57207 0.0
H1948 H 0.22254 0.70034 0.65841 0.0
H1949 H 0.19659 0.64057 0.6668 0.0
C1950 C 0.17867 0.59346 0.62799 0.0
C1951 C 0.17 0.57176 0.60546 0.0
C1952 C 0.19864 0.62797 0.62414 0.0
C1953 C 0.18364 0.58432 0.57942 0.0
C1954 C 0.20389 0.61869 0.57544 0.0
C1955 C 0.22595 0.67536 0.59284 0.0
C1956 C 0.22904 0.69703 0.61443 0.0
C1957 C 0.21036 0.6408 0.59744 0.0
C1958 C 0.21999 0.6842 0.6413 0.0
C1959 C 0.20497 0.64995 0.64613 0.0
H1960 H 0.53235 0.23813 0.62681 0.0
H1961 H 0.48373 0.19896 0.54884 0.0
H1962 H 0.52183 0.17799 0.5392 0.0
H1963 H 0.56128 0.16165 0.55689 0.0
H1964 H 0.60573 0.19595 0.63692 0.0
H1965 H 0.57809 0.22899 0.6413 0.0
C1966 C 0.53066 0.2258 0.60738 0.0
C1967 C 0.50482 0.21949 0.58882 0.0
C1968 C 0.55186 0.2127 0.60244 0.0
C1969 C 0.50307 0.20362 0.56368 0.0
C1970 C 0.52481 0.19156 0.55817 0.0
C1971 C 0.56546 0.17696 0.57502 0.0
C1972 C 0.58499 0.1758 0.59675 0.0
C1973 C 0.54812 0.19449 0.57803 0.0
C1974 C 0.59084 0.19633 0.61986 0.0
C1975 C 0.57466 0.21492 0.62255 0.0
H1976 H 0.40835 0.55973 0.59327 0.0
H1977 H 0.42661 0.59254 0.67765 0.0
H1978 H 0.36673 0.55961 0.68775 0.0
H1979 H 0.31061 0.51508 0.67383 0.0
H1980 H 0.29327 0.48253 0.58902 0.0
H1981 H 0.35111 0.52199 0.57776 0.0
C1982 C 0.39895 0.56043 0.61361 0.0
C1983 C 0.42154 0.57843 0.6347 0.0
C1984 C 0.36474 0.54102 0.61928 0.0
C1985 C 0.40944 0.57907 0.66108 0.0
C1986 C 0.3753 0.55996 0.66689 0.0
C1987 C 0.31934 0.51703 0.65279 0.0
C1988 C 0.29769 0.49533 0.63246 0.0
C1989 C 0.35288 0.53981 0.64638 0.0
C1990 C 0.30936 0.49856 0.60521 0.0
C1991 C 0.34253 0.52113 0.5987 0.0
H1992 H 0.76 0.32013 0.66997 0.0
H1993 H 0.77777 0.31174 0.58374 0.0
H1994 H 0.80554 0.37219 0.5788 0.0
H1995 H 0.8325 0.42753 0.60059 0.0
H1996 H 0.81536 0.43657 0.68655 0.0
H1997 H 0.77914 0.37588 0.68996 0.0
C1998 C 0.76935 0.33148 0.64997 0.0
C1999 C 0.76736 0.3114 0.6274 0.0
C2000 C 0.7856 0.36643 0.64728 0.0
C2001 C 0.77918 0.32651 0.60154 0.0
C2002 C 0.79523 0.36116 0.59869 0.0
C2003 C 0.81994 0.41617 0.61981 0.0
C2004 C 0.8265 0.43619 0.64331 0.0
C2005 C 0.7997 0.38137 0.62164 0.0
C2006 C 0.81036 0.42149 0.66819 0.0
C2007 C 0.78997 0.38682 0.67017 0.0
H2008 H 0.48148 0.79948 0.66046 0.0
H2009 H 0.45674 0.76334 0.57695 0.0
H2010 H 0.41481 0.78058 0.57525 0.0
H2011 H 0.39155 0.81391 0.59488 0.0
H2012 H 0.41753 0.85167 0.67754 0.0
H2013 H 0.45205 0.82542 0.68245 0.0
C2014 C 0.46647 0.79476 0.64208 0.0
C2015 C 0.47277 0.78069 0.61871 0.0
C2016 C 0.44262 0.80519 0.64107 0.0
C2017 C 0.45278 0.77447 0.59517 0.0
C2018 C 0.42878 0.7844 0.59412 0.0
C2019 C 0.40382 0.81522 0.61425 0.0
C2020 C 0.40186 0.83422 0.63595 0.0
C2021 C 0.42435 0.80089 0.61656 0.0
C2022 C 0.4184 0.83662 0.6608 0.0
C2023 C 0.43839 0.82196 0.66345 0.0
H2024 H 0.61794 0.42018 0.68629 0.0
H2025 H 0.59386 0.38854 0.60198 0.0
H2026 H 0.65323 0.41346 0.59084 0.0
H2027 H 0.71086 0.45464 0.60314 0.0
H2028 H 0.73435 0.48845 0.68733 0.0
H2029 H 0.67658 0.45147 0.70074 0.0
C2030 C 0.62585 0.41765 0.6658 0.0
C2031 C 0.60205 0.40283 0.6449 0.0
C2032 C 0.65989 0.4329 0.65947 0.0
C2033 C 0.61208 0.39976 0.61831 0.0
C2034 C 0.64595 0.41429 0.61193 0.0
C2035 C 0.70359 0.45316 0.62458 0.0
C2036 C 0.72659 0.47508 0.64401 0.0
C2037 C 0.67005 0.43253 0.63202 0.0
C2038 C 0.71692 0.47241 0.6718 0.0
C2039 C 0.68383 0.45136 0.67951 0.0
loop_
_geom_bond_atom_site_label_1
_geom_bond_atom_site_label_2
_geom_bond_distance
_geom_bond_site_symmetry_2
_ccdc_geom_bond_type
O0 Tb1 2.292 . S
O0 C3 1.255 . S
Tb1 O0 2.292 . S
Tb1 O17 2.326 . S
Tb1 O19 2.500 . S
Tb1 O20 2.473 . S
Tb1 O23 2.324 . S
Eu2 O6 2.292 . S
Eu2 C7 2.852 . S
Eu2 O18 2.324 . S
Eu2 O22 2.326 . S
Eu2 O24 2.500 . S
Eu2 O25 2.473 . S
C3 O0 1.255 . S
C3 O4 1.247 . S
O4 C3 1.247 . S
C5 O17 1.242 . S
C5 O18 1.258 . S
O6 Eu2 2.292 . S
O6 C8 1.255 . S
C7 Eu2 2.852 . S
C7 C11 1.503 . S
C7 O24 1.273 . S
C7 O25 1.257 . S
C8 O6 1.255 . S
C8 O9 1.247 . S
O9 C8 1.247 . S
C10 O22 1.242 . S
C10 O23 1.258 . S
C11 C7 1.503 . S
C11 C12 1.379 . S
C11 C16 1.392 . S
C12 C11 1.379 . S
C12 C13 1.404 . S
C12 H26 0.929 . S
C13 C12 1.404 . S
C13 C14 1.389 . S
C14 C13 1.389 . S
C14 C15 1.399 . S
C14 H27 0.931 . S
C15 C14 1.399 . S
C15 C16 1.390 . S
C16 C11 1.392 . S
C16 C15 1.390 . S
C16 H28 0.929 . S
O17 Tb1 2.326 . S
O17 C5 1.242 . S
O18 Eu2 2.324 . S
O18 C5 1.258 . S
O19 Tb1 2.500 . S
O19 C21 1.273 . S
O20 Tb1 2.473 . S
O20 C21 1.257 . S
C21 O19 1.273 . S
C21 O20 1.257 . S
O22 Eu2 2.326 . S
O22 C10 1.242 . S
O23 Tb1 2.324 . S
O23 C10 1.258 . S
O24 Eu2 2.500 . S
O24 C7 1.273 . S
O25 Eu2 2.473 . S
O25 C7 1.257 . S
H26 C12 0.929 . S
H27 C14 0.931 . S
H28 C16 0.929 . S
O29 Tb30 2.292 . S
O29 C32 1.255 . S
Tb30 O29 2.292 . S
Tb30 O46 2.326 . S
Tb30 O48 2.500 . S
Tb30 O49 2.473 . S
Tb30 O52 2.324 . S
Eu31 O35 2.292 . S
Eu31 C36 2.852 . S
Eu31 O47 2.324 . S
Eu31 O51 2.326 . S
Eu31 O53 2.500 . S
Eu31 O54 2.473 . S
C32 O29 1.255 . S
C32 O33 1.247 . S
O33 C32 1.247 . S
C34 O46 1.242 . S
C34 O47 1.258 . S
O35 Eu31 2.292 . S
O35 C37 1.255 . S
C36 Eu31 2.852 . S
C36 C40 1.503 . S
C36 O53 1.273 . S
C36 O54 1.257 . S
C37 O35 1.255 . S
C37 O38 1.247 . S
O38 C37 1.247 . S
C39 O51 1.242 . S
C39 O52 1.258 . S
C40 C36 1.503 . S
C40 C41 1.379 . S
C40 C45 1.392 . S
C41 C40 1.379 . S
C41 C42 1.404 . S
C41 H55 0.929 . S
C42 C41 1.404 . S
C42 C43 1.389 . S
C43 C42 1.389 . S
C43 C44 1.399 . S
C43 H56 0.931 . S
C44 C43 1.399 . S
C44 C45 1.390 . S
C45 C40 1.392 . S
C45 C44 1.390 . S
C45 H57 0.929 . S
O46 Tb30 2.326 . S
O46 C34 1.242 . S
O47 Eu31 2.324 . S
O47 C34 1.258 . S
O48 Tb30 2.500 . S
O48 C50 1.273 . S
O49 Tb30 2.473 . S
O49 C50 1.257 . S
C50 O48 1.273 . S
C50 O49 1.257 . S
O51 Eu31 2.326 . S
O51 C39 1.242 . S
O52 Tb30 2.324 . S
O52 C39 1.258 . S
O53 Eu31 2.500 . S
O53 C36 1.273 . S
O54 Eu31 2.473 . S
O54 C36 1.257 . S
H55 C41 0.929 . S
H56 C43 0.931 . S
H57 C45 0.929 . S
O58 Tb59 2.292 . S
O58 C61 1.255 . S
Tb59 O58 2.292 . S
Tb59 O75 2.326 . S
Tb59 O77 2.500 . S
Tb59 O78 2.473 . S
Tb59 O81 2.324 . S
Eu60 O64 2.292 . S
Eu60 C65 2.852 . S
Eu60 O76 2.324 . S
Eu60 O80 2.326 . S
Eu60 O82 2.500 . S
Eu60 O83 2.473 . S
C61 O58 1.255 . S
C61 O62 1.247 . S
O62 C61 1.247 . S
C63 O75 1.242 . S
C63 O76 1.258 . S
O64 Eu60 2.292 . S
O64 C66 1.255 . S
C65 Eu60 2.852 . S
C65 C69 1.503 . S
C65 O82 1.273 . S
C65 O83 1.257 . S
C66 O64 1.255 . S
C66 O67 1.247 . S
O67 C66 1.247 . S
C68 O80 1.242 . S
C68 O81 1.258 . S
C69 C65 1.503 . S
C69 C70 1.379 . S
C69 C74 1.392 . S
C70 C69 1.379 . S
C70 C71 1.404 . S
C70 H84 0.929 . S
C71 C70 1.404 . S
C71 C72 1.389 . S
C72 C71 1.389 . S
C72 C73 1.399 . S
C72 H85 0.931 . S
C73 C72 1.399 . S
C73 C74 1.390 . S
C74 C69 1.392 . S
C74 C73 1.390 . S
C74 H86 0.929 . S
O75 Tb59 2.326 . S
O75 C63 1.242 . S
O76 Eu60 2.324 . S
O76 C63 1.258 . S
O77 Tb59 2.500 . S
O77 C79 1.273 . S
O78 Tb59 2.473 . S
O78 C79 1.257 . S
C79 O77 1.273 . S
C79 O78 1.257 . S
O80 Eu60 2.326 . S
O80 C68 1.242 . S
O81 Tb59 2.324 . S
O81 C68 1.258 . S
O82 Eu60 2.500 . S
O82 C65 1.273 . S
O83 Eu60 2.473 . S
O83 C65 1.257 . S
H84 C70 0.929 . S
H85 C72 0.931 . S
H86 C74 0.929 . S
O87 Tb88 2.292 . S
O87 C90 1.255 . S
Tb88 O87 2.292 . S
Tb88 O104 2.326 . S
Tb88 O106 2.500 . S
Tb88 O107 2.473 . S
Tb88 O110 2.324 . S
Eu89 O93 2.292 . S
Eu89 C94 2.852 . S
Eu89 O105 2.324 . S
Eu89 O109 2.326 . S
Eu89 O111 2.500 . S
Eu89 O112 2.473 . S
C90 O87 1.255 . S
C90 O91 1.247 . S
O91 C90 1.247 . S
C92 O104 1.242 . S
C92 O105 1.258 . S
O93 Eu89 2.292 . S
O93 C95 1.255 . S
C94 Eu89 2.852 . S
C94 C98 1.503 . S
C94 O111 1.273 . S
C94 O112 1.257 . S
C95 O93 1.255 . S
C95 O96 1.247 . S
O96 C95 1.247 . S
C97 O109 1.242 . S
C97 O110 1.258 . S
C98 C94 1.503 . S
C98 C99 1.379 . S
C98 C103 1.392 . S
C99 C98 1.379 . S
C99 C100 1.404 . S
C99 H113 0.929 . S
C100 C99 1.404 . S
C100 C101 1.389 . S
C101 C100 1.389 . S
C101 C102 1.399 . S
C101 H114 0.931 . S
C102 C101 1.399 . S
C102 C103 1.390 . S
C103 C98 1.392 . S
C103 C102 1.390 . S
C103 H115 0.929 . S
O104 Tb88 2.326 . S
O104 C92 1.242 . S
O105 Eu89 2.324 . S
O105 C92 1.258 . S
O106 Tb88 2.500 . S
O106 C108 1.273 . S
O107 Tb88 2.473 . S
O107 C108 1.257 . S
C108 O106 1.273 . S
C108 O107 1.257 . S
O109 Eu89 2.326 . S
O109 C97 1.242 . S
O110 Tb88 2.324 . S
O110 C97 1.258 . S
O111 Eu89 2.500 . S
O111 C94 1.273 . S
O112 Eu89 2.473 . S
O112 C94 1.257 . S
H113 C99 0.929 . S
H114 C101 0.931 . S
H115 C103 0.929 . S
O116 Tb117 2.292 . S
O116 C119 1.255 . S
Tb117 O116 2.292 . S
Tb117 O133 2.326 . S
Tb117 O135 2.500 . S
Tb117 O136 2.473 . S
Tb117 O139 2.324 . S
Eu118 O122 2.292 . S
Eu118 C123 2.852 . S
Eu118 O134 2.324 . S
Eu118 O138 2.326 . S
Eu118 O140 2.500 . S
Eu118 O141 2.473 . S
C119 O116 1.255 . S
C119 O120 1.247 . S
O120 C119 1.247 . S
C121 O133 1.242 . S
C121 O134 1.258 . S
O122 Eu118 2.292 . S
O122 C124 1.255 . S
C123 Eu118 2.852 . S
C123 C127 1.503 . S
C123 O140 1.273 . S
C123 O141 1.257 . S
C124 O122 1.255 . S
C124 O125 1.247 . S
O125 C124 1.247 . S
C126 O138 1.242 . S
C126 O139 1.258 . S
C127 C123 1.503 . S
C127 C128 1.379 . S
C127 C132 1.392 . S
C128 C127 1.379 . S
C128 C129 1.404 . S
C128 H142 0.929 . S
C129 C128 1.404 . S
C129 C130 1.389 . S
C130 C129 1.389 . S
C130 C131 1.399 . S
C130 H143 0.931 . S
C131 C130 1.399 . S
C131 C132 1.390 . S
C132 C127 1.392 . S
C132 C131 1.390 . S
C132 H144 0.929 . S
O133 Tb117 2.326 . S
O133 C121 1.242 . S
O134 Eu118 2.324 . S
O134 C121 1.258 . S
O135 Tb117 2.500 . S
O135 C137 1.273 . S
O136 Tb117 2.473 . S
O136 C137 1.257 . S
C137 O135 1.273 . S
C137 O136 1.257 . S
O138 Eu118 2.326 . S
O138 C126 1.242 . S
O139 Tb117 2.324 . S
O139 C126 1.258 . S
O140 Eu118 2.500 . S
O140 C123 1.273 . S
O141 Eu118 2.473 . S
O141 C123 1.257 . S
H142 C128 0.929 . S
H143 C130 0.931 . S
H144 C132 0.929 . S
O145 Tb146 2.292 . S
O145 C148 1.255 . S
Tb146 O145 2.292 . S
Tb146 O162 2.326 . S
Tb146 O164 2.500 . S
Tb146 O165 2.473 . S
Tb146 O168 2.324 . S
Eu147 O151 2.292 . S
Eu147 C152 2.852 . S
Eu147 O163 2.324 . S
Eu147 O167 2.326 . S
Eu147 O169 2.500 . S
Eu147 O170 2.473 . S
C148 O145 1.255 . S
C148 O149 1.247 . S
O149 C148 1.247 . S
C150 O162 1.242 . S
C150 O163 1.258 . S
O151 Eu147 2.292 . S
O151 C153 1.255 . S
C152 Eu147 2.852 . S
C152 C156 1.503 . S
C152 O169 1.273 . S
C152 O170 1.257 . S
C153 O151 1.255 . S
C153 O154 1.247 . S
O154 C153 1.247 . S
C155 O167 1.242 . S
C155 O168 1.258 . S
C156 C152 1.503 . S
C156 C157 1.379 . S
C156 C161 1.392 . S
C157 C156 1.379 . S
C157 C158 1.404 . S
C157 H171 0.929 . S
C158 C157 1.404 . S
C158 C159 1.389 . S
C159 C158 1.389 . S
C159 C160 1.399 . S
C159 H172 0.931 . S
C160 C159 1.399 . S
C160 C161 1.390 . S
C161 C156 1.392 . S
C161 C160 1.390 . S
C161 H173 0.929 . S
O162 Tb146 2.326 . S
O162 C150 1.242 . S
O163 Eu147 2.324 . S
O163 C150 1.258 . S
O164 Tb146 2.500 . S
O164 C166 1.273 . S
O165 Tb146 2.473 . S
O165 C166 1.257 . S
C166 O164 1.273 . S
C166 O165 1.257 . S
O167 Eu147 2.326 . S
O167 C155 1.242 . S
O168 Tb146 2.324 . S
O168 C155 1.258 . S
O169 Eu147 2.500 . S
O169 C152 1.273 . S
O170 Eu147 2.473 . S
O170 C152 1.257 . S
H171 C157 0.929 . S
H172 C159 0.931 . S
H173 C161 0.929 . S
O174 Tb175 2.292 . S
O174 C177 1.255 . S
Tb175 O174 2.292 . S
Tb175 O191 2.326 . S
Tb175 O193 2.500 . S
Tb175 O194 2.473 . S
Tb175 O197 2.324 . S
Eu176 O180 2.292 . S
Eu176 C181 2.852 . S
Eu176 O192 2.324 . S
Eu176 O196 2.326 . S
Eu176 O198 2.500 . S
Eu176 O199 2.473 . S
C177 O174 1.255 . S
C177 O178 1.247 . S
O178 C177 1.247 . S
C179 O191 1.242 . S
C179 O192 1.258 . S
O180 Eu176 2.292 . S
O180 C182 1.255 . S
C181 Eu176 2.852 . S
C181 C185 1.503 . S
C181 O198 1.273 . S
C181 O199 1.257 . S
C182 O180 1.255 . S
C182 O183 1.247 . S
O183 C182 1.247 . S
C184 O196 1.242 . S
C184 O197 1.258 . S
C185 C181 1.503 . S
C185 C186 1.379 . S
C185 C190 1.392 . S
C186 C185 1.379 . S
C186 C187 1.404 . S
C186 H200 0.929 . S
C187 C186 1.404 . S
C187 C188 1.389 . S
C188 C187 1.389 . S
C188 C189 1.399 . S
C188 H201 0.931 . S
C189 C188 1.399 . S
C189 C190 1.390 . S
C190 C185 1.392 . S
C190 C189 1.390 . S
C190 H202 0.929 . S
O191 Tb175 2.326 . S
O191 C179 1.242 . S
O192 Eu176 2.324 . S
O192 C179 1.258 . S
O193 Tb175 2.500 . S
O193 C195 1.273 . S
O194 Tb175 2.473 . S
O194 C195 1.257 . S
C195 O193 1.273 . S
C195 O194 1.257 . S
O196 Eu176 2.326 . S
O196 C184 1.242 . S
O197 Tb175 2.324 . S
O197 C184 1.258 . S
O198 Eu176 2.500 . S
O198 C181 1.273 . S
O199 Eu176 2.473 . S
O199 C181 1.257 . S
H200 C186 0.929 . S
H201 C188 0.931 . S
H202 C190 0.929 . S
O203 Tb204 2.292 . S
O203 C206 1.255 . S
Tb204 O203 2.292 . S
Tb204 O220 2.326 . S
Tb204 O222 2.500 . S
Tb204 O223 2.473 . S
Tb204 O226 2.324 . S
Eu205 O209 2.292 . S
Eu205 C210 2.852 . S
Eu205 O221 2.324 . S
Eu205 O225 2.326 . S
Eu205 O227 2.500 . S
Eu205 O228 2.473 . S
C206 O203 1.255 . S
C206 O207 1.247 . S
O207 C206 1.247 . S
C208 O220 1.242 . S
C208 O221 1.258 . S
O209 Eu205 2.292 . S
O209 C211 1.255 . S
C210 Eu205 2.852 . S
C210 C214 1.503 . S
C210 O227 1.273 . S
C210 O228 1.257 . S
C211 O209 1.255 . S
C211 O212 1.247 . S
O212 C211 1.247 . S
C213 O225 1.242 . S
C213 O226 1.258 . S
C214 C210 1.503 . S
C214 C215 1.379 . S
C214 C219 1.392 . S
C215 C214 1.379 . S
C215 C216 1.404 . S
C215 H229 0.929 . S
C216 C215 1.404 . S
C216 C217 1.389 . S
C217 C216 1.389 . S
C217 C218 1.399 . S
C217 H230 0.931 . S
C218 C217 1.399 . S
C218 C219 1.390 . S
C219 C214 1.392 . S
C219 C218 1.390 . S
C219 H231 0.929 . S
O220 Tb204 2.326 . S
O220 C208 1.242 . S
O221 Eu205 2.324 . S
O221 C208 1.258 . S
O222 Tb204 2.500 . S
O222 C224 1.273 . S
O223 Tb204 2.473 . S
O223 C224 1.257 . S
C224 O222 1.273 . S
C224 O223 1.257 . S
O225 Eu205 2.326 . S
O225 C213 1.242 . S
O226 Tb204 2.324 . S
O226 C213 1.258 . S
O227 Eu205 2.500 . S
O227 C210 1.273 . S
O228 Eu205 2.473 . S
O228 C210 1.257 . S
H229 C215 0.929 . S
H230 C217 0.931 . S
H231 C219 0.929 . S
O232 Tb233 2.292 . S
O232 C235 1.255 . S
Tb233 O232 2.292 . S
Tb233 O249 2.326 . S
Tb233 O251 2.500 . S
Tb233 O252 2.473 . S
Tb233 O255 2.324 . S
Eu234 O238 2.292 . S
Eu234 C239 2.852 . S
Eu234 O250 2.324 . S
Eu234 O254 2.326 . S
Eu234 O256 2.500 . S
Eu234 O257 2.473 . S
C235 O232 1.255 . S
C235 O236 1.247 . S
O236 C235 1.247 . S
C237 O249 1.242 . S
C237 O250 1.258 . S
O238 Eu234 2.292 . S
O238 C240 1.255 . S
C239 Eu234 2.852 . S
C239 C243 1.503 . S
C239 O256 1.273 . S
C239 O257 1.257 . S
C240 O238 1.255 . S
C240 O241 1.247 . S
O241 C240 1.247 . S
C242 O254 1.242 . S
C242 O255 1.258 . S
C243 C239 1.503 . S
C243 C244 1.379 . S
C243 C248 1.392 . S
C244 C243 1.379 . S
C244 C245 1.404 . S
C244 H258 0.929 . S
C245 C244 1.404 . S
C245 C246 1.389 . S
C246 C245 1.389 . S
C246 C247 1.399 . S
C246 H259 0.931 . S
C247 C246 1.399 . S
C247 C248 1.390 . S
C248 C243 1.392 . S
C248 C247 1.390 . S
C248 H260 0.929 . S
O249 Tb233 2.326 . S
O249 C237 1.242 . S
O250 Eu234 2.324 . S
O250 C237 1.258 . S
O251 Tb233 2.500 . S
O251 C253 1.273 . S
O252 Tb233 2.473 . S
O252 C253 1.257 . S
C253 O251 1.273 . S
C253 O252 1.257 . S
O254 Eu234 2.326 . S
O254 C242 1.242 . S
O255 Tb233 2.324 . S
O255 C242 1.258 . S
O256 Eu234 2.500 . S
O256 C239 1.273 . S
O257 Eu234 2.473 . S
O257 C239 1.257 . S
H258 C244 0.929 . S
H259 C246 0.931 . S
H260 C248 0.929 . S
O261 Tb262 2.292 . S
O261 C264 1.255 . S
Tb262 O261 2.292 . S
Tb262 O278 2.326 . S
Tb262 O280 2.500 . S
Tb262 O281 2.473 . S
Tb262 O284 2.324 . S
Eu263 O267 2.292 . S
Eu263 C268 2.852 . S
Eu263 O279 2.324 . S
Eu263 O283 2.326 . S
Eu263 O285 2.500 . S
Eu263 O286 2.473 . S
C264 O261 1.255 . S
C264 O265 1.247 . S
O265 C264 1.247 . S
C266 O278 1.242 . S
C266 O279 1.258 . S
O267 Eu263 2.292 . S
O267 C269 1.255 . S
C268 Eu263 2.852 . S
C268 C272 1.503 . S
C268 O285 1.273 . S
C268 O286 1.257 . S
C269 O267 1.255 . S
C269 O270 1.247 . S
O270 C269 1.247 . S
C271 O283 1.242 . S
C271 O284 1.258 . S
C272 C268 1.503 . S
C272 C273 1.379 . S
C272 C277 1.392 . S
C273 C272 1.379 . S
C273 C274 1.404 . S
C273 H287 0.929 . S
C274 C273 1.404 . S
C274 C275 1.389 . S
C275 C274 1.389 . S
C275 C276 1.399 . S
C275 H288 0.931 . S
C276 C275 1.399 . S
C276 C277 1.390 . S
C277 C272 1.392 . S
C277 C276 1.390 . S
C277 H289 0.929 . S
O278 Tb262 2.326 . S
O278 C266 1.242 . S
O279 Eu263 2.324 . S
O279 C266 1.258 . S
O280 Tb262 2.500 . S
O280 C282 1.273 . S
O281 Tb262 2.473 . S
O281 C282 1.257 . S
C282 O280 1.273 . S
C282 O281 1.257 . S
O283 Eu263 2.326 . S
O283 C271 1.242 . S
O284 Tb262 2.324 . S
O284 C271 1.258 . S
O285 Eu263 2.500 . S
O285 C268 1.273 . S
O286 Eu263 2.473 . S
O286 C268 1.257 . S
H287 C273 0.929 . S
H288 C275 0.931 . S
H289 C277 0.929 . S
O290 Tb291 2.292 . S
O290 C293 1.255 . S
Tb291 O290 2.292 . S
Tb291 O307 2.326 . S
Tb291 O309 2.500 . S
Tb291 O310 2.473 . S
Tb291 O313 2.324 . S
Eu292 O296 2.292 . S
Eu292 C297 2.852 . S
Eu292 O308 2.324 . S
Eu292 O312 2.326 . S
Eu292 O314 2.500 . S
Eu292 O315 2.473 . S
C293 O290 1.255 . S
C293 O294 1.247 . S
O294 C293 1.247 . S
C295 O307 1.242 . S
C295 O308 1.258 . S
O296 Eu292 2.292 . S
O296 C298 1.255 . S
C297 Eu292 2.852 . S
C297 C301 1.503 . S
C297 O314 1.273 . S
C297 O315 1.257 . S
C298 O296 1.255 . S
C298 O299 1.247 . S
O299 C298 1.247 . S
C300 O312 1.242 . S
C300 O313 1.258 . S
C301 C297 1.503 . S
C301 C302 1.379 . S
C301 C306 1.392 . S
C302 C301 1.379 . S
C302 C303 1.404 . S
C302 H316 0.929 . S
C303 C302 1.404 . S
C303 C304 1.389 . S
C304 C303 1.389 . S
C304 C305 1.399 . S
C304 H317 0.931 . S
C305 C304 1.399 . S
C305 C306 1.390 . S
C306 C301 1.392 . S
C306 C305 1.390 . S
C306 H318 0.929 . S
O307 Tb291 2.326 . S
O307 C295 1.242 . S
O308 Eu292 2.324 . S
O308 C295 1.258 . S
O309 Tb291 2.500 . S
O309 C311 1.273 . S
O310 Tb291 2.473 . S
O310 C311 1.257 . S
C311 O309 1.273 . S
C311 O310 1.257 . S
O312 Eu292 2.326 . S
O312 C300 1.242 . S
O313 Tb291 2.324 . S
O313 C300 1.258 . S
O314 Eu292 2.500 . S
O314 C297 1.273 . S
O315 Eu292 2.473 . S
O315 C297 1.257 . S
H316 C302 0.929 . S
H317 C304 0.931 . S
H318 C306 0.929 . S
O319 Tb320 2.292 . S
O319 C322 1.255 . S
Tb320 O319 2.292 . S
Tb320 O336 2.326 . S
Tb320 O338 2.500 . S
Tb320 O339 2.473 . S
Tb320 O342 2.324 . S
Eu321 O325 2.292 . S
Eu321 C326 2.852 . S
Eu321 O337 2.324 . S
Eu321 O341 2.326 . S
Eu321 O343 2.500 . S
Eu321 O344 2.473 . S
C322 O319 1.255 . S
C322 O323 1.247 . S
O323 C322 1.247 . S
C324 O336 1.242 . S
C324 O337 1.258 . S
O325 Eu321 2.292 . S
O325 C327 1.255 . S
C326 Eu321 2.852 . S
C326 C330 1.503 . S
C326 O343 1.273 . S
C326 O344 1.257 . S
C327 O325 1.255 . S
C327 O328 1.247 . S
O328 C327 1.247 . S
C329 O341 1.242 . S
C329 O342 1.258 . S
C330 C326 1.503 . S
C330 C331 1.379 . S
C330 C335 1.392 . S
C331 C330 1.379 . S
C331 C332 1.404 . S
C331 H345 0.929 . S
C332 C331 1.404 . S
C332 C333 1.389 . S
C333 C332 1.389 . S
C333 C334 1.399 . S
C333 H346 0.931 . S
C334 C333 1.399 . S
C334 C335 1.390 . S
C335 C330 1.392 . S
C335 C334 1.390 . S
C335 H347 0.929 . S
O336 Tb320 2.326 . S
O336 C324 1.242 . S
O337 Eu321 2.324 . S
O337 C324 1.258 . S
O338 Tb320 2.500 . S
O338 C340 1.273 . S
O339 Tb320 2.473 . S
O339 C340 1.257 . S
C340 O338 1.273 . S
C340 O339 1.257 . S
O341 Eu321 2.326 . S
O341 C329 1.242 . S
O342 Tb320 2.324 . S
O342 C329 1.258 . S
O343 Eu321 2.500 . S
O343 C326 1.273 . S
O344 Eu321 2.473 . S
O344 C326 1.257 . S
H345 C331 0.929 . S
H346 C333 0.931 . S
H347 C335 0.929 . S
O348 Tb349 2.292 . S
O348 C351 1.255 . S
Tb349 O348 2.292 . S
Tb349 O365 2.326 . S
Tb349 O367 2.500 . S
Tb349 O368 2.473 . S
Tb349 O371 2.324 . S
Eu350 O354 2.292 . S
Eu350 C355 2.852 . S
Eu350 O366 2.324 . S
Eu350 O370 2.326 . S
Eu350 O372 2.500 . S
Eu350 O373 2.473 . S
C351 O348 1.255 . S
C351 O352 1.247 . S
O352 C351 1.247 . S
C353 O365 1.242 . S
C353 O366 1.258 . S
O354 Eu350 2.292 . S
O354 C356 1.255 . S
C355 Eu350 2.852 . S
C355 C359 1.503 . S
C355 O372 1.273 . S
C355 O373 1.257 . S
C356 O354 1.255 . S
C356 O357 1.247 . S
O357 C356 1.247 . S
C358 O370 1.242 . S
C358 O371 1.258 . S
C359 C355 1.503 . S
C359 C360 1.379 . S
C359 C364 1.392 . S
C360 C359 1.379 . S
C360 C361 1.404 . S
C360 H374 0.929 . S
C361 C360 1.404 . S
C361 C362 1.389 . S
C362 C361 1.389 . S
C362 C363 1.399 . S
C362 H375 0.931 . S
C363 C362 1.399 . S
C363 C364 1.390 . S
C364 C359 1.392 . S
C364 C363 1.390 . S
C364 H376 0.929 . S
O365 Tb349 2.326 . S
O365 C353 1.242 . S
O366 Eu350 2.324 . S
O366 C353 1.258 . S
O367 Tb349 2.500 . S
O367 C369 1.273 . S
O368 Tb349 2.473 . S
O368 C369 1.257 . S
C369 O367 1.273 . S
C369 O368 1.257 . S
O370 Eu350 2.326 . S
O370 C358 1.242 . S
O371 Tb349 2.324 . S
O371 C358 1.258 . S
O372 Eu350 2.500 . S
O372 C355 1.273 . S
O373 Eu350 2.473 . S
O373 C355 1.257 . S
H374 C360 0.929 . S
H375 C362 0.931 . S
H376 C364 0.929 . S
O377 Tb378 2.292 . S
O377 C380 1.255 . S
Tb378 O377 2.292 . S
Tb378 O394 2.326 . S
Tb378 O396 2.500 . S
Tb378 O397 2.473 . S
Tb378 O400 2.324 . S
Eu379 O383 2.292 . S
Eu379 C384 2.852 . S
Eu379 O395 2.324 . S
Eu379 O399 2.326 . S
Eu379 O401 2.500 . S
Eu379 O402 2.473 . S
C380 O377 1.255 . S
C380 O381 1.247 . S
O381 C380 1.247 . S
C382 O394 1.242 . S
C382 O395 1.258 . S
O383 Eu379 2.292 . S
O383 C385 1.255 . S
C384 Eu379 2.852 . S
C384 C388 1.503 . S
C384 O401 1.273 . S
C384 O402 1.257 . S
C385 O383 1.255 . S
C385 O386 1.247 . S
O386 C385 1.247 . S
C387 O399 1.242 . S
C387 O400 1.258 . S
C388 C384 1.503 . S
C388 C389 1.379 . S
C388 C393 1.392 . S
C389 C388 1.379 . S
C389 C390 1.404 . S
C389 H403 0.929 . S
C390 C389 1.404 . S
C390 C391 1.389 . S
C391 C390 1.389 . S
C391 C392 1.399 . S
C391 H404 0.931 . S
C392 C391 1.399 . S
C392 C393 1.390 . S
C393 C388 1.392 . S
C393 C392 1.390 . S
C393 H405 0.929 . S
O394 Tb378 2.326 . S
O394 C382 1.242 . S
O395 Eu379 2.324 . S
O395 C382 1.258 . S
O396 Tb378 2.500 . S
O396 C398 1.273 . S
O397 Tb378 2.473 . S
O397 C398 1.257 . S
C398 O396 1.273 . S
C398 O397 1.257 . S
O399 Eu379 2.326 . S
O399 C387 1.242 . S
O400 Tb378 2.324 . S
O400 C387 1.258 . S
O401 Eu379 2.500 . S
O401 C384 1.273 . S
O402 Eu379 2.473 . S
O402 C384 1.257 . S
H403 C389 0.929 . S
H404 C391 0.931 . S
H405 C393 0.929 . S
O406 Tb407 2.292 . S
O406 C409 1.255 . S
Tb407 O406 2.292 . S
Tb407 O423 2.326 . S
Tb407 O425 2.500 . S
Tb407 O426 2.473 . S
Tb407 O429 2.324 . S
Eu408 O412 2.292 . S
Eu408 C413 2.852 . S
Eu408 O424 2.324 . S
Eu408 O428 2.326 . S
Eu408 O430 2.500 . S
Eu408 O431 2.473 . S
C409 O406 1.255 . S
C409 O410 1.247 . S
O410 C409 1.247 . S
C411 O423 1.242 . S
C411 O424 1.258 . S
O412 Eu408 2.292 . S
O412 C414 1.255 . S
C413 Eu408 2.852 . S
C413 C417 1.503 . S
C413 O430 1.273 . S
C413 O431 1.257 . S
C414 O412 1.255 . S
C414 O415 1.247 . S
O415 C414 1.247 . S
C416 O428 1.242 . S
C416 O429 1.258 . S
C417 C413 1.503 . S
C417 C418 1.379 . S
C417 C422 1.392 . S
C418 C417 1.379 . S
C418 C419 1.404 . S
C418 H432 0.929 . S
C419 C418 1.404 . S
C419 C420 1.389 . S
C420 C419 1.389 . S
C420 C421 1.399 . S
C420 H433 0.931 . S
C421 C420 1.399 . S
C421 C422 1.390 . S
C422 C417 1.392 . S
C422 C421 1.390 . S
C422 H434 0.929 . S
O423 Tb407 2.326 . S
O423 C411 1.242 . S
O424 Eu408 2.324 . S
O424 C411 1.258 . S
O425 Tb407 2.500 . S
O425 C427 1.273 . S
O426 Tb407 2.473 . S
O426 C427 1.257 . S
C427 O425 1.273 . S
C427 O426 1.257 . S
O428 Eu408 2.326 . S
O428 C416 1.242 . S
O429 Tb407 2.324 . S
O429 C416 1.258 . S
O430 Eu408 2.500 . S
O430 C413 1.273 . S
O431 Eu408 2.473 . S
O431 C413 1.257 . S
H432 C418 0.929 . S
H433 C420 0.931 . S
H434 C422 0.929 . S
O435 Tb436 2.292 . S
O435 C438 1.255 . S
Tb436 O435 2.292 . S
Tb436 O452 2.326 . S
Tb436 O454 2.500 . S
Tb436 O455 2.473 . S
Tb436 O458 2.324 . S
Eu437 O441 2.292 . S
Eu437 C442 2.852 . S
Eu437 O453 2.324 . S
Eu437 O457 2.326 . S
Eu437 O459 2.500 . S
Eu437 O460 2.473 . S
C438 O435 1.255 . S
C438 O439 1.247 . S
O439 C438 1.247 . S
C440 O452 1.242 . S
C440 O453 1.258 . S
O441 Eu437 2.292 . S
O441 C443 1.255 . S
C442 Eu437 2.852 . S
C442 C446 1.503 . S
C442 O459 1.273 . S
C442 O460 1.257 . S
C443 O441 1.255 . S
C443 O444 1.247 . S
O444 C443 1.247 . S
C445 O457 1.242 . S
C445 O458 1.258 . S
C446 C442 1.503 . S
C446 C447 1.379 . S
C446 C451 1.392 . S
C447 C446 1.379 . S
C447 C448 1.404 . S
C447 H461 0.929 . S
C448 C447 1.404 . S
C448 C449 1.389 . S
C449 C448 1.389 . S
C449 C450 1.399 . S
C449 H462 0.931 . S
C450 C449 1.399 . S
C450 C451 1.390 . S
C451 C446 1.392 . S
C451 C450 1.390 . S
C451 H463 0.929 . S
O452 Tb436 2.326 . S
O452 C440 1.242 . S
O453 Eu437 2.324 . S
O453 C440 1.258 . S
O454 Tb436 2.500 . S
O454 C456 1.273 . S
O455 Tb436 2.473 . S
O455 C456 1.257 . S
C456 O454 1.273 . S
C456 O455 1.257 . S
O457 Eu437 2.326 . S
O457 C445 1.242 . S
O458 Tb436 2.324 . S
O458 C445 1.258 . S
O459 Eu437 2.500 . S
O459 C442 1.273 . S
O460 Eu437 2.473 . S
O460 C442 1.257 . S
H461 C447 0.929 . S
H462 C449 0.931 . S
H463 C451 0.929 . S
O464 Tb465 2.292 . S
O464 C467 1.255 . S
Tb465 O464 2.292 . S
Tb465 O481 2.326 . S
Tb465 O483 2.500 . S
Tb465 O484 2.473 . S
Tb465 O487 2.324 . S
Eu466 O470 2.292 . S
Eu466 C471 2.852 . S
Eu466 O482 2.324 . S
Eu466 O486 2.326 . S
Eu466 O488 2.500 . S
Eu466 O489 2.473 . S
C467 O464 1.255 . S
C467 O468 1.247 . S
O468 C467 1.247 . S
C469 O481 1.242 . S
C469 O482 1.258 . S
O470 Eu466 2.292 . S
O470 C472 1.255 . S
C471 Eu466 2.852 . S
C471 C475 1.503 . S
C471 O488 1.273 . S
C471 O489 1.257 . S
C472 O470 1.255 . S
C472 O473 1.247 . S
O473 C472 1.247 . S
C474 O486 1.242 . S
C474 O487 1.258 . S
C475 C471 1.503 . S
C475 C476 1.379 . S
C475 C480 1.392 . S
C476 C475 1.379 . S
C476 C477 1.404 . S
C476 H490 0.929 . S
C477 C476 1.404 . S
C477 C478 1.389 . S
C478 C477 1.389 . S
C478 C479 1.399 . S
C478 H491 0.931 . S
C479 C478 1.399 . S
C479 C480 1.390 . S
C480 C475 1.392 . S
C480 C479 1.390 . S
C480 H492 0.929 . S
O481 Tb465 2.326 . S
O481 C469 1.242 . S
O482 Eu466 2.324 . S
O482 C469 1.258 . S
O483 Tb465 2.500 . S
O483 C485 1.273 . S
O484 Tb465 2.473 . S
O484 C485 1.257 . S
C485 O483 1.273 . S
C485 O484 1.257 . S
O486 Eu466 2.326 . S
O486 C474 1.242 . S
O487 Tb465 2.324 . S
O487 C474 1.258 . S
O488 Eu466 2.500 . S
O488 C471 1.273 . S
O489 Eu466 2.473 . S
O489 C471 1.257 . S
H490 C476 0.929 . S
H491 C478 0.931 . S
H492 C480 0.929 . S
O493 Tb494 2.292 . S
O493 C496 1.255 . S
Tb494 O493 2.292 . S
Tb494 O510 2.326 . S
Tb494 O512 2.500 . S
Tb494 O513 2.473 . S
Tb494 O516 2.324 . S
Eu495 O499 2.292 . S
Eu495 C500 2.852 . S
Eu495 O511 2.324 . S
Eu495 O515 2.326 . S
Eu495 O517 2.500 . S
Eu495 O518 2.473 . S
C496 O493 1.255 . S
C496 O497 1.247 . S
O497 C496 1.247 . S
C498 O510 1.242 . S
C498 O511 1.258 . S
O499 Eu495 2.292 . S
O499 C501 1.255 . S
C500 Eu495 2.852 . S
C500 C504 1.503 . S
C500 O517 1.273 . S
C500 O518 1.257 . S
C501 O499 1.255 . S
C501 O502 1.247 . S
O502 C501 1.247 . S
C503 O515 1.242 . S
C503 O516 1.258 . S
C504 C500 1.503 . S
C504 C505 1.379 . S
C504 C509 1.392 . S
C505 C504 1.379 . S
C505 C506 1.404 . S
C505 H519 0.929 . S
C506 C505 1.404 . S
C506 C507 1.389 . S
C507 C506 1.389 . S
C507 C508 1.399 . S
C507 H520 0.931 . S
C508 C507 1.399 . S
C508 C509 1.390 . S
C509 C504 1.392 . S
C509 C508 1.390 . S
C509 H521 0.929 . S
O510 Tb494 2.326 . S
O510 C498 1.242 . S
O511 Eu495 2.324 . S
O511 C498 1.258 . S
O512 Tb494 2.500 . S
O512 C514 1.273 . S
O513 Tb494 2.473 . S
O513 C514 1.257 . S
C514 O512 1.273 . S
C514 O513 1.257 . S
O515 Eu495 2.326 . S
O515 C503 1.242 . S
O516 Tb494 2.324 . S
O516 C503 1.258 . S
O517 Eu495 2.500 . S
O517 C500 1.273 . S
O518 Eu495 2.473 . S
O518 C500 1.257 . S
H519 C505 0.929 . S
H520 C507 0.931 . S
H521 C509 0.929 . S
O522 Tb523 2.292 . S
O522 C525 1.255 . S
Tb523 O522 2.292 . S
Tb523 O539 2.326 . S
Tb523 O541 2.500 . S
Tb523 O542 2.473 . S
Tb523 O545 2.324 . S
Eu524 O528 2.292 . S
Eu524 C529 2.852 . S
Eu524 O540 2.324 . S
Eu524 O544 2.326 . S
Eu524 O546 2.500 . S
Eu524 O547 2.473 . S
C525 O522 1.255 . S
C525 O526 1.247 . S
O526 C525 1.247 . S
C527 O539 1.242 . S
C527 O540 1.258 . S
O528 Eu524 2.292 . S
O528 C530 1.255 . S
C529 Eu524 2.852 . S
C529 C533 1.503 . S
C529 O546 1.273 . S
C529 O547 1.257 . S
C530 O528 1.255 . S
C530 O531 1.247 . S
O531 C530 1.247 . S
C532 O544 1.242 . S
C532 O545 1.258 . S
C533 C529 1.503 . S
C533 C534 1.379 . S
C533 C538 1.392 . S
C534 C533 1.379 . S
C534 C535 1.404 . S
C534 H548 0.929 . S
C535 C534 1.404 . S
C535 C536 1.389 . S
C536 C535 1.389 . S
C536 C537 1.399 . S
C536 H549 0.931 . S
C537 C536 1.399 . S
C537 C538 1.390 . S
C538 C533 1.392 . S
C538 C537 1.390 . S
C538 H550 0.929 . S
O539 Tb523 2.326 . S
O539 C527 1.242 . S
O540 Eu524 2.324 . S
O540 C527 1.258 . S
O541 Tb523 2.500 . S
O541 C543 1.273 . S
O542 Tb523 2.473 . S
O542 C543 1.257 . S
C543 O541 1.273 . S
C543 O542 1.257 . S
O544 Eu524 2.326 . S
O544 C532 1.242 . S
O545 Tb523 2.324 . S
O545 C532 1.258 . S
O546 Eu524 2.500 . S
O546 C529 1.273 . S
O547 Eu524 2.473 . S
O547 C529 1.257 . S
H548 C534 0.929 . S
H549 C536 0.931 . S
H550 C538 0.929 . S
O551 Tb552 2.292 . S
O551 C554 1.255 . S
Tb552 O551 2.292 . S
Tb552 O568 2.326 . S
Tb552 O570 2.500 . S
Tb552 O571 2.473 . S
Tb552 O574 2.324 . S
Eu553 O557 2.292 . S
Eu553 C558 2.852 . S
Eu553 O569 2.324 . S
Eu553 O573 2.326 . S
Eu553 O575 2.500 . S
Eu553 O576 2.473 . S
C554 O551 1.255 . S
C554 O555 1.247 . S
O555 C554 1.247 . S
C556 O568 1.242 . S
C556 O569 1.258 . S
O557 Eu553 2.292 . S
O557 C559 1.255 . S
C558 Eu553 2.852 . S
C558 C562 1.503 . S
C558 O575 1.273 . S
C558 O576 1.257 . S
C559 O557 1.255 . S
C559 O560 1.247 . S
O560 C559 1.247 . S
C561 O573 1.242 . S
C561 O574 1.258 . S
C562 C558 1.503 . S
C562 C563 1.379 . S
C562 C567 1.392 . S
C563 C562 1.379 . S
C563 C564 1.404 . S
C563 H577 0.929 . S
C564 C563 1.404 . S
C564 C565 1.389 . S
C565 C564 1.389 . S
C565 C566 1.399 . S
C565 H578 0.931 . S
C566 C565 1.399 . S
C566 C567 1.390 . S
C567 C562 1.392 . S
C567 C566 1.390 . S
C567 H579 0.929 . S
O568 Tb552 2.326 . S
O568 C556 1.242 . S
O569 Eu553 2.324 . S
O569 C556 1.258 . S
O570 Tb552 2.500 . S
O570 C572 1.273 . S
O571 Tb552 2.473 . S
O571 C572 1.257 . S
C572 O570 1.273 . S
C572 O571 1.257 . S
O573 Eu553 2.326 . S
O573 C561 1.242 . S
O574 Tb552 2.324 . S
O574 C561 1.258 . S
O575 Eu553 2.500 . S
O575 C558 1.273 . S
O576 Eu553 2.473 . S
O576 C558 1.257 . S
H577 C563 0.929 . S
H578 C565 0.931 . S
H579 C567 0.929 . S
O580 Tb581 2.292 . S
O580 C583 1.255 . S
Tb581 O580 2.292 . S
Tb581 O597 2.326 . S
Tb581 O599 2.500 . S
Tb581 O600 2.473 . S
Tb581 O603 2.324 . S
Eu582 O586 2.292 . S
Eu582 C587 2.852 . S
Eu582 O598 2.324 . S
Eu582 O602 2.326 . S
Eu582 O604 2.500 . S
Eu582 O605 2.473 . S
C583 O580 1.255 . S
C583 O584 1.247 . S
O584 C583 1.247 . S
C585 O597 1.242 . S
C585 O598 1.258 . S
O586 Eu582 2.292 . S
O586 C588 1.255 . S
C587 Eu582 2.852 . S
C587 C591 1.503 . S
C587 O604 1.273 . S
C587 O605 1.257 . S
C588 O586 1.255 . S
C588 O589 1.247 . S
O589 C588 1.247 . S
C590 O602 1.242 . S
C590 O603 1.258 . S
C591 C587 1.503 . S
C591 C592 1.379 . S
C591 C596 1.392 . S
C592 C591 1.379 . S
C592 C593 1.404 . S
C592 H606 0.929 . S
C593 C592 1.404 . S
C593 C594 1.389 . S
C594 C593 1.389 . S
C594 C595 1.399 . S
C594 H607 0.931 . S
C595 C594 1.399 . S
C595 C596 1.390 . S
C596 C591 1.392 . S
C596 C595 1.390 . S
C596 H608 0.929 . S
O597 Tb581 2.326 . S
O597 C585 1.242 . S
O598 Eu582 2.324 . S
O598 C585 1.258 . S
O599 Tb581 2.500 . S
O599 C601 1.273 . S
O600 Tb581 2.473 . S
O600 C601 1.257 . S
C601 O599 1.273 . S
C601 O600 1.257 . S
O602 Eu582 2.326 . S
O602 C590 1.242 . S
O603 Tb581 2.324 . S
O603 C590 1.258 . S
O604 Eu582 2.500 . S
O604 C587 1.273 . S
O605 Eu582 2.473 . S
O605 C587 1.257 . S
H606 C592 0.929 . S
H607 C594 0.931 . S
H608 C596 0.929 . S
O609 Tb610 2.292 . S
O609 C612 1.255 . S
Tb610 O609 2.292 . S
Tb610 O626 2.326 . S
Tb610 O628 2.500 . S
Tb610 O629 2.473 . S
Tb610 O632 2.324 . S
Eu611 O615 2.292 . S
Eu611 C616 2.852 . S
Eu611 O627 2.324 . S
Eu611 O631 2.326 . S
Eu611 O633 2.500 . S
Eu611 O634 2.473 . S
C612 O609 1.255 . S
C612 O613 1.247 . S
O613 C612 1.247 . S
C614 O626 1.242 . S
C614 O627 1.258 . S
O615 Eu611 2.292 . S
O615 C617 1.255 . S
C616 Eu611 2.852 . S
C616 C620 1.503 . S
C616 O633 1.273 . S
C616 O634 1.257 . S
C617 O615 1.255 . S
C617 O618 1.247 . S
O618 C617 1.247 . S
C619 O631 1.242 . S
C619 O632 1.258 . S
C620 C616 1.503 . S
C620 C621 1.379 . S
C620 C625 1.392 . S
C621 C620 1.379 . S
C621 C622 1.404 . S
C621 H635 0.929 . S
C622 C621 1.404 . S
C622 C623 1.389 . S
C623 C622 1.389 . S
C623 C624 1.399 . S
C623 H636 0.931 . S
C624 C623 1.399 . S
C624 C625 1.390 . S
C625 C620 1.392 . S
C625 C624 1.390 . S
C625 H637 0.929 . S
O626 Tb610 2.326 . S
O626 C614 1.242 . S
O627 Eu611 2.324 . S
O627 C614 1.258 . S
O628 Tb610 2.500 . S
O628 C630 1.273 . S
O629 Tb610 2.473 . S
O629 C630 1.257 . S
C630 O628 1.273 . S
C630 O629 1.257 . S
O631 Eu611 2.326 . S
O631 C619 1.242 . S
O632 Tb610 2.324 . S
O632 C619 1.258 . S
O633 Eu611 2.500 . S
O633 C616 1.273 . S
O634 Eu611 2.473 . S
O634 C616 1.257 . S
H635 C621 0.929 . S
H636 C623 0.931 . S
H637 C625 0.929 . S
O638 Tb639 2.292 . S
O638 C641 1.255 . S
Tb639 O638 2.292 . S
Tb639 O655 2.326 . S
Tb639 O657 2.500 . S
Tb639 O658 2.473 . S
Tb639 O661 2.324 . S
Eu640 O644 2.292 . S
Eu640 C645 2.852 . S
Eu640 O656 2.324 . S
Eu640 O660 2.326 . S
Eu640 O662 2.500 . S
Eu640 O663 2.473 . S
C641 O638 1.255 . S
C641 O642 1.247 . S
O642 C641 1.247 . S
C643 O655 1.242 . S
C643 O656 1.258 . S
O644 Eu640 2.292 . S
O644 C646 1.255 . S
C645 Eu640 2.852 . S
C645 C649 1.503 . S
C645 O662 1.273 . S
C645 O663 1.257 . S
C646 O644 1.255 . S
C646 O647 1.247 . S
O647 C646 1.247 . S
C648 O660 1.242 . S
C648 O661 1.258 . S
C649 C645 1.503 . S
C649 C650 1.379 . S
C649 C654 1.392 . S
C650 C649 1.379 . S
C650 C651 1.404 . S
C650 H664 0.929 . S
C651 C650 1.404 . S
C651 C652 1.389 . S
C652 C651 1.389 . S
C652 C653 1.399 . S
C652 H665 0.931 . S
C653 C652 1.399 . S
C653 C654 1.390 . S
C654 C649 1.392 . S
C654 C653 1.390 . S
C654 H666 0.929 . S
O655 Tb639 2.326 . S
O655 C643 1.242 . S
O656 Eu640 2.324 . S
O656 C643 1.258 . S
O657 Tb639 2.500 . S
O657 C659 1.273 . S
O658 Tb639 2.473 . S
O658 C659 1.257 . S
C659 O657 1.273 . S
C659 O658 1.257 . S
O660 Eu640 2.326 . S
O660 C648 1.242 . S
O661 Tb639 2.324 . S
O661 C648 1.258 . S
O662 Eu640 2.500 . S
O662 C645 1.273 . S
O663 Eu640 2.473 . S
O663 C645 1.257 . S
H664 C650 0.929 . S
H665 C652 0.931 . S
H666 C654 0.929 . S
O667 Tb668 2.292 . S
O667 C670 1.255 . S
Tb668 O667 2.292 . S
Tb668 O684 2.326 . S
Tb668 O686 2.500 . S
Tb668 O687 2.473 . S
Tb668 O690 2.324 . S
Eu669 O673 2.292 . S
Eu669 C674 2.852 . S
Eu669 O685 2.324 . S
Eu669 O689 2.326 . S
Eu669 O691 2.500 . S
Eu669 O692 2.473 . S
C670 O667 1.255 . S
C670 O671 1.247 . S
O671 C670 1.247 . S
C672 O684 1.242 . S
C672 O685 1.258 . S
O673 Eu669 2.292 . S
O673 C675 1.255 . S
C674 Eu669 2.852 . S
C674 C678 1.503 . S
C674 O691 1.273 . S
C674 O692 1.257 . S
C675 O673 1.255 . S
C675 O676 1.247 . S
O676 C675 1.247 . S
C677 O689 1.242 . S
C677 O690 1.258 . S
C678 C674 1.503 . S
C678 C679 1.379 . S
C678 C683 1.392 . S
C679 C678 1.379 . S
C679 C680 1.404 . S
C679 H693 0.929 . S
C680 C679 1.404 . S
C680 C681 1.389 . S
C681 C680 1.389 . S
C681 C682 1.399 . S
C681 H694 0.931 . S
C682 C681 1.399 . S
C682 C683 1.390 . S
C683 C678 1.392 . S
C683 C682 1.390 . S
C683 H695 0.929 . S
O684 Tb668 2.326 . S
O684 C672 1.242 . S
O685 Eu669 2.324 . S
O685 C672 1.258 . S
O686 Tb668 2.500 . S
O686 C688 1.273 . S
O687 Tb668 2.473 . S
O687 C688 1.257 . S
C688 O686 1.273 . S
C688 O687 1.257 . S
O689 Eu669 2.326 . S
O689 C677 1.242 . S
O690 Tb668 2.324 . S
O690 C677 1.258 . S
O691 Eu669 2.500 . S
O691 C674 1.273 . S
O692 Eu669 2.473 . S
O692 C674 1.257 . S
H693 C679 0.929 . S
H694 C681 0.931 . S
H695 C683 0.929 . S
H696 C702 0.930 . S
H697 C705 0.930 1_545 S
H698 C706 0.930 . S
H699 C707 0.930 . S
H700 C710 0.930 . S
H701 C711 0.930 . S
C702 H696 0.930 . S
C702 C703 1.355 1_565 S
C702 C704 1.415 . S
C703 C702 1.355 1_545 S
C703 C705 1.419 1_545 S
C704 C702 1.415 . S
C704 C709 1.425 . S
C704 C711 1.409 . S
C705 H697 0.930 1_565 S
C705 C703 1.419 1_565 S
C705 C706 1.362 . S
C706 H698 0.930 . S
C706 C705 1.362 . S
C706 C709 1.409 . S
C707 H699 0.930 . S
C707 C708 1.355 . S
C707 C709 1.415 . S
C708 C707 1.355 . S
C708 C710 1.419 . S
C709 C704 1.425 . S
C709 C706 1.409 . S
C709 C707 1.415 . S
C710 H700 0.930 . S
C710 C708 1.419 . S
C710 C711 1.362 . S
C711 H701 0.930 . S
C711 C704 1.409 . S
C711 C710 1.362 . S
H712 C718 0.930 . S
H713 C721 0.930 . S
H714 C722 0.930 . S
H715 C723 0.930 . S
H716 C726 0.930 . S
H717 C727 0.930 . S
C718 H712 0.930 . S
C718 C719 1.355 . S
C718 C720 1.415 . S
C719 C718 1.355 . S
C719 C721 1.419 . S
C720 C718 1.415 . S
C720 C725 1.425 . S
C720 C727 1.409 . S
C721 H713 0.930 . S
C721 C719 1.419 . S
C721 C722 1.362 . S
C722 H714 0.930 . S
C722 C721 1.362 . S
C722 C725 1.409 . S
C723 H715 0.930 . S
C723 C724 1.355 . S
C723 C725 1.415 . S
C724 C723 1.355 . S
C724 C726 1.419 . S
C725 C720 1.425 . S
C725 C722 1.409 . S
C725 C723 1.415 . S
C726 H716 0.930 . S
C726 C724 1.419 . S
C726 C727 1.362 . S
C727 H717 0.930 . S
C727 C720 1.409 . S
C727 C726 1.362 . S
H728 C734 0.930 . S
H729 C737 0.930 1_655 S
H730 C738 0.930 . S
H731 C739 0.930 . S
H732 C742 0.930 . S
H733 C743 0.930 . S
C734 H728 0.930 . S
C734 C735 1.355 1_455 S
C734 C736 1.415 . S
C735 C734 1.355 1_655 S
C735 C737 1.419 1_655 S
C736 C734 1.415 . S
C736 C741 1.425 . S
C736 C743 1.409 . S
C737 H729 0.930 1_455 S
C737 C735 1.419 1_455 S
C737 C738 1.362 . S
C738 H730 0.930 . S
C738 C737 1.362 . S
C738 C741 1.409 . S
C739 H731 0.930 . S
C739 C740 1.355 . S
C739 C741 1.415 . S
C740 C739 1.355 . S
C740 C742 1.419 . S
C741 C736 1.425 . S
C741 C738 1.409 . S
C741 C739 1.415 . S
C742 H732 0.930 . S
C742 C740 1.419 . S
C742 C743 1.362 . S
C743 H733 0.930 . S
C743 C736 1.409 . S
C743 C742 1.362 . S
H744 C750 0.930 . S
H745 C753 0.930 . S
H746 C754 0.930 . S
H747 C755 0.930 . S
H748 C758 0.930 1_565 S
H749 C759 0.930 . S
C750 H744 0.930 . S
C750 C751 1.355 . S
C750 C752 1.415 . S
C751 C750 1.355 . S
C751 C753 1.419 . S
C752 C750 1.415 . S
C752 C757 1.425 . S
C752 C759 1.409 . S
C753 H745 0.930 . S
C753 C751 1.419 . S
C753 C754 1.362 . S
C754 H746 0.930 . S
C754 C753 1.362 . S
C754 C757 1.409 . S
C755 H747 0.930 . S
C755 C756 1.355 1_545 S
C755 C757 1.415 . S
C756 C755 1.355 1_565 S
C756 C758 1.419 1_565 S
C757 C752 1.425 . S
C757 C754 1.409 . S
C757 C755 1.415 . S
C758 H748 0.930 1_545 S
C758 C756 1.419 1_545 S
C758 C759 1.362 . S
C759 H749 0.930 . S
C759 C752 1.409 . S
C759 C758 1.362 . S
H760 C766 0.930 . S
H761 C769 0.930 . S
H762 C770 0.930 . S
H763 C771 0.930 . S
H764 C774 0.930 . S
H765 C775 0.930 . S
C766 H760 0.930 . S
C766 C767 1.355 . S
C766 C768 1.415 . S
C767 C766 1.355 . S
C767 C769 1.419 . S
C768 C766 1.415 . S
C768 C773 1.425 . S
C768 C775 1.409 . S
C769 H761 0.930 . S
C769 C767 1.419 . S
C769 C770 1.362 . S
C770 H762 0.930 . S
C770 C769 1.362 . S
C770 C773 1.409 . S
C771 H763 0.930 . S
C771 C772 1.355 . S
C771 C773 1.415 . S
C772 C771 1.355 . S
C772 C774 1.419 . S
C773 C768 1.425 . S
C773 C770 1.409 . S
C773 C771 1.415 . S
C774 H764 0.930 . S
C774 C772 1.419 . S
C774 C775 1.362 . S
C775 H765 0.930 . S
C775 C768 1.409 . S
C775 C774 1.362 . S
H776 C782 0.930 . S
H777 C785 0.930 1_455 S
H778 C786 0.930 . S
H779 C787 0.930 . S
H780 C790 0.930 . S
H781 C791 0.930 . S
C782 H776 0.930 . S
C782 C783 1.355 1_655 S
C782 C784 1.415 . S
C783 C782 1.355 1_455 S
C783 C785 1.419 1_455 S
C784 C782 1.415 . S
C784 C789 1.425 . S
C784 C791 1.409 . S
C785 H777 0.930 1_655 S
C785 C783 1.419 1_655 S
C785 C786 1.362 . S
C786 H778 0.930 . S
C786 C785 1.362 . S
C786 C789 1.409 . S
C787 H779 0.930 . S
C787 C788 1.355 . S
C787 C789 1.415 . S
C788 C787 1.355 . S
C788 C790 1.419 . S
C789 C784 1.425 . S
C789 C786 1.409 . S
C789 C787 1.415 . S
C790 H780 0.930 . S
C790 C788 1.419 . S
C790 C791 1.362 . S
C791 H781 0.930 . S
C791 C784 1.409 . S
C791 C790 1.362 . S
H792 C798 0.930 . S
H793 C801 0.930 . S
H794 C802 0.930 . S
H795 C803 0.930 . S
H796 C806 0.917 1_655 S
H797 C807 0.930 . S
C798 H792 0.930 . S
C798 C799 1.355 . S
C798 C800 1.415 . S
C799 C798 1.355 . S
C799 C801 1.419 . S
C800 C798 1.415 . S
C800 C805 1.425 . S
C800 C807 1.409 . S
C801 H793 0.930 . S
C801 C799 1.419 . S
C801 C802 1.362 . S
C802 H794 0.930 . S
C802 C801 1.362 . S
C802 C805 1.409 . S
C803 H795 0.930 . S
C803 C804 1.355 1_455 S
C803 C805 1.415 . S
C804 C803 1.355 1_655 S
C804 C806 1.417 1_655 S
C805 C800 1.425 . S
C805 C802 1.409 . S
C805 C803 1.415 . S
C806 H796 0.917 1_455 S
C806 C804 1.417 1_455 S
C806 C807 1.377 . S
C807 H797 0.930 . S
C807 C800 1.409 . S
C807 C806 1.377 . S
H808 C814 0.930 . S
H809 C817 0.930 . S
H810 C818 0.930 . S
H811 C819 0.930 . S
H812 C822 0.930 1_565 S
H813 C823 0.930 . S
C814 H808 0.930 . S
C814 C815 1.355 . S
C814 C816 1.415 . S
C815 C814 1.355 . S
C815 C817 1.419 . S
C816 C814 1.415 . S
C816 C821 1.425 . S
C816 C823 1.409 . S
C817 H809 0.930 . S
C817 C815 1.419 . S
C817 C818 1.362 . S
C818 H810 0.930 . S
C818 C817 1.362 . S
C818 C821 1.409 . S
C819 H811 0.930 . S
C819 C820 1.355 1_545 S
C819 C821 1.415 . S
C820 C819 1.355 1_565 S
C820 C822 1.419 1_565 S
C821 C816 1.425 . S
C821 C818 1.409 . S
C821 C819 1.415 . S
C822 H812 0.930 1_545 S
C822 C820 1.419 1_545 S
C822 C823 1.362 . S
C823 H813 0.930 . S
C823 C816 1.409 . S
C823 C822 1.362 . S
H824 C830 0.930 . S
H825 C833 0.930 . S
H826 C834 0.930 . S
H827 C835 0.930 . S
H828 C838 0.930 . S
H829 C839 0.930 . S
C830 H824 0.930 . S
C830 C831 1.355 . S
C830 C832 1.415 . S
C831 C830 1.355 . S
C831 C833 1.419 . S
C832 C830 1.415 . S
C832 C837 1.425 . S
C832 C839 1.409 . S
C833 H825 0.930 . S
C833 C831 1.419 . S
C833 C834 1.362 . S
C834 H826 0.930 . S
C834 C833 1.362 . S
C834 C837 1.409 . S
C835 H827 0.930 . S
C835 C836 1.355 . S
C835 C837 1.415 . S
C836 C835 1.355 . S
C836 C838 1.419 . S
C837 C832 1.425 . S
C837 C834 1.409 . S
C837 C835 1.415 . S
C838 H828 0.930 . S
C838 C836 1.419 . S
C838 C839 1.362 . S
C839 H829 0.930 . S
C839 C832 1.409 . S
C839 C838 1.362 . S
H840 C846 0.930 . S
H841 C849 0.958 . S
H842 C850 0.930 . S
H843 C851 0.930 . S
H844 C854 0.930 . S
H845 C855 0.930 . S
C846 H840 0.930 . S
C846 C847 1.355 1_655 S
C846 C848 1.415 . S
C847 C846 1.355 1_455 S
C847 C849 1.413 . S
C848 C846 1.415 . S
C848 C853 1.425 . S
C848 C855 1.409 . S
C849 H841 0.958 . S
C849 C847 1.413 . S
C849 C850 1.341 1_455 S
C850 H842 0.930 . S
C850 C849 1.341 1_655 S
C850 C853 1.409 . S
C851 H843 0.930 . S
C851 C852 1.355 . S
C851 C853 1.415 . S
C852 C851 1.355 . S
C852 C854 1.419 . S
C853 C848 1.425 . S
C853 C850 1.409 . S
C853 C851 1.415 . S
C854 H844 0.930 . S
C854 C852 1.419 . S
C854 C855 1.362 . S
C855 H845 0.930 . S
C855 C848 1.409 . S
C855 C854 1.362 . S
H856 C862 0.930 . S
H857 C865 0.930 . S
H858 C866 0.930 . S
H859 C867 0.930 . S
H860 C870 0.930 . S
H861 C871 0.930 . S
C862 H856 0.930 . S
C862 C863 1.355 . S
C862 C864 1.415 . S
C863 C862 1.355 . S
C863 C865 1.419 . S
C864 C862 1.415 . S
C864 C869 1.425 . S
C864 C871 1.409 . S
C865 H857 0.930 . S
C865 C863 1.419 . S
C865 C866 1.362 . S
C866 H858 0.930 . S
C866 C865 1.362 . S
C866 C869 1.409 . S
C867 H859 0.930 . S
C867 C868 1.355 1_565 S
C867 C869 1.415 . S
C868 C867 1.355 1_545 S
C868 C870 1.420 . S
C869 C864 1.425 . S
C869 C866 1.409 . S
C869 C867 1.415 . S
C870 H860 0.930 . S
C870 C868 1.420 . S
C870 C871 1.360 1_545 S
C871 H861 0.930 . S
C871 C864 1.409 . S
C871 C870 1.360 1_565 S
H872 C878 0.930 . S
H873 C881 0.930 . S
H874 C882 0.930 . S
H875 C883 0.930 . S
H876 C886 0.930 . S
H877 C887 0.930 . S
C878 H872 0.930 . S
C878 C879 1.355 . S
C878 C880 1.415 . S
C879 C878 1.355 . S
C879 C881 1.419 . S
C880 C878 1.415 . S
C880 C885 1.425 . S
C880 C887 1.409 . S
C881 H873 0.930 . S
C881 C879 1.419 . S
C881 C882 1.362 . S
C882 H874 0.930 . S
C882 C881 1.362 . S
C882 C885 1.409 . S
C883 H875 0.930 . S
C883 C884 1.355 . S
C883 C885 1.415 . S
C884 C883 1.355 . S
C884 C886 1.419 . S
C885 C880 1.425 . S
C885 C882 1.409 . S
C885 C883 1.415 . S
C886 H876 0.930 . S
C886 C884 1.419 . S
C886 C887 1.362 . S
C887 H877 0.930 . S
C887 C880 1.409 . S
C887 C886 1.362 . S
H888 C894 0.930 . S
H889 C897 0.930 . S
H890 C898 0.930 . S
H891 C899 0.940 . S
H892 C902 0.930 1_565 S
H893 C903 0.930 . S
C894 H888 0.930 . S
C894 C895 1.355 . S
C894 C896 1.415 . S
C895 C894 1.355 . S
C895 C897 1.419 . S
C896 C894 1.415 . S
C896 C901 1.425 . S
C896 C903 1.409 . S
C897 H889 0.930 . S
C897 C895 1.419 . S
C897 C898 1.362 . S
C898 H890 0.930 . S
C898 C897 1.362 . S
C898 C901 1.409 . S
C899 H891 0.940 . S
C899 C900 1.355 1_545 S
C899 C901 1.415 . S
C900 C899 1.355 1_565 S
C900 C902 1.419 1_565 S
C901 C896 1.425 . S
C901 C898 1.409 . S
C901 C899 1.415 . S
C902 H892 0.930 1_545 S
C902 C900 1.419 1_545 S
C902 C903 1.362 . S
C903 H893 0.930 . S
C903 C896 1.409 . S
C903 C902 1.362 . S
H904 C910 0.930 . S
H905 C913 0.930 . S
H906 C914 0.930 . S
H907 C915 0.930 . S
H908 C918 0.930 . S
H909 C919 0.930 . S
C910 H904 0.930 . S
C910 C911 1.355 . S
C910 C912 1.415 . S
C911 C910 1.355 . S
C911 C913 1.419 . S
C912 C910 1.415 . S
C912 C917 1.425 . S
C912 C919 1.409 . S
C913 H905 0.930 . S
C913 C911 1.419 . S
C913 C914 1.362 . S
C914 H906 0.930 . S
C914 C913 1.362 . S
C914 C917 1.409 . S
C915 H907 0.930 . S
C915 C916 1.355 . S
C915 C917 1.415 . S
C916 C915 1.355 . S
C916 C918 1.419 . S
C917 C912 1.425 . S
C917 C914 1.409 . S
C917 C915 1.415 . S
C918 H908 0.930 . S
C918 C916 1.419 . S
C918 C919 1.362 . S
C919 H909 0.930 . S
C919 C912 1.409 . S
C919 C918 1.362 . S
H920 C926 0.930 . S
H921 C929 0.921 1_455 S
H922 C930 0.930 . S
H923 C931 0.930 . S
H924 C934 0.930 . S
H925 C935 0.930 . S
C926 H920 0.930 . S
C926 C927 1.355 1_655 S
C926 C928 1.415 . S
C927 C926 1.355 1_455 S
C927 C929 1.396 1_455 S
C928 C926 1.415 . S
C928 C933 1.425 . S
C928 C935 1.409 . S
C929 H921 0.921 1_655 S
C929 C927 1.396 1_655 S
C929 C930 1.396 . S
C930 H922 0.930 . S
C930 C929 1.396 . S
C930 C933 1.409 . S
C931 H923 0.930 . S
C931 C932 1.355 . S
C931 C933 1.415 . S
C932 C931 1.355 . S
C932 C934 1.419 . S
C933 C928 1.425 . S
C933 C930 1.409 . S
C933 C931 1.415 . S
C934 H924 0.930 . S
C934 C932 1.419 . S
C934 C935 1.362 . S
C935 H925 0.930 . S
C935 C928 1.409 . S
C935 C934 1.362 . S
H936 C942 0.948 . S
H937 C945 0.930 1_545 S
H938 C946 0.930 . S
H939 C947 0.930 . S
H940 C950 0.930 . S
H941 C951 0.930 . S
C942 H936 0.948 . S
C942 C943 1.355 1_565 S
C942 C944 1.415 . S
C943 C942 1.355 1_545 S
C943 C945 1.419 1_545 S
C944 C942 1.415 . S
C944 C949 1.425 . S
C944 C951 1.409 . S
C945 H937 0.930 1_565 S
C945 C943 1.419 1_565 S
C945 C946 1.362 . S
C946 H938 0.930 . S
C946 C945 1.362 . S
C946 C949 1.409 . S
C947 H939 0.930 . S
C947 C948 1.355 . S
C947 C949 1.415 . S
C948 C947 1.355 . S
C948 C950 1.419 . S
C949 C944 1.425 . S
C949 C946 1.409 . S
C949 C947 1.415 . S
C950 H940 0.930 . S
C950 C948 1.419 . S
C950 C951 1.362 . S
C951 H941 0.930 . S
C951 C944 1.409 . S
C951 C950 1.362 . S
H952 C958 0.930 . S
H953 C961 0.930 . S
H954 C962 0.930 . S
H955 C963 0.930 . S
H956 C966 0.930 . S
H957 C967 0.930 . S
C958 H952 0.930 . S
C958 C959 1.355 . S
C958 C960 1.415 . S
C959 C958 1.355 . S
C959 C961 1.419 . S
C960 C958 1.415 . S
C960 C965 1.425 . S
C960 C967 1.409 . S
C961 H953 0.930 . S
C961 C959 1.419 . S
C961 C962 1.362 . S
C962 H954 0.930 . S
C962 C961 1.362 . S
C962 C965 1.409 . S
C963 H955 0.930 . S
C963 C964 1.355 . S
C963 C965 1.415 . S
C964 C963 1.355 . S
C964 C966 1.419 . S
C965 C960 1.425 . S
C965 C962 1.409 . S
C965 C963 1.415 . S
C966 H956 0.930 . S
C966 C964 1.419 . S
C966 C967 1.362 . S
C967 H957 0.930 . S
C967 C960 1.409 . S
C967 C966 1.362 . S
H968 C974 0.930 . S
H969 C977 0.943 . S
H970 C978 0.930 . S
H971 C979 0.930 . S
H972 C982 0.930 . S
H973 C983 0.930 . S
C974 H968 0.930 . S
C974 C975 1.355 1_455 S
C974 C976 1.415 . S
C975 C974 1.355 1_655 S
C975 C977 1.435 . S
C976 C974 1.415 . S
C976 C981 1.425 . S
C976 C983 1.409 . S
C977 H969 0.943 . S
C977 C975 1.435 . S
C977 C978 1.334 1_655 S
C978 H970 0.930 . S
C978 C977 1.334 1_455 S
C978 C981 1.409 . S
C979 H971 0.930 . S
C979 C980 1.355 . S
C979 C981 1.415 . S
C980 C979 1.355 . S
C980 C982 1.419 . S
C981 C976 1.425 . S
C981 C978 1.409 . S
C981 C979 1.415 . S
C982 H972 0.930 . S
C982 C980 1.419 . S
C982 C983 1.362 . S
C983 H973 0.930 . S
C983 C976 1.409 . S
C983 C982 1.362 . S
H984 C990 0.930 . S
H985 C993 0.930 . S
H986 C994 0.930 . S
H987 C995 0.930 . S
H988 C998 0.930 1_455 S
H989 C999 0.930 . S
C990 H984 0.930 . S
C990 C991 1.355 . S
C990 C992 1.415 . S
C991 C990 1.355 . S
C991 C993 1.419 . S
C992 C990 1.415 . S
C992 C997 1.425 . S
C992 C999 1.409 . S
C993 H985 0.930 . S
C993 C991 1.419 . S
C993 C994 1.362 . S
C994 H986 0.930 . S
C994 C993 1.362 . S
C994 C997 1.409 . S
C995 H987 0.930 . S
C995 C996 1.355 1_655 S
C995 C997 1.415 . S
C996 C995 1.355 1_455 S
C996 C998 1.419 1_455 S
C997 C992 1.425 . S
C997 C994 1.409 . S
C997 C995 1.415 . S
C998 H988 0.930 1_655 S
C998 C996 1.419 1_655 S
C998 C999 1.362 . S
C999 H989 0.930 . S
C999 C992 1.409 . S
C999 C998 1.362 . S
H1000 C1006 0.930 . S
H1001 C1009 0.930 . S
H1002 C1010 0.930 . S
H1003 C1011 0.930 . S
H1004 C1014 0.930 1_545 S
H1005 C1015 0.930 . S
C1006 H1000 0.930 . S
C1006 C1007 1.355 . S
C1006 C1008 1.415 . S
C1007 C1006 1.355 . S
C1007 C1009 1.419 . S
C1008 C1006 1.415 . S
C1008 C1013 1.425 . S
C1008 C1015 1.409 . S
C1009 H1001 0.930 . S
C1009 C1007 1.419 . S
C1009 C1010 1.362 . S
C1010 H1002 0.930 . S
C1010 C1009 1.362 . S
C1010 C1013 1.409 . S
C1011 H1003 0.930 . S
C1011 C1012 1.355 1_565 S
C1011 C1013 1.415 . S
C1012 C1011 1.355 1_545 S
C1012 C1014 1.419 1_545 S
C1013 C1008 1.425 . S
C1013 C1010 1.409 . S
C1013 C1011 1.415 . S
C1014 H1004 0.930 1_565 S
C1014 C1012 1.419 1_565 S
C1014 C1015 1.362 . S
C1015 H1005 0.930 . S
C1015 C1008 1.409 . S
C1015 C1014 1.362 . S
H1016 C1022 0.930 . S
H1017 C1025 0.930 . S
H1018 C1026 0.930 . S
H1019 C1027 0.930 . S
H1020 C1030 0.930 . S
H1021 C1031 0.930 . S
C1022 H1016 0.930 . S
C1022 C1023 1.355 . S
C1022 C1024 1.415 . S
C1023 C1022 1.355 . S
C1023 C1025 1.419 . S
C1024 C1022 1.415 . S
C1024 C1029 1.425 . S
C1024 C1031 1.409 . S
C1025 H1017 0.930 . S
C1025 C1023 1.419 . S
C1025 C1026 1.362 . S
C1026 H1018 0.930 . S
C1026 C1025 1.362 . S
C1026 C1029 1.409 . S
C1027 H1019 0.930 . S
C1027 C1028 1.355 . S
C1027 C1029 1.415 . S
C1028 C1027 1.355 . S
C1028 C1030 1.419 . S
C1029 C1024 1.425 . S
C1029 C1026 1.409 . S
C1029 C1027 1.415 . S
C1030 H1020 0.930 . S
C1030 C1028 1.419 . S
C1030 C1031 1.362 . S
C1031 H1021 0.930 . S
C1031 C1024 1.409 . S
C1031 C1030 1.362 . S
H1032 C1038 0.930 . S
H1033 C1041 0.925 . S
H1034 C1042 0.930 . S
H1035 C1043 0.930 . S
H1036 C1046 0.930 . S
H1037 C1047 0.930 . S
C1038 H1032 0.930 . S
C1038 C1039 1.355 1_455 S
C1038 C1040 1.415 . S
C1039 C1038 1.355 1_655 S
C1039 C1041 1.420 . S
C1040 C1038 1.415 . S
C1040 C1045 1.425 . S
C1040 C1047 1.409 . S
C1041 H1033 0.925 . S
C1041 C1039 1.420 . S
C1041 C1042 1.365 1_655 S
C1042 H1034 0.930 . S
C1042 C1041 1.365 1_455 S
C1042 C1045 1.409 . S
C1043 H1035 0.930 . S
C1043 C1044 1.355 . S
C1043 C1045 1.415 . S
C1044 C1043 1.355 . S
C1044 C1046 1.419 . S
C1045 C1040 1.425 . S
C1045 C1042 1.409 . S
C1045 C1043 1.415 . S
C1046 H1036 0.930 . S
C1046 C1044 1.419 . S
C1046 C1047 1.362 . S
C1047 H1037 0.930 . S
C1047 C1040 1.409 . S
C1047 C1046 1.362 . S
H1048 C1054 0.930 . S
H1049 C1057 0.930 1_565 S
H1050 C1058 0.930 . S
H1051 C1059 0.930 . S
H1052 C1062 0.930 . S
H1053 C1063 0.930 . S
C1054 H1048 0.930 . S
C1054 C1055 1.355 1_545 S
C1054 C1056 1.415 . S
C1055 C1054 1.355 1_565 S
C1055 C1057 1.419 1_565 S
C1056 C1054 1.415 . S
C1056 C1061 1.425 . S
C1056 C1063 1.409 . S
C1057 H1049 0.930 1_545 S
C1057 C1055 1.419 1_545 S
C1057 C1058 1.362 . S
C1058 H1050 0.930 . S
C1058 C1057 1.362 . S
C1058 C1061 1.409 . S
C1059 H1051 0.930 . S
C1059 C1060 1.355 . S
C1059 C1061 1.415 . S
C1060 C1059 1.355 . S
C1060 C1062 1.419 . S
C1061 C1056 1.425 . S
C1061 C1058 1.409 . S
C1061 C1059 1.415 . S
C1062 H1052 0.930 . S
C1062 C1060 1.419 . S
C1062 C1063 1.362 . S
C1063 H1053 0.930 . S
C1063 C1056 1.409 . S
C1063 C1062 1.362 . S
H1064 C1070 0.930 . S
H1065 C1073 0.930 . S
H1066 C1074 0.930 . S
H1067 C1075 0.930 . S
H1068 C1078 0.930 . S
H1069 C1079 0.930 . S
C1070 H1064 0.930 . S
C1070 C1071 1.355 . S
C1070 C1072 1.415 . S
C1071 C1070 1.355 . S
C1071 C1073 1.419 . S
C1072 C1070 1.415 . S
C1072 C1077 1.425 . S
C1072 C1079 1.409 . S
C1073 H1065 0.930 . S
C1073 C1071 1.419 . S
C1073 C1074 1.362 . S
C1074 H1066 0.930 . S
C1074 C1073 1.362 . S
C1074 C1077 1.409 . S
C1075 H1067 0.930 . S
C1075 C1076 1.355 . S
C1075 C1077 1.415 . S
C1076 C1075 1.355 . S
C1076 C1078 1.419 . S
C1077 C1072 1.425 . S
C1077 C1074 1.409 . S
C1077 C1075 1.415 . S
C1078 H1068 0.930 . S
C1078 C1076 1.419 . S
C1078 C1079 1.362 . S
C1079 H1069 0.930 . S
C1079 C1072 1.409 . S
C1079 C1078 1.362 . S
H1080 C1086 0.930 . S
H1081 C1089 0.930 . S
H1082 C1090 0.930 . S
H1083 C1091 0.930 . S
H1084 C1094 0.930 . S
H1085 C1095 0.930 . S
C1086 H1080 0.930 . S
C1086 C1087 1.355 . S
C1086 C1088 1.415 . S
C1087 C1086 1.355 . S
C1087 C1089 1.419 . S
C1088 C1086 1.415 . S
C1088 C1093 1.425 1_554 S
C1088 C1095 1.409 1_554 S
C1089 H1081 0.930 . S
C1089 C1087 1.419 . S
C1089 C1090 1.362 . S
C1090 H1082 0.930 . S
C1090 C1089 1.362 . S
C1090 C1093 1.409 1_554 S
C1091 H1083 0.930 . S
C1091 C1092 1.355 . S
C1091 C1093 1.415 . S
C1092 C1091 1.355 . S
C1092 C1094 1.419 . S
C1093 C1088 1.425 1_556 S
C1093 C1090 1.409 1_556 S
C1093 C1091 1.415 . S
C1094 H1084 0.930 . S
C1094 C1092 1.419 . S
C1094 C1095 1.362 . S
C1095 H1085 0.930 . S
C1095 C1088 1.409 1_556 S
C1095 C1094 1.362 . S
H1096 C1102 0.930 . S
H1097 C1105 0.930 . S
H1098 C1106 0.930 . S
H1099 C1107 0.930 . S
H1100 C1110 0.930 . S
H1101 C1111 0.930 . S
C1102 H1096 0.930 . S
C1102 C1103 1.355 . S
C1102 C1104 1.415 . S
C1103 C1102 1.355 . S
C1103 C1105 1.419 . S
C1104 C1102 1.415 . S
C1104 C1109 1.425 1_554 S
C1104 C1111 1.409 1_554 S
C1105 H1097 0.930 . S
C1105 C1103 1.419 . S
C1105 C1106 1.362 . S
C1106 H1098 0.930 . S
C1106 C1105 1.362 . S
C1106 C1109 1.409 1_554 S
C1107 H1099 0.930 . S
C1107 C1108 1.355 . S
C1107 C1109 1.415 . S
C1108 C1107 1.355 . S
C1108 C1110 1.419 . S
C1109 C1104 1.425 1_556 S
C1109 C1106 1.409 1_556 S
C1109 C1107 1.415 . S
C1110 H1100 0.930 . S
C1110 C1108 1.419 . S
C1110 C1111 1.362 . S
C1111 H1101 0.930 . S
C1111 C1104 1.409 1_556 S
C1111 C1110 1.362 . S
H1112 C1118 0.930 . S
H1113 C1121 0.930 . S
H1114 C1122 0.930 . S
H1115 C1123 0.930 . S
H1116 C1126 0.930 . S
H1117 C1127 0.930 . S
C1118 H1112 0.930 . S
C1118 C1119 1.355 . S
C1118 C1120 1.415 . S
C1119 C1118 1.355 . S
C1119 C1121 1.419 . S
C1120 C1118 1.415 . S
C1120 C1125 1.425 1_554 S
C1120 C1127 1.409 1_554 S
C1121 H1113 0.930 . S
C1121 C1119 1.419 . S
C1121 C1122 1.362 . S
C1122 H1114 0.930 . S
C1122 C1121 1.362 . S
C1122 C1125 1.409 1_554 S
C1123 H1115 0.930 . S
C1123 C1124 1.355 . S
C1123 C1125 1.415 . S
C1124 C1123 1.355 . S
C1124 C1126 1.419 . S
C1125 C1120 1.425 1_556 S
C1125 C1122 1.409 1_556 S
C1125 C1123 1.415 . S
C1126 H1116 0.930 . S
C1126 C1124 1.419 . S
C1126 C1127 1.362 . S
C1127 H1117 0.930 . S
C1127 C1120 1.409 1_556 S
C1127 C1126 1.362 . S
H1128 C1134 0.930 . S
H1129 C1137 0.930 . S
H1130 C1138 0.930 . S
H1131 C1139 0.930 . S
H1132 C1142 0.930 . S
H1133 C1143 0.930 . S
C1134 H1128 0.930 . S
C1134 C1135 1.355 . S
C1134 C1136 1.415 . S
C1135 C1134 1.355 . S
C1135 C1137 1.419 . S
C1136 C1134 1.415 . S
C1136 C1141 1.425 1_556 S
C1136 C1143 1.409 1_556 S
C1137 H1129 0.930 . S
C1137 C1135 1.419 . S
C1137 C1138 1.362 . S
C1138 H1130 0.930 . S
C1138 C1137 1.362 . S
C1138 C1141 1.409 1_556 S
C1139 H1131 0.930 . S
C1139 C1140 1.355 . S
C1139 C1141 1.415 . S
C1140 C1139 1.355 . S
C1140 C1142 1.419 . S
C1141 C1136 1.425 1_554 S
C1141 C1138 1.409 1_554 S
C1141 C1139 1.415 . S
C1142 H1132 0.930 . S
C1142 C1140 1.419 . S
C1142 C1143 1.362 . S
C1143 H1133 0.930 . S
C1143 C1136 1.409 1_554 S
C1143 C1142 1.362 . S
H1144 C1150 0.930 . S
H1145 C1153 0.930 . S
H1146 C1154 0.930 . S
H1147 C1155 0.930 . S
H1148 C1158 0.930 . S
H1149 C1159 0.930 . S
C1150 H1144 0.930 . S
C1150 C1151 1.355 . S
C1150 C1152 1.415 . S
C1151 C1150 1.355 . S
C1151 C1153 1.419 . S
C1152 C1150 1.415 . S
C1152 C1157 1.425 1_554 S
C1152 C1159 1.409 1_554 S
C1153 H1145 0.930 . S
C1153 C1151 1.419 . S
C1153 C1154 1.362 . S
C1154 H1146 0.930 . S
C1154 C1153 1.362 . S
C1154 C1157 1.409 1_554 S
C1155 H1147 0.930 . S
C1155 C1156 1.355 . S
C1155 C1157 1.415 . S
C1156 C1155 1.355 . S
C1156 C1158 1.419 . S
C1157 C1152 1.425 1_556 S
C1157 C1154 1.409 1_556 S
C1157 C1155 1.415 . S
C1158 H1148 0.930 . S
C1158 C1156 1.419 . S
C1158 C1159 1.362 . S
C1159 H1149 0.930 . S
C1159 C1152 1.409 1_556 S
C1159 C1158 1.362 . S
H1160 C1166 0.930 . S
H1161 C1169 0.930 . S
H1162 C1170 0.930 . S
H1163 C1171 0.930 . S
H1164 C1174 0.930 . S
H1165 C1175 0.930 . S
C1166 H1160 0.930 . S
C1166 C1167 1.355 . S
C1166 C1168 1.415 . S
C1167 C1166 1.355 . S
C1167 C1169 1.419 . S
C1168 C1166 1.415 . S
C1168 C1173 1.425 1_554 S
C1168 C1175 1.409 1_554 S
C1169 H1161 0.930 . S
C1169 C1167 1.419 . S
C1169 C1170 1.362 . S
C1170 H1162 0.930 . S
C1170 C1169 1.362 . S
C1170 C1173 1.409 1_554 S
C1171 H1163 0.930 . S
C1171 C1172 1.355 . S
C1171 C1173 1.415 . S
C1172 C1171 1.355 . S
C1172 C1174 1.419 . S
C1173 C1168 1.425 1_556 S
C1173 C1170 1.409 1_556 S
C1173 C1171 1.415 . S
C1174 H1164 0.930 . S
C1174 C1172 1.419 . S
C1174 C1175 1.362 . S
C1175 H1165 0.930 . S
C1175 C1168 1.409 1_556 S
C1175 C1174 1.362 . S
H1176 C1182 0.930 . S
H1177 C1185 0.930 . S
H1178 C1186 0.930 . S
H1179 C1187 0.930 . S
H1180 C1190 0.930 . S
H1181 C1191 0.930 . S
C1182 H1176 0.930 . S
C1182 C1183 1.355 . S
C1182 C1184 1.415 . S
C1183 C1182 1.355 . S
C1183 C1185 1.419 . S
C1184 C1182 1.415 . S
C1184 C1189 1.425 . S
C1184 C1191 1.409 . S
C1185 H1177 0.930 . S
C1185 C1183 1.419 . S
C1185 C1186 1.362 . S
C1186 H1178 0.930 . S
C1186 C1185 1.362 . S
C1186 C1189 1.409 . S
C1187 H1179 0.930 . S
C1187 C1188 1.355 . S
C1187 C1189 1.415 . S
C1188 C1187 1.355 . S
C1188 C1190 1.419 . S
C1189 C1184 1.425 . S
C1189 C1186 1.409 . S
C1189 C1187 1.415 . S
C1190 H1180 0.930 . S
C1190 C1188 1.419 . S
C1190 C1191 1.362 . S
C1191 H1181 0.930 . S
C1191 C1184 1.409 . S
C1191 C1190 1.362 . S
H1192 C1198 0.930 . S
H1193 C1201 0.930 . S
H1194 C1202 0.930 . S
H1195 C1203 0.930 . S
H1196 C1206 0.930 . S
H1197 C1207 0.930 . S
C1198 H1192 0.930 . S
C1198 C1199 1.355 . S
C1198 C1200 1.415 . S
C1199 C1198 1.355 . S
C1199 C1201 1.419 . S
C1200 C1198 1.415 . S
C1200 C1205 1.425 . S
C1200 C1207 1.409 . S
C1201 H1193 0.930 . S
C1201 C1199 1.419 . S
C1201 C1202 1.362 . S
C1202 H1194 0.930 . S
C1202 C1201 1.362 . S
C1202 C1205 1.409 . S
C1203 H1195 0.930 . S
C1203 C1204 1.355 . S
C1203 C1205 1.415 . S
C1204 C1203 1.355 . S
C1204 C1206 1.419 . S
C1205 C1200 1.425 . S
C1205 C1202 1.409 . S
C1205 C1203 1.415 . S
C1206 H1196 0.930 . S
C1206 C1204 1.419 . S
C1206 C1207 1.362 . S
C1207 H1197 0.930 . S
C1207 C1200 1.409 . S
C1207 C1206 1.362 . S
H1208 C1214 0.930 . S
H1209 C1217 0.930 . S
H1210 C1218 0.930 . S
H1211 C1219 0.930 . S
H1212 C1222 0.930 . S
H1213 C1223 0.930 . S
C1214 H1208 0.930 . S
C1214 C1215 1.355 . S
C1214 C1216 1.415 . S
C1215 C1214 1.355 . S
C1215 C1217 1.419 . S
C1216 C1214 1.415 . S
C1216 C1221 1.425 . S
C1216 C1223 1.409 . S
C1217 H1209 0.930 . S
C1217 C1215 1.419 . S
C1217 C1218 1.362 . S
C1218 H1210 0.930 . S
C1218 C1217 1.362 . S
C1218 C1221 1.409 . S
C1219 H1211 0.930 . S
C1219 C1220 1.355 . S
C1219 C1221 1.415 . S
C1220 C1219 1.355 . S
C1220 C1222 1.419 . S
C1221 C1216 1.425 . S
C1221 C1218 1.409 . S
C1221 C1219 1.415 . S
C1222 H1212 0.930 . S
C1222 C1220 1.419 . S
C1222 C1223 1.362 . S
C1223 H1213 0.930 . S
C1223 C1216 1.409 . S
C1223 C1222 1.362 . S
H1224 C1230 0.930 . S
H1225 C1233 0.930 . S
H1226 C1234 0.930 . S
H1227 C1235 0.930 . S
H1228 C1238 0.930 . S
H1229 C1239 0.930 . S
C1230 H1224 0.930 . S
C1230 C1231 1.355 . S
C1230 C1232 1.415 . S
C1231 C1230 1.355 . S
C1231 C1233 1.419 . S
C1232 C1230 1.415 . S
C1232 C1237 1.425 . S
C1232 C1239 1.409 . S
C1233 H1225 0.930 . S
C1233 C1231 1.419 . S
C1233 C1234 1.362 . S
C1234 H1226 0.930 . S
C1234 C1233 1.362 . S
C1234 C1237 1.409 . S
C1235 H1227 0.930 . S
C1235 C1236 1.355 . S
C1235 C1237 1.415 . S
C1236 C1235 1.355 . S
C1236 C1238 1.419 . S
C1237 C1232 1.425 . S
C1237 C1234 1.409 . S
C1237 C1235 1.415 . S
C1238 H1228 0.930 . S
C1238 C1236 1.419 . S
C1238 C1239 1.362 . S
C1239 H1229 0.930 . S
C1239 C1232 1.409 . S
C1239 C1238 1.362 . S
H1240 C1246 0.930 . S
H1241 C1249 0.930 . S
H1242 C1250 0.930 . S
H1243 C1251 0.930 . S
H1244 C1254 0.930 . S
H1245 C1255 0.930 . S
C1246 H1240 0.930 . S
C1246 C1247 1.355 . S
C1246 C1248 1.415 . S
C1247 C1246 1.355 . S
C1247 C1249 1.419 . S
C1248 C1246 1.415 . S
C1248 C1253 1.425 . S
C1248 C1255 1.409 . S
C1249 H1241 0.930 . S
C1249 C1247 1.419 . S
C1249 C1250 1.362 . S
C1250 H1242 0.930 . S
C1250 C1249 1.362 . S
C1250 C1253 1.409 . S
C1251 H1243 0.930 . S
C1251 C1252 1.355 . S
C1251 C1253 1.415 . S
C1252 C1251 1.355 . S
C1252 C1254 1.419 . S
C1253 C1248 1.425 . S
C1253 C1250 1.409 . S
C1253 C1251 1.415 . S
C1254 H1244 0.930 . S
C1254 C1252 1.419 . S
C1254 C1255 1.362 . S
C1255 H1245 0.930 . S
C1255 C1248 1.409 . S
C1255 C1254 1.362 . S
H1256 C1262 0.930 . S
H1257 C1265 0.930 . S
H1258 C1266 0.930 . S
H1259 C1267 0.930 . S
H1260 C1270 0.930 . S
H1261 C1271 0.930 . S
C1262 H1256 0.930 . S
C1262 C1263 1.355 . S
C1262 C1264 1.415 . S
C1263 C1262 1.355 . S
C1263 C1265 1.419 . S
C1264 C1262 1.415 . S
C1264 C1269 1.425 . S
C1264 C1271 1.409 . S
C1265 H1257 0.930 . S
C1265 C1263 1.419 . S
C1265 C1266 1.362 . S
C1266 H1258 0.930 . S
C1266 C1265 1.362 . S
C1266 C1269 1.409 . S
C1267 H1259 0.930 . S
C1267 C1268 1.355 . S
C1267 C1269 1.415 . S
C1268 C1267 1.355 . S
C1268 C1270 1.419 . S
C1269 C1264 1.425 . S
C1269 C1266 1.409 . S
C1269 C1267 1.415 . S
C1270 H1260 0.930 . S
C1270 C1268 1.419 . S
C1270 C1271 1.362 . S
C1271 H1261 0.930 . S
C1271 C1264 1.409 . S
C1271 C1270 1.362 . S
H1272 C1278 0.930 . S
H1273 C1281 0.930 . S
H1274 C1282 0.930 . S
H1275 C1283 0.930 . S
H1276 C1286 0.930 . S
H1277 C1287 0.930 . S
C1278 H1272 0.930 . S
C1278 C1279 1.355 . S
C1278 C1280 1.415 . S
C1279 C1278 1.355 . S
C1279 C1281 1.419 . S
C1280 C1278 1.415 . S
C1280 C1285 1.425 . S
C1280 C1287 1.409 . S
C1281 H1273 0.930 . S
C1281 C1279 1.419 . S
C1281 C1282 1.362 . S
C1282 H1274 0.930 . S
C1282 C1281 1.362 . S
C1282 C1285 1.409 . S
C1283 H1275 0.930 . S
C1283 C1284 1.355 . S
C1283 C1285 1.415 . S
C1284 C1283 1.355 . S
C1284 C1286 1.419 . S
C1285 C1280 1.425 . S
C1285 C1282 1.409 . S
C1285 C1283 1.415 . S
C1286 H1276 0.930 . S
C1286 C1284 1.419 . S
C1286 C1287 1.362 . S
C1287 H1277 0.930 . S
C1287 C1280 1.409 . S
C1287 C1286 1.362 . S
H1288 C1294 0.930 . S
H1289 C1297 0.930 . S
H1290 C1298 0.930 . S
H1291 C1299 0.930 . S
H1292 C1302 0.930 . S
H1293 C1303 0.930 . S
C1294 H1288 0.930 . S
C1294 C1295 1.355 . S
C1294 C1296 1.415 . S
C1295 C1294 1.355 . S
C1295 C1297 1.419 . S
C1296 C1294 1.415 . S
C1296 C1301 1.425 . S
C1296 C1303 1.409 . S
C1297 H1289 0.930 . S
C1297 C1295 1.419 . S
C1297 C1298 1.362 . S
C1298 H1290 0.930 . S
C1298 C1297 1.362 . S
C1298 C1301 1.409 . S
C1299 H1291 0.930 . S
C1299 C1300 1.355 . S
C1299 C1301 1.415 . S
C1300 C1299 1.355 . S
C1300 C1302 1.419 . S
C1301 C1296 1.425 . S
C1301 C1298 1.409 . S
C1301 C1299 1.415 . S
C1302 H1292 0.930 . S
C1302 C1300 1.419 . S
C1302 C1303 1.362 . S
C1303 H1293 0.930 . S
C1303 C1296 1.409 . S
C1303 C1302 1.362 . S
H1304 C1310 0.930 . S
H1305 C1313 0.930 . S
H1306 C1314 0.930 . S
H1307 C1315 0.930 . S
H1308 C1318 0.930 . S
H1309 C1319 0.930 . S
C1310 H1304 0.930 . S
C1310 C1311 1.355 . S
C1310 C1312 1.415 . S
C1311 C1310 1.355 . S
C1311 C1313 1.419 . S
C1312 C1310 1.415 . S
C1312 C1317 1.425 . S
C1312 C1319 1.409 . S
C1313 H1305 0.930 . S
C1313 C1311 1.419 . S
C1313 C1314 1.362 . S
C1314 H1306 0.930 . S
C1314 C1313 1.362 . S
C1314 C1317 1.409 . S
C1315 H1307 0.930 . S
C1315 C1316 1.355 . S
C1315 C1317 1.415 . S
C1316 C1315 1.355 . S
C1316 C1318 1.419 . S
C1317 C1312 1.425 . S
C1317 C1314 1.409 . S
C1317 C1315 1.415 . S
C1318 H1308 0.930 . S
C1318 C1316 1.419 . S
C1318 C1319 1.362 . S
C1319 H1309 0.930 . S
C1319 C1312 1.409 . S
C1319 C1318 1.362 . S
H1320 C1326 0.930 . S
H1321 C1329 0.930 . S
H1322 C1330 0.930 . S
H1323 C1331 0.930 . S
H1324 C1334 0.930 . S
H1325 C1335 0.930 . S
C1326 H1320 0.930 . S
C1326 C1327 1.355 . S
C1326 C1328 1.415 . S
C1327 C1326 1.355 . S
C1327 C1329 1.419 . S
C1328 C1326 1.415 . S
C1328 C1333 1.425 . S
C1328 C1335 1.409 . S
C1329 H1321 0.930 . S
C1329 C1327 1.419 . S
C1329 C1330 1.362 . S
C1330 H1322 0.930 . S
C1330 C1329 1.362 . S
C1330 C1333 1.409 . S
C1331 H1323 0.930 . S
C1331 C1332 1.355 . S
C1331 C1333 1.415 . S
C1332 C1331 1.355 . S
C1332 C1334 1.419 . S
C1333 C1328 1.425 . S
C1333 C1330 1.409 . S
C1333 C1331 1.415 . S
C1334 H1324 0.930 . S
C1334 C1332 1.419 . S
C1334 C1335 1.362 . S
C1335 H1325 0.930 . S
C1335 C1328 1.409 . S
C1335 C1334 1.362 . S
H1336 C1342 0.930 . S
H1337 C1345 0.930 . S
H1338 C1346 0.930 . S
H1339 C1347 0.930 . S
H1340 C1350 0.930 . S
H1341 C1351 0.930 . S
C1342 H1336 0.930 . S
C1342 C1343 1.355 . S
C1342 C1344 1.415 . S
C1343 C1342 1.355 . S
C1343 C1345 1.419 . S
C1344 C1342 1.415 . S
C1344 C1349 1.425 . S
C1344 C1351 1.409 . S
C1345 H1337 0.930 . S
C1345 C1343 1.419 . S
C1345 C1346 1.362 . S
C1346 H1338 0.930 . S
C1346 C1345 1.362 . S
C1346 C1349 1.409 . S
C1347 H1339 0.930 . S
C1347 C1348 1.355 . S
C1347 C1349 1.415 . S
C1348 C1347 1.355 . S
C1348 C1350 1.419 . S
C1349 C1344 1.425 . S
C1349 C1346 1.409 . S
C1349 C1347 1.415 . S
C1350 H1340 0.930 . S
C1350 C1348 1.419 . S
C1350 C1351 1.362 . S
C1351 H1341 0.930 . S
C1351 C1344 1.409 . S
C1351 C1350 1.362 . S
H1352 C1358 0.930 . S
H1353 C1361 0.930 . S
H1354 C1362 0.930 . S
H1355 C1363 0.930 . S
H1356 C1366 0.930 . S
H1357 C1367 0.930 . S
C1358 H1352 0.930 . S
C1358 C1359 1.355 . S
C1358 C1360 1.415 . S
C1359 C1358 1.355 . S
C1359 C1361 1.419 . S
C1360 C1358 1.415 . S
C1360 C1365 1.425 . S
C1360 C1367 1.409 . S
C1361 H1353 0.930 . S
C1361 C1359 1.419 . S
C1361 C1362 1.362 . S
C1362 H1354 0.930 . S
C1362 C1361 1.362 . S
C1362 C1365 1.409 . S
C1363 H1355 0.930 . S
C1363 C1364 1.355 . S
C1363 C1365 1.415 . S
C1364 C1363 1.355 . S
C1364 C1366 1.419 . S
C1365 C1360 1.425 . S
C1365 C1362 1.409 . S
C1365 C1363 1.415 . S
C1366 H1356 0.930 . S
C1366 C1364 1.419 . S
C1366 C1367 1.362 . S
C1367 H1357 0.930 . S
C1367 C1360 1.409 . S
C1367 C1366 1.362 . S
H1368 C1374 0.930 . S
H1369 C1377 0.930 . S
H1370 C1378 0.930 . S
H1371 C1379 0.930 . S
H1372 C1382 0.930 . S
H1373 C1383 0.930 . S
C1374 H1368 0.930 . S
C1374 C1375 1.355 . S
C1374 C1376 1.415 . S
C1375 C1374 1.355 . S
C1375 C1377 1.419 . S
C1376 C1374 1.415 . S
C1376 C1381 1.425 . S
C1376 C1383 1.409 . S
C1377 H1369 0.930 . S
C1377 C1375 1.419 . S
C1377 C1378 1.362 . S
C1378 H1370 0.930 . S
C1378 C1377 1.362 . S
C1378 C1381 1.409 . S
C1379 H1371 0.930 . S
C1379 C1380 1.355 . S
C1379 C1381 1.415 . S
C1380 C1379 1.355 . S
C1380 C1382 1.419 . S
C1381 C1376 1.425 . S
C1381 C1378 1.409 . S
C1381 C1379 1.415 . S
C1382 H1372 0.930 . S
C1382 C1380 1.419 . S
C1382 C1383 1.362 . S
C1383 H1373 0.930 . S
C1383 C1376 1.409 . S
C1383 C1382 1.362 . S
H1384 C1390 0.930 . S
H1385 C1393 0.930 . S
H1386 C1394 0.930 . S
H1387 C1395 0.930 . S
H1388 C1398 0.930 . S
H1389 C1399 0.930 . S
C1390 H1384 0.930 . S
C1390 C1391 1.355 . S
C1390 C1392 1.415 . S
C1391 C1390 1.355 . S
C1391 C1393 1.419 . S
C1392 C1390 1.415 . S
C1392 C1397 1.425 . S
C1392 C1399 1.409 . S
C1393 H1385 0.930 . S
C1393 C1391 1.419 . S
C1393 C1394 1.362 . S
C1394 H1386 0.930 . S
C1394 C1393 1.362 . S
C1394 C1397 1.409 . S
C1395 H1387 0.930 . S
C1395 C1396 1.355 . S
C1395 C1397 1.415 . S
C1396 C1395 1.355 . S
C1396 C1398 1.419 . S
C1397 C1392 1.425 . S
C1397 C1394 1.409 . S
C1397 C1395 1.415 . S
C1398 H1388 0.930 . S
C1398 C1396 1.419 . S
C1398 C1399 1.362 . S
C1399 H1389 0.930 . S
C1399 C1392 1.409 . S
C1399 C1398 1.362 . S
H1400 C1406 0.930 . S
H1401 C1409 0.930 . S
H1402 C1410 0.930 . S
H1403 C1411 0.930 . S
H1404 C1414 0.930 . S
H1405 C1415 0.930 . S
C1406 H1400 0.930 . S
C1406 C1407 1.355 . S
C1406 C1408 1.415 . S
C1407 C1406 1.355 . S
C1407 C1409 1.419 . S
C1408 C1406 1.415 . S
C1408 C1413 1.425 . S
C1408 C1415 1.409 . S
C1409 H1401 0.930 . S
C1409 C1407 1.419 . S
C1409 C1410 1.362 . S
C1410 H1402 0.930 . S
C1410 C1409 1.362 . S
C1410 C1413 1.409 . S
C1411 H1403 0.930 . S
C1411 C1412 1.355 . S
C1411 C1413 1.415 . S
C1412 C1411 1.355 . S
C1412 C1414 1.419 . S
C1413 C1408 1.425 . S
C1413 C1410 1.409 . S
C1413 C1411 1.415 . S
C1414 H1404 0.930 . S
C1414 C1412 1.419 . S
C1414 C1415 1.362 . S
C1415 H1405 0.930 . S
C1415 C1408 1.409 . S
C1415 C1414 1.362 . S
H1416 C1422 0.930 . S
H1417 C1425 0.930 . S
H1418 C1426 0.930 . S
H1419 C1427 0.930 . S
H1420 C1430 0.930 . S
H1421 C1431 0.930 . S
C1422 H1416 0.930 . S
C1422 C1423 1.355 . S
C1422 C1424 1.415 . S
C1423 C1422 1.355 . S
C1423 C1425 1.419 . S
C1424 C1422 1.415 . S
C1424 C1429 1.425 . S
C1424 C1431 1.409 . S
C1425 H1417 0.930 . S
C1425 C1423 1.419 . S
C1425 C1426 1.362 . S
C1426 H1418 0.930 . S
C1426 C1425 1.362 . S
C1426 C1429 1.409 . S
C1427 H1419 0.930 . S
C1427 C1428 1.355 . S
C1427 C1429 1.415 . S
C1428 C1427 1.355 . S
C1428 C1430 1.419 . S
C1429 C1424 1.425 . S
C1429 C1426 1.409 . S
C1429 C1427 1.415 . S
C1430 H1420 0.930 . S
C1430 C1428 1.419 . S
C1430 C1431 1.362 . S
C1431 H1421 0.930 . S
C1431 C1424 1.409 . S
C1431 C1430 1.362 . S
H1432 C1438 0.930 . S
H1433 C1441 0.930 . S
H1434 C1442 0.930 . S
H1435 C1443 0.930 . S
H1436 C1446 0.930 . S
H1437 C1447 0.930 . S
C1438 H1432 0.930 . S
C1438 C1439 1.355 . S
C1438 C1440 1.415 . S
C1439 C1438 1.355 . S
C1439 C1441 1.419 . S
C1440 C1438 1.415 . S
C1440 C1445 1.425 . S
C1440 C1447 1.409 . S
C1441 H1433 0.930 . S
C1441 C1439 1.419 . S
C1441 C1442 1.362 . S
C1442 H1434 0.930 . S
C1442 C1441 1.362 . S
C1442 C1445 1.409 . S
C1443 H1435 0.930 . S
C1443 C1444 1.355 . S
C1443 C1445 1.415 . S
C1444 C1443 1.355 . S
C1444 C1446 1.419 . S
C1445 C1440 1.425 . S
C1445 C1442 1.409 . S
C1445 C1443 1.415 . S
C1446 H1436 0.930 . S
C1446 C1444 1.419 . S
C1446 C1447 1.362 . S
C1447 H1437 0.930 . S
C1447 C1440 1.409 . S
C1447 C1446 1.362 . S
H1448 C1454 0.930 . S
H1449 C1457 0.930 . S
H1450 C1458 0.930 . S
H1451 C1459 0.930 . S
H1452 C1462 0.930 . S
H1453 C1463 0.930 . S
C1454 H1448 0.930 . S
C1454 C1455 1.355 . S
C1454 C1456 1.415 . S
C1455 C1454 1.355 . S
C1455 C1457 1.419 . S
C1456 C1454 1.415 . S
C1456 C1461 1.425 . S
C1456 C1463 1.409 . S
C1457 H1449 0.930 . S
C1457 C1455 1.419 . S
C1457 C1458 1.362 . S
C1458 H1450 0.930 . S
C1458 C1457 1.362 . S
C1458 C1461 1.409 . S
C1459 H1451 0.930 . S
C1459 C1460 1.355 . S
C1459 C1461 1.415 . S
C1460 C1459 1.355 . S
C1460 C1462 1.419 . S
C1461 C1456 1.425 . S
C1461 C1458 1.409 . S
C1461 C1459 1.415 . S
C1462 H1452 0.930 . S
C1462 C1460 1.419 . S
C1462 C1463 1.362 . S
C1463 H1453 0.930 . S
C1463 C1456 1.409 . S
C1463 C1462 1.362 . S
H1464 C1470 0.930 . S
H1465 C1473 0.930 . S
H1466 C1474 0.930 . S
H1467 C1475 0.930 . S
H1468 C1478 0.930 . S
H1469 C1479 0.930 . S
C1470 H1464 0.930 . S
C1470 C1471 1.355 . S
C1470 C1472 1.415 . S
C1471 C1470 1.355 . S
C1471 C1473 1.419 . S
C1472 C1470 1.415 . S
C1472 C1477 1.425 1_545 S
C1472 C1479 1.409 . S
C1473 H1465 0.930 . S
C1473 C1471 1.419 . S
C1473 C1474 1.362 1_545 S
C1474 H1466 0.930 . S
C1474 C1473 1.362 1_565 S
C1474 C1477 1.409 . S
C1475 H1467 0.930 . S
C1475 C1476 1.355 . S
C1475 C1477 1.415 . S
C1476 C1475 1.355 . S
C1476 C1478 1.419 . S
C1477 C1472 1.425 1_565 S
C1477 C1474 1.409 . S
C1477 C1475 1.415 . S
C1478 H1468 0.930 . S
C1478 C1476 1.419 . S
C1478 C1479 1.362 1_565 S
C1479 H1469 0.930 . S
C1479 C1472 1.409 . S
C1479 C1478 1.362 1_545 S
H1480 C1486 0.930 . S
H1481 C1489 0.930 . S
H1482 C1490 0.930 . S
H1483 C1491 0.930 . S
H1484 C1494 0.930 . S
H1485 C1495 0.930 . S
C1486 H1480 0.930 . S
C1486 C1487 1.355 . S
C1486 C1488 1.415 . S
C1487 C1486 1.355 . S
C1487 C1489 1.419 . S
C1488 C1486 1.415 . S
C1488 C1493 1.425 . S
C1488 C1495 1.409 . S
C1489 H1481 0.930 . S
C1489 C1487 1.419 . S
C1489 C1490 1.362 . S
C1490 H1482 0.930 . S
C1490 C1489 1.362 . S
C1490 C1493 1.409 . S
C1491 H1483 0.930 . S
C1491 C1492 1.355 . S
C1491 C1493 1.415 . S
C1492 C1491 1.355 . S
C1492 C1494 1.419 . S
C1493 C1488 1.425 . S
C1493 C1490 1.409 . S
C1493 C1491 1.415 . S
C1494 H1484 0.930 . S
C1494 C1492 1.419 . S
C1494 C1495 1.362 . S
C1495 H1485 0.930 . S
C1495 C1488 1.409 . S
C1495 C1494 1.362 . S
H1496 C1502 0.930 . S
H1497 C1505 0.930 . S
H1498 C1506 0.930 . S
H1499 C1507 0.930 . S
H1500 C1510 0.930 . S
H1501 C1511 0.930 . S
C1502 H1496 0.930 . S
C1502 C1503 1.355 . S
C1502 C1504 1.415 . S
C1503 C1502 1.355 . S
C1503 C1505 1.419 . S
C1504 C1502 1.415 . S
C1504 C1509 1.425 1_655 S
C1504 C1511 1.409 . S
C1505 H1497 0.930 . S
C1505 C1503 1.419 . S
C1505 C1506 1.362 1_655 S
C1506 H1498 0.930 . S
C1506 C1505 1.362 1_455 S
C1506 C1509 1.409 . S
C1507 H1499 0.930 . S
C1507 C1508 1.355 . S
C1507 C1509 1.415 . S
C1508 C1507 1.355 . S
C1508 C1510 1.419 . S
C1509 C1504 1.425 1_455 S
C1509 C1506 1.409 . S
C1509 C1507 1.415 . S
C1510 H1500 0.930 . S
C1510 C1508 1.419 . S
C1510 C1511 1.362 1_455 S
C1511 H1501 0.930 . S
C1511 C1504 1.409 . S
C1511 C1510 1.362 1_655 S
H1512 C1518 0.930 . S
H1513 C1521 0.930 . S
H1514 C1522 0.930 . S
H1515 C1523 0.930 . S
H1516 C1526 0.930 . S
H1517 C1527 0.930 . S
C1518 H1512 0.930 . S
C1518 C1519 1.355 . S
C1518 C1520 1.415 1_455 S
C1519 C1518 1.355 . S
C1519 C1521 1.419 . S
C1520 C1518 1.415 1_655 S
C1520 C1525 1.425 1_655 S
C1520 C1527 1.409 . S
C1521 H1513 0.930 . S
C1521 C1519 1.419 . S
C1521 C1522 1.362 . S
C1522 H1514 0.930 . S
C1522 C1521 1.362 . S
C1522 C1525 1.409 . S
C1523 H1515 0.930 . S
C1523 C1524 1.355 . S
C1523 C1525 1.415 1_655 S
C1524 C1523 1.355 . S
C1524 C1526 1.419 . S
C1525 C1520 1.425 1_455 S
C1525 C1522 1.409 . S
C1525 C1523 1.415 1_455 S
C1526 H1516 0.930 . S
C1526 C1524 1.419 . S
C1526 C1527 1.362 . S
C1527 H1517 0.930 . S
C1527 C1520 1.409 . S
C1527 C1526 1.362 . S
H1528 C1534 0.930 . S
H1529 C1537 0.930 . S
H1530 C1538 0.930 . S
H1531 C1539 0.930 . S
H1532 C1542 0.930 . S
H1533 C1543 0.930 . S
C1534 H1528 0.930 . S
C1534 C1535 1.355 . S
C1534 C1536 1.415 . S
C1535 C1534 1.355 . S
C1535 C1537 1.419 . S
C1536 C1534 1.415 . S
C1536 C1541 1.425 1_545 S
C1536 C1543 1.409 1_545 S
C1537 H1529 0.930 . S
C1537 C1535 1.419 . S
C1537 C1538 1.362 . S
C1538 H1530 0.930 . S
C1538 C1537 1.362 . S
C1538 C1541 1.409 1_545 S
C1539 H1531 0.930 . S
C1539 C1540 1.355 . S
C1539 C1541 1.415 . S
C1540 C1539 1.355 . S
C1540 C1542 1.419 . S
C1541 C1536 1.425 1_565 S
C1541 C1538 1.409 1_565 S
C1541 C1539 1.415 . S
C1542 H1532 0.930 . S
C1542 C1540 1.419 . S
C1542 C1543 1.362 . S
C1543 H1533 0.930 . S
C1543 C1536 1.409 1_565 S
C1543 C1542 1.362 . S
H1544 C1550 0.930 . S
H1545 C1553 0.930 . S
H1546 C1554 0.930 . S
H1547 C1555 0.930 . S
H1548 C1558 0.930 . S
H1549 C1559 0.930 . S
C1550 H1544 0.930 . S
C1550 C1551 1.355 . S
C1550 C1552 1.415 . S
C1551 C1550 1.355 . S
C1551 C1553 1.419 . S
C1552 C1550 1.415 . S
C1552 C1557 1.425 . S
C1552 C1559 1.409 . S
C1553 H1545 0.930 . S
C1553 C1551 1.419 . S
C1553 C1554 1.362 . S
C1554 H1546 0.930 . S
C1554 C1553 1.362 . S
C1554 C1557 1.409 . S
C1555 H1547 0.930 . S
C1555 C1556 1.355 . S
C1555 C1557 1.415 . S
C1556 C1555 1.355 . S
C1556 C1558 1.419 . S
C1557 C1552 1.425 . S
C1557 C1554 1.409 . S
C1557 C1555 1.415 . S
C1558 H1548 0.930 . S
C1558 C1556 1.419 . S
C1558 C1559 1.362 . S
C1559 H1549 0.930 . S
C1559 C1552 1.409 . S
C1559 C1558 1.362 . S
H1560 C1566 0.930 . S
H1561 C1569 0.930 . S
H1562 C1570 0.930 . S
H1563 C1571 0.930 . S
H1564 C1574 0.930 . S
H1565 C1575 0.930 . S
C1566 H1560 0.930 . S
C1566 C1567 1.355 . S
C1566 C1568 1.415 . S
C1567 C1566 1.355 . S
C1567 C1569 1.419 . S
C1568 C1566 1.415 . S
C1568 C1573 1.425 1_545 S
C1568 C1575 1.409 . S
C1569 H1561 0.930 . S
C1569 C1567 1.419 . S
C1569 C1570 1.362 1_545 S
C1570 H1562 0.930 . S
C1570 C1569 1.362 1_565 S
C1570 C1573 1.409 . S
C1571 H1563 0.930 . S
C1571 C1572 1.355 . S
C1571 C1573 1.415 . S
C1572 C1571 1.355 . S
C1572 C1574 1.419 . S
C1573 C1568 1.425 1_565 S
C1573 C1570 1.409 . S
C1573 C1571 1.415 . S
C1574 H1564 0.930 . S
C1574 C1572 1.419 . S
C1574 C1575 1.362 1_565 S
C1575 H1565 0.930 . S
C1575 C1568 1.409 . S
C1575 C1574 1.362 1_545 S
H1576 C1582 0.930 . S
H1577 C1585 0.930 . S
H1578 C1586 0.930 . S
H1579 C1587 0.930 . S
H1580 C1590 0.930 . S
H1581 C1591 0.930 . S
C1582 H1576 0.930 . S
C1582 C1583 1.355 . S
C1582 C1584 1.415 . S
C1583 C1582 1.355 . S
C1583 C1585 1.419 . S
C1584 C1582 1.415 . S
C1584 C1589 1.425 . S
C1584 C1591 1.409 . S
C1585 H1577 0.930 . S
C1585 C1583 1.419 . S
C1585 C1586 1.362 . S
C1586 H1578 0.930 . S
C1586 C1585 1.362 . S
C1586 C1589 1.409 . S
C1587 H1579 0.930 . S
C1587 C1588 1.355 . S
C1587 C1589 1.415 . S
C1588 C1587 1.355 . S
C1588 C1590 1.419 . S
C1589 C1584 1.425 . S
C1589 C1586 1.409 . S
C1589 C1587 1.415 . S
C1590 H1580 0.930 . S
C1590 C1588 1.419 . S
C1590 C1591 1.362 . S
C1591 H1581 0.930 . S
C1591 C1584 1.409 . S
C1591 C1590 1.362 . S
H1592 C1598 0.930 . S
H1593 C1601 0.930 . S
H1594 C1602 0.930 . S
H1595 C1603 0.930 . S
H1596 C1606 0.930 . S
H1597 C1607 0.930 . S
C1598 H1592 0.930 . S
C1598 C1599 1.355 . S
C1598 C1600 1.415 1_455 S
C1599 C1598 1.355 . S
C1599 C1601 1.419 . S
C1600 C1598 1.415 1_655 S
C1600 C1605 1.425 1_655 S
C1600 C1607 1.409 . S
C1601 H1593 0.930 . S
C1601 C1599 1.419 . S
C1601 C1602 1.362 . S
C1602 H1594 0.930 . S
C1602 C1601 1.362 . S
C1602 C1605 1.409 . S
C1603 H1595 0.930 . S
C1603 C1604 1.355 . S
C1603 C1605 1.415 1_655 S
C1604 C1603 1.355 . S
C1604 C1606 1.419 . S
C1605 C1600 1.425 1_455 S
C1605 C1602 1.409 . S
C1605 C1603 1.415 1_455 S
C1606 H1596 0.930 . S
C1606 C1604 1.419 . S
C1606 C1607 1.362 . S
C1607 H1597 0.930 . S
C1607 C1600 1.409 . S
C1607 C1606 1.362 . S
H1608 C1614 0.930 . S
H1609 C1617 0.930 . S
H1610 C1618 0.930 . S
H1611 C1619 0.930 . S
H1612 C1622 0.930 . S
H1613 C1623 0.930 . S
C1614 H1608 0.930 . S
C1614 C1615 1.355 . S
C1614 C1616 1.415 . S
C1615 C1614 1.355 . S
C1615 C1617 1.419 . S
C1616 C1614 1.415 . S
C1616 C1621 1.425 1_655 S
C1616 C1623 1.409 . S
C1617 H1609 0.930 . S
C1617 C1615 1.419 . S
C1617 C1618 1.362 1_655 S
C1618 H1610 0.930 . S
C1618 C1617 1.362 1_455 S
C1618 C1621 1.409 . S
C1619 H1611 0.930 . S
C1619 C1620 1.355 . S
C1619 C1621 1.415 . S
C1620 C1619 1.355 . S
C1620 C1622 1.419 . S
C1621 C1616 1.425 1_455 S
C1621 C1618 1.409 . S
C1621 C1619 1.415 . S
C1622 H1612 0.930 . S
C1622 C1620 1.419 . S
C1622 C1623 1.362 1_455 S
C1623 H1613 0.930 . S
C1623 C1616 1.409 . S
C1623 C1622 1.362 1_655 S
H1624 C1630 0.930 . S
H1625 C1633 0.930 . S
H1626 C1634 0.930 . S
H1627 C1635 0.930 . S
H1628 C1638 0.930 . S
H1629 C1639 0.930 . S
C1630 H1624 0.930 . S
C1630 C1631 1.355 . S
C1630 C1632 1.415 . S
C1631 C1630 1.355 . S
C1631 C1633 1.419 . S
C1632 C1630 1.415 . S
C1632 C1637 1.425 1_545 S
C1632 C1639 1.409 . S
C1633 H1625 0.930 . S
C1633 C1631 1.419 . S
C1633 C1634 1.362 1_545 S
C1634 H1626 0.930 . S
C1634 C1633 1.362 1_565 S
C1634 C1637 1.409 . S
C1635 H1627 0.930 . S
C1635 C1636 1.355 . S
C1635 C1637 1.415 . S
C1636 C1635 1.355 . S
C1636 C1638 1.419 . S
C1637 C1632 1.425 1_565 S
C1637 C1634 1.409 . S
C1637 C1635 1.415 . S
C1638 H1628 0.930 . S
C1638 C1636 1.419 . S
C1638 C1639 1.362 1_565 S
C1639 H1629 0.930 . S
C1639 C1632 1.409 . S
C1639 C1638 1.362 1_545 S
H1640 C1646 0.930 . S
H1641 C1649 0.930 . S
H1642 C1650 0.930 . S
H1643 C1651 0.930 . S
H1644 C1654 0.930 . S
H1645 C1655 0.930 . S
C1646 H1640 0.930 . S
C1646 C1647 1.355 . S
C1646 C1648 1.415 . S
C1647 C1646 1.355 . S
C1647 C1649 1.419 . S
C1648 C1646 1.415 . S
C1648 C1653 1.425 . S
C1648 C1655 1.409 . S
C1649 H1641 0.930 . S
C1649 C1647 1.419 . S
C1649 C1650 1.362 . S
C1650 H1642 0.930 . S
C1650 C1649 1.362 . S
C1650 C1653 1.409 . S
C1651 H1643 0.930 . S
C1651 C1652 1.355 . S
C1651 C1653 1.415 . S
C1652 C1651 1.355 . S
C1652 C1654 1.419 . S
C1653 C1648 1.425 . S
C1653 C1650 1.409 . S
C1653 C1651 1.415 . S
C1654 H1644 0.930 . S
C1654 C1652 1.419 . S
C1654 C1655 1.362 . S
C1655 H1645 0.930 . S
C1655 C1648 1.409 . S
C1655 C1654 1.362 . S
H1656 C1662 0.930 . S
H1657 C1665 0.930 . S
H1658 C1666 0.930 . S
H1659 C1667 0.930 . S
H1660 C1670 0.930 . S
H1661 C1671 0.930 . S
C1662 H1656 0.930 . S
C1662 C1663 1.355 . S
C1662 C1664 1.415 . S
C1663 C1662 1.355 . S
C1663 C1665 1.419 . S
C1664 C1662 1.415 . S
C1664 C1669 1.425 . S
C1664 C1671 1.409 . S
C1665 H1657 0.930 . S
C1665 C1663 1.419 . S
C1665 C1666 1.362 . S
C1666 H1658 0.930 . S
C1666 C1665 1.362 . S
C1666 C1669 1.409 . S
C1667 H1659 0.930 . S
C1667 C1668 1.355 . S
C1667 C1669 1.415 . S
C1668 C1667 1.355 . S
C1668 C1670 1.419 . S
C1669 C1664 1.425 . S
C1669 C1666 1.409 . S
C1669 C1667 1.415 . S
C1670 H1660 0.930 . S
C1670 C1668 1.419 . S
C1670 C1671 1.362 . S
C1671 H1661 0.930 . S
C1671 C1664 1.409 . S
C1671 C1670 1.362 . S
H1672 C1678 0.930 . S
H1673 C1681 0.930 . S
H1674 C1682 0.930 . S
H1675 C1683 0.930 . S
H1676 C1686 0.930 . S
H1677 C1687 0.930 . S
C1678 H1672 0.930 . S
C1678 C1679 1.355 . S
C1678 C1680 1.415 . S
C1679 C1678 1.355 . S
C1679 C1681 1.419 . S
C1680 C1678 1.415 . S
C1680 C1685 1.425 . S
C1680 C1687 1.409 . S
C1681 H1673 0.930 . S
C1681 C1679 1.419 . S
C1681 C1682 1.362 . S
C1682 H1674 0.930 . S
C1682 C1681 1.362 . S
C1682 C1685 1.409 . S
C1683 H1675 0.930 . S
C1683 C1684 1.355 . S
C1683 C1685 1.415 . S
C1684 C1683 1.355 . S
C1684 C1686 1.419 . S
C1685 C1680 1.425 . S
C1685 C1682 1.409 . S
C1685 C1683 1.415 . S
C1686 H1676 0.930 . S
C1686 C1684 1.419 . S
C1686 C1687 1.362 . S
C1687 H1677 0.930 . S
C1687 C1680 1.409 . S
C1687 C1686 1.362 . S
H1688 C1694 0.930 . S
H1689 C1697 0.930 . S
H1690 C1698 0.930 . S
H1691 C1699 0.930 . S
H1692 C1702 0.930 . S
H1693 C1703 0.930 . S
C1694 H1688 0.930 . S
C1694 C1695 1.355 . S
C1694 C1696 1.415 . S
C1695 C1694 1.355 . S
C1695 C1697 1.419 . S
C1696 C1694 1.415 . S
C1696 C1701 1.425 . S
C1696 C1703 1.409 . S
C1697 H1689 0.930 . S
C1697 C1695 1.419 . S
C1697 C1698 1.362 . S
C1698 H1690 0.930 . S
C1698 C1697 1.362 . S
C1698 C1701 1.409 . S
C1699 H1691 0.930 . S
C1699 C1700 1.355 . S
C1699 C1701 1.415 . S
C1700 C1699 1.355 . S
C1700 C1702 1.419 . S
C1701 C1696 1.425 . S
C1701 C1698 1.409 . S
C1701 C1699 1.415 . S
C1702 H1692 0.930 . S
C1702 C1700 1.419 . S
C1702 C1703 1.362 . S
C1703 H1693 0.930 . S
C1703 C1696 1.409 . S
C1703 C1702 1.362 . S
H1704 C1710 0.930 . S
H1705 C1713 0.930 . S
H1706 C1714 0.930 . S
H1707 C1715 0.930 . S
H1708 C1718 0.930 . S
H1709 C1719 0.930 . S
C1710 H1704 0.930 . S
C1710 C1711 1.355 . S
C1710 C1712 1.415 . S
C1711 C1710 1.355 . S
C1711 C1713 1.419 . S
C1712 C1710 1.415 . S
C1712 C1717 1.425 . S
C1712 C1719 1.409 . S
C1713 H1705 0.930 . S
C1713 C1711 1.419 . S
C1713 C1714 1.362 . S
C1714 H1706 0.930 . S
C1714 C1713 1.362 . S
C1714 C1717 1.409 . S
C1715 H1707 0.930 . S
C1715 C1716 1.355 . S
C1715 C1717 1.415 . S
C1716 C1715 1.355 . S
C1716 C1718 1.419 . S
C1717 C1712 1.425 . S
C1717 C1714 1.409 . S
C1717 C1715 1.415 . S
C1718 H1708 0.930 . S
C1718 C1716 1.419 . S
C1718 C1719 1.362 . S
C1719 H1709 0.930 . S
C1719 C1712 1.409 . S
C1719 C1718 1.362 . S
H1720 C1726 0.930 . S
H1721 C1729 0.930 . S
H1722 C1730 0.930 . S
H1723 C1731 0.930 . S
H1724 C1734 0.930 . S
H1725 C1735 0.930 . S
C1726 H1720 0.930 . S
C1726 C1727 1.355 . S
C1726 C1728 1.415 . S
C1727 C1726 1.355 . S
C1727 C1729 1.419 . S
C1728 C1726 1.415 . S
C1728 C1733 1.425 . S
C1728 C1735 1.409 . S
C1729 H1721 0.930 . S
C1729 C1727 1.419 . S
C1729 C1730 1.362 . S
C1730 H1722 0.930 . S
C1730 C1729 1.362 . S
C1730 C1733 1.409 . S
C1731 H1723 0.930 . S
C1731 C1732 1.355 . S
C1731 C1733 1.415 . S
C1732 C1731 1.355 . S
C1732 C1734 1.419 . S
C1733 C1728 1.425 . S
C1733 C1730 1.409 . S
C1733 C1731 1.415 . S
C1734 H1724 0.930 . S
C1734 C1732 1.419 . S
C1734 C1735 1.362 . S
C1735 H1725 0.930 . S
C1735 C1728 1.409 . S
C1735 C1734 1.362 . S
H1736 C1742 0.930 . S
H1737 C1745 0.930 . S
H1738 C1746 0.930 . S
H1739 C1747 0.930 . S
H1740 C1750 0.930 . S
H1741 C1751 0.930 . S
C1742 H1736 0.930 . S
C1742 C1743 1.355 . S
C1742 C1744 1.415 . S
C1743 C1742 1.355 . S
C1743 C1745 1.419 . S
C1744 C1742 1.415 . S
C1744 C1749 1.425 . S
C1744 C1751 1.409 . S
C1745 H1737 0.930 . S
C1745 C1743 1.419 . S
C1745 C1746 1.362 . S
C1746 H1738 0.930 . S
C1746 C1745 1.362 . S
C1746 C1749 1.409 . S
C1747 H1739 0.930 . S
C1747 C1748 1.355 . S
C1747 C1749 1.415 . S
C1748 C1747 1.355 . S
C1748 C1750 1.419 . S
C1749 C1744 1.425 . S
C1749 C1746 1.409 . S
C1749 C1747 1.415 . S
C1750 H1740 0.930 . S
C1750 C1748 1.419 . S
C1750 C1751 1.362 . S
C1751 H1741 0.930 . S
C1751 C1744 1.409 . S
C1751 C1750 1.362 . S
H1752 C1758 0.930 . S
H1753 C1761 0.930 . S
H1754 C1762 0.930 . S
H1755 C1763 0.930 . S
H1756 C1766 0.930 . S
H1757 C1767 0.930 . S
C1758 H1752 0.930 . S
C1758 C1759 1.355 . S
C1758 C1760 1.415 . S
C1759 C1758 1.355 . S
C1759 C1761 1.419 . S
C1760 C1758 1.415 . S
C1760 C1765 1.425 . S
C1760 C1767 1.409 . S
C1761 H1753 0.930 . S
C1761 C1759 1.419 . S
C1761 C1762 1.362 . S
C1762 H1754 0.930 . S
C1762 C1761 1.362 . S
C1762 C1765 1.409 . S
C1763 H1755 0.930 . S
C1763 C1764 1.355 . S
C1763 C1765 1.415 . S
C1764 C1763 1.355 . S
C1764 C1766 1.419 . S
C1765 C1760 1.425 . S
C1765 C1762 1.409 . S
C1765 C1763 1.415 . S
C1766 H1756 0.930 . S
C1766 C1764 1.419 . S
C1766 C1767 1.362 . S
C1767 H1757 0.930 . S
C1767 C1760 1.409 . S
C1767 C1766 1.362 . S
H1768 C1774 0.930 . S
H1769 C1777 0.930 . S
H1770 C1778 0.930 . S
H1771 C1779 0.930 . S
H1772 C1782 0.930 . S
H1773 C1783 0.930 . S
C1774 H1768 0.930 . S
C1774 C1775 1.355 . S
C1774 C1776 1.415 . S
C1775 C1774 1.355 . S
C1775 C1777 1.419 . S
C1776 C1774 1.415 . S
C1776 C1781 1.425 . S
C1776 C1783 1.409 . S
C1777 H1769 0.930 . S
C1777 C1775 1.419 . S
C1777 C1778 1.362 . S
C1778 H1770 0.930 . S
C1778 C1777 1.362 . S
C1778 C1781 1.409 . S
C1779 H1771 0.930 . S
C1779 C1780 1.355 . S
C1779 C1781 1.415 . S
C1780 C1779 1.355 . S
C1780 C1782 1.419 . S
C1781 C1776 1.425 . S
C1781 C1778 1.409 . S
C1781 C1779 1.415 . S
C1782 H1772 0.930 . S
C1782 C1780 1.419 . S
C1782 C1783 1.362 . S
C1783 H1773 0.930 . S
C1783 C1776 1.409 . S
C1783 C1782 1.362 . S
H1784 C1790 0.930 . S
H1785 C1793 0.930 . S
H1786 C1794 0.930 . S
H1787 C1795 0.930 . S
H1788 C1798 0.930 . S
H1789 C1799 0.930 . S
C1790 H1784 0.930 . S
C1790 C1791 1.355 . S
C1790 C1792 1.415 . S
C1791 C1790 1.355 . S
C1791 C1793 1.419 . S
C1792 C1790 1.415 . S
C1792 C1797 1.425 . S
C1792 C1799 1.409 . S
C1793 H1785 0.930 . S
C1793 C1791 1.419 . S
C1793 C1794 1.362 . S
C1794 H1786 0.930 . S
C1794 C1793 1.362 . S
C1794 C1797 1.409 . S
C1795 H1787 0.930 . S
C1795 C1796 1.355 . S
C1795 C1797 1.415 . S
C1796 C1795 1.355 . S
C1796 C1798 1.419 . S
C1797 C1792 1.425 . S
C1797 C1794 1.409 . S
C1797 C1795 1.415 . S
C1798 H1788 0.930 . S
C1798 C1796 1.419 . S
C1798 C1799 1.362 . S
C1799 H1789 0.930 . S
C1799 C1792 1.409 . S
C1799 C1798 1.362 . S
H1800 C1806 0.930 . S
H1801 C1809 0.930 . S
H1802 C1810 0.930 . S
H1803 C1811 0.930 . S
H1804 C1814 0.930 . S
H1805 C1815 0.930 . S
C1806 H1800 0.930 . S
C1806 C1807 1.355 . S
C1806 C1808 1.415 . S
C1807 C1806 1.355 . S
C1807 C1809 1.419 . S
C1808 C1806 1.415 . S
C1808 C1813 1.425 . S
C1808 C1815 1.409 . S
C1809 H1801 0.930 . S
C1809 C1807 1.419 . S
C1809 C1810 1.362 . S
C1810 H1802 0.930 . S
C1810 C1809 1.362 . S
C1810 C1813 1.409 . S
C1811 H1803 0.930 . S
C1811 C1812 1.355 . S
C1811 C1813 1.415 . S
C1812 C1811 1.355 . S
C1812 C1814 1.419 . S
C1813 C1808 1.425 . S
C1813 C1810 1.409 . S
C1813 C1811 1.415 . S
C1814 H1804 0.930 . S
C1814 C1812 1.419 . S
C1814 C1815 1.362 . S
C1815 H1805 0.930 . S
C1815 C1808 1.409 . S
C1815 C1814 1.362 . S
H1816 C1822 0.930 . S
H1817 C1825 0.930 . S
H1818 C1826 0.930 . S
H1819 C1827 0.930 . S
H1820 C1830 0.930 . S
H1821 C1831 0.930 . S
C1822 H1816 0.930 . S
C1822 C1823 1.355 . S
C1822 C1824 1.415 . S
C1823 C1822 1.355 . S
C1823 C1825 1.419 . S
C1824 C1822 1.415 . S
C1824 C1829 1.425 . S
C1824 C1831 1.409 . S
C1825 H1817 0.930 . S
C1825 C1823 1.419 . S
C1825 C1826 1.362 . S
C1826 H1818 0.930 . S
C1826 C1825 1.362 . S
C1826 C1829 1.409 . S
C1827 H1819 0.930 . S
C1827 C1828 1.355 . S
C1827 C1829 1.415 . S
C1828 C1827 1.355 . S
C1828 C1830 1.419 . S
C1829 C1824 1.425 . S
C1829 C1826 1.409 . S
C1829 C1827 1.415 . S
C1830 H1820 0.930 . S
C1830 C1828 1.419 . S
C1830 C1831 1.362 . S
C1831 H1821 0.930 . S
C1831 C1824 1.409 . S
C1831 C1830 1.362 . S
H1832 C1838 0.930 . S
H1833 C1841 0.930 . S
H1834 C1842 0.930 . S
H1835 C1843 0.930 . S
H1836 C1846 0.930 . S
H1837 C1847 0.930 . S
C1838 H1832 0.930 . S
C1838 C1839 1.355 . S
C1838 C1840 1.415 . S
C1839 C1838 1.355 . S
C1839 C1841 1.419 . S
C1840 C1838 1.415 . S
C1840 C1845 1.425 . S
C1840 C1847 1.409 . S
C1841 H1833 0.930 . S
C1841 C1839 1.419 . S
C1841 C1842 1.362 . S
C1842 H1834 0.930 . S
C1842 C1841 1.362 . S
C1842 C1845 1.409 . S
C1843 H1835 0.930 . S
C1843 C1844 1.355 . S
C1843 C1845 1.415 . S
C1844 C1843 1.355 . S
C1844 C1846 1.419 . S
C1845 C1840 1.425 . S
C1845 C1842 1.409 . S
C1845 C1843 1.415 . S
C1846 H1836 0.930 . S
C1846 C1844 1.419 . S
C1846 C1847 1.362 . S
C1847 H1837 0.930 . S
C1847 C1840 1.409 . S
C1847 C1846 1.362 . S
H1848 C1854 0.930 . S
H1849 C1857 0.930 . S
H1850 C1858 0.930 . S
H1851 C1859 0.930 . S
H1852 C1862 0.930 . S
H1853 C1863 0.930 . S
C1854 H1848 0.930 . S
C1854 C1855 1.355 . S
C1854 C1856 1.415 . S
C1855 C1854 1.355 . S
C1855 C1857 1.419 . S
C1856 C1854 1.415 . S
C1856 C1861 1.425 . S
C1856 C1863 1.409 . S
C1857 H1849 0.930 . S
C1857 C1855 1.419 . S
C1857 C1858 1.362 . S
C1858 H1850 0.930 . S
C1858 C1857 1.362 . S
C1858 C1861 1.409 . S
C1859 H1851 0.930 . S
C1859 C1860 1.355 . S
C1859 C1861 1.415 . S
C1860 C1859 1.355 . S
C1860 C1862 1.419 . S
C1861 C1856 1.425 . S
C1861 C1858 1.409 . S
C1861 C1859 1.415 . S
C1862 H1852 0.930 . S
C1862 C1860 1.419 . S
C1862 C1863 1.362 . S
C1863 H1853 0.930 . S
C1863 C1856 1.409 . S
C1863 C1862 1.362 . S
H1864 C1870 0.930 . S
H1865 C1873 0.930 . S
H1866 C1874 0.930 . S
H1867 C1875 0.930 . S
H1868 C1878 0.930 . S
H1869 C1879 0.930 . S
C1870 H1864 0.930 . S
C1870 C1871 1.355 . S
C1870 C1872 1.415 . S
C1871 C1870 1.355 . S
C1871 C1873 1.419 . S
C1872 C1870 1.415 . S
C1872 C1877 1.425 . S
C1872 C1879 1.409 . S
C1873 H1865 0.930 . S
C1873 C1871 1.419 . S
C1873 C1874 1.362 . S
C1874 H1866 0.930 . S
C1874 C1873 1.362 . S
C1874 C1877 1.409 . S
C1875 H1867 0.930 . S
C1875 C1876 1.355 . S
C1875 C1877 1.415 . S
C1876 C1875 1.355 . S
C1876 C1878 1.419 . S
C1877 C1872 1.425 . S
C1877 C1874 1.409 . S
C1877 C1875 1.415 . S
C1878 H1868 0.930 . S
C1878 C1876 1.419 . S
C1878 C1879 1.362 . S
C1879 H1869 0.930 . S
C1879 C1872 1.409 . S
C1879 C1878 1.362 . S
H1880 C1886 0.930 . S
H1881 C1889 0.930 . S
H1882 C1890 0.930 . S
H1883 C1891 0.930 . S
H1884 C1894 0.930 . S
H1885 C1895 0.930 . S
C1886 H1880 0.930 . S
C1886 C1887 1.355 . S
C1886 C1888 1.415 . S
C1887 C1886 1.355 . S
C1887 C1889 1.419 . S
C1888 C1886 1.415 . S
C1888 C1893 1.425 . S
C1888 C1895 1.409 . S
C1889 H1881 0.930 . S
C1889 C1887 1.419 . S
C1889 C1890 1.362 . S
C1890 H1882 0.930 . S
C1890 C1889 1.362 . S
C1890 C1893 1.409 . S
C1891 H1883 0.930 . S
C1891 C1892 1.355 . S
C1891 C1893 1.415 . S
C1892 C1891 1.355 . S
C1892 C1894 1.419 . S
C1893 C1888 1.425 . S
C1893 C1890 1.409 . S
C1893 C1891 1.415 . S
C1894 H1884 0.930 . S
C1894 C1892 1.419 . S
C1894 C1895 1.362 . S
C1895 H1885 0.930 . S
C1895 C1888 1.409 . S
C1895 C1894 1.362 . S
H1896 C1902 0.930 . S
H1897 C1905 0.930 . S
H1898 C1906 0.930 . S
H1899 C1907 0.930 . S
H1900 C1910 0.930 . S
H1901 C1911 0.930 . S
C1902 H1896 0.930 . S
C1902 C1903 1.355 . S
C1902 C1904 1.415 . S
C1903 C1902 1.355 . S
C1903 C1905 1.419 . S
C1904 C1902 1.415 . S
C1904 C1909 1.425 . S
C1904 C1911 1.409 . S
C1905 H1897 0.930 . S
C1905 C1903 1.419 . S
C1905 C1906 1.362 . S
C1906 H1898 0.930 . S
C1906 C1905 1.362 . S
C1906 C1909 1.409 . S
C1907 H1899 0.930 . S
C1907 C1908 1.355 . S
C1907 C1909 1.415 . S
C1908 C1907 1.355 . S
C1908 C1910 1.419 . S
C1909 C1904 1.425 . S
C1909 C1906 1.409 . S
C1909 C1907 1.415 . S
C1910 H1900 0.930 . S
C1910 C1908 1.419 . S
C1910 C1911 1.362 . S
C1911 H1901 0.930 . S
C1911 C1904 1.409 . S
C1911 C1910 1.362 . S
H1912 C1918 0.930 . S
H1913 C1921 0.930 . S
H1914 C1922 0.930 . S
H1915 C1923 0.930 . S
H1916 C1926 0.930 . S
H1917 C1927 0.930 . S
C1918 H1912 0.930 . S
C1918 C1919 1.355 . S
C1918 C1920 1.415 . S
C1919 C1918 1.355 . S
C1919 C1921 1.419 . S
C1920 C1918 1.415 . S
C1920 C1925 1.425 . S
C1920 C1927 1.409 . S
C1921 H1913 0.930 . S
C1921 C1919 1.419 . S
C1921 C1922 1.362 . S
C1922 H1914 0.930 . S
C1922 C1921 1.362 . S
C1922 C1925 1.409 . S
C1923 H1915 0.930 . S
C1923 C1924 1.355 . S
C1923 C1925 1.415 . S
C1924 C1923 1.355 . S
C1924 C1926 1.419 . S
C1925 C1920 1.425 . S
C1925 C1922 1.409 . S
C1925 C1923 1.415 . S
C1926 H1916 0.930 . S
C1926 C1924 1.419 . S
C1926 C1927 1.362 . S
C1927 H1917 0.930 . S
C1927 C1920 1.409 . S
C1927 C1926 1.362 . S
H1928 C1934 0.930 . S
H1929 C1937 0.930 . S
H1930 C1938 0.930 . S
H1931 C1939 0.930 . S
H1932 C1942 0.930 . S
H1933 C1943 0.930 . S
C1934 H1928 0.930 . S
C1934 C1935 1.355 . S
C1934 C1936 1.415 . S
C1935 C1934 1.355 . S
C1935 C1937 1.419 . S
C1936 C1934 1.415 . S
C1936 C1941 1.425 . S
C1936 C1943 1.409 . S
C1937 H1929 0.930 . S
C1937 C1935 1.419 . S
C1937 C1938 1.362 . S
C1938 H1930 0.930 . S
C1938 C1937 1.362 . S
C1938 C1941 1.409 . S
C1939 H1931 0.930 . S
C1939 C1940 1.355 . S
C1939 C1941 1.415 . S
C1940 C1939 1.355 . S
C1940 C1942 1.419 . S
C1941 C1936 1.425 . S
C1941 C1938 1.409 . S
C1941 C1939 1.415 . S
C1942 H1932 0.930 . S
C1942 C1940 1.419 . S
C1942 C1943 1.362 . S
C1943 H1933 0.930 . S
C1943 C1936 1.409 . S
C1943 C1942 1.362 . S
H1944 C1950 0.930 . S
H1945 C1953 0.930 . S
H1946 C1954 0.930 . S
H1947 C1955 0.930 . S
H1948 C1958 0.930 . S
H1949 C1959 0.930 . S
C1950 H1944 0.930 . S
C1950 C1951 1.355 . S
C1950 C1952 1.415 . S
C1951 C1950 1.355 . S
C1951 C1953 1.419 . S
C1952 C1950 1.415 . S
C1952 C1957 1.425 . S
C1952 C1959 1.409 . S
C1953 H1945 0.930 . S
C1953 C1951 1.419 . S
C1953 C1954 1.362 . S
C1954 H1946 0.930 . S
C1954 C1953 1.362 . S
C1954 C1957 1.409 . S
C1955 H1947 0.930 . S
C1955 C1956 1.355 . S
C1955 C1957 1.415 . S
C1956 C1955 1.355 . S
C1956 C1958 1.419 . S
C1957 C1952 1.425 . S
C1957 C1954 1.409 . S
C1957 C1955 1.415 . S
C1958 H1948 0.930 . S
C1958 C1956 1.419 . S
C1958 C1959 1.362 . S
C1959 H1949 0.930 . S
C1959 C1952 1.409 . S
C1959 C1958 1.362 . S
H1960 C1966 0.930 . S
H1961 C1969 0.930 . S
H1962 C1970 0.930 . S
H1963 C1971 0.930 . S
H1964 C1974 0.930 . S
H1965 C1975 0.930 . S
C1966 H1960 0.930 . S
C1966 C1967 1.355 . S
C1966 C1968 1.415 . S
C1967 C1966 1.355 . S
C1967 C1969 1.419 . S
C1968 C1966 1.415 . S
C1968 C1973 1.425 . S
C1968 C1975 1.409 . S
C1969 H1961 0.930 . S
C1969 C1967 1.419 . S
C1969 C1970 1.362 . S
C1970 H1962 0.930 . S
C1970 C1969 1.362 . S
C1970 C1973 1.409 . S
C1971 H1963 0.930 . S
C1971 C1972 1.355 . S
C1971 C1973 1.415 . S
C1972 C1971 1.355 . S
C1972 C1974 1.419 . S
C1973 C1968 1.425 . S
C1973 C1970 1.409 . S
C1973 C1971 1.415 . S
C1974 H1964 0.930 . S
C1974 C1972 1.419 . S
C1974 C1975 1.362 . S
C1975 H1965 0.930 . S
C1975 C1968 1.409 . S
C1975 C1974 1.362 . S
H1976 C1982 0.930 . S
H1977 C1985 0.930 . S
H1978 C1986 0.930 . S
H1979 C1987 0.930 . S
H1980 C1990 0.930 . S
H1981 C1991 0.930 . S
C1982 H1976 0.930 . S
C1982 C1983 1.355 . S
C1982 C1984 1.415 . S
C1983 C1982 1.355 . S
C1983 C1985 1.419 . S
C1984 C1982 1.415 . S
C1984 C1989 1.425 . S
C1984 C1991 1.409 . S
C1985 H1977 0.930 . S
C1985 C1983 1.419 . S
C1985 C1986 1.362 . S
C1986 H1978 0.930 . S
C1986 C1985 1.362 . S
C1986 C1989 1.409 . S
C1987 H1979 0.930 . S
C1987 C1988 1.355 . S
C1987 C1989 1.415 . S
C1988 C1987 1.355 . S
C1988 C1990 1.419 . S
C1989 C1984 1.425 . S
C1989 C1986 1.409 . S
C1989 C1987 1.415 . S
C1990 H1980 0.930 . S
C1990 C1988 1.419 . S
C1990 C1991 1.362 . S
C1991 H1981 0.930 . S
C1991 C1984 1.409 . S
C1991 C1990 1.362 . S
H1992 C1998 0.930 . S
H1993 C2001 0.930 . S
H1994 C2002 0.930 . S
H1995 C2003 0.930 . S
H1996 C2006 0.930 . S
H1997 C2007 0.930 . S
C1998 H1992 0.930 . S
C1998 C1999 1.355 . S
C1998 C2000 1.415 . S
C1999 C1998 1.355 . S
C1999 C2001 1.419 . S
C2000 C1998 1.415 . S
C2000 C2005 1.425 . S
C2000 C2007 1.409 . S
C2001 H1993 0.930 . S
C2001 C1999 1.419 . S
C2001 C2002 1.362 . S
C2002 H1994 0.930 . S
C2002 C2001 1.362 . S
C2002 C2005 1.409 . S
C2003 H1995 0.930 . S
C2003 C2004 1.355 . S
C2003 C2005 1.415 . S
C2004 C2003 1.355 . S
C2004 C2006 1.419 . S
C2005 C2000 1.425 . S
C2005 C2002 1.409 . S
C2005 C2003 1.415 . S
C2006 H1996 0.930 . S
C2006 C2004 1.419 . S
C2006 C2007 1.362 . S
C2007 H1997 0.930 . S
C2007 C2000 1.409 . S
C2007 C2006 1.362 . S
H2008 C2014 0.930 . S
H2009 C2017 0.930 . S
H2010 C2018 0.930 . S
H2011 C2019 0.930 . S
H2012 C2022 0.930 . S
H2013 C2023 0.930 . S
C2014 H2008 0.930 . S
C2014 C2015 1.355 . S
C2014 C2016 1.415 . S
C2015 C2014 1.355 . S
C2015 C2017 1.419 . S
C2016 C2014 1.415 . S
C2016 C2021 1.425 . S
C2016 C2023 1.409 . S
C2017 H2009 0.930 . S
C2017 C2015 1.419 . S
C2017 C2018 1.362 . S
C2018 H2010 0.930 . S
C2018 C2017 1.362 . S
C2018 C2021 1.409 . S
C2019 H2011 0.930 . S
C2019 C2020 1.355 . S
C2019 C2021 1.415 . S
C2020 C2019 1.355 . S
C2020 C2022 1.419 . S
C2021 C2016 1.425 . S
C2021 C2018 1.409 . S
C2021 C2019 1.415 . S
C2022 H2012 0.930 . S
C2022 C2020 1.419 . S
C2022 C2023 1.362 . S
C2023 H2013 0.930 . S
C2023 C2016 1.409 . S
C2023 C2022 1.362 . S
H2024 C2030 0.930 . S
H2025 C2033 0.930 . S
H2026 C2034 0.930 . S
H2027 C2035 0.930 . S
H2028 C2038 0.930 . S
H2029 C2039 0.930 . S
C2030 H2024 0.930 . S
C2030 C2031 1.355 . S
C2030 C2032 1.415 . S
C2031 C2030 1.355 . S
C2031 C2033 1.419 . S
C2032 C2030 1.415 . S
C2032 C2037 1.425 . S
C2032 C2039 1.409 . S
C2033 H2025 0.930 . S
C2033 C2031 1.419 . S
C2033 C2034 1.362 . S
C2034 H2026 0.930 . S
C2034 C2033 1.362 . S
C2034 C2037 1.409 . S
C2035 H2027 0.930 . S
C2035 C2036 1.355 . S
C2035 C2037 1.415 . S
C2036 C2035 1.355 . S
C2036 C2038 1.419 . S
C2037 C2032 1.425 . S
C2037 C2034 1.409 . S
C2037 C2035 1.415 . S
C2038 H2028 0.930 . S
C2038 C2036 1.419 . S
C2038 C2039 1.362 . S
C2039 H2029 0.930 . S
C2039 C2032 1.409 . S
C2039 C2038 1.362 . S
C703 C8 1.258 . S
C708 C166 1.192 . S
C719 C37 1.242 . S
C724 C21 1.155 . S
C735 C66 1.220 . S
C740 C50 1.194 . S
C751 C79 1.188 . S
C756 C95 1.216 . S
C767 C124 1.226 . S
C772 C108 1.130 . S
C783 C153 1.262 . S
C788 C137 1.204 . S
C799 C224 1.150 . S
C804 C182 1.198 . S
C815 C253 1.164 . S
C820 C211 1.246 . S
C831 C282 1.209 . S
C836 C240 1.263 . S
C847 C269 1.204 . S
C852 C311 1.110 . S
C863 C340 1.109 . S
C868 C298 1.199 . S
C879 C327 1.207 . S
C884 C195 1.111 . S
C895 C514 1.229 . S
C900 C356 1.252 . S
C911 C369 1.198 . S
C916 C385 1.260 . S
C927 C414 1.207 . S
C932 C398 1.111 . S
C943 C443 1.262 . S
C948 C427 1.227 . S
C959 C472 1.209 . S
C964 C456 1.112 . S
C975 C501 1.192 . S
C980 C485 1.120 . S
C991 C572 1.164 . S
C996 C530 1.204 . S
C1007 C601 1.192 . S
C1012 C559 1.258 . S
C1023 C588 1.220 . S
C1028 C630 1.124 . S
C1039 C617 1.200 . S
C1044 C659 1.109 . S
C1055 C646 1.247 . S
C1060 C688 1.165 . S
C1071 C543 1.139 . S
C1076 C675 1.195 . S
C1087 C10 1.451 . S
C1092 C445 1.468 . S
C1103 C39 1.467 . S
C1108 C474 1.452 . S
C1119 C68 1.487 . S
C1124 C503 1.432 . S
C1135 C358 1.459 . S
C1140 C97 1.460 . S
C1151 C126 1.497 . S
C1156 C387 1.421 . S
C1167 C155 1.438 . S
C1172 C416 1.481 . S
C1183 C619 1.414 . S
C1188 C184 1.504 . S
C1199 C648 1.418 . S
C1204 C213 1.501 . S
C1215 C677 1.460 . S
C1220 C242 1.460 . S
C1231 C532 1.498 . S
C1236 C271 1.421 . S
C1247 C300 1.455 . S
C1252 C561 1.465 . S
C1263 C329 1.432 . S
C1268 C590 1.487 . S
C1279 C5 1.472 . S
C1284 C237 1.501 . S
C1295 C34 1.472 . S
C1300 C266 1.451 . S
C1311 C63 1.449 . S
C1316 C295 1.468 . S
C1327 C92 1.478 . S
C1332 C324 1.453 . S
C1343 C121 1.491 . S
C1348 C179 1.462 . S
C1359 C150 1.452 . S
C1364 C208 1.476 . S
C1375 C585 1.473 . S
C1380 C353 1.502 . S
C1391 C382 1.505 . S
C1396 C614 1.516 . S
C1407 C643 1.511 . S
C1412 C411 1.514 . S
C1423 C440 1.450 . S
C1428 C672 1.469 . S
C1439 C469 1.516 . S
C1444 C527 1.500 . S
C1455 C498 1.452 . S
C1460 C556 1.476 . S
C1471 C15 1.208 . S
C1476 C102 1.194 . S
C1487 C131 1.220 . S
C1492 C44 1.150 . S
C1503 C73 1.208 . S
C1508 C160 1.194 . S
C1519 C276 1.142 . S
C1524 C189 1.212 . S
C1535 C305 1.200 . S
C1540 C218 1.140 . S
C1551 C247 1.150 . S
C1556 C334 1.220 . S
C1567 C450 1.213 . S
C1572 C363 1.187 . S
C1583 C479 1.149 . S
C1588 C392 1.175 . S
C1599 C421 1.168 . S
C1604 C508 1.154 . S
C1615 C624 1.150 . S
C1620 C537 1.220 . S
C1631 C566 1.194 . S
C1636 C653 1.208 . S
C1647 C682 1.154 . S
C1652 C595 1.168 . S
C1663 C61 2.203 . S
C1668 C13 2.141 . S
C1679 C42 2.121 . S
C1684 C90 2.170 . S
C1695 C119 2.165 . S
C1700 C71 2.076 . S
C1711 C148 2.204 . S
C1716 C100 2.140 . S
C1727 C129 2.121 . S
C1732 C3 2.170 . S
C1743 C158 2.095 . S
C1748 C32 2.158 . S
C1759 C187 2.105 . S
C1764 C293 2.197 . S
C1775 C322 2.185 . S
C1780 C216 2.138 . S
C1791 C177 2.205 . S
C1796 C245 2.138 . S
C1807 C274 2.112 . S
C1812 C206 2.165 . S
C1823 C303 2.133 . S
C1828 C235 2.180 . S
C1839 C332 2.097 . S
C1844 C264 2.159 . S
C1855 C361 2.127 . S
C1860 C409 2.175 . S
C1871 C390 2.142 . S
C1876 C438 2.194 . S
C1887 C419 2.076 . S
C1892 C467 2.166 . S
C1903 C496 2.182 . S
C1908 C448 2.135 . S
C1919 C477 2.101 . S
C1924 C351 2.160 . S
C1935 C380 2.173 . S
C1940 C506 2.125 . S
C1951 C535 2.140 . S
C1956 C641 2.204 . S
C1967 C670 2.159 . S
C1972 C564 2.099 . S
C1983 C593 2.141 . S
C1988 C525 2.191 . S
C1999 C554 2.161 . S
C2004 C622 2.078 . S
C2015 C583 2.186 . S
C2020 C651 2.088 . S
C2031 C680 2.132 . S
C2036 C612 2.206 . S
