# Generated by pormake.
# Topology unn, (4)-cn, num edge types: 1
# Building blocks:
#     Node 0, Type 0, BuildingBlock: KUFVIS_clean_sbu_0, # of connection points: 4
#     Node 1, Type 0, BuildingBlock: KUFVIS_clean_sbu_0, # of connection points: 4
#     Node 2, Type 0, BuildingBlock: KUFVIS_clean_sbu_0, # of connection points: 4
#     Node 3, Type 0, BuildingBlock: KUFVIS_clean_sbu_0, # of connection points: 4
#     Node 4, Type 0, BuildingBlock: KUFVIS_clean_sbu_0, # of connection points: 4
#     Node 5, Type 0, BuildingBlock: KUFVIS_clean_sbu_0, # of connection points: 4
#     Node 6, Type 0, BuildingBlock: KUFVIS_clean_sbu_0, # of connection points: 4
#     Node 7, Type 0, BuildingBlock: KUFVIS_clean_sbu_0, # of connection points: 4
#     Node 8, Type 0, BuildingBlock: KUFVIS_clean_sbu_0, # of connection points: 4
#     Node 9, Type 0, BuildingBlock: KUFVIS_clean_sbu_0, # of connection points: 4
#     Node 10, Type 0, BuildingBlock: KUFVIS_clean_sbu_0, # of connection points: 4
#     Node 11, Type 0, BuildingBlock: KUFVIS_clean_sbu_0, # of connection points: 4
#     Node 12, Type 0, BuildingBlock: KUFVIS_clean_sbu_0, # of connection points: 4
#     Node 13, Type 0, BuildingBlock: KUFVIS_clean_sbu_0, # of connection points: 4
#     Node 14, Type 0, BuildingBlock: KUFVIS_clean_sbu_0, # of connection points: 4
#     Node 15, Type 0, BuildingBlock: KUFVIS_clean_sbu_0, # of connection points: 4
#     Node 16, Type 0, BuildingBlock: KUFVIS_clean_sbu_0, # of connection points: 4
#     Node 17, Type 0, BuildingBlock: KUFVIS_clean_sbu_0, # of connection points: 4
#     Edge 18, Type (0, 0), BuildingBlock: XIVTED_clean_linker_0, # of connection points: 2
#     Edge 19, Type (0, 0), BuildingBlock: XIVTED_clean_linker_0, # of connection points: 2
#     Edge 20, Type (0, 0), BuildingBlock: XIVTED_clean_linker_0, # of connection points: 2
#     Edge 21, Type (0, 0), BuildingBlock: XIVTED_clean_linker_0, # of connection points: 2
#     Edge 22, Type (0, 0), BuildingBlock: XIVTED_clean_linker_0, # of connection points: 2
#     Edge 23, Type (0, 0), BuildingBlock: XIVTED_clean_linker_0, # of connection points: 2
#     Edge 24, Type (0, 0), BuildingBlock: XIVTED_clean_linker_0, # of connection points: 2
#     Edge 25, Type (0, 0), BuildingBlock: XIVTED_clean_linker_0, # of connection points: 2
#     Edge 26, Type (0, 0), BuildingBlock: XIVTED_clean_linker_0, # of connection points: 2
#     Edge 27, Type (0, 0), BuildingBlock: XIVTED_clean_linker_0, # of connection points: 2
#     Edge 28, Type (0, 0), BuildingBlock: XIVTED_clean_linker_0, # of connection points: 2
#     Edge 29, Type (0, 0), BuildingBlock: XIVTED_clean_linker_0, # of connection points: 2
#     Edge 30, Type (0, 0), BuildingBlock: XIVTED_clean_linker_0, # of connection points: 2
#     Edge 31, Type (0, 0), BuildingBlock: XIVTED_clean_linker_0, # of connection points: 2
#     Edge 32, Type (0, 0), BuildingBlock: XIVTED_clean_linker_0, # of connection points: 2
#     Edge 33, Type (0, 0), BuildingBlock: XIVTED_clean_linker_0, # of connection points: 2
#     Edge 34, Type (0, 0), BuildingBlock: XIVTED_clean_linker_0, # of connection points: 2
#     Edge 35, Type (0, 0), BuildingBlock: XIVTED_clean_linker_0, # of connection points: 2
#     Edge 36, Type (0, 0), BuildingBlock: XIVTED_clean_linker_0, # of connection points: 2
#     Edge 37, Type (0, 0), BuildingBlock: XIVTED_clean_linker_0, # of connection points: 2
#     Edge 38, Type (0, 0), BuildingBlock: XIVTED_clean_linker_0, # of connection points: 2
#     Edge 39, Type (0, 0), BuildingBlock: XIVTED_clean_linker_0, # of connection points: 2
#     Edge 40, Type (0, 0), BuildingBlock: XIVTED_clean_linker_0, # of connection points: 2
#     Edge 41, Type (0, 0), BuildingBlock: XIVTED_clean_linker_0, # of connection points: 2
#     Edge 42, Type (0, 0), BuildingBlock: XIVTED_clean_linker_0, # of connection points: 2
#     Edge 43, Type (0, 0), BuildingBlock: XIVTED_clean_linker_0, # of connection points: 2
#     Edge 44, Type (0, 0), BuildingBlock: XIVTED_clean_linker_0, # of connection points: 2
#     Edge 45, Type (0, 0), BuildingBlock: XIVTED_clean_linker_0, # of connection points: 2
#     Edge 46, Type (0, 0), BuildingBlock: XIVTED_clean_linker_0, # of connection points: 2
#     Edge 47, Type (0, 0), BuildingBlock: XIVTED_clean_linker_0, # of connection points: 2
#     Edge 48, Type (0, 0), BuildingBlock: XIVTED_clean_linker_0, # of connection points: 2
#     Edge 49, Type (0, 0), BuildingBlock: XIVTED_clean_linker_0, # of connection points: 2
#     Edge 50, Type (0, 0), BuildingBlock: XIVTED_clean_linker_0, # of connection points: 2
#     Edge 51, Type (0, 0), BuildingBlock: XIVTED_clean_linker_0, # of connection points: 2
#     Edge 52, Type (0, 0), BuildingBlock: XIVTED_clean_linker_0, # of connection points: 2
#     Edge 53, Type (0, 0), BuildingBlock: XIVTED_clean_linker_0, # of connection points: 2
# Relax obj value: 0.184
# Max RMSD: 0.280
# Mean RMSD: 0.269
data_MOF--net-unn--node1-KUFVIS_clean_sbu_0--edge1-XIVTED_clean_linker_0
_symmetry_space_group_name_H-M    P1
_symmetry_Int_Tables_number       1
_symmetry_cell_setting            triclinic
loop_
_symmetry_equiv_pos_as_xyz
'x, y, z'
_cell_length_a     45.097572
_cell_length_b     46.337361
_cell_length_c     38.178673
_cell_angle_alpha  90.893418
_cell_angle_beta   90.13604
_cell_angle_gamma 119.22373
loop_
_atom_site_label
_atom_site_type_symbol
_atom_site_fract_x
_atom_site_fract_y
_atom_site_fract_z
_atom_type_partial_charge
Mn0 Mn 0.09213 0.79045 0.21451 0.0
Mn1 Mn 0.07118 0.84491 0.24963 0.0
C2 C 0.04138 0.7873 0.19776 0.0
C3 C 0.11937 0.77832 0.16952 0.0
C4 C 0.06006 0.78339 0.28695 0.0
O5 O 0.13654 0.82442 0.2375 0.0
O6 O 0.12036 0.85962 0.25981 0.0
C7 C 0.11301 0.90033 0.20297 0.0
N8 N 0.08211 0.87888 0.21627 0.0
C9 C 0.05447 0.90196 0.1816 0.0
C10 C 0.08604 0.92448 0.16772 0.0
C11 C 0.11543 0.92362 0.17842 0.0
C12 C 0.05367 0.87943 0.20609 0.0
H13 H 0.13562 0.8996 0.21099 0.0
C14 C 0.14269 0.85038 0.25501 0.0
O15 O 0.11253 0.7624 0.19882 0.0
O16 O 0.1124 0.80218 0.16774 0.0
N17 N 0.02497 0.83444 0.24246 0.0
C18 C 0.99642 0.81053 0.25777 0.0
C19 C 0.96472 0.80759 0.24934 0.0
C20 C 0.96276 0.8295 0.22564 0.0
C21 C 0.99256 0.8543 0.21073 0.0
C22 C 0.02344 0.85609 0.2202 0.0
H23 H 0.99781 0.79361 0.27597 0.0
O24 O 0.047 0.76276 0.19263 0.0
O25 O 0.06675 0.81421 0.21143 0.0
O26 O 0.07193 0.77213 0.2631 0.0
O27 O 0.05867 0.81019 0.28448 0.0
C28 C 0.99279 0.87693 0.18637 0.0
C29 C 0.02371 0.90073 0.1718 0.0
H30 H 0.08799 0.94239 0.14867 0.0
H31 H 0.13987 0.94081 0.16771 0.0
H32 H 0.94185 0.78843 0.261 0.0
H33 H 0.93823 0.82699 0.219 0.0
H34 H 0.96929 0.87608 0.17843 0.0
H35 H 0.02353 0.91784 0.15289 0.0
Mn36 Mn 0.23863 0.30444 0.22638 0.0
Mn37 Mn 0.17575 0.26729 0.16682 0.0
C38 C 0.19333 0.31476 0.22827 0.0
C39 C 0.26171 0.30176 0.28005 0.0
C40 C 0.24305 0.32729 0.1506 0.0
O41 O 0.24805 0.26944 0.20501 0.0
O42 O 0.20509 0.24594 0.16602 0.0
C43 C 0.13919 0.20349 0.20303 0.0
N44 N 0.1393 0.23032 0.18886 0.0
C45 C 0.08017 0.20907 0.20182 0.0
C46 C 0.07934 0.18111 0.21644 0.0
C47 C 0.10904 0.17839 0.21719 0.0
C48 C 0.11107 0.23345 0.18854 0.0
H49 H 0.16195 0.20129 0.2035 0.0
C50 C 0.23228 0.24893 0.18014 0.0
O51 O 0.28069 0.3219 0.25606 0.0
O52 O 0.2298 0.28317 0.27263 0.0
N53 N 0.14516 0.28465 0.16354 0.0
C54 C 0.15025 0.31304 0.14823 0.0
C55 C 0.12272 0.31893 0.14405 0.0
C56 C 0.09031 0.29546 0.15542 0.0
C57 C 0.08582 0.26675 0.17167 0.0
C58 C 0.11405 0.26198 0.17463 0.0
H59 H 0.17499 0.33071 0.1387 0.0
O60 O 0.22206 0.33459 0.24347 0.0
O61 O 0.1916 0.28846 0.21307 0.0
O62 O 0.25628 0.33094 0.18118 0.0
O63 O 0.21258 0.30523 0.14272 0.0
C64 C 0.05431 0.24237 0.18444 0.0
C65 C 0.05156 0.21368 0.19982 0.0
H66 H 0.05608 0.1616 0.22718 0.0
H67 H 0.10864 0.15693 0.22849 0.0
H68 H 0.12632 0.3412 0.13155 0.0
H69 H 0.06888 0.29943 0.15116 0.0
H70 H 0.03205 0.24547 0.1826 0.0
H71 H 0.02726 0.1952 0.20974 0.0
Mn72 Mn 0.75525 0.96784 0.20439 0.0
Mn73 Mn 0.676 0.93262 0.23647 0.0
C74 C 0.70898 0.94213 0.16687 0.0
C75 C 0.7994 0.01673 0.17956 0.0
C76 C 0.71991 0.90013 0.2409 0.0
O77 O 0.76319 0.98817 0.25319 0.0
O78 O 0.70936 0.96234 0.27289 0.0
C79 C 0.66958 0.99305 0.24242 0.0
N80 N 0.65811 0.96189 0.2292 0.0
C81 C 0.61249 0.96352 0.1981 0.0
C82 C 0.62367 0.99555 0.21158 0.0
C83 C 0.65235 0.01038 0.23382 0.0
C84 C 0.6304 0.94729 0.20798 0.0
H85 H 0.69176 1.0046 0.25931 0.0
C86 C 0.74141 0.98174 0.27729 0.0
O87 O 0.8058 0.99446 0.1925 0.0
O88 O 0.76871 0.01112 0.18271 0.0
N89 N 0.64168 0.90344 0.20398 0.0
C90 C 0.63594 0.87355 0.19107 0.0
C91 C 0.60909 0.85602 0.16715 0.0
C92 C 0.58844 0.86937 0.15682 0.0
C93 C 0.59481 0.90014 0.17057 0.0
C94 C 0.62174 0.91633 0.19456 0.0
H95 H 0.65195 0.86335 0.19873 0.0
O96 O 0.73832 0.94598 0.15774 0.0
O97 O 0.70761 0.95275 0.19824 0.0
O98 O 0.74677 0.92309 0.22644 0.0
O99 O 0.69231 0.90113 0.24447 0.0
C100 C 0.57604 0.91576 0.16074 0.0
C101 C 0.58485 0.94741 0.17452 0.0
H102 H 0.61067 0.00914 0.20471 0.0
H103 H 0.66125 0.03517 0.24416 0.0
H104 H 0.60443 0.83236 0.15654 0.0
H105 H 0.56797 0.85593 0.13809 0.0
H106 H 0.5551 0.90386 0.1422 0.0
H107 H 0.57055 0.95936 0.16637 0.0
Mn108 Mn 0.0888 0.34812 0.75709 0.0
Mn109 Mn 0.02203 0.35823 0.77758 0.0
C110 C 0.06799 0.33867 0.81339 0.0
C111 C 0.14823 0.37121 0.75531 0.0
C112 C 0.01394 0.29775 0.73859 0.0
O113 O 0.08737 0.37457 0.71629 0.0
O114 O 0.04043 0.37726 0.73081 0.0
C115 C 0.05853 0.43113 0.7858 0.0
N116 N 0.03835 0.40073 0.79935 0.0
C117 C 0.0295 0.42467 0.85189 0.0
C118 C 0.05013 0.45629 0.83853 0.0
C119 C 0.06491 0.45952 0.80543 0.0
C120 C 0.02447 0.39735 0.83138 0.0
H121 H 0.06939 0.43364 0.7601 0.0
C122 C 0.06436 0.38213 0.70952 0.0
O123 O 0.1284 0.34447 0.73731 0.0
O124 O 0.13368 0.3848 0.77271 0.0
N125 N 1.00142 0.34075 0.82152 0.0
C126 C 0.98293 0.30854 0.83097 0.0
C127 C 0.96766 0.30102 0.86403 0.0
C128 C 0.9709 0.32665 0.88661 0.0
C129 C 0.98968 0.35957 0.87604 0.0
C130 C 1.0049 0.36558 0.84312 0.0
H131 H 0.98007 0.28877 0.81349 0.0
O132 O 0.08515 0.32502 0.80151 0.0
O133 O 0.06322 0.35751 0.79173 0.0
O134 O 0.04575 0.30699 0.73574 0.0
O135 O 1.00281 0.31417 0.75589 0.0
C136 C 0.99361 0.38664 0.89671 0.0
C137 C 0.01339 0.41914 0.88458 0.0
H138 H 0.0548 0.47822 0.85343 0.0
H139 H 0.08086 0.48383 0.79492 0.0
H140 H 0.95318 0.27554 0.87194 0.0
H141 H 0.95882 0.32077 0.91197 0.0
H142 H 0.98123 0.38265 0.9218 0.0
H143 H 0.01585 0.4397 0.90045 0.0
Mn144 Mn 0.66734 0.71872 0.71466 0.0
Mn145 Mn 0.58874 0.68314 0.7488 0.0
C146 C 0.62038 0.69897 0.67882 0.0
C147 C 0.71216 0.71115 0.69296 0.0
C148 C 0.63181 0.75684 0.74282 0.0
O149 O 0.67657 0.7115 0.76456 0.0
O150 O 0.62389 0.69252 0.7856 0.0
C151 C 0.58638 0.61997 0.76616 0.0
N152 N 0.57316 0.63663 0.74878 0.0
C153 C 0.52858 0.58601 0.72346 0.0
C154 C 0.54165 0.56831 0.7412 0.0
C155 C 0.57069 0.58539 0.76263 0.0
C156 C 0.54525 0.62044 0.72806 0.0
H157 H 0.60872 0.63296 0.78261 0.0
C158 C 0.65569 0.7026 0.78974 0.0
O159 O 0.71742 0.74035 0.70277 0.0
O160 O 0.68171 0.68705 0.69677 0.0
N161 N 0.55206 0.6725 0.71664 0.0
C162 C 0.54213 0.69313 0.70208 0.0
C163 C 0.51359 0.67998 0.67967 0.0
C164 C 0.4952 0.64572 0.67301 0.0
C165 C 0.50531 0.62488 0.68914 0.0
C166 C 0.53396 0.63941 0.71122 0.0
H167 H 0.55614 0.71945 0.7072 0.0
O168 O 0.65004 0.72038 0.66762 0.0
O169 O 0.61917 0.6884 0.71043 0.0
O170 O 0.65899 0.7571 0.73206 0.0
O171 O 0.60363 0.73059 0.74817 0.0
C172 C 0.48811 0.59026 0.68414 0.0
C173 C 0.49974 0.57084 0.70128 0.0
H174 H 0.52965 0.54164 0.73851 0.0
H175 H 0.58097 0.57192 0.77636 0.0
H176 H 0.5058 0.6962 0.66756 0.0
H177 H 0.47326 0.63567 0.65564 0.0
H178 H 0.46592 0.57833 0.66714 0.0
H179 H 0.48634 0.54426 0.69719 0.0
Mn180 Mn 0.2942 0.97114 0.74758 0.0
Mn181 Mn 0.35057 0.04842 0.77528 0.0
C182 C 0.28199 0.99502 0.79455 0.0
C183 C 0.2747 0.9137 0.75486 0.0
C184 C 0.30751 0.03503 0.70985 0.0
O185 O 0.33755 0.97885 0.72471 0.0
O186 O 0.37411 0.03082 0.74401 0.0
C187 C 0.39658 0.03616 0.82064 0.0
N188 N 0.3726 0.04574 0.8171 0.0
C189 C 0.3765 0.05991 0.87859 0.0
C190 C 0.40077 0.04969 0.88295 0.0
C191 C 0.41136 0.03845 0.85378 0.0
C192 C 0.36351 0.05819 0.8448 0.0
H193 H 0.40478 0.02747 0.79823 0.0
C194 C 0.36665 1.00482 0.72512 0.0
O195 O 0.26723 0.92448 0.72669 0.0
O196 O 0.29378 0.93605 0.77748 0.0
N197 N 0.33014 0.0674 0.80492 0.0
C198 C 0.30784 0.07803 0.79599 0.0
C199 C 0.29561 0.09111 0.82205 0.0
C200 C 0.30644 0.09317 0.85698 0.0
C201 C 0.32959 0.0823 0.86548 0.0
C202 C 0.34101 0.06961 0.83836 0.0
H203 H 0.29924 0.07627 0.76922 0.0
O204 O 0.25758 0.97106 0.77686 0.0
O205 O 0.31249 1.0046 0.78329 0.0
O206 O 0.2912 1.00316 0.71107 0.0
O207 O 0.32906 0.05365 0.73304 0.0
C208 C 0.3416 0.08337 0.89983 0.0
C209 C 0.36517 0.07232 0.90637 0.0
H210 H 0.41198 0.05103 0.90843 0.0
H211 H 0.43123 0.03205 0.85699 0.0
H212 H 0.27773 0.09942 0.81527 0.0
H213 H 0.29677 0.10307 0.87705 0.0
H214 H 0.33303 0.09282 0.92139 0.0
H215 H 0.37458 0.07364 0.93282 0.0
Mn216 Mn 0.763 0.10257 0.54629 0.0
Mn217 Mn 0.74461 0.16327 0.56357 0.0
C218 C 0.71545 0.1 0.52056 0.0
C219 C 0.79013 0.08175 0.51047 0.0
C220 C 0.72313 0.10514 0.61097 0.0
O221 O 0.80686 0.13727 0.56925 0.0
O222 O 0.7901 0.17405 0.58407 0.0
C223 C 0.79836 0.21206 0.51816 0.0
N224 N 0.76495 0.19441 0.52687 0.0
C225 C 0.74885 0.21847 0.48019 0.0
C226 C 0.7831 0.23703 0.47086 0.0
C227 C 0.80795 0.23381 0.48996 0.0
C228 C 0.74083 0.19727 0.50862 0.0
H229 H 0.81757 0.2096 0.53262 0.0
C230 C 0.81194 0.16385 0.58461 0.0
O231 O 0.7802 0.07007 0.54163 0.0
O232 O 0.78651 0.10666 0.5017 0.0
N233 N 0.70223 0.1575 0.54595 0.0
C234 C 0.6704 0.13833 0.55868 0.0
C235 C 0.6426 0.13873 0.54251 0.0
C236 C 0.64788 0.1593 0.51387 0.0
C237 C 0.68096 0.17947 0.50181 0.0
C238 C 0.70768 0.17805 0.51901 0.0
H239 H 0.6662 0.12239 0.58056 0.0
O240 O 0.71907 0.07413 0.52271 0.0
O241 O 0.74108 0.12786 0.53218 0.0
O242 O 0.73881 0.09219 0.59454 0.0
O243 O 0.72258 0.13112 0.60092 0.0
C244 C 0.68844 0.20068 0.47318 0.0
C245 C 0.72235 0.22011 0.46233 0.0
H246 H 0.79061 0.25381 0.44911 0.0
H247 H 0.83444 0.24809 0.48302 0.0
H248 H 0.61716 0.12315 0.55203 0.0
H249 H 0.62634 0.15938 0.50133 0.0
H250 H 0.66828 0.20215 0.45925 0.0
H251 H 0.72777 0.23625 0.44022 0.0
Mn252 Mn 0.92045 0.64061 0.56823 0.0
Mn253 Mn 0.85249 0.61034 0.51438 0.0
C254 C 0.87938 0.65576 0.57798 0.0
C255 C 0.94629 0.63295 0.61696 0.0
C256 C 0.92164 0.66609 0.49444 0.0
O257 O 0.9229 0.60339 0.54227 0.0
O258 O 0.87594 0.58335 0.50843 0.0
C259 C 0.81182 0.54656 0.5495 0.0
N260 N 0.81522 0.57576 0.53826 0.0
C261 C 0.76157 0.56386 0.56305 0.0
C262 C 0.75732 0.53351 0.57462 0.0
C263 C 0.78254 0.5248 0.56775 0.0
C264 C 0.79097 0.58425 0.54439 0.0
H265 H 0.83141 0.54 0.54478 0.0
C266 C 0.90289 0.5832 0.5191 0.0
O267 O 0.96429 0.65319 0.5926 0.0
O268 O 0.91358 0.61741 0.61297 0.0
N269 N 0.82739 0.63368 0.51732 0.0
C270 C 0.83615 0.66447 0.50579 0.0
C271 C 0.81406 0.67735 0.51149 0.0
C272 C 0.78333 0.65849 0.52906 0.0
C273 C 0.77462 0.62663 0.54015 0.0
C274 C 0.79732 0.61485 0.53311 0.0
H275 H 0.86005 0.67924 0.49286 0.0
O276 O 0.90973 0.67327 0.591 0.0
O277 O 0.87386 0.62925 0.56006 0.0
O278 O 0.93641 0.66818 0.52376 0.0
O279 O 0.89012 0.64598 0.48834 0.0
C280 C 0.74501 0.60659 0.55915 0.0
C281 C 0.73833 0.57515 0.57032 0.0
H282 H 0.735 0.5169 0.58916 0.0
H283 H 0.77959 0.50153 0.5768 0.0
H284 H 0.82095 0.70196 0.50289 0.0
H285 H 0.76684 0.6689 0.53425 0.0
H286 H 0.72757 0.61537 0.56613 0.0
H287 H 0.7156 0.56015 0.58513 0.0
Mn288 Mn 0.39938 0.29017 0.55794 0.0
Mn289 Mn 0.39496 0.35988 0.57333 0.0
C290 C 0.42623 0.32303 0.60666 0.0
C291 C 0.37261 0.23244 0.56834 0.0
C292 C 0.44102 0.35521 0.51832 0.0
O293 O 0.36207 0.28521 0.52446 0.0
O294 O 0.35873 0.33085 0.53931 0.0
C295 C 0.32993 0.32905 0.61137 0.0
N296 N 0.36364 0.35151 0.61048 0.0
C297 C 0.36248 0.37097 0.669 0.0
C298 C 0.32766 0.34818 0.67049 0.0
C299 C 0.31134 0.32708 0.64157 0.0
C300 C 0.37965 0.37177 0.63822 0.0
H301 H 0.3174 0.31275 0.58921 0.0
C302 C 0.3498 0.30464 0.52053 0.0
O303 O 0.39423 0.24548 0.54302 0.0
O304 O 0.3663 0.25253 0.58631 0.0
N305 N 0.42877 0.39071 0.60526 0.0
C306 C 0.4625 0.41102 0.59964 0.0
C307 C 0.48258 0.43379 0.62596 0.0
C308 C 0.46771 0.43562 0.65763 0.0
C309 C 0.43285 0.41473 0.66263 0.0
C310 C 0.41407 0.3928 0.6353 0.0
H311 H 0.47398 0.40981 0.57526 0.0
O312 O 0.43482 0.30169 0.59537 0.0
O313 O 0.40191 0.32398 0.58935 0.0
O314 O 0.43468 0.32538 0.52411 0.0
O315 O 0.4278 0.36997 0.53542 0.0
C316 C 0.41603 0.41464 0.69372 0.0
C317 C 0.3809 0.39267 0.69697 0.0
H318 H 0.31325 0.34655 0.69374 0.0
H319 H 0.28452 0.30934 0.64258 0.0
H320 H 0.50945 0.44989 0.62187 0.0
H321 H 0.4833 0.45314 0.6779 0.0
H322 H 0.42992 0.43117 0.71541 0.0
H323 H 0.36831 0.39262 0.72112 0.0
Mn324 Mn 0.75677 0.68261 0.08164 0.0
Mn325 Mn 0.68432 0.68233 0.10252 0.0
C326 C 0.73382 0.6668 0.13639 0.0
C327 C 0.81665 0.71086 0.08318 0.0
C328 C 0.68458 0.6276 0.05993 0.0
O329 O 0.7538 0.71062 0.04333 0.0
O330 O 0.70239 0.70411 0.05693 0.0
C331 C 0.71271 0.75441 0.11305 0.0
N332 N 0.69552 0.7232 0.1257 0.0
C333 C 0.68036 0.7425 0.17783 0.0
C334 C 0.69769 0.77481 0.16527 0.0
C335 C 0.71425 0.78086 0.13292 0.0
C336 C 0.68012 0.71723 0.15713 0.0
H337 H 0.72469 0.759 0.08777 0.0
C338 C 0.72806 0.71415 0.03667 0.0
O339 O 0.79982 0.68521 0.06253 0.0
O340 O 0.7989 0.72066 0.10104 0.0
N341 N 0.66373 0.66201 0.14559 0.0
C342 C 0.6479 0.62936 0.15377 0.0
C343 C 0.63168 0.61939 0.18619 0.0
C344 C 0.631 0.64292 0.20933 0.0
C345 C 0.64681 0.67626 0.19994 0.0
C346 C 0.66339 0.68485 0.16773 0.0
H347 H 0.64792 0.61116 0.13579 0.0
O348 O 0.75387 0.65681 0.12362 0.0
O349 O 0.72749 0.68586 0.11667 0.0
O350 O 0.717 0.64101 0.0565 0.0
O351 O 0.6703 0.63973 0.07938 0.0
C352 C 0.64628 0.70122 0.22097 0.0
C353 C 0.66272 0.73426 0.20971 0.0
H354 H 0.69823 0.79509 0.18011 0.0
H355 H 0.72763 0.80575 0.12306 0.0
H356 H 0.6194 0.59358 0.19314 0.0
H357 H 0.61808 0.63509 0.23411 0.0
H358 H 0.63293 0.69521 0.24561 0.0
H359 H 0.66146 0.75311 0.22566 0.0
Mn360 Mn 0.35941 0.08603 0.0768 0.0
Mn361 Mn 0.33616 0.00813 0.09973 0.0
C362 C 0.37991 0.0768 0.12799 0.0
C363 C 0.34466 0.12792 0.07991 0.0
C364 C 0.38922 0.04438 0.04411 0.0
O365 O 0.31923 0.05882 0.04538 0.0
O366 O 0.30461 0.0073 0.06233 0.0
C367 C 0.27078 0.99213 0.13293 0.0
N368 N 0.30245 0.99549 0.13523 0.0
C369 C 0.29428 0.97964 0.19569 0.0
C370 C 0.26147 0.97577 0.19388 0.0
C371 C 0.24969 0.98209 0.16237 0.0
C372 C 0.31402 0.98944 0.16541 0.0
H373 H 0.2617 0.99711 0.1088 0.0
C374 C 0.30061 0.02761 0.04303 0.0
O375 O 0.36511 0.12824 0.05568 0.0
O376 O 0.33346 0.10402 0.10166 0.0
N377 N 0.36439 1.00528 0.13549 0.0
C378 C 0.39709 0.0114 0.13321 0.0
C379 C 0.41308 0.00723 0.16281 0.0
C380 C 0.39523 0.99664 0.19433 0.0
C381 C 0.36146 0.99013 0.19592 0.0
C382 C 0.3468 0.99454 0.16552 0.0
H383 H 0.41094 0.01968 0.10907 0.0
O384 O 0.3956 0.10553 0.11356 0.0
O385 O 0.35273 0.05452 0.11179 0.0
O386 O 0.38864 0.07191 0.04586 0.0
O387 O 0.3712 0.01984 0.06371 0.0
C388 C 0.34194 0.97994 0.22661 0.0
C389 C 0.30836 0.97464 0.22649 0.0
H390 H 0.24519 0.96819 0.21658 0.0
H391 H 0.22445 0.97929 0.16082 0.0
H392 H 0.43915 0.01231 0.16138 0.0
H393 H 0.40774 0.99373 0.21718 0.0
H394 H 0.35262 0.97639 0.25055 0.0
H395 H 0.2937 0.96704 0.25031 0.0
Mn396 Mn 0.95876 0.29999 0.07937 0.0
Mn397 Mn 1.0099 0.37331 0.11804 0.0
C398 C 0.93879 0.31955 0.12362 0.0
C399 C 0.93672 0.24181 0.08195 0.0
C400 C 0.97725 0.36868 0.04863 0.0
O401 O 1.00482 0.3077 0.0654 0.0
O402 O 0.03606 0.36049 0.08442 0.0
C403 C 0.0502 0.35211 0.16143 0.0
N404 N 0.02783 0.36378 0.15907 0.0
C405 C 0.02443 0.36634 0.22193 0.0
C406 C 0.04684 0.35371 0.22496 0.0
C407 C 0.06023 0.3471 0.19468 0.0
C408 C 0.01581 0.3714 0.18821 0.0
H409 H 0.06045 0.34696 0.13811 0.0
C410 C 0.0321 0.3354 0.06584 0.0
O411 O 0.93457 0.25547 0.05315 0.0
O412 O 0.95181 0.26171 0.10789 0.0
N413 N 0.98741 0.38832 0.14998 0.0
C414 C 0.96714 0.40169 0.14256 0.0
C415 C 0.95277 0.41097 0.17012 0.0
C416 C 0.95946 0.40648 0.20498 0.0
C417 C 0.98077 0.39309 0.21195 0.0
C418 C 0.99457 0.38455 0.1834 0.0
H419 H 0.96172 0.40494 0.11579 0.0
O420 O 0.91784 0.29845 0.10078 0.0
O421 O 0.9708 0.3292 0.11878 0.0
O422 O 0.96435 0.33706 0.04411 0.0
O423 O 0.99155 0.38417 0.07706 0.0
C424 C 0.98875 0.38777 0.24609 0.0
C425 C 0.01056 0.37438 0.25109 0.0
H426 H 0.05414 0.34932 0.25042 0.0
H427 H 0.07836 0.33835 0.19723 0.0
H428 H 0.9364 0.42134 0.16451 0.0
H429 H 0.9481 0.41338 0.22618 0.0
H430 H 0.97836 0.394 0.26867 0.0
H431 H 0.01667 0.37054 0.27747 0.0
Mn432 Mn 0.4252 0.44117 0.87716 0.0
Mn433 Mn 0.40903 0.50176 0.90336 0.0
C434 C 0.37689 0.44054 0.85622 0.0
C435 C 0.4518 0.42255 0.83805 0.0
C436 C 0.39124 0.4417 0.94691 0.0
O437 O 0.46996 0.47451 0.89981 0.0
O438 O 0.45672 0.51336 0.91686 0.0
C439 C 0.45595 0.55139 0.8537 0.0
N440 N 0.42412 0.53348 0.86689 0.0
C441 C 0.40164 0.55745 0.82646 0.0
C442 C 0.43423 0.57638 0.81265 0.0
C443 C 0.46148 0.57325 0.82626 0.0
C444 C 0.39768 0.53607 0.85378 0.0
H445 H 0.4769 0.54887 0.86392 0.0
C446 C 0.47748 0.50192 0.91488 0.0
O447 O 0.44229 0.40921 0.86859 0.0
O448 O 0.44734 0.44742 0.8312 0.0
N449 N 0.36452 0.49486 0.89281 0.0
C450 C 0.33458 0.47433 0.90857 0.0
C451 C 0.30468 0.47402 0.89758 0.0
C452 C 0.30597 0.49518 0.87096 0.0
C453 C 0.33722 0.51664 0.85572 0.0
C454 C 0.36619 0.51594 0.86783 0.0
H455 H 0.33347 0.45805 0.92908 0.0
O456 O 0.38035 0.41446 0.85448 0.0
O457 O 0.40313 0.46748 0.86871 0.0
O458 O 0.40282 0.42785 0.9258 0.0
O459 O 0.39224 0.46929 0.94113 0.0
C460 C 0.34066 0.53828 0.82856 0.0
C461 C 0.37283 0.5586 0.81388 0.0
H462 H 0.43858 0.59319 0.79141 0.0
H463 H 0.48666 0.58758 0.81554 0.0
H464 H 0.28068 0.45746 0.90955 0.0
H465 H 0.28281 0.49467 0.86236 0.0
H466 H 0.31869 0.53925 0.81853 0.0
H467 H 0.3751 0.5749 0.79279 0.0
Mn468 Mn 0.5777 0.969 0.89734 0.0
Mn469 Mn 0.51394 0.93956 0.8386 0.0
C470 C 0.53814 0.98722 0.89967 0.0
C471 C 0.60083 0.96391 0.94981 0.0
C472 C 0.58338 0.99404 0.82176 0.0
O473 O 0.57922 0.92903 0.87754 0.0
O474 O 0.54081 0.91574 0.83439 0.0
C475 C 0.47538 0.8746 0.87244 0.0
N476 N 0.47688 0.90279 0.86036 0.0
C477 C 0.41879 0.88406 0.87621 0.0
C478 C 0.41658 0.85478 0.8887 0.0
C479 C 0.44506 0.85011 0.88693 0.0
C480 C 0.44983 0.90776 0.86245 0.0
H481 H 0.49712 0.87079 0.87102 0.0
C482 C 0.5642 0.91256 0.85002 0.0
O483 O 0.6202 0.98107 0.92436 0.0
O484 O 0.56827 0.95021 0.94495 0.0
N485 N 0.48522 0.95918 0.83848 0.0
C486 C 0.49133 0.98846 0.82461 0.0
C487 C 0.46498 0.99633 0.82311 0.0
C488 C 0.43263 0.97389 0.8356 0.0
C489 C 0.42702 0.94408 0.84999 0.0
C490 C 0.45408 0.93738 0.85037 0.0
H491 H 0.51599 1.0054 0.81432 0.0
O492 O 0.5682 1.00465 0.91347 0.0
O493 O 0.53183 0.95898 0.8852 0.0
O494 O 0.59687 0.99254 0.85073 0.0
O495 O 0.55143 0.97754 0.8152 0.0
C496 C 0.39542 0.92048 0.86335 0.0
C497 C 0.39139 0.8906 0.87674 0.0
H498 H 0.39316 0.83574 0.89969 0.0
H499 H 0.44359 0.82761 0.89657 0.0
H500 H 0.46943 0.01938 0.81185 0.0
H501 H 0.41199 0.97937 0.83351 0.0
H502 H 0.37406 0.92508 0.86346 0.0
H503 H 0.36704 0.87269 0.88709 0.0
Mn504 Mn 0.10092 0.64007 0.87514 0.0
Mn505 Mn 0.02152 0.61643 0.90121 0.0
C506 C 0.05627 0.61584 0.83531 0.0
C507 C 0.14839 0.68696 0.85081 0.0
C508 C 0.05875 0.57797 0.9181 0.0
O509 O 0.10789 0.66251 0.92276 0.0
O510 O 0.05422 0.65111 0.93455 0.0
C511 C 0.02025 0.67863 0.8884 0.0
N512 N 1.00726 0.64562 0.88207 0.0
C513 C 0.96689 0.64493 0.84026 0.0
C514 C 0.9796 0.67885 0.84661 0.0
C515 C 1.00641 0.69577 0.87077 0.0
C516 C 0.98143 0.62908 0.85892 0.0
H517 H 0.04118 0.69181 0.90656 0.0
C518 C 0.08613 0.66518 0.94176 0.0
O519 O 0.15238 0.66398 0.8658 0.0
O520 O 0.11827 0.68299 0.85135 0.0
N521 N 0.98798 0.58337 0.87067 0.0
C522 C 0.98017 0.55121 0.86587 0.0
C523 C 0.95453 0.53105 0.84173 0.0
C524 C 0.93728 0.54416 0.82275 0.0
C525 C 0.94571 0.57731 0.82819 0.0
C526 C 0.97114 0.59608 0.85296 0.0
H527 H 0.99353 0.54106 0.88018 0.0
O528 O 0.08489 0.61691 0.82843 0.0
O529 O 0.05522 0.62867 0.86528 0.0
O530 O 0.08603 0.59503 0.90027 0.0
O531 O 0.03471 0.58512 0.92048 0.0
C532 C 0.93041 0.59264 0.80945 0.0
C533 C 0.94099 0.62643 0.81548 0.0
H534 H 0.96925 0.69224 0.83278 0.0
H535 H 0.01655 0.72201 0.87559 0.0
H536 H 0.94826 0.50552 0.83759 0.0
H537 H 0.91782 0.52864 0.80383 0.0
H538 H 0.9108 0.57879 0.78999 0.0
H539 H 0.92937 0.63805 0.80055 0.0
Mn540 Mn 0.43124 0.01015 0.42011 0.0
Mn541 Mn 0.37489 0.03293 0.44766 0.0
C542 C 0.41298 1.00113 0.47721 0.0
C543 C 0.48942 0.02736 0.41499 0.0
C544 C 0.35462 0.97184 0.40184 0.0
O545 O 0.43324 0.04084 0.38247 0.0
O546 O 0.39562 0.05569 0.40292 0.0
C547 C 0.42379 0.10276 0.46547 0.0
N548 N 0.39884 0.07251 0.47539 0.0
C549 C 0.40313 0.0912 0.53529 0.0
C550 C 0.42866 0.12267 0.52568 0.0
C551 C 0.43896 0.12849 0.49059 0.0
C552 C 0.38841 0.06675 0.50898 0.0
H553 H 0.43216 0.10713 0.43864 0.0
C554 C 0.41654 0.05631 0.37975 0.0
O555 O 0.46696 1.00215 0.39663 0.0
O556 O 0.47813 0.0422 0.43516 0.0
N557 N 0.35302 0.01243 0.49021 0.0
C558 C 0.32955 0.98023 0.49554 0.0
C559 C 0.3169 0.97013 0.52934 0.0
C560 C 0.32881 0.99316 0.55732 0.0
C561 C 0.35296 0.02614 0.55113 0.0
C562 C 0.36396 0.03497 0.51676 0.0
H563 H 0.32098 0.96228 0.4743 0.0
O564 O 0.42564 0.98401 0.4631 0.0
O565 O 0.4109 0.02243 0.45702 0.0
O566 O 0.38427 0.97429 0.39915 0.0
O567 O 0.34885 0.99191 0.42009 0.0
C568 C 0.36755 0.05026 0.57796 0.0
C569 C 0.39258 0.08277 0.57013 0.0
H570 H 0.44078 0.14242 0.54507 0.0
H571 H 0.45882 0.15264 0.48301 0.0
H572 H 0.29846 0.94456 0.53391 0.0
H573 H 0.31961 0.98515 0.58352 0.0
H574 H 0.36045 0.04359 0.60479 0.0
H575 H 0.4041 0.10088 0.59121 0.0
Mn576 Mn 0.99213 0.37701 0.38736 0.0
Mn577 Mn 0.91626 0.34307 0.42717 0.0
C578 C 0.94281 0.35685 0.35513 0.0
C579 C 0.03469 0.36834 0.36089 0.0
C580 C 0.95868 0.4164 0.41753 0.0
O581 O 1.00494 0.37115 0.43644 0.0
O582 O 0.95407 0.35414 0.4613 0.0
C583 C 0.91544 0.28088 0.44597 0.0
N584 N 0.90102 0.29666 0.42897 0.0
C585 C 0.85496 0.2449 0.40768 0.0
C586 C 0.86931 0.22812 0.425 0.0
C587 C 0.89969 0.24621 0.44422 0.0
C588 C 0.87181 0.27949 0.41038 0.0
H589 H 0.93876 0.29462 0.46082 0.0
C590 C 0.98597 0.36379 0.46319 0.0
O591 O 0.04101 0.39783 0.37092 0.0
O592 O 1.00479 0.34456 0.36774 0.0
N593 N 0.87729 0.33082 0.39778 0.0
C594 C 0.86603 0.35062 0.38372 0.0
C595 C 0.83591 0.33636 0.36367 0.0
C596 C 0.81731 0.30187 0.35887 0.0
C597 C 0.82887 0.28192 0.37444 0.0
C598 C 0.85914 0.29755 0.39404 0.0
H599 H 0.88014 0.37708 0.3875 0.0
O600 O 0.97171 0.37776 0.34199 0.0
O601 O 0.94365 0.34674 0.38655 0.0
O602 O 0.98524 0.41612 0.40558 0.0
O603 O 0.9308 0.3904 0.42464 0.0
C604 C 0.81147 0.24715 0.37139 0.0
C605 C 0.82451 0.22865 0.38799 0.0
H606 H 0.85719 0.20138 0.42379 0.0
H607 H 0.91092 0.23344 0.45769 0.0
H608 H 0.82701 0.35192 0.35199 0.0
H609 H 0.79406 0.29096 0.34341 0.0
H610 H 0.78799 0.23437 0.35642 0.0
H611 H 0.81087 0.20192 0.38554 0.0
Mn612 Mn 0.60455 0.62021 0.39808 0.0
Mn613 Mn 0.6657 0.68741 0.43942 0.0
C614 C 0.59125 0.64338 0.44482 0.0
C615 C 0.5754 0.56146 0.39809 0.0
C616 C 0.63513 0.69247 0.37159 0.0
O617 O 0.64682 0.62092 0.3808 0.0
O618 O 0.68587 0.66944 0.40466 0.0
C619 C 0.68949 0.6481 0.4788 0.0
N620 N 0.678 0.67033 0.47868 0.0
C621 C 0.67676 0.67176 0.54168 0.0
C622 C 0.68893 0.64914 0.54248 0.0
C623 C 0.695 0.63703 0.51086 0.0
C624 C 0.67122 0.68148 0.50888 0.0
H625 H 0.69389 0.63852 0.45458 0.0
C626 C 0.67711 0.64455 0.38383 0.0
O627 O 0.57439 0.57724 0.37054 0.0
O628 O 0.59263 0.57952 0.42436 0.0
N629 N 0.65046 0.708 0.4733 0.0
C630 C 0.63729 0.7285 0.4678 0.0
C631 C 0.62939 0.74256 0.49668 0.0
C632 C 0.63534 0.73559 0.53086 0.0
C633 C 0.64939 0.7148 0.53582 0.0
C634 C 0.65712 0.70185 0.50603 0.0
H635 H 0.63277 0.73396 0.44156 0.0
O636 O 0.56778 0.62457 0.42253 0.0
O637 O 0.62151 0.64803 0.43847 0.0
O638 O 0.61596 0.66099 0.36585 0.0
O639 O 0.65254 0.70511 0.39971 0.0
C640 C 0.65579 0.7062 0.56914 0.0
C641 C 0.66916 0.68443 0.57208 0.0
H642 H 0.6931 0.64055 0.56724 0.0
H643 H 0.70364 0.61901 0.51104 0.0
H644 H 0.61863 0.75864 0.49263 0.0
H645 H 0.62893 0.74622 0.55307 0.0
H646 H 0.65019 0.7159 0.59265 0.0
H647 H 0.67334 0.6775 0.59784 0.0
H648 H 0.13582 0.80902 0.107 0.0
H649 H 0.13012 0.66407 -0.00987 0.0
H650 H 0.1218 0.72055 0.15754 0.0
H651 H 0.06905 0.71 0.96794 0.0
H652 H 0.14711 0.69448 0.04675 0.0
H653 H 0.13384 0.78339 0.0502 0.0
C654 C 0.13325 0.78452 0.10628 0.0
C655 C 0.12827 0.7666 0.13709 0.0
C656 C 0.13029 0.69799 0.02919 0.0
C657 C 0.12633 0.73749 0.07208 0.0
C658 C 0.12072 0.68091 -0.00298 0.0
C659 C 0.09818 0.68467 0.97457 0.0
C660 C 0.11806 0.71968 0.03811 0.0
C661 C 0.08637 0.7064 0.98464 0.0
C662 C 0.13197 0.76995 0.07381 0.0
C663 C 0.12547 0.7351 0.13442 0.0
N664 N 0.0967 0.72335 0.01561 0.0
N665 N 0.1241 0.72125 0.10227 0.0
H666 H 0.35254 0.37501 0.95636 0.0
H667 H 0.30248 0.38698 0.15402 0.0
H668 H 0.38868 0.46915 0.00977 0.0
H669 H 0.2349 0.3109 0.08103 0.0
H670 H 0.34125 0.41494 0.10547 0.0
H671 H 0.31688 0.34767 0.007 0.0
C672 C 0.35346 0.38982 0.97899 0.0
C673 C 0.37351 0.42435 0.97891 0.0
C674 C 0.3178 0.39221 0.10023 0.0
C675 C 0.33291 0.39339 0.03664 0.0
C676 C 0.29566 0.37632 0.12782 0.0
C677 C 0.26524 0.34671 0.12156 0.0
C678 C 0.30985 0.37788 0.06643 0.0
C679 C 0.25782 0.33388 0.08708 0.0
C680 C 0.33289 0.37429 0.00767 0.0
C681 C 0.37343 0.44246 0.00876 0.0
N682 N 0.2801 0.34934 0.06093 0.0
N683 N 0.35348 0.42677 0.03649 0.0
H684 H 0.67832 0.97941 0.15799 0.0
H685 H 0.65762 0.95789 0.95816 0.0
H686 H 0.69028 0.90124 0.10946 0.0
H687 H 0.57535 0.95794 0.01549 0.0
H688 H 0.67893 0.94701 0.013 0.0
H689 H 0.64695 0.98062 0.10612 0.0
C690 C 0.67292 0.96143 0.13708 0.0
C691 C 0.68509 0.93884 0.13876 0.0
C692 C 0.65617 0.94933 0.01336 0.0
C693 C 0.65258 0.94254 0.07817 0.0
C694 C 0.64427 0.95587 0.98234 0.0
C695 C 0.61486 0.95892 0.98255 0.0
C696 C 0.63908 0.94692 0.04475 0.0
C697 C 0.59815 0.95572 0.0144 0.0
C698 C 0.65569 0.96263 0.10727 0.0
C699 C 0.68027 0.91825 0.10952 0.0
N700 N 0.61081 0.9504 0.04446 0.0
N701 N 0.66481 0.92092 0.08008 0.0
H702 H 0.76008 0.01495 0.50076 0.0
H703 H 0.8027 0.03514 0.29639 0.0
H704 H 0.83229 0.10719 0.45514 0.0
H705 H 0.7094 0.95863 0.33959 0.0
H706 H 0.8233 0.05595 0.35596 0.0
H707 H 0.75295 0.98736 0.4436 0.0
C708 C 0.77564 0.02908 0.47913 0.0
C709 C 0.79662 0.06339 0.48249 0.0
C710 C 0.79841 0.0345 0.3523 0.0
C711 C 0.78792 0.03235 0.41711 0.0
C712 C 0.78656 0.02271 0.31835 0.0
C713 C 0.75403 0.99543 0.31293 0.0
C714 C 0.77784 0.01858 0.38105 0.0
C715 C 0.73437 0.98012 0.34244 0.0
C716 C 0.77109 0.01346 0.44638 0.0
C717 C 0.81574 0.08067 0.45348 0.0
N718 N 0.74656 0.99191 0.37518 0.0
N719 N 0.81054 0.06509 0.42181 0.0
H720 H 0.98368 0.7228 0.49659 0.0
H721 H 0.01814 0.71656 0.29205 0.0
H722 H 0.90873 0.65173 0.42455 0.0
H723 H 0.06643 0.80703 0.35359 0.0
H724 H 0.98494 0.68753 0.34363 0.0
H725 H 0.02065 0.75014 0.44683 0.0
C726 C 0.97489 0.71311 0.47034 0.0
C727 C 0.94291 0.68512 0.46473 0.0
C728 C 1.00316 0.71366 0.34586 0.0
C729 C 0.98545 0.71563 0.40797 0.0
C730 C 0.02235 0.73006 0.31664 0.0
C731 C 0.04501 0.76413 0.31873 0.0
C732 C 1.00718 0.73144 0.37735 0.0
C733 C 0.04913 0.7807 0.35099 0.0
C734 C 0.99603 0.72862 0.44202 0.0
C735 C 0.93295 0.67349 0.43011 0.0
N736 N 0.0304 0.76422 0.37905 0.0
N737 N 0.95425 0.68862 0.40309 0.0
H738 H 0.31355 0.2487 0.4792 0.0
H739 H 0.31652 0.35111 0.31482 0.0
H740 H 0.34175 0.35206 0.48752 0.0
H741 H 0.23644 0.25027 0.32501 0.0
H742 H 0.33439 0.3502 0.37542 0.0
H743 H 0.29089 0.24672 0.42003 0.0
C744 C 0.31438 0.27074 0.46894 0.0
C745 C 0.32948 0.30054 0.48846 0.0
C746 C 0.31297 0.32828 0.36423 0.0
C747 C 0.30499 0.29869 0.42066 0.0
C748 C 0.30301 0.3287 0.32968 0.0
C749 C 0.27497 0.30077 0.31507 0.0
C750 C 0.29522 0.29952 0.38391 0.0
C751 C 0.25812 0.27238 0.33548 0.0
C752 C 0.30165 0.26962 0.43519 0.0
C753 C 0.33012 0.32845 0.47368 0.0
N754 N 0.26863 0.27236 0.36888 0.0
N755 N 0.31864 0.32698 0.44047 0.0
H756 H 0.04677 0.28695 0.85675 0.0
H757 H 0.07099 0.3932 0.03137 0.0
H758 H 0.08228 0.39173 0.85657 0.0
H759 H 0.04197 0.28962 0.02935 0.0
H760 H 0.0833 0.39559 0.96887 0.0
H761 H 0.04856 0.28878 0.92071 0.0
C762 C 0.0543 0.31025 0.87035 0.0
C763 C 0.06331 0.339 0.85153 0.0
C764 C 0.07507 0.37253 0.98229 0.0
C765 C 0.06671 0.34171 0.92478 0.0
C766 C 0.06866 0.37127 0.01825 0.0
C767 C 0.05454 0.3409 0.03551 0.0
C768 C 0.06749 0.34327 0.96372 0.0
C769 C 0.05209 0.3134 0.01695 0.0
C770 C 0.05573 0.31141 0.90683 0.0
C771 C 0.07386 0.36879 0.87025 0.0
N772 N 0.05761 0.31503 0.98192 0.0
N773 N 0.07516 0.36938 0.90592 0.0
H774 H 0.67963 0.72867 0.01311 0.0
H775 H 0.71978 0.71698 0.81131 0.0
H776 H 0.76735 0.72193 0.97892 0.0
H777 H 0.62263 0.69915 0.85069 0.0
H778 H 0.74221 0.72808 0.87142 0.0
H779 H 0.66456 0.73008 0.95214 0.0
C780 C 0.69615 0.72818 -0.00716 0.0
C781 C 0.72442 0.72446 0.0012 0.0
C782 C 0.71601 0.72175 0.86676 0.0
C783 C 0.70693 0.72553 0.93127 0.0
C784 C 0.70312 0.71524 0.83253 0.0
C785 C 0.66917 0.70688 0.8259 0.0
C786 C 0.69491 0.72023 0.89445 0.0
C787 C 0.64885 0.70519 0.85445 0.0
C788 C 0.68735 0.72871 0.95799 0.0
C789 C 0.74512 0.72445 0.97374 0.0
N790 N 0.66206 0.71187 0.8874 0.0
N791 N 0.73565 0.72439 0.93991 0.0
H792 H 0.27461 0.05901 0.00341 0.0
H793 H 0.23851 0.0138 0.82449 0.0
H794 H 0.27823 0.96783 0.00994 0.0
H795 H 0.31072 0.98106 0.84823 0.0
H796 H 0.22844 0.01571 0.88795 0.0
H797 H 0.25917 0.04697 0.94141 0.0
C798 C 0.27076 0.03578 -0.0078 0.0
C799 C 0.27854 0.01475 0.01164 0.0
C800 C 0.24644 0.00816 0.87903 0.0
C801 C 0.26117 1.00113 0.94103 0.0
C802 C 0.25229 0.00726 0.84314 0.0
C803 C 0.27636 0.99849 0.83169 0.0
C804 C 0.26388 0.99886 0.90291 0.0
C805 C 0.29282 0.98905 0.85634 0.0
C806 C 0.26187 0.02895 0.95683 0.0
C807 C 0.27292 0.98495 -0.0041 0.0
N808 N 0.28623 0.98943 0.89083 0.0
N809 N 0.26573 0.97958 0.96112 0.0
H810 H 0.41398 0.06076 0.69315 0.0
H811 H 0.44921 0.05614 0.51737 0.0
H812 H 0.36917 0.9545 0.68921 0.0
H813 H 0.38019 0.95164 0.52374 0.0
H814 H 0.45151 0.06051 0.58113 0.0
H815 H 0.43354 0.06305 0.63373 0.0
C816 C 0.40959 0.03796 0.68034 0.0
C817 C 0.38946 0.00735 0.6961 0.0
C818 C 0.4353 0.03664 0.56897 0.0
C819 C 0.41163 0.00957 0.62727 0.0
C820 C 0.43394 0.03423 0.53246 0.0
C821 C 0.41301 1.00382 0.51558 0.0
C822 C 0.41538 0.00832 0.58871 0.0
C823 C 0.3955 0.97575 0.53598 0.0
C824 C 0.42062 0.03921 0.64595 0.0
C825 C 0.38424 0.97864 0.67791 0.0
N826 N 0.39661 0.97876 0.57151 0.0
N827 N 0.3946 0.98041 0.64427 0.0
H828 H 0.10534 0.38868 0.6536 0.0
H829 H 0.05332 0.38714 0.4803 0.0
H830 H 0.01516 0.39368 0.68151 0.0
H831 H 0.95486 0.35363 0.52677 0.0
H832 H 0.07897 0.39984 0.53879 0.0
H833 H 0.09084 0.38755 0.59205 0.0
C834 C 0.08301 0.39056 0.64685 0.0
C835 C 0.06123 0.39082 0.67299 0.0
C836 C 0.05171 0.38922 0.53629 0.0
C837 C 0.04438 0.38957 0.60215 0.0
C838 C 0.037 0.38199 0.50278 0.0
C839 C 1.00177 0.36899 0.49847 0.0
C840 C 0.031 0.38333 0.56573 0.0
C841 C 0.98206 0.36338 0.52864 0.0
C842 C 0.07471 0.38991 0.61148 0.0
C843 C 0.03262 0.39315 0.66244 0.0
N844 N 0.99696 0.37067 0.56086 0.0
N845 N 0.02474 0.39182 0.6279 0.0
H846 H 0.55831 0.67601 0.46941 0.0
H847 H 0.58648 0.63365 0.66273 0.0
H848 H 0.59916 0.61327 0.50033 0.0
H849 H 0.59549 0.72722 0.63451 0.0
H850 H 0.56053 0.61077 0.6055 0.0
H851 H 0.54514 0.6806 0.53138 0.0
C852 C 0.56407 0.66298 0.48928 0.0
C853 C 0.58116 0.64555 0.4806 0.0
C854 C 0.56683 0.63591 0.61241 0.0
C855 C 0.56455 0.64888 0.54996 0.0
C856 C 0.58132 0.64882 0.64512 0.0
C857 C 0.59314 0.68227 0.6529 0.0
C858 C 0.5651 0.65696 0.58739 0.0
C859 C 0.58672 0.70128 0.62905 0.0
C860 C 0.55624 0.66524 0.52428 0.0
C861 C 0.58716 0.62803 0.50656 0.0
N862 N 0.57373 0.68854 0.59686 0.0
N863 N 0.57917 0.63041 0.54019 0.0
H864 H 0.49578 0.45285 0.78498 0.0
H865 H 0.49034 0.365 0.63131 0.0
H866 H 0.42617 0.35679 0.82493 0.0
H867 H 0.38568 0.31074 0.66255 0.0
H868 H 0.50615 0.38799 0.69147 0.0
H869 H 0.49712 0.4267 0.72921 0.0
C870 C 0.48177 0.42613 0.78236 0.0
C871 C 0.46096 0.40684 0.8095 0.0
C872 C 0.47979 0.371 0.68503 0.0
C873 C 0.46139 0.37707 0.74569 0.0
C874 C 0.47082 0.35806 0.65092 0.0
C875 C 0.43659 0.33725 0.64205 0.0
C876 C 0.45435 0.3619 0.71034 0.0
C877 C 0.4122 0.32778 0.66833 0.0
C878 C 0.4825 0.41126 0.75057 0.0
C879 C 0.44281 0.37242 0.80472 0.0
N880 N 0.42153 0.34026 0.70137 0.0
N881 N 0.4426 0.35867 0.77295 0.0
H882 H 0.67353 0.1144 0.64107 0.0
H883 H 0.64918 0.00863 0.81078 0.0
H884 H 0.72782 0.06 0.65418 0.0
H885 H 0.56887 0.02241 0.76667 0.0
H886 H 0.68426 0.03562 0.75971 0.0
H887 H 0.64085 0.08874 0.69301 0.0
C888 C 0.67867 0.09703 0.65478 0.0
C889 C 0.70346 0.08923 0.64288 0.0
C890 C 0.65902 0.03283 0.7614 0.0
C891 C 0.66613 0.0601 0.70319 0.0
C892 C 0.63912 0.01779 0.79064 0.0
C893 C 0.60608 0.01341 0.79305 0.0
C894 C 0.64604 0.04415 0.73475 0.0
C895 C 0.59417 0.02528 0.76591 0.0
C896 C 0.65986 0.08236 0.68451 0.0
C897 C 0.70885 0.06659 0.66219 0.0
N898 N 0.6142 0.04026 0.738 0.0
N899 N 0.69046 0.05294 0.69159 0.0
H900 H 0.04871 0.66669 0.81409 0.0
H901 H 0.92108 0.57839 0.65759 0.0
H902 H 0.019 0.56513 0.78869 0.0
H903 H 1.00648 0.67662 0.64816 0.0
H904 H 0.94589 0.57197 0.71234 0.0
H905 H 0.02093 0.66971 0.76021 0.0
C906 C 0.03562 0.64482 0.79742 0.0
C907 C 0.0353 0.61539 0.80588 0.0
C908 C 0.95914 0.59476 0.69804 0.0
C909 C 1.00431 0.61888 0.74439 0.0
C910 C 0.94509 0.59852 0.66702 0.0
C911 C 0.96192 0.62809 0.6485 0.0
C912 C 0.9896 0.62111 0.71088 0.0
C913 C 0.99291 0.65341 0.66164 0.0
C914 C 0.02021 0.64669 0.76666 0.0
C915 C 0.0191 0.58801 0.78308 0.0
N916 N 1.0056 0.64951 0.69239 0.0
N917 N 1.00383 0.59027 0.75326 0.0
H918 H 0.67778 0.59501 0.3446 0.0
H919 H 0.74016 0.71454 0.18299 0.0
H920 H 0.72608 0.7013 0.35527 0.0
H921 H 0.71586 0.61244 0.1752 0.0
H922 H 0.73572 0.71005 0.24681 0.0
H923 H 0.6962 0.60091 0.28384 0.0
C924 C 0.69342 0.61962 0.33456 0.0
C925 C 0.69989 0.64767 0.35482 0.0
C926 C 0.73138 0.6886 0.23119 0.0
C927 C 0.71983 0.65457 0.28509 0.0
C928 C 0.73321 0.69101 0.19482 0.0
C929 C 0.72718 0.66347 0.17407 0.0
C930 C 0.72383 0.65851 0.24676 0.0
C931 C 0.71991 0.63396 0.1905 0.0
C932 C 0.70354 0.62299 0.29972 0.0
C933 C 0.72033 0.67897 0.34056 0.0
N934 N 0.71816 0.63215 0.22593 0.0
N935 N 0.72877 0.68157 0.30621 0.0
H936 H 0.33474 0.05961 0.18044 0.0
H937 H 0.4652 0.07508 0.32935 0.0
H938 H 0.44015 0.09225 0.15966 0.0
H939 H 0.36774 0.06759 0.35076 0.0
H940 H 0.45777 0.08299 0.26753 0.0
H941 H 0.3464 0.06129 0.24324 0.0
C942 C 0.36025 0.06654 0.18927 0.0
C943 C 0.38633 0.07457 0.16516 0.0
C944 C 0.43831 0.08024 0.28587 0.0
C945 C 0.40026 0.07801 0.23669 0.0
C946 C 0.44261 0.07592 0.3212 0.0
C947 C 0.4169 0.07035 0.34522 0.0
C948 C 0.40792 0.07858 0.27445 0.0
C949 C 0.38823 0.07178 0.33321 0.0
C950 C 0.36703 0.06804 0.22503 0.0
C951 C 0.41928 0.08501 0.17767 0.0
N952 N 0.38423 0.07516 0.29853 0.0
N953 N 0.42531 0.08611 0.21268 0.0
H954 H 0.90698 0.29111 0.34053 0.0
H955 H 0.95574 0.29741 0.18028 0.0
H956 H 0.91649 0.38486 0.31238 0.0
H957 H 0.89155 0.33666 0.14626 0.0
H958 H 0.93426 0.29321 0.23936 0.0
H959 H 0.88713 0.27032 0.28102 0.0
C960 C 0.9029 0.30665 0.32244 0.0
C961 C 0.91417 0.33993 0.33073 0.0
C962 C 0.92407 0.30194 0.21892 0.0
C963 C 0.89369 0.31722 0.26283 0.0
C964 C 0.93699 0.30512 0.18546 0.0
C965 C 0.9261 0.31842 0.15902 0.0
C966 C 0.90031 0.31248 0.22613 0.0
C967 C 0.90103 0.32708 0.16651 0.0
C968 C 0.8921 0.29498 0.28835 0.0
C969 C 0.90866 0.35919 0.30638 0.0
N970 N 0.88966 0.32499 0.19989 0.0
N971 N 0.89989 0.34794 0.27289 0.0
H972 H 0.28859 0.94217 0.42106 0.0
H973 H 0.20287 0.85054 0.24062 0.0
H974 H 0.35192 0.9458 0.33489 0.0
H975 H 0.15914 0.89217 0.31202 0.0
H976 H 0.25586 0.87706 0.27562 0.0
H977 H 0.23868 0.91283 0.3837 0.0
C978 C 0.29204 0.93616 0.39441 0.0
C979 C 0.32475 0.94663 0.38125 0.0
C980 C 0.23468 0.88048 0.28337 0.0
C981 C 0.26698 0.91321 0.33766 0.0
C982 C 0.20442 0.86541 0.26345 0.0
C983 C 0.17631 0.86905 0.27333 0.0
C984 C 0.23655 0.89859 0.31391 0.0
C985 C 0.17997 0.88868 0.30316 0.0
C986 C 0.2634 0.91967 0.37291 0.0
C987 C 0.32726 0.93796 0.34631 0.0
N988 N 0.20923 0.90227 0.32249 0.0
N989 N 0.29873 0.92193 0.32556 0.0
H990 H 0.13141 0.26952 0.25421 0.0
H991 H 0.09519 0.41214 0.32945 0.0
H992 H 0.19066 0.37184 0.2266 0.0
H993 H 0.02798 0.30801 0.34432 0.0
H994 H 0.13078 0.39809 0.29188 0.0
H995 H 0.09148 0.28254 0.28479 0.0
C996 C 0.13521 0.29444 0.25329 0.0
C997 C 0.1639 0.31945 0.23701 0.0
C998 C 0.10827 0.37834 0.30349 0.0
C999 C 0.11967 0.33516 0.27411 0.0
C1000 C 0.0881 0.3864 0.32515 0.0
C1001 C 0.05861 0.3613 0.34031 0.0
C1002 C 0.09894 0.34491 0.29695 0.0
C1003 C 0.05048 0.32829 0.33335 0.0
C1004 C 0.11282 0.30209 0.27143 0.0
C1005 C 0.16853 0.35173 0.23834 0.0
N1006 N 0.07044 0.32112 0.31234 0.0
N1007 N 0.14696 0.35873 0.25684 0.0
H1008 H 0.71682 0.89056 0.31015 0.0
H1009 H 0.66885 0.70103 0.30977 0.0
H1010 H 0.71807 0.84423 0.21216 0.0
H1011 H 0.62084 0.7428 0.37458 0.0
H1012 H 0.69706 0.75314 0.27723 0.0
H1013 H 0.69466 0.83731 0.33886 0.0
C1014 C 0.71375 0.8693 0.29493 0.0
C1015 C 0.71982 0.87189 0.25877 0.0
C1016 C 0.6793 0.75035 0.29766 0.0
C1017 C 0.69312 0.81025 0.29137 0.0
C1018 C 0.66283 0.72048 0.31595 0.0
C1019 C 0.64141 0.71708 0.34415 0.0
C1020 C 0.67439 0.77701 0.30777 0.0
C1021 C 0.6362 0.7439 0.35235 0.0
C1022 C 0.70045 0.83876 0.31121 0.0
C1023 C 0.71433 0.84328 0.24017 0.0
N1024 N 0.65266 0.77263 0.33449 0.0
N1025 N 0.7011 0.81351 0.25661 0.0
H1026 H 0.86983 0.05486 0.1869 0.0
H1027 H 0.88011 0.19031 0.04974 0.0
H1028 H 0.7845 0.0465 0.12744 0.0
H1029 H 0.95709 0.21086 0.12827 0.0
H1030 H 0.84948 0.1326 0.06907 0.0
H1031 H 0.90669 0.10748 0.1574 0.0
C1032 C 0.85897 0.06377 0.16734 0.0
C1033 C 0.82397 0.0464 0.15995 0.0
C1034 C 0.87337 0.14965 0.0817 0.0
C1035 C 0.86581 0.10625 0.12594 0.0
C1036 C 0.89099 0.18253 0.07039 0.0
C1037 C 0.9211 0.20553 0.08748 0.0
C1038 C 0.88611 0.13963 0.11008 0.0
C1039 C 0.9338 0.19403 0.11448 0.0
C1040 C 0.87992 0.09384 0.15061 0.0
C1041 C 0.81125 0.05923 0.13438 0.0
N1042 N 0.91623 0.16211 0.12506 0.0
N1043 N 0.832 0.08821 0.11848 0.0
H1044 H 0.85382 0.67901 0.08925 0.0
H1045 H 0.03012 0.82702 0.15245 0.0
H1046 H 0.86207 0.7755 0.09831 0.0
H1047 H 0.9794 0.73579 0.20852 0.0
H1048 H 0.97654 0.81107 0.12016 0.0
H1049 H 0.90989 0.7013 0.11779 0.0
C1050 C 0.86793 0.70511 0.09609 0.0
C1051 C 0.85341 0.72548 0.09126 0.0
C1052 C 0.97719 0.79492 0.13999 0.0
C1053 C 0.91724 0.75101 0.12398 0.0
C1054 C 1.00747 0.80428 0.15885 0.0
C1055 C 1.00877 0.7833 0.18422 0.0
C1056 C 0.94884 0.76366 0.14534 0.0
C1057 C 0.97923 0.75305 0.18983 0.0
C1058 C 0.89963 0.71769 0.1128 0.0
C1059 C 0.87251 0.75903 0.10146 0.0
N1060 N 0.9507 0.74397 0.1703 0.0
N1061 N 0.90349 0.77082 0.11736 0.0
H1062 H 0.20666 0.20063 0.12826 0.0
H1063 H 0.3774 0.18772 0.11342 0.0
H1064 H 0.29525 0.25592 0.19437 0.0
H1065 H 0.28426 0.12137 0.05929 0.0
H1066 H 0.35026 0.21872 0.13663 0.0
H1067 H 0.23626 0.17527 0.09808 0.0
C1068 C 0.23219 0.20726 0.1367 0.0
C1069 C 0.2483 0.2304 0.16415 0.0
C1070 C 0.33594 0.19785 0.11902 0.0
C1071 C 0.28268 0.20184 0.12905 0.0
C1072 C 0.35166 0.18059 0.10527 0.0
C1073 C 0.33326 0.15261 0.08368 0.0
C1074 C 0.30144 0.18675 0.1114 0.0
C1075 C 0.2995 0.14339 0.07513 0.0
C1076 C 0.24917 0.19289 0.11926 0.0
C1077 C 0.28157 0.23807 0.17361 0.0
N1078 N 0.28458 0.16026 0.08916 0.0
N1079 N 0.29762 0.22395 0.15605 0.0
H1080 H 0.82225 0.20501 0.64084 0.0
H1081 H 0.01848 0.27428 0.67265 0.0
H1082 H 0.8736 0.1652 0.5778 0.0
H1083 H 0.94823 0.25794 0.75636 0.0
H1084 H 0.96975 0.23921 0.63366 0.0
H1085 H 0.87254 0.23247 0.6788 0.0
C1086 C 0.84422 0.2023 0.63472 0.0
C1087 C 0.84357 0.18268 0.60605 0.0
C1088 C 0.96525 0.24284 0.66081 0.0
C1089 C 0.90153 0.21427 0.64959 0.0
C1090 C 0.99304 0.26247 0.68319 0.0
C1091 C 0.98751 0.26922 0.71787 0.0
C1092 C 0.93192 0.23052 0.67318 0.0
C1093 C 0.95382 0.25373 0.72981 0.0
C1094 C 0.87284 0.21775 0.65662 0.0
C1095 C 0.87291 0.17997 0.59971 0.0
N1096 N 0.92745 0.23578 0.70743 0.0
N1097 N 0.90083 0.19578 0.62114 0.0
H1098 H 0.82132 0.61404 0.61205 0.0
H1099 H 0.77556 0.75566 0.66744 0.0
H1100 H 0.87889 0.71429 0.57719 0.0
H1101 H 0.70801 0.65132 0.68066 0.0
H1102 H 0.8158 0.74223 0.63751 0.0
H1103 H 0.781 0.62806 0.6401 0.0
C1104 C 0.82488 0.63879 0.60951 0.0
C1105 C 0.85246 0.66263 0.59086 0.0
C1106 C 0.79215 0.72234 0.64707 0.0
C1107 C 0.80754 0.67951 0.62448 0.0
C1108 C 0.76931 0.73003 0.66434 0.0
C1109 C 0.73838 0.70464 0.67674 0.0
C1110 C 0.78412 0.68906 0.64247 0.0
C1111 C 0.73151 0.67179 0.67164 0.0
C1112 C 0.80216 0.64696 0.62591 0.0
C1113 C 0.85721 0.69492 0.59032 0.0
N1114 N 0.7541 0.66502 0.65506 0.0
N1115 N 0.83494 0.70242 0.60673 0.0
H1116 H 0.26167 0.05521 0.69001 0.0
H1117 H 0.39526 0.18733 0.55608 0.0
H1118 H 0.35598 0.05979 0.66154 0.0
H1119 H 0.31509 0.19742 0.60607 0.0
H1120 H 0.37365 0.13295 0.58312 0.0
H1121 H 0.27314 0.09934 0.64807 0.0
C1122 C 0.28393 0.06436 0.67366 0.0
C1123 C 0.30718 0.05276 0.678 0.0
C1124 C 0.36052 0.14686 0.58775 0.0
C1125 C 0.32138 0.10426 0.63114 0.0
C1126 C 0.37275 0.17786 0.57209 0.0
C1127 C 0.35717 0.19717 0.57897 0.0
C1128 C 0.33232 0.13488 0.61019 0.0
C1129 C 0.32815 0.18359 0.60024 0.0
C1130 C 0.29082 0.08992 0.65012 0.0
C1131 C 0.33666 0.06691 0.65763 0.0
N1132 N 0.31685 0.15355 0.61517 0.0
N1133 N 0.343 0.09189 0.63532 0.0
H1134 H 0.224 0.85805 0.72075 0.0
H1135 H 0.21372 0.73393 0.87195 0.0
H1136 H 0.29367 0.88778 0.80861 0.0
H1137 H 0.14135 0.70693 0.78709 0.0
H1138 H 0.24868 0.7881 0.84463 0.0
H1139 H 0.19825 0.80053 0.74019 0.0
C1140 C 0.23419 0.85249 0.7438 0.0
C1141 C 0.26091 0.87797 0.76311 0.0
C1142 C 0.22546 0.77003 0.83163 0.0
C1143 C 0.23142 0.81203 0.78582 0.0
C1144 C 0.20578 0.73895 0.84705 0.0
C1145 C 0.17472 0.71579 0.83166 0.0
C1146 C 0.21392 0.77791 0.80067 0.0
C1147 C 0.16521 0.72402 0.7998 0.0
C1148 C 0.21942 0.81961 0.75503 0.0
C1149 C 0.27294 0.8691 0.79294 0.0
N1150 N 0.18445 0.75428 0.7856 0.0
N1151 N 0.25804 0.83711 0.80345 0.0
H1152 H 0.18111 0.33519 0.76146 0.0
H1153 H 0.36706 0.47748 0.80597 0.0
H1154 H 0.19838 0.43527 0.76391 0.0
H1155 H 0.31407 0.39314 0.872 0.0
H1156 H 0.31258 0.46266 0.77607 0.0
H1157 H 0.23884 0.35545 0.78514 0.0
C1158 C 0.19743 0.36151 0.76582 0.0
C1159 C 0.18505 0.3836 0.76067 0.0
C1160 C 0.31303 0.44779 0.79745 0.0
C1161 C 0.25078 0.40682 0.78765 0.0
C1162 C 0.34385 0.45655 0.81487 0.0
C1163 C 0.34471 0.43732 0.8425 0.0
C1164 C 0.28352 0.41868 0.8066 0.0
C1165 C 0.3143 0.40914 0.85149 0.0
C1166 C 0.23012 0.37298 0.7797 0.0
C1167 C 0.20708 0.41747 0.76751 0.0
N1168 N 0.28509 0.40049 0.83342 0.0
N1169 N 0.23893 0.42812 0.7807 0.0
H1170 H 0.59445 0.78022 0.71113 0.0
H1171 H 0.61483 0.90038 0.87328 0.0
H1172 H 0.66599 0.80144 0.79561 0.0
H1173 H 0.54197 0.87581 0.78889 0.0
H1174 H 0.63708 0.86793 0.84356 0.0
H1175 H 0.58 0.82061 0.73601 0.0
C1176 C 0.60791 0.79427 0.73437 0.0
C1177 C 0.63175 0.78792 0.75112 0.0
C1178 C 0.61624 0.86967 0.83156 0.0
C1179 C 0.61436 0.83321 0.78074 0.0
C1180 C 0.60331 0.88803 0.84863 0.0
C1181 C 0.57625 0.89079 0.83374 0.0
C1182 C 0.60213 0.85391 0.79927 0.0
C1183 C 0.56267 0.87434 0.80158 0.0
C1184 C 0.59937 0.81704 0.74885 0.0
C1185 C 0.64798 0.80621 0.78157 0.0
N1186 N 0.57573 0.85668 0.78551 0.0
N1187 N 0.63868 0.82777 0.7957 0.0
H1188 H 0.51045 0.38488 0.51292 0.0
H1189 H 0.51112 0.51397 0.37517 0.0
H1190 H 0.42068 0.3723 0.45939 0.0
H1191 H 0.59946 0.52623 0.43168 0.0
H1192 H 0.47943 0.45675 0.39614 0.0
H1193 H 0.54532 0.43075 0.47402 0.0
C1194 C 0.49822 0.39088 0.492 0.0
C1195 C 0.46273 0.37441 0.48893 0.0
C1196 C 0.50599 0.47176 0.4033 0.0
C1197 C 0.50219 0.42786 0.44525 0.0
C1198 C 0.52413 0.50431 0.391 0.0
C1199 C 0.55792 0.52492 0.40177 0.0
C1200 C 0.52184 0.45984 0.42647 0.0
C1201 C 0.57336 0.51125 0.42289 0.0
C1202 C 0.51804 0.41741 0.47007 0.0
C1203 C 0.44806 0.38407 0.4622 0.0
N1204 N 0.55521 0.4799 0.43479 0.0
N1205 N 0.46773 0.41033 0.44175 0.0
H1206 H 0.70722 0.13292 0.46476 0.0
H1207 H 0.51796 0.98872 0.42903 0.0
H1208 H 0.65227 0.05329 0.53595 0.0
H1209 H 0.54285 0.08942 0.41003 0.0
H1210 H 0.5757 0.00893 0.45262 0.0
H1211 H 0.65377 0.11546 0.43152 0.0
C1212 C 0.68378 0.11246 0.47394 0.0
C1213 C 0.68375 0.09536 0.50398 0.0
C1214 C 0.56873 0.02648 0.44235 0.0
C1215 C 0.6238 0.07362 0.46462 0.0
C1216 C 0.53605 0.01491 0.42837 0.0
C1217 C 0.52587 0.03743 0.41728 0.0
C1218 C 0.59141 0.0607 0.44467 0.0
C1219 C 0.54998 0.07131 0.41806 0.0
C1220 C 0.65356 0.10215 0.45466 0.0
C1221 C 0.65315 0.06768 0.51349 0.0
N1222 N 0.58165 0.08201 0.43172 0.0
N1223 N 0.62455 0.05754 0.49381 0.0
H1224 H 1.0005 0.4671 0.46216 0.0
H1225 H 0.87085 0.53906 0.46461 0.0
H1226 H 0.91549 0.43554 0.39113 0.0
H1227 H 0.95752 0.57436 0.53455 0.0
H1228 H 0.88906 0.50324 0.43537 0.0
H1229 H 0.98901 0.51045 0.48552 0.0
C1230 C 0.98015 0.47005 0.45073 0.0
C1231 C 0.95895 0.44789 0.42467 0.0
C1232 C 0.90415 0.51885 0.45709 0.0
C1233 C 0.94486 0.49636 0.45187 0.0
C1234 C 0.89361 0.53921 0.47399 0.0
C1235 C 0.91251 0.55978 0.50228 0.0
C1236 C 0.93383 0.51882 0.4685 0.0
C1237 C 0.94198 0.55892 0.51297 0.0
C1238 C 0.97325 0.49442 0.46437 0.0
C1239 C 0.93234 0.45211 0.41133 0.0
N1240 N 0.95166 0.53878 0.49615 0.0
N1241 N 0.92586 0.47558 0.42526 0.0
H1242 H 0.49226 0.53955 0.9747 0.0
H1243 H 0.68832 0.61699 -0.01089 0.0
H1244 H 0.53829 0.50464 0.89825 0.0
H1245 H 0.62431 0.5763 0.07893 0.0
H1246 H 0.63853 0.5837 0.95069 0.0
H1247 H 0.54535 0.56449 0.00876 0.0
C1248 C 0.51368 0.53754 0.96479 0.0
C1249 C 0.51078 0.51995 0.93357 0.0
C1250 C 0.6358 0.58146 0.97884 0.0
C1251 C 0.57175 0.54866 0.97243 0.0
C1252 C 0.66427 0.6 0.00076 0.0
C1253 C 0.66051 0.59941 0.03734 0.0
C1254 C 0.60354 0.56298 -0.00622 0.0
C1255 C 0.6284 0.57761 0.05093 0.0
C1256 C 0.54384 0.55149 0.98441 0.0
C1257 C 0.53943 0.5179 0.92226 0.0
N1258 N 0.6011 0.56103 0.02925 0.0
N1259 N 0.5689 0.53233 0.94152 0.0
H1260 H 0.54266 0.04793 0.89788 0.0
H1261 H 0.43451 0.0878 -0.00458 0.0
H1262 H 0.47541 0.94748 0.92724 0.0
H1263 H 0.39217 0.98763 0.03151 0.0
H1264 H 0.46801 0.07615 0.95273 0.0
H1265 H 0.5061 0.06537 0.92783 0.0
C1266 C 0.51944 0.02936 0.90968 0.0
C1267 C 0.51168 0.99608 0.90936 0.0
C1268 C 0.45166 0.05675 0.97014 0.0
C1269 C 0.46972 0.01591 0.94489 0.0
C1270 C 0.43237 0.06349 -0.0054 0.0
C1271 C 0.41064 0.03895 0.01768 0.0
C1272 C 0.44907 0.02512 0.96858 0.0
C1273 C 0.40867 0.00768 0.01478 0.0
C1274 C 0.49849 0.03935 0.92701 0.0
C1275 C 0.48186 0.9732 0.92589 0.0
N1276 N 0.42748 1.00182 -0.00908 0.0
N1277 N 0.46226 0.98358 0.94322 0.0
H1278 H 0.02701 0.55854 0.97996 0.0
H1279 H 0.01617 0.38153 -0.00997 0.0
H1280 H 0.07449 0.52794 0.90079 0.0
H1281 H 0.9506 0.40976 0.04439 0.0
H1282 H 0.04119 0.43416 0.95856 0.0
H1283 H 1.00447 0.50497 0.00684 0.0
C1284 C 0.03315 0.54062 0.9684 0.0
C1285 C 0.05251 0.54789 0.93773 0.0
C1286 C 0.02052 0.42834 0.97647 0.0
C1287 C 0.02602 0.48536 0.96868 0.0
C1288 C 1.00594 0.39809 -0.00586 0.0
C1289 C 0.9808 0.39089 0.01946 0.0
C1290 C 1.00952 0.4514 0.98389 0.0
C1291 C 0.96925 0.41378 0.02449 0.0
C1292 C 0.01993 0.50975 0.98372 0.0
C1293 C 0.05983 0.52358 0.92444 0.0
N1294 N 0.98376 0.44288 0.00715 0.0
N1295 N 0.04645 0.4933 0.93995 0.0
loop_
_geom_bond_atom_site_label_1
_geom_bond_atom_site_label_2
_geom_bond_distance
_geom_bond_site_symmetry_2
_ccdc_geom_bond_type
Mn0 O5 2.095 . S
Mn0 O15 2.162 . S
Mn0 O16 2.297 . S
Mn0 O24 2.385 1_455 S
Mn0 O25 2.209 1_455 S
Mn0 O26 2.094 1_455 S
Mn1 O6 2.121 1_655 S
Mn1 N8 2.257 . S
Mn1 N17 2.282 . S
Mn1 O25 2.215 . S
Mn1 O27 2.117 . S
C2 O24 1.234 . S
C2 O25 1.283 . S
C3 O15 1.281 . S
C3 O16 1.236 . S
C4 O26 1.240 . S
C4 O27 1.264 . S
O5 Mn0 2.095 . S
O5 C14 1.250 . S
O6 Mn1 2.121 1_455 S
O6 C14 1.258 . S
C7 N8 1.326 . S
C7 C11 1.460 . S
C7 H13 0.929 1_655 S
N8 Mn1 2.257 . S
N8 C7 1.326 . S
N8 C12 1.362 . S
C9 C10 1.258 . S
C9 C12 1.431 . S
C9 C29 1.449 . S
C10 C9 1.258 . S
C10 C11 1.477 . S
C10 H30 0.931 . S
C11 C7 1.460 . S
C11 C10 1.477 . S
C11 H31 0.930 1_655 S
C12 N8 1.362 . S
C12 C9 1.431 . S
C12 C22 1.476 . S
H13 C7 0.929 1_455 S
C14 O5 1.250 . S
C14 O6 1.258 . S
O15 Mn0 2.162 . S
O15 C3 1.281 . S
O16 Mn0 2.297 . S
O16 C3 1.236 . S
N17 Mn1 2.282 . S
N17 C18 1.328 . S
N17 C22 1.318 . S
C18 N17 1.328 . S
C18 C19 1.457 . S
C18 H23 0.929 . S
C19 C18 1.457 . S
C19 C20 1.291 . S
C19 H32 0.931 . S
C20 C19 1.291 . S
C20 C21 1.373 . S
C20 H33 0.929 . S
C21 C20 1.373 . S
C21 C22 1.396 . S
C21 C28 1.403 . S
C22 C12 1.476 . S
C22 N17 1.318 . S
C22 C21 1.396 . S
H23 C18 0.929 . S
O24 Mn0 2.385 1_655 S
O24 C2 1.234 . S
O25 Mn0 2.209 1_655 S
O25 Mn1 2.215 . S
O25 C2 1.283 . S
O26 Mn0 2.094 1_655 S
O26 C4 1.240 . S
O27 Mn1 2.117 . S
O27 C4 1.264 . S
C28 C21 1.403 . S
C28 C29 1.399 . S
C28 H34 0.929 . S
C29 C9 1.449 . S
C29 C28 1.399 . S
C29 H35 0.930 . S
H30 C10 0.931 . S
H31 C11 0.930 1_455 S
H32 C19 0.931 . S
H33 C20 0.929 . S
H34 C28 0.929 . S
H35 C29 0.930 . S
Mn36 O41 2.095 . S
Mn36 O51 2.162 . S
Mn36 O52 2.297 . S
Mn36 O60 2.385 . S
Mn36 O61 2.209 . S
Mn36 O62 2.094 . S
Mn37 O42 2.121 . S
Mn37 N44 2.257 . S
Mn37 N53 2.282 . S
Mn37 O61 2.215 . S
Mn37 O63 2.117 . S
C38 O60 1.234 . S
C38 O61 1.283 . S
C39 O51 1.281 . S
C39 O52 1.236 . S
C40 O62 1.240 . S
C40 O63 1.264 . S
O41 Mn36 2.095 . S
O41 C50 1.250 . S
O42 Mn37 2.121 . S
O42 C50 1.258 . S
C43 N44 1.326 . S
C43 C47 1.460 . S
C43 H49 0.929 . S
N44 Mn37 2.257 . S
N44 C43 1.326 . S
N44 C48 1.362 . S
C45 C46 1.258 . S
C45 C48 1.431 . S
C45 C65 1.449 . S
C46 C45 1.258 . S
C46 C47 1.477 . S
C46 H66 0.931 . S
C47 C43 1.460 . S
C47 C46 1.477 . S
C47 H67 0.930 . S
C48 N44 1.362 . S
C48 C45 1.431 . S
C48 C58 1.476 . S
H49 C43 0.929 . S
C50 O41 1.250 . S
C50 O42 1.258 . S
O51 Mn36 2.162 . S
O51 C39 1.281 . S
O52 Mn36 2.297 . S
O52 C39 1.236 . S
N53 Mn37 2.282 . S
N53 C54 1.328 . S
N53 C58 1.318 . S
C54 N53 1.328 . S
C54 C55 1.457 . S
C54 H59 0.929 . S
C55 C54 1.457 . S
C55 C56 1.291 . S
C55 H68 0.931 . S
C56 C55 1.291 . S
C56 C57 1.373 . S
C56 H69 0.929 . S
C57 C56 1.373 . S
C57 C58 1.396 . S
C57 C64 1.403 . S
C58 C48 1.476 . S
C58 N53 1.318 . S
C58 C57 1.396 . S
H59 C54 0.929 . S
O60 Mn36 2.385 . S
O60 C38 1.234 . S
O61 Mn36 2.209 . S
O61 Mn37 2.215 . S
O61 C38 1.283 . S
O62 Mn36 2.094 . S
O62 C40 1.240 . S
O63 Mn37 2.117 . S
O63 C40 1.264 . S
C64 C57 1.403 . S
C64 C65 1.399 . S
C64 H70 0.929 . S
C65 C45 1.449 . S
C65 C64 1.399 . S
C65 H71 0.930 . S
H66 C46 0.931 . S
H67 C47 0.930 . S
H68 C55 0.931 . S
H69 C56 0.929 . S
H70 C64 0.929 . S
H71 C65 0.930 . S
Mn72 O77 2.095 . S
Mn72 O87 2.162 . S
Mn72 O88 2.297 . S
Mn72 O96 2.385 1_545 S
Mn72 O97 2.209 1_545 S
Mn72 O98 2.094 1_545 S
Mn73 O78 2.121 1_565 S
Mn73 N80 2.257 . S
Mn73 N89 2.282 . S
Mn73 O97 2.215 . S
Mn73 O99 2.117 . S
C74 O96 1.234 . S
C74 O97 1.283 . S
C75 O87 1.281 . S
C75 O88 1.236 . S
C76 O98 1.240 . S
C76 O99 1.264 . S
O77 Mn72 2.095 . S
O77 C86 1.250 . S
O78 Mn73 2.121 1_545 S
O78 C86 1.258 . S
C79 N80 1.326 . S
C79 C83 1.460 . S
C79 H85 0.929 1_565 S
N80 Mn73 2.257 . S
N80 C79 1.326 . S
N80 C84 1.362 . S
C81 C82 1.258 . S
C81 C84 1.431 . S
C81 C101 1.449 . S
C82 C81 1.258 . S
C82 C83 1.477 . S
C82 H102 0.931 . S
C83 C79 1.460 . S
C83 C82 1.477 . S
C83 H103 0.930 . S
C84 N80 1.362 . S
C84 C81 1.431 . S
C84 C94 1.476 . S
H85 C79 0.929 1_545 S
C86 O77 1.250 . S
C86 O78 1.258 . S
O87 Mn72 2.162 . S
O87 C75 1.281 . S
O88 Mn72 2.297 . S
O88 C75 1.236 . S
N89 Mn73 2.282 . S
N89 C90 1.328 . S
N89 C94 1.318 . S
C90 N89 1.328 . S
C90 C91 1.457 . S
C90 H95 0.929 . S
C91 C90 1.457 . S
C91 C92 1.291 . S
C91 H104 0.931 . S
C92 C91 1.291 . S
C92 C93 1.373 . S
C92 H105 0.929 . S
C93 C92 1.373 . S
C93 C94 1.396 . S
C93 C100 1.403 . S
C94 C84 1.476 . S
C94 N89 1.318 . S
C94 C93 1.396 . S
H95 C90 0.929 . S
O96 Mn72 2.385 1_565 S
O96 C74 1.234 . S
O97 Mn72 2.209 1_565 S
O97 Mn73 2.215 . S
O97 C74 1.283 . S
O98 Mn72 2.094 1_565 S
O98 C76 1.240 . S
O99 Mn73 2.117 . S
O99 C76 1.264 . S
C100 C93 1.403 . S
C100 C101 1.399 . S
C100 H106 0.929 . S
C101 C81 1.449 . S
C101 C100 1.399 . S
C101 H107 0.930 . S
H102 C82 0.931 . S
H103 C83 0.930 . S
H104 C91 0.931 . S
H105 C92 0.929 . S
H106 C100 0.929 . S
H107 C101 0.930 . S
Mn108 O113 2.095 . S
Mn108 O123 2.162 . S
Mn108 O124 2.297 . S
Mn108 O132 2.385 1_455 S
Mn108 O133 2.185 1_455 S
Mn108 O134 2.094 1_455 S
Mn109 O114 2.121 1_655 S
Mn109 N116 2.257 . S
Mn109 N125 2.282 . S
Mn109 O133 2.239 . S
Mn109 O135 2.117 . S
C110 O132 1.234 . S
C110 O133 1.282 . S
C111 O123 1.281 . S
C111 O124 1.236 . S
C112 O134 1.240 . S
C112 O135 1.264 . S
O113 Mn108 2.095 . S
O113 C122 1.250 . S
O114 Mn109 2.121 1_455 S
O114 C122 1.258 . S
C115 N116 1.326 . S
C115 C119 1.460 . S
C115 H121 0.930 . S
N116 Mn109 2.257 . S
N116 C115 1.326 . S
N116 C120 1.362 . S
C117 C118 1.258 . S
C117 C120 1.431 . S
C117 C137 1.449 . S
C118 C117 1.258 . S
C118 C119 1.477 . S
C118 H138 0.931 . S
C119 C115 1.460 . S
C119 C118 1.477 . S
C119 H139 0.930 . S
C120 N116 1.362 . S
C120 C117 1.431 . S
C120 C130 1.476 . S
H121 C115 0.930 . S
C122 O113 1.250 . S
C122 O114 1.258 . S
O123 Mn108 2.162 . S
O123 C111 1.281 . S
O124 Mn108 2.297 . S
O124 C111 1.236 . S
N125 Mn109 2.282 . S
N125 C126 1.328 . S
N125 C130 1.318 . S
C126 N125 1.328 . S
C126 C127 1.457 . S
C126 H131 0.929 . S
C127 C126 1.457 . S
C127 C128 1.291 . S
C127 H140 0.931 . S
C128 C127 1.291 . S
C128 C129 1.373 . S
C128 H141 0.929 . S
C129 C128 1.373 . S
C129 C130 1.396 . S
C129 C136 1.403 . S
C130 C120 1.476 . S
C130 N125 1.318 . S
C130 C129 1.396 . S
H131 C126 0.929 . S
O132 Mn108 2.385 1_655 S
O132 C110 1.234 . S
O133 Mn108 2.185 1_655 S
O133 Mn109 2.239 . S
O133 C110 1.282 . S
O134 Mn108 2.094 1_655 S
O134 C112 1.240 . S
O135 Mn109 2.117 . S
O135 C112 1.264 . S
C136 C129 1.403 . S
C136 C137 1.399 . S
C136 H142 0.929 . S
C137 C117 1.449 . S
C137 C136 1.399 . S
C137 H143 0.930 . S
H138 C118 0.931 . S
H139 C119 0.930 . S
H140 C127 0.931 . S
H141 C128 0.929 . S
H142 C136 0.929 . S
H143 C137 0.930 . S
Mn144 O149 2.095 . S
Mn144 O159 2.162 . S
Mn144 O160 2.297 . S
Mn144 O168 2.385 . S
Mn144 O169 2.209 . S
Mn144 O170 2.094 . S
Mn145 O150 2.121 . S
Mn145 N152 2.257 . S
Mn145 N161 2.282 . S
Mn145 O169 2.215 . S
Mn145 O171 2.117 . S
C146 O168 1.234 . S
C146 O169 1.283 . S
C147 O159 1.281 . S
C147 O160 1.236 . S
C148 O170 1.240 . S
C148 O171 1.264 . S
O149 Mn144 2.095 . S
O149 C158 1.250 . S
O150 Mn145 2.121 . S
O150 C158 1.258 . S
C151 N152 1.326 . S
C151 C155 1.460 . S
C151 H157 0.929 . S
N152 Mn145 2.257 . S
N152 C151 1.326 . S
N152 C156 1.362 . S
C153 C154 1.258 . S
C153 C156 1.431 . S
C153 C173 1.449 . S
C154 C153 1.258 . S
C154 C155 1.477 . S
C154 H174 0.931 . S
C155 C151 1.460 . S
C155 C154 1.477 . S
C155 H175 0.930 . S
C156 N152 1.362 . S
C156 C153 1.431 . S
C156 C166 1.476 . S
H157 C151 0.929 . S
C158 O149 1.250 . S
C158 O150 1.258 . S
O159 Mn144 2.162 . S
O159 C147 1.281 . S
O160 Mn144 2.297 . S
O160 C147 1.236 . S
N161 Mn145 2.282 . S
N161 C162 1.328 . S
N161 C166 1.318 . S
C162 N161 1.328 . S
C162 C163 1.457 . S
C162 H167 0.929 . S
C163 C162 1.457 . S
C163 C164 1.291 . S
C163 H176 0.931 . S
C164 C163 1.291 . S
C164 C165 1.373 . S
C164 H177 0.929 . S
C165 C164 1.373 . S
C165 C166 1.396 . S
C165 C172 1.403 . S
C166 C156 1.476 . S
C166 N161 1.318 . S
C166 C165 1.396 . S
H167 C162 0.929 . S
O168 Mn144 2.385 . S
O168 C146 1.234 . S
O169 Mn144 2.209 . S
O169 Mn145 2.215 . S
O169 C146 1.283 . S
O170 Mn144 2.094 . S
O170 C148 1.240 . S
O171 Mn145 2.117 . S
O171 C148 1.264 . S
C172 C165 1.403 . S
C172 C173 1.399 . S
C172 H178 0.929 . S
C173 C153 1.449 . S
C173 C172 1.399 . S
C173 H179 0.930 . S
H174 C154 0.931 . S
H175 C155 0.930 . S
H176 C163 0.931 . S
H177 C164 0.929 . S
H178 C172 0.929 . S
H179 C173 0.930 . S
Mn180 O185 2.087 1_545 S
Mn180 O195 2.162 1_545 S
Mn180 O196 2.297 1_545 S
Mn180 O204 2.385 . S
Mn180 O205 2.209 . S
Mn180 O206 2.094 . S
Mn181 O186 2.121 . S
Mn181 N188 2.257 . S
Mn181 N197 2.282 . S
Mn181 O205 2.215 . S
Mn181 O207 2.117 . S
C182 O204 1.234 . S
C182 O205 1.283 . S
C183 O195 1.281 . S
C183 O196 1.236 . S
C184 O206 1.240 . S
C184 O207 1.264 . S
O185 Mn180 2.087 1_565 S
O185 C194 1.263 . S
O186 Mn181 2.121 . S
O186 C194 1.258 1_545 S
C187 N188 1.326 . S
C187 C191 1.460 . S
C187 H193 0.929 . S
N188 Mn181 2.257 . S
N188 C187 1.326 . S
N188 C192 1.362 . S
C189 C190 1.258 . S
C189 C192 1.431 . S
C189 C209 1.449 . S
C190 C189 1.258 . S
C190 C191 1.477 . S
C190 H210 0.931 . S
C191 C187 1.460 . S
C191 C190 1.477 . S
C191 H211 0.930 . S
C192 N188 1.362 . S
C192 C189 1.431 . S
C192 C202 1.476 . S
H193 C187 0.929 . S
C194 O185 1.263 . S
C194 O186 1.258 1_565 S
O195 Mn180 2.162 1_565 S
O195 C183 1.281 . S
O196 Mn180 2.297 1_565 S
O196 C183 1.236 . S
N197 Mn181 2.282 . S
N197 C198 1.328 . S
N197 C202 1.318 . S
C198 N197 1.328 . S
C198 C199 1.457 . S
C198 H203 0.929 . S
C199 C198 1.457 . S
C199 C200 1.291 . S
C199 H212 0.931 . S
C200 C199 1.291 . S
C200 C201 1.373 . S
C200 H213 0.929 . S
C201 C200 1.373 . S
C201 C202 1.396 . S
C201 C208 1.403 . S
C202 C192 1.476 . S
C202 N197 1.318 . S
C202 C201 1.396 . S
H203 C198 0.929 . S
O204 Mn180 2.385 . S
O204 C182 1.234 . S
O205 Mn180 2.209 . S
O205 Mn181 2.215 . S
O205 C182 1.283 . S
O206 Mn180 2.094 . S
O206 C184 1.240 . S
O207 Mn181 2.117 . S
O207 C184 1.264 . S
C208 C201 1.403 . S
C208 C209 1.399 . S
C208 H214 0.929 . S
C209 C189 1.449 . S
C209 C208 1.399 . S
C209 H215 0.930 . S
H210 C190 0.931 . S
H211 C191 0.930 . S
H212 C199 0.931 . S
H213 C200 0.929 . S
H214 C208 0.929 . S
H215 C209 0.930 . S
Mn216 O221 2.095 . S
Mn216 O231 2.162 . S
Mn216 O232 2.297 . S
Mn216 O240 2.385 . S
Mn216 O241 2.209 . S
Mn216 O242 2.094 . S
Mn217 O222 2.121 . S
Mn217 N224 2.257 . S
Mn217 N233 2.282 . S
Mn217 O241 2.215 . S
Mn217 O243 2.117 . S
C218 O240 1.234 . S
C218 O241 1.283 . S
C219 O231 1.281 . S
C219 O232 1.236 . S
C220 O242 1.240 . S
C220 O243 1.264 . S
O221 Mn216 2.095 . S
O221 C230 1.250 . S
O222 Mn217 2.121 . S
O222 C230 1.258 . S
C223 N224 1.326 . S
C223 C227 1.460 . S
C223 H229 0.929 . S
N224 Mn217 2.257 . S
N224 C223 1.326 . S
N224 C228 1.362 . S
C225 C226 1.258 . S
C225 C228 1.431 . S
C225 C245 1.449 . S
C226 C225 1.258 . S
C226 C227 1.477 . S
C226 H246 0.931 . S
C227 C223 1.460 . S
C227 C226 1.477 . S
C227 H247 0.930 . S
C228 N224 1.362 . S
C228 C225 1.431 . S
C228 C238 1.476 . S
H229 C223 0.929 . S
C230 O221 1.250 . S
C230 O222 1.258 . S
O231 Mn216 2.162 . S
O231 C219 1.281 . S
O232 Mn216 2.297 . S
O232 C219 1.236 . S
N233 Mn217 2.282 . S
N233 C234 1.328 . S
N233 C238 1.318 . S
C234 N233 1.328 . S
C234 C235 1.457 . S
C234 H239 0.929 . S
C235 C234 1.457 . S
C235 C236 1.291 . S
C235 H248 0.931 . S
C236 C235 1.291 . S
C236 C237 1.373 . S
C236 H249 0.929 . S
C237 C236 1.373 . S
C237 C238 1.396 . S
C237 C244 1.403 . S
C238 C228 1.476 . S
C238 N233 1.318 . S
C238 C237 1.396 . S
H239 C234 0.929 . S
O240 Mn216 2.385 . S
O240 C218 1.234 . S
O241 Mn216 2.209 . S
O241 Mn217 2.215 . S
O241 C218 1.283 . S
O242 Mn216 2.094 . S
O242 C220 1.240 . S
O243 Mn217 2.117 . S
O243 C220 1.264 . S
C244 C237 1.403 . S
C244 C245 1.399 . S
C244 H250 0.929 . S
C245 C225 1.449 . S
C245 C244 1.399 . S
C245 H251 0.930 . S
H246 C226 0.931 . S
H247 C227 0.930 . S
H248 C235 0.931 . S
H249 C236 0.929 . S
H250 C244 0.929 . S
H251 C245 0.930 . S
Mn252 O257 2.095 . S
Mn252 O267 2.162 . S
Mn252 O268 2.297 . S
Mn252 O276 2.385 . S
Mn252 O277 2.209 . S
Mn252 O278 2.094 . S
Mn253 O258 2.121 . S
Mn253 N260 2.257 . S
Mn253 N269 2.282 . S
Mn253 O277 2.215 . S
Mn253 O279 2.117 . S
C254 O276 1.234 . S
C254 O277 1.283 . S
C255 O267 1.281 . S
C255 O268 1.236 . S
C256 O278 1.240 . S
C256 O279 1.264 . S
O257 Mn252 2.095 . S
O257 C266 1.250 . S
O258 Mn253 2.121 . S
O258 C266 1.258 . S
C259 N260 1.326 . S
C259 C263 1.460 . S
C259 H265 0.929 . S
N260 Mn253 2.257 . S
N260 C259 1.326 . S
N260 C264 1.362 . S
C261 C262 1.258 . S
C261 C264 1.431 . S
C261 C281 1.449 . S
C262 C261 1.258 . S
C262 C263 1.477 . S
C262 H282 0.931 . S
C263 C259 1.460 . S
C263 C262 1.477 . S
C263 H283 0.930 . S
C264 N260 1.362 . S
C264 C261 1.431 . S
C264 C274 1.476 . S
H265 C259 0.929 . S
C266 O257 1.250 . S
C266 O258 1.258 . S
O267 Mn252 2.162 . S
O267 C255 1.281 . S
O268 Mn252 2.297 . S
O268 C255 1.236 . S
N269 Mn253 2.282 . S
N269 C270 1.328 . S
N269 C274 1.318 . S
C270 N269 1.328 . S
C270 C271 1.457 . S
C270 H275 0.929 . S
C271 C270 1.457 . S
C271 C272 1.291 . S
C271 H284 0.931 . S
C272 C271 1.291 . S
C272 C273 1.373 . S
C272 H285 0.929 . S
C273 C272 1.373 . S
C273 C274 1.396 . S
C273 C280 1.403 . S
C274 C264 1.476 . S
C274 N269 1.318 . S
C274 C273 1.396 . S
H275 C270 0.929 . S
O276 Mn252 2.385 . S
O276 C254 1.234 . S
O277 Mn252 2.209 . S
O277 Mn253 2.215 . S
O277 C254 1.283 . S
O278 Mn252 2.094 . S
O278 C256 1.240 . S
O279 Mn253 2.117 . S
O279 C256 1.264 . S
C280 C273 1.403 . S
C280 C281 1.399 . S
C280 H286 0.929 . S
C281 C261 1.449 . S
C281 C280 1.399 . S
C281 H287 0.930 . S
H282 C262 0.931 . S
H283 C263 0.930 . S
H284 C271 0.931 . S
H285 C272 0.929 . S
H286 C280 0.929 . S
H287 C281 0.930 . S
Mn288 O293 2.095 . S
Mn288 O303 2.162 . S
Mn288 O304 2.297 . S
Mn288 O312 2.385 . S
Mn288 O313 2.209 . S
Mn288 O314 2.094 . S
Mn289 O294 2.121 . S
Mn289 N296 2.257 . S
Mn289 N305 2.282 . S
Mn289 O313 2.215 . S
Mn289 O315 2.117 . S
C290 O312 1.234 . S
C290 O313 1.283 . S
C291 O303 1.281 . S
C291 O304 1.236 . S
C292 O314 1.240 . S
C292 O315 1.264 . S
O293 Mn288 2.095 . S
O293 C302 1.250 . S
O294 Mn289 2.121 . S
O294 C302 1.258 . S
C295 N296 1.326 . S
C295 C299 1.460 . S
C295 H301 0.929 . S
N296 Mn289 2.257 . S
N296 C295 1.326 . S
N296 C300 1.362 . S
C297 C298 1.258 . S
C297 C300 1.431 . S
C297 C317 1.449 . S
C298 C297 1.258 . S
C298 C299 1.477 . S
C298 H318 0.931 . S
C299 C295 1.460 . S
C299 C298 1.477 . S
C299 H319 0.930 . S
C300 N296 1.362 . S
C300 C297 1.431 . S
C300 C310 1.476 . S
H301 C295 0.929 . S
C302 O293 1.250 . S
C302 O294 1.258 . S
O303 Mn288 2.162 . S
O303 C291 1.281 . S
O304 Mn288 2.297 . S
O304 C291 1.236 . S
N305 Mn289 2.282 . S
N305 C306 1.328 . S
N305 C310 1.318 . S
C306 N305 1.328 . S
C306 C307 1.457 . S
C306 H311 0.929 . S
C307 C306 1.457 . S
C307 C308 1.291 . S
C307 H320 0.931 . S
C308 C307 1.291 . S
C308 C309 1.373 . S
C308 H321 0.929 . S
C309 C308 1.373 . S
C309 C310 1.396 . S
C309 C316 1.403 . S
C310 C300 1.476 . S
C310 N305 1.318 . S
C310 C309 1.396 . S
H311 C306 0.929 . S
O312 Mn288 2.385 . S
O312 C290 1.234 . S
O313 Mn288 2.209 . S
O313 Mn289 2.215 . S
O313 C290 1.283 . S
O314 Mn288 2.094 . S
O314 C292 1.240 . S
O315 Mn289 2.117 . S
O315 C292 1.264 . S
C316 C309 1.403 . S
C316 C317 1.399 . S
C316 H322 0.929 . S
C317 C297 1.449 . S
C317 C316 1.399 . S
C317 H323 0.930 . S
H318 C298 0.931 . S
H319 C299 0.930 . S
H320 C307 0.931 . S
H321 C308 0.929 . S
H322 C316 0.929 . S
H323 C317 0.930 . S
Mn324 O329 2.095 . S
Mn324 O339 2.162 . S
Mn324 O340 2.297 . S
Mn324 O348 2.385 . S
Mn324 O349 2.209 . S
Mn324 O350 2.094 . S
Mn325 O330 2.121 . S
Mn325 N332 2.257 . S
Mn325 N341 2.282 . S
Mn325 O349 2.215 . S
Mn325 O351 2.117 . S
C326 O348 1.234 . S
C326 O349 1.283 . S
C327 O339 1.281 . S
C327 O340 1.236 . S
C328 O350 1.240 . S
C328 O351 1.264 . S
O329 Mn324 2.095 . S
O329 C338 1.250 . S
O330 Mn325 2.121 . S
O330 C338 1.258 . S
C331 N332 1.326 . S
C331 C335 1.460 . S
C331 H337 0.929 . S
N332 Mn325 2.257 . S
N332 C331 1.326 . S
N332 C336 1.362 . S
C333 C334 1.258 . S
C333 C336 1.431 . S
C333 C353 1.449 . S
C334 C333 1.258 . S
C334 C335 1.477 . S
C334 H354 0.931 . S
C335 C331 1.460 . S
C335 C334 1.477 . S
C335 H355 0.930 . S
C336 N332 1.362 . S
C336 C333 1.431 . S
C336 C346 1.476 . S
H337 C331 0.929 . S
C338 O329 1.250 . S
C338 O330 1.258 . S
O339 Mn324 2.162 . S
O339 C327 1.281 . S
O340 Mn324 2.297 . S
O340 C327 1.236 . S
N341 Mn325 2.282 . S
N341 C342 1.328 . S
N341 C346 1.318 . S
C342 N341 1.328 . S
C342 C343 1.457 . S
C342 H347 0.929 . S
C343 C342 1.457 . S
C343 C344 1.291 . S
C343 H356 0.931 . S
C344 C343 1.291 . S
C344 C345 1.373 . S
C344 H357 0.929 . S
C345 C344 1.373 . S
C345 C346 1.396 . S
C345 C352 1.403 . S
C346 C336 1.476 . S
C346 N341 1.318 . S
C346 C345 1.396 . S
H347 C342 0.929 . S
O348 Mn324 2.385 . S
O348 C326 1.234 . S
O349 Mn324 2.209 . S
O349 Mn325 2.215 . S
O349 C326 1.283 . S
O350 Mn324 2.094 . S
O350 C328 1.240 . S
O351 Mn325 2.117 . S
O351 C328 1.264 . S
C352 C345 1.403 . S
C352 C353 1.399 . S
C352 H358 0.929 . S
C353 C333 1.449 . S
C353 C352 1.399 . S
C353 H359 0.930 . S
H354 C334 0.931 . S
H355 C335 0.930 . S
H356 C343 0.931 . S
H357 C344 0.929 . S
H358 C352 0.929 . S
H359 C353 0.930 . S
Mn360 O365 2.095 . S
Mn360 O375 2.162 . S
Mn360 O376 2.297 . S
Mn360 O384 2.385 . S
Mn360 O385 2.209 . S
Mn360 O386 2.094 . S
Mn361 O366 2.121 . S
Mn361 N368 2.257 1_545 S
Mn361 N377 2.282 1_545 S
Mn361 O385 2.215 . S
Mn361 O387 2.117 . S
C362 O384 1.234 . S
C362 O385 1.283 . S
C363 O375 1.281 . S
C363 O376 1.236 . S
C364 O386 1.240 . S
C364 O387 1.264 . S
O365 Mn360 2.095 . S
O365 C374 1.250 . S
O366 Mn361 2.121 . S
O366 C374 1.258 . S
C367 N368 1.326 . S
C367 C371 1.460 . S
C367 H373 0.929 . S
N368 Mn361 2.257 1_565 S
N368 C367 1.326 . S
N368 C372 1.362 . S
C369 C370 1.258 . S
C369 C372 1.431 . S
C369 C389 1.449 . S
C370 C369 1.258 . S
C370 C371 1.477 . S
C370 H390 0.931 . S
C371 C367 1.460 . S
C371 C370 1.477 . S
C371 H391 0.930 . S
C372 N368 1.362 . S
C372 C369 1.431 . S
C372 C382 1.476 . S
H373 C367 0.929 . S
C374 O365 1.250 . S
C374 O366 1.258 . S
O375 Mn360 2.162 . S
O375 C363 1.281 . S
O376 Mn360 2.297 . S
O376 C363 1.236 . S
N377 Mn361 2.282 1_565 S
N377 C378 1.328 1_565 S
N377 C382 1.318 . S
C378 N377 1.328 1_545 S
C378 C379 1.457 1_545 S
C378 H383 0.929 . S
C379 C378 1.457 1_565 S
C379 C380 1.291 . S
C379 H392 0.931 . S
C380 C379 1.291 . S
C380 C381 1.373 . S
C380 H393 0.929 . S
C381 C380 1.373 . S
C381 C382 1.396 . S
C381 C388 1.403 . S
C382 C372 1.476 . S
C382 N377 1.318 . S
C382 C381 1.396 . S
H383 C378 0.929 . S
O384 Mn360 2.385 . S
O384 C362 1.234 . S
O385 Mn360 2.209 . S
O385 Mn361 2.215 . S
O385 C362 1.283 . S
O386 Mn360 2.094 . S
O386 C364 1.240 . S
O387 Mn361 2.117 . S
O387 C364 1.264 . S
C388 C381 1.403 . S
C388 C389 1.399 . S
C388 H394 0.929 . S
C389 C369 1.449 . S
C389 C388 1.399 . S
C389 H395 0.930 . S
H390 C370 0.931 . S
H391 C371 0.930 . S
H392 C379 0.931 . S
H393 C380 0.929 . S
H394 C388 0.929 . S
H395 C389 0.930 . S
Mn396 O401 2.095 . S
Mn396 O411 2.162 . S
Mn396 O412 2.297 . S
Mn396 O420 2.385 . S
Mn396 O421 2.209 . S
Mn396 O422 2.094 . S
Mn397 O402 2.121 . S
Mn397 N404 2.254 1_655 S
Mn397 N413 2.282 1_655 S
Mn397 O421 2.216 . S
Mn397 O423 2.120 . S
C398 O420 1.234 . S
C398 O421 1.283 . S
C399 O411 1.281 . S
C399 O412 1.236 . S
C400 O422 1.240 . S
C400 O423 1.264 . S
O401 Mn396 2.095 . S
O401 C410 1.250 . S
O402 Mn397 2.121 . S
O402 C410 1.258 . S
C403 N404 1.326 . S
C403 C407 1.460 . S
C403 H409 0.929 . S
N404 Mn397 2.254 1_455 S
N404 C403 1.326 . S
N404 C408 1.362 . S
C405 C406 1.258 . S
C405 C408 1.431 . S
C405 C425 1.449 . S
C406 C405 1.258 . S
C406 C407 1.477 . S
C406 H426 0.931 . S
C407 C403 1.460 . S
C407 C406 1.477 . S
C407 H427 0.930 . S
C408 N404 1.362 . S
C408 C405 1.431 . S
C408 C418 1.476 . S
H409 C403 0.929 . S
C410 O401 1.250 . S
C410 O402 1.258 . S
O411 Mn396 2.162 . S
O411 C399 1.281 . S
O412 Mn396 2.297 . S
O412 C399 1.236 . S
N413 Mn397 2.282 1_455 S
N413 C414 1.328 . S
N413 C418 1.318 . S
C414 N413 1.328 . S
C414 C415 1.457 . S
C414 H419 0.929 1_455 S
C415 C414 1.457 . S
C415 C416 1.291 . S
C415 H428 0.931 . S
C416 C415 1.291 . S
C416 C417 1.373 . S
C416 H429 0.929 . S
C417 C416 1.373 . S
C417 C418 1.396 . S
C417 C424 1.403 . S
C418 C408 1.476 . S
C418 N413 1.318 . S
C418 C417 1.396 . S
H419 C414 0.929 1_655 S
O420 Mn396 2.385 . S
O420 C398 1.234 . S
O421 Mn396 2.209 . S
O421 Mn397 2.216 . S
O421 C398 1.283 . S
O422 Mn396 2.094 . S
O422 C400 1.240 . S
O423 Mn397 2.120 . S
O423 C400 1.264 . S
C424 C417 1.403 . S
C424 C425 1.399 . S
C424 H430 0.929 . S
C425 C405 1.449 . S
C425 C424 1.399 . S
C425 H431 0.930 . S
H426 C406 0.931 . S
H427 C407 0.930 . S
H428 C415 0.931 . S
H429 C416 0.929 . S
H430 C424 0.929 . S
H431 C425 0.930 . S
Mn432 O437 2.095 . S
Mn432 O447 2.162 . S
Mn432 O448 2.297 . S
Mn432 O456 2.385 . S
Mn432 O457 2.209 . S
Mn432 O458 2.094 . S
Mn433 O438 2.121 . S
Mn433 N440 2.257 . S
Mn433 N449 2.282 . S
Mn433 O457 2.215 . S
Mn433 O459 2.117 . S
C434 O456 1.234 . S
C434 O457 1.283 . S
C435 O447 1.281 . S
C435 O448 1.236 . S
C436 O458 1.240 . S
C436 O459 1.264 . S
O437 Mn432 2.095 . S
O437 C446 1.250 . S
O438 Mn433 2.121 . S
O438 C446 1.258 . S
C439 N440 1.326 . S
C439 C443 1.460 . S
C439 H445 0.929 . S
N440 Mn433 2.257 . S
N440 C439 1.326 . S
N440 C444 1.362 . S
C441 C442 1.258 . S
C441 C444 1.431 . S
C441 C461 1.449 . S
C442 C441 1.258 . S
C442 C443 1.477 . S
C442 H462 0.931 . S
C443 C439 1.460 . S
C443 C442 1.477 . S
C443 H463 0.930 . S
C444 N440 1.362 . S
C444 C441 1.431 . S
C444 C454 1.476 . S
H445 C439 0.929 . S
C446 O437 1.250 . S
C446 O438 1.258 . S
O447 Mn432 2.162 . S
O447 C435 1.281 . S
O448 Mn432 2.297 . S
O448 C435 1.236 . S
N449 Mn433 2.282 . S
N449 C450 1.328 . S
N449 C454 1.318 . S
C450 N449 1.328 . S
C450 C451 1.457 . S
C450 H455 0.929 . S
C451 C450 1.457 . S
C451 C452 1.291 . S
C451 H464 0.931 . S
C452 C451 1.291 . S
C452 C453 1.373 . S
C452 H465 0.929 . S
C453 C452 1.373 . S
C453 C454 1.396 . S
C453 C460 1.403 . S
C454 C444 1.476 . S
C454 N449 1.318 . S
C454 C453 1.396 . S
H455 C450 0.929 . S
O456 Mn432 2.385 . S
O456 C434 1.234 . S
O457 Mn432 2.209 . S
O457 Mn433 2.215 . S
O457 C434 1.283 . S
O458 Mn432 2.094 . S
O458 C436 1.240 . S
O459 Mn433 2.117 . S
O459 C436 1.264 . S
C460 C453 1.403 . S
C460 C461 1.399 . S
C460 H466 0.929 . S
C461 C441 1.449 . S
C461 C460 1.399 . S
C461 H467 0.930 . S
H462 C442 0.931 . S
H463 C443 0.930 . S
H464 C451 0.931 . S
H465 C452 0.929 . S
H466 C460 0.929 . S
H467 C461 0.930 . S
Mn468 O473 2.095 . S
Mn468 O483 2.162 . S
Mn468 O484 2.297 . S
Mn468 O492 2.385 . S
Mn468 O493 2.209 . S
Mn468 O494 2.094 . S
Mn469 O474 2.121 . S
Mn469 N476 2.257 . S
Mn469 N485 2.282 . S
Mn469 O493 2.215 . S
Mn469 O495 2.117 . S
C470 O492 1.234 . S
C470 O493 1.283 . S
C471 O483 1.281 . S
C471 O484 1.236 . S
C472 O494 1.240 . S
C472 O495 1.264 . S
O473 Mn468 2.095 . S
O473 C482 1.250 . S
O474 Mn469 2.121 . S
O474 C482 1.258 . S
C475 N476 1.326 . S
C475 C479 1.460 . S
C475 H481 0.929 . S
N476 Mn469 2.257 . S
N476 C475 1.326 . S
N476 C480 1.362 . S
C477 C478 1.258 . S
C477 C480 1.431 . S
C477 C497 1.449 . S
C478 C477 1.258 . S
C478 C479 1.477 . S
C478 H498 0.931 . S
C479 C475 1.460 . S
C479 C478 1.477 . S
C479 H499 0.930 . S
C480 N476 1.362 . S
C480 C477 1.431 . S
C480 C490 1.476 . S
H481 C475 0.929 . S
C482 O473 1.250 . S
C482 O474 1.258 . S
O483 Mn468 2.162 . S
O483 C471 1.281 . S
O484 Mn468 2.297 . S
O484 C471 1.236 . S
N485 Mn469 2.282 . S
N485 C486 1.328 . S
N485 C490 1.318 . S
C486 N485 1.328 . S
C486 C487 1.457 . S
C486 H491 0.929 . S
C487 C486 1.457 . S
C487 C488 1.291 . S
C487 H500 0.931 . S
C488 C487 1.291 . S
C488 C489 1.373 . S
C488 H501 0.929 . S
C489 C488 1.373 . S
C489 C490 1.396 . S
C489 C496 1.403 . S
C490 C480 1.476 . S
C490 N485 1.318 . S
C490 C489 1.396 . S
H491 C486 0.929 . S
O492 Mn468 2.385 . S
O492 C470 1.234 . S
O493 Mn468 2.209 . S
O493 Mn469 2.215 . S
O493 C470 1.283 . S
O494 Mn468 2.094 . S
O494 C472 1.240 . S
O495 Mn469 2.117 . S
O495 C472 1.264 . S
C496 C489 1.403 . S
C496 C497 1.399 . S
C496 H502 0.929 . S
C497 C477 1.449 . S
C497 C496 1.399 . S
C497 H503 0.930 . S
H498 C478 0.931 . S
H499 C479 0.930 . S
H500 C487 0.931 . S
H501 C488 0.929 . S
H502 C496 0.929 . S
H503 C497 0.930 . S
Mn504 O509 2.095 . S
Mn504 O519 2.162 . S
Mn504 O520 2.297 . S
Mn504 O528 2.385 . S
Mn504 O529 2.209 . S
Mn504 O530 2.094 . S
Mn505 O510 2.121 . S
Mn505 N512 2.257 1_455 S
Mn505 N521 2.282 . S
Mn505 O529 2.215 . S
Mn505 O531 2.117 . S
C506 O528 1.234 . S
C506 O529 1.283 . S
C507 O519 1.281 . S
C507 O520 1.236 . S
C508 O530 1.240 . S
C508 O531 1.264 . S
O509 Mn504 2.095 . S
O509 C518 1.250 . S
O510 Mn505 2.121 . S
O510 C518 1.258 . S
C511 N512 1.326 . S
C511 C515 1.460 . S
C511 H517 0.929 . S
N512 Mn505 2.257 1_655 S
N512 C511 1.326 . S
N512 C516 1.362 . S
C513 C514 1.258 . S
C513 C516 1.431 . S
C513 C533 1.449 . S
C514 C513 1.258 . S
C514 C515 1.477 . S
C514 H534 0.931 . S
C515 C511 1.460 . S
C515 C514 1.477 . S
C515 H535 0.930 . S
C516 N512 1.362 . S
C516 C513 1.431 . S
C516 C526 1.476 . S
H517 C511 0.929 . S
C518 O509 1.250 . S
C518 O510 1.258 . S
O519 Mn504 2.162 . S
O519 C507 1.281 . S
O520 Mn504 2.297 . S
O520 C507 1.236 . S
N521 Mn505 2.282 . S
N521 C522 1.328 . S
N521 C526 1.318 1_455 S
C522 N521 1.328 . S
C522 C523 1.457 1_455 S
C522 H527 0.929 . S
C523 C522 1.457 1_655 S
C523 C524 1.291 . S
C523 H536 0.931 1_655 S
C524 C523 1.291 . S
C524 C525 1.373 . S
C524 H537 0.929 . S
C525 C524 1.373 . S
C525 C526 1.396 . S
C525 C532 1.403 . S
C526 C516 1.476 . S
C526 N521 1.318 1_655 S
C526 C525 1.396 . S
H527 C522 0.929 . S
O528 Mn504 2.385 . S
O528 C506 1.234 . S
O529 Mn504 2.209 . S
O529 Mn505 2.215 . S
O529 C506 1.283 . S
O530 Mn504 2.094 . S
O530 C508 1.240 . S
O531 Mn505 2.117 . S
O531 C508 1.264 . S
C532 C525 1.403 . S
C532 C533 1.399 . S
C532 H538 0.929 . S
C533 C513 1.449 . S
C533 C532 1.399 . S
C533 H539 0.930 . S
H534 C514 0.931 . S
H535 C515 0.930 . S
H536 C523 0.931 1_455 S
H537 C524 0.929 . S
H538 C532 0.929 . S
H539 C533 0.930 . S
Mn540 O545 2.095 . S
Mn540 O555 2.162 . S
Mn540 O556 2.297 . S
Mn540 O564 2.385 . S
Mn540 O565 2.209 . S
Mn540 O566 2.094 . S
Mn541 O546 2.121 . S
Mn541 N548 2.257 . S
Mn541 N557 2.282 . S
Mn541 O565 2.215 . S
Mn541 O567 2.117 . S
C542 O564 1.234 . S
C542 O565 1.283 . S
C543 O555 1.281 . S
C543 O556 1.236 . S
C544 O566 1.240 . S
C544 O567 1.264 . S
O545 Mn540 2.095 . S
O545 C554 1.250 . S
O546 Mn541 2.121 . S
O546 C554 1.258 . S
C547 N548 1.326 1_545 S
C547 C551 1.460 . S
C547 H553 0.929 . S
N548 Mn541 2.257 . S
N548 C547 1.326 1_565 S
N548 C552 1.362 . S
C549 C550 1.258 . S
C549 C552 1.431 1_545 S
C549 C569 1.449 . S
C550 C549 1.258 . S
C550 C551 1.477 . S
C550 H570 0.931 . S
C551 C547 1.460 . S
C551 C550 1.477 . S
C551 H571 0.930 . S
C552 N548 1.362 . S
C552 C549 1.431 1_565 S
C552 C562 1.476 . S
H553 C547 0.929 . S
C554 O545 1.250 . S
C554 O546 1.258 . S
O555 Mn540 2.162 . S
O555 C543 1.281 . S
O556 Mn540 2.297 . S
O556 C543 1.236 . S
N557 Mn541 2.282 . S
N557 C558 1.328 . S
N557 C562 1.318 . S
C558 N557 1.328 . S
C558 C559 1.457 . S
C558 H563 0.929 . S
C559 C558 1.457 . S
C559 C560 1.291 . S
C559 H572 0.931 . S
C560 C559 1.291 . S
C560 C561 1.373 . S
C560 H573 0.929 . S
C561 C560 1.373 . S
C561 C562 1.396 . S
C561 C568 1.403 . S
C562 C552 1.476 . S
C562 N557 1.318 . S
C562 C561 1.396 . S
H563 C558 0.929 . S
O564 Mn540 2.385 . S
O564 C542 1.234 . S
O565 Mn540 2.209 . S
O565 Mn541 2.215 . S
O565 C542 1.283 . S
O566 Mn540 2.094 . S
O566 C544 1.240 . S
O567 Mn541 2.117 . S
O567 C544 1.264 . S
C568 C561 1.403 . S
C568 C569 1.399 1_565 S
C568 H574 0.929 . S
C569 C549 1.449 . S
C569 C568 1.399 1_545 S
C569 H575 0.930 . S
H570 C550 0.931 . S
H571 C551 0.930 . S
H572 C559 0.931 . S
H573 C560 0.929 . S
H574 C568 0.929 . S
H575 C569 0.930 . S
Mn576 O581 2.095 . S
Mn576 O591 2.162 . S
Mn576 O592 2.297 . S
Mn576 O600 2.385 . S
Mn576 O601 2.209 . S
Mn576 O602 2.094 . S
Mn577 O582 2.121 . S
Mn577 N584 2.257 1_455 S
Mn577 N593 2.282 1_455 S
Mn577 O601 2.215 . S
Mn577 O603 2.117 . S
C578 O600 1.234 . S
C578 O601 1.283 . S
C579 O591 1.281 . S
C579 O592 1.236 . S
C580 O602 1.240 . S
C580 O603 1.264 . S
O581 Mn576 2.095 . S
O581 C590 1.250 . S
O582 Mn577 2.121 . S
O582 C590 1.258 . S
C583 N584 1.326 . S
C583 C587 1.460 . S
C583 H589 0.929 . S
N584 Mn577 2.257 1_655 S
N584 C583 1.326 . S
N584 C588 1.362 . S
C585 C586 1.258 . S
C585 C588 1.431 . S
C585 C605 1.449 . S
C586 C585 1.258 . S
C586 C587 1.477 . S
C586 H606 0.931 . S
C587 C583 1.460 . S
C587 C586 1.477 . S
C587 H607 0.930 . S
C588 N584 1.362 . S
C588 C585 1.431 . S
C588 C598 1.476 . S
H589 C583 0.929 . S
C590 O581 1.250 . S
C590 O582 1.258 . S
O591 Mn576 2.162 . S
O591 C579 1.281 . S
O592 Mn576 2.297 . S
O592 C579 1.236 . S
N593 Mn577 2.282 1_655 S
N593 C594 1.328 1_655 S
N593 C598 1.318 . S
C594 N593 1.328 1_455 S
C594 C595 1.457 1_455 S
C594 H599 0.929 . S
C595 C594 1.457 1_655 S
C595 C596 1.291 . S
C595 H608 0.928 . S
C596 C595 1.291 . S
C596 C597 1.373 . S
C596 H609 0.929 . S
C597 C596 1.373 . S
C597 C598 1.396 . S
C597 C604 1.403 . S
C598 C588 1.476 . S
C598 N593 1.318 . S
C598 C597 1.396 . S
H599 C594 0.929 . S
O600 Mn576 2.385 . S
O600 C578 1.234 . S
O601 Mn576 2.209 . S
O601 Mn577 2.215 . S
O601 C578 1.283 . S
O602 Mn576 2.094 . S
O602 C580 1.240 . S
O603 Mn577 2.117 . S
O603 C580 1.264 . S
C604 C597 1.403 . S
C604 C605 1.399 . S
C604 H610 0.929 . S
C605 C585 1.449 . S
C605 C604 1.399 . S
C605 H611 0.930 . S
H606 C586 0.931 . S
H607 C587 0.930 . S
H608 C595 0.928 . S
H609 C596 0.929 . S
H610 C604 0.929 . S
H611 C605 0.930 . S
Mn612 O617 2.095 . S
Mn612 O627 2.162 . S
Mn612 O628 2.297 . S
Mn612 O636 2.385 . S
Mn612 O637 2.209 . S
Mn612 O638 2.094 . S
Mn613 O618 2.121 . S
Mn613 N620 2.257 . S
Mn613 N629 2.282 . S
Mn613 O637 2.215 . S
Mn613 O639 2.117 . S
C614 O636 1.234 . S
C614 O637 1.283 . S
C615 O627 1.281 . S
C615 O628 1.236 . S
C616 O638 1.240 . S
C616 O639 1.264 . S
O617 Mn612 2.095 . S
O617 C626 1.250 . S
O618 Mn613 2.121 . S
O618 C626 1.258 . S
C619 N620 1.326 . S
C619 C623 1.460 . S
C619 H625 0.929 . S
N620 Mn613 2.257 . S
N620 C619 1.326 . S
N620 C624 1.362 . S
C621 C622 1.258 . S
C621 C624 1.431 . S
C621 C641 1.449 . S
C622 C621 1.258 . S
C622 C623 1.477 . S
C622 H642 0.931 . S
C623 C619 1.460 . S
C623 C622 1.477 . S
C623 H643 0.930 . S
C624 N620 1.362 . S
C624 C621 1.431 . S
C624 C634 1.476 . S
H625 C619 0.929 . S
C626 O617 1.250 . S
C626 O618 1.258 . S
O627 Mn612 2.162 . S
O627 C615 1.281 . S
O628 Mn612 2.297 . S
O628 C615 1.236 . S
N629 Mn613 2.282 . S
N629 C630 1.328 . S
N629 C634 1.318 . S
C630 N629 1.328 . S
C630 C631 1.457 . S
C630 H635 0.929 . S
C631 C630 1.457 . S
C631 C632 1.291 . S
C631 H644 0.931 . S
C632 C631 1.291 . S
C632 C633 1.373 . S
C632 H645 0.929 . S
C633 C632 1.373 . S
C633 C634 1.396 . S
C633 C640 1.403 . S
C634 C624 1.476 . S
C634 N629 1.318 . S
C634 C633 1.396 . S
H635 C630 0.929 . S
O636 Mn612 2.385 . S
O636 C614 1.234 . S
O637 Mn612 2.209 . S
O637 Mn613 2.215 . S
O637 C614 1.283 . S
O638 Mn612 2.094 . S
O638 C616 1.240 . S
O639 Mn613 2.117 . S
O639 C616 1.264 . S
C640 C633 1.403 . S
C640 C641 1.399 . S
C640 H646 0.929 . S
C641 C621 1.449 . S
C641 C640 1.399 . S
C641 H647 0.930 . S
H642 C622 0.931 . S
H643 C623 0.930 . S
H644 C631 0.931 . S
H645 C632 0.929 . S
H646 C640 0.929 . S
H647 C641 0.930 . S
H648 C654 0.930 1_655 S
H649 C658 0.930 . S
H650 C663 0.929 . S
H651 C661 0.929 1_556 S
H652 C656 0.929 . S
H653 C662 0.929 . S
C654 H648 0.930 1_455 S
C654 C655 1.367 . S
C654 C662 1.378 . S
C655 C654 1.367 . S
C655 C663 1.433 . S
C656 H652 0.929 . S
C656 C658 1.378 . S
C656 C660 1.350 . S
C657 C660 1.463 . S
C657 C662 1.350 . S
C657 N665 1.427 . S
C658 H649 0.930 . S
C658 C656 1.378 . S
C658 C659 1.367 1_554 S
C659 C658 1.367 1_556 S
C659 C661 1.433 1_556 S
C660 C656 1.350 . S
C660 C657 1.463 . S
C660 N664 1.427 . S
C661 H651 0.929 1_554 S
C661 C659 1.433 1_554 S
C661 N664 1.384 . S
C662 H653 0.929 . S
C662 C654 1.378 . S
C662 C657 1.350 . S
C663 H650 0.929 . S
C663 C655 1.433 . S
C663 N665 1.384 . S
N664 C660 1.427 . S
N664 C661 1.384 . S
N665 C657 1.427 . S
N665 C663 1.384 . S
H666 C672 0.930 1_556 S
H667 C676 0.930 . S
H668 C681 0.929 . S
H669 C679 0.929 . S
H670 C674 0.929 . S
H671 C680 0.929 . S
C672 H666 0.930 1_554 S
C672 C673 1.367 . S
C672 C680 1.378 . S
C673 C672 1.367 . S
C673 C681 1.433 . S
C674 H670 0.929 . S
C674 C676 1.378 . S
C674 C678 1.350 . S
C675 C678 1.463 . S
C675 C680 1.350 . S
C675 N683 1.427 . S
C676 H667 0.930 . S
C676 C674 1.378 . S
C676 C677 1.367 . S
C677 C676 1.367 . S
C677 C679 1.433 . S
C678 C674 1.350 . S
C678 C675 1.463 . S
C678 N682 1.427 . S
C679 H669 0.929 . S
C679 C677 1.433 . S
C679 N682 1.384 . S
C680 H671 0.929 . S
C680 C672 1.378 . S
C680 C675 1.350 . S
C681 H668 0.929 . S
C681 C673 1.433 . S
C681 N683 1.384 . S
N682 C678 1.427 . S
N682 C679 1.384 . S
N683 C675 1.427 . S
N683 C681 1.384 . S
H684 C690 0.930 . S
H685 C694 0.930 1_556 S
H686 C699 0.929 . S
H687 C697 0.929 . S
H688 C692 0.929 . S
H689 C698 0.929 . S
C690 H684 0.930 . S
C690 C691 1.367 . S
C690 C698 1.378 . S
C691 C690 1.367 . S
C691 C699 1.433 1_565 S
C692 H688 0.929 . S
C692 C694 1.378 . S
C692 C696 1.350 . S
C693 C696 1.463 . S
C693 C698 1.350 . S
C693 N701 1.427 . S
C694 H685 0.930 1_554 S
C694 C692 1.378 . S
C694 C695 1.367 . S
C695 C694 1.367 . S
C695 C697 1.433 . S
C696 C692 1.350 . S
C696 C693 1.463 . S
C696 N700 1.427 . S
C697 H687 0.929 . S
C697 C695 1.433 . S
C697 N700 1.384 . S
C698 H689 0.929 . S
C698 C690 1.378 . S
C698 C693 1.350 . S
C699 H686 0.929 . S
C699 C691 1.433 1_545 S
C699 N701 1.384 1_545 S
N700 C696 1.427 . S
N700 C697 1.384 . S
N701 C693 1.427 . S
N701 C699 1.384 1_565 S
H702 C708 0.930 . S
H703 C712 0.930 . S
H704 C717 0.929 . S
H705 C715 0.929 1_565 S
H706 C710 0.929 . S
H707 C716 0.929 . S
C708 H702 0.930 . S
C708 C709 1.367 . S
C708 C716 1.378 . S
C709 C708 1.367 . S
C709 C717 1.433 . S
C710 H706 0.929 . S
C710 C712 1.378 . S
C710 C714 1.350 . S
C711 C714 1.463 . S
C711 C716 1.350 . S
C711 N719 1.427 . S
C712 H703 0.930 . S
C712 C710 1.378 . S
C712 C713 1.367 . S
C713 C712 1.367 . S
C713 C715 1.433 . S
C714 C710 1.350 . S
C714 C711 1.463 . S
C714 N718 1.427 . S
C715 H705 0.929 1_545 S
C715 C713 1.433 . S
C715 N718 1.384 . S
C716 H707 0.929 . S
C716 C708 1.378 . S
C716 C711 1.350 . S
C717 H704 0.929 . S
C717 C709 1.433 . S
C717 N719 1.384 . S
N718 C714 1.427 . S
N718 C715 1.384 . S
N719 C711 1.427 . S
N719 C717 1.384 . S
H720 C726 0.930 . S
H721 C730 0.930 . S
H722 C735 0.929 . S
H723 C733 0.929 . S
H724 C728 0.929 . S
H725 C734 0.929 . S
C726 H720 0.930 . S
C726 C727 1.367 . S
C726 C734 1.378 . S
C727 C726 1.367 . S
C727 C735 1.433 . S
C728 H724 0.929 . S
C728 C730 1.378 . S
C728 C732 1.350 . S
C729 C732 1.463 . S
C729 C734 1.350 . S
C729 N737 1.427 . S
C730 H721 0.930 . S
C730 C728 1.378 . S
C730 C731 1.367 . S
C731 C730 1.367 . S
C731 C733 1.433 . S
C732 C728 1.350 . S
C732 C729 1.463 . S
C732 N736 1.427 . S
C733 H723 0.929 . S
C733 C731 1.433 . S
C733 N736 1.384 . S
C734 H725 0.929 . S
C734 C726 1.378 . S
C734 C729 1.350 . S
C735 H722 0.929 . S
C735 C727 1.433 . S
C735 N737 1.384 . S
N736 C732 1.427 . S
N736 C733 1.384 . S
N737 C729 1.427 . S
N737 C735 1.384 . S
H738 C744 0.930 . S
H739 C748 0.930 . S
H740 C753 0.929 . S
H741 C751 0.929 . S
H742 C746 0.929 . S
H743 C752 0.929 . S
C744 H738 0.930 . S
C744 C745 1.367 . S
C744 C752 1.378 . S
C745 C744 1.367 . S
C745 C753 1.433 . S
C746 H742 0.929 . S
C746 C748 1.378 . S
C746 C750 1.350 . S
C747 C750 1.463 . S
C747 C752 1.350 . S
C747 N755 1.427 . S
C748 H739 0.930 . S
C748 C746 1.378 . S
C748 C749 1.367 . S
C749 C748 1.367 . S
C749 C751 1.433 . S
C750 C746 1.350 . S
C750 C747 1.463 . S
C750 N754 1.427 . S
C751 H741 0.929 . S
C751 C749 1.433 . S
C751 N754 1.384 . S
C752 H743 0.929 . S
C752 C744 1.378 . S
C752 C747 1.350 . S
C753 H740 0.929 . S
C753 C745 1.433 . S
C753 N755 1.384 . S
N754 C750 1.427 . S
N754 C751 1.384 . S
N755 C747 1.427 . S
N755 C753 1.384 . S
H756 C762 0.930 . S
H757 C766 0.930 1_455 S
H758 C771 0.929 . S
H759 C769 0.929 . S
H760 C764 0.929 1_455 S
H761 C770 0.929 . S
C762 H756 0.930 . S
C762 C763 1.367 . S
C762 C770 1.378 . S
C763 C762 1.367 . S
C763 C771 1.433 1_655 S
C764 H760 0.929 1_655 S
C764 C766 1.378 . S
C764 C768 1.350 . S
C765 C768 1.463 . S
C765 C770 1.350 . S
C765 N773 1.427 1_655 S
C766 H757 0.930 1_655 S
C766 C764 1.378 . S
C766 C767 1.367 . S
C767 C766 1.367 . S
C767 C769 1.433 . S
C768 C764 1.350 . S
C768 C765 1.463 . S
C768 N772 1.427 . S
C769 H759 0.929 . S
C769 C767 1.433 . S
C769 N772 1.384 . S
C770 H761 0.929 . S
C770 C762 1.378 . S
C770 C765 1.350 . S
C771 H758 0.929 . S
C771 C763 1.433 1_455 S
C771 N773 1.384 . S
N772 C768 1.427 . S
N772 C769 1.384 . S
N773 C765 1.427 1_455 S
N773 C771 1.384 . S
H774 C780 0.930 1_554 S
H775 C784 0.930 . S
H776 C789 0.929 . S
H777 C787 0.929 . S
H778 C782 0.929 . S
H779 C788 0.929 . S
C780 H774 0.930 1_556 S
C780 C781 1.368 . S
C780 C788 1.378 . S
C781 C780 1.368 . S
C781 C789 1.437 . S
C782 H778 0.929 . S
C782 C784 1.378 . S
C782 C786 1.350 . S
C783 C786 1.463 . S
C783 C788 1.350 . S
C783 N791 1.427 . S
C784 H775 0.930 . S
C784 C782 1.378 . S
C784 C785 1.367 . S
C785 C784 1.367 . S
C785 C787 1.433 . S
C786 C782 1.350 . S
C786 C783 1.463 . S
C786 N790 1.427 . S
C787 H777 0.929 . S
C787 C785 1.433 . S
C787 N790 1.384 . S
C788 H779 0.929 . S
C788 C780 1.378 . S
C788 C783 1.350 . S
C789 H776 0.929 . S
C789 C781 1.437 . S
C789 N791 1.384 . S
N790 C786 1.427 . S
N790 C787 1.384 . S
N791 C783 1.427 . S
N791 C789 1.384 . S
H792 C798 0.930 . S
H793 C802 0.930 1_565 S
H794 C807 0.929 1_554 S
H795 C805 0.929 . S
H796 C800 0.929 . S
H797 C806 0.929 . S
C798 H792 0.930 . S
C798 C799 1.367 . S
C798 C806 1.378 . S
C799 C798 1.367 . S
C799 C807 1.433 . S
C800 H796 0.929 . S
C800 C802 1.378 . S
C800 C804 1.350 . S
C801 C804 1.463 . S
C801 C806 1.350 . S
C801 N809 1.427 . S
C802 H793 0.930 1_545 S
C802 C800 1.378 . S
C802 C803 1.367 . S
C803 C802 1.367 . S
C803 C805 1.433 . S
C804 C800 1.350 . S
C804 C801 1.463 . S
C804 N808 1.427 . S
C805 H795 0.929 . S
C805 C803 1.433 . S
C805 N808 1.384 . S
C806 H797 0.929 . S
C806 C798 1.378 . S
C806 C801 1.350 . S
C807 H794 0.929 1_556 S
C807 C799 1.433 . S
C807 N809 1.384 . S
N808 C804 1.427 . S
N808 C805 1.384 . S
N809 C801 1.427 . S
N809 C807 1.384 . S
H810 C816 0.930 . S
H811 C820 0.930 . S
H812 C825 0.929 . S
H813 C823 0.929 . S
H814 C818 0.929 . S
H815 C824 0.929 . S
C816 H810 0.930 . S
C816 C817 1.367 . S
C816 C824 1.378 . S
C817 C816 1.367 . S
C817 C825 1.433 . S
C818 H814 0.929 . S
C818 C820 1.378 . S
C818 C822 1.350 . S
C819 C822 1.463 . S
C819 C824 1.350 . S
C819 N827 1.427 . S
C820 H811 0.930 . S
C820 C818 1.378 . S
C820 C821 1.367 . S
C821 C820 1.367 . S
C821 C823 1.433 . S
C822 C818 1.350 . S
C822 C819 1.463 . S
C822 N826 1.427 . S
C823 H813 0.929 . S
C823 C821 1.433 . S
C823 N826 1.384 . S
C824 H815 0.929 . S
C824 C816 1.378 . S
C824 C819 1.350 . S
C825 H812 0.929 . S
C825 C817 1.433 . S
C825 N827 1.384 . S
N826 C822 1.427 . S
N826 C823 1.384 . S
N827 C819 1.427 . S
N827 C825 1.384 . S
H828 C834 0.930 1_655 S
H829 C838 0.930 . S
H830 C843 0.929 . S
H831 C841 0.929 . S
H832 C836 0.929 . S
H833 C842 0.929 . S
C834 H828 0.930 1_455 S
C834 C835 1.367 . S
C834 C842 1.378 . S
C835 C834 1.367 . S
C835 C843 1.433 . S
C836 H832 0.929 . S
C836 C838 1.378 . S
C836 C840 1.350 . S
C837 C840 1.463 . S
C837 C842 1.350 . S
C837 N845 1.427 . S
C838 H829 0.930 . S
C838 C836 1.378 . S
C838 C839 1.367 . S
C839 C838 1.367 . S
C839 C841 1.433 . S
C840 C836 1.350 . S
C840 C837 1.463 . S
C840 N844 1.427 . S
C841 H831 0.929 . S
C841 C839 1.433 . S
C841 N844 1.384 . S
C842 H833 0.929 . S
C842 C834 1.378 . S
C842 C837 1.350 . S
C843 H830 0.929 . S
C843 C835 1.433 . S
C843 N845 1.384 . S
N844 C840 1.427 . S
N844 C841 1.384 . S
N845 C837 1.427 . S
N845 C843 1.384 . S
H846 C852 0.930 . S
H847 C856 0.930 . S
H848 C861 0.929 . S
H849 C859 0.929 . S
H850 C854 0.929 . S
H851 C860 0.929 . S
C852 H846 0.930 . S
C852 C853 1.367 . S
C852 C860 1.378 . S
C853 C852 1.367 . S
C853 C861 1.433 . S
C854 H850 0.929 . S
C854 C856 1.378 . S
C854 C858 1.350 . S
C855 C858 1.463 . S
C855 C860 1.350 . S
C855 N863 1.427 . S
C856 H847 0.930 . S
C856 C854 1.378 . S
C856 C857 1.367 . S
C857 C856 1.367 . S
C857 C859 1.433 . S
C858 C854 1.350 . S
C858 C855 1.463 . S
C858 N862 1.427 . S
C859 H849 0.929 . S
C859 C857 1.433 . S
C859 N862 1.384 . S
C860 H851 0.929 . S
C860 C852 1.378 . S
C860 C855 1.350 . S
C861 H848 0.929 . S
C861 C853 1.433 . S
C861 N863 1.384 . S
N862 C858 1.427 . S
N862 C859 1.384 . S
N863 C855 1.427 . S
N863 C861 1.384 . S
H864 C870 0.930 . S
H865 C874 0.930 . S
H866 C879 0.929 . S
H867 C877 0.929 . S
H868 C872 0.929 . S
H869 C878 0.929 . S
C870 H864 0.930 . S
C870 C871 1.367 . S
C870 C878 1.378 . S
C871 C870 1.367 . S
C871 C879 1.433 . S
C872 H868 0.929 . S
C872 C874 1.378 . S
C872 C876 1.350 . S
C873 C876 1.463 . S
C873 C878 1.350 . S
C873 N881 1.427 . S
C874 H865 0.930 . S
C874 C872 1.378 . S
C874 C875 1.367 . S
C875 C874 1.367 . S
C875 C877 1.433 . S
C876 C872 1.350 . S
C876 C873 1.463 . S
C876 N880 1.427 . S
C877 H867 0.929 . S
C877 C875 1.433 . S
C877 N880 1.384 . S
C878 H869 0.929 . S
C878 C870 1.378 . S
C878 C873 1.350 . S
C879 H866 0.929 . S
C879 C871 1.433 . S
C879 N881 1.384 . S
N880 C876 1.427 . S
N880 C877 1.384 . S
N881 C873 1.427 . S
N881 C879 1.384 . S
H882 C888 0.930 . S
H883 C892 0.930 . S
H884 C897 0.929 . S
H885 C895 0.929 . S
H886 C890 0.929 . S
H887 C896 0.929 . S
C888 H882 0.930 . S
C888 C889 1.367 . S
C888 C896 1.378 . S
C889 C888 1.367 . S
C889 C897 1.433 . S
C890 H886 0.929 . S
C890 C892 1.378 . S
C890 C894 1.350 1_565 S
C891 C894 1.463 . S
C891 C896 1.350 . S
C891 N899 1.427 . S
C892 H883 0.930 . S
C892 C890 1.378 . S
C892 C893 1.367 . S
C893 C892 1.367 . S
C893 C895 1.433 1_565 S
C894 C890 1.350 1_545 S
C894 C891 1.463 . S
C894 N898 1.427 . S
C895 H885 0.929 . S
C895 C893 1.433 1_545 S
C895 N898 1.384 . S
C896 H887 0.929 . S
C896 C888 1.378 . S
C896 C891 1.350 . S
C897 H884 0.929 . S
C897 C889 1.433 . S
C897 N899 1.384 . S
N898 C894 1.427 . S
N898 C895 1.384 . S
N899 C891 1.427 . S
N899 C897 1.384 . S
H900 C906 0.930 . S
H901 C910 0.930 . S
H902 C915 0.929 . S
H903 C913 0.929 1_455 S
H904 C908 0.929 . S
H905 C914 0.929 . S
C906 H900 0.930 . S
C906 C907 1.367 . S
C906 C914 1.378 . S
C907 C906 1.367 . S
C907 C915 1.433 . S
C908 H904 0.929 . S
C908 C910 1.378 . S
C908 C912 1.350 1_655 S
C909 C912 1.463 . S
C909 C914 1.350 . S
C909 N917 1.427 . S
C910 H901 0.930 . S
C910 C908 1.378 . S
C910 C911 1.367 . S
C911 C910 1.367 . S
C911 C913 1.433 . S
C912 C908 1.350 1_455 S
C912 C909 1.463 . S
C912 N916 1.427 . S
C913 H903 0.929 1_655 S
C913 C911 1.433 . S
C913 N916 1.384 1_655 S
C914 H905 0.929 . S
C914 C906 1.378 . S
C914 C909 1.350 . S
C915 H902 0.929 . S
C915 C907 1.433 . S
C915 N917 1.384 . S
N916 C912 1.427 . S
N916 C913 1.384 1_455 S
N917 C909 1.427 . S
N917 C915 1.384 . S
H918 C924 0.930 . S
H919 C928 0.930 . S
H920 C933 0.929 . S
H921 C931 0.929 . S
H922 C926 0.929 . S
H923 C932 0.929 . S
C924 H918 0.930 . S
C924 C925 1.367 . S
C924 C932 1.378 . S
C925 C924 1.367 . S
C925 C933 1.433 . S
C926 H922 0.929 . S
C926 C928 1.378 . S
C926 C930 1.350 . S
C927 C930 1.463 . S
C927 C932 1.350 . S
C927 N935 1.427 . S
C928 H919 0.930 . S
C928 C926 1.378 . S
C928 C929 1.367 . S
C929 C928 1.367 . S
C929 C931 1.433 . S
C930 C926 1.350 . S
C930 C927 1.463 . S
C930 N934 1.427 . S
C931 H921 0.929 . S
C931 C929 1.433 . S
C931 N934 1.384 . S
C932 H923 0.929 . S
C932 C924 1.378 . S
C932 C927 1.350 . S
C933 H920 0.929 . S
C933 C925 1.433 . S
C933 N935 1.384 . S
N934 C930 1.427 . S
N934 C931 1.384 . S
N935 C927 1.427 . S
N935 C933 1.384 . S
H936 C942 0.930 . S
H937 C946 0.930 . S
H938 C951 0.929 . S
H939 C949 0.929 . S
H940 C944 0.929 . S
H941 C950 0.929 . S
C942 H936 0.930 . S
C942 C943 1.367 . S
C942 C950 1.378 . S
C943 C942 1.367 . S
C943 C951 1.433 . S
C944 H940 0.929 . S
C944 C946 1.378 . S
C944 C948 1.350 1_565 S
C945 C948 1.463 . S
C945 C950 1.350 . S
C945 N953 1.427 . S
C946 H937 0.930 . S
C946 C944 1.378 . S
C946 C947 1.367 . S
C947 C946 1.367 . S
C947 C949 1.433 1_565 S
C948 C944 1.350 1_545 S
C948 C945 1.463 . S
C948 N952 1.427 . S
C949 H939 0.929 . S
C949 C947 1.433 1_545 S
C949 N952 1.384 . S
C950 H941 0.929 . S
C950 C942 1.378 . S
C950 C945 1.350 . S
C951 H938 0.929 . S
C951 C943 1.433 . S
C951 N953 1.384 . S
N952 C948 1.427 . S
N952 C949 1.384 . S
N953 C945 1.427 . S
N953 C951 1.384 . S
H954 C960 0.930 . S
H955 C964 0.930 . S
H956 C969 0.929 . S
H957 C967 0.929 . S
H958 C962 0.929 . S
H959 C968 0.904 1_655 S
C960 H954 0.930 . S
C960 C961 1.367 . S
C960 C968 1.391 . S
C961 C960 1.367 . S
C961 C969 1.433 . S
C962 H958 0.929 . S
C962 C964 1.378 . S
C962 C966 1.350 . S
C963 C966 1.463 . S
C963 C968 1.363 . S
C963 N971 1.427 . S
C964 H955 0.930 . S
C964 C962 1.378 . S
C964 C965 1.367 1_455 S
C965 C964 1.367 1_655 S
C965 C967 1.433 . S
C966 C962 1.350 . S
C966 C963 1.463 . S
C966 N970 1.427 1_455 S
C967 H957 0.929 . S
C967 C965 1.433 . S
C967 N970 1.384 . S
C968 H959 0.904 1_455 S
C968 C960 1.391 . S
C968 C963 1.363 . S
C969 H956 0.929 . S
C969 C961 1.433 . S
C969 N971 1.384 . S
N970 C966 1.427 1_655 S
N970 C967 1.384 . S
N971 C963 1.427 . S
N971 C969 1.384 . S
H972 C978 0.930 . S
H973 C982 0.930 . S
H974 C987 0.929 . S
H975 C985 0.929 . S
H976 C980 0.929 . S
H977 C986 0.929 . S
C978 H972 0.930 . S
C978 C979 1.367 . S
C978 C986 1.378 . S
C979 C978 1.367 . S
C979 C987 1.433 . S
C980 H976 0.929 . S
C980 C982 1.378 . S
C980 C984 1.350 . S
C981 C984 1.463 . S
C981 C986 1.350 . S
C981 N989 1.427 . S
C982 H973 0.930 . S
C982 C980 1.378 . S
C982 C983 1.367 . S
C983 C982 1.367 . S
C983 C985 1.433 . S
C984 C980 1.350 . S
C984 C981 1.463 . S
C984 N988 1.427 . S
C985 H975 0.929 . S
C985 C983 1.433 . S
C985 N988 1.384 . S
C986 H977 0.929 . S
C986 C978 1.378 . S
C986 C981 1.350 . S
C987 H974 0.929 . S
C987 C979 1.433 . S
C987 N989 1.384 . S
N988 C984 1.427 . S
N988 C985 1.384 . S
N989 C981 1.427 . S
N989 C987 1.384 . S
H990 C996 0.930 . S
H991 C1000 0.930 . S
H992 C1005 0.929 . S
H993 C1003 0.929 . S
H994 C998 0.929 . S
H995 C1004 0.929 . S
C996 H990 0.930 . S
C996 C997 1.367 . S
C996 C1004 1.378 . S
C997 C996 1.367 . S
C997 C1005 1.433 . S
C998 H994 0.929 . S
C998 C1000 1.378 . S
C998 C1002 1.350 . S
C999 C1002 1.463 . S
C999 C1004 1.350 . S
C999 N1007 1.427 . S
C1000 H991 0.930 . S
C1000 C998 1.378 . S
C1000 C1001 1.367 . S
C1001 C1000 1.367 . S
C1001 C1003 1.433 . S
C1002 C998 1.350 . S
C1002 C999 1.463 . S
C1002 N1006 1.427 . S
C1003 H993 0.929 . S
C1003 C1001 1.433 . S
C1003 N1006 1.384 . S
C1004 H995 0.929 . S
C1004 C996 1.378 . S
C1004 C999 1.350 . S
C1005 H992 0.929 . S
C1005 C997 1.433 . S
C1005 N1007 1.384 . S
N1006 C1002 1.427 . S
N1006 C1003 1.384 . S
N1007 C999 1.427 . S
N1007 C1005 1.384 . S
H1008 C1014 0.930 . S
H1009 C1018 0.930 . S
H1010 C1023 0.929 . S
H1011 C1021 0.929 . S
H1012 C1016 0.929 . S
H1013 C1022 0.929 . S
C1014 H1008 0.930 . S
C1014 C1015 1.367 . S
C1014 C1022 1.378 . S
C1015 C1014 1.367 . S
C1015 C1023 1.433 . S
C1016 H1012 0.929 . S
C1016 C1018 1.378 . S
C1016 C1020 1.350 . S
C1017 C1020 1.463 . S
C1017 C1022 1.350 . S
C1017 N1025 1.427 . S
C1018 H1009 0.930 . S
C1018 C1016 1.378 . S
C1018 C1019 1.367 . S
C1019 C1018 1.367 . S
C1019 C1021 1.433 . S
C1020 C1016 1.350 . S
C1020 C1017 1.463 . S
C1020 N1024 1.427 . S
C1021 H1011 0.929 . S
C1021 C1019 1.433 . S
C1021 N1024 1.384 . S
C1022 H1013 0.929 . S
C1022 C1014 1.378 . S
C1022 C1017 1.350 . S
C1023 H1010 0.929 . S
C1023 C1015 1.433 . S
C1023 N1025 1.384 . S
N1024 C1020 1.427 . S
N1024 C1021 1.384 . S
N1025 C1017 1.427 . S
N1025 C1023 1.384 . S
H1026 C1032 0.930 . S
H1027 C1036 0.930 . S
H1028 C1041 0.929 . S
H1029 C1039 0.929 . S
H1030 C1034 0.929 . S
H1031 C1040 0.929 . S
C1032 H1026 0.930 . S
C1032 C1033 1.367 . S
C1032 C1040 1.378 . S
C1033 C1032 1.367 . S
C1033 C1041 1.433 . S
C1034 H1030 0.929 . S
C1034 C1036 1.378 . S
C1034 C1038 1.350 . S
C1035 C1038 1.463 . S
C1035 C1040 1.350 . S
C1035 N1043 1.427 . S
C1036 H1027 0.930 . S
C1036 C1034 1.378 . S
C1036 C1037 1.367 . S
C1037 C1036 1.367 . S
C1037 C1039 1.433 . S
C1038 C1034 1.350 . S
C1038 C1035 1.463 . S
C1038 N1042 1.427 . S
C1039 H1029 0.929 . S
C1039 C1037 1.433 . S
C1039 N1042 1.384 . S
C1040 H1031 0.929 . S
C1040 C1032 1.378 . S
C1040 C1035 1.350 . S
C1041 H1028 0.929 . S
C1041 C1033 1.433 . S
C1041 N1043 1.384 . S
N1042 C1038 1.427 . S
N1042 C1039 1.384 . S
N1043 C1035 1.427 . S
N1043 C1041 1.384 . S
H1044 C1050 0.930 . S
H1045 C1054 0.930 . S
H1046 C1059 0.929 . S
H1047 C1057 0.929 . S
H1048 C1052 0.929 . S
H1049 C1058 0.929 . S
C1050 H1044 0.930 . S
C1050 C1051 1.367 . S
C1050 C1058 1.378 . S
C1051 C1050 1.367 . S
C1051 C1059 1.433 . S
C1052 H1048 0.929 . S
C1052 C1054 1.378 . S
C1052 C1056 1.350 . S
C1053 C1056 1.463 . S
C1053 C1058 1.350 . S
C1053 N1061 1.427 . S
C1054 H1045 0.930 . S
C1054 C1052 1.378 . S
C1054 C1055 1.367 . S
C1055 C1054 1.367 . S
C1055 C1057 1.433 . S
C1056 C1052 1.350 . S
C1056 C1053 1.463 . S
C1056 N1060 1.427 . S
C1057 H1047 0.929 . S
C1057 C1055 1.433 . S
C1057 N1060 1.384 . S
C1058 H1049 0.929 . S
C1058 C1050 1.378 . S
C1058 C1053 1.350 . S
C1059 H1046 0.929 . S
C1059 C1051 1.433 . S
C1059 N1061 1.384 . S
N1060 C1056 1.427 . S
N1060 C1057 1.384 . S
N1061 C1053 1.427 . S
N1061 C1059 1.384 . S
H1062 C1068 0.930 . S
H1063 C1072 0.930 . S
H1064 C1077 0.929 . S
H1065 C1075 0.929 . S
H1066 C1070 0.929 . S
H1067 C1076 0.929 . S
C1068 H1062 0.930 . S
C1068 C1069 1.367 . S
C1068 C1076 1.378 . S
C1069 C1068 1.367 . S
C1069 C1077 1.433 . S
C1070 H1066 0.929 . S
C1070 C1072 1.378 . S
C1070 C1074 1.350 . S
C1071 C1074 1.463 . S
C1071 C1076 1.350 . S
C1071 N1079 1.427 . S
C1072 H1063 0.930 . S
C1072 C1070 1.378 . S
C1072 C1073 1.367 . S
C1073 C1072 1.367 . S
C1073 C1075 1.433 . S
C1074 C1070 1.350 . S
C1074 C1071 1.463 . S
C1074 N1078 1.427 . S
C1075 H1065 0.929 . S
C1075 C1073 1.433 . S
C1075 N1078 1.384 . S
C1076 H1067 0.929 . S
C1076 C1068 1.378 . S
C1076 C1071 1.350 . S
C1077 H1064 0.929 . S
C1077 C1069 1.433 . S
C1077 N1079 1.384 . S
N1078 C1074 1.427 . S
N1078 C1075 1.384 . S
N1079 C1071 1.427 . S
N1079 C1077 1.384 . S
H1080 C1086 0.930 . S
H1081 C1090 0.930 . S
H1082 C1095 0.929 . S
H1083 C1093 0.929 . S
H1084 C1088 0.929 . S
H1085 C1094 0.929 . S
C1086 H1080 0.930 . S
C1086 C1087 1.367 . S
C1086 C1094 1.378 . S
C1087 C1086 1.367 . S
C1087 C1095 1.433 . S
C1088 H1084 0.929 . S
C1088 C1090 1.378 . S
C1088 C1092 1.350 . S
C1089 C1092 1.463 . S
C1089 C1094 1.350 . S
C1089 N1097 1.427 . S
C1090 H1081 0.930 . S
C1090 C1088 1.378 . S
C1090 C1091 1.367 . S
C1091 C1090 1.367 . S
C1091 C1093 1.433 . S
C1092 C1088 1.350 . S
C1092 C1089 1.463 . S
C1092 N1096 1.427 . S
C1093 H1083 0.929 . S
C1093 C1091 1.433 . S
C1093 N1096 1.384 . S
C1094 H1085 0.929 . S
C1094 C1086 1.378 . S
C1094 C1089 1.350 . S
C1095 H1082 0.929 . S
C1095 C1087 1.433 . S
C1095 N1097 1.384 . S
N1096 C1092 1.427 . S
N1096 C1093 1.384 . S
N1097 C1089 1.427 . S
N1097 C1095 1.384 . S
H1098 C1104 0.930 . S
H1099 C1108 0.930 . S
H1100 C1113 0.929 . S
H1101 C1111 0.929 . S
H1102 C1106 0.929 . S
H1103 C1112 0.929 . S
C1104 H1098 0.930 . S
C1104 C1105 1.367 . S
C1104 C1112 1.378 . S
C1105 C1104 1.367 . S
C1105 C1113 1.433 . S
C1106 H1102 0.929 . S
C1106 C1108 1.378 . S
C1106 C1110 1.350 . S
C1107 C1110 1.463 . S
C1107 C1112 1.350 . S
C1107 N1115 1.427 . S
C1108 H1099 0.930 . S
C1108 C1106 1.378 . S
C1108 C1109 1.367 . S
C1109 C1108 1.367 . S
C1109 C1111 1.433 . S
C1110 C1106 1.350 . S
C1110 C1107 1.463 . S
C1110 N1114 1.427 . S
C1111 H1101 0.929 . S
C1111 C1109 1.433 . S
C1111 N1114 1.384 . S
C1112 H1103 0.929 . S
C1112 C1104 1.378 . S
C1112 C1107 1.350 . S
C1113 H1100 0.929 . S
C1113 C1105 1.433 . S
C1113 N1115 1.384 . S
N1114 C1110 1.427 . S
N1114 C1111 1.384 . S
N1115 C1107 1.427 . S
N1115 C1113 1.384 . S
H1116 C1122 0.930 . S
H1117 C1126 0.930 . S
H1118 C1131 0.929 . S
H1119 C1129 0.929 . S
H1120 C1124 0.929 . S
H1121 C1130 0.929 . S
C1122 H1116 0.930 . S
C1122 C1123 1.367 . S
C1122 C1130 1.378 . S
C1123 C1122 1.367 . S
C1123 C1131 1.433 . S
C1124 H1120 0.929 . S
C1124 C1126 1.378 . S
C1124 C1128 1.350 . S
C1125 C1128 1.463 . S
C1125 C1130 1.350 . S
C1125 N1133 1.427 . S
C1126 H1117 0.930 . S
C1126 C1124 1.378 . S
C1126 C1127 1.367 . S
C1127 C1126 1.367 . S
C1127 C1129 1.433 . S
C1128 C1124 1.350 . S
C1128 C1125 1.463 . S
C1128 N1132 1.427 . S
C1129 H1119 0.929 . S
C1129 C1127 1.433 . S
C1129 N1132 1.384 . S
C1130 H1121 0.929 . S
C1130 C1122 1.378 . S
C1130 C1125 1.350 . S
C1131 H1118 0.929 . S
C1131 C1123 1.433 . S
C1131 N1133 1.384 . S
N1132 C1128 1.427 . S
N1132 C1129 1.384 . S
N1133 C1125 1.427 . S
N1133 C1131 1.384 . S
H1134 C1140 0.930 . S
H1135 C1144 0.930 . S
H1136 C1149 0.929 . S
H1137 C1147 0.929 . S
H1138 C1142 0.929 . S
H1139 C1148 0.929 . S
C1140 H1134 0.930 . S
C1140 C1141 1.367 . S
C1140 C1148 1.378 . S
C1141 C1140 1.367 . S
C1141 C1149 1.433 . S
C1142 H1138 0.929 . S
C1142 C1144 1.378 . S
C1142 C1146 1.350 . S
C1143 C1146 1.463 . S
C1143 C1148 1.350 . S
C1143 N1151 1.427 . S
C1144 H1135 0.930 . S
C1144 C1142 1.378 . S
C1144 C1145 1.367 . S
C1145 C1144 1.367 . S
C1145 C1147 1.433 . S
C1146 C1142 1.350 . S
C1146 C1143 1.463 . S
C1146 N1150 1.427 . S
C1147 H1137 0.929 . S
C1147 C1145 1.433 . S
C1147 N1150 1.384 . S
C1148 H1139 0.929 . S
C1148 C1140 1.378 . S
C1148 C1143 1.350 . S
C1149 H1136 0.929 . S
C1149 C1141 1.433 . S
C1149 N1151 1.384 . S
N1150 C1146 1.427 . S
N1150 C1147 1.384 . S
N1151 C1143 1.427 . S
N1151 C1149 1.384 . S
H1152 C1158 0.930 . S
H1153 C1162 0.930 . S
H1154 C1167 0.929 . S
H1155 C1165 0.929 . S
H1156 C1160 0.929 . S
H1157 C1166 0.929 . S
C1158 H1152 0.930 . S
C1158 C1159 1.367 . S
C1158 C1166 1.378 . S
C1159 C1158 1.367 . S
C1159 C1167 1.433 . S
C1160 H1156 0.929 . S
C1160 C1162 1.378 . S
C1160 C1164 1.350 . S
C1161 C1164 1.463 . S
C1161 C1166 1.350 . S
C1161 N1169 1.427 . S
C1162 H1153 0.930 . S
C1162 C1160 1.378 . S
C1162 C1163 1.367 . S
C1163 C1162 1.367 . S
C1163 C1165 1.433 . S
C1164 C1160 1.350 . S
C1164 C1161 1.463 . S
C1164 N1168 1.427 . S
C1165 H1155 0.929 . S
C1165 C1163 1.433 . S
C1165 N1168 1.384 . S
C1166 H1157 0.929 . S
C1166 C1158 1.378 . S
C1166 C1161 1.350 . S
C1167 H1154 0.929 . S
C1167 C1159 1.433 . S
C1167 N1169 1.384 . S
N1168 C1164 1.427 . S
N1168 C1165 1.384 . S
N1169 C1161 1.427 . S
N1169 C1167 1.384 . S
H1170 C1176 0.930 . S
H1171 C1180 0.930 . S
H1172 C1185 0.929 . S
H1173 C1183 0.929 . S
H1174 C1178 0.929 . S
H1175 C1184 0.929 . S
C1176 H1170 0.930 . S
C1176 C1177 1.367 . S
C1176 C1184 1.378 . S
C1177 C1176 1.367 . S
C1177 C1185 1.433 . S
C1178 H1174 0.929 . S
C1178 C1180 1.378 . S
C1178 C1182 1.350 . S
C1179 C1182 1.463 . S
C1179 C1184 1.350 . S
C1179 N1187 1.427 . S
C1180 H1171 0.930 . S
C1180 C1178 1.378 . S
C1180 C1181 1.367 . S
C1181 C1180 1.367 . S
C1181 C1183 1.433 . S
C1182 C1178 1.350 . S
C1182 C1179 1.463 . S
C1182 N1186 1.427 . S
C1183 H1173 0.929 . S
C1183 C1181 1.433 . S
C1183 N1186 1.384 . S
C1184 H1175 0.929 . S
C1184 C1176 1.378 . S
C1184 C1179 1.350 . S
C1185 H1172 0.929 . S
C1185 C1177 1.433 . S
C1185 N1187 1.384 . S
N1186 C1182 1.427 . S
N1186 C1183 1.384 . S
N1187 C1179 1.427 . S
N1187 C1185 1.384 . S
H1188 C1194 0.930 . S
H1189 C1198 0.930 . S
H1190 C1203 0.929 . S
H1191 C1201 0.929 . S
H1192 C1196 0.929 . S
H1193 C1202 0.929 . S
C1194 H1188 0.930 . S
C1194 C1195 1.367 . S
C1194 C1202 1.378 . S
C1195 C1194 1.367 . S
C1195 C1203 1.433 . S
C1196 H1192 0.929 . S
C1196 C1198 1.378 . S
C1196 C1200 1.350 . S
C1197 C1200 1.463 . S
C1197 C1202 1.350 . S
C1197 N1205 1.427 . S
C1198 H1189 0.930 . S
C1198 C1196 1.378 . S
C1198 C1199 1.367 . S
C1199 C1198 1.367 . S
C1199 C1201 1.433 . S
C1200 C1196 1.350 . S
C1200 C1197 1.463 . S
C1200 N1204 1.427 . S
C1201 H1191 0.929 . S
C1201 C1199 1.433 . S
C1201 N1204 1.384 . S
C1202 H1193 0.929 . S
C1202 C1194 1.378 . S
C1202 C1197 1.350 . S
C1203 H1190 0.929 . S
C1203 C1195 1.433 . S
C1203 N1205 1.384 . S
N1204 C1200 1.427 . S
N1204 C1201 1.384 . S
N1205 C1197 1.427 . S
N1205 C1203 1.384 . S
H1206 C1212 0.930 . S
H1207 C1216 0.930 . S
H1208 C1221 0.929 . S
H1209 C1219 0.929 . S
H1210 C1214 0.929 . S
H1211 C1220 0.929 . S
C1212 H1206 0.930 . S
C1212 C1213 1.367 . S
C1212 C1220 1.378 . S
C1213 C1212 1.367 . S
C1213 C1221 1.433 . S
C1214 H1210 0.929 . S
C1214 C1216 1.378 . S
C1214 C1218 1.350 1_565 S
C1215 C1218 1.463 . S
C1215 C1220 1.350 . S
C1215 N1223 1.427 . S
C1216 H1207 0.930 . S
C1216 C1214 1.378 . S
C1216 C1217 1.367 . S
C1217 C1216 1.367 . S
C1217 C1219 1.433 . S
C1218 C1214 1.350 1_545 S
C1218 C1215 1.463 . S
C1218 N1222 1.427 1_545 S
C1219 H1209 0.929 . S
C1219 C1217 1.433 . S
C1219 N1222 1.384 . S
C1220 H1211 0.929 . S
C1220 C1212 1.378 . S
C1220 C1215 1.350 . S
C1221 H1208 0.929 . S
C1221 C1213 1.433 . S
C1221 N1223 1.384 . S
N1222 C1218 1.427 1_565 S
N1222 C1219 1.384 . S
N1223 C1215 1.427 . S
N1223 C1221 1.384 . S
H1224 C1230 0.930 . S
H1225 C1234 0.930 . S
H1226 C1239 0.929 . S
H1227 C1237 0.929 . S
H1228 C1232 0.929 . S
H1229 C1238 0.929 . S
C1230 H1224 0.930 . S
C1230 C1231 1.367 . S
C1230 C1238 1.378 . S
C1231 C1230 1.367 . S
C1231 C1239 1.433 . S
C1232 H1228 0.929 . S
C1232 C1234 1.378 . S
C1232 C1236 1.350 . S
C1233 C1236 1.463 1_455 S
C1233 C1238 1.350 . S
C1233 N1241 1.427 . S
C1234 H1225 0.930 . S
C1234 C1232 1.378 . S
C1234 C1235 1.367 . S
C1235 C1234 1.367 . S
C1235 C1237 1.433 . S
C1236 C1232 1.350 . S
C1236 C1233 1.463 1_655 S
C1236 N1240 1.427 . S
C1237 H1227 0.929 . S
C1237 C1235 1.433 . S
C1237 N1240 1.384 . S
C1238 H1229 0.929 . S
C1238 C1230 1.378 . S
C1238 C1233 1.350 . S
C1239 H1226 0.929 . S
C1239 C1231 1.433 . S
C1239 N1241 1.384 . S
N1240 C1236 1.427 . S
N1240 C1237 1.384 . S
N1241 C1233 1.427 . S
N1241 C1239 1.384 . S
H1242 C1248 0.930 . S
H1243 C1252 0.930 . S
H1244 C1257 0.929 . S
H1245 C1255 0.929 . S
H1246 C1250 0.941 . S
H1247 C1256 0.929 1_554 S
C1248 H1242 0.930 . S
C1248 C1249 1.367 . S
C1248 C1256 1.378 . S
C1249 C1248 1.367 . S
C1249 C1257 1.433 . S
C1250 H1246 0.941 . S
C1250 C1252 1.369 1_556 S
C1250 C1254 1.346 1_556 S
C1251 C1254 1.463 1_556 S
C1251 C1256 1.350 . S
C1251 N1259 1.427 . S
C1252 H1243 0.930 . S
C1252 C1250 1.369 1_554 S
C1252 C1253 1.367 . S
C1253 C1252 1.367 . S
C1253 C1255 1.433 . S
C1254 C1250 1.346 1_554 S
C1254 C1251 1.463 1_554 S
C1254 N1258 1.427 . S
C1255 H1245 0.929 . S
C1255 C1253 1.433 . S
C1255 N1258 1.384 . S
C1256 H1247 0.929 1_556 S
C1256 C1248 1.378 . S
C1256 C1251 1.350 . S
C1257 H1244 0.929 . S
C1257 C1249 1.433 . S
C1257 N1259 1.384 . S
N1258 C1254 1.427 . S
N1258 C1255 1.384 . S
N1259 C1251 1.427 . S
N1259 C1257 1.384 . S
H1260 C1266 0.930 . S
H1261 C1270 0.930 . S
H1262 C1275 0.929 1_554 S
H1263 C1273 0.918 1_556 S
H1264 C1268 0.929 . S
H1265 C1274 0.929 . S
C1266 H1260 0.930 . S
C1266 C1267 1.367 . S
C1266 C1274 1.378 . S
C1267 C1266 1.367 . S
C1267 C1275 1.433 . S
C1268 H1264 0.929 . S
C1268 C1270 1.378 . S
C1268 C1272 1.350 . S
C1269 C1272 1.463 1_566 S
C1269 C1274 1.350 . S
C1269 N1277 1.427 1_556 S
C1270 H1261 0.930 . S
C1270 C1268 1.378 . S
C1270 C1271 1.367 . S
C1271 C1270 1.367 . S
C1271 C1273 1.433 . S
C1272 C1268 1.350 . S
C1272 C1269 1.463 1_544 S
C1272 N1276 1.427 1_554 S
C1273 H1263 0.918 1_554 S
C1273 C1271 1.433 . S
C1273 N1276 1.384 1_554 S
C1274 H1265 0.929 . S
C1274 C1266 1.378 . S
C1274 C1269 1.350 . S
C1275 H1262 0.929 1_556 S
C1275 C1267 1.433 . S
C1275 N1277 1.384 1_556 S
N1276 C1272 1.427 1_556 S
N1276 C1273 1.384 1_556 S
N1277 C1269 1.427 1_554 S
N1277 C1275 1.384 1_554 S
H1278 C1284 0.930 . S
H1279 C1288 0.930 . S
H1280 C1293 0.929 . S
H1281 C1291 0.929 . S
H1282 C1286 0.929 1_556 S
H1283 C1292 0.929 1_554 S
C1284 H1278 0.930 . S
C1284 C1285 1.367 . S
C1284 C1292 1.378 . S
C1285 C1284 1.367 . S
C1285 C1293 1.433 . S
C1286 H1282 0.929 1_554 S
C1286 C1288 1.378 1_455 S
C1286 C1290 1.350 . S
C1287 C1290 1.463 1_556 S
C1287 C1292 1.350 . S
C1287 N1295 1.427 . S
C1288 H1279 0.930 . S
C1288 C1286 1.378 1_655 S
C1288 C1289 1.367 . S
C1289 C1288 1.367 . S
C1289 C1291 1.433 . S
C1290 C1286 1.350 . S
C1290 C1287 1.463 1_554 S
C1290 N1294 1.427 1_455 S
C1291 H1281 0.929 . S
C1291 C1289 1.433 . S
C1291 N1294 1.384 . S
C1292 H1283 0.929 1_556 S
C1292 C1284 1.378 . S
C1292 C1287 1.350 . S
C1293 H1280 0.929 . S
C1293 C1285 1.433 . S
C1293 N1295 1.384 . S
N1294 C1290 1.427 1_655 S
N1294 C1291 1.384 . S
N1295 C1287 1.427 . S
N1295 C1293 1.384 . S
C655 C3 0.966 . S
C659 C518 0.952 . S
C673 C436 1.003 1_554 S
C677 C40 1.001 . S
C691 C74 1.006 . S
C695 C471 1.009 1_554 S
C709 C219 0.954 . S
C713 C86 0.942 . S
C727 C256 1.000 . S
C731 C4 1.001 . S
C745 C302 0.951 . S
C749 C39 0.966 . S
C763 C110 1.117 . S
C767 C410 1.085 1_556 S
C781 C338 1.057 1_556 S
C785 C158 1.079 . S
C799 C374 1.090 1_556 S
C803 C182 1.109 . S
C817 C194 1.096 . S
C821 C542 1.124 . S
C835 C122 1.070 . S
C839 C590 1.081 . S
C853 C614 1.154 . S
C857 C146 1.159 . S
C871 C435 1.003 . S
C875 C290 0.989 . S
C889 C220 1.012 . S
C893 C472 1.014 . S
C907 C506 1.002 . S
C911 C255 1.014 . S
C925 C626 1.120 . S
C929 C326 1.138 . S
C943 C362 1.136 . S
C947 C554 1.117 . S
C961 C578 1.168 . S
C965 C398 1.165 . S
C979 C544 1.706 . S
C983 C14 1.790 . S
C997 C38 1.594 . S
C1001 C579 1.725 . S
C1015 C76 1.663 . S
C1019 C616 1.663 . S
C1033 C75 1.762 . S
C1037 C399 1.761 . S
C1051 C327 1.775 . S
C1055 C2 1.639 . S
C1069 C50 1.764 . S
C1073 C363 1.787 . S
C1087 C230 1.776 . S
C1091 C112 1.697 . S
C1105 C254 1.592 . S
C1109 C147 1.722 . S
C1123 C184 1.671 . S
C1127 C291 1.759 . S
C1141 C183 1.762 . S
C1145 C507 1.763 . S
C1159 C111 1.768 . S
C1163 C434 1.633 . S
C1177 C148 1.705 . S
C1181 C482 1.774 . S
C1195 C292 1.673 . S
C1199 C615 1.761 . S
C1213 C218 1.636 . S
C1217 C543 1.776 . S
C1231 C580 1.696 . S
C1235 C266 1.760 . S
C1249 C446 1.785 . S
C1253 C328 1.709 . S
C1267 C470 1.589 . S
C1271 C364 1.631 . S
C1285 C508 1.665 . S
C1289 C400 1.665 . S
