# Generated by pormake.
# Topology unf, (4)-cn, num edge types: 1
# Building blocks:
#     Node 0, Type 0, BuildingBlock: NAHDIM_clean_sbu_0, # of connection points: 4
#     Node 1, Type 0, BuildingBlock: NAHDIM_clean_sbu_0, # of connection points: 4
#     Node 2, Type 0, BuildingBlock: NAHDIM_clean_sbu_0, # of connection points: 4
#     Node 3, Type 0, BuildingBlock: NAHDIM_clean_sbu_0, # of connection points: 4
#     Node 4, Type 0, BuildingBlock: NAHDIM_clean_sbu_0, # of connection points: 4
#     Node 5, Type 0, BuildingBlock: NAHDIM_clean_sbu_0, # of connection points: 4
#     Node 6, Type 0, BuildingBlock: NAHDIM_clean_sbu_0, # of connection points: 4
#     Node 7, Type 0, BuildingBlock: NAHDIM_clean_sbu_0, # of connection points: 4
#     Node 8, Type 0, BuildingBlock: NAHDIM_clean_sbu_0, # of connection points: 4
#     Node 9, Type 0, BuildingBlock: NAHDIM_clean_sbu_0, # of connection points: 4
#     Node 10, Type 0, BuildingBlock: NAHDIM_clean_sbu_0, # of connection points: 4
#     Node 11, Type 0, BuildingBlock: NAHDIM_clean_sbu_0, # of connection points: 4
#     Edge 12, Type (0, 0), BuildingBlock: EZIPEK_clean_linker_0, # of connection points: 2
#     Edge 13, Type (0, 0), BuildingBlock: EZIPEK_clean_linker_0, # of connection points: 2
#     Edge 14, Type (0, 0), BuildingBlock: EZIPEK_clean_linker_0, # of connection points: 2
#     Edge 15, Type (0, 0), BuildingBlock: EZIPEK_clean_linker_0, # of connection points: 2
#     Edge 16, Type (0, 0), BuildingBlock: EZIPEK_clean_linker_0, # of connection points: 2
#     Edge 17, Type (0, 0), BuildingBlock: EZIPEK_clean_linker_0, # of connection points: 2
#     Edge 18, Type (0, 0), BuildingBlock: EZIPEK_clean_linker_0, # of connection points: 2
#     Edge 19, Type (0, 0), BuildingBlock: EZIPEK_clean_linker_0, # of connection points: 2
#     Edge 20, Type (0, 0), BuildingBlock: EZIPEK_clean_linker_0, # of connection points: 2
#     Edge 21, Type (0, 0), BuildingBlock: EZIPEK_clean_linker_0, # of connection points: 2
#     Edge 22, Type (0, 0), BuildingBlock: EZIPEK_clean_linker_0, # of connection points: 2
#     Edge 23, Type (0, 0), BuildingBlock: EZIPEK_clean_linker_0, # of connection points: 2
#     Edge 24, Type (0, 0), BuildingBlock: EZIPEK_clean_linker_0, # of connection points: 2
#     Edge 25, Type (0, 0), BuildingBlock: EZIPEK_clean_linker_0, # of connection points: 2
#     Edge 26, Type (0, 0), BuildingBlock: EZIPEK_clean_linker_0, # of connection points: 2
#     Edge 27, Type (0, 0), BuildingBlock: EZIPEK_clean_linker_0, # of connection points: 2
#     Edge 28, Type (0, 0), BuildingBlock: EZIPEK_clean_linker_0, # of connection points: 2
#     Edge 29, Type (0, 0), BuildingBlock: EZIPEK_clean_linker_0, # of connection points: 2
#     Edge 30, Type (0, 0), BuildingBlock: EZIPEK_clean_linker_0, # of connection points: 2
#     Edge 31, Type (0, 0), BuildingBlock: EZIPEK_clean_linker_0, # of connection points: 2
#     Edge 32, Type (0, 0), BuildingBlock: EZIPEK_clean_linker_0, # of connection points: 2
#     Edge 33, Type (0, 0), BuildingBlock: EZIPEK_clean_linker_0, # of connection points: 2
#     Edge 34, Type (0, 0), BuildingBlock: EZIPEK_clean_linker_0, # of connection points: 2
#     Edge 35, Type (0, 0), BuildingBlock: EZIPEK_clean_linker_0, # of connection points: 2
# Relax obj value: 0.231
# Max RMSD: 0.176
# Mean RMSD: 0.176
data_MOF--net-unf--node1-NAHDIM_clean_sbu_0--edge1-EZIPEK_clean_linker_0
_symmetry_space_group_name_H-M    P1
_symmetry_Int_Tables_number       1
_symmetry_cell_setting            triclinic
loop_
_symmetry_equiv_pos_as_xyz
'x, y, z'
_cell_length_a     27.629253
_cell_length_b     27.519019
_cell_length_c     28.034241
_cell_angle_alpha  90.261031
_cell_angle_beta   90.039564
_cell_angle_gamma 119.89546
loop_
_atom_site_label
_atom_site_type_symbol
_atom_site_fract_x
_atom_site_fract_y
_atom_site_fract_z
_atom_type_partial_charge
C0 C 0.13254 0.40471 0.17815 0.0
O1 O 0.15639 0.43467 0.13998 0.0
O2 O 0.03277 0.41296 0.08845 0.0
Zn3 Zn 0.04193 0.34909 0.11293 0.0
O4 O 0.0879 0.33131 0.06806 0.0
C5 C 0.92922 0.27644 0.08669 0.0
O6 O 0.94125 0.31883 0.05847 0.0
O7 O 0.08146 0.36665 0.17633 0.0
C8 C 0.07066 0.30458 0.02892 0.0
O9 O 0.01957 0.28732 0.01405 0.0
C10 C 0.05603 0.43992 0.05075 0.0
O11 O 0.09286 0.43117 0.0286 0.0
O12 O 0.96541 0.27997 0.11665 0.0
C13 C 0.57544 0.72172 0.15593 0.0
O14 O 0.53549 0.71337 0.12592 0.0
O15 O 0.56012 0.60708 0.06219 0.0
Zn16 Zn 0.61517 0.68913 0.0742 0.0
O17 O 0.59765 0.73713 0.0313 0.0
C18 C 0.69696 0.68829 0.01474 0.0
O19 O 0.65514 0.67198 0.98474 0.0
O20 O 0.61413 0.7125 0.1426 0.0
C21 C 0.63727 0.78334 0.01629 0.0
O22 O 0.68881 0.79973 0.02929 0.0
C23 C 0.53379 0.59173 0.02274 0.0
O24 O 0.53831 0.6296 0.99199 0.0
O25 O 0.69136 0.70068 0.05734 0.0
C26 C 0.24929 0.82028 0.16372 0.0
O27 O 0.26036 0.79721 0.12732 0.0
O28 O 0.37121 0.93902 0.08659 0.0
Zn29 Zn 0.2905 0.9126 0.09998 0.0
O30 O 0.24063 0.86379 0.04755 0.0
C31 C 0.32354 0.02793 0.11327 0.0
O32 O 0.36443 0.02884 0.13795 0.0
O33 O 0.26195 0.87141 0.16166 0.0
C34 C 0.24108 0.88303 0.00636 0.0
O35 O 0.27856 0.93486 0.99581 0.0
C36 C 0.38715 0.91948 0.05287 0.0
O37 O 0.34864 0.87577 0.02964 0.0
O38 O 0.28419 0.98168 0.09768 0.0
C39 C 0.57844 0.82664 0.3364 0.0
O40 O 0.5314 0.81579 0.35692 0.0
O41 O 0.56717 0.91805 0.42671 0.0
Zn42 Zn 0.63314 0.90496 0.41641 0.0
O43 O 0.63896 0.86114 0.47193 0.0
C44 C 0.71196 0.02367 0.42965 0.0
O45 O 0.66898 0.02374 0.44921 0.0
O46 O 0.6247 0.86196 0.35534 0.0
C47 C 0.66783 0.88518 0.50901 0.0
O48 O 0.69453 0.94006 0.51238 0.0
C49 C 0.55851 0.93085 0.4683 0.0
O50 O 0.59077 0.93336 0.50366 0.0
O51 O 0.7062 0.97869 0.41156 0.0
C52 C 0.11763 0.69946 0.327 0.0
O53 O 0.13631 0.68316 0.36307 0.0
O54 O -0.01382 0.59437 0.40722 0.0
Zn55 Zn 0.02778 0.67635 0.39154 0.0
O56 O 0.07999 0.71692 0.44601 0.0
C57 C 0.94676 0.69279 0.43099 0.0
O58 O 0.96416 0.67489 0.46681 0.0
O59 O 0.07056 0.69693 0.32996 0.0
C60 C 0.10347 0.7698 0.44935 0.0
O61 O 0.09324 0.79801 0.4171 0.0
C62 C 0.00509 0.57549 0.43902 0.0
O63 O 0.05603 0.60726 0.45541 0.0
O64 O 0.96936 0.69909 0.39042 0.0
C65 C 0.25649 0.41956 0.34959 0.0
O66 O 0.26681 0.45664 0.3835 0.0
O67 O 0.37226 0.42455 0.43792 0.0
Zn68 Zn 0.29128 0.37088 0.42212 0.0
O69 O 0.23816 0.37531 0.46852 0.0
C70 C 0.32053 0.28417 0.42463 0.0
O71 O 0.36923 0.32459 0.41022 0.0
O72 O 0.26753 0.3805 0.35663 0.0
C73 C 0.23814 0.37023 0.51354 0.0
O74 O 0.2782 0.36603 0.53484 0.0
C75 C 0.38893 0.46181 0.4704 0.0
O76 O 0.35326 0.47291 0.49168 0.0
O77 O 0.27994 0.29324 0.42902 0.0
C78 C 0.85393 0.56483 0.82781 0.0
O79 O 0.83102 0.53396 0.86575 0.0
O80 O 0.95828 0.56883 0.92187 0.0
Zn81 Zn 0.94033 0.62559 0.8945 0.0
O82 O 0.88563 0.63521 0.9353 0.0
C83 C 0.03266 0.72287 0.93097 0.0
O84 O 0.00176 0.70458 0.96939 0.0
O85 O 0.90417 0.60471 0.8299 0.0
C86 C 0.88477 0.68085 0.93266 0.0
O87 O 0.92222 0.72181 0.90652 0.0
C88 C 0.95827 0.56275 0.96682 0.0
O89 O 0.93961 0.58816 0.9948 0.0
O90 O 0.0142 0.69715 0.89161 0.0
C91 C 0.37589 0.22333 0.8382 0.0
O92 O 0.41369 0.23378 0.8712 0.0
O93 O 0.38767 0.3418 0.92481 0.0
Zn94 Zn 0.32945 0.26029 0.9123 0.0
O95 O 0.33701 0.20647 0.96289 0.0
C96 C 0.24296 0.26872 0.95834 0.0
O97 O 0.27889 0.2834 0.99356 0.0
O98 O 0.33669 0.23367 0.84676 0.0
C99 C 0.32035 0.20199 0.00613 0.0
O100 O 0.33823 0.20443 0.96272 0.0
C101 C 0.40758 0.35868 0.96647 0.0
O102 O 0.39455 0.32246 0.00112 0.0
O103 O 0.25393 0.25441 0.91846 0.0
C104 C 0.70632 0.15032 0.82822 0.0
O105 O 0.68294 0.17258 0.8545 0.0
O106 O 0.60128 0.05748 0.92086 0.0
Zn107 Zn 0.68009 0.07586 0.90857 0.0
O108 O 0.7327 0.12688 0.9591 0.0
C109 C 0.63492 0.95674 0.90702 0.0
O110 O 0.59286 0.95656 0.88503 0.0
O111 O 0.7083 0.10791 0.84344 0.0
C112 C 0.73155 0.10854 0.00089 0.0
O113 O 0.69448 0.05669 0.01169 0.0
C114 C 0.58708 0.07725 0.95565 0.0
O115 O 0.62705 0.11824 0.98031 0.0
O116 O 0.67831 0.00292 0.91716 0.0
C117 C 0.38187 0.11902 0.65964 0.0
O118 O 0.41637 0.15078 0.62627 0.0
O119 O 0.40858 0.02785 0.56564 0.0
Zn120 Zn 0.34523 0.04121 0.58272 0.0
O121 O 0.34715 0.10047 0.54047 0.0
C122 C 0.26109 0.92247 0.58393 0.0
O123 O 0.29213 0.91741 0.61684 0.0
O124 O 0.34786 0.06763 0.65056 0.0
C125 C 0.32014 0.09037 0.50155 0.0
O126 O 0.29032 0.03868 0.48579 0.0
C127 C 0.40236 0.0009 0.52697 0.0
O128 O 0.35772 0.98581 0.50066 0.0
O129 O 0.2738 0.97053 0.56824 0.0
C130 C 0.81599 0.24307 0.64839 0.0
O131 O 0.78837 0.23343 0.60806 0.0
O132 O 0.91826 0.36159 0.5581 0.0
Zn133 Zn 0.91095 0.29111 0.58573 0.0
O134 O 0.87143 0.22785 0.53877 0.0
C135 C 0.02524 0.3348 0.56502 0.0
O136 O 0.01202 0.35954 0.53172 0.0
O137 O 0.86906 0.26917 0.64797 0.0
C138 C 0.88186 0.23121 0.49437 0.0
O139 O 0.92124 0.27821 0.4761 0.0
C140 C 0.88096 0.36864 0.53819 0.0
O141 O 0.82866 0.32824 0.53837 0.0
O142 O -0.01134 0.30374 0.59521 0.0
C143 C 0.73259 0.57301 0.66338 0.0
O144 O 0.71812 0.54051 0.62543 0.0
O145 O 0.62282 0.59047 0.58495 0.0
Zn146 Zn 0.70207 0.64097 0.60593 0.0
O147 O 0.75326 0.65035 0.55219 0.0
C148 C 0.67079 0.72353 0.62793 0.0
O149 O 0.62236 0.6785 0.63581 0.0
O150 O 0.72609 0.61559 0.66377 0.0
C151 C 0.76153 0.68401 0.51821 0.0
O152 O 0.73413 0.71159 0.51647 0.0
C153 C 0.60976 0.55455 0.55174 0.0
O154 O 0.64783 0.54506 0.53306 0.0
O155 O 0.71172 0.71686 0.6172 0.0
C156 C 0.11339 0.24353 0.02198 0.0
C157 C 0.10653 0.28759 0.00339 0.0
C158 C 0.18227 0.31166 0.94653 0.0
C159 C 0.19025 0.26881 0.96636 0.0
N160 N 0.15416 0.18387 0.01155 0.0
N161 N 0.12381 0.35437 0.94121 0.0
C162 C 0.15264 0.23141 1.00048 0.0
C163 C 0.13732 0.31843 0.96313 0.0
N164 N 0.0837 0.21456 0.06111 0.0
N165 N 0.2194 0.34768 0.91388 0.0
H166 H 0.09161 0.36072 0.95313 0.0
H167 H 0.14121 0.37436 0.90915 0.0
H168 H 0.25141 0.34257 0.89957 0.0
H169 H 0.22026 0.38408 0.90259 0.0
H170 H 0.09161 0.18664 0.07981 0.0
H171 H 0.0529 0.22073 0.07667 0.0
H172 H 0.12496 0.15224 0.03324 0.0
H173 H 0.1817 0.17353 0.995 0.0
C174 C 0.60769 0.85516 0.00728 0.0
C175 C 0.62578 0.82016 0.98601 0.0
C176 C 0.64324 0.87035 0.91044 0.0
C177 C 0.62622 0.90602 0.93192 0.0
N178 N 0.58065 0.9258 0.99639 0.0
N179 N 0.64507 0.78324 0.91518 0.0
C180 C 0.60446 0.89611 0.97897 0.0
C181 C 0.63873 0.8243 0.93679 0.0
N182 N 0.59595 0.85079 0.05496 0.0
N183 N 0.66512 0.88148 0.86548 0.0
H184 H 0.63943 0.74787 0.93348 0.0
H185 H 0.65023 0.78118 0.87859 0.0
H186 H 0.66694 0.91368 0.84464 0.0
H187 H 0.68421 0.86098 0.84983 0.0
H188 H 0.58956 0.87961 0.07408 0.0
H189 H 0.59519 0.81944 0.0762 0.0
H190 H 0.55878 0.91665 0.02837 0.0
H191 H 0.57892 0.9572 0.9771 0.0
C192 C 0.15199 0.86307 0.96618 0.0
C193 C 0.19433 0.84893 0.97361 0.0
C194 C 0.13385 0.75485 0.94142 0.0
C195 C 0.09089 0.76831 0.93583 0.0
N196 N 0.06316 0.83798 0.92888 0.0
N197 N 0.23232 0.78914 0.95559 0.0
C198 C 0.10155 0.8236 0.94338 0.0
C199 C 0.18743 0.79725 0.95685 0.0
N200 N 0.15823 0.91229 0.98383 0.0
N201 N 0.12259 0.70096 0.93464 0.0
H202 H 0.27222 0.82042 0.96564 0.0
H203 H 0.23129 0.75414 0.94019 0.0
H204 H 0.08426 0.66913 0.92191 0.0
H205 H 0.15004 0.68701 0.9441 0.0
H206 H 0.12607 0.92164 0.98469 0.0
H207 H 0.19462 0.94271 1.00043 0.0
H208 H 0.07037 0.8789 0.92945 0.0
H209 H 0.02612 0.80955 0.91174 0.0
C210 C 0.72456 0.82231 0.59825 0.0
C211 C 0.67391 0.77781 0.61577 0.0
C212 C 0.62147 0.81474 0.57435 0.0
C213 C 0.6707 0.85156 0.54877 0.0
N214 N 0.76981 0.8906 0.53592 0.0
N215 N 0.58181 0.75256 0.64216 0.0
C216 C 0.72283 0.85655 0.56141 0.0
C217 C 0.62436 0.78031 0.61055 0.0
N218 N 0.7739 0.83267 0.61822 0.0
N219 N 0.57181 0.81144 0.5631 0.0
H220 H 0.58627 0.7325 0.67196 0.0
H221 H 0.54568 0.75549 0.64268 0.0
H222 H 0.56852 0.83777 0.53842 0.0
H223 H 0.53346 0.78078 0.57631 0.0
H224 H 0.81236 0.86715 0.60965 0.0
H225 H 0.77508 0.81036 0.64781 0.0
H226 H 0.80739 0.89083 0.54004 0.0
H227 H 0.77024 0.91536 0.50776 0.0
C228 C 0.19201 0.80187 0.49562 0.0
C229 C 0.13977 0.79943 0.49066 0.0
C230 C 0.16188 0.86323 0.55894 0.0
C231 C 0.21725 0.87293 0.55837 0.0
N232 N 0.28671 0.85357 0.52535 0.0
N233 N 0.07158 0.82257 0.51954 0.0
C234 C 0.23252 0.84194 0.52724 0.0
C235 C 0.12355 0.82834 0.52321 0.0
N236 N 0.20324 0.76634 0.46987 0.0
N237 N 0.14616 0.88692 0.59425 0.0
H238 H 0.0409 0.79333 0.49681 0.0
H239 H 0.059 0.84725 0.53798 0.0
H240 H 0.17352 0.91186 0.62118 0.0
H241 H 0.10545 0.87859 0.59938 0.0
H242 H 0.23789 0.76171 0.47597 0.0
H243 H 0.17567 0.73777 0.445 0.0
H244 H 0.30226 0.83864 0.49874 0.0
H245 H 0.31746 0.88119 0.5487 0.0
C246 C 0.12807 0.39834 0.56535 0.0
C247 C 0.08227 0.3428 0.56561 0.0
C248 C 0.14572 0.30657 0.54988 0.0
C249 C 0.18875 0.36197 0.5403 0.0
N250 N 0.22297 0.46131 0.53969 0.0
N251 N 0.04635 0.24308 0.55701 0.0
C252 C 0.18076 0.40821 0.54888 0.0
C253 C 0.09085 0.29644 0.55878 0.0
N254 N 0.12099 0.44136 0.58141 0.0
N255 N 0.15709 0.26357 0.54944 0.0
H256 H 0.00548 0.23329 0.56388 0.0
H257 H 0.04925 0.20854 0.5457 0.0
H258 H 0.19648 0.26932 0.54167 0.0
H259 H 0.12898 0.2232 0.5609 0.0
H260 H 0.15364 0.48228 0.58594 0.0
H261 H 0.08293 0.43489 0.59467 0.0
H262 H 0.2178 0.49629 0.53943 0.0
H263 H 0.26299 0.47001 0.53021 0.0
C264 C 0.77444 0.66509 0.02226 0.0
C265 C 0.74969 0.69241 0.99786 0.0
C266 C 0.81073 0.70834 0.92971 0.0
C267 C 0.83948 0.68634 0.95581 0.0
N268 N 0.85739 0.6574 0.03197 0.0
N269 N 0.75704 0.75543 0.93512 0.0
C270 C 0.82404 0.66883 0.0037 0.0
C271 C 0.77193 0.71896 0.9537 0.0
N272 N 0.74938 0.63309 0.06149 0.0
N273 N 0.81747 0.71594 0.8815 0.0
H274 H 0.73141 0.76691 0.95341 0.0
H275 H 0.77563 0.77926 0.90478 0.0
H276 H 0.84202 0.70464 0.86134 0.0
H277 H 0.79318 0.72702 0.86074 0.0
H278 H 0.76295 0.60774 0.07728 0.0
H279 H 0.71206 0.62746 0.07556 0.0
H280 H 0.8504 0.64942 0.06836 0.0
H281 H 0.8953 0.66201 0.02039 0.0
C282 C 0.28615 0.13724 0.07592 0.0
C283 C 0.32849 0.167 0.04175 0.0
C284 C 0.37274 0.11173 0.06056 0.0
C285 C 0.32934 0.08017 0.09353 0.0
N286 N 0.2524 0.0702 0.14101 0.0
N287 N 0.4239 0.19954 0.01877 0.0
C288 C 0.28844 0.09541 0.10399 0.0
C289 C 0.37564 0.15963 0.03942 0.0
N290 N 0.24294 0.14775 0.08022 0.0
N291 N 0.40914 0.09426 0.04691 0.0
H292 H 0.42872 0.23745 0.00651 0.0
H293 H 0.46096 0.19827 0.01963 0.0
H294 H 0.40805 0.05849 0.06027 0.0
H295 H 0.43725 0.11255 0.01893 0.0
H296 H 0.20706 0.12312 0.09996 0.0
H297 H 0.24244 0.18082 0.06264 0.0
H298 H 0.22445 0.08233 0.15325 0.0
H299 H 0.2536 0.03968 0.16214 0.0
C300 C 0.8751 0.17735 0.05771 0.0
C301 C 0.87543 0.22415 0.07953 0.0
C302 C 0.77516 0.18238 0.06392 0.0
C303 C 0.77794 0.14235 0.03398 0.0
N304 N 0.82847 0.09884 0.00281 0.0
N305 N 0.82613 0.27023 0.10749 0.0
C306 C 0.82705 0.1383 0.03172 0.0
C307 C 0.82522 0.22589 0.08445 0.0
N308 N 0.92077 0.17069 0.06128 0.0
N309 N 0.72466 0.17833 0.07275 0.0
H310 H 0.86141 0.30058 0.12563 0.0
H311 H 0.79291 0.27797 0.10751 0.0
H312 H 0.68746 0.14593 0.05877 0.0
H313 H 0.71879 0.2036 0.09707 0.0
H314 H 0.92145 0.13505 0.0497 0.0
H315 H 0.95661 0.19842 0.08002 0.0
H316 H 0.86482 0.0981 0.99458 0.0
H317 H 0.79336 0.06807 0.98484 0.0
C318 C 0.3346 0.15383 0.43229 0.0
C319 C 0.3147 0.13575 0.47914 0.0
C320 C 0.29878 0.21465 0.49029 0.0
C321 C 0.3155 0.23128 0.4424 0.0
N322 N 0.3383 0.21038 0.36475 0.0
N323 N 0.26346 0.13931 0.54746 0.0
C324 C 0.33015 0.19893 0.4124 0.0
C325 C 0.29223 0.16315 0.50646 0.0
N326 N 0.35976 0.12954 0.40761 0.0
N327 N 0.2925 0.24944 0.52143 0.0
H328 H 0.25666 0.10079 0.56006 0.0
H329 H 0.24136 0.15476 0.56617 0.0
H330 H 0.29861 0.28853 0.51192 0.0
H331 H 0.2868 0.242 0.55797 0.0
H332 H 0.38067 0.14506 0.37551 0.0
H333 H 0.36334 0.09614 0.42097 0.0
H334 H 0.3437 0.18493 0.34025 0.0
H335 H 0.33451 0.24258 0.34893 0.0
C336 C 0.85541 0.13354 0.47187 0.0
C337 C 0.84963 0.18114 0.46404 0.0
C338 C 0.7679 0.1254 0.41364 0.0
C339 C 0.7664 0.07629 0.43055 0.0
N340 N 0.81191 0.03235 0.47066 0.0
N341 N 0.80504 0.22536 0.42352 0.0
C342 C 0.81187 0.07994 0.45717 0.0
C343 C 0.80798 0.17824 0.43275 0.0
N344 N 0.90293 0.14016 0.49303 0.0
N345 N 0.73064 0.12089 0.37937 0.0
H346 H 0.83566 0.26493 0.43494 0.0
H347 H 0.77177 0.22524 0.40598 0.0
H348 H 0.70163 0.08229 0.36452 0.0
H349 H 0.73164 0.15504 0.36262 0.0
H350 H 0.91236 0.10816 0.49653 0.0
H351 H 0.93561 0.17947 0.50311 0.0
H352 H 0.83926 0.03163 0.49582 0.0
H353 H 0.7837 -0.00711 0.45722 0.0
C354 C 0.90177 0.74692 0.45714 0.0
C355 C 0.89629 0.69714 0.43734 0.0
C356 C 0.7962 0.64801 0.45332 0.0
C357 C 0.80437 0.69357 0.48249 0.0
N358 N 0.86369 0.788 0.51146 0.0
N359 N 0.83897 0.60082 0.41298 0.0
C360 C 0.85649 0.74419 0.48329 0.0
C361 C 0.84338 0.64804 0.43345 0.0
N362 N 0.95049 0.79629 0.45123 0.0
N363 N 0.74327 0.60507 0.44481 0.0
H364 H 0.87253 0.60045 0.39625 0.0
H365 H 0.80294 0.56168 0.4142 0.0
H366 H 0.70819 0.60547 0.45813 0.0
H367 H 0.73384 0.57232 0.42107 0.0
H368 H 0.95612 0.83511 0.46176 0.0
H369 H -0.0164 0.79868 0.43144 0.0
H370 H 0.90236 0.82337 0.51795 0.0
H371 H 0.83122 0.78789 0.53047 0.0
C372 C 0.2486 0.41784 0.26029 0.0
C373 C 0.22654 0.41936 0.30557 0.0
C374 C 0.14776 0.42074 0.26647 0.0
C375 C 0.16602 0.41182 0.22172 0.0
N376 N 0.22824 0.39038 0.17741 0.0
N377 N 0.14863 0.4103 0.35196 0.0
C378 C 0.2151 0.40747 0.21887 0.0
C379 C 0.17443 0.41782 0.30882 0.0
N380 N 0.30208 0.42772 0.25664 0.0
N381 N 0.1059 0.4335 0.26854 0.0
H382 H 0.16517 0.40538 0.3838 0.0
H383 H 0.10801 0.40303 0.35549 0.0
H384 H 0.08606 0.43712 0.23822 0.0
H385 H 0.09486 0.44602 0.29988 0.0
H386 H 0.32219 0.43276 0.22409 0.0
H387 H 0.32829 0.43651 0.28612 0.0
H388 H 0.26028 0.38092 0.17498 0.0
H389 H 0.20377 0.37995 0.14665 0.0
C390 C 0.61186 0.80663 0.20841 0.0
C391 C 0.57841 0.74771 0.20302 0.0
C392 C 0.54936 0.7398 0.28664 0.0
C393 C 0.57794 0.79923 0.29043 0.0
N394 N 0.62724 0.88937 0.25185 0.0
N395 N 0.50997 0.65818 0.23455 0.0
C396 C 0.60697 0.83277 0.25053 0.0
C397 C 0.54543 0.71426 0.24141 0.0
N398 N 0.6487 0.83769 0.17343 0.0
N399 N 0.52833 0.70774 0.3266 0.0
H400 H 0.50778 0.63769 0.20253 0.0
H401 H 0.48014 0.63277 0.25941 0.0
H402 H 0.53162 0.72479 0.36054 0.0
H403 H 0.51223 0.66454 0.32692 0.0
H404 H 0.67835 0.87992 0.17754 0.0
H405 H 0.65313 0.82019 0.14182 0.0
H406 H 0.64344 0.91506 0.22213 0.0
H407 H 0.62276 0.91008 0.28129 0.0
C408 C 0.16455 0.73758 0.19874 0.0
C409 C 0.21794 0.786 0.2053 0.0
C410 C 0.20525 0.77798 0.29192 0.0
C411 C 0.15388 0.72726 0.28544 0.0
N412 N 0.09038 0.65243 0.2335 0.0
N413 N 0.29447 0.84461 0.25784 0.0
C414 C 0.13534 0.70505 0.23904 0.0
C415 C 0.23996 0.80383 0.25186 0.0
N416 N 0.1401 0.72441 0.15458 0.0
N417 N 0.21957 0.80331 0.33577 0.0
H418 H 0.32145 0.86384 0.22928 0.0
H419 H 0.31434 0.85528 0.29095 0.0
H420 H 0.19464 0.78693 0.36589 0.0
H421 H 0.25352 0.84332 0.34133 0.0
H422 H 0.09891 0.69309 0.14878 0.0
H423 H 0.15884 0.74802 0.1242 0.0
H424 H 0.07852 0.63168 0.20073 0.0
H425 H 0.06817 0.62736 0.26231 0.0
C426 C 0.77177 0.56686 0.79157 0.0
C427 C 0.81911 0.55996 0.78587 0.0
C428 C 0.80927 0.55994 0.699 0.0
C429 C 0.75958 0.56276 0.70488 0.0
N430 N 0.686 0.55396 0.75665 0.0
N431 N 0.87525 0.5371 0.73495 0.0
C432 C 0.73843 0.56142 0.75119 0.0
C433 C 0.83538 0.55234 0.73977 0.0
N434 N 0.76043 0.58218 0.83478 0.0
N435 N 0.8337 0.56811 0.65515 0.0
H436 H 0.89493 0.53085 0.76414 0.0
H437 H 0.88477 0.5254 0.70243 0.0
H438 H 0.81742 0.57581 0.62443 0.0
H439 H 0.87302 0.5725 0.64996 0.0
H440 H 0.73014 0.5938 0.83935 0.0
H441 H 0.78477 0.58901 0.86518 0.0
H442 H 0.66643 0.54725 0.78967 0.0
H443 H 0.65981 0.54846 0.72781 0.0
C444 C 0.37823 0.14527 0.793 0.0
C445 C 0.37688 0.19625 0.7925 0.0
C446 C 0.37026 0.19126 0.70523 0.0
C447 C 0.37899 0.14456 0.70556 0.0
N448 N 0.4007 0.08272 0.74972 0.0
N449 N 0.38199 0.27331 0.74755 0.0
C450 C 0.38553 0.12302 0.74945 0.0
C451 C 0.3757 0.2208 0.74843 0.0
N452 N 0.36994 0.11661 0.8347 0.0
N453 N 0.35433 0.20603 0.6641 0.0
H454 H 0.38749 0.29703 0.77829 0.0
H455 H 0.38733 0.2955 0.71614 0.0
H456 H 0.34773 0.18426 0.632 0.0
H457 H 0.34191 0.23608 0.66297 0.0
H458 H 0.36483 0.07649 0.83623 0.0
H459 H 0.3623 0.13017 0.86715 0.0
H460 H 0.41195 0.06991 0.78067 0.0
H461 H 0.40712 0.06578 0.71862 0.0
C462 C 0.77392 0.23255 0.77878 0.0
C463 C 0.73183 0.17522 0.7816 0.0
C464 C 0.74734 0.16171 0.69772 0.0
C465 C 0.78562 0.22006 0.69374 0.0
N466 N 0.8261 0.31294 0.72779 0.0
N467 N 0.66949 0.0886 0.74098 0.0
C468 C 0.79618 0.25611 0.7335 0.0
C469 C 0.71582 0.14078 0.74021 0.0
N470 N 0.79487 0.26387 0.81942 0.0
N471 N 0.7431 0.12567 0.66209 0.0
H472 H 0.64443 0.07225 0.7711 0.0
H473 H 0.65271 0.06399 0.71049 0.0
H474 H 0.76683 0.13869 0.63102 0.0
H475 H 0.72022 0.08223 0.66548 0.0
H476 H 0.82966 0.30401 0.81965 0.0
H477 H 0.78116 0.24801 0.8535 0.0
H478 H 0.83017 0.34124 0.75447 0.0
H479 H 0.8422 0.33183 0.69498 0.0
C480 C -0.00534 0.44841 0.98967 0.0
C481 C 0.03377 0.47286 0.02758 0.0
C482 C 0.02821 0.55863 0.02163 0.0
C483 C -0.01581 0.53172 0.98771 0.0
N484 N 0.91891 0.44761 0.94546 0.0
N485 N 0.08294 0.54809 0.08413 0.0
C486 C 0.96578 0.47575 0.97311 0.0
C487 C 0.04895 0.52698 0.04504 0.0
N488 N -0.01486 0.39916 0.96931 0.0
N489 N 0.05237 0.61506 0.02963 0.0
H490 H 0.10098 0.52716 0.10087 0.0
H491 H 0.09009 0.58443 0.1019 0.0
H492 H 0.04016 0.64041 0.01191 0.0
H493 H 0.08829 0.63784 0.05016 0.0
H494 H 0.96189 0.38269 0.93818 0.0
H495 H 0.00414 0.37685 0.98115 0.0
H496 H 0.89997 0.40487 0.93803 0.0
H497 H 0.89561 0.46558 0.93364 0.0
C498 C 0.52912 0.50001 0.00432 0.0
C499 C 0.50152 0.53166 0.0094 0.0
C500 C 0.41449 0.45213 0.97933 0.0
C501 C 0.44096 0.41917 0.97781 0.0
N502 N 0.52116 0.40882 0.99349 0.0
N503 N 0.41656 0.536 0.00931 0.0
C504 C 0.49758 0.44226 0.99183 0.0
C505 C 0.44386 0.50731 0.99867 0.0
N506 N 0.58589 0.52572 0.00912 0.0
N507 N 0.36115 0.43062 0.96255 0.0
H508 H 0.43649 0.57609 0.02436 0.0
H509 H 0.37342 0.51851 0.00734 0.0
H510 H 0.33698 0.38947 0.95059 0.0
H511 H 0.34195 0.45452 0.95735 0.0
H512 H 0.60918 0.50674 1.00016 0.0
H513 H 0.61071 0.5677 0.01861 0.0
H514 H 0.55967 0.42101 0.00932 0.0
H515 H 0.50081 0.36738 0.98138 0.0
C516 C 0.45452 0.94493 0.98416 0.0
C517 C 0.44367 0.95583 0.03127 0.0
C518 C 0.51972 0.05314 0.02419 0.0
C519 C 0.53023 0.04212 0.97702 0.0
N520 N 0.48989 0.98483 0.90683 0.0
N521 N 0.48264 0.01366 0.10141 0.0
C522 C 0.49232 -0.00989 0.95533 0.0
C523 C 0.48112 0.00813 0.05293 0.0
N524 N 0.43267 0.8911 0.96815 0.0
N525 N 0.54307 0.10708 0.04033 0.0
H526 H 0.45984 0.97952 0.12378 0.0
H527 H 0.51215 0.04963 0.11928 0.0
H528 H 0.56516 0.14129 0.01788 0.0
H529 H 0.53325 0.11771 0.07321 0.0
H530 H 0.44297 0.88111 0.93518 0.0
H531 H 0.41191 0.85675 0.9907 0.0
H532 H 0.45998 0.94886 0.88918 0.0
H533 H 0.51226 0.01913 0.88449 0.0
C534 C 0.51249 0.98932 0.45392 0.0
C535 C 0.51404 0.94481 0.47812 0.0
C536 C 0.44818 0.94278 0.53766 0.0
C537 C 0.44343 0.98437 0.51179 0.0
N538 N 0.46502 0.04242 0.44188 0.0
N539 N 0.4716 0.86909 0.53434 0.0
C540 C 0.47344 0.00584 0.46865 0.0
C541 C 0.47844 0.91867 0.51753 0.0
N542 N 0.55012 0.01799 0.4187 0.0
N543 N 0.42421 0.92637 0.5816 0.0
H544 H 0.49058 0.84855 0.51839 0.0
H545 H 0.44225 0.84518 0.56009 0.0
H546 H 0.40043 0.94176 0.59743 0.0
H547 H 0.43173 0.9008 0.60409 0.0
H548 H 0.55586 0.05533 0.40437 0.0
H549 H 0.57846 0.00681 0.40563 0.0
H550 H 0.47989 0.05374 0.40724 0.0
H551 H 0.44048 0.05927 0.45323 0.0
C552 C 0.89716 0.42297 0.46272 0.0
C553 C 0.89897 0.42231 0.51326 0.0
C554 C 0.95878 0.52438 0.51407 0.0
C555 C 0.96639 0.52302 0.46403 0.0
N556 N 0.94568 0.47013 0.39059 0.0
N557 N 0.92956 0.47224 0.58794 0.0
C558 C 0.9358 0.47219 0.43812 0.0
C559 C 0.92902 0.47314 0.5392 0.0
N560 N 0.85841 0.37695 0.43822 0.0
N561 N 0.97794 0.57454 0.53725 0.0
H562 H 0.90434 0.43606 0.60746 0.0
H563 H 0.95646 0.50663 0.60885 0.0
H564 H -0.00178 0.61304 0.51991 0.0
H565 H 0.96879 0.57794 0.57272 0.0
H566 H 0.85235 0.37659 0.40151 0.0
H567 H 0.82763 0.34146 0.45522 0.0
H568 H 0.92916 0.43287 0.37114 0.0
H569 H 0.97435 0.50505 0.37138 0.0
C570 C 0.48518 0.54301 0.48416 0.0
C571 C 0.4461 0.48526 0.48991 0.0
C572 C 0.51416 0.47304 0.53734 0.0
C573 C 0.55394 0.53006 0.52952 0.0
N574 N 0.58169 0.61758 0.48973 0.0
N575 N 0.4235 0.39351 0.51834 0.0
C576 C 0.54063 0.56467 0.50142 0.0
C577 C 0.46077 0.44966 0.51522 0.0
N578 N 0.46909 0.57717 0.46251 0.0
N579 N 0.52668 0.44202 0.5677 0.0
H580 H 0.38242 0.37538 0.5064 0.0
H581 H 0.43374 0.36414 0.53065 0.0
H582 H 0.56569 0.45764 0.58391 0.0
H583 H 0.4977 0.40216 0.57953 0.0
H584 H 0.49328 0.62069 0.46218 0.0
H585 H 0.42979 0.56225 0.44708 0.0
H586 H 0.57645 0.64297 0.46532 0.0
H587 H 0.62282 0.63482 0.50158 0.0
loop_
_geom_bond_atom_site_label_1
_geom_bond_atom_site_label_2
_geom_bond_distance
_geom_bond_site_symmetry_2
_ccdc_geom_bond_type
C0 O1 1.160 . S
C0 O7 1.185 . S
O1 C0 1.160 . S
O2 Zn3 1.899 . S
O2 C10 1.284 . S
Zn3 O2 1.899 . S
Zn3 O4 2.032 . S
Zn3 O7 2.086 . S
Zn3 O12 1.977 1_455 S
O4 Zn3 2.032 . S
O4 C8 1.278 . S
C5 O6 1.203 . S
C5 O12 1.267 . S
O6 C5 1.203 . S
O7 C0 1.185 . S
O7 Zn3 2.086 . S
C8 O4 1.278 . S
C8 O9 1.211 1_554 S
O9 C8 1.211 1_556 S
C10 O2 1.284 . S
C10 O11 1.273 . S
O11 C10 1.273 . S
O12 Zn3 1.977 1_655 S
O12 C5 1.267 . S
C13 O14 1.160 . S
C13 O20 1.185 . S
O14 C13 1.160 . S
O15 Zn16 1.899 . S
O15 C23 1.284 . S
Zn16 O15 1.899 . S
Zn16 O17 2.032 . S
Zn16 O20 2.086 . S
Zn16 O25 1.977 . S
O17 Zn16 2.032 . S
O17 C21 1.278 . S
C18 O19 1.203 . S
C18 O25 1.267 . S
O19 C18 1.203 . S
O20 C13 1.185 . S
O20 Zn16 2.086 . S
C21 O17 1.278 . S
C21 O22 1.211 1_554 S
O22 C21 1.211 1_556 S
C23 O15 1.284 . S
C23 O24 1.273 . S
O24 C23 1.273 . S
O25 Zn16 1.977 . S
O25 C18 1.267 . S
C26 O27 1.160 . S
C26 O33 1.185 . S
O27 C26 1.160 . S
O28 Zn29 1.899 . S
O28 C36 1.284 . S
Zn29 O28 1.899 . S
Zn29 O30 2.032 . S
Zn29 O33 2.086 . S
Zn29 O38 1.977 1_565 S
O30 Zn29 2.032 . S
O30 C34 1.278 . S
C31 O32 1.203 . S
C31 O38 1.267 . S
O32 C31 1.203 . S
O33 C26 1.185 . S
O33 Zn29 2.086 . S
C34 O30 1.278 . S
C34 O35 1.211 1_554 S
O35 C34 1.211 1_556 S
C36 O28 1.284 . S
C36 O37 1.273 . S
O37 C36 1.273 . S
O38 Zn29 1.977 1_545 S
O38 C31 1.267 . S
C39 O40 1.160 . S
C39 O46 1.185 . S
O40 C39 1.160 . S
O41 Zn42 1.899 . S
O41 C49 1.284 . S
Zn42 O41 1.899 . S
Zn42 O43 2.032 . S
Zn42 O46 2.086 . S
Zn42 O51 1.977 1_565 S
O43 Zn42 2.032 . S
O43 C47 1.278 . S
C44 O45 1.203 . S
C44 O51 1.267 . S
O45 C44 1.203 . S
O46 C39 1.185 . S
O46 Zn42 2.086 . S
C47 O43 1.278 . S
C47 O48 1.211 . S
O48 C47 1.211 . S
C49 O41 1.284 . S
C49 O50 1.273 . S
O50 C49 1.273 . S
O51 Zn42 1.977 1_545 S
O51 C44 1.267 . S
C52 O53 1.160 . S
C52 O59 1.185 . S
O53 C52 1.160 . S
O54 Zn55 1.899 . S
O54 C62 1.284 . S
Zn55 O54 1.899 . S
Zn55 O56 2.032 . S
Zn55 O59 2.086 . S
Zn55 O64 1.977 1_455 S
O56 Zn55 2.032 . S
O56 C60 1.278 . S
C57 O58 1.203 . S
C57 O64 1.267 . S
O58 C57 1.203 . S
O59 C52 1.185 . S
O59 Zn55 2.086 . S
C60 O56 1.278 . S
C60 O61 1.211 . S
O61 C60 1.211 . S
C62 O54 1.284 . S
C62 O63 1.273 . S
O63 C62 1.273 . S
O64 Zn55 1.977 1_655 S
O64 C57 1.267 . S
C65 O66 1.160 . S
C65 O72 1.185 . S
O66 C65 1.160 . S
O67 Zn68 1.899 . S
O67 C75 1.284 . S
Zn68 O67 1.899 . S
Zn68 O69 2.032 . S
Zn68 O72 2.086 . S
Zn68 O77 1.977 . S
O69 Zn68 2.032 . S
O69 C73 1.278 . S
C70 O71 1.203 . S
C70 O77 1.267 . S
O71 C70 1.203 . S
O72 C65 1.185 . S
O72 Zn68 2.086 . S
C73 O69 1.278 . S
C73 O74 1.211 . S
O74 C73 1.211 . S
C75 O67 1.284 . S
C75 O76 1.273 . S
O76 C75 1.273 . S
O77 Zn68 1.977 . S
O77 C70 1.267 . S
C78 O79 1.160 . S
C78 O85 1.185 . S
O79 C78 1.160 . S
O80 Zn81 1.899 . S
O80 C88 1.284 . S
Zn81 O80 1.899 . S
Zn81 O82 2.032 . S
Zn81 O85 2.086 . S
Zn81 O90 1.977 1_655 S
O82 Zn81 2.032 . S
O82 C86 1.278 . S
C83 O84 1.203 . S
C83 O90 1.267 . S
O84 C83 1.203 . S
O85 C78 1.185 . S
O85 Zn81 2.086 . S
C86 O82 1.278 . S
C86 O87 1.211 1_556 S
O87 C86 1.211 1_554 S
C88 O80 1.284 . S
C88 O89 1.273 . S
O89 C88 1.273 . S
O90 Zn81 1.977 1_455 S
O90 C83 1.267 . S
C91 O92 1.160 . S
C91 O98 1.185 . S
O92 C91 1.160 . S
O93 Zn94 1.899 . S
O93 C101 1.284 . S
Zn94 O93 1.899 . S
Zn94 O95 2.032 . S
Zn94 O98 2.086 . S
Zn94 O103 1.977 . S
O95 Zn94 2.032 . S
O95 C99 1.278 . S
C96 O97 1.203 . S
C96 O103 1.267 . S
O97 C96 1.203 . S
O98 C91 1.185 . S
O98 Zn94 2.086 . S
C99 O95 1.278 . S
C99 O100 1.211 1_556 S
O100 C99 1.211 1_554 S
C101 O93 1.284 . S
C101 O102 1.273 . S
O102 C101 1.273 . S
O103 Zn94 1.977 . S
O103 C96 1.267 . S
C104 O105 1.160 . S
C104 O111 1.185 . S
O105 C104 1.160 . S
O106 Zn107 1.899 . S
O106 C114 1.284 . S
Zn107 O106 1.899 . S
Zn107 O108 2.032 . S
Zn107 O111 2.086 . S
Zn107 O116 1.977 1_545 S
O108 Zn107 2.032 . S
O108 C112 1.278 . S
C109 O110 1.203 . S
C109 O116 1.267 . S
O110 C109 1.203 . S
O111 C104 1.185 . S
O111 Zn107 2.086 . S
C112 O108 1.278 . S
C112 O113 1.211 1_556 S
O113 C112 1.211 1_554 S
C114 O106 1.284 . S
C114 O115 1.273 . S
O115 C114 1.273 . S
O116 Zn107 1.977 1_565 S
O116 C109 1.267 . S
C117 O118 1.160 . S
C117 O124 1.185 . S
O118 C117 1.160 . S
O119 Zn120 1.899 . S
O119 C127 1.284 . S
Zn120 O119 1.899 . S
Zn120 O121 2.032 . S
Zn120 O124 2.086 . S
Zn120 O129 1.977 1_545 S
O121 Zn120 2.032 . S
O121 C125 1.278 . S
C122 O123 1.203 . S
C122 O129 1.267 . S
O123 C122 1.203 . S
O124 C117 1.185 . S
O124 Zn120 2.086 . S
C125 O121 1.278 . S
C125 O126 1.211 . S
O126 C125 1.211 . S
C127 O119 1.284 . S
C127 O128 1.273 . S
O128 C127 1.273 . S
O129 Zn120 1.977 1_565 S
O129 C122 1.267 . S
C130 O131 1.160 . S
C130 O137 1.185 . S
O131 C130 1.160 . S
O132 Zn133 1.899 . S
O132 C140 1.284 . S
Zn133 O132 1.899 . S
Zn133 O134 2.032 . S
Zn133 O137 2.086 . S
Zn133 O142 1.977 1_655 S
O134 Zn133 2.032 . S
O134 C138 1.278 . S
C135 O136 1.203 . S
C135 O142 1.267 . S
O136 C135 1.203 . S
O137 C130 1.185 . S
O137 Zn133 2.086 . S
C138 O134 1.278 . S
C138 O139 1.211 . S
O139 C138 1.211 . S
C140 O132 1.284 . S
C140 O141 1.273 . S
O141 C140 1.273 . S
O142 Zn133 1.977 1_455 S
O142 C135 1.267 . S
C143 O144 1.160 . S
C143 O150 1.185 . S
O144 C143 1.160 . S
O145 Zn146 1.899 . S
O145 C153 1.284 . S
Zn146 O145 1.899 . S
Zn146 O147 2.032 . S
Zn146 O150 2.086 . S
Zn146 O155 1.977 . S
O147 Zn146 2.032 . S
O147 C151 1.278 . S
C148 O149 1.203 . S
C148 O155 1.267 . S
O149 C148 1.203 . S
O150 C143 1.185 . S
O150 Zn146 2.086 . S
C151 O147 1.278 . S
C151 O152 1.211 . S
O152 C151 1.211 . S
C153 O145 1.284 . S
C153 O154 1.273 . S
O154 C153 1.273 . S
O155 Zn146 1.977 . S
O155 C148 1.267 . S
C156 C157 1.363 . S
C156 C162 1.379 1_554 S
C156 N164 1.356 . S
C157 C156 1.363 . S
C157 C163 1.363 1_554 S
C158 C159 1.363 . S
C158 C163 1.379 . S
C158 N165 1.356 . S
C159 C158 1.363 . S
C159 C162 1.363 . S
N160 C162 1.356 . S
N160 H172 0.984 1_556 S
N160 H173 0.985 . S
N161 C163 1.356 . S
N161 H166 0.984 1_556 S
N161 H167 0.985 . S
C162 C156 1.379 1_556 S
C162 C159 1.363 . S
C162 N160 1.356 . S
C163 C157 1.363 1_556 S
C163 C158 1.379 . S
C163 N161 1.356 . S
N164 C156 1.356 . S
N164 H170 0.984 . S
N164 H171 0.984 . S
N165 C158 1.356 . S
N165 H168 0.984 . S
N165 H169 0.985 . S
H166 N161 0.984 1_554 S
H167 N161 0.985 . S
H168 N165 0.984 . S
H169 N165 0.985 . S
H170 N164 0.984 . S
H171 N164 0.984 . S
H172 N160 0.984 1_554 S
H173 N160 0.985 . S
C174 C175 1.363 . S
C174 C180 1.379 . S
C174 N182 1.356 . S
C175 C174 1.363 . S
C175 C181 1.363 1_554 S
C176 C177 1.363 . S
C176 C181 1.379 . S
C176 N183 1.356 . S
C177 C176 1.363 . S
C177 C180 1.363 1_556 S
N178 C180 1.356 . S
N178 H190 0.984 . S
N178 H191 0.985 1_554 S
N179 C181 1.356 . S
N179 H184 0.984 . S
N179 H185 0.985 . S
C180 C174 1.379 . S
C180 C177 1.363 1_554 S
C180 N178 1.356 . S
C181 C175 1.363 1_556 S
C181 C176 1.379 . S
C181 N179 1.356 . S
N182 C174 1.356 . S
N182 H188 0.984 . S
N182 H189 0.984 . S
N183 C176 1.356 . S
N183 H186 0.984 . S
N183 H187 0.985 . S
H184 N179 0.984 . S
H185 N179 0.985 . S
H186 N183 0.984 . S
H187 N183 0.985 . S
H188 N182 0.984 . S
H189 N182 0.984 . S
H190 N178 0.984 . S
H191 N178 0.985 1_556 S
C192 C193 1.363 1_556 S
C192 C198 1.379 . S
C192 N200 1.356 . S
C193 C192 1.363 1_554 S
C193 C199 1.363 . S
C194 C195 1.363 . S
C194 C199 1.379 1_556 S
C194 N201 1.356 . S
C195 C194 1.363 . S
C195 C198 1.363 . S
N196 C198 1.356 . S
N196 H208 0.984 . S
N196 H209 0.985 . S
N197 C199 1.356 . S
N197 H202 0.984 . S
N197 H203 0.985 . S
C198 C192 1.379 . S
C198 C195 1.363 . S
C198 N196 1.356 . S
C199 C193 1.363 . S
C199 C194 1.379 1_554 S
C199 N197 1.356 . S
N200 C192 1.356 . S
N200 H206 0.984 . S
N200 H207 0.984 1_556 S
N201 C194 1.356 . S
N201 H204 0.984 . S
N201 H205 0.985 . S
H202 N197 0.984 . S
H203 N197 0.985 . S
H204 N201 0.984 . S
H205 N201 0.985 . S
H206 N200 0.984 . S
H207 N200 0.984 1_554 S
H208 N196 0.984 . S
H209 N196 0.985 . S
C210 C211 1.363 . S
C210 C216 1.379 . S
C210 N218 1.356 . S
C211 C210 1.363 . S
C211 C217 1.363 . S
C212 C213 1.363 . S
C212 C217 1.379 . S
C212 N219 1.356 . S
C213 C212 1.363 . S
C213 C216 1.363 . S
N214 C216 1.356 . S
N214 H226 0.984 . S
N214 H227 0.985 . S
N215 C217 1.356 . S
N215 H220 0.984 . S
N215 H221 0.985 . S
C216 C210 1.379 . S
C216 C213 1.363 . S
C216 N214 1.356 . S
C217 C211 1.363 . S
C217 C212 1.379 . S
C217 N215 1.356 . S
N218 C210 1.356 . S
N218 H224 0.984 . S
N218 H225 0.984 . S
N219 C212 1.356 . S
N219 H222 0.984 . S
N219 H223 0.985 . S
H220 N215 0.984 . S
H221 N215 0.985 . S
H222 N219 0.984 . S
H223 N219 0.985 . S
H224 N218 0.984 . S
H225 N218 0.984 . S
H226 N214 0.984 . S
H227 N214 0.985 . S
C228 C229 1.363 . S
C228 C234 1.379 . S
C228 N236 1.356 . S
C229 C228 1.363 . S
C229 C235 1.363 . S
C230 C231 1.363 . S
C230 C235 1.379 . S
C230 N237 1.356 . S
C231 C230 1.363 . S
C231 C234 1.363 . S
N232 C234 1.356 . S
N232 H244 0.984 . S
N232 H245 0.985 . S
N233 C235 1.356 . S
N233 H238 0.984 . S
N233 H239 0.985 . S
C234 C228 1.379 . S
C234 C231 1.363 . S
C234 N232 1.356 . S
C235 C229 1.363 . S
C235 C230 1.379 . S
C235 N233 1.356 . S
N236 C228 1.356 . S
N236 H242 0.984 . S
N236 H243 0.984 . S
N237 C230 1.356 . S
N237 H240 0.984 . S
N237 H241 0.985 . S
H238 N233 0.984 . S
H239 N233 0.985 . S
H240 N237 0.984 . S
H241 N237 0.985 . S
H242 N236 0.984 . S
H243 N236 0.984 . S
H244 N232 0.984 . S
H245 N232 0.985 . S
C246 C247 1.363 . S
C246 C252 1.379 . S
C246 N254 1.356 . S
C247 C246 1.363 . S
C247 C253 1.363 . S
C248 C249 1.363 . S
C248 C253 1.379 . S
C248 N255 1.356 . S
C249 C248 1.363 . S
C249 C252 1.363 . S
N250 C252 1.356 . S
N250 H262 0.984 . S
N250 H263 0.985 . S
N251 C253 1.356 . S
N251 H256 0.984 . S
N251 H257 0.985 . S
C252 C246 1.379 . S
C252 C249 1.363 . S
C252 N250 1.356 . S
C253 C247 1.363 . S
C253 C248 1.379 . S
C253 N251 1.356 . S
N254 C246 1.356 . S
N254 H260 0.984 . S
N254 H261 0.984 . S
N255 C248 1.356 . S
N255 H258 0.984 . S
N255 H259 0.985 . S
H256 N251 0.984 . S
H257 N251 0.985 . S
H258 N255 0.984 . S
H259 N255 0.985 . S
H260 N254 0.984 . S
H261 N254 0.984 . S
H262 N250 0.984 . S
H263 N250 0.985 . S
C264 C265 1.363 . S
C264 C270 1.379 . S
C264 N272 1.356 . S
C265 C264 1.363 . S
C265 C271 1.363 1_554 S
C266 C267 1.363 . S
C266 C271 1.379 . S
C266 N273 1.356 . S
C267 C266 1.363 . S
C267 C270 1.363 1_556 S
N268 C270 1.356 . S
N268 H280 0.984 . S
N268 H281 0.985 . S
N269 C271 1.356 . S
N269 H274 0.984 1_556 S
N269 H275 0.985 . S
C270 C264 1.379 . S
C270 C267 1.363 1_554 S
C270 N268 1.356 . S
C271 C265 1.363 1_556 S
C271 C266 1.379 . S
C271 N269 1.356 . S
N272 C264 1.356 . S
N272 H278 0.984 . S
N272 H279 0.984 . S
N273 C266 1.356 . S
N273 H276 0.984 . S
N273 H277 0.985 . S
H274 N269 0.984 1_554 S
H275 N269 0.985 . S
H276 N273 0.984 . S
H277 N273 0.985 . S
H278 N272 0.984 . S
H279 N272 0.984 . S
H280 N268 0.984 . S
H281 N268 0.985 . S
C282 C283 1.363 1_554 S
C282 C288 1.379 . S
C282 N290 1.356 . S
C283 C282 1.363 1_556 S
C283 C289 1.363 . S
C284 C285 1.375 . S
C284 C289 1.371 1_554 S
C284 N291 1.356 1_554 S
C285 C284 1.375 . S
C285 C288 1.363 . S
N286 C288 1.356 . S
N286 H298 0.984 . S
N286 H299 0.985 . S
N287 C289 1.356 . S
N287 H292 0.984 . S
N287 H293 0.985 . S
C288 C282 1.379 . S
C288 C285 1.363 . S
C288 N286 1.356 . S
C289 C283 1.363 . S
C289 C284 1.371 1_556 S
C289 N287 1.356 . S
N290 C282 1.356 . S
N290 H296 0.984 . S
N290 H297 0.984 . S
N291 C284 1.356 1_556 S
N291 H294 0.984 1_556 S
N291 H295 0.985 . S
H292 N287 0.984 . S
H293 N287 0.985 . S
H294 N291 0.984 1_554 S
H295 N291 0.985 . S
H296 N290 0.984 . S
H297 N290 0.984 . S
H298 N286 0.984 . S
H299 N286 0.985 . S
C300 C301 1.358 1_556 S
C300 C306 1.382 . S
C300 N308 1.357 . S
C301 C300 1.358 1_554 S
C301 C307 1.363 . S
C302 C303 1.363 1_554 S
C302 C307 1.379 . S
C302 N309 1.356 . S
C303 C302 1.363 1_556 S
C303 C306 1.363 . S
N304 C306 1.356 . S
N304 H316 0.984 . S
N304 H317 0.985 . S
N305 C307 1.356 . S
N305 H310 0.984 . S
N305 H311 0.985 . S
C306 C300 1.382 . S
C306 C303 1.363 . S
C306 N304 1.356 . S
C307 C301 1.363 . S
C307 C302 1.379 . S
C307 N305 1.356 . S
N308 C300 1.357 . S
N308 H314 0.984 . S
N308 H315 0.984 1_556 S
N309 C302 1.356 . S
N309 H312 0.984 . S
N309 H313 0.985 . S
H310 N305 0.984 . S
H311 N305 0.985 . S
H312 N309 0.984 . S
H313 N309 0.985 . S
H314 N308 0.984 . S
H315 N308 0.984 1_554 S
H316 N304 0.984 . S
H317 N304 0.985 . S
C318 C319 1.363 . S
C318 C324 1.379 . S
C318 N326 1.356 . S
C319 C318 1.363 . S
C319 C325 1.363 . S
C320 C321 1.363 . S
C320 C325 1.379 . S
C320 N327 1.356 . S
C321 C320 1.363 . S
C321 C324 1.363 . S
N322 C324 1.356 . S
N322 H334 0.984 . S
N322 H335 0.985 . S
N323 C325 1.356 . S
N323 H328 0.984 . S
N323 H329 0.985 . S
C324 C318 1.379 . S
C324 C321 1.363 . S
C324 N322 1.356 . S
C325 C319 1.363 . S
C325 C320 1.379 . S
C325 N323 1.356 . S
N326 C318 1.356 . S
N326 H332 0.984 . S
N326 H333 0.984 . S
N327 C320 1.356 . S
N327 H330 0.984 . S
N327 H331 0.985 . S
H328 N323 0.984 . S
H329 N323 0.985 . S
H330 N327 0.984 . S
H331 N327 0.985 . S
H332 N326 0.984 . S
H333 N326 0.984 . S
H334 N322 0.984 . S
H335 N322 0.985 . S
C336 C337 1.363 . S
C336 C342 1.379 . S
C336 N344 1.356 . S
C337 C336 1.363 . S
C337 C343 1.363 . S
C338 C339 1.363 . S
C338 C343 1.379 . S
C338 N345 1.356 . S
C339 C338 1.363 . S
C339 C342 1.363 . S
N340 C342 1.356 . S
N340 H352 0.984 . S
N340 H353 0.985 . S
N341 C343 1.356 . S
N341 H346 0.984 . S
N341 H347 0.985 . S
C342 C336 1.379 . S
C342 C339 1.363 . S
C342 N340 1.356 . S
C343 C337 1.363 . S
C343 C338 1.379 . S
C343 N341 1.356 . S
N344 C336 1.356 . S
N344 H350 0.984 . S
N344 H351 0.984 . S
N345 C338 1.356 . S
N345 H348 0.984 . S
N345 H349 0.985 . S
H346 N341 0.984 . S
H347 N341 0.985 . S
H348 N345 0.984 . S
H349 N345 0.985 . S
H350 N344 0.984 . S
H351 N344 0.984 . S
H352 N340 0.984 . S
H353 N340 0.985 . S
C354 C355 1.363 . S
C354 C360 1.379 . S
C354 N362 1.356 . S
C355 C354 1.363 . S
C355 C361 1.363 . S
C356 C357 1.363 . S
C356 C361 1.379 . S
C356 N363 1.356 . S
C357 C356 1.363 . S
C357 C360 1.363 . S
N358 C360 1.356 . S
N358 H370 0.984 . S
N358 H371 0.985 . S
N359 C361 1.356 . S
N359 H364 0.984 . S
N359 H365 0.985 . S
C360 C354 1.379 . S
C360 C357 1.363 . S
C360 N358 1.356 . S
C361 C355 1.363 . S
C361 C356 1.379 . S
C361 N359 1.356 . S
N362 C354 1.356 . S
N362 H368 0.984 . S
N362 H369 0.984 . S
N363 C356 1.356 . S
N363 H366 0.984 . S
N363 H367 0.985 . S
H364 N359 0.984 . S
H365 N359 0.985 . S
H366 N363 0.984 . S
H367 N363 0.985 . S
H368 N362 0.984 . S
H369 N362 0.984 . S
H370 N358 0.984 . S
H371 N358 0.985 . S
C372 C373 1.363 . S
C372 C378 1.379 . S
C372 N380 1.356 . S
C373 C372 1.363 . S
C373 C379 1.363 . S
C374 C375 1.363 . S
C374 C379 1.379 . S
C374 N381 1.356 . S
C375 C374 1.363 . S
C375 C378 1.363 . S
N376 C378 1.356 . S
N376 H388 0.984 . S
N376 H389 0.985 . S
N377 C379 1.356 . S
N377 H382 0.984 . S
N377 H383 0.985 . S
C378 C372 1.379 . S
C378 C375 1.363 . S
C378 N376 1.356 . S
C379 C373 1.363 . S
C379 C374 1.379 . S
C379 N377 1.356 . S
N380 C372 1.356 . S
N380 H386 0.984 . S
N380 H387 0.984 . S
N381 C374 1.356 . S
N381 H384 0.984 . S
N381 H385 0.985 . S
H382 N377 0.984 . S
H383 N377 0.985 . S
H384 N381 0.984 . S
H385 N381 0.985 . S
H386 N380 0.984 . S
H387 N380 0.984 . S
H388 N376 0.984 . S
H389 N376 0.985 . S
C390 C391 1.363 . S
C390 C396 1.379 . S
C390 N398 1.356 . S
C391 C390 1.363 . S
C391 C397 1.363 . S
C392 C393 1.363 . S
C392 C397 1.379 . S
C392 N399 1.356 . S
C393 C392 1.363 . S
C393 C396 1.363 . S
N394 C396 1.356 . S
N394 H406 0.984 . S
N394 H407 0.985 . S
N395 C397 1.356 . S
N395 H400 0.984 . S
N395 H401 0.985 . S
C396 C390 1.379 . S
C396 C393 1.363 . S
C396 N394 1.356 . S
C397 C391 1.363 . S
C397 C392 1.379 . S
C397 N395 1.356 . S
N398 C390 1.356 . S
N398 H404 0.984 . S
N398 H405 0.984 . S
N399 C392 1.356 . S
N399 H402 0.984 . S
N399 H403 0.985 . S
H400 N395 0.984 . S
H401 N395 0.985 . S
H402 N399 0.984 . S
H403 N399 0.985 . S
H404 N398 0.984 . S
H405 N398 0.984 . S
H406 N394 0.984 . S
H407 N394 0.985 . S
C408 C409 1.363 . S
C408 C414 1.379 . S
C408 N416 1.356 . S
C409 C408 1.363 . S
C409 C415 1.363 . S
C410 C411 1.363 . S
C410 C415 1.379 . S
C410 N417 1.356 . S
C411 C410 1.363 . S
C411 C414 1.363 . S
N412 C414 1.356 . S
N412 H424 0.984 . S
N412 H425 0.985 . S
N413 C415 1.356 . S
N413 H418 0.984 . S
N413 H419 0.985 . S
C414 C408 1.379 . S
C414 C411 1.363 . S
C414 N412 1.356 . S
C415 C409 1.363 . S
C415 C410 1.379 . S
C415 N413 1.356 . S
N416 C408 1.356 . S
N416 H422 0.984 . S
N416 H423 0.984 . S
N417 C410 1.356 . S
N417 H420 0.984 . S
N417 H421 0.985 . S
H418 N413 0.984 . S
H419 N413 0.985 . S
H420 N417 0.984 . S
H421 N417 0.985 . S
H422 N416 0.984 . S
H423 N416 0.984 . S
H424 N412 0.984 . S
H425 N412 0.985 . S
C426 C427 1.363 . S
C426 C432 1.379 . S
C426 N434 1.356 . S
C427 C426 1.363 . S
C427 C433 1.363 . S
C428 C429 1.363 . S
C428 C433 1.379 . S
C428 N435 1.356 . S
C429 C428 1.363 . S
C429 C432 1.363 . S
N430 C432 1.356 . S
N430 H442 0.984 . S
N430 H443 0.985 . S
N431 C433 1.356 . S
N431 H436 0.984 . S
N431 H437 0.985 . S
C432 C426 1.379 . S
C432 C429 1.363 . S
C432 N430 1.356 . S
C433 C427 1.363 . S
C433 C428 1.379 . S
C433 N431 1.356 . S
N434 C426 1.356 . S
N434 H440 0.984 . S
N434 H441 0.984 . S
N435 C428 1.356 . S
N435 H438 0.984 . S
N435 H439 0.985 . S
H436 N431 0.984 . S
H437 N431 0.985 . S
H438 N435 0.984 . S
H439 N435 0.985 . S
H440 N434 0.984 . S
H441 N434 0.984 . S
H442 N430 0.984 . S
H443 N430 0.985 . S
C444 C445 1.363 . S
C444 C450 1.379 . S
C444 N452 1.356 . S
C445 C444 1.363 . S
C445 C451 1.363 . S
C446 C447 1.363 . S
C446 C451 1.379 . S
C446 N453 1.356 . S
C447 C446 1.363 . S
C447 C450 1.363 . S
N448 C450 1.356 . S
N448 H460 0.984 . S
N448 H461 0.985 . S
N449 C451 1.356 . S
N449 H454 0.984 . S
N449 H455 0.985 . S
C450 C444 1.379 . S
C450 C447 1.363 . S
C450 N448 1.356 . S
C451 C445 1.363 . S
C451 C446 1.379 . S
C451 N449 1.356 . S
N452 C444 1.356 . S
N452 H458 0.984 . S
N452 H459 0.984 . S
N453 C446 1.356 . S
N453 H456 0.984 . S
N453 H457 0.985 . S
H454 N449 0.984 . S
H455 N449 0.985 . S
H456 N453 0.984 . S
H457 N453 0.985 . S
H458 N452 0.984 . S
H459 N452 0.984 . S
H460 N448 0.984 . S
H461 N448 0.985 . S
C462 C463 1.363 . S
C462 C468 1.379 . S
C462 N470 1.356 . S
C463 C462 1.363 . S
C463 C469 1.363 . S
C464 C465 1.363 . S
C464 C469 1.379 . S
C464 N471 1.356 . S
C465 C464 1.363 . S
C465 C468 1.363 . S
N466 C468 1.356 . S
N466 H478 0.984 . S
N466 H479 0.985 . S
N467 C469 1.356 . S
N467 H472 0.984 . S
N467 H473 0.985 . S
C468 C462 1.379 . S
C468 C465 1.363 . S
C468 N466 1.356 . S
C469 C463 1.363 . S
C469 C464 1.379 . S
C469 N467 1.356 . S
N470 C462 1.356 . S
N470 H476 0.984 . S
N470 H477 0.984 . S
N471 C464 1.356 . S
N471 H474 0.984 . S
N471 H475 0.985 . S
H472 N467 0.984 . S
H473 N467 0.985 . S
H474 N471 0.984 . S
H475 N471 0.985 . S
H476 N470 0.984 . S
H477 N470 0.984 . S
H478 N466 0.984 . S
H479 N466 0.985 . S
C480 C481 1.363 1_556 S
C480 C486 1.379 1_455 S
C480 N488 1.356 . S
C481 C480 1.363 1_554 S
C481 C487 1.363 . S
C482 C483 1.363 1_554 S
C482 C487 1.379 1_655 S
C482 N489 1.356 . S
C483 C482 1.363 1_556 S
C483 C486 1.363 . S
N484 C486 1.356 . S
N484 H496 0.984 . S
N484 H497 0.985 . S
N485 C487 1.356 . S
N485 H490 0.984 . S
N485 H491 0.985 . S
C486 C480 1.379 1_655 S
C486 C483 1.363 . S
C486 N484 1.356 . S
C487 C481 1.363 . S
C487 C482 1.379 1_455 S
C487 N485 1.356 . S
N488 C480 1.356 . S
N488 H494 0.984 1_455 S
N488 H495 0.984 1_556 S
N489 C482 1.356 . S
N489 H492 0.984 1_554 S
N489 H493 0.985 1_655 S
H490 N485 0.984 . S
H491 N485 0.985 . S
H492 N489 0.984 1_556 S
H493 N489 0.985 1_455 S
H494 N488 0.984 1_655 S
H495 N488 0.984 1_554 S
H496 N484 0.984 . S
H497 N484 0.985 . S
C498 C499 1.363 . S
C498 C504 1.379 . S
C498 N506 1.356 . S
C499 C498 1.363 . S
C499 C505 1.363 1_554 S
C500 C501 1.363 . S
C500 C505 1.379 . S
C500 N507 1.356 . S
C501 C500 1.363 . S
C501 C504 1.363 1_556 S
N502 C504 1.356 . S
N502 H514 0.984 . S
N502 H515 0.985 1_554 S
N503 C505 1.356 . S
N503 H508 0.984 1_556 S
N503 H509 0.985 . S
C504 C498 1.379 . S
C504 C501 1.363 1_554 S
C504 N502 1.356 . S
C505 C499 1.363 1_556 S
C505 C500 1.379 . S
C505 N503 1.356 . S
N506 C498 1.356 . S
N506 H512 0.984 . S
N506 H513 0.984 . S
N507 C500 1.356 . S
N507 H510 0.984 . S
N507 H511 0.985 . S
H508 N503 0.984 1_554 S
H509 N503 0.985 . S
H510 N507 0.984 . S
H511 N507 0.985 . S
H512 N506 0.984 . S
H513 N506 0.984 . S
H514 N502 0.984 . S
H515 N502 0.985 1_556 S
C516 C517 1.363 . S
C516 C522 1.379 1_554 S
C516 N524 1.356 . S
C517 C516 1.363 . S
C517 C523 1.363 1_565 S
C518 C519 1.363 . S
C518 C523 1.379 1_556 S
C518 N525 1.356 . S
C519 C518 1.363 . S
C519 C522 1.363 1_545 S
N520 C522 1.356 . S
N520 H532 0.984 . S
N520 H533 0.985 . S
N521 C523 1.356 . S
N521 H526 0.984 . S
N521 H527 0.985 . S
C522 C516 1.379 1_556 S
C522 C519 1.363 1_565 S
C522 N520 1.356 . S
C523 C517 1.363 1_545 S
C523 C518 1.379 1_554 S
C523 N521 1.356 . S
N524 C516 1.356 . S
N524 H530 0.984 . S
N524 H531 0.984 . S
N525 C518 1.356 . S
N525 H528 0.984 . S
N525 H529 0.985 . S
H526 N521 0.984 . S
H527 N521 0.985 . S
H528 N525 0.984 . S
H529 N525 0.985 . S
H530 N524 0.984 . S
H531 N524 0.984 . S
H532 N520 0.984 . S
H533 N520 0.985 . S
C534 C535 1.363 1_545 S
C534 C540 1.379 . S
C534 N542 1.356 . S
C535 C534 1.363 1_565 S
C535 C541 1.363 . S
C536 C537 1.363 1_565 S
C536 C541 1.379 . S
C536 N543 1.356 . S
C537 C536 1.363 1_545 S
C537 C540 1.363 . S
N538 C540 1.356 . S
N538 H550 0.984 . S
N538 H551 0.985 . S
N539 C541 1.356 . S
N539 H544 0.984 . S
N539 H545 0.985 . S
C540 C534 1.379 . S
C540 C537 1.363 . S
C540 N538 1.356 . S
C541 C535 1.363 . S
C541 C536 1.379 . S
C541 N539 1.356 . S
N542 C534 1.356 . S
N542 H548 0.984 . S
N542 H549 0.984 . S
N543 C536 1.356 . S
N543 H546 0.984 . S
N543 H547 0.985 . S
H544 N539 0.984 . S
H545 N539 0.985 . S
H546 N543 0.984 . S
H547 N543 0.985 . S
H548 N542 0.984 . S
H549 N542 0.984 . S
H550 N538 0.984 . S
H551 N538 0.985 . S
C552 C553 1.363 . S
C552 C558 1.379 . S
C552 N560 1.356 . S
C553 C552 1.363 . S
C553 C559 1.363 1_655 S
C554 C555 1.363 . S
C554 C559 1.379 . S
C554 N561 1.356 . S
C555 C554 1.363 . S
C555 C558 1.363 1_455 S
N556 C558 1.356 . S
N556 H568 0.984 . S
N556 H569 0.985 1_655 S
N557 C559 1.356 . S
N557 H562 0.984 1_455 S
N557 H563 0.985 . S
C558 C552 1.379 . S
C558 C555 1.363 1_655 S
C558 N556 1.356 . S
C559 C553 1.363 1_455 S
C559 C554 1.379 . S
C559 N557 1.356 . S
N560 C552 1.356 . S
N560 H566 0.984 . S
N560 H567 0.984 . S
N561 C554 1.356 . S
N561 H564 0.984 . S
N561 H565 0.985 . S
H562 N557 0.984 1_655 S
H563 N557 0.985 . S
H564 N561 0.984 . S
H565 N561 0.985 . S
H566 N560 0.984 . S
H567 N560 0.984 . S
H568 N556 0.984 . S
H569 N556 0.985 1_455 S
C570 C571 1.363 . S
C570 C576 1.379 . S
C570 N578 1.356 . S
C571 C570 1.363 . S
C571 C577 1.363 . S
C572 C573 1.363 . S
C572 C577 1.379 . S
C572 N579 1.356 . S
C573 C572 1.363 . S
C573 C576 1.363 . S
N574 C576 1.356 . S
N574 H586 0.984 . S
N574 H587 0.985 . S
N575 C577 1.356 . S
N575 H580 0.984 . S
N575 H581 0.985 . S
C576 C570 1.379 . S
C576 C573 1.363 . S
C576 N574 1.356 . S
C577 C571 1.363 . S
C577 C572 1.379 . S
C577 N575 1.356 . S
N578 C570 1.356 . S
N578 H584 0.984 . S
N578 H585 0.984 . S
N579 C572 1.356 . S
N579 H582 0.984 . S
N579 H583 0.985 . S
H580 N575 0.984 . S
H581 N575 0.985 . S
H582 N579 0.984 . S
H583 N579 0.985 . S
H584 N578 0.984 . S
H585 N578 0.984 . S
H586 N574 0.984 . S
H587 N574 0.985 . S
C157 C8 0.905 . S
C159 C96 0.892 . S
C175 C21 0.905 . S
C177 C109 0.892 . S
C193 C34 0.905 . S
C195 C83 0.892 . S
C211 C148 0.892 . S
C213 C47 0.905 . S
C229 C60 0.905 . S
C231 C122 0.892 . S
C247 C135 0.892 . S
C249 C73 0.905 . S
C265 C18 0.892 . S
C267 C86 0.905 . S
C283 C99 0.905 . S
C285 C31 0.892 . S
C301 C5 0.892 . S
C303 C112 0.905 . S
C319 C125 0.905 . S
C321 C70 0.892 . S
C337 C138 0.905 . S
C339 C44 0.892 . S
C355 C57 0.892 . S
C357 C151 0.905 . S
C373 C65 1.798 . S
C375 C0 1.798 . S
C391 C13 1.798 . S
C393 C39 1.798 . S
C409 C26 1.798 . S
C411 C52 1.798 . S
C427 C78 1.798 . S
C429 C143 1.798 . S
C445 C91 1.798 . S
C447 C117 1.798 . S
C463 C104 1.798 . S
C465 C130 1.798 . S
C481 C10 1.553 . S
C483 C88 1.553 . S
C499 C23 1.553 . S
C501 C101 1.553 . S
C517 C36 1.553 . S
C519 C114 1.553 . S
C535 C49 1.553 . S
C537 C127 1.553 . S
C553 C140 1.553 . S
C555 C62 1.553 . S
C571 C75 1.553 . S
C573 C153 1.553 . S
