# Generated by pormake.
# Topology umo, (4)-cn, num edge types: 1
# Building blocks:
#     Node 0, Type 0, BuildingBlock: KUFVIS_clean_sbu_0, # of connection points: 4
#     Node 1, Type 0, BuildingBlock: KUFVIS_clean_sbu_0, # of connection points: 4
#     Node 2, Type 0, BuildingBlock: KUFVIS_clean_sbu_0, # of connection points: 4
#     Node 3, Type 0, BuildingBlock: KUFVIS_clean_sbu_0, # of connection points: 4
#     Node 4, Type 0, BuildingBlock: KUFVIS_clean_sbu_0, # of connection points: 4
#     Node 5, Type 0, BuildingBlock: KUFVIS_clean_sbu_0, # of connection points: 4
#     Node 6, Type 0, BuildingBlock: KUFVIS_clean_sbu_0, # of connection points: 4
#     Node 7, Type 0, BuildingBlock: KUFVIS_clean_sbu_0, # of connection points: 4
#     Node 8, Type 0, BuildingBlock: KUFVIS_clean_sbu_0, # of connection points: 4
#     Node 9, Type 0, BuildingBlock: KUFVIS_clean_sbu_0, # of connection points: 4
#     Node 10, Type 0, BuildingBlock: KUFVIS_clean_sbu_0, # of connection points: 4
#     Node 11, Type 0, BuildingBlock: KUFVIS_clean_sbu_0, # of connection points: 4
#     Edge 12, Type (0, 0), BuildingBlock: UVAHIK_clean_linker_0, # of connection points: 2
#     Edge 13, Type (0, 0), BuildingBlock: UVAHIK_clean_linker_0, # of connection points: 2
#     Edge 14, Type (0, 0), BuildingBlock: UVAHIK_clean_linker_0, # of connection points: 2
#     Edge 15, Type (0, 0), BuildingBlock: UVAHIK_clean_linker_0, # of connection points: 2
#     Edge 16, Type (0, 0), BuildingBlock: UVAHIK_clean_linker_0, # of connection points: 2
#     Edge 17, Type (0, 0), BuildingBlock: UVAHIK_clean_linker_0, # of connection points: 2
#     Edge 18, Type (0, 0), BuildingBlock: UVAHIK_clean_linker_0, # of connection points: 2
#     Edge 19, Type (0, 0), BuildingBlock: UVAHIK_clean_linker_0, # of connection points: 2
#     Edge 20, Type (0, 0), BuildingBlock: UVAHIK_clean_linker_0, # of connection points: 2
#     Edge 21, Type (0, 0), BuildingBlock: UVAHIK_clean_linker_0, # of connection points: 2
#     Edge 22, Type (0, 0), BuildingBlock: UVAHIK_clean_linker_0, # of connection points: 2
#     Edge 23, Type (0, 0), BuildingBlock: UVAHIK_clean_linker_0, # of connection points: 2
#     Edge 24, Type (0, 0), BuildingBlock: UVAHIK_clean_linker_0, # of connection points: 2
#     Edge 25, Type (0, 0), BuildingBlock: UVAHIK_clean_linker_0, # of connection points: 2
#     Edge 26, Type (0, 0), BuildingBlock: UVAHIK_clean_linker_0, # of connection points: 2
#     Edge 27, Type (0, 0), BuildingBlock: UVAHIK_clean_linker_0, # of connection points: 2
#     Edge 28, Type (0, 0), BuildingBlock: UVAHIK_clean_linker_0, # of connection points: 2
#     Edge 29, Type (0, 0), BuildingBlock: UVAHIK_clean_linker_0, # of connection points: 2
#     Edge 30, Type (0, 0), BuildingBlock: UVAHIK_clean_linker_0, # of connection points: 2
#     Edge 31, Type (0, 0), BuildingBlock: UVAHIK_clean_linker_0, # of connection points: 2
#     Edge 32, Type (0, 0), BuildingBlock: UVAHIK_clean_linker_0, # of connection points: 2
#     Edge 33, Type (0, 0), BuildingBlock: UVAHIK_clean_linker_0, # of connection points: 2
#     Edge 34, Type (0, 0), BuildingBlock: UVAHIK_clean_linker_0, # of connection points: 2
#     Edge 35, Type (0, 0), BuildingBlock: UVAHIK_clean_linker_0, # of connection points: 2
# Relax obj value: 0.197
# Max RMSD: 0.251
# Mean RMSD: 0.251
data_MOF--net-umo--node1-KUFVIS_clean_sbu_0--edge1-UVAHIK_clean_linker_0
_symmetry_space_group_name_H-M    P1
_symmetry_Int_Tables_number       1
_symmetry_cell_setting            triclinic
loop_
_symmetry_equiv_pos_as_xyz
'x, y, z'
_cell_length_a     60.064711
_cell_length_b     60.02433
_cell_length_c     50.183025
_cell_angle_alpha  90.001432
_cell_angle_beta   89.994591
_cell_angle_gamma 120.00737
loop_
_atom_site_label
_atom_site_type_symbol
_atom_site_fract_x
_atom_site_fract_y
_atom_site_fract_z
_atom_type_partial_charge
Mn0 Mn 0.17272 0.55239 0.39124 0.0
Mn1 Mn 0.13312 0.57517 0.40764 0.0
C2 C 0.18954 0.59603 0.39543 0.0
C3 C 0.18881 0.53716 0.358 0.0
C4 C 0.1548 0.55352 0.44798 0.0
O5 O 0.13717 0.52132 0.38689 0.0
O6 O 0.11285 0.5395 0.39387 0.0
C7 C 0.11568 0.57728 0.35303 0.0
N8 N 0.12663 0.58925 0.37643 0.0
C9 C 0.13187 0.62939 0.36049 0.0
C10 C 0.12048 0.61746 0.33628 0.0
C11 C 0.11242 0.5913 0.33252 0.0
C12 C 0.13468 0.61445 0.38017 0.0
H13 H 0.10954 0.55719 0.35006 0.0
C14 C 0.11552 0.52028 0.38776 0.0
O15 O 0.18875 0.53098 0.38284 0.0
O16 O 0.17936 0.55188 0.3526 0.0
N17 N 0.14928 0.60946 0.42146 0.0
C18 C 0.15954 0.61798 0.44613 0.0
C19 C 0.16858 0.64377 0.4531 0.0
C20 C 0.16645 0.66037 0.43489 0.0
C21 C 0.15501 0.65095 0.40998 0.0
C22 C 0.14627 0.62504 0.40419 0.0
H23 H 0.16103 0.60526 0.46032 0.0
O24 O 0.20443 0.58617 0.3949 0.0
O25 O 0.16509 0.58018 0.3915 0.0
O26 O 0.1692 0.54956 0.43215 0.0
O27 O 0.13982 0.56173 0.44057 0.0
C28 C 0.15218 0.66631 0.39056 0.0
C29 C 0.1407 0.65556 0.3658 0.0
H30 H 0.11792 0.62821 0.32041 0.0
H31 H 0.10371 0.58198 0.31385 0.0
H32 H 0.17719 0.65083 0.47245 0.0
H33 H 0.17362 0.6803 0.44027 0.0
H34 H 0.15889 0.68645 0.39441 0.0
H35 H 0.13878 0.6676 0.35096 0.0
Mn36 Mn 0.62173 0.1742 0.56235 0.0
Mn37 Mn 0.55921 0.13369 0.57753 0.0
C38 C 0.59541 0.19079 0.57129 0.0
C39 C 0.65238 0.19347 0.52853 0.0
C40 C 0.60217 0.15161 0.61804 0.0
O41 O 0.61689 0.13918 0.55312 0.0
O42 O 0.57472 0.11445 0.56147 0.0
C43 C 0.5415 0.12143 0.52163 0.0
N44 N 0.53996 0.13053 0.54602 0.0
C45 C 0.5079 0.14027 0.53041 0.0
C46 C 0.50901 0.13084 0.50517 0.0
C47 C 0.52592 0.12142 0.50076 0.0
C48 C 0.52401 0.13994 0.55038 0.0
H49 H 0.5546 0.11435 0.5181 0.0
C50 C 0.59632 0.11747 0.55369 0.0
O51 O 0.65914 0.19084 0.55244 0.0
O52 O 0.62812 0.18461 0.52448 0.0
N53 N 0.54078 0.14867 0.59335 0.0
C54 C 0.54003 0.15439 0.61951 0.0
C55 C 0.52343 0.16326 0.62758 0.0
C56 C 0.50729 0.16549 0.60883 0.0
C57 C 0.50731 0.15804 0.58236 0.0
C58 C 0.52413 0.14914 0.57556 0.0
H59 H 0.55224 0.1525 0.63405 0.0
O60 O 0.62015 0.20562 0.57096 0.0
O61 O 0.58662 0.1669 0.56444 0.0
O62 O 0.62087 0.16642 0.60263 0.0
O63 O 0.57876 0.13782 0.61044 0.0
C64 C 0.49104 0.1587 0.56255 0.0
C65 C 0.49143 0.14995 0.53655 0.0
H66 H 0.49698 0.13074 0.48904 0.0
H67 H 0.52696 0.1142 0.48131 0.0
H68 H 0.52314 0.16845 0.64818 0.0
H69 H 0.49463 0.1725 0.61508 0.0
H70 H 0.47801 0.16573 0.56714 0.0
H71 H 0.47878 0.15049 0.5215 0.0
Mn72 Mn 0.44543 0.62275 0.72073 0.0
Mn73 Mn 0.42377 0.56101 0.73932 0.0
C74 C 0.40187 0.59509 0.72407 0.0
C75 C 0.46083 0.65325 0.68666 0.0
C76 C 0.44307 0.60528 0.77844 0.0
O77 O 0.47724 0.61925 0.71833 0.0
O78 O 0.45982 0.57704 0.72674 0.0
C79 C 0.4239 0.54065 0.68566 0.0
N80 N 0.41109 0.5397 0.70841 0.0
C81 C 0.37198 0.50369 0.69203 0.0
C82 C 0.38479 0.50416 0.66848 0.0
C83 C 0.41084 0.52277 0.66526 0.0
C84 C 0.38596 0.52207 0.71159 0.0
H85 H 0.44391 0.55497 0.68309 0.0
C86 C 0.47882 0.59898 0.7204 0.0
O87 O 0.46617 0.66008 0.71147 0.0
O88 O 0.44684 0.62886 0.68176 0.0
N89 N 0.38918 0.54222 0.75219 0.0
C90 C 0.37988 0.54383 0.77646 0.0
C91 C 0.35413 0.52646 0.78295 0.0
C92 C 0.33839 0.50722 0.76473 0.0
C93 C 0.34866 0.5053 0.74031 0.0
C94 C 0.37449 0.52311 0.73498 0.0
H95 H 0.39194 0.5584 0.79069 0.0
O96 O 0.41113 0.61973 0.72258 0.0
O97 O 0.41828 0.58701 0.7215 0.0
O98 O 0.44709 0.62312 0.76183 0.0
O99 O 0.43574 0.58203 0.77186 0.0
C100 C 0.33425 0.48652 0.72098 0.0
C101 C 0.34587 0.48579 0.6968 0.0
H102 H 0.37479 0.49038 0.65272 0.0
H103 H 0.42083 0.52332 0.6471 0.0
H104 H 0.34643 0.52791 0.80195 0.0
H105 H 0.31849 0.49396 0.76973 0.0
H106 H 0.31419 0.47261 0.72446 0.0
H107 H 0.33456 0.47134 0.68204 0.0
Mn108 Mn 0.81922 0.44137 0.89081 0.0
Mn109 Mn 0.85896 0.41841 0.90603 0.0
C110 C 0.80196 0.39833 0.89958 0.0
C111 C 0.80089 0.45358 0.85668 0.0
C112 C 0.84078 0.44294 0.94686 0.0
O113 O 0.85445 0.47146 0.88232 0.0
O114 O 0.87868 0.45358 0.89105 0.0
C115 C 0.87193 0.4144 0.84999 0.0
N116 N 0.8624 0.4031 0.87404 0.0
C117 C 0.85242 0.36161 0.85711 0.0
C118 C 0.86229 0.37283 0.83221 0.0
C119 C 0.87204 0.39934 0.82863 0.0
C120 C 0.85262 0.37756 0.87758 0.0
H121 H 0.87929 0.43473 0.8471 0.0
C122 C 0.87604 0.47243 0.88342 0.0
O123 O 0.80315 0.46266 0.8807 0.0
O124 O 0.8095 0.43794 0.85275 0.0
N125 N 0.84372 0.38458 0.92088 0.0
C126 C 0.83825 0.37754 0.94695 0.0
C127 C 0.82918 0.35183 0.95427 0.0
C128 C 0.82666 0.33383 0.93489 0.0
C129 C 0.8341 0.34192 0.90855 0.0
C130 C 0.84312 0.36783 0.9025 0.0
H131 H 0.84045 0.39139 0.96197 0.0
O132 O 0.78742 0.40855 0.89877 0.0
O133 O 0.82597 0.41315 0.89294 0.0
O134 O 0.82652 0.44761 0.93135 0.0
O135 O 0.85433 0.43304 0.93924 0.0
C136 C 0.83348 0.32545 0.88821 0.0
C137 C 0.84251 0.33526 0.86245 0.0
H138 H 0.86249 0.3613 0.81571 0.0
H139 H 0.87961 0.40812 0.80946 0.0
H140 H 0.8241 0.3459 0.97479 0.0
H141 H 0.81955 0.31399 0.94058 0.0
H142 H 0.82637 0.30526 0.89222 0.0
H143 H 0.84206 0.32244 0.847 0.0
Mn144 Mn 0.37599 0.82311 0.05442 0.0
Mn145 Mn 0.43875 0.86384 0.06853 0.0
C146 C 0.40354 0.80708 0.05749 0.0
C147 C 0.34343 0.80587 0.0225 0.0
C148 C 0.39696 0.84189 0.11054 0.0
O149 O 0.37959 0.85831 0.05 0.0
O150 O 0.42216 0.88339 0.05596 0.0
C151 C 0.45582 0.88104 0.01324 0.0
N152 N 0.45805 0.87043 0.03636 0.0
C153 C 0.49264 0.86575 0.0184 0.0
C154 C 0.49084 0.8768 0.99446 0.0
C155 C 0.47229 0.88441 0.99185 0.0
C156 C 0.47564 0.86281 0.03898 0.0
H157 H 0.44153 0.88683 0.01115 0.0
C158 C 0.39994 0.8802 0.05054 0.0
O159 O 0.33823 0.80628 0.04758 0.0
O160 O 0.36743 0.81568 0.01608 0.0
N161 N 0.45803 0.84846 0.0811 0.0
C162 C 0.45769 0.83873 0.10574 0.0
C163 C 0.47509 0.83025 0.11165 0.0
C164 C 0.49307 0.83244 0.09242 0.0
C165 C 0.4937 0.8434 0.06756 0.0
C166 C 0.47592 0.85158 0.06284 0.0
H167 H 0.44407 0.83721 0.1207 0.0
O168 O 0.37885 0.79183 0.0579 0.0
O169 O 0.4116 0.8314 0.05328 0.0
O170 O 0.37812 0.82729 0.0953 0.0
O171 O 0.41987 0.85699 0.10235 0.0
C172 C 0.51112 0.84635 0.0472 0.0
C173 C 0.51053 0.85743 0.0226 0.0
H174 H 0.50352 0.87944 0.97792 0.0
H175 H 0.47071 0.89285 0.9734 0.0
H176 H 0.47464 0.82203 0.13097 0.0
H177 H 0.50635 0.82572 0.09699 0.0
H178 H 0.52498 0.84005 0.05021 0.0
H179 H 0.52392 0.85946 0.00705 0.0
Mn180 Mn 0.55381 0.38226 0.21975 0.0
Mn181 Mn 0.58082 0.44521 0.2355 0.0
C182 C 0.59772 0.40624 0.22503 0.0
C183 C 0.5375 0.35135 0.18593 0.0
C184 C 0.55368 0.40194 0.27559 0.0
O185 O 0.52504 0.39024 0.21388 0.0
O186 O 0.54725 0.43329 0.21781 0.0
C187 C 0.59019 0.46686 0.18099 0.0
N188 N 0.59924 0.46599 0.20562 0.0
C189 C 0.64207 0.49889 0.1938 0.0
C190 C 0.63318 0.50028 0.16836 0.0
C191 C 0.60713 0.48414 0.16191 0.0
C192 C 0.62428 0.4813 0.21198 0.0
H193 H 0.57019 0.45443 0.17594 0.0
C194 C 0.52686 0.41224 0.21185 0.0
O195 O 0.53025 0.34515 0.21054 0.0
O196 O 0.55396 0.37527 0.18115 0.0
N197 N 0.61363 0.45981 0.25267 0.0
C198 C 0.61926 0.45575 0.2779 0.0
C199 C 0.6446 0.47009 0.28733 0.0
C200 C 0.66381 0.48877 0.27093 0.0
C201 C 0.65745 0.49309 0.2453 0.0
C202 C 0.63183 0.47828 0.23703 0.0
H203 H 0.60459 0.44158 0.29072 0.0
O204 O 0.58614 0.38132 0.2248 0.0
O205 O 0.58346 0.4165 0.2205 0.0
O206 O 0.54998 0.38318 0.26051 0.0
O207 O 0.56295 0.42511 0.26747 0.0
C208 C 0.67561 0.51119 0.22747 0.0
C209 C 0.66794 0.51403 0.20171 0.0
H210 H 0.6462 0.51354 0.15357 0.0
H211 H 0.60015 0.48501 0.14228 0.0
H212 H 0.64932 0.46673 0.30718 0.0
H213 H 0.68339 0.49963 0.27818 0.0
H214 H 0.69558 0.52281 0.23326 0.0
H215 H 0.68214 0.5278 0.18808 0.0
Mn216 Mn 0.44889 0.82768 0.44267 0.0
Mn217 Mn 0.42491 0.86672 0.42828 0.0
C218 C 0.40509 0.81038 0.43998 0.0
C219 C 0.46505 0.81144 0.47482 0.0
C220 C 0.4457 0.84553 0.38643 0.0
O221 O 0.47984 0.86345 0.44668 0.0
O222 O 0.46094 0.88728 0.44076 0.0
C223 C 0.42445 0.88402 0.48338 0.0
N224 N 0.41176 0.87302 0.46031 0.0
C225 C 0.37207 0.86744 0.47802 0.0
C226 C 0.38474 0.87888 0.50193 0.0
C227 C 0.41103 0.88714 0.50464 0.0
C228 C 0.38643 0.86477 0.45758 0.0
H229 H 0.44464 0.89033 0.48555 0.0
C230 C 0.48051 0.88496 0.44606 0.0
O231 O 0.4707 0.8118 0.44975 0.0
O232 O 0.45047 0.82084 0.48109 0.0
N233 N 0.39019 0.85027 0.41573 0.0
C234 C 0.38093 0.84004 0.39121 0.0
C235 C 0.35493 0.83084 0.38524 0.0
C236 C 0.33885 0.83281 0.40427 0.0
C237 C 0.34902 0.84425 0.42901 0.0
C238 C 0.37511 0.85314 0.4338 0.0
H239 H 0.39323 0.83868 0.37639 0.0
O240 O 0.41521 0.79573 0.4396 0.0
O241 O 0.42081 0.83487 0.44385 0.0
O242 O 0.45052 0.83137 0.40171 0.0
O243 O 0.43735 0.86019 0.39459 0.0
C244 C 0.33423 0.84693 0.44921 0.0
C245 C 0.34573 0.85842 0.47374 0.0
H246 H 0.37446 0.88133 0.51836 0.0
H247 H 0.42092 0.89588 0.52306 0.0
H248 H 0.34729 0.82223 0.36601 0.0
H249 H 0.31876 0.82552 0.39966 0.0
H250 H 0.31397 0.84008 0.44615 0.0
H251 H 0.33413 0.86023 0.48918 0.0
Mn252 Mn 0.61479 0.44604 0.60994 0.0
Mn253 Mn 0.55251 0.4238 0.59402 0.0
C254 C 0.5874 0.40254 0.60559 0.0
C255 C 0.64535 0.45949 0.64418 0.0
C256 C 0.59561 0.44549 0.55328 0.0
O257 O 0.61063 0.47726 0.61516 0.0
O258 O 0.5682 0.45956 0.60768 0.0
C259 C 0.53347 0.42199 0.64882 0.0
N260 N 0.53244 0.40981 0.62556 0.0
C261 C 0.49936 0.36923 0.64282 0.0
C262 C 0.49993 0.38137 0.66689 0.0
C263 C 0.51708 0.40786 0.6699 0.0
C264 C 0.51612 0.38431 0.62251 0.0
H265 H 0.54676 0.44231 0.65128 0.0
C266 C 0.59014 0.47856 0.61414 0.0
O267 O 0.65233 0.46667 0.61966 0.0
O268 O 0.62097 0.44518 0.6485 0.0
N269 N 0.53452 0.38938 0.58053 0.0
C270 C 0.53585 0.38075 0.55578 0.0
C271 C 0.51983 0.35466 0.54945 0.0
C272 C 0.50235 0.33781 0.56846 0.0
C273 C 0.5007 0.34732 0.59346 0.0
C274 C 0.51699 0.37355 0.59854 0.0
H275 H 0.54922 0.39361 0.54107 0.0
O276 O 0.61207 0.4119 0.60547 0.0
O277 O 0.57942 0.41878 0.60972 0.0
O278 O 0.61415 0.44961 0.56899 0.0
O279 O 0.57241 0.4371 0.56089 0.0
C280 C 0.4836 0.33179 0.61357 0.0
C281 C 0.48298 0.34272 0.63826 0.0
H282 H 0.48737 0.37053 0.68322 0.0
H283 H 0.51772 0.41735 0.68846 0.0
H284 H 0.52104 0.34752 0.53001 0.0
H285 H 0.4902 0.31765 0.5636 0.0
H286 H 0.47088 0.3114 0.61029 0.0
H287 H 0.46983 0.33056 0.65362 0.0
Mn288 Mn 0.16859 0.61601 0.78053 0.0
Mn289 Mn 0.12989 0.55337 0.76432 0.0
C290 C 0.18604 0.58966 0.77717 0.0
C291 C 0.18383 0.64733 0.81377 0.0
C292 C 0.15165 0.59652 0.72372 0.0
O293 O 0.13274 0.61104 0.78399 0.0
O294 O 0.10909 0.56839 0.77737 0.0
C295 C 0.1121 0.5341 0.81893 0.0
N296 N 0.12338 0.53309 0.79577 0.0
C297 C 0.12917 0.49877 0.81248 0.0
C298 C 0.11745 0.4993 0.83646 0.0
C299 C 0.10895 0.5171 0.83972 0.0
C300 C 0.13187 0.51625 0.79252 0.0
H301 H 0.10562 0.54781 0.82152 0.0
C302 C 0.11129 0.59018 0.78299 0.0
O303 O 0.18421 0.65348 0.78886 0.0
O304 O 0.17439 0.62317 0.81923 0.0
N305 N 0.14656 0.53552 0.7511 0.0
C306 C 0.15681 0.53702 0.72647 0.0
C307 C 0.16615 0.52045 0.71993 0.0
C308 C 0.16429 0.50208 0.73849 0.0
C309 C 0.15278 0.50023 0.76332 0.0
C310 C 0.14373 0.51722 0.76869 0.0
H311 H 0.15807 0.55092 0.712 0.0
O312 O 0.20064 0.61445 0.77777 0.0
O313 O 0.16148 0.58075 0.78061 0.0
O314 O 0.16575 0.61509 0.7395 0.0
O315 O 0.13676 0.57332 0.73125 0.0
C316 C 0.15009 0.48234 0.78304 0.0
C317 C 0.1384 0.48168 0.80764 0.0
H318 H 0.11497 0.4862 0.85253 0.0
H319 H 0.09999 0.5177 0.85821 0.0
H320 H 0.17479 0.52183 0.70062 0.0
H321 H 0.17169 0.48945 0.73344 0.0
H322 H 0.15706 0.46908 0.77953 0.0
H323 H 0.13657 0.46793 0.8227 0.0
Mn324 Mn 0.54415 0.16951 0.94794 0.0
Mn325 Mn 0.56746 0.12901 0.93948 0.0
C326 C 0.58779 0.18555 0.9486 0.0
C327 C 0.52737 0.18741 0.97758 0.0
C328 C 0.55038 0.14983 0.89364 0.0
O329 O 0.51238 0.13427 0.95176 0.0
O330 O 0.53051 0.10941 0.94911 0.0
C331 C 0.56323 0.11284 0.99583 0.0
N332 N 0.57784 0.12341 0.97364 0.0
C333 C 0.61611 0.13077 0.99659 0.0
C334 C 0.60145 0.1198 0.01963 0.0
C335 C 0.5749 0.11084 0.01926 0.0
C336 C 0.60342 0.1323 0.97386 0.0
H337 H 0.54285 0.10609 0.99567 0.0
C338 C 0.51108 0.11247 0.95237 0.0
O339 O 0.52305 0.18675 0.95211 0.0
O340 O 0.54093 0.17741 0.98559 0.0
N341 N 0.60301 0.14473 0.93003 0.0
C342 C 0.61411 0.15346 0.90571 0.0
C343 C 0.64056 0.16282 0.90256 0.0
C344 C 0.65521 0.1626 0.92426 0.0
C345 C 0.64315 0.15246 0.94877 0.0
C346 C 0.61669 0.14323 0.95065 0.0
H347 H 0.60292 0.15356 0.88891 0.0
O348 O 0.57855 0.20083 0.94574 0.0
O349 O 0.57121 0.16137 0.95267 0.0
O350 O 0.54473 0.16446 0.90721 0.0
O351 O 0.55791 0.13518 0.90387 0.0
C352 C 0.65631 0.15109 0.97138 0.0
C353 C 0.64282 0.14034 0.9953 0.0
H354 H 0.61038 0.11822 0.03774 0.0
H355 H 0.56347 0.10245 0.037 0.0
H356 H 0.64966 0.17028 0.88348 0.0
H357 H 0.67565 0.17003 0.92182 0.0
H358 H 0.67681 0.15825 0.97059 0.0
H359 H 0.65316 0.13945 0.01257 0.0
Mn360 Mn 0.36946 0.54889 0.10716 0.0
Mn361 Mn 0.43087 0.56893 0.08854 0.0
C362 C 0.39819 0.59226 0.1041 0.0
C363 C 0.33911 0.53427 0.14134 0.0
C364 C 0.38698 0.55148 0.04931 0.0
O365 O 0.37165 0.51631 0.10948 0.0
O366 O 0.41351 0.53244 0.09987 0.0
C367 C 0.45011 0.56638 0.14208 0.0
N368 N 0.45187 0.58007 0.11976 0.0
C369 C 0.48845 0.61802 0.13731 0.0
C370 C 0.48716 0.60428 0.16042 0.0
C371 C 0.46785 0.57837 0.16284 0.0
C372 C 0.47016 0.60508 0.11736 0.0
H373 H 0.43526 0.54647 0.14402 0.0
C374 C 0.39136 0.51396 0.10637 0.0
O375 O 0.33209 0.52916 0.11654 0.0
O376 O 0.36355 0.54759 0.14612 0.0
N377 N 0.45089 0.60378 0.07671 0.0
C378 C 0.45009 0.614 0.0527 0.0
C379 C 0.46822 0.63974 0.04699 0.0
C380 C 0.48741 0.6545 0.06569 0.0
C381 C 0.4885 0.64326 0.0898 0.0
C382 C 0.46993 0.6175 0.09435 0.0
H383 H 0.43557 0.60267 0.03812 0.0
O384 O 0.37369 0.5837 0.10551 0.0
O385 O 0.40553 0.57525 0.10656 0.0
O386 O 0.36911 0.5474 0.06594 0.0
O387 O 0.41014 0.5585 0.05589 0.0
C388 C 0.50718 0.65664 0.10954 0.0
C389 C 0.50709 0.64406 0.13333 0.0
H390 H 0.50083 0.61345 0.17646 0.0
H391 H 0.46667 0.56767 0.18066 0.0
H392 H 0.46742 0.64817 0.02822 0.0
H393 H 0.50127 0.67439 0.06128 0.0
H394 H 0.52167 0.67663 0.10667 0.0
H395 H 0.52149 0.65458 0.14842 0.0
Mn396 Mn 0.82717 0.37621 0.27764 0.0
Mn397 Mn 0.86756 0.43726 0.25735 0.0
C398 C 0.81132 0.40363 0.27141 0.0
C399 C 0.81114 0.34755 0.31356 0.0
C400 C 0.8438 0.39165 0.21975 0.0
O401 O 0.86243 0.37997 0.28206 0.0
O402 O 0.88738 0.42188 0.27228 0.0
C403 C 0.88664 0.45973 0.31071 0.0
N404 N 0.87528 0.4597 0.28721 0.0
C405 C 0.87129 0.49595 0.30088 0.0
C406 C 0.88312 0.49651 0.32516 0.0
C407 C 0.89076 0.47826 0.33011 0.0
C408 C 0.86764 0.47699 0.28234 0.0
H409 H 0.89246 0.44568 0.31461 0.0
C410 C 0.88431 0.40019 0.2799 0.0
O411 O 0.81036 0.33929 0.28941 0.0
O412 O 0.82154 0.37217 0.31662 0.0
N413 N 0.85179 0.45525 0.24223 0.0
C414 C 0.8411 0.4524 0.21761 0.0
C415 C 0.83239 0.46913 0.20952 0.0
C416 C 0.8353 0.48898 0.22656 0.0
C417 C 0.84721 0.49212 0.2514 0.0
C418 C 0.85559 0.47491 0.25834 0.0
H419 H 0.83899 0.43732 0.20431 0.0
O420 O 0.79591 0.37905 0.2735 0.0
O421 O 0.83571 0.4118 0.27488 0.0
O422 O 0.82952 0.37425 0.23661 0.0
O423 O 0.85947 0.4151 0.22585 0.0
C424 C 0.85087 0.5115 0.26966 0.0
C425 C 0.86282 0.51336 0.29442 0.0
H426 H 0.88632 0.51077 0.34017 0.0
H427 H 0.8998 0.47849 0.34884 0.0
H428 H 0.82343 0.46671 0.19022 0.0
H429 H 0.82839 0.50173 0.22033 0.0
H430 H 0.84445 0.52499 0.26493 0.0
H431 H 0.86538 0.52823 0.30837 0.0
C432 C 0.21579 0.63236 0.42512 0.0
C433 C 0.20091 0.62331 0.402 0.0
C434 C 0.23018 0.6586 0.4302 0.0
C435 C 0.2578 0.71464 0.44128 0.0
H436 H 0.29585 0.75338 0.37935 0.0
C437 C 0.36053 0.79897 0.45324 0.0
C438 C 0.3776 0.79874 0.43437 0.0
C439 C 0.33397 0.78475 0.44872 0.0
C440 C 0.28546 0.74284 0.39692 0.0
H441 H 0.1897 0.63417 0.3655 0.0
H442 H 0.21412 0.68045 0.37476 0.0
H443 H 0.25649 0.71286 0.37334 0.0
H444 H 0.38092 0.783 0.39683 0.0
H445 H 0.3351 0.75749 0.38932 0.0
H446 H 0.28847 0.74291 0.46479 0.0
C447 C 0.21474 0.66731 0.3891 0.0
C448 C 0.26248 0.71969 0.39348 0.0
C449 C 0.20051 0.64086 0.38389 0.0
C450 C 0.36798 0.78393 0.41127 0.0
C451 C 0.34163 0.76958 0.40687 0.0
C452 C 0.28122 0.73734 0.44471 0.0
C453 C 0.23023 0.67657 0.4121 0.0
C454 C 0.2493 0.7044 0.41563 0.0
C455 C 0.32415 0.76949 0.42564 0.0
C456 C 0.2962 0.75075 0.42249 0.0
H457 H 0.21683 0.61905 0.43898 0.0
H458 H 0.24239 0.66468 0.44766 0.0
H459 H 0.24747 0.70403 0.45886 0.0
H460 H 0.36769 0.80971 0.47161 0.0
H461 H 0.3212 0.7853 0.4636 0.0
C462 C 0.58112 0.20989 0.60596 0.0
C463 C 0.5795 0.2016 0.57964 0.0
C464 C 0.56915 0.22368 0.61354 0.0
C465 C 0.53132 0.25357 0.58586 0.0
H466 H 0.57252 0.30575 0.63797 0.0
C467 C 0.57223 0.36186 0.58115 0.0
C468 C 0.57061 0.3747 0.60372 0.0
C469 C 0.5607 0.33516 0.58112 0.0
C470 C 0.5603 0.29094 0.62389 0.0
H471 H 0.5654 0.20184 0.54013 0.0
H472 H 0.54654 0.22802 0.55242 0.0
H473 H 0.57773 0.26881 0.63313 0.0
H474 H 0.5562 0.37031 0.64402 0.0
H475 H 0.53706 0.32327 0.64452 0.0
H476 H 0.51671 0.2784 0.57455 0.0
C477 C 0.55514 0.22238 0.56801 0.0
C478 C 0.56317 0.26946 0.62105 0.0
C479 C 0.56616 0.20755 0.56075 0.0
C480 C 0.55696 0.36056 0.62617 0.0
C481 C 0.54599 0.33381 0.62642 0.0
C482 C 0.52916 0.27565 0.58812 0.0
C483 C 0.55697 0.23122 0.59446 0.0
C484 C 0.54954 0.2509 0.60122 0.0
C485 C 0.54841 0.32105 0.60411 0.0
C486 C 0.54433 0.29484 0.60657 0.0
H487 H 0.59167 0.20566 0.62071 0.0
H488 H 0.57025 0.22903 0.63427 0.0
H489 H 0.51969 0.23937 0.57107 0.0
H490 H 0.58325 0.37261 0.56393 0.0
H491 H 0.56334 0.32576 0.56396 0.0
C492 C 0.19806 0.55651 0.78846 0.0
C493 C 0.19777 0.57414 0.77038 0.0
C494 C 0.21258 0.54467 0.7829 0.0
C495 C 0.25427 0.54008 0.72947 0.0
H496 H 0.29549 0.54253 0.78988 0.0
C497 C 0.36581 0.58504 0.75409 0.0
C498 C 0.37475 0.57891 0.73108 0.0
C499 C 0.33967 0.57255 0.75977 0.0
C500 C 0.28414 0.54171 0.77274 0.0
H501 H 0.21275 0.59417 0.7331 0.0
H502 H 0.23866 0.5746 0.72374 0.0
H503 H 0.2558 0.54277 0.79738 0.0
H504 H 0.36379 0.55583 0.69525 0.0
H505 H 0.31763 0.53309 0.70546 0.0
H506 H 0.28423 0.54237 0.70478 0.0
C507 C 0.22683 0.5685 0.74148 0.0
C508 C 0.26103 0.54139 0.77707 0.0
C509 C 0.21225 0.58005 0.74695 0.0
C510 C 0.35719 0.5602 0.71356 0.0
C511 C 0.33084 0.54744 0.71932 0.0
C512 C 0.27776 0.5412 0.72513 0.0
C513 C 0.22755 0.5509 0.75951 0.0
C514 C 0.24675 0.54243 0.7554 0.0
C515 C 0.32172 0.55375 0.74237 0.0
C516 C 0.29381 0.54389 0.74674 0.0
H517 H 0.18756 0.55235 0.80705 0.0
H518 H 0.21257 0.53119 0.79723 0.0
H519 H 0.24311 0.53964 0.71232 0.0
H520 H 0.3791 0.59997 0.76748 0.0
H521 H 0.33358 0.57874 0.77719 0.0
C522 C 0.78353 0.35138 0.8932 0.0
C523 C 0.79113 0.37236 0.91028 0.0
C524 C 0.76846 0.32633 0.90288 0.0
C525 C 0.72337 0.29331 0.9592 0.0
H526 H 0.71056 0.23335 0.91817 0.0
C527 C 0.62953 0.19852 0.97069 0.0
C528 C 0.6156 0.19641 0.94749 0.0
C529 C 0.65634 0.21384 0.97072 0.0
C530 C 0.7144 0.24984 0.93027 0.0
H531 H 0.78971 0.38428 0.95056 0.0
H532 H 0.76579 0.34089 0.96822 0.0
H533 H 0.75041 0.27405 0.91119 0.0
H534 H 0.61805 0.20808 0.90632 0.0
H535 H 0.66491 0.23413 0.90606 0.0
H536 H 0.68725 0.26902 0.97802 0.0
C537 C 0.77015 0.34323 0.94714 0.0
C538 C 0.73695 0.27331 0.92599 0.0
C539 C 0.78423 0.36817 0.9372 0.0
C540 C 0.62863 0.20901 0.92419 0.0
C541 C 0.65534 0.22367 0.924 0.0
C542 C 0.70136 0.26975 0.96404 0.0
C543 C 0.76099 0.32187 0.92994 0.0
C544 C 0.74098 0.29576 0.93922 0.0
C545 C 0.66933 0.2269 0.94747 0.0
C546 C 0.69604 0.24824 0.94861 0.0
H547 H 0.78811 0.35439 0.87215 0.0
H548 H 0.76153 0.31072 0.88867 0.0
H549 H 0.72516 0.30984 0.96973 0.0
H550 H 0.61962 0.18951 0.98905 0.0
H551 H 0.66679 0.21659 0.98916 0.0
C552 C 0.41519 0.78203 0.08716 0.0
C553 C 0.42 0.79625 0.06366 0.0
C554 C 0.42734 0.76788 0.09193 0.0
C555 C 0.45585 0.74019 0.1019 0.0
H556 H 0.45249 0.69995 0.0402 0.0
C557 C 0.4339 0.63641 0.11518 0.0
C558 C 0.41504 0.61938 0.09743 0.0
C559 C 0.44719 0.66288 0.10987 0.0
C560 C 0.45354 0.71099 0.0577 0.0
H561 H 0.44064 0.80661 0.02628 0.0
H562 H 0.46296 0.78253 0.0349 0.0
H563 H 0.45234 0.73983 0.03405 0.0
H564 H 0.39436 0.61612 0.06106 0.0
H565 H 0.41644 0.66182 0.05219 0.0
H566 H 0.45357 0.70968 0.12564 0.0
C567 C 0.4498 0.78228 0.04978 0.0
C568 C 0.45393 0.73425 0.05415 0.0
C569 C 0.4373 0.79631 0.04491 0.0
C570 C 0.40937 0.62898 0.07461 0.0
C571 C 0.42236 0.65524 0.06941 0.0
C572 C 0.45457 0.71651 0.10547 0.0
C573 C 0.44449 0.76736 0.07312 0.0
C574 C 0.45316 0.74818 0.07632 0.0
C575 C 0.44124 0.67268 0.08711 0.0
C576 C 0.45148 0.70077 0.08342 0.0
H577 H 0.40136 0.78127 0.10156 0.0
H578 H 0.42194 0.75612 0.10971 0.0
H579 H 0.4566 0.75108 0.11942 0.0
H580 H 0.43794 0.62932 0.13333 0.0
H581 H 0.46162 0.67565 0.12392 0.0
C582 C 0.80178 0.4387 0.28148 0.0
C583 C 0.80048 0.41981 0.26412 0.0
C584 C 0.78793 0.45121 0.27582 0.0
C585 C 0.7448 0.45497 0.22365 0.0
H586 H 0.7068 0.45624 0.28538 0.0
C587 C 0.63467 0.41503 0.25332 0.0
C588 C 0.62532 0.42082 0.23041 0.0
C589 C 0.661 0.42655 0.25769 0.0
C590 C 0.71721 0.45598 0.26788 0.0
H591 H 0.78349 0.39837 0.228 0.0
H592 H 0.75871 0.41913 0.2185 0.0
H593 H 0.74617 0.4551 0.2916 0.0
H594 H 0.63561 0.44197 0.19333 0.0
H595 H 0.68203 0.46312 0.20126 0.0
H596 H 0.71418 0.4525 0.20002 0.0
C597 C 0.77127 0.42564 0.2357 0.0
C598 C 0.74017 0.45581 0.27144 0.0
C599 C 0.7852 0.41341 0.24126 0.0
C600 C 0.64259 0.43799 0.21159 0.0
C601 C 0.6691 0.44981 0.21604 0.0
C602 C 0.72144 0.45433 0.22011 0.0
C603 C 0.77203 0.44441 0.25311 0.0
C604 C 0.75327 0.45346 0.24937 0.0
C605 C 0.67866 0.44399 0.23906 0.0
C606 C 0.70652 0.453 0.24228 0.0
H607 H 0.81293 0.44328 0.29967 0.0
H608 H 0.78909 0.46561 0.28963 0.0
H609 H 0.75504 0.45436 0.20616 0.0
H610 H 0.62154 0.40124 0.2677 0.0
H611 H 0.66738 0.42073 0.27516 0.0
C612 C 0.13275 0.58698 0.67852 0.0
C613 C 0.15454 0.60035 0.69471 0.0
C614 C 0.13537 0.58323 0.65157 0.0
C615 C 0.18008 0.60135 0.59465 0.0
H616 H 0.13393 0.53036 0.57431 0.0
C617 C 0.18152 0.56335 0.48904 0.0
C618 C 0.15718 0.55156 0.47694 0.0
C619 C 0.18385 0.56776 0.51658 0.0
C620 C 0.14697 0.55022 0.57968 0.0
H621 H 0.19615 0.62183 0.69524 0.0
H622 H 0.20084 0.61531 0.64779 0.0
H623 H 0.13274 0.54429 0.61957 0.0
H624 H 0.11624 0.5337 0.48399 0.0
H625 H 0.12016 0.54068 0.53193 0.0
H626 H 0.19396 0.60724 0.55443 0.0
C627 C 0.18172 0.60788 0.65595 0.0
C628 C 0.14617 0.55828 0.60554 0.0
C629 C 0.17906 0.61182 0.68302 0.0
C630 C 0.13519 0.54261 0.49293 0.0
C631 C 0.13748 0.54664 0.52038 0.0
C632 C 0.18088 0.59325 0.56866 0.0
C633 C 0.15986 0.59249 0.6403 0.0
C634 C 0.16223 0.58406 0.61314 0.0
C635 C 0.16184 0.56005 0.53239 0.0
C636 C 0.1639 0.56773 0.56078 0.0
H637 H 0.11364 0.57794 0.68712 0.0
H638 H 0.11816 0.57192 0.63985 0.0
H639 H 0.19273 0.6213 0.59997 0.0
H640 H 0.19877 0.57082 0.47701 0.0
H641 H 0.20285 0.57797 0.52538 0.0
C642 C 0.59228 0.13052 0.66242 0.0
C643 C 0.60629 0.15285 0.64706 0.0
C644 C 0.58997 0.13221 0.68991 0.0
C645 C 0.58656 0.17523 0.7384 0.0
H646 H 0.58638 0.12696 0.7898 0.0
C647 C 0.5638 0.17547 0.85151 0.0
C648 C 0.55135 0.15145 0.86431 0.0
C649 C 0.57113 0.17728 0.82471 0.0
C650 C 0.58599 0.14039 0.77564 0.0
H651 H 0.62977 0.19437 0.64842 0.0
H652 H 0.62564 0.19738 0.69674 0.0
H653 H 0.60147 0.12763 0.74462 0.0
H654 H 0.53497 0.11042 0.85884 0.0
H655 H 0.54654 0.11335 0.81197 0.0
H656 H 0.57033 0.18747 0.76923 0.0
C657 C 0.61658 0.17857 0.68744 0.0
C658 C 0.59488 0.14089 0.74982 0.0
C659 C 0.61927 0.17683 0.65991 0.0
C660 C 0.5446 0.12918 0.84941 0.0
C661 C 0.55159 0.13093 0.82267 0.0
C662 C 0.57746 0.1746 0.76426 0.0
C663 C 0.60125 0.15631 0.70256 0.0
C664 C 0.5949 0.15804 0.7308 0.0
C665 C 0.56594 0.15505 0.81028 0.0
C666 C 0.57661 0.15681 0.78305 0.0
H667 H 0.58183 0.11184 0.65291 0.0
H668 H 0.57789 0.11473 0.70097 0.0
H669 H 0.58604 0.18844 0.72404 0.0
H670 H 0.56961 0.19297 0.86271 0.0
H671 H 0.58216 0.19617 0.81581 0.0
C672 C 0.39433 0.54215 0.0033 0.0
C673 C 0.38259 0.55163 0.0205 0.0
C674 C 0.39904 0.55007 0.97681 0.0
C675 C 0.38655 0.58173 0.92138 0.0
H676 H 0.45871 0.60717 0.90627 0.0
C677 C 0.45225 0.59774 0.82461 0.0
C678 C 0.44362 0.61012 0.80725 0.0
C679 C 0.44655 0.5959 0.85171 0.0
C680 C 0.43854 0.60019 0.91014 0.0
H681 H 0.36464 0.57512 0.02312 0.0
H682 H 0.37257 0.58878 0.97626 0.0
H683 H 0.44158 0.59004 0.95024 0.0
H684 H 0.42328 0.63134 0.80461 0.0
H685 H 0.41335 0.62827 0.85239 0.0
H686 H 0.38337 0.59106 0.88082 0.0
C687 C 0.37809 0.5752 0.98341 0.0
C688 C 0.42871 0.59029 0.93528 0.0
C689 C 0.37331 0.56718 0.01009 0.0
C690 C 0.43055 0.62209 0.81772 0.0
C691 C 0.42453 0.61998 0.84494 0.0
C692 C 0.39638 0.59151 0.89602 0.0
C693 C 0.39221 0.56775 0.96701 0.0
C694 C 0.40249 0.58027 0.94092 0.0
C695 C 0.43184 0.60618 0.86205 0.0
C696 C 0.42235 0.60017 0.88995 0.0
H697 H 0.40174 0.53022 0.01092 0.0
H698 H 0.40947 0.54361 0.9644 0.0
H699 H 0.36631 0.57427 0.92533 0.0
H700 H 0.46211 0.58811 0.81694 0.0
H701 H 0.45225 0.58489 0.8642 0.0
C702 C 0.81545 0.37788 0.17985 0.0
C703 C 0.83991 0.38654 0.19095 0.0
C704 C 0.813 0.38263 0.15294 0.0
C705 C 0.8516 0.43166 0.10335 0.0
H706 H 0.79991 0.38792 0.05203 0.0
C707 C 0.86133 0.45257 0.9914 0.0
C708 C 0.83928 0.44531 0.97595 0.0
C709 C 0.85929 0.44752 0.01869 0.0
C710 C 0.81416 0.40054 0.06634 0.0
H711 H 0.88058 0.40457 0.18235 0.0
H712 H 0.87629 0.41192 0.13534 0.0
H713 H 0.80016 0.3712 0.0965 0.0
H714 H 0.79788 0.4283 0.97706 0.0
H715 H 0.79425 0.41961 0.02511 0.0
H716 H 0.86577 0.46091 0.0734 0.0
C717 C 0.85907 0.40215 0.14741 0.0
C718 C 0.81439 0.39087 0.09172 0.0
C719 C 0.86151 0.39756 0.1742 0.0
C720 C 0.81524 0.43451 0.98863 0.0
C721 C 0.81313 0.42914 0.01601 0.0
C722 C 0.85132 0.44131 0.07814 0.0
C723 C 0.835 0.39605 0.13686 0.0
C724 C 0.83353 0.40616 0.11026 0.0
C725 C 0.83508 0.43484 0.03114 0.0
C726 C 0.83296 0.42572 0.05911 0.0
H727 H 0.79858 0.36985 0.1925 0.0
H728 H 0.7942 0.37765 0.14535 0.0
H729 H 0.86613 0.44421 0.11747 0.0
H730 H 0.88005 0.46064 0.98204 0.0
H731 H 0.87658 0.45199 0.02962 0.0
C732 C 0.38113 0.81552 0.15198 0.0
C733 C 0.39354 0.83977 0.13964 0.0
C734 C 0.38371 0.81342 0.17948 0.0
C735 C 0.40363 0.85069 0.24222 0.0
H736 H 0.42927 0.80522 0.26252 0.0
C737 C 0.45421 0.8649 0.34141 0.0
C738 C 0.44634 0.843 0.35732 0.0
C739 C 0.44782 0.86242 0.31447 0.0
C740 C 0.42187 0.81779 0.25722 0.0
H741 H 0.41698 0.88079 0.14623 0.0
H742 H 0.42087 0.87726 0.19412 0.0
H743 H 0.41383 0.80379 0.21703 0.0
H744 H 0.42707 0.80139 0.35737 0.0
H745 H 0.41573 0.79695 0.30998 0.0
H746 H 0.41182 0.86494 0.28208 0.0
C747 C 0.40927 0.85985 0.18277 0.0
C748 C 0.41291 0.81688 0.23124 0.0
C749 C 0.40704 0.8619 0.15536 0.0
C750 C 0.43372 0.81857 0.34537 0.0
C751 C 0.42706 0.81605 0.31832 0.0
C752 C 0.4125 0.85155 0.26808 0.0
C753 C 0.39836 0.83557 0.195 0.0
C754 C 0.40423 0.83374 0.22335 0.0
C755 C 0.43306 0.83796 0.30293 0.0
C756 C 0.42233 0.8356 0.27572 0.0
H757 H 0.37099 0.79816 0.14017 0.0
H758 H 0.37497 0.79449 0.18846 0.0
H759 H 0.39671 0.86363 0.23681 0.0
H760 H 0.46396 0.88394 0.35021 0.0
H761 H 0.45339 0.87969 0.30296 0.0
C762 C 0.56281 0.38622 0.31792 0.0
C763 C 0.55126 0.3985 0.30475 0.0
C764 C 0.56831 0.39028 0.34524 0.0
C765 C 0.58125 0.44044 0.39531 0.0
H766 H 0.57929 0.39118 0.44654 0.0
C767 C 0.5864 0.45631 0.50843 0.0
C768 C 0.59962 0.44738 0.52421 0.0
C769 C 0.58416 0.45206 0.48098 0.0
C770 C 0.58036 0.40525 0.43231 0.0
H771 H 0.5343 0.42264 0.31002 0.0
H772 H 0.54268 0.42872 0.35771 0.0
H773 H 0.56473 0.37739 0.40082 0.0
H774 H 0.62168 0.42784 0.52364 0.0
H775 H 0.61777 0.42034 0.47533 0.0
H776 H 0.59636 0.46815 0.42681 0.0
C777 C 0.5484 0.41674 0.34696 0.0
C778 C 0.57189 0.39731 0.40616 0.0
C779 C 0.5432 0.41293 0.31973 0.0
C780 C 0.6118 0.43534 0.51182 0.0
C781 C 0.60922 0.43071 0.48429 0.0
C782 C 0.58958 0.4483 0.42137 0.0
C783 C 0.56218 0.40656 0.35979 0.0
C784 C 0.57179 0.41473 0.38747 0.0
C785 C 0.59477 0.43843 0.46872 0.0
C786 C 0.58887 0.43074 0.4403 0.0
H787 H 0.56966 0.3754 0.30672 0.0
H788 H 0.57892 0.38213 0.35448 0.0
H789 H 0.58222 0.45459 0.38126 0.0
H790 H 0.57658 0.46537 0.51757 0.0
H791 H 0.57275 0.45809 0.46964 0.0
C792 C 0.93172 0.41829 0.27859 0.0
C793 C 0.90749 0.39914 0.2876 0.0
C794 C 0.95402 0.41955 0.2883 0.0
C795 C 0.97673 0.40721 0.34966 0.0
H796 H 0.04075 0.43854 0.31008 0.0
C797 C 0.09372 0.47713 0.36525 0.0
C798 C 0.09218 0.49593 0.38058 0.0
C799 C 0.07132 0.45548 0.35614 0.0
C800 C 0.02309 0.42917 0.3215 0.0
H801 H 0.88753 0.36523 0.31256 0.0
H802 H 0.92681 0.36773 0.32996 0.0
H803 H 3e-05 0.41634 0.28622 0.0
H804 H 0.06604 0.50591 0.39994 0.0
H805 H 0.02725 0.4685 0.38404 0.0
H806 H -0.00022 0.42132 0.38484 0.0
C807 C 0.92841 0.38171 0.31531 0.0
C808 C -0.00024 0.41665 0.3078 0.0
C809 C 0.90597 0.38029 0.30534 0.0
C810 C 0.0679 0.49192 0.38793 0.0
C811 C 0.04562 0.47026 0.3791 0.0
C812 C 6e-05 0.41968 0.36336 0.0
C813 C 0.95266 0.40179 0.3074 0.0
C814 C 0.97639 0.407 0.32167 0.0
C815 C 0.04706 0.45213 0.36255 0.0
C816 C 0.0234 0.43218 0.34929 0.0
H817 H 0.93353 0.43292 0.2647 0.0
H818 H 0.97237 0.43548 0.28206 0.0
H819 H 0.95907 0.39992 0.36095 0.0
H820 H 0.11219 0.47965 0.35934 0.0
H821 H 0.07297 0.44179 0.34344 0.0
C822 C 0.50847 0.93258 0.4443 0.0
C823 C 0.50482 0.90862 0.45254 0.0
C824 C 0.52984 0.95528 0.45278 0.0
C825 C 0.57935 0.002 0.4688 0.0
H826 H 0.58142 0.00282 0.546 0.0
C827 C 0.61617 0.09634 0.52714 0.0
C828 C 0.59701 0.09441 0.54467 0.0
C829 C 0.615 0.07411 0.51679 0.0
C830 C 0.58146 0.00289 0.52441 0.0
H831 H 0.52151 0.8896 0.47483 0.0
H832 H 0.5589 0.92961 0.49015 0.0
H833 H 0.56085 0.96183 0.52253 0.0
H834 H 0.56267 0.0678 0.56649 0.0
H835 H 0.56061 0.02935 0.54853 0.0
H836 H 0.59785 0.04302 0.47081 0.0
C837 C 0.54514 0.93066 0.47703 0.0
C838 C 0.56988 0.9794 0.51094 0.0
C839 C 0.52378 0.90782 0.46826 0.0
C840 C 0.57757 0.06995 0.55279 0.0
C841 C 0.57659 0.04786 0.54276 0.0
C842 C 0.5909 0.02549 0.48229 0.0
C843 C 0.54803 0.95462 0.46988 0.0
C844 C 0.56731 0.97873 0.48308 0.0
C845 C 0.59492 0.04965 0.52418 0.0
C846 C 0.59061 0.02605 0.51026 0.0
H847 H 0.49435 0.93384 0.43194 0.0
H848 H 0.53122 0.97337 0.44722 0.0
H849 H 0.57805 0.00202 0.44727 0.0
H850 H 0.63144 0.11497 0.52059 0.0
H851 H 0.62937 0.07602 0.50249 0.0
C852 C 0.50805 0.58084 0.72304 0.0
C853 C 0.50337 0.60019 0.71382 0.0
C854 C 0.52922 0.57948 0.7139 0.0
C855 C 0.56534 0.59213 0.65319 0.0
H856 H 0.59637 0.55928 0.69302 0.0
C857 C 0.61142 0.52128 0.63755 0.0
C858 C 0.59132 0.50293 0.62163 0.0
C859 C 0.61071 0.54287 0.64697 0.0
C860 C 0.58854 0.56906 0.68155 0.0
H861 H 0.51817 0.63442 0.68924 0.0
H862 H 0.55519 0.63177 0.67287 0.0
H863 H 0.57792 0.58163 0.71677 0.0
H864 H 0.55573 0.49375 0.60157 0.0
H865 H 0.55445 0.53107 0.61796 0.0
H866 H 0.57468 0.57831 0.61804 0.0
C867 C 0.5424 0.61769 0.6872 0.0
C868 C 0.57777 0.58167 0.69518 0.0
C869 C 0.52126 0.61921 0.69661 0.0
C870 C 0.57138 0.50737 0.61402 0.0
C871 C 0.57082 0.52899 0.62316 0.0
C872 C 0.57615 0.57956 0.63956 0.0
C873 C 0.54613 0.59733 0.69517 0.0
C874 C 0.56465 0.59191 0.68118 0.0
C875 C 0.59011 0.54664 0.64028 0.0
C876 C 0.5864 0.56654 0.65369 0.0
H877 H 0.49478 0.56607 0.73655 0.0
H878 H 0.53129 0.56334 0.72019 0.0
H879 H 0.55543 0.59985 0.64178 0.0
H880 H 0.62709 0.51841 0.64369 0.0
H881 H 0.62584 0.55619 0.66011 0.0
C882 C 0.06375 0.57058 0.78042 0.0
C883 C 0.08754 0.59071 0.78922 0.0
C884 C 0.04094 0.56927 0.78839 0.0
C885 C 0.99415 0.57246 0.803 0.0
H886 H 0.99102 0.57204 0.88015 0.0
C887 C 0.89811 0.51409 0.85803 0.0
C888 C 0.89941 0.49633 0.87532 0.0
C889 C 0.92069 0.53537 0.84861 0.0
C890 C 0.9916 0.5725 0.85857 0.0
H891 H 0.10619 0.62611 0.8121 0.0
H892 H 0.06596 0.6235 0.82656 0.0
H893 H 0.03268 0.59265 0.858 0.0
H894 H 0.9252 0.48786 0.89771 0.0
H895 H 0.96425 0.52463 0.88134 0.0
H896 H 0.9531 0.55021 0.80367 0.0
C897 C 0.06513 0.60882 0.81336 0.0
C898 C 0.01547 0.58451 0.84586 0.0
C899 C 0.0881 0.6103 0.80508 0.0
C900 C 0.92355 0.50102 0.88417 0.0
C901 C 0.94597 0.52234 0.87506 0.0
C902 C 0.97028 0.56042 0.81572 0.0
C903 C 0.04131 0.58796 0.80554 0.0
C904 C 0.01695 0.58317 0.81802 0.0
C905 C 0.94484 0.53942 0.85671 0.0
C906 C 0.96887 0.55895 0.84365 0.0
H907 H 0.06269 0.55534 0.76794 0.0
H908 H 0.02295 0.55271 0.78234 0.0
H909 H 0.99476 0.57157 0.78147 0.0
H910 H 0.87974 0.51099 0.85096 0.0
H911 H 0.91929 0.54824 0.83446 0.0
C912 C 0.46784 0.09045 0.9745 0.0
C913 C 0.48617 0.0893 0.95804 0.0
C914 C 0.4462 0.06775 0.98312 0.0
C915 C 0.41029 0.99656 0.9737 0.0
H916 H 0.41272 0.99448 0.0508 0.0
C917 C 0.41786 0.92763 0.052 0.0
C918 C 0.39819 0.90326 0.04397 0.0
C919 C 0.41782 0.94977 0.04381 0.0
C920 C 0.41138 0.99476 0.02928 0.0
H921 H 0.4952 0.0639 0.93574 0.0
H922 H 0.45773 0.02459 0.95058 0.0
H923 H 0.43206 0.03584 0.02809 0.0
H924 H 0.36228 0.88287 0.02216 0.0
H925 H 0.36254 0.92188 0.00728 0.0
H926 H 0.39183 0.95552 0.9748 0.0
C927 C 0.45983 0.04279 0.95694 0.0
C928 C 0.42224 0.01846 0.01626 0.0
C929 C 0.48152 0.06533 0.94868 0.0
C930 C 0.37775 0.90142 0.02859 0.0
C931 C 0.37788 0.9237 0.02008 0.0
C932 C 0.39944 0.97285 0.98672 0.0
C933 C 0.4424 0.04367 0.97498 0.0
C934 C 0.4233 0.01957 0.98829 0.0
C935 C 0.39821 0.9481 0.02719 0.0
C936 C 0.40142 0.97184 0.01454 0.0
H937 H 0.47097 0.10874 0.98195 0.0
H938 H 0.43304 0.06897 0.99701 0.0
H939 H 0.41047 0.99689 0.95211 0.0
H940 H 0.43374 0.92969 0.06407 0.0
H941 H 0.434 0.96826 0.04928 0.0
C942 C 0.38473 0.47943 0.13796 0.0
C943 C 0.38947 0.48915 0.11193 0.0
C944 C 0.39036 0.46026 0.14509 0.0
C945 C 0.43824 0.44376 0.1239 0.0
H946 H 0.41534 0.40068 0.18699 0.0
C947 C 0.50841 0.43824 0.19385 0.0
C948 C 0.50509 0.41399 0.20036 0.0
C949 C 0.48905 0.44028 0.18092 0.0
C950 C 0.42164 0.41224 0.16904 0.0
H951 H 0.40072 0.4849 0.07218 0.0
H952 H 0.40915 0.45039 0.08412 0.0
H953 H 0.38696 0.41408 0.16604 0.0
H954 H 0.47823 0.37284 0.19934 0.0
H955 H 0.44394 0.37666 0.17686 0.0
H956 H 0.47323 0.44289 0.12753 0.0
C957 C 0.4021 0.45808 0.09937 0.0
C958 C 0.40555 0.42006 0.15716 0.0
C959 C 0.39712 0.47766 0.09244 0.0
C960 C 0.48144 0.39181 0.19449 0.0
C961 C 0.46182 0.39392 0.18171 0.0
C962 C 0.45418 0.436 0.13572 0.0
C963 C 0.4005 0.45042 0.12614 0.0
C964 C 0.41413 0.43678 0.13506 0.0
C965 C 0.4658 0.41818 0.17432 0.0
C966 C 0.44649 0.42114 0.15901 0.0
H967 H 0.37898 0.48826 0.15328 0.0
H968 H 0.38899 0.45499 0.16591 0.0
H969 H 0.44581 0.45688 0.10718 0.0
H970 H 0.52626 0.45577 0.19809 0.0
H971 H 0.49237 0.45924 0.17576 0.0
C972 C 0.19463 0.53085 0.30987 0.0
C973 C 0.20012 0.52891 0.33671 0.0
C974 C 0.20704 0.52545 0.28947 0.0
C975 C 0.26783 0.52917 0.27555 0.0
H976 H 0.23431 0.4908 0.21154 0.0
C977 C 0.32798 0.52447 0.18935 0.0
C978 C 0.32041 0.52641 0.1634 0.0
C979 C 0.3115 0.51975 0.21089 0.0
C980 C 0.24403 0.5018 0.22915 0.0
H981 H 0.22227 0.51898 0.36328 0.0
H982 H 0.24446 0.51005 0.32747 0.0
H983 H 0.20838 0.49153 0.24869 0.0
H984 H 0.28939 0.52412 0.13941 0.0
H985 H 0.26089 0.51701 0.1771 0.0
H986 H 0.30342 0.54075 0.25586 0.0
C987 C 0.23041 0.51563 0.32232 0.0
C988 C 0.22913 0.50204 0.25048 0.0
C989 C 0.21766 0.52064 0.34277 0.0
C990 C 0.29565 0.52261 0.15923 0.0
C991 C 0.27929 0.5184 0.18089 0.0
C992 C 0.28272 0.52926 0.25414 0.0
C993 C 0.22548 0.51835 0.29547 0.0
C994 C 0.24092 0.51593 0.27379 0.0
C995 C 0.28721 0.51745 0.20711 0.0
C996 C 0.27107 0.51577 0.2305 0.0
H997 H 0.1811 0.53707 0.30459 0.0
H998 H 0.20301 0.52791 0.26898 0.0
H999 H 0.27745 0.54039 0.2931 0.0
H1000 H 0.34687 0.52697 0.19308 0.0
H1001 H 0.31806 0.51838 0.23059 0.0
C1002 C 0.78633 0.30317 0.3338 0.0
C1003 C 0.79949 0.33009 0.33667 0.0
C1004 C 0.77329 0.2872 0.35556 0.0
C1005 C 0.74013 0.28852 0.41559 0.0
H1006 H 0.74141 0.22729 0.43794 0.0
C1007 C 0.66265 0.21297 0.4832 0.0
C1008 C 0.6711 0.20687 0.50678 0.0
C1009 C 0.67994 0.22684 0.46293 0.0
C1010 C 0.74104 0.24444 0.43194 0.0
H1011 H 0.81034 0.36124 0.36495 0.0
H1012 H 0.78753 0.33354 0.40244 0.0
H1013 H 0.76944 0.25381 0.40127 0.0
H1014 H 0.70429 0.20979 0.52712 0.0
H1015 H 0.73474 0.23393 0.49107 0.0
H1016 H 0.71147 0.27904 0.4456 0.0
C1017 C 0.78711 0.32476 0.38344 0.0
C1018 C 0.75687 0.25944 0.4109 0.0
C1019 C 0.80023 0.34061 0.36191 0.0
C1020 C 0.69724 0.2143 0.50924 0.0
C1021 C 0.7146 0.22796 0.48862 0.0
C1022 C 0.72412 0.27339 0.43618 0.0
C1023 C 0.77304 0.29793 0.3804 0.0
C1024 C 0.75656 0.28167 0.4026 0.0
C1025 C 0.70611 0.23473 0.4655 0.0
C1026 C 0.72432 0.25117 0.44452 0.0
H1027 H 0.78548 0.29449 0.31463 0.0
H1028 H 0.7625 0.26656 0.35266 0.0
H1029 H 0.73931 0.3054 0.40947 0.0
H1030 H 0.64267 0.20752 0.48055 0.0
H1031 H 0.67287 0.23162 0.44523 0.0
C1032 C 0.47027 0.66458 0.63858 0.0
C1033 C 0.46923 0.67221 0.66477 0.0
C1034 C 0.47579 0.6816 0.61734 0.0
C1035 C 0.49792 0.75049 0.60058 0.0
H1036 H 0.4582 0.71992 0.53644 0.0
C1037 C 0.47213 0.80473 0.52245 0.0
C1038 C 0.47332 0.79947 0.49537 0.0
C1039 C 0.47701 0.79135 0.54223 0.0
C1040 C 0.46975 0.72872 0.55404 0.0
H1041 H 0.47385 0.70383 0.68946 0.0
H1042 H 0.48234 0.73327 0.65236 0.0
H1043 H 0.45621 0.69235 0.57285 0.0
H1044 H 0.48147 0.77674 0.4677 0.0
H1045 H 0.48948 0.75286 0.50241 0.0
H1046 H 0.51016 0.78702 0.58196 0.0
C1047 C 0.47965 0.7144 0.64812 0.0
C1048 C 0.46871 0.71291 0.57498 0.0
C1049 C 0.47463 0.69748 0.66945 0.0
C1050 C 0.48045 0.78122 0.48841 0.0
C1051 C 0.48491 0.7675 0.50824 0.0
C1052 C 0.49862 0.76633 0.57973 0.0
C1053 C 0.47983 0.70653 0.62169 0.0
C1054 C 0.48256 0.72354 0.5987 0.0
C1055 C 0.4828 0.77214 0.53533 0.0
C1056 C 0.48433 0.75559 0.55637 0.0
H1057 H 0.46652 0.64529 0.63443 0.0
H1058 H 0.47647 0.675 0.59745 0.0
H1059 H 0.50924 0.75943 0.61825 0.0
H1060 H 0.46678 0.81877 0.52841 0.0
H1061 H 0.47505 0.79519 0.56293 0.0
C1062 C 0.78337 0.4459 0.8105 0.0
C1063 C 0.78821 0.45948 0.83463 0.0
C1064 C 0.77003 0.4497 0.78993 0.0
C1065 C 0.75126 0.49283 0.75978 0.0
H1066 H 0.69172 0.4298 0.73549 0.0
C1067 C 0.69059 0.47915 0.66239 0.0
C1068 C 0.66382 0.46559 0.6664 0.0
C1069 C 0.70736 0.48216 0.68341 0.0
C1070 C 0.70827 0.44757 0.74206 0.0
H1071 H 0.78371 0.48855 0.85561 0.0
H1072 H 0.76044 0.49548 0.81908 0.0
H1073 H 0.71831 0.42816 0.77127 0.0
H1074 H 0.63382 0.44577 0.69599 0.0
H1075 H 0.66285 0.45069 0.73205 0.0
H1076 H 0.74121 0.5121 0.72996 0.0
C1077 C 0.76701 0.48179 0.81641 0.0
C1078 C 0.72351 0.44662 0.76246 0.0
C1079 C 0.78017 0.47773 0.83731 0.0
C1080 C 0.65429 0.45612 0.69203 0.0
C1081 C 0.6709 0.4589 0.71278 0.0
C1082 C 0.73615 0.49373 0.73889 0.0
C1083 C 0.76141 0.46739 0.79275 0.0
C1084 C 0.74514 0.46918 0.77157 0.0
C1085 C 0.69754 0.47142 0.70859 0.0
C1086 C 0.71441 0.47108 0.72999 0.0
H1087 H 0.78935 0.43178 0.80763 0.0
H1088 H 0.76614 0.4385 0.77183 0.0
H1089 H 0.76794 0.51046 0.76638 0.0
H1090 H 0.69852 0.48672 0.6429 0.0
H1091 H 0.72786 0.49184 0.67968 0.0
C1092 C 0.32933 0.79859 0.97493 0.0
C1093 C 0.32306 0.7937 0.00209 0.0
C1094 C 0.31078 0.78534 0.95537 0.0
C1095 C 0.25407 0.72347 0.94432 0.0
H1096 H 0.24531 0.75459 0.88041 0.0
C1097 C 0.18652 0.65975 0.86152 0.0
C1098 C 0.1948 0.6668 0.83514 0.0
C1099 C 0.19877 0.677 0.8824 0.0
C1100 C 0.24767 0.74554 0.89799 0.0
H1101 H 0.29227 0.77176 0.03011 0.0
H1102 H 0.25987 0.74812 0.9958 0.0
H1103 H 0.27327 0.78195 0.91613 0.0
H1104 H 0.22176 0.69766 0.80969 0.0
H1105 H 0.24402 0.72751 0.84617 0.0
H1106 H 0.2299 0.68716 0.92599 0.0
C1107 C 0.27915 0.76234 0.98973 0.0
C1108 C 0.26357 0.76125 0.91851 0.0
C1109 C 0.29764 0.77592 0.00933 0.0
C1110 C 0.21493 0.69179 0.82987 0.0
C1111 C 0.2276 0.70893 0.85085 0.0
C1112 C 0.23854 0.70778 0.9237 0.0
C1113 C 0.28566 0.76667 0.96256 0.0
C1114 C 0.26707 0.75034 0.94178 0.0
C1115 C 0.22004 0.70155 0.87749 0.0
C1116 C 0.23526 0.71854 0.90011 0.0
H1117 H 0.34875 0.81228 0.96874 0.0
H1118 H 0.31638 0.78891 0.93459 0.0
H1119 H 0.25676 0.71453 0.96184 0.0
H1120 H 0.17079 0.64068 0.8661 0.0
H1121 H 0.19181 0.67082 0.90247 0.0
C1122 C 0.52943 0.34048 0.13767 0.0
C1123 C 0.52836 0.33227 0.16407 0.0
C1124 C 0.52337 0.32331 0.11647 0.0
C1125 C 0.49574 0.2535 0.09956 0.0
H1126 H 0.5393 0.28177 0.0373 0.0
C1127 C 0.51746 0.19416 0.02411 0.0
C1128 C 0.51892 0.2003 0.9969 0.0
C1129 C 0.51309 0.2085 0.04317 0.0
C1130 C 0.52666 0.27363 0.05432 0.0
H1131 H 0.51936 0.29948 0.18912 0.0
H1132 H 0.50981 0.26958 0.15211 0.0
H1133 H 0.54264 0.31017 0.07342 0.0
H1134 H 0.51594 0.22561 0.96817 0.0
H1135 H 0.50878 0.25116 0.00169 0.0
H1136 H 0.48093 0.21665 0.08071 0.0
C1137 C 0.51465 0.28914 0.14766 0.0
C1138 C 0.52849 0.28994 0.07512 0.0
C1139 C 0.52025 0.30629 0.16895 0.0
C1140 C 0.51482 0.22041 0.989 0.0
C1141 C 0.51088 0.23509 0.00817 0.0
C1142 C 0.49419 0.23712 0.07885 0.0
C1143 C 0.51663 0.29755 0.12106 0.0
C1144 C 0.51326 0.28013 0.0982 0.0
C1145 C 0.51048 0.22957 0.03549 0.0
C1146 C 0.50983 0.247 0.05614 0.0
H1147 H 0.53528 0.36035 0.13332 0.0
H1148 H 0.52438 0.33043 0.09643 0.0
H1149 H 0.48334 0.24521 0.1167 0.0
H1150 H 0.52046 0.1787 0.03078 0.0
H1151 H 0.51308 0.2039 0.06404 0.0
loop_
_geom_bond_atom_site_label_1
_geom_bond_atom_site_label_2
_geom_bond_distance
_geom_bond_site_symmetry_2
_ccdc_geom_bond_type
Mn0 O5 2.095 . S
Mn0 O15 2.162 . S
Mn0 O16 2.297 . S
Mn0 O24 2.385 . S
Mn0 O25 2.209 . S
Mn0 O26 2.094 . S
Mn1 O6 2.121 . S
Mn1 N8 2.257 . S
Mn1 N17 2.282 . S
Mn1 O25 2.215 . S
Mn1 O27 2.117 . S
C2 O24 1.234 . S
C2 O25 1.283 . S
C3 O15 1.281 . S
C3 O16 1.236 . S
C4 O26 1.240 . S
C4 O27 1.264 . S
O5 Mn0 2.095 . S
O5 C14 1.250 . S
O6 Mn1 2.121 . S
O6 C14 1.258 . S
C7 N8 1.326 . S
C7 C11 1.460 . S
C7 H13 0.929 . S
N8 Mn1 2.257 . S
N8 C7 1.326 . S
N8 C12 1.362 . S
C9 C10 1.258 . S
C9 C12 1.431 . S
C9 C29 1.449 . S
C10 C9 1.258 . S
C10 C11 1.477 . S
C10 H30 0.931 . S
C11 C7 1.460 . S
C11 C10 1.477 . S
C11 H31 0.930 . S
C12 N8 1.362 . S
C12 C9 1.431 . S
C12 C22 1.476 . S
H13 C7 0.929 . S
C14 O5 1.250 . S
C14 O6 1.258 . S
O15 Mn0 2.162 . S
O15 C3 1.281 . S
O16 Mn0 2.297 . S
O16 C3 1.236 . S
N17 Mn1 2.282 . S
N17 C18 1.328 . S
N17 C22 1.318 . S
C18 N17 1.328 . S
C18 C19 1.457 . S
C18 H23 0.929 . S
C19 C18 1.457 . S
C19 C20 1.291 . S
C19 H32 0.931 . S
C20 C19 1.291 . S
C20 C21 1.373 . S
C20 H33 0.929 . S
C21 C20 1.373 . S
C21 C22 1.396 . S
C21 C28 1.403 . S
C22 C12 1.476 . S
C22 N17 1.318 . S
C22 C21 1.396 . S
H23 C18 0.929 . S
O24 Mn0 2.385 . S
O24 C2 1.234 . S
O25 Mn0 2.209 . S
O25 Mn1 2.215 . S
O25 C2 1.283 . S
O26 Mn0 2.094 . S
O26 C4 1.240 . S
O27 Mn1 2.117 . S
O27 C4 1.264 . S
C28 C21 1.403 . S
C28 C29 1.399 . S
C28 H34 0.929 . S
C29 C9 1.449 . S
C29 C28 1.399 . S
C29 H35 0.930 . S
H30 C10 0.931 . S
H31 C11 0.930 . S
H32 C19 0.931 . S
H33 C20 0.929 . S
H34 C28 0.929 . S
H35 C29 0.930 . S
Mn36 O41 2.095 . S
Mn36 O51 2.162 . S
Mn36 O52 2.297 . S
Mn36 O60 2.385 . S
Mn36 O61 2.209 . S
Mn36 O62 2.094 . S
Mn37 O42 2.121 . S
Mn37 N44 2.257 . S
Mn37 N53 2.282 . S
Mn37 O61 2.215 . S
Mn37 O63 2.117 . S
C38 O60 1.234 . S
C38 O61 1.283 . S
C39 O51 1.281 . S
C39 O52 1.236 . S
C40 O62 1.240 . S
C40 O63 1.264 . S
O41 Mn36 2.095 . S
O41 C50 1.250 . S
O42 Mn37 2.121 . S
O42 C50 1.258 . S
C43 N44 1.326 . S
C43 C47 1.460 . S
C43 H49 0.929 . S
N44 Mn37 2.257 . S
N44 C43 1.326 . S
N44 C48 1.362 . S
C45 C46 1.258 . S
C45 C48 1.431 . S
C45 C65 1.449 . S
C46 C45 1.258 . S
C46 C47 1.477 . S
C46 H66 0.931 . S
C47 C43 1.460 . S
C47 C46 1.477 . S
C47 H67 0.930 . S
C48 N44 1.362 . S
C48 C45 1.431 . S
C48 C58 1.476 . S
H49 C43 0.929 . S
C50 O41 1.250 . S
C50 O42 1.258 . S
O51 Mn36 2.162 . S
O51 C39 1.281 . S
O52 Mn36 2.297 . S
O52 C39 1.236 . S
N53 Mn37 2.282 . S
N53 C54 1.328 . S
N53 C58 1.318 . S
C54 N53 1.328 . S
C54 C55 1.457 . S
C54 H59 0.929 . S
C55 C54 1.457 . S
C55 C56 1.291 . S
C55 H68 0.931 . S
C56 C55 1.291 . S
C56 C57 1.373 . S
C56 H69 0.929 . S
C57 C56 1.373 . S
C57 C58 1.396 . S
C57 C64 1.403 . S
C58 C48 1.476 . S
C58 N53 1.318 . S
C58 C57 1.396 . S
H59 C54 0.929 . S
O60 Mn36 2.385 . S
O60 C38 1.234 . S
O61 Mn36 2.209 . S
O61 Mn37 2.215 . S
O61 C38 1.283 . S
O62 Mn36 2.094 . S
O62 C40 1.240 . S
O63 Mn37 2.117 . S
O63 C40 1.264 . S
C64 C57 1.403 . S
C64 C65 1.399 . S
C64 H70 0.929 . S
C65 C45 1.449 . S
C65 C64 1.399 . S
C65 H71 0.930 . S
H66 C46 0.931 . S
H67 C47 0.930 . S
H68 C55 0.931 . S
H69 C56 0.929 . S
H70 C64 0.929 . S
H71 C65 0.930 . S
Mn72 O77 2.095 . S
Mn72 O87 2.162 . S
Mn72 O88 2.297 . S
Mn72 O96 2.385 . S
Mn72 O97 2.209 . S
Mn72 O98 2.094 . S
Mn73 O78 2.121 . S
Mn73 N80 2.257 . S
Mn73 N89 2.282 . S
Mn73 O97 2.215 . S
Mn73 O99 2.117 . S
C74 O96 1.234 . S
C74 O97 1.283 . S
C75 O87 1.281 . S
C75 O88 1.236 . S
C76 O98 1.240 . S
C76 O99 1.264 . S
O77 Mn72 2.095 . S
O77 C86 1.250 . S
O78 Mn73 2.121 . S
O78 C86 1.258 . S
C79 N80 1.326 . S
C79 C83 1.460 . S
C79 H85 0.929 . S
N80 Mn73 2.257 . S
N80 C79 1.326 . S
N80 C84 1.362 . S
C81 C82 1.258 . S
C81 C84 1.431 . S
C81 C101 1.449 . S
C82 C81 1.258 . S
C82 C83 1.477 . S
C82 H102 0.931 . S
C83 C79 1.460 . S
C83 C82 1.477 . S
C83 H103 0.930 . S
C84 N80 1.362 . S
C84 C81 1.431 . S
C84 C94 1.476 . S
H85 C79 0.929 . S
C86 O77 1.250 . S
C86 O78 1.258 . S
O87 Mn72 2.162 . S
O87 C75 1.281 . S
O88 Mn72 2.297 . S
O88 C75 1.236 . S
N89 Mn73 2.282 . S
N89 C90 1.328 . S
N89 C94 1.318 . S
C90 N89 1.328 . S
C90 C91 1.457 . S
C90 H95 0.929 . S
C91 C90 1.457 . S
C91 C92 1.291 . S
C91 H104 0.931 . S
C92 C91 1.291 . S
C92 C93 1.373 . S
C92 H105 0.929 . S
C93 C92 1.373 . S
C93 C94 1.396 . S
C93 C100 1.403 . S
C94 C84 1.476 . S
C94 N89 1.318 . S
C94 C93 1.396 . S
H95 C90 0.929 . S
O96 Mn72 2.385 . S
O96 C74 1.234 . S
O97 Mn72 2.209 . S
O97 Mn73 2.215 . S
O97 C74 1.283 . S
O98 Mn72 2.094 . S
O98 C76 1.240 . S
O99 Mn73 2.117 . S
O99 C76 1.264 . S
C100 C93 1.403 . S
C100 C101 1.399 . S
C100 H106 0.929 . S
C101 C81 1.449 . S
C101 C100 1.399 . S
C101 H107 0.930 . S
H102 C82 0.931 . S
H103 C83 0.930 . S
H104 C91 0.931 . S
H105 C92 0.929 . S
H106 C100 0.929 . S
H107 C101 0.930 . S
Mn108 O113 2.095 . S
Mn108 O123 2.162 . S
Mn108 O124 2.297 . S
Mn108 O132 2.385 . S
Mn108 O133 2.209 . S
Mn108 O134 2.094 . S
Mn109 O114 2.121 . S
Mn109 N116 2.257 . S
Mn109 N125 2.282 . S
Mn109 O133 2.215 . S
Mn109 O135 2.117 . S
C110 O132 1.234 . S
C110 O133 1.283 . S
C111 O123 1.281 . S
C111 O124 1.236 . S
C112 O134 1.240 . S
C112 O135 1.264 . S
O113 Mn108 2.095 . S
O113 C122 1.250 . S
O114 Mn109 2.121 . S
O114 C122 1.258 . S
C115 N116 1.326 . S
C115 C119 1.460 . S
C115 H121 0.929 . S
N116 Mn109 2.257 . S
N116 C115 1.326 . S
N116 C120 1.362 . S
C117 C118 1.258 . S
C117 C120 1.431 . S
C117 C137 1.449 . S
C118 C117 1.258 . S
C118 C119 1.477 . S
C118 H138 0.931 . S
C119 C115 1.460 . S
C119 C118 1.477 . S
C119 H139 0.930 . S
C120 N116 1.362 . S
C120 C117 1.431 . S
C120 C130 1.476 . S
H121 C115 0.929 . S
C122 O113 1.250 . S
C122 O114 1.258 . S
O123 Mn108 2.162 . S
O123 C111 1.281 . S
O124 Mn108 2.297 . S
O124 C111 1.236 . S
N125 Mn109 2.282 . S
N125 C126 1.328 . S
N125 C130 1.318 . S
C126 N125 1.328 . S
C126 C127 1.457 . S
C126 H131 0.929 . S
C127 C126 1.457 . S
C127 C128 1.291 . S
C127 H140 0.931 . S
C128 C127 1.291 . S
C128 C129 1.373 . S
C128 H141 0.929 . S
C129 C128 1.373 . S
C129 C130 1.396 . S
C129 C136 1.403 . S
C130 C120 1.476 . S
C130 N125 1.318 . S
C130 C129 1.396 . S
H131 C126 0.929 . S
O132 Mn108 2.385 . S
O132 C110 1.234 . S
O133 Mn108 2.209 . S
O133 Mn109 2.215 . S
O133 C110 1.283 . S
O134 Mn108 2.094 . S
O134 C112 1.240 . S
O135 Mn109 2.117 . S
O135 C112 1.264 . S
C136 C129 1.403 . S
C136 C137 1.399 . S
C136 H142 0.929 . S
C137 C117 1.449 . S
C137 C136 1.399 . S
C137 H143 0.930 . S
H138 C118 0.931 . S
H139 C119 0.930 . S
H140 C127 0.931 . S
H141 C128 0.929 . S
H142 C136 0.929 . S
H143 C137 0.930 . S
Mn144 O149 2.095 . S
Mn144 O159 2.162 . S
Mn144 O160 2.297 . S
Mn144 O168 2.385 . S
Mn144 O169 2.209 . S
Mn144 O170 2.094 . S
Mn145 O150 2.121 . S
Mn145 N152 2.257 . S
Mn145 N161 2.282 . S
Mn145 O169 2.215 . S
Mn145 O171 2.117 . S
C146 O168 1.234 . S
C146 O169 1.283 . S
C147 O159 1.281 . S
C147 O160 1.236 . S
C148 O170 1.240 . S
C148 O171 1.264 . S
O149 Mn144 2.095 . S
O149 C158 1.250 . S
O150 Mn145 2.121 . S
O150 C158 1.258 . S
C151 N152 1.326 . S
C151 C155 1.460 . S
C151 H157 0.929 . S
N152 Mn145 2.257 . S
N152 C151 1.326 . S
N152 C156 1.362 . S
C153 C154 1.258 . S
C153 C156 1.431 . S
C153 C173 1.449 . S
C154 C153 1.258 . S
C154 C155 1.477 . S
C154 H174 0.931 . S
C155 C151 1.460 . S
C155 C154 1.477 . S
C155 H175 0.930 . S
C156 N152 1.362 . S
C156 C153 1.431 . S
C156 C166 1.476 . S
H157 C151 0.929 . S
C158 O149 1.250 . S
C158 O150 1.258 . S
O159 Mn144 2.162 . S
O159 C147 1.281 . S
O160 Mn144 2.297 . S
O160 C147 1.236 . S
N161 Mn145 2.282 . S
N161 C162 1.328 . S
N161 C166 1.318 . S
C162 N161 1.328 . S
C162 C163 1.457 . S
C162 H167 0.929 . S
C163 C162 1.457 . S
C163 C164 1.291 . S
C163 H176 0.931 . S
C164 C163 1.291 . S
C164 C165 1.373 . S
C164 H177 0.929 . S
C165 C164 1.373 . S
C165 C166 1.396 . S
C165 C172 1.403 . S
C166 C156 1.476 . S
C166 N161 1.318 . S
C166 C165 1.396 . S
H167 C162 0.929 . S
O168 Mn144 2.385 . S
O168 C146 1.234 . S
O169 Mn144 2.209 . S
O169 Mn145 2.215 . S
O169 C146 1.283 . S
O170 Mn144 2.094 . S
O170 C148 1.240 . S
O171 Mn145 2.117 . S
O171 C148 1.264 . S
C172 C165 1.403 . S
C172 C173 1.399 . S
C172 H178 0.929 . S
C173 C153 1.449 . S
C173 C172 1.399 . S
C173 H179 0.930 . S
H174 C154 0.931 . S
H175 C155 0.930 . S
H176 C163 0.931 . S
H177 C164 0.929 . S
H178 C172 0.929 . S
H179 C173 0.930 . S
Mn180 O185 2.095 . S
Mn180 O195 2.162 . S
Mn180 O196 2.297 . S
Mn180 O204 2.385 . S
Mn180 O205 2.209 . S
Mn180 O206 2.094 . S
Mn181 O186 2.121 . S
Mn181 N188 2.257 . S
Mn181 N197 2.282 . S
Mn181 O205 2.215 . S
Mn181 O207 2.117 . S
C182 O204 1.234 . S
C182 O205 1.283 . S
C183 O195 1.281 . S
C183 O196 1.236 . S
C184 O206 1.240 . S
C184 O207 1.264 . S
O185 Mn180 2.095 . S
O185 C194 1.250 . S
O186 Mn181 2.121 . S
O186 C194 1.258 . S
C187 N188 1.326 . S
C187 C191 1.460 . S
C187 H193 0.929 . S
N188 Mn181 2.257 . S
N188 C187 1.326 . S
N188 C192 1.362 . S
C189 C190 1.258 . S
C189 C192 1.431 . S
C189 C209 1.449 . S
C190 C189 1.258 . S
C190 C191 1.477 . S
C190 H210 0.931 . S
C191 C187 1.460 . S
C191 C190 1.477 . S
C191 H211 0.930 . S
C192 N188 1.362 . S
C192 C189 1.431 . S
C192 C202 1.476 . S
H193 C187 0.929 . S
C194 O185 1.250 . S
C194 O186 1.258 . S
O195 Mn180 2.162 . S
O195 C183 1.281 . S
O196 Mn180 2.297 . S
O196 C183 1.236 . S
N197 Mn181 2.282 . S
N197 C198 1.328 . S
N197 C202 1.318 . S
C198 N197 1.328 . S
C198 C199 1.457 . S
C198 H203 0.929 . S
C199 C198 1.457 . S
C199 C200 1.291 . S
C199 H212 0.931 . S
C200 C199 1.291 . S
C200 C201 1.373 . S
C200 H213 0.929 . S
C201 C200 1.373 . S
C201 C202 1.396 . S
C201 C208 1.403 . S
C202 C192 1.476 . S
C202 N197 1.318 . S
C202 C201 1.396 . S
H203 C198 0.929 . S
O204 Mn180 2.385 . S
O204 C182 1.234 . S
O205 Mn180 2.209 . S
O205 Mn181 2.215 . S
O205 C182 1.283 . S
O206 Mn180 2.094 . S
O206 C184 1.240 . S
O207 Mn181 2.117 . S
O207 C184 1.264 . S
C208 C201 1.403 . S
C208 C209 1.399 . S
C208 H214 0.929 . S
C209 C189 1.449 . S
C209 C208 1.399 . S
C209 H215 0.930 . S
H210 C190 0.931 . S
H211 C191 0.930 . S
H212 C199 0.931 . S
H213 C200 0.929 . S
H214 C208 0.929 . S
H215 C209 0.930 . S
Mn216 O221 2.095 . S
Mn216 O231 2.162 . S
Mn216 O232 2.297 . S
Mn216 O240 2.385 . S
Mn216 O241 2.209 . S
Mn216 O242 2.094 . S
Mn217 O222 2.121 . S
Mn217 N224 2.257 . S
Mn217 N233 2.282 . S
Mn217 O241 2.215 . S
Mn217 O243 2.117 . S
C218 O240 1.234 . S
C218 O241 1.283 . S
C219 O231 1.281 . S
C219 O232 1.236 . S
C220 O242 1.240 . S
C220 O243 1.264 . S
O221 Mn216 2.095 . S
O221 C230 1.250 . S
O222 Mn217 2.121 . S
O222 C230 1.258 . S
C223 N224 1.326 . S
C223 C227 1.460 . S
C223 H229 0.929 . S
N224 Mn217 2.257 . S
N224 C223 1.326 . S
N224 C228 1.362 . S
C225 C226 1.258 . S
C225 C228 1.431 . S
C225 C245 1.449 . S
C226 C225 1.258 . S
C226 C227 1.477 . S
C226 H246 0.931 . S
C227 C223 1.460 . S
C227 C226 1.477 . S
C227 H247 0.930 . S
C228 N224 1.362 . S
C228 C225 1.431 . S
C228 C238 1.476 . S
H229 C223 0.929 . S
C230 O221 1.250 . S
C230 O222 1.258 . S
O231 Mn216 2.162 . S
O231 C219 1.281 . S
O232 Mn216 2.297 . S
O232 C219 1.236 . S
N233 Mn217 2.282 . S
N233 C234 1.328 . S
N233 C238 1.318 . S
C234 N233 1.328 . S
C234 C235 1.457 . S
C234 H239 0.929 . S
C235 C234 1.457 . S
C235 C236 1.291 . S
C235 H248 0.931 . S
C236 C235 1.291 . S
C236 C237 1.373 . S
C236 H249 0.929 . S
C237 C236 1.373 . S
C237 C238 1.396 . S
C237 C244 1.403 . S
C238 C228 1.476 . S
C238 N233 1.318 . S
C238 C237 1.396 . S
H239 C234 0.929 . S
O240 Mn216 2.385 . S
O240 C218 1.234 . S
O241 Mn216 2.209 . S
O241 Mn217 2.215 . S
O241 C218 1.283 . S
O242 Mn216 2.094 . S
O242 C220 1.240 . S
O243 Mn217 2.117 . S
O243 C220 1.264 . S
C244 C237 1.403 . S
C244 C245 1.399 . S
C244 H250 0.929 . S
C245 C225 1.449 . S
C245 C244 1.399 . S
C245 H251 0.930 . S
H246 C226 0.931 . S
H247 C227 0.930 . S
H248 C235 0.931 . S
H249 C236 0.929 . S
H250 C244 0.929 . S
H251 C245 0.930 . S
Mn252 O257 2.095 . S
Mn252 O267 2.162 . S
Mn252 O268 2.297 . S
Mn252 O276 2.385 . S
Mn252 O277 2.209 . S
Mn252 O278 2.094 . S
Mn253 O258 2.121 . S
Mn253 N260 2.257 . S
Mn253 N269 2.282 . S
Mn253 O277 2.215 . S
Mn253 O279 2.117 . S
C254 O276 1.234 . S
C254 O277 1.283 . S
C255 O267 1.281 . S
C255 O268 1.236 . S
C256 O278 1.240 . S
C256 O279 1.264 . S
O257 Mn252 2.095 . S
O257 C266 1.250 . S
O258 Mn253 2.121 . S
O258 C266 1.258 . S
C259 N260 1.326 . S
C259 C263 1.460 . S
C259 H265 0.929 . S
N260 Mn253 2.257 . S
N260 C259 1.326 . S
N260 C264 1.362 . S
C261 C262 1.258 . S
C261 C264 1.431 . S
C261 C281 1.449 . S
C262 C261 1.258 . S
C262 C263 1.477 . S
C262 H282 0.931 . S
C263 C259 1.460 . S
C263 C262 1.477 . S
C263 H283 0.930 . S
C264 N260 1.362 . S
C264 C261 1.431 . S
C264 C274 1.476 . S
H265 C259 0.929 . S
C266 O257 1.250 . S
C266 O258 1.258 . S
O267 Mn252 2.162 . S
O267 C255 1.281 . S
O268 Mn252 2.297 . S
O268 C255 1.236 . S
N269 Mn253 2.282 . S
N269 C270 1.328 . S
N269 C274 1.318 . S
C270 N269 1.328 . S
C270 C271 1.457 . S
C270 H275 0.929 . S
C271 C270 1.457 . S
C271 C272 1.291 . S
C271 H284 0.931 . S
C272 C271 1.291 . S
C272 C273 1.373 . S
C272 H285 0.929 . S
C273 C272 1.373 . S
C273 C274 1.396 . S
C273 C280 1.403 . S
C274 C264 1.476 . S
C274 N269 1.318 . S
C274 C273 1.396 . S
H275 C270 0.929 . S
O276 Mn252 2.385 . S
O276 C254 1.234 . S
O277 Mn252 2.209 . S
O277 Mn253 2.215 . S
O277 C254 1.283 . S
O278 Mn252 2.094 . S
O278 C256 1.240 . S
O279 Mn253 2.117 . S
O279 C256 1.264 . S
C280 C273 1.403 . S
C280 C281 1.399 . S
C280 H286 0.929 . S
C281 C261 1.449 . S
C281 C280 1.399 . S
C281 H287 0.930 . S
H282 C262 0.931 . S
H283 C263 0.930 . S
H284 C271 0.931 . S
H285 C272 0.929 . S
H286 C280 0.929 . S
H287 C281 0.930 . S
Mn288 O293 2.095 . S
Mn288 O303 2.162 . S
Mn288 O304 2.297 . S
Mn288 O312 2.385 . S
Mn288 O313 2.209 . S
Mn288 O314 2.094 . S
Mn289 O294 2.121 . S
Mn289 N296 2.257 . S
Mn289 N305 2.282 . S
Mn289 O313 2.215 . S
Mn289 O315 2.117 . S
C290 O312 1.234 . S
C290 O313 1.283 . S
C291 O303 1.281 . S
C291 O304 1.236 . S
C292 O314 1.240 . S
C292 O315 1.264 . S
O293 Mn288 2.095 . S
O293 C302 1.250 . S
O294 Mn289 2.121 . S
O294 C302 1.258 . S
C295 N296 1.326 . S
C295 C299 1.460 . S
C295 H301 0.929 . S
N296 Mn289 2.257 . S
N296 C295 1.326 . S
N296 C300 1.362 . S
C297 C298 1.258 . S
C297 C300 1.431 . S
C297 C317 1.449 . S
C298 C297 1.258 . S
C298 C299 1.477 . S
C298 H318 0.931 . S
C299 C295 1.460 . S
C299 C298 1.477 . S
C299 H319 0.930 . S
C300 N296 1.362 . S
C300 C297 1.431 . S
C300 C310 1.476 . S
H301 C295 0.929 . S
C302 O293 1.250 . S
C302 O294 1.258 . S
O303 Mn288 2.162 . S
O303 C291 1.281 . S
O304 Mn288 2.297 . S
O304 C291 1.236 . S
N305 Mn289 2.282 . S
N305 C306 1.328 . S
N305 C310 1.318 . S
C306 N305 1.328 . S
C306 C307 1.457 . S
C306 H311 0.929 . S
C307 C306 1.457 . S
C307 C308 1.291 . S
C307 H320 0.931 . S
C308 C307 1.291 . S
C308 C309 1.373 . S
C308 H321 0.929 . S
C309 C308 1.373 . S
C309 C310 1.396 . S
C309 C316 1.403 . S
C310 C300 1.476 . S
C310 N305 1.318 . S
C310 C309 1.396 . S
H311 C306 0.929 . S
O312 Mn288 2.385 . S
O312 C290 1.234 . S
O313 Mn288 2.209 . S
O313 Mn289 2.215 . S
O313 C290 1.283 . S
O314 Mn288 2.094 . S
O314 C292 1.240 . S
O315 Mn289 2.117 . S
O315 C292 1.264 . S
C316 C309 1.403 . S
C316 C317 1.399 . S
C316 H322 0.929 . S
C317 C297 1.449 . S
C317 C316 1.399 . S
C317 H323 0.930 . S
H318 C298 0.931 . S
H319 C299 0.930 . S
H320 C307 0.931 . S
H321 C308 0.929 . S
H322 C316 0.929 . S
H323 C317 0.930 . S
Mn324 O329 2.095 . S
Mn324 O339 2.162 . S
Mn324 O340 2.297 . S
Mn324 O348 2.385 . S
Mn324 O349 2.209 . S
Mn324 O350 2.094 . S
Mn325 O330 2.121 . S
Mn325 N332 2.257 . S
Mn325 N341 2.282 . S
Mn325 O349 2.215 . S
Mn325 O351 2.117 . S
C326 O348 1.234 . S
C326 O349 1.283 . S
C327 O339 1.281 . S
C327 O340 1.236 . S
C328 O350 1.240 . S
C328 O351 1.264 . S
O329 Mn324 2.095 . S
O329 C338 1.250 . S
O330 Mn325 2.121 . S
O330 C338 1.258 . S
C331 N332 1.326 . S
C331 C335 1.460 . S
C331 H337 0.929 . S
N332 Mn325 2.257 . S
N332 C331 1.326 . S
N332 C336 1.362 . S
C333 C334 1.258 . S
C333 C336 1.431 . S
C333 C353 1.449 . S
C334 C333 1.258 . S
C334 C335 1.477 . S
C334 H354 0.931 . S
C335 C331 1.460 . S
C335 C334 1.477 . S
C335 H355 0.930 . S
C336 N332 1.362 . S
C336 C333 1.431 . S
C336 C346 1.476 . S
H337 C331 0.929 . S
C338 O329 1.250 . S
C338 O330 1.258 . S
O339 Mn324 2.162 . S
O339 C327 1.281 . S
O340 Mn324 2.297 . S
O340 C327 1.236 . S
N341 Mn325 2.282 . S
N341 C342 1.328 . S
N341 C346 1.318 . S
C342 N341 1.328 . S
C342 C343 1.457 . S
C342 H347 0.929 . S
C343 C342 1.457 . S
C343 C344 1.291 . S
C343 H356 0.931 . S
C344 C343 1.291 . S
C344 C345 1.373 . S
C344 H357 0.929 . S
C345 C344 1.373 . S
C345 C346 1.396 . S
C345 C352 1.403 . S
C346 C336 1.476 . S
C346 N341 1.318 . S
C346 C345 1.396 . S
H347 C342 0.929 . S
O348 Mn324 2.385 . S
O348 C326 1.234 . S
O349 Mn324 2.209 . S
O349 Mn325 2.215 . S
O349 C326 1.283 . S
O350 Mn324 2.094 . S
O350 C328 1.240 . S
O351 Mn325 2.117 . S
O351 C328 1.264 . S
C352 C345 1.403 . S
C352 C353 1.399 . S
C352 H358 0.929 . S
C353 C333 1.449 . S
C353 C352 1.399 . S
C353 H359 0.930 . S
H354 C334 0.931 . S
H355 C335 0.930 . S
H356 C343 0.931 . S
H357 C344 0.929 . S
H358 C352 0.929 . S
H359 C353 0.930 . S
Mn360 O365 2.095 . S
Mn360 O375 2.162 . S
Mn360 O376 2.297 . S
Mn360 O384 2.385 . S
Mn360 O385 2.209 . S
Mn360 O386 2.094 . S
Mn361 O366 2.121 . S
Mn361 N368 2.257 . S
Mn361 N377 2.282 . S
Mn361 O385 2.215 . S
Mn361 O387 2.117 . S
C362 O384 1.234 . S
C362 O385 1.283 . S
C363 O375 1.281 . S
C363 O376 1.236 . S
C364 O386 1.240 . S
C364 O387 1.264 . S
O365 Mn360 2.095 . S
O365 C374 1.250 . S
O366 Mn361 2.121 . S
O366 C374 1.258 . S
C367 N368 1.326 . S
C367 C371 1.460 . S
C367 H373 0.929 . S
N368 Mn361 2.257 . S
N368 C367 1.326 . S
N368 C372 1.362 . S
C369 C370 1.258 . S
C369 C372 1.431 . S
C369 C389 1.449 . S
C370 C369 1.258 . S
C370 C371 1.477 . S
C370 H390 0.931 . S
C371 C367 1.460 . S
C371 C370 1.477 . S
C371 H391 0.930 . S
C372 N368 1.362 . S
C372 C369 1.431 . S
C372 C382 1.476 . S
H373 C367 0.929 . S
C374 O365 1.250 . S
C374 O366 1.258 . S
O375 Mn360 2.162 . S
O375 C363 1.281 . S
O376 Mn360 2.297 . S
O376 C363 1.236 . S
N377 Mn361 2.282 . S
N377 C378 1.328 . S
N377 C382 1.318 . S
C378 N377 1.328 . S
C378 C379 1.457 . S
C378 H383 0.929 . S
C379 C378 1.457 . S
C379 C380 1.291 . S
C379 H392 0.931 . S
C380 C379 1.291 . S
C380 C381 1.373 . S
C380 H393 0.929 . S
C381 C380 1.373 . S
C381 C382 1.396 . S
C381 C388 1.403 . S
C382 C372 1.476 . S
C382 N377 1.318 . S
C382 C381 1.396 . S
H383 C378 0.929 . S
O384 Mn360 2.385 . S
O384 C362 1.234 . S
O385 Mn360 2.209 . S
O385 Mn361 2.215 . S
O385 C362 1.283 . S
O386 Mn360 2.094 . S
O386 C364 1.240 . S
O387 Mn361 2.117 . S
O387 C364 1.264 . S
C388 C381 1.403 . S
C388 C389 1.399 . S
C388 H394 0.929 . S
C389 C369 1.449 . S
C389 C388 1.399 . S
C389 H395 0.930 . S
H390 C370 0.931 . S
H391 C371 0.930 . S
H392 C379 0.931 . S
H393 C380 0.929 . S
H394 C388 0.929 . S
H395 C389 0.930 . S
Mn396 O401 2.095 . S
Mn396 O411 2.162 . S
Mn396 O412 2.297 . S
Mn396 O420 2.385 . S
Mn396 O421 2.209 . S
Mn396 O422 2.094 . S
Mn397 O402 2.121 . S
Mn397 N404 2.257 . S
Mn397 N413 2.282 . S
Mn397 O421 2.215 . S
Mn397 O423 2.117 . S
C398 O420 1.234 . S
C398 O421 1.283 . S
C399 O411 1.281 . S
C399 O412 1.236 . S
C400 O422 1.240 . S
C400 O423 1.264 . S
O401 Mn396 2.095 . S
O401 C410 1.250 . S
O402 Mn397 2.121 . S
O402 C410 1.258 . S
C403 N404 1.326 . S
C403 C407 1.460 . S
C403 H409 0.929 . S
N404 Mn397 2.257 . S
N404 C403 1.326 . S
N404 C408 1.362 . S
C405 C406 1.258 . S
C405 C408 1.431 . S
C405 C425 1.449 . S
C406 C405 1.258 . S
C406 C407 1.477 . S
C406 H426 0.931 . S
C407 C403 1.460 . S
C407 C406 1.477 . S
C407 H427 0.930 . S
C408 N404 1.362 . S
C408 C405 1.431 . S
C408 C418 1.476 . S
H409 C403 0.929 . S
C410 O401 1.250 . S
C410 O402 1.258 . S
O411 Mn396 2.162 . S
O411 C399 1.281 . S
O412 Mn396 2.297 . S
O412 C399 1.236 . S
N413 Mn397 2.282 . S
N413 C414 1.328 . S
N413 C418 1.318 . S
C414 N413 1.328 . S
C414 C415 1.457 . S
C414 H419 0.929 . S
C415 C414 1.457 . S
C415 C416 1.291 . S
C415 H428 0.931 . S
C416 C415 1.291 . S
C416 C417 1.373 . S
C416 H429 0.929 . S
C417 C416 1.373 . S
C417 C418 1.396 . S
C417 C424 1.403 . S
C418 C408 1.476 . S
C418 N413 1.318 . S
C418 C417 1.396 . S
H419 C414 0.929 . S
O420 Mn396 2.385 . S
O420 C398 1.234 . S
O421 Mn396 2.209 . S
O421 Mn397 2.215 . S
O421 C398 1.283 . S
O422 Mn396 2.094 . S
O422 C400 1.240 . S
O423 Mn397 2.117 . S
O423 C400 1.264 . S
C424 C417 1.403 . S
C424 C425 1.399 . S
C424 H430 0.929 . S
C425 C405 1.449 . S
C425 C424 1.399 . S
C425 H431 0.930 . S
H426 C406 0.931 . S
H427 C407 0.930 . S
H428 C415 0.931 . S
H429 C416 0.929 . S
H430 C424 0.929 . S
H431 C425 0.930 . S
C432 C433 1.349 . S
C432 C434 1.327 . S
C432 H457 0.950 . S
C433 C432 1.349 . S
C433 C449 1.349 . S
C434 C432 1.327 . S
C434 C453 1.429 . S
C434 H458 0.950 . S
C435 C452 1.574 . S
C435 C454 1.368 . S
C435 H459 0.949 . S
H436 C440 0.949 . S
C437 C438 1.349 . S
C437 C439 1.327 . S
C437 H460 0.950 . S
C438 C437 1.349 . S
C438 C450 1.349 . S
C439 C437 1.327 . S
C439 C455 1.429 . S
C439 H461 0.950 . S
C440 H436 0.949 . S
C440 C448 1.574 . S
C440 C456 1.368 . S
H441 C449 0.950 . S
H442 C447 0.950 . S
H443 C448 0.949 . S
H444 C450 0.950 . S
H445 C451 0.950 . S
H446 C452 0.949 . S
C447 H442 0.950 . S
C447 C449 1.327 . S
C447 C453 1.429 . S
C448 C440 1.574 . S
C448 H443 0.949 . S
C448 C454 1.368 . S
C449 C433 1.349 . S
C449 H441 0.950 . S
C449 C447 1.327 . S
C450 C438 1.349 . S
C450 H444 0.950 . S
C450 C451 1.327 . S
C451 H445 0.950 . S
C451 C450 1.327 . S
C451 C455 1.429 . S
C452 C435 1.574 . S
C452 H446 0.949 . S
C452 C456 1.368 . S
C453 C434 1.429 . S
C453 C447 1.429 . S
C453 C454 1.523 . S
C454 C435 1.368 . S
C454 C448 1.368 . S
C454 C453 1.523 . S
C455 C439 1.429 . S
C455 C451 1.429 . S
C455 C456 1.523 . S
C456 C440 1.368 . S
C456 C452 1.368 . S
C456 C455 1.523 . S
H457 C432 0.950 . S
H458 C434 0.950 . S
H459 C435 0.949 . S
H460 C437 0.950 . S
H461 C439 0.950 . S
C462 C463 1.349 . S
C462 C464 1.327 . S
C462 H487 0.950 . S
C463 C462 1.349 . S
C463 C479 1.349 . S
C464 C462 1.327 . S
C464 C483 1.429 . S
C464 H488 0.950 . S
C465 C482 1.574 . S
C465 C484 1.368 . S
C465 H489 0.949 . S
H466 C470 0.949 . S
C467 C468 1.349 . S
C467 C469 1.327 . S
C467 H490 0.950 . S
C468 C467 1.349 . S
C468 C480 1.349 . S
C469 C467 1.327 . S
C469 C485 1.429 . S
C469 H491 0.950 . S
C470 H466 0.949 . S
C470 C478 1.574 . S
C470 C486 1.368 . S
H471 C479 0.950 . S
H472 C477 0.950 . S
H473 C478 0.949 . S
H474 C480 0.950 . S
H475 C481 0.950 . S
H476 C482 0.949 . S
C477 H472 0.950 . S
C477 C479 1.327 . S
C477 C483 1.429 . S
C478 C470 1.574 . S
C478 H473 0.949 . S
C478 C484 1.368 . S
C479 C463 1.349 . S
C479 H471 0.950 . S
C479 C477 1.327 . S
C480 C468 1.349 . S
C480 H474 0.950 . S
C480 C481 1.327 . S
C481 H475 0.950 . S
C481 C480 1.327 . S
C481 C485 1.429 . S
C482 C465 1.574 . S
C482 H476 0.949 . S
C482 C486 1.368 . S
C483 C464 1.429 . S
C483 C477 1.429 . S
C483 C484 1.523 . S
C484 C465 1.368 . S
C484 C478 1.368 . S
C484 C483 1.523 . S
C485 C469 1.429 . S
C485 C481 1.429 . S
C485 C486 1.523 . S
C486 C470 1.368 . S
C486 C482 1.368 . S
C486 C485 1.523 . S
H487 C462 0.950 . S
H488 C464 0.950 . S
H489 C465 0.949 . S
H490 C467 0.950 . S
H491 C469 0.950 . S
C492 C493 1.349 . S
C492 C494 1.327 . S
C492 H517 0.950 . S
C493 C492 1.349 . S
C493 C509 1.349 . S
C494 C492 1.327 . S
C494 C513 1.429 . S
C494 H518 0.950 . S
C495 C512 1.574 . S
C495 C514 1.368 . S
C495 H519 0.949 . S
H496 C500 0.949 . S
C497 C498 1.349 . S
C497 C499 1.327 . S
C497 H520 0.950 . S
C498 C497 1.349 . S
C498 C510 1.349 . S
C499 C497 1.327 . S
C499 C515 1.429 . S
C499 H521 0.950 . S
C500 H496 0.949 . S
C500 C508 1.574 . S
C500 C516 1.368 . S
H501 C509 0.950 . S
H502 C507 0.950 . S
H503 C508 0.949 . S
H504 C510 0.950 . S
H505 C511 0.950 . S
H506 C512 0.949 . S
C507 H502 0.950 . S
C507 C509 1.327 . S
C507 C513 1.429 . S
C508 C500 1.574 . S
C508 H503 0.949 . S
C508 C514 1.368 . S
C509 C493 1.349 . S
C509 H501 0.950 . S
C509 C507 1.327 . S
C510 C498 1.349 . S
C510 H504 0.950 . S
C510 C511 1.327 . S
C511 H505 0.950 . S
C511 C510 1.327 . S
C511 C515 1.429 . S
C512 C495 1.574 . S
C512 H506 0.949 . S
C512 C516 1.368 . S
C513 C494 1.429 . S
C513 C507 1.429 . S
C513 C514 1.523 . S
C514 C495 1.368 . S
C514 C508 1.368 . S
C514 C513 1.523 . S
C515 C499 1.429 . S
C515 C511 1.429 . S
C515 C516 1.523 . S
C516 C500 1.368 . S
C516 C512 1.368 . S
C516 C515 1.523 . S
H517 C492 0.950 . S
H518 C494 0.950 . S
H519 C495 0.949 . S
H520 C497 0.950 . S
H521 C499 0.950 . S
C522 C523 1.349 . S
C522 C524 1.327 . S
C522 H547 0.950 . S
C523 C522 1.349 . S
C523 C539 1.349 . S
C524 C522 1.327 . S
C524 C543 1.429 . S
C524 H548 0.950 . S
C525 C542 1.574 . S
C525 C544 1.368 . S
C525 H549 0.949 . S
H526 C530 0.949 . S
C527 C528 1.349 . S
C527 C529 1.327 . S
C527 H550 0.950 . S
C528 C527 1.349 . S
C528 C540 1.349 . S
C529 C527 1.327 . S
C529 C545 1.429 . S
C529 H551 0.950 . S
C530 H526 0.949 . S
C530 C538 1.574 . S
C530 C546 1.368 . S
H531 C539 0.950 . S
H532 C537 0.950 . S
H533 C538 0.949 . S
H534 C540 0.950 . S
H535 C541 0.950 . S
H536 C542 0.949 . S
C537 H532 0.950 . S
C537 C539 1.327 . S
C537 C543 1.429 . S
C538 C530 1.574 . S
C538 H533 0.949 . S
C538 C544 1.368 . S
C539 C523 1.349 . S
C539 H531 0.950 . S
C539 C537 1.327 . S
C540 C528 1.349 . S
C540 H534 0.950 . S
C540 C541 1.327 . S
C541 H535 0.950 . S
C541 C540 1.327 . S
C541 C545 1.429 . S
C542 C525 1.574 . S
C542 H536 0.949 . S
C542 C546 1.368 . S
C543 C524 1.429 . S
C543 C537 1.429 . S
C543 C544 1.523 . S
C544 C525 1.368 . S
C544 C538 1.368 . S
C544 C543 1.523 . S
C545 C529 1.429 . S
C545 C541 1.429 . S
C545 C546 1.523 . S
C546 C530 1.368 . S
C546 C542 1.368 . S
C546 C545 1.523 . S
H547 C522 0.950 . S
H548 C524 0.950 . S
H549 C525 0.949 . S
H550 C527 0.950 . S
H551 C529 0.950 . S
C552 C553 1.349 . S
C552 C554 1.327 . S
C552 H577 0.950 . S
C553 C552 1.349 . S
C553 C569 1.349 . S
C554 C552 1.327 . S
C554 C573 1.429 . S
C554 H578 0.950 . S
C555 C572 1.574 . S
C555 C574 1.368 . S
C555 H579 0.949 . S
H556 C560 0.949 . S
C557 C558 1.349 . S
C557 C559 1.327 . S
C557 H580 0.950 . S
C558 C557 1.349 . S
C558 C570 1.349 . S
C559 C557 1.327 . S
C559 C575 1.429 . S
C559 H581 0.950 . S
C560 H556 0.949 . S
C560 C568 1.574 . S
C560 C576 1.368 . S
H561 C569 0.950 . S
H562 C567 0.950 . S
H563 C568 0.949 . S
H564 C570 0.950 . S
H565 C571 0.950 . S
H566 C572 0.949 . S
C567 H562 0.950 . S
C567 C569 1.327 . S
C567 C573 1.429 . S
C568 C560 1.574 . S
C568 H563 0.949 . S
C568 C574 1.368 . S
C569 C553 1.349 . S
C569 H561 0.950 . S
C569 C567 1.327 . S
C570 C558 1.349 . S
C570 H564 0.950 . S
C570 C571 1.327 . S
C571 H565 0.950 . S
C571 C570 1.327 . S
C571 C575 1.429 . S
C572 C555 1.574 . S
C572 H566 0.949 . S
C572 C576 1.368 . S
C573 C554 1.429 . S
C573 C567 1.429 . S
C573 C574 1.523 . S
C574 C555 1.368 . S
C574 C568 1.368 . S
C574 C573 1.523 . S
C575 C559 1.429 . S
C575 C571 1.429 . S
C575 C576 1.523 . S
C576 C560 1.368 . S
C576 C572 1.368 . S
C576 C575 1.523 . S
H577 C552 0.950 . S
H578 C554 0.950 . S
H579 C555 0.949 . S
H580 C557 0.950 . S
H581 C559 0.950 . S
C582 C583 1.349 . S
C582 C584 1.327 . S
C582 H607 0.950 . S
C583 C582 1.349 . S
C583 C599 1.349 . S
C584 C582 1.327 . S
C584 C603 1.429 . S
C584 H608 0.950 . S
C585 C602 1.574 . S
C585 C604 1.368 . S
C585 H609 0.949 . S
H586 C590 0.949 . S
C587 C588 1.349 . S
C587 C589 1.327 . S
C587 H610 0.950 . S
C588 C587 1.349 . S
C588 C600 1.349 . S
C589 C587 1.327 . S
C589 C605 1.429 . S
C589 H611 0.950 . S
C590 H586 0.949 . S
C590 C598 1.574 . S
C590 C606 1.368 . S
H591 C599 0.950 . S
H592 C597 0.950 . S
H593 C598 0.949 . S
H594 C600 0.950 . S
H595 C601 0.950 . S
H596 C602 0.949 . S
C597 H592 0.950 . S
C597 C599 1.327 . S
C597 C603 1.429 . S
C598 C590 1.574 . S
C598 H593 0.949 . S
C598 C604 1.368 . S
C599 C583 1.349 . S
C599 H591 0.950 . S
C599 C597 1.327 . S
C600 C588 1.349 . S
C600 H594 0.950 . S
C600 C601 1.327 . S
C601 H595 0.950 . S
C601 C600 1.327 . S
C601 C605 1.429 . S
C602 C585 1.574 . S
C602 H596 0.949 . S
C602 C606 1.368 . S
C603 C584 1.429 . S
C603 C597 1.429 . S
C603 C604 1.523 . S
C604 C585 1.368 . S
C604 C598 1.368 . S
C604 C603 1.523 . S
C605 C589 1.429 . S
C605 C601 1.429 . S
C605 C606 1.523 . S
C606 C590 1.368 . S
C606 C602 1.368 . S
C606 C605 1.523 . S
H607 C582 0.950 . S
H608 C584 0.950 . S
H609 C585 0.949 . S
H610 C587 0.950 . S
H611 C589 0.950 . S
C612 C613 1.349 . S
C612 C614 1.327 . S
C612 H637 0.950 . S
C613 C612 1.349 . S
C613 C629 1.349 . S
C614 C612 1.327 . S
C614 C633 1.429 . S
C614 H638 0.950 . S
C615 C632 1.574 . S
C615 C634 1.368 . S
C615 H639 0.949 . S
H616 C620 0.949 . S
C617 C618 1.349 . S
C617 C619 1.327 . S
C617 H640 0.950 . S
C618 C617 1.349 . S
C618 C630 1.349 . S
C619 C617 1.327 . S
C619 C635 1.429 . S
C619 H641 0.950 . S
C620 H616 0.949 . S
C620 C628 1.574 . S
C620 C636 1.368 . S
H621 C629 0.950 . S
H622 C627 0.950 . S
H623 C628 0.949 . S
H624 C630 0.950 . S
H625 C631 0.950 . S
H626 C632 0.949 . S
C627 H622 0.950 . S
C627 C629 1.327 . S
C627 C633 1.429 . S
C628 C620 1.574 . S
C628 H623 0.949 . S
C628 C634 1.368 . S
C629 C613 1.349 . S
C629 H621 0.950 . S
C629 C627 1.327 . S
C630 C618 1.349 . S
C630 H624 0.950 . S
C630 C631 1.327 . S
C631 H625 0.950 . S
C631 C630 1.327 . S
C631 C635 1.429 . S
C632 C615 1.574 . S
C632 H626 0.949 . S
C632 C636 1.368 . S
C633 C614 1.429 . S
C633 C627 1.429 . S
C633 C634 1.523 . S
C634 C615 1.368 . S
C634 C628 1.368 . S
C634 C633 1.523 . S
C635 C619 1.429 . S
C635 C631 1.429 . S
C635 C636 1.523 . S
C636 C620 1.368 . S
C636 C632 1.368 . S
C636 C635 1.523 . S
H637 C612 0.950 . S
H638 C614 0.950 . S
H639 C615 0.949 . S
H640 C617 0.950 . S
H641 C619 0.950 . S
C642 C643 1.349 . S
C642 C644 1.327 . S
C642 H667 0.950 . S
C643 C642 1.349 . S
C643 C659 1.349 . S
C644 C642 1.327 . S
C644 C663 1.429 . S
C644 H668 0.950 . S
C645 C662 1.574 . S
C645 C664 1.368 . S
C645 H669 0.949 . S
H646 C650 0.949 . S
C647 C648 1.349 . S
C647 C649 1.327 . S
C647 H670 0.950 . S
C648 C647 1.349 . S
C648 C660 1.349 . S
C649 C647 1.327 . S
C649 C665 1.429 . S
C649 H671 0.950 . S
C650 H646 0.949 . S
C650 C658 1.574 . S
C650 C666 1.368 . S
H651 C659 0.950 . S
H652 C657 0.950 . S
H653 C658 0.949 . S
H654 C660 0.950 . S
H655 C661 0.950 . S
H656 C662 0.949 . S
C657 H652 0.950 . S
C657 C659 1.327 . S
C657 C663 1.429 . S
C658 C650 1.574 . S
C658 H653 0.949 . S
C658 C664 1.368 . S
C659 C643 1.349 . S
C659 H651 0.950 . S
C659 C657 1.327 . S
C660 C648 1.349 . S
C660 H654 0.950 . S
C660 C661 1.327 . S
C661 H655 0.950 . S
C661 C660 1.327 . S
C661 C665 1.429 . S
C662 C645 1.574 . S
C662 H656 0.949 . S
C662 C666 1.368 . S
C663 C644 1.429 . S
C663 C657 1.429 . S
C663 C664 1.523 . S
C664 C645 1.368 . S
C664 C658 1.368 . S
C664 C663 1.523 . S
C665 C649 1.429 . S
C665 C661 1.429 . S
C665 C666 1.523 . S
C666 C650 1.368 . S
C666 C662 1.368 . S
C666 C665 1.523 . S
H667 C642 0.950 . S
H668 C644 0.950 . S
H669 C645 0.949 . S
H670 C647 0.950 . S
H671 C649 0.950 . S
C672 C673 1.349 . S
C672 C674 1.327 1_554 S
C672 H697 0.950 . S
C673 C672 1.349 . S
C673 C689 1.349 . S
C674 C672 1.327 1_556 S
C674 C693 1.429 . S
C674 H698 0.950 . S
C675 C692 1.574 . S
C675 C694 1.368 . S
C675 H699 0.949 . S
H676 C680 0.949 . S
C677 C678 1.349 . S
C677 C679 1.327 . S
C677 H700 0.950 . S
C678 C677 1.349 . S
C678 C690 1.349 . S
C679 C677 1.327 . S
C679 C695 1.429 . S
C679 H701 0.950 . S
C680 H676 0.949 . S
C680 C688 1.574 . S
C680 C696 1.368 . S
H681 C689 0.950 . S
H682 C687 0.950 . S
H683 C688 0.949 . S
H684 C690 0.950 . S
H685 C691 0.950 . S
H686 C692 0.949 . S
C687 H682 0.950 . S
C687 C689 1.327 1_556 S
C687 C693 1.429 . S
C688 C680 1.574 . S
C688 H683 0.949 . S
C688 C694 1.368 . S
C689 C673 1.349 . S
C689 H681 0.950 . S
C689 C687 1.327 1_554 S
C690 C678 1.349 . S
C690 H684 0.950 . S
C690 C691 1.327 . S
C691 H685 0.950 . S
C691 C690 1.327 . S
C691 C695 1.429 . S
C692 C675 1.574 . S
C692 H686 0.949 . S
C692 C696 1.368 . S
C693 C674 1.429 . S
C693 C687 1.429 . S
C693 C694 1.523 . S
C694 C675 1.368 . S
C694 C688 1.368 . S
C694 C693 1.523 . S
C695 C679 1.429 . S
C695 C691 1.429 . S
C695 C696 1.523 . S
C696 C680 1.368 . S
C696 C692 1.368 . S
C696 C695 1.523 . S
H697 C672 0.950 . S
H698 C674 0.950 . S
H699 C675 0.949 . S
H700 C677 0.950 . S
H701 C679 0.950 . S
C702 C703 1.349 . S
C702 C704 1.327 . S
C702 H727 0.950 . S
C703 C702 1.349 . S
C703 C719 1.349 . S
C704 C702 1.327 . S
C704 C723 1.429 . S
C704 H728 0.950 . S
C705 C722 1.574 . S
C705 C724 1.368 . S
C705 H729 0.949 . S
H706 C710 0.949 . S
C707 C708 1.349 . S
C707 C709 1.327 1_556 S
C707 H730 0.950 . S
C708 C707 1.349 . S
C708 C720 1.349 . S
C709 C707 1.327 1_554 S
C709 C725 1.429 . S
C709 H731 0.950 . S
C710 H706 0.949 . S
C710 C718 1.574 . S
C710 C726 1.368 . S
H711 C719 0.950 . S
H712 C717 0.950 . S
H713 C718 0.949 . S
H714 C720 0.950 . S
H715 C721 0.950 . S
H716 C722 0.949 . S
C717 H712 0.950 . S
C717 C719 1.327 . S
C717 C723 1.429 . S
C718 C710 1.574 . S
C718 H713 0.949 . S
C718 C724 1.368 . S
C719 C703 1.349 . S
C719 H711 0.950 . S
C719 C717 1.327 . S
C720 C708 1.349 . S
C720 H714 0.950 . S
C720 C721 1.327 1_556 S
C721 H715 0.950 . S
C721 C720 1.327 1_554 S
C721 C725 1.429 . S
C722 C705 1.574 . S
C722 H716 0.949 . S
C722 C726 1.368 . S
C723 C704 1.429 . S
C723 C717 1.429 . S
C723 C724 1.523 . S
C724 C705 1.368 . S
C724 C718 1.368 . S
C724 C723 1.523 . S
C725 C709 1.429 . S
C725 C721 1.429 . S
C725 C726 1.523 . S
C726 C710 1.368 . S
C726 C722 1.368 . S
C726 C725 1.523 . S
H727 C702 0.950 . S
H728 C704 0.950 . S
H729 C705 0.949 . S
H730 C707 0.950 . S
H731 C709 0.950 . S
C732 C733 1.349 . S
C732 C734 1.327 . S
C732 H757 0.950 . S
C733 C732 1.349 . S
C733 C749 1.349 . S
C734 C732 1.327 . S
C734 C753 1.429 . S
C734 H758 0.950 . S
C735 C752 1.574 . S
C735 C754 1.368 . S
C735 H759 0.949 . S
H736 C740 0.949 . S
C737 C738 1.349 . S
C737 C739 1.327 . S
C737 H760 0.950 . S
C738 C737 1.349 . S
C738 C750 1.349 . S
C739 C737 1.327 . S
C739 C755 1.429 . S
C739 H761 0.950 . S
C740 H736 0.949 . S
C740 C748 1.574 . S
C740 C756 1.368 . S
H741 C749 0.950 . S
H742 C747 0.950 . S
H743 C748 0.949 . S
H744 C750 0.950 . S
H745 C751 0.950 . S
H746 C752 0.949 . S
C747 H742 0.950 . S
C747 C749 1.327 . S
C747 C753 1.429 . S
C748 C740 1.574 . S
C748 H743 0.949 . S
C748 C754 1.368 . S
C749 C733 1.349 . S
C749 H741 0.950 . S
C749 C747 1.327 . S
C750 C738 1.349 . S
C750 H744 0.950 . S
C750 C751 1.327 . S
C751 H745 0.950 . S
C751 C750 1.327 . S
C751 C755 1.429 . S
C752 C735 1.574 . S
C752 H746 0.949 . S
C752 C756 1.368 . S
C753 C734 1.429 . S
C753 C747 1.429 . S
C753 C754 1.523 . S
C754 C735 1.368 . S
C754 C748 1.368 . S
C754 C753 1.523 . S
C755 C739 1.429 . S
C755 C751 1.429 . S
C755 C756 1.523 . S
C756 C740 1.368 . S
C756 C752 1.368 . S
C756 C755 1.523 . S
H757 C732 0.950 . S
H758 C734 0.950 . S
H759 C735 0.949 . S
H760 C737 0.950 . S
H761 C739 0.950 . S
C762 C763 1.349 . S
C762 C764 1.327 . S
C762 H787 0.950 . S
C763 C762 1.349 . S
C763 C779 1.349 . S
C764 C762 1.327 . S
C764 C783 1.429 . S
C764 H788 0.950 . S
C765 C782 1.574 . S
C765 C784 1.368 . S
C765 H789 0.949 . S
H766 C770 0.949 . S
C767 C768 1.349 . S
C767 C769 1.327 . S
C767 H790 0.950 . S
C768 C767 1.349 . S
C768 C780 1.349 . S
C769 C767 1.327 . S
C769 C785 1.429 . S
C769 H791 0.950 . S
C770 H766 0.949 . S
C770 C778 1.574 . S
C770 C786 1.368 . S
H771 C779 0.950 . S
H772 C777 0.950 . S
H773 C778 0.949 . S
H774 C780 0.950 . S
H775 C781 0.950 . S
H776 C782 0.949 . S
C777 H772 0.950 . S
C777 C779 1.327 . S
C777 C783 1.429 . S
C778 C770 1.574 . S
C778 H773 0.949 . S
C778 C784 1.368 . S
C779 C763 1.349 . S
C779 H771 0.950 . S
C779 C777 1.327 . S
C780 C768 1.349 . S
C780 H774 0.950 . S
C780 C781 1.327 . S
C781 H775 0.950 . S
C781 C780 1.327 . S
C781 C785 1.429 . S
C782 C765 1.574 . S
C782 H776 0.949 . S
C782 C786 1.368 . S
C783 C764 1.429 . S
C783 C777 1.429 . S
C783 C784 1.523 . S
C784 C765 1.368 . S
C784 C778 1.368 . S
C784 C783 1.523 . S
C785 C769 1.429 . S
C785 C781 1.429 . S
C785 C786 1.523 . S
C786 C770 1.368 . S
C786 C782 1.368 . S
C786 C785 1.523 . S
H787 C762 0.950 . S
H788 C764 0.950 . S
H789 C765 0.949 . S
H790 C767 0.950 . S
H791 C769 0.950 . S
C792 C793 1.349 . S
C792 C794 1.327 . S
C792 H817 0.950 . S
C793 C792 1.349 . S
C793 C809 1.349 . S
C794 C792 1.327 . S
C794 C813 1.429 . S
C794 H818 0.950 . S
C795 C812 1.574 1_655 S
C795 C814 1.368 . S
C795 H819 0.949 . S
H796 C800 0.949 . S
C797 C798 1.349 . S
C797 C799 1.327 . S
C797 H820 0.950 . S
C798 C797 1.349 . S
C798 C810 1.349 . S
C799 C797 1.327 . S
C799 C815 1.429 . S
C799 H821 0.950 . S
C800 H796 0.949 . S
C800 C808 1.574 1_455 S
C800 C816 1.368 . S
H801 C809 0.950 . S
H802 C807 0.950 . S
H803 C808 0.949 . S
H804 C810 0.950 . S
H805 C811 0.950 . S
H806 C812 0.949 . S
C807 H802 0.950 . S
C807 C809 1.327 . S
C807 C813 1.429 . S
C808 C800 1.574 1_655 S
C808 H803 0.949 . S
C808 C814 1.368 . S
C809 C793 1.349 . S
C809 H801 0.950 . S
C809 C807 1.327 . S
C810 C798 1.349 . S
C810 H804 0.950 . S
C810 C811 1.327 . S
C811 H805 0.950 . S
C811 C810 1.327 . S
C811 C815 1.429 . S
C812 C795 1.574 1_455 S
C812 H806 0.949 . S
C812 C816 1.368 . S
C813 C794 1.429 . S
C813 C807 1.429 . S
C813 C814 1.523 . S
C814 C795 1.368 . S
C814 C808 1.368 . S
C814 C813 1.523 . S
C815 C799 1.429 . S
C815 C811 1.429 . S
C815 C816 1.523 . S
C816 C800 1.368 . S
C816 C812 1.368 . S
C816 C815 1.523 . S
H817 C792 0.950 . S
H818 C794 0.950 . S
H819 C795 0.949 . S
H820 C797 0.950 . S
H821 C799 0.950 . S
C822 C823 1.349 . S
C822 C824 1.327 . S
C822 H847 0.950 . S
C823 C822 1.349 . S
C823 C839 1.349 . S
C824 C822 1.327 . S
C824 C843 1.429 . S
C824 H848 0.950 . S
C825 C842 1.574 1_565 S
C825 C844 1.368 . S
C825 H849 0.949 . S
H826 C830 0.949 . S
C827 C828 1.349 . S
C827 C829 1.327 . S
C827 H850 0.950 . S
C828 C827 1.349 . S
C828 C840 1.349 . S
C829 C827 1.327 . S
C829 C845 1.429 . S
C829 H851 0.950 . S
C830 H826 0.949 . S
C830 C838 1.574 1_545 S
C830 C846 1.368 . S
H831 C839 0.950 . S
H832 C837 0.950 . S
H833 C838 0.949 . S
H834 C840 0.950 . S
H835 C841 0.950 . S
H836 C842 0.949 . S
C837 H832 0.950 . S
C837 C839 1.327 . S
C837 C843 1.429 . S
C838 C830 1.574 1_565 S
C838 H833 0.949 . S
C838 C844 1.368 . S
C839 C823 1.349 . S
C839 H831 0.950 . S
C839 C837 1.327 . S
C840 C828 1.349 . S
C840 H834 0.950 . S
C840 C841 1.327 . S
C841 H835 0.950 . S
C841 C840 1.327 . S
C841 C845 1.429 . S
C842 C825 1.574 1_545 S
C842 H836 0.949 . S
C842 C846 1.368 . S
C843 C824 1.429 . S
C843 C837 1.429 . S
C843 C844 1.523 . S
C844 C825 1.368 . S
C844 C838 1.368 . S
C844 C843 1.523 . S
C845 C829 1.429 . S
C845 C841 1.429 . S
C845 C846 1.523 . S
C846 C830 1.368 . S
C846 C842 1.368 . S
C846 C845 1.523 . S
H847 C822 0.950 . S
H848 C824 0.950 . S
H849 C825 0.949 . S
H850 C827 0.950 . S
H851 C829 0.950 . S
C852 C853 1.349 . S
C852 C854 1.327 . S
C852 H877 0.950 . S
C853 C852 1.349 . S
C853 C869 1.349 . S
C854 C852 1.327 . S
C854 C873 1.429 . S
C854 H878 0.950 . S
C855 C872 1.574 . S
C855 C874 1.368 . S
C855 H879 0.949 . S
H856 C860 0.949 . S
C857 C858 1.349 . S
C857 C859 1.327 . S
C857 H880 0.950 . S
C858 C857 1.349 . S
C858 C870 1.349 . S
C859 C857 1.327 . S
C859 C875 1.429 . S
C859 H881 0.950 . S
C860 H856 0.949 . S
C860 C868 1.574 . S
C860 C876 1.368 . S
H861 C869 0.950 . S
H862 C867 0.950 . S
H863 C868 0.949 . S
H864 C870 0.950 . S
H865 C871 0.950 . S
H866 C872 0.949 . S
C867 H862 0.950 . S
C867 C869 1.327 . S
C867 C873 1.429 . S
C868 C860 1.574 . S
C868 H863 0.949 . S
C868 C874 1.368 . S
C869 C853 1.349 . S
C869 H861 0.950 . S
C869 C867 1.327 . S
C870 C858 1.349 . S
C870 H864 0.950 . S
C870 C871 1.327 . S
C871 H865 0.950 . S
C871 C870 1.327 . S
C871 C875 1.429 . S
C872 C855 1.574 . S
C872 H866 0.949 . S
C872 C876 1.368 . S
C873 C854 1.429 . S
C873 C867 1.429 . S
C873 C874 1.523 . S
C874 C855 1.368 . S
C874 C868 1.368 . S
C874 C873 1.523 . S
C875 C859 1.429 . S
C875 C871 1.429 . S
C875 C876 1.523 . S
C876 C860 1.368 . S
C876 C872 1.368 . S
C876 C875 1.523 . S
H877 C852 0.950 . S
H878 C854 0.950 . S
H879 C855 0.949 . S
H880 C857 0.950 . S
H881 C859 0.950 . S
C882 C883 1.349 . S
C882 C884 1.327 . S
C882 H907 0.950 . S
C883 C882 1.349 . S
C883 C899 1.349 . S
C884 C882 1.327 . S
C884 C903 1.429 . S
C884 H908 0.950 . S
C885 C902 1.574 1_455 S
C885 C904 1.368 . S
C885 H909 0.949 . S
H886 C890 0.949 . S
C887 C888 1.349 . S
C887 C889 1.327 . S
C887 H910 0.950 . S
C888 C887 1.349 . S
C888 C900 1.349 . S
C889 C887 1.327 . S
C889 C905 1.429 . S
C889 H911 0.950 . S
C890 H886 0.949 . S
C890 C898 1.574 1_655 S
C890 C906 1.368 . S
H891 C899 0.950 . S
H892 C897 0.950 . S
H893 C898 0.949 . S
H894 C900 0.950 . S
H895 C901 0.950 . S
H896 C902 0.949 . S
C897 H892 0.950 . S
C897 C899 1.327 . S
C897 C903 1.429 . S
C898 C890 1.574 1_455 S
C898 H893 0.949 . S
C898 C904 1.368 . S
C899 C883 1.349 . S
C899 H891 0.950 . S
C899 C897 1.327 . S
C900 C888 1.349 . S
C900 H894 0.950 . S
C900 C901 1.327 . S
C901 H895 0.950 . S
C901 C900 1.327 . S
C901 C905 1.429 . S
C902 C885 1.574 1_655 S
C902 H896 0.949 . S
C902 C906 1.368 . S
C903 C884 1.429 . S
C903 C897 1.429 . S
C903 C904 1.523 . S
C904 C885 1.368 . S
C904 C898 1.368 . S
C904 C903 1.523 . S
C905 C889 1.429 . S
C905 C901 1.429 . S
C905 C906 1.523 . S
C906 C890 1.368 . S
C906 C902 1.368 . S
C906 C905 1.523 . S
H907 C882 0.950 . S
H908 C884 0.950 . S
H909 C885 0.949 . S
H910 C887 0.950 . S
H911 C889 0.950 . S
C912 C913 1.349 . S
C912 C914 1.327 . S
C912 H937 0.950 . S
C913 C912 1.349 . S
C913 C929 1.349 . S
C914 C912 1.327 . S
C914 C933 1.429 . S
C914 H938 0.950 1_556 S
C915 C932 1.574 1_545 S
C915 C934 1.368 . S
C915 H939 0.949 . S
H916 C920 0.949 . S
C917 C918 1.349 . S
C917 C919 1.327 . S
C917 H940 0.950 . S
C918 C917 1.349 . S
C918 C930 1.349 . S
C919 C917 1.327 . S
C919 C935 1.429 . S
C919 H941 0.950 1_554 S
C920 H916 0.949 . S
C920 C928 1.574 1_565 S
C920 C936 1.368 . S
H921 C929 0.950 . S
H922 C927 0.950 . S
H923 C928 0.949 . S
H924 C930 0.950 . S
H925 C931 0.950 . S
H926 C932 0.949 . S
C927 H922 0.950 . S
C927 C929 1.327 . S
C927 C933 1.429 . S
C928 C920 1.574 1_545 S
C928 H923 0.949 . S
C928 C934 1.368 1_554 S
C929 C913 1.349 . S
C929 H921 0.950 . S
C929 C927 1.327 . S
C930 C918 1.349 . S
C930 H924 0.950 . S
C930 C931 1.327 . S
C931 H925 0.950 . S
C931 C930 1.327 . S
C931 C935 1.429 . S
C932 C915 1.574 1_565 S
C932 H926 0.949 . S
C932 C936 1.368 1_556 S
C933 C914 1.429 . S
C933 C927 1.429 . S
C933 C934 1.523 . S
C934 C915 1.368 . S
C934 C928 1.368 1_556 S
C934 C933 1.523 . S
C935 C919 1.429 . S
C935 C931 1.429 . S
C935 C936 1.523 . S
C936 C920 1.368 . S
C936 C932 1.368 1_554 S
C936 C935 1.523 . S
H937 C912 0.950 . S
H938 C914 0.950 1_554 S
H939 C915 0.949 . S
H940 C917 0.950 . S
H941 C919 0.950 1_556 S
C942 C943 1.349 . S
C942 C944 1.327 . S
C942 H967 0.950 . S
C943 C942 1.349 . S
C943 C959 1.349 . S
C944 C942 1.327 . S
C944 C963 1.429 . S
C944 H968 0.950 . S
C945 C962 1.574 . S
C945 C964 1.368 . S
C945 H969 0.949 . S
H946 C950 0.949 . S
C947 C948 1.349 . S
C947 C949 1.327 . S
C947 H970 0.950 . S
C948 C947 1.349 . S
C948 C960 1.349 . S
C949 C947 1.327 . S
C949 C965 1.429 . S
C949 H971 0.950 . S
C950 H946 0.949 . S
C950 C958 1.574 . S
C950 C966 1.368 . S
H951 C959 0.950 . S
H952 C957 0.950 . S
H953 C958 0.949 . S
H954 C960 0.950 . S
H955 C961 0.950 . S
H956 C962 0.949 . S
C957 H952 0.950 . S
C957 C959 1.327 . S
C957 C963 1.429 . S
C958 C950 1.574 . S
C958 H953 0.949 . S
C958 C964 1.368 . S
C959 C943 1.349 . S
C959 H951 0.950 . S
C959 C957 1.327 . S
C960 C948 1.349 . S
C960 H954 0.950 . S
C960 C961 1.327 . S
C961 H955 0.950 . S
C961 C960 1.327 . S
C961 C965 1.429 . S
C962 C945 1.574 . S
C962 H956 0.949 . S
C962 C966 1.368 . S
C963 C944 1.429 . S
C963 C957 1.429 . S
C963 C964 1.523 . S
C964 C945 1.368 . S
C964 C958 1.368 . S
C964 C963 1.523 . S
C965 C949 1.429 . S
C965 C961 1.429 . S
C965 C966 1.523 . S
C966 C950 1.368 . S
C966 C962 1.368 . S
C966 C965 1.523 . S
H967 C942 0.950 . S
H968 C944 0.950 . S
H969 C945 0.949 . S
H970 C947 0.950 . S
H971 C949 0.950 . S
C972 C973 1.349 . S
C972 C974 1.327 . S
C972 H997 0.950 . S
C973 C972 1.349 . S
C973 C989 1.349 . S
C974 C972 1.327 . S
C974 C993 1.429 . S
C974 H998 0.950 . S
C975 C992 1.574 . S
C975 C994 1.368 . S
C975 H999 0.949 . S
H976 C980 0.949 . S
C977 C978 1.349 . S
C977 C979 1.327 . S
C977 H1000 0.950 . S
C978 C977 1.349 . S
C978 C990 1.349 . S
C979 C977 1.327 . S
C979 C995 1.429 . S
C979 H1001 0.950 . S
C980 H976 0.949 . S
C980 C988 1.574 . S
C980 C996 1.368 . S
H981 C989 0.950 . S
H982 C987 0.950 . S
H983 C988 0.949 . S
H984 C990 0.950 . S
H985 C991 0.950 . S
H986 C992 0.949 . S
C987 H982 0.950 . S
C987 C989 1.327 . S
C987 C993 1.429 . S
C988 C980 1.574 . S
C988 H983 0.949 . S
C988 C994 1.368 . S
C989 C973 1.349 . S
C989 H981 0.950 . S
C989 C987 1.327 . S
C990 C978 1.349 . S
C990 H984 0.950 . S
C990 C991 1.327 . S
C991 H985 0.950 . S
C991 C990 1.327 . S
C991 C995 1.429 . S
C992 C975 1.574 . S
C992 H986 0.949 . S
C992 C996 1.368 . S
C993 C974 1.429 . S
C993 C987 1.429 . S
C993 C994 1.523 . S
C994 C975 1.368 . S
C994 C988 1.368 . S
C994 C993 1.523 . S
C995 C979 1.429 . S
C995 C991 1.429 . S
C995 C996 1.523 . S
C996 C980 1.368 . S
C996 C992 1.368 . S
C996 C995 1.523 . S
H997 C972 0.950 . S
H998 C974 0.950 . S
H999 C975 0.949 . S
H1000 C977 0.950 . S
H1001 C979 0.950 . S
C1002 C1003 1.349 . S
C1002 C1004 1.327 . S
C1002 H1027 0.950 . S
C1003 C1002 1.349 . S
C1003 C1019 1.349 . S
C1004 C1002 1.327 . S
C1004 C1023 1.429 . S
C1004 H1028 0.950 . S
C1005 C1022 1.574 . S
C1005 C1024 1.368 . S
C1005 H1029 0.949 . S
H1006 C1010 0.949 . S
C1007 C1008 1.349 . S
C1007 C1009 1.327 . S
C1007 H1030 0.950 . S
C1008 C1007 1.349 . S
C1008 C1020 1.349 . S
C1009 C1007 1.327 . S
C1009 C1025 1.429 . S
C1009 H1031 0.950 . S
C1010 H1006 0.949 . S
C1010 C1018 1.574 . S
C1010 C1026 1.368 . S
H1011 C1019 0.950 . S
H1012 C1017 0.950 . S
H1013 C1018 0.949 . S
H1014 C1020 0.950 . S
H1015 C1021 0.950 . S
H1016 C1022 0.949 . S
C1017 H1012 0.950 . S
C1017 C1019 1.327 . S
C1017 C1023 1.429 . S
C1018 C1010 1.574 . S
C1018 H1013 0.949 . S
C1018 C1024 1.368 . S
C1019 C1003 1.349 . S
C1019 H1011 0.950 . S
C1019 C1017 1.327 . S
C1020 C1008 1.349 . S
C1020 H1014 0.950 . S
C1020 C1021 1.327 . S
C1021 H1015 0.950 . S
C1021 C1020 1.327 . S
C1021 C1025 1.429 . S
C1022 C1005 1.574 . S
C1022 H1016 0.949 . S
C1022 C1026 1.368 . S
C1023 C1004 1.429 . S
C1023 C1017 1.429 . S
C1023 C1024 1.523 . S
C1024 C1005 1.368 . S
C1024 C1018 1.368 . S
C1024 C1023 1.523 . S
C1025 C1009 1.429 . S
C1025 C1021 1.429 . S
C1025 C1026 1.523 . S
C1026 C1010 1.368 . S
C1026 C1022 1.368 . S
C1026 C1025 1.523 . S
H1027 C1002 0.950 . S
H1028 C1004 0.950 . S
H1029 C1005 0.949 . S
H1030 C1007 0.950 . S
H1031 C1009 0.950 . S
C1032 C1033 1.349 . S
C1032 C1034 1.327 . S
C1032 H1057 0.950 . S
C1033 C1032 1.349 . S
C1033 C1049 1.349 . S
C1034 C1032 1.327 . S
C1034 C1053 1.429 . S
C1034 H1058 0.950 . S
C1035 C1052 1.574 . S
C1035 C1054 1.368 . S
C1035 H1059 0.949 . S
H1036 C1040 0.949 . S
C1037 C1038 1.349 . S
C1037 C1039 1.327 . S
C1037 H1060 0.950 . S
C1038 C1037 1.349 . S
C1038 C1050 1.349 . S
C1039 C1037 1.327 . S
C1039 C1055 1.429 . S
C1039 H1061 0.950 . S
C1040 H1036 0.949 . S
C1040 C1048 1.574 . S
C1040 C1056 1.368 . S
H1041 C1049 0.950 . S
H1042 C1047 0.950 . S
H1043 C1048 0.949 . S
H1044 C1050 0.950 . S
H1045 C1051 0.950 . S
H1046 C1052 0.949 . S
C1047 H1042 0.950 . S
C1047 C1049 1.327 . S
C1047 C1053 1.429 . S
C1048 C1040 1.574 . S
C1048 H1043 0.949 . S
C1048 C1054 1.368 . S
C1049 C1033 1.349 . S
C1049 H1041 0.950 . S
C1049 C1047 1.327 . S
C1050 C1038 1.349 . S
C1050 H1044 0.950 . S
C1050 C1051 1.327 . S
C1051 H1045 0.950 . S
C1051 C1050 1.327 . S
C1051 C1055 1.429 . S
C1052 C1035 1.574 . S
C1052 H1046 0.949 . S
C1052 C1056 1.368 . S
C1053 C1034 1.429 . S
C1053 C1047 1.429 . S
C1053 C1054 1.523 . S
C1054 C1035 1.368 . S
C1054 C1048 1.368 . S
C1054 C1053 1.523 . S
C1055 C1039 1.429 . S
C1055 C1051 1.429 . S
C1055 C1056 1.523 . S
C1056 C1040 1.368 . S
C1056 C1052 1.368 . S
C1056 C1055 1.523 . S
H1057 C1032 0.950 . S
H1058 C1034 0.950 . S
H1059 C1035 0.949 . S
H1060 C1037 0.950 . S
H1061 C1039 0.950 . S
C1062 C1063 1.349 . S
C1062 C1064 1.327 . S
C1062 H1087 0.950 . S
C1063 C1062 1.349 . S
C1063 C1079 1.349 . S
C1064 C1062 1.327 . S
C1064 C1083 1.429 . S
C1064 H1088 0.950 . S
C1065 C1082 1.574 . S
C1065 C1084 1.368 . S
C1065 H1089 0.949 . S
H1066 C1070 0.949 . S
C1067 C1068 1.349 . S
C1067 C1069 1.327 . S
C1067 H1090 0.950 . S
C1068 C1067 1.349 . S
C1068 C1080 1.349 . S
C1069 C1067 1.327 . S
C1069 C1085 1.429 . S
C1069 H1091 0.950 . S
C1070 H1066 0.949 . S
C1070 C1078 1.574 . S
C1070 C1086 1.368 . S
H1071 C1079 0.950 . S
H1072 C1077 0.950 . S
H1073 C1078 0.949 . S
H1074 C1080 0.950 . S
H1075 C1081 0.950 . S
H1076 C1082 0.949 . S
C1077 H1072 0.950 . S
C1077 C1079 1.327 . S
C1077 C1083 1.429 . S
C1078 C1070 1.574 . S
C1078 H1073 0.949 . S
C1078 C1084 1.368 . S
C1079 C1063 1.349 . S
C1079 H1071 0.950 . S
C1079 C1077 1.327 . S
C1080 C1068 1.349 . S
C1080 H1074 0.950 . S
C1080 C1081 1.327 . S
C1081 H1075 0.950 . S
C1081 C1080 1.327 . S
C1081 C1085 1.429 . S
C1082 C1065 1.574 . S
C1082 H1076 0.949 . S
C1082 C1086 1.368 . S
C1083 C1064 1.429 . S
C1083 C1077 1.429 . S
C1083 C1084 1.523 . S
C1084 C1065 1.368 . S
C1084 C1078 1.368 . S
C1084 C1083 1.523 . S
C1085 C1069 1.429 . S
C1085 C1081 1.429 . S
C1085 C1086 1.523 . S
C1086 C1070 1.368 . S
C1086 C1082 1.368 . S
C1086 C1085 1.523 . S
H1087 C1062 0.950 . S
H1088 C1064 0.950 . S
H1089 C1065 0.949 . S
H1090 C1067 0.950 . S
H1091 C1069 0.950 . S
C1092 C1093 1.317 1_556 S
C1092 C1094 1.327 . S
C1092 H1117 0.950 . S
C1093 C1092 1.317 1_554 S
C1093 C1109 1.352 . S
C1094 C1092 1.327 . S
C1094 C1113 1.429 . S
C1094 H1118 0.950 . S
C1095 C1112 1.574 . S
C1095 C1114 1.368 . S
C1095 H1119 0.949 . S
H1096 C1100 0.949 . S
C1097 C1098 1.349 . S
C1097 C1099 1.327 . S
C1097 H1120 0.950 . S
C1098 C1097 1.349 . S
C1098 C1110 1.349 . S
C1099 C1097 1.327 . S
C1099 C1115 1.429 . S
C1099 H1121 0.950 . S
C1100 H1096 0.949 . S
C1100 C1108 1.574 . S
C1100 C1116 1.368 . S
H1101 C1109 0.950 . S
H1102 C1107 0.950 . S
H1103 C1108 0.949 . S
H1104 C1110 0.950 . S
H1105 C1111 0.950 . S
H1106 C1112 0.949 . S
C1107 H1102 0.950 . S
C1107 C1109 1.327 1_556 S
C1107 C1113 1.429 . S
C1108 C1100 1.574 . S
C1108 H1103 0.949 . S
C1108 C1114 1.368 . S
C1109 C1093 1.352 . S
C1109 H1101 0.950 . S
C1109 C1107 1.327 1_554 S
C1110 C1098 1.349 . S
C1110 H1104 0.950 . S
C1110 C1111 1.327 . S
C1111 H1105 0.950 . S
C1111 C1110 1.327 . S
C1111 C1115 1.429 . S
C1112 C1095 1.574 . S
C1112 H1106 0.949 . S
C1112 C1116 1.368 . S
C1113 C1094 1.429 . S
C1113 C1107 1.429 . S
C1113 C1114 1.523 . S
C1114 C1095 1.368 . S
C1114 C1108 1.368 . S
C1114 C1113 1.523 . S
C1115 C1099 1.429 . S
C1115 C1111 1.429 . S
C1115 C1116 1.523 . S
C1116 C1100 1.368 . S
C1116 C1112 1.368 . S
C1116 C1115 1.523 . S
H1117 C1092 0.950 . S
H1118 C1094 0.950 . S
H1119 C1095 0.949 . S
H1120 C1097 0.950 . S
H1121 C1099 0.950 . S
C1122 C1123 1.349 . S
C1122 C1124 1.327 . S
C1122 H1147 0.950 . S
C1123 C1122 1.349 . S
C1123 C1139 1.349 . S
C1124 C1122 1.327 . S
C1124 C1143 1.429 . S
C1124 H1148 0.950 . S
C1125 C1142 1.574 . S
C1125 C1144 1.368 . S
C1125 H1149 0.949 . S
H1126 C1130 0.949 . S
C1127 C1128 1.317 1_554 S
C1127 C1129 1.327 . S
C1127 H1150 0.950 . S
C1128 C1127 1.317 1_556 S
C1128 C1140 1.352 . S
C1129 C1127 1.327 . S
C1129 C1145 1.429 . S
C1129 H1151 0.950 . S
C1130 H1126 0.949 . S
C1130 C1138 1.574 . S
C1130 C1146 1.368 . S
H1131 C1139 0.950 . S
H1132 C1137 0.950 . S
H1133 C1138 0.949 . S
H1134 C1140 0.950 . S
H1135 C1141 0.950 . S
H1136 C1142 0.949 . S
C1137 H1132 0.950 . S
C1137 C1139 1.327 . S
C1137 C1143 1.429 . S
C1138 C1130 1.574 . S
C1138 H1133 0.949 . S
C1138 C1144 1.368 . S
C1139 C1123 1.349 . S
C1139 H1131 0.950 . S
C1139 C1137 1.327 . S
C1140 C1128 1.352 . S
C1140 H1134 0.950 . S
C1140 C1141 1.327 1_556 S
C1141 H1135 0.950 . S
C1141 C1140 1.327 1_554 S
C1141 C1145 1.429 . S
C1142 C1125 1.574 . S
C1142 H1136 0.949 . S
C1142 C1146 1.368 . S
C1143 C1124 1.429 . S
C1143 C1137 1.429 . S
C1143 C1144 1.523 . S
C1144 C1125 1.368 . S
C1144 C1138 1.368 . S
C1144 C1143 1.523 . S
C1145 C1129 1.429 . S
C1145 C1141 1.429 . S
C1145 C1146 1.523 . S
C1146 C1130 1.368 . S
C1146 C1142 1.368 . S
C1146 C1145 1.523 . S
H1147 C1122 0.950 . S
H1148 C1124 0.950 . S
H1149 C1125 0.949 . S
H1150 C1127 0.950 . S
H1151 C1129 0.950 . S
C433 C2 0.432 . S
C438 C218 0.432 . S
C463 C38 0.432 . S
C468 C254 0.432 . S
C493 C290 0.432 . S
C498 C74 0.432 . S
C523 C110 0.432 . S
C528 C326 0.432 . S
C553 C146 0.432 . S
C558 C362 0.432 . S
C583 C398 0.432 . S
C588 C182 0.432 . S
C613 C292 1.265 . S
C618 C4 1.265 . S
C643 C40 1.265 . S
C648 C328 1.265 . S
C673 C364 1.265 . S
C678 C76 1.265 . S
C703 C400 1.265 . S
C708 C112 1.265 . S
C733 C148 1.265 . S
C738 C220 1.265 . S
C763 C184 1.265 . S
C768 C256 1.265 . S
C793 C410 1.132 . S
C798 C14 1.132 . S
C823 C230 1.132 . S
C828 C50 1.132 . S
C853 C86 1.132 . S
C858 C266 1.132 . S
C883 C302 1.132 . S
C888 C122 1.132 . S
C913 C338 1.132 . S
C918 C158 1.132 . S
C943 C374 1.132 . S
C948 C194 1.132 . S
C973 C3 1.565 . S
C978 C363 1.565 . S
C1003 C399 1.565 . S
C1008 C39 1.565 . S
C1033 C75 1.565 . S
C1038 C219 1.565 . S
C1063 C111 1.565 . S
C1068 C255 1.565 . S
C1093 C147 1.594 . S
C1098 C291 1.565 . S
C1123 C183 1.565 . S
C1128 C327 1.594 . S
