# Generated by pormake.
# Topology smm, (6)-cn, num edge types: 1
# Building blocks:
#     Node 0, Type 0, BuildingBlock: FUNLAD_clean_sbu_0, # of connection points: 6
#     Node 1, Type 0, BuildingBlock: FUNLAD_clean_sbu_0, # of connection points: 6
#     Node 2, Type 0, BuildingBlock: FUNLAD_clean_sbu_0, # of connection points: 6
#     Node 3, Type 0, BuildingBlock: FUNLAD_clean_sbu_0, # of connection points: 6
#     Node 4, Type 0, BuildingBlock: FUNLAD_clean_sbu_0, # of connection points: 6
#     Node 5, Type 0, BuildingBlock: FUNLAD_clean_sbu_0, # of connection points: 6
#     Node 6, Type 0, BuildingBlock: FUNLAD_clean_sbu_0, # of connection points: 6
#     Node 7, Type 0, BuildingBlock: FUNLAD_clean_sbu_0, # of connection points: 6
#     Node 8, Type 0, BuildingBlock: FUNLAD_clean_sbu_0, # of connection points: 6
#     Edge 9, Type (0, 0), None
#     Edge 10, Type (0, 0), None
#     Edge 11, Type (0, 0), None
#     Edge 12, Type (0, 0), None
#     Edge 13, Type (0, 0), None
#     Edge 14, Type (0, 0), None
#     Edge 15, Type (0, 0), None
#     Edge 16, Type (0, 0), None
#     Edge 17, Type (0, 0), None
#     Edge 18, Type (0, 0), None
#     Edge 19, Type (0, 0), None
#     Edge 20, Type (0, 0), None
#     Edge 21, Type (0, 0), None
#     Edge 22, Type (0, 0), None
#     Edge 23, Type (0, 0), None
#     Edge 24, Type (0, 0), None
#     Edge 25, Type (0, 0), None
#     Edge 26, Type (0, 0), None
#     Edge 27, Type (0, 0), None
#     Edge 28, Type (0, 0), None
#     Edge 29, Type (0, 0), None
#     Edge 30, Type (0, 0), None
#     Edge 31, Type (0, 0), None
#     Edge 32, Type (0, 0), None
#     Edge 33, Type (0, 0), None
#     Edge 34, Type (0, 0), None
#     Edge 35, Type (0, 0), None
# Relax obj value: 0.668
# Max RMSD: 0.352
# Mean RMSD: 0.350
data_MOF--net-smm--node1-FUNLAD_clean_sbu_0--edge1-none
_symmetry_space_group_name_H-M    P1
_symmetry_Int_Tables_number       1
_symmetry_cell_setting            triclinic
loop_
_symmetry_equiv_pos_as_xyz
'x, y, z'
_cell_length_a     20.615544
_cell_length_b     20.407179
_cell_length_c     13.060221
_cell_angle_alpha  90.39488
_cell_angle_beta   90.335684
_cell_angle_gamma 120.23213
loop_
_atom_site_label
_atom_site_type_symbol
_atom_site_fract_x
_atom_site_fract_y
_atom_site_fract_z
_atom_type_partial_charge
C0 C 0.88941 0.04411 0.99129 0.0
N1 N 0.01248 0.19784 0.23976 0.0
C2 C 0.94705 0.13881 0.27492 0.0
C3 C 0.93702 0.12477 0.37924 0.0
C4 C 0.99461 0.17186 0.44785 0.0
C5 C 0.06208 0.23075 0.40958 0.0
C6 C 0.06987 0.2424 0.30466 0.0
Zn7 Zn 0.04091 0.2282 0.0912 0.0
C8 C 0.09125 0.14872 0.0227 0.0
N9 N 0.96484 0.16622 0.76797 0.0
C10 C 0.90645 0.15115 0.70465 0.0
C11 C 0.03088 0.17623 0.73108 0.0
C12 C 0.04099 0.17519 0.62603 0.0
C13 C 0.98262 0.16352 0.55902 0.0
C14 C 0.91405 0.1495 0.59936 0.0
Zn15 Zn 0.93898 0.17248 0.91553 0.0
O16 O 0.93763 0.09412 0.0552 0.0
C17 C 0.91892 0.24207 0.1216 0.0
O18 O 0.87529 0.06377 0.90804 0.0
H19 H 0.07695 0.18769 0.78171 0.0
H20 H 0.90147 0.10299 0.22377 0.0
H21 H 0.85427 0.1418 0.73656 0.0
O22 O 0.98421 0.28671 0.09373 0.0
O23 O 0.88626 0.17782 0.07658 0.0
H24 H 0.12186 0.287 0.27414 0.0
O25 O -0.00384 0.28816 0.90435 0.0
O26 O 0.09598 0.28322 0.93116 0.0
O27 O 0.04342 0.14628 0.95539 0.0
O28 O 0.10404 0.1856 0.10393 0.0
C29 C 0.06294 0.31153 0.88154 0.0
H30 H 0.88446 0.07799 0.40589 0.0
H31 H 0.10763 0.26854 0.46026 0.0
H32 H 0.09434 0.18491 0.59757 0.0
H33 H 0.86774 0.1403 0.5501 0.0
C34 C 0.84922 0.96369 0.01267 0.0
N35 N 0.81743 0.80894 0.76523 0.0
C36 C 0.81144 0.86831 0.72935 0.0
C37 C 0.81544 0.88229 0.62496 0.0
C38 C 0.82562 0.83487 0.55704 0.0
C39 C 0.83371 0.77558 0.59601 0.0
C40 C 0.82978 0.76394 0.70098 0.0
Zn41 Zn 0.81588 0.77895 0.91426 0.0
C42 C 0.94593 0.85811 0.98294 0.0
N43 N 0.80266 0.84169 0.23642 0.0
C44 C 0.7588 0.85615 0.29869 0.0
C45 C 0.8587 0.83174 0.27458 0.0
C46 C 0.86936 0.83221 0.37991 0.0
C47 C 0.82223 0.84342 0.44576 0.0
C48 C 0.76763 0.85736 0.40415 0.0
Zn49 Zn 0.77062 0.83555 0.08839 0.0
O50 O 0.84723 0.91351 0.94917 0.0
C51 C 0.68057 0.76594 0.88197 0.0
O52 O 0.81571 0.94421 0.09563 0.0
H53 H 0.89364 0.82067 0.22471 0.0
H54 H 0.80206 0.90448 0.77996 0.0
H55 H 0.71585 0.86531 0.26577 0.0
O56 O 0.70087 0.72102 0.91099 0.0
O57 O 0.7125 0.83036 0.92649 0.0
H58 H 0.83687 0.71909 0.73208 0.0
O59 O 0.71182 0.71995 0.09997 0.0
O60 O 0.81633 0.72441 0.07508 0.0
O61 O 0.90115 0.86118 0.04996 0.0
O62 O 0.92116 0.82069 0.90217 0.0
C63 C 0.75511 0.69638 0.12389 0.0
H64 H 0.80997 0.92932 0.5977 0.0
H65 H 0.8412 0.73755 0.54578 0.0
H66 H 0.91296 0.82247 0.40947 0.0
H67 H 0.73021 0.86617 0.45257 0.0
C68 C 0.12826 0.10495 0.01188 0.0
N69 N 0.16024 0.9662 0.23375 0.0
C70 C 0.17903 0.03606 0.27323 0.0
C71 C 0.18788 0.05145 0.37749 0.0
C72 C 0.17758 0.99502 0.44567 0.0
C73 C 0.1567 0.92245 0.40496 0.0
C74 C 0.14858 0.9092 0.29814 0.0
Zn75 Zn 0.16105 0.96815 0.07214 0.0
C76 C 0.02674 0.90184 0.99315 0.0
N77 N 0.19536 0.04089 0.76982 0.0
C78 C 0.24234 0.09724 0.7062 0.0
C79 C 0.14335 0.97163 0.72968 0.0
C80 C 0.13748 0.95615 0.62546 0.0
C81 C 0.1854 0.01186 0.55812 0.0
C82 C 0.23794 0.0839 0.5995 0.0
Zn83 Zn 0.19536 0.03857 0.93128 0.0
O84 O 0.11921 0.0539 0.07722 0.0
C85 C 0.31921 0.10023 0.08233 0.0
O86 O 0.17161 0.11976 0.93811 0.0
H87 H 0.10815 0.925 0.77838 0.0
H88 H 0.19162 0.08296 0.22407 0.0
H89 H 0.28389 0.15167 0.73782 0.0
O90 O 0.26133 0.0427 0.10723 0.0
O91 O 0.32166 0.12104 0.98798 0.0
H92 H 0.13404 0.85414 0.26712 0.0
O93 O 0.22132 0.96412 0.89477 0.0
O94 O 0.20524 0.88628 0.01444 0.0
O95 O 0.06787 0.95273 0.92744 0.0
O96 O 0.05625 0.88675 0.06618 0.0
C97 C 0.22252 0.90686 0.91991 0.0
H98 H 0.20228 0.10763 0.40398 0.0
H99 H 0.14758 0.87669 0.45505 0.0
H100 H 0.09509 0.90042 0.59832 0.0
H101 H 0.2759 0.12908 0.55003 0.0
C102 C 0.76582 0.48137 0.34614 0.0
N103 N 0.63865 0.50103 0.09715 0.0
C104 C 0.70468 0.51009 0.06152 0.0
C105 C 0.71484 0.50629 0.95702 0.0
C106 C 0.65705 0.49405 0.88859 0.0
C107 C 0.58885 0.4824 0.92756 0.0
C108 C 0.58083 0.4858 0.03261 0.0
Zn109 Zn 0.61108 0.50475 0.24552 0.0
C110 C 0.56526 0.37634 0.31824 0.0
N111 N 0.68817 0.52609 0.56913 0.0
C112 C 0.74696 0.56737 0.6337 0.0
C113 C 0.62141 0.46921 0.60429 0.0
C114 C 0.61106 0.45506 0.7086 0.0
C115 C 0.66968 0.50002 0.77724 0.0
C116 C 0.73896 0.55546 0.73853 0.0
Zn117 Zn 0.71457 0.55876 0.42121 0.0
O118 O 0.71694 0.48028 0.28207 0.0
C119 C 0.73094 0.64469 0.21371 0.0
O120 O 0.7798 0.51681 0.4288 0.0
H121 H 0.57495 0.43563 0.5531 0.0
H122 H 0.7507 0.5222 0.11245 0.0
H123 H 0.79997 0.61044 0.60328 0.0
O124 O 0.66458 0.61996 0.23923 0.0
O125 O 0.76585 0.61678 0.25998 0.0
H126 H 0.52854 0.47702 0.06333 0.0
O127 O 0.65632 0.61468 0.43053 0.0
O128 O 0.55662 0.50736 0.40586 0.0
O129 O 0.61234 0.42566 0.38379 0.0
O130 O 0.55052 0.39661 0.2359 0.0
C131 C 0.58959 0.57071 0.45357 0.0
H132 H 0.7679 0.51418 0.93016 0.0
H133 H 0.54297 0.47323 0.87747 0.0
H134 H 0.55725 0.41037 0.73522 0.0
H135 H 0.78573 0.59134 0.78874 0.0
C136 C 0.52749 0.29578 0.33628 0.0
N137 N 0.5258 0.15684 0.08381 0.0
C138 C 0.52673 0.21991 0.04747 0.0
C139 C 0.52638 0.231 0.94276 0.0
C140 C 0.52482 0.17679 0.87521 0.0
C141 C 0.5302 0.11581 0.91437 0.0
C142 C 0.53116 0.10734 0.01971 0.0
Zn143 Zn 0.50313 0.11653 0.22999 0.0
C144 C 0.62442 0.18983 0.32541 0.0
N145 N 0.47491 0.16901 0.55892 0.0
C146 C 0.4404 0.19212 0.62642 0.0
C147 C 0.52995 0.15501 0.59125 0.0
C148 C 0.54906 0.16026 0.69397 0.0
C149 C 0.51149 0.17999 0.76517 0.0
C150 C 0.45732 0.19738 0.73068 0.0
Zn151 Zn 0.44327 0.16518 0.40712 0.0
O152 O 0.52923 0.24821 0.27141 0.0
C153 C 0.38027 0.1199 0.1622 0.0
O154 O 0.49115 0.27348 0.41684 0.0
H155 H 0.55853 0.13718 0.53958 0.0
H156 H 0.52224 0.25948 0.09732 0.0
H157 H 0.39978 0.20665 0.59902 0.0
O158 O 0.39269 0.06747 0.18531 0.0
O159 O 0.39492 0.16763 0.23559 0.0
H160 H 0.53209 0.05907 0.05119 0.0
O161 O 0.37604 0.04619 0.41646 0.0
O162 O 0.48081 0.05171 0.39936 0.0
O163 O 0.57285 0.19074 0.38009 0.0
O164 O 0.60832 0.15343 0.2437 0.0
C165 C 0.41951 0.02521 0.44985 0.0
H166 H 0.52396 0.27966 0.91505 0.0
H167 H 0.52928 0.07275 0.86446 0.0
H168 H 0.59213 0.14775 0.71751 0.0
H169 H 0.42701 0.21294 0.78371 0.0
C170 C 0.70335 0.235 0.35091 0.0
N171 N 0.85141 0.36271 0.10416 0.0
C172 C 0.79231 0.2974 0.06592 0.0
C173 C 0.77971 0.28745 0.96081 0.0
C174 C 0.82839 0.345 0.89494 0.0
C175 C 0.88704 0.41259 0.93647 0.0
C176 C 0.8974 0.42023 0.04188 0.0
Zn177 Zn 0.88298 0.39012 0.25304 0.0
C178 C 0.8052 0.44055 0.32681 0.0
N179 N 0.82775 0.31407 0.57472 0.0
C180 C 0.81142 0.25511 0.6374 0.0
C181 C 0.83838 0.38132 0.61218 0.0
C182 C 0.83579 0.3918 0.71701 0.0
C183 C 0.82223 0.33267 0.78344 0.0
C184 C 0.80853 0.26315 0.74259 0.0
Zn185 Zn 0.8312 0.28647 0.42615 0.0
O186 O 0.75187 0.28411 0.28821 0.0
C187 C 0.89614 0.2663 0.21658 0.0
O188 O 0.72378 0.2221 0.43441 0.0
H189 H 0.85077 0.42793 0.56235 0.0
H190 H 0.7558 0.25167 0.11521 0.0
H191 H 0.80122 0.20186 0.60507 0.0
O192 O 0.94047 0.33282 0.24483 0.0
O193 O 0.83393 0.23247 0.26322 0.0
H194 H 0.94274 0.47191 0.07475 0.0
O195 O 0.94545 0.34345 0.43504 0.0
O196 O 0.94101 0.44489 0.4146 0.0
O197 O 0.80477 0.39182 0.39067 0.0
O198 O 0.83953 0.4539 0.24459 0.0
C199 C 0.96994 0.4109 0.46062 0.0
H200 H 0.73315 0.23483 0.9314 0.0
H201 H 0.92596 0.45808 0.88795 0.0
H202 H 0.84547 0.44594 0.74585 0.0
H203 H 0.79816 0.2163 0.7915 0.0
C204 C 0.23549 0.71204 0.66683 0.0
N205 N 0.37275 0.84984 0.92041 0.0
C206 C 0.31065 0.78689 0.95613 0.0
C207 C 0.29907 0.77592 0.06073 0.0
C208 C 0.35151 0.83014 0.12876 0.0
C209 C 0.41788 0.89093 0.09033 0.0
C210 C 0.42747 0.89925 0.98511 0.0
Zn211 Zn 0.39028 0.8907 0.77455 0.0
C212 C 0.43776 0.81746 0.6786 0.0
N213 N 0.30914 0.8388 0.44397 0.0
C214 C 0.2516 0.81549 0.37553 0.0
C215 C 0.37818 0.85285 0.4129 0.0
C216 C 0.39205 0.84719 0.31065 0.0
C217 C 0.33485 0.8272 0.23846 0.0
C218 C 0.26333 0.80993 0.2716 0.0
Zn219 Zn 0.2815 0.84278 0.59529 0.0
O220 O 0.28484 0.75958 0.73199 0.0
C221 C 0.26407 0.88763 0.84046 0.0
O222 O 0.2212 0.73433 0.5859 0.0
H223 H 0.42462 0.87106 0.46521 0.0
H224 H 0.2667 0.74738 0.90579 0.0
H225 H 0.19651 0.80109 0.40193 0.0
O226 O 0.32904 0.93995 0.81894 0.0
O227 O 0.23116 0.84059 0.76614 0.0
H228 H 0.4766 0.94746 0.95413 0.0
O229 O 0.3335 0.96177 0.58569 0.0
O230 O 0.43272 0.95619 0.6058 0.0
O231 O 0.38521 0.81709 0.62383 0.0
O232 O 0.45817 0.85313 0.76095 0.0
C233 C 0.39805 0.98268 0.55392 0.0
H234 H 0.248 0.72739 0.08791 0.0
H235 H 0.45988 0.93401 0.14059 0.0
H236 H 0.44763 0.85966 0.28821 0.0
H237 H 0.21754 0.79425 0.21777 0.0
C238 C 0.19295 0.63153 0.68518 0.0
N239 N 0.1646 0.48045 0.43576 0.0
C240 C 0.1551 0.53769 0.39991 0.0
C241 C 0.15915 0.55202 0.29558 0.0
C242 C 0.17277 0.50694 0.2276 0.0
C243 C 0.18601 0.45098 0.26698 0.0
C244 C 0.18182 0.43887 0.37184 0.0
Zn245 Zn 0.1591 0.44834 0.58417 0.0
C246 C 0.28828 0.52583 0.65853 0.0
N247 N 0.14245 0.50748 0.90702 0.0
C248 C 0.09933 0.52218 0.97043 0.0
C249 C 0.19945 0.49855 0.94401 0.0
C250 C 0.2128 0.50173 0.04889 0.0
C251 C 0.16671 0.51343 0.1161 0.0
C252 C 0.11025 0.52513 0.07571 0.0
Zn253 Zn 0.111 0.50353 0.75832 0.0
O254 O 0.19048 0.58193 0.62022 0.0
C255 C 0.02272 0.43709 0.55037 0.0
O256 O 0.15846 0.61159 0.7674 0.0
H257 H 0.23376 0.48691 0.89382 0.0
H258 H 0.1425 0.57156 0.45054 0.0
H259 H 0.05572 0.53077 0.93862 0.0
O260 O 0.0451 0.39283 0.57478 0.0
O261 O 0.05353 0.50072 0.5973 0.0
H262 H 0.19156 0.39558 0.40282 0.0
O263 O 0.04913 0.38842 0.76553 0.0
O264 O 0.15325 0.39102 0.74629 0.0
O265 O 0.24126 0.52752 0.72271 0.0
O266 O 0.26586 0.48958 0.57657 0.0
C267 C 0.0906 0.36341 0.79192 0.0
H268 H 0.15039 0.59703 0.26839 0.0
H269 H 0.19682 0.415 0.21721 0.0
H270 H 0.25788 0.49377 0.07698 0.0
H271 H 0.07318 0.53392 0.12487 0.0
C272 C 0.4713 0.77233 0.65235 0.0
N273 N 0.49421 0.64524 0.89876 0.0
C274 C 0.50051 0.71074 0.93631 0.0
C275 C 0.49702 0.72057 0.04111 0.0
C276 C 0.48728 0.66275 0.10755 0.0
C277 C 0.47842 0.59503 0.06675 0.0
C278 C 0.48192 0.58748 0.96153 0.0
Zn279 Zn 0.4977 0.61764 0.74985 0.0
C280 C 0.3687 0.56673 0.67684 0.0
N281 N 0.51558 0.69366 0.42817 0.0
C282 C 0.55858 0.75253 0.3659 0.0
C283 C 0.45909 0.62654 0.39013 0.0
C284 C 0.44661 0.61605 0.28501 0.0
C285 C 0.49264 0.67505 0.21906 0.0
C286 C 0.54822 0.74449 0.26055 0.0
Zn287 Zn 0.54726 0.72118 0.57661 0.0
O288 O 0.47153 0.72317 0.7147 0.0
C289 C 0.63409 0.74195 0.78601 0.0
O290 O 0.50351 0.78518 0.56848 0.0
H291 H 0.42472 0.58003 0.43978 0.0
H292 H 0.51026 0.75667 0.88677 0.0
H293 H 0.60168 0.80561 0.39869 0.0
O294 O 0.6124 0.67557 0.75764 0.0
O295 O 0.60501 0.77548 0.73929 0.0
H296 H 0.47529 0.53558 0.9292 0.0
O297 O 0.60521 0.66479 0.56736 0.0
O298 O 0.50018 0.56292 0.58817 0.0
O299 O 0.41602 0.61534 0.61247 0.0
O300 O 0.39084 0.55343 0.75862 0.0
C301 C 0.56265 0.5972 0.54205 0.0
H302 H 0.50304 0.7733 0.06987 0.0
H303 H 0.47118 0.54931 0.11574 0.0
H304 H 0.40233 0.56198 0.25563 0.0
H305 H 0.58505 0.79122 0.21207 0.0
loop_
_geom_bond_atom_site_label_1
_geom_bond_atom_site_label_2
_geom_bond_distance
_geom_bond_site_symmetry_2
_ccdc_geom_bond_type
C0 O16 1.251 . S
C0 O18 1.254 1_554 S
N1 C2 1.333 . S
N1 C6 1.307 . S
N1 Zn7 2.020 . S
C2 N1 1.333 . S
C2 C3 1.379 . S
C2 H20 0.952 1_455 S
C3 C2 1.379 . S
C3 C4 1.390 . S
C3 H30 0.949 1_455 S
C4 C3 1.390 . S
C4 C5 1.357 . S
C5 C4 1.357 . S
C5 C6 1.370 . S
C5 H31 0.950 . S
C6 N1 1.307 . S
C6 C5 1.370 . S
C6 H24 0.948 . S
Zn7 N1 2.020 . S
Zn7 O16 2.039 1_455 S
Zn7 O22 2.034 1_455 S
Zn7 O26 2.025 . S
Zn7 O28 2.024 . S
C8 O27 1.246 . S
C8 O28 1.249 1_556 S
N9 C10 1.307 . S
N9 C11 1.333 1_655 S
N9 Zn15 2.020 . S
C10 N9 1.307 . S
C10 C14 1.370 . S
C10 H21 0.948 . S
C11 N9 1.333 1_455 S
C11 C12 1.379 1_455 S
C11 H19 0.952 . S
C12 C11 1.379 1_655 S
C12 C13 1.390 . S
C12 H32 0.949 1_655 S
C13 C12 1.390 . S
C13 C14 1.357 . S
C14 C10 1.370 . S
C14 C13 1.357 . S
C14 H33 0.950 . S
Zn15 N9 2.020 . S
Zn15 O18 2.025 . S
Zn15 O23 2.024 . S
Zn15 O25 2.039 1_655 S
Zn15 O27 2.034 1_655 S
O16 C0 1.251 . S
O16 Zn7 2.039 1_655 S
C17 O22 1.246 . S
C17 O23 1.249 1_554 S
O18 C0 1.254 1_556 S
O18 Zn15 2.025 . S
H19 C11 0.952 . S
H20 C2 0.952 1_655 S
H21 C10 0.948 . S
O22 Zn7 2.034 1_655 S
O22 C17 1.246 . S
O23 Zn15 2.024 . S
O23 C17 1.249 1_556 S
H24 C6 0.948 . S
O25 Zn15 2.039 1_455 S
O25 C29 1.251 . S
O26 Zn7 2.025 . S
O26 C29 1.254 1_554 S
O27 C8 1.246 . S
O27 Zn15 2.034 1_455 S
O28 Zn7 2.024 . S
O28 C8 1.249 1_554 S
C29 O25 1.251 . S
C29 O26 1.254 1_556 S
H30 C3 0.949 1_655 S
H31 C5 0.950 . S
H32 C12 0.949 1_455 S
H33 C14 0.950 . S
C34 O50 1.251 . S
C34 O52 1.254 1_556 S
N35 C36 1.333 . S
N35 C40 1.307 . S
N35 Zn41 2.020 . S
C36 N35 1.333 . S
C36 C37 1.379 . S
C36 H54 0.952 . S
C37 C36 1.379 . S
C37 C38 1.390 . S
C37 H64 0.949 . S
C38 C37 1.390 . S
C38 C39 1.357 . S
C39 C38 1.357 . S
C39 C40 1.370 . S
C39 H65 0.950 . S
C40 N35 1.307 . S
C40 C39 1.370 . S
C40 H58 0.948 . S
Zn41 N35 2.020 . S
Zn41 O50 2.039 . S
Zn41 O56 2.034 . S
Zn41 O60 2.025 . S
Zn41 O62 2.024 . S
C42 O61 1.246 . S
C42 O62 1.249 1_554 S
N43 C44 1.307 . S
N43 C45 1.333 . S
N43 Zn49 2.020 . S
C44 N43 1.307 . S
C44 C48 1.370 . S
C44 H55 0.948 . S
C45 N43 1.333 . S
C45 C46 1.379 . S
C45 H53 0.952 . S
C46 C45 1.379 . S
C46 C47 1.390 . S
C46 H66 0.949 . S
C47 C46 1.390 . S
C47 C48 1.357 . S
C48 C44 1.370 . S
C48 C47 1.357 . S
C48 H67 0.950 . S
Zn49 N43 2.020 . S
Zn49 O52 2.025 . S
Zn49 O57 2.024 . S
Zn49 O59 2.039 . S
Zn49 O61 2.034 . S
O50 C34 1.251 . S
O50 Zn41 2.039 . S
C51 O56 1.246 . S
C51 O57 1.249 1_556 S
O52 C34 1.254 1_554 S
O52 Zn49 2.025 . S
H53 C45 0.952 . S
H54 C36 0.952 . S
H55 C44 0.948 . S
O56 Zn41 2.034 . S
O56 C51 1.246 . S
O57 Zn49 2.024 . S
O57 C51 1.249 1_554 S
H58 C40 0.948 . S
O59 Zn49 2.039 . S
O59 C63 1.251 . S
O60 Zn41 2.025 . S
O60 C63 1.254 1_556 S
O61 C42 1.246 . S
O61 Zn49 2.034 . S
O62 Zn41 2.024 . S
O62 C42 1.249 1_556 S
C63 O59 1.251 . S
C63 O60 1.254 1_554 S
H64 C37 0.949 . S
H65 C39 0.950 . S
H66 C46 0.949 . S
H67 C48 0.950 . S
C68 O84 1.251 . S
C68 O86 1.254 1_554 S
N69 C70 1.333 1_565 S
N69 C74 1.307 . S
N69 Zn75 2.020 . S
C70 N69 1.333 1_545 S
C70 C71 1.379 1_545 S
C70 H88 0.952 . S
C71 C70 1.379 1_565 S
C71 C72 1.390 . S
C71 H98 0.949 1_565 S
C72 C71 1.390 . S
C72 C73 1.357 . S
C73 C72 1.357 . S
C73 C74 1.370 . S
C73 H99 0.950 . S
C74 N69 1.307 . S
C74 C73 1.370 . S
C74 H92 0.948 . S
Zn75 N69 2.020 . S
Zn75 O84 2.039 1_565 S
Zn75 O90 2.034 1_565 S
Zn75 O94 2.025 . S
Zn75 O96 2.024 . S
C76 O95 1.246 . S
C76 O96 1.249 1_556 S
N77 C78 1.307 . S
N77 C79 1.345 . S
N77 Zn83 2.020 . S
C78 N77 1.307 . S
C78 C82 1.370 . S
C78 H89 0.948 . S
C79 N77 1.345 . S
C79 C80 1.382 . S
C79 H87 0.937 1_545 S
C80 C79 1.382 . S
C80 C81 1.390 . S
C80 H100 0.949 1_545 S
C81 C80 1.390 . S
C81 C82 1.357 . S
C82 C78 1.370 . S
C82 C81 1.357 . S
C82 H101 0.950 . S
Zn83 N77 2.020 . S
Zn83 O86 2.025 . S
Zn83 O91 2.024 . S
Zn83 O93 2.039 1_545 S
Zn83 O95 2.034 1_545 S
O84 C68 1.251 . S
O84 Zn75 2.039 1_545 S
C85 O90 1.246 . S
C85 O91 1.249 1_554 S
O86 C68 1.254 1_556 S
O86 Zn83 2.025 . S
H87 C79 0.937 1_565 S
H88 C70 0.952 . S
H89 C78 0.948 . S
O90 Zn75 2.034 1_545 S
O90 C85 1.246 . S
O91 Zn83 2.024 . S
O91 C85 1.249 1_556 S
H92 C74 0.948 . S
O93 Zn83 2.039 1_565 S
O93 C97 1.251 . S
O94 Zn75 2.025 . S
O94 C97 1.254 1_554 S
O95 C76 1.246 . S
O95 Zn83 2.034 1_565 S
O96 Zn75 2.024 . S
O96 C76 1.249 1_554 S
C97 O93 1.251 . S
C97 O94 1.254 1_556 S
H98 C71 0.949 1_545 S
H99 C73 0.950 . S
H100 C80 0.949 1_565 S
H101 C82 0.950 . S
C102 O118 1.251 . S
C102 O120 1.254 . S
N103 C104 1.333 . S
N103 C108 1.307 . S
N103 Zn109 2.020 . S
C104 N103 1.333 . S
C104 C105 1.379 1_554 S
C104 H122 0.952 . S
C105 C104 1.379 1_556 S
C105 C106 1.390 . S
C105 H132 0.949 . S
C106 C105 1.390 . S
C106 C107 1.357 . S
C107 C106 1.357 . S
C107 C108 1.370 1_556 S
C107 H133 0.950 . S
C108 N103 1.307 . S
C108 C107 1.370 1_554 S
C108 H126 0.948 . S
Zn109 N103 2.020 . S
Zn109 O118 2.039 . S
Zn109 O124 2.034 . S
Zn109 O128 2.025 . S
Zn109 O130 2.024 . S
C110 O129 1.246 . S
C110 O130 1.249 . S
N111 C112 1.307 . S
N111 C113 1.333 . S
N111 Zn117 2.020 . S
C112 N111 1.307 . S
C112 C116 1.370 . S
C112 H123 0.948 . S
C113 N111 1.333 . S
C113 C114 1.379 . S
C113 H121 0.952 . S
C114 C113 1.379 . S
C114 C115 1.390 . S
C114 H134 0.949 . S
C115 C114 1.390 . S
C115 C116 1.357 . S
C116 C112 1.370 . S
C116 C115 1.357 . S
C116 H135 0.950 . S
Zn117 N111 2.020 . S
Zn117 O120 2.025 . S
Zn117 O125 2.024 . S
Zn117 O127 2.039 . S
Zn117 O129 2.034 . S
O118 C102 1.251 . S
O118 Zn109 2.039 . S
C119 O124 1.246 . S
C119 O125 1.249 . S
O120 C102 1.254 . S
O120 Zn117 2.025 . S
H121 C113 0.952 . S
H122 C104 0.952 . S
H123 C112 0.948 . S
O124 Zn109 2.034 . S
O124 C119 1.246 . S
O125 Zn117 2.024 . S
O125 C119 1.249 . S
H126 C108 0.948 . S
O127 Zn117 2.039 . S
O127 C131 1.251 . S
O128 Zn109 2.025 . S
O128 C131 1.254 . S
O129 C110 1.246 . S
O129 Zn117 2.034 . S
O130 Zn109 2.024 . S
O130 C110 1.249 . S
C131 O127 1.251 . S
C131 O128 1.254 . S
H132 C105 0.949 . S
H133 C107 0.950 . S
H134 C114 0.949 . S
H135 C116 0.950 . S
C136 O152 1.251 . S
C136 O154 1.254 . S
N137 C138 1.333 . S
N137 C142 1.307 . S
N137 Zn143 2.020 . S
C138 N137 1.333 . S
C138 C139 1.379 1_554 S
C138 H156 0.952 . S
C139 C138 1.379 1_556 S
C139 C140 1.390 . S
C139 H166 0.949 . S
C140 C139 1.390 . S
C140 C141 1.357 . S
C141 C140 1.357 . S
C141 C142 1.370 1_556 S
C141 H167 0.950 . S
C142 N137 1.307 . S
C142 C141 1.370 1_554 S
C142 H160 0.948 . S
Zn143 N137 2.020 . S
Zn143 O152 2.039 . S
Zn143 O158 2.034 . S
Zn143 O162 2.025 . S
Zn143 O164 2.024 . S
C144 O163 1.246 . S
C144 O164 1.249 . S
N145 C146 1.307 . S
N145 C147 1.333 . S
N145 Zn151 2.020 . S
C146 N145 1.307 . S
C146 C150 1.370 . S
C146 H157 0.948 . S
C147 N145 1.333 . S
C147 C148 1.379 . S
C147 H155 0.952 . S
C148 C147 1.379 . S
C148 C149 1.390 . S
C148 H168 0.949 . S
C149 C148 1.390 . S
C149 C150 1.357 . S
C150 C146 1.370 . S
C150 C149 1.357 . S
C150 H169 0.950 . S
Zn151 N145 2.020 . S
Zn151 O154 2.025 . S
Zn151 O159 2.024 . S
Zn151 O161 2.039 . S
Zn151 O163 2.034 . S
O152 C136 1.251 . S
O152 Zn143 2.039 . S
C153 O158 1.246 . S
C153 O159 1.249 . S
O154 C136 1.254 . S
O154 Zn151 2.025 . S
H155 C147 0.952 . S
H156 C138 0.952 . S
H157 C146 0.948 . S
O158 Zn143 2.034 . S
O158 C153 1.246 . S
O159 Zn151 2.024 . S
O159 C153 1.249 . S
H160 C142 0.948 . S
O161 Zn151 2.039 . S
O161 C165 1.251 . S
O162 Zn143 2.025 . S
O162 C165 1.254 . S
O163 C144 1.246 . S
O163 Zn151 2.034 . S
O164 Zn143 2.024 . S
O164 C144 1.249 . S
C165 O161 1.251 . S
C165 O162 1.254 . S
H166 C139 0.949 . S
H167 C141 0.950 . S
H168 C148 0.949 . S
H169 C150 0.950 . S
C170 O186 1.251 . S
C170 O188 1.254 . S
N171 C172 1.333 . S
N171 C176 1.307 . S
N171 Zn177 2.020 . S
C172 N171 1.333 . S
C172 C173 1.379 1_554 S
C172 H190 0.952 . S
C173 C172 1.379 1_556 S
C173 C174 1.390 . S
C173 H200 0.949 . S
C174 C173 1.390 . S
C174 C175 1.357 . S
C175 C174 1.357 . S
C175 C176 1.370 1_556 S
C175 H201 0.950 . S
C176 N171 1.307 . S
C176 C175 1.370 1_554 S
C176 H194 0.948 . S
Zn177 N171 2.020 . S
Zn177 O186 2.039 . S
Zn177 O192 2.034 . S
Zn177 O196 2.025 . S
Zn177 O198 2.024 . S
C178 O197 1.246 . S
C178 O198 1.249 . S
N179 C180 1.307 . S
N179 C181 1.333 . S
N179 Zn185 2.020 . S
C180 N179 1.307 . S
C180 C184 1.370 . S
C180 H191 0.948 . S
C181 N179 1.333 . S
C181 C182 1.379 . S
C181 H189 0.952 . S
C182 C181 1.379 . S
C182 C183 1.390 . S
C182 H202 0.949 . S
C183 C182 1.390 . S
C183 C184 1.357 . S
C184 C180 1.370 . S
C184 C183 1.357 . S
C184 H203 0.950 . S
Zn185 N179 2.020 . S
Zn185 O188 2.025 . S
Zn185 O193 2.024 . S
Zn185 O195 2.039 . S
Zn185 O197 2.034 . S
O186 C170 1.251 . S
O186 Zn177 2.039 . S
C187 O192 1.246 . S
C187 O193 1.249 . S
O188 C170 1.254 . S
O188 Zn185 2.025 . S
H189 C181 0.952 . S
H190 C172 0.952 . S
H191 C180 0.948 . S
O192 Zn177 2.034 . S
O192 C187 1.246 . S
O193 Zn185 2.024 . S
O193 C187 1.249 . S
H194 C176 0.948 . S
O195 Zn185 2.039 . S
O195 C199 1.251 . S
O196 Zn177 2.025 . S
O196 C199 1.254 . S
O197 C178 1.246 . S
O197 Zn185 2.034 . S
O198 Zn177 2.024 . S
O198 C178 1.249 . S
C199 O195 1.251 . S
C199 O196 1.254 . S
H200 C173 0.949 . S
H201 C175 0.950 . S
H202 C182 0.949 . S
H203 C184 0.950 . S
C204 O220 1.251 . S
C204 O222 1.254 . S
N205 C206 1.333 . S
N205 C210 1.307 . S
N205 Zn211 2.020 . S
C206 N205 1.333 . S
C206 C207 1.379 1_556 S
C206 H224 0.952 . S
C207 C206 1.379 1_554 S
C207 C208 1.390 . S
C207 H234 0.949 . S
C208 C207 1.390 . S
C208 C209 1.357 . S
C209 C208 1.357 . S
C209 C210 1.370 1_554 S
C209 H235 0.950 . S
C210 N205 1.307 . S
C210 C209 1.370 1_556 S
C210 H228 0.948 . S
Zn211 N205 2.020 . S
Zn211 O220 2.039 . S
Zn211 O226 2.034 . S
Zn211 O230 2.025 . S
Zn211 O232 2.024 . S
C212 O231 1.246 . S
C212 O232 1.249 . S
N213 C214 1.307 . S
N213 C215 1.333 . S
N213 Zn219 2.020 . S
C214 N213 1.307 . S
C214 C218 1.370 . S
C214 H225 0.948 . S
C215 N213 1.333 . S
C215 C216 1.379 . S
C215 H223 0.952 . S
C216 C215 1.379 . S
C216 C217 1.390 . S
C216 H236 0.949 . S
C217 C216 1.390 . S
C217 C218 1.357 . S
C218 C214 1.370 . S
C218 C217 1.357 . S
C218 H237 0.950 . S
Zn219 N213 2.020 . S
Zn219 O222 2.025 . S
Zn219 O227 2.024 . S
Zn219 O229 2.039 . S
Zn219 O231 2.034 . S
O220 C204 1.251 . S
O220 Zn211 2.039 . S
C221 O226 1.246 . S
C221 O227 1.249 . S
O222 C204 1.254 . S
O222 Zn219 2.025 . S
H223 C215 0.952 . S
H224 C206 0.952 . S
H225 C214 0.948 . S
O226 Zn211 2.034 . S
O226 C221 1.246 . S
O227 Zn219 2.024 . S
O227 C221 1.249 . S
H228 C210 0.948 . S
O229 Zn219 2.039 . S
O229 C233 1.251 . S
O230 Zn211 2.025 . S
O230 C233 1.254 . S
O231 C212 1.246 . S
O231 Zn219 2.034 . S
O232 Zn211 2.024 . S
O232 C212 1.249 . S
C233 O229 1.251 . S
C233 O230 1.254 . S
H234 C207 0.949 . S
H235 C209 0.950 . S
H236 C216 0.949 . S
H237 C218 0.950 . S
C238 O254 1.251 . S
C238 O256 1.254 . S
N239 C240 1.333 . S
N239 C244 1.307 . S
N239 Zn245 2.020 . S
C240 N239 1.333 . S
C240 C241 1.379 . S
C240 H258 0.952 . S
C241 C240 1.379 . S
C241 C242 1.390 . S
C241 H268 0.949 . S
C242 C241 1.390 . S
C242 C243 1.357 . S
C243 C242 1.357 . S
C243 C244 1.370 . S
C243 H269 0.950 . S
C244 N239 1.307 . S
C244 C243 1.370 . S
C244 H262 0.948 . S
Zn245 N239 2.020 . S
Zn245 O254 2.039 . S
Zn245 O260 2.034 . S
Zn245 O264 2.025 . S
Zn245 O266 2.024 . S
C246 O265 1.246 . S
C246 O266 1.249 . S
N247 C248 1.307 . S
N247 C249 1.333 . S
N247 Zn253 2.020 . S
C248 N247 1.307 . S
C248 C252 1.370 1_556 S
C248 H259 0.948 . S
C249 N247 1.333 . S
C249 C250 1.379 1_556 S
C249 H257 0.952 . S
C250 C249 1.379 1_554 S
C250 C251 1.390 . S
C250 H270 0.949 . S
C251 C250 1.390 . S
C251 C252 1.357 . S
C252 C248 1.370 1_554 S
C252 C251 1.357 . S
C252 H271 0.950 . S
Zn253 N247 2.020 . S
Zn253 O256 2.025 . S
Zn253 O261 2.024 . S
Zn253 O263 2.039 . S
Zn253 O265 2.034 . S
O254 C238 1.251 . S
O254 Zn245 2.039 . S
C255 O260 1.246 . S
C255 O261 1.249 . S
O256 C238 1.254 . S
O256 Zn253 2.025 . S
H257 C249 0.952 . S
H258 C240 0.952 . S
H259 C248 0.948 . S
O260 Zn245 2.034 . S
O260 C255 1.246 . S
O261 Zn253 2.024 . S
O261 C255 1.249 . S
H262 C244 0.948 . S
O263 Zn253 2.039 . S
O263 C267 1.251 . S
O264 Zn245 2.025 . S
O264 C267 1.254 . S
O265 C246 1.246 . S
O265 Zn253 2.034 . S
O266 Zn245 2.024 . S
O266 C246 1.249 . S
C267 O263 1.251 . S
C267 O264 1.254 . S
H268 C241 0.949 . S
H269 C243 0.950 . S
H270 C250 0.949 . S
H271 C252 0.950 . S
C272 O288 1.251 . S
C272 O290 1.254 . S
N273 C274 1.333 . S
N273 C278 1.307 . S
N273 Zn279 2.020 . S
C274 N273 1.333 . S
C274 C275 1.379 1_556 S
C274 H292 0.952 . S
C275 C274 1.379 1_554 S
C275 C276 1.390 . S
C275 H302 0.949 . S
C276 C275 1.390 . S
C276 C277 1.357 . S
C277 C276 1.357 . S
C277 C278 1.370 1_554 S
C277 H303 0.950 . S
C278 N273 1.307 . S
C278 C277 1.370 1_556 S
C278 H296 0.948 . S
Zn279 N273 2.020 . S
Zn279 O288 2.039 . S
Zn279 O294 2.034 . S
Zn279 O298 2.025 . S
Zn279 O300 2.024 . S
C280 O299 1.246 . S
C280 O300 1.249 . S
N281 C282 1.307 . S
N281 C283 1.333 . S
N281 Zn287 2.020 . S
C282 N281 1.307 . S
C282 C286 1.370 . S
C282 H293 0.948 . S
C283 N281 1.333 . S
C283 C284 1.379 . S
C283 H291 0.952 . S
C284 C283 1.379 . S
C284 C285 1.390 . S
C284 H304 0.949 . S
C285 C284 1.390 . S
C285 C286 1.357 . S
C286 C282 1.370 . S
C286 C285 1.357 . S
C286 H305 0.950 . S
Zn287 N281 2.020 . S
Zn287 O290 2.025 . S
Zn287 O295 2.024 . S
Zn287 O297 2.039 . S
Zn287 O299 2.034 . S
O288 C272 1.251 . S
O288 Zn279 2.039 . S
C289 O294 1.246 . S
C289 O295 1.249 . S
O290 C272 1.254 . S
O290 Zn287 2.025 . S
H291 C283 0.952 . S
H292 C274 0.952 . S
H293 C282 0.948 . S
O294 Zn279 2.034 . S
O294 C289 1.246 . S
O295 Zn287 2.024 . S
O295 C289 1.249 . S
H296 C278 0.948 . S
O297 Zn287 2.039 . S
O297 C301 1.251 . S
O298 Zn279 2.025 . S
O298 C301 1.254 . S
O299 C280 1.246 . S
O299 Zn287 2.034 . S
O300 Zn279 2.024 . S
O300 C280 1.249 . S
C301 O297 1.251 . S
C301 O298 1.254 . S
H302 C275 0.949 . S
H303 C277 0.950 . S
H304 C284 0.949 . S
H305 C286 0.950 . S
C29 C267 3.416 . S
C51 C289 3.443 . S
C97 C221 3.429 . S
C153 C85 3.366 . S
C187 C17 3.413 . S
C63 C119 3.418 . S
C255 C199 3.441 1_455 S
C301 C131 3.445 . S
C165 C233 3.492 1_545 S
C68 C8 1.739 1_554 S
C34 C0 1.767 1_566 S
C42 C76 1.781 1_654 S
C102 C178 1.770 . S
C110 C136 1.767 . S
C144 C170 1.776 . S
C272 C212 1.804 . S
C238 C204 1.757 . S
C280 C246 1.771 . S
C13 C4 3.089 1_655 S
C38 C47 2.990 . S
C81 C72 2.952 1_545 S
C115 C106 3.070 . S
C149 C140 3.030 . S
C183 C174 2.992 . S
C217 C208 3.108 . S
C251 C242 3.069 . S
C285 C276 2.971 . S
