# Generated by pormake.
# Topology sod, (4)-cn, num edge types: 1
# Building blocks:
#     Node 0, Type 0, BuildingBlock: AZAVOO_clean_sbu_0, # of connection points: 4
#     Node 1, Type 0, BuildingBlock: AZAVOO_clean_sbu_0, # of connection points: 4
#     Node 2, Type 0, BuildingBlock: AZAVOO_clean_sbu_0, # of connection points: 4
#     Node 3, Type 0, BuildingBlock: AZAVOO_clean_sbu_0, # of connection points: 4
#     Node 4, Type 0, BuildingBlock: AZAVOO_clean_sbu_0, # of connection points: 4
#     Node 5, Type 0, BuildingBlock: AZAVOO_clean_sbu_0, # of connection points: 4
#     Node 6, Type 0, BuildingBlock: AZAVOO_clean_sbu_0, # of connection points: 4
#     Node 7, Type 0, BuildingBlock: AZAVOO_clean_sbu_0, # of connection points: 4
#     Node 8, Type 0, BuildingBlock: AZAVOO_clean_sbu_0, # of connection points: 4
#     Node 9, Type 0, BuildingBlock: AZAVOO_clean_sbu_0, # of connection points: 4
#     Node 10, Type 0, BuildingBlock: AZAVOO_clean_sbu_0, # of connection points: 4
#     Node 11, Type 0, BuildingBlock: AZAVOO_clean_sbu_0, # of connection points: 4
#     Edge 12, Type (0, 0), BuildingBlock: KIFKEQ_clean_linker_1, # of connection points: 2
#     Edge 13, Type (0, 0), BuildingBlock: KIFKEQ_clean_linker_1, # of connection points: 2
#     Edge 14, Type (0, 0), BuildingBlock: KIFKEQ_clean_linker_1, # of connection points: 2
#     Edge 15, Type (0, 0), BuildingBlock: KIFKEQ_clean_linker_1, # of connection points: 2
#     Edge 16, Type (0, 0), BuildingBlock: KIFKEQ_clean_linker_1, # of connection points: 2
#     Edge 17, Type (0, 0), BuildingBlock: KIFKEQ_clean_linker_1, # of connection points: 2
#     Edge 18, Type (0, 0), BuildingBlock: KIFKEQ_clean_linker_1, # of connection points: 2
#     Edge 19, Type (0, 0), BuildingBlock: KIFKEQ_clean_linker_1, # of connection points: 2
#     Edge 20, Type (0, 0), BuildingBlock: KIFKEQ_clean_linker_1, # of connection points: 2
#     Edge 21, Type (0, 0), BuildingBlock: KIFKEQ_clean_linker_1, # of connection points: 2
#     Edge 22, Type (0, 0), BuildingBlock: KIFKEQ_clean_linker_1, # of connection points: 2
#     Edge 23, Type (0, 0), BuildingBlock: KIFKEQ_clean_linker_1, # of connection points: 2
#     Edge 24, Type (0, 0), BuildingBlock: KIFKEQ_clean_linker_1, # of connection points: 2
#     Edge 25, Type (0, 0), BuildingBlock: KIFKEQ_clean_linker_1, # of connection points: 2
#     Edge 26, Type (0, 0), BuildingBlock: KIFKEQ_clean_linker_1, # of connection points: 2
#     Edge 27, Type (0, 0), BuildingBlock: KIFKEQ_clean_linker_1, # of connection points: 2
#     Edge 28, Type (0, 0), BuildingBlock: KIFKEQ_clean_linker_1, # of connection points: 2
#     Edge 29, Type (0, 0), BuildingBlock: KIFKEQ_clean_linker_1, # of connection points: 2
#     Edge 30, Type (0, 0), BuildingBlock: KIFKEQ_clean_linker_1, # of connection points: 2
#     Edge 31, Type (0, 0), BuildingBlock: KIFKEQ_clean_linker_1, # of connection points: 2
#     Edge 32, Type (0, 0), BuildingBlock: KIFKEQ_clean_linker_1, # of connection points: 2
#     Edge 33, Type (0, 0), BuildingBlock: KIFKEQ_clean_linker_1, # of connection points: 2
#     Edge 34, Type (0, 0), BuildingBlock: KIFKEQ_clean_linker_1, # of connection points: 2
#     Edge 35, Type (0, 0), BuildingBlock: KIFKEQ_clean_linker_1, # of connection points: 2
# Relax obj value: 0.127
# Max RMSD: 0.161
# Mean RMSD: 0.155
data_MOF--net-sod--node1-AZAVOO_clean_sbu_0--edge1-KIFKEQ_clean_linker_1
_symmetry_space_group_name_H-M    P1
_symmetry_Int_Tables_number       1
_symmetry_cell_setting            triclinic
loop_
_symmetry_equiv_pos_as_xyz
'x, y, z'
_cell_length_a     41.791429
_cell_length_b     42.805607
_cell_length_c     43.645302
_cell_angle_alpha  89.325349
_cell_angle_beta   93.228837
_cell_angle_gamma 96.014535
loop_
_atom_site_label
_atom_site_type_symbol
_atom_site_fract_x
_atom_site_fract_y
_atom_site_fract_z
_atom_type_partial_charge
Mg0 Mg 0.02201 0.26211 0.54024 0.0
O1 O 0.97587 0.22756 0.53507 0.0
O2 O 0.93478 0.25651 0.53939 0.0
Mg3 Mg 0.95328 0.30758 0.54883 0.0
C4 C 0.94566 0.23023 0.53502 0.0
C5 C 0.05924 0.20369 0.54218 0.0
O6 O 0.04298 0.1998 0.56708 0.0
O7 O 0.01179 0.28147 0.49198 0.0
O8 O 0.97215 0.3111 0.50053 0.0
O9 O 0.02601 0.25733 0.59163 0.0
O10 O 0.99872 0.29172 0.56638 0.0
C11 C 0.99195 0.30086 0.48277 0.0
C12 C 0.00795 0.28004 0.59221 0.0
O13 O 0.05369 0.22615 0.52396 0.0
Mg14 Mg 0.74849 0.97606 0.50593 0.0
O15 O 0.77825 0.02316 0.49828 0.0
O16 O 0.74473 0.05975 0.48836 0.0
Mg17 Mg 0.6932 0.03605 0.48882 0.0
C18 C 0.77316 0.05153 0.4924 0.0
C19 C 0.79557 0.9265 0.51645 0.0
O20 O 0.76912 0.91029 0.5053 0.0
O21 O 0.73728 0.99265 0.55386 0.0
O22 O 0.70151 0.02637 0.54008 0.0
O23 O 0.74438 0.96547 0.45546 0.0
O24 O 0.70954 0.99034 0.47928 0.0
C25 C 0.71715 0.01175 0.56067 0.0
C26 C 0.71849 0.97969 0.45408 0.0
O27 O 0.79485 0.95548 0.52205 0.0
Mg28 Mg 0.05866 0.79009 0.52839 0.0
O29 O 0.10471 0.825 0.52582 0.0
O30 O 0.14572 0.79544 0.52499 0.0
Mg31 Mg 0.12765 0.74361 0.52743 0.0
C32 C 0.13481 0.8222 0.52458 0.0
C33 C 0.99836 0.81952 0.50449 0.0
O34 O 0.99374 0.79084 0.49353 0.0
O35 O 0.06073 0.77752 0.47766 0.0
O36 O 0.10185 0.74773 0.48006 0.0
O37 O 0.06318 0.78711 0.57994 0.0
O38 O 0.08475 0.75611 0.54885 0.0
C39 C 0.07935 0.76025 0.46499 0.0
C40 C 0.07988 0.7637 0.57646 0.0
O41 O 0.02508 0.82835 0.51877 0.0
Mg42 Mg 0.32814 0.08074 0.52625 0.0
O43 O 0.29963 0.03333 0.51542 0.0
O44 O 0.33275 -0.00021 0.50006 0.0
Mg45 Mg 0.38352 0.02605 0.50191 0.0
C46 C 0.30468 0.00621 0.50622 0.0
C47 C 0.27653 0.12344 0.53615 0.0
O48 O 0.29784 0.14061 0.52039 0.0
O49 O 0.34727 0.0606 0.57203 0.0
O50 O 0.38147 0.02922 0.55403 0.0
O51 O 0.32397 0.09527 0.47662 0.0
O52 O 0.3642 0.07163 0.4979 0.0
C53 C 0.36845 0.04117 0.57632 0.0
C54 C 0.35083 0.08332 0.47382 0.0
O55 O 0.28284 0.09633 0.54521 0.0
Mg56 Mg 0.50021 0.01404 0.23709 0.0
O57 O 0.54449 0.00279 0.26714 0.0
O58 O 0.5823 0.98952 0.23689 0.0
Mg59 Mg 0.56174 0.99185 0.18754 0.0
C60 C 0.57246 0.99435 0.26341 0.0
C61 C 0.45674 0.05218 0.27656 0.0
O62 O 0.44462 0.06034 0.24958 0.0
O63 O 0.52683 0.06076 0.22352 0.0
O64 O 0.56327 0.04551 0.19281 0.0
O65 O 0.47958 0.96441 0.23939 0.0
O66 O 0.51254 0.98344 0.20409 0.0
C67 C 0.55025 0.067 0.20615 0.0
C68 C 0.49656 0.95948 0.21637 0.0
O69 O 0.47996 0.0352 0.27811 0.0
Mg70 Mg 0.07047 0.51774 0.30864 0.0
O71 O 0.02561 0.51689 0.27565 0.0
O72 O 0.98172 0.51629 0.3028 0.0
Mg73 Mg 0.99866 0.51532 0.35334 0.0
C74 C 0.99515 0.51675 0.27724 0.0
C75 C 0.12893 0.51723 0.26877 0.0
O76 O 0.13711 0.49966 0.29222 0.0
O77 O 0.06652 0.56925 0.31924 0.0
O78 O 0.02278 0.5657 0.34699 0.0
O79 O 0.06622 0.46564 0.30998 0.0
O80 O 0.04282 0.49474 0.34184 0.0
C81 C 0.04605 0.58185 0.33444 0.0
C82 C 0.04746 0.4672 0.3324 0.0
O83 O 0.10267 0.52979 0.26895 0.0
Mg84 Mg 0.56766 0.01501 0.80841 0.0
O85 O 0.52297 0.01409 0.77507 0.0
O86 O 0.47912 0.00996 0.80253 0.0
Mg87 Mg 0.49556 0.00711 0.85313 0.0
C88 C 0.4924 0.01249 0.77686 0.0
C89 C 0.62311 0.0123 0.76646 0.0
O90 O 0.62605 0.98876 0.78564 0.0
O91 O 0.56123 0.0657 0.82087 0.0
O92 O 0.51847 0.05811 0.84967 0.0
O93 O 0.56542 0.96271 0.80781 0.0
O94 O 0.54048 0.98929 0.84049 0.0
C95 C 0.54068 0.07625 0.83762 0.0
C96 C 0.54639 0.96252 0.83018 0.0
O97 O 0.60081 0.02986 0.76988 0.0
Mg98 Mg 0.00817 0.52189 0.73304 0.0
O99 O 0.05098 0.51242 0.76608 0.0
O100 O 0.09007 0.49799 0.73798 0.0
Mg101 Mg 0.07188 0.49721 0.68777 0.0
C102 C 0.07921 0.50399 0.76379 0.0
C103 C 0.95454 0.54194 0.77035 0.0
O104 O 0.93865 0.526 0.74774 0.0
O105 O 0.03527 0.56766 0.7179 0.0
O106 O 0.07273 0.55118 0.68917 0.0
O107 O 0.98746 0.47251 0.73748 0.0
O108 O 0.02205 0.48935 0.70279 0.0
C109 C 0.05903 0.57322 0.70083 0.0
C110 C 0.00543 0.46616 0.71566 0.0
O111 O 0.98511 0.54599 0.77064 0.0
Mg112 Mg 0.24956 0.46925 0.00761 0.0
O113 O 0.27984 0.51629 7e-05 0.0
O114 O 0.24653 0.5533 0.99109 0.0
Mg115 Mg 0.19506 0.53068 -0.00549 0.0
C116 C 0.27487 0.54472 -0.0058 0.0
C117 C 0.2984 0.42137 0.00872 0.0
O118 O 0.27437 0.40932 0.99037 0.0
O119 O 0.24078 0.48473 0.0564 0.0
O120 O 0.20706 0.52119 0.04539 0.0
O121 O 0.24375 0.46045 0.95699 0.0
O122 O 0.21007 0.48498 0.9827 0.0
C123 C 0.22302 0.50537 0.06472 0.0
C124 C 0.21831 0.47527 0.95681 0.0
O125 O 0.29571 0.44718 0.022 0.0
Mg126 Mg 0.56143 0.28234 0.03491 0.0
O127 O 0.60722 0.31781 0.03331 0.0
O128 O 0.64808 0.28786 0.03308 0.0
Mg129 Mg 0.63075 0.23613 0.03882 0.0
C130 C 0.63723 0.31466 0.03179 0.0
C131 C 0.49843 0.3072 0.02874 0.0
O132 O 0.4948 0.27821 0.03926 0.0
O133 O 0.56625 0.26843 0.98473 0.0
O134 O 0.60644 0.23781 0.99076 0.0
O135 O 0.56303 0.2809 0.08661 0.0
O136 O 0.5872 0.24973 0.05791 0.0
C137 C 0.58497 0.24997 0.9739 0.0
C138 C 0.58041 0.25775 0.08485 0.0
O139 O 0.5266 0.31888 0.0225 0.0
Mg140 Mg 0.82946 0.57405 0.02103 0.0
O141 O 0.80238 0.52499 0.01614 0.0
O142 O 0.83762 0.49109 0.00659 0.0
Mg143 Mg 0.88694 0.51918 0.00148 0.0
C144 C 0.80908 0.49712 0.01153 0.0
C145 C 0.7596 0.58724 0.02223 0.0
O146 O 0.76075 0.57119 -0.00308 0.0
O147 O 0.85145 0.55999 0.06818 0.0
O148 O 0.88923 0.5312 0.05241 0.0
O149 O 0.82275 0.58349 0.97046 0.0
O150 O 0.86427 0.56237 -0.00777 0.0
C151 C 0.87585 0.54458 0.07357 0.0
C152 C 0.84951 0.57141 0.96763 0.0
O153 O 0.7849 0.59168 0.03993 0.0
Mg154 Mg 0.52187 0.75782 0.03742 0.0
O155 O 0.47594 0.72315 0.0318 0.0
O156 O 0.43447 0.75193 0.03423 0.0
Mg157 Mg 0.45269 0.80329 0.04221 0.0
C158 C 0.44567 0.72562 0.03095 0.0
C159 C 0.58254 0.72785 0.03467 0.0
O160 O 0.58977 0.75462 0.04916 0.0
O161 O 0.51349 0.77563 0.98827 0.0
O162 O 0.47301 0.80492 -0.00548 0.0
O163 O 0.52381 0.75388 0.0887 0.0
O164 O 0.49774 0.78819 0.06184 0.0
C165 C 0.49352 0.79434 0.97778 0.0
C166 C 0.50579 0.7767 0.08814 0.0
O167 O 0.55375 0.72102 0.024 0.0
H168 H 0.94624 0.33032 0.45025 0.0
H169 H 0.04349 0.30545 0.44626 0.0
H170 H 0.9547 0.36602 0.40696 0.0
H171 H 0.05212 0.34167 0.40322 0.0
H172 H 0.05702 0.4063 0.32075 0.0
H173 H 0.03868 0.35952 0.3502 0.0
H174 H 0.98799 0.4166 0.40804 0.0
H175 H 0.00607 0.46301 0.37878 0.0
C176 C 0.96921 0.33195 0.43969 0.0
C177 C 0.99443 0.31556 0.45206 0.0
C178 C 0.97407 0.3525 0.41497 0.0
C179 C 0.00429 0.3572 0.40217 0.0
C180 C 0.02853 0.33854 0.41257 0.0
C181 C 0.0236 0.31779 0.43728 0.0
C182 C 0.04147 0.40873 0.33942 0.0
C183 C 0.03307 0.43841 0.3475 0.0
C184 C 0.03109 0.38195 0.35632 0.0
C185 C 0.01188 0.38434 0.38141 0.0
C186 C 1.00232 0.41383 0.38853 0.0
C187 C 0.01285 0.44055 0.37182 0.0
H188 H 0.6655 0.01146 0.44462 0.0
H189 H 0.7273 0.95524 0.39772 0.0
H190 H 0.63198 0.0152 0.39811 0.0
H191 H 0.69234 0.95744 0.35112 0.0
H192 H 0.55693 0.98776 0.3232 0.0
H193 H 0.59321 0.98355 0.36822 0.0
H194 H 0.67443 0.99021 0.31046 0.0
H195 H 0.63785 0.99305 0.26526 0.0
C196 C 0.67214 3e-05 0.42433 0.0
C197 C 0.69934 0.98329 0.42492 0.0
C198 C 0.6525 0.00175 0.39764 0.0
C199 C 0.65909 0.98625 0.37088 0.0
C200 C 0.68665 0.9699 0.37123 0.0
C201 C 0.70665 0.96854 0.39796 0.0
C202 C 0.58251 0.98822 0.3201 0.0
C203 C 0.5945 0.99087 0.29067 0.0
C204 C 0.6034 0.98602 0.34594 0.0
C205 C 0.63688 0.98693 0.34307 0.0
C206 C 0.64881 0.98911 0.31355 0.0
C207 C 0.62783 0.99089 0.28763 0.0
H208 H 1.00029 0.62265 0.33405 0.0
H209 H 0.10237 0.61724 0.34919 0.0
H210 H 0.0067 0.67624 0.35334 0.0
H211 H 0.10881 0.66937 0.37106 0.0
H212 H 0.11997 0.7569 0.41885 0.0
H213 H 0.11061 0.72194 0.37488 0.0
H214 H 0.01207 0.6986 0.39996 0.0
H215 H 0.02106 0.73568 0.44169 0.0
C216 C 0.02418 0.63319 0.34129 0.0
C217 C 0.0508 0.61585 0.3405 0.0
C218 C 0.02791 0.66382 0.35269 0.0
C219 C 0.05815 0.67731 0.36476 0.0
C220 C 0.0851 0.66044 0.36183 0.0
C221 C 0.08149 0.63024 0.34945 0.0
C222 C 0.09595 0.74533 0.41383 0.0
C223 C 0.07126 0.74874 0.43361 0.0
C224 C 0.09064 0.72477 0.38899 0.0
C225 C 0.06093 0.70612 0.38431 0.0
C226 C 0.03534 0.71226 0.40237 0.0
C227 C 0.0404 0.73367 0.42652 0.0
H228 H 0.32224 0.08591 0.41567 0.0
H229 H 0.4135 0.07844 0.46529 0.0
H230 H 0.34789 0.08046 0.36713 0.0
H231 H 0.43931 0.07466 0.41736 0.0
H232 H 0.46738 0.02742 0.33331 0.0
H233 H 0.44085 0.0366 0.37967 0.0
H234 H 0.38557 0.10355 0.33132 0.0
H235 H 0.41142 0.09316 0.28406 0.0
C236 C 0.34781 0.08348 0.41613 0.0
C237 C 0.3658 0.08204 0.44416 0.0
C238 C 0.36256 0.08057 0.38839 0.0
C239 C 0.39561 0.07665 0.38833 0.0
C240 C 0.41366 0.07667 0.41649 0.0
C241 C 0.39888 0.07899 0.44402 0.0
C242 C 0.44973 0.04428 0.33249 0.0
C243 C 0.44163 0.05969 0.30501 0.0
C244 C 0.43458 0.0497 0.35921 0.0
C245 C 0.41126 0.07109 0.3594 0.0
C246 C 0.4032 0.08671 0.33193 0.0
C247 C 0.41818 0.08096 0.30493 0.0
H248 H 0.02442 0.62385 0.7017 0.0
H249 H 0.11732 0.59683 0.68039 0.0
H250 H 0.03788 0.67521 0.67882 0.0
H251 H 0.13159 0.64885 0.65883 0.0
H252 H 0.11392 0.713 0.57473 0.0
H253 H 0.11551 0.67143 0.61229 0.0
H254 H 0.06724 0.72541 0.67521 0.0
H255 H 0.06463 0.76702 0.63662 0.0
C256 C 0.04812 0.62922 0.69292 0.0
C257 C 0.06953 0.60607 0.69221 0.0
C258 C 0.05601 0.65886 0.67998 0.0
C259 C 0.0857 0.66615 0.66646 0.0
C260 C 0.10818 0.64381 0.66826 0.0
C261 C 0.10006 0.614 0.6807 0.0
C262 C 0.1044 0.71654 0.59683 0.0
C263 C 0.08864 0.74314 0.60242 0.0
C264 C 0.10549 0.6926 0.61863 0.0
C265 C 0.09101 0.69468 0.64675 0.0
C266 C 0.07797 0.72268 0.65352 0.0
C267 C 0.07674 0.74669 0.63152 0.0
H268 H 0.42789 0.0197 0.77151 0.0
H269 H 0.51008 0.01053 0.71761 0.0
H270 H 0.39427 0.0246 0.72441 0.0
H271 H 0.47651 0.01561 0.67079 0.0
H272 H 0.40338 0.99312 0.59337 0.0
H273 H 0.43075 0.98457 0.64279 0.0
H274 H 0.38929 0.0631 0.68024 0.0
H275 H 0.36146 0.07177 0.63038 0.0
C276 C 0.43878 0.01859 0.74967 0.0
C277 C 0.47171 0.01462 0.74835 0.0
C278 C 0.41953 0.02161 0.72274 0.0
C279 C 0.43272 0.02036 0.69396 0.0
C280 C 0.46556 0.01623 0.69265 0.0
C281 C 0.48485 0.01348 0.71951 0.0
C282 C 0.39974 0.00846 0.61214 0.0
C283 C 0.38058 0.03347 0.60777 0.0
C284 C 0.41558 0.00359 0.64045 0.0
C285 C 0.41266 0.02352 0.66518 0.0
C286 C 0.39198 0.04738 0.66151 0.0
C287 C 0.37605 0.05233 0.633 0.0
H288 H 0.04946 0.28854 0.64214 0.0
H289 H 0.95545 0.30862 0.60608 0.0
H290 H 0.0488 0.32922 0.68097 0.0
H291 H 0.9546 0.34886 0.64504 0.0
H292 H 0.96069 0.41647 0.72456 0.0
H293 H 0.95916 0.36348 0.7037 0.0
H294 H 0.0509 0.38891 0.66451 0.0
H295 H 0.05224 0.44183 0.68479 0.0
C296 C 0.02809 0.30067 0.64338 0.0
C297 C 1.00271 0.29592 0.62089 0.0
C298 C 0.02783 0.32405 0.66542 0.0
C299 C 1.00186 0.34236 0.66562 0.0
C300 C 0.97489 0.33503 0.64536 0.0
C301 C 0.97544 0.31213 0.62298 0.0
C302 C 0.98077 0.41057 0.7119 0.0
C303 C 0.00643 0.43341 0.70595 0.0
C304 C 0.97987 0.38029 0.70007 0.0
C305 C 0.00497 0.37217 0.68272 0.0
C306 C 0.03144 0.39449 0.6782 0.0
C307 C 0.03204 0.42491 0.6895 0.0
H308 H 0.63317 0.06365 0.72893 0.0
H309 H 0.65859 0.96917 0.74334 0.0
H310 H 0.66261 0.06765 0.68215 0.0
H311 H 0.68639 0.97235 0.69587 0.0
H312 H 0.74566 0.98812 0.61342 0.0
H313 H 0.72902 0.99241 0.66593 0.0
H314 H 0.65348 0.04802 0.63278 0.0
H315 H 0.67086 0.04505 0.58135 0.0
C316 C 0.6451 0.04377 0.72211 0.0
C317 C 0.64326 0.01601 0.73961 0.0
C318 C 0.66186 0.04593 0.69519 0.0
C319 C 0.67655 0.02013 0.68482 0.0
C320 C 0.6758 0.99285 0.70315 0.0
C321 C 0.65956 0.99092 0.73033 0.0
C322 C 0.72584 0.00163 0.61753 0.0
C323 C 0.70954 0.01604 0.59307 0.0
C324 C 0.71613 0.00396 0.6476 0.0
C325 C 0.68976 0.0205 0.65375 0.0
C326 C 0.67425 0.03562 0.62929 0.0
C327 C 0.68411 0.03361 0.59951 0.0
H328 H 0.43593 0.28531 0.03571 0.0
H329 H 0.49654 0.36999 0.01445 0.0
H330 H 0.38884 0.31401 0.03157 0.0
H331 H 0.44873 0.39893 0.00997 0.0
H332 H 0.3562 0.44287 0.03852 0.0
H333 H 0.40569 0.4166 0.04282 0.0
H334 H 0.35777 0.33866 0.99036 0.0
H335 H 0.30864 0.36446 0.98633 0.0
C336 C 0.43925 0.31009 0.03001 0.0
C337 C 0.47006 0.32531 0.02528 0.0
C338 C 0.41214 0.32652 0.02752 0.0
C339 C 0.415 0.3587 0.02028 0.0
C340 C 0.44581 0.37416 0.01577 0.0
C341 C 0.47312 0.35757 0.0181 0.0
C342 C 0.35627 0.42007 0.02804 0.0
C343 C 0.32839 0.40567 0.01227 0.0
C344 C 0.38466 0.40518 0.03028 0.0
C345 C 0.3856 0.37552 0.01702 0.0
C346 C 0.35774 0.36131 0.00118 0.0
C347 C 0.32956 0.37618 -0.00119 0.0
H348 H 0.337 0.54026 0.0161 0.0
H349 H 0.27549 0.60468 0.97224 0.0
H350 H 0.38004 0.58309 0.02335 0.0
H351 H 0.3187 0.64714 0.97869 0.0
H352 H 0.38057 0.72076 0.03509 0.0
H353 H 0.3417 0.67603 0.02294 0.0
H354 H 0.41858 0.62194 -8e-05 0.0
H355 H 0.45798 0.66689 0.01283 0.0
C356 C 0.33289 0.56339 0.00739 0.0
C357 C 0.30264 0.56917 -0.00599 0.0
C358 C 0.3576 0.58792 0.0115 0.0
C359 C 0.35258 0.61864 0.00213 0.0
C360 C 0.32304 0.62391 0.98693 0.0
C361 C 0.29832 0.59951 0.98305 0.0
C362 C 0.38935 0.69939 0.02748 0.0
C363 C 0.42245 0.69751 0.02483 0.0
C364 C 0.36695 0.67376 0.02024 0.0
C365 C 0.37696 0.64555 0.00997 0.0
C366 C 0.41011 0.64334 0.00783 0.0
C367 C 0.43266 0.66909 0.01521 0.0
H368 H 0.69381 0.31634 0.00418 0.0
H369 H 0.63351 0.37581 0.04884 0.0
H370 H 0.73378 0.36076 -0.0024 0.0
H371 H 0.67457 0.42046 0.0437 0.0
H372 H 0.74384 0.5001 0.0066 0.0
H373 H 0.70122 0.45692 0.01012 0.0
H374 H 0.77327 0.3921 0.0258 0.0
H375 H 0.81558 0.43492 0.02076 0.0
C376 C 0.68925 0.33896 0.0129 0.0
C377 C 0.66064 0.34252 0.02731 0.0
C378 C 0.71234 0.36448 0.0093 0.0
C379 C 0.70782 0.39425 0.02055 0.0
C380 C 0.67883 0.39799 0.0345 0.0
C381 C 0.65534 0.3724 0.03761 0.0
C382 C 0.75051 0.47656 0.01061 0.0
C383 C 0.78311 0.4709 0.01315 0.0
C384 C 0.72605 0.4518 0.01287 0.0
C385 C 0.73364 0.42086 0.01814 0.0
C386 C 0.76634 0.4154 0.02099 0.0
C387 C 0.79072 0.44003 0.01825 0.0
H388 H 0.7047 0.58653 0.98538 0.0
H389 H 0.74949 0.62503 0.07032 0.0
H390 H 0.66074 0.61884 0.98944 0.0
H391 H 0.70476 0.65671 0.07494 0.0
H392 H 0.64666 0.73886 0.05004 0.0
H393 H 0.68723 0.70226 0.04938 0.0
H394 H 0.61461 0.62927 0.01627 0.0
H395 H 0.57398 0.66639 0.01608 0.0
C396 C 0.70489 0.60148 0.00525 0.0
C397 C 0.73083 0.60349 0.02735 0.0
C398 C 0.67951 0.61991 0.00765 0.0
C399 C 0.67936 0.64067 0.03232 0.0
C400 C 0.70449 0.64146 0.05528 0.0
C401 C 0.73001 0.62312 0.05279 0.0
C402 C 0.6393 0.71503 0.04254 0.0
C403 C 0.60711 0.70555 0.03302 0.0
C404 C 0.66255 0.69391 0.04248 0.0
C405 C 0.65417 0.6627 0.03308 0.0
C406 C 0.62194 0.65321 0.02342 0.0
C407 C 0.59866 0.67446 0.02332 0.0
H408 H 0.54705 0.80139 0.94391 0.0
H409 H 0.44708 0.81912 0.94193 0.0
H410 H 0.55563 0.8374 0.90065 0.0
H411 H 0.45552 0.85458 0.89843 0.0
H412 H 0.56065 0.90299 0.81842 0.0
H413 H 0.54373 0.8548 0.84655 0.0
H414 H 0.48582 0.907 0.90215 0.0
H415 H 0.50263 0.95469 0.87443 0.0
C416 C 0.52664 0.81201 0.9335 0.0
C417 C 0.49659 0.80802 0.94671 0.0
C418 C 0.53154 0.83264 0.90868 0.0
C419 C 0.50639 0.84936 0.89665 0.0
C420 C 0.47551 0.84258 0.90772 0.0
C421 C 0.47068 0.82219 0.93256 0.0
C422 C 0.54383 0.90399 0.83629 0.0
C423 C 0.53301 0.93272 0.84423 0.0
C424 C 0.53425 0.87643 0.85241 0.0
C425 C 0.51338 0.87707 0.87647 0.0
C426 C 0.50148 0.90555 0.88338 0.0
C427 C 0.51127 0.93304 0.86754 0.0
H428 H 0.2272 0.45471 0.89907 0.0
H429 H 0.16597 0.50847 0.94943 0.0
H430 H 0.19377 0.46167 0.8524 0.0
H431 H 0.13394 0.51709 0.90278 0.0
H432 H 0.14455 0.50323 0.76822 0.0
H433 H 0.17904 0.49787 0.81438 0.0
H434 H 0.09529 0.49055 0.86893 0.0
H435 H 0.06108 0.49739 0.8229 0.0
C436 C 0.20696 0.46847 0.9001 0.0
C437 C 0.19945 0.48121 0.92799 0.0
C438 C 0.18786 0.47263 0.87329 0.0
C439 C 0.16101 0.48991 0.87373 0.0
C440 C 0.154 0.50315 0.90158 0.0
C441 C 0.17276 0.49859 0.92838 0.0
C442 C 0.13353 0.50055 0.79011 0.0
C443 C 0.10008 0.5008 0.79192 0.0
C444 C 0.1533 0.49727 0.81659 0.0
C445 C 0.14005 0.49374 0.84549 0.0
C446 C 0.10651 0.49385 0.8472 0.0
C447 C 0.0868 0.49759 0.82077 0.0
H448 H 0.58862 0.12246 0.82351 0.0
H449 H 0.49969 0.10681 0.87006 0.0
H450 H 0.59805 0.17522 0.84506 0.0
H451 H 0.5096 0.15854 0.89228 0.0
H452 H 0.5295 0.24792 0.93672 0.0
H453 H 0.51666 0.21427 0.89191 0.0
H454 H 0.61491 0.19065 0.89578 0.0
H455 H 0.62778 0.22488 0.93937 0.0
C456 C 0.57082 0.1304 0.83788 0.0
C457 C 0.54383 0.11006 0.84568 0.0
C458 C 0.57626 0.16064 0.85031 0.0
C459 C 0.5549 0.17107 0.87088 0.0
C460 C 0.52653 0.15163 0.8764 0.0
C461 C 0.52104 0.1216 0.86391 0.0
C462 C 0.54859 0.23651 0.92717 0.0
C463 C 0.57941 0.23834 0.94205 0.0
C464 C 0.5412 0.21697 0.90166 0.0
C465 C 0.56448 0.19895 0.89073 0.0
C466 C 0.59625 0.20399 0.90341 0.0
C467 C 0.60361 0.22349 0.92873 0.0
H468 H 0.98026 0.57412 0.82111 0.0
H469 H 0.89021 0.53092 0.77978 0.0
H470 H 0.95334 0.58388 0.86758 0.0
H471 H 0.86346 0.54017 0.82658 0.0
H472 H 0.8223 0.58353 0.91061 0.0
H473 H 0.84672 0.58034 0.86116 0.0
H474 H 0.93165 0.54872 0.90757 0.0
H475 H 0.90783 0.55254 0.95656 0.0
C476 C 0.95467 0.56696 0.82182 0.0
C477 C 0.93746 0.5514 0.79691 0.0
C478 C 0.93929 0.5724 0.84851 0.0
C479 C 0.9064 0.56234 0.85088 0.0
C480 C 0.88879 0.54828 0.82539 0.0
C481 C 0.90418 0.54286 0.79864 0.0
C482 C 0.84614 0.57584 0.91014 0.0
C483 C 0.86306 0.56812 0.93746 0.0
C484 C 0.86008 0.57397 0.88188 0.0
C485 C 0.89122 0.56458 0.88054 0.0
C486 C 0.90788 0.55661 0.90788 0.0
C487 C 0.894 0.5584 0.93597 0.0
H488 H 0.61033 0.09121 0.19137 0.0
H489 H 0.51525 0.11737 0.20523 0.0
H490 H 0.6264 0.1437 0.17181 0.0
H491 H 0.5305 0.16924 0.18401 0.0
H492 H 0.61613 0.20809 0.08687 0.0
H493 H 0.61482 0.16659 0.12459 0.0
H494 H 0.55941 0.21959 0.18214 0.0
H495 H 0.55972 0.26109 0.1432 0.0
C496 C 0.59296 0.10834 0.19047 0.0
C497 C 0.56138 0.10009 0.19926 0.0
C498 C 0.6021 0.13841 0.17915 0.0
C499 C 0.57959 0.16063 0.17558 0.0
C500 C 0.54866 0.15299 0.18657 0.0
C501 C 0.53975 0.12309 0.19854 0.0
C502 C 0.60441 0.21145 0.10787 0.0
C503 C 0.58751 0.23768 0.11169 0.0
C504 C 0.6038 0.18754 0.12981 0.0
C505 C 0.58649 0.18931 0.15635 0.0
C506 C 0.57232 0.21707 0.16163 0.0
C507 C 0.57278 0.24103 0.13946 0.0
H508 H 0.00769 0.49723 0.22046 0.0
H509 H 0.93724 0.54092 0.2692 0.0
H510 H 0.97651 0.50343 0.17251 0.0
H511 H 0.90675 0.54884 0.22089 0.0
H512 H 0.84679 0.5354 0.12849 0.0
H513 H 0.87378 0.5268 0.17887 0.0
H514 H 0.96627 0.54369 0.13848 0.0
H515 H 0.93935 0.55036 0.08862 0.0
C516 C 0.98557 0.50831 0.22086 0.0
C517 C 0.97503 0.51877 0.24851 0.0
C518 C 0.96776 0.51214 0.19333 0.0
C519 C 0.93935 0.52727 0.19262 0.0
C520 C 0.92833 0.53693 0.2205 0.0
C521 C 0.94588 0.5325 0.24819 0.0
C522 C 0.87287 0.53742 0.13069 0.0
C523 C 0.89103 0.54314 0.10477 0.0
C524 C 0.88838 0.53253 0.15946 0.0
C525 C 0.92228 0.53385 0.16271 0.0
C526 C 0.94018 0.54127 0.13682 0.0
C527 C 0.92476 0.54546 0.10822 0.0
H528 H 0.54417 0.78439 0.14028 0.0
H529 H 0.45276 0.806 0.0989 0.0
H530 H 0.54106 0.82422 0.17948 0.0
H531 H 0.44948 0.84542 0.13819 0.0
H532 H 0.45054 0.91002 0.22036 0.0
H533 H 0.44992 0.85798 0.19739 0.0
H534 H 0.54453 0.88444 0.16456 0.0
H535 H 0.545 0.93634 0.18698 0.0
C536 C 0.52282 0.79672 0.14032 0.0
C537 C 0.49894 0.79261 0.11634 0.0
C538 C 0.52116 0.81959 0.16258 0.0
C539 C 0.49525 0.83805 0.1615 0.0
C540 C 0.46969 0.83145 0.13951 0.0
C541 C 0.47165 0.80904 0.11693 0.0
C542 C 0.47137 0.90451 0.20858 0.0
C543 C 0.49764 0.92736 0.20502 0.0
C544 C 0.47098 0.8748 0.19555 0.0
C545 C 0.49723 0.86727 0.17944 0.0
C546 C 0.52415 0.88958 0.17723 0.0
C547 C 0.52425 0.91944 0.18969 0.0
H548 H 0.22637 0.463 0.11213 0.0
H549 H 0.20884 0.5588 0.09133 0.0
H550 H 0.20812 0.46873 0.16383 0.0
H551 H 0.19175 0.56494 0.14306 0.0
H552 H 0.1154 0.54644 0.21434 0.0
H553 H 0.14398 0.54577 0.1675 0.0
H554 H 0.21518 0.49298 0.2139 0.0
H555 H 0.18594 0.49294 0.26078 0.0
C556 C 0.2195 0.48552 0.1189 0.0
C557 C 0.21852 0.51027 0.09759 0.0
C558 C 0.20908 0.48886 0.14854 0.0
C559 C 0.19784 0.51714 0.15741 0.0
C560 C 0.19935 0.54258 0.13673 0.0
C561 C 0.20935 0.53912 0.10714 0.0
C562 C 0.13733 0.53498 0.21471 0.0
C563 C 0.14826 0.51961 0.24127 0.0
C564 C 0.15391 0.53475 0.18785 0.0
C565 C 0.18196 0.51932 0.18688 0.0
C566 C 0.19346 0.50475 0.21374 0.0
C567 C 0.17678 0.5049 0.24065 0.0
H568 H 0.85713 0.956 0.52334 0.0
H569 H 0.80371 0.86442 0.51275 0.0
H570 H 0.90752 0.93243 0.51937 0.0
H571 H 0.85383 0.84082 0.50974 0.0
H572 H 0.94195 0.81092 0.46987 0.0
H573 H 0.89422 0.83825 0.47376 0.0
H574 H 0.94435 0.89859 0.54358 0.0
H575 H 0.99263 0.87173 0.53892 0.0
C576 C 0.85617 0.93079 0.52071 0.0
C577 C 0.82638 0.91211 0.51814 0.0
C578 C 0.88507 0.91726 0.51844 0.0
C579 C 0.88478 0.88476 0.5137 0.0
C580 C 0.85499 0.86603 0.5125 0.0
C581 C 0.8262 0.87953 0.51454 0.0
C582 C 0.94295 0.83026 0.4858 0.0
C583 C 0.97103 0.839 0.50422 0.0
C584 C 0.91544 0.84576 0.48827 0.0
C585 C 0.91514 0.87024 0.50946 0.0
C586 C 0.9437 0.87991 0.52697 0.0
C587 C 0.9714 0.8645 0.52431 0.0
H588 H 0.95694 0.1722 0.51407 0.0
H589 H 0.88077 0.22552 0.54072 0.0
H590 H 0.91687 0.12818 0.49994 0.0
H591 H 0.84122 0.18164 0.52735 0.0
H592 H 0.7735 0.11288 0.47426 0.0
H593 H 0.81689 0.15495 0.48239 0.0
H594 H 0.87861 0.0885 0.52212 0.0
H595 H 0.83546 0.04616 0.5132 0.0
C596 C 0.93175 0.17446 0.51717 0.0
C597 C 0.92208 0.20249 0.52836 0.0
C598 C 0.90881 0.14923 0.50909 0.0
C599 C 0.8758 0.15156 0.51209 0.0
C600 C 0.86634 0.17933 0.52396 0.0
C601 C 0.88913 0.20445 0.5319 0.0
C602 C 0.79644 0.10712 0.48435 0.0
C603 C 0.80084 0.07619 0.49339 0.0
C604 C 0.82127 0.13129 0.48921 0.0
C605 C 0.85102 0.12519 0.50346 0.0
C606 C 0.85604 0.094 0.51101 0.0
C607 C 0.83123 0.06973 0.50596 0.0
H608 H 0.12257 0.88301 0.51115 0.0
H609 H 0.20023 0.82545 0.53139 0.0
H610 H 0.16206 0.92846 0.50363 0.0
H611 H 0.23926 0.87062 0.52472 0.0
H612 H 0.30358 0.94713 0.48255 0.0
H613 H 0.26099 0.90398 0.48514 0.0
H614 H 0.2022 0.96422 0.53088 0.0
H615 H 0.24439 0.00769 0.52745 0.0
C616 C 0.14799 0.88009 0.51426 0.0
C617 C 0.15819 0.85052 0.5217 0.0
C618 C 0.17062 0.90614 0.50998 0.0
C619 C 0.20388 0.90313 0.51318 0.0
C620 C 0.21391 0.87368 0.52126 0.0
C621 C 0.19142 0.84775 0.52535 0.0
C622 C 0.28145 0.9513 0.49287 0.0
C623 C 0.27758 0.98084 0.50502 0.0
C624 C 0.25708 0.92648 0.49455 0.0
C625 C 0.22832 0.93046 0.50866 0.0
C626 C 0.22391 0.96034 0.5197 0.0
C627 C 0.24822 0.98525 0.51784 0.0
H628 H 0.10022 0.208 0.49521 0.0
H629 H 0.08349 0.16118 0.582 0.0
H630 H 0.15182 0.18645 0.49395 0.0
H631 H 0.13545 0.14034 0.5811 0.0
H632 H 0.22252 0.08946 0.55678 0.0
H633 H 0.16804 0.10541 0.55633 0.0
H634 H 0.20324 0.19699 0.52204 0.0
H635 H 0.25729 0.18091 0.52185 0.0
C636 C 0.10736 0.19283 0.51385 0.0
C637 C 0.08786 0.18659 0.53884 0.0
C638 C 0.13709 0.18072 0.51328 0.0
C639 C 0.14805 0.16217 0.53773 0.0
C640 C 0.12773 0.15448 0.56188 0.0
C641 C 0.09793 0.16651 0.5624 0.0
C642 C 0.21863 0.11308 0.54942 0.0
C643 C 0.24422 0.13388 0.53925 0.0
C644 C 0.18741 0.12221 0.54913 0.0
C645 C 0.18118 0.15232 0.53871 0.0
C646 C 0.20701 0.17336 0.52945 0.0
C647 C 0.23811 0.16423 0.52966 0.0
loop_
_geom_bond_atom_site_label_1
_geom_bond_atom_site_label_2
_geom_bond_distance
_geom_bond_site_symmetry_2
_ccdc_geom_bond_type
Mg0 O1 2.028 . S
Mg0 O7 1.986 . S
Mg0 O9 2.114 . S
Mg0 O10 2.251 . S
Mg0 O13 2.010 . S
O1 Mg0 2.028 . S
O1 C4 1.250 1_455 S
O2 Mg3 2.028 . S
O2 C4 1.248 . S
Mg3 O2 2.028 . S
Mg3 O8 2.041 . S
Mg3 O10 2.079 1_655 S
C4 O1 1.250 1_655 S
C4 O2 1.248 . S
C5 O6 1.264 . S
C5 O13 1.249 . S
O6 C5 1.264 . S
O7 Mg0 1.986 . S
O7 C11 1.246 . S
O8 Mg3 2.041 . S
O8 C11 1.246 1_655 S
O9 Mg0 2.114 . S
O9 C12 1.252 . S
O10 Mg0 2.251 . S
O10 Mg3 2.079 1_455 S
O10 C12 1.273 . S
C11 O7 1.246 . S
C11 O8 1.246 1_455 S
C12 O9 1.252 . S
C12 O10 1.273 . S
O13 Mg0 2.010 . S
O13 C5 1.249 . S
Mg14 O15 2.028 . S
Mg14 O21 1.986 . S
Mg14 O23 2.114 . S
Mg14 O24 2.251 . S
Mg14 O27 2.010 1_545 S
O15 Mg14 2.028 . S
O15 C18 1.250 . S
O16 Mg17 2.028 . S
O16 C18 1.248 . S
Mg17 O16 2.028 . S
Mg17 O22 2.032 . S
Mg17 O24 2.079 . S
C18 O15 1.250 . S
C18 O16 1.248 . S
C19 O20 1.264 . S
C19 O27 1.249 . S
O20 C19 1.264 . S
O21 Mg14 1.986 . S
O21 C25 1.246 . S
O22 Mg17 2.032 . S
O22 C25 1.259 . S
O23 Mg14 2.114 . S
O23 C26 1.252 . S
O24 Mg14 2.251 . S
O24 Mg17 2.079 . S
O24 C26 1.273 . S
C25 O21 1.246 . S
C25 O22 1.259 . S
C26 O23 1.252 . S
C26 O24 1.273 . S
O27 Mg14 2.010 1_565 S
O27 C19 1.249 . S
Mg28 O29 2.028 . S
Mg28 O35 1.986 . S
Mg28 O37 2.114 . S
Mg28 O38 2.251 . S
Mg28 O41 2.010 1_455 S
O29 Mg28 2.028 . S
O29 C32 1.250 . S
O30 Mg31 2.028 . S
O30 C32 1.248 . S
Mg31 O30 2.028 . S
Mg31 O36 2.032 . S
Mg31 O38 2.079 . S
C32 O29 1.250 . S
C32 O30 1.248 . S
C33 O34 1.264 . S
C33 O41 1.249 . S
O34 C33 1.264 . S
O35 Mg28 1.986 . S
O35 C39 1.246 . S
O36 Mg31 2.032 . S
O36 C39 1.259 . S
O37 Mg28 2.114 . S
O37 C40 1.252 . S
O38 Mg28 2.251 . S
O38 Mg31 2.079 . S
O38 C40 1.273 . S
C39 O35 1.246 . S
C39 O36 1.259 . S
C40 O37 1.252 . S
C40 O38 1.273 . S
O41 Mg28 2.010 1_655 S
O41 C33 1.249 . S
Mg42 O43 2.026 1_545 S
Mg42 O49 1.986 . S
Mg42 O51 2.114 . S
Mg42 O52 2.251 . S
Mg42 O55 2.010 . S
O43 Mg42 2.026 1_565 S
O43 C46 1.254 . S
O44 Mg45 2.028 . S
O44 C46 1.248 . S
Mg45 O44 2.028 . S
Mg45 O50 2.032 . S
Mg45 O52 2.079 1_565 S
C46 O43 1.254 . S
C46 O44 1.248 . S
C47 O48 1.264 . S
C47 O55 1.249 . S
O48 C47 1.264 . S
O49 Mg42 1.986 . S
O49 C53 1.246 . S
O50 Mg45 2.032 . S
O50 C53 1.259 1_565 S
O51 Mg42 2.114 . S
O51 C54 1.252 . S
O52 Mg42 2.251 . S
O52 Mg45 2.079 1_545 S
O52 C54 1.273 . S
C53 O49 1.246 . S
C53 O50 1.259 1_545 S
C54 O51 1.252 . S
C54 O52 1.273 . S
O55 Mg42 2.010 . S
O55 C47 1.249 . S
Mg56 O57 2.028 . S
Mg56 O63 1.986 . S
Mg56 O65 2.114 1_545 S
Mg56 O66 2.251 1_545 S
Mg56 O69 2.010 . S
O57 Mg56 2.028 . S
O57 C60 1.250 . S
O58 Mg59 2.028 . S
O58 C60 1.248 . S
Mg59 O58 2.028 . S
Mg59 O64 2.032 . S
Mg59 O66 2.079 1_545 S
C60 O57 1.250 . S
C60 O58 1.248 . S
C61 O62 1.264 . S
C61 O69 1.249 . S
O62 C61 1.264 . S
O63 Mg56 1.986 . S
O63 C67 1.246 . S
O64 Mg59 2.032 . S
O64 C67 1.259 . S
O65 Mg56 2.114 1_565 S
O65 C68 1.252 . S
O66 Mg56 2.251 1_565 S
O66 Mg59 2.079 1_565 S
O66 C68 1.273 . S
C67 O63 1.246 . S
C67 O64 1.259 . S
C68 O65 1.252 . S
C68 O66 1.273 . S
O69 Mg56 2.010 . S
O69 C61 1.249 . S
Mg70 O71 2.028 . S
Mg70 O77 1.986 . S
Mg70 O79 2.114 . S
Mg70 O80 2.251 . S
Mg70 O83 2.010 . S
O71 Mg70 2.028 . S
O71 C74 1.250 1_455 S
O72 Mg73 2.028 . S
O72 C74 1.248 . S
Mg73 O72 2.028 . S
Mg73 O78 2.032 1_655 S
Mg73 O80 2.079 1_655 S
C74 O71 1.250 1_655 S
C74 O72 1.248 . S
C75 O76 1.264 . S
C75 O83 1.249 . S
O76 C75 1.264 . S
O77 Mg70 1.986 . S
O77 C81 1.246 . S
O78 Mg73 2.032 1_455 S
O78 C81 1.259 . S
O79 Mg70 2.114 . S
O79 C82 1.252 . S
O80 Mg70 2.251 . S
O80 Mg73 2.079 1_455 S
O80 C82 1.273 . S
C81 O77 1.246 . S
C81 O78 1.259 . S
C82 O79 1.252 . S
C82 O80 1.273 . S
O83 Mg70 2.010 . S
O83 C75 1.249 . S
Mg84 O85 2.028 . S
Mg84 O91 1.986 . S
Mg84 O93 2.114 1_545 S
Mg84 O94 2.251 1_545 S
Mg84 O97 2.010 . S
O85 Mg84 2.028 . S
O85 C88 1.250 . S
O86 Mg87 2.028 . S
O86 C88 1.248 . S
Mg87 O86 2.028 . S
Mg87 O92 2.032 . S
Mg87 O94 2.079 1_545 S
C88 O85 1.250 . S
C88 O86 1.248 . S
C89 O90 1.264 . S
C89 O97 1.249 . S
O90 C89 1.264 . S
O91 Mg84 1.986 . S
O91 C95 1.246 . S
O92 Mg87 2.032 . S
O92 C95 1.259 . S
O93 Mg84 2.114 1_565 S
O93 C96 1.252 . S
O94 Mg84 2.251 1_565 S
O94 Mg87 2.079 1_565 S
O94 C96 1.273 . S
C95 O91 1.246 . S
C95 O92 1.259 . S
C96 O93 1.252 . S
C96 O94 1.273 . S
O97 Mg84 2.010 . S
O97 C89 1.249 . S
Mg98 O99 2.028 . S
Mg98 O105 1.986 . S
Mg98 O107 2.114 . S
Mg98 O108 2.251 . S
Mg98 O111 2.010 1_455 S
O99 Mg98 2.028 . S
O99 C102 1.250 . S
O100 Mg101 2.028 . S
O100 C102 1.248 . S
Mg101 O100 2.028 . S
Mg101 O106 2.032 . S
Mg101 O108 2.079 . S
C102 O99 1.250 . S
C102 O100 1.248 . S
C103 O104 1.264 . S
C103 O111 1.249 . S
O104 C103 1.264 . S
O105 Mg98 1.986 . S
O105 C109 1.246 . S
O106 Mg101 2.032 . S
O106 C109 1.259 . S
O107 Mg98 2.114 . S
O107 C110 1.252 . S
O108 Mg98 2.251 . S
O108 Mg101 2.079 . S
O108 C110 1.273 . S
C109 O105 1.246 . S
C109 O106 1.259 . S
C110 O107 1.252 . S
C110 O108 1.273 . S
O111 Mg98 2.010 1_655 S
O111 C103 1.249 . S
Mg112 O113 2.028 . S
Mg112 O119 1.986 . S
Mg112 O121 2.114 1_554 S
Mg112 O122 2.251 1_554 S
Mg112 O125 2.010 . S
O113 Mg112 2.028 . S
O113 C116 1.250 . S
O114 Mg115 2.028 . S
O114 C116 1.248 . S
Mg115 O114 2.028 . S
Mg115 O120 2.032 . S
Mg115 O122 2.079 1_554 S
C116 O113 1.250 . S
C116 O114 1.248 . S
C117 O118 1.264 . S
C117 O125 1.249 . S
O118 C117 1.264 . S
O119 Mg112 1.986 . S
O119 C123 1.246 . S
O120 Mg115 2.032 . S
O120 C123 1.259 . S
O121 Mg112 2.114 1_556 S
O121 C124 1.252 . S
O122 Mg112 2.251 1_556 S
O122 Mg115 2.079 1_556 S
O122 C124 1.273 . S
C123 O119 1.246 . S
C123 O120 1.259 . S
C124 O121 1.252 . S
C124 O122 1.273 . S
O125 Mg112 2.010 . S
O125 C117 1.249 . S
Mg126 O127 2.028 . S
Mg126 O133 1.986 1_554 S
Mg126 O135 2.114 . S
Mg126 O136 2.251 . S
Mg126 O139 2.010 . S
O127 Mg126 2.028 . S
O127 C130 1.250 . S
O128 Mg129 2.028 . S
O128 C130 1.248 . S
Mg129 O128 2.028 . S
Mg129 O134 2.032 1_554 S
Mg129 O136 2.079 . S
C130 O127 1.250 . S
C130 O128 1.248 . S
C131 O132 1.264 . S
C131 O139 1.249 . S
O132 C131 1.264 . S
O133 Mg126 1.986 1_556 S
O133 C137 1.246 . S
O134 Mg129 2.032 1_556 S
O134 C137 1.259 . S
O135 Mg126 2.114 . S
O135 C138 1.252 . S
O136 Mg126 2.251 . S
O136 Mg129 2.079 . S
O136 C138 1.273 . S
C137 O133 1.246 . S
C137 O134 1.259 . S
C138 O135 1.252 . S
C138 O136 1.273 . S
O139 Mg126 2.010 . S
O139 C131 1.249 . S
Mg140 O141 2.028 . S
Mg140 O147 1.986 . S
Mg140 O149 2.114 1_554 S
Mg140 O150 2.251 . S
Mg140 O153 2.010 . S
O141 Mg140 2.028 . S
O141 C144 1.250 . S
O142 Mg143 2.028 . S
O142 C144 1.248 . S
Mg143 O142 2.028 . S
Mg143 O148 2.032 . S
Mg143 O150 2.079 . S
C144 O141 1.250 . S
C144 O142 1.248 . S
C145 O146 1.264 . S
C145 O153 1.249 . S
O146 C145 1.264 . S
O147 Mg140 1.986 . S
O147 C151 1.246 . S
O148 Mg143 2.032 . S
O148 C151 1.259 . S
O149 Mg140 2.114 1_556 S
O149 C152 1.252 . S
O150 Mg140 2.251 . S
O150 Mg143 2.079 . S
O150 C152 1.273 1_554 S
C151 O147 1.246 . S
C151 O148 1.259 . S
C152 O149 1.252 . S
C152 O150 1.273 1_556 S
O153 Mg140 2.010 . S
O153 C145 1.249 . S
Mg154 O155 2.028 . S
Mg154 O161 1.986 1_554 S
Mg154 O163 2.114 . S
Mg154 O164 2.251 . S
Mg154 O167 2.010 . S
O155 Mg154 2.028 . S
O155 C158 1.250 . S
O156 Mg157 2.028 . S
O156 C158 1.248 . S
Mg157 O156 2.028 . S
Mg157 O162 2.032 1_554 S
Mg157 O164 2.079 . S
C158 O155 1.250 . S
C158 O156 1.248 . S
C159 O160 1.264 . S
C159 O167 1.249 . S
O160 C159 1.264 . S
O161 Mg154 1.986 1_556 S
O161 C165 1.246 . S
O162 Mg157 2.032 1_556 S
O162 C165 1.259 . S
O163 Mg154 2.114 . S
O163 C166 1.252 . S
O164 Mg154 2.251 . S
O164 Mg157 2.079 . S
O164 C166 1.273 . S
C165 O161 1.246 . S
C165 O162 1.259 . S
C166 O163 1.252 . S
C166 O164 1.273 . S
O167 Mg154 2.010 . S
O167 C159 1.249 . S
H168 C176 0.950 1_655 S
H169 C181 0.950 . S
H170 C178 0.950 1_655 S
H171 C180 0.950 . S
H172 C182 0.950 . S
H173 C184 0.950 . S
H174 C186 0.950 1_655 S
H175 C187 0.950 1_655 S
C176 H168 0.950 1_455 S
C176 C177 1.386 . S
C176 C178 1.391 . S
C177 C176 1.386 . S
C177 C181 1.393 . S
C178 H170 0.950 1_455 S
C178 C176 1.391 . S
C178 C179 1.400 . S
C179 C178 1.400 . S
C179 C180 1.398 . S
C179 C185 1.491 . S
C180 H171 0.950 . S
C180 C179 1.398 . S
C180 C181 1.391 . S
C181 H169 0.950 . S
C181 C177 1.393 . S
C181 C180 1.391 . S
C182 H172 0.950 . S
C182 C183 1.386 . S
C182 C184 1.391 . S
C183 C182 1.386 . S
C183 C187 1.393 . S
C184 H173 0.950 . S
C184 C182 1.391 . S
C184 C185 1.400 . S
C185 C179 1.491 . S
C185 C184 1.400 . S
C185 C186 1.398 . S
C186 H174 0.950 1_455 S
C186 C185 1.398 . S
C186 C187 1.391 . S
C187 H175 0.950 1_455 S
C187 C183 1.393 . S
C187 C186 1.391 . S
H188 C196 0.950 . S
H189 C201 0.950 1_565 S
H190 C198 0.950 . S
H191 C200 0.950 1_565 S
H192 C202 0.950 . S
H193 C204 0.950 . S
H194 C206 0.950 . S
H195 C207 0.950 . S
C196 H188 0.950 . S
C196 C197 1.386 . S
C196 C198 1.391 . S
C197 C196 1.386 . S
C197 C201 1.393 . S
C198 H190 0.950 . S
C198 C196 1.391 . S
C198 C199 1.400 . S
C199 C198 1.400 . S
C199 C200 1.398 . S
C199 C205 1.491 . S
C200 H191 0.950 1_545 S
C200 C199 1.398 . S
C200 C201 1.391 . S
C201 H189 0.950 1_545 S
C201 C197 1.393 . S
C201 C200 1.391 . S
C202 H192 0.950 . S
C202 C203 1.386 1_565 S
C202 C204 1.391 . S
C203 C202 1.386 1_545 S
C203 C207 1.393 . S
C204 H193 0.950 . S
C204 C202 1.391 . S
C204 C205 1.400 1_565 S
C205 C199 1.491 . S
C205 C204 1.400 1_545 S
C205 C206 1.398 . S
C206 H194 0.950 . S
C206 C205 1.398 . S
C206 C207 1.391 . S
C207 H195 0.950 . S
C207 C203 1.393 . S
C207 C206 1.391 . S
H208 C216 0.962 . S
H209 C221 0.950 . S
H210 C218 0.917 1_655 S
H211 C220 0.950 . S
H212 C222 0.950 . S
H213 C224 0.950 . S
H214 C226 0.950 1_655 S
H215 C227 0.950 1_655 S
C216 H208 0.962 . S
C216 C217 1.386 . S
C216 C218 1.391 . S
C217 C216 1.386 . S
C217 C221 1.393 . S
C218 H210 0.917 1_455 S
C218 C216 1.391 . S
C218 C219 1.400 . S
C219 C218 1.400 . S
C219 C220 1.398 . S
C219 C225 1.491 . S
C220 H211 0.950 . S
C220 C219 1.398 . S
C220 C221 1.391 . S
C221 H209 0.950 . S
C221 C217 1.393 . S
C221 C220 1.391 . S
C222 H212 0.950 . S
C222 C223 1.386 . S
C222 C224 1.391 . S
C223 C222 1.386 . S
C223 C227 1.393 . S
C224 H213 0.950 . S
C224 C222 1.391 . S
C224 C225 1.400 . S
C225 C219 1.491 . S
C225 C224 1.400 . S
C225 C226 1.398 . S
C226 H214 0.950 1_455 S
C226 C225 1.398 . S
C226 C227 1.391 . S
C227 H215 0.950 1_455 S
C227 C223 1.393 . S
C227 C226 1.391 . S
H228 C236 0.950 . S
H229 C241 0.950 . S
H230 C238 0.950 . S
H231 C240 0.950 . S
H232 C242 0.950 . S
H233 C244 0.950 . S
H234 C246 0.950 . S
H235 C247 0.950 . S
C236 H228 0.950 . S
C236 C237 1.386 . S
C236 C238 1.391 . S
C237 C236 1.386 . S
C237 C241 1.393 . S
C238 H230 0.950 . S
C238 C236 1.391 . S
C238 C239 1.400 . S
C239 C238 1.400 . S
C239 C240 1.398 . S
C239 C245 1.491 . S
C240 H231 0.950 . S
C240 C239 1.398 . S
C240 C241 1.391 . S
C241 H229 0.950 . S
C241 C237 1.393 . S
C241 C240 1.391 . S
C242 H232 0.950 . S
C242 C243 1.386 . S
C242 C244 1.391 . S
C243 C242 1.386 . S
C243 C247 1.393 . S
C244 H233 0.950 . S
C244 C242 1.391 . S
C244 C245 1.400 . S
C245 C239 1.491 . S
C245 C244 1.400 . S
C245 C246 1.398 . S
C246 H234 0.950 . S
C246 C245 1.398 . S
C246 C247 1.391 . S
C247 H235 0.950 . S
C247 C243 1.393 . S
C247 C246 1.391 . S
H248 C256 0.950 1_655 S
H249 C261 0.950 . S
H250 C258 0.950 1_655 S
H251 C260 0.950 . S
H252 C262 0.950 . S
H253 C264 0.950 . S
H254 C266 0.950 1_655 S
H255 C267 0.950 1_655 S
C256 H248 0.950 1_455 S
C256 C257 1.386 . S
C256 C258 1.391 . S
C257 C256 1.386 . S
C257 C261 1.393 . S
C258 H250 0.950 1_455 S
C258 C256 1.391 . S
C258 C259 1.400 . S
C259 C258 1.400 . S
C259 C260 1.398 . S
C259 C265 1.491 . S
C260 H251 0.950 . S
C260 C259 1.398 . S
C260 C261 1.391 . S
C261 H249 0.950 . S
C261 C257 1.393 . S
C261 C260 1.391 . S
C262 H252 0.950 . S
C262 C263 1.386 . S
C262 C264 1.391 . S
C263 C262 1.386 . S
C263 C267 1.393 . S
C264 H253 0.950 . S
C264 C262 1.391 . S
C264 C265 1.400 . S
C265 C259 1.491 . S
C265 C264 1.400 . S
C265 C266 1.398 . S
C266 H254 0.950 1_455 S
C266 C265 1.398 . S
C266 C267 1.391 . S
C267 H255 0.950 1_455 S
C267 C263 1.393 . S
C267 C266 1.391 . S
H268 C276 0.950 . S
H269 C281 0.947 . S
H270 C278 0.950 . S
H271 C280 0.957 . S
H272 C282 0.950 . S
H273 C284 0.950 . S
H274 C286 0.950 . S
H275 C287 0.950 . S
C276 H268 0.950 . S
C276 C277 1.386 . S
C276 C278 1.391 . S
C277 C276 1.386 . S
C277 C281 1.395 1_545 S
C278 H270 0.950 . S
C278 C276 1.391 . S
C278 C279 1.400 . S
C279 C278 1.400 . S
C279 C280 1.390 1_545 S
C279 C285 1.491 . S
C280 H271 0.957 . S
C280 C279 1.390 1_565 S
C280 C281 1.392 . S
C281 H269 0.947 . S
C281 C277 1.395 1_565 S
C281 C280 1.392 . S
C282 H272 0.950 . S
C282 C283 1.386 1_565 S
C282 C284 1.391 . S
C283 C282 1.386 1_545 S
C283 C287 1.393 . S
C284 H273 0.950 . S
C284 C282 1.391 . S
C284 C285 1.400 1_565 S
C285 C279 1.491 . S
C285 C284 1.400 1_545 S
C285 C286 1.398 . S
C286 H274 0.950 . S
C286 C285 1.398 . S
C286 C287 1.391 . S
C287 H275 0.950 . S
C287 C283 1.393 . S
C287 C286 1.391 . S
H288 C296 0.950 . S
H289 C301 0.950 . S
H290 C298 0.950 . S
H291 C300 0.950 . S
H292 C302 0.950 . S
H293 C304 0.950 . S
H294 C306 0.950 . S
H295 C307 0.950 . S
C296 H288 0.950 . S
C296 C297 1.386 . S
C296 C298 1.391 . S
C297 C296 1.386 . S
C297 C301 1.393 1_455 S
C298 H290 0.950 . S
C298 C296 1.391 . S
C298 C299 1.400 . S
C299 C298 1.400 . S
C299 C300 1.398 1_455 S
C299 C305 1.491 . S
C300 H291 0.950 . S
C300 C299 1.398 1_655 S
C300 C301 1.391 . S
C301 H289 0.950 . S
C301 C297 1.393 1_655 S
C301 C300 1.391 . S
C302 H292 0.950 . S
C302 C303 1.386 1_655 S
C302 C304 1.391 . S
C303 C302 1.386 1_455 S
C303 C307 1.393 . S
C304 H293 0.950 . S
C304 C302 1.391 . S
C304 C305 1.400 1_655 S
C305 C299 1.491 . S
C305 C304 1.400 1_455 S
C305 C306 1.398 . S
C306 H294 0.950 . S
C306 C305 1.398 . S
C306 C307 1.391 . S
C307 H295 0.950 . S
C307 C303 1.393 . S
C307 C306 1.391 . S
H308 C316 0.950 . S
H309 C321 0.950 1_565 S
H310 C318 0.950 . S
H311 C320 0.950 1_565 S
H312 C322 0.950 1_565 S
H313 C324 0.950 1_565 S
H314 C326 0.950 . S
H315 C327 0.950 . S
C316 H308 0.950 . S
C316 C317 1.386 . S
C316 C318 1.391 . S
C317 C316 1.386 . S
C317 C321 1.393 . S
C318 H310 0.950 . S
C318 C316 1.391 . S
C318 C319 1.400 . S
C319 C318 1.400 . S
C319 C320 1.398 . S
C319 C325 1.491 . S
C320 H311 0.950 1_545 S
C320 C319 1.398 . S
C320 C321 1.391 . S
C321 H309 0.950 1_545 S
C321 C317 1.393 . S
C321 C320 1.391 . S
C322 H312 0.950 1_545 S
C322 C323 1.386 . S
C322 C324 1.391 . S
C323 C322 1.386 . S
C323 C327 1.393 . S
C324 H313 0.950 1_545 S
C324 C322 1.391 . S
C324 C325 1.400 . S
C325 C319 1.491 . S
C325 C324 1.400 . S
C325 C326 1.398 . S
C326 H314 0.950 . S
C326 C325 1.398 . S
C326 C327 1.391 . S
C327 H315 0.950 . S
C327 C323 1.393 . S
C327 C326 1.391 . S
H328 C336 0.950 . S
H329 C341 0.950 1_556 S
H330 C338 0.950 . S
H331 C340 0.950 1_556 S
H332 C342 0.957 . S
H333 C344 0.950 1_556 S
H334 C346 0.950 . S
H335 C347 0.950 . S
C336 H328 0.950 . S
C336 C337 1.386 . S
C336 C338 1.391 . S
C337 C336 1.386 . S
C337 C341 1.393 . S
C338 H330 0.950 . S
C338 C336 1.391 . S
C338 C339 1.400 . S
C339 C338 1.400 . S
C339 C340 1.398 . S
C339 C345 1.491 . S
C340 H331 0.950 1_554 S
C340 C339 1.398 . S
C340 C341 1.391 . S
C341 H329 0.950 1_554 S
C341 C337 1.393 . S
C341 C340 1.391 . S
C342 H332 0.957 . S
C342 C343 1.379 1_556 S
C342 C344 1.391 1_556 S
C343 C342 1.379 1_554 S
C343 C347 1.393 . S
C344 H333 0.950 1_554 S
C344 C342 1.391 1_554 S
C344 C345 1.400 . S
C345 C339 1.491 . S
C345 C344 1.400 . S
C345 C346 1.398 . S
C346 H334 0.950 . S
C346 C345 1.398 . S
C346 C347 1.391 . S
C347 H335 0.950 . S
C347 C343 1.393 . S
C347 C346 1.391 . S
H348 C356 0.950 1_556 S
H349 C361 0.950 . S
H350 C358 0.950 1_556 S
H351 C360 0.950 . S
H352 C362 0.950 . S
H353 C364 0.950 . S
H354 C366 0.950 . S
H355 C367 0.950 . S
C356 H348 0.950 1_554 S
C356 C357 1.386 . S
C356 C358 1.391 . S
C357 C356 1.386 . S
C357 C361 1.393 . S
C358 H350 0.950 1_554 S
C358 C356 1.391 . S
C358 C359 1.400 . S
C359 C358 1.400 . S
C359 C360 1.398 . S
C359 C365 1.491 . S
C360 H351 0.950 . S
C360 C359 1.398 . S
C360 C361 1.391 . S
C361 H349 0.950 . S
C361 C357 1.393 . S
C361 C360 1.391 . S
C362 H352 0.950 . S
C362 C363 1.386 . S
C362 C364 1.391 . S
C363 C362 1.386 . S
C363 C367 1.393 . S
C364 H353 0.950 . S
C364 C362 1.391 . S
C364 C365 1.400 . S
C365 C359 1.491 . S
C365 C364 1.400 . S
C365 C366 1.398 . S
C366 H354 0.950 . S
C366 C365 1.398 . S
C366 C367 1.391 . S
C367 H355 0.950 . S
C367 C363 1.393 . S
C367 C366 1.391 . S
H368 C376 0.950 . S
H369 C381 0.950 . S
H370 C378 0.950 . S
H371 C380 0.950 . S
H372 C382 0.950 . S
H373 C384 0.950 . S
H374 C386 0.950 . S
H375 C387 0.950 . S
C376 H368 0.950 . S
C376 C377 1.386 . S
C376 C378 1.391 . S
C377 C376 1.386 . S
C377 C381 1.393 . S
C378 H370 0.950 . S
C378 C376 1.391 . S
C378 C379 1.400 . S
C379 C378 1.400 . S
C379 C380 1.398 . S
C379 C385 1.491 . S
C380 H371 0.950 . S
C380 C379 1.398 . S
C380 C381 1.391 . S
C381 H369 0.950 . S
C381 C377 1.393 . S
C381 C380 1.391 . S
C382 H372 0.950 . S
C382 C383 1.386 . S
C382 C384 1.391 . S
C383 C382 1.386 . S
C383 C387 1.393 . S
C384 H373 0.950 . S
C384 C382 1.391 . S
C384 C385 1.400 . S
C385 C379 1.491 . S
C385 C384 1.400 . S
C385 C386 1.398 . S
C386 H374 0.950 . S
C386 C385 1.398 . S
C386 C387 1.391 . S
C387 H375 0.950 . S
C387 C383 1.393 . S
C387 C386 1.391 . S
H388 C396 0.950 . S
H389 C401 0.950 . S
H390 C398 0.950 . S
H391 C400 0.950 . S
H392 C402 0.950 . S
H393 C404 0.950 . S
H394 C406 0.950 . S
H395 C407 0.950 . S
C396 H388 0.950 . S
C396 C397 1.386 . S
C396 C398 1.391 . S
C397 C396 1.386 . S
C397 C401 1.393 . S
C398 H390 0.950 . S
C398 C396 1.391 . S
C398 C399 1.400 . S
C399 C398 1.400 . S
C399 C400 1.398 . S
C399 C405 1.491 . S
C400 H391 0.950 . S
C400 C399 1.398 . S
C400 C401 1.391 . S
C401 H389 0.950 . S
C401 C397 1.393 . S
C401 C400 1.391 . S
C402 H392 0.950 . S
C402 C403 1.386 . S
C402 C404 1.391 . S
C403 C402 1.386 . S
C403 C407 1.393 . S
C404 H393 0.950 . S
C404 C402 1.391 . S
C404 C405 1.400 . S
C405 C399 1.491 . S
C405 C404 1.400 . S
C405 C406 1.398 . S
C406 H394 0.950 . S
C406 C405 1.398 . S
C406 C407 1.391 . S
C407 H395 0.950 . S
C407 C403 1.393 . S
C407 C406 1.391 . S
H408 C416 0.950 . S
H409 C421 0.950 . S
H410 C418 0.950 . S
H411 C420 0.950 . S
H412 C422 0.950 . S
H413 C424 0.950 . S
H414 C426 0.950 . S
H415 C427 0.950 . S
C416 H408 0.950 . S
C416 C417 1.386 . S
C416 C418 1.391 . S
C417 C416 1.386 . S
C417 C421 1.393 . S
C418 H410 0.950 . S
C418 C416 1.391 . S
C418 C419 1.400 . S
C419 C418 1.400 . S
C419 C420 1.398 . S
C419 C425 1.491 . S
C420 H411 0.950 . S
C420 C419 1.398 . S
C420 C421 1.391 . S
C421 H409 0.950 . S
C421 C417 1.393 . S
C421 C420 1.391 . S
C422 H412 0.950 . S
C422 C423 1.386 . S
C422 C424 1.391 . S
C423 C422 1.386 . S
C423 C427 1.393 . S
C424 H413 0.950 . S
C424 C422 1.391 . S
C424 C425 1.400 . S
C425 C419 1.491 . S
C425 C424 1.400 . S
C425 C426 1.398 . S
C426 H414 0.950 . S
C426 C425 1.398 . S
C426 C427 1.391 . S
C427 H415 0.950 . S
C427 C423 1.393 . S
C427 C426 1.391 . S
H428 C436 0.950 . S
H429 C441 0.950 . S
H430 C438 0.950 . S
H431 C440 0.950 . S
H432 C442 0.950 . S
H433 C444 0.950 . S
H434 C446 0.950 . S
H435 C447 0.950 . S
C436 H428 0.950 . S
C436 C437 1.386 . S
C436 C438 1.391 . S
C437 C436 1.386 . S
C437 C441 1.393 . S
C438 H430 0.950 . S
C438 C436 1.391 . S
C438 C439 1.400 . S
C439 C438 1.400 . S
C439 C440 1.398 . S
C439 C445 1.491 . S
C440 H431 0.950 . S
C440 C439 1.398 . S
C440 C441 1.391 . S
C441 H429 0.950 . S
C441 C437 1.393 . S
C441 C440 1.391 . S
C442 H432 0.950 . S
C442 C443 1.386 . S
C442 C444 1.391 . S
C443 C442 1.386 . S
C443 C447 1.393 . S
C444 H433 0.950 . S
C444 C442 1.391 . S
C444 C445 1.400 . S
C445 C439 1.491 . S
C445 C444 1.400 . S
C445 C446 1.398 . S
C446 H434 0.950 . S
C446 C445 1.398 . S
C446 C447 1.391 . S
C447 H435 0.950 . S
C447 C443 1.393 . S
C447 C446 1.391 . S
H448 C456 0.950 . S
H449 C461 0.950 . S
H450 C458 0.950 . S
H451 C460 0.950 . S
H452 C462 0.950 . S
H453 C464 0.950 . S
H454 C466 0.950 . S
H455 C467 0.950 . S
C456 H448 0.950 . S
C456 C457 1.386 . S
C456 C458 1.391 . S
C457 C456 1.386 . S
C457 C461 1.393 . S
C458 H450 0.950 . S
C458 C456 1.391 . S
C458 C459 1.400 . S
C459 C458 1.400 . S
C459 C460 1.398 . S
C459 C465 1.491 . S
C460 H451 0.950 . S
C460 C459 1.398 . S
C460 C461 1.391 . S
C461 H449 0.950 . S
C461 C457 1.393 . S
C461 C460 1.391 . S
C462 H452 0.950 . S
C462 C463 1.386 . S
C462 C464 1.391 . S
C463 C462 1.386 . S
C463 C467 1.393 . S
C464 H453 0.950 . S
C464 C462 1.391 . S
C464 C465 1.400 . S
C465 C459 1.491 . S
C465 C464 1.400 . S
C465 C466 1.398 . S
C466 H454 0.950 . S
C466 C465 1.398 . S
C466 C467 1.391 . S
C467 H455 0.950 . S
C467 C463 1.393 . S
C467 C466 1.391 . S
H468 C476 0.950 . S
H469 C481 0.950 . S
H470 C478 0.950 . S
H471 C480 0.950 . S
H472 C482 0.950 . S
H473 C484 0.950 . S
H474 C486 0.950 . S
H475 C487 0.950 . S
C476 H468 0.950 . S
C476 C477 1.386 . S
C476 C478 1.391 . S
C477 C476 1.386 . S
C477 C481 1.393 . S
C478 H470 0.950 . S
C478 C476 1.391 . S
C478 C479 1.400 . S
C479 C478 1.400 . S
C479 C480 1.398 . S
C479 C485 1.491 . S
C480 H471 0.950 . S
C480 C479 1.398 . S
C480 C481 1.391 . S
C481 H469 0.950 . S
C481 C477 1.393 . S
C481 C480 1.391 . S
C482 H472 0.950 . S
C482 C483 1.386 . S
C482 C484 1.391 . S
C483 C482 1.386 . S
C483 C487 1.393 . S
C484 H473 0.950 . S
C484 C482 1.391 . S
C484 C485 1.400 . S
C485 C479 1.491 . S
C485 C484 1.400 . S
C485 C486 1.398 . S
C486 H474 0.950 . S
C486 C485 1.398 . S
C486 C487 1.391 . S
C487 H475 0.950 . S
C487 C483 1.393 . S
C487 C486 1.391 . S
H488 C496 0.950 . S
H489 C501 0.950 . S
H490 C498 0.950 . S
H491 C500 0.950 . S
H492 C502 0.950 . S
H493 C504 0.950 . S
H494 C506 0.950 . S
H495 C507 0.950 . S
C496 H488 0.950 . S
C496 C497 1.386 . S
C496 C498 1.391 . S
C497 C496 1.386 . S
C497 C501 1.393 . S
C498 H490 0.950 . S
C498 C496 1.391 . S
C498 C499 1.400 . S
C499 C498 1.400 . S
C499 C500 1.398 . S
C499 C505 1.491 . S
C500 H491 0.950 . S
C500 C499 1.398 . S
C500 C501 1.391 . S
C501 H489 0.950 . S
C501 C497 1.393 . S
C501 C500 1.391 . S
C502 H492 0.950 . S
C502 C503 1.386 . S
C502 C504 1.391 . S
C503 C502 1.386 . S
C503 C507 1.393 . S
C504 H493 0.950 . S
C504 C502 1.391 . S
C504 C505 1.400 . S
C505 C499 1.491 . S
C505 C504 1.400 . S
C505 C506 1.398 . S
C506 H494 0.950 . S
C506 C505 1.398 . S
C506 C507 1.391 . S
C507 H495 0.950 . S
C507 C503 1.393 . S
C507 C506 1.391 . S
H508 C516 0.950 1_455 S
H509 C521 0.950 . S
H510 C518 0.950 . S
H511 C520 0.950 . S
H512 C522 0.950 . S
H513 C524 0.950 . S
H514 C526 0.950 . S
H515 C527 0.950 . S
C516 H508 0.950 1_655 S
C516 C517 1.386 . S
C516 C518 1.391 . S
C517 C516 1.386 . S
C517 C521 1.393 . S
C518 H510 0.950 . S
C518 C516 1.391 . S
C518 C519 1.400 . S
C519 C518 1.400 . S
C519 C520 1.398 . S
C519 C525 1.491 . S
C520 H511 0.950 . S
C520 C519 1.398 . S
C520 C521 1.391 . S
C521 H509 0.950 . S
C521 C517 1.393 . S
C521 C520 1.391 . S
C522 H512 0.950 . S
C522 C523 1.386 . S
C522 C524 1.391 . S
C523 C522 1.386 . S
C523 C527 1.393 . S
C524 H513 0.950 . S
C524 C522 1.391 . S
C524 C525 1.400 . S
C525 C519 1.491 . S
C525 C524 1.400 . S
C525 C526 1.398 . S
C526 H514 0.950 . S
C526 C525 1.398 . S
C526 C527 1.391 . S
C527 H515 0.950 . S
C527 C523 1.393 . S
C527 C526 1.391 . S
H528 C536 0.950 . S
H529 C541 0.950 . S
H530 C538 0.950 . S
H531 C540 0.950 . S
H532 C542 0.950 . S
H533 C544 0.950 . S
H534 C546 0.950 . S
H535 C547 0.950 . S
C536 H528 0.950 . S
C536 C537 1.386 . S
C536 C538 1.391 . S
C537 C536 1.386 . S
C537 C541 1.393 . S
C538 H530 0.950 . S
C538 C536 1.391 . S
C538 C539 1.400 . S
C539 C538 1.400 . S
C539 C540 1.398 . S
C539 C545 1.491 . S
C540 H531 0.950 . S
C540 C539 1.398 . S
C540 C541 1.391 . S
C541 H529 0.950 . S
C541 C537 1.393 . S
C541 C540 1.391 . S
C542 H532 0.950 . S
C542 C543 1.386 . S
C542 C544 1.391 . S
C543 C542 1.386 . S
C543 C547 1.393 . S
C544 H533 0.950 . S
C544 C542 1.391 . S
C544 C545 1.400 . S
C545 C539 1.491 . S
C545 C544 1.400 . S
C545 C546 1.398 . S
C546 H534 0.950 . S
C546 C545 1.398 . S
C546 C547 1.391 . S
C547 H535 0.950 . S
C547 C543 1.393 . S
C547 C546 1.391 . S
H548 C556 0.950 . S
H549 C561 0.950 . S
H550 C558 0.950 . S
H551 C560 0.950 . S
H552 C562 0.950 . S
H553 C564 0.950 . S
H554 C566 0.950 . S
H555 C567 0.950 . S
C556 H548 0.950 . S
C556 C557 1.386 . S
C556 C558 1.391 . S
C557 C556 1.386 . S
C557 C561 1.393 . S
C558 H550 0.950 . S
C558 C556 1.391 . S
C558 C559 1.400 . S
C559 C558 1.400 . S
C559 C560 1.398 . S
C559 C565 1.491 . S
C560 H551 0.950 . S
C560 C559 1.398 . S
C560 C561 1.391 . S
C561 H549 0.950 . S
C561 C557 1.393 . S
C561 C560 1.391 . S
C562 H552 0.950 . S
C562 C563 1.386 . S
C562 C564 1.391 . S
C563 C562 1.386 . S
C563 C567 1.393 . S
C564 H553 0.950 . S
C564 C562 1.391 . S
C564 C565 1.400 . S
C565 C559 1.491 . S
C565 C564 1.400 . S
C565 C566 1.398 . S
C566 H554 0.950 . S
C566 C565 1.398 . S
C566 C567 1.391 . S
C567 H555 0.950 . S
C567 C563 1.393 . S
C567 C566 1.391 . S
H568 C576 0.950 . S
H569 C581 0.950 . S
H570 C578 0.950 . S
H571 C580 0.950 . S
H572 C582 0.950 . S
H573 C584 0.950 . S
H574 C586 0.950 . S
H575 C587 0.950 . S
C576 H568 0.950 . S
C576 C577 1.386 . S
C576 C578 1.391 . S
C577 C576 1.386 . S
C577 C581 1.393 . S
C578 H570 0.950 . S
C578 C576 1.391 . S
C578 C579 1.400 . S
C579 C578 1.400 . S
C579 C580 1.398 . S
C579 C585 1.491 . S
C580 H571 0.950 . S
C580 C579 1.398 . S
C580 C581 1.391 . S
C581 H569 0.950 . S
C581 C577 1.393 . S
C581 C580 1.391 . S
C582 H572 0.950 . S
C582 C583 1.386 . S
C582 C584 1.391 . S
C583 C582 1.386 . S
C583 C587 1.393 . S
C584 H573 0.950 . S
C584 C582 1.391 . S
C584 C585 1.400 . S
C585 C579 1.491 . S
C585 C584 1.400 . S
C585 C586 1.398 . S
C586 H574 0.950 . S
C586 C585 1.398 . S
C586 C587 1.391 . S
C587 H575 0.950 . S
C587 C583 1.393 . S
C587 C586 1.391 . S
H588 C596 0.950 . S
H589 C601 0.950 . S
H590 C598 0.950 . S
H591 C600 0.950 . S
H592 C602 0.950 . S
H593 C604 0.950 . S
H594 C606 0.950 . S
H595 C607 0.950 . S
C596 H588 0.950 . S
C596 C597 1.386 . S
C596 C598 1.391 . S
C597 C596 1.386 . S
C597 C601 1.393 . S
C598 H590 0.950 . S
C598 C596 1.391 . S
C598 C599 1.400 . S
C599 C598 1.400 . S
C599 C600 1.398 . S
C599 C605 1.491 . S
C600 H591 0.950 . S
C600 C599 1.398 . S
C600 C601 1.391 . S
C601 H589 0.950 . S
C601 C597 1.393 . S
C601 C600 1.391 . S
C602 H592 0.950 . S
C602 C603 1.386 . S
C602 C604 1.391 . S
C603 C602 1.386 . S
C603 C607 1.393 . S
C604 H593 0.950 . S
C604 C602 1.391 . S
C604 C605 1.400 . S
C605 C599 1.491 . S
C605 C604 1.400 . S
C605 C606 1.398 . S
C606 H594 0.950 . S
C606 C605 1.398 . S
C606 C607 1.391 . S
C607 H595 0.950 . S
C607 C603 1.393 . S
C607 C606 1.391 . S
H608 C616 0.950 . S
H609 C621 0.950 . S
H610 C618 0.950 . S
H611 C620 0.950 . S
H612 C622 0.950 . S
H613 C624 0.950 . S
H614 C626 0.950 . S
H615 C627 0.950 . S
C616 H608 0.950 . S
C616 C617 1.386 . S
C616 C618 1.391 . S
C617 C616 1.386 . S
C617 C621 1.393 . S
C618 H610 0.950 . S
C618 C616 1.391 . S
C618 C619 1.400 . S
C619 C618 1.400 . S
C619 C620 1.398 . S
C619 C625 1.491 . S
C620 H611 0.950 . S
C620 C619 1.398 . S
C620 C621 1.391 . S
C621 H609 0.950 . S
C621 C617 1.393 . S
C621 C620 1.391 . S
C622 H612 0.950 . S
C622 C623 1.386 . S
C622 C624 1.391 . S
C623 C622 1.386 . S
C623 C627 1.393 . S
C624 H613 0.950 . S
C624 C622 1.391 . S
C624 C625 1.400 . S
C625 C619 1.491 . S
C625 C624 1.400 . S
C625 C626 1.398 . S
C626 H614 0.950 . S
C626 C625 1.398 . S
C626 C627 1.391 . S
C627 H615 0.950 . S
C627 C623 1.393 . S
C627 C626 1.391 . S
H628 C636 0.950 . S
H629 C641 0.950 . S
H630 C638 0.950 . S
H631 C640 0.950 . S
H632 C642 0.950 . S
H633 C644 0.950 . S
H634 C646 0.950 . S
H635 C647 0.950 . S
C636 H628 0.950 . S
C636 C637 1.386 . S
C636 C638 1.391 . S
C637 C636 1.386 . S
C637 C641 1.393 . S
C638 H630 0.950 . S
C638 C636 1.391 . S
C638 C639 1.400 . S
C639 C638 1.400 . S
C639 C640 1.398 . S
C639 C645 1.491 . S
C640 H631 0.950 . S
C640 C639 1.398 . S
C640 C641 1.391 . S
C641 H629 0.950 . S
C641 C637 1.393 . S
C641 C640 1.391 . S
C642 H632 0.950 . S
C642 C643 1.386 . S
C642 C644 1.391 . S
C643 C642 1.386 . S
C643 C647 1.393 . S
C644 H633 0.950 . S
C644 C642 1.391 . S
C644 C645 1.400 . S
C645 C639 1.491 . S
C645 C644 1.400 . S
C645 C646 1.398 . S
C646 H634 0.950 . S
C646 C645 1.398 . S
C646 C647 1.391 . S
C647 H635 0.950 . S
C647 C643 1.393 . S
C647 C646 1.391 . S
C177 C11 1.275 . S
C183 C82 1.313 . S
C197 C26 1.313 . S
C203 C60 1.308 . S
C217 C81 1.187 . S
C223 C39 1.211 . S
C237 C54 1.394 . S
C243 C61 1.224 . S
C257 C109 1.324 . S
C263 C40 1.338 . S
C277 C88 1.217 . S
C283 C53 1.198 . S
C297 C12 1.377 . S
C303 C110 1.387 . S
C317 C89 1.128 . S
C323 C25 1.273 . S
C337 C131 1.200 . S
C343 C117 1.168 . S
C357 C116 1.204 . S
C363 C158 1.213 . S
C377 C130 1.165 . S
C383 C144 1.171 . S
C397 C145 1.226 . S
C403 C159 1.210 . S
C417 C165 1.295 . S
C423 C96 1.305 . S
C437 C124 1.303 . S
C443 C102 1.290 . S
C457 C95 1.190 . S
C463 C137 1.190 . S
C477 C103 1.214 . S
C483 C152 1.396 . S
C497 C67 1.305 . S
C503 C138 1.345 . S
C517 C74 1.204 . S
C523 C151 1.194 . S
C537 C166 1.377 . S
C543 C68 1.387 . S
C557 C123 1.286 . S
C563 C75 1.173 . S
C577 C19 1.174 . S
C583 C33 1.195 . S
C597 C4 1.199 . S
C603 C18 1.216 . S
C617 C32 1.160 . S
C623 C46 1.173 . S
C637 C5 1.191 . S
C643 C47 1.241 . S
