# Generated by pormake.
# Topology ukt, (4)-cn, num edge types: 1
# Building blocks:
#     Node 0, Type 0, BuildingBlock: KUFVIS_clean_sbu_0, # of connection points: 4
#     Node 1, Type 0, BuildingBlock: KUFVIS_clean_sbu_0, # of connection points: 4
#     Node 2, Type 0, BuildingBlock: KUFVIS_clean_sbu_0, # of connection points: 4
#     Node 3, Type 0, BuildingBlock: KUFVIS_clean_sbu_0, # of connection points: 4
#     Node 4, Type 0, BuildingBlock: KUFVIS_clean_sbu_0, # of connection points: 4
#     Node 5, Type 0, BuildingBlock: KUFVIS_clean_sbu_0, # of connection points: 4
#     Node 6, Type 0, BuildingBlock: KUFVIS_clean_sbu_0, # of connection points: 4
#     Node 7, Type 0, BuildingBlock: KUFVIS_clean_sbu_0, # of connection points: 4
#     Node 8, Type 0, BuildingBlock: KUFVIS_clean_sbu_0, # of connection points: 4
#     Node 9, Type 0, BuildingBlock: KUFVIS_clean_sbu_0, # of connection points: 4
#     Node 10, Type 0, BuildingBlock: KUFVIS_clean_sbu_0, # of connection points: 4
#     Node 11, Type 0, BuildingBlock: KUFVIS_clean_sbu_0, # of connection points: 4
#     Node 12, Type 0, BuildingBlock: KUFVIS_clean_sbu_0, # of connection points: 4
#     Node 13, Type 0, BuildingBlock: KUFVIS_clean_sbu_0, # of connection points: 4
#     Node 14, Type 0, BuildingBlock: KUFVIS_clean_sbu_0, # of connection points: 4
#     Node 15, Type 0, BuildingBlock: KUFVIS_clean_sbu_0, # of connection points: 4
#     Edge 16, Type (0, 0), BuildingBlock: ZUJKAS_clean_linker_0, # of connection points: 2
#     Edge 17, Type (0, 0), BuildingBlock: ZUJKAS_clean_linker_0, # of connection points: 2
#     Edge 18, Type (0, 0), BuildingBlock: ZUJKAS_clean_linker_0, # of connection points: 2
#     Edge 19, Type (0, 0), BuildingBlock: ZUJKAS_clean_linker_0, # of connection points: 2
#     Edge 20, Type (0, 0), BuildingBlock: ZUJKAS_clean_linker_0, # of connection points: 2
#     Edge 21, Type (0, 0), BuildingBlock: ZUJKAS_clean_linker_0, # of connection points: 2
#     Edge 22, Type (0, 0), BuildingBlock: ZUJKAS_clean_linker_0, # of connection points: 2
#     Edge 23, Type (0, 0), BuildingBlock: ZUJKAS_clean_linker_0, # of connection points: 2
#     Edge 24, Type (0, 0), BuildingBlock: ZUJKAS_clean_linker_0, # of connection points: 2
#     Edge 25, Type (0, 0), BuildingBlock: ZUJKAS_clean_linker_0, # of connection points: 2
#     Edge 26, Type (0, 0), BuildingBlock: ZUJKAS_clean_linker_0, # of connection points: 2
#     Edge 27, Type (0, 0), BuildingBlock: ZUJKAS_clean_linker_0, # of connection points: 2
#     Edge 28, Type (0, 0), BuildingBlock: ZUJKAS_clean_linker_0, # of connection points: 2
#     Edge 29, Type (0, 0), BuildingBlock: ZUJKAS_clean_linker_0, # of connection points: 2
#     Edge 30, Type (0, 0), BuildingBlock: ZUJKAS_clean_linker_0, # of connection points: 2
#     Edge 31, Type (0, 0), BuildingBlock: ZUJKAS_clean_linker_0, # of connection points: 2
#     Edge 32, Type (0, 0), BuildingBlock: ZUJKAS_clean_linker_0, # of connection points: 2
#     Edge 33, Type (0, 0), BuildingBlock: ZUJKAS_clean_linker_0, # of connection points: 2
#     Edge 34, Type (0, 0), BuildingBlock: ZUJKAS_clean_linker_0, # of connection points: 2
#     Edge 35, Type (0, 0), BuildingBlock: ZUJKAS_clean_linker_0, # of connection points: 2
#     Edge 36, Type (0, 0), BuildingBlock: ZUJKAS_clean_linker_0, # of connection points: 2
#     Edge 37, Type (0, 0), BuildingBlock: ZUJKAS_clean_linker_0, # of connection points: 2
#     Edge 38, Type (0, 0), BuildingBlock: ZUJKAS_clean_linker_0, # of connection points: 2
#     Edge 39, Type (0, 0), BuildingBlock: ZUJKAS_clean_linker_0, # of connection points: 2
#     Edge 40, Type (0, 0), BuildingBlock: ZUJKAS_clean_linker_0, # of connection points: 2
#     Edge 41, Type (0, 0), BuildingBlock: ZUJKAS_clean_linker_0, # of connection points: 2
#     Edge 42, Type (0, 0), BuildingBlock: ZUJKAS_clean_linker_0, # of connection points: 2
#     Edge 43, Type (0, 0), BuildingBlock: ZUJKAS_clean_linker_0, # of connection points: 2
#     Edge 44, Type (0, 0), BuildingBlock: ZUJKAS_clean_linker_0, # of connection points: 2
#     Edge 45, Type (0, 0), BuildingBlock: ZUJKAS_clean_linker_0, # of connection points: 2
#     Edge 46, Type (0, 0), BuildingBlock: ZUJKAS_clean_linker_0, # of connection points: 2
#     Edge 47, Type (0, 0), BuildingBlock: ZUJKAS_clean_linker_0, # of connection points: 2
# Relax obj value: 0.285
# Max RMSD: 0.185
# Mean RMSD: 0.185
data_MOF--net-ukt--node1-KUFVIS_clean_sbu_0--edge1-ZUJKAS_clean_linker_0
_symmetry_space_group_name_H-M    P1
_symmetry_Int_Tables_number       1
_symmetry_cell_setting            triclinic
loop_
_symmetry_equiv_pos_as_xyz
'x, y, z'
_cell_length_a     53.788875
_cell_length_b     53.770901
_cell_length_c     45.625031
_cell_angle_alpha  89.994
_cell_angle_beta   90.017298
_cell_angle_gamma 90.008935
loop_
_atom_site_label
_atom_site_type_symbol
_atom_site_fract_x
_atom_site_fract_y
_atom_site_fract_z
_atom_type_partial_charge
Mn0 Mn 0.54446 0.14165 0.09298 0.0
Mn1 Mn 0.59527 0.16675 0.12481 0.0
C2 C 0.58349 0.1308 0.07661 0.0
C3 C 0.51523 0.11006 0.08936 0.0
C4 C 0.56419 0.19373 0.07939 0.0
O5 O 0.53008 0.15681 0.13012 0.0
O6 O 0.56552 0.17135 0.15008 0.0
C7 C 0.59885 0.13168 0.17464 0.0
N8 N 0.60936 0.14272 0.15081 0.0
C9 C 0.64758 0.12027 0.15796 0.0
C10 C 0.63722 0.10879 0.18271 0.0
C11 C 0.61273 0.11448 0.19104 0.0
C12 C 0.63285 0.13726 0.1425 0.0
H13 H 0.57999 0.13593 0.18103 0.0
C14 C 0.54195 0.16787 0.15051 0.0
O15 O 0.51108 0.13186 0.07805 0.0
O16 O 0.53513 0.1076 0.10514 0.0
N17 N 0.62563 0.16389 0.10321 0.0
C18 C 0.63281 0.17649 0.07871 0.0
C19 C 0.65679 0.17279 0.06736 0.0
C20 C 0.67326 0.15649 0.08156 0.0
C21 C 0.66566 0.14418 0.10713 0.0
C22 C 0.64159 0.14873 0.11751 0.0
H23 H 0.62027 0.18913 0.06777 0.0
O24 O 0.56411 0.12738 0.0603 0.0
O25 O 0.57952 0.13981 0.10271 0.0
O26 O 0.54835 0.1764 0.07521 0.0
O27 O 0.58217 0.19214 0.09765 0.0
C28 C 0.68092 0.12737 0.12255 0.0
C29 C 0.67186 0.11535 0.14788 0.0
H30 H 0.64786 0.09548 0.19539 0.0
H31 H 0.60456 0.10561 0.21003 0.0
H32 H 0.66255 0.18244 0.04769 0.0
H33 H 0.69169 0.15359 0.07265 0.0
H34 H 0.69959 0.1234 0.11498 0.0
H35 H 0.68369 0.10231 0.1594 0.0
Mn36 Mn 0.36066 0.54959 0.07862 0.0
Mn37 Mn 0.33889 0.60319 0.1073 0.0
C38 C 0.37523 0.58721 0.06151 0.0
C39 C 0.38995 0.51795 0.07685 0.0
C40 C 0.31098 0.5734 0.06158 0.0
O41 O 0.34369 0.53738 0.11574 0.0
O42 O 0.33041 0.57438 0.13272 0.0
C43 C 0.37163 0.60433 0.15945 0.0
N44 N 0.36274 0.61546 0.13477 0.0
C45 C 0.38748 0.65201 0.14349 0.0
C46 C 0.39678 0.641 0.16911 0.0
C47 C 0.38888 0.61702 0.17706 0.0
C48 C 0.37039 0.63842 0.12677 0.0
H49 H 0.36563 0.5859 0.16562 0.0
C50 C 0.3324 0.55068 0.13466 0.0
O51 O 0.36812 0.5152 0.06503 0.0
O52 O 0.39359 0.53794 0.09215 0.0
N53 N 0.34555 0.63287 0.08552 0.0
C54 C 0.33504 0.64073 0.05996 0.0
C55 C 0.34106 0.66433 0.04887 0.0
C56 C 0.3575 0.67977 0.06438 0.0
C57 C 0.36779 0.67145 0.09087 0.0
C58 C 0.36101 0.64779 0.10091 0.0
H59 H 0.32232 0.62899 0.04799 0.0
O60 O 0.37717 0.56728 0.04581 0.0
O61 O 0.36523 0.58466 0.08734 0.0
O62 O 0.32664 0.55563 0.05962 0.0
O63 O 0.3138 0.59207 0.07861 0.0
C64 C 0.38466 0.68562 0.1076 0.0
C65 C 0.3946 0.67585 0.1338 0.0
H66 H 0.41008 0.65074 0.18277 0.0
H67 H 0.39605 0.60836 0.19674 0.0
H68 H 0.33304 0.67061 0.02842 0.0
H69 H 0.3621 0.69795 0.05572 0.0
H70 H 0.39026 0.70398 0.1004 0.0
H71 H 0.40774 0.68683 0.14632 0.0
Mn72 Mn 0.94662 0.35699 0.09155 0.0
Mn73 Mn 0.90016 0.32725 0.12674 0.0
C74 C 0.90591 0.36323 0.07735 0.0
C75 C 0.97219 0.39144 0.0856 0.0
C76 C 0.93224 0.30286 0.08024 0.0
O77 O 0.96408 0.344 0.12818 0.0
O78 O 0.931 0.32667 0.1506 0.0
C79 C 0.8943 0.36293 0.17565 0.0
N80 N 0.88433 0.35019 0.15269 0.0
C81 C 0.84394 0.3679 0.16143 0.0
C82 C 0.85372 0.38109 0.18531 0.0
C83 C 0.87903 0.37867 0.19237 0.0
C84 C 0.86009 0.35265 0.14546 0.0
H85 H 0.91374 0.36113 0.18112 0.0
C86 C 0.95409 0.33246 0.14961 0.0
O87 O 0.97811 0.36999 0.07447 0.0
O88 O 0.95279 0.39212 0.10244 0.0
N89 N 0.86904 0.3262 0.10651 0.0
C90 C 0.86255 0.31215 0.08285 0.0
C91 C 0.83781 0.31227 0.07306 0.0
C92 C 0.81995 0.32649 0.08796 0.0
C93 C 0.82701 0.34063 0.11242 0.0
C94 C 0.85192 0.33967 0.12125 0.0
H95 H 0.87613 0.3009 0.07155 0.0
O96 O 0.92409 0.36847 0.05985 0.0
O97 O 0.91199 0.35524 0.1033 0.0
O98 O 0.94575 0.32178 0.07462 0.0
O99 O 0.91511 0.30277 0.09968 0.0
C100 C 0.81031 0.35551 0.12849 0.0
C101 C 0.81881 0.36931 0.15282 0.0
H102 H 0.84199 0.39319 0.19832 0.0
H103 H 0.88674 0.38886 0.2107 0.0
H104 H 0.83249 0.30127 0.05422 0.0
H105 H 0.80083 0.32627 0.08052 0.0
H106 H 0.79091 0.35656 0.12228 0.0
H107 H 0.80584 0.38086 0.16483 0.0
Mn108 Mn 0.14085 0.94652 0.09549 0.0
Mn109 Mn 0.16904 0.89998 0.13225 0.0
C110 C 0.1341 0.90575 0.08179 0.0
C111 C 0.10709 0.97282 0.08858 0.0
C112 C 0.1949 0.93096 0.08582 0.0
O113 O 0.15351 0.96421 0.13207 0.0
O114 O 0.16997 0.9312 0.15545 0.0
C115 C 0.13248 0.89566 0.18047 0.0
N116 N 0.14534 0.88506 0.158 0.0
C117 C 0.12659 0.8452 0.16721 0.0
C118 C 0.11324 0.85564 0.19056 0.0
C119 C 0.11614 0.88101 0.19714 0.0
C120 C 0.14244 0.86077 0.15124 0.0
H121 H 0.13468 0.91515 0.18558 0.0
C122 C 0.16463 0.95437 0.15389 0.0
O123 O 0.12878 0.97812 0.07769 0.0
O124 O 0.10571 0.95349 0.1055 0.0
N125 N 0.16976 0.86851 0.11278 0.0
C126 C 0.18414 0.86131 0.08969 0.0
C127 C 0.18369 0.83641 0.08051 0.0
C128 C 0.16881 0.8191 0.09543 0.0
C129 C 0.15435 0.82688 0.11931 0.0
C130 C 0.15565 0.85192 0.12755 0.0
H131 H 0.1959 0.87446 0.07839 0.0
O132 O 0.1295 0.92383 0.06388 0.0
O133 O 0.14173 0.912 0.10785 0.0
O134 O 0.17638 0.94483 0.07954 0.0
O135 O 0.19423 0.91399 0.10546 0.0
C136 C 0.13882 0.81077 0.13538 0.0
C137 C 0.12479 0.81996 0.15915 0.0
H138 H 0.10068 0.84438 0.20354 0.0
H139 H 0.10584 0.88923 0.21507 0.0
H140 H 0.19495 0.83053 0.06212 0.0
H141 H 0.16879 0.79985 0.08848 0.0
H142 H 0.13748 0.79128 0.12961 0.0
H143 H 0.11276 0.80743 0.17117 0.0
Mn144 Mn 0.54438 0.36337 0.41461 0.0
Mn145 Mn 0.59446 0.34038 0.37924 0.0
C146 C 0.58376 0.37451 0.42948 0.0
C147 C 0.51493 0.39434 0.4214 0.0
C148 C 0.56547 0.31126 0.42474 0.0
O149 O 0.52891 0.34918 0.37751 0.0
O150 O 0.56391 0.33597 0.35527 0.0
C151 C 0.59558 0.37708 0.3309 0.0
N152 N 0.60716 0.3655 0.35367 0.0
C153 C 0.64467 0.38891 0.34567 0.0
C154 C 0.63322 0.40097 0.32199 0.0
C155 C 0.60855 0.39506 0.31462 0.0
C156 C 0.63083 0.37115 0.36106 0.0
H157 H 0.57659 0.37266 0.32525 0.0
C158 C 0.54029 0.339 0.35611 0.0
O159 O 0.51147 0.37208 0.43177 0.0
O160 O 0.53408 0.39761 0.40459 0.0
N161 N 0.62549 0.34321 0.39949 0.0
C162 C 0.63373 0.33007 0.42312 0.0
C163 C 0.65802 0.33392 0.43348 0.0
C164 C 0.67369 0.35093 0.41918 0.0
C165 C 0.66498 0.36383 0.39452 0.0
C166 C 0.64065 0.3591 0.38509 0.0
H167 H 0.62181 0.31689 0.43413 0.0
O168 O 0.56498 0.37689 0.44694 0.0
O169 O 0.579 0.36626 0.40322 0.0
O170 O 0.54947 0.32811 0.43043 0.0
O171 O 0.58283 0.31386 0.40582 0.0
C172 C 0.67936 0.38141 0.37914 0.0
C173 C 0.66919 0.39401 0.3548 0.0
H174 H 0.64314 0.41488 0.30942 0.0
H175 H 0.59954 0.40436 0.29646 0.0
H176 H 0.66463 0.32382 0.45246 0.0
H177 H 0.69237 0.35392 0.42733 0.0
H178 H 0.6982 0.38554 0.38599 0.0
H179 H 0.68035 0.40765 0.34331 0.0
Mn180 Mn 0.14141 0.55007 0.41349 0.0
Mn181 Mn 0.16345 0.60292 0.38318 0.0
C182 C 0.12868 0.58806 0.43135 0.0
C183 C 0.11132 0.51924 0.41633 0.0
C184 C 0.19259 0.57205 0.42695 0.0
O185 O 0.15679 0.53745 0.37557 0.0
O186 O 0.1691 0.57414 0.35667 0.0
C187 C 0.12763 0.60619 0.33408 0.0
N188 N 0.13846 0.61656 0.35813 0.0
C189 C 0.11438 0.65398 0.35265 0.0
C190 C 0.10308 0.64378 0.32769 0.0
C191 C 0.1097 0.61975 0.31842 0.0
C192 C 0.13212 0.63958 0.36736 0.0
H193 H 0.13262 0.58771 0.32694 0.0
C194 C 0.16682 0.55044 0.35538 0.0
O195 O 0.13337 0.51585 0.42732 0.0
O196 O 0.10778 0.53941 0.40135 0.0
N197 N 0.15939 0.63246 0.40606 0.0
C198 C 0.17178 0.63945 0.43079 0.0
C199 C 0.16712 0.66292 0.44312 0.0
C200 C 0.15009 0.67909 0.42966 0.0
C201 C 0.13795 0.6717 0.40389 0.0
C202 C 0.14344 0.64813 0.39253 0.0
H203 H 0.18499 0.62715 0.44115 0.0
O204 O 0.12652 0.56816 0.44705 0.0
O205 O 0.13764 0.58521 0.40503 0.0
O206 O 0.17613 0.55526 0.43093 0.0
O207 O 0.18983 0.59034 0.40933 0.0
C208 C 0.12042 0.68666 0.3892 0.0
C209 C 0.10857 0.67776 0.36367 0.0
H210 H 0.08921 0.65416 0.31558 0.0
H211 H 0.10098 0.61171 0.29925 0.0
H212 H 0.17662 0.66852 0.46295 0.0
H213 H 0.14647 0.69714 0.43932 0.0
H214 H 0.11576 0.70495 0.39747 0.0
H215 H 0.09494 0.68934 0.35273 0.0
Mn216 Mn 0.95302 0.13903 0.41276 0.0
Mn217 Mn 0.90314 0.1643 0.37906 0.0
C218 C 0.91352 0.12819 0.42755 0.0
C219 C 0.98205 0.10736 0.41763 0.0
C220 C 0.93302 0.19112 0.42571 0.0
O221 O 0.96847 0.15429 0.37617 0.0
O222 O 0.93355 0.1688 0.35491 0.0
C223 C 0.90078 0.12924 0.32912 0.0
N224 N 0.88966 0.14033 0.35253 0.0
C225 C 0.85154 0.11808 0.34391 0.0
C226 C 0.86252 0.10655 0.31956 0.0
C227 C 0.88726 0.11212 0.31219 0.0
C228 C 0.86593 0.13498 0.35994 0.0
H229 H 0.91982 0.13339 0.32347 0.0
C230 C 0.95712 0.16532 0.35533 0.0
O231 O 0.98592 0.12917 0.42904 0.0
O232 O 0.96267 0.10495 0.40097 0.0
N233 N 0.87222 0.16153 0.39952 0.0
C234 C 0.86444 0.17414 0.42376 0.0
C235 C 0.84014 0.17053 0.43419 0.0
C236 C 0.82398 0.15434 0.41934 0.0
C237 C 0.83221 0.14203 0.39405 0.0
C238 C 0.85658 0.14646 0.3846 0.0
H239 H 0.87674 0.1867 0.4352 0.0
O240 O 0.93241 0.12471 0.4446 0.0
O241 O 0.91823 0.13728 0.40166 0.0
O242 O 0.94866 0.17372 0.43049 0.0
O243 O 0.9156 0.18967 0.4067 0.0
C244 C 0.81729 0.12531 0.37804 0.0
C245 C 0.82698 0.11328 0.35305 0.0
H246 H 0.85217 0.0933 0.30648 0.0
H247 H 0.8959 0.10321 0.29352 0.0
H248 H 0.8339 0.18019 0.45365 0.0
H249 H 0.8053 0.15151 0.42755 0.0
H250 H 0.7984 0.12143 0.38488 0.0
H251 H 0.8154 0.1003 0.34107 0.0
Mn252 Mn 0.35916 0.9421 0.4046 0.0
Mn253 Mn 0.33209 0.89676 0.36469 0.0
C254 C 0.36699 0.9009 0.41529 0.0
C255 C 0.39227 0.96869 0.41392 0.0
C256 C 0.30572 0.92404 0.41376 0.0
O257 O 0.3461 0.96146 0.36944 0.0
O258 O 0.32939 0.92938 0.34457 0.0
C259 C 0.36797 0.89754 0.31551 0.0
N260 N 0.35598 0.88481 0.33709 0.0
C261 C 0.37645 0.84669 0.32373 0.0
C262 C 0.3889 0.85935 0.30122 0.0
C263 C 0.38471 0.88491 0.29717 0.0
C264 C 0.36014 0.8603 0.34143 0.0
H265 H 0.36482 0.91719 0.31235 0.0
C266 C 0.33447 0.95252 0.34746 0.0
O267 O 0.37038 0.97291 0.42492 0.0
O268 O 0.39415 0.95049 0.39541 0.0
N269 N 0.3331 0.86402 0.381 0.0
C270 C 0.31939 0.85452 0.40348 0.0
C271 C 0.32111 0.82909 0.41014 0.0
C272 C 0.33657 0.81364 0.39331 0.0
C273 C 0.35034 0.82378 0.37014 0.0
C274 C 0.34774 0.84922 0.36441 0.0
H275 H 0.30719 0.86624 0.41622 0.0
O276 O 0.37101 0.91811 0.43452 0.0
O277 O 0.35926 0.90826 0.38967 0.0
O278 O 0.32366 0.9386 0.42022 0.0
O279 O 0.30685 0.90776 0.39334 0.0
C280 C 0.3664 0.80962 0.35235 0.0
C281 C 0.3796 0.8211 0.3293 0.0
H282 H 0.40177 0.84965 0.28697 0.0
H283 H 0.39432 0.89483 0.27993 0.0
H284 H 0.31037 0.82136 0.428 0.0
H285 H 0.33749 0.79396 0.39816 0.0
H286 H 0.36881 0.78989 0.35626 0.0
H287 H 0.39203 0.81006 0.31591 0.0
Mn288 Mn 0.44761 0.86311 0.90985 0.0
Mn289 Mn 0.40049 0.83661 0.87245 0.0
C290 C 0.407 0.87003 0.92404 0.0
C291 C 0.47413 0.89638 0.91833 0.0
C292 C 0.43152 0.80897 0.91737 0.0
O293 O 0.46495 0.85144 0.87262 0.0
O294 O 0.4316 0.83581 0.84908 0.0
C295 C 0.39648 0.87439 0.8255 0.0
N296 N 0.38581 0.86116 0.84762 0.0
C297 C 0.34618 0.88064 0.83928 0.0
C298 C 0.3567 0.8944 0.81629 0.0
C299 C 0.38198 0.89132 0.80945 0.0
C300 C 0.36159 0.8642 0.85462 0.0
H301 H 0.4159 0.87204 0.82018 0.0
C302 C 0.45484 0.84088 0.85058 0.0
O303 O 0.47934 0.87426 0.92808 0.0
O304 O 0.45487 0.89846 0.90142 0.0
N305 N 0.36915 0.8359 0.89215 0.0
C306 C 0.36191 0.82121 0.91496 0.0
C307 C 0.33709 0.82184 0.92438 0.0
C308 C 0.3199 0.83724 0.91 0.0
C309 C 0.32773 0.85207 0.88646 0.0
C310 C 0.35268 0.85057 0.87795 0.0
H311 H 0.37497 0.80907 0.92584 0.0
O312 O 0.42519 0.87367 0.9421 0.0
O313 O 0.41305 0.8631 0.89766 0.0
O314 O 0.44568 0.82711 0.92417 0.0
O315 O 0.41425 0.81049 0.89817 0.0
C316 C 0.31176 0.86816 0.87098 0.0
C317 C 0.32102 0.8826 0.84758 0.0
H318 H 0.34556 0.90741 0.8038 0.0
H319 H 0.39026 0.90192 0.79181 0.0
H320 H 0.33116 0.81032 0.94253 0.0
H321 H 0.3007 0.83739 0.91712 0.0
H322 H 0.29233 0.86966 0.87696 0.0
H323 H 0.30861 0.89508 0.83603 0.0
Mn324 Mn 0.63932 0.44461 0.90673 0.0
Mn325 Mn 0.66554 0.39791 0.86831 0.0
C326 C 0.63046 0.40386 0.91857 0.0
C327 C 0.60669 0.47204 0.91453 0.0
C328 C 0.69245 0.42628 0.91627 0.0
O329 O 0.6533 0.46277 0.87121 0.0
O330 O 0.66804 0.4297 0.84632 0.0
C331 C 0.62907 0.39659 0.81975 0.0
N332 N 0.64129 0.38481 0.84189 0.0
C333 C 0.62042 0.34624 0.83143 0.0
C334 C 0.60771 0.35791 0.80837 0.0
C335 C 0.612 0.38322 0.80258 0.0
C336 C 0.63708 0.36056 0.84789 0.0
H337 H 0.63228 0.41605 0.81528 0.0
C338 C 0.66396 0.45306 0.84901 0.0
O339 O 0.62851 0.4761 0.92583 0.0
O340 O 0.60469 0.45349 0.89654 0.0
N341 N 0.66467 0.36595 0.88664 0.0
C342 C 0.6786 0.35747 0.90952 0.0
C343 C 0.6768 0.33242 0.91791 0.0
C344 C 0.66101 0.31629 0.90245 0.0
C345 C 0.64702 0.32539 0.87882 0.0
C346 C 0.64973 0.35048 0.87132 0.0
H347 H 0.69102 0.3697 0.92126 0.0
O348 O 0.62653 0.42157 0.93718 0.0
O349 O 0.63867 0.41052 0.89291 0.0
O350 O 0.6745 0.44069 0.92306 0.0
O351 O 0.69121 0.41003 0.89583 0.0
C352 C 0.63062 0.31052 0.86229 0.0
C353 C 0.61718 0.32098 0.83876 0.0
H354 H 0.59458 0.34765 0.79504 0.0
H355 H 0.60219 0.39239 0.78491 0.0
H356 H 0.68771 0.32552 0.93611 0.0
H357 H 0.65997 0.29692 0.90876 0.0
H358 H 0.62814 0.29103 0.86755 0.0
H359 H 0.60448 0.30941 0.82637 0.0
Mn360 Mn 0.04602 0.63932 0.91181 0.0
Mn361 Mn 0.09484 0.66263 0.87427 0.0
C362 C 0.0859 0.62713 0.92366 0.0
C363 C 0.01627 0.60867 0.91938 0.0
C364 C 0.06828 0.69088 0.9225 0.0
O365 O 0.02914 0.65477 0.87617 0.0
O366 O 0.0634 0.66793 0.85232 0.0
C367 C 0.09358 0.62725 0.82459 0.0
N368 N 0.10621 0.63817 0.84703 0.0
C369 C 0.14335 0.61525 0.83546 0.0
C370 C 0.13079 0.60388 0.81209 0.0
C371 C 0.10577 0.60986 0.8067 0.0
C372 C 0.13022 0.63241 0.85255 0.0
H373 H 0.07433 0.63175 0.82044 0.0
C374 C 0.03979 0.66526 0.85443 0.0
O375 O 0.01375 0.63071 0.93069 0.0
O376 O 0.03462 0.60545 0.90136 0.0
N377 N 0.12665 0.65901 0.89255 0.0
C378 C 0.13593 0.67132 0.91627 0.0
C379 C 0.1607 0.66731 0.92476 0.0
C380 C 0.17576 0.65102 0.90855 0.0
C381 C 0.16592 0.63887 0.88395 0.0
C382 C 0.14115 0.64371 0.87642 0.0
H383 H 0.1245 0.68401 0.92869 0.0
O384 O 0.06791 0.62459 0.94223 0.0
O385 O 0.08005 0.63623 0.89812 0.0
O386 O 0.05236 0.67406 0.92861 0.0
O387 O 0.08469 0.68857 0.90241 0.0
C388 C 0.17962 0.62194 0.86678 0.0
C389 C 0.16831 0.61005 0.84264 0.0
H390 H 0.14012 0.59043 0.79825 0.0
H391 H 0.09592 0.60107 0.78879 0.0
H392 H 0.16818 0.67679 0.94374 0.0
H393 H 0.19486 0.648 0.9152 0.0
H394 H 0.19879 0.61775 0.87211 0.0
H395 H 0.17895 0.59689 0.82979 0.0
Mn396 Mn 0.8568 0.0507 0.91524 0.0
Mn397 Mn 0.8316 0.09573 0.87312 0.0
C398 C 0.86615 0.09186 0.92416 0.0
C399 C 0.88865 0.02295 0.92588 0.0
C400 C 0.80414 0.0715 0.92342 0.0
O401 O 0.84322 0.03072 0.8809 0.0
O402 O 0.82697 0.06249 0.85498 0.0
C403 C 0.86713 0.09093 0.82389 0.0
N404 N 0.85597 0.10519 0.84476 0.0
C405 C 0.87852 0.1415 0.82918 0.0
C406 C 0.89016 0.12724 0.80741 0.0
C407 C 0.8845 0.10182 0.80483 0.0
C408 C 0.86154 0.12956 0.84769 0.0
H409 H 0.86282 0.0714 0.82183 0.0
C410 C 0.83151 0.03938 0.85888 0.0
O411 O 0.86658 0.02008 0.93696 0.0
O412 O 0.89145 0.04057 0.90676 0.0
N413 N 0.83435 0.12906 0.88735 0.0
C414 C 0.82099 0.1403 0.90899 0.0
C415 C 0.82397 0.16589 0.91396 0.0
C416 C 0.84029 0.17971 0.8963 0.0
C417 C 0.85367 0.16779 0.87401 0.0
C418 C 0.84978 0.14229 0.86993 0.0
H419 H 0.80811 0.12984 0.9223 0.0
O420 O 0.86944 0.07511 0.94415 0.0
O421 O 0.85828 0.08401 0.89878 0.0
O422 O 0.82133 0.05618 0.93035 0.0
O423 O 0.80605 0.08723 0.90249 0.0
C424 C 0.87052 0.18026 0.85548 0.0
C425 C 0.88308 0.16708 0.83322 0.0
H426 H 0.9035 0.1356 0.7926 0.0
H427 H 0.89345 0.09068 0.78814 0.0
H428 H 0.81351 0.175 0.93113 0.0
H429 H 0.84213 0.19953 0.89978 0.0
H430 H 0.87398 0.19997 0.85819 0.0
H431 H 0.89608 0.17684 0.8192 0.0
Mn432 Mn 0.45274 0.64064 0.5933 0.0
Mn433 Mn 0.40219 0.66743 0.62369 0.0
C434 C 0.41359 0.62951 0.57754 0.0
C435 C 0.48154 0.6086 0.59112 0.0
C436 C 0.43349 0.69232 0.57691 0.0
O437 O 0.46734 0.65705 0.62964 0.0
O438 O 0.43203 0.67279 0.64858 0.0
C439 C 0.3984 0.63448 0.67546 0.0
N440 N 0.38795 0.64459 0.65102 0.0
C441 C 0.34959 0.62268 0.65942 0.0
C442 C 0.35989 0.61216 0.68479 0.0
C443 C 0.38442 0.61805 0.69281 0.0
C444 C 0.36442 0.63894 0.64302 0.0
H445 H 0.41728 0.63889 0.68163 0.0
C446 C 0.45556 0.66909 0.64932 0.0
O447 O 0.48595 0.62996 0.5788 0.0
O448 O 0.46173 0.60698 0.60719 0.0
N449 N 0.37178 0.66392 0.6023 0.0
C450 C 0.36468 0.67554 0.57709 0.0
C451 C 0.34069 0.67149 0.56593 0.0
C452 C 0.32412 0.65588 0.58102 0.0
C453 C 0.33165 0.6446 0.60728 0.0
C454 C 0.35574 0.64944 0.61742 0.0
H455 H 0.3773 0.68764 0.56546 0.0
O456 O 0.43291 0.62535 0.56141 0.0
O457 O 0.41767 0.63949 0.60313 0.0
O458 O 0.44917 0.67471 0.57368 0.0
O459 O 0.41546 0.69162 0.59517 0.0
C460 C 0.31629 0.62851 0.62361 0.0
C461 C 0.32529 0.6175 0.6496 0.0
H462 H 0.34918 0.59945 0.6982 0.0
H463 H 0.39253 0.60993 0.71229 0.0
H464 H 0.33498 0.68035 0.54572 0.0
H465 H 0.30568 0.65269 0.57224 0.0
H466 H 0.2976 0.62433 0.61625 0.0
H467 H 0.31338 0.605 0.66184 0.0
Mn468 Mn 0.85922 0.44662 0.58795 0.0
Mn469 Mn 0.83119 0.40315 0.62981 0.0
C470 C 0.86631 0.40502 0.57922 0.0
C471 C 0.89273 0.47237 0.57763 0.0
C472 C 0.80553 0.42892 0.57922 0.0
O473 O 0.84649 0.46738 0.62204 0.0
O474 O 0.82829 0.43663 0.64789 0.0
C475 C 0.86647 0.4059 0.67952 0.0
N476 N 0.85475 0.39232 0.65844 0.0
C477 C 0.8753 0.35484 0.67403 0.0
C478 C 0.8875 0.36839 0.696 0.0
C479 C 0.88311 0.39405 0.69869 0.0
C480 C 0.85906 0.36769 0.65544 0.0
H481 H 0.86316 0.42562 0.68165 0.0
C482 C 0.83414 0.45945 0.64395 0.0
O483 O 0.87095 0.47655 0.56629 0.0
O484 O 0.8943 0.45472 0.5969 0.0
N485 N 0.8322 0.36974 0.61552 0.0
C486 C 0.81852 0.3593 0.59359 0.0
C487 C 0.82036 0.33364 0.58835 0.0
C488 C 0.83588 0.31894 0.60602 0.0
C489 C 0.84956 0.33005 0.62867 0.0
C490 C 0.84683 0.35567 0.633 0.0
H491 H 0.8063 0.37047 0.5802 0.0
O492 O 0.87068 0.42151 0.55923 0.0
O493 O 0.85868 0.41333 0.60449 0.0
O494 O 0.82363 0.44318 0.57243 0.0
O495 O 0.80639 0.4131 0.60016 0.0
C496 C 0.86563 0.31667 0.64728 0.0
C497 C 0.87862 0.32909 0.66982 0.0
H498 H 0.90029 0.35931 0.71089 0.0
H499 H 0.89251 0.40466 0.71554 0.0
H500 H 0.80967 0.32518 0.57091 0.0
H501 H 0.83691 0.2991 0.60226 0.0
H502 H 0.86818 0.29684 0.64441 0.0
H503 H 0.89103 0.31863 0.68388 0.0
Mn504 Mn 0.05358 0.85884 0.5959 0.0
Mn505 Mn 0.10065 0.83196 0.63308 0.0
C506 C 0.09414 0.8655 0.58145 0.0
C507 C 0.02721 0.89233 0.58779 0.0
C508 C 0.06965 0.80473 0.58779 0.0
O509 O 0.03626 0.84701 0.6331 0.0
O510 O 0.06955 0.83115 0.65651 0.0
C511 C 0.1047 0.8697 0.68006 0.0
N512 N 0.11536 0.85647 0.65794 0.0
C513 C 0.15491 0.87624 0.66597 0.0
C514 C 0.1444 0.88999 0.68896 0.0
C515 C 0.11917 0.88676 0.69597 0.0
C516 C 0.13953 0.85967 0.65077 0.0
H517 H 0.08531 0.86727 0.68549 0.0
C518 C 0.04633 0.83631 0.65507 0.0
O519 O 0.02185 0.87031 0.57789 0.0
O520 O 0.04651 0.89419 0.60467 0.0
N521 N 0.13202 0.83116 0.61345 0.0
C522 C 0.13935 0.81619 0.59095 0.0
C523 C 0.16418 0.81678 0.58155 0.0
C524 C 0.1813 0.83243 0.59568 0.0
C525 C 0.17339 0.8475 0.61897 0.0
C526 C 0.14845 0.84598 0.6275 0.0
H527 H 0.12636 0.80385 0.58026 0.0
O528 O 0.07588 0.8695 0.56362 0.0
O529 O 0.08821 0.85854 0.60787 0.0
O530 O 0.05545 0.82293 0.58122 0.0
O531 O 0.08682 0.80603 0.60715 0.0
C532 C 0.18931 0.86382 0.63421 0.0
C533 C 0.18003 0.87833 0.65753 0.0
H534 H 0.15551 0.90311 0.70134 0.0
H535 H 0.1109 0.89736 0.71362 0.0
H536 H 0.17017 0.80504 0.56363 0.0
H537 H 0.20051 0.83254 0.5886 0.0
H538 H 0.20871 0.86541 0.62813 0.0
H539 H 0.1924 0.89094 0.66894 0.0
Mn540 Mn 0.63794 0.04998 0.58558 0.0
Mn541 Mn 0.65977 0.10135 0.61948 0.0
C542 C 0.62486 0.08874 0.57053 0.0
C543 C 0.60803 0.01913 0.58059 0.0
C544 C 0.68891 0.07301 0.57342 0.0
O545 O 0.65379 0.03551 0.62236 0.0
O546 O 0.66587 0.07129 0.64379 0.0
C547 C 0.62413 0.10166 0.6689 0.0
N548 N 0.63479 0.11341 0.64563 0.0
C549 C 0.61036 0.15022 0.65396 0.0
C550 C 0.59925 0.13859 0.67815 0.0
C551 C 0.60613 0.11418 0.6856 0.0
C552 C 0.62817 0.13681 0.63813 0.0
H553 H 0.62931 0.08287 0.67462 0.0
C554 C 0.6639 0.04754 0.64332 0.0
O555 O 0.63007 0.0165 0.56932 0.0
O556 O 0.60443 0.0384 0.5971 0.0
N557 N 0.65537 0.13204 0.59889 0.0
C558 C 0.66772 0.14052 0.5748 0.0
C559 C 0.66287 0.16459 0.56432 0.0
C560 C 0.64571 0.17984 0.57899 0.0
C561 C 0.63364 0.17091 0.60412 0.0
C562 C 0.63933 0.1468 0.61362 0.0
H563 H 0.68104 0.12894 0.56353 0.0
O564 O 0.6227 0.06964 0.55349 0.0
O565 O 0.63398 0.08462 0.59654 0.0
O566 O 0.67253 0.05634 0.56837 0.0
O567 O 0.6861 0.09039 0.59228 0.0
C568 C 0.616 0.18487 0.61994 0.0
C569 C 0.6043 0.1745 0.64476 0.0
H570 H 0.58533 0.14816 0.69107 0.0
H571 H 0.59756 0.10504 0.70416 0.0
H572 H 0.67234 0.17139 0.54499 0.0
H573 H 0.64196 0.19836 0.57076 0.0
H574 H 0.61116 0.20354 0.61307 0.0
H575 H 0.5906 0.18533 0.65659 0.0
H576 H 0.58986 0.23708 0.08638 0.0
H577 H 0.59164 0.27222 0.05292 0.0
H578 H 0.53788 0.2369 0.99647 0.0
H579 H 0.53606 0.20125 0.02988 0.0
H580 H 0.58065 0.25257 0.96737 0.0
H581 H 0.54333 0.3287 0.03547 0.0
H582 H 0.56644 0.31129 0.055 0.0
H583 H 0.53797 0.2963 0.04395 0.0
C584 C 0.57807 0.23685 0.06713 0.0
C585 C 0.56284 0.21628 0.06083 0.0
C586 C 0.57898 0.25709 0.04811 0.0
C587 C 0.56462 0.25732 0.02246 0.0
C588 C 0.54892 0.23715 0.01633 0.0
H589 H 0.59644 0.37468 0.89065 0.0
H590 H 0.57673 0.337 0.91073 0.0
C591 C 0.54789 0.21684 0.03549 0.0
C592 C 0.56811 0.27767 0.00105 0.0
H593 H 0.57281 0.34078 0.99764 0.0
C594 C 0.57829 0.2719 0.97354 0.0
C595 C 0.56476 0.30281 0.00907 0.0
C596 C 0.55226 0.31013 0.03738 0.0
C597 C 0.58734 0.29069 0.955 0.0
C598 C 0.5862 0.31568 0.9644 0.0
C599 C 0.57408 0.32151 0.99075 0.0
C600 C 0.59999 0.3358 0.94944 0.0
C601 C 0.59984 0.28362 0.92669 0.0
C602 C 0.61975 0.34722 0.96431 0.0
C603 C 0.63079 0.36859 0.95303 0.0
C604 C 0.62265 0.3786 0.92637 0.0
C605 C 0.60352 0.36669 0.91079 0.0
C606 C 0.59224 0.34531 0.92227 0.0
H607 H 0.59941 0.26324 0.92268 0.0
H608 H 0.59061 0.29314 0.90807 0.0
H609 H 0.61946 0.28982 0.9273 0.0
H610 H 0.62592 0.34019 0.98536 0.0
H611 H 0.64516 0.37784 0.96564 0.0
H612 H 0.11394 0.59369 0.89313 0.0
H613 H 0.15366 0.57504 0.90886 0.0
H614 H 0.1509 0.6181 0.98856 0.0
H615 H 0.1117 0.63692 0.97273 0.0
H616 H 0.20001 0.60332 0.92739 0.0
H617 H 0.15989 0.54264 0.0134 0.0
H618 H 0.142 0.55409 0.98265 0.0
H619 H 0.14789 0.57384 0.01368 0.0
C620 C 0.12221 0.59944 0.91369 0.0
C621 C 0.11047 0.61732 0.93133 0.0
C622 C 0.14461 0.58862 0.92277 0.0
C623 C 0.15497 0.59511 0.94993 0.0
C624 C 0.14302 0.61274 0.96763 0.0
H625 H 0.27876 0.61152 0.05092 0.0
H626 H 0.24267 0.61156 0.01871 0.0
C627 C 0.12081 0.62357 0.95854 0.0
C628 C 0.17856 0.58415 0.96015 0.0
H629 H 0.20308 0.5537 0.01902 0.0
C630 C 0.20076 0.592 0.947 0.0
C631 C 0.1794 0.56899 0.98543 0.0
C632 C 0.15602 0.55917 0.99951 0.0
C633 C 0.22379 0.58703 0.96018 0.0
C634 C 0.22443 0.57376 0.98688 0.0
C635 C 0.20242 0.564 0.99858 0.0
C636 C 0.247 0.57328 0.00518 0.0
C637 C 0.24717 0.59724 0.94652 0.0
C638 C 0.26115 0.55157 0.00836 0.0
C639 C 0.28205 0.55148 0.02668 0.0
C640 C 0.28876 0.57301 0.0424 0.0
C641 C 0.27421 0.59459 0.03924 0.0
C642 C 0.25363 0.59472 0.02072 0.0
H643 H 0.2443 0.60238 0.92317 0.0
H644 H 0.25302 0.61414 0.95867 0.0
H645 H 0.26249 0.58345 0.948 0.0
H646 H 0.25606 0.5348 0.99666 0.0
H647 H 0.2928 0.53454 0.02868 0.0
H648 H 0.85139 0.11977 0.96966 0.0
H649 H 0.87058 0.15824 0.98727 0.0
H650 H 0.91955 0.1587 0.91247 0.0
H651 H 0.90018 0.11997 0.89466 0.0
H652 H 0.93049 0.1571 0.99293 0.0
H653 H 0.88843 0.23375 0.92778 0.0
H654 H 0.86797 0.20962 0.94074 0.0
H655 H 0.89125 0.20245 0.91374 0.0
C656 C 0.86574 0.12853 0.95656 0.0
C657 C 0.87396 0.11742 0.93052 0.0
C658 C 0.87671 0.15037 0.96663 0.0
C659 C 0.89638 0.16122 0.9511 0.0
C660 C 0.9042 0.15065 0.92454 0.0
H661 H 0.95587 0.2989 0.02719 0.0
H662 H 0.95425 0.26369 0.9932 0.0
C663 C 0.89306 0.12874 0.91432 0.0
C664 C 0.9101 0.18195 0.96479 0.0
H665 H 0.9088 0.24498 0.97215 0.0
C666 C 0.92629 0.17638 0.98798 0.0
C667 C 0.90473 0.20697 0.95804 0.0
C668 C 0.88725 0.21371 0.93356 0.0
C669 C 0.93595 0.19523 0.0059 0.0
C670 C 0.92888 0.22014 0.00066 0.0
C671 C 0.91422 0.22584 0.9761 0.0
C672 C 0.93337 0.23996 0.02249 0.0
C673 C 0.95282 0.18824 0.03099 0.0
C674 C 0.92242 0.2381 0.05029 0.0
C675 C 0.92315 0.25814 0.06966 0.0
C676 C 0.93485 0.2805 0.06158 0.0
C677 C 0.94683 0.28191 0.03419 0.0
C678 C 0.9459 0.26185 0.01469 0.0
H679 H 0.96293 0.17066 0.02635 0.0
H680 H 0.96657 0.20315 0.03556 0.0
H681 H 0.94146 0.1853 0.05099 0.0
H682 H 0.91222 0.22154 0.05651 0.0
H683 H 0.91375 0.2564 0.09056 0.0
H684 H 0.38265 0.85477 0.97219 0.0
H685 H 0.34501 0.87298 0.99325 0.0
H686 H 0.33874 0.92222 0.91895 0.0
H687 H 0.37642 0.90363 0.8976 0.0
H688 H 0.34338 0.92545 0.00642 0.0
H689 H 0.26638 0.89704 0.93157 0.0
H690 H 0.2942 0.87858 0.93503 0.0
H691 H 0.29537 0.90794 0.91649 0.0
C692 C 0.37276 0.86895 0.95999 0.0
C693 C 0.38188 0.8774 0.93302 0.0
C694 C 0.3514 0.87941 0.97204 0.0
C695 C 0.33905 0.89885 0.95759 0.0
C696 C 0.34774 0.90694 0.93018 0.0
H697 H 0.20233 0.95887 0.03611 0.0
H698 H 0.23859 0.958 0.00369 0.0
C699 C 0.36913 0.89628 0.91797 0.0
C700 C 0.3186 0.91182 0.97296 0.0
H701 H 0.25542 0.91633 0.9757 0.0
C702 C 0.32415 0.92384 0.99948 0.0
C703 C 0.29364 0.91026 0.9635 0.0
C704 C 0.28681 0.89779 0.93509 0.0
C705 C 0.30526 0.93281 0.01777 0.0
C706 C 0.28019 0.92915 0.00958 0.0
C707 C 0.27469 0.91894 0.98201 0.0
C708 C 0.25961 0.93252 0.03074 0.0
C709 C 0.31233 0.94543 0.04609 0.0
C710 C 0.25952 0.91863 0.05676 0.0
C711 C 0.23894 0.91904 0.07528 0.0
C712 C 0.21784 0.93322 0.06806 0.0
C713 C 0.21828 0.94781 0.04242 0.0
C714 C 0.23896 0.94733 0.02382 0.0
H715 H 0.33063 0.95487 0.04412 0.0
H716 H 0.29817 0.95934 0.0528 0.0
H717 H 0.31396 0.93124 0.06365 0.0
H718 H 0.275 0.90659 0.06219 0.0
H719 H 0.23929 0.90754 0.09477 0.0
H720 H 0.53655 0.3001 0.47265 0.0
H721 H 0.53806 0.26231 0.50265 0.0
H722 H 0.59448 0.232 0.44586 0.0
H723 H 0.59311 0.26937 0.41574 0.0
H724 H 0.55377 0.19852 0.46155 0.0
H725 H 0.59841 0.24498 0.55741 0.0
H726 H 0.57044 0.25838 0.54253 0.0
H727 H 0.59853 0.25887 0.52138 0.0
C728 C 0.54913 0.28531 0.46639 0.0
C729 C 0.5648 0.28785 0.44183 0.0
C730 C 0.55004 0.26382 0.48365 0.0
C731 C 0.56656 0.24458 0.47657 0.0
C732 C 0.58165 0.24674 0.45167 0.0
H733 H 0.63607 0.11195 0.52018 0.0
H734 H 0.61712 0.14971 0.50031 0.0
C735 C 0.58085 0.26815 0.43451 0.0
C736 C 0.56888 0.22223 0.49516 0.0
H737 H 0.59548 0.20148 0.5585 0.0
C738 C 0.5625 0.19916 0.48298 0.0
C739 C 0.58006 0.22322 0.52319 0.0
C740 C 0.58741 0.24762 0.53703 0.0
C741 C 0.56827 0.17692 0.49743 0.0
C742 C 0.58109 0.17786 0.52445 0.0
C743 C 0.58587 0.20092 0.53764 0.0
C744 C 0.59247 0.15535 0.53721 0.0
C745 C 0.56137 0.15255 0.48318 0.0
C746 C 0.58527 0.14647 0.56487 0.0
C747 C 0.59629 0.12498 0.57634 0.0
C748 C 0.61501 0.11266 0.56056 0.0
C749 C 0.62203 0.12154 0.53292 0.0
C750 C 0.6111 0.14291 0.52151 0.0
H751 H 0.5453 0.15478 0.4681 0.0
H752 H 0.57738 0.14572 0.47012 0.0
H753 H 0.55671 0.13825 0.49987 0.0
H754 H 0.57095 0.15591 0.57729 0.0
H755 H 0.59003 0.1178 0.59725 0.0
H756 H 0.38187 0.59771 0.6053 0.0
H757 H 0.34342 0.57965 0.58496 0.0
H758 H 0.35419 0.6218 0.50548 0.0
H759 H 0.39231 0.63973 0.52572 0.0
H760 H 0.29958 0.60518 0.56234 0.0
H761 H 0.34714 0.54874 0.47786 0.0
H762 H 0.36305 0.56105 0.50959 0.0
H763 H 0.35739 0.58051 0.4782 0.0
C764 C 0.37561 0.60337 0.58374 0.0
C765 C 0.38936 0.62064 0.56732 0.0
C766 C 0.35391 0.59292 0.57207 0.0
C767 C 0.34622 0.59922 0.54363 0.0
C768 C 0.36004 0.61647 0.52732 0.0
H769 H 0.23499 0.59893 0.41853 0.0
H770 H 0.27162 0.60053 0.4499 0.0
C771 C 0.38162 0.62683 0.53893 0.0
C772 C 0.32369 0.58816 0.53053 0.0
H773 H 0.30399 0.55829 0.46881 0.0
C774 C 0.30044 0.59443 0.54227 0.0
C775 C 0.32499 0.57391 0.50454 0.0
C776 C 0.3495 0.56543 0.49195 0.0
C777 C 0.2784 0.58854 0.5273 0.0
C778 C 0.27985 0.57585 0.50021 0.0
C779 C 0.30302 0.56813 0.48953 0.0
C780 C 0.258 0.57331 0.48087 0.0
C781 C 0.25384 0.5973 0.53946 0.0
C782 C 0.23846 0.55706 0.4877 0.0
C783 C 0.21742 0.55597 0.46967 0.0
C784 C 0.21563 0.57125 0.44467 0.0
C785 C 0.23564 0.587 0.43764 0.0
C786 C 0.25663 0.58793 0.45551 0.0
H787 H 0.25615 0.60869 0.5596 0.0
H788 H 0.24381 0.60851 0.52278 0.0
H789 H 0.24208 0.58097 0.54482 0.0
H790 H 0.23936 0.54549 0.5071 0.0
H791 H 0.20233 0.54367 0.47574 0.0
H792 H 0.85069 0.37764 0.53364 0.0
H793 H 0.86842 0.33837 0.51637 0.0
H794 H 0.91659 0.33599 0.59187 0.0
H795 H 0.8987 0.37551 0.60933 0.0
H796 H 0.92735 0.33754 0.51062 0.0
H797 H 0.88463 0.26213 0.57726 0.0
H798 H 0.86454 0.28648 0.56407 0.0
H799 H 0.88799 0.29351 0.5909 0.0
C800 C 0.86451 0.36829 0.54698 0.0
C801 C 0.87296 0.3791 0.5731 0.0
C802 C 0.87463 0.34599 0.5371 0.0
C803 C 0.89369 0.33436 0.55294 0.0
C804 C 0.90168 0.34463 0.5796 0.0
H805 H 0.95608 0.19667 0.47891 0.0
H806 H 0.95258 0.23207 0.51254 0.0
C807 C 0.89138 0.36701 0.58961 0.0
C808 C 0.90687 0.31325 0.53935 0.0
H809 H 0.90523 0.2501 0.53335 0.0
C810 C 0.92302 0.31836 0.51597 0.0
C811 C 0.9013 0.28837 0.54661 0.0
C812 C 0.88377 0.28213 0.57123 0.0
C813 C 0.93253 0.29919 0.49846 0.0
C814 C 0.92541 0.27441 0.50434 0.0
C815 C 0.91068 0.26916 0.52897 0.0
C816 C 0.93015 0.25421 0.48312 0.0
C817 C 0.94932 0.30567 0.47311 0.0
C818 C 0.91881 0.25512 0.45546 0.0
C819 C 0.92059 0.23498 0.43635 0.0
C820 C 0.9338 0.21351 0.44452 0.0
C821 C 0.94592 0.213 0.47187 0.0
C822 C 0.9439 0.23314 0.49114 0.0
H823 H 0.95898 0.32367 0.47681 0.0
H824 H 0.96345 0.29093 0.46945 0.0
H825 H 0.93798 0.30746 0.4529 0.0
H826 H 0.90776 0.27107 0.44908 0.0
H827 H 0.91105 0.23599 0.41547 0.0
H828 H 0.11747 0.84781 0.53385 0.0
H829 H 0.15523 0.86425 0.51119 0.0
H830 H 0.16366 0.91612 0.58268 0.0
H831 H 0.12598 0.89912 0.60578 0.0
H832 H 0.1578 0.91453 0.49418 0.0
H833 H 0.23519 0.89078 0.57067 0.0
H834 H 0.20655 0.8734 0.57016 0.0
H835 H 0.20714 0.90409 0.58543 0.0
C836 C 0.12789 0.86216 0.54514 0.0
C837 C 0.11937 0.8718 0.57182 0.0
C838 C 0.14932 0.87163 0.53217 0.0
C839 C 0.16232 0.89131 0.54531 0.0
C840 C 0.15421 0.9006 0.57246 0.0
H841 H 0.29682 0.95263 0.46256 0.0
H842 H 0.26086 0.95051 0.49531 0.0
C843 C 0.13279 0.89087 0.58566 0.0
C844 C 0.18272 0.90334 0.52875 0.0
H845 H 0.24583 0.90906 0.52582 0.0
C846 C 0.17704 0.91363 0.50127 0.0
C847 C 0.20769 0.90276 0.53834 0.0
C848 C 0.21474 0.89216 0.56774 0.0
C849 C 0.19579 0.9219 0.48234 0.0
C850 C 0.2209 0.91934 0.49092 0.0
C851 C 0.22653 0.91078 0.51923 0.0
C852 C 0.24151 0.92267 0.4698 0.0
C853 C 0.18855 0.93274 0.45306 0.0
C854 C 0.24248 0.90778 0.44459 0.0
C855 C 0.26291 0.90891 0.42584 0.0
C856 C 0.28297 0.92485 0.43205 0.0
C857 C 0.28169 0.9402 0.45703 0.0
C858 C 0.26118 0.93901 0.47581 0.0
H859 H 0.16983 0.94143 0.45402 0.0
H860 H 0.20218 0.94691 0.44562 0.0
H861 H 0.18783 0.91763 0.43651 0.0
H862 H 0.22777 0.8946 0.43989 0.0
H863 H 0.26324 0.89674 0.40694 0.0
H864 H 0.40708 0.7653 0.90718 0.0
H865 H 0.40844 0.72745 0.9364 0.0
H866 H 0.46322 0.7605 0.99337 0.0
H867 H 0.4619 0.79882 0.96435 0.0
H868 H 0.44973 0.69562 0.95188 0.0
H869 H 0.40477 0.7407 0.04842 0.0
H870 H 0.40452 0.75498 0.01261 0.0
H871 H 0.43258 0.75463 0.03386 0.0
C872 C 0.41959 0.76458 0.92576 0.0
C873 C 0.43421 0.78524 0.93354 0.0
C874 C 0.42039 0.74287 0.94239 0.0
C875 C 0.43571 0.74135 0.96717 0.0
C876 C 0.45104 0.76149 0.97449 0.0
H877 H 0.40934 0.61648 0.08923 0.0
H878 H 0.43026 0.65346 0.06897 0.0
C879 C 0.45031 0.78331 0.9578 0.0
C880 C 0.4344 0.7189 0.98576 0.0
H881 H 0.40875 0.69741 0.04921 0.0
C882 C 0.44114 0.69601 0.97339 0.0
C883 C 0.42351 0.71956 0.01396 0.0
C884 C 0.41577 0.74371 0.02811 0.0
C885 C 0.43578 0.67358 0.9877 0.0
C886 C 0.42297 0.67417 0.01474 0.0
C887 C 0.41818 0.69708 0.02826 0.0
C888 C 0.41135 0.6516 0.02713 0.0
C889 C 0.44314 0.64945 0.97325 0.0
C890 C 0.39356 0.63872 0.01051 0.0
C891 C 0.38158 0.61798 0.02207 0.0
C892 C 0.38663 0.61021 0.05076 0.0
C893 C 0.4046 0.62282 0.06739 0.0
C894 C 0.4167 0.64364 0.05575 0.0
H895 H 0.45987 0.65194 0.95927 0.0
H896 H 0.447 0.63475 0.98974 0.0
H897 H 0.42775 0.64304 0.95892 0.0
H898 H 0.38874 0.64488 0.98862 0.0
H899 H 0.3681 0.60816 0.00874 0.0
H900 H 0.70066 0.45243 0.96707 0.0
H901 H 0.73687 0.44967 0.99942 0.0
H902 H 0.7717 0.3986 0.93925 0.0
H903 H 0.73597 0.40137 0.90672 0.0
H904 H 0.75312 0.4063 0.02583 0.0
H905 H 0.8281 0.44646 0.95809 0.0
H906 H 0.79557 0.45161 0.95026 0.0
H907 H 0.81073 0.42357 0.93812 0.0
C908 C 0.71624 0.44099 0.96041 0.0
C909 C 0.71536 0.42709 0.93427 0.0
C910 C 0.73687 0.43942 0.97897 0.0
C911 C 0.75707 0.4242 0.97153 0.0
C912 C 0.75655 0.4109 0.9451 0.0
H913 H 0.88279 0.34821 0.02829 0.0
H914 H 0.84459 0.36528 0.0073 0.0
C915 C 0.73597 0.41238 0.92661 0.0
C916 C 0.77774 0.4201 0.99236 0.0
H917 H 0.84096 0.41709 0.99541 0.0
C918 C 0.77236 0.40919 0.01959 0.0
C919 C 0.80275 0.42412 0.98421 0.0
C920 C 0.80963 0.43734 0.95619 0.0
C921 C 0.79143 0.40032 0.03783 0.0
C922 C 0.81637 0.40249 0.02849 0.0
C923 C 0.82175 0.41504 0.00227 0.0
C924 C 0.83709 0.38987 0.04379 0.0
C925 C 0.78473 0.38714 0.06584 0.0
C926 C 0.84512 0.39756 0.07165 0.0
C927 C 0.86682 0.38751 0.08384 0.0
C928 C 0.88057 0.36967 0.06829 0.0
C929 C 0.87213 0.36158 0.04085 0.0
C930 C 0.85044 0.37139 0.02885 0.0
H931 H 0.76431 0.38538 0.06885 0.0
H932 H 0.79302 0.3683 0.06578 0.0
H933 H 0.79246 0.39744 0.08483 0.0
H934 H 0.83537 0.41215 0.08328 0.0
H935 H 0.87354 0.39458 0.10461 0.0
H936 H 0.04164 0.70116 0.97247 0.0
H937 H 0.04569 0.73765 0.00428 0.0
H938 H 0.1007 0.76831 0.9458 0.0
H939 H 0.0967 0.73233 0.91387 0.0
H940 H 0.08917 0.75275 0.0324 0.0
H941 H 0.05448 0.82725 0.95976 0.0
H942 H 0.04814 0.79474 0.95312 0.0
H943 H 0.07722 0.80824 0.94176 0.0
C944 C 0.0543 0.71587 0.96612 0.0
C945 C 0.06883 0.71378 0.94055 0.0
C946 C 0.0566 0.73666 0.98436 0.0
C947 C 0.07321 0.75581 0.97715 0.0
C948 C 0.08735 0.754 0.95143 0.0
H949 H 0.15002 0.88189 0.03362 0.0
H950 H 0.13312 0.84358 0.01269 0.0
C951 C 0.08515 0.73327 0.93328 0.0
C952 C 0.07749 0.77689 0.99737 0.0
H953 H 0.08254 0.84006 0.99829 0.0
C954 C 0.08722 0.7719 0.02531 0.0
C955 C 0.0747 0.8018 0.98809 0.0
C956 C 0.06281 0.80835 0.95915 0.0
C957 C 0.09607 0.79116 0.04331 0.0
C958 C 0.09507 0.81593 0.033 0.0
C959 C 0.08373 0.82099 0.00592 0.0
C960 C 0.1075 0.83677 0.04839 0.0
C961 C 0.10796 0.78476 0.07221 0.0
C962 C 0.09919 0.84525 0.07581 0.0
C963 C 0.10917 0.86699 0.08799 0.0
C964 C 0.12755 0.88038 0.07287 0.0
C965 C 0.13622 0.87152 0.04587 0.0
C966 C 0.1265 0.84977 0.0339 0.0
H967 H 0.1096 0.76437 0.0756 0.0
H968 H 0.12675 0.7931 0.07328 0.0
H969 H 0.09676 0.79263 0.09039 0.0
H970 H 0.08419 0.83582 0.08707 0.0
H971 H 0.10165 0.87404 0.10839 0.0
H972 H 0.60471 0.14308 0.02539 0.0
H973 H 0.64277 0.12591 0.00409 0.0
H974 H 0.6535 0.0805 0.08103 0.0
H975 H 0.61513 0.09777 0.10243 0.0
H976 H 0.69745 0.10706 0.05958 0.0
H977 H 0.64925 0.05373 0.97268 0.0
H978 H 0.63922 0.08553 0.97484 0.0
H979 H 0.63358 0.06488 0.00515 0.0
C980 C 0.61539 0.12963 0.03782 0.0
C981 C 0.60766 0.12227 0.06583 0.0
C982 C 0.63693 0.11972 0.02561 0.0
C983 C 0.65072 0.10179 0.0409 0.0
C984 C 0.64303 0.09432 0.06894 0.0
H985 H 0.7942 0.04556 0.97399 0.0
H986 H 0.75722 0.04886 0.00506 0.0
C987 C 0.62137 0.10431 0.08122 0.0
C988 C 0.67316 0.09116 0.02715 0.0
H989 H 0.69251 0.06256 0.96447 0.0
C990 C 0.69648 0.0969 0.03909 0.0
C991 C 0.67169 0.07769 0.0006 0.0
C992 C 0.64708 0.06986 0.98769 0.0
C993 C 0.71846 0.09115 0.02394 0.0
C994 C 0.71688 0.07904 0.99648 0.0
C995 C 0.6936 0.07198 0.98546 0.0
C996 C 0.73885 0.07588 0.97743 0.0
C997 C 0.74308 0.09935 0.03649 0.0
C998 C 0.74038 0.08951 0.95131 0.0
C999 C 0.76135 0.08767 0.9335 0.0
C1000 C 0.7812 0.07201 0.94139 0.0
C1001 C 0.77929 0.05782 0.96726 0.0
C1002 C 0.75826 0.05977 0.98514 0.0
H1003 H 0.74078 0.11144 0.05606 0.0
H1004 H 0.75401 0.08275 0.04301 0.0
H1005 H 0.75398 0.10963 0.01973 0.0
H1006 H 0.7255 0.10199 0.94498 0.0
H1007 H 0.76209 0.09882 0.91374 0.0
H1008 H 0.45708 0.6956 0.5238 0.0
H1009 H 0.45458 0.72996 0.48856 0.0
H1010 H 0.41041 0.77204 0.54985 0.0
H1011 H 0.4127 0.738 0.58502 0.0
H1012 H 0.40767 0.7479 0.46677 0.0
H1013 H 0.46218 0.82289 0.51946 0.0
H1014 H 0.4663 0.79041 0.52852 0.0
H1015 H 0.4411 0.80786 0.54431 0.0
C1016 C 0.4473 0.7124 0.53001 0.0
C1017 C 0.43502 0.71408 0.55718 0.0
C1018 C 0.44587 0.73195 0.50983 0.0
C1019 C 0.43257 0.75358 0.51678 0.0
C1020 C 0.42115 0.75566 0.54429 0.0
H1021 H 0.35232 0.87455 0.46217 0.0
H1022 H 0.37082 0.83603 0.48066 0.0
C1023 C 0.42233 0.7361 0.56429 0.0
C1024 C 0.42811 0.77303 0.49454 0.0
H1025 H 0.43012 0.83593 0.48555 0.0
C1026 C 0.41324 0.76706 0.47026 0.0
C1027 C 0.43536 0.79796 0.49925 0.0
C1028 C 0.45233 0.80516 0.52416 0.0
C1029 C 0.40376 0.78573 0.45191 0.0
C1030 C 0.40936 0.81081 0.4581 0.0
C1031 C 0.42574 0.81661 0.48103 0.0
C1032 C 0.39587 0.83148 0.44399 0.0
C1033 C 0.38602 0.77877 0.42777 0.0
C1034 C 0.40349 0.84118 0.41689 0.0
C1035 C 0.39276 0.86312 0.40619 0.0
C1036 C 0.37425 0.87533 0.42244 0.0
C1037 C 0.3662 0.8651 0.44905 0.0
C1038 C 0.37677 0.84322 0.45961 0.0
H1039 H 0.36684 0.78311 0.43508 0.0
H1040 H 0.38994 0.7897 0.40768 0.0
H1041 H 0.387 0.75864 0.42239 0.0
H1042 H 0.41842 0.83244 0.40476 0.0
H1043 H 0.39977 0.87121 0.38607 0.0
H1044 H 0.76218 0.40355 0.58812 0.0
H1045 H 0.72559 0.40268 0.55672 0.0
H1046 H 0.75998 0.45523 0.49798 0.0
H1047 H 0.79703 0.45617 0.52921 0.0
H1048 H 0.69442 0.44348 0.5381 0.0
H1049 H 0.74108 0.39457 0.44538 0.0
H1050 H 0.7544 0.39534 0.4817 0.0
H1051 H 0.75513 0.42264 0.45913 0.0
C1052 C 0.76205 0.41506 0.56863 0.0
C1053 C 0.78267 0.42983 0.56114 0.0
C1054 C 0.74106 0.41454 0.55073 0.0
C1055 C 0.74026 0.42867 0.52494 0.0
C1056 C 0.76045 0.44395 0.51765 0.0
H1057 H 0.61346 0.40897 0.40307 0.0
H1058 H 0.65219 0.42682 0.42297 0.0
C1059 C 0.78152 0.44454 0.53562 0.0
C1060 C 0.71824 0.42672 0.50573 0.0
H1061 H 0.69781 0.39944 0.44262 0.0
C1062 C 0.69519 0.43424 0.51698 0.0
C1063 C 0.7194 0.41485 0.47809 0.0
C1064 C 0.74376 0.40622 0.46524 0.0
C1065 C 0.67306 0.42893 0.50207 0.0
C1066 C 0.6741 0.41551 0.47548 0.0
C1067 C 0.6972 0.40956 0.46315 0.0
C1068 C 0.65147 0.40463 0.46252 0.0
C1069 C 0.64865 0.43684 0.51541 0.0
C1070 C 0.63874 0.38604 0.47799 0.0
C1071 C 0.61704 0.37577 0.46661 0.0
C1072 C 0.60807 0.38349 0.43925 0.0
C1073 C 0.6207 0.40216 0.42372 0.0
C1074 C 0.64255 0.41248 0.43515 0.0
H1075 H 0.65113 0.45274 0.53069 0.0
H1076 H 0.63508 0.44218 0.49816 0.0
H1077 H 0.64072 0.42107 0.52801 0.0
H1078 H 0.64552 0.37963 0.49904 0.0
H1079 H 0.60721 0.36178 0.47917 0.0
H1080 H 0.13926 0.60878 0.48341 0.0
H1081 H 0.11991 0.64543 0.50553 0.0
H1082 H 0.07463 0.65529 0.42832 0.0
H1083 H 0.09402 0.61826 0.40615 0.0
H1084 H 0.09954 0.69985 0.45084 0.0
H1085 H 0.04721 0.64898 0.53635 0.0
H1086 H 0.07926 0.63981 0.53419 0.0
H1087 H 0.05892 0.6341 0.50362 0.0
C1088 C 0.12533 0.61894 0.47113 0.0
C1089 C 0.11864 0.61142 0.44281 0.0
C1090 C 0.11416 0.63967 0.48381 0.0
C1091 C 0.09568 0.65282 0.46865 0.0
C1092 C 0.08883 0.64528 0.44033 0.0
H1093 H 0.0412 0.79592 0.53882 0.0
H1094 H 0.04196 0.75889 0.50756 0.0
C1095 C 0.10005 0.62442 0.42761 0.0
C1096 C 0.08415 0.67469 0.48264 0.0
H1097 H 0.05526 0.69233 0.54581 0.0
C1098 C 0.08937 0.69832 0.47125 0.0
C1099 C 0.07068 0.67246 0.50909 0.0
C1100 C 0.06345 0.64745 0.52141 0.0
C1101 C 0.08329 0.7199 0.48699 0.0
C1102 C 0.07129 0.7176 0.51445 0.0
C1103 C 0.06456 0.69399 0.5248 0.0
C1104 C 0.06853 0.73906 0.53439 0.0
C1105 C 0.09127 0.74486 0.47512 0.0
C1106 C 0.0825 0.73969 0.56032 0.0
C1107 C 0.08207 0.76065 0.57825 0.0
C1108 C 0.06756 0.78144 0.57065 0.0
C1109 C 0.05265 0.78028 0.5453 0.0
C1110 C 0.05315 0.75923 0.5273 0.0
H1111 H 0.10338 0.74306 0.45551 0.0
H1112 H 0.07457 0.75575 0.46886 0.0
H1113 H 0.10144 0.75553 0.49217 0.0
H1114 H 0.09443 0.72422 0.56618 0.0
H1115 H 0.09368 0.76078 0.59765 0.0
H1116 H 0.7304 0.10131 0.58202 0.0
H1117 H 0.76759 0.10321 0.55163 0.0
H1118 H 0.73743 0.04694 0.49449 0.0
H1119 H 0.69985 0.04482 0.52481 0.0
H1120 H 0.80075 0.06129 0.5356 0.0
H1121 H 0.75558 0.10854 0.44063 0.0
H1122 H 0.74192 0.10903 0.47679 0.0
H1123 H 0.74128 0.081 0.45555 0.0
C1124 C 0.73159 0.08922 0.56308 0.0
C1125 C 0.71205 0.07296 0.55583 0.0
C1126 C 0.7529 0.09034 0.54577 0.0
C1127 C 0.75507 0.07538 0.52076 0.0
C1128 C 0.73591 0.05879 0.5136 0.0
H1129 H 0.8825 0.09529 0.40044 0.0
H1130 H 0.84343 0.07818 0.42024 0.0
C1131 C 0.71454 0.05754 0.53105 0.0
C1132 C 0.77752 0.07764 0.50236 0.0
H1133 H 0.79905 0.10472 0.43965 0.0
C1134 C 0.80038 0.07041 0.5144 0.0
C1135 C 0.77686 0.08935 0.47462 0.0
C1136 C 0.75267 0.09758 0.46099 0.0
C1137 C 0.82277 0.0757 0.50005 0.0
C1138 C 0.82222 0.08895 0.47329 0.0
C1139 C 0.79932 0.09475 0.46029 0.0
C1140 C 0.84514 0.09942 0.46049 0.0
C1141 C 0.8469 0.06774 0.51407 0.0
C1142 C 0.85857 0.11728 0.47635 0.0
C1143 C 0.88052 0.12708 0.46504 0.0
C1144 C 0.88902 0.11972 0.43736 0.0
C1145 C 0.87568 0.10183 0.4214 0.0
C1146 C 0.85362 0.09193 0.43277 0.0
H1147 H 0.84412 0.05164 0.52898 0.0
H1148 H 0.86093 0.06267 0.49725 0.0
H1149 H 0.85442 0.08337 0.52727 0.0
H1150 H 0.85213 0.12351 0.49761 0.0
H1151 H 0.89089 0.14048 0.47791 0.0
H1152 H 0.46752 0.94448 0.90128 0.0
H1153 H 0.47511 0.98135 0.93122 0.0
H1154 H 0.51192 0.93604 0.99603 0.0
H1155 H 0.50472 0.89911 0.96605 0.0
H1156 H 0.45384 0.98457 0.98651 0.0
H1157 H 0.55605 0.99767 0.99287 0.0
H1158 H 0.54148 0.97898 0.96482 0.0
H1159 H 0.54591 0.96662 0.00106 0.0
C1160 C 0.47803 0.94247 0.9214 0.0
C1161 C 0.48537 0.91885 0.9314 0.0
C1162 C 0.4822 0.96355 0.93856 0.0
C1163 C 0.49393 0.96141 0.9659 0.0
C1164 C 0.50309 0.93817 0.97485 0.0
H1165 H 0.51958 0.06262 0.10971 0.0
H1166 H 0.51025 0.02495 0.08195 0.0
C1167 C 0.49899 0.91705 0.95762 0.0
C1168 C 0.49388 0.98275 0.98641 0.0
H1169 H 0.53153 0.02061 0.02668 0.0
C1170 C 0.47083 0.99257 0.99519 0.0
C1171 C 0.51604 0.99294 0.99789 0.0
C1172 C 0.54129 0.98369 0.98852 0.0
C1173 C 0.46934 0.01221 0.01536 0.0
C1174 C 0.4915 0.02244 0.02676 0.0
C1175 C 0.51454 0.01256 0.01807 0.0
C1176 C 0.49155 0.0442 0.04664 0.0
C1177 C 0.44411 0.02159 0.02462 0.0
C1178 C 0.48288 0.06736 0.03676 0.0
C1179 C 0.488 0.08895 0.05273 0.0
C1180 C 0.50219 0.08769 0.07857 0.0
C1181 C 0.5087 0.06422 0.08981 0.0
C1182 C 0.50352 0.04267 0.07389 0.0
H1183 H 0.42935 0.00755 0.02054 0.0
H1184 H 0.44396 0.0266 0.04824 0.0
H1185 H 0.43948 0.03849 0.01179 0.0
H1186 H 0.47385 0.069 0.01563 0.0
H1187 H 0.48283 0.10674 0.0434 0.0
H1188 H 0.39186 0.48506 0.03126 0.0
H1189 H 0.42945 0.47375 0.00428 0.0
H1190 H 0.47449 0.50804 0.07123 0.0
H1191 H 0.43714 0.51913 0.09845 0.0
H1192 H 0.45865 0.51303 0.98419 0.0
H1193 H 0.51571 0.4472 0.04917 0.0
H1194 H 0.48284 0.45151 0.05552 0.0
H1195 H 0.50493 0.47347 0.06985 0.0
C1196 C 0.40979 0.48918 0.04093 0.0
C1197 C 0.41154 0.50328 0.0668 0.0
C1198 C 0.43126 0.48287 0.02535 0.0
C1199 C 0.45473 0.49022 0.03565 0.0
C1200 C 0.45661 0.50195 0.06301 0.0
H1201 H 0.603 0.50149 0.96318 0.0
H1202 H 0.56508 0.50924 0.99135 0.0
C1203 C 0.43518 0.50831 0.07855 0.0
C1204 C 0.47659 0.4894 0.01595 0.0
H1205 H 0.53643 0.46895 0.01063 0.0
C1206 C 0.47558 0.50317 0.98979 0.0
C1207 C 0.49874 0.47686 0.02356 0.0
C1208 C 0.50062 0.46124 0.05093 0.0
C1209 C 0.49629 0.50505 0.97124 0.0
C1210 C 0.51846 0.49256 0.97887 0.0
C1211 C 0.51945 0.47872 0.00498 0.0
C1212 C 0.54051 0.49243 0.95946 0.0
C1213 C 0.49442 0.52083 0.94398 0.0
C1214 C 0.53908 0.48143 0.93165 0.0
C1215 C 0.56066 0.47714 0.91543 0.0
C1216 C 0.58407 0.48356 0.92689 0.0
C1217 C 0.58525 0.49642 0.95368 0.0
C1218 C 0.56363 0.50067 0.96993 0.0
H1219 H 0.4791 0.53462 0.94561 0.0
H1220 H 0.51209 0.5309 0.93975 0.0
H1221 H 0.49054 0.50866 0.92488 0.0
H1222 H 0.52148 0.47466 0.92329 0.0
H1223 H 0.55912 0.46714 0.89489 0.0
H1224 H 0.01877 0.5606 0.90071 0.0
H1225 H 0.00919 0.52378 0.9299 0.0
H1226 H 0.97666 0.57017 0.99673 0.0
H1227 H 0.98607 0.60716 0.96761 0.0
H1228 H 0.03165 0.51998 0.98634 0.0
H1229 H 0.92889 0.50995 0.99201 0.0
H1230 H 0.94423 0.52729 0.96331 0.0
H1231 H 0.94075 0.54062 0.99915 0.0
C1232 C 0.00876 0.56295 0.92112 0.0
C1233 C 0.00339 0.58684 0.93197 0.0
C1234 C 0.00343 0.54187 0.93785 0.0
C1235 C 0.9924 0.54427 0.96554 0.0
C1236 C 0.985 0.56789 0.97529 0.0
H1237 H 0.96371 0.4386 0.10524 0.0
H1238 H 0.97171 0.47708 0.07837 0.0
C1239 C 0.99034 0.58904 0.95855 0.0
C1240 C 0.99169 0.52264 0.98561 0.0
H1241 H 0.95271 0.48449 0.02371 0.0
C1242 C 0.01439 0.51212 0.99445 0.0
C1243 C 0.96919 0.51272 0.99641 0.0
C1244 C 0.94433 0.52304 0.98713 0.0
C1245 C 0.01521 0.49195 0.01393 0.0
C1246 C 0.99269 0.48172 0.0244 0.0
C1247 C 0.96998 0.49242 0.01576 0.0
C1248 C 0.99203 0.45926 0.04327 0.0
C1249 C 0.04019 0.48206 0.02348 0.0
C1250 C 0.00173 0.4366 0.03309 0.0
C1251 C 0.99743 0.41458 0.04859 0.0
C1252 C 0.98302 0.41482 0.07429 0.0
C1253 C 0.97487 0.43778 0.08551 0.0
C1254 C 0.97929 0.45979 0.07008 0.0
H1255 H 0.05499 0.49634 0.02112 0.0
H1256 H 0.03973 0.47571 0.04663 0.0
H1257 H 0.04528 0.46599 0.00946 0.0
H1258 H 0.01128 0.43566 0.01223 0.0
H1259 H 0.00378 0.3972 0.03922 0.0
H1260 H 0.10248 0.00473 0.04228 0.0
H1261 H 0.06412 0.01411 0.01563 0.0
H1262 H 0.02159 0.97531 0.08139 0.0
H1263 H 0.05972 0.96599 0.10823 0.0
H1264 H 0.03466 0.97396 0.99435 0.0
H1265 H 0.97945 0.0377 0.06461 0.0
H1266 H 0.01265 0.03392 0.06871 0.0
H1267 H 0.99177 0.01088 0.08308 0.0
C1268 C 0.08489 0.99897 0.05163 0.0
C1269 C 0.08414 0.98449 0.07727 0.0
C1270 C 0.06301 0.0042 0.03626 0.0
C1271 C 0.04006 0.99534 0.04651 0.0
C1272 C 0.03907 0.98255 0.07326 0.0
H1273 H 0.8905 0.99311 0.97442 0.0
H1274 H 0.92774 0.98261 0.00269 0.0
C1275 C 0.06092 0.97722 0.08857 0.0
C1276 C 0.01772 0.99675 0.02763 0.0
H1277 H 0.95851 0.01926 0.02432 0.0
C1278 C 0.01804 0.98399 0.00078 0.0
C1279 C 0.996 0.00951 0.03634 0.0
C1280 C 0.99488 0.02397 0.06464 0.0
C1281 C 0.99711 0.98351 0.98243 0.0
C1282 C 0.97545 0.99652 0.99095 0.0
C1283 C 0.97509 0.00914 0.01792 0.0
C1284 C 0.95346 0.99867 0.97154 0.0
C1285 C 0.99826 0.96874 0.95434 0.0
C1286 C 0.95567 0.01033 0.94416 0.0
C1287 C 0.93448 0.01617 0.92788 0.0
C1288 C 0.91067 0.01071 0.93884 0.0
C1289 C 0.90858 0.99748 0.96531 0.0
C1290 C 0.92982 0.99163 0.9816 0.0
H1291 H 0.01262 0.95392 0.95547 0.0
H1292 H 0.98003 0.96004 0.94925 0.0
H1293 H 0.00325 0.98136 0.93602 0.0
H1294 H 0.97366 0.01629 0.93615 0.0
H1295 H 0.93673 0.02644 0.90762 0.0
H1296 H 0.47654 0.56182 0.61335 0.0
H1297 H 0.48388 0.52329 0.58639 0.0
H1298 H 0.51971 0.56481 0.51743 0.0
H1299 H 0.51282 0.60332 0.54442 0.0
H1300 H 0.46084 0.51785 0.53319 0.0
H1301 H 0.56217 0.50258 0.52101 0.0
H1302 H 0.54932 0.523 0.54855 0.0
H1303 H 0.55277 0.53353 0.51134 0.0
C1304 C 0.48693 0.56264 0.59303 0.0
C1305 C 0.49384 0.58565 0.58084 0.0
C1306 C 0.49096 0.54061 0.57756 0.0
C1307 C 0.50214 0.5412 0.5498 0.0
C1308 C 0.5113 0.56385 0.53896 0.0
H1309 H 0.51752 0.44242 0.40295 0.0
H1310 H 0.51038 0.479 0.43349 0.0
C1311 C 0.50737 0.58591 0.55449 0.0
C1312 C 0.50084 0.5191 0.53047 0.0
H1313 H 0.53577 0.48063 0.48769 0.0
C1314 C 0.47724 0.50951 0.52348 0.0
C1315 C 0.52222 0.50843 0.51765 0.0
C1316 C 0.54806 0.51725 0.52522 0.0
C1317 C 0.47443 0.48988 0.50348 0.0
C1318 C 0.49578 0.47948 0.49036 0.0
C1319 C 0.51939 0.48886 0.49758 0.0
C1320 C 0.49439 0.4584 0.46956 0.0
C1321 C 0.44865 0.48084 0.49599 0.0
C1322 C 0.48641 0.4349 0.47909 0.0
C1323 C 0.49027 0.41393 0.46155 0.0
C1324 C 0.5025 0.41618 0.43444 0.0
C1325 C 0.50816 0.44006 0.42378 0.0
C1326 C 0.50425 0.46098 0.44128 0.0
H1327 H 0.43416 0.49456 0.50231 0.0
H1328 H 0.44698 0.47696 0.47216 0.0
H1329 H 0.44492 0.46328 0.50799 0.0
H1330 H 0.47895 0.43248 0.50095 0.0
H1331 H 0.48582 0.39579 0.47046 0.0
H1332 H 0.06389 0.52118 0.39557 0.0
H1333 H 0.02664 0.50998 0.42311 0.0
H1334 H 0.07201 0.4746 0.48891 0.0
H1335 H 0.1095 0.48596 0.46163 0.0
H1336 H 0.00504 0.46623 0.44922 0.0
H1337 H 0.03927 0.53502 0.53095 0.0
H1338 H 0.05257 0.53221 0.4948 0.0
H1339 H 0.06012 0.50987 0.52268 0.0
C1340 C 0.06594 0.51025 0.41537 0.0
C1341 C 0.08965 0.50486 0.42673 0.0
C1342 C 0.04462 0.50395 0.43114 0.0
C1343 C 0.0467 0.49216 0.45842 0.0
C1344 C 0.07014 0.48419 0.46814 0.0
H1345 H 0.94035 0.46673 0.59693 0.0
H1346 H 0.97811 0.4735 0.56829 0.0
C1347 C 0.09152 0.49046 0.45236 0.0
C1348 C 0.02481 0.491 0.47798 0.0
H1349 H 0.00112 0.51532 0.54129 0.0
C1350 C 0.00416 0.47688 0.46939 0.0
C1351 C 0.02371 0.50519 0.50411 0.0
C1352 C 0.04498 0.52162 0.51368 0.0
C1353 C 0.98249 0.47624 0.48651 0.0
C1354 C 0.98136 0.49054 0.51255 0.0
C1355 C 0.00206 0.50454 0.52122 0.0
C1356 C 0.95909 0.49037 0.53157 0.0
C1357 C 0.96116 0.45993 0.4769 0.0
C1358 C 0.93613 0.49904 0.52111 0.0
C1359 C 0.91449 0.49534 0.53751 0.0
C1360 C 0.91555 0.48288 0.56457 0.0
C1361 C 0.9389 0.47627 0.57609 0.0
C1362 C 0.96049 0.48001 0.55971 0.0
H1363 H 0.96703 0.44604 0.46025 0.0
H1364 H 0.95299 0.44993 0.49589 0.0
H1365 H 0.94642 0.47171 0.46704 0.0
H1366 H 0.9348 0.50761 0.49968 0.0
H1367 H 0.89681 0.5007 0.52805 0.0
H1368 H 0.9962 0.89558 0.54041 0.0
H1369 H 0.98878 0.93288 0.51093 0.0
H1370 H 0.02636 0.97748 0.57577 0.0
H1371 H 0.0341 0.94033 0.60523 0.0
H1372 H 0.96733 0.98088 0.5205 0.0
H1373 H 0.06923 0.98543 0.50106 0.0
H1374 H 0.05426 0.95851 0.5168 0.0
H1375 H 0.06019 0.98549 0.53896 0.0
C1376 C 0.00221 0.91342 0.54886 0.0
C1377 C 0.01606 0.91497 0.57495 0.0
C1378 C 0.9981 0.93469 0.53188 0.0
C1379 C 0.00773 0.95774 0.54078 0.0
C1380 C 0.01936 0.95972 0.56819 0.0
H1381 H 0.01377 0.10419 0.46434 0.0
H1382 H 0.02252 0.0665 0.49253 0.0
C1383 C 0.02355 0.9385 0.58512 0.0
C1384 C 0.00728 0.97924 0.52052 0.0
H1385 H 0.04502 0.01835 0.48165 0.0
C1386 C 0.98428 0.98904 0.51191 0.0
C1387 C 0.02949 0.98971 0.50926 0.0
C1388 C 0.05471 0.97916 0.51673 0.0
C1389 C 0.98288 0.00946 0.49282 0.0
C1390 C 0.00508 0.01998 0.48164 0.0
C1391 C 0.02809 0.01015 0.49019 0.0
C1392 C 0.00457 0.04172 0.46176 0.0
C1393 C 0.95765 0.02 0.48531 0.0
C1394 C 0.99317 0.03997 0.4342 0.0
C1395 C 0.98823 0.06143 0.41798 0.0
C1396 C 0.99466 0.08497 0.4291 0.0
C1397 C 0.00853 0.08636 0.45519 0.0
C1398 C 0.0134 0.06485 0.47144 0.0
H1399 H 0.94302 0.01338 0.50062 0.0
H1400 H 0.958 0.04065 0.48579 0.0
H1401 H 0.95242 0.01408 0.46284 0.0
H1402 H 0.98674 0.02216 0.42607 0.0
H1403 H 0.9777 0.05971 0.39784 0.0
H1404 H 0.60632 0.98847 0.5328 0.0
H1405 H 0.56884 0.97807 0.50496 0.0
H1406 H 0.52333 0.00886 0.57369 0.0
H1407 H 0.56062 0.01952 0.60158 0.0
H1408 H 0.52173 0.95236 0.51598 0.0
H1409 H 0.51176 0.0545 0.50083 0.0
H1410 H 0.53995 0.04042 0.51443 0.0
H1411 H 0.51361 0.04416 0.53822 0.0
C1412 C 0.58833 0.9922 0.54251 0.0
C1413 C 0.58642 0.00521 0.56916 0.0
C1414 C 0.56694 0.98639 0.52647 0.0
C1415 C 0.54345 0.99341 0.53694 0.0
C1416 C 0.54137 0.00382 0.565 0.0
H1417 H 0.39576 0.99809 0.46266 0.0
H1418 H 0.43344 0.00575 0.49133 0.0
C1419 C 0.56271 0.0097 0.581 0.0
C1420 C 0.52153 0.99233 0.51739 0.0
H1421 H 0.48002 0.02921 0.48095 0.0
C1422 C 0.51261 0.96911 0.50825 0.0
C1423 C 0.50982 0.01431 0.50725 0.0
C1424 C 0.51933 0.0398 0.51543 0.0
C1425 C 0.49186 0.96725 0.48969 0.0
C1426 C 0.48014 0.98924 0.47957 0.0
C1427 C 0.4891 0.01244 0.48869 0.0
C1428 C 0.45816 0.98835 0.46006 0.0
C1429 C 0.4823 0.94176 0.48162 0.0
C1430 C 0.45985 0.97748 0.4322 0.0
C1431 C 0.4384 0.97317 0.41572 0.0
C1432 C 0.41491 0.97977 0.42682 0.0
C1433 C 0.41355 0.99278 0.4535 0.0
C1434 C 0.43505 0.99702 0.47001 0.0
H1435 H 0.48958 0.92715 0.49656 0.0
H1436 H 0.46167 0.94125 0.48219 0.0
H1437 H 0.48837 0.93715 0.45902 0.0
H1438 H 0.47763 0.97126 0.42381 0.0
H1439 H 0.44009 0.96327 0.39514 0.0
H1440 H 0.55513 0.33138 0.29998 0.0
H1441 H 0.53641 0.30334 0.2645 0.0
H1442 H 0.47438 0.29117 0.32268 0.0
H1443 H 0.49331 0.31933 0.3587 0.0
H1444 H 0.49702 0.24824 0.30799 0.0
H1445 H 0.48007 0.3007 0.20656 0.0
H1446 H 0.51045 0.30812 0.22005 0.0
H1447 H 0.48347 0.3159 0.24168 0.0
C1448 C 0.53711 0.32339 0.30488 0.0
C1449 C 0.52577 0.32743 0.3322 0.0
C1450 C 0.52627 0.30749 0.28442 0.0
C1451 C 0.50383 0.2953 0.29075 0.0
C1452 C 0.49159 0.30056 0.31723 0.0
H1453 H 0.49387 0.18492 0.15021 0.0
H1454 H 0.47472 0.21251 0.18667 0.0
C1455 C 0.50237 0.31672 0.33773 0.0
C1456 C 0.49602 0.27418 0.27193 0.0
H1457 H 0.49474 0.25746 0.19989 0.0
C1458 C 0.49564 0.25029 0.28439 0.0
C1459 C 0.49359 0.2767 0.24121 0.0
C1460 C 0.49163 0.30182 0.2267 0.0
C1461 C 0.49597 0.22893 0.26673 0.0
C1462 C 0.49711 0.2316 0.23593 0.0
C1463 C 0.49437 0.25535 0.22353 0.0
C1464 C 0.5058 0.21109 0.21674 0.0
C1465 C 0.49657 0.20376 0.28127 0.0
C1466 C 0.52935 0.20071 0.22185 0.0
C1467 C 0.54031 0.18514 0.20114 0.0
C1468 C 0.528 0.17963 0.17476 0.0
C1469 C 0.50373 0.18868 0.17044 0.0
C1470 C 0.4928 0.20451 0.19118 0.0
H1471 H 0.48584 0.20399 0.30208 0.0
H1472 H 0.48889 0.18907 0.26675 0.0
H1473 H 0.51609 0.19894 0.28676 0.0
H1474 H 0.54002 0.20592 0.24102 0.0
H1475 H 0.55901 0.17845 0.20514 0.0
H1476 H 0.18402 0.50236 0.35187 0.0
H1477 H 0.21092 0.48511 0.31338 0.0
H1478 H 0.20359 0.55314 0.26405 0.0
H1479 H 0.17668 0.57025 0.30186 0.0
H1480 H 0.20437 0.50954 0.22885 0.0
H1481 H 0.28241 0.51319 0.30934 0.0
H1482 H 0.25549 0.49476 0.31808 0.0
H1483 H 0.25299 0.52802 0.3167 0.0
C1484 C 0.18762 0.51334 0.33242 0.0
C1485 C 0.17855 0.53782 0.33009 0.0
C1486 C 0.20312 0.50352 0.31058 0.0
C1487 C 0.20959 0.51803 0.28615 0.0
C1488 C 0.19891 0.54165 0.28277 0.0
H1489 H 0.31926 0.57162 0.18654 0.0
H1490 H 0.29157 0.55461 0.22359 0.0
C1491 C 0.18361 0.55146 0.30451 0.0
C1492 C 0.22948 0.51048 0.26551 0.0
H1493 H 0.29275 0.51116 0.25975 0.0
C1494 C 0.22371 0.50905 0.23556 0.0
C1495 C 0.25467 0.50991 0.27445 0.0
C1496 C 0.26197 0.51163 0.30634 0.0
C1497 C 0.24248 0.50934 0.21417 0.0
C1498 C 0.26763 0.51086 0.2231 0.0
C1499 C 0.27343 0.50995 0.25306 0.0
C1500 C 0.2873 0.51886 0.20242 0.0
C1501 C 0.23522 0.51037 0.18224 0.0
C1502 C 0.29482 0.50405 0.17867 0.0
C1503 C 0.31081 0.51379 0.15726 0.0
C1504 C 0.3193 0.53851 0.15932 0.0
C1505 C 0.31285 0.55263 0.1841 0.0
C1506 C 0.29709 0.54289 0.2054 0.0
H1507 H 0.21474 0.51084 0.17914 0.0
H1508 H 0.2434 0.52709 0.17171 0.0
H1509 H 0.24261 0.49376 0.17075 0.0
H1510 H 0.28768 0.48534 0.17618 0.0
H1511 H 0.31547 0.50246 0.13843 0.0
H1512 H 0.94094 0.32588 0.20637 0.0
H1513 H 0.96147 0.29939 0.24203 0.0
H1514 H 0.02288 0.28874 0.18251 0.0
H1515 H 0.00202 0.31534 0.14626 0.0
H1516 H 0.00289 0.24536 0.19835 0.0
H1517 H 0.01801 0.29898 0.29909 0.0
H1518 H 0.98716 0.30512 0.28627 0.0
H1519 H 0.01347 0.31393 0.264 0.0
C1520 C 0.95923 0.31865 0.20123 0.0
C1521 C 0.96982 0.32259 0.17349 0.0
C1522 C 0.97111 0.30363 0.2218 0.0
C1523 C 0.99389 0.29221 0.21517 0.0
C1524 C 0.00542 0.29753 0.18823 0.0
H1525 H 0.00475 0.18363 0.35729 0.0
H1526 H 0.02422 0.2113 0.32109 0.0
C1527 C 0.99356 0.31283 0.1676 0.0
C1528 C 0.00271 0.27156 0.23416 0.0
H1529 H 0.00403 0.25533 0.30637 0.0
C1530 C 0.00405 0.24762 0.22193 0.0
C1531 C 0.00494 0.27433 0.26488 0.0
C1532 C 0.0061 0.29957 0.2792 0.0
C1533 C 0.00431 0.22637 0.23979 0.0
C1534 C 0.00271 0.22917 0.27056 0.0
C1535 C 0.00467 0.25308 0.28275 0.0
C1536 C 0.99413 0.20857 0.28975 0.0
C1537 C 0.00476 0.20111 0.22545 0.0
C1538 C 0.97107 0.19741 0.2839 0.0
C1539 C 0.95995 0.18179 0.30444 0.0
C1540 C 0.97158 0.177 0.33142 0.0
C1541 C 0.99544 0.18681 0.33657 0.0
C1542 C 0.00654 0.2027 0.31598 0.0
H1543 H 0.01605 0.20155 0.20507 0.0
H1544 H 0.01242 0.18669 0.24036 0.0
H1545 H 0.98555 0.19576 0.21922 0.0
H1546 H 0.96079 0.20207 0.26423 0.0
H1547 H 0.94157 0.17452 0.29981 0.0
H1548 H 0.32603 0.94244 0.29018 0.0
H1549 H 0.29817 0.96454 0.2575 0.0
H1550 H 0.28927 0.02263 0.3219 0.0
H1551 H 0.31717 8e-05 0.35524 0.0
H1552 H 0.24569 0.00422 0.30707 0.0
H1553 H 0.29467 0.02306 0.20428 0.0
H1554 H 0.30156 0.99167 0.21446 0.0
H1555 H 0.31127 0.01691 0.23797 0.0
C1556 C 0.31886 0.96035 0.29704 0.0
C1557 C 0.32365 0.96944 0.32534 0.0
C1558 C 0.30306 0.97317 0.27816 0.0
C1559 C 0.29174 0.99547 0.287 0.0
C1560 C 0.29794 0.00558 0.31448 0.0
H1561 H 0.18 0.00295 0.15002 0.0
H1562 H 0.20685 0.02469 0.18521 0.0
C1563 C 0.31398 0.99274 0.33345 0.0
C1564 C 0.27033 0.00501 0.26974 0.0
H1565 H 0.25106 0.00751 0.19868 0.0
C1566 C 0.24695 0.0059 0.28343 0.0
C1567 C 0.27173 0.00811 0.239 0.0
C1568 C 0.29627 0.01018 0.22323 0.0
C1569 C 0.22495 0.0062 0.26686 0.0
C1570 C 0.22645 0.00496 0.23593 0.0
C1571 C 0.24975 0.00774 0.2224 0.0
C1572 C 0.20546 0.99552 0.21788 0.0
C1573 C 0.20037 0.00621 0.28271 0.0
C1574 C 0.19505 0.97232 0.22489 0.0
C1575 C 0.17981 0.95996 0.20496 0.0
C1576 C 0.17473 0.97041 0.17739 0.0
C1577 C 0.18345 0.99452 0.1712 0.0
C1578 C 0.19889 0.0069 0.19123 0.0
H1579 H 0.2014 0.01805 0.30263 0.0
H1580 H 0.18505 0.01305 0.26852 0.0
H1581 H 0.19596 0.98702 0.29001 0.0
H1582 H 0.20026 0.96275 0.24486 0.0
H1583 H 0.17336 0.94143 0.21039 0.0
H1584 H 0.44132 0.8323 0.79422 0.0
H1585 H 0.46168 0.80431 0.76004 0.0
H1586 H 0.52437 0.79788 0.81856 0.0
H1587 H 0.50356 0.82562 0.85359 0.0
H1588 H 0.50566 0.79873 0.73013 0.0
H1589 H 0.49664 0.72761 0.81859 0.0
H1590 H 0.4828 0.75796 0.82216 0.0
H1591 H 0.51589 0.75432 0.82531 0.0
C1592 C 0.45974 0.82549 0.79955 0.0
C1593 C 0.47059 0.83073 0.82686 0.0
C1594 C 0.47144 0.80952 0.7799 0.0
C1595 C 0.49425 0.79844 0.78708 0.0
C1596 C 0.50649 0.80578 0.81289 0.0
H1597 H 0.50489 0.68283 0.65013 0.0
H1598 H 0.52476 0.71125 0.68524 0.0
C1599 C 0.4947 0.82185 0.83274 0.0
C1600 C 0.50261 0.77682 0.76938 0.0
H1601 H 0.49976 0.71339 0.77065 0.0
C1602 C 0.50523 0.78002 0.73899 0.0
C1603 C 0.50211 0.75242 0.78109 0.0
C1604 C 0.49912 0.74767 0.81352 0.0
C1605 C 0.50449 0.75963 0.71976 0.0
C1606 C 0.50157 0.73538 0.73139 0.0
C1607 C 0.5019 0.73202 0.76188 0.0
C1608 C 0.49228 0.71462 0.71296 0.0
C1609 C 0.50423 0.76442 0.68717 0.0
C1610 C 0.46803 0.70597 0.71787 0.0
C1611 C 0.4568 0.68971 0.69816 0.0
C1612 C 0.46955 0.68168 0.67302 0.0
C1613 C 0.49456 0.68875 0.66927 0.0
C1614 C 0.50586 0.70516 0.68914 0.0
H1615 H 0.50449 0.78459 0.68188 0.0
H1616 H 0.52079 0.75569 0.67697 0.0
H1617 H 0.48742 0.75602 0.67708 0.0
H1618 H 0.45721 0.71292 0.73615 0.0
H1619 H 0.43763 0.6844 0.70193 0.0
H1620 H 0.79036 0.482 0.63579 0.0
H1621 H 0.76374 0.49864 0.67417 0.0
H1622 H 0.82421 0.49265 0.73608 0.0
H1623 H 0.85039 0.47441 0.69766 0.0
H1624 H 0.78844 0.46784 0.75493 0.0
H1625 H 0.74641 0.55655 0.72216 0.0
H1626 H 0.74265 0.53524 0.69239 0.0
H1627 H 0.77352 0.54434 0.70377 0.0
C1628 C 0.79826 0.48539 0.65728 0.0
C1629 C 0.82239 0.4773 0.66385 0.0
C1630 C 0.78306 0.49509 0.67928 0.0
C1631 C 0.7919 0.49726 0.70817 0.0
C1632 C 0.81693 0.4913 0.714 0.0
H1633 H 0.6879 0.4972 0.85792 0.0
H1634 H 0.71877 0.51567 0.82475 0.0
C1635 C 0.83197 0.48105 0.69206 0.0
C1636 C 0.7738 0.50011 0.73266 0.0
H1637 H 0.71893 0.52838 0.75096 0.0
C1638 C 0.77381 0.48171 0.75454 0.0
C1639 C 0.75452 0.51812 0.73252 0.0
C1640 C 0.7545 0.53979 0.71157 0.0
C1641 C 0.75422 0.47959 0.77455 0.0
C1642 C 0.73379 0.49597 0.77239 0.0
C1643 C 0.73447 0.51557 0.75215 0.0
C1644 C 0.71077 0.49066 0.78888 0.0
C1645 C 0.75468 0.45875 0.79674 0.0
C1646 C 0.69534 0.47137 0.77904 0.0
C1647 C 0.678 0.46066 0.79793 0.0
C1648 C 0.67564 0.46927 0.82685 0.0
C1649 C 0.68917 0.49039 0.83563 0.0
C1650 C 0.70684 0.50093 0.81676 0.0
H1651 H 0.77348 0.45039 0.79891 0.0
H1652 H 0.74862 0.46559 0.81856 0.0
H1653 H 0.74154 0.44395 0.78982 0.0
H1654 H 0.69823 0.46317 0.75762 0.0
H1655 H 0.6678 0.44442 0.79063 0.0
H1656 H 0.99762 0.82122 0.65216 0.0
H1657 H 0.97605 0.7949 0.68803 0.0
H1658 H 0.03869 0.80141 0.74662 0.0
H1659 H 0.05988 0.82781 0.71147 0.0
H1660 H 0.99303 0.75054 0.70218 0.0
H1661 H 0.98371 0.80233 0.80503 0.0
H1662 H 0.98881 0.81791 0.77045 0.0
H1663 H 0.01474 0.80677 0.7919 0.0
C1664 C 0.00628 0.81786 0.67323 0.0
C1665 C 0.03052 0.82644 0.67894 0.0
C1666 C 0.99399 0.80272 0.69365 0.0
C1667 C 0.00559 0.79629 0.72021 0.0
C1668 C 0.02898 0.80651 0.72672 0.0
H1669 H 0.05261 0.67328 0.79775 0.0
H1670 H 0.0335 0.70238 0.76392 0.0
C1671 C 0.04125 0.82146 0.70639 0.0
C1672 C 0.99598 0.77574 0.73884 0.0
H1673 H 0.99554 0.75774 0.81046 0.0
C1674 C 0.99268 0.75226 0.72586 0.0
C1675 C 0.99469 0.77782 0.76971 0.0
C1676 C 0.99539 0.80269 0.78496 0.0
C1677 C 0.99144 0.73061 0.743 0.0
C1678 C 0.99416 0.73247 0.77376 0.0
C1679 C 0.99409 0.75613 0.78683 0.0
C1680 C 0.00207 0.71089 0.79187 0.0
C1681 C 0.98872 0.70586 0.72781 0.0
C1682 C 0.99066 0.70553 0.81887 0.0
C1683 C 0.00175 0.68878 0.83851 0.0
C1684 C 0.02461 0.67751 0.83156 0.0
C1685 C 0.03501 0.68167 0.80375 0.0
C1686 C 0.02392 0.69819 0.7842 0.0
H1687 H 0.97649 0.7076 0.70828 0.0
H1688 H 0.00722 0.69956 0.72 0.0
H1689 H 0.9809 0.69149 0.74266 0.0
H1690 H 0.97392 0.71527 0.82538 0.0
H1691 H 0.99342 0.68611 0.85989 0.0
H1692 H 0.67092 0.06268 0.69947 0.0
H1693 H 0.70094 0.04596 0.7344 0.0
H1694 H 0.71725 0.98553 0.67542 0.0
H1695 H 0.68684 0.00207 0.64021 0.0
H1696 H 0.71686 0.97656 0.74518 0.0
H1697 H 0.77629 0.05193 0.70042 0.0
H1698 H 0.74524 0.06133 0.70993 0.0
H1699 H 0.74997 0.03943 0.68072 0.0
C1700 C 0.6803 0.0454 0.69428 0.0
C1701 C 0.67673 0.03382 0.66699 0.0
C1702 C 0.69741 0.03586 0.71427 0.0
C1703 C 0.71144 0.01472 0.70728 0.0
C1704 C 0.70651 0.00185 0.68117 0.0
H1705 H 0.84852 0.02384 0.80581 0.0
H1706 H 0.82252 0.00758 0.76599 0.0
C1707 C 0.68911 0.0113 0.66114 0.0
C1708 C 0.73352 0.00879 0.72528 0.0
H1709 H 0.78834 0.03485 0.74628 0.0
C1710 C 0.7328 0.98891 0.74515 0.0
C1711 C 0.75454 0.02452 0.72459 0.0
C1712 C 0.75679 0.04539 0.7026 0.0
C1713 C 0.7519 0.98551 0.76589 0.0
C1714 C 0.77175 0.00284 0.76712 0.0
C1715 C 0.77322 0.02152 0.74564 0.0
C1716 C 0.78917 0.00456 0.79243 0.0
C1717 C 0.75029 0.96368 0.78654 0.0
C1718 C 0.77957 0.00698 0.82094 0.0
C1719 C 0.7946 0.01561 0.84373 0.0
C1720 C 0.81937 0.02231 0.83834 0.0
C1721 C 0.82958 0.01824 0.81051 0.0
C1722 C 0.81466 0.00913 0.78777 0.0
H1723 H 0.74172 0.9474 0.77545 0.0
H1724 H 0.76886 0.9582 0.79498 0.0
H1725 H 0.73818 0.96865 0.80534 0.0
H1726 H 0.75993 0.00444 0.82513 0.0
H1727 H 0.78623 0.01929 0.8649 0.0
loop_
_geom_bond_atom_site_label_1
_geom_bond_atom_site_label_2
_geom_bond_distance
_geom_bond_site_symmetry_2
_ccdc_geom_bond_type
Mn0 O5 2.095 . S
Mn0 O15 2.162 . S
Mn0 O16 2.297 . S
Mn0 O24 2.385 . S
Mn0 O25 2.209 . S
Mn0 O26 2.094 . S
Mn1 O6 2.121 . S
Mn1 N8 2.257 . S
Mn1 N17 2.282 . S
Mn1 O25 2.215 . S
Mn1 O27 2.117 . S
C2 O24 1.234 . S
C2 O25 1.283 . S
C3 O15 1.281 . S
C3 O16 1.236 . S
C4 O26 1.240 . S
C4 O27 1.264 . S
O5 Mn0 2.095 . S
O5 C14 1.250 . S
O6 Mn1 2.121 . S
O6 C14 1.258 . S
C7 N8 1.326 . S
C7 C11 1.460 . S
C7 H13 0.929 . S
N8 Mn1 2.257 . S
N8 C7 1.326 . S
N8 C12 1.362 . S
C9 C10 1.258 . S
C9 C12 1.431 . S
C9 C29 1.449 . S
C10 C9 1.258 . S
C10 C11 1.477 . S
C10 H30 0.931 . S
C11 C7 1.460 . S
C11 C10 1.477 . S
C11 H31 0.930 . S
C12 N8 1.362 . S
C12 C9 1.431 . S
C12 C22 1.476 . S
H13 C7 0.929 . S
C14 O5 1.250 . S
C14 O6 1.258 . S
O15 Mn0 2.162 . S
O15 C3 1.281 . S
O16 Mn0 2.297 . S
O16 C3 1.236 . S
N17 Mn1 2.282 . S
N17 C18 1.328 . S
N17 C22 1.318 . S
C18 N17 1.328 . S
C18 C19 1.457 . S
C18 H23 0.929 . S
C19 C18 1.457 . S
C19 C20 1.291 . S
C19 H32 0.931 1_554 S
C20 C19 1.291 . S
C20 C21 1.373 . S
C20 H33 0.929 . S
C21 C20 1.373 . S
C21 C22 1.396 . S
C21 C28 1.403 . S
C22 C12 1.476 . S
C22 N17 1.318 . S
C22 C21 1.396 . S
H23 C18 0.929 . S
O24 Mn0 2.385 . S
O24 C2 1.234 . S
O25 Mn0 2.209 . S
O25 Mn1 2.215 . S
O25 C2 1.283 . S
O26 Mn0 2.094 . S
O26 C4 1.240 . S
O27 Mn1 2.117 . S
O27 C4 1.264 . S
C28 C21 1.403 . S
C28 C29 1.399 . S
C28 H34 0.929 . S
C29 C9 1.449 . S
C29 C28 1.399 . S
C29 H35 0.930 . S
H30 C10 0.931 . S
H31 C11 0.930 . S
H32 C19 0.931 1_556 S
H33 C20 0.929 . S
H34 C28 0.929 . S
H35 C29 0.930 . S
Mn36 O41 2.095 . S
Mn36 O51 2.162 . S
Mn36 O52 2.297 . S
Mn36 O60 2.385 . S
Mn36 O61 2.209 . S
Mn36 O62 2.094 . S
Mn37 O42 2.121 . S
Mn37 N44 2.257 . S
Mn37 N53 2.282 . S
Mn37 O61 2.215 . S
Mn37 O63 2.117 . S
C38 O60 1.234 . S
C38 O61 1.283 . S
C39 O51 1.281 . S
C39 O52 1.236 . S
C40 O62 1.240 . S
C40 O63 1.264 . S
O41 Mn36 2.095 . S
O41 C50 1.250 . S
O42 Mn37 2.121 . S
O42 C50 1.258 . S
C43 N44 1.326 . S
C43 C47 1.460 . S
C43 H49 0.929 . S
N44 Mn37 2.257 . S
N44 C43 1.326 . S
N44 C48 1.362 . S
C45 C46 1.258 . S
C45 C48 1.431 . S
C45 C65 1.449 . S
C46 C45 1.258 . S
C46 C47 1.477 . S
C46 H66 0.931 . S
C47 C43 1.460 . S
C47 C46 1.477 . S
C47 H67 0.930 . S
C48 N44 1.362 . S
C48 C45 1.431 . S
C48 C58 1.476 . S
H49 C43 0.929 . S
C50 O41 1.250 . S
C50 O42 1.258 . S
O51 Mn36 2.162 . S
O51 C39 1.281 . S
O52 Mn36 2.297 . S
O52 C39 1.236 . S
N53 Mn37 2.282 . S
N53 C54 1.328 . S
N53 C58 1.318 . S
C54 N53 1.328 . S
C54 C55 1.457 . S
C54 H59 0.929 . S
C55 C54 1.457 . S
C55 C56 1.291 . S
C55 H68 0.931 1_554 S
C56 C55 1.291 . S
C56 C57 1.373 . S
C56 H69 0.929 . S
C57 C56 1.373 . S
C57 C58 1.396 . S
C57 C64 1.403 . S
C58 C48 1.476 . S
C58 N53 1.318 . S
C58 C57 1.396 . S
H59 C54 0.929 . S
O60 Mn36 2.385 . S
O60 C38 1.234 . S
O61 Mn36 2.209 . S
O61 Mn37 2.215 . S
O61 C38 1.283 . S
O62 Mn36 2.094 . S
O62 C40 1.240 . S
O63 Mn37 2.117 . S
O63 C40 1.264 . S
C64 C57 1.403 . S
C64 C65 1.399 . S
C64 H70 0.929 . S
C65 C45 1.449 . S
C65 C64 1.399 . S
C65 H71 0.930 . S
H66 C46 0.931 . S
H67 C47 0.930 . S
H68 C55 0.931 1_556 S
H69 C56 0.929 . S
H70 C64 0.929 . S
H71 C65 0.930 . S
Mn72 O77 2.095 . S
Mn72 O87 2.162 . S
Mn72 O88 2.297 . S
Mn72 O96 2.385 . S
Mn72 O97 2.209 . S
Mn72 O98 2.094 . S
Mn73 O78 2.121 . S
Mn73 N80 2.257 . S
Mn73 N89 2.282 . S
Mn73 O97 2.215 . S
Mn73 O99 2.117 . S
C74 O96 1.234 . S
C74 O97 1.283 . S
C75 O87 1.281 . S
C75 O88 1.236 . S
C76 O98 1.240 . S
C76 O99 1.264 . S
O77 Mn72 2.095 . S
O77 C86 1.250 . S
O78 Mn73 2.121 . S
O78 C86 1.258 . S
C79 N80 1.326 . S
C79 C83 1.460 . S
C79 H85 0.929 . S
N80 Mn73 2.257 . S
N80 C79 1.326 . S
N80 C84 1.362 . S
C81 C82 1.258 . S
C81 C84 1.431 . S
C81 C101 1.449 . S
C82 C81 1.258 . S
C82 C83 1.477 . S
C82 H102 0.931 . S
C83 C79 1.460 . S
C83 C82 1.477 . S
C83 H103 0.930 . S
C84 N80 1.362 . S
C84 C81 1.431 . S
C84 C94 1.476 . S
H85 C79 0.929 . S
C86 O77 1.250 . S
C86 O78 1.258 . S
O87 Mn72 2.162 . S
O87 C75 1.281 . S
O88 Mn72 2.297 . S
O88 C75 1.236 . S
N89 Mn73 2.282 . S
N89 C90 1.328 . S
N89 C94 1.318 . S
C90 N89 1.328 . S
C90 C91 1.457 . S
C90 H95 0.929 . S
C91 C90 1.457 . S
C91 C92 1.291 . S
C91 H104 0.931 1_554 S
C92 C91 1.291 . S
C92 C93 1.373 . S
C92 H105 0.929 . S
C93 C92 1.373 . S
C93 C94 1.396 . S
C93 C100 1.403 . S
C94 C84 1.476 . S
C94 N89 1.318 . S
C94 C93 1.396 . S
H95 C90 0.929 . S
O96 Mn72 2.385 . S
O96 C74 1.234 . S
O97 Mn72 2.209 . S
O97 Mn73 2.215 . S
O97 C74 1.283 . S
O98 Mn72 2.094 . S
O98 C76 1.240 . S
O99 Mn73 2.117 . S
O99 C76 1.264 . S
C100 C93 1.403 . S
C100 C101 1.399 . S
C100 H106 0.929 . S
C101 C81 1.449 . S
C101 C100 1.399 . S
C101 H107 0.930 . S
H102 C82 0.931 . S
H103 C83 0.930 . S
H104 C91 0.931 1_556 S
H105 C92 0.929 . S
H106 C100 0.929 . S
H107 C101 0.930 . S
Mn108 O113 2.095 . S
Mn108 O123 2.162 . S
Mn108 O124 2.297 . S
Mn108 O132 2.385 . S
Mn108 O133 2.209 . S
Mn108 O134 2.094 . S
Mn109 O114 2.121 . S
Mn109 N116 2.257 . S
Mn109 N125 2.282 . S
Mn109 O133 2.215 . S
Mn109 O135 2.117 . S
C110 O132 1.234 . S
C110 O133 1.283 . S
C111 O123 1.281 . S
C111 O124 1.236 . S
C112 O134 1.240 . S
C112 O135 1.264 . S
O113 Mn108 2.095 . S
O113 C122 1.250 . S
O114 Mn109 2.121 . S
O114 C122 1.258 . S
C115 N116 1.326 . S
C115 C119 1.460 . S
C115 H121 0.929 . S
N116 Mn109 2.257 . S
N116 C115 1.326 . S
N116 C120 1.362 . S
C117 C118 1.258 . S
C117 C120 1.431 . S
C117 C137 1.449 . S
C118 C117 1.258 . S
C118 C119 1.477 . S
C118 H138 0.931 . S
C119 C115 1.460 . S
C119 C118 1.477 . S
C119 H139 0.930 . S
C120 N116 1.362 . S
C120 C117 1.431 . S
C120 C130 1.476 . S
H121 C115 0.929 . S
C122 O113 1.250 . S
C122 O114 1.258 . S
O123 Mn108 2.162 . S
O123 C111 1.281 . S
O124 Mn108 2.297 . S
O124 C111 1.236 . S
N125 Mn109 2.282 . S
N125 C126 1.328 . S
N125 C130 1.318 . S
C126 N125 1.328 . S
C126 C127 1.457 . S
C126 H131 0.929 . S
C127 C126 1.457 . S
C127 C128 1.291 . S
C127 H140 0.931 1_554 S
C128 C127 1.291 . S
C128 C129 1.373 . S
C128 H141 0.929 . S
C129 C128 1.373 . S
C129 C130 1.396 . S
C129 C136 1.403 . S
C130 C120 1.476 . S
C130 N125 1.318 . S
C130 C129 1.396 . S
H131 C126 0.929 . S
O132 Mn108 2.385 . S
O132 C110 1.234 . S
O133 Mn108 2.209 . S
O133 Mn109 2.215 . S
O133 C110 1.283 . S
O134 Mn108 2.094 . S
O134 C112 1.240 . S
O135 Mn109 2.117 . S
O135 C112 1.264 . S
C136 C129 1.403 . S
C136 C137 1.399 . S
C136 H142 0.929 . S
C137 C117 1.449 . S
C137 C136 1.399 . S
C137 H143 0.930 . S
H138 C118 0.931 . S
H139 C119 0.930 . S
H140 C127 0.931 1_556 S
H141 C128 0.929 . S
H142 C136 0.929 . S
H143 C137 0.930 . S
Mn144 O149 2.095 . S
Mn144 O159 2.162 . S
Mn144 O160 2.297 . S
Mn144 O168 2.385 . S
Mn144 O169 2.209 . S
Mn144 O170 2.094 . S
Mn145 O150 2.121 . S
Mn145 N152 2.257 . S
Mn145 N161 2.282 . S
Mn145 O169 2.215 . S
Mn145 O171 2.117 . S
C146 O168 1.234 . S
C146 O169 1.283 . S
C147 O159 1.281 . S
C147 O160 1.236 . S
C148 O170 1.240 . S
C148 O171 1.264 . S
O149 Mn144 2.095 . S
O149 C158 1.250 . S
O150 Mn145 2.121 . S
O150 C158 1.258 . S
C151 N152 1.326 . S
C151 C155 1.460 . S
C151 H157 0.929 . S
N152 Mn145 2.257 . S
N152 C151 1.326 . S
N152 C156 1.362 . S
C153 C154 1.258 . S
C153 C156 1.431 . S
C153 C173 1.449 . S
C154 C153 1.258 . S
C154 C155 1.477 . S
C154 H174 0.931 . S
C155 C151 1.460 . S
C155 C154 1.477 . S
C155 H175 0.930 . S
C156 N152 1.362 . S
C156 C153 1.431 . S
C156 C166 1.476 . S
H157 C151 0.929 . S
C158 O149 1.250 . S
C158 O150 1.258 . S
O159 Mn144 2.162 . S
O159 C147 1.281 . S
O160 Mn144 2.297 . S
O160 C147 1.236 . S
N161 Mn145 2.282 . S
N161 C162 1.328 . S
N161 C166 1.318 . S
C162 N161 1.328 . S
C162 C163 1.457 . S
C162 H167 0.929 . S
C163 C162 1.457 . S
C163 C164 1.291 . S
C163 H176 0.931 . S
C164 C163 1.291 . S
C164 C165 1.373 . S
C164 H177 0.929 . S
C165 C164 1.373 . S
C165 C166 1.396 . S
C165 C172 1.403 . S
C166 C156 1.476 . S
C166 N161 1.318 . S
C166 C165 1.396 . S
H167 C162 0.929 . S
O168 Mn144 2.385 . S
O168 C146 1.234 . S
O169 Mn144 2.209 . S
O169 Mn145 2.215 . S
O169 C146 1.283 . S
O170 Mn144 2.094 . S
O170 C148 1.240 . S
O171 Mn145 2.117 . S
O171 C148 1.264 . S
C172 C165 1.403 . S
C172 C173 1.399 . S
C172 H178 0.929 . S
C173 C153 1.449 . S
C173 C172 1.399 . S
C173 H179 0.930 . S
H174 C154 0.931 . S
H175 C155 0.930 . S
H176 C163 0.931 . S
H177 C164 0.929 . S
H178 C172 0.929 . S
H179 C173 0.930 . S
Mn180 O185 2.095 . S
Mn180 O195 2.162 . S
Mn180 O196 2.297 . S
Mn180 O204 2.385 . S
Mn180 O205 2.209 . S
Mn180 O206 2.094 . S
Mn181 O186 2.121 . S
Mn181 N188 2.257 . S
Mn181 N197 2.282 . S
Mn181 O205 2.215 . S
Mn181 O207 2.117 . S
C182 O204 1.234 . S
C182 O205 1.283 . S
C183 O195 1.281 . S
C183 O196 1.236 . S
C184 O206 1.240 . S
C184 O207 1.264 . S
O185 Mn180 2.095 . S
O185 C194 1.250 . S
O186 Mn181 2.121 . S
O186 C194 1.258 . S
C187 N188 1.326 . S
C187 C191 1.460 . S
C187 H193 0.929 . S
N188 Mn181 2.257 . S
N188 C187 1.326 . S
N188 C192 1.362 . S
C189 C190 1.258 . S
C189 C192 1.431 . S
C189 C209 1.449 . S
C190 C189 1.258 . S
C190 C191 1.477 . S
C190 H210 0.931 . S
C191 C187 1.460 . S
C191 C190 1.477 . S
C191 H211 0.930 . S
C192 N188 1.362 . S
C192 C189 1.431 . S
C192 C202 1.476 . S
H193 C187 0.929 . S
C194 O185 1.250 . S
C194 O186 1.258 . S
O195 Mn180 2.162 . S
O195 C183 1.281 . S
O196 Mn180 2.297 . S
O196 C183 1.236 . S
N197 Mn181 2.282 . S
N197 C198 1.328 . S
N197 C202 1.318 . S
C198 N197 1.328 . S
C198 C199 1.457 . S
C198 H203 0.929 . S
C199 C198 1.457 . S
C199 C200 1.291 . S
C199 H212 0.931 . S
C200 C199 1.291 . S
C200 C201 1.373 . S
C200 H213 0.929 . S
C201 C200 1.373 . S
C201 C202 1.396 . S
C201 C208 1.403 . S
C202 C192 1.476 . S
C202 N197 1.318 . S
C202 C201 1.396 . S
H203 C198 0.929 . S
O204 Mn180 2.385 . S
O204 C182 1.234 . S
O205 Mn180 2.209 . S
O205 Mn181 2.215 . S
O205 C182 1.283 . S
O206 Mn180 2.094 . S
O206 C184 1.240 . S
O207 Mn181 2.117 . S
O207 C184 1.264 . S
C208 C201 1.403 . S
C208 C209 1.399 . S
C208 H214 0.929 . S
C209 C189 1.449 . S
C209 C208 1.399 . S
C209 H215 0.930 . S
H210 C190 0.931 . S
H211 C191 0.930 . S
H212 C199 0.931 . S
H213 C200 0.929 . S
H214 C208 0.929 . S
H215 C209 0.930 . S
Mn216 O221 2.095 . S
Mn216 O231 2.162 . S
Mn216 O232 2.297 . S
Mn216 O240 2.385 . S
Mn216 O241 2.209 . S
Mn216 O242 2.094 . S
Mn217 O222 2.121 . S
Mn217 N224 2.257 . S
Mn217 N233 2.282 . S
Mn217 O241 2.215 . S
Mn217 O243 2.117 . S
C218 O240 1.234 . S
C218 O241 1.283 . S
C219 O231 1.281 . S
C219 O232 1.236 . S
C220 O242 1.240 . S
C220 O243 1.264 . S
O221 Mn216 2.095 . S
O221 C230 1.250 . S
O222 Mn217 2.121 . S
O222 C230 1.258 . S
C223 N224 1.326 . S
C223 C227 1.460 . S
C223 H229 0.929 . S
N224 Mn217 2.257 . S
N224 C223 1.326 . S
N224 C228 1.362 . S
C225 C226 1.258 . S
C225 C228 1.431 . S
C225 C245 1.449 . S
C226 C225 1.258 . S
C226 C227 1.477 . S
C226 H246 0.931 . S
C227 C223 1.460 . S
C227 C226 1.477 . S
C227 H247 0.930 . S
C228 N224 1.362 . S
C228 C225 1.431 . S
C228 C238 1.476 . S
H229 C223 0.929 . S
C230 O221 1.250 . S
C230 O222 1.258 . S
O231 Mn216 2.162 . S
O231 C219 1.281 . S
O232 Mn216 2.297 . S
O232 C219 1.236 . S
N233 Mn217 2.282 . S
N233 C234 1.328 . S
N233 C238 1.318 . S
C234 N233 1.328 . S
C234 C235 1.457 . S
C234 H239 0.929 . S
C235 C234 1.457 . S
C235 C236 1.291 . S
C235 H248 0.931 . S
C236 C235 1.291 . S
C236 C237 1.373 . S
C236 H249 0.929 . S
C237 C236 1.373 . S
C237 C238 1.396 . S
C237 C244 1.403 . S
C238 C228 1.476 . S
C238 N233 1.318 . S
C238 C237 1.396 . S
H239 C234 0.929 . S
O240 Mn216 2.385 . S
O240 C218 1.234 . S
O241 Mn216 2.209 . S
O241 Mn217 2.215 . S
O241 C218 1.283 . S
O242 Mn216 2.094 . S
O242 C220 1.240 . S
O243 Mn217 2.117 . S
O243 C220 1.264 . S
C244 C237 1.403 . S
C244 C245 1.399 . S
C244 H250 0.929 . S
C245 C225 1.449 . S
C245 C244 1.399 . S
C245 H251 0.930 . S
H246 C226 0.931 . S
H247 C227 0.930 . S
H248 C235 0.931 . S
H249 C236 0.929 . S
H250 C244 0.929 . S
H251 C245 0.930 . S
Mn252 O257 2.095 . S
Mn252 O267 2.162 . S
Mn252 O268 2.297 . S
Mn252 O276 2.385 . S
Mn252 O277 2.209 . S
Mn252 O278 2.094 . S
Mn253 O258 2.121 . S
Mn253 N260 2.257 . S
Mn253 N269 2.282 . S
Mn253 O277 2.215 . S
Mn253 O279 2.117 . S
C254 O276 1.234 . S
C254 O277 1.283 . S
C255 O267 1.281 . S
C255 O268 1.236 . S
C256 O278 1.240 . S
C256 O279 1.264 . S
O257 Mn252 2.095 . S
O257 C266 1.250 . S
O258 Mn253 2.121 . S
O258 C266 1.258 . S
C259 N260 1.326 . S
C259 C263 1.460 . S
C259 H265 0.929 . S
N260 Mn253 2.257 . S
N260 C259 1.326 . S
N260 C264 1.362 . S
C261 C262 1.258 . S
C261 C264 1.431 . S
C261 C281 1.449 . S
C262 C261 1.258 . S
C262 C263 1.477 . S
C262 H282 0.931 . S
C263 C259 1.460 . S
C263 C262 1.477 . S
C263 H283 0.930 . S
C264 N260 1.362 . S
C264 C261 1.431 . S
C264 C274 1.476 . S
H265 C259 0.929 . S
C266 O257 1.250 . S
C266 O258 1.258 . S
O267 Mn252 2.162 . S
O267 C255 1.281 . S
O268 Mn252 2.297 . S
O268 C255 1.236 . S
N269 Mn253 2.282 . S
N269 C270 1.328 . S
N269 C274 1.318 . S
C270 N269 1.328 . S
C270 C271 1.457 . S
C270 H275 0.929 . S
C271 C270 1.457 . S
C271 C272 1.291 . S
C271 H284 0.931 . S
C272 C271 1.291 . S
C272 C273 1.373 . S
C272 H285 0.929 . S
C273 C272 1.373 . S
C273 C274 1.396 . S
C273 C280 1.403 . S
C274 C264 1.476 . S
C274 N269 1.318 . S
C274 C273 1.396 . S
H275 C270 0.929 . S
O276 Mn252 2.385 . S
O276 C254 1.234 . S
O277 Mn252 2.209 . S
O277 Mn253 2.215 . S
O277 C254 1.283 . S
O278 Mn252 2.094 . S
O278 C256 1.240 . S
O279 Mn253 2.117 . S
O279 C256 1.264 . S
C280 C273 1.403 . S
C280 C281 1.399 . S
C280 H286 0.929 . S
C281 C261 1.449 . S
C281 C280 1.399 . S
C281 H287 0.930 . S
H282 C262 0.931 . S
H283 C263 0.930 . S
H284 C271 0.931 . S
H285 C272 0.929 . S
H286 C280 0.929 . S
H287 C281 0.930 . S
Mn288 O293 2.095 . S
Mn288 O303 2.162 . S
Mn288 O304 2.297 . S
Mn288 O312 2.385 . S
Mn288 O313 2.209 . S
Mn288 O314 2.094 . S
Mn289 O294 2.121 . S
Mn289 N296 2.257 . S
Mn289 N305 2.282 . S
Mn289 O313 2.215 . S
Mn289 O315 2.117 . S
C290 O312 1.234 . S
C290 O313 1.283 . S
C291 O303 1.281 . S
C291 O304 1.236 . S
C292 O314 1.240 . S
C292 O315 1.264 . S
O293 Mn288 2.095 . S
O293 C302 1.250 . S
O294 Mn289 2.121 . S
O294 C302 1.258 . S
C295 N296 1.326 . S
C295 C299 1.460 . S
C295 H301 0.929 . S
N296 Mn289 2.257 . S
N296 C295 1.326 . S
N296 C300 1.362 . S
C297 C298 1.258 . S
C297 C300 1.431 . S
C297 C317 1.449 . S
C298 C297 1.258 . S
C298 C299 1.477 . S
C298 H318 0.931 . S
C299 C295 1.460 . S
C299 C298 1.477 . S
C299 H319 0.930 . S
C300 N296 1.362 . S
C300 C297 1.431 . S
C300 C310 1.476 . S
H301 C295 0.929 . S
C302 O293 1.250 . S
C302 O294 1.258 . S
O303 Mn288 2.162 . S
O303 C291 1.281 . S
O304 Mn288 2.297 . S
O304 C291 1.236 . S
N305 Mn289 2.282 . S
N305 C306 1.328 . S
N305 C310 1.318 . S
C306 N305 1.328 . S
C306 C307 1.457 . S
C306 H311 0.929 . S
C307 C306 1.457 . S
C307 C308 1.291 . S
C307 H320 0.931 1_556 S
C308 C307 1.291 . S
C308 C309 1.373 . S
C308 H321 0.929 . S
C309 C308 1.373 . S
C309 C310 1.396 . S
C309 C316 1.403 . S
C310 C300 1.476 . S
C310 N305 1.318 . S
C310 C309 1.396 . S
H311 C306 0.929 . S
O312 Mn288 2.385 . S
O312 C290 1.234 . S
O313 Mn288 2.209 . S
O313 Mn289 2.215 . S
O313 C290 1.283 . S
O314 Mn288 2.094 . S
O314 C292 1.240 . S
O315 Mn289 2.117 . S
O315 C292 1.264 . S
C316 C309 1.403 . S
C316 C317 1.399 . S
C316 H322 0.929 . S
C317 C297 1.449 . S
C317 C316 1.399 . S
C317 H323 0.930 . S
H318 C298 0.931 . S
H319 C299 0.930 . S
H320 C307 0.931 1_554 S
H321 C308 0.929 . S
H322 C316 0.929 . S
H323 C317 0.930 . S
Mn324 O329 2.095 . S
Mn324 O339 2.162 . S
Mn324 O340 2.297 . S
Mn324 O348 2.385 . S
Mn324 O349 2.209 . S
Mn324 O350 2.094 . S
Mn325 O330 2.121 . S
Mn325 N332 2.257 . S
Mn325 N341 2.282 . S
Mn325 O349 2.215 . S
Mn325 O351 2.117 . S
C326 O348 1.234 . S
C326 O349 1.283 . S
C327 O339 1.281 . S
C327 O340 1.236 . S
C328 O350 1.240 . S
C328 O351 1.264 . S
O329 Mn324 2.095 . S
O329 C338 1.250 . S
O330 Mn325 2.121 . S
O330 C338 1.258 . S
C331 N332 1.326 . S
C331 C335 1.460 . S
C331 H337 0.929 . S
N332 Mn325 2.257 . S
N332 C331 1.326 . S
N332 C336 1.362 . S
C333 C334 1.258 . S
C333 C336 1.431 . S
C333 C353 1.449 . S
C334 C333 1.258 . S
C334 C335 1.477 . S
C334 H354 0.931 . S
C335 C331 1.460 . S
C335 C334 1.477 . S
C335 H355 0.930 . S
C336 N332 1.362 . S
C336 C333 1.431 . S
C336 C346 1.476 . S
H337 C331 0.929 . S
C338 O329 1.250 . S
C338 O330 1.258 . S
O339 Mn324 2.162 . S
O339 C327 1.281 . S
O340 Mn324 2.297 . S
O340 C327 1.236 . S
N341 Mn325 2.282 . S
N341 C342 1.328 . S
N341 C346 1.318 . S
C342 N341 1.328 . S
C342 C343 1.457 . S
C342 H347 0.929 . S
C343 C342 1.457 . S
C343 C344 1.291 . S
C343 H356 0.931 1_556 S
C344 C343 1.291 . S
C344 C345 1.373 . S
C344 H357 0.929 . S
C345 C344 1.373 . S
C345 C346 1.396 . S
C345 C352 1.403 . S
C346 C336 1.476 . S
C346 N341 1.318 . S
C346 C345 1.396 . S
H347 C342 0.929 . S
O348 Mn324 2.385 . S
O348 C326 1.234 . S
O349 Mn324 2.209 . S
O349 Mn325 2.215 . S
O349 C326 1.283 . S
O350 Mn324 2.094 . S
O350 C328 1.240 . S
O351 Mn325 2.117 . S
O351 C328 1.264 . S
C352 C345 1.403 . S
C352 C353 1.399 . S
C352 H358 0.929 . S
C353 C333 1.449 . S
C353 C352 1.399 . S
C353 H359 0.930 . S
H354 C334 0.931 . S
H355 C335 0.930 . S
H356 C343 0.931 1_554 S
H357 C344 0.929 . S
H358 C352 0.929 . S
H359 C353 0.930 . S
Mn360 O365 2.095 . S
Mn360 O375 2.162 . S
Mn360 O376 2.297 . S
Mn360 O384 2.385 . S
Mn360 O385 2.209 . S
Mn360 O386 2.094 . S
Mn361 O366 2.121 . S
Mn361 N368 2.257 . S
Mn361 N377 2.282 . S
Mn361 O385 2.215 . S
Mn361 O387 2.117 . S
C362 O384 1.234 . S
C362 O385 1.283 . S
C363 O375 1.281 . S
C363 O376 1.236 . S
C364 O386 1.240 . S
C364 O387 1.264 . S
O365 Mn360 2.095 . S
O365 C374 1.250 . S
O366 Mn361 2.121 . S
O366 C374 1.258 . S
C367 N368 1.326 . S
C367 C371 1.460 . S
C367 H373 0.929 . S
N368 Mn361 2.257 . S
N368 C367 1.326 . S
N368 C372 1.362 . S
C369 C370 1.258 . S
C369 C372 1.431 . S
C369 C389 1.449 . S
C370 C369 1.258 . S
C370 C371 1.477 . S
C370 H390 0.931 . S
C371 C367 1.460 . S
C371 C370 1.477 . S
C371 H391 0.930 . S
C372 N368 1.362 . S
C372 C369 1.431 . S
C372 C382 1.476 . S
H373 C367 0.929 . S
C374 O365 1.250 . S
C374 O366 1.258 . S
O375 Mn360 2.162 . S
O375 C363 1.281 . S
O376 Mn360 2.297 . S
O376 C363 1.236 . S
N377 Mn361 2.282 . S
N377 C378 1.328 . S
N377 C382 1.318 . S
C378 N377 1.328 . S
C378 C379 1.457 . S
C378 H383 0.929 . S
C379 C378 1.457 . S
C379 C380 1.291 . S
C379 H392 0.931 1_556 S
C380 C379 1.291 . S
C380 C381 1.373 . S
C380 H393 0.929 . S
C381 C380 1.373 . S
C381 C382 1.396 . S
C381 C388 1.403 . S
C382 C372 1.476 . S
C382 N377 1.318 . S
C382 C381 1.396 . S
H383 C378 0.929 . S
O384 Mn360 2.385 . S
O384 C362 1.234 . S
O385 Mn360 2.209 . S
O385 Mn361 2.215 . S
O385 C362 1.283 . S
O386 Mn360 2.094 . S
O386 C364 1.240 . S
O387 Mn361 2.117 . S
O387 C364 1.264 . S
C388 C381 1.403 . S
C388 C389 1.399 . S
C388 H394 0.929 . S
C389 C369 1.449 . S
C389 C388 1.399 . S
C389 H395 0.930 . S
H390 C370 0.931 . S
H391 C371 0.930 . S
H392 C379 0.931 1_554 S
H393 C380 0.929 . S
H394 C388 0.929 . S
H395 C389 0.930 . S
Mn396 O401 2.095 . S
Mn396 O411 2.162 . S
Mn396 O412 2.297 . S
Mn396 O420 2.385 . S
Mn396 O421 2.209 . S
Mn396 O422 2.094 . S
Mn397 O402 2.121 . S
Mn397 N404 2.257 . S
Mn397 N413 2.282 . S
Mn397 O421 2.215 . S
Mn397 O423 2.117 . S
C398 O420 1.234 . S
C398 O421 1.283 . S
C399 O411 1.281 . S
C399 O412 1.236 . S
C400 O422 1.240 . S
C400 O423 1.264 . S
O401 Mn396 2.095 . S
O401 C410 1.250 . S
O402 Mn397 2.121 . S
O402 C410 1.258 . S
C403 N404 1.326 . S
C403 C407 1.460 . S
C403 H409 0.929 . S
N404 Mn397 2.257 . S
N404 C403 1.326 . S
N404 C408 1.362 . S
C405 C406 1.258 . S
C405 C408 1.431 . S
C405 C425 1.449 . S
C406 C405 1.258 . S
C406 C407 1.477 . S
C406 H426 0.931 . S
C407 C403 1.460 . S
C407 C406 1.477 . S
C407 H427 0.930 . S
C408 N404 1.362 . S
C408 C405 1.431 . S
C408 C418 1.476 . S
H409 C403 0.929 . S
C410 O401 1.250 . S
C410 O402 1.258 . S
O411 Mn396 2.162 . S
O411 C399 1.281 . S
O412 Mn396 2.297 . S
O412 C399 1.236 . S
N413 Mn397 2.282 . S
N413 C414 1.328 . S
N413 C418 1.318 . S
C414 N413 1.328 . S
C414 C415 1.457 . S
C414 H419 0.929 . S
C415 C414 1.457 . S
C415 C416 1.291 . S
C415 H428 0.931 1_556 S
C416 C415 1.291 . S
C416 C417 1.373 . S
C416 H429 0.929 . S
C417 C416 1.373 . S
C417 C418 1.396 . S
C417 C424 1.403 . S
C418 C408 1.476 . S
C418 N413 1.318 . S
C418 C417 1.396 . S
H419 C414 0.929 . S
O420 Mn396 2.385 . S
O420 C398 1.234 . S
O421 Mn396 2.209 . S
O421 Mn397 2.215 . S
O421 C398 1.283 . S
O422 Mn396 2.094 . S
O422 C400 1.240 . S
O423 Mn397 2.117 . S
O423 C400 1.264 . S
C424 C417 1.403 . S
C424 C425 1.399 . S
C424 H430 0.929 . S
C425 C405 1.449 . S
C425 C424 1.399 . S
C425 H431 0.930 . S
H426 C406 0.931 . S
H427 C407 0.930 . S
H428 C415 0.931 1_554 S
H429 C416 0.929 . S
H430 C424 0.929 . S
H431 C425 0.930 . S
Mn432 O437 2.095 . S
Mn432 O447 2.162 . S
Mn432 O448 2.297 . S
Mn432 O456 2.385 . S
Mn432 O457 2.209 . S
Mn432 O458 2.094 . S
Mn433 O438 2.121 . S
Mn433 N440 2.257 . S
Mn433 N449 2.282 . S
Mn433 O457 2.215 . S
Mn433 O459 2.117 . S
C434 O456 1.234 . S
C434 O457 1.283 . S
C435 O447 1.281 . S
C435 O448 1.236 . S
C436 O458 1.240 . S
C436 O459 1.264 . S
O437 Mn432 2.095 . S
O437 C446 1.250 . S
O438 Mn433 2.121 . S
O438 C446 1.258 . S
C439 N440 1.326 . S
C439 C443 1.460 . S
C439 H445 0.929 . S
N440 Mn433 2.257 . S
N440 C439 1.326 . S
N440 C444 1.362 . S
C441 C442 1.258 . S
C441 C444 1.431 . S
C441 C461 1.449 . S
C442 C441 1.258 . S
C442 C443 1.477 . S
C442 H462 0.931 . S
C443 C439 1.460 . S
C443 C442 1.477 . S
C443 H463 0.930 . S
C444 N440 1.362 . S
C444 C441 1.431 . S
C444 C454 1.476 . S
H445 C439 0.929 . S
C446 O437 1.250 . S
C446 O438 1.258 . S
O447 Mn432 2.162 . S
O447 C435 1.281 . S
O448 Mn432 2.297 . S
O448 C435 1.236 . S
N449 Mn433 2.282 . S
N449 C450 1.328 . S
N449 C454 1.318 . S
C450 N449 1.328 . S
C450 C451 1.457 . S
C450 H455 0.929 . S
C451 C450 1.457 . S
C451 C452 1.291 . S
C451 H464 0.931 . S
C452 C451 1.291 . S
C452 C453 1.373 . S
C452 H465 0.929 . S
C453 C452 1.373 . S
C453 C454 1.396 . S
C453 C460 1.403 . S
C454 C444 1.476 . S
C454 N449 1.318 . S
C454 C453 1.396 . S
H455 C450 0.929 . S
O456 Mn432 2.385 . S
O456 C434 1.234 . S
O457 Mn432 2.209 . S
O457 Mn433 2.215 . S
O457 C434 1.283 . S
O458 Mn432 2.094 . S
O458 C436 1.240 . S
O459 Mn433 2.117 . S
O459 C436 1.264 . S
C460 C453 1.403 . S
C460 C461 1.399 . S
C460 H466 0.929 . S
C461 C441 1.449 . S
C461 C460 1.399 . S
C461 H467 0.930 . S
H462 C442 0.931 . S
H463 C443 0.930 . S
H464 C451 0.931 . S
H465 C452 0.929 . S
H466 C460 0.929 . S
H467 C461 0.930 . S
Mn468 O473 2.095 . S
Mn468 O483 2.162 . S
Mn468 O484 2.297 . S
Mn468 O492 2.385 . S
Mn468 O493 2.209 . S
Mn468 O494 2.094 . S
Mn469 O474 2.121 . S
Mn469 N476 2.257 . S
Mn469 N485 2.282 . S
Mn469 O493 2.215 . S
Mn469 O495 2.117 . S
C470 O492 1.234 . S
C470 O493 1.283 . S
C471 O483 1.281 . S
C471 O484 1.236 . S
C472 O494 1.240 . S
C472 O495 1.264 . S
O473 Mn468 2.095 . S
O473 C482 1.250 . S
O474 Mn469 2.121 . S
O474 C482 1.258 . S
C475 N476 1.326 . S
C475 C479 1.460 . S
C475 H481 0.929 . S
N476 Mn469 2.257 . S
N476 C475 1.326 . S
N476 C480 1.362 . S
C477 C478 1.258 . S
C477 C480 1.431 . S
C477 C497 1.449 . S
C478 C477 1.258 . S
C478 C479 1.477 . S
C478 H498 0.931 . S
C479 C475 1.460 . S
C479 C478 1.477 . S
C479 H499 0.930 . S
C480 N476 1.362 . S
C480 C477 1.431 . S
C480 C490 1.476 . S
H481 C475 0.929 . S
C482 O473 1.250 . S
C482 O474 1.258 . S
O483 Mn468 2.162 . S
O483 C471 1.281 . S
O484 Mn468 2.297 . S
O484 C471 1.236 . S
N485 Mn469 2.282 . S
N485 C486 1.328 . S
N485 C490 1.318 . S
C486 N485 1.328 . S
C486 C487 1.457 . S
C486 H491 0.929 . S
C487 C486 1.457 . S
C487 C488 1.291 . S
C487 H500 0.931 . S
C488 C487 1.291 . S
C488 C489 1.373 . S
C488 H501 0.929 . S
C489 C488 1.373 . S
C489 C490 1.396 . S
C489 C496 1.403 . S
C490 C480 1.476 . S
C490 N485 1.318 . S
C490 C489 1.396 . S
H491 C486 0.929 . S
O492 Mn468 2.385 . S
O492 C470 1.234 . S
O493 Mn468 2.209 . S
O493 Mn469 2.215 . S
O493 C470 1.283 . S
O494 Mn468 2.094 . S
O494 C472 1.240 . S
O495 Mn469 2.117 . S
O495 C472 1.264 . S
C496 C489 1.403 . S
C496 C497 1.399 . S
C496 H502 0.929 . S
C497 C477 1.449 . S
C497 C496 1.399 . S
C497 H503 0.930 . S
H498 C478 0.931 . S
H499 C479 0.930 . S
H500 C487 0.931 . S
H501 C488 0.929 . S
H502 C496 0.929 . S
H503 C497 0.930 . S
Mn504 O509 2.095 . S
Mn504 O519 2.162 . S
Mn504 O520 2.297 . S
Mn504 O528 2.385 . S
Mn504 O529 2.209 . S
Mn504 O530 2.094 . S
Mn505 O510 2.121 . S
Mn505 N512 2.257 . S
Mn505 N521 2.282 . S
Mn505 O529 2.215 . S
Mn505 O531 2.117 . S
C506 O528 1.234 . S
C506 O529 1.283 . S
C507 O519 1.281 . S
C507 O520 1.236 . S
C508 O530 1.240 . S
C508 O531 1.264 . S
O509 Mn504 2.095 . S
O509 C518 1.250 . S
O510 Mn505 2.121 . S
O510 C518 1.258 . S
C511 N512 1.326 . S
C511 C515 1.460 . S
C511 H517 0.929 . S
N512 Mn505 2.257 . S
N512 C511 1.326 . S
N512 C516 1.362 . S
C513 C514 1.258 . S
C513 C516 1.431 . S
C513 C533 1.449 . S
C514 C513 1.258 . S
C514 C515 1.477 . S
C514 H534 0.931 . S
C515 C511 1.460 . S
C515 C514 1.477 . S
C515 H535 0.930 . S
C516 N512 1.362 . S
C516 C513 1.431 . S
C516 C526 1.476 . S
H517 C511 0.929 . S
C518 O509 1.250 . S
C518 O510 1.258 . S
O519 Mn504 2.162 . S
O519 C507 1.281 . S
O520 Mn504 2.297 . S
O520 C507 1.236 . S
N521 Mn505 2.282 . S
N521 C522 1.328 . S
N521 C526 1.318 . S
C522 N521 1.328 . S
C522 C523 1.457 . S
C522 H527 0.929 . S
C523 C522 1.457 . S
C523 C524 1.291 . S
C523 H536 0.931 . S
C524 C523 1.291 . S
C524 C525 1.373 . S
C524 H537 0.929 . S
C525 C524 1.373 . S
C525 C526 1.396 . S
C525 C532 1.403 . S
C526 C516 1.476 . S
C526 N521 1.318 . S
C526 C525 1.396 . S
H527 C522 0.929 . S
O528 Mn504 2.385 . S
O528 C506 1.234 . S
O529 Mn504 2.209 . S
O529 Mn505 2.215 . S
O529 C506 1.283 . S
O530 Mn504 2.094 . S
O530 C508 1.240 . S
O531 Mn505 2.117 . S
O531 C508 1.264 . S
C532 C525 1.403 . S
C532 C533 1.399 . S
C532 H538 0.929 . S
C533 C513 1.449 . S
C533 C532 1.399 . S
C533 H539 0.930 . S
H534 C514 0.931 . S
H535 C515 0.930 . S
H536 C523 0.931 . S
H537 C524 0.929 . S
H538 C532 0.929 . S
H539 C533 0.930 . S
Mn540 O545 2.095 . S
Mn540 O555 2.162 . S
Mn540 O556 2.297 . S
Mn540 O564 2.385 . S
Mn540 O565 2.209 . S
Mn540 O566 2.094 . S
Mn541 O546 2.121 . S
Mn541 N548 2.257 . S
Mn541 N557 2.282 . S
Mn541 O565 2.215 . S
Mn541 O567 2.117 . S
C542 O564 1.234 . S
C542 O565 1.283 . S
C543 O555 1.281 . S
C543 O556 1.236 . S
C544 O566 1.240 . S
C544 O567 1.264 . S
O545 Mn540 2.095 . S
O545 C554 1.250 . S
O546 Mn541 2.121 . S
O546 C554 1.258 . S
C547 N548 1.326 . S
C547 C551 1.460 . S
C547 H553 0.929 . S
N548 Mn541 2.257 . S
N548 C547 1.326 . S
N548 C552 1.362 . S
C549 C550 1.258 . S
C549 C552 1.431 . S
C549 C569 1.449 . S
C550 C549 1.258 . S
C550 C551 1.477 . S
C550 H570 0.931 . S
C551 C547 1.460 . S
C551 C550 1.477 . S
C551 H571 0.930 . S
C552 N548 1.362 . S
C552 C549 1.431 . S
C552 C562 1.476 . S
H553 C547 0.929 . S
C554 O545 1.250 . S
C554 O546 1.258 . S
O555 Mn540 2.162 . S
O555 C543 1.281 . S
O556 Mn540 2.297 . S
O556 C543 1.236 . S
N557 Mn541 2.282 . S
N557 C558 1.328 . S
N557 C562 1.318 . S
C558 N557 1.328 . S
C558 C559 1.457 . S
C558 H563 0.929 . S
C559 C558 1.457 . S
C559 C560 1.291 . S
C559 H572 0.931 . S
C560 C559 1.291 . S
C560 C561 1.373 . S
C560 H573 0.929 . S
C561 C560 1.373 . S
C561 C562 1.396 . S
C561 C568 1.403 . S
C562 C552 1.476 . S
C562 N557 1.318 . S
C562 C561 1.396 . S
H563 C558 0.929 . S
O564 Mn540 2.385 . S
O564 C542 1.234 . S
O565 Mn540 2.209 . S
O565 Mn541 2.215 . S
O565 C542 1.283 . S
O566 Mn540 2.094 . S
O566 C544 1.240 . S
O567 Mn541 2.117 . S
O567 C544 1.264 . S
C568 C561 1.403 . S
C568 C569 1.399 . S
C568 H574 0.929 . S
C569 C549 1.449 . S
C569 C568 1.399 . S
C569 H575 0.930 . S
H570 C550 0.931 . S
H571 C551 0.930 . S
H572 C559 0.931 . S
H573 C560 0.929 . S
H574 C568 0.929 . S
H575 C569 0.930 . S
H576 C584 0.929 . S
H577 C586 0.930 . S
H578 C588 0.930 . S
H579 C591 0.929 1_556 S
H580 C594 0.930 . S
H581 C596 0.960 . S
H582 C596 0.960 . S
H583 C596 0.960 . S
C584 H576 0.929 . S
C584 C585 1.377 . S
C584 C586 1.384 . S
C585 C584 1.377 . S
C585 C591 1.390 . S
C586 H577 0.930 . S
C586 C584 1.384 . S
C586 C587 1.372 . S
C587 C586 1.372 . S
C587 C588 1.400 1_554 S
C587 C592 1.493 . S
C588 H578 0.930 . S
C588 C587 1.400 1_556 S
C588 C591 1.386 1_556 S
H589 C605 0.930 . S
H590 C606 0.931 . S
C591 H579 0.929 1_554 S
C591 C585 1.390 . S
C591 C588 1.386 1_554 S
C592 C587 1.493 . S
C592 C594 1.390 1_554 S
C592 C595 1.404 . S
H593 C599 0.930 . S
C594 H580 0.930 . S
C594 C592 1.390 1_556 S
C594 C597 1.403 . S
C595 C592 1.404 . S
C595 C596 1.524 . S
C595 C599 1.400 1_554 S
C596 H581 0.960 . S
C596 H582 0.960 . S
C596 H583 0.960 . S
C596 C595 1.524 . S
C597 C594 1.403 . S
C597 C598 1.392 . S
C597 C601 1.495 . S
C598 C597 1.392 . S
C598 C599 1.385 . S
C598 C600 1.478 . S
C599 H593 0.930 . S
C599 C595 1.400 1_556 S
C599 C598 1.385 . S
C600 C598 1.478 . S
C600 C602 1.381 . S
C600 C606 1.383 . S
C601 C597 1.495 . S
C601 H607 0.959 . S
C601 H608 0.961 . S
C601 H609 0.960 . S
C602 C600 1.381 . S
C602 C603 1.394 . S
C602 H610 0.930 1_556 S
C603 C602 1.394 . S
C603 C604 1.383 . S
C603 H611 0.929 . S
C604 C603 1.383 . S
C604 C605 1.377 . S
C605 H589 0.930 . S
C605 C604 1.377 . S
C605 C606 1.379 . S
C606 H590 0.931 . S
C606 C600 1.383 . S
C606 C605 1.379 . S
H607 C601 0.959 . S
H608 C601 0.961 . S
H609 C601 0.960 . S
H610 C602 0.930 1_554 S
H611 C603 0.929 . S
H612 C620 0.929 . S
H613 C622 0.930 . S
H614 C624 0.930 . S
H615 C627 0.929 . S
H616 C630 0.930 . S
H617 C632 0.960 . S
H618 C632 0.960 . S
H619 C632 0.960 . S
C620 H612 0.929 . S
C620 C621 1.377 . S
C620 C622 1.384 . S
C621 C620 1.377 . S
C621 C627 1.390 . S
C622 H613 0.930 . S
C622 C620 1.384 . S
C622 C623 1.372 . S
C623 C622 1.372 . S
C623 C624 1.400 . S
C623 C628 1.490 . S
C624 H614 0.930 . S
C624 C623 1.400 . S
C624 C627 1.386 . S
H625 C641 0.930 . S
H626 C642 0.931 . S
C627 H615 0.929 . S
C627 C621 1.390 . S
C627 C624 1.386 . S
C628 C623 1.490 . S
C628 C630 1.395 . S
C628 C631 1.403 1_556 S
H629 C635 0.930 . S
C630 H616 0.930 . S
C630 C628 1.395 . S
C630 C633 1.403 . S
C631 C628 1.403 1_554 S
C631 C632 1.524 . S
C631 C635 1.400 . S
C632 H617 0.960 . S
C632 H618 0.960 . S
C632 H619 0.960 . S
C632 C631 1.524 . S
C633 C630 1.403 . S
C633 C634 1.392 . S
C633 C637 1.495 . S
C634 C633 1.392 . S
C634 C635 1.385 1_556 S
C634 C636 1.478 1_556 S
C635 H629 0.930 . S
C635 C631 1.400 . S
C635 C634 1.385 1_554 S
C636 C634 1.478 1_554 S
C636 C638 1.381 1_554 S
C636 C642 1.383 . S
C637 C633 1.495 . S
C637 H643 0.959 . S
C637 H644 0.961 . S
C637 H645 0.960 . S
C638 C636 1.381 1_556 S
C638 C639 1.394 1_556 S
C638 H646 0.930 . S
C639 C638 1.394 1_554 S
C639 C640 1.383 . S
C639 H647 0.929 . S
C640 C639 1.383 . S
C640 C641 1.377 . S
C641 H625 0.930 . S
C641 C640 1.377 . S
C641 C642 1.379 . S
C642 H626 0.931 . S
C642 C636 1.383 . S
C642 C641 1.379 . S
H643 C637 0.959 . S
H644 C637 0.961 . S
H645 C637 0.960 . S
H646 C638 0.930 . S
H647 C639 0.929 . S
H648 C656 0.937 . S
H649 C658 0.930 1_554 S
H650 C660 0.930 . S
H651 C663 0.929 . S
H652 C666 0.930 . S
H653 C668 0.960 . S
H654 C668 0.932 1_554 S
H655 C668 0.960 . S
C656 H648 0.937 . S
C656 C657 1.377 . S
C656 C658 1.384 . S
C657 C656 1.377 . S
C657 C663 1.390 . S
C658 H649 0.930 1_556 S
C658 C656 1.384 . S
C658 C659 1.372 . S
C659 C658 1.372 . S
C659 C660 1.400 . S
C659 C664 1.490 . S
C660 H650 0.930 . S
C660 C659 1.400 . S
C660 C663 1.386 . S
H661 C677 0.930 . S
H662 C678 0.931 . S
C663 H651 0.929 . S
C663 C657 1.390 . S
C663 C660 1.386 . S
C664 C659 1.490 . S
C664 C666 1.395 . S
C664 C667 1.403 . S
H665 C671 0.930 . S
C666 H652 0.930 . S
C666 C664 1.395 . S
C666 C669 1.403 . S
C667 C664 1.403 . S
C667 C668 1.524 . S
C667 C671 1.400 . S
C668 H653 0.960 . S
C668 H654 0.932 1_556 S
C668 H655 0.960 . S
C668 C667 1.524 . S
C669 C666 1.403 . S
C669 C670 1.390 1_556 S
C669 C673 1.495 1_556 S
C670 C669 1.390 1_554 S
C670 C671 1.382 1_554 S
C670 C672 1.483 . S
C671 H665 0.930 . S
C671 C667 1.400 . S
C671 C670 1.382 1_556 S
C672 C670 1.483 . S
C672 C674 1.381 . S
C672 C678 1.383 1_554 S
C673 C669 1.495 1_554 S
C673 H679 0.959 1_554 S
C673 H680 0.961 1_554 S
C673 H681 0.960 . S
C674 C672 1.381 . S
C674 C675 1.394 . S
C674 H682 0.930 . S
C675 C674 1.394 . S
C675 C676 1.383 . S
C675 H683 0.929 . S
C676 C675 1.383 . S
C676 C677 1.377 1_554 S
C677 H661 0.930 . S
C677 C676 1.377 1_556 S
C677 C678 1.379 . S
C678 H662 0.931 . S
C678 C672 1.383 1_556 S
C678 C677 1.379 . S
H679 C673 0.959 1_556 S
H680 C673 0.961 1_556 S
H681 C673 0.960 . S
H682 C674 0.930 . S
H683 C675 0.929 . S
H684 C692 0.929 . S
H685 C694 0.930 . S
H686 C696 0.930 . S
H687 C699 0.929 . S
H688 C702 0.930 . S
H689 C704 0.960 . S
H690 C704 0.960 . S
H691 C704 0.960 . S
C692 H684 0.929 . S
C692 C693 1.377 . S
C692 C694 1.384 . S
C693 C692 1.377 . S
C693 C699 1.390 . S
C694 H685 0.930 . S
C694 C692 1.384 . S
C694 C695 1.372 . S
C695 C694 1.372 . S
C695 C696 1.400 . S
C695 C700 1.490 . S
C696 H686 0.930 . S
C696 C695 1.400 . S
C696 C699 1.386 . S
H697 C713 0.925 1_556 S
H698 C714 0.931 . S
C699 H687 0.929 . S
C699 C693 1.390 . S
C699 C696 1.386 . S
C700 C695 1.490 . S
C700 C702 1.395 . S
C700 C703 1.403 1_556 S
H701 C707 0.930 . S
C702 H688 0.930 . S
C702 C700 1.395 . S
C702 C705 1.403 . S
C703 C700 1.403 1_554 S
C703 C704 1.524 . S
C703 C707 1.400 . S
C704 H689 0.960 . S
C704 H690 0.960 . S
C704 H691 0.960 . S
C704 C703 1.524 . S
C705 C702 1.403 . S
C705 C706 1.392 . S
C705 C709 1.495 . S
C706 C705 1.392 . S
C706 C707 1.385 1_556 S
C706 C708 1.478 1_556 S
C707 H701 0.930 . S
C707 C703 1.400 . S
C707 C706 1.385 1_554 S
C708 C706 1.478 1_554 S
C708 C710 1.381 . S
C708 C714 1.383 1_554 S
C709 C705 1.495 . S
C709 H715 0.959 . S
C709 H716 0.961 . S
C709 H717 0.960 . S
C710 C708 1.381 . S
C710 C711 1.394 . S
C710 H718 0.930 . S
C711 C710 1.394 . S
C711 C712 1.383 . S
C711 H719 0.929 . S
C712 C711 1.383 . S
C712 C713 1.377 . S
C713 H697 0.925 1_554 S
C713 C712 1.377 . S
C713 C714 1.379 1_554 S
C714 H698 0.931 . S
C714 C708 1.383 1_556 S
C714 C713 1.379 1_556 S
H715 C709 0.959 . S
H716 C709 0.961 . S
H717 C709 0.960 . S
H718 C710 0.930 . S
H719 C711 0.929 . S
H720 C728 0.929 . S
H721 C730 0.930 . S
H722 C732 0.930 . S
H723 C735 0.929 . S
H724 C738 0.930 . S
H725 C740 0.960 . S
H726 C740 0.960 . S
H727 C740 0.960 . S
C728 H720 0.929 . S
C728 C729 1.377 . S
C728 C730 1.384 . S
C729 C728 1.377 . S
C729 C735 1.390 . S
C730 H721 0.930 . S
C730 C728 1.384 . S
C730 C731 1.372 . S
C731 C730 1.372 . S
C731 C732 1.400 . S
C731 C736 1.490 . S
C732 H722 0.930 . S
C732 C731 1.400 . S
C732 C735 1.386 . S
H733 C749 0.930 . S
H734 C750 0.931 . S
C735 H723 0.929 . S
C735 C729 1.390 . S
C735 C732 1.386 . S
C736 C731 1.490 . S
C736 C738 1.395 . S
C736 C739 1.403 . S
H737 C743 0.930 . S
C738 H724 0.930 . S
C738 C736 1.395 . S
C738 C741 1.403 . S
C739 C736 1.403 . S
C739 C740 1.524 . S
C739 C743 1.400 . S
C740 H725 0.960 . S
C740 H726 0.960 . S
C740 H727 0.960 . S
C740 C739 1.524 . S
C741 C738 1.403 . S
C741 C742 1.392 . S
C741 C745 1.495 . S
C742 C741 1.392 . S
C742 C743 1.385 . S
C742 C744 1.478 . S
C743 H737 0.930 . S
C743 C739 1.400 . S
C743 C742 1.385 . S
C744 C742 1.478 . S
C744 C746 1.381 . S
C744 C750 1.383 . S
C745 C741 1.495 . S
C745 H751 0.959 . S
C745 H752 0.961 . S
C745 H753 0.960 . S
C746 C744 1.381 . S
C746 C747 1.394 . S
C746 H754 0.930 . S
C747 C746 1.394 . S
C747 C748 1.383 . S
C747 H755 0.929 . S
C748 C747 1.383 . S
C748 C749 1.377 . S
C749 H733 0.930 . S
C749 C748 1.377 . S
C749 C750 1.379 . S
C750 H734 0.931 . S
C750 C744 1.383 . S
C750 C749 1.379 . S
H751 C745 0.959 . S
H752 C745 0.961 . S
H753 C745 0.960 . S
H754 C746 0.930 . S
H755 C747 0.929 . S
H756 C764 0.929 . S
H757 C766 0.930 . S
H758 C768 0.930 . S
H759 C771 0.929 . S
H760 C774 0.930 . S
H761 C776 0.960 . S
H762 C776 0.960 . S
H763 C776 0.960 . S
C764 H756 0.929 . S
C764 C765 1.377 . S
C764 C766 1.384 . S
C765 C764 1.377 . S
C765 C771 1.390 . S
C766 H757 0.930 . S
C766 C764 1.384 . S
C766 C767 1.372 . S
C767 C766 1.372 . S
C767 C768 1.400 . S
C767 C772 1.490 . S
C768 H758 0.930 . S
C768 C767 1.400 . S
C768 C771 1.386 . S
H769 C785 0.930 . S
H770 C786 0.931 . S
C771 H759 0.929 . S
C771 C765 1.390 . S
C771 C768 1.386 . S
C772 C767 1.490 . S
C772 C774 1.395 . S
C772 C775 1.403 . S
H773 C779 0.930 . S
C774 H760 0.930 . S
C774 C772 1.395 . S
C774 C777 1.403 . S
C775 C772 1.403 . S
C775 C776 1.524 . S
C775 C779 1.400 . S
C776 H761 0.960 . S
C776 H762 0.960 . S
C776 H763 0.960 . S
C776 C775 1.524 . S
C777 C774 1.403 . S
C777 C778 1.392 . S
C777 C781 1.495 . S
C778 C777 1.392 . S
C778 C779 1.385 . S
C778 C780 1.478 . S
C779 H773 0.930 . S
C779 C775 1.400 . S
C779 C778 1.385 . S
C780 C778 1.478 . S
C780 C782 1.381 . S
C780 C786 1.383 . S
C781 C777 1.495 . S
C781 H787 0.959 . S
C781 H788 0.961 . S
C781 H789 0.960 . S
C782 C780 1.381 . S
C782 C783 1.394 . S
C782 H790 0.930 . S
C783 C782 1.394 . S
C783 C784 1.383 . S
C783 H791 0.929 . S
C784 C783 1.383 . S
C784 C785 1.377 . S
C785 H769 0.930 . S
C785 C784 1.377 . S
C785 C786 1.379 . S
C786 H770 0.931 . S
C786 C780 1.383 . S
C786 C785 1.379 . S
H787 C781 0.959 . S
H788 C781 0.961 . S
H789 C781 0.960 . S
H790 C782 0.930 . S
H791 C783 0.929 . S
H792 C800 0.929 . S
H793 C802 0.930 . S
H794 C804 0.930 . S
H795 C807 0.929 . S
H796 C810 0.930 . S
H797 C812 0.960 . S
H798 C812 0.960 . S
H799 C812 0.960 . S
C800 H792 0.929 . S
C800 C801 1.377 . S
C800 C802 1.384 . S
C801 C800 1.377 . S
C801 C807 1.390 . S
C802 H793 0.930 . S
C802 C800 1.384 . S
C802 C803 1.372 . S
C803 C802 1.372 . S
C803 C804 1.400 . S
C803 C808 1.490 . S
C804 H794 0.930 . S
C804 C803 1.400 . S
C804 C807 1.386 . S
H805 C821 0.930 . S
H806 C822 0.931 . S
C807 H795 0.929 . S
C807 C801 1.390 . S
C807 C804 1.386 . S
C808 C803 1.490 . S
C808 C810 1.395 . S
C808 C811 1.403 . S
H809 C815 0.930 . S
C810 H796 0.930 . S
C810 C808 1.395 . S
C810 C813 1.403 . S
C811 C808 1.403 . S
C811 C812 1.524 . S
C811 C815 1.400 . S
C812 H797 0.960 . S
C812 H798 0.960 . S
C812 H799 0.960 . S
C812 C811 1.524 . S
C813 C810 1.403 . S
C813 C814 1.392 . S
C813 C817 1.495 . S
C814 C813 1.392 . S
C814 C815 1.385 . S
C814 C816 1.478 . S
C815 H809 0.930 . S
C815 C811 1.400 . S
C815 C814 1.385 . S
C816 C814 1.478 . S
C816 C818 1.381 . S
C816 C822 1.383 . S
C817 C813 1.495 . S
C817 H823 0.959 . S
C817 H824 0.961 . S
C817 H825 0.960 . S
C818 C816 1.381 . S
C818 C819 1.394 . S
C818 H826 0.930 . S
C819 C818 1.394 . S
C819 C820 1.383 . S
C819 H827 0.929 . S
C820 C819 1.383 . S
C820 C821 1.377 . S
C821 H805 0.930 . S
C821 C820 1.377 . S
C821 C822 1.379 . S
C822 H806 0.931 . S
C822 C816 1.383 . S
C822 C821 1.379 . S
H823 C817 0.959 . S
H824 C817 0.961 . S
H825 C817 0.960 . S
H826 C818 0.930 . S
H827 C819 0.929 . S
H828 C836 0.929 . S
H829 C838 0.930 . S
H830 C840 0.930 . S
H831 C843 0.929 . S
H832 C846 0.930 . S
H833 C848 0.960 . S
H834 C848 0.960 . S
H835 C848 0.960 . S
C836 H828 0.929 . S
C836 C837 1.377 . S
C836 C838 1.384 . S
C837 C836 1.377 . S
C837 C843 1.390 . S
C838 H829 0.930 . S
C838 C836 1.384 . S
C838 C839 1.372 . S
C839 C838 1.372 . S
C839 C840 1.400 . S
C839 C844 1.490 . S
C840 H830 0.930 . S
C840 C839 1.400 . S
C840 C843 1.386 . S
H841 C857 0.930 . S
H842 C858 0.931 . S
C843 H831 0.929 . S
C843 C837 1.390 . S
C843 C840 1.386 . S
C844 C839 1.490 . S
C844 C846 1.395 . S
C844 C847 1.403 . S
H845 C851 0.930 . S
C846 H832 0.930 . S
C846 C844 1.395 . S
C846 C849 1.403 . S
C847 C844 1.403 . S
C847 C848 1.524 . S
C847 C851 1.400 . S
C848 H833 0.960 . S
C848 H834 0.960 . S
C848 H835 0.960 . S
C848 C847 1.524 . S
C849 C846 1.403 . S
C849 C850 1.392 . S
C849 C853 1.495 . S
C850 C849 1.392 . S
C850 C851 1.385 . S
C850 C852 1.478 . S
C851 H845 0.930 . S
C851 C847 1.400 . S
C851 C850 1.385 . S
C852 C850 1.478 . S
C852 C854 1.381 . S
C852 C858 1.383 . S
C853 C849 1.495 . S
C853 H859 0.959 . S
C853 H860 0.961 . S
C853 H861 0.960 . S
C854 C852 1.381 . S
C854 C855 1.394 . S
C854 H862 0.930 . S
C855 C854 1.394 . S
C855 C856 1.383 . S
C855 H863 0.929 . S
C856 C855 1.383 . S
C856 C857 1.377 . S
C857 H841 0.930 . S
C857 C856 1.377 . S
C857 C858 1.379 . S
C858 H842 0.931 . S
C858 C852 1.383 . S
C858 C857 1.379 . S
H859 C853 0.959 . S
H860 C853 0.961 . S
H861 C853 0.960 . S
H862 C854 0.930 . S
H863 C855 0.929 . S
H864 C872 0.929 . S
H865 C874 0.930 . S
H866 C876 0.930 1_554 S
H867 C879 0.929 . S
H868 C882 0.930 . S
H869 C884 0.960 . S
H870 C884 0.960 . S
H871 C884 0.960 . S
C872 H864 0.929 . S
C872 C873 1.377 . S
C872 C874 1.384 . S
C873 C872 1.377 . S
C873 C879 1.390 . S
C874 H865 0.930 . S
C874 C872 1.384 . S
C874 C875 1.372 . S
C875 C874 1.372 . S
C875 C876 1.400 . S
C875 C880 1.496 . S
C876 H866 0.930 1_556 S
C876 C875 1.400 . S
C876 C879 1.386 . S
H877 C893 0.930 . S
H878 C894 0.931 . S
C879 H867 0.929 . S
C879 C873 1.390 . S
C879 C876 1.386 . S
C880 C875 1.496 . S
C880 C882 1.414 . S
C880 C883 1.378 1_556 S
H881 C887 0.930 . S
C882 H868 0.930 . S
C882 C880 1.414 . S
C882 C885 1.403 . S
C883 C880 1.378 1_554 S
C883 C884 1.524 . S
C883 C887 1.400 . S
C884 H869 0.960 . S
C884 H870 0.960 . S
C884 H871 0.960 . S
C884 C883 1.524 . S
C885 C882 1.403 . S
C885 C886 1.392 1_556 S
C885 C889 1.495 . S
C886 C885 1.392 1_554 S
C886 C887 1.385 . S
C886 C888 1.478 . S
C887 H881 0.930 . S
C887 C883 1.400 . S
C887 C886 1.385 . S
C888 C886 1.478 . S
C888 C890 1.381 . S
C888 C894 1.383 . S
C889 C885 1.495 . S
C889 H895 0.959 . S
C889 H896 0.961 . S
C889 H897 0.960 . S
C890 C888 1.381 . S
C890 C891 1.394 . S
C890 H898 0.930 . S
C891 C890 1.394 . S
C891 C892 1.383 . S
C891 H899 0.929 . S
C892 C891 1.383 . S
C892 C893 1.377 . S
C893 H877 0.930 . S
C893 C892 1.377 . S
C893 C894 1.379 . S
C894 H878 0.931 . S
C894 C888 1.383 . S
C894 C893 1.379 . S
H895 C889 0.959 . S
H896 C889 0.961 . S
H897 C889 0.960 . S
H898 C890 0.930 . S
H899 C891 0.929 . S
H900 C908 0.946 . S
H901 C910 0.930 . S
H902 C912 0.930 . S
H903 C915 0.929 . S
H904 C918 0.922 1_556 S
H905 C920 0.960 . S
H906 C920 0.960 . S
H907 C920 0.960 1_556 S
C908 H900 0.946 . S
C908 C909 1.354 1_554 S
C908 C910 1.392 . S
C909 C908 1.354 1_556 S
C909 C915 1.390 . S
C910 H901 0.930 . S
C910 C908 1.392 . S
C910 C911 1.372 1_554 S
C911 C910 1.372 1_556 S
C911 C912 1.400 . S
C911 C916 1.490 1_556 S
C912 H902 0.930 . S
C912 C911 1.400 . S
C912 C915 1.386 . S
H913 C929 0.930 . S
H914 C930 0.931 1_556 S
C915 H903 0.929 . S
C915 C909 1.390 . S
C915 C912 1.386 . S
C916 C911 1.490 1_554 S
C916 C918 1.396 . S
C916 C919 1.403 . S
H917 C923 0.930 . S
C918 H904 0.922 1_554 S
C918 C916 1.396 . S
C918 C921 1.411 . S
C919 C916 1.403 . S
C919 C920 1.524 . S
C919 C923 1.400 . S
C920 H905 0.960 . S
C920 H906 0.960 . S
C920 H907 0.960 1_554 S
C920 C919 1.524 . S
C921 C918 1.411 . S
C921 C922 1.392 . S
C921 C925 1.495 . S
C922 C921 1.392 . S
C922 C923 1.385 . S
C922 C924 1.478 . S
C923 H917 0.930 . S
C923 C919 1.400 . S
C923 C922 1.385 . S
C924 C922 1.478 . S
C924 C926 1.381 . S
C924 C930 1.383 . S
C925 C921 1.495 . S
C925 H931 0.958 1_554 S
C925 H932 0.961 1_554 S
C925 H933 0.960 . S
C926 C924 1.381 . S
C926 C927 1.394 . S
C926 H934 0.930 . S
C927 C926 1.394 . S
C927 C928 1.383 . S
C927 H935 0.929 . S
C928 C927 1.383 . S
C928 C929 1.377 . S
C929 H913 0.930 . S
C929 C928 1.377 . S
C929 C930 1.379 . S
C930 H914 0.931 1_554 S
C930 C924 1.383 . S
C930 C929 1.379 . S
H931 C925 0.958 1_556 S
H932 C925 0.961 1_556 S
H933 C925 0.960 . S
H934 C926 0.930 . S
H935 C927 0.929 . S
H936 C944 0.929 . S
H937 C946 0.930 . S
H938 C948 0.930 . S
H939 C951 0.929 . S
H940 C954 0.930 . S
H941 C956 0.960 . S
H942 C956 0.960 . S
H943 C956 0.960 . S
C944 H936 0.929 . S
C944 C945 1.377 1_554 S
C944 C946 1.384 . S
C945 C944 1.377 1_556 S
C945 C951 1.390 . S
C946 H937 0.930 . S
C946 C944 1.384 . S
C946 C947 1.372 1_554 S
C947 C946 1.372 1_556 S
C947 C948 1.400 . S
C947 C952 1.490 1_556 S
C948 H938 0.930 . S
C948 C947 1.400 . S
C948 C951 1.386 . S
H949 C965 0.930 1_556 S
H950 C966 0.931 1_556 S
C951 H939 0.929 . S
C951 C945 1.390 . S
C951 C948 1.386 . S
C952 C947 1.490 1_554 S
C952 C954 1.395 . S
C952 C955 1.403 1_554 S
H953 C959 0.930 1_556 S
C954 H940 0.930 . S
C954 C952 1.395 . S
C954 C957 1.403 . S
C955 C952 1.403 1_556 S
C955 C956 1.524 . S
C955 C959 1.400 1_556 S
C956 H941 0.960 . S
C956 H942 0.960 . S
C956 H943 0.960 . S
C956 C955 1.524 . S
C957 C954 1.403 . S
C957 C958 1.392 . S
C957 C961 1.495 . S
C958 C957 1.392 . S
C958 C959 1.385 . S
C958 C960 1.478 . S
C959 H953 0.930 1_554 S
C959 C955 1.400 1_554 S
C959 C958 1.385 . S
C960 C958 1.478 . S
C960 C962 1.381 . S
C960 C966 1.383 . S
C961 C957 1.495 . S
C961 H967 0.959 . S
C961 H968 0.961 . S
C961 H969 0.960 . S
C962 C960 1.381 . S
C962 C963 1.394 . S
C962 H970 0.930 . S
C963 C962 1.394 . S
C963 C964 1.383 . S
C963 H971 0.929 . S
C964 C963 1.383 . S
C964 C965 1.377 . S
C965 H949 0.930 1_554 S
C965 C964 1.377 . S
C965 C966 1.379 . S
C966 H950 0.931 1_554 S
C966 C960 1.383 . S
C966 C965 1.379 . S
H967 C961 0.959 . S
H968 C961 0.961 . S
H969 C961 0.960 . S
H970 C962 0.930 . S
H971 C963 0.929 . S
H972 C980 0.939 . S
H973 C982 0.930 1_556 S
H974 C984 0.930 . S
H975 C987 0.929 . S
H976 C990 0.930 . S
H977 C992 0.960 . S
H978 C992 0.960 . S
H979 C992 0.960 . S
C980 H972 0.939 . S
C980 C981 1.377 . S
C980 C982 1.384 . S
C981 C980 1.377 . S
C981 C987 1.390 . S
C982 H973 0.930 1_554 S
C982 C980 1.384 . S
C982 C983 1.372 . S
C983 C982 1.372 . S
C983 C984 1.400 . S
C983 C988 1.490 . S
C984 H974 0.930 . S
C984 C983 1.400 . S
C984 C987 1.386 . S
H985 C1001 0.925 1_554 S
H986 C1002 0.931 . S
C987 H975 0.929 . S
C987 C981 1.390 . S
C987 C984 1.386 . S
C988 C983 1.490 . S
C988 C990 1.395 1_554 S
C988 C991 1.403 . S
H989 C995 0.930 . S
C990 H976 0.930 . S
C990 C988 1.395 1_556 S
C990 C993 1.403 . S
C991 C988 1.403 . S
C991 C992 1.524 . S
C991 C995 1.400 . S
C992 H977 0.960 . S
C992 H978 0.960 . S
C992 H979 0.960 . S
C992 C991 1.524 . S
C993 C990 1.403 . S
C993 C994 1.392 . S
C993 C997 1.495 . S
C994 C993 1.392 . S
C994 C995 1.385 1_556 S
C994 C996 1.478 . S
C995 H989 0.930 . S
C995 C991 1.400 . S
C995 C994 1.385 1_554 S
C996 C994 1.478 . S
C996 C998 1.381 . S
C996 C1002 1.383 1_556 S
C997 C993 1.495 . S
C997 H1003 0.959 . S
C997 H1004 0.961 . S
C997 H1005 0.960 . S
C998 C996 1.381 . S
C998 C999 1.394 . S
C998 H1006 0.930 . S
C999 C998 1.394 . S
C999 C1000 1.383 . S
C999 H1007 0.929 . S
C1000 C999 1.383 . S
C1000 C1001 1.383 . S
C1001 H985 0.925 1_556 S
C1001 C1000 1.383 . S
C1001 C1002 1.378 1_556 S
C1002 H986 0.931 . S
C1002 C996 1.383 1_554 S
C1002 C1001 1.378 1_554 S
H1003 C997 0.959 . S
H1004 C997 0.961 . S
H1005 C997 0.960 . S
H1006 C998 0.930 . S
H1007 C999 0.929 . S
H1008 C1016 0.929 . S
H1009 C1018 0.930 . S
H1010 C1020 0.930 . S
H1011 C1023 0.929 . S
H1012 C1026 0.930 . S
H1013 C1028 0.960 . S
H1014 C1028 0.960 . S
H1015 C1028 0.960 . S
C1016 H1008 0.929 . S
C1016 C1017 1.377 . S
C1016 C1018 1.384 . S
C1017 C1016 1.377 . S
C1017 C1023 1.390 . S
C1018 H1009 0.930 . S
C1018 C1016 1.384 . S
C1018 C1019 1.372 . S
C1019 C1018 1.372 . S
C1019 C1020 1.400 . S
C1019 C1024 1.490 . S
C1020 H1010 0.930 . S
C1020 C1019 1.400 . S
C1020 C1023 1.386 . S
H1021 C1037 0.930 . S
H1022 C1038 0.931 . S
C1023 H1011 0.929 . S
C1023 C1017 1.390 . S
C1023 C1020 1.386 . S
C1024 C1019 1.490 . S
C1024 C1026 1.395 . S
C1024 C1027 1.403 . S
H1025 C1031 0.930 . S
C1026 H1012 0.930 . S
C1026 C1024 1.395 . S
C1026 C1029 1.403 . S
C1027 C1024 1.403 . S
C1027 C1028 1.524 . S
C1027 C1031 1.400 . S
C1028 H1013 0.960 . S
C1028 H1014 0.960 . S
C1028 H1015 0.960 . S
C1028 C1027 1.524 . S
C1029 C1026 1.403 . S
C1029 C1030 1.392 . S
C1029 C1033 1.495 . S
C1030 C1029 1.392 . S
C1030 C1031 1.385 . S
C1030 C1032 1.478 . S
C1031 H1025 0.930 . S
C1031 C1027 1.400 . S
C1031 C1030 1.385 . S
C1032 C1030 1.478 . S
C1032 C1034 1.381 . S
C1032 C1038 1.383 . S
C1033 C1029 1.495 . S
C1033 H1039 0.959 . S
C1033 H1040 0.961 . S
C1033 H1041 0.960 . S
C1034 C1032 1.381 . S
C1034 C1035 1.394 . S
C1034 H1042 0.930 . S
C1035 C1034 1.394 . S
C1035 C1036 1.383 . S
C1035 H1043 0.929 . S
C1036 C1035 1.383 . S
C1036 C1037 1.377 . S
C1037 H1021 0.930 . S
C1037 C1036 1.377 . S
C1037 C1038 1.379 . S
C1038 H1022 0.931 . S
C1038 C1032 1.383 . S
C1038 C1037 1.379 . S
H1039 C1033 0.959 . S
H1040 C1033 0.961 . S
H1041 C1033 0.960 . S
H1042 C1034 0.930 . S
H1043 C1035 0.929 . S
H1044 C1052 0.929 . S
H1045 C1054 0.930 . S
H1046 C1056 0.930 . S
H1047 C1059 0.929 . S
H1048 C1062 0.930 . S
H1049 C1064 0.960 . S
H1050 C1064 0.960 . S
H1051 C1064 0.960 . S
C1052 H1044 0.929 . S
C1052 C1053 1.377 . S
C1052 C1054 1.384 . S
C1053 C1052 1.377 . S
C1053 C1059 1.390 . S
C1054 H1045 0.930 . S
C1054 C1052 1.384 . S
C1054 C1055 1.372 . S
C1055 C1054 1.372 . S
C1055 C1056 1.400 . S
C1055 C1060 1.490 . S
C1056 H1046 0.930 . S
C1056 C1055 1.400 . S
C1056 C1059 1.386 . S
H1057 C1073 0.930 . S
H1058 C1074 0.931 . S
C1059 H1047 0.929 . S
C1059 C1053 1.390 . S
C1059 C1056 1.386 . S
C1060 C1055 1.490 . S
C1060 C1062 1.395 . S
C1060 C1063 1.403 . S
H1061 C1067 0.930 . S
C1062 H1048 0.930 . S
C1062 C1060 1.395 . S
C1062 C1065 1.403 . S
C1063 C1060 1.403 . S
C1063 C1064 1.524 . S
C1063 C1067 1.400 . S
C1064 H1049 0.960 . S
C1064 H1050 0.960 . S
C1064 H1051 0.960 . S
C1064 C1063 1.524 . S
C1065 C1062 1.403 . S
C1065 C1066 1.392 . S
C1065 C1069 1.495 . S
C1066 C1065 1.392 . S
C1066 C1067 1.385 . S
C1066 C1068 1.478 . S
C1067 H1061 0.930 . S
C1067 C1063 1.400 . S
C1067 C1066 1.385 . S
C1068 C1066 1.478 . S
C1068 C1070 1.381 . S
C1068 C1074 1.383 . S
C1069 C1065 1.495 . S
C1069 H1075 0.959 . S
C1069 H1076 0.961 . S
C1069 H1077 0.960 . S
C1070 C1068 1.381 . S
C1070 C1071 1.394 . S
C1070 H1078 0.930 . S
C1071 C1070 1.394 . S
C1071 C1072 1.383 . S
C1071 H1079 0.929 . S
C1072 C1071 1.383 . S
C1072 C1073 1.377 . S
C1073 H1057 0.930 . S
C1073 C1072 1.377 . S
C1073 C1074 1.379 . S
C1074 H1058 0.931 . S
C1074 C1068 1.383 . S
C1074 C1073 1.379 . S
H1075 C1069 0.959 . S
H1076 C1069 0.961 . S
H1077 C1069 0.960 . S
H1078 C1070 0.930 . S
H1079 C1071 0.929 . S
H1080 C1088 0.929 . S
H1081 C1090 0.930 . S
H1082 C1092 0.930 . S
H1083 C1095 0.929 . S
H1084 C1098 0.930 . S
H1085 C1100 0.960 . S
H1086 C1100 0.960 . S
H1087 C1100 0.960 . S
C1088 H1080 0.929 . S
C1088 C1089 1.377 . S
C1088 C1090 1.384 . S
C1089 C1088 1.377 . S
C1089 C1095 1.390 . S
C1090 H1081 0.930 . S
C1090 C1088 1.384 . S
C1090 C1091 1.372 . S
C1091 C1090 1.372 . S
C1091 C1092 1.400 . S
C1091 C1096 1.490 . S
C1092 H1082 0.930 . S
C1092 C1091 1.400 . S
C1092 C1095 1.386 . S
H1093 C1109 0.930 . S
H1094 C1110 0.931 . S
C1095 H1083 0.929 . S
C1095 C1089 1.390 . S
C1095 C1092 1.386 . S
C1096 C1091 1.490 . S
C1096 C1098 1.395 . S
C1096 C1099 1.403 . S
H1097 C1103 0.930 . S
C1098 H1084 0.930 . S
C1098 C1096 1.395 . S
C1098 C1101 1.403 . S
C1099 C1096 1.403 . S
C1099 C1100 1.524 . S
C1099 C1103 1.400 . S
C1100 H1085 0.960 . S
C1100 H1086 0.960 . S
C1100 H1087 0.960 . S
C1100 C1099 1.524 . S
C1101 C1098 1.403 . S
C1101 C1102 1.392 . S
C1101 C1105 1.495 . S
C1102 C1101 1.392 . S
C1102 C1103 1.385 . S
C1102 C1104 1.478 . S
C1103 H1097 0.930 . S
C1103 C1099 1.400 . S
C1103 C1102 1.385 . S
C1104 C1102 1.478 . S
C1104 C1106 1.381 . S
C1104 C1110 1.383 . S
C1105 C1101 1.495 . S
C1105 H1111 0.959 . S
C1105 H1112 0.961 . S
C1105 H1113 0.960 . S
C1106 C1104 1.381 . S
C1106 C1107 1.394 . S
C1106 H1114 0.930 . S
C1107 C1106 1.394 . S
C1107 C1108 1.383 . S
C1107 H1115 0.929 . S
C1108 C1107 1.383 . S
C1108 C1109 1.377 . S
C1109 H1093 0.930 . S
C1109 C1108 1.377 . S
C1109 C1110 1.379 . S
C1110 H1094 0.931 . S
C1110 C1104 1.383 . S
C1110 C1109 1.379 . S
H1111 C1105 0.959 . S
H1112 C1105 0.961 . S
H1113 C1105 0.960 . S
H1114 C1106 0.930 . S
H1115 C1107 0.929 . S
H1116 C1124 0.929 . S
H1117 C1126 0.930 . S
H1118 C1128 0.930 . S
H1119 C1131 0.929 . S
H1120 C1134 0.930 . S
H1121 C1136 0.960 . S
H1122 C1136 0.960 . S
H1123 C1136 0.960 . S
C1124 H1116 0.929 . S
C1124 C1125 1.377 . S
C1124 C1126 1.384 . S
C1125 C1124 1.377 . S
C1125 C1131 1.390 . S
C1126 H1117 0.930 . S
C1126 C1124 1.384 . S
C1126 C1127 1.372 . S
C1127 C1126 1.372 . S
C1127 C1128 1.400 . S
C1127 C1132 1.490 . S
C1128 H1118 0.930 . S
C1128 C1127 1.400 . S
C1128 C1131 1.386 . S
H1129 C1145 0.930 . S
H1130 C1146 0.931 . S
C1131 H1119 0.929 . S
C1131 C1125 1.390 . S
C1131 C1128 1.386 . S
C1132 C1127 1.490 . S
C1132 C1134 1.395 . S
C1132 C1135 1.403 . S
H1133 C1139 0.930 . S
C1134 H1120 0.930 . S
C1134 C1132 1.395 . S
C1134 C1137 1.403 . S
C1135 C1132 1.403 . S
C1135 C1136 1.524 . S
C1135 C1139 1.400 . S
C1136 H1121 0.960 . S
C1136 H1122 0.960 . S
C1136 H1123 0.960 . S
C1136 C1135 1.524 . S
C1137 C1134 1.403 . S
C1137 C1138 1.392 . S
C1137 C1141 1.495 . S
C1138 C1137 1.392 . S
C1138 C1139 1.385 . S
C1138 C1140 1.478 . S
C1139 H1133 0.930 . S
C1139 C1135 1.400 . S
C1139 C1138 1.385 . S
C1140 C1138 1.478 . S
C1140 C1142 1.381 . S
C1140 C1146 1.383 . S
C1141 C1137 1.495 . S
C1141 H1147 0.959 . S
C1141 H1148 0.961 . S
C1141 H1149 0.960 . S
C1142 C1140 1.381 . S
C1142 C1143 1.394 . S
C1142 H1150 0.930 . S
C1143 C1142 1.394 . S
C1143 C1144 1.383 . S
C1143 H1151 0.929 . S
C1144 C1143 1.383 . S
C1144 C1145 1.377 . S
C1145 H1129 0.930 . S
C1145 C1144 1.377 . S
C1145 C1146 1.379 . S
C1146 H1130 0.931 . S
C1146 C1140 1.383 . S
C1146 C1145 1.379 . S
H1147 C1141 0.959 . S
H1148 C1141 0.961 . S
H1149 C1141 0.960 . S
H1150 C1142 0.930 . S
H1151 C1143 0.929 . S
H1152 C1160 0.929 . S
H1153 C1162 0.930 . S
H1154 C1164 0.930 . S
H1155 C1167 0.929 . S
H1156 C1170 0.930 . S
H1157 C1172 0.960 1_545 S
H1158 C1172 0.960 . S
H1159 C1172 0.960 . S
C1160 H1152 0.929 . S
C1160 C1161 1.377 . S
C1160 C1162 1.384 . S
C1161 C1160 1.377 . S
C1161 C1167 1.390 . S
C1162 H1153 0.930 . S
C1162 C1160 1.384 . S
C1162 C1163 1.372 . S
C1163 C1162 1.372 . S
C1163 C1164 1.400 . S
C1163 C1168 1.490 . S
C1164 H1154 0.930 . S
C1164 C1163 1.400 . S
C1164 C1167 1.386 . S
H1165 C1181 0.930 . S
H1166 C1182 0.931 . S
C1167 H1155 0.929 . S
C1167 C1161 1.390 . S
C1167 C1164 1.386 . S
C1168 C1163 1.490 . S
C1168 C1170 1.395 1_556 S
C1168 C1171 1.403 . S
H1169 C1175 0.930 . S
C1170 H1156 0.930 . S
C1170 C1168 1.395 1_554 S
C1170 C1173 1.403 1_565 S
C1171 C1168 1.403 . S
C1171 C1172 1.524 . S
C1171 C1175 1.400 1_565 S
C1172 H1157 0.960 1_565 S
C1172 H1158 0.960 . S
C1172 H1159 0.960 . S
C1172 C1171 1.524 . S
C1173 C1170 1.403 1_545 S
C1173 C1174 1.392 . S
C1173 C1177 1.495 . S
C1174 C1173 1.392 . S
C1174 C1175 1.385 1_554 S
C1174 C1176 1.478 . S
C1175 H1169 0.930 . S
C1175 C1171 1.400 1_545 S
C1175 C1174 1.385 1_556 S
C1176 C1174 1.478 . S
C1176 C1178 1.381 . S
C1176 C1182 1.383 . S
C1177 C1173 1.495 . S
C1177 H1183 0.959 1_545 S
C1177 H1184 0.961 . S
C1177 H1185 0.960 . S
C1178 C1176 1.381 . S
C1178 C1179 1.394 . S
C1178 H1186 0.930 . S
C1179 C1178 1.394 . S
C1179 C1180 1.383 . S
C1179 H1187 0.929 . S
C1180 C1179 1.383 . S
C1180 C1181 1.377 . S
C1181 H1165 0.930 . S
C1181 C1180 1.377 . S
C1181 C1182 1.379 . S
C1182 H1166 0.931 . S
C1182 C1176 1.383 . S
C1182 C1181 1.379 . S
H1183 C1177 0.959 1_565 S
H1184 C1177 0.961 . S
H1185 C1177 0.960 . S
H1186 C1178 0.930 . S
H1187 C1179 0.929 . S
H1188 C1196 0.929 . S
H1189 C1198 0.930 1_556 S
H1190 C1200 0.930 . S
H1191 C1203 0.929 . S
H1192 C1206 0.930 . S
H1193 C1208 0.960 . S
H1194 C1208 0.960 . S
H1195 C1208 0.960 . S
C1196 H1188 0.929 . S
C1196 C1197 1.377 . S
C1196 C1198 1.384 . S
C1197 C1196 1.377 . S
C1197 C1203 1.390 . S
C1198 H1189 0.930 1_554 S
C1198 C1196 1.384 . S
C1198 C1199 1.372 . S
C1199 C1198 1.372 . S
C1199 C1200 1.400 . S
C1199 C1204 1.490 . S
C1200 H1190 0.930 . S
C1200 C1199 1.400 . S
C1200 C1203 1.386 . S
H1201 C1217 0.930 . S
H1202 C1218 0.947 . S
C1203 H1191 0.929 . S
C1203 C1197 1.390 . S
C1203 C1200 1.386 . S
C1204 C1199 1.490 . S
C1204 C1206 1.395 1_554 S
C1204 C1207 1.403 . S
H1205 C1211 0.930 . S
C1206 H1192 0.930 . S
C1206 C1204 1.395 1_556 S
C1206 C1209 1.403 . S
C1207 C1204 1.403 . S
C1207 C1208 1.524 . S
C1207 C1211 1.400 . S
C1208 H1193 0.960 . S
C1208 H1194 0.960 . S
C1208 H1195 0.960 . S
C1208 C1207 1.524 . S
C1209 C1206 1.403 . S
C1209 C1210 1.392 . S
C1209 C1213 1.495 . S
C1210 C1209 1.392 . S
C1210 C1211 1.385 1_556 S
C1210 C1212 1.478 . S
C1211 H1205 0.930 . S
C1211 C1207 1.400 . S
C1211 C1210 1.385 1_554 S
C1212 C1210 1.478 . S
C1212 C1214 1.381 . S
C1212 C1218 1.383 . S
C1213 C1209 1.495 . S
C1213 H1219 0.959 . S
C1213 H1220 0.961 . S
C1213 H1221 0.960 . S
C1214 C1212 1.381 . S
C1214 C1215 1.394 . S
C1214 H1222 0.930 . S
C1215 C1214 1.394 . S
C1215 C1216 1.383 . S
C1215 H1223 0.929 . S
C1216 C1215 1.383 . S
C1216 C1217 1.377 . S
C1217 H1201 0.930 . S
C1217 C1216 1.377 . S
C1217 C1218 1.379 . S
C1218 H1202 0.947 . S
C1218 C1212 1.383 . S
C1218 C1217 1.379 . S
H1219 C1213 0.959 . S
H1220 C1213 0.961 . S
H1221 C1213 0.960 . S
H1222 C1214 0.930 . S
H1223 C1215 0.929 . S
H1224 C1232 0.929 . S
H1225 C1234 0.930 . S
H1226 C1236 0.930 . S
H1227 C1239 0.929 . S
H1228 C1242 0.930 . S
H1229 C1244 0.960 . S
H1230 C1244 0.960 . S
H1231 C1244 0.960 . S
C1232 H1224 0.929 . S
C1232 C1233 1.377 . S
C1232 C1234 1.384 . S
C1233 C1232 1.377 . S
C1233 C1239 1.390 1_455 S
C1234 H1225 0.930 . S
C1234 C1232 1.384 . S
C1234 C1235 1.372 . S
C1235 C1234 1.372 . S
C1235 C1236 1.400 1_455 S
C1235 C1240 1.490 . S
C1236 H1226 0.930 . S
C1236 C1235 1.400 1_655 S
C1236 C1239 1.386 . S
H1237 C1253 0.930 . S
H1238 C1254 0.931 . S
C1239 H1227 0.929 . S
C1239 C1233 1.390 1_655 S
C1239 C1236 1.386 . S
C1240 C1235 1.490 . S
C1240 C1242 1.395 1_556 S
C1240 C1243 1.403 1_455 S
H1241 C1247 0.930 . S
C1242 H1228 0.930 . S
C1242 C1240 1.395 1_554 S
C1242 C1245 1.403 . S
C1243 C1240 1.403 1_655 S
C1243 C1244 1.524 . S
C1243 C1247 1.400 . S
C1244 H1229 0.960 . S
C1244 H1230 0.960 . S
C1244 H1231 0.960 . S
C1244 C1243 1.524 . S
C1245 C1242 1.403 . S
C1245 C1246 1.392 . S
C1245 C1249 1.495 . S
C1246 C1245 1.392 . S
C1246 C1247 1.385 1_454 S
C1246 C1248 1.478 . S
C1247 H1241 0.930 . S
C1247 C1243 1.400 . S
C1247 C1246 1.385 1_656 S
C1248 C1246 1.478 . S
C1248 C1250 1.381 . S
C1248 C1254 1.383 1_455 S
C1249 C1245 1.495 . S
C1249 H1255 0.959 . S
C1249 H1256 0.961 . S
C1249 H1257 0.960 . S
C1250 C1248 1.381 . S
C1250 C1251 1.394 . S
C1250 H1258 0.930 . S
C1251 C1250 1.394 . S
C1251 C1252 1.383 1_455 S
C1251 H1259 0.929 . S
C1252 C1251 1.383 1_655 S
C1252 C1253 1.377 . S
C1253 H1237 0.930 . S
C1253 C1252 1.377 . S
C1253 C1254 1.379 . S
C1254 H1238 0.931 . S
C1254 C1248 1.383 1_655 S
C1254 C1253 1.379 . S
H1255 C1249 0.959 . S
H1256 C1249 0.961 . S
H1257 C1249 0.960 . S
H1258 C1250 0.930 . S
H1259 C1251 0.929 . S
H1260 C1268 0.929 . S
H1261 C1270 0.930 . S
H1262 C1272 0.930 . S
H1263 C1275 0.929 . S
H1264 C1278 0.930 . S
H1265 C1280 0.960 1_655 S
H1266 C1280 0.960 . S
H1267 C1280 0.960 . S
C1268 H1260 0.929 . S
C1268 C1269 1.377 1_545 S
C1268 C1270 1.384 . S
C1269 C1268 1.377 1_565 S
C1269 C1275 1.390 . S
C1270 H1261 0.930 . S
C1270 C1268 1.384 . S
C1270 C1271 1.361 1_545 S
C1271 C1270 1.361 1_565 S
C1271 C1272 1.411 . S
C1271 C1276 1.488 1_565 S
C1272 H1262 0.930 . S
C1272 C1271 1.411 . S
C1272 C1275 1.386 . S
H1273 C1289 0.930 . S
H1274 C1290 0.931 . S
C1275 H1263 0.929 . S
C1275 C1269 1.390 . S
C1275 C1272 1.386 . S
C1276 C1271 1.488 1_545 S
C1276 C1278 1.414 1_554 S
C1276 C1279 1.387 1_545 S
H1277 C1283 0.930 . S
C1278 H1264 0.930 . S
C1278 C1276 1.414 1_556 S
C1278 C1281 1.403 1_455 S
C1279 C1276 1.387 1_565 S
C1279 C1280 1.524 . S
C1279 C1283 1.400 1_455 S
C1280 H1265 0.960 1_455 S
C1280 H1266 0.960 . S
C1280 H1267 0.960 . S
C1280 C1279 1.524 . S
C1281 C1278 1.403 1_655 S
C1281 C1282 1.392 . S
C1281 C1285 1.495 . S
C1282 C1281 1.392 . S
C1282 C1283 1.385 1_546 S
C1282 C1284 1.478 . S
C1283 H1277 0.930 . S
C1283 C1279 1.400 1_655 S
C1283 C1282 1.385 1_564 S
C1284 C1282 1.478 . S
C1284 C1286 1.381 . S
C1284 C1290 1.383 1_545 S
C1285 C1281 1.495 . S
C1285 H1291 0.959 1_655 S
C1285 H1292 0.961 . S
C1285 H1293 0.960 . S
C1286 C1284 1.381 . S
C1286 C1287 1.394 . S
C1286 H1294 0.930 . S
C1287 C1286 1.394 . S
C1287 C1288 1.383 . S
C1287 H1295 0.929 . S
C1288 C1287 1.383 . S
C1288 C1289 1.377 1_545 S
C1289 H1273 0.930 . S
C1289 C1288 1.377 1_565 S
C1289 C1290 1.379 . S
C1290 H1274 0.931 . S
C1290 C1284 1.383 1_565 S
C1290 C1289 1.379 . S
H1291 C1285 0.959 1_455 S
H1292 C1285 0.961 . S
H1293 C1285 0.960 . S
H1294 C1286 0.930 . S
H1295 C1287 0.929 . S
H1296 C1304 0.929 . S
H1297 C1306 0.930 . S
H1298 C1308 0.930 . S
H1299 C1311 0.929 . S
H1300 C1314 0.930 . S
H1301 C1316 0.960 . S
H1302 C1316 0.960 . S
H1303 C1316 0.960 . S
C1304 H1296 0.929 . S
C1304 C1305 1.377 . S
C1304 C1306 1.384 . S
C1305 C1304 1.377 . S
C1305 C1311 1.390 . S
C1306 H1297 0.930 . S
C1306 C1304 1.384 . S
C1306 C1307 1.372 . S
C1307 C1306 1.372 . S
C1307 C1308 1.400 . S
C1307 C1312 1.490 . S
C1308 H1298 0.930 . S
C1308 C1307 1.400 . S
C1308 C1311 1.386 . S
H1309 C1325 0.930 . S
H1310 C1326 0.931 . S
C1311 H1299 0.929 . S
C1311 C1305 1.390 . S
C1311 C1308 1.386 . S
C1312 C1307 1.490 . S
C1312 C1314 1.395 . S
C1312 C1315 1.403 . S
H1313 C1319 0.930 . S
C1314 H1300 0.930 . S
C1314 C1312 1.395 . S
C1314 C1317 1.403 . S
C1315 C1312 1.403 . S
C1315 C1316 1.524 . S
C1315 C1319 1.400 . S
C1316 H1301 0.960 . S
C1316 H1302 0.960 . S
C1316 H1303 0.960 . S
C1316 C1315 1.524 . S
C1317 C1314 1.403 . S
C1317 C1318 1.392 . S
C1317 C1321 1.495 . S
C1318 C1317 1.392 . S
C1318 C1319 1.385 . S
C1318 C1320 1.478 . S
C1319 H1313 0.930 . S
C1319 C1315 1.400 . S
C1319 C1318 1.385 . S
C1320 C1318 1.478 . S
C1320 C1322 1.381 . S
C1320 C1326 1.383 . S
C1321 C1317 1.495 . S
C1321 H1327 0.959 . S
C1321 H1328 0.961 . S
C1321 H1329 0.960 . S
C1322 C1320 1.381 . S
C1322 C1323 1.394 . S
C1322 H1330 0.930 . S
C1323 C1322 1.394 . S
C1323 C1324 1.383 . S
C1323 H1331 0.929 . S
C1324 C1323 1.383 . S
C1324 C1325 1.377 . S
C1325 H1309 0.930 . S
C1325 C1324 1.377 . S
C1325 C1326 1.379 . S
C1326 H1310 0.931 . S
C1326 C1320 1.383 . S
C1326 C1325 1.379 . S
H1327 C1321 0.959 . S
H1328 C1321 0.961 . S
H1329 C1321 0.960 . S
H1330 C1322 0.930 . S
H1331 C1323 0.929 . S
H1332 C1340 0.929 . S
H1333 C1342 0.930 . S
H1334 C1344 0.930 . S
H1335 C1347 0.929 . S
H1336 C1350 0.930 . S
H1337 C1352 0.960 . S
H1338 C1352 0.960 . S
H1339 C1352 0.960 . S
C1340 H1332 0.929 . S
C1340 C1341 1.377 . S
C1340 C1342 1.384 . S
C1341 C1340 1.377 . S
C1341 C1347 1.390 . S
C1342 H1333 0.930 . S
C1342 C1340 1.384 . S
C1342 C1343 1.372 . S
C1343 C1342 1.372 . S
C1343 C1344 1.400 . S
C1343 C1348 1.490 . S
C1344 H1334 0.930 . S
C1344 C1343 1.400 . S
C1344 C1347 1.386 . S
H1345 C1361 0.930 . S
H1346 C1362 0.931 . S
C1347 H1335 0.929 . S
C1347 C1341 1.390 . S
C1347 C1344 1.386 . S
C1348 C1343 1.490 . S
C1348 C1350 1.395 . S
C1348 C1351 1.403 . S
H1349 C1355 0.930 . S
C1350 H1336 0.930 . S
C1350 C1348 1.395 . S
C1350 C1353 1.403 1_455 S
C1351 C1348 1.403 . S
C1351 C1352 1.524 . S
C1351 C1355 1.400 1_455 S
C1352 H1337 0.960 . S
C1352 H1338 0.960 . S
C1352 H1339 0.960 . S
C1352 C1351 1.524 . S
C1353 C1350 1.403 1_655 S
C1353 C1354 1.392 . S
C1353 C1357 1.495 . S
C1354 C1353 1.392 . S
C1354 C1355 1.385 . S
C1354 C1356 1.478 . S
C1355 H1349 0.930 . S
C1355 C1351 1.400 1_655 S
C1355 C1354 1.385 . S
C1356 C1354 1.478 . S
C1356 C1358 1.381 . S
C1356 C1362 1.383 . S
C1357 C1353 1.495 . S
C1357 H1363 0.959 . S
C1357 H1364 0.961 . S
C1357 H1365 0.960 . S
C1358 C1356 1.381 . S
C1358 C1359 1.394 . S
C1358 H1366 0.930 . S
C1359 C1358 1.394 . S
C1359 C1360 1.383 . S
C1359 H1367 0.929 . S
C1360 C1359 1.383 . S
C1360 C1361 1.377 . S
C1361 H1345 0.930 . S
C1361 C1360 1.377 . S
C1361 C1362 1.379 . S
C1362 H1346 0.931 . S
C1362 C1356 1.383 . S
C1362 C1361 1.379 . S
H1363 C1357 0.959 . S
H1364 C1357 0.961 . S
H1365 C1357 0.960 . S
H1366 C1358 0.930 . S
H1367 C1359 0.929 . S
H1368 C1376 0.929 . S
H1369 C1378 0.930 . S
H1370 C1380 0.930 . S
H1371 C1383 0.929 . S
H1372 C1386 0.930 . S
H1373 C1388 0.960 . S
H1374 C1388 0.960 . S
H1375 C1388 0.960 . S
C1376 H1368 0.929 . S
C1376 C1377 1.377 1_655 S
C1376 C1378 1.384 . S
C1377 C1376 1.377 1_455 S
C1377 C1383 1.390 . S
C1378 H1369 0.930 . S
C1378 C1376 1.384 . S
C1378 C1379 1.372 1_655 S
C1379 C1378 1.372 1_455 S
C1379 C1380 1.400 . S
C1379 C1384 1.488 1_455 S
C1380 H1370 0.930 . S
C1380 C1379 1.400 . S
C1380 C1383 1.386 . S
H1381 C1397 0.930 . S
H1382 C1398 0.931 . S
C1383 H1371 0.929 . S
C1383 C1377 1.390 . S
C1383 C1380 1.386 . S
C1384 C1379 1.488 1_655 S
C1384 C1386 1.421 . S
C1384 C1387 1.379 1_655 S
H1385 C1391 0.930 . S
C1386 H1372 0.930 . S
C1386 C1384 1.421 . S
C1386 C1389 1.403 1_565 S
C1387 C1384 1.379 1_455 S
C1387 C1388 1.524 . S
C1387 C1391 1.400 1_565 S
C1388 H1373 0.960 . S
C1388 H1374 0.960 . S
C1388 H1375 0.960 . S
C1388 C1387 1.524 . S
C1389 C1386 1.403 1_545 S
C1389 C1390 1.392 . S
C1389 C1393 1.495 . S
C1390 C1389 1.392 . S
C1390 C1391 1.385 1_655 S
C1390 C1392 1.478 . S
C1391 H1385 0.930 . S
C1391 C1387 1.400 1_545 S
C1391 C1390 1.385 1_455 S
C1392 C1390 1.478 . S
C1392 C1394 1.381 . S
C1392 C1398 1.383 1_655 S
C1393 C1389 1.495 . S
C1393 H1399 0.959 . S
C1393 H1400 0.961 . S
C1393 H1401 0.960 . S
C1394 C1392 1.381 . S
C1394 C1395 1.394 . S
C1394 H1402 0.930 . S
C1395 C1394 1.394 . S
C1395 C1396 1.383 . S
C1395 H1403 0.929 . S
C1396 C1395 1.383 . S
C1396 C1397 1.377 1_655 S
C1397 H1381 0.930 . S
C1397 C1396 1.377 1_455 S
C1397 C1398 1.379 . S
C1398 H1382 0.931 . S
C1398 C1392 1.383 1_455 S
C1398 C1397 1.379 . S
H1399 C1393 0.959 . S
H1400 C1393 0.961 . S
H1401 C1393 0.960 . S
H1402 C1394 0.930 . S
H1403 C1395 0.929 . S
H1404 C1412 0.929 . S
H1405 C1414 0.930 . S
H1406 C1416 0.931 . S
H1407 C1419 0.929 . S
H1408 C1422 0.930 . S
H1409 C1424 0.960 . S
H1410 C1424 0.960 . S
H1411 C1424 0.960 . S
C1412 H1404 0.929 . S
C1412 C1413 1.377 . S
C1412 C1414 1.384 . S
C1413 C1412 1.377 . S
C1413 C1419 1.390 . S
C1414 H1405 0.930 . S
C1414 C1412 1.384 . S
C1414 C1415 1.372 . S
C1415 C1414 1.372 . S
C1415 C1416 1.400 . S
C1415 C1420 1.491 . S
C1416 H1406 0.931 . S
C1416 C1415 1.400 . S
C1416 C1419 1.386 . S
H1417 C1433 0.930 . S
H1418 C1434 0.931 . S
C1419 H1407 0.929 . S
C1419 C1413 1.390 . S
C1419 C1416 1.386 . S
C1420 C1415 1.491 . S
C1420 C1422 1.382 1_545 S
C1420 C1423 1.414 . S
H1421 C1427 0.930 . S
C1422 H1408 0.930 . S
C1422 C1420 1.382 1_565 S
C1422 C1425 1.403 . S
C1423 C1420 1.414 . S
C1423 C1424 1.524 . S
C1423 C1427 1.400 . S
C1424 H1409 0.960 . S
C1424 H1410 0.960 . S
C1424 H1411 0.960 . S
C1424 C1423 1.524 . S
C1425 C1422 1.403 . S
C1425 C1426 1.392 . S
C1425 C1429 1.495 . S
C1426 C1425 1.392 . S
C1426 C1427 1.385 1_565 S
C1426 C1428 1.478 . S
C1427 H1421 0.930 . S
C1427 C1423 1.400 . S
C1427 C1426 1.385 1_545 S
C1428 C1426 1.478 . S
C1428 C1430 1.381 . S
C1428 C1434 1.383 . S
C1429 C1425 1.495 . S
C1429 H1435 0.959 . S
C1429 H1436 0.961 . S
C1429 H1437 0.960 . S
C1430 C1428 1.381 . S
C1430 C1431 1.394 . S
C1430 H1438 0.929 1_565 S
C1431 C1430 1.394 . S
C1431 C1432 1.383 . S
C1431 H1439 0.929 1_565 S
C1432 C1431 1.383 . S
C1432 C1433 1.377 . S
C1433 H1417 0.930 . S
C1433 C1432 1.377 . S
C1433 C1434 1.379 . S
C1434 H1418 0.931 . S
C1434 C1428 1.383 . S
C1434 C1433 1.379 . S
H1435 C1429 0.959 . S
H1436 C1429 0.961 . S
H1437 C1429 0.960 . S
H1438 C1430 0.929 1_545 S
H1439 C1431 0.929 1_545 S
H1440 C1448 0.929 . S
H1441 C1450 0.930 . S
H1442 C1452 0.930 . S
H1443 C1455 0.929 . S
H1444 C1458 0.930 . S
H1445 C1460 0.960 . S
H1446 C1460 0.960 . S
H1447 C1460 0.960 . S
C1448 H1440 0.929 . S
C1448 C1449 1.377 . S
C1448 C1450 1.384 . S
C1449 C1448 1.377 . S
C1449 C1455 1.390 . S
C1450 H1441 0.930 . S
C1450 C1448 1.384 . S
C1450 C1451 1.372 . S
C1451 C1450 1.372 . S
C1451 C1452 1.400 . S
C1451 C1456 1.490 . S
C1452 H1442 0.930 . S
C1452 C1451 1.400 . S
C1452 C1455 1.386 . S
H1453 C1469 0.930 . S
H1454 C1470 0.931 . S
C1455 H1443 0.929 . S
C1455 C1449 1.390 . S
C1455 C1452 1.386 . S
C1456 C1451 1.490 . S
C1456 C1458 1.395 . S
C1456 C1459 1.403 . S
H1457 C1463 0.930 . S
C1458 H1444 0.930 . S
C1458 C1456 1.395 . S
C1458 C1461 1.403 . S
C1459 C1456 1.403 . S
C1459 C1460 1.524 . S
C1459 C1463 1.400 . S
C1460 H1445 0.960 . S
C1460 H1446 0.960 . S
C1460 H1447 0.960 . S
C1460 C1459 1.524 . S
C1461 C1458 1.403 . S
C1461 C1462 1.392 . S
C1461 C1465 1.495 . S
C1462 C1461 1.392 . S
C1462 C1463 1.385 . S
C1462 C1464 1.478 . S
C1463 H1457 0.930 . S
C1463 C1459 1.400 . S
C1463 C1462 1.385 . S
C1464 C1462 1.478 . S
C1464 C1466 1.381 . S
C1464 C1470 1.383 . S
C1465 C1461 1.495 . S
C1465 H1471 0.959 . S
C1465 H1472 0.961 . S
C1465 H1473 0.960 . S
C1466 C1464 1.381 . S
C1466 C1467 1.394 . S
C1466 H1474 0.930 . S
C1467 C1466 1.394 . S
C1467 C1468 1.383 . S
C1467 H1475 0.929 . S
C1468 C1467 1.383 . S
C1468 C1469 1.377 . S
C1469 H1453 0.930 . S
C1469 C1468 1.377 . S
C1469 C1470 1.379 . S
C1470 H1454 0.931 . S
C1470 C1464 1.383 . S
C1470 C1469 1.379 . S
H1471 C1465 0.959 . S
H1472 C1465 0.961 . S
H1473 C1465 0.960 . S
H1474 C1466 0.930 . S
H1475 C1467 0.929 . S
H1476 C1484 0.929 . S
H1477 C1486 0.930 . S
H1478 C1488 0.930 . S
H1479 C1491 0.929 . S
H1480 C1494 0.930 . S
H1481 C1496 0.960 . S
H1482 C1496 0.960 . S
H1483 C1496 0.960 . S
C1484 H1476 0.929 . S
C1484 C1485 1.377 . S
C1484 C1486 1.384 . S
C1485 C1484 1.377 . S
C1485 C1491 1.390 . S
C1486 H1477 0.930 . S
C1486 C1484 1.384 . S
C1486 C1487 1.372 . S
C1487 C1486 1.372 . S
C1487 C1488 1.400 . S
C1487 C1492 1.490 . S
C1488 H1478 0.930 . S
C1488 C1487 1.400 . S
C1488 C1491 1.386 . S
H1489 C1505 0.930 . S
H1490 C1506 0.931 . S
C1491 H1479 0.929 . S
C1491 C1485 1.390 . S
C1491 C1488 1.386 . S
C1492 C1487 1.490 . S
C1492 C1494 1.395 . S
C1492 C1495 1.403 . S
H1493 C1499 0.930 . S
C1494 H1480 0.930 . S
C1494 C1492 1.395 . S
C1494 C1497 1.403 . S
C1495 C1492 1.403 . S
C1495 C1496 1.524 . S
C1495 C1499 1.400 . S
C1496 H1481 0.960 . S
C1496 H1482 0.960 . S
C1496 H1483 0.960 . S
C1496 C1495 1.524 . S
C1497 C1494 1.403 . S
C1497 C1498 1.392 . S
C1497 C1501 1.495 . S
C1498 C1497 1.392 . S
C1498 C1499 1.385 . S
C1498 C1500 1.478 . S
C1499 H1493 0.930 . S
C1499 C1495 1.400 . S
C1499 C1498 1.385 . S
C1500 C1498 1.478 . S
C1500 C1502 1.381 . S
C1500 C1506 1.383 . S
C1501 C1497 1.495 . S
C1501 H1507 0.959 . S
C1501 H1508 0.961 . S
C1501 H1509 0.960 . S
C1502 C1500 1.381 . S
C1502 C1503 1.394 . S
C1502 H1510 0.930 . S
C1503 C1502 1.394 . S
C1503 C1504 1.383 . S
C1503 H1511 0.929 . S
C1504 C1503 1.383 . S
C1504 C1505 1.377 . S
C1505 H1489 0.930 . S
C1505 C1504 1.377 . S
C1505 C1506 1.379 . S
C1506 H1490 0.931 . S
C1506 C1500 1.383 . S
C1506 C1505 1.379 . S
H1507 C1501 0.959 . S
H1508 C1501 0.961 . S
H1509 C1501 0.960 . S
H1510 C1502 0.930 . S
H1511 C1503 0.929 . S
H1512 C1520 0.929 . S
H1513 C1522 0.930 . S
H1514 C1524 0.930 . S
H1515 C1527 0.929 . S
H1516 C1530 0.930 . S
H1517 C1532 0.960 . S
H1518 C1532 0.960 . S
H1519 C1532 0.960 . S
C1520 H1512 0.929 . S
C1520 C1521 1.377 . S
C1520 C1522 1.384 . S
C1521 C1520 1.377 . S
C1521 C1527 1.390 . S
C1522 H1513 0.930 . S
C1522 C1520 1.384 . S
C1522 C1523 1.372 . S
C1523 C1522 1.372 . S
C1523 C1524 1.400 . S
C1523 C1528 1.490 . S
C1524 H1514 0.930 . S
C1524 C1523 1.400 . S
C1524 C1527 1.386 . S
H1525 C1541 0.937 . S
H1526 C1542 0.930 1_455 S
C1527 H1515 0.929 . S
C1527 C1521 1.390 . S
C1527 C1524 1.386 . S
C1528 C1523 1.490 . S
C1528 C1530 1.395 . S
C1528 C1531 1.403 . S
H1529 C1535 0.930 . S
C1530 H1516 0.930 . S
C1530 C1528 1.395 . S
C1530 C1533 1.403 . S
C1531 C1528 1.403 . S
C1531 C1532 1.524 . S
C1531 C1535 1.400 . S
C1532 H1517 0.960 . S
C1532 H1518 0.960 . S
C1532 H1519 0.960 . S
C1532 C1531 1.524 . S
C1533 C1530 1.403 . S
C1533 C1534 1.392 . S
C1533 C1537 1.495 . S
C1534 C1533 1.392 . S
C1534 C1535 1.385 . S
C1534 C1536 1.478 . S
C1535 H1529 0.930 . S
C1535 C1531 1.400 . S
C1535 C1534 1.385 . S
C1536 C1534 1.478 . S
C1536 C1538 1.381 . S
C1536 C1542 1.383 . S
C1537 C1533 1.495 . S
C1537 H1543 0.959 . S
C1537 H1544 0.961 . S
C1537 H1545 0.960 . S
C1538 C1536 1.381 . S
C1538 C1539 1.394 . S
C1538 H1546 0.930 . S
C1539 C1538 1.394 . S
C1539 C1540 1.383 . S
C1539 H1547 0.929 . S
C1540 C1539 1.383 . S
C1540 C1541 1.377 . S
C1541 H1525 0.937 . S
C1541 C1540 1.377 . S
C1541 C1542 1.379 . S
C1542 H1526 0.930 1_655 S
C1542 C1536 1.383 . S
C1542 C1541 1.379 . S
H1543 C1537 0.959 . S
H1544 C1537 0.961 . S
H1545 C1537 0.960 . S
H1546 C1538 0.930 . S
H1547 C1539 0.929 . S
H1548 C1556 0.929 . S
H1549 C1558 0.930 . S
H1550 C1560 0.930 1_545 S
H1551 C1563 0.929 1_545 S
H1552 C1566 0.930 . S
H1553 C1568 0.960 . S
H1554 C1568 0.960 . S
H1555 C1568 0.960 1_545 S
C1556 H1548 0.929 . S
C1556 C1557 1.377 . S
C1556 C1558 1.384 . S
C1557 C1556 1.377 . S
C1557 C1563 1.390 . S
C1558 H1549 0.930 . S
C1558 C1556 1.384 . S
C1558 C1559 1.372 . S
C1559 C1558 1.372 . S
C1559 C1560 1.400 . S
C1559 C1564 1.490 . S
C1560 H1550 0.930 1_565 S
C1560 C1559 1.400 . S
C1560 C1563 1.386 . S
H1561 C1577 0.930 1_545 S
H1562 C1578 0.931 1_545 S
C1563 H1551 0.929 1_565 S
C1563 C1557 1.390 . S
C1563 C1560 1.386 . S
C1564 C1559 1.490 . S
C1564 C1566 1.395 . S
C1564 C1567 1.403 . S
H1565 C1571 0.930 . S
C1566 H1552 0.930 . S
C1566 C1564 1.395 . S
C1566 C1569 1.403 . S
C1567 C1564 1.403 . S
C1567 C1568 1.524 . S
C1567 C1571 1.400 . S
C1568 H1553 0.960 . S
C1568 H1554 0.960 . S
C1568 H1555 0.960 1_565 S
C1568 C1567 1.524 . S
C1569 C1566 1.403 . S
C1569 C1570 1.392 . S
C1569 C1573 1.495 . S
C1570 C1569 1.392 . S
C1570 C1571 1.385 . S
C1570 C1572 1.478 . S
C1571 H1565 0.930 . S
C1571 C1567 1.400 . S
C1571 C1570 1.385 . S
C1572 C1570 1.478 . S
C1572 C1574 1.381 . S
C1572 C1578 1.383 . S
C1573 C1569 1.495 . S
C1573 H1579 0.959 . S
C1573 H1580 0.961 . S
C1573 H1581 0.960 . S
C1574 C1572 1.381 . S
C1574 C1575 1.394 . S
C1574 H1582 0.930 . S
C1575 C1574 1.394 . S
C1575 C1576 1.383 . S
C1575 H1583 0.929 . S
C1576 C1575 1.383 . S
C1576 C1577 1.377 . S
C1577 H1561 0.930 1_565 S
C1577 C1576 1.377 . S
C1577 C1578 1.379 . S
C1578 H1562 0.931 1_565 S
C1578 C1572 1.383 . S
C1578 C1577 1.379 . S
H1579 C1573 0.959 . S
H1580 C1573 0.961 . S
H1581 C1573 0.960 . S
H1582 C1574 0.930 . S
H1583 C1575 0.929 . S
H1584 C1592 0.929 . S
H1585 C1594 0.930 . S
H1586 C1596 0.930 . S
H1587 C1599 0.929 . S
H1588 C1602 0.930 . S
H1589 C1604 0.960 . S
H1590 C1604 0.960 . S
H1591 C1604 0.960 . S
C1592 H1584 0.929 . S
C1592 C1593 1.377 . S
C1592 C1594 1.384 . S
C1593 C1592 1.377 . S
C1593 C1599 1.390 . S
C1594 H1585 0.930 . S
C1594 C1592 1.384 . S
C1594 C1595 1.372 . S
C1595 C1594 1.372 . S
C1595 C1596 1.400 . S
C1595 C1600 1.490 . S
C1596 H1586 0.930 . S
C1596 C1595 1.400 . S
C1596 C1599 1.386 . S
H1597 C1613 0.930 . S
H1598 C1614 0.931 . S
C1599 H1587 0.929 . S
C1599 C1593 1.390 . S
C1599 C1596 1.386 . S
C1600 C1595 1.490 . S
C1600 C1602 1.395 . S
C1600 C1603 1.403 . S
H1601 C1607 0.930 . S
C1602 H1588 0.930 . S
C1602 C1600 1.395 . S
C1602 C1605 1.403 . S
C1603 C1600 1.403 . S
C1603 C1604 1.524 . S
C1603 C1607 1.400 . S
C1604 H1589 0.960 . S
C1604 H1590 0.960 . S
C1604 H1591 0.960 . S
C1604 C1603 1.524 . S
C1605 C1602 1.403 . S
C1605 C1606 1.392 . S
C1605 C1609 1.495 . S
C1606 C1605 1.392 . S
C1606 C1607 1.385 . S
C1606 C1608 1.478 . S
C1607 H1601 0.930 . S
C1607 C1603 1.400 . S
C1607 C1606 1.385 . S
C1608 C1606 1.478 . S
C1608 C1610 1.381 . S
C1608 C1614 1.383 . S
C1609 C1605 1.495 . S
C1609 H1615 0.959 . S
C1609 H1616 0.961 . S
C1609 H1617 0.960 . S
C1610 C1608 1.381 . S
C1610 C1611 1.394 . S
C1610 H1618 0.930 . S
C1611 C1610 1.394 . S
C1611 C1612 1.383 . S
C1611 H1619 0.929 . S
C1612 C1611 1.383 . S
C1612 C1613 1.377 . S
C1613 H1597 0.930 . S
C1613 C1612 1.377 . S
C1613 C1614 1.379 . S
C1614 H1598 0.931 . S
C1614 C1608 1.383 . S
C1614 C1613 1.379 . S
H1615 C1609 0.959 . S
H1616 C1609 0.961 . S
H1617 C1609 0.960 . S
H1618 C1610 0.930 . S
H1619 C1611 0.929 . S
H1620 C1628 0.929 . S
H1621 C1630 0.930 . S
H1622 C1632 0.930 . S
H1623 C1635 0.929 . S
H1624 C1638 0.930 . S
H1625 C1640 0.960 . S
H1626 C1640 0.960 . S
H1627 C1640 0.960 . S
C1628 H1620 0.929 . S
C1628 C1629 1.377 . S
C1628 C1630 1.384 . S
C1629 C1628 1.377 . S
C1629 C1635 1.390 . S
C1630 H1621 0.930 . S
C1630 C1628 1.384 . S
C1630 C1631 1.372 . S
C1631 C1630 1.372 . S
C1631 C1632 1.400 . S
C1631 C1636 1.490 . S
C1632 H1622 0.930 . S
C1632 C1631 1.400 . S
C1632 C1635 1.386 . S
H1633 C1649 0.930 . S
H1634 C1650 0.931 . S
C1635 H1623 0.929 . S
C1635 C1629 1.390 . S
C1635 C1632 1.386 . S
C1636 C1631 1.490 . S
C1636 C1638 1.395 . S
C1636 C1639 1.403 . S
H1637 C1643 0.930 . S
C1638 H1624 0.930 . S
C1638 C1636 1.395 . S
C1638 C1641 1.403 . S
C1639 C1636 1.403 . S
C1639 C1640 1.524 . S
C1639 C1643 1.400 . S
C1640 H1625 0.960 . S
C1640 H1626 0.960 . S
C1640 H1627 0.960 . S
C1640 C1639 1.524 . S
C1641 C1638 1.403 . S
C1641 C1642 1.392 . S
C1641 C1645 1.495 . S
C1642 C1641 1.392 . S
C1642 C1643 1.385 . S
C1642 C1644 1.478 . S
C1643 H1637 0.930 . S
C1643 C1639 1.400 . S
C1643 C1642 1.385 . S
C1644 C1642 1.478 . S
C1644 C1646 1.381 . S
C1644 C1650 1.383 . S
C1645 C1641 1.495 . S
C1645 H1651 0.959 . S
C1645 H1652 0.961 . S
C1645 H1653 0.960 . S
C1646 C1644 1.381 . S
C1646 C1647 1.394 . S
C1646 H1654 0.930 . S
C1647 C1646 1.394 . S
C1647 C1648 1.383 . S
C1647 H1655 0.929 . S
C1648 C1647 1.383 . S
C1648 C1649 1.377 . S
C1649 H1633 0.930 . S
C1649 C1648 1.377 . S
C1649 C1650 1.379 . S
C1650 H1634 0.931 . S
C1650 C1644 1.383 . S
C1650 C1649 1.379 . S
H1651 C1645 0.959 . S
H1652 C1645 0.961 . S
H1653 C1645 0.960 . S
H1654 C1646 0.930 . S
H1655 C1647 0.929 . S
H1656 C1664 0.929 . S
H1657 C1666 0.930 . S
H1658 C1668 0.930 . S
H1659 C1671 0.929 . S
H1660 C1674 0.930 . S
H1661 C1676 0.960 . S
H1662 C1676 0.960 . S
H1663 C1676 0.960 . S
C1664 H1656 0.929 . S
C1664 C1665 1.377 . S
C1664 C1666 1.384 . S
C1665 C1664 1.377 . S
C1665 C1671 1.390 . S
C1666 H1657 0.930 . S
C1666 C1664 1.384 . S
C1666 C1667 1.372 . S
C1667 C1666 1.372 . S
C1667 C1668 1.400 . S
C1667 C1672 1.490 . S
C1668 H1658 0.930 . S
C1668 C1667 1.400 . S
C1668 C1671 1.386 . S
H1669 C1685 0.930 . S
H1670 C1686 0.931 . S
C1671 H1659 0.929 . S
C1671 C1665 1.390 . S
C1671 C1668 1.386 . S
C1672 C1667 1.490 . S
C1672 C1674 1.395 . S
C1672 C1675 1.403 . S
H1673 C1679 0.930 . S
C1674 H1660 0.930 . S
C1674 C1672 1.395 . S
C1674 C1677 1.403 . S
C1675 C1672 1.403 . S
C1675 C1676 1.524 . S
C1675 C1679 1.400 . S
C1676 H1661 0.960 . S
C1676 H1662 0.960 . S
C1676 H1663 0.960 . S
C1676 C1675 1.524 . S
C1677 C1674 1.403 . S
C1677 C1678 1.392 . S
C1677 C1681 1.495 . S
C1678 C1677 1.392 . S
C1678 C1679 1.385 . S
C1678 C1680 1.478 . S
C1679 H1673 0.930 . S
C1679 C1675 1.400 . S
C1679 C1678 1.385 . S
C1680 C1678 1.478 . S
C1680 C1682 1.381 . S
C1680 C1686 1.383 . S
C1681 C1677 1.495 . S
C1681 H1687 0.959 . S
C1681 H1688 0.961 . S
C1681 H1689 0.960 . S
C1682 C1680 1.381 . S
C1682 C1683 1.394 . S
C1682 H1690 0.930 . S
C1683 C1682 1.394 . S
C1683 C1684 1.383 . S
C1683 H1691 0.929 . S
C1684 C1683 1.383 . S
C1684 C1685 1.377 . S
C1685 H1669 0.930 . S
C1685 C1684 1.377 . S
C1685 C1686 1.379 . S
C1686 H1670 0.931 . S
C1686 C1680 1.383 . S
C1686 C1685 1.379 . S
H1687 C1681 0.959 . S
H1688 C1681 0.961 . S
H1689 C1681 0.960 . S
H1690 C1682 0.930 . S
H1691 C1683 0.929 . S
H1692 C1700 0.929 . S
H1693 C1702 0.930 . S
H1694 C1704 0.930 . S
H1695 C1707 0.929 . S
H1696 C1710 0.930 1_565 S
H1697 C1712 0.960 . S
H1698 C1712 0.960 . S
H1699 C1712 0.960 . S
C1700 H1692 0.929 . S
C1700 C1701 1.377 . S
C1700 C1702 1.384 . S
C1701 C1700 1.377 . S
C1701 C1707 1.390 . S
C1702 H1693 0.930 . S
C1702 C1700 1.384 . S
C1702 C1703 1.372 . S
C1703 C1702 1.372 . S
C1703 C1704 1.400 . S
C1703 C1708 1.490 . S
C1704 H1694 0.930 . S
C1704 C1703 1.400 . S
C1704 C1707 1.386 . S
H1705 C1721 0.930 . S
H1706 C1722 0.931 . S
C1707 H1695 0.929 . S
C1707 C1701 1.390 . S
C1707 C1704 1.386 . S
C1708 C1703 1.490 . S
C1708 C1710 1.395 . S
C1708 C1711 1.403 . S
H1709 C1715 0.930 . S
C1710 H1696 0.930 1_545 S
C1710 C1708 1.395 . S
C1710 C1713 1.403 . S
C1711 C1708 1.403 . S
C1711 C1712 1.524 . S
C1711 C1715 1.400 . S
C1712 H1697 0.960 . S
C1712 H1698 0.960 . S
C1712 H1699 0.960 . S
C1712 C1711 1.524 . S
C1713 C1710 1.403 . S
C1713 C1714 1.392 . S
C1713 C1717 1.495 1_545 S
C1714 C1713 1.392 . S
C1714 C1715 1.385 . S
C1714 C1716 1.478 . S
C1715 H1709 0.930 . S
C1715 C1711 1.400 . S
C1715 C1714 1.385 . S
C1716 C1714 1.478 . S
C1716 C1718 1.381 . S
C1716 C1722 1.383 . S
C1717 C1713 1.495 1_565 S
C1717 H1723 0.959 . S
C1717 H1724 0.961 . S
C1717 H1725 0.960 . S
C1718 C1716 1.381 . S
C1718 C1719 1.394 . S
C1718 H1726 0.930 . S
C1719 C1718 1.394 . S
C1719 C1720 1.383 . S
C1719 H1727 0.929 . S
C1720 C1719 1.383 . S
C1720 C1721 1.377 . S
C1721 H1705 0.930 . S
C1721 C1720 1.377 . S
C1721 C1722 1.379 . S
C1722 H1706 0.931 . S
C1722 C1716 1.383 . S
C1722 C1721 1.379 . S
H1723 C1717 0.959 . S
H1724 C1717 0.961 . S
H1725 C1717 0.960 . S
H1726 C1718 0.930 . S
H1727 C1719 0.929 . S
C585 C4 0.590 . S
C604 C326 0.570 . S
C621 C362 0.539 . S
C640 C40 0.638 . S
C657 C398 0.540 . S
C676 C76 0.667 . S
C693 C290 0.538 . S
C712 C112 0.672 . S
C729 C148 0.600 . S
C748 C542 0.530 . S
C765 C434 0.544 . S
C784 C184 0.575 . S
C801 C470 0.539 . S
C820 C220 0.671 . S
C837 C506 0.544 . S
C856 C256 0.639 . S
C873 C292 0.590 . S
C892 C38 0.519 . S
C909 C328 0.608 . S
C928 C74 0.552 . S
C945 C364 0.613 . S
C964 C110 0.571 . S
C981 C2 0.541 . S
C1000 C400 0.523 . S
C1017 C436 0.611 . S
C1036 C254 0.559 . S
C1053 C472 0.584 . S
C1072 C146 0.539 . S
C1089 C182 0.544 . S
C1108 C508 0.545 . S
C1125 C544 0.581 . S
C1144 C218 0.520 . S
C1161 C291 1.675 . S
C1180 C3 1.689 . S
C1197 C39 1.681 . S
C1216 C327 1.683 . S
C1233 C363 1.676 . S
C1252 C75 1.693 . S
C1269 C111 1.680 . S
C1288 C399 1.666 . S
C1305 C435 1.681 . S
C1324 C147 1.694 . S
C1341 C183 1.672 . S
C1360 C471 1.676 . S
C1377 C507 1.674 . S
C1396 C219 1.649 . S
C1413 C543 1.672 . S
C1432 C255 1.653 . S
C1449 C158 1.552 . S
C1468 C14 1.533 . S
C1485 C194 1.539 . S
C1504 C50 1.572 . S
C1521 C86 1.543 . S
C1540 C230 1.575 . S
C1557 C266 1.548 . S
C1576 C122 1.555 . S
C1593 C302 1.540 . S
C1612 C446 1.528 . S
C1629 C482 1.546 . S
C1648 C338 1.521 . S
C1665 C518 1.553 . S
C1684 C374 1.558 . S
C1701 C554 1.547 . S
C1720 C410 1.564 . S
