# Generated by pormake.
# Topology yfs, (5)-cn, num edge types: 1
# Building blocks:
#     Node 0, Type 0, BuildingBlock: XOMCOT_clean_sbu_0, # of connection points: 5
#     Node 1, Type 0, BuildingBlock: XOMCOT_clean_sbu_0, # of connection points: 5
#     Node 2, Type 0, BuildingBlock: XOMCOT_clean_sbu_0, # of connection points: 5
#     Node 3, Type 0, BuildingBlock: XOMCOT_clean_sbu_0, # of connection points: 5
#     Node 4, Type 0, BuildingBlock: XOMCOT_clean_sbu_0, # of connection points: 5
#     Node 5, Type 0, BuildingBlock: XOMCOT_clean_sbu_0, # of connection points: 5
#     Node 6, Type 0, BuildingBlock: XOMCOT_clean_sbu_0, # of connection points: 5
#     Node 7, Type 0, BuildingBlock: XOMCOT_clean_sbu_0, # of connection points: 5
#     Node 8, Type 0, BuildingBlock: XOMCOT_clean_sbu_0, # of connection points: 5
#     Node 9, Type 0, BuildingBlock: XOMCOT_clean_sbu_0, # of connection points: 5
#     Node 10, Type 0, BuildingBlock: XOMCOT_clean_sbu_0, # of connection points: 5
#     Node 11, Type 0, BuildingBlock: XOMCOT_clean_sbu_0, # of connection points: 5
#     Node 12, Type 0, BuildingBlock: XOMCOT_clean_sbu_0, # of connection points: 5
#     Node 13, Type 0, BuildingBlock: XOMCOT_clean_sbu_0, # of connection points: 5
#     Node 14, Type 0, BuildingBlock: XOMCOT_clean_sbu_0, # of connection points: 5
#     Node 15, Type 0, BuildingBlock: XOMCOT_clean_sbu_0, # of connection points: 5
#     Node 16, Type 0, BuildingBlock: XOMCOT_clean_sbu_0, # of connection points: 5
#     Node 17, Type 0, BuildingBlock: XOMCOT_clean_sbu_0, # of connection points: 5
#     Node 18, Type 0, BuildingBlock: XOMCOT_clean_sbu_0, # of connection points: 5
#     Node 19, Type 0, BuildingBlock: XOMCOT_clean_sbu_0, # of connection points: 5
#     Node 20, Type 0, BuildingBlock: XOMCOT_clean_sbu_0, # of connection points: 5
#     Node 21, Type 0, BuildingBlock: XOMCOT_clean_sbu_0, # of connection points: 5
#     Node 22, Type 0, BuildingBlock: XOMCOT_clean_sbu_0, # of connection points: 5
#     Node 23, Type 0, BuildingBlock: XOMCOT_clean_sbu_0, # of connection points: 5
#     Node 24, Type 0, BuildingBlock: XOMCOT_clean_sbu_0, # of connection points: 5
#     Node 25, Type 0, BuildingBlock: XOMCOT_clean_sbu_0, # of connection points: 5
#     Node 26, Type 0, BuildingBlock: XOMCOT_clean_sbu_0, # of connection points: 5
#     Node 27, Type 0, BuildingBlock: XOMCOT_clean_sbu_0, # of connection points: 5
#     Node 28, Type 0, BuildingBlock: XOMCOT_clean_sbu_0, # of connection points: 5
#     Node 29, Type 0, BuildingBlock: XOMCOT_clean_sbu_0, # of connection points: 5
#     Node 30, Type 0, BuildingBlock: XOMCOT_clean_sbu_0, # of connection points: 5
#     Node 31, Type 0, BuildingBlock: XOMCOT_clean_sbu_0, # of connection points: 5
#     Edge 32, Type (0, 0), BuildingBlock: XIVTED_clean_linker_0, # of connection points: 2
#     Edge 33, Type (0, 0), BuildingBlock: XIVTED_clean_linker_0, # of connection points: 2
#     Edge 34, Type (0, 0), BuildingBlock: XIVTED_clean_linker_0, # of connection points: 2
#     Edge 35, Type (0, 0), BuildingBlock: XIVTED_clean_linker_0, # of connection points: 2
#     Edge 36, Type (0, 0), BuildingBlock: XIVTED_clean_linker_0, # of connection points: 2
#     Edge 37, Type (0, 0), BuildingBlock: XIVTED_clean_linker_0, # of connection points: 2
#     Edge 38, Type (0, 0), BuildingBlock: XIVTED_clean_linker_0, # of connection points: 2
#     Edge 39, Type (0, 0), BuildingBlock: XIVTED_clean_linker_0, # of connection points: 2
#     Edge 40, Type (0, 0), BuildingBlock: XIVTED_clean_linker_0, # of connection points: 2
#     Edge 41, Type (0, 0), BuildingBlock: XIVTED_clean_linker_0, # of connection points: 2
#     Edge 42, Type (0, 0), BuildingBlock: XIVTED_clean_linker_0, # of connection points: 2
#     Edge 43, Type (0, 0), BuildingBlock: XIVTED_clean_linker_0, # of connection points: 2
#     Edge 44, Type (0, 0), BuildingBlock: XIVTED_clean_linker_0, # of connection points: 2
#     Edge 45, Type (0, 0), BuildingBlock: XIVTED_clean_linker_0, # of connection points: 2
#     Edge 46, Type (0, 0), BuildingBlock: XIVTED_clean_linker_0, # of connection points: 2
#     Edge 47, Type (0, 0), BuildingBlock: XIVTED_clean_linker_0, # of connection points: 2
#     Edge 48, Type (0, 0), BuildingBlock: XIVTED_clean_linker_0, # of connection points: 2
#     Edge 49, Type (0, 0), BuildingBlock: XIVTED_clean_linker_0, # of connection points: 2
#     Edge 50, Type (0, 0), BuildingBlock: XIVTED_clean_linker_0, # of connection points: 2
#     Edge 51, Type (0, 0), BuildingBlock: XIVTED_clean_linker_0, # of connection points: 2
#     Edge 52, Type (0, 0), BuildingBlock: XIVTED_clean_linker_0, # of connection points: 2
#     Edge 53, Type (0, 0), BuildingBlock: XIVTED_clean_linker_0, # of connection points: 2
#     Edge 54, Type (0, 0), BuildingBlock: XIVTED_clean_linker_0, # of connection points: 2
#     Edge 55, Type (0, 0), BuildingBlock: XIVTED_clean_linker_0, # of connection points: 2
#     Edge 56, Type (0, 0), BuildingBlock: XIVTED_clean_linker_0, # of connection points: 2
#     Edge 57, Type (0, 0), BuildingBlock: XIVTED_clean_linker_0, # of connection points: 2
#     Edge 58, Type (0, 0), BuildingBlock: XIVTED_clean_linker_0, # of connection points: 2
#     Edge 59, Type (0, 0), BuildingBlock: XIVTED_clean_linker_0, # of connection points: 2
#     Edge 60, Type (0, 0), BuildingBlock: XIVTED_clean_linker_0, # of connection points: 2
#     Edge 61, Type (0, 0), BuildingBlock: XIVTED_clean_linker_0, # of connection points: 2
#     Edge 62, Type (0, 0), BuildingBlock: XIVTED_clean_linker_0, # of connection points: 2
#     Edge 63, Type (0, 0), BuildingBlock: XIVTED_clean_linker_0, # of connection points: 2
#     Edge 64, Type (0, 0), BuildingBlock: XIVTED_clean_linker_0, # of connection points: 2
#     Edge 65, Type (0, 0), BuildingBlock: XIVTED_clean_linker_0, # of connection points: 2
#     Edge 66, Type (0, 0), BuildingBlock: XIVTED_clean_linker_0, # of connection points: 2
#     Edge 67, Type (0, 0), BuildingBlock: XIVTED_clean_linker_0, # of connection points: 2
#     Edge 68, Type (0, 0), BuildingBlock: XIVTED_clean_linker_0, # of connection points: 2
#     Edge 69, Type (0, 0), BuildingBlock: XIVTED_clean_linker_0, # of connection points: 2
#     Edge 70, Type (0, 0), BuildingBlock: XIVTED_clean_linker_0, # of connection points: 2
#     Edge 71, Type (0, 0), BuildingBlock: XIVTED_clean_linker_0, # of connection points: 2
#     Edge 72, Type (0, 0), BuildingBlock: XIVTED_clean_linker_0, # of connection points: 2
#     Edge 73, Type (0, 0), BuildingBlock: XIVTED_clean_linker_0, # of connection points: 2
#     Edge 74, Type (0, 0), BuildingBlock: XIVTED_clean_linker_0, # of connection points: 2
#     Edge 75, Type (0, 0), BuildingBlock: XIVTED_clean_linker_0, # of connection points: 2
#     Edge 76, Type (0, 0), BuildingBlock: XIVTED_clean_linker_0, # of connection points: 2
#     Edge 77, Type (0, 0), BuildingBlock: XIVTED_clean_linker_0, # of connection points: 2
#     Edge 78, Type (0, 0), BuildingBlock: XIVTED_clean_linker_0, # of connection points: 2
#     Edge 79, Type (0, 0), BuildingBlock: XIVTED_clean_linker_0, # of connection points: 2
#     Edge 80, Type (0, 0), BuildingBlock: XIVTED_clean_linker_0, # of connection points: 2
#     Edge 81, Type (0, 0), BuildingBlock: XIVTED_clean_linker_0, # of connection points: 2
#     Edge 82, Type (0, 0), BuildingBlock: XIVTED_clean_linker_0, # of connection points: 2
#     Edge 83, Type (0, 0), BuildingBlock: XIVTED_clean_linker_0, # of connection points: 2
#     Edge 84, Type (0, 0), BuildingBlock: XIVTED_clean_linker_0, # of connection points: 2
#     Edge 85, Type (0, 0), BuildingBlock: XIVTED_clean_linker_0, # of connection points: 2
#     Edge 86, Type (0, 0), BuildingBlock: XIVTED_clean_linker_0, # of connection points: 2
#     Edge 87, Type (0, 0), BuildingBlock: XIVTED_clean_linker_0, # of connection points: 2
#     Edge 88, Type (0, 0), BuildingBlock: XIVTED_clean_linker_0, # of connection points: 2
#     Edge 89, Type (0, 0), BuildingBlock: XIVTED_clean_linker_0, # of connection points: 2
#     Edge 90, Type (0, 0), BuildingBlock: XIVTED_clean_linker_0, # of connection points: 2
#     Edge 91, Type (0, 0), BuildingBlock: XIVTED_clean_linker_0, # of connection points: 2
#     Edge 92, Type (0, 0), BuildingBlock: XIVTED_clean_linker_0, # of connection points: 2
#     Edge 93, Type (0, 0), BuildingBlock: XIVTED_clean_linker_0, # of connection points: 2
#     Edge 94, Type (0, 0), BuildingBlock: XIVTED_clean_linker_0, # of connection points: 2
#     Edge 95, Type (0, 0), BuildingBlock: XIVTED_clean_linker_0, # of connection points: 2
#     Edge 96, Type (0, 0), BuildingBlock: XIVTED_clean_linker_0, # of connection points: 2
#     Edge 97, Type (0, 0), BuildingBlock: XIVTED_clean_linker_0, # of connection points: 2
#     Edge 98, Type (0, 0), BuildingBlock: XIVTED_clean_linker_0, # of connection points: 2
#     Edge 99, Type (0, 0), BuildingBlock: XIVTED_clean_linker_0, # of connection points: 2
#     Edge 100, Type (0, 0), BuildingBlock: XIVTED_clean_linker_0, # of connection points: 2
#     Edge 101, Type (0, 0), BuildingBlock: XIVTED_clean_linker_0, # of connection points: 2
#     Edge 102, Type (0, 0), BuildingBlock: XIVTED_clean_linker_0, # of connection points: 2
#     Edge 103, Type (0, 0), BuildingBlock: XIVTED_clean_linker_0, # of connection points: 2
#     Edge 104, Type (0, 0), BuildingBlock: XIVTED_clean_linker_0, # of connection points: 2
#     Edge 105, Type (0, 0), BuildingBlock: XIVTED_clean_linker_0, # of connection points: 2
#     Edge 106, Type (0, 0), BuildingBlock: XIVTED_clean_linker_0, # of connection points: 2
#     Edge 107, Type (0, 0), BuildingBlock: XIVTED_clean_linker_0, # of connection points: 2
#     Edge 108, Type (0, 0), BuildingBlock: XIVTED_clean_linker_0, # of connection points: 2
#     Edge 109, Type (0, 0), BuildingBlock: XIVTED_clean_linker_0, # of connection points: 2
#     Edge 110, Type (0, 0), BuildingBlock: XIVTED_clean_linker_0, # of connection points: 2
#     Edge 111, Type (0, 0), BuildingBlock: XIVTED_clean_linker_0, # of connection points: 2
# Relax obj value: 0.407
# Max RMSD: 0.288
# Mean RMSD: 0.288
data_MOF--net-yfs--node1-XOMCOT_clean_sbu_0--edge1-XIVTED_clean_linker_0
_symmetry_space_group_name_H-M    P1
_symmetry_Int_Tables_number       1
_symmetry_cell_setting            triclinic
loop_
_symmetry_equiv_pos_as_xyz
'x, y, z'
_cell_length_a     50.340644
_cell_length_b     50.523336
_cell_length_c     77.155864
_cell_angle_alpha  90.145498
_cell_angle_beta   90.120453
_cell_angle_gamma 90.053406
loop_
_atom_site_label
_atom_site_type_symbol
_atom_site_fract_x
_atom_site_fract_y
_atom_site_fract_z
_atom_type_partial_charge
Co0 Co 0.37065 0.15639 0.17442 0.0
C1 C 0.32688 0.18005 0.19562 0.0
C2 C 0.36519 0.19485 0.20315 0.0
C3 C 0.34635 0.20638 0.21357 0.0
N4 N 0.35313 0.17811 0.19193 0.0
N5 N 0.32234 0.19712 0.20884 0.0
H6 H 0.31142 0.16936 0.18878 0.0
H7 H 0.3862 0.19903 0.20372 0.0
C8 C 0.42979 0.16138 0.18885 0.0
O9 O 0.43787 0.13666 0.18847 0.0
N10 N 0.38835 0.13423 0.15713 0.0
C11 C 0.37947 0.11102 0.15051 0.0
C12 C 0.3999 0.09855 0.1419 0.0
C13 C 0.41374 0.13603 0.15163 0.0
N14 N 0.42146 0.11427 0.14274 0.0
C15 C 0.34545 0.10901 0.18414 0.0
C16 C 0.38375 0.09176 0.20687 0.0
C17 C 0.36573 0.07317 0.19987 0.0
C18 C 0.34582 0.08257 0.18877 0.0
C19 C 0.38333 0.11792 0.20114 0.0
N20 N 0.36573 0.12547 0.18873 0.0
H21 H 0.33013 0.11532 0.17533 0.0
H22 H 0.39713 0.13186 0.20665 0.0
H23 H 0.35969 0.10317 0.15201 0.0
H24 H 0.42674 0.15243 0.15464 0.0
O25 O 0.33781 0.15475 0.16081 0.0
O26 O 0.36932 0.18523 0.15864 0.0
O27 O 0.40614 0.1677 0.18442 0.0
C28 C 0.34637 0.17636 0.15366 0.0
H29 H 0.34988 0.2212 0.22347 0.0
H30 H 0.39903 0.07937 0.13564 0.0
H31 H 0.39803 0.08649 0.21675 0.0
H32 H 0.33091 0.06984 0.18308 0.0
Co33 Co 0.08382 0.12421 0.43326 0.0
C34 C 0.05843 0.07924 0.45206 0.0
C35 C 0.04816 0.11691 0.46304 0.0
C36 C 0.0324 0.09782 0.47051 0.0
N37 N 0.06415 0.10545 0.45116 0.0
N38 N 0.0389 0.07423 0.46362 0.0
H39 H 0.06711 0.06438 0.44368 0.0
H40 H 0.04699 0.13786 0.46564 0.0
C41 C 0.05464 0.16829 0.43808 0.0
O42 O 0.07676 0.17301 0.44662 0.0
N43 N 0.10346 0.14343 0.41515 0.0
C44 C 0.12596 0.13538 0.40709 0.0
C45 C 0.13421 0.15447 0.39569 0.0
C46 C 0.09842 0.16759 0.40818 0.0
N47 N 0.11698 0.17463 0.39651 0.0
C48 C 0.12523 0.08181 0.43247 0.0
C49 C 0.15612 0.11569 0.45256 0.0
C50 C 0.1677 0.09306 0.44548 0.0
C51 C 0.15199 0.07532 0.43579 0.0
C52 C 0.12984 0.12096 0.44931 0.0
N53 N 0.11523 0.10499 0.43887 0.0
H54 H 0.11328 0.06905 0.42435 0.0
H55 H 0.12115 0.13904 0.45425 0.0
H56 H 0.13601 0.11684 0.40907 0.0
H57 H 0.08174 0.18002 0.41134 0.0
O58 O 0.07069 0.09812 0.41571 0.0
O59 O 0.07067 0.0981 0.41571 0.0
O60 O 0.0524 0.14682 0.42954 0.0
C61 C 0.08023 0.09596 0.40052 0.0
H62 H 0.01695 0.10105 0.48003 0.0
H63 H 0.1517 0.15382 0.38755 0.0
H64 H 0.16734 0.12923 0.46069 0.0
H65 H 0.16036 0.05718 0.4307 0.0
Co66 Co 0.11411 0.82495 0.6747 0.0
C67 C 0.15928 0.80048 0.69435 0.0
C68 C 0.12143 0.78647 0.70321 0.0
C69 C 0.14082 0.77571 0.71355 0.0
N70 N 0.13282 0.80216 0.69112 0.0
N71 N 0.16448 0.78457 0.70804 0.0
H72 H 0.17438 0.81079 0.68704 0.0
H73 H 0.10044 0.78291 0.70475 0.0
C74 C 0.05461 0.81727 0.68584 0.0
O75 O 0.04622 0.84075 0.68106 0.0
N76 N 0.09618 0.84848 0.65847 0.0
C77 C 0.10566 0.87232 0.65369 0.0
C78 C 0.0873 0.88469 0.64341 0.0
C79 C 0.0727 0.8461 0.65009 0.0
N80 N 0.06613 0.86854 0.64144 0.0
C81 C 0.14 0.86878 0.6902 0.0
C82 C 0.094 0.89067 0.70316 0.0
C83 C 0.11656 0.9068 0.70161 0.0
C84 C 0.14013 0.89514 0.69554 0.0
C85 C 0.09546 0.8641 0.69889 0.0
N86 N 0.11721 0.85418 0.69079 0.0
H87 H 0.15787 0.86064 0.68465 0.0
H88 H 0.07887 0.85197 0.70199 0.0
H89 H 0.12446 0.8806 0.65774 0.0
H90 H 0.06041 0.82859 0.65072 0.0
O91 O 0.14654 0.83086 0.66141 0.0
O92 O 0.11704 0.79886 0.65686 0.0
O93 O 0.07911 0.81071 0.6845 0.0
C94 C 0.13857 0.81096 0.65208 0.0
H95 H 0.13787 0.762 0.72414 0.0
H96 H 0.08913 0.90465 0.63855 0.0
H97 H 0.0752 0.89804 0.70786 0.0
H98 H 0.15862 0.90601 0.69494 0.0
Co99 Co 0.40834 0.86046 0.92666 0.0
C100 C 0.4324 0.90587 0.94674 0.0
C101 C 0.45124 0.86869 0.95193 0.0
C102 C 0.46201 0.88732 0.96278 0.0
N103 N 0.43228 0.88 0.94199 0.0
N104 N 0.45026 0.9107 0.95958 0.0
H105 H 0.41977 0.92083 0.94108 0.0
H106 H 0.45737 0.84825 0.95145 0.0
C107 C 0.41368 0.80237 0.94007 0.0
O108 O 0.39017 0.79437 0.9348 0.0
N109 N 0.38483 0.84074 0.91161 0.0
C110 C 0.35949 0.84662 0.90733 0.0
C111 C 0.34968 0.82673 0.89692 0.0
C112 C 0.39055 0.81825 0.903 0.0
N113 N 0.36917 0.80892 0.89455 0.0
C114 C 0.367 0.89172 0.93996 0.0
C115 C 0.33924 0.85072 0.95489 0.0
C116 C 0.326 0.87429 0.95084 0.0
C117 C 0.34037 0.89533 0.94393 0.0
C118 C 0.36594 0.84793 0.95062 0.0
N119 N 0.3789 0.86761 0.94205 0.0
H120 H 0.37724 0.90786 0.93382 0.0
H121 H 0.37559 0.82968 0.95368 0.0
H122 H 0.34872 0.86392 0.91157 0.0
H123 H 0.4096 0.80834 0.90348 0.0
O124 O 0.40368 0.89079 0.91138 0.0
O125 O 0.4346 0.85986 0.90861 0.0
O126 O 0.42064 0.82669 0.93888 0.0
C127 C 0.42303 0.88087 0.90247 0.0
H128 H 0.47803 0.88409 0.97191 0.0
H129 H 0.32976 0.82518 0.89168 0.0
H130 H 0.32909 0.83463 0.96137 0.0
H131 H 0.331 0.91419 0.94127 0.0
Co132 Co 0.37107 0.82843 0.29139 0.0
C133 C 0.32699 0.80204 0.27162 0.0
C134 C 0.36547 0.78759 0.26435 0.0
C135 C 0.34675 0.77343 0.2554 0.0
N136 N 0.35328 0.8056 0.27461 0.0
N137 N 0.32267 0.78236 0.26003 0.0
H138 H 0.31139 0.81267 0.27829 0.0
H139 H 0.38652 0.78382 0.2637 0.0
C140 C 0.42987 0.8257 0.27888 0.0
O141 O 0.43728 0.84927 0.28423 0.0
N142 N 0.38908 0.85117 0.30814 0.0
C143 C 0.38206 0.87596 0.31285 0.0
C144 C 0.40237 0.88709 0.32242 0.0
C145 C 0.41271 0.847 0.31592 0.0
N146 N 0.42182 0.86898 0.324 0.0
C147 C 0.34005 0.87087 0.27932 0.0
C148 C 0.38126 0.89804 0.26405 0.0
C149 C 0.35792 0.91153 0.2684 0.0
C150 C 0.33669 0.89748 0.27544 0.0
C151 C 0.38377 0.87146 0.26822 0.0
N152 N 0.36411 0.85887 0.27704 0.0
H153 H 0.32375 0.86055 0.28531 0.0
H154 H 0.40163 0.8615 0.26457 0.0
H155 H 0.36396 0.88583 0.30907 0.0
H156 H 0.42395 0.82889 0.31458 0.0
O157 O 0.33935 0.82998 0.30582 0.0
O158 O 0.3715 0.79998 0.30749 0.0
O159 O 0.40571 0.81822 0.27979 0.0
C160 C 0.34886 0.80887 0.31305 0.0
H161 H 0.35045 0.75725 0.2465 0.0
H162 H 0.40313 0.90715 0.32736 0.0
H163 H 0.3973 0.90787 0.25727 0.0
H164 H 0.31787 0.90704 0.2781 0.0
Co165 Co 0.40827 0.12077 0.54211 0.0
C166 C 0.43136 0.07464 0.52292 0.0
C167 C 0.44751 0.11167 0.51437 0.0
C168 C 0.45808 0.09189 0.50434 0.0
N169 N 0.43054 0.10105 0.526 0.0
N170 N 0.44789 0.06875 0.50967 0.0
H171 H 0.42021 0.06006 0.53015 0.0
H172 H 0.45239 0.13234 0.51311 0.0
C173 C 0.41535 0.17911 0.53035 0.0
O174 O 0.39144 0.18661 0.53505 0.0
N175 N 0.38566 0.14011 0.55807 0.0
C176 C 0.36088 0.13287 0.56276 0.0
C177 C 0.35083 0.15141 0.57395 0.0
C178 C 0.39072 0.16255 0.56708 0.0
N179 N 0.36945 0.17014 0.57648 0.0
C180 C 0.3633 0.09507 0.52803 0.0
C181 C 0.34329 0.13839 0.51087 0.0
C182 C 0.32567 0.11765 0.51508 0.0
C183 C 0.33685 0.09504 0.52287 0.0
C184 C 0.36973 0.13739 0.51619 0.0
N185 N 0.37855 0.11715 0.52625 0.0
H186 H 0.37079 0.07789 0.5347 0.0
H187 H 0.38264 0.15315 0.51235 0.0
H188 H 0.3506 0.11534 0.5584 0.0
H189 H 0.40924 0.1734 0.5665 0.0
O190 O 0.40225 0.08921 0.55621 0.0
O191 O 0.43492 0.11819 0.5598 0.0
O192 O 0.42253 0.15488 0.53148 0.0
C193 C 0.42277 0.09699 0.56504 0.0
H194 H 0.47283 0.09418 0.49426 0.0
H195 H 0.33103 0.15161 0.57941 0.0
H196 H 0.33737 0.15556 0.50357 0.0
H197 H 0.32575 0.07718 0.52527 0.0
Co198 Co 0.1126 0.15619 0.791 0.0
C199 C 0.15826 0.18081 0.77222 0.0
C200 C 0.12068 0.19695 0.76435 0.0
C201 C 0.14033 0.20985 0.75549 0.0
N202 N 0.13177 0.17865 0.77488 0.0
N203 N 0.16378 0.19973 0.76043 0.0
H204 H 0.17319 0.16966 0.77916 0.0
H205 H 0.0998 0.20156 0.7634 0.0
C206 C 0.05394 0.16137 0.77717 0.0
O207 O 0.04508 0.13782 0.78142 0.0
N208 N 0.09326 0.13383 0.80694 0.0
C209 C 0.10071 0.10951 0.81225 0.0
C210 C 0.08152 0.09958 0.82306 0.0
C211 C 0.06986 0.1386 0.8149 0.0
N212 N 0.06215 0.11776 0.82454 0.0
C213 C 0.14424 0.1144 0.77849 0.0
C214 C 0.10411 0.08687 0.76218 0.0
C215 C 0.12807 0.07408 0.76603 0.0
C216 C 0.14869 0.08831 0.77362 0.0
C217 C 0.10046 0.11301 0.76736 0.0
N218 N 0.11977 0.12579 0.77648 0.0
H219 H 0.1602 0.12473 0.78489 0.0
H220 H 0.08196 0.12238 0.76443 0.0
H221 H 0.11878 0.09954 0.80849 0.0
H222 H 0.05866 0.15676 0.81363 0.0
O223 O 0.14371 0.15344 0.80601 0.0
O224 O 0.11265 0.18444 0.80757 0.0
O225 O 0.07844 0.16759 0.77907 0.0
C226 C 0.13488 0.17475 0.81333 0.0
H227 H 0.13772 0.22599 0.74643 0.0
H228 H 0.08151 0.0803 0.82916 0.0
H229 H 0.08829 0.07666 0.75534 0.0
H230 H 0.16778 0.07919 0.77617 0.0
Co231 Co 0.07623 0.8612 0.04075 0.0
C232 C 0.05154 0.90859 0.02354 0.0
C233 C 0.04203 0.87215 0.01062 0.0
C234 C 0.03078 0.89241 0.00146 0.0
N235 N 0.05482 0.88199 0.02467 0.0
N236 N 0.03682 0.91521 0.00949 0.0
H237 H 0.05954 0.92272 0.03273 0.0
H238 H 0.04109 0.85169 0.00677 0.0
C239 C 0.07081 0.80389 0.02664 0.0
O240 O 0.09522 0.79676 0.03048 0.0
N241 N 0.09822 0.84065 0.05645 0.0
C242 C 0.12189 0.84837 0.06303 0.0
C243 C 0.13135 0.82905 0.07381 0.0
C244 C 0.09311 0.81705 0.06397 0.0
N245 N 0.11342 0.80939 0.07417 0.0
C246 C 0.12315 0.88745 0.03073 0.0
C247 C 0.14129 0.84894 0.00846 0.0
C248 C 0.15955 0.86733 0.01531 0.0
C249 C 0.14983 0.88725 0.02625 0.0
C250 C 0.11499 0.84915 0.01403 0.0
N251 N 0.1069 0.86698 0.02616 0.0
H252 H 0.11645 0.90274 0.03943 0.0
H253 H 0.10148 0.83477 0.00872 0.0
H254 H 0.13154 0.86706 0.06071 0.0
H255 H 0.07501 0.80581 0.06215 0.0
O256 O 0.08033 0.89106 0.05681 0.0
O257 O 0.0485 0.86094 0.05772 0.0
O258 O 0.0633 0.82791 0.02847 0.0
C259 C 0.06017 0.88104 0.06497 0.0
H260 H 0.01887 0.89062 -0.01019 0.0
H261 H 0.14996 0.82932 0.08087 0.0
H262 H 0.147 0.83448 -0.00121 0.0
H263 H 0.16255 0.9023 0.0318 0.0
Co264 Co 0.61302 0.82601 0.79161 0.0
C265 C 0.65797 0.8022 0.77104 0.0
C266 C 0.6207 0.78288 0.76634 0.0
C267 C 0.63938 0.77173 0.7557 0.0
N268 N 0.63201 0.80242 0.77579 0.0
N269 N 0.66279 0.78378 0.75862 0.0
H270 H 0.67297 0.81515 0.77645 0.0
H271 H 0.60033 0.77648 0.76722 0.0
C272 C 0.5542 0.82034 0.77936 0.0
O273 O 0.54649 0.84382 0.78468 0.0
N274 N 0.59429 0.84973 0.80744 0.0
C275 C 0.60239 0.87429 0.81194 0.0
C276 C 0.58411 0.88536 0.82295 0.0
C277 C 0.57154 0.84587 0.81643 0.0
N278 N 0.56455 0.86766 0.8256 0.0
C279 C 0.64261 0.86828 0.77803 0.0
C280 C 0.60049 0.89329 0.76226 0.0
C281 C 0.62317 0.90803 0.76665 0.0
C282 C 0.64484 0.89493 0.77403 0.0
C283 C 0.59887 0.86678 0.76697 0.0
N284 N 0.61897 0.85532 0.77606 0.0
H285 H 0.65928 0.85896 0.78428 0.0
H286 H 0.58121 0.85606 0.76369 0.0
H287 H 0.62031 0.8838 0.80752 0.0
H288 H 0.55999 0.8278 0.81596 0.0
O289 O 0.64462 0.83031 0.80595 0.0
O290 O 0.61365 0.79934 0.80905 0.0
O291 O 0.57863 0.81348 0.78018 0.0
C292 C 0.63578 0.80995 0.81431 0.0
H293 H 0.63625 0.75528 0.7469 0.0
H294 H 0.58463 0.90532 0.82808 0.0
H295 H 0.58406 0.90208 0.75526 0.0
H296 H 0.66311 0.90524 0.77714 0.0
Co297 Co 0.90891 0.86143 0.54161 0.0
C298 C 0.93363 0.90697 0.52192 0.0
C299 C 0.94789 0.86909 0.51348 0.0
C300 C 0.95988 0.88822 0.50366 0.0
N301 N 0.93142 0.88057 0.5251 0.0
N302 N 0.95103 0.91201 0.50888 0.0
H303 H 0.92342 0.92214 0.52925 0.0
H304 H 0.95176 0.8482 0.51218 0.0
C305 C 0.91365 0.80286 0.52806 0.0
O306 O 0.8896 0.79515 0.5323 0.0
N307 N 0.88601 0.84281 0.5579 0.0
C308 C 0.86305 0.85214 0.56455 0.0
C309 C 0.85153 0.83285 0.57456 0.0
C310 C 0.88888 0.81855 0.56493 0.0
N311 N 0.86746 0.81144 0.57441 0.0
C312 C 0.8636 0.88923 0.53039 0.0
C313 C 0.84178 0.84856 0.51126 0.0
C314 C 0.82538 0.8693 0.5169 0.0
C315 C 0.8368 0.89021 0.52618 0.0
C316 C 0.86839 0.84806 0.51623 0.0
N317 N 0.87838 0.86724 0.52682 0.0
H318 H 0.87171 0.9054 0.53783 0.0
H319 H 0.88058 0.83214 0.51165 0.0
H320 H 0.85494 0.87159 0.56225 0.0
H321 H 0.90584 0.80595 0.56263 0.0
O322 O 0.90561 0.89255 0.55649 0.0
O323 O 0.93646 0.86149 0.55877 0.0
O324 O 0.92099 0.82694 0.53012 0.0
C325 C 0.92543 0.88265 0.56505 0.0
H326 H 0.97472 0.88499 0.49374 0.0
H327 H 0.83262 0.83433 0.58114 0.0
H328 H 0.83427 0.83298 0.50292 0.0
H329 H 0.82516 0.90704 0.53038 0.0
Co330 Co 0.87269 0.15536 0.29253 0.0
C331 C 0.82672 0.18018 0.27361 0.0
C332 C 0.86438 0.19408 0.2644 0.0
C333 C 0.84489 0.20452 0.25406 0.0
N334 N 0.85324 0.17856 0.27669 0.0
N335 N 0.82131 0.19579 0.25977 0.0
H336 H 0.81176 0.16989 0.28105 0.0
H337 H 0.8853 0.19771 0.26263 0.0
C338 C 0.93164 0.16321 0.28028 0.0
O339 O 0.94038 0.13985 0.28507 0.0
N340 N 0.89172 0.13148 0.30793 0.0
C341 C 0.88517 0.10613 0.3116 0.0
C342 C 0.90528 0.0948 0.32118 0.0
C343 C 0.91485 0.13564 0.31628 0.0
N344 N 0.92405 0.11335 0.32384 0.0
C345 C 0.8453 0.11232 0.27749 0.0
C346 C 0.89083 0.08938 0.26452 0.0
C347 C 0.8678 0.07416 0.26599 0.0
C348 C 0.8446 0.08588 0.27235 0.0
C349 C 0.88996 0.11595 0.26856 0.0
N350 N 0.86835 0.1265 0.27648 0.0
H351 H 0.82772 0.12091 0.28316 0.0
H352 H 0.90676 0.12766 0.26528 0.0
H353 H 0.86724 0.09626 0.30742 0.0
H354 H 0.9254 0.15431 0.31614 0.0
O355 O 0.84114 0.14957 0.30674 0.0
O356 O 0.87125 0.18122 0.31058 0.0
O357 O 0.90713 0.16953 0.2819 0.0
C358 C 0.84995 0.16931 0.31594 0.0
H359 H 0.84774 0.21803 0.24334 0.0
H360 H 0.90605 0.07464 0.32586 0.0
H361 H 0.90895 0.08125 0.25913 0.0
H362 H 0.82608 0.075 0.27298 0.0
Co363 Co 0.57648 0.1211 0.04132 0.0
C364 C 0.55364 0.07647 0.01999 0.0
C365 C 0.53588 0.11397 0.01418 0.0
C366 C 0.5256 0.09546 0.00302 0.0
N367 N 0.55366 0.10232 0.02485 0.0
N368 N 0.53658 0.07184 0.00663 0.0
H369 H 0.56587 0.06146 0.026 0.0
H370 H 0.53022 0.13457 0.0144 0.0
C371 C 0.57149 0.17938 0.02615 0.0
O372 O 0.596 0.18793 0.028 0.0
N373 N 0.59959 0.13989 0.05742 0.0
C374 C 0.62191 0.13033 0.06484 0.0
C375 C 0.63361 0.15006 0.07453 0.0
C376 C 0.59744 0.16492 0.06336 0.0
N377 N 0.61838 0.1719 0.07336 0.0
C378 C 0.62152 0.0921 0.03103 0.0
C379 C 0.64388 0.1314 0.01117 0.0
C380 C 0.65998 0.11082 0.01737 0.0
C381 C 0.64829 0.09049 0.0269 0.0
C382 C 0.61722 0.13243 0.0159 0.0
N383 N 0.607 0.11403 0.02687 0.0
H384 H 0.6132 0.07651 0.03881 0.0
H385 H 0.60514 0.14812 0.01089 0.0
H386 H 0.62937 0.11044 0.06333 0.0
H387 H 0.58119 0.17798 0.06022 0.0
O388 O 0.57867 0.09036 0.05666 0.0
O389 O 0.54876 0.12233 0.05819 0.0
O390 O 0.56514 0.15551 0.02987 0.0
C391 C 0.55913 0.10126 0.06499 0.0
H392 H 0.51027 0.09896 -0.00657 0.0
H393 H 0.65198 0.1485 0.08178 0.0
H394 H 0.6517 0.14646 0.00261 0.0
H395 H 0.65976 0.07373 0.03141 0.0
Co396 Co 0.61214 0.15676 0.67727 0.0
C397 C 0.65878 0.18111 0.69574 0.0
C398 C 0.62145 0.19636 0.7047 0.0
C399 C 0.64131 0.20803 0.71415 0.0
N400 N 0.63219 0.17949 0.69302 0.0
N401 N 0.66467 0.19853 0.70856 0.0
H402 H 0.67345 0.1704 0.68827 0.0
H403 H 0.60061 0.20064 0.70628 0.0
C404 C 0.55437 0.16175 0.6921 0.0
O405 O 0.54635 0.13749 0.68886 0.0
N406 N 0.5923 0.13372 0.66185 0.0
C407 C 0.60138 0.11091 0.65488 0.0
C408 C 0.58272 0.1011 0.64362 0.0
C409 C 0.56842 0.1378 0.65433 0.0
N410 N 0.56205 0.11791 0.64343 0.0
C411 C 0.64124 0.11195 0.68774 0.0
C412 C 0.60181 0.09004 0.70779 0.0
C413 C 0.62191 0.07356 0.70122 0.0
C414 C 0.64233 0.08511 0.69155 0.0
C415 C 0.60104 0.11664 0.7031 0.0
N416 N 0.61944 0.12663 0.69198 0.0
H417 H 0.65679 0.12013 0.67981 0.0
H418 H 0.58538 0.1288 0.70813 0.0
H419 H 0.62063 0.10228 0.65725 0.0
H420 H 0.55626 0.15513 0.65638 0.0
O421 O 0.64212 0.15381 0.66117 0.0
O422 O 0.61044 0.18405 0.66012 0.0
O423 O 0.57846 0.16869 0.68948 0.0
C424 C 0.63111 0.17336 0.65296 0.0
H425 H 0.6389 0.22309 0.72404 0.0
H426 H 0.58411 0.08301 0.63612 0.0
H427 H 0.58675 0.08258 0.71651 0.0
H428 H 0.65869 0.07355 0.68653 0.0
Co429 Co 0.5768 0.86084 0.42625 0.0
C430 C 0.55336 0.90759 0.44474 0.0
C431 C 0.53716 0.8708 0.45362 0.0
C432 C 0.52756 0.89066 0.46399 0.0
N433 N 0.55359 0.88117 0.44154 0.0
N434 N 0.53776 0.91368 0.45847 0.0
H435 H 0.56449 0.92199 0.43735 0.0
H436 H 0.53216 0.85018 0.45506 0.0
C437 C 0.57195 0.80336 0.44079 0.0
O438 O 0.59596 0.79572 0.4364 0.0
N439 N 0.60074 0.84089 0.41131 0.0
C440 C 0.6253 0.84833 0.40614 0.0
C441 C 0.63638 0.8284 0.39635 0.0
C442 C 0.59665 0.81725 0.40361 0.0
N443 N 0.61843 0.80879 0.39503 0.0
C444 C 0.62048 0.89115 0.43753 0.0
C445 C 0.64384 0.85132 0.45649 0.0
C446 C 0.65965 0.87215 0.45033 0.0
C447 C 0.64742 0.89284 0.44136 0.0
C448 C 0.61712 0.85013 0.45196 0.0
N449 N 0.60647 0.86875 0.44131 0.0
H450 H 0.61175 0.90675 0.42993 0.0
H451 H 0.60552 0.8338 0.45658 0.0
H452 H 0.6346 0.86709 0.40895 0.0
H453 H 0.57833 0.80614 0.40459 0.0
O454 O 0.58019 0.89037 0.41 0.0
O455 O 0.54991 0.85865 0.40868 0.0
O456 O 0.56473 0.8275 0.43903 0.0
C457 C 0.56077 0.87928 0.40159 0.0
H458 H 0.51343 0.88852 0.47446 0.0
H459 H 0.65578 0.82852 0.39033 0.0
H460 H 0.65197 0.83597 0.4647 0.0
H461 H 0.6586 0.90978 0.43683 0.0
Co462 Co 0.87113 0.82593 0.17457 0.0
C463 C 0.82521 0.79909 0.19256 0.0
C464 C 0.86258 0.79169 0.20499 0.0
C465 C 0.84311 0.7793 0.21433 0.0
N466 N 0.85169 0.80388 0.1911 0.0
N467 N 0.81969 0.78413 0.20666 0.0
H468 H 0.81035 0.80622 0.18357 0.0
H469 H 0.88319 0.79216 0.20867 0.0
C470 C 0.93024 0.81921 0.1866 0.0
O471 O 0.93832 0.84282 0.18182 0.0
N472 N 0.89017 0.84864 0.15838 0.0
C473 C 0.88365 0.87385 0.15444 0.0
C474 C 0.90384 0.88501 0.14493 0.0
C475 C 0.91347 0.84433 0.1502 0.0
N476 N 0.92279 0.86658 0.1426 0.0
C477 C 0.84178 0.86739 0.18894 0.0
C478 C 0.88351 0.89361 0.20454 0.0
C479 C 0.85943 0.90671 0.20172 0.0
C480 C 0.83815 0.89324 0.19435 0.0
C481 C 0.88637 0.8677 0.19868 0.0
N482 N 0.86618 0.85569 0.18989 0.0
H483 H 0.8251 0.85735 0.18313 0.0
H484 H 0.90474 0.85779 0.2011 0.0
H485 H 0.86597 0.88393 0.15881 0.0
H486 H 0.92441 0.82594 0.15095 0.0
O487 O 0.83948 0.8309 0.16036 0.0
O488 O 0.86909 0.79871 0.15732 0.0
O489 O 0.90568 0.8126 0.18549 0.0
C490 C 0.84744 0.81014 0.15202 0.0
H491 H 0.84586 0.7676 0.22594 0.0
H492 H 0.90496 0.90535 0.14061 0.0
H493 H 0.89978 0.90325 0.21127 0.0
H494 H 0.81898 0.90266 0.19271 0.0
Co495 Co 0.90735 0.12189 0.9266 0.0
C496 C 0.9312 0.07567 0.94527 0.0
C497 C 0.94833 0.11275 0.95313 0.0
C498 C 0.96036 0.09299 0.96234 0.0
N499 N 0.92999 0.10209 0.94236 0.0
N500 N 0.94968 0.06981 0.95741 0.0
H501 H 0.91957 0.06105 0.93833 0.0
H502 H 0.95354 0.13339 0.95411 0.0
C503 C 0.91376 0.17997 0.93952 0.0
O504 O 0.89003 0.18783 0.93465 0.0
N505 N 0.88463 0.14163 0.91095 0.0
C506 C 0.8598 0.13484 0.90597 0.0
C507 C 0.85013 0.15391 0.89499 0.0
C508 C 0.8901 0.16426 0.90237 0.0
N509 N 0.86906 0.17242 0.893 0.0
C510 C 0.86374 0.09352 0.9393 0.0
C511 C 0.84058 0.13496 0.9568 0.0
C512 C 0.82476 0.11343 0.95157 0.0
C513 C 0.83695 0.09211 0.9432 0.0
C514 C 0.86712 0.13602 0.95187 0.0
N515 N 0.87763 0.11639 0.94193 0.0
H516 H 0.87246 0.0769 0.93269 0.0
H517 H 0.87874 0.15278 0.95582 0.0
H518 H 0.84932 0.11724 0.9099 0.0
H519 H 0.9088 0.17477 0.90318 0.0
O520 O 0.90215 0.09092 0.91185 0.0
O521 O 0.93427 0.12068 0.9091 0.0
O522 O 0.92066 0.15569 0.93824 0.0
C523 C 0.92269 0.09932 0.90346 0.0
H524 H 0.97641 0.09532 0.97159 0.0
H525 H 0.83059 0.15444 0.88911 0.0
H526 H 0.83264 0.15091 0.96462 0.0
H527 H 0.82595 0.07468 0.93929 0.0
Co528 Co 0.87239 0.65723 0.67514 0.0
C529 C 0.8278 0.68145 0.69584 0.0
C530 C 0.86577 0.6983 0.70198 0.0
C531 C 0.8474 0.70855 0.71323 0.0
N532 N 0.85376 0.681 0.69109 0.0
N533 N 0.82352 0.69809 0.70942 0.0
H534 H 0.81247 0.66963 0.68974 0.0
H535 H 0.88657 0.70344 0.70203 0.0
C536 C 0.9309 0.66185 0.68988 0.0
O537 O 0.93914 0.63759 0.68698 0.0
N538 N 0.89106 0.6333 0.65963 0.0
C539 C 0.8826 0.60943 0.65396 0.0
C540 C 0.90251 0.59779 0.64437 0.0
C541 C 0.91543 0.63635 0.65271 0.0
N542 N 0.92323 0.61465 0.64384 0.0
C543 C 0.84158 0.61478 0.68767 0.0
C544 C 0.8814 0.59061 0.70639 0.0
C545 C 0.85867 0.57623 0.70185 0.0
C546 C 0.83812 0.58879 0.69305 0.0
C547 C 0.88395 0.61672 0.70084 0.0
N548 N 0.86507 0.62773 0.69042 0.0
H549 H 0.82583 0.62374 0.68027 0.0
H550 H 0.90115 0.62762 0.70479 0.0
H551 H 0.86348 0.60078 0.65678 0.0
H552 H 0.92768 0.65366 0.65466 0.0
O553 O 0.84138 0.65427 0.65994 0.0
O554 O 0.87349 0.68396 0.6575 0.0
O555 O 0.90696 0.66874 0.68659 0.0
C556 C 0.8519 0.67355 0.65126 0.0
H557 H 0.85118 0.72328 0.72316 0.0
H558 H 0.90196 0.57834 0.63846 0.0
H559 H 0.89694 0.58177 0.7142 0.0
H560 H 0.81984 0.57842 0.68998 0.0
Co561 Co 0.57797 0.62152 0.92661 0.0
C562 C 0.55019 0.57591 0.94423 0.0
C563 C 0.53884 0.61382 0.95436 0.0
C564 C 0.52548 0.59479 0.96337 0.0
N565 N 0.55427 0.60229 0.94216 0.0
N566 N 0.53241 0.57102 0.95702 0.0
H567 H 0.55959 0.56072 0.93647 0.0
H568 H 0.53704 0.63471 0.95694 0.0
C569 C 0.57111 0.68009 0.94047 0.0
O570 O 0.59511 0.68911 0.93739 0.0
N571 N 0.60142 0.64102 0.91159 0.0
C572 C 0.62611 0.63416 0.90647 0.0
C573 C 0.63603 0.65397 0.89611 0.0
C574 C 0.59631 0.66433 0.90387 0.0
N575 N 0.61735 0.67288 0.89483 0.0
C576 C 0.61899 0.59088 0.94045 0.0
C577 C 0.64694 0.63248 0.95467 0.0
C578 C 0.66026 0.60897 0.95053 0.0
C579 C 0.64581 0.58759 0.94401 0.0
C580 C 0.62013 0.63499 0.95063 0.0
N581 N 0.60719 0.61508 0.94224 0.0
H582 H 0.60833 0.57438 0.93493 0.0
H583 H 0.61025 0.65301 0.95389 0.0
H584 H 0.63622 0.6161 0.91 0.0
H585 H 0.57771 0.6749 0.90486 0.0
O586 O 0.58303 0.59064 0.91173 0.0
O587 O 0.55185 0.62119 0.90847 0.0
O588 O 0.56498 0.65582 0.93764 0.0
C589 C 0.56355 0.60004 0.90266 0.0
H590 H 0.51166 0.59813 0.97389 0.0
H591 H 0.65541 0.6546 0.89007 0.0
H592 H 0.6571 0.64872 0.96107 0.0
H593 H 0.65519 0.56868 0.94148 0.0
Co594 Co 0.61259 0.32427 0.17566 0.0
C595 C 0.65928 0.30138 0.19479 0.0
C596 C 0.62209 0.28619 0.20396 0.0
C597 C 0.64196 0.27601 0.2141 0.0
N598 N 0.6327 0.30236 0.19186 0.0
N599 N 0.66525 0.28554 0.2084 0.0
H600 H 0.67388 0.3121 0.1873 0.0
H601 H 0.60131 0.28173 0.20556 0.0
C602 C 0.55381 0.31714 0.1872 0.0
O603 O 0.54601 0.34055 0.18185 0.0
N604 N 0.59306 0.34652 0.1597 0.0
C605 C 0.60019 0.37125 0.15496 0.0
C606 C 0.58155 0.38104 0.14372 0.0
C607 C 0.57076 0.34116 0.15059 0.0
N608 N 0.56304 0.36226 0.14124 0.0
C609 C 0.63916 0.36955 0.18959 0.0
C610 C 0.59387 0.39132 0.20373 0.0
C611 C 0.61619 0.40763 0.20169 0.0
C612 C 0.63941 0.39609 0.1949 0.0
C613 C 0.59524 0.36467 0.19949 0.0
N614 N 0.61663 0.35462 0.19101 0.0
H615 H 0.6566 0.36153 0.18339 0.0
H616 H 0.57868 0.3526 0.20283 0.0
H617 H 0.61771 0.38162 0.15931 0.0
H618 H 0.56006 0.32259 0.15112 0.0
O619 O 0.64364 0.32944 0.16076 0.0
O620 O 0.61401 0.29721 0.15825 0.0
O621 O 0.57839 0.31053 0.18685 0.0
C622 C 0.63471 0.30919 0.15205 0.0
H623 H 0.6396 0.26202 0.2246 0.0
H624 H 0.58117 0.40067 0.13812 0.0
H625 H 0.57531 0.39866 0.20884 0.0
H626 H 0.65767 0.40722 0.19369 0.0
Co627 Co 0.90741 0.3624 0.4247 0.0
C628 C 0.93595 0.40623 0.44415 0.0
C629 C 0.9424 0.36787 0.45518 0.0
C630 C 0.95626 0.38596 0.46483 0.0
N631 N 0.92987 0.38024 0.44192 0.0
N632 N 0.95235 0.41003 0.45794 0.0
H633 H 0.92898 0.4219 0.43576 0.0
H634 H 0.94172 0.34701 0.45807 0.0
C635 C 0.91329 0.30344 0.4363 0.0
O636 O 0.88987 0.29426 0.43168 0.0
N637 N 0.88471 0.34435 0.40806 0.0
C638 C 0.86048 0.35262 0.40296 0.0
C639 C 0.8496 0.33397 0.39214 0.0
C640 C 0.88863 0.32117 0.3997 0.0
N641 N 0.86715 0.31404 0.39022 0.0
C642 C 0.86315 0.38965 0.43858 0.0
C643 C 0.83969 0.34462 0.45178 0.0
C644 C 0.82479 0.3678 0.45051 0.0
C645 C 0.83674 0.39071 0.44394 0.0
C646 C 0.86626 0.34513 0.44756 0.0
N647 N 0.87712 0.36657 0.43966 0.0
H648 H 0.872 0.40702 0.43287 0.0
H649 H 0.87777 0.32834 0.45098 0.0
H650 H 0.85099 0.37072 0.40707 0.0
H651 H 0.90657 0.30951 0.40077 0.0
O652 O 0.90375 0.39422 0.41046 0.0
O653 O 0.93497 0.36353 0.40789 0.0
O654 O 0.91943 0.32783 0.43481 0.0
C655 C 0.92373 0.38462 0.40178 0.0
H656 H 0.96821 0.38179 0.47618 0.0
H657 H 0.82974 0.33451 0.38674 0.0
H658 H 0.8314 0.32667 0.45722 0.0
H659 H 0.82611 0.40931 0.44339 0.0
Co660 Co 0.8723 0.32637 0.7937 0.0
C661 C 0.82761 0.30268 0.77301 0.0
C662 C 0.86571 0.28861 0.7647 0.0
C663 C 0.84659 0.27617 0.755 0.0
N664 N 0.85402 0.30523 0.77613 0.0
N665 N 0.82275 0.285 0.76019 0.0
H666 H 0.81227 0.31258 0.78038 0.0
H667 H 0.88665 0.28474 0.76362 0.0
C668 C 0.93237 0.3187 0.78293 0.0
O669 O 0.94112 0.34181 0.78834 0.0
N670 N 0.88999 0.34786 0.81112 0.0
C671 C 0.882 0.37206 0.81634 0.0
C672 C 0.90182 0.38345 0.82608 0.0
C673 C 0.91372 0.34414 0.81882 0.0
N674 N 0.92217 0.3662 0.82713 0.0
C675 C 0.8465 0.37105 0.7795 0.0
C676 C 0.89135 0.3943 0.76585 0.0
C677 C 0.86783 0.40895 0.76679 0.0
C678 C 0.84514 0.39707 0.7737 0.0
C679 C 0.89155 0.36818 0.77132 0.0
N680 N 0.86984 0.35728 0.77899 0.0
H681 H 0.8288 0.3623 0.78485 0.0
H682 H 0.90904 0.35699 0.76895 0.0
H683 H 0.86361 0.38146 0.81257 0.0
H684 H 0.92543 0.32637 0.81728 0.0
O685 O 0.83947 0.33142 0.80671 0.0
O686 O 0.86815 0.29852 0.81022 0.0
O687 O 0.90763 0.31265 0.78378 0.0
C688 C 0.84641 0.31026 0.81503 0.0
H689 H 0.84982 0.26099 0.7453 0.0
H690 H 0.90174 0.4034 0.83122 0.0
H691 H 0.90916 0.40257 0.76015 0.0
H692 H 0.82629 0.40738 0.77402 0.0
Co693 Co 0.90783 0.61984 0.04201 0.0
C694 C 0.9314 0.57367 0.02307 0.0
C695 C 0.94669 0.61086 0.01413 0.0
C696 C 0.95716 0.59118 0.00401 0.0
N697 N 0.93037 0.60007 0.02611 0.0
N698 N 0.94752 0.56795 0.00956 0.0
H699 H 0.9206 0.559 0.03045 0.0
H700 H 0.95102 0.63162 0.01256 0.0
C701 C 0.91625 0.67798 0.02874 0.0
O702 O 0.89193 0.68686 0.03087 0.0
N703 N 0.88514 0.63978 0.05744 0.0
C704 C 0.86044 0.63304 0.06264 0.0
C705 C 0.8504 0.65308 0.07273 0.0
C706 C 0.89014 0.6634 0.06495 0.0
N707 N 0.86898 0.67209 0.07391 0.0
C708 C 0.86278 0.59378 0.0293 0.0
C709 C 0.84337 0.63485 0.0098 0.0
C710 C 0.8255 0.61535 0.01576 0.0
C711 C 0.83606 0.59412 0.02519 0.0
C712 C 0.86978 0.63449 0.01527 0.0
N713 N 0.87836 0.6153 0.02623 0.0
H714 H 0.87 0.57714 0.03659 0.0
H715 H 0.88297 0.6497 0.01079 0.0
H716 H 0.85032 0.61483 0.0595 0.0
H717 H 0.90869 0.67408 0.06386 0.0
O718 O 0.90189 0.58868 0.05641 0.0
O719 O 0.93426 0.61796 0.05989 0.0
O720 O 0.92204 0.65369 0.03146 0.0
C721 C 0.92208 0.59689 0.06532 0.0
H722 H 0.97142 0.59362 -0.00637 0.0
H723 H 0.83096 0.65378 0.07869 0.0
H724 H 0.8374 0.65038 0.00103 0.0
H725 H 0.8242 0.57794 0.02996 0.0
Co726 Co 0.60837 0.65098 0.28315 0.0
C727 C 0.65388 0.67546 0.2646 0.0
C728 C 0.61655 0.68868 0.25436 0.0
C729 C 0.63645 0.70363 0.2471 0.0
N730 N 0.62731 0.67125 0.26562 0.0
N731 N 0.65981 0.69529 0.25353 0.0
H732 H 0.66842 0.66551 0.27261 0.0
H733 H 0.59564 0.69149 0.25199 0.0
C734 C 0.56362 0.68007 0.27751 0.0
O735 O 0.56161 0.66018 0.26657 0.0
N736 N 0.58941 0.63073 0.30087 0.0
C737 C 0.59874 0.60973 0.30991 0.0
C738 C 0.5796 0.60108 0.32118 0.0
C739 C 0.56439 0.63432 0.3069 0.0
N740 N 0.55814 0.61644 0.31913 0.0
C741 C 0.6518 0.61039 0.28405 0.0
C742 C 0.61856 0.57918 0.2637 0.0
C743 C 0.64155 0.56806 0.27062 0.0
C744 C 0.65887 0.58388 0.28057 0.0
C745 C 0.61276 0.60526 0.26706 0.0
N746 N 0.6285 0.6201 0.27753 0.0
H747 H 0.66423 0.62239 0.29237 0.0
H748 H 0.59444 0.61358 0.26216 0.0
H749 H 0.61832 0.60133 0.30886 0.0
H750 H 0.55088 0.64956 0.30272 0.0
O751 O 0.63393 0.66464 0.30096 0.0
O752 O 0.63392 0.66462 0.30095 0.0
O753 O 0.58421 0.68142 0.28717 0.0
C754 C 0.6363 0.65523 0.31616 0.0
H755 H 0.63396 0.71989 0.23813 0.0
H756 H 0.58124 0.5848 0.33022 0.0
H757 H 0.60515 0.56776 0.25558 0.0
H758 H 0.67715 0.57579 0.28573 0.0
Co759 Co 0.57767 0.36193 0.54287 0.0
C760 C 0.54804 0.40509 0.52351 0.0
C761 C 0.54099 0.36633 0.51319 0.0
C762 C 0.52753 0.38418 0.50318 0.0
N763 N 0.5538 0.37912 0.52617 0.0
N764 N 0.53171 0.40863 0.5096 0.0
H765 H 0.55559 0.42101 0.53153 0.0
H766 H 0.54158 0.34538 0.51055 0.0
C767 C 0.57135 0.30235 0.52997 0.0
O768 O 0.59557 0.29324 0.53214 0.0
N769 N 0.60161 0.34434 0.559 0.0
C770 C 0.62594 0.35255 0.56406 0.0
C771 C 0.63779 0.33275 0.57364 0.0
C772 C 0.59862 0.32019 0.56616 0.0
N773 N 0.62068 0.31225 0.5747 0.0
C774 C 0.61861 0.3918 0.52827 0.0
C775 C 0.64501 0.35043 0.51267 0.0
C776 C 0.65836 0.37422 0.51599 0.0
C777 C 0.64471 0.3954 0.52324 0.0
C778 C 0.61885 0.34762 0.51816 0.0
N779 N 0.60684 0.36748 0.52714 0.0
H780 H 0.60849 0.4084 0.53401 0.0
H781 H 0.60868 0.3296 0.51529 0.0
H782 H 0.63489 0.37124 0.56056 0.0
H783 H 0.58107 0.3081 0.56449 0.0
O784 O 0.58174 0.39434 0.55641 0.0
O785 O 0.55112 0.36346 0.56061 0.0
O786 O 0.56544 0.32649 0.53329 0.0
C787 C 0.56204 0.38558 0.56548 0.0
H788 H 0.51604 0.37945 0.49171 0.0
H789 H 0.65765 0.33316 0.57904 0.0
H790 H 0.65468 0.33431 0.50588 0.0
H791 H 0.65422 0.41444 0.5252 0.0
Co792 Co 0.11414 0.3261 0.29307 0.0
C793 C 0.15867 0.30266 0.27199 0.0
C794 C 0.12039 0.2891 0.26352 0.0
C795 C 0.13935 0.27781 0.2531 0.0
N796 N 0.13229 0.30493 0.27538 0.0
N797 N 0.16336 0.28629 0.25837 0.0
H798 H 0.1741 0.31262 0.2793 0.0
H799 H 0.09935 0.2854 0.26241 0.0
C800 C 0.05442 0.31925 0.2801 0.0
O801 O 0.04503 0.34297 0.28346 0.0
N802 N 0.09619 0.34766 0.31047 0.0
C803 C 0.10497 0.37121 0.31649 0.0
C804 C 0.08496 0.3833 0.32568 0.0
C805 C 0.07131 0.34529 0.31683 0.0
N806 N 0.06361 0.3672 0.32563 0.0
C807 C 0.14054 0.37161 0.28066 0.0
C808 C 0.09739 0.39345 0.26398 0.0
C809 C 0.12027 0.40867 0.2665 0.0
C810 C 0.14211 0.39757 0.27488 0.0
C811 C 0.09699 0.36739 0.26957 0.0
N812 N 0.11767 0.35727 0.27878 0.0
H813 H 0.15766 0.3634 0.28707 0.0
H814 H 0.08055 0.35544 0.2658 0.0
H815 H 0.12423 0.37967 0.31378 0.0
H816 H 0.05858 0.32849 0.31437 0.0
O817 O 0.14701 0.32962 0.30644 0.0
O818 O 0.11721 0.29753 0.30909 0.0
O819 O 0.07878 0.31335 0.28308 0.0
C820 C 0.13956 0.30797 0.31401 0.0
H821 H 0.13584 0.26366 0.24278 0.0
H822 H 0.08586 0.40279 0.33152 0.0
H823 H 0.08057 0.40113 0.25679 0.0
H824 H 0.16056 0.40843 0.2763 0.0
Co825 Co 0.40841 0.36126 0.04148 0.0
C826 C 0.43484 0.40644 0.02271 0.0
C827 C 0.44645 0.3684 0.01295 0.0
C828 C 0.4597 0.38732 0.00377 0.0
N829 N 0.43094 0.38009 0.02504 0.0
N830 N 0.45261 0.41118 0.0099 0.0
H831 H 0.4255 0.42172 0.03043 0.0
H832 H 0.44862 0.34749 0.01073 0.0
C833 C 0.41424 0.3023 0.02883 0.0
O834 O 0.39047 0.29423 0.03345 0.0
N835 N 0.38582 0.34236 0.0576 0.0
C836 C 0.36051 0.34863 0.06165 0.0
C837 C 0.34937 0.32795 0.07055 0.0
C838 C 0.39029 0.31876 0.06522 0.0
N839 N 0.36794 0.30903 0.0724 0.0
C840 C 0.36497 0.38993 0.02848 0.0
C841 C 0.34005 0.34793 0.01249 0.0
C842 C 0.32518 0.37044 0.01688 0.0
C843 C 0.33815 0.39195 0.02451 0.0
C844 C 0.3667 0.34647 0.01722 0.0
N845 N 0.37819 0.36653 0.02635 0.0
H846 H 0.3744 0.40674 0.0345 0.0
H847 H 0.37767 0.32917 0.01368 0.0
H848 H 0.35035 0.36649 0.05785 0.0
H849 H 0.40883 0.30801 0.06438 0.0
O850 O 0.40379 0.39283 0.05571 0.0
O851 O 0.43573 0.36302 0.05884 0.0
O852 O 0.42118 0.32659 0.03049 0.0
C853 C 0.42428 0.38457 0.06424 0.0
H854 H 0.47371 0.38384 -0.00662 0.0
H855 H 0.32899 0.32653 0.07492 0.0
H856 H 0.33128 0.33166 0.00532 0.0
H857 H 0.3277 0.4101 0.02756 0.0
Co858 Co 0.37216 0.65599 0.79255 0.0
C859 C 0.32678 0.67993 0.773 0.0
C860 C 0.36434 0.69606 0.76517 0.0
C861 C 0.34478 0.70735 0.75522 0.0
N862 N 0.35321 0.67871 0.77633 0.0
N863 N 0.32132 0.69719 0.76012 0.0
H864 H 0.31188 0.66851 0.77978 0.0
H865 H 0.38523 0.7006 0.76418 0.0
C866 C 0.43115 0.66392 0.78009 0.0
O867 O 0.44002 0.63967 0.78207 0.0
N868 N 0.39095 0.63289 0.80852 0.0
C869 C 0.38266 0.60874 0.81368 0.0
C870 C 0.40164 0.59773 0.82419 0.0
C871 C 0.41472 0.63647 0.81639 0.0
N872 N 0.4218 0.61508 0.82581 0.0
C873 C 0.34618 0.61129 0.77909 0.0
C874 C 0.3882 0.59245 0.76007 0.0
C875 C 0.36822 0.57449 0.76522 0.0
C876 C 0.34631 0.58494 0.77419 0.0
C877 C 0.3876 0.61854 0.76588 0.0
N878 N 0.36801 0.62673 0.77669 0.0
H879 H 0.32934 0.61834 0.78632 0.0
H880 H 0.40295 0.63181 0.76175 0.0
H881 H 0.36409 0.59955 0.81012 0.0
H882 H 0.42665 0.6542 0.81526 0.0
O883 O 0.33988 0.65108 0.80624 0.0
O884 O 0.37004 0.68267 0.80992 0.0
O885 O 0.40677 0.66975 0.78273 0.0
C886 C 0.34785 0.67185 0.81467 0.0
H887 H 0.34745 0.72235 0.74537 0.0
H888 H 0.40101 0.57818 0.82989 0.0
H889 H 0.40429 0.58699 0.75158 0.0
H890 H 0.32932 0.57337 0.77796 0.0
Co891 Co 0.07647 0.62242 0.54143 0.0
C892 C 0.04849 0.57767 0.52287 0.0
C893 C 0.04027 0.61569 0.51179 0.0
C894 C 0.02735 0.59694 0.50215 0.0
N895 N 0.05335 0.60392 0.52503 0.0
N896 N 0.0323 0.57309 0.50909 0.0
H897 H 0.05627 0.56236 0.53124 0.0
H898 H 0.04003 0.63653 0.50885 0.0
C899 C 0.07159 0.68093 0.52721 0.0
O900 O 0.09609 0.68914 0.52965 0.0
N901 N 0.09991 0.64104 0.55724 0.0
C902 C 0.12286 0.63165 0.5639 0.0
C903 C 0.13337 0.65022 0.57496 0.0
C904 C 0.09652 0.66504 0.56465 0.0
N905 N 0.11688 0.67115 0.5753 0.0
C906 C 0.12046 0.59284 0.5301 0.0
C907 C 0.14361 0.63242 0.51092 0.0
C908 C 0.15944 0.61141 0.51689 0.0
C909 C 0.14725 0.59094 0.52607 0.0
C910 C 0.11703 0.63396 0.51584 0.0
N911 N 0.10651 0.61536 0.52653 0.0
H912 H 0.11177 0.57705 0.53753 0.0
H913 H 0.10533 0.65026 0.5113 0.0
H914 H 0.13128 0.61244 0.56123 0.0
H915 H 0.07941 0.67756 0.56261 0.0
O916 O 0.07918 0.59149 0.55662 0.0
O917 O 0.04925 0.62328 0.55879 0.0
O918 O 0.06485 0.65703 0.53045 0.0
C919 C 0.05982 0.60207 0.56526 0.0
H920 H 0.0152 0.60054 0.4908 0.0
H921 H 0.15186 0.64866 0.58208 0.0
H922 H 0.15161 0.64764 0.50256 0.0
H923 H 0.15832 0.57389 0.53052 0.0
Co924 Co 0.11319 0.65619 0.17506 0.0
C925 C 0.1587 0.68248 0.1937 0.0
C926 C 0.1207 0.69531 0.20306 0.0
C927 C 0.13996 0.70842 0.2122 0.0
N928 N 0.13221 0.67909 0.19129 0.0
N929 N 0.16373 0.70042 0.20635 0.0
H930 H 0.17389 0.6727 0.18615 0.0
H931 H 0.09969 0.69808 0.20504 0.0
C932 C 0.05414 0.66403 0.18751 0.0
O933 O 0.04438 0.64061 0.18364 0.0
N934 N 0.09408 0.63334 0.15925 0.0
C935 C 0.10139 0.60872 0.15444 0.0
C936 C 0.08233 0.5985 0.14356 0.0
C937 C 0.07096 0.63803 0.15092 0.0
N938 N 0.06323 0.61685 0.14155 0.0
C939 C 0.14274 0.6148 0.18939 0.0
C940 C 0.101 0.58834 0.20466 0.0
C941 C 0.12502 0.57521 0.20174 0.0
C942 C 0.14627 0.5888 0.1945 0.0
C943 C 0.09818 0.61441 0.19905 0.0
N944 N 0.11842 0.62663 0.1905 0.0
H945 H 0.15937 0.62481 0.18359 0.0
H946 H 0.0797 0.62422 0.20131 0.0
H947 H 0.1192 0.5987 0.15866 0.0
H948 H 0.05992 0.65635 0.15178 0.0
O949 O 0.14483 0.65138 0.1608 0.0
O950 O 0.11477 0.68305 0.15759 0.0
O951 O 0.07886 0.66922 0.18571 0.0
C952 C 0.13649 0.6718 0.15228 0.0
H953 H 0.13683 0.72307 0.22226 0.0
H954 H 0.08208 0.57886 0.1379 0.0
H955 H 0.08474 0.5786 0.21127 0.0
H956 H 0.16543 0.57937 0.1928 0.0
Co957 Co 0.07626 0.36125 0.92608 0.0
C958 C 0.05344 0.40769 0.94502 0.0
C959 C 0.03773 0.37073 0.95406 0.0
C960 C 0.02791 0.39055 0.96436 0.0
N961 N 0.05389 0.38129 0.94191 0.0
N962 N 0.03781 0.41365 0.95874 0.0
H963 H 0.06433 0.42216 0.93755 0.0
H964 H 0.03305 0.35002 0.95559 0.0
C965 C 0.07026 0.30365 0.94125 0.0
O966 O 0.09488 0.29551 0.93944 0.0
N967 N 0.09895 0.34113 0.91073 0.0
C968 C 0.12322 0.34837 0.90497 0.0
C969 C 0.13417 0.32764 0.89598 0.0
C970 C 0.09489 0.31661 0.90432 0.0
N971 N 0.11647 0.30774 0.89588 0.0
C972 C 0.12184 0.38913 0.9368 0.0
C973 C 0.14227 0.35015 0.95776 0.0
C974 C 0.15943 0.36962 0.95114 0.0
C975 C 0.14863 0.38978 0.94098 0.0
C976 C 0.1157 0.34971 0.95261 0.0
N977 N 0.10651 0.36779 0.94103 0.0
H978 H 0.11433 0.4047 0.92867 0.0
H979 H 0.10287 0.33473 0.95779 0.0
H980 H 0.13248 0.36737 0.90702 0.0
H981 H 0.07688 0.30526 0.90606 0.0
O982 O 0.08022 0.39149 0.91056 0.0
O983 O 0.04898 0.36082 0.90862 0.0
O984 O 0.06359 0.32752 0.93777 0.0
C985 C 0.06026 0.38164 0.9021 0.0
H986 H 0.01385 0.38833 0.97487 0.0
H987 H 0.15349 0.32719 0.88985 0.0
H988 H 0.14916 0.33538 0.96686 0.0
H989 H 0.16073 0.40567 0.93588 0.0
Co990 Co 0.37353 0.32588 0.67698 0.0
C991 C 0.32711 0.29956 0.6943 0.0
C992 C 0.36454 0.28542 0.70387 0.0
C993 C 0.34471 0.27282 0.71273 0.0
N994 N 0.35373 0.30232 0.69225 0.0
N995 N 0.32134 0.28175 0.70678 0.0
H996 H 0.3123 0.30984 0.68671 0.0
H997 H 0.38543 0.28191 0.70594 0.0
C998 C 0.43207 0.3193 0.68952 0.0
O999 O 0.44034 0.34242 0.68398 0.0
N1000 N 0.39307 0.34936 0.66181 0.0
C1001 C 0.38579 0.37411 0.65727 0.0
C1002 C 0.40402 0.38396 0.64574 0.0
C1003 C 0.41511 0.34414 0.65246 0.0
N1004 N 0.42248 0.36521 0.64297 0.0
C1005 C 0.34211 0.36561 0.69161 0.0
C1006 C 0.38348 0.39534 0.70463 0.0
C1007 C 0.3589 0.40741 0.70139 0.0
C1008 C 0.33776 0.39205 0.69548 0.0
C1009 C 0.38707 0.36883 0.70029 0.0
N1010 N 0.367 0.35495 0.69265 0.0
H1011 H 0.32577 0.35445 0.6863 0.0
H1012 H 0.4062 0.36015 0.70232 0.0
H1013 H 0.36838 0.38434 0.66195 0.0
H1014 H 0.42572 0.32552 0.65276 0.0
O1015 O 0.34272 0.33115 0.6621 0.0
O1016 O 0.37317 0.29972 0.65896 0.0
O1017 O 0.40748 0.31293 0.68879 0.0
C1018 C 0.35181 0.31132 0.65327 0.0
H1019 H 0.34717 0.25792 0.72267 0.0
H1020 H 0.40415 0.40358 0.64011 0.0
H1021 H 0.39981 0.40633 0.71033 0.0
H1022 H 0.31822 0.40052 0.69349 0.0
Co1023 Co 0.40831 0.62058 0.42521 0.0
C1024 C 0.43561 0.57704 0.44529 0.0
C1025 C 0.44468 0.61583 0.45494 0.0
C1026 C 0.45837 0.59779 0.46464 0.0
N1027 N 0.4304 0.60308 0.44264 0.0
N1028 N 0.45296 0.57333 0.45862 0.0
H1029 H 0.42738 0.56125 0.43746 0.0
H1030 H 0.44553 0.6369 0.45705 0.0
C1031 C 0.4146 0.68009 0.43877 0.0
O1032 O 0.39022 0.6891 0.43736 0.0
N1033 N 0.38637 0.63887 0.40838 0.0
C1034 C 0.36105 0.63318 0.4038 0.0
C1035 C 0.35031 0.65473 0.39547 0.0
C1036 C 0.39101 0.66326 0.402 0.0
N1037 N 0.36911 0.67359 0.39467 0.0
C1038 C 0.36279 0.59301 0.43644 0.0
C1039 C 0.34062 0.63372 0.45519 0.0
C1040 C 0.32454 0.61241 0.44995 0.0
C1041 C 0.33615 0.59152 0.44087 0.0
C1042 C 0.36713 0.63471 0.45001 0.0
N1043 N 0.37725 0.61545 0.43962 0.0
H1044 H 0.37099 0.57665 0.4293 0.0
H1045 H 0.37925 0.65082 0.45441 0.0
H1046 H 0.35063 0.61509 0.40676 0.0
H1047 H 0.40959 0.67382 0.40342 0.0
O1048 O 0.40548 0.58815 0.41143 0.0
O1049 O 0.43682 0.61865 0.40889 0.0
O1050 O 0.42031 0.65601 0.4351 0.0
C1051 C 0.4268 0.59629 0.40375 0.0
H1052 H 0.47121 0.60251 0.47548 0.0
H1053 H 0.33026 0.65657 0.39051 0.0
H1054 H 0.33296 0.64933 0.46342 0.0
H1055 H 0.32476 0.57426 0.43704 0.0
H1056 H 0.2813 0.21749 0.19064 0.0
H1057 H 0.20407 0.26512 0.27656 0.0
H1058 H 0.3075 0.19941 0.24237 0.0
H1059 H 0.17845 0.28415 0.22485 0.0
H1060 H 0.24237 0.24131 0.26439 0.0
H1061 H 0.24268 0.24084 0.20278 0.0
C1062 C 0.27848 0.21795 0.20455 0.0
C1063 C 0.29742 0.20655 0.21556 0.0
C1064 C 0.22858 0.25095 0.25567 0.0
C1065 C 0.25374 0.23353 0.22963 0.0
C1066 C 0.20696 0.26479 0.26265 0.0
C1067 C 0.18826 0.27665 0.25168 0.0
C1068 C 0.23161 0.2491 0.23756 0.0
C1069 C 0.1925 0.27521 0.23371 0.0
C1070 C 0.25667 0.23151 0.21151 0.0
C1071 C 0.29327 0.20805 0.23351 0.0
N1072 N 0.21366 0.26168 0.22721 0.0
N1073 N 0.27193 0.22131 0.23999 0.0
H1074 H 0.00193 0.92618 0.51171 0.0
H1075 H 0.98689 0.06249 0.45965 0.0
H1076 H 0.92655 0.95313 0.49241 0.0
H1077 H 0.0615 0.02989 0.47629 0.0
H1078 H 0.96414 0.02223 0.46985 0.0
H1079 H 0.02351 0.96455 0.49863 0.0
C1080 C 0.98996 0.94055 0.50489 0.0
C1081 C 0.96248 0.93678 0.50338 0.0
C1082 C 0.98549 0.02377 0.47121 0.0
C1083 C 0.9871 0.98063 0.48779 0.0
C1084 C -0.00162 0.04665 0.46535 0.0
C1085 C 0.02599 0.04941 0.46729 0.0
C1086 C 0.00019 0.00383 0.4795 0.0
C1087 C 0.0402 0.02842 0.47458 0.0
C1088 C 0.00222 0.96233 0.49725 0.0
C1089 C 0.94773 0.95568 0.49415 0.0
N1090 N 0.02712 0.00671 0.48062 0.0
N1091 N 0.96024 0.97681 0.48665 0.0
H1092 H 0.2986 0.68446 0.72962 0.0
H1093 H 0.18694 0.79722 0.73872 0.0
H1094 H 0.28812 0.73136 0.77564 0.0
H1095 H 0.19768 0.75018 0.69277 0.0
H1096 H 0.22491 0.77457 0.75224 0.0
H1097 H 0.26059 0.70715 0.71621 0.0
C1098 C 0.28777 0.69918 0.73698 0.0
C1099 C 0.29603 0.70593 0.75376 0.0
C1100 C 0.21918 0.7693 0.73915 0.0
C1101 C 0.25354 0.73288 0.73839 0.0
C1102 C 0.19777 0.78246 0.73141 0.0
C1103 C 0.18963 0.77568 0.71459 0.0
C1104 C 0.23204 0.74877 0.73012 0.0
C1105 C 0.2038 0.75615 0.70566 0.0
C1106 C 0.26636 0.71237 0.72931 0.0
C1107 C 0.2819 0.72544 0.76277 0.0
N1108 N 0.22416 0.74318 0.71358 0.0
N1109 N 0.26148 0.73842 0.75493 0.0
H1110 H 0.45334 0.9585 0.9438 0.0
H1111 H 0.53228 0.02429 0.02273 0.0
H1112 H 0.46598 0.91945 -0.00825 0.0
H1113 H 0.52062 0.06276 0.97446 0.0
H1114 H 0.50893 0.98537 0.01147 0.0
H1115 H 0.47586 -0.00226 0.95531 0.0
C1116 C 0.4604 0.95844 0.95706 0.0
C1117 C 0.45827 0.93556 0.96718 0.0
C1118 C 0.51162 0.00214 0.00309 0.0
C1119 C 0.48457 0.98025 0.98037 0.0
C1120 C 0.52527 0.02431 0.00946 0.0
C1121 C 0.52801 0.04697 -0.00083 0.0
C1122 C 0.50071 0.00259 -0.01373 0.0
C1123 C 0.51844 0.04592 0.98297 0.0
C1124 C 0.47356 0.98079 0.96358 0.0
C1125 C 0.46778 0.93651 -0.01662 0.0
N1126 N 0.50507 0.02424 0.97711 0.0
N1127 N 0.4807 0.95835 -0.01062 0.0
H1128 H 0.17761 0.75142 0.2048 0.0
H1129 H 0.30934 0.73102 0.26154 0.0
H1130 H 0.20521 0.67495 0.22124 0.0
H1131 H 0.28076 0.80733 0.24542 0.0
H1132 H 0.27079 0.71007 0.24772 0.0
H1133 H 0.21597 0.7721 0.21893 0.0
C1134 C 0.19217 0.73903 0.21119 0.0
C1135 C 0.18858 0.71157 0.21181 0.0
C1136 C 0.27278 0.7314 0.24725 0.0
C1137 C 0.23197 0.73494 0.22853 0.0
C1138 C 0.29462 0.74331 0.25522 0.0
C1139 C 0.29802 0.77082 0.25453 0.0
C1140 C 0.25441 0.74713 0.23826 0.0
C1141 C 0.27859 0.78606 0.24628 0.0
C1142 C 0.21387 0.75078 0.21939 0.0
C1143 C 0.20764 0.69618 0.22034 0.0
N1144 N 0.2577 0.77397 0.23829 0.0
N1145 N 0.22849 0.70812 0.22852 0.0
H1146 H 0.50454 0.94632 0.44192 0.0
H1147 H 0.48068 0.03589 0.52655 0.0
H1148 H 0.5489 0.93703 0.48916 0.0
H1149 H 0.43757 0.04576 0.47886 0.0
H1150 H 0.50501 -0.00136 0.51357 0.0
H1151 H 0.48038 0.98348 0.455 0.0
C1152 C 0.50974 0.95284 0.45487 0.0
C1153 C 0.52891 0.9391 0.4644 0.0
C1154 C 0.48993 0.00861 0.50599 0.0
C1155 C 0.50093 0.98086 0.47977 0.0
C1156 C 0.47582 0.02951 0.51351 0.0
C1157 C 0.45697 0.04341 0.50379 0.0
C1158 C 0.48509 0.00163 0.4886 0.0
C1159 C 0.4518 0.03516 0.48676 0.0
C1160 C 0.49573 0.97371 0.46246 0.0
C1161 C 0.53445 0.94751 0.48137 0.0
N1162 N 0.46582 0.01484 0.47967 0.0
N1163 N 0.52049 0.96784 0.48855 0.0
H1164 H 0.1836 0.24737 0.76837 0.0
H1165 H 0.30124 0.23425 0.69907 0.0
H1166 H 0.20007 0.1759 0.74003 0.0
H1167 H 0.28568 0.30563 0.7277 0.0
H1168 H 0.26346 0.21287 0.71337 0.0
H1169 H 0.2219 0.2687 0.75458 0.0
C1170 C 0.19579 0.2361 0.75946 0.0
C1171 C 0.18906 0.20997 0.75532 0.0
C1172 C 0.26801 0.23331 0.71643 0.0
C1173 C 0.23204 0.23425 0.73898 0.0
C1174 C 0.28927 0.24552 0.7081 0.0
C1175 C 0.29606 0.27169 0.71209 0.0
C1176 C 0.25367 0.24731 0.72908 0.0
C1177 C 0.28058 0.28553 0.72413 0.0
C1178 C 0.21739 0.24827 0.75146 0.0
C1179 C 0.205 0.19604 0.74361 0.0
N1180 N 0.26015 0.2731 0.73232 0.0
N1181 N 0.22567 0.20845 0.7357 0.0
H1182 H 0.06116 0.95334 -0.0091 0.0
H1183 H 0.92467 0.03218 0.97624 0.0
H1184 H 0.98755 0.93231 0.01536 0.0
H1185 H -0.00172 0.05132 0.95108 0.0
H1186 H 0.94656 -0.00566 -0.01051 0.0
H1187 H 0.03872 0.9905 0.97741 0.0
C1188 C 0.04042 0.95718 -0.0064 0.0
C1189 C 0.02614 0.94035 0.00455 0.0
C1190 C 0.9579 0.0066 0.98162 0.0
C1191 C -4e-05 0.98169 -0.01239 0.0
C1192 C 0.94527 0.02786 0.97339 0.0
C1193 C 0.95985 0.04453 0.9625 0.0
C1194 C 0.98527 0.00233 0.97896 0.0
C1195 C 0.98659 0.03868 0.95939 0.0
C1196 C 0.02745 0.97802 -0.01481 0.0
C1197 C -0.00089 0.94537 0.00724 0.0
N1198 N -0.00154 0.0182 0.96766 0.0
N1199 N 0.98687 0.96549 -0.00123 0.0
H1200 H 0.6721 0.77368 0.72484 0.0
H1201 H 0.81434 0.7079 0.74343 0.0
H1202 H 0.70953 0.77455 0.77503 0.0
H1203 H 0.7768 0.70809 0.69323 0.0
H1204 H 0.77565 0.73081 0.75555 0.0
H1205 H 0.7111 0.75124 0.71282 0.0
C1206 C 0.6888 0.76942 0.73325 0.0
C1207 C 0.68762 0.77578 0.75096 0.0
C1208 C 0.77576 0.72577 0.74191 0.0
C1209 C 0.73197 0.74926 0.73748 0.0
C1210 C 0.79774 0.71251 0.73501 0.0
C1211 C 0.79884 0.70634 0.71724 0.0
C1212 C 0.75479 0.73325 0.73092 0.0
C1213 C 0.77671 0.71244 0.70697 0.0
C1214 C 0.71095 0.75642 0.72644 0.0
C1215 C 0.70977 0.77004 0.76131 0.0
N1216 N 0.75576 0.72584 0.7139 0.0
N1217 N 0.73091 0.75679 0.75448 0.0
H1218 H 0.78396 0.22287 0.27724 0.0
H1219 H 0.70233 0.25844 0.19066 0.0
H1220 H 0.80283 0.19083 0.22708 0.0
H1221 H 0.68457 0.29121 0.24078 0.0
H1222 H 0.73998 0.23432 0.20343 0.0
H1223 H 0.74666 0.24719 0.26428 0.0
C1224 C 0.77963 0.22039 0.26358 0.0
C1225 C 0.79615 0.20475 0.25321 0.0
C1226 C 0.72816 0.24712 0.21162 0.0
C1227 C 0.75414 0.23291 0.23811 0.0
C1228 C 0.707 0.26115 0.20426 0.0
C1229 C 0.69069 0.27693 0.21469 0.0
C1230 C 0.73301 0.24898 0.22957 0.0
C1231 C 0.69692 0.27933 0.23235 0.0
C1232 C 0.75866 0.23453 0.2561 0.0
C1233 C 0.79032 0.20263 0.23546 0.0
N1234 N 0.71753 0.26545 0.23925 0.0
N1235 N 0.76983 0.21659 0.22845 0.0
H1236 H 0.80653 0.2355 0.7663 0.0
H1237 H 0.68167 0.24755 0.70221 0.0
H1238 H 0.78382 0.30801 0.7413 0.0
H1239 H 0.70362 0.17486 0.72728 0.0
H1240 H 0.71978 0.26965 0.71571 0.0
H1241 H 0.76844 0.21307 0.75285 0.0
C1242 C 0.79306 0.24671 0.75818 0.0
C1243 C 0.79794 0.27354 0.75496 0.0
C1244 C 0.71657 0.2488 0.71816 0.0
C1245 C 0.75501 0.24803 0.73901 0.0
C1246 C 0.69505 0.23618 0.71029 0.0
C1247 C 0.68991 0.20941 0.7135 0.0
C1248 C 0.73296 0.23459 0.72956 0.0
C1249 C 0.70732 0.19546 0.72431 0.0
C1250 C 0.77155 0.23393 0.75038 0.0
C1251 C 0.78036 0.28735 0.74422 0.0
N1252 N 0.72804 0.20827 0.73207 0.0
N1253 N 0.75973 0.27438 0.7365 0.0
H1254 H 0.80414 0.73434 0.20107 0.0
H1255 H 0.67422 0.74557 0.26053 0.0
H1256 H 0.78091 0.80694 0.22587 0.0
H1257 H 0.70253 0.67259 0.23858 0.0
H1258 H 0.7143 0.7682 0.24992 0.0
H1259 H 0.7669 0.71159 0.21501 0.0
C1260 C 0.79064 0.74553 0.20917 0.0
C1261 C 0.795 0.77253 0.21201 0.0
C1262 C 0.71192 0.7472 0.24752 0.0
C1263 C 0.75292 0.74664 0.22862 0.0
C1264 C 0.68918 0.73433 0.25365 0.0
C1265 C 0.68518 0.70733 0.25023 0.0
C1266 C 0.7304 0.73305 0.2375 0.0
C1267 C 0.70501 0.69343 0.2414 0.0
C1268 C 0.76966 0.73255 0.21734 0.0
C1269 C 0.77764 0.78619 0.22305 0.0
N1270 N 0.72659 0.70652 0.23511 0.0
N1271 N 0.7573 0.77311 0.23098 0.0
H1272 H 0.55878 0.52586 0.96538 0.0
H1273 H 0.4265 0.45649 0.00171 0.0
H1274 H 0.48089 0.56071 0.96267 0.0
H1275 H 0.50425 0.42132 0.0044 0.0
H1276 H 0.44617 0.4956 -0.01231 0.0
H1277 H 0.53932 0.48684 0.97968 0.0
C1278 C 0.53755 0.52498 0.96751 0.0
C1279 C 0.52134 0.54635 0.96287 0.0
C1280 C 0.45898 0.4794 -0.00853 0.0
C1281 C 0.49899 0.50239 0.97944 0.0
C1282 C 0.44775 0.4573 -0.00039 0.0
C1283 C 0.46383 0.4358 0.00413 0.0
C1284 C 0.48645 0.4799 -0.0121 0.0
C1285 C 0.49123 0.43751 0.00095 0.0
C1286 C 0.52644 0.50295 0.97583 0.0
C1287 C 0.49399 0.54459 0.96616 0.0
N1288 N 0.50166 0.45908 -0.00701 0.0
N1289 N 0.48369 0.5231 0.97426 0.0
H1290 H 0.98154 0.56576 0.49961 0.0
H1291 H 0.00321 0.41622 0.46802 0.0
H1292 H 0.05635 0.52529 0.50447 0.0
H1293 H 0.92924 0.45806 0.46268 0.0
H1294 H 0.02324 0.45565 0.48117 0.0
H1295 H 0.96203 0.52611 0.48668 0.0
C1296 C -0.00623 0.54835 0.49799 0.0
C1297 C 0.02053 0.54872 0.50312 0.0
C1298 C 0.00265 0.45632 0.47711 0.0
C1299 C -0.00156 0.5032 0.48803 0.0
C1300 C 0.99129 0.43386 0.46958 0.0
C1301 C 0.96461 0.43401 0.4642 0.0
C1302 C 0.98723 0.4791 0.47955 0.0
C1303 C 0.94995 0.4573 0.46645 0.0
C1304 C 0.98271 0.52573 0.49057 0.0
C1305 C 0.03558 0.52565 0.50084 0.0
N1306 N 0.9614 0.47886 0.47406 0.0
N1307 N 0.02436 0.50382 0.49334 0.0
H1308 H 0.00408 0.44589 0.94228 0.0
H1309 H 0.98127 0.53569 0.02603 0.0
H1310 H 0.04922 0.43718 -0.01169 0.0
H1311 H 0.93667 0.54482 0.97982 0.0
H1312 H 0.0057 0.4988 0.0128 0.0
H1313 H 0.97992 0.48298 0.95545 0.0
C1314 C 0.00943 0.45252 0.95519 0.0
C1315 C 0.02883 0.43899 0.96464 0.0
C1316 C 0.99029 0.50851 0.0054 0.0
C1317 C 0.00085 0.4806 0.98008 0.0
C1318 C 0.97611 0.5292 0.01307 0.0
C1319 C 0.95675 0.54275 0.00358 0.0
C1320 C 0.98503 0.50141 -0.01192 0.0
C1321 C 0.95123 0.53444 -0.01338 0.0
C1322 C -0.0046 0.47334 0.96282 0.0
C1323 C 0.03461 0.44751 0.98154 0.0
N1324 N 0.96537 0.5143 0.9803 0.0
N1325 N 0.0206 0.46777 -0.01218 0.0
H1326 H 0.55175 0.45878 0.51188 0.0
H1327 H 0.43298 0.52317 0.45599 0.0
H1328 H 0.48607 0.41396 0.49095 0.0
H1329 H 0.49948 0.56751 0.4763 0.0
H1330 H 0.45235 0.48276 0.46826 0.0
H1331 H 0.53279 0.49894 0.49899 0.0
C1332 C 0.53332 0.45736 0.50469 0.0
C1333 C 0.52062 0.43283 0.50255 0.0
C1334 C 0.46266 0.50139 0.47004 0.0
C1335 C 0.4988 0.47876 0.48755 0.0
C1336 C 0.45164 0.52447 0.46293 0.0
C1337 C 0.46436 0.54898 0.46518 0.0
C1338 C 0.48662 0.50276 0.47947 0.0
C1339 C 0.4885 0.54933 0.47448 0.0
C1340 C 0.52255 0.48028 0.49722 0.0
C1341 C 0.49688 0.43225 0.49281 0.0
N1342 N 0.49873 0.5267 0.48126 0.0
N1343 N 0.4868 0.45476 0.48573 0.0
H1344 H 0.32682 0.15885 0.12229 0.0
H1345 H 0.39851 0.28281 0.09528 0.0
H1346 H 0.33435 0.22774 0.15491 0.0
H1347 H 0.32726 0.27619 0.06459 0.0
H1348 H 0.38415 0.24427 0.11219 0.0
H1349 H 0.32893 0.18781 0.09654 0.0
C1350 C 0.32748 0.18012 0.12402 0.0
C1351 C 0.33164 0.19111 0.14053 0.0
C1352 C 0.37205 0.2509 0.1014 0.0
C1353 C 0.33506 0.22338 0.1118 0.0
C1354 C 0.38027 0.2727 0.09182 0.0
C1355 C 0.36346 0.28302 0.07913 0.0
C1356 C 0.34699 0.2396 0.09819 0.0
C1357 C 0.3401 0.26913 0.07484 0.0
C1358 C 0.3291 0.19648 0.10939 0.0
C1359 C 0.33197 0.21862 0.14227 0.0
N1360 N 0.33207 0.24831 0.08467 0.0
N1361 N 0.33489 0.23383 0.12804 0.0
H1362 H 0.94711 0.14901 0.34453 0.0
H1363 H 0.07017 0.05915 0.37397 0.0
H1364 H 0.95798 0.0711 0.3229 0.0
H1365 H 0.04952 0.13662 0.39314 0.0
H1366 H 0.0343 0.06322 0.35187 0.0
H1367 H 0.9892 0.14514 0.35938 0.0
C1368 C 0.95859 0.13107 0.34288 0.0
C1369 C 0.94903 0.11036 0.33266 0.0
C1370 C 0.03792 0.0793 0.36088 0.0
C1371 C -0.00238 0.10529 0.34988 0.0
C1372 C 0.05829 0.07698 0.3734 0.0
C1373 C 0.06197 0.09729 0.38567 0.0
C1374 C 0.02184 0.10217 0.36078 0.0
C1375 C 0.0467 0.12021 0.38426 0.0
C1376 C 0.98273 0.12871 0.35138 0.0
C1377 C 0.96461 0.08733 0.331 0.0
N1378 N 0.02735 0.12188 0.37223 0.0
N1379 N 0.98826 0.08528 0.33964 0.0
H1380 H 0.12506 0.82603 0.61957 0.0
H1381 H 0.13102 0.67553 0.60859 0.0
H1382 H 0.17894 0.77629 0.64799 0.0
H1383 H 0.11338 0.72133 0.56303 0.0
H1384 H 0.14592 0.71566 0.62327 0.0
H1385 H 0.12352 0.79294 0.59628 0.0
C1386 C 0.13784 0.80882 0.6204 0.0
C1387 C 0.15132 0.8031 0.63589 0.0
C1388 C 0.13917 0.71702 0.60996 0.0
C1389 C 0.14877 0.7652 0.61001 0.0
C1390 C 0.13033 0.69421 0.60175 0.0
C1391 C 0.12144 0.69528 0.58462 0.0
C1392 C 0.13937 0.74114 0.60096 0.0
C1393 C 0.12027 0.71995 0.57629 0.0
C1394 C 0.13661 0.78979 0.60723 0.0
C1395 C 0.16775 0.78093 0.63638 0.0
N1396 N 0.12927 0.74212 0.58455 0.0
N1397 N 0.16527 0.76219 0.6239 0.0
H1398 H 0.55835 0.89621 0.85482 0.0
H1399 H 0.41278 0.85921 0.87094 0.0
H1400 H 0.51472 0.85228 0.81621 0.0
H1401 H 0.45117 0.9255 0.89558 0.0
H1402 H 0.44383 0.86269 0.84665 0.0
H1403 H 0.51661 0.90972 0.86802 0.0
C1404 C 0.53986 0.88948 0.84911 0.0
C1405 C 0.53997 0.87311 0.83444 0.0
C1406 C 0.44495 0.8771 0.85704 0.0
C1407 C 0.49179 0.88894 0.84927 0.0
C1408 C 0.42712 0.87523 0.87083 0.0
C1409 C 0.43063 0.89127 0.88551 0.0
C1410 C 0.4666 0.89451 0.85854 0.0
C1411 C 0.44869 0.91216 0.88469 0.0
C1412 C 0.51598 0.89747 0.85649 0.0
C1413 C 0.51545 0.86464 0.82766 0.0
N1414 N 0.46677 0.91264 0.87167 0.0
N1415 N 0.49227 0.87253 0.83519 0.0
H1416 H 0.33208 0.75908 0.31092 0.0
H1417 H 0.33821 0.71395 0.40586 0.0
H1418 H 0.3367 0.82526 0.34608 0.0
H1419 H 0.39357 0.69087 0.36623 0.0
H1420 H 0.32612 0.75338 0.38849 0.0
H1421 H 0.33644 0.72902 0.33532 0.0
C1422 C 0.33252 0.76721 0.32394 0.0
C1423 C 0.3351 0.79439 0.32663 0.0
C1424 C 0.34128 0.73992 0.38387 0.0
C1425 C 0.34059 0.76047 0.35432 0.0
C1426 C 0.34809 0.71761 0.39365 0.0
C1427 C 0.36632 0.69915 0.38704 0.0
C1428 C 0.35213 0.74266 0.36728 0.0
C1429 C 0.37914 0.70458 0.37147 0.0
C1430 C 0.33554 0.75013 0.33778 0.0
C1431 C 0.33535 0.80418 0.34367 0.0
N1432 N 0.37129 0.72554 0.36186 0.0
N1433 N 0.33902 0.78707 0.3571 0.0
H1434 H 0.40711 0.10541 0.59837 0.0
H1435 H 0.55815 0.11094 0.60924 0.0
H1436 H 0.46124 0.06013 0.56708 0.0
H1437 H 0.51198 0.1155 0.65601 0.0
H1438 H 0.51884 0.09579 0.59352 0.0
H1439 H 0.44024 0.10638 0.6218 0.0
C1440 C 0.42541 0.09437 0.59684 0.0
C1441 C 0.43215 0.08355 0.58065 0.0
C1442 C 0.51723 0.09981 0.60727 0.0
C1443 C 0.47002 0.0857 0.60667 0.0
C1444 C 0.53951 0.10886 0.61609 0.0
C1445 C 0.53807 0.11412 0.63381 0.0
C1446 C 0.49337 0.0957 0.61629 0.0
C1447 C 0.51354 0.11154 0.64226 0.0
C1448 C 0.44441 0.09527 0.6101 0.0
C1449 C 0.45574 0.06927 0.57926 0.0
N1450 N 0.49192 0.10235 0.63341 0.0
N1451 N 0.47435 0.07159 0.59188 0.0
H1452 H 0.09124 0.28964 0.86779 0.0
H1453 H 0.14782 0.15728 0.84599 0.0
H1454 H 0.15099 0.26984 0.90553 0.0
H1455 H 0.15363 0.22414 0.81171 0.0
H1456 H 0.14876 0.18787 0.87099 0.0
H1457 H 0.10617 0.25249 0.84977 0.0
C1458 C 0.10697 0.27686 0.87243 0.0
C1459 C 0.12027 0.28263 0.88783 0.0
C1460 C 0.15103 0.19561 0.858 0.0
C1461 C 0.13779 0.24108 0.86744 0.0
C1462 C 0.15069 0.17826 0.8438 0.0
C1463 C 0.1494 0.18866 0.82697 0.0
C1464 C 0.14968 0.22291 0.85485 0.0
C1465 C 0.15363 0.21568 0.8246 0.0
C1466 C 0.1157 0.25604 0.86218 0.0
C1467 C 0.14072 0.2658 0.89347 0.0
N1468 N 0.1526 0.23209 0.83842 0.0
N1469 N 0.14924 0.24568 0.88313 0.0
H1470 H 0.95179 0.83277 0.12343 0.0
H1471 H 0.04111 0.9268 0.08047 0.0
H1472 H 0.95403 0.91008 0.1471 0.0
H1473 H 0.06723 0.84745 0.09141 0.0
H1474 H 0.01513 0.92632 0.10751 0.0
H1475 H -0.00372 0.84022 0.11202 0.0
C1476 C 0.96188 0.85118 0.12638 0.0
C1477 C 0.94919 0.87088 0.13601 0.0
C1478 C 0.02741 0.90942 0.10431 0.0
C1479 C 0.00026 0.87965 0.12315 0.0
C1480 C 0.0422 0.90973 0.0889 0.0
C1481 C 0.05491 0.88655 0.08338 0.0
C1482 C 0.02494 0.88551 0.1135 0.0
C1483 C 0.05649 0.86523 0.0949 0.0
C1484 C 0.98739 0.8554 0.12005 0.0
C1485 C 0.96303 0.89462 0.13937 0.0
N1486 N 0.04086 0.8648 0.10916 0.0
N1487 N 0.98779 0.89859 0.1327 0.0
H1488 H 0.63084 0.72062 0.90793 0.0
H1489 H 0.66311 0.76507 0.81237 0.0
H1490 H 0.6096 0.67964 0.86098 0.0
H1491 H 0.63913 0.82586 0.84823 0.0
H1492 H 0.66038 0.73262 0.83549 0.0
H1493 H 0.64398 0.75969 0.89052 0.0
C1494 C 0.62858 0.72021 0.89397 0.0
C1495 C 0.61974 0.69713 0.8856 0.0
C1496 C 0.65659 0.75323 0.8385 0.0
C1497 C 0.6354 0.74031 0.86601 0.0
C1498 C 0.65876 0.7718 0.82542 0.0
C1499 C 0.65032 0.79765 0.82844 0.0
C1500 C 0.64629 0.76089 0.85463 0.0
C1501 C 0.64504 0.80568 0.8455 0.0
C1502 C 0.63618 0.7422 0.88414 0.0
C1503 C 0.61679 0.69709 0.86767 0.0
N1504 N 0.64221 0.78703 0.85808 0.0
N1505 N 0.62494 0.71828 0.85842 0.0
H1506 H 0.05415 0.9123 0.6221 0.0
H1507 H 0.91672 0.85635 0.59482 0.0
H1508 H 0.01874 0.84216 0.6443 0.0
H1509 H 0.95049 0.92835 0.57488 0.0
H1510 H 0.94545 0.85977 0.62027 0.0
H1511 H 0.01112 0.92516 0.61111 0.0
C1512 C 0.03747 0.89953 0.62484 0.0
C1513 C 0.04059 0.87579 0.63414 0.0
C1514 C 0.94609 0.87533 0.61065 0.0
C1515 C 0.99069 0.89056 0.62108 0.0
C1516 C 0.92956 0.87347 0.59619 0.0
C1517 C 0.93241 0.89147 0.58254 0.0
C1518 C 0.96594 0.89487 0.61098 0.0
C1519 C 0.94855 0.91363 0.58498 0.0
C1520 C 0.01265 0.90709 0.61856 0.0
C1521 C 0.01777 0.8603 0.63696 0.0
N1522 N 0.96547 0.91431 0.59872 0.0
N1523 N -0.0061 0.86777 0.63026 0.0
H1524 H 0.80669 0.20036 0.32058 0.0
H1525 H 0.8871 0.26538 0.3984 0.0
H1526 H 0.86807 0.15885 0.34823 0.0
H1527 H 0.8347 0.3056 0.36287 0.0
H1528 H 0.87361 0.22288 0.38546 0.0
H1529 H 0.80559 0.23353 0.34362 0.0
C1530 C 0.81895 0.19752 0.33198 0.0
C1531 C 0.83812 0.1776 0.33236 0.0
C1532 C 0.86489 0.24105 0.38068 0.0
C1533 C 0.83835 0.21605 0.35805 0.0
C1534 C 0.87289 0.26531 0.38785 0.0
C1535 C 0.86184 0.2891 0.38178 0.0
C1536 C 0.84569 0.24069 0.36741 0.0
C1537 C 0.84337 0.2878 0.36818 0.0
C1538 C 0.8188 0.21675 0.34498 0.0
C1539 C 0.8535 0.17457 0.3474 0.0
N1540 N 0.83593 0.26409 0.3615 0.0
N1541 N 0.85406 0.19423 0.35946 0.0
H1542 H 0.56581 0.13393 0.09196 0.0
H1543 H 0.44624 0.06632 0.14149 0.0
H1544 H 0.53902 0.05524 0.07932 0.0
H1545 H 0.45684 0.14908 0.12991 0.0
H1546 H 0.49083 0.05733 0.1296 0.0
H1547 H 0.53965 0.13271 0.11847 0.0
C1548 C 0.5551 0.11597 0.09514 0.0
C1549 C 0.55327 0.09518 0.08316 0.0
C1550 C 0.48342 0.07745 0.12996 0.0
C1551 C 0.52292 0.09394 0.11308 0.0
C1552 C 0.45797 0.08257 0.13649 0.0
C1553 C 0.44775 0.1085 0.13644 0.0
C1554 C 0.4986 0.09843 0.12338 0.0
C1555 C 0.46393 0.12889 0.13023 0.0
C1556 C 0.54016 0.11531 0.11024 0.0
C1557 C 0.53996 0.07204 0.08803 0.0
N1558 N 0.48837 0.12338 0.12382 0.0
N1559 N 0.52441 0.0723 0.10249 0.0
H1560 H 0.66808 0.28617 0.57634 0.0
H1561 H 0.59805 0.16783 0.6259 0.0
H1562 H 0.58479 0.27826 0.58828 0.0
H1563 H 0.67725 0.1936 0.63872 0.0
H1564 H 0.59933 0.19481 0.59974 0.0
H1565 H 0.67584 0.24178 0.58848 0.0
C1566 C 0.65145 0.27516 0.58152 0.0
C1567 C 0.62576 0.28617 0.58158 0.0
C1568 C 0.6168 0.19393 0.60793 0.0
C1569 C 0.63446 0.2353 0.5949 0.0
C1570 C 0.61613 0.17849 0.62283 0.0
C1571 C 0.63709 0.17969 0.63478 0.0
C1572 C 0.63843 0.21094 0.60523 0.0
C1573 C 0.66035 0.19302 0.63003 0.0
C1574 C 0.65588 0.24975 0.58819 0.0
C1575 C 0.60487 0.27067 0.58797 0.0
N1576 N 0.66015 0.20894 0.61578 0.0
N1577 N 0.60972 0.2462 0.59448 0.0
H1578 H 0.4518 0.83374 0.34117 0.0
H1579 H 0.54144 0.92571 0.38731 0.0
H1580 H 0.45224 0.91352 0.32155 0.0
H1581 H 0.56645 0.84661 0.37443 0.0
H1582 H 0.51502 0.92682 0.36039 0.0
H1583 H 0.49646 0.84047 0.35249 0.0
C1584 C 0.46152 0.8526 0.33909 0.0
C1585 C 0.44825 0.87313 0.33065 0.0
C1586 C 0.52715 0.90963 0.36313 0.0
C1587 C 0.49963 0.88114 0.34347 0.0
C1588 C 0.54216 0.90902 0.37848 0.0
C1589 C 0.55469 0.88544 0.3834 0.0
C1590 C 0.52438 0.88626 0.35333 0.0
C1591 C 0.55583 0.86466 0.3714 0.0
C1592 C 0.48713 0.85642 0.34538 0.0
C1593 C 0.46167 0.89738 0.3284 0.0
N1594 N 0.54013 0.86518 0.35714 0.0
N1595 N 0.48657 0.90093 0.33504 0.0
H1596 H 0.85002 0.8267 0.11851 0.0
H1597 H 0.87272 0.67896 0.108 0.0
H1598 H 0.81471 0.76821 0.15172 0.0
H1599 H 0.85743 0.71985 0.06019 0.0
H1600 H 0.85747 0.7178 0.12409 0.0
H1601 H 0.85151 0.79389 0.09492 0.0
C1602 C 0.84115 0.80739 0.12048 0.0
C1603 C 0.83325 0.79946 0.1371 0.0
C1604 C 0.85735 0.71833 0.11005 0.0
C1605 C 0.8359 0.76229 0.11093 0.0
C1606 C 0.86649 0.69645 0.101 0.0
C1607 C 0.86601 0.69651 0.08296 0.0
C1608 C 0.84735 0.74024 0.10097 0.0
C1609 C 0.85787 0.71946 0.07421 0.0
C1610 C 0.84232 0.78865 0.10712 0.0
C1611 C 0.82164 0.77462 0.13913 0.0
N1612 N 0.84863 0.74067 0.08333 0.0
N1613 N 0.82423 0.75645 0.12635 0.0
H1614 H 0.96258 0.06434 0.90328 0.0
H1615 H 0.0115 0.12021 0.81246 0.0
H1616 H 0.90801 0.10497 0.86964 0.0
H1617 H 0.05854 0.10647 0.85818 0.0
H1618 H 0.97155 0.10538 0.82843 0.0
H1619 H -0.00459 0.06427 0.8802 0.0
C1620 C 0.9571 0.07201 0.89066 0.0
C1621 C 0.93328 0.08559 0.88839 0.0
C1622 C 0.99066 0.10572 0.83489 0.0
C1623 C 0.97087 0.08693 0.8624 0.0
C1624 C 0.01319 0.1145 0.82594 0.0
C1625 C 0.03811 0.11432 0.83416 0.0
C1626 C -0.00657 0.09652 0.85198 0.0
C1627 C 0.03964 0.1066 0.85147 0.0
C1628 C 0.97601 0.07251 0.8776 0.0
C1629 C 0.92676 0.09502 0.87184 0.0
N1630 N 0.01766 0.09793 0.85977 0.0
N1631 N 0.94594 0.09642 0.85947 0.0
H1632 H 0.90195 0.77254 0.5834 0.0
H1633 H 0.80739 0.701 0.64136 0.0
H1634 H 0.8183 0.79018 0.57929 0.0
H1635 H 0.87725 0.66256 0.62143 0.0
H1636 H 0.80521 0.7279 0.61496 0.0
H1637 H 0.8908 0.72881 0.59437 0.0
C1638 C 0.88123 0.76716 0.58463 0.0
C1639 C 0.86111 0.78536 0.58076 0.0
C1640 C 0.82045 0.71287 0.61603 0.0
C1641 C 0.84806 0.73515 0.59346 0.0
C1642 C 0.82158 0.69749 0.63108 0.0
C1643 C 0.84318 0.68056 0.63371 0.0
C1644 C 0.84161 0.71171 0.60416 0.0
C1645 C 0.86086 0.67627 0.62 0.0
C1646 C 0.87481 0.74203 0.59075 0.0
C1647 C 0.83452 0.77716 0.58268 0.0
N1648 N 0.86026 0.69241 0.60599 0.0
N1649 N 0.82876 0.75284 0.5892 0.0
H1650 H 0.42714 0.59236 0.85695 0.0
H1651 H 0.57534 0.6188 0.87069 0.0
H1652 H 0.47203 0.62589 0.81492 0.0
H1653 H 0.53271 0.55694 0.89692 0.0
H1654 H 0.5433 0.61656 0.84676 0.0
H1655 H 0.46834 0.57858 0.87075 0.0
C1656 C 0.44583 0.59672 0.85065 0.0
C1657 C 0.44629 0.61007 0.8348 0.0
C1658 C 0.54152 0.60272 0.85739 0.0
C1659 C 0.49374 0.59374 0.85023 0.0
C1660 C 0.55991 0.60382 0.87096 0.0
C1661 C 0.55565 0.58881 0.88597 0.0
C1662 C 0.51872 0.58702 0.8594 0.0
C1663 C 0.53599 0.56939 0.88571 0.0
C1664 C 0.46936 0.58855 0.85836 0.0
C1665 C 0.47101 0.61573 0.82723 0.0
N1666 N 0.51756 0.56964 0.87287 0.0
N1667 N 0.49392 0.60759 0.83506 0.0
H1668 H 0.58339 0.20971 0.08325 0.0
H1669 H 0.67939 0.28268 0.14125 0.0
H1670 H 0.66717 0.19374 0.07828 0.0
H1671 H 0.60813 0.3202 0.12265 0.0
H1672 H 0.68033 0.25541 0.11489 0.0
H1673 H 0.59398 0.25318 0.09528 0.0
C1674 C 0.60402 0.2155 0.08448 0.0
C1675 C 0.6244 0.1979 0.08004 0.0
C1676 C 0.66502 0.2703 0.11625 0.0
C1677 C 0.6368 0.2477 0.09388 0.0
C1678 C 0.66465 0.286 0.13124 0.0
C1679 C 0.64317 0.30294 0.13427 0.0
C1680 C 0.64321 0.27106 0.10481 0.0
C1681 C 0.62462 0.3067 0.12092 0.0
C1682 C 0.61011 0.24043 0.09122 0.0
C1683 C 0.65084 0.20642 0.08202 0.0
N1684 N 0.62447 0.29018 0.10701 0.0
N1685 N 0.65631 0.23055 0.08906 0.0
H1686 H 0.91425 0.35443 0.37392 0.0
H1687 H 0.04091 0.41601 0.32826 0.0
H1688 H 0.94738 0.42974 0.38876 0.0
H1689 H 0.02543 0.33295 0.33633 0.0
H1690 H -0.00315 0.42634 0.34001 0.0
H1691 H 0.94297 0.35364 0.34854 0.0
C1692 C 0.9267 0.37147 0.37134 0.0
C1693 C 0.92936 0.39171 0.38371 0.0
C1694 C 0.00306 0.40588 0.33897 0.0
C1695 C 0.96239 0.39076 0.35491 0.0
C1696 C 0.02831 0.39993 0.3325 0.0
C1697 C 0.03721 0.37354 0.3317 0.0
C1698 C 0.9866 0.38533 0.34462 0.0
C1699 C 0.01957 0.35353 0.3368 0.0
C1700 C 0.94325 0.37086 0.35693 0.0
C1701 C 0.94535 0.41348 0.37969 0.0
N1702 N -0.00476 0.35986 0.34321 0.0
N1703 N 0.96193 0.41215 0.36577 0.0
H1704 H 0.86736 0.17734 0.85866 0.0
H1705 H 0.85131 0.32708 0.84833 0.0
H1706 H 0.86246 0.2216 0.90623 0.0
H1707 H 0.81145 0.26987 0.8161 0.0
H1708 H 0.85391 0.29416 0.87165 0.0
H1709 H 0.85213 0.21624 0.84273 0.0
C1710 C 0.86336 0.19553 0.86562 0.0
C1711 C 0.86592 0.19653 0.88359 0.0
C1712 C 0.84353 0.28921 0.85977 0.0
C1713 C 0.84719 0.24054 0.86582 0.0
C1714 C 0.84165 0.30807 0.84657 0.0
C1715 C 0.83217 0.3005 0.83017 0.0
C1716 C 0.83599 0.26306 0.8561 0.0
C1717 C 0.81961 0.27603 0.82847 0.0
C1718 C 0.85423 0.21752 0.85668 0.0
C1719 C 0.86063 0.22043 0.89227 0.0
N1720 N 0.82278 0.25771 0.84107 0.0
N1721 N 0.85131 0.24173 0.88328 0.0
H1722 H 0.90746 0.60905 0.09825 0.0
H1723 H 0.0584 0.6047 0.10808 0.0
H1724 H 0.95779 0.55748 0.06845 0.0
H1725 H 0.01318 0.61927 0.15438 0.0
H1726 H 0.01806 0.58986 0.09345 0.0
H1727 H 0.94072 0.60944 0.12157 0.0
C1728 C 0.92489 0.5966 0.09708 0.0
C1729 C 0.93075 0.58413 0.08128 0.0
C1730 C 0.01685 0.59597 0.10689 0.0
C1731 C 0.96878 0.58544 0.10712 0.0
C1732 C 0.03975 0.60486 0.11505 0.0
C1733 C 0.03888 0.61293 0.13232 0.0
C1734 C -0.00714 0.59484 0.11614 0.0
C1735 C 0.01433 0.61315 0.14095 0.0
C1736 C 0.94397 0.59711 0.11027 0.0
C1737 C 0.95311 0.56796 0.08033 0.0
N1738 N 0.99211 0.6041 0.13275 0.0
N1739 N 0.97191 0.56983 0.09284 0.0
H1740 H 0.58258 0.78674 0.37396 0.0
H1741 H 0.67289 0.66454 0.34307 0.0
H1742 H 0.66074 0.77518 0.39534 0.0
H1743 H 0.59603 0.68671 0.32315 0.0
H1744 H 0.66873 0.69997 0.36539 0.0
H1745 H 0.58684 0.74563 0.35798 0.0
C1746 C 0.60061 0.77525 0.37533 0.0
C1747 C 0.6213 0.78427 0.3858 0.0
C1748 C 0.65283 0.69682 0.35614 0.0
C1749 C 0.62678 0.73685 0.36744 0.0
C1750 C 0.6552 0.6767 0.34349 0.0
C1751 C 0.6351 0.67354 0.33097 0.0
C1752 C 0.63008 0.71316 0.35614 0.0
C1753 C 0.61233 0.68915 0.33221 0.0
C1754 C 0.6032 0.75173 0.3662 0.0
C1755 C 0.64451 0.76884 0.3871 0.0
N1756 N 0.61059 0.70822 0.34438 0.0
N1757 N 0.64673 0.74576 0.37795 0.0
H1758 H 0.57736 0.37622 0.59862 0.0
H1759 H 0.42628 0.37357 0.60894 0.0
H1760 H 0.52423 0.42319 0.56768 0.0
H1761 H 0.47262 0.36611 0.65557 0.0
H1762 H 0.46587 0.38852 0.59353 0.0
H1763 H 0.54427 0.3755 0.62194 0.0
C1764 C 0.55929 0.38766 0.59717 0.0
C1765 C 0.5527 0.39883 0.58111 0.0
C1766 C 0.46744 0.38391 0.6072 0.0
C1767 C 0.51492 0.39711 0.60696 0.0
C1768 C 0.44502 0.37494 0.61581 0.0
C1769 C 0.44645 0.36887 0.63339 0.0
C1770 C 0.49141 0.38722 0.61632 0.0
C1771 C 0.47107 0.37068 0.64191 0.0
C1772 C 0.54032 0.38694 0.61036 0.0
C1773 C 0.52951 0.41371 0.57978 0.0
N1774 N 0.49282 0.37983 0.63328 0.0
N1775 N 0.51088 0.41162 0.59233 0.0
H1776 H 0.10069 0.18393 0.36406 0.0
H1777 H 0.14779 0.32556 0.34714 0.0
H1778 H 0.14033 0.2196 0.40768 0.0
H1779 H 0.16334 0.26062 0.31245 0.0
H1780 H 0.14459 0.294 0.37135 0.0
H1781 H 0.11564 0.2207 0.3458 0.0
C1782 C 0.11204 0.19994 0.36979 0.0
C1783 C 0.1195 0.19896 0.38721 0.0
C1784 C 0.14975 0.28686 0.35855 0.0
C1785 C 0.13766 0.24012 0.36649 0.0
C1786 C 0.15206 0.30483 0.34482 0.0
C1787 C 0.1547 0.29526 0.32782 0.0
C1788 C 0.14986 0.25966 0.35479 0.0
C1789 C 0.16046 0.2685 0.32539 0.0
C1790 C 0.12093 0.22059 0.35942 0.0
C1791 C 0.13434 0.21999 0.39421 0.0
N1792 N 0.15671 0.25138 0.33861 0.0
N1793 N 0.14325 0.23983 0.38377 0.0
H1794 H 0.55793 0.36795 0.10717 0.0
H1795 H 0.40862 0.37652 0.09751 0.0
H1796 H 0.51382 0.36684 0.15484 0.0
H1797 H 0.46298 0.42135 0.06617 0.0
H1798 H 0.44129 0.37659 0.12118 0.0
H1799 H 0.51872 0.38459 0.09211 0.0
C1800 C 0.53968 0.37094 0.11432 0.0
C1801 C 0.53876 0.36611 0.13206 0.0
C1802 C 0.44556 0.38748 0.10944 0.0
C1803 C 0.49437 0.38648 0.11537 0.0
C1804 C 0.42688 0.38766 0.09601 0.0
C1805 C 0.43397 0.39792 0.07979 0.0
C1806 C 0.47116 0.39713 0.10607 0.0
C1807 C 0.45736 0.41249 0.0784 0.0
C1808 C 0.51754 0.38095 0.10591 0.0
C1809 C 0.51486 0.37026 0.14102 0.0
N1810 N 0.47568 0.4109 0.09121 0.0
N1811 N 0.49334 0.38031 0.13255 0.0
H1812 H 0.34926 0.76362 0.90753 0.0
H1813 H 0.32286 0.71795 0.81207 0.0
H1814 H 0.38317 0.79864 0.8619 0.0
H1815 H 0.34062 0.65576 0.84828 0.0
H1816 H 0.32841 0.75038 0.83511 0.0
H1817 H 0.33608 0.72443 0.89015 0.0
C1818 C 0.35428 0.76265 0.89391 0.0
C1819 C 0.36671 0.78418 0.88582 0.0
C1820 C 0.33015 0.72954 0.8382 0.0
C1821 C 0.35102 0.74094 0.86616 0.0
C1822 C 0.32626 0.71101 0.82518 0.0
C1823 C 0.33249 0.68454 0.82829 0.0
C1824 C 0.33923 0.72119 0.85447 0.0
C1825 C 0.33652 0.67634 0.84545 0.0
C1826 C 0.34674 0.74056 0.88409 0.0
C1827 C 0.37323 0.78241 0.86834 0.0
N1828 N 0.34074 0.69484 0.85804 0.0
N1829 N 0.36485 0.76132 0.85896 0.0
H1830 H 0.03779 0.55608 0.57822 0.0
H1831 H 0.95582 0.6501 0.62883 0.0
H1832 H 0.06858 0.63224 0.59336 0.0
H1833 H 0.95018 0.56801 0.64346 0.0
H1834 H -6e-05 0.64181 0.61724 0.0
H1835 H 0.01182 0.55479 0.6052 0.0
C1836 C 0.03986 0.572 0.58755 0.0
C1837 C 0.05398 0.59496 0.58331 0.0
C1838 C 0.98943 0.62564 0.62334 0.0
C1839 C 0.02405 0.59411 0.61343 0.0
C1840 C 0.96409 0.63038 0.62978 0.0
C1841 C 0.94928 0.6097 0.63693 0.0
C1842 C -6e-05 0.59989 0.62371 0.0
C1843 C 0.96082 0.58436 0.63767 0.0
C1844 C 0.02506 0.57132 0.60293 0.0
C1845 C 0.05676 0.61476 0.59592 0.0
N1846 N 0.98541 0.58001 0.63087 0.0
N1847 N 0.04117 0.61435 0.6102 0.0
H1848 H 0.13188 0.65564 0.11869 0.0
H1849 H 0.1141 0.80414 0.10845 0.0
H1850 H 0.17038 0.71292 0.15158 0.0
H1851 H 0.12174 0.76062 0.06074 0.0
H1852 H 0.13062 0.7658 0.12434 0.0
H1853 H 0.13089 0.68834 0.09515 0.0
C1854 C 0.14149 0.67463 0.1206 0.0
C1855 C 0.15026 0.68227 0.13715 0.0
C1856 C 0.12885 0.76455 0.11037 0.0
C1857 C 0.14809 0.71948 0.11101 0.0
C1858 C 0.11891 0.78616 0.10144 0.0
C1859 C 0.11668 0.78523 0.08346 0.0
C1860 C 0.13689 0.74188 0.1012 0.0
C1861 C 0.12316 0.76169 0.07472 0.0
C1862 C 0.14063 0.69333 0.10726 0.0
C1863 C 0.16278 0.70672 0.13906 0.0
N1864 N 0.13313 0.74069 0.08371 0.0
N1865 N 0.16046 0.72493 0.12632 0.0
H1866 H 0.9601 0.33127 0.83708 0.0
H1867 H 0.03456 0.42639 0.89086 0.0
H1868 H 0.94631 0.41451 0.82838 0.0
H1869 H 0.07138 0.35445 0.87305 0.0
H1870 H 0.00881 0.42816 0.86384 0.0
H1871 H 0.00488 0.34161 0.84668 0.0
C1872 C 0.96653 0.35171 0.83703 0.0
C1873 C 0.94902 0.37206 0.83245 0.0
C1874 C 0.02331 0.41254 0.86551 0.0
C1875 C 0.00046 0.3842 0.84358 0.0
C1876 C 0.03798 0.4116 0.88092 0.0
C1877 C 0.05397 0.38959 0.88431 0.0
C1878 C 0.02416 0.39077 0.8541 0.0
C1879 C 0.05828 0.37117 0.87104 0.0
C1880 C 0.99231 0.35764 0.84235 0.0
C1881 C 0.95868 0.39824 0.83254 0.0
N1882 N 0.04276 0.37164 0.85667 0.0
N1883 N 0.98359 0.40364 0.83842 0.0
H1884 H 0.37949 0.22006 0.56527 0.0
H1885 H 0.31224 0.27576 0.65099 0.0
H1886 H 0.34862 0.17525 0.60814 0.0
H1887 H 0.36388 0.32424 0.62002 0.0
H1888 H 0.31073 0.24316 0.62767 0.0
H1889 H 0.3646 0.26126 0.57963 0.0
C1890 C 0.36998 0.21904 0.57782 0.0
C1891 C 0.36524 0.19444 0.58567 0.0
C1892 C 0.32176 0.26131 0.62568 0.0
C1893 C 0.34729 0.24073 0.60159 0.0
C1894 C 0.32217 0.2801 0.63886 0.0
C1895 C 0.33903 0.30187 0.63749 0.0
C1896 C 0.33875 0.26441 0.61137 0.0
C1897 C 0.35133 0.30698 0.62156 0.0
C1898 C 0.3611 0.24236 0.58581 0.0
C1899 C 0.35247 0.19388 0.60172 0.0
N1900 N 0.35177 0.2878 0.60918 0.0
N1901 N 0.34395 0.21663 0.60912 0.0
H1902 H 0.40873 0.58644 0.3708 0.0
H1903 H 0.54865 0.63481 0.35098 0.0
H1904 H 0.47518 0.57456 0.40508 0.0
H1905 H 0.51377 0.59087 0.30888 0.0
H1906 H 0.51254 0.62008 0.36992 0.0
H1907 H 0.43962 0.58772 0.34604 0.0
C1908 C 0.42965 0.58265 0.37297 0.0
C1909 C 0.43986 0.58152 0.3899 0.0
C1910 C 0.51267 0.61378 0.35648 0.0
C1911 C 0.47463 0.58413 0.3623 0.0
C1912 C 0.53291 0.62254 0.34572 0.0
C1913 C 0.53394 0.6138 0.32858 0.0
C1914 C 0.49362 0.59592 0.35007 0.0
C1915 C 0.51331 0.59782 0.32216 0.0
C1916 C 0.44722 0.58375 0.35892 0.0
C1917 C 0.46684 0.5763 0.39218 0.0
N1918 N 0.49385 0.58905 0.33299 0.0
N1919 N 0.48352 0.57885 0.37858 0.0
H1920 H 0.50856 0.30916 0.16914 0.0
H1921 H 0.4717 0.16884 0.21207 0.0
H1922 H 0.55365 0.27733 0.21179 0.0
H1923 H 0.43181 0.20444 0.16849 0.0
H1924 H 0.5011 0.20813 0.21382 0.0
H1925 H 0.47876 0.27133 0.17061 0.0
C1926 C 0.51184 0.29441 0.17909 0.0
C1927 C 0.53366 0.29632 0.19029 0.0
C1928 C 0.4859 0.2072 0.20389 0.0
C1929 C 0.49954 0.25244 0.19206 0.0
C1930 C 0.46927 0.18477 0.20284 0.0
C1931 C 0.44917 0.18348 0.19019 0.0
C1932 C 0.48251 0.22815 0.19203 0.0
C1933 C 0.44677 0.20469 0.1786 0.0
C1934 C 0.49493 0.27259 0.17985 0.0
C1935 C 0.53718 0.27638 0.20278 0.0
N1936 N 0.46316 0.22592 0.17978 0.0
N1937 N 0.5203 0.25519 0.20334 0.0
H1938 H 0.96492 0.31027 0.42855 0.0
H1939 H 0.00528 0.16222 0.45145 0.0
H1940 H 0.91122 0.25562 0.45337 0.0
H1941 H 0.05748 0.219 0.42759 0.0
H1942 H 0.97202 0.19719 0.45545 0.0
H1943 H 0.00057 0.27858 0.4317 0.0
C1944 C 0.96076 0.29166 0.43497 0.0
C1945 C 0.93502 0.28524 0.44044 0.0
C1946 C 0.99068 0.20195 0.44922 0.0
C1947 C 0.9759 0.24869 0.444 0.0
C1948 C 0.00936 0.182 0.44675 0.0
C1949 C 0.03351 0.18786 0.43873 0.0
C1950 C -0.00386 0.22766 0.44335 0.0
C1951 C 0.03867 0.2138 0.43347 0.0
C1952 C 0.98119 0.27352 0.43671 0.0
C1953 C 0.93074 0.26095 0.44864 0.0
N1954 N 0.01996 0.23275 0.43569 0.0
N1955 N 0.95104 0.24334 0.45008 0.0
H1956 H 0.9399 0.69727 0.66504 0.0
H1957 H 0.04843 0.78568 0.71491 0.0
H1958 H 0.96549 0.67665 0.71658 0.0
H1959 H 0.01665 0.8007 0.66402 0.0
H1960 H 0.01791 0.74738 0.71765 0.0
H1961 H 0.96868 0.73557 0.66568 0.0
C1962 C 0.95185 0.7008 0.67651 0.0
C1963 C 0.95045 0.68369 0.69069 0.0
C1964 C 0.01763 0.75914 0.70594 0.0
C1965 C 0.98353 0.7284 0.69179 0.0
C1966 C 0.03491 0.78097 0.70441 0.0
C1967 C 0.03491 0.79624 0.68918 0.0
C1968 C 0.00089 0.7524 0.69196 0.0
C1969 C 0.01711 0.78957 0.67599 0.0
C1970 C 0.96826 0.72286 0.67695 0.0
C1971 C 0.96626 0.68933 0.7053 0.0
N1972 N 0.00115 0.7681 0.67762 0.0
N1973 N 0.98218 0.71137 0.70553 0.0
H1974 H 0.53249 0.68605 0.91689 0.0
H1975 H 0.45034 0.79918 0.96671 0.0
H1976 H 0.55868 0.71688 0.96613 0.0
H1977 H 0.42615 0.76136 0.91914 0.0
H1978 H 0.48925 0.76943 0.96801 0.0
H1979 H 0.49395 0.71492 0.91797 0.0
C1980 C 0.53002 0.69898 0.92799 0.0
C1981 C 0.54868 0.69898 0.94146 0.0
C1982 C 0.47534 0.76758 0.95736 0.0
C1983 C 0.50395 0.7321 0.94304 0.0
C1984 C 0.45309 0.78441 0.95668 0.0
C1985 C 0.43492 0.78251 0.94287 0.0
C1986 C 0.47973 0.74929 0.94387 0.0
C1987 C 0.43942 0.76322 0.93014 0.0
C1988 C 0.50791 0.71548 0.92865 0.0
C1989 C 0.54467 0.71634 0.95548 0.0
N1990 N 0.46141 0.74768 0.93086 0.0
N1991 N 0.52258 0.73214 0.95598 0.0
H1992 H 0.43587 0.78921 0.25263 0.0
H1993 H 0.54963 0.71149 0.30494 0.0
H1994 H 0.46711 0.81273 0.30238 0.0
H1995 H 0.52744 0.69174 0.25245 0.0
H1996 H 0.51404 0.74448 0.3056 0.0
H1997 H 0.46547 0.75032 0.253 0.0
C1998 C 0.44924 0.78632 0.26348 0.0
C1999 C 0.44979 0.80453 0.27726 0.0
C2000 C 0.51701 0.733 0.29389 0.0
C2001 C 0.4825 0.7598 0.27821 0.0
C2002 C 0.5374 0.71431 0.29353 0.0
C2003 C 0.54193 0.69955 0.27847 0.0
C2004 C 0.50147 0.73735 0.27897 0.0
C2005 C 0.52489 0.70317 0.26422 0.0
C2006 C 0.46585 0.76406 0.2638 0.0
C2007 C 0.46677 0.79961 0.29126 0.0
N2008 N 0.50562 0.72199 0.26471 0.0
N2009 N 0.48231 0.77771 0.29141 0.0
H2010 H 0.52915 0.30052 0.55096 0.0
H2011 H 0.45419 0.17907 0.50511 0.0
H2012 H 0.56208 0.26201 0.50598 0.0
H2013 H 0.42389 0.22464 0.54798 0.0
H2014 H 0.49243 0.20954 0.50327 0.0
H2015 H 0.49031 0.2723 0.54901 0.0
C2016 C 0.52808 0.28607 0.54057 0.0
C2017 C 0.54875 0.28371 0.52857 0.0
C2018 C 0.47731 0.21292 0.51298 0.0
C2019 C 0.50376 0.25109 0.52606 0.0
C2020 C 0.4555 0.1956 0.51402 0.0
C2021 C 0.43596 0.1993 0.5268 0.0
C2022 C 0.47978 0.23365 0.52509 0.0
C2023 C 0.43836 0.22115 0.53786 0.0
C2024 C 0.5058 0.26991 0.53942 0.0
C2025 C 0.54651 0.26436 0.51552 0.0
N2026 N 0.45997 0.23718 0.53689 0.0
N2027 N 0.52427 0.24878 0.51454 0.0
H2028 H 0.013 0.17086 0.75348 0.0
H2029 H 0.97668 0.30797 0.80127 0.0
H2030 H 0.05227 0.20309 0.7985 0.0
H2031 H 0.93234 0.28072 0.75684 0.0
H2032 H 0.00588 0.26997 0.79853 0.0
H2033 H 0.98404 0.21055 0.75272 0.0
C2034 C 0.01538 0.18617 0.76321 0.0
C2035 C 0.03509 0.18383 0.77605 0.0
C2036 C 0.98999 0.27221 0.7892 0.0
C2037 C 0.00223 0.22884 0.77536 0.0
C2038 C 0.97338 0.29414 0.79072 0.0
C2039 C 0.95189 0.29738 0.7794 0.0
C2040 C 0.98545 0.25324 0.77613 0.0
C2041 C 0.94841 0.27862 0.76606 0.0
C2042 C -0.00104 0.2088 0.76275 0.0
C2043 C 0.03749 0.20418 0.7883 0.0
N2044 N 0.965 0.25727 0.76477 0.0
N2045 N 0.02132 0.22558 0.78767 0.0
H2046 H 0.91602 0.72895 0.01522 0.0
H2047 H 0.0708 0.75182 0.03656 0.0
H2048 H 0.96808 0.66965 0.03677 0.0
H2049 H 0.02254 0.80993 0.01047 0.0
H2050 H 0.03319 0.72115 0.03592 0.0
H2051 H 0.95444 0.75902 0.01271 0.0
C2052 C 0.93545 0.72221 0.01933 0.0
C2053 C 0.93879 0.69661 0.02606 0.0
C2054 C 0.0309 0.7405 0.0301 0.0
C2055 C 0.98268 0.73092 0.02349 0.0
C2056 C 0.05252 0.75795 0.03032 0.0
C2057 C 0.04994 0.78355 0.02352 0.0
C2058 C 0.00645 0.74856 0.02294 0.0
C2059 C 0.02548 0.79048 0.01592 0.0
C2060 C 0.95737 0.73935 0.0179 0.0
C2061 C 0.96446 0.68901 0.03126 0.0
N2062 N 0.0047 0.77319 0.0159 0.0
N2063 N 0.98522 0.70605 0.02997 0.0
H2064 H 0.42935 0.70913 0.79837 0.0
H2065 H 0.55676 0.77875 0.75608 0.0
H2066 H 0.47546 0.67022 0.75881 0.0
H2067 H 0.50618 0.81385 0.79479 0.0
H2068 H 0.527 0.74005 0.75494 0.0
H2069 H 0.45779 0.7477 0.7962 0.0
C2070 C 0.44548 0.7088 0.78909 0.0
C2071 C 0.44986 0.68651 0.77865 0.0
C2072 C 0.52237 0.75629 0.76359 0.0
C2073 C 0.48279 0.73122 0.7759 0.0
C2074 C 0.53932 0.7784 0.76425 0.0
C2075 C 0.53414 0.79945 0.77573 0.0
C2076 C 0.50025 0.75515 0.77466 0.0
C2077 C 0.51096 0.79821 0.78571 0.0
C2078 C 0.4618 0.73093 0.78784 0.0
C2079 C 0.47142 0.68705 0.7671 0.0
N2080 N 0.49518 0.77638 0.7851 0.0
N2081 N 0.48706 0.70918 0.76594 0.0
H2082 H 0.94962 0.79913 0.5012 0.0
H2083 H 0.03348 0.68739 0.55098 0.0
H2084 H 0.92657 0.76197 0.54903 0.0
H2085 H 0.05898 0.71803 0.50169 0.0
H2086 H -0.00536 0.7158 0.54991 0.0
H2087 H 0.98873 0.76967 0.4998 0.0
C2088 C 0.95265 0.78455 0.51128 0.0
C2089 C 0.93475 0.78281 0.5252 0.0
C2090 C 0.00856 0.71649 0.53924 0.0
C2091 C 0.97985 0.74986 0.52407 0.0
C2092 C 0.03089 0.70029 0.5399 0.0
C2093 C 0.0495 0.70034 0.52644 0.0
C2094 C 0.00427 0.73294 0.52486 0.0
C2095 C 0.04514 0.71752 0.5124 0.0
C2096 C 0.97503 0.76788 0.51053 0.0
C2097 C 0.93962 0.76373 0.53795 0.0
N2098 N 0.02284 0.73308 0.51191 0.0
N2099 N 0.96174 0.74832 0.53717 0.0
H2100 H 0.93683 0.19701 0.25212 0.0
H2101 H 0.04622 0.28195 0.30381 0.0
H2102 H 0.96984 0.17849 0.30218 0.0
H2103 H 0.02066 0.30556 0.25283 0.0
H2104 H 0.0174 0.24367 0.30217 0.0
H2105 H 0.9673 0.23551 0.25023 0.0
C2106 C 0.95061 0.20099 0.26261 0.0
C2107 C 0.95106 0.18461 0.27733 0.0
C2108 C 0.01791 0.25698 0.2912 0.0
C2109 C 0.985 0.22861 0.27554 0.0
C2110 C 0.0344 0.27895 0.29221 0.0
C2111 C 0.03574 0.29686 0.27849 0.0
C2112 C 0.00255 0.25242 0.27625 0.0
C2113 C 0.01996 0.29213 0.26373 0.0
C2114 C 0.96786 0.22292 0.26155 0.0
C2115 C 0.9691 0.19043 0.29055 0.0
N2116 N 0.00397 0.2702 0.26294 0.0
N2117 N 0.98502 0.21196 0.2894 0.0
H2118 H 0.53153 0.18303 0.04895 0.0
H2119 H 0.452 0.30133 0.00289 0.0
H2120 H 0.56055 0.21938 0.00221 0.0
H2121 H 0.4253 0.2587 0.04788 0.0
H2122 H 0.49093 0.27181 0.00113 0.0
H2123 H 0.49299 0.21183 0.04827 0.0
C2124 C 0.52969 0.19712 0.03844 0.0
C2125 C 0.54917 0.19859 0.02553 0.0
C2126 C 0.47649 0.26886 0.01132 0.0
C2127 C 0.50438 0.23185 0.02449 0.0
C2128 C 0.45426 0.28565 0.01231 0.0
C2129 C 0.43543 0.28247 0.02559 0.0
C2130 C 0.48016 0.24912 0.02393 0.0
C2131 C 0.43915 0.26171 0.03734 0.0
C2132 C 0.50756 0.21362 0.03804 0.0
C2133 C 0.54593 0.21759 0.01241 0.0
N2134 N 0.46112 0.24613 0.03635 0.0
N2135 N 0.52381 0.23341 0.01213 0.0
H2136 H 0.46976 0.30443 0.66677 0.0
H2137 H 0.51868 0.17469 0.71834 0.0
H2138 H 0.43782 0.2841 0.71674 0.0
H2139 H 0.54612 0.19892 0.66797 0.0
H2140 H 0.48914 0.21392 0.71906 0.0
H2141 H 0.49824 0.26551 0.66792 0.0
C2142 C 0.46923 0.29201 0.6782 0.0
C2143 C 0.45166 0.29765 0.69175 0.0
C2144 C 0.50151 0.21045 0.70782 0.0
C2145 C 0.48437 0.2526 0.69325 0.0
C2146 C 0.51821 0.18804 0.70738 0.0
C2147 C 0.53471 0.18354 0.69301 0.0
C2148 C 0.50129 0.22819 0.69372 0.0
C2149 C 0.53366 0.20157 0.67926 0.0
C2150 C 0.48535 0.26958 0.67882 0.0
C2151 C 0.45126 0.28046 0.70606 0.0
N2152 N 0.51732 0.22289 0.67995 0.0
N2153 N 0.46748 0.25875 0.7065 0.0
H2154 H 0.53093 0.80404 0.46453 0.0
H2155 H 0.45817 0.68084 0.41861 0.0
H2156 H 0.5642 0.75744 0.42311 0.0
H2157 H 0.4229 0.72198 0.46178 0.0
H2158 H 0.49685 0.70951 0.42059 0.0
H2159 H 0.49219 0.77416 0.46514 0.0
C2160 C 0.53021 0.78737 0.4557 0.0
C2161 C 0.55086 0.78322 0.44375 0.0
C2162 C 0.48086 0.71234 0.42977 0.0
C2163 C 0.50629 0.74941 0.44403 0.0
C2164 C 0.45867 0.6959 0.42863 0.0
C2165 C 0.43735 0.69881 0.44015 0.0
C2166 C 0.48222 0.73193 0.44269 0.0
C2167 C 0.43893 0.71905 0.45265 0.0
C2168 C 0.50805 0.77039 0.45601 0.0
C2169 C 0.54896 0.76124 0.43268 0.0
N2170 N 0.46109 0.73476 0.45368 0.0
N2171 N 0.52702 0.74546 0.43295 0.0
H2172 H 0.98287 0.81811 0.17776 0.0
H2173 H 0.00312 0.66475 0.20121 0.0
H2174 H 0.92309 0.77204 0.20398 0.0
H2175 H 0.06396 0.71555 0.18021 0.0
H2176 H 0.97379 0.70363 0.20385 0.0
H2177 H 0.01337 0.78083 0.18014 0.0
C2178 C 0.97628 0.80038 0.18435 0.0
C2179 C 0.95019 0.7983 0.19058 0.0
C2180 C -0.00639 0.70619 0.19878 0.0
C2181 C 0.9852 0.75512 0.19323 0.0
C2182 C 0.01034 0.68401 0.19727 0.0
C2183 C 0.03611 0.68686 0.19058 0.0
C2184 C 0.00261 0.73121 0.19324 0.0
C2185 C 0.04442 0.71232 0.18565 0.0
C2186 C -0.00632 0.77894 0.18561 0.0
C2187 C 0.94284 0.77458 0.19884 0.0
N2188 N 0.02772 0.73329 0.18693 0.0
N2189 N 0.96014 0.7539 0.19982 0.0
H2190 H 0.95274 0.18006 0.96472 0.0
H2191 H 0.02958 0.30013 0.91893 0.0
H2192 H 0.92381 0.22417 0.92087 0.0
H2193 H 0.06081 0.26277 0.96479 0.0
H2194 H 0.99153 0.27078 0.91971 0.0
H2195 H 0.99182 0.20953 0.96613 0.0
C2196 C 0.9545 0.19612 0.95552 0.0
C2197 C 0.93497 0.1998 0.9427 0.0
C2198 C 0.00644 0.26888 0.92973 0.0
C2199 C 0.97988 0.23294 0.94387 0.0
C2200 C 0.02831 0.2857 0.92927 0.0
C2201 C 0.04824 0.28413 0.94192 0.0
C2202 C 0.00395 0.25029 0.94312 0.0
C2203 C 0.04578 0.26467 0.95482 0.0
C2204 C 0.97684 0.21283 0.95628 0.0
C2205 C 0.93815 0.22085 0.93112 0.0
N2206 N 0.02385 0.24858 0.95519 0.0
N2207 N 0.96023 0.23634 0.93187 0.0
H2208 H 0.39103 0.95355 0.2741 0.0
H2209 H 0.32452 0.03611 0.19901 0.0
H2210 H 0.31771 0.93092 0.24908 0.0
H2211 H 0.4075 0.04381 0.21325 0.0
H2212 H 0.32153 -0.00267 0.21663 0.0
H2213 H 0.39403 -0.00833 0.25477 0.0
C2214 C 0.37526 0.95714 0.26483 0.0
C2215 C 0.35461 0.93882 0.2626 0.0
C2216 C 0.34037 0.00766 0.21597 0.0
C2217 C 0.35835 0.98128 0.24033 0.0
C2218 C 0.34236 0.02993 0.20562 0.0
C2219 C 0.36582 0.04514 0.20575 0.0
C2220 C 0.36172 0.00085 0.22667 0.0
C2221 C 0.38824 0.03442 0.21405 0.0
C2222 C 0.37721 0.97855 0.25363 0.0
C2223 C 0.33419 0.94444 0.25089 0.0
N2224 N 0.38543 0.01338 0.22473 0.0
N2225 N 0.33688 0.96496 0.23984 0.0
H2226 H 0.29705 0.15661 0.49663 0.0
H2227 H 0.18429 0.05579 0.46788 0.0
H2228 H 0.28437 0.08162 0.52232 0.0
H2229 H 0.21189 0.12096 0.43687 0.0
H2230 H 0.21934 0.06512 0.489 0.0
H2231 H 0.25914 0.14765 0.47854 0.0
C2232 C 0.28719 0.13786 0.49836 0.0
C2233 C 0.29715 0.11787 0.50931 0.0
C2234 C 0.21811 0.07702 0.47737 0.0
C2235 C 0.25276 0.10817 0.48877 0.0
C2236 C 0.19868 0.07115 0.46507 0.0
C2237 C 0.19513 0.08783 0.45082 0.0
C2238 C 0.23404 0.09957 0.47518 0.0
C2239 C 0.21406 0.10771 0.4478 0.0
C2240 C 0.26519 0.13292 0.48792 0.0
C2241 C 0.28026 0.09608 0.51243 0.0
N2242 N 0.23233 0.11354 0.46016 0.0
N2243 N 0.25942 0.0913 0.50173 0.0
H2244 H 0.14891 0.94964 0.69329 0.0
H2245 H 0.09797 0.03167 0.77481 0.0
H2246 H 0.08412 0.92705 0.72711 0.0
H2247 H 0.16662 0.05462 0.74509 0.0
H2248 H 0.09612 0.99027 0.75882 0.0
H2249 H 0.15637 0.98846 0.71163 0.0
C2250 C 0.1362 0.95266 0.70441 0.0
C2251 C 0.1167 0.93395 0.70901 0.0
C2252 C 0.11182 0.00405 0.75585 0.0
C2253 C 0.12486 0.97842 0.7297 0.0
C2254 C 0.11296 0.02756 0.7651 0.0
C2255 C 0.13186 0.04662 0.76068 0.0
C2256 C 0.12936 0.0001 0.74192 0.0
C2257 C 0.15138 0.0404 0.74845 0.0
C2258 C 0.14054 0.97482 0.71487 0.0
C2259 C 0.09975 0.94011 0.72289 0.0
N2260 N 0.14927 0.01777 0.73908 0.0
N2261 N 0.10449 0.96158 0.7328 0.0
H2262 H 0.19031 0.82544 0.00387 0.0
H2263 H 0.30616 0.91533 0.96925 0.0
H2264 H 0.19427 0.90984 0.01343 0.0
H2265 H 0.28354 0.84147 0.94517 0.0
H2266 H 0.26594 0.91397 -0.01433 0.0
H2267 H 0.22882 0.82946 -0.01501 0.0
C2268 C 0.19911 0.84479 0.00208 0.0
C2269 C 0.1875 0.86765 0.00921 0.0
C2270 C 0.26952 0.89828 0.97731 0.0
C2271 C 0.23196 0.87207 -0.01177 0.0
C2272 C 0.29224 0.89924 0.96723 0.0
C2273 C 0.29843 0.87796 0.95634 0.0
C2274 C 0.2532 0.87583 0.97645 0.0
C2275 C 0.27971 0.85772 0.954 0.0
C2276 C 0.22106 0.847 -0.00873 0.0
C2277 C 0.20143 0.89168 0.00773 0.0
N2278 N 0.258 0.8568 0.96433 0.0
N2279 N 0.22272 0.89331 -0.00285 0.0
H2280 H 0.58454 0.94639 0.7673 0.0
H2281 H 0.66637 0.04341 0.70747 0.0
H2282 H 0.66686 0.93355 0.75396 0.0
H2283 H 0.5806 0.03874 0.70661 0.0
H2284 H 0.66772 0.00381 0.7249 0.0
H2285 H 0.58438 0.98573 0.74886 0.0
C2286 C 0.60264 0.95205 0.7607 0.0
C2287 C 0.62528 0.93589 0.76129 0.0
C2288 C 0.64859 0.01139 0.72083 0.0
C2289 C 0.62519 0.98028 0.7404 0.0
C2290 C 0.64774 0.03387 0.71057 0.0
C2291 C 0.6232 0.04544 0.70645 0.0
C2292 C 0.6248 0.00072 0.72708 0.0
C2293 C 0.59991 0.03145 0.71051 0.0
C2294 C 0.60244 0.97426 0.75009 0.0
C2295 C 0.64867 0.9449 0.75345 0.0
N2296 N 0.6012 0.01013 0.7211 0.0
N2297 N 0.64787 0.9663 0.74299 0.0
H2298 H 0.68801 0.91621 0.45958 0.0
H2299 H 0.78896 0.829 0.51352 0.0
H2300 H 0.69594 0.83172 0.45248 0.0
H2301 H 0.79835 0.91332 0.50646 0.0
H2302 H 0.74983 0.83026 0.49463 0.0
H2303 H 0.7279 0.91617 0.47715 0.0
C2304 C 0.69846 0.89769 0.46131 0.0
C2305 C 0.68785 0.87367 0.45538 0.0
C2306 C 0.76052 0.84843 0.49733 0.0
C2307 C 0.73277 0.87344 0.47604 0.0
C2308 C 0.7826 0.84778 0.50819 0.0
C2309 C 0.79766 0.87085 0.51081 0.0
C2310 C 0.75353 0.87236 0.48936 0.0
C2311 C 0.78781 0.8949 0.50446 0.0
C2312 C 0.72105 0.89765 0.47162 0.0
C2313 C 0.70272 0.85045 0.45772 0.0
N2314 N 0.76657 0.89495 0.49374 0.0
N2315 N 0.72417 0.85074 0.46835 0.0
H2316 H 0.88803 0.06402 0.23455 0.0
H2317 H 0.82455 0.92124 0.22625 0.0
H2318 H 0.84337 0.02761 0.27596 0.0
H2319 H 0.8854 0.95166 0.19244 0.0
H2320 H 0.82376 0.96361 0.24166 0.0
H2321 H 0.8816 0.02525 0.21703 0.0
C2322 C 0.87741 0.0475 0.24018 0.0
C2323 C 0.86652 0.04884 0.25684 0.0
C2324 C 0.83702 0.9611 0.23074 0.0
C2325 C 0.85837 0.00451 0.23645 0.0
C2326 C 0.83733 0.93717 0.22193 0.0
C2327 C 0.8555 0.93322 0.2085 0.0
C2328 C 0.85492 0.98092 0.22588 0.0
C2329 C 0.87158 0.9541 0.20307 0.0
C2330 C 0.87337 0.02551 0.22999 0.0
C2331 C 0.85206 0.02721 0.26314 0.0
N2332 N 0.87107 0.97719 0.21194 0.0
N2333 N 0.84837 0.00568 0.25285 0.0
H2334 H 0.78847 0.15383 0.95473 0.0
H2335 H 0.68619 0.06664 0.00647 0.0
H2336 H 0.79643 0.06906 0.96052 0.0
H2337 H 0.69704 0.15044 0.01527 0.0
H2338 H 0.72539 0.06644 -0.01174 0.0
H2339 H 0.74934 0.1524 0.97338 0.0
C2340 C 0.78188 0.13492 0.95973 0.0
C2341 C 0.79677 0.11181 0.95702 0.0
C2342 C 0.71936 0.08483 -0.00567 0.0
C2343 C 0.7523 0.11006 0.97794 0.0
C2344 C 0.69723 0.0849 0.00498 0.0
C2345 C 0.68775 0.10888 0.01168 0.0
C2346 C 0.73176 0.1089 -0.00962 0.0
C2347 C 0.70312 0.1318 0.00957 0.0
C2348 C 0.75972 0.13418 0.97042 0.0
C2349 C 0.78627 0.0876 0.9627 0.0
N2350 N 0.72417 0.13142 -0.00132 0.0
N2351 N 0.76488 0.08743 0.97322 0.0
H2352 H 0.8886 0.53324 0.6934 0.0
H2353 H 0.84205 0.45491 0.7764 0.0
H2354 H 0.8214 0.55806 0.72389 0.0
H2355 H 0.88737 0.4191 0.73504 0.0
H2356 H 0.83483 0.49382 0.75789 0.0
H2357 H 0.88769 0.4903 0.70802 0.0
C2358 C 0.87348 0.52936 0.70304 0.0
C2359 C 0.85541 0.54903 0.70787 0.0
C2360 C 0.84628 0.47732 0.75295 0.0
C2361 C 0.85474 0.50093 0.72493 0.0
C2362 C 0.8506 0.45536 0.76353 0.0
C2363 C 0.8656 0.43399 0.75727 0.0
C2364 C 0.8572 0.4777 0.73618 0.0
C2365 C 0.87628 0.43541 0.74055 0.0
C2366 C 0.87292 0.505 0.71138 0.0
C2367 C 0.83584 0.54326 0.72013 0.0
N2368 N 0.87189 0.45688 0.73061 0.0
N2369 N 0.83634 0.51981 0.72859 0.0
H2370 H 0.78832 0.57392 0.01646 0.0
H2371 H 0.70227 0.64209 0.94452 0.0
H2372 H 0.79476 0.65722 0.00366 0.0
H2373 H 0.68072 0.56847 0.96903 0.0
H2374 H 0.74207 0.64416 0.96285 0.0
H2375 H 0.7496 0.57094 -0.00122 0.0
C2376 C 0.7821 0.59181 0.01007 0.0
C2377 C 0.79713 0.61537 0.01025 0.0
C2378 C 0.72865 0.62751 0.96407 0.0
C2379 C 0.75243 0.61135 -0.01056 0.0
C2380 C 0.70632 0.62612 0.95348 0.0
C2381 C 0.68791 0.60565 0.95591 0.0
C2382 C 0.7321 0.60832 0.97699 0.0
C2383 C 0.69423 0.58488 0.96711 0.0
C2384 C 0.75973 0.58981 -0.0003 0.0
C2385 C 0.78581 0.63785 0.00246 0.0
N2386 N 0.71561 0.58705 0.9776 0.0
N2387 N 0.76458 0.6351 -0.00819 0.0
H2388 H 0.67661 0.55261 0.2463 0.0
H2389 H 0.5856 0.42709 0.22849 0.0
H2390 H 0.61639 0.52321 0.28081 0.0
H2391 H 0.64689 0.45146 0.19256 0.0
H2392 H 0.5937 0.46582 0.24538 0.0
H2393 H 0.66743 0.51576 0.22647 0.0
C2394 C 0.66248 0.53754 0.25013 0.0
C2395 C 0.64725 0.54084 0.26514 0.0
C2396 C 0.60545 0.4628 0.2338 0.0
C2397 C 0.63567 0.49967 0.24228 0.0
C2398 C 0.60049 0.44063 0.22374 0.0
C2399 C 0.61646 0.43484 0.20927 0.0
C2400 C 0.62686 0.47929 0.22972 0.0
C2401 C 0.63514 0.45406 0.20416 0.0
C2402 C 0.65666 0.51701 0.23857 0.0
C2403 C 0.62872 0.52117 0.2694 0.0
N2404 N 0.64031 0.47519 0.21463 0.0
N2405 N 0.62306 0.50171 0.25783 0.0
H2406 H 0.77845 0.39318 0.44107 0.0
H2407 H 0.70183 0.34498 0.52433 0.0
H2408 H 0.81481 0.34711 0.48189 0.0
H2409 H 0.67579 0.4119 0.49415 0.0
H2410 H 0.74456 0.34634 0.50939 0.0
H2411 H 0.7395 0.39962 0.4598 0.0
C2412 C 0.7781 0.38429 0.45383 0.0
C2413 C 0.79964 0.36941 0.45991 0.0
C2414 C 0.72963 0.36097 0.50619 0.0
C2415 C 0.75609 0.3769 0.48118 0.0
C2416 C 0.70542 0.36014 0.5147 0.0
C2417 C 0.68546 0.37792 0.50998 0.0
C2418 C 0.73321 0.37918 0.49264 0.0
C2419 C 0.69084 0.39765 0.49781 0.0
C2420 C 0.75616 0.38815 0.46452 0.0
C2421 C 0.79838 0.35816 0.47647 0.0
N2422 N 0.71416 0.39743 0.48918 0.0
N2423 N 0.77698 0.36216 0.48651 0.0
H2424 H 0.10288 0.52873 0.19072 0.0
H2425 H 0.13846 0.45699 0.2781 0.0
H2426 H 0.15728 0.56239 0.22797 0.0
H2427 H 0.11103 0.415 0.23265 0.0
H2428 H 0.14583 0.49637 0.26004 0.0
H2429 H 0.10694 0.48582 0.20531 0.0
C2430 C 0.1158 0.52684 0.2019 0.0
C2431 C 0.12934 0.54877 0.20858 0.0
C2432 C 0.13836 0.47841 0.25408 0.0
C2433 C 0.13361 0.50079 0.22537 0.0
C2434 C 0.13392 0.45622 0.26437 0.0
C2435 C 0.12353 0.4332 0.25679 0.0
C2436 C 0.13223 0.47723 0.23629 0.0
C2437 C 0.11826 0.43275 0.239 0.0
C2438 C 0.11825 0.50253 0.21016 0.0
C2439 C 0.14629 0.5457 0.22278 0.0
N2440 N 0.12253 0.45451 0.22933 0.0
N2441 N 0.14759 0.52216 0.231 0.0
H2442 H 0.28601 0.33268 0.01752 0.0
H2443 H 0.19037 0.41363 0.95709 0.0
H2444 H 0.3013 0.41366 0.00266 0.0
H2445 H 0.19332 0.32807 0.95751 0.0
H2446 H 0.23047 0.41488 0.97429 0.0
H2447 H 0.24687 0.33255 -0.00137 0.0
C2448 C 0.28087 0.35052 0.0105 0.0
C2449 C 0.29753 0.37278 0.01093 0.0
C2450 C 0.22242 0.39582 0.97053 0.0
C2451 C 0.25352 0.37265 -0.01057 0.0
C2452 C 0.19964 0.39501 0.96043 0.0
C2453 C 0.18752 0.37061 0.95668 0.0
C2454 C 0.23278 0.37215 0.97706 0.0
C2455 C 0.20109 0.34731 0.96109 0.0
C2456 C 0.25883 0.35032 -0.00038 0.0
C2457 C 0.2894 0.39582 0.00237 0.0
N2458 N 0.22271 0.34861 0.97153 0.0
N2459 N 0.26815 0.39501 -0.00834 0.0
H2460 H 0.40983 0.54524 0.75064 0.0
H2461 H 0.31872 0.42673 0.72091 0.0
H2462 H 0.32869 0.53512 0.7681 0.0
H2463 H 0.38951 0.45046 0.69357 0.0
H2464 H 0.32057 0.4675 0.73762 0.0
H2465 H 0.40399 0.50759 0.73171 0.0
C2466 C 0.3905 0.53596 0.75028 0.0
C2467 C 0.36852 0.54632 0.75928 0.0
C2468 C 0.33545 0.46406 0.72775 0.0
C2469 C 0.36248 0.50195 0.73839 0.0
C2470 C 0.33418 0.44099 0.71805 0.0
C2471 C 0.35468 0.43497 0.70649 0.0
C2472 C 0.35745 0.48081 0.72583 0.0
C2473 C 0.37401 0.45415 0.70299 0.0
C2474 C 0.38735 0.5142 0.73947 0.0
C2475 C 0.34555 0.53035 0.76014 0.0
N2476 N 0.37533 0.47616 0.71298 0.0
N2477 N 0.34293 0.5093 0.74945 0.0
H2478 H 0.18789 0.56675 0.50858 0.0
H2479 H 0.28719 0.6517 0.45231 0.0
H2480 H 0.1958 0.65163 0.51362 0.0
H2481 H 0.29901 0.56831 0.46184 0.0
H2482 H 0.24843 0.65068 0.47137 0.0
H2483 H 0.22801 0.56587 0.49131 0.0
C2484 C 0.1983 0.5852 0.50643 0.0
C2485 C 0.18758 0.60956 0.51167 0.0
C2486 C 0.25957 0.63265 0.4692 0.0
C2487 C 0.23275 0.60862 0.49133 0.0
C2488 C 0.28141 0.63315 0.45823 0.0
C2489 C 0.29703 0.61039 0.45625 0.0
C2490 C 0.25335 0.60914 0.47795 0.0
C2491 C 0.28797 0.58652 0.46337 0.0
C2492 C 0.22105 0.58466 0.49631 0.0
C2493 C 0.20251 0.63261 0.50886 0.0
N2494 N 0.2669 0.58661 0.47421 0.0
N2495 N 0.22404 0.63172 0.49838 0.0
loop_
_geom_bond_atom_site_label_1
_geom_bond_atom_site_label_2
_geom_bond_distance
_geom_bond_site_symmetry_2
_ccdc_geom_bond_type
Co0 N4 2.148 . S
Co0 N10 2.128 . S
Co0 N20 2.194 . S
Co0 O25 2.351 . S
Co0 O26 2.155 . S
Co0 O27 2.096 . S
C1 N4 1.301 . S
C1 N5 1.328 . S
C1 H6 0.930 . S
C2 C3 1.333 . S
C2 N4 1.317 . S
C2 H7 0.930 . S
C3 C2 1.333 . S
C3 N5 1.350 . S
C3 H29 0.931 . S
N4 Co0 2.148 . S
N4 C1 1.301 . S
N4 C2 1.317 . S
N5 C1 1.328 . S
N5 C3 1.350 . S
H6 C1 0.930 . S
H7 C2 0.930 . S
C8 O9 1.224 . S
C8 O27 1.247 . S
O9 C8 1.224 . S
N10 Co0 2.128 . S
N10 C11 1.355 . S
N10 C13 1.311 . S
C11 N10 1.355 . S
C11 C12 1.363 . S
C11 H23 0.929 . S
C12 C11 1.363 . S
C12 N14 1.375 . S
C12 H30 0.931 . S
C13 N10 1.311 . S
C13 N14 1.347 . S
C13 H24 0.929 . S
N14 C12 1.375 . S
N14 C13 1.347 . S
C15 C18 1.365 . S
C15 N20 1.328 . S
C15 H21 0.929 . S
C16 C17 1.362 . S
C16 C19 1.378 . S
C16 H31 0.929 . S
C17 C16 1.362 . S
C17 C18 1.366 . S
C18 C15 1.365 . S
C18 C17 1.366 . S
C18 H32 0.930 . S
C19 C16 1.378 . S
C19 N20 1.315 . S
C19 H22 0.930 . S
N20 Co0 2.194 . S
N20 C15 1.328 . S
N20 C19 1.315 . S
H21 C15 0.929 . S
H22 C19 0.930 . S
H23 C11 0.929 . S
H24 C13 0.929 . S
O25 Co0 2.351 . S
O25 C28 1.244 . S
O26 Co0 2.155 . S
O26 C28 1.240 . S
O27 Co0 2.096 . S
O27 C8 1.247 . S
C28 O25 1.244 . S
C28 O26 1.240 . S
H29 C3 0.931 . S
H30 C12 0.931 . S
H31 C16 0.929 . S
H32 C18 0.930 . S
Co33 N37 2.148 . S
Co33 N43 2.128 . S
Co33 N53 2.194 . S
Co33 O58 2.351 . S
Co33 O59 2.155 . S
Co33 O60 2.096 . S
C34 N37 1.301 . S
C34 N38 1.328 . S
C34 H39 0.930 . S
C35 C36 1.333 . S
C35 N37 1.317 . S
C35 H40 0.930 . S
C36 C35 1.333 . S
C36 N38 1.350 . S
C36 H62 0.931 . S
N37 Co33 2.148 . S
N37 C34 1.301 . S
N37 C35 1.317 . S
N38 C34 1.328 . S
N38 C36 1.350 . S
H39 C34 0.930 . S
H40 C35 0.930 . S
C41 O42 1.224 . S
C41 O60 1.247 . S
O42 C41 1.224 . S
N43 Co33 2.128 . S
N43 C44 1.355 . S
N43 C46 1.311 . S
C44 N43 1.355 . S
C44 C45 1.363 . S
C44 H56 0.929 . S
C45 C44 1.363 . S
C45 N47 1.375 . S
C45 H63 0.931 . S
C46 N43 1.311 . S
C46 N47 1.347 . S
C46 H57 0.929 . S
N47 C45 1.375 . S
N47 C46 1.347 . S
C48 C51 1.365 . S
C48 N53 1.328 . S
C48 H54 0.929 . S
C49 C50 1.362 . S
C49 C52 1.378 . S
C49 H64 0.929 . S
C50 C49 1.362 . S
C50 C51 1.366 . S
C51 C48 1.365 . S
C51 C50 1.366 . S
C51 H65 0.930 . S
C52 C49 1.378 . S
C52 N53 1.315 . S
C52 H55 0.930 . S
N53 Co33 2.194 . S
N53 C48 1.328 . S
N53 C52 1.315 . S
H54 C48 0.929 . S
H55 C52 0.930 . S
H56 C44 0.929 . S
H57 C46 0.929 . S
O58 Co33 2.351 . S
O58 C61 1.244 . S
O59 Co33 2.155 . S
O59 C61 1.240 . S
O60 Co33 2.096 . S
O60 C41 1.247 . S
C61 O58 1.244 . S
C61 O59 1.240 . S
H62 C36 0.931 . S
H63 C45 0.931 . S
H64 C49 0.929 . S
H65 C51 0.930 . S
Co66 N70 2.148 . S
Co66 N76 2.128 . S
Co66 N86 2.194 . S
Co66 O91 2.351 . S
Co66 O92 2.155 . S
Co66 O93 2.096 . S
C67 N70 1.301 . S
C67 N71 1.328 . S
C67 H72 0.930 . S
C68 C69 1.333 . S
C68 N70 1.317 . S
C68 H73 0.930 . S
C69 C68 1.333 . S
C69 N71 1.350 . S
C69 H95 0.931 . S
N70 Co66 2.148 . S
N70 C67 1.301 . S
N70 C68 1.317 . S
N71 C67 1.328 . S
N71 C69 1.350 . S
H72 C67 0.930 . S
H73 C68 0.930 . S
C74 O75 1.224 . S
C74 O93 1.247 . S
O75 C74 1.224 . S
N76 Co66 2.128 . S
N76 C77 1.355 . S
N76 C79 1.311 . S
C77 N76 1.355 . S
C77 C78 1.363 . S
C77 H89 0.929 . S
C78 C77 1.363 . S
C78 N80 1.375 . S
C78 H96 0.931 . S
C79 N76 1.311 . S
C79 N80 1.347 . S
C79 H90 0.929 . S
N80 C78 1.375 . S
N80 C79 1.347 . S
C81 C84 1.365 . S
C81 N86 1.328 . S
C81 H87 0.929 . S
C82 C83 1.362 . S
C82 C85 1.378 . S
C82 H97 0.929 . S
C83 C82 1.362 . S
C83 C84 1.366 . S
C84 C81 1.365 . S
C84 C83 1.366 . S
C84 H98 0.930 . S
C85 C82 1.378 . S
C85 N86 1.315 . S
C85 H88 0.930 . S
N86 Co66 2.194 . S
N86 C81 1.328 . S
N86 C85 1.315 . S
H87 C81 0.929 . S
H88 C85 0.930 . S
H89 C77 0.929 . S
H90 C79 0.929 . S
O91 Co66 2.351 . S
O91 C94 1.244 . S
O92 Co66 2.155 . S
O92 C94 1.240 . S
O93 Co66 2.096 . S
O93 C74 1.247 . S
C94 O91 1.244 . S
C94 O92 1.240 . S
H95 C69 0.931 . S
H96 C78 0.931 . S
H97 C82 0.929 . S
H98 C84 0.930 . S
Co99 N103 2.148 . S
Co99 N109 2.128 . S
Co99 N119 2.194 . S
Co99 O124 2.351 . S
Co99 O125 2.155 . S
Co99 O126 2.096 . S
C100 N103 1.301 . S
C100 N104 1.328 . S
C100 H105 0.930 . S
C101 C102 1.333 . S
C101 N103 1.317 . S
C101 H106 0.930 . S
C102 C101 1.333 . S
C102 N104 1.350 . S
C102 H128 0.931 . S
N103 Co99 2.148 . S
N103 C100 1.301 . S
N103 C101 1.317 . S
N104 C100 1.328 . S
N104 C102 1.350 . S
H105 C100 0.930 . S
H106 C101 0.930 . S
C107 O108 1.224 . S
C107 O126 1.247 . S
O108 C107 1.224 . S
N109 Co99 2.128 . S
N109 C110 1.355 . S
N109 C112 1.311 . S
C110 N109 1.355 . S
C110 C111 1.363 . S
C110 H122 0.929 . S
C111 C110 1.363 . S
C111 N113 1.375 . S
C111 H129 0.931 . S
C112 N109 1.311 . S
C112 N113 1.347 . S
C112 H123 0.929 . S
N113 C111 1.375 . S
N113 C112 1.347 . S
C114 C117 1.365 . S
C114 N119 1.328 . S
C114 H120 0.929 . S
C115 C116 1.362 . S
C115 C118 1.378 . S
C115 H130 0.929 . S
C116 C115 1.362 . S
C116 C117 1.366 . S
C117 C114 1.365 . S
C117 C116 1.366 . S
C117 H131 0.930 . S
C118 C115 1.378 . S
C118 N119 1.315 . S
C118 H121 0.930 . S
N119 Co99 2.194 . S
N119 C114 1.328 . S
N119 C118 1.315 . S
H120 C114 0.929 . S
H121 C118 0.930 . S
H122 C110 0.929 . S
H123 C112 0.929 . S
O124 Co99 2.351 . S
O124 C127 1.244 . S
O125 Co99 2.155 . S
O125 C127 1.240 . S
O126 Co99 2.096 . S
O126 C107 1.247 . S
C127 O124 1.244 . S
C127 O125 1.240 . S
H128 C102 0.931 . S
H129 C111 0.931 . S
H130 C115 0.929 . S
H131 C117 0.930 . S
Co132 N136 2.148 . S
Co132 N142 2.128 . S
Co132 N152 2.194 . S
Co132 O157 2.351 . S
Co132 O158 2.155 . S
Co132 O159 2.096 . S
C133 N136 1.301 . S
C133 N137 1.328 . S
C133 H138 0.930 . S
C134 C135 1.333 . S
C134 N136 1.317 . S
C134 H139 0.930 . S
C135 C134 1.333 . S
C135 N137 1.350 . S
C135 H161 0.931 . S
N136 Co132 2.148 . S
N136 C133 1.301 . S
N136 C134 1.317 . S
N137 C133 1.328 . S
N137 C135 1.350 . S
H138 C133 0.930 . S
H139 C134 0.930 . S
C140 O141 1.224 . S
C140 O159 1.247 . S
O141 C140 1.224 . S
N142 Co132 2.128 . S
N142 C143 1.355 . S
N142 C145 1.311 . S
C143 N142 1.355 . S
C143 C144 1.363 . S
C143 H155 0.929 . S
C144 C143 1.363 . S
C144 N146 1.375 . S
C144 H162 0.931 . S
C145 N142 1.311 . S
C145 N146 1.347 . S
C145 H156 0.929 . S
N146 C144 1.375 . S
N146 C145 1.347 . S
C147 C150 1.365 . S
C147 N152 1.328 . S
C147 H153 0.929 . S
C148 C149 1.362 . S
C148 C151 1.378 . S
C148 H163 0.929 . S
C149 C148 1.362 . S
C149 C150 1.366 . S
C150 C147 1.365 . S
C150 C149 1.366 . S
C150 H164 0.930 . S
C151 C148 1.378 . S
C151 N152 1.315 . S
C151 H154 0.930 . S
N152 Co132 2.194 . S
N152 C147 1.328 . S
N152 C151 1.315 . S
H153 C147 0.929 . S
H154 C151 0.930 . S
H155 C143 0.929 . S
H156 C145 0.929 . S
O157 Co132 2.351 . S
O157 C160 1.244 . S
O158 Co132 2.155 . S
O158 C160 1.240 . S
O159 Co132 2.096 . S
O159 C140 1.247 . S
C160 O157 1.244 . S
C160 O158 1.240 . S
H161 C135 0.931 . S
H162 C144 0.931 . S
H163 C148 0.929 . S
H164 C150 0.930 . S
Co165 N169 2.148 . S
Co165 N175 2.128 . S
Co165 N185 2.194 . S
Co165 O190 2.351 . S
Co165 O191 2.155 . S
Co165 O192 2.096 . S
C166 N169 1.301 . S
C166 N170 1.328 . S
C166 H171 0.930 . S
C167 C168 1.333 . S
C167 N169 1.317 . S
C167 H172 0.930 . S
C168 C167 1.333 . S
C168 N170 1.350 . S
C168 H194 0.931 . S
N169 Co165 2.148 . S
N169 C166 1.301 . S
N169 C167 1.317 . S
N170 C166 1.328 . S
N170 C168 1.350 . S
H171 C166 0.930 . S
H172 C167 0.930 . S
C173 O174 1.224 . S
C173 O192 1.247 . S
O174 C173 1.224 . S
N175 Co165 2.128 . S
N175 C176 1.355 . S
N175 C178 1.311 . S
C176 N175 1.355 . S
C176 C177 1.363 . S
C176 H188 0.929 . S
C177 C176 1.363 . S
C177 N179 1.375 . S
C177 H195 0.931 . S
C178 N175 1.311 . S
C178 N179 1.347 . S
C178 H189 0.929 . S
N179 C177 1.375 . S
N179 C178 1.347 . S
C180 C183 1.365 . S
C180 N185 1.328 . S
C180 H186 0.929 . S
C181 C182 1.362 . S
C181 C184 1.378 . S
C181 H196 0.929 . S
C182 C181 1.362 . S
C182 C183 1.366 . S
C183 C180 1.365 . S
C183 C182 1.366 . S
C183 H197 0.930 . S
C184 C181 1.378 . S
C184 N185 1.315 . S
C184 H187 0.930 . S
N185 Co165 2.194 . S
N185 C180 1.328 . S
N185 C184 1.315 . S
H186 C180 0.929 . S
H187 C184 0.930 . S
H188 C176 0.929 . S
H189 C178 0.929 . S
O190 Co165 2.351 . S
O190 C193 1.244 . S
O191 Co165 2.155 . S
O191 C193 1.240 . S
O192 Co165 2.096 . S
O192 C173 1.247 . S
C193 O190 1.244 . S
C193 O191 1.240 . S
H194 C168 0.931 . S
H195 C177 0.931 . S
H196 C181 0.929 . S
H197 C183 0.930 . S
Co198 N202 2.148 . S
Co198 N208 2.128 . S
Co198 N218 2.194 . S
Co198 O223 2.351 . S
Co198 O224 2.155 . S
Co198 O225 2.096 . S
C199 N202 1.301 . S
C199 N203 1.328 . S
C199 H204 0.930 . S
C200 C201 1.333 . S
C200 N202 1.317 . S
C200 H205 0.930 . S
C201 C200 1.333 . S
C201 N203 1.350 . S
C201 H227 0.931 . S
N202 Co198 2.148 . S
N202 C199 1.301 . S
N202 C200 1.317 . S
N203 C199 1.328 . S
N203 C201 1.350 . S
H204 C199 0.930 . S
H205 C200 0.930 . S
C206 O207 1.224 . S
C206 O225 1.247 . S
O207 C206 1.224 . S
N208 Co198 2.128 . S
N208 C209 1.355 . S
N208 C211 1.311 . S
C209 N208 1.355 . S
C209 C210 1.363 . S
C209 H221 0.929 . S
C210 C209 1.363 . S
C210 N212 1.375 . S
C210 H228 0.931 . S
C211 N208 1.311 . S
C211 N212 1.347 . S
C211 H222 0.929 . S
N212 C210 1.375 . S
N212 C211 1.347 . S
C213 C216 1.365 . S
C213 N218 1.328 . S
C213 H219 0.929 . S
C214 C215 1.362 . S
C214 C217 1.378 . S
C214 H229 0.929 . S
C215 C214 1.362 . S
C215 C216 1.366 . S
C216 C213 1.365 . S
C216 C215 1.366 . S
C216 H230 0.930 . S
C217 C214 1.378 . S
C217 N218 1.315 . S
C217 H220 0.930 . S
N218 Co198 2.194 . S
N218 C213 1.328 . S
N218 C217 1.315 . S
H219 C213 0.929 . S
H220 C217 0.930 . S
H221 C209 0.929 . S
H222 C211 0.929 . S
O223 Co198 2.351 . S
O223 C226 1.244 . S
O224 Co198 2.155 . S
O224 C226 1.240 . S
O225 Co198 2.096 . S
O225 C206 1.247 . S
C226 O223 1.244 . S
C226 O224 1.240 . S
H227 C201 0.931 . S
H228 C210 0.931 . S
H229 C214 0.929 . S
H230 C216 0.930 . S
Co231 N235 2.148 . S
Co231 N241 2.128 . S
Co231 N251 2.194 . S
Co231 O256 2.351 . S
Co231 O257 2.155 . S
Co231 O258 2.096 . S
C232 N235 1.301 . S
C232 N236 1.328 . S
C232 H237 0.930 . S
C233 C234 1.333 . S
C233 N235 1.317 . S
C233 H238 0.930 . S
C234 C233 1.333 . S
C234 N236 1.350 . S
C234 H260 0.931 . S
N235 Co231 2.148 . S
N235 C232 1.301 . S
N235 C233 1.317 . S
N236 C232 1.328 . S
N236 C234 1.350 . S
H237 C232 0.930 . S
H238 C233 0.930 . S
C239 O240 1.224 . S
C239 O258 1.247 . S
O240 C239 1.224 . S
N241 Co231 2.128 . S
N241 C242 1.355 . S
N241 C244 1.311 . S
C242 N241 1.355 . S
C242 C243 1.363 . S
C242 H254 0.929 . S
C243 C242 1.363 . S
C243 N245 1.375 . S
C243 H261 0.931 . S
C244 N241 1.311 . S
C244 N245 1.347 . S
C244 H255 0.929 . S
N245 C243 1.375 . S
N245 C244 1.347 . S
C246 C249 1.365 . S
C246 N251 1.328 . S
C246 H252 0.929 . S
C247 C248 1.362 . S
C247 C250 1.378 . S
C247 H262 0.929 . S
C248 C247 1.362 . S
C248 C249 1.366 . S
C249 C246 1.365 . S
C249 C248 1.366 . S
C249 H263 0.930 . S
C250 C247 1.378 . S
C250 N251 1.315 . S
C250 H253 0.930 . S
N251 Co231 2.194 . S
N251 C246 1.328 . S
N251 C250 1.315 . S
H252 C246 0.929 . S
H253 C250 0.930 . S
H254 C242 0.929 . S
H255 C244 0.929 . S
O256 Co231 2.351 . S
O256 C259 1.244 . S
O257 Co231 2.155 . S
O257 C259 1.240 . S
O258 Co231 2.096 . S
O258 C239 1.247 . S
C259 O256 1.244 . S
C259 O257 1.240 . S
H260 C234 0.931 . S
H261 C243 0.931 . S
H262 C247 0.929 . S
H263 C249 0.930 . S
Co264 N268 2.148 . S
Co264 N274 2.128 . S
Co264 N284 2.194 . S
Co264 O289 2.351 . S
Co264 O290 2.155 . S
Co264 O291 2.096 . S
C265 N268 1.301 . S
C265 N269 1.328 . S
C265 H270 0.930 . S
C266 C267 1.333 . S
C266 N268 1.317 . S
C266 H271 0.930 . S
C267 C266 1.333 . S
C267 N269 1.350 . S
C267 H293 0.931 . S
N268 Co264 2.148 . S
N268 C265 1.301 . S
N268 C266 1.317 . S
N269 C265 1.328 . S
N269 C267 1.350 . S
H270 C265 0.930 . S
H271 C266 0.930 . S
C272 O273 1.224 . S
C272 O291 1.247 . S
O273 C272 1.224 . S
N274 Co264 2.128 . S
N274 C275 1.355 . S
N274 C277 1.311 . S
C275 N274 1.355 . S
C275 C276 1.363 . S
C275 H287 0.929 . S
C276 C275 1.363 . S
C276 N278 1.375 . S
C276 H294 0.931 . S
C277 N274 1.311 . S
C277 N278 1.347 . S
C277 H288 0.929 . S
N278 C276 1.375 . S
N278 C277 1.347 . S
C279 C282 1.365 . S
C279 N284 1.328 . S
C279 H285 0.929 . S
C280 C281 1.362 . S
C280 C283 1.378 . S
C280 H295 0.929 . S
C281 C280 1.362 . S
C281 C282 1.366 . S
C282 C279 1.365 . S
C282 C281 1.366 . S
C282 H296 0.930 . S
C283 C280 1.378 . S
C283 N284 1.315 . S
C283 H286 0.930 . S
N284 Co264 2.194 . S
N284 C279 1.328 . S
N284 C283 1.315 . S
H285 C279 0.929 . S
H286 C283 0.930 . S
H287 C275 0.929 . S
H288 C277 0.929 . S
O289 Co264 2.351 . S
O289 C292 1.244 . S
O290 Co264 2.155 . S
O290 C292 1.240 . S
O291 Co264 2.096 . S
O291 C272 1.247 . S
C292 O289 1.244 . S
C292 O290 1.240 . S
H293 C267 0.931 . S
H294 C276 0.931 . S
H295 C280 0.929 . S
H296 C282 0.930 . S
Co297 N301 2.148 . S
Co297 N307 2.128 . S
Co297 N317 2.194 . S
Co297 O322 2.351 . S
Co297 O323 2.155 . S
Co297 O324 2.096 . S
C298 N301 1.301 . S
C298 N302 1.328 . S
C298 H303 0.930 . S
C299 C300 1.333 . S
C299 N301 1.317 . S
C299 H304 0.930 . S
C300 C299 1.333 . S
C300 N302 1.350 . S
C300 H326 0.931 . S
N301 Co297 2.148 . S
N301 C298 1.301 . S
N301 C299 1.317 . S
N302 C298 1.328 . S
N302 C300 1.350 . S
H303 C298 0.930 . S
H304 C299 0.930 . S
C305 O306 1.224 . S
C305 O324 1.247 . S
O306 C305 1.224 . S
N307 Co297 2.128 . S
N307 C308 1.355 . S
N307 C310 1.311 . S
C308 N307 1.355 . S
C308 C309 1.363 . S
C308 H320 0.929 . S
C309 C308 1.363 . S
C309 N311 1.375 . S
C309 H327 0.931 . S
C310 N307 1.311 . S
C310 N311 1.347 . S
C310 H321 0.929 . S
N311 C309 1.375 . S
N311 C310 1.347 . S
C312 C315 1.365 . S
C312 N317 1.328 . S
C312 H318 0.929 . S
C313 C314 1.362 . S
C313 C316 1.378 . S
C313 H328 0.929 . S
C314 C313 1.362 . S
C314 C315 1.366 . S
C315 C312 1.365 . S
C315 C314 1.366 . S
C315 H329 0.930 . S
C316 C313 1.378 . S
C316 N317 1.315 . S
C316 H319 0.930 . S
N317 Co297 2.194 . S
N317 C312 1.328 . S
N317 C316 1.315 . S
H318 C312 0.929 . S
H319 C316 0.930 . S
H320 C308 0.929 . S
H321 C310 0.929 . S
O322 Co297 2.351 . S
O322 C325 1.244 . S
O323 Co297 2.155 . S
O323 C325 1.240 . S
O324 Co297 2.096 . S
O324 C305 1.247 . S
C325 O322 1.244 . S
C325 O323 1.240 . S
H326 C300 0.931 . S
H327 C309 0.931 . S
H328 C313 0.929 . S
H329 C315 0.930 . S
Co330 N334 2.148 . S
Co330 N340 2.128 . S
Co330 N350 2.194 . S
Co330 O355 2.351 . S
Co330 O356 2.155 . S
Co330 O357 2.096 . S
C331 N334 1.301 . S
C331 N335 1.328 . S
C331 H336 0.930 . S
C332 C333 1.333 . S
C332 N334 1.317 . S
C332 H337 0.930 . S
C333 C332 1.333 . S
C333 N335 1.350 . S
C333 H359 0.931 . S
N334 Co330 2.148 . S
N334 C331 1.301 . S
N334 C332 1.317 . S
N335 C331 1.328 . S
N335 C333 1.350 . S
H336 C331 0.930 . S
H337 C332 0.930 . S
C338 O339 1.224 . S
C338 O357 1.247 . S
O339 C338 1.224 . S
N340 Co330 2.128 . S
N340 C341 1.355 . S
N340 C343 1.311 . S
C341 N340 1.355 . S
C341 C342 1.363 . S
C341 H353 0.929 . S
C342 C341 1.363 . S
C342 N344 1.375 . S
C342 H360 0.931 . S
C343 N340 1.311 . S
C343 N344 1.347 . S
C343 H354 0.929 . S
N344 C342 1.375 . S
N344 C343 1.347 . S
C345 C348 1.365 . S
C345 N350 1.328 . S
C345 H351 0.929 . S
C346 C347 1.362 . S
C346 C349 1.378 . S
C346 H361 0.929 . S
C347 C346 1.362 . S
C347 C348 1.366 . S
C348 C345 1.365 . S
C348 C347 1.366 . S
C348 H362 0.930 . S
C349 C346 1.378 . S
C349 N350 1.315 . S
C349 H352 0.930 . S
N350 Co330 2.194 . S
N350 C345 1.328 . S
N350 C349 1.315 . S
H351 C345 0.929 . S
H352 C349 0.930 . S
H353 C341 0.929 . S
H354 C343 0.929 . S
O355 Co330 2.351 . S
O355 C358 1.244 . S
O356 Co330 2.155 . S
O356 C358 1.240 . S
O357 Co330 2.096 . S
O357 C338 1.247 . S
C358 O355 1.244 . S
C358 O356 1.240 . S
H359 C333 0.931 . S
H360 C342 0.931 . S
H361 C346 0.929 . S
H362 C348 0.930 . S
Co363 N367 2.148 . S
Co363 N373 2.128 . S
Co363 N383 2.194 . S
Co363 O388 2.351 . S
Co363 O389 2.155 . S
Co363 O390 2.096 . S
C364 N367 1.301 . S
C364 N368 1.328 . S
C364 H369 0.930 . S
C365 C366 1.333 . S
C365 N367 1.317 . S
C365 H370 0.930 . S
C366 C365 1.333 . S
C366 N368 1.350 . S
C366 H392 0.931 . S
N367 Co363 2.148 . S
N367 C364 1.301 . S
N367 C365 1.317 . S
N368 C364 1.328 . S
N368 C366 1.350 . S
H369 C364 0.930 . S
H370 C365 0.930 . S
C371 O372 1.224 . S
C371 O390 1.247 . S
O372 C371 1.224 . S
N373 Co363 2.128 . S
N373 C374 1.355 . S
N373 C376 1.311 . S
C374 N373 1.355 . S
C374 C375 1.363 . S
C374 H386 0.929 . S
C375 C374 1.363 . S
C375 N377 1.375 . S
C375 H393 0.931 . S
C376 N373 1.311 . S
C376 N377 1.347 . S
C376 H387 0.929 . S
N377 C375 1.375 . S
N377 C376 1.347 . S
C378 C381 1.365 . S
C378 N383 1.328 . S
C378 H384 0.929 . S
C379 C380 1.362 . S
C379 C382 1.378 . S
C379 H394 0.929 . S
C380 C379 1.362 . S
C380 C381 1.366 . S
C381 C378 1.365 . S
C381 C380 1.366 . S
C381 H395 0.930 . S
C382 C379 1.378 . S
C382 N383 1.315 . S
C382 H385 0.930 . S
N383 Co363 2.194 . S
N383 C378 1.328 . S
N383 C382 1.315 . S
H384 C378 0.929 . S
H385 C382 0.930 . S
H386 C374 0.929 . S
H387 C376 0.929 . S
O388 Co363 2.351 . S
O388 C391 1.244 . S
O389 Co363 2.155 . S
O389 C391 1.240 . S
O390 Co363 2.096 . S
O390 C371 1.247 . S
C391 O388 1.244 . S
C391 O389 1.240 . S
H392 C366 0.931 . S
H393 C375 0.931 . S
H394 C379 0.929 . S
H395 C381 0.930 . S
Co396 N400 2.148 . S
Co396 N406 2.128 . S
Co396 N416 2.194 . S
Co396 O421 2.351 . S
Co396 O422 2.155 . S
Co396 O423 2.096 . S
C397 N400 1.301 . S
C397 N401 1.328 . S
C397 H402 0.930 . S
C398 C399 1.333 . S
C398 N400 1.317 . S
C398 H403 0.930 . S
C399 C398 1.333 . S
C399 N401 1.350 . S
C399 H425 0.931 . S
N400 Co396 2.148 . S
N400 C397 1.301 . S
N400 C398 1.317 . S
N401 C397 1.328 . S
N401 C399 1.350 . S
H402 C397 0.930 . S
H403 C398 0.930 . S
C404 O405 1.224 . S
C404 O423 1.247 . S
O405 C404 1.224 . S
N406 Co396 2.128 . S
N406 C407 1.355 . S
N406 C409 1.311 . S
C407 N406 1.355 . S
C407 C408 1.363 . S
C407 H419 0.929 . S
C408 C407 1.363 . S
C408 N410 1.375 . S
C408 H426 0.931 . S
C409 N406 1.311 . S
C409 N410 1.347 . S
C409 H420 0.929 . S
N410 C408 1.375 . S
N410 C409 1.347 . S
C411 C414 1.365 . S
C411 N416 1.328 . S
C411 H417 0.929 . S
C412 C413 1.362 . S
C412 C415 1.378 . S
C412 H427 0.929 . S
C413 C412 1.362 . S
C413 C414 1.366 . S
C414 C411 1.365 . S
C414 C413 1.366 . S
C414 H428 0.930 . S
C415 C412 1.378 . S
C415 N416 1.315 . S
C415 H418 0.930 . S
N416 Co396 2.194 . S
N416 C411 1.328 . S
N416 C415 1.315 . S
H417 C411 0.929 . S
H418 C415 0.930 . S
H419 C407 0.929 . S
H420 C409 0.929 . S
O421 Co396 2.351 . S
O421 C424 1.244 . S
O422 Co396 2.155 . S
O422 C424 1.240 . S
O423 Co396 2.096 . S
O423 C404 1.247 . S
C424 O421 1.244 . S
C424 O422 1.240 . S
H425 C399 0.931 . S
H426 C408 0.931 . S
H427 C412 0.929 . S
H428 C414 0.930 . S
Co429 N433 2.148 . S
Co429 N439 2.128 . S
Co429 N449 2.194 . S
Co429 O454 2.351 . S
Co429 O455 2.155 . S
Co429 O456 2.096 . S
C430 N433 1.301 . S
C430 N434 1.328 . S
C430 H435 0.930 . S
C431 C432 1.333 . S
C431 N433 1.317 . S
C431 H436 0.930 . S
C432 C431 1.333 . S
C432 N434 1.350 . S
C432 H458 0.931 . S
N433 Co429 2.148 . S
N433 C430 1.301 . S
N433 C431 1.317 . S
N434 C430 1.328 . S
N434 C432 1.350 . S
H435 C430 0.930 . S
H436 C431 0.930 . S
C437 O438 1.224 . S
C437 O456 1.247 . S
O438 C437 1.224 . S
N439 Co429 2.128 . S
N439 C440 1.355 . S
N439 C442 1.311 . S
C440 N439 1.355 . S
C440 C441 1.363 . S
C440 H452 0.929 . S
C441 C440 1.363 . S
C441 N443 1.375 . S
C441 H459 0.931 . S
C442 N439 1.311 . S
C442 N443 1.347 . S
C442 H453 0.929 . S
N443 C441 1.375 . S
N443 C442 1.347 . S
C444 C447 1.365 . S
C444 N449 1.328 . S
C444 H450 0.929 . S
C445 C446 1.362 . S
C445 C448 1.378 . S
C445 H460 0.929 . S
C446 C445 1.362 . S
C446 C447 1.366 . S
C447 C444 1.365 . S
C447 C446 1.366 . S
C447 H461 0.930 . S
C448 C445 1.378 . S
C448 N449 1.315 . S
C448 H451 0.930 . S
N449 Co429 2.194 . S
N449 C444 1.328 . S
N449 C448 1.315 . S
H450 C444 0.929 . S
H451 C448 0.930 . S
H452 C440 0.929 . S
H453 C442 0.929 . S
O454 Co429 2.351 . S
O454 C457 1.244 . S
O455 Co429 2.155 . S
O455 C457 1.240 . S
O456 Co429 2.096 . S
O456 C437 1.247 . S
C457 O454 1.244 . S
C457 O455 1.240 . S
H458 C432 0.931 . S
H459 C441 0.931 . S
H460 C445 0.929 . S
H461 C447 0.930 . S
Co462 N466 2.148 . S
Co462 N472 2.128 . S
Co462 N482 2.194 . S
Co462 O487 2.351 . S
Co462 O488 2.155 . S
Co462 O489 2.096 . S
C463 N466 1.301 . S
C463 N467 1.328 . S
C463 H468 0.930 . S
C464 C465 1.333 . S
C464 N466 1.317 . S
C464 H469 0.930 . S
C465 C464 1.333 . S
C465 N467 1.350 . S
C465 H491 0.931 . S
N466 Co462 2.148 . S
N466 C463 1.301 . S
N466 C464 1.317 . S
N467 C463 1.328 . S
N467 C465 1.350 . S
H468 C463 0.930 . S
H469 C464 0.930 . S
C470 O471 1.224 . S
C470 O489 1.247 . S
O471 C470 1.224 . S
N472 Co462 2.128 . S
N472 C473 1.355 . S
N472 C475 1.311 . S
C473 N472 1.355 . S
C473 C474 1.363 . S
C473 H485 0.929 . S
C474 C473 1.363 . S
C474 N476 1.375 . S
C474 H492 0.931 . S
C475 N472 1.311 . S
C475 N476 1.347 . S
C475 H486 0.929 . S
N476 C474 1.375 . S
N476 C475 1.347 . S
C477 C480 1.365 . S
C477 N482 1.328 . S
C477 H483 0.929 . S
C478 C479 1.362 . S
C478 C481 1.378 . S
C478 H493 0.929 . S
C479 C478 1.362 . S
C479 C480 1.366 . S
C480 C477 1.365 . S
C480 C479 1.366 . S
C480 H494 0.930 . S
C481 C478 1.378 . S
C481 N482 1.315 . S
C481 H484 0.930 . S
N482 Co462 2.194 . S
N482 C477 1.328 . S
N482 C481 1.315 . S
H483 C477 0.929 . S
H484 C481 0.930 . S
H485 C473 0.929 . S
H486 C475 0.929 . S
O487 Co462 2.351 . S
O487 C490 1.244 . S
O488 Co462 2.155 . S
O488 C490 1.240 . S
O489 Co462 2.096 . S
O489 C470 1.247 . S
C490 O487 1.244 . S
C490 O488 1.240 . S
H491 C465 0.931 . S
H492 C474 0.931 . S
H493 C478 0.929 . S
H494 C480 0.930 . S
Co495 N499 2.148 . S
Co495 N505 2.128 . S
Co495 N515 2.194 . S
Co495 O520 2.351 . S
Co495 O521 2.155 . S
Co495 O522 2.096 . S
C496 N499 1.301 . S
C496 N500 1.328 . S
C496 H501 0.930 . S
C497 C498 1.333 . S
C497 N499 1.317 . S
C497 H502 0.930 . S
C498 C497 1.333 . S
C498 N500 1.350 . S
C498 H524 0.931 . S
N499 Co495 2.148 . S
N499 C496 1.301 . S
N499 C497 1.317 . S
N500 C496 1.328 . S
N500 C498 1.350 . S
H501 C496 0.930 . S
H502 C497 0.930 . S
C503 O504 1.224 . S
C503 O522 1.247 . S
O504 C503 1.224 . S
N505 Co495 2.128 . S
N505 C506 1.355 . S
N505 C508 1.311 . S
C506 N505 1.355 . S
C506 C507 1.363 . S
C506 H518 0.929 . S
C507 C506 1.363 . S
C507 N509 1.375 . S
C507 H525 0.931 . S
C508 N505 1.311 . S
C508 N509 1.347 . S
C508 H519 0.929 . S
N509 C507 1.375 . S
N509 C508 1.347 . S
C510 C513 1.365 . S
C510 N515 1.328 . S
C510 H516 0.929 . S
C511 C512 1.362 . S
C511 C514 1.378 . S
C511 H526 0.929 . S
C512 C511 1.362 . S
C512 C513 1.366 . S
C513 C510 1.365 . S
C513 C512 1.366 . S
C513 H527 0.930 . S
C514 C511 1.378 . S
C514 N515 1.315 . S
C514 H517 0.930 . S
N515 Co495 2.194 . S
N515 C510 1.328 . S
N515 C514 1.315 . S
H516 C510 0.929 . S
H517 C514 0.930 . S
H518 C506 0.929 . S
H519 C508 0.929 . S
O520 Co495 2.351 . S
O520 C523 1.244 . S
O521 Co495 2.155 . S
O521 C523 1.240 . S
O522 Co495 2.096 . S
O522 C503 1.247 . S
C523 O520 1.244 . S
C523 O521 1.240 . S
H524 C498 0.931 . S
H525 C507 0.931 . S
H526 C511 0.929 . S
H527 C513 0.930 . S
Co528 N532 2.148 . S
Co528 N538 2.128 . S
Co528 N548 2.194 . S
Co528 O553 2.351 . S
Co528 O554 2.155 . S
Co528 O555 2.096 . S
C529 N532 1.301 . S
C529 N533 1.328 . S
C529 H534 0.930 . S
C530 C531 1.333 . S
C530 N532 1.317 . S
C530 H535 0.930 . S
C531 C530 1.333 . S
C531 N533 1.350 . S
C531 H557 0.931 . S
N532 Co528 2.148 . S
N532 C529 1.301 . S
N532 C530 1.317 . S
N533 C529 1.328 . S
N533 C531 1.350 . S
H534 C529 0.930 . S
H535 C530 0.930 . S
C536 O537 1.224 . S
C536 O555 1.247 . S
O537 C536 1.224 . S
N538 Co528 2.128 . S
N538 C539 1.355 . S
N538 C541 1.311 . S
C539 N538 1.355 . S
C539 C540 1.363 . S
C539 H551 0.929 . S
C540 C539 1.363 . S
C540 N542 1.375 . S
C540 H558 0.931 . S
C541 N538 1.311 . S
C541 N542 1.347 . S
C541 H552 0.929 . S
N542 C540 1.375 . S
N542 C541 1.347 . S
C543 C546 1.365 . S
C543 N548 1.328 . S
C543 H549 0.929 . S
C544 C545 1.362 . S
C544 C547 1.378 . S
C544 H559 0.929 . S
C545 C544 1.362 . S
C545 C546 1.366 . S
C546 C543 1.365 . S
C546 C545 1.366 . S
C546 H560 0.930 . S
C547 C544 1.378 . S
C547 N548 1.315 . S
C547 H550 0.930 . S
N548 Co528 2.194 . S
N548 C543 1.328 . S
N548 C547 1.315 . S
H549 C543 0.929 . S
H550 C547 0.930 . S
H551 C539 0.929 . S
H552 C541 0.929 . S
O553 Co528 2.351 . S
O553 C556 1.244 . S
O554 Co528 2.155 . S
O554 C556 1.240 . S
O555 Co528 2.096 . S
O555 C536 1.247 . S
C556 O553 1.244 . S
C556 O554 1.240 . S
H557 C531 0.931 . S
H558 C540 0.931 . S
H559 C544 0.929 . S
H560 C546 0.930 . S
Co561 N565 2.148 . S
Co561 N571 2.128 . S
Co561 N581 2.194 . S
Co561 O586 2.351 . S
Co561 O587 2.155 . S
Co561 O588 2.096 . S
C562 N565 1.301 . S
C562 N566 1.328 . S
C562 H567 0.930 . S
C563 C564 1.333 . S
C563 N565 1.317 . S
C563 H568 0.930 . S
C564 C563 1.333 . S
C564 N566 1.350 . S
C564 H590 0.931 . S
N565 Co561 2.148 . S
N565 C562 1.301 . S
N565 C563 1.317 . S
N566 C562 1.328 . S
N566 C564 1.350 . S
H567 C562 0.930 . S
H568 C563 0.930 . S
C569 O570 1.224 . S
C569 O588 1.247 . S
O570 C569 1.224 . S
N571 Co561 2.128 . S
N571 C572 1.355 . S
N571 C574 1.311 . S
C572 N571 1.355 . S
C572 C573 1.363 . S
C572 H584 0.929 . S
C573 C572 1.363 . S
C573 N575 1.375 . S
C573 H591 0.931 . S
C574 N571 1.311 . S
C574 N575 1.347 . S
C574 H585 0.929 . S
N575 C573 1.375 . S
N575 C574 1.347 . S
C576 C579 1.365 . S
C576 N581 1.328 . S
C576 H582 0.929 . S
C577 C578 1.362 . S
C577 C580 1.378 . S
C577 H592 0.929 . S
C578 C577 1.362 . S
C578 C579 1.366 . S
C579 C576 1.365 . S
C579 C578 1.366 . S
C579 H593 0.930 . S
C580 C577 1.378 . S
C580 N581 1.315 . S
C580 H583 0.930 . S
N581 Co561 2.194 . S
N581 C576 1.328 . S
N581 C580 1.315 . S
H582 C576 0.929 . S
H583 C580 0.930 . S
H584 C572 0.929 . S
H585 C574 0.929 . S
O586 Co561 2.351 . S
O586 C589 1.244 . S
O587 Co561 2.155 . S
O587 C589 1.240 . S
O588 Co561 2.096 . S
O588 C569 1.247 . S
C589 O586 1.244 . S
C589 O587 1.240 . S
H590 C564 0.931 . S
H591 C573 0.931 . S
H592 C577 0.929 . S
H593 C579 0.930 . S
Co594 N598 2.148 . S
Co594 N604 2.128 . S
Co594 N614 2.194 . S
Co594 O619 2.351 . S
Co594 O620 2.155 . S
Co594 O621 2.096 . S
C595 N598 1.301 . S
C595 N599 1.328 . S
C595 H600 0.930 . S
C596 C597 1.333 . S
C596 N598 1.317 . S
C596 H601 0.930 . S
C597 C596 1.333 . S
C597 N599 1.350 . S
C597 H623 0.931 . S
N598 Co594 2.148 . S
N598 C595 1.301 . S
N598 C596 1.317 . S
N599 C595 1.328 . S
N599 C597 1.350 . S
H600 C595 0.930 . S
H601 C596 0.930 . S
C602 O603 1.224 . S
C602 O621 1.247 . S
O603 C602 1.224 . S
N604 Co594 2.128 . S
N604 C605 1.355 . S
N604 C607 1.311 . S
C605 N604 1.355 . S
C605 C606 1.363 . S
C605 H617 0.929 . S
C606 C605 1.363 . S
C606 N608 1.375 . S
C606 H624 0.931 . S
C607 N604 1.311 . S
C607 N608 1.347 . S
C607 H618 0.929 . S
N608 C606 1.375 . S
N608 C607 1.347 . S
C609 C612 1.365 . S
C609 N614 1.328 . S
C609 H615 0.929 . S
C610 C611 1.362 . S
C610 C613 1.378 . S
C610 H625 0.929 . S
C611 C610 1.362 . S
C611 C612 1.366 . S
C612 C609 1.365 . S
C612 C611 1.366 . S
C612 H626 0.930 . S
C613 C610 1.378 . S
C613 N614 1.315 . S
C613 H616 0.930 . S
N614 Co594 2.194 . S
N614 C609 1.328 . S
N614 C613 1.315 . S
H615 C609 0.929 . S
H616 C613 0.930 . S
H617 C605 0.929 . S
H618 C607 0.929 . S
O619 Co594 2.351 . S
O619 C622 1.244 . S
O620 Co594 2.155 . S
O620 C622 1.240 . S
O621 Co594 2.096 . S
O621 C602 1.247 . S
C622 O619 1.244 . S
C622 O620 1.240 . S
H623 C597 0.931 . S
H624 C606 0.931 . S
H625 C610 0.929 . S
H626 C612 0.930 . S
Co627 N631 2.148 . S
Co627 N637 2.128 . S
Co627 N647 2.194 . S
Co627 O652 2.351 . S
Co627 O653 2.155 . S
Co627 O654 2.096 . S
C628 N631 1.301 . S
C628 N632 1.328 . S
C628 H633 0.930 . S
C629 C630 1.333 . S
C629 N631 1.317 . S
C629 H634 0.930 . S
C630 C629 1.333 . S
C630 N632 1.350 . S
C630 H656 0.931 . S
N631 Co627 2.148 . S
N631 C628 1.301 . S
N631 C629 1.317 . S
N632 C628 1.328 . S
N632 C630 1.350 . S
H633 C628 0.930 . S
H634 C629 0.930 . S
C635 O636 1.224 . S
C635 O654 1.247 . S
O636 C635 1.224 . S
N637 Co627 2.128 . S
N637 C638 1.355 . S
N637 C640 1.311 . S
C638 N637 1.355 . S
C638 C639 1.363 . S
C638 H650 0.929 . S
C639 C638 1.363 . S
C639 N641 1.375 . S
C639 H657 0.931 . S
C640 N637 1.311 . S
C640 N641 1.347 . S
C640 H651 0.929 . S
N641 C639 1.375 . S
N641 C640 1.347 . S
C642 C645 1.365 . S
C642 N647 1.328 . S
C642 H648 0.929 . S
C643 C644 1.362 . S
C643 C646 1.378 . S
C643 H658 0.929 . S
C644 C643 1.362 . S
C644 C645 1.366 . S
C645 C642 1.365 . S
C645 C644 1.366 . S
C645 H659 0.930 . S
C646 C643 1.378 . S
C646 N647 1.315 . S
C646 H649 0.930 . S
N647 Co627 2.194 . S
N647 C642 1.328 . S
N647 C646 1.315 . S
H648 C642 0.929 . S
H649 C646 0.930 . S
H650 C638 0.929 . S
H651 C640 0.929 . S
O652 Co627 2.351 . S
O652 C655 1.244 . S
O653 Co627 2.155 . S
O653 C655 1.240 . S
O654 Co627 2.096 . S
O654 C635 1.247 . S
C655 O652 1.244 . S
C655 O653 1.240 . S
H656 C630 0.931 . S
H657 C639 0.931 . S
H658 C643 0.929 . S
H659 C645 0.930 . S
Co660 N664 2.148 . S
Co660 N670 2.128 . S
Co660 N680 2.194 . S
Co660 O685 2.351 . S
Co660 O686 2.155 . S
Co660 O687 2.096 . S
C661 N664 1.301 . S
C661 N665 1.328 . S
C661 H666 0.930 . S
C662 C663 1.333 . S
C662 N664 1.317 . S
C662 H667 0.930 . S
C663 C662 1.333 . S
C663 N665 1.350 . S
C663 H689 0.931 . S
N664 Co660 2.148 . S
N664 C661 1.301 . S
N664 C662 1.317 . S
N665 C661 1.328 . S
N665 C663 1.350 . S
H666 C661 0.930 . S
H667 C662 0.930 . S
C668 O669 1.224 . S
C668 O687 1.247 . S
O669 C668 1.224 . S
N670 Co660 2.128 . S
N670 C671 1.355 . S
N670 C673 1.311 . S
C671 N670 1.355 . S
C671 C672 1.363 . S
C671 H683 0.929 . S
C672 C671 1.363 . S
C672 N674 1.375 . S
C672 H690 0.931 . S
C673 N670 1.311 . S
C673 N674 1.347 . S
C673 H684 0.929 . S
N674 C672 1.375 . S
N674 C673 1.347 . S
C675 C678 1.365 . S
C675 N680 1.328 . S
C675 H681 0.929 . S
C676 C677 1.362 . S
C676 C679 1.378 . S
C676 H691 0.929 . S
C677 C676 1.362 . S
C677 C678 1.366 . S
C678 C675 1.365 . S
C678 C677 1.366 . S
C678 H692 0.930 . S
C679 C676 1.378 . S
C679 N680 1.315 . S
C679 H682 0.930 . S
N680 Co660 2.194 . S
N680 C675 1.328 . S
N680 C679 1.315 . S
H681 C675 0.929 . S
H682 C679 0.930 . S
H683 C671 0.929 . S
H684 C673 0.929 . S
O685 Co660 2.351 . S
O685 C688 1.244 . S
O686 Co660 2.155 . S
O686 C688 1.240 . S
O687 Co660 2.096 . S
O687 C668 1.247 . S
C688 O685 1.244 . S
C688 O686 1.240 . S
H689 C663 0.931 . S
H690 C672 0.931 . S
H691 C676 0.929 . S
H692 C678 0.930 . S
Co693 N697 2.148 . S
Co693 N703 2.128 . S
Co693 N713 2.194 . S
Co693 O718 2.351 . S
Co693 O719 2.155 . S
Co693 O720 2.096 . S
C694 N697 1.301 . S
C694 N698 1.328 . S
C694 H699 0.930 . S
C695 C696 1.333 . S
C695 N697 1.317 . S
C695 H700 0.930 . S
C696 C695 1.333 . S
C696 N698 1.350 . S
C696 H722 0.931 . S
N697 Co693 2.148 . S
N697 C694 1.301 . S
N697 C695 1.317 . S
N698 C694 1.328 . S
N698 C696 1.350 . S
H699 C694 0.930 . S
H700 C695 0.930 . S
C701 O702 1.224 . S
C701 O720 1.247 . S
O702 C701 1.224 . S
N703 Co693 2.128 . S
N703 C704 1.355 . S
N703 C706 1.311 . S
C704 N703 1.355 . S
C704 C705 1.363 . S
C704 H716 0.929 . S
C705 C704 1.363 . S
C705 N707 1.375 . S
C705 H723 0.931 . S
C706 N703 1.311 . S
C706 N707 1.347 . S
C706 H717 0.929 . S
N707 C705 1.375 . S
N707 C706 1.347 . S
C708 C711 1.365 . S
C708 N713 1.328 . S
C708 H714 0.929 . S
C709 C710 1.362 . S
C709 C712 1.378 . S
C709 H724 0.929 . S
C710 C709 1.362 . S
C710 C711 1.366 . S
C711 C708 1.365 . S
C711 C710 1.366 . S
C711 H725 0.930 . S
C712 C709 1.378 . S
C712 N713 1.315 . S
C712 H715 0.930 . S
N713 Co693 2.194 . S
N713 C708 1.328 . S
N713 C712 1.315 . S
H714 C708 0.929 . S
H715 C712 0.930 . S
H716 C704 0.929 . S
H717 C706 0.929 . S
O718 Co693 2.351 . S
O718 C721 1.244 . S
O719 Co693 2.155 . S
O719 C721 1.240 . S
O720 Co693 2.096 . S
O720 C701 1.247 . S
C721 O718 1.244 . S
C721 O719 1.240 . S
H722 C696 0.931 . S
H723 C705 0.931 . S
H724 C709 0.929 . S
H725 C711 0.930 . S
Co726 N730 2.148 . S
Co726 N736 2.128 . S
Co726 N746 2.194 . S
Co726 O751 2.351 . S
Co726 O752 2.155 . S
Co726 O753 2.096 . S
C727 N730 1.301 . S
C727 N731 1.328 . S
C727 H732 0.930 . S
C728 C729 1.333 . S
C728 N730 1.317 . S
C728 H733 0.930 . S
C729 C728 1.333 . S
C729 N731 1.350 . S
C729 H755 0.931 . S
N730 Co726 2.148 . S
N730 C727 1.301 . S
N730 C728 1.317 . S
N731 C727 1.328 . S
N731 C729 1.350 . S
H732 C727 0.930 . S
H733 C728 0.930 . S
C734 O735 1.224 . S
C734 O753 1.247 . S
O735 C734 1.224 . S
N736 Co726 2.128 . S
N736 C737 1.355 . S
N736 C739 1.311 . S
C737 N736 1.355 . S
C737 C738 1.363 . S
C737 H749 0.929 . S
C738 C737 1.363 . S
C738 N740 1.375 . S
C738 H756 0.931 . S
C739 N736 1.311 . S
C739 N740 1.347 . S
C739 H750 0.929 . S
N740 C738 1.375 . S
N740 C739 1.347 . S
C741 C744 1.365 . S
C741 N746 1.328 . S
C741 H747 0.929 . S
C742 C743 1.362 . S
C742 C745 1.378 . S
C742 H757 0.929 . S
C743 C742 1.362 . S
C743 C744 1.366 . S
C744 C741 1.365 . S
C744 C743 1.366 . S
C744 H758 0.930 . S
C745 C742 1.378 . S
C745 N746 1.315 . S
C745 H748 0.930 . S
N746 Co726 2.194 . S
N746 C741 1.328 . S
N746 C745 1.315 . S
H747 C741 0.929 . S
H748 C745 0.930 . S
H749 C737 0.929 . S
H750 C739 0.929 . S
O751 Co726 2.351 . S
O751 C754 1.244 . S
O752 Co726 2.155 . S
O752 C754 1.240 . S
O753 Co726 2.096 . S
O753 C734 1.247 . S
C754 O751 1.244 . S
C754 O752 1.240 . S
H755 C729 0.931 . S
H756 C738 0.931 . S
H757 C742 0.929 . S
H758 C744 0.930 . S
Co759 N763 2.148 . S
Co759 N769 2.128 . S
Co759 N779 2.194 . S
Co759 O784 2.351 . S
Co759 O785 2.155 . S
Co759 O786 2.096 . S
C760 N763 1.301 . S
C760 N764 1.328 . S
C760 H765 0.930 . S
C761 C762 1.333 . S
C761 N763 1.317 . S
C761 H766 0.930 . S
C762 C761 1.333 . S
C762 N764 1.350 . S
C762 H788 0.931 . S
N763 Co759 2.148 . S
N763 C760 1.301 . S
N763 C761 1.317 . S
N764 C760 1.328 . S
N764 C762 1.350 . S
H765 C760 0.930 . S
H766 C761 0.930 . S
C767 O768 1.224 . S
C767 O786 1.247 . S
O768 C767 1.224 . S
N769 Co759 2.128 . S
N769 C770 1.355 . S
N769 C772 1.311 . S
C770 N769 1.355 . S
C770 C771 1.363 . S
C770 H782 0.929 . S
C771 C770 1.363 . S
C771 N773 1.375 . S
C771 H789 0.931 . S
C772 N769 1.311 . S
C772 N773 1.347 . S
C772 H783 0.929 . S
N773 C771 1.375 . S
N773 C772 1.347 . S
C774 C777 1.365 . S
C774 N779 1.328 . S
C774 H780 0.929 . S
C775 C776 1.362 . S
C775 C778 1.378 . S
C775 H790 0.929 . S
C776 C775 1.362 . S
C776 C777 1.366 . S
C777 C774 1.365 . S
C777 C776 1.366 . S
C777 H791 0.930 . S
C778 C775 1.378 . S
C778 N779 1.315 . S
C778 H781 0.930 . S
N779 Co759 2.194 . S
N779 C774 1.328 . S
N779 C778 1.315 . S
H780 C774 0.929 . S
H781 C778 0.930 . S
H782 C770 0.929 . S
H783 C772 0.929 . S
O784 Co759 2.351 . S
O784 C787 1.244 . S
O785 Co759 2.155 . S
O785 C787 1.240 . S
O786 Co759 2.096 . S
O786 C767 1.247 . S
C787 O784 1.244 . S
C787 O785 1.240 . S
H788 C762 0.931 . S
H789 C771 0.931 . S
H790 C775 0.929 . S
H791 C777 0.930 . S
Co792 N796 2.148 . S
Co792 N802 2.128 . S
Co792 N812 2.194 . S
Co792 O817 2.351 . S
Co792 O818 2.155 . S
Co792 O819 2.096 . S
C793 N796 1.301 . S
C793 N797 1.328 . S
C793 H798 0.930 . S
C794 C795 1.333 . S
C794 N796 1.317 . S
C794 H799 0.930 . S
C795 C794 1.333 . S
C795 N797 1.350 . S
C795 H821 0.931 . S
N796 Co792 2.148 . S
N796 C793 1.301 . S
N796 C794 1.317 . S
N797 C793 1.328 . S
N797 C795 1.350 . S
H798 C793 0.930 . S
H799 C794 0.930 . S
C800 O801 1.224 . S
C800 O819 1.247 . S
O801 C800 1.224 . S
N802 Co792 2.128 . S
N802 C803 1.355 . S
N802 C805 1.311 . S
C803 N802 1.355 . S
C803 C804 1.363 . S
C803 H815 0.929 . S
C804 C803 1.363 . S
C804 N806 1.375 . S
C804 H822 0.931 . S
C805 N802 1.311 . S
C805 N806 1.347 . S
C805 H816 0.929 . S
N806 C804 1.375 . S
N806 C805 1.347 . S
C807 C810 1.365 . S
C807 N812 1.328 . S
C807 H813 0.929 . S
C808 C809 1.362 . S
C808 C811 1.378 . S
C808 H823 0.929 . S
C809 C808 1.362 . S
C809 C810 1.366 . S
C810 C807 1.365 . S
C810 C809 1.366 . S
C810 H824 0.930 . S
C811 C808 1.378 . S
C811 N812 1.315 . S
C811 H814 0.930 . S
N812 Co792 2.194 . S
N812 C807 1.328 . S
N812 C811 1.315 . S
H813 C807 0.929 . S
H814 C811 0.930 . S
H815 C803 0.929 . S
H816 C805 0.929 . S
O817 Co792 2.351 . S
O817 C820 1.244 . S
O818 Co792 2.155 . S
O818 C820 1.240 . S
O819 Co792 2.096 . S
O819 C800 1.247 . S
C820 O817 1.244 . S
C820 O818 1.240 . S
H821 C795 0.931 . S
H822 C804 0.931 . S
H823 C808 0.929 . S
H824 C810 0.930 . S
Co825 N829 2.148 . S
Co825 N835 2.128 . S
Co825 N845 2.194 . S
Co825 O850 2.351 . S
Co825 O851 2.155 . S
Co825 O852 2.096 . S
C826 N829 1.301 . S
C826 N830 1.328 . S
C826 H831 0.930 . S
C827 C828 1.333 . S
C827 N829 1.317 . S
C827 H832 0.930 . S
C828 C827 1.333 . S
C828 N830 1.350 . S
C828 H854 0.931 . S
N829 Co825 2.148 . S
N829 C826 1.301 . S
N829 C827 1.317 . S
N830 C826 1.328 . S
N830 C828 1.350 . S
H831 C826 0.930 . S
H832 C827 0.930 . S
C833 O834 1.224 . S
C833 O852 1.247 . S
O834 C833 1.224 . S
N835 Co825 2.128 . S
N835 C836 1.355 . S
N835 C838 1.311 . S
C836 N835 1.355 . S
C836 C837 1.363 . S
C836 H848 0.929 . S
C837 C836 1.363 . S
C837 N839 1.375 . S
C837 H855 0.931 . S
C838 N835 1.311 . S
C838 N839 1.347 . S
C838 H849 0.929 . S
N839 C837 1.375 . S
N839 C838 1.347 . S
C840 C843 1.365 . S
C840 N845 1.328 . S
C840 H846 0.929 . S
C841 C842 1.362 . S
C841 C844 1.378 . S
C841 H856 0.929 . S
C842 C841 1.362 . S
C842 C843 1.366 . S
C843 C840 1.365 . S
C843 C842 1.366 . S
C843 H857 0.930 . S
C844 C841 1.378 . S
C844 N845 1.315 . S
C844 H847 0.930 . S
N845 Co825 2.194 . S
N845 C840 1.328 . S
N845 C844 1.315 . S
H846 C840 0.929 . S
H847 C844 0.930 . S
H848 C836 0.929 . S
H849 C838 0.929 . S
O850 Co825 2.351 . S
O850 C853 1.244 . S
O851 Co825 2.155 . S
O851 C853 1.240 . S
O852 Co825 2.096 . S
O852 C833 1.247 . S
C853 O850 1.244 . S
C853 O851 1.240 . S
H854 C828 0.931 . S
H855 C837 0.931 . S
H856 C841 0.929 . S
H857 C843 0.930 . S
Co858 N862 2.148 . S
Co858 N868 2.128 . S
Co858 N878 2.194 . S
Co858 O883 2.351 . S
Co858 O884 2.155 . S
Co858 O885 2.096 . S
C859 N862 1.301 . S
C859 N863 1.328 . S
C859 H864 0.930 . S
C860 C861 1.333 . S
C860 N862 1.317 . S
C860 H865 0.930 . S
C861 C860 1.333 . S
C861 N863 1.350 . S
C861 H887 0.931 . S
N862 Co858 2.148 . S
N862 C859 1.301 . S
N862 C860 1.317 . S
N863 C859 1.328 . S
N863 C861 1.350 . S
H864 C859 0.930 . S
H865 C860 0.930 . S
C866 O867 1.224 . S
C866 O885 1.247 . S
O867 C866 1.224 . S
N868 Co858 2.128 . S
N868 C869 1.355 . S
N868 C871 1.311 . S
C869 N868 1.355 . S
C869 C870 1.363 . S
C869 H881 0.929 . S
C870 C869 1.363 . S
C870 N872 1.375 . S
C870 H888 0.931 . S
C871 N868 1.311 . S
C871 N872 1.347 . S
C871 H882 0.929 . S
N872 C870 1.375 . S
N872 C871 1.347 . S
C873 C876 1.365 . S
C873 N878 1.328 . S
C873 H879 0.929 . S
C874 C875 1.362 . S
C874 C877 1.378 . S
C874 H889 0.929 . S
C875 C874 1.362 . S
C875 C876 1.366 . S
C876 C873 1.365 . S
C876 C875 1.366 . S
C876 H890 0.930 . S
C877 C874 1.378 . S
C877 N878 1.315 . S
C877 H880 0.930 . S
N878 Co858 2.194 . S
N878 C873 1.328 . S
N878 C877 1.315 . S
H879 C873 0.929 . S
H880 C877 0.930 . S
H881 C869 0.929 . S
H882 C871 0.929 . S
O883 Co858 2.351 . S
O883 C886 1.244 . S
O884 Co858 2.155 . S
O884 C886 1.240 . S
O885 Co858 2.096 . S
O885 C866 1.247 . S
C886 O883 1.244 . S
C886 O884 1.240 . S
H887 C861 0.931 . S
H888 C870 0.931 . S
H889 C874 0.929 . S
H890 C876 0.930 . S
Co891 N895 2.148 . S
Co891 N901 2.128 . S
Co891 N911 2.194 . S
Co891 O916 2.351 . S
Co891 O917 2.155 . S
Co891 O918 2.096 . S
C892 N895 1.301 . S
C892 N896 1.328 . S
C892 H897 0.930 . S
C893 C894 1.333 . S
C893 N895 1.317 . S
C893 H898 0.930 . S
C894 C893 1.333 . S
C894 N896 1.350 . S
C894 H920 0.931 . S
N895 Co891 2.148 . S
N895 C892 1.301 . S
N895 C893 1.317 . S
N896 C892 1.328 . S
N896 C894 1.350 . S
H897 C892 0.930 . S
H898 C893 0.930 . S
C899 O900 1.224 . S
C899 O918 1.247 . S
O900 C899 1.224 . S
N901 Co891 2.128 . S
N901 C902 1.355 . S
N901 C904 1.311 . S
C902 N901 1.355 . S
C902 C903 1.363 . S
C902 H914 0.929 . S
C903 C902 1.363 . S
C903 N905 1.375 . S
C903 H921 0.931 . S
C904 N901 1.311 . S
C904 N905 1.347 . S
C904 H915 0.929 . S
N905 C903 1.375 . S
N905 C904 1.347 . S
C906 C909 1.365 . S
C906 N911 1.328 . S
C906 H912 0.929 . S
C907 C908 1.362 . S
C907 C910 1.378 . S
C907 H922 0.929 . S
C908 C907 1.362 . S
C908 C909 1.366 . S
C909 C906 1.365 . S
C909 C908 1.366 . S
C909 H923 0.930 . S
C910 C907 1.378 . S
C910 N911 1.315 . S
C910 H913 0.930 . S
N911 Co891 2.194 . S
N911 C906 1.328 . S
N911 C910 1.315 . S
H912 C906 0.929 . S
H913 C910 0.930 . S
H914 C902 0.929 . S
H915 C904 0.929 . S
O916 Co891 2.351 . S
O916 C919 1.244 . S
O917 Co891 2.155 . S
O917 C919 1.240 . S
O918 Co891 2.096 . S
O918 C899 1.247 . S
C919 O916 1.244 . S
C919 O917 1.240 . S
H920 C894 0.931 . S
H921 C903 0.931 . S
H922 C907 0.929 . S
H923 C909 0.930 . S
Co924 N928 2.148 . S
Co924 N934 2.128 . S
Co924 N944 2.194 . S
Co924 O949 2.351 . S
Co924 O950 2.155 . S
Co924 O951 2.096 . S
C925 N928 1.301 . S
C925 N929 1.328 . S
C925 H930 0.930 . S
C926 C927 1.333 . S
C926 N928 1.317 . S
C926 H931 0.930 . S
C927 C926 1.333 . S
C927 N929 1.350 . S
C927 H953 0.931 . S
N928 Co924 2.148 . S
N928 C925 1.301 . S
N928 C926 1.317 . S
N929 C925 1.328 . S
N929 C927 1.350 . S
H930 C925 0.930 . S
H931 C926 0.930 . S
C932 O933 1.224 . S
C932 O951 1.247 . S
O933 C932 1.224 . S
N934 Co924 2.128 . S
N934 C935 1.355 . S
N934 C937 1.311 . S
C935 N934 1.355 . S
C935 C936 1.363 . S
C935 H947 0.929 . S
C936 C935 1.363 . S
C936 N938 1.375 . S
C936 H954 0.931 . S
C937 N934 1.311 . S
C937 N938 1.347 . S
C937 H948 0.929 . S
N938 C936 1.375 . S
N938 C937 1.347 . S
C939 C942 1.365 . S
C939 N944 1.328 . S
C939 H945 0.929 . S
C940 C941 1.362 . S
C940 C943 1.378 . S
C940 H955 0.929 . S
C941 C940 1.362 . S
C941 C942 1.366 . S
C942 C939 1.365 . S
C942 C941 1.366 . S
C942 H956 0.930 . S
C943 C940 1.378 . S
C943 N944 1.315 . S
C943 H946 0.930 . S
N944 Co924 2.194 . S
N944 C939 1.328 . S
N944 C943 1.315 . S
H945 C939 0.929 . S
H946 C943 0.930 . S
H947 C935 0.929 . S
H948 C937 0.929 . S
O949 Co924 2.351 . S
O949 C952 1.244 . S
O950 Co924 2.155 . S
O950 C952 1.240 . S
O951 Co924 2.096 . S
O951 C932 1.247 . S
C952 O949 1.244 . S
C952 O950 1.240 . S
H953 C927 0.931 . S
H954 C936 0.931 . S
H955 C940 0.929 . S
H956 C942 0.930 . S
Co957 N961 2.148 . S
Co957 N967 2.128 . S
Co957 N977 2.194 . S
Co957 O982 2.351 . S
Co957 O983 2.155 . S
Co957 O984 2.096 . S
C958 N961 1.301 . S
C958 N962 1.328 . S
C958 H963 0.930 . S
C959 C960 1.333 . S
C959 N961 1.317 . S
C959 H964 0.930 . S
C960 C959 1.333 . S
C960 N962 1.350 . S
C960 H986 0.931 . S
N961 Co957 2.148 . S
N961 C958 1.301 . S
N961 C959 1.317 . S
N962 C958 1.328 . S
N962 C960 1.350 . S
H963 C958 0.930 . S
H964 C959 0.930 . S
C965 O966 1.224 . S
C965 O984 1.247 . S
O966 C965 1.224 . S
N967 Co957 2.128 . S
N967 C968 1.355 . S
N967 C970 1.311 . S
C968 N967 1.355 . S
C968 C969 1.363 . S
C968 H980 0.929 . S
C969 C968 1.363 . S
C969 N971 1.375 . S
C969 H987 0.931 . S
C970 N967 1.311 . S
C970 N971 1.347 . S
C970 H981 0.929 . S
N971 C969 1.375 . S
N971 C970 1.347 . S
C972 C975 1.365 . S
C972 N977 1.328 . S
C972 H978 0.929 . S
C973 C974 1.362 . S
C973 C976 1.378 . S
C973 H988 0.929 . S
C974 C973 1.362 . S
C974 C975 1.366 . S
C975 C972 1.365 . S
C975 C974 1.366 . S
C975 H989 0.930 . S
C976 C973 1.378 . S
C976 N977 1.315 . S
C976 H979 0.930 . S
N977 Co957 2.194 . S
N977 C972 1.328 . S
N977 C976 1.315 . S
H978 C972 0.929 . S
H979 C976 0.930 . S
H980 C968 0.929 . S
H981 C970 0.929 . S
O982 Co957 2.351 . S
O982 C985 1.244 . S
O983 Co957 2.155 . S
O983 C985 1.240 . S
O984 Co957 2.096 . S
O984 C965 1.247 . S
C985 O982 1.244 . S
C985 O983 1.240 . S
H986 C960 0.931 . S
H987 C969 0.931 . S
H988 C973 0.929 . S
H989 C975 0.930 . S
Co990 N994 2.148 . S
Co990 N1000 2.128 . S
Co990 N1010 2.194 . S
Co990 O1015 2.351 . S
Co990 O1016 2.155 . S
Co990 O1017 2.096 . S
C991 N994 1.301 . S
C991 N995 1.328 . S
C991 H996 0.930 . S
C992 C993 1.333 . S
C992 N994 1.317 . S
C992 H997 0.930 . S
C993 C992 1.333 . S
C993 N995 1.350 . S
C993 H1019 0.931 . S
N994 Co990 2.148 . S
N994 C991 1.301 . S
N994 C992 1.317 . S
N995 C991 1.328 . S
N995 C993 1.350 . S
H996 C991 0.930 . S
H997 C992 0.930 . S
C998 O999 1.224 . S
C998 O1017 1.247 . S
O999 C998 1.224 . S
N1000 Co990 2.128 . S
N1000 C1001 1.355 . S
N1000 C1003 1.311 . S
C1001 N1000 1.355 . S
C1001 C1002 1.363 . S
C1001 H1013 0.929 . S
C1002 C1001 1.363 . S
C1002 N1004 1.375 . S
C1002 H1020 0.931 . S
C1003 N1000 1.311 . S
C1003 N1004 1.347 . S
C1003 H1014 0.929 . S
N1004 C1002 1.375 . S
N1004 C1003 1.347 . S
C1005 C1008 1.365 . S
C1005 N1010 1.328 . S
C1005 H1011 0.929 . S
C1006 C1007 1.362 . S
C1006 C1009 1.378 . S
C1006 H1021 0.929 . S
C1007 C1006 1.362 . S
C1007 C1008 1.366 . S
C1008 C1005 1.365 . S
C1008 C1007 1.366 . S
C1008 H1022 0.930 . S
C1009 C1006 1.378 . S
C1009 N1010 1.315 . S
C1009 H1012 0.930 . S
N1010 Co990 2.194 . S
N1010 C1005 1.328 . S
N1010 C1009 1.315 . S
H1011 C1005 0.929 . S
H1012 C1009 0.930 . S
H1013 C1001 0.929 . S
H1014 C1003 0.929 . S
O1015 Co990 2.351 . S
O1015 C1018 1.244 . S
O1016 Co990 2.155 . S
O1016 C1018 1.240 . S
O1017 Co990 2.096 . S
O1017 C998 1.247 . S
C1018 O1015 1.244 . S
C1018 O1016 1.240 . S
H1019 C993 0.931 . S
H1020 C1002 0.931 . S
H1021 C1006 0.929 . S
H1022 C1008 0.930 . S
Co1023 N1027 2.148 . S
Co1023 N1033 2.128 . S
Co1023 N1043 2.194 . S
Co1023 O1048 2.351 . S
Co1023 O1049 2.155 . S
Co1023 O1050 2.096 . S
C1024 N1027 1.301 . S
C1024 N1028 1.328 . S
C1024 H1029 0.930 . S
C1025 C1026 1.333 . S
C1025 N1027 1.317 . S
C1025 H1030 0.930 . S
C1026 C1025 1.333 . S
C1026 N1028 1.350 . S
C1026 H1052 0.931 . S
N1027 Co1023 2.148 . S
N1027 C1024 1.301 . S
N1027 C1025 1.317 . S
N1028 C1024 1.328 . S
N1028 C1026 1.350 . S
H1029 C1024 0.930 . S
H1030 C1025 0.930 . S
C1031 O1032 1.224 . S
C1031 O1050 1.247 . S
O1032 C1031 1.224 . S
N1033 Co1023 2.128 . S
N1033 C1034 1.355 . S
N1033 C1036 1.311 . S
C1034 N1033 1.355 . S
C1034 C1035 1.363 . S
C1034 H1046 0.929 . S
C1035 C1034 1.363 . S
C1035 N1037 1.375 . S
C1035 H1053 0.931 . S
C1036 N1033 1.311 . S
C1036 N1037 1.347 . S
C1036 H1047 0.929 . S
N1037 C1035 1.375 . S
N1037 C1036 1.347 . S
C1038 C1041 1.365 . S
C1038 N1043 1.328 . S
C1038 H1044 0.929 . S
C1039 C1040 1.362 . S
C1039 C1042 1.378 . S
C1039 H1054 0.929 . S
C1040 C1039 1.362 . S
C1040 C1041 1.366 . S
C1041 C1038 1.365 . S
C1041 C1040 1.366 . S
C1041 H1055 0.930 . S
C1042 C1039 1.378 . S
C1042 N1043 1.315 . S
C1042 H1045 0.930 . S
N1043 Co1023 2.194 . S
N1043 C1038 1.328 . S
N1043 C1042 1.315 . S
H1044 C1038 0.929 . S
H1045 C1042 0.930 . S
H1046 C1034 0.929 . S
H1047 C1036 0.929 . S
O1048 Co1023 2.351 . S
O1048 C1051 1.244 . S
O1049 Co1023 2.155 . S
O1049 C1051 1.240 . S
O1050 Co1023 2.096 . S
O1050 C1031 1.247 . S
C1051 O1048 1.244 . S
C1051 O1049 1.240 . S
H1052 C1026 0.931 . S
H1053 C1035 0.931 . S
H1054 C1039 0.929 . S
H1055 C1041 0.930 . S
H1056 C1062 0.930 . S
H1057 C1066 0.930 . S
H1058 C1071 0.929 . S
H1059 C1069 0.929 . S
H1060 C1064 0.929 . S
H1061 C1070 0.929 . S
C1062 H1056 0.930 . S
C1062 C1063 1.367 . S
C1062 C1070 1.378 . S
C1063 C1062 1.367 . S
C1063 C1071 1.433 . S
C1064 H1060 0.929 . S
C1064 C1066 1.378 . S
C1064 C1068 1.350 . S
C1065 C1068 1.463 . S
C1065 C1070 1.350 . S
C1065 N1073 1.427 . S
C1066 H1057 0.930 . S
C1066 C1064 1.378 . S
C1066 C1067 1.367 . S
C1067 C1066 1.367 . S
C1067 C1069 1.433 . S
C1068 C1064 1.350 . S
C1068 C1065 1.463 . S
C1068 N1072 1.427 . S
C1069 H1059 0.929 . S
C1069 C1067 1.433 . S
C1069 N1072 1.384 . S
C1070 H1061 0.929 . S
C1070 C1062 1.378 . S
C1070 C1065 1.350 . S
C1071 H1058 0.929 . S
C1071 C1063 1.433 . S
C1071 N1073 1.384 . S
N1072 C1068 1.427 . S
N1072 C1069 1.384 . S
N1073 C1065 1.427 . S
N1073 C1071 1.384 . S
H1074 C1080 0.939 . S
H1075 C1084 0.939 . S
H1076 C1089 0.929 . S
H1077 C1087 0.929 . S
H1078 C1082 0.929 . S
H1079 C1088 0.929 . S
C1080 H1074 0.939 . S
C1080 C1081 1.367 . S
C1080 C1088 1.378 1_655 S
C1081 C1080 1.367 . S
C1081 C1089 1.433 . S
C1082 H1078 0.929 . S
C1082 C1084 1.378 1_655 S
C1082 C1086 1.350 1_655 S
C1083 C1086 1.463 1_665 S
C1083 C1088 1.350 1_655 S
C1083 N1091 1.427 . S
C1084 H1075 0.939 . S
C1084 C1082 1.378 1_455 S
C1084 C1085 1.367 . S
C1085 C1084 1.367 . S
C1085 C1087 1.433 . S
C1086 C1082 1.350 1_455 S
C1086 C1083 1.463 1_445 S
C1086 N1090 1.427 . S
C1087 H1077 0.929 . S
C1087 C1085 1.433 . S
C1087 N1090 1.384 . S
C1088 H1079 0.929 . S
C1088 C1080 1.378 1_455 S
C1088 C1083 1.350 1_455 S
C1089 H1076 0.929 . S
C1089 C1081 1.433 . S
C1089 N1091 1.384 . S
N1090 C1086 1.427 . S
N1090 C1087 1.384 . S
N1091 C1083 1.427 . S
N1091 C1089 1.384 . S
H1092 C1098 0.930 . S
H1093 C1102 0.930 . S
H1094 C1107 0.929 . S
H1095 C1105 0.929 . S
H1096 C1100 0.929 . S
H1097 C1106 0.929 . S
C1098 H1092 0.930 . S
C1098 C1099 1.367 . S
C1098 C1106 1.378 . S
C1099 C1098 1.367 . S
C1099 C1107 1.433 . S
C1100 H1096 0.929 . S
C1100 C1102 1.378 . S
C1100 C1104 1.350 . S
C1101 C1104 1.463 . S
C1101 C1106 1.350 . S
C1101 N1109 1.427 . S
C1102 H1093 0.930 . S
C1102 C1100 1.378 . S
C1102 C1103 1.367 . S
C1103 C1102 1.367 . S
C1103 C1105 1.433 . S
C1104 C1100 1.350 . S
C1104 C1101 1.463 . S
C1104 N1108 1.427 . S
C1105 H1095 0.929 . S
C1105 C1103 1.433 . S
C1105 N1108 1.384 . S
C1106 H1097 0.929 . S
C1106 C1098 1.378 . S
C1106 C1101 1.350 . S
C1107 H1094 0.929 . S
C1107 C1099 1.433 . S
C1107 N1109 1.384 . S
N1108 C1104 1.427 . S
N1108 C1105 1.384 . S
N1109 C1101 1.427 . S
N1109 C1107 1.384 . S
H1110 C1116 0.930 . S
H1111 C1120 0.930 . S
H1112 C1125 0.929 1_554 S
H1113 C1123 0.929 1_556 S
H1114 C1118 0.929 1_565 S
H1115 C1124 0.929 1_545 S
C1116 H1110 0.930 . S
C1116 C1117 1.367 . S
C1116 C1124 1.378 . S
C1117 C1116 1.367 . S
C1117 C1125 1.433 . S
C1118 H1114 0.929 1_545 S
C1118 C1120 1.378 . S
C1118 C1122 1.350 . S
C1119 C1122 1.463 1_566 S
C1119 C1124 1.350 . S
C1119 N1127 1.427 1_556 S
C1120 H1111 0.930 . S
C1120 C1118 1.378 . S
C1120 C1121 1.367 . S
C1121 C1120 1.367 . S
C1121 C1123 1.433 . S
C1122 C1118 1.350 . S
C1122 C1119 1.463 1_544 S
C1122 N1126 1.427 1_554 S
C1123 H1113 0.929 1_554 S
C1123 C1121 1.433 . S
C1123 N1126 1.384 1_554 S
C1124 H1115 0.929 1_565 S
C1124 C1116 1.378 . S
C1124 C1119 1.350 . S
C1125 H1112 0.929 1_556 S
C1125 C1117 1.433 . S
C1125 N1127 1.384 1_556 S
N1126 C1122 1.427 1_556 S
N1126 C1123 1.384 1_556 S
N1127 C1119 1.427 1_554 S
N1127 C1125 1.384 1_554 S
H1128 C1134 0.930 . S
H1129 C1138 0.930 . S
H1130 C1143 0.929 . S
H1131 C1141 0.929 . S
H1132 C1136 0.929 . S
H1133 C1142 0.929 . S
C1134 H1128 0.930 . S
C1134 C1135 1.367 . S
C1134 C1142 1.378 . S
C1135 C1134 1.367 . S
C1135 C1143 1.433 . S
C1136 H1132 0.929 . S
C1136 C1138 1.378 . S
C1136 C1140 1.350 . S
C1137 C1140 1.463 . S
C1137 C1142 1.350 . S
C1137 N1145 1.427 . S
C1138 H1129 0.930 . S
C1138 C1136 1.378 . S
C1138 C1139 1.367 . S
C1139 C1138 1.367 . S
C1139 C1141 1.433 . S
C1140 C1136 1.350 . S
C1140 C1137 1.463 . S
C1140 N1144 1.427 . S
C1141 H1131 0.929 . S
C1141 C1139 1.433 . S
C1141 N1144 1.384 . S
C1142 H1133 0.929 . S
C1142 C1134 1.378 . S
C1142 C1137 1.350 . S
C1143 H1130 0.929 . S
C1143 C1135 1.433 . S
C1143 N1145 1.384 . S
N1144 C1140 1.427 . S
N1144 C1141 1.384 . S
N1145 C1137 1.427 . S
N1145 C1143 1.384 . S
H1146 C1152 0.930 . S
H1147 C1156 0.930 . S
H1148 C1161 0.929 . S
H1149 C1159 0.929 . S
H1150 C1154 0.929 . S
H1151 C1160 0.929 . S
C1152 H1146 0.930 . S
C1152 C1153 1.367 . S
C1152 C1160 1.378 . S
C1153 C1152 1.367 . S
C1153 C1161 1.433 . S
C1154 H1150 0.929 . S
C1154 C1156 1.378 . S
C1154 C1158 1.350 . S
C1155 C1158 1.463 1_565 S
C1155 C1160 1.350 . S
C1155 N1163 1.427 . S
C1156 H1147 0.930 . S
C1156 C1154 1.378 . S
C1156 C1157 1.367 . S
C1157 C1156 1.367 . S
C1157 C1159 1.433 . S
C1158 C1154 1.350 . S
C1158 C1155 1.463 1_545 S
C1158 N1162 1.427 . S
C1159 H1149 0.929 . S
C1159 C1157 1.433 . S
C1159 N1162 1.384 . S
C1160 H1151 0.929 . S
C1160 C1152 1.378 . S
C1160 C1155 1.350 . S
C1161 H1148 0.929 . S
C1161 C1153 1.433 . S
C1161 N1163 1.384 . S
N1162 C1158 1.427 . S
N1162 C1159 1.384 . S
N1163 C1155 1.427 . S
N1163 C1161 1.384 . S
H1164 C1170 0.930 . S
H1165 C1174 0.930 . S
H1166 C1179 0.929 . S
H1167 C1177 0.929 . S
H1168 C1172 0.929 . S
H1169 C1178 0.929 . S
C1170 H1164 0.930 . S
C1170 C1171 1.367 . S
C1170 C1178 1.378 . S
C1171 C1170 1.367 . S
C1171 C1179 1.433 . S
C1172 H1168 0.929 . S
C1172 C1174 1.378 . S
C1172 C1176 1.350 . S
C1173 C1176 1.463 . S
C1173 C1178 1.350 . S
C1173 N1181 1.427 . S
C1174 H1165 0.930 . S
C1174 C1172 1.378 . S
C1174 C1175 1.367 . S
C1175 C1174 1.367 . S
C1175 C1177 1.433 . S
C1176 C1172 1.350 . S
C1176 C1173 1.463 . S
C1176 N1180 1.427 . S
C1177 H1167 0.929 . S
C1177 C1175 1.433 . S
C1177 N1180 1.384 . S
C1178 H1169 0.929 . S
C1178 C1170 1.378 . S
C1178 C1173 1.350 . S
C1179 H1166 0.929 . S
C1179 C1171 1.433 . S
C1179 N1181 1.384 . S
N1180 C1176 1.427 . S
N1180 C1177 1.384 . S
N1181 C1173 1.427 . S
N1181 C1179 1.384 . S
H1182 C1188 0.930 . S
H1183 C1192 0.930 . S
H1184 C1197 0.929 . S
H1185 C1195 0.929 . S
H1186 C1190 0.929 1_554 S
H1187 C1196 0.929 1_556 S
C1188 H1182 0.930 . S
C1188 C1189 1.367 . S
C1188 C1196 1.377 . S
C1189 C1188 1.367 . S
C1189 C1197 1.433 . S
C1190 H1186 0.929 1_556 S
C1190 C1192 1.377 . S
C1190 C1194 1.350 . S
C1191 C1194 1.463 1_464 S
C1191 C1196 1.350 . S
C1191 N1199 1.427 1_455 S
C1192 H1183 0.930 . S
C1192 C1190 1.377 . S
C1192 C1193 1.367 . S
C1193 C1192 1.367 . S
C1193 C1195 1.433 . S
C1194 C1190 1.350 . S
C1194 C1191 1.463 1_646 S
C1194 N1198 1.427 1_655 S
C1195 H1185 0.929 . S
C1195 C1193 1.433 . S
C1195 N1198 1.384 1_655 S
C1196 H1187 0.929 1_554 S
C1196 C1188 1.377 . S
C1196 C1191 1.350 . S
C1197 H1184 0.929 . S
C1197 C1189 1.433 . S
C1197 N1199 1.384 1_455 S
N1198 C1194 1.427 1_455 S
N1198 C1195 1.384 1_455 S
N1199 C1191 1.427 1_655 S
N1199 C1197 1.384 1_655 S
H1200 C1206 0.930 . S
H1201 C1210 0.930 . S
H1202 C1215 0.929 . S
H1203 C1213 0.929 . S
H1204 C1208 0.929 . S
H1205 C1214 0.929 . S
C1206 H1200 0.930 . S
C1206 C1207 1.367 . S
C1206 C1214 1.378 . S
C1207 C1206 1.367 . S
C1207 C1215 1.433 . S
C1208 H1204 0.929 . S
C1208 C1210 1.378 . S
C1208 C1212 1.350 . S
C1209 C1212 1.463 . S
C1209 C1214 1.350 . S
C1209 N1217 1.427 . S
C1210 H1201 0.930 . S
C1210 C1208 1.378 . S
C1210 C1211 1.367 . S
C1211 C1210 1.367 . S
C1211 C1213 1.433 . S
C1212 C1208 1.350 . S
C1212 C1209 1.463 . S
C1212 N1216 1.427 . S
C1213 H1203 0.929 . S
C1213 C1211 1.433 . S
C1213 N1216 1.384 . S
C1214 H1205 0.929 . S
C1214 C1206 1.378 . S
C1214 C1209 1.350 . S
C1215 H1202 0.929 . S
C1215 C1207 1.433 . S
C1215 N1217 1.384 . S
N1216 C1212 1.427 . S
N1216 C1213 1.384 . S
N1217 C1209 1.427 . S
N1217 C1215 1.384 . S
H1218 C1224 0.930 . S
H1219 C1228 0.930 . S
H1220 C1233 0.929 . S
H1221 C1231 0.929 . S
H1222 C1226 0.929 . S
H1223 C1232 0.929 . S
C1224 H1218 0.930 . S
C1224 C1225 1.367 . S
C1224 C1232 1.378 . S
C1225 C1224 1.367 . S
C1225 C1233 1.433 . S
C1226 H1222 0.929 . S
C1226 C1228 1.378 . S
C1226 C1230 1.350 . S
C1227 C1230 1.463 . S
C1227 C1232 1.350 . S
C1227 N1235 1.427 . S
C1228 H1219 0.930 . S
C1228 C1226 1.378 . S
C1228 C1229 1.367 . S
C1229 C1228 1.367 . S
C1229 C1231 1.433 . S
C1230 C1226 1.350 . S
C1230 C1227 1.463 . S
C1230 N1234 1.427 . S
C1231 H1221 0.929 . S
C1231 C1229 1.433 . S
C1231 N1234 1.384 . S
C1232 H1223 0.929 . S
C1232 C1224 1.378 . S
C1232 C1227 1.350 . S
C1233 H1220 0.929 . S
C1233 C1225 1.433 . S
C1233 N1235 1.384 . S
N1234 C1230 1.427 . S
N1234 C1231 1.384 . S
N1235 C1227 1.427 . S
N1235 C1233 1.384 . S
H1236 C1242 0.930 . S
H1237 C1246 0.930 . S
H1238 C1251 0.929 . S
H1239 C1249 0.929 . S
H1240 C1244 0.929 . S
H1241 C1250 0.929 . S
C1242 H1236 0.930 . S
C1242 C1243 1.367 . S
C1242 C1250 1.378 . S
C1243 C1242 1.367 . S
C1243 C1251 1.433 . S
C1244 H1240 0.929 . S
C1244 C1246 1.378 . S
C1244 C1248 1.350 . S
C1245 C1248 1.463 . S
C1245 C1250 1.350 . S
C1245 N1253 1.427 . S
C1246 H1237 0.930 . S
C1246 C1244 1.378 . S
C1246 C1247 1.367 . S
C1247 C1246 1.367 . S
C1247 C1249 1.433 . S
C1248 C1244 1.350 . S
C1248 C1245 1.463 . S
C1248 N1252 1.427 . S
C1249 H1239 0.929 . S
C1249 C1247 1.433 . S
C1249 N1252 1.384 . S
C1250 H1241 0.929 . S
C1250 C1242 1.378 . S
C1250 C1245 1.350 . S
C1251 H1238 0.929 . S
C1251 C1243 1.433 . S
C1251 N1253 1.384 . S
N1252 C1248 1.427 . S
N1252 C1249 1.384 . S
N1253 C1245 1.427 . S
N1253 C1251 1.384 . S
H1254 C1260 0.930 . S
H1255 C1264 0.930 . S
H1256 C1269 0.929 . S
H1257 C1267 0.929 . S
H1258 C1262 0.929 . S
H1259 C1268 0.929 . S
C1260 H1254 0.930 . S
C1260 C1261 1.367 . S
C1260 C1268 1.378 . S
C1261 C1260 1.367 . S
C1261 C1269 1.433 . S
C1262 H1258 0.929 . S
C1262 C1264 1.378 . S
C1262 C1266 1.350 . S
C1263 C1266 1.463 . S
C1263 C1268 1.350 . S
C1263 N1271 1.427 . S
C1264 H1255 0.930 . S
C1264 C1262 1.378 . S
C1264 C1265 1.367 . S
C1265 C1264 1.367 . S
C1265 C1267 1.433 . S
C1266 C1262 1.350 . S
C1266 C1263 1.463 . S
C1266 N1270 1.427 . S
C1267 H1257 0.929 . S
C1267 C1265 1.433 . S
C1267 N1270 1.384 . S
C1268 H1259 0.929 . S
C1268 C1260 1.378 . S
C1268 C1263 1.350 . S
C1269 H1256 0.929 . S
C1269 C1261 1.433 . S
C1269 N1271 1.384 . S
N1270 C1266 1.427 . S
N1270 C1267 1.384 . S
N1271 C1263 1.427 . S
N1271 C1269 1.384 . S
H1272 C1278 0.930 . S
H1273 C1282 0.930 . S
H1274 C1287 0.929 . S
H1275 C1285 0.929 . S
H1276 C1280 0.929 . S
H1277 C1286 0.929 . S
C1278 H1272 0.930 . S
C1278 C1279 1.367 . S
C1278 C1286 1.378 . S
C1279 C1278 1.367 . S
C1279 C1287 1.433 . S
C1280 H1276 0.929 . S
C1280 C1282 1.378 . S
C1280 C1284 1.350 . S
C1281 C1284 1.463 1_556 S
C1281 C1286 1.350 . S
C1281 N1289 1.427 . S
C1282 H1273 0.930 . S
C1282 C1280 1.378 . S
C1282 C1283 1.367 . S
C1283 C1282 1.367 . S
C1283 C1285 1.433 . S
C1284 C1280 1.350 . S
C1284 C1281 1.463 1_554 S
C1284 N1288 1.427 . S
C1285 H1275 0.929 . S
C1285 C1283 1.433 . S
C1285 N1288 1.384 . S
C1286 H1277 0.929 . S
C1286 C1278 1.378 . S
C1286 C1281 1.350 . S
C1287 H1274 0.929 . S
C1287 C1279 1.433 . S
C1287 N1289 1.384 . S
N1288 C1284 1.427 . S
N1288 C1285 1.384 . S
N1289 C1281 1.427 . S
N1289 C1287 1.384 . S
H1290 C1296 0.930 . S
H1291 C1300 0.930 . S
H1292 C1305 0.929 . S
H1293 C1303 0.929 . S
H1294 C1298 0.929 . S
H1295 C1304 0.929 . S
C1296 H1290 0.930 . S
C1296 C1297 1.367 . S
C1296 C1304 1.378 1_455 S
C1297 C1296 1.367 . S
C1297 C1305 1.433 . S
C1298 H1294 0.929 . S
C1298 C1300 1.378 1_455 S
C1298 C1302 1.350 1_455 S
C1299 C1302 1.463 1_455 S
C1299 C1304 1.350 1_455 S
C1299 N1307 1.427 . S
C1300 H1291 0.930 . S
C1300 C1298 1.378 1_655 S
C1300 C1301 1.367 . S
C1301 C1300 1.367 . S
C1301 C1303 1.433 . S
C1302 C1298 1.350 1_655 S
C1302 C1299 1.463 1_655 S
C1302 N1306 1.427 . S
C1303 H1293 0.929 . S
C1303 C1301 1.433 . S
C1303 N1306 1.384 . S
C1304 H1295 0.929 . S
C1304 C1296 1.378 1_655 S
C1304 C1299 1.350 1_655 S
C1305 H1292 0.929 . S
C1305 C1297 1.433 . S
C1305 N1307 1.384 . S
N1306 C1302 1.427 . S
N1306 C1303 1.384 . S
N1307 C1299 1.427 . S
N1307 C1305 1.384 . S
H1308 C1314 0.930 . S
H1309 C1318 0.930 . S
H1310 C1323 0.929 1_554 S
H1311 C1321 0.929 1_556 S
H1312 C1316 0.897 1_455 S
H1313 C1322 0.897 1_655 S
C1314 H1308 0.930 . S
C1314 C1315 1.367 . S
C1314 C1322 1.400 . S
C1315 C1314 1.367 . S
C1315 C1323 1.433 . S
C1316 H1312 0.897 1_655 S
C1316 C1318 1.400 . S
C1316 C1320 1.360 . S
C1317 C1320 1.463 1_456 S
C1317 C1322 1.360 . S
C1317 N1325 1.427 1_556 S
C1318 H1309 0.930 . S
C1318 C1316 1.400 . S
C1318 C1319 1.367 . S
C1319 C1318 1.367 . S
C1319 C1321 1.433 . S
C1320 C1316 1.360 . S
C1320 C1317 1.463 1_654 S
C1320 N1324 1.427 1_554 S
C1321 H1311 0.929 1_554 S
C1321 C1319 1.433 . S
C1321 N1324 1.384 1_554 S
C1322 H1313 0.897 1_455 S
C1322 C1314 1.400 . S
C1322 C1317 1.360 . S
C1323 H1310 0.929 1_556 S
C1323 C1315 1.433 . S
C1323 N1325 1.384 1_556 S
N1324 C1320 1.427 1_556 S
N1324 C1321 1.384 1_556 S
N1325 C1317 1.427 1_554 S
N1325 C1323 1.384 1_554 S
H1326 C1332 0.930 . S
H1327 C1336 0.930 . S
H1328 C1341 0.929 . S
H1329 C1339 0.929 . S
H1330 C1334 0.929 . S
H1331 C1340 0.929 . S
C1332 H1326 0.930 . S
C1332 C1333 1.367 . S
C1332 C1340 1.378 . S
C1333 C1332 1.367 . S
C1333 C1341 1.433 . S
C1334 H1330 0.929 . S
C1334 C1336 1.378 . S
C1334 C1338 1.350 . S
C1335 C1338 1.463 . S
C1335 C1340 1.350 . S
C1335 N1343 1.427 . S
C1336 H1327 0.930 . S
C1336 C1334 1.378 . S
C1336 C1337 1.367 . S
C1337 C1336 1.367 . S
C1337 C1339 1.433 . S
C1338 C1334 1.350 . S
C1338 C1335 1.463 . S
C1338 N1342 1.427 . S
C1339 H1329 0.929 . S
C1339 C1337 1.433 . S
C1339 N1342 1.384 . S
C1340 H1331 0.929 . S
C1340 C1332 1.378 . S
C1340 C1335 1.350 . S
C1341 H1328 0.929 . S
C1341 C1333 1.433 . S
C1341 N1343 1.384 . S
N1342 C1338 1.427 . S
N1342 C1339 1.384 . S
N1343 C1335 1.427 . S
N1343 C1341 1.384 . S
H1344 C1350 0.930 . S
H1345 C1354 0.930 . S
H1346 C1359 0.929 . S
H1347 C1357 0.929 . S
H1348 C1352 0.929 . S
H1349 C1358 0.929 . S
C1350 H1344 0.930 . S
C1350 C1351 1.367 . S
C1350 C1358 1.378 . S
C1351 C1350 1.367 . S
C1351 C1359 1.433 . S
C1352 H1348 0.929 . S
C1352 C1354 1.378 . S
C1352 C1356 1.350 . S
C1353 C1356 1.463 . S
C1353 C1358 1.350 . S
C1353 N1361 1.427 . S
C1354 H1345 0.930 . S
C1354 C1352 1.378 . S
C1354 C1355 1.367 . S
C1355 C1354 1.367 . S
C1355 C1357 1.433 . S
C1356 C1352 1.350 . S
C1356 C1353 1.463 . S
C1356 N1360 1.427 . S
C1357 H1347 0.929 . S
C1357 C1355 1.433 . S
C1357 N1360 1.384 . S
C1358 H1349 0.929 . S
C1358 C1350 1.378 . S
C1358 C1353 1.350 . S
C1359 H1346 0.929 . S
C1359 C1351 1.433 . S
C1359 N1361 1.384 . S
N1360 C1356 1.427 . S
N1360 C1357 1.384 . S
N1361 C1353 1.427 . S
N1361 C1359 1.384 . S
H1362 C1368 0.930 . S
H1363 C1372 0.930 . S
H1364 C1377 0.929 . S
H1365 C1375 0.929 . S
H1366 C1370 0.929 . S
H1367 C1376 0.929 . S
C1368 H1362 0.930 . S
C1368 C1369 1.367 . S
C1368 C1376 1.378 . S
C1369 C1368 1.367 . S
C1369 C1377 1.433 . S
C1370 H1366 0.929 . S
C1370 C1372 1.378 . S
C1370 C1374 1.350 . S
C1371 C1374 1.463 . S
C1371 C1376 1.350 1_455 S
C1371 N1379 1.427 1_455 S
C1372 H1363 0.930 . S
C1372 C1370 1.378 . S
C1372 C1373 1.367 . S
C1373 C1372 1.367 . S
C1373 C1375 1.433 . S
C1374 C1370 1.350 . S
C1374 C1371 1.463 . S
C1374 N1378 1.427 . S
C1375 H1365 0.929 . S
C1375 C1373 1.433 . S
C1375 N1378 1.384 . S
C1376 H1367 0.929 . S
C1376 C1368 1.378 . S
C1376 C1371 1.350 1_655 S
C1377 H1364 0.929 . S
C1377 C1369 1.433 . S
C1377 N1379 1.384 . S
N1378 C1374 1.427 . S
N1378 C1375 1.384 . S
N1379 C1371 1.427 1_655 S
N1379 C1377 1.384 . S
H1380 C1386 0.930 . S
H1381 C1390 0.930 . S
H1382 C1395 0.929 . S
H1383 C1393 0.929 . S
H1384 C1388 0.929 . S
H1385 C1394 0.929 . S
C1386 H1380 0.930 . S
C1386 C1387 1.367 . S
C1386 C1394 1.378 . S
C1387 C1386 1.367 . S
C1387 C1395 1.433 . S
C1388 H1384 0.929 . S
C1388 C1390 1.378 . S
C1388 C1392 1.350 . S
C1389 C1392 1.463 . S
C1389 C1394 1.350 . S
C1389 N1397 1.427 . S
C1390 H1381 0.930 . S
C1390 C1388 1.378 . S
C1390 C1391 1.367 . S
C1391 C1390 1.367 . S
C1391 C1393 1.433 . S
C1392 C1388 1.350 . S
C1392 C1389 1.463 . S
C1392 N1396 1.427 . S
C1393 H1383 0.929 . S
C1393 C1391 1.433 . S
C1393 N1396 1.384 . S
C1394 H1385 0.929 . S
C1394 C1386 1.378 . S
C1394 C1389 1.350 . S
C1395 H1382 0.929 . S
C1395 C1387 1.433 . S
C1395 N1397 1.384 . S
N1396 C1392 1.427 . S
N1396 C1393 1.384 . S
N1397 C1389 1.427 . S
N1397 C1395 1.384 . S
H1398 C1404 0.930 . S
H1399 C1408 0.930 . S
H1400 C1413 0.929 . S
H1401 C1411 0.929 . S
H1402 C1406 0.929 . S
H1403 C1412 0.929 . S
C1404 H1398 0.930 . S
C1404 C1405 1.367 . S
C1404 C1412 1.378 . S
C1405 C1404 1.367 . S
C1405 C1413 1.433 . S
C1406 H1402 0.929 . S
C1406 C1408 1.378 . S
C1406 C1410 1.350 . S
C1407 C1410 1.463 . S
C1407 C1412 1.350 . S
C1407 N1415 1.427 . S
C1408 H1399 0.930 . S
C1408 C1406 1.378 . S
C1408 C1409 1.367 . S
C1409 C1408 1.367 . S
C1409 C1411 1.433 . S
C1410 C1406 1.350 . S
C1410 C1407 1.463 . S
C1410 N1414 1.427 . S
C1411 H1401 0.929 . S
C1411 C1409 1.433 . S
C1411 N1414 1.384 . S
C1412 H1403 0.929 . S
C1412 C1404 1.378 . S
C1412 C1407 1.350 . S
C1413 H1400 0.929 . S
C1413 C1405 1.433 . S
C1413 N1415 1.384 . S
N1414 C1410 1.427 . S
N1414 C1411 1.384 . S
N1415 C1407 1.427 . S
N1415 C1413 1.384 . S
H1416 C1422 0.930 . S
H1417 C1426 0.930 . S
H1418 C1431 0.929 . S
H1419 C1429 0.929 . S
H1420 C1424 0.929 . S
H1421 C1430 0.929 . S
C1422 H1416 0.930 . S
C1422 C1423 1.367 . S
C1422 C1430 1.378 . S
C1423 C1422 1.367 . S
C1423 C1431 1.433 . S
C1424 H1420 0.929 . S
C1424 C1426 1.378 . S
C1424 C1428 1.350 . S
C1425 C1428 1.463 . S
C1425 C1430 1.350 . S
C1425 N1433 1.427 . S
C1426 H1417 0.930 . S
C1426 C1424 1.378 . S
C1426 C1427 1.367 . S
C1427 C1426 1.367 . S
C1427 C1429 1.433 . S
C1428 C1424 1.350 . S
C1428 C1425 1.463 . S
C1428 N1432 1.427 . S
C1429 H1419 0.929 . S
C1429 C1427 1.433 . S
C1429 N1432 1.384 . S
C1430 H1421 0.929 . S
C1430 C1422 1.378 . S
C1430 C1425 1.350 . S
C1431 H1418 0.929 . S
C1431 C1423 1.433 . S
C1431 N1433 1.384 . S
N1432 C1428 1.427 . S
N1432 C1429 1.384 . S
N1433 C1425 1.427 . S
N1433 C1431 1.384 . S
H1434 C1440 0.930 . S
H1435 C1444 0.930 . S
H1436 C1449 0.929 . S
H1437 C1447 0.929 . S
H1438 C1442 0.929 . S
H1439 C1448 0.929 . S
C1440 H1434 0.930 . S
C1440 C1441 1.367 . S
C1440 C1448 1.378 . S
C1441 C1440 1.367 . S
C1441 C1449 1.433 . S
C1442 H1438 0.929 . S
C1442 C1444 1.378 . S
C1442 C1446 1.350 . S
C1443 C1446 1.463 . S
C1443 C1448 1.350 . S
C1443 N1451 1.427 . S
C1444 H1435 0.930 . S
C1444 C1442 1.378 . S
C1444 C1445 1.367 . S
C1445 C1444 1.367 . S
C1445 C1447 1.433 . S
C1446 C1442 1.350 . S
C1446 C1443 1.463 . S
C1446 N1450 1.427 . S
C1447 H1437 0.929 . S
C1447 C1445 1.433 . S
C1447 N1450 1.384 . S
C1448 H1439 0.929 . S
C1448 C1440 1.378 . S
C1448 C1443 1.350 . S
C1449 H1436 0.929 . S
C1449 C1441 1.433 . S
C1449 N1451 1.384 . S
N1450 C1446 1.427 . S
N1450 C1447 1.384 . S
N1451 C1443 1.427 . S
N1451 C1449 1.384 . S
H1452 C1458 0.930 . S
H1453 C1462 0.930 . S
H1454 C1467 0.929 . S
H1455 C1465 0.929 . S
H1456 C1460 0.929 . S
H1457 C1466 0.929 . S
C1458 H1452 0.930 . S
C1458 C1459 1.367 . S
C1458 C1466 1.378 . S
C1459 C1458 1.367 . S
C1459 C1467 1.433 . S
C1460 H1456 0.929 . S
C1460 C1462 1.378 . S
C1460 C1464 1.350 . S
C1461 C1464 1.463 . S
C1461 C1466 1.350 . S
C1461 N1469 1.427 . S
C1462 H1453 0.930 . S
C1462 C1460 1.378 . S
C1462 C1463 1.367 . S
C1463 C1462 1.367 . S
C1463 C1465 1.433 . S
C1464 C1460 1.350 . S
C1464 C1461 1.463 . S
C1464 N1468 1.427 . S
C1465 H1455 0.929 . S
C1465 C1463 1.433 . S
C1465 N1468 1.384 . S
C1466 H1457 0.929 . S
C1466 C1458 1.378 . S
C1466 C1461 1.350 . S
C1467 H1454 0.929 . S
C1467 C1459 1.433 . S
C1467 N1469 1.384 . S
N1468 C1464 1.427 . S
N1468 C1465 1.384 . S
N1469 C1461 1.427 . S
N1469 C1467 1.384 . S
H1470 C1476 0.930 . S
H1471 C1480 0.930 . S
H1472 C1485 0.929 . S
H1473 C1483 0.929 . S
H1474 C1478 0.929 . S
H1475 C1484 0.929 . S
C1476 H1470 0.930 . S
C1476 C1477 1.367 . S
C1476 C1484 1.378 . S
C1477 C1476 1.367 . S
C1477 C1485 1.433 . S
C1478 H1474 0.929 . S
C1478 C1480 1.378 . S
C1478 C1482 1.350 . S
C1479 C1482 1.463 . S
C1479 C1484 1.350 1_455 S
C1479 N1487 1.427 1_455 S
C1480 H1471 0.930 . S
C1480 C1478 1.378 . S
C1480 C1481 1.367 . S
C1481 C1480 1.367 . S
C1481 C1483 1.433 . S
C1482 C1478 1.350 . S
C1482 C1479 1.463 . S
C1482 N1486 1.427 . S
C1483 H1473 0.929 . S
C1483 C1481 1.433 . S
C1483 N1486 1.384 . S
C1484 H1475 0.929 . S
C1484 C1476 1.378 . S
C1484 C1479 1.350 1_655 S
C1485 H1472 0.929 . S
C1485 C1477 1.433 . S
C1485 N1487 1.384 . S
N1486 C1482 1.427 . S
N1486 C1483 1.384 . S
N1487 C1479 1.427 1_655 S
N1487 C1485 1.384 . S
H1488 C1494 0.930 . S
H1489 C1498 0.930 . S
H1490 C1503 0.929 . S
H1491 C1501 0.929 . S
H1492 C1496 0.929 . S
H1493 C1502 0.929 . S
C1494 H1488 0.930 . S
C1494 C1495 1.367 . S
C1494 C1502 1.378 . S
C1495 C1494 1.367 . S
C1495 C1503 1.433 . S
C1496 H1492 0.929 . S
C1496 C1498 1.378 . S
C1496 C1500 1.350 . S
C1497 C1500 1.463 . S
C1497 C1502 1.350 . S
C1497 N1505 1.427 . S
C1498 H1489 0.930 . S
C1498 C1496 1.378 . S
C1498 C1499 1.367 . S
C1499 C1498 1.367 . S
C1499 C1501 1.433 . S
C1500 C1496 1.350 . S
C1500 C1497 1.463 . S
C1500 N1504 1.427 . S
C1501 H1491 0.929 . S
C1501 C1499 1.433 . S
C1501 N1504 1.384 . S
C1502 H1493 0.929 . S
C1502 C1494 1.378 . S
C1502 C1497 1.350 . S
C1503 H1490 0.929 . S
C1503 C1495 1.433 . S
C1503 N1505 1.384 . S
N1504 C1500 1.427 . S
N1504 C1501 1.384 . S
N1505 C1497 1.427 . S
N1505 C1503 1.384 . S
H1506 C1512 0.930 . S
H1507 C1516 0.930 . S
H1508 C1521 0.929 . S
H1509 C1519 0.929 . S
H1510 C1514 0.929 . S
H1511 C1520 0.929 . S
C1512 H1506 0.930 . S
C1512 C1513 1.367 . S
C1512 C1520 1.378 . S
C1513 C1512 1.367 . S
C1513 C1521 1.433 . S
C1514 H1510 0.929 . S
C1514 C1516 1.378 . S
C1514 C1518 1.350 . S
C1515 C1518 1.463 . S
C1515 C1520 1.350 1_655 S
C1515 N1523 1.427 . S
C1516 H1507 0.930 . S
C1516 C1514 1.378 . S
C1516 C1517 1.367 . S
C1517 C1516 1.367 . S
C1517 C1519 1.433 . S
C1518 C1514 1.350 . S
C1518 C1515 1.463 . S
C1518 N1522 1.427 . S
C1519 H1509 0.929 . S
C1519 C1517 1.433 . S
C1519 N1522 1.384 . S
C1520 H1511 0.929 . S
C1520 C1512 1.378 . S
C1520 C1515 1.350 1_455 S
C1521 H1508 0.929 . S
C1521 C1513 1.433 . S
C1521 N1523 1.384 1_455 S
N1522 C1518 1.427 . S
N1522 C1519 1.384 . S
N1523 C1515 1.427 . S
N1523 C1521 1.384 1_655 S
H1524 C1530 0.930 . S
H1525 C1534 0.930 . S
H1526 C1539 0.929 . S
H1527 C1537 0.929 . S
H1528 C1532 0.929 . S
H1529 C1538 0.929 . S
C1530 H1524 0.930 . S
C1530 C1531 1.367 . S
C1530 C1538 1.378 . S
C1531 C1530 1.367 . S
C1531 C1539 1.433 . S
C1532 H1528 0.929 . S
C1532 C1534 1.378 . S
C1532 C1536 1.350 . S
C1533 C1536 1.463 . S
C1533 C1538 1.350 . S
C1533 N1541 1.427 . S
C1534 H1525 0.930 . S
C1534 C1532 1.378 . S
C1534 C1535 1.367 . S
C1535 C1534 1.367 . S
C1535 C1537 1.433 . S
C1536 C1532 1.350 . S
C1536 C1533 1.463 . S
C1536 N1540 1.427 . S
C1537 H1527 0.929 . S
C1537 C1535 1.433 . S
C1537 N1540 1.384 . S
C1538 H1529 0.929 . S
C1538 C1530 1.378 . S
C1538 C1533 1.350 . S
C1539 H1526 0.929 . S
C1539 C1531 1.433 . S
C1539 N1541 1.384 . S
N1540 C1536 1.427 . S
N1540 C1537 1.384 . S
N1541 C1533 1.427 . S
N1541 C1539 1.384 . S
H1542 C1548 0.930 . S
H1543 C1552 0.930 . S
H1544 C1557 0.929 . S
H1545 C1555 0.929 . S
H1546 C1550 0.929 . S
H1547 C1556 0.929 . S
C1548 H1542 0.930 . S
C1548 C1549 1.367 . S
C1548 C1556 1.378 . S
C1549 C1548 1.367 . S
C1549 C1557 1.433 . S
C1550 H1546 0.929 . S
C1550 C1552 1.378 . S
C1550 C1554 1.350 . S
C1551 C1554 1.463 . S
C1551 C1556 1.350 . S
C1551 N1559 1.427 . S
C1552 H1543 0.930 . S
C1552 C1550 1.378 . S
C1552 C1553 1.367 . S
C1553 C1552 1.367 . S
C1553 C1555 1.433 . S
C1554 C1550 1.350 . S
C1554 C1551 1.463 . S
C1554 N1558 1.427 . S
C1555 H1545 0.929 . S
C1555 C1553 1.433 . S
C1555 N1558 1.384 . S
C1556 H1547 0.929 . S
C1556 C1548 1.378 . S
C1556 C1551 1.350 . S
C1557 H1544 0.929 . S
C1557 C1549 1.433 . S
C1557 N1559 1.384 . S
N1558 C1554 1.427 . S
N1558 C1555 1.384 . S
N1559 C1551 1.427 . S
N1559 C1557 1.384 . S
H1560 C1566 0.930 . S
H1561 C1570 0.930 . S
H1562 C1575 0.929 . S
H1563 C1573 0.929 . S
H1564 C1568 0.929 . S
H1565 C1574 0.929 . S
C1566 H1560 0.930 . S
C1566 C1567 1.367 . S
C1566 C1574 1.378 . S
C1567 C1566 1.367 . S
C1567 C1575 1.433 . S
C1568 H1564 0.929 . S
C1568 C1570 1.378 . S
C1568 C1572 1.350 . S
C1569 C1572 1.463 . S
C1569 C1574 1.350 . S
C1569 N1577 1.427 . S
C1570 H1561 0.930 . S
C1570 C1568 1.378 . S
C1570 C1571 1.367 . S
C1571 C1570 1.367 . S
C1571 C1573 1.433 . S
C1572 C1568 1.350 . S
C1572 C1569 1.463 . S
C1572 N1576 1.427 . S
C1573 H1563 0.929 . S
C1573 C1571 1.433 . S
C1573 N1576 1.384 . S
C1574 H1565 0.929 . S
C1574 C1566 1.378 . S
C1574 C1569 1.350 . S
C1575 H1562 0.929 . S
C1575 C1567 1.433 . S
C1575 N1577 1.384 . S
N1576 C1572 1.427 . S
N1576 C1573 1.384 . S
N1577 C1569 1.427 . S
N1577 C1575 1.384 . S
H1578 C1584 0.930 . S
H1579 C1588 0.930 . S
H1580 C1593 0.929 . S
H1581 C1591 0.929 . S
H1582 C1586 0.929 . S
H1583 C1592 0.929 . S
C1584 H1578 0.930 . S
C1584 C1585 1.367 . S
C1584 C1592 1.378 . S
C1585 C1584 1.367 . S
C1585 C1593 1.433 . S
C1586 H1582 0.929 . S
C1586 C1588 1.378 . S
C1586 C1590 1.350 . S
C1587 C1590 1.463 . S
C1587 C1592 1.350 . S
C1587 N1595 1.427 . S
C1588 H1579 0.930 . S
C1588 C1586 1.378 . S
C1588 C1589 1.367 . S
C1589 C1588 1.367 . S
C1589 C1591 1.433 . S
C1590 C1586 1.350 . S
C1590 C1587 1.463 . S
C1590 N1594 1.427 . S
C1591 H1581 0.929 . S
C1591 C1589 1.433 . S
C1591 N1594 1.384 . S
C1592 H1583 0.929 . S
C1592 C1584 1.378 . S
C1592 C1587 1.350 . S
C1593 H1580 0.929 . S
C1593 C1585 1.433 . S
C1593 N1595 1.384 . S
N1594 C1590 1.427 . S
N1594 C1591 1.384 . S
N1595 C1587 1.427 . S
N1595 C1593 1.384 . S
H1596 C1602 0.930 . S
H1597 C1606 0.930 . S
H1598 C1611 0.929 . S
H1599 C1609 0.929 . S
H1600 C1604 0.929 . S
H1601 C1610 0.929 . S
C1602 H1596 0.930 . S
C1602 C1603 1.367 . S
C1602 C1610 1.378 . S
C1603 C1602 1.367 . S
C1603 C1611 1.433 . S
C1604 H1600 0.929 . S
C1604 C1606 1.378 . S
C1604 C1608 1.350 . S
C1605 C1608 1.463 . S
C1605 C1610 1.350 . S
C1605 N1613 1.427 . S
C1606 H1597 0.930 . S
C1606 C1604 1.378 . S
C1606 C1607 1.367 . S
C1607 C1606 1.367 . S
C1607 C1609 1.433 . S
C1608 C1604 1.350 . S
C1608 C1605 1.463 . S
C1608 N1612 1.427 . S
C1609 H1599 0.929 . S
C1609 C1607 1.433 . S
C1609 N1612 1.384 . S
C1610 H1601 0.929 . S
C1610 C1602 1.378 . S
C1610 C1605 1.350 . S
C1611 H1598 0.929 . S
C1611 C1603 1.433 . S
C1611 N1613 1.384 . S
N1612 C1608 1.427 . S
N1612 C1609 1.384 . S
N1613 C1605 1.427 . S
N1613 C1611 1.384 . S
H1614 C1620 0.930 . S
H1615 C1624 0.930 . S
H1616 C1629 0.929 . S
H1617 C1627 0.929 . S
H1618 C1622 0.929 . S
H1619 C1628 0.929 . S
C1620 H1614 0.930 . S
C1620 C1621 1.367 . S
C1620 C1628 1.378 . S
C1621 C1620 1.367 . S
C1621 C1629 1.433 . S
C1622 H1618 0.929 . S
C1622 C1624 1.378 1_655 S
C1622 C1626 1.350 . S
C1623 C1626 1.463 . S
C1623 C1628 1.350 . S
C1623 N1631 1.427 . S
C1624 H1615 0.930 . S
C1624 C1622 1.378 1_455 S
C1624 C1625 1.367 . S
C1625 C1624 1.367 . S
C1625 C1627 1.433 . S
C1626 C1622 1.350 . S
C1626 C1623 1.463 . S
C1626 N1630 1.427 1_655 S
C1627 H1617 0.929 . S
C1627 C1625 1.433 . S
C1627 N1630 1.384 . S
C1628 H1619 0.929 . S
C1628 C1620 1.378 . S
C1628 C1623 1.350 . S
C1629 H1616 0.929 . S
C1629 C1621 1.433 . S
C1629 N1631 1.384 . S
N1630 C1626 1.427 1_455 S
N1630 C1627 1.384 . S
N1631 C1623 1.427 . S
N1631 C1629 1.384 . S
H1632 C1638 0.930 . S
H1633 C1642 0.930 . S
H1634 C1647 0.929 . S
H1635 C1645 0.929 . S
H1636 C1640 0.929 . S
H1637 C1646 0.929 . S
C1638 H1632 0.930 . S
C1638 C1639 1.367 . S
C1638 C1646 1.378 . S
C1639 C1638 1.367 . S
C1639 C1647 1.433 . S
C1640 H1636 0.929 . S
C1640 C1642 1.378 . S
C1640 C1644 1.350 . S
C1641 C1644 1.463 . S
C1641 C1646 1.350 . S
C1641 N1649 1.427 . S
C1642 H1633 0.930 . S
C1642 C1640 1.378 . S
C1642 C1643 1.367 . S
C1643 C1642 1.367 . S
C1643 C1645 1.433 . S
C1644 C1640 1.350 . S
C1644 C1641 1.463 . S
C1644 N1648 1.427 . S
C1645 H1635 0.929 . S
C1645 C1643 1.433 . S
C1645 N1648 1.384 . S
C1646 H1637 0.929 . S
C1646 C1638 1.378 . S
C1646 C1641 1.350 . S
C1647 H1634 0.929 . S
C1647 C1639 1.433 . S
C1647 N1649 1.384 . S
N1648 C1644 1.427 . S
N1648 C1645 1.384 . S
N1649 C1641 1.427 . S
N1649 C1647 1.384 . S
H1650 C1656 0.930 . S
H1651 C1660 0.930 . S
H1652 C1665 0.929 . S
H1653 C1663 0.929 . S
H1654 C1658 0.929 . S
H1655 C1664 0.929 . S
C1656 H1650 0.930 . S
C1656 C1657 1.367 . S
C1656 C1664 1.378 . S
C1657 C1656 1.367 . S
C1657 C1665 1.433 . S
C1658 H1654 0.929 . S
C1658 C1660 1.378 . S
C1658 C1662 1.350 . S
C1659 C1662 1.463 . S
C1659 C1664 1.350 . S
C1659 N1667 1.427 . S
C1660 H1651 0.930 . S
C1660 C1658 1.378 . S
C1660 C1661 1.367 . S
C1661 C1660 1.367 . S
C1661 C1663 1.433 . S
C1662 C1658 1.350 . S
C1662 C1659 1.463 . S
C1662 N1666 1.427 . S
C1663 H1653 0.929 . S
C1663 C1661 1.433 . S
C1663 N1666 1.384 . S
C1664 H1655 0.929 . S
C1664 C1656 1.378 . S
C1664 C1659 1.350 . S
C1665 H1652 0.929 . S
C1665 C1657 1.433 . S
C1665 N1667 1.384 . S
N1666 C1662 1.427 . S
N1666 C1663 1.384 . S
N1667 C1659 1.427 . S
N1667 C1665 1.384 . S
H1668 C1674 0.930 . S
H1669 C1678 0.930 . S
H1670 C1683 0.929 . S
H1671 C1681 0.929 . S
H1672 C1676 0.929 . S
H1673 C1682 0.929 . S
C1674 H1668 0.930 . S
C1674 C1675 1.367 . S
C1674 C1682 1.378 . S
C1675 C1674 1.367 . S
C1675 C1683 1.433 . S
C1676 H1672 0.929 . S
C1676 C1678 1.378 . S
C1676 C1680 1.350 . S
C1677 C1680 1.463 . S
C1677 C1682 1.350 . S
C1677 N1685 1.427 . S
C1678 H1669 0.930 . S
C1678 C1676 1.378 . S
C1678 C1679 1.367 . S
C1679 C1678 1.367 . S
C1679 C1681 1.433 . S
C1680 C1676 1.350 . S
C1680 C1677 1.463 . S
C1680 N1684 1.427 . S
C1681 H1671 0.929 . S
C1681 C1679 1.433 . S
C1681 N1684 1.384 . S
C1682 H1673 0.929 . S
C1682 C1674 1.378 . S
C1682 C1677 1.350 . S
C1683 H1670 0.929 . S
C1683 C1675 1.433 . S
C1683 N1685 1.384 . S
N1684 C1680 1.427 . S
N1684 C1681 1.384 . S
N1685 C1677 1.427 . S
N1685 C1683 1.384 . S
H1686 C1692 0.930 . S
H1687 C1696 0.930 . S
H1688 C1701 0.929 . S
H1689 C1699 0.929 . S
H1690 C1694 0.929 . S
H1691 C1700 0.929 . S
C1692 H1686 0.930 . S
C1692 C1693 1.367 . S
C1692 C1700 1.378 . S
C1693 C1692 1.367 . S
C1693 C1701 1.433 . S
C1694 H1690 0.929 . S
C1694 C1696 1.378 . S
C1694 C1698 1.350 1_455 S
C1695 C1698 1.463 . S
C1695 C1700 1.350 . S
C1695 N1703 1.427 . S
C1696 H1687 0.930 . S
C1696 C1694 1.378 . S
C1696 C1697 1.367 . S
C1697 C1696 1.367 . S
C1697 C1699 1.433 . S
C1698 C1694 1.350 1_655 S
C1698 C1695 1.463 . S
C1698 N1702 1.427 1_655 S
C1699 H1689 0.929 . S
C1699 C1697 1.433 . S
C1699 N1702 1.384 . S
C1700 H1691 0.929 . S
C1700 C1692 1.378 . S
C1700 C1695 1.350 . S
C1701 H1688 0.929 . S
C1701 C1693 1.433 . S
C1701 N1703 1.384 . S
N1702 C1698 1.427 1_455 S
N1702 C1699 1.384 . S
N1703 C1695 1.427 . S
N1703 C1701 1.384 . S
H1704 C1710 0.930 . S
H1705 C1714 0.930 . S
H1706 C1719 0.929 . S
H1707 C1717 0.929 . S
H1708 C1712 0.929 . S
H1709 C1718 0.929 . S
C1710 H1704 0.930 . S
C1710 C1711 1.367 . S
C1710 C1718 1.378 . S
C1711 C1710 1.367 . S
C1711 C1719 1.433 . S
C1712 H1708 0.929 . S
C1712 C1714 1.378 . S
C1712 C1716 1.350 . S
C1713 C1716 1.463 . S
C1713 C1718 1.350 . S
C1713 N1721 1.427 . S
C1714 H1705 0.930 . S
C1714 C1712 1.378 . S
C1714 C1715 1.367 . S
C1715 C1714 1.367 . S
C1715 C1717 1.433 . S
C1716 C1712 1.350 . S
C1716 C1713 1.463 . S
C1716 N1720 1.427 . S
C1717 H1707 0.929 . S
C1717 C1715 1.433 . S
C1717 N1720 1.384 . S
C1718 H1709 0.929 . S
C1718 C1710 1.378 . S
C1718 C1713 1.350 . S
C1719 H1706 0.929 . S
C1719 C1711 1.433 . S
C1719 N1721 1.384 . S
N1720 C1716 1.427 . S
N1720 C1717 1.384 . S
N1721 C1713 1.427 . S
N1721 C1719 1.384 . S
H1722 C1728 0.930 . S
H1723 C1732 0.930 . S
H1724 C1737 0.929 . S
H1725 C1735 0.929 . S
H1726 C1730 0.929 . S
H1727 C1736 0.929 . S
C1728 H1722 0.930 . S
C1728 C1729 1.367 . S
C1728 C1736 1.378 . S
C1729 C1728 1.367 . S
C1729 C1737 1.433 . S
C1730 H1726 0.929 . S
C1730 C1732 1.378 . S
C1730 C1734 1.350 1_455 S
C1731 C1734 1.463 . S
C1731 C1736 1.350 . S
C1731 N1739 1.427 . S
C1732 H1723 0.930 . S
C1732 C1730 1.378 . S
C1732 C1733 1.367 . S
C1733 C1732 1.367 . S
C1733 C1735 1.433 . S
C1734 C1730 1.350 1_655 S
C1734 C1731 1.463 . S
C1734 N1738 1.427 . S
C1735 H1725 0.929 . S
C1735 C1733 1.433 . S
C1735 N1738 1.384 1_455 S
C1736 H1727 0.929 . S
C1736 C1728 1.378 . S
C1736 C1731 1.350 . S
C1737 H1724 0.929 . S
C1737 C1729 1.433 . S
C1737 N1739 1.384 . S
N1738 C1734 1.427 . S
N1738 C1735 1.384 1_655 S
N1739 C1731 1.427 . S
N1739 C1737 1.384 . S
H1740 C1746 0.930 . S
H1741 C1750 0.930 . S
H1742 C1755 0.929 . S
H1743 C1753 0.929 . S
H1744 C1748 0.929 . S
H1745 C1754 0.929 . S
C1746 H1740 0.930 . S
C1746 C1747 1.367 . S
C1746 C1754 1.378 . S
C1747 C1746 1.367 . S
C1747 C1755 1.433 . S
C1748 H1744 0.929 . S
C1748 C1750 1.378 . S
C1748 C1752 1.350 . S
C1749 C1752 1.463 . S
C1749 C1754 1.350 . S
C1749 N1757 1.427 . S
C1750 H1741 0.930 . S
C1750 C1748 1.378 . S
C1750 C1751 1.367 . S
C1751 C1750 1.367 . S
C1751 C1753 1.433 . S
C1752 C1748 1.350 . S
C1752 C1749 1.463 . S
C1752 N1756 1.427 . S
C1753 H1743 0.929 . S
C1753 C1751 1.433 . S
C1753 N1756 1.384 . S
C1754 H1745 0.929 . S
C1754 C1746 1.378 . S
C1754 C1749 1.350 . S
C1755 H1742 0.929 . S
C1755 C1747 1.433 . S
C1755 N1757 1.384 . S
N1756 C1752 1.427 . S
N1756 C1753 1.384 . S
N1757 C1749 1.427 . S
N1757 C1755 1.384 . S
H1758 C1764 0.930 . S
H1759 C1768 0.930 . S
H1760 C1773 0.929 . S
H1761 C1771 0.929 . S
H1762 C1766 0.929 . S
H1763 C1772 0.929 . S
C1764 H1758 0.930 . S
C1764 C1765 1.367 . S
C1764 C1772 1.378 . S
C1765 C1764 1.367 . S
C1765 C1773 1.433 . S
C1766 H1762 0.929 . S
C1766 C1768 1.378 . S
C1766 C1770 1.350 . S
C1767 C1770 1.463 . S
C1767 C1772 1.350 . S
C1767 N1775 1.427 . S
C1768 H1759 0.930 . S
C1768 C1766 1.378 . S
C1768 C1769 1.367 . S
C1769 C1768 1.367 . S
C1769 C1771 1.433 . S
C1770 C1766 1.350 . S
C1770 C1767 1.463 . S
C1770 N1774 1.427 . S
C1771 H1761 0.929 . S
C1771 C1769 1.433 . S
C1771 N1774 1.384 . S
C1772 H1763 0.929 . S
C1772 C1764 1.378 . S
C1772 C1767 1.350 . S
C1773 H1760 0.929 . S
C1773 C1765 1.433 . S
C1773 N1775 1.384 . S
N1774 C1770 1.427 . S
N1774 C1771 1.384 . S
N1775 C1767 1.427 . S
N1775 C1773 1.384 . S
H1776 C1782 0.930 . S
H1777 C1786 0.930 . S
H1778 C1791 0.929 . S
H1779 C1789 0.929 . S
H1780 C1784 0.929 . S
H1781 C1790 0.929 . S
C1782 H1776 0.930 . S
C1782 C1783 1.367 . S
C1782 C1790 1.378 . S
C1783 C1782 1.367 . S
C1783 C1791 1.433 . S
C1784 H1780 0.929 . S
C1784 C1786 1.378 . S
C1784 C1788 1.350 . S
C1785 C1788 1.463 . S
C1785 C1790 1.350 . S
C1785 N1793 1.427 . S
C1786 H1777 0.930 . S
C1786 C1784 1.378 . S
C1786 C1787 1.367 . S
C1787 C1786 1.367 . S
C1787 C1789 1.433 . S
C1788 C1784 1.350 . S
C1788 C1785 1.463 . S
C1788 N1792 1.427 . S
C1789 H1779 0.929 . S
C1789 C1787 1.433 . S
C1789 N1792 1.384 . S
C1790 H1781 0.929 . S
C1790 C1782 1.378 . S
C1790 C1785 1.350 . S
C1791 H1778 0.929 . S
C1791 C1783 1.433 . S
C1791 N1793 1.384 . S
N1792 C1788 1.427 . S
N1792 C1789 1.384 . S
N1793 C1785 1.427 . S
N1793 C1791 1.384 . S
H1794 C1800 0.930 . S
H1795 C1804 0.930 . S
H1796 C1809 0.929 . S
H1797 C1807 0.929 . S
H1798 C1802 0.929 . S
H1799 C1808 0.929 . S
C1800 H1794 0.930 . S
C1800 C1801 1.367 . S
C1800 C1808 1.378 . S
C1801 C1800 1.367 . S
C1801 C1809 1.433 . S
C1802 H1798 0.929 . S
C1802 C1804 1.378 . S
C1802 C1806 1.350 . S
C1803 C1806 1.463 . S
C1803 C1808 1.350 . S
C1803 N1811 1.427 . S
C1804 H1795 0.930 . S
C1804 C1802 1.378 . S
C1804 C1805 1.367 . S
C1805 C1804 1.367 . S
C1805 C1807 1.433 . S
C1806 C1802 1.350 . S
C1806 C1803 1.463 . S
C1806 N1810 1.427 . S
C1807 H1797 0.929 . S
C1807 C1805 1.433 . S
C1807 N1810 1.384 . S
C1808 H1799 0.929 . S
C1808 C1800 1.378 . S
C1808 C1803 1.350 . S
C1809 H1796 0.929 . S
C1809 C1801 1.433 . S
C1809 N1811 1.384 . S
N1810 C1806 1.427 . S
N1810 C1807 1.384 . S
N1811 C1803 1.427 . S
N1811 C1809 1.384 . S
H1812 C1818 0.930 . S
H1813 C1822 0.930 . S
H1814 C1827 0.929 . S
H1815 C1825 0.929 . S
H1816 C1820 0.929 . S
H1817 C1826 0.929 . S
C1818 H1812 0.930 . S
C1818 C1819 1.367 . S
C1818 C1826 1.378 . S
C1819 C1818 1.367 . S
C1819 C1827 1.433 . S
C1820 H1816 0.929 . S
C1820 C1822 1.378 . S
C1820 C1824 1.350 . S
C1821 C1824 1.463 . S
C1821 C1826 1.350 . S
C1821 N1829 1.427 . S
C1822 H1813 0.930 . S
C1822 C1820 1.378 . S
C1822 C1823 1.367 . S
C1823 C1822 1.367 . S
C1823 C1825 1.433 . S
C1824 C1820 1.350 . S
C1824 C1821 1.463 . S
C1824 N1828 1.427 . S
C1825 H1815 0.929 . S
C1825 C1823 1.433 . S
C1825 N1828 1.384 . S
C1826 H1817 0.929 . S
C1826 C1818 1.378 . S
C1826 C1821 1.350 . S
C1827 H1814 0.929 . S
C1827 C1819 1.433 . S
C1827 N1829 1.384 . S
N1828 C1824 1.427 . S
N1828 C1825 1.384 . S
N1829 C1821 1.427 . S
N1829 C1827 1.384 . S
H1830 C1836 0.930 . S
H1831 C1840 0.930 . S
H1832 C1845 0.929 . S
H1833 C1843 0.929 . S
H1834 C1838 0.929 1_455 S
H1835 C1844 0.929 . S
C1836 H1830 0.930 . S
C1836 C1837 1.367 . S
C1836 C1844 1.378 . S
C1837 C1836 1.367 . S
C1837 C1845 1.433 . S
C1838 H1834 0.929 1_655 S
C1838 C1840 1.378 . S
C1838 C1842 1.350 1_655 S
C1839 C1842 1.463 . S
C1839 C1844 1.350 . S
C1839 N1847 1.427 . S
C1840 H1831 0.930 . S
C1840 C1838 1.378 . S
C1840 C1841 1.367 . S
C1841 C1840 1.367 . S
C1841 C1843 1.433 . S
C1842 C1838 1.350 1_455 S
C1842 C1839 1.463 . S
C1842 N1846 1.427 1_455 S
C1843 H1833 0.929 . S
C1843 C1841 1.433 . S
C1843 N1846 1.384 . S
C1844 H1835 0.929 . S
C1844 C1836 1.378 . S
C1844 C1839 1.350 . S
C1845 H1832 0.929 . S
C1845 C1837 1.433 . S
C1845 N1847 1.384 . S
N1846 C1842 1.427 1_655 S
N1846 C1843 1.384 . S
N1847 C1839 1.427 . S
N1847 C1845 1.384 . S
H1848 C1854 0.930 . S
H1849 C1858 0.930 . S
H1850 C1863 0.929 . S
H1851 C1861 0.929 . S
H1852 C1856 0.929 . S
H1853 C1862 0.929 . S
C1854 H1848 0.930 . S
C1854 C1855 1.367 . S
C1854 C1862 1.378 . S
C1855 C1854 1.367 . S
C1855 C1863 1.433 . S
C1856 H1852 0.929 . S
C1856 C1858 1.378 . S
C1856 C1860 1.350 . S
C1857 C1860 1.463 . S
C1857 C1862 1.350 . S
C1857 N1865 1.427 . S
C1858 H1849 0.930 . S
C1858 C1856 1.378 . S
C1858 C1859 1.367 . S
C1859 C1858 1.367 . S
C1859 C1861 1.433 . S
C1860 C1856 1.350 . S
C1860 C1857 1.463 . S
C1860 N1864 1.427 . S
C1861 H1851 0.929 . S
C1861 C1859 1.433 . S
C1861 N1864 1.384 . S
C1862 H1853 0.929 . S
C1862 C1854 1.378 . S
C1862 C1857 1.350 . S
C1863 H1850 0.929 . S
C1863 C1855 1.433 . S
C1863 N1865 1.384 . S
N1864 C1860 1.427 . S
N1864 C1861 1.384 . S
N1865 C1857 1.427 . S
N1865 C1863 1.384 . S
H1866 C1872 0.930 . S
H1867 C1876 0.930 . S
H1868 C1881 0.929 . S
H1869 C1879 0.929 . S
H1870 C1874 0.929 . S
H1871 C1880 0.924 1_455 S
C1872 H1866 0.930 . S
C1872 C1873 1.367 . S
C1872 C1880 1.383 . S
C1873 C1872 1.367 . S
C1873 C1881 1.433 . S
C1874 H1870 0.929 . S
C1874 C1876 1.378 . S
C1874 C1878 1.350 . S
C1875 C1878 1.463 . S
C1875 C1880 1.349 1_455 S
C1875 N1883 1.427 1_455 S
C1876 H1867 0.930 . S
C1876 C1874 1.378 . S
C1876 C1877 1.367 . S
C1877 C1876 1.367 . S
C1877 C1879 1.433 . S
C1878 C1874 1.350 . S
C1878 C1875 1.463 . S
C1878 N1882 1.427 . S
C1879 H1869 0.929 . S
C1879 C1877 1.433 . S
C1879 N1882 1.384 . S
C1880 H1871 0.924 1_655 S
C1880 C1872 1.383 . S
C1880 C1875 1.349 1_655 S
C1881 H1868 0.929 . S
C1881 C1873 1.433 . S
C1881 N1883 1.384 . S
N1882 C1878 1.427 . S
N1882 C1879 1.384 . S
N1883 C1875 1.427 1_655 S
N1883 C1881 1.384 . S
H1884 C1890 0.930 . S
H1885 C1894 0.930 . S
H1886 C1899 0.929 . S
H1887 C1897 0.929 . S
H1888 C1892 0.929 . S
H1889 C1898 0.929 . S
C1890 H1884 0.930 . S
C1890 C1891 1.367 . S
C1890 C1898 1.378 . S
C1891 C1890 1.367 . S
C1891 C1899 1.433 . S
C1892 H1888 0.929 . S
C1892 C1894 1.378 . S
C1892 C1896 1.350 . S
C1893 C1896 1.463 . S
C1893 C1898 1.350 . S
C1893 N1901 1.427 . S
C1894 H1885 0.930 . S
C1894 C1892 1.378 . S
C1894 C1895 1.367 . S
C1895 C1894 1.367 . S
C1895 C1897 1.433 . S
C1896 C1892 1.350 . S
C1896 C1893 1.463 . S
C1896 N1900 1.427 . S
C1897 H1887 0.929 . S
C1897 C1895 1.433 . S
C1897 N1900 1.384 . S
C1898 H1889 0.929 . S
C1898 C1890 1.378 . S
C1898 C1893 1.350 . S
C1899 H1886 0.929 . S
C1899 C1891 1.433 . S
C1899 N1901 1.384 . S
N1900 C1896 1.427 . S
N1900 C1897 1.384 . S
N1901 C1893 1.427 . S
N1901 C1899 1.384 . S
H1902 C1908 0.930 . S
H1903 C1912 0.930 . S
H1904 C1917 0.929 . S
H1905 C1915 0.929 . S
H1906 C1910 0.929 . S
H1907 C1916 0.929 . S
C1908 H1902 0.930 . S
C1908 C1909 1.367 . S
C1908 C1916 1.378 . S
C1909 C1908 1.367 . S
C1909 C1917 1.433 . S
C1910 H1906 0.929 . S
C1910 C1912 1.378 . S
C1910 C1914 1.350 . S
C1911 C1914 1.463 . S
C1911 C1916 1.350 . S
C1911 N1919 1.427 . S
C1912 H1903 0.930 . S
C1912 C1910 1.378 . S
C1912 C1913 1.367 . S
C1913 C1912 1.367 . S
C1913 C1915 1.433 . S
C1914 C1910 1.350 . S
C1914 C1911 1.463 . S
C1914 N1918 1.427 . S
C1915 H1905 0.929 . S
C1915 C1913 1.433 . S
C1915 N1918 1.384 . S
C1916 H1907 0.929 . S
C1916 C1908 1.378 . S
C1916 C1911 1.350 . S
C1917 H1904 0.929 . S
C1917 C1909 1.433 . S
C1917 N1919 1.384 . S
N1918 C1914 1.427 . S
N1918 C1915 1.384 . S
N1919 C1911 1.427 . S
N1919 C1917 1.384 . S
H1920 C1926 0.930 . S
H1921 C1930 0.930 . S
H1922 C1935 0.929 . S
H1923 C1933 0.929 . S
H1924 C1928 0.929 . S
H1925 C1934 0.929 . S
C1926 H1920 0.930 . S
C1926 C1927 1.367 . S
C1926 C1934 1.378 . S
C1927 C1926 1.367 . S
C1927 C1935 1.433 . S
C1928 H1924 0.929 . S
C1928 C1930 1.378 . S
C1928 C1932 1.350 . S
C1929 C1932 1.463 . S
C1929 C1934 1.350 . S
C1929 N1937 1.427 . S
C1930 H1921 0.930 . S
C1930 C1928 1.378 . S
C1930 C1931 1.367 . S
C1931 C1930 1.367 . S
C1931 C1933 1.433 . S
C1932 C1928 1.350 . S
C1932 C1929 1.463 . S
C1932 N1936 1.427 . S
C1933 H1923 0.929 . S
C1933 C1931 1.433 . S
C1933 N1936 1.384 . S
C1934 H1925 0.929 . S
C1934 C1926 1.378 . S
C1934 C1929 1.350 . S
C1935 H1922 0.929 . S
C1935 C1927 1.433 . S
C1935 N1937 1.384 . S
N1936 C1932 1.427 . S
N1936 C1933 1.384 . S
N1937 C1929 1.427 . S
N1937 C1935 1.384 . S
H1938 C1944 0.930 . S
H1939 C1948 0.930 . S
H1940 C1953 0.929 . S
H1941 C1951 0.929 . S
H1942 C1946 0.929 1_655 S
H1943 C1952 0.929 1_455 S
C1944 H1938 0.930 . S
C1944 C1945 1.367 . S
C1944 C1952 1.378 . S
C1945 C1944 1.367 . S
C1945 C1953 1.433 . S
C1946 H1942 0.929 1_455 S
C1946 C1948 1.378 . S
C1946 C1950 1.350 . S
C1947 C1950 1.463 1_655 S
C1947 C1952 1.350 . S
C1947 N1955 1.427 . S
C1948 H1939 0.930 . S
C1948 C1946 1.378 . S
C1948 C1949 1.367 . S
C1949 C1948 1.367 . S
C1949 C1951 1.433 . S
C1950 C1946 1.350 . S
C1950 C1947 1.463 1_455 S
C1950 N1954 1.427 . S
C1951 H1941 0.929 . S
C1951 C1949 1.433 . S
C1951 N1954 1.384 . S
C1952 H1943 0.929 1_655 S
C1952 C1944 1.378 . S
C1952 C1947 1.350 . S
C1953 H1940 0.929 . S
C1953 C1945 1.433 . S
C1953 N1955 1.384 . S
N1954 C1950 1.427 . S
N1954 C1951 1.384 . S
N1955 C1947 1.427 . S
N1955 C1953 1.384 . S
H1956 C1962 0.930 . S
H1957 C1966 0.930 . S
H1958 C1971 0.929 . S
H1959 C1969 0.929 . S
H1960 C1964 0.929 . S
H1961 C1970 0.929 . S
C1962 H1956 0.930 . S
C1962 C1963 1.367 . S
C1962 C1970 1.378 . S
C1963 C1962 1.367 . S
C1963 C1971 1.433 . S
C1964 H1960 0.929 . S
C1964 C1966 1.378 . S
C1964 C1968 1.350 . S
C1965 C1968 1.463 1_655 S
C1965 C1970 1.350 . S
C1965 N1973 1.427 . S
C1966 H1957 0.930 . S
C1966 C1964 1.378 . S
C1966 C1967 1.367 . S
C1967 C1966 1.367 . S
C1967 C1969 1.433 . S
C1968 C1964 1.350 . S
C1968 C1965 1.463 1_455 S
C1968 N1972 1.427 . S
C1969 H1959 0.929 . S
C1969 C1967 1.433 . S
C1969 N1972 1.384 . S
C1970 H1961 0.929 . S
C1970 C1962 1.378 . S
C1970 C1965 1.350 . S
C1971 H1958 0.929 . S
C1971 C1963 1.433 . S
C1971 N1973 1.384 . S
N1972 C1968 1.427 . S
N1972 C1969 1.384 . S
N1973 C1965 1.427 . S
N1973 C1971 1.384 . S
H1974 C1980 0.930 . S
H1975 C1984 0.930 . S
H1976 C1989 0.929 . S
H1977 C1987 0.929 . S
H1978 C1982 0.929 . S
H1979 C1988 0.929 . S
C1980 H1974 0.930 . S
C1980 C1981 1.367 . S
C1980 C1988 1.378 . S
C1981 C1980 1.367 . S
C1981 C1989 1.433 . S
C1982 H1978 0.929 . S
C1982 C1984 1.378 . S
C1982 C1986 1.350 . S
C1983 C1986 1.463 . S
C1983 C1988 1.350 . S
C1983 N1991 1.427 . S
C1984 H1975 0.930 . S
C1984 C1982 1.378 . S
C1984 C1985 1.367 . S
C1985 C1984 1.367 . S
C1985 C1987 1.433 . S
C1986 C1982 1.350 . S
C1986 C1983 1.463 . S
C1986 N1990 1.427 . S
C1987 H1977 0.929 . S
C1987 C1985 1.433 . S
C1987 N1990 1.384 . S
C1988 H1979 0.929 . S
C1988 C1980 1.378 . S
C1988 C1983 1.350 . S
C1989 H1976 0.929 . S
C1989 C1981 1.433 . S
C1989 N1991 1.384 . S
N1990 C1986 1.427 . S
N1990 C1987 1.384 . S
N1991 C1983 1.427 . S
N1991 C1989 1.384 . S
H1992 C1998 0.930 . S
H1993 C2002 0.930 . S
H1994 C2007 0.929 . S
H1995 C2005 0.929 . S
H1996 C2000 0.929 . S
H1997 C2006 0.929 . S
C1998 H1992 0.930 . S
C1998 C1999 1.367 . S
C1998 C2006 1.378 . S
C1999 C1998 1.367 . S
C1999 C2007 1.433 . S
C2000 H1996 0.929 . S
C2000 C2002 1.378 . S
C2000 C2004 1.350 . S
C2001 C2004 1.463 . S
C2001 C2006 1.350 . S
C2001 N2009 1.427 . S
C2002 H1993 0.930 . S
C2002 C2000 1.378 . S
C2002 C2003 1.367 . S
C2003 C2002 1.367 . S
C2003 C2005 1.433 . S
C2004 C2000 1.350 . S
C2004 C2001 1.463 . S
C2004 N2008 1.427 . S
C2005 H1995 0.929 . S
C2005 C2003 1.433 . S
C2005 N2008 1.384 . S
C2006 H1997 0.929 . S
C2006 C1998 1.378 . S
C2006 C2001 1.350 . S
C2007 H1994 0.929 . S
C2007 C1999 1.433 . S
C2007 N2009 1.384 . S
N2008 C2004 1.427 . S
N2008 C2005 1.384 . S
N2009 C2001 1.427 . S
N2009 C2007 1.384 . S
H2010 C2016 0.930 . S
H2011 C2020 0.930 . S
H2012 C2025 0.929 . S
H2013 C2023 0.929 . S
H2014 C2018 0.929 . S
H2015 C2024 0.929 . S
C2016 H2010 0.930 . S
C2016 C2017 1.367 . S
C2016 C2024 1.378 . S
C2017 C2016 1.367 . S
C2017 C2025 1.433 . S
C2018 H2014 0.929 . S
C2018 C2020 1.378 . S
C2018 C2022 1.350 . S
C2019 C2022 1.463 . S
C2019 C2024 1.350 . S
C2019 N2027 1.427 . S
C2020 H2011 0.930 . S
C2020 C2018 1.378 . S
C2020 C2021 1.367 . S
C2021 C2020 1.367 . S
C2021 C2023 1.433 . S
C2022 C2018 1.350 . S
C2022 C2019 1.463 . S
C2022 N2026 1.427 . S
C2023 H2013 0.929 . S
C2023 C2021 1.433 . S
C2023 N2026 1.384 . S
C2024 H2015 0.929 . S
C2024 C2016 1.378 . S
C2024 C2019 1.350 . S
C2025 H2012 0.929 . S
C2025 C2017 1.433 . S
C2025 N2027 1.384 . S
N2026 C2022 1.427 . S
N2026 C2023 1.384 . S
N2027 C2019 1.427 . S
N2027 C2025 1.384 . S
H2028 C2034 0.930 . S
H2029 C2038 0.930 . S
H2030 C2043 0.929 . S
H2031 C2041 0.929 . S
H2032 C2036 0.929 1_455 S
H2033 C2042 0.929 1_655 S
C2034 H2028 0.930 . S
C2034 C2035 1.367 . S
C2034 C2042 1.378 . S
C2035 C2034 1.367 . S
C2035 C2043 1.433 . S
C2036 H2032 0.929 1_655 S
C2036 C2038 1.378 . S
C2036 C2040 1.350 . S
C2037 C2040 1.463 1_455 S
C2037 C2042 1.350 . S
C2037 N2045 1.427 . S
C2038 H2029 0.930 . S
C2038 C2036 1.378 . S
C2038 C2039 1.367 . S
C2039 C2038 1.367 . S
C2039 C2041 1.433 . S
C2040 C2036 1.350 . S
C2040 C2037 1.463 1_655 S
C2040 N2044 1.427 . S
C2041 H2031 0.929 . S
C2041 C2039 1.433 . S
C2041 N2044 1.384 . S
C2042 H2033 0.929 1_455 S
C2042 C2034 1.378 . S
C2042 C2037 1.350 . S
C2043 H2030 0.929 . S
C2043 C2035 1.433 . S
C2043 N2045 1.384 . S
N2044 C2040 1.427 . S
N2044 C2041 1.384 . S
N2045 C2037 1.427 . S
N2045 C2043 1.384 . S
H2046 C2052 0.930 . S
H2047 C2056 0.930 . S
H2048 C2061 0.929 . S
H2049 C2059 0.929 . S
H2050 C2054 0.929 . S
H2051 C2060 0.929 . S
C2052 H2046 0.930 . S
C2052 C2053 1.367 . S
C2052 C2060 1.378 . S
C2053 C2052 1.367 . S
C2053 C2061 1.433 . S
C2054 H2050 0.929 . S
C2054 C2056 1.378 . S
C2054 C2058 1.350 . S
C2055 C2058 1.463 1_655 S
C2055 C2060 1.350 . S
C2055 N2063 1.427 . S
C2056 H2047 0.930 . S
C2056 C2054 1.378 . S
C2056 C2057 1.367 . S
C2057 C2056 1.367 . S
C2057 C2059 1.433 . S
C2058 C2054 1.350 . S
C2058 C2055 1.463 1_455 S
C2058 N2062 1.427 . S
C2059 H2049 0.929 . S
C2059 C2057 1.433 . S
C2059 N2062 1.384 . S
C2060 H2051 0.929 . S
C2060 C2052 1.378 . S
C2060 C2055 1.350 . S
C2061 H2048 0.929 . S
C2061 C2053 1.433 . S
C2061 N2063 1.384 . S
N2062 C2058 1.427 . S
N2062 C2059 1.384 . S
N2063 C2055 1.427 . S
N2063 C2061 1.384 . S
H2064 C2070 0.930 . S
H2065 C2074 0.930 . S
H2066 C2079 0.929 . S
H2067 C2077 0.929 . S
H2068 C2072 0.929 . S
H2069 C2078 0.929 . S
C2070 H2064 0.930 . S
C2070 C2071 1.367 . S
C2070 C2078 1.378 . S
C2071 C2070 1.367 . S
C2071 C2079 1.433 . S
C2072 H2068 0.929 . S
C2072 C2074 1.378 . S
C2072 C2076 1.350 . S
C2073 C2076 1.463 . S
C2073 C2078 1.350 . S
C2073 N2081 1.427 . S
C2074 H2065 0.930 . S
C2074 C2072 1.378 . S
C2074 C2075 1.367 . S
C2075 C2074 1.367 . S
C2075 C2077 1.433 . S
C2076 C2072 1.350 . S
C2076 C2073 1.463 . S
C2076 N2080 1.427 . S
C2077 H2067 0.929 . S
C2077 C2075 1.433 . S
C2077 N2080 1.384 . S
C2078 H2069 0.929 . S
C2078 C2070 1.378 . S
C2078 C2073 1.350 . S
C2079 H2066 0.929 . S
C2079 C2071 1.433 . S
C2079 N2081 1.384 . S
N2080 C2076 1.427 . S
N2080 C2077 1.384 . S
N2081 C2073 1.427 . S
N2081 C2079 1.384 . S
H2082 C2088 0.930 . S
H2083 C2092 0.930 . S
H2084 C2097 0.929 . S
H2085 C2095 0.929 . S
H2086 C2090 0.929 . S
H2087 C2096 0.929 . S
C2088 H2082 0.930 . S
C2088 C2089 1.367 . S
C2088 C2096 1.378 . S
C2089 C2088 1.367 . S
C2089 C2097 1.433 . S
C2090 H2086 0.929 . S
C2090 C2092 1.378 . S
C2090 C2094 1.350 . S
C2091 C2094 1.463 1_655 S
C2091 C2096 1.350 . S
C2091 N2099 1.427 . S
C2092 H2083 0.930 . S
C2092 C2090 1.378 . S
C2092 C2093 1.367 . S
C2093 C2092 1.367 . S
C2093 C2095 1.433 . S
C2094 C2090 1.350 . S
C2094 C2091 1.463 1_455 S
C2094 N2098 1.427 . S
C2095 H2085 0.929 . S
C2095 C2093 1.433 . S
C2095 N2098 1.384 . S
C2096 H2087 0.929 . S
C2096 C2088 1.378 . S
C2096 C2091 1.350 . S
C2097 H2084 0.929 . S
C2097 C2089 1.433 . S
C2097 N2099 1.384 . S
N2098 C2094 1.427 . S
N2098 C2095 1.384 . S
N2099 C2091 1.427 . S
N2099 C2097 1.384 . S
H2100 C2106 0.930 . S
H2101 C2110 0.930 . S
H2102 C2115 0.929 . S
H2103 C2113 0.929 . S
H2104 C2108 0.929 . S
H2105 C2114 0.929 . S
C2106 H2100 0.930 . S
C2106 C2107 1.367 . S
C2106 C2114 1.378 . S
C2107 C2106 1.367 . S
C2107 C2115 1.433 . S
C2108 H2104 0.929 . S
C2108 C2110 1.378 . S
C2108 C2112 1.350 . S
C2109 C2112 1.463 1_655 S
C2109 C2114 1.350 . S
C2109 N2117 1.427 . S
C2110 H2101 0.930 . S
C2110 C2108 1.378 . S
C2110 C2111 1.367 . S
C2111 C2110 1.367 . S
C2111 C2113 1.433 . S
C2112 C2108 1.350 . S
C2112 C2109 1.463 1_455 S
C2112 N2116 1.427 . S
C2113 H2103 0.929 . S
C2113 C2111 1.433 . S
C2113 N2116 1.384 . S
C2114 H2105 0.929 . S
C2114 C2106 1.378 . S
C2114 C2109 1.350 . S
C2115 H2102 0.929 . S
C2115 C2107 1.433 . S
C2115 N2117 1.384 . S
N2116 C2112 1.427 . S
N2116 C2113 1.384 . S
N2117 C2109 1.427 . S
N2117 C2115 1.384 . S
H2118 C2124 0.930 . S
H2119 C2128 0.930 . S
H2120 C2133 0.929 . S
H2121 C2131 0.929 . S
H2122 C2126 0.929 . S
H2123 C2132 0.929 . S
C2124 H2118 0.930 . S
C2124 C2125 1.367 . S
C2124 C2132 1.378 . S
C2125 C2124 1.367 . S
C2125 C2133 1.433 . S
C2126 H2122 0.929 . S
C2126 C2128 1.378 . S
C2126 C2130 1.350 . S
C2127 C2130 1.463 . S
C2127 C2132 1.350 . S
C2127 N2135 1.427 . S
C2128 H2119 0.930 . S
C2128 C2126 1.378 . S
C2128 C2129 1.367 . S
C2129 C2128 1.367 . S
C2129 C2131 1.433 . S
C2130 C2126 1.350 . S
C2130 C2127 1.463 . S
C2130 N2134 1.427 . S
C2131 H2121 0.929 . S
C2131 C2129 1.433 . S
C2131 N2134 1.384 . S
C2132 H2123 0.929 . S
C2132 C2124 1.378 . S
C2132 C2127 1.350 . S
C2133 H2120 0.929 . S
C2133 C2125 1.433 . S
C2133 N2135 1.384 . S
N2134 C2130 1.427 . S
N2134 C2131 1.384 . S
N2135 C2127 1.427 . S
N2135 C2133 1.384 . S
H2136 C2142 0.930 . S
H2137 C2146 0.930 . S
H2138 C2151 0.929 . S
H2139 C2149 0.929 . S
H2140 C2144 0.929 . S
H2141 C2150 0.929 . S
C2142 H2136 0.930 . S
C2142 C2143 1.367 . S
C2142 C2150 1.378 . S
C2143 C2142 1.367 . S
C2143 C2151 1.433 . S
C2144 H2140 0.929 . S
C2144 C2146 1.378 . S
C2144 C2148 1.350 . S
C2145 C2148 1.463 . S
C2145 C2150 1.350 . S
C2145 N2153 1.427 . S
C2146 H2137 0.930 . S
C2146 C2144 1.378 . S
C2146 C2147 1.367 . S
C2147 C2146 1.367 . S
C2147 C2149 1.433 . S
C2148 C2144 1.350 . S
C2148 C2145 1.463 . S
C2148 N2152 1.427 . S
C2149 H2139 0.929 . S
C2149 C2147 1.433 . S
C2149 N2152 1.384 . S
C2150 H2141 0.929 . S
C2150 C2142 1.378 . S
C2150 C2145 1.350 . S
C2151 H2138 0.929 . S
C2151 C2143 1.433 . S
C2151 N2153 1.384 . S
N2152 C2148 1.427 . S
N2152 C2149 1.384 . S
N2153 C2145 1.427 . S
N2153 C2151 1.384 . S
H2154 C2160 0.930 . S
H2155 C2164 0.930 . S
H2156 C2169 0.929 . S
H2157 C2167 0.929 . S
H2158 C2162 0.929 . S
H2159 C2168 0.929 . S
C2160 H2154 0.930 . S
C2160 C2161 1.367 . S
C2160 C2168 1.378 . S
C2161 C2160 1.367 . S
C2161 C2169 1.433 . S
C2162 H2158 0.929 . S
C2162 C2164 1.378 . S
C2162 C2166 1.350 . S
C2163 C2166 1.463 . S
C2163 C2168 1.350 . S
C2163 N2171 1.427 . S
C2164 H2155 0.930 . S
C2164 C2162 1.378 . S
C2164 C2165 1.367 . S
C2165 C2164 1.367 . S
C2165 C2167 1.433 . S
C2166 C2162 1.350 . S
C2166 C2163 1.463 . S
C2166 N2170 1.427 . S
C2167 H2157 0.929 . S
C2167 C2165 1.433 . S
C2167 N2170 1.384 . S
C2168 H2159 0.929 . S
C2168 C2160 1.378 . S
C2168 C2163 1.350 . S
C2169 H2156 0.929 . S
C2169 C2161 1.433 . S
C2169 N2171 1.384 . S
N2170 C2166 1.427 . S
N2170 C2167 1.384 . S
N2171 C2163 1.427 . S
N2171 C2169 1.384 . S
H2172 C2178 0.930 . S
H2173 C2182 0.930 . S
H2174 C2187 0.929 . S
H2175 C2185 0.929 . S
H2176 C2180 0.929 1_655 S
H2177 C2186 0.929 1_455 S
C2178 H2172 0.930 . S
C2178 C2179 1.367 . S
C2178 C2186 1.378 . S
C2179 C2178 1.367 . S
C2179 C2187 1.433 . S
C2180 H2176 0.929 1_455 S
C2180 C2182 1.378 . S
C2180 C2184 1.350 . S
C2181 C2184 1.463 1_655 S
C2181 C2186 1.350 . S
C2181 N2189 1.427 . S
C2182 H2173 0.930 . S
C2182 C2180 1.378 . S
C2182 C2183 1.367 . S
C2183 C2182 1.367 . S
C2183 C2185 1.433 . S
C2184 C2180 1.350 . S
C2184 C2181 1.463 1_455 S
C2184 N2188 1.427 . S
C2185 H2175 0.929 . S
C2185 C2183 1.433 . S
C2185 N2188 1.384 . S
C2186 H2177 0.929 1_655 S
C2186 C2178 1.378 . S
C2186 C2181 1.350 . S
C2187 H2174 0.929 . S
C2187 C2179 1.433 . S
C2187 N2189 1.384 . S
N2188 C2184 1.427 . S
N2188 C2185 1.384 . S
N2189 C2181 1.427 . S
N2189 C2187 1.384 . S
H2190 C2196 0.930 . S
H2191 C2200 0.930 . S
H2192 C2205 0.929 . S
H2193 C2203 0.929 . S
H2194 C2198 0.956 . S
H2195 C2204 0.956 . S
C2196 H2190 0.930 . S
C2196 C2197 1.367 . S
C2196 C2204 1.378 . S
C2197 C2196 1.367 . S
C2197 C2205 1.433 . S
C2198 H2194 0.956 . S
C2198 C2200 1.378 . S
C2198 C2202 1.350 . S
C2199 C2202 1.463 1_655 S
C2199 C2204 1.350 . S
C2199 N2207 1.427 . S
C2200 H2191 0.930 . S
C2200 C2198 1.378 . S
C2200 C2201 1.367 . S
C2201 C2200 1.367 . S
C2201 C2203 1.433 . S
C2202 C2198 1.350 . S
C2202 C2199 1.463 1_455 S
C2202 N2206 1.427 . S
C2203 H2193 0.929 . S
C2203 C2201 1.433 . S
C2203 N2206 1.384 . S
C2204 H2195 0.956 . S
C2204 C2196 1.378 . S
C2204 C2199 1.350 . S
C2205 H2192 0.929 . S
C2205 C2197 1.433 . S
C2205 N2207 1.384 . S
N2206 C2202 1.427 . S
N2206 C2203 1.384 . S
N2207 C2199 1.427 . S
N2207 C2205 1.384 . S
H2208 C2214 0.930 . S
H2209 C2218 0.930 . S
H2210 C2223 0.929 . S
H2211 C2221 0.929 . S
H2212 C2216 0.929 . S
H2213 C2222 0.929 . S
C2214 H2208 0.930 . S
C2214 C2215 1.367 . S
C2214 C2222 1.378 . S
C2215 C2214 1.367 . S
C2215 C2223 1.433 . S
C2216 H2212 0.929 . S
C2216 C2218 1.378 . S
C2216 C2220 1.350 . S
C2217 C2220 1.463 1_565 S
C2217 C2222 1.350 . S
C2217 N2225 1.427 . S
C2218 H2209 0.930 . S
C2218 C2216 1.378 . S
C2218 C2219 1.367 . S
C2219 C2218 1.367 . S
C2219 C2221 1.433 . S
C2220 C2216 1.350 . S
C2220 C2217 1.463 1_545 S
C2220 N2224 1.427 . S
C2221 H2211 0.929 . S
C2221 C2219 1.433 . S
C2221 N2224 1.384 . S
C2222 H2213 0.929 . S
C2222 C2214 1.378 . S
C2222 C2217 1.350 . S
C2223 H2210 0.929 . S
C2223 C2215 1.433 . S
C2223 N2225 1.384 . S
N2224 C2220 1.427 . S
N2224 C2221 1.384 . S
N2225 C2217 1.427 . S
N2225 C2223 1.384 . S
H2226 C2232 0.930 . S
H2227 C2236 0.930 . S
H2228 C2241 0.929 . S
H2229 C2239 0.929 . S
H2230 C2234 0.929 . S
H2231 C2240 0.929 . S
C2232 H2226 0.930 . S
C2232 C2233 1.367 . S
C2232 C2240 1.378 . S
C2233 C2232 1.367 . S
C2233 C2241 1.433 . S
C2234 H2230 0.929 . S
C2234 C2236 1.378 . S
C2234 C2238 1.350 . S
C2235 C2238 1.463 . S
C2235 C2240 1.350 . S
C2235 N2243 1.427 . S
C2236 H2227 0.930 . S
C2236 C2234 1.378 . S
C2236 C2237 1.367 . S
C2237 C2236 1.367 . S
C2237 C2239 1.433 . S
C2238 C2234 1.350 . S
C2238 C2235 1.463 . S
C2238 N2242 1.427 . S
C2239 H2229 0.929 . S
C2239 C2237 1.433 . S
C2239 N2242 1.384 . S
C2240 H2231 0.929 . S
C2240 C2232 1.378 . S
C2240 C2235 1.350 . S
C2241 H2228 0.929 . S
C2241 C2233 1.433 . S
C2241 N2243 1.384 . S
N2242 C2238 1.427 . S
N2242 C2239 1.384 . S
N2243 C2235 1.427 . S
N2243 C2241 1.384 . S
H2244 C2250 0.930 . S
H2245 C2254 0.930 . S
H2246 C2259 0.929 . S
H2247 C2257 0.929 . S
H2248 C2252 0.935 . S
H2249 C2258 0.935 . S
C2250 H2244 0.930 . S
C2250 C2251 1.367 . S
C2250 C2258 1.378 . S
C2251 C2250 1.367 . S
C2251 C2259 1.433 . S
C2252 H2248 0.935 . S
C2252 C2254 1.378 . S
C2252 C2256 1.350 . S
C2253 C2256 1.463 1_565 S
C2253 C2258 1.350 . S
C2253 N2261 1.427 . S
C2254 H2245 0.930 . S
C2254 C2252 1.378 . S
C2254 C2255 1.367 . S
C2255 C2254 1.367 . S
C2255 C2257 1.433 . S
C2256 C2252 1.350 . S
C2256 C2253 1.463 1_545 S
C2256 N2260 1.427 . S
C2257 H2247 0.929 . S
C2257 C2255 1.433 . S
C2257 N2260 1.384 . S
C2258 H2249 0.935 . S
C2258 C2250 1.378 . S
C2258 C2253 1.350 . S
C2259 H2246 0.929 . S
C2259 C2251 1.433 . S
C2259 N2261 1.384 . S
N2260 C2256 1.427 . S
N2260 C2257 1.384 . S
N2261 C2253 1.427 . S
N2261 C2259 1.384 . S
H2262 C2268 0.930 . S
H2263 C2272 0.930 . S
H2264 C2277 0.929 . S
H2265 C2275 0.929 . S
H2266 C2270 0.929 1_554 S
H2267 C2276 0.929 1_556 S
C2268 H2262 0.930 . S
C2268 C2269 1.367 . S
C2268 C2276 1.378 . S
C2269 C2268 1.367 . S
C2269 C2277 1.433 . S
C2270 H2266 0.929 1_556 S
C2270 C2272 1.378 . S
C2270 C2274 1.350 . S
C2271 C2274 1.463 1_554 S
C2271 C2276 1.350 . S
C2271 N2279 1.427 . S
C2272 H2263 0.930 . S
C2272 C2270 1.378 . S
C2272 C2273 1.367 . S
C2273 C2272 1.367 . S
C2273 C2275 1.433 . S
C2274 C2270 1.350 . S
C2274 C2271 1.463 1_556 S
C2274 N2278 1.427 . S
C2275 H2265 0.929 . S
C2275 C2273 1.433 . S
C2275 N2278 1.384 . S
C2276 H2267 0.929 1_554 S
C2276 C2268 1.378 . S
C2276 C2271 1.350 . S
C2277 H2264 0.929 . S
C2277 C2269 1.433 . S
C2277 N2279 1.384 . S
N2278 C2274 1.427 . S
N2278 C2275 1.384 . S
N2279 C2271 1.427 . S
N2279 C2277 1.384 . S
H2280 C2286 0.930 . S
H2281 C2290 0.930 . S
H2282 C2295 0.929 . S
H2283 C2293 0.929 . S
H2284 C2288 0.929 . S
H2285 C2294 0.929 . S
C2286 H2280 0.930 . S
C2286 C2287 1.367 . S
C2286 C2294 1.378 . S
C2287 C2286 1.367 . S
C2287 C2295 1.433 . S
C2288 H2284 0.929 . S
C2288 C2290 1.378 . S
C2288 C2292 1.350 . S
C2289 C2292 1.463 1_565 S
C2289 C2294 1.350 . S
C2289 N2297 1.427 . S
C2290 H2281 0.930 . S
C2290 C2288 1.378 . S
C2290 C2291 1.367 . S
C2291 C2290 1.367 . S
C2291 C2293 1.433 . S
C2292 C2288 1.350 . S
C2292 C2289 1.463 1_545 S
C2292 N2296 1.427 . S
C2293 H2283 0.929 . S
C2293 C2291 1.433 . S
C2293 N2296 1.384 . S
C2294 H2285 0.929 . S
C2294 C2286 1.378 . S
C2294 C2289 1.350 . S
C2295 H2282 0.929 . S
C2295 C2287 1.433 . S
C2295 N2297 1.384 . S
N2296 C2292 1.427 . S
N2296 C2293 1.384 . S
N2297 C2289 1.427 . S
N2297 C2295 1.384 . S
H2298 C2304 0.930 . S
H2299 C2308 0.930 . S
H2300 C2313 0.929 . S
H2301 C2311 0.929 . S
H2302 C2306 0.929 . S
H2303 C2312 0.929 . S
C2304 H2298 0.930 . S
C2304 C2305 1.367 . S
C2304 C2312 1.378 . S
C2305 C2304 1.367 . S
C2305 C2313 1.433 . S
C2306 H2302 0.929 . S
C2306 C2308 1.378 . S
C2306 C2310 1.350 . S
C2307 C2310 1.463 . S
C2307 C2312 1.350 . S
C2307 N2315 1.427 . S
C2308 H2299 0.930 . S
C2308 C2306 1.378 . S
C2308 C2309 1.367 . S
C2309 C2308 1.367 . S
C2309 C2311 1.433 . S
C2310 C2306 1.350 . S
C2310 C2307 1.463 . S
C2310 N2314 1.427 . S
C2311 H2301 0.929 . S
C2311 C2309 1.433 . S
C2311 N2314 1.384 . S
C2312 H2303 0.929 . S
C2312 C2304 1.378 . S
C2312 C2307 1.350 . S
C2313 H2300 0.929 . S
C2313 C2305 1.433 . S
C2313 N2315 1.384 . S
N2314 C2310 1.427 . S
N2314 C2311 1.384 . S
N2315 C2307 1.427 . S
N2315 C2313 1.384 . S
H2316 C2322 0.930 . S
H2317 C2326 0.930 . S
H2318 C2331 0.929 . S
H2319 C2329 0.929 . S
H2320 C2324 0.929 . S
H2321 C2330 0.929 . S
C2322 H2316 0.930 . S
C2322 C2323 1.367 . S
C2322 C2330 1.378 . S
C2323 C2322 1.367 . S
C2323 C2331 1.433 . S
C2324 H2320 0.929 . S
C2324 C2326 1.378 . S
C2324 C2328 1.350 . S
C2325 C2328 1.463 1_545 S
C2325 C2330 1.350 . S
C2325 N2333 1.427 . S
C2326 H2317 0.930 . S
C2326 C2324 1.378 . S
C2326 C2327 1.367 . S
C2327 C2326 1.367 . S
C2327 C2329 1.433 . S
C2328 C2324 1.350 . S
C2328 C2325 1.463 1_565 S
C2328 N2332 1.427 . S
C2329 H2319 0.929 . S
C2329 C2327 1.433 . S
C2329 N2332 1.384 . S
C2330 H2321 0.929 . S
C2330 C2322 1.378 . S
C2330 C2325 1.350 . S
C2331 H2318 0.929 . S
C2331 C2323 1.433 . S
C2331 N2333 1.384 . S
N2332 C2328 1.427 . S
N2332 C2329 1.384 . S
N2333 C2325 1.427 . S
N2333 C2331 1.384 . S
H2334 C2340 0.930 . S
H2335 C2344 0.930 . S
H2336 C2349 0.929 . S
H2337 C2347 0.929 . S
H2338 C2342 0.929 . S
H2339 C2348 0.929 . S
C2340 H2334 0.930 . S
C2340 C2341 1.367 . S
C2340 C2348 1.378 . S
C2341 C2340 1.367 . S
C2341 C2349 1.433 . S
C2342 H2338 0.929 . S
C2342 C2344 1.378 . S
C2342 C2346 1.350 . S
C2343 C2346 1.463 1_556 S
C2343 C2348 1.350 . S
C2343 N2351 1.427 . S
C2344 H2335 0.930 . S
C2344 C2342 1.378 . S
C2344 C2345 1.367 . S
C2345 C2344 1.367 . S
C2345 C2347 1.433 . S
C2346 C2342 1.350 . S
C2346 C2343 1.463 1_554 S
C2346 N2350 1.427 . S
C2347 H2337 0.929 . S
C2347 C2345 1.433 . S
C2347 N2350 1.384 . S
C2348 H2339 0.929 . S
C2348 C2340 1.378 . S
C2348 C2343 1.350 . S
C2349 H2336 0.929 . S
C2349 C2341 1.433 . S
C2349 N2351 1.384 . S
N2350 C2346 1.427 . S
N2350 C2347 1.384 . S
N2351 C2343 1.427 . S
N2351 C2349 1.384 . S
H2352 C2358 0.930 . S
H2353 C2362 0.930 . S
H2354 C2367 0.929 . S
H2355 C2365 0.929 . S
H2356 C2360 0.929 . S
H2357 C2366 0.929 . S
C2358 H2352 0.930 . S
C2358 C2359 1.367 . S
C2358 C2366 1.378 . S
C2359 C2358 1.367 . S
C2359 C2367 1.433 . S
C2360 H2356 0.929 . S
C2360 C2362 1.378 . S
C2360 C2364 1.350 . S
C2361 C2364 1.463 . S
C2361 C2366 1.350 . S
C2361 N2369 1.427 . S
C2362 H2353 0.930 . S
C2362 C2360 1.378 . S
C2362 C2363 1.367 . S
C2363 C2362 1.367 . S
C2363 C2365 1.433 . S
C2364 C2360 1.350 . S
C2364 C2361 1.463 . S
C2364 N2368 1.427 . S
C2365 H2355 0.929 . S
C2365 C2363 1.433 . S
C2365 N2368 1.384 . S
C2366 H2357 0.929 . S
C2366 C2358 1.378 . S
C2366 C2361 1.350 . S
C2367 H2354 0.929 . S
C2367 C2359 1.433 . S
C2367 N2369 1.384 . S
N2368 C2364 1.427 . S
N2368 C2365 1.384 . S
N2369 C2361 1.427 . S
N2369 C2367 1.384 . S
H2370 C2376 0.930 . S
H2371 C2380 0.930 . S
H2372 C2385 0.929 . S
H2373 C2383 0.929 . S
H2374 C2378 0.929 . S
H2375 C2384 0.929 . S
C2376 H2370 0.930 . S
C2376 C2377 1.367 . S
C2376 C2384 1.378 . S
C2377 C2376 1.367 . S
C2377 C2385 1.433 . S
C2378 H2374 0.929 . S
C2378 C2380 1.378 . S
C2378 C2382 1.350 . S
C2379 C2382 1.463 1_554 S
C2379 C2384 1.350 . S
C2379 N2387 1.427 . S
C2380 H2371 0.930 . S
C2380 C2378 1.378 . S
C2380 C2381 1.367 . S
C2381 C2380 1.367 . S
C2381 C2383 1.433 . S
C2382 C2378 1.350 . S
C2382 C2379 1.463 1_556 S
C2382 N2386 1.427 . S
C2383 H2373 0.929 . S
C2383 C2381 1.433 . S
C2383 N2386 1.384 . S
C2384 H2375 0.929 . S
C2384 C2376 1.378 . S
C2384 C2379 1.350 . S
C2385 H2372 0.929 . S
C2385 C2377 1.433 . S
C2385 N2387 1.384 . S
N2386 C2382 1.427 . S
N2386 C2383 1.384 . S
N2387 C2379 1.427 . S
N2387 C2385 1.384 . S
H2388 C2394 0.930 . S
H2389 C2398 0.930 . S
H2390 C2403 0.929 . S
H2391 C2401 0.929 . S
H2392 C2396 0.929 . S
H2393 C2402 0.929 . S
C2394 H2388 0.930 . S
C2394 C2395 1.367 . S
C2394 C2402 1.378 . S
C2395 C2394 1.367 . S
C2395 C2403 1.433 . S
C2396 H2392 0.929 . S
C2396 C2398 1.378 . S
C2396 C2400 1.350 . S
C2397 C2400 1.463 . S
C2397 C2402 1.350 . S
C2397 N2405 1.427 . S
C2398 H2389 0.930 . S
C2398 C2396 1.378 . S
C2398 C2399 1.367 . S
C2399 C2398 1.367 . S
C2399 C2401 1.433 . S
C2400 C2396 1.350 . S
C2400 C2397 1.463 . S
C2400 N2404 1.427 . S
C2401 H2391 0.929 . S
C2401 C2399 1.433 . S
C2401 N2404 1.384 . S
C2402 H2393 0.929 . S
C2402 C2394 1.378 . S
C2402 C2397 1.350 . S
C2403 H2390 0.929 . S
C2403 C2395 1.433 . S
C2403 N2405 1.384 . S
N2404 C2400 1.427 . S
N2404 C2401 1.384 . S
N2405 C2397 1.427 . S
N2405 C2403 1.384 . S
H2406 C2412 0.930 . S
H2407 C2416 0.930 . S
H2408 C2421 0.929 . S
H2409 C2419 0.929 . S
H2410 C2414 0.929 . S
H2411 C2420 0.929 . S
C2412 H2406 0.930 . S
C2412 C2413 1.367 . S
C2412 C2420 1.378 . S
C2413 C2412 1.367 . S
C2413 C2421 1.433 . S
C2414 H2410 0.929 . S
C2414 C2416 1.378 . S
C2414 C2418 1.350 . S
C2415 C2418 1.463 . S
C2415 C2420 1.350 . S
C2415 N2423 1.427 . S
C2416 H2407 0.930 . S
C2416 C2414 1.378 . S
C2416 C2417 1.367 . S
C2417 C2416 1.367 . S
C2417 C2419 1.433 . S
C2418 C2414 1.350 . S
C2418 C2415 1.463 . S
C2418 N2422 1.427 . S
C2419 H2409 0.929 . S
C2419 C2417 1.433 . S
C2419 N2422 1.384 . S
C2420 H2411 0.929 . S
C2420 C2412 1.378 . S
C2420 C2415 1.350 . S
C2421 H2408 0.929 . S
C2421 C2413 1.433 . S
C2421 N2423 1.384 . S
N2422 C2418 1.427 . S
N2422 C2419 1.384 . S
N2423 C2415 1.427 . S
N2423 C2421 1.384 . S
H2424 C2430 0.930 . S
H2425 C2434 0.930 . S
H2426 C2439 0.929 . S
H2427 C2437 0.929 . S
H2428 C2432 0.929 . S
H2429 C2438 0.929 . S
C2430 H2424 0.930 . S
C2430 C2431 1.367 . S
C2430 C2438 1.378 . S
C2431 C2430 1.367 . S
C2431 C2439 1.433 . S
C2432 H2428 0.929 . S
C2432 C2434 1.378 . S
C2432 C2436 1.350 . S
C2433 C2436 1.463 . S
C2433 C2438 1.350 . S
C2433 N2441 1.427 . S
C2434 H2425 0.930 . S
C2434 C2432 1.378 . S
C2434 C2435 1.367 . S
C2435 C2434 1.367 . S
C2435 C2437 1.433 . S
C2436 C2432 1.350 . S
C2436 C2433 1.463 . S
C2436 N2440 1.427 . S
C2437 H2427 0.929 . S
C2437 C2435 1.433 . S
C2437 N2440 1.384 . S
C2438 H2429 0.929 . S
C2438 C2430 1.378 . S
C2438 C2433 1.350 . S
C2439 H2426 0.929 . S
C2439 C2431 1.433 . S
C2439 N2441 1.384 . S
N2440 C2436 1.427 . S
N2440 C2437 1.384 . S
N2441 C2433 1.427 . S
N2441 C2439 1.384 . S
H2442 C2448 0.930 . S
H2443 C2452 0.930 . S
H2444 C2457 0.929 . S
H2445 C2455 0.929 . S
H2446 C2450 0.929 . S
H2447 C2456 0.929 . S
C2448 H2442 0.930 . S
C2448 C2449 1.367 . S
C2448 C2456 1.378 . S
C2449 C2448 1.367 . S
C2449 C2457 1.433 . S
C2450 H2446 0.929 . S
C2450 C2452 1.378 . S
C2450 C2454 1.350 . S
C2451 C2454 1.463 1_554 S
C2451 C2456 1.350 . S
C2451 N2459 1.427 . S
C2452 H2443 0.930 . S
C2452 C2450 1.378 . S
C2452 C2453 1.367 . S
C2453 C2452 1.367 . S
C2453 C2455 1.433 . S
C2454 C2450 1.350 . S
C2454 C2451 1.463 1_556 S
C2454 N2458 1.427 . S
C2455 H2445 0.929 . S
C2455 C2453 1.433 . S
C2455 N2458 1.384 . S
C2456 H2447 0.929 . S
C2456 C2448 1.378 . S
C2456 C2451 1.350 . S
C2457 H2444 0.929 . S
C2457 C2449 1.433 . S
C2457 N2459 1.384 . S
N2458 C2454 1.427 . S
N2458 C2455 1.384 . S
N2459 C2451 1.427 . S
N2459 C2457 1.384 . S
H2460 C2466 0.930 . S
H2461 C2470 0.930 . S
H2462 C2475 0.929 . S
H2463 C2473 0.929 . S
H2464 C2468 0.929 . S
H2465 C2474 0.929 . S
C2466 H2460 0.930 . S
C2466 C2467 1.367 . S
C2466 C2474 1.378 . S
C2467 C2466 1.367 . S
C2467 C2475 1.433 . S
C2468 H2464 0.929 . S
C2468 C2470 1.378 . S
C2468 C2472 1.350 . S
C2469 C2472 1.463 . S
C2469 C2474 1.350 . S
C2469 N2477 1.427 . S
C2470 H2461 0.930 . S
C2470 C2468 1.378 . S
C2470 C2471 1.367 . S
C2471 C2470 1.367 . S
C2471 C2473 1.433 . S
C2472 C2468 1.350 . S
C2472 C2469 1.463 . S
C2472 N2476 1.427 . S
C2473 H2463 0.929 . S
C2473 C2471 1.433 . S
C2473 N2476 1.384 . S
C2474 H2465 0.929 . S
C2474 C2466 1.378 . S
C2474 C2469 1.350 . S
C2475 H2462 0.929 . S
C2475 C2467 1.433 . S
C2475 N2477 1.384 . S
N2476 C2472 1.427 . S
N2476 C2473 1.384 . S
N2477 C2469 1.427 . S
N2477 C2475 1.384 . S
H2478 C2484 0.930 . S
H2479 C2488 0.930 . S
H2480 C2493 0.929 . S
H2481 C2491 0.929 . S
H2482 C2486 0.929 . S
H2483 C2492 0.929 . S
C2484 H2478 0.930 . S
C2484 C2485 1.367 . S
C2484 C2492 1.378 . S
C2485 C2484 1.367 . S
C2485 C2493 1.433 . S
C2486 H2482 0.929 . S
C2486 C2488 1.378 . S
C2486 C2490 1.350 . S
C2487 C2490 1.463 . S
C2487 C2492 1.350 . S
C2487 N2495 1.427 . S
C2488 H2479 0.930 . S
C2488 C2486 1.378 . S
C2488 C2489 1.367 . S
C2489 C2488 1.367 . S
C2489 C2491 1.433 . S
C2490 C2486 1.350 . S
C2490 C2487 1.463 . S
C2490 N2494 1.427 . S
C2491 H2481 0.929 . S
C2491 C2489 1.433 . S
C2491 N2494 1.384 . S
C2492 H2483 0.929 . S
C2492 C2484 1.378 . S
C2492 C2487 1.350 . S
C2493 H2480 0.929 . S
C2493 C2485 1.433 . S
C2493 N2495 1.384 . S
N2494 C2490 1.427 . S
N2494 C2491 1.384 . S
N2495 C2487 1.427 . S
N2495 C2493 1.384 . S
C1063 N5 1.742 . S
C1067 N797 1.742 . S
C1081 N302 1.737 . S
C1085 N38 1.737 . S
C1099 N863 1.743 . S
C1103 N71 1.743 . S
C1117 N104 1.745 . S
C1121 N368 1.745 . S
C1135 N929 1.737 . S
C1139 N137 1.737 . S
C1153 N434 1.740 . S
C1157 N170 1.740 . S
C1171 N203 1.738 . S
C1175 N995 1.738 . S
C1189 N236 1.746 . S
C1193 N500 1.746 . S
C1207 N269 1.740 . S
C1211 N533 1.740 . S
C1225 N335 1.741 . S
C1229 N599 1.741 . S
C1243 N665 1.738 . S
C1247 N401 1.738 . S
C1261 N467 1.738 . S
C1265 N731 1.738 . S
C1279 N566 1.747 . S
C1283 N830 1.747 . S
C1297 N896 1.737 . S
C1301 N632 1.737 . S
C1315 N962 1.740 . S
C1319 N698 1.740 . S
C1333 N764 1.746 . S
C1337 N1028 1.746 . S
C1351 C28 0.728 . S
C1355 N839 0.667 . S
C1369 N344 0.668 . S
C1373 C61 0.728 . S
C1387 C94 0.704 . S
C1391 N905 0.660 . S
C1405 N278 0.662 . S
C1409 C127 0.695 . S
C1423 C160 0.685 . S
C1427 N1037 0.680 . S
C1441 C193 0.708 . S
C1445 N410 0.660 . S
C1459 N971 0.664 . S
C1463 C226 0.725 . S
C1477 N476 0.670 . S
C1481 C259 0.728 . S
C1495 N575 0.683 . S
C1499 C292 0.692 . S
C1513 N80 0.663 . S
C1517 C325 0.690 . S
C1531 C358 0.714 . S
C1535 N641 0.682 . S
C1549 C391 0.680 . S
C1553 N14 0.671 . S
C1567 N773 0.672 . S
C1571 C424 0.680 . S
C1585 N146 0.670 . S
C1589 C457 0.729 . S
C1603 C490 0.714 . S
C1607 N707 0.660 . S
C1621 C523 0.701 . S
C1625 N212 0.684 . S
C1639 N311 0.677 . S
C1643 C556 0.724 . S
C1657 N872 0.661 . S
C1661 C589 0.698 . S
C1675 N377 0.676 . S
C1679 C622 0.725 . S
C1693 C655 0.681 . S
C1697 N806 0.670 . S
C1711 N509 0.660 . S
C1715 C688 0.711 . S
C1729 C721 0.705 . S
C1733 N938 0.660 . S
C1747 N443 0.668 . S
C1751 C754 0.728 . S
C1765 C787 0.707 . S
C1769 N1004 0.660 . S
C1783 N47 0.662 . S
C1787 C820 0.722 . S
C1801 N608 0.660 . S
C1805 C853 0.709 . S
C1819 N113 0.682 . S
C1823 C886 0.689 . S
C1837 C919 0.728 . S
C1841 N542 0.672 . S
C1855 C952 0.712 . S
C1859 N245 0.660 . S
C1873 N674 0.676 . S
C1877 C985 0.726 . S
C1891 N179 0.683 . S
C1895 C1018 0.707 . S
C1909 C1051 0.723 . S
C1913 N740 0.663 . S
C1927 C602 1.170 . S
C1931 C8 1.180 . S
C1945 C635 1.166 . S
C1949 C41 1.172 . S
C1963 C536 1.166 . S
C1967 C74 1.177 . S
C1981 C569 1.165 . S
C1985 C107 1.176 . S
C1999 C140 1.176 . S
C2003 C734 1.165 . S
C2017 C767 1.165 . S
C2021 C173 1.175 . S
C2035 C206 1.179 . S
C2039 C668 1.169 . S
C2053 C701 1.179 . S
C2057 C239 1.173 . S
C2071 C866 1.165 . S
C2075 C272 1.174 . S
C2089 C305 1.176 . S
C2093 C899 1.165 . S
C2107 C338 1.177 . S
C2111 C800 1.165 . S
C2125 C371 1.165 . S
C2129 C833 1.176 . S
C2143 C998 1.168 . S
C2147 C404 1.179 . S
C2161 C437 1.175 . S
C2165 C1031 1.165 . S
C2179 C470 1.173 . S
C2183 C932 1.179 . S
C2197 C503 1.175 . S
C2201 C965 1.165 . S
C2215 C149 1.178 . S
C2219 C17 1.182 . S
C2233 C182 1.172 . S
C2237 C50 1.176 . S
C2251 C83 1.183 . S
C2255 C215 1.179 . S
C2269 C248 1.172 . S
C2273 C116 1.177 . S
C2287 C281 1.176 . S
C2291 C413 1.181 . S
C2305 C446 1.180 . S
C2309 C314 1.175 . S
C2323 C347 1.172 . S
C2327 C479 1.175 . S
C2341 C512 1.174 . S
C2345 C380 1.179 . S
C2359 C545 1.179 . S
C2363 C677 1.183 . S
C2377 C710 1.182 . S
C2381 C578 1.178 . S
C2395 C743 1.176 . S
C2399 C611 1.172 . S
C2413 C644 1.183 . S
C2417 C776 1.179 . S
C2431 C941 1.181 . S
C2435 C809 1.183 . S
C2449 C842 1.176 . S
C2453 C974 1.181 . S
C2467 C875 1.172 . S
C2471 C1007 1.176 . S
C2485 C908 1.180 . S
C2489 C1040 1.175 . S
