# Generated by pormake.
# Topology yfx, (5)-cn, num edge types: 1
# Building blocks:
#     Node 0, Type 0, BuildingBlock: XOMCOT_clean_sbu_0, # of connection points: 5
#     Node 1, Type 0, BuildingBlock: XOMCOT_clean_sbu_0, # of connection points: 5
#     Node 2, Type 0, BuildingBlock: XOMCOT_clean_sbu_0, # of connection points: 5
#     Node 3, Type 0, BuildingBlock: XOMCOT_clean_sbu_0, # of connection points: 5
#     Node 4, Type 0, BuildingBlock: XOMCOT_clean_sbu_0, # of connection points: 5
#     Node 5, Type 0, BuildingBlock: XOMCOT_clean_sbu_0, # of connection points: 5
#     Node 6, Type 0, BuildingBlock: XOMCOT_clean_sbu_0, # of connection points: 5
#     Node 7, Type 0, BuildingBlock: XOMCOT_clean_sbu_0, # of connection points: 5
#     Edge 8, Type (0, 0), BuildingBlock: XUDNAN_clean_linker_2, # of connection points: 2
#     Edge 9, Type (0, 0), BuildingBlock: XUDNAN_clean_linker_2, # of connection points: 2
#     Edge 10, Type (0, 0), BuildingBlock: XUDNAN_clean_linker_2, # of connection points: 2
#     Edge 11, Type (0, 0), BuildingBlock: XUDNAN_clean_linker_2, # of connection points: 2
#     Edge 12, Type (0, 0), BuildingBlock: XUDNAN_clean_linker_2, # of connection points: 2
#     Edge 13, Type (0, 0), BuildingBlock: XUDNAN_clean_linker_2, # of connection points: 2
#     Edge 14, Type (0, 0), BuildingBlock: XUDNAN_clean_linker_2, # of connection points: 2
#     Edge 15, Type (0, 0), BuildingBlock: XUDNAN_clean_linker_2, # of connection points: 2
#     Edge 16, Type (0, 0), BuildingBlock: XUDNAN_clean_linker_2, # of connection points: 2
#     Edge 17, Type (0, 0), BuildingBlock: XUDNAN_clean_linker_2, # of connection points: 2
#     Edge 18, Type (0, 0), BuildingBlock: XUDNAN_clean_linker_2, # of connection points: 2
#     Edge 19, Type (0, 0), BuildingBlock: XUDNAN_clean_linker_2, # of connection points: 2
#     Edge 20, Type (0, 0), BuildingBlock: XUDNAN_clean_linker_2, # of connection points: 2
#     Edge 21, Type (0, 0), BuildingBlock: XUDNAN_clean_linker_2, # of connection points: 2
#     Edge 22, Type (0, 0), BuildingBlock: XUDNAN_clean_linker_2, # of connection points: 2
#     Edge 23, Type (0, 0), BuildingBlock: XUDNAN_clean_linker_2, # of connection points: 2
#     Edge 24, Type (0, 0), BuildingBlock: XUDNAN_clean_linker_2, # of connection points: 2
#     Edge 25, Type (0, 0), BuildingBlock: XUDNAN_clean_linker_2, # of connection points: 2
#     Edge 26, Type (0, 0), BuildingBlock: XUDNAN_clean_linker_2, # of connection points: 2
#     Edge 27, Type (0, 0), BuildingBlock: XUDNAN_clean_linker_2, # of connection points: 2
# Relax obj value: 0.104
# Max RMSD: 0.108
# Mean RMSD: 0.108
data_MOF--net-yfx--node1-XOMCOT_clean_sbu_0--edge1-XUDNAN_clean_linker_2
_symmetry_space_group_name_H-M    P1
_symmetry_Int_Tables_number       1
_symmetry_cell_setting            triclinic
loop_
_symmetry_equiv_pos_as_xyz
'x, y, z'
_cell_length_a     35.023852
_cell_length_b     34.809822
_cell_length_c     29.026306
_cell_angle_alpha  90.114537
_cell_angle_beta   89.917059
_cell_angle_gamma 89.809267
loop_
_atom_site_label
_atom_site_type_symbol
_atom_site_fract_x
_atom_site_fract_y
_atom_site_fract_z
_atom_type_partial_charge
Co0 Co 0.21814 0.37209 0.0485 0.0
C1 C 0.29867 0.34376 0.04724 0.0
C2 C 0.28973 0.39172 0.09283 0.0
C3 C 0.32808 0.3836 0.09141 0.0
N4 N 0.27137 0.36716 0.06474 0.0
N5 N 0.33366 0.35369 0.06257 0.0
H6 H 0.29353 0.32184 1.02151 0.0
H7 H 0.27629 0.4152 0.11122 0.0
C8 C 0.21336 0.45105 1.00691 0.0
O9 O 0.19061 0.43797 0.97461 0.0
N10 N 0.16407 0.37943 0.03406 0.0
C11 C 0.14329 0.36822 0.99718 0.0
C12 C 0.109 0.38791 0.99715 0.0
C13 C 0.1415 0.40528 0.05617 0.0
N14 N 0.10803 0.41116 0.03422 0.0
C15 C 0.22061 0.32308 0.96818 0.0
C16 C 0.26957 0.36799 0.91682 0.0
C17 C 0.2573 0.33296 0.89792 0.0
C18 C 0.23251 0.31035 0.92457 0.0
C19 C 0.2566 0.37984 0.96019 0.0
N20 N 0.23133 0.35815 0.98488 0.0
H21 H 0.20248 0.3047 0.98862 0.0
H22 H 0.26868 0.40559 0.97475 0.0
H23 H 0.15255 0.34913 0.97018 0.0
H24 H 0.15068 0.42183 0.08574 0.0
O25 O 0.20898 0.32118 0.07383 0.0
O26 O 0.20577 0.3756 0.11327 0.0
O27 O 0.22692 0.4284 0.03737 0.0
C28 C 0.20399 0.33832 0.11334 0.0
H29 H 0.35041 0.39951 0.10868 0.0
H30 H 0.08705 0.3863 0.97101 0.0
H31 H 0.29012 0.38577 0.89899 0.0
H32 H 0.2222 0.28301 0.91198 0.0
Co33 Co 0.65756 0.22338 0.04981 0.0
C34 C 0.6953 0.29814 0.02754 0.0
C35 C 0.65398 0.30263 0.08209 0.0
C36 C 0.66987 0.33818 0.0753 0.0
N37 N 0.67004 0.27746 0.05243 0.0
N38 N 0.69559 0.33525 0.04098 0.0
H39 H 0.71315 0.28661 1.0004 0.0
H40 H 0.63197 0.29562 0.10682 0.0
C41 C 0.57585 0.22483 1.01344 0.0
O42 O 0.57856 0.19109 0.9934 0.0
N43 N 0.64376 0.16914 0.04853 0.0
C44 C 0.65897 0.14063 1.02266 0.0
C45 C 0.63732 0.10807 0.02779 0.0
C46 C 0.61367 0.15281 0.07035 0.0
N47 N 0.60885 0.11577 0.05757 0.0
C48 C 0.70896 0.2083 0.97625 0.0
C49 C 0.67017 0.24529 0.90645 0.0
C50 C 0.70687 0.23058 0.8974 0.0
C51 C 0.72608 0.2121 0.93341 0.0
C52 C 0.65404 0.24132 0.95064 0.0
N53 N 0.67325 0.22242 0.98494 0.0
H54 H 0.7254 0.19458 1.0029 0.0
H55 H 0.62713 0.25529 0.95735 0.0
H56 H 0.68326 0.14286 1.00015 0.0
H57 H 0.5941 0.16849 0.09241 0.0
O58 O 0.70622 0.21164 0.077 0.0
O59 O 0.65392 0.22367 0.11702 0.0
O60 O 0.6039 0.23946 0.03518 0.0
C61 C 0.69072 0.2181 0.11682 0.0
H62 H 0.66233 0.36447 0.0932 0.0
H63 H 0.64143 0.08105 1.00988 0.0
H64 H 0.65429 0.26034 0.88007 0.0
H65 H 0.75505 0.20166 0.92947 0.0
Co66 Co 0.80852 0.65955 0.04054 0.0
C67 C 0.73131 0.69703 0.03069 0.0
C68 C 0.72859 0.63944 0.05624 0.0
C69 C 0.69208 0.65387 0.05394 0.0
N70 N 0.75327 0.66613 0.04071 0.0
N71 N 0.69381 0.69009 0.03775 0.0
H72 H 0.74209 0.7246 1.0204 0.0
H73 H 0.73667 0.61128 0.06863 0.0
C74 C 0.7785 0.59374 0.98401 0.0
O75 O 0.75579 0.6173 0.96163 0.0
N76 N 0.86318 0.65091 0.0416 0.0
C77 C 0.89093 0.67159 1.0212 0.0
C78 C 0.9247 0.65096 0.0232 0.0
C79 C 0.88049 0.61841 0.05631 0.0
N80 N 0.91798 0.61764 0.04537 0.0
C81 C 0.80607 0.72281 0.97711 0.0
C82 C 0.81338 0.67992 0.89762 0.0
C83 C 0.79942 0.71771 0.89446 0.0
C84 C 0.7984 0.74002 0.93465 0.0
C85 C 0.82097 0.66404 0.94093 0.0
N86 N 0.81275 0.68422 0.98013 0.0
H87 H 0.80362 0.74006 1.0079 0.0
H88 H 0.83143 0.63489 0.94278 0.0
H89 H 0.8867 0.6989 1.00425 0.0
H90 H 0.86547 0.59483 0.07239 0.0
O91 O 0.81308 0.70451 0.08009 0.0
O92 O 0.80495 0.64483 0.10425 0.0
O93 O 0.80217 0.60645 1.01378 0.0
C94 C 0.80696 0.68119 0.11432 0.0
H95 H 0.66629 0.63867 0.06318 0.0
H96 H 0.95191 0.65943 1.00876 0.0
H97 H 0.81676 0.66228 0.8671 0.0
H98 H 0.78904 0.7697 0.93386 0.0
Co99 Co 0.36808 0.81346 0.04862 0.0
C100 C 0.33287 0.73676 0.04011 0.0
C101 C 0.38624 0.73453 0.07638 0.0
C102 C 0.37197 0.69784 0.07302 0.0
N103 N 0.3618 0.75875 0.05549 0.0
N104 N 0.33846 0.69927 0.05009 0.0
H105 H 0.30828 0.74804 1.02208 0.0
H106 H 0.41274 0.74292 0.09255 0.0
C107 C 0.44737 0.82123 1.01105 0.0
O108 O 0.43481 0.84713 0.98186 0.0
N109 N 0.37563 0.86878 0.04302 0.0
C110 C 0.36062 0.89397 1.01259 0.0
C111 C 0.37903 0.92865 1.017 0.0
C112 C 0.40243 0.88909 0.06616 0.0
N113 N 0.40536 0.9255 0.05051 0.0
C114 C 0.32032 0.81796 0.96948 0.0
C115 C 0.36162 0.76771 0.91482 0.0
C116 C 0.32426 0.77732 0.90211 0.0
C117 C 0.30409 0.80372 0.92915 0.0
C118 C 0.37684 0.78245 0.95591 0.0
N119 N 0.35608 0.80707 0.98316 0.0
H120 H 0.30255 0.83542 0.99159 0.0
H121 H 0.40364 0.77078 0.9677 0.0
H122 H 0.33918 0.88795 0.98716 0.0
H123 H 0.42131 0.8766 0.0916 0.0
O124 O 0.3169 0.82088 0.07091 0.0
O125 O 0.36789 0.81822 0.11559 0.0
O126 O 0.42434 0.80496 0.03896 0.0
C127 C 0.33081 0.81999 0.11229 0.0
H128 H 0.38573 0.67204 0.08559 0.0
H129 H 0.37432 0.95393 0.99606 0.0
H130 H 0.37767 0.74655 0.89532 0.0
H131 H 0.27494 0.81146 0.92069 0.0
Co132 Co 0.71794 0.87427 0.545 0.0
C133 C 0.79885 0.84319 0.53856 0.0
C134 C 0.79285 0.89404 0.5797 0.0
C135 C 0.83074 0.88407 0.5786 0.0
N136 N 0.77268 0.86874 0.55429 0.0
N137 N 0.83444 0.85219 0.55267 0.0
H138 H 0.79293 0.81909 0.51654 0.0
H139 H 0.78075 0.91866 0.59728 0.0
C140 C 0.75314 0.94046 0.49618 0.0
O141 O 0.77637 0.91626 0.47546 0.0
N142 N 0.66364 0.88235 0.53769 0.0
C143 C 0.63838 0.86203 0.51259 0.0
C144 C 0.60363 0.88096 0.51355 0.0
C145 C 0.64391 0.91278 0.55422 0.0
N146 N 0.60727 0.91267 0.53991 0.0
C147 C 0.72748 0.81326 0.4809 0.0
C148 C 0.71593 0.85288 0.39983 0.0
C149 C 0.72509 0.81356 0.3978 0.0
C150 C 0.73058 0.79396 0.43924 0.0
C151 C 0.71291 0.87135 0.443 0.0
N152 N 0.72076 0.85188 0.48289 0.0
H153 H 0.73175 0.79675 0.51182 0.0
H154 H 0.70394 0.90105 0.44414 0.0
H155 H 0.64485 0.83587 0.49396 0.0
H156 H 0.65651 0.93532 0.57491 0.0
O157 O 0.70859 0.8274 0.578 0.0
O158 O 0.7135 0.88436 0.61115 0.0
O159 O 0.72708 0.92841 0.52332 0.0
C160 C 0.70935 0.84735 0.61564 0.0
H161 H 0.85379 0.89903 0.5957 0.0
H162 H 0.57776 0.87224 0.49611 0.0
H163 H 0.71029 0.86888 0.36859 0.0
H164 H 0.73769 0.76365 0.43967 0.0
Co165 Co 0.16435 0.71815 0.55554 0.0
C166 C 0.20451 0.7952 0.55756 0.0
C167 C 0.15801 0.7902 0.60543 0.0
C168 C 0.17463 0.8254 0.61157 0.0
N169 N 0.17659 0.77101 0.57167 0.0
N170 N 0.20371 0.82852 0.5815 0.0
H171 H 0.2257 0.78871 0.53173 0.0
H172 H 0.13401 0.77908 0.62465 0.0
C173 C 0.09765 0.76596 0.5247 0.0
O174 O 0.12105 0.79339 0.51199 0.0
N175 N 0.15041 0.66559 0.54158 0.0
C176 C 0.17218 0.63626 0.52616 0.0
C177 C 0.14916 0.60418 0.52076 0.0
C178 C 0.11491 0.65107 0.54561 0.0
N179 N 0.11313 0.61387 0.5327 0.0
C180 C 0.21959 0.72697 0.48269 0.0
C181 C 0.16789 0.73428 0.41162 0.0
C182 C 0.2069 0.73934 0.40167 0.0
C183 C 0.23291 0.73426 0.43804 0.0
C184 C 0.15602 0.72576 0.45635 0.0
N185 N 0.18142 0.72506 0.49195 0.0
H186 H 0.24015 0.72382 0.51012 0.0
H187 H 0.12619 0.7199 0.4619 0.0
H188 H 0.20239 0.63815 0.51879 0.0
H189 H 0.09063 0.66735 0.55801 0.0
O190 O 0.21201 0.70193 0.58358 0.0
O191 O 0.15668 0.70767 0.6201 0.0
O192 O 0.11048 0.73436 0.54084 0.0
C193 C 0.19309 0.70059 0.62218 0.0
H194 H 0.1661 0.84714 0.63629 0.0
H195 H 0.15796 0.57637 0.50771 0.0
H196 H 0.14612 0.73738 0.38553 0.0
H197 H 0.26341 0.73584 0.43245 0.0
Co198 Co 0.30734 0.16399 0.54536 0.0
C199 C 0.23141 0.20093 0.53663 0.0
C200 C 0.23278 0.15936 0.59116 0.0
C201 C 0.19649 0.17464 0.58868 0.0
N202 N 0.2545 0.17575 0.55834 0.0
N203 N 0.1958 0.20044 0.55413 0.0
H204 H 0.24009 0.21889 0.50816 0.0
H205 H 0.24248 0.13726 0.61457 0.0
C206 C 0.3055 0.08072 0.51599 0.0
O207 O 0.32662 0.08766 0.47955 0.0
N208 N 0.36065 0.15085 0.53353 0.0
C209 C 0.38371 0.16157 0.49848 0.0
C210 C 0.41649 0.13968 0.49951 0.0
C211 C 0.38042 0.12306 0.55588 0.0
N212 N 0.4143 0.11545 0.53545 0.0
C213 C 0.30937 0.20815 0.46254 0.0
C214 C 0.25605 0.1663 0.41369 0.0
C215 C 0.2678 0.20193 0.39656 0.0
C216 C 0.29536 0.22249 0.42097 0.0
C217 C 0.2708 0.15287 0.45572 0.0
N218 N 0.29716 0.1738 0.4799 0.0
H219 H 0.32848 0.22603 0.48222 0.0
H220 H 0.25827 0.12746 0.47047 0.0
H221 H 0.37729 0.18247 0.4724 0.0
H222 H 0.36906 0.1069 0.5846 0.0
O223 O 0.32072 0.21561 0.5648 0.0
O224 O 0.31749 0.1654 0.61102 0.0
O225 O 0.29394 0.10799 0.54202 0.0
C226 C 0.32212 0.20225 0.60662 0.0
H227 H 0.17209 0.16624 0.60923 0.0
H228 H 0.43978 0.14078 0.47498 0.0
H229 H 0.23377 0.15028 0.39646 0.0
H230 H 0.30442 0.25058 0.40931 0.0
Co231 Co 0.87031 0.31607 0.54824 0.0
C232 C 0.84008 0.23648 0.52855 0.0
C233 C 0.88921 0.237 0.57254 0.0
C234 C 0.87738 0.19964 0.56762 0.0
N235 N 0.86576 0.2603 0.54837 0.0
N236 N 0.8467 0.19949 0.53986 0.0
H237 H 0.81672 0.24528 0.50693 0.0
H238 H 0.91342 0.24661 0.59252 0.0
C239 C 0.93751 0.28551 0.49615 0.0
O240 O 0.91468 0.26263 0.47308 0.0
N241 N 0.87604 0.37138 0.54907 0.0
C242 C 0.84757 0.39736 0.55052 0.0
C243 C 0.86307 0.43357 0.54771 0.0
C244 C 0.90853 0.39212 0.54534 0.0
N245 N 0.90146 0.43039 0.54414 0.0
C246 C 0.80964 0.3146 0.48182 0.0
C247 C 0.85438 0.32508 0.40469 0.0
C248 C 0.81592 0.31448 0.39855 0.0
C249 C 0.79309 0.31146 0.4382 0.0
C250 C 0.86934 0.32917 0.44903 0.0
N251 N 0.84801 0.31994 0.48674 0.0
H252 H 0.79175 0.31039 0.51168 0.0
H253 H 0.89852 0.33845 0.45265 0.0
H254 H 0.81753 0.39048 0.55266 0.0
H255 H 0.93667 0.37951 0.54225 0.0
O256 O 0.82401 0.31954 0.58511 0.0
O257 O 0.88248 0.31355 0.61297 0.0
O258 O 0.92412 0.31012 0.52466 0.0
C259 C 0.84593 0.31473 0.62076 0.0
H260 H 0.89062 0.17443 0.58255 0.0
H261 H 0.84701 0.46016 0.54814 0.0
H262 H 0.87356 0.32894 0.37588 0.0
H263 H 0.76279 0.30585 0.43598 0.0
H264 H 0.50037 0.20251 1.01719 0.0
H265 H 0.57407 0.30141 1.00019 0.0
H266 H 0.51809 0.34424 1.00182 0.0
H267 H 0.41623 0.24207 0.95113 0.0
H268 H 0.38229 0.22181 0.99091 0.0
H269 H 0.42724 0.19785 0.98058 0.0
H270 H 0.44147 0.19914 0.06808 0.0
H271 H 0.39682 0.22331 0.07867 0.0
H272 H 0.44081 0.2444 0.0984 0.0
H273 H 0.45723 0.37689 1.01528 0.0
H274 H 0.393 0.3982 0.03906 0.0
H275 H 0.35636 0.27969 0.04849 0.0
C276 C 0.50436 0.23307 1.0123 0.0
C277 C 0.54137 0.24875 1.00808 0.0
C278 C 0.54588 0.28892 1.00327 0.0
C279 C 0.51427 0.31346 1.00396 0.0
C280 C 0.47825 0.29743 1.00961 0.0
C281 C 0.47288 0.25821 1.01348 0.0
C282 C 0.43132 0.2492 0.02394 0.0
C283 C 0.4132 0.22638 0.98426 0.0
C284 C 0.4274 0.22775 0.07001 0.0
C285 C 0.41472 0.2895 0.02695 0.0
C286 C 0.44237 0.31672 1.01792 0.0
C287 C 0.43513 0.35592 1.02175 0.0
C288 C 0.39873 0.36775 0.03562 0.0
C289 C 0.36997 0.34056 0.04557 0.0
C290 C 0.37783 0.30093 0.04037 0.0
H291 H 0.7353 0.38909 0.0865 0.0
H292 H 0.69996 0.35282 0.95056 0.0
H293 H 0.72469 0.4137 0.91774 0.0
H294 H 0.70919 0.48302 0.0786 0.0
H295 H 0.74918 0.50274 0.10958 0.0
H296 H 0.73407 0.45436 0.12072 0.0
H297 H 0.80209 0.42909 0.10215 0.0
H298 H 0.81759 0.47759 0.09134 0.0
H299 H 0.82404 0.44109 0.04786 0.0
H300 H 0.74152 0.48354 0.90363 0.0
H301 H 0.75652 0.55307 0.90754 0.0
H302 H 0.78612 0.54084 0.05168 0.0
C303 C 0.73395 0.39367 0.04965 0.0
C304 C 0.71601 0.36664 1.02083 0.0
C305 C 0.71414 0.37326 0.97285 0.0
C306 C 0.72796 0.40771 0.9541 0.0
C307 C 0.74441 0.43455 0.98379 0.0
C308 C 0.74836 0.42739 0.03042 0.0
C309 C 0.76505 0.46153 0.05549 0.0
C310 C 0.73773 0.47627 0.09329 0.0
C311 C 0.80454 0.45173 0.07537 0.0
C312 C 0.76816 0.48977 1.0162 0.0
C313 C 0.75615 0.47381 0.97504 0.0
C314 C 0.75215 0.49598 0.93529 0.0
C315 C 0.76052 0.53539 0.93783 0.0
C316 C 0.77321 0.55193 0.97961 0.0
C317 C 0.77767 0.52861 1.01891 0.0
H318 H 0.62401 0.68875 0.07898 0.0
H319 H 0.69133 0.74957 0.97701 0.0
H320 H 0.63629 0.79196 0.96093 0.0
H321 H 0.53716 0.6891 1.01573 0.0
H322 H 0.50733 0.69546 0.06584 0.0
H323 H 0.55273 0.67146 0.07098 0.0
H324 H 0.57313 0.71997 0.13414 0.0
H325 H 0.52776 0.74412 0.1292 0.0
H326 H 0.57143 0.77073 0.1221 0.0
H327 H 0.57238 0.82611 0.95383 0.0
H328 H 0.50546 0.84903 0.95678 0.0
H329 H 0.48073 0.76468 0.06263 0.0
C330 C 0.62729 0.71087 0.05319 0.0
C331 C 0.66215 0.71578 0.02938 0.0
C332 C 0.66518 0.74553 0.99626 0.0
C333 C 0.63397 0.76965 0.98668 0.0
C334 C 0.59995 0.76372 1.01056 0.0
C335 C 0.59651 0.73509 0.04319 0.0
C336 C 0.55667 0.73397 0.06332 0.0
C337 C 0.53734 0.6952 0.05335 0.0
C338 C 0.5573 0.74273 0.11527 0.0
C339 C 0.53806 0.76621 0.0366 0.0
C340 C 0.56343 0.78317 1.00642 0.0
C341 C 0.55233 0.81312 0.97748 0.0
C342 C 0.51426 0.82592 0.97937 0.0
C343 C 0.4878 0.80869 1.00991 0.0
C344 C 0.50016 0.77861 0.03897 0.0
H345 H 0.26187 0.48598 0.06747 0.0
H346 H 0.1934 0.50795 0.94568 0.0
H347 H 0.21649 0.57507 0.94458 0.0
H348 H 0.24779 0.57876 0.1213 0.0
H349 H 0.29582 0.58054 0.14339 0.0
H350 H 0.27273 0.53489 0.13512 0.0
H351 H 0.32888 0.5123 0.08336 0.0
H352 H 0.35212 0.55787 0.09135 0.0
H353 H 0.34221 0.54065 0.03401 0.0
H354 H 0.24944 0.63948 0.95566 0.0
H355 H 0.28885 0.69517 0.97808 0.0
H356 H 0.3341 0.63025 0.09332 0.0
C357 C 0.25145 0.50485 0.04064 0.0
C358 C 0.22582 0.49165 1.00661 0.0
C359 C 0.21305 0.5174 0.97212 0.0
C360 C 0.22598 0.55557 0.97123 0.0
C361 C 0.25152 0.5675 1.00517 0.0
C362 C 0.26397 0.54286 0.03929 0.0
C363 C 0.29197 0.56228 0.0713 0.0
C364 C 0.27611 0.56423 0.1207 0.0
C365 C 0.3311 0.54207 0.06989 0.0
C366 C 0.29372 0.60168 0.04965 0.0
C367 C 0.27014 0.60428 1.01164 0.0
C368 C 0.26772 0.63782 0.98563 0.0
C369 C 0.29007 0.66941 0.99879 0.0
C370 C 0.31456 0.66724 0.03759 0.0
C371 C 0.31604 0.63286 0.06329 0.0
H372 H 0.05838 0.83387 0.52289 0.0
H373 H 0.04309 0.71031 0.51907 0.0
H374 H 0.97313 0.7192 0.5193 0.0
H375 H 0.98538 0.85234 0.60157 0.0
H376 H 0.97009 0.89691 0.57589 0.0
H377 H 0.01876 0.88111 0.56937 0.0
H378 H 1.01243 0.88511 0.48053 0.0
H379 H 0.96373 0.9012 0.48678 0.0
H380 H 0.97447 0.85954 0.45207 0.0
H381 H 0.90498 0.74151 0.52535 0.0
H382 H 0.84396 0.77559 0.53964 0.0
H383 H 0.90413 0.88423 0.54147 0.0
C384 C 0.04029 0.80875 0.52104 0.0
C385 C 0.05604 0.77142 0.52071 0.0
C386 C 0.03151 0.73917 0.51941 0.0
C387 C 0.99177 0.74394 0.51928 0.0
C388 C 0.97709 0.78115 0.5206 0.0
C389 C 1.00059 0.813 0.52146 0.0
C390 C 0.97772 0.8497 0.5266 0.0
C391 C 0.98864 0.87126 0.571 0.0
C392 C 0.98237 0.87539 0.48395 0.0
C393 C 0.93781 0.83345 0.52961 0.0
C394 C 0.93794 0.79392 0.52533 0.0
C395 C 0.90446 0.7725 0.52832 0.0
C396 C 0.86998 0.79204 0.53631 0.0
C397 C 0.86943 0.83246 0.54179 0.0
C398 C 0.90379 0.85329 0.53787 0.0
H399 H 0.28471 0.01728 0.46428 0.0
H400 H 0.3104 0.0552 0.60322 0.0
H401 H 0.29572 0.99071 0.63281 0.0
H402 H 0.20429 0.96376 0.49485 0.0
H403 H 0.21167 0.92532 0.45406 0.0
H404 H 0.23006 0.97246 0.44209 0.0
H405 H 0.2979 0.94381 0.43184 0.0
H406 H 0.27965 0.8965 0.44391 0.0
H407 H 0.31853 0.91552 0.47748 0.0
H408 H 0.27234 0.92598 0.64919 0.0
H409 H 0.23765 0.86444 0.65201 0.0
H410 H 0.22478 0.86638 0.50368 0.0
C411 C 0.28805 1.01151 0.5007 0.0
C412 C 0.2989 0.04099 0.53154 0.0
C413 C 0.30207 0.03294 0.57913 0.0
C414 C 0.29409 0.99634 0.59622 0.0
C415 C 0.28272 0.96802 0.56531 0.0
C416 C 0.27948 0.975 0.51858 0.0
C417 C 0.26256 0.94043 0.49397 0.0
C418 C 0.22491 0.95114 0.46984 0.0
C419 C 0.29139 0.92304 0.45977 0.0
C420 C 0.25575 0.91363 0.53443 0.0
C421 C 0.26834 0.93005 0.57505 0.0
C422 C 0.26286 0.91251 0.6176 0.0
C423 C 0.2431 0.87772 0.61894 0.0
C424 C 0.22897 0.86079 0.57811 0.0
C425 C 0.23618 0.87846 0.53516 0.0
H426 H 0.13866 0.23382 0.60237 0.0
H427 H 0.17802 0.20822 0.46415 0.0
H428 H 0.11753 0.23374 0.4323 0.0
H429 H 0.04443 0.20738 0.58834 0.0
H430 H 0.02416 0.24557 0.62265 0.0
H431 H 0.07195 0.22909 0.63388 0.0
H432 H 0.09743 0.2984 0.62349 0.0
H433 H 0.04957 0.31515 0.61238 0.0
H434 H 0.087 0.3242 0.57117 0.0
H435 H 0.04886 0.25173 0.41737 0.0
H436 H 0.97985 0.26785 0.41977 0.0
H437 H 0.98774 0.28757 0.56688 0.0
C438 C 0.13463 0.23432 0.5654 0.0
C439 C 0.16269 0.21917 0.5356 0.0
C440 C 0.15682 0.22013 0.48737 0.0
C441 C 0.12259 0.23444 0.46907 0.0
C442 C 0.09503 0.24849 0.49949 0.0
C443 C 0.10104 0.24933 0.54658 0.0
C444 C 0.06646 0.26473 0.57194 0.0
C445 C 0.05084 0.23491 0.6062 0.0
C446 C 0.07568 0.30289 0.59617 0.0
C447 C 0.03944 0.2708 0.53201 0.0
C448 C 0.05637 0.26123 0.49046 0.0
C449 C 0.03561 0.26041 0.44946 0.0
C450 C 0.99653 0.26943 0.45111 0.0
C451 C 0.97901 0.27973 0.49328 0.0
C452 C 1.0009 0.28101 0.53397 0.0
H453 H 0.82057 0.14183 0.5928 0.0
H454 H 0.82815 0.18199 0.45214 0.0
H455 H 0.79997 0.12075 0.42455 0.0
H456 H 0.84502 0.0463 0.57345 0.0
H457 H 0.81169 0.02631 0.61417 0.0
H458 H 0.82964 0.07417 0.62255 0.0
H459 H 0.76046 0.10077 0.62511 0.0
H460 H 0.74224 0.05287 0.61696 0.0
H461 H 0.7284 0.09074 0.57808 0.0
H462 H 0.78048 0.05134 0.41267 0.0
H463 H 0.76321 0.98236 0.41781 0.0
H464 H 0.76172 0.99064 0.56668 0.0
C465 C 0.81561 0.13777 0.55631 0.0
C466 C 0.82643 0.16618 0.52438 0.0
C467 C 0.81966 0.16039 0.47688 0.0
C468 C 0.80384 0.12578 0.46105 0.0
C469 C 0.79412 0.09787 0.49342 0.0
C470 C 0.79895 0.10391 0.54016 0.0
C471 C 0.78676 0.06926 0.56785 0.0
C472 C 0.82028 0.05307 0.59615 0.0
C473 C 0.75242 0.079 0.59882 0.0
C474 C 0.77557 0.04221 0.52937 0.0
C475 C 0.78025 0.05907 0.48663 0.0
C476 C 0.77562 0.03821 0.44591 0.0
C477 C 0.76596 0.99916 0.44908 0.0
C478 C 0.76029 0.98186 0.49254 0.0
C479 C 0.7647 1.00375 0.53305 0.0
H480 H 0.27688 0.18963 0.30319 0.0
H481 H 0.21487 0.25812 0.40327 0.0
H482 H 0.18582 0.296 0.34034 0.0
H483 H 0.30003 0.26537 0.22922 0.0
H484 H 0.29458 0.23884 0.17627 0.0
H485 H 0.30686 0.21401 0.22852 0.0
H486 H 0.24826 0.16959 0.21848 0.0
H487 H 0.2358 0.19433 0.16606 0.0
H488 H 0.20141 0.19051 0.21208 0.0
H489 H 0.16992 0.33136 0.26819 0.0
H490 H 0.16692 0.36112 0.19107 0.0
H491 H 0.23718 0.26918 0.1358 0.0
C492 C 0.2564 0.21197 0.3115 0.0
C493 C 0.2476 0.22082 0.35787 0.0
C494 C 0.22153 0.25082 0.36784 0.0
C495 C 0.20492 0.27241 0.33235 0.0
C496 C 0.21458 0.26357 0.28692 0.0
C497 C 0.23949 0.23392 0.27626 0.0
C498 C 0.24696 0.23228 0.22468 0.0
C499 C 0.28963 0.23797 0.21407 0.0
C500 C 0.23222 0.19442 0.20411 0.0
C501 C 0.22327 0.26625 0.20829 0.0
C502 C 0.20466 0.28371 0.24482 0.0
C503 C 0.18367 0.31747 0.23917 0.0
C504 C 0.18212 0.3342 0.19526 0.0
C505 C 0.2011 0.31704 0.15735 0.0
C506 C 0.22136 0.28222 0.16388 0.0
H507 H 0.68052 0.21028 0.21164 0.0
H508 H 0.75532 0.25852 0.10747 0.0
H509 H 0.79327 0.28996 0.16762 0.0
H510 H 0.68159 0.2891 0.29034 0.0
H511 H 0.6844 0.26041 0.34185 0.0
H512 H 0.66205 0.24124 0.29092 0.0
H513 H 0.70788 0.18268 0.29228 0.0
H514 H 0.72994 0.20138 0.34364 0.0
H515 H 0.75873 0.19051 0.29374 0.0
H516 H 0.81916 0.32161 0.23717 0.0
H517 H 0.8398 0.34221 0.31382 0.0
H518 H 0.75557 0.26609 0.37547 0.0
C519 C 0.70522 0.227 0.2018 0.0
C520 C 0.71512 0.23173 0.15492 0.0
C521 C 0.74755 0.25394 0.14319 0.0
C522 C 0.76913 0.2723 0.17707 0.0
C523 C 0.75855 0.26755 0.22282 0.0
C524 C 0.72813 0.24464 0.23555 0.0
C525 C 0.72453 0.24315 0.28768 0.0
C526 C 0.68584 0.25945 0.30362 0.0
C527 C 0.73065 0.20199 0.30537 0.0
C528 C 0.7572 0.26931 0.30178 0.0
C529 C 0.77586 0.28355 0.26368 0.0
C530 C 0.80553 0.30983 0.26747 0.0
C531 C 0.81732 0.3211 0.31153 0.0
C532 C 0.80031 0.3053 0.35167 0.0
C533 C 0.76941 0.27926 0.3462 0.0
H534 H 0.81578 0.75377 0.15284 0.0
H535 H 0.76842 0.64067 0.1788 0.0
H536 H 0.73845 0.66469 0.24979 0.0
H537 H 0.83742 0.77388 0.27421 0.0
H538 H 0.8261 0.82429 0.26977 0.0
H539 H 0.84366 0.79852 0.22016 0.0
H540 H 0.7841 0.82024 0.17415 0.0
H541 H 0.766 0.84544 0.22394 0.0
H542 H 0.73715 0.80948 0.19605 0.0
H543 H 0.70984 0.7007 0.31423 0.0
H544 H 0.69441 0.74374 0.37887 0.0
H545 H 0.76395 0.83326 0.31772 0.0
C546 C 0.79952 0.73404 0.17387 0.0
C547 C 0.79449 0.69528 0.16016 0.0
C548 C 0.773 0.67034 0.1886 0.0
C549 C 0.75547 0.68381 0.22884 0.0
C550 C 0.76012 0.72221 0.2408 0.0
C551 C 0.78239 0.74684 0.21506 0.0
C552 C 0.78406 0.78631 0.23763 0.0
C553 C 0.82526 0.79633 0.25126 0.0
C554 C 0.7668 0.81719 0.20605 0.0
C555 C 0.75913 0.77983 0.27987 0.0
C556 C 0.74512 0.74278 0.28018 0.0
C557 C 0.72109 0.72961 0.31483 0.0
C558 C 0.71249 0.75433 0.35141 0.0
C559 C 0.72846 0.79166 0.35384 0.0
C560 C 0.7512 0.80498 0.31677 0.0
H561 H 0.34656 0.82485 0.206 0.0
H562 H 0.2573 0.79668 0.10792 0.0
H563 H 0.21678 0.77348 0.17091 0.0
H564 H 0.33406 0.74642 0.28056 0.0
H565 H 0.34059 0.77261 0.33358 0.0
H566 H 0.3629 0.78923 0.28139 0.0
H567 H 0.33015 0.85562 0.29076 0.0
H568 H 0.30824 0.83941 0.34344 0.0
H569 H 0.27903 0.85816 0.29757 0.0
H570 H 0.18976 0.74478 0.24151 0.0
H571 H 0.17163 0.72327 0.3185 0.0
H572 H 0.27305 0.7781 0.37481 0.0
C573 C 0.31818 0.81458 0.19805 0.0
C574 C 0.30518 0.81265 0.15194 0.0
C575 C 0.26791 0.7988 0.14287 0.0
C576 C 0.24465 0.78525 0.17842 0.0
C577 C 0.25858 0.78651 0.2232 0.0
C578 C 0.29392 0.8018 0.23352 0.0
C579 C 0.30128 0.8001 0.28508 0.0
C580 C 0.33682 0.77563 0.29576 0.0
C581 C 0.30488 0.84074 0.30541 0.0
C582 C 0.26503 0.78051 0.30158 0.0
C583 C 0.24117 0.77254 0.26508 0.0
C584 C 0.2075 0.75206 0.27073 0.0
C585 C 0.19726 0.74024 0.3151 0.0
C586 C 0.21996 0.7498 0.354 0.0
C587 C 0.25463 0.77005 0.34656 0.0
H588 H 0.74823 0.86845 0.69413 0.0
H589 H 0.67655 0.77934 0.63607 0.0
H590 H 0.69036 0.73774 0.7026 0.0
H591 H 0.82002 0.80777 0.7328 0.0
H592 H 0.83019 0.83295 0.78568 0.0
H593 H 0.81065 0.8586 0.73731 0.0
H594 H 0.75406 0.88247 0.78737 0.0
H595 H 0.77382 0.85752 0.83625 0.0
H596 H 0.72549 0.8481 0.81834 0.0
H597 H 0.71768 0.70286 0.76912 0.0
H598 H 0.75164 0.67873 0.83747 0.0
H599 H 0.80639 0.7896 0.85421 0.0
C600 C 0.73428 0.8408 0.69651 0.0
C601 C 0.71085 0.82725 0.66035 0.0
C602 C 0.69423 0.79035 0.66367 0.0
C603 C 0.70203 0.76646 0.70123 0.0
C604 C 0.72653 0.77986 0.73532 0.0
C605 C 0.74198 0.81635 0.73389 0.0
C606 C 0.76935 0.82246 0.7738 0.0
C607 C 0.80995 0.83094 0.75633 0.0
C608 C 0.7548 0.85454 0.80585 0.0
C609 C 0.76739 0.78349 0.79712 0.0
C610 C 0.74249 0.75945 0.7742 0.0
C611 C 0.73695 0.72152 0.7877 0.0
C612 C 0.75677 0.70792 0.82626 0.0
C613 C 0.78189 0.73213 0.85111 0.0
C614 C 0.78725 0.77045 0.83611 0.0
H615 H 0.26479 0.72549 0.64406 0.0
H616 H 0.16341 0.67339 0.70227 0.0
H617 H 0.19027 0.68095 0.78038 0.0
H618 H 0.33528 0.68888 0.73138 0.0
H619 H 0.3611 0.73359 0.73149 0.0
H620 H 0.33729 0.71766 0.67987 0.0
H621 H 0.30019 0.78209 0.67658 0.0
H622 H 0.32343 0.79806 0.72838 0.0
H623 H 0.27203 0.79696 0.72552 0.0
H624 H 0.22315 0.70201 0.85159 0.0
H625 H 0.26081 0.73418 0.91212 0.0
H626 H 0.34137 0.77377 0.8093 0.0
C627 C 0.24906 0.71421 0.67317 0.0
C628 C 0.21241 0.69804 0.66723 0.0
C629 C 0.19178 0.68525 0.70617 0.0
C630 C 0.20682 0.68946 0.75061 0.0
C631 C 0.24244 0.70673 0.75554 0.0
C632 C 0.26349 0.71873 0.71793 0.0
C633 C 0.29897 0.7403 0.7331 0.0
C634 C 0.33532 0.71881 0.71807 0.0
C635 C 0.29861 0.7818 0.71481 0.0
C636 C 0.29409 0.73933 0.78504 0.0
C637 C 0.26142 0.71949 0.79711 0.0
C638 C 0.24913 0.71701 0.84265 0.0
C639 C 0.27058 0.73547 0.87673 0.0
C640 C 0.30401 0.75611 0.86527 0.0
C641 C 0.31625 0.75759 0.81891 0.0
H642 H 0.31221 0.18285 0.6977 0.0
H643 H 0.32841 0.28062 0.60732 0.0
H644 H 0.31641 0.32453 0.67273 0.0
H645 H 0.23575 0.22098 0.76011 0.0
H646 H 0.24962 0.20149 0.81511 0.0
H647 H 0.2637 0.17745 0.76278 0.0
H648 H 0.33474 0.18104 0.78706 0.0
H649 H 0.32085 0.20458 0.83987 0.0
H650 H 0.35514 0.22684 0.80212 0.0
H651 H 0.29579 0.3577 0.74585 0.0
H652 H 0.27271 0.37795 0.82225 0.0
H653 H 0.27199 0.25878 0.8666 0.0
C654 C 0.3143 0.21349 0.6919 0.0
C655 C 0.32162 0.22825 0.64731 0.0
C656 C 0.32324 0.26857 0.64113 0.0
C657 C 0.3163 0.29378 0.6781 0.0
C658 C 0.30798 0.27829 0.72123 0.0
C659 C 0.30746 0.23908 0.72848 0.0
C660 C 0.29598 0.22989 0.77772 0.0
C661 C 0.25908 0.20605 0.77898 0.0
C662 C 0.32863 0.20938 0.8032 0.0
C663 C 0.2894 0.27002 0.79676 0.0
C664 C 0.29655 0.29749 0.76361 0.0
C665 C 0.29083 0.33645 0.77234 0.0
C666 C 0.27785 0.34769 0.81614 0.0
C667 C 0.2708 0.32019 0.85121 0.0
C668 C 0.27676 0.28075 0.84093 0.0
H669 H 0.70205 0.29149 0.83505 0.0
H670 H 0.75641 0.1803 0.85568 0.0
H671 H 0.79905 0.1927 0.79056 0.0
H672 H 0.70513 0.28301 0.70669 0.0
H673 H 0.71233 0.33384 0.69891 0.0
H674 H 0.68561 0.31668 0.74779 0.0
H675 H 0.73119 0.35356 0.80221 0.0
H676 H 0.75854 0.37017 0.7536 0.0
H677 H 0.7818 0.3442 0.79937 0.0
H678 H 0.8419 0.2203 0.73224 0.0
H679 H 0.87218 0.25359 0.66726 0.0
H680 H 0.78415 0.34154 0.67185 0.0
C681 C 0.72226 0.26932 0.82533 0.0
C682 C 0.72673 0.23553 0.85215 0.0
C683 C 0.75347 0.20727 0.8375 0.0
C684 C 0.77777 0.21386 0.80022 0.0
C685 C 0.7741 0.24819 0.77635 0.0
C686 C 0.74606 0.27478 0.78681 0.0
C687 C 0.74743 0.30831 0.75327 0.0
C688 C 0.71042 0.31058 0.72498 0.0
C689 C 0.7552 0.3463 0.77865 0.0
C690 C 0.78123 0.29662 0.72334 0.0
C691 C 0.79657 0.26224 0.73834 0.0
C692 C 0.82964 0.24672 0.71927 0.0
C693 C 0.84682 0.26605 0.68263 0.0
C694 C 0.83031 0.29987 0.66436 0.0
C695 C 0.79714 0.31555 0.6851 0.0
H696 H 0.96724 0.58669 0.98308 0.0
H697 H 0.92794 0.57764 0.12407 0.0
H698 H 0.97364 0.52418 0.13749 0.0
H699 H 0.97611 0.48449 0.96451 0.0
H700 H 0.01761 0.48843 0.92804 0.0
H701 H 0.98341 0.52714 0.93052 0.0
H702 H 0.0372 0.57449 0.95299 0.0
H703 H 0.07158 0.53592 0.95059 0.0
H704 H 0.0667 0.56423 1.00234 0.0
H705 H 0.02618 0.47341 0.13598 0.0
H706 H 0.07593 0.42476 0.11734 0.0
H707 H 0.07646 0.4628 0.97548 0.0
C708 C 0.9686 0.57356 1.01681 0.0
C709 C 0.94451 0.58648 0.05283 0.0
C710 C 0.9463 0.56812 0.09623 0.0
C711 C 0.97222 0.53789 0.10411 0.0
C712 C 0.99565 0.52579 0.06789 0.0
C713 C 0.99363 0.54269 0.02488 0.0
C714 C 0.02043 0.52295 0.99111 0.0
C715 C 0.99805 0.50466 0.95119 0.0
C716 C 0.05077 0.55108 0.97322 0.0
C717 C 0.0381 0.49253 1.02187 0.0
C718 C 0.02387 0.49501 0.06624 0.0
C719 C 0.03714 0.47095 0.10122 0.0
C720 C 0.06539 0.44352 0.09046 0.0
C721 C 0.07948 0.43977 0.04498 0.0
C722 C 0.06558 0.46466 1.01034 0.0
H723 H 0.56522 0.07975 0.99477 0.0
H724 H 0.58088 0.09588 0.1413 0.0
H725 H 0.52951 0.04828 0.15676 0.0
H726 H 0.46147 0.07098 0.99929 0.0
H727 H 0.46022 0.03605 0.95339 0.0
H728 H 0.49757 0.07147 0.95497 0.0
H729 H 0.54842 0.01722 0.95243 0.0
H730 H 0.51126 0.98163 0.95118 0.0
H731 H 0.54733 0.97988 0.99537 0.0
H732 H 0.47963 0.99396 0.15472 0.0
H733 H 0.43082 0.94466 0.13574 0.0
H734 H 0.44562 0.96874 0.99059 0.0
C735 C 0.55754 0.07335 0.03007 0.0
C736 C 0.57693 0.09105 0.06698 0.0
C737 C 0.56609 0.08252 0.11275 0.0
C738 C 0.53717 0.05547 0.1217 0.0
C739 C 0.51897 0.03792 0.08437 0.0
C740 C 0.52834 0.04718 0.03946 0.0
C741 C 0.50426 0.02509 1.00528 0.0
C742 C 0.4794 0.05253 0.97655 0.0
C743 C 0.52932 0.99943 0.97425 0.0
C744 C 0.48022 1.00133 0.03778 0.0
C745 C 0.48927 1.00871 0.0833 0.0
C746 C 0.47198 0.98848 0.1192 0.0
C747 C 0.44449 0.96046 0.10822 0.0
C748 C 0.43417 0.95343 0.06185 0.0
C749 C 0.45242 0.97417 0.02638 0.0
H750 H 0.44827 0.06687 0.47502 0.0
H751 H 0.44001 0.0953 0.61995 0.0
H752 H 0.48856 0.04529 0.63775 0.0
H753 H 0.45808 0.96357 0.49169 0.0
H754 H 0.49045 0.95779 0.44382 0.0
H755 H 0.45527 0.99566 0.44313 0.0
H756 H 0.50873 0.04582 0.43033 0.0
H757 H 0.54407 1.00816 0.4311 0.0
H758 H 0.54801 0.04817 0.47031 0.0
H759 H 0.54222 0.99556 0.63802 0.0
H760 H 0.59099 0.94532 0.62215 0.0
H761 H 0.55984 0.94588 0.47792 0.0
C762 C 0.45675 0.06246 0.51047 0.0
C763 C 0.44086 0.08508 0.5462 0.0
C764 C 0.45198 0.07817 0.59227 0.0
C765 C 0.47955 0.04998 0.60255 0.0
C766 C 0.49506 0.02844 0.56639 0.0
C767 C 0.48351 0.03392 0.52136 0.0
C768 C 0.50379 1.00645 0.48888 0.0
C769 C 0.47519 0.97925 0.46551 0.0
C770 C 0.52756 0.02847 0.45305 0.0
C771 C 0.52914 0.98504 0.52245 0.0
C772 C 0.52402 0.9984 0.56696 0.0
C773 C 0.54598 0.98451 0.60343 0.0
C774 C 0.57366 0.95617 0.59417 0.0
C775 C 0.57867 0.94153 0.54903 0.0
C776 C 0.55595 0.9561 0.51287 0.0
H777 H 0.10426 0.53739 0.55193 0.0
H778 H 0.04414 0.639 0.50482 0.0
H779 H 0.98421 0.60228 0.50095 0.0
H780 H 0.05117 0.46767 0.48242 0.0
H781 H 0.05016 0.43175 0.52705 0.0
H782 H 0.08911 0.46537 0.52425 0.0
H783 H 0.07574 0.48604 0.60851 0.0
H784 H 0.03674 0.45252 0.61149 0.0
H785 H 0.02866 0.50258 0.62429 0.0
H786 H 0.93084 0.5557 0.5029 0.0
H787 H 0.88616 0.50219 0.51209 0.0
H788 H 0.97882 0.42964 0.56089 0.0
C789 C 0.0785 0.55163 0.54033 0.0
C790 C 0.07882 0.59117 0.5288 0.0
C791 C 0.04446 0.60897 0.51435 0.0
C792 C 1.01032 0.58826 0.51178 0.0
C793 C 1.01076 0.5496 0.52393 0.0
C794 C 0.04382 0.53132 0.53802 0.0
C795 C 0.03567 0.48975 0.55076 0.0
C796 C 0.05785 0.462 0.51923 0.0
C797 C 0.04474 0.4823 0.6018 0.0
C798 C 0.99295 0.48773 0.54169 0.0
C799 C 0.97939 0.52261 0.52599 0.0
C800 C 0.94106 0.52826 0.51538 0.0
C801 C 0.91574 0.49757 0.52114 0.0
C802 C 0.9285 0.46143 0.53776 0.0
C803 C 0.9679 0.45661 0.54788 0.0
loop_
_geom_bond_atom_site_label_1
_geom_bond_atom_site_label_2
_geom_bond_distance
_geom_bond_site_symmetry_2
_ccdc_geom_bond_type
Co0 N4 2.148 . S
Co0 N10 2.128 . S
Co0 N20 2.194 1_554 S
Co0 O25 2.351 . S
Co0 O26 2.155 . S
Co0 O27 2.096 . S
C1 N4 1.301 . S
C1 N5 1.328 . S
C1 H6 0.930 . S
C2 C3 1.333 . S
C2 N4 1.317 . S
C2 H7 0.930 . S
C3 C2 1.333 . S
C3 N5 1.350 . S
C3 H29 0.931 . S
N4 Co0 2.148 . S
N4 C1 1.301 . S
N4 C2 1.317 . S
N5 C1 1.328 . S
N5 C3 1.350 . S
H6 C1 0.930 . S
H7 C2 0.930 . S
C8 O9 1.224 1_554 S
C8 O27 1.247 . S
O9 C8 1.224 1_556 S
N10 Co0 2.128 . S
N10 C11 1.355 . S
N10 C13 1.311 . S
C11 N10 1.355 . S
C11 C12 1.363 1_554 S
C11 H23 0.929 1_554 S
C12 C11 1.363 1_556 S
C12 N14 1.375 1_556 S
C12 H30 0.931 . S
C13 N10 1.311 . S
C13 N14 1.347 . S
C13 H24 0.929 . S
N14 C12 1.375 1_554 S
N14 C13 1.347 . S
C15 C18 1.365 . S
C15 N20 1.328 . S
C15 H21 0.929 . S
C16 C17 1.362 . S
C16 C19 1.378 . S
C16 H31 0.929 . S
C17 C16 1.362 . S
C17 C18 1.366 . S
C18 C15 1.365 . S
C18 C17 1.366 . S
C18 H32 0.930 . S
C19 C16 1.378 . S
C19 N20 1.315 . S
C19 H22 0.930 . S
N20 Co0 2.194 1_556 S
N20 C15 1.328 . S
N20 C19 1.315 . S
H21 C15 0.929 . S
H22 C19 0.930 . S
H23 C11 0.929 1_556 S
H24 C13 0.929 . S
O25 Co0 2.351 . S
O25 C28 1.244 . S
O26 Co0 2.155 . S
O26 C28 1.240 . S
O27 Co0 2.096 . S
O27 C8 1.247 . S
C28 O25 1.244 . S
C28 O26 1.240 . S
H29 C3 0.931 . S
H30 C12 0.931 . S
H31 C16 0.929 . S
H32 C18 0.930 . S
Co33 N37 2.148 . S
Co33 N43 2.128 . S
Co33 N53 2.194 1_554 S
Co33 O58 2.351 . S
Co33 O59 2.155 . S
Co33 O60 2.096 . S
C34 N37 1.301 . S
C34 N38 1.328 . S
C34 H39 0.930 . S
C35 C36 1.333 . S
C35 N37 1.317 . S
C35 H40 0.930 . S
C36 C35 1.333 . S
C36 N38 1.350 . S
C36 H62 0.931 . S
N37 Co33 2.148 . S
N37 C34 1.301 . S
N37 C35 1.317 . S
N38 C34 1.328 . S
N38 C36 1.350 . S
H39 C34 0.930 . S
H40 C35 0.930 . S
C41 O42 1.224 1_554 S
C41 O60 1.247 . S
O42 C41 1.224 1_556 S
N43 Co33 2.128 . S
N43 C44 1.355 . S
N43 C46 1.311 . S
C44 N43 1.355 . S
C44 C45 1.363 1_554 S
C44 H56 0.929 1_554 S
C45 C44 1.363 1_556 S
C45 N47 1.375 1_556 S
C45 H63 0.931 . S
C46 N43 1.311 . S
C46 N47 1.347 . S
C46 H57 0.929 . S
N47 C45 1.375 1_554 S
N47 C46 1.347 . S
C48 C51 1.365 . S
C48 N53 1.328 . S
C48 H54 0.929 . S
C49 C50 1.362 . S
C49 C52 1.378 . S
C49 H64 0.929 . S
C50 C49 1.362 . S
C50 C51 1.366 . S
C51 C48 1.365 . S
C51 C50 1.366 . S
C51 H65 0.930 . S
C52 C49 1.378 . S
C52 N53 1.315 . S
C52 H55 0.930 . S
N53 Co33 2.194 1_556 S
N53 C48 1.328 . S
N53 C52 1.315 . S
H54 C48 0.929 . S
H55 C52 0.930 . S
H56 C44 0.929 1_556 S
H57 C46 0.929 . S
O58 Co33 2.351 . S
O58 C61 1.244 . S
O59 Co33 2.155 . S
O59 C61 1.240 . S
O60 Co33 2.096 . S
O60 C41 1.247 . S
C61 O58 1.244 . S
C61 O59 1.240 . S
H62 C36 0.931 . S
H63 C45 0.931 . S
H64 C49 0.929 . S
H65 C51 0.930 . S
Co66 N70 2.148 . S
Co66 N76 2.128 . S
Co66 N86 2.194 1_554 S
Co66 O91 2.351 . S
Co66 O92 2.155 . S
Co66 O93 2.096 . S
C67 N70 1.301 . S
C67 N71 1.328 . S
C67 H72 0.930 . S
C68 C69 1.333 . S
C68 N70 1.317 . S
C68 H73 0.930 . S
C69 C68 1.333 . S
C69 N71 1.350 . S
C69 H95 0.931 . S
N70 Co66 2.148 . S
N70 C67 1.301 . S
N70 C68 1.317 . S
N71 C67 1.328 . S
N71 C69 1.350 . S
H72 C67 0.930 . S
H73 C68 0.930 . S
C74 O75 1.224 1_554 S
C74 O93 1.247 . S
O75 C74 1.224 1_556 S
N76 Co66 2.128 . S
N76 C77 1.355 . S
N76 C79 1.311 . S
C77 N76 1.355 . S
C77 C78 1.363 1_554 S
C77 H89 0.929 1_554 S
C78 C77 1.363 1_556 S
C78 N80 1.375 1_556 S
C78 H96 0.931 . S
C79 N76 1.311 . S
C79 N80 1.347 . S
C79 H90 0.929 . S
N80 C78 1.375 1_554 S
N80 C79 1.347 . S
C81 C84 1.365 . S
C81 N86 1.328 . S
C81 H87 0.929 . S
C82 C83 1.362 . S
C82 C85 1.378 . S
C82 H97 0.929 . S
C83 C82 1.362 . S
C83 C84 1.366 . S
C84 C81 1.365 . S
C84 C83 1.366 . S
C84 H98 0.930 . S
C85 C82 1.378 . S
C85 N86 1.315 . S
C85 H88 0.930 . S
N86 Co66 2.194 1_556 S
N86 C81 1.328 . S
N86 C85 1.315 . S
H87 C81 0.929 . S
H88 C85 0.930 . S
H89 C77 0.929 1_556 S
H90 C79 0.929 . S
O91 Co66 2.351 . S
O91 C94 1.244 . S
O92 Co66 2.155 . S
O92 C94 1.240 . S
O93 Co66 2.096 . S
O93 C74 1.247 . S
C94 O91 1.244 . S
C94 O92 1.240 . S
H95 C69 0.931 . S
H96 C78 0.931 . S
H97 C82 0.929 . S
H98 C84 0.930 . S
Co99 N103 2.148 . S
Co99 N109 2.128 . S
Co99 N119 2.194 1_554 S
Co99 O124 2.351 . S
Co99 O125 2.155 . S
Co99 O126 2.096 . S
C100 N103 1.301 . S
C100 N104 1.328 . S
C100 H105 0.930 . S
C101 C102 1.333 . S
C101 N103 1.317 . S
C101 H106 0.930 . S
C102 C101 1.333 . S
C102 N104 1.350 . S
C102 H128 0.931 . S
N103 Co99 2.148 . S
N103 C100 1.301 . S
N103 C101 1.317 . S
N104 C100 1.328 . S
N104 C102 1.350 . S
H105 C100 0.930 . S
H106 C101 0.930 . S
C107 O108 1.224 1_554 S
C107 O126 1.247 . S
O108 C107 1.224 1_556 S
N109 Co99 2.128 . S
N109 C110 1.355 . S
N109 C112 1.311 . S
C110 N109 1.355 . S
C110 C111 1.363 1_554 S
C110 H122 0.929 1_554 S
C111 C110 1.363 1_556 S
C111 N113 1.375 1_556 S
C111 H129 0.931 . S
C112 N109 1.311 . S
C112 N113 1.347 . S
C112 H123 0.929 . S
N113 C111 1.375 1_554 S
N113 C112 1.347 . S
C114 C117 1.365 . S
C114 N119 1.328 . S
C114 H120 0.929 . S
C115 C116 1.362 . S
C115 C118 1.378 . S
C115 H130 0.929 . S
C116 C115 1.362 . S
C116 C117 1.366 . S
C117 C114 1.365 . S
C117 C116 1.366 . S
C117 H131 0.930 . S
C118 C115 1.378 . S
C118 N119 1.315 . S
C118 H121 0.930 . S
N119 Co99 2.194 1_556 S
N119 C114 1.328 . S
N119 C118 1.315 . S
H120 C114 0.929 . S
H121 C118 0.930 . S
H122 C110 0.929 1_556 S
H123 C112 0.929 . S
O124 Co99 2.351 . S
O124 C127 1.244 . S
O125 Co99 2.155 . S
O125 C127 1.240 . S
O126 Co99 2.096 . S
O126 C107 1.247 . S
C127 O124 1.244 . S
C127 O125 1.240 . S
H128 C102 0.931 . S
H129 C111 0.931 . S
H130 C115 0.929 . S
H131 C117 0.930 . S
Co132 N136 2.148 . S
Co132 N142 2.128 . S
Co132 N152 2.194 . S
Co132 O157 2.351 . S
Co132 O158 2.155 . S
Co132 O159 2.096 . S
C133 N136 1.301 . S
C133 N137 1.328 . S
C133 H138 0.930 . S
C134 C135 1.333 . S
C134 N136 1.317 . S
C134 H139 0.930 . S
C135 C134 1.333 . S
C135 N137 1.350 . S
C135 H161 0.931 . S
N136 Co132 2.148 . S
N136 C133 1.301 . S
N136 C134 1.317 . S
N137 C133 1.328 . S
N137 C135 1.350 . S
H138 C133 0.930 . S
H139 C134 0.930 . S
C140 O141 1.224 . S
C140 O159 1.247 . S
O141 C140 1.224 . S
N142 Co132 2.128 . S
N142 C143 1.355 . S
N142 C145 1.311 . S
C143 N142 1.355 . S
C143 C144 1.363 . S
C143 H155 0.929 . S
C144 C143 1.363 . S
C144 N146 1.375 . S
C144 H162 0.931 . S
C145 N142 1.311 . S
C145 N146 1.347 . S
C145 H156 0.929 . S
N146 C144 1.375 . S
N146 C145 1.347 . S
C147 C150 1.365 . S
C147 N152 1.328 . S
C147 H153 0.929 . S
C148 C149 1.362 . S
C148 C151 1.378 . S
C148 H163 0.929 . S
C149 C148 1.362 . S
C149 C150 1.366 . S
C150 C147 1.365 . S
C150 C149 1.366 . S
C150 H164 0.930 . S
C151 C148 1.378 . S
C151 N152 1.315 . S
C151 H154 0.930 . S
N152 Co132 2.194 . S
N152 C147 1.328 . S
N152 C151 1.315 . S
H153 C147 0.929 . S
H154 C151 0.930 . S
H155 C143 0.929 . S
H156 C145 0.929 . S
O157 Co132 2.351 . S
O157 C160 1.244 . S
O158 Co132 2.155 . S
O158 C160 1.240 . S
O159 Co132 2.096 . S
O159 C140 1.247 . S
C160 O157 1.244 . S
C160 O158 1.240 . S
H161 C135 0.931 . S
H162 C144 0.931 . S
H163 C148 0.929 . S
H164 C150 0.930 . S
Co165 N169 2.148 . S
Co165 N175 2.128 . S
Co165 N185 2.194 . S
Co165 O190 2.351 . S
Co165 O191 2.155 . S
Co165 O192 2.096 . S
C166 N169 1.301 . S
C166 N170 1.328 . S
C166 H171 0.930 . S
C167 C168 1.333 . S
C167 N169 1.317 . S
C167 H172 0.930 . S
C168 C167 1.333 . S
C168 N170 1.350 . S
C168 H194 0.931 . S
N169 Co165 2.148 . S
N169 C166 1.301 . S
N169 C167 1.317 . S
N170 C166 1.328 . S
N170 C168 1.350 . S
H171 C166 0.930 . S
H172 C167 0.930 . S
C173 O174 1.224 . S
C173 O192 1.247 . S
O174 C173 1.224 . S
N175 Co165 2.128 . S
N175 C176 1.355 . S
N175 C178 1.311 . S
C176 N175 1.355 . S
C176 C177 1.363 . S
C176 H188 0.929 . S
C177 C176 1.363 . S
C177 N179 1.375 . S
C177 H195 0.931 . S
C178 N175 1.311 . S
C178 N179 1.347 . S
C178 H189 0.929 . S
N179 C177 1.375 . S
N179 C178 1.347 . S
C180 C183 1.365 . S
C180 N185 1.328 . S
C180 H186 0.929 . S
C181 C182 1.362 . S
C181 C184 1.378 . S
C181 H196 0.929 . S
C182 C181 1.362 . S
C182 C183 1.366 . S
C183 C180 1.365 . S
C183 C182 1.366 . S
C183 H197 0.930 . S
C184 C181 1.378 . S
C184 N185 1.315 . S
C184 H187 0.930 . S
N185 Co165 2.194 . S
N185 C180 1.328 . S
N185 C184 1.315 . S
H186 C180 0.929 . S
H187 C184 0.930 . S
H188 C176 0.929 . S
H189 C178 0.929 . S
O190 Co165 2.351 . S
O190 C193 1.244 . S
O191 Co165 2.155 . S
O191 C193 1.240 . S
O192 Co165 2.096 . S
O192 C173 1.247 . S
C193 O190 1.244 . S
C193 O191 1.240 . S
H194 C168 0.931 . S
H195 C177 0.931 . S
H196 C181 0.929 . S
H197 C183 0.930 . S
Co198 N202 2.148 . S
Co198 N208 2.128 . S
Co198 N218 2.194 . S
Co198 O223 2.351 . S
Co198 O224 2.155 . S
Co198 O225 2.096 . S
C199 N202 1.301 . S
C199 N203 1.328 . S
C199 H204 0.930 . S
C200 C201 1.333 . S
C200 N202 1.317 . S
C200 H205 0.930 . S
C201 C200 1.333 . S
C201 N203 1.350 . S
C201 H227 0.931 . S
N202 Co198 2.148 . S
N202 C199 1.301 . S
N202 C200 1.317 . S
N203 C199 1.328 . S
N203 C201 1.350 . S
H204 C199 0.930 . S
H205 C200 0.930 . S
C206 O207 1.224 . S
C206 O225 1.247 . S
O207 C206 1.224 . S
N208 Co198 2.128 . S
N208 C209 1.355 . S
N208 C211 1.311 . S
C209 N208 1.355 . S
C209 C210 1.363 . S
C209 H221 0.929 . S
C210 C209 1.363 . S
C210 N212 1.375 . S
C210 H228 0.931 . S
C211 N208 1.311 . S
C211 N212 1.347 . S
C211 H222 0.929 . S
N212 C210 1.375 . S
N212 C211 1.347 . S
C213 C216 1.365 . S
C213 N218 1.328 . S
C213 H219 0.929 . S
C214 C215 1.362 . S
C214 C217 1.378 . S
C214 H229 0.929 . S
C215 C214 1.362 . S
C215 C216 1.366 . S
C216 C213 1.365 . S
C216 C215 1.366 . S
C216 H230 0.930 . S
C217 C214 1.378 . S
C217 N218 1.315 . S
C217 H220 0.930 . S
N218 Co198 2.194 . S
N218 C213 1.328 . S
N218 C217 1.315 . S
H219 C213 0.929 . S
H220 C217 0.930 . S
H221 C209 0.929 . S
H222 C211 0.929 . S
O223 Co198 2.351 . S
O223 C226 1.244 . S
O224 Co198 2.155 . S
O224 C226 1.240 . S
O225 Co198 2.096 . S
O225 C206 1.247 . S
C226 O223 1.244 . S
C226 O224 1.240 . S
H227 C201 0.931 . S
H228 C210 0.931 . S
H229 C214 0.929 . S
H230 C216 0.930 . S
Co231 N235 2.148 . S
Co231 N241 2.128 . S
Co231 N251 2.194 . S
Co231 O256 2.351 . S
Co231 O257 2.155 . S
Co231 O258 2.096 . S
C232 N235 1.301 . S
C232 N236 1.328 . S
C232 H237 0.930 . S
C233 C234 1.333 . S
C233 N235 1.317 . S
C233 H238 0.930 . S
C234 C233 1.333 . S
C234 N236 1.350 . S
C234 H260 0.931 . S
N235 Co231 2.148 . S
N235 C232 1.301 . S
N235 C233 1.317 . S
N236 C232 1.328 . S
N236 C234 1.350 . S
H237 C232 0.930 . S
H238 C233 0.930 . S
C239 O240 1.224 . S
C239 O258 1.247 . S
O240 C239 1.224 . S
N241 Co231 2.128 . S
N241 C242 1.355 . S
N241 C244 1.311 . S
C242 N241 1.355 . S
C242 C243 1.363 . S
C242 H254 0.929 . S
C243 C242 1.363 . S
C243 N245 1.375 . S
C243 H261 0.931 . S
C244 N241 1.311 . S
C244 N245 1.347 . S
C244 H255 0.929 . S
N245 C243 1.375 . S
N245 C244 1.347 . S
C246 C249 1.365 . S
C246 N251 1.328 . S
C246 H252 0.929 . S
C247 C248 1.362 . S
C247 C250 1.378 . S
C247 H262 0.929 . S
C248 C247 1.362 . S
C248 C249 1.366 . S
C249 C246 1.365 . S
C249 C248 1.366 . S
C249 H263 0.930 . S
C250 C247 1.378 . S
C250 N251 1.315 . S
C250 H253 0.930 . S
N251 Co231 2.194 . S
N251 C246 1.328 . S
N251 C250 1.315 . S
H252 C246 0.929 . S
H253 C250 0.930 . S
H254 C242 0.929 . S
H255 C244 0.929 . S
O256 Co231 2.351 . S
O256 C259 1.244 . S
O257 Co231 2.155 . S
O257 C259 1.240 . S
O258 Co231 2.096 . S
O258 C239 1.247 . S
C259 O256 1.244 . S
C259 O257 1.240 . S
H260 C234 0.931 . S
H261 C243 0.931 . S
H262 C247 0.929 . S
H263 C249 0.930 . S
H264 C276 0.930 . S
H265 C278 0.930 . S
H266 C279 0.930 . S
H267 C283 0.959 1_556 S
H268 C283 0.959 . S
H269 C283 0.961 . S
H270 C284 0.960 . S
H271 C284 0.961 . S
H272 C284 0.959 . S
H273 C287 0.934 . S
H274 C288 0.931 1_556 S
H275 C290 0.930 . S
C276 H264 0.930 . S
C276 C277 1.399 . S
C276 C281 1.399 . S
C277 C276 1.399 . S
C277 C278 1.376 1_554 S
C278 H265 0.930 . S
C278 C277 1.376 1_556 S
C278 C279 1.388 . S
C279 H266 0.930 . S
C279 C278 1.388 . S
C279 C280 1.390 1_556 S
C280 C279 1.390 1_554 S
C280 C281 1.394 . S
C280 C286 1.465 . S
C281 C276 1.399 . S
C281 C280 1.394 . S
C281 C282 1.516 . S
C282 C281 1.516 . S
C282 C283 1.502 . S
C282 C284 1.561 . S
C282 C285 1.526 . S
C283 H267 0.959 1_554 S
C283 H268 0.959 . S
C283 H269 0.961 . S
C283 C282 1.502 . S
C284 H270 0.960 . S
C284 H271 0.961 . S
C284 H272 0.959 . S
C284 C282 1.561 . S
C285 C282 1.526 . S
C285 C286 1.396 . S
C285 C290 1.390 . S
C286 C280 1.465 . S
C286 C285 1.396 . S
C286 C287 1.395 1_554 S
C287 H273 0.934 . S
C287 C286 1.395 1_556 S
C287 C288 1.384 1_556 S
C288 H274 0.931 1_554 S
C288 C287 1.384 1_554 S
C288 C289 1.389 . S
C289 C288 1.389 . S
C289 C290 1.387 . S
C290 H275 0.930 . S
C290 C285 1.390 . S
C290 C289 1.387 . S
H291 C303 0.930 . S
H292 C305 0.930 . S
H293 C306 0.930 . S
H294 C310 0.959 . S
H295 C310 0.959 . S
H296 C310 0.961 . S
H297 C311 0.960 . S
H298 C311 0.961 . S
H299 C311 0.959 . S
H300 C314 0.929 . S
H301 C315 0.931 . S
H302 C317 0.930 . S
C303 H291 0.930 . S
C303 C304 1.399 . S
C303 C308 1.399 . S
C304 C303 1.399 . S
C304 C305 1.376 1_554 S
C305 H292 0.930 . S
C305 C304 1.376 1_556 S
C305 C306 1.388 . S
C306 H293 0.930 . S
C306 C305 1.388 . S
C306 C307 1.390 . S
C307 C306 1.390 . S
C307 C308 1.394 1_556 S
C307 C313 1.465 . S
C308 C303 1.399 . S
C308 C307 1.394 1_554 S
C308 C309 1.516 . S
C309 C308 1.516 . S
C309 C310 1.502 . S
C309 C311 1.561 . S
C309 C312 1.526 . S
C310 H294 0.959 . S
C310 H295 0.959 . S
C310 H296 0.961 . S
C310 C309 1.502 . S
C311 H297 0.960 . S
C311 H298 0.961 . S
C311 H299 0.959 . S
C311 C309 1.561 . S
C312 C309 1.526 . S
C312 C313 1.396 1_554 S
C312 C317 1.390 . S
C313 C307 1.465 . S
C313 C312 1.396 1_556 S
C313 C314 1.399 . S
C314 H300 0.929 . S
C314 C313 1.399 . S
C314 C315 1.385 . S
C315 H301 0.931 . S
C315 C314 1.385 . S
C315 C316 1.392 . S
C316 C315 1.392 . S
C316 C317 1.384 1_556 S
C317 H302 0.930 . S
C317 C312 1.390 . S
C317 C316 1.384 1_554 S
H318 C330 0.930 . S
H319 C332 0.930 . S
H320 C333 0.930 . S
H321 C337 0.959 . S
H322 C337 0.959 . S
H323 C337 0.961 . S
H324 C338 0.960 . S
H325 C338 0.961 . S
H326 C338 0.942 1_554 S
H327 C341 0.929 . S
H328 C342 0.931 . S
H329 C344 0.930 . S
C330 H318 0.930 . S
C330 C331 1.399 1_556 S
C330 C335 1.402 . S
C331 C330 1.399 1_554 S
C331 C332 1.376 . S
C332 H319 0.930 . S
C332 C331 1.376 . S
C332 C333 1.388 . S
C333 H320 0.930 . S
C333 C332 1.388 . S
C333 C334 1.390 . S
C334 C333 1.390 . S
C334 C335 1.375 1_554 S
C334 C340 1.465 . S
C335 C330 1.402 . S
C335 C334 1.375 1_556 S
C335 C336 1.530 . S
C336 C335 1.530 . S
C336 C337 1.502 . S
C336 C338 1.561 . S
C336 C339 1.526 . S
C337 H321 0.959 . S
C337 H322 0.959 . S
C337 H323 0.961 . S
C337 C336 1.502 . S
C338 H324 0.960 . S
C338 H325 0.961 . S
C338 H326 0.942 1_556 S
C338 C336 1.561 . S
C339 C336 1.526 . S
C339 C340 1.396 1_556 S
C339 C344 1.390 . S
C340 C334 1.465 . S
C340 C339 1.396 1_554 S
C340 C341 1.399 . S
C341 H327 0.929 . S
C341 C340 1.399 . S
C341 C342 1.385 . S
C342 H328 0.931 . S
C342 C341 1.385 . S
C342 C343 1.389 . S
C343 C342 1.389 . S
C343 C344 1.387 1_554 S
C344 H329 0.930 . S
C344 C339 1.390 . S
C344 C343 1.387 1_556 S
H345 C357 0.930 . S
H346 C359 0.930 . S
H347 C360 0.930 . S
H348 C364 0.959 . S
H349 C364 0.959 . S
H350 C364 0.961 . S
H351 C365 0.960 . S
H352 C365 0.961 . S
H353 C365 0.959 . S
H354 C368 0.929 . S
H355 C369 0.931 . S
H356 C371 0.930 . S
C357 H345 0.930 . S
C357 C358 1.405 . S
C357 C362 1.399 . S
C358 C357 1.405 . S
C358 C359 1.370 1_554 S
C359 H346 0.930 . S
C359 C358 1.370 1_556 S
C359 C360 1.388 . S
C360 H347 0.930 . S
C360 C359 1.388 . S
C360 C361 1.390 . S
C361 C360 1.390 . S
C361 C362 1.394 1_556 S
C361 C367 1.465 . S
C362 C357 1.399 . S
C362 C361 1.394 1_554 S
C362 C363 1.516 . S
C363 C362 1.516 . S
C363 C364 1.502 . S
C363 C365 1.561 . S
C363 C366 1.526 . S
C364 H348 0.959 . S
C364 H349 0.959 . S
C364 H350 0.961 . S
C364 C363 1.502 . S
C365 H351 0.960 . S
C365 H352 0.961 . S
C365 H353 0.959 . S
C365 C363 1.561 . S
C366 C363 1.526 . S
C366 C367 1.396 1_554 S
C366 C371 1.390 . S
C367 C361 1.465 . S
C367 C366 1.396 1_556 S
C367 C368 1.399 . S
C368 H354 0.929 . S
C368 C367 1.399 . S
C368 C369 1.385 . S
C369 H355 0.931 . S
C369 C368 1.385 . S
C369 C370 1.389 1_556 S
C370 C369 1.389 1_554 S
C370 C371 1.387 . S
C371 H356 0.930 . S
C371 C366 1.390 . S
C371 C370 1.387 . S
H372 C384 0.930 . S
H373 C386 0.930 . S
H374 C387 0.930 . S
H375 C391 0.959 . S
H376 C391 0.959 . S
H377 C391 0.930 1_455 S
H378 C392 0.960 . S
H379 C392 0.961 . S
H380 C392 0.959 . S
H381 C395 0.929 . S
H382 C396 0.931 . S
H383 C398 0.930 . S
C384 H372 0.930 . S
C384 C385 1.399 . S
C384 C389 1.399 1_455 S
C385 C384 1.399 . S
C385 C386 1.376 . S
C386 H373 0.930 . S
C386 C385 1.376 . S
C386 C387 1.388 1_455 S
C387 H374 0.930 . S
C387 C386 1.388 1_655 S
C387 C388 1.390 . S
C388 C387 1.390 . S
C388 C389 1.394 . S
C388 C394 1.465 . S
C389 C384 1.399 1_655 S
C389 C388 1.394 . S
C389 C390 1.516 . S
C390 C389 1.516 . S
C390 C391 1.502 . S
C390 C392 1.561 . S
C390 C393 1.526 . S
C391 H375 0.959 . S
C391 H376 0.959 . S
C391 H377 0.930 1_655 S
C391 C390 1.502 . S
C392 H378 0.960 . S
C392 H379 0.961 . S
C392 H380 0.959 . S
C392 C390 1.561 . S
C393 C390 1.526 . S
C393 C394 1.396 . S
C393 C398 1.390 . S
C394 C388 1.465 . S
C394 C393 1.396 . S
C394 C395 1.399 . S
C395 H381 0.929 . S
C395 C394 1.399 . S
C395 C396 1.385 . S
C396 H382 0.931 . S
C396 C395 1.385 . S
C396 C397 1.389 . S
C397 C396 1.389 . S
C397 C398 1.387 . S
C398 H383 0.930 . S
C398 C393 1.390 . S
C398 C397 1.387 . S
H399 C411 0.930 . S
H400 C413 0.930 . S
H401 C414 0.930 . S
H402 C418 0.959 . S
H403 C418 0.959 . S
H404 C418 0.961 . S
H405 C419 0.960 . S
H406 C419 0.961 . S
H407 C419 0.959 . S
H408 C422 0.929 . S
H409 C423 0.931 . S
H410 C425 0.930 . S
C411 H399 0.930 . S
C411 C412 1.399 . S
C411 C416 1.399 1_545 S
C412 C411 1.399 . S
C412 C413 1.376 . S
C413 H400 0.930 . S
C413 C412 1.376 . S
C413 C414 1.388 1_545 S
C414 H401 0.930 . S
C414 C413 1.388 1_565 S
C414 C415 1.390 . S
C415 C414 1.390 . S
C415 C416 1.394 . S
C415 C421 1.465 . S
C416 C411 1.399 1_565 S
C416 C415 1.394 . S
C416 C417 1.516 . S
C417 C416 1.516 . S
C417 C418 1.502 . S
C417 C419 1.561 . S
C417 C420 1.526 . S
C418 H402 0.959 . S
C418 H403 0.959 . S
C418 H404 0.961 . S
C418 C417 1.502 . S
C419 H405 0.960 . S
C419 H406 0.961 . S
C419 H407 0.959 . S
C419 C417 1.561 . S
C420 C417 1.526 . S
C420 C421 1.396 . S
C420 C425 1.390 . S
C421 C415 1.465 . S
C421 C420 1.396 . S
C421 C422 1.399 . S
C422 H408 0.929 . S
C422 C421 1.399 . S
C422 C423 1.385 . S
C423 H409 0.931 . S
C423 C422 1.385 . S
C423 C424 1.389 . S
C424 C423 1.389 . S
C424 C425 1.387 . S
C425 H410 0.930 . S
C425 C420 1.390 . S
C425 C424 1.387 . S
H426 C438 0.930 . S
H427 C440 0.930 . S
H428 C441 0.930 . S
H429 C445 0.959 . S
H430 C445 0.959 . S
H431 C445 0.961 . S
H432 C446 0.960 . S
H433 C446 0.961 . S
H434 C446 0.959 . S
H435 C449 0.929 . S
H436 C450 0.931 . S
H437 C452 0.930 . S
C438 H426 0.930 . S
C438 C439 1.399 . S
C438 C443 1.399 . S
C439 C438 1.399 . S
C439 C440 1.376 . S
C440 H427 0.930 . S
C440 C439 1.376 . S
C440 C441 1.388 . S
C441 H428 0.930 . S
C441 C440 1.388 . S
C441 C442 1.390 . S
C442 C441 1.390 . S
C442 C443 1.394 . S
C442 C448 1.465 . S
C443 C438 1.399 . S
C443 C442 1.394 . S
C443 C444 1.516 . S
C444 C443 1.516 . S
C444 C445 1.502 . S
C444 C446 1.561 . S
C444 C447 1.526 . S
C445 H429 0.959 . S
C445 H430 0.959 . S
C445 H431 0.961 . S
C445 C444 1.502 . S
C446 H432 0.960 . S
C446 H433 0.961 . S
C446 H434 0.959 . S
C446 C444 1.561 . S
C447 C444 1.526 . S
C447 C448 1.396 . S
C447 C452 1.390 1_455 S
C448 C442 1.465 . S
C448 C447 1.396 . S
C448 C449 1.399 . S
C449 H435 0.929 . S
C449 C448 1.399 . S
C449 C450 1.385 1_455 S
C450 H436 0.931 . S
C450 C449 1.385 1_655 S
C450 C451 1.389 . S
C451 C450 1.389 . S
C451 C452 1.387 . S
C452 H437 0.930 . S
C452 C447 1.390 1_655 S
C452 C451 1.387 . S
H453 C465 0.930 . S
H454 C467 0.930 . S
H455 C468 0.930 . S
H456 C472 0.959 . S
H457 C472 0.959 . S
H458 C472 0.961 . S
H459 C473 0.960 . S
H460 C473 0.961 . S
H461 C473 0.959 . S
H462 C476 0.929 . S
H463 C477 0.931 . S
H464 C479 0.930 . S
C465 H453 0.930 . S
C465 C466 1.399 . S
C465 C470 1.399 . S
C466 C465 1.399 . S
C466 C467 1.376 . S
C467 H454 0.930 . S
C467 C466 1.376 . S
C467 C468 1.388 . S
C468 H455 0.930 . S
C468 C467 1.388 . S
C468 C469 1.390 . S
C469 C468 1.390 . S
C469 C470 1.394 . S
C469 C475 1.465 . S
C470 C465 1.399 . S
C470 C469 1.394 . S
C470 C471 1.516 . S
C471 C470 1.516 . S
C471 C472 1.502 . S
C471 C473 1.561 . S
C471 C474 1.526 . S
C472 H456 0.959 . S
C472 H457 0.959 . S
C472 H458 0.961 . S
C472 C471 1.502 . S
C473 H459 0.960 . S
C473 H460 0.961 . S
C473 H461 0.959 . S
C473 C471 1.561 . S
C474 C471 1.526 . S
C474 C475 1.396 . S
C474 C479 1.390 1_545 S
C475 C469 1.465 . S
C475 C474 1.396 . S
C475 C476 1.399 . S
C476 H462 0.929 . S
C476 C475 1.399 . S
C476 C477 1.385 1_545 S
C477 H463 0.931 . S
C477 C476 1.385 1_565 S
C477 C478 1.389 . S
C478 C477 1.389 . S
C478 C479 1.387 . S
C479 H464 0.930 . S
C479 C474 1.390 1_565 S
C479 C478 1.387 . S
H480 C492 0.930 . S
H481 C494 0.930 . S
H482 C495 0.930 . S
H483 C499 0.959 . S
H484 C499 0.959 . S
H485 C499 0.961 . S
H486 C500 0.960 . S
H487 C500 0.961 . S
H488 C500 0.959 . S
H489 C503 0.929 . S
H490 C504 0.931 . S
H491 C506 0.930 . S
C492 H480 0.930 . S
C492 C493 1.399 . S
C492 C497 1.399 . S
C493 C492 1.399 . S
C493 C494 1.376 . S
C494 H481 0.930 . S
C494 C493 1.376 . S
C494 C495 1.388 . S
C495 H482 0.930 . S
C495 C494 1.388 . S
C495 C496 1.390 . S
C496 C495 1.390 . S
C496 C497 1.394 . S
C496 C502 1.465 . S
C497 C492 1.399 . S
C497 C496 1.394 . S
C497 C498 1.516 . S
C498 C497 1.516 . S
C498 C499 1.502 . S
C498 C500 1.561 . S
C498 C501 1.526 . S
C499 H483 0.959 . S
C499 H484 0.959 . S
C499 H485 0.961 . S
C499 C498 1.502 . S
C500 H486 0.960 . S
C500 H487 0.961 . S
C500 H488 0.959 . S
C500 C498 1.561 . S
C501 C498 1.526 . S
C501 C502 1.396 . S
C501 C506 1.390 . S
C502 C496 1.465 . S
C502 C501 1.396 . S
C502 C503 1.399 . S
C503 H489 0.929 . S
C503 C502 1.399 . S
C503 C504 1.385 . S
C504 H490 0.931 . S
C504 C503 1.385 . S
C504 C505 1.389 . S
C505 C504 1.389 . S
C505 C506 1.387 . S
C506 H491 0.930 . S
C506 C501 1.390 . S
C506 C505 1.387 . S
H507 C519 0.930 . S
H508 C521 0.930 . S
H509 C522 0.930 . S
H510 C526 0.959 . S
H511 C526 0.959 . S
H512 C526 0.961 . S
H513 C527 0.960 . S
H514 C527 0.961 . S
H515 C527 0.959 . S
H516 C530 0.929 . S
H517 C531 0.931 . S
H518 C533 0.930 . S
C519 H507 0.930 . S
C519 C520 1.399 . S
C519 C524 1.399 . S
C520 C519 1.399 . S
C520 C521 1.376 . S
C521 H508 0.930 . S
C521 C520 1.376 . S
C521 C522 1.388 . S
C522 H509 0.930 . S
C522 C521 1.388 . S
C522 C523 1.390 . S
C523 C522 1.390 . S
C523 C524 1.394 . S
C523 C529 1.465 . S
C524 C519 1.399 . S
C524 C523 1.394 . S
C524 C525 1.516 . S
C525 C524 1.516 . S
C525 C526 1.502 . S
C525 C527 1.561 . S
C525 C528 1.526 . S
C526 H510 0.959 . S
C526 H511 0.959 . S
C526 H512 0.961 . S
C526 C525 1.502 . S
C527 H513 0.960 . S
C527 H514 0.961 . S
C527 H515 0.959 . S
C527 C525 1.561 . S
C528 C525 1.526 . S
C528 C529 1.396 . S
C528 C533 1.390 . S
C529 C523 1.465 . S
C529 C528 1.396 . S
C529 C530 1.399 . S
C530 H516 0.929 . S
C530 C529 1.399 . S
C530 C531 1.385 . S
C531 H517 0.931 . S
C531 C530 1.385 . S
C531 C532 1.389 . S
C532 C531 1.389 . S
C532 C533 1.387 . S
C533 H518 0.930 . S
C533 C528 1.390 . S
C533 C532 1.387 . S
H534 C546 0.930 . S
H535 C548 0.930 . S
H536 C549 0.930 . S
H537 C553 0.959 . S
H538 C553 0.959 . S
H539 C553 0.961 . S
H540 C554 0.960 . S
H541 C554 0.961 . S
H542 C554 0.959 . S
H543 C557 0.929 . S
H544 C558 0.931 . S
H545 C560 0.930 . S
C546 H534 0.930 . S
C546 C547 1.399 . S
C546 C551 1.399 . S
C547 C546 1.399 . S
C547 C548 1.376 . S
C548 H535 0.930 . S
C548 C547 1.376 . S
C548 C549 1.388 . S
C549 H536 0.930 . S
C549 C548 1.388 . S
C549 C550 1.390 . S
C550 C549 1.390 . S
C550 C551 1.394 . S
C550 C556 1.465 . S
C551 C546 1.399 . S
C551 C550 1.394 . S
C551 C552 1.516 . S
C552 C551 1.516 . S
C552 C553 1.502 . S
C552 C554 1.561 . S
C552 C555 1.526 . S
C553 H537 0.959 . S
C553 H538 0.959 . S
C553 H539 0.961 . S
C553 C552 1.502 . S
C554 H540 0.960 . S
C554 H541 0.961 . S
C554 H542 0.959 . S
C554 C552 1.561 . S
C555 C552 1.526 . S
C555 C556 1.396 . S
C555 C560 1.390 . S
C556 C550 1.465 . S
C556 C555 1.396 . S
C556 C557 1.399 . S
C557 H543 0.929 . S
C557 C556 1.399 . S
C557 C558 1.385 . S
C558 H544 0.931 . S
C558 C557 1.385 . S
C558 C559 1.389 . S
C559 C558 1.389 . S
C559 C560 1.387 . S
C560 H545 0.930 . S
C560 C555 1.390 . S
C560 C559 1.387 . S
H561 C573 0.930 . S
H562 C575 0.930 . S
H563 C576 0.930 . S
H564 C580 0.959 . S
H565 C580 0.959 . S
H566 C580 0.961 . S
H567 C581 0.960 . S
H568 C581 0.961 . S
H569 C581 0.959 . S
H570 C584 0.929 . S
H571 C585 0.931 . S
H572 C587 0.930 . S
C573 H561 0.930 . S
C573 C574 1.399 . S
C573 C578 1.399 . S
C574 C573 1.399 . S
C574 C575 1.376 . S
C575 H562 0.930 . S
C575 C574 1.376 . S
C575 C576 1.388 . S
C576 H563 0.930 . S
C576 C575 1.388 . S
C576 C577 1.390 . S
C577 C576 1.390 . S
C577 C578 1.394 . S
C577 C583 1.465 . S
C578 C573 1.399 . S
C578 C577 1.394 . S
C578 C579 1.516 . S
C579 C578 1.516 . S
C579 C580 1.502 . S
C579 C581 1.561 . S
C579 C582 1.526 . S
C580 H564 0.959 . S
C580 H565 0.959 . S
C580 H566 0.961 . S
C580 C579 1.502 . S
C581 H567 0.960 . S
C581 H568 0.961 . S
C581 H569 0.959 . S
C581 C579 1.561 . S
C582 C579 1.526 . S
C582 C583 1.396 . S
C582 C587 1.390 . S
C583 C577 1.465 . S
C583 C582 1.396 . S
C583 C584 1.399 . S
C584 H570 0.929 . S
C584 C583 1.399 . S
C584 C585 1.385 . S
C585 H571 0.931 . S
C585 C584 1.385 . S
C585 C586 1.389 . S
C586 C585 1.389 . S
C586 C587 1.387 . S
C587 H572 0.930 . S
C587 C582 1.390 . S
C587 C586 1.387 . S
H588 C600 0.930 . S
H589 C602 0.930 . S
H590 C603 0.930 . S
H591 C607 0.959 . S
H592 C607 0.959 . S
H593 C607 0.961 . S
H594 C608 0.960 . S
H595 C608 0.961 . S
H596 C608 0.959 . S
H597 C611 0.929 . S
H598 C612 0.931 . S
H599 C614 0.930 . S
C600 H588 0.930 . S
C600 C601 1.399 . S
C600 C605 1.399 . S
C601 C600 1.399 . S
C601 C602 1.376 . S
C602 H589 0.930 . S
C602 C601 1.376 . S
C602 C603 1.388 . S
C603 H590 0.930 . S
C603 C602 1.388 . S
C603 C604 1.390 . S
C604 C603 1.390 . S
C604 C605 1.394 . S
C604 C610 1.465 . S
C605 C600 1.399 . S
C605 C604 1.394 . S
C605 C606 1.516 . S
C606 C605 1.516 . S
C606 C607 1.502 . S
C606 C608 1.561 . S
C606 C609 1.526 . S
C607 H591 0.959 . S
C607 H592 0.959 . S
C607 H593 0.961 . S
C607 C606 1.502 . S
C608 H594 0.960 . S
C608 H595 0.961 . S
C608 H596 0.959 . S
C608 C606 1.561 . S
C609 C606 1.526 . S
C609 C610 1.396 . S
C609 C614 1.390 . S
C610 C604 1.465 . S
C610 C609 1.396 . S
C610 C611 1.399 . S
C611 H597 0.929 . S
C611 C610 1.399 . S
C611 C612 1.385 . S
C612 H598 0.931 . S
C612 C611 1.385 . S
C612 C613 1.389 . S
C613 C612 1.389 . S
C613 C614 1.387 . S
C614 H599 0.930 . S
C614 C609 1.390 . S
C614 C613 1.387 . S
H615 C627 0.930 . S
H616 C629 0.930 . S
H617 C630 0.930 . S
H618 C634 0.959 . S
H619 C634 0.959 . S
H620 C634 0.961 . S
H621 C635 0.960 . S
H622 C635 0.961 . S
H623 C635 0.959 . S
H624 C638 0.929 . S
H625 C639 0.931 . S
H626 C641 0.930 . S
C627 H615 0.930 . S
C627 C628 1.399 . S
C627 C632 1.399 . S
C628 C627 1.399 . S
C628 C629 1.376 . S
C629 H616 0.930 . S
C629 C628 1.376 . S
C629 C630 1.388 . S
C630 H617 0.930 . S
C630 C629 1.388 . S
C630 C631 1.390 . S
C631 C630 1.390 . S
C631 C632 1.394 . S
C631 C637 1.465 . S
C632 C627 1.399 . S
C632 C631 1.394 . S
C632 C633 1.516 . S
C633 C632 1.516 . S
C633 C634 1.502 . S
C633 C635 1.561 . S
C633 C636 1.526 . S
C634 H618 0.959 . S
C634 H619 0.959 . S
C634 H620 0.961 . S
C634 C633 1.502 . S
C635 H621 0.960 . S
C635 H622 0.961 . S
C635 H623 0.959 . S
C635 C633 1.561 . S
C636 C633 1.526 . S
C636 C637 1.396 . S
C636 C641 1.390 . S
C637 C631 1.465 . S
C637 C636 1.396 . S
C637 C638 1.399 . S
C638 H624 0.929 . S
C638 C637 1.399 . S
C638 C639 1.385 . S
C639 H625 0.931 . S
C639 C638 1.385 . S
C639 C640 1.389 . S
C640 C639 1.389 . S
C640 C641 1.387 . S
C641 H626 0.930 . S
C641 C636 1.390 . S
C641 C640 1.387 . S
H642 C654 0.930 . S
H643 C656 0.930 . S
H644 C657 0.930 . S
H645 C661 0.959 . S
H646 C661 0.959 . S
H647 C661 0.961 . S
H648 C662 0.960 . S
H649 C662 0.961 . S
H650 C662 0.959 . S
H651 C665 0.929 . S
H652 C666 0.931 . S
H653 C668 0.930 . S
C654 H642 0.930 . S
C654 C655 1.399 . S
C654 C659 1.399 . S
C655 C654 1.399 . S
C655 C656 1.376 . S
C656 H643 0.930 . S
C656 C655 1.376 . S
C656 C657 1.388 . S
C657 H644 0.930 . S
C657 C656 1.388 . S
C657 C658 1.390 . S
C658 C657 1.390 . S
C658 C659 1.394 . S
C658 C664 1.465 . S
C659 C654 1.399 . S
C659 C658 1.394 . S
C659 C660 1.516 . S
C660 C659 1.516 . S
C660 C661 1.502 . S
C660 C662 1.561 . S
C660 C663 1.526 . S
C661 H645 0.959 . S
C661 H646 0.959 . S
C661 H647 0.961 . S
C661 C660 1.502 . S
C662 H648 0.960 . S
C662 H649 0.961 . S
C662 H650 0.959 . S
C662 C660 1.561 . S
C663 C660 1.526 . S
C663 C664 1.396 . S
C663 C668 1.390 . S
C664 C658 1.465 . S
C664 C663 1.396 . S
C664 C665 1.399 . S
C665 H651 0.929 . S
C665 C664 1.399 . S
C665 C666 1.385 . S
C666 H652 0.931 . S
C666 C665 1.385 . S
C666 C667 1.389 . S
C667 C666 1.389 . S
C667 C668 1.387 . S
C668 H653 0.930 . S
C668 C663 1.390 . S
C668 C667 1.387 . S
H669 C681 0.930 . S
H670 C683 0.930 . S
H671 C684 0.930 . S
H672 C688 0.959 . S
H673 C688 0.959 . S
H674 C688 0.961 . S
H675 C689 0.960 . S
H676 C689 0.961 . S
H677 C689 0.959 . S
H678 C692 0.929 . S
H679 C693 0.931 . S
H680 C695 0.930 . S
C681 H669 0.930 . S
C681 C682 1.399 . S
C681 C686 1.399 . S
C682 C681 1.399 . S
C682 C683 1.376 . S
C683 H670 0.930 . S
C683 C682 1.376 . S
C683 C684 1.388 . S
C684 H671 0.930 . S
C684 C683 1.388 . S
C684 C685 1.390 . S
C685 C684 1.390 . S
C685 C686 1.394 . S
C685 C691 1.465 . S
C686 C681 1.399 . S
C686 C685 1.394 . S
C686 C687 1.516 . S
C687 C686 1.516 . S
C687 C688 1.502 . S
C687 C689 1.561 . S
C687 C690 1.526 . S
C688 H672 0.959 . S
C688 H673 0.959 . S
C688 H674 0.961 . S
C688 C687 1.502 . S
C689 H675 0.960 . S
C689 H676 0.961 . S
C689 H677 0.959 . S
C689 C687 1.561 . S
C690 C687 1.526 . S
C690 C691 1.396 . S
C690 C695 1.390 . S
C691 C685 1.465 . S
C691 C690 1.396 . S
C691 C692 1.399 . S
C692 H678 0.929 . S
C692 C691 1.399 . S
C692 C693 1.385 . S
C693 H679 0.931 . S
C693 C692 1.385 . S
C693 C694 1.389 . S
C694 C693 1.389 . S
C694 C695 1.387 . S
C695 H680 0.930 . S
C695 C690 1.390 . S
C695 C694 1.387 . S
H696 C708 0.930 . S
H697 C710 0.930 . S
H698 C711 0.930 . S
H699 C715 0.959 . S
H700 C715 0.959 . S
H701 C715 0.961 . S
H702 C716 0.960 1_655 S
H703 C716 0.961 . S
H704 C716 0.959 . S
H705 C719 0.929 . S
H706 C720 0.931 . S
H707 C722 0.930 . S
C708 H696 0.930 . S
C708 C709 1.399 1_556 S
C708 C713 1.399 . S
C709 C708 1.399 1_554 S
C709 C710 1.376 . S
C710 H697 0.930 . S
C710 C709 1.376 . S
C710 C711 1.388 . S
C711 H698 0.930 . S
C711 C710 1.388 . S
C711 C712 1.390 . S
C712 C711 1.390 . S
C712 C713 1.394 1_554 S
C712 C718 1.465 1_655 S
C713 C708 1.399 . S
C713 C712 1.394 1_556 S
C713 C714 1.516 . S
C714 C713 1.516 . S
C714 C715 1.502 . S
C714 C716 1.561 1_655 S
C714 C717 1.526 1_655 S
C715 H699 0.959 . S
C715 H700 0.959 . S
C715 H701 0.961 . S
C715 C714 1.502 . S
C716 H702 0.960 1_455 S
C716 H703 0.961 . S
C716 H704 0.959 . S
C716 C714 1.561 1_455 S
C717 C714 1.526 1_455 S
C717 C718 1.396 1_556 S
C717 C722 1.390 . S
C718 C712 1.465 1_455 S
C718 C717 1.396 1_554 S
C718 C719 1.399 . S
C719 H705 0.929 . S
C719 C718 1.399 . S
C719 C720 1.385 . S
C720 H706 0.931 . S
C720 C719 1.385 . S
C720 C721 1.389 . S
C721 C720 1.389 . S
C721 C722 1.387 1_554 S
C722 H707 0.930 . S
C722 C717 1.390 . S
C722 C721 1.387 1_556 S
H723 C735 0.930 . S
H724 C737 0.930 . S
H725 C738 0.930 . S
H726 C742 0.959 . S
H727 C742 0.959 . S
H728 C742 0.961 . S
H729 C743 0.960 1_545 S
H730 C743 0.961 . S
H731 C743 0.959 . S
H732 C746 0.929 . S
H733 C747 0.931 . S
H734 C749 0.930 . S
C735 H723 0.930 . S
C735 C736 1.399 1_556 S
C735 C740 1.399 . S
C736 C735 1.399 1_554 S
C736 C737 1.376 . S
C737 H724 0.930 . S
C737 C736 1.376 . S
C737 C738 1.388 . S
C738 H725 0.930 . S
C738 C737 1.388 . S
C738 C739 1.390 . S
C739 C738 1.390 . S
C739 C740 1.394 1_554 S
C739 C745 1.465 1_545 S
C740 C735 1.399 . S
C740 C739 1.394 1_556 S
C740 C741 1.516 . S
C741 C740 1.516 . S
C741 C742 1.502 . S
C741 C743 1.561 1_545 S
C741 C744 1.526 1_545 S
C742 H726 0.959 . S
C742 H727 0.959 . S
C742 H728 0.961 . S
C742 C741 1.502 . S
C743 H729 0.960 1_565 S
C743 H730 0.961 . S
C743 H731 0.959 . S
C743 C741 1.561 1_565 S
C744 C741 1.526 1_565 S
C744 C745 1.396 1_556 S
C744 C749 1.390 . S
C745 C739 1.465 1_565 S
C745 C744 1.396 1_554 S
C745 C746 1.399 . S
C746 H732 0.929 . S
C746 C745 1.399 . S
C746 C747 1.385 . S
C747 H733 0.931 . S
C747 C746 1.385 . S
C747 C748 1.389 . S
C748 C747 1.389 . S
C748 C749 1.387 1_554 S
C749 H734 0.930 . S
C749 C744 1.390 . S
C749 C748 1.387 1_556 S
H750 C762 0.930 . S
H751 C764 0.930 . S
H752 C765 0.930 . S
H753 C769 0.959 . S
H754 C769 0.959 . S
H755 C769 0.961 1_545 S
H756 C770 0.960 . S
H757 C770 0.961 . S
H758 C770 0.959 . S
H759 C773 0.929 . S
H760 C774 0.931 . S
H761 C776 0.930 . S
C762 H750 0.930 . S
C762 C763 1.399 . S
C762 C767 1.399 . S
C763 C762 1.399 . S
C763 C764 1.376 . S
C764 H751 0.930 . S
C764 C763 1.376 . S
C764 C765 1.388 . S
C765 H752 0.930 . S
C765 C764 1.388 . S
C765 C766 1.390 . S
C766 C765 1.390 . S
C766 C767 1.394 . S
C766 C772 1.465 1_545 S
C767 C762 1.399 . S
C767 C766 1.394 . S
C767 C768 1.516 . S
C768 C767 1.516 . S
C768 C769 1.502 1_545 S
C768 C770 1.561 . S
C768 C771 1.526 1_545 S
C769 H753 0.959 . S
C769 H754 0.959 . S
C769 H755 0.961 1_565 S
C769 C768 1.502 1_565 S
C770 H756 0.960 . S
C770 H757 0.961 . S
C770 H758 0.959 . S
C770 C768 1.561 . S
C771 C768 1.526 1_565 S
C771 C772 1.396 . S
C771 C776 1.390 . S
C772 C766 1.465 1_565 S
C772 C771 1.396 . S
C772 C773 1.399 . S
C773 H759 0.929 . S
C773 C772 1.399 . S
C773 C774 1.385 . S
C774 H760 0.931 . S
C774 C773 1.385 . S
C774 C775 1.389 . S
C775 C774 1.389 . S
C775 C776 1.387 . S
C776 H761 0.930 . S
C776 C771 1.390 . S
C776 C775 1.387 . S
H777 C789 0.930 . S
H778 C791 0.930 . S
H779 C792 0.922 1_655 S
H780 C796 0.959 . S
H781 C796 0.959 . S
H782 C796 0.961 . S
H783 C797 0.960 1_455 S
H784 C797 0.961 . S
H785 C797 0.959 . S
H786 C800 0.929 . S
H787 C801 0.931 . S
H788 C803 0.930 . S
C789 H777 0.930 . S
C789 C790 1.399 . S
C789 C794 1.399 . S
C790 C789 1.399 . S
C790 C791 1.376 . S
C791 H778 0.930 . S
C791 C790 1.376 . S
C791 C792 1.388 . S
C792 H779 0.922 1_455 S
C792 C791 1.388 . S
C792 C793 1.390 . S
C793 C792 1.390 . S
C793 C794 1.394 . S
C793 C799 1.465 1_455 S
C794 C789 1.399 . S
C794 C793 1.394 . S
C794 C795 1.516 . S
C795 C794 1.516 . S
C795 C796 1.502 . S
C795 C797 1.561 1_455 S
C795 C798 1.526 1_455 S
C796 H780 0.959 . S
C796 H781 0.959 . S
C796 H782 0.961 . S
C796 C795 1.502 . S
C797 H783 0.960 1_655 S
C797 H784 0.961 . S
C797 H785 0.959 . S
C797 C795 1.561 1_655 S
C798 C795 1.526 1_655 S
C798 C799 1.396 . S
C798 C803 1.390 . S
C799 C793 1.465 1_655 S
C799 C798 1.396 . S
C799 C800 1.399 . S
C800 H786 0.929 . S
C800 C799 1.399 . S
C800 C801 1.385 . S
C801 H787 0.931 . S
C801 C800 1.385 . S
C801 C802 1.389 . S
C802 C801 1.389 . S
C802 C803 1.387 . S
C803 H788 0.930 . S
C803 C798 1.390 . S
C803 C802 1.387 . S
C277 C41 0.815 . S
C289 N5 0.754 . S
C304 N38 0.855 . S
C316 C74 0.837 1_556 S
C331 N71 0.841 . S
C343 C107 0.827 . S
C358 C8 0.823 . S
C370 N104 0.777 . S
C385 C173 0.839 . S
C397 N137 0.877 . S
C412 C206 0.832 . S
C424 N170 0.863 . S
C439 N203 0.853 . S
C451 C239 0.837 . S
C466 N236 0.855 . S
C478 C140 0.837 . S
C493 C215 1.495 . S
C505 C28 1.546 . S
C520 C61 1.544 . S
C532 C248 1.547 . S
C547 C94 1.525 . S
C559 C149 1.538 . S
C574 C127 1.559 . S
C586 C182 1.530 . S
C601 C160 1.573 . S
C613 C83 1.503 . S
C628 C193 1.534 . S
C640 C116 1.519 . S
C655 C226 1.572 . S
C667 C17 1.509 . S
C682 C50 1.534 . S
C694 C259 1.530 . S
C709 N80 2.159 . S
C721 N14 2.168 . S
C736 N47 2.158 . S
C748 N113 2.169 . S
C763 N212 2.162 . S
C775 N146 2.164 . S
C790 N179 2.171 . S
C802 N245 2.163 . S
