# Generated by pormake.
# Topology zfw, (5)-cn, num edge types: 1
# Building blocks:
#     Node 0, Type 0, BuildingBlock: XOMCOT_clean_sbu_0, # of connection points: 5
#     Node 1, Type 0, BuildingBlock: XOMCOT_clean_sbu_0, # of connection points: 5
#     Node 2, Type 0, BuildingBlock: XOMCOT_clean_sbu_0, # of connection points: 5
#     Node 3, Type 0, BuildingBlock: XOMCOT_clean_sbu_0, # of connection points: 5
#     Node 4, Type 0, BuildingBlock: XOMCOT_clean_sbu_0, # of connection points: 5
#     Node 5, Type 0, BuildingBlock: XOMCOT_clean_sbu_0, # of connection points: 5
#     Node 6, Type 0, BuildingBlock: XOMCOT_clean_sbu_0, # of connection points: 5
#     Node 7, Type 0, BuildingBlock: XOMCOT_clean_sbu_0, # of connection points: 5
#     Node 8, Type 0, BuildingBlock: XOMCOT_clean_sbu_0, # of connection points: 5
#     Node 9, Type 0, BuildingBlock: XOMCOT_clean_sbu_0, # of connection points: 5
#     Node 10, Type 0, BuildingBlock: XOMCOT_clean_sbu_0, # of connection points: 5
#     Node 11, Type 0, BuildingBlock: XOMCOT_clean_sbu_0, # of connection points: 5
#     Node 12, Type 0, BuildingBlock: XOMCOT_clean_sbu_0, # of connection points: 5
#     Node 13, Type 0, BuildingBlock: XOMCOT_clean_sbu_0, # of connection points: 5
#     Node 14, Type 0, BuildingBlock: XOMCOT_clean_sbu_0, # of connection points: 5
#     Node 15, Type 0, BuildingBlock: XOMCOT_clean_sbu_0, # of connection points: 5
#     Edge 16, Type (0, 0), BuildingBlock: OJICUG_clean_linker_0, # of connection points: 2
#     Edge 17, Type (0, 0), BuildingBlock: OJICUG_clean_linker_0, # of connection points: 2
#     Edge 18, Type (0, 0), BuildingBlock: OJICUG_clean_linker_0, # of connection points: 2
#     Edge 19, Type (0, 0), BuildingBlock: OJICUG_clean_linker_0, # of connection points: 2
#     Edge 20, Type (0, 0), BuildingBlock: OJICUG_clean_linker_0, # of connection points: 2
#     Edge 21, Type (0, 0), BuildingBlock: OJICUG_clean_linker_0, # of connection points: 2
#     Edge 22, Type (0, 0), BuildingBlock: OJICUG_clean_linker_0, # of connection points: 2
#     Edge 23, Type (0, 0), BuildingBlock: OJICUG_clean_linker_0, # of connection points: 2
#     Edge 24, Type (0, 0), BuildingBlock: OJICUG_clean_linker_0, # of connection points: 2
#     Edge 25, Type (0, 0), BuildingBlock: OJICUG_clean_linker_0, # of connection points: 2
#     Edge 26, Type (0, 0), BuildingBlock: OJICUG_clean_linker_0, # of connection points: 2
#     Edge 27, Type (0, 0), BuildingBlock: OJICUG_clean_linker_0, # of connection points: 2
#     Edge 28, Type (0, 0), BuildingBlock: OJICUG_clean_linker_0, # of connection points: 2
#     Edge 29, Type (0, 0), BuildingBlock: OJICUG_clean_linker_0, # of connection points: 2
#     Edge 30, Type (0, 0), BuildingBlock: OJICUG_clean_linker_0, # of connection points: 2
#     Edge 31, Type (0, 0), BuildingBlock: OJICUG_clean_linker_0, # of connection points: 2
#     Edge 32, Type (0, 0), BuildingBlock: OJICUG_clean_linker_0, # of connection points: 2
#     Edge 33, Type (0, 0), BuildingBlock: OJICUG_clean_linker_0, # of connection points: 2
#     Edge 34, Type (0, 0), BuildingBlock: OJICUG_clean_linker_0, # of connection points: 2
#     Edge 35, Type (0, 0), BuildingBlock: OJICUG_clean_linker_0, # of connection points: 2
#     Edge 36, Type (0, 0), BuildingBlock: OJICUG_clean_linker_0, # of connection points: 2
#     Edge 37, Type (0, 0), BuildingBlock: OJICUG_clean_linker_0, # of connection points: 2
#     Edge 38, Type (0, 0), BuildingBlock: OJICUG_clean_linker_0, # of connection points: 2
#     Edge 39, Type (0, 0), BuildingBlock: OJICUG_clean_linker_0, # of connection points: 2
#     Edge 40, Type (0, 0), BuildingBlock: OJICUG_clean_linker_0, # of connection points: 2
#     Edge 41, Type (0, 0), BuildingBlock: OJICUG_clean_linker_0, # of connection points: 2
#     Edge 42, Type (0, 0), BuildingBlock: OJICUG_clean_linker_0, # of connection points: 2
#     Edge 43, Type (0, 0), BuildingBlock: OJICUG_clean_linker_0, # of connection points: 2
#     Edge 44, Type (0, 0), BuildingBlock: OJICUG_clean_linker_0, # of connection points: 2
#     Edge 45, Type (0, 0), BuildingBlock: OJICUG_clean_linker_0, # of connection points: 2
#     Edge 46, Type (0, 0), BuildingBlock: OJICUG_clean_linker_0, # of connection points: 2
#     Edge 47, Type (0, 0), BuildingBlock: OJICUG_clean_linker_0, # of connection points: 2
#     Edge 48, Type (0, 0), BuildingBlock: OJICUG_clean_linker_0, # of connection points: 2
#     Edge 49, Type (0, 0), BuildingBlock: OJICUG_clean_linker_0, # of connection points: 2
#     Edge 50, Type (0, 0), BuildingBlock: OJICUG_clean_linker_0, # of connection points: 2
#     Edge 51, Type (0, 0), BuildingBlock: OJICUG_clean_linker_0, # of connection points: 2
#     Edge 52, Type (0, 0), BuildingBlock: OJICUG_clean_linker_0, # of connection points: 2
#     Edge 53, Type (0, 0), BuildingBlock: OJICUG_clean_linker_0, # of connection points: 2
#     Edge 54, Type (0, 0), BuildingBlock: OJICUG_clean_linker_0, # of connection points: 2
#     Edge 55, Type (0, 0), BuildingBlock: OJICUG_clean_linker_0, # of connection points: 2
# Relax obj value: 0.262
# Max RMSD: 0.221
# Mean RMSD: 0.205
data_MOF--net-zfw--node1-XOMCOT_clean_sbu_0--edge1-OJICUG_clean_linker_0
_symmetry_space_group_name_H-M    P1
_symmetry_Int_Tables_number       1
_symmetry_cell_setting            triclinic
loop_
_symmetry_equiv_pos_as_xyz
'x, y, z'
_cell_length_a     50.980967
_cell_length_b     50.498303
_cell_length_c     13.276846
_cell_angle_alpha  89.940174
_cell_angle_beta   89.904542
_cell_angle_gamma 90.060284
loop_
_atom_site_label
_atom_site_type_symbol
_atom_site_fract_x
_atom_site_fract_y
_atom_site_fract_z
_atom_type_partial_charge
Co0 Co 0.10821 0.09738 0.26337 0.0
C1 C 0.11899 0.0926 0.48104 0.0
C2 C 0.10516 0.05572 0.42263 0.0
C3 C 0.10766 0.05353 0.52568 0.0
N4 N 0.11168 0.08055 0.39488 0.0
N5 N 0.11593 0.07702 0.56265 0.0
H6 H 0.12408 0.11327 0.48498 0.0
H7 H 0.0981 0.0404 0.37317 0.0
C8 C 0.08498 0.04616 0.17705 0.0
O9 O 0.06342 0.04837 0.23052 0.0
N10 N 0.10597 0.11319 0.13202 0.0
C11 C 0.09571 0.13652 0.10219 0.0
C12 C 0.09708 0.13773 -0.00195 0.0
C13 C 0.11391 0.10101 0.04752 0.0
N14 N 0.10828 0.11516 0.96505 0.0
C15 C 0.06444 0.11449 0.37653 0.0
C16 C 0.02572 0.11094 0.23313 0.0
C17 C 0.01952 0.12276 0.32674 0.0
C18 C 0.03961 0.12414 0.39817 0.0
C19 C 0.05141 0.1017 0.21374 0.0
N20 N 0.07044 0.10301 0.28632 0.0
H21 H 0.07936 0.11854 0.43103 0.0
H22 H 0.05609 0.09418 0.13961 0.0
H23 H 0.087 0.15102 0.15193 0.0
H24 H 0.1233 0.08182 0.04552 0.0
O25 O 0.11869 0.1309 0.31729 0.0
O26 O 0.14662 0.10127 0.25835 0.0
O27 O 0.10452 0.06146 0.19389 0.0
C28 C 0.14283 0.12449 0.29931 0.0
H29 H 0.10255 0.03623 0.56957 0.0
H30 H 0.08938 0.15327 0.95032 0.0
H31 H 1.01121 0.10946 0.17406 0.0
H32 H 0.0371 0.13437 0.46904 0.0
Co33 Co 0.24589 0.78953 0.51709 0.0
C34 C 0.25173 0.80186 0.73327 0.0
C35 C 0.28601 0.78232 0.67766 0.0
C36 C 0.28767 0.7839 0.78107 0.0
N37 N 0.26303 0.79296 0.6477 0.0
N38 N 0.26573 0.79567 0.81574 0.0
H39 H 0.23243 0.81053 0.73687 0.0
H40 H 0.29996 0.77246 0.62984 0.0
C41 C 0.29622 0.76599 0.42731 0.0
O42 O 0.29364 0.74405 0.47942 0.0
N43 N 0.22973 0.78724 0.38674 0.0
C44 C 0.20767 0.77484 0.35687 0.0
C45 C 0.20665 0.77582 0.25279 0.0
C46 C 0.24112 0.79636 0.30239 0.0
N47 N 0.22799 0.7891 0.21925 0.0
C48 C 0.22946 0.7455 0.63216 0.0
C49 C 0.23135 0.70646 0.48795 0.0
C50 C 0.2197 0.70047 0.582 0.0
C51 C 0.21933 0.72066 0.65413 0.0
C52 C 0.24106 0.73216 0.46822 0.0
N53 N 0.24036 0.75141 0.54081 0.0
H54 H 0.22624 0.76063 0.68744 0.0
H55 H 0.24832 0.73672 0.39359 0.0
H56 H 0.19418 0.7646 0.40643 0.0
H57 H 0.2592 0.80756 0.30186 0.0
O58 O 0.21287 0.79992 0.57309 0.0
O59 O 0.24185 0.82831 0.51215 0.0
O60 O 0.28128 0.78584 0.44515 0.0
C61 C 0.21893 0.82432 0.5539 0.0
H62 H 0.30277 0.77501 0.82728 0.0
H63 H 0.1922 0.76623 0.20564 0.0
H64 H 0.23225 0.69185 0.42857 0.0
H65 H 0.20948 0.7183 0.72578 0.0
Co66 Co 0.55302 0.92506 0.76141 0.0
C67 C 0.54209 0.93002 0.97922 0.0
C68 C 0.55672 0.96659 0.92041 0.0
C69 C 0.5544 0.96877 0.02353 0.0
N70 N 0.54957 0.94197 0.89279 0.0
N71 N 0.54564 0.94547 0.06078 0.0
H72 H 0.53663 0.90945 0.98339 0.0
H73 H 0.56419 0.98169 0.87076 0.0
C74 C 0.57647 0.976 0.67318 0.0
O75 O 0.59791 0.97392 0.72723 0.0
N76 N 0.55524 0.90913 0.63026 0.0
C77 C 0.56555 0.8858 0.60074 0.0
C78 C 0.56424 0.88453 0.4966 0.0
C79 C 0.54733 0.92125 0.54555 0.0
N80 N 0.55303 0.90706 0.46327 0.0
C81 C 0.59675 0.90821 0.87474 0.0
C82 C 0.63553 0.91151 0.73095 0.0
C83 C 0.64169 0.89998 0.82509 0.0
C84 C 0.62159 0.89874 0.89673 0.0
C85 C 0.60982 0.92062 0.71128 0.0
N86 N 0.59077 0.91944 0.78406 0.0
H87 H 0.58181 0.90422 0.92946 0.0
H88 H 0.60516 0.92795 0.63686 0.0
H89 H 0.57427 0.87136 0.65066 0.0
H90 H 0.53796 0.94044 0.54324 0.0
O91 O 0.54257 0.89161 0.81621 0.0
O92 O 0.51461 0.92118 0.75713 0.0
O93 O 0.5568 0.96091 0.69098 0.0
C94 C 0.51842 0.89801 0.79869 0.0
H95 H 0.56005 0.98587 0.0673 0.0
H96 H 0.57204 0.869 0.44909 0.0
H97 H 0.65006 0.91284 0.67172 0.0
H98 H 0.62411 0.8887 0.96806 0.0
Co99 Co 0.42392 0.2285 0.97181 0.0
C100 C 0.41859 0.23512 0.1883 0.0
C101 C 0.38536 0.21451 0.12824 0.0
C102 C 0.38411 0.21356 0.23199 0.0
N103 N 0.40688 0.22829 0.1013 0.0
N104 N 0.40524 0.22634 0.26952 0.0
H105 H 0.43789 0.24391 0.19177 0.0
H106 H 0.37254 0.20428 0.07638 0.0
C107 C 0.36739 0.24661 0.91377 0.0
O108 O 0.3611 0.25575 0.00318 0.0
N109 N 0.44089 0.22822 0.8415 0.0
C110 C 0.46454 0.23768 0.81333 0.0
C111 C 0.46608 0.23712 0.70953 0.0
C112 C 0.42886 0.22129 0.75518 0.0
N113 N 0.44349 0.22695 0.67346 0.0
C114 C 0.45927 0.26942 0.02913 0.0
C115 C 0.4258 0.31221 0.02352 0.0
C116 C 0.45066 0.31523 0.06757 0.0
C117 C 0.46759 0.2936 0.06698 0.0
C118 C 0.41794 0.28715 0.98709 0.0
N119 N 0.43436 0.26573 0.99321 0.0
H120 H 0.47312 0.25344 0.03291 0.0
H121 H 0.39865 0.28532 0.95595 0.0
H122 H 0.47938 0.2453 0.86333 0.0
H123 H 0.40908 0.21363 0.75174 0.0
O124 O 0.45416 0.21251 0.03279 0.0
O125 O 0.42154 0.18952 0.96781 0.0
O126 O 0.39024 0.23723 0.89669 0.0
C127 C 0.44416 0.18962 0.01353 0.0
H128 H 0.36953 0.20305 0.27583 0.0
H129 H 0.48224 0.24434 0.66416 0.0
H130 H 0.41235 0.32876 0.01999 0.0
H131 H 0.48731 0.29525 0.09673 0.0
Co132 Co 0.10823 0.92846 0.73082 0.0
C133 C 0.11882 0.93323 0.51283 0.0
C134 C 0.1053 0.97018 0.57166 0.0
C135 C 0.10785 0.97241 0.46858 0.0
N136 N 0.11159 0.94529 0.59918 0.0
N137 N 0.11595 0.94889 0.43141 0.0
H138 H 0.1237 0.91253 0.50857 0.0
H139 H 0.0984 0.98553 0.62134 0.0
C140 C 0.08516 0.97959 0.81759 0.0
O141 O 0.06361 0.97729 0.76434 0.0
N142 N 0.10616 0.91263 0.86229 0.0
C143 C 0.09604 0.88922 0.89231 0.0
C144 C 0.09745 0.88801 0.99643 0.0
C145 C 0.11406 0.92487 0.94668 0.0
N146 N 0.10854 0.91068 0.02923 0.0
C147 C 0.06414 0.91167 0.61907 0.0
C148 C 0.02594 0.91442 0.76522 0.0
C149 C 0.01953 0.90269 0.67173 0.0
C150 C 0.03933 0.9018 0.59876 0.0
C151 C 0.0516 0.92393 0.78316 0.0
N152 N 0.0704 0.92291 0.70939 0.0
H153 H 0.07888 0.90788 0.56344 0.0
H154 H 0.05646 0.93137 0.85718 0.0
H155 H 0.08739 0.87466 0.84273 0.0
H156 H 0.12333 0.94413 0.94859 0.0
O157 O 0.1184 0.89492 0.6764 0.0
O158 O 0.14664 0.9244 0.73426 0.0
O159 O 0.10474 0.96438 0.80039 0.0
C160 C 0.14262 0.90121 0.69333 0.0
H161 H 0.10297 0.98977 0.42478 0.0
H162 H 0.08984 0.87242 0.04429 0.0
H163 H 0.01164 0.91556 0.82532 0.0
H164 H 0.03665 0.89171 0.5277 0.0
Co165 Co 0.41399 0.7877 0.97931 0.0
C166 C 0.40812 0.80013 0.76307 0.0
C167 C 0.37395 0.78033 0.81885 0.0
C168 C 0.37228 0.78188 0.71543 0.0
N169 N 0.39685 0.79116 0.84872 0.0
N170 N 0.39415 0.79382 0.68065 0.0
H171 H 0.42739 0.8089 0.75938 0.0
H172 H 0.36012 0.77026 0.86677 0.0
C173 C 0.36347 0.76488 0.07073 0.0
O174 O 0.36587 0.74266 0.02042 0.0
N175 N 0.43016 0.78537 0.10973 0.0
C176 C 0.45215 0.7729 0.13971 0.0
C177 C 0.45319 0.77389 0.24379 0.0
C178 C 0.41883 0.79454 0.19404 0.0
N179 N 0.43193 0.78724 0.27722 0.0
C180 C 0.42978 0.74341 0.86488 0.0
C181 C 0.42797 0.70461 0.01029 0.0
C182 C 0.43955 0.69846 0.9163 0.0
C183 C 0.43983 0.71852 0.84349 0.0
C184 C 0.41837 0.73035 0.02944 0.0
N185 N 0.41907 0.7495 0.95633 0.0
H186 H 0.43298 0.75845 0.80905 0.0
H187 H 0.41124 0.73503 0.10409 0.0
H188 H 0.46558 0.76261 0.09024 0.0
H189 H 0.40081 0.80581 0.19457 0.0
O190 O 0.44713 0.79765 0.92294 0.0
O191 O 0.41853 0.82642 0.98335 0.0
O192 O 0.37856 0.78454 0.0513 0.0
C193 C 0.44139 0.82213 0.94162 0.0
H194 H 0.35725 0.77284 0.6693 0.0
H195 H 0.46759 0.76426 0.29104 0.0
H196 H 0.42708 0.6901 0.07017 0.0
H197 H 0.44958 0.71608 0.77174 0.0
Co198 Co 0.55377 0.08971 0.21219 0.0
C199 C 0.54411 0.08364 0.99386 0.0
C200 C 0.5614 0.04846 0.0534 0.0
C201 C 0.55961 0.04609 0.95005 0.0
N202 N 0.55209 0.07236 0.08081 0.0
N203 N 0.54902 0.06853 0.91251 0.0
H204 H 0.53743 0.10374 0.98887 0.0
H205 H 0.57008 0.03412 0.10335 0.0
C206 C 0.57805 0.03992 0.30607 0.0
O207 O 0.60019 0.04294 0.2568 0.0
N208 N 0.55436 0.10599 0.34313 0.0
C209 C 0.56392 0.12965 0.37274 0.0
C210 C 0.56269 0.13079 0.47693 0.0
C211 C 0.54692 0.09354 0.42798 0.0
N212 N 0.55225 0.10785 0.51028 0.0
C213 C 0.59767 0.10792 0.10236 0.0
C214 C 0.63533 0.10717 0.2504 0.0
C215 C 0.64169 0.11882 0.1565 0.0
C216 C 0.62216 0.11869 0.08261 0.0
C217 C 0.60996 0.09677 0.2678 0.0
N218 N 0.59146 0.09676 0.19308 0.0
H219 H 0.58302 0.11086 0.0457 0.0
H220 H 0.60506 0.08946 0.3421 0.0
H221 H 0.57237 0.14433 0.32292 0.0
H222 H 0.53842 0.07393 0.43055 0.0
O223 O 0.54258 0.12255 0.15451 0.0
O224 O 0.5152 0.09216 0.2122 0.0
O225 O 0.55809 0.05413 0.28387 0.0
C226 C 0.51851 0.11508 0.168 0.0
H227 H 0.56686 0.02962 0.90632 0.0
H228 H 0.57021 0.14645 0.52444 0.0
H229 H 0.6494 0.10674 0.31125 0.0
H230 H 0.62473 0.12862 0.01108 0.0
Co231 Co 0.24716 0.23543 0.47446 0.0
C232 C 0.25393 0.22286 0.25849 0.0
C233 C 0.28621 0.24573 0.3139 0.0
C234 C 0.28811 0.24423 0.21051 0.0
N235 N 0.26439 0.23279 0.3439 0.0
N236 N 0.26742 0.23032 0.17598 0.0
H237 H 0.2354 0.21259 0.25494 0.0
H238 H 0.29866 0.25747 0.36188 0.0
C239 C 0.2971 0.25807 0.57141 0.0
O240 O 0.29347 0.28164 0.53248 0.0
N241 N 0.23108 0.23698 0.60547 0.0
C242 C 0.20855 0.24838 0.63593 0.0
C243 C 0.20762 0.24728 0.74001 0.0
C244 C 0.24286 0.22828 0.68957 0.0
N245 N 0.22948 0.23492 0.773 0.0
C246 C 0.23145 0.27999 0.36133 0.0
C247 C 0.23074 0.3179 0.5099 0.0
C248 C 0.21977 0.32425 0.41517 0.0
C249 C 0.22077 0.30466 0.34077 0.0
C250 C 0.24098 0.29237 0.52812 0.0
N251 N 0.24159 0.27367 0.45347 0.0
H252 H 0.22912 0.26519 0.30402 0.0
H253 H 0.24751 0.28748 0.60332 0.0
H254 H 0.19464 0.25807 0.58675 0.0
H255 H 0.26133 0.2178 0.68986 0.0
O256 O 0.2141 0.22542 0.41797 0.0
O257 O 0.24293 0.19666 0.47661 0.0
O258 O 0.28278 0.23843 0.54465 0.0
C259 C 0.21999 0.20092 0.43582 0.0
H260 H 0.30216 0.25474 0.16408 0.0
H261 H 0.19281 0.25621 0.78756 0.0
H262 H 0.23064 0.33203 0.57102 0.0
H263 H 0.21154 0.30721 0.26819 0.0
Co264 Co 0.91128 0.28798 0.48006 0.0
C265 C 0.90496 0.30084 0.26412 0.0
C266 C 0.87156 0.27968 0.31982 0.0
C267 C 0.86979 0.28129 0.21645 0.0
N268 N 0.89405 0.29137 0.34969 0.0
N269 N 0.89119 0.29408 0.18165 0.0
H270 H 0.92395 0.31022 0.26049 0.0
H271 H 0.85828 0.26885 0.36773 0.0
C272 C 0.86125 0.26447 0.57366 0.0
O273 O 0.86417 0.24194 0.5259 0.0
N274 N 0.92742 0.28574 0.61065 0.0
C275 C 0.94963 0.2737 0.6408 0.0
C276 C 0.95061 0.27472 0.74492 0.0
C277 C 0.91589 0.2947 0.69493 0.0
N278 N 0.92909 0.28767 0.77822 0.0
C279 C 0.92751 0.24418 0.36396 0.0
C280 C 0.92714 0.20511 0.50841 0.0
C281 C 0.93853 0.1994 0.41367 0.0
C282 C 0.93807 0.21958 0.34141 0.0
C283 C 0.91695 0.23058 0.52868 0.0
N284 N 0.91693 0.24987 0.45605 0.0
H285 H 0.93026 0.25937 0.30841 0.0
H286 H 0.90998 0.23495 0.60383 0.0
H287 H 0.9633 0.2637 0.59141 0.0
H288 H 0.8977 0.30567 0.69539 0.0
O289 O 0.94431 0.29842 0.42381 0.0
O290 O 0.91538 0.32677 0.48484 0.0
O291 O 0.87584 0.28436 0.55186 0.0
C292 C 0.93832 0.3228 0.44326 0.0
H293 H 0.85515 0.27163 0.17028 0.0
H294 H 0.9652 0.26542 0.7923 0.0
H295 H 0.92684 0.19049 0.56796 0.0
H296 H 0.94764 0.21751 0.26914 0.0
Co297 Co 0.74692 0.73363 0.98602 0.0
C298 C 0.75275 0.72068 0.7701 0.0
C299 C 0.78697 0.74051 0.82484 0.0
C300 C 0.78862 0.7388 0.72147 0.0
N301 N 0.76403 0.72978 0.85533 0.0
N302 N 0.76672 0.72687 0.68728 0.0
H303 H 0.73344 0.71199 0.76699 0.0
H304 H 0.80082 0.75063 0.87226 0.0
C305 C 0.79723 0.75734 0.07519 0.0
O306 O 0.79472 0.77929 0.02319 0.0
N307 N 0.73084 0.73631 0.11669 0.0
C308 C 0.70887 0.74881 0.14699 0.0
C309 C 0.70784 0.74773 0.25111 0.0
C310 C 0.74215 0.72706 0.20083 0.0
N311 N 0.72906 0.7343 0.28425 0.0
C312 C 0.7306 0.77717 0.8687 0.0
C313 C 0.7326 0.81689 0.0101 0.0
C314 C 0.72112 0.82249 0.91552 0.0
C315 C 0.72067 0.80194 0.84491 0.0
C316 C 0.74214 0.79124 0.03167 0.0
N317 N 0.74144 0.77166 0.96037 0.0
H318 H 0.72726 0.7618 0.81457 0.0
H319 H 0.74928 0.787 0.10664 0.0
H320 H 0.69542 0.75909 0.09769 0.0
H321 H 0.76012 0.71572 0.20098 0.0
O322 O 0.71385 0.72308 0.93112 0.0
O323 O 0.74282 0.69489 0.99288 0.0
O324 O 0.78232 0.73746 0.05722 0.0
C325 C 0.71988 0.69876 0.95155 0.0
H326 H 0.80365 0.74778 0.67491 0.0
H327 H 0.69342 0.75731 0.29857 0.0
H328 H 0.73349 0.83178 0.06846 0.0
H329 H 0.71089 0.80397 0.77312 0.0
Co330 Co 0.74273 0.29015 0.01377 0.0
C331 C 0.74704 0.30059 0.23183 0.0
C332 C 0.78426 0.28892 0.17246 0.0
C333 C 0.7864 0.29162 0.27549 0.0
N334 N 0.75927 0.29389 0.14535 0.0
N335 N 0.76274 0.29856 0.31292 0.0
H336 H 0.72632 0.30462 0.23646 0.0
H337 H 0.79988 0.28303 0.12252 0.0
C338 C 0.79395 0.26718 0.93029 0.0
O339 O 0.79206 0.24597 0.98711 0.0
N340 N 0.72715 0.28769 0.88245 0.0
C341 C 0.70414 0.27708 0.85279 0.0
C342 C 0.70292 0.27849 0.74867 0.0
C343 C 0.73916 0.29584 0.79786 0.0
N344 N 0.72518 0.29005 0.71551 0.0
C345 C 0.72586 0.24573 0.12608 0.0
C346 C 0.73041 0.2067 0.98282 0.0
C347 C 0.71832 0.20031 0.07574 0.0
C348 C 0.71647 0.22056 0.14717 0.0
C349 C 0.73939 0.23276 0.96398 0.0
N350 N 0.73751 0.25195 0.03646 0.0
H351 H 0.72144 0.26073 0.18037 0.0
H352 H 0.74712 0.23758 0.8903 0.0
H353 H 0.68985 0.26813 0.90263 0.0
H354 H 0.75809 0.3055 0.79569 0.0
O355 O 0.70936 0.3003 0.06778 0.0
O356 O 0.73847 0.32889 0.00912 0.0
O357 O 0.77835 0.2867 0.94396 0.0
C358 C 0.71548 0.32475 0.05007 0.0
H359 H 0.80389 0.28777 0.3191 0.0
H360 H 0.68759 0.27058 0.70105 0.0
H361 H 0.73228 0.19208 0.92379 0.0
H362 H 0.70605 0.21792 0.21746 0.0
Co363 Co 0.9144 0.7349 0.5226 0.0
C364 C 0.90849 0.72228 0.7388 0.0
C365 C 0.87439 0.74218 0.68358 0.0
C366 C 0.87272 0.74058 0.787 0.0
N367 N 0.89725 0.73131 0.65335 0.0
N368 N 0.89455 0.72859 0.82145 0.0
H369 H 0.92774 0.71349 0.74215 0.0
H370 H 0.86062 0.75231 0.6359 0.0
C371 C 0.86403 0.75817 0.43214 0.0
O372 O 0.86651 0.78032 0.48278 0.0
N373 N 0.93054 0.73737 0.39195 0.0
C374 C 0.95254 0.74987 0.36165 0.0
C375 C 0.95356 0.74887 0.25755 0.0
C376 C 0.91919 0.72819 0.3078 0.0
N377 N 0.93229 0.73549 0.22442 0.0
C378 C 0.93072 0.77879 0.63805 0.0
C379 C 0.92872 0.8181 0.49472 0.0
C380 C 0.94034 0.82396 0.58878 0.0
C381 C 0.94077 0.80362 0.66044 0.0
C382 C 0.91911 0.79239 0.47451 0.0
N383 N 0.91984 0.77301 0.54671 0.0
H384 H 0.93399 0.76356 0.69298 0.0
H385 H 0.91192 0.78794 0.39982 0.0
H386 H 0.96599 0.76016 0.41094 0.0
H387 H 0.90116 0.7169 0.30758 0.0
O388 O 0.94746 0.72453 0.5781 0.0
O389 O 0.91851 0.69617 0.51722 0.0
O390 O 0.879 0.73843 0.45119 0.0
C391 C 0.94143 0.70015 0.55864 0.0
H392 H 0.85774 0.74965 0.83337 0.0
H393 H 0.96799 0.7585 0.21009 0.0
H394 H 0.92776 0.83281 0.43563 0.0
H395 H 0.95061 0.80584 0.73201 0.0
Co396 Co 0.60829 0.59508 0.77906 0.0
C397 C 0.61812 0.59065 -0.00256 0.0
C398 C 0.60665 0.55305 0.93815 0.0
C399 C 0.60925 0.55086 0.04126 0.0
N400 N 0.61157 0.57832 0.91093 0.0
N401 N 0.61613 0.57475 0.07853 0.0
H402 H 0.62209 0.61157 0.00219 0.0
H403 H 0.60095 0.53727 0.88819 0.0
C404 C 0.58523 0.5436 0.69609 0.0
O405 O 0.56428 0.54553 0.75329 0.0
N406 N 0.60627 0.61089 0.64758 0.0
C407 C 0.59599 0.63419 0.61768 0.0
C408 C 0.59738 0.63542 0.51355 0.0
C409 C 0.61423 0.5987 0.56306 0.0
N410 N 0.60862 0.61286 0.4806 0.0
C411 C 0.56411 0.6123 0.88975 0.0
C412 C 0.5259 0.60811 0.74457 0.0
C413 C 0.51939 0.62031 0.83713 0.0
C414 C 0.5392 0.62195 0.90962 0.0
C415 C 0.55166 0.59882 0.72707 0.0
N416 N 0.57046 0.60057 0.8004 0.0
H417 H 0.57882 0.61661 0.94475 0.0
H418 H 0.5566 0.59098 0.65368 0.0
H419 H 0.58721 0.64866 0.66737 0.0
H420 H 0.62356 0.5795 0.561 0.0
O421 O 0.61855 0.6286 0.83331 0.0
O422 O 0.6467 0.59906 0.77534 0.0
O423 O 0.60467 0.55923 0.70949 0.0
C424 C 0.64276 0.62222 0.81655 0.0
H425 H 0.6055 0.53318 0.08506 0.0
H426 H 0.58964 0.65093 0.46578 0.0
H427 H 0.51159 0.60642 0.68486 0.0
H428 H 0.53641 0.63244 0.9798 0.0
Co429 Co 0.05009 0.42649 0.26909 0.0
C430 C 0.03825 0.43222 0.48563 0.0
C431 C 0.05699 0.46716 0.42956 0.0
C432 C 0.05557 0.46879 0.53303 0.0
N433 N 0.04677 0.44378 0.39983 0.0
N434 N 0.04429 0.44645 0.56795 0.0
H435 H 0.02989 0.41262 0.48941 0.0
H436 H 0.06639 0.48147 0.38149 0.0
C437 C 0.07345 0.47745 0.17984 0.0
O438 O 0.09504 0.47515 0.23281 0.0
N439 N 0.05236 0.41014 0.13882 0.0
C440 C 0.06486 0.38801 0.10893 0.0
C441 C 0.06401 0.38698 0.00487 0.0
C442 C 0.04334 0.42157 0.05449 0.0
N443 N 0.05073 0.4084 0.97135 0.0
C444 C 0.09369 0.40966 0.38299 0.0
C445 C 0.13259 0.41301 0.23963 0.0
C446 C 0.13862 0.40112 0.33324 0.0
C447 C 0.11845 0.39988 0.40479 0.0
C448 C 0.10696 0.42223 0.21991 0.0
N449 N 0.08782 0.42095 0.29229 0.0
H450 H 0.07864 0.40596 0.43785 0.0
H451 H 0.10241 0.42969 0.14557 0.0
H452 H 0.07511 0.37452 0.15847 0.0
H453 H 0.03218 0.43976 0.05399 0.0
O454 O 0.03965 0.39317 0.32514 0.0
O455 O 0.01167 0.42248 0.26453 0.0
O456 O 0.05385 0.46218 0.19705 0.0
C457 C 0.01549 0.39936 0.30644 0.0
H458 H 0.06416 0.48421 0.57904 0.0
H459 H 0.0737 0.37251 0.95771 0.0
H460 H 0.14715 0.41454 0.1806 0.0
H461 H 0.12083 0.38972 0.47589 0.0
Co462 Co 0.60472 0.42735 0.2403 0.0
C463 C 0.61611 0.43425 0.02372 0.0
C464 C 0.59437 0.46728 0.08021 0.0
C465 C 0.5955 0.46905 0.9766 0.0
N466 N 0.60675 0.44498 0.10971 0.0
N467 N 0.60869 0.44785 0.94148 0.0
H468 H 0.6261 0.41549 0.01961 0.0
H469 H 0.58343 0.48033 0.12866 0.0
C470 C 0.58172 0.47712 0.33689 0.0
O471 O 0.55907 0.47349 0.2922 0.0
N472 N 0.60404 0.41074 0.37096 0.0
C473 C 0.59358 0.38749 0.40087 0.0
C474 C 0.59447 0.3865 0.50498 0.0
C475 C 0.61214 0.4228 0.45544 0.0
N476 N 0.60583 0.40901 0.53855 0.0
C477 C 0.55883 0.4135 0.13009 0.0
C478 C 0.52411 0.40863 0.28821 0.0
C479 C 0.51645 0.39966 0.19233 0.0
C480 C 0.534 0.40314 0.11264 0.0
C481 C 0.54921 0.4198 0.30212 0.0
N482 N 0.56661 0.4218 0.2235 0.0
H483 H 0.57242 0.41245 0.06847 0.0
H484 H 0.55497 0.42571 0.37714 0.0
H485 H 0.58447 0.3732 0.35135 0.0
H486 H 0.62189 0.44181 0.45639 0.0
O487 O 0.61446 0.39417 0.18164 0.0
O488 O 0.64311 0.42335 0.23898 0.0
O489 O 0.60162 0.46303 0.31235 0.0
C490 C 0.63882 0.40029 0.19733 0.0
H491 H 0.58538 0.48352 0.9307 0.0
H492 H 0.586 0.37121 0.55211 0.0
H493 H 0.51127 0.40609 0.35254 0.0
H494 H 0.52962 0.39561 0.03814 0.0
Co495 Co 0.05219 0.59569 0.73103 0.0
C496 C 0.03998 0.58973 0.51483 0.0
C497 C 0.05959 0.55528 0.57049 0.0
C498 C 0.05812 0.5536 0.46706 0.0
N499 N 0.04881 0.57837 0.60044 0.0
N500 N 0.0463 0.57565 0.43236 0.0
H501 H 0.03128 0.60915 0.51123 0.0
H502 H 0.06955 0.54135 0.61835 0.0
C503 C 0.07494 0.54477 0.8221 0.0
O504 O 0.09696 0.5472 0.77161 0.0
N505 N 0.05448 0.61203 0.86142 0.0
C506 C 0.06685 0.63426 0.89122 0.0
C507 C 0.06595 0.6353 0.99531 0.0
C508 C 0.04547 0.60056 0.94587 0.0
N509 N 0.05276 0.6138 0.02894 0.0
C510 C 0.09596 0.61198 0.61619 0.0
C511 C 0.13456 0.60982 0.76052 0.0
C512 C 0.14063 0.62148 0.66643 0.0
C513 C 0.12066 0.622 0.59425 0.0
C514 C 0.10902 0.60024 0.78023 0.0
N515 N 0.08999 0.60104 0.70755 0.0
H516 H 0.08101 0.61531 0.56085 0.0
H517 H 0.10441 0.59301 0.8549 0.0
H518 H 0.07703 0.64784 0.84158 0.0
H519 H 0.03434 0.58232 0.94657 0.0
O520 O 0.04209 0.62908 0.67489 0.0
O521 O 0.01383 0.59994 0.73583 0.0
O522 O 0.05548 0.55997 0.80286 0.0
C523 C 0.01788 0.62305 0.69404 0.0
H524 H 0.06713 0.53846 0.42087 0.0
H525 H 0.07553 0.64986 0.04241 0.0
H526 H 0.14901 0.60882 0.81995 0.0
H527 H 0.12309 0.63189 0.52258 0.0
C528 C 0.17527 0.18752 0.38491 0.0
C529 C 0.20126 0.17993 0.40435 0.0
H530 H 0.13722 0.17638 0.3354 0.0
C531 C 0.20857 0.15345 0.38632 0.0
H532 H 0.16883 0.20769 0.39766 0.0
C533 C 0.19003 0.13509 0.34889 0.0
C534 C 0.164 0.14303 0.33014 0.0
H535 H 0.22855 0.14708 0.39962 0.0
H536 H 0.1959 0.11475 0.33632 0.0
C537 C 0.15703 0.16946 0.3487 0.0
C538 C 0.17431 0.83815 0.60418 0.0
C539 C 0.20041 0.8455 0.58511 0.0
H540 H 0.13639 0.84952 0.65444 0.0
C541 C 0.20804 0.87186 0.60417 0.0
H542 H 0.16763 0.81809 0.59065 0.0
C543 C 0.18971 0.89031 0.64246 0.0
C544 C 0.16357 0.88258 0.66113 0.0
H545 H 0.22812 0.87803 0.59124 0.0
H546 H 0.19583 0.91053 0.65597 0.0
C547 C 0.15629 0.85629 0.6413 0.0
C548 C 0.50432 0.85332 0.85243 0.0
C549 C 0.49729 0.87963 0.83155 0.0
H550 H 0.4926 0.81535 0.90488 0.0
C551 C 0.47125 0.88763 0.8502 0.0
H552 H 0.52413 0.84636 0.83941 0.0
C553 C 0.45276 0.86944 0.88947 0.0
C554 C 0.46013 0.84307 0.90956 0.0
H555 H 0.46534 0.90788 0.83596 0.0
H556 H 0.43276 0.87582 0.90233 0.0
C557 C 0.48613 0.83544 0.89056 0.0
C558 C 0.47073 0.12954 0.15126 0.0
C559 C 0.49719 0.13087 0.1209 0.0
H560 H 0.43232 0.14739 0.13944 0.0
C561 C 0.50415 0.14872 0.04391 0.0
H562 H 0.46476 0.11593 0.21009 0.0
C563 C 0.4858 0.16585 0.00253 0.0
C564 C 0.45986 0.16591 0.03685 0.0
H565 H 0.52419 0.15016 0.01713 0.0
H566 H 0.49232 0.18027 0.94728 0.0
C567 C 0.45214 0.14721 0.10993 0.0
C568 C 0.96058 0.85723 0.7098 0.0
C569 C 0.9551 0.84928 0.60984 0.0
H570 H 0.98543 0.8792 0.80859 0.0
C571 C 0.96689 0.86386 0.53159 0.0
H572 H 0.95083 0.848 0.77316 0.0
C573 C 0.98559 0.88343 0.55258 0.0
C574 C 0.99416 0.88822 0.65215 0.0
H575 H 0.96311 0.8592 0.45349 0.0
H576 H 0.99444 0.89363 0.48938 0.0
C577 C 0.98021 0.87589 0.73068 0.0
C578 C 0.96657 0.16056 0.46997 0.0
C579 C 0.95397 0.17453 0.39223 0.0
H580 H 0.99516 0.13177 0.51094 0.0
C581 C 0.95924 0.16651 0.29212 0.0
H582 H 0.96302 0.1653 0.5482 0.0
C583 C 0.9793 0.14842 0.27024 0.0
C584 C 0.99396 0.13671 0.34799 0.0
H585 H 0.94892 0.17527 0.22926 0.0
H586 H 0.98422 0.14506 0.19203 0.0
C587 C 0.98574 0.14153 0.44811 0.0
C588 C 0.68004 0.14685 0.21612 0.0
C589 C 0.66661 0.13418 0.13727 0.0
H590 H 0.70844 0.17564 0.25928 0.0
C591 C 0.67524 0.13938 0.03783 0.0
H592 H 0.67482 0.14329 0.29393 0.0
C593 C 0.69336 0.15958 0.01734 0.0
C594 C 0.7045 0.17442 0.09597 0.0
H595 H 0.6669 0.12896 0.97435 0.0
H596 H 0.69718 0.16451 0.93939 0.0
C597 C 0.69911 0.16613 0.19571 0.0
C598 C 0.68164 0.8738 0.76949 0.0
C599 C 0.6672 0.88604 0.84673 0.0
H600 H 0.71147 0.84617 0.72988 0.0
C601 C 0.67541 0.88157 0.94701 0.0
H602 H 0.67672 0.8769 0.69116 0.0
C603 C 0.69422 0.86228 0.96985 0.0
C604 C 0.70645 0.84771 0.89281 0.0
H605 H 0.66615 0.89175 0.00927 0.0
H606 H 0.69771 0.85777 0.04832 0.0
C607 C 0.70137 0.85544 0.79226 0.0
C608 C 0.67477 0.68468 0.91062 0.0
C609 C 0.70115 0.67753 0.92311 0.0
H610 H 0.6364 0.6733 0.86629 0.0
C611 C 0.70879 0.65147 0.8993 0.0
H612 H 0.66812 0.70453 0.92814 0.0
C613 C 0.6902 0.63314 0.86209 0.0
C614 C 0.6638 0.6407 0.84931 0.0
H615 H 0.72908 0.6455 0.9071 0.0
H616 H 0.69637 0.61317 0.84425 0.0
C617 C 0.65649 0.66665 0.8746 0.0
C618 C 0.68616 0.38954 0.1492 0.0
C619 C 0.65967 0.38205 0.16066 0.0
H620 H 0.725 0.37741 0.10268 0.0
C621 C 0.65214 0.35648 0.13068 0.0
H622 H 0.69251 0.4092 0.17062 0.0
C623 C 0.67033 0.33874 0.09178 0.0
C624 C 0.69681 0.34581 0.08089 0.0
H625 H 0.63198 0.34992 0.13767 0.0
H626 H 0.66354 0.31916 0.07092 0.0
C627 C 0.70464 0.37152 0.10909 0.0
C628 C 1.0016 0.35473 0.36204 0.0
C629 C 0.99438 0.38084 0.33856 0.0
H630 H 0.98993 0.31675 0.41478 0.0
C631 C 0.96806 0.38849 0.35321 0.0
H632 H 0.02161 0.34802 0.35217 0.0
C633 C 0.94948 0.37015 0.39088 0.0
C634 C 0.95704 0.34396 0.41327 0.0
H635 H 0.96197 0.40857 0.33683 0.0
H636 H 0.92927 0.37624 0.40046 0.0
C637 C 0.98332 0.33669 0.39848 0.0
C638 C 0.98619 0.68621 0.60589 0.0
C639 C 0.96 0.67895 0.58881 0.0
H640 H 0.02426 0.67466 0.65357 0.0
C641 C 0.95232 0.65264 0.60878 0.0
H642 H 0.99289 0.70624 0.59156 0.0
C643 C 0.9707 0.63414 0.64611 0.0
C644 C 0.99694 0.64176 0.66278 0.0
H645 H 0.93217 0.64656 0.59739 0.0
H646 H 0.96454 0.61395 0.66045 0.0
C647 C 1.00429 0.668 0.64197 0.0
C648 C 0.47208 0.34007 0.20807 0.0
C649 C 0.46021 0.34046 0.11238 0.0
H650 H 0.49888 0.35883 0.3095 0.0
C651 C 0.4624 0.36343 0.0535 0.0
H652 H 0.47058 0.32261 0.25528 0.0
C653 C 0.47859 0.38434 0.08488 0.0
C654 C 0.49288 0.38262 0.17566 0.0
H655 H 0.45353 0.36426 0.97948 0.0
H656 H 0.48156 0.40094 0.03438 0.0
C657 C 0.48818 0.36094 0.23954 0.0
C658 C 0.46635 0.65903 0.97543 0.0
C659 C 0.45447 0.67318 0.89647 0.0
H660 H 0.49416 0.62974 0.01906 0.0
C661 C 0.46004 0.66489 0.79692 0.0
H662 H 0.46252 0.66395 0.0533 0.0
C663 C 0.47983 0.64636 0.77692 0.0
C664 C 0.49386 0.6345 0.85603 0.0
H665 H 0.45023 0.67378 0.73313 0.0
H666 H 0.48511 0.64279 0.69918 0.0
C667 C 0.48522 0.63958 0.95538 0.0
C668 C 0.1928 0.66093 0.52454 0.0
C669 C 0.20489 0.67516 0.60274 0.0
H670 H 0.16507 0.63137 0.48262 0.0
C671 C 0.19969 0.6669 0.70262 0.0
H672 H 0.19637 0.66587 0.44645 0.0
C673 C 0.18008 0.64823 0.72385 0.0
C674 C 0.16585 0.63618 0.64566 0.0
H675 H 0.20966 0.67591 0.76576 0.0
H676 H 0.17515 0.64469 0.80195 0.0
C677 C 0.1741 0.64133 0.54577 0.0
C678 C 0.19129 0.36245 0.47445 0.0
C679 C 0.2042 0.34913 0.39574 0.0
H680 H 0.16252 0.39082 0.51744 0.0
C681 C 0.19919 0.35784 0.29634 0.0
H682 H 0.19464 0.35719 0.55231 0.0
C683 C 0.17907 0.37592 0.27565 0.0
C684 C 0.16412 0.38701 0.35406 0.0
H685 H 0.20976 0.34964 0.23296 0.0
H686 H 0.1744 0.37978 0.1976 0.0
C687 C 0.17208 0.38152 0.4539 0.0
C688 C 0.10921 0.02062 0.04148 0.0
C689 C 0.08545 0.02823 0.08744 0.0
H690 H 0.12787 0.99932 0.92081 0.0
C691 C 0.06182 0.02026 0.04197 0.0
H692 H 0.12779 0.02655 0.07385 0.0
C693 C 0.06187 1.00534 0.95289 0.0
C694 C 0.08555 0.99747 0.90732 0.0
H695 H 0.04314 0.026 0.07413 0.0
H696 H 0.04322 0.99952 0.92079 0.0
C697 C 0.10925 1.00517 0.95324 0.0
C698 C 0.33773 0.78994 0.20407 0.0
C699 C 0.34551 0.76583 0.15987 0.0
H700 H 0.31613 0.80908 0.32301 0.0
C701 C 0.33743 0.74211 0.20619 0.0
H702 H 0.34373 0.8086 0.17094 0.0
C703 C 0.32224 0.74239 0.29421 0.0
C704 C 0.31421 0.76639 0.3382 0.0
H705 H 0.34325 0.72314 0.17545 0.0
H706 H 0.31638 0.72361 0.32679 0.0
C707 C 0.32208 0.79022 0.29171 0.0
C708 C 0.55332 0.01492 0.44224 0.0
C709 C 0.57725 0.02263 0.39767 0.0
H710 H 0.53418 0.99429 0.56374 0.0
C711 C 0.60068 0.0155 0.44657 0.0
H712 H 0.53487 0.0202 0.4073 0.0
C713 C 0.60026 1.00128 0.5374 0.0
C714 C 0.57641 0.99331 0.5816 0.0
H715 H 0.61949 0.02135 0.41566 0.0
H716 H 0.61878 0.99607 0.572 0.0
C717 C 0.55291 1.00023 0.53246 0.0
C718 C 0.34769 0.22949 0.7526 0.0
C719 C 0.34884 0.24916 0.82769 0.0
H720 H 0.33009 0.21654 0.61378 0.0
C721 C 0.33295 0.2717 0.81714 0.0
H722 H 0.35961 0.21183 0.75882 0.0
C723 C 0.31681 0.2748 0.73232 0.0
C724 C 0.31551 0.25506 0.65762 0.0
H725 H 0.33345 0.28723 0.87333 0.0
H726 H 0.30488 0.29246 0.7262 0.0
C727 C 0.33084 0.23217 0.6695 0.0
C728 C 0.81841 0.2906 0.78907 0.0
C729 C 0.81202 0.26712 0.84126 0.0
H730 H 0.83896 0.30834 0.66418 0.0
C731 C 0.8215 0.243 0.8028 0.0
H732 H 0.81133 0.30953 0.81594 0.0
C733 C 0.83668 0.24228 0.71466 0.0
C734 C 0.84331 0.26568 0.66285 0.0
H735 H 0.81678 0.22447 0.83978 0.0
H736 H 0.84365 0.22326 0.68815 0.0
C737 C 0.8341 0.28991 0.7016 0.0
C738 C 0.82287 0.73305 0.21064 0.0
C739 C 0.81511 0.75692 0.16439 0.0
H740 H 0.8443 0.71457 0.33134 0.0
C741 C 0.8231 0.78088 0.20879 0.0
H742 H 0.81695 0.71421 0.17904 0.0
C743 C 0.83815 0.78109 0.29698 0.0
C744 C 0.84614 0.75733 0.34302 0.0
H745 H 0.8173 0.79968 0.17641 0.0
H746 H 0.84396 0.80003 0.32804 0.0
C747 C 0.83838 0.73326 0.29844 0.0
C748 C 0.56103 0.51574 0.56976 0.0
C749 C 0.58495 0.52564 0.60657 0.0
H750 H 0.54124 0.49347 0.45574 0.0
C751 C 0.60802 0.51992 0.55204 0.0
H752 H 0.54281 0.51994 0.60863 0.0
C753 C 0.60712 0.50455 0.46365 0.0
C754 C 0.58308 0.49491 0.42662 0.0
H755 H 0.6268 0.52732 0.57765 0.0
H756 H 0.62524 0.50022 0.42431 0.0
C757 C 0.56008 0.50082 0.4809 0.0
C758 C 0.05002 0.51887 0.95553 0.0
C759 C 0.07395 0.52673 0.91139 0.0
H760 H 0.03093 0.49723 0.07479 0.0
C761 C 0.0974 0.51872 0.95803 0.0
H762 H 0.03157 0.52481 0.92214 0.0
C763 C 0.09703 0.50354 0.04641 0.0
C764 C 0.0732 0.49546 0.09037 0.0
H765 H 0.11622 0.5246 0.92729 0.0
H766 H 0.11558 0.49773 0.0793 0.0
C767 C 0.04965 0.50323 0.04351 0.0
C768 C 0.10264 0.07974 0.84069 0.0
C769 C 0.11059 0.10564 0.86396 0.0
H770 H 0.09802 0.05022 0.72797 0.0
C771 C 0.12184 0.12142 0.78913 0.0
H772 H 0.09394 0.06723 0.89804 0.0
C773 C 0.12492 0.11153 0.69173 0.0
C774 C 0.11599 0.08586 0.66631 0.0
H775 H 0.12862 0.14122 0.80665 0.0
H776 H 0.13416 0.12432 0.63695 0.0
C777 C 0.10516 0.06998 0.743 0.0
C778 C 0.26439 0.79372 0.09733 0.0
C779 C 0.23729 0.79179 0.11734 0.0
H780 H 0.29463 0.7969 0.98601 0.0
C781 C 0.21971 0.79188 0.03646 0.0
H782 H 0.27856 0.79311 0.15757 0.0
C783 C 0.22899 0.79372 0.93776 0.0
C784 C 0.25612 0.79555 0.91779 0.0
H785 H 0.19879 0.79044 0.04942 0.0
H786 H 0.21483 0.79291 0.87734 0.0
C787 C 0.27368 0.79561 -0.00119 0.0
C788 C 0.53618 0.91107 0.19032 0.0
C789 C 0.54563 0.93655 0.16447 0.0
H790 H 0.53196 0.88145 0.30562 0.0
C791 C 0.55698 0.95213 0.24069 0.0
H792 H 0.52656 0.89852 0.13592 0.0
C793 C 0.55945 0.94227 0.33833 0.0
C794 C 0.55091 0.91658 0.36207 0.0
H795 H 0.56454 0.97172 0.22536 0.0
H796 H 0.56855 0.95453 0.3953 0.0
C797 C 0.53919 0.90108 0.28771 0.0
C798 C 0.40615 0.20746 0.44189 0.0
C799 C 0.41444 0.22675 0.37229 0.0
H800 H 0.40941 0.19205 0.59158 0.0
C801 C 0.43292 0.24578 0.40341 0.0
H802 H 0.39234 0.19221 0.42052 0.0
C803 C 0.443 0.24541 0.50116 0.0
C804 C 0.43465 0.22617 0.57056 0.0
H805 H 0.43946 0.2612 0.35255 0.0
H806 H 0.4568 0.26063 0.52316 0.0
C807 C 0.4161 0.20722 0.53988 0.0
C808 C 0.12546 0.91463 0.30202 0.0
C809 C 0.11607 0.9401 0.32773 0.0
H810 H 0.12955 0.88502 0.18694 0.0
C811 C 0.10485 0.95576 0.25146 0.0
H812 H 0.13502 0.90207 0.35657 0.0
C813 C 0.1024 0.94596 0.1538 0.0
C814 C 0.11079 0.92023 0.13027 0.0
H815 H 0.09733 0.97534 0.26687 0.0
H816 H 0.09341 0.95829 0.09672 0.0
C817 C 0.12242 0.90467 0.20471 0.0
C818 C 0.38621 0.79363 0.49757 0.0
C819 C 0.40377 0.79372 0.5786 0.0
H820 H 0.38135 0.79098 0.33881 0.0
C821 C 0.43091 0.79203 0.55865 0.0
H822 H 0.36527 0.7948 0.51034 0.0
C823 C 0.4402 0.79018 0.45998 0.0
C824 C 0.42261 0.78993 0.3791 0.0
H825 H 0.44508 0.79135 0.61909 0.0
H826 H 0.46113 0.78884 0.447 0.0
C827 C 0.39552 0.79172 0.39907 0.0
C828 C 0.56227 0.0733 0.63446 0.0
C829 C 0.55116 0.09799 0.6113 0.0
H830 H 0.57046 0.04449 0.74737 0.0
C831 C 0.53794 0.11208 0.68603 0.0
H832 H 0.57246 0.06211 0.57697 0.0
C833 C 0.536 0.10173 0.78329 0.0
C834 C 0.54811 0.07743 0.80881 0.0
H835 H 0.52872 0.13083 0.66848 0.0
H836 H 0.52508 0.11311 0.83786 0.0
C837 C 0.56093 0.06317 0.7322 0.0
C838 C 0.2661 0.23205 0.89437 0.0
C839 C 0.23893 0.23258 0.87471 0.0
H840 H 0.29641 0.23059 0.00567 0.0
C841 C 0.22135 0.23146 0.95579 0.0
H842 H 0.28027 0.23337 0.83391 0.0
C843 C 0.23069 0.23007 0.05438 0.0
C844 C 0.25787 0.22978 0.07405 0.0
H845 H 0.20039 0.23178 0.94302 0.0
H846 H 0.21652 0.23005 0.11507 0.0
C847 C 0.27544 0.23069 0.99289 0.0
C848 C 0.92798 0.29306 0.0596 0.0
C849 C 0.90082 0.29413 0.07957 0.0
H850 H 0.95826 0.2903 0.94794 0.0
C851 C 0.88326 0.29345 -0.00146 0.0
H852 H 0.94216 0.29285 0.12008 0.0
C853 C 0.89259 0.29154 0.90004 0.0
C854 C 0.91973 0.29032 0.88007 0.0
H855 H 0.86229 0.29414 0.01135 0.0
H856 H 0.87843 0.29034 0.83981 0.0
C857 C 0.93731 0.29117 0.96093 0.0
C858 C 0.72996 0.729 0.56574 0.0
C859 C 0.75709 0.72704 0.58537 0.0
H860 H 0.6998 0.73268 0.45443 0.0
C861 C 0.77464 0.72706 0.50412 0.0
H862 H 0.71581 0.72972 0.62639 0.0
C863 C 0.76538 0.72922 0.40576 0.0
C864 C 0.73831 0.73134 0.38606 0.0
H865 H 0.79558 0.72568 0.51664 0.0
H866 H 0.77957 0.7299 0.3454 0.0
C867 C 0.7207 0.73112 0.46715 0.0
C868 C 0.71898 0.30425 0.5403 0.0
C869 C 0.73456 0.29256 0.61433 0.0
H870 H 0.71624 0.31719 0.38847 0.0
C871 C 0.76012 0.2844 0.59026 0.0
H872 H 0.69945 0.3112 0.55849 0.0
C873 C 0.76976 0.28714 0.49247 0.0
C874 C 0.75409 0.29844 0.4167 0.0
H875 H 0.77245 0.27535 0.64702 0.0
H876 H 0.7892 0.27973 0.47642 0.0
C877 C 0.72878 0.30759 0.44287 0.0
C878 C 0.94059 0.73246 0.04154 0.0
C879 C 0.923 0.73272 0.12264 0.0
H880 H 0.94547 0.73118 0.88233 0.0
C881 C 0.89591 0.73082 0.10299 0.0
H882 H 0.96151 0.73387 0.05426 0.0
C883 C 0.88661 0.72881 0.00462 0.0
C884 C 0.90417 0.72872 0.92337 0.0
H885 H 0.88173 0.73155 0.1634 0.0
H886 H 0.86566 0.72758 0.99211 0.0
C887 C 0.93131 0.7305 0.94298 0.0
C888 C 0.60192 0.57779 0.35563 0.0
C889 C 0.61085 0.60333 0.37953 0.0
H890 H 0.5964 0.54862 0.2418 0.0
C891 C 0.62303 0.61867 0.3055 0.0
H892 H 0.59248 0.56566 0.41243 0.0
C893 C 0.62609 0.60869 0.2082 0.0
C894 C 0.6162 0.58344 0.18221 0.0
H895 H 0.63056 0.63815 0.3236 0.0
H896 H 0.63607 0.621 0.15368 0.0
C897 C 0.6044 0.56798 0.25793 0.0
C898 C 0.0461 0.44512 0.84954 0.0
C899 C 0.04817 0.41778 0.86947 0.0
H900 H 0.04284 0.47562 0.73829 0.0
C901 C 0.04832 0.40003 0.78854 0.0
H902 H 0.04652 0.45943 0.90984 0.0
C903 C 0.04654 0.40939 0.68989 0.0
C904 C 0.04452 0.43677 0.66998 0.0
H905 H 0.04987 0.37893 0.80145 0.0
H906 H 0.04751 0.3951 0.62944 0.0
C907 C 0.04427 0.45449 0.75103 0.0
C908 C 0.6088 0.40107 0.72158 0.0
C909 C 0.60735 0.41869 0.64032 0.0
H910 H 0.61001 0.39635 0.88072 0.0
C911 C 0.60678 0.44612 0.65978 0.0
H912 H 0.60922 0.3799 0.70905 0.0
C913 C 0.60772 0.45572 0.75814 0.0
C914 C 0.60915 0.43812 0.83954 0.0
H915 H 0.60499 0.46027 0.59919 0.0
H916 H 0.60717 0.4769 0.77049 0.0
C917 C 0.60965 0.41065 0.82007 0.0
C918 C 0.04657 0.56763 0.24927 0.0
C919 C 0.04645 0.58535 0.33034 0.0
H920 H 0.04919 0.56273 0.09047 0.0
C921 C 0.0481 0.61276 0.31043 0.0
H922 H 0.04543 0.54648 0.26201 0.0
C923 C 0.04993 0.62214 0.21176 0.0
C924 C 0.05017 0.60439 0.13084 0.0
H925 H 0.04876 0.62706 0.37091 0.0
H926 H 0.05123 0.64327 0.19882 0.0
C927 C 0.04845 0.57703 0.15077 0.0
loop_
_geom_bond_atom_site_label_1
_geom_bond_atom_site_label_2
_geom_bond_distance
_geom_bond_site_symmetry_2
_ccdc_geom_bond_type
Co0 N4 2.148 . S
Co0 N10 2.128 . S
Co0 N20 2.194 . S
Co0 O25 2.351 . S
Co0 O26 2.155 . S
Co0 O27 2.096 . S
C1 N4 1.301 . S
C1 N5 1.328 . S
C1 H6 0.930 . S
C2 C3 1.333 . S
C2 N4 1.317 . S
C2 H7 0.930 . S
C3 C2 1.333 . S
C3 N5 1.350 . S
C3 H29 0.931 . S
N4 Co0 2.148 . S
N4 C1 1.301 . S
N4 C2 1.317 . S
N5 C1 1.328 . S
N5 C3 1.350 . S
H6 C1 0.930 . S
H7 C2 0.930 . S
C8 O9 1.224 . S
C8 O27 1.247 . S
O9 C8 1.224 . S
N10 Co0 2.128 . S
N10 C11 1.355 . S
N10 C13 1.311 . S
C11 N10 1.355 . S
C11 C12 1.363 1_554 S
C11 H23 0.929 . S
C12 C11 1.363 1_556 S
C12 N14 1.375 . S
C12 H30 0.931 . S
C13 N10 1.311 . S
C13 N14 1.347 1_554 S
C13 H24 0.929 . S
N14 C12 1.375 . S
N14 C13 1.347 1_556 S
C15 C18 1.365 . S
C15 N20 1.328 . S
C15 H21 0.929 . S
C16 C17 1.362 . S
C16 C19 1.378 . S
C16 H31 0.929 . S
C17 C16 1.362 . S
C17 C18 1.366 . S
C18 C15 1.365 . S
C18 C17 1.366 . S
C18 H32 0.930 . S
C19 C16 1.378 . S
C19 N20 1.315 . S
C19 H22 0.930 . S
N20 Co0 2.194 . S
N20 C15 1.328 . S
N20 C19 1.315 . S
H21 C15 0.929 . S
H22 C19 0.930 . S
H23 C11 0.929 . S
H24 C13 0.929 . S
O25 Co0 2.351 . S
O25 C28 1.244 . S
O26 Co0 2.155 . S
O26 C28 1.240 . S
O27 Co0 2.096 . S
O27 C8 1.247 . S
C28 O25 1.244 . S
C28 O26 1.240 . S
H29 C3 0.931 . S
H30 C12 0.931 . S
H31 C16 0.929 . S
H32 C18 0.930 . S
Co33 N37 2.148 . S
Co33 N43 2.128 . S
Co33 N53 2.194 . S
Co33 O58 2.351 . S
Co33 O59 2.155 . S
Co33 O60 2.096 . S
C34 N37 1.301 . S
C34 N38 1.328 . S
C34 H39 0.930 . S
C35 C36 1.333 . S
C35 N37 1.317 . S
C35 H40 0.930 . S
C36 C35 1.333 . S
C36 N38 1.350 . S
C36 H62 0.931 . S
N37 Co33 2.148 . S
N37 C34 1.301 . S
N37 C35 1.317 . S
N38 C34 1.328 . S
N38 C36 1.350 . S
H39 C34 0.930 . S
H40 C35 0.930 . S
C41 O42 1.224 . S
C41 O60 1.247 . S
O42 C41 1.224 . S
N43 Co33 2.128 . S
N43 C44 1.355 . S
N43 C46 1.311 . S
C44 N43 1.355 . S
C44 C45 1.363 . S
C44 H56 0.929 . S
C45 C44 1.363 . S
C45 N47 1.375 . S
C45 H63 0.931 . S
C46 N43 1.311 . S
C46 N47 1.347 . S
C46 H57 0.929 . S
N47 C45 1.375 . S
N47 C46 1.347 . S
C48 C51 1.365 . S
C48 N53 1.328 . S
C48 H54 0.929 . S
C49 C50 1.362 . S
C49 C52 1.378 . S
C49 H64 0.929 . S
C50 C49 1.362 . S
C50 C51 1.366 . S
C51 C48 1.365 . S
C51 C50 1.366 . S
C51 H65 0.930 . S
C52 C49 1.378 . S
C52 N53 1.315 . S
C52 H55 0.930 . S
N53 Co33 2.194 . S
N53 C48 1.328 . S
N53 C52 1.315 . S
H54 C48 0.929 . S
H55 C52 0.930 . S
H56 C44 0.929 . S
H57 C46 0.929 . S
O58 Co33 2.351 . S
O58 C61 1.244 . S
O59 Co33 2.155 . S
O59 C61 1.240 . S
O60 Co33 2.096 . S
O60 C41 1.247 . S
C61 O58 1.244 . S
C61 O59 1.240 . S
H62 C36 0.931 . S
H63 C45 0.931 . S
H64 C49 0.929 . S
H65 C51 0.930 . S
Co66 N70 2.148 . S
Co66 N76 2.128 . S
Co66 N86 2.194 . S
Co66 O91 2.351 . S
Co66 O92 2.155 . S
Co66 O93 2.096 . S
C67 N70 1.301 1_554 S
C67 N71 1.328 . S
C67 H72 0.930 . S
C68 C69 1.333 1_556 S
C68 N70 1.317 . S
C68 H73 0.930 . S
C69 C68 1.333 1_554 S
C69 N71 1.350 . S
C69 H95 0.931 . S
N70 Co66 2.148 . S
N70 C67 1.301 1_556 S
N70 C68 1.317 . S
N71 C67 1.328 . S
N71 C69 1.350 . S
H72 C67 0.930 . S
H73 C68 0.930 . S
C74 O75 1.224 . S
C74 O93 1.247 . S
O75 C74 1.224 . S
N76 Co66 2.128 . S
N76 C77 1.355 . S
N76 C79 1.311 . S
C77 N76 1.355 . S
C77 C78 1.363 . S
C77 H89 0.929 . S
C78 C77 1.363 . S
C78 N80 1.375 . S
C78 H96 0.931 . S
C79 N76 1.311 . S
C79 N80 1.347 . S
C79 H90 0.929 . S
N80 C78 1.375 . S
N80 C79 1.347 . S
C81 C84 1.365 . S
C81 N86 1.328 . S
C81 H87 0.929 . S
C82 C83 1.362 . S
C82 C85 1.378 . S
C82 H97 0.929 . S
C83 C82 1.362 . S
C83 C84 1.366 . S
C84 C81 1.365 . S
C84 C83 1.366 . S
C84 H98 0.930 . S
C85 C82 1.378 . S
C85 N86 1.315 . S
C85 H88 0.930 . S
N86 Co66 2.194 . S
N86 C81 1.328 . S
N86 C85 1.315 . S
H87 C81 0.929 . S
H88 C85 0.930 . S
H89 C77 0.929 . S
H90 C79 0.929 . S
O91 Co66 2.351 . S
O91 C94 1.244 . S
O92 Co66 2.155 . S
O92 C94 1.240 . S
O93 Co66 2.096 . S
O93 C74 1.247 . S
C94 O91 1.244 . S
C94 O92 1.240 . S
H95 C69 0.931 . S
H96 C78 0.931 . S
H97 C82 0.929 . S
H98 C84 0.930 . S
Co99 N103 2.148 1_556 S
Co99 N109 2.128 . S
Co99 N119 2.194 1_556 S
Co99 O124 2.351 1_556 S
Co99 O125 2.155 1_556 S
Co99 O126 2.096 . S
C100 N103 1.301 . S
C100 N104 1.328 . S
C100 H105 0.930 . S
C101 C102 1.333 . S
C101 N103 1.317 . S
C101 H106 0.930 . S
C102 C101 1.333 . S
C102 N104 1.350 . S
C102 H128 0.931 . S
N103 Co99 2.148 1_554 S
N103 C100 1.301 . S
N103 C101 1.317 . S
N104 C100 1.328 . S
N104 C102 1.350 . S
H105 C100 0.930 . S
H106 C101 0.930 . S
C107 O108 1.224 . S
C107 O126 1.247 . S
O108 C107 1.224 . S
N109 Co99 2.128 . S
N109 C110 1.355 . S
N109 C112 1.311 . S
C110 N109 1.355 . S
C110 C111 1.363 . S
C110 H122 0.929 . S
C111 C110 1.363 . S
C111 N113 1.375 . S
C111 H129 0.931 . S
C112 N109 1.311 . S
C112 N113 1.347 . S
C112 H123 0.929 . S
N113 C111 1.375 . S
N113 C112 1.347 . S
C114 C117 1.365 . S
C114 N119 1.328 . S
C114 H120 0.929 . S
C115 C116 1.362 . S
C115 C118 1.377 1_554 S
C115 H130 0.929 1_554 S
C116 C115 1.362 . S
C116 C117 1.366 . S
C117 C114 1.365 . S
C117 C116 1.366 . S
C117 H131 0.930 . S
C118 C115 1.377 1_556 S
C118 N119 1.313 1_556 S
C118 H121 0.933 . S
N119 Co99 2.194 1_554 S
N119 C114 1.328 . S
N119 C118 1.313 1_554 S
H120 C114 0.929 . S
H121 C118 0.933 . S
H122 C110 0.929 . S
H123 C112 0.929 . S
O124 Co99 2.351 1_554 S
O124 C127 1.244 . S
O125 Co99 2.155 1_554 S
O125 C127 1.240 . S
O126 Co99 2.096 . S
O126 C107 1.247 . S
C127 O124 1.244 . S
C127 O125 1.240 . S
H128 C102 0.931 . S
H129 C111 0.931 . S
H130 C115 0.929 1_556 S
H131 C117 0.930 . S
Co132 N136 2.148 . S
Co132 N142 2.128 . S
Co132 N152 2.194 . S
Co132 O157 2.351 . S
Co132 O158 2.155 . S
Co132 O159 2.096 . S
C133 N136 1.301 . S
C133 N137 1.328 . S
C133 H138 0.930 . S
C134 C135 1.333 . S
C134 N136 1.317 . S
C134 H139 0.930 . S
C135 C134 1.333 . S
C135 N137 1.350 . S
C135 H161 0.931 . S
N136 Co132 2.148 . S
N136 C133 1.301 . S
N136 C134 1.317 . S
N137 C133 1.328 . S
N137 C135 1.350 . S
H138 C133 0.930 . S
H139 C134 0.930 . S
C140 O141 1.224 . S
C140 O159 1.247 . S
O141 C140 1.224 . S
N142 Co132 2.128 . S
N142 C143 1.355 . S
N142 C145 1.311 . S
C143 N142 1.355 . S
C143 C144 1.363 1_556 S
C143 H155 0.929 . S
C144 C143 1.363 1_554 S
C144 N146 1.375 . S
C144 H162 0.931 . S
C145 N142 1.311 . S
C145 N146 1.347 1_556 S
C145 H156 0.929 . S
N146 C144 1.375 . S
N146 C145 1.347 1_554 S
C147 C150 1.365 . S
C147 N152 1.328 . S
C147 H153 0.929 . S
C148 C149 1.362 . S
C148 C151 1.378 . S
C148 H163 0.929 . S
C149 C148 1.362 . S
C149 C150 1.366 . S
C150 C147 1.365 . S
C150 C149 1.366 . S
C150 H164 0.930 . S
C151 C148 1.378 . S
C151 N152 1.315 . S
C151 H154 0.930 . S
N152 Co132 2.194 . S
N152 C147 1.328 . S
N152 C151 1.315 . S
H153 C147 0.929 . S
H154 C151 0.930 . S
H155 C143 0.929 . S
H156 C145 0.929 . S
O157 Co132 2.351 . S
O157 C160 1.244 . S
O158 Co132 2.155 . S
O158 C160 1.240 . S
O159 Co132 2.096 . S
O159 C140 1.247 . S
C160 O157 1.244 . S
C160 O158 1.240 . S
H161 C135 0.931 . S
H162 C144 0.931 . S
H163 C148 0.929 . S
H164 C150 0.930 . S
Co165 N169 2.148 1_554 S
Co165 N175 2.128 . S
Co165 N185 2.194 1_554 S
Co165 O190 2.351 1_554 S
Co165 O191 2.155 1_554 S
Co165 O192 2.096 . S
C166 N169 1.301 . S
C166 N170 1.328 . S
C166 H171 0.930 . S
C167 C168 1.333 . S
C167 N169 1.317 . S
C167 H172 0.930 . S
C168 C167 1.333 . S
C168 N170 1.350 . S
C168 H194 0.931 . S
N169 Co165 2.148 1_556 S
N169 C166 1.301 . S
N169 C167 1.317 . S
N170 C166 1.328 . S
N170 C168 1.350 . S
H171 C166 0.930 . S
H172 C167 0.930 . S
C173 O174 1.224 . S
C173 O192 1.247 . S
O174 C173 1.224 . S
N175 Co165 2.128 . S
N175 C176 1.355 . S
N175 C178 1.311 . S
C176 N175 1.355 . S
C176 C177 1.363 . S
C176 H188 0.929 . S
C177 C176 1.363 . S
C177 N179 1.375 . S
C177 H195 0.931 . S
C178 N175 1.311 . S
C178 N179 1.347 . S
C178 H189 0.929 . S
N179 C177 1.375 . S
N179 C178 1.347 . S
C180 C183 1.365 . S
C180 N185 1.328 . S
C180 H186 0.929 . S
C181 C182 1.362 . S
C181 C184 1.377 1_556 S
C181 H196 0.929 1_556 S
C182 C181 1.362 . S
C182 C183 1.366 . S
C183 C180 1.365 . S
C183 C182 1.366 . S
C183 H197 0.930 . S
C184 C181 1.377 1_554 S
C184 N185 1.313 1_554 S
C184 H187 0.933 . S
N185 Co165 2.194 1_556 S
N185 C180 1.328 . S
N185 C184 1.313 1_556 S
H186 C180 0.929 . S
H187 C184 0.933 . S
H188 C176 0.929 . S
H189 C178 0.929 . S
O190 Co165 2.351 1_556 S
O190 C193 1.244 . S
O191 Co165 2.155 1_556 S
O191 C193 1.240 . S
O192 Co165 2.096 . S
O192 C173 1.247 . S
C193 O190 1.244 . S
C193 O191 1.240 . S
H194 C168 0.931 . S
H195 C177 0.931 . S
H196 C181 0.929 1_554 S
H197 C183 0.930 . S
Co198 N202 2.148 . S
Co198 N208 2.128 . S
Co198 N218 2.194 . S
Co198 O223 2.351 . S
Co198 O224 2.155 . S
Co198 O225 2.096 . S
C199 N202 1.301 1_556 S
C199 N203 1.328 . S
C199 H204 0.930 . S
C200 C201 1.333 1_554 S
C200 N202 1.317 . S
C200 H205 0.930 . S
C201 C200 1.333 1_556 S
C201 N203 1.350 . S
C201 H227 0.931 . S
N202 Co198 2.148 . S
N202 C199 1.301 1_554 S
N202 C200 1.317 . S
N203 C199 1.328 . S
N203 C201 1.350 . S
H204 C199 0.930 . S
H205 C200 0.930 . S
C206 O207 1.224 . S
C206 O225 1.247 . S
O207 C206 1.224 . S
N208 Co198 2.128 . S
N208 C209 1.355 . S
N208 C211 1.311 . S
C209 N208 1.355 . S
C209 C210 1.363 . S
C209 H221 0.929 . S
C210 C209 1.363 . S
C210 N212 1.375 . S
C210 H228 0.931 . S
C211 N208 1.311 . S
C211 N212 1.347 . S
C211 H222 0.929 . S
N212 C210 1.375 . S
N212 C211 1.347 . S
C213 C216 1.365 . S
C213 N218 1.328 . S
C213 H219 0.929 . S
C214 C215 1.362 . S
C214 C217 1.378 . S
C214 H229 0.929 . S
C215 C214 1.362 . S
C215 C216 1.366 . S
C216 C213 1.365 . S
C216 C215 1.366 . S
C216 H230 0.930 . S
C217 C214 1.378 . S
C217 N218 1.315 . S
C217 H220 0.930 . S
N218 Co198 2.194 . S
N218 C213 1.328 . S
N218 C217 1.315 . S
H219 C213 0.929 . S
H220 C217 0.930 . S
H221 C209 0.929 . S
H222 C211 0.929 . S
O223 Co198 2.351 . S
O223 C226 1.244 . S
O224 Co198 2.155 . S
O224 C226 1.240 . S
O225 Co198 2.096 . S
O225 C206 1.247 . S
C226 O223 1.244 . S
C226 O224 1.240 . S
H227 C201 0.931 . S
H228 C210 0.931 . S
H229 C214 0.929 . S
H230 C216 0.930 . S
Co231 N235 2.148 . S
Co231 N241 2.128 . S
Co231 N251 2.194 . S
Co231 O256 2.351 . S
Co231 O257 2.155 . S
Co231 O258 2.096 . S
C232 N235 1.301 . S
C232 N236 1.328 . S
C232 H237 0.930 . S
C233 C234 1.333 . S
C233 N235 1.317 . S
C233 H238 0.930 . S
C234 C233 1.333 . S
C234 N236 1.350 . S
C234 H260 0.931 . S
N235 Co231 2.148 . S
N235 C232 1.301 . S
N235 C233 1.317 . S
N236 C232 1.328 . S
N236 C234 1.350 . S
H237 C232 0.930 . S
H238 C233 0.930 . S
C239 O240 1.224 . S
C239 O258 1.247 . S
O240 C239 1.224 . S
N241 Co231 2.128 . S
N241 C242 1.355 . S
N241 C244 1.311 . S
C242 N241 1.355 . S
C242 C243 1.363 . S
C242 H254 0.929 . S
C243 C242 1.363 . S
C243 N245 1.375 . S
C243 H261 0.931 . S
C244 N241 1.311 . S
C244 N245 1.347 . S
C244 H255 0.929 . S
N245 C243 1.375 . S
N245 C244 1.347 . S
C246 C249 1.365 . S
C246 N251 1.328 . S
C246 H252 0.929 . S
C247 C248 1.362 . S
C247 C250 1.378 . S
C247 H262 0.929 . S
C248 C247 1.362 . S
C248 C249 1.366 . S
C249 C246 1.365 . S
C249 C248 1.366 . S
C249 H263 0.930 . S
C250 C247 1.378 . S
C250 N251 1.315 . S
C250 H253 0.930 . S
N251 Co231 2.194 . S
N251 C246 1.328 . S
N251 C250 1.315 . S
H252 C246 0.929 . S
H253 C250 0.930 . S
H254 C242 0.929 . S
H255 C244 0.929 . S
O256 Co231 2.351 . S
O256 C259 1.244 . S
O257 Co231 2.155 . S
O257 C259 1.240 . S
O258 Co231 2.096 . S
O258 C239 1.247 . S
C259 O256 1.244 . S
C259 O257 1.240 . S
H260 C234 0.931 . S
H261 C243 0.931 . S
H262 C247 0.929 . S
H263 C249 0.930 . S
Co264 N268 2.148 . S
Co264 N274 2.128 . S
Co264 N284 2.194 . S
Co264 O289 2.351 . S
Co264 O290 2.155 . S
Co264 O291 2.096 . S
C265 N268 1.301 . S
C265 N269 1.328 . S
C265 H270 0.930 . S
C266 C267 1.333 . S
C266 N268 1.317 . S
C266 H271 0.930 . S
C267 C266 1.333 . S
C267 N269 1.350 . S
C267 H293 0.931 . S
N268 Co264 2.148 . S
N268 C265 1.301 . S
N268 C266 1.317 . S
N269 C265 1.328 . S
N269 C267 1.350 . S
H270 C265 0.930 . S
H271 C266 0.930 . S
C272 O273 1.224 . S
C272 O291 1.247 . S
O273 C272 1.224 . S
N274 Co264 2.128 . S
N274 C275 1.355 . S
N274 C277 1.311 . S
C275 N274 1.355 . S
C275 C276 1.363 . S
C275 H287 0.929 . S
C276 C275 1.363 . S
C276 N278 1.375 . S
C276 H294 0.931 . S
C277 N274 1.311 . S
C277 N278 1.347 . S
C277 H288 0.929 . S
N278 C276 1.375 . S
N278 C277 1.347 . S
C279 C282 1.365 . S
C279 N284 1.328 . S
C279 H285 0.929 . S
C280 C281 1.362 . S
C280 C283 1.378 . S
C280 H295 0.929 . S
C281 C280 1.362 . S
C281 C282 1.366 . S
C282 C279 1.365 . S
C282 C281 1.366 . S
C282 H296 0.930 . S
C283 C280 1.378 . S
C283 N284 1.315 . S
C283 H286 0.930 . S
N284 Co264 2.194 . S
N284 C279 1.328 . S
N284 C283 1.315 . S
H285 C279 0.929 . S
H286 C283 0.930 . S
H287 C275 0.929 . S
H288 C277 0.929 . S
O289 Co264 2.351 . S
O289 C292 1.244 . S
O290 Co264 2.155 . S
O290 C292 1.240 . S
O291 Co264 2.096 . S
O291 C272 1.247 . S
C292 O289 1.244 . S
C292 O290 1.240 . S
H293 C267 0.931 . S
H294 C276 0.931 . S
H295 C280 0.929 . S
H296 C282 0.930 . S
Co297 N301 2.148 1_554 S
Co297 N307 2.128 . S
Co297 N317 2.194 1_554 S
Co297 O322 2.351 1_554 S
Co297 O323 2.155 1_554 S
Co297 O324 2.096 . S
C298 N301 1.301 . S
C298 N302 1.328 . S
C298 H303 0.930 . S
C299 C300 1.333 . S
C299 N301 1.317 . S
C299 H304 0.930 . S
C300 C299 1.333 . S
C300 N302 1.350 . S
C300 H326 0.931 . S
N301 Co297 2.148 1_556 S
N301 C298 1.301 . S
N301 C299 1.317 . S
N302 C298 1.328 . S
N302 C300 1.350 . S
H303 C298 0.930 . S
H304 C299 0.930 . S
C305 O306 1.224 . S
C305 O324 1.247 . S
O306 C305 1.224 . S
N307 Co297 2.128 . S
N307 C308 1.355 . S
N307 C310 1.311 . S
C308 N307 1.355 . S
C308 C309 1.363 . S
C308 H320 0.929 . S
C309 C308 1.363 . S
C309 N311 1.375 . S
C309 H327 0.931 . S
C310 N307 1.311 . S
C310 N311 1.347 . S
C310 H321 0.929 . S
N311 C309 1.375 . S
N311 C310 1.347 . S
C312 C315 1.365 . S
C312 N317 1.328 . S
C312 H318 0.929 . S
C313 C314 1.362 . S
C313 C316 1.377 1_556 S
C313 H328 0.929 1_556 S
C314 C313 1.362 . S
C314 C315 1.366 . S
C315 C312 1.365 . S
C315 C314 1.366 . S
C315 H329 0.930 . S
C316 C313 1.377 1_554 S
C316 N317 1.313 1_554 S
C316 H319 0.933 . S
N317 Co297 2.194 1_556 S
N317 C312 1.328 . S
N317 C316 1.313 1_556 S
H318 C312 0.929 . S
H319 C316 0.933 . S
H320 C308 0.929 . S
H321 C310 0.929 . S
O322 Co297 2.351 1_556 S
O322 C325 1.244 . S
O323 Co297 2.155 1_556 S
O323 C325 1.240 . S
O324 Co297 2.096 . S
O324 C305 1.247 . S
C325 O322 1.244 . S
C325 O323 1.240 . S
H326 C300 0.931 . S
H327 C309 0.931 . S
H328 C313 0.929 1_554 S
H329 C315 0.930 . S
Co330 N334 2.148 1_556 S
Co330 N340 2.128 . S
Co330 N350 2.194 1_556 S
Co330 O355 2.351 1_556 S
Co330 O356 2.155 1_556 S
Co330 O357 2.096 . S
C331 N334 1.301 . S
C331 N335 1.328 . S
C331 H336 0.930 . S
C332 C333 1.333 . S
C332 N334 1.317 . S
C332 H337 0.930 . S
C333 C332 1.333 . S
C333 N335 1.350 . S
C333 H359 0.931 . S
N334 Co330 2.148 1_554 S
N334 C331 1.301 . S
N334 C332 1.317 . S
N335 C331 1.328 . S
N335 C333 1.350 . S
H336 C331 0.930 . S
H337 C332 0.930 . S
C338 O339 1.224 . S
C338 O357 1.247 . S
O339 C338 1.224 . S
N340 Co330 2.128 . S
N340 C341 1.355 . S
N340 C343 1.311 . S
C341 N340 1.355 . S
C341 C342 1.363 . S
C341 H353 0.929 . S
C342 C341 1.363 . S
C342 N344 1.375 . S
C342 H360 0.931 . S
C343 N340 1.311 . S
C343 N344 1.347 . S
C343 H354 0.929 . S
N344 C342 1.375 . S
N344 C343 1.347 . S
C345 C348 1.365 . S
C345 N350 1.328 . S
C345 H351 0.929 . S
C346 C347 1.362 . S
C346 C349 1.377 1_554 S
C346 H361 0.929 1_554 S
C347 C346 1.362 . S
C347 C348 1.366 . S
C348 C345 1.365 . S
C348 C347 1.366 . S
C348 H362 0.930 . S
C349 C346 1.377 1_556 S
C349 N350 1.313 1_556 S
C349 H352 0.933 . S
N350 Co330 2.194 1_554 S
N350 C345 1.328 . S
N350 C349 1.313 1_554 S
H351 C345 0.929 . S
H352 C349 0.933 . S
H353 C341 0.929 . S
H354 C343 0.929 . S
O355 Co330 2.351 1_554 S
O355 C358 1.244 . S
O356 Co330 2.155 1_554 S
O356 C358 1.240 . S
O357 Co330 2.096 . S
O357 C338 1.247 . S
C358 O355 1.244 . S
C358 O356 1.240 . S
H359 C333 0.931 . S
H360 C342 0.931 . S
H361 C346 0.929 1_556 S
H362 C348 0.930 . S
Co363 N367 2.148 . S
Co363 N373 2.128 . S
Co363 N383 2.194 . S
Co363 O388 2.351 . S
Co363 O389 2.155 . S
Co363 O390 2.096 . S
C364 N367 1.301 . S
C364 N368 1.328 . S
C364 H369 0.930 . S
C365 C366 1.333 . S
C365 N367 1.317 . S
C365 H370 0.930 . S
C366 C365 1.333 . S
C366 N368 1.350 . S
C366 H392 0.931 . S
N367 Co363 2.148 . S
N367 C364 1.301 . S
N367 C365 1.317 . S
N368 C364 1.328 . S
N368 C366 1.350 . S
H369 C364 0.930 . S
H370 C365 0.930 . S
C371 O372 1.224 . S
C371 O390 1.247 . S
O372 C371 1.224 . S
N373 Co363 2.128 . S
N373 C374 1.355 . S
N373 C376 1.311 . S
C374 N373 1.355 . S
C374 C375 1.363 . S
C374 H386 0.929 . S
C375 C374 1.363 . S
C375 N377 1.375 . S
C375 H393 0.931 . S
C376 N373 1.311 . S
C376 N377 1.347 . S
C376 H387 0.929 . S
N377 C375 1.375 . S
N377 C376 1.347 . S
C378 C381 1.365 . S
C378 N383 1.328 . S
C378 H384 0.929 . S
C379 C380 1.362 . S
C379 C382 1.378 . S
C379 H394 0.929 . S
C380 C379 1.362 . S
C380 C381 1.366 . S
C381 C378 1.365 . S
C381 C380 1.366 . S
C381 H395 0.930 . S
C382 C379 1.378 . S
C382 N383 1.315 . S
C382 H385 0.930 . S
N383 Co363 2.194 . S
N383 C378 1.328 . S
N383 C382 1.315 . S
H384 C378 0.929 . S
H385 C382 0.930 . S
H386 C374 0.929 . S
H387 C376 0.929 . S
O388 Co363 2.351 . S
O388 C391 1.244 . S
O389 Co363 2.155 . S
O389 C391 1.240 . S
O390 Co363 2.096 . S
O390 C371 1.247 . S
C391 O388 1.244 . S
C391 O389 1.240 . S
H392 C366 0.931 . S
H393 C375 0.931 . S
H394 C379 0.929 . S
H395 C381 0.930 . S
Co396 N400 2.148 . S
Co396 N406 2.128 . S
Co396 N416 2.194 . S
Co396 O421 2.351 . S
Co396 O422 2.155 . S
Co396 O423 2.096 . S
C397 N400 1.301 1_554 S
C397 N401 1.328 . S
C397 H402 0.930 . S
C398 C399 1.333 1_556 S
C398 N400 1.317 . S
C398 H403 0.930 . S
C399 C398 1.333 1_554 S
C399 N401 1.350 . S
C399 H425 0.931 . S
N400 Co396 2.148 . S
N400 C397 1.301 1_556 S
N400 C398 1.317 . S
N401 C397 1.328 . S
N401 C399 1.350 . S
H402 C397 0.930 . S
H403 C398 0.930 . S
C404 O405 1.224 . S
C404 O423 1.247 . S
O405 C404 1.224 . S
N406 Co396 2.128 . S
N406 C407 1.355 . S
N406 C409 1.311 . S
C407 N406 1.355 . S
C407 C408 1.363 . S
C407 H419 0.929 . S
C408 C407 1.363 . S
C408 N410 1.375 . S
C408 H426 0.931 . S
C409 N406 1.311 . S
C409 N410 1.347 . S
C409 H420 0.929 . S
N410 C408 1.375 . S
N410 C409 1.347 . S
C411 C414 1.365 . S
C411 N416 1.328 . S
C411 H417 0.929 . S
C412 C413 1.362 . S
C412 C415 1.378 . S
C412 H427 0.929 . S
C413 C412 1.362 . S
C413 C414 1.366 . S
C414 C411 1.365 . S
C414 C413 1.366 . S
C414 H428 0.930 . S
C415 C412 1.378 . S
C415 N416 1.315 . S
C415 H418 0.930 . S
N416 Co396 2.194 . S
N416 C411 1.328 . S
N416 C415 1.315 . S
H417 C411 0.929 . S
H418 C415 0.930 . S
H419 C407 0.929 . S
H420 C409 0.929 . S
O421 Co396 2.351 . S
O421 C424 1.244 . S
O422 Co396 2.155 . S
O422 C424 1.240 . S
O423 Co396 2.096 . S
O423 C404 1.247 . S
C424 O421 1.244 . S
C424 O422 1.240 . S
H425 C399 0.931 . S
H426 C408 0.931 . S
H427 C412 0.929 . S
H428 C414 0.930 . S
Co429 N433 2.148 . S
Co429 N439 2.128 . S
Co429 N449 2.194 . S
Co429 O454 2.351 . S
Co429 O455 2.155 1_455 S
Co429 O456 2.096 . S
C430 N433 1.301 . S
C430 N434 1.328 . S
C430 H435 0.930 . S
C431 C432 1.333 . S
C431 N433 1.317 . S
C431 H436 0.930 . S
C432 C431 1.333 . S
C432 N434 1.350 . S
C432 H458 0.931 . S
N433 Co429 2.148 . S
N433 C430 1.301 . S
N433 C431 1.317 . S
N434 C430 1.328 . S
N434 C432 1.350 . S
H435 C430 0.930 . S
H436 C431 0.930 . S
C437 O438 1.224 . S
C437 O456 1.247 . S
O438 C437 1.224 . S
N439 Co429 2.128 . S
N439 C440 1.355 . S
N439 C442 1.311 . S
C440 N439 1.355 . S
C440 C441 1.363 1_554 S
C440 H452 0.929 . S
C441 C440 1.363 1_556 S
C441 N443 1.375 . S
C441 H459 0.931 . S
C442 N439 1.311 . S
C442 N443 1.347 1_554 S
C442 H453 0.929 . S
N443 C441 1.375 . S
N443 C442 1.347 1_556 S
C444 C447 1.365 . S
C444 N449 1.328 . S
C444 H450 0.929 . S
C445 C446 1.362 . S
C445 C448 1.378 . S
C445 H460 0.929 . S
C446 C445 1.362 . S
C446 C447 1.366 . S
C447 C444 1.365 . S
C447 C446 1.366 . S
C447 H461 0.930 . S
C448 C445 1.378 . S
C448 N449 1.315 . S
C448 H451 0.930 . S
N449 Co429 2.194 . S
N449 C444 1.328 . S
N449 C448 1.315 . S
H450 C444 0.929 . S
H451 C448 0.930 . S
H452 C440 0.929 . S
H453 C442 0.929 . S
O454 Co429 2.351 . S
O454 C457 1.244 1_455 S
O455 Co429 2.155 1_655 S
O455 C457 1.240 . S
O456 Co429 2.096 . S
O456 C437 1.247 . S
C457 O454 1.244 1_655 S
C457 O455 1.240 . S
H458 C432 0.931 . S
H459 C441 0.931 . S
H460 C445 0.929 . S
H461 C447 0.930 . S
Co462 N466 2.148 . S
Co462 N472 2.128 . S
Co462 N482 2.194 . S
Co462 O487 2.351 . S
Co462 O488 2.155 . S
Co462 O489 2.096 . S
C463 N466 1.301 1_556 S
C463 N467 1.328 . S
C463 H468 0.930 . S
C464 C465 1.333 1_554 S
C464 N466 1.317 . S
C464 H469 0.930 . S
C465 C464 1.333 1_556 S
C465 N467 1.350 . S
C465 H491 0.931 . S
N466 Co462 2.148 . S
N466 C463 1.301 1_554 S
N466 C464 1.317 . S
N467 C463 1.328 . S
N467 C465 1.350 . S
H468 C463 0.930 . S
H469 C464 0.930 . S
C470 O471 1.224 . S
C470 O489 1.247 . S
O471 C470 1.224 . S
N472 Co462 2.128 . S
N472 C473 1.355 . S
N472 C475 1.311 . S
C473 N472 1.355 . S
C473 C474 1.363 . S
C473 H485 0.929 . S
C474 C473 1.363 . S
C474 N476 1.375 . S
C474 H492 0.931 . S
C475 N472 1.311 . S
C475 N476 1.347 . S
C475 H486 0.929 . S
N476 C474 1.375 . S
N476 C475 1.347 . S
C477 C480 1.365 . S
C477 N482 1.328 . S
C477 H483 0.929 . S
C478 C479 1.362 . S
C478 C481 1.378 . S
C478 H493 0.929 . S
C479 C478 1.362 . S
C479 C480 1.366 . S
C480 C477 1.365 . S
C480 C479 1.366 . S
C480 H494 0.930 . S
C481 C478 1.378 . S
C481 N482 1.315 . S
C481 H484 0.930 . S
N482 Co462 2.194 . S
N482 C477 1.328 . S
N482 C481 1.315 . S
H483 C477 0.929 . S
H484 C481 0.930 . S
H485 C473 0.929 . S
H486 C475 0.929 . S
O487 Co462 2.351 . S
O487 C490 1.244 . S
O488 Co462 2.155 . S
O488 C490 1.240 . S
O489 Co462 2.096 . S
O489 C470 1.247 . S
C490 O487 1.244 . S
C490 O488 1.240 . S
H491 C465 0.931 . S
H492 C474 0.931 . S
H493 C478 0.929 . S
H494 C480 0.930 . S
Co495 N499 2.148 . S
Co495 N505 2.128 . S
Co495 N515 2.194 . S
Co495 O520 2.351 . S
Co495 O521 2.155 1_455 S
Co495 O522 2.096 . S
C496 N499 1.301 . S
C496 N500 1.328 . S
C496 H501 0.930 . S
C497 C498 1.333 . S
C497 N499 1.317 . S
C497 H502 0.930 . S
C498 C497 1.333 . S
C498 N500 1.350 . S
C498 H524 0.931 . S
N499 Co495 2.148 . S
N499 C496 1.301 . S
N499 C497 1.317 . S
N500 C496 1.328 . S
N500 C498 1.350 . S
H501 C496 0.930 . S
H502 C497 0.930 . S
C503 O504 1.224 . S
C503 O522 1.247 . S
O504 C503 1.224 . S
N505 Co495 2.128 . S
N505 C506 1.355 . S
N505 C508 1.311 . S
C506 N505 1.355 . S
C506 C507 1.363 1_556 S
C506 H518 0.929 . S
C507 C506 1.363 1_554 S
C507 N509 1.375 . S
C507 H525 0.931 . S
C508 N505 1.311 . S
C508 N509 1.347 1_556 S
C508 H519 0.929 . S
N509 C507 1.375 . S
N509 C508 1.347 1_554 S
C510 C513 1.365 . S
C510 N515 1.328 . S
C510 H516 0.929 . S
C511 C512 1.362 . S
C511 C514 1.378 . S
C511 H526 0.929 . S
C512 C511 1.362 . S
C512 C513 1.366 . S
C513 C510 1.365 . S
C513 C512 1.366 . S
C513 H527 0.930 . S
C514 C511 1.378 . S
C514 N515 1.315 . S
C514 H517 0.930 . S
N515 Co495 2.194 . S
N515 C510 1.328 . S
N515 C514 1.315 . S
H516 C510 0.929 . S
H517 C514 0.930 . S
H518 C506 0.929 . S
H519 C508 0.929 . S
O520 Co495 2.351 . S
O520 C523 1.244 1_455 S
O521 Co495 2.155 1_655 S
O521 C523 1.240 . S
O522 Co495 2.096 . S
O522 C503 1.247 . S
C523 O520 1.244 1_655 S
C523 O521 1.240 . S
H524 C498 0.931 . S
H525 C507 0.931 . S
H526 C511 0.929 . S
H527 C513 0.930 . S
C528 C529 1.387 . S
C528 H532 0.950 . S
C528 C537 1.390 . S
C529 C528 1.387 . S
C529 C531 1.387 . S
H530 C537 0.950 . S
C531 C529 1.387 . S
C531 C533 1.390 . S
C531 H535 0.950 . S
H532 C528 0.950 . S
C533 C531 1.390 . S
C533 C534 1.387 . S
C533 H536 0.950 . S
C534 C533 1.387 . S
C534 C537 1.387 . S
H535 C531 0.950 . S
H536 C533 0.950 . S
C537 C528 1.390 . S
C537 H530 0.950 . S
C537 C534 1.387 . S
C538 C539 1.387 . S
C538 H542 0.950 . S
C538 C547 1.390 . S
C539 C538 1.387 . S
C539 C541 1.387 . S
H540 C547 0.950 . S
C541 C539 1.387 . S
C541 C543 1.390 . S
C541 H545 0.950 . S
H542 C538 0.950 . S
C543 C541 1.390 . S
C543 C544 1.387 . S
C543 H546 0.950 . S
C544 C543 1.387 . S
C544 C547 1.387 . S
H545 C541 0.950 . S
H546 C543 0.950 . S
C547 C538 1.390 . S
C547 H540 0.950 . S
C547 C544 1.387 . S
C548 C549 1.387 . S
C548 H552 0.950 . S
C548 C557 1.390 . S
C549 C548 1.387 . S
C549 C551 1.387 . S
H550 C557 0.950 . S
C551 C549 1.387 . S
C551 C553 1.393 . S
C551 H555 0.950 1_556 S
H552 C548 0.950 . S
C553 C551 1.393 . S
C553 C554 1.395 . S
C553 H556 0.940 1_556 S
C554 C553 1.395 . S
C554 C557 1.387 . S
H555 C551 0.950 1_554 S
H556 C553 0.940 1_554 S
C557 C548 1.390 . S
C557 H550 0.950 . S
C557 C554 1.387 . S
C558 C559 1.387 . S
C558 H562 0.950 . S
C558 C567 1.390 . S
C559 C558 1.387 . S
C559 C561 1.387 . S
H560 C567 0.950 . S
C561 C559 1.387 . S
C561 C563 1.390 . S
C561 H565 0.950 . S
H562 C558 0.950 . S
C563 C561 1.390 . S
C563 C564 1.387 . S
C563 H566 0.950 . S
C564 C563 1.387 . S
C564 C567 1.387 . S
H565 C561 0.950 . S
H566 C563 0.950 . S
C567 C558 1.390 . S
C567 H560 0.950 . S
C567 C564 1.387 . S
C568 C569 1.387 . S
C568 H572 0.950 . S
C568 C577 1.390 . S
C569 C568 1.387 . S
C569 C571 1.387 . S
H570 C577 0.950 . S
C571 C569 1.387 . S
C571 C573 1.390 . S
C571 H575 0.950 . S
H572 C568 0.950 . S
C573 C571 1.390 . S
C573 C574 1.387 . S
C573 H576 0.950 . S
C574 C573 1.387 . S
C574 C577 1.387 . S
H575 C571 0.950 . S
H576 C573 0.950 . S
C577 C568 1.390 . S
C577 H570 0.950 . S
C577 C574 1.387 . S
C578 C579 1.387 . S
C578 H582 0.950 . S
C578 C587 1.390 . S
C579 C578 1.387 . S
C579 C581 1.387 . S
H580 C587 0.950 . S
C581 C579 1.387 . S
C581 C583 1.390 . S
C581 H585 0.950 . S
H582 C578 0.950 . S
C583 C581 1.390 . S
C583 C584 1.387 . S
C583 H586 0.950 . S
C584 C583 1.387 . S
C584 C587 1.387 . S
H585 C581 0.950 . S
H586 C583 0.950 . S
C587 C578 1.390 . S
C587 H580 0.950 . S
C587 C584 1.387 . S
C588 C589 1.387 . S
C588 H592 0.950 . S
C588 C597 1.390 . S
C589 C588 1.387 . S
C589 C591 1.387 . S
H590 C597 0.950 . S
C591 C589 1.387 . S
C591 C593 1.390 1_554 S
C591 H595 0.950 1_554 S
H592 C588 0.950 . S
C593 C591 1.390 1_556 S
C593 C594 1.387 1_556 S
C593 H596 0.950 . S
C594 C593 1.387 1_554 S
C594 C597 1.387 . S
H595 C591 0.950 1_556 S
H596 C593 0.950 . S
C597 C588 1.390 . S
C597 H590 0.950 . S
C597 C594 1.387 . S
C598 C599 1.387 . S
C598 H602 0.950 . S
C598 C607 1.390 . S
C599 C598 1.387 . S
C599 C601 1.387 . S
H600 C607 0.950 . S
C601 C599 1.387 . S
C601 C603 1.390 1_556 S
C601 H605 0.950 1_556 S
H602 C598 0.950 . S
C603 C601 1.390 1_554 S
C603 C604 1.387 1_554 S
C603 H606 0.950 . S
C604 C603 1.387 1_556 S
C604 C607 1.387 . S
H605 C601 0.950 1_554 S
H606 C603 0.950 . S
C607 C598 1.390 . S
C607 H600 0.950 . S
C607 C604 1.387 . S
C608 C609 1.387 . S
C608 H612 0.950 1_556 S
C608 C617 1.390 . S
C609 C608 1.387 . S
C609 C611 1.387 . S
H610 C617 0.950 1_554 S
C611 C609 1.387 . S
C611 C613 1.390 . S
C611 H615 0.950 . S
H612 C608 0.950 1_554 S
C613 C611 1.390 . S
C613 C614 1.387 . S
C613 H616 0.950 . S
C614 C613 1.387 . S
C614 C617 1.387 . S
H615 C611 0.950 . S
H616 C613 0.950 . S
C617 C608 1.390 . S
C617 H610 0.950 1_556 S
C617 C614 1.387 . S
C618 C619 1.387 . S
C618 H622 0.950 . S
C618 C627 1.390 . S
C619 C618 1.387 . S
C619 C621 1.387 . S
H620 C627 0.950 . S
C621 C619 1.387 . S
C621 C623 1.390 1_554 S
C621 H625 0.950 1_554 S
H622 C618 0.950 . S
C623 C621 1.390 1_556 S
C623 C624 1.387 1_556 S
C623 H626 0.950 . S
C624 C623 1.387 1_554 S
C624 C627 1.387 . S
H625 C621 0.950 1_556 S
H626 C623 0.950 . S
C627 C618 1.390 . S
C627 H620 0.950 . S
C627 C624 1.387 . S
C628 C629 1.387 . S
C628 H632 0.950 . S
C628 C637 1.390 . S
C629 C628 1.387 . S
C629 C631 1.387 . S
H630 C637 0.950 . S
C631 C629 1.387 . S
C631 C633 1.390 . S
C631 H635 0.950 . S
H632 C628 0.950 . S
C633 C631 1.390 . S
C633 C634 1.387 . S
C633 H636 0.950 . S
C634 C633 1.387 . S
C634 C637 1.387 . S
H635 C631 0.950 . S
H636 C633 0.950 . S
C637 C628 1.390 . S
C637 H630 0.950 . S
C637 C634 1.387 . S
C638 C639 1.387 . S
C638 H642 0.950 . S
C638 C647 1.390 . S
C639 C638 1.387 . S
C639 C641 1.387 . S
H640 C647 0.950 . S
C641 C639 1.387 . S
C641 C643 1.390 . S
C641 H645 0.950 . S
H642 C638 0.950 . S
C643 C641 1.390 . S
C643 C644 1.387 . S
C643 H646 0.950 . S
C644 C643 1.387 . S
C644 C647 1.387 . S
H645 C641 0.950 . S
H646 C643 0.950 . S
C647 C638 1.390 . S
C647 H640 0.950 . S
C647 C644 1.387 . S
C648 C649 1.387 . S
C648 H652 0.950 . S
C648 C657 1.390 . S
C649 C648 1.387 . S
C649 C651 1.387 . S
H650 C657 0.950 . S
C651 C649 1.387 . S
C651 C653 1.390 . S
C651 H655 0.950 1_554 S
H652 C648 0.950 . S
C653 C651 1.390 . S
C653 C654 1.387 . S
C653 H656 0.950 . S
C654 C653 1.387 . S
C654 C657 1.387 . S
H655 C651 0.950 1_556 S
H656 C653 0.950 . S
C657 C648 1.390 . S
C657 H650 0.950 . S
C657 C654 1.387 . S
C658 C659 1.387 1_554 S
C658 H662 0.950 . S
C658 C667 1.390 1_554 S
C659 C658 1.387 1_556 S
C659 C661 1.387 . S
H660 C667 0.950 1_554 S
C661 C659 1.387 . S
C661 C663 1.390 . S
C661 H665 0.950 . S
H662 C658 0.950 . S
C663 C661 1.390 . S
C663 C664 1.387 . S
C663 H666 0.950 . S
C664 C663 1.387 . S
C664 C667 1.387 . S
H665 C661 0.950 . S
H666 C663 0.950 . S
C667 C658 1.390 1_556 S
C667 H660 0.950 1_556 S
C667 C664 1.387 . S
C668 C669 1.387 . S
C668 H672 0.950 . S
C668 C677 1.390 . S
C669 C668 1.387 . S
C669 C671 1.387 . S
H670 C677 0.950 . S
C671 C669 1.387 . S
C671 C673 1.390 . S
C671 H675 0.950 . S
H672 C668 0.950 . S
C673 C671 1.390 . S
C673 C674 1.387 . S
C673 H676 0.950 . S
C674 C673 1.387 . S
C674 C677 1.387 . S
H675 C671 0.950 . S
H676 C673 0.950 . S
C677 C668 1.390 . S
C677 H670 0.950 . S
C677 C674 1.387 . S
C678 C679 1.387 . S
C678 H682 0.950 . S
C678 C687 1.390 . S
C679 C678 1.387 . S
C679 C681 1.387 . S
H680 C687 0.950 . S
C681 C679 1.387 . S
C681 C683 1.390 . S
C681 H685 0.950 . S
H682 C678 0.950 . S
C683 C681 1.390 . S
C683 C684 1.387 . S
C683 H686 0.950 . S
C684 C683 1.387 . S
C684 C687 1.387 . S
H685 C681 0.950 . S
H686 C683 0.950 . S
C687 C678 1.390 . S
C687 H680 0.950 . S
C687 C684 1.387 . S
C688 C689 1.387 . S
C688 H692 0.950 . S
C688 C697 1.390 1_544 S
C689 C688 1.387 . S
C689 C691 1.387 . S
H690 C697 0.950 . S
C691 C689 1.387 . S
C691 C693 1.390 1_544 S
C691 H695 0.950 . S
H692 C688 0.950 . S
C693 C691 1.390 1_566 S
C693 C694 1.387 . S
C693 H696 0.950 . S
C694 C693 1.387 . S
C694 C697 1.387 . S
H695 C691 0.950 . S
H696 C693 0.950 . S
C697 C688 1.390 1_566 S
C697 H690 0.950 . S
C697 C694 1.387 . S
C698 C699 1.387 . S
C698 H702 0.950 . S
C698 C707 1.390 . S
C699 C698 1.387 . S
C699 C701 1.387 . S
H700 C707 0.950 . S
C701 C699 1.387 . S
C701 C703 1.390 . S
C701 H705 0.950 . S
H702 C698 0.950 . S
C703 C701 1.390 . S
C703 C704 1.387 . S
C703 H706 0.950 . S
C704 C703 1.387 . S
C704 C707 1.387 . S
H705 C701 0.950 . S
H706 C703 0.950 . S
C707 C698 1.390 . S
C707 H700 0.950 . S
C707 C704 1.387 . S
C708 C709 1.387 . S
C708 H712 0.950 . S
C708 C717 1.390 1_545 S
C709 C708 1.387 . S
C709 C711 1.387 . S
H710 C717 0.950 . S
C711 C709 1.387 . S
C711 C713 1.390 1_545 S
C711 H715 0.950 . S
H712 C708 0.950 . S
C713 C711 1.390 1_565 S
C713 C714 1.387 . S
C713 H716 0.950 . S
C714 C713 1.387 . S
C714 C717 1.387 . S
H715 C711 0.950 . S
H716 C713 0.950 . S
C717 C708 1.390 1_565 S
C717 H710 0.950 . S
C717 C714 1.387 . S
C718 C719 1.387 . S
C718 H722 0.950 . S
C718 C727 1.390 . S
C719 C718 1.387 . S
C719 C721 1.387 . S
H720 C727 0.950 . S
C721 C719 1.387 . S
C721 C723 1.390 . S
C721 H725 0.950 . S
H722 C718 0.950 . S
C723 C721 1.390 . S
C723 C724 1.387 . S
C723 H726 0.950 . S
C724 C723 1.387 . S
C724 C727 1.387 . S
H725 C721 0.950 . S
H726 C723 0.950 . S
C727 C718 1.390 . S
C727 H720 0.950 . S
C727 C724 1.387 . S
C728 C729 1.387 . S
C728 H732 0.950 . S
C728 C737 1.390 . S
C729 C728 1.387 . S
C729 C731 1.387 . S
H730 C737 0.950 . S
C731 C729 1.387 . S
C731 C733 1.390 . S
C731 H735 0.950 . S
H732 C728 0.950 . S
C733 C731 1.390 . S
C733 C734 1.387 . S
C733 H736 0.950 . S
C734 C733 1.387 . S
C734 C737 1.387 . S
H735 C731 0.950 . S
H736 C733 0.950 . S
C737 C728 1.390 . S
C737 H730 0.950 . S
C737 C734 1.387 . S
C738 C739 1.387 . S
C738 H742 0.950 . S
C738 C747 1.390 . S
C739 C738 1.387 . S
C739 C741 1.387 . S
H740 C747 0.950 . S
C741 C739 1.387 . S
C741 C743 1.390 . S
C741 H745 0.950 . S
H742 C738 0.950 . S
C743 C741 1.390 . S
C743 C744 1.387 . S
C743 H746 0.950 . S
C744 C743 1.387 . S
C744 C747 1.387 . S
H745 C741 0.950 . S
H746 C743 0.950 . S
C747 C738 1.390 . S
C747 H740 0.950 . S
C747 C744 1.387 . S
C748 C749 1.387 . S
C748 H752 0.950 . S
C748 C757 1.390 . S
C749 C748 1.387 . S
C749 C751 1.387 . S
H750 C757 0.950 . S
C751 C749 1.387 . S
C751 C753 1.390 . S
C751 H755 0.950 . S
H752 C748 0.950 . S
C753 C751 1.390 . S
C753 C754 1.387 . S
C753 H756 0.950 . S
C754 C753 1.387 . S
C754 C757 1.387 . S
H755 C751 0.950 . S
H756 C753 0.950 . S
C757 C748 1.390 . S
C757 H750 0.950 . S
C757 C754 1.387 . S
C758 C759 1.387 . S
C758 H762 0.950 . S
C758 C767 1.390 1_556 S
C759 C758 1.387 . S
C759 C761 1.387 . S
H760 C767 0.950 . S
C761 C759 1.387 . S
C761 C763 1.390 1_556 S
C761 H765 0.950 . S
H762 C758 0.950 . S
C763 C761 1.390 1_554 S
C763 C764 1.387 . S
C763 H766 0.950 . S
C764 C763 1.387 . S
C764 C767 1.387 . S
H765 C761 0.950 . S
H766 C763 0.950 . S
C767 C758 1.390 1_554 S
C767 H760 0.950 . S
C767 C764 1.387 . S
C768 C769 1.387 . S
C768 H772 0.950 . S
C768 C777 1.390 . S
C769 C768 1.387 . S
C769 C771 1.387 . S
H770 C777 0.950 . S
C771 C769 1.387 . S
C771 C773 1.390 . S
C771 H775 0.950 . S
H772 C768 0.950 . S
C773 C771 1.390 . S
C773 C774 1.387 . S
C773 H776 0.950 . S
C774 C773 1.387 . S
C774 C777 1.387 . S
H775 C771 0.950 . S
H776 C773 0.950 . S
C777 C768 1.390 . S
C777 H770 0.950 . S
C777 C774 1.387 . S
C778 C779 1.387 . S
C778 H782 0.950 . S
C778 C787 1.390 1_554 S
C779 C778 1.387 . S
C779 C781 1.387 . S
H780 C787 0.950 . S
C781 C779 1.387 . S
C781 C783 1.390 1_554 S
C781 H785 0.950 . S
H782 C778 0.950 . S
C783 C781 1.390 1_556 S
C783 C784 1.387 . S
C783 H786 0.950 . S
C784 C783 1.387 . S
C784 C787 1.387 . S
H785 C781 0.950 . S
H786 C783 0.950 . S
C787 C778 1.390 1_556 S
C787 H780 0.950 . S
C787 C784 1.387 . S
C788 C789 1.387 . S
C788 H792 0.950 . S
C788 C797 1.390 . S
C789 C788 1.387 . S
C789 C791 1.387 . S
H790 C797 0.950 . S
C791 C789 1.387 . S
C791 C793 1.390 . S
C791 H795 0.950 . S
H792 C788 0.950 . S
C793 C791 1.390 . S
C793 C794 1.387 . S
C793 H796 0.950 . S
C794 C793 1.387 . S
C794 C797 1.387 . S
H795 C791 0.950 . S
H796 C793 0.950 . S
C797 C788 1.390 . S
C797 H790 0.950 . S
C797 C794 1.387 . S
C798 C799 1.387 . S
C798 H802 0.950 . S
C798 C807 1.390 . S
C799 C798 1.387 . S
C799 C801 1.387 . S
H800 C807 0.950 . S
C801 C799 1.387 . S
C801 C803 1.390 . S
C801 H805 0.950 . S
H802 C798 0.950 . S
C803 C801 1.390 . S
C803 C804 1.387 . S
C803 H806 0.950 . S
C804 C803 1.387 . S
C804 C807 1.387 . S
H805 C801 0.950 . S
H806 C803 0.950 . S
C807 C798 1.390 . S
C807 H800 0.950 . S
C807 C804 1.387 . S
C808 C809 1.387 . S
C808 H812 0.950 . S
C808 C817 1.390 . S
C809 C808 1.387 . S
C809 C811 1.387 . S
H810 C817 0.950 . S
C811 C809 1.387 . S
C811 C813 1.390 . S
C811 H815 0.950 . S
H812 C808 0.950 . S
C813 C811 1.390 . S
C813 C814 1.387 . S
C813 H816 0.950 . S
C814 C813 1.387 . S
C814 C817 1.387 . S
H815 C811 0.950 . S
H816 C813 0.950 . S
C817 C808 1.390 . S
C817 H810 0.950 . S
C817 C814 1.387 . S
C818 C819 1.387 . S
C818 H822 0.950 . S
C818 C827 1.390 . S
C819 C818 1.387 . S
C819 C821 1.387 . S
H820 C827 0.950 . S
C821 C819 1.387 . S
C821 C823 1.390 . S
C821 H825 0.950 . S
H822 C818 0.950 . S
C823 C821 1.390 . S
C823 C824 1.387 . S
C823 H826 0.950 . S
C824 C823 1.387 . S
C824 C827 1.387 . S
H825 C821 0.950 . S
H826 C823 0.950 . S
C827 C818 1.390 . S
C827 H820 0.950 . S
C827 C824 1.387 . S
C828 C829 1.387 . S
C828 H832 0.950 . S
C828 C837 1.390 . S
C829 C828 1.387 . S
C829 C831 1.387 . S
H830 C837 0.950 . S
C831 C829 1.387 . S
C831 C833 1.390 . S
C831 H835 0.950 . S
H832 C828 0.950 . S
C833 C831 1.390 . S
C833 C834 1.387 . S
C833 H836 0.950 . S
C834 C833 1.387 . S
C834 C837 1.387 . S
H835 C831 0.950 . S
H836 C833 0.950 . S
C837 C828 1.390 . S
C837 H830 0.950 . S
C837 C834 1.387 . S
C838 C839 1.387 . S
C838 H842 0.950 . S
C838 C847 1.391 1_556 S
C839 C838 1.387 . S
C839 C841 1.387 . S
H840 C847 0.949 . S
C841 C839 1.387 . S
C841 C843 1.390 1_556 S
C841 H845 0.950 . S
H842 C838 0.950 . S
C843 C841 1.390 1_554 S
C843 C844 1.387 . S
C843 H846 0.950 . S
C844 C843 1.387 . S
C844 C847 1.387 . S
H845 C841 0.950 . S
H846 C843 0.950 . S
C847 C838 1.391 1_554 S
C847 H840 0.949 . S
C847 C844 1.387 . S
C848 C849 1.387 . S
C848 H852 0.950 . S
C848 C857 1.390 1_554 S
C849 C848 1.387 . S
C849 C851 1.387 . S
H850 C857 0.950 . S
C851 C849 1.387 . S
C851 C853 1.390 1_554 S
C851 H855 0.950 . S
H852 C848 0.950 . S
C853 C851 1.390 1_556 S
C853 C854 1.387 . S
C853 H856 0.950 . S
C854 C853 1.387 . S
C854 C857 1.387 . S
H855 C851 0.950 . S
H856 C853 0.950 . S
C857 C848 1.390 1_556 S
C857 H850 0.950 . S
C857 C854 1.387 . S
C858 C859 1.387 . S
C858 H862 0.950 . S
C858 C867 1.390 . S
C859 C858 1.387 . S
C859 C861 1.387 . S
H860 C867 0.950 . S
C861 C859 1.387 . S
C861 C863 1.390 . S
C861 H865 0.950 . S
H862 C858 0.950 . S
C863 C861 1.390 . S
C863 C864 1.387 . S
C863 H866 0.950 . S
C864 C863 1.387 . S
C864 C867 1.387 . S
H865 C861 0.950 . S
H866 C863 0.950 . S
C867 C858 1.390 . S
C867 H860 0.950 . S
C867 C864 1.387 . S
C868 C869 1.387 . S
C868 H872 0.950 . S
C868 C877 1.390 . S
C869 C868 1.387 . S
C869 C871 1.387 . S
H870 C877 0.950 . S
C871 C869 1.387 . S
C871 C873 1.390 . S
C871 H875 0.950 . S
H872 C868 0.950 . S
C873 C871 1.390 . S
C873 C874 1.387 . S
C873 H876 0.950 . S
C874 C873 1.387 . S
C874 C877 1.387 . S
H875 C871 0.950 . S
H876 C873 0.950 . S
C877 C868 1.390 . S
C877 H870 0.950 . S
C877 C874 1.387 . S
C878 C879 1.387 . S
C878 H882 0.950 . S
C878 C887 1.390 1_554 S
C879 C878 1.387 . S
C879 C881 1.387 . S
H880 C887 0.950 . S
C881 C879 1.387 . S
C881 C883 1.392 . S
C881 H885 0.950 . S
H882 C878 0.950 . S
C883 C881 1.392 . S
C883 C884 1.387 1_554 S
C883 H886 0.949 1_554 S
C884 C883 1.387 1_556 S
C884 C887 1.387 . S
H885 C881 0.950 . S
H886 C883 0.949 1_556 S
C887 C878 1.390 1_556 S
C887 H880 0.950 . S
C887 C884 1.387 . S
C888 C889 1.387 . S
C888 H892 0.950 . S
C888 C897 1.390 . S
C889 C888 1.387 . S
C889 C891 1.387 . S
H890 C897 0.950 . S
C891 C889 1.387 . S
C891 C893 1.390 . S
C891 H895 0.950 . S
H892 C888 0.950 . S
C893 C891 1.390 . S
C893 C894 1.387 . S
C893 H896 0.950 . S
C894 C893 1.387 . S
C894 C897 1.387 . S
H895 C891 0.950 . S
H896 C893 0.950 . S
C897 C888 1.390 . S
C897 H890 0.950 . S
C897 C894 1.387 . S
C898 C899 1.387 . S
C898 H902 0.950 . S
C898 C907 1.390 . S
C899 C898 1.387 . S
C899 C901 1.387 . S
H900 C907 0.950 . S
C901 C899 1.387 . S
C901 C903 1.390 . S
C901 H905 0.950 . S
H902 C898 0.950 . S
C903 C901 1.390 . S
C903 C904 1.387 . S
C903 H906 0.950 . S
C904 C903 1.387 . S
C904 C907 1.387 . S
H905 C901 0.950 . S
H906 C903 0.950 . S
C907 C898 1.390 . S
C907 H900 0.950 . S
C907 C904 1.387 . S
C908 C909 1.387 . S
C908 H912 0.950 . S
C908 C917 1.390 . S
C909 C908 1.387 . S
C909 C911 1.387 . S
H910 C917 0.950 . S
C911 C909 1.387 . S
C911 C913 1.390 . S
C911 H915 0.950 . S
H912 C908 0.950 . S
C913 C911 1.390 . S
C913 C914 1.387 . S
C913 H916 0.950 . S
C914 C913 1.387 . S
C914 C917 1.387 . S
H915 C911 0.950 . S
H916 C913 0.950 . S
C917 C908 1.390 . S
C917 H910 0.950 . S
C917 C914 1.387 . S
C918 C919 1.387 . S
C918 H922 0.950 . S
C918 C927 1.390 . S
C919 C918 1.387 . S
C919 C921 1.387 . S
H920 C927 0.950 . S
C921 C919 1.387 . S
C921 C923 1.390 . S
C921 H925 0.950 . S
H922 C918 0.950 . S
C923 C921 1.390 . S
C923 C924 1.387 . S
C923 H926 0.950 . S
C924 C923 1.387 . S
C924 C927 1.387 . S
H925 C921 0.950 . S
H926 C923 0.950 . S
C927 C918 1.390 . S
C927 H920 0.950 . S
C927 C924 1.387 . S
C529 C259 1.570 . S
C534 C28 1.573 . S
C539 C61 1.570 . S
C544 C160 1.574 . S
C549 C94 1.615 . S
C554 C193 1.619 . S
C559 C226 1.615 . S
C564 C127 1.620 . S
C569 C380 1.612 . S
C574 C149 1.614 1_655 S
C579 C281 1.611 . S
C584 C17 1.615 1_655 S
C589 C215 1.643 . S
C594 C347 1.650 . S
C599 C83 1.643 . S
C604 C314 1.649 . S
C609 C325 1.620 . S
C614 C424 1.614 . S
C619 C490 1.615 . S
C624 C358 1.619 . S
C629 C457 1.573 . S
C634 C292 1.572 . S
C639 C391 1.570 . S
C644 C523 1.574 . S
C649 C116 1.649 . S
C654 C479 1.643 . S
C659 C182 1.648 . S
C664 C413 1.645 . S
C669 C50 1.611 . S
C674 C512 1.615 . S
C679 C248 1.611 . S
C684 C446 1.615 . S
C689 C8 1.554 . S
C694 C140 1.554 . S
C699 C173 1.545 . S
C704 C41 1.541 . S
C709 C206 1.747 . S
C714 C74 1.747 . S
C719 C107 1.545 . S
C724 C239 1.541 . S
C729 C338 1.545 . S
C734 C272 1.541 . S
C739 C305 1.545 . S
C744 C371 1.541 . S
C749 C404 1.751 . S
C754 C470 1.751 . S
C759 C503 1.554 . S
C764 C437 1.554 . S
C769 N14 1.173 . S
C774 N5 1.171 . S
C779 N47 1.160 . S
C784 N38 1.158 . S
C789 N71 1.218 . S
C794 N80 1.221 . S
C799 N104 1.175 . S
C804 N113 1.177 . S
C809 N137 1.172 . S
C814 N146 1.174 . S
C819 N170 1.175 . S
C824 N179 1.177 . S
C829 N212 1.220 . S
C834 N203 1.217 . S
C839 N245 1.160 . S
C844 N236 1.158 . S
C849 N269 1.157 . S
C854 N278 1.159 . S
C859 N302 1.174 . S
C864 N311 1.176 . S
C869 N344 1.177 . S
C874 N335 1.175 . S
C879 N377 1.159 . S
C884 N368 1.157 . S
C889 N410 1.220 . S
C894 N401 1.217 . S
C899 N443 1.174 . S
C904 N434 1.172 . S
C909 N476 1.220 . S
C914 N467 1.217 . S
C919 N500 1.172 . S
C924 N509 1.174 . S
