# Generated by pormake.
# Topology ung, (4)-cn, num edge types: 1
# Building blocks:
#     Node 0, Type 0, BuildingBlock: ICAMEG_clean_sbu_1, # of connection points: 4
#     Node 1, Type 0, BuildingBlock: ICAMEG_clean_sbu_1, # of connection points: 4
#     Node 2, Type 0, BuildingBlock: ICAMEG_clean_sbu_1, # of connection points: 4
#     Node 3, Type 0, BuildingBlock: ICAMEG_clean_sbu_1, # of connection points: 4
#     Node 4, Type 0, BuildingBlock: ICAMEG_clean_sbu_1, # of connection points: 4
#     Node 5, Type 0, BuildingBlock: ICAMEG_clean_sbu_1, # of connection points: 4
#     Node 6, Type 0, BuildingBlock: ICAMEG_clean_sbu_1, # of connection points: 4
#     Node 7, Type 0, BuildingBlock: ICAMEG_clean_sbu_1, # of connection points: 4
#     Node 8, Type 0, BuildingBlock: ICAMEG_clean_sbu_1, # of connection points: 4
#     Node 9, Type 0, BuildingBlock: ICAMEG_clean_sbu_1, # of connection points: 4
#     Node 10, Type 0, BuildingBlock: ICAMEG_clean_sbu_1, # of connection points: 4
#     Node 11, Type 0, BuildingBlock: ICAMEG_clean_sbu_1, # of connection points: 4
#     Node 12, Type 0, BuildingBlock: ICAMEG_clean_sbu_1, # of connection points: 4
#     Node 13, Type 0, BuildingBlock: ICAMEG_clean_sbu_1, # of connection points: 4
#     Node 14, Type 0, BuildingBlock: ICAMEG_clean_sbu_1, # of connection points: 4
#     Node 15, Type 0, BuildingBlock: ICAMEG_clean_sbu_1, # of connection points: 4
#     Node 16, Type 0, BuildingBlock: ICAMEG_clean_sbu_1, # of connection points: 4
#     Node 17, Type 0, BuildingBlock: ICAMEG_clean_sbu_1, # of connection points: 4
#     Edge 18, Type (0, 0), BuildingBlock: TEMPAE_clean_linker_10, # of connection points: 2
#     Edge 19, Type (0, 0), BuildingBlock: TEMPAE_clean_linker_10, # of connection points: 2
#     Edge 20, Type (0, 0), BuildingBlock: TEMPAE_clean_linker_10, # of connection points: 2
#     Edge 21, Type (0, 0), BuildingBlock: TEMPAE_clean_linker_10, # of connection points: 2
#     Edge 22, Type (0, 0), BuildingBlock: TEMPAE_clean_linker_10, # of connection points: 2
#     Edge 23, Type (0, 0), BuildingBlock: TEMPAE_clean_linker_10, # of connection points: 2
#     Edge 24, Type (0, 0), BuildingBlock: TEMPAE_clean_linker_10, # of connection points: 2
#     Edge 25, Type (0, 0), BuildingBlock: TEMPAE_clean_linker_10, # of connection points: 2
#     Edge 26, Type (0, 0), BuildingBlock: TEMPAE_clean_linker_10, # of connection points: 2
#     Edge 27, Type (0, 0), BuildingBlock: TEMPAE_clean_linker_10, # of connection points: 2
#     Edge 28, Type (0, 0), BuildingBlock: TEMPAE_clean_linker_10, # of connection points: 2
#     Edge 29, Type (0, 0), BuildingBlock: TEMPAE_clean_linker_10, # of connection points: 2
#     Edge 30, Type (0, 0), BuildingBlock: TEMPAE_clean_linker_10, # of connection points: 2
#     Edge 31, Type (0, 0), BuildingBlock: TEMPAE_clean_linker_10, # of connection points: 2
#     Edge 32, Type (0, 0), BuildingBlock: TEMPAE_clean_linker_10, # of connection points: 2
#     Edge 33, Type (0, 0), BuildingBlock: TEMPAE_clean_linker_10, # of connection points: 2
#     Edge 34, Type (0, 0), BuildingBlock: TEMPAE_clean_linker_10, # of connection points: 2
#     Edge 35, Type (0, 0), BuildingBlock: TEMPAE_clean_linker_10, # of connection points: 2
#     Edge 36, Type (0, 0), BuildingBlock: TEMPAE_clean_linker_10, # of connection points: 2
#     Edge 37, Type (0, 0), BuildingBlock: TEMPAE_clean_linker_10, # of connection points: 2
#     Edge 38, Type (0, 0), BuildingBlock: TEMPAE_clean_linker_10, # of connection points: 2
#     Edge 39, Type (0, 0), BuildingBlock: TEMPAE_clean_linker_10, # of connection points: 2
#     Edge 40, Type (0, 0), BuildingBlock: TEMPAE_clean_linker_10, # of connection points: 2
#     Edge 41, Type (0, 0), BuildingBlock: TEMPAE_clean_linker_10, # of connection points: 2
#     Edge 42, Type (0, 0), BuildingBlock: TEMPAE_clean_linker_10, # of connection points: 2
#     Edge 43, Type (0, 0), BuildingBlock: TEMPAE_clean_linker_10, # of connection points: 2
#     Edge 44, Type (0, 0), BuildingBlock: TEMPAE_clean_linker_10, # of connection points: 2
#     Edge 45, Type (0, 0), BuildingBlock: TEMPAE_clean_linker_10, # of connection points: 2
#     Edge 46, Type (0, 0), BuildingBlock: TEMPAE_clean_linker_10, # of connection points: 2
#     Edge 47, Type (0, 0), BuildingBlock: TEMPAE_clean_linker_10, # of connection points: 2
#     Edge 48, Type (0, 0), BuildingBlock: TEMPAE_clean_linker_10, # of connection points: 2
#     Edge 49, Type (0, 0), BuildingBlock: TEMPAE_clean_linker_10, # of connection points: 2
#     Edge 50, Type (0, 0), BuildingBlock: TEMPAE_clean_linker_10, # of connection points: 2
#     Edge 51, Type (0, 0), BuildingBlock: TEMPAE_clean_linker_10, # of connection points: 2
#     Edge 52, Type (0, 0), BuildingBlock: TEMPAE_clean_linker_10, # of connection points: 2
#     Edge 53, Type (0, 0), BuildingBlock: TEMPAE_clean_linker_10, # of connection points: 2
# Relax obj value: 0.020
# Max RMSD: 0.108
# Mean RMSD: 0.108
data_MOF--net-ung--node1-ICAMEG_clean_sbu_1--edge1-TEMPAE_clean_linker_10
_symmetry_space_group_name_H-M    P1
_symmetry_Int_Tables_number       1
_symmetry_cell_setting            triclinic
loop_
_symmetry_equiv_pos_as_xyz
'x, y, z'
_cell_length_a     77.393524
_cell_length_b     77.500439
_cell_length_c     24.878722
_cell_angle_alpha  90.037541
_cell_angle_beta   90.049776
_cell_angle_gamma 120.01792
loop_
_atom_site_label
_atom_site_type_symbol
_atom_site_fract_x
_atom_site_fract_y
_atom_site_fract_z
_atom_type_partial_charge
Co0 Co 0.08294 0.6455 0.21243 0.0
Co1 Co 0.04225 0.62652 0.29721 0.0
O2 O 0.06203 0.62407 0.25456 0.0
C3 C 0.06214 0.61348 0.13173 0.0
O4 O 0.04562 0.61355 0.14302 0.0
C5 C 0.06202 0.61254 0.37202 0.0
O6 O 0.07892 0.62626 0.35113 0.0
O7 O 0.06319 0.65165 0.33093 0.0
O8 O 0.08781 0.6655 0.26985 0.0
H9 H 0.00899 0.66235 0.37502 0.0
H10 H 0.08461 0.60865 0.23342 0.0
O11 O 0.07849 0.62562 0.15479 0.0
H12 H 0.14687 0.66334 0.30957 0.0
H13 H 0.14203 0.67492 0.08772 0.0
H14 H 0.09438 0.68734 0.18806 0.0
H15 H 0.1226 0.67034 0.26481 0.0
H16 H 0.1158 0.64848 0.14343 0.0
O17 O 0.04554 0.61073 0.35617 0.0
H18 H 0.03375 0.65909 0.3202 0.0
H19 H 0.00861 0.59857 0.36732 0.0
H20 H 0.12047 0.71423 0.13317 0.0
H21 H 0.10861 0.60101 0.27705 0.0
H22 H 0.14453 0.7081 0.08251 0.0
H23 H 0.13996 0.62846 0.31578 0.0
O24 O 0.06326 0.65152 0.17817 0.0
H25 H 0.01249 0.55585 0.23263 0.0
H26 H 0.00286 0.61397 0.24587 0.0
H27 H 0.97723 0.58338 0.20113 0.0
H28 H 0.98196 0.55402 0.19436 0.0
H29 H 0.03779 0.58679 0.27672 0.0
H30 H 0.98367 0.60122 0.42301 0.0
H31 H 0.98372 0.63327 0.42692 0.0
O32 O 0.0387 0.64227 0.23903 0.0
C33 C 0.07974 0.666 0.31412 0.0
C34 C 0.00877 0.64829 0.3735 0.0
C35 C 0.99458 0.61398 0.40049 0.0
N36 N 0.02251 0.62862 0.34025 0.0
C37 C 0.02272 0.64633 0.34241 0.0
C38 C 0.00876 0.61258 0.36899 0.0
C39 C 0.99461 0.63197 0.40265 0.0
C40 C 0.09835 0.62071 0.24946 0.0
N41 N 0.10225 0.63994 0.24622 0.0
C42 C 0.11184 0.61628 0.27439 0.0
C43 C 0.1294 0.63168 0.29622 0.0
C44 C 0.13327 0.65125 0.2928 0.0
C45 C 0.11944 0.65512 0.26756 0.0
C46 C 0.13166 0.67778 0.10969 0.0
C47 C 0.10488 0.68459 0.1664 0.0
C48 C 0.11676 0.66286 0.1412 0.0
N49 N 0.10368 0.66642 0.16928 0.0
C50 C 0.11958 0.69986 0.13526 0.0
C51 C 0.13306 0.6964 0.1068 0.0
C52 C 0.04714 0.65047 0.19474 0.0
C53 C 0.01023 0.56852 0.23548 0.0
C54 C 0.00504 0.60128 0.24299 0.0
C55 C 0.99046 0.58398 0.21771 0.0
C56 C 0.99312 0.56751 0.21394 0.0
N57 N 0.02176 0.60213 0.26412 0.0
C58 C 0.02447 0.58606 0.26056 0.0
Co59 Co 0.50253 0.48286 0.28953 0.0
Co60 Co 0.48136 0.5029 0.20717 0.0
O61 O 0.50358 0.50453 0.24776 0.0
C62 C 0.51573 0.51522 0.36969 0.0
O63 O 0.49933 0.5157 0.35936 0.0
C64 C 0.5129 0.51533 0.12482 0.0
O65 O 0.51355 0.49909 0.13573 0.0
O66 O 0.47606 0.47752 0.17223 0.0
O67 O 0.48611 0.46298 0.2333 0.0
H68 H 0.41177 0.46917 0.1318 0.0
H69 H 0.54137 0.51876 0.26428 0.0
O70 O 0.51922 0.50269 0.34609 0.0
H71 H 0.54539 0.46226 0.18714 0.0
H72 H 0.53175 0.45195 0.41056 0.0
H73 H 0.47124 0.44153 0.31591 0.0
H74 H 0.51527 0.45662 0.23586 0.0
H75 H 0.53243 0.47876 0.35549 0.0
O76 O 0.50053 0.51896 0.14881 0.0
H77 H 0.43973 0.47125 0.18462 0.0
H78 H 0.47633 0.53188 0.13985 0.0
H79 H 0.46992 0.41428 0.37018 0.0
H80 H 0.57183 0.52507 0.21624 0.0
H81 H 0.50034 0.41941 0.41798 0.0
H82 H 0.57396 0.49669 0.17715 0.0
O83 O 0.47752 0.4779 0.32606 0.0
H84 H 0.5242 0.57295 0.27478 0.0
H85 H 0.45557 0.5161 0.26137 0.0
H86 H 0.46162 0.54669 0.30818 0.0
H87 H 0.49615 0.57541 0.31504 0.0
H88 H 0.51749 0.54202 0.22871 0.0
H89 H 0.4488 0.53042 0.08618 0.0
H90 H 0.41621 0.49891 0.0821 0.0
O91 O 0.46216 0.48713 0.26528 0.0
C92 C 0.47745 0.46271 0.18936 0.0
C93 C 0.42587 0.483 0.1334 0.0
C94 C 0.44667 0.51737 0.10773 0.0
N95 N 0.45958 0.50171 0.16562 0.0
C96 C 0.44174 0.48428 0.16336 0.0
C97 C 0.46221 0.5181 0.13807 0.0
C98 C 0.42838 0.49969 0.10548 0.0
C99 C 0.54225 0.50632 0.24783 0.0
N100 N 0.5266 0.48733 0.2532 0.0
C101 C 0.55951 0.50999 0.22048 0.0
C102 C 0.56068 0.49406 0.19849 0.0
C103 C 0.54466 0.47474 0.20406 0.0
C104 C 0.52762 0.47164 0.23161 0.0
C105 C 0.51841 0.44952 0.38985 0.0
C106 C 0.48457 0.44384 0.33634 0.0
C107 C 0.5187 0.46466 0.35872 0.0
N108 N 0.50193 0.46165 0.33223 0.0
C109 C 0.48372 0.42837 0.36713 0.0
C110 C 0.50078 0.43126 0.39398 0.0
C111 C 0.46247 0.47906 0.30971 0.0
C112 C 0.50908 0.56056 0.2719 0.0
C113 C 0.47063 0.52851 0.26425 0.0
C114 C 0.47396 0.54582 0.29073 0.0
C115 C 0.49334 0.56192 0.29454 0.0
N116 N 0.48613 0.52731 0.24201 0.0
C117 C 0.50517 0.54304 0.24566 0.0
Co118 Co 0.62764 0.04434 0.20599 0.0
Co119 Co 0.64725 0.08369 0.29602 0.0
O120 O 0.62557 0.06373 0.25175 0.0
C121 C 0.6141 0.06562 0.13494 0.0
O122 O 0.62746 0.08211 0.15848 0.0
C123 C 0.6135 0.06141 0.36999 0.0
O124 O 0.61063 0.0451 0.34601 0.0
O125 O 0.65302 0.06331 0.32585 0.0
O126 O 0.64301 0.03943 0.26268 0.0
H127 H 0.7164 0.11907 0.37429 0.0
H128 H 0.58792 0.04012 0.22594 0.0
O129 O 0.61231 0.04894 0.14818 0.0
H130 H 0.58318 0.97826 0.29489 0.0
H131 H 0.60164 0.98782 0.07294 0.0
H132 H 0.65978 0.03547 0.18003 0.0
H133 H 0.61428 0.00422 0.25314 0.0
H134 H 0.5994 0.01211 0.13241 0.0
O135 O 0.62788 0.07833 0.35591 0.0
H136 H 0.6891 0.09423 0.31754 0.0
H137 H 0.65091 0.11538 0.37101 0.0
H138 H 0.66263 0.01134 0.1214 0.0
H139 H 0.55647 0.01447 0.26694 0.0
H140 H 0.63342 0.98729 0.06733 0.0
H141 H 0.55399 0.9833 0.30196 0.0
O142 O 0.65304 0.06542 0.17429 0.0
H143 H 0.60289 0.11083 0.24185 0.0
H144 H 0.67218 0.12411 0.24834 0.0
H145 H 0.6652 0.14917 0.2088 0.0
H146 H 0.63033 0.1426 0.20542 0.0
H147 H 0.61051 0.0861 0.28054 0.0
H148 H 0.67775 0.14035 0.42868 0.0
H149 H 0.7108 0.14235 0.4304 0.0
O150 O 0.667 0.08941 0.23716 0.0
C151 C 0.65156 0.04729 0.3072 0.0
C152 C 0.70209 0.11839 0.37374 0.0
C153 C 0.68038 0.13032 0.40433 0.0
N154 N 0.6685 0.10348 0.34063 0.0
C155 C 0.68659 0.10441 0.34156 0.0
C156 C 0.66524 0.11613 0.37168 0.0
C157 C 0.69893 0.13143 0.40526 0.0
C158 C 0.58688 0.0265 0.24049 0.0
N159 N 0.60289 0.02364 0.23691 0.0
C160 C 0.56906 0.01206 0.2639 0.0
C161 C 0.56769 0.9946 0.28364 0.0
C162 C 0.58407 0.99177 0.27974 0.0
C163 C 0.60166 0.00655 0.25617 0.0
C164 C 0.61446 0.99819 0.09639 0.0
C165 C 0.64696 0.02496 0.15689 0.0
C166 C 0.61329 0.012 0.13005 0.0
N167 N 0.6294 0.02508 0.15996 0.0
C168 C 0.64869 0.01137 0.12365 0.0
C169 C 0.6323 0.9979 0.09327 0.0
C170 C 0.66744 0.08175 0.19209 0.0
C171 C 0.61815 0.1139 0.24327 0.0
C172 C 0.65697 0.12112 0.24688 0.0
C173 C 0.65311 0.13539 0.22457 0.0
C174 C 0.63355 0.1317 0.22274 0.0
N175 N 0.64178 0.10369 0.26691 0.0
C176 C 0.62257 0.09999 0.26537 0.0
Co177 Co 0.04327 0.48032 0.79731 0.0
Co178 Co 0.08375 0.50211 0.71185 0.0
O179 O 0.06287 0.50256 0.75442 0.0
C180 C 0.06297 0.51413 0.87198 0.0
O181 O 0.07989 0.51742 0.85091 0.0
C182 C 0.06261 0.51311 0.63167 0.0
O183 O 0.04619 0.49646 0.64321 0.0
O184 O 0.06411 0.47635 0.67783 0.0
O185 O 0.03975 0.46102 0.73922 0.0
H186 H 0.12147 0.4712 0.63165 0.0
H187 H 0.03852 0.51543 0.77698 0.0
O188 O 0.04653 0.49939 0.85625 0.0
H189 H 0.97799 0.45803 0.70217 0.0
H190 H 0.98494 0.44692 0.92387 0.0
H191 H 0.03508 0.43937 0.82031 0.0
H192 H 0.00382 0.45328 0.74655 0.0
H193 H 0.00968 0.47451 0.86791 0.0
O194 O 0.07904 0.51743 0.65441 0.0
H195 H 0.0954 0.47188 0.68701 0.0
H196 H 0.11636 0.53204 0.64245 0.0
H197 H 0.01053 0.41135 0.87539 0.0
H198 H 0.01301 0.52085 0.73326 0.0
H199 H 0.98523 0.41503 0.92768 0.0
H200 H 0.9825 0.49202 0.69537 0.0
O201 O 0.06438 0.4763 0.83062 0.0
H202 H 0.1092 0.57223 0.77659 0.0
H203 H 0.12352 0.5171 0.76371 0.0
H204 H 0.14775 0.54842 0.80833 0.0
H205 H 0.14068 0.57628 0.81487 0.0
H206 H 0.08524 0.54054 0.73305 0.0
H207 H 0.14258 0.53197 0.58627 0.0
H208 H 0.1453 0.50141 0.58079 0.0
O209 O 0.08883 0.48706 0.769 0.0
C210 C 0.04812 0.46124 0.69482 0.0
C211 C 0.12048 0.48463 0.63385 0.0
C212 C 0.13231 0.51873 0.60832 0.0
N213 N 0.10447 0.50203 0.66829 0.0
C214 C 0.10579 0.48512 0.66526 0.0
C215 C 0.11741 0.51866 0.6401 0.0
C216 C 0.13383 0.50158 0.60528 0.0
C217 C 0.02521 0.50279 0.76099 0.0
N218 N 0.02261 0.48404 0.76456 0.0
C219 C 0.01085 0.50596 0.73611 0.0
C220 C 0.99375 0.48978 0.7148 0.0
C221 C 0.99121 0.47071 0.71858 0.0
C222 C 0.0059 0.46811 0.74366 0.0
C223 C 0.99587 0.44512 0.90119 0.0
C224 C 0.02403 0.44104 0.84268 0.0
C225 C 0.00993 0.4607 0.86954 0.0
N226 N 0.0237 0.45849 0.84059 0.0
C227 C 0.01021 0.42514 0.87392 0.0
C228 C 0.99603 0.42723 0.90329 0.0
C229 C 0.08088 0.47848 0.81334 0.0
C230 C 0.1125 0.56023 0.77377 0.0
C231 C 0.12029 0.52911 0.76657 0.0
C232 C 0.1341 0.54684 0.79175 0.0
C233 C 0.13013 0.56248 0.79535 0.0
N234 N 0.10303 0.52702 0.74548 0.0
C235 C 0.09904 0.54229 0.74889 0.0
Co236 Co 0.62736 0.64859 0.70365 0.0
Co237 Co 0.64694 0.62875 0.79342 0.0
O238 O 0.62553 0.62684 0.7476 0.0
C239 C 0.61592 0.61497 0.62924 0.0
O240 O 0.62937 0.61208 0.65321 0.0
C241 C 0.61205 0.61526 0.86436 0.0
O242 O 0.60891 0.62861 0.84094 0.0
O243 O 0.6513 0.65412 0.8255 0.0
O244 O 0.64132 0.66819 0.76291 0.0
H245 H 0.71495 0.66342 0.87861 0.0
H246 H 0.58811 0.61193 0.71839 0.0
O247 O 0.61339 0.62934 0.64343 0.0
H248 H 0.57976 0.66654 0.79089 0.0
H249 H 0.60143 0.67935 0.57128 0.0
H250 H 0.65875 0.69038 0.68302 0.0
H251 H 0.61186 0.67348 0.75162 0.0
H252 H 0.59944 0.65243 0.62852 0.0
O253 O 0.62696 0.61346 0.85102 0.0
H254 H 0.688 0.66073 0.81991 0.0
H255 H 0.65079 0.60041 0.86662 0.0
H256 H 0.66134 0.71776 0.6267 0.0
H257 H 0.5557 0.60434 0.75684 0.0
H258 H 0.63254 0.71232 0.5703 0.0
H259 H 0.5514 0.63175 0.79364 0.0
O260 O 0.65357 0.65434 0.67402 0.0
H261 H 0.60542 0.55778 0.73146 0.0
H262 H 0.67364 0.61526 0.74627 0.0
H263 H 0.66839 0.58418 0.70413 0.0
H264 H 0.63407 0.55516 0.69656 0.0
H265 H 0.61132 0.58921 0.77284 0.0
H266 H 0.67728 0.60248 0.92617 0.0
H267 H 0.70966 0.63415 0.93227 0.0
O268 O 0.66731 0.64409 0.73693 0.0
C269 C 0.64935 0.66852 0.80804 0.0
C270 C 0.70093 0.64952 0.87615 0.0
C271 C 0.67978 0.61533 0.9029 0.0
N272 N 0.66792 0.63038 0.83951 0.0
C273 C 0.68565 0.64789 0.84286 0.0
C274 C 0.66483 0.61425 0.8692 0.0
C275 C 0.69795 0.63309 0.90629 0.0
C276 C 0.58629 0.62397 0.73373 0.0
N277 N 0.60184 0.64314 0.73254 0.0
C278 C 0.56793 0.61957 0.75568 0.0
C279 C 0.56553 0.63495 0.77643 0.0
C280 C 0.58145 0.65447 0.77495 0.0
C281 C 0.5996 0.65831 0.75278 0.0
C282 C 0.61407 0.68192 0.59576 0.0
C283 C 0.64611 0.68795 0.65886 0.0
C284 C 0.61304 0.66672 0.62817 0.0
N285 N 0.62891 0.6699 0.65938 0.0
C286 C 0.64769 0.70349 0.62693 0.0
C287 C 0.63152 0.70042 0.59525 0.0
C288 C 0.66807 0.65273 0.69258 0.0
C289 C 0.62045 0.5703 0.73472 0.0
C290 C 0.65866 0.60272 0.743 0.0
C291 C 0.65579 0.58514 0.71922 0.0
C292 C 0.63653 0.56885 0.71504 0.0
N293 N 0.64281 0.60403 0.76219 0.0
C294 C 0.62389 0.58811 0.75833 0.0
Co295 Co 0.50278 0.08537 0.79121 0.0
Co296 Co 0.48177 0.04395 0.70948 0.0
O297 O 0.50377 0.06438 0.75106 0.0
C298 C 0.51458 0.06581 0.87385 0.0
O299 O 0.49814 0.0491 0.86272 0.0
C300 C 0.51413 0.0625 0.62922 0.0
O301 O 0.51502 0.07954 0.63958 0.0
O302 O 0.47729 0.06426 0.67269 0.0
O303 O 0.48734 0.08918 0.73276 0.0
H304 H 0.41294 0.00899 0.62914 0.0
H305 H 0.54143 0.08725 0.77022 0.0
O306 O 0.51854 0.0819 0.84989 0.0
H307 H 0.5479 0.14834 0.68981 0.0
H308 H 0.53172 0.14573 0.91147 0.0
H309 H 0.47187 0.0964 0.81304 0.0
H310 H 0.517 0.12444 0.73658 0.0
H311 H 0.53238 0.11917 0.85836 0.0
O312 O 0.50138 0.0466 0.65286 0.0
H313 H 0.4406 0.03468 0.68321 0.0
H314 H 0.47678 0.00957 0.64386 0.0
H315 H 0.47059 0.1228 0.86529 0.0
H316 H 0.57266 0.11082 0.7242 0.0
H317 H 0.50068 0.1477 0.91498 0.0
H318 H 0.57602 0.14161 0.68347 0.0
O319 O 0.47718 0.06579 0.8262 0.0
H320 H 0.52297 0.01576 0.78308 0.0
H321 H 0.45495 0.00525 0.76357 0.0
H322 H 0.46002 0.98048 0.81259 0.0
H323 H 0.49423 0.98565 0.82253 0.0
H324 H 0.51725 0.04023 0.73475 0.0
H325 H 0.44955 0.98368 0.58901 0.0
H326 H 0.41733 0.98325 0.58157 0.0
O327 O 0.4621 0.041 0.76581 0.0
C328 C 0.47903 0.08075 0.68853 0.0
C329 C 0.42688 0.00898 0.63221 0.0
C330 C 0.44745 0.9948 0.60962 0.0
N331 N 0.46022 0.02352 0.667 0.0
C332 C 0.44258 0.02345 0.66289 0.0
C333 C 0.46282 0.00951 0.64063 0.0
C334 C 0.42937 0.99456 0.60549 0.0
C335 C 0.54284 0.1007 0.75304 0.0
N336 N 0.52745 0.10452 0.7564 0.0
C337 C 0.56054 0.11396 0.72685 0.0
C338 C 0.5624 0.13121 0.70394 0.0
C339 C 0.54663 0.13499 0.70745 0.0
C340 C 0.52915 0.12138 0.7339 0.0
C341 C 0.51853 0.13499 0.88991 0.0
C342 C 0.48506 0.10725 0.83429 0.0
C343 C 0.5188 0.11989 0.85989 0.0
N344 N 0.50223 0.10635 0.83233 0.0
C345 C 0.48423 0.12213 0.86393 0.0
C346 C 0.50111 0.13609 0.89185 0.0
C347 C 0.46212 0.04966 0.80951 0.0
C348 C 0.50798 0.01331 0.77887 0.0
C349 C 0.46988 0.00762 0.7678 0.0
C350 C 0.47266 0.99352 0.79551 0.0
C351 C 0.49186 0.99643 0.80106 0.0
N352 N 0.48577 0.02411 0.74603 0.0
C353 C 0.50464 0.02707 0.75136 0.0
Co354 Co 0.71018 0.95997 0.62646 0.0
Co355 Co 0.752 0.98041 0.54628 0.0
O356 O 0.73115 0.95863 0.58722 0.0
C357 C 0.72923 0.94804 0.71026 0.0
O358 O 0.74608 0.96436 0.69952 0.0
C359 C 0.73314 0.94819 0.46568 0.0
O360 O 0.71622 0.94764 0.47564 0.0
O361 O 0.73214 0.98545 0.50881 0.0
O362 O 0.70679 0.97546 0.56743 0.0
H363 H 0.78852 0.04923 0.46723 0.0
H364 H 0.70791 0.92114 0.60617 0.0
O365 O 0.71324 0.94417 0.68566 0.0
H366 H 0.64723 0.91527 0.52364 0.0
H367 H 0.64938 0.93186 0.74484 0.0
H368 H 0.69954 0.99122 0.647 0.0
H369 H 0.67126 0.94607 0.57073 0.0
H370 H 0.67598 0.93077 0.69294 0.0
O371 O 0.74911 0.96073 0.48962 0.0
H372 H 0.76225 0.02181 0.52038 0.0
H373 H 0.78635 0.98471 0.48174 0.0
H374 H 0.67312 0.99292 0.69803 0.0
H375 H 0.6842 0.89001 0.55986 0.0
H376 H 0.6478 0.96308 0.74741 0.0
H377 H 0.65363 0.88694 0.51806 0.0
O378 O 0.72989 0.98551 0.66171 0.0
H379 H 0.77863 0.93802 0.62095 0.0
H380 H 0.79076 0.00652 0.60156 0.0
H381 H 0.81496 0.00076 0.65144 0.0
H382 H 0.80897 0.9663 0.66132 0.0
H383 H 0.75475 0.94445 0.57176 0.0
H384 H 0.81281 0.01168 0.4278 0.0
H385 H 0.81405 0.04425 0.42048 0.0
O386 O 0.75519 1.00011 0.60269 0.0
C387 C 0.71559 0.98383 0.52368 0.0
C388 C 0.78818 0.03513 0.47025 0.0
C389 C 0.8018 0.01405 0.44806 0.0
N390 N 0.77287 0.00175 0.50446 0.0
C391 C 0.77338 0.01957 0.5004 0.0
C392 C 0.78676 0.99882 0.47854 0.0
C393 C 0.80249 0.03232 0.44399 0.0
C394 C 0.69455 0.91986 0.58852 0.0
N395 N 0.69092 0.93538 0.59145 0.0
C396 C 0.68122 0.90222 0.56217 0.0
C397 C 0.66408 0.90052 0.53865 0.0
C398 C 0.66049 0.91641 0.54175 0.0
C399 C 0.67417 0.93384 0.56837 0.0
C400 C 0.66031 0.94495 0.72341 0.0
C401 C 0.6885 0.97814 0.66813 0.0
C402 C 0.67542 0.94443 0.69408 0.0
N403 N 0.6892 0.96087 0.66668 0.0
C404 C 0.67361 0.97921 0.69707 0.0
C405 C 0.65942 0.96247 0.72482 0.0
C406 C 0.74635 1.0003 0.64581 0.0
C407 C 0.78144 0.95311 0.61676 0.0
C408 C 0.78803 0.99149 0.60574 0.0
C409 C 0.80181 0.98832 0.63396 0.0
C410 C 0.79844 0.96898 0.63947 0.0
N411 N 0.77141 0.97586 0.58347 0.0
C412 C 0.76801 0.95685 0.58876 0.0
Co413 Co 0.16927 0.81493 0.62927 0.0
Co414 Co 0.14965 0.83494 0.54014 0.0
O415 O 0.1713 0.83651 0.58421 0.0
C416 C 0.18242 0.84942 0.70144 0.0
O417 O 0.16902 0.85252 0.67801 0.0
C418 C 0.18336 0.84632 0.4661 0.0
O419 O 0.18614 0.8328 0.48988 0.0
O420 O 0.14377 0.8088 0.50985 0.0
O421 O 0.15417 0.79488 0.57181 0.0
H422 H 0.08046 0.80159 0.46222 0.0
H423 H 0.20888 0.85066 0.61041 0.0
O424 O 0.18435 0.83464 0.68773 0.0
H425 H 0.21433 0.79409 0.53994 0.0
H426 H 0.19522 0.7841 0.76136 0.0
H427 H 0.13724 0.77376 0.65375 0.0
H428 H 0.18305 0.78857 0.58151 0.0
H429 H 0.19743 0.81082 0.70283 0.0
O430 O 0.16903 0.84894 0.48029 0.0
H431 H 0.10774 0.80384 0.51866 0.0
H432 H 0.14611 0.86314 0.46562 0.0
H433 H 0.13442 0.74658 0.71141 0.0
H434 H 0.24051 0.85683 0.56963 0.0
H435 H 0.16356 0.75168 0.76573 0.0
H436 H 0.24335 0.82843 0.53384 0.0
O437 O 0.14372 0.81035 0.66084 0.0
H438 H 0.19429 0.90627 0.59531 0.0
H439 H 0.12488 0.85058 0.58826 0.0
H440 H 0.13201 0.88259 0.62838 0.0
H441 H 0.16694 0.91072 0.63206 0.0
H442 H 0.1865 0.87394 0.55601 0.0
H443 H 0.1193 0.86148 0.40827 0.0
H444 H 0.08617 0.83056 0.4065 0.0
O445 O 0.12992 0.82095 0.59906 0.0
C446 C 0.14551 0.79429 0.52757 0.0
C447 C 0.09481 0.81517 0.46279 0.0
C448 C 0.11662 0.84877 0.43246 0.0
N449 N 0.12843 0.83365 0.49576 0.0
C450 C 0.11029 0.81655 0.49479 0.0
C451 C 0.13175 0.84961 0.46492 0.0
C452 C 0.09803 0.83142 0.43149 0.0
C453 C 0.21008 0.83819 0.59551 0.0
N454 N 0.19416 0.81926 0.59856 0.0
C455 C 0.22799 0.84179 0.57224 0.0
C456 C 0.22956 0.82585 0.55206 0.0
C457 C 0.21328 0.80658 0.55543 0.0
C458 C 0.19559 0.80355 0.57888 0.0
C459 C 0.18243 0.78169 0.73779 0.0
C460 C 0.15002 0.77603 0.677 0.0
C461 C 0.18359 0.79677 0.70466 0.0
N462 N 0.16753 0.79378 0.6746 0.0
C463 C 0.14832 0.76062 0.7097 0.0
C464 C 0.16467 0.7635 0.74021 0.0
C465 C 0.12942 0.81259 0.64369 0.0
C466 C 0.179 0.89415 0.59376 0.0
C467 C 0.14011 0.86273 0.58983 0.0
C468 C 0.14406 0.88084 0.61247 0.0
C469 C 0.16366 0.89662 0.61447 0.0
N470 N 0.15525 0.86041 0.56963 0.0
C471 C 0.17449 0.87584 0.57133 0.0
Co472 Co 0.31403 0.41776 0.62549 0.0
Co473 Co 0.29467 0.37722 0.54002 0.0
O474 O 0.29247 0.39706 0.583 0.0
C475 C 0.28204 0.39713 0.70627 0.0
O476 O 0.28211 0.38061 0.69512 0.0
C477 C 0.28094 0.39726 0.46544 0.0
O478 O 0.29469 0.41409 0.48667 0.0
O479 O 0.31998 0.39798 0.50673 0.0
O480 O 0.33399 0.42248 0.56821 0.0
H481 H 0.3299 0.34338 0.46189 0.0
H482 H 0.27732 0.41982 0.6046 0.0
O483 O 0.29417 0.41341 0.68309 0.0
H484 H 0.3324 0.48183 0.52926 0.0
H485 H 0.3439 0.47664 0.75106 0.0
H486 H 0.35586 0.42887 0.64987 0.0
H487 H 0.33915 0.45736 0.57365 0.0
H488 H 0.31729 0.4506 0.69508 0.0
O489 O 0.27902 0.38075 0.48111 0.0
H490 H 0.32697 0.36827 0.51696 0.0
H491 H 0.26644 0.34383 0.46943 0.0
H492 H 0.38293 0.45477 0.70502 0.0
H493 H 0.26993 0.44402 0.56131 0.0
H494 H 0.37703 0.47889 0.7561 0.0
H495 H 0.29758 0.47524 0.523 0.0
O496 O 0.3199 0.39794 0.65928 0.0
H497 H 0.22399 0.34818 0.60422 0.0
H498 H 0.28165 0.33772 0.59074 0.0
H499 H 0.25089 0.31233 0.63516 0.0
H500 H 0.22176 0.31748 0.64205 0.0
H501 H 0.2551 0.37324 0.56045 0.0
H502 H 0.26875 0.31876 0.41348 0.0
H503 H 0.30064 0.31839 0.40965 0.0
O504 O 0.31031 0.37343 0.59801 0.0
C505 C 0.33447 0.41437 0.524 0.0
C506 C 0.3159 0.34335 0.46337 0.0
C507 C 0.28159 0.32955 0.43614 0.0
N508 N 0.29652 0.3574 0.49672 0.0
C509 C 0.31414 0.35737 0.49461 0.0
C510 C 0.28039 0.3438 0.46779 0.0
C511 C 0.29949 0.32935 0.43402 0.0
C512 C 0.28947 0.4335 0.58876 0.0
N513 N 0.30866 0.43723 0.59203 0.0
C514 C 0.28518 0.4471 0.56401 0.0
C515 C 0.30069 0.46459 0.54242 0.0
C516 C 0.32023 0.46829 0.54586 0.0
C517 C 0.32396 0.45435 0.57091 0.0
C518 C 0.34667 0.46624 0.72891 0.0
C519 C 0.35322 0.43939 0.67173 0.0
C520 C 0.33165 0.45144 0.69725 0.0
N521 N 0.33508 0.43833 0.66894 0.0
C522 C 0.36858 0.45398 0.70301 0.0
C523 C 0.36525 0.4675 0.7317 0.0
C524 C 0.31872 0.38182 0.64222 0.0
C525 C 0.23655 0.34574 0.60132 0.0
C526 C 0.26906 0.34008 0.59368 0.0
C527 C 0.25166 0.32564 0.61878 0.0
C528 C 0.23532 0.32853 0.62261 0.0
N529 N 0.27014 0.3569 0.5728 0.0
C530 C 0.25418 0.35985 0.57642 0.0
Co531 Co 0.71077 0.8151 0.13116 0.0
Co532 Co 0.75046 0.83515 0.04229 0.0
O533 O 0.73089 0.83694 0.08791 0.0
C534 C 0.73316 0.84831 0.2066 0.0
O535 O 0.74947 0.85109 0.18271 0.0
C536 C 0.72909 0.84864 0.97132 0.0
O537 O 0.71258 0.83519 0.99448 0.0
O538 O 0.7295 0.8098 0.00978 0.0
O539 O 0.70501 0.79574 0.07123 0.0
H540 H 0.78406 0.8008 0.95734 0.0
H541 H 0.70869 0.85205 0.11762 0.0
O542 O 0.71618 0.83412 0.19201 0.0
H543 H 0.64547 0.79816 0.04349 0.0
H544 H 0.65378 0.78416 0.26257 0.0
H545 H 0.69985 0.77309 0.15028 0.0
H546 H 0.67032 0.79072 0.08254 0.0
H547 H 0.67903 0.81123 0.20629 0.0
O548 O 0.74582 0.8505 0.98478 0.0
H549 H 0.75966 0.8033 0.01574 0.0
H550 H 0.78277 0.86367 0.96962 0.0
H551 H 0.67473 0.74556 0.20562 0.0
H552 H 0.68417 0.86012 0.07942 0.0
H553 H 0.65148 0.75101 0.26228 0.0
H554 H 0.65233 0.83308 0.04179 0.0
O555 O 0.731 0.80896 0.16052 0.0
H556 H 0.77977 0.90597 0.1053 0.0
H557 H 0.79063 0.84865 0.08994 0.0
H558 H 0.81639 0.87966 0.13272 0.0
H559 H 0.81104 0.9086 0.14058 0.0
H560 H 0.75432 0.87461 0.06329 0.0
H561 H 0.80732 0.86178 0.91039 0.0
H562 H 0.80812 0.83019 0.90415 0.0
O563 O 0.7554 0.81974 0.09872 0.0
C564 C 0.71293 0.79546 0.02647 0.0
C565 C 0.78391 0.81467 0.95987 0.0
C566 C 0.79695 0.84889 0.93346 0.0
N567 N 0.76991 0.83365 0.99641 0.0
C568 C 0.77017 0.81619 0.99299 0.0
C569 C 0.78299 0.84985 0.96698 0.0
C570 C 0.79739 0.83116 0.92999 0.0
C571 C 0.69477 0.84016 0.10192 0.0
N572 N 0.69091 0.82092 0.10253 0.0
C573 C 0.68098 0.84484 0.08011 0.0
C574 C 0.66313 0.82966 0.0589 0.0
C575 C 0.65928 0.81007 0.0598 0.0
C576 C 0.67343 0.80595 0.08184 0.0
C577 C 0.6638 0.78158 0.23796 0.0
C578 C 0.68969 0.77553 0.17457 0.0
C579 C 0.67815 0.79687 0.2061 0.0
N580 N 0.69078 0.79368 0.17473 0.0
C581 C 0.67554 0.75991 0.20594 0.0
C582 C 0.66251 0.76299 0.23777 0.0
C583 C 0.74726 0.81077 0.1425 0.0
C584 C 0.78231 0.89348 0.10192 0.0
C585 C 0.78817 0.86116 0.09333 0.0
C586 C 0.80283 0.8787 0.11747 0.0
C587 C 0.79983 0.89494 0.12181 0.0
N588 N 0.77102 0.85984 0.07394 0.0
C589 C 0.76799 0.87572 0.07795 0.0
Co590 Co 0.31518 0.96012 0.12639 0.0
Co591 Co 0.2938 0.98034 0.04539 0.0
O592 O 0.29304 0.95845 0.08533 0.0
C593 C 0.28304 0.94644 0.20723 0.0
O594 O 0.28212 0.96256 0.19686 0.0
C595 C 0.28199 0.94902 0.96258 0.0
O596 O 0.29854 0.94888 0.97313 0.0
O597 O 0.31938 0.98647 0.00992 0.0
O598 O 0.33465 0.97676 0.06965 0.0
H599 H 0.32546 0.04987 0.9713 0.0
H600 H 0.27967 0.92088 0.10178 0.0
O601 O 0.29574 0.94324 0.18339 0.0
H602 H 0.33674 0.91831 0.02261 0.0
H603 H 0.34785 0.93231 0.24593 0.0
H604 H 0.35641 0.99206 0.15175 0.0
H605 H 0.34189 0.9482 0.07161 0.0
H606 H 0.32042 0.93086 0.1918 0.0
O607 O 0.27798 0.96106 0.98689 0.0
H608 H 0.32449 0.02231 0.02331 0.0
H609 H 0.26392 0.98431 0.97895 0.0
H610 H 0.38427 0.99414 0.20509 0.0
H611 H 0.27386 0.89064 0.05348 0.0
H612 H 0.38008 0.9641 0.25264 0.0
H613 H 0.30252 0.88924 0.01337 0.0
O614 O 0.31973 0.98494 0.16319 0.0
H615 H 0.22418 0.93569 0.11371 0.0
H616 H 0.27949 0.00506 0.10051 0.0
H617 H 0.24866 0.99793 0.14801 0.0
H618 H 0.22071 0.96302 0.15477 0.0
H619 H 0.25533 0.94347 0.06697 0.0
H620 H 0.26428 0.01142 0.9261 0.0
H621 H 0.2952 0.0445 0.92223 0.0
O622 O 0.3093 0.99964 0.10369 0.0
C623 C 0.33449 0.98541 0.02614 0.0
C624 C 0.31188 0.03554 0.97282 0.0
C625 C 0.27755 0.01395 0.94738 0.0
N626 N 0.29412 0.00178 0.00447 0.0
C627 C 0.31122 0.0199 0.00232 0.0
C628 C 0.27745 0.99865 0.97726 0.0
C629 C 0.2949 0.03251 0.94525 0.0
C630 C 0.29225 0.92032 0.08488 0.0
N631 N 0.31112 0.93624 0.08984 0.0
C632 C 0.28885 0.90318 0.05739 0.0
C633 C 0.30493 0.90242 0.03483 0.0
C634 C 0.32413 0.91873 0.03998 0.0
C635 C 0.32696 0.93563 0.06769 0.0
C636 C 0.34987 0.94548 0.22532 0.0
C637 C 0.35452 0.9789 0.17207 0.0
C638 C 0.33438 0.94477 0.19472 0.0
N639 N 0.33688 0.96132 0.16835 0.0
C640 C 0.37032 0.98018 0.20233 0.0
C641 C 0.36795 0.96333 0.22905 0.0
C642 C 0.31781 0.99961 0.14762 0.0
C643 C 0.23622 0.95096 0.11089 0.0
C644 C 0.26741 0.98984 0.10336 0.0
C645 C 0.24998 0.98589 0.13022 0.0
C646 C 0.2343 0.9663 0.13398 0.0
N647 N 0.26917 0.97472 0.0807 0.0
C648 C 0.25387 0.95547 0.08428 0.0
Co649 Co 0.16938 0.41753 0.12539 0.0
Co650 Co 0.14821 0.37715 0.03943 0.0
O651 O 0.17028 0.39694 0.08265 0.0
C652 C 0.18087 0.39681 0.20549 0.0
O653 O 0.16439 0.38024 0.19362 0.0
C654 C 0.18208 0.3973 0.96512 0.0
O655 O 0.18511 0.41409 0.9863 0.0
O656 O 0.14377 0.39797 0.00621 0.0
O657 O 0.15414 0.4223 0.06813 0.0
H658 H 0.07916 0.34348 0.96058 0.0
H659 H 0.20821 0.41976 0.10448 0.0
O660 O 0.18491 0.41316 0.18292 0.0
H661 H 0.21505 0.48179 0.02984 0.0
H662 H 0.1983 0.47622 0.25161 0.0
H663 H 0.13856 0.42842 0.15003 0.0
H664 H 0.18382 0.4572 0.07406 0.0
H665 H 0.19894 0.45033 0.19529 0.0
O666 O 0.16746 0.38076 0.98067 0.0
H667 H 0.10699 0.36827 0.01603 0.0
H668 H 0.14303 0.34386 0.96855 0.0
H669 H 0.13731 0.45415 0.20552 0.0
H670 H 0.2398 0.44407 0.06133 0.0
H671 H 0.16734 0.47829 0.2568 0.0
H672 H 0.24333 0.47531 0.02338 0.0
O673 O 0.1437 0.39757 0.15907 0.0
H674 H 0.18974 0.34799 0.10361 0.0
H675 H 0.12161 0.33757 0.08967 0.0
H676 H 0.12689 0.31211 0.1339 0.0
H677 H 0.16117 0.31724 0.14104 0.0
H678 H 0.18378 0.37312 0.06003 0.0
H679 H 0.11565 0.31889 0.91222 0.0
H680 H 0.08341 0.31855 0.90817 0.0
O681 O 0.12873 0.37324 0.09736 0.0
C682 C 0.14568 0.41434 0.02362 0.0
C683 C 0.09311 0.34343 0.96215 0.0
C684 C 0.1136 0.32964 0.93495 0.0
N685 N 0.12654 0.3574 0.99583 0.0
C686 C 0.1089 0.35739 0.9936 0.0
C687 C 0.12907 0.34384 0.96681 0.0
C688 C 0.09551 0.32946 0.93271 0.0
C689 C 0.20973 0.43344 0.08877 0.0
N690 N 0.19422 0.43711 0.09213 0.0
C691 C 0.22762 0.44711 0.06411 0.0
C692 C 0.22957 0.46461 0.04272 0.0
C693 C 0.2137 0.46824 0.04628 0.0
C694 C 0.19603 0.45424 0.07122 0.0
C695 C 0.18514 0.46581 0.22938 0.0
C696 C 0.15172 0.43894 0.17197 0.0
C697 C 0.1854 0.4511 0.19752 0.0
N698 N 0.16885 0.43798 0.16909 0.0
C699 C 0.15091 0.45345 0.20345 0.0
C700 C 0.16776 0.46697 0.23225 0.0
C701 C 0.12876 0.38146 0.14189 0.0
C702 C 0.17473 0.34556 0.10061 0.0
C703 C 0.13656 0.33992 0.0927 0.0
C704 C 0.13946 0.32544 0.1177 0.0
C705 C 0.1587 0.32832 0.12167 0.0
N706 N 0.15236 0.35677 0.07205 0.0
C707 C 0.17125 0.3597 0.07581 0.0
Co708 Co 0.41819 0.31367 0.87905 0.0
Co709 Co 0.37683 0.29355 0.96082 0.0
O710 O 0.3974 0.29192 0.92025 0.0
C711 C 0.39895 0.28158 0.79809 0.0
O712 O 0.38212 0.28117 0.80839 0.0
C713 C 0.39564 0.28065 0.04286 0.0
O714 O 0.41261 0.29688 0.03237 0.0
O715 O 0.397 0.31874 0.99646 0.0
O716 O 0.42168 0.33341 0.93571 0.0
H717 H 0.34129 0.32737 0.03709 0.0
H718 H 0.42083 0.27757 0.90347 0.0
O719 O 0.41499 0.29398 0.82203 0.0
H720 H 0.48145 0.33365 0.98226 0.0
H721 H 0.47855 0.3447 0.7589 0.0
H722 H 0.42854 0.35513 0.85356 0.0
H723 H 0.45714 0.33959 0.93356 0.0
H724 H 0.45223 0.3178 0.81336 0.0
O725 O 0.37969 0.27718 0.01875 0.0
H726 H 0.36714 0.3253 0.98423 0.0
H727 H 0.34256 0.26445 0.02727 0.0
H728 H 0.45467 0.38248 0.79991 0.0
H729 H 0.44481 0.27097 0.95148 0.0
H730 H 0.47992 0.37734 0.7521 0.0
H731 H 0.47536 0.29913 0.99139 0.0
O732 O 0.39829 0.31887 0.84256 0.0
H733 H 0.34912 0.22369 0.89136 0.0
H734 H 0.33798 0.28084 0.90606 0.0
H735 H 0.31331 0.2505 0.85839 0.0
H736 H 0.31879 0.22163 0.85089 0.0
H737 H 0.37348 0.25437 0.93829 0.0
H738 H 0.31652 0.26589 0.08095 0.0
H739 H 0.31574 0.29751 0.08593 0.0
O740 O 0.37366 0.30965 0.90316 0.0
C741 C 0.41325 0.33357 0.97963 0.0
C742 C 0.34143 0.31349 0.0351 0.0
C743 C 0.32755 0.27899 0.05978 0.0
N744 N 0.35626 0.29473 0.00235 0.0
C745 C 0.356 0.31221 0.00511 0.0
C746 C 0.34235 0.27827 0.02943 0.0
C747 C 0.32712 0.29674 0.06253 0.0
C748 C 0.43418 0.28993 0.92029 0.0
N749 N 0.43764 0.30897 0.91539 0.0
C750 C 0.44766 0.28609 0.94762 0.0
C751 C 0.46479 0.30189 0.97006 0.0
C752 C 0.46821 0.32126 0.96497 0.0
C753 C 0.45438 0.32453 0.93743 0.0
C754 C 0.46765 0.34713 0.77962 0.0
C755 C 0.43955 0.35283 0.83314 0.0
C756 C 0.4527 0.33195 0.81041 0.0
N757 N 0.43897 0.33496 0.83691 0.0
C758 C 0.45427 0.36835 0.8027 0.0
C759 C 0.46842 0.36545 0.77584 0.0
C760 C 0.38215 0.31784 0.85895 0.0
C761 C 0.34653 0.23614 0.89452 0.0
C762 C 0.34048 0.26835 0.9029 0.0
C763 C 0.32645 0.2512 0.87594 0.0
C764 C 0.32953 0.235 0.87176 0.0
N765 N 0.35709 0.26933 0.92527 0.0
C766 C 0.36023 0.25352 0.92125 0.0
Co767 Co 0.83474 0.15064 0.95575 0.0
Co768 Co 0.81332 0.16955 0.86971 0.0
O769 O 0.83558 0.17191 0.91217 0.0
C770 C 0.84698 0.18343 0.03437 0.0
O771 O 0.83054 0.18364 0.02273 0.0
C772 C 0.84671 0.18243 0.79406 0.0
O773 O 0.84968 0.16869 0.81562 0.0
O774 O 0.80836 0.14393 0.83762 0.0
O775 O 0.8189 0.13023 0.89981 0.0
H776 H 0.74375 0.13422 0.79423 0.0
H777 H 0.87369 0.18676 0.93264 0.0
O778 O 0.85079 0.1709 0.0121 0.0
H779 H 0.87917 0.13056 0.85934 0.0
H780 H 0.86401 0.12132 0.08219 0.0
H781 H 0.80377 0.10928 0.98305 0.0
H782 H 0.84835 0.12466 0.90462 0.0
H783 H 0.86457 0.14754 0.02479 0.0
O784 O 0.83226 0.18461 0.80979 0.0
H785 H 0.77181 0.13736 0.84879 0.0
H786 H 0.80801 0.19733 0.7979 0.0
H787 H 0.80259 0.0826 0.03966 0.0
H788 H 0.90489 0.1933 0.88843 0.0
H789 H 0.83287 0.08855 0.08972 0.0
H790 H 0.90773 0.16509 0.85114 0.0
O791 O 0.8094 0.14549 0.99041 0.0
H792 H 0.8558 0.24063 0.92987 0.0
H793 H 0.78735 0.18328 0.92027 0.0
H794 H 0.79323 0.21448 0.9631 0.0
H795 H 0.82767 0.24344 0.96804 0.0
H796 H 0.84926 0.2091 0.88772 0.0
H797 H 0.78038 0.1948 0.74243 0.0
H798 H 0.74795 0.16309 0.74054 0.0
O799 O 0.79415 0.15457 0.92884 0.0
C800 C 0.81013 0.12947 0.85566 0.0
C801 C 0.75779 0.14814 0.79486 0.0
C802 C 0.77836 0.18213 0.76573 0.0
N803 N 0.79146 0.16756 0.82684 0.0
C804 C 0.77371 0.15003 0.8258 0.0
C805 C 0.79396 0.18347 0.79711 0.0
C806 C 0.76016 0.16434 0.7647 0.0
C807 C 0.8749 0.17437 0.91722 0.0
N808 N 0.85925 0.15534 0.92154 0.0
C809 C 0.89258 0.17818 0.89196 0.0
C810 C 0.89415 0.16235 0.87094 0.0
C811 C 0.87811 0.14298 0.87547 0.0
C812 C 0.86067 0.13973 0.90101 0.0
C813 C 0.85073 0.11853 0.06049 0.0
C814 C 0.81704 0.11194 0.00444 0.0
C815 C 0.85095 0.13334 0.02802 0.0
N816 N 0.83426 0.12988 0.00028 0.0
C817 C 0.81627 0.0968 0.03656 0.0
C818 C 0.83326 0.10015 0.06468 0.0
C819 C 0.79443 0.14669 0.97368 0.0
C820 C 0.84072 0.22813 0.92782 0.0
C821 C 0.80237 0.1958 0.92235 0.0
C822 C 0.80561 0.21344 0.94656 0.0
C823 C 0.82493 0.22969 0.94929 0.0
N824 N 0.81793 0.1944 0.90127 0.0
C825 C 0.83692 0.21026 0.90383 0.0
Co826 Co 0.96189 0.71337 0.87522 0.0
Co827 Co 0.98206 0.753 0.96437 0.0
O828 O 0.96026 0.73319 0.92016 0.0
C829 C 0.94932 0.73514 0.80283 0.0
O830 O 0.96284 0.75156 0.82633 0.0
C831 C 0.94815 0.73119 0.03809 0.0
O832 O 0.94521 0.7148 0.01445 0.0
O833 O 0.98739 0.7324 0.99484 0.0
O834 O 0.97671 0.70807 0.9328 0.0
H835 H 0.05116 0.78767 0.04294 0.0
H836 H 0.9226 0.71031 0.89385 0.0
O837 O 0.9471 0.71833 0.81663 0.0
H838 H 0.91588 0.64781 0.96452 0.0
H839 H 0.93511 0.6565 0.74318 0.0
H840 H 0.99341 0.70345 0.85091 0.0
H841 H 0.94739 0.67313 0.92304 0.0
H842 H 0.93339 0.68132 0.80166 0.0
O843 O 0.96268 0.74803 0.02401 0.0
H844 H 0.02371 0.76298 0.98629 0.0
H845 H 0.98616 0.78502 0.03879 0.0
H846 H 0.99574 0.67877 0.7933 0.0
H847 H 0.89076 0.6853 0.93454 0.0
H848 H 0.96644 0.65508 0.73891 0.0
H849 H 0.88728 0.65382 0.97044 0.0
O850 O 0.98761 0.73399 0.84375 0.0
H851 H 0.93863 0.78106 0.90866 0.0
H852 H 0.00753 0.79324 0.91621 0.0
H853 H 0.0011 0.81856 0.87593 0.0
H854 H 0.96644 0.81255 0.87201 0.0
H855 H 0.94571 0.75606 0.94813 0.0
H856 H 0.01316 0.80985 0.09635 0.0
H857 H 0.04596 0.81133 0.0985 0.0
O858 O 0.00177 0.75832 0.90566 0.0
C859 C 0.98539 0.71605 0.97711 0.0
C860 C 0.03696 0.78722 0.0422 0.0
C861 C 0.01562 0.79965 0.07224 0.0
N862 N 0.00343 0.77268 0.00891 0.0
C863 C 0.02138 0.77332 0.01008 0.0
C864 C 1.00038 0.78554 0.03966 0.0
C865 C 0.03402 0.80047 0.07341 0.0
C866 C 0.92113 0.69654 0.90879 0.0
N867 N 0.93681 0.69315 0.90586 0.0
C868 C 0.90309 0.68248 0.93201 0.0
C869 C 0.90116 0.66484 0.95225 0.0
C870 C 0.91721 0.66146 0.949 0.0
C871 C 0.93504 0.67588 0.92559 0.0
C872 C 0.94796 0.66672 0.76678 0.0
C873 C 0.98056 0.69309 0.82763 0.0
C874 C 0.94709 0.68082 0.79988 0.0
N875 N 0.96324 0.6937 0.82998 0.0
C876 C 0.98199 0.6792 0.79496 0.0
C877 C 0.96554 0.66592 0.76441 0.0
C878 C 0.00212 0.75036 0.86101 0.0
C879 C 0.95381 0.78389 0.91033 0.0
C880 C 0.9924 0.79049 0.91454 0.0
C881 C 0.98886 0.80491 0.8918 0.0
C882 C 0.96941 0.80153 0.88967 0.0
N883 N 0.97702 0.77322 0.9347 0.0
C884 C 0.95792 0.76983 0.93286 0.0
Co885 Co 0.37794 0.14818 0.46414 0.0
Co886 Co 0.41716 0.16811 0.37383 0.0
O887 O 0.39743 0.16981 0.41906 0.0
C888 C 0.39959 0.18252 0.53675 0.0
O889 O 0.41604 0.18564 0.51301 0.0
C890 C 0.39509 0.18042 0.30158 0.0
O891 O 0.37872 0.16694 0.32526 0.0
O892 O 0.39647 0.14228 0.34295 0.0
O893 O 0.37276 0.12818 0.40641 0.0
H894 H 0.4517 0.13424 0.29162 0.0
H895 H 0.37412 0.18397 0.44654 0.0
O896 O 0.38281 0.16779 0.523 0.0
H897 H 0.31179 0.12759 0.37614 0.0
H898 H 0.32148 0.11725 0.59712 0.0
H899 H 0.36869 0.10692 0.48785 0.0
H900 H 0.33764 0.12195 0.41671 0.0
H901 H 0.3459 0.14403 0.53853 0.0
O902 O 0.41197 0.18269 0.31522 0.0
H903 H 0.42714 0.13664 0.34955 0.0
H904 H 0.44897 0.19642 0.29965 0.0
H905 H 0.34442 0.0797 0.54556 0.0
H906 H 0.34859 0.19027 0.40676 0.0
H907 H 0.32059 0.08479 0.60072 0.0
H908 H 0.31719 0.16196 0.37101 0.0
O909 O 0.39893 0.14344 0.49478 0.0
H910 H 0.44535 0.23932 0.43211 0.0
H911 H 0.45759 0.18278 0.42115 0.0
H912 H 0.48305 0.21439 0.46202 0.0
H913 H 0.47701 0.24295 0.46766 0.0
H914 H 0.42022 0.20738 0.39202 0.0
H915 H 0.47368 0.19462 0.24084 0.0
H916 H 0.47519 0.16338 0.23673 0.0
O917 O 0.42268 0.15348 0.4313 0.0
C918 C 0.38046 0.12768 0.36148 0.0
C919 C 0.45124 0.14796 0.29321 0.0
C920 C 0.46355 0.18184 0.26465 0.0
N921 N 0.43674 0.1667 0.32831 0.0
C922 C 0.4374 0.14942 0.32606 0.0
C923 C 0.44951 0.18276 0.29794 0.0
C924 C 0.4644 0.16431 0.26238 0.0
C925 C 0.36039 0.17155 0.43167 0.0
N926 N 0.35733 0.15261 0.43418 0.0
C927 C 0.34603 0.17522 0.40895 0.0
C928 C 0.32843 0.15933 0.3888 0.0
C929 C 0.32541 0.14005 0.39161 0.0
C930 C 0.34011 0.13695 0.41451 0.0
C931 C 0.33175 0.11484 0.57318 0.0
C932 C 0.35827 0.1092 0.51147 0.0
C933 C 0.34564 0.12996 0.54002 0.0
N934 N 0.35859 0.12698 0.5095 0.0
C935 C 0.34461 0.09376 0.54419 0.0
C936 C 0.33126 0.09663 0.57517 0.0
C937 C 0.41507 0.14516 0.47615 0.0
C938 C 0.44819 0.22701 0.42969 0.0
C939 C 0.45483 0.19512 0.42357 0.0
C940 C 0.46932 0.213 0.44664 0.0
C941 C 0.46593 0.22902 0.44974 0.0
N942 N 0.43747 0.19326 0.40402 0.0
C943 C 0.43405 0.20891 0.40681 0.0
Co944 Co 0.9609 0.31563 0.37147 0.0
Co945 Co 0.97977 0.29392 0.45659 0.0
O946 O 0.9584 0.29337 0.41391 0.0
C947 C 0.94712 0.28209 0.29601 0.0
O948 O 0.96075 0.27883 0.3172 0.0
C949 C 0.94745 0.28238 0.53647 0.0
O950 O 0.94757 0.29899 0.52534 0.0
O951 O 0.98564 0.3195 0.49116 0.0
O952 O 0.97653 0.33483 0.43 0.0
H953 H 0.04837 0.32519 0.53783 0.0
H954 H 0.9211 0.28024 0.39089 0.0
O955 O 0.94526 0.29669 0.31205 0.0
H956 H 0.91738 0.33707 0.46689 0.0
H957 H 0.93574 0.34897 0.2454 0.0
H958 H 0.99351 0.35678 0.34941 0.0
H959 H 0.94814 0.34225 0.42278 0.0
H960 H 0.93302 0.32134 0.30088 0.0
O961 O 0.95969 0.27827 0.51363 0.0
H962 H 0.02157 0.32438 0.48227 0.0
H963 H 0.98265 0.26398 0.52541 0.0
H964 H 0.99685 0.38485 0.29482 0.0
H965 H 0.89 0.2744 0.43433 0.0
H966 H 0.96782 0.38103 0.2423 0.0
H967 H 0.88801 0.30294 0.47282 0.0
O968 O 0.98616 0.32 0.33837 0.0
H969 H 0.93564 0.22389 0.39026 0.0
H970 H 0.00492 0.27948 0.40454 0.0
H971 H 0.99817 0.24839 0.35929 0.0
H972 H 0.96332 0.2203 0.35205 0.0
H973 H 0.94303 0.25534 0.43444 0.0
H974 H 0.009 0.26418 0.58177 0.0
H975 H 0.04216 0.29493 0.58807 0.0
O976 O 0.99997 0.30931 0.39984 0.0
C977 C 0.98468 0.33458 0.47442 0.0
C978 C 0.03401 0.31168 0.53527 0.0
C979 C 0.0119 0.27745 0.55999 0.0
N980 N 1.00063 0.29411 0.50027 0.0
C981 C 0.01879 0.31112 0.50375 0.0
C982 C 0.99703 0.27744 0.52811 0.0
C983 C 0.03051 0.29471 0.56349 0.0
C984 C 0.9203 0.29276 0.40714 0.0
N985 N 0.93638 0.31158 0.40404 0.0
C986 C 0.90267 0.28935 0.43186 0.0
C987 C 0.90158 0.30536 0.45351 0.0
C988 C 0.91805 0.32452 0.45022 0.0
C989 C 0.93544 0.32736 0.42529 0.0
C990 C 0.94848 0.35083 0.26818 0.0
C991 C 0.98078 0.35506 0.32695 0.0
C992 C 0.94704 0.33523 0.29957 0.0
N993 N 0.96305 0.33751 0.32864 0.0
C994 C 0.98277 0.37098 0.29598 0.0
C995 C 0.96649 0.36882 0.26648 0.0
C996 C 1.00057 0.31798 0.35569 0.0
C997 C 0.9509 0.23599 0.39338 0.0
C998 C 0.98971 0.26736 0.40137 0.0
C999 C 0.98599 0.24977 0.37584 0.0
C1000 C 0.96643 0.234 0.37184 0.0
N1001 N 0.9744 0.2692 0.42243 0.0
C1002 C 0.95519 0.2538 0.41863 0.0
Co1003 Co 0.83651 0.75333 0.45977 0.0
Co1004 Co 0.81617 0.71167 0.37892 0.0
O1005 O 0.83804 0.73263 0.41959 0.0
C1006 C 0.84941 0.73464 0.54207 0.0
O1007 O 0.83318 0.71769 0.53137 0.0
C1008 C 0.84805 0.73085 0.29751 0.0
O1009 O 0.8484 0.74763 0.30779 0.0
O1010 O 0.81067 0.73134 0.34233 0.0
O1011 O 0.82039 0.75639 0.40182 0.0
H1012 H 0.74695 0.67463 0.30142 0.0
H1013 H 0.87566 0.75646 0.4375 0.0
O1014 O 0.85292 0.75056 0.51793 0.0
H1015 H 0.87969 0.81643 0.35662 0.0
H1016 H 0.86446 0.8139 0.57905 0.0
H1017 H 0.80482 0.76316 0.48271 0.0
H1018 H 0.84932 0.79201 0.40451 0.0
H1019 H 0.86578 0.78769 0.52587 0.0
O1020 O 0.83573 0.71484 0.32153 0.0
H1021 H 0.77447 0.70099 0.35438 0.0
H1022 H 0.812 0.67759 0.31339 0.0
H1023 H 0.80288 0.78918 0.53506 0.0
H1024 H 0.90636 0.78057 0.39035 0.0
H1025 H 0.83285 0.81479 0.58369 0.0
H1026 H 0.90849 0.81079 0.34937 0.0
O1027 O 0.81134 0.73331 0.49568 0.0
H1028 H 0.85958 0.68577 0.45086 0.0
H1029 H 0.79061 0.67283 0.43388 0.0
H1030 H 0.79696 0.64884 0.48261 0.0
H1031 H 0.83166 0.65524 0.49127 0.0
H1032 H 0.85257 0.70943 0.40284 0.0
H1033 H 0.78493 0.65105 0.25961 0.0
H1034 H 0.7521 0.64942 0.25356 0.0
O1035 O 0.79658 0.70818 0.43613 0.0
C1036 C 0.81198 0.74766 0.35796 0.0
C1037 C 0.76116 0.67515 0.30388 0.0
C1038 C 0.78249 0.66193 0.28036 0.0
N1039 N 0.79475 0.69072 0.33729 0.0
C1040 C 0.77678 0.69 0.33394 0.0
C1041 C 0.79777 0.67701 0.31076 0.0
C1042 C 0.76407 0.66102 0.277 0.0
C1043 C 0.87653 0.76967 0.42023 0.0
N1044 N 0.86076 0.77289 0.42409 0.0
C1045 C 0.89393 0.78323 0.39339 0.0
C1046 C 0.89511 0.80017 0.37034 0.0
C1047 C 0.87895 0.80334 0.37437 0.0
C1048 C 0.86178 0.78944 0.40146 0.0
C1049 C 0.85131 0.80284 0.55795 0.0
C1050 C 0.81796 0.77433 0.5035 0.0
C1051 C 0.85196 0.78795 0.52789 0.0
N1052 N 0.83543 0.77401 0.50092 0.0
C1053 C 0.81675 0.78899 0.5332 0.0
C1054 C 0.83357 0.80334 0.56053 0.0
C1055 C 0.79655 0.71683 0.47981 0.0
C1056 C 0.84439 0.68278 0.4472 0.0
C1057 C 0.80574 0.67573 0.43755 0.0
C1058 C 0.80925 0.66208 0.46511 0.0
C1059 C 0.82872 0.66567 0.46993 0.0
N1060 N 0.82118 0.69245 0.41524 0.0
C1061 C 0.84031 0.69609 0.41987 0.0
C1062 C 0.04831 0.52182 0.95138 0.0
C1063 C 0.06284 0.52837 0.91101 0.0
C1064 C 0.04791 0.53533 0.9883 0.0
C1065 C 0.06192 0.55593 0.98332 0.0
C1066 C 0.0764 0.56262 0.94194 0.0
C1067 C 0.0769 0.54869 0.90686 0.0
C1068 C 0.03268 0.52755 0.03297 0.0
C1069 C 0.09119 0.58449 0.93425 0.0
C1070 C 0.0491 0.59242 0.04923 0.0
C1071 C 0.06179 0.59863 0.09398 0.0
C1072 C 0.04915 0.57869 0.01239 0.0
C1073 C 0.06163 0.57047 0.02185 0.0
C1074 C 0.07408 0.57636 0.06786 0.0
C1075 C 0.07428 0.59065 0.10283 0.0
C1076 C 0.03616 0.57327 0.96288 0.0
C1077 C 0.0871 0.56746 0.08036 0.0
H1078 H 0.03747 0.50607 0.95462 0.0
H1079 H 0.08798 0.55378 0.87519 0.0
H1080 H 0.04034 0.53216 0.07249 0.0
H1081 H 0.02281 0.53405 0.02974 0.0
H1082 H 0.02328 0.51105 0.03224 0.0
H1083 H 0.10086 0.58729 0.89856 0.0
H1084 H 0.08316 0.59291 0.92946 0.0
H1085 H 0.10085 0.59052 0.9703 0.0
H1086 H 0.03954 0.5987 0.04228 0.0
H1087 H 0.08396 0.59532 0.13776 0.0
H1088 H 0.02538 0.55704 0.96229 0.0
H1089 H 0.04552 0.57677 0.92629 0.0
H1090 H 0.02771 0.58137 0.96078 0.0
H1091 H 0.0779 0.55097 0.08167 0.0
H1092 H 0.09505 0.57282 0.11934 0.0
H1093 H 0.09834 0.57131 0.04815 0.0
C1094 C 0.60399 0.59403 0.94613 0.0
C1095 C 0.59757 0.60132 0.9037 0.0
C1096 C 0.5903 0.58037 0.9831 0.0
C1097 C 0.56965 0.5733 0.97616 0.0
C1098 C 0.5631 0.58049 0.93292 0.0
C1099 C 0.5772 0.5947 0.89772 0.0
C1100 C 0.59794 0.57357 0.02969 0.0
C1101 C 0.54119 0.57286 0.92318 0.0
C1102 C 0.53401 0.52382 0.04241 0.0
C1103 C 0.52721 0.53002 0.08644 0.0
C1104 C 0.54752 0.53773 0.00551 0.0
C1105 C 0.55492 0.55833 0.01407 0.0
C1106 C 0.54832 0.56466 0.05908 0.0
C1107 C 0.53427 0.55039 0.0942 0.0
C1108 C 0.55373 0.53037 0.95711 0.0
C1109 C 0.55634 0.5865 0.07062 0.0
H1110 H 0.61979 0.59924 0.95081 0.0
H1111 H 0.57223 0.60017 0.86447 0.0
H1112 H 0.59254 0.57642 0.06817 0.0
H1113 H 0.59206 0.55729 0.02697 0.0
H1114 H 0.6145 0.58126 0.03083 0.0
H1115 H 0.53856 0.57959 0.88691 0.0
H1116 H 0.5332 0.55643 0.91814 0.0
H1117 H 0.53455 0.57616 0.95839 0.0
H1118 H 0.52845 0.50805 0.03626 0.0
H1119 H 0.52916 0.55521 0.12857 0.0
H1120 H 0.57003 0.53611 0.95828 0.0
H1121 H 0.55054 0.5361 0.91975 0.0
H1122 H 0.5459 0.51384 0.95499 0.0
H1123 H 0.57284 0.59429 0.07405 0.0
H1124 H 0.55016 0.58894 0.1083 0.0
H1125 H 0.55269 0.5935 0.03693 0.0
C1126 C 0.5929 0.05259 0.05287 0.0
C1127 C 0.60009 0.06615 0.0957 0.0
C1128 C 0.57923 0.05266 0.01587 0.0
C1129 C 0.57205 0.06611 0.0232 0.0
C1130 C 0.57911 0.07966 0.06692 0.0
C1131 C 0.59334 0.07975 0.10213 0.0
C1132 C 0.57258 0.03846 0.96878 0.0
C1133 C 0.57137 0.09379 0.07709 0.0
C1134 C 0.54957 0.07923 0.90534 0.0
C1135 C 0.52913 0.06591 0.91236 0.0
C1136 C 0.56372 0.07923 0.94062 0.0
C1137 C 0.55721 0.06605 0.98502 0.0
C1138 C 0.53654 0.0528 0.9928 0.0
C1139 C 0.52275 0.05264 0.95576 0.0
C1140 C 0.58563 0.09313 0.92993 0.0
C1141 C 0.52899 0.03895 0.04054 0.0
H1142 H 0.5982 0.04212 0.04787 0.0
H1143 H 0.59873 0.09006 0.13571 0.0
H1144 H 0.55625 0.02805 0.97083 0.0
H1145 H 0.5756 0.04688 0.93059 0.0
H1146 H 0.58024 0.02958 0.96758 0.0
H1147 H 0.5779 0.10292 0.11388 0.0
H1148 H 0.57482 0.10396 0.04236 0.0
H1149 H 0.55489 0.08526 0.0814 0.0
H1150 H 0.55454 0.08937 0.87144 0.0
H1151 H 0.50693 0.04242 0.96135 0.0
H1152 H 0.59345 0.08446 0.92647 0.0
H1153 H 0.5925 0.10361 0.96405 0.0
H1154 H 0.58822 0.10192 0.89253 0.0
H1155 H 0.53479 0.02845 0.03914 0.0
H1156 H 0.51243 0.03017 0.04198 0.0
H1157 H 0.53453 0.04765 0.07834 0.0
C1158 C 0.6054 0.0742 0.45254 0.0
C1159 C 0.59905 0.06047 0.41012 0.0
C1160 C 0.59167 0.07404 0.48967 0.0
C1161 C 0.57105 0.06033 0.48288 0.0
C1162 C 0.56458 0.04648 0.43986 0.0
C1163 C 0.57872 0.0465 0.40451 0.0
C1164 C 0.59923 0.08859 0.53602 0.0
C1165 C 0.5427 0.03205 0.43024 0.0
C1166 C 0.53545 0.0485 0.60024 0.0
C1167 C 0.52846 0.06182 0.59148 0.0
C1168 C 0.54955 0.04806 0.56566 0.0
C1169 C 0.55624 0.06073 0.52022 0.0
C1170 C 0.54888 0.07393 0.51064 0.0
C1171 C 0.53535 0.07457 0.54701 0.0
C1172 C 0.55753 0.03427 0.57828 0.0
C1173 C 0.55518 0.08723 0.46175 0.0
H1174 H 0.62115 0.08496 0.45692 0.0
H1175 H 0.5738 0.03605 0.37125 0.0
H1176 H 0.5935 0.09911 0.5325 0.0
H1177 H 0.59363 0.0805 0.5746 0.0
H1178 H 0.61579 0.09734 0.53758 0.0
H1179 H 0.54014 0.02239 0.39464 0.0
H1180 H 0.53603 0.02241 0.46595 0.0
H1181 H 0.53467 0.04041 0.42406 0.0
H1182 H 0.53026 0.03876 0.63497 0.0
H1183 H 0.52984 0.08478 0.54009 0.0
H1184 H 0.57402 0.043 0.58208 0.0
H1185 H 0.554 0.02351 0.54494 0.0
H1186 H 0.55122 0.02581 0.61608 0.0
H1187 H 0.57147 0.09783 0.46309 0.0
H1188 H 0.54732 0.09589 0.45875 0.0
H1189 H 0.55211 0.07814 0.42475 0.0
C1190 C 0.04758 0.59024 0.45158 0.0
C1191 C 0.06199 0.5982 0.41095 0.0
C1192 C 0.04737 0.57645 0.48855 0.0
C1193 C 0.06144 0.56994 0.48332 0.0
C1194 C 0.07579 0.57769 0.44162 0.0
C1195 C 0.07612 0.59201 0.40652 0.0
C1196 C 0.03228 0.56905 0.53357 0.0
C1197 C 0.09065 0.57068 0.43362 0.0
C1198 C 0.07444 0.54798 0.6025 0.0
C1199 C 0.06202 0.52748 0.59396 0.0
C1200 C 0.074 0.56195 0.56758 0.0
C1201 C 0.06138 0.55524 0.52191 0.0
C1202 C 0.04897 0.53452 0.51276 0.0
C1203 C 0.04917 0.52086 0.54955 0.0
C1204 C 0.08695 0.58389 0.57976 0.0
C1205 C 0.03581 0.52678 0.46359 0.0
H1206 H 0.03669 0.5951 0.45505 0.0
H1207 H 0.08711 0.59799 0.37464 0.0
H1208 H 0.02248 0.55267 0.53065 0.0
H1209 H 0.04007 0.57225 0.57291 0.0
H1210 H 0.02279 0.57606 0.53298 0.0
H1211 H 0.10017 0.57748 0.39765 0.0
H1212 H 0.10044 0.57446 0.4694 0.0
H1213 H 0.08267 0.55423 0.42911 0.0
H1214 H 0.08425 0.55311 0.63718 0.0
H1215 H 0.03966 0.505 0.54282 0.0
H1216 H 0.07767 0.59111 0.58124 0.0
H1217 H 0.09808 0.59125 0.54732 0.0
H1218 H 0.09502 0.5866 0.61858 0.0
H1219 H 0.02497 0.53217 0.46326 0.0
H1220 H 0.02742 0.51024 0.46173 0.0
H1221 H 0.04503 0.53259 0.42676 0.0
C1222 C 0.59492 0.60684 0.54679 0.0
C1223 C 0.60236 0.60052 0.58912 0.0
C1224 C 0.58132 0.59311 0.50966 0.0
C1225 C 0.57446 0.57253 0.51634 0.0
C1226 C 0.58188 0.56609 0.5593 0.0
C1227 C 0.59603 0.58023 0.59466 0.0
C1228 C 0.57427 0.60062 0.46336 0.0
C1229 C 0.57447 0.54425 0.56879 0.0
C1230 C 0.52462 0.5366 0.45167 0.0
C1231 C 0.53064 0.52976 0.40735 0.0
C1232 C 0.53872 0.55023 0.48812 0.0
C1233 C 0.55932 0.55772 0.47877 0.0
C1234 C 0.56546 0.5511 0.43341 0.0
C1235 C 0.55101 0.53692 0.39876 0.0
C1236 C 0.53156 0.55645 0.5369 0.0
C1237 C 0.58728 0.55922 0.42106 0.0
H1238 H 0.59989 0.62256 0.54249 0.0
H1239 H 0.60161 0.57534 0.62786 0.0
H1240 H 0.57688 0.59512 0.42474 0.0
H1241 H 0.55799 0.59478 0.46668 0.0
H1242 H 0.58198 0.61716 0.46205 0.0
H1243 H 0.58152 0.54171 0.60455 0.0
H1244 H 0.55806 0.53618 0.57461 0.0
H1245 H 0.57757 0.53763 0.53316 0.0
H1246 H 0.50885 0.53094 0.45846 0.0
H1247 H 0.55568 0.53177 0.36415 0.0
H1248 H 0.53723 0.57272 0.53575 0.0
H1249 H 0.53753 0.55337 0.57398 0.0
H1250 H 0.51502 0.54858 0.53957 0.0
H1251 H 0.59497 0.57569 0.41762 0.0
H1252 H 0.58955 0.55303 0.38316 0.0
H1253 H 0.59453 0.55568 0.45437 0.0
C1254 C 0.72029 0.85652 0.28879 0.0
C1255 C 0.73422 0.86275 0.24693 0.0
C1256 C 0.72054 0.87027 0.32597 0.0
C1257 C 0.73457 0.89081 0.31979 0.0
C1258 C 0.74863 0.89715 0.27736 0.0
C1259 C 0.7485 0.88298 0.24196 0.0
C1260 C 0.70574 0.86285 0.37169 0.0
C1261 C 0.76342 0.91895 0.2684 0.0
C1262 C 0.72098 0.92707 0.38324 0.0
C1263 C 0.73359 0.9337 0.42813 0.0
C1264 C 0.72145 0.91341 0.34699 0.0
C1265 C 0.7343 0.90568 0.35713 0.0
C1266 C 0.74681 0.91209 0.40304 0.0
C1267 C 0.74656 0.92631 0.43749 0.0
C1268 C 0.70834 0.90741 0.29759 0.0
C1269 C 0.76021 0.9037 0.41623 0.0
H1270 H 0.70928 0.84084 0.29267 0.0
H1271 H 0.75911 0.88781 0.20913 0.0
H1272 H 0.71369 0.86825 0.41062 0.0
H1273 H 0.69545 0.86884 0.36776 0.0
H1274 H 0.69673 0.84632 0.37285 0.0
H1275 H 0.77321 0.92142 0.23318 0.0
H1276 H 0.75533 0.92724 0.26196 0.0
H1277 H 0.77295 0.9254 0.3045 0.0
H1278 H 0.71104 0.93289 0.37587 0.0
H1279 H 0.75619 0.93131 0.47255 0.0
H1280 H 0.69751 0.89118 0.29848 0.0
H1281 H 0.71758 0.9104 0.26095 0.0
H1282 H 0.69992 0.9155 0.2943 0.0
H1283 H 0.75119 0.88724 0.41958 0.0
H1284 H 0.76852 0.90978 0.45444 0.0
H1285 H 0.77113 0.90712 0.3834 0.0
C1286 C 0.19163 0.86738 0.38391 0.0
C1287 C 0.19787 0.85981 0.42609 0.0
C1288 C 0.20542 0.8809 0.34687 0.0
C1289 C 0.226 0.88755 0.3535 0.0
C1290 C 0.23236 0.87999 0.39628 0.0
C1291 C 0.21815 0.86592 0.43154 0.0
C1292 C 0.19798 0.8881 0.30077 0.0
C1293 C 0.2542 0.88717 0.40574 0.0
C1294 C 0.26157 0.91115 0.23605 0.0
C1295 C 0.26874 0.93147 0.24506 0.0
C1296 C 0.24743 0.89666 0.27059 0.0
C1297 C 0.24089 0.90272 0.31626 0.0
C1298 C 0.24845 0.92328 0.32613 0.0
C1299 C 0.26202 0.93741 0.28978 0.0
C1300 C 0.23923 0.87489 0.25768 0.0
C1301 C 0.24233 0.93035 0.37527 0.0
H1302 H 0.17591 0.86257 0.37964 0.0
H1303 H 0.22299 0.86024 0.46461 0.0
H1304 H 0.20389 0.90437 0.30452 0.0
H1305 H 0.20348 0.88557 0.26206 0.0
H1306 H 0.18143 0.88047 0.29929 0.0
H1307 H 0.25667 0.87995 0.44118 0.0
H1308 H 0.26077 0.88414 0.3699 0.0
H1309 H 0.26239 0.90355 0.41211 0.0
H1310 H 0.26664 0.90655 0.20112 0.0
H1311 H 0.26767 0.95315 0.29688 0.0
H1312 H 0.22274 0.86731 0.25387 0.0
H1313 H 0.24263 0.86751 0.29086 0.0
H1314 H 0.24547 0.87268 0.21979 0.0
H1315 H 0.22607 0.92488 0.37403 0.0
H1316 H 0.25037 0.94686 0.37853 0.0
H1317 H 0.24529 0.92417 0.41209 0.0
C1318 C 0.25893 0.38307 0.38515 0.0
C1319 C 0.26666 0.3973 0.42633 0.0
C1320 C 0.24509 0.38281 0.34817 0.0
C1321 C 0.23828 0.39662 0.35395 0.0
C1322 C 0.24583 0.4108 0.39615 0.0
C1323 C 0.26022 0.4112 0.43126 0.0
C1324 C 0.23792 0.36792 0.30261 0.0
C1325 C 0.23849 0.42535 0.40472 0.0
C1326 C 0.21587 0.40928 0.23515 0.0
C1327 C 0.19539 0.39652 0.24332 0.0
C1328 C 0.22999 0.40911 0.27014 0.0
C1329 C 0.22344 0.3964 0.3155 0.0
C1330 C 0.20273 0.38366 0.32433 0.0
C1331 C 0.18894 0.3836 0.28747 0.0
C1332 C 0.25193 0.42242 0.25831 0.0
C1333 C 0.19515 0.37037 0.37317 0.0
H1334 H 0.26399 0.37236 0.38133 0.0
H1335 H 0.26603 0.42204 0.46359 0.0
H1336 H 0.22155 0.35787 0.3054 0.0
H1337 H 0.24097 0.37583 0.26355 0.0
H1338 H 0.24523 0.35871 0.30268 0.0
H1339 H 0.24523 0.43482 0.44086 0.0
H1340 H 0.24208 0.43519 0.36917 0.0
H1341 H 0.22202 0.41715 0.40925 0.0
H1342 H 0.22087 0.41915 0.20068 0.0
H1343 H 0.17308 0.37383 0.29391 0.0
H1344 H 0.25942 0.4134 0.25635 0.0
H1345 H 0.25913 0.43343 0.29117 0.0
H1346 H 0.25452 0.43062 0.21982 0.0
H1347 H 0.20076 0.35971 0.37306 0.0
H1348 H 0.17859 0.3618 0.37496 0.0
H1349 H 0.20089 0.3795 0.41023 0.0
C1350 C 0.21672 0.41179 0.93006 0.0
C1351 C 0.19646 0.39739 0.92614 0.0
C1352 C 0.23079 0.41148 0.89513 0.0
C1353 C 0.2243 0.39684 0.85415 0.0
C1354 C 0.20377 0.38251 0.84937 0.0
C1355 C 0.19012 0.38274 0.88612 0.0
C1356 C 0.25261 0.42664 0.9026 0.0
C1357 C 0.19619 0.36708 0.80514 0.0
C1358 C 0.25895 0.40903 0.73459 0.0
C1359 C 0.26722 0.39683 0.744 0.0
C1360 C 0.24461 0.40881 0.76945 0.0
C1361 C 0.239 0.39667 0.81593 0.0
C1362 C 0.24755 0.38454 0.82602 0.0
C1363 C 0.2613 0.38447 0.78928 0.0
C1364 C 0.23535 0.42145 0.75627 0.0
C1365 C 0.24244 0.3719 0.87604 0.0
H1366 H 0.22165 0.42298 0.96146 0.0
H1367 H 0.17442 0.37164 0.88304 0.0
H1368 H 0.26132 0.41893 0.90799 0.0
H1369 H 0.25846 0.43608 0.86623 0.0
H1370 H 0.25525 0.43646 0.93787 0.0
H1371 H 0.17969 0.35747 0.80584 0.0
H1372 H 0.20068 0.37454 0.76542 0.0
H1373 H 0.20295 0.35747 0.80897 0.0
H1374 H 0.2634 0.41846 0.69926 0.0
H1375 H 0.26782 0.37514 0.79667 0.0
H1376 H 0.239 0.43276 0.78816 0.0
H1377 H 0.21885 0.412 0.75489 0.0
H1378 H 0.2406 0.42924 0.71713 0.0
H1379 H 0.24577 0.38143 0.91226 0.0
H1380 H 0.25087 0.3638 0.87876 0.0
H1381 H 0.22625 0.36086 0.87675 0.0
C1382 C 0.7145 0.86887 0.93762 0.0
C1383 C 0.72852 0.8626 0.93211 0.0
C1384 C 0.71452 0.88304 0.90244 0.0
C1385 C 0.72845 0.89054 0.85971 0.0
C1386 C 0.74234 0.88385 0.85328 0.0
C1387 C 0.74244 0.87021 0.89021 0.0
C1388 C 0.69989 0.89025 0.91163 0.0
C1389 C 0.757 0.891 0.80724 0.0
C1390 C 0.71588 0.91305 0.74092 0.0
C1391 C 0.7289 0.93347 0.74895 0.0
C1392 C 0.71578 0.8989 0.77624 0.0
C1393 C 0.72852 0.90539 0.82169 0.0
C1394 C 0.74142 0.92604 0.83056 0.0
C1395 C 0.74172 0.93984 0.79346 0.0
C1396 C 0.7023 0.87701 0.7644 0.0
C1397 C 0.75476 0.93356 0.87943 0.0
H1398 H 0.70389 0.86315 0.97046 0.0
H1399 H 0.75323 0.86528 0.88588 0.0
H1400 H 0.70808 0.90669 0.91677 0.0
H1401 H 0.69002 0.8868 0.87612 0.0
H1402 H 0.69044 0.88336 0.94766 0.0
H1403 H 0.76617 0.88364 0.80655 0.0
H1404 H 0.7489 0.88804 0.76845 0.0
H1405 H 0.76714 0.90733 0.81022 0.0
H1406 H 0.70609 0.9081 0.70618 0.0
H1407 H 0.7517 0.95565 0.7998 0.0
H1408 H 0.69156 0.8698 0.79778 0.0
H1409 H 0.71129 0.86951 0.76133 0.0
H1410 H 0.69377 0.87445 0.72645 0.0
H1411 H 0.74571 0.92762 0.91649 0.0
H1412 H 0.76319 0.95009 0.88175 0.0
H1413 H 0.76559 0.92816 0.87873 0.0
C1414 C 0.24693 0.92699 0.93239 0.0
C1415 C 0.26739 0.93451 0.92427 0.0
C1416 C 0.23274 0.91281 0.89723 0.0
C1417 C 0.23922 0.90657 0.85183 0.0
C1418 C 0.25991 0.9144 0.84298 0.0
C1419 C 0.27375 0.92803 0.87992 0.0
C1420 C 0.21083 0.90434 0.90905 0.0
C1421 C 0.26741 0.90855 0.79418 0.0
C1422 C 0.20394 0.85754 0.78285 0.0
C1423 C 0.19634 0.86388 0.74096 0.0
C1424 C 0.2176 0.87124 0.81994 0.0
C1425 C 0.22434 0.89181 0.81368 0.0
C1426 C 0.21684 0.89828 0.77099 0.0
C1427 C 0.20265 0.88417 0.73566 0.0
C1428 C 0.22474 0.86369 0.86593 0.0
C1429 C 0.22409 0.92012 0.762 0.0
H1430 H 0.24199 0.93185 0.96702 0.0
H1431 H 0.28959 0.93395 0.87351 0.0
H1432 H 0.2036 0.90792 0.8758 0.0
H1433 H 0.20333 0.88786 0.91183 0.0
H1434 H 0.20828 0.91022 0.94715 0.0
H1435 H 0.28397 0.91661 0.79206 0.0
H1436 H 0.26191 0.89231 0.79476 0.0
H1437 H 0.26153 0.91173 0.75708 0.0
H1438 H 0.19898 0.84181 0.787 0.0
H1439 H 0.19694 0.88909 0.70282 0.0
H1440 H 0.2218 0.8688 0.90475 0.0
H1441 H 0.2411 0.86989 0.86305 0.0
H1442 H 0.21735 0.84717 0.86648 0.0
H1443 H 0.22065 0.9265 0.79755 0.0
H1444 H 0.2172 0.92271 0.72597 0.0
H1445 H 0.24055 0.92838 0.75698 0.0
C1446 C 0.38634 0.26041 0.71573 0.0
C1447 C 0.39927 0.26715 0.76 0.0
C1448 C 0.38675 0.24687 0.67889 0.0
C1449 C 0.39989 0.23939 0.68775 0.0
C1450 C 0.4127 0.24591 0.73304 0.0
C1451 C 0.41249 0.25998 0.76812 0.0
C1452 C 0.37328 0.24075 0.63021 0.0
C1453 C 0.42645 0.2378 0.74487 0.0
C1454 C 0.38645 0.19046 0.61889 0.0
C1455 C 0.40024 0.19691 0.57663 0.0
C1456 C 0.3865 0.20409 0.65616 0.0
C1457 C 0.40017 0.2247 0.64973 0.0
C1458 C 0.41401 0.23128 0.60675 0.0
C1459 C 0.4141 0.21724 0.57122 0.0
C1460 C 0.37195 0.19642 0.70245 0.0
C1461 C 0.4284 0.25316 0.59753 0.0
H1462 H 0.37621 0.26606 0.70929 0.0
H1463 H 0.42236 0.26506 0.80268 0.0
H1464 H 0.3823 0.24398 0.59303 0.0
H1465 H 0.3627 0.22447 0.63106 0.0
H1466 H 0.36458 0.24858 0.628 0.0
H1467 H 0.43495 0.24388 0.78281 0.0
H1468 H 0.41767 0.22131 0.74796 0.0
H1469 H 0.43721 0.24147 0.71148 0.0
H1470 H 0.37577 0.1747 0.62312 0.0
H1471 H 0.4246 0.22224 0.5381 0.0
H1472 H 0.36154 0.20231 0.69956 0.0
H1473 H 0.38011 0.20177 0.74111 0.0
H1474 H 0.36307 0.17989 0.70334 0.0
H1475 H 0.42001 0.2612 0.59231 0.0
H1476 H 0.4379 0.25582 0.56154 0.0
H1477 H 0.43823 0.25971 0.63306 0.0
C1478 C 0.88142 0.20258 0.75957 0.0
C1479 C 0.86114 0.19656 0.75491 0.0
C1480 C 0.89556 0.2169 0.72468 0.0
C1481 C 0.88913 0.22481 0.68296 0.0
C1482 C 0.86856 0.2184 0.67736 0.0
C1483 C 0.85484 0.20461 0.71412 0.0
C1484 C 0.91739 0.22379 0.73309 0.0
C1485 C 0.86104 0.22596 0.63231 0.0
C1486 C 0.92614 0.27419 0.61841 0.0
C1487 C 0.93247 0.2678 0.57381 0.0
C1488 C 0.91222 0.26036 0.65476 0.0
C1489 C 0.90393 0.23969 0.64497 0.0
C1490 C 0.90995 0.2332 0.59915 0.0
C1491 C 0.92444 0.24735 0.56468 0.0
C1492 C 0.90666 0.26786 0.70411 0.0
C1493 C 0.90099 0.21132 0.58627 0.0
H1494 H 0.88632 0.19653 0.79157 0.0
H1495 H 0.83912 0.19989 0.71049 0.0
H1496 H 0.92351 0.22024 0.69717 0.0
H1497 H 0.92591 0.24022 0.73838 0.0
H1498 H 0.91997 0.21675 0.76875 0.0
H1499 H 0.84451 0.21886 0.63227 0.0
H1500 H 0.86755 0.24232 0.63586 0.0
H1501 H 0.86586 0.22302 0.59301 0.0
H1502 H 0.93245 0.29002 0.6256 0.0
H1503 H 0.92921 0.2424 0.52987 0.0
H1504 H 0.90989 0.26182 0.7408 0.0
H1505 H 0.89043 0.26254 0.70399 0.0
H1506 H 0.9149 0.28439 0.70665 0.0
H1507 H 0.9046 0.2038 0.61865 0.0
H1508 H 0.90652 0.2088 0.54753 0.0
H1509 H 0.88449 0.20411 0.58423 0.0
C1510 C 0.92805 0.72211 0.72089 0.0
C1511 C 0.93556 0.7359 0.76315 0.0
C1512 C 0.91446 0.72228 0.68379 0.0
C1513 C 0.90769 0.73608 0.69043 0.0
C1514 C 0.91514 0.74994 0.73341 0.0
C1515 C 0.92928 0.74991 0.76874 0.0
C1516 C 0.90737 0.70771 0.63749 0.0
C1517 C 0.90783 0.76446 0.74285 0.0
C1518 C 0.88459 0.74834 0.57225 0.0
C1519 C 0.8642 0.73517 0.58046 0.0
C1520 C 0.89893 0.7486 0.60731 0.0
C1521 C 0.89266 0.73588 0.65267 0.0
C1522 C 0.87203 0.72284 0.66173 0.0
C1523 C 0.85804 0.72238 0.62488 0.0
C1524 C 0.92079 0.76222 0.59527 0.0
C1525 C 0.86472 0.7095 0.71052 0.0
H1526 H 0.93299 0.71133 0.71652 0.0
H1527 H 0.93492 0.76042 0.80186 0.0
H1528 H 0.89106 0.69739 0.6406 0.0
H1529 H 0.91012 0.71582 0.59885 0.0
H1530 H 0.91494 0.69874 0.63635 0.0
H1531 H 0.91484 0.77399 0.77875 0.0
H1532 H 0.91107 0.77423 0.7073 0.0
H1533 H 0.8914 0.75621 0.74838 0.0
H1534 H 0.88937 0.7581 0.53756 0.0
H1535 H 0.84225 0.71228 0.63137 0.0
H1536 H 0.92841 0.75336 0.59179 0.0
H1537 H 0.92803 0.77294 0.62873 0.0
H1538 H 0.92318 0.77075 0.55746 0.0
H1539 H 0.87024 0.69878 0.70946 0.0
H1540 H 0.84818 0.70099 0.71308 0.0
H1541 H 0.87073 0.71855 0.74761 0.0
C1542 C 0.86914 0.74333 0.2151 0.0
C1543 C 0.86258 0.73059 0.25963 0.0
C1544 C 0.88284 0.74306 0.1786 0.0
C1545 C 0.89068 0.73027 0.1881 0.0
C1546 C 0.88434 0.71764 0.23366 0.0
C1547 C 0.87008 0.7177 0.26836 0.0
C1548 C 0.88875 0.75629 0.1296 0.0
C1549 C 0.89283 0.70429 0.24619 0.0
C1550 C 0.91337 0.71623 0.07253 0.0
C1551 C 0.93365 0.73039 0.07785 0.0
C1552 C 0.89918 0.71615 0.10779 0.0
C1553 C 0.90555 0.73014 0.15044 0.0
C1554 C 0.92612 0.74411 0.15682 0.0
C1555 C 0.9399 0.74431 0.11979 0.0
C1556 C 0.87734 0.70143 0.0986 0.0
C1557 C 0.93358 0.75883 0.20278 0.0
H1558 H 0.86323 0.75322 0.20821 0.0
H1559 H 0.86515 0.70798 0.30314 0.0
H1560 H 0.905 0.76711 0.13051 0.0
H1561 H 0.8857 0.74717 0.09266 0.0
H1562 H 0.88063 0.76469 0.12685 0.0
H1563 H 0.88685 0.69591 0.28427 0.0
H1564 H 0.88936 0.69345 0.21308 0.0
H1565 H 0.90933 0.71332 0.2494 0.0
H1566 H 0.90851 0.70562 0.03966 0.0
H1567 H 0.95562 0.75522 0.12395 0.0
H1568 H 0.86903 0.70952 0.09289 0.0
H1569 H 0.87093 0.69173 0.13433 0.0
H1570 H 0.87484 0.69183 0.06288 0.0
H1571 H 0.92744 0.769 0.19937 0.0
H1572 H 0.95013 0.76795 0.20376 0.0
H1573 H 0.92833 0.75083 0.24159 0.0
C1574 C 0.40792 0.20154 0.21955 0.0
C1575 C 0.39424 0.19413 0.26202 0.0
C1576 C 0.40776 0.21517 0.18271 0.0
C1577 C 0.39409 0.22209 0.18983 0.0
C1578 C 0.38033 0.21472 0.23299 0.0
C1579 C 0.38034 0.20053 0.26805 0.0
C1580 C 0.42222 0.22216 0.1362 0.0
C1581 C 0.36594 0.22218 0.24293 0.0
C1582 C 0.40804 0.27182 0.12513 0.0
C1583 C 0.39512 0.2658 0.08088 0.0
C1584 C 0.40755 0.25777 0.16164 0.0
C1585 C 0.39434 0.23719 0.15243 0.0
C1586 C 0.38148 0.23105 0.10721 0.0
C1587 C 0.38178 0.24546 0.0725 0.0
C1588 C 0.42105 0.26494 0.21027 0.0
C1589 C 0.36767 0.20926 0.09499 0.0
H1590 H 0.41863 0.1965 0.21484 0.0
H1591 H 0.36992 0.19497 0.30134 0.0
H1592 H 0.414 0.21952 0.09772 0.0
H1593 H 0.43268 0.23842 0.13947 0.0
H1594 H 0.43105 0.21445 0.13463 0.0
H1595 H 0.35645 0.21519 0.27884 0.0
H1596 H 0.37434 0.23858 0.24873 0.0
H1597 H 0.3561 0.21907 0.20751 0.0
H1598 H 0.41827 0.28757 0.13176 0.0
H1599 H 0.37191 0.24078 0.03794 0.0
H1600 H 0.43167 0.25929 0.20882 0.0
H1601 H 0.41207 0.25898 0.24745 0.0
H1602 H 0.42971 0.28146 0.21301 0.0
H1603 H 0.37641 0.20153 0.09113 0.0
H1604 H 0.35905 0.20697 0.05732 0.0
H1605 H 0.357 0.20208 0.12853 0.0
C1606 C 0.92532 0.27467 0.2154 0.0
C1607 C 0.9329 0.26796 0.25644 0.0
C1608 C 0.91154 0.26126 0.17799 0.0
C1609 C 0.90463 0.24062 0.18318 0.0
C1610 C 0.91205 0.23378 0.22519 0.0
C1611 C 0.92639 0.2476 0.26074 0.0
C1612 C 0.90451 0.2692 0.13266 0.0
C1613 C 0.90461 0.21185 0.23315 0.0
C1614 C 0.85522 0.20468 0.11646 0.0
C1615 C 0.86159 0.1982 0.07212 0.0
C1616 C 0.86906 0.2183 0.15341 0.0
C1617 C 0.88975 0.22616 0.1445 0.0
C1618 C 0.89623 0.22001 0.09891 0.0
C1619 C 0.88204 0.20581 0.0638 0.0
C1620 C 0.86156 0.224 0.20248 0.0
C1621 C 0.91814 0.22852 0.08699 0.0
H1622 H 0.93044 0.29046 0.21204 0.0
H1623 H 0.93208 0.24241 0.29294 0.0
H1624 H 0.90752 0.26437 0.09346 0.0
H1625 H 0.88816 0.26302 0.13542 0.0
H1626 H 0.91195 0.28573 0.13307 0.0
H1627 H 0.9113 0.20895 0.2691 0.0
H1628 H 0.88813 0.20365 0.23767 0.0
H1629 H 0.90815 0.20566 0.19735 0.0
H1630 H 0.83938 0.19867 0.12301 0.0
H1631 H 0.88698 0.20093 0.02918 0.0
H1632 H 0.86728 0.24028 0.20274 0.0
H1633 H 0.86722 0.22044 0.23939 0.0
H1634 H 0.845 0.21614 0.20425 0.0
H1635 H 0.92573 0.24503 0.08542 0.0
H1636 H 0.92068 0.22298 0.0483 0.0
H1637 H 0.9253 0.22456 0.11962 0.0
C1638 C 0.08052 0.68702 0.39193 0.0
C1639 C 0.08997 0.68447 0.34694 0.0
C1640 C 0.0897 0.70478 0.42184 0.0
C1641 C 0.10885 0.72033 0.40669 0.0
C1642 C 0.11859 0.71776 0.36188 0.0
C1643 C 0.10902 0.69993 0.33246 0.0
C1644 C 0.07878 0.707 0.46922 0.0
C1645 C 0.13907 0.73396 0.34467 0.0
C1646 C 0.12458 0.77313 0.45081 0.0
C1647 C 0.1366 0.77557 0.49572 0.0
C1648 C 0.11547 0.75524 0.42151 0.0
C1649 C 0.11854 0.73942 0.4372 0.0
C1650 C 0.1308 0.74182 0.48208 0.0
C1651 C 0.13962 0.75981 0.51091 0.0
C1652 C 0.1024 0.7532 0.37404 0.0
C1653 C 0.13454 0.72534 0.4998 0.0
H1654 H 0.06578 0.67525 0.40342 0.0
H1655 H 0.1165 0.69818 0.29783 0.0
H1656 H 0.08792 0.71021 0.5062 0.0
H1657 H 0.07639 0.71981 0.46258 0.0
H1658 H 0.06407 0.69344 0.4761 0.0
H1659 H 0.14484 0.72941 0.3098 0.0
H1660 H 0.13857 0.74757 0.33363 0.0
H1661 H 0.14975 0.73798 0.37852 0.0
H1662 H 0.12204 0.78512 0.4388 0.0
H1663 H 0.14884 0.76148 0.54551 0.0
H1664 H 0.08709 0.74053 0.38055 0.0
H1665 H 0.10826 0.74991 0.33712 0.0
H1666 H 0.1015 0.76689 0.36712 0.0
H1667 H 0.12021 0.71189 0.51046 0.0
H1668 H 0.14471 0.72968 0.53504 0.0
H1669 H 0.14117 0.72113 0.46631 0.0
C1670 C 0.42808 0.47292 0.32858 0.0
C1671 C 0.44414 0.47025 0.3431 0.0
C1672 C 0.4103 0.46412 0.35819 0.0
C1673 C 0.4084 0.45221 0.40331 0.0
C1674 C 0.42454 0.44952 0.41853 0.0
C1675 C 0.44225 0.45863 0.38835 0.0
C1676 C 0.39348 0.46745 0.34088 0.0
C1677 C 0.42301 0.43683 0.46631 0.0
C1678 C 0.36873 0.44322 0.50682 0.0
C1679 C 0.35316 0.42425 0.49212 0.0
C1680 C 0.38678 0.45247 0.47834 0.0
C1681 C 0.38943 0.44247 0.43429 0.0
C1682 C 0.37383 0.42334 0.41918 0.0
C1683 C 0.35586 0.41449 0.44812 0.0
C1684 C 0.40301 0.47296 0.49537 0.0
C1685 C 0.37616 0.41218 0.37256 0.0
H1686 H 0.42929 0.48184 0.29373 0.0
H1687 H 0.45449 0.45637 0.39981 0.0
H1688 H 0.3801 0.45298 0.3307 0.0
H1689 H 0.38928 0.47407 0.3744 0.0
H1690 H 0.39749 0.47744 0.30543 0.0
H1691 H 0.43693 0.4363 0.47301 0.0
H1692 H 0.41969 0.44271 0.50314 0.0
H1693 H 0.4105 0.4214 0.46032 0.0
H1694 H 0.36687 0.45091 0.54076 0.0
H1695 H 0.34403 0.39979 0.43658 0.0
H1696 H 0.40676 0.48359 0.4616 0.0
H1697 H 0.41677 0.47259 0.50571 0.0
H1698 H 0.3986 0.4787 0.5306 0.0
H1699 H 0.37896 0.42091 0.33503 0.0
H1700 H 0.36275 0.39727 0.36659 0.0
H1701 H 0.38925 0.41023 0.3793 0.0
C1702 C 0.71643 0.00488 0.44584 0.0
C1703 C 0.70605 0.99232 0.48907 0.0
C1704 C 0.70779 0.01373 0.41473 0.0
C1705 C 0.68826 0.00978 0.42681 0.0
C1706 C 0.67758 0.99682 0.46966 0.0
C1707 C 0.68662 0.98835 0.50039 0.0
C1708 C 0.7197 0.0276 0.36955 0.0
C1709 C 0.65666 0.9921 0.48355 0.0
C1710 C 0.67216 0.0467 0.3843 0.0
C1711 C 0.66075 0.03755 0.33815 0.0
C1712 C 0.68139 0.03794 0.41309 0.0
C1713 C 0.6791 0.01952 0.39556 0.0
C1714 C 0.66761 0.01019 0.34911 0.0
C1715 C 0.65862 0.01932 0.3209 0.0
C1716 C 0.69359 0.04839 0.46237 0.0
C1717 C 0.66472 0.99048 0.32937 0.0
H1718 H 0.73147 0.00813 0.43688 0.0
H1719 H 0.67842 0.97869 0.53361 0.0
H1720 H 0.71137 0.02228 0.33114 0.0
H1721 H 0.72192 0.04268 0.37732 0.0
H1722 H 0.73454 0.02884 0.36468 0.0
H1723 H 0.65013 0.98117 0.5169 0.0
H1724 H 0.65675 0.00594 0.49546 0.0
H1725 H 0.64682 0.98598 0.44784 0.0
H1726 H 0.67404 0.06083 0.39789 0.0
H1727 H 0.64991 0.01212 0.28525 0.0
H1728 H 0.70899 0.05105 0.45786 0.0
H1729 H 0.68701 0.0388 0.49824 0.0
H1730 H 0.69436 0.06289 0.46983 0.0
H1731 H 0.67941 0.99176 0.32129 0.0
H1732 H 0.65559 0.98531 0.29213 0.0
H1733 H 0.65729 0.97896 0.36089 0.0
C1734 C 0.68853 0.08263 0.11455 0.0
C1735 C 0.68594 0.09206 0.15953 0.0
C1736 C 0.7063 0.09178 0.08484 0.0
C1737 C 0.72184 0.11092 0.10008 0.0
C1738 C 0.71927 0.12065 0.14496 0.0
C1739 C 0.70141 0.11107 0.17429 0.0
C1740 C 0.70854 0.08087 0.03742 0.0
C1741 C 0.73544 0.14114 0.16214 0.0
C1742 C 0.77437 0.12666 0.05287 0.0
C1743 C 0.77621 0.13822 0.00749 0.0
C1744 C 0.75682 0.11782 0.08363 0.0
C1745 C 0.74078 0.12073 0.06898 0.0
C1746 C 0.74265 0.13265 0.02387 0.0
C1747 C 0.76028 0.14116 0.99355 0.0
C1748 C 0.75531 0.10507 0.13128 0.0
C1749 C 0.72593 0.13623 0.00722 0.0
H1750 H 0.67676 0.0679 0.10291 0.0
H1751 H 0.69962 0.11851 0.20894 0.0
H1752 H 0.71137 0.08983 0.00033 0.0
H1753 H 0.72159 0.07881 0.04362 0.0
H1754 H 0.69509 0.06602 0.031 0.0
H1755 H 0.73098 0.14681 0.1974 0.0
H1756 H 0.74921 0.14079 0.17252 0.0
H1757 H 0.73921 0.15181 0.12845 0.0
H1758 H 0.78652 0.1242 0.06392 0.0
H1759 H 0.76149 0.15005 0.95865 0.0
H1760 H 0.7428 0.08965 0.12519 0.0
H1761 H 0.75202 0.11091 0.16824 0.0
H1762 H 0.76924 0.10453 0.13783 0.0
H1763 H 0.71252 0.12187 0.9965 0.0
H1764 H 0.73003 0.14645 0.97227 0.0
H1765 H 0.72176 0.14267 0.04124 0.0
C1766 C 0.00624 0.71552 0.05367 0.0
C1767 C 0.99399 0.70597 0.00908 0.0
C1768 C 0.01496 0.70644 0.08329 0.0
C1769 C 0.01125 0.68725 0.06832 0.0
C1770 C 0.99882 0.67745 0.02365 0.0
C1771 C 0.99042 0.68695 0.99444 0.0
C1772 C 0.02824 0.71742 0.13049 0.0
C1773 C 0.99438 0.65692 0.0067 0.0
C1774 C 0.04762 0.67098 0.11602 0.0
C1775 C 0.03774 0.6594 0.16124 0.0
C1776 C 0.03913 0.68005 0.08526 0.0
C1777 C 0.02025 0.67738 0.09976 0.0
C1778 C 0.01009 0.66551 0.14485 0.0
C1779 C 0.01898 0.65676 0.17514 0.0
C1780 C 0.05049 0.69272 0.03763 0.0
C1781 C 0.98988 0.66219 0.1614 0.0
H1782 H 0.00923 0.73025 0.06523 0.0
H1783 H 0.98102 0.67941 0.96007 0.0
H1784 H 0.02206 0.70862 0.16779 0.0
H1785 H 0.04329 0.71929 0.12442 0.0
H1786 H 0.02985 0.73237 0.13646 0.0
H1787 H 0.98432 0.65128 0.97122 0.0
H1788 H 0.00847 0.65716 0.9968 0.0
H1789 H 0.98731 0.64628 0.04037 0.0
H1790 H 0.06214 0.67322 0.10499 0.0
H1791 H 0.01117 0.64787 0.20994 0.0
H1792 H 0.05349 0.70818 0.04347 0.0
H1793 H 0.04138 0.68687 0.00058 0.0
H1794 H 0.06492 0.69318 0.03139 0.0
H1795 H 0.99099 0.67665 0.1716 0.0
H1796 H 0.9837 0.65211 0.19663 0.0
H1797 H 0.9792 0.65567 0.12748 0.0
C1798 C 0.44146 0.36815 0.9967 0.0
C1799 C 0.4227 0.35226 0.01163 0.0
C1800 C 0.45037 0.38622 0.02502 0.0
C1801 C 0.44027 0.38859 0.06924 0.0
C1802 C 0.42136 0.37267 0.08467 0.0
C1803 C 0.41283 0.35467 0.0558 0.0
C1804 C 0.47063 0.40279 0.00757 0.0
C1805 C 0.41012 0.37469 0.13153 0.0
C1806 C 0.47119 0.42818 0.17271 0.0
C1807 C 0.46823 0.44398 0.15756 0.0
C1808 C 0.46216 0.41011 0.14438 0.0
C1809 C 0.44973 0.40764 0.09992 0.0
C1810 C 0.44663 0.42346 0.08431 0.0
C1811 C 0.45597 0.44147 0.11319 0.0
C1812 C 0.46597 0.39366 0.16203 0.0
C1813 C 0.43338 0.42133 0.03722 0.0
H1814 H 0.44926 0.36654 0.96262 0.0
H1815 H 0.39829 0.34257 0.06751 0.0
H1816 H 0.46976 0.41626 0.99719 0.0
H1817 H 0.48145 0.40691 0.04112 0.0
H1818 H 0.47649 0.39856 0.97224 0.0
H1819 H 0.39542 0.36104 0.13785 0.0
H1820 H 0.41907 0.37786 0.16886 0.0
H1821 H 0.40765 0.38745 0.12481 0.0
H1822 H 0.48058 0.42986 0.20693 0.0
H1823 H 0.45346 0.4535 0.10131 0.0
H1824 H 0.47279 0.38963 0.12864 0.0
H1825 H 0.45166 0.38011 0.17223 0.0
H1826 H 0.47602 0.39795 0.19751 0.0
H1827 H 0.43928 0.41826 3e-05 0.0
H1828 H 0.43223 0.43491 0.03078 0.0
H1829 H 0.41817 0.40848 0.04374 0.0
C1830 C 0.00568 0.35488 0.55232 0.0
C1831 C 0.99375 0.35297 0.50765 0.0
C1832 C 0.01486 0.3725 0.58282 0.0
C1833 C 0.01191 0.38853 0.56863 0.0
C1834 C 0.9998 0.38667 0.52389 0.0
C1835 C 0.99096 0.36898 0.49383 0.0
C1836 C 0.02781 0.37401 0.63007 0.0
C1837 C 0.99614 0.40336 0.50777 0.0
C1838 C 0.01997 0.42679 0.67565 0.0
C1839 C 0.0388 0.44279 0.66181 0.0
C1840 C 0.01106 0.40909 0.64564 0.0
C1841 C 0.02128 0.4072 0.60094 0.0
C1842 C 0.04031 0.42321 0.58677 0.0
C1843 C 0.0488 0.44085 0.6172 0.0
C1844 C 0.99067 0.39242 0.66172 0.0
C1845 C 0.05172 0.42168 0.53957 0.0
H1846 H 0.00807 0.34268 0.56319 0.0
H1847 H 0.98182 0.36774 0.45939 0.0
H1848 H 0.04308 0.38689 0.62466 0.0
H1849 H 0.02172 0.37667 0.66753 0.0
H1850 H 0.02886 0.36033 0.6353 0.0
H1851 H 0.98624 0.3995 0.47207 0.0
H1852 H 0.98922 0.40706 0.54161 0.0
H1853 H 0.01052 0.41698 0.49856 0.0
H1854 H 0.01209 0.42805 0.71004 0.0
H1855 H 0.0634 0.45304 0.60632 0.0
H1856 H 0.99138 0.37879 0.67093 0.0
H1857 H 0.98004 0.38875 0.62787 0.0
H1858 H 0.98467 0.3963 0.69742 0.0
H1859 H 0.05403 0.40876 0.545 0.0
H1860 H 0.0665 0.43533 0.5344 0.0
H1861 H 0.04297 0.41905 0.50208 0.0
C1862 C 0.6896 0.67379 0.61667 0.0
C1863 C 0.68702 0.66181 0.66167 0.0
C1864 C 0.70764 0.68295 0.58805 0.0
C1865 C 0.72347 0.67998 0.60451 0.0
C1866 C 0.72098 0.66786 0.64969 0.0
C1867 C 0.70283 0.65899 0.67783 0.0
C1868 C 0.70976 0.69586 0.54021 0.0
C1869 C 0.73746 0.66421 0.66823 0.0
C1870 C 0.76248 0.68815 0.49974 0.0
C1871 C 0.77819 0.70721 0.51317 0.0
C1872 C 0.74474 0.67903 0.52956 0.0
C1873 C 0.74251 0.68925 0.57374 0.0
C1874 C 0.75831 0.70842 0.58786 0.0
C1875 C 0.77599 0.71714 0.55754 0.0
C1876 C 0.7283 0.65852 0.51342 0.0
C1877 C 0.75642 0.71982 0.63455 0.0
H1878 H 0.67758 0.67621 0.60395 0.0
H1879 H 0.70107 0.64981 0.71256 0.0
H1880 H 0.72266 0.71107 0.54617 0.0
H1881 H 0.71277 0.68967 0.50348 0.0
H1882 H 0.69619 0.697 0.53328 0.0
H1883 H 0.73318 0.65447 0.70426 0.0
H1884 H 0.74147 0.65713 0.63548 0.0
H1885 H 0.75103 0.67859 0.67789 0.0
H1886 H 0.76395 0.68029 0.4656 0.0
H1887 H 0.78796 0.73189 0.56819 0.0
H1888 H 0.71473 0.65911 0.50219 0.0
H1889 H 0.72428 0.64812 0.54786 0.0
H1890 H 0.73261 0.65235 0.47896 0.0
H1891 H 0.74372 0.72238 0.62758 0.0
H1892 H 0.77016 0.73447 0.64073 0.0
H1893 H 0.75321 0.71098 0.67201 0.0
C1894 C 0.44377 0.13924 0.49078 0.0
C1895 C 0.42515 0.13636 0.50722 0.0
C1896 C 0.45309 0.13036 0.51859 0.0
C1897 C 0.44353 0.11818 0.56371 0.0
C1898 C 0.42476 0.1152 0.58056 0.0
C1899 C 0.41584 0.12437 0.55228 0.0
C1900 C 0.47319 0.13401 0.49971 0.0
C1901 C 0.41406 0.10224 0.62838 0.0
C1902 C 0.45857 0.08078 0.6101 0.0
C1903 C 0.47068 0.09059 0.65468 0.0
C1904 C 0.44979 0.08966 0.57974 0.0
C1905 C 0.4533 0.10885 0.59406 0.0
C1906 C 0.4658 0.11898 0.63829 0.0
C1907 C 0.47425 0.10972 0.66814 0.0
C1908 C 0.43644 0.07836 0.53297 0.0
C1909 C 0.47002 0.13951 0.65461 0.0
H1910 H 0.45111 0.14842 0.45601 0.0
H1911 H 0.40141 0.12191 0.56519 0.0
H1912 H 0.48435 0.14099 0.53241 0.0
H1913 H 0.47231 0.11965 0.48964 0.0
H1914 H 0.47862 0.14384 0.46384 0.0
H1915 H 0.39937 0.10112 0.63567 0.0
H1916 H 0.41164 0.08701 0.62209 0.0
H1917 H 0.42336 0.10834 0.66502 0.0
H1918 H 0.45564 0.06599 0.59944 0.0
H1919 H 0.48356 0.11748 0.70243 0.0
H1920 H 0.442 0.08731 0.49566 0.0
H1921 H 0.42116 0.07572 0.54019 0.0
H1922 H 0.43555 0.06376 0.52635 0.0
H1923 H 0.4763 0.14991 0.62014 0.0
H1924 H 0.48065 0.14566 0.68883 0.0
H1925 H 0.45592 0.13895 0.66632 0.0
C1926 C 0.36914 0.9922 0.00728 0.0
C1927 C 0.35303 0.99489 0.99347 0.0
C1928 C 0.38695 0.00133 0.97779 0.0
C1929 C 0.38886 0.01362 0.93354 0.0
C1930 C 0.37274 0.0165 0.91941 0.0
C1931 C 0.35499 0.00704 0.9494 0.0
C1932 C 0.40372 0.99775 0.99389 0.0
C1933 C 0.37427 0.02959 0.87264 0.0
C1934 C 0.44145 0.05047 0.88632 0.0
C1935 C 0.4435 0.04048 0.84185 0.0
C1936 C 0.42366 0.04203 0.91615 0.0
C1937 C 0.4076 0.02309 0.90146 0.0
C1938 C 0.40958 0.01292 0.85675 0.0
C1939 C 0.42743 0.02175 0.82743 0.0
C1940 C 0.42205 0.05337 0.96342 0.0
C1941 C 0.39286 0.99263 0.84003 0.0
H1942 H 0.36788 0.98291 0.04126 0.0
H1943 H 0.34273 0.00935 0.93855 0.0
H1944 H 0.40745 0.99088 0.95998 0.0
H1945 H 0.41733 0.01213 0.00326 0.0
H1946 H 0.39989 0.98785 0.02948 0.0
H1947 H 0.36057 0.03066 0.86758 0.0
H1948 H 0.38717 0.04482 0.87846 0.0
H1949 H 0.37693 0.02363 0.83494 0.0
H1950 H 0.45368 0.06499 0.89764 0.0
H1951 H 0.42876 0.01387 0.79312 0.0
H1952 H 0.41945 0.04461 0.00082 0.0
H1953 H 0.40907 0.05561 0.95799 0.0
H1954 H 0.43569 0.06815 0.96877 0.0
H1955 H 0.38919 0.98189 0.87348 0.0
H1956 H 0.39673 0.98677 0.80402 0.0
H1957 H 0.37921 0.99339 0.83109 0.0
C1958 C 0.08168 0.45794 0.89019 0.0
C1959 C 0.09109 0.47005 0.84542 0.0
C1960 C 0.09076 0.44906 0.91917 0.0
C1961 C 0.10978 0.45247 0.90328 0.0
C1962 C 0.1195 0.46488 0.85867 0.0
C1963 C 0.11002 0.47346 0.83019 0.0
C1964 C 0.07989 0.43583 0.96641 0.0
C1965 C 0.13984 0.46898 0.84072 0.0
C1966 C 0.14043 0.44328 0.00665 0.0
C1967 C 0.13714 0.42441 0.9914 0.0
C1968 C 0.13181 0.45267 0.97799 0.0
C1969 C 0.11946 0.44292 0.93317 0.0
C1970 C 0.11617 0.42397 0.91725 0.0
C1971 C 0.1251 0.41497 0.94641 0.0
C1972 C 0.13577 0.47294 0.99599 0.0
C1973 C 0.10301 0.41306 0.86981 0.0
H1974 H 0.06703 0.4551 0.90222 0.0
H1975 H 0.11746 0.48277 0.7957 0.0
H1976 H 0.07742 0.42062 0.95932 0.0
H1977 H 0.0891 0.44164 0.00331 0.0
H1978 H 0.06522 0.43474 0.97371 0.0
H1979 H 0.14555 0.47929 0.80586 0.0
H1980 H 0.15067 0.47556 0.8743 0.0
H1981 H 0.13917 0.45481 0.82937 0.0
H1982 H 0.14968 0.45075 0.0413 0.0
H1983 H 0.12237 0.40037 0.93436 0.0
H1984 H 0.12153 0.47217 0.00729 0.0
H1985 H 0.14229 0.48375 0.96246 0.0
H1986 H 0.1461 0.47872 0.0309 0.0
H1987 H 0.08772 0.41044 0.87675 0.0
H1988 H 0.10207 0.39848 0.8624 0.0
H1989 H 0.10878 0.42229 0.83303 0.0
C1990 C 0.65426 0.70256 0.82585 0.0
C1991 C 0.65738 0.68689 0.84115 0.0
C1992 C 0.6625 0.72034 0.85555 0.0
C1993 C 0.67427 0.72259 0.90143 0.0
C1994 C 0.67732 0.70679 0.91745 0.0
C1995 C 0.66879 0.68912 0.88727 0.0
C1996 C 0.65881 0.73682 0.83744 0.0
C1997 C 0.68989 0.70868 0.96599 0.0
C1998 C 0.71222 0.77473 0.94819 0.0
C1999 C 0.7026 0.77722 0.99289 0.0
C2000 C 0.70308 0.75711 0.91781 0.0
C2001 C 0.68379 0.74163 0.9321 0.0
C2002 C 0.67383 0.74417 0.97644 0.0
C2003 C 0.68338 0.76188 0.00644 0.0
C2004 C 0.71424 0.7549 0.871 0.0
C2005 C 0.65318 0.72806 0.99263 0.0
H2006 H 0.64548 0.70104 0.79036 0.0
H2007 H 0.67138 0.67717 0.89942 0.0
H2008 H 0.65209 0.74106 0.87064 0.0
H2009 H 0.67318 0.75025 0.82696 0.0
H2010 H 0.64875 0.73246 0.80196 0.0
H2011 H 0.6906 0.69492 0.97351 0.0
H2012 H 0.70531 0.72127 0.96029 0.0
H2013 H 0.68377 0.71203 0.00227 0.0
H2014 H 0.72709 0.78642 0.93742 0.0
H2015 H 0.67578 0.76361 0.04081 0.0
H2016 H 0.70532 0.75173 0.83362 0.0
H2017 H 0.71659 0.74207 0.87802 0.0
H2018 H 0.72901 0.76845 0.86459 0.0
H2019 H 0.64278 0.72407 0.95808 0.0
H2020 H 0.64716 0.73267 0.02682 0.0
H2021 H 0.6535 0.71442 0.0043 0.0
C2022 C 0.77476 0.03461 0.66473 0.0
C2023 C 0.75575 0.01886 0.67838 0.0
C2024 C 0.78371 0.05252 0.69381 0.0
C2025 C 0.77338 0.05489 0.73749 0.0
C2026 C 0.75424 0.03908 0.75172 0.0
C2027 C 0.74567 0.02123 0.72212 0.0
C2028 C 0.8042 0.06896 0.67757 0.0
C2029 C 0.74273 0.04111 0.79792 0.0
C2030 C 0.80381 0.09475 0.8411 0.0
C2031 C 0.80102 0.11054 0.82468 0.0
C2032 C 0.79483 0.07655 0.81327 0.0
C2033 C 0.78266 0.07397 0.76804 0.0
C2034 C 0.77973 0.08978 0.75126 0.0
C2035 C 0.78898 0.10788 0.77965 0.0
C2036 C 0.79842 0.06009 0.8322 0.0
C2037 C 0.7668 0.08756 0.70331 0.0
H2038 H 0.78273 0.03303 0.63105 0.0
H2039 H 0.73095 0.00924 0.73289 0.0
H2040 H 0.80355 0.08248 0.66631 0.0
H2041 H 0.81466 0.07305 0.71198 0.0
H2042 H 0.81036 0.06464 0.64311 0.0
H2043 H 0.72803 0.02744 0.8039 0.0
H2044 H 0.75149 0.04435 0.83562 0.0
H2045 H 0.74025 0.05383 0.79057 0.0
H2046 H 0.81301 0.09656 0.87587 0.0
H2047 H 0.7866 0.11989 0.76675 0.0
H2048 H 0.80552 0.05601 0.79969 0.0
H2049 H 0.784 0.04657 0.84178 0.0
H2050 H 0.80814 0.06442 0.86838 0.0
H2051 H 0.77297 0.08446 0.6667 0.0
H2052 H 0.76567 0.10112 0.69615 0.0
H2053 H 0.75155 0.07471 0.70929 0.0
C2054 C 0.09571 0.80847 0.66267 0.0
C2055 C 0.11104 0.80462 0.67674 0.0
C2056 C 0.07796 0.80042 0.69248 0.0
C2057 C 0.07536 0.78807 0.73717 0.0
C2058 C 0.0908 0.78423 0.75189 0.0
C2059 C 0.10846 0.79261 0.72168 0.0
C2060 C 0.0619 0.80497 0.67578 0.0
C2061 C 0.08853 0.771 0.79908 0.0
C2062 C 0.03639 0.77921 0.84303 0.0
C2063 C 0.02056 0.76041 0.8281 0.0
C2064 C 0.05419 0.78852 0.81337 0.0
C2065 C 0.05632 0.77876 0.76789 0.0
C2066 C 0.04038 0.75989 0.75229 0.0
C2067 C 0.0227 0.75098 0.78242 0.0
C2068 C 0.07081 0.8087 0.83104 0.0
C2069 C 0.04213 0.74895 0.7042 0.0
H2070 H 0.0975 0.81772 0.6281 0.0
H2071 H 0.12013 0.78943 0.73286 0.0
H2072 H 0.04815 0.79098 0.66454 0.0
H2073 H 0.05803 0.81161 0.70995 0.0
H2074 H 0.06651 0.8154 0.64117 0.0
H2075 H 0.10203 0.7697 0.80568 0.0
H2076 H 0.08549 0.77696 0.83623 0.0
H2077 H 0.07558 0.75587 0.79238 0.0
H2078 H 0.03495 0.78666 0.87818 0.0
H2079 H 0.01064 0.73644 0.77054 0.0
H2080 H 0.07506 0.81953 0.79756 0.0
H2081 H 0.08421 0.80773 0.8417 0.0
H2082 H 0.06656 0.81458 0.86629 0.0
H2083 H 0.04549 0.75827 0.66762 0.0
H2084 H 0.02828 0.73449 0.697 0.0
H2085 H 0.05468 0.74608 0.71022 0.0
C2086 C 0.34046 0.38258 0.71817 0.0
C2087 C 0.32786 0.37241 0.67469 0.0
C2088 C 0.34974 0.37403 0.74779 0.0
C2089 C 0.34617 0.35479 0.73397 0.0
C2090 C 0.33339 0.34441 0.69041 0.0
C2091 C 0.32449 0.35337 0.66117 0.0
C2092 C 0.3634 0.38562 0.79379 0.0
C2093 C 0.32906 0.32378 0.67478 0.0
C2094 C 0.3826 0.33843 0.78045 0.0
C2095 C 0.37284 0.32694 0.82586 0.0
C2096 C 0.37416 0.34769 0.75029 0.0
C2097 C 0.35547 0.34531 0.76572 0.0
C2098 C 0.34549 0.33363 0.81122 0.0
C2099 C 0.3543 0.32465 0.84077 0.0
C2100 C 0.38527 0.36012 0.70209 0.0
C2101 C 0.32548 0.33062 0.82874 0.0
H2102 H 0.3433 0.39735 0.72873 0.0
H2103 H 0.31483 0.34537 0.62763 0.0
H2104 H 0.35758 0.37724 0.83186 0.0
H2105 H 0.37842 0.38749 0.78717 0.0
H2106 H 0.36496 0.40058 0.79864 0.0
H2107 H 0.31879 0.31773 0.63981 0.0
H2108 H 0.34316 0.32407 0.66466 0.0
H2109 H 0.32227 0.31344 0.70919 0.0
H2110 H 0.39696 0.3404 0.76871 0.0
H2111 H 0.3466 0.31586 0.87579 0.0
H2112 H 0.38812 0.37555 0.70716 0.0
H2113 H 0.37605 0.35394 0.66535 0.0
H2114 H 0.39976 0.3607 0.6958 0.0
H2115 H 0.32672 0.34522 0.83768 0.0
H2116 H 0.31965 0.32104 0.86499 0.0
H2117 H 0.31445 0.32365 0.79574 0.0
C2118 C 0.03491 0.32344 0.33886 0.0
C2119 C 0.01927 0.32668 0.32377 0.0
C2120 C 0.05294 0.33214 0.31021 0.0
C2121 C 0.05547 0.3445 0.26557 0.0
C2122 C 0.03977 0.34782 0.25002 0.0
C2123 C 0.02185 0.33882 0.27915 0.0
C2124 C 0.06928 0.32813 0.32778 0.0
C2125 C 0.04196 0.36099 0.20278 0.0
C2126 C 0.10816 0.38153 0.21974 0.0
C2127 C 0.11029 0.37181 0.17478 0.0
C2128 C 0.09042 0.3728 0.24977 0.0
C2129 C 0.0745 0.35383 0.23478 0.0
C2130 C 0.07664 0.34382 0.18995 0.0
C2131 C 0.09444 0.35295 0.16038 0.0
C2132 C 0.08862 0.38399 0.29716 0.0
C2133 C 0.06006 0.3235 0.17293 0.0
H2134 H 0.03314 0.31413 0.37327 0.0
H2135 H 0.00994 0.34154 0.26725 0.0
H2136 H 0.07322 0.32128 0.29429 0.0
H2137 H 0.08292 0.34236 0.33814 0.0
H2138 H 0.0649 0.31807 0.36315 0.0
H2139 H 0.02842 0.36224 0.19624 0.0
H2140 H 0.0549 0.37615 0.20924 0.0
H2141 H 0.04495 0.35498 0.16566 0.0
H2142 H 0.12024 0.39613 0.23112 0.0
H2143 H 0.09586 0.34527 0.12576 0.0
H2144 H 0.08539 0.37493 0.33421 0.0
H2145 H 0.07596 0.38666 0.29076 0.0
H2146 H 0.1024 0.39856 0.30374 0.0
H2147 H 0.05596 0.31284 0.20677 0.0
H2148 H 0.06428 0.31751 0.13788 0.0
H2149 H 0.04657 0.32432 0.16225 0.0
C2150 C 0.79142 0.74709 0.27893 0.0
C2151 C 0.80309 0.75701 0.32408 0.0
C2152 C 0.78236 0.75557 0.24806 0.0
C2153 C 0.78512 0.77447 0.26248 0.0
C2154 C 0.79707 0.78468 0.3075 0.0
C2155 C 0.80584 0.77581 0.3378 0.0
C2156 C 0.76962 0.7442 0.20045 0.0
C2157 C 0.80047 0.8049 0.32402 0.0
C2158 C 0.77592 0.80487 0.15838 0.0
C2159 C 0.75703 0.80161 0.17345 0.0
C2160 C 0.78518 0.79605 0.18677 0.0
C2161 C 0.77528 0.78352 0.23108 0.0
C2162 C 0.75618 0.78004 0.2463 0.0
C2163 C 0.74732 0.78917 0.21748 0.0
C2164 C 0.80564 0.80024 0.16958 0.0
C2165 C 0.74509 0.76668 0.29316 0.0
H2166 H 0.78912 0.73254 0.26804 0.0
H2167 H 0.81479 0.78367 0.37255 0.0
H2168 H 0.75415 0.74122 0.20633 0.0
H2169 H 0.77543 0.75327 0.16341 0.0
H2170 H 0.76914 0.72977 0.19418 0.0
H2171 H 0.81058 0.81108 0.35929 0.0
H2172 H 0.80701 0.81554 0.29012 0.0
H2173 H 0.78602 0.80385 0.33416 0.0
H2174 H 0.78357 0.81439 0.1244 0.0
H2175 H 0.73268 0.7864 0.2293 0.0
H2176 H 0.80526 0.78608 0.15999 0.0
H2177 H 0.81641 0.8074 0.20303 0.0
H2178 H 0.81122 0.81013 0.13386 0.0
H2179 H 0.74325 0.75167 0.28692 0.0
H2180 H 0.73012 0.76506 0.2989 0.0
H2181 H 0.75385 0.77281 0.33065 0.0
C2182 C 0.32223 0.03318 0.16863 0.0
C2183 C 0.32612 0.0178 0.18154 0.0
C2184 C 0.33055 0.05084 0.19868 0.0
C2185 C 0.34324 0.05334 0.24253 0.0
C2186 C 0.34711 0.03786 0.25623 0.0
C2187 C 0.33844 0.02023 0.2257 0.0
C2188 C 0.32594 0.06695 0.18303 0.0
C2189 C 0.36068 0.04006 0.30256 0.0
C2190 C 0.38004 0.10645 0.28482 0.0
C2191 C 0.37065 0.10883 0.3302 0.0
C2192 C 0.37137 0.08841 0.25629 0.0
C2193 C 0.35278 0.07238 0.27322 0.0
C2194 C 0.34315 0.07468 0.3187 0.0
C2195 C 0.35222 0.09284 0.34674 0.0
C2196 C 0.38214 0.08649 0.20807 0.0
C2197 C 0.32324 0.05797 0.3377 0.0
H2198 H 0.31275 0.03153 0.13466 0.0
H2199 H 0.34162 0.0085 0.23591 0.0
H2200 H 0.31957 0.07083 0.21782 0.0
H2201 H 0.33989 0.08065 0.1714 0.0
H2202 H 0.31524 0.0624 0.14896 0.0
H2203 H 0.3619 0.0265 0.30859 0.0
H2204 H 0.37583 0.0529 0.29526 0.0
H2205 H 0.35508 0.0432 0.34021 0.0
H2206 H 0.39433 0.11862 0.27183 0.0
H2207 H 0.34483 0.09446 0.38177 0.0
H2208 H 0.37274 0.08323 0.17161 0.0
H2209 H 0.38484 0.07383 0.21384 0.0
H2210 H 0.39668 0.10022 0.20081 0.0
H2211 H 0.31198 0.05368 0.30526 0.0
H2212 H 0.31776 0.06213 0.37394 0.0
H2213 H 0.32444 0.04462 0.34721 0.0
loop_
_geom_bond_atom_site_label_1
_geom_bond_atom_site_label_2
_geom_bond_distance
_geom_bond_site_symmetry_2
_ccdc_geom_bond_type
Co0 O2 2.143 . S
Co0 O8 2.074 . S
Co0 O11 2.093 . S
Co0 O24 2.097 . S
Co0 N41 2.151 . S
Co0 N49 2.214 . S
Co1 O2 2.160 . S
Co1 O7 2.058 . S
Co1 O17 2.057 . S
Co1 O32 2.037 . S
Co1 N36 2.145 . S
Co1 N57 2.257 . S
O2 Co0 2.143 . S
O2 Co1 2.160 . S
C3 O4 1.278 . S
C3 O11 1.224 . S
O4 C3 1.278 . S
C5 O6 1.245 . S
C5 O17 1.232 . S
O6 C5 1.245 . S
O7 Co1 2.058 . S
O7 C33 1.269 . S
O8 Co0 2.074 . S
O8 C33 1.257 . S
H9 C34 0.930 . S
H10 C40 0.930 . S
O11 Co0 2.093 . S
O11 C3 1.224 . S
H12 C44 0.929 . S
H13 C46 0.930 . S
H14 C47 0.930 . S
H15 C45 0.929 . S
H16 C48 0.928 . S
O17 Co1 2.057 . S
O17 C5 1.232 . S
H18 C37 0.929 . S
H19 C38 0.929 . S
H20 C50 0.931 . S
H21 C42 0.929 . S
H22 C51 0.930 . S
H23 C43 0.931 . S
O24 Co0 2.097 . S
O24 C52 1.214 . S
H25 C53 0.929 . S
H26 C54 0.929 . S
H27 C55 0.930 . S
H28 C56 0.929 . S
H29 C58 0.930 . S
H30 C35 0.930 . S
H31 C39 0.947 . S
O32 Co1 2.037 . S
O32 C52 1.234 . S
C33 O7 1.269 . S
C33 O8 1.257 . S
C34 H9 0.930 . S
C34 C37 1.388 . S
C34 C39 1.415 1_455 S
C35 H30 0.930 . S
C35 C38 1.404 . S
C35 C39 1.339 1_455 S
N36 Co1 2.145 . S
N36 C37 1.397 . S
N36 C38 1.334 . S
C37 H18 0.929 . S
C37 C34 1.388 . S
C37 N36 1.397 . S
C38 H19 0.929 . S
C38 C35 1.404 . S
C38 N36 1.334 . S
C39 H31 0.947 . S
C39 C34 1.415 1_655 S
C39 C35 1.339 1_655 S
C40 H10 0.930 . S
C40 N41 1.330 . S
C40 C42 1.446 . S
N41 Co0 2.151 . S
N41 C40 1.330 . S
N41 C45 1.418 . S
C42 H21 0.929 . S
C42 C40 1.446 . S
C42 C43 1.332 . S
C43 H23 0.931 . S
C43 C42 1.332 . S
C43 C44 1.267 . S
C44 H12 0.929 . S
C44 C43 1.267 . S
C44 C45 1.251 . S
C45 H15 0.929 . S
C45 N41 1.418 . S
C45 C44 1.251 . S
C46 H13 0.930 . S
C46 C48 1.406 . S
C46 C51 1.261 . S
C47 H14 0.930 . S
C47 N49 1.325 . S
C47 C50 1.357 . S
C48 H16 0.928 . S
C48 C46 1.406 . S
C48 N49 1.261 . S
N49 Co0 2.214 . S
N49 C47 1.325 . S
N49 C48 1.261 . S
C50 H20 0.931 . S
C50 C47 1.357 . S
C50 C51 1.312 . S
C51 H22 0.930 . S
C51 C46 1.261 . S
C51 C50 1.312 . S
C52 O24 1.214 . S
C52 O32 1.234 . S
C53 H25 0.929 . S
C53 C56 1.391 1_455 S
C53 C58 1.391 . S
C54 H26 0.929 . S
C54 C55 1.390 1_455 S
C54 N57 1.391 . S
C55 H27 0.930 . S
C55 C54 1.390 1_655 S
C55 C56 1.392 . S
C56 H28 0.929 . S
C56 C53 1.391 1_655 S
C56 C55 1.392 . S
N57 Co1 2.257 . S
N57 C54 1.391 . S
N57 C58 1.388 . S
C58 H29 0.930 . S
C58 C53 1.391 . S
C58 N57 1.388 . S
Co59 O61 2.143 . S
Co59 O67 2.074 . S
Co59 O70 2.093 . S
Co59 O83 2.097 . S
Co59 N100 2.151 . S
Co59 N108 2.214 . S
Co60 O61 2.160 . S
Co60 O66 2.058 . S
Co60 O76 2.057 . S
Co60 O91 2.037 . S
Co60 N95 2.145 . S
Co60 N116 2.257 . S
O61 Co59 2.143 . S
O61 Co60 2.160 . S
C62 O63 1.278 . S
C62 O70 1.224 . S
O63 C62 1.278 . S
C64 O65 1.245 . S
C64 O76 1.232 . S
O65 C64 1.245 . S
O66 Co60 2.058 . S
O66 C92 1.269 . S
O67 Co59 2.074 . S
O67 C92 1.257 . S
H68 C93 0.930 . S
H69 C99 0.930 . S
O70 Co59 2.093 . S
O70 C62 1.224 . S
H71 C103 0.929 . S
H72 C105 0.930 . S
H73 C106 0.930 . S
H74 C104 0.929 . S
H75 C107 0.928 . S
O76 Co60 2.057 . S
O76 C64 1.232 . S
H77 C96 0.929 . S
H78 C97 0.929 . S
H79 C109 0.931 . S
H80 C101 0.929 . S
H81 C110 0.930 . S
H82 C102 0.931 . S
O83 Co59 2.097 . S
O83 C111 1.214 . S
H84 C112 0.929 . S
H85 C113 0.929 . S
H86 C114 0.930 . S
H87 C115 0.929 . S
H88 C117 0.930 . S
H89 C94 0.930 . S
H90 C98 0.930 . S
O91 Co60 2.037 . S
O91 C111 1.234 . S
C92 O66 1.269 . S
C92 O67 1.257 . S
C93 H68 0.930 . S
C93 C96 1.388 . S
C93 C98 1.418 . S
C94 H89 0.930 . S
C94 C97 1.404 . S
C94 C98 1.353 . S
N95 Co60 2.145 . S
N95 C96 1.397 . S
N95 C97 1.334 . S
C96 H77 0.929 . S
C96 C93 1.388 . S
C96 N95 1.397 . S
C97 H78 0.929 . S
C97 C94 1.404 . S
C97 N95 1.334 . S
C98 H90 0.930 . S
C98 C93 1.418 . S
C98 C94 1.353 . S
C99 H69 0.930 . S
C99 N100 1.330 . S
C99 C101 1.446 . S
N100 Co59 2.151 . S
N100 C99 1.330 . S
N100 C104 1.418 . S
C101 H80 0.929 . S
C101 C99 1.446 . S
C101 C102 1.332 . S
C102 H82 0.931 . S
C102 C101 1.332 . S
C102 C103 1.267 . S
C103 H71 0.929 . S
C103 C102 1.267 . S
C103 C104 1.251 . S
C104 H74 0.929 . S
C104 N100 1.418 . S
C104 C103 1.251 . S
C105 H72 0.930 . S
C105 C107 1.406 . S
C105 C110 1.261 . S
C106 H73 0.930 . S
C106 N108 1.325 . S
C106 C109 1.357 . S
C107 H75 0.928 . S
C107 C105 1.406 . S
C107 N108 1.261 . S
N108 Co59 2.214 . S
N108 C106 1.325 . S
N108 C107 1.261 . S
C109 H79 0.931 . S
C109 C106 1.357 . S
C109 C110 1.312 . S
C110 H81 0.930 . S
C110 C105 1.261 . S
C110 C109 1.312 . S
C111 O83 1.214 . S
C111 O91 1.234 . S
C112 H84 0.929 . S
C112 C115 1.391 . S
C112 C117 1.391 . S
C113 H85 0.929 . S
C113 C114 1.390 . S
C113 N116 1.391 . S
C114 H86 0.930 . S
C114 C113 1.390 . S
C114 C115 1.392 . S
C115 H87 0.929 . S
C115 C112 1.391 . S
C115 C114 1.392 . S
N116 Co60 2.257 . S
N116 C113 1.391 . S
N116 C117 1.388 . S
C117 H88 0.930 . S
C117 C112 1.391 . S
C117 N116 1.388 . S
Co118 O120 2.143 . S
Co118 O126 2.074 . S
Co118 O129 2.093 . S
Co118 O142 2.097 . S
Co118 N159 2.151 . S
Co118 N167 2.214 . S
Co119 O120 2.160 . S
Co119 O125 2.058 . S
Co119 O135 2.057 . S
Co119 O150 2.037 . S
Co119 N154 2.145 . S
Co119 N175 2.257 . S
O120 Co118 2.143 . S
O120 Co119 2.160 . S
C121 O122 1.278 . S
C121 O129 1.224 . S
O122 C121 1.278 . S
C123 O124 1.245 . S
C123 O135 1.232 . S
O124 C123 1.245 . S
O125 Co119 2.058 . S
O125 C151 1.269 . S
O126 Co118 2.074 . S
O126 C151 1.257 . S
H127 C152 0.930 . S
H128 C158 0.930 . S
O129 Co118 2.093 . S
O129 C121 1.224 . S
H130 C162 0.929 . S
H131 C164 0.930 1_565 S
H132 C165 0.930 . S
H133 C163 0.952 . S
H134 C166 0.928 . S
O135 Co119 2.057 . S
O135 C123 1.232 . S
H136 C155 0.929 . S
H137 C156 0.929 . S
H138 C168 0.931 . S
H139 C160 0.929 . S
H140 C169 0.930 . S
H141 C161 0.931 . S
O142 Co118 2.097 . S
O142 C170 1.214 . S
H143 C171 0.929 . S
H144 C172 0.929 . S
H145 C173 0.930 . S
H146 C174 0.929 . S
H147 C176 0.930 . S
H148 C153 0.930 . S
H149 C157 0.930 . S
O150 Co119 2.037 . S
O150 C170 1.234 . S
C151 O125 1.269 . S
C151 O126 1.257 . S
C152 H127 0.930 . S
C152 C155 1.388 . S
C152 C157 1.418 . S
C153 H148 0.930 . S
C153 C156 1.404 . S
C153 C157 1.353 . S
N154 Co119 2.145 . S
N154 C155 1.397 . S
N154 C156 1.334 . S
C155 H136 0.929 . S
C155 C152 1.388 . S
C155 N154 1.397 . S
C156 H137 0.929 . S
C156 C153 1.404 . S
C156 N154 1.334 . S
C157 H149 0.930 . S
C157 C152 1.418 . S
C157 C153 1.353 . S
C158 H128 0.930 . S
C158 N159 1.330 . S
C158 C160 1.446 1_545 S
N159 Co118 2.151 . S
N159 C158 1.330 . S
N159 C163 1.436 . S
C160 H139 0.929 . S
C160 C158 1.446 1_565 S
C160 C161 1.332 . S
C161 H141 0.931 . S
C161 C160 1.332 . S
C161 C162 1.267 . S
C162 H130 0.929 . S
C162 C161 1.267 . S
C162 C163 1.241 1_565 S
C163 H133 0.952 . S
C163 N159 1.436 . S
C163 C162 1.241 1_545 S
C164 H131 0.930 1_545 S
C164 C166 1.406 . S
C164 C169 1.261 . S
C165 H132 0.930 . S
C165 N167 1.325 . S
C165 C168 1.357 . S
C166 H134 0.928 . S
C166 C164 1.406 . S
C166 N167 1.261 . S
N167 Co118 2.214 . S
N167 C165 1.325 . S
N167 C166 1.261 . S
C168 H138 0.931 . S
C168 C165 1.357 . S
C168 C169 1.312 . S
C169 H140 0.930 . S
C169 C164 1.261 . S
C169 C168 1.312 . S
C170 O142 1.214 . S
C170 O150 1.234 . S
C171 H143 0.929 . S
C171 C174 1.391 . S
C171 C176 1.391 . S
C172 H144 0.929 . S
C172 C173 1.390 . S
C172 N175 1.391 . S
C173 H145 0.930 . S
C173 C172 1.390 . S
C173 C174 1.392 . S
C174 H146 0.929 . S
C174 C171 1.391 . S
C174 C173 1.392 . S
N175 Co119 2.257 . S
N175 C172 1.391 . S
N175 C176 1.388 . S
C176 H147 0.930 . S
C176 C171 1.391 . S
C176 N175 1.388 . S
Co177 O179 2.143 . S
Co177 O185 2.074 . S
Co177 O188 2.093 . S
Co177 O201 2.097 . S
Co177 N218 2.151 . S
Co177 N226 2.214 . S
Co178 O179 2.160 . S
Co178 O184 2.058 . S
Co178 O194 2.057 . S
Co178 O209 2.037 . S
Co178 N213 2.145 . S
Co178 N234 2.257 . S
O179 Co177 2.143 . S
O179 Co178 2.160 . S
C180 O181 1.278 . S
C180 O188 1.224 . S
O181 C180 1.278 . S
C182 O183 1.245 . S
C182 O194 1.232 . S
O183 C182 1.245 . S
O184 Co178 2.058 . S
O184 C210 1.269 . S
O185 Co177 2.074 . S
O185 C210 1.257 . S
H186 C211 0.930 . S
H187 C217 0.930 . S
O188 Co177 2.093 . S
O188 C180 1.224 . S
H189 C221 0.929 . S
H190 C223 0.930 1_655 S
H191 C224 0.930 . S
H192 C222 0.911 1_455 S
H193 C225 0.928 . S
O194 Co178 2.057 . S
O194 C182 1.232 . S
H195 C214 0.929 . S
H196 C215 0.929 . S
H197 C227 0.931 . S
H198 C219 0.929 . S
H199 C228 0.930 . S
H200 C220 0.931 . S
O201 Co177 2.097 . S
O201 C229 1.214 . S
H202 C230 0.929 . S
H203 C231 0.929 . S
H204 C232 0.930 . S
H205 C233 0.929 . S
H206 C235 0.930 . S
H207 C212 0.930 . S
H208 C216 0.930 . S
O209 Co178 2.037 . S
O209 C229 1.234 . S
C210 O184 1.269 . S
C210 O185 1.257 . S
C211 H186 0.930 . S
C211 C214 1.388 . S
C211 C216 1.418 . S
C212 H207 0.930 . S
C212 C215 1.404 . S
C212 C216 1.353 . S
N213 Co178 2.145 . S
N213 C214 1.397 . S
N213 C215 1.334 . S
C214 H195 0.929 . S
C214 C211 1.388 . S
C214 N213 1.397 . S
C215 H196 0.929 . S
C215 C212 1.404 . S
C215 N213 1.334 . S
C216 H208 0.930 . S
C216 C211 1.418 . S
C216 C212 1.353 . S
C217 H187 0.930 . S
C217 N218 1.330 . S
C217 C219 1.446 1_455 S
N218 Co177 2.151 . S
N218 C217 1.330 . S
N218 C222 1.408 1_455 S
C219 H198 0.929 . S
C219 C217 1.446 1_655 S
C219 C220 1.332 . S
C220 H200 0.931 . S
C220 C219 1.332 . S
C220 C221 1.267 . S
C221 H189 0.929 . S
C221 C220 1.267 . S
C221 C222 1.270 . S
C222 H192 0.911 1_655 S
C222 N218 1.408 1_655 S
C222 C221 1.270 . S
C223 H190 0.930 1_455 S
C223 C225 1.406 . S
C223 C228 1.261 . S
C224 H191 0.930 . S
C224 N226 1.325 . S
C224 C227 1.357 . S
C225 H193 0.928 . S
C225 C223 1.406 . S
C225 N226 1.261 . S
N226 Co177 2.214 . S
N226 C224 1.325 . S
N226 C225 1.261 . S
C227 H197 0.931 . S
C227 C224 1.357 . S
C227 C228 1.312 . S
C228 H199 0.930 . S
C228 C223 1.261 . S
C228 C227 1.312 . S
C229 O201 1.214 . S
C229 O209 1.234 . S
C230 H202 0.929 . S
C230 C233 1.391 . S
C230 C235 1.391 . S
C231 H203 0.929 . S
C231 C232 1.390 . S
C231 N234 1.391 . S
C232 H204 0.930 . S
C232 C231 1.390 . S
C232 C233 1.392 . S
C233 H205 0.929 . S
C233 C230 1.391 . S
C233 C232 1.392 . S
N234 Co178 2.257 . S
N234 C231 1.391 . S
N234 C235 1.388 . S
C235 H206 0.930 . S
C235 C230 1.391 . S
C235 N234 1.388 . S
Co236 O238 2.143 . S
Co236 O244 2.074 . S
Co236 O247 2.093 . S
Co236 O260 2.097 . S
Co236 N277 2.151 . S
Co236 N285 2.214 . S
Co237 O238 2.160 . S
Co237 O243 2.058 . S
Co237 O253 2.057 . S
Co237 O268 2.037 . S
Co237 N272 2.145 . S
Co237 N293 2.257 . S
O238 Co236 2.143 . S
O238 Co237 2.160 . S
C239 O240 1.278 . S
C239 O247 1.224 . S
O240 C239 1.278 . S
C241 O242 1.245 . S
C241 O253 1.232 . S
O242 C241 1.245 . S
O243 Co237 2.058 . S
O243 C269 1.269 . S
O244 Co236 2.074 . S
O244 C269 1.257 . S
H245 C270 0.930 . S
H246 C276 0.930 . S
O247 Co236 2.093 . S
O247 C239 1.224 . S
H248 C280 0.929 . S
H249 C282 0.930 . S
H250 C283 0.930 . S
H251 C281 0.929 . S
H252 C284 0.928 . S
O253 Co237 2.057 . S
O253 C241 1.232 . S
H254 C273 0.929 . S
H255 C274 0.929 . S
H256 C286 0.931 . S
H257 C278 0.929 . S
H258 C287 0.930 . S
H259 C279 0.931 . S
O260 Co236 2.097 . S
O260 C288 1.214 . S
H261 C289 0.929 . S
H262 C290 0.929 . S
H263 C291 0.930 . S
H264 C292 0.929 . S
H265 C294 0.930 . S
H266 C271 0.930 . S
H267 C275 0.930 . S
O268 Co237 2.037 . S
O268 C288 1.234 . S
C269 O243 1.269 . S
C269 O244 1.257 . S
C270 H245 0.930 . S
C270 C273 1.388 . S
C270 C275 1.418 . S
C271 H266 0.930 . S
C271 C274 1.404 . S
C271 C275 1.353 . S
N272 Co237 2.145 . S
N272 C273 1.397 . S
N272 C274 1.334 . S
C273 H254 0.929 . S
C273 C270 1.388 . S
C273 N272 1.397 . S
C274 H255 0.929 . S
C274 C271 1.404 . S
C274 N272 1.334 . S
C275 H267 0.930 . S
C275 C270 1.418 . S
C275 C271 1.353 . S
C276 H246 0.930 . S
C276 N277 1.330 . S
C276 C278 1.446 . S
N277 Co236 2.151 . S
N277 C276 1.330 . S
N277 C281 1.418 . S
C278 H257 0.929 . S
C278 C276 1.446 . S
C278 C279 1.332 . S
C279 H259 0.931 . S
C279 C278 1.332 . S
C279 C280 1.267 . S
C280 H248 0.929 . S
C280 C279 1.267 . S
C280 C281 1.251 . S
C281 H251 0.929 . S
C281 N277 1.418 . S
C281 C280 1.251 . S
C282 H249 0.930 . S
C282 C284 1.406 . S
C282 C287 1.261 . S
C283 H250 0.930 . S
C283 N285 1.325 . S
C283 C286 1.357 . S
C284 H252 0.928 . S
C284 C282 1.406 . S
C284 N285 1.261 . S
N285 Co236 2.214 . S
N285 C283 1.325 . S
N285 C284 1.261 . S
C286 H256 0.931 . S
C286 C283 1.357 . S
C286 C287 1.312 . S
C287 H258 0.930 . S
C287 C282 1.261 . S
C287 C286 1.312 . S
C288 O260 1.214 . S
C288 O268 1.234 . S
C289 H261 0.929 . S
C289 C292 1.391 . S
C289 C294 1.391 . S
C290 H262 0.929 . S
C290 C291 1.390 . S
C290 N293 1.391 . S
C291 H263 0.930 . S
C291 C290 1.390 . S
C291 C292 1.392 . S
C292 H264 0.929 . S
C292 C289 1.391 . S
C292 C291 1.392 . S
N293 Co237 2.257 . S
N293 C290 1.391 . S
N293 C294 1.388 . S
C294 H265 0.930 . S
C294 C289 1.391 . S
C294 N293 1.388 . S
Co295 O297 2.143 . S
Co295 O303 2.074 . S
Co295 O306 2.093 . S
Co295 O319 2.097 . S
Co295 N336 2.151 . S
Co295 N344 2.214 . S
Co296 O297 2.160 . S
Co296 O302 2.058 . S
Co296 O312 2.057 . S
Co296 O327 2.037 . S
Co296 N331 2.145 . S
Co296 N352 2.257 . S
O297 Co295 2.143 . S
O297 Co296 2.160 . S
C298 O299 1.278 . S
C298 O306 1.224 . S
O299 C298 1.278 . S
C300 O301 1.245 . S
C300 O312 1.232 . S
O301 C300 1.245 . S
O302 Co296 2.058 . S
O302 C328 1.269 . S
O303 Co295 2.074 . S
O303 C328 1.257 . S
H304 C329 0.930 . S
H305 C335 0.930 . S
O306 Co295 2.093 . S
O306 C298 1.224 . S
H307 C339 0.929 . S
H308 C341 0.930 . S
H309 C342 0.930 . S
H310 C340 0.929 . S
H311 C343 0.928 . S
O312 Co296 2.057 . S
O312 C300 1.232 . S
H313 C332 0.929 . S
H314 C333 0.929 . S
H315 C345 0.931 . S
H316 C337 0.929 . S
H317 C346 0.930 . S
H318 C338 0.931 . S
O319 Co295 2.097 . S
O319 C347 1.214 . S
H320 C348 0.929 . S
H321 C349 0.929 . S
H322 C350 0.930 . S
H323 C351 0.929 . S
H324 C353 0.930 . S
H325 C330 0.930 . S
H326 C334 0.917 1_565 S
O327 Co296 2.037 . S
O327 C347 1.234 . S
C328 O302 1.269 . S
C328 O303 1.257 . S
C329 H304 0.930 . S
C329 C332 1.388 . S
C329 C334 1.438 . S
C330 H325 0.930 . S
C330 C333 1.404 . S
C330 C334 1.347 . S
N331 Co296 2.145 . S
N331 C332 1.397 . S
N331 C333 1.334 . S
C332 H313 0.929 . S
C332 C329 1.388 . S
C332 N331 1.397 . S
C333 H314 0.929 . S
C333 C330 1.404 . S
C333 N331 1.334 . S
C334 H326 0.917 1_545 S
C334 C329 1.438 . S
C334 C330 1.347 . S
C335 H305 0.930 . S
C335 N336 1.330 . S
C335 C337 1.446 . S
N336 Co295 2.151 . S
N336 C335 1.330 . S
N336 C340 1.418 . S
C337 H316 0.929 . S
C337 C335 1.446 . S
C337 C338 1.332 . S
C338 H318 0.931 . S
C338 C337 1.332 . S
C338 C339 1.267 . S
C339 H307 0.929 . S
C339 C338 1.267 . S
C339 C340 1.251 . S
C340 H310 0.929 . S
C340 N336 1.418 . S
C340 C339 1.251 . S
C341 H308 0.930 . S
C341 C343 1.406 . S
C341 C346 1.261 . S
C342 H309 0.930 . S
C342 N344 1.325 . S
C342 C345 1.357 . S
C343 H311 0.928 . S
C343 C341 1.406 . S
C343 N344 1.261 . S
N344 Co295 2.214 . S
N344 C342 1.325 . S
N344 C343 1.261 . S
C345 H315 0.931 . S
C345 C342 1.357 . S
C345 C346 1.312 . S
C346 H317 0.930 . S
C346 C341 1.261 . S
C346 C345 1.312 . S
C347 O319 1.214 . S
C347 O327 1.234 . S
C348 H320 0.929 . S
C348 C351 1.391 1_545 S
C348 C353 1.391 . S
C349 H321 0.929 . S
C349 C350 1.390 1_545 S
C349 N352 1.391 . S
C350 H322 0.930 . S
C350 C349 1.390 1_565 S
C350 C351 1.392 . S
C351 H323 0.929 . S
C351 C348 1.391 1_565 S
C351 C350 1.392 . S
N352 Co296 2.257 . S
N352 C349 1.391 . S
N352 C353 1.388 . S
C353 H324 0.930 . S
C353 C348 1.391 . S
C353 N352 1.388 . S
Co354 O356 2.143 . S
Co354 O362 2.074 . S
Co354 O365 2.093 . S
Co354 O378 2.097 . S
Co354 N395 2.151 . S
Co354 N403 2.214 . S
Co355 O356 2.160 . S
Co355 O361 2.058 . S
Co355 O371 2.057 . S
Co355 O386 2.037 1_565 S
Co355 N390 2.145 1_565 S
Co355 N411 2.257 . S
O356 Co354 2.143 . S
O356 Co355 2.160 . S
C357 O358 1.278 . S
C357 O365 1.224 . S
O358 C357 1.278 . S
C359 O360 1.245 . S
C359 O371 1.232 . S
O360 C359 1.245 . S
O361 Co355 2.058 . S
O361 C387 1.269 . S
O362 Co354 2.074 . S
O362 C387 1.257 . S
H363 C388 0.930 . S
H364 C394 0.930 . S
O365 Co354 2.093 . S
O365 C357 1.224 . S
H366 C398 0.929 . S
H367 C400 0.930 . S
H368 C401 0.926 1_545 S
H369 C399 0.929 . S
H370 C402 0.928 . S
O371 Co355 2.057 . S
O371 C359 1.232 . S
H372 C391 0.929 . S
H373 C392 0.929 . S
H374 C404 0.896 1_545 S
H375 C396 0.929 . S
H376 C405 0.930 . S
H377 C397 0.931 . S
O378 Co354 2.097 . S
O378 C406 1.214 1_565 S
H379 C407 0.929 . S
H380 C408 0.929 1_545 S
H381 C409 0.930 1_545 S
H382 C410 0.929 . S
H383 C412 0.930 . S
H384 C389 0.930 . S
H385 C393 0.930 . S
O386 Co355 2.037 1_545 S
O386 C406 1.234 . S
C387 O361 1.269 . S
C387 O362 1.257 . S
C388 H363 0.930 . S
C388 C391 1.388 . S
C388 C393 1.418 . S
C389 H384 0.930 . S
C389 C392 1.404 1_545 S
C389 C393 1.353 . S
N390 Co355 2.145 1_545 S
N390 C391 1.397 . S
N390 C392 1.334 1_545 S
C391 H372 0.929 . S
C391 C388 1.388 . S
C391 N390 1.397 . S
C392 H373 0.929 . S
C392 C389 1.404 1_565 S
C392 N390 1.334 1_565 S
C393 H385 0.930 . S
C393 C388 1.418 . S
C393 C389 1.353 . S
C394 H364 0.930 . S
C394 N395 1.330 . S
C394 C396 1.446 . S
N395 Co354 2.151 . S
N395 C394 1.330 . S
N395 C399 1.418 . S
C396 H375 0.929 . S
C396 C394 1.446 . S
C396 C397 1.332 . S
C397 H377 0.931 . S
C397 C396 1.332 . S
C397 C398 1.267 . S
C398 H366 0.929 . S
C398 C397 1.267 . S
C398 C399 1.251 . S
C399 H369 0.929 . S
C399 N395 1.418 . S
C399 C398 1.251 . S
C400 H367 0.930 . S
C400 C402 1.406 . S
C400 C405 1.261 . S
C401 H368 0.926 1_565 S
C401 N403 1.325 . S
C401 C404 1.383 . S
C402 H370 0.928 . S
C402 C400 1.406 . S
C402 N403 1.261 . S
N403 Co354 2.214 . S
N403 C401 1.325 . S
N403 C402 1.261 . S
C404 H374 0.896 1_565 S
C404 C401 1.383 . S
C404 C405 1.325 . S
C405 H376 0.930 . S
C405 C400 1.261 . S
C405 C404 1.325 . S
C406 O378 1.214 1_545 S
C406 O386 1.234 . S
C407 H379 0.929 . S
C407 C410 1.391 . S
C407 C412 1.391 . S
C408 H380 0.929 1_565 S
C408 C409 1.390 . S
C408 N411 1.391 . S
C409 H381 0.930 1_565 S
C409 C408 1.390 . S
C409 C410 1.392 . S
C410 H382 0.929 . S
C410 C407 1.391 . S
C410 C409 1.392 . S
N411 Co355 2.257 . S
N411 C408 1.391 . S
N411 C412 1.388 . S
C412 H383 0.930 . S
C412 C407 1.391 . S
C412 N411 1.388 . S
Co413 O415 2.143 . S
Co413 O421 2.074 . S
Co413 O424 2.093 . S
Co413 O437 2.097 . S
Co413 N454 2.151 . S
Co413 N462 2.214 . S
Co414 O415 2.160 . S
Co414 O420 2.058 . S
Co414 O430 2.057 . S
Co414 O445 2.037 . S
Co414 N449 2.145 . S
Co414 N470 2.257 . S
O415 Co413 2.143 . S
O415 Co414 2.160 . S
C416 O417 1.278 . S
C416 O424 1.224 . S
O417 C416 1.278 . S
C418 O419 1.245 . S
C418 O430 1.232 . S
O419 C418 1.245 . S
O420 Co414 2.058 . S
O420 C446 1.269 . S
O421 Co413 2.074 . S
O421 C446 1.257 . S
H422 C447 0.930 . S
H423 C453 0.930 . S
O424 Co413 2.093 . S
O424 C416 1.224 . S
H425 C457 0.929 . S
H426 C459 0.930 . S
H427 C460 0.930 . S
H428 C458 0.929 . S
H429 C461 0.928 . S
O430 Co414 2.057 . S
O430 C418 1.232 . S
H431 C450 0.929 . S
H432 C451 0.929 . S
H433 C463 0.931 . S
H434 C455 0.929 . S
H435 C464 0.930 . S
H436 C456 0.931 . S
O437 Co413 2.097 . S
O437 C465 1.214 . S
H438 C466 0.929 . S
H439 C467 0.929 . S
H440 C468 0.930 . S
H441 C469 0.929 . S
H442 C471 0.930 . S
H443 C448 0.930 . S
H444 C452 0.930 . S
O445 Co414 2.037 . S
O445 C465 1.234 . S
C446 O420 1.269 . S
C446 O421 1.257 . S
C447 H422 0.930 . S
C447 C450 1.388 . S
C447 C452 1.418 . S
C448 H443 0.930 . S
C448 C451 1.404 . S
C448 C452 1.353 . S
N449 Co414 2.145 . S
N449 C450 1.397 . S
N449 C451 1.334 . S
C450 H431 0.929 . S
C450 C447 1.388 . S
C450 N449 1.397 . S
C451 H432 0.929 . S
C451 C448 1.404 . S
C451 N449 1.334 . S
C452 H444 0.930 . S
C452 C447 1.418 . S
C452 C448 1.353 . S
C453 H423 0.930 . S
C453 N454 1.330 . S
C453 C455 1.446 . S
N454 Co413 2.151 . S
N454 C453 1.330 . S
N454 C458 1.418 . S
C455 H434 0.929 . S
C455 C453 1.446 . S
C455 C456 1.332 . S
C456 H436 0.931 . S
C456 C455 1.332 . S
C456 C457 1.267 . S
C457 H425 0.929 . S
C457 C456 1.267 . S
C457 C458 1.251 . S
C458 H428 0.929 . S
C458 N454 1.418 . S
C458 C457 1.251 . S
C459 H426 0.930 . S
C459 C461 1.406 . S
C459 C464 1.261 . S
C460 H427 0.930 . S
C460 N462 1.325 . S
C460 C463 1.357 . S
C461 H429 0.928 . S
C461 C459 1.406 . S
C461 N462 1.261 . S
N462 Co413 2.214 . S
N462 C460 1.325 . S
N462 C461 1.261 . S
C463 H433 0.931 . S
C463 C460 1.357 . S
C463 C464 1.312 . S
C464 H435 0.930 . S
C464 C459 1.261 . S
C464 C463 1.312 . S
C465 O437 1.214 . S
C465 O445 1.234 . S
C466 H438 0.929 . S
C466 C469 1.391 . S
C466 C471 1.391 . S
C467 H439 0.929 . S
C467 C468 1.390 . S
C467 N470 1.391 . S
C468 H440 0.930 . S
C468 C467 1.390 . S
C468 C469 1.392 . S
C469 H441 0.929 . S
C469 C466 1.391 . S
C469 C468 1.392 . S
N470 Co414 2.257 . S
N470 C467 1.391 . S
N470 C471 1.388 . S
C471 H442 0.930 . S
C471 C466 1.391 . S
C471 N470 1.388 . S
Co472 O474 2.143 . S
Co472 O480 2.074 . S
Co472 O483 2.093 . S
Co472 O496 2.097 . S
Co472 N513 2.151 . S
Co472 N521 2.214 . S
Co473 O474 2.160 . S
Co473 O479 2.058 . S
Co473 O489 2.057 . S
Co473 O504 2.037 . S
Co473 N508 2.145 . S
Co473 N529 2.257 . S
O474 Co472 2.143 . S
O474 Co473 2.160 . S
C475 O476 1.278 . S
C475 O483 1.224 . S
O476 C475 1.278 . S
C477 O478 1.245 . S
C477 O489 1.232 . S
O478 C477 1.245 . S
O479 Co473 2.058 . S
O479 C505 1.269 . S
O480 Co472 2.074 . S
O480 C505 1.257 . S
H481 C506 0.930 . S
H482 C512 0.930 . S
O483 Co472 2.093 . S
O483 C475 1.224 . S
H484 C516 0.929 . S
H485 C518 0.930 . S
H486 C519 0.930 . S
H487 C517 0.929 . S
H488 C520 0.928 . S
O489 Co473 2.057 . S
O489 C477 1.232 . S
H490 C509 0.929 . S
H491 C510 0.929 . S
H492 C522 0.931 . S
H493 C514 0.929 . S
H494 C523 0.930 . S
H495 C515 0.931 . S
O496 Co472 2.097 . S
O496 C524 1.214 . S
H497 C525 0.929 . S
H498 C526 0.929 . S
H499 C527 0.930 . S
H500 C528 0.929 . S
H501 C530 0.930 . S
H502 C507 0.930 . S
H503 C511 0.930 . S
O504 Co473 2.037 . S
O504 C524 1.234 . S
C505 O479 1.269 . S
C505 O480 1.257 . S
C506 H481 0.930 . S
C506 C509 1.388 . S
C506 C511 1.418 . S
C507 H502 0.930 . S
C507 C510 1.404 . S
C507 C511 1.353 . S
N508 Co473 2.145 . S
N508 C509 1.397 . S
N508 C510 1.334 . S
C509 H490 0.929 . S
C509 C506 1.388 . S
C509 N508 1.397 . S
C510 H491 0.929 . S
C510 C507 1.404 . S
C510 N508 1.334 . S
C511 H503 0.930 . S
C511 C506 1.418 . S
C511 C507 1.353 . S
C512 H482 0.930 . S
C512 N513 1.330 . S
C512 C514 1.446 . S
N513 Co472 2.151 . S
N513 C512 1.330 . S
N513 C517 1.418 . S
C514 H493 0.929 . S
C514 C512 1.446 . S
C514 C515 1.332 . S
C515 H495 0.931 . S
C515 C514 1.332 . S
C515 C516 1.267 . S
C516 H484 0.929 . S
C516 C515 1.267 . S
C516 C517 1.251 . S
C517 H487 0.929 . S
C517 N513 1.418 . S
C517 C516 1.251 . S
C518 H485 0.930 . S
C518 C520 1.406 . S
C518 C523 1.261 . S
C519 H486 0.930 . S
C519 N521 1.325 . S
C519 C522 1.357 . S
C520 H488 0.928 . S
C520 C518 1.406 . S
C520 N521 1.261 . S
N521 Co472 2.214 . S
N521 C519 1.325 . S
N521 C520 1.261 . S
C522 H492 0.931 . S
C522 C519 1.357 . S
C522 C523 1.312 . S
C523 H494 0.930 . S
C523 C518 1.261 . S
C523 C522 1.312 . S
C524 O496 1.214 . S
C524 O504 1.234 . S
C525 H497 0.929 . S
C525 C528 1.391 . S
C525 C530 1.391 . S
C526 H498 0.929 . S
C526 C527 1.390 . S
C526 N529 1.391 . S
C527 H499 0.930 . S
C527 C526 1.390 . S
C527 C528 1.392 . S
C528 H500 0.929 . S
C528 C525 1.391 . S
C528 C527 1.392 . S
N529 Co473 2.257 . S
N529 C526 1.391 . S
N529 C530 1.388 . S
C530 H501 0.930 . S
C530 C525 1.391 . S
C530 N529 1.388 . S
Co531 O533 2.143 . S
Co531 O539 2.074 . S
Co531 O542 2.093 . S
Co531 O555 2.097 . S
Co531 N572 2.151 . S
Co531 N580 2.214 . S
Co532 O533 2.160 . S
Co532 O538 2.058 . S
Co532 O548 2.057 1_554 S
Co532 O563 2.037 . S
Co532 N567 2.145 1_554 S
Co532 N588 2.257 . S
O533 Co531 2.143 . S
O533 Co532 2.160 . S
C534 O535 1.278 . S
C534 O542 1.224 . S
O535 C534 1.278 . S
C536 O537 1.245 1_556 S
C536 O548 1.232 . S
O537 C536 1.245 1_554 S
O538 Co532 2.058 . S
O538 C564 1.269 . S
O539 Co531 2.074 . S
O539 C564 1.257 . S
H540 C565 0.930 . S
H541 C571 0.930 . S
O542 Co531 2.093 . S
O542 C534 1.224 . S
H543 C575 0.929 . S
H544 C577 0.930 . S
H545 C578 0.930 . S
H546 C576 0.929 . S
H547 C579 0.928 . S
O548 Co532 2.057 1_556 S
O548 C536 1.232 . S
H549 C568 0.929 1_554 S
H550 C569 0.929 . S
H551 C581 0.931 . S
H552 C573 0.929 . S
H553 C582 0.930 . S
H554 C574 0.931 . S
O555 Co531 2.097 . S
O555 C583 1.214 . S
H556 C584 0.929 . S
H557 C585 0.929 . S
H558 C586 0.930 . S
H559 C587 0.929 . S
H560 C589 0.930 . S
H561 C566 0.930 . S
H562 C570 0.930 . S
O563 Co532 2.037 . S
O563 C583 1.234 . S
C564 O538 1.269 . S
C564 O539 1.257 . S
C565 H540 0.930 . S
C565 C568 1.388 . S
C565 C570 1.418 . S
C566 H561 0.930 . S
C566 C569 1.404 . S
C566 C570 1.353 . S
N567 Co532 2.145 1_556 S
N567 C568 1.397 . S
N567 C569 1.334 . S
C568 H549 0.929 1_556 S
C568 C565 1.388 . S
C568 N567 1.397 . S
C569 H550 0.929 . S
C569 C566 1.404 . S
C569 N567 1.334 . S
C570 H562 0.930 . S
C570 C565 1.418 . S
C570 C566 1.353 . S
C571 H541 0.930 . S
C571 N572 1.330 . S
C571 C573 1.446 . S
N572 Co531 2.151 . S
N572 C571 1.330 . S
N572 C576 1.418 . S
C573 H552 0.929 . S
C573 C571 1.446 . S
C573 C574 1.332 . S
C574 H554 0.931 . S
C574 C573 1.332 . S
C574 C575 1.267 . S
C575 H543 0.929 . S
C575 C574 1.267 . S
C575 C576 1.251 . S
C576 H546 0.929 . S
C576 N572 1.418 . S
C576 C575 1.251 . S
C577 H544 0.930 . S
C577 C579 1.406 . S
C577 C582 1.261 . S
C578 H545 0.930 . S
C578 N580 1.325 . S
C578 C581 1.357 . S
C579 H547 0.928 . S
C579 C577 1.406 . S
C579 N580 1.261 . S
N580 Co531 2.214 . S
N580 C578 1.325 . S
N580 C579 1.261 . S
C581 H551 0.931 . S
C581 C578 1.357 . S
C581 C582 1.312 . S
C582 H553 0.930 . S
C582 C577 1.261 . S
C582 C581 1.312 . S
C583 O555 1.214 . S
C583 O563 1.234 . S
C584 H556 0.929 . S
C584 C587 1.391 . S
C584 C589 1.391 . S
C585 H557 0.929 . S
C585 C586 1.390 . S
C585 N588 1.391 . S
C586 H558 0.930 . S
C586 C585 1.390 . S
C586 C587 1.392 . S
C587 H559 0.929 . S
C587 C584 1.391 . S
C587 C586 1.392 . S
N588 Co532 2.257 . S
N588 C585 1.391 . S
N588 C589 1.388 . S
C589 H560 0.930 . S
C589 C584 1.391 . S
C589 N588 1.388 . S
Co590 O592 2.143 . S
Co590 O598 2.074 . S
Co590 O601 2.093 . S
Co590 O614 2.097 . S
Co590 N631 2.151 . S
Co590 N639 2.214 . S
Co591 O592 2.160 . S
Co591 O597 2.058 . S
Co591 O607 2.057 1_554 S
Co591 O622 2.037 1_565 S
Co591 N626 2.145 1_564 S
Co591 N647 2.257 . S
O592 Co590 2.143 . S
O592 Co591 2.160 . S
C593 O594 1.278 . S
C593 O601 1.224 . S
O594 C593 1.278 . S
C595 O596 1.245 1_556 S
C595 O607 1.232 . S
O596 C595 1.245 1_554 S
O597 Co591 2.058 . S
O597 C623 1.269 . S
O598 Co590 2.074 . S
O598 C623 1.257 . S
H599 C624 0.930 . S
H600 C630 0.930 . S
O601 Co590 2.093 . S
O601 C593 1.224 . S
H602 C634 0.929 . S
H603 C636 0.930 . S
H604 C637 0.911 1_545 S
H605 C635 0.929 . S
H606 C638 0.928 . S
O607 Co591 2.057 1_556 S
O607 C595 1.232 . S
H608 C627 0.929 1_554 S
H609 C628 0.929 . S
H610 C640 0.918 1_545 S
H611 C632 0.929 . S
H612 C641 0.930 . S
H613 C633 0.931 . S
O614 Co590 2.097 . S
O614 C642 1.214 1_565 S
H615 C643 0.929 . S
H616 C644 0.929 1_545 S
H617 C645 0.930 1_545 S
H618 C646 0.929 . S
H619 C648 0.930 . S
H620 C625 0.930 . S
H621 C629 0.930 . S
O622 Co591 2.037 1_545 S
O622 C642 1.234 . S
C623 O597 1.269 . S
C623 O598 1.257 . S
C624 H599 0.930 . S
C624 C627 1.388 . S
C624 C629 1.418 . S
C625 H620 0.930 . S
C625 C628 1.404 1_545 S
C625 C629 1.353 . S
N626 Co591 2.145 1_546 S
N626 C627 1.397 . S
N626 C628 1.334 1_545 S
C627 H608 0.929 1_556 S
C627 C624 1.388 . S
C627 N626 1.397 . S
C628 H609 0.929 . S
C628 C625 1.404 1_565 S
C628 N626 1.334 1_565 S
C629 H621 0.930 . S
C629 C624 1.418 . S
C629 C625 1.353 . S
C630 H600 0.930 . S
C630 N631 1.330 . S
C630 C632 1.446 . S
N631 Co590 2.151 . S
N631 C630 1.330 . S
N631 C635 1.418 . S
C632 H611 0.929 . S
C632 C630 1.446 . S
C632 C633 1.332 . S
C633 H613 0.931 . S
C633 C632 1.332 . S
C633 C634 1.267 . S
C634 H602 0.929 . S
C634 C633 1.267 . S
C634 C635 1.251 . S
C635 H605 0.929 . S
C635 N631 1.418 . S
C635 C634 1.251 . S
C636 H603 0.930 . S
C636 C638 1.406 . S
C636 C641 1.261 . S
C637 H604 0.911 1_565 S
C637 N639 1.325 . S
C637 C640 1.356 . S
C638 H606 0.928 . S
C638 C636 1.406 . S
C638 N639 1.261 . S
N639 Co590 2.214 . S
N639 C637 1.325 . S
N639 C638 1.261 . S
C640 H610 0.918 1_565 S
C640 C637 1.356 . S
C640 C641 1.327 . S
C641 H612 0.930 . S
C641 C636 1.261 . S
C641 C640 1.327 . S
C642 O614 1.214 1_545 S
C642 O622 1.234 . S
C643 H615 0.929 . S
C643 C646 1.391 . S
C643 C648 1.391 . S
C644 H616 0.929 1_565 S
C644 C645 1.390 . S
C644 N647 1.391 . S
C645 H617 0.930 1_565 S
C645 C644 1.390 . S
C645 C646 1.392 . S
C646 H618 0.929 . S
C646 C643 1.391 . S
C646 C645 1.392 . S
N647 Co591 2.257 . S
N647 C644 1.391 . S
N647 C648 1.388 . S
C648 H619 0.930 . S
C648 C643 1.391 . S
C648 N647 1.388 . S
Co649 O651 2.143 . S
Co649 O657 2.074 . S
Co649 O660 2.093 . S
Co649 O673 2.097 . S
Co649 N690 2.151 . S
Co649 N698 2.214 . S
Co650 O651 2.160 . S
Co650 O656 2.058 . S
Co650 O666 2.057 1_554 S
Co650 O681 2.037 . S
Co650 N685 2.145 1_554 S
Co650 N706 2.257 . S
O651 Co649 2.143 . S
O651 Co650 2.160 . S
C652 O653 1.278 . S
C652 O660 1.224 . S
O653 C652 1.278 . S
C654 O655 1.245 1_556 S
C654 O666 1.232 . S
O655 C654 1.245 1_554 S
O656 Co650 2.058 . S
O656 C682 1.269 . S
O657 Co649 2.074 . S
O657 C682 1.257 . S
H658 C683 0.930 . S
H659 C689 0.930 . S
O660 Co649 2.093 . S
O660 C652 1.224 . S
H661 C693 0.929 . S
H662 C695 0.930 . S
H663 C696 0.930 . S
H664 C694 0.929 . S
H665 C697 0.928 . S
O666 Co650 2.057 1_556 S
O666 C654 1.232 . S
H667 C686 0.929 1_554 S
H668 C687 0.929 . S
H669 C699 0.931 . S
H670 C691 0.929 . S
H671 C700 0.930 . S
H672 C692 0.931 . S
O673 Co649 2.097 . S
O673 C701 1.214 . S
H674 C702 0.929 . S
H675 C703 0.929 . S
H676 C704 0.930 . S
H677 C705 0.929 . S
H678 C707 0.930 . S
H679 C684 0.930 . S
H680 C688 0.930 . S
O681 Co650 2.037 . S
O681 C701 1.234 . S
C682 O656 1.269 . S
C682 O657 1.257 . S
C683 H658 0.930 . S
C683 C686 1.388 . S
C683 C688 1.418 . S
C684 H679 0.930 . S
C684 C687 1.404 . S
C684 C688 1.353 . S
N685 Co650 2.145 1_556 S
N685 C686 1.397 . S
N685 C687 1.334 . S
C686 H667 0.929 1_556 S
C686 C683 1.388 . S
C686 N685 1.397 . S
C687 H668 0.929 . S
C687 C684 1.404 . S
C687 N685 1.334 . S
C688 H680 0.930 . S
C688 C683 1.418 . S
C688 C684 1.353 . S
C689 H659 0.930 . S
C689 N690 1.330 . S
C689 C691 1.446 . S
N690 Co649 2.151 . S
N690 C689 1.330 . S
N690 C694 1.418 . S
C691 H670 0.929 . S
C691 C689 1.446 . S
C691 C692 1.332 . S
C692 H672 0.931 . S
C692 C691 1.332 . S
C692 C693 1.267 . S
C693 H661 0.929 . S
C693 C692 1.267 . S
C693 C694 1.251 . S
C694 H664 0.929 . S
C694 N690 1.418 . S
C694 C693 1.251 . S
C695 H662 0.930 . S
C695 C697 1.406 . S
C695 C700 1.261 . S
C696 H663 0.930 . S
C696 N698 1.325 . S
C696 C699 1.357 . S
C697 H665 0.928 . S
C697 C695 1.406 . S
C697 N698 1.261 . S
N698 Co649 2.214 . S
N698 C696 1.325 . S
N698 C697 1.261 . S
C699 H669 0.931 . S
C699 C696 1.357 . S
C699 C700 1.312 . S
C700 H671 0.930 . S
C700 C695 1.261 . S
C700 C699 1.312 . S
C701 O673 1.214 . S
C701 O681 1.234 . S
C702 H674 0.929 . S
C702 C705 1.391 . S
C702 C707 1.391 . S
C703 H675 0.929 . S
C703 C704 1.390 . S
C703 N706 1.391 . S
C704 H676 0.930 . S
C704 C703 1.390 . S
C704 C705 1.392 . S
C705 H677 0.929 . S
C705 C702 1.391 . S
C705 C704 1.392 . S
N706 Co650 2.257 . S
N706 C703 1.391 . S
N706 C707 1.388 . S
C707 H678 0.930 . S
C707 C702 1.391 . S
C707 N706 1.388 . S
Co708 O710 2.143 . S
Co708 O716 2.074 . S
Co708 O719 2.093 . S
Co708 O732 2.097 . S
Co708 N749 2.151 . S
Co708 N757 2.214 . S
Co709 O710 2.160 . S
Co709 O715 2.058 . S
Co709 O725 2.057 1_556 S
Co709 O740 2.037 . S
Co709 N744 2.145 1_556 S
Co709 N765 2.257 . S
O710 Co708 2.143 . S
O710 Co709 2.160 . S
C711 O712 1.278 . S
C711 O719 1.224 . S
O712 C711 1.278 . S
C713 O714 1.245 1_554 S
C713 O725 1.232 . S
O714 C713 1.245 1_556 S
O715 Co709 2.058 . S
O715 C741 1.269 . S
O716 Co708 2.074 . S
O716 C741 1.257 . S
H717 C742 0.930 . S
H718 C748 0.930 . S
O719 Co708 2.093 . S
O719 C711 1.224 . S
H720 C752 0.929 . S
H721 C754 0.930 . S
H722 C755 0.930 . S
H723 C753 0.929 . S
H724 C756 0.928 . S
O725 Co709 2.057 1_554 S
O725 C713 1.232 . S
H726 C745 0.929 1_556 S
H727 C746 0.929 . S
H728 C758 0.931 . S
H729 C750 0.929 . S
H730 C759 0.930 . S
H731 C751 0.931 . S
O732 Co708 2.097 . S
O732 C760 1.214 . S
H733 C761 0.929 . S
H734 C762 0.929 . S
H735 C763 0.930 . S
H736 C764 0.929 . S
H737 C766 0.930 . S
H738 C743 0.930 . S
H739 C747 0.930 . S
O740 Co709 2.037 . S
O740 C760 1.234 . S
C741 O715 1.269 . S
C741 O716 1.257 . S
C742 H717 0.930 . S
C742 C745 1.388 . S
C742 C747 1.418 . S
C743 H738 0.930 . S
C743 C746 1.404 . S
C743 C747 1.353 . S
N744 Co709 2.145 1_554 S
N744 C745 1.397 . S
N744 C746 1.334 . S
C745 H726 0.929 1_554 S
C745 C742 1.388 . S
C745 N744 1.397 . S
C746 H727 0.929 . S
C746 C743 1.404 . S
C746 N744 1.334 . S
C747 H739 0.930 . S
C747 C742 1.418 . S
C747 C743 1.353 . S
C748 H718 0.930 . S
C748 N749 1.330 . S
C748 C750 1.446 . S
N749 Co708 2.151 . S
N749 C748 1.330 . S
N749 C753 1.418 . S
C750 H729 0.929 . S
C750 C748 1.446 . S
C750 C751 1.332 . S
C751 H731 0.931 . S
C751 C750 1.332 . S
C751 C752 1.267 . S
C752 H720 0.929 . S
C752 C751 1.267 . S
C752 C753 1.251 . S
C753 H723 0.929 . S
C753 N749 1.418 . S
C753 C752 1.251 . S
C754 H721 0.930 . S
C754 C756 1.406 . S
C754 C759 1.261 . S
C755 H722 0.930 . S
C755 N757 1.325 . S
C755 C758 1.357 . S
C756 H724 0.928 . S
C756 C754 1.406 . S
C756 N757 1.261 . S
N757 Co708 2.214 . S
N757 C755 1.325 . S
N757 C756 1.261 . S
C758 H728 0.931 . S
C758 C755 1.357 . S
C758 C759 1.312 . S
C759 H730 0.930 . S
C759 C754 1.261 . S
C759 C758 1.312 . S
C760 O732 1.214 . S
C760 O740 1.234 . S
C761 H733 0.929 . S
C761 C764 1.391 . S
C761 C766 1.391 . S
C762 H734 0.929 . S
C762 C763 1.390 . S
C762 N765 1.391 . S
C763 H735 0.930 . S
C763 C762 1.390 . S
C763 C764 1.392 . S
C764 H736 0.929 . S
C764 C761 1.391 . S
C764 C763 1.392 . S
N765 Co709 2.257 . S
N765 C762 1.391 . S
N765 C766 1.388 . S
C766 H737 0.930 . S
C766 C761 1.391 . S
C766 N765 1.388 . S
Co767 O769 2.143 . S
Co767 O775 2.074 . S
Co767 O778 2.093 1_556 S
Co767 O791 2.097 . S
Co767 N808 2.151 . S
Co767 N816 2.214 1_556 S
Co768 O769 2.160 . S
Co768 O774 2.058 . S
Co768 O784 2.057 . S
Co768 O799 2.037 . S
Co768 N803 2.145 . S
Co768 N824 2.257 . S
O769 Co767 2.143 . S
O769 Co768 2.160 . S
C770 O771 1.278 1_554 S
C770 O778 1.224 . S
O771 C770 1.278 1_556 S
C772 O773 1.245 . S
C772 O784 1.232 . S
O773 C772 1.245 . S
O774 Co768 2.058 . S
O774 C800 1.269 . S
O775 Co767 2.074 . S
O775 C800 1.257 . S
H776 C801 0.930 . S
H777 C807 0.930 . S
O778 Co767 2.093 1_554 S
O778 C770 1.224 . S
H779 C811 0.929 . S
H780 C813 0.930 . S
H781 C814 0.930 . S
H782 C812 0.929 . S
H783 C815 0.928 . S
O784 Co768 2.057 . S
O784 C772 1.232 . S
H785 C804 0.929 . S
H786 C805 0.929 . S
H787 C817 0.931 . S
H788 C809 0.929 . S
H789 C818 0.930 . S
H790 C810 0.931 . S
O791 Co767 2.097 . S
O791 C819 1.214 . S
H792 C820 0.929 . S
H793 C821 0.929 . S
H794 C822 0.930 . S
H795 C823 0.929 . S
H796 C825 0.930 . S
H797 C802 0.930 . S
H798 C806 0.930 . S
O799 Co768 2.037 . S
O799 C819 1.234 . S
C800 O774 1.269 . S
C800 O775 1.257 . S
C801 H776 0.930 . S
C801 C804 1.388 . S
C801 C806 1.418 . S
C802 H797 0.930 . S
C802 C805 1.404 . S
C802 C806 1.353 . S
N803 Co768 2.145 . S
N803 C804 1.397 . S
N803 C805 1.334 . S
C804 H785 0.929 . S
C804 C801 1.388 . S
C804 N803 1.397 . S
C805 H786 0.929 . S
C805 C802 1.404 . S
C805 N803 1.334 . S
C806 H798 0.930 . S
C806 C801 1.418 . S
C806 C802 1.353 . S
C807 H777 0.930 . S
C807 N808 1.330 . S
C807 C809 1.446 . S
N808 Co767 2.151 . S
N808 C807 1.330 . S
N808 C812 1.418 . S
C809 H788 0.929 . S
C809 C807 1.446 . S
C809 C810 1.332 . S
C810 H790 0.931 . S
C810 C809 1.332 . S
C810 C811 1.267 . S
C811 H779 0.929 . S
C811 C810 1.267 . S
C811 C812 1.251 . S
C812 H782 0.929 . S
C812 N808 1.418 . S
C812 C811 1.251 . S
C813 H780 0.930 . S
C813 C815 1.406 . S
C813 C818 1.261 . S
C814 H781 0.930 . S
C814 N816 1.325 . S
C814 C817 1.357 . S
C815 H783 0.928 . S
C815 C813 1.406 . S
C815 N816 1.261 . S
N816 Co767 2.214 1_554 S
N816 C814 1.325 . S
N816 C815 1.261 . S
C817 H787 0.931 . S
C817 C814 1.357 . S
C817 C818 1.312 . S
C818 H789 0.930 . S
C818 C813 1.261 . S
C818 C817 1.312 . S
C819 O791 1.214 . S
C819 O799 1.234 . S
C820 H792 0.929 . S
C820 C823 1.391 . S
C820 C825 1.391 . S
C821 H793 0.929 . S
C821 C822 1.390 . S
C821 N824 1.391 . S
C822 H794 0.930 . S
C822 C821 1.390 . S
C822 C823 1.392 . S
C823 H795 0.929 . S
C823 C820 1.391 . S
C823 C822 1.392 . S
N824 Co768 2.257 . S
N824 C821 1.391 . S
N824 C825 1.388 . S
C825 H796 0.930 . S
C825 C820 1.391 . S
C825 N824 1.388 . S
Co826 O828 2.143 . S
Co826 O834 2.074 . S
Co826 O837 2.093 . S
Co826 O850 2.097 . S
Co826 N867 2.151 . S
Co826 N875 2.214 . S
Co827 O828 2.160 . S
Co827 O833 2.058 . S
Co827 O843 2.057 1_556 S
Co827 O858 2.037 1_655 S
Co827 N862 2.145 1_656 S
Co827 N883 2.257 . S
O828 Co826 2.143 . S
O828 Co827 2.160 . S
C829 O830 1.278 . S
C829 O837 1.224 . S
O830 C829 1.278 . S
C831 O832 1.245 1_554 S
C831 O843 1.232 . S
O832 C831 1.245 1_556 S
O833 Co827 2.058 . S
O833 C859 1.269 . S
O834 Co826 2.074 . S
O834 C859 1.257 . S
H835 C860 0.930 . S
H836 C866 0.930 . S
O837 Co826 2.093 . S
O837 C829 1.224 . S
H838 C870 0.929 . S
H839 C872 0.930 . S
H840 C873 0.936 . S
H841 C871 0.929 . S
H842 C874 0.928 . S
O843 Co827 2.057 1_554 S
O843 C831 1.232 . S
H844 C863 0.929 1_556 S
H845 C864 0.929 . S
H846 C876 0.931 1_455 S
H847 C868 0.929 . S
H848 C877 0.930 . S
H849 C869 0.931 . S
O850 Co826 2.097 . S
O850 C878 1.214 1_655 S
H851 C879 0.929 . S
H852 C880 0.929 1_455 S
H853 C881 0.930 1_455 S
H854 C882 0.929 . S
H855 C884 0.930 . S
H856 C861 0.930 . S
H857 C865 0.930 . S
O858 Co827 2.037 1_455 S
O858 C878 1.234 . S
C859 O833 1.269 . S
C859 O834 1.257 . S
C860 H835 0.930 . S
C860 C863 1.388 . S
C860 C865 1.418 . S
C861 H856 0.930 . S
C861 C864 1.404 1_455 S
C861 C865 1.353 . S
N862 Co827 2.145 1_454 S
N862 C863 1.397 . S
N862 C864 1.334 1_455 S
C863 H844 0.929 1_554 S
C863 C860 1.388 . S
C863 N862 1.397 . S
C864 H845 0.929 . S
C864 C861 1.404 1_655 S
C864 N862 1.334 1_655 S
C865 H857 0.930 . S
C865 C860 1.418 . S
C865 C861 1.353 . S
C866 H836 0.930 . S
C866 N867 1.330 . S
C866 C868 1.446 . S
N867 Co826 2.151 . S
N867 C866 1.330 . S
N867 C871 1.418 . S
C868 H847 0.929 . S
C868 C866 1.446 . S
C868 C869 1.332 . S
C869 H849 0.931 . S
C869 C868 1.332 . S
C869 C870 1.267 . S
C870 H838 0.929 . S
C870 C869 1.267 . S
C870 C871 1.251 . S
C871 H841 0.929 . S
C871 N867 1.418 . S
C871 C870 1.251 . S
C872 H839 0.930 . S
C872 C874 1.406 . S
C872 C877 1.261 . S
C873 H840 0.936 . S
C873 N875 1.325 . S
C873 C876 1.357 . S
C874 H842 0.928 . S
C874 C872 1.406 . S
C874 N875 1.261 . S
N875 Co826 2.214 . S
N875 C873 1.325 . S
N875 C874 1.261 . S
C876 H846 0.931 1_655 S
C876 C873 1.357 . S
C876 C877 1.312 . S
C877 H848 0.930 . S
C877 C872 1.261 . S
C877 C876 1.312 . S
C878 O850 1.214 1_455 S
C878 O858 1.234 . S
C879 H851 0.929 . S
C879 C882 1.391 . S
C879 C884 1.391 . S
C880 H852 0.929 1_655 S
C880 C881 1.390 . S
C880 N883 1.391 . S
C881 H853 0.930 1_655 S
C881 C880 1.390 . S
C881 C882 1.392 . S
C882 H854 0.929 . S
C882 C879 1.391 . S
C882 C881 1.392 . S
N883 Co827 2.257 . S
N883 C880 1.391 . S
N883 C884 1.388 . S
C884 H855 0.930 . S
C884 C879 1.391 . S
C884 N883 1.388 . S
Co885 O887 2.143 . S
Co885 O893 2.074 . S
Co885 O896 2.093 . S
Co885 O909 2.097 . S
Co885 N926 2.151 . S
Co885 N934 2.214 . S
Co886 O887 2.160 . S
Co886 O892 2.058 . S
Co886 O902 2.057 . S
Co886 O917 2.037 . S
Co886 N921 2.145 . S
Co886 N942 2.257 . S
O887 Co885 2.143 . S
O887 Co886 2.160 . S
C888 O889 1.278 . S
C888 O896 1.224 . S
O889 C888 1.278 . S
C890 O891 1.245 . S
C890 O902 1.232 . S
O891 C890 1.245 . S
O892 Co886 2.058 . S
O892 C918 1.269 . S
O893 Co885 2.074 . S
O893 C918 1.257 . S
H894 C919 0.930 . S
H895 C925 0.930 . S
O896 Co885 2.093 . S
O896 C888 1.224 . S
H897 C929 0.929 . S
H898 C931 0.930 . S
H899 C932 0.930 . S
H900 C930 0.929 . S
H901 C933 0.928 . S
O902 Co886 2.057 . S
O902 C890 1.232 . S
H903 C922 0.929 . S
H904 C923 0.929 . S
H905 C935 0.931 . S
H906 C927 0.929 . S
H907 C936 0.930 . S
H908 C928 0.931 . S
O909 Co885 2.097 . S
O909 C937 1.214 . S
H910 C938 0.929 . S
H911 C939 0.929 . S
H912 C940 0.930 . S
H913 C941 0.929 . S
H914 C943 0.930 . S
H915 C920 0.930 . S
H916 C924 0.930 . S
O917 Co886 2.037 . S
O917 C937 1.234 . S
C918 O892 1.269 . S
C918 O893 1.257 . S
C919 H894 0.930 . S
C919 C922 1.388 . S
C919 C924 1.418 . S
C920 H915 0.930 . S
C920 C923 1.404 . S
C920 C924 1.353 . S
N921 Co886 2.145 . S
N921 C922 1.397 . S
N921 C923 1.334 . S
C922 H903 0.929 . S
C922 C919 1.388 . S
C922 N921 1.397 . S
C923 H904 0.929 . S
C923 C920 1.404 . S
C923 N921 1.334 . S
C924 H916 0.930 . S
C924 C919 1.418 . S
C924 C920 1.353 . S
C925 H895 0.930 . S
C925 N926 1.330 . S
C925 C927 1.446 . S
N926 Co885 2.151 . S
N926 C925 1.330 . S
N926 C930 1.418 . S
C927 H906 0.929 . S
C927 C925 1.446 . S
C927 C928 1.332 . S
C928 H908 0.931 . S
C928 C927 1.332 . S
C928 C929 1.267 . S
C929 H897 0.929 . S
C929 C928 1.267 . S
C929 C930 1.251 . S
C930 H900 0.929 . S
C930 N926 1.418 . S
C930 C929 1.251 . S
C931 H898 0.930 . S
C931 C933 1.406 . S
C931 C936 1.261 . S
C932 H899 0.930 . S
C932 N934 1.325 . S
C932 C935 1.357 . S
C933 H901 0.928 . S
C933 C931 1.406 . S
C933 N934 1.261 . S
N934 Co885 2.214 . S
N934 C932 1.325 . S
N934 C933 1.261 . S
C935 H905 0.931 . S
C935 C932 1.357 . S
C935 C936 1.312 . S
C936 H907 0.930 . S
C936 C931 1.261 . S
C936 C935 1.312 . S
C937 O909 1.214 . S
C937 O917 1.234 . S
C938 H910 0.929 . S
C938 C941 1.391 . S
C938 C943 1.391 . S
C939 H911 0.929 . S
C939 C940 1.390 . S
C939 N942 1.391 . S
C940 H912 0.930 . S
C940 C939 1.390 . S
C940 C941 1.392 . S
C941 H913 0.929 . S
C941 C938 1.391 . S
C941 C940 1.392 . S
N942 Co886 2.257 . S
N942 C939 1.391 . S
N942 C943 1.388 . S
C943 H914 0.930 . S
C943 C938 1.391 . S
C943 N942 1.388 . S
Co944 O946 2.143 . S
Co944 O952 2.074 . S
Co944 O955 2.093 . S
Co944 O968 2.097 . S
Co944 N985 2.151 . S
Co944 N993 2.214 . S
Co945 O946 2.160 . S
Co945 O951 2.058 . S
Co945 O961 2.057 . S
Co945 O976 2.037 1_655 S
Co945 N980 2.145 1_655 S
Co945 N1001 2.257 . S
O946 Co944 2.143 . S
O946 Co945 2.160 . S
C947 O948 1.278 . S
C947 O955 1.224 . S
O948 C947 1.278 . S
C949 O950 1.245 . S
C949 O961 1.232 . S
O950 C949 1.245 . S
O951 Co945 2.058 . S
O951 C977 1.269 . S
O952 Co944 2.074 . S
O952 C977 1.257 . S
H953 C978 0.930 . S
H954 C984 0.930 . S
O955 Co944 2.093 . S
O955 C947 1.224 . S
H956 C988 0.929 . S
H957 C990 0.930 . S
H958 C991 0.948 . S
H959 C989 0.929 . S
H960 C992 0.928 . S
O961 Co945 2.057 . S
O961 C949 1.232 . S
H962 C981 0.929 . S
H963 C982 0.929 . S
H964 C994 0.931 1_455 S
H965 C986 0.929 . S
H966 C995 0.930 . S
H967 C987 0.931 . S
O968 Co944 2.097 . S
O968 C996 1.214 1_655 S
H969 C997 0.929 . S
H970 C998 0.929 1_455 S
H971 C999 0.930 1_455 S
H972 C1000 0.929 . S
H973 C1002 0.930 . S
H974 C979 0.930 . S
H975 C983 0.930 . S
O976 Co945 2.037 1_455 S
O976 C996 1.234 . S
C977 O951 1.269 . S
C977 O952 1.257 . S
C978 H953 0.930 . S
C978 C981 1.388 . S
C978 C983 1.418 . S
C979 H974 0.930 . S
C979 C982 1.404 1_455 S
C979 C983 1.353 . S
N980 Co945 2.145 1_455 S
N980 C981 1.397 . S
N980 C982 1.334 1_455 S
C981 H962 0.929 . S
C981 C978 1.388 . S
C981 N980 1.397 . S
C982 H963 0.929 . S
C982 C979 1.404 1_655 S
C982 N980 1.334 1_655 S
C983 H975 0.930 . S
C983 C978 1.418 . S
C983 C979 1.353 . S
C984 H954 0.930 . S
C984 N985 1.330 . S
C984 C986 1.446 . S
N985 Co944 2.151 . S
N985 C984 1.330 . S
N985 C989 1.418 . S
C986 H965 0.929 . S
C986 C984 1.446 . S
C986 C987 1.332 . S
C987 H967 0.931 . S
C987 C986 1.332 . S
C987 C988 1.267 . S
C988 H956 0.929 . S
C988 C987 1.267 . S
C988 C989 1.251 . S
C989 H959 0.929 . S
C989 N985 1.418 . S
C989 C988 1.251 . S
C990 H957 0.930 . S
C990 C992 1.406 . S
C990 C995 1.261 . S
C991 H958 0.948 . S
C991 N993 1.325 . S
C991 C994 1.357 . S
C992 H960 0.928 . S
C992 C990 1.406 . S
C992 N993 1.261 . S
N993 Co944 2.214 . S
N993 C991 1.325 . S
N993 C992 1.261 . S
C994 H964 0.931 1_655 S
C994 C991 1.357 . S
C994 C995 1.312 . S
C995 H966 0.930 . S
C995 C990 1.261 . S
C995 C994 1.312 . S
C996 O968 1.214 1_455 S
C996 O976 1.234 . S
C997 H969 0.929 . S
C997 C1000 1.391 . S
C997 C1002 1.391 . S
C998 H970 0.929 1_655 S
C998 C999 1.390 . S
C998 N1001 1.391 . S
C999 H971 0.930 1_655 S
C999 C998 1.390 . S
C999 C1000 1.392 . S
C1000 H972 0.929 . S
C1000 C997 1.391 . S
C1000 C999 1.392 . S
N1001 Co945 2.257 . S
N1001 C998 1.391 . S
N1001 C1002 1.388 . S
C1002 H973 0.930 . S
C1002 C997 1.391 . S
C1002 N1001 1.388 . S
Co1003 O1005 2.143 . S
Co1003 O1011 2.074 . S
Co1003 O1014 2.093 . S
Co1003 O1027 2.097 . S
Co1003 N1044 2.151 . S
Co1003 N1052 2.214 . S
Co1004 O1005 2.160 . S
Co1004 O1010 2.058 . S
Co1004 O1020 2.057 . S
Co1004 O1035 2.037 . S
Co1004 N1039 2.145 . S
Co1004 N1060 2.257 . S
O1005 Co1003 2.143 . S
O1005 Co1004 2.160 . S
C1006 O1007 1.278 . S
C1006 O1014 1.224 . S
O1007 C1006 1.278 . S
C1008 O1009 1.245 . S
C1008 O1020 1.232 . S
O1009 C1008 1.245 . S
O1010 Co1004 2.058 . S
O1010 C1036 1.269 . S
O1011 Co1003 2.074 . S
O1011 C1036 1.257 . S
H1012 C1037 0.930 . S
H1013 C1043 0.930 . S
O1014 Co1003 2.093 . S
O1014 C1006 1.224 . S
H1015 C1047 0.929 . S
H1016 C1049 0.930 . S
H1017 C1050 0.930 . S
H1018 C1048 0.929 . S
H1019 C1051 0.928 . S
O1020 Co1004 2.057 . S
O1020 C1008 1.232 . S
H1021 C1040 0.929 . S
H1022 C1041 0.929 . S
H1023 C1053 0.931 . S
H1024 C1045 0.929 . S
H1025 C1054 0.930 . S
H1026 C1046 0.931 . S
O1027 Co1003 2.097 . S
O1027 C1055 1.214 . S
H1028 C1056 0.929 . S
H1029 C1057 0.929 . S
H1030 C1058 0.930 . S
H1031 C1059 0.929 . S
H1032 C1061 0.930 . S
H1033 C1038 0.930 . S
H1034 C1042 0.930 . S
O1035 Co1004 2.037 . S
O1035 C1055 1.234 . S
C1036 O1010 1.269 . S
C1036 O1011 1.257 . S
C1037 H1012 0.930 . S
C1037 C1040 1.388 . S
C1037 C1042 1.418 . S
C1038 H1033 0.930 . S
C1038 C1041 1.404 . S
C1038 C1042 1.353 . S
N1039 Co1004 2.145 . S
N1039 C1040 1.397 . S
N1039 C1041 1.334 . S
C1040 H1021 0.929 . S
C1040 C1037 1.388 . S
C1040 N1039 1.397 . S
C1041 H1022 0.929 . S
C1041 C1038 1.404 . S
C1041 N1039 1.334 . S
C1042 H1034 0.930 . S
C1042 C1037 1.418 . S
C1042 C1038 1.353 . S
C1043 H1013 0.930 . S
C1043 N1044 1.330 . S
C1043 C1045 1.446 . S
N1044 Co1003 2.151 . S
N1044 C1043 1.330 . S
N1044 C1048 1.418 . S
C1045 H1024 0.929 . S
C1045 C1043 1.446 . S
C1045 C1046 1.332 . S
C1046 H1026 0.931 . S
C1046 C1045 1.332 . S
C1046 C1047 1.267 . S
C1047 H1015 0.929 . S
C1047 C1046 1.267 . S
C1047 C1048 1.251 . S
C1048 H1018 0.929 . S
C1048 N1044 1.418 . S
C1048 C1047 1.251 . S
C1049 H1016 0.930 . S
C1049 C1051 1.406 . S
C1049 C1054 1.261 . S
C1050 H1017 0.930 . S
C1050 N1052 1.325 . S
C1050 C1053 1.357 . S
C1051 H1019 0.928 . S
C1051 C1049 1.406 . S
C1051 N1052 1.261 . S
N1052 Co1003 2.214 . S
N1052 C1050 1.325 . S
N1052 C1051 1.261 . S
C1053 H1023 0.931 . S
C1053 C1050 1.357 . S
C1053 C1054 1.312 . S
C1054 H1025 0.930 . S
C1054 C1049 1.261 . S
C1054 C1053 1.312 . S
C1055 O1027 1.214 . S
C1055 O1035 1.234 . S
C1056 H1028 0.929 . S
C1056 C1059 1.391 . S
C1056 C1061 1.391 . S
C1057 H1029 0.929 . S
C1057 C1058 1.390 . S
C1057 N1060 1.391 . S
C1058 H1030 0.930 . S
C1058 C1057 1.390 . S
C1058 C1059 1.392 . S
C1059 H1031 0.929 . S
C1059 C1056 1.391 . S
C1059 C1058 1.392 . S
N1060 Co1004 2.257 . S
N1060 C1057 1.391 . S
N1060 C1061 1.388 . S
C1061 H1032 0.930 . S
C1061 C1056 1.391 . S
C1061 N1060 1.388 . S
C1062 C1063 1.391 . S
C1062 C1064 1.394 . S
C1062 H1078 0.931 . S
C1063 C1062 1.391 . S
C1063 C1067 1.376 . S
C1064 C1062 1.394 . S
C1064 C1065 1.369 . S
C1064 C1068 1.531 1_556 S
C1065 C1064 1.369 . S
C1065 C1066 1.410 . S
C1065 C1073 1.503 1_556 S
C1066 C1065 1.410 . S
C1066 C1067 1.392 . S
C1066 C1069 1.511 . S
C1067 C1063 1.376 . S
C1067 C1066 1.392 . S
C1067 H1079 0.929 . S
C1068 C1064 1.531 1_554 S
C1068 H1080 0.960 . S
C1068 H1081 0.962 . S
C1068 H1082 0.960 . S
C1069 C1066 1.511 . S
C1069 H1083 0.961 . S
C1069 H1084 0.961 . S
C1069 H1085 0.961 . S
C1070 C1071 1.370 . S
C1070 C1072 1.363 . S
C1070 H1086 0.931 . S
C1071 C1070 1.370 . S
C1071 C1075 1.408 . S
C1072 C1070 1.363 . S
C1072 C1073 1.370 . S
C1072 C1076 1.524 1_554 S
C1073 C1065 1.503 1_554 S
C1073 C1072 1.370 . S
C1073 C1074 1.403 . S
C1074 C1073 1.403 . S
C1074 C1075 1.404 . S
C1074 C1077 1.539 . S
C1075 C1071 1.408 . S
C1075 C1074 1.404 . S
C1075 H1087 0.930 . S
C1076 C1072 1.524 1_556 S
C1076 H1088 0.956 . S
C1076 H1089 0.961 . S
C1076 H1090 0.961 . S
C1077 C1074 1.539 . S
C1077 H1091 0.958 . S
C1077 H1092 0.961 . S
C1077 H1093 0.960 . S
H1078 C1062 0.931 . S
H1079 C1067 0.929 . S
H1080 C1068 0.960 . S
H1081 C1068 0.962 . S
H1082 C1068 0.960 . S
H1083 C1069 0.961 . S
H1084 C1069 0.961 . S
H1085 C1069 0.961 . S
H1086 C1070 0.931 . S
H1087 C1075 0.930 . S
H1088 C1076 0.956 . S
H1089 C1076 0.961 . S
H1090 C1076 0.961 . S
H1091 C1077 0.958 . S
H1092 C1077 0.961 . S
H1093 C1077 0.960 . S
C1094 C1095 1.391 . S
C1094 C1096 1.394 . S
C1094 H1110 0.931 . S
C1095 C1094 1.391 . S
C1095 C1099 1.376 . S
C1096 C1094 1.394 . S
C1096 C1097 1.369 . S
C1096 C1100 1.531 1_556 S
C1097 C1096 1.369 . S
C1097 C1098 1.410 . S
C1097 C1105 1.503 1_556 S
C1098 C1097 1.410 . S
C1098 C1099 1.392 . S
C1098 C1101 1.511 . S
C1099 C1095 1.376 . S
C1099 C1098 1.392 . S
C1099 H1111 0.929 . S
C1100 C1096 1.531 1_554 S
C1100 H1112 0.960 . S
C1100 H1113 0.962 . S
C1100 H1114 0.960 . S
C1101 C1098 1.511 . S
C1101 H1115 0.961 . S
C1101 H1116 0.961 . S
C1101 H1117 0.961 . S
C1102 C1103 1.370 . S
C1102 C1104 1.363 . S
C1102 H1118 0.931 . S
C1103 C1102 1.370 . S
C1103 C1107 1.408 . S
C1104 C1102 1.363 . S
C1104 C1105 1.370 . S
C1104 C1108 1.524 1_554 S
C1105 C1097 1.503 1_554 S
C1105 C1104 1.370 . S
C1105 C1106 1.403 . S
C1106 C1105 1.403 . S
C1106 C1107 1.404 . S
C1106 C1109 1.539 . S
C1107 C1103 1.408 . S
C1107 C1106 1.404 . S
C1107 H1119 0.930 . S
C1108 C1104 1.524 1_556 S
C1108 H1120 0.956 1_556 S
C1108 H1121 0.961 . S
C1108 H1122 0.961 1_556 S
C1109 C1106 1.539 . S
C1109 H1123 0.958 . S
C1109 H1124 0.961 . S
C1109 H1125 0.960 . S
H1110 C1094 0.931 . S
H1111 C1099 0.929 . S
H1112 C1100 0.960 . S
H1113 C1100 0.962 . S
H1114 C1100 0.960 . S
H1115 C1101 0.961 . S
H1116 C1101 0.961 . S
H1117 C1101 0.961 . S
H1118 C1102 0.931 . S
H1119 C1107 0.930 . S
H1120 C1108 0.956 1_554 S
H1121 C1108 0.961 . S
H1122 C1108 0.961 1_554 S
H1123 C1109 0.958 . S
H1124 C1109 0.961 . S
H1125 C1109 0.960 . S
C1126 C1127 1.391 . S
C1126 C1128 1.394 . S
C1126 H1142 0.931 . S
C1127 C1126 1.391 . S
C1127 C1131 1.376 . S
C1128 C1126 1.394 . S
C1128 C1129 1.369 . S
C1128 C1132 1.531 1_554 S
C1129 C1128 1.369 . S
C1129 C1130 1.410 . S
C1129 C1137 1.503 1_554 S
C1130 C1129 1.410 . S
C1130 C1131 1.392 . S
C1130 C1133 1.511 . S
C1131 C1127 1.376 . S
C1131 C1130 1.392 . S
C1131 H1143 0.929 . S
C1132 C1128 1.531 1_556 S
C1132 H1144 0.960 . S
C1132 H1145 0.962 . S
C1132 H1146 0.960 . S
C1133 C1130 1.511 . S
C1133 H1147 0.961 . S
C1133 H1148 0.961 . S
C1133 H1149 0.961 . S
C1134 C1135 1.370 . S
C1134 C1136 1.363 . S
C1134 H1150 0.931 . S
C1135 C1134 1.370 . S
C1135 C1139 1.408 . S
C1136 C1134 1.363 . S
C1136 C1137 1.370 . S
C1136 C1140 1.524 . S
C1137 C1129 1.503 1_556 S
C1137 C1136 1.370 . S
C1137 C1138 1.403 . S
C1138 C1137 1.403 . S
C1138 C1139 1.404 . S
C1138 C1141 1.539 . S
C1139 C1135 1.408 . S
C1139 C1138 1.404 . S
C1139 H1151 0.930 . S
C1140 C1136 1.524 . S
C1140 H1152 0.956 . S
C1140 H1153 0.961 1_556 S
C1140 H1154 0.961 . S
C1141 C1138 1.539 . S
C1141 H1155 0.958 . S
C1141 H1156 0.961 . S
C1141 H1157 0.960 1_556 S
H1142 C1126 0.931 . S
H1143 C1131 0.929 . S
H1144 C1132 0.960 . S
H1145 C1132 0.962 . S
H1146 C1132 0.960 . S
H1147 C1133 0.961 . S
H1148 C1133 0.961 . S
H1149 C1133 0.961 . S
H1150 C1134 0.931 . S
H1151 C1139 0.930 . S
H1152 C1140 0.956 . S
H1153 C1140 0.961 1_554 S
H1154 C1140 0.961 . S
H1155 C1141 0.958 . S
H1156 C1141 0.961 . S
H1157 C1141 0.960 1_554 S
C1158 C1159 1.391 . S
C1158 C1160 1.394 . S
C1158 H1174 0.931 . S
C1159 C1158 1.391 . S
C1159 C1163 1.376 . S
C1160 C1158 1.394 . S
C1160 C1161 1.369 . S
C1160 C1164 1.531 . S
C1161 C1160 1.369 . S
C1161 C1162 1.410 . S
C1161 C1169 1.503 . S
C1162 C1161 1.410 . S
C1162 C1163 1.392 . S
C1162 C1165 1.511 . S
C1163 C1159 1.376 . S
C1163 C1162 1.392 . S
C1163 H1175 0.929 . S
C1164 C1160 1.531 . S
C1164 H1176 0.960 . S
C1164 H1177 0.962 . S
C1164 H1178 0.960 . S
C1165 C1162 1.511 . S
C1165 H1179 0.961 . S
C1165 H1180 0.961 . S
C1165 H1181 0.961 . S
C1166 C1167 1.370 . S
C1166 C1168 1.363 . S
C1166 H1182 0.931 . S
C1167 C1166 1.370 . S
C1167 C1171 1.408 . S
C1168 C1166 1.363 . S
C1168 C1169 1.370 . S
C1168 C1172 1.524 . S
C1169 C1161 1.503 . S
C1169 C1168 1.370 . S
C1169 C1170 1.403 . S
C1170 C1169 1.403 . S
C1170 C1171 1.404 . S
C1170 C1173 1.539 . S
C1171 C1167 1.408 . S
C1171 C1170 1.404 . S
C1171 H1183 0.930 . S
C1172 C1168 1.524 . S
C1172 H1184 0.956 . S
C1172 H1185 0.961 . S
C1172 H1186 0.961 . S
C1173 C1170 1.539 . S
C1173 H1187 0.958 . S
C1173 H1188 0.961 . S
C1173 H1189 0.960 . S
H1174 C1158 0.931 . S
H1175 C1163 0.929 . S
H1176 C1164 0.960 . S
H1177 C1164 0.962 . S
H1178 C1164 0.960 . S
H1179 C1165 0.961 . S
H1180 C1165 0.961 . S
H1181 C1165 0.961 . S
H1182 C1166 0.931 . S
H1183 C1171 0.930 . S
H1184 C1172 0.956 . S
H1185 C1172 0.961 . S
H1186 C1172 0.961 . S
H1187 C1173 0.958 . S
H1188 C1173 0.961 . S
H1189 C1173 0.960 . S
C1190 C1191 1.391 . S
C1190 C1192 1.394 . S
C1190 H1206 0.931 . S
C1191 C1190 1.391 . S
C1191 C1195 1.376 . S
C1192 C1190 1.394 . S
C1192 C1193 1.369 . S
C1192 C1196 1.531 . S
C1193 C1192 1.369 . S
C1193 C1194 1.410 . S
C1193 C1201 1.503 . S
C1194 C1193 1.410 . S
C1194 C1195 1.392 . S
C1194 C1197 1.511 . S
C1195 C1191 1.376 . S
C1195 C1194 1.392 . S
C1195 H1207 0.929 . S
C1196 C1192 1.531 . S
C1196 H1208 0.960 . S
C1196 H1209 0.962 . S
C1196 H1210 0.960 . S
C1197 C1194 1.511 . S
C1197 H1211 0.961 . S
C1197 H1212 0.961 . S
C1197 H1213 0.961 . S
C1198 C1199 1.370 . S
C1198 C1200 1.363 . S
C1198 H1214 0.931 . S
C1199 C1198 1.370 . S
C1199 C1203 1.408 . S
C1200 C1198 1.363 . S
C1200 C1201 1.370 . S
C1200 C1204 1.524 . S
C1201 C1193 1.503 . S
C1201 C1200 1.370 . S
C1201 C1202 1.403 . S
C1202 C1201 1.403 . S
C1202 C1203 1.404 . S
C1202 C1205 1.539 . S
C1203 C1199 1.408 . S
C1203 C1202 1.404 . S
C1203 H1215 0.930 . S
C1204 C1200 1.524 . S
C1204 H1216 0.956 . S
C1204 H1217 0.961 . S
C1204 H1218 0.961 . S
C1205 C1202 1.539 . S
C1205 H1219 0.958 . S
C1205 H1220 0.961 . S
C1205 H1221 0.960 . S
H1206 C1190 0.931 . S
H1207 C1195 0.929 . S
H1208 C1196 0.960 . S
H1209 C1196 0.962 . S
H1210 C1196 0.960 . S
H1211 C1197 0.961 . S
H1212 C1197 0.961 . S
H1213 C1197 0.961 . S
H1214 C1198 0.931 . S
H1215 C1203 0.930 . S
H1216 C1204 0.956 . S
H1217 C1204 0.961 . S
H1218 C1204 0.961 . S
H1219 C1205 0.958 . S
H1220 C1205 0.961 . S
H1221 C1205 0.960 . S
C1222 C1223 1.391 . S
C1222 C1224 1.394 . S
C1222 H1238 0.931 . S
C1223 C1222 1.391 . S
C1223 C1227 1.376 . S
C1224 C1222 1.394 . S
C1224 C1225 1.369 . S
C1224 C1228 1.531 . S
C1225 C1224 1.369 . S
C1225 C1226 1.410 . S
C1225 C1233 1.503 . S
C1226 C1225 1.410 . S
C1226 C1227 1.392 . S
C1226 C1229 1.511 . S
C1227 C1223 1.376 . S
C1227 C1226 1.392 . S
C1227 H1239 0.929 . S
C1228 C1224 1.531 . S
C1228 H1240 0.960 . S
C1228 H1241 0.962 . S
C1228 H1242 0.960 . S
C1229 C1226 1.511 . S
C1229 H1243 0.961 . S
C1229 H1244 0.961 . S
C1229 H1245 0.961 . S
C1230 C1231 1.370 . S
C1230 C1232 1.363 . S
C1230 H1246 0.931 . S
C1231 C1230 1.370 . S
C1231 C1235 1.408 . S
C1232 C1230 1.363 . S
C1232 C1233 1.370 . S
C1232 C1236 1.524 . S
C1233 C1225 1.503 . S
C1233 C1232 1.370 . S
C1233 C1234 1.403 . S
C1234 C1233 1.403 . S
C1234 C1235 1.404 . S
C1234 C1237 1.539 . S
C1235 C1231 1.408 . S
C1235 C1234 1.404 . S
C1235 H1247 0.930 . S
C1236 C1232 1.524 . S
C1236 H1248 0.956 . S
C1236 H1249 0.961 . S
C1236 H1250 0.961 . S
C1237 C1234 1.539 . S
C1237 H1251 0.958 . S
C1237 H1252 0.961 . S
C1237 H1253 0.960 . S
H1238 C1222 0.931 . S
H1239 C1227 0.929 . S
H1240 C1228 0.960 . S
H1241 C1228 0.962 . S
H1242 C1228 0.960 . S
H1243 C1229 0.961 . S
H1244 C1229 0.961 . S
H1245 C1229 0.961 . S
H1246 C1230 0.931 . S
H1247 C1235 0.930 . S
H1248 C1236 0.956 . S
H1249 C1236 0.961 . S
H1250 C1236 0.961 . S
H1251 C1237 0.958 . S
H1252 C1237 0.961 . S
H1253 C1237 0.960 . S
C1254 C1255 1.391 . S
C1254 C1256 1.394 . S
C1254 H1270 0.931 . S
C1255 C1254 1.391 . S
C1255 C1259 1.376 . S
C1256 C1254 1.394 . S
C1256 C1257 1.369 . S
C1256 C1260 1.531 . S
C1257 C1256 1.369 . S
C1257 C1258 1.410 . S
C1257 C1265 1.503 . S
C1258 C1257 1.410 . S
C1258 C1259 1.392 . S
C1258 C1261 1.511 . S
C1259 C1255 1.376 . S
C1259 C1258 1.392 . S
C1259 H1271 0.929 . S
C1260 C1256 1.531 . S
C1260 H1272 0.960 . S
C1260 H1273 0.962 . S
C1260 H1274 0.960 . S
C1261 C1258 1.511 . S
C1261 H1275 0.961 . S
C1261 H1276 0.961 . S
C1261 H1277 0.961 . S
C1262 C1263 1.370 . S
C1262 C1264 1.363 . S
C1262 H1278 0.931 . S
C1263 C1262 1.370 . S
C1263 C1267 1.408 . S
C1264 C1262 1.363 . S
C1264 C1265 1.370 . S
C1264 C1268 1.524 . S
C1265 C1257 1.503 . S
C1265 C1264 1.370 . S
C1265 C1266 1.403 . S
C1266 C1265 1.403 . S
C1266 C1267 1.404 . S
C1266 C1269 1.539 . S
C1267 C1263 1.408 . S
C1267 C1266 1.404 . S
C1267 H1279 0.930 . S
C1268 C1264 1.524 . S
C1268 H1280 0.956 . S
C1268 H1281 0.961 . S
C1268 H1282 0.961 . S
C1269 C1266 1.539 . S
C1269 H1283 0.958 . S
C1269 H1284 0.961 . S
C1269 H1285 0.960 . S
H1270 C1254 0.931 . S
H1271 C1259 0.929 . S
H1272 C1260 0.960 . S
H1273 C1260 0.962 . S
H1274 C1260 0.960 . S
H1275 C1261 0.961 . S
H1276 C1261 0.961 . S
H1277 C1261 0.961 . S
H1278 C1262 0.931 . S
H1279 C1267 0.930 . S
H1280 C1268 0.956 . S
H1281 C1268 0.961 . S
H1282 C1268 0.961 . S
H1283 C1269 0.958 . S
H1284 C1269 0.961 . S
H1285 C1269 0.960 . S
C1286 C1287 1.391 . S
C1286 C1288 1.394 . S
C1286 H1302 0.931 . S
C1287 C1286 1.391 . S
C1287 C1291 1.376 . S
C1288 C1286 1.394 . S
C1288 C1289 1.369 . S
C1288 C1292 1.531 . S
C1289 C1288 1.369 . S
C1289 C1290 1.410 . S
C1289 C1297 1.503 . S
C1290 C1289 1.410 . S
C1290 C1291 1.392 . S
C1290 C1293 1.511 . S
C1291 C1287 1.376 . S
C1291 C1290 1.392 . S
C1291 H1303 0.929 . S
C1292 C1288 1.531 . S
C1292 H1304 0.960 . S
C1292 H1305 0.962 . S
C1292 H1306 0.960 . S
C1293 C1290 1.511 . S
C1293 H1307 0.961 . S
C1293 H1308 0.961 . S
C1293 H1309 0.961 . S
C1294 C1295 1.370 . S
C1294 C1296 1.363 . S
C1294 H1310 0.931 . S
C1295 C1294 1.370 . S
C1295 C1299 1.408 . S
C1296 C1294 1.363 . S
C1296 C1297 1.370 . S
C1296 C1300 1.524 . S
C1297 C1289 1.503 . S
C1297 C1296 1.370 . S
C1297 C1298 1.403 . S
C1298 C1297 1.403 . S
C1298 C1299 1.404 . S
C1298 C1301 1.539 . S
C1299 C1295 1.408 . S
C1299 C1298 1.404 . S
C1299 H1311 0.930 . S
C1300 C1296 1.524 . S
C1300 H1312 0.956 . S
C1300 H1313 0.961 . S
C1300 H1314 0.961 . S
C1301 C1298 1.539 . S
C1301 H1315 0.958 . S
C1301 H1316 0.961 . S
C1301 H1317 0.960 . S
H1302 C1286 0.931 . S
H1303 C1291 0.929 . S
H1304 C1292 0.960 . S
H1305 C1292 0.962 . S
H1306 C1292 0.960 . S
H1307 C1293 0.961 . S
H1308 C1293 0.961 . S
H1309 C1293 0.961 . S
H1310 C1294 0.931 . S
H1311 C1299 0.930 . S
H1312 C1300 0.956 . S
H1313 C1300 0.961 . S
H1314 C1300 0.961 . S
H1315 C1301 0.958 . S
H1316 C1301 0.961 . S
H1317 C1301 0.960 . S
C1318 C1319 1.391 . S
C1318 C1320 1.394 . S
C1318 H1334 0.931 . S
C1319 C1318 1.391 . S
C1319 C1323 1.376 . S
C1320 C1318 1.394 . S
C1320 C1321 1.369 . S
C1320 C1324 1.531 . S
C1321 C1320 1.369 . S
C1321 C1322 1.410 . S
C1321 C1329 1.503 . S
C1322 C1321 1.410 . S
C1322 C1323 1.392 . S
C1322 C1325 1.511 . S
C1323 C1319 1.376 . S
C1323 C1322 1.392 . S
C1323 H1335 0.929 . S
C1324 C1320 1.531 . S
C1324 H1336 0.960 . S
C1324 H1337 0.962 . S
C1324 H1338 0.960 . S
C1325 C1322 1.511 . S
C1325 H1339 0.961 . S
C1325 H1340 0.961 . S
C1325 H1341 0.961 . S
C1326 C1327 1.370 . S
C1326 C1328 1.363 . S
C1326 H1342 0.931 . S
C1327 C1326 1.370 . S
C1327 C1331 1.408 . S
C1328 C1326 1.363 . S
C1328 C1329 1.370 . S
C1328 C1332 1.524 . S
C1329 C1321 1.503 . S
C1329 C1328 1.370 . S
C1329 C1330 1.403 . S
C1330 C1329 1.403 . S
C1330 C1331 1.404 . S
C1330 C1333 1.539 . S
C1331 C1327 1.408 . S
C1331 C1330 1.404 . S
C1331 H1343 0.930 . S
C1332 C1328 1.524 . S
C1332 H1344 0.956 . S
C1332 H1345 0.961 . S
C1332 H1346 0.961 . S
C1333 C1330 1.539 . S
C1333 H1347 0.958 . S
C1333 H1348 0.961 . S
C1333 H1349 0.960 . S
H1334 C1318 0.931 . S
H1335 C1323 0.929 . S
H1336 C1324 0.960 . S
H1337 C1324 0.962 . S
H1338 C1324 0.960 . S
H1339 C1325 0.961 . S
H1340 C1325 0.961 . S
H1341 C1325 0.961 . S
H1342 C1326 0.931 . S
H1343 C1331 0.930 . S
H1344 C1332 0.956 . S
H1345 C1332 0.961 . S
H1346 C1332 0.961 . S
H1347 C1333 0.958 . S
H1348 C1333 0.961 . S
H1349 C1333 0.960 . S
C1350 C1351 1.391 . S
C1350 C1352 1.394 . S
C1350 H1366 0.931 . S
C1351 C1350 1.391 . S
C1351 C1355 1.376 . S
C1352 C1350 1.394 . S
C1352 C1353 1.369 . S
C1352 C1356 1.531 . S
C1353 C1352 1.369 . S
C1353 C1354 1.410 . S
C1353 C1361 1.503 . S
C1354 C1353 1.410 . S
C1354 C1355 1.392 . S
C1354 C1357 1.511 . S
C1355 C1351 1.376 . S
C1355 C1354 1.392 . S
C1355 H1367 0.929 . S
C1356 C1352 1.531 . S
C1356 H1368 0.960 . S
C1356 H1369 0.962 . S
C1356 H1370 0.960 . S
C1357 C1354 1.511 . S
C1357 H1371 0.961 . S
C1357 H1372 0.961 . S
C1357 H1373 0.961 . S
C1358 C1359 1.370 . S
C1358 C1360 1.363 . S
C1358 H1374 0.931 . S
C1359 C1358 1.370 . S
C1359 C1363 1.408 . S
C1360 C1358 1.363 . S
C1360 C1361 1.370 . S
C1360 C1364 1.524 . S
C1361 C1353 1.503 . S
C1361 C1360 1.370 . S
C1361 C1362 1.403 . S
C1362 C1361 1.403 . S
C1362 C1363 1.404 . S
C1362 C1365 1.539 . S
C1363 C1359 1.408 . S
C1363 C1362 1.404 . S
C1363 H1375 0.930 . S
C1364 C1360 1.524 . S
C1364 H1376 0.956 . S
C1364 H1377 0.961 . S
C1364 H1378 0.961 . S
C1365 C1362 1.539 . S
C1365 H1379 0.958 . S
C1365 H1380 0.961 . S
C1365 H1381 0.960 . S
H1366 C1350 0.931 . S
H1367 C1355 0.929 . S
H1368 C1356 0.960 . S
H1369 C1356 0.962 . S
H1370 C1356 0.960 . S
H1371 C1357 0.961 . S
H1372 C1357 0.961 . S
H1373 C1357 0.961 . S
H1374 C1358 0.931 . S
H1375 C1363 0.930 . S
H1376 C1364 0.956 . S
H1377 C1364 0.961 . S
H1378 C1364 0.961 . S
H1379 C1365 0.958 . S
H1380 C1365 0.961 . S
H1381 C1365 0.960 . S
C1382 C1383 1.391 . S
C1382 C1384 1.394 . S
C1382 H1398 0.931 . S
C1383 C1382 1.391 . S
C1383 C1387 1.376 . S
C1384 C1382 1.394 . S
C1384 C1385 1.369 . S
C1384 C1388 1.531 . S
C1385 C1384 1.369 . S
C1385 C1386 1.410 . S
C1385 C1393 1.503 . S
C1386 C1385 1.410 . S
C1386 C1387 1.392 . S
C1386 C1389 1.511 . S
C1387 C1383 1.376 . S
C1387 C1386 1.392 . S
C1387 H1399 0.929 . S
C1388 C1384 1.531 . S
C1388 H1400 0.960 . S
C1388 H1401 0.962 . S
C1388 H1402 0.960 . S
C1389 C1386 1.511 . S
C1389 H1403 0.961 . S
C1389 H1404 0.961 . S
C1389 H1405 0.961 . S
C1390 C1391 1.370 . S
C1390 C1392 1.363 . S
C1390 H1406 0.931 . S
C1391 C1390 1.370 . S
C1391 C1395 1.408 . S
C1392 C1390 1.363 . S
C1392 C1393 1.370 . S
C1392 C1396 1.524 . S
C1393 C1385 1.503 . S
C1393 C1392 1.370 . S
C1393 C1394 1.403 . S
C1394 C1393 1.403 . S
C1394 C1395 1.404 . S
C1394 C1397 1.539 . S
C1395 C1391 1.408 . S
C1395 C1394 1.404 . S
C1395 H1407 0.930 . S
C1396 C1392 1.524 . S
C1396 H1408 0.956 . S
C1396 H1409 0.961 . S
C1396 H1410 0.961 . S
C1397 C1394 1.539 . S
C1397 H1411 0.958 . S
C1397 H1412 0.961 . S
C1397 H1413 0.960 . S
H1398 C1382 0.931 . S
H1399 C1387 0.929 . S
H1400 C1388 0.960 . S
H1401 C1388 0.962 . S
H1402 C1388 0.960 . S
H1403 C1389 0.961 . S
H1404 C1389 0.961 . S
H1405 C1389 0.961 . S
H1406 C1390 0.931 . S
H1407 C1395 0.930 . S
H1408 C1396 0.956 . S
H1409 C1396 0.961 . S
H1410 C1396 0.961 . S
H1411 C1397 0.958 . S
H1412 C1397 0.961 . S
H1413 C1397 0.960 . S
C1414 C1415 1.391 . S
C1414 C1416 1.394 . S
C1414 H1430 0.931 . S
C1415 C1414 1.391 . S
C1415 C1419 1.376 . S
C1416 C1414 1.394 . S
C1416 C1417 1.369 . S
C1416 C1420 1.531 . S
C1417 C1416 1.369 . S
C1417 C1418 1.410 . S
C1417 C1425 1.503 . S
C1418 C1417 1.410 . S
C1418 C1419 1.392 . S
C1418 C1421 1.511 . S
C1419 C1415 1.376 . S
C1419 C1418 1.392 . S
C1419 H1431 0.929 . S
C1420 C1416 1.531 . S
C1420 H1432 0.960 . S
C1420 H1433 0.962 . S
C1420 H1434 0.960 . S
C1421 C1418 1.511 . S
C1421 H1435 0.961 . S
C1421 H1436 0.961 . S
C1421 H1437 0.961 . S
C1422 C1423 1.370 . S
C1422 C1424 1.363 . S
C1422 H1438 0.931 . S
C1423 C1422 1.370 . S
C1423 C1427 1.408 . S
C1424 C1422 1.363 . S
C1424 C1425 1.370 . S
C1424 C1428 1.524 . S
C1425 C1417 1.503 . S
C1425 C1424 1.370 . S
C1425 C1426 1.403 . S
C1426 C1425 1.403 . S
C1426 C1427 1.404 . S
C1426 C1429 1.539 . S
C1427 C1423 1.408 . S
C1427 C1426 1.404 . S
C1427 H1439 0.930 . S
C1428 C1424 1.524 . S
C1428 H1440 0.956 . S
C1428 H1441 0.961 . S
C1428 H1442 0.961 . S
C1429 C1426 1.539 . S
C1429 H1443 0.958 . S
C1429 H1444 0.961 . S
C1429 H1445 0.960 . S
H1430 C1414 0.931 . S
H1431 C1419 0.929 . S
H1432 C1420 0.960 . S
H1433 C1420 0.962 . S
H1434 C1420 0.960 . S
H1435 C1421 0.961 . S
H1436 C1421 0.961 . S
H1437 C1421 0.961 . S
H1438 C1422 0.931 . S
H1439 C1427 0.930 . S
H1440 C1428 0.956 . S
H1441 C1428 0.961 . S
H1442 C1428 0.961 . S
H1443 C1429 0.958 . S
H1444 C1429 0.961 . S
H1445 C1429 0.960 . S
C1446 C1447 1.391 . S
C1446 C1448 1.394 . S
C1446 H1462 0.931 . S
C1447 C1446 1.391 . S
C1447 C1451 1.376 . S
C1448 C1446 1.394 . S
C1448 C1449 1.369 . S
C1448 C1452 1.531 . S
C1449 C1448 1.369 . S
C1449 C1450 1.410 . S
C1449 C1457 1.503 . S
C1450 C1449 1.410 . S
C1450 C1451 1.392 . S
C1450 C1453 1.511 . S
C1451 C1447 1.376 . S
C1451 C1450 1.392 . S
C1451 H1463 0.929 . S
C1452 C1448 1.531 . S
C1452 H1464 0.960 . S
C1452 H1465 0.962 . S
C1452 H1466 0.960 . S
C1453 C1450 1.511 . S
C1453 H1467 0.961 . S
C1453 H1468 0.961 . S
C1453 H1469 0.961 . S
C1454 C1455 1.370 . S
C1454 C1456 1.363 . S
C1454 H1470 0.931 . S
C1455 C1454 1.370 . S
C1455 C1459 1.408 . S
C1456 C1454 1.363 . S
C1456 C1457 1.370 . S
C1456 C1460 1.524 . S
C1457 C1449 1.503 . S
C1457 C1456 1.370 . S
C1457 C1458 1.403 . S
C1458 C1457 1.403 . S
C1458 C1459 1.404 . S
C1458 C1461 1.539 . S
C1459 C1455 1.408 . S
C1459 C1458 1.404 . S
C1459 H1471 0.930 . S
C1460 C1456 1.524 . S
C1460 H1472 0.956 . S
C1460 H1473 0.961 . S
C1460 H1474 0.961 . S
C1461 C1458 1.539 . S
C1461 H1475 0.958 . S
C1461 H1476 0.961 . S
C1461 H1477 0.960 . S
H1462 C1446 0.931 . S
H1463 C1451 0.929 . S
H1464 C1452 0.960 . S
H1465 C1452 0.962 . S
H1466 C1452 0.960 . S
H1467 C1453 0.961 . S
H1468 C1453 0.961 . S
H1469 C1453 0.961 . S
H1470 C1454 0.931 . S
H1471 C1459 0.930 . S
H1472 C1460 0.956 . S
H1473 C1460 0.961 . S
H1474 C1460 0.961 . S
H1475 C1461 0.958 . S
H1476 C1461 0.961 . S
H1477 C1461 0.960 . S
C1478 C1479 1.391 . S
C1478 C1480 1.394 . S
C1478 H1494 0.931 . S
C1479 C1478 1.391 . S
C1479 C1483 1.376 . S
C1480 C1478 1.394 . S
C1480 C1481 1.369 . S
C1480 C1484 1.531 . S
C1481 C1480 1.369 . S
C1481 C1482 1.410 . S
C1481 C1489 1.503 . S
C1482 C1481 1.410 . S
C1482 C1483 1.392 . S
C1482 C1485 1.511 . S
C1483 C1479 1.376 . S
C1483 C1482 1.392 . S
C1483 H1495 0.929 . S
C1484 C1480 1.531 . S
C1484 H1496 0.960 . S
C1484 H1497 0.962 . S
C1484 H1498 0.960 . S
C1485 C1482 1.511 . S
C1485 H1499 0.961 . S
C1485 H1500 0.961 . S
C1485 H1501 0.961 . S
C1486 C1487 1.370 . S
C1486 C1488 1.363 . S
C1486 H1502 0.931 . S
C1487 C1486 1.370 . S
C1487 C1491 1.408 . S
C1488 C1486 1.363 . S
C1488 C1489 1.370 . S
C1488 C1492 1.524 . S
C1489 C1481 1.503 . S
C1489 C1488 1.370 . S
C1489 C1490 1.403 . S
C1490 C1489 1.403 . S
C1490 C1491 1.404 . S
C1490 C1493 1.539 . S
C1491 C1487 1.408 . S
C1491 C1490 1.404 . S
C1491 H1503 0.930 . S
C1492 C1488 1.524 . S
C1492 H1504 0.956 . S
C1492 H1505 0.961 . S
C1492 H1506 0.961 . S
C1493 C1490 1.539 . S
C1493 H1507 0.958 . S
C1493 H1508 0.961 . S
C1493 H1509 0.960 . S
H1494 C1478 0.931 . S
H1495 C1483 0.929 . S
H1496 C1484 0.960 . S
H1497 C1484 0.962 . S
H1498 C1484 0.960 . S
H1499 C1485 0.961 . S
H1500 C1485 0.961 . S
H1501 C1485 0.961 . S
H1502 C1486 0.931 . S
H1503 C1491 0.930 . S
H1504 C1492 0.956 . S
H1505 C1492 0.961 . S
H1506 C1492 0.961 . S
H1507 C1493 0.958 . S
H1508 C1493 0.961 . S
H1509 C1493 0.960 . S
C1510 C1511 1.391 . S
C1510 C1512 1.394 . S
C1510 H1526 0.931 . S
C1511 C1510 1.391 . S
C1511 C1515 1.376 . S
C1512 C1510 1.394 . S
C1512 C1513 1.369 . S
C1512 C1516 1.531 . S
C1513 C1512 1.369 . S
C1513 C1514 1.410 . S
C1513 C1521 1.503 . S
C1514 C1513 1.410 . S
C1514 C1515 1.392 . S
C1514 C1517 1.511 . S
C1515 C1511 1.376 . S
C1515 C1514 1.392 . S
C1515 H1527 0.929 . S
C1516 C1512 1.531 . S
C1516 H1528 0.960 . S
C1516 H1529 0.962 . S
C1516 H1530 0.960 . S
C1517 C1514 1.511 . S
C1517 H1531 0.961 . S
C1517 H1532 0.961 . S
C1517 H1533 0.961 . S
C1518 C1519 1.370 . S
C1518 C1520 1.363 . S
C1518 H1534 0.931 . S
C1519 C1518 1.370 . S
C1519 C1523 1.408 . S
C1520 C1518 1.363 . S
C1520 C1521 1.370 . S
C1520 C1524 1.524 . S
C1521 C1513 1.503 . S
C1521 C1520 1.370 . S
C1521 C1522 1.403 . S
C1522 C1521 1.403 . S
C1522 C1523 1.404 . S
C1522 C1525 1.539 . S
C1523 C1519 1.408 . S
C1523 C1522 1.404 . S
C1523 H1535 0.930 . S
C1524 C1520 1.524 . S
C1524 H1536 0.956 . S
C1524 H1537 0.961 . S
C1524 H1538 0.961 . S
C1525 C1522 1.539 . S
C1525 H1539 0.958 . S
C1525 H1540 0.961 . S
C1525 H1541 0.960 . S
H1526 C1510 0.931 . S
H1527 C1515 0.929 . S
H1528 C1516 0.960 . S
H1529 C1516 0.962 . S
H1530 C1516 0.960 . S
H1531 C1517 0.961 . S
H1532 C1517 0.961 . S
H1533 C1517 0.961 . S
H1534 C1518 0.931 . S
H1535 C1523 0.930 . S
H1536 C1524 0.956 . S
H1537 C1524 0.961 . S
H1538 C1524 0.961 . S
H1539 C1525 0.958 . S
H1540 C1525 0.961 . S
H1541 C1525 0.960 . S
C1542 C1543 1.391 . S
C1542 C1544 1.394 . S
C1542 H1558 0.931 . S
C1543 C1542 1.391 . S
C1543 C1547 1.376 . S
C1544 C1542 1.394 . S
C1544 C1545 1.369 . S
C1544 C1548 1.531 . S
C1545 C1544 1.369 . S
C1545 C1546 1.410 . S
C1545 C1553 1.503 . S
C1546 C1545 1.410 . S
C1546 C1547 1.392 . S
C1546 C1549 1.511 . S
C1547 C1543 1.376 . S
C1547 C1546 1.392 . S
C1547 H1559 0.929 . S
C1548 C1544 1.531 . S
C1548 H1560 0.960 . S
C1548 H1561 0.962 . S
C1548 H1562 0.960 . S
C1549 C1546 1.511 . S
C1549 H1563 0.961 . S
C1549 H1564 0.961 . S
C1549 H1565 0.961 . S
C1550 C1551 1.370 . S
C1550 C1552 1.363 . S
C1550 H1566 0.931 . S
C1551 C1550 1.370 . S
C1551 C1555 1.408 . S
C1552 C1550 1.363 . S
C1552 C1553 1.370 . S
C1552 C1556 1.524 . S
C1553 C1545 1.503 . S
C1553 C1552 1.370 . S
C1553 C1554 1.403 . S
C1554 C1553 1.403 . S
C1554 C1555 1.404 . S
C1554 C1557 1.539 . S
C1555 C1551 1.408 . S
C1555 C1554 1.404 . S
C1555 H1567 0.930 . S
C1556 C1552 1.524 . S
C1556 H1568 0.956 . S
C1556 H1569 0.961 . S
C1556 H1570 0.961 . S
C1557 C1554 1.539 . S
C1557 H1571 0.958 . S
C1557 H1572 0.961 . S
C1557 H1573 0.960 . S
H1558 C1542 0.931 . S
H1559 C1547 0.929 . S
H1560 C1548 0.960 . S
H1561 C1548 0.962 . S
H1562 C1548 0.960 . S
H1563 C1549 0.961 . S
H1564 C1549 0.961 . S
H1565 C1549 0.961 . S
H1566 C1550 0.931 . S
H1567 C1555 0.930 . S
H1568 C1556 0.956 . S
H1569 C1556 0.961 . S
H1570 C1556 0.961 . S
H1571 C1557 0.958 . S
H1572 C1557 0.961 . S
H1573 C1557 0.960 . S
C1574 C1575 1.391 . S
C1574 C1576 1.394 . S
C1574 H1590 0.931 . S
C1575 C1574 1.391 . S
C1575 C1579 1.376 . S
C1576 C1574 1.394 . S
C1576 C1577 1.369 . S
C1576 C1580 1.531 . S
C1577 C1576 1.369 . S
C1577 C1578 1.410 . S
C1577 C1585 1.503 . S
C1578 C1577 1.410 . S
C1578 C1579 1.392 . S
C1578 C1581 1.511 . S
C1579 C1575 1.376 . S
C1579 C1578 1.392 . S
C1579 H1591 0.929 . S
C1580 C1576 1.531 . S
C1580 H1592 0.960 . S
C1580 H1593 0.962 . S
C1580 H1594 0.960 . S
C1581 C1578 1.511 . S
C1581 H1595 0.961 . S
C1581 H1596 0.961 . S
C1581 H1597 0.961 . S
C1582 C1583 1.370 . S
C1582 C1584 1.363 . S
C1582 H1598 0.931 . S
C1583 C1582 1.370 . S
C1583 C1587 1.408 . S
C1584 C1582 1.363 . S
C1584 C1585 1.370 . S
C1584 C1588 1.524 . S
C1585 C1577 1.503 . S
C1585 C1584 1.370 . S
C1585 C1586 1.403 . S
C1586 C1585 1.403 . S
C1586 C1587 1.404 . S
C1586 C1589 1.539 . S
C1587 C1583 1.408 . S
C1587 C1586 1.404 . S
C1587 H1599 0.930 . S
C1588 C1584 1.524 . S
C1588 H1600 0.956 . S
C1588 H1601 0.961 . S
C1588 H1602 0.961 . S
C1589 C1586 1.539 . S
C1589 H1603 0.958 . S
C1589 H1604 0.961 . S
C1589 H1605 0.960 . S
H1590 C1574 0.931 . S
H1591 C1579 0.929 . S
H1592 C1580 0.960 . S
H1593 C1580 0.962 . S
H1594 C1580 0.960 . S
H1595 C1581 0.961 . S
H1596 C1581 0.961 . S
H1597 C1581 0.961 . S
H1598 C1582 0.931 . S
H1599 C1587 0.930 . S
H1600 C1588 0.956 . S
H1601 C1588 0.961 . S
H1602 C1588 0.961 . S
H1603 C1589 0.958 . S
H1604 C1589 0.961 . S
H1605 C1589 0.960 . S
C1606 C1607 1.391 . S
C1606 C1608 1.394 . S
C1606 H1622 0.931 . S
C1607 C1606 1.391 . S
C1607 C1611 1.376 . S
C1608 C1606 1.394 . S
C1608 C1609 1.369 . S
C1608 C1612 1.531 . S
C1609 C1608 1.369 . S
C1609 C1610 1.410 . S
C1609 C1617 1.503 . S
C1610 C1609 1.410 . S
C1610 C1611 1.392 . S
C1610 C1613 1.511 . S
C1611 C1607 1.376 . S
C1611 C1610 1.392 . S
C1611 H1623 0.929 . S
C1612 C1608 1.531 . S
C1612 H1624 0.960 . S
C1612 H1625 0.962 . S
C1612 H1626 0.960 . S
C1613 C1610 1.511 . S
C1613 H1627 0.961 . S
C1613 H1628 0.961 . S
C1613 H1629 0.961 . S
C1614 C1615 1.370 . S
C1614 C1616 1.363 . S
C1614 H1630 0.931 . S
C1615 C1614 1.370 . S
C1615 C1619 1.408 . S
C1616 C1614 1.363 . S
C1616 C1617 1.370 . S
C1616 C1620 1.524 . S
C1617 C1609 1.503 . S
C1617 C1616 1.370 . S
C1617 C1618 1.403 . S
C1618 C1617 1.403 . S
C1618 C1619 1.404 . S
C1618 C1621 1.539 . S
C1619 C1615 1.408 . S
C1619 C1618 1.404 . S
C1619 H1631 0.930 . S
C1620 C1616 1.524 . S
C1620 H1632 0.956 . S
C1620 H1633 0.961 . S
C1620 H1634 0.961 . S
C1621 C1618 1.539 . S
C1621 H1635 0.958 . S
C1621 H1636 0.961 . S
C1621 H1637 0.960 . S
H1622 C1606 0.931 . S
H1623 C1611 0.929 . S
H1624 C1612 0.960 . S
H1625 C1612 0.962 . S
H1626 C1612 0.960 . S
H1627 C1613 0.961 . S
H1628 C1613 0.961 . S
H1629 C1613 0.961 . S
H1630 C1614 0.931 . S
H1631 C1619 0.930 . S
H1632 C1620 0.956 . S
H1633 C1620 0.961 . S
H1634 C1620 0.961 . S
H1635 C1621 0.958 . S
H1636 C1621 0.961 . S
H1637 C1621 0.960 . S
C1638 C1639 1.391 . S
C1638 C1640 1.394 . S
C1638 H1654 0.931 . S
C1639 C1638 1.391 . S
C1639 C1643 1.376 . S
C1640 C1638 1.394 . S
C1640 C1641 1.369 . S
C1640 C1644 1.531 . S
C1641 C1640 1.369 . S
C1641 C1642 1.410 . S
C1641 C1649 1.503 . S
C1642 C1641 1.410 . S
C1642 C1643 1.392 . S
C1642 C1645 1.511 . S
C1643 C1639 1.376 . S
C1643 C1642 1.392 . S
C1643 H1655 0.929 . S
C1644 C1640 1.531 . S
C1644 H1656 0.960 . S
C1644 H1657 0.962 . S
C1644 H1658 0.960 . S
C1645 C1642 1.511 . S
C1645 H1659 0.961 . S
C1645 H1660 0.961 . S
C1645 H1661 0.961 . S
C1646 C1647 1.370 . S
C1646 C1648 1.363 . S
C1646 H1662 0.931 . S
C1647 C1646 1.370 . S
C1647 C1651 1.408 . S
C1648 C1646 1.363 . S
C1648 C1649 1.370 . S
C1648 C1652 1.524 . S
C1649 C1641 1.503 . S
C1649 C1648 1.370 . S
C1649 C1650 1.403 . S
C1650 C1649 1.403 . S
C1650 C1651 1.404 . S
C1650 C1653 1.539 . S
C1651 C1647 1.408 . S
C1651 C1650 1.404 . S
C1651 H1663 0.930 . S
C1652 C1648 1.524 . S
C1652 H1664 0.956 . S
C1652 H1665 0.961 . S
C1652 H1666 0.961 . S
C1653 C1650 1.539 . S
C1653 H1667 0.958 . S
C1653 H1668 0.961 . S
C1653 H1669 0.960 . S
H1654 C1638 0.931 . S
H1655 C1643 0.929 . S
H1656 C1644 0.960 . S
H1657 C1644 0.962 . S
H1658 C1644 0.960 . S
H1659 C1645 0.961 . S
H1660 C1645 0.961 . S
H1661 C1645 0.961 . S
H1662 C1646 0.931 . S
H1663 C1651 0.930 . S
H1664 C1652 0.956 . S
H1665 C1652 0.961 . S
H1666 C1652 0.961 . S
H1667 C1653 0.958 . S
H1668 C1653 0.961 . S
H1669 C1653 0.960 . S
C1670 C1671 1.391 . S
C1670 C1672 1.394 . S
C1670 H1686 0.931 . S
C1671 C1670 1.391 . S
C1671 C1675 1.376 . S
C1672 C1670 1.394 . S
C1672 C1673 1.369 . S
C1672 C1676 1.531 . S
C1673 C1672 1.369 . S
C1673 C1674 1.410 . S
C1673 C1681 1.503 . S
C1674 C1673 1.410 . S
C1674 C1675 1.392 . S
C1674 C1677 1.511 . S
C1675 C1671 1.376 . S
C1675 C1674 1.392 . S
C1675 H1687 0.929 . S
C1676 C1672 1.531 . S
C1676 H1688 0.960 . S
C1676 H1689 0.962 . S
C1676 H1690 0.960 . S
C1677 C1674 1.511 . S
C1677 H1691 0.961 . S
C1677 H1692 0.961 . S
C1677 H1693 0.961 . S
C1678 C1679 1.370 . S
C1678 C1680 1.363 . S
C1678 H1694 0.931 . S
C1679 C1678 1.370 . S
C1679 C1683 1.408 . S
C1680 C1678 1.363 . S
C1680 C1681 1.370 . S
C1680 C1684 1.524 . S
C1681 C1673 1.503 . S
C1681 C1680 1.370 . S
C1681 C1682 1.403 . S
C1682 C1681 1.403 . S
C1682 C1683 1.404 . S
C1682 C1685 1.539 . S
C1683 C1679 1.408 . S
C1683 C1682 1.404 . S
C1683 H1695 0.930 . S
C1684 C1680 1.524 . S
C1684 H1696 0.956 . S
C1684 H1697 0.961 . S
C1684 H1698 0.961 . S
C1685 C1682 1.539 . S
C1685 H1699 0.958 . S
C1685 H1700 0.961 . S
C1685 H1701 0.960 . S
H1686 C1670 0.931 . S
H1687 C1675 0.929 . S
H1688 C1676 0.960 . S
H1689 C1676 0.962 . S
H1690 C1676 0.960 . S
H1691 C1677 0.961 . S
H1692 C1677 0.961 . S
H1693 C1677 0.961 . S
H1694 C1678 0.931 . S
H1695 C1683 0.930 . S
H1696 C1684 0.956 . S
H1697 C1684 0.961 . S
H1698 C1684 0.961 . S
H1699 C1685 0.958 . S
H1700 C1685 0.961 . S
H1701 C1685 0.960 . S
C1702 C1703 1.391 1_545 S
C1702 C1704 1.394 . S
C1702 H1718 0.931 . S
C1703 C1702 1.391 1_565 S
C1703 C1707 1.376 . S
C1704 C1702 1.394 . S
C1704 C1705 1.369 . S
C1704 C1708 1.531 . S
C1705 C1704 1.369 . S
C1705 C1706 1.410 1_545 S
C1705 C1713 1.503 . S
C1706 C1705 1.410 1_565 S
C1706 C1707 1.392 . S
C1706 C1709 1.511 . S
C1707 C1703 1.376 . S
C1707 C1706 1.392 . S
C1707 H1719 0.929 . S
C1708 C1704 1.531 . S
C1708 H1720 0.960 . S
C1708 H1721 0.962 . S
C1708 H1722 0.960 . S
C1709 C1706 1.511 . S
C1709 H1723 0.961 . S
C1709 H1724 0.961 . S
C1709 H1725 0.961 . S
C1710 C1711 1.370 . S
C1710 C1712 1.363 . S
C1710 H1726 0.931 . S
C1711 C1710 1.370 . S
C1711 C1715 1.408 . S
C1712 C1710 1.363 . S
C1712 C1713 1.370 . S
C1712 C1716 1.524 . S
C1713 C1705 1.503 . S
C1713 C1712 1.370 . S
C1713 C1714 1.403 . S
C1714 C1713 1.403 . S
C1714 C1715 1.404 . S
C1714 C1717 1.539 . S
C1715 C1711 1.408 . S
C1715 C1714 1.404 . S
C1715 H1727 0.930 . S
C1716 C1712 1.524 . S
C1716 H1728 0.956 . S
C1716 H1729 0.961 1_545 S
C1716 H1730 0.965 1_545 S
C1717 C1714 1.539 . S
C1717 H1731 0.958 . S
C1717 H1732 0.961 . S
C1717 H1733 0.960 . S
H1718 C1702 0.931 . S
H1719 C1707 0.929 . S
H1720 C1708 0.960 . S
H1721 C1708 0.962 . S
H1722 C1708 0.960 . S
H1723 C1709 0.961 . S
H1724 C1709 0.961 . S
H1725 C1709 0.961 . S
H1726 C1710 0.931 . S
H1727 C1715 0.930 . S
H1728 C1716 0.956 . S
H1729 C1716 0.961 1_565 S
H1730 C1716 0.965 1_565 S
H1731 C1717 0.958 . S
H1732 C1717 0.961 . S
H1733 C1717 0.960 . S
C1734 C1735 1.391 . S
C1734 C1736 1.394 . S
C1734 H1750 0.931 . S
C1735 C1734 1.391 . S
C1735 C1739 1.376 . S
C1736 C1734 1.394 . S
C1736 C1737 1.369 . S
C1736 C1740 1.531 . S
C1737 C1736 1.369 . S
C1737 C1738 1.410 . S
C1737 C1745 1.503 . S
C1738 C1737 1.410 . S
C1738 C1739 1.392 . S
C1738 C1741 1.511 . S
C1739 C1735 1.376 . S
C1739 C1738 1.392 . S
C1739 H1751 0.929 . S
C1740 C1736 1.531 . S
C1740 H1752 0.960 . S
C1740 H1753 0.962 . S
C1740 H1754 0.960 . S
C1741 C1738 1.511 . S
C1741 H1755 0.961 . S
C1741 H1756 0.961 . S
C1741 H1757 0.961 . S
C1742 C1743 1.370 1_554 S
C1742 C1744 1.363 . S
C1742 H1758 0.931 . S
C1743 C1742 1.370 1_556 S
C1743 C1747 1.408 . S
C1744 C1742 1.363 . S
C1744 C1745 1.370 . S
C1744 C1748 1.524 . S
C1745 C1737 1.503 . S
C1745 C1744 1.370 . S
C1745 C1746 1.403 . S
C1746 C1745 1.403 . S
C1746 C1747 1.404 1_554 S
C1746 C1749 1.539 1_554 S
C1747 C1743 1.408 . S
C1747 C1746 1.404 1_556 S
C1747 H1759 0.930 . S
C1748 C1744 1.524 . S
C1748 H1760 0.956 . S
C1748 H1761 0.961 . S
C1748 H1762 0.961 . S
C1749 C1746 1.539 1_556 S
C1749 H1763 0.958 . S
C1749 H1764 0.961 . S
C1749 H1765 0.960 . S
H1750 C1734 0.931 . S
H1751 C1739 0.929 . S
H1752 C1740 0.960 . S
H1753 C1740 0.962 . S
H1754 C1740 0.960 . S
H1755 C1741 0.961 . S
H1756 C1741 0.961 . S
H1757 C1741 0.961 . S
H1758 C1742 0.931 . S
H1759 C1747 0.930 . S
H1760 C1748 0.956 . S
H1761 C1748 0.961 . S
H1762 C1748 0.961 . S
H1763 C1749 0.958 . S
H1764 C1749 0.961 . S
H1765 C1749 0.960 . S
C1766 C1767 1.391 1_455 S
C1766 C1768 1.394 . S
C1766 H1782 0.931 1_554 S
C1767 C1766 1.391 1_655 S
C1767 C1771 1.376 . S
C1768 C1766 1.394 . S
C1768 C1769 1.369 . S
C1768 C1772 1.531 . S
C1769 C1768 1.369 . S
C1769 C1770 1.410 1_455 S
C1769 C1777 1.503 . S
C1770 C1769 1.410 1_655 S
C1770 C1771 1.392 . S
C1770 C1773 1.511 . S
C1771 C1767 1.376 . S
C1771 C1770 1.392 . S
C1771 H1783 0.929 . S
C1772 C1768 1.531 . S
C1772 H1784 0.960 . S
C1772 H1785 0.962 . S
C1772 H1786 0.960 . S
C1773 C1770 1.511 . S
C1773 H1787 0.961 . S
C1773 H1788 0.961 . S
C1773 H1789 0.961 . S
C1774 C1775 1.370 . S
C1774 C1776 1.363 . S
C1774 H1790 0.931 . S
C1775 C1774 1.370 . S
C1775 C1779 1.408 . S
C1776 C1774 1.363 . S
C1776 C1777 1.370 . S
C1776 C1780 1.524 . S
C1777 C1769 1.503 . S
C1777 C1776 1.370 . S
C1777 C1778 1.403 . S
C1778 C1777 1.403 . S
C1778 C1779 1.404 . S
C1778 C1781 1.539 . S
C1779 C1775 1.408 . S
C1779 C1778 1.404 . S
C1779 H1791 0.930 . S
C1780 C1776 1.524 . S
C1780 H1792 0.956 . S
C1780 H1793 0.961 . S
C1780 H1794 0.961 . S
C1781 C1778 1.539 . S
C1781 H1795 0.958 . S
C1781 H1796 0.961 . S
C1781 H1797 0.960 . S
H1782 C1766 0.931 1_556 S
H1783 C1771 0.929 . S
H1784 C1772 0.960 . S
H1785 C1772 0.962 . S
H1786 C1772 0.960 . S
H1787 C1773 0.961 . S
H1788 C1773 0.961 . S
H1789 C1773 0.961 . S
H1790 C1774 0.931 . S
H1791 C1779 0.930 . S
H1792 C1780 0.956 . S
H1793 C1780 0.961 . S
H1794 C1780 0.961 . S
H1795 C1781 0.958 . S
H1796 C1781 0.961 . S
H1797 C1781 0.960 . S
C1798 C1799 1.391 . S
C1798 C1800 1.394 1_556 S
C1798 H1814 0.931 . S
C1799 C1798 1.391 . S
C1799 C1803 1.376 1_556 S
C1800 C1798 1.394 1_554 S
C1800 C1801 1.369 . S
C1800 C1804 1.531 . S
C1801 C1800 1.369 . S
C1801 C1802 1.410 . S
C1801 C1809 1.503 . S
C1802 C1801 1.410 . S
C1802 C1803 1.392 . S
C1802 C1805 1.511 . S
C1803 C1799 1.376 1_554 S
C1803 C1802 1.392 . S
C1803 H1815 0.929 . S
C1804 C1800 1.531 . S
C1804 H1816 0.960 . S
C1804 H1817 0.962 . S
C1804 H1818 0.960 1_554 S
C1805 C1802 1.511 . S
C1805 H1819 0.961 . S
C1805 H1820 0.961 . S
C1805 H1821 0.961 . S
C1806 C1807 1.370 . S
C1806 C1808 1.363 . S
C1806 H1822 0.931 . S
C1807 C1806 1.370 . S
C1807 C1811 1.408 . S
C1808 C1806 1.363 . S
C1808 C1809 1.370 . S
C1808 C1812 1.524 . S
C1809 C1801 1.503 . S
C1809 C1808 1.370 . S
C1809 C1810 1.403 . S
C1810 C1809 1.403 . S
C1810 C1811 1.404 . S
C1810 C1813 1.539 . S
C1811 C1807 1.408 . S
C1811 C1810 1.404 . S
C1811 H1823 0.930 . S
C1812 C1808 1.524 . S
C1812 H1824 0.956 . S
C1812 H1825 0.961 . S
C1812 H1826 0.961 . S
C1813 C1810 1.539 . S
C1813 H1827 0.958 1_554 S
C1813 H1828 0.961 . S
C1813 H1829 0.960 . S
H1814 C1798 0.931 . S
H1815 C1803 0.929 . S
H1816 C1804 0.960 . S
H1817 C1804 0.962 . S
H1818 C1804 0.960 1_556 S
H1819 C1805 0.961 . S
H1820 C1805 0.961 . S
H1821 C1805 0.961 . S
H1822 C1806 0.931 . S
H1823 C1811 0.930 . S
H1824 C1812 0.956 . S
H1825 C1812 0.961 . S
H1826 C1812 0.961 . S
H1827 C1813 0.958 1_556 S
H1828 C1813 0.961 . S
H1829 C1813 0.960 . S
C1830 C1831 1.391 1_455 S
C1830 C1832 1.394 . S
C1830 H1846 0.931 . S
C1831 C1830 1.391 1_655 S
C1831 C1835 1.376 . S
C1832 C1830 1.394 . S
C1832 C1833 1.369 . S
C1832 C1836 1.531 . S
C1833 C1832 1.369 . S
C1833 C1834 1.380 1_455 S
C1833 C1841 1.503 . S
C1834 C1833 1.380 1_655 S
C1834 C1835 1.395 . S
C1834 C1837 1.540 . S
C1835 C1831 1.376 . S
C1835 C1834 1.395 . S
C1835 H1847 0.929 . S
C1836 C1832 1.531 . S
C1836 H1848 0.960 . S
C1836 H1849 0.962 . S
C1836 H1850 0.960 . S
C1837 C1834 1.540 . S
C1837 H1851 0.961 . S
C1837 H1852 0.961 . S
C1837 H1853 0.961 1_655 S
C1838 C1839 1.370 . S
C1838 C1840 1.363 . S
C1838 H1854 0.931 . S
C1839 C1838 1.370 . S
C1839 C1843 1.408 . S
C1840 C1838 1.363 . S
C1840 C1841 1.370 . S
C1840 C1844 1.524 1_455 S
C1841 C1833 1.503 . S
C1841 C1840 1.370 . S
C1841 C1842 1.403 . S
C1842 C1841 1.403 . S
C1842 C1843 1.404 . S
C1842 C1845 1.539 . S
C1843 C1839 1.408 . S
C1843 C1842 1.404 . S
C1843 H1855 0.930 . S
C1844 C1840 1.524 1_655 S
C1844 H1856 0.956 . S
C1844 H1857 0.961 . S
C1844 H1858 0.961 . S
C1845 C1842 1.539 . S
C1845 H1859 0.958 . S
C1845 H1860 0.961 . S
C1845 H1861 0.960 . S
H1846 C1830 0.931 . S
H1847 C1835 0.929 . S
H1848 C1836 0.960 . S
H1849 C1836 0.962 . S
H1850 C1836 0.960 . S
H1851 C1837 0.961 . S
H1852 C1837 0.961 . S
H1853 C1837 0.961 1_455 S
H1854 C1838 0.931 . S
H1855 C1843 0.930 . S
H1856 C1844 0.956 . S
H1857 C1844 0.961 . S
H1858 C1844 0.961 . S
H1859 C1845 0.958 . S
H1860 C1845 0.961 . S
H1861 C1845 0.960 . S
C1862 C1863 1.391 . S
C1862 C1864 1.394 . S
C1862 H1878 0.931 . S
C1863 C1862 1.391 . S
C1863 C1867 1.376 . S
C1864 C1862 1.394 . S
C1864 C1865 1.369 . S
C1864 C1868 1.531 . S
C1865 C1864 1.369 . S
C1865 C1866 1.410 . S
C1865 C1873 1.503 . S
C1866 C1865 1.410 . S
C1866 C1867 1.392 . S
C1866 C1869 1.511 . S
C1867 C1863 1.376 . S
C1867 C1866 1.392 . S
C1867 H1879 0.929 . S
C1868 C1864 1.531 . S
C1868 H1880 0.960 . S
C1868 H1881 0.962 . S
C1868 H1882 0.960 . S
C1869 C1866 1.511 . S
C1869 H1883 0.961 . S
C1869 H1884 0.961 . S
C1869 H1885 0.961 . S
C1870 C1871 1.370 . S
C1870 C1872 1.363 . S
C1870 H1886 0.931 . S
C1871 C1870 1.370 . S
C1871 C1875 1.408 . S
C1872 C1870 1.363 . S
C1872 C1873 1.370 . S
C1872 C1876 1.524 . S
C1873 C1865 1.503 . S
C1873 C1872 1.370 . S
C1873 C1874 1.403 . S
C1874 C1873 1.403 . S
C1874 C1875 1.404 . S
C1874 C1877 1.539 . S
C1875 C1871 1.408 . S
C1875 C1874 1.404 . S
C1875 H1887 0.930 . S
C1876 C1872 1.524 . S
C1876 H1888 0.956 . S
C1876 H1889 0.961 . S
C1876 H1890 0.961 . S
C1877 C1874 1.539 . S
C1877 H1891 0.958 . S
C1877 H1892 0.961 . S
C1877 H1893 0.960 . S
H1878 C1862 0.931 . S
H1879 C1867 0.929 . S
H1880 C1868 0.960 . S
H1881 C1868 0.962 . S
H1882 C1868 0.960 . S
H1883 C1869 0.961 . S
H1884 C1869 0.961 . S
H1885 C1869 0.961 . S
H1886 C1870 0.931 . S
H1887 C1875 0.930 . S
H1888 C1876 0.956 . S
H1889 C1876 0.961 . S
H1890 C1876 0.961 . S
H1891 C1877 0.958 . S
H1892 C1877 0.961 . S
H1893 C1877 0.960 . S
C1894 C1895 1.391 . S
C1894 C1896 1.394 . S
C1894 H1910 0.931 . S
C1895 C1894 1.391 . S
C1895 C1899 1.376 . S
C1896 C1894 1.394 . S
C1896 C1897 1.369 . S
C1896 C1900 1.531 . S
C1897 C1896 1.369 . S
C1897 C1898 1.410 . S
C1897 C1905 1.503 . S
C1898 C1897 1.410 . S
C1898 C1899 1.392 . S
C1898 C1901 1.511 . S
C1899 C1895 1.376 . S
C1899 C1898 1.392 . S
C1899 H1911 0.929 . S
C1900 C1896 1.531 . S
C1900 H1912 0.960 . S
C1900 H1913 0.962 . S
C1900 H1914 0.960 . S
C1901 C1898 1.511 . S
C1901 H1915 0.961 . S
C1901 H1916 0.961 . S
C1901 H1917 0.961 . S
C1902 C1903 1.370 . S
C1902 C1904 1.363 . S
C1902 H1918 0.931 . S
C1903 C1902 1.370 . S
C1903 C1907 1.408 . S
C1904 C1902 1.363 . S
C1904 C1905 1.370 . S
C1904 C1908 1.524 . S
C1905 C1897 1.503 . S
C1905 C1904 1.370 . S
C1905 C1906 1.403 . S
C1906 C1905 1.403 . S
C1906 C1907 1.404 . S
C1906 C1909 1.539 . S
C1907 C1903 1.408 . S
C1907 C1906 1.404 . S
C1907 H1919 0.930 . S
C1908 C1904 1.524 . S
C1908 H1920 0.956 . S
C1908 H1921 0.961 . S
C1908 H1922 0.961 . S
C1909 C1906 1.539 . S
C1909 H1923 0.958 . S
C1909 H1924 0.961 . S
C1909 H1925 0.960 . S
H1910 C1894 0.931 . S
H1911 C1899 0.929 . S
H1912 C1900 0.960 . S
H1913 C1900 0.962 . S
H1914 C1900 0.960 . S
H1915 C1901 0.961 . S
H1916 C1901 0.961 . S
H1917 C1901 0.961 . S
H1918 C1902 0.931 . S
H1919 C1907 0.930 . S
H1920 C1908 0.956 . S
H1921 C1908 0.961 . S
H1922 C1908 0.961 . S
H1923 C1909 0.958 . S
H1924 C1909 0.961 . S
H1925 C1909 0.960 . S
C1926 C1927 1.393 . S
C1926 C1928 1.394 1_564 S
C1926 H1942 0.931 . S
C1927 C1926 1.393 . S
C1927 C1931 1.370 1_554 S
C1928 C1926 1.394 1_546 S
C1928 C1929 1.369 . S
C1928 C1932 1.531 1_556 S
C1929 C1928 1.369 . S
C1929 C1930 1.410 1_545 S
C1929 C1937 1.503 . S
C1930 C1929 1.410 1_565 S
C1930 C1931 1.392 . S
C1930 C1933 1.511 . S
C1931 C1927 1.370 1_556 S
C1931 C1930 1.392 . S
C1931 H1943 0.929 . S
C1932 C1928 1.531 1_554 S
C1932 H1944 0.960 1_554 S
C1932 H1945 0.962 . S
C1932 H1946 0.960 . S
C1933 C1930 1.511 . S
C1933 H1947 0.961 . S
C1933 H1948 0.961 1_565 S
C1933 H1949 0.961 . S
C1934 C1935 1.370 . S
C1934 C1936 1.363 . S
C1934 H1950 0.931 . S
C1935 C1934 1.370 . S
C1935 C1939 1.408 . S
C1936 C1934 1.363 . S
C1936 C1937 1.370 . S
C1936 C1940 1.524 . S
C1937 C1929 1.503 . S
C1937 C1936 1.370 . S
C1937 C1938 1.403 . S
C1938 C1937 1.403 . S
C1938 C1939 1.404 . S
C1938 C1941 1.539 1_545 S
C1939 C1935 1.408 . S
C1939 C1938 1.404 . S
C1939 H1951 0.930 . S
C1940 C1936 1.524 . S
C1940 H1952 0.956 . S
C1940 H1953 0.961 . S
C1940 H1954 0.961 . S
C1941 C1938 1.539 1_565 S
C1941 H1955 0.958 . S
C1941 H1956 0.961 . S
C1941 H1957 0.960 . S
H1942 C1926 0.931 . S
H1943 C1931 0.929 . S
H1944 C1932 0.960 1_556 S
H1945 C1932 0.962 . S
H1946 C1932 0.960 . S
H1947 C1933 0.961 . S
H1948 C1933 0.961 1_545 S
H1949 C1933 0.961 . S
H1950 C1934 0.931 . S
H1951 C1939 0.930 . S
H1952 C1940 0.956 . S
H1953 C1940 0.961 . S
H1954 C1940 0.961 . S
H1955 C1941 0.958 . S
H1956 C1941 0.961 . S
H1957 C1941 0.960 . S
C1958 C1959 1.391 . S
C1958 C1960 1.394 . S
C1958 H1974 0.931 . S
C1959 C1958 1.391 . S
C1959 C1963 1.376 . S
C1960 C1958 1.394 . S
C1960 C1961 1.369 . S
C1960 C1964 1.531 . S
C1961 C1960 1.369 . S
C1961 C1962 1.410 . S
C1961 C1969 1.503 . S
C1962 C1961 1.410 . S
C1962 C1963 1.392 . S
C1962 C1965 1.511 . S
C1963 C1959 1.376 . S
C1963 C1962 1.392 . S
C1963 H1975 0.929 . S
C1964 C1960 1.531 . S
C1964 H1976 0.960 . S
C1964 H1977 0.962 . S
C1964 H1978 0.960 . S
C1965 C1962 1.511 . S
C1965 H1979 0.961 . S
C1965 H1980 0.961 . S
C1965 H1981 0.961 . S
C1966 C1967 1.370 1_554 S
C1966 C1968 1.363 1_554 S
C1966 H1982 0.931 . S
C1967 C1966 1.370 1_556 S
C1967 C1971 1.408 . S
C1968 C1966 1.363 1_556 S
C1968 C1969 1.370 . S
C1968 C1972 1.524 . S
C1969 C1961 1.503 . S
C1969 C1968 1.370 . S
C1969 C1970 1.403 . S
C1970 C1969 1.403 . S
C1970 C1971 1.404 . S
C1970 C1973 1.539 . S
C1971 C1967 1.408 . S
C1971 C1970 1.404 . S
C1971 H1983 0.930 . S
C1972 C1968 1.524 . S
C1972 H1984 0.956 . S
C1972 H1985 0.961 . S
C1972 H1986 0.961 . S
C1973 C1970 1.539 . S
C1973 H1987 0.958 . S
C1973 H1988 0.961 . S
C1973 H1989 0.960 . S
H1974 C1958 0.931 . S
H1975 C1963 0.929 . S
H1976 C1964 0.960 . S
H1977 C1964 0.962 . S
H1978 C1964 0.960 . S
H1979 C1965 0.961 . S
H1980 C1965 0.961 . S
H1981 C1965 0.961 . S
H1982 C1966 0.931 . S
H1983 C1971 0.930 . S
H1984 C1972 0.956 . S
H1985 C1972 0.961 . S
H1986 C1972 0.961 . S
H1987 C1973 0.958 . S
H1988 C1973 0.961 . S
H1989 C1973 0.960 . S
C1990 C1991 1.391 . S
C1990 C1992 1.394 . S
C1990 H2006 0.931 . S
C1991 C1990 1.391 . S
C1991 C1995 1.376 . S
C1992 C1990 1.394 . S
C1992 C1993 1.369 . S
C1992 C1996 1.531 . S
C1993 C1992 1.369 . S
C1993 C1994 1.410 . S
C1993 C2001 1.503 . S
C1994 C1993 1.410 . S
C1994 C1995 1.392 . S
C1994 C1997 1.511 . S
C1995 C1991 1.376 . S
C1995 C1994 1.392 . S
C1995 H2007 0.929 . S
C1996 C1992 1.531 . S
C1996 H2008 0.960 . S
C1996 H2009 0.962 . S
C1996 H2010 0.960 . S
C1997 C1994 1.511 . S
C1997 H2011 0.961 . S
C1997 H2012 0.961 . S
C1997 H2013 0.961 . S
C1998 C1999 1.371 . S
C1998 C2000 1.363 . S
C1998 H2014 0.931 1_556 S
C1999 C1998 1.371 . S
C1999 C2003 1.417 . S
C2000 C1998 1.363 . S
C2000 C2001 1.370 . S
C2000 C2004 1.524 . S
C2001 C1993 1.503 . S
C2001 C2000 1.370 . S
C2001 C2002 1.403 . S
C2002 C2001 1.403 . S
C2002 C2003 1.404 . S
C2002 C2005 1.539 . S
C2003 C1999 1.417 . S
C2003 C2002 1.404 . S
C2003 H2015 0.930 . S
C2004 C2000 1.524 . S
C2004 H2016 0.956 . S
C2004 H2017 0.961 . S
C2004 H2018 0.961 . S
C2005 C2002 1.539 . S
C2005 H2019 0.958 . S
C2005 H2020 0.961 . S
C2005 H2021 0.960 . S
H2006 C1990 0.931 . S
H2007 C1995 0.929 . S
H2008 C1996 0.960 . S
H2009 C1996 0.962 . S
H2010 C1996 0.960 . S
H2011 C1997 0.961 . S
H2012 C1997 0.961 . S
H2013 C1997 0.961 . S
H2014 C1998 0.931 1_554 S
H2015 C2003 0.930 . S
H2016 C2004 0.956 . S
H2017 C2004 0.961 . S
H2018 C2004 0.961 . S
H2019 C2005 0.958 . S
H2020 C2005 0.961 . S
H2021 C2005 0.960 . S
C2022 C2023 1.391 . S
C2022 C2024 1.394 . S
C2022 H2038 0.931 . S
C2023 C2022 1.391 . S
C2023 C2027 1.376 . S
C2024 C2022 1.394 . S
C2024 C2025 1.369 . S
C2024 C2028 1.531 . S
C2025 C2024 1.369 . S
C2025 C2026 1.410 . S
C2025 C2033 1.503 . S
C2026 C2025 1.410 . S
C2026 C2027 1.392 . S
C2026 C2029 1.511 . S
C2027 C2023 1.376 . S
C2027 C2026 1.392 . S
C2027 H2039 0.929 . S
C2028 C2024 1.531 . S
C2028 H2040 0.960 . S
C2028 H2041 0.962 . S
C2028 H2042 0.960 . S
C2029 C2026 1.511 . S
C2029 H2043 0.961 . S
C2029 H2044 0.961 . S
C2029 H2045 0.961 . S
C2030 C2031 1.370 . S
C2030 C2032 1.363 . S
C2030 H2046 0.931 . S
C2031 C2030 1.370 . S
C2031 C2035 1.408 . S
C2032 C2030 1.363 . S
C2032 C2033 1.370 . S
C2032 C2036 1.524 . S
C2033 C2025 1.503 . S
C2033 C2032 1.370 . S
C2033 C2034 1.403 . S
C2034 C2033 1.403 . S
C2034 C2035 1.404 . S
C2034 C2037 1.539 . S
C2035 C2031 1.408 . S
C2035 C2034 1.404 . S
C2035 H2047 0.930 . S
C2036 C2032 1.524 . S
C2036 H2048 0.956 . S
C2036 H2049 0.961 . S
C2036 H2050 0.961 . S
C2037 C2034 1.539 . S
C2037 H2051 0.958 . S
C2037 H2052 0.961 . S
C2037 H2053 0.960 . S
H2038 C2022 0.931 . S
H2039 C2027 0.929 . S
H2040 C2028 0.960 . S
H2041 C2028 0.962 . S
H2042 C2028 0.960 . S
H2043 C2029 0.961 . S
H2044 C2029 0.961 . S
H2045 C2029 0.961 . S
H2046 C2030 0.931 . S
H2047 C2035 0.930 . S
H2048 C2036 0.956 . S
H2049 C2036 0.961 . S
H2050 C2036 0.961 . S
H2051 C2037 0.958 . S
H2052 C2037 0.961 . S
H2053 C2037 0.960 . S
C2054 C2055 1.391 . S
C2054 C2056 1.394 . S
C2054 H2070 0.931 . S
C2055 C2054 1.391 . S
C2055 C2059 1.376 . S
C2056 C2054 1.394 . S
C2056 C2057 1.369 . S
C2056 C2060 1.531 . S
C2057 C2056 1.369 . S
C2057 C2058 1.410 . S
C2057 C2065 1.503 . S
C2058 C2057 1.410 . S
C2058 C2059 1.392 . S
C2058 C2061 1.511 . S
C2059 C2055 1.376 . S
C2059 C2058 1.392 . S
C2059 H2071 0.929 . S
C2060 C2056 1.531 . S
C2060 H2072 0.960 . S
C2060 H2073 0.962 . S
C2060 H2074 0.960 . S
C2061 C2058 1.511 . S
C2061 H2075 0.961 . S
C2061 H2076 0.961 . S
C2061 H2077 0.961 . S
C2062 C2063 1.370 . S
C2062 C2064 1.363 . S
C2062 H2078 0.931 . S
C2063 C2062 1.370 . S
C2063 C2067 1.408 . S
C2064 C2062 1.363 . S
C2064 C2065 1.370 . S
C2064 C2068 1.524 . S
C2065 C2057 1.503 . S
C2065 C2064 1.370 . S
C2065 C2066 1.403 . S
C2066 C2065 1.403 . S
C2066 C2067 1.404 . S
C2066 C2069 1.539 . S
C2067 C2063 1.408 . S
C2067 C2066 1.404 . S
C2067 H2079 0.930 . S
C2068 C2064 1.524 . S
C2068 H2080 0.956 . S
C2068 H2081 0.961 . S
C2068 H2082 0.961 . S
C2069 C2066 1.539 . S
C2069 H2083 0.958 . S
C2069 H2084 0.961 . S
C2069 H2085 0.960 . S
H2070 C2054 0.931 . S
H2071 C2059 0.929 . S
H2072 C2060 0.960 . S
H2073 C2060 0.962 . S
H2074 C2060 0.960 . S
H2075 C2061 0.961 . S
H2076 C2061 0.961 . S
H2077 C2061 0.961 . S
H2078 C2062 0.931 . S
H2079 C2067 0.930 . S
H2080 C2068 0.956 . S
H2081 C2068 0.961 . S
H2082 C2068 0.961 . S
H2083 C2069 0.958 . S
H2084 C2069 0.961 . S
H2085 C2069 0.960 . S
C2086 C2087 1.391 . S
C2086 C2088 1.394 . S
C2086 H2102 0.931 . S
C2087 C2086 1.391 . S
C2087 C2091 1.376 . S
C2088 C2086 1.394 . S
C2088 C2089 1.369 . S
C2088 C2092 1.531 . S
C2089 C2088 1.369 . S
C2089 C2090 1.410 . S
C2089 C2097 1.503 . S
C2090 C2089 1.410 . S
C2090 C2091 1.392 . S
C2090 C2093 1.511 . S
C2091 C2087 1.376 . S
C2091 C2090 1.392 . S
C2091 H2103 0.929 . S
C2092 C2088 1.531 . S
C2092 H2104 0.960 . S
C2092 H2105 0.962 . S
C2092 H2106 0.960 . S
C2093 C2090 1.511 . S
C2093 H2107 0.961 . S
C2093 H2108 0.961 . S
C2093 H2109 0.961 . S
C2094 C2095 1.370 . S
C2094 C2096 1.363 . S
C2094 H2110 0.931 . S
C2095 C2094 1.370 . S
C2095 C2099 1.408 . S
C2096 C2094 1.363 . S
C2096 C2097 1.370 . S
C2096 C2100 1.524 . S
C2097 C2089 1.503 . S
C2097 C2096 1.370 . S
C2097 C2098 1.403 . S
C2098 C2097 1.403 . S
C2098 C2099 1.404 . S
C2098 C2101 1.539 . S
C2099 C2095 1.408 . S
C2099 C2098 1.404 . S
C2099 H2111 0.930 . S
C2100 C2096 1.524 . S
C2100 H2112 0.956 . S
C2100 H2113 0.961 . S
C2100 H2114 0.961 . S
C2101 C2098 1.539 . S
C2101 H2115 0.958 . S
C2101 H2116 0.961 . S
C2101 H2117 0.960 . S
H2102 C2086 0.931 . S
H2103 C2091 0.929 . S
H2104 C2092 0.960 . S
H2105 C2092 0.962 . S
H2106 C2092 0.960 . S
H2107 C2093 0.961 . S
H2108 C2093 0.961 . S
H2109 C2093 0.961 . S
H2110 C2094 0.931 . S
H2111 C2099 0.930 . S
H2112 C2100 0.956 . S
H2113 C2100 0.961 . S
H2114 C2100 0.961 . S
H2115 C2101 0.958 . S
H2116 C2101 0.961 . S
H2117 C2101 0.960 . S
C2118 C2119 1.391 . S
C2118 C2120 1.394 . S
C2118 H2134 0.931 . S
C2119 C2118 1.391 . S
C2119 C2123 1.376 . S
C2120 C2118 1.394 . S
C2120 C2121 1.369 . S
C2120 C2124 1.531 . S
C2121 C2120 1.369 . S
C2121 C2122 1.410 . S
C2121 C2129 1.503 . S
C2122 C2121 1.410 . S
C2122 C2123 1.392 . S
C2122 C2125 1.511 . S
C2123 C2119 1.376 . S
C2123 C2122 1.392 . S
C2123 H2135 0.929 . S
C2124 C2120 1.531 . S
C2124 H2136 0.960 . S
C2124 H2137 0.962 . S
C2124 H2138 0.960 . S
C2125 C2122 1.511 . S
C2125 H2139 0.961 . S
C2125 H2140 0.961 . S
C2125 H2141 0.961 . S
C2126 C2127 1.370 . S
C2126 C2128 1.363 . S
C2126 H2142 0.931 . S
C2127 C2126 1.370 . S
C2127 C2131 1.408 . S
C2128 C2126 1.363 . S
C2128 C2129 1.370 . S
C2128 C2132 1.524 . S
C2129 C2121 1.503 . S
C2129 C2128 1.370 . S
C2129 C2130 1.403 . S
C2130 C2129 1.403 . S
C2130 C2131 1.404 . S
C2130 C2133 1.539 . S
C2131 C2127 1.408 . S
C2131 C2130 1.404 . S
C2131 H2143 0.930 . S
C2132 C2128 1.524 . S
C2132 H2144 0.956 . S
C2132 H2145 0.961 . S
C2132 H2146 0.961 . S
C2133 C2130 1.539 . S
C2133 H2147 0.958 . S
C2133 H2148 0.961 . S
C2133 H2149 0.960 . S
H2134 C2118 0.931 . S
H2135 C2123 0.929 . S
H2136 C2124 0.960 . S
H2137 C2124 0.962 . S
H2138 C2124 0.960 . S
H2139 C2125 0.961 . S
H2140 C2125 0.961 . S
H2141 C2125 0.961 . S
H2142 C2126 0.931 . S
H2143 C2131 0.930 . S
H2144 C2132 0.956 . S
H2145 C2132 0.961 . S
H2146 C2132 0.961 . S
H2147 C2133 0.958 . S
H2148 C2133 0.961 . S
H2149 C2133 0.960 . S
C2150 C2151 1.391 . S
C2150 C2152 1.394 . S
C2150 H2166 0.931 . S
C2151 C2150 1.391 . S
C2151 C2155 1.376 . S
C2152 C2150 1.394 . S
C2152 C2153 1.369 . S
C2152 C2156 1.531 . S
C2153 C2152 1.369 . S
C2153 C2154 1.410 . S
C2153 C2161 1.503 . S
C2154 C2153 1.410 . S
C2154 C2155 1.392 . S
C2154 C2157 1.511 . S
C2155 C2151 1.376 . S
C2155 C2154 1.392 . S
C2155 H2167 0.929 . S
C2156 C2152 1.531 . S
C2156 H2168 0.960 . S
C2156 H2169 0.962 . S
C2156 H2170 0.960 . S
C2157 C2154 1.511 . S
C2157 H2171 0.961 . S
C2157 H2172 0.961 . S
C2157 H2173 0.961 . S
C2158 C2159 1.370 . S
C2158 C2160 1.363 . S
C2158 H2174 0.931 . S
C2159 C2158 1.370 . S
C2159 C2163 1.408 . S
C2160 C2158 1.363 . S
C2160 C2161 1.370 . S
C2160 C2164 1.524 . S
C2161 C2153 1.503 . S
C2161 C2160 1.370 . S
C2161 C2162 1.403 . S
C2162 C2161 1.403 . S
C2162 C2163 1.404 . S
C2162 C2165 1.539 . S
C2163 C2159 1.408 . S
C2163 C2162 1.404 . S
C2163 H2175 0.930 . S
C2164 C2160 1.524 . S
C2164 H2176 0.956 . S
C2164 H2177 0.961 . S
C2164 H2178 0.961 . S
C2165 C2162 1.539 . S
C2165 H2179 0.958 . S
C2165 H2180 0.961 . S
C2165 H2181 0.960 . S
H2166 C2150 0.931 . S
H2167 C2155 0.929 . S
H2168 C2156 0.960 . S
H2169 C2156 0.962 . S
H2170 C2156 0.960 . S
H2171 C2157 0.961 . S
H2172 C2157 0.961 . S
H2173 C2157 0.961 . S
H2174 C2158 0.931 . S
H2175 C2163 0.930 . S
H2176 C2164 0.956 . S
H2177 C2164 0.961 . S
H2178 C2164 0.961 . S
H2179 C2165 0.958 . S
H2180 C2165 0.961 . S
H2181 C2165 0.960 . S
C2182 C2183 1.391 . S
C2182 C2184 1.394 . S
C2182 H2198 0.931 . S
C2183 C2182 1.391 . S
C2183 C2187 1.376 . S
C2184 C2182 1.394 . S
C2184 C2185 1.369 . S
C2184 C2188 1.531 . S
C2185 C2184 1.369 . S
C2185 C2186 1.410 . S
C2185 C2193 1.503 . S
C2186 C2185 1.410 . S
C2186 C2187 1.392 . S
C2186 C2189 1.511 . S
C2187 C2183 1.376 . S
C2187 C2186 1.392 . S
C2187 H2199 0.929 . S
C2188 C2184 1.531 . S
C2188 H2200 0.960 . S
C2188 H2201 0.962 . S
C2188 H2202 0.960 . S
C2189 C2186 1.511 . S
C2189 H2203 0.961 . S
C2189 H2204 0.961 . S
C2189 H2205 0.961 . S
C2190 C2191 1.370 . S
C2190 C2192 1.363 . S
C2190 H2206 0.931 . S
C2191 C2190 1.370 . S
C2191 C2195 1.408 . S
C2192 C2190 1.363 . S
C2192 C2193 1.370 . S
C2192 C2196 1.524 . S
C2193 C2185 1.503 . S
C2193 C2192 1.370 . S
C2193 C2194 1.403 . S
C2194 C2193 1.403 . S
C2194 C2195 1.404 . S
C2194 C2197 1.539 . S
C2195 C2191 1.408 . S
C2195 C2194 1.404 . S
C2195 H2207 0.930 . S
C2196 C2192 1.524 . S
C2196 H2208 0.956 . S
C2196 H2209 0.961 . S
C2196 H2210 0.961 . S
C2197 C2194 1.539 . S
C2197 H2211 0.958 . S
C2197 H2212 0.961 . S
C2197 H2213 0.960 . S
H2198 C2182 0.931 . S
H2199 C2187 0.929 . S
H2200 C2188 0.960 . S
H2201 C2188 0.962 . S
H2202 C2188 0.960 . S
H2203 C2189 0.961 . S
H2204 C2189 0.961 . S
H2205 C2189 0.961 . S
H2206 C2190 0.931 . S
H2207 C2195 0.930 . S
H2208 C2196 0.956 . S
H2209 C2196 0.961 . S
H2210 C2196 0.961 . S
H2211 C2197 0.958 . S
H2212 C2197 0.961 . S
H2213 C2197 0.960 . S
C1063 C180 1.278 . S
C1071 C3 1.304 . S
C1095 C241 1.282 . S
C1103 C64 1.307 . S
C1127 C121 1.311 . S
C1135 C298 1.288 . S
C1159 C123 1.307 . S
C1167 C300 1.296 . S
C1191 C5 1.306 . S
C1199 C182 1.296 . S
C1223 C239 1.270 . S
C1231 C62 1.303 . S
C1255 C534 1.272 . S
C1263 C359 1.303 . S
C1287 C418 1.302 . S
C1295 C593 1.288 . S
C1319 C477 1.311 . S
C1327 C652 1.285 . S
C1351 C654 1.301 . S
C1359 C475 1.292 . S
C1383 C536 1.305 . S
C1391 C357 1.289 . S
C1415 C595 1.309 . S
C1423 C416 1.296 . S
C1447 C711 1.290 . S
C1455 C888 1.297 . S
C1479 C772 1.290 . S
C1487 C949 1.303 . S
C1511 C829 1.312 . S
C1519 C1006 1.290 . S
C1543 C1008 1.282 . S
C1551 C831 1.305 . S
C1575 C890 1.282 . S
C1583 C713 1.306 . S
C1607 C947 1.271 . S
C1615 C770 1.303 . S
C1639 C33 1.501 . S
C1647 C446 1.517 . S
C1671 C111 1.508 . S
C1679 C505 1.511 . S
C1703 C387 1.496 . S
C1711 C151 1.513 . S
C1735 C170 1.500 . S
C1743 C819 1.520 . S
C1767 C859 1.499 1_554 S
C1775 C52 1.518 . S
C1799 C741 1.511 . S
C1807 C92 1.506 . S
C1831 C977 1.508 . S
C1839 C210 1.505 . S
C1863 C288 1.518 . S
C1871 C1055 1.511 . S
C1895 C937 1.500 . S
C1903 C328 1.517 . S
C1927 C623 1.518 . S
C1935 C347 1.515 . S
C1959 C229 1.514 . S
C1967 C682 1.508 1_556 S
C1991 C269 1.517 . S
C1999 C564 1.505 1_556 S
C2023 C406 1.517 . S
C2031 C800 1.507 . S
C2055 C465 1.521 . S
C2063 C878 1.510 . S
C2087 C524 1.501 . S
C2095 C760 1.518 . S
C2119 C996 1.519 . S
C2127 C701 1.515 . S
C2151 C1036 1.499 . S
C2159 C583 1.514 . S
C2183 C642 1.498 . S
C2191 C918 1.515 . S
