# Generated by pormake.
# Topology vby, (6)-cn, num edge types: 1
# Building blocks:
#     Node 0, Type 0, BuildingBlock: BETDEL_clean_sbu_0, # of connection points: 6
#     Node 1, Type 0, BuildingBlock: BETDEL_clean_sbu_0, # of connection points: 6
#     Node 2, Type 0, BuildingBlock: BETDEL_clean_sbu_0, # of connection points: 6
#     Node 3, Type 0, BuildingBlock: BETDEL_clean_sbu_0, # of connection points: 6
#     Node 4, Type 0, BuildingBlock: BETDEL_clean_sbu_0, # of connection points: 6
#     Node 5, Type 0, BuildingBlock: BETDEL_clean_sbu_0, # of connection points: 6
#     Node 6, Type 0, BuildingBlock: BETDEL_clean_sbu_0, # of connection points: 6
#     Node 7, Type 0, BuildingBlock: BETDEL_clean_sbu_0, # of connection points: 6
#     Edge 8, Type (0, 0), BuildingBlock: OJICUG_clean_linker_0, # of connection points: 2
#     Edge 9, Type (0, 0), BuildingBlock: OJICUG_clean_linker_0, # of connection points: 2
#     Edge 10, Type (0, 0), BuildingBlock: OJICUG_clean_linker_0, # of connection points: 2
#     Edge 11, Type (0, 0), BuildingBlock: OJICUG_clean_linker_0, # of connection points: 2
#     Edge 12, Type (0, 0), BuildingBlock: OJICUG_clean_linker_0, # of connection points: 2
#     Edge 13, Type (0, 0), BuildingBlock: OJICUG_clean_linker_0, # of connection points: 2
#     Edge 14, Type (0, 0), BuildingBlock: OJICUG_clean_linker_0, # of connection points: 2
#     Edge 15, Type (0, 0), BuildingBlock: OJICUG_clean_linker_0, # of connection points: 2
#     Edge 16, Type (0, 0), BuildingBlock: OJICUG_clean_linker_0, # of connection points: 2
#     Edge 17, Type (0, 0), BuildingBlock: OJICUG_clean_linker_0, # of connection points: 2
#     Edge 18, Type (0, 0), BuildingBlock: OJICUG_clean_linker_0, # of connection points: 2
#     Edge 19, Type (0, 0), BuildingBlock: OJICUG_clean_linker_0, # of connection points: 2
#     Edge 20, Type (0, 0), BuildingBlock: OJICUG_clean_linker_0, # of connection points: 2
#     Edge 21, Type (0, 0), BuildingBlock: OJICUG_clean_linker_0, # of connection points: 2
#     Edge 22, Type (0, 0), BuildingBlock: OJICUG_clean_linker_0, # of connection points: 2
#     Edge 23, Type (0, 0), BuildingBlock: OJICUG_clean_linker_0, # of connection points: 2
#     Edge 24, Type (0, 0), BuildingBlock: OJICUG_clean_linker_0, # of connection points: 2
#     Edge 25, Type (0, 0), BuildingBlock: OJICUG_clean_linker_0, # of connection points: 2
#     Edge 26, Type (0, 0), BuildingBlock: OJICUG_clean_linker_0, # of connection points: 2
#     Edge 27, Type (0, 0), BuildingBlock: OJICUG_clean_linker_0, # of connection points: 2
#     Edge 28, Type (0, 0), BuildingBlock: OJICUG_clean_linker_0, # of connection points: 2
#     Edge 29, Type (0, 0), BuildingBlock: OJICUG_clean_linker_0, # of connection points: 2
#     Edge 30, Type (0, 0), BuildingBlock: OJICUG_clean_linker_0, # of connection points: 2
#     Edge 31, Type (0, 0), BuildingBlock: OJICUG_clean_linker_0, # of connection points: 2
# Relax obj value: 0.131
# Max RMSD: 0.166
# Mean RMSD: 0.166
data_MOF--net-vby--node1-BETDEL_clean_sbu_0--edge1-OJICUG_clean_linker_0
_symmetry_space_group_name_H-M    P1
_symmetry_Int_Tables_number       1
_symmetry_cell_setting            triclinic
loop_
_symmetry_equiv_pos_as_xyz
'x, y, z'
_cell_length_a     11.399895
_cell_length_b     54.800861
_cell_length_c     20.763885
_cell_angle_alpha  89.995574
_cell_angle_beta   86.714069
_cell_angle_gamma 90.056104
loop_
_atom_site_label
_atom_site_type_symbol
_atom_site_fract_x
_atom_site_fract_y
_atom_site_fract_z
_atom_type_partial_charge
Dy0 Dy 0.06238 0.42334 0.02722 0.0
C1 C 0.11969 0.3185 0.03921 0.0
C2 C 0.02916 0.47258 0.02317 0.0
Dy3 Dy 0.06348 0.36587 0.01486 0.0
O4 O 0.98959 0.45828 0.06929 0.0
O5 O 0.08627 0.45994 0.97854 0.0
O6 O 0.12876 0.41823 0.12573 0.0
O7 O 0.01397 0.39239 0.09094 0.0
C8 C 0.0737 0.39785 0.13816 0.0
C9 C 0.07797 0.387 0.89726 0.0
O10 O 0.86981 0.37236 0.02824 0.0
O11 O 0.87628 0.41421 1.00522 0.0
O12 O 0.04832 0.32554 0.99602 0.0
O13 O 0.15254 0.33725 0.07209 0.0
O14 O 0.07298 0.36357 0.90574 0.0
O15 O 0.07642 0.39683 0.95178 0.0
O16 O 0.25419 0.41745 1.00444 0.0
O17 O 0.25206 0.37582 0.02574 0.0
C18 C 0.81749 0.39339 0.01502 0.0
C19 C 0.30901 0.39653 0.01365 0.0
Dy20 Dy 0.94955 0.68075 0.03531 0.0
C21 C 0.97674 0.57724 0.02538 0.0
C22 C 0.88588 0.72877 0.02614 0.0
Dy23 Dy 0.94572 0.62672 0.02271 0.0
O24 O 0.93332 0.71895 0.07526 0.0
O25 O 0.8811 0.71272 0.98036 0.0
O26 O 0.0311 0.67829 0.12929 0.0
O27 O 0.9093 0.65115 0.10472 0.0
C28 C 0.98276 0.65755 0.14509 0.0
C29 C 0.93276 0.65113 0.91043 0.0
O30 O 0.75315 0.63088 0.04093 0.0
O31 O 0.75776 0.6727 0.02812 0.0
O32 O 0.00903 0.59143 0.97772 0.0
O33 O 0.92794 0.59008 0.07217 0.0
O34 O 0.87197 0.63175 0.92579 0.0
O35 O 0.99722 0.65628 0.95569 0.0
O36 O 0.14038 0.67533 1.00957 0.0
O37 O 0.134 0.63478 0.04151 0.0
C38 C 0.69923 0.65198 0.03495 0.0
C39 C 0.19395 0.65488 0.02566 0.0
Dy40 Dy 0.05823 0.67923 0.51894 0.0
C41 C 0.02976 0.57515 0.52678 0.0
C42 C 0.1241 0.72731 0.51963 0.0
Dy43 Dy 0.06038 0.62471 0.53134 0.0
O44 O 0.13046 0.713 0.46989 0.0
O45 O 0.07509 0.71571 0.56894 0.0
O46 O 0.9684 0.67655 0.42755 0.0
O47 O 0.09218 0.64943 0.44936 0.0
C48 C 0.01593 0.65586 0.41054 0.0
C49 C 0.07822 0.6491 0.64333 0.0
O50 O 0.25221 0.62964 0.51091 0.0
O51 O 0.246 0.67055 0.53667 0.0
O52 O 1.00138 0.58896 0.57583 0.0
O53 O 0.07459 0.58841 0.47967 0.0
O54 O 0.13538 0.62923 0.62836 0.0
O55 O 0.01379 0.65444 0.59827 0.0
O56 O 0.86601 0.67427 0.54198 0.0
O57 O 0.8706 0.63294 0.51646 0.0
C58 C 0.30556 0.65033 0.52352 0.0
C59 C 0.81179 0.65342 0.52976 0.0
Dy60 Dy 0.94321 0.42079 0.51889 0.0
C61 C 0.8778 0.31864 0.52946 0.0
C62 C 0.97447 0.47036 0.52381 0.0
Dy63 Dy 0.94456 0.36668 0.53009 0.0
O64 O 1.0047 0.4565 0.47513 0.0
O65 O 0.9275 0.45712 0.57038 0.0
O66 O 0.86738 0.41683 0.42186 0.0
O67 O 0.9893 0.39136 0.45031 0.0
C68 C 0.92491 0.39716 0.4055 0.0
C69 C 0.99157 0.38914 0.63912 0.0
O70 O 0.13696 0.37154 0.50658 0.0
O71 O 0.13288 0.4127 0.53337 0.0
O72 O 0.86971 0.33309 0.57886 0.0
O73 O 0.92888 0.33008 0.48045 0.0
O74 O 0.03732 0.36848 0.62043 0.0
O75 O 0.91382 0.39614 0.60166 0.0
O76 O 0.75122 0.41602 0.53951 0.0
O77 O 0.75716 0.37533 0.51219 0.0
C78 C 0.19154 0.3923 0.5193 0.0
C79 C 0.69764 0.39545 0.52617 0.0
Dy80 Dy 0.56235 0.92333 0.02721 0.0
C81 C 0.61965 0.8185 0.0392 0.0
C82 C 0.52916 0.97257 0.02319 0.0
Dy83 Dy 0.56346 0.86587 0.01484 0.0
O84 O 0.48956 0.95827 0.06929 0.0
O85 O 0.58628 0.95994 0.97856 0.0
O86 O 0.62874 0.91821 0.12571 0.0
O87 O 0.51393 0.89238 0.09092 0.0
C88 C 0.57367 0.89784 0.13815 0.0
C89 C 0.57799 0.887 0.89724 0.0
O90 O 0.36979 0.87236 0.0282 0.0
O91 O 0.37626 0.91421 1.0052 0.0
O92 O 0.54827 0.82554 0.99601 0.0
O93 O 0.65252 0.83725 0.07206 0.0
O94 O 0.57304 0.86356 0.90572 0.0
O95 O 0.57638 0.89683 0.95174 0.0
O96 O 0.75416 0.91745 1.00442 0.0
O97 O 0.75204 0.87581 0.02572 0.0
C98 C 0.31747 0.89339 0.01499 0.0
C99 C 0.80898 0.89652 0.01363 0.0
Dy100 Dy 0.44955 0.18074 0.03535 0.0
C101 C 0.47678 0.07723 0.02545 0.0
C102 C 0.38586 0.22875 0.0262 0.0
Dy103 Dy 0.44573 0.12671 0.02277 0.0
O104 O 0.43328 0.21894 0.07531 0.0
O105 O 0.38112 0.21271 0.9804 0.0
O106 O 0.53109 0.17828 0.12934 0.0
O107 O 0.40928 0.15114 0.10477 0.0
C108 C 0.48274 0.15754 0.14515 0.0
C109 C 0.43278 0.15111 0.91049 0.0
O110 O 0.25315 0.13087 0.041 0.0
O111 O 0.25778 0.17268 0.0281 0.0
O112 O 0.50909 0.09142 0.9778 0.0
O113 O 0.42794 0.09007 0.07223 0.0
O114 O 0.37199 0.13173 0.92585 0.0
O115 O 0.49724 0.15626 0.95575 0.0
O116 O 0.64038 0.17531 1.0096 0.0
O117 O 0.634 0.13477 0.0416 0.0
C118 C 0.19924 0.15196 0.03497 0.0
C119 C 0.69395 0.15486 0.02571 0.0
Dy120 Dy 0.55824 0.17923 0.519 0.0
C121 C 0.52978 0.07515 0.52683 0.0
C122 C 0.62408 0.22732 0.51971 0.0
Dy123 Dy 0.5604 0.12471 0.53139 0.0
O124 O 0.63031 0.21302 0.46995 0.0
O125 O 0.57521 0.2157 0.56904 0.0
O126 O 0.46841 0.17655 0.4276 0.0
O127 O 0.5922 0.14943 0.44942 0.0
C128 C 0.51595 0.15586 0.41059 0.0
C129 C 0.57824 0.1491 0.64339 0.0
O130 O 0.75223 0.12964 0.51097 0.0
O131 O 0.74603 0.17055 0.5367 0.0
O132 O 0.50138 0.08897 0.57589 0.0
O133 O 0.57462 0.08842 0.47973 0.0
O134 O 0.63541 0.12924 0.62842 0.0
O135 O 0.51381 0.15444 0.59833 0.0
O136 O 0.36603 0.17427 0.54205 0.0
O137 O 0.37062 0.13294 0.51651 0.0
C138 C 0.80558 0.15033 0.52357 0.0
C139 C 0.31181 0.15342 0.52983 0.0
Dy140 Dy 0.4432 0.92079 0.51889 0.0
C141 C 0.37774 0.81864 0.52942 0.0
C142 C 0.47447 0.97036 0.52384 0.0
Dy143 Dy 0.44455 0.86668 0.53004 0.0
O144 O 0.50473 0.95651 0.47516 0.0
O145 O 0.42746 0.95712 0.57039 0.0
O146 O 0.36736 0.91685 0.42186 0.0
O147 O 0.48927 0.89137 0.45029 0.0
C148 C 0.42488 0.89717 0.40548 0.0
C149 C 0.49161 0.88913 0.63909 0.0
O150 O 0.63694 0.87154 0.50653 0.0
O151 O 0.63287 0.9127 0.53336 0.0
O152 O 0.36952 0.8331 0.57879 0.0
O153 O 0.42896 0.83007 0.48043 0.0
O154 O 0.53733 0.86847 0.62038 0.0
O155 O 0.41384 0.89613 0.60164 0.0
O156 O 0.25121 0.91602 0.53951 0.0
O157 O 0.25716 0.87534 0.51212 0.0
C158 C 0.69153 0.8923 0.51927 0.0
C159 C 0.19763 0.89545 0.52614 0.0
C160 C 0.50665 0.41703 1.00055 0.0
C161 C 0.43933 0.39584 1.01216 0.0
H162 H 0.67828 0.4329 0.9921 0.0
C163 C 0.49783 0.37374 0.02336 0.0
H164 H 0.46474 0.43434 0.99165 0.0
C165 C 0.62029 0.37288 0.02368 0.0
C166 C 0.68763 0.39409 0.01277 0.0
H167 H 0.44915 0.35698 0.0324 0.0
H168 H 0.66189 0.35557 0.03297 0.0
C169 C 0.62935 0.41616 1.00081 0.0
C170 C 0.38061 0.63221 0.04081 0.0
C171 C 0.32323 0.65422 0.02758 0.0
H172 H 0.544 0.61419 0.05368 0.0
C173 C 0.39039 0.67549 0.01748 0.0
H174 H 0.33149 0.61545 0.0489 0.0
C175 C 0.51235 0.67476 0.0206 0.0
C176 C 0.5698 0.65272 0.03362 0.0
H177 H 0.34891 0.69274 1.00741 0.0
H178 H 0.5615 0.69151 0.01237 0.0
C179 C 0.50259 0.63145 0.04366 0.0
C180 C 0.62456 0.63081 0.51466 0.0
C181 C 0.6822 0.65272 0.52895 0.0
H182 H 0.46099 0.61283 0.5016 0.0
C183 C 0.61488 0.67379 0.54142 0.0
H184 H 0.67364 0.61419 0.50468 0.0
C185 C 0.49263 0.67298 0.53953 0.0
C186 C 0.43505 0.65107 0.52515 0.0
H187 H 0.6564 0.69095 0.55249 0.0
H188 H 0.44343 0.6896 0.54935 0.0
C189 C 0.50241 0.62999 0.51278 0.0
C190 C 0.50064 0.41571 0.53731 0.0
C191 C 0.56817 0.39471 0.5244 0.0
H192 H 0.32929 0.43143 0.54566 0.0
C193 C 0.51083 0.37284 0.50928 0.0
H194 H 0.54189 0.43283 0.54906 0.0
C195 C 0.38861 0.372 0.50719 0.0
C196 C 0.32111 0.393 0.52019 0.0
H197 H 0.56019 0.35627 0.49905 0.0
H198 H 0.34724 0.35488 0.49558 0.0
C199 C 0.37853 0.41487 0.53523 0.0
C200 C 0.99781 0.87373 0.02333 0.0
C201 C 0.93931 0.89584 1.01214 0.0
H202 H 0.16187 0.85557 0.03293 0.0
C203 C 0.00662 0.91703 1.00053 0.0
H204 H 0.94914 0.85698 0.03237 0.0
C205 C 0.12932 0.91616 1.00078 0.0
C206 C 0.1876 0.89409 0.01274 0.0
H207 H 0.96471 0.93433 0.99164 0.0
H208 H 0.17825 0.9329 0.99207 0.0
C209 C 0.12026 0.87288 0.02365 0.0
C210 C 1.00255 0.13146 0.04401 0.0
C211 C 0.06982 0.1527 0.03361 0.0
H212 H 0.83141 0.11548 0.04956 0.0
C213 C 0.01242 0.17471 0.02025 0.0
H214 H 0.04392 0.11422 0.05431 0.0
C215 C 0.89045 0.17544 0.01715 0.0
C216 C 0.82324 0.15421 0.02762 0.0
H217 H 0.06162 0.19144 1.01172 0.0
H218 H 0.84902 0.19267 1.0068 0.0
C219 C 0.88057 0.13222 0.04118 0.0
C220 C 0.11489 0.1738 0.54147 0.0
C221 C 0.18222 0.15272 0.52902 0.0
H222 H 0.94345 0.1896 0.54937 0.0
C223 C 0.12458 0.13081 0.51473 0.0
H224 H 0.15642 0.19096 0.55253 0.0
C225 C 1.00243 0.12999 0.51285 0.0
C226 C 0.93507 0.15107 0.5252 0.0
H227 H 0.17366 0.11419 0.50478 0.0
H228 H 0.961 0.11283 0.50168 0.0
C229 C 0.99265 0.17298 0.53957 0.0
C230 C 0.88861 0.872 0.50712 0.0
C231 C 0.8211 0.893 0.52015 0.0
H232 H 0.06019 0.85628 0.49894 0.0
C233 C 0.87851 0.91486 0.53523 0.0
H234 H 0.84724 0.85488 0.49547 0.0
C235 C 1.00062 0.9157 0.53731 0.0
C236 C 0.06816 0.89471 0.52436 0.0
H237 H 0.82927 0.93143 0.54569 0.0
H238 H 0.04187 0.93282 0.54909 0.0
C239 C 0.01082 0.87284 0.50921 0.0
C240 C 0.94549 0.53643 0.0773 0.0
C241 C 0.99062 0.5505 0.02511 0.0
H242 H 0.92185 0.5006 0.11726 0.0
C243 C 0.04789 0.53878 0.97197 0.0
H244 H 0.90073 0.54503 0.11876 0.0
C245 C 0.06012 0.51339 0.9711 0.0
C246 C 0.01486 0.49932 0.02325 0.0
H247 H 0.08339 0.54922 0.93105 0.0
H248 H 0.10502 0.50479 0.92968 0.0
C249 C 0.95735 0.51104 0.07632 0.0
C250 C 0.03947 0.50939 0.47061 0.0
C251 C 0.9891 0.49713 0.52489 0.0
H252 H 0.09161 0.54378 0.42859 0.0
C253 C 0.95191 0.51071 0.57961 0.0
H254 H 0.06881 0.49936 0.42772 0.0
C255 C 0.96492 0.5361 0.58004 0.0
C256 C 0.01524 0.54837 0.52575 0.0
H257 H 0.91265 0.50172 0.62204 0.0
H258 H 0.93559 0.54614 0.62293 0.0
C259 C 0.05239 0.53479 0.47103 0.0
C260 C 0.45734 1.01103 0.07635 0.0
C261 C 0.51489 0.99931 0.02328 0.0
H262 H 0.40072 0.04501 0.1188 0.0
C263 C 0.56018 1.01338 0.97115 0.0
H264 H 0.42182 1.00058 0.11728 0.0
C265 C 0.54797 0.03877 0.97204 0.0
C266 C 0.49066 0.05049 0.02517 0.0
H267 H 0.6051 1.00479 0.92973 0.0
H268 H 0.58349 0.04922 0.93113 0.0
C269 C 0.4455 0.03642 0.07734 0.0
C270 C 0.55244 0.0348 0.47108 0.0
C271 C 0.51525 0.04837 0.5258 0.0
H272 H 0.56888 0.99937 0.42777 0.0
C273 C 0.4649 0.03611 0.58008 0.0
H274 H 0.59169 0.04379 0.42865 0.0
C275 C 0.45188 1.01071 0.57964 0.0
C276 C 0.4891 0.99714 0.52493 0.0
H277 H 0.43554 0.04614 0.62297 0.0
H278 H 0.41259 1.00172 0.62206 0.0
C279 C 0.53952 1.0094 0.47066 0.0
C280 C 0.2615 0.28937 0.0854 0.0
C281 C 0.18077 0.29468 0.03866 0.0
H282 H 0.39076 0.26443 0.11772 0.0
C283 C 0.17022 0.27841 0.98702 0.0
H284 H 0.27255 0.30174 0.12531 0.0
C285 C 0.24003 0.25741 0.9818 0.0
C286 C 0.3209 0.25213 0.02847 0.0
H287 H 0.11 0.28219 0.94977 0.0
H288 H 0.22953 0.24514 0.94162 0.0
C289 C 0.33026 0.26821 0.08061 0.0
C290 C 0.76149 0.78938 0.08536 0.0
C291 C 0.68073 0.79468 0.03864 0.0
H292 H 0.89081 0.76444 0.11766 0.0
C293 C 0.67018 0.77842 0.987 0.0
H294 H 0.77256 0.80174 0.12527 0.0
C295 C 0.74 0.75742 0.98176 0.0
C296 C 0.8209 0.75214 0.02842 0.0
H297 H 0.60994 0.78219 0.94976 0.0
H298 H 0.7295 0.74515 0.94159 0.0
C299 C 0.83028 0.76822 0.08056 0.0
C300 C 0.1891 0.76413 0.57991 0.0
C301 C 0.18468 0.75119 0.52181 0.0
H302 H 0.2554 0.79544 0.62792 0.0
C303 C 0.24725 0.76024 0.46643 0.0
H304 H 0.14287 0.75748 0.62345 0.0
C305 C 0.31282 0.78182 0.46907 0.0
C306 C 0.31719 0.79476 0.52716 0.0
H307 H 0.24642 0.75052 0.42104 0.0
H308 H 0.35907 0.78848 0.42553 0.0
C309 C 0.25459 0.78572 0.58253 0.0
C310 C 0.75483 0.2857 0.58262 0.0
C311 C 0.81724 0.29476 0.52721 0.0
H312 H 0.64325 0.25744 0.62359 0.0
C313 C 0.81265 0.28184 0.46909 0.0
H314 H 0.75583 0.2954 0.62803 0.0
C315 C 0.74704 0.26026 0.46647 0.0
C316 C 0.68467 0.25119 0.52189 0.0
H317 H 0.85874 0.28851 0.42552 0.0
H318 H 0.74604 0.25056 0.42106 0.0
C319 C 0.68932 0.26411 0.58001 0.0
C320 C 0.11578 0.38934 0.25237 0.0
C321 C 0.03369 0.39221 0.20523 0.0
H322 H 0.14462 0.38766 0.35332 0.0
C323 C 0.91355 0.39373 0.22431 0.0
H324 H 0.20884 0.38843 0.23868 0.0
C325 C 0.87697 0.39414 0.28985 0.0
C326 C 0.95959 0.39226 0.33713 0.0
H327 H 0.84875 0.39634 0.18874 0.0
H328 H 0.78481 0.39688 0.30362 0.0
C329 C 0.07884 0.38891 0.31781 0.0
C330 C 0.8879 0.64624 0.25136 0.0
C331 C 0.98963 0.64787 0.21052 0.0
H332 H 0.81783 0.64747 0.34934 0.0
C333 C 0.10038 0.64626 0.23664 0.0
H334 H 0.80185 0.6478 0.23213 0.0
C335 C 0.10962 0.64543 0.30342 0.0
C336 C 0.00804 0.64691 0.34444 0.0
H337 H 0.17984 0.64772 0.2056 0.0
H338 H 0.19583 0.6464 0.32272 0.0
C339 C 0.89717 0.6461 0.31819 0.0
C340 C 0.09072 0.65531 0.82336 0.0
C341 C 0.97044 0.65568 0.84265 0.0
H342 H 0.21936 0.65249 0.74399 0.0
C343 C 0.88711 0.65689 0.79575 0.0
H344 H 0.15659 0.65408 0.85883 0.0
C345 C 0.9233 0.65676 0.7303 0.0
C346 C 0.04314 0.65455 0.71103 0.0
H347 H 0.79406 0.65699 0.80972 0.0
H348 H 0.85702 0.65672 0.69492 0.0
C349 C 0.12672 0.65433 0.75791 0.0
C350 C 0.92183 0.40258 0.75001 0.0
C351 C 0.01397 0.39897 0.70323 0.0
H352 H 0.87157 0.40214 0.85142 0.0
C353 C 0.13 0.3981 0.72249 0.0
H354 H 0.83157 0.40283 0.7363 0.0
C355 C 0.15279 0.39783 0.78779 0.0
C356 C 0.05994 0.39852 0.83481 0.0
H357 H 0.20233 0.39514 0.68714 0.0
H358 H 0.24174 0.39445 0.80136 0.0
C359 C 0.94482 0.40222 0.81577 0.0
C360 C 0.61567 0.8893 0.25234 0.0
C361 C 0.53361 0.89221 0.20521 0.0
H362 H 0.64449 0.88759 0.3533 0.0
C363 C 0.41349 0.89378 0.22429 0.0
H364 H 0.70872 0.88835 0.23866 0.0
C365 C 0.37691 0.89419 0.28983 0.0
C366 C 0.45951 0.89227 0.33711 0.0
H367 H 0.34871 0.89642 0.18873 0.0
H368 H 0.28478 0.89697 0.30361 0.0
C369 C 0.57873 0.88888 0.31779 0.0
C370 C 0.3879 0.14623 0.25143 0.0
C371 C 0.48963 0.14787 0.21058 0.0
H372 H 0.31784 0.14747 0.34941 0.0
C373 C 0.60038 0.14626 0.23669 0.0
H374 H 0.30184 0.14779 0.23219 0.0
C375 C 0.60963 0.14542 0.30348 0.0
C376 C 0.50805 0.14691 0.3445 0.0
H377 H 0.67984 0.14771 0.20565 0.0
H378 H 0.69584 0.1464 0.32278 0.0
C379 C 0.39717 0.1461 0.31826 0.0
C380 C 0.59073 0.15531 0.82341 0.0
C381 C 0.47044 0.15566 0.8427 0.0
H382 H 0.71937 0.15251 0.74404 0.0
C383 C 0.38711 0.15686 0.79581 0.0
H384 H 0.6566 0.15409 0.85888 0.0
C385 C 0.4233 0.15674 0.73036 0.0
C386 C 0.54314 0.15455 0.71108 0.0
H387 H 0.29406 0.15694 0.80977 0.0
H388 H 0.35702 0.15668 0.69498 0.0
C389 C 0.62673 0.15434 0.75796 0.0
C390 C 0.42196 0.9026 0.74996 0.0
C391 C 0.51407 0.89895 0.70319 0.0
H392 H 0.3717 0.90219 0.85138 0.0
C393 C 0.6301 0.89805 0.72245 0.0
H394 H 0.3317 0.90289 0.73625 0.0
C395 C 0.65289 0.89778 0.78775 0.0
C396 C 0.56004 0.89851 0.83477 0.0
H397 H 0.7024 0.89506 0.6871 0.0
H398 H 0.74181 0.89438 0.80132 0.0
C399 C 0.44495 0.90225 0.81572 0.0
loop_
_geom_bond_atom_site_label_1
_geom_bond_atom_site_label_2
_geom_bond_distance
_geom_bond_site_symmetry_2
_ccdc_geom_bond_type
Dy0 O4 2.398 1_455 S
Dy0 O5 2.491 1_454 S
Dy0 O6 2.403 . S
Dy0 O7 2.664 . S
Dy0 O11 2.326 1_455 S
Dy0 O15 2.310 1_554 S
Dy0 O16 2.351 . S
C1 O12 1.185 1_554 S
C1 O13 1.355 . S
C2 O4 1.185 . S
C2 O5 1.355 1_554 S
Dy3 O7 2.310 . S
Dy3 O10 2.351 1_455 S
Dy3 O12 2.398 1_554 S
Dy3 O13 2.491 . S
Dy3 O14 2.403 1_554 S
Dy3 O15 2.664 1_554 S
Dy3 O17 2.326 1_554 S
O4 Dy0 2.398 1_655 S
O4 C2 1.185 . S
O5 Dy0 2.491 1_656 S
O5 C2 1.355 1_556 S
O6 Dy0 2.403 . S
O6 C8 1.254 . S
O7 Dy0 2.664 . S
O7 Dy3 2.310 . S
O7 C8 1.268 . S
C8 O6 1.254 . S
C8 O7 1.268 . S
C9 O14 1.254 . S
C9 O15 1.268 . S
O10 Dy3 2.351 1_655 S
O10 C18 1.249 . S
O11 Dy0 2.326 1_655 S
O11 C18 1.267 . S
O12 C1 1.185 1_556 S
O12 Dy3 2.398 1_556 S
O13 C1 1.355 . S
O13 Dy3 2.491 . S
O14 Dy3 2.403 1_556 S
O14 C9 1.254 . S
O15 Dy0 2.310 1_556 S
O15 Dy3 2.664 1_556 S
O15 C9 1.268 . S
O16 Dy0 2.351 . S
O16 C19 1.249 . S
O17 Dy3 2.326 1_556 S
O17 C19 1.267 1_556 S
C18 O10 1.249 . S
C18 O11 1.267 . S
C19 O16 1.249 . S
C19 O17 1.267 1_554 S
Dy20 O24 2.398 . S
Dy20 O25 2.491 1_554 S
Dy20 O26 2.403 . S
Dy20 O27 2.664 . S
Dy20 O31 2.326 . S
Dy20 O35 2.310 1_554 S
Dy20 O36 2.351 1_655 S
C21 O32 1.185 1_554 S
C21 O33 1.355 . S
C22 O24 1.185 . S
C22 O25 1.355 1_554 S
Dy23 O27 2.310 . S
Dy23 O30 2.351 . S
Dy23 O32 2.398 1_654 S
Dy23 O33 2.491 1_655 S
Dy23 O34 2.403 1_554 S
Dy23 O35 2.664 1_554 S
Dy23 O37 2.326 1_654 S
O24 Dy20 2.398 . S
O24 C22 1.185 . S
O25 Dy20 2.491 1_556 S
O25 C22 1.355 1_556 S
O26 Dy20 2.403 . S
O26 C28 1.254 . S
O27 Dy20 2.664 . S
O27 Dy23 2.310 . S
O27 C28 1.268 . S
C28 O26 1.254 . S
C28 O27 1.268 . S
C29 O34 1.254 . S
C29 O35 1.268 . S
O30 Dy23 2.351 . S
O30 C38 1.249 . S
O31 Dy20 2.326 . S
O31 C38 1.267 . S
O32 C21 1.185 1_556 S
O32 Dy23 2.398 1_456 S
O33 C21 1.355 . S
O33 Dy23 2.491 1_455 S
O34 Dy23 2.403 1_556 S
O34 C29 1.254 . S
O35 Dy20 2.310 1_556 S
O35 Dy23 2.664 1_556 S
O35 C29 1.268 . S
O36 Dy20 2.351 1_455 S
O36 C39 1.249 . S
O37 Dy23 2.326 1_456 S
O37 C39 1.267 1_556 S
C38 O30 1.249 . S
C38 O31 1.267 . S
C39 O36 1.249 . S
C39 O37 1.267 1_554 S
Dy40 O44 2.398 . S
Dy40 O45 2.491 . S
Dy40 O46 2.403 . S
Dy40 O47 2.664 . S
Dy40 O51 2.326 . S
Dy40 O55 2.310 . S
Dy40 O56 2.351 1_455 S
C41 O52 1.185 . S
C41 O53 1.355 . S
C42 O44 1.185 . S
C42 O45 1.355 . S
Dy43 O47 2.310 . S
Dy43 O50 2.351 . S
Dy43 O52 2.398 1_455 S
Dy43 O53 2.491 1_455 S
Dy43 O54 2.403 . S
Dy43 O55 2.664 . S
Dy43 O57 2.326 1_455 S
O44 Dy40 2.398 . S
O44 C42 1.185 . S
O45 Dy40 2.491 . S
O45 C42 1.355 . S
O46 Dy40 2.403 . S
O46 C48 1.254 . S
O47 Dy40 2.664 . S
O47 Dy43 2.310 . S
O47 C48 1.268 . S
C48 O46 1.254 . S
C48 O47 1.268 . S
C49 O54 1.254 . S
C49 O55 1.268 . S
O50 Dy43 2.351 . S
O50 C58 1.249 . S
O51 Dy40 2.326 . S
O51 C58 1.267 . S
O52 C41 1.185 . S
O52 Dy43 2.398 1_655 S
O53 C41 1.355 . S
O53 Dy43 2.491 1_655 S
O54 Dy43 2.403 . S
O54 C49 1.254 . S
O55 Dy40 2.310 . S
O55 Dy43 2.664 . S
O55 C49 1.268 . S
O56 Dy40 2.351 1_655 S
O56 C59 1.249 . S
O57 Dy43 2.326 1_655 S
O57 C59 1.267 . S
C58 O50 1.249 . S
C58 O51 1.267 . S
C59 O56 1.249 . S
C59 O57 1.267 . S
Dy60 O64 2.398 1_655 S
Dy60 O65 2.491 1_655 S
Dy60 O66 2.403 . S
Dy60 O67 2.664 . S
Dy60 O71 2.326 1_655 S
Dy60 O75 2.310 . S
Dy60 O76 2.351 . S
C61 O72 1.185 . S
C61 O73 1.355 . S
C62 O64 1.185 . S
C62 O65 1.355 . S
Dy63 O67 2.310 . S
Dy63 O70 2.351 1_655 S
Dy63 O72 2.398 . S
Dy63 O73 2.491 . S
Dy63 O74 2.403 . S
Dy63 O75 2.664 . S
Dy63 O77 2.326 . S
O64 Dy60 2.398 1_455 S
O64 C62 1.185 . S
O65 Dy60 2.491 1_455 S
O65 C62 1.355 . S
O66 Dy60 2.403 . S
O66 C68 1.254 . S
O67 Dy60 2.664 . S
O67 Dy63 2.310 . S
O67 C68 1.268 . S
C68 O66 1.254 . S
C68 O67 1.268 . S
C69 O74 1.254 . S
C69 O75 1.268 . S
O70 Dy63 2.351 1_455 S
O70 C78 1.249 . S
O71 Dy60 2.326 1_455 S
O71 C78 1.267 . S
O72 C61 1.185 . S
O72 Dy63 2.398 . S
O73 C61 1.355 . S
O73 Dy63 2.491 . S
O74 Dy63 2.403 . S
O74 C69 1.254 . S
O75 Dy60 2.310 . S
O75 Dy63 2.664 . S
O75 C69 1.268 . S
O76 Dy60 2.351 . S
O76 C79 1.249 . S
O77 Dy63 2.326 . S
O77 C79 1.267 . S
C78 O70 1.249 . S
C78 O71 1.267 . S
C79 O76 1.249 . S
C79 O77 1.267 . S
Dy80 O84 2.398 . S
Dy80 O85 2.491 1_554 S
Dy80 O86 2.403 . S
Dy80 O87 2.664 . S
Dy80 O91 2.326 . S
Dy80 O95 2.310 1_554 S
Dy80 O96 2.351 . S
C81 O92 1.185 1_554 S
C81 O93 1.355 . S
C82 O84 1.185 . S
C82 O85 1.355 1_554 S
Dy83 O87 2.310 . S
Dy83 O90 2.351 . S
Dy83 O92 2.398 1_554 S
Dy83 O93 2.491 . S
Dy83 O94 2.403 1_554 S
Dy83 O95 2.664 1_554 S
Dy83 O97 2.326 1_554 S
O84 Dy80 2.398 . S
O84 C82 1.185 . S
O85 Dy80 2.491 1_556 S
O85 C82 1.355 1_556 S
O86 Dy80 2.403 . S
O86 C88 1.254 . S
O87 Dy80 2.664 . S
O87 Dy83 2.310 . S
O87 C88 1.268 . S
C88 O86 1.254 . S
C88 O87 1.268 . S
C89 O94 1.254 . S
C89 O95 1.268 . S
O90 Dy83 2.351 . S
O90 C98 1.249 . S
O91 Dy80 2.326 . S
O91 C98 1.267 . S
O92 C81 1.185 1_556 S
O92 Dy83 2.398 1_556 S
O93 C81 1.355 . S
O93 Dy83 2.491 . S
O94 Dy83 2.403 1_556 S
O94 C89 1.254 . S
O95 Dy80 2.310 1_556 S
O95 Dy83 2.664 1_556 S
O95 C89 1.268 . S
O96 Dy80 2.351 . S
O96 C99 1.249 . S
O97 Dy83 2.326 1_556 S
O97 C99 1.267 1_556 S
C98 O90 1.249 . S
C98 O91 1.267 . S
C99 O96 1.249 . S
C99 O97 1.267 1_554 S
Dy100 O104 2.398 . S
Dy100 O105 2.491 1_554 S
Dy100 O106 2.403 . S
Dy100 O107 2.664 . S
Dy100 O111 2.326 . S
Dy100 O115 2.310 1_554 S
Dy100 O116 2.351 . S
C101 O112 1.185 1_554 S
C101 O113 1.355 . S
C102 O104 1.185 . S
C102 O105 1.355 1_554 S
Dy103 O107 2.310 . S
Dy103 O110 2.351 . S
Dy103 O112 2.398 1_554 S
Dy103 O113 2.491 . S
Dy103 O114 2.403 1_554 S
Dy103 O115 2.664 1_554 S
Dy103 O117 2.326 1_554 S
O104 Dy100 2.398 . S
O104 C102 1.185 . S
O105 Dy100 2.491 1_556 S
O105 C102 1.355 1_556 S
O106 Dy100 2.403 . S
O106 C108 1.254 . S
O107 Dy100 2.664 . S
O107 Dy103 2.310 . S
O107 C108 1.268 . S
C108 O106 1.254 . S
C108 O107 1.268 . S
C109 O114 1.254 . S
C109 O115 1.268 . S
O110 Dy103 2.351 . S
O110 C118 1.249 . S
O111 Dy100 2.326 . S
O111 C118 1.267 . S
O112 C101 1.185 1_556 S
O112 Dy103 2.398 1_556 S
O113 C101 1.355 . S
O113 Dy103 2.491 . S
O114 Dy103 2.403 1_556 S
O114 C109 1.254 . S
O115 Dy100 2.310 1_556 S
O115 Dy103 2.664 1_556 S
O115 C109 1.268 . S
O116 Dy100 2.351 . S
O116 C119 1.249 . S
O117 Dy103 2.326 1_556 S
O117 C119 1.267 1_556 S
C118 O110 1.249 . S
C118 O111 1.267 . S
C119 O116 1.249 . S
C119 O117 1.267 1_554 S
Dy120 O124 2.398 . S
Dy120 O125 2.491 . S
Dy120 O126 2.403 . S
Dy120 O127 2.664 . S
Dy120 O131 2.326 . S
Dy120 O135 2.310 . S
Dy120 O136 2.351 . S
C121 O132 1.185 . S
C121 O133 1.355 . S
C122 O124 1.185 . S
C122 O125 1.355 . S
Dy123 O127 2.310 . S
Dy123 O130 2.351 . S
Dy123 O132 2.398 . S
Dy123 O133 2.491 . S
Dy123 O134 2.403 . S
Dy123 O135 2.664 . S
Dy123 O137 2.326 . S
O124 Dy120 2.398 . S
O124 C122 1.185 . S
O125 Dy120 2.491 . S
O125 C122 1.355 . S
O126 Dy120 2.403 . S
O126 C128 1.254 . S
O127 Dy120 2.664 . S
O127 Dy123 2.310 . S
O127 C128 1.268 . S
C128 O126 1.254 . S
C128 O127 1.268 . S
C129 O134 1.254 . S
C129 O135 1.268 . S
O130 Dy123 2.351 . S
O130 C138 1.249 . S
O131 Dy120 2.326 . S
O131 C138 1.267 . S
O132 C121 1.185 . S
O132 Dy123 2.398 . S
O133 C121 1.355 . S
O133 Dy123 2.491 . S
O134 Dy123 2.403 . S
O134 C129 1.254 . S
O135 Dy120 2.310 . S
O135 Dy123 2.664 . S
O135 C129 1.268 . S
O136 Dy120 2.351 . S
O136 C139 1.249 . S
O137 Dy123 2.326 . S
O137 C139 1.267 . S
C138 O130 1.249 . S
C138 O131 1.267 . S
C139 O136 1.249 . S
C139 O137 1.267 . S
Dy140 O144 2.398 . S
Dy140 O145 2.491 . S
Dy140 O146 2.403 . S
Dy140 O147 2.664 . S
Dy140 O151 2.326 . S
Dy140 O155 2.310 . S
Dy140 O156 2.351 . S
C141 O152 1.185 . S
C141 O153 1.355 . S
C142 O144 1.185 . S
C142 O145 1.355 . S
Dy143 O147 2.310 . S
Dy143 O150 2.351 . S
Dy143 O152 2.398 . S
Dy143 O153 2.491 . S
Dy143 O154 2.403 . S
Dy143 O155 2.664 . S
Dy143 O157 2.326 . S
O144 Dy140 2.398 . S
O144 C142 1.185 . S
O145 Dy140 2.491 . S
O145 C142 1.355 . S
O146 Dy140 2.403 . S
O146 C148 1.254 . S
O147 Dy140 2.664 . S
O147 Dy143 2.310 . S
O147 C148 1.268 . S
C148 O146 1.254 . S
C148 O147 1.268 . S
C149 O154 1.254 . S
C149 O155 1.268 . S
O150 Dy143 2.351 . S
O150 C158 1.249 . S
O151 Dy140 2.326 . S
O151 C158 1.267 . S
O152 C141 1.185 . S
O152 Dy143 2.398 . S
O153 C141 1.355 . S
O153 Dy143 2.491 . S
O154 Dy143 2.403 . S
O154 C149 1.254 . S
O155 Dy140 2.310 . S
O155 Dy143 2.664 . S
O155 C149 1.268 . S
O156 Dy140 2.351 . S
O156 C159 1.249 . S
O157 Dy143 2.326 . S
O157 C159 1.267 . S
C158 O150 1.249 . S
C158 O151 1.267 . S
C159 O156 1.249 . S
C159 O157 1.267 . S
C160 C161 1.387 1_556 S
C160 H164 0.950 . S
C160 C169 1.390 . S
C161 C160 1.387 1_554 S
C161 C163 1.387 . S
H162 C169 0.950 . S
C163 C161 1.387 . S
C163 C165 1.390 . S
C163 H167 0.950 . S
H164 C160 0.950 . S
C165 C163 1.390 . S
C165 C166 1.387 . S
C165 H168 0.950 . S
C166 C165 1.387 . S
C166 C169 1.387 1_554 S
H167 C163 0.950 . S
H168 C165 0.950 . S
C169 C160 1.390 . S
C169 H162 0.950 . S
C169 C166 1.387 1_556 S
C170 C171 1.387 . S
C170 H174 0.950 . S
C170 C179 1.390 . S
C171 C170 1.387 . S
C171 C173 1.387 1_554 S
H172 C179 0.950 . S
C173 C171 1.387 1_556 S
C173 C175 1.390 . S
C173 H177 0.950 . S
H174 C170 0.950 . S
C175 C173 1.390 . S
C175 C176 1.387 1_556 S
C175 H178 0.950 . S
C176 C175 1.387 1_554 S
C176 C179 1.387 . S
H177 C173 0.950 . S
H178 C175 0.950 . S
C179 C170 1.390 . S
C179 H172 0.950 . S
C179 C176 1.387 . S
C180 C181 1.387 . S
C180 H184 0.950 . S
C180 C189 1.390 . S
C181 C180 1.387 . S
C181 C183 1.387 . S
H182 C189 0.950 . S
C183 C181 1.387 . S
C183 C185 1.390 . S
C183 H187 0.950 . S
H184 C180 0.950 . S
C185 C183 1.390 . S
C185 C186 1.387 . S
C185 H188 0.950 . S
C186 C185 1.387 . S
C186 C189 1.387 . S
H187 C183 0.950 . S
H188 C185 0.950 . S
C189 C180 1.390 . S
C189 H182 0.950 . S
C189 C186 1.387 . S
C190 C191 1.387 . S
C190 H194 0.950 . S
C190 C199 1.390 . S
C191 C190 1.387 . S
C191 C193 1.387 . S
H192 C199 0.950 . S
C193 C191 1.387 . S
C193 C195 1.390 . S
C193 H197 0.950 . S
H194 C190 0.950 . S
C195 C193 1.390 . S
C195 C196 1.387 . S
C195 H198 0.950 . S
C196 C195 1.387 . S
C196 C199 1.387 . S
H197 C193 0.950 . S
H198 C195 0.950 . S
C199 C190 1.390 . S
C199 H192 0.950 . S
C199 C196 1.387 . S
C200 C201 1.387 1_455 S
C200 H204 0.950 1_455 S
C200 C209 1.390 . S
C201 C200 1.387 1_655 S
C201 C203 1.385 1_654 S
H202 C209 0.950 . S
C203 C201 1.385 1_456 S
C203 C205 1.396 . S
C203 H207 0.946 1_455 S
H204 C200 0.950 1_655 S
C205 C203 1.396 . S
C205 C206 1.387 1_556 S
C205 H208 0.950 . S
C206 C205 1.387 1_554 S
C206 C209 1.387 . S
H207 C203 0.946 1_655 S
H208 C205 0.950 . S
C209 C200 1.390 . S
C209 H202 0.950 . S
C209 C206 1.387 . S
C210 C211 1.387 1_655 S
C210 H214 0.950 1_655 S
C210 C219 1.390 . S
C211 C210 1.387 1_455 S
C211 C213 1.390 1_554 S
H212 C219 0.950 . S
C213 C211 1.390 1_556 S
C213 C215 1.385 1_455 S
C213 H217 0.952 . S
H214 C210 0.950 1_455 S
C215 C213 1.385 1_655 S
C215 C216 1.387 1_556 S
C215 H218 0.950 . S
C216 C215 1.387 1_554 S
C216 C219 1.387 . S
H217 C213 0.952 . S
H218 C215 0.950 . S
C219 C210 1.390 . S
C219 H212 0.950 . S
C219 C216 1.387 . S
C220 C221 1.387 . S
C220 H224 0.950 . S
C220 C229 1.399 . S
C221 C220 1.387 . S
C221 C223 1.387 . S
H222 C229 0.946 1_655 S
C223 C221 1.387 . S
C223 C225 1.390 . S
C223 H227 0.950 . S
H224 C220 0.950 . S
C225 C223 1.390 . S
C225 C226 1.387 1_455 S
C225 H228 0.950 1_455 S
C226 C225 1.387 1_655 S
C226 C229 1.383 1_655 S
H227 C223 0.950 . S
H228 C225 0.950 1_655 S
C229 C220 1.399 . S
C229 H222 0.946 1_455 S
C229 C226 1.383 1_455 S
C230 C231 1.387 . S
C230 H234 0.950 . S
C230 C239 1.390 . S
C231 C230 1.387 . S
C231 C233 1.387 . S
H232 C239 0.950 1_455 S
C233 C231 1.387 . S
C233 C235 1.398 . S
C233 H237 0.950 . S
H234 C230 0.950 . S
C235 C233 1.398 . S
C235 C236 1.384 1_655 S
C235 H238 0.945 1_655 S
C236 C235 1.384 1_455 S
C236 C239 1.387 1_455 S
H237 C233 0.950 . S
H238 C235 0.945 1_455 S
C239 C230 1.390 . S
C239 H232 0.950 1_655 S
C239 C236 1.387 1_655 S
C240 C241 1.387 . S
C240 H244 0.950 . S
C240 C249 1.390 1_455 S
C241 C240 1.387 . S
C241 C243 1.387 1_554 S
H242 C249 0.950 . S
C243 C241 1.387 1_556 S
C243 C245 1.390 1_455 S
C243 H247 0.950 . S
H244 C240 0.950 . S
C245 C243 1.390 1_655 S
C245 C246 1.387 1_556 S
C245 H248 0.950 . S
C246 C245 1.387 1_554 S
C246 C249 1.387 . S
H247 C243 0.950 . S
H248 C245 0.950 . S
C249 C240 1.390 1_655 S
C249 H242 0.950 . S
C249 C246 1.387 . S
C250 C251 1.387 . S
C250 H254 0.950 . S
C250 C259 1.390 1_455 S
C251 C250 1.387 . S
C251 C253 1.387 . S
H252 C259 0.950 . S
C253 C251 1.387 . S
C253 C255 1.390 1_455 S
C253 H257 0.950 . S
H254 C250 0.950 . S
C255 C253 1.390 1_655 S
C255 C256 1.387 . S
C255 H258 0.950 . S
C256 C255 1.387 . S
C256 C259 1.387 . S
H257 C253 0.950 . S
H258 C255 0.950 . S
C259 C250 1.390 1_655 S
C259 H252 0.950 . S
C259 C256 1.387 . S
C260 C261 1.387 . S
C260 H264 0.950 . S
C260 C269 1.390 1_565 S
C261 C260 1.387 . S
C261 C263 1.387 1_554 S
H262 C269 0.950 . S
C263 C261 1.387 1_556 S
C263 C265 1.390 1_565 S
C263 H267 0.950 . S
H264 C260 0.950 . S
C265 C263 1.390 1_545 S
C265 C266 1.387 1_556 S
C265 H268 0.950 . S
C266 C265 1.387 1_554 S
C266 C269 1.387 . S
H267 C263 0.950 . S
H268 C265 0.950 . S
C269 C260 1.390 1_545 S
C269 H262 0.950 . S
C269 C266 1.387 . S
C270 C271 1.387 . S
C270 H274 0.950 . S
C270 C279 1.390 1_545 S
C271 C270 1.387 . S
C271 C273 1.387 . S
H272 C279 0.950 . S
C273 C271 1.387 . S
C273 C275 1.390 1_545 S
C273 H277 0.950 . S
H274 C270 0.950 . S
C275 C273 1.390 1_565 S
C275 C276 1.387 . S
C275 H278 0.950 . S
C276 C275 1.387 . S
C276 C279 1.387 . S
H277 C273 0.950 . S
H278 C275 0.950 . S
C279 C270 1.390 1_565 S
C279 H272 0.950 . S
C279 C276 1.387 . S
C280 C281 1.387 . S
C280 H284 0.950 . S
C280 C289 1.390 . S
C281 C280 1.387 . S
C281 C283 1.387 1_554 S
H282 C289 0.950 . S
C283 C281 1.387 1_556 S
C283 C285 1.390 . S
C283 H287 0.950 . S
H284 C280 0.950 . S
C285 C283 1.390 . S
C285 C286 1.387 1_556 S
C285 H288 0.950 . S
C286 C285 1.387 1_554 S
C286 C289 1.387 . S
H287 C283 0.950 . S
H288 C285 0.950 . S
C289 C280 1.390 . S
C289 H282 0.950 . S
C289 C286 1.387 . S
C290 C291 1.387 . S
C290 H294 0.950 . S
C290 C299 1.390 . S
C291 C290 1.387 . S
C291 C293 1.387 1_554 S
H292 C299 0.950 . S
C293 C291 1.387 1_556 S
C293 C295 1.390 . S
C293 H297 0.950 . S
H294 C290 0.950 . S
C295 C293 1.390 . S
C295 C296 1.387 1_556 S
C295 H298 0.950 . S
C296 C295 1.387 1_554 S
C296 C299 1.387 . S
H297 C293 0.950 . S
H298 C295 0.950 . S
C299 C290 1.390 . S
C299 H292 0.950 . S
C299 C296 1.387 . S
C300 C301 1.387 . S
C300 H304 0.950 . S
C300 C309 1.390 . S
C301 C300 1.387 . S
C301 C303 1.387 . S
H302 C309 0.950 . S
C303 C301 1.387 . S
C303 C305 1.390 . S
C303 H307 0.950 . S
H304 C300 0.950 . S
C305 C303 1.390 . S
C305 C306 1.387 . S
C305 H308 0.950 . S
C306 C305 1.387 . S
C306 C309 1.387 . S
H307 C303 0.950 . S
H308 C305 0.950 . S
C309 C300 1.390 . S
C309 H302 0.950 . S
C309 C306 1.387 . S
C310 C311 1.387 . S
C310 H314 0.950 . S
C310 C319 1.390 . S
C311 C310 1.387 . S
C311 C313 1.387 . S
H312 C319 0.950 . S
C313 C311 1.387 . S
C313 C315 1.390 . S
C313 H317 0.950 . S
H314 C310 0.950 . S
C315 C313 1.390 . S
C315 C316 1.387 . S
C315 H318 0.950 . S
C316 C315 1.387 . S
C316 C319 1.387 . S
H317 C313 0.950 . S
H318 C315 0.950 . S
C319 C310 1.390 . S
C319 H312 0.950 . S
C319 C316 1.387 . S
C320 C321 1.387 . S
C320 H324 0.950 . S
C320 C329 1.390 1_455 S
C321 C320 1.387 . S
C321 C323 1.387 . S
H322 C329 0.950 . S
C323 C321 1.387 . S
C323 C325 1.390 1_455 S
C323 H327 0.950 . S
H324 C320 0.950 . S
C325 C323 1.390 1_655 S
C325 C326 1.387 . S
C325 H328 0.950 . S
C326 C325 1.387 . S
C326 C329 1.387 . S
H327 C323 0.950 . S
H328 C325 0.950 . S
C329 C320 1.390 1_655 S
C329 H322 0.950 . S
C329 C326 1.387 . S
C330 C331 1.387 . S
C330 H334 0.950 . S
C330 C339 1.390 1_655 S
C331 C330 1.387 . S
C331 C333 1.387 . S
H332 C339 0.950 . S
C333 C331 1.387 . S
C333 C335 1.390 1_655 S
C333 H337 0.950 . S
H334 C330 0.950 . S
C335 C333 1.390 1_455 S
C335 C336 1.387 . S
C335 H338 0.950 . S
C336 C335 1.387 . S
C336 C339 1.387 . S
H337 C333 0.950 . S
H338 C335 0.950 . S
C339 C330 1.390 1_455 S
C339 H332 0.950 . S
C339 C336 1.387 . S
C340 C341 1.387 . S
C340 H344 0.950 . S
C340 C349 1.390 1_655 S
C341 C340 1.387 . S
C341 C343 1.387 . S
H342 C349 0.950 . S
C343 C341 1.387 . S
C343 C345 1.390 1_655 S
C343 H347 0.950 . S
H344 C340 0.950 . S
C345 C343 1.390 1_455 S
C345 C346 1.387 . S
C345 H348 0.950 . S
C346 C345 1.387 . S
C346 C349 1.387 . S
H347 C343 0.950 . S
H348 C345 0.950 . S
C349 C340 1.390 1_455 S
C349 H342 0.950 . S
C349 C346 1.387 . S
C350 C351 1.387 . S
C350 H354 0.950 . S
C350 C359 1.390 1_655 S
C351 C350 1.387 . S
C351 C353 1.387 . S
H352 C359 0.950 . S
C353 C351 1.387 . S
C353 C355 1.390 1_655 S
C353 H357 0.950 . S
H354 C350 0.950 . S
C355 C353 1.390 1_455 S
C355 C356 1.387 . S
C355 H358 0.950 . S
C356 C355 1.387 . S
C356 C359 1.387 . S
H357 C353 0.950 . S
H358 C355 0.950 . S
C359 C350 1.390 1_455 S
C359 H352 0.950 . S
C359 C356 1.387 . S
C360 C361 1.387 . S
C360 H364 0.950 . S
C360 C369 1.390 . S
C361 C360 1.387 . S
C361 C363 1.387 . S
H362 C369 0.950 . S
C363 C361 1.387 . S
C363 C365 1.390 . S
C363 H367 0.950 . S
H364 C360 0.950 . S
C365 C363 1.390 . S
C365 C366 1.387 . S
C365 H368 0.950 . S
C366 C365 1.387 . S
C366 C369 1.387 . S
H367 C363 0.950 . S
H368 C365 0.950 . S
C369 C360 1.390 . S
C369 H362 0.950 . S
C369 C366 1.387 . S
C370 C371 1.387 . S
C370 H374 0.950 . S
C370 C379 1.390 . S
C371 C370 1.387 . S
C371 C373 1.387 . S
H372 C379 0.950 . S
C373 C371 1.387 . S
C373 C375 1.390 . S
C373 H377 0.950 . S
H374 C370 0.950 . S
C375 C373 1.390 . S
C375 C376 1.387 . S
C375 H378 0.950 . S
C376 C375 1.387 . S
C376 C379 1.387 . S
H377 C373 0.950 . S
H378 C375 0.950 . S
C379 C370 1.390 . S
C379 H372 0.950 . S
C379 C376 1.387 . S
C380 C381 1.387 . S
C380 H384 0.950 . S
C380 C389 1.390 . S
C381 C380 1.387 . S
C381 C383 1.387 . S
H382 C389 0.950 . S
C383 C381 1.387 . S
C383 C385 1.390 . S
C383 H387 0.950 . S
H384 C380 0.950 . S
C385 C383 1.390 . S
C385 C386 1.387 . S
C385 H388 0.950 . S
C386 C385 1.387 . S
C386 C389 1.387 . S
H387 C383 0.950 . S
H388 C385 0.950 . S
C389 C380 1.390 . S
C389 H382 0.950 . S
C389 C386 1.387 . S
C390 C391 1.387 . S
C390 H394 0.950 . S
C390 C399 1.390 . S
C391 C390 1.387 . S
C391 C393 1.387 . S
H392 C399 0.950 . S
C393 C391 1.387 . S
C393 C395 1.390 . S
C393 H397 0.950 . S
H394 C390 0.950 . S
C395 C393 1.390 . S
C395 C396 1.387 . S
C395 H398 0.950 . S
C396 C395 1.387 . S
C396 C399 1.387 . S
H397 C393 0.950 . S
H398 C395 0.950 . S
C399 C390 1.390 . S
C399 H392 0.950 . S
C399 C396 1.387 . S
C161 C19 1.780 . S
C166 C18 1.780 . S
C171 C39 1.778 . S
C176 C38 1.778 . S
C181 C59 1.778 . S
C186 C58 1.778 . S
C191 C79 1.780 . S
C196 C78 1.780 . S
C201 C99 1.778 . S
C206 C98 1.778 . S
C211 C118 1.778 . S
C216 C119 1.778 . S
C221 C139 1.780 . S
C226 C138 1.780 . S
C231 C158 1.778 . S
C236 C159 1.778 . S
C241 C21 1.803 . S
C246 C2 1.803 . S
C251 C62 1.803 . S
C256 C41 1.803 . S
C261 C82 1.803 . S
C266 C101 1.803 . S
C271 C121 1.803 . S
C276 C142 1.803 . S
C281 C1 1.512 . S
C286 C102 1.512 . S
C291 C81 1.512 . S
C296 C22 1.512 . S
C301 C42 1.509 . S
C306 C141 1.509 . S
C311 C61 1.509 . S
C316 C122 1.509 . S
C321 C8 1.507 . S
C326 C68 1.507 . S
C331 C28 1.552 . S
C336 C48 1.552 . S
C341 C29 1.507 . S
C346 C49 1.508 . S
C351 C69 1.549 . S
C356 C9 1.549 . S
C361 C88 1.507 . S
C366 C148 1.507 . S
C371 C108 1.552 . S
C376 C128 1.552 . S
C381 C109 1.507 . S
C386 C129 1.508 . S
C391 C149 1.549 . S
C396 C89 1.549 . S
