# Generated by pormake.
# Topology uop, (4)-cn, num edge types: 1
# Building blocks:
#     Node 0, Type 0, BuildingBlock: QUQFOY_clean_sbu_3, # of connection points: 4
#     Node 1, Type 0, BuildingBlock: QUQFOY_clean_sbu_3, # of connection points: 4
#     Node 2, Type 0, BuildingBlock: QUQFOY_clean_sbu_3, # of connection points: 4
#     Node 3, Type 0, BuildingBlock: QUQFOY_clean_sbu_3, # of connection points: 4
#     Node 4, Type 0, BuildingBlock: QUQFOY_clean_sbu_3, # of connection points: 4
#     Node 5, Type 0, BuildingBlock: QUQFOY_clean_sbu_3, # of connection points: 4
#     Node 6, Type 0, BuildingBlock: QUQFOY_clean_sbu_3, # of connection points: 4
#     Node 7, Type 0, BuildingBlock: QUQFOY_clean_sbu_3, # of connection points: 4
#     Node 8, Type 0, BuildingBlock: QUQFOY_clean_sbu_3, # of connection points: 4
#     Node 9, Type 0, BuildingBlock: QUQFOY_clean_sbu_3, # of connection points: 4
#     Node 10, Type 0, BuildingBlock: QUQFOY_clean_sbu_3, # of connection points: 4
#     Node 11, Type 0, BuildingBlock: QUQFOY_clean_sbu_3, # of connection points: 4
#     Edge 12, Type (0, 0), BuildingBlock: UVAHIK_clean_linker_0, # of connection points: 2
#     Edge 13, Type (0, 0), BuildingBlock: UVAHIK_clean_linker_0, # of connection points: 2
#     Edge 14, Type (0, 0), BuildingBlock: UVAHIK_clean_linker_0, # of connection points: 2
#     Edge 15, Type (0, 0), BuildingBlock: UVAHIK_clean_linker_0, # of connection points: 2
#     Edge 16, Type (0, 0), BuildingBlock: UVAHIK_clean_linker_0, # of connection points: 2
#     Edge 17, Type (0, 0), BuildingBlock: UVAHIK_clean_linker_0, # of connection points: 2
#     Edge 18, Type (0, 0), BuildingBlock: UVAHIK_clean_linker_0, # of connection points: 2
#     Edge 19, Type (0, 0), BuildingBlock: UVAHIK_clean_linker_0, # of connection points: 2
#     Edge 20, Type (0, 0), BuildingBlock: UVAHIK_clean_linker_0, # of connection points: 2
#     Edge 21, Type (0, 0), BuildingBlock: UVAHIK_clean_linker_0, # of connection points: 2
#     Edge 22, Type (0, 0), BuildingBlock: UVAHIK_clean_linker_0, # of connection points: 2
#     Edge 23, Type (0, 0), BuildingBlock: UVAHIK_clean_linker_0, # of connection points: 2
#     Edge 24, Type (0, 0), BuildingBlock: UVAHIK_clean_linker_0, # of connection points: 2
#     Edge 25, Type (0, 0), BuildingBlock: UVAHIK_clean_linker_0, # of connection points: 2
#     Edge 26, Type (0, 0), BuildingBlock: UVAHIK_clean_linker_0, # of connection points: 2
#     Edge 27, Type (0, 0), BuildingBlock: UVAHIK_clean_linker_0, # of connection points: 2
#     Edge 28, Type (0, 0), BuildingBlock: UVAHIK_clean_linker_0, # of connection points: 2
#     Edge 29, Type (0, 0), BuildingBlock: UVAHIK_clean_linker_0, # of connection points: 2
#     Edge 30, Type (0, 0), BuildingBlock: UVAHIK_clean_linker_0, # of connection points: 2
#     Edge 31, Type (0, 0), BuildingBlock: UVAHIK_clean_linker_0, # of connection points: 2
#     Edge 32, Type (0, 0), BuildingBlock: UVAHIK_clean_linker_0, # of connection points: 2
#     Edge 33, Type (0, 0), BuildingBlock: UVAHIK_clean_linker_0, # of connection points: 2
#     Edge 34, Type (0, 0), BuildingBlock: UVAHIK_clean_linker_0, # of connection points: 2
#     Edge 35, Type (0, 0), BuildingBlock: UVAHIK_clean_linker_0, # of connection points: 2
# Relax obj value: 0.157
# Max RMSD: 0.167
# Mean RMSD: 0.161
data_MOF--net-uop--node1-QUQFOY_clean_sbu_3--edge1-UVAHIK_clean_linker_0
_symmetry_space_group_name_H-M    P1
_symmetry_Int_Tables_number       1
_symmetry_cell_setting            triclinic
loop_
_symmetry_equiv_pos_as_xyz
'x, y, z'
_cell_length_a     42.288965
_cell_length_b     42.906401
_cell_length_c     61.96283
_cell_angle_alpha  89.800201
_cell_angle_beta   89.891969
_cell_angle_gamma 119.38255
loop_
_atom_site_label
_atom_site_type_symbol
_atom_site_fract_x
_atom_site_fract_y
_atom_site_fract_z
_atom_type_partial_charge
C0 C 0.16487 0.31762 0.15728 0.0
O1 O 0.18552 0.33386 0.14133 0.0
Cd2 Cd 0.24745 0.38071 0.1451 0.0
O3 O 0.17481 0.32641 0.1767 0.0
Cd4 Cd 0.22344 0.366 0.19982 0.0
C5 C 0.23073 0.44166 0.17425 0.0
O6 O 0.26354 0.35965 0.17588 0.0
O7 O 0.28786 0.39382 0.20324 0.0
O8 O 0.2095 0.31642 0.22377 0.0
C9 C 0.29198 0.3812 0.18568 0.0
O10 O 0.24139 0.43209 0.15748 0.0
C11 C 0.2135 0.33388 0.24099 0.0
O12 O 0.22108 0.42223 0.19137 0.0
O13 O 0.21776 0.36525 0.23902 0.0
C14 C 0.86372 0.25473 0.56168 0.0
O15 O 0.83723 0.25935 0.5667 0.0
Cd16 Cd 0.81137 0.27361 0.53728 0.0
O17 O 0.8691 0.24897 0.54221 0.0
Cd18 Cd 0.83639 0.23311 0.50662 0.0
C19 C 0.89188 0.31249 0.50425 0.0
O20 O 0.77582 0.22029 0.51843 0.0
O21 O 0.7895 0.24004 0.48595 0.0
O22 O 0.83395 0.17956 0.51678 0.0
C23 C 0.76569 0.22754 0.50081 0.0
O24 O 0.86885 0.31038 0.51831 0.0
C25 C 0.83237 0.16767 0.49791 0.0
O26 O 0.88651 0.28563 0.49315 0.0
O27 O 0.8365 0.18837 0.48213 0.0
C28 C 0.64051 0.84556 0.81794 0.0
O29 O 0.6237 0.84891 0.80185 0.0
Cd30 Cd 0.57296 0.85911 0.80517 0.0
O31 O 0.63039 0.84558 0.83726 0.0
Cd32 Cd 0.58836 0.8521 0.86035 0.0
C33 C 0.51365 0.78187 0.83494 0.0
O34 O 0.59448 0.8965 0.8355 0.0
O35 O 0.56279 0.89109 0.86379 0.0
O36 O 0.64 0.88545 0.8833 0.0
C37 C 0.57452 0.90567 0.84555 0.0
O38 O 0.52339 0.8005 0.81759 0.0
C39 C 0.62258 0.87391 0.90086 0.0
O40 O 0.53194 0.79369 0.85239 0.0
O41 O 0.58977 0.84901 0.89971 0.0
C42 C 0.77796 0.6428 0.15984 0.0
O43 O 0.76147 0.62993 0.14214 0.0
Cd44 Cd 0.7005 0.58101 0.14214 0.0
O45 O 0.76299 0.62992 0.17797 0.0
Cd46 Cd 0.71095 0.58855 0.19847 0.0
C47 C 0.71265 0.5178 0.17274 0.0
O48 O 0.68225 0.6037 0.17132 0.0
O49 O 0.64737 0.57299 0.1974 0.0
O50 O 0.73431 0.63743 0.22456 0.0
C51 C 0.65119 0.58932 0.17972 0.0
O52 O 0.70753 0.53001 0.15503 0.0
C53 C 0.71658 0.61702 0.24019 0.0
O54 O 0.71472 0.53343 0.19067 0.0
O55 O 0.70065 0.58353 0.23678 0.0
C56 C 0.06553 0.70485 0.56099 0.0
O57 O 0.09376 0.70326 0.56558 0.0
Cd58 Cd 0.11078 0.68714 0.53334 0.0
O59 O 0.05834 0.70751 0.54137 0.0
Cd60 Cd 0.10234 0.72874 0.50985 0.0
C61 C 0.04238 0.6612 0.49391 0.0
O62 O 0.1627 0.73738 0.52025 0.0
O63 O 0.14599 0.71727 0.48823 0.0
O64 O 0.11935 0.78628 0.52184 0.0
C65 C 0.17118 0.73028 0.50212 0.0
O66 O 0.05724 0.65524 0.51008 0.0
C67 C 0.11616 0.79775 0.50356 0.0
O68 O 0.05622 0.69193 0.48555 0.0
O69 O 0.10405 0.77591 0.48799 0.0
C70 C 0.30027 0.12247 0.81784 0.0
O71 O 0.31563 0.1192 0.80098 0.0
Cd72 Cd 0.36519 0.10706 0.80316 0.0
O73 O 0.31126 0.12077 0.83672 0.0
Cd74 Cd 0.35342 0.11139 0.85852 0.0
C75 C 0.42588 0.18267 0.83308 0.0
O76 O 0.34231 0.0671 0.83269 0.0
O77 O 0.37731 0.07032 0.85868 0.0
O78 O 0.30369 0.08012 0.88386 0.0
C79 C 0.36057 0.05483 0.84165 0.0
O80 O 0.41553 0.16469 0.81563 0.0
C81 C 0.32373 0.08903 0.90048 0.0
O82 O 0.40837 0.17007 0.85074 0.0
O83 O 0.35707 0.11178 0.89779 0.0
C84 C 0.60112 0.71316 0.43236 0.0
O85 O 0.57789 0.72227 0.42734 0.0
Cd86 Cd 0.54225 0.70142 0.4591 0.0
O87 O 0.60442 0.70685 0.45204 0.0
Cd88 Cd 0.58193 0.7296 0.48332 0.0
C89 C 0.57144 0.66115 0.49742 0.0
O90 O 0.5362 0.7483 0.47481 0.0
O91 O 0.52106 0.71054 0.50071 0.0
O92 O 0.63414 0.78591 0.47618 0.0
C93 C 0.51443 0.73208 0.49013 0.0
O94 O 0.55432 0.65873 0.48005 0.0
C95 C 0.6432 0.79238 0.49585 0.0
O96 O 0.58652 0.6901 0.50765 0.0
O97 O 0.62264 0.76996 0.50988 0.0
C98 C 0.8245 0.64278 0.83733 0.0
O99 O 0.83004 0.63253 0.85552 0.0
Cd100 Cd 0.84268 0.58365 0.85231 0.0
O101 O 0.82679 0.62831 0.81999 0.0
Cd102 Cd 0.83687 0.59079 0.79599 0.0
C103 C 0.76638 0.5199 0.82197 0.0
O104 O 0.88218 0.60609 0.82202 0.0
O105 O 0.88254 0.57245 0.79655 0.0
O106 O 0.86146 0.64066 0.77003 0.0
C107 C 0.89703 0.58995 0.81353 0.0
O108 O 0.78473 0.53199 0.83933 0.0
C109 C 0.85889 0.62049 0.75437 0.0
O110 O 0.77851 0.53614 0.80395 0.0
O111 O 0.84152 0.58697 0.75774 0.0
C112 C 0.16258 0.8418 0.17534 0.0
O113 O 0.17991 0.84436 0.19263 0.0
Cd114 Cd 0.24078 0.8541 0.19078 0.0
O115 O 0.17644 0.84322 0.15684 0.0
Cd116 Cd 0.22708 0.85118 0.13478 0.0
C117 C 0.22615 0.77867 0.16006 0.0
O118 O 0.25825 0.89438 0.16141 0.0
O119 O 0.29144 0.8952 0.13494 0.0
O120 O 0.20147 0.8772 0.10986 0.0
C121 C 0.28898 0.90867 0.15257 0.0
O122 O 0.23245 0.7961 0.17768 0.0
C123 C 0.21783 0.87419 0.0935 0.0
O124 O 0.22306 0.79207 0.14221 0.0
O125 O 0.23542 0.85752 0.09599 0.0
C126 C 0.35824 0.2667 0.43427 0.0
O127 O 0.39222 0.28016 0.43097 0.0
Cd128 Cd 0.43442 0.28953 0.45892 0.0
O129 O 0.3436 0.25226 0.45231 0.0
Cd130 Cd 0.35639 0.23332 0.48826 0.0
C131 C 0.37947 0.30786 0.49621 0.0
O132 O 0.41029 0.23171 0.47336 0.0
O133 O 0.4034 0.2245 0.50764 0.0
O134 O 0.30253 0.17973 0.47829 0.0
C135 C 0.42245 0.22747 0.4911 0.0
O136 O 0.39854 0.30137 0.48325 0.0
C137 C 0.29099 0.17163 0.49754 0.0
O138 O 0.35615 0.28262 0.50759 0.0
O139 O 0.3104 0.19231 0.51246 0.0
C140 C 0.11695 0.32427 0.83584 0.0
O141 O 0.10929 0.33482 0.85326 0.0
Cd142 Cd 0.0939 0.38202 0.84909 0.0
O143 O 0.11484 0.33698 0.81773 0.0
Cd144 Cd 0.10321 0.37217 0.79283 0.0
C145 C 0.17121 0.44597 0.81933 0.0
O146 O 0.05713 0.36159 0.81794 0.0
O147 O 0.06134 0.39424 0.79054 0.0
O148 O 0.07347 0.3211 0.76829 0.0
C149 C 0.04693 0.38126 0.80866 0.0
O150 O 0.15152 0.43433 0.83635 0.0
C151 C 0.08227 0.34081 0.75152 0.0
O152 O 0.16099 0.42858 0.80156 0.0
O153 O 0.10488 0.37383 0.75399 0.0
C154 C 0.77943 0.12261 0.1764 0.0
O155 O 0.76159 0.11412 0.19401 0.0
Cd156 Cd 0.69876 0.10077 0.19009 0.0
O157 O 0.76392 0.12115 0.15864 0.0
Cd158 Cd 0.71675 0.11014 0.13395 0.0
C159 C 0.71085 0.17759 0.16061 0.0
O160 O 0.68021 0.06455 0.15873 0.0
O161 O 0.65299 0.07087 0.13115 0.0
O162 O 0.73936 0.08154 0.10979 0.0
C163 C 0.65073 0.05634 0.14933 0.0
O164 O 0.70353 0.15851 0.17778 0.0
C165 C 0.7307 0.09198 0.09269 0.0
O166 O 0.71751 0.16691 0.14277 0.0
O167 O 0.71993 0.11476 0.09484 0.0
C168 C 0.21291 0.7223 0.17998 0.0
C169 C 0.22263 0.7423 0.16066 0.0
C170 C 0.21157 0.68899 0.18116 0.0
C171 C 0.24876 0.63622 0.1544 0.0
H172 H 0.17673 0.55777 0.18882 0.0
C173 C 0.24041 0.49713 0.15448 0.0
C174 C 0.22939 0.47591 0.17334 0.0
C175 C 0.23886 0.52898 0.15311 0.0
C176 C 0.19746 0.57948 0.17937 0.0
H177 H 0.2376 0.74221 0.12724 0.0
H178 H 0.2355 0.68422 0.12927 0.0
H179 H 0.17404 0.6131 0.18556 0.0
H180 H 0.20837 0.47237 0.20571 0.0
H181 H 0.20644 0.52832 0.20355 0.0
H182 H 0.27264 0.60314 0.14848 0.0
C183 C 0.22916 0.69443 0.14363 0.0
C184 C 0.1958 0.61135 0.17743 0.0
C185 C 0.2301 0.72762 0.14238 0.0
C186 C 0.21701 0.48782 0.19089 0.0
C187 C 0.21564 0.51993 0.18956 0.0
C188 C 0.25056 0.60451 0.15645 0.0
C189 C 0.2203 0.67474 0.16312 0.0
C190 C 0.2214 0.64025 0.16487 0.0
C191 C 0.22648 0.54109 0.1706 0.0
C192 C 0.22487 0.57543 0.16889 0.0
H193 H 0.20663 0.73258 0.19434 0.0
H194 H 0.2048 0.67496 0.19649 0.0
H195 H 0.26945 0.65797 0.14495 0.0
H196 H 0.25008 0.48903 0.14055 0.0
H197 H 0.24685 0.54377 0.13805 0.0
C198 C 0.72544 0.24859 0.48342 0.0
C199 C 0.73118 0.22887 0.49963 0.0
C200 C 0.69369 0.25145 0.48328 0.0
C201 C 0.59856 0.20481 0.50373 0.0
H202 H 0.59784 0.29167 0.48715 0.0
C203 C 0.46731 0.21469 0.51009 0.0
C204 C 0.45901 0.2306 0.49279 0.0
C205 C 0.50154 0.21708 0.51157 0.0
C206 C 0.5975 0.2671 0.49167 0.0
H207 H 0.70799 0.19687 0.52846 0.0
H208 H 0.65288 0.2016 0.52818 0.0
H209 H 0.65549 0.29106 0.4886 0.0
H210 H 0.48073 0.26274 0.46384 0.0
H211 H 0.54063 0.26725 0.4665 0.0
H212 H 0.54085 0.18068 0.50664 0.0
C213 C 0.67264 0.21472 0.51543 0.0
C214 C 0.63063 0.26674 0.49249 0.0
C215 C 0.70439 0.21206 0.51564 0.0
C216 C 0.48613 0.24982 0.47726 0.0
C217 C 0.52063 0.25269 0.47891 0.0
C218 C 0.56563 0.20519 0.50293 0.0
C219 C 0.66662 0.23431 0.4992 0.0
C220 C 0.63164 0.23551 0.49854 0.0
C221 C 0.52869 0.23584 0.49592 0.0
C222 C 0.56445 0.23626 0.49692 0.0
H223 H 0.74568 0.2622 0.47097 0.0
H224 H 0.69006 0.26655 0.47043 0.0
H225 H 0.59791 0.18001 0.508 0.0
H226 H 0.44708 0.19984 0.52235 0.0
H227 H 0.50675 0.20419 0.52507 0.0
C228 C 0.47028 0.72578 0.81528 0.0
C229 C 0.48034 0.74587 0.83443 0.0
C230 C 0.43812 0.69273 0.81415 0.0
C231 C 0.34745 0.63986 0.84074 0.0
H232 H 0.3421 0.56184 0.80668 0.0
C233 C 0.21629 0.50086 0.8396 0.0
C234 C 0.20681 0.48013 0.82068 0.0
C235 C 0.24973 0.53251 0.84137 0.0
C236 C 0.34275 0.5834 0.81603 0.0
H237 H 0.46426 0.74658 0.86752 0.0
H238 H 0.40795 0.68908 0.86559 0.0
H239 H 0.39974 0.61711 0.81004 0.0
H240 H 0.22579 0.47717 0.78866 0.0
H241 H 0.28371 0.53263 0.7915 0.0
H242 H 0.2905 0.6066 0.8465 0.0
C243 C 0.42494 0.69886 0.85133 0.0
C244 C 0.3761 0.6153 0.81803 0.0
C245 C 0.45747 0.73176 0.85254 0.0
C246 C 0.23195 0.49229 0.8035 0.0
C247 C 0.26549 0.52411 0.80524 0.0
C248 C 0.31409 0.60808 0.83866 0.0
C249 C 0.41456 0.67881 0.83206 0.0
C250 C 0.37907 0.64416 0.8304 0.0
C251 C 0.27506 0.54488 0.82424 0.0
C252 C 0.31101 0.57915 0.82628 0.0
H253 H 0.4873 0.73573 0.80102 0.0
H254 H 0.43124 0.67857 0.79895 0.0
H255 H 0.34817 0.66148 0.85008 0.0
H256 H 0.19786 0.49257 0.85326 0.0
H257 H 0.25586 0.54696 0.85644 0.0
C258 C 0.72386 0.47313 0.15265 0.0
C259 C 0.71619 0.4848 0.17219 0.0
C260 C 0.72562 0.44132 0.1517 0.0
C261 C 0.69355 0.35482 0.18091 0.0
H262 H 0.76072 0.34427 0.14305 0.0
C263 C 0.70403 0.22478 0.18105 0.0
C264 C 0.71192 0.21298 0.16164 0.0
C265 C 0.70542 0.25809 0.18227 0.0
C266 C 0.74136 0.34643 0.15351 0.0
H267 H 0.70546 0.47236 0.20623 0.0
H268 H 0.70851 0.41695 0.20463 0.0
H269 H 0.76298 0.40202 0.14572 0.0
H270 H 0.72722 0.22747 0.12816 0.0
H271 H 0.72888 0.28506 0.13013 0.0
H272 H 0.67151 0.29927 0.18849 0.0
C273 C 0.71274 0.43218 0.1899 0.0
C274 C 0.74275 0.3798 0.1551 0.0
C275 C 0.71125 0.46418 0.19088 0.0
C276 C 0.72104 0.23554 0.14342 0.0
C277 C 0.72227 0.26887 0.14462 0.0
C278 C 0.69204 0.32147 0.17925 0.0
C279 C 0.71951 0.41996 0.17023 0.0
C280 C 0.71888 0.38458 0.16886 0.0
C281 C 0.71454 0.28081 0.1641 0.0
C282 C 0.71596 0.31661 0.16557 0.0
H283 H 0.72822 0.48844 0.13794 0.0
H284 H 0.73068 0.43296 0.13622 0.0
H285 H 0.67415 0.35698 0.19134 0.0
H286 H 0.69695 0.20835 0.19548 0.0
H287 H 0.69988 0.26622 0.19769 0.0
C288 C 0.47207 0.75432 0.47878 0.0
C289 C 0.48012 0.73338 0.49282 0.0
C290 C 0.43856 0.75345 0.4799 0.0
C291 C 0.34377 0.69886 0.50068 0.0
H292 H 0.33925 0.7854 0.48883 0.0
C293 C 0.21384 0.71004 0.51486 0.0
C294 C 0.2052 0.72889 0.49958 0.0
C295 C 0.24656 0.70942 0.51352 0.0
C296 C 0.3399 0.76086 0.49191 0.0
H297 H 0.45931 0.69551 0.51938 0.0
H298 H 0.40116 0.69469 0.52177 0.0
H299 H 0.3977 0.78717 0.48863 0.0
H300 H 0.22376 0.76193 0.47088 0.0
H301 H 0.28168 0.76158 0.46866 0.0
H302 H 0.28586 0.67276 0.50429 0.0
C303 C 0.42047 0.7113 0.50954 0.0
C304 C 0.37354 0.76184 0.49181 0.0
C305 C 0.45403 0.71203 0.50833 0.0
C306 C 0.2298 0.74705 0.48278 0.0
C307 C 0.263 0.74702 0.48165 0.0
C308 C 0.3101 0.69794 0.50091 0.0
C309 C 0.41212 0.73187 0.49524 0.0
C310 C 0.37607 0.73084 0.49607 0.0
C311 C 0.27187 0.72823 0.49707 0.0
C312 C 0.30766 0.72892 0.49644 0.0
H313 H 0.49138 0.77088 0.46652 0.0
H314 H 0.43314 0.76919 0.46833 0.0
H315 H 0.34434 0.67427 0.50373 0.0
H316 H 0.19519 0.69578 0.52795 0.0
H317 H 0.25245 0.69497 0.52578 0.0
C318 C 0.47811 0.23533 0.85139 0.0
C319 C 0.45883 0.21887 0.8325 0.0
C320 C 0.5101 0.26864 0.85044 0.0
C321 C 0.56368 0.34858 0.81457 0.0
H322 H 0.64346 0.36287 0.85148 0.0
C323 C 0.70852 0.47248 0.80451 0.0
C324 C 0.73036 0.48634 0.82296 0.0
C325 C 0.67498 0.44062 0.80561 0.0
C326 C 0.62144 0.35985 0.84125 0.0
H327 H 0.45757 0.22546 0.79785 0.0
H328 H 0.51304 0.28304 0.79617 0.0
H329 H 0.58611 0.3075 0.85397 0.0
H330 H 0.73318 0.47741 0.8572 0.0
H331 H 0.67492 0.42306 0.85928 0.0
H332 H 0.59894 0.40102 0.8019 0.0
C333 C 0.50363 0.27045 0.8118 0.0
C334 C 0.58828 0.32778 0.84269 0.0
C335 C 0.47185 0.2371 0.81274 0.0
C336 C 0.7174 0.46763 0.84257 0.0
C337 C 0.68385 0.436 0.84372 0.0
C338 C 0.59683 0.3808 0.81321 0.0
C339 C 0.52362 0.28663 0.83058 0.0
C340 C 0.55881 0.3215 0.82936 0.0
C341 C 0.66206 0.42166 0.82525 0.0
C342 C 0.62638 0.38708 0.82654 0.0
H343 H 0.46888 0.22217 0.8669 0.0
H344 H 0.52421 0.28033 0.86534 0.0
H345 H 0.54164 0.34517 0.8042 0.0
H346 H 0.71743 0.48609 0.7891 0.0
H347 H 0.65956 0.43057 0.7909 0.0
C348 C 0.59411 0.58993 0.17499 0.0
C349 C 0.61945 0.5809 0.167 0.0
C350 C 0.55801 0.56988 0.16888 0.0
C351 C 0.49115 0.49378 0.1367 0.0
H352 H 0.44048 0.46904 0.19171 0.0
C353 C 0.3411 0.38375 0.16227 0.0
C354 C 0.3258 0.40107 0.17393 0.0
C355 C 0.37666 0.40365 0.15452 0.0
C356 C 0.45447 0.47556 0.17627 0.0
H357 H 0.62937 0.548 0.14466 0.0
H358 H 0.56587 0.51185 0.13456 0.0
H359 H 0.5046 0.51274 0.19055 0.0
H360 H 0.33169 0.45221 0.18352 0.0
H361 H 0.39324 0.48675 0.16985 0.0
H362 H 0.43998 0.45635 0.12261 0.0
C363 C 0.57356 0.53453 0.14508 0.0
C364 C 0.4909 0.50086 0.17555 0.0
C365 C 0.60983 0.55523 0.15079 0.0
C366 C 0.34385 0.43838 0.17529 0.0
C367 C 0.3787 0.45809 0.16729 0.0
C368 C 0.45428 0.46828 0.13744 0.0
C369 C 0.54719 0.54006 0.15538 0.0
C370 C 0.50914 0.51143 0.15566 0.0
C371 C 0.39609 0.44061 0.15822 0.0
C372 C 0.43564 0.46041 0.15715 0.0
H373 H 0.60147 0.60991 0.18749 0.0
H374 H 0.53808 0.57524 0.17649 0.0
H375 H 0.5051 0.50087 0.12129 0.0
H376 H 0.32678 0.35491 0.16065 0.0
H377 H 0.38982 0.38998 0.14733 0.0
C378 C 0.01608 0.61613 0.46569 0.0
C379 C 0.01092 0.63084 0.48458 0.0
C380 C -0.00017 0.57903 0.46388 0.0
C381 C 0.94808 0.49507 0.49735 0.0
H382 H 0.02321 0.47656 0.47509 0.0
C383 C 0.93956 0.36803 0.52012 0.0
C384 C 0.92502 0.34673 0.50174 0.0
C385 C 0.96187 0.4047 0.51787 0.0
C386 C 0.00248 0.48179 0.48161 0.0
H387 H -0.02141 0.62031 0.51346 0.0
H388 H 0.95144 0.55643 0.51105 0.0
H389 H 0.02639 0.5338 0.46764 0.0
H390 H 0.92748 0.34486 0.46692 0.0
H391 H 0.96631 0.40959 0.4629 0.0
H392 H 0.9254 0.44357 0.5122 0.0
C393 C 0.96798 0.57209 0.4976 0.0
C394 C 0.00356 0.51415 0.47693 0.0
C395 C -0.01665 0.60902 0.49899 0.0
C396 C 0.93802 0.36116 0.48123 0.0
C397 C 0.96042 0.39806 0.47897 0.0
C398 C 0.94776 0.46339 0.50261 0.0
C399 C -0.02077 0.55695 0.4812 0.0
C400 C -0.02392 0.52112 0.48451 0.0
C401 C 0.96945 0.42012 0.49722 0.0
C402 C -0.02533 0.45635 0.49458 0.0
H403 H 0.03683 0.63284 0.45412 0.0
H404 H 0.00702 0.56812 0.4502 0.0
H405 H 0.92605 0.49876 0.50325 0.0
H406 H 0.93057 0.35692 0.53615 0.0
H407 H 0.96911 0.42132 0.53213 0.0
C408 C 0.36314 -0.0006 0.83734 0.0
C409 C 0.37225 0.03344 0.8297 0.0
C410 C 0.38396 -0.016 0.8311 0.0
C411 C 0.46074 -0.0071 0.79822 0.0
H412 H 0.48661 0.96658 0.85266 0.0
C413 C 0.57239 0.95208 0.82233 0.0
C414 C 0.55463 0.91979 0.83389 0.0
C415 C 0.55236 0.9679 0.81483 0.0
C416 C 0.4798 0.97417 0.83737 0.0
H417 H 0.40664 0.07688 0.80821 0.0
H418 H 0.444 0.05045 0.79776 0.0
H419 H 0.44243 -0.01284 0.8523 0.0
H420 H 0.50269 0.87552 0.84369 0.0
H421 H 0.46788 0.90272 0.83041 0.0
H422 H 0.49818 0.97891 0.78345 0.0
C423 C 0.42065 0.03527 0.80809 0.0
C424 C 0.45423 -0.0146 0.83711 0.0
C425 C 0.39936 0.05034 0.81403 0.0
C426 C 0.5168 0.90114 0.83545 0.0
C427 C 0.49696 0.91642 0.82768 0.0
C428 C 0.48645 0.98133 0.79848 0.0
C429 C 0.41455 0.00319 0.81775 0.0
C430 C 0.44331 -0.00663 0.81746 0.0
C431 C 0.51482 0.95085 0.81868 0.0
C432 C 0.49483 0.97057 0.818 0.0
H433 H 0.3421 -0.01381 0.84945 0.0
H434 H 0.37831 0.95873 0.83831 0.0
H435 H 0.45333 -9e-05 0.78298 0.0
H436 H 0.60167 0.96618 0.82061 0.0
H437 H 0.56636 -0.00558 0.80773 0.0
C438 C 0.55188 0.61422 0.52508 0.0
C439 C 0.57068 0.62921 0.50586 0.0
C440 C 0.53332 0.57713 0.52749 0.0
C441 C 0.50516 0.49326 0.49539 0.0
H442 H 0.40984 0.47291 0.5156 0.0
C443 C 0.39182 0.36188 0.47598 0.0
C444 C 0.38206 0.34294 0.49557 0.0
C445 C 0.4056 0.3986 0.47591 0.0
C446 C 0.43626 0.47859 0.50965 0.0
H447 H 0.59274 0.61987 0.47669 0.0
H448 H 0.56008 0.55573 0.48033 0.0
H449 H 0.46238 0.53082 0.52304 0.0
H450 H 0.37145 0.34504 0.52956 0.0
H451 H 0.39676 0.40999 0.52965 0.0
H452 H 0.47856 0.44139 0.48133 0.0
C453 C 0.55845 0.57125 0.49356 0.0
C454 C 0.46664 0.51134 0.51436 0.0
C455 C 0.57736 0.60821 0.49137 0.0
C456 C 0.37993 0.35965 0.51443 0.0
C457 C 0.39401 0.39665 0.51439 0.0
C458 C 0.47472 0.46102 0.49021 0.0
C459 C 0.53305 0.55537 0.51043 0.0
C460 C 0.50161 0.51899 0.5075 0.0
C461 C 0.41009 0.41648 0.4955 0.0
C462 C 0.44013 0.45324 0.49754 0.0
H463 H 0.54719 0.63041 0.53666 0.0
H464 H 0.51574 0.56564 0.54139 0.0
H465 H 0.53144 0.49775 0.49001 0.0
H466 H 0.39206 0.34889 0.46105 0.0
H467 H 0.41703 0.4134 0.46108 0.0
C468 C 0.90302 0.55413 0.84203 0.0
C469 C 0.9197 0.58048 0.82611 0.0
C470 C 0.91855 0.53339 0.84796 0.0
C471 C 0.9694 0.5008 0.81862 0.0
H472 H -0.02622 0.45572 0.87214 0.0
C473 C 0.0535 0.43787 0.82092 0.0
C474 C 0.0335 0.40051 0.82132 0.0
C475 C 0.03836 0.45753 0.82897 0.0
C476 C -0.02801 0.46782 0.85715 0.0
H477 H 0.96728 0.6102 0.8061 0.0
H478 H -0.00418 0.57523 0.81743 0.0
H479 H 0.9531 0.50032 0.87265 0.0
H480 H -0.01492 0.35388 0.83305 0.0
H481 H 0.95732 0.38899 0.84663 0.0
H482 H -0.01132 0.46903 0.80312 0.0
C483 C 0.97023 0.56958 0.82473 0.0
C484 C 0.96058 0.49336 0.85743 0.0
C485 C 0.95428 0.58976 0.81843 0.0
C486 C 0.0002 0.38283 0.83226 0.0
C487 C -0.01536 0.40272 0.84013 0.0
C488 C -0.01942 0.47544 0.81835 0.0
C489 C 0.95096 0.53945 0.83811 0.0
C490 C 0.96085 0.51111 0.83827 0.0
C491 C 0.00291 0.43995 0.83719 0.0
C492 C -0.01658 0.46004 0.83771 0.0
H493 H 0.87603 0.54665 0.84785 0.0
H494 H 0.9033 0.51039 0.85834 0.0
H495 H 0.96812 0.51283 0.80347 0.0
H496 H 0.07989 0.45179 0.81314 0.0
H497 H 0.05292 0.48635 0.82691 0.0
C498 C 0.33214 0.91514 0.18074 0.0
C499 C 0.3215 0.93104 0.16467 0.0
C500 C 0.36844 0.93111 0.18677 0.0
C501 C 0.45218 0.98279 0.1578 0.0
H502 H 0.50123 -0.01317 0.21149 0.0
C503 C 0.59965 0.06405 0.16031 0.0
C504 C 0.61753 0.044 0.16165 0.0
C505 C 0.56452 0.04984 0.1679 0.0
C506 C 0.48751 -0.01477 0.19645 0.0
H507 H 0.33763 0.97763 0.14445 0.0
H508 H 0.40103 0.0068 0.15586 0.0
H509 H 0.43556 0.96605 0.21172 0.0
H510 H 0.61592 -0.00375 0.17449 0.0
H511 H 0.55259 0.97019 0.18731 0.0
H512 H 0.50368 0.00216 0.14251 0.0
C513 C 0.3819 0.98149 0.16321 0.0
C514 C 0.45029 0.97373 0.19657 0.0
C515 C 0.3458 0.96513 0.15682 0.0
C516 C 0.60182 0.0115 0.173 0.0
C517 C 0.56604 -0.00313 0.18042 0.0
C518 C 0.48898 -0.0059 0.1577 0.0
C519 C 0.39393 0.96317 0.17687 0.0
C520 C 0.43275 0.97384 0.17732 0.0
C521 C 0.54674 0.01523 0.17662 0.0
C522 C 0.50708 -0.00331 0.17709 0.0
H523 H 0.31339 0.88862 0.18678 0.0
H524 H 0.377 0.91656 0.19738 0.0
H525 H 0.43901 0.98146 0.14257 0.0
H526 H 0.61204 0.0898 0.15217 0.0
H527 H 0.55009 0.06454 0.16519 0.0
C528 C 0.22645 0.292 0.26227 0.0
C529 C 0.21922 0.32065 0.26184 0.0
C530 C 0.23722 0.28257 0.28134 0.0
C531 C 0.24513 0.2993 0.3412 0.0
H532 H 0.30723 0.25738 0.33589 0.0
C533 C 0.30938 0.27663 0.4184 0.0
C534 C 0.33518 0.26538 0.41619 0.0
C535 C 0.29078 0.27885 0.40025 0.0
C536 C 0.28993 0.26887 0.33842 0.0
H537 H 0.21733 0.36172 0.28107 0.0
H538 H 0.2371 0.34623 0.31417 0.0
H539 H 0.2866 0.27256 0.30438 0.0
H540 H 0.35921 0.24398 0.39425 0.0
H541 H 0.32673 0.24563 0.36339 0.0
H542 H 0.2497 0.2977 0.37502 0.0
C543 C 0.23357 0.33014 0.30005 0.0
C544 C 0.27748 0.2774 0.3197 0.0
C545 C 0.22235 0.33927 0.28098 0.0
C546 C 0.34015 0.25382 0.39612 0.0
C547 C 0.32117 0.25519 0.37815 0.0
C548 C 0.25815 0.2914 0.36002 0.0
C549 C 0.24156 0.30183 0.30052 0.0
C550 C 0.25481 0.29272 0.32071 0.0
C551 C 0.29723 0.26941 0.37941 0.0
C552 C 0.28108 0.27604 0.35919 0.0
H553 H 0.22477 0.27737 0.24771 0.0
H554 H 0.24207 0.26006 0.28089 0.0
H555 H 0.22707 0.31028 0.34291 0.0
H556 H 0.30473 0.2852 0.43394 0.0
H557 H 0.27225 0.2889 0.40298 0.0
C558 C 0.88332 0.23041 0.59213 0.0
C559 C 0.88992 0.25899 0.5784 0.0
C560 C 0.90492 0.23619 0.61037 0.0
C561 C 0.95954 0.30904 0.64781 0.0
H562 H -0.00771 0.24519 0.67007 0.0
C563 C 0.06328 0.35285 0.71595 0.0
C564 C 0.06184 0.32782 0.73113 0.0
C565 C 0.04032 0.34195 0.69814 0.0
C566 C -0.0172 0.26301 0.66432 0.0
H567 H 0.92501 0.31528 0.57175 0.0
H568 H 0.96313 0.32553 0.60352 0.0
H569 H 0.95842 0.23087 0.63632 0.0
H570 H 0.03489 0.27145 0.73952 0.0
H571 H -0.00518 0.25216 0.7081 0.0
H572 H -0.01691 0.34087 0.67579 0.0
C573 C 0.94104 0.29879 0.60052 0.0
C574 C 0.96359 0.25488 0.64487 0.0
C575 C 0.91953 0.29295 0.58229 0.0
C576 C 0.03707 0.29135 0.7279 0.0
C577 C 0.01404 0.28034 0.70992 0.0
C578 C -0.02165 0.31695 0.66729 0.0
C579 C 0.93316 0.27075 0.6152 0.0
C580 C 0.95253 0.27828 0.63615 0.0
C581 C 0.01516 0.30561 0.6949 0.0
C582 C -0.00881 0.29462 0.67553 0.0
H583 H 0.8605 0.20403 0.58926 0.0
H584 H 0.89819 0.21406 0.62132 0.0
H585 H 0.95032 0.32701 0.64193 0.0
H586 H 0.08154 0.38121 0.7181 0.0
H587 H 0.04268 0.36223 0.6868 0.0
C588 C 0.64407 0.931 0.91986 0.0
C589 C 0.63623 0.89526 0.9205 0.0
C590 C 0.65389 0.95154 0.93856 0.0
C591 C 0.68416 0.95269 0.99549 0.0
H592 H 0.66132 0.02938 0.00017 0.0
C593 C 0.72526 0.03989 0.07216 0.0
C594 C 0.72585 0.07284 0.07214 0.0
C595 C 0.71285 0.01751 0.05425 0.0
C596 C 0.6689 0.00877 -0.00076 0.0
H597 H 0.63259 0.85262 0.94078 0.0
H598 H 0.64941 0.88809 0.97379 0.0
H599 H 0.64282 -0.00776 0.96873 0.0
H600 H 0.7157 0.10914 0.05286 0.0
H601 H 0.69784 0.07239 0.0209 0.0
H602 H 0.7107 0.96899 0.02549 0.0
C603 C 0.64864 0.90086 0.95887 0.0
C604 C 0.65798 -0.01295 0.98091 0.0
C605 C 0.63874 0.88027 0.94004 0.0
C606 C 0.71574 0.0839 0.05332 0.0
C607 C 0.70454 0.06206 0.03503 0.0
C608 C 0.69534 0.97452 0.01371 0.0
C609 C 0.65593 0.93677 0.95849 0.0
C610 C 0.66588 0.95891 0.97858 0.0
C611 C 0.70201 0.02791 0.03524 0.0
C612 C 0.68848 0.00345 0.01592 0.0
H613 H 0.64181 0.94289 0.90488 0.0
H614 H 0.66011 0.97912 0.9372 0.0
H615 H 0.69141 0.93182 0.99441 0.0
H616 H 0.7323 0.03022 0.08654 0.0
H617 H 0.71078 -0.00846 0.05598 0.0
C618 C 0.61015 0.67173 0.40888 0.0
C619 C 0.62114 0.70682 0.4153 0.0
C620 C 0.6239 0.66551 0.38989 0.0
C621 C 0.69593 0.70473 0.34898 0.0
H622 H 0.62045 0.63771 0.31107 0.0
C623 C 0.72865 0.66795 0.26497 0.0
C624 C 0.70932 0.63128 0.26009 0.0
C625 C 0.71857 0.68134 0.28272 0.0
C626 C 0.64194 0.65629 0.32149 0.0
H627 H 0.65624 0.76292 0.40816 0.0
H628 H 0.68128 0.7521 0.37506 0.0
H629 H 0.6041 0.65151 0.34599 0.0
H630 H 0.66368 0.58019 0.26952 0.0
H631 H 0.64682 0.60304 0.30045 0.0
H632 H 0.73392 0.70856 0.32482 0.0
C633 C 0.66191 0.72946 0.38454 0.0
C634 C 0.63253 0.66412 0.3415 0.0
C635 C 0.64767 0.73566 0.40337 0.0
C636 C 0.67964 0.60844 0.27309 0.0
C637 C 0.66949 0.62175 0.29063 0.0
C638 C 0.70544 0.69652 0.32901 0.0
C639 C 0.64906 0.69435 0.37721 0.0
C640 C 0.65947 0.68772 0.35564 0.0
C641 C 0.68878 0.65831 0.29574 0.0
C642 C 0.6786 0.67139 0.31531 0.0
H643 H 0.58949 0.64921 0.4179 0.0
H644 H 0.61398 0.63817 0.38472 0.0
H645 H 0.71717 0.72328 0.35955 0.0
H646 H 0.75126 0.68629 0.25497 0.0
H647 H 0.73382 0.70971 0.28608 0.0
C648 C 0.02218 0.66615 0.58864 0.0
C649 C 0.03976 0.69943 0.57825 0.0
C650 C 0.00339 0.66206 0.60784 0.0
C651 C 0.96318 0.70136 0.64362 0.0
H652 H -0.01611 0.64897 0.68732 0.0
C653 C 0.89483 0.67057 0.72811 0.0
C654 C 0.88108 0.63484 0.73468 0.0
C655 C 0.91846 0.68404 0.71036 0.0
C656 C -0.02227 0.6636 0.6753 0.0
H657 H 0.05058 0.75422 0.57875 0.0
H658 H 0.01761 0.74722 0.61275 0.0
H659 H 0.01356 0.66018 0.65226 0.0
H660 H 0.88267 0.58583 0.72862 0.0
H661 H 0.92298 0.60885 0.69787 0.0
H662 H 0.92637 0.70369 0.66646 0.0
C663 C 0.01807 0.72423 0.60594 0.0
C664 C -0.00535 0.66991 0.65521 0.0
C665 C 0.03677 0.72824 0.58655 0.0
C666 C 0.89201 0.6132 0.7236 0.0
C667 C 0.9158 0.62668 0.7062 0.0
C668 C 0.94599 0.69481 0.66374 0.0
C669 C 0.00232 0.69139 0.61711 0.0
C670 C -0.01332 0.68787 0.63895 0.0
C671 C 0.92918 0.66214 0.69923 0.0
C672 C 0.95218 0.67482 0.67953 0.0
H673 H 0.02428 0.64368 0.58235 0.0
H674 H -0.00927 0.63622 0.61583 0.0
H675 H 0.95675 0.71548 0.6314 0.0
H676 H 0.88737 0.688 0.73666 0.0
H677 H 0.92853 0.71158 0.70546 0.0
C678 C 0.20044 0.88672 0.05725 0.0
C679 C 0.22465 0.8971 0.07455 0.0
C680 C 0.20951 0.90821 0.03868 0.0
C681 C 0.29081 0.98064 0.01072 0.0
H682 H 0.21875 -0.0124 0.9757 0.0
C683 C 0.33254 0.0798 0.9394 0.0
C684 C 0.31008 0.06975 0.92117 0.0
C685 C 0.3214 0.05883 0.95814 0.0
C686 C 0.23926 -0.0144 0.98507 0.0
H687 H 0.27589 0.93833 0.08704 0.0
H688 H 0.2912 0.97655 0.05523 0.0
H689 H 0.2 0.95162 0.00839 0.0
H690 H 0.25846 0.02956 0.90818 0.0
H691 H 0.23947 -0.0074 0.94051 0.0
H692 H 0.33006 0.01444 0.98741 0.0
C693 C 0.26597 0.95141 0.05531 0.0
C694 C 0.22843 0.9649 0.00393 0.0
C695 C 0.25711 0.92975 0.07362 0.0
C696 C 0.27613 0.03844 0.92211 0.0
C697 C 0.26522 0.0172 0.94071 0.0
C698 C 0.30163 0.00129 0.99188 0.0
C699 C 0.2428 0.94053 0.03732 0.0
C700 C 0.25408 0.96232 0.0171 0.0
C701 C 0.28771 0.02703 0.959 0.0
C702 C 0.27605 0.0043 0.97886 0.0
H703 H 0.17516 0.86161 0.05783 0.0
H704 H 0.19101 0.89882 0.02517 0.0
H705 H 0.31133 0.9786 0.02007 0.0
H706 H 0.35899 0.1036 0.93911 0.0
H707 H 0.33927 0.06773 0.97196 0.0
C708 C 0.8396 0.13154 0.18995 0.0
C709 C 0.81914 0.14014 0.17582 0.0
C710 C 0.87754 0.14874 0.18769 0.0
C711 C 0.95072 0.20739 0.14812 0.0
H712 H 0.0142 0.22388 0.1968 0.0
C713 C 0.10484 0.30198 0.1428 0.0
C714 C 0.12685 0.29161 0.15402 0.0
C715 C 0.06727 0.28266 0.14542 0.0
C716 C -0.00328 0.21928 0.18303 0.0
H717 H 0.82188 0.17427 0.1491 0.0
H718 H 0.88646 0.20555 0.14636 0.0
H719 H 0.94869 0.19135 0.20224 0.0
H720 H 0.12787 0.25234 0.17561 0.0
H721 H 0.06191 0.21695 0.17905 0.0
H722 H -0.00137 0.23625 0.1291 0.0
C723 C 0.87428 0.18431 0.15823 0.0
C724 C 0.9591 0.2004 0.18611 0.0
C725 C 0.83691 0.16654 0.16 0.0
C726 C 0.11104 0.26039 0.16665 0.0
C727 C 0.07348 0.2407 0.16897 0.0
C728 C -0.0119 0.22681 0.14518 0.0
C729 C 0.89534 0.17537 0.17168 0.0
C730 C 0.93551 0.19425 0.16867 0.0
C731 C 0.05127 0.25227 0.15893 0.0
C732 C 0.01154 0.23271 0.1625 0.0
H733 H 0.82634 0.11113 0.20224 0.0
H734 H 0.8927 0.14079 0.19826 0.0
H735 H 0.93388 0.20229 0.13401 0.0
H736 H 0.11675 0.32658 0.13347 0.0
H737 H 0.05091 0.29245 0.13764 0.0
C738 C 0.78209 0.10939 0.50741 0.0
C739 C 0.81381 0.12907 0.49525 0.0
C740 C 0.76288 0.07255 0.50611 0.0
C741 C 0.75361 -0.0065 0.47731 0.0
H742 H 0.728 0.95173 0.53472 0.0
C743 C 0.70294 0.84517 0.48869 0.0
C744 C 0.67232 0.82742 0.502 0.0
C745 C 0.724 0.88223 0.48965 0.0
C746 C 0.73449 0.96274 0.51854 0.0
H747 H 0.8497 0.1266 0.47121 0.0
H748 H 0.81701 0.06066 0.46994 0.0
H749 H 0.75274 0.01539 0.53014 0.0
H750 H 0.64181 0.83275 0.5284 0.0
H751 H 0.677 0.89738 0.52936 0.0
H752 H 0.73474 0.94052 0.46572 0.0
C753 C 0.80661 0.07412 0.48009 0.0
C754 C 0.7486 -0.00066 0.51587 0.0
C755 C 0.82552 0.11158 0.48096 0.0
C756 C 0.66541 0.84621 0.51799 0.0
C757 C 0.68564 0.88332 0.51846 0.0
C758 C 0.73911 0.95667 0.47996 0.0
C759 C 0.77566 0.05438 0.49317 0.0
C760 C 0.75868 0.01516 0.49529 0.0
C761 C 0.71384 0.90183 0.50343 0.0
C762 C 0.7299 0.94097 0.50067 0.0
H763 H 0.77197 0.12262 0.51802 0.0
H764 H 0.7385 0.05822 0.51579 0.0
H765 H 0.7606 0.00494 0.46124 0.0
H766 H 0.7089 0.83073 0.47649 0.0
H767 H 0.74662 0.89563 0.47856 0.0
C768 C 0.81591 0.69303 0.85166 0.0
C769 C 0.81157 0.66869 0.83541 0.0
C770 C 0.80072 0.71548 0.84917 0.0
C771 C 0.74372 0.73469 0.80857 0.0
H772 H 0.73754 0.78868 0.85657 0.0
C773 C 0.65906 0.80505 0.80174 0.0
C774 C 0.66769 0.83454 0.81483 0.0
C775 C 0.67727 0.78574 0.80438 0.0
C776 C 0.73949 0.7742 0.84283 0.0
H777 H 0.78937 0.64953 0.80357 0.0
H778 H 0.76187 0.68476 0.79979 0.0
H779 H 0.76841 0.75478 0.86126 0.0
H780 H 0.70397 0.86957 0.83937 0.0
H781 H 0.73897 0.83847 0.84219 0.0
H782 H 0.71537 0.75455 0.79014 0.0
C783 C 0.77723 0.6891 0.81434 0.0
C784 C 0.75743 0.75436 0.8455 0.0
C785 C 0.79315 0.66792 0.81655 0.0
C786 C 0.69715 0.84683 0.82903 0.0
C787 C 0.71647 0.82838 0.83104 0.0
C788 C 0.72606 0.75441 0.80596 0.0
C789 C 0.77988 0.7131 0.83067 0.0
C790 C 0.76035 0.73438 0.82829 0.0
C791 C 0.70579 0.79665 0.81939 0.0
C792 C 0.72395 0.77483 0.82287 0.0
H793 H 0.83082 0.69464 0.8662 0.0
H794 H 0.8053 0.73415 0.86199 0.0
H795 H 0.74486 0.72107 0.79432 0.0
H796 H 0.63586 0.79477 0.79106 0.0
H797 H 0.66741 0.76117 0.79539 0.0
C798 C 0.83324 0.68425 0.17992 0.0
C799 C 0.81593 0.67145 0.16001 0.0
C800 C 0.87052 0.7064 0.18082 0.0
C801 C 0.95315 0.76049 0.1477 0.0
H802 H -0.00185 0.7426 0.19696 0.0
C803 C 0.1088 0.83739 0.15701 0.0
C804 C 0.12454 0.83349 0.17596 0.0
C805 C 0.07134 0.82023 0.15484 0.0
C806 C -0.01342 0.74917 0.18335 0.0
H807 H 0.82326 0.67518 0.1253 0.0
H808 H 0.8889 0.7131 0.12681 0.0
H809 H 0.93371 0.70851 0.19274 0.0
H810 H 0.11405 0.81428 0.20895 0.0
H811 H 0.04885 0.78753 0.20622 0.0
H812 H 0.00496 0.80092 0.13806 0.0
C813 C 0.87375 0.70586 0.1418 0.0
C814 C 0.94908 0.72908 0.18086 0.0
C815 C 0.83612 0.68395 0.14088 0.0
C816 C 0.10244 0.81674 0.19389 0.0
C817 C 0.06472 0.80043 0.19198 0.0
C818 C -0.00937 0.78088 0.15026 0.0
C819 C 0.89153 0.71594 0.16187 0.0
C820 C 0.93174 0.73529 0.16337 0.0
C821 C 0.04835 0.79961 0.1719 0.0
C822 C 0.00813 0.77655 0.16854 0.0
H823 H 0.81828 0.67604 0.19501 0.0
H824 H 0.88292 0.71517 0.19651 0.0
H825 H 0.94092 0.76589 0.13389 0.0
H826 H 0.12541 0.85143 0.14312 0.0
H827 H 0.06133 0.82184 0.13914 0.0
C828 C 0.16759 0.85705 0.50923 0.0
C829 C 0.13364 0.8359 0.49979 0.0
C830 C 0.18579 0.89364 0.50604 0.0
C831 C 0.18745 0.96935 0.47732 0.0
H832 H 0.21153 0.01166 0.5343 0.0
C833 C 0.2335 0.11764 0.48781 0.0
C834 C 0.26184 0.13578 0.50248 0.0
C835 C 0.21382 0.08037 0.48818 0.0
C836 C 0.20583 0.00078 0.51816 0.0
H837 H 0.09251 0.83497 0.47863 0.0
H838 H 0.12346 0.90043 0.47429 0.0
H839 H 0.19177 0.94911 0.53016 0.0
H840 H 0.2897 0.1305 0.53031 0.0
H841 H 0.25808 0.06633 0.53002 0.0
H842 H 0.20284 0.02145 0.46518 0.0
C843 C 0.13641 0.88841 0.48357 0.0
C844 C 0.1944 0.96472 0.51581 0.0
C845 C 0.11851 0.85132 0.48629 0.0
C846 C 0.26777 0.11688 0.5189 0.0
C847 C 0.24943 0.07981 0.51867 0.0
C848 C 0.19988 0.0059 0.47959 0.0
C849 C 0.16965 0.90978 0.49402 0.0
C850 C 0.18475 0.94862 0.49546 0.0
C851 C 0.22338 0.06103 0.50267 0.0
C852 C 0.20888 0.022 0.50013 0.0
H853 H 0.18015 0.84526 0.51912 0.0
H854 H 0.21177 0.90954 0.51384 0.0
H855 H 0.18024 0.95737 0.46146 0.0
H856 H 0.22835 0.13207 0.47516 0.0
H857 H 0.19277 0.06685 0.47628 0.0
C858 C 0.15038 0.29888 0.81717 0.0
C859 C 0.13154 0.29954 0.8357 0.0
C860 C 0.16579 0.27702 0.81619 0.0
C861 C 0.16665 0.19951 0.84139 0.0
H862 H 0.2568 0.23779 0.80912 0.0
C863 C 0.24706 0.12345 0.83339 0.0
C864 C 0.2717 0.13224 0.81624 0.0
C865 C 0.22731 0.14127 0.8359 0.0
C866 C 0.23123 0.22615 0.81775 0.0
H867 H 0.11277 0.27674 0.86751 0.0
H868 H 0.14113 0.23864 0.86612 0.0
H869 H 0.22916 0.2746 0.81502 0.0
H870 H 0.29174 0.16278 0.78665 0.0
H871 H 0.25508 0.19203 0.78997 0.0
H872 H 0.16843 0.15091 0.84395 0.0
C873 C 0.14362 0.25513 0.85227 0.0
C874 C 0.21542 0.24751 0.8213 0.0
C875 C 0.12767 0.27708 0.85318 0.0
C876 C 0.27306 0.15581 0.80013 0.0
C877 C 0.25267 0.17319 0.80239 0.0
C878 C 0.1824 0.17798 0.83774 0.0
C879 C 0.16359 0.25558 0.83387 0.0
C880 C 0.18237 0.23412 0.83261 0.0
C881 C 0.23107 0.16765 0.82096 0.0
C882 C 0.21447 0.19068 0.82539 0.0
H883 H 0.1538 0.31572 0.80329 0.0
H884 H 0.17957 0.27711 0.80143 0.0
H885 H 0.14125 0.18833 0.85019 0.0
H886 H 0.24516 0.10477 0.84583 0.0
H887 H 0.21113 0.13589 0.85039 0.0
loop_
_geom_bond_atom_site_label_1
_geom_bond_atom_site_label_2
_geom_bond_distance
_geom_bond_site_symmetry_2
_ccdc_geom_bond_type
C0 O1 1.306 . S
C0 O3 1.160 . S
O1 C0 1.306 . S
O1 Cd2 2.228 . S
Cd2 O1 2.228 . S
Cd2 O6 2.273 . S
Cd2 O10 2.277 . S
O3 C0 1.160 . S
O3 Cd4 2.203 . S
Cd4 O3 2.203 . S
Cd4 O6 2.411 . S
Cd4 O7 2.333 . S
Cd4 O8 2.352 . S
Cd4 O12 2.277 . S
Cd4 O13 2.356 . S
C5 O10 1.209 . S
C5 O12 1.226 . S
O6 Cd2 2.273 . S
O6 Cd4 2.411 . S
O6 C9 1.320 . S
O7 Cd4 2.333 . S
O7 C9 1.214 . S
O8 Cd4 2.352 . S
O8 C11 1.258 . S
C9 O6 1.320 . S
C9 O7 1.214 . S
O10 Cd2 2.277 . S
O10 C5 1.209 . S
C11 O8 1.258 . S
C11 O13 1.282 . S
O12 Cd4 2.277 . S
O12 C5 1.226 . S
O13 Cd4 2.356 . S
O13 C11 1.282 . S
C14 O15 1.306 . S
C14 O17 1.160 . S
O15 C14 1.306 . S
O15 Cd16 2.228 . S
Cd16 O15 2.228 . S
Cd16 O20 2.273 . S
Cd16 O24 2.277 . S
O17 C14 1.160 . S
O17 Cd18 2.203 . S
Cd18 O17 2.203 . S
Cd18 O20 2.411 . S
Cd18 O21 2.333 . S
Cd18 O22 2.352 . S
Cd18 O26 2.277 . S
Cd18 O27 2.356 . S
C19 O24 1.209 . S
C19 O26 1.226 . S
O20 Cd16 2.273 . S
O20 Cd18 2.411 . S
O20 C23 1.320 . S
O21 Cd18 2.333 . S
O21 C23 1.214 . S
O22 Cd18 2.352 . S
O22 C25 1.258 . S
C23 O20 1.320 . S
C23 O21 1.214 . S
O24 Cd16 2.277 . S
O24 C19 1.209 . S
C25 O22 1.258 . S
C25 O27 1.282 . S
O26 Cd18 2.277 . S
O26 C19 1.226 . S
O27 Cd18 2.356 . S
O27 C25 1.282 . S
C28 O29 1.306 . S
C28 O31 1.160 . S
O29 C28 1.306 . S
O29 Cd30 2.228 . S
Cd30 O29 2.228 . S
Cd30 O34 2.273 . S
Cd30 O38 2.277 . S
O31 C28 1.160 . S
O31 Cd32 2.203 . S
Cd32 O31 2.203 . S
Cd32 O34 2.411 . S
Cd32 O35 2.333 . S
Cd32 O36 2.352 . S
Cd32 O40 2.277 . S
Cd32 O41 2.356 . S
C33 O38 1.209 . S
C33 O40 1.226 . S
O34 Cd30 2.273 . S
O34 Cd32 2.411 . S
O34 C37 1.320 . S
O35 Cd32 2.333 . S
O35 C37 1.214 . S
O36 Cd32 2.352 . S
O36 C39 1.258 . S
C37 O34 1.320 . S
C37 O35 1.214 . S
O38 Cd30 2.277 . S
O38 C33 1.209 . S
C39 O36 1.258 . S
C39 O41 1.282 . S
O40 Cd32 2.277 . S
O40 C33 1.226 . S
O41 Cd32 2.356 . S
O41 C39 1.282 . S
C42 O43 1.306 . S
C42 O45 1.160 . S
O43 C42 1.306 . S
O43 Cd44 2.228 . S
Cd44 O43 2.228 . S
Cd44 O48 2.273 . S
Cd44 O52 2.277 . S
O45 C42 1.160 . S
O45 Cd46 2.203 . S
Cd46 O45 2.203 . S
Cd46 O48 2.411 . S
Cd46 O49 2.333 . S
Cd46 O50 2.352 . S
Cd46 O54 2.277 . S
Cd46 O55 2.356 . S
C47 O52 1.209 . S
C47 O54 1.226 . S
O48 Cd44 2.273 . S
O48 Cd46 2.411 . S
O48 C51 1.320 . S
O49 Cd46 2.333 . S
O49 C51 1.214 . S
O50 Cd46 2.352 . S
O50 C53 1.258 . S
C51 O48 1.320 . S
C51 O49 1.214 . S
O52 Cd44 2.277 . S
O52 C47 1.209 . S
C53 O50 1.258 . S
C53 O55 1.282 . S
O54 Cd46 2.277 . S
O54 C47 1.226 . S
O55 Cd46 2.356 . S
O55 C53 1.282 . S
C56 O57 1.306 . S
C56 O59 1.160 . S
O57 C56 1.306 . S
O57 Cd58 2.228 . S
Cd58 O57 2.228 . S
Cd58 O62 2.273 . S
Cd58 O66 2.277 . S
O59 C56 1.160 . S
O59 Cd60 2.203 . S
Cd60 O59 2.203 . S
Cd60 O62 2.411 . S
Cd60 O63 2.333 . S
Cd60 O64 2.352 . S
Cd60 O68 2.277 . S
Cd60 O69 2.356 . S
C61 O66 1.209 . S
C61 O68 1.226 . S
O62 Cd58 2.273 . S
O62 Cd60 2.411 . S
O62 C65 1.320 . S
O63 Cd60 2.333 . S
O63 C65 1.214 . S
O64 Cd60 2.352 . S
O64 C67 1.258 . S
C65 O62 1.320 . S
C65 O63 1.214 . S
O66 Cd58 2.277 . S
O66 C61 1.209 . S
C67 O64 1.258 . S
C67 O69 1.282 . S
O68 Cd60 2.277 . S
O68 C61 1.226 . S
O69 Cd60 2.356 . S
O69 C67 1.282 . S
C70 O71 1.306 . S
C70 O73 1.160 . S
O71 C70 1.306 . S
O71 Cd72 2.228 . S
Cd72 O71 2.228 . S
Cd72 O76 2.273 . S
Cd72 O80 2.277 . S
O73 C70 1.160 . S
O73 Cd74 2.203 . S
Cd74 O73 2.203 . S
Cd74 O76 2.411 . S
Cd74 O77 2.333 . S
Cd74 O78 2.352 . S
Cd74 O82 2.277 . S
Cd74 O83 2.356 . S
C75 O80 1.209 . S
C75 O82 1.226 . S
O76 Cd72 2.273 . S
O76 Cd74 2.411 . S
O76 C79 1.320 . S
O77 Cd74 2.333 . S
O77 C79 1.214 . S
O78 Cd74 2.352 . S
O78 C81 1.258 . S
C79 O76 1.320 . S
C79 O77 1.214 . S
O80 Cd72 2.277 . S
O80 C75 1.209 . S
C81 O78 1.258 . S
C81 O83 1.282 . S
O82 Cd74 2.277 . S
O82 C75 1.226 . S
O83 Cd74 2.356 . S
O83 C81 1.282 . S
C84 O85 1.306 . S
C84 O87 1.160 . S
O85 C84 1.306 . S
O85 Cd86 2.228 . S
Cd86 O85 2.228 . S
Cd86 O90 2.273 . S
Cd86 O94 2.277 . S
O87 C84 1.160 . S
O87 Cd88 2.203 . S
Cd88 O87 2.203 . S
Cd88 O90 2.411 . S
Cd88 O91 2.333 . S
Cd88 O92 2.352 . S
Cd88 O96 2.277 . S
Cd88 O97 2.356 . S
C89 O94 1.209 . S
C89 O96 1.226 . S
O90 Cd86 2.273 . S
O90 Cd88 2.411 . S
O90 C93 1.320 . S
O91 Cd88 2.333 . S
O91 C93 1.214 . S
O92 Cd88 2.352 . S
O92 C95 1.258 . S
C93 O90 1.320 . S
C93 O91 1.214 . S
O94 Cd86 2.277 . S
O94 C89 1.209 . S
C95 O92 1.258 . S
C95 O97 1.282 . S
O96 Cd88 2.277 . S
O96 C89 1.226 . S
O97 Cd88 2.356 . S
O97 C95 1.282 . S
C98 O99 1.306 . S
C98 O101 1.160 . S
O99 C98 1.306 . S
O99 Cd100 2.228 . S
Cd100 O99 2.228 . S
Cd100 O104 2.273 . S
Cd100 O108 2.277 . S
O101 C98 1.160 . S
O101 Cd102 2.203 . S
Cd102 O101 2.203 . S
Cd102 O104 2.411 . S
Cd102 O105 2.333 . S
Cd102 O106 2.352 . S
Cd102 O110 2.277 . S
Cd102 O111 2.356 . S
C103 O108 1.209 . S
C103 O110 1.226 . S
O104 Cd100 2.273 . S
O104 Cd102 2.411 . S
O104 C107 1.320 . S
O105 Cd102 2.333 . S
O105 C107 1.214 . S
O106 Cd102 2.352 . S
O106 C109 1.258 . S
C107 O104 1.320 . S
C107 O105 1.214 . S
O108 Cd100 2.277 . S
O108 C103 1.209 . S
C109 O106 1.258 . S
C109 O111 1.282 . S
O110 Cd102 2.277 . S
O110 C103 1.226 . S
O111 Cd102 2.356 . S
O111 C109 1.282 . S
C112 O113 1.306 . S
C112 O115 1.160 . S
O113 C112 1.306 . S
O113 Cd114 2.228 . S
Cd114 O113 2.228 . S
Cd114 O118 2.273 . S
Cd114 O122 2.277 . S
O115 C112 1.160 . S
O115 Cd116 2.203 . S
Cd116 O115 2.203 . S
Cd116 O118 2.411 . S
Cd116 O119 2.333 . S
Cd116 O120 2.352 . S
Cd116 O124 2.277 . S
Cd116 O125 2.356 . S
C117 O122 1.209 . S
C117 O124 1.226 . S
O118 Cd114 2.273 . S
O118 Cd116 2.411 . S
O118 C121 1.320 . S
O119 Cd116 2.333 . S
O119 C121 1.214 . S
O120 Cd116 2.352 . S
O120 C123 1.258 . S
C121 O118 1.320 . S
C121 O119 1.214 . S
O122 Cd114 2.277 . S
O122 C117 1.209 . S
C123 O120 1.258 . S
C123 O125 1.282 . S
O124 Cd116 2.277 . S
O124 C117 1.226 . S
O125 Cd116 2.356 . S
O125 C123 1.282 . S
C126 O127 1.306 . S
C126 O129 1.160 . S
O127 C126 1.306 . S
O127 Cd128 2.228 . S
Cd128 O127 2.228 . S
Cd128 O132 2.273 . S
Cd128 O136 2.277 . S
O129 C126 1.160 . S
O129 Cd130 2.203 . S
Cd130 O129 2.203 . S
Cd130 O132 2.411 . S
Cd130 O133 2.333 . S
Cd130 O134 2.352 . S
Cd130 O138 2.277 . S
Cd130 O139 2.356 . S
C131 O136 1.209 . S
C131 O138 1.226 . S
O132 Cd128 2.273 . S
O132 Cd130 2.411 . S
O132 C135 1.320 . S
O133 Cd130 2.333 . S
O133 C135 1.214 . S
O134 Cd130 2.352 . S
O134 C137 1.258 . S
C135 O132 1.320 . S
C135 O133 1.214 . S
O136 Cd128 2.277 . S
O136 C131 1.209 . S
C137 O134 1.258 . S
C137 O139 1.282 . S
O138 Cd130 2.277 . S
O138 C131 1.226 . S
O139 Cd130 2.356 . S
O139 C137 1.282 . S
C140 O141 1.306 . S
C140 O143 1.160 . S
O141 C140 1.306 . S
O141 Cd142 2.228 . S
Cd142 O141 2.228 . S
Cd142 O146 2.273 . S
Cd142 O150 2.277 . S
O143 C140 1.160 . S
O143 Cd144 2.203 . S
Cd144 O143 2.203 . S
Cd144 O146 2.411 . S
Cd144 O147 2.333 . S
Cd144 O148 2.352 . S
Cd144 O152 2.277 . S
Cd144 O153 2.356 . S
C145 O150 1.209 . S
C145 O152 1.226 . S
O146 Cd142 2.273 . S
O146 Cd144 2.411 . S
O146 C149 1.320 . S
O147 Cd144 2.333 . S
O147 C149 1.214 . S
O148 Cd144 2.352 . S
O148 C151 1.258 . S
C149 O146 1.320 . S
C149 O147 1.214 . S
O150 Cd142 2.277 . S
O150 C145 1.209 . S
C151 O148 1.258 . S
C151 O153 1.282 . S
O152 Cd144 2.277 . S
O152 C145 1.226 . S
O153 Cd144 2.356 . S
O153 C151 1.282 . S
C154 O155 1.306 . S
C154 O157 1.160 . S
O155 C154 1.306 . S
O155 Cd156 2.228 . S
Cd156 O155 2.228 . S
Cd156 O160 2.273 . S
Cd156 O164 2.277 . S
O157 C154 1.160 . S
O157 Cd158 2.203 . S
Cd158 O157 2.203 . S
Cd158 O160 2.411 . S
Cd158 O161 2.333 . S
Cd158 O162 2.352 . S
Cd158 O166 2.277 . S
Cd158 O167 2.356 . S
C159 O164 1.209 . S
C159 O166 1.226 . S
O160 Cd156 2.273 . S
O160 Cd158 2.411 . S
O160 C163 1.320 . S
O161 Cd158 2.333 . S
O161 C163 1.214 . S
O162 Cd158 2.352 . S
O162 C165 1.258 . S
C163 O160 1.320 . S
C163 O161 1.214 . S
O164 Cd156 2.277 . S
O164 C159 1.209 . S
C165 O162 1.258 . S
C165 O167 1.282 . S
O166 Cd158 2.277 . S
O166 C159 1.226 . S
O167 Cd158 2.356 . S
O167 C165 1.282 . S
C168 C169 1.349 . S
C168 C170 1.327 . S
C168 H193 0.950 . S
C169 C168 1.349 . S
C169 C185 1.349 . S
C170 C168 1.327 . S
C170 C189 1.429 . S
C170 H194 0.950 . S
C171 C188 1.574 . S
C171 C190 1.368 . S
C171 H195 0.949 . S
H172 C176 0.949 . S
C173 C174 1.349 . S
C173 C175 1.327 . S
C173 H196 0.950 . S
C174 C173 1.349 . S
C174 C186 1.349 . S
C175 C173 1.327 . S
C175 C191 1.429 . S
C175 H197 0.950 . S
C176 H172 0.949 . S
C176 C184 1.574 . S
C176 C192 1.368 . S
H177 C185 0.950 . S
H178 C183 0.950 . S
H179 C184 0.949 . S
H180 C186 0.950 . S
H181 C187 0.950 . S
H182 C188 0.949 . S
C183 H178 0.950 . S
C183 C185 1.327 . S
C183 C189 1.429 . S
C184 C176 1.574 . S
C184 H179 0.949 . S
C184 C190 1.368 . S
C185 C169 1.349 . S
C185 H177 0.950 . S
C185 C183 1.327 . S
C186 C174 1.349 . S
C186 H180 0.950 . S
C186 C187 1.327 . S
C187 H181 0.950 . S
C187 C186 1.327 . S
C187 C191 1.429 . S
C188 C171 1.574 . S
C188 H182 0.949 . S
C188 C192 1.368 . S
C189 C170 1.429 . S
C189 C183 1.429 . S
C189 C190 1.523 . S
C190 C171 1.368 . S
C190 C184 1.368 . S
C190 C189 1.523 . S
C191 C175 1.429 . S
C191 C187 1.429 . S
C191 C192 1.523 . S
C192 C176 1.368 . S
C192 C188 1.368 . S
C192 C191 1.523 . S
H193 C168 0.950 . S
H194 C170 0.950 . S
H195 C171 0.949 . S
H196 C173 0.950 . S
H197 C175 0.950 . S
C198 C199 1.349 . S
C198 C200 1.327 . S
C198 H223 0.950 . S
C199 C198 1.349 . S
C199 C215 1.349 . S
C200 C198 1.327 . S
C200 C219 1.429 . S
C200 H224 0.950 . S
C201 C218 1.574 . S
C201 C220 1.368 . S
C201 H225 0.949 . S
H202 C206 0.949 . S
C203 C204 1.349 . S
C203 C205 1.327 . S
C203 H226 0.950 . S
C204 C203 1.349 . S
C204 C216 1.349 . S
C205 C203 1.327 . S
C205 C221 1.429 . S
C205 H227 0.950 . S
C206 H202 0.949 . S
C206 C214 1.574 . S
C206 C222 1.368 . S
H207 C215 0.950 . S
H208 C213 0.950 . S
H209 C214 0.949 . S
H210 C216 0.950 . S
H211 C217 0.950 . S
H212 C218 0.949 . S
C213 H208 0.950 . S
C213 C215 1.327 . S
C213 C219 1.429 . S
C214 C206 1.574 . S
C214 H209 0.949 . S
C214 C220 1.368 . S
C215 C199 1.349 . S
C215 H207 0.950 . S
C215 C213 1.327 . S
C216 C204 1.349 . S
C216 H210 0.950 . S
C216 C217 1.327 . S
C217 H211 0.950 . S
C217 C216 1.327 . S
C217 C221 1.429 . S
C218 C201 1.574 . S
C218 H212 0.949 . S
C218 C222 1.368 . S
C219 C200 1.429 . S
C219 C213 1.429 . S
C219 C220 1.523 . S
C220 C201 1.368 . S
C220 C214 1.368 . S
C220 C219 1.523 . S
C221 C205 1.429 . S
C221 C217 1.429 . S
C221 C222 1.523 . S
C222 C206 1.368 . S
C222 C218 1.368 . S
C222 C221 1.523 . S
H223 C198 0.950 . S
H224 C200 0.950 . S
H225 C201 0.949 . S
H226 C203 0.950 . S
H227 C205 0.950 . S
C228 C229 1.349 . S
C228 C230 1.327 . S
C228 H253 0.950 . S
C229 C228 1.349 . S
C229 C245 1.349 . S
C230 C228 1.327 . S
C230 C249 1.429 . S
C230 H254 0.950 . S
C231 C248 1.574 . S
C231 C250 1.368 . S
C231 H255 0.949 . S
H232 C236 0.949 . S
C233 C234 1.349 . S
C233 C235 1.327 . S
C233 H256 0.950 . S
C234 C233 1.349 . S
C234 C246 1.349 . S
C235 C233 1.327 . S
C235 C251 1.429 . S
C235 H257 0.950 . S
C236 H232 0.949 . S
C236 C244 1.574 . S
C236 C252 1.368 . S
H237 C245 0.950 . S
H238 C243 0.950 . S
H239 C244 0.949 . S
H240 C246 0.950 . S
H241 C247 0.950 . S
H242 C248 0.949 . S
C243 H238 0.950 . S
C243 C245 1.327 . S
C243 C249 1.429 . S
C244 C236 1.574 . S
C244 H239 0.949 . S
C244 C250 1.368 . S
C245 C229 1.349 . S
C245 H237 0.950 . S
C245 C243 1.327 . S
C246 C234 1.349 . S
C246 H240 0.950 . S
C246 C247 1.327 . S
C247 H241 0.950 . S
C247 C246 1.327 . S
C247 C251 1.429 . S
C248 C231 1.574 . S
C248 H242 0.949 . S
C248 C252 1.368 . S
C249 C230 1.429 . S
C249 C243 1.429 . S
C249 C250 1.523 . S
C250 C231 1.368 . S
C250 C244 1.368 . S
C250 C249 1.523 . S
C251 C235 1.429 . S
C251 C247 1.429 . S
C251 C252 1.523 . S
C252 C236 1.368 . S
C252 C248 1.368 . S
C252 C251 1.523 . S
H253 C228 0.950 . S
H254 C230 0.950 . S
H255 C231 0.949 . S
H256 C233 0.950 . S
H257 C235 0.950 . S
C258 C259 1.349 . S
C258 C260 1.327 . S
C258 H283 0.950 . S
C259 C258 1.349 . S
C259 C275 1.349 . S
C260 C258 1.327 . S
C260 C279 1.429 . S
C260 H284 0.950 . S
C261 C278 1.574 . S
C261 C280 1.368 . S
C261 H285 0.949 . S
H262 C266 0.949 . S
C263 C264 1.349 . S
C263 C265 1.327 . S
C263 H286 0.950 . S
C264 C263 1.349 . S
C264 C276 1.349 . S
C265 C263 1.327 . S
C265 C281 1.429 . S
C265 H287 0.950 . S
C266 H262 0.949 . S
C266 C274 1.574 . S
C266 C282 1.368 . S
H267 C275 0.950 . S
H268 C273 0.950 . S
H269 C274 0.949 . S
H270 C276 0.950 . S
H271 C277 0.950 . S
H272 C278 0.949 . S
C273 H268 0.950 . S
C273 C275 1.327 . S
C273 C279 1.429 . S
C274 C266 1.574 . S
C274 H269 0.949 . S
C274 C280 1.368 . S
C275 C259 1.349 . S
C275 H267 0.950 . S
C275 C273 1.327 . S
C276 C264 1.349 . S
C276 H270 0.950 . S
C276 C277 1.327 . S
C277 H271 0.950 . S
C277 C276 1.327 . S
C277 C281 1.429 . S
C278 C261 1.574 . S
C278 H272 0.949 . S
C278 C282 1.368 . S
C279 C260 1.429 . S
C279 C273 1.429 . S
C279 C280 1.523 . S
C280 C261 1.368 . S
C280 C274 1.368 . S
C280 C279 1.523 . S
C281 C265 1.429 . S
C281 C277 1.429 . S
C281 C282 1.523 . S
C282 C266 1.368 . S
C282 C278 1.368 . S
C282 C281 1.523 . S
H283 C258 0.950 . S
H284 C260 0.950 . S
H285 C261 0.949 . S
H286 C263 0.950 . S
H287 C265 0.950 . S
C288 C289 1.349 . S
C288 C290 1.327 . S
C288 H313 0.950 . S
C289 C288 1.349 . S
C289 C305 1.349 . S
C290 C288 1.327 . S
C290 C309 1.429 . S
C290 H314 0.950 . S
C291 C308 1.574 . S
C291 C310 1.368 . S
C291 H315 0.949 . S
H292 C296 0.949 . S
C293 C294 1.349 . S
C293 C295 1.327 . S
C293 H316 0.950 . S
C294 C293 1.349 . S
C294 C306 1.349 . S
C295 C293 1.327 . S
C295 C311 1.429 . S
C295 H317 0.950 . S
C296 H292 0.949 . S
C296 C304 1.574 . S
C296 C312 1.368 . S
H297 C305 0.950 . S
H298 C303 0.950 . S
H299 C304 0.949 . S
H300 C306 0.950 . S
H301 C307 0.950 . S
H302 C308 0.949 . S
C303 H298 0.950 . S
C303 C305 1.327 . S
C303 C309 1.429 . S
C304 C296 1.574 . S
C304 H299 0.949 . S
C304 C310 1.368 . S
C305 C289 1.349 . S
C305 H297 0.950 . S
C305 C303 1.327 . S
C306 C294 1.349 . S
C306 H300 0.950 . S
C306 C307 1.327 . S
C307 H301 0.950 . S
C307 C306 1.327 . S
C307 C311 1.429 . S
C308 C291 1.574 . S
C308 H302 0.949 . S
C308 C312 1.368 . S
C309 C290 1.429 . S
C309 C303 1.429 . S
C309 C310 1.523 . S
C310 C291 1.368 . S
C310 C304 1.368 . S
C310 C309 1.523 . S
C311 C295 1.429 . S
C311 C307 1.429 . S
C311 C312 1.523 . S
C312 C296 1.368 . S
C312 C308 1.368 . S
C312 C311 1.523 . S
H313 C288 0.950 . S
H314 C290 0.950 . S
H315 C291 0.949 . S
H316 C293 0.950 . S
H317 C295 0.950 . S
C318 C319 1.349 . S
C318 C320 1.327 . S
C318 H343 0.950 . S
C319 C318 1.349 . S
C319 C335 1.349 . S
C320 C318 1.327 . S
C320 C339 1.429 . S
C320 H344 0.950 . S
C321 C338 1.574 . S
C321 C340 1.368 . S
C321 H345 0.949 . S
H322 C326 0.949 . S
C323 C324 1.349 . S
C323 C325 1.327 . S
C323 H346 0.950 . S
C324 C323 1.349 . S
C324 C336 1.349 . S
C325 C323 1.327 . S
C325 C341 1.429 . S
C325 H347 0.950 . S
C326 H322 0.949 . S
C326 C334 1.574 . S
C326 C342 1.368 . S
H327 C335 0.950 . S
H328 C333 0.950 . S
H329 C334 0.949 . S
H330 C336 0.950 . S
H331 C337 0.950 . S
H332 C338 0.949 . S
C333 H328 0.950 . S
C333 C335 1.327 . S
C333 C339 1.429 . S
C334 C326 1.574 . S
C334 H329 0.949 . S
C334 C340 1.368 . S
C335 C319 1.349 . S
C335 H327 0.950 . S
C335 C333 1.327 . S
C336 C324 1.349 . S
C336 H330 0.950 . S
C336 C337 1.327 . S
C337 H331 0.950 . S
C337 C336 1.327 . S
C337 C341 1.429 . S
C338 C321 1.574 . S
C338 H332 0.949 . S
C338 C342 1.368 . S
C339 C320 1.429 . S
C339 C333 1.429 . S
C339 C340 1.523 . S
C340 C321 1.368 . S
C340 C334 1.368 . S
C340 C339 1.523 . S
C341 C325 1.429 . S
C341 C337 1.429 . S
C341 C342 1.523 . S
C342 C326 1.368 . S
C342 C338 1.368 . S
C342 C341 1.523 . S
H343 C318 0.950 . S
H344 C320 0.950 . S
H345 C321 0.949 . S
H346 C323 0.950 . S
H347 C325 0.950 . S
C348 C349 1.349 . S
C348 C350 1.327 . S
C348 H373 0.950 . S
C349 C348 1.349 . S
C349 C365 1.349 . S
C350 C348 1.327 . S
C350 C369 1.429 . S
C350 H374 0.950 . S
C351 C368 1.574 . S
C351 C370 1.368 . S
C351 H375 0.949 . S
H352 C356 0.949 . S
C353 C354 1.349 . S
C353 C355 1.327 . S
C353 H376 0.950 . S
C354 C353 1.349 . S
C354 C366 1.349 . S
C355 C353 1.327 . S
C355 C371 1.429 . S
C355 H377 0.950 . S
C356 H352 0.949 . S
C356 C364 1.574 . S
C356 C372 1.368 . S
H357 C365 0.950 . S
H358 C363 0.950 . S
H359 C364 0.949 . S
H360 C366 0.950 . S
H361 C367 0.950 . S
H362 C368 0.949 . S
C363 H358 0.950 . S
C363 C365 1.327 . S
C363 C369 1.429 . S
C364 C356 1.574 . S
C364 H359 0.949 . S
C364 C370 1.368 . S
C365 C349 1.349 . S
C365 H357 0.950 . S
C365 C363 1.327 . S
C366 C354 1.349 . S
C366 H360 0.950 . S
C366 C367 1.327 . S
C367 H361 0.950 . S
C367 C366 1.327 . S
C367 C371 1.429 . S
C368 C351 1.574 . S
C368 H362 0.949 . S
C368 C372 1.368 . S
C369 C350 1.429 . S
C369 C363 1.429 . S
C369 C370 1.523 . S
C370 C351 1.368 . S
C370 C364 1.368 . S
C370 C369 1.523 . S
C371 C355 1.429 . S
C371 C367 1.429 . S
C371 C372 1.523 . S
C372 C356 1.368 . S
C372 C368 1.368 . S
C372 C371 1.523 . S
H373 C348 0.950 . S
H374 C350 0.950 . S
H375 C351 0.949 . S
H376 C353 0.950 . S
H377 C355 0.950 . S
C378 C379 1.349 . S
C378 C380 1.327 . S
C378 H403 0.950 . S
C379 C378 1.349 . S
C379 C395 1.349 . S
C380 C378 1.327 . S
C380 C399 1.429 . S
C380 H404 0.950 . S
C381 C398 1.574 . S
C381 C400 1.368 1_655 S
C381 H405 0.949 . S
H382 C386 0.949 . S
C383 C384 1.349 . S
C383 C385 1.327 . S
C383 H406 0.950 . S
C384 C383 1.349 . S
C384 C396 1.349 . S
C385 C383 1.327 . S
C385 C401 1.429 . S
C385 H407 0.950 . S
C386 H382 0.949 . S
C386 C394 1.574 . S
C386 C402 1.368 1_455 S
H387 C395 0.950 . S
H388 C393 0.950 . S
H389 C394 0.949 . S
H390 C396 0.950 . S
H391 C397 0.950 . S
H392 C398 0.949 . S
C393 H388 0.950 . S
C393 C395 1.327 . S
C393 C399 1.429 . S
C394 C386 1.574 . S
C394 H389 0.949 . S
C394 C400 1.368 . S
C395 C379 1.349 . S
C395 H387 0.950 . S
C395 C393 1.327 . S
C396 C384 1.349 . S
C396 H390 0.950 . S
C396 C397 1.327 . S
C397 H391 0.950 . S
C397 C396 1.327 . S
C397 C401 1.429 . S
C398 C381 1.574 . S
C398 H392 0.949 . S
C398 C402 1.368 . S
C399 C380 1.429 . S
C399 C393 1.429 . S
C399 C400 1.523 . S
C400 C381 1.368 1_455 S
C400 C394 1.368 . S
C400 C399 1.523 . S
C401 C385 1.429 . S
C401 C397 1.429 . S
C401 C402 1.523 . S
C402 C386 1.368 1_655 S
C402 C398 1.368 . S
C402 C401 1.523 . S
H403 C378 0.950 . S
H404 C380 0.950 . S
H405 C381 0.949 . S
H406 C383 0.950 . S
H407 C385 0.950 . S
C408 C409 1.349 . S
C408 C410 1.327 . S
C408 H433 0.950 . S
C409 C408 1.349 . S
C409 C425 1.349 . S
C410 C408 1.327 . S
C410 C429 1.429 . S
C410 H434 0.950 . S
C411 C428 1.574 . S
C411 C430 1.368 . S
C411 H435 0.949 . S
H412 C416 0.949 . S
C413 C414 1.349 . S
C413 C415 1.327 . S
C413 H436 0.950 . S
C414 C413 1.349 . S
C414 C426 1.349 . S
C415 C413 1.327 . S
C415 C431 1.429 . S
C415 H437 0.950 . S
C416 H412 0.949 . S
C416 C424 1.574 . S
C416 C432 1.368 . S
H417 C425 0.950 . S
H418 C423 0.950 . S
H419 C424 0.949 . S
H420 C426 0.950 . S
H421 C427 0.950 . S
H422 C428 0.949 . S
C423 H418 0.950 . S
C423 C425 1.327 . S
C423 C429 1.429 . S
C424 C416 1.574 . S
C424 H419 0.949 . S
C424 C430 1.368 1_565 S
C425 C409 1.349 . S
C425 H417 0.950 . S
C425 C423 1.327 . S
C426 C414 1.349 . S
C426 H420 0.950 . S
C426 C427 1.327 . S
C427 H421 0.950 . S
C427 C426 1.327 . S
C427 C431 1.429 . S
C428 C411 1.574 . S
C428 H422 0.949 . S
C428 C432 1.368 1_545 S
C429 C410 1.429 . S
C429 C423 1.429 . S
C429 C430 1.523 . S
C430 C411 1.368 . S
C430 C424 1.368 1_545 S
C430 C429 1.523 . S
C431 C415 1.429 . S
C431 C427 1.429 . S
C431 C432 1.523 . S
C432 C416 1.368 . S
C432 C428 1.368 1_565 S
C432 C431 1.523 . S
H433 C408 0.950 . S
H434 C410 0.950 . S
H435 C411 0.949 . S
H436 C413 0.950 . S
H437 C415 0.950 . S
C438 C439 1.349 . S
C438 C440 1.327 . S
C438 H463 0.950 . S
C439 C438 1.349 . S
C439 C455 1.349 . S
C440 C438 1.327 . S
C440 C459 1.429 . S
C440 H464 0.950 . S
C441 C458 1.574 . S
C441 C460 1.368 . S
C441 H465 0.949 . S
H442 C446 0.949 . S
C443 C444 1.349 . S
C443 C445 1.327 . S
C443 H466 0.950 . S
C444 C443 1.349 . S
C444 C456 1.349 . S
C445 C443 1.327 . S
C445 C461 1.429 . S
C445 H467 0.950 . S
C446 H442 0.949 . S
C446 C454 1.574 . S
C446 C462 1.368 . S
H447 C455 0.950 . S
H448 C453 0.950 . S
H449 C454 0.949 . S
H450 C456 0.950 . S
H451 C457 0.950 . S
H452 C458 0.949 . S
C453 H448 0.950 . S
C453 C455 1.327 . S
C453 C459 1.429 . S
C454 C446 1.574 . S
C454 H449 0.949 . S
C454 C460 1.368 . S
C455 C439 1.349 . S
C455 H447 0.950 . S
C455 C453 1.327 . S
C456 C444 1.349 . S
C456 H450 0.950 . S
C456 C457 1.327 . S
C457 H451 0.950 . S
C457 C456 1.327 . S
C457 C461 1.429 . S
C458 C441 1.574 . S
C458 H452 0.949 . S
C458 C462 1.368 . S
C459 C440 1.429 . S
C459 C453 1.429 . S
C459 C460 1.523 . S
C460 C441 1.368 . S
C460 C454 1.368 . S
C460 C459 1.523 . S
C461 C445 1.429 . S
C461 C457 1.429 . S
C461 C462 1.523 . S
C462 C446 1.368 . S
C462 C458 1.368 . S
C462 C461 1.523 . S
H463 C438 0.950 . S
H464 C440 0.950 . S
H465 C441 0.949 . S
H466 C443 0.950 . S
H467 C445 0.950 . S
C468 C469 1.349 . S
C468 C470 1.327 . S
C468 H493 0.950 . S
C469 C468 1.349 . S
C469 C485 1.349 . S
C470 C468 1.327 . S
C470 C489 1.429 . S
C470 H494 0.950 . S
C471 C488 1.574 . S
C471 C490 1.368 1_455 S
C471 H495 0.949 . S
H472 C476 0.949 . S
C473 C474 1.349 . S
C473 C475 1.327 . S
C473 H496 0.950 . S
C474 C473 1.349 . S
C474 C486 1.349 . S
C475 C473 1.327 . S
C475 C491 1.429 . S
C475 H497 0.950 . S
C476 H472 0.949 . S
C476 C484 1.574 . S
C476 C492 1.368 1_655 S
H477 C485 0.950 . S
H478 C483 0.950 . S
H479 C484 0.949 . S
H480 C486 0.950 . S
H481 C487 0.950 . S
H482 C488 0.949 . S
C483 H478 0.950 . S
C483 C485 1.327 . S
C483 C489 1.429 . S
C484 C476 1.574 . S
C484 H479 0.949 . S
C484 C490 1.368 . S
C485 C469 1.349 . S
C485 H477 0.950 . S
C485 C483 1.327 . S
C486 C474 1.349 . S
C486 H480 0.950 . S
C486 C487 1.327 . S
C487 H481 0.950 . S
C487 C486 1.327 . S
C487 C491 1.429 . S
C488 C471 1.574 . S
C488 H482 0.949 . S
C488 C492 1.368 . S
C489 C470 1.429 . S
C489 C483 1.429 . S
C489 C490 1.523 . S
C490 C471 1.368 1_655 S
C490 C484 1.368 . S
C490 C489 1.523 . S
C491 C475 1.429 . S
C491 C487 1.429 . S
C491 C492 1.523 . S
C492 C476 1.368 1_455 S
C492 C488 1.368 . S
C492 C491 1.523 . S
H493 C468 0.950 . S
H494 C470 0.950 . S
H495 C471 0.949 . S
H496 C473 0.950 . S
H497 C475 0.950 . S
C498 C499 1.349 . S
C498 C500 1.327 . S
C498 H523 0.950 . S
C499 C498 1.349 . S
C499 C515 1.349 . S
C500 C498 1.327 . S
C500 C519 1.429 . S
C500 H524 0.950 . S
C501 C518 1.574 . S
C501 C520 1.368 1_545 S
C501 H525 0.949 . S
H502 C506 0.949 . S
C503 C504 1.349 . S
C503 C505 1.327 . S
C503 H526 0.950 . S
C504 C503 1.349 . S
C504 C516 1.349 . S
C505 C503 1.327 . S
C505 C521 1.429 . S
C505 H527 0.950 . S
C506 H502 0.949 . S
C506 C514 1.574 . S
C506 C522 1.368 1_565 S
H507 C515 0.950 . S
H508 C513 0.950 . S
H509 C514 0.949 . S
H510 C516 0.950 . S
H511 C517 0.950 . S
H512 C518 0.949 . S
C513 H508 0.950 . S
C513 C515 1.327 . S
C513 C519 1.429 . S
C514 C506 1.574 . S
C514 H509 0.949 . S
C514 C520 1.368 . S
C515 C499 1.349 . S
C515 H507 0.950 . S
C515 C513 1.327 . S
C516 C504 1.349 . S
C516 H510 0.950 . S
C516 C517 1.327 . S
C517 H511 0.950 . S
C517 C516 1.327 . S
C517 C521 1.429 . S
C518 C501 1.574 . S
C518 H512 0.949 . S
C518 C522 1.368 . S
C519 C500 1.429 . S
C519 C513 1.429 . S
C519 C520 1.523 . S
C520 C501 1.368 1_565 S
C520 C514 1.368 . S
C520 C519 1.523 . S
C521 C505 1.429 . S
C521 C517 1.429 . S
C521 C522 1.523 . S
C522 C506 1.368 1_545 S
C522 C518 1.368 . S
C522 C521 1.523 . S
H523 C498 0.950 . S
H524 C500 0.950 . S
H525 C501 0.949 . S
H526 C503 0.950 . S
H527 C505 0.950 . S
C528 C529 1.349 . S
C528 C530 1.327 . S
C528 H553 0.950 . S
C529 C528 1.349 . S
C529 C545 1.349 . S
C530 C528 1.327 . S
C530 C549 1.429 . S
C530 H554 0.950 . S
C531 C548 1.574 . S
C531 C550 1.368 . S
C531 H555 0.949 . S
H532 C536 0.949 . S
C533 C534 1.349 . S
C533 C535 1.327 . S
C533 H556 0.950 . S
C534 C533 1.349 . S
C534 C546 1.349 . S
C535 C533 1.327 . S
C535 C551 1.429 . S
C535 H557 0.950 . S
C536 H532 0.949 . S
C536 C544 1.574 . S
C536 C552 1.368 . S
H537 C545 0.950 . S
H538 C543 0.950 . S
H539 C544 0.949 . S
H540 C546 0.950 . S
H541 C547 0.950 . S
H542 C548 0.949 . S
C543 H538 0.950 . S
C543 C545 1.327 . S
C543 C549 1.429 . S
C544 C536 1.574 . S
C544 H539 0.949 . S
C544 C550 1.368 . S
C545 C529 1.349 . S
C545 H537 0.950 . S
C545 C543 1.327 . S
C546 C534 1.349 . S
C546 H540 0.950 . S
C546 C547 1.327 . S
C547 H541 0.950 . S
C547 C546 1.327 . S
C547 C551 1.429 . S
C548 C531 1.574 . S
C548 H542 0.949 . S
C548 C552 1.368 . S
C549 C530 1.429 . S
C549 C543 1.429 . S
C549 C550 1.523 . S
C550 C531 1.368 . S
C550 C544 1.368 . S
C550 C549 1.523 . S
C551 C535 1.429 . S
C551 C547 1.429 . S
C551 C552 1.523 . S
C552 C536 1.368 . S
C552 C548 1.368 . S
C552 C551 1.523 . S
H553 C528 0.950 . S
H554 C530 0.950 . S
H555 C531 0.949 . S
H556 C533 0.950 . S
H557 C535 0.950 . S
C558 C559 1.349 . S
C558 C560 1.327 . S
C558 H583 0.950 . S
C559 C558 1.349 . S
C559 C575 1.349 . S
C560 C558 1.327 . S
C560 C579 1.429 . S
C560 H584 0.950 . S
C561 C578 1.574 . S
C561 C580 1.368 1_455 S
C561 H585 0.947 1_455 S
H562 C566 0.947 1_455 S
C563 C564 1.349 . S
C563 C565 1.327 . S
C563 H586 0.950 . S
C564 C563 1.349 . S
C564 C576 1.349 . S
C565 C563 1.327 . S
C565 C581 1.429 . S
C565 H587 0.950 . S
C566 H562 0.947 1_655 S
C566 C574 1.572 . S
C566 C582 1.368 1_655 S
H567 C575 0.950 . S
H568 C573 0.950 . S
H569 C574 0.949 . S
H570 C576 0.950 . S
H571 C577 0.950 . S
H572 C578 0.949 . S
C573 H568 0.950 . S
C573 C575 1.327 . S
C573 C579 1.429 . S
C574 C566 1.572 . S
C574 H569 0.949 . S
C574 C580 1.368 . S
C575 C559 1.349 . S
C575 H567 0.950 . S
C575 C573 1.327 . S
C576 C564 1.349 . S
C576 H570 0.950 . S
C576 C577 1.327 . S
C577 H571 0.950 . S
C577 C576 1.327 . S
C577 C581 1.429 . S
C578 C561 1.574 . S
C578 H572 0.949 . S
C578 C582 1.368 . S
C579 C560 1.429 . S
C579 C573 1.429 . S
C579 C580 1.523 . S
C580 C561 1.368 1_655 S
C580 C574 1.368 . S
C580 C579 1.523 . S
C581 C565 1.429 . S
C581 C577 1.429 . S
C581 C582 1.523 . S
C582 C566 1.368 1_455 S
C582 C578 1.368 . S
C582 C581 1.523 . S
H583 C558 0.950 . S
H584 C560 0.950 . S
H585 C561 0.947 1_655 S
H586 C563 0.950 . S
H587 C565 0.950 . S
C588 C589 1.349 . S
C588 C590 1.327 . S
C588 H613 0.950 . S
C589 C588 1.349 . S
C589 C605 1.349 . S
C590 C588 1.327 . S
C590 C609 1.429 . S
C590 H614 0.950 1_565 S
C591 C608 1.574 1_556 S
C591 C610 1.368 . S
C591 H615 0.949 . S
H592 C596 0.949 . S
C593 C594 1.349 . S
C593 C595 1.327 . S
C593 H616 0.950 . S
C594 C593 1.349 . S
C594 C606 1.349 . S
C595 C593 1.327 . S
C595 C611 1.429 . S
C595 H617 0.950 1_545 S
C596 H592 0.949 . S
C596 C604 1.574 1_554 S
C596 C612 1.368 . S
H597 C605 0.950 . S
H598 C603 0.950 . S
H599 C604 0.949 . S
H600 C606 0.950 . S
H601 C607 0.950 . S
H602 C608 0.949 . S
C603 H598 0.950 . S
C603 C605 1.327 . S
C603 C609 1.429 . S
C604 C596 1.574 1_556 S
C604 H599 0.949 . S
C604 C610 1.368 1_545 S
C605 C589 1.349 . S
C605 H597 0.950 . S
C605 C603 1.327 . S
C606 C594 1.349 . S
C606 H600 0.950 . S
C606 C607 1.327 . S
C607 H601 0.950 . S
C607 C606 1.327 . S
C607 C611 1.429 . S
C608 C591 1.574 1_554 S
C608 H602 0.949 . S
C608 C612 1.368 1_565 S
C609 C590 1.429 . S
C609 C603 1.429 . S
C609 C610 1.523 . S
C610 C591 1.368 . S
C610 C604 1.368 1_565 S
C610 C609 1.523 . S
C611 C595 1.429 . S
C611 C607 1.429 . S
C611 C612 1.523 . S
C612 C596 1.368 . S
C612 C608 1.368 1_545 S
C612 C611 1.523 . S
H613 C588 0.950 . S
H614 C590 0.950 1_545 S
H615 C591 0.949 . S
H616 C593 0.950 . S
H617 C595 0.950 1_565 S
C618 C619 1.349 . S
C618 C620 1.327 . S
C618 H643 0.950 . S
C619 C618 1.349 . S
C619 C635 1.349 . S
C620 C618 1.327 . S
C620 C639 1.429 . S
C620 H644 0.950 . S
C621 C638 1.574 . S
C621 C640 1.368 . S
C621 H645 0.949 . S
H622 C626 0.949 . S
C623 C624 1.349 . S
C623 C625 1.327 . S
C623 H646 0.950 . S
C624 C623 1.349 . S
C624 C636 1.349 . S
C625 C623 1.327 . S
C625 C641 1.429 . S
C625 H647 0.950 . S
C626 H622 0.949 . S
C626 C634 1.574 . S
C626 C642 1.368 . S
H627 C635 0.950 . S
H628 C633 0.950 . S
H629 C634 0.949 . S
H630 C636 0.950 . S
H631 C637 0.950 . S
H632 C638 0.949 . S
C633 H628 0.950 . S
C633 C635 1.327 . S
C633 C639 1.429 . S
C634 C626 1.574 . S
C634 H629 0.949 . S
C634 C640 1.368 . S
C635 C619 1.349 . S
C635 H627 0.950 . S
C635 C633 1.327 . S
C636 C624 1.349 . S
C636 H630 0.950 . S
C636 C637 1.327 . S
C637 H631 0.950 . S
C637 C636 1.327 . S
C637 C641 1.429 . S
C638 C621 1.574 . S
C638 H632 0.949 . S
C638 C642 1.368 . S
C639 C620 1.429 . S
C639 C633 1.429 . S
C639 C640 1.523 . S
C640 C621 1.368 . S
C640 C634 1.368 . S
C640 C639 1.523 . S
C641 C625 1.429 . S
C641 C637 1.429 . S
C641 C642 1.523 . S
C642 C626 1.368 . S
C642 C638 1.368 . S
C642 C641 1.523 . S
H643 C618 0.950 . S
H644 C620 0.950 . S
H645 C621 0.949 . S
H646 C623 0.950 . S
H647 C625 0.950 . S
C648 C649 1.349 . S
C648 C650 1.327 . S
C648 H673 0.950 . S
C649 C648 1.349 . S
C649 C665 1.349 . S
C650 C648 1.327 . S
C650 C669 1.429 . S
C650 H674 0.950 . S
C651 C668 1.574 1_455 S
C651 C670 1.368 . S
C651 H675 0.949 . S
H652 C656 0.949 . S
C653 C654 1.349 . S
C653 C655 1.327 . S
C653 H676 0.950 . S
C654 C653 1.349 . S
C654 C666 1.349 . S
C655 C653 1.327 . S
C655 C671 1.429 . S
C655 H677 0.950 . S
C656 H652 0.949 . S
C656 C664 1.574 1_655 S
C656 C672 1.368 . S
H657 C665 0.950 . S
H658 C663 0.950 . S
H659 C664 0.949 . S
H660 C666 0.950 . S
H661 C667 0.950 . S
H662 C668 0.949 . S
C663 H658 0.950 . S
C663 C665 1.327 . S
C663 C669 1.429 . S
C664 C656 1.574 1_455 S
C664 H659 0.949 . S
C664 C670 1.368 . S
C665 C649 1.349 . S
C665 H657 0.950 . S
C665 C663 1.327 . S
C666 C654 1.349 . S
C666 H660 0.950 . S
C666 C667 1.327 . S
C667 H661 0.950 . S
C667 C666 1.327 . S
C667 C671 1.429 . S
C668 C651 1.574 1_655 S
C668 H662 0.949 . S
C668 C672 1.368 . S
C669 C650 1.429 . S
C669 C663 1.429 . S
C669 C670 1.523 . S
C670 C651 1.368 . S
C670 C664 1.368 . S
C670 C669 1.523 . S
C671 C655 1.429 . S
C671 C667 1.429 . S
C671 C672 1.523 . S
C672 C656 1.368 . S
C672 C668 1.368 . S
C672 C671 1.523 . S
H673 C648 0.950 . S
H674 C650 0.950 . S
H675 C651 0.949 . S
H676 C653 0.950 . S
H677 C655 0.950 . S
C678 C679 1.349 . S
C678 C680 1.327 . S
C678 H703 0.950 . S
C679 C678 1.349 . S
C679 C695 1.349 . S
C680 C678 1.327 . S
C680 C699 1.429 . S
C680 H704 0.950 . S
C681 C698 1.574 1_554 S
C681 C700 1.368 1_545 S
C681 H705 0.949 . S
H682 C686 0.949 . S
C683 C684 1.349 . S
C683 C685 1.327 . S
C683 H706 0.950 . S
C684 C683 1.349 . S
C684 C696 1.349 . S
C685 C683 1.327 . S
C685 C701 1.429 . S
C685 H707 0.950 . S
C686 H682 0.949 . S
C686 C694 1.574 1_556 S
C686 C702 1.368 1_565 S
H687 C695 0.950 . S
H688 C693 0.950 . S
H689 C694 0.949 . S
H690 C696 0.950 . S
H691 C697 0.950 . S
H692 C698 0.949 . S
C693 H688 0.950 . S
C693 C695 1.327 . S
C693 C699 1.429 . S
C694 C686 1.574 1_554 S
C694 H689 0.949 . S
C694 C700 1.368 . S
C695 C679 1.349 . S
C695 H687 0.950 . S
C695 C693 1.327 . S
C696 C684 1.349 . S
C696 H690 0.950 . S
C696 C697 1.327 . S
C697 H691 0.950 . S
C697 C696 1.327 . S
C697 C701 1.429 . S
C698 C681 1.574 1_556 S
C698 H692 0.949 . S
C698 C702 1.368 . S
C699 C680 1.429 . S
C699 C693 1.429 . S
C699 C700 1.523 . S
C700 C681 1.368 1_565 S
C700 C694 1.368 . S
C700 C699 1.523 . S
C701 C685 1.429 . S
C701 C697 1.429 . S
C701 C702 1.523 . S
C702 C686 1.368 1_545 S
C702 C698 1.368 . S
C702 C701 1.523 . S
H703 C678 0.950 . S
H704 C680 0.950 . S
H705 C681 0.949 . S
H706 C683 0.950 . S
H707 C685 0.950 . S
C708 C709 1.349 . S
C708 C710 1.327 . S
C708 H733 0.950 . S
C709 C708 1.349 . S
C709 C725 1.349 . S
C710 C708 1.327 . S
C710 C729 1.429 . S
C710 H734 0.950 . S
C711 C728 1.574 1_655 S
C711 C730 1.368 . S
C711 H735 0.949 . S
H712 C716 0.949 . S
C713 C714 1.349 . S
C713 C715 1.327 . S
C713 H736 0.950 . S
C714 C713 1.349 . S
C714 C726 1.349 . S
C715 C713 1.327 . S
C715 C731 1.429 . S
C715 H737 0.950 . S
C716 H712 0.949 . S
C716 C724 1.574 1_455 S
C716 C732 1.368 . S
H717 C725 0.950 . S
H718 C723 0.950 . S
H719 C724 0.949 . S
H720 C726 0.950 . S
H721 C727 0.950 . S
H722 C728 0.949 . S
C723 H718 0.950 . S
C723 C725 1.327 . S
C723 C729 1.429 . S
C724 C716 1.574 1_655 S
C724 H719 0.949 . S
C724 C730 1.368 . S
C725 C709 1.349 . S
C725 H717 0.950 . S
C725 C723 1.327 . S
C726 C714 1.349 . S
C726 H720 0.950 . S
C726 C727 1.327 . S
C727 H721 0.950 . S
C727 C726 1.327 . S
C727 C731 1.429 . S
C728 C711 1.574 1_455 S
C728 H722 0.949 . S
C728 C732 1.368 . S
C729 C710 1.429 . S
C729 C723 1.429 . S
C729 C730 1.523 . S
C730 C711 1.368 . S
C730 C724 1.368 . S
C730 C729 1.523 . S
C731 C715 1.429 . S
C731 C727 1.429 . S
C731 C732 1.523 . S
C732 C716 1.368 . S
C732 C728 1.368 . S
C732 C731 1.523 . S
H733 C708 0.950 . S
H734 C710 0.950 . S
H735 C711 0.949 . S
H736 C713 0.950 . S
H737 C715 0.950 . S
C738 C739 1.349 . S
C738 C740 1.327 . S
C738 H763 0.950 . S
C739 C738 1.349 . S
C739 C755 1.349 . S
C740 C738 1.327 . S
C740 C759 1.429 . S
C740 H764 0.950 . S
C741 C758 1.574 1_545 S
C741 C760 1.368 . S
C741 H765 0.949 . S
H742 C746 0.949 . S
C743 C744 1.349 . S
C743 C745 1.327 . S
C743 H766 0.950 . S
C744 C743 1.349 . S
C744 C756 1.349 . S
C745 C743 1.327 . S
C745 C761 1.429 . S
C745 H767 0.950 . S
C746 H742 0.949 . S
C746 C754 1.574 1_565 S
C746 C762 1.368 . S
H747 C755 0.950 . S
H748 C753 0.950 . S
H749 C754 0.949 . S
H750 C756 0.950 . S
H751 C757 0.950 . S
H752 C758 0.949 . S
C753 H748 0.950 . S
C753 C755 1.327 . S
C753 C759 1.429 . S
C754 C746 1.574 1_545 S
C754 H749 0.949 . S
C754 C760 1.368 . S
C755 C739 1.349 . S
C755 H747 0.950 . S
C755 C753 1.327 . S
C756 C744 1.349 . S
C756 H750 0.950 . S
C756 C757 1.327 . S
C757 H751 0.950 . S
C757 C756 1.327 . S
C757 C761 1.429 . S
C758 C741 1.574 1_565 S
C758 H752 0.949 . S
C758 C762 1.368 . S
C759 C740 1.429 . S
C759 C753 1.429 . S
C759 C760 1.523 . S
C760 C741 1.368 . S
C760 C754 1.368 . S
C760 C759 1.523 . S
C761 C745 1.429 . S
C761 C757 1.429 . S
C761 C762 1.523 . S
C762 C746 1.368 . S
C762 C758 1.368 . S
C762 C761 1.523 . S
H763 C738 0.950 . S
H764 C740 0.950 . S
H765 C741 0.949 . S
H766 C743 0.950 . S
H767 C745 0.950 . S
C768 C769 1.349 . S
C768 C770 1.327 . S
C768 H793 0.950 . S
C769 C768 1.349 . S
C769 C785 1.349 . S
C770 C768 1.327 . S
C770 C789 1.429 . S
C770 H794 0.950 . S
C771 C788 1.574 . S
C771 C790 1.368 . S
C771 H795 0.949 . S
H772 C776 0.949 . S
C773 C774 1.349 . S
C773 C775 1.327 . S
C773 H796 0.950 . S
C774 C773 1.349 . S
C774 C786 1.349 . S
C775 C773 1.327 . S
C775 C791 1.429 . S
C775 H797 0.950 . S
C776 H772 0.949 . S
C776 C784 1.574 . S
C776 C792 1.368 . S
H777 C785 0.950 . S
H778 C783 0.950 . S
H779 C784 0.949 . S
H780 C786 0.950 . S
H781 C787 0.950 . S
H782 C788 0.949 . S
C783 H778 0.950 . S
C783 C785 1.327 . S
C783 C789 1.429 . S
C784 C776 1.574 . S
C784 H779 0.949 . S
C784 C790 1.368 . S
C785 C769 1.349 . S
C785 H777 0.950 . S
C785 C783 1.327 . S
C786 C774 1.349 . S
C786 H780 0.950 . S
C786 C787 1.327 . S
C787 H781 0.950 . S
C787 C786 1.327 . S
C787 C791 1.429 . S
C788 C771 1.574 . S
C788 H782 0.949 . S
C788 C792 1.368 . S
C789 C770 1.429 . S
C789 C783 1.429 . S
C789 C790 1.523 . S
C790 C771 1.368 . S
C790 C784 1.368 . S
C790 C789 1.523 . S
C791 C775 1.429 . S
C791 C787 1.429 . S
C791 C792 1.523 . S
C792 C776 1.368 . S
C792 C788 1.368 . S
C792 C791 1.523 . S
H793 C768 0.950 . S
H794 C770 0.950 . S
H795 C771 0.949 . S
H796 C773 0.950 . S
H797 C775 0.950 . S
C798 C799 1.349 . S
C798 C800 1.327 . S
C798 H823 0.950 . S
C799 C798 1.349 . S
C799 C815 1.349 . S
C800 C798 1.327 . S
C800 C819 1.429 . S
C800 H824 0.950 . S
C801 C818 1.574 1_655 S
C801 C820 1.368 . S
C801 H825 0.949 . S
H802 C806 0.949 . S
C803 C804 1.349 . S
C803 C805 1.327 . S
C803 H826 0.950 . S
C804 C803 1.349 . S
C804 C816 1.349 . S
C805 C803 1.327 . S
C805 C821 1.429 . S
C805 H827 0.950 . S
C806 H802 0.949 . S
C806 C814 1.574 1_455 S
C806 C822 1.368 . S
H807 C815 0.950 . S
H808 C813 0.950 . S
H809 C814 0.949 . S
H810 C816 0.950 . S
H811 C817 0.950 . S
H812 C818 0.949 . S
C813 H808 0.950 . S
C813 C815 1.327 . S
C813 C819 1.429 . S
C814 C806 1.574 1_655 S
C814 H809 0.949 . S
C814 C820 1.368 . S
C815 C799 1.349 . S
C815 H807 0.950 . S
C815 C813 1.327 . S
C816 C804 1.349 . S
C816 H810 0.950 . S
C816 C817 1.327 . S
C817 H811 0.950 . S
C817 C816 1.327 . S
C817 C821 1.429 . S
C818 C801 1.574 1_455 S
C818 H812 0.949 . S
C818 C822 1.368 . S
C819 C800 1.429 . S
C819 C813 1.429 . S
C819 C820 1.523 . S
C820 C801 1.368 . S
C820 C814 1.368 . S
C820 C819 1.523 . S
C821 C805 1.429 . S
C821 C817 1.429 . S
C821 C822 1.523 . S
C822 C806 1.368 . S
C822 C818 1.368 . S
C822 C821 1.523 . S
H823 C798 0.950 . S
H824 C800 0.950 . S
H825 C801 0.949 . S
H826 C803 0.950 . S
H827 C805 0.950 . S
C828 C829 1.349 . S
C828 C830 1.327 . S
C828 H853 0.950 . S
C829 C828 1.349 . S
C829 C845 1.349 . S
C830 C828 1.327 . S
C830 C849 1.429 . S
C830 H854 0.950 . S
C831 C848 1.574 1_565 S
C831 C850 1.368 . S
C831 H855 0.949 . S
H832 C836 0.949 . S
C833 C834 1.349 . S
C833 C835 1.327 . S
C833 H856 0.950 . S
C834 C833 1.349 . S
C834 C846 1.349 . S
C835 C833 1.327 . S
C835 C851 1.429 . S
C835 H857 0.950 . S
C836 H832 0.949 . S
C836 C844 1.574 1_545 S
C836 C852 1.368 . S
H837 C845 0.950 . S
H838 C843 0.950 . S
H839 C844 0.949 . S
H840 C846 0.950 . S
H841 C847 0.950 . S
H842 C848 0.949 . S
C843 H838 0.950 . S
C843 C845 1.327 . S
C843 C849 1.429 . S
C844 C836 1.574 1_565 S
C844 H839 0.949 . S
C844 C850 1.368 . S
C845 C829 1.349 . S
C845 H837 0.950 . S
C845 C843 1.327 . S
C846 C834 1.349 . S
C846 H840 0.950 . S
C846 C847 1.327 . S
C847 H841 0.950 . S
C847 C846 1.327 . S
C847 C851 1.429 . S
C848 C831 1.574 1_545 S
C848 H842 0.949 . S
C848 C852 1.368 . S
C849 C830 1.429 . S
C849 C843 1.429 . S
C849 C850 1.523 . S
C850 C831 1.368 . S
C850 C844 1.368 . S
C850 C849 1.523 . S
C851 C835 1.429 . S
C851 C847 1.429 . S
C851 C852 1.523 . S
C852 C836 1.368 . S
C852 C848 1.368 . S
C852 C851 1.523 . S
H853 C828 0.950 . S
H854 C830 0.950 . S
H855 C831 0.949 . S
H856 C833 0.950 . S
H857 C835 0.950 . S
C858 C859 1.349 . S
C858 C860 1.327 . S
C858 H883 0.950 . S
C859 C858 1.349 . S
C859 C875 1.349 . S
C860 C858 1.327 . S
C860 C879 1.429 . S
C860 H884 0.950 . S
C861 C878 1.574 . S
C861 C880 1.368 . S
C861 H885 0.949 . S
H862 C866 0.949 . S
C863 C864 1.349 . S
C863 C865 1.327 . S
C863 H886 0.950 . S
C864 C863 1.349 . S
C864 C876 1.349 . S
C865 C863 1.327 . S
C865 C881 1.429 . S
C865 H887 0.950 . S
C866 H862 0.949 . S
C866 C874 1.574 . S
C866 C882 1.368 . S
H867 C875 0.950 . S
H868 C873 0.950 . S
H869 C874 0.949 . S
H870 C876 0.950 . S
H871 C877 0.950 . S
H872 C878 0.949 . S
C873 H868 0.950 . S
C873 C875 1.327 . S
C873 C879 1.429 . S
C874 C866 1.574 . S
C874 H869 0.949 . S
C874 C880 1.368 . S
C875 C859 1.349 . S
C875 H867 0.950 . S
C875 C873 1.327 . S
C876 C864 1.349 . S
C876 H870 0.950 . S
C876 C877 1.327 . S
C877 H871 0.950 . S
C877 C876 1.327 . S
C877 C881 1.429 . S
C878 C861 1.574 . S
C878 H872 0.949 . S
C878 C882 1.368 . S
C879 C860 1.429 . S
C879 C873 1.429 . S
C879 C880 1.523 . S
C880 C861 1.368 . S
C880 C874 1.368 . S
C880 C879 1.523 . S
C881 C865 1.429 . S
C881 C877 1.429 . S
C881 C882 1.523 . S
C882 C866 1.368 . S
C882 C878 1.368 . S
C882 C881 1.523 . S
H883 C858 0.950 . S
H884 C860 0.950 . S
H885 C861 0.949 . S
H886 C863 0.950 . S
H887 C865 0.950 . S
C169 C117 1.898 . S
C174 C5 1.898 . S
C199 C23 1.833 . S
C204 C135 1.833 . S
C229 C33 1.898 . S
C234 C145 1.898 . S
C259 C47 1.898 . S
C264 C159 1.898 . S
C289 C93 1.833 . S
C294 C65 1.833 . S
C319 C75 1.898 . S
C324 C103 1.898 . S
C349 C51 0.708 . S
C354 C9 0.708 . S
C379 C61 0.727 . S
C384 C19 0.727 . S
C409 C79 0.835 . S
C414 C37 0.835 . S
C439 C89 0.727 . S
C444 C131 0.727 . S
C469 C107 0.708 . S
C474 C149 0.708 . S
C499 C121 0.835 . S
C504 C163 0.835 . S
C529 C11 1.556 . S
C534 C126 1.551 . S
C559 C14 1.551 . S
C564 C151 1.556 . S
C589 C39 1.568 . S
C594 C165 1.568 . S
C619 C84 1.551 . S
C624 C53 1.556 . S
C649 C56 1.551 . S
C654 C109 1.556 . S
C679 C123 1.568 . S
C684 C81 1.568 . S
C709 C154 1.097 . S
C714 C0 1.101 . S
C739 C25 1.026 . S
C744 C95 1.026 . S
C769 C98 1.101 . S
C774 C28 1.097 . S
C799 C42 1.101 . S
C804 C112 1.097 . S
C829 C67 1.026 . S
C834 C137 1.026 . S
C859 C140 1.101 . S
C864 C70 1.097 . S
