# Generated by pormake.
# Topology can, (4)-cn, num edge types: 1
# Building blocks:
#     Node 0, Type 0, BuildingBlock: CEKHIL_clean_sbu_0, # of connection points: 4
#     Node 1, Type 0, BuildingBlock: CEKHIL_clean_sbu_0, # of connection points: 4
#     Node 2, Type 0, BuildingBlock: CEKHIL_clean_sbu_0, # of connection points: 4
#     Node 3, Type 0, BuildingBlock: CEKHIL_clean_sbu_0, # of connection points: 4
#     Node 4, Type 0, BuildingBlock: CEKHIL_clean_sbu_0, # of connection points: 4
#     Node 5, Type 0, BuildingBlock: CEKHIL_clean_sbu_0, # of connection points: 4
#     Node 6, Type 0, BuildingBlock: CEKHIL_clean_sbu_0, # of connection points: 4
#     Node 7, Type 0, BuildingBlock: CEKHIL_clean_sbu_0, # of connection points: 4
#     Node 8, Type 0, BuildingBlock: CEKHIL_clean_sbu_0, # of connection points: 4
#     Node 9, Type 0, BuildingBlock: CEKHIL_clean_sbu_0, # of connection points: 4
#     Node 10, Type 0, BuildingBlock: CEKHIL_clean_sbu_0, # of connection points: 4
#     Node 11, Type 0, BuildingBlock: CEKHIL_clean_sbu_0, # of connection points: 4
#     Edge 12, Type (0, 0), BuildingBlock: ZUJKAS_clean_linker_0, # of connection points: 2
#     Edge 13, Type (0, 0), BuildingBlock: ZUJKAS_clean_linker_0, # of connection points: 2
#     Edge 14, Type (0, 0), BuildingBlock: ZUJKAS_clean_linker_0, # of connection points: 2
#     Edge 15, Type (0, 0), BuildingBlock: ZUJKAS_clean_linker_0, # of connection points: 2
#     Edge 16, Type (0, 0), BuildingBlock: ZUJKAS_clean_linker_0, # of connection points: 2
#     Edge 17, Type (0, 0), BuildingBlock: ZUJKAS_clean_linker_0, # of connection points: 2
#     Edge 18, Type (0, 0), BuildingBlock: ZUJKAS_clean_linker_0, # of connection points: 2
#     Edge 19, Type (0, 0), BuildingBlock: ZUJKAS_clean_linker_0, # of connection points: 2
#     Edge 20, Type (0, 0), BuildingBlock: ZUJKAS_clean_linker_0, # of connection points: 2
#     Edge 21, Type (0, 0), BuildingBlock: ZUJKAS_clean_linker_0, # of connection points: 2
#     Edge 22, Type (0, 0), BuildingBlock: ZUJKAS_clean_linker_0, # of connection points: 2
#     Edge 23, Type (0, 0), BuildingBlock: ZUJKAS_clean_linker_0, # of connection points: 2
#     Edge 24, Type (0, 0), BuildingBlock: ZUJKAS_clean_linker_0, # of connection points: 2
#     Edge 25, Type (0, 0), BuildingBlock: ZUJKAS_clean_linker_0, # of connection points: 2
#     Edge 26, Type (0, 0), BuildingBlock: ZUJKAS_clean_linker_0, # of connection points: 2
#     Edge 27, Type (0, 0), BuildingBlock: ZUJKAS_clean_linker_0, # of connection points: 2
#     Edge 28, Type (0, 0), BuildingBlock: ZUJKAS_clean_linker_0, # of connection points: 2
#     Edge 29, Type (0, 0), BuildingBlock: ZUJKAS_clean_linker_0, # of connection points: 2
#     Edge 30, Type (0, 0), BuildingBlock: ZUJKAS_clean_linker_0, # of connection points: 2
#     Edge 31, Type (0, 0), BuildingBlock: ZUJKAS_clean_linker_0, # of connection points: 2
#     Edge 32, Type (0, 0), BuildingBlock: ZUJKAS_clean_linker_0, # of connection points: 2
#     Edge 33, Type (0, 0), BuildingBlock: ZUJKAS_clean_linker_0, # of connection points: 2
#     Edge 34, Type (0, 0), BuildingBlock: ZUJKAS_clean_linker_0, # of connection points: 2
#     Edge 35, Type (0, 0), BuildingBlock: ZUJKAS_clean_linker_0, # of connection points: 2
# Relax obj value: 0.060
# Max RMSD: 0.044
# Mean RMSD: 0.044
data_MOF--net-can--node1-CEKHIL_clean_sbu_0--edge1-ZUJKAS_clean_linker_0
_symmetry_space_group_name_H-M    P1
_symmetry_Int_Tables_number       1
_symmetry_cell_setting            triclinic
loop_
_symmetry_equiv_pos_as_xyz
'x, y, z'
_cell_length_a     70.49815
_cell_length_b     70.516988
_cell_length_c     35.602567
_cell_angle_alpha  90.010303
_cell_angle_beta   89.991057
_cell_angle_gamma 120.02874
loop_
_atom_site_label
_atom_site_type_symbol
_atom_site_fract_x
_atom_site_fract_y
_atom_site_fract_z
_atom_type_partial_charge
Co0 Co 0.06449 0.39152 0.25576 0.0
O1 O 0.07756 0.37314 0.25619 0.0
O2 O 0.09393 0.40734 0.23572 0.0
C3 C 0.05134 0.38375 0.31502 0.0
O4 O 0.05716 0.41605 0.25264 0.0
Co5 Co 0.01446 0.37267 0.26611 0.0
O6 O 0.0227 0.40384 0.27244 0.0
C7 C 0.03157 0.36724 0.19342 0.0
C8 C 0.09512 0.38988 0.24293 0.0
C9 C 0.0414 0.41934 0.26216 0.0
O10 O 0.05146 0.38025 0.2042 0.0
O11 O 0.01498 0.36086 0.21513 0.0
O12 O 0.07169 0.39836 0.30892 0.0
O13 O 0.04026 0.37323 0.28578 0.0
Co14 Co 0.67426 0.06336 0.7557 0.0
O15 O 0.70565 0.07563 0.75491 0.0
O16 O 0.68834 0.09254 0.73462 0.0
C17 C 0.66934 0.05089 0.81535 0.0
O18 O 0.64265 0.05698 0.75363 0.0
Co19 Co 0.64185 0.01374 0.76797 0.0
O20 O 0.61998 0.02321 0.77589 0.0
C21 C 0.6631 0.02949 0.69383 0.0
C22 C 0.70682 0.09327 0.74129 0.0
C23 C 0.6236 0.04189 0.76467 0.0
O24 O 0.67138 0.0496 0.70448 0.0
O25 O 0.6524 0.01319 0.71591 0.0
O26 O 0.6757 0.07132 0.80866 0.0
O27 O 0.66791 0.03926 0.78636 0.0
Co28 Co 0.61383 0.67411 0.25565 0.0
O29 O 0.63236 0.70555 0.25597 0.0
O30 O 0.59813 0.68783 0.23557 0.0
C31 C 0.62143 0.66854 0.31486 0.0
O32 O 0.58921 0.64222 0.25274 0.0
Co33 Co 0.63319 0.64325 0.26531 0.0
O34 O 0.60207 0.61976 0.26805 0.0
C35 C 0.63843 0.66596 0.19315 0.0
C36 C 0.61567 0.70644 0.24267 0.0
C37 C 0.58636 0.62302 0.25959 0.0
O38 O 0.62499 0.67228 0.20401 0.0
O39 O 0.64528 0.65618 0.21484 0.0
O40 O 0.60708 0.67462 0.30881 0.0
O41 O 0.63199 0.66802 0.28564 0.0
Co42 Co 0.94032 0.61147 0.75696 0.0
O43 O 0.92819 0.63069 0.75548 0.0
O44 O 0.91106 0.59624 0.73622 0.0
C45 C 0.95302 0.61962 0.81643 0.0
O46 O 0.9465 0.58611 0.75572 0.0
Co47 Co 0.98994 0.62852 0.76926 0.0
O48 O 0.98034 0.59718 0.77759 0.0
C49 C 0.97413 0.63374 0.69497 0.0
C50 C 0.91044 0.61409 0.74237 0.0
C51 C 0.96155 0.58211 0.76674 0.0
O52 O 0.954 0.62181 0.70549 0.0
O53 O 0.9904 0.63955 0.71722 0.0
O54 O 0.93253 0.60555 0.81014 0.0
O55 O 0.96456 0.62943 0.78716 0.0
Co56 Co 0.33079 0.93968 0.25621 0.0
O57 O 0.29938 0.927 0.25425 0.0
O58 O 0.31731 0.91041 0.2355 0.0
C59 C 0.33489 0.95226 0.3157 0.0
O60 O 0.36261 0.94656 0.25564 0.0
Co61 Co 0.36231 0.98955 0.26848 0.0
O62 O 0.38479 0.9809 0.27611 0.0
C63 C 0.3426 0.97327 0.19351 0.0
C64 C 0.29862 0.90942 0.24129 0.0
C65 C 0.38157 0.96218 0.26598 0.0
O66 O 0.33409 0.95321 0.20461 0.0
O67 O 0.35289 0.9897 0.21549 0.0
O68 O 0.32886 0.93188 0.30932 0.0
O69 O 0.3364 0.96374 0.28645 0.0
Co70 Co 0.39271 0.33048 0.75803 0.0
O71 O 0.37382 0.29906 0.7579 0.0
O72 O 0.40811 0.31653 0.73778 0.0
C73 C 0.38492 0.33581 0.81728 0.0
O74 O 0.41776 0.36215 0.75542 0.0
Co75 Co 0.37494 0.36255 0.76857 0.0
O76 O 0.40625 0.38508 0.7745 0.0
C77 C 0.36953 0.34045 0.69541 0.0
C78 C 0.39044 0.298 0.74464 0.0
C79 C 0.42148 0.3814 0.7645 0.0
O80 O 0.38185 0.33281 0.70644 0.0
O81 O 0.36353 0.35098 0.71709 0.0
O82 O 0.39914 0.32956 0.81123 0.0
O83 O 0.37473 0.33686 0.78798 0.0
Co84 Co 0.61231 0.93989 0.24134 0.0
O85 O 0.63115 0.92731 0.24211 0.0
O86 O 0.59678 0.91059 0.26184 0.0
C87 C 0.62022 0.95278 0.18195 0.0
O88 O 0.58732 0.94661 0.24336 0.0
Co89 Co 0.63033 0.98975 0.23014 0.0
O90 O 0.59905 0.98105 0.22406 0.0
C91 C 0.63565 0.97326 0.30354 0.0
C92 C 0.61447 0.9097 0.2554 0.0
C93 C 0.58373 0.96219 0.23405 0.0
O94 O 0.62306 0.95327 0.29286 0.0
O95 O 0.64186 0.9897 0.28156 0.0
O96 O 0.60599 0.93233 0.18816 0.0
O97 O 0.6304 0.96412 0.2112 0.0
Co98 Co 0.67441 0.61185 0.74146 0.0
O99 O 0.70581 0.6307 0.74311 0.0
O100 O 0.68801 0.59636 0.76285 0.0
C101 C 0.67013 0.61971 0.68169 0.0
O102 O 0.64262 0.58686 0.74251 0.0
Co103 Co 0.64286 0.63005 0.72847 0.0
O104 O 0.62041 0.59884 0.72147 0.0
C105 C 0.66314 0.6346 0.80319 0.0
C106 C 0.70666 0.61406 0.7567 0.0
C107 C 0.62365 0.58342 0.73202 0.0
O108 O 0.67126 0.62262 0.79265 0.0
O109 O 0.65289 0.64062 0.78088 0.0
O110 O 0.67623 0.60547 0.68858 0.0
O111 O 0.66868 0.62997 0.71059 0.0
Co112 Co 0.06449 0.67314 0.24212 0.0
O113 O 0.0772 0.70456 0.24337 0.0
O114 O 0.09385 0.68676 0.26244 0.0
C115 C 0.05154 0.66858 0.18284 0.0
O116 O 0.05759 0.64134 0.24344 0.0
Co117 Co 0.01458 0.64147 0.23081 0.0
O118 O 0.02341 0.61917 0.22227 0.0
C119 C 0.03121 0.66256 0.30477 0.0
C120 C 0.09483 0.7054 0.25631 0.0
C121 C 0.04211 0.62242 0.23266 0.0
O122 O 0.05119 0.67028 0.29378 0.0
O123 O 0.0147 0.65232 0.2829 0.0
O124 O 0.07196 0.67463 0.18888 0.0
O125 O 0.04025 0.66728 0.21225 0.0
Co126 Co 0.39281 0.06388 0.74125 0.0
O127 O 0.37397 0.07646 0.74242 0.0
O128 O 0.40846 0.09324 0.76153 0.0
C129 C 0.38457 0.05091 0.68197 0.0
O130 O 0.41777 0.05711 0.74269 0.0
Co131 Co 0.3746 0.01397 0.73027 0.0
O132 O 0.40581 0.02274 0.72267 0.0
C133 C 0.36948 0.03067 0.80357 0.0
C134 C 0.39073 0.09411 0.75538 0.0
C135 C 0.42125 0.04156 0.7326 0.0
O136 O 0.38231 0.0506 0.7929 0.0
O137 O 0.36302 0.01418 0.78161 0.0
O138 O 0.39884 0.07137 0.68803 0.0
O139 O 0.37453 0.03961 0.71135 0.0
Co140 Co 0.33159 0.39278 0.24369 0.0
O141 O 0.30017 0.37409 0.24503 0.0
O142 O 0.31807 0.40842 0.26483 0.0
C143 C 0.33602 0.38483 0.18402 0.0
O144 O 0.36346 0.4176 0.24507 0.0
Co145 Co 0.36292 0.37424 0.2311 0.0
O146 O 0.38541 0.40542 0.22355 0.0
C147 C 0.34203 0.36941 0.30534 0.0
C148 C 0.29939 0.39079 0.25854 0.0
C149 C 0.38234 0.42092 0.23429 0.0
O150 O 0.3345 0.38194 0.29497 0.0
O151 O 0.35205 0.36314 0.28299 0.0
O152 O 0.33002 0.39917 0.19067 0.0
O153 O 0.33727 0.37457 0.21305 0.0
Co154 Co 0.94065 0.32969 0.74109 0.0
O155 O 0.92833 0.29831 0.74222 0.0
O156 O 0.91134 0.31572 0.76167 0.0
C157 C 0.95341 0.33438 0.68161 0.0
O158 O 0.94706 0.36131 0.74263 0.0
Co159 Co 0.99033 0.362 0.72913 0.0
O160 O 0.98108 0.38403 0.72141 0.0
C161 C 0.97424 0.34151 0.80375 0.0
C162 C 0.91061 0.29721 0.75537 0.0
C163 C 0.9623 0.38041 0.73208 0.0
O164 O 0.95416 0.33272 0.79264 0.0
O165 O 0.99064 0.35228 0.78189 0.0
O166 O 0.93297 0.32816 0.68796 0.0
O167 O 0.96489 0.33585 0.71085 0.0
H168 H 0.99391 0.33372 0.16421 0.0
H169 H 0.98419 0.32514 0.09826 0.0
H170 H 0.04852 0.37654 0.0658 0.0
H171 H 0.05857 0.38517 0.1321 0.0
H172 H 0.98315 0.35426 0.04792 0.0
H173 H 0.03919 0.32575 0.99781 0.0
H174 H 0.03407 0.32743 0.04707 0.0
H175 H 0.05266 0.35171 0.02154 0.0
C176 C 0.00618 0.34304 0.14315 0.0
C177 C 0.02702 0.36025 0.15352 0.0
C178 C 1.00055 0.33807 0.10541 0.0
C179 C 0.01562 0.3501 0.07709 0.0
C180 C 0.03674 0.36678 0.08721 0.0
H181 H 0.01366 0.36473 0.83909 0.0
H182 H 0.02194 0.36463 0.90524 0.0
C183 C 0.04245 0.37173 0.12513 0.0
C184 C 0.00849 0.34639 0.03722 0.0
H185 H 0.01975 0.33327 0.95097 0.0
C186 C 0.99101 0.34947 0.02673 0.0
C187 C 0.01877 0.34016 0.00969 0.0
C188 C 0.03709 0.33586 0.01955 0.0
C189 C 0.98401 0.34725 0.98925 0.0
C190 C 0.99446 0.34126 0.96155 0.0
C191 C 0.01168 0.33777 0.97221 0.0
C192 C 0.98897 0.34021 0.92101 0.0
C193 C 0.96611 0.35223 0.97951 0.0
C194 C 0.96763 0.32625 0.90753 0.0
C195 C 0.96269 0.32642 0.86939 0.0
C196 C 0.9791 0.3403 0.84401 0.0
C197 C 1.00055 0.35375 0.85762 0.0
C198 C 0.00538 0.35372 0.89558 0.0
H199 H 0.9636 0.36162 0.00211 0.0
H200 H 0.96992 0.36174 0.953 0.0
H201 H 0.95048 0.33662 0.97561 0.0
H202 H 0.95479 0.3153 0.92648 0.0
H203 H 0.94607 0.31572 0.85985 0.0
H204 H 0.62038 0.94526 0.36429 0.0
H205 H 0.6287 0.95508 0.43086 0.0
H206 H 0.67421 0.02185 0.39978 0.0
H207 H 0.66615 0.01239 0.33369 0.0
H208 H 0.67166 0.97775 0.47193 0.0
H209 H 0.62739 0.02453 0.46876 0.0
H210 H 0.62347 0.00452 0.43341 0.0
H211 H 0.64755 0.03119 0.43258 0.0
C212 C 0.63238 0.96196 0.37159 0.0
C213 C 0.64236 0.97807 0.34356 0.0
C214 C 0.63708 0.96754 0.40962 0.0
C215 C 0.65178 0.98927 0.42013 0.0
C216 C 0.66256 0.00508 0.39223 0.0
H217 H 0.68249 0.05832 0.63498 0.0
H218 H 0.68238 0.04924 0.56844 0.0
C219 C 0.6579 0.99957 0.3544 0.0
C220 C 0.6552 0.99583 0.46019 0.0
H221 H 0.64635 0.02649 0.52451 0.0
C222 C 0.6661 0.98836 0.48354 0.0
C223 C 0.6481 0.00984 0.47505 0.0
C224 C 0.63582 0.0179 0.45133 0.0
C225 C 0.67027 0.9947 0.52145 0.0
C226 C 0.66288 0.00848 0.5365 0.0
C227 C 0.65213 0.01606 0.51294 0.0
C228 C 0.66483 0.01414 0.57704 0.0
C229 C 0.68286 0.98687 0.54483 0.0
C230 C 0.65505 0.99747 0.60393 0.0
C231 C 0.65516 0.00257 0.64182 0.0
C232 C 0.66483 0.02452 0.6538 0.0
C233 C 0.67494 0.04126 0.62685 0.0
C234 C 0.67487 0.0361 0.5888 0.0
H235 H 0.69334 0.98289 0.52701 0.0
H236 H 0.69337 0.99934 0.56589 0.0
H237 H 0.67111 0.97171 0.55994 0.0
H238 H 0.6467 0.98042 0.59551 0.0
H239 H 0.64712 0.98917 0.66157 0.0
H240 H 0.62018 0.67491 0.13214 0.0
H241 H 0.6284 0.67318 0.06561 0.0
H242 H 0.68006 0.66056 0.09731 0.0
H243 H 0.67202 0.66214 0.16343 0.0
H244 H 0.66955 0.69631 0.02191 0.0
H245 H 0.63687 0.60656 0.03334 0.0
H246 H 0.63128 0.62177 0.06807 0.0
H247 H 0.65744 0.62321 0.06719 0.0
C248 C 0.63352 0.67213 0.12495 0.0
C249 C 0.64521 0.66835 0.15316 0.0
C250 C 0.63816 0.6711 0.08695 0.0
C251 C 0.65453 0.6663 0.07666 0.0
C252 C 0.66707 0.66385 0.1047 0.0
H253 H 0.68613 0.62906 0.86076 0.0
H254 H 0.68668 0.63869 0.92717 0.0
C255 C 0.66244 0.66481 0.14252 0.0
C256 C 0.65785 0.66268 0.03678 0.0
H257 H 0.65259 0.62312 0.9754 0.0
C258 C 0.66586 0.68034 0.01166 0.0
C259 C 0.65319 0.64185 0.02365 0.0
C260 C 0.64406 0.62218 0.04931 0.0
C261 C 0.66943 0.67772 0.97364 0.0
C262 C 0.66431 0.65675 0.96029 0.0
C263 C 0.6566 0.63919 0.98563 0.0
C264 C 0.66535 0.65226 0.91979 0.0
C265 C 0.6789 0.69753 0.94832 0.0
C266 C 0.65308 0.65652 0.89369 0.0
C267 C 0.65285 0.6512 0.85591 0.0
C268 C 0.66462 0.64113 0.84325 0.0
C269 C 0.67693 0.63683 0.86946 0.0
C270 C 0.67726 0.64233 0.90741 0.0
H271 H 0.68867 0.7129 0.96453 0.0
H272 H 0.68949 0.69655 0.92622 0.0
H273 H 0.66533 0.69853 0.93446 0.0
H274 H 0.6432 0.6635 0.90266 0.0
H275 H 0.64296 0.65458 0.83679 0.0
H276 H 0.99151 0.65058 0.33657 0.0
H277 H 0.98279 0.64965 0.40277 0.0
H278 H 0.05107 0.6774 0.43106 0.0
H279 H 0.06006 0.67802 0.36434 0.0
H280 H 0.02433 0.64066 0.47203 0.0
H281 H 0.99123 0.69718 0.47563 0.0
H282 H 0.97824 0.6762 0.44071 0.0
H283 H 0.00692 0.69608 0.43647 0.0
C284 C 0.00482 0.65678 0.35665 0.0
C285 C 0.02655 0.66433 0.34495 0.0
C286 C 0.99976 0.65639 0.39462 0.0
C287 C 0.01628 0.66377 0.42188 0.0
C288 C 0.03807 0.67178 0.41042 0.0
H289 H 0.01426 0.66133 0.66453 0.0
H290 H 0.02384 0.66919 0.59849 0.0
C291 C 0.04319 0.67216 0.37227 0.0
C292 C 0.01041 0.66132 0.46235 0.0
H293 H 0.98313 0.67352 0.52885 0.0
C294 C 0.01554 0.64805 0.48453 0.0
C295 C 0.99876 0.67082 0.47858 0.0
C296 C 0.99365 0.68604 0.4567 0.0
C297 C 0.00896 0.64365 0.52223 0.0
C298 C 0.99711 0.65293 0.53827 0.0
C299 C 0.99206 0.6663 0.51628 0.0
C300 C 0.99065 0.64948 0.57834 0.0
C301 C 0.01441 0.6288 0.54455 0.0
C302 C 0.96863 0.63632 0.58895 0.0
C303 C 0.96297 0.63168 0.62698 0.0
C304 C 0.97929 0.64024 0.6549 0.0
C305 C 1.00121 0.65422 0.64395 0.0
C306 C 0.00679 0.65876 0.60614 0.0
H307 H 0.01962 0.61949 0.52621 0.0
H308 H 0.028 0.63882 0.56424 0.0
H309 H 1.00007 0.61701 0.56145 0.0
H310 H 0.95592 0.6291 0.56777 0.0
H311 H 0.94595 0.62092 0.63435 0.0
H312 H 0.33616 0.99287 0.83275 0.0
H313 H 0.32757 0.98309 0.89868 0.0
H314 H 0.37899 0.04739 0.93128 0.0
H315 H 0.38759 0.05751 0.86501 0.0
H316 H 0.35634 0.9819 0.94935 0.0
H317 H 0.32821 0.03836 -0.00127 0.0
H318 H 0.33008 0.03327 0.94952 0.0
H319 H 0.35429 0.05172 0.9754 0.0
C320 C 0.34549 0.00511 0.85384 0.0
C321 C 0.36267 0.02598 0.84352 0.0
C322 C 0.34052 0.99945 0.89157 0.0
C323 C 0.35253 0.01451 0.91992 0.0
C324 C 0.36923 0.03562 0.90985 0.0
H325 H 0.36623 0.01257 0.15814 0.0
H326 H 0.36652 0.02081 0.09187 0.0
C327 C 0.37418 0.04137 0.87195 0.0
C328 C 0.34869 0.0074 0.9598 0.0
H329 H 0.33545 0.01883 0.0458 0.0
C330 C 0.35158 0.98983 0.97043 0.0
C331 C 0.34248 0.01778 0.98718 0.0
C332 C 0.33838 0.0362 0.97717 0.0
C333 C 0.34918 0.98282 0.00793 0.0
C334 C 0.34323 0.99337 0.03548 0.0
C335 C 0.33994 0.01069 0.02467 0.0
C336 C 0.34202 0.98789 0.07604 0.0
C337 C 0.35394 0.9648 0.01784 0.0
C338 C 0.3279 0.96659 0.08951 0.0
C339 C 0.32785 0.96167 0.1277 0.0
C340 C 0.34166 0.97808 0.15315 0.0
C341 C 0.35529 0.99948 0.13954 0.0
C342 C 0.35549 0.00428 0.10153 0.0
H343 H 0.36336 0.96221 0.99538 0.0
H344 H 0.36335 0.96853 0.04446 0.0
H345 H 0.33825 0.94924 0.02159 0.0
H346 H 0.31697 0.95377 0.0705 0.0
H347 H 0.31703 0.94508 0.13726 0.0
H348 H 0.3272 0.38275 0.366 0.0
H349 H 0.32862 0.37429 0.43254 0.0
H350 H 0.35483 0.33284 0.40168 0.0
H351 H 0.35346 0.34097 0.33566 0.0
H352 H 0.31033 0.32946 0.47132 0.0
H353 H 0.40109 0.3822 0.47403 0.0
H354 H 0.38426 0.38517 0.43893 0.0
H355 H 0.38977 0.36297 0.43589 0.0
C356 C 0.33301 0.37163 0.37333 0.0
C357 C 0.34044 0.36277 0.34537 0.0
C358 C 0.33381 0.36682 0.41133 0.0
C359 C 0.34211 0.35318 0.42189 0.0
C360 C 0.34863 0.34361 0.39406 0.0
H361 H 0.38239 0.32433 0.6361 0.0
H362 H 0.37387 0.32468 0.5694 0.0
C363 C 0.3478 0.34832 0.35627 0.0
C364 C 0.34499 0.3496 0.46195 0.0
H365 H 0.38431 0.36129 0.52826 0.0
C366 C 0.32646 0.33645 0.48391 0.0
C367 C 0.36609 0.35857 0.47802 0.0
C368 C 0.3865 0.37315 0.45571 0.0
C369 C 0.32851 0.33186 0.52164 0.0
C370 C 0.34964 0.34107 0.53791 0.0
C371 C 0.36814 0.35411 0.51574 0.0
C372 C 0.35297 0.33861 0.57841 0.0
C373 C 0.30805 0.31688 0.54349 0.0
C374 C 0.34398 0.34619 0.60559 0.0
C375 C 0.34873 0.34595 0.64356 0.0
C376 C 0.36284 0.33834 0.65534 0.0
C377 C 0.37144 0.33025 0.62812 0.0
C378 C 0.36662 0.33048 0.58997 0.0
H379 H 0.29445 0.30581 0.52453 0.0
H380 H 0.31106 0.30676 0.56388 0.0
H381 H 0.30264 0.32691 0.55928 0.0
H382 H 0.33385 0.35303 0.59737 0.0
H383 H 0.34177 0.35234 0.66357 0.0
H384 H 0.93203 0.60619 0.88409 0.0
H385 H 0.94877 0.61413 0.94671 0.0
H386 H 0.01299 0.64895 0.89636 0.0
H387 H 0.99641 0.64178 0.83406 0.0
H388 H 0.97685 0.60362 0.97952 0.0
H389 H 0.01626 0.69394 0.96931 0.0
H390 H 0.99617 0.67581 0.93578 0.0
H391 H 0.02428 0.68237 0.93195 0.0
C392 C 0.94971 0.61559 0.88645 0.0
C393 C 0.96291 0.62354 0.85423 0.0
C394 C 0.95925 0.6201 0.9222 0.0
C395 C 0.98212 0.63256 0.92625 0.0
C396 C 0.9953 0.63989 0.89399 0.0
H397 H 0.07188 0.6725 0.11551 0.0
H398 H 0.05485 0.66286 0.0531 0.0
C399 C 0.98579 0.63562 0.85836 0.0
C400 C 0.99225 0.63769 0.96412 0.0
H401 H 0.02719 0.67999 0.02076 0.0
C402 C 0.98774 0.62032 0.98862 0.0
C403 C 0.00644 0.65952 0.97601 0.0
C404 C 0.01091 0.67898 0.95204 0.0
C405 C 0.99736 0.62417 0.02439 0.0
C406 C 0.01178 0.64594 0.0359 0.0
C407 C 0.01627 0.66331 0.01157 0.0
C408 C 0.02194 0.6511 0.07359 0.0
C409 C 0.9923 0.60498 0.04951 0.0
C410 C 0.00903 0.6478 0.10553 0.0
C411 C 0.01869 0.65342 0.14105 0.0
C412 C 0.04143 0.66238 0.14522 0.0
C413 C 0.05432 0.66557 0.11315 0.0
C414 C 0.04464 0.66009 0.07755 0.0
H415 H 0.98428 0.58922 0.03391 0.0
H416 H 0.0075 0.60714 0.06283 0.0
H417 H 0.98108 0.60402 0.07225 0.0
H418 H 0.99151 0.64115 0.10291 0.0
H419 H 0.00832 0.65082 0.16521 0.0
H420 H 0.33055 0.93137 0.38253 0.0
H421 H 0.33987 0.94784 0.44535 0.0
H422 H 0.36201 0.01162 0.39717 0.0
H423 H 0.35264 0.99535 0.33439 0.0
H424 H 0.39142 0.00679 0.45367 0.0
H425 H 0.30531 0.9751 0.50021 0.0
H426 H 0.31176 0.95589 0.47874 0.0
H427 H 0.31287 0.97772 0.45119 0.0
C428 C 0.33741 0.9489 0.38533 0.0
C429 C 0.3408 0.96207 0.35358 0.0
C430 C 0.34267 0.95825 0.42118 0.0
C431 C 0.35147 0.98088 0.42575 0.0
C432 C 0.35518 0.99411 0.39411 0.0
H433 H 0.3991 0.07153 0.61435 0.0
H434 H 0.3917 0.05463 0.55201 0.0
C435 C 0.34979 0.98477 0.35831 0.0
C436 C 0.3567 0.99083 0.46359 0.0
H437 H 0.33312 0.99497 0.54448 0.0
C438 C 0.37874 0.00425 0.47363 0.0
C439 C 0.34005 0.98735 0.4894 0.0
C440 C 0.31613 0.97335 0.47949 0.0
C441 C 0.38462 0.01413 0.50921 0.0
C442 C 0.36794 0.01095 0.53493 0.0
C443 C 0.34588 0.99743 0.52477 0.0
C444 C 0.37291 0.02134 0.57261 0.0
C445 C 0.40861 0.02742 0.51915 0.0
C446 C 0.3643 0.00833 0.60484 0.0
C447 C 0.36816 0.01797 0.64035 0.0
C448 C 0.3808 0.04082 0.64435 0.0
C449 C 0.38947 0.05386 0.61212 0.0
C450 C 0.38539 0.04421 0.57652 0.0
H451 H 0.41868 0.02284 0.50146 0.0
H452 H 0.4144 0.04503 0.51422 0.0
H453 H 0.41144 0.02525 0.54912 0.0
H454 H 0.35454 0.99066 0.60251 0.0
H455 H 0.36124 0.00748 0.66465 0.0
H456 H 0.39999 0.3304 0.88494 0.0
H457 H 0.39217 0.33958 0.94733 0.0
H458 H 0.35418 0.36534 0.89658 0.0
H459 H 0.36132 0.35561 0.83448 0.0
H460 H 0.40117 0.3784 0.97842 0.0
H461 H 0.31121 0.323 0.97187 0.0
H462 H 0.32966 0.32169 0.93824 0.0
H463 H 0.32154 0.34205 0.93357 0.0
C464 C 0.38994 0.33798 0.88715 0.0
C465 C 0.38109 0.3421 0.85489 0.0
C466 C 0.3855 0.34323 0.92276 0.0
C467 C 0.37221 0.35272 0.92666 0.0
C468 C 0.36395 0.35746 0.89435 0.0
H469 H 0.33135 0.40114 0.11714 0.0
H470 H 0.34102 0.39428 0.05433 0.0
C471 C 0.36818 0.35202 0.85883 0.0
C472 C 0.36707 0.35781 0.96445 0.0
H473 H 0.32464 0.3484 0.02257 0.0
C474 C 0.38445 0.37176 0.98813 0.0
C475 C 0.34521 0.34906 0.97715 0.0
C476 C 0.32585 0.33295 0.95405 0.0
C477 C 0.38053 0.37744 0.02393 0.0
C478 C 0.35872 0.36894 0.03626 0.0
C479 C 0.34135 0.35503 0.01272 0.0
C480 C 0.35358 0.37369 0.07413 0.0
C481 C 0.39968 0.39266 0.04828 0.0
C482 C 0.35733 0.36423 0.10578 0.0
C483 C 0.35167 0.36793 0.14151 0.0
C484 C 0.34225 0.38126 0.14618 0.0
C485 C 0.33864 0.39086 0.11439 0.0
C486 C 0.34413 0.38696 0.07857 0.0
H487 H 0.41532 0.40073 0.03232 0.0
H488 H 0.39686 0.40547 0.06081 0.0
H489 H 0.40135 0.38318 0.07165 0.0
H490 H 0.36438 0.35374 0.10277 0.0
H491 H 0.35462 0.36028 0.16544 0.0
H492 H 0.93373 0.33517 0.61582 0.0
H493 H 0.95028 0.34442 0.55302 0.0
H494 H 0.01185 0.35651 0.59936 0.0
H495 H 0.9955 0.34727 0.66202 0.0
H496 H 0.98926 0.38477 0.52834 0.0
H497 H 0.99731 0.31058 0.51412 0.0
H498 H 0.97935 0.31253 0.54814 0.0
H499 H 0.00833 0.32604 0.5566 0.0
C500 C 0.95079 0.33981 0.6126 0.0
C501 C 0.96329 0.34037 0.64378 0.0
C502 C 0.96021 0.34512 0.57678 0.0
C503 C 0.98219 0.35089 0.5716 0.0
C504 C 0.99478 0.3518 0.60276 0.0
H505 H 0.06923 0.40676 0.37982 0.0
H506 H 0.0521 0.39954 0.44217 0.0
C507 C 0.98542 0.34658 0.63853 0.0
C508 C 0.99199 0.35582 0.53359 0.0
H509 H 0.01387 0.33763 0.4668 0.0
C510 C 0.99462 0.37448 0.51481 0.0
C511 C 0.9988 0.34223 0.51603 0.0
C512 C 0.99569 0.32161 0.53452 0.0
C513 C 0.00426 0.38011 0.47902 0.0
C514 C 0.01141 0.36673 0.46181 0.0
C515 C 0.00849 0.34791 0.48033 0.0
C516 C 0.02153 0.37169 0.4241 0.0
C517 C 0.00656 0.40014 0.45954 0.0
C518 C 0.00999 0.35834 0.39356 0.0
C519 C 0.01965 0.36246 0.35804 0.0
C520 C 0.04113 0.37986 0.35255 0.0
C521 C 0.05266 0.39324 0.38323 0.0
C522 C 0.0429 0.3892 0.41876 0.0
H523 H 0.9975 0.40705 0.47435 0.0
H524 H 0.02414 0.41291 0.4583 0.0
H525 H 1.00044 0.3961 0.43022 0.0
H526 H 0.99351 0.3447 0.39727 0.0
H527 H 0.01036 0.35185 0.33497 0.0
H528 H 0.6739 0.07208 0.88197 0.0
H529 H 0.66447 0.05582 0.94495 0.0
H530 H 0.64134 0.99174 0.89728 0.0
H531 H 0.65081 0.00779 0.83438 0.0
H532 H 0.61248 0.9973 0.95434 0.0
H533 H 0.6987 0.02786 -0.00089 0.0
H534 H 0.69247 0.04724 0.97769 0.0
H535 H 0.69082 0.02513 0.95025 0.0
C536 C 0.66677 0.05453 0.88492 0.0
C537 C 0.66317 0.04122 0.85329 0.0
C538 C 0.66144 0.0453 0.92086 0.0
C539 C 0.65236 0.02263 0.92562 0.0
C540 C 0.64838 0.00927 0.89407 0.0
H541 H 0.60499 0.93217 0.11444 0.0
H542 H 0.61211 0.94906 0.05211 0.0
C543 C 0.65384 0.01849 0.85821 0.0
C544 C 0.64724 0.01281 0.96356 0.0
H545 H 0.67108 0.00823 0.04377 0.0
C546 C 0.62523 0.99966 0.97401 0.0
C547 C 0.66398 0.01603 0.98896 0.0
C548 C 0.68786 0.02971 0.97859 0.0
C549 C 0.61947 0.9898 0.00962 0.0
C550 C 0.63622 0.99272 0.03493 0.0
C551 C 0.65825 0.00597 0.02436 0.0
C552 C 0.63138 0.98233 0.07261 0.0
C553 C 0.59553 0.9768 0.02002 0.0
C554 C 0.64033 0.99532 0.10477 0.0
C555 C 0.63661 0.98568 0.14026 0.0
C556 C 0.62379 0.96284 0.14433 0.0
C557 C 0.61477 0.94982 0.11218 0.0
C558 C 0.6187 0.95948 0.07658 0.0
H559 H 0.58549 0.98155 0.00263 0.0
H560 H 0.58947 0.95914 0.01509 0.0
H561 H 0.59296 0.97906 0.05009 0.0
H562 H 0.65025 0.01297 0.1024 0.0
H563 H 0.64381 0.99617 0.16449 0.0
H564 H 0.64412 0.64773 0.33177 0.0
H565 H 0.65043 0.63709 0.39377 0.0
H566 H 0.6139 0.66446 0.44468 0.0
H567 H 0.60683 0.67441 0.38251 0.0
H568 H 0.67203 0.66233 0.4517 0.0
H569 H 0.5863 0.60587 0.49528 0.0
H570 H 0.59352 0.61556 0.44764 0.0
H571 H 0.59094 0.6325 0.48281 0.0
C572 C 0.63724 0.65128 0.35614 0.0
C573 C 0.62488 0.6618 0.35231 0.0
C574 C 0.64087 0.64521 0.39156 0.0
C575 C 0.63234 0.64963 0.42387 0.0
C576 C 0.62012 0.6603 0.42012 0.0
H577 H 0.65258 0.64505 0.66196 0.0
H578 H 0.64321 0.65146 0.59885 0.0
C579 C 0.61623 0.66614 0.3846 0.0
C580 C 0.6372 0.64406 0.46151 0.0
H581 H 0.61357 0.6171 0.5432 0.0
C582 C 0.65922 0.65227 0.47155 0.0
C583 C 0.62047 0.6309 0.48741 0.0
C584 C 0.59649 0.62051 0.47763 0.0
C585 C 0.66499 0.64806 0.507 0.0
C586 C 0.6483 0.63528 0.53303 0.0
C587 C 0.62629 0.62695 0.52307 0.0
C588 C 0.65346 0.6308 0.57108 0.0
C589 C 0.68889 0.65766 0.51678 0.0
C590 C 0.66208 0.61686 0.57622 0.0
C591 C 0.66736 0.61307 0.61227 0.0
C592 C 0.66415 0.62324 0.64363 0.0
C593 C 0.65529 0.63703 0.63833 0.0
C594 C 0.6499 0.64068 0.60236 0.0
H595 H 0.6998 0.67001 0.49585 0.0
H596 H 0.69234 0.66547 0.54494 0.0
H597 H 0.69293 0.64435 0.51777 0.0
H598 H 0.66476 0.60895 0.55235 0.0
H599 H 0.6741 0.60233 0.61551 0.0
H600 H 0.01494 0.58101 0.20624 0.0
H601 H 0.01962 0.54909 0.21114 0.0
H602 H 0.08188 0.58835 0.26599 0.0
H603 H 0.07733 0.62053 0.2615 0.0
H604 H 0.0541 0.54246 0.184 0.0
H605 H 0.04606 0.53686 0.33973 0.0
H606 H 0.03799 0.5531 0.31205 0.0
H607 H 0.06646 0.5628 0.32081 0.0
C608 C 0.02969 0.58297 0.21931 0.0
C609 C 0.04567 0.60337 0.23378 0.0
C610 C 0.03235 0.56467 0.22196 0.0
C611 C 0.05096 0.5663 0.23931 0.0
C612 C 0.06725 0.5867 0.25296 0.0
H613 H 0.07742 0.4567 0.23587 0.0
H614 H 0.0821 0.49345 0.23071 0.0
C615 C 0.06465 0.60509 0.25021 0.0
C616 C 0.05283 0.54639 0.24372 0.0
H617 H 0.0511 0.51011 0.30912 0.0
C618 C 0.05368 0.53547 0.21134 0.0
C619 C 0.05206 0.53725 0.27945 0.0
C620 C 0.05043 0.54794 0.31509 0.0
C621 C 0.0534 0.51545 0.21369 0.0
C622 C 0.05244 0.50622 0.24941 0.0
C623 C 0.05198 0.51732 0.28181 0.0
C624 C 0.05022 0.48427 0.25363 0.0
C625 C 0.05326 0.50388 0.17794 0.0
C626 C 0.03097 0.46707 0.26903 0.0
C627 C 0.02824 0.4461 0.2721 0.0
C628 C 0.04478 0.44187 0.26001 0.0
C629 C 0.06429 0.4593 0.24531 0.0
C630 C 0.06698 0.48031 0.24217 0.0
H631 H 0.05 0.51116 0.15283 0.0
H632 H 0.06947 0.50511 0.17423 0.0
H633 H 0.04067 0.48624 0.17938 0.0
H634 H 0.01787 0.46981 0.27815 0.0
H635 H 0.01304 0.43318 0.28374 0.0
H636 H 0.45873 0.0781 0.75707 0.0
H637 H 0.49576 0.08334 0.76071 0.0
H638 H 0.47214 0.01872 0.71507 0.0
H639 H 0.43527 0.01336 0.71094 0.0
H640 H 0.50913 0.05817 0.80149 0.0
H641 H 0.52577 0.05679 0.64975 0.0
H642 H 0.50394 0.06083 0.66697 0.0
H643 H 0.50027 0.03371 0.66433 0.0
C644 C 0.46143 0.06506 0.74747 0.0
C645 C 0.44395 0.0453 0.73366 0.0
C646 C 0.48261 0.0681 0.74961 0.0
C647 C 0.48676 0.05155 0.73764 0.0
C648 C 0.46941 0.03189 0.72371 0.0
H649 H 0.58269 0.01682 0.79466 0.0
H650 H 0.55123 0.02222 0.78911 0.0
C651 C 0.44827 0.02881 0.72163 0.0
C652 C 0.50892 0.0542 0.74148 0.0
H653 H 0.5489 0.05116 0.69223 0.0
C654 C 0.51797 0.05694 0.77756 0.0
C655 C 0.52059 0.05287 0.71019 0.0
C656 C 0.51226 0.05111 0.67058 0.0
C657 C 0.53786 0.05731 0.78335 0.0
C658 C 0.54884 0.05465 0.75231 0.0
C659 C 0.54035 0.05299 0.71604 0.0
C660 C 0.56841 0.05223 0.7571 0.0
C661 C 0.54685 0.06029 0.8227 0.0
C662 C 0.5885 0.0672 0.74056 0.0
C663 C 0.60662 0.06417 0.74367 0.0
C664 C 0.60486 0.04592 0.76294 0.0
C665 C 0.58468 0.03105 0.7796 0.0
C666 C 0.56668 0.03418 0.77669 0.0
H667 H 0.54008 0.06811 0.84131 0.0
H668 H 0.54226 0.04402 0.83469 0.0
H669 H 0.56501 0.07044 0.82272 0.0
H670 H 0.59011 0.08116 0.72509 0.0
H671 H 0.62185 0.0759 0.73036 0.0
H672 H 0.54683 0.6216 0.2663 0.0
H673 H 0.51012 0.58899 0.26474 0.0
H674 H 0.5389 0.54854 0.24358 0.0
H675 H 0.57539 0.58071 0.24649 0.0
H676 H 0.48772 0.55892 0.21144 0.0
H677 H 0.50091 0.51735 0.33175 0.0
H678 H 0.51974 0.54566 0.32055 0.0
H679 H 0.52133 0.52405 0.29629 0.0
C680 C 0.54529 0.60572 0.26142 0.0
C681 C 0.56403 0.60369 0.25708 0.0
C682 C 0.52432 0.58711 0.26055 0.0
C683 C 0.52176 0.56622 0.25507 0.0
C684 C 0.54044 0.56435 0.24922 0.0
H685 H 0.4245 0.43414 0.21353 0.0
H686 H 0.45663 0.47051 0.21923 0.0
C687 C 0.56133 0.58281 0.25068 0.0
C688 C 0.49966 0.54628 0.25485 0.0
H689 H 0.47071 0.4946 0.29112 0.0
C690 C 0.48386 0.54497 0.22926 0.0
C691 C 0.4945 0.52814 0.27843 0.0
C692 C 0.50995 0.52895 0.30857 0.0
C693 C 0.46355 0.5256 0.22523 0.0
C694 C 0.45898 0.50716 0.24736 0.0
C695 C 0.47439 0.50874 0.27391 0.0
C696 C 0.43894 0.4856 0.242 0.0
C697 C 0.44742 0.52462 0.19638 0.0
C698 C 0.41826 0.48205 0.2528 0.0
C699 C 0.39972 0.46115 0.2497 0.0
C700 C 0.40159 0.44344 0.23583 0.0
C701 C 0.42236 0.44728 0.22445 0.0
C702 C 0.4408 0.4681 0.22765 0.0
H703 H 0.45452 0.53944 0.17828 0.0
H704 H 0.4418 0.50993 0.1783 0.0
H705 H 0.43283 0.5232 0.21088 0.0
H706 H 0.41655 0.49533 0.26435 0.0
H707 H 0.38403 0.45881 0.25877 0.0
H708 H 0.98702 0.56639 0.79536 0.0
H709 H 0.98165 0.52956 0.78912 0.0
H710 H 0.92153 0.50912 0.72852 0.0
H711 H 0.92676 0.54607 0.73441 0.0
H712 H 0.94522 0.48779 0.8117 0.0
H713 H 0.95988 0.49497 0.65733 0.0
H714 H 0.96747 0.51851 0.68686 0.0
H715 H 0.93927 0.50068 0.67463 0.0
C716 C 0.97258 0.5541 0.78079 0.0
C717 C 0.95742 0.5593 0.76509 0.0
C718 C 0.96952 0.53302 0.77738 0.0
C719 C 0.95134 0.51671 0.75801 0.0
C720 C 0.93582 0.52158 0.74318 0.0
H721 H 0.92509 0.38051 0.75519 0.0
H722 H 0.91961 0.41209 0.76047 0.0
C723 C 0.93881 0.54269 0.74673 0.0
C724 C 0.94922 0.4949 0.75253 0.0
H725 H 0.95348 0.46228 0.68611 0.0
C726 C 0.94676 0.48204 0.78424 0.0
C727 C 0.95145 0.48762 0.71666 0.0
C728 C 0.95482 0.50115 0.68184 0.0
C729 C 0.94695 0.46227 0.78113 0.0
C730 C 0.94946 0.45511 0.74529 0.0
C731 C 0.95142 0.46775 0.7135 0.0
C732 C 0.95202 0.43561 0.74054 0.0
C733 C 0.94544 0.4497 0.81638 0.0
C734 C 0.9718 0.43826 0.72657 0.0
C735 C 0.97496 0.4203 0.72331 0.0
C736 C 0.95834 0.39921 0.73388 0.0
C737 C 0.93829 0.39651 0.74702 0.0
C738 C 0.93516 0.41455 0.75025 0.0
H739 H 0.94781 0.45953 0.84215 0.0
H740 H 0.929 0.4348 0.81788 0.0
H741 H 0.95786 0.4444 0.81607 0.0
H742 H 0.98501 0.45436 0.71882 0.0
H743 H 0.99058 0.42306 0.71293 0.0
H744 H 0.382 0.92395 0.25243 0.0
H745 H 0.414 0.91896 0.24999 0.0
H746 H 0.4563 0.98765 0.27332 0.0
H747 H 0.42467 0.99274 0.2766 0.0
H748 H 0.44957 0.93784 0.20312 0.0
H749 H 0.47717 0.96011 0.35012 0.0
H750 H 0.45039 0.95422 0.33456 0.0
H751 H 0.47395 0.98095 0.32718 0.0
C752 C 0.3981 0.93796 0.25734 0.0
C753 C 0.40069 0.95872 0.26498 0.0
C754 C 0.41637 0.93507 0.25592 0.0
C755 C 0.43751 0.95284 0.26224 0.0
C756 C 0.44012 0.97357 0.26943 0.0
H757 H 0.5701 0.99173 0.22074 0.0
H758 H 0.53324 0.98627 0.22752 0.0
C759 C 0.42195 0.97646 0.27106 0.0
C760 C 0.45707 0.95016 0.25978 0.0
H761 H 0.50407 0.96178 0.30634 0.0
C762 C 0.46129 0.94269 0.22593 0.0
C763 C 0.47231 0.95633 0.28966 0.0
C764 C 0.46812 0.96313 0.32755 0.0
C765 C 0.48089 0.94239 0.22053 0.0
C766 C 0.49656 0.94975 0.24964 0.0
C767 C 0.492 0.9563 0.284 0.0
C768 C 0.51849 0.95231 0.244 0.0
C769 C 0.48521 0.93499 0.18339 0.0
C770 C 0.52228 0.93492 0.25094 0.0
C771 C 0.54341 0.93795 0.24718 0.0
C772 C 0.56107 0.95847 0.23646 0.0
C773 C 0.55698 0.97572 0.22904 0.0
C774 C 0.53592 0.97266 0.23288 0.0
H775 H 0.47105 0.92905 0.16391 0.0
H776 H 0.49978 0.9488 0.1699 0.0
H777 H 0.48896 0.92164 0.18804 0.0
H778 H 0.50896 0.91911 0.25964 0.0
H779 H 0.54592 0.9243 0.25307 0.0
H780 H 0.62332 0.54486 0.74612 0.0
H781 H 0.5914 0.50779 0.74848 0.0
H782 H 0.54899 0.53391 0.72425 0.0
H783 H 0.58054 0.57069 0.72106 0.0
H784 H 0.55569 0.49104 0.79499 0.0
H785 H 0.5285 0.48537 0.64766 0.0
H786 H 0.55521 0.50636 0.66337 0.0
H787 H 0.53159 0.50946 0.67033 0.0
C788 C 0.60721 0.54269 0.74102 0.0
C789 C 0.60457 0.5608 0.73314 0.0
C790 C 0.58899 0.52149 0.74238 0.0
C791 C 0.56784 0.51802 0.73576 0.0
C792 C 0.56518 0.53608 0.72836 0.0
H793 H 0.43541 0.42464 0.77795 0.0
H794 H 0.47234 0.45591 0.77089 0.0
C795 C 0.5833 0.55718 0.7268 0.0
C796 C 0.54832 0.49574 0.73817 0.0
H797 H 0.50145 0.46023 0.6914 0.0
C798 C 0.54403 0.48411 0.7721 0.0
C799 C 0.53317 0.48659 0.70818 0.0
C800 C 0.53746 0.4975 0.67022 0.0
C801 C 0.52442 0.46421 0.77747 0.0
C802 C 0.50881 0.45584 0.74827 0.0
C803 C 0.51347 0.46687 0.71381 0.0
C804 C 0.48683 0.43654 0.75394 0.0
C805 C 0.52001 0.45257 0.81469 0.0
C806 C 0.48287 0.41532 0.74681 0.0
C807 C 0.46171 0.3973 0.75075 0.0
C808 C 0.44418 0.40027 0.76183 0.0
C809 C 0.44843 0.42165 0.76938 0.0
C810 C 0.46953 0.43959 0.76538 0.0
H811 H 0.5342 0.46072 0.83413 0.0
H812 H 0.50553 0.45201 0.82816 0.0
H813 H 0.51606 0.43539 0.81017 0.0
H814 H 0.4961 0.41274 0.73787 0.0
H815 H 0.45907 0.38109 0.74474 0.0
H816 H 0.13631 0.4247 0.23141 0.0
H817 H 0.17111 0.42475 0.23399 0.0
H818 H 0.13602 0.35487 0.25111 0.0
H819 H 0.10119 0.35466 0.24894 0.0
H820 H 0.18349 0.40555 0.30092 0.0
H821 H 0.18186 0.36867 0.16185 0.0
H822 H 0.16707 0.38301 0.17077 0.0
H823 H 0.15706 0.356 0.18925 0.0
C824 C 0.13598 0.40929 0.23515 0.0
C825 C 0.11598 0.38966 0.23991 0.0
C826 C 0.15587 0.40938 0.2368 0.0
C827 C 0.1561 0.38982 0.24265 0.0
C828 C 0.13617 0.37012 0.24632 0.0
H829 H 0.25814 0.35535 0.25363 0.0
H830 H 0.22338 0.3552 0.25293 0.0
C831 C 0.11629 0.37004 0.24507 0.0
C832 C 0.17716 0.39007 0.24671 0.0
H833 H 0.21049 0.37471 0.20317 0.0
C834 C 0.1895 0.39891 0.27954 0.0
C835 C 0.18475 0.38118 0.21894 0.0
C836 C 0.17215 0.37175 0.18303 0.0
C837 C 0.20915 0.39879 0.28561 0.0
C838 C 0.21697 0.39015 0.25757 0.0
C839 C 0.20454 0.38133 0.2247 0.0
C840 C 0.238 0.39014 0.26145 0.0
C841 C 0.22098 0.40736 0.32246 0.0
C842 C 0.25785 0.40979 0.26697 0.0
C843 C 0.27776 0.40987 0.26788 0.0
C844 C 0.27824 0.39035 0.26265 0.0
C845 C 0.25833 0.37066 0.25783 0.0
C846 C 0.23844 0.37056 0.25728 0.0
H847 H 0.20973 0.4069 0.34478 0.0
H848 H 0.22863 0.39776 0.33206 0.0
H849 H 0.23408 0.42467 0.31884 0.0
H850 H 0.25806 0.4252 0.26935 0.0
H851 H 0.29282 0.42536 0.2712 0.0
H852 H 0.86921 0.29013 0.76715 0.0
H853 H 0.83475 0.25504 0.76506 0.0
H854 H 0.87077 0.22115 0.74882 0.0
H855 H 0.9053 0.25614 0.75045 0.0
H856 H 0.82363 0.22295 0.6975 0.0
H857 H 0.82417 0.18935 0.8388 0.0
H858 H 0.83819 0.21845 0.8295 0.0
H859 H 0.84931 0.20217 0.81226 0.0
C860 C 0.86984 0.27519 0.76373 0.0
C861 C 0.89001 0.27592 0.75899 0.0
C862 C 0.85013 0.25519 0.76237 0.0
C863 C 0.85027 0.23556 0.75683 0.0
C864 C 0.87036 0.23614 0.75332 0.0
H865 H 0.74787 0.09875 0.74868 0.0
H866 H 0.78282 0.13322 0.74937 0.0
C867 C 0.89006 0.25614 0.75428 0.0
C868 C 0.82939 0.21458 0.75276 0.0
H869 H 0.79562 0.16648 0.79764 0.0
C870 C 0.81741 0.21059 0.71937 0.0
C871 C 0.82154 0.19847 0.7812 0.0
C872 C 0.83382 0.2022 0.81764 0.0
C873 C 0.79782 0.19073 0.71346 0.0
C874 C 0.78969 0.17468 0.74221 0.0
C875 C 0.8018 0.17873 0.77559 0.0
C876 C 0.76859 0.15368 0.73858 0.0
C877 C 0.78637 0.18695 0.6761 0.0
C878 C 0.7489 0.1536 0.73186 0.0
C879 C 0.72891 0.13388 0.73098 0.0
C880 C 0.72814 0.11383 0.73741 0.0
C881 C 0.74789 0.1139 0.7435 0.0
C882 C 0.76788 0.13361 0.74406 0.0
H883 H 0.79787 0.19734 0.65372 0.0
H884 H 0.77871 0.16953 0.66735 0.0
H885 H 0.77332 0.1913 0.67847 0.0
H886 H 0.74889 0.16885 0.72846 0.0
H887 H 0.71399 0.13442 0.72665 0.0
H888 H 0.58118 0.71307 0.22928 0.0
H889 H 0.58135 0.74792 0.23117 0.0
H890 H 0.65096 0.78235 0.25149 0.0
H891 H 0.65096 0.74765 0.24989 0.0
H892 H 0.59821 0.77854 0.29716 0.0
H893 H 0.64057 0.81582 0.1625 0.0
H894 H 0.62656 0.78662 0.17073 0.0
H895 H 0.65276 0.80405 0.1919 0.0
C896 C 0.59659 0.72809 0.23357 0.0
C897 C 0.61607 0.7276 0.23937 0.0
C898 C 0.59663 0.74796 0.2348 0.0
C899 C 0.61617 0.76769 0.24131 0.0
C900 C 0.63574 0.76732 0.24608 0.0
H901 H 0.65022 0.90428 0.25342 0.0
H902 H 0.65063 0.86979 0.25323 0.0
C903 C 0.63569 0.74747 0.24518 0.0
C904 C 0.61598 0.78855 0.24503 0.0
H905 H 0.63343 0.83804 0.20292 0.0
C906 C 0.60582 0.79156 0.27653 0.0
C907 C 0.62615 0.80552 0.21829 0.0
C908 C 0.63704 0.80293 0.18375 0.0
C909 C 0.60582 0.81128 0.28233 0.0
C910 C 0.61569 0.82822 0.25524 0.0
C911 C 0.62587 0.82512 0.22372 0.0
C912 C 0.61547 0.84917 0.25863 0.0
C913 C 0.59577 0.81394 0.31795 0.0
C914 C 0.59562 0.84917 0.26213 0.0
C915 C 0.59539 0.8689 0.26288 0.0
C916 C 0.61498 0.88904 0.25935 0.0
C917 C 0.63486 0.88905 0.2563 0.0
C918 C 0.6351 0.86932 0.25604 0.0
H919 H 0.59556 0.80297 0.34055 0.0
H920 H 0.60481 0.83109 0.3283 0.0
H921 H 0.57856 0.8095 0.31233 0.0
H922 H 0.58019 0.8339 0.26312 0.0
H923 H 0.57977 0.86832 0.26474 0.0
H924 H 0.8691 0.57985 0.7298 0.0
H925 H 0.83463 0.58042 0.73206 0.0
H926 H 0.87056 0.65021 0.75005 0.0
H927 H 0.90511 0.64982 0.74818 0.0
H928 H 0.82237 0.59905 0.79884 0.0
H929 H 0.82515 0.63806 0.66147 0.0
H930 H 0.83985 0.62356 0.66977 0.0
H931 H 0.84976 0.65031 0.68939 0.0
C932 C 0.86971 0.59539 0.73362 0.0
C933 C 0.88985 0.61481 0.73877 0.0
C934 C 0.84999 0.59565 0.73508 0.0
C935 C 0.85009 0.61535 0.74113 0.0
C936 C 0.87017 0.63487 0.74507 0.0
H937 H 0.74783 0.64972 0.75313 0.0
H938 H 0.78272 0.65011 0.75266 0.0
C939 C 0.88988 0.6346 0.74399 0.0
C940 C 0.82916 0.61536 0.74535 0.0
H941 H 0.79627 0.63152 0.70256 0.0
C942 C 0.81657 0.60608 0.77779 0.0
C943 C 0.82184 0.62474 0.71802 0.0
C944 C 0.83471 0.63466 0.68251 0.0
C945 C 0.79692 0.60617 0.78389 0.0
C946 C 0.78934 0.61525 0.75624 0.0
C947 C 0.80203 0.62457 0.72379 0.0
C948 C 0.76821 0.61509 0.76001 0.0
C949 C 0.78482 0.59707 0.82036 0.0
C950 C 0.74839 0.59532 0.76479 0.0
C951 C 0.72842 0.5951 0.76563 0.0
C952 C 0.72784 0.61461 0.76099 0.0
C953 C 0.74771 0.63442 0.75687 0.0
C954 C 0.76767 0.63466 0.75644 0.0
H955 H 0.79594 0.59735 0.84275 0.0
H956 H 0.77697 0.60644 0.83027 0.0
H957 H 0.77186 0.57977 0.81607 0.0
H958 H 0.74826 0.57993 0.76666 0.0
H959 H 0.71339 0.57954 0.76837 0.0
H960 H 0.29213 0.8682 0.22997 0.0
H961 H 0.25726 0.8335 0.23188 0.0
H962 H 0.22257 0.86884 0.24687 0.0
H963 H 0.25731 0.90358 0.24532 0.0
H964 H 0.22588 0.82099 0.29722 0.0
H965 H 0.19015 0.82312 0.159 0.0
H966 H 0.21929 0.83831 0.16799 0.0
H967 H 0.20187 0.84776 0.18676 0.0
C968 C 0.27706 0.86862 0.23304 0.0
C969 C 0.27749 0.88865 0.23744 0.0
C970 C 0.25717 0.84877 0.2343 0.0
C971 C 0.23737 0.84863 0.2394 0.0
C972 C 0.23767 0.86861 0.2426 0.0
H973 H 0.10063 0.74666 0.25175 0.0
H974 H 0.13528 0.78142 0.25068 0.0
C975 C 0.25754 0.88844 0.24171 0.0
C976 C 0.21649 0.82761 0.24347 0.0
H977 H 0.16749 0.79458 0.20049 0.0
C978 C 0.21311 0.81511 0.27605 0.0
C979 C 0.19985 0.82018 0.21598 0.0
C980 C 0.20288 0.8329 0.18027 0.0
C981 C 0.19332 0.79548 0.28218 0.0
C982 C 0.1767 0.78783 0.25443 0.0
C983 C 0.18017 0.8004 0.2218 0.0
C984 C 0.15565 0.76678 0.25835 0.0
C985 C 0.19023 0.78351 0.31881 0.0
C986 C 0.15546 0.74693 0.26347 0.0
C987 C 0.13563 0.72703 0.26462 0.0
C988 C 0.11558 0.72656 0.26001 0.0
C989 C 0.11578 0.74646 0.2555 0.0
C990 C 0.13559 0.76635 0.25472 0.0
H991 H 0.20111 0.79466 0.34113 0.0
H992 H 0.173 0.7758 0.32868 0.0
H993 H 0.19444 0.77044 0.31475 0.0
H994 H 0.17067 0.74671 0.2654 0.0
H995 H 0.13606 0.71198 0.26767 0.0
H996 H 0.35525 0.25683 0.75375 0.0
H997 H 0.35531 0.22212 0.7552 0.0
H998 H 0.42442 0.25637 0.73044 0.0
H999 H 0.42454 0.29118 0.72874 0.0
H1000 H 0.37139 0.20277 0.69635 0.0
H1001 H 0.41614 0.22189 0.83239 0.0
H1002 H 0.40172 0.23567 0.81709 0.0
H1003 H 0.42757 0.24253 0.79637 0.0
C1004 C 0.37042 0.25697 0.74817 0.0
C1005 C 0.38991 0.27679 0.74124 0.0
C1006 C 0.37042 0.23713 0.74907 0.0
C1007 C 0.38992 0.23675 0.74345 0.0
C1008 C 0.40926 0.25638 0.7353 0.0
H1009 H 0.42554 0.13566 0.76238 0.0
H1010 H 0.42497 0.17005 0.75974 0.0
C1011 C 0.40925 0.27622 0.73412 0.0
C1012 C 0.39012 0.2159 0.74694 0.0
H1013 H 0.40822 0.18882 0.80276 0.0
C1014 C 0.37939 0.19965 0.7196 0.0
C1015 C 0.40067 0.21199 0.77723 0.0
C1016 C 0.41209 0.22882 0.80768 0.0
C1017 C 0.37925 0.17966 0.72137 0.0
C1018 C 0.38953 0.17554 0.75205 0.0
C1019 C 0.40027 0.19189 0.77937 0.0
C1020 C 0.38965 0.15457 0.75595 0.0
C1021 C 0.36866 0.16348 0.68969 0.0
C1022 C 0.36998 0.13437 0.75603 0.0
C1023 C 0.37029 0.11469 0.75709 0.0
C1024 C 0.39026 0.1148 0.75898 0.0
C1025 C 0.40988 0.13502 0.76101 0.0
C1026 C 0.40957 0.1547 0.7594 0.0
H1027 H 0.36763 0.17162 0.66367 0.0
H1028 H 0.37785 0.15488 0.68327 0.0
H1029 H 0.35172 0.15109 0.69789 0.0
H1030 H 0.35436 0.1338 0.7547 0.0
H1031 H 0.35488 0.09938 0.75584 0.0
loop_
_geom_bond_atom_site_label_1
_geom_bond_atom_site_label_2
_geom_bond_distance
_geom_bond_site_symmetry_2
_ccdc_geom_bond_type
Co0 O1 2.216 . S
Co0 O2 2.091 . S
Co0 O4 2.004 . S
Co0 O10 2.021 . S
Co0 O12 2.137 . S
Co0 O13 2.244 . S
O1 Co0 2.216 . S
O1 C8 1.247 . S
O2 Co0 2.091 . S
O2 C8 1.261 . S
C3 O12 1.247 . S
C3 O13 1.272 . S
O4 Co0 2.004 . S
O4 C9 1.259 . S
Co5 O6 2.068 . S
Co5 O11 2.071 . S
Co5 O13 2.166 . S
O6 Co5 2.068 . S
O6 C9 1.235 . S
C7 O10 1.238 . S
C7 O11 1.241 . S
C8 O1 1.247 . S
C8 O2 1.261 . S
C9 O4 1.259 . S
C9 O6 1.235 . S
O10 Co0 2.021 . S
O10 C7 1.238 . S
O11 Co5 2.071 . S
O11 C7 1.241 . S
O12 Co0 2.137 . S
O12 C3 1.247 . S
O13 Co0 2.244 . S
O13 C3 1.272 . S
O13 Co5 2.166 . S
Co14 O15 2.216 . S
Co14 O16 2.091 . S
Co14 O18 2.004 . S
Co14 O24 2.021 . S
Co14 O26 2.137 . S
Co14 O27 2.244 . S
O15 Co14 2.216 . S
O15 C22 1.247 . S
O16 Co14 2.091 . S
O16 C22 1.261 . S
C17 O26 1.247 . S
C17 O27 1.272 . S
O18 Co14 2.004 . S
O18 C23 1.259 . S
Co19 O20 2.097 . S
Co19 O25 2.052 . S
Co19 O27 2.145 . S
O20 Co19 2.097 . S
O20 C23 1.235 . S
C21 O24 1.238 . S
C21 O25 1.241 . S
C22 O15 1.247 . S
C22 O16 1.261 . S
C23 O18 1.259 . S
C23 O20 1.235 . S
O24 Co14 2.021 . S
O24 C21 1.238 . S
O25 Co19 2.052 . S
O25 C21 1.241 . S
O26 Co14 2.137 . S
O26 C17 1.247 . S
O27 Co14 2.244 . S
O27 C17 1.272 . S
O27 Co19 2.145 . S
Co28 O29 2.216 . S
Co28 O30 2.091 . S
Co28 O32 2.004 . S
Co28 O38 2.021 . S
Co28 O40 2.137 . S
Co28 O41 2.244 . S
O29 Co28 2.216 . S
O29 C36 1.247 . S
O30 Co28 2.091 . S
O30 C36 1.261 . S
C31 O40 1.247 . S
C31 O41 1.272 . S
O32 Co28 2.004 . S
O32 C37 1.259 . S
Co33 O34 2.061 . S
Co33 O39 2.052 . S
Co33 O41 2.135 . S
O34 Co33 2.061 . S
O34 C37 1.235 . S
C35 O38 1.238 . S
C35 O39 1.241 . S
C36 O29 1.247 . S
C36 O30 1.261 . S
C37 O32 1.259 . S
C37 O34 1.235 . S
O38 Co28 2.021 . S
O38 C35 1.238 . S
O39 Co33 2.052 . S
O39 C35 1.241 . S
O40 Co28 2.137 . S
O40 C31 1.247 . S
O41 Co28 2.244 . S
O41 C31 1.272 . S
O41 Co33 2.135 . S
Co42 O43 2.216 . S
Co42 O44 2.091 . S
Co42 O46 2.004 . S
Co42 O52 2.021 . S
Co42 O54 2.137 . S
Co42 O55 2.244 . S
O43 Co42 2.216 . S
O43 C50 1.247 . S
O44 Co42 2.091 . S
O44 C50 1.261 . S
C45 O54 1.247 . S
C45 O55 1.272 . S
O46 Co42 2.004 . S
O46 C51 1.259 . S
Co47 O48 2.068 . S
Co47 O53 2.072 . S
Co47 O55 2.166 . S
O48 Co47 2.068 . S
O48 C51 1.235 . S
C49 O52 1.238 . S
C49 O53 1.241 . S
C50 O43 1.247 . S
C50 O44 1.261 . S
C51 O46 1.259 . S
C51 O48 1.235 . S
O52 Co42 2.021 . S
O52 C49 1.238 . S
O53 Co47 2.072 . S
O53 C49 1.241 . S
O54 Co42 2.137 . S
O54 C45 1.247 . S
O55 Co42 2.244 . S
O55 C45 1.272 . S
O55 Co47 2.166 . S
Co56 O57 2.216 . S
Co56 O58 2.091 . S
Co56 O60 2.004 . S
Co56 O66 2.021 . S
Co56 O68 2.137 . S
Co56 O69 2.244 . S
O57 Co56 2.216 . S
O57 C64 1.247 . S
O58 Co56 2.091 . S
O58 C64 1.261 . S
C59 O68 1.247 . S
C59 O69 1.272 . S
O60 Co56 2.004 . S
O60 C65 1.259 . S
Co61 O62 2.096 . S
Co61 O67 2.052 . S
Co61 O69 2.145 . S
O62 Co61 2.096 . S
O62 C65 1.235 . S
C63 O66 1.238 . S
C63 O67 1.241 . S
C64 O57 1.247 . S
C64 O58 1.261 . S
C65 O60 1.259 . S
C65 O62 1.235 . S
O66 Co56 2.021 . S
O66 C63 1.238 . S
O67 Co61 2.052 . S
O67 C63 1.241 . S
O68 Co56 2.137 . S
O68 C59 1.247 . S
O69 Co56 2.244 . S
O69 C59 1.272 . S
O69 Co61 2.145 . S
Co70 O71 2.216 . S
Co70 O72 2.091 . S
Co70 O74 2.004 . S
Co70 O80 2.021 . S
Co70 O82 2.137 . S
Co70 O83 2.244 . S
O71 Co70 2.216 . S
O71 C78 1.247 . S
O72 Co70 2.091 . S
O72 C78 1.261 . S
C73 O82 1.247 . S
C73 O83 1.272 . S
O74 Co70 2.004 . S
O74 C79 1.259 . S
Co75 O76 2.061 . S
Co75 O81 2.052 . S
Co75 O83 2.135 . S
O76 Co75 2.061 . S
O76 C79 1.235 . S
C77 O80 1.238 . S
C77 O81 1.241 . S
C78 O71 1.247 . S
C78 O72 1.261 . S
C79 O74 1.259 . S
C79 O76 1.235 . S
O80 Co70 2.021 . S
O80 C77 1.238 . S
O81 Co75 2.052 . S
O81 C77 1.241 . S
O82 Co70 2.137 . S
O82 C73 1.247 . S
O83 Co70 2.244 . S
O83 C73 1.272 . S
O83 Co75 2.135 . S
Co84 O85 2.216 . S
Co84 O86 2.091 . S
Co84 O88 2.004 . S
Co84 O94 2.021 . S
Co84 O96 2.137 . S
Co84 O97 2.244 . S
O85 Co84 2.216 . S
O85 C92 1.247 . S
O86 Co84 2.091 . S
O86 C92 1.261 . S
C87 O96 1.247 . S
C87 O97 1.272 . S
O88 Co84 2.004 . S
O88 C93 1.259 . S
Co89 O90 2.068 . S
Co89 O95 2.071 . S
Co89 O97 2.166 . S
O90 Co89 2.068 . S
O90 C93 1.235 . S
C91 O94 1.238 . S
C91 O95 1.241 . S
C92 O85 1.247 . S
C92 O86 1.261 . S
C93 O88 1.259 . S
C93 O90 1.235 . S
O94 Co84 2.021 . S
O94 C91 1.238 . S
O95 Co89 2.071 . S
O95 C91 1.241 . S
O96 Co84 2.137 . S
O96 C87 1.247 . S
O97 Co84 2.244 . S
O97 C87 1.272 . S
O97 Co89 2.166 . S
Co98 O99 2.216 . S
Co98 O100 2.091 . S
Co98 O102 2.004 . S
Co98 O108 2.021 . S
Co98 O110 2.137 . S
Co98 O111 2.244 . S
O99 Co98 2.216 . S
O99 C106 1.247 . S
O100 Co98 2.091 . S
O100 C106 1.261 . S
C101 O110 1.247 . S
C101 O111 1.272 . S
O102 Co98 2.004 . S
O102 C107 1.259 . S
Co103 O104 2.061 . S
Co103 O109 2.052 . S
Co103 O111 2.135 . S
O104 Co103 2.061 . S
O104 C107 1.235 . S
C105 O108 1.238 . S
C105 O109 1.241 . S
C106 O99 1.247 . S
C106 O100 1.261 . S
C107 O102 1.259 . S
C107 O104 1.235 . S
O108 Co98 2.021 . S
O108 C105 1.238 . S
O109 Co103 2.052 . S
O109 C105 1.241 . S
O110 Co98 2.137 . S
O110 C101 1.247 . S
O111 Co98 2.244 . S
O111 C101 1.272 . S
O111 Co103 2.135 . S
Co112 O113 2.216 . S
Co112 O114 2.091 . S
Co112 O116 2.004 . S
Co112 O122 2.021 . S
Co112 O124 2.137 . S
Co112 O125 2.244 . S
O113 Co112 2.216 . S
O113 C120 1.247 . S
O114 Co112 2.091 . S
O114 C120 1.261 . S
C115 O124 1.247 . S
C115 O125 1.272 . S
O116 Co112 2.004 . S
O116 C121 1.259 . S
Co117 O118 2.097 . S
Co117 O123 2.052 . S
Co117 O125 2.145 . S
O118 Co117 2.097 . S
O118 C121 1.235 . S
C119 O122 1.238 . S
C119 O123 1.241 . S
C120 O113 1.247 . S
C120 O114 1.261 . S
C121 O116 1.259 . S
C121 O118 1.235 . S
O122 Co112 2.021 . S
O122 C119 1.238 . S
O123 Co117 2.052 . S
O123 C119 1.241 . S
O124 Co112 2.137 . S
O124 C115 1.247 . S
O125 Co112 2.244 . S
O125 C115 1.272 . S
O125 Co117 2.145 . S
Co126 O127 2.216 . S
Co126 O128 2.091 . S
Co126 O130 2.004 . S
Co126 O136 2.021 . S
Co126 O138 2.137 . S
Co126 O139 2.244 . S
O127 Co126 2.216 . S
O127 C134 1.247 . S
O128 Co126 2.091 . S
O128 C134 1.261 . S
C129 O138 1.247 . S
C129 O139 1.272 . S
O130 Co126 2.004 . S
O130 C135 1.259 . S
Co131 O132 2.068 . S
Co131 O137 2.072 . S
Co131 O139 2.166 . S
O132 Co131 2.068 . S
O132 C135 1.235 . S
C133 O136 1.238 . S
C133 O137 1.241 . S
C134 O127 1.247 . S
C134 O128 1.261 . S
C135 O130 1.259 . S
C135 O132 1.235 . S
O136 Co126 2.021 . S
O136 C133 1.238 . S
O137 Co131 2.072 . S
O137 C133 1.241 . S
O138 Co126 2.137 . S
O138 C129 1.247 . S
O139 Co126 2.244 . S
O139 C129 1.272 . S
O139 Co131 2.166 . S
Co140 O141 2.216 . S
Co140 O142 2.091 . S
Co140 O144 2.004 . S
Co140 O150 2.021 . S
Co140 O152 2.137 . S
Co140 O153 2.244 . S
O141 Co140 2.216 . S
O141 C148 1.247 . S
O142 Co140 2.091 . S
O142 C148 1.261 . S
C143 O152 1.247 . S
C143 O153 1.272 . S
O144 Co140 2.004 . S
O144 C149 1.259 . S
Co145 O146 2.061 . S
Co145 O151 2.052 . S
Co145 O153 2.135 . S
O146 Co145 2.061 . S
O146 C149 1.235 . S
C147 O150 1.238 . S
C147 O151 1.241 . S
C148 O141 1.247 . S
C148 O142 1.261 . S
C149 O144 1.259 . S
C149 O146 1.235 . S
O150 Co140 2.021 . S
O150 C147 1.238 . S
O151 Co145 2.052 . S
O151 C147 1.241 . S
O152 Co140 2.137 . S
O152 C143 1.247 . S
O153 Co140 2.244 . S
O153 C143 1.272 . S
O153 Co145 2.135 . S
Co154 O155 2.216 . S
Co154 O156 2.091 . S
Co154 O158 2.004 . S
Co154 O164 2.021 . S
Co154 O166 2.137 . S
Co154 O167 2.244 . S
O155 Co154 2.216 . S
O155 C162 1.247 . S
O156 Co154 2.091 . S
O156 C162 1.261 . S
C157 O166 1.247 . S
C157 O167 1.272 . S
O158 Co154 2.004 . S
O158 C163 1.259 . S
Co159 O160 2.097 . S
Co159 O165 2.052 . S
Co159 O167 2.145 . S
O160 Co159 2.097 . S
O160 C163 1.235 . S
C161 O164 1.238 . S
C161 O165 1.241 . S
C162 O155 1.247 . S
C162 O156 1.261 . S
C163 O158 1.259 . S
C163 O160 1.235 . S
O164 Co154 2.021 . S
O164 C161 1.238 . S
O165 Co159 2.052 . S
O165 C161 1.241 . S
O166 Co154 2.137 . S
O166 C157 1.247 . S
O167 Co154 2.244 . S
O167 C157 1.272 . S
O167 Co159 2.145 . S
H168 C176 0.929 . S
H169 C178 0.930 . S
H170 C180 0.930 . S
H171 C183 0.929 . S
H172 C186 0.930 . S
H173 C188 0.960 1_556 S
H174 C188 0.960 . S
H175 C188 0.960 . S
C176 H168 0.929 . S
C176 C177 1.377 . S
C176 C178 1.384 . S
C177 C176 1.377 . S
C177 C183 1.390 . S
C178 H169 0.930 . S
C178 C176 1.384 . S
C178 C179 1.372 . S
C179 C178 1.372 . S
C179 C180 1.400 . S
C179 C184 1.490 . S
C180 H170 0.930 . S
C180 C179 1.400 . S
C180 C183 1.386 . S
H181 C197 0.930 . S
H182 C198 0.931 . S
C183 H171 0.929 . S
C183 C177 1.390 . S
C183 C180 1.386 . S
C184 C179 1.490 . S
C184 C186 1.395 1_455 S
C184 C187 1.403 . S
H185 C191 0.930 . S
C186 H172 0.930 . S
C186 C184 1.395 1_655 S
C186 C189 1.403 1_554 S
C187 C184 1.403 . S
C187 C188 1.524 . S
C187 C191 1.400 1_554 S
C188 H173 0.960 1_554 S
C188 H174 0.960 . S
C188 H175 0.960 . S
C188 C187 1.524 . S
C189 C186 1.403 1_556 S
C189 C190 1.392 . S
C189 C193 1.495 . S
C190 C189 1.392 . S
C190 C191 1.385 1_655 S
C190 C192 1.478 . S
C191 H185 0.930 . S
C191 C187 1.400 1_556 S
C191 C190 1.385 1_455 S
C192 C190 1.478 . S
C192 C194 1.381 . S
C192 C198 1.383 . S
C193 C189 1.495 . S
C193 H199 0.959 1_556 S
C193 H200 0.961 . S
C193 H201 0.960 . S
C194 C192 1.381 . S
C194 C195 1.394 . S
C194 H202 0.930 . S
C195 C194 1.394 . S
C195 C196 1.383 . S
C195 H203 0.929 . S
C196 C195 1.383 . S
C196 C197 1.377 . S
C197 H181 0.930 . S
C197 C196 1.377 . S
C197 C198 1.379 . S
C198 H182 0.931 . S
C198 C192 1.383 . S
C198 C197 1.379 . S
H199 C193 0.959 1_554 S
H200 C193 0.961 . S
H201 C193 0.960 . S
H202 C194 0.930 . S
H203 C195 0.929 . S
H204 C212 0.929 . S
H205 C214 0.930 . S
H206 C216 0.930 . S
H207 C219 0.929 1_545 S
H208 C222 0.930 . S
H209 C224 0.960 . S
H210 C224 0.960 . S
H211 C224 0.960 . S
C212 H204 0.929 . S
C212 C213 1.377 . S
C212 C214 1.384 . S
C213 C212 1.377 . S
C213 C219 1.390 . S
C214 H205 0.930 . S
C214 C212 1.384 . S
C214 C215 1.372 . S
C215 C214 1.372 . S
C215 C216 1.400 1_565 S
C215 C220 1.490 . S
C216 H206 0.930 . S
C216 C215 1.400 1_545 S
C216 C219 1.386 1_545 S
H217 C233 0.930 . S
H218 C234 0.931 . S
C219 H207 0.929 1_565 S
C219 C213 1.390 . S
C219 C216 1.386 1_565 S
C220 C215 1.490 . S
C220 C222 1.395 . S
C220 C223 1.403 1_565 S
H221 C227 0.930 . S
C222 H208 0.930 . S
C222 C220 1.395 . S
C222 C225 1.403 . S
C223 C220 1.403 1_545 S
C223 C224 1.524 . S
C223 C227 1.400 . S
C224 H209 0.960 . S
C224 H210 0.960 . S
C224 H211 0.960 . S
C224 C223 1.524 . S
C225 C222 1.403 . S
C225 C226 1.392 1_565 S
C225 C229 1.495 . S
C226 C225 1.392 1_545 S
C226 C227 1.385 . S
C226 C228 1.478 . S
C227 H221 0.930 . S
C227 C223 1.400 . S
C227 C226 1.385 . S
C228 C226 1.478 . S
C228 C230 1.381 1_545 S
C228 C234 1.383 . S
C229 C225 1.495 . S
C229 H235 0.959 . S
C229 H236 0.961 . S
C229 H237 0.960 . S
C230 C228 1.381 1_565 S
C230 C231 1.394 1_565 S
C230 H238 0.930 . S
C231 C230 1.394 1_545 S
C231 C232 1.383 . S
C231 H239 0.929 1_545 S
C232 C231 1.383 . S
C232 C233 1.377 . S
C233 H217 0.930 . S
C233 C232 1.377 . S
C233 C234 1.379 . S
C234 H218 0.931 . S
C234 C228 1.383 . S
C234 C233 1.379 . S
H235 C229 0.959 . S
H236 C229 0.961 . S
H237 C229 0.960 . S
H238 C230 0.930 . S
H239 C231 0.929 1_565 S
H240 C248 0.929 . S
H241 C250 0.930 . S
H242 C252 0.930 . S
H243 C255 0.929 . S
H244 C258 0.930 . S
H245 C260 0.960 . S
H246 C260 0.960 . S
H247 C260 0.960 . S
C248 H240 0.929 . S
C248 C249 1.377 . S
C248 C250 1.384 . S
C249 C248 1.377 . S
C249 C255 1.390 . S
C250 H241 0.930 . S
C250 C248 1.384 . S
C250 C251 1.372 . S
C251 C250 1.372 . S
C251 C252 1.400 . S
C251 C256 1.490 . S
C252 H242 0.930 . S
C252 C251 1.400 . S
C252 C255 1.386 . S
H253 C269 0.930 . S
H254 C270 0.931 . S
C255 H243 0.929 . S
C255 C249 1.390 . S
C255 C252 1.386 . S
C256 C251 1.490 . S
C256 C258 1.395 . S
C256 C259 1.403 . S
H257 C263 0.930 . S
C258 H244 0.930 . S
C258 C256 1.395 . S
C258 C261 1.403 1_554 S
C259 C256 1.403 . S
C259 C260 1.524 . S
C259 C263 1.400 1_554 S
C260 H245 0.960 . S
C260 H246 0.960 . S
C260 H247 0.960 . S
C260 C259 1.524 . S
C261 C258 1.403 1_556 S
C261 C262 1.392 . S
C261 C265 1.495 . S
C262 C261 1.392 . S
C262 C263 1.385 . S
C262 C264 1.478 . S
C263 H257 0.930 . S
C263 C259 1.400 1_556 S
C263 C262 1.385 . S
C264 C262 1.478 . S
C264 C266 1.381 . S
C264 C270 1.383 . S
C265 C261 1.495 . S
C265 H271 0.959 . S
C265 H272 0.961 . S
C265 H273 0.960 . S
C266 C264 1.381 . S
C266 C267 1.394 . S
C266 H274 0.930 . S
C267 C266 1.394 . S
C267 C268 1.383 . S
C267 H275 0.929 . S
C268 C267 1.383 . S
C268 C269 1.377 . S
C269 H253 0.930 . S
C269 C268 1.377 . S
C269 C270 1.379 . S
C270 H254 0.931 . S
C270 C264 1.383 . S
C270 C269 1.379 . S
H271 C265 0.959 . S
H272 C265 0.961 . S
H273 C265 0.960 . S
H274 C266 0.930 . S
H275 C267 0.929 . S
H276 C284 0.929 . S
H277 C286 0.930 1_655 S
H278 C288 0.930 . S
H279 C291 0.929 . S
H280 C294 0.930 . S
H281 C296 0.960 . S
H282 C296 0.960 . S
H283 C296 0.960 1_455 S
C284 H276 0.929 . S
C284 C285 1.377 . S
C284 C286 1.384 . S
C285 C284 1.377 . S
C285 C291 1.390 . S
C286 H277 0.930 1_455 S
C286 C284 1.384 . S
C286 C287 1.372 . S
C287 C286 1.372 . S
C287 C288 1.400 . S
C287 C292 1.490 . S
C288 H278 0.930 . S
C288 C287 1.400 . S
C288 C291 1.386 . S
H289 C305 0.930 . S
H290 C306 0.931 1_455 S
C291 H279 0.929 . S
C291 C285 1.390 . S
C291 C288 1.386 . S
C292 C287 1.490 . S
C292 C294 1.395 . S
C292 C295 1.403 1_455 S
H293 C299 0.930 . S
C294 H280 0.930 . S
C294 C292 1.395 . S
C294 C297 1.403 . S
C295 C292 1.403 1_655 S
C295 C296 1.524 . S
C295 C299 1.400 . S
C296 H281 0.960 . S
C296 H282 0.960 . S
C296 H283 0.960 1_655 S
C296 C295 1.524 . S
C297 C294 1.403 . S
C297 C298 1.392 1_455 S
C297 C301 1.495 . S
C298 C297 1.392 1_655 S
C298 C299 1.385 . S
C298 C300 1.478 . S
C299 H293 0.930 . S
C299 C295 1.400 . S
C299 C298 1.385 . S
C300 C298 1.478 . S
C300 C302 1.381 . S
C300 C306 1.383 . S
C301 C297 1.495 . S
C301 H307 0.959 . S
C301 H308 0.961 . S
C301 H309 0.960 1_455 S
C302 C300 1.381 . S
C302 C303 1.394 . S
C302 H310 0.930 . S
C303 C302 1.394 . S
C303 C304 1.383 . S
C303 H311 0.929 . S
C304 C303 1.383 . S
C304 C305 1.377 . S
C305 H289 0.930 . S
C305 C304 1.377 . S
C305 C306 1.379 . S
C306 H290 0.931 1_655 S
C306 C300 1.383 . S
C306 C305 1.379 . S
H307 C301 0.959 . S
H308 C301 0.961 . S
H309 C301 0.960 1_655 S
H310 C302 0.930 . S
H311 C303 0.929 . S
H312 C320 0.929 . S
H313 C322 0.930 . S
H314 C324 0.930 . S
H315 C327 0.929 . S
H316 C330 0.930 . S
H317 C332 0.960 1_554 S
H318 C332 0.960 . S
H319 C332 0.960 . S
C320 H312 0.929 . S
C320 C321 1.377 . S
C320 C322 1.384 . S
C321 C320 1.377 . S
C321 C327 1.390 . S
C322 H313 0.930 . S
C322 C320 1.384 . S
C322 C323 1.372 . S
C323 C322 1.372 . S
C323 C324 1.400 . S
C323 C328 1.490 . S
C324 H314 0.930 . S
C324 C323 1.400 . S
C324 C327 1.386 . S
H325 C341 0.930 . S
H326 C342 0.931 . S
C327 H315 0.929 . S
C327 C321 1.390 . S
C327 C324 1.386 . S
C328 C323 1.490 . S
C328 C330 1.395 1_545 S
C328 C331 1.403 . S
H329 C335 0.930 . S
C330 H316 0.930 . S
C330 C328 1.395 1_565 S
C330 C333 1.403 1_556 S
C331 C328 1.403 . S
C331 C332 1.524 . S
C331 C335 1.400 1_556 S
C332 H317 0.960 1_556 S
C332 H318 0.960 . S
C332 H319 0.960 . S
C332 C331 1.524 . S
C333 C330 1.403 1_554 S
C333 C334 1.392 . S
C333 C337 1.495 . S
C334 C333 1.392 . S
C334 C335 1.385 1_565 S
C334 C336 1.478 . S
C335 H329 0.930 . S
C335 C331 1.400 1_554 S
C335 C334 1.385 1_545 S
C336 C334 1.478 . S
C336 C338 1.381 . S
C336 C342 1.383 . S
C337 C333 1.495 . S
C337 H343 0.959 1_554 S
C337 H344 0.961 . S
C337 H345 0.960 . S
C338 C336 1.381 . S
C338 C339 1.394 . S
C338 H346 0.930 . S
C339 C338 1.394 . S
C339 C340 1.383 . S
C339 H347 0.929 . S
C340 C339 1.383 . S
C340 C341 1.377 . S
C341 H325 0.930 . S
C341 C340 1.377 . S
C341 C342 1.379 . S
C342 H326 0.931 . S
C342 C336 1.383 . S
C342 C341 1.379 . S
H343 C337 0.959 1_556 S
H344 C337 0.961 . S
H345 C337 0.960 . S
H346 C338 0.930 . S
H347 C339 0.929 . S
H348 C356 0.929 . S
H349 C358 0.930 . S
H350 C360 0.930 . S
H351 C363 0.929 . S
H352 C366 0.930 . S
H353 C368 0.960 . S
H354 C368 0.960 . S
H355 C368 0.960 . S
C356 H348 0.929 . S
C356 C357 1.377 . S
C356 C358 1.384 . S
C357 C356 1.377 . S
C357 C363 1.390 . S
C358 H349 0.930 . S
C358 C356 1.384 . S
C358 C359 1.372 . S
C359 C358 1.372 . S
C359 C360 1.400 . S
C359 C364 1.490 . S
C360 H350 0.930 . S
C360 C359 1.400 . S
C360 C363 1.386 . S
H361 C377 0.930 . S
H362 C378 0.931 . S
C363 H351 0.929 . S
C363 C357 1.390 . S
C363 C360 1.386 . S
C364 C359 1.490 . S
C364 C366 1.395 . S
C364 C367 1.403 . S
H365 C371 0.930 . S
C366 H352 0.930 . S
C366 C364 1.395 . S
C366 C369 1.403 . S
C367 C364 1.403 . S
C367 C368 1.524 . S
C367 C371 1.400 . S
C368 H353 0.960 . S
C368 H354 0.960 . S
C368 H355 0.960 . S
C368 C367 1.524 . S
C369 C366 1.403 . S
C369 C370 1.392 . S
C369 C373 1.495 . S
C370 C369 1.392 . S
C370 C371 1.385 . S
C370 C372 1.478 . S
C371 H365 0.930 . S
C371 C367 1.400 . S
C371 C370 1.385 . S
C372 C370 1.478 . S
C372 C374 1.381 . S
C372 C378 1.383 . S
C373 C369 1.495 . S
C373 H379 0.959 . S
C373 H380 0.961 . S
C373 H381 0.960 . S
C374 C372 1.381 . S
C374 C375 1.394 . S
C374 H382 0.930 . S
C375 C374 1.394 . S
C375 C376 1.383 . S
C375 H383 0.929 . S
C376 C375 1.383 . S
C376 C377 1.377 . S
C377 H361 0.930 . S
C377 C376 1.377 . S
C377 C378 1.379 . S
C378 H362 0.931 . S
C378 C372 1.383 . S
C378 C377 1.379 . S
H379 C373 0.959 . S
H380 C373 0.961 . S
H381 C373 0.960 . S
H382 C374 0.930 . S
H383 C375 0.929 . S
H384 C392 0.929 . S
H385 C394 0.930 . S
H386 C396 0.930 1_455 S
H387 C399 0.948 . S
H388 C402 0.930 . S
H389 C404 0.960 . S
H390 C404 0.960 . S
H391 C404 0.960 . S
C392 H384 0.929 . S
C392 C393 1.377 . S
C392 C394 1.384 . S
C393 C392 1.377 . S
C393 C399 1.390 . S
C394 H385 0.930 . S
C394 C392 1.384 . S
C394 C395 1.372 . S
C395 C394 1.372 . S
C395 C396 1.400 . S
C395 C400 1.490 . S
C396 H386 0.930 1_655 S
C396 C395 1.400 . S
C396 C399 1.386 . S
H397 C413 0.930 . S
H398 C414 0.931 . S
C399 H387 0.948 . S
C399 C393 1.390 . S
C399 C396 1.386 . S
C400 C395 1.490 . S
C400 C402 1.395 . S
C400 C403 1.403 1_655 S
H401 C407 0.930 . S
C402 H388 0.930 . S
C402 C400 1.395 . S
C402 C405 1.403 1_556 S
C403 C400 1.403 1_455 S
C403 C404 1.524 . S
C403 C407 1.400 1_556 S
C404 H389 0.960 . S
C404 H390 0.960 . S
C404 H391 0.960 . S
C404 C403 1.524 . S
C405 C402 1.403 1_554 S
C405 C406 1.392 1_655 S
C405 C409 1.495 . S
C406 C405 1.392 1_455 S
C406 C407 1.385 . S
C406 C408 1.478 . S
C407 H401 0.930 . S
C407 C403 1.400 1_554 S
C407 C406 1.385 . S
C408 C406 1.478 . S
C408 C410 1.382 . S
C408 C414 1.383 . S
C409 C405 1.495 . S
C409 H415 0.959 . S
C409 H416 0.961 . S
C409 H417 0.960 . S
C410 C408 1.382 . S
C410 C411 1.395 . S
C410 H418 0.929 1_455 S
C411 C410 1.395 . S
C411 C412 1.383 . S
C411 H419 0.929 . S
C412 C411 1.383 . S
C412 C413 1.377 . S
C413 H397 0.930 . S
C413 C412 1.377 . S
C413 C414 1.379 . S
C414 H398 0.931 . S
C414 C408 1.383 . S
C414 C413 1.379 . S
H415 C409 0.959 . S
H416 C409 0.961 . S
H417 C409 0.960 . S
H418 C410 0.929 1_655 S
H419 C411 0.929 . S
H420 C428 0.929 . S
H421 C430 0.930 . S
H422 C432 0.930 . S
H423 C435 0.929 . S
H424 C438 0.930 . S
H425 C440 0.960 . S
H426 C440 0.960 . S
H427 C440 0.960 . S
C428 H420 0.929 . S
C428 C429 1.377 . S
C428 C430 1.384 . S
C429 C428 1.377 . S
C429 C435 1.390 . S
C430 H421 0.930 . S
C430 C428 1.384 . S
C430 C431 1.372 . S
C431 C430 1.372 . S
C431 C432 1.400 . S
C431 C436 1.490 . S
C432 H422 0.930 . S
C432 C431 1.400 . S
C432 C435 1.386 . S
H433 C449 0.930 . S
H434 C450 0.931 . S
C435 H423 0.929 . S
C435 C429 1.390 . S
C435 C432 1.386 . S
C436 C431 1.490 . S
C436 C438 1.395 1_565 S
C436 C439 1.403 . S
H437 C443 0.930 . S
C438 H424 0.930 . S
C438 C436 1.395 1_545 S
C438 C441 1.403 . S
C439 C436 1.403 . S
C439 C440 1.524 . S
C439 C443 1.400 . S
C440 H425 0.960 . S
C440 H426 0.960 . S
C440 H427 0.960 . S
C440 C439 1.524 . S
C441 C438 1.403 . S
C441 C442 1.392 . S
C441 C445 1.495 . S
C442 C441 1.392 . S
C442 C443 1.385 1_545 S
C442 C444 1.478 . S
C443 H437 0.930 . S
C443 C439 1.400 . S
C443 C442 1.385 1_565 S
C444 C442 1.478 . S
C444 C446 1.381 . S
C444 C450 1.383 . S
C445 C441 1.495 . S
C445 H451 0.959 . S
C445 H452 0.961 . S
C445 H453 0.960 . S
C446 C444 1.381 . S
C446 C447 1.394 . S
C446 H454 0.930 . S
C447 C446 1.394 . S
C447 C448 1.383 . S
C447 H455 0.929 . S
C448 C447 1.383 . S
C448 C449 1.377 . S
C449 H433 0.930 . S
C449 C448 1.377 . S
C449 C450 1.379 . S
C450 H434 0.931 . S
C450 C444 1.383 . S
C450 C449 1.379 . S
H451 C445 0.959 . S
H452 C445 0.961 . S
H453 C445 0.960 . S
H454 C446 0.930 . S
H455 C447 0.929 . S
H456 C464 0.929 . S
H457 C466 0.930 . S
H458 C468 0.930 . S
H459 C471 0.929 . S
H460 C474 0.930 . S
H461 C476 0.960 . S
H462 C476 0.960 . S
H463 C476 0.960 . S
C464 H456 0.929 . S
C464 C465 1.377 . S
C464 C466 1.384 . S
C465 C464 1.377 . S
C465 C471 1.390 . S
C466 H457 0.930 . S
C466 C464 1.384 . S
C466 C467 1.372 . S
C467 C466 1.372 . S
C467 C468 1.400 . S
C467 C472 1.490 . S
C468 H458 0.930 . S
C468 C467 1.400 . S
C468 C471 1.386 . S
H469 C485 0.930 . S
H470 C486 0.931 . S
C471 H459 0.929 . S
C471 C465 1.390 . S
C471 C468 1.386 . S
C472 C467 1.490 . S
C472 C474 1.395 . S
C472 C475 1.403 . S
H473 C479 0.930 . S
C474 H460 0.930 . S
C474 C472 1.395 . S
C474 C477 1.403 1_556 S
C475 C472 1.403 . S
C475 C476 1.524 . S
C475 C479 1.400 1_556 S
C476 H461 0.960 . S
C476 H462 0.960 . S
C476 H463 0.960 . S
C476 C475 1.524 . S
C477 C474 1.403 1_554 S
C477 C478 1.392 . S
C477 C481 1.495 . S
C478 C477 1.392 . S
C478 C479 1.385 . S
C478 C480 1.478 . S
C479 H473 0.930 . S
C479 C475 1.400 1_554 S
C479 C478 1.385 . S
C480 C478 1.478 . S
C480 C482 1.381 . S
C480 C486 1.383 . S
C481 C477 1.495 . S
C481 H487 0.959 . S
C481 H488 0.961 . S
C481 H489 0.960 . S
C482 C480 1.381 . S
C482 C483 1.394 . S
C482 H490 0.930 . S
C483 C482 1.394 . S
C483 C484 1.383 . S
C483 H491 0.929 . S
C484 C483 1.383 . S
C484 C485 1.377 . S
C485 H469 0.930 . S
C485 C484 1.377 . S
C485 C486 1.379 . S
C486 H470 0.931 . S
C486 C480 1.383 . S
C486 C485 1.379 . S
H487 C481 0.959 . S
H488 C481 0.961 . S
H489 C481 0.960 . S
H490 C482 0.930 . S
H491 C483 0.929 . S
H492 C500 0.929 . S
H493 C502 0.930 . S
H494 C504 0.950 . S
H495 C507 0.929 1_455 S
H496 C510 0.930 . S
H497 C512 0.960 . S
H498 C512 0.960 . S
H499 C512 0.960 1_455 S
C500 H492 0.929 . S
C500 C501 1.377 . S
C500 C502 1.384 . S
C501 C500 1.377 . S
C501 C507 1.390 . S
C502 H493 0.930 . S
C502 C500 1.384 . S
C502 C503 1.372 . S
C503 C502 1.372 . S
C503 C504 1.384 1_655 S
C503 C508 1.490 . S
C504 H494 0.950 . S
C504 C503 1.384 1_455 S
C504 C507 1.381 1_455 S
H505 C521 0.930 . S
H506 C522 0.931 . S
C507 H495 0.929 1_655 S
C507 C501 1.390 . S
C507 C504 1.381 1_655 S
C508 C503 1.490 . S
C508 C510 1.395 . S
C508 C511 1.403 . S
H509 C515 0.930 . S
C510 H496 0.930 . S
C510 C508 1.395 . S
C510 C513 1.398 1_655 S
C511 C508 1.403 . S
C511 C512 1.524 . S
C511 C515 1.400 1_655 S
C512 H497 0.960 . S
C512 H498 0.960 . S
C512 H499 0.960 1_655 S
C512 C511 1.524 . S
C513 C510 1.398 1_455 S
C513 C514 1.412 . S
C513 C517 1.483 . S
C514 C513 1.412 . S
C514 C515 1.385 . S
C514 C516 1.478 . S
C515 H509 0.930 . S
C515 C511 1.400 1_455 S
C515 C514 1.385 . S
C516 C514 1.478 . S
C516 C518 1.381 1_455 S
C516 C522 1.383 . S
C517 C513 1.483 . S
C517 H523 0.959 1_455 S
C517 H524 0.961 . S
C517 H525 0.960 1_455 S
C518 C516 1.381 1_655 S
C518 C519 1.394 1_655 S
C518 H526 0.930 . S
C519 C518 1.394 1_455 S
C519 C520 1.383 . S
C519 H527 0.929 1_455 S
C520 C519 1.383 . S
C520 C521 1.377 . S
C521 H505 0.930 . S
C521 C520 1.377 . S
C521 C522 1.379 . S
C522 H506 0.931 . S
C522 C516 1.383 . S
C522 C521 1.379 . S
H523 C517 0.959 1_655 S
H524 C517 0.961 . S
H525 C517 0.960 1_655 S
H526 C518 0.930 . S
H527 C519 0.929 1_655 S
H528 C536 0.929 . S
H529 C538 0.930 . S
H530 C540 0.930 . S
H531 C543 0.929 . S
H532 C546 0.930 . S
H533 C548 0.960 1_554 S
H534 C548 0.960 . S
H535 C548 0.960 . S
C536 H528 0.929 . S
C536 C537 1.377 . S
C536 C538 1.384 . S
C537 C536 1.377 . S
C537 C543 1.390 . S
C538 H529 0.930 . S
C538 C536 1.384 . S
C538 C539 1.372 . S
C539 C538 1.372 . S
C539 C540 1.400 . S
C539 C544 1.490 . S
C540 H530 0.930 . S
C540 C539 1.400 . S
C540 C543 1.386 . S
H541 C557 0.930 . S
H542 C558 0.931 . S
C543 H531 0.929 . S
C543 C537 1.390 . S
C543 C540 1.386 . S
C544 C539 1.490 . S
C544 C546 1.395 1_545 S
C544 C547 1.403 . S
H545 C551 0.930 . S
C546 H532 0.930 . S
C546 C544 1.395 1_565 S
C546 C549 1.403 1_556 S
C547 C544 1.403 . S
C547 C548 1.524 . S
C547 C551 1.400 1_556 S
C548 H533 0.960 1_556 S
C548 H534 0.960 . S
C548 H535 0.960 . S
C548 C547 1.524 . S
C549 C546 1.403 1_554 S
C549 C550 1.392 . S
C549 C553 1.495 . S
C550 C549 1.392 . S
C550 C551 1.385 1_565 S
C550 C552 1.478 . S
C551 H545 0.930 . S
C551 C547 1.400 1_554 S
C551 C550 1.385 1_545 S
C552 C550 1.478 . S
C552 C554 1.381 . S
C552 C558 1.383 . S
C553 C549 1.495 . S
C553 H559 0.946 1_554 S
C553 H560 0.961 . S
C553 H561 0.960 . S
C554 C552 1.381 . S
C554 C555 1.394 . S
C554 H562 0.930 . S
C555 C554 1.394 . S
C555 C556 1.383 . S
C555 H563 0.929 . S
C556 C555 1.383 . S
C556 C557 1.377 . S
C557 H541 0.930 . S
C557 C556 1.377 . S
C557 C558 1.379 . S
C558 H542 0.931 . S
C558 C552 1.383 . S
C558 C557 1.379 . S
H559 C553 0.946 1_556 S
H560 C553 0.961 . S
H561 C553 0.960 . S
H562 C554 0.930 . S
H563 C555 0.929 . S
H564 C572 0.929 . S
H565 C574 0.930 . S
H566 C576 0.930 . S
H567 C579 0.929 . S
H568 C582 0.930 . S
H569 C584 0.960 . S
H570 C584 0.960 . S
H571 C584 0.960 . S
C572 H564 0.929 . S
C572 C573 1.377 . S
C572 C574 1.384 . S
C573 C572 1.377 . S
C573 C579 1.390 . S
C574 H565 0.930 . S
C574 C572 1.384 . S
C574 C575 1.372 . S
C575 C574 1.372 . S
C575 C576 1.400 . S
C575 C580 1.490 . S
C576 H566 0.930 . S
C576 C575 1.400 . S
C576 C579 1.386 . S
H577 C593 0.930 . S
H578 C594 0.931 . S
C579 H567 0.929 . S
C579 C573 1.390 . S
C579 C576 1.386 . S
C580 C575 1.490 . S
C580 C582 1.395 . S
C580 C583 1.403 . S
H581 C587 0.930 . S
C582 H568 0.930 . S
C582 C580 1.395 . S
C582 C585 1.403 . S
C583 C580 1.403 . S
C583 C584 1.524 . S
C583 C587 1.400 . S
C584 H569 0.960 . S
C584 H570 0.960 . S
C584 H571 0.960 . S
C584 C583 1.524 . S
C585 C582 1.403 . S
C585 C586 1.392 . S
C585 C589 1.495 . S
C586 C585 1.392 . S
C586 C587 1.385 . S
C586 C588 1.478 . S
C587 H581 0.930 . S
C587 C583 1.400 . S
C587 C586 1.385 . S
C588 C586 1.478 . S
C588 C590 1.381 . S
C588 C594 1.383 . S
C589 C585 1.495 . S
C589 H595 0.959 . S
C589 H596 0.961 . S
C589 H597 0.960 . S
C590 C588 1.381 . S
C590 C591 1.394 . S
C590 H598 0.930 . S
C591 C590 1.394 . S
C591 C592 1.383 . S
C591 H599 0.929 . S
C592 C591 1.383 . S
C592 C593 1.377 . S
C593 H577 0.930 . S
C593 C592 1.377 . S
C593 C594 1.379 . S
C594 H578 0.931 . S
C594 C588 1.383 . S
C594 C593 1.379 . S
H595 C589 0.959 . S
H596 C589 0.961 . S
H597 C589 0.960 . S
H598 C590 0.930 . S
H599 C591 0.929 . S
H600 C608 0.929 . S
H601 C610 0.930 . S
H602 C612 0.930 . S
H603 C615 0.929 . S
H604 C618 0.930 . S
H605 C620 0.960 . S
H606 C620 0.960 . S
H607 C620 0.960 . S
C608 H600 0.929 . S
C608 C609 1.377 . S
C608 C610 1.384 . S
C609 C608 1.377 . S
C609 C615 1.390 . S
C610 H601 0.930 . S
C610 C608 1.384 . S
C610 C611 1.372 . S
C611 C610 1.372 . S
C611 C612 1.400 . S
C611 C616 1.490 . S
C612 H602 0.930 . S
C612 C611 1.400 . S
C612 C615 1.386 . S
H613 C629 0.930 . S
H614 C630 0.931 . S
C615 H603 0.929 . S
C615 C609 1.390 . S
C615 C612 1.386 . S
C616 C611 1.490 . S
C616 C618 1.395 . S
C616 C619 1.403 . S
H617 C623 0.930 . S
C618 H604 0.930 . S
C618 C616 1.395 . S
C618 C621 1.403 . S
C619 C616 1.403 . S
C619 C620 1.524 . S
C619 C623 1.400 . S
C620 H605 0.960 . S
C620 H606 0.960 . S
C620 H607 0.960 . S
C620 C619 1.524 . S
C621 C618 1.403 . S
C621 C622 1.392 . S
C621 C625 1.495 . S
C622 C621 1.392 . S
C622 C623 1.385 . S
C622 C624 1.478 . S
C623 H617 0.930 . S
C623 C619 1.400 . S
C623 C622 1.385 . S
C624 C622 1.478 . S
C624 C626 1.381 . S
C624 C630 1.383 . S
C625 C621 1.495 . S
C625 H631 0.959 . S
C625 H632 0.961 . S
C625 H633 0.960 . S
C626 C624 1.381 . S
C626 C627 1.394 . S
C626 H634 0.930 . S
C627 C626 1.394 . S
C627 C628 1.383 . S
C627 H635 0.929 . S
C628 C627 1.383 . S
C628 C629 1.377 . S
C629 H613 0.930 . S
C629 C628 1.377 . S
C629 C630 1.379 . S
C630 H614 0.931 . S
C630 C624 1.383 . S
C630 C629 1.379 . S
H631 C625 0.959 . S
H632 C625 0.961 . S
H633 C625 0.960 . S
H634 C626 0.930 . S
H635 C627 0.929 . S
H636 C644 0.929 . S
H637 C646 0.930 . S
H638 C648 0.930 . S
H639 C651 0.929 . S
H640 C654 0.930 . S
H641 C656 0.960 . S
H642 C656 0.960 . S
H643 C656 0.960 . S
C644 H636 0.929 . S
C644 C645 1.377 . S
C644 C646 1.384 . S
C645 C644 1.377 . S
C645 C651 1.390 . S
C646 H637 0.930 . S
C646 C644 1.384 . S
C646 C647 1.372 . S
C647 C646 1.372 . S
C647 C648 1.400 . S
C647 C652 1.490 . S
C648 H638 0.930 . S
C648 C647 1.400 . S
C648 C651 1.386 . S
H649 C665 0.930 . S
H650 C666 0.931 . S
C651 H639 0.929 . S
C651 C645 1.390 . S
C651 C648 1.386 . S
C652 C647 1.490 . S
C652 C654 1.395 . S
C652 C655 1.403 . S
H653 C659 0.930 . S
C654 H640 0.930 . S
C654 C652 1.395 . S
C654 C657 1.403 . S
C655 C652 1.403 . S
C655 C656 1.524 . S
C655 C659 1.400 . S
C656 H641 0.960 . S
C656 H642 0.960 . S
C656 H643 0.960 . S
C656 C655 1.524 . S
C657 C654 1.403 . S
C657 C658 1.392 . S
C657 C661 1.495 . S
C658 C657 1.392 . S
C658 C659 1.385 . S
C658 C660 1.478 . S
C659 H653 0.930 . S
C659 C655 1.400 . S
C659 C658 1.385 . S
C660 C658 1.478 . S
C660 C662 1.381 . S
C660 C666 1.383 . S
C661 C657 1.495 . S
C661 H667 0.959 . S
C661 H668 0.961 . S
C661 H669 0.960 . S
C662 C660 1.381 . S
C662 C663 1.394 . S
C662 H670 0.930 . S
C663 C662 1.394 . S
C663 C664 1.383 . S
C663 H671 0.929 . S
C664 C663 1.383 . S
C664 C665 1.377 . S
C665 H649 0.930 . S
C665 C664 1.377 . S
C665 C666 1.379 . S
C666 H650 0.931 . S
C666 C660 1.383 . S
C666 C665 1.379 . S
H667 C661 0.959 . S
H668 C661 0.961 . S
H669 C661 0.960 . S
H670 C662 0.930 . S
H671 C663 0.929 . S
H672 C680 0.929 . S
H673 C682 0.930 . S
H674 C684 0.930 . S
H675 C687 0.929 . S
H676 C690 0.930 . S
H677 C692 0.960 . S
H678 C692 0.960 . S
H679 C692 0.960 . S
C680 H672 0.929 . S
C680 C681 1.377 . S
C680 C682 1.384 . S
C681 C680 1.377 . S
C681 C687 1.390 . S
C682 H673 0.930 . S
C682 C680 1.384 . S
C682 C683 1.372 . S
C683 C682 1.372 . S
C683 C684 1.400 . S
C683 C688 1.490 . S
C684 H674 0.930 . S
C684 C683 1.400 . S
C684 C687 1.386 . S
H685 C701 0.930 . S
H686 C702 0.931 . S
C687 H675 0.929 . S
C687 C681 1.390 . S
C687 C684 1.386 . S
C688 C683 1.490 . S
C688 C690 1.395 . S
C688 C691 1.403 . S
H689 C695 0.930 . S
C690 H676 0.930 . S
C690 C688 1.395 . S
C690 C693 1.403 . S
C691 C688 1.403 . S
C691 C692 1.524 . S
C691 C695 1.400 . S
C692 H677 0.960 . S
C692 H678 0.960 . S
C692 H679 0.960 . S
C692 C691 1.524 . S
C693 C690 1.403 . S
C693 C694 1.392 . S
C693 C697 1.495 . S
C694 C693 1.392 . S
C694 C695 1.385 . S
C694 C696 1.478 . S
C695 H689 0.930 . S
C695 C691 1.400 . S
C695 C694 1.385 . S
C696 C694 1.478 . S
C696 C698 1.381 . S
C696 C702 1.383 . S
C697 C693 1.495 . S
C697 H703 0.959 . S
C697 H704 0.961 . S
C697 H705 0.960 . S
C698 C696 1.381 . S
C698 C699 1.394 . S
C698 H706 0.930 . S
C699 C698 1.394 . S
C699 C700 1.383 . S
C699 H707 0.929 . S
C700 C699 1.383 . S
C700 C701 1.377 . S
C701 H685 0.930 . S
C701 C700 1.377 . S
C701 C702 1.379 . S
C702 H686 0.931 . S
C702 C696 1.383 . S
C702 C701 1.379 . S
H703 C697 0.959 . S
H704 C697 0.961 . S
H705 C697 0.960 . S
H706 C698 0.930 . S
H707 C699 0.929 . S
H708 C716 0.929 . S
H709 C718 0.930 . S
H710 C720 0.930 . S
H711 C723 0.929 . S
H712 C726 0.930 . S
H713 C728 0.960 . S
H714 C728 0.960 . S
H715 C728 0.960 . S
C716 H708 0.929 . S
C716 C717 1.377 . S
C716 C718 1.384 . S
C717 C716 1.377 . S
C717 C723 1.390 . S
C718 H709 0.930 . S
C718 C716 1.384 . S
C718 C719 1.372 . S
C719 C718 1.372 . S
C719 C720 1.400 . S
C719 C724 1.490 . S
C720 H710 0.930 . S
C720 C719 1.400 . S
C720 C723 1.386 . S
H721 C737 0.930 . S
H722 C738 0.931 . S
C723 H711 0.929 . S
C723 C717 1.390 . S
C723 C720 1.386 . S
C724 C719 1.490 . S
C724 C726 1.395 . S
C724 C727 1.403 . S
H725 C731 0.930 . S
C726 H712 0.930 . S
C726 C724 1.395 . S
C726 C729 1.403 . S
C727 C724 1.403 . S
C727 C728 1.524 . S
C727 C731 1.400 . S
C728 H713 0.960 . S
C728 H714 0.960 . S
C728 H715 0.960 . S
C728 C727 1.524 . S
C729 C726 1.403 . S
C729 C730 1.392 . S
C729 C733 1.495 . S
C730 C729 1.392 . S
C730 C731 1.385 . S
C730 C732 1.478 . S
C731 H725 0.930 . S
C731 C727 1.400 . S
C731 C730 1.385 . S
C732 C730 1.478 . S
C732 C734 1.381 . S
C732 C738 1.383 . S
C733 C729 1.495 . S
C733 H739 0.959 . S
C733 H740 0.961 . S
C733 H741 0.960 . S
C734 C732 1.381 . S
C734 C735 1.394 . S
C734 H742 0.930 . S
C735 C734 1.394 . S
C735 C736 1.383 . S
C735 H743 0.929 . S
C736 C735 1.383 . S
C736 C737 1.377 . S
C737 H721 0.930 . S
C737 C736 1.377 . S
C737 C738 1.379 . S
C738 H722 0.931 . S
C738 C732 1.383 . S
C738 C737 1.379 . S
H739 C733 0.959 . S
H740 C733 0.961 . S
H741 C733 0.960 . S
H742 C734 0.930 . S
H743 C735 0.929 . S
H744 C752 0.929 . S
H745 C754 0.930 . S
H746 C756 0.930 . S
H747 C759 0.929 . S
H748 C762 0.930 . S
H749 C764 0.960 . S
H750 C764 0.960 . S
H751 C764 0.960 . S
C752 H744 0.929 . S
C752 C753 1.377 . S
C752 C754 1.384 . S
C753 C752 1.377 . S
C753 C759 1.390 . S
C754 H745 0.930 . S
C754 C752 1.384 . S
C754 C755 1.372 . S
C755 C754 1.372 . S
C755 C756 1.400 . S
C755 C760 1.490 . S
C756 H746 0.930 . S
C756 C755 1.400 . S
C756 C759 1.386 . S
H757 C773 0.930 . S
H758 C774 0.931 . S
C759 H747 0.929 . S
C759 C753 1.390 . S
C759 C756 1.386 . S
C760 C755 1.490 . S
C760 C762 1.395 . S
C760 C763 1.403 . S
H761 C767 0.930 . S
C762 H748 0.930 . S
C762 C760 1.395 . S
C762 C765 1.403 . S
C763 C760 1.403 . S
C763 C764 1.524 . S
C763 C767 1.400 . S
C764 H749 0.960 . S
C764 H750 0.960 . S
C764 H751 0.960 . S
C764 C763 1.524 . S
C765 C762 1.403 . S
C765 C766 1.392 . S
C765 C769 1.495 . S
C766 C765 1.392 . S
C766 C767 1.385 . S
C766 C768 1.478 . S
C767 H761 0.930 . S
C767 C763 1.400 . S
C767 C766 1.385 . S
C768 C766 1.478 . S
C768 C770 1.381 . S
C768 C774 1.383 . S
C769 C765 1.495 . S
C769 H775 0.959 . S
C769 H776 0.961 . S
C769 H777 0.960 . S
C770 C768 1.381 . S
C770 C771 1.394 . S
C770 H778 0.930 . S
C771 C770 1.394 . S
C771 C772 1.383 . S
C771 H779 0.929 . S
C772 C771 1.383 . S
C772 C773 1.377 . S
C773 H757 0.930 . S
C773 C772 1.377 . S
C773 C774 1.379 . S
C774 H758 0.931 . S
C774 C768 1.383 . S
C774 C773 1.379 . S
H775 C769 0.959 . S
H776 C769 0.961 . S
H777 C769 0.960 . S
H778 C770 0.930 . S
H779 C771 0.929 . S
H780 C788 0.929 . S
H781 C790 0.930 . S
H782 C792 0.930 . S
H783 C795 0.929 . S
H784 C798 0.930 . S
H785 C800 0.960 . S
H786 C800 0.960 . S
H787 C800 0.960 . S
C788 H780 0.929 . S
C788 C789 1.377 . S
C788 C790 1.384 . S
C789 C788 1.377 . S
C789 C795 1.390 . S
C790 H781 0.930 . S
C790 C788 1.384 . S
C790 C791 1.372 . S
C791 C790 1.372 . S
C791 C792 1.400 . S
C791 C796 1.490 . S
C792 H782 0.930 . S
C792 C791 1.400 . S
C792 C795 1.386 . S
H793 C809 0.930 . S
H794 C810 0.931 . S
C795 H783 0.929 . S
C795 C789 1.390 . S
C795 C792 1.386 . S
C796 C791 1.490 . S
C796 C798 1.395 . S
C796 C799 1.403 . S
H797 C803 0.930 . S
C798 H784 0.930 . S
C798 C796 1.395 . S
C798 C801 1.403 . S
C799 C796 1.403 . S
C799 C800 1.524 . S
C799 C803 1.400 . S
C800 H785 0.960 . S
C800 H786 0.960 . S
C800 H787 0.960 . S
C800 C799 1.524 . S
C801 C798 1.403 . S
C801 C802 1.392 . S
C801 C805 1.495 . S
C802 C801 1.392 . S
C802 C803 1.385 . S
C802 C804 1.478 . S
C803 H797 0.930 . S
C803 C799 1.400 . S
C803 C802 1.385 . S
C804 C802 1.478 . S
C804 C806 1.381 . S
C804 C810 1.383 . S
C805 C801 1.495 . S
C805 H811 0.959 . S
C805 H812 0.961 . S
C805 H813 0.960 . S
C806 C804 1.381 . S
C806 C807 1.394 . S
C806 H814 0.930 . S
C807 C806 1.394 . S
C807 C808 1.383 . S
C807 H815 0.929 . S
C808 C807 1.383 . S
C808 C809 1.377 . S
C809 H793 0.930 . S
C809 C808 1.377 . S
C809 C810 1.379 . S
C810 H794 0.931 . S
C810 C804 1.383 . S
C810 C809 1.379 . S
H811 C805 0.959 . S
H812 C805 0.961 . S
H813 C805 0.960 . S
H814 C806 0.930 . S
H815 C807 0.929 . S
H816 C824 0.929 . S
H817 C826 0.930 . S
H818 C828 0.930 . S
H819 C831 0.929 . S
H820 C834 0.930 . S
H821 C836 0.960 . S
H822 C836 0.960 . S
H823 C836 0.960 . S
C824 H816 0.929 . S
C824 C825 1.377 . S
C824 C826 1.384 . S
C825 C824 1.377 . S
C825 C831 1.390 . S
C826 H817 0.930 . S
C826 C824 1.384 . S
C826 C827 1.372 . S
C827 C826 1.372 . S
C827 C828 1.400 . S
C827 C832 1.490 . S
C828 H818 0.930 . S
C828 C827 1.400 . S
C828 C831 1.386 . S
H829 C845 0.930 . S
H830 C846 0.931 . S
C831 H819 0.929 . S
C831 C825 1.390 . S
C831 C828 1.386 . S
C832 C827 1.490 . S
C832 C834 1.395 . S
C832 C835 1.403 . S
H833 C839 0.930 . S
C834 H820 0.930 . S
C834 C832 1.395 . S
C834 C837 1.403 . S
C835 C832 1.403 . S
C835 C836 1.524 . S
C835 C839 1.400 . S
C836 H821 0.960 . S
C836 H822 0.960 . S
C836 H823 0.960 . S
C836 C835 1.524 . S
C837 C834 1.403 . S
C837 C838 1.392 . S
C837 C841 1.495 . S
C838 C837 1.392 . S
C838 C839 1.385 . S
C838 C840 1.478 . S
C839 H833 0.930 . S
C839 C835 1.400 . S
C839 C838 1.385 . S
C840 C838 1.478 . S
C840 C842 1.381 . S
C840 C846 1.383 . S
C841 C837 1.495 . S
C841 H847 0.959 . S
C841 H848 0.961 . S
C841 H849 0.960 . S
C842 C840 1.381 . S
C842 C843 1.394 . S
C842 H850 0.930 . S
C843 C842 1.394 . S
C843 C844 1.383 . S
C843 H851 0.929 . S
C844 C843 1.383 . S
C844 C845 1.377 . S
C845 H829 0.930 . S
C845 C844 1.377 . S
C845 C846 1.379 . S
C846 H830 0.931 . S
C846 C840 1.383 . S
C846 C845 1.379 . S
H847 C841 0.959 . S
H848 C841 0.961 . S
H849 C841 0.960 . S
H850 C842 0.930 . S
H851 C843 0.929 . S
H852 C860 0.929 . S
H853 C862 0.930 . S
H854 C864 0.930 . S
H855 C867 0.929 . S
H856 C870 0.930 . S
H857 C872 0.960 . S
H858 C872 0.960 . S
H859 C872 0.960 . S
C860 H852 0.929 . S
C860 C861 1.377 . S
C860 C862 1.384 . S
C861 C860 1.377 . S
C861 C867 1.390 . S
C862 H853 0.930 . S
C862 C860 1.384 . S
C862 C863 1.372 . S
C863 C862 1.372 . S
C863 C864 1.400 . S
C863 C868 1.490 . S
C864 H854 0.930 . S
C864 C863 1.400 . S
C864 C867 1.386 . S
H865 C881 0.930 . S
H866 C882 0.931 . S
C867 H855 0.929 . S
C867 C861 1.390 . S
C867 C864 1.386 . S
C868 C863 1.490 . S
C868 C870 1.395 . S
C868 C871 1.403 . S
H869 C875 0.930 . S
C870 H856 0.930 . S
C870 C868 1.395 . S
C870 C873 1.403 . S
C871 C868 1.403 . S
C871 C872 1.524 . S
C871 C875 1.400 . S
C872 H857 0.960 . S
C872 H858 0.960 . S
C872 H859 0.960 . S
C872 C871 1.524 . S
C873 C870 1.403 . S
C873 C874 1.392 . S
C873 C877 1.495 . S
C874 C873 1.392 . S
C874 C875 1.385 . S
C874 C876 1.478 . S
C875 H869 0.930 . S
C875 C871 1.400 . S
C875 C874 1.385 . S
C876 C874 1.478 . S
C876 C878 1.381 . S
C876 C882 1.383 . S
C877 C873 1.495 . S
C877 H883 0.959 . S
C877 H884 0.961 . S
C877 H885 0.960 . S
C878 C876 1.381 . S
C878 C879 1.394 . S
C878 H886 0.930 . S
C879 C878 1.394 . S
C879 C880 1.383 . S
C879 H887 0.929 . S
C880 C879 1.383 . S
C880 C881 1.377 . S
C881 H865 0.930 . S
C881 C880 1.377 . S
C881 C882 1.379 . S
C882 H866 0.931 . S
C882 C876 1.383 . S
C882 C881 1.379 . S
H883 C877 0.959 . S
H884 C877 0.961 . S
H885 C877 0.960 . S
H886 C878 0.930 . S
H887 C879 0.929 . S
H888 C896 0.929 . S
H889 C898 0.930 . S
H890 C900 0.930 . S
H891 C903 0.929 . S
H892 C906 0.930 . S
H893 C908 0.960 . S
H894 C908 0.960 . S
H895 C908 0.960 . S
C896 H888 0.929 . S
C896 C897 1.377 . S
C896 C898 1.384 . S
C897 C896 1.377 . S
C897 C903 1.390 . S
C898 H889 0.930 . S
C898 C896 1.384 . S
C898 C899 1.372 . S
C899 C898 1.372 . S
C899 C900 1.400 . S
C899 C904 1.490 . S
C900 H890 0.930 . S
C900 C899 1.400 . S
C900 C903 1.386 . S
H901 C917 0.930 . S
H902 C918 0.931 . S
C903 H891 0.929 . S
C903 C897 1.390 . S
C903 C900 1.386 . S
C904 C899 1.490 . S
C904 C906 1.395 . S
C904 C907 1.403 . S
H905 C911 0.930 . S
C906 H892 0.930 . S
C906 C904 1.395 . S
C906 C909 1.403 . S
C907 C904 1.403 . S
C907 C908 1.524 . S
C907 C911 1.400 . S
C908 H893 0.960 . S
C908 H894 0.960 . S
C908 H895 0.960 . S
C908 C907 1.524 . S
C909 C906 1.403 . S
C909 C910 1.392 . S
C909 C913 1.495 . S
C910 C909 1.392 . S
C910 C911 1.385 . S
C910 C912 1.478 . S
C911 H905 0.930 . S
C911 C907 1.400 . S
C911 C910 1.385 . S
C912 C910 1.478 . S
C912 C914 1.381 . S
C912 C918 1.383 . S
C913 C909 1.495 . S
C913 H919 0.959 . S
C913 H920 0.961 . S
C913 H921 0.960 . S
C914 C912 1.381 . S
C914 C915 1.394 . S
C914 H922 0.930 . S
C915 C914 1.394 . S
C915 C916 1.383 . S
C915 H923 0.929 . S
C916 C915 1.383 . S
C916 C917 1.377 . S
C917 H901 0.930 . S
C917 C916 1.377 . S
C917 C918 1.379 . S
C918 H902 0.931 . S
C918 C912 1.383 . S
C918 C917 1.379 . S
H919 C913 0.959 . S
H920 C913 0.961 . S
H921 C913 0.960 . S
H922 C914 0.930 . S
H923 C915 0.929 . S
H924 C932 0.929 . S
H925 C934 0.930 . S
H926 C936 0.930 . S
H927 C939 0.929 . S
H928 C942 0.930 . S
H929 C944 0.960 . S
H930 C944 0.960 . S
H931 C944 0.960 . S
C932 H924 0.929 . S
C932 C933 1.377 . S
C932 C934 1.384 . S
C933 C932 1.377 . S
C933 C939 1.390 . S
C934 H925 0.930 . S
C934 C932 1.384 . S
C934 C935 1.372 . S
C935 C934 1.372 . S
C935 C936 1.400 . S
C935 C940 1.490 . S
C936 H926 0.930 . S
C936 C935 1.400 . S
C936 C939 1.386 . S
H937 C953 0.930 . S
H938 C954 0.931 . S
C939 H927 0.929 . S
C939 C933 1.390 . S
C939 C936 1.386 . S
C940 C935 1.490 . S
C940 C942 1.395 . S
C940 C943 1.403 . S
H941 C947 0.930 . S
C942 H928 0.930 . S
C942 C940 1.395 . S
C942 C945 1.403 . S
C943 C940 1.403 . S
C943 C944 1.524 . S
C943 C947 1.400 . S
C944 H929 0.960 . S
C944 H930 0.960 . S
C944 H931 0.960 . S
C944 C943 1.524 . S
C945 C942 1.403 . S
C945 C946 1.392 . S
C945 C949 1.495 . S
C946 C945 1.392 . S
C946 C947 1.385 . S
C946 C948 1.478 . S
C947 H941 0.930 . S
C947 C943 1.400 . S
C947 C946 1.385 . S
C948 C946 1.478 . S
C948 C950 1.381 . S
C948 C954 1.383 . S
C949 C945 1.495 . S
C949 H955 0.959 . S
C949 H956 0.961 . S
C949 H957 0.960 . S
C950 C948 1.381 . S
C950 C951 1.394 . S
C950 H958 0.930 . S
C951 C950 1.394 . S
C951 C952 1.383 . S
C951 H959 0.929 . S
C952 C951 1.383 . S
C952 C953 1.377 . S
C953 H937 0.930 . S
C953 C952 1.377 . S
C953 C954 1.379 . S
C954 H938 0.931 . S
C954 C948 1.383 . S
C954 C953 1.379 . S
H955 C949 0.959 . S
H956 C949 0.961 . S
H957 C949 0.960 . S
H958 C950 0.930 . S
H959 C951 0.929 . S
H960 C968 0.929 . S
H961 C970 0.930 . S
H962 C972 0.930 . S
H963 C975 0.929 . S
H964 C978 0.930 . S
H965 C980 0.960 . S
H966 C980 0.960 . S
H967 C980 0.960 . S
C968 H960 0.929 . S
C968 C969 1.377 . S
C968 C970 1.384 . S
C969 C968 1.377 . S
C969 C975 1.390 . S
C970 H961 0.930 . S
C970 C968 1.384 . S
C970 C971 1.372 . S
C971 C970 1.372 . S
C971 C972 1.400 . S
C971 C976 1.490 . S
C972 H962 0.930 . S
C972 C971 1.400 . S
C972 C975 1.386 . S
H973 C989 0.930 . S
H974 C990 0.931 . S
C975 H963 0.929 . S
C975 C969 1.390 . S
C975 C972 1.386 . S
C976 C971 1.490 . S
C976 C978 1.395 . S
C976 C979 1.403 . S
H977 C983 0.930 . S
C978 H964 0.930 . S
C978 C976 1.395 . S
C978 C981 1.403 . S
C979 C976 1.403 . S
C979 C980 1.524 . S
C979 C983 1.400 . S
C980 H965 0.960 . S
C980 H966 0.960 . S
C980 H967 0.960 . S
C980 C979 1.524 . S
C981 C978 1.403 . S
C981 C982 1.392 . S
C981 C985 1.495 . S
C982 C981 1.392 . S
C982 C983 1.385 . S
C982 C984 1.478 . S
C983 H977 0.930 . S
C983 C979 1.400 . S
C983 C982 1.385 . S
C984 C982 1.478 . S
C984 C986 1.381 . S
C984 C990 1.383 . S
C985 C981 1.495 . S
C985 H991 0.959 . S
C985 H992 0.961 . S
C985 H993 0.960 . S
C986 C984 1.381 . S
C986 C987 1.394 . S
C986 H994 0.930 . S
C987 C986 1.394 . S
C987 C988 1.383 . S
C987 H995 0.929 . S
C988 C987 1.383 . S
C988 C989 1.377 . S
C989 H973 0.930 . S
C989 C988 1.377 . S
C989 C990 1.379 . S
C990 H974 0.931 . S
C990 C984 1.383 . S
C990 C989 1.379 . S
H991 C985 0.959 . S
H992 C985 0.961 . S
H993 C985 0.960 . S
H994 C986 0.930 . S
H995 C987 0.929 . S
H996 C1004 0.929 . S
H997 C1006 0.930 . S
H998 C1008 0.930 . S
H999 C1011 0.929 . S
H1000 C1014 0.930 . S
H1001 C1016 0.960 . S
H1002 C1016 0.960 . S
H1003 C1016 0.960 . S
C1004 H996 0.929 . S
C1004 C1005 1.377 . S
C1004 C1006 1.384 . S
C1005 C1004 1.377 . S
C1005 C1011 1.390 . S
C1006 H997 0.930 . S
C1006 C1004 1.384 . S
C1006 C1007 1.372 . S
C1007 C1006 1.372 . S
C1007 C1008 1.400 . S
C1007 C1012 1.490 . S
C1008 H998 0.930 . S
C1008 C1007 1.400 . S
C1008 C1011 1.386 . S
H1009 C1025 0.930 . S
H1010 C1026 0.931 . S
C1011 H999 0.929 . S
C1011 C1005 1.390 . S
C1011 C1008 1.386 . S
C1012 C1007 1.490 . S
C1012 C1014 1.395 . S
C1012 C1015 1.403 . S
H1013 C1019 0.930 . S
C1014 H1000 0.930 . S
C1014 C1012 1.395 . S
C1014 C1017 1.403 . S
C1015 C1012 1.403 . S
C1015 C1016 1.524 . S
C1015 C1019 1.400 . S
C1016 H1001 0.960 . S
C1016 H1002 0.960 . S
C1016 H1003 0.960 . S
C1016 C1015 1.524 . S
C1017 C1014 1.403 . S
C1017 C1018 1.392 . S
C1017 C1021 1.495 . S
C1018 C1017 1.392 . S
C1018 C1019 1.385 . S
C1018 C1020 1.478 . S
C1019 H1013 0.930 . S
C1019 C1015 1.400 . S
C1019 C1018 1.385 . S
C1020 C1018 1.478 . S
C1020 C1022 1.381 . S
C1020 C1026 1.383 . S
C1021 C1017 1.495 . S
C1021 H1027 0.959 . S
C1021 H1028 0.961 . S
C1021 H1029 0.960 . S
C1022 C1020 1.381 . S
C1022 C1023 1.394 . S
C1022 H1030 0.930 . S
C1023 C1022 1.394 . S
C1023 C1024 1.383 . S
C1023 H1031 0.929 . S
C1024 C1023 1.383 . S
C1024 C1025 1.377 . S
C1025 H1009 0.930 . S
C1025 C1024 1.377 . S
C1025 C1026 1.379 . S
C1026 H1010 0.931 . S
C1026 C1020 1.383 . S
C1026 C1025 1.379 . S
H1027 C1021 0.959 . S
H1028 C1021 0.961 . S
H1029 C1021 0.960 . S
H1030 C1022 0.930 . S
H1031 C1023 0.929 . S
C177 C7 1.259 . S
C196 C161 1.267 . S
C213 C91 1.251 . S
C232 C21 1.258 . S
C249 C35 1.249 . S
C268 C105 1.242 . S
C285 C119 1.252 . S
C304 C49 1.227 . S
C321 C133 1.259 . S
C340 C63 1.268 . S
C357 C147 1.253 . S
C376 C77 1.267 . S
C393 C45 1.239 . S
C412 C115 1.244 . S
C429 C59 1.233 . S
C448 C129 1.215 . S
C465 C73 1.237 . S
C484 C143 1.232 . S
C501 C157 1.235 . S
C520 C3 1.222 . S
C537 C17 1.233 . S
C556 C87 1.215 . S
C573 C31 1.234 . S
C592 C101 1.224 . S
C609 C121 1.706 . S
C628 C9 1.707 . S
C645 C135 1.709 . S
C664 C23 1.704 . S
C681 C37 1.706 . S
C700 C149 1.713 . S
C717 C51 1.705 . S
C736 C163 1.711 . S
C753 C65 1.708 . S
C772 C93 1.708 . S
C789 C107 1.708 . S
C808 C79 1.708 . S
C825 C8 1.646 . S
C844 C148 1.644 . S
C861 C162 1.646 . S
C880 C22 1.646 . S
C897 C36 1.648 . S
C916 C92 1.636 . S
C933 C50 1.647 . S
C952 C106 1.643 . S
C969 C64 1.647 . S
C988 C120 1.644 . S
C1005 C78 1.646 . S
C1024 C134 1.653 . S
