# Generated by pormake.
# Topology lcy, (6)-cn, num edge types: 1
# Building blocks:
#     Node 0, Type 0, BuildingBlock: UKALOJ_clean_sbu_0, # of connection points: 6
#     Node 1, Type 0, BuildingBlock: UKALOJ_clean_sbu_0, # of connection points: 6
#     Node 2, Type 0, BuildingBlock: UKALOJ_clean_sbu_0, # of connection points: 6
#     Node 3, Type 0, BuildingBlock: UKALOJ_clean_sbu_0, # of connection points: 6
#     Edge 4, Type (0, 0), BuildingBlock: ZUJKAS_clean_linker_0, # of connection points: 2
#     Edge 5, Type (0, 0), BuildingBlock: ZUJKAS_clean_linker_0, # of connection points: 2
#     Edge 6, Type (0, 0), BuildingBlock: ZUJKAS_clean_linker_0, # of connection points: 2
#     Edge 7, Type (0, 0), BuildingBlock: ZUJKAS_clean_linker_0, # of connection points: 2
#     Edge 8, Type (0, 0), BuildingBlock: ZUJKAS_clean_linker_0, # of connection points: 2
#     Edge 9, Type (0, 0), BuildingBlock: ZUJKAS_clean_linker_0, # of connection points: 2
#     Edge 10, Type (0, 0), BuildingBlock: ZUJKAS_clean_linker_0, # of connection points: 2
#     Edge 11, Type (0, 0), BuildingBlock: ZUJKAS_clean_linker_0, # of connection points: 2
#     Edge 12, Type (0, 0), BuildingBlock: ZUJKAS_clean_linker_0, # of connection points: 2
#     Edge 13, Type (0, 0), BuildingBlock: ZUJKAS_clean_linker_0, # of connection points: 2
#     Edge 14, Type (0, 0), BuildingBlock: ZUJKAS_clean_linker_0, # of connection points: 2
#     Edge 15, Type (0, 0), BuildingBlock: ZUJKAS_clean_linker_0, # of connection points: 2
# Relax obj value: 0.326
# Max RMSD: 0.286
# Mean RMSD: 0.261
data_MOF--net-lcy--node1-UKALOJ_clean_sbu_0--edge1-ZUJKAS_clean_linker_0
_symmetry_space_group_name_H-M    P1
_symmetry_Int_Tables_number       1
_symmetry_cell_setting            triclinic
loop_
_symmetry_equiv_pos_as_xyz
'x, y, z'
_cell_length_a     33.046226
_cell_length_b     35.068562
_cell_length_c     33.699958
_cell_angle_alpha  89.75719
_cell_angle_beta   97.616907
_cell_angle_gamma 97.427543
loop_
_atom_site_label
_atom_site_type_symbol
_atom_site_fract_x
_atom_site_fract_y
_atom_site_fract_z
_atom_type_partial_charge
Zn0 Zn 0.3851 0.41965 0.34611 0.0
O1 O 0.35563 0.45692 0.37952 0.0
C2 C 0.45401 0.48192 0.34388 0.0
Zn3 Zn 0.43373 0.41712 0.3984 0.0
C4 C 0.37187 0.4669 0.415 0.0
O5 O 0.40488 0.45433 0.42996 0.0
C6 C 0.44685 0.36922 0.33006 0.0
O7 O 0.3973 0.36958 0.42188 0.0
O8 O 0.35086 0.37222 0.36922 0.0
N9 N 0.4802 0.41694 0.44515 0.0
C10 C 0.50232 0.38903 0.45982 0.0
C11 C 0.5335 0.44225 0.4848 0.0
N12 N 0.49941 0.4499 0.46114 0.0
N13 N 0.53598 0.40423 0.48461 0.0
C14 C 0.33002 0.4458 0.27085 0.0
C15 C 0.29722 0.39216 0.24879 0.0
N16 N 0.34047 0.41882 0.29753 0.0
N17 N 0.31975 0.38557 0.28386 0.0
N18 N 0.30333 0.42972 0.23976 0.0
H19 H 0.3509 0.49583 0.30855 0.0
H20 H 0.3203 0.5049 0.26157 0.0
H21 H 0.37246 0.49542 0.26218 0.0
C22 C 0.34412 0.48799 0.27629 0.0
C23 C 0.49329 0.34752 0.44718 0.0
H24 H 0.46429 0.34146 0.42653 0.0
H25 H 0.49058 0.32935 0.47393 0.0
H26 H 0.51929 0.33926 0.43284 0.0
O27 O 0.46224 0.3799 0.36537 0.0
O28 O 0.41446 0.38213 0.31409 0.0
C29 C 0.36258 0.35688 0.40225 0.0
O30 O 0.42011 0.46746 0.32419 0.0
O31 O 0.4679 0.46569 0.37564 0.0
Zn32 Zn 0.91798 0.1239 0.62194 0.0
O33 O 0.88371 0.16752 0.59403 0.0
C34 C 0.93472 0.17377 0.69308 0.0
Zn35 Zn 0.87028 0.10732 0.66163 0.0
C36 C 0.8483 0.16916 0.60451 0.0
O37 O 0.8359 0.14654 0.63112 0.0
C38 C 0.93774 0.05984 0.67865 0.0
O39 O 0.83842 0.06288 0.62097 0.0
O40 O 0.88414 0.08317 0.58145 0.0
N41 N 0.82712 0.0984 0.70005 0.0
C42 C 0.81435 0.06814 0.72211 0.0
C43 C 0.78532 0.11543 0.7386 0.0
N44 N 0.80883 0.12764 0.71021 0.0
N45 N 0.78837 0.07821 0.74689 0.0
C46 C 0.98826 0.16353 0.57613 0.0
C47 C -0.00048 0.11652 0.54107 0.0
N48 N 0.96123 0.13297 0.58355 0.0
N49 N 0.96823 0.10388 0.56159 0.0
N50 N 0.01282 0.15382 0.54983 0.0
H51 H 0.95821 0.20774 0.59987 0.0
H52 H -0.00049 0.22516 0.57143 0.0
H53 H 0.0111 0.20661 0.62082 0.0
C54 C 0.98908 0.20313 0.5929 0.0
C55 C 0.8256 0.0285 0.71765 0.0
H56 H 0.8323 0.02362 0.68685 0.0
H57 H 0.80033 0.0065 0.72461 0.0
H58 H 0.85357 0.02527 0.73878 0.0
O59 O 0.90533 0.0673 0.69184 0.0
O60 O 0.95044 0.07938 0.64977 0.0
C61 C 0.85229 0.06081 0.58763 0.0
O62 O 0.95108 0.16544 0.66275 0.0
O63 O 0.90172 0.15351 0.70027 0.0
Zn64 Zn 0.06862 0.63288 0.85531 0.0
O65 O 0.10863 0.67694 0.89026 0.0
C66 C 0.04819 0.68825 0.79126 0.0
Zn67 Zn 0.11162 0.63449 0.80996 0.0
C68 C 0.14067 0.69192 0.8759 0.0
O69 O 0.14774 0.68031 0.84221 0.0
C70 C 0.04212 0.57213 0.79117 0.0
O71 O 0.1468 0.59559 0.84474 0.0
O72 O 0.10055 0.59203 0.88624 0.0
N73 N 0.15143 0.64027 0.76832 0.0
C74 C 0.16338 0.615 0.74371 0.0
C75 C 0.19124 0.67081 0.7296 0.0
N76 N 0.16891 0.6749 0.7596 0.0
N77 N 0.18802 0.6335 0.71892 0.0
C78 C 0.00971 0.65217 0.91567 0.0
C79 C 0.98312 0.59562 0.92892 0.0
N80 N 0.02812 0.62716 0.89619 0.0
N81 N 0.01177 0.59211 0.90479 0.0
N82 N 0.9813 0.633 0.93634 0.0
H83 H 0.03872 0.70399 0.89033 0.0
H84 H 0.03151 0.70769 0.94186 0.0
H85 H 0.98788 0.70667 0.90394 0.0
C86 C 0.01748 0.69505 0.91236 0.0
C87 C 0.1527 0.57226 0.74532 0.0
H88 H 0.14558 0.5632 0.77542 0.0
H89 H 0.17846 0.55759 0.73751 0.0
H90 H 0.12534 0.56329 0.7231 0.0
O91 O 0.07493 0.58717 0.77831 0.0
O92 O 0.03077 0.58737 0.82131 0.0
C93 C 0.13329 0.58187 0.87623 0.0
O94 O 0.0369 0.67482 0.8237 0.0
O95 O 0.07732 0.67472 0.77719 0.0
Zn96 Zn 0.59942 0.86012 0.14738 0.0
O97 O 0.55334 0.83878 0.09926 0.0
C98 C 0.62885 0.92329 0.09597 0.0
Zn99 Zn 0.56871 0.91166 0.15535 0.0
C100 C 0.52288 0.8576 0.0912 0.0
O101 O 0.5222 0.88858 0.11028 0.0
C102 C 0.64276 0.91299 0.21417 0.0
O103 O 0.53515 0.88296 0.19956 0.0
O104 O 0.56355 0.83166 0.18686 0.0
N105 N 0.53907 0.95879 0.15766 0.0
C106 C 0.53844 0.98476 0.18681 0.0
C107 C 0.50396 0.00346 0.13395 0.0
N108 N 0.51745 0.97036 0.12492 0.0
N109 N 0.51689 0.01319 0.17257 0.0
C110 C 0.64669 0.79813 0.11543 0.0
C111 C 0.66561 0.76944 0.16927 0.0
N112 N 0.6294 0.81305 0.14486 0.0
N113 N 0.64078 0.79483 0.17818 0.0
N114 N 0.66958 0.77077 0.13003 0.0
H115 H 0.61774 0.8287 0.06596 0.0
H116 H 0.64246 0.78895 0.05178 0.0
H117 H 0.67328 0.83246 0.07067 0.0
C118 C 0.64463 0.81296 0.07354 0.0
C119 C 0.55698 0.98123 0.22952 0.0
H120 H 0.55614 0.95057 0.23792 0.0
H121 H 0.54024 0.99614 0.24994 0.0
H122 H 0.58952 0.99474 0.23321 0.0
O123 O 0.61556 0.93393 0.20082 0.0
O124 O 0.64348 0.88089 0.19708 0.0
C125 C 0.53942 0.84779 0.20554 0.0
O126 O 0.63567 0.88989 0.1073 0.0
O127 O 0.60194 0.93931 0.11103 0.0
H128 H 0.10252 0.52993 0.92769 0.0
H129 H 0.14092 0.49991 0.98348 0.0
H130 H 0.25524 0.54934 0.94459 0.0
H131 H 0.21672 0.57968 0.8882 0.0
H132 H 0.20671 0.45015 0.98958 0.0
H133 H 0.25362 0.59573 0.05942 0.0
H134 H 0.21232 0.58675 0.01848 0.0
H135 H 0.26477 0.58847 0.00936 0.0
C136 C 0.13585 0.53373 0.93044 0.0
C137 C 0.15669 0.55738 0.90385 0.0
C138 C 0.15772 0.51652 0.96231 0.0
C139 C 0.20082 0.52292 0.96843 0.0
C140 C 0.22191 0.54442 0.94047 0.0
H141 H 0.34969 0.47602 0.194 0.0
H142 H 0.3281 0.49832 0.12653 0.0
C143 C 0.19993 0.56144 0.90817 0.0
C144 C 0.22276 0.5099 0.00617 0.0
H145 H 0.26903 0.54275 0.09848 0.0
C146 C 0.22088 0.47033 0.01326 0.0
C147 C 0.24109 0.53639 0.03694 0.0
C148 C 0.24305 0.57925 0.03105 0.0
C149 C 0.23617 0.45646 0.05067 0.0
C150 C 0.25271 0.48294 0.08207 0.0
C151 C 0.25604 0.52253 0.07446 0.0
C152 C 0.26545 0.47025 0.12338 0.0
C153 C 0.23433 0.41358 0.05619 0.0
C154 C 0.23713 0.44791 0.14442 0.0
C155 C 0.24937 0.43546 0.18309 0.0
C156 C 0.28984 0.4458 0.20172 0.0
C157 C 0.31793 0.46879 0.18095 0.0
C158 C 0.30577 0.48109 0.1422 0.0
H159 H 0.23325 0.39833 0.02715 0.0
H160 H 0.26129 0.40631 0.07678 0.0
H161 H 0.20595 0.40269 0.06916 0.0
H162 H 0.20558 0.43997 0.13087 0.0
H163 H 0.22735 0.41754 0.19849 0.0
H164 H 0.67856 0.86451 0.26732 0.0
H165 H 0.7115 0.87981 0.33572 0.0
H166 H 0.69942 -0.00026 0.31623 0.0
H167 H 0.66491 0.98434 0.24841 0.0
H168 H 0.77794 0.92127 0.36846 0.0
H169 H 0.6464 0.98329 0.41544 0.0
H170 H 0.64285 0.95816 0.36827 0.0
H171 H 0.66356 0.00833 0.37305 0.0
C172 C 0.68338 0.89422 0.27747 0.0
C173 C 0.6689 0.92324 0.25263 0.0
C174 C 0.70197 0.90289 0.31668 0.0
C175 C 0.70675 0.94075 0.33164 0.0
C176 C 0.69461 0.97009 0.30597 0.0
H177 H 0.87682 0.05187 0.51495 0.0
H178 H 0.8398 0.01574 0.45746 0.0
C179 C 0.67537 0.96136 0.26702 0.0
C180 C 0.72485 0.94972 0.37386 0.0
H181 H 0.71173 -0.00022 0.4569 0.0
C182 C 0.76314 0.93796 0.38796 0.0
C183 C 0.70501 0.9703 0.40003 0.0
C184 C 0.66197 0.98031 0.38855 0.0
C185 C 0.78329 0.94838 0.42642 0.0
C186 C 0.76537 0.97237 0.45096 0.0
C187 C 0.72587 0.98194 0.43793 0.0
C188 C 0.78887 0.99138 0.48781 0.0
C189 C 0.8238 0.93383 0.44012 0.0
C190 C 0.77223 0.99062 0.52419 0.0
C191 C 0.79323 0.0121 0.55746 0.0
C192 C 0.83106 0.03478 0.55466 0.0
C193 C 0.84786 0.03465 0.51841 0.0
C194 C 0.82687 0.01357 0.4854 0.0
H195 H 0.82474 0.90516 0.4266 0.0
H196 H 0.84917 0.95388 0.43011 0.0
H197 H 0.82946 0.93154 0.47321 0.0
H198 H 0.7427 0.97398 0.52662 0.0
H199 H 0.77942 0.01173 0.58488 0.0
H200 H 0.26538 0.65057 0.70187 0.0
H201 H 0.29437 0.62578 0.64503 0.0
H202 H 0.17713 0.55944 0.60438 0.0
H203 H 0.14807 0.58447 0.66079 0.0
H204 H 0.27934 0.53105 0.62573 0.0
H205 H 0.22939 0.63393 0.50823 0.0
H206 H 0.24187 0.64864 0.56023 0.0
H207 H 0.19587 0.6166 0.54442 0.0
C208 C 0.246 0.63068 0.68072 0.0
C209 C 0.20494 0.61856 0.68608 0.0
C210 C 0.26242 0.61669 0.64841 0.0
C211 C 0.23772 0.59094 0.62077 0.0
C212 C 0.19652 0.5793 0.6256 0.0
H213 H 0.29081 0.47882 0.40662 0.0
H214 H 0.2567 0.51086 0.45513 0.0
C215 C 0.18018 0.59313 0.65801 0.0
C216 C 0.25556 0.57475 0.58787 0.0
H217 H 0.26763 0.58618 0.48935 0.0
C218 C 0.27686 0.54301 0.59588 0.0
C219 C 0.25156 0.5903 0.54908 0.0
C220 C 0.2285 0.62431 0.53959 0.0
C221 C 0.29471 0.52637 0.56592 0.0
C222 C 0.29196 0.54265 0.52728 0.0
C223 C 0.26989 0.57402 0.51908 0.0
C224 C 0.31272 0.52771 0.49552 0.0
C225 C 0.31593 0.49123 0.57581 0.0
C226 C 0.35554 0.52814 0.50148 0.0
C227 C 0.3749 0.50969 0.47423 0.0
C228 C 0.35182 0.49099 0.44016 0.0
C229 C 0.30928 0.49294 0.4327 0.0
C230 C 0.2898 0.51114 0.46034 0.0
H231 H 0.30537 0.47627 0.60245 0.0
H232 H 0.31036 0.47055 0.55019 0.0
H233 H 0.34961 0.5001 0.58262 0.0
H234 H 0.37385 0.54164 0.52798 0.0
H235 H 0.40784 0.50919 0.48043 0.0
H236 H 0.69608 0.90315 0.06593 0.0
H237 H 0.72612 0.92987 0.00768 0.0
H238 H 0.63748 0.0107 0.99274 0.0
H239 H 0.60794 0.98477 0.05147 0.0
H240 H 0.68918 0.93012 0.93177 0.0
H241 H 0.74215 0.08032 0.98293 0.0
H242 H 0.727 0.04273 0.01676 0.0
H243 H 0.68866 0.0663 0.98663 0.0
C244 C 0.68333 0.92695 0.05055 0.0
C245 C 0.64965 0.94187 0.06332 0.0
C246 C 0.70052 0.94217 0.01726 0.0
C247 C 0.68438 0.97258 0.9961 0.0
C248 C 0.65113 0.98789 0.00915 0.0
H249 H 0.71405 0.08205 0.76964 0.0
H250 H 0.68821 0.05403 0.82976 0.0
C251 C 0.63415 0.97292 0.04266 0.0
C252 C 0.70064 0.98667 0.95899 0.0
H253 H 0.73905 0.06772 0.91282 0.0
C254 C 0.70045 0.96015 0.92779 0.0
C255 C 0.71539 0.02586 0.95384 0.0
C256 C 0.71874 0.05536 0.98698 0.0
C257 C 0.71374 0.97194 0.89128 0.0
C258 C 0.72747 0.01117 0.8859 0.0
C259 C 0.72808 0.03767 0.91709 0.0
C260 C 0.74165 0.02538 0.84812 0.0
C261 C 0.71236 0.94265 0.85832 0.0
C262 C 0.78008 0.01832 0.83868 0.0
C263 C 0.79495 0.03447 0.80459 0.0
C264 C 0.77136 0.05755 0.77915 0.0
C265 C 0.73256 0.06397 0.78847 0.0
C266 C 0.71785 0.04808 0.82271 0.0
H267 H 0.69591 0.91426 0.86532 0.0
H268 H 0.69698 0.95296 0.82971 0.0
H269 H 0.74427 0.93877 0.85386 0.0
H270 H 0.79917 0.00144 0.85845 0.0
H271 H 0.82568 0.03039 0.79938 0.0
H272 H 0.0751 0.19829 0.59472 0.0
H273 H 0.13752 0.23173 0.57166 0.0
H274 H 0.09388 0.18962 0.45155 0.0
H275 H 0.03123 0.1565 0.47455 0.0
H276 H 0.19568 0.19401 0.52873 0.0
H277 H 0.1244 0.3098 0.44312 0.0
H278 H 0.10074 0.28361 0.48218 0.0
H279 H 0.09848 0.26171 0.43376 0.0
C280 C 0.0784 0.19707 0.56326 0.0
C281 C 0.048 0.17572 0.53611 0.0
C282 C 0.11422 0.2157 0.55024 0.0
C283 C 0.11999 0.21338 0.50989 0.0
C284 C 0.08967 0.1921 0.48273 0.0
H285 H 0.29769 0.31132 0.3617 0.0
H286 H 0.24175 0.27275 0.38982 0.0
C287 C 0.05405 0.17325 0.49581 0.0
C288 C 0.15809 0.23251 0.49611 0.0
H289 H 0.19349 0.30408 0.4359 0.0
C290 C 0.19542 0.21822 0.5086 0.0
C291 C 0.15739 0.26396 0.46988 0.0
C292 C 0.11823 0.281 0.45657 0.0
C293 C 0.23208 0.23398 0.49451 0.0
C294 C 0.23133 0.2653 0.46794 0.0
C295 C 0.19399 0.27989 0.45606 0.0
C296 C 0.26855 0.28349 0.45153 0.0
C297 C 0.27092 0.21625 0.5072 0.0
C298 C 0.30292 0.30133 0.47688 0.0
C299 C 0.33535 0.32305 0.46079 0.0
C300 C 0.33344 0.32778 0.41917 0.0
C301 C 0.29995 0.30832 0.39391 0.0
C302 C 0.2679 0.28635 0.40993 0.0
H303 H 0.2641 0.18658 0.51841 0.0
H304 H 0.28931 0.21536 0.48201 0.0
H305 H 0.28998 0.23387 0.5318 0.0
H306 H 0.30375 0.30013 0.50908 0.0
H307 H 0.36056 0.33807 0.48098 0.0
H308 H 0.99164 0.72862 0.81851 0.0
H309 H 0.97442 0.79181 0.79675 0.0
H310 H 0.05251 0.79132 0.70399 0.0
H311 H 0.06977 0.72796 0.72532 0.0
H312 H 0.03375 0.85764 0.79687 0.0
H313 H 0.94694 0.82709 0.64517 0.0
H314 H 0.95473 0.78987 0.68155 0.0
H315 H 0.99568 0.80886 0.65407 0.0
C316 C 0.00445 0.74148 0.79287 0.0
C317 C 0.03208 0.72309 0.77364 0.0
C318 C 0.99472 0.77774 0.78061 0.0
C319 C 0.01204 0.79626 0.74867 0.0
C320 C 0.03829 0.77736 0.72834 0.0
H321 H 0.99297 0.02311 0.64423 0.0
H322 H 0.01539 0.96072 0.6626 0.0
C323 C 0.04815 0.74109 0.74063 0.0
C324 C 0.00503 0.83641 0.73868 0.0
H325 H 0.96418 0.89254 0.66468 0.0
C326 C 0.01846 0.86527 0.76799 0.0
C327 C 0.9855 0.8464 0.70087 0.0
C328 C 0.96954 0.81646 0.66863 0.0
C329 C 0.01296 0.90385 0.76051 0.0
C330 C 0.9927 0.91377 0.72296 0.0
C331 C 0.9798 0.88497 0.69343 0.0
C332 C 0.98277 0.9534 0.71427 0.0
C333 C 0.02944 0.93367 0.79276 0.0
C334 C 0.95758 0.9704 0.73758 0.0
C335 C 0.94501 0.00613 0.72735 0.0
C336 C 0.95692 0.02551 0.69328 0.0
C337 C 0.98341 0.00911 0.6708 0.0
C338 C 0.99603 0.97331 0.68109 0.0
H339 H 0.05475 0.92399 0.81387 0.0
H340 H 0.04104 0.96144 0.77971 0.0
H341 H 0.00436 0.93862 0.81022 0.0
H342 H 0.94637 0.9554 0.76292 0.0
H343 H 0.92487 0.01799 0.74548 0.0
H344 H 0.16137 0.69502 0.95714 0.0
H345 H 0.22548 0.72758 0.99368 0.0
H346 H 0.25734 0.78064 0.8843 0.0
H347 H 0.19417 0.74718 0.84758 0.0
H348 H 0.31762 0.74378 0.91931 0.0
H349 H 0.26802 0.8355 0.03255 0.0
H350 H 0.24594 0.78609 0.03401 0.0
H351 H 0.23306 0.81419 0.99045 0.0
C352 C 0.18142 0.71466 0.94124 0.0
C353 C 0.17288 0.71865 0.89959 0.0
C354 C 0.2181 0.73324 0.96212 0.0
C355 C 0.24624 0.75666 0.94175 0.0
C356 C 0.23622 0.7626 0.90061 0.0
H357 H 0.46504 0.89824 0.05312 0.0
H358 H 0.39943 0.87303 0.01437 0.0
C359 C 0.20001 0.74366 0.87971 0.0
C360 C 0.28782 0.77182 0.96204 0.0
H361 H 0.33883 0.82623 0.04131 0.0
C362 C 0.32226 0.76205 0.94585 0.0
C363 C 0.29386 0.79574 0.99653 0.0
C364 C 0.25827 0.80883 0.01421 0.0
C365 C 0.36253 0.77548 0.96318 0.0
C366 C 0.36859 0.79849 0.99833 0.0
C367 C 0.33416 0.80836 0.01448 0.0
C368 C 0.41026 0.81351 0.01848 0.0
C369 C 0.3981 0.76559 0.94311 0.0
C370 C 0.43869 0.78848 0.03293 0.0
C371 C 0.47667 0.80293 0.05461 0.0
C372 C 0.4864 0.84255 0.06281 0.0
C373 C 0.45837 0.86755 0.04733 0.0
C374 C 0.42078 0.85318 0.02533 0.0
H375 H 0.38833 0.75757 0.91108 0.0
H376 H 0.42326 0.79005 0.94496 0.0
H377 H 0.41053 0.74062 0.9583 0.0
H378 H 0.43094 0.75769 0.02871 0.0
H379 H 0.49743 0.78297 0.06664 0.0
H380 H 0.51125 0.33094 0.35892 0.0
H381 H 0.53051 0.27288 0.33071 0.0
H382 H 0.43927 0.27961 0.22775 0.0
H383 H 0.41947 0.33758 0.2558 0.0
H384 H 0.46792 0.20581 0.31293 0.0
H385 H 0.54586 0.2556 0.18194 0.0
H386 H 0.54261 0.28703 0.22347 0.0
H387 H 0.49853 0.27441 0.1866 0.0
C388 C 0.49578 0.32055 0.32993 0.0
C389 C 0.46351 0.33862 0.3098 0.0
C390 C 0.50686 0.2874 0.31389 0.0
C391 C 0.48633 0.27217 0.27722 0.0
C392 C 0.45573 0.29128 0.25593 0.0
H393 H 0.44776 0.04637 0.16938 0.0
H394 H 0.44132 0.10985 0.19691 0.0
C395 C 0.44441 0.32431 0.27207 0.0
C396 C 0.49363 0.23415 0.26338 0.0
H397 H 0.52797 0.18811 0.18792 0.0
C398 C 0.48134 0.2019 0.28578 0.0
C399 C 0.51111 0.22941 0.22799 0.0
C400 C 0.52563 0.2634 0.20363 0.0
C401 C 0.48525 0.16473 0.2731 0.0
C402 C 0.50191 0.15995 0.23731 0.0
C403 C 0.51502 0.19217 0.21531 0.0
C404 C 0.50545 0.12146 0.22206 0.0
C405 C 0.47136 0.13067 0.2977 0.0
C406 C 0.54355 0.10739 0.22741 0.0
C407 C 0.54711 0.07124 0.2121 0.0
C408 C 0.5126 0.04883 0.19122 0.0
C409 C 0.47453 0.0631 0.18583 0.0
C410 C 0.47089 0.09914 0.2014 0.0
H411 H 0.46278 0.1395 0.32676 0.0
H412 H 0.44424 0.11323 0.28064 0.0
H413 H 0.49617 0.11203 0.30355 0.0
H414 H 0.57052 0.12454 0.24305 0.0
H415 H 0.57703 0.06133 0.21543 0.0
H416 H 0.76769 0.16878 0.61198 0.0
H417 H 0.72294 0.21633 0.5891 0.0
H418 H 0.82153 0.28134 0.53605 0.0
H419 H 0.86718 0.23306 0.55884 0.0
H420 H 0.73801 0.29534 0.61123 0.0
H421 H 0.72109 0.27182 0.44605 0.0
H422 H 0.73928 0.23663 0.48098 0.0
H423 H 0.77243 0.27979 0.47276 0.0
C424 C 0.78005 0.19298 0.59522 0.0
C425 C 0.82115 0.19719 0.58735 0.0
C426 C 0.75431 0.22019 0.58219 0.0
C427 C 0.76885 0.2523 0.5609 0.0
C428 C 0.80962 0.25647 0.55213 0.0
H429 H 0.61291 0.42653 0.46871 0.0
H430 H 0.67392 0.394 0.48847 0.0
C431 C 0.83562 0.22896 0.56517 0.0
C432 C 0.74097 0.28153 0.54954 0.0
H433 H 0.68141 0.3155 0.47002 0.0
C434 C 0.726 0.30015 0.58032 0.0
C435 C 0.7255 0.28779 0.50923 0.0
C436 C 0.74008 0.2679 0.47518 0.0
C437 C 0.6949 0.32381 0.57194 0.0
C438 C 0.67801 0.32858 0.53176 0.0
C439 C 0.69434 0.31153 0.50083 0.0
C440 C 0.64183 0.34931 0.52139 0.0
C441 C 0.67991 0.34303 0.60618 0.0
C442 C 0.60373 0.33496 0.53346 0.0
C443 C 0.56903 0.35346 0.5222 0.0
C444 C 0.57193 0.38646 0.49859 0.0
C445 C 0.61019 0.40119 0.48714 0.0
C446 C 0.64484 0.38259 0.49819 0.0
H447 H 0.70301 0.34512 0.63348 0.0
H448 H 0.67274 0.37236 0.59798 0.0
H449 H 0.65133 0.32582 0.61355 0.0
H450 H 0.6007 0.30906 0.55105 0.0
H451 H 0.53995 0.342 0.53178 0.0
H452 H 0.06207 0.52836 0.73124 0.0
H453 H 0.04023 0.45983 0.71823 0.0
H454 H 0.95551 0.45891 0.80512 0.0
H455 H 0.9776 0.52746 0.81887 0.0
H456 H 0.04755 0.40421 0.78727 0.0
H457 H 0.89031 0.39753 0.7021 0.0
H458 H 0.92828 0.43952 0.70179 0.0
H459 H 0.90314 0.42904 0.74528 0.0
C460 C 0.03826 0.51391 0.74709 0.0
C461 C 0.02201 0.53349 0.77643 0.0
C462 C 0.02585 0.47465 0.73963 0.0
C463 C 0.99644 0.45431 0.76086 0.0
C464 C 0.97813 0.47416 0.78829 0.0
H465 H 0.89548 0.21099 0.74507 0.0
H466 H 0.91206 0.2781 0.76765 0.0
C467 C 0.99076 0.51342 0.796 0.0
C468 C 0.98771 0.41185 0.75682 0.0
H469 H 0.915 0.33863 0.71851 0.0
C470 C 0.01856 0.38978 0.7723 0.0
C471 C 0.9497 0.39322 0.73784 0.0
C472 C 0.91584 0.41584 0.72054 0.0
C473 C 0.0125 0.34946 0.76906 0.0
C474 C 0.97495 0.33074 0.74882 0.0
C475 C 0.94378 0.35289 0.73407 0.0
C476 C 0.96815 0.28857 0.74044 0.0
C477 C 0.04626 0.32737 0.78783 0.0
C478 C 0.99478 0.27167 0.71869 0.0
C479 C 0.98569 0.23318 0.70625 0.0
C480 C 0.94936 0.21087 0.71461 0.0
C481 C 0.92384 0.22722 0.73826 0.0
C482 C 0.93309 0.26573 0.7509 0.0
H483 H 0.06565 0.34378 0.81317 0.0
H484 H 0.03354 0.29906 0.79893 0.0
H485 H 0.06653 0.3224 0.76513 0.0
H486 H 0.02162 0.28872 0.70958 0.0
H487 H 0.00615 0.22151 0.68837 0.0
H488 H 0.99358 0.68777 0.99464 0.0
H489 H 0.94052 0.71091 0.02953 0.0
H490 H 0.84715 0.63323 0.95831 0.0
H491 H 0.90014 0.61008 0.92378 0.0
H492 H 0.8725 0.74528 -0.00048 0.0
H493 H 0.82438 0.60722 0.07123 0.0
H494 H 0.87097 0.6157 0.04821 0.0
H495 H 0.822 0.60296 0.01792 0.0
C496 C 0.96167 0.67613 0.98622 0.0
C497 C 0.95068 0.6475 0.95638 0.0
C498 C 0.93148 0.68905 0.0063 0.0
C499 C 0.89002 0.67331 0.99692 0.0
C500 C 0.87905 0.64508 0.96669 0.0
H501 H 0.65827 0.72354 0.06542 0.0
H502 H 0.71265 0.69959 0.03267 0.0
C503 C 0.90919 0.63204 0.94688 0.0
C504 C 0.85797 0.68683 0.0181 0.0
H505 H 0.78075 0.65613 0.07335 0.0
C506 C 0.85265 0.72588 0.01593 0.0
C507 C 0.83216 0.66138 0.03951 0.0
C508 C 0.83786 0.61956 0.04475 0.0
C509 C 0.82154 0.74001 0.03387 0.0
C510 C 0.79538 0.71443 0.05462 0.0
C511 C 0.80079 0.67549 0.05707 0.0
C512 C 0.76266 0.72788 0.07464 0.0
C513 C 0.81632 0.78203 0.03005 0.0
C514 C 0.77303 0.75095 0.10926 0.0
C515 C 0.74221 0.76438 0.12781 0.0
C516 C 0.7007 0.7551 0.11185 0.0
C517 C 0.69023 0.73136 0.0777 0.0
C518 C 0.7211 0.71767 0.05923 0.0
H519 H 0.83428 0.79651 0.00735 0.0
H520 H 0.78334 0.78549 0.02176 0.0
H521 H 0.82703 0.79677 0.05935 0.0
H522 H 0.80497 0.75872 0.12175 0.0
H523 H 0.7507 0.78268 0.15418 0.0
H524 H 0.55894 0.84639 0.28604 0.0
H525 H 0.54251 0.78973 0.3269 0.0
H526 H 0.4583 0.73751 0.22732 0.0
H527 H 0.47428 0.79409 0.18699 0.0
H528 H 0.43476 0.71608 0.30282 0.0
H529 H 0.59849 0.69988 0.29102 0.0
H530 H 0.58922 0.74246 0.31599 0.0
H531 H 0.5723 0.73564 0.26332 0.0
C532 C 0.53516 0.8237 0.27388 0.0
C533 C 0.51741 0.82443 0.23375 0.0
C534 C 0.52627 0.79118 0.29694 0.0
C535 C 0.49999 0.75916 0.27971 0.0
C536 C 0.47874 0.7619 0.24112 0.0
H537 H 0.44244 0.51924 0.27293 0.0
H538 H 0.45704 0.58849 0.26298 0.0
C539 C 0.48758 0.7943 0.21818 0.0
C540 C 0.49956 0.72085 0.29822 0.0
H541 H 0.55775 0.64701 0.31404 0.0
C542 C 0.46181 0.70121 0.30609 0.0
C543 C 0.53494 0.70143 0.30201 0.0
C544 C 0.57604 0.72068 0.29244 0.0
C545 C 0.45812 0.66221 0.31617 0.0
C546 C 0.49298 0.64247 0.31802 0.0
C547 C 0.5312 0.66247 0.31237 0.0
C548 C 0.48929 0.60041 0.32265 0.0
C549 C 0.41668 0.64194 0.32344 0.0
C550 C 0.50471 0.58424 0.3587 0.0
C551 C 0.49627 0.54466 0.36452 0.0
C552 C 0.47231 0.52092 0.33427 0.0
C553 C 0.46006 0.53693 0.29704 0.0
C554 C 0.46836 0.57642 0.29133 0.0
H555 H 0.39537 0.66261 0.32952 0.0
H556 H 0.40256 0.62459 0.29649 0.0
H557 H 0.42002 0.62207 0.34908 0.0
H558 H 0.52135 0.60244 0.38298 0.0
H559 H 0.50613 0.53317 0.39357 0.0
loop_
_geom_bond_atom_site_label_1
_geom_bond_atom_site_label_2
_geom_bond_distance
_geom_bond_site_symmetry_2
_ccdc_geom_bond_type
Zn0 O1 2.055 . S
Zn0 O8 2.046 . S
Zn0 N16 2.036 . S
Zn0 O28 2.053 . S
Zn0 O30 2.066 . S
O1 Zn0 2.055 . S
O1 C4 1.259 . S
C2 O30 1.256 . S
C2 O31 1.244 . S
Zn3 O5 2.046 . S
Zn3 O7 2.055 . S
Zn3 N9 2.036 . S
Zn3 O27 2.066 . S
Zn3 O31 2.053 . S
C4 O1 1.259 . S
C4 O5 1.254 . S
O5 Zn3 2.046 . S
O5 C4 1.254 . S
C6 O27 1.256 . S
C6 O28 1.244 . S
O7 Zn3 2.055 . S
O7 C29 1.259 . S
O8 Zn0 2.046 . S
O8 C29 1.254 . S
N9 Zn3 2.036 . S
N9 C10 1.298 . S
N9 N12 1.398 . S
C10 N9 1.298 . S
C10 N13 1.367 . S
C10 C23 1.481 . S
C11 N12 1.299 . S
C11 N13 1.379 . S
N12 N9 1.398 . S
N12 C11 1.299 . S
N13 C10 1.367 . S
N13 C11 1.379 . S
C14 N16 1.298 . S
C14 N18 1.367 . S
C14 C22 1.481 . S
C15 N17 1.299 . S
C15 N18 1.379 . S
N16 Zn0 2.036 . S
N16 C14 1.298 . S
N16 N17 1.398 . S
N17 C15 1.299 . S
N17 N16 1.398 . S
N18 C14 1.367 . S
N18 C15 1.379 . S
H19 C22 0.980 . S
H20 C22 0.981 . S
H21 C22 0.981 . S
C22 C14 1.481 . S
C22 H19 0.980 . S
C22 H20 0.981 . S
C22 H21 0.981 . S
C23 C10 1.481 . S
C23 H24 0.980 . S
C23 H25 0.981 . S
C23 H26 0.981 . S
H24 C23 0.980 . S
H25 C23 0.981 . S
H26 C23 0.981 . S
O27 Zn3 2.066 . S
O27 C6 1.256 . S
O28 Zn0 2.053 . S
O28 C6 1.244 . S
C29 O7 1.259 . S
C29 O8 1.254 . S
O30 Zn0 2.066 . S
O30 C2 1.256 . S
O31 C2 1.244 . S
O31 Zn3 2.053 . S
Zn32 O33 2.055 . S
Zn32 O40 2.046 . S
Zn32 N48 2.036 . S
Zn32 O60 2.053 . S
Zn32 O62 2.066 . S
O33 Zn32 2.055 . S
O33 C36 1.259 . S
C34 O62 1.256 . S
C34 O63 1.244 . S
Zn35 O37 2.046 . S
Zn35 O39 2.055 . S
Zn35 N41 2.036 . S
Zn35 O59 2.066 . S
Zn35 O63 2.053 . S
C36 O33 1.259 . S
C36 O37 1.254 . S
O37 Zn35 2.046 . S
O37 C36 1.254 . S
C38 O59 1.256 . S
C38 O60 1.244 . S
O39 Zn35 2.055 . S
O39 C61 1.259 . S
O40 Zn32 2.046 . S
O40 C61 1.254 . S
N41 Zn35 2.036 . S
N41 C42 1.298 . S
N41 N44 1.398 . S
C42 N41 1.298 . S
C42 N45 1.367 . S
C42 C55 1.481 . S
C43 N44 1.299 . S
C43 N45 1.379 . S
N44 N41 1.398 . S
N44 C43 1.299 . S
N45 C42 1.367 . S
N45 C43 1.379 . S
C46 N48 1.298 . S
C46 N50 1.367 1_655 S
C46 C54 1.481 . S
C47 N49 1.299 1_455 S
C47 N50 1.379 . S
N48 Zn32 2.036 . S
N48 C46 1.298 . S
N48 N49 1.398 . S
N49 C47 1.299 1_655 S
N49 N48 1.398 . S
N50 C46 1.367 1_455 S
N50 C47 1.379 . S
H51 C54 0.980 . S
H52 C54 0.981 . S
H53 C54 0.981 . S
C54 C46 1.481 . S
C54 H51 0.980 . S
C54 H52 0.981 . S
C54 H53 0.981 . S
C55 C42 1.481 . S
C55 H56 0.980 . S
C55 H57 0.981 . S
C55 H58 0.981 . S
H56 C55 0.980 . S
H57 C55 0.981 . S
H58 C55 0.981 . S
O59 Zn35 2.066 . S
O59 C38 1.256 . S
O60 Zn32 2.053 . S
O60 C38 1.244 . S
C61 O39 1.259 . S
C61 O40 1.254 . S
O62 Zn32 2.066 . S
O62 C34 1.256 . S
O63 C34 1.244 . S
O63 Zn35 2.053 . S
Zn64 O65 2.055 . S
Zn64 O72 2.046 . S
Zn64 N80 2.036 . S
Zn64 O92 2.053 . S
Zn64 O94 2.066 . S
O65 Zn64 2.055 . S
O65 C68 1.259 . S
C66 O94 1.256 . S
C66 O95 1.244 . S
Zn67 O69 2.046 . S
Zn67 O71 2.055 . S
Zn67 N73 2.036 . S
Zn67 O91 2.066 . S
Zn67 O95 2.053 . S
C68 O65 1.259 . S
C68 O69 1.254 . S
O69 Zn67 2.046 . S
O69 C68 1.254 . S
C70 O91 1.256 . S
C70 O92 1.244 . S
O71 Zn67 2.055 . S
O71 C93 1.259 . S
O72 Zn64 2.046 . S
O72 C93 1.254 . S
N73 Zn67 2.036 . S
N73 C74 1.298 . S
N73 N76 1.398 . S
C74 N73 1.298 . S
C74 N77 1.367 . S
C74 C87 1.481 . S
C75 N76 1.299 . S
C75 N77 1.379 . S
N76 N73 1.398 . S
N76 C75 1.299 . S
N77 C74 1.367 . S
N77 C75 1.379 . S
C78 N80 1.298 . S
C78 N82 1.367 . S
C78 C86 1.481 . S
C79 N81 1.299 1_655 S
C79 N82 1.379 1_655 S
N80 Zn64 2.036 . S
N80 C78 1.298 . S
N80 N81 1.398 . S
N81 C79 1.299 1_455 S
N81 N80 1.398 . S
N82 C78 1.367 . S
N82 C79 1.379 1_455 S
H83 C86 0.980 . S
H84 C86 0.981 . S
H85 C86 0.981 . S
C86 C78 1.481 . S
C86 H83 0.980 . S
C86 H84 0.981 . S
C86 H85 0.981 . S
C87 C74 1.481 . S
C87 H88 0.980 . S
C87 H89 0.981 . S
C87 H90 0.981 . S
H88 C87 0.980 . S
H89 C87 0.981 . S
H90 C87 0.981 . S
O91 Zn67 2.066 . S
O91 C70 1.256 . S
O92 Zn64 2.053 . S
O92 C70 1.244 . S
C93 O71 1.259 . S
C93 O72 1.254 . S
O94 Zn64 2.066 . S
O94 C66 1.256 . S
O95 C66 1.244 . S
O95 Zn67 2.053 . S
Zn96 O97 2.055 . S
Zn96 O104 2.046 . S
Zn96 N112 2.036 . S
Zn96 O124 2.053 . S
Zn96 O126 2.066 . S
O97 Zn96 2.055 . S
O97 C100 1.259 . S
C98 O126 1.256 . S
C98 O127 1.244 . S
Zn99 O101 2.046 . S
Zn99 O103 2.055 . S
Zn99 N105 2.036 . S
Zn99 O123 2.066 . S
Zn99 O127 2.053 . S
C100 O97 1.259 . S
C100 O101 1.254 . S
O101 Zn99 2.046 . S
O101 C100 1.254 . S
C102 O123 1.256 . S
C102 O124 1.244 . S
O103 Zn99 2.055 . S
O103 C125 1.259 . S
O104 Zn96 2.046 . S
O104 C125 1.254 . S
N105 Zn99 2.036 . S
N105 C106 1.298 . S
N105 N108 1.398 . S
C106 N105 1.298 . S
C106 N109 1.367 . S
C106 C119 1.481 . S
C107 N108 1.299 1_545 S
C107 N109 1.379 1_545 S
N108 N105 1.398 . S
N108 C107 1.299 1_565 S
N109 C106 1.367 . S
N109 C107 1.379 1_565 S
C110 N112 1.298 . S
C110 N114 1.367 . S
C110 C118 1.481 . S
C111 N113 1.299 . S
C111 N114 1.379 . S
N112 Zn96 2.036 . S
N112 C110 1.298 . S
N112 N113 1.398 . S
N113 C111 1.299 . S
N113 N112 1.398 . S
N114 C110 1.367 . S
N114 C111 1.379 . S
H115 C118 0.980 . S
H116 C118 0.981 . S
H117 C118 0.981 . S
C118 C110 1.481 . S
C118 H115 0.980 . S
C118 H116 0.981 . S
C118 H117 0.981 . S
C119 C106 1.481 . S
C119 H120 0.980 . S
C119 H121 0.981 . S
C119 H122 0.981 . S
H120 C119 0.980 . S
H121 C119 0.981 . S
H122 C119 0.981 . S
O123 Zn99 2.066 . S
O123 C102 1.256 . S
O124 Zn96 2.053 . S
O124 C102 1.244 . S
C125 O103 1.259 . S
C125 O104 1.254 . S
O126 Zn96 2.066 . S
O126 C98 1.256 . S
O127 C98 1.244 . S
O127 Zn99 2.053 . S
H128 C136 0.929 . S
H129 C138 0.930 . S
H130 C140 0.930 . S
H131 C143 0.929 . S
H132 C146 0.930 . S
H133 C148 0.960 . S
H134 C148 0.960 . S
H135 C148 0.960 . S
C136 H128 0.929 . S
C136 C137 1.377 . S
C136 C138 1.384 . S
C137 C136 1.377 . S
C137 C143 1.390 . S
C138 H129 0.930 . S
C138 C136 1.384 . S
C138 C139 1.372 . S
C139 C138 1.372 . S
C139 C140 1.400 . S
C139 C144 1.490 1_556 S
C140 H130 0.930 . S
C140 C139 1.400 . S
C140 C143 1.386 . S
H141 C157 0.930 . S
H142 C158 0.931 . S
C143 H131 0.929 . S
C143 C137 1.390 . S
C143 C140 1.386 . S
C144 C139 1.490 1_554 S
C144 C146 1.395 . S
C144 C147 1.403 . S
H145 C151 0.930 . S
C146 H132 0.930 . S
C146 C144 1.395 . S
C146 C149 1.403 . S
C147 C144 1.403 . S
C147 C148 1.524 . S
C147 C151 1.400 . S
C148 H133 0.960 . S
C148 H134 0.960 . S
C148 H135 0.960 . S
C148 C147 1.524 . S
C149 C146 1.403 . S
C149 C150 1.392 . S
C149 C153 1.495 . S
C150 C149 1.392 . S
C150 C151 1.385 . S
C150 C152 1.478 . S
C151 H145 0.930 . S
C151 C147 1.400 . S
C151 C150 1.385 . S
C152 C150 1.478 . S
C152 C154 1.381 . S
C152 C158 1.383 . S
C153 C149 1.495 . S
C153 H159 0.959 . S
C153 H160 0.961 . S
C153 H161 0.960 . S
C154 C152 1.381 . S
C154 C155 1.394 . S
C154 H162 0.930 . S
C155 C154 1.394 . S
C155 C156 1.383 . S
C155 H163 0.929 . S
C156 C155 1.383 . S
C156 C157 1.377 . S
C157 H141 0.930 . S
C157 C156 1.377 . S
C157 C158 1.379 . S
C158 H142 0.931 . S
C158 C152 1.383 . S
C158 C157 1.379 . S
H159 C153 0.959 . S
H160 C153 0.961 . S
H161 C153 0.960 . S
H162 C154 0.930 . S
H163 C155 0.929 . S
H164 C172 0.929 . S
H165 C174 0.930 . S
H166 C176 0.930 1_545 S
H167 C179 0.929 . S
H168 C182 0.930 . S
H169 C184 0.960 . S
H170 C184 0.960 1_565 S
H171 C184 0.960 . S
C172 H164 0.929 . S
C172 C173 1.377 . S
C172 C174 1.384 . S
C173 C172 1.377 . S
C173 C179 1.390 . S
C174 H165 0.930 . S
C174 C172 1.384 . S
C174 C175 1.372 . S
C175 C174 1.372 . S
C175 C176 1.400 . S
C175 C180 1.490 . S
C176 H166 0.930 1_565 S
C176 C175 1.400 . S
C176 C179 1.386 . S
H177 C193 0.930 . S
H178 C194 0.931 . S
C179 H167 0.929 . S
C179 C173 1.390 . S
C179 C176 1.386 . S
C180 C175 1.490 . S
C180 C182 1.395 . S
C180 C183 1.403 . S
H181 C187 0.930 . S
C182 H168 0.930 . S
C182 C180 1.395 . S
C182 C185 1.403 . S
C183 C180 1.403 . S
C183 C184 1.524 1_565 S
C183 C187 1.400 1_565 S
C184 H169 0.960 . S
C184 H170 0.960 1_545 S
C184 H171 0.960 . S
C184 C183 1.524 1_545 S
C185 C182 1.403 . S
C185 C186 1.392 . S
C185 C189 1.495 . S
C186 C185 1.392 . S
C186 C187 1.385 1_565 S
C186 C188 1.478 1_565 S
C187 H181 0.930 . S
C187 C183 1.400 1_545 S
C187 C186 1.385 1_545 S
C188 C186 1.478 1_545 S
C188 C190 1.381 1_545 S
C188 C194 1.383 . S
C189 C185 1.495 . S
C189 H195 0.959 . S
C189 H196 0.961 . S
C189 H197 0.960 . S
C190 C188 1.381 1_565 S
C190 C191 1.394 . S
C190 H198 0.930 . S
C191 C190 1.394 . S
C191 C192 1.383 1_565 S
C191 H199 0.929 . S
C192 C191 1.383 1_545 S
C192 C193 1.377 . S
C193 H177 0.930 . S
C193 C192 1.377 . S
C193 C194 1.379 . S
C194 H178 0.931 . S
C194 C188 1.383 . S
C194 C193 1.379 . S
H195 C189 0.959 . S
H196 C189 0.961 . S
H197 C189 0.960 . S
H198 C190 0.930 . S
H199 C191 0.929 . S
H200 C208 0.929 . S
H201 C210 0.930 . S
H202 C212 0.930 . S
H203 C215 0.929 . S
H204 C218 0.930 . S
H205 C220 0.960 . S
H206 C220 0.960 . S
H207 C220 0.960 . S
C208 H200 0.929 . S
C208 C209 1.377 . S
C208 C210 1.384 . S
C209 C208 1.377 . S
C209 C215 1.390 . S
C210 H201 0.930 . S
C210 C208 1.384 . S
C210 C211 1.372 . S
C211 C210 1.372 . S
C211 C212 1.400 . S
C211 C216 1.490 . S
C212 H202 0.930 . S
C212 C211 1.400 . S
C212 C215 1.386 . S
H213 C229 0.930 . S
H214 C230 0.931 . S
C215 H203 0.929 . S
C215 C209 1.390 . S
C215 C212 1.386 . S
C216 C211 1.490 . S
C216 C218 1.395 . S
C216 C219 1.403 . S
H217 C223 0.930 . S
C218 H204 0.930 . S
C218 C216 1.395 . S
C218 C221 1.403 . S
C219 C216 1.403 . S
C219 C220 1.524 . S
C219 C223 1.400 . S
C220 H205 0.960 . S
C220 H206 0.960 . S
C220 H207 0.960 . S
C220 C219 1.524 . S
C221 C218 1.403 . S
C221 C222 1.392 . S
C221 C225 1.495 . S
C222 C221 1.392 . S
C222 C223 1.385 . S
C222 C224 1.478 . S
C223 H217 0.930 . S
C223 C219 1.400 . S
C223 C222 1.385 . S
C224 C222 1.478 . S
C224 C226 1.381 . S
C224 C230 1.383 . S
C225 C221 1.495 . S
C225 H231 0.959 . S
C225 H232 0.961 . S
C225 H233 0.960 . S
C226 C224 1.381 . S
C226 C227 1.394 . S
C226 H234 0.930 . S
C227 C226 1.394 . S
C227 C228 1.383 . S
C227 H235 0.929 . S
C228 C227 1.383 . S
C228 C229 1.377 . S
C229 H213 0.930 . S
C229 C228 1.377 . S
C229 C230 1.379 . S
C230 H214 0.931 . S
C230 C224 1.383 . S
C230 C229 1.379 . S
H231 C225 0.959 . S
H232 C225 0.961 . S
H233 C225 0.960 . S
H234 C226 0.930 . S
H235 C227 0.929 . S
H236 C244 0.929 . S
H237 C246 0.930 . S
H238 C248 0.925 1_546 S
H239 C251 0.929 . S
H240 C254 0.930 . S
H241 C256 0.960 . S
H242 C256 0.960 1_554 S
H243 C256 0.960 . S
C244 H236 0.929 . S
C244 C245 1.377 . S
C244 C246 1.384 . S
C245 C244 1.377 . S
C245 C251 1.390 . S
C246 H237 0.930 . S
C246 C244 1.384 . S
C246 C247 1.372 1_554 S
C247 C246 1.372 1_556 S
C247 C248 1.400 1_556 S
C247 C252 1.490 . S
C248 H238 0.925 1_564 S
C248 C247 1.400 1_554 S
C248 C251 1.386 . S
H249 C265 0.930 . S
H250 C266 0.931 . S
C251 H239 0.929 . S
C251 C245 1.390 . S
C251 C248 1.386 . S
C252 C247 1.490 . S
C252 C254 1.395 . S
C252 C255 1.403 1_565 S
H253 C259 0.930 . S
C254 H240 0.930 . S
C254 C252 1.395 . S
C254 C257 1.403 . S
C255 C252 1.403 1_545 S
C255 C256 1.524 . S
C255 C259 1.400 . S
C256 H241 0.960 . S
C256 H242 0.960 1_556 S
C256 H243 0.960 . S
C256 C255 1.524 . S
C257 C254 1.403 . S
C257 C258 1.392 . S
C257 C261 1.495 . S
C258 C257 1.392 . S
C258 C259 1.385 1_565 S
C258 C260 1.478 1_565 S
C259 H253 0.930 . S
C259 C255 1.400 . S
C259 C258 1.385 1_545 S
C260 C258 1.478 1_545 S
C260 C262 1.381 1_545 S
C260 C266 1.383 . S
C261 C257 1.495 . S
C261 H267 0.959 . S
C261 H268 0.961 . S
C261 H269 0.960 . S
C262 C260 1.381 1_565 S
C262 C263 1.394 1_565 S
C262 H270 0.930 . S
C263 C262 1.394 1_545 S
C263 C264 1.383 . S
C263 H271 0.929 1_545 S
C264 C263 1.383 . S
C264 C265 1.377 . S
C265 H249 0.930 . S
C265 C264 1.377 . S
C265 C266 1.379 . S
C266 H250 0.931 . S
C266 C260 1.383 . S
C266 C265 1.379 . S
H267 C261 0.959 . S
H268 C261 0.961 . S
H269 C261 0.960 . S
H270 C262 0.930 . S
H271 C263 0.929 1_565 S
H272 C280 0.929 . S
H273 C282 0.930 . S
H274 C284 0.930 . S
H275 C287 0.929 . S
H276 C290 0.930 . S
H277 C292 0.960 . S
H278 C292 0.960 . S
H279 C292 0.960 . S
C280 H272 0.929 . S
C280 C281 1.377 . S
C280 C282 1.384 . S
C281 C280 1.377 . S
C281 C287 1.390 . S
C282 H273 0.930 . S
C282 C280 1.384 . S
C282 C283 1.372 . S
C283 C282 1.372 . S
C283 C284 1.400 . S
C283 C288 1.490 . S
C284 H274 0.930 . S
C284 C283 1.400 . S
C284 C287 1.386 . S
H285 C301 0.930 . S
H286 C302 0.931 . S
C287 H275 0.929 . S
C287 C281 1.390 . S
C287 C284 1.386 . S
C288 C283 1.490 . S
C288 C290 1.395 . S
C288 C291 1.403 . S
H289 C295 0.930 . S
C290 H276 0.930 . S
C290 C288 1.395 . S
C290 C293 1.403 . S
C291 C288 1.403 . S
C291 C292 1.524 . S
C291 C295 1.400 . S
C292 H277 0.960 . S
C292 H278 0.960 . S
C292 H279 0.960 . S
C292 C291 1.524 . S
C293 C290 1.403 . S
C293 C294 1.392 . S
C293 C297 1.495 . S
C294 C293 1.392 . S
C294 C295 1.385 . S
C294 C296 1.478 . S
C295 H289 0.930 . S
C295 C291 1.400 . S
C295 C294 1.385 . S
C296 C294 1.478 . S
C296 C298 1.381 . S
C296 C302 1.383 . S
C297 C293 1.495 . S
C297 H303 0.959 . S
C297 H304 0.961 . S
C297 H305 0.960 . S
C298 C296 1.381 . S
C298 C299 1.394 . S
C298 H306 0.930 . S
C299 C298 1.394 . S
C299 C300 1.383 . S
C299 H307 0.929 . S
C300 C299 1.383 . S
C300 C301 1.377 . S
C301 H285 0.930 . S
C301 C300 1.377 . S
C301 C302 1.379 . S
C302 H286 0.931 . S
C302 C296 1.383 . S
C302 C301 1.379 . S
H303 C297 0.959 . S
H304 C297 0.961 . S
H305 C297 0.960 . S
H306 C298 0.930 . S
H307 C299 0.929 . S
H308 C316 0.929 . S
H309 C318 0.930 . S
H310 C320 0.930 . S
H311 C323 0.929 . S
H312 C326 0.930 . S
H313 C328 0.960 . S
H314 C328 0.960 . S
H315 C328 0.954 1_455 S
C316 H308 0.929 . S
C316 C317 1.377 . S
C316 C318 1.384 . S
C317 C316 1.377 . S
C317 C323 1.390 . S
C318 H309 0.930 . S
C318 C316 1.384 . S
C318 C319 1.372 . S
C319 C318 1.372 . S
C319 C320 1.400 . S
C319 C324 1.490 . S
C320 H310 0.930 . S
C320 C319 1.400 . S
C320 C323 1.386 . S
H321 C337 0.930 . S
H322 C338 0.931 1_455 S
C323 H311 0.929 . S
C323 C317 1.390 . S
C323 C320 1.386 . S
C324 C319 1.490 . S
C324 C326 1.395 . S
C324 C327 1.420 . S
H325 C331 0.930 . S
C326 H312 0.930 . S
C326 C324 1.395 . S
C326 C329 1.403 . S
C327 C324 1.420 . S
C327 C328 1.516 1_455 S
C327 C331 1.389 1_455 S
C328 H313 0.960 . S
C328 H314 0.960 . S
C328 H315 0.954 1_655 S
C328 C327 1.516 1_655 S
C329 C326 1.403 . S
C329 C330 1.392 . S
C329 C333 1.495 . S
C330 C329 1.392 . S
C330 C331 1.385 1_455 S
C330 C332 1.478 1_455 S
C331 H325 0.930 . S
C331 C327 1.389 1_655 S
C331 C330 1.385 1_655 S
C332 C330 1.478 1_655 S
C332 C334 1.381 . S
C332 C338 1.383 . S
C333 C329 1.495 . S
C333 H339 0.959 . S
C333 H340 0.961 . S
C333 H341 0.960 . S
C334 C332 1.381 . S
C334 C335 1.394 1_565 S
C334 H342 0.930 . S
C335 C334 1.394 1_545 S
C335 C336 1.383 . S
C335 H343 0.929 . S
C336 C335 1.383 . S
C336 C337 1.377 . S
C337 H321 0.930 . S
C337 C336 1.377 . S
C337 C338 1.379 1_545 S
C338 H322 0.931 1_655 S
C338 C332 1.383 . S
C338 C337 1.379 1_565 S
H339 C333 0.959 . S
H340 C333 0.961 . S
H341 C333 0.960 . S
H342 C334 0.930 . S
H343 C335 0.929 . S
H344 C352 0.929 . S
H345 C354 0.930 . S
H346 C356 0.930 . S
H347 C359 0.929 . S
H348 C362 0.930 . S
H349 C364 0.960 1_554 S
H350 C364 0.960 1_554 S
H351 C364 0.960 . S
C352 H344 0.929 . S
C352 C353 1.377 . S
C352 C354 1.384 . S
C353 C352 1.377 . S
C353 C359 1.390 . S
C354 H345 0.930 . S
C354 C352 1.384 . S
C354 C355 1.372 . S
C355 C354 1.372 . S
C355 C356 1.400 . S
C355 C360 1.490 . S
C356 H346 0.930 . S
C356 C355 1.400 . S
C356 C359 1.386 . S
H357 C373 0.930 . S
H358 C374 0.928 1_556 S
C359 H347 0.929 . S
C359 C353 1.390 . S
C359 C356 1.386 . S
C360 C355 1.490 . S
C360 C362 1.395 . S
C360 C363 1.403 . S
H361 C367 0.930 . S
C362 H348 0.930 . S
C362 C360 1.395 . S
C362 C365 1.403 . S
C363 C360 1.403 . S
C363 C364 1.524 . S
C363 C367 1.400 1_556 S
C364 H349 0.960 1_556 S
C364 H350 0.960 1_556 S
C364 H351 0.960 . S
C364 C363 1.524 . S
C365 C362 1.403 . S
C365 C366 1.392 . S
C365 C369 1.495 . S
C366 C365 1.392 . S
C366 C367 1.385 1_556 S
C366 C368 1.478 1_556 S
C367 H361 0.930 . S
C367 C363 1.400 1_554 S
C367 C366 1.385 1_554 S
C368 C366 1.478 1_554 S
C368 C370 1.381 . S
C368 C374 1.383 . S
C369 C365 1.495 . S
C369 H375 0.959 . S
C369 H376 0.961 . S
C369 H377 0.960 . S
C370 C368 1.381 . S
C370 C371 1.394 . S
C370 H378 0.930 . S
C371 C370 1.394 . S
C371 C372 1.383 . S
C371 H379 0.929 . S
C372 C371 1.383 . S
C372 C373 1.377 . S
C373 H357 0.930 . S
C373 C372 1.377 . S
C373 C374 1.379 . S
C374 H358 0.928 1_554 S
C374 C368 1.383 . S
C374 C373 1.379 . S
H375 C369 0.959 . S
H376 C369 0.961 . S
H377 C369 0.960 . S
H378 C370 0.930 . S
H379 C371 0.929 . S
H380 C388 0.929 . S
H381 C390 0.930 . S
H382 C392 0.930 . S
H383 C395 0.929 . S
H384 C398 0.930 . S
H385 C400 0.960 . S
H386 C400 0.960 . S
H387 C400 0.960 . S
C388 H380 0.929 . S
C388 C389 1.377 . S
C388 C390 1.384 . S
C389 C388 1.377 . S
C389 C395 1.390 . S
C390 H381 0.930 . S
C390 C388 1.384 . S
C390 C391 1.372 . S
C391 C390 1.372 . S
C391 C392 1.400 . S
C391 C396 1.490 . S
C392 H382 0.930 . S
C392 C391 1.400 . S
C392 C395 1.386 . S
H393 C409 0.930 . S
H394 C410 0.931 . S
C395 H383 0.929 . S
C395 C389 1.390 . S
C395 C392 1.386 . S
C396 C391 1.490 . S
C396 C398 1.395 . S
C396 C399 1.403 . S
H397 C403 0.930 . S
C398 H384 0.930 . S
C398 C396 1.395 . S
C398 C401 1.403 . S
C399 C396 1.403 . S
C399 C400 1.524 . S
C399 C403 1.400 . S
C400 H385 0.960 . S
C400 H386 0.960 . S
C400 H387 0.960 . S
C400 C399 1.524 . S
C401 C398 1.403 . S
C401 C402 1.392 . S
C401 C405 1.495 . S
C402 C401 1.392 . S
C402 C403 1.385 . S
C402 C404 1.478 . S
C403 H397 0.930 . S
C403 C399 1.400 . S
C403 C402 1.385 . S
C404 C402 1.478 . S
C404 C406 1.381 . S
C404 C410 1.383 . S
C405 C401 1.495 . S
C405 H411 0.959 . S
C405 H412 0.961 . S
C405 H413 0.960 . S
C406 C404 1.381 . S
C406 C407 1.394 . S
C406 H414 0.930 . S
C407 C406 1.394 . S
C407 C408 1.383 . S
C407 H415 0.929 . S
C408 C407 1.383 . S
C408 C409 1.377 . S
C409 H393 0.930 . S
C409 C408 1.377 . S
C409 C410 1.379 . S
C410 H394 0.931 . S
C410 C404 1.383 . S
C410 C409 1.379 . S
H411 C405 0.959 . S
H412 C405 0.961 . S
H413 C405 0.960 . S
H414 C406 0.930 . S
H415 C407 0.929 . S
H416 C424 0.929 . S
H417 C426 0.930 . S
H418 C428 0.930 . S
H419 C431 0.929 . S
H420 C434 0.930 . S
H421 C436 0.960 . S
H422 C436 0.960 . S
H423 C436 0.960 . S
C424 H416 0.929 . S
C424 C425 1.377 . S
C424 C426 1.384 . S
C425 C424 1.377 . S
C425 C431 1.390 . S
C426 H417 0.930 . S
C426 C424 1.384 . S
C426 C427 1.372 . S
C427 C426 1.372 . S
C427 C428 1.400 . S
C427 C432 1.490 . S
C428 H418 0.930 . S
C428 C427 1.400 . S
C428 C431 1.386 . S
H429 C445 0.930 . S
H430 C446 0.931 . S
C431 H419 0.929 . S
C431 C425 1.390 . S
C431 C428 1.386 . S
C432 C427 1.490 . S
C432 C434 1.395 . S
C432 C435 1.403 . S
H433 C439 0.930 . S
C434 H420 0.930 . S
C434 C432 1.395 . S
C434 C437 1.403 . S
C435 C432 1.403 . S
C435 C436 1.524 . S
C435 C439 1.400 . S
C436 H421 0.960 . S
C436 H422 0.960 . S
C436 H423 0.960 . S
C436 C435 1.524 . S
C437 C434 1.403 . S
C437 C438 1.392 . S
C437 C441 1.495 . S
C438 C437 1.392 . S
C438 C439 1.385 . S
C438 C440 1.478 . S
C439 H433 0.930 . S
C439 C435 1.400 . S
C439 C438 1.385 . S
C440 C438 1.478 . S
C440 C442 1.381 . S
C440 C446 1.383 . S
C441 C437 1.495 . S
C441 H447 0.959 . S
C441 H448 0.961 . S
C441 H449 0.960 . S
C442 C440 1.381 . S
C442 C443 1.394 . S
C442 H450 0.930 . S
C443 C442 1.394 . S
C443 C444 1.383 . S
C443 H451 0.929 . S
C444 C443 1.383 . S
C444 C445 1.377 . S
C445 H429 0.930 . S
C445 C444 1.377 . S
C445 C446 1.379 . S
C446 H430 0.931 . S
C446 C440 1.383 . S
C446 C445 1.379 . S
H447 C441 0.959 . S
H448 C441 0.961 . S
H449 C441 0.960 . S
H450 C442 0.930 . S
H451 C443 0.929 . S
H452 C460 0.929 . S
H453 C462 0.930 . S
H454 C464 0.930 1_655 S
H455 C467 0.929 . S
H456 C470 0.930 . S
H457 C472 0.960 . S
H458 C472 0.960 . S
H459 C472 0.960 . S
C460 H452 0.929 . S
C460 C461 1.377 . S
C460 C462 1.384 . S
C461 C460 1.377 . S
C461 C467 1.390 . S
C462 H453 0.930 . S
C462 C460 1.384 . S
C462 C463 1.372 . S
C463 C462 1.372 . S
C463 C464 1.400 . S
C463 C468 1.490 . S
C464 H454 0.930 1_455 S
C464 C463 1.400 . S
C464 C467 1.386 . S
H465 C481 0.930 . S
H466 C482 0.931 . S
C467 H455 0.929 . S
C467 C461 1.390 . S
C467 C464 1.386 . S
C468 C463 1.490 . S
C468 C470 1.395 . S
C468 C471 1.403 1_455 S
H469 C475 0.930 . S
C470 H456 0.930 . S
C470 C468 1.395 . S
C470 C473 1.403 . S
C471 C468 1.403 1_655 S
C471 C472 1.524 . S
C471 C475 1.400 . S
C472 H457 0.960 . S
C472 H458 0.960 . S
C472 H459 0.960 . S
C472 C471 1.524 . S
C473 C470 1.403 . S
C473 C474 1.392 1_455 S
C473 C477 1.495 . S
C474 C473 1.392 1_655 S
C474 C475 1.385 . S
C474 C476 1.478 . S
C475 H469 0.930 . S
C475 C471 1.400 . S
C475 C474 1.385 . S
C476 C474 1.478 . S
C476 C478 1.381 . S
C476 C482 1.383 . S
C477 C473 1.495 . S
C477 H483 0.959 . S
C477 H484 0.961 . S
C477 H485 0.960 . S
C478 C476 1.381 . S
C478 C479 1.394 . S
C478 H486 0.930 1_655 S
C479 C478 1.394 . S
C479 C480 1.383 . S
C479 H487 0.929 . S
C480 C479 1.383 . S
C480 C481 1.377 . S
C481 H465 0.930 . S
C481 C480 1.377 . S
C481 C482 1.379 . S
C482 H466 0.931 . S
C482 C476 1.383 . S
C482 C481 1.379 . S
H483 C477 0.959 . S
H484 C477 0.961 . S
H485 C477 0.960 . S
H486 C478 0.930 1_455 S
H487 C479 0.929 . S
H488 C496 0.935 . S
H489 C498 0.930 1_554 S
H490 C500 0.930 . S
H491 C503 0.929 . S
H492 C506 0.930 . S
H493 C508 0.960 . S
H494 C508 0.960 . S
H495 C508 0.960 1_556 S
C496 H488 0.935 . S
C496 C497 1.378 1_455 S
C496 C498 1.378 1_455 S
C497 C496 1.378 1_655 S
C497 C503 1.390 . S
C498 H489 0.930 1_556 S
C498 C496 1.378 1_655 S
C498 C499 1.372 . S
C499 C498 1.372 . S
C499 C500 1.400 . S
C499 C504 1.490 . S
C500 H490 0.930 . S
C500 C499 1.400 . S
C500 C503 1.386 . S
H501 C517 0.930 . S
H502 C518 0.931 . S
C503 H491 0.929 . S
C503 C497 1.390 . S
C503 C500 1.386 . S
C504 C499 1.490 . S
C504 C506 1.395 . S
C504 C507 1.403 1_556 S
H505 C511 0.930 . S
C506 H492 0.930 . S
C506 C504 1.395 . S
C506 C509 1.403 1_556 S
C507 C504 1.403 1_554 S
C507 C508 1.524 . S
C507 C511 1.400 . S
C508 H493 0.960 . S
C508 H494 0.960 . S
C508 H495 0.960 1_554 S
C508 C507 1.524 . S
C509 C506 1.403 1_554 S
C509 C510 1.392 . S
C509 C513 1.495 . S
C510 C509 1.392 . S
C510 C511 1.385 . S
C510 C512 1.478 . S
C511 H505 0.930 . S
C511 C507 1.400 . S
C511 C510 1.385 . S
C512 C510 1.478 . S
C512 C514 1.381 . S
C512 C518 1.383 . S
C513 C509 1.495 . S
C513 H519 0.959 1_554 S
C513 H520 0.961 1_554 S
C513 H521 0.960 . S
C514 C512 1.381 . S
C514 C515 1.394 . S
C514 H522 0.930 . S
C515 C514 1.394 . S
C515 C516 1.383 . S
C515 H523 0.929 . S
C516 C515 1.383 . S
C516 C517 1.377 . S
C517 H501 0.930 . S
C517 C516 1.377 . S
C517 C518 1.379 . S
C518 H502 0.931 . S
C518 C512 1.383 . S
C518 C517 1.379 . S
H519 C513 0.959 1_556 S
H520 C513 0.961 1_556 S
H521 C513 0.960 . S
H522 C514 0.930 . S
H523 C515 0.929 . S
H524 C532 0.929 . S
H525 C534 0.930 . S
H526 C536 0.930 . S
H527 C539 0.929 . S
H528 C542 0.930 . S
H529 C544 0.960 . S
H530 C544 0.960 . S
H531 C544 0.960 . S
C532 H524 0.929 . S
C532 C533 1.377 . S
C532 C534 1.384 . S
C533 C532 1.377 . S
C533 C539 1.390 . S
C534 H525 0.930 . S
C534 C532 1.384 . S
C534 C535 1.372 . S
C535 C534 1.372 . S
C535 C536 1.400 . S
C535 C540 1.490 . S
C536 H526 0.930 . S
C536 C535 1.400 . S
C536 C539 1.386 . S
H537 C553 0.930 . S
H538 C554 0.931 . S
C539 H527 0.929 . S
C539 C533 1.390 . S
C539 C536 1.386 . S
C540 C535 1.490 . S
C540 C542 1.395 . S
C540 C543 1.403 . S
H541 C547 0.930 . S
C542 H528 0.930 . S
C542 C540 1.395 . S
C542 C545 1.403 . S
C543 C540 1.403 . S
C543 C544 1.524 . S
C543 C547 1.400 . S
C544 H529 0.960 . S
C544 H530 0.960 . S
C544 H531 0.960 . S
C544 C543 1.524 . S
C545 C542 1.403 . S
C545 C546 1.392 . S
C545 C549 1.495 . S
C546 C545 1.392 . S
C546 C547 1.385 . S
C546 C548 1.478 . S
C547 H541 0.930 . S
C547 C543 1.400 . S
C547 C546 1.385 . S
C548 C546 1.478 . S
C548 C550 1.381 . S
C548 C554 1.383 . S
C549 C545 1.495 . S
C549 H555 0.959 . S
C549 H556 0.961 . S
C549 H557 0.960 . S
C550 C548 1.381 . S
C550 C551 1.394 . S
C550 H558 0.930 . S
C551 C550 1.394 . S
C551 C552 1.383 . S
C551 H559 0.929 . S
C552 C551 1.383 . S
C552 C553 1.377 . S
C553 H537 0.930 . S
C553 C552 1.377 . S
C553 C554 1.379 . S
C554 H538 0.931 . S
C554 C548 1.383 . S
C554 C553 1.379 . S
H555 C549 0.959 . S
H556 C549 0.961 . S
H557 C549 0.960 . S
H558 C550 0.930 . S
H559 C551 0.929 . S
C137 C93 1.187 . S
C156 N18 1.166 . S
C173 C102 1.504 . S
C192 C61 1.452 . S
C209 N77 0.853 . S
C228 C4 0.849 . S
C245 C98 1.418 . S
C264 N45 1.409 . S
C281 N50 1.021 . S
C300 C29 1.008 . S
C317 C66 1.792 . S
C336 C38 1.821 . S
C353 C68 1.042 . S
C372 C100 1.104 . S
C389 C6 1.497 . S
C408 N109 1.468 1_545 S
C425 C36 1.038 . S
C444 N13 1.062 . S
C461 C70 2.194 . S
C480 C34 2.185 . S
C497 N82 0.929 1_655 S
C516 N114 0.933 . S
C533 C125 1.458 . S
C552 C2 1.470 . S
