# Generated by pormake.
# Topology smt, (6)-cn, num edge types: 1
# Building blocks:
#     Node 0, Type 0, BuildingBlock: VOLQOD_clean_sbu_1, # of connection points: 6
#     Node 1, Type 0, BuildingBlock: VOLQOD_clean_sbu_1, # of connection points: 6
#     Node 2, Type 0, BuildingBlock: VOLQOD_clean_sbu_1, # of connection points: 6
#     Node 3, Type 0, BuildingBlock: VOLQOD_clean_sbu_1, # of connection points: 6
#     Node 4, Type 0, BuildingBlock: VOLQOD_clean_sbu_1, # of connection points: 6
#     Node 5, Type 0, BuildingBlock: VOLQOD_clean_sbu_1, # of connection points: 6
#     Edge 6, Type (0, 0), BuildingBlock: TEMPAE_clean_linker_10, # of connection points: 2
#     Edge 7, Type (0, 0), BuildingBlock: TEMPAE_clean_linker_10, # of connection points: 2
#     Edge 8, Type (0, 0), BuildingBlock: TEMPAE_clean_linker_10, # of connection points: 2
#     Edge 9, Type (0, 0), BuildingBlock: TEMPAE_clean_linker_10, # of connection points: 2
#     Edge 10, Type (0, 0), BuildingBlock: TEMPAE_clean_linker_10, # of connection points: 2
#     Edge 11, Type (0, 0), BuildingBlock: TEMPAE_clean_linker_10, # of connection points: 2
#     Edge 12, Type (0, 0), BuildingBlock: TEMPAE_clean_linker_10, # of connection points: 2
#     Edge 13, Type (0, 0), BuildingBlock: TEMPAE_clean_linker_10, # of connection points: 2
#     Edge 14, Type (0, 0), BuildingBlock: TEMPAE_clean_linker_10, # of connection points: 2
#     Edge 15, Type (0, 0), BuildingBlock: TEMPAE_clean_linker_10, # of connection points: 2
#     Edge 16, Type (0, 0), BuildingBlock: TEMPAE_clean_linker_10, # of connection points: 2
#     Edge 17, Type (0, 0), BuildingBlock: TEMPAE_clean_linker_10, # of connection points: 2
#     Edge 18, Type (0, 0), BuildingBlock: TEMPAE_clean_linker_10, # of connection points: 2
#     Edge 19, Type (0, 0), BuildingBlock: TEMPAE_clean_linker_10, # of connection points: 2
#     Edge 20, Type (0, 0), BuildingBlock: TEMPAE_clean_linker_10, # of connection points: 2
#     Edge 21, Type (0, 0), BuildingBlock: TEMPAE_clean_linker_10, # of connection points: 2
#     Edge 22, Type (0, 0), BuildingBlock: TEMPAE_clean_linker_10, # of connection points: 2
#     Edge 23, Type (0, 0), BuildingBlock: TEMPAE_clean_linker_10, # of connection points: 2
# Relax obj value: 0.336
# Max RMSD: 0.251
# Mean RMSD: 0.251
data_MOF--net-smt--node1-VOLQOD_clean_sbu_1--edge1-TEMPAE_clean_linker_10
_symmetry_space_group_name_H-M    P1
_symmetry_Int_Tables_number       1
_symmetry_cell_setting            triclinic
loop_
_symmetry_equiv_pos_as_xyz
'x, y, z'
_cell_length_a     36.74782
_cell_length_b     36.728756
_cell_length_c     27.318411
_cell_angle_alpha  90.073288
_cell_angle_beta   89.967567
_cell_angle_gamma 119.75407
loop_
_atom_site_label
_atom_site_type_symbol
_atom_site_fract_x
_atom_site_fract_y
_atom_site_fract_z
_atom_type_partial_charge
O0 O 0.47126 0.02755 0.02937 0.0
Zn1 Zn 0.48537 0.0765 0.98565 0.0
O2 O 0.44831 0.09903 -0.00335 0.0
Zn3 Zn 0.4185 0.0974 0.93732 0.0
Zn4 Zn 0.40916 0.06683 0.04676 0.0
Zn5 Zn 0.47976 0.15586 0.01956 0.0
O6 O 0.43358 0.1553 0.91538 0.0
O7 O 0.48698 0.1946 0.96495 0.0
O8 O 0.48525 0.06114 0.91505 0.0
O9 O 0.43904 0.0766 0.88253 0.0
O10 O 0.35589 0.05765 0.94324 0.0
O11 O 0.35414 0.03175 0.01721 0.0
O12 O 0.39924 0.10247 0.09309 0.0
O13 O 0.54348 0.11761 0.00757 0.0
O14 O 0.44786 0.16665 0.07181 0.0
O15 O 0.53635 0.16825 0.04313 0.0
C16 C 0.44925 0.01512 0.06814 0.0
C17 C 0.4646 0.19058 0.92761 0.0
C18 C 0.33597 0.03235 0.97798 0.0
C19 C 0.46517 0.06363 0.87841 0.0
C20 C 0.41614 0.14197 0.0974 0.0
C21 C 0.55815 0.15098 0.03304 0.0
O22 O 0.42575 0.02966 0.08134 0.0
O23 O 0.41767 0.43994 0.23466 0.0
Zn24 Zn 0.39417 0.46093 0.18233 0.0
O25 O 0.33359 0.43017 0.1801 0.0
Zn26 Zn 0.31419 0.40206 0.11817 0.0
Zn27 Zn 0.31668 0.39053 0.23153 0.0
Zn28 Zn 0.30969 0.46519 0.19316 0.0
O29 O 0.27347 0.41674 0.08621 0.0
O30 O 0.28516 0.47219 0.13141 0.0
O31 O 0.41957 0.46423 0.11629 0.0
O32 O 0.36219 0.42668 0.07165 0.0
O33 O 0.29551 0.33997 0.12514 0.0
O34 O 0.30693 0.33689 0.20461 0.0
O35 O 0.26381 0.38043 0.26197 0.0
O36 O 0.41246 0.51915 0.20453 0.0
O37 O 0.26139 0.43726 0.24022 0.0
O38 O 0.35391 0.52127 0.21854 0.0
C39 C 0.40068 0.42688 0.27637 0.0
C40 C 0.26969 0.44903 0.09378 0.0
C41 C 0.29716 0.31992 0.16253 0.0
C42 C 0.40168 0.44995 0.07528 0.0
C43 C 0.24611 0.40256 0.2631 0.0
C44 C 0.39375 0.53838 0.21939 0.0
O45 O 0.36129 0.41056 0.28207 0.0
O46 O 0.93693 0.42844 0.40114 0.0
Zn47 Zn 0.89522 0.3978 0.34693 0.0
O48 O 0.87213 0.3383 0.35127 0.0
Zn49 Zn 0.8847 0.31579 0.29438 0.0
Zn50 Zn 0.89835 0.32917 0.40537 0.0
Zn51 Zn 0.81304 0.31006 0.36424 0.0
O52 O 0.83156 0.27194 0.26246 0.0
O53 O 0.78353 0.28045 0.30291 0.0
O54 O 0.91916 0.41877 0.28046 0.0
O55 O 0.9119 0.3611 0.24459 0.0
O56 O 0.92718 0.29764 0.3092 0.0
O57 O 0.94744 0.32547 0.38325 0.0
O58 O 0.8607 0.27492 0.43557 0.0
O59 O 0.85015 0.41143 0.35969 0.0
O60 O 0.79788 0.26338 0.41306 0.0
O61 O 0.79514 0.35205 0.38495 0.0
C62 C 0.93523 0.41432 0.44418 0.0
C63 C 0.79404 0.26468 0.26777 0.0
C64 C 0.95255 0.30852 0.34524 0.0
C65 C 0.92341 0.39994 0.24361 0.0
C66 C 0.82112 0.25236 0.43588 0.0
C67 C 0.81341 0.39161 0.37766 0.0
O68 O 0.91617 0.37522 0.45306 0.0
O69 O 0.50403 0.95309 0.52866 0.0
Zn70 Zn 0.49209 0.90499 0.48415 0.0
O71 O 0.53004 0.88359 0.49536 0.0
Zn72 Zn 0.56124 0.88725 0.4364 0.0
Zn73 Zn 0.56796 0.916 0.54645 0.0
Zn74 Zn 0.49949 0.82626 0.51707 0.0
O75 O 0.55155 0.83059 0.41609 0.0
O76 O 0.49701 0.78874 0.46284 0.0
O77 O 0.49231 0.92044 0.41378 0.0
O78 O 0.53826 0.90481 0.38071 0.0
O79 O 0.62287 0.93079 0.44287 0.0
O80 O 0.62292 0.95339 0.5183 0.0
O81 O 0.57846 0.88092 0.59271 0.0
O82 O 0.43416 0.86252 0.50436 0.0
O83 O 0.53034 0.8165 0.57152 0.0
O84 O 0.44125 0.81127 0.53791 0.0
C85 C 0.52535 0.96527 0.56795 0.0
C86 C 0.52175 0.79428 0.42737 0.0
C87 C 0.64174 0.95538 0.4786 0.0
C88 C 0.51179 0.91738 0.37686 0.0
C89 C 0.56163 0.84149 0.59752 0.0
C90 C 0.41921 0.82835 0.52817 0.0
O91 O 0.54925 0.95129 0.58126 0.0
O92 O 0.56225 0.53497 0.73078 0.0
Zn93 Zn 0.59176 0.51956 0.68081 0.0
O94 O 0.65111 0.55714 0.6808 0.0
Zn95 Zn 0.66771 0.58667 0.61864 0.0
Zn96 Zn 0.66354 0.59558 0.73399 0.0
Zn97 Zn 0.67961 0.52602 0.6929 0.0
O98 O 0.70913 0.5742 0.58416 0.0
O99 O 0.70554 0.52248 0.63051 0.0
O100 O 0.56705 0.51242 0.61463 0.0
O101 O 0.61893 0.56293 0.57185 0.0
O102 O 0.68583 0.6483 0.62807 0.0
O103 O 0.67315 0.64936 0.70754 0.0
O104 O 0.71605 0.6075 0.76859 0.0
O105 O 0.57917 0.46362 0.70319 0.0
O106 O 0.7266 0.5569 0.74014 0.0
O107 O 0.64033 0.46794 0.71894 0.0
C108 C 0.57621 0.55221 0.77216 0.0
C109 C 0.71743 0.5448 0.59189 0.0
C110 C 0.68339 0.66731 0.66607 0.0
C111 C 0.58162 0.53244 0.57496 0.0
C112 C 0.7375 0.58902 0.767 0.0
C113 C 0.6004 0.44751 0.71908 0.0
O114 O 0.61534 0.57391 0.78076 0.0
O115 O 0.04412 0.56059 0.90099 0.0
Zn116 Zn 0.08638 0.59165 0.84758 0.0
O117 O 0.10826 0.65098 0.85195 0.0
Zn118 Zn 0.09516 0.67288 0.79498 0.0
Zn119 Zn 0.0818 0.65988 0.90614 0.0
Zn120 Zn 0.16743 0.67997 0.86456 0.0
O121 O 0.14812 0.715 0.76111 0.0
O122 O 0.1964 0.70745 0.80223 0.0
O123 O 0.063 0.57034 0.78092 0.0
O124 O 0.06654 0.6268 0.74625 0.0
O125 O 0.05408 0.69287 0.81042 0.0
O126 O 0.0332 0.66464 0.88417 0.0
O127 O 0.11929 0.71409 0.93675 0.0
O128 O 0.13198 0.57892 0.86176 0.0
O129 O 0.18223 0.72783 0.91156 0.0
O130 O 0.1859 0.639 0.88747 0.0
C131 C 0.04504 0.57442 0.94404 0.0
C132 C 0.18556 0.72197 0.76617 0.0
C133 C 0.02887 0.68253 0.84659 0.0
C134 C 0.05673 0.5884 0.74478 0.0
C135 C 0.1587 0.73786 0.93549 0.0
C136 C 0.16835 0.59941 0.88062 0.0
O137 O 0.06359 0.61346 0.95338 0.0
C138 C 0.28012 0.97887 0.92513 0.0
C139 C 0.29292 -0.00209 0.97105 0.0
C140 C 0.24839 0.93687 0.92169 0.0
C141 C 0.22996 0.91416 0.96518 0.0
C142 C 0.23805 0.93536 0.01043 0.0
C143 C 0.26931 0.97741 0.01272 0.0
C144 C 0.23872 0.91549 0.87241 0.0
C145 C 0.21837 0.91245 0.05746 0.0
C146 C 0.14983 0.79917 0.95361 0.0
C147 C 0.17585 0.7812 0.95288 0.0
C148 C 0.16667 0.84245 0.95897 0.0
C149 C 0.21037 0.86802 0.96476 0.0
C150 C 0.2364 0.8497 0.96782 0.0
C151 C 0.21882 0.80642 0.96118 0.0
C152 C 0.138 0.86078 0.95472 0.0
C153 C 0.28315 0.87602 0.97572 0.0
H154 H 0.29789 -0.00506 0.89274 0.0
H155 H 0.27852 0.99273 0.04814 0.0
H156 H 0.2555 0.89747 0.86884 0.0
H157 H 0.20467 0.89307 0.86873 0.0
H158 H 0.24882 0.9385 0.84195 0.0
H159 H 0.22099 0.93441 0.08704 0.0
H160 H 0.18483 0.88893 0.05213 0.0
H161 H 0.2347 0.89546 0.06967 0.0
H162 H 0.11653 0.77984 0.94662 0.0
H163 H 0.23886 0.79252 0.96079 0.0
H164 H 0.13977 0.87249 0.91688 0.0
H165 H 0.14746 0.88766 0.97998 0.0
H166 H 0.10486 0.83694 0.96232 0.0
H167 H 0.29785 0.89643 0.94342 0.0
H168 H 0.29819 0.85654 0.98138 0.0
H169 H 0.28983 0.89673 0.00805 0.0
C170 C 0.30123 0.26616 0.11057 0.0
C171 C 0.29534 0.27912 0.15667 0.0
C172 C 0.31327 0.23557 0.10655 0.0
C173 C 0.3197 0.21807 0.14966 0.0
C174 C 0.30861 0.22715 0.19567 0.0
C175 C 0.29614 0.25738 0.19859 0.0
C176 C 0.32335 0.22531 0.05659 0.0
C177 C 0.31442 0.20867 0.24237 0.0
C178 C 0.34932 0.13442 0.12892 0.0
C179 C 0.39299 0.15918 0.1236 0.0
C180 C 0.32479 0.15274 0.14011 0.0
C181 C 0.34463 0.19657 0.14701 0.0
C182 C 0.38897 0.22099 0.14672 0.0
C183 C 0.41266 0.20199 0.13458 0.0
C184 C 0.27765 0.12568 0.14008 0.0
C185 C 0.41131 0.26776 0.15559 0.0
H186 H 0.3 0.28232 0.07797 0.0
H187 H 0.29053 0.26649 0.23435 0.0
H188 H 0.35788 0.24092 0.05205 0.0
H189 H 0.31071 0.19104 0.05269 0.0
H190 H 0.31044 0.2361 0.02675 0.0
H191 H 0.29654 0.21191 0.27325 0.0
H192 H 0.30451 0.17502 0.23762 0.0
H193 H 0.34815 0.22533 0.25233 0.0
H194 H 0.33382 0.10123 0.12036 0.0
H195 H 0.4464 0.22108 0.13095 0.0
H196 H 0.26526 0.12908 0.10438 0.0
H197 H 0.26316 0.13546 0.1691 0.0
H198 H 0.26769 0.092 0.14525 0.0
H199 H 0.40526 0.2835 0.12455 0.0
H200 H 0.44574 0.28124 0.15928 0.0
H201 H 0.39926 0.27501 0.18929 0.0
C202 C 0.00516 0.30156 0.2945 0.0
C203 C -0.00803 0.30751 0.34044 0.0
C204 C 0.04668 0.31116 0.28713 0.0
C205 C 0.07527 0.32692 0.3267 0.0
C206 C 0.06101 0.32866 0.37419 0.0
C207 C 0.01936 0.31879 0.38054 0.0
C208 C 0.06078 0.30818 0.23608 0.0
C209 C 0.09052 0.34473 0.41737 0.0
C210 C 0.18371 0.3434 0.3029 0.0
C211 C 0.20466 0.38516 0.28653 0.0
C212 C 0.14182 0.32422 0.31797 0.0
C213 C 0.12071 0.3475 0.31681 0.0
C214 C 0.14238 0.39033 0.30318 0.0
C215 C 0.18417 0.40866 0.28812 0.0
C216 C 0.11964 0.27854 0.33251 0.0
C217 C 0.12087 0.41631 0.30229 0.0
H218 H 0.98401 0.29233 0.26348 0.0
H219 H 0.00909 0.32261 0.41644 0.0
H220 H 0.07984 0.34019 0.22075 0.0
H221 H 0.08081 0.29344 0.2368 0.0
H222 H 0.03386 0.28981 0.21117 0.0
H223 H 0.07334 0.337 0.45274 0.0
H224 H 0.1119 0.33153 0.41742 0.0
H225 H 0.11019 0.37934 0.41476 0.0
H226 H 0.19938 0.32501 0.30194 0.0
H227 H 0.20028 0.44101 0.27595 0.0
H228 H 0.09735 0.25953 0.30321 0.0
H229 H 0.10117 0.27348 0.36647 0.0
H230 H 0.14191 0.26675 0.33834 0.0
H231 H 0.09567 0.40365 0.27429 0.0
H232 H 0.1429 0.44979 0.29374 0.0
H233 H 0.10597 0.41456 0.3382 0.0
C234 C 0.82805 0.19023 0.45602 0.0
C235 C 0.80289 0.20913 0.45405 0.0
C236 C 0.81018 0.14689 0.46195 0.0
C237 C 0.76632 0.12222 0.46704 0.0
C238 C 0.74113 0.1415 0.469 0.0
C239 C 0.75974 0.18482 0.46191 0.0
C240 C 0.83796 0.12745 0.45908 0.0
C241 C 0.69422 0.11613 0.47612 0.0
C242 C 0.69703 0.01097 0.42699 0.0
C243 C 0.68393 0.99167 0.4727 0.0
C244 C 0.72818 0.05323 0.42399 0.0
C245 C 0.74582 0.07602 0.46771 0.0
C246 C 0.73704 0.05493 0.51303 0.0
C247 C 0.70638 0.01264 0.51488 0.0
C248 C 0.73842 0.07458 0.37472 0.0
C249 C 0.75564 0.07801 0.56036 0.0
H250 H 0.8615 0.20882 0.44958 0.0
H251 H 0.74034 0.19941 0.46067 0.0
H252 H 0.82833 0.1017 0.486 0.0
H253 H 0.83514 0.11378 0.42209 0.0
H254 H 0.87143 0.15098 0.46542 0.0
H255 H 0.67983 0.1363 0.48097 0.0
H256 H 0.6796 0.09563 0.44382 0.0
H257 H 0.68666 0.09554 0.50864 0.0
H258 H 0.68014 -0.00538 0.39425 0.0
H259 H 0.69696 -0.00275 0.5502 0.0
H260 H 0.77255 0.09681 0.37145 0.0
H261 H 0.72194 0.09285 0.37082 0.0
H262 H 0.72847 0.05158 0.34421 0.0
H263 H 0.78928 0.10152 0.55591 0.0
H264 H 0.75237 0.05618 0.59036 0.0
H265 H 0.73907 0.09506 0.57146 0.0
C266 C 0.62764 0.85018 0.63338 0.0
C267 C 0.58438 0.82468 0.62527 0.0
C268 C 0.65247 0.83255 0.64605 0.0
C269 C 0.63332 0.78863 0.65151 0.0
C270 C 0.58913 0.76336 0.64862 0.0
C271 C 0.56515 0.78172 0.63517 0.0
C272 C 0.69942 0.86053 0.64899 0.0
C273 C 0.56744 0.71643 0.65586 0.0
C274 C 0.68035 0.72216 0.61539 0.0
C275 C 0.68463 0.70792 0.66137 0.0
C276 C 0.66769 0.75228 0.6116 0.0
C277 C 0.65904 0.76802 0.65479 0.0
C278 C 0.66857 0.7578 0.70102 0.0
C279 C 0.68166 0.72804 0.70375 0.0
C280 C 0.65927 0.76379 0.56149 0.0
C281 C 0.6604 0.77445 0.74784 0.0
H282 H 0.64279 0.88352 0.62587 0.0
H283 H 0.53169 0.76204 0.62953 0.0
H284 H 0.7131 0.85036 0.67852 0.0
H285 H 0.71367 0.8587 0.6139 0.0
H286 H 0.70826 0.8938 0.65536 0.0
H287 H 0.53281 0.70214 0.65772 0.0
H288 H 0.57521 0.70184 0.62495 0.0
H289 H 0.5785 0.70874 0.69001 0.0
H290 H 0.6833 0.70731 0.58248 0.0
H291 H 0.68603 0.71798 0.73949 0.0
H292 H 0.67143 0.79805 0.55894 0.0
H293 H 0.62493 0.74777 0.55509 0.0
H294 H 0.67374 0.75434 0.53199 0.0
H295 H 0.66948 0.80798 0.7442 0.0
H296 H 0.6776 0.77097 0.77928 0.0
H297 H 0.62637 0.75666 0.75618 0.0
C298 C 0.9646 0.67723 0.88375 0.0
C299 C 0.99058 0.68578 0.84269 0.0
C300 C 0.92336 0.66909 0.87862 0.0
C301 C 0.90805 0.66956 0.83136 0.0
C302 C 0.93564 0.68319 0.79076 0.0
C303 C 0.97681 0.69124 0.79693 0.0
C304 C 0.8951 0.65564 0.92294 0.0
C305 C 0.92052 0.68487 0.73988 0.0
C306 C 0.79953 0.58516 0.79597 0.0
C307 C 0.77841 0.60794 0.79191 0.0
C308 C 0.84127 0.60463 0.81126 0.0
C309 C 0.86236 0.64797 0.82265 0.0
C310 C 0.84046 0.67054 0.82188 0.0
C311 C 0.79854 0.65016 0.80652 0.0
C312 C 0.86344 0.57927 0.81252 0.0
C313 C 0.86186 0.71666 0.83423 0.0
H314 H 0.97546 0.67403 0.91953 0.0
H315 H -0.00305 0.6985 0.76519 0.0
H316 H 0.87376 0.66888 0.92205 0.0
H317 H 0.8754 0.62096 0.92303 0.0
H318 H 0.91336 0.66539 0.95757 0.0
H319 H 0.94697 0.7023 0.71407 0.0
H320 H 0.90093 0.65245 0.7258 0.0
H321 H 0.90079 0.69992 0.74044 0.0
H322 H 0.78392 0.5524 0.78534 0.0
H323 H 0.78233 0.66795 0.8035 0.0
H324 H 0.87866 0.5827 0.8486 0.0
H325 H 0.88843 0.5911 0.78427 0.0
H326 H 0.84177 0.54539 0.80564 0.0
H327 H 0.88273 0.72396 0.86644 0.0
H328 H 0.83886 0.72725 0.84179 0.0
H329 H 0.88162 0.73501 0.80286 0.0
C330 C 0.42416 0.95993 0.13199 0.0
C331 C 0.45693 0.98955 0.10316 0.0
C332 C 0.43254 0.94228 0.17283 0.0
C333 C 0.47469 0.95609 0.18587 0.0
C334 C 0.50774 0.98411 0.15505 0.0
C335 C 0.49832 1e-05 0.11342 0.0
C336 C 0.39646 0.91126 0.20393 0.0
C337 C 0.55314 0.0005 0.16842 0.0
C338 C 0.4953 0.96095 0.32191 0.0
C339 C 0.50264 0.92739 0.32808 0.0
C340 C 0.4869 0.97102 0.27546 0.0
C341 C 0.48435 0.94587 0.23478 0.0
C342 C 0.49105 0.91145 0.24103 0.0
C343 C 0.50086 0.90301 0.28767 0.0
C344 C 0.48107 0.00874 0.26988 0.0
C345 C 0.48727 0.8833 0.1987 0.0
H346 H 0.39216 0.9519 0.12373 0.0
H347 H 0.52366 0.02343 0.09132 0.0
H348 H 0.40125 0.88487 0.21496 0.0
H349 H 0.3947 0.92695 0.23785 0.0
H350 H 0.36601 0.89842 0.18444 0.0
H351 H 0.57465 0.01794 0.13776 0.0
H352 H 0.56137 0.02204 0.20021 0.0
H353 H 0.55852 0.97451 0.1794 0.0
H354 H 0.49698 0.97984 0.3533 0.0
H355 H 0.50615 0.87673 0.29281 0.0
H356 H 0.4489 -0.00131 0.25671 0.0
H357 H 0.50326 0.0305 0.24214 0.0
H358 H 0.48613 0.02614 0.30481 0.0
H359 H 0.45552 0.86956 0.18232 0.0
H360 H 0.49278 0.85738 0.20999 0.0
H361 H 0.51011 0.90177 0.16965 0.0
C362 C 0.41221 0.44254 0.36509 0.0
C363 C 0.42746 0.43739 0.32007 0.0
C364 C 0.43848 0.45831 0.40583 0.0
C365 C 0.48071 0.46805 0.40177 0.0
C366 C 0.49597 0.4614 0.35701 0.0
C367 C 0.46921 0.44663 0.31632 0.0
C368 C 0.42135 0.46574 0.45279 0.0
C369 C 0.54061 0.47041 0.352 0.0
C370 C 0.55689 0.54434 0.49479 0.0
C371 C 0.55622 0.51671 0.53044 0.0
C372 C 0.53262 0.52893 0.45221 0.0
C373 C 0.5086 0.48502 0.44478 0.0
C374 C 0.50908 0.45712 0.48003 0.0
C375 C 0.53238 0.47335 0.52291 0.0
C376 C 0.53176 0.5595 0.41591 0.0
C377 C 0.48474 0.41017 0.47266 0.0
H378 H 0.3801 0.43601 0.36801 0.0
H379 H 0.48102 0.44268 0.28151 0.0
H380 H 0.42432 0.44723 0.48297 0.0
H381 H 0.43983 0.49931 0.4633 0.0
H382 H 0.38788 0.45711 0.44952 0.0
H383 H 0.54683 0.46131 0.31548 0.0
H384 H 0.56257 0.50435 0.35765 0.0
H385 H 0.54756 0.45327 0.38056 0.0
H386 H 0.57555 0.57787 0.50081 0.0
H387 H 0.53264 0.45207 0.55022 0.0
H388 H 0.49937 0.5542 0.41272 0.0
H389 H 0.54112 0.55433 0.3791 0.0
H390 H 0.55289 0.59266 0.42671 0.0
H391 H 0.45064 0.39912 0.47252 0.0
H392 H 0.49124 0.39306 0.50176 0.0
H393 H 0.4926 0.40183 0.43665 0.0
C394 C 0.01611 0.57584 0.66782 0.0
C395 C 0.03934 0.56496 0.69919 0.0
C396 C -0.0003 0.554 0.62399 0.0
C397 C 0.00771 0.52136 0.61102 0.0
C398 C 0.03207 0.51099 0.642 0.0
C399 C 0.04717 0.53263 0.68617 0.0
C400 C 0.97287 0.56503 0.59234 0.0
C401 C 0.04176 0.47675 0.62877 0.0
C402 C 0.93253 0.43229 0.53062 0.0
C403 C 0.95322 0.44334 0.48545 0.0
C404 C 0.94923 0.45839 0.57133 0.0
C405 C 0.98812 0.49583 0.5669 0.0
C406 C 0.00891 0.50755 0.52113 0.0
C407 C -0.00921 0.48127 0.48051 0.0
C408 C 0.92564 0.44548 0.61928 0.0
C409 C 0.05083 0.54698 0.51556 0.0
H410 H 0.01005 0.60088 0.67806 0.0
H411 H 0.0657 0.52469 0.71016 0.0
H412 H 0.98548 0.5722 0.55452 0.0
H413 H 0.94064 0.53779 0.59007 0.0
H414 H 0.97106 0.59238 0.60678 0.0
H415 H 0.06385 0.47487 0.65501 0.0
H416 H 0.01238 0.446 0.62823 0.0
H417 H 0.05555 0.48216 0.59153 0.0
H418 H 0.90304 0.40318 0.53404 0.0
H419 H 0.00664 0.48961 0.4454 0.0
H420 H 0.9214 0.47132 0.63393 0.0
H421 H 0.94396 0.439 0.6467 0.0
H422 H 0.89432 0.417 0.61548 0.0
H423 H 0.0489 0.57459 0.52856 0.0
H424 H 0.06196 0.55247 0.47703 0.0
H425 H 0.0745 0.54471 0.53858 0.0
C426 C 0.47527 0.97797 0.61472 0.0
C427 C 0.51689 0.99017 0.60317 0.0
C428 C 0.46578 -0.00654 0.65676 0.0
C429 C 0.49891 0.02273 0.68664 0.0
C430 C 0.54107 0.0381 0.67233 0.0
C431 C 0.54959 0.02091 0.63112 0.0
C432 C 0.42044 0.9755 0.67147 0.0
C433 C 0.57716 0.07041 0.70243 0.0
C434 C 0.47308 0.0759 0.78876 0.0
C435 C 0.47338 0.05287 0.82948 0.0
C436 C 0.48181 0.06683 0.74186 0.0
C437 C 0.48968 0.03314 0.73571 0.0
C438 C 0.48922 0.0093 0.77669 0.0
C439 C 0.48175 0.01996 0.82336 0.0
C440 C 0.4833 0.0936 0.69916 0.0
C441 C 0.49645 0.97243 0.77124 0.0
H442 H 0.45005 0.95366 0.59328 0.0
H443 H 0.58175 0.0302 0.62186 0.0
H444 H 0.41375 0.95457 0.70352 0.0
H445 H 0.41395 0.00077 0.68257 0.0
H446 H 0.3986 0.95702 0.64146 0.0
H447 H 0.60733 0.08393 0.68222 0.0
H448 H 0.5714 0.09623 0.71335 0.0
H449 H 0.5802 0.05566 0.73643 0.0
H450 H 0.46699 0.1017 0.79379 0.0
H451 H 0.48167 0.00208 0.85496 0.0
H452 H 0.46004 0.07392 0.67102 0.0
H453 H 0.51467 0.10807 0.68166 0.0
H454 H 0.47684 0.11894 0.71035 0.0
H455 H 0.474 0.94971 0.74436 0.0
H456 H 0.49284 0.95587 0.80646 0.0
H457 H 0.52848 0.98325 0.75702 0.0
C458 C 0.40993 0.47576 0.99029 0.0
C459 C 0.42631 0.46461 0.03015 0.0
C460 C 0.4334 0.49208 0.94755 0.0
C461 C 0.47353 0.49589 0.94421 0.0
C462 C 0.48994 0.48397 0.98412 0.0
C463 C 0.46634 0.46917 0.02721 0.0
C464 C 0.41542 0.50556 0.90622 0.0
C465 C 0.5321 0.48634 0.98105 0.0
C466 C 0.51571 0.49761 0.81763 0.0
C467 C 0.54692 0.53973 0.81337 0.0
C468 C 0.49153 0.4829 0.86013 0.0
C469 C 0.49792 0.5114 0.89843 0.0
C470 C 0.5281 0.55441 0.89335 0.0
C471 C 0.55297 0.56797 0.85108 0.0
C472 C 0.46062 0.43657 0.86489 0.0
C473 C 0.53466 0.58585 0.9329 0.0
H474 H 0.37912 0.47279 0.99309 0.0
H475 H 0.47877 0.46046 0.05823 0.0
H476 H 0.43737 0.53876 0.89658 0.0
H477 H 0.41153 0.48644 0.87313 0.0
H478 H 0.38454 0.50231 0.91571 0.0
H479 H 0.53978 0.47482 0.01491 0.0
H480 H 0.53252 0.46738 0.94962 0.0
H481 H 0.55705 0.51918 0.97457 0.0
H482 H 0.51178 0.47561 0.78878 0.0
H483 H 0.57735 0.60049 0.84762 0.0
H484 H 0.42901 0.43144 0.874 0.0
H485 H 0.47037 0.42325 0.89527 0.0
H486 H 0.45835 0.41898 0.83086 0.0
H487 H 0.50433 0.58366 0.94273 0.0
H488 H 0.55695 0.61854 0.92152 0.0
H489 H 0.54702 0.57875 0.96639 0.0
C490 C 0.04863 0.55499 0.02947 0.0
C491 C 0.02706 0.54509 0.98489 0.0
C492 C 0.03193 0.5286 0.06989 0.0
C493 C -0.00785 0.49219 0.0658 0.0
C494 C 0.97049 0.48159 0.02054 0.0
C495 C 0.98864 0.50804 0.98012 0.0
C496 C 0.05645 0.54021 0.11722 0.0
C497 C 0.92762 0.44333 0.01538 0.0
C498 C 0.96215 0.41094 0.16543 0.0
C499 C 0.94067 0.42316 0.19793 0.0
C500 C 0.97864 0.43275 0.12166 0.0
C501 C 0.97246 0.46678 0.10991 0.0
C502 C 0.94982 0.47852 0.14204 0.0
C503 C 0.93464 0.45685 0.18611 0.0
C504 C 0.00364 0.42021 0.08875 0.0
C505 C 0.94209 0.51428 0.13014 0.0
H506 H 0.07877 0.58343 0.03263 0.0
H507 H 0.97216 0.50063 0.94542 0.0
H508 H 0.03961 0.54782 0.14554 0.0
H509 H 0.05931 0.51332 0.13097 0.0
H510 H 0.08842 0.56765 0.11293 0.0
H511 H 0.91595 0.43844 0.97709 0.0
H512 H 0.9283 0.4149 0.02767 0.0
H513 H 0.90502 0.44673 0.03921 0.0
H514 H 0.96685 0.38487 0.17477 0.0
H515 H 0.91747 0.46586 0.211 0.0
H516 H 0.03642 0.44641 0.08618 0.0
H517 H 0.99048 0.41386 0.05118 0.0
H518 H 0.00409 0.39194 0.10233 0.0
H519 H 0.9723 0.54422 0.12947 0.0
H520 H 0.92111 0.51721 0.1572 0.0
H521 H 0.92786 0.50975 0.09323 0.0
C522 C 0.47148 0.2207 0.84443 0.0
C523 C 0.47807 0.2268 0.89501 0.0
C524 C 0.48972 0.25479 0.8122 0.0
C525 C 0.51428 0.29574 0.83132 0.0
C526 C 0.51937 0.30219 0.8825 0.0
C527 C 0.50151 0.2675 0.91378 0.0
C528 C 0.48388 0.24693 0.75774 0.0
C529 C 0.54449 0.34561 0.90417 0.0
C530 C 0.59799 0.38396 0.7559 0.0
C531 C 0.57757 0.40616 0.74297 0.0
C532 C 0.57706 0.34675 0.78301 0.0
C533 C 0.53513 0.33203 0.79797 0.0
C534 C 0.51399 0.35359 0.78372 0.0
C535 C 0.5354 0.39025 0.75615 0.0
C536 C 0.60022 0.32398 0.79709 0.0
C537 C 0.46953 0.33927 0.79973 0.0
H538 H 0.45373 0.18914 0.82988 0.0
H539 H 0.50642 0.27215 0.95295 0.0
H540 H 0.47032 0.26522 0.74144 0.0
H541 H 0.51476 0.25771 0.74007 0.0
H542 H 0.4631 0.21324 0.7489 0.0
H543 H 0.54379 0.34526 0.94483 0.0
H544 H 0.57759 0.36007 0.89203 0.0
H545 H 0.53215 0.36596 0.89098 0.0
H546 H 0.63048 0.39604 0.74562 0.0
H547 H 0.51939 0.40736 0.74668 0.0
H548 H 0.5815 0.29033 0.78705 0.0
H549 H 0.60484 0.32563 0.83733 0.0
H550 H 0.63139 0.33752 0.77913 0.0
H551 H 0.44913 0.30516 0.79329 0.0
H552 H 0.4559 0.35627 0.78029 0.0
H553 H 0.4691 0.34484 0.8396 0.0
C554 C 0.22636 0.59542 0.92429 0.0
C555 C 0.1875 0.57525 0.90038 0.0
C556 C 0.24104 0.57221 0.95007 0.0
C557 C 0.21596 0.52797 0.95243 0.0
C558 C 0.17807 0.50733 0.9258 0.0
C559 C 0.16448 0.53118 0.89979 0.0
C560 C 0.28213 0.59521 0.97725 0.0
C561 C 0.15025 0.46026 0.92776 0.0
C562 C 0.26229 0.46482 0.00708 0.0
C563 C 0.25074 0.46299 0.05627 0.0
C564 C 0.25092 0.4856 0.97242 0.0
C565 C 0.22667 0.50387 0.98743 0.0
C566 C 0.2131 0.50001 0.03665 0.0
C567 C 0.22588 0.48015 0.07065 0.0
C568 C 0.26653 0.48976 0.92048 0.0
C569 C 0.18618 0.51802 0.0538 0.0
H570 H 0.24454 0.62938 0.92456 0.0
H571 H 0.13452 0.51512 0.88115 0.0
H572 H 0.27599 0.59373 0.01718 0.0
H573 H 0.30141 0.58013 0.97061 0.0
H574 H 0.30047 0.62871 0.96634 0.0
H575 H 0.12453 0.44869 0.90038 0.0
H576 H 0.16874 0.44432 0.92136 0.0
H577 H 0.1361 0.45103 0.96475 0.0
H578 H 0.28223 0.45218 -0.00369 0.0
H579 H 0.21715 0.47873 0.10883 0.0
H580 H 0.28856 0.52327 0.91231 0.0
H581 H 0.24009 0.47889 0.8943 0.0
H582 H 0.28293 0.47165 0.91407 0.0
H583 H 0.20385 0.55268 0.05035 0.0
H584 H 0.17614 0.50992 0.09251 0.0
H585 H 0.15781 0.50626 0.03051 0.0
C586 C 0.61312 0.13864 0.06937 0.0
C587 C 0.59915 0.1667 0.05689 0.0
C588 C 0.64794 0.15118 0.09994 0.0
C589 C 0.6695 0.19288 0.11754 0.0
C590 C 0.65734 0.22209 0.10208 0.0
C591 C 0.62194 0.20849 0.07229 0.0
C592 C 0.65952 0.11897 0.11627 0.0
C593 C 0.68011 0.26708 0.11944 0.0
C594 C 0.71984 0.22026 0.24233 0.0
C595 C 0.76247 0.24028 0.23028 0.0
C596 C 0.68912 0.20224 0.206 0.0
C597 C 0.70148 0.20505 0.15645 0.0
C598 C 0.74442 0.22312 0.14431 0.0
C599 C 0.77454 0.24031 0.18158 0.0
C600 C 0.6435 0.18226 0.22046 0.0
C601 C 0.75863 0.22664 0.09182 0.0
H602 H 0.59529 0.10614 0.05787 0.0
H603 H 0.61129 0.23024 0.06233 0.0
H604 H 0.69398 0.13215 0.11562 0.0
H605 H 0.64888 0.1096 0.15454 0.0
H606 H 0.64464 0.09037 0.093 0.0
H607 H 0.66977 0.28679 0.09967 0.0
H608 H 0.67424 0.26821 0.15912 0.0
H609 H 0.71443 0.28089 0.11446 0.0
H610 H 0.71049 0.21973 0.2801 0.0
H611 H 0.80755 0.25587 0.17221 0.0
H612 H 0.6252 0.15088 0.20328 0.0
H613 H 0.63033 0.20185 0.20713 0.0
H614 H 0.63909 0.17876 0.26076 0.0
H615 H 0.74049 0.19614 0.07267 0.0
H616 H 0.79255 0.23697 0.08901 0.0
H617 H 0.75273 0.24971 0.07233 0.0
C618 C 0.48821 0.7174 0.41382 0.0
C619 C 0.5128 0.75824 0.3959 0.0
C620 C 0.47377 0.68279 0.38256 0.0
C621 C 0.4838 0.68937 0.33216 0.0
C622 C 0.51056 0.73033 0.31433 0.0
C623 C 0.52502 0.76441 0.34661 0.0
C624 C 0.44597 0.63938 0.40302 0.0
C625 C 0.52187 0.73836 0.26077 0.0
C626 C 0.45949 0.59232 0.25945 0.0
C627 C 0.41883 0.57977 0.24266 0.0
C628 C 0.48185 0.62891 0.28722 0.0
C629 C 0.46322 0.65365 0.29784 0.0
C630 C 0.42312 0.64235 0.27886 0.0
C631 C 0.40124 0.60532 0.25169 0.0
C632 C 0.52433 0.63974 0.30738 0.0
C633 C 0.40252 0.66837 0.28912 0.0
H634 H 0.47916 0.71255 0.45208 0.0
H635 H 0.54397 0.79599 0.33262 0.0
H636 H 0.41377 0.62645 0.38821 0.0
H637 H 0.45759 0.61795 0.39168 0.0
H638 H 0.44428 0.63939 0.44363 0.0
H639 H 0.54646 0.77134 0.25376 0.0
H640 H 0.53307 0.71719 0.24709 0.0
H641 H 0.49358 0.7316 0.23928 0.0
H642 H 0.47321 0.57258 0.25282 0.0
H643 H 0.36997 0.59589 0.23849 0.0
H644 H 0.52202 0.63475 0.34757 0.0
H645 H 0.54735 0.67327 0.30081 0.0
H646 H 0.53649 0.62019 0.29095 0.0
H647 H 0.39544 0.66714 0.32878 0.0
H648 H 0.37286 0.65717 0.26834 0.0
H649 H 0.42407 0.70169 0.27961 0.0
C650 C 0.75677 0.39759 0.42191 0.0
C651 C 0.79479 0.41664 0.39624 0.0
C652 C 0.74327 0.42195 0.44742 0.0
C653 C 0.76866 0.46621 0.44757 0.0
C654 C 0.8054 0.48565 0.41881 0.0
C655 C 0.81785 0.46064 0.39319 0.0
C656 C 0.70332 0.4002 0.47692 0.0
C657 C 0.83343 0.53271 0.41823 0.0
C658 C 0.72369 0.52976 0.50446 0.0
C659 C 0.73673 0.53228 0.55313 0.0
C660 C 0.73461 0.50914 0.46903 0.0
C661 C 0.75978 0.49159 0.48274 0.0
C662 C 0.7753 0.49665 0.53117 0.0
C663 C 0.76311 0.5165 0.56596 0.0
C664 C 0.71717 0.50395 0.41788 0.0
C665 C 0.80327 0.47946 0.54686 0.0
H666 H 0.73854 0.36369 0.42406 0.0
H667 H 0.84708 0.47582 0.37299 0.0
H668 H 0.7111 0.40306 0.51649 0.0
H669 H 0.68397 0.41526 0.47075 0.0
H670 H 0.68438 0.36636 0.46765 0.0
H671 H 0.85744 0.54311 0.38884 0.0
H672 H 0.81476 0.54863 0.41315 0.0
H673 H 0.84979 0.54317 0.45395 0.0
H674 H 0.70272 0.54145 0.49481 0.0
H675 H 0.77315 0.51855 0.60368 0.0
H676 H 0.69351 0.47054 0.41165 0.0
H677 H 0.74227 0.5126 0.39026 0.0
H678 H 0.70202 0.52327 0.41172 0.0
H679 H 0.78559 0.44471 0.54501 0.0
H680 H 0.81521 0.48894 0.58478 0.0
H681 H 0.83044 0.4905 0.52173 0.0
C682 C 0.35603 0.7707 0.56861 0.0
C683 C 0.37783 0.81201 0.55144 0.0
C684 C 0.32067 0.75725 0.59851 0.0
C685 C 0.30752 0.78614 0.61222 0.0
C686 C 0.3279 0.82714 0.59262 0.0
C687 C 0.36265 0.83949 0.56203 0.0
C688 C 0.2991 0.71296 0.61801 0.0
C689 C 0.31525 0.85903 0.60701 0.0
C690 C 0.20347 0.74103 0.67843 0.0
C691 C 0.21645 0.74406 0.72725 0.0
C692 C 0.23288 0.75596 0.64028 0.0
C693 C 0.27605 0.77488 0.6516 0.0
C694 C 0.28933 0.78046 0.70102 0.0
C695 C 0.25929 0.76459 0.73827 0.0
C696 C 0.21771 0.74939 0.58796 0.0
C697 C 0.33522 0.80148 0.71454 0.0
H698 H 0.36752 0.74933 0.56016 0.0
H699 H 0.37956 0.87161 0.54912 0.0
H700 H 0.30584 0.71349 0.65768 0.0
H701 H 0.26462 0.69827 0.61382 0.0
H702 H 0.30972 0.69307 0.59912 0.0
H703 H 0.32972 0.88706 0.58289 0.0
H704 H 0.2807 0.84509 0.60584 0.0
H705 H 0.32546 0.86948 0.64517 0.0
H706 H 0.17029 0.72493 0.66986 0.0
H707 H 0.26932 0.76732 0.77608 0.0
H708 H 0.22401 0.72586 0.57028 0.0
H709 H 0.23494 0.77893 0.56684 0.0
H710 H 0.18358 0.73817 0.58547 0.0
H711 H 0.34859 0.78178 0.70219 0.0
H712 H 0.34031 0.80658 0.75463 0.0
H713 H 0.35286 0.83223 0.69583 0.0
loop_
_geom_bond_atom_site_label_1
_geom_bond_atom_site_label_2
_geom_bond_distance
_geom_bond_site_symmetry_2
_ccdc_geom_bond_type
O0 Zn1 1.953 . S
O0 C16 1.225 . S
Zn1 O0 1.953 . S
Zn1 O2 1.949 . S
Zn1 O8 1.919 1_554 S
Zn1 O13 1.924 . S
O2 Zn1 1.949 . S
O2 Zn3 1.923 1_554 S
O2 Zn4 1.950 . S
O2 Zn5 1.945 . S
Zn3 O2 1.923 1_556 S
Zn3 O6 1.933 . S
Zn3 O9 1.941 . S
Zn3 O10 1.965 . S
Zn4 O2 1.950 . S
Zn4 O11 1.938 . S
Zn4 O12 1.906 . S
Zn4 O22 1.953 . S
Zn5 O2 1.945 . S
Zn5 O7 1.932 1_554 S
Zn5 O14 1.977 . S
Zn5 O15 1.910 . S
O6 Zn3 1.933 . S
O6 C17 1.226 . S
O7 Zn5 1.932 1_556 S
O7 C17 1.307 . S
O8 Zn1 1.919 1_556 S
O8 C19 1.253 . S
O9 Zn3 1.941 . S
O9 C19 1.283 . S
O10 Zn3 1.965 . S
O10 C18 1.303 . S
O11 Zn4 1.938 . S
O11 C18 1.247 1_554 S
O12 Zn4 1.906 . S
O12 C20 1.304 . S
O13 Zn1 1.924 . S
O13 C21 1.311 . S
O14 Zn5 1.977 . S
O14 C20 1.272 . S
O15 Zn5 1.910 . S
O15 C21 1.231 . S
C16 O0 1.225 . S
C16 O22 1.298 . S
C17 O6 1.226 . S
C17 O7 1.307 . S
C18 O10 1.303 . S
C18 O11 1.247 1_556 S
C19 O8 1.253 . S
C19 O9 1.283 . S
C20 O12 1.304 . S
C20 O14 1.272 . S
C21 O13 1.311 . S
C21 O15 1.231 . S
O22 Zn4 1.953 . S
O22 C16 1.298 . S
O23 Zn24 1.953 . S
O23 C39 1.225 . S
Zn24 O23 1.953 . S
Zn24 O25 1.949 . S
Zn24 O31 1.919 . S
Zn24 O36 1.924 . S
O25 Zn24 1.949 . S
O25 Zn26 1.923 . S
O25 Zn27 1.950 . S
O25 Zn28 1.945 . S
Zn26 O25 1.923 . S
Zn26 O29 1.933 . S
Zn26 O32 1.941 . S
Zn26 O33 1.965 . S
Zn27 O25 1.950 . S
Zn27 O34 1.938 . S
Zn27 O35 1.906 . S
Zn27 O45 1.953 . S
Zn28 O25 1.945 . S
Zn28 O30 1.932 . S
Zn28 O37 1.977 . S
Zn28 O38 1.910 . S
O29 Zn26 1.933 . S
O29 C40 1.226 . S
O30 Zn28 1.932 . S
O30 C40 1.307 . S
O31 Zn24 1.919 . S
O31 C42 1.253 . S
O32 Zn26 1.941 . S
O32 C42 1.283 . S
O33 Zn26 1.965 . S
O33 C41 1.303 . S
O34 Zn27 1.938 . S
O34 C41 1.247 . S
O35 Zn27 1.906 . S
O35 C43 1.304 . S
O36 Zn24 1.924 . S
O36 C44 1.311 . S
O37 Zn28 1.977 . S
O37 C43 1.272 . S
O38 Zn28 1.910 . S
O38 C44 1.231 . S
C39 O23 1.225 . S
C39 O45 1.298 . S
C40 O29 1.226 . S
C40 O30 1.307 . S
C41 O33 1.303 . S
C41 O34 1.247 . S
C42 O31 1.253 . S
C42 O32 1.283 . S
C43 O35 1.304 . S
C43 O37 1.272 . S
C44 O36 1.311 . S
C44 O38 1.231 . S
O45 Zn27 1.953 . S
O45 C39 1.298 . S
O46 Zn47 1.953 . S
O46 C62 1.225 . S
Zn47 O46 1.953 . S
Zn47 O48 1.949 . S
Zn47 O54 1.919 . S
Zn47 O59 1.924 . S
O48 Zn47 1.949 . S
O48 Zn49 1.923 . S
O48 Zn50 1.950 . S
O48 Zn51 1.945 . S
Zn49 O48 1.923 . S
Zn49 O52 1.933 . S
Zn49 O55 1.941 . S
Zn49 O56 1.965 . S
Zn50 O48 1.950 . S
Zn50 O57 1.938 . S
Zn50 O58 1.906 . S
Zn50 O68 1.953 . S
Zn51 O48 1.945 . S
Zn51 O53 1.932 . S
Zn51 O60 1.977 . S
Zn51 O61 1.910 . S
O52 Zn49 1.933 . S
O52 C63 1.226 . S
O53 Zn51 1.932 . S
O53 C63 1.307 . S
O54 Zn47 1.919 . S
O54 C65 1.253 . S
O55 Zn49 1.941 . S
O55 C65 1.283 . S
O56 Zn49 1.965 . S
O56 C64 1.303 . S
O57 Zn50 1.938 . S
O57 C64 1.247 . S
O58 Zn50 1.906 . S
O58 C66 1.304 . S
O59 Zn47 1.924 . S
O59 C67 1.311 . S
O60 Zn51 1.977 . S
O60 C66 1.272 . S
O61 Zn51 1.910 . S
O61 C67 1.231 . S
C62 O46 1.225 . S
C62 O68 1.298 . S
C63 O52 1.226 . S
C63 O53 1.307 . S
C64 O56 1.303 . S
C64 O57 1.247 . S
C65 O54 1.253 . S
C65 O55 1.283 . S
C66 O58 1.304 . S
C66 O60 1.272 . S
C67 O59 1.311 . S
C67 O61 1.231 . S
O68 Zn50 1.953 . S
O68 C62 1.298 . S
O69 Zn70 1.953 . S
O69 C85 1.225 . S
Zn70 O69 1.953 . S
Zn70 O71 1.949 . S
Zn70 O77 1.919 . S
Zn70 O82 1.924 . S
O71 Zn70 1.949 . S
O71 Zn72 1.923 . S
O71 Zn73 1.950 . S
O71 Zn74 1.945 . S
Zn72 O71 1.923 . S
Zn72 O75 1.933 . S
Zn72 O78 1.941 . S
Zn72 O79 1.965 . S
Zn73 O71 1.950 . S
Zn73 O80 1.938 . S
Zn73 O81 1.906 . S
Zn73 O91 1.953 . S
Zn74 O71 1.945 . S
Zn74 O76 1.932 . S
Zn74 O83 1.977 . S
Zn74 O84 1.910 . S
O75 Zn72 1.933 . S
O75 C86 1.226 . S
O76 Zn74 1.932 . S
O76 C86 1.307 . S
O77 Zn70 1.919 . S
O77 C88 1.253 . S
O78 Zn72 1.941 . S
O78 C88 1.283 . S
O79 Zn72 1.965 . S
O79 C87 1.303 . S
O80 Zn73 1.938 . S
O80 C87 1.247 . S
O81 Zn73 1.906 . S
O81 C89 1.304 . S
O82 Zn70 1.924 . S
O82 C90 1.311 . S
O83 Zn74 1.977 . S
O83 C89 1.272 . S
O84 Zn74 1.910 . S
O84 C90 1.231 . S
C85 O69 1.225 . S
C85 O91 1.298 . S
C86 O75 1.226 . S
C86 O76 1.307 . S
C87 O79 1.303 . S
C87 O80 1.247 . S
C88 O77 1.253 . S
C88 O78 1.283 . S
C89 O81 1.304 . S
C89 O83 1.272 . S
C90 O82 1.311 . S
C90 O84 1.231 . S
O91 Zn73 1.953 . S
O91 C85 1.298 . S
O92 Zn93 1.953 . S
O92 C108 1.225 . S
Zn93 O92 1.953 . S
Zn93 O94 1.949 . S
Zn93 O100 1.919 . S
Zn93 O105 1.924 . S
O94 Zn93 1.949 . S
O94 Zn95 1.923 . S
O94 Zn96 1.950 . S
O94 Zn97 1.945 . S
Zn95 O94 1.923 . S
Zn95 O98 1.933 . S
Zn95 O101 1.941 . S
Zn95 O102 1.965 . S
Zn96 O94 1.950 . S
Zn96 O103 1.938 . S
Zn96 O104 1.906 . S
Zn96 O114 1.953 . S
Zn97 O94 1.945 . S
Zn97 O99 1.932 . S
Zn97 O106 1.977 . S
Zn97 O107 1.910 . S
O98 Zn95 1.933 . S
O98 C109 1.226 . S
O99 Zn97 1.932 . S
O99 C109 1.307 . S
O100 Zn93 1.919 . S
O100 C111 1.253 . S
O101 Zn95 1.941 . S
O101 C111 1.283 . S
O102 Zn95 1.965 . S
O102 C110 1.303 . S
O103 Zn96 1.938 . S
O103 C110 1.247 . S
O104 Zn96 1.906 . S
O104 C112 1.304 . S
O105 Zn93 1.924 . S
O105 C113 1.311 . S
O106 Zn97 1.977 . S
O106 C112 1.272 . S
O107 Zn97 1.910 . S
O107 C113 1.231 . S
C108 O92 1.225 . S
C108 O114 1.298 . S
C109 O98 1.226 . S
C109 O99 1.307 . S
C110 O102 1.303 . S
C110 O103 1.247 . S
C111 O100 1.253 . S
C111 O101 1.283 . S
C112 O104 1.304 . S
C112 O106 1.272 . S
C113 O105 1.311 . S
C113 O107 1.231 . S
O114 Zn96 1.953 . S
O114 C108 1.298 . S
O115 Zn116 1.953 . S
O115 C131 1.225 . S
Zn116 O115 1.953 . S
Zn116 O117 1.949 . S
Zn116 O123 1.919 . S
Zn116 O128 1.924 . S
O117 Zn116 1.949 . S
O117 Zn118 1.923 . S
O117 Zn119 1.950 . S
O117 Zn120 1.945 . S
Zn118 O117 1.923 . S
Zn118 O121 1.933 . S
Zn118 O124 1.941 . S
Zn118 O125 1.965 . S
Zn119 O117 1.950 . S
Zn119 O126 1.938 . S
Zn119 O127 1.906 . S
Zn119 O137 1.953 . S
Zn120 O117 1.945 . S
Zn120 O122 1.932 . S
Zn120 O129 1.977 . S
Zn120 O130 1.910 . S
O121 Zn118 1.933 . S
O121 C132 1.226 . S
O122 Zn120 1.932 . S
O122 C132 1.307 . S
O123 Zn116 1.919 . S
O123 C134 1.253 . S
O124 Zn118 1.941 . S
O124 C134 1.283 . S
O125 Zn118 1.965 . S
O125 C133 1.303 . S
O126 Zn119 1.938 . S
O126 C133 1.247 . S
O127 Zn119 1.906 . S
O127 C135 1.304 . S
O128 Zn116 1.924 . S
O128 C136 1.311 . S
O129 Zn120 1.977 . S
O129 C135 1.272 . S
O130 Zn120 1.910 . S
O130 C136 1.231 . S
C131 O115 1.225 . S
C131 O137 1.298 . S
C132 O121 1.226 . S
C132 O122 1.307 . S
C133 O125 1.303 . S
C133 O126 1.247 . S
C134 O123 1.253 . S
C134 O124 1.283 . S
C135 O127 1.304 . S
C135 O129 1.272 . S
C136 O128 1.311 . S
C136 O130 1.231 . S
O137 Zn119 1.953 . S
O137 C131 1.298 . S
C138 C139 1.391 . S
C138 C140 1.394 . S
C138 H154 0.931 1_565 S
C139 C138 1.391 . S
C139 C143 1.376 1_556 S
C140 C138 1.394 . S
C140 C141 1.369 . S
C140 C144 1.531 . S
C141 C140 1.369 . S
C141 C142 1.410 1_556 S
C141 C149 1.503 . S
C142 C141 1.410 1_554 S
C142 C143 1.392 . S
C142 C145 1.511 . S
C143 C139 1.376 1_554 S
C143 C142 1.392 . S
C143 H155 0.929 . S
C144 C140 1.531 . S
C144 H156 0.960 . S
C144 H157 0.962 . S
C144 H158 0.960 . S
C145 C142 1.511 . S
C145 H159 0.961 . S
C145 H160 0.961 . S
C145 H161 0.961 . S
C146 C147 1.370 . S
C146 C148 1.363 . S
C146 H162 0.931 . S
C147 C146 1.370 . S
C147 C151 1.408 . S
C148 C146 1.363 . S
C148 C149 1.370 . S
C148 C152 1.524 . S
C149 C141 1.503 . S
C149 C148 1.370 . S
C149 C150 1.403 . S
C150 C149 1.403 . S
C150 C151 1.404 . S
C150 C153 1.539 . S
C151 C147 1.408 . S
C151 C150 1.404 . S
C151 H163 0.930 . S
C152 C148 1.524 . S
C152 H164 0.956 . S
C152 H165 0.961 . S
C152 H166 0.961 . S
C153 C150 1.539 . S
C153 H167 0.958 . S
C153 H168 0.961 . S
C153 H169 0.960 . S
H154 C138 0.931 1_545 S
H155 C143 0.929 . S
H156 C144 0.960 . S
H157 C144 0.962 . S
H158 C144 0.960 . S
H159 C145 0.961 . S
H160 C145 0.961 . S
H161 C145 0.961 . S
H162 C146 0.931 . S
H163 C151 0.930 . S
H164 C152 0.956 . S
H165 C152 0.961 . S
H166 C152 0.961 . S
H167 C153 0.958 . S
H168 C153 0.961 . S
H169 C153 0.960 . S
C170 C171 1.391 . S
C170 C172 1.394 . S
C170 H186 0.931 . S
C171 C170 1.391 . S
C171 C175 1.376 . S
C172 C170 1.394 . S
C172 C173 1.369 . S
C172 C176 1.531 . S
C173 C172 1.369 . S
C173 C174 1.410 . S
C173 C181 1.503 . S
C174 C173 1.410 . S
C174 C175 1.392 . S
C174 C177 1.511 . S
C175 C171 1.376 . S
C175 C174 1.392 . S
C175 H187 0.929 . S
C176 C172 1.531 . S
C176 H188 0.960 . S
C176 H189 0.962 . S
C176 H190 0.960 . S
C177 C174 1.511 . S
C177 H191 0.961 . S
C177 H192 0.961 . S
C177 H193 0.961 . S
C178 C179 1.370 . S
C178 C180 1.363 . S
C178 H194 0.931 . S
C179 C178 1.370 . S
C179 C183 1.408 . S
C180 C178 1.363 . S
C180 C181 1.370 . S
C180 C184 1.524 . S
C181 C173 1.503 . S
C181 C180 1.370 . S
C181 C182 1.403 . S
C182 C181 1.403 . S
C182 C183 1.404 . S
C182 C185 1.539 . S
C183 C179 1.408 . S
C183 C182 1.404 . S
C183 H195 0.930 . S
C184 C180 1.524 . S
C184 H196 0.956 . S
C184 H197 0.961 . S
C184 H198 0.961 . S
C185 C182 1.539 . S
C185 H199 0.958 . S
C185 H200 0.961 . S
C185 H201 0.960 . S
H186 C170 0.931 . S
H187 C175 0.929 . S
H188 C176 0.960 . S
H189 C176 0.962 . S
H190 C176 0.960 . S
H191 C177 0.961 . S
H192 C177 0.961 . S
H193 C177 0.961 . S
H194 C178 0.931 . S
H195 C183 0.930 . S
H196 C184 0.956 . S
H197 C184 0.961 . S
H198 C184 0.961 . S
H199 C185 0.958 . S
H200 C185 0.961 . S
H201 C185 0.960 . S
C202 C203 1.391 . S
C202 C204 1.394 . S
C202 H218 0.931 1_455 S
C203 C202 1.391 . S
C203 C207 1.376 . S
C204 C202 1.394 . S
C204 C205 1.369 . S
C204 C208 1.531 . S
C205 C204 1.369 . S
C205 C206 1.410 . S
C205 C213 1.503 . S
C206 C205 1.410 . S
C206 C207 1.392 . S
C206 C209 1.511 . S
C207 C203 1.376 . S
C207 C206 1.392 . S
C207 H219 0.929 . S
C208 C204 1.531 . S
C208 H220 0.960 . S
C208 H221 0.962 . S
C208 H222 0.960 . S
C209 C206 1.511 . S
C209 H223 0.961 . S
C209 H224 0.961 . S
C209 H225 0.961 . S
C210 C211 1.370 . S
C210 C212 1.363 . S
C210 H226 0.931 . S
C211 C210 1.370 . S
C211 C215 1.408 . S
C212 C210 1.363 . S
C212 C213 1.370 . S
C212 C216 1.524 . S
C213 C205 1.503 . S
C213 C212 1.370 . S
C213 C214 1.403 . S
C214 C213 1.403 . S
C214 C215 1.404 . S
C214 C217 1.539 . S
C215 C211 1.408 . S
C215 C214 1.404 . S
C215 H227 0.930 . S
C216 C212 1.524 . S
C216 H228 0.956 . S
C216 H229 0.961 . S
C216 H230 0.961 . S
C217 C214 1.539 . S
C217 H231 0.958 . S
C217 H232 0.961 . S
C217 H233 0.960 . S
H218 C202 0.931 1_655 S
H219 C207 0.929 . S
H220 C208 0.960 . S
H221 C208 0.962 . S
H222 C208 0.960 . S
H223 C209 0.961 . S
H224 C209 0.961 . S
H225 C209 0.961 . S
H226 C210 0.931 . S
H227 C215 0.930 . S
H228 C216 0.956 . S
H229 C216 0.961 . S
H230 C216 0.961 . S
H231 C217 0.958 . S
H232 C217 0.961 . S
H233 C217 0.960 . S
C234 C235 1.391 . S
C234 C236 1.394 . S
C234 H250 0.931 . S
C235 C234 1.391 . S
C235 C239 1.376 . S
C236 C234 1.394 . S
C236 C237 1.369 . S
C236 C240 1.531 . S
C237 C236 1.369 . S
C237 C238 1.410 . S
C237 C245 1.503 . S
C238 C237 1.410 . S
C238 C239 1.392 . S
C238 C241 1.511 . S
C239 C235 1.376 . S
C239 C238 1.392 . S
C239 H251 0.929 . S
C240 C236 1.531 . S
C240 H252 0.960 . S
C240 H253 0.962 . S
C240 H254 0.960 . S
C241 C238 1.511 . S
C241 H255 0.961 . S
C241 H256 0.961 . S
C241 H257 0.961 . S
C242 C243 1.370 . S
C242 C244 1.363 . S
C242 H258 0.931 1_545 S
C243 C242 1.370 . S
C243 C247 1.408 . S
C244 C242 1.363 . S
C244 C245 1.370 . S
C244 C248 1.524 . S
C245 C237 1.503 . S
C245 C244 1.370 . S
C245 C246 1.403 . S
C246 C245 1.403 . S
C246 C247 1.404 . S
C246 C249 1.539 . S
C247 C243 1.408 . S
C247 C246 1.404 . S
C247 H259 0.930 . S
C248 C244 1.524 . S
C248 H260 0.956 . S
C248 H261 0.961 . S
C248 H262 0.961 . S
C249 C246 1.539 . S
C249 H263 0.958 . S
C249 H264 0.961 . S
C249 H265 0.960 . S
H250 C234 0.931 . S
H251 C239 0.929 . S
H252 C240 0.960 . S
H253 C240 0.962 . S
H254 C240 0.960 . S
H255 C241 0.961 . S
H256 C241 0.961 . S
H257 C241 0.961 . S
H258 C242 0.931 1_565 S
H259 C247 0.930 . S
H260 C248 0.956 . S
H261 C248 0.961 . S
H262 C248 0.961 . S
H263 C249 0.958 . S
H264 C249 0.961 . S
H265 C249 0.960 . S
C266 C267 1.391 . S
C266 C268 1.394 . S
C266 H282 0.931 . S
C267 C266 1.391 . S
C267 C271 1.376 . S
C268 C266 1.394 . S
C268 C269 1.369 . S
C268 C272 1.531 . S
C269 C268 1.369 . S
C269 C270 1.410 . S
C269 C277 1.503 . S
C270 C269 1.410 . S
C270 C271 1.392 . S
C270 C273 1.511 . S
C271 C267 1.376 . S
C271 C270 1.392 . S
C271 H283 0.929 . S
C272 C268 1.531 . S
C272 H284 0.960 . S
C272 H285 0.962 . S
C272 H286 0.960 . S
C273 C270 1.511 . S
C273 H287 0.961 . S
C273 H288 0.961 . S
C273 H289 0.961 . S
C274 C275 1.370 . S
C274 C276 1.363 . S
C274 H290 0.931 . S
C275 C274 1.370 . S
C275 C279 1.408 . S
C276 C274 1.363 . S
C276 C277 1.370 . S
C276 C280 1.524 . S
C277 C269 1.503 . S
C277 C276 1.370 . S
C277 C278 1.403 . S
C278 C277 1.403 . S
C278 C279 1.404 . S
C278 C281 1.539 . S
C279 C275 1.408 . S
C279 C278 1.404 . S
C279 H291 0.930 . S
C280 C276 1.524 . S
C280 H292 0.956 . S
C280 H293 0.961 . S
C280 H294 0.961 . S
C281 C278 1.539 . S
C281 H295 0.958 . S
C281 H296 0.961 . S
C281 H297 0.960 . S
H282 C266 0.931 . S
H283 C271 0.929 . S
H284 C272 0.960 . S
H285 C272 0.962 . S
H286 C272 0.960 . S
H287 C273 0.961 . S
H288 C273 0.961 . S
H289 C273 0.961 . S
H290 C274 0.931 . S
H291 C279 0.930 . S
H292 C280 0.956 . S
H293 C280 0.961 . S
H294 C280 0.961 . S
H295 C281 0.958 . S
H296 C281 0.961 . S
H297 C281 0.960 . S
C298 C299 1.402 . S
C298 C300 1.394 . S
C298 H314 0.931 . S
C299 C298 1.402 . S
C299 C303 1.389 . S
C300 C298 1.394 . S
C300 C301 1.369 . S
C300 C304 1.531 . S
C301 C300 1.369 . S
C301 C302 1.410 . S
C301 C309 1.503 . S
C302 C301 1.410 . S
C302 C303 1.392 . S
C302 C305 1.511 . S
C303 C299 1.389 . S
C303 C302 1.392 . S
C303 H315 0.929 1_655 S
C304 C300 1.531 . S
C304 H316 0.960 . S
C304 H317 0.962 . S
C304 H318 0.960 . S
C305 C302 1.511 . S
C305 H319 0.961 . S
C305 H320 0.961 . S
C305 H321 0.961 . S
C306 C307 1.370 . S
C306 C308 1.363 . S
C306 H322 0.931 . S
C307 C306 1.370 . S
C307 C311 1.408 . S
C308 C306 1.363 . S
C308 C309 1.370 . S
C308 C312 1.524 . S
C309 C301 1.503 . S
C309 C308 1.370 . S
C309 C310 1.403 . S
C310 C309 1.403 . S
C310 C311 1.404 . S
C310 C313 1.539 . S
C311 C307 1.408 . S
C311 C310 1.404 . S
C311 H323 0.930 . S
C312 C308 1.524 . S
C312 H324 0.956 . S
C312 H325 0.961 . S
C312 H326 0.961 . S
C313 C310 1.539 . S
C313 H327 0.958 . S
C313 H328 0.961 . S
C313 H329 0.960 . S
H314 C298 0.931 . S
H315 C303 0.929 1_455 S
H316 C304 0.960 . S
H317 C304 0.962 . S
H318 C304 0.960 . S
H319 C305 0.961 . S
H320 C305 0.961 . S
H321 C305 0.961 . S
H322 C306 0.931 . S
H323 C311 0.930 . S
H324 C312 0.956 . S
H325 C312 0.961 . S
H326 C312 0.961 . S
H327 C313 0.958 . S
H328 C313 0.961 . S
H329 C313 0.960 . S
C330 C331 1.391 1_565 S
C330 C332 1.394 . S
C330 H346 0.931 . S
C331 C330 1.391 1_545 S
C331 C335 1.376 . S
C332 C330 1.394 . S
C332 C333 1.369 . S
C332 C336 1.531 . S
C333 C332 1.369 . S
C333 C334 1.410 1_565 S
C333 C341 1.503 . S
C334 C333 1.410 1_545 S
C334 C335 1.392 . S
C334 C337 1.511 . S
C335 C331 1.376 . S
C335 C334 1.392 . S
C335 H347 0.929 . S
C336 C332 1.531 . S
C336 H348 0.960 . S
C336 H349 0.962 . S
C336 H350 0.960 . S
C337 C334 1.511 . S
C337 H351 0.961 . S
C337 H352 0.961 . S
C337 H353 0.961 1_545 S
C338 C339 1.370 . S
C338 C340 1.363 . S
C338 H354 0.931 . S
C339 C338 1.370 . S
C339 C343 1.408 . S
C340 C338 1.363 . S
C340 C341 1.370 . S
C340 C344 1.524 1_565 S
C341 C333 1.503 . S
C341 C340 1.370 . S
C341 C342 1.403 . S
C342 C341 1.403 . S
C342 C343 1.404 . S
C342 C345 1.539 . S
C343 C339 1.408 . S
C343 C342 1.404 . S
C343 H355 0.930 . S
C344 C340 1.524 1_545 S
C344 H356 0.956 . S
C344 H357 0.961 . S
C344 H358 0.961 . S
C345 C342 1.539 . S
C345 H359 0.958 . S
C345 H360 0.961 . S
C345 H361 0.960 . S
H346 C330 0.931 . S
H347 C335 0.929 . S
H348 C336 0.960 . S
H349 C336 0.962 . S
H350 C336 0.960 . S
H351 C337 0.961 . S
H352 C337 0.961 . S
H353 C337 0.961 1_565 S
H354 C338 0.931 . S
H355 C343 0.930 . S
H356 C344 0.956 . S
H357 C344 0.961 . S
H358 C344 0.961 . S
H359 C345 0.958 . S
H360 C345 0.961 . S
H361 C345 0.960 . S
C362 C363 1.391 . S
C362 C364 1.394 . S
C362 H378 0.931 . S
C363 C362 1.391 . S
C363 C367 1.376 . S
C364 C362 1.394 . S
C364 C365 1.369 . S
C364 C368 1.531 . S
C365 C364 1.369 . S
C365 C366 1.410 . S
C365 C373 1.503 . S
C366 C365 1.410 . S
C366 C367 1.392 . S
C366 C369 1.511 . S
C367 C363 1.376 . S
C367 C366 1.392 . S
C367 H379 0.929 . S
C368 C364 1.531 . S
C368 H380 0.960 . S
C368 H381 0.962 . S
C368 H382 0.960 . S
C369 C366 1.511 . S
C369 H383 0.961 . S
C369 H384 0.961 . S
C369 H385 0.961 . S
C370 C371 1.370 . S
C370 C372 1.363 . S
C370 H386 0.931 . S
C371 C370 1.370 . S
C371 C375 1.408 . S
C372 C370 1.363 . S
C372 C373 1.370 . S
C372 C376 1.524 . S
C373 C365 1.503 . S
C373 C372 1.370 . S
C373 C374 1.403 . S
C374 C373 1.403 . S
C374 C375 1.404 . S
C374 C377 1.539 . S
C375 C371 1.408 . S
C375 C374 1.404 . S
C375 H387 0.930 . S
C376 C372 1.524 . S
C376 H388 0.956 . S
C376 H389 0.961 . S
C376 H390 0.961 . S
C377 C374 1.539 . S
C377 H391 0.958 . S
C377 H392 0.961 . S
C377 H393 0.960 . S
H378 C362 0.931 . S
H379 C367 0.929 . S
H380 C368 0.960 . S
H381 C368 0.962 . S
H382 C368 0.960 . S
H383 C369 0.961 . S
H384 C369 0.961 . S
H385 C369 0.961 . S
H386 C370 0.931 . S
H387 C375 0.930 . S
H388 C376 0.956 . S
H389 C376 0.961 . S
H390 C376 0.961 . S
H391 C377 0.958 . S
H392 C377 0.961 . S
H393 C377 0.960 . S
C394 C395 1.391 . S
C394 C396 1.394 . S
C394 H410 0.931 . S
C395 C394 1.391 . S
C395 C399 1.376 . S
C396 C394 1.394 . S
C396 C397 1.369 . S
C396 C400 1.531 1_455 S
C397 C396 1.369 . S
C397 C398 1.410 . S
C397 C405 1.503 . S
C398 C397 1.410 . S
C398 C399 1.392 . S
C398 C401 1.511 . S
C399 C395 1.376 . S
C399 C398 1.392 . S
C399 H411 0.929 . S
C400 C396 1.531 1_655 S
C400 H412 0.960 . S
C400 H413 0.962 . S
C400 H414 0.960 . S
C401 C398 1.511 . S
C401 H415 0.961 . S
C401 H416 0.961 . S
C401 H417 0.961 . S
C402 C403 1.370 . S
C402 C404 1.363 . S
C402 H418 0.931 . S
C403 C402 1.370 . S
C403 C407 1.408 1_655 S
C404 C402 1.363 . S
C404 C405 1.370 1_655 S
C404 C408 1.524 . S
C405 C397 1.503 . S
C405 C404 1.370 1_455 S
C405 C406 1.403 . S
C406 C405 1.403 . S
C406 C407 1.404 . S
C406 C409 1.539 . S
C407 C403 1.408 1_455 S
C407 C406 1.404 . S
C407 H419 0.930 . S
C408 C404 1.524 . S
C408 H420 0.956 . S
C408 H421 0.961 . S
C408 H422 0.961 . S
C409 C406 1.539 . S
C409 H423 0.958 . S
C409 H424 0.961 . S
C409 H425 0.960 . S
H410 C394 0.931 . S
H411 C399 0.929 . S
H412 C400 0.960 . S
H413 C400 0.962 . S
H414 C400 0.960 . S
H415 C401 0.961 . S
H416 C401 0.961 . S
H417 C401 0.961 . S
H418 C402 0.931 . S
H419 C407 0.930 . S
H420 C408 0.956 . S
H421 C408 0.961 . S
H422 C408 0.961 . S
H423 C409 0.958 . S
H424 C409 0.961 . S
H425 C409 0.960 . S
C426 C427 1.391 . S
C426 C428 1.394 . S
C426 H442 0.931 . S
C427 C426 1.391 . S
C427 C431 1.376 . S
C428 C426 1.394 . S
C428 C429 1.369 1_565 S
C428 C432 1.531 . S
C429 C428 1.369 1_545 S
C429 C430 1.410 . S
C429 C437 1.503 . S
C430 C429 1.410 . S
C430 C431 1.392 1_545 S
C430 C433 1.511 . S
C431 C427 1.376 . S
C431 C430 1.392 1_565 S
C431 H443 0.929 1_565 S
C432 C428 1.531 . S
C432 H444 0.960 . S
C432 H445 0.962 1_565 S
C432 H446 0.960 . S
C433 C430 1.511 . S
C433 H447 0.961 . S
C433 H448 0.961 . S
C433 H449 0.961 . S
C434 C435 1.370 . S
C434 C436 1.363 . S
C434 H450 0.931 . S
C435 C434 1.370 . S
C435 C439 1.408 . S
C436 C434 1.363 . S
C436 C437 1.370 . S
C436 C440 1.524 . S
C437 C429 1.503 . S
C437 C436 1.370 . S
C437 C438 1.403 1_545 S
C438 C437 1.403 1_565 S
C438 C439 1.404 1_565 S
C438 C441 1.539 . S
C439 C435 1.408 . S
C439 C438 1.404 1_545 S
C439 H451 0.930 1_545 S
C440 C436 1.524 . S
C440 H452 0.956 . S
C440 H453 0.961 . S
C440 H454 0.961 . S
C441 C438 1.539 . S
C441 H455 0.958 . S
C441 H456 0.961 . S
C441 H457 0.960 . S
H442 C426 0.931 . S
H443 C431 0.929 1_545 S
H444 C432 0.960 . S
H445 C432 0.962 1_545 S
H446 C432 0.960 . S
H447 C433 0.961 . S
H448 C433 0.961 . S
H449 C433 0.961 . S
H450 C434 0.931 . S
H451 C439 0.930 1_565 S
H452 C440 0.956 . S
H453 C440 0.961 . S
H454 C440 0.961 . S
H455 C441 0.958 . S
H456 C441 0.961 . S
H457 C441 0.960 . S
C458 C459 1.391 . S
C458 C460 1.394 1_554 S
C458 H474 0.931 . S
C459 C458 1.391 . S
C459 C463 1.376 . S
C460 C458 1.394 1_556 S
C460 C461 1.369 . S
C460 C464 1.531 . S
C461 C460 1.369 . S
C461 C462 1.410 1_556 S
C461 C469 1.503 . S
C462 C461 1.410 1_554 S
C462 C463 1.392 . S
C462 C465 1.511 1_554 S
C463 C459 1.376 . S
C463 C462 1.392 . S
C463 H475 0.929 . S
C464 C460 1.531 . S
C464 H476 0.960 . S
C464 H477 0.962 . S
C464 H478 0.960 . S
C465 C462 1.511 1_556 S
C465 H479 0.949 1_556 S
C465 H480 0.980 . S
C465 H481 0.955 1_556 S
C466 C467 1.370 . S
C466 C468 1.363 . S
C466 H482 0.931 . S
C467 C466 1.370 . S
C467 C471 1.408 . S
C468 C466 1.363 . S
C468 C469 1.370 . S
C468 C472 1.524 . S
C469 C461 1.503 . S
C469 C468 1.370 . S
C469 C470 1.403 . S
C470 C469 1.403 . S
C470 C471 1.404 . S
C470 C473 1.539 . S
C471 C467 1.408 . S
C471 C470 1.404 . S
C471 H483 0.930 . S
C472 C468 1.524 . S
C472 H484 0.956 . S
C472 H485 0.961 . S
C472 H486 0.961 . S
C473 C470 1.539 . S
C473 H487 0.958 . S
C473 H488 0.961 . S
C473 H489 0.960 . S
H474 C458 0.931 . S
H475 C463 0.929 . S
H476 C464 0.960 . S
H477 C464 0.962 . S
H478 C464 0.960 . S
H479 C465 0.949 1_554 S
H480 C465 0.980 . S
H481 C465 0.955 1_554 S
H482 C466 0.931 . S
H483 C471 0.930 . S
H484 C472 0.956 . S
H485 C472 0.961 . S
H486 C472 0.961 . S
H487 C473 0.958 . S
H488 C473 0.961 . S
H489 C473 0.960 . S
C490 C491 1.391 1_554 S
C490 C492 1.394 . S
C490 H506 0.931 . S
C491 C490 1.391 1_556 S
C491 C495 1.376 1_455 S
C492 C490 1.394 . S
C492 C493 1.369 1_455 S
C492 C496 1.531 . S
C493 C492 1.369 1_655 S
C493 C494 1.410 . S
C493 C501 1.503 . S
C494 C493 1.410 . S
C494 C495 1.392 1_554 S
C494 C497 1.511 . S
C495 C491 1.376 1_655 S
C495 C494 1.392 1_556 S
C495 H507 0.929 . S
C496 C492 1.531 . S
C496 H508 0.960 . S
C496 H509 0.962 . S
C496 H510 0.960 . S
C497 C494 1.511 . S
C497 H511 0.961 . S
C497 H512 0.961 . S
C497 H513 0.961 . S
C498 C499 1.370 . S
C498 C500 1.363 . S
C498 H514 0.931 . S
C499 C498 1.370 . S
C499 C503 1.408 . S
C500 C498 1.363 . S
C500 C501 1.370 . S
C500 C504 1.524 . S
C501 C493 1.503 . S
C501 C500 1.370 . S
C501 C502 1.403 . S
C502 C501 1.403 . S
C502 C503 1.404 . S
C502 C505 1.539 . S
C503 C499 1.408 . S
C503 C502 1.404 . S
C503 H515 0.930 . S
C504 C500 1.524 . S
C504 H516 0.956 1_655 S
C504 H517 0.961 . S
C504 H518 0.961 . S
C505 C502 1.539 . S
C505 H519 0.958 . S
C505 H520 0.961 . S
C505 H521 0.960 . S
H506 C490 0.931 . S
H507 C495 0.929 . S
H508 C496 0.960 . S
H509 C496 0.962 . S
H510 C496 0.960 . S
H511 C497 0.961 . S
H512 C497 0.961 . S
H513 C497 0.961 . S
H514 C498 0.931 . S
H515 C503 0.930 . S
H516 C504 0.956 1_455 S
H517 C504 0.961 . S
H518 C504 0.961 . S
H519 C505 0.958 . S
H520 C505 0.961 . S
H521 C505 0.960 . S
C522 C523 1.391 . S
C522 C524 1.394 . S
C522 H538 0.931 . S
C523 C522 1.391 . S
C523 C527 1.376 . S
C524 C522 1.394 . S
C524 C525 1.369 . S
C524 C528 1.531 . S
C525 C524 1.369 . S
C525 C526 1.410 . S
C525 C533 1.503 . S
C526 C525 1.410 . S
C526 C527 1.392 . S
C526 C529 1.511 . S
C527 C523 1.376 . S
C527 C526 1.392 . S
C527 H539 0.929 . S
C528 C524 1.531 . S
C528 H540 0.960 . S
C528 H541 0.962 . S
C528 H542 0.960 . S
C529 C526 1.511 . S
C529 H543 0.961 . S
C529 H544 0.961 . S
C529 H545 0.961 . S
C530 C531 1.370 . S
C530 C532 1.363 . S
C530 H546 0.931 . S
C531 C530 1.370 . S
C531 C535 1.408 . S
C532 C530 1.363 . S
C532 C533 1.370 . S
C532 C536 1.524 . S
C533 C525 1.503 . S
C533 C532 1.370 . S
C533 C534 1.403 . S
C534 C533 1.403 . S
C534 C535 1.404 . S
C534 C537 1.539 . S
C535 C531 1.408 . S
C535 C534 1.404 . S
C535 H547 0.930 . S
C536 C532 1.524 . S
C536 H548 0.956 . S
C536 H549 0.961 . S
C536 H550 0.961 . S
C537 C534 1.539 . S
C537 H551 0.958 . S
C537 H552 0.961 . S
C537 H553 0.960 . S
H538 C522 0.931 . S
H539 C527 0.929 . S
H540 C528 0.960 . S
H541 C528 0.962 . S
H542 C528 0.960 . S
H543 C529 0.961 . S
H544 C529 0.961 . S
H545 C529 0.961 . S
H546 C530 0.931 . S
H547 C535 0.930 . S
H548 C536 0.956 . S
H549 C536 0.961 . S
H550 C536 0.961 . S
H551 C537 0.958 . S
H552 C537 0.961 . S
H553 C537 0.960 . S
C554 C555 1.391 . S
C554 C556 1.394 1_556 S
C554 H570 0.931 . S
C555 C554 1.391 . S
C555 C559 1.376 . S
C556 C554 1.394 1_554 S
C556 C557 1.369 1_554 S
C556 C560 1.530 . S
C557 C556 1.369 1_556 S
C557 C558 1.410 . S
C557 C565 1.503 1_556 S
C558 C557 1.410 . S
C558 C559 1.392 . S
C558 C561 1.511 . S
C559 C555 1.376 . S
C559 C558 1.392 . S
C559 H571 0.929 . S
C560 C556 1.530 . S
C560 H572 0.960 . S
C560 H573 0.962 . S
C560 H574 0.960 . S
C561 C558 1.511 . S
C561 H575 0.961 . S
C561 H576 0.961 . S
C561 H577 0.961 . S
C562 C563 1.370 . S
C562 C564 1.363 1_554 S
C562 H578 0.931 . S
C563 C562 1.370 . S
C563 C567 1.408 . S
C564 C562 1.363 1_556 S
C564 C565 1.370 1_556 S
C564 C568 1.524 . S
C565 C557 1.503 1_554 S
C565 C564 1.370 1_554 S
C565 C566 1.403 . S
C566 C565 1.403 . S
C566 C567 1.404 . S
C566 C569 1.539 . S
C567 C563 1.408 . S
C567 C566 1.404 . S
C567 H579 0.930 . S
C568 C564 1.524 . S
C568 H580 0.956 . S
C568 H581 0.961 . S
C568 H582 0.961 . S
C569 C566 1.539 . S
C569 H583 0.958 . S
C569 H584 0.961 . S
C569 H585 0.960 . S
H570 C554 0.931 . S
H571 C559 0.929 . S
H572 C560 0.960 . S
H573 C560 0.962 . S
H574 C560 0.960 . S
H575 C561 0.961 . S
H576 C561 0.961 . S
H577 C561 0.961 . S
H578 C562 0.931 . S
H579 C567 0.930 . S
H580 C568 0.956 . S
H581 C568 0.961 . S
H582 C568 0.961 . S
H583 C569 0.958 . S
H584 C569 0.961 . S
H585 C569 0.960 . S
C586 C587 1.391 . S
C586 C588 1.394 . S
C586 H602 0.931 . S
C587 C586 1.391 . S
C587 C591 1.376 . S
C588 C586 1.394 . S
C588 C589 1.369 . S
C588 C592 1.531 . S
C589 C588 1.369 . S
C589 C590 1.410 . S
C589 C597 1.503 . S
C590 C589 1.410 . S
C590 C591 1.392 . S
C590 C593 1.511 . S
C591 C587 1.376 . S
C591 C590 1.392 . S
C591 H603 0.929 . S
C592 C588 1.531 . S
C592 H604 0.960 . S
C592 H605 0.962 . S
C592 H606 0.960 . S
C593 C590 1.511 . S
C593 H607 0.961 . S
C593 H608 0.961 . S
C593 H609 0.961 . S
C594 C595 1.370 . S
C594 C596 1.363 . S
C594 H610 0.931 . S
C595 C594 1.370 . S
C595 C599 1.408 . S
C596 C594 1.363 . S
C596 C597 1.370 . S
C596 C600 1.524 . S
C597 C589 1.503 . S
C597 C596 1.370 . S
C597 C598 1.403 . S
C598 C597 1.403 . S
C598 C599 1.404 . S
C598 C601 1.539 . S
C599 C595 1.408 . S
C599 C598 1.404 . S
C599 H611 0.930 . S
C600 C596 1.524 . S
C600 H612 0.956 . S
C600 H613 0.961 . S
C600 H614 0.961 . S
C601 C598 1.539 . S
C601 H615 0.958 . S
C601 H616 0.961 . S
C601 H617 0.960 . S
H602 C586 0.931 . S
H603 C591 0.929 . S
H604 C592 0.960 . S
H605 C592 0.962 . S
H606 C592 0.960 . S
H607 C593 0.961 . S
H608 C593 0.961 . S
H609 C593 0.961 . S
H610 C594 0.931 . S
H611 C599 0.930 . S
H612 C600 0.956 . S
H613 C600 0.961 . S
H614 C600 0.961 . S
H615 C601 0.958 . S
H616 C601 0.961 . S
H617 C601 0.960 . S
C618 C619 1.391 . S
C618 C620 1.394 . S
C618 H634 0.931 . S
C619 C618 1.391 . S
C619 C623 1.376 . S
C620 C618 1.394 . S
C620 C621 1.369 . S
C620 C624 1.531 . S
C621 C620 1.369 . S
C621 C622 1.410 . S
C621 C629 1.503 . S
C622 C621 1.410 . S
C622 C623 1.392 . S
C622 C625 1.511 . S
C623 C619 1.376 . S
C623 C622 1.392 . S
C623 H635 0.929 . S
C624 C620 1.531 . S
C624 H636 0.960 . S
C624 H637 0.962 . S
C624 H638 0.960 . S
C625 C622 1.511 . S
C625 H639 0.961 . S
C625 H640 0.961 . S
C625 H641 0.961 . S
C626 C627 1.370 . S
C626 C628 1.363 . S
C626 H642 0.931 . S
C627 C626 1.370 . S
C627 C631 1.408 . S
C628 C626 1.363 . S
C628 C629 1.370 . S
C628 C632 1.524 . S
C629 C621 1.503 . S
C629 C628 1.370 . S
C629 C630 1.403 . S
C630 C629 1.403 . S
C630 C631 1.404 . S
C630 C633 1.539 . S
C631 C627 1.408 . S
C631 C630 1.404 . S
C631 H643 0.930 . S
C632 C628 1.524 . S
C632 H644 0.956 . S
C632 H645 0.961 . S
C632 H646 0.961 . S
C633 C630 1.539 . S
C633 H647 0.958 . S
C633 H648 0.961 . S
C633 H649 0.960 . S
H634 C618 0.931 . S
H635 C623 0.929 . S
H636 C624 0.960 . S
H637 C624 0.962 . S
H638 C624 0.960 . S
H639 C625 0.961 . S
H640 C625 0.961 . S
H641 C625 0.961 . S
H642 C626 0.931 . S
H643 C631 0.930 . S
H644 C632 0.956 . S
H645 C632 0.961 . S
H646 C632 0.961 . S
H647 C633 0.958 . S
H648 C633 0.961 . S
H649 C633 0.960 . S
C650 C651 1.391 . S
C650 C652 1.394 . S
C650 H666 0.931 . S
C651 C650 1.391 . S
C651 C655 1.376 . S
C652 C650 1.394 . S
C652 C653 1.369 . S
C652 C656 1.531 . S
C653 C652 1.369 . S
C653 C654 1.410 . S
C653 C661 1.503 . S
C654 C653 1.410 . S
C654 C655 1.392 . S
C654 C657 1.511 . S
C655 C651 1.376 . S
C655 C654 1.392 . S
C655 H667 0.929 . S
C656 C652 1.531 . S
C656 H668 0.960 . S
C656 H669 0.962 . S
C656 H670 0.960 . S
C657 C654 1.511 . S
C657 H671 0.961 . S
C657 H672 0.961 . S
C657 H673 0.961 . S
C658 C659 1.370 . S
C658 C660 1.363 . S
C658 H674 0.931 . S
C659 C658 1.370 . S
C659 C663 1.408 . S
C660 C658 1.363 . S
C660 C661 1.370 . S
C660 C664 1.524 . S
C661 C653 1.503 . S
C661 C660 1.370 . S
C661 C662 1.403 . S
C662 C661 1.403 . S
C662 C663 1.404 . S
C662 C665 1.539 . S
C663 C659 1.408 . S
C663 C662 1.404 . S
C663 H675 0.930 . S
C664 C660 1.524 . S
C664 H676 0.956 . S
C664 H677 0.961 . S
C664 H678 0.961 . S
C665 C662 1.539 . S
C665 H679 0.958 . S
C665 H680 0.961 . S
C665 H681 0.960 . S
H666 C650 0.931 . S
H667 C655 0.929 . S
H668 C656 0.960 . S
H669 C656 0.962 . S
H670 C656 0.960 . S
H671 C657 0.961 . S
H672 C657 0.961 . S
H673 C657 0.961 . S
H674 C658 0.931 . S
H675 C663 0.930 . S
H676 C664 0.956 . S
H677 C664 0.961 . S
H678 C664 0.961 . S
H679 C665 0.958 . S
H680 C665 0.961 . S
H681 C665 0.960 . S
C682 C683 1.391 . S
C682 C684 1.394 . S
C682 H698 0.931 . S
C683 C682 1.391 . S
C683 C687 1.376 . S
C684 C682 1.394 . S
C684 C685 1.369 . S
C684 C688 1.531 . S
C685 C684 1.369 . S
C685 C686 1.410 . S
C685 C693 1.503 . S
C686 C685 1.410 . S
C686 C687 1.392 . S
C686 C689 1.511 . S
C687 C683 1.376 . S
C687 C686 1.392 . S
C687 H699 0.929 . S
C688 C684 1.531 . S
C688 H700 0.960 . S
C688 H701 0.962 . S
C688 H702 0.960 . S
C689 C686 1.511 . S
C689 H703 0.961 . S
C689 H704 0.961 . S
C689 H705 0.961 . S
C690 C691 1.370 . S
C690 C692 1.363 . S
C690 H706 0.931 . S
C691 C690 1.370 . S
C691 C695 1.408 . S
C692 C690 1.363 . S
C692 C693 1.370 . S
C692 C696 1.524 . S
C693 C685 1.503 . S
C693 C692 1.370 . S
C693 C694 1.403 . S
C694 C693 1.403 . S
C694 C695 1.404 . S
C694 C697 1.539 . S
C695 C691 1.408 . S
C695 C694 1.404 . S
C695 H707 0.930 . S
C696 C692 1.524 . S
C696 H708 0.956 . S
C696 H709 0.961 . S
C696 H710 0.961 . S
C697 C694 1.539 . S
C697 H711 0.958 . S
C697 H712 0.961 . S
C697 H713 0.960 . S
H698 C682 0.931 . S
H699 C687 0.929 . S
H700 C688 0.960 . S
H701 C688 0.962 . S
H702 C688 0.960 . S
H703 C689 0.961 . S
H704 C689 0.961 . S
H705 C689 0.961 . S
H706 C690 0.931 . S
H707 C695 0.930 . S
H708 C696 0.956 . S
H709 C696 0.961 . S
H710 C696 0.961 . S
H711 C697 0.958 . S
H712 C697 0.961 . S
H713 C697 0.960 . S
C139 C18 1.041 1_565 S
C147 C135 1.044 . S
C171 C41 1.041 . S
C179 C20 1.044 . S
C203 C64 1.041 1_455 S
C211 C43 1.044 . S
C235 C66 1.039 . S
C243 C87 1.050 1_545 S
C267 C89 1.033 . S
C275 C110 1.049 . S
C299 C133 1.033 1_655 S
C307 C112 1.055 . S
C331 C16 1.563 . S
C339 C88 1.558 . S
C363 C39 1.570 . S
C371 C111 1.565 . S
C395 C134 1.557 . S
C403 C62 1.560 . S
C427 C85 1.536 . S
C435 C19 1.552 . S
C459 C42 1.569 . S
C467 C108 1.560 . S
C491 C131 1.567 . S
C499 C65 1.564 . S
C523 C17 1.265 . S
C531 C113 1.306 . S
C555 C136 1.304 . S
C563 C40 1.283 . S
C587 C21 1.279 . S
C595 C63 1.291 . S
C619 C86 1.253 . S
C627 C44 1.308 . S
C651 C67 1.309 . S
C659 C109 1.273 . S
C683 C90 1.315 . S
C691 C132 1.271 . S
