# Generated by pormake.
# Topology wiv, (6)-cn, num edge types: 1
# Building blocks:
#     Node 0, Type 0, BuildingBlock: VOLQOD_clean_sbu_1, # of connection points: 6
#     Node 1, Type 0, BuildingBlock: VOLQOD_clean_sbu_1, # of connection points: 6
#     Node 2, Type 0, BuildingBlock: VOLQOD_clean_sbu_1, # of connection points: 6
#     Node 3, Type 0, BuildingBlock: VOLQOD_clean_sbu_1, # of connection points: 6
#     Node 4, Type 0, BuildingBlock: VOLQOD_clean_sbu_1, # of connection points: 6
#     Node 5, Type 0, BuildingBlock: VOLQOD_clean_sbu_1, # of connection points: 6
#     Node 6, Type 0, BuildingBlock: VOLQOD_clean_sbu_1, # of connection points: 6
#     Node 7, Type 0, BuildingBlock: VOLQOD_clean_sbu_1, # of connection points: 6
#     Node 8, Type 0, BuildingBlock: VOLQOD_clean_sbu_1, # of connection points: 6
#     Node 9, Type 0, BuildingBlock: VOLQOD_clean_sbu_1, # of connection points: 6
#     Node 10, Type 0, BuildingBlock: VOLQOD_clean_sbu_1, # of connection points: 6
#     Node 11, Type 0, BuildingBlock: VOLQOD_clean_sbu_1, # of connection points: 6
#     Node 12, Type 0, BuildingBlock: VOLQOD_clean_sbu_1, # of connection points: 6
#     Node 13, Type 0, BuildingBlock: VOLQOD_clean_sbu_1, # of connection points: 6
#     Node 14, Type 0, BuildingBlock: VOLQOD_clean_sbu_1, # of connection points: 6
#     Node 15, Type 0, BuildingBlock: VOLQOD_clean_sbu_1, # of connection points: 6
#     Edge 16, Type (0, 0), BuildingBlock: AJUNOK_clean_linker_0, # of connection points: 2
#     Edge 17, Type (0, 0), BuildingBlock: AJUNOK_clean_linker_0, # of connection points: 2
#     Edge 18, Type (0, 0), BuildingBlock: AJUNOK_clean_linker_0, # of connection points: 2
#     Edge 19, Type (0, 0), BuildingBlock: AJUNOK_clean_linker_0, # of connection points: 2
#     Edge 20, Type (0, 0), BuildingBlock: AJUNOK_clean_linker_0, # of connection points: 2
#     Edge 21, Type (0, 0), BuildingBlock: AJUNOK_clean_linker_0, # of connection points: 2
#     Edge 22, Type (0, 0), BuildingBlock: AJUNOK_clean_linker_0, # of connection points: 2
#     Edge 23, Type (0, 0), BuildingBlock: AJUNOK_clean_linker_0, # of connection points: 2
#     Edge 24, Type (0, 0), BuildingBlock: AJUNOK_clean_linker_0, # of connection points: 2
#     Edge 25, Type (0, 0), BuildingBlock: AJUNOK_clean_linker_0, # of connection points: 2
#     Edge 26, Type (0, 0), BuildingBlock: AJUNOK_clean_linker_0, # of connection points: 2
#     Edge 27, Type (0, 0), BuildingBlock: AJUNOK_clean_linker_0, # of connection points: 2
#     Edge 28, Type (0, 0), BuildingBlock: AJUNOK_clean_linker_0, # of connection points: 2
#     Edge 29, Type (0, 0), BuildingBlock: AJUNOK_clean_linker_0, # of connection points: 2
#     Edge 30, Type (0, 0), BuildingBlock: AJUNOK_clean_linker_0, # of connection points: 2
#     Edge 31, Type (0, 0), BuildingBlock: AJUNOK_clean_linker_0, # of connection points: 2
#     Edge 32, Type (0, 0), BuildingBlock: AJUNOK_clean_linker_0, # of connection points: 2
#     Edge 33, Type (0, 0), BuildingBlock: AJUNOK_clean_linker_0, # of connection points: 2
#     Edge 34, Type (0, 0), BuildingBlock: AJUNOK_clean_linker_0, # of connection points: 2
#     Edge 35, Type (0, 0), BuildingBlock: AJUNOK_clean_linker_0, # of connection points: 2
#     Edge 36, Type (0, 0), BuildingBlock: AJUNOK_clean_linker_0, # of connection points: 2
#     Edge 37, Type (0, 0), BuildingBlock: AJUNOK_clean_linker_0, # of connection points: 2
#     Edge 38, Type (0, 0), BuildingBlock: AJUNOK_clean_linker_0, # of connection points: 2
#     Edge 39, Type (0, 0), BuildingBlock: AJUNOK_clean_linker_0, # of connection points: 2
#     Edge 40, Type (0, 0), BuildingBlock: AJUNOK_clean_linker_0, # of connection points: 2
#     Edge 41, Type (0, 0), BuildingBlock: AJUNOK_clean_linker_0, # of connection points: 2
#     Edge 42, Type (0, 0), BuildingBlock: AJUNOK_clean_linker_0, # of connection points: 2
#     Edge 43, Type (0, 0), BuildingBlock: AJUNOK_clean_linker_0, # of connection points: 2
#     Edge 44, Type (0, 0), BuildingBlock: AJUNOK_clean_linker_0, # of connection points: 2
#     Edge 45, Type (0, 0), BuildingBlock: AJUNOK_clean_linker_0, # of connection points: 2
#     Edge 46, Type (0, 0), BuildingBlock: AJUNOK_clean_linker_0, # of connection points: 2
#     Edge 47, Type (0, 0), BuildingBlock: AJUNOK_clean_linker_0, # of connection points: 2
#     Edge 48, Type (0, 0), BuildingBlock: AJUNOK_clean_linker_0, # of connection points: 2
#     Edge 49, Type (0, 0), BuildingBlock: AJUNOK_clean_linker_0, # of connection points: 2
#     Edge 50, Type (0, 0), BuildingBlock: AJUNOK_clean_linker_0, # of connection points: 2
#     Edge 51, Type (0, 0), BuildingBlock: AJUNOK_clean_linker_0, # of connection points: 2
#     Edge 52, Type (0, 0), BuildingBlock: AJUNOK_clean_linker_0, # of connection points: 2
#     Edge 53, Type (0, 0), BuildingBlock: AJUNOK_clean_linker_0, # of connection points: 2
#     Edge 54, Type (0, 0), BuildingBlock: AJUNOK_clean_linker_0, # of connection points: 2
#     Edge 55, Type (0, 0), BuildingBlock: AJUNOK_clean_linker_0, # of connection points: 2
#     Edge 56, Type (0, 0), BuildingBlock: AJUNOK_clean_linker_0, # of connection points: 2
#     Edge 57, Type (0, 0), BuildingBlock: AJUNOK_clean_linker_0, # of connection points: 2
#     Edge 58, Type (0, 0), BuildingBlock: AJUNOK_clean_linker_0, # of connection points: 2
#     Edge 59, Type (0, 0), BuildingBlock: AJUNOK_clean_linker_0, # of connection points: 2
#     Edge 60, Type (0, 0), BuildingBlock: AJUNOK_clean_linker_0, # of connection points: 2
#     Edge 61, Type (0, 0), BuildingBlock: AJUNOK_clean_linker_0, # of connection points: 2
#     Edge 62, Type (0, 0), BuildingBlock: AJUNOK_clean_linker_0, # of connection points: 2
#     Edge 63, Type (0, 0), BuildingBlock: AJUNOK_clean_linker_0, # of connection points: 2
# Relax obj value: 0.190
# Max RMSD: 0.161
# Mean RMSD: 0.159
data_MOF--net-wiv--node1-VOLQOD_clean_sbu_1--edge1-AJUNOK_clean_linker_0
_symmetry_space_group_name_H-M    P1
_symmetry_Int_Tables_number       1
_symmetry_cell_setting            triclinic
loop_
_symmetry_equiv_pos_as_xyz
'x, y, z'
_cell_length_a     49.715479
_cell_length_b     49.660429
_cell_length_c     12.499997
_cell_angle_alpha  90.130434
_cell_angle_beta   90.35064
_cell_angle_gamma 90.136985
loop_
_atom_site_label
_atom_site_type_symbol
_atom_site_fract_x
_atom_site_fract_y
_atom_site_fract_z
_atom_type_partial_charge
O0 O 0.36482 0.12934 0.88373 0.0
Zn1 Zn 0.37376 0.13663 0.03351 0.0
O2 O 0.35063 0.1137 0.11576 0.0
Zn3 Zn 0.32056 0.13456 0.16933 0.0
Zn4 Zn 0.33681 0.0837 0.03327 0.0
Zn5 Zn 0.37159 0.09946 0.22815 0.0
O6 O 0.31589 0.12746 0.32791 0.0
O7 O 0.35831 0.11487 0.35945 0.0
O8 O 0.36493 0.17537 0.05589 0.0
O9 O 0.32814 0.17425 0.15605 0.0
O10 O 0.28788 0.12705 0.07586 0.0
O11 O 0.29725 0.08614 0.01499 0.0
O12 O 0.34517 0.04745 0.09885 0.0
O13 O 0.41334 0.13184 0.06716 0.0
O14 O 0.36819 0.05981 0.24329 0.0
O15 O 0.41019 0.10801 0.216 0.0
C16 C 0.35467 0.1095 0.83338 0.0
C17 C 0.33554 0.12289 0.3914 0.0
C18 C 0.28154 0.1062 0.0215 0.0
C19 C 0.34629 0.18719 0.10649 0.0
C20 C 0.35729 0.04167 0.18594 0.0
C21 C 0.42425 0.12045 0.14761 0.0
O22 O 0.34745 0.08797 0.88054 0.0
O23 O 0.08479 0.61276 0.07702 0.0
Zn24 Zn 0.08566 0.60435 0.91569 0.0
O25 O 0.10991 0.63031 0.85102 0.0
Zn26 Zn 0.08993 0.65986 0.78858 0.0
Zn27 Zn 0.13117 0.64177 0.96857 0.0
Zn28 Zn 0.13498 0.61478 0.75575 0.0
O29 O 0.10004 0.66404 0.63027 0.0
O30 O 0.12564 0.62743 0.61237 0.0
O31 O 0.04848 0.60895 0.85204 0.0
O32 O 0.05138 0.6489 0.774 0.0
O33 O 0.09123 0.69243 0.89179 0.0
O34 O 0.11567 0.67514 0.02477 0.0
O35 O 0.1698 0.64738 0.93804 0.0
O36 O 0.09851 0.56652 0.87693 0.0
O37 O 0.17368 0.62485 0.78619 0.0
O38 O 0.13053 0.57508 0.75761 0.0
C39 C 0.1065 0.6153 0.13097 0.0
C40 C 0.11275 0.64706 0.57233 0.0
C41 C 0.10082 0.69367 -0.01276 0.0
C42 C 0.03793 0.628 0.79801 0.0
C43 C 0.18412 0.63837 0.86249 0.0
C44 C 0.11588 0.55852 0.80874 0.0
O45 O 0.12872 0.61472 0.08224 0.0
O46 O 0.60711 0.8563 0.87261 0.0
Zn47 Zn 0.59915 0.85239 0.02807 0.0
O48 O 0.62464 0.87547 0.10203 0.0
Zn49 Zn 0.65519 0.8541 0.15269 0.0
Zn50 Zn 0.63685 0.90402 0.00986 0.0
Zn51 Zn 0.60625 0.89259 0.21554 0.0
O52 O 0.65888 0.85783 0.31496 0.0
O53 O 0.61979 0.87816 0.3484 0.0
O54 O 0.60651 0.81368 0.06096 0.0
O55 O 0.64796 0.81466 0.1277 0.0
O56 O 0.68887 0.86352 0.06776 0.0
O57 O 0.67614 0.90111 -0.01388 0.0
O58 O 0.62918 0.94142 0.06494 0.0
O59 O 0.56013 0.85982 0.0689 0.0
O60 O 0.61107 0.93221 0.22175 0.0
O61 O 0.56737 0.88583 0.21051 0.0
C62 C 0.61656 0.87575 0.81825 0.0
C63 C 0.64087 0.86618 0.37936 0.0
C64 C 0.69383 0.8834 0.00628 0.0
C65 C 0.62734 0.80163 0.09563 0.0
C66 C 0.61976 0.94912 0.15438 0.0
C67 C 0.55141 0.87332 0.14845 0.0
O68 O 0.62345 0.8979 0.86204 0.0
O69 O 0.89787 0.3679 0.05995 0.0
Zn70 Zn 0.89756 0.37634 0.89903 0.0
O71 O 0.87338 0.35069 0.83034 0.0
Zn72 Zn 0.89314 0.32138 0.7665 0.0
Zn73 Zn 0.85231 0.33823 0.94493 0.0
Zn74 Zn 0.84855 0.36707 0.73517 0.0
O75 O 0.88296 0.31795 0.60908 0.0
O76 O 0.8578 0.35493 0.59074 0.0
O77 O 0.93462 0.37176 0.83746 0.0
O78 O 0.93168 0.3323 0.75443 0.0
O79 O 0.89134 0.28787 0.86294 0.0
O80 O 0.86825 0.30458 0.00032 0.0
O81 O 0.81373 0.33278 0.9114 0.0
O82 O 0.8853 0.41435 0.8622 0.0
O83 O 0.80985 0.35743 0.76488 0.0
O84 O 0.85328 0.4068 0.74058 0.0
C85 C 0.87579 0.36507 0.11003 0.0
C86 C 0.87055 0.33517 0.55131 0.0
C87 C 0.8825 0.28615 0.95877 0.0
C88 C 0.94509 0.35308 0.78137 0.0
C89 C 0.79939 0.34311 0.8381 0.0
C90 C 0.86811 0.42295 0.79393 0.0
O91 O 0.85399 0.3656 0.05776 0.0
O92 O 0.37124 0.35843 0.33456 0.0
Zn93 Zn 0.37892 0.35254 0.1809 0.0
O94 O 0.35525 0.37656 0.10368 0.0
Zn95 Zn 0.32422 0.35675 0.04693 0.0
Zn96 Zn 0.34345 0.40532 0.19649 0.0
Zn97 Zn 0.37542 0.39301 -0.00635 0.0
O98 O 0.3198 0.36385 0.88767 0.0
O99 O 0.36013 0.38213 0.85793 0.0
O100 O 0.36863 0.31424 0.154 0.0
O101 O 0.33075 0.31692 0.05915 0.0
O102 O 0.29113 0.36475 0.13734 0.0
O103 O 0.30506 0.39992 0.23369 0.0
O104 O 0.34868 0.44251 0.13368 0.0
O105 O 0.41838 0.35686 0.13938 0.0
O106 O 0.37359 0.43276 -0.00707 0.0
O107 O 0.41351 0.38262 -0.00379 0.0
C108 C 0.36434 0.37926 0.38678 0.0
C109 C 0.33794 0.37262 0.82489 0.0
C110 C 0.28716 0.38276 0.20847 0.0
C111 C 0.34907 0.30318 0.10475 0.0
C112 C 0.36167 0.44985 0.05114 0.0
C113 C 0.42828 0.36889 0.05846 0.0
O114 O 0.3604 0.40169 0.34016 0.0
O115 O 0.39748 0.61532 0.64807 0.0
Zn116 Zn 0.39749 0.60699 0.80874 0.0
O117 O 0.37444 0.63376 0.87624 0.0
Zn118 Zn 0.39557 0.66245 0.9401 0.0
Zn119 Zn 0.35248 0.64676 0.76332 0.0
Zn120 Zn 0.34996 0.61823 0.97312 0.0
O121 O 0.38648 0.66616 0.09846 0.0
O122 O 0.36002 0.63006 0.1161 0.0
O123 O 0.43518 0.61076 0.86795 0.0
O124 O 0.43393 0.65062 0.94843 0.0
O125 O 0.39368 0.69619 0.84524 0.0
O126 O 0.36822 0.68084 0.71053 0.0
O127 O 0.3137 0.65178 0.79794 0.0
O128 O 0.38414 0.56921 0.84728 0.0
O129 O 0.31151 0.62833 0.94779 0.0
O130 O 0.35319 0.57878 0.96897 0.0
C131 C 0.37558 0.61937 0.59712 0.0
C132 C 0.3735 0.64937 0.1559 0.0
C133 C 0.38352 0.69873 0.75137 0.0
C134 C 0.4466 0.62947 0.92164 0.0
C135 C 0.30025 0.64217 0.87494 0.0
C136 C 0.3668 0.56173 0.91647 0.0
O137 O 0.35374 0.62 0.64818 0.0
O138 O 0.61819 0.62731 0.32251 0.0
Zn139 Zn 0.60765 0.63235 0.17033 0.0
O140 O 0.63204 0.61119 0.08683 0.0
Zn141 Zn 0.66198 0.63375 0.04215 0.0
Zn142 Zn 0.64709 0.58194 0.16792 0.0
Zn143 Zn 0.61219 0.59623 0.97171 0.0
O144 O 0.66797 0.62834 0.88218 0.0
O145 O 0.62787 0.61032 0.84167 0.0
O146 O 0.613 0.67136 0.14003 0.0
O147 O 0.65267 0.67305 0.06024 0.0
O148 O 0.69405 0.62597 0.14007 0.0
O149 O 0.68708 0.58252 0.1662 0.0
O150 O 0.63558 0.54537 0.11475 0.0
O151 O 0.56846 0.62484 0.13561 0.0
O152 O 0.61458 0.55618 0.96399 0.0
O153 O 0.57347 0.60583 0.97635 0.0
C154 C 0.63169 0.60926 0.37105 0.0
C155 C 0.65006 0.62086 0.81452 0.0
C156 C 0.70149 0.60344 0.17905 0.0
C157 C 0.63201 0.68472 0.09805 0.0
C158 C 0.62392 0.53859 0.02768 0.0
C159 C 0.55853 0.61589 0.04812 0.0
O160 O 0.64081 0.58869 0.32255 0.0
O161 O 0.58473 0.37226 0.63215 0.0
Zn162 Zn 0.58571 0.38055 0.79377 0.0
O163 O 0.60973 0.35429 0.85907 0.0
Zn164 Zn 0.59005 0.32477 0.92173 0.0
Zn165 Zn 0.63076 0.34252 0.74275 0.0
Zn166 Zn 0.63447 0.36965 0.9567 0.0
O167 O 0.59967 0.321 0.08007 0.0
O168 O 0.62387 0.35862 0.10082 0.0
O169 O 0.54878 0.3758 0.85767 0.0
O170 O 0.5516 0.33549 0.93333 0.0
O171 O 0.59191 0.2916 0.82352 0.0
O172 O 0.61467 0.30896 0.6864 0.0
O173 O 0.66941 0.33696 0.77613 0.0
O174 O 0.59899 0.41845 0.83211 0.0
O175 O 0.67276 0.35841 0.93112 0.0
O176 O 0.63146 0.40923 0.9495 0.0
C177 C 0.60653 0.36929 0.58023 0.0
C178 C 0.61116 0.33871 0.13916 0.0
C179 C 0.60053 0.29032 0.72727 0.0
C180 C 0.53828 0.35654 0.91057 0.0
C181 C 0.68336 0.34518 0.85505 0.0
C182 C 0.61714 0.42614 0.89867 0.0
O183 O 0.62863 0.36997 0.6306 0.0
O184 O 0.86751 0.62808 0.38589 0.0
Zn185 Zn 0.87671 0.63293 0.53993 0.0
O186 O 0.85309 0.60894 0.61594 0.0
Zn187 Zn 0.82159 0.62877 0.66571 0.0
Zn188 Zn 0.84197 0.57942 0.52454 0.0
Zn189 Zn 0.87321 0.5939 0.72983 0.0
O190 O 0.81672 0.62241 0.82609 0.0
O191 O 0.85746 0.60573 0.86285 0.0
O192 O 0.868 0.67122 0.57438 0.0
O193 O 0.82782 0.66869 0.65007 0.0
O194 O 0.78918 0.61963 0.57083 0.0
O195 O 0.80286 0.58196 0.4925 0.0
O196 O 0.85028 0.54243 0.58537 0.0
O197 O 0.91631 0.62752 0.57744 0.0
O198 O 0.8717 0.5541 0.73383 0.0
O199 O 0.91157 0.60432 0.72739 0.0
C200 C 0.86002 0.60752 0.33255 0.0
C201 C 0.83488 0.61482 0.89216 0.0
C202 C 0.78503 0.59985 0.50729 0.0
C203 C 0.84744 0.68248 0.61464 0.0
C204 C 0.86221 0.53608 0.67227 0.0
C205 C 0.92635 0.61666 0.66104 0.0
O206 O 0.85636 0.58481 0.3776 0.0
O207 O 0.58422 0.11725 0.54062 0.0
Zn208 Zn 0.58495 0.10824 0.37981 0.0
O209 O 0.60856 0.13441 0.31262 0.0
Zn210 Zn 0.58828 0.16401 0.25237 0.0
Zn211 Zn 0.63069 0.14562 0.42822 0.0
Zn212 Zn 0.6323 0.11901 0.21261 0.0
O213 O 0.59734 0.16874 0.09343 0.0
O214 O 0.6222 0.13183 0.06997 0.0
O215 O 0.54779 0.11259 0.31837 0.0
O216 O 0.54977 0.1529 0.24244 0.0
O217 O 0.59054 0.1966 0.35438 0.0
O218 O 0.61651 0.17968 0.48352 0.0
O219 O 0.66921 0.14959 0.39475 0.0
O220 O 0.59787 0.07032 0.3416 0.0
O221 O 0.67111 0.12824 0.23943 0.0
O222 O 0.62793 0.07954 0.21575 0.0
C223 C 0.60605 0.12036 0.59322 0.0
C224 C 0.60941 0.15189 0.03299 0.0
C225 C 0.60136 0.19816 0.44757 0.0
C226 C 0.53675 0.13173 0.26658 0.0
C227 C 0.68253 0.14081 0.31597 0.0
C228 C 0.61445 0.06264 0.26979 0.0
O229 O 0.62808 0.11906 0.54366 0.0
O230 O 0.11481 0.35646 0.37349 0.0
Zn231 Zn 0.10565 0.3506 0.52626 0.0
O232 O 0.12922 0.37408 0.60618 0.0
Zn233 Zn 0.16062 0.35431 0.65834 0.0
Zn234 Zn 0.14014 0.40397 0.51752 0.0
Zn235 Zn 0.109 0.38836 0.72012 0.0
O236 O 0.16526 0.36088 0.81923 0.0
O237 O 0.1236 0.37512 0.85344 0.0
O238 O 0.11457 0.31231 0.55768 0.0
O239 O 0.15424 0.31425 0.63998 0.0
O240 O 0.19332 0.36396 0.56759 0.0
O241 O 0.17883 0.40037 0.48222 0.0
O242 O 0.13323 0.44058 0.58538 0.0
O243 O 0.066 0.3556 0.56177 0.0
O244 O 0.11152 0.42799 0.73077 0.0
O245 O 0.07066 0.37868 0.71249 0.0
C246 C 0.12165 0.37758 0.32287 0.0
C247 C 0.14647 0.36695 0.88421 0.0
C248 C 0.197 0.383 0.5006 0.0
C249 C 0.13475 0.30074 0.60029 0.0
C250 C 0.12163 0.44635 0.67326 0.0
C251 C 0.05591 0.36643 0.64497 0.0
O252 O 0.12451 0.40009 0.3708 0.0
O253 O 0.39679 0.87795 0.59455 0.0
Zn254 Zn 0.39539 0.88587 0.43339 0.0
O255 O 0.37162 0.8592 0.3693 0.0
Zn256 Zn 0.3915 0.83058 0.30155 0.0
Zn257 Zn 0.35146 0.84626 0.48546 0.0
Zn258 Zn 0.34557 0.87454 0.27867 0.0
O259 O 0.38048 0.82742 0.14378 0.0
O260 O 0.35503 0.86424 0.13442 0.0
O261 O 0.4321 0.88209 0.36722 0.0
O262 O 0.42972 0.84229 0.28667 0.0
O263 O 0.39073 0.79708 0.39811 0.0
O264 O 0.36866 0.81318 0.53916 0.0
O265 O 0.3129 0.8387 0.45461 0.0
O266 O 0.38161 0.92357 0.39691 0.0
O267 O 0.30799 0.86178 0.30475 0.0
O268 O 0.34757 0.91416 0.28683 0.0
C269 C 0.37506 0.87512 0.64702 0.0
C270 C 0.36771 0.84519 0.0898 0.0
C271 C 0.38263 0.79492 0.49494 0.0
C272 C 0.44276 0.86351 0.31122 0.0
C273 C 0.2983 0.84708 0.37816 0.0
C274 C 0.36252 0.93115 0.33488 0.0
O275 O 0.35287 0.87381 0.59724 0.0
O276 O 0.8682 0.85477 0.85025 0.0
Zn277 Zn 0.87684 0.84931 0.69803 0.0
O278 O 0.85321 0.87301 0.62047 0.0
Zn279 Zn 0.82196 0.85288 0.56881 0.0
Zn280 Zn 0.84184 0.90313 0.70807 0.0
Zn281 Zn 0.87358 0.88698 0.50665 0.0
O282 O 0.81754 0.85834 0.40775 0.0
O283 O 0.85915 0.87297 0.37437 0.0
O284 O 0.86806 0.81089 0.66598 0.0
O285 O 0.82782 0.813 0.58879 0.0
O286 O 0.78935 0.86282 0.6578 0.0
O287 O 0.8022 0.90163 0.73089 0.0
O288 O 0.85155 0.93979 0.64441 0.0
O289 O 0.91641 0.85455 0.66449 0.0
O290 O 0.87135 0.92644 0.49549 0.0
O291 O 0.912 0.87773 0.51458 0.0
C292 C 0.85975 0.87478 0.90386 0.0
C293 C 0.8365 0.86416 0.34331 0.0
C294 C 0.7846 0.88336 0.71625 0.0
C295 C 0.84743 0.79941 0.626 0.0
C296 C 0.86279 0.94513 0.55528 0.0
C297 C 0.92665 0.86559 0.58225 0.0
O298 O 0.85406 0.89718 0.85936 0.0
O299 O 0.89569 0.10948 0.12722 0.0
Zn300 Zn 0.89607 0.10195 0.29013 0.0
O301 O 0.87198 0.12777 0.35715 0.0
Zn302 Zn 0.89126 0.15735 0.42288 0.0
Zn303 Zn 0.85135 0.13995 0.24058 0.0
Zn304 Zn 0.84635 0.11181 0.44849 0.0
O305 O 0.88079 0.16074 0.58118 0.0
O306 O 0.8544 0.12449 0.59297 0.0
O307 O 0.93337 0.10767 0.35071 0.0
O308 O 0.92969 0.14674 0.43606 0.0
O309 O 0.88967 0.19045 0.32341 0.0
O310 O 0.8679 0.17282 0.1835 0.0
O311 O 0.81318 0.14696 0.27058 0.0
O312 O 0.88433 0.06396 0.33403 0.0
O313 O 0.80794 0.12134 0.41342 0.0
O314 O 0.85132 0.07231 0.44882 0.0
C315 C 0.87334 0.11185 0.07745 0.0
C316 C 0.86724 0.14382 0.63615 0.0
C317 C 0.88154 0.19174 0.22594 0.0
C318 C 0.94351 0.12646 0.40794 0.0
C319 C 0.79824 0.13641 0.34071 0.0
C320 C 0.86682 0.05585 0.40153 0.0
O321 O 0.85193 0.11185 0.13107 0.0
O322 O 0.11196 0.12939 0.82694 0.0
Zn323 Zn 0.10357 0.1339 0.67195 0.0
O324 O 0.12752 0.1099 0.59726 0.0
Zn325 Zn 0.15852 0.13032 0.54556 0.0
Zn326 Zn 0.13899 0.08153 0.6921 0.0
Zn327 Zn 0.10792 0.09261 0.4859 0.0
O328 O 0.16255 0.1245 0.38488 0.0
O329 O 0.12332 0.10395 0.35171 0.0
O330 O 0.11219 0.1724 0.63974 0.0
O331 O 0.15245 0.1701 0.56478 0.0
O332 O 0.1915 0.12181 0.63651 0.0
O333 O 0.17743 0.08638 0.72898 0.0
O334 O 0.13343 0.04407 0.63372 0.0
O335 O 0.06437 0.12783 0.63127 0.0
O336 O 0.1104 0.05261 0.48603 0.0
O337 O 0.06952 0.10243 0.48683 0.0
C338 C 0.11875 0.10869 0.88028 0.0
C339 C 0.14495 0.11484 0.3205 0.0
C340 C 0.19542 0.10365 0.70699 0.0
C341 C 0.13291 0.18377 0.60116 0.0
C342 C 0.12152 0.03599 0.5492 0.0
C343 C 0.05457 0.1157 0.54974 0.0
O344 O 0.12226 0.08603 0.83468 0.0
O345 O 0.08421 0.86836 0.17103 0.0
Zn346 Zn 0.08524 0.87635 0.33196 0.0
O347 O 0.109 0.85003 0.39741 0.0
Zn348 Zn 0.08896 0.8208 0.46088 0.0
Zn349 Zn 0.12975 0.83754 0.28187 0.0
Zn350 Zn 0.13407 0.8658 0.4931 0.0
O351 O 0.09879 0.81748 0.61893 0.0
O352 O 0.12444 0.85423 0.63695 0.0
O353 O 0.04829 0.87203 0.39471 0.0
O354 O 0.0506 0.83195 0.47245 0.0
O355 O 0.09032 0.78722 0.36382 0.0
O356 O 0.11329 0.80407 0.22643 0.0
O357 O 0.16838 0.83172 0.3153 0.0
O358 O 0.09842 0.9142 0.36929 0.0
O359 O 0.17234 0.85529 0.46499 0.0
O360 O 0.13071 0.90549 0.48783 0.0
C361 C 0.10586 0.86529 0.1183 0.0
C362 C 0.11135 0.83474 0.67666 0.0
C363 C 0.09892 0.78566 0.26759 0.0
C364 C 0.03754 0.85306 0.44829 0.0
C365 C 0.1827 0.84126 0.39074 0.0
C366 C 0.11627 0.92219 0.43636 0.0
O367 O 0.12807 0.86459 0.16809 0.0
C368 C 0.38011 0.97847 0.32977 0.0
C369 C 0.35941 0.95998 0.30639 0.0
C370 C 0.37925 0.00486 0.29034 0.0
C371 C 0.35783 0.01365 0.22513 0.0
H372 H 0.39751 0.97237 0.3762 0.0
H373 H 0.3958 0.01832 0.3093 0.0
S374 S 0.29697 0.9744 0.15123 0.0
N375 N 0.31548 0.95333 0.22199 0.0
N376 N 0.31436 0.00271 0.14665 0.0
C377 C 0.33657 -0.00424 0.20418 0.0
C378 C 0.33721 0.96902 0.24534 0.0
C379 C 0.96677 0.60161 0.76334 0.0
C380 C 0.9554 0.61907 0.68682 0.0
C381 C -0.00662 0.60462 0.79819 0.0
C382 C 0.0098 0.62535 0.7587 0.0
H383 H 0.95493 0.58551 0.79785 0.0
H384 H 0.00096 0.59071 0.85778 0.0
S385 S 0.99011 0.67596 0.55378 0.0
N386 N 0.96286 0.65739 0.56999 0.0
N387 N 0.01298 0.6632 0.6353 0.0
C388 C -0.00111 0.64271 0.68036 0.0
C389 C 0.97172 0.63949 0.64429 0.0
C390 C 0.60263 0.98703 0.26681 0.0
C391 C 0.61906 0.97809 0.18244 0.0
C392 C 0.60161 0.01425 0.29596 0.0
C393 C 0.61712 0.03365 0.24241 0.0
H394 H 0.59013 0.97293 0.31021 0.0
H395 H 0.58832 0.0201 0.36026 0.0
S396 S 0.66464 0.02035 0.0191 0.0
N397 N 0.65189 0.99058 0.04805 0.0
N398 N 0.65029 0.04164 0.10245 0.0
C399 C 0.63407 0.02484 0.15892 0.0
C400 C 0.63493 -0.00287 0.12893 0.0
C401 C 0.98968 0.37612 0.78745 0.0
C402 C 0.97299 0.35625 0.74218 0.0
C403 C 0.01605 0.37975 0.75237 0.0
C404 C 0.02693 0.36374 0.6701 0.0
H405 H 0.98251 0.38884 0.85172 0.0
H406 H 0.02811 0.3951 0.7916 0.0
S407 S 0.99097 0.3101 0.51913 0.0
N408 N 0.9687 0.32122 0.60603 0.0
N409 N 0.0185 0.32802 0.5407 0.0
C410 C 0.01025 0.3443 0.62159 0.0
C411 C 0.98329 0.34051 0.65767 0.0
C412 C 0.38217 0.48733 0.9462 0.0
C413 C 0.3623 0.47842 0.01802 0.0
C414 C 0.38298 0.51404 0.9107 0.0
C415 C 0.36387 0.53291 0.9452 0.0
H416 H 0.3975 0.47363 0.91793 0.0
H417 H 0.39907 0.52001 0.85772 0.0
S418 S 0.30619 0.51916 0.12593 0.0
N419 N 0.32218 0.49017 0.11769 0.0
N420 N 0.32333 0.54026 0.05057 0.0
C421 C 0.34337 0.52403 0.01475 0.0
C422 C 0.34272 0.49687 0.05146 0.0
C423 C 0.5179 0.60289 0.94167 0.0
C424 C 0.52943 0.61851 0.02435 0.0
C425 C 0.49115 0.60648 0.90951 0.0
C426 C 0.47485 0.62605 0.95789 0.0
H427 H 0.52972 0.58785 0.90036 0.0
H428 H 0.48337 0.59406 0.84498 0.0
S429 S 0.49495 0.67157 0.1813 0.0
N430 N 0.52221 0.65379 0.15625 0.0
N431 N 0.47187 0.66062 0.09614 0.0
C432 C 0.48593 0.64152 0.04221 0.0
C433 C 0.51318 0.63769 0.07552 0.0
C434 C 0.60268 0.50103 0.92324 0.0
C435 C 0.62259 0.50993 -0.00419 0.0
C436 C 0.60146 0.4741 0.88952 0.0
C437 C 0.6203 0.45509 0.92626 0.0
H438 H 0.58765 0.51491 0.89324 0.0
H439 H 0.58534 0.4681 0.83584 0.0
S440 S 0.67818 0.469 0.10895 0.0
N441 N 0.66255 0.49813 0.09811 0.0
N442 N 0.66073 0.44775 0.03415 0.0
C443 C 0.64089 0.46404 -0.00366 0.0
C444 C 0.64189 0.49135 0.03143 0.0
C445 C 0.4678 0.38326 0.95093 0.0
C446 C 0.45703 0.36614 0.02979 0.0
C447 C 0.49395 0.37994 0.91303 0.0
C448 C 0.51054 0.35928 0.95193 0.0
H449 H 0.45584 0.39932 0.91673 0.0
H450 H 0.50105 0.39356 0.85176 0.0
S451 S 0.49275 0.30989 0.16362 0.0
N452 N 0.46543 0.32838 0.14879 0.0
N453 N 0.51481 0.32212 0.07824 0.0
C454 C 0.50033 0.34233 0.03281 0.0
C455 C 0.47359 0.34581 0.07177 0.0
C456 C 0.85093 0.46052 0.67969 0.0
C457 C 0.86641 0.45211 0.76845 0.0
C458 C 0.84997 0.48754 0.6486 0.0
C459 C 0.8643 0.50744 0.70518 0.0
H460 H 0.83961 0.44608 0.63234 0.0
H461 H 0.83772 0.49281 0.57982 0.0
S462 S 0.90764 0.49629 0.9448 0.0
N463 N 0.89623 0.46605 0.91336 0.0
N464 N 0.89446 0.51688 0.85545 0.0
C465 C 0.87976 0.49941 0.79477 0.0
C466 C 0.88079 0.47179 0.82625 0.0
C467 C 0.49251 0.10808 0.27249 0.0
C468 C 0.50843 0.12893 0.23083 0.0
C469 C 0.46562 0.10506 0.24188 0.0
C470 C 0.4535 0.12266 0.16783 0.0
H471 H 0.50068 0.09415 0.33071 0.0
H472 H 0.45415 0.08893 0.27804 0.0
S473 S 0.48682 0.17955 0.02923 0.0
N474 N 0.51049 0.16675 0.10697 0.0
N475 N 0.45975 0.16103 0.04992 0.0
C476 C 0.46935 0.1431 0.12269 0.0
C477 C 0.49682 0.14629 0.15429 0.0
C478 C 0.12949 0.52235 0.68129 0.0
C479 C 0.11784 0.52963 0.77977 0.0
C480 C 0.13058 0.4955 0.64763 0.0
C481 C 0.1202 0.47468 0.71115 0.0
H482 H 0.13747 0.53757 0.62819 0.0
H483 H 0.13954 0.49113 0.57075 0.0
S484 S 0.08906 0.48279 -0.02048 0.0
N485 N 0.09662 0.51376 0.94246 0.0
N486 N 0.09879 0.46316 0.88041 0.0
C487 C 0.1089 0.4816 0.81108 0.0
C488 C 0.10768 0.50906 0.845 0.0
C489 C 0.50704 0.84974 0.15707 0.0
C490 C 0.5227 0.87271 0.17806 0.0
C491 C 0.48131 0.84696 0.20084 0.0
C492 C 0.47018 0.86712 0.26693 0.0
H493 H 0.51512 0.83328 0.11021 0.0
H494 H 0.47023 0.82864 0.18354 0.0
S495 S 0.50219 0.93262 0.33598 0.0
N496 N 0.52462 0.91697 0.26176 0.0
N497 N 0.47636 0.91181 0.34409 0.0
C498 C 0.4853 0.89072 0.28471 0.0
C499 C 0.51148 0.8935 0.24016 0.0
C500 C 0.84918 -0.00644 0.56288 0.0
C501 C 0.86482 0.97327 0.51615 0.0
C502 C 0.84955 0.01988 0.52317 0.0
C503 C 0.86574 0.02719 0.43536 0.0
H504 H 0.83623 0.98907 0.62995 0.0
H505 H 0.83713 0.03467 0.56302 0.0
S506 S 0.91089 0.98157 0.28481 0.0
N507 N 0.89731 0.96226 0.37727 0.0
N508 N 0.89794 0.01178 0.30318 0.0
C509 C 0.88157 0.0071 0.38788 0.0
C510 C 0.88115 0.98019 0.42813 0.0
C511 C 0.01518 0.1019 0.4379 0.0
C512 C 0.02567 0.11796 0.52152 0.0
C513 C 0.98871 0.10484 0.40186 0.0
C514 C 0.97154 0.12404 0.4475 0.0
H515 H 0.02758 0.087 0.39857 0.0
H516 H 0.9818 0.09209 0.33679 0.0
S517 S 0.98847 0.17014 0.67319 0.0
N518 N 0.0164 0.1531 0.65201 0.0
N519 N 0.96648 0.15861 0.5848 0.0
C520 C 0.98151 0.13991 0.53291 0.0
C521 C 0.00856 0.13682 0.56994 0.0
C522 C 0.10207 0.97024 0.41305 0.0
C523 C 0.11911 0.95129 0.46213 0.0
C524 C 0.10304 -0.0025 0.44187 0.0
C525 C 0.12094 0.00696 0.52132 0.0
H526 H 0.0876 0.96399 0.35292 0.0
H527 H 0.08932 0.01122 0.40203 0.0
S528 S 0.17089 0.96602 0.67083 0.0
N529 N 0.15533 0.94429 0.59181 0.0
N530 N 0.15686 -0.00458 0.64577 0.0
C531 C 0.1384 0.98837 0.57002 0.0
C532 C 0.13756 0.96062 0.54027 0.0
C533 C -0.00665 0.87666 0.44546 0.0
C534 C 0.00967 0.85616 0.48751 0.0
C535 C 0.96692 0.88006 0.48 0.0
C536 C 0.95566 0.86321 0.55854 0.0
H537 H 0.00084 0.89 0.38395 0.0
H538 H 0.9551 0.89587 0.44322 0.0
S539 S 0.99053 0.80769 0.70054 0.0
N540 N 0.01316 0.81958 0.61676 0.0
N541 N 0.96331 0.82608 0.68147 0.0
C542 C 0.97199 0.8432 0.60425 0.0
C543 C -0.00102 0.83959 0.56855 0.0
C544 C 0.35062 0.23109 0.20002 0.0
C545 C 0.34558 0.21662 0.10552 0.0
C546 C 0.35184 0.25926 0.19885 0.0
C547 C 0.34729 0.27368 0.10373 0.0
H548 H 0.35428 0.22055 0.2745 0.0
H549 H 0.35619 0.26985 0.27289 0.0
S550 S 0.33266 0.24481 0.83605 0.0
N551 N 0.33602 0.21834 0.91491 0.0
N552 N 0.33717 0.27149 0.91345 0.0
C553 C 0.34161 0.25938 0.00932 0.0
C554 C 0.34107 0.23072 0.01003 0.0
C555 C 0.25673 0.64417 0.77577 0.0
C556 C 0.27073 0.64461 0.87389 0.0
C557 C 0.22861 0.64265 0.77257 0.0
C558 C 0.21355 0.64216 0.86733 0.0
H559 H 0.26759 0.64377 0.70088 0.0
H560 H 0.21862 0.64148 0.69539 0.0
S561 S 0.24074 0.64504 0.14464 0.0
N562 N 0.2676 0.64579 0.06773 0.0
N563 N 0.2147 0.64358 0.06218 0.0
C564 C 0.22731 0.64384 0.96596 0.0
C565 C 0.25594 0.64488 0.96912 0.0
C566 C 0.65267 0.75825 0.09299 0.0
C567 C 0.62789 0.77185 0.09637 0.0
C568 C 0.65381 0.73007 0.09161 0.0
C569 C 0.63022 0.71443 0.09541 0.0
H570 H 0.67139 0.76943 0.09022 0.0
H571 H 0.67335 0.72051 0.08924 0.0
S572 S 0.56019 0.74019 0.10496 0.0
N573 N 0.57915 0.76752 0.10299 0.0
N574 N 0.58128 0.71459 0.10157 0.0
C575 C 0.60528 0.72776 0.09895 0.0
C576 C 0.60411 0.75645 0.09903 0.0
C577 C 0.75432 0.34181 0.74974 0.0
C578 C 0.76989 0.34051 0.84372 0.0
C579 C 0.72621 0.34199 0.75413 0.0
C580 C 0.71274 0.34154 0.8528 0.0
H581 H 0.76393 0.34311 0.67234 0.0
H582 H 0.715 0.34365 0.67982 0.0
S583 S 0.74414 0.33675 0.1217 0.0
N584 N 0.76975 0.33737 0.03825 0.0
N585 N 0.71684 0.33838 0.04611 0.0
C586 C 0.728 0.33949 0.94718 0.0
C587 C 0.75661 0.33877 0.94272 0.0
C588 C 0.87076 0.72693 0.62026 0.0
C589 C 0.84656 0.71221 0.6193 0.0
C590 C 0.87075 0.75507 0.62291 0.0
C591 C 0.84654 0.76966 0.62285 0.0
H592 H 0.88995 0.71664 0.61978 0.0
H593 H 0.88994 0.76547 0.62379 0.0
S594 S 0.77762 0.74076 0.62035 0.0
N595 N 0.79765 0.71429 0.61881 0.0
N596 N 0.79764 0.76733 0.62235 0.0
C597 C 0.82214 0.75525 0.62147 0.0
C598 C 0.82215 0.7265 0.62031 0.0
C599 C 0.75329 0.13952 0.42578 0.0
C600 C 0.76898 0.14018 0.33288 0.0
C601 C 0.72526 0.14105 0.41951 0.0
C602 C 0.71201 0.14263 0.31995 0.0
H603 H 0.7627 0.13751 0.50377 0.0
H604 H 0.71388 0.13986 0.49303 0.0
S605 S 0.74394 0.14617 0.05338 0.0
N606 N 0.76936 0.14379 0.13847 0.0
N607 N 0.71649 0.14598 0.12705 0.0
C608 C 0.72744 0.14394 0.22662 0.0
C609 C 0.75601 0.14292 0.23301 0.0
C610 C 0.11079 0.25661 0.59647 0.0
C611 C 0.13521 0.27096 0.60268 0.0
C612 C 0.11032 0.22846 0.59625 0.0
C613 C 0.13425 0.2135 0.60032 0.0
H614 H 0.09178 0.2672 0.59252 0.0
H615 H 0.091 0.21836 0.59171 0.0
S616 S 0.20355 0.24122 0.61806 0.0
N617 N 0.184 0.26804 0.61411 0.0
N618 N 0.18311 0.21499 0.61224 0.0
C619 C 0.15886 0.22751 0.60634 0.0
C620 C 0.15933 0.25626 0.60815 0.0
C621 C 0.25558 0.84119 0.47778 0.0
C622 C 0.26922 0.84168 0.37961 0.0
C623 C 0.22749 0.83997 0.48099 0.0
C624 C 0.21218 0.83857 0.38623 0.0
H625 H 0.26659 0.84313 0.55251 0.0
H626 H 0.21767 0.84084 0.55807 0.0
S627 S 0.23868 0.83629 0.10922 0.0
N628 N 0.26572 0.83873 0.18602 0.0
N629 N 0.21286 0.83577 0.19162 0.0
C630 C 0.22572 0.83739 0.28774 0.0
C631 C 0.25428 0.83917 0.28454 0.0
C632 C 0.22731 0.08128 0.83242 0.0
C633 C 0.21907 0.10483 0.7792 0.0
C634 C 0.24667 0.08213 0.91398 0.0
C635 C 0.2583 0.10663 0.94717 0.0
H636 H 0.21851 0.06197 0.8115 0.0
H637 H 0.2527 0.06337 0.95108 0.0
S638 S 0.244 0.17409 0.83294 0.0
N639 N 0.22422 0.15341 0.76484 0.0
N640 N 0.26067 0.15504 0.91864 0.0
C641 C 0.25032 0.13038 0.89466 0.0
C642 C 0.23081 0.12946 0.81028 0.0
C643 C 0.09969 0.71387 0.17038 0.0
C644 C 0.09537 0.7168 0.05901 0.0
C645 C 0.09864 0.73599 0.23996 0.0
C646 C 0.09346 0.76183 0.20048 0.0
H647 H 0.1049 0.69446 0.20398 0.0
H648 H 0.1036 0.7331 0.32368 0.0
S649 S 0.0759 0.77967 0.92061 0.0
N650 N 0.08202 0.74705 0.916 0.0
N651 N 0.08042 0.78879 0.04662 0.0
C652 C 0.08707 0.76476 0.09118 0.0
C653 C 0.08785 0.74218 0.02046 0.0
C654 C 0.72916 0.85961 0.90101 0.0
C655 C 0.7185 0.88386 0.94065 0.0
C656 C 0.7496 0.85964 0.82402 0.0
C657 C 0.76041 0.88391 0.7849 0.0
H658 H 0.72108 0.84045 0.92708 0.0
H659 H 0.7574 0.84047 0.79686 0.0
S660 S 0.73979 0.95285 0.8646 0.0
N661 N 0.72035 0.93276 0.93552 0.0
N662 N 0.75907 0.93283 0.79269 0.0
C663 C 0.75011 0.90828 0.82487 0.0
C664 C 0.72912 0.90824 0.90222 0.0
C665 C 0.88464 0.23629 -0.01965 0.0
C666 C 0.88765 0.26207 0.02455 0.0
C667 C 0.88402 0.21353 0.0463 0.0
C668 C 0.88669 0.21572 0.15869 0.0
H669 H 0.88113 0.23381 0.89525 0.0
H670 H 0.88045 0.19412 0.00891 0.0
S671 S 0.89993 0.27852 0.31053 0.0
N672 N 0.89672 0.28843 0.18509 0.0
N673 N 0.89588 0.24553 0.30887 0.0
C674 C 0.89192 0.24122 0.20257 0.0
C675 C 0.89225 0.26443 0.13553 0.0
C676 C 0.24022 0.39523 0.25551 0.0
C677 C 0.26372 0.38093 0.27891 0.0
C678 C 0.2191 0.39619 0.32916 0.0
C679 C 0.22075 0.3829 0.42902 0.0
H680 H 0.23832 0.40605 0.18066 0.0
H681 H 0.20119 0.40724 0.30672 0.0
S682 S 0.27909 0.34357 0.5282 0.0
N683 N 0.28825 0.35393 0.4083 0.0
N684 N 0.24841 0.35536 0.54667 0.0
C685 C 0.24436 0.36855 0.45286 0.0
C686 C 0.2659 0.36772 0.37789 0.0
C687 C 0.38787 0.74864 0.73466 0.0
C688 C 0.38858 0.72308 0.68702 0.0
C689 C 0.38739 0.77192 0.67147 0.0
C690 C 0.38801 0.77042 0.55863 0.0
H691 H 0.38605 0.75065 0.82064 0.0
H692 H 0.38555 0.79123 0.71137 0.0
S693 S 0.39456 0.7083 0.39694 0.0
N694 N 0.39312 0.69756 0.52172 0.0
N695 N 0.3926 0.74141 0.40333 0.0
C696 C 0.39095 0.74506 0.51082 0.0
C697 C 0.39107 0.72135 0.57498 0.0
C698 C 0.73204 0.62574 0.31342 0.0
C699 C 0.72381 0.60225 0.25869 0.0
C700 C 0.75055 0.62464 0.3987 0.0
C701 C 0.76175 0.60003 0.43226 0.0
H702 H 0.7238 0.64515 0.29151 0.0
H703 H 0.75677 0.64335 0.43621 0.0
S704 S 0.74637 0.53257 0.31833 0.0
N705 N 0.72802 0.55352 0.24639 0.0
N706 N 0.76264 0.55151 0.40606 0.0
C707 C 0.75344 0.57637 0.37921 0.0
C708 C 0.7346 0.57747 0.29266 0.0
C709 C 0.60155 0.21862 0.62998 0.0
C710 C 0.59666 0.22147 0.51901 0.0
C711 C 0.60075 0.24075 0.69935 0.0
C712 C 0.59531 0.26653 0.65999 0.0
H713 H 0.6069 0.19923 0.66344 0.0
H714 H 0.60601 0.2379 0.78282 0.0
S715 S 0.57673 0.28429 0.38105 0.0
N716 N 0.58284 0.25165 0.37635 0.0
N717 N 0.58173 0.29346 0.50673 0.0
C718 C 0.58857 0.26945 0.55103 0.0
C719 C 0.58908 0.24684 0.48052 0.0
C720 C 0.35329 0.14005 0.55899 0.0
C721 C 0.33311 0.12522 0.50651 0.0
C722 C 0.36035 0.1344 0.66427 0.0
C723 C 0.34732 0.11381 0.72095 0.0
H724 H 0.36521 0.15464 0.51542 0.0
H725 H 0.37672 0.14575 0.70025 0.0
S726 S 0.28968 0.07257 0.62372 0.0
N727 N 0.29808 0.09136 0.52016 0.0
N728 N 0.31052 0.08118 0.72151 0.0
C729 C 0.32554 0.10028 0.67185 0.0
C730 C 0.31848 0.10604 0.5638 0.0
C731 C 0.13335 0.64127 0.39599 0.0
C732 C 0.11014 0.64668 0.45524 0.0
C733 C 0.13169 0.63108 0.29212 0.0
C734 C 0.10667 0.62575 0.2425 0.0
H735 H 0.15306 0.64337 0.43279 0.0
H736 H 0.1504 0.62674 0.25166 0.0
S737 S 0.03969 0.63852 0.36198 0.0
N738 N 0.06132 0.64745 0.45655 0.0
N739 N 0.05797 0.62867 0.25914 0.0
C740 C 0.08317 0.63244 0.29907 0.0
C741 C 0.08496 0.64293 0.4057 0.0
C742 C 0.65264 0.88414 0.55479 0.0
C743 C 0.64292 0.86244 0.4942 0.0
C744 C 0.64381 0.88829 0.65935 0.0
C745 C 0.62482 0.87091 0.70664 0.0
H746 H 0.6654 0.89923 0.51823 0.0
H747 H 0.65152 0.90568 0.70222 0.0
S748 S 0.59514 0.80974 0.58156 0.0
N749 N 0.61491 0.82244 0.48867 0.0
N750 N 0.59833 0.82984 0.68633 0.0
C751 C 0.61628 0.84813 0.64848 0.0
C752 C 0.6254 0.84395 0.54206 0.0
C753 C 0.89829 0.35556 0.2864 0.0
C754 C 0.87519 0.35457 0.22093 0.0
C755 C 0.89753 0.34634 0.39243 0.0
C756 C 0.87377 0.33555 0.43543 0.0
H757 H 0.91677 0.36436 0.25695 0.0
H758 H 0.91511 0.34915 0.44295 0.0
S759 S 0.80887 0.3252 0.29574 0.0
N760 N 0.82849 0.33924 0.20556 0.0
N761 N 0.82748 0.32252 0.40488 0.0
C762 C 0.8511 0.33306 0.36985 0.0
C763 C 0.8517 0.34239 0.26246 0.0
C764 C 0.34319 0.39814 0.55068 0.0
C765 C 0.35521 0.37614 0.49833 0.0
C766 C 0.33344 0.39573 0.65463 0.0
C767 C 0.33516 0.37123 0.70955 0.0
H768 H 0.3419 0.41766 0.51253 0.0
H769 H 0.32645 0.41367 0.69539 0.0
S770 S 0.36202 0.30683 0.60731 0.0
N771 N 0.36606 0.32823 0.50776 0.0
N772 N 0.34779 0.3242 0.70437 0.0
C773 C 0.34542 0.34867 0.65677 0.0
C774 C 0.35556 0.35102 0.55098 0.0
C775 C 0.3995 0.64007 0.32049 0.0
C776 C 0.3757 0.64939 0.27223 0.0
C777 C 0.39948 0.63048 0.42608 0.0
C778 C 0.37556 0.62963 0.4858 0.0
H779 H 0.41781 0.63858 0.27424 0.0
H780 H 0.41811 0.62294 0.45977 0.0
S781 S 0.30841 0.65419 0.39495 0.0
N782 N 0.32829 0.65892 0.29151 0.0
N783 N 0.32774 0.64121 0.4893 0.0
C784 C 0.35189 0.64023 0.43883 0.0
C785 C 0.3521 0.65004 0.33219 0.0
C786 C 0.63392 0.63983 0.64749 0.0
C787 C 0.65345 0.62428 0.70004 0.0
C788 C 0.6272 0.6349 0.54087 0.0
C789 C 0.6398 0.61421 0.48306 0.0
H790 H 0.62211 0.65433 0.6919 0.0
H791 H 0.61119 0.64669 0.50521 0.0
S792 S 0.6959 0.5712 0.58087 0.0
N793 N 0.68759 0.58977 0.68536 0.0
N794 N 0.67579 0.58078 0.48248 0.0
C795 C 0.66113 0.6001 0.53247 0.0
C796 C 0.66785 0.60518 0.64161 0.0
C797 C 0.58395 0.36143 0.40235 0.0
C798 C 0.60645 0.35826 0.46983 0.0
C799 C 0.58446 0.35222 0.29604 0.0
C800 C 0.60725 0.33916 0.25485 0.0
H801 H 0.56634 0.37207 0.43028 0.0
H802 H 0.56758 0.35679 0.2439 0.0
S803 S 0.66979 0.32235 0.40094 0.0
N804 N 0.65113 0.33826 0.48956 0.0
N805 N 0.65174 0.32158 0.28974 0.0
C806 C 0.62911 0.3344 0.32265 0.0
C807 C 0.62878 0.34375 0.43031 0.0
C808 C 0.82903 0.59178 0.06196 0.0
C809 C 0.83135 0.61628 0.00729 0.0
C810 C 0.83844 0.58917 0.16692 0.0
C811 C 0.85071 0.61098 0.22074 0.0
H812 H 0.82195 0.57393 0.02027 0.0
H813 H 0.83679 0.56962 0.20459 0.0
S814 S 0.85888 0.68029 0.11342 0.0
N815 N 0.84468 0.66317 0.0147 0.0
N816 N 0.86224 0.65877 0.21309 0.0
C817 C 0.8515 0.63614 0.16856 0.0
C818 C 0.84173 0.63869 0.0617 0.0
C819 C 0.58241 0.13294 0.76389 0.0
C820 C 0.60612 0.13204 0.70292 0.0
C821 C 0.58269 0.14294 0.86923 0.0
C822 C 0.6066 0.15262 0.91632 0.0
H823 H 0.56379 0.12482 0.73184 0.0
H824 H 0.56461 0.14118 0.91672 0.0
S825 S 0.67312 0.1586 0.78777 0.0
N826 N 0.65359 0.14491 0.69523 0.0
N827 N 0.6537 0.16315 0.8928 0.0
C828 C 0.62985 0.15366 0.85425 0.0
C829 C 0.62975 0.14348 0.7477 0.0
C830 C 0.12891 0.34937 0.16014 0.0
C831 C 0.13113 0.3746 0.21145 0.0
C832 C 0.13818 0.34556 0.05589 0.0
C833 C 0.15019 0.36672 -0.00043 0.0
H834 H 0.11913 0.33257 0.19918 0.0
H835 H 0.13389 0.32661 0.01597 0.0
S836 S 0.1635 0.43576 0.09875 0.0
N837 N 0.14855 0.42049 0.19951 0.0
N838 N 0.16561 0.41301 0.00267 0.0
C839 C 0.15421 0.39142 0.05155 0.0
C840 C 0.14465 0.3955 0.15751 0.0
C841 C 0.34757 0.8582 0.91819 0.0
C842 C 0.36958 0.84699 0.97284 0.0
C843 C 0.35016 0.86809 0.81486 0.0
C844 C 0.3748 0.86688 0.76042 0.0
H845 H 0.32836 0.86055 0.95771 0.0
H846 H 0.33255 0.87697 0.77765 0.0
S847 S 0.43815 0.83725 0.86507 0.0
N848 N 0.41663 0.83402 0.96447 0.0
N849 N 0.42136 0.85176 0.76638 0.0
C850 C 0.39684 0.85467 0.81223 0.0
C851 C 0.39419 0.8447 0.91899 0.0
C852 C 0.82536 0.88427 0.17085 0.0
C853 C 0.83368 0.86152 0.22819 0.0
C854 C 0.83411 0.88854 0.06612 0.0
C855 C 0.85167 0.87027 0.01587 0.0
H856 H 0.81383 0.8999 0.21007 0.0
H857 H 0.82753 0.90662 0.02543 0.0
S858 S 0.8776 0.80657 0.13263 0.0
N859 N 0.85885 0.81983 0.22758 0.0
N860 N 0.87554 0.82755 0.03067 0.0
C861 C 0.85889 0.84665 0.07121 0.0
C862 C 0.84971 0.8423 0.17724 0.0
C863 C 0.89523 0.12956 0.90986 0.0
C864 C 0.87186 0.12191 0.96555 0.0
C865 C 0.89366 0.13993 0.80525 0.0
C866 C 0.86866 0.14313 0.75356 0.0
H867 H 0.91488 0.12704 0.94627 0.0
H868 H 0.91213 0.14375 0.76221 0.0
S869 S 0.80143 0.12856 0.86548 0.0
N870 N 0.82273 0.12 0.96114 0.0
N871 N 0.8202 0.1398 0.76683 0.0
C872 C 0.84522 0.13704 0.81017 0.0
C873 C 0.84669 0.12625 0.9153 0.0
C874 C 0.14038 0.09003 0.04424 0.0
C875 C 0.12795 0.11191 -0.00774 0.0
C876 C 0.14999 0.09238 0.14892 0.0
C877 C 0.14768 0.11668 0.20523 0.0
H878 H 0.14212 0.07062 0.00519 0.0
H879 H 0.15732 0.07448 0.18903 0.0
S880 S 0.11935 0.18067 0.10486 0.0
N881 N 0.11598 0.15947 0.00367 0.0
N882 N 0.13391 0.16341 0.20187 0.0
C883 C 0.13698 0.13915 0.15297 0.0
C884 C 0.12702 0.13685 0.04624 0.0
C885 C 0.13097 0.83668 0.85667 0.0
C886 C 0.10786 0.83573 0.79246 0.0
C887 C 0.12988 0.84633 0.96132 0.0
C888 C 0.1056 0.8557 0.00595 0.0
H889 H 0.15034 0.83121 0.82381 0.0
H890 H 0.14852 0.84686 0.0066 0.0
S891 S 0.03912 0.85651 0.86944 0.0
N892 N 0.05991 0.84428 0.77901 0.0
N893 N 0.05754 0.86217 0.97772 0.0
C894 C 0.08206 0.85399 0.94323 0.0
C895 C 0.08327 0.84407 0.83599 0.0
loop_
_geom_bond_atom_site_label_1
_geom_bond_atom_site_label_2
_geom_bond_distance
_geom_bond_site_symmetry_2
_ccdc_geom_bond_type
O0 Zn1 1.953 1_556 S
O0 C16 1.225 . S
Zn1 O0 1.953 1_554 S
Zn1 O2 1.949 . S
Zn1 O8 1.919 . S
Zn1 O13 1.924 . S
O2 Zn1 1.949 . S
O2 Zn3 1.923 . S
O2 Zn4 1.950 . S
O2 Zn5 1.945 . S
Zn3 O2 1.923 . S
Zn3 O6 1.933 . S
Zn3 O9 1.941 . S
Zn3 O10 1.965 . S
Zn4 O2 1.950 . S
Zn4 O11 1.938 . S
Zn4 O12 1.906 . S
Zn4 O22 1.953 1_554 S
Zn5 O2 1.945 . S
Zn5 O7 1.932 . S
Zn5 O14 1.977 . S
Zn5 O15 1.910 . S
O6 Zn3 1.933 . S
O6 C17 1.226 . S
O7 Zn5 1.932 . S
O7 C17 1.307 . S
O8 Zn1 1.919 . S
O8 C19 1.253 . S
O9 Zn3 1.941 . S
O9 C19 1.283 . S
O10 Zn3 1.965 . S
O10 C18 1.303 . S
O11 Zn4 1.938 . S
O11 C18 1.247 . S
O12 Zn4 1.906 . S
O12 C20 1.304 . S
O13 Zn1 1.924 . S
O13 C21 1.311 . S
O14 Zn5 1.977 . S
O14 C20 1.272 . S
O15 Zn5 1.910 . S
O15 C21 1.231 . S
C16 O0 1.225 . S
C16 O22 1.298 . S
C17 O6 1.226 . S
C17 O7 1.307 . S
C18 O10 1.303 . S
C18 O11 1.247 . S
C19 O8 1.253 . S
C19 O9 1.283 . S
C20 O12 1.304 . S
C20 O14 1.272 . S
C21 O13 1.311 . S
C21 O15 1.231 . S
O22 Zn4 1.953 1_556 S
O22 C16 1.298 . S
O23 Zn24 1.953 1_554 S
O23 C39 1.225 . S
Zn24 O23 1.953 1_556 S
Zn24 O25 1.949 . S
Zn24 O31 1.919 . S
Zn24 O36 1.924 . S
O25 Zn24 1.949 . S
O25 Zn26 1.923 . S
O25 Zn27 1.950 . S
O25 Zn28 1.945 . S
Zn26 O25 1.923 . S
Zn26 O29 1.933 . S
Zn26 O32 1.941 . S
Zn26 O33 1.965 . S
Zn27 O25 1.950 . S
Zn27 O34 1.938 1_556 S
Zn27 O35 1.906 . S
Zn27 O45 1.953 1_556 S
Zn28 O25 1.945 . S
Zn28 O30 1.932 . S
Zn28 O37 1.977 . S
Zn28 O38 1.910 . S
O29 Zn26 1.933 . S
O29 C40 1.226 . S
O30 Zn28 1.932 . S
O30 C40 1.307 . S
O31 Zn24 1.919 . S
O31 C42 1.253 . S
O32 Zn26 1.941 . S
O32 C42 1.283 . S
O33 Zn26 1.965 . S
O33 C41 1.303 . S
O34 Zn27 1.938 1_554 S
O34 C41 1.247 1_554 S
O35 Zn27 1.906 . S
O35 C43 1.304 . S
O36 Zn24 1.924 . S
O36 C44 1.311 . S
O37 Zn28 1.977 . S
O37 C43 1.272 . S
O38 Zn28 1.910 . S
O38 C44 1.231 . S
C39 O23 1.225 . S
C39 O45 1.298 . S
C40 O29 1.226 . S
C40 O30 1.307 . S
C41 O33 1.303 . S
C41 O34 1.247 1_556 S
C42 O31 1.253 . S
C42 O32 1.283 . S
C43 O35 1.304 . S
C43 O37 1.272 . S
C44 O36 1.311 . S
C44 O38 1.231 . S
O45 Zn27 1.953 1_554 S
O45 C39 1.298 . S
O46 Zn47 1.953 1_556 S
O46 C62 1.225 . S
Zn47 O46 1.953 1_554 S
Zn47 O48 1.949 . S
Zn47 O54 1.919 . S
Zn47 O59 1.924 . S
O48 Zn47 1.949 . S
O48 Zn49 1.923 . S
O48 Zn50 1.950 . S
O48 Zn51 1.945 . S
Zn49 O48 1.923 . S
Zn49 O52 1.933 . S
Zn49 O55 1.941 . S
Zn49 O56 1.965 . S
Zn50 O48 1.950 . S
Zn50 O57 1.938 . S
Zn50 O58 1.906 . S
Zn50 O68 1.953 1_554 S
Zn51 O48 1.945 . S
Zn51 O53 1.932 . S
Zn51 O60 1.977 . S
Zn51 O61 1.910 . S
O52 Zn49 1.933 . S
O52 C63 1.226 . S
O53 Zn51 1.932 . S
O53 C63 1.307 . S
O54 Zn47 1.919 . S
O54 C65 1.253 . S
O55 Zn49 1.941 . S
O55 C65 1.283 . S
O56 Zn49 1.965 . S
O56 C64 1.303 . S
O57 Zn50 1.938 . S
O57 C64 1.247 . S
O58 Zn50 1.906 . S
O58 C66 1.304 . S
O59 Zn47 1.924 . S
O59 C67 1.311 . S
O60 Zn51 1.977 . S
O60 C66 1.272 . S
O61 Zn51 1.910 . S
O61 C67 1.231 . S
C62 O46 1.225 . S
C62 O68 1.298 . S
C63 O52 1.226 . S
C63 O53 1.307 . S
C64 O56 1.303 . S
C64 O57 1.247 . S
C65 O54 1.253 . S
C65 O55 1.283 . S
C66 O58 1.304 . S
C66 O60 1.272 . S
C67 O59 1.311 . S
C67 O61 1.231 . S
O68 Zn50 1.953 1_556 S
O68 C62 1.298 . S
O69 Zn70 1.953 1_554 S
O69 C85 1.225 . S
Zn70 O69 1.953 1_556 S
Zn70 O71 1.949 . S
Zn70 O77 1.919 . S
Zn70 O82 1.924 . S
O71 Zn70 1.949 . S
O71 Zn72 1.923 . S
O71 Zn73 1.950 . S
O71 Zn74 1.945 . S
Zn72 O71 1.923 . S
Zn72 O75 1.933 . S
Zn72 O78 1.941 . S
Zn72 O79 1.965 . S
Zn73 O71 1.950 . S
Zn73 O80 1.938 1_556 S
Zn73 O81 1.906 . S
Zn73 O91 1.953 1_556 S
Zn74 O71 1.945 . S
Zn74 O76 1.932 . S
Zn74 O83 1.977 . S
Zn74 O84 1.910 . S
O75 Zn72 1.933 . S
O75 C86 1.226 . S
O76 Zn74 1.932 . S
O76 C86 1.307 . S
O77 Zn70 1.919 . S
O77 C88 1.253 . S
O78 Zn72 1.941 . S
O78 C88 1.283 . S
O79 Zn72 1.965 . S
O79 C87 1.303 . S
O80 Zn73 1.938 1_554 S
O80 C87 1.247 1_554 S
O81 Zn73 1.906 . S
O81 C89 1.304 . S
O82 Zn70 1.924 . S
O82 C90 1.311 . S
O83 Zn74 1.977 . S
O83 C89 1.272 . S
O84 Zn74 1.910 . S
O84 C90 1.231 . S
C85 O69 1.225 . S
C85 O91 1.298 . S
C86 O75 1.226 . S
C86 O76 1.307 . S
C87 O79 1.303 . S
C87 O80 1.247 1_556 S
C88 O77 1.253 . S
C88 O78 1.283 . S
C89 O81 1.304 . S
C89 O83 1.272 . S
C90 O82 1.311 . S
C90 O84 1.231 . S
O91 Zn73 1.953 1_554 S
O91 C85 1.298 . S
O92 Zn93 1.953 . S
O92 C108 1.225 . S
Zn93 O92 1.953 . S
Zn93 O94 1.949 . S
Zn93 O100 1.919 . S
Zn93 O105 1.924 . S
O94 Zn93 1.949 . S
O94 Zn95 1.923 . S
O94 Zn96 1.950 . S
O94 Zn97 1.945 1_554 S
Zn95 O94 1.923 . S
Zn95 O98 1.933 1_554 S
Zn95 O101 1.941 . S
Zn95 O102 1.965 . S
Zn96 O94 1.950 . S
Zn96 O103 1.938 . S
Zn96 O104 1.906 . S
Zn96 O114 1.953 . S
Zn97 O94 1.945 1_556 S
Zn97 O99 1.932 . S
Zn97 O106 1.977 1_556 S
Zn97 O107 1.910 1_556 S
O98 Zn95 1.933 1_556 S
O98 C109 1.226 . S
O99 Zn97 1.932 . S
O99 C109 1.307 . S
O100 Zn93 1.919 . S
O100 C111 1.253 . S
O101 Zn95 1.941 . S
O101 C111 1.283 . S
O102 Zn95 1.965 . S
O102 C110 1.303 . S
O103 Zn96 1.938 . S
O103 C110 1.247 . S
O104 Zn96 1.906 . S
O104 C112 1.304 . S
O105 Zn93 1.924 . S
O105 C113 1.311 . S
O106 Zn97 1.977 1_554 S
O106 C112 1.272 . S
O107 Zn97 1.910 1_554 S
O107 C113 1.231 . S
C108 O92 1.225 . S
C108 O114 1.298 . S
C109 O98 1.226 . S
C109 O99 1.307 . S
C110 O102 1.303 . S
C110 O103 1.247 . S
C111 O100 1.253 . S
C111 O101 1.283 . S
C112 O104 1.304 . S
C112 O106 1.272 . S
C113 O105 1.311 . S
C113 O107 1.231 . S
O114 Zn96 1.953 . S
O114 C108 1.298 . S
O115 Zn116 1.953 . S
O115 C131 1.225 . S
Zn116 O115 1.953 . S
Zn116 O117 1.949 . S
Zn116 O123 1.919 . S
Zn116 O128 1.924 . S
O117 Zn116 1.949 . S
O117 Zn118 1.923 . S
O117 Zn119 1.950 . S
O117 Zn120 1.945 . S
Zn118 O117 1.923 . S
Zn118 O121 1.933 1_556 S
Zn118 O124 1.941 . S
Zn118 O125 1.965 . S
Zn119 O117 1.950 . S
Zn119 O126 1.938 . S
Zn119 O127 1.906 . S
Zn119 O137 1.953 . S
Zn120 O117 1.945 . S
Zn120 O122 1.932 1_556 S
Zn120 O129 1.977 . S
Zn120 O130 1.910 . S
O121 Zn118 1.933 1_554 S
O121 C132 1.226 . S
O122 Zn120 1.932 1_554 S
O122 C132 1.307 . S
O123 Zn116 1.919 . S
O123 C134 1.253 . S
O124 Zn118 1.941 . S
O124 C134 1.283 . S
O125 Zn118 1.965 . S
O125 C133 1.303 . S
O126 Zn119 1.938 . S
O126 C133 1.247 . S
O127 Zn119 1.906 . S
O127 C135 1.304 . S
O128 Zn116 1.924 . S
O128 C136 1.311 . S
O129 Zn120 1.977 . S
O129 C135 1.272 . S
O130 Zn120 1.910 . S
O130 C136 1.231 . S
C131 O115 1.225 . S
C131 O137 1.298 . S
C132 O121 1.226 . S
C132 O122 1.307 . S
C133 O125 1.303 . S
C133 O126 1.247 . S
C134 O123 1.253 . S
C134 O124 1.283 . S
C135 O127 1.304 . S
C135 O129 1.272 . S
C136 O128 1.311 . S
C136 O130 1.231 . S
O137 Zn119 1.953 . S
O137 C131 1.298 . S
O138 Zn139 1.953 . S
O138 C154 1.225 . S
Zn139 O138 1.953 . S
Zn139 O140 1.949 . S
Zn139 O146 1.919 . S
Zn139 O151 1.924 . S
O140 Zn139 1.949 . S
O140 Zn141 1.923 . S
O140 Zn142 1.950 . S
O140 Zn143 1.945 1_554 S
Zn141 O140 1.923 . S
Zn141 O144 1.933 1_554 S
Zn141 O147 1.941 . S
Zn141 O148 1.965 . S
Zn142 O140 1.950 . S
Zn142 O149 1.938 . S
Zn142 O150 1.906 . S
Zn142 O160 1.953 . S
Zn143 O140 1.945 1_556 S
Zn143 O145 1.932 . S
Zn143 O152 1.977 1_556 S
Zn143 O153 1.910 1_556 S
O144 Zn141 1.933 1_556 S
O144 C155 1.226 . S
O145 Zn143 1.932 . S
O145 C155 1.307 . S
O146 Zn139 1.919 . S
O146 C157 1.253 . S
O147 Zn141 1.941 . S
O147 C157 1.283 . S
O148 Zn141 1.965 . S
O148 C156 1.303 . S
O149 Zn142 1.938 . S
O149 C156 1.247 . S
O150 Zn142 1.906 . S
O150 C158 1.304 . S
O151 Zn139 1.924 . S
O151 C159 1.311 . S
O152 Zn143 1.977 1_554 S
O152 C158 1.272 . S
O153 Zn143 1.910 1_554 S
O153 C159 1.231 . S
C154 O138 1.225 . S
C154 O160 1.298 . S
C155 O144 1.226 . S
C155 O145 1.307 . S
C156 O148 1.303 . S
C156 O149 1.247 . S
C157 O146 1.253 . S
C157 O147 1.283 . S
C158 O150 1.304 . S
C158 O152 1.272 . S
C159 O151 1.311 . S
C159 O153 1.231 . S
O160 Zn142 1.953 . S
O160 C154 1.298 . S
O161 Zn162 1.953 . S
O161 C177 1.225 . S
Zn162 O161 1.953 . S
Zn162 O163 1.949 . S
Zn162 O169 1.919 . S
Zn162 O174 1.924 . S
O163 Zn162 1.949 . S
O163 Zn164 1.923 . S
O163 Zn165 1.950 . S
O163 Zn166 1.945 . S
Zn164 O163 1.923 . S
Zn164 O167 1.933 1_556 S
Zn164 O170 1.941 . S
Zn164 O171 1.965 . S
Zn165 O163 1.950 . S
Zn165 O172 1.938 . S
Zn165 O173 1.906 . S
Zn165 O183 1.953 . S
Zn166 O163 1.945 . S
Zn166 O168 1.932 1_556 S
Zn166 O175 1.977 . S
Zn166 O176 1.910 . S
O167 Zn164 1.933 1_554 S
O167 C178 1.226 . S
O168 Zn166 1.932 1_554 S
O168 C178 1.307 . S
O169 Zn162 1.919 . S
O169 C180 1.253 . S
O170 Zn164 1.941 . S
O170 C180 1.283 . S
O171 Zn164 1.965 . S
O171 C179 1.303 . S
O172 Zn165 1.938 . S
O172 C179 1.247 . S
O173 Zn165 1.906 . S
O173 C181 1.304 . S
O174 Zn162 1.924 . S
O174 C182 1.311 . S
O175 Zn166 1.977 . S
O175 C181 1.272 . S
O176 Zn166 1.910 . S
O176 C182 1.231 . S
C177 O161 1.225 . S
C177 O183 1.298 . S
C178 O167 1.226 . S
C178 O168 1.307 . S
C179 O171 1.303 . S
C179 O172 1.247 . S
C180 O169 1.253 . S
C180 O170 1.283 . S
C181 O173 1.304 . S
C181 O175 1.272 . S
C182 O174 1.311 . S
C182 O176 1.231 . S
O183 Zn165 1.953 . S
O183 C177 1.298 . S
O184 Zn185 1.953 . S
O184 C200 1.225 . S
Zn185 O184 1.953 . S
Zn185 O186 1.949 . S
Zn185 O192 1.919 . S
Zn185 O197 1.924 . S
O186 Zn185 1.949 . S
O186 Zn187 1.923 . S
O186 Zn188 1.950 . S
O186 Zn189 1.945 . S
Zn187 O186 1.923 . S
Zn187 O190 1.933 . S
Zn187 O193 1.941 . S
Zn187 O194 1.965 . S
Zn188 O186 1.950 . S
Zn188 O195 1.938 . S
Zn188 O196 1.906 . S
Zn188 O206 1.953 . S
Zn189 O186 1.945 . S
Zn189 O191 1.932 . S
Zn189 O198 1.977 . S
Zn189 O199 1.910 . S
O190 Zn187 1.933 . S
O190 C201 1.226 . S
O191 Zn189 1.932 . S
O191 C201 1.307 . S
O192 Zn185 1.919 . S
O192 C203 1.253 . S
O193 Zn187 1.941 . S
O193 C203 1.283 . S
O194 Zn187 1.965 . S
O194 C202 1.303 . S
O195 Zn188 1.938 . S
O195 C202 1.247 . S
O196 Zn188 1.906 . S
O196 C204 1.304 . S
O197 Zn185 1.924 . S
O197 C205 1.311 . S
O198 Zn189 1.977 . S
O198 C204 1.272 . S
O199 Zn189 1.910 . S
O199 C205 1.231 . S
C200 O184 1.225 . S
C200 O206 1.298 . S
C201 O190 1.226 . S
C201 O191 1.307 . S
C202 O194 1.303 . S
C202 O195 1.247 . S
C203 O192 1.253 . S
C203 O193 1.283 . S
C204 O196 1.304 . S
C204 O198 1.272 . S
C205 O197 1.311 . S
C205 O199 1.231 . S
O206 Zn188 1.953 . S
O206 C200 1.298 . S
O207 Zn208 1.953 . S
O207 C223 1.225 . S
Zn208 O207 1.953 . S
Zn208 O209 1.949 . S
Zn208 O215 1.919 . S
Zn208 O220 1.924 . S
O209 Zn208 1.949 . S
O209 Zn210 1.923 . S
O209 Zn211 1.950 . S
O209 Zn212 1.945 . S
Zn210 O209 1.923 . S
Zn210 O213 1.933 . S
Zn210 O216 1.941 . S
Zn210 O217 1.965 . S
Zn211 O209 1.950 . S
Zn211 O218 1.938 . S
Zn211 O219 1.906 . S
Zn211 O229 1.953 . S
Zn212 O209 1.945 . S
Zn212 O214 1.932 . S
Zn212 O221 1.977 . S
Zn212 O222 1.910 . S
O213 Zn210 1.933 . S
O213 C224 1.226 . S
O214 Zn212 1.932 . S
O214 C224 1.307 . S
O215 Zn208 1.919 . S
O215 C226 1.253 . S
O216 Zn210 1.941 . S
O216 C226 1.283 . S
O217 Zn210 1.965 . S
O217 C225 1.303 . S
O218 Zn211 1.938 . S
O218 C225 1.247 . S
O219 Zn211 1.906 . S
O219 C227 1.304 . S
O220 Zn208 1.924 . S
O220 C228 1.311 . S
O221 Zn212 1.977 . S
O221 C227 1.272 . S
O222 Zn212 1.910 . S
O222 C228 1.231 . S
C223 O207 1.225 . S
C223 O229 1.298 . S
C224 O213 1.226 . S
C224 O214 1.307 . S
C225 O217 1.303 . S
C225 O218 1.247 . S
C226 O215 1.253 . S
C226 O216 1.283 . S
C227 O219 1.304 . S
C227 O221 1.272 . S
C228 O220 1.311 . S
C228 O222 1.231 . S
O229 Zn211 1.953 . S
O229 C223 1.298 . S
O230 Zn231 1.953 . S
O230 C246 1.225 . S
Zn231 O230 1.953 . S
Zn231 O232 1.949 . S
Zn231 O238 1.919 . S
Zn231 O243 1.924 . S
O232 Zn231 1.949 . S
O232 Zn233 1.923 . S
O232 Zn234 1.950 . S
O232 Zn235 1.945 . S
Zn233 O232 1.923 . S
Zn233 O236 1.933 . S
Zn233 O239 1.941 . S
Zn233 O240 1.965 . S
Zn234 O232 1.950 . S
Zn234 O241 1.938 . S
Zn234 O242 1.906 . S
Zn234 O252 1.953 . S
Zn235 O232 1.945 . S
Zn235 O237 1.932 . S
Zn235 O244 1.977 . S
Zn235 O245 1.910 . S
O236 Zn233 1.933 . S
O236 C247 1.226 . S
O237 Zn235 1.932 . S
O237 C247 1.307 . S
O238 Zn231 1.919 . S
O238 C249 1.253 . S
O239 Zn233 1.941 . S
O239 C249 1.283 . S
O240 Zn233 1.965 . S
O240 C248 1.303 . S
O241 Zn234 1.938 . S
O241 C248 1.247 . S
O242 Zn234 1.906 . S
O242 C250 1.304 . S
O243 Zn231 1.924 . S
O243 C251 1.311 . S
O244 Zn235 1.977 . S
O244 C250 1.272 . S
O245 Zn235 1.910 . S
O245 C251 1.231 . S
C246 O230 1.225 . S
C246 O252 1.298 . S
C247 O236 1.226 . S
C247 O237 1.307 . S
C248 O240 1.303 . S
C248 O241 1.247 . S
C249 O238 1.253 . S
C249 O239 1.283 . S
C250 O242 1.304 . S
C250 O244 1.272 . S
C251 O243 1.311 . S
C251 O245 1.231 . S
O252 Zn234 1.953 . S
O252 C246 1.298 . S
O253 Zn254 1.953 . S
O253 C269 1.225 . S
Zn254 O253 1.953 . S
Zn254 O255 1.949 . S
Zn254 O261 1.919 . S
Zn254 O266 1.924 . S
O255 Zn254 1.949 . S
O255 Zn256 1.923 . S
O255 Zn257 1.950 . S
O255 Zn258 1.945 . S
Zn256 O255 1.923 . S
Zn256 O259 1.933 . S
Zn256 O262 1.941 . S
Zn256 O263 1.965 . S
Zn257 O255 1.950 . S
Zn257 O264 1.938 . S
Zn257 O265 1.906 . S
Zn257 O275 1.953 . S
Zn258 O255 1.945 . S
Zn258 O260 1.932 . S
Zn258 O267 1.977 . S
Zn258 O268 1.910 . S
O259 Zn256 1.933 . S
O259 C270 1.226 . S
O260 Zn258 1.932 . S
O260 C270 1.307 . S
O261 Zn254 1.919 . S
O261 C272 1.253 . S
O262 Zn256 1.941 . S
O262 C272 1.283 . S
O263 Zn256 1.965 . S
O263 C271 1.303 . S
O264 Zn257 1.938 . S
O264 C271 1.247 . S
O265 Zn257 1.906 . S
O265 C273 1.304 . S
O266 Zn254 1.924 . S
O266 C274 1.311 . S
O267 Zn258 1.977 . S
O267 C273 1.272 . S
O268 Zn258 1.910 . S
O268 C274 1.231 . S
C269 O253 1.225 . S
C269 O275 1.298 . S
C270 O259 1.226 . S
C270 O260 1.307 . S
C271 O263 1.303 . S
C271 O264 1.247 . S
C272 O261 1.253 . S
C272 O262 1.283 . S
C273 O265 1.304 . S
C273 O267 1.272 . S
C274 O266 1.311 . S
C274 O268 1.231 . S
O275 Zn257 1.953 . S
O275 C269 1.298 . S
O276 Zn277 1.953 . S
O276 C292 1.225 . S
Zn277 O276 1.953 . S
Zn277 O278 1.949 . S
Zn277 O284 1.919 . S
Zn277 O289 1.924 . S
O278 Zn277 1.949 . S
O278 Zn279 1.923 . S
O278 Zn280 1.950 . S
O278 Zn281 1.945 . S
Zn279 O278 1.923 . S
Zn279 O282 1.933 . S
Zn279 O285 1.941 . S
Zn279 O286 1.965 . S
Zn280 O278 1.950 . S
Zn280 O287 1.938 . S
Zn280 O288 1.906 . S
Zn280 O298 1.953 . S
Zn281 O278 1.945 . S
Zn281 O283 1.932 . S
Zn281 O290 1.977 . S
Zn281 O291 1.910 . S
O282 Zn279 1.933 . S
O282 C293 1.226 . S
O283 Zn281 1.932 . S
O283 C293 1.307 . S
O284 Zn277 1.919 . S
O284 C295 1.253 . S
O285 Zn279 1.941 . S
O285 C295 1.283 . S
O286 Zn279 1.965 . S
O286 C294 1.303 . S
O287 Zn280 1.938 . S
O287 C294 1.247 . S
O288 Zn280 1.906 . S
O288 C296 1.304 . S
O289 Zn277 1.924 . S
O289 C297 1.311 . S
O290 Zn281 1.977 . S
O290 C296 1.272 . S
O291 Zn281 1.910 . S
O291 C297 1.231 . S
C292 O276 1.225 . S
C292 O298 1.298 . S
C293 O282 1.226 . S
C293 O283 1.307 . S
C294 O286 1.303 . S
C294 O287 1.247 . S
C295 O284 1.253 . S
C295 O285 1.283 . S
C296 O288 1.304 . S
C296 O290 1.272 . S
C297 O289 1.311 . S
C297 O291 1.231 . S
O298 Zn280 1.953 . S
O298 C292 1.298 . S
O299 Zn300 1.953 . S
O299 C315 1.225 . S
Zn300 O299 1.953 . S
Zn300 O301 1.949 . S
Zn300 O307 1.919 . S
Zn300 O312 1.924 . S
O301 Zn300 1.949 . S
O301 Zn302 1.923 . S
O301 Zn303 1.950 . S
O301 Zn304 1.945 . S
Zn302 O301 1.923 . S
Zn302 O305 1.933 . S
Zn302 O308 1.941 . S
Zn302 O309 1.965 . S
Zn303 O301 1.950 . S
Zn303 O310 1.938 . S
Zn303 O311 1.906 . S
Zn303 O321 1.953 . S
Zn304 O301 1.945 . S
Zn304 O306 1.932 . S
Zn304 O313 1.977 . S
Zn304 O314 1.910 . S
O305 Zn302 1.933 . S
O305 C316 1.226 . S
O306 Zn304 1.932 . S
O306 C316 1.307 . S
O307 Zn300 1.919 . S
O307 C318 1.253 . S
O308 Zn302 1.941 . S
O308 C318 1.283 . S
O309 Zn302 1.965 . S
O309 C317 1.303 . S
O310 Zn303 1.938 . S
O310 C317 1.247 . S
O311 Zn303 1.906 . S
O311 C319 1.304 . S
O312 Zn300 1.924 . S
O312 C320 1.311 . S
O313 Zn304 1.977 . S
O313 C319 1.272 . S
O314 Zn304 1.910 . S
O314 C320 1.231 . S
C315 O299 1.225 . S
C315 O321 1.298 . S
C316 O305 1.226 . S
C316 O306 1.307 . S
C317 O309 1.303 . S
C317 O310 1.247 . S
C318 O307 1.253 . S
C318 O308 1.283 . S
C319 O311 1.304 . S
C319 O313 1.272 . S
C320 O312 1.311 . S
C320 O314 1.231 . S
O321 Zn303 1.953 . S
O321 C315 1.298 . S
O322 Zn323 1.953 . S
O322 C338 1.225 . S
Zn323 O322 1.953 . S
Zn323 O324 1.949 . S
Zn323 O330 1.919 . S
Zn323 O335 1.924 . S
O324 Zn323 1.949 . S
O324 Zn325 1.923 . S
O324 Zn326 1.950 . S
O324 Zn327 1.945 . S
Zn325 O324 1.923 . S
Zn325 O328 1.933 . S
Zn325 O331 1.941 . S
Zn325 O332 1.965 . S
Zn326 O324 1.950 . S
Zn326 O333 1.938 . S
Zn326 O334 1.906 . S
Zn326 O344 1.953 . S
Zn327 O324 1.945 . S
Zn327 O329 1.932 . S
Zn327 O336 1.977 . S
Zn327 O337 1.910 . S
O328 Zn325 1.933 . S
O328 C339 1.226 . S
O329 Zn327 1.932 . S
O329 C339 1.307 . S
O330 Zn323 1.919 . S
O330 C341 1.253 . S
O331 Zn325 1.941 . S
O331 C341 1.283 . S
O332 Zn325 1.965 . S
O332 C340 1.303 . S
O333 Zn326 1.938 . S
O333 C340 1.247 . S
O334 Zn326 1.906 . S
O334 C342 1.304 . S
O335 Zn323 1.924 . S
O335 C343 1.311 . S
O336 Zn327 1.977 . S
O336 C342 1.272 . S
O337 Zn327 1.910 . S
O337 C343 1.231 . S
C338 O322 1.225 . S
C338 O344 1.298 . S
C339 O328 1.226 . S
C339 O329 1.307 . S
C340 O332 1.303 . S
C340 O333 1.247 . S
C341 O330 1.253 . S
C341 O331 1.283 . S
C342 O334 1.304 . S
C342 O336 1.272 . S
C343 O335 1.311 . S
C343 O337 1.231 . S
O344 Zn326 1.953 . S
O344 C338 1.298 . S
O345 Zn346 1.953 . S
O345 C361 1.225 . S
Zn346 O345 1.953 . S
Zn346 O347 1.949 . S
Zn346 O353 1.919 . S
Zn346 O358 1.924 . S
O347 Zn346 1.949 . S
O347 Zn348 1.923 . S
O347 Zn349 1.950 . S
O347 Zn350 1.945 . S
Zn348 O347 1.923 . S
Zn348 O351 1.933 . S
Zn348 O354 1.941 . S
Zn348 O355 1.965 . S
Zn349 O347 1.950 . S
Zn349 O356 1.938 . S
Zn349 O357 1.906 . S
Zn349 O367 1.953 . S
Zn350 O347 1.945 . S
Zn350 O352 1.932 . S
Zn350 O359 1.977 . S
Zn350 O360 1.910 . S
O351 Zn348 1.933 . S
O351 C362 1.226 . S
O352 Zn350 1.932 . S
O352 C362 1.307 . S
O353 Zn346 1.919 . S
O353 C364 1.253 . S
O354 Zn348 1.941 . S
O354 C364 1.283 . S
O355 Zn348 1.965 . S
O355 C363 1.303 . S
O356 Zn349 1.938 . S
O356 C363 1.247 . S
O357 Zn349 1.906 . S
O357 C365 1.304 . S
O358 Zn346 1.924 . S
O358 C366 1.311 . S
O359 Zn350 1.977 . S
O359 C365 1.272 . S
O360 Zn350 1.910 . S
O360 C366 1.231 . S
C361 O345 1.225 . S
C361 O367 1.298 . S
C362 O351 1.226 . S
C362 O352 1.307 . S
C363 O355 1.303 . S
C363 O356 1.247 . S
C364 O353 1.253 . S
C364 O354 1.283 . S
C365 O357 1.304 . S
C365 O359 1.272 . S
C366 O358 1.311 . S
C366 O360 1.231 . S
O367 Zn349 1.953 . S
O367 C361 1.298 . S
C368 C369 1.369 . S
C368 C370 1.419 1_565 S
C368 H372 0.930 . S
C369 C368 1.369 . S
C369 C378 1.429 . S
C370 C368 1.419 1_545 S
C370 C371 1.363 . S
C370 H373 0.929 . S
C371 C370 1.363 . S
C371 C377 1.428 . S
H372 C368 0.930 . S
H373 C370 0.929 . S
S374 N375 1.613 . S
S374 N376 1.610 1_565 S
N375 S374 1.613 . S
N375 C378 1.350 . S
N376 S374 1.610 1_545 S
N376 C377 1.351 . S
C377 C371 1.428 . S
C377 N376 1.351 . S
C377 C378 1.434 1_545 S
C378 C369 1.429 . S
C378 N375 1.350 . S
C378 C377 1.434 1_565 S
C379 C380 1.369 . S
C379 C381 1.419 . S
C379 H383 0.930 . S
C380 C379 1.369 . S
C380 C389 1.429 . S
C381 C379 1.419 . S
C381 C382 1.363 1_655 S
C381 H384 0.929 . S
C382 C381 1.363 1_455 S
C382 C388 1.428 . S
H383 C379 0.930 . S
H384 C381 0.929 . S
S385 N386 1.613 1_455 S
S385 N387 1.610 . S
N386 S385 1.613 1_655 S
N386 C389 1.350 . S
N387 S385 1.610 . S
N387 C388 1.351 . S
C388 C382 1.428 . S
C388 N387 1.351 . S
C388 C389 1.434 1_455 S
C389 C380 1.429 . S
C389 N386 1.350 . S
C389 C388 1.434 1_655 S
C390 C391 1.369 . S
C390 C392 1.419 1_565 S
C390 H394 0.930 . S
C391 C390 1.369 . S
C391 C400 1.439 . S
C392 C390 1.419 1_545 S
C392 C393 1.363 . S
C392 H395 0.929 . S
C393 C392 1.363 . S
C393 C399 1.428 . S
H394 C390 0.930 . S
H395 C392 0.929 . S
S396 N397 1.591 1_545 S
S396 N398 1.610 . S
N397 S396 1.591 1_565 S
N397 C400 1.350 . S
N398 S396 1.610 . S
N398 C399 1.351 . S
C399 C393 1.428 . S
C399 N398 1.351 . S
C399 C400 1.422 1_545 S
C400 C391 1.439 . S
C400 N397 1.350 . S
C400 C399 1.422 1_565 S
C401 C402 1.367 1_455 S
C401 C403 1.421 . S
C401 H405 0.930 1_455 S
C402 C401 1.367 1_655 S
C402 C411 1.429 . S
C403 C401 1.421 . S
C403 C404 1.363 . S
C403 H406 0.929 . S
C404 C403 1.363 . S
C404 C410 1.428 . S
H405 C401 0.930 1_655 S
H406 C403 0.929 . S
S407 N408 1.613 . S
S407 N409 1.610 1_655 S
N408 S407 1.613 . S
N408 C411 1.350 . S
N409 S407 1.610 1_455 S
N409 C410 1.351 . S
C410 C404 1.428 . S
C410 N409 1.351 . S
C410 C411 1.434 1_455 S
C411 C402 1.429 . S
C411 N408 1.350 . S
C411 C410 1.434 1_655 S
C412 C413 1.369 1_556 S
C412 C414 1.419 . S
C412 H416 0.930 . S
C413 C412 1.369 1_554 S
C413 C422 1.429 1_554 S
C414 C412 1.419 . S
C414 C415 1.363 . S
C414 H417 0.929 . S
C415 C414 1.363 . S
C415 C421 1.428 . S
H416 C412 0.930 . S
H417 C414 0.929 . S
S418 N419 1.613 1_556 S
S418 N420 1.610 . S
N419 S418 1.613 1_554 S
N419 C422 1.350 1_554 S
N420 S418 1.610 . S
N420 C421 1.351 . S
C421 C415 1.428 . S
C421 N420 1.351 . S
C421 C422 1.434 . S
C422 C413 1.429 1_556 S
C422 N419 1.350 1_556 S
C422 C421 1.434 . S
C423 C424 1.369 1_556 S
C423 C425 1.419 . S
C423 H427 0.930 . S
C424 C423 1.369 1_554 S
C424 C433 1.429 . S
C425 C423 1.419 . S
C425 C426 1.363 . S
C425 H428 0.929 . S
C426 C425 1.363 . S
C426 C432 1.428 1_556 S
H427 C423 0.930 . S
H428 C425 0.929 . S
S429 N430 1.613 . S
S429 N431 1.610 . S
N430 S429 1.613 . S
N430 C433 1.350 . S
N431 S429 1.610 . S
N431 C432 1.351 . S
C432 C426 1.428 1_554 S
C432 N431 1.351 . S
C432 C433 1.434 . S
C433 C424 1.429 . S
C433 N430 1.350 . S
C433 C432 1.434 . S
C434 C435 1.369 . S
C434 C436 1.419 1_554 S
C434 H438 0.930 . S
C435 C434 1.369 . S
C435 C444 1.429 1_554 S
C436 C434 1.419 1_556 S
C436 C437 1.363 . S
C436 H439 0.929 1_556 S
C437 C436 1.363 . S
C437 C443 1.428 . S
H438 C434 0.930 . S
H439 C436 0.929 1_554 S
S440 N441 1.613 . S
S440 N442 1.610 . S
N441 S440 1.613 . S
N441 C444 1.350 . S
N442 S440 1.610 . S
N442 C443 1.351 . S
C443 C437 1.428 . S
C443 N442 1.351 . S
C443 C444 1.434 . S
C444 C435 1.429 1_556 S
C444 N441 1.350 . S
C444 C443 1.434 . S
C445 C446 1.369 1_556 S
C445 C447 1.419 . S
C445 H449 0.930 . S
C446 C445 1.369 1_554 S
C446 C455 1.429 . S
C447 C445 1.419 . S
C447 C448 1.363 . S
C447 H450 0.929 . S
C448 C447 1.363 . S
C448 C454 1.428 1_556 S
H449 C445 0.930 . S
H450 C447 0.929 . S
S451 N452 1.613 . S
S451 N453 1.610 . S
N452 S451 1.613 . S
N452 C455 1.350 . S
N453 S451 1.610 . S
N453 C454 1.351 . S
C454 C448 1.428 1_554 S
C454 N453 1.351 . S
C454 C455 1.434 . S
C455 C446 1.429 . S
C455 N452 1.350 . S
C455 C454 1.434 . S
C456 C457 1.369 . S
C456 C458 1.419 . S
C456 H460 0.930 . S
C457 C456 1.369 . S
C457 C466 1.429 . S
C458 C456 1.419 . S
C458 C459 1.363 . S
C458 H461 0.929 . S
C459 C458 1.363 . S
C459 C465 1.428 . S
H460 C456 0.930 . S
H461 C458 0.929 . S
S462 N463 1.613 1_554 S
S462 N464 1.610 1_554 S
N463 S462 1.613 1_556 S
N463 C466 1.350 . S
N464 S462 1.610 1_556 S
N464 C465 1.351 . S
C465 C459 1.428 . S
C465 N464 1.351 . S
C465 C466 1.434 . S
C466 C457 1.429 . S
C466 N463 1.350 . S
C466 C465 1.434 . S
C467 C468 1.369 . S
C467 C469 1.419 . S
C467 H471 0.930 . S
C468 C467 1.369 . S
C468 C477 1.429 . S
C469 C467 1.419 . S
C469 C470 1.363 . S
C469 H472 0.929 . S
C470 C469 1.363 . S
C470 C476 1.428 . S
H471 C467 0.930 . S
H472 C469 0.929 . S
S473 N474 1.613 . S
S473 N475 1.610 . S
N474 S473 1.613 . S
N474 C477 1.350 . S
N475 S473 1.610 . S
N475 C476 1.351 . S
C476 C470 1.428 . S
C476 N475 1.351 . S
C476 C477 1.434 . S
C477 C468 1.429 . S
C477 N474 1.350 . S
C477 C476 1.434 . S
C478 C479 1.369 . S
C478 C480 1.419 . S
C478 H482 0.930 . S
C479 C478 1.369 . S
C479 C488 1.429 . S
C480 C478 1.419 . S
C480 C481 1.363 . S
C480 H483 0.929 . S
C481 C480 1.363 . S
C481 C487 1.428 . S
H482 C478 0.930 . S
H483 C480 0.929 . S
S484 N485 1.613 . S
S484 N486 1.610 1_554 S
N485 S484 1.613 . S
N485 C488 1.350 1_554 S
N486 S484 1.610 1_556 S
N486 C487 1.351 . S
C487 C481 1.428 . S
C487 N486 1.351 . S
C487 C488 1.434 . S
C488 C479 1.429 . S
C488 N485 1.350 1_556 S
C488 C487 1.434 . S
C489 C490 1.369 . S
C489 C491 1.419 . S
C489 H493 0.930 . S
C490 C489 1.369 . S
C490 C499 1.429 . S
C491 C489 1.419 . S
C491 C492 1.363 . S
C491 H494 0.929 . S
C492 C491 1.363 . S
C492 C498 1.428 . S
H493 C489 0.930 . S
H494 C491 0.929 . S
S495 N496 1.613 . S
S495 N497 1.610 . S
N496 S495 1.613 . S
N496 C499 1.350 . S
N497 S495 1.610 . S
N497 C498 1.351 . S
C498 C492 1.428 . S
C498 N497 1.351 . S
C498 C499 1.434 . S
C499 C490 1.429 . S
C499 N496 1.350 . S
C499 C498 1.434 . S
C500 C501 1.369 . S
C500 C502 1.419 1_565 S
C500 H504 0.930 . S
C501 C500 1.369 . S
C501 C510 1.429 . S
C502 C500 1.419 1_545 S
C502 C503 1.363 . S
C502 H505 0.929 . S
C503 C502 1.363 . S
C503 C509 1.428 . S
H504 C500 0.930 . S
H505 C502 0.929 . S
S506 N507 1.613 1_545 S
S506 N508 1.610 . S
N507 S506 1.613 1_565 S
N507 C510 1.350 . S
N508 S506 1.610 . S
N508 C509 1.351 . S
C509 C503 1.428 . S
C509 N508 1.351 . S
C509 C510 1.434 1_545 S
C510 C501 1.429 . S
C510 N507 1.350 . S
C510 C509 1.434 1_565 S
C511 C512 1.369 . S
C511 C513 1.419 . S
C511 H515 0.930 . S
C512 C511 1.369 . S
C512 C521 1.429 . S
C513 C511 1.419 . S
C513 C514 1.363 1_455 S
C513 H516 0.929 . S
C514 C513 1.363 1_655 S
C514 C520 1.428 . S
H515 C511 0.930 . S
H516 C513 0.929 . S
S517 N518 1.613 1_655 S
S517 N519 1.610 . S
N518 S517 1.613 1_455 S
N518 C521 1.350 . S
N519 S517 1.610 . S
N519 C520 1.351 . S
C520 C514 1.428 . S
C520 N519 1.351 . S
C520 C521 1.434 1_655 S
C521 C512 1.429 . S
C521 N518 1.350 . S
C521 C520 1.434 1_455 S
C522 C523 1.369 . S
C522 C524 1.419 1_565 S
C522 H526 0.930 . S
C523 C522 1.369 . S
C523 C532 1.429 . S
C524 C522 1.419 1_545 S
C524 C525 1.363 . S
C524 H527 0.929 . S
C525 C524 1.363 . S
C525 C531 1.394 1_545 S
H526 C522 0.930 . S
H527 C524 0.929 . S
S528 N529 1.613 . S
S528 N530 1.610 . S
N529 S528 1.613 . S
N529 C532 1.350 . S
N530 S528 1.610 . S
N530 C531 1.353 . S
C531 C525 1.394 1_565 S
C531 N530 1.353 . S
C531 C532 1.472 . S
C532 C523 1.429 . S
C532 N529 1.350 . S
C532 C531 1.472 . S
C533 C534 1.369 . S
C533 C535 1.419 1_455 S
C533 H537 0.930 . S
C534 C533 1.369 . S
C534 C543 1.429 . S
C535 C533 1.419 1_655 S
C535 C536 1.363 . S
C535 H538 0.929 . S
C536 C535 1.363 . S
C536 C542 1.428 . S
H537 C533 0.930 . S
H538 C535 0.929 . S
S539 N540 1.613 1_655 S
S539 N541 1.610 . S
N540 S539 1.613 1_455 S
N540 C543 1.350 . S
N541 S539 1.610 . S
N541 C542 1.351 . S
C542 C536 1.428 . S
C542 N541 1.351 . S
C542 C543 1.434 1_655 S
C543 C534 1.429 . S
C543 N540 1.350 . S
C543 C542 1.434 1_455 S
C544 C545 1.369 . S
C544 C546 1.419 . S
C544 H548 0.930 . S
C545 C544 1.369 . S
C545 C554 1.429 . S
C546 C544 1.419 . S
C546 C547 1.363 . S
C546 H549 0.929 . S
C547 C546 1.363 . S
C547 C553 1.428 . S
H548 C544 0.930 . S
H549 C546 0.929 . S
S550 N551 1.613 1_556 S
S550 N552 1.610 . S
N551 S550 1.613 1_554 S
N551 C554 1.350 . S
N552 S550 1.610 . S
N552 C553 1.351 1_556 S
C553 C547 1.428 . S
C553 N552 1.351 1_554 S
C553 C554 1.434 . S
C554 C545 1.429 . S
C554 N551 1.350 . S
C554 C553 1.434 . S
C555 C556 1.369 . S
C555 C557 1.419 . S
C555 H559 0.930 . S
C556 C555 1.369 . S
C556 C565 1.429 . S
C557 C555 1.419 . S
C557 C558 1.363 . S
C557 H560 0.929 . S
C558 C557 1.363 . S
C558 C564 1.428 . S
H559 C555 0.930 . S
H560 C557 0.929 . S
S561 N562 1.613 . S
S561 N563 1.610 1_554 S
N562 S561 1.613 . S
N562 C565 1.350 1_554 S
N563 S561 1.610 1_556 S
N563 C564 1.351 . S
C564 C558 1.428 . S
C564 N563 1.351 . S
C564 C565 1.434 . S
C565 C556 1.429 . S
C565 N562 1.350 1_556 S
C565 C564 1.434 . S
C566 C567 1.369 . S
C566 C568 1.419 . S
C566 H570 0.930 . S
C567 C566 1.369 . S
C567 C576 1.429 . S
C568 C566 1.419 . S
C568 C569 1.363 . S
C568 H571 0.929 1_554 S
C569 C568 1.363 . S
C569 C575 1.428 . S
H570 C566 0.930 . S
H571 C568 0.929 1_556 S
S572 N573 1.613 . S
S572 N574 1.610 . S
N573 S572 1.613 . S
N573 C576 1.350 . S
N574 S572 1.610 . S
N574 C575 1.351 . S
C575 C569 1.428 . S
C575 N574 1.351 . S
C575 C576 1.434 . S
C576 C567 1.429 . S
C576 N573 1.350 . S
C576 C575 1.434 . S
C577 C578 1.369 . S
C577 C579 1.419 . S
C577 H581 0.930 . S
C578 C577 1.369 . S
C578 C587 1.429 . S
C579 C577 1.419 . S
C579 C580 1.363 . S
C579 H582 0.929 . S
C580 C579 1.363 . S
C580 C586 1.428 . S
H581 C577 0.930 . S
H582 C579 0.929 . S
S583 N584 1.613 . S
S583 N585 1.610 . S
N584 S583 1.613 . S
N584 C587 1.350 1_554 S
N585 S583 1.610 . S
N585 C586 1.351 1_554 S
C586 C580 1.428 . S
C586 N585 1.351 1_556 S
C586 C587 1.434 . S
C587 C578 1.429 . S
C587 N584 1.350 1_556 S
C587 C586 1.434 . S
C588 C589 1.369 . S
C588 C590 1.419 . S
C588 H592 0.930 . S
C589 C588 1.369 . S
C589 C598 1.429 . S
C590 C588 1.419 . S
C590 C591 1.363 . S
C590 H593 0.929 . S
C591 C590 1.363 . S
C591 C597 1.428 . S
H592 C588 0.930 . S
H593 C590 0.929 . S
S594 N595 1.613 . S
S594 N596 1.610 . S
N595 S594 1.613 . S
N595 C598 1.350 . S
N596 S594 1.610 . S
N596 C597 1.351 . S
C597 C591 1.428 . S
C597 N596 1.351 . S
C597 C598 1.434 . S
C598 C589 1.429 . S
C598 N595 1.350 . S
C598 C597 1.434 . S
C599 C600 1.369 . S
C599 C601 1.419 . S
C599 H603 0.930 . S
C600 C599 1.369 . S
C600 C609 1.429 . S
C601 C599 1.419 . S
C601 C602 1.363 . S
C601 H604 0.929 . S
C602 C601 1.363 . S
C602 C608 1.428 . S
H603 C599 0.930 . S
H604 C601 0.929 . S
S605 N606 1.613 . S
S605 N607 1.610 . S
N606 S605 1.613 . S
N606 C609 1.350 . S
N607 S605 1.610 . S
N607 C608 1.351 . S
C608 C602 1.428 . S
C608 N607 1.351 . S
C608 C609 1.434 . S
C609 C600 1.429 . S
C609 N606 1.350 . S
C609 C608 1.434 . S
C610 C611 1.369 . S
C610 C612 1.419 . S
C610 H614 0.930 . S
C611 C610 1.369 . S
C611 C620 1.429 . S
C612 C610 1.419 . S
C612 C613 1.363 . S
C612 H615 0.929 . S
C613 C612 1.363 . S
C613 C619 1.428 . S
H614 C610 0.930 . S
H615 C612 0.929 . S
S616 N617 1.613 . S
S616 N618 1.610 . S
N617 S616 1.613 . S
N617 C620 1.350 . S
N618 S616 1.610 . S
N618 C619 1.351 . S
C619 C613 1.428 . S
C619 N618 1.351 . S
C619 C620 1.434 . S
C620 C611 1.429 . S
C620 N617 1.350 . S
C620 C619 1.434 . S
C621 C622 1.369 . S
C621 C623 1.419 . S
C621 H625 0.930 . S
C622 C621 1.369 . S
C622 C631 1.429 . S
C623 C621 1.419 . S
C623 C624 1.363 . S
C623 H626 0.929 . S
C624 C623 1.363 . S
C624 C630 1.428 . S
H625 C621 0.930 . S
H626 C623 0.929 . S
S627 N628 1.613 . S
S627 N629 1.610 . S
N628 S627 1.613 . S
N628 C631 1.350 . S
N629 S627 1.610 . S
N629 C630 1.351 . S
C630 C624 1.428 . S
C630 N629 1.351 . S
C630 C631 1.434 . S
C631 C622 1.429 . S
C631 N628 1.350 . S
C631 C630 1.434 . S
C632 C633 1.369 . S
C632 C634 1.419 . S
C632 H636 0.930 . S
C633 C632 1.369 . S
C633 C642 1.429 . S
C634 C632 1.419 . S
C634 C635 1.363 . S
C634 H637 0.929 . S
C635 C634 1.363 . S
C635 C641 1.428 . S
H636 C632 0.930 . S
H637 C634 0.929 . S
S638 N639 1.613 1_554 S
S638 N640 1.610 . S
N639 S638 1.613 1_556 S
N639 C642 1.350 . S
N640 S638 1.610 . S
N640 C641 1.351 1_554 S
C641 C635 1.428 . S
C641 N640 1.351 1_556 S
C641 C642 1.434 . S
C642 C633 1.429 . S
C642 N639 1.350 . S
C642 C641 1.434 . S
C643 C644 1.369 . S
C643 C645 1.419 . S
C643 H647 0.930 . S
C644 C643 1.369 . S
C644 C653 1.429 . S
C645 C643 1.419 . S
C645 C646 1.363 . S
C645 H648 0.929 . S
C646 C645 1.363 . S
C646 C652 1.428 . S
H647 C643 0.930 . S
H648 C645 0.929 . S
S649 N650 1.613 . S
S649 N651 1.610 1_556 S
N650 S649 1.613 . S
N650 C653 1.350 1_556 S
N651 S649 1.610 1_554 S
N651 C652 1.351 . S
C652 C646 1.428 . S
C652 N651 1.351 . S
C652 C653 1.434 . S
C653 C644 1.429 . S
C653 N650 1.350 1_554 S
C653 C652 1.434 . S
C654 C655 1.369 . S
C654 C656 1.419 . S
C654 H658 0.930 . S
C655 C654 1.369 . S
C655 C664 1.429 . S
C656 C654 1.419 . S
C656 C657 1.363 . S
C656 H659 0.929 . S
C657 C656 1.363 . S
C657 C663 1.428 . S
H658 C654 0.930 . S
H659 C656 0.929 . S
S660 N661 1.613 . S
S660 N662 1.610 . S
N661 S660 1.613 . S
N661 C664 1.350 . S
N662 S660 1.610 . S
N662 C663 1.351 . S
C663 C657 1.428 . S
C663 N662 1.351 . S
C663 C664 1.434 . S
C664 C655 1.429 . S
C664 N661 1.350 . S
C664 C663 1.434 . S
C665 C666 1.369 . S
C665 C667 1.419 . S
C665 H669 0.930 1_554 S
C666 C665 1.369 . S
C666 C675 1.429 . S
C667 C665 1.419 . S
C667 C668 1.363 . S
C667 H670 0.929 . S
C668 C667 1.363 . S
C668 C674 1.428 . S
H669 C665 0.930 1_556 S
H670 C667 0.929 . S
S671 N672 1.613 . S
S671 N673 1.610 . S
N672 S671 1.613 . S
N672 C675 1.350 . S
N673 S671 1.610 . S
N673 C674 1.351 . S
C674 C668 1.428 . S
C674 N673 1.351 . S
C674 C675 1.434 . S
C675 C666 1.429 . S
C675 N672 1.350 . S
C675 C674 1.434 . S
C676 C677 1.369 . S
C676 C678 1.419 . S
C676 H680 0.930 . S
C677 C676 1.369 . S
C677 C686 1.429 . S
C678 C676 1.419 . S
C678 C679 1.363 . S
C678 H681 0.929 . S
C679 C678 1.363 . S
C679 C685 1.428 . S
H680 C676 0.930 . S
H681 C678 0.929 . S
S682 N683 1.613 . S
S682 N684 1.610 . S
N683 S682 1.613 . S
N683 C686 1.350 . S
N684 S682 1.610 . S
N684 C685 1.351 . S
C685 C679 1.428 . S
C685 N684 1.351 . S
C685 C686 1.434 . S
C686 C677 1.429 . S
C686 N683 1.350 . S
C686 C685 1.434 . S
C687 C688 1.369 . S
C687 C689 1.419 . S
C687 H691 0.930 . S
C688 C687 1.369 . S
C688 C697 1.429 . S
C689 C687 1.419 . S
C689 C690 1.363 . S
C689 H692 0.929 . S
C690 C689 1.363 . S
C690 C696 1.428 . S
H691 C687 0.930 . S
H692 C689 0.929 . S
S693 N694 1.613 . S
S693 N695 1.610 . S
N694 S693 1.613 . S
N694 C697 1.350 . S
N695 S693 1.610 . S
N695 C696 1.351 . S
C696 C690 1.428 . S
C696 N695 1.351 . S
C696 C697 1.434 . S
C697 C688 1.429 . S
C697 N694 1.350 . S
C697 C696 1.434 . S
C698 C699 1.369 . S
C698 C700 1.419 . S
C698 H702 0.930 . S
C699 C698 1.369 . S
C699 C708 1.429 . S
C700 C698 1.419 . S
C700 C701 1.363 . S
C700 H703 0.929 . S
C701 C700 1.363 . S
C701 C707 1.428 . S
H702 C698 0.930 . S
H703 C700 0.929 . S
S704 N705 1.613 . S
S704 N706 1.610 . S
N705 S704 1.613 . S
N705 C708 1.350 . S
N706 S704 1.610 . S
N706 C707 1.351 . S
C707 C701 1.428 . S
C707 N706 1.351 . S
C707 C708 1.434 . S
C708 C699 1.429 . S
C708 N705 1.350 . S
C708 C707 1.434 . S
C709 C710 1.369 . S
C709 C711 1.419 . S
C709 H713 0.930 . S
C710 C709 1.369 . S
C710 C719 1.429 . S
C711 C709 1.419 . S
C711 C712 1.363 . S
C711 H714 0.929 . S
C712 C711 1.363 . S
C712 C718 1.428 . S
H713 C709 0.930 . S
H714 C711 0.929 . S
S715 N716 1.613 . S
S715 N717 1.610 . S
N716 S715 1.613 . S
N716 C719 1.350 . S
N717 S715 1.610 . S
N717 C718 1.351 . S
C718 C712 1.428 . S
C718 N717 1.351 . S
C718 C719 1.434 . S
C719 C710 1.429 . S
C719 N716 1.350 . S
C719 C718 1.434 . S
C720 C721 1.369 . S
C720 C722 1.419 . S
C720 H724 0.930 . S
C721 C720 1.369 . S
C721 C730 1.429 . S
C722 C720 1.419 . S
C722 C723 1.363 . S
C722 H725 0.929 . S
C723 C722 1.363 . S
C723 C729 1.428 . S
H724 C720 0.930 . S
H725 C722 0.929 . S
S726 N727 1.613 . S
S726 N728 1.610 . S
N727 S726 1.613 . S
N727 C730 1.350 . S
N728 S726 1.610 . S
N728 C729 1.351 . S
C729 C723 1.428 . S
C729 N728 1.351 . S
C729 C730 1.434 . S
C730 C721 1.429 . S
C730 N727 1.350 . S
C730 C729 1.434 . S
C731 C732 1.369 . S
C731 C733 1.419 . S
C731 H735 0.930 . S
C732 C731 1.369 . S
C732 C741 1.429 . S
C733 C731 1.419 . S
C733 C734 1.363 . S
C733 H736 0.929 . S
C734 C733 1.363 . S
C734 C740 1.428 . S
H735 C731 0.930 . S
H736 C733 0.929 . S
S737 N738 1.613 . S
S737 N739 1.610 . S
N738 S737 1.613 . S
N738 C741 1.350 . S
N739 S737 1.610 . S
N739 C740 1.351 . S
C740 C734 1.428 . S
C740 N739 1.351 . S
C740 C741 1.434 . S
C741 C732 1.429 . S
C741 N738 1.350 . S
C741 C740 1.434 . S
C742 C743 1.369 . S
C742 C744 1.419 . S
C742 H746 0.930 . S
C743 C742 1.369 . S
C743 C752 1.429 . S
C744 C742 1.419 . S
C744 C745 1.363 . S
C744 H747 0.929 . S
C745 C744 1.363 . S
C745 C751 1.428 . S
H746 C742 0.930 . S
H747 C744 0.929 . S
S748 N749 1.613 . S
S748 N750 1.610 . S
N749 S748 1.613 . S
N749 C752 1.350 . S
N750 S748 1.610 . S
N750 C751 1.351 . S
C751 C745 1.428 . S
C751 N750 1.351 . S
C751 C752 1.434 . S
C752 C743 1.429 . S
C752 N749 1.350 . S
C752 C751 1.434 . S
C753 C754 1.369 . S
C753 C755 1.419 . S
C753 H757 0.930 . S
C754 C753 1.369 . S
C754 C763 1.429 . S
C755 C753 1.419 . S
C755 C756 1.363 . S
C755 H758 0.929 . S
C756 C755 1.363 . S
C756 C762 1.428 . S
H757 C753 0.930 . S
H758 C755 0.929 . S
S759 N760 1.613 . S
S759 N761 1.610 . S
N760 S759 1.613 . S
N760 C763 1.350 . S
N761 S759 1.610 . S
N761 C762 1.351 . S
C762 C756 1.428 . S
C762 N761 1.351 . S
C762 C763 1.434 . S
C763 C754 1.429 . S
C763 N760 1.350 . S
C763 C762 1.434 . S
C764 C765 1.369 . S
C764 C766 1.419 . S
C764 H768 0.930 . S
C765 C764 1.369 . S
C765 C774 1.429 . S
C766 C764 1.419 . S
C766 C767 1.363 . S
C766 H769 0.929 . S
C767 C766 1.363 . S
C767 C773 1.428 . S
H768 C764 0.930 . S
H769 C766 0.929 . S
S770 N771 1.613 . S
S770 N772 1.610 . S
N771 S770 1.613 . S
N771 C774 1.350 . S
N772 S770 1.610 . S
N772 C773 1.351 . S
C773 C767 1.428 . S
C773 N772 1.351 . S
C773 C774 1.434 . S
C774 C765 1.429 . S
C774 N771 1.350 . S
C774 C773 1.434 . S
C775 C776 1.369 . S
C775 C777 1.419 . S
C775 H779 0.930 . S
C776 C775 1.369 . S
C776 C785 1.429 . S
C777 C775 1.419 . S
C777 C778 1.363 . S
C777 H780 0.929 . S
C778 C777 1.363 . S
C778 C784 1.428 . S
H779 C775 0.930 . S
H780 C777 0.929 . S
S781 N782 1.613 . S
S781 N783 1.610 . S
N782 S781 1.613 . S
N782 C785 1.350 . S
N783 S781 1.610 . S
N783 C784 1.351 . S
C784 C778 1.428 . S
C784 N783 1.351 . S
C784 C785 1.434 . S
C785 C776 1.429 . S
C785 N782 1.350 . S
C785 C784 1.434 . S
C786 C787 1.369 . S
C786 C788 1.419 . S
C786 H790 0.930 . S
C787 C786 1.369 . S
C787 C796 1.429 . S
C788 C786 1.419 . S
C788 C789 1.363 . S
C788 H791 0.929 . S
C789 C788 1.363 . S
C789 C795 1.428 . S
H790 C786 0.930 . S
H791 C788 0.929 . S
S792 N793 1.613 . S
S792 N794 1.610 . S
N793 S792 1.613 . S
N793 C796 1.350 . S
N794 S792 1.610 . S
N794 C795 1.351 . S
C795 C789 1.428 . S
C795 N794 1.351 . S
C795 C796 1.434 . S
C796 C787 1.429 . S
C796 N793 1.350 . S
C796 C795 1.434 . S
C797 C798 1.369 . S
C797 C799 1.419 . S
C797 H801 0.930 . S
C798 C797 1.369 . S
C798 C807 1.429 . S
C799 C797 1.419 . S
C799 C800 1.363 . S
C799 H802 0.929 . S
C800 C799 1.363 . S
C800 C806 1.428 . S
H801 C797 0.930 . S
H802 C799 0.929 . S
S803 N804 1.613 . S
S803 N805 1.610 . S
N804 S803 1.613 . S
N804 C807 1.350 . S
N805 S803 1.610 . S
N805 C806 1.351 . S
C806 C800 1.428 . S
C806 N805 1.351 . S
C806 C807 1.434 . S
C807 C798 1.429 . S
C807 N804 1.350 . S
C807 C806 1.434 . S
C808 C809 1.369 . S
C808 C810 1.419 . S
C808 H812 0.930 1_554 S
C809 C808 1.369 . S
C809 C818 1.429 . S
C810 C808 1.419 . S
C810 C811 1.363 . S
C810 H813 0.929 . S
C811 C810 1.363 . S
C811 C817 1.428 . S
H812 C808 0.930 1_556 S
H813 C810 0.929 . S
S814 N815 1.613 . S
S814 N816 1.610 . S
N815 S814 1.613 . S
N815 C818 1.350 . S
N816 S814 1.610 . S
N816 C817 1.351 . S
C817 C811 1.428 . S
C817 N816 1.351 . S
C817 C818 1.434 . S
C818 C809 1.429 . S
C818 N815 1.350 . S
C818 C817 1.434 . S
C819 C820 1.369 . S
C819 C821 1.419 . S
C819 H823 0.930 . S
C820 C819 1.369 . S
C820 C829 1.429 . S
C821 C819 1.419 . S
C821 C822 1.363 . S
C821 H824 0.929 . S
C822 C821 1.363 . S
C822 C828 1.428 . S
H823 C819 0.930 . S
H824 C821 0.929 . S
S825 N826 1.613 . S
S825 N827 1.610 . S
N826 S825 1.613 . S
N826 C829 1.350 . S
N827 S825 1.610 . S
N827 C828 1.351 . S
C828 C822 1.428 . S
C828 N827 1.351 . S
C828 C829 1.434 . S
C829 C820 1.429 . S
C829 N826 1.350 . S
C829 C828 1.434 . S
C830 C831 1.369 . S
C830 C832 1.419 . S
C830 H834 0.930 . S
C831 C830 1.369 . S
C831 C840 1.429 . S
C832 C830 1.419 . S
C832 C833 1.363 . S
C832 H835 0.929 . S
C833 C832 1.363 . S
C833 C839 1.428 . S
H834 C830 0.930 . S
H835 C832 0.929 . S
S836 N837 1.613 . S
S836 N838 1.610 . S
N837 S836 1.613 . S
N837 C840 1.350 . S
N838 S836 1.610 . S
N838 C839 1.351 . S
C839 C833 1.428 . S
C839 N838 1.351 . S
C839 C840 1.434 . S
C840 C831 1.429 . S
C840 N837 1.350 . S
C840 C839 1.434 . S
C841 C842 1.369 . S
C841 C843 1.419 . S
C841 H845 0.930 1_556 S
C842 C841 1.369 . S
C842 C851 1.429 . S
C843 C841 1.419 . S
C843 C844 1.363 . S
C843 H846 0.929 . S
C844 C843 1.363 . S
C844 C850 1.428 . S
H845 C841 0.930 1_554 S
H846 C843 0.929 . S
S847 N848 1.613 . S
S847 N849 1.610 . S
N848 S847 1.613 . S
N848 C851 1.350 . S
N849 S847 1.610 . S
N849 C850 1.351 . S
C850 C844 1.428 . S
C850 N849 1.351 . S
C850 C851 1.434 . S
C851 C842 1.429 . S
C851 N848 1.350 . S
C851 C850 1.434 . S
C852 C853 1.369 . S
C852 C854 1.419 . S
C852 H856 0.930 . S
C853 C852 1.369 . S
C853 C862 1.429 . S
C854 C852 1.419 . S
C854 C855 1.364 . S
C854 H857 0.929 1_554 S
C855 C854 1.364 . S
C855 C861 1.435 . S
H856 C852 0.930 . S
H857 C854 0.929 1_556 S
S858 N859 1.613 . S
S858 N860 1.610 . S
N859 S858 1.613 . S
N859 C862 1.350 . S
N860 S858 1.610 . S
N860 C861 1.351 . S
C861 C855 1.435 . S
C861 N860 1.351 . S
C861 C862 1.434 . S
C862 C853 1.429 . S
C862 N859 1.350 . S
C862 C861 1.434 . S
C863 C864 1.369 . S
C863 C865 1.419 . S
C863 H867 0.930 . S
C864 C863 1.369 . S
C864 C873 1.429 . S
C865 C863 1.419 . S
C865 C866 1.363 . S
C865 H868 0.929 . S
C866 C865 1.363 . S
C866 C872 1.428 . S
H867 C863 0.930 . S
H868 C865 0.929 . S
S869 N870 1.613 . S
S869 N871 1.610 . S
N870 S869 1.613 . S
N870 C873 1.350 . S
N871 S869 1.610 . S
N871 C872 1.351 . S
C872 C866 1.428 . S
C872 N871 1.351 . S
C872 C873 1.434 . S
C873 C864 1.429 . S
C873 N870 1.350 . S
C873 C872 1.434 . S
C874 C875 1.370 . S
C874 C876 1.419 . S
C874 H878 0.930 1_554 S
C875 C874 1.370 . S
C875 C884 1.431 . S
C876 C874 1.419 . S
C876 C877 1.363 . S
C876 H879 0.929 . S
C877 C876 1.363 . S
C877 C883 1.428 . S
H878 C874 0.930 1_556 S
H879 C876 0.929 . S
S880 N881 1.613 . S
S880 N882 1.610 . S
N881 S880 1.613 . S
N881 C884 1.350 . S
N882 S880 1.610 . S
N882 C883 1.351 . S
C883 C877 1.428 . S
C883 N882 1.351 . S
C883 C884 1.434 . S
C884 C875 1.431 . S
C884 N881 1.350 . S
C884 C883 1.434 . S
C885 C886 1.369 . S
C885 C887 1.419 . S
C885 H889 0.930 . S
C886 C885 1.369 . S
C886 C895 1.429 . S
C887 C885 1.419 . S
C887 C888 1.363 . S
C887 H890 0.929 . S
C888 C887 1.363 . S
C888 C894 1.428 . S
H889 C885 0.930 . S
H890 C887 0.929 . S
S891 N892 1.613 . S
S891 N893 1.610 1_556 S
N892 S891 1.613 . S
N892 C895 1.350 . S
N893 S891 1.610 1_554 S
N893 C894 1.351 1_554 S
C894 C888 1.428 . S
C894 N893 1.351 1_556 S
C894 C895 1.434 . S
C895 C886 1.429 . S
C895 N892 1.350 . S
C895 C894 1.434 . S
C369 C274 1.490 . S
C371 C20 1.557 . S
C380 C205 1.491 . S
C382 C42 1.586 . S
C391 C66 1.556 . S
C393 C228 1.487 . S
C402 C88 1.586 . S
C404 C251 1.487 . S
C413 C112 1.558 . S
C415 C136 1.492 . S
C424 C159 1.491 . S
C426 C134 1.586 . S
C435 C158 1.555 . S
C437 C182 1.495 . S
C446 C113 1.491 . S
C448 C180 1.586 . S
C457 C90 1.496 . S
C459 C204 1.554 . S
C468 C226 1.585 . S
C470 C21 1.482 . S
C479 C44 1.496 . S
C481 C250 1.555 . S
C490 C67 1.483 . S
C492 C272 1.585 . S
C501 C296 1.554 . S
C503 C320 1.487 . S
C512 C343 1.491 . S
C514 C318 1.586 . S
C523 C366 1.485 . S
C525 C342 1.556 . S
C534 C364 1.586 . S
C536 C297 1.484 . S
C545 C19 1.318 . S
C547 C111 1.328 . S
C556 C135 1.388 . S
C558 C43 1.386 . S
C567 C65 1.330 . S
C569 C157 1.320 . S
C578 C89 1.386 . S
C580 C181 1.393 . S
C589 C203 1.318 . S
C591 C295 1.328 . S
C600 C319 1.390 . S
C602 C227 1.392 . S
C611 C249 1.328 . S
C613 C341 1.321 . S
C622 C273 1.393 . S
C624 C365 1.385 . S
C633 C340 1.674 . S
C635 C18 1.675 1_556 S
C644 C41 1.690 1_554 S
C646 C363 1.688 . S
C655 C64 1.671 1_556 S
C657 C294 1.672 . S
C666 C87 1.686 1_554 S
C668 C317 1.688 . S
C677 C110 1.672 . S
C679 C248 1.674 . S
C688 C133 1.688 . S
C690 C271 1.689 . S
C699 C156 1.671 . S
C701 C202 1.672 . S
C710 C225 1.689 . S
C712 C179 1.687 . S
C721 C17 1.162 . S
C723 C16 1.145 . S
C732 C40 1.139 . S
C734 C39 1.142 . S
C743 C63 1.150 . S
C745 C62 1.155 . S
C754 C85 1.139 . S
C756 C86 1.143 . S
C765 C108 1.152 . S
C767 C109 1.155 . S
C776 C132 1.141 . S
C778 C131 1.140 . S
C787 C155 1.152 . S
C789 C154 1.153 . S
C798 C177 1.141 . S
C800 C178 1.142 . S
C809 C201 1.161 1_554 S
C811 C200 1.146 . S
C820 C223 1.142 . S
C822 C224 1.141 1_556 S
C831 C246 1.154 . S
C833 C247 1.153 1_554 S
C842 C270 1.147 1_556 S
C844 C269 1.134 . S
C853 C293 1.150 . S
C855 C292 1.147 1_554 S
C864 C315 1.140 1_556 S
C866 C316 1.142 . S
C875 C338 1.147 1_554 S
C877 C339 1.155 . S
C886 C362 1.146 . S
C888 C361 1.135 1_556 S
