# Generated by pormake.
# Topology ukb, (4)-cn, num edge types: 1
# Building blocks:
#     Node 0, Type 0, BuildingBlock: CEKHIL_clean_sbu_0, # of connection points: 4
#     Node 1, Type 0, BuildingBlock: CEKHIL_clean_sbu_0, # of connection points: 4
#     Node 2, Type 0, BuildingBlock: CEKHIL_clean_sbu_0, # of connection points: 4
#     Node 3, Type 0, BuildingBlock: CEKHIL_clean_sbu_0, # of connection points: 4
#     Node 4, Type 0, BuildingBlock: CEKHIL_clean_sbu_0, # of connection points: 4
#     Node 5, Type 0, BuildingBlock: CEKHIL_clean_sbu_0, # of connection points: 4
#     Node 6, Type 0, BuildingBlock: CEKHIL_clean_sbu_0, # of connection points: 4
#     Node 7, Type 0, BuildingBlock: CEKHIL_clean_sbu_0, # of connection points: 4
#     Node 8, Type 0, BuildingBlock: CEKHIL_clean_sbu_0, # of connection points: 4
#     Node 9, Type 0, BuildingBlock: CEKHIL_clean_sbu_0, # of connection points: 4
#     Node 10, Type 0, BuildingBlock: CEKHIL_clean_sbu_0, # of connection points: 4
#     Node 11, Type 0, BuildingBlock: CEKHIL_clean_sbu_0, # of connection points: 4
#     Node 12, Type 0, BuildingBlock: CEKHIL_clean_sbu_0, # of connection points: 4
#     Node 13, Type 0, BuildingBlock: CEKHIL_clean_sbu_0, # of connection points: 4
#     Node 14, Type 0, BuildingBlock: CEKHIL_clean_sbu_0, # of connection points: 4
#     Node 15, Type 0, BuildingBlock: CEKHIL_clean_sbu_0, # of connection points: 4
#     Edge 16, Type (0, 0), BuildingBlock: EZIPEK_clean_linker_0, # of connection points: 2
#     Edge 17, Type (0, 0), BuildingBlock: EZIPEK_clean_linker_0, # of connection points: 2
#     Edge 18, Type (0, 0), BuildingBlock: EZIPEK_clean_linker_0, # of connection points: 2
#     Edge 19, Type (0, 0), BuildingBlock: EZIPEK_clean_linker_0, # of connection points: 2
#     Edge 20, Type (0, 0), BuildingBlock: EZIPEK_clean_linker_0, # of connection points: 2
#     Edge 21, Type (0, 0), BuildingBlock: EZIPEK_clean_linker_0, # of connection points: 2
#     Edge 22, Type (0, 0), BuildingBlock: EZIPEK_clean_linker_0, # of connection points: 2
#     Edge 23, Type (0, 0), BuildingBlock: EZIPEK_clean_linker_0, # of connection points: 2
#     Edge 24, Type (0, 0), BuildingBlock: EZIPEK_clean_linker_0, # of connection points: 2
#     Edge 25, Type (0, 0), BuildingBlock: EZIPEK_clean_linker_0, # of connection points: 2
#     Edge 26, Type (0, 0), BuildingBlock: EZIPEK_clean_linker_0, # of connection points: 2
#     Edge 27, Type (0, 0), BuildingBlock: EZIPEK_clean_linker_0, # of connection points: 2
#     Edge 28, Type (0, 0), BuildingBlock: EZIPEK_clean_linker_0, # of connection points: 2
#     Edge 29, Type (0, 0), BuildingBlock: EZIPEK_clean_linker_0, # of connection points: 2
#     Edge 30, Type (0, 0), BuildingBlock: EZIPEK_clean_linker_0, # of connection points: 2
#     Edge 31, Type (0, 0), BuildingBlock: EZIPEK_clean_linker_0, # of connection points: 2
#     Edge 32, Type (0, 0), BuildingBlock: EZIPEK_clean_linker_0, # of connection points: 2
#     Edge 33, Type (0, 0), BuildingBlock: EZIPEK_clean_linker_0, # of connection points: 2
#     Edge 34, Type (0, 0), BuildingBlock: EZIPEK_clean_linker_0, # of connection points: 2
#     Edge 35, Type (0, 0), BuildingBlock: EZIPEK_clean_linker_0, # of connection points: 2
#     Edge 36, Type (0, 0), BuildingBlock: EZIPEK_clean_linker_0, # of connection points: 2
#     Edge 37, Type (0, 0), BuildingBlock: EZIPEK_clean_linker_0, # of connection points: 2
#     Edge 38, Type (0, 0), BuildingBlock: EZIPEK_clean_linker_0, # of connection points: 2
#     Edge 39, Type (0, 0), BuildingBlock: EZIPEK_clean_linker_0, # of connection points: 2
#     Edge 40, Type (0, 0), BuildingBlock: EZIPEK_clean_linker_0, # of connection points: 2
#     Edge 41, Type (0, 0), BuildingBlock: EZIPEK_clean_linker_0, # of connection points: 2
#     Edge 42, Type (0, 0), BuildingBlock: EZIPEK_clean_linker_0, # of connection points: 2
#     Edge 43, Type (0, 0), BuildingBlock: EZIPEK_clean_linker_0, # of connection points: 2
#     Edge 44, Type (0, 0), BuildingBlock: EZIPEK_clean_linker_0, # of connection points: 2
#     Edge 45, Type (0, 0), BuildingBlock: EZIPEK_clean_linker_0, # of connection points: 2
#     Edge 46, Type (0, 0), BuildingBlock: EZIPEK_clean_linker_0, # of connection points: 2
#     Edge 47, Type (0, 0), BuildingBlock: EZIPEK_clean_linker_0, # of connection points: 2
# Relax obj value: 0.091
# Max RMSD: 0.050
# Mean RMSD: 0.050
data_MOF--net-ukb--node1-CEKHIL_clean_sbu_0--edge1-EZIPEK_clean_linker_0
_symmetry_space_group_name_H-M    P1
_symmetry_Int_Tables_number       1
_symmetry_cell_setting            triclinic
loop_
_symmetry_equiv_pos_as_xyz
'x, y, z'
_cell_length_a     32.003806
_cell_length_b     31.993026
_cell_length_c     27.212744
_cell_angle_alpha  89.964504
_cell_angle_beta   90.024513
_cell_angle_gamma 89.995223
loop_
_atom_site_label
_atom_site_type_symbol
_atom_site_fract_x
_atom_site_fract_y
_atom_site_fract_z
_atom_type_partial_charge
Co0 Co 0.52466 0.18883 0.17752 0.0
O1 O 0.49612 0.13623 0.16948 0.0
O2 O 0.48851 0.17848 0.23306 0.0
C3 C 0.51271 0.21398 0.1015 0.0
O4 O 0.54775 0.24568 0.19856 0.0
Co5 Co 0.60332 0.20983 0.11695 0.0
O6 O 0.59946 0.26541 0.14863 0.0
C7 C 0.6106 0.15149 0.19982 0.0
C8 C 0.47831 0.14369 0.21143 0.0
C9 C 0.57453 0.27303 0.18402 0.0
O10 O 0.57225 0.15876 0.2111 0.0
O11 O 0.62827 0.1665 0.16152 0.0
O12 O 0.48428 0.21707 0.13531 0.0
O13 O 0.5454 0.1922 0.11286 0.0
Co14 Co 0.31044 0.52222 0.6759 0.0
O15 O 0.36222 0.49202 0.66916 0.0
O16 O 0.31855 0.48572 0.73163 0.0
C17 C 0.28626 0.51118 0.5992 0.0
O18 O 0.25401 0.54686 0.69564 0.0
Co19 Co 0.2921 0.60142 0.61494 0.0
O20 O 0.23508 0.59659 0.64259 0.0
C21 C 0.34905 0.60737 0.69954 0.0
C22 C 0.35335 0.47439 0.71088 0.0
C23 C 0.22665 0.57253 0.67858 0.0
O24 O 0.34133 0.56895 0.71029 0.0
O25 O 0.33458 0.62549 0.6612 0.0
O26 O 0.28179 0.48275 0.63284 0.0
O27 O 0.30874 0.54321 0.61122 0.0
Co28 Co 0.98364 0.31538 0.16785 0.0
O29 O 0.01363 0.36719 0.15992 0.0
O30 O 0.01922 0.32484 0.22389 0.0
C31 C 0.99559 0.28979 0.09222 0.0
O32 O 0.95926 0.25929 0.18952 0.0
Co33 Co 0.90514 0.29517 0.10638 0.0
O34 O 0.9011 0.24418 0.1473 0.0
C35 C 0.89786 0.35361 0.18938 0.0
C36 C 0.03051 0.35933 0.20238 0.0
C37 C 0.92736 0.2359 0.18111 0.0
O38 O 0.9364 0.34694 0.20045 0.0
O39 O 0.8803 0.33795 0.15138 0.0
O40 O 0.02365 0.28596 0.1264 0.0
O41 O 0.96327 0.31219 0.10305 0.0
Co42 Co 0.19136 0.98212 0.67455 0.0
O43 O 0.14001 0.0126 0.66565 0.0
O44 O 0.18037 0.01607 0.73189 0.0
C45 C 0.21833 0.9965 0.60006 0.0
O46 O 0.24702 0.9567 0.69641 0.0
Co47 Co 0.21281 0.90572 0.61054 0.0
O48 O 0.26845 0.90915 0.64204 0.0
C49 C 0.15363 0.89552 0.69246 0.0
C50 C 0.1469 0.02826 0.70884 0.0
C51 C 0.27517 0.93163 0.67985 0.0
O52 O 0.15935 0.93398 0.70453 0.0
O53 O 0.17027 0.87883 0.65449 0.0
O54 O 0.22167 0.02336 0.63558 0.0
O55 O 0.19572 0.96386 0.609 0.0
Co56 Co 0.51859 0.31265 0.83121 0.0
O57 O 0.48723 0.36356 0.84009 0.0
O58 O 0.48162 0.32138 0.7761 0.0
C59 C 0.50888 0.2863 0.90716 0.0
O60 O 0.54432 0.25725 0.80886 0.0
Co61 Co 0.59877 0.29479 0.89069 0.0
O62 O 0.60289 0.24322 0.85107 0.0
C63 C 0.60299 0.35296 0.80675 0.0
C64 C 0.46989 0.35556 0.79794 0.0
C65 C 0.57656 0.23429 0.81761 0.0
O66 O 0.56422 0.34586 0.7974 0.0
O67 O 0.62181 0.3372 0.84389 0.0
O68 O 0.48029 0.28186 0.8737 0.0
O69 O 0.54021 0.30983 0.89558 0.0
Co70 Co 0.19078 0.52315 0.32733 0.0
O71 O 0.13888 0.49326 0.33468 0.0
O72 O 0.18212 0.4868 0.27177 0.0
C73 C 0.21557 0.51223 0.40382 0.0
O74 O 0.24715 0.54733 0.30648 0.0
Co75 Co 0.20972 0.6025 0.38787 0.0
O76 O 0.26154 0.6058 0.34858 0.0
C77 C 0.15327 0.60877 0.3026 0.0
C78 C 0.14727 0.47588 0.29267 0.0
C79 C 0.27043 0.57923 0.31537 0.0
O80 O 0.15961 0.56991 0.29296 0.0
O81 O 0.16865 0.62691 0.3404 0.0
O82 O 0.2197 0.48372 0.37025 0.0
O83 O 0.19312 0.5443 0.39196 0.0
Co84 Co 0.98077 0.18855 0.82491 0.0
O85 O 0.01442 0.13931 0.8345 0.0
O86 O 0.01404 0.17803 0.76682 0.0
C87 C 0.99497 0.21721 0.89873 0.0
O88 O 0.95066 0.24144 0.80141 0.0
Co89 Co 0.90506 0.20767 0.89246 0.0
O90 O 0.90519 0.26276 0.85917 0.0
C91 C 0.89552 0.14816 0.80979 0.0
C92 C 0.02846 0.14573 0.79044 0.0
C93 C 0.92382 0.26782 0.81824 0.0
O94 O 0.93395 0.15353 0.79748 0.0
O95 O 0.87888 0.16512 0.84766 0.0
O96 O 0.02079 0.22213 0.86234 0.0
O97 O 0.96354 0.19294 0.89065 0.0
Co98 Co 0.3136 0.98074 0.33122 0.0
O99 O 0.36667 0.00842 0.3397 0.0
O100 O 0.3268 0.01349 0.27368 0.0
C101 C 0.28739 0.99785 0.40559 0.0
O102 O 0.25745 0.95755 0.30798 0.0
Co103 Co 0.28655 0.90738 0.39884 0.0
O104 O 0.23477 0.90657 0.35834 0.0
C105 C 0.3501 0.89353 0.32234 0.0
C106 C 0.36076 0.02457 0.29646 0.0
C107 C 0.23053 0.92956 0.3204 0.0
O108 O 0.34253 0.92975 0.30355 0.0
O109 O 0.3356 0.88165 0.36393 0.0
O110 O 0.28545 0.02435 0.36948 0.0
O111 O 0.30765 0.96385 0.3969 0.0
Co112 Co 0.47936 0.81317 0.82882 0.0
O113 O 0.50959 0.86494 0.83585 0.0
O114 O 0.51629 0.82114 0.77354 0.0
C115 C 0.48962 0.78938 0.9058 0.0
O116 O 0.45483 0.75686 0.8085 0.0
Co117 Co 0.39942 0.79495 0.88796 0.0
O118 O 0.40007 0.73973 0.85503 0.0
C119 C 0.39495 0.85279 0.80433 0.0
C120 C 0.52735 0.85606 0.79422 0.0
C121 C 0.42587 0.73109 0.82086 0.0
O122 O 0.43317 0.84418 0.79375 0.0
O123 O 0.3764 0.83874 0.84255 0.0
O124 O 0.51824 0.7845 0.87249 0.0
O125 O 0.45762 0.81168 0.89319 0.0
Co126 Co 0.69136 0.48233 0.32587 0.0
O127 O 0.6404 0.51349 0.33544 0.0
O128 O 0.68179 0.51868 0.27029 0.0
C129 C 0.71801 0.49252 0.40159 0.0
O130 O 0.74672 0.45719 0.3031 0.0
Co131 Co 0.70968 0.40222 0.38522 0.0
O132 O 0.76059 0.39807 0.34417 0.0
C133 C 0.64995 0.39791 0.30374 0.0
C134 C 0.6481 0.53046 0.29305 0.0
C135 C 0.76949 0.42475 0.31101 0.0
O136 O 0.65866 0.43606 0.29262 0.0
O137 O 0.66458 0.37949 0.34175 0.0
O138 O 0.7221 0.52103 0.36793 0.0
O139 O 0.69476 0.46091 0.39027 0.0
Co140 Co 0.02103 0.68916 0.82575 0.0
O141 O 0.9901 0.63805 0.83492 0.0
O142 O 0.98351 0.6803 0.77109 0.0
C143 C 0.01187 0.71541 0.90176 0.0
O144 O 0.0466 0.74464 0.80361 0.0
Co145 Co 0.10208 0.70486 0.88464 0.0
O146 O 0.10686 0.75583 0.84362 0.0
C147 C 0.10443 0.64668 0.80175 0.0
C148 C 0.9722 0.64601 0.79313 0.0
C149 C 0.07995 0.76618 0.81128 0.0
O150 O 0.06654 0.6567 0.79107 0.0
O151 O 0.12335 0.65974 0.84017 0.0
O152 O 0.98296 0.71967 0.86867 0.0
O153 O 0.04305 0.69174 0.8899 0.0
Co154 Co 0.81755 0.02398 0.32859 0.0
O155 O 0.8694 0.99402 0.33681 0.0
O156 O 0.82705 0.98767 0.27308 0.0
C157 C 0.79178 0.01269 0.40452 0.0
O158 O 0.76139 0.04851 0.30712 0.0
Co159 Co 0.79736 0.10293 0.38914 0.0
O160 O 0.74179 0.09989 0.35753 0.0
C161 C 0.85496 0.10968 0.30502 0.0
C162 C 0.86155 0.97655 0.29473 0.0
C163 C 0.7342 0.07541 0.32171 0.0
O164 O 0.8489 0.07085 0.29503 0.0
O165 O 0.83905 0.12775 0.34256 0.0
O166 O 0.7882 0.98431 0.37072 0.0
O167 O 0.81434 0.04485 0.39325 0.0
Co168 Co 0.48338 0.69306 0.17768 0.0
O169 O 0.51666 0.64386 0.16531 0.0
O170 O 0.51942 0.6821 0.23321 0.0
C171 C 0.49325 0.72222 0.10289 0.0
O172 O 0.45496 0.7456 0.20485 0.0
Co173 Co 0.40405 0.71418 0.11741 0.0
O174 O 0.40324 0.76715 0.15506 0.0
C175 C 0.39972 0.65095 0.19695 0.0
C176 C 0.53245 0.64976 0.20872 0.0
C177 C 0.42602 0.77171 0.19304 0.0
O178 O 0.43832 0.65726 0.20769 0.0
O179 O 0.38127 0.66867 0.1607 0.0
O180 O 0.52102 0.72712 0.13732 0.0
O181 O 0.4622 0.69819 0.11344 0.0
Co182 Co 0.81073 0.47956 0.67416 0.0
O183 O 0.86328 0.50845 0.66756 0.0
O184 O 0.82 0.51542 0.73027 0.0
C185 C 0.78705 0.49215 0.59744 0.0
O186 O 0.75389 0.456 0.69404 0.0
Co187 Co 0.7908 0.4017 0.61021 0.0
O188 O 0.73881 0.3987 0.6497 0.0
C189 C 0.84837 0.39364 0.69407 0.0
C190 C 0.85487 0.52625 0.70927 0.0
C191 C 0.73037 0.42448 0.68398 0.0
O192 O 0.8399 0.43119 0.70791 0.0
O193 O 0.8348 0.37749 0.65415 0.0
O194 O 0.78308 0.52029 0.63146 0.0
O195 O 0.80848 0.45947 0.60925 0.0
Co196 Co 0.02537 0.81533 0.17058 0.0
O197 O 0.99613 0.8677 0.16471 0.0
O198 O 0.99054 0.82434 0.22764 0.0
C199 C 0.012 0.79101 0.09442 0.0
O200 O 0.05005 0.75889 0.1894 0.0
Co201 Co 0.10271 0.79843 0.10454 0.0
O202 O 0.10831 0.7471 0.14525 0.0
C203 C 0.10983 0.85658 0.18702 0.0
C204 C 0.97929 0.85926 0.20696 0.0
C205 C 0.08276 0.7371 0.17926 0.0
O206 O 0.07411 0.84439 0.2034 0.0
O207 O 0.12345 0.84694 0.14429 0.0
O208 O 0.98419 0.78718 0.12885 0.0
O209 O 0.04426 0.81331 0.10537 0.0
Co210 Co 0.68799 0.02147 0.67239 0.0
O211 O 0.63705 0.99016 0.66345 0.0
O212 O 0.67905 0.98485 0.72769 0.0
C213 C 0.71491 0.01148 0.59675 0.0
O214 O 0.74324 0.04705 0.69504 0.0
Co215 Co 0.70597 0.10153 0.61262 0.0
O216 O 0.75634 0.10655 0.65435 0.0
C217 C 0.64745 0.10604 0.69579 0.0
C218 C 0.64493 0.97306 0.70579 0.0
C219 C 0.76556 0.07986 0.68736 0.0
O220 O 0.65487 0.0674 0.70574 0.0
O221 O 0.66284 0.12463 0.65831 0.0
O222 O 0.71895 0.98294 0.63037 0.0
O223 O 0.69128 0.04284 0.60788 0.0
C224 C 0.44596 0.10759 0.28513 0.0
C225 C 0.44788 0.11362 0.23343 0.0
C226 C 0.39809 0.05607 0.22323 0.0
C227 C 0.39088 0.0551 0.27474 0.0
N228 N 0.40022 0.09087 0.35262 0.0
N229 N 0.41471 0.10081 0.1547 0.0
C230 C 0.41252 0.08402 0.30524 0.0
C231 C 0.42072 0.09001 0.20275 0.0
N232 N 0.47676 0.1224 0.31521 0.0
N233 N 0.38524 0.02399 0.1938 0.0
H234 H 0.42735 0.12772 0.13904 0.0
H235 H 0.39267 0.08603 0.13245 0.0
H236 H 0.37194 0.99663 0.20747 0.0
H237 H 0.39288 0.02239 0.15659 0.0
H238 H 0.47773 0.11564 0.35269 0.0
H239 H 0.50391 0.13649 0.30212 0.0
H240 H 0.41351 0.1141 0.37448 0.0
H241 H 0.37343 0.07765 0.36783 0.0
C242 C 0.38735 0.44077 0.78529 0.0
C243 C 0.38185 0.44282 0.73349 0.0
C244 C 0.43804 0.39148 0.72386 0.0
C245 C 0.43887 0.38472 0.7755 0.0
N246 N 0.40358 0.39519 0.8533 0.0
N247 N 0.39386 0.40893 0.65509 0.0
C248 C 0.4103 0.40699 0.80571 0.0
C249 C 0.4047 0.41481 0.70314 0.0
N250 N 0.37289 0.47188 0.81514 0.0
N251 N 0.46988 0.37789 0.69453 0.0
H252 H 0.36741 0.42237 0.63926 0.0
H253 H 0.40803 0.38636 0.63304 0.0
H254 H 0.49705 0.36422 0.70817 0.0
H255 H 0.4716 0.3853 0.65725 0.0
H256 H 0.37939 0.4728 0.85268 0.0
H257 H 0.35934 0.49926 0.80191 0.0
H258 H 0.38054 0.40882 0.87514 0.0
H259 H 0.41695 0.36855 0.86879 0.0
C260 C 0.08976 0.41131 0.19606 0.0
C261 C 0.06084 0.38873 0.22549 0.0
C262 C 0.09428 0.41755 0.29892 0.0
C263 C 0.11797 0.44551 0.26939 0.0
N264 N 0.12747 0.47618 0.18857 0.0
N265 N 0.02852 0.38133 0.30563 0.0
C266 C 0.11272 0.44456 0.21751 0.0
C267 C 0.06096 0.39493 0.27719 0.0
N268 N 0.09689 0.40028 0.14831 0.0
N269 N 0.10434 0.41094 0.34708 0.0
H270 H 1.00144 0.36812 0.29113 0.0
H271 H 0.02629 0.38831 0.34297 0.0
H272 H 0.13074 0.42379 0.36366 0.0
H273 H 0.08951 0.38834 0.3685 0.0
H274 H 0.12019 0.41421 0.12709 0.0
H275 H 0.08362 0.37397 0.13202 0.0
H276 H 0.12123 0.47783 0.151 0.0
H277 H 0.14091 0.50331 0.20265 0.0
C278 C 0.07699 0.04448 0.74511 0.0
C279 C 0.11724 0.05841 0.73078 0.0
C280 C 0.09996 0.12969 0.75718 0.0
C281 C 0.05867 0.11634 0.76796 0.0
N282 N 0.00543 0.06307 0.76425 0.0
N283 N 0.16557 0.11483 0.71602 0.0
C284 C 0.0465 0.07425 0.7598 0.0
C285 C 0.12839 0.1012 0.73489 0.0
N286 N 0.06835 0.00262 0.7462 0.0
N287 N 0.11248 0.16907 0.76997 0.0
H288 H 0.18741 0.09479 0.70009 0.0
H289 H 0.17347 0.14627 0.71275 0.0
H290 H 0.09251 0.19089 0.78606 0.0
H291 H 0.14337 0.17914 0.7682 0.0
H292 H 0.04124 0.99018 0.76148 0.0
H293 H 0.0899 0.97986 0.73571 0.0
H294 H 0.99382 0.03404 0.75365 0.0
H295 H 0.98205 0.08408 0.77436 0.0
C296 C 0.58633 0.90818 0.8013 0.0
C297 C 0.55843 0.88487 0.77129 0.0
C298 C 0.59348 0.91337 0.6986 0.0
C299 C 0.61576 0.94219 0.72849 0.0
N300 N 0.62267 0.97377 0.80915 0.0
N301 N 0.52878 0.87554 0.68995 0.0
C302 C 0.60924 0.94161 0.78017 0.0
C303 C 0.56003 0.89026 0.71945 0.0
N304 N 0.59249 0.8977 0.84943 0.0
N305 N 0.60497 0.90653 0.65095 0.0
H306 H 0.50158 0.86189 0.70352 0.0
H307 H 0.52753 0.88193 0.6524 0.0
H308 H 0.63141 0.91998 0.63514 0.0
H309 H 0.59132 0.88333 0.62935 0.0
H310 H 0.61504 0.91219 0.87123 0.0
H311 H 0.57929 0.87127 0.86558 0.0
H312 H 0.61544 0.97564 0.84645 0.0
H313 H 0.63595 1.00102 0.79518 0.0
C314 C 0.54906 0.57777 0.23949 0.0
C315 C 0.56226 0.61945 0.23044 0.0
C316 C 0.63095 0.60354 0.26602 0.0
C317 C 0.61887 0.56108 0.27103 0.0
N318 N 0.56914 0.50601 0.2555 0.0
N319 N 0.61722 0.67095 0.22838 0.0
C320 C 0.57864 0.54769 0.25586 0.0
C321 C 0.60361 0.63212 0.24199 0.0
N322 N 0.50784 0.5673 0.23449 0.0
N323 N 0.66793 0.61685 0.28577 0.0
H324 H 0.59811 0.69269 0.21072 0.0
H325 H 0.64826 0.68046 0.23089 0.0
H326 H 0.68883 0.59677 0.30336 0.0
H327 H 0.67642 0.64818 0.28828 0.0
H328 H 0.4955 0.53881 0.24594 0.0
H329 H 0.48505 0.58841 0.22295 0.0
H330 H 0.54215 0.49389 0.23957 0.0
H331 H 0.58989 0.48297 0.26733 0.0
C332 C 0.91285 0.59445 0.80244 0.0
C333 C 0.94088 0.61671 0.77146 0.0
C334 C 0.90584 0.58602 0.70008 0.0
C335 C 0.88359 0.55803 0.73111 0.0
N336 N 0.87549 0.52964 0.8132 0.0
N337 N 0.97058 0.62343 0.68981 0.0
C338 C 0.88969 0.56048 0.78277 0.0
C339 C 0.93931 0.6097 0.71992 0.0
N340 N 0.9068 0.60648 0.85006 0.0
N341 N 0.89424 0.59162 0.65221 0.0
H342 H 0.99779 0.63749 0.70276 0.0
H343 H 0.97182 0.61583 0.65258 0.0
H344 H 0.86764 0.57797 0.63704 0.0
H345 H 0.90792 0.61419 0.6297 0.0
H346 H 0.88415 0.5929 0.87252 0.0
H347 H 0.92027 0.63326 0.86504 0.0
H348 H 0.88246 0.52891 0.85063 0.0
H349 H 0.86152 0.50231 0.80047 0.0
C350 C 0.89695 0.94445 0.22058 0.0
C351 C 0.89098 0.94575 0.27231 0.0
C352 C 0.9473 0.89436 0.28159 0.0
C353 C 0.94833 0.88822 0.22989 0.0
N354 N 0.91305 0.89952 0.15212 0.0
N355 N 0.903 0.91128 0.35044 0.0
C356 C 0.91986 0.91086 0.19984 0.0
C357 C 0.91391 0.91756 0.30248 0.0
N358 N 0.88291 0.97604 0.19111 0.0
N359 N 0.97893 0.88011 0.31086 0.0
H360 H 0.87656 0.92459 0.36636 0.0
H361 H 0.91715 0.88854 0.37231 0.0
H362 H 0.00589 0.86616 0.29708 0.0
H363 H 0.98065 0.88708 0.34824 0.0
H364 H 0.8897 0.97741 0.15366 0.0
H365 H 0.86952 0.00337 0.2047 0.0
H366 H 0.89012 0.91354 0.13042 0.0
H367 H 0.92607 0.87284 0.13639 0.0
C368 C 0.60594 0.34473 0.18948 0.0
C369 C 0.58039 0.31368 0.21141 0.0
C370 C 0.58806 0.35079 0.29024 0.0
C371 C 0.62259 0.37307 0.27049 0.0
N372 N 0.66651 0.3883 0.20023 0.0
N373 N 0.53798 0.29455 0.28179 0.0
C374 C 0.63169 0.36994 0.21961 0.0
C375 C 0.56828 0.31907 0.2615 0.0
N376 N 0.60504 0.35065 0.13982 0.0
N377 N 0.5731 0.36131 0.33565 0.0
H378 H 0.51547 0.27921 0.26093 0.0
H379 H 0.53389 0.29115 0.31955 0.0
H380 H 0.58587 0.38549 0.35654 0.0
H381 H 0.54582 0.34909 0.35069 0.0
H382 H 0.62076 0.37507 0.12244 0.0
H383 H 0.58425 0.33451 0.11721 0.0
H384 H 0.67634 0.3831 0.16423 0.0
H385 H 0.68793 0.40506 0.22114 0.0
C386 C 0.17789 0.56263 0.7527 0.0
C387 C 0.18552 0.57875 0.70469 0.0
C388 C 0.13281 0.63285 0.71707 0.0
C389 C 0.12844 0.62032 0.76682 0.0
N390 N 0.1366 0.56643 0.82787 0.0
N391 N 0.15121 0.61052 0.63521 0.0
C392 C 0.14796 0.583 0.7835 0.0
C393 C 0.15669 0.6078 0.68484 0.0
N394 N 0.19808 0.52745 0.76821 0.0
N395 N 0.11687 0.67003 0.701 0.0
H396 H 0.16562 0.58975 0.611 0.0
H397 H 0.12827 0.6292 0.6191 0.0
H398 H 0.10124 0.69088 0.72385 0.0
H399 H 0.12304 0.68204 0.66613 0.0
H400 H 0.1997 0.51795 0.80473 0.0
H401 H 0.21151 0.50635 0.7437 0.0
H402 H 0.14725 0.53794 0.84135 0.0
H403 H 0.11368 0.5799 0.85005 0.0
C404 C 0.91031 0.16395 0.29258 0.0
C405 C 0.88124 0.13565 0.27168 0.0
C406 C 0.8993 0.16312 0.19046 0.0
C407 C 0.91895 0.1983 0.2125 0.0
N408 N 0.93969 0.23296 0.28862 0.0
N409 N 0.84435 0.11208 0.19885 0.0
C410 C 0.92424 0.19878 0.26464 0.0
C411 C 0.87508 0.13568 0.21997 0.0
N412 N 0.92501 0.15735 0.33909 0.0
N413 N 0.90392 0.15572 0.14136 0.0
H414 H 0.82385 0.09328 0.21867 0.0
H415 H 0.83642 0.11463 0.16181 0.0
H416 H 0.92302 0.17413 0.11908 0.0
H417 H 0.89297 0.12863 0.1244 0.0
H418 H 0.94908 0.17499 0.35444 0.0
H419 H 0.91665 0.13121 0.35985 0.0
H420 H 0.93865 0.23594 0.32675 0.0
H421 H 0.95043 0.25986 0.27156 0.0
C422 C 0.34511 0.89637 0.68797 0.0
C423 C 0.31503 0.92395 0.70828 0.0
C424 C 0.34982 0.91589 0.78851 0.0
C425 C 0.37067 0.87984 0.77027 0.0
N426 N 0.38563 0.83401 0.70163 0.0
N427 N 0.2982 0.97034 0.77562 0.0
C428 C 0.36824 0.86991 0.71956 0.0
C429 C 0.32029 0.93711 0.75795 0.0
N430 N 0.3527 0.89658 0.63863 0.0
N431 N 0.35983 0.93086 0.8341 0.0
H432 H 0.28531 0.99297 0.75265 0.0
H433 H 0.29446 0.97663 0.81288 0.0
H434 H 0.38256 0.91706 0.8563 0.0
H435 H 0.34856 0.95881 0.84842 0.0
H436 H 0.37659 0.87918 0.62252 0.0
H437 H 0.33901 0.91851 0.61523 0.0
H438 H 0.38088 0.82386 0.66565 0.0
H439 H 0.40113 0.81221 0.7235 0.0
C440 C 0.60359 0.16082 0.80988 0.0
C441 C 0.58514 0.19633 0.78706 0.0
C442 C 0.59256 0.16069 0.70778 0.0
C443 C 0.62062 0.13158 0.72914 0.0
N444 N 0.65597 0.10716 0.80279 0.0
N445 N 0.56735 0.23143 0.7104 0.0
C446 C 0.62655 0.13191 0.78095 0.0
C447 C 0.5803 0.1965 0.73497 0.0
N448 N 0.59916 0.15451 0.85924 0.0
N449 N 0.57766 0.15419 0.66138 0.0
H450 H 0.56016 0.25962 0.72723 0.0
H451 H 0.56795 0.23368 0.67218 0.0
H452 H 0.5849 0.12739 0.64124 0.0
H453 H 0.55446 0.17277 0.64564 0.0
H454 H 0.60876 0.12714 0.87673 0.0
H455 H 0.5817 0.17438 0.8815 0.0
H456 H 0.66439 0.11026 0.83962 0.0
H457 H 0.67477 0.08623 0.78386 0.0
C458 C 0.34519 0.59574 0.20673 0.0
C459 C 0.37381 0.62365 0.22908 0.0
C460 C 0.34402 0.60547 0.30907 0.0
C461 C 0.30889 0.58711 0.28549 0.0
N462 N 0.27515 0.56863 0.20814 0.0
N463 N 0.39704 0.65862 0.3035 0.0
C464 C 0.30939 0.58247 0.23332 0.0
C465 C 0.37294 0.62903 0.28093 0.0
N466 N 0.3522 0.58196 0.15996 0.0
N467 N 0.34982 0.60051 0.35844 0.0
H468 H 0.41765 0.6783 0.28515 0.0
H469 H 0.39347 0.66648 0.34043 0.0
H470 H 0.32985 0.58257 0.38008 0.0
H471 H 0.37689 0.61016 0.3765 0.0
H472 H 0.3342 0.55873 0.14341 0.0
H473 H 0.37886 0.59024 0.14013 0.0
H474 H 0.27308 0.56987 0.16993 0.0
H475 H 0.24736 0.55939 0.22442 0.0
C476 C 0.91265 0.36491 0.73606 0.0
C477 C 0.86871 0.36465 0.72908 0.0
C478 C 0.86324 0.29854 0.77358 0.0
C479 C 0.90652 0.30037 0.78489 0.0
N480 N 0.9728 0.33577 0.7787 0.0
N481 N 0.80113 0.33655 0.75015 0.0
C482 C 0.93146 0.3337 0.76654 0.0
C483 C 0.84373 0.3331 0.75069 0.0
N484 N 0.93633 0.39417 0.71231 0.0
N485 N 0.84111 0.26266 0.78206 0.0
H486 H 0.78554 0.36166 0.73397 0.0
H487 H 0.7815 0.31678 0.76998 0.0
H488 H 0.8546 0.23556 0.79626 0.0
H489 H 0.81061 0.25812 0.76978 0.0
H490 H 0.96883 0.39372 0.71138 0.0
H491 H 0.92321 0.41802 0.69118 0.0
H492 H 0.99166 0.36157 0.77163 0.0
H493 H 0.98803 0.31201 0.79775 0.0
C494 C 0.18116 0.86169 0.22403 0.0
C495 C 0.13969 0.87729 0.22114 0.0
C496 C 0.15686 0.92856 0.28526 0.0
C497 C 0.19935 0.9159 0.28323 0.0
N498 N 0.25324 0.87871 0.23911 0.0
N499 N 0.08989 0.93078 0.24326 0.0
C500 C 0.21191 0.88531 0.24872 0.0
C501 C 0.1279 0.91226 0.2502 0.0
N502 N 0.19086 0.82289 0.20632 0.0
N503 N 0.14409 0.95563 0.32085 0.0
H504 H 0.06846 0.92042 0.21709 0.0
H505 H 0.08122 0.95864 0.2602 0.0
H506 H 0.16491 0.96873 0.3458 0.0
H507 H 0.11284 0.96273 0.32752 0.0
H508 H 0.21994 0.80895 0.21185 0.0
H509 H 0.16861 0.80244 0.19198 0.0
H510 H 0.26353 0.85914 0.21096 0.0
H511 H 0.27698 0.89594 0.25566 0.0
C512 C 0.41034 0.65506 0.71307 0.0
C513 C 0.37611 0.63242 0.73288 0.0
C514 C 0.39338 0.66 0.81414 0.0
C515 C 0.41893 0.69121 0.79238 0.0
N516 N 0.45868 0.71263 0.72044 0.0
N517 N 0.33301 0.61588 0.80342 0.0
C518 C 0.42995 0.68683 0.74175 0.0
C519 C 0.36744 0.63494 0.78391 0.0
N520 N 0.42537 0.6448 0.6676 0.0
N521 N 0.39459 0.65378 0.86375 0.0
H522 H 0.31165 0.59883 0.78263 0.0
H523 H 0.32345 0.62058 0.83961 0.0
H524 H 0.41553 0.66981 0.88632 0.0
H525 H 0.37896 0.62928 0.88109 0.0
H526 H 0.45275 0.65714 0.65288 0.0
H527 H 0.41286 0.62058 0.64657 0.0
H528 H 0.46103 0.71662 0.68254 0.0
H529 H 0.48148 0.7286 0.74007 0.0
C530 C 0.87057 0.37337 0.27394 0.0
C531 C 0.87138 0.37981 0.22229 0.0
C532 C 0.80777 0.42229 0.22826 0.0
C533 C 0.8075 0.41659 0.28032 0.0
N534 N 0.84897 0.40121 0.35232 0.0
N535 N 0.85014 0.42351 0.15455 0.0
C536 C 0.84245 0.39707 0.30299 0.0
C537 C 0.84309 0.40869 0.20091 0.0
N538 N 0.89399 0.34271 0.29545 0.0
N539 N 0.77389 0.43792 0.20383 0.0
H540 H 0.87662 0.4154 0.13429 0.0
H541 H 0.83248 0.44742 0.13883 0.0
H542 H 0.74683 0.44855 0.22062 0.0
H543 H 0.77136 0.43722 0.16564 0.0
H544 H 0.89073 0.33435 0.33228 0.0
H545 H 0.9134 0.32265 0.27602 0.0
H546 H 0.87602 0.39063 0.36971 0.0
H547 H 0.82979 0.41947 0.37457 0.0
C548 C 0.08272 0.80617 0.72951 0.0
C549 C 0.08902 0.80458 0.78146 0.0
C550 C 0.13481 0.86595 0.77595 0.0
C551 C 0.12759 0.86823 0.72454 0.0
N552 N 0.08287 0.84981 0.6567 0.0
N553 N 0.10726 0.84377 0.8543 0.0
C554 C 0.09761 0.84138 0.70278 0.0
C555 C 0.11039 0.83818 0.8047 0.0
N556 N 0.06518 0.77353 0.70456 0.0
N557 N 0.16676 0.88771 0.7973 0.0
H558 H 0.08836 0.82501 0.87636 0.0
H559 H 0.11942 0.86985 0.87227 0.0
H560 H 0.18743 0.90659 0.7778 0.0
H561 H 0.17551 0.88341 0.83386 0.0
H562 H 0.06539 0.77163 0.66632 0.0
H563 H 0.05326 0.74678 0.72089 0.0
H564 H 0.0581 0.83351 0.64085 0.0
H565 H 0.09213 0.87612 0.63679 0.0
C566 C 0.65803 0.08991 0.2141 0.0
C567 C 0.63614 0.12498 0.23316 0.0
C568 C 0.66339 0.10872 0.31478 0.0
C569 C 0.69401 0.08215 0.29367 0.0
N570 N 0.71257 0.0382 0.22448 0.0
N571 N 0.62069 0.16984 0.30251 0.0
C572 C 0.68885 0.06962 0.2437 0.0
C573 C 0.63895 0.13461 0.28391 0.0
N574 N 0.64783 0.07483 0.16862 0.0
N575 N 0.65686 0.10833 0.36435 0.0
H576 H 0.60417 0.19124 0.28114 0.0
H577 H 0.62565 0.17996 0.33845 0.0
H578 H 0.67208 0.0872 0.38744 0.0
H579 H 0.63266 0.1248 0.38115 0.0
H580 H 0.65968 0.0472 0.15407 0.0
H581 H 0.62432 0.08797 0.14699 0.0
H582 H 0.71644 0.03349 0.18689 0.0
H583 H 0.72668 0.01539 0.24613 0.0
C584 C 0.43093 0.84038 0.23944 0.0
C585 C 0.41076 0.80158 0.23078 0.0
C586 C 0.35169 0.82302 0.2821 0.0
C587 C 0.37199 0.86172 0.29192 0.0
N588 N 0.43377 0.90464 0.28717 0.0
N589 N 0.35817 0.75157 0.25461 0.0
C590 C 0.41245 0.86977 0.27248 0.0
C591 C 0.37313 0.79161 0.25557 0.0
N592 N 0.46746 0.84915 0.21576 0.0
N593 N 0.31091 0.81688 0.29546 0.0
H594 H 0.37271 0.72762 0.23521 0.0
H595 H 0.3339 0.7411 0.27695 0.0
H596 H 0.29299 0.83881 0.31423 0.0
H597 H 0.29318 0.79154 0.28351 0.0
H598 H 0.48123 0.87861 0.21506 0.0
H599 H 0.48352 0.82675 0.19548 0.0
H600 H 0.46473 0.9107 0.27799 0.0
H601 H 0.42148 0.92625 0.31193 0.0
C602 C 0.65623 0.39942 0.69258 0.0
C603 C 0.69295 0.41547 0.71509 0.0
C604 C 0.65909 0.40638 0.79506 0.0
C605 C 0.62835 0.38023 0.77349 0.0
N606 N 0.60035 0.34927 0.69876 0.0
N607 N 0.73111 0.42738 0.79123 0.0
C608 C 0.62704 0.3765 0.72133 0.0
C609 C 0.69479 0.41782 0.76732 0.0
N610 N 0.64906 0.40618 0.64375 0.0
N611 N 0.6543 0.42018 0.8422 0.0
H612 H 0.7595 0.43259 0.77371 0.0
H613 H 0.73408 0.4253 0.82932 0.0
H614 H 0.6275 0.41385 0.86275 0.0
H615 H 0.67444 0.44187 0.85824 0.0
H616 H 0.62095 0.39847 0.62663 0.0
H617 H 0.66922 0.42373 0.62189 0.0
H618 H 0.60215 0.34236 0.66139 0.0
H619 H 0.57885 0.33076 0.7172 0.0
C620 C 0.10055 0.66536 0.28986 0.0
C621 C 0.12738 0.63498 0.26883 0.0
C622 C 0.11063 0.66378 0.18757 0.0
C623 C 0.0931 0.69984 0.21002 0.0
N624 N 0.07944 0.73738 0.28608 0.0
N625 N 0.16161 0.60874 0.19534 0.0
C626 C 0.0896 0.70123 0.26215 0.0
C627 C 0.13304 0.63458 0.21691 0.0
N628 N 0.08559 0.66008 0.33645 0.0
N629 N 0.10571 0.65712 0.13835 0.0
H630 H 0.18003 0.58763 0.21457 0.0
H631 H 0.1698 0.61108 0.15837 0.0
H632 H 0.08847 0.67714 0.11593 0.0
H633 H 0.11466 0.62942 0.12116 0.0
H634 H 0.06338 0.67997 0.3519 0.0
H635 H 0.09158 0.63317 0.35699 0.0
H636 H 0.08038 0.74 0.32426 0.0
H637 H 0.07522 0.766 0.2686 0.0
C638 C 0.86605 0.13196 0.72571 0.0
C639 C 0.86774 0.12354 0.77693 0.0
C640 C 0.80376 0.08187 0.77014 0.0
C641 C 0.80339 0.0884 0.7182 0.0
N642 N 0.84437 0.10618 0.64647 0.0
N643 N 0.84636 0.07893 0.84368 0.0
C644 C 0.83802 0.10884 0.69598 0.0
C645 C 0.83933 0.09454 0.79768 0.0
N646 N 0.88848 0.16401 0.70551 0.0
N647 N 0.7696 0.06663 0.79433 0.0
H648 H 0.8728 0.08671 0.86419 0.0
H649 H 0.82857 0.05484 0.85881 0.0
H650 H 0.7419 0.058 0.77738 0.0
H651 H 0.7674 0.06625 0.83255 0.0
H652 H 0.88464 0.17347 0.66911 0.0
H653 H 0.90721 0.18425 0.7258 0.0
H654 H 0.87115 0.11777 0.62941 0.0
H655 H 0.82547 0.08821 0.62356 0.0
C656 C 0.50442 0.20576 0.01054 0.0
C657 C 0.50713 0.23252 0.05198 0.0
C658 C 0.50155 0.29394 0.9982 0.0
C659 C 0.505 0.26738 0.95668 0.0
N660 N 0.50875 0.19816 0.92195 0.0
N661 N 0.50729 0.30196 0.08654 0.0
C662 C 0.50568 0.22326 0.96242 0.0
C663 C 0.50495 0.27661 0.04621 0.0
N664 N 0.49906 0.16371 0.01742 0.0
N665 N 0.4933 0.33554 0.99153 0.0
H666 H 0.50769 0.29063 0.12239 0.0
H667 H 0.51091 0.33424 0.08474 0.0
H668 H 0.48991 0.34909 0.95688 0.0
H669 H 0.48606 0.35606 0.01992 0.0
H670 H 0.49261 0.1427 0.98927 0.0
H671 H 0.49738 0.14999 0.05215 0.0
H672 H 0.51373 0.16606 0.92351 0.0
H673 H 0.50865 0.20966 0.88613 0.0
C674 C 0.2779 0.50674 0.45989 0.0
C675 C 0.23385 0.50756 0.4536 0.0
C676 C 0.22384 0.50612 0.54303 0.0
C677 C 0.26792 0.50667 0.54938 0.0
N678 N 0.33671 0.4972 0.51536 0.0
N679 N 0.16501 0.49788 0.48743 0.0
C680 C 0.29493 0.50398 0.50816 0.0
C681 C 0.20682 0.50439 0.49474 0.0
N682 N 0.30346 0.50985 0.4198 0.0
N683 N 0.19821 0.50834 0.58311 0.0
H684 H 0.15158 0.49579 0.45258 0.0
H685 H 0.14399 0.4909 0.51541 0.0
H686 H 0.20914 0.50655 0.61906 0.0
H687 H 0.16619 0.51371 0.58109 0.0
H688 H 0.33566 0.51386 0.42187 0.0
H689 H 0.2923 0.51083 0.38386 0.0
H690 H 0.35776 0.49068 0.48728 0.0
H691 H 0.35005 0.49439 0.55019 0.0
C692 C 0.00289 0.29792 0.00134 0.0
C693 C 1.00093 0.2712 0.04287 0.0
C694 C 0.00619 0.20997 0.98914 0.0
C695 C 0.00155 0.23643 0.94765 0.0
N696 N 0.99362 0.30555 0.91355 0.0
N697 N 0.99898 0.20168 0.07725 0.0
C698 C 0.99989 0.28046 0.95348 0.0
C699 C 0.0026 0.22715 0.03712 0.0
N700 N 0.00901 0.33988 0.00771 0.0
N701 N 0.01522 0.16856 0.98252 0.0
H702 H 0.99701 0.21295 0.11308 0.0
H703 H 0.99502 0.16945 0.07496 0.0
H704 H 0.01878 0.15515 0.94782 0.0
H705 H 0.02316 0.14837 0.01105 0.0
H706 H 0.0151 0.36045 0.97893 0.0
H707 H 0.01204 0.35365 0.04228 0.0
H708 H 0.98668 0.33728 0.91593 0.0
H709 H 0.99277 0.294 0.8779 0.0
C710 C 0.22593 0.00931 0.46174 0.0
C711 C 0.26976 0.00628 0.45498 0.0
C712 C 0.28052 0.00386 0.54423 0.0
C713 C 0.23653 0.00416 0.55085 0.0
N714 N 0.16792 0.01816 0.51846 0.0
N715 N 0.33912 0.01241 0.48831 0.0
C716 C 0.20936 0.01025 0.51026 0.0
C717 C 0.29719 0.00713 0.49591 0.0
N718 N 0.20012 0.0098 0.42178 0.0
N719 N 0.30624 0.99903 0.58393 0.0
H720 H 0.35201 0.01593 0.45333 0.0
H721 H 0.36074 0.01715 0.51631 0.0
H722 H 0.29537 0.99897 0.61999 0.0
H723 H 0.33818 0.99337 0.58138 0.0
H724 H 0.1678 0.00682 0.42379 0.0
H725 H 0.21127 0.01174 0.38591 0.0
H726 H 0.14688 0.02681 0.49115 0.0
H727 H 0.15501 0.01959 0.55361 0.0
C728 C 0.49731 0.7285 0.96373 0.0
C729 C 0.49444 0.77233 0.95618 0.0
C730 C 0.49419 0.78392 0.04531 0.0
C731 C 0.49775 0.74021 0.05289 0.0
N732 N 0.5123 0.67175 0.02029 0.0
N733 N 0.50038 0.84217 0.98872 0.0
C734 C 0.50218 0.71274 0.01231 0.0
C735 C 0.49585 0.8002 0.9967 0.0
N736 N 0.4937 0.70181 0.92476 0.0
N737 N 0.48754 0.80974 0.08443 0.0
H738 H 0.50245 0.8552 0.95366 0.0
H739 H 0.50604 0.86367 0.01665 0.0
H740 H 0.48745 0.79889 0.12043 0.0
H741 H 0.47945 0.84114 0.0811 0.0
H742 H 0.49036 0.66959 0.92844 0.0
H743 H 0.49106 0.71197 0.88853 0.0
H744 H 0.52024 0.651 0.99236 0.0
H745 H 0.51665 0.65931 0.05537 0.0
C746 C 0.72533 0.49903 0.54071 0.0
C747 C 0.76928 0.49739 0.54752 0.0
C748 C 0.78003 0.49655 0.45819 0.0
C749 C 0.73605 0.49734 0.45142 0.0
N750 N 0.66739 0.50993 0.48446 0.0
N751 N 0.83861 0.50471 0.5142 0.0
C752 C 0.70884 0.50173 0.49223 0.0
C753 C 0.7967 0.49914 0.5066 0.0
N754 N 0.69931 0.49644 0.58042 0.0
N755 N 0.80575 0.49203 0.41846 0.0
H756 H 0.85174 0.5074 0.54915 0.0
H757 H 0.86002 0.51041 0.48623 0.0
H758 H 0.79481 0.49128 0.3824 0.0
H759 H 0.83772 0.48658 0.42105 0.0
H760 H 0.66708 0.49276 0.57775 0.0
H761 H 0.71006 0.49535 0.61654 0.0
H762 H 0.64654 0.51788 0.51226 0.0
H763 H 0.65439 0.51259 0.44944 0.0
C764 C 0.00474 0.79727 0.00326 0.0
C765 C 0.00732 0.77134 0.04544 0.0
C766 C 0.0051 0.70888 0.99313 0.0
C767 C 0.0083 0.73485 0.951 0.0
N768 N 0.01217 0.80364 0.91492 0.0
N769 N 0.0109 0.70257 0.08167 0.0
C770 C 0.00798 0.77905 0.95572 0.0
C771 C 0.00734 0.72713 0.04075 0.0
N772 N 0.99768 0.83919 0.00878 0.0
N773 N 0.99827 0.66694 0.98749 0.0
H774 H 0.01129 0.71454 0.11723 0.0
H775 H 0.01598 0.67046 0.08053 0.0
H776 H 0.99596 0.65258 0.95319 0.0
H777 H 0.99115 0.64683 0.01636 0.0
H778 H 0.99108 0.85933 0.97976 0.0
H779 H 0.99458 0.85344 0.04307 0.0
H780 H 0.017 0.83579 0.91619 0.0
H781 H 0.01361 0.79166 0.87938 0.0
C782 C 0.70933 0.00375 0.50546 0.0
C783 C 0.7349 0.0077 0.54779 0.0
C784 C 0.79774 0.0064 0.49601 0.0
C785 C 0.772 0.00817 0.45358 0.0
N786 N 0.70333 0.00844 0.41683 0.0
N787 N 0.80326 0.01295 0.58459 0.0
C788 C 0.72778 0.00639 0.45796 0.0
C789 C 0.77911 0.00865 0.54345 0.0
N790 N 0.66757 0.99576 0.51086 0.0
N791 N 0.83991 1.00086 0.4908 0.0
H792 H 0.79098 0.01343 0.62002 0.0
H793 H 0.83528 0.01851 0.58382 0.0
H794 H 0.8545 0.99839 0.45664 0.0
H795 H 0.86015 0.99493 0.5199 0.0
H796 H 0.64776 0.98806 0.48192 0.0
H797 H 0.65312 0.99312 0.54507 0.0
H798 H 0.67109 0.01251 0.41758 0.0
H799 H 0.7154 0.00823 0.38134 0.0
loop_
_geom_bond_atom_site_label_1
_geom_bond_atom_site_label_2
_geom_bond_distance
_geom_bond_site_symmetry_2
_ccdc_geom_bond_type
Co0 O1 2.216 . S
Co0 O2 2.091 . S
Co0 O4 2.004 . S
Co0 O10 2.021 . S
Co0 O12 2.137 . S
Co0 O13 2.244 . S
O1 Co0 2.216 . S
O1 C8 1.247 . S
O2 Co0 2.091 . S
O2 C8 1.261 . S
C3 O12 1.247 . S
C3 O13 1.272 . S
O4 Co0 2.004 . S
O4 C9 1.259 . S
Co5 O6 2.061 . S
Co5 O11 2.052 . S
Co5 O13 2.135 . S
O6 Co5 2.061 . S
O6 C9 1.235 . S
C7 O10 1.238 . S
C7 O11 1.241 . S
C8 O1 1.247 . S
C8 O2 1.261 . S
C9 O4 1.259 . S
C9 O6 1.235 . S
O10 Co0 2.021 . S
O10 C7 1.238 . S
O11 Co5 2.052 . S
O11 C7 1.241 . S
O12 Co0 2.137 . S
O12 C3 1.247 . S
O13 Co0 2.244 . S
O13 C3 1.272 . S
O13 Co5 2.135 . S
Co14 O15 2.216 . S
Co14 O16 2.091 . S
Co14 O18 2.004 . S
Co14 O24 2.021 . S
Co14 O26 2.137 . S
Co14 O27 2.244 . S
O15 Co14 2.216 . S
O15 C22 1.247 . S
O16 Co14 2.091 . S
O16 C22 1.261 . S
C17 O26 1.247 . S
C17 O27 1.272 . S
O18 Co14 2.004 . S
O18 C23 1.259 . S
Co19 O20 2.061 . S
Co19 O25 2.052 . S
Co19 O27 2.135 . S
O20 Co19 2.061 . S
O20 C23 1.235 . S
C21 O24 1.238 . S
C21 O25 1.241 . S
C22 O15 1.247 . S
C22 O16 1.261 . S
C23 O18 1.259 . S
C23 O20 1.235 . S
O24 Co14 2.021 . S
O24 C21 1.238 . S
O25 Co19 2.052 . S
O25 C21 1.241 . S
O26 Co14 2.137 . S
O26 C17 1.247 . S
O27 Co14 2.244 . S
O27 C17 1.272 . S
O27 Co19 2.135 . S
Co28 O29 2.216 1_655 S
Co28 O30 2.091 1_655 S
Co28 O32 2.004 . S
Co28 O38 2.021 . S
Co28 O40 2.137 1_655 S
Co28 O41 2.244 . S
O29 Co28 2.216 1_455 S
O29 C36 1.247 . S
O30 Co28 2.091 1_455 S
O30 C36 1.261 . S
C31 O40 1.247 1_655 S
C31 O41 1.272 . S
O32 Co28 2.004 . S
O32 C37 1.259 . S
Co33 O34 2.061 . S
Co33 O39 2.052 . S
Co33 O41 2.135 . S
O34 Co33 2.061 . S
O34 C37 1.235 . S
C35 O38 1.238 . S
C35 O39 1.241 . S
C36 O29 1.247 . S
C36 O30 1.261 . S
C37 O32 1.259 . S
C37 O34 1.235 . S
O38 Co28 2.021 . S
O38 C35 1.238 . S
O39 Co33 2.052 . S
O39 C35 1.241 . S
O40 Co28 2.137 1_455 S
O40 C31 1.247 1_455 S
O41 Co28 2.244 . S
O41 C31 1.272 . S
O41 Co33 2.135 . S
Co42 O43 2.216 1_565 S
Co42 O44 2.091 1_565 S
Co42 O46 2.004 . S
Co42 O52 2.021 . S
Co42 O54 2.137 1_565 S
Co42 O55 2.244 . S
O43 Co42 2.216 1_545 S
O43 C50 1.247 . S
O44 Co42 2.091 1_545 S
O44 C50 1.261 . S
C45 O54 1.247 1_565 S
C45 O55 1.272 . S
O46 Co42 2.004 . S
O46 C51 1.259 . S
Co47 O48 2.061 . S
Co47 O53 2.052 . S
Co47 O55 2.135 . S
O48 Co47 2.061 . S
O48 C51 1.235 . S
C49 O52 1.238 . S
C49 O53 1.241 . S
C50 O43 1.247 . S
C50 O44 1.261 . S
C51 O46 1.259 . S
C51 O48 1.235 . S
O52 Co42 2.021 . S
O52 C49 1.238 . S
O53 Co47 2.052 . S
O53 C49 1.241 . S
O54 Co42 2.137 1_545 S
O54 C45 1.247 1_545 S
O55 Co42 2.244 . S
O55 C45 1.272 . S
O55 Co47 2.135 . S
Co56 O57 2.216 . S
Co56 O58 2.091 . S
Co56 O60 2.004 . S
Co56 O66 2.021 . S
Co56 O68 2.137 . S
Co56 O69 2.244 . S
O57 Co56 2.216 . S
O57 C64 1.247 . S
O58 Co56 2.091 . S
O58 C64 1.261 . S
C59 O68 1.247 . S
C59 O69 1.272 . S
O60 Co56 2.004 . S
O60 C65 1.259 . S
Co61 O62 2.061 . S
Co61 O67 2.052 . S
Co61 O69 2.135 . S
O62 Co61 2.061 . S
O62 C65 1.235 . S
C63 O66 1.238 . S
C63 O67 1.241 . S
C64 O57 1.247 . S
C64 O58 1.261 . S
C65 O60 1.259 . S
C65 O62 1.235 . S
O66 Co56 2.021 . S
O66 C63 1.238 . S
O67 Co61 2.052 . S
O67 C63 1.241 . S
O68 Co56 2.137 . S
O68 C59 1.247 . S
O69 Co56 2.244 . S
O69 C59 1.272 . S
O69 Co61 2.135 . S
Co70 O71 2.216 . S
Co70 O72 2.091 . S
Co70 O74 2.004 . S
Co70 O80 2.021 . S
Co70 O82 2.137 . S
Co70 O83 2.244 . S
O71 Co70 2.216 . S
O71 C78 1.247 . S
O72 Co70 2.091 . S
O72 C78 1.261 . S
C73 O82 1.247 . S
C73 O83 1.272 . S
O74 Co70 2.004 . S
O74 C79 1.259 . S
Co75 O76 2.061 . S
Co75 O81 2.052 . S
Co75 O83 2.135 . S
O76 Co75 2.061 . S
O76 C79 1.235 . S
C77 O80 1.238 . S
C77 O81 1.241 . S
C78 O71 1.247 . S
C78 O72 1.261 . S
C79 O74 1.259 . S
C79 O76 1.235 . S
O80 Co70 2.021 . S
O80 C77 1.238 . S
O81 Co75 2.052 . S
O81 C77 1.241 . S
O82 Co70 2.137 . S
O82 C73 1.247 . S
O83 Co70 2.244 . S
O83 C73 1.272 . S
O83 Co75 2.135 . S
Co84 O85 2.216 1_655 S
Co84 O86 2.091 1_655 S
Co84 O88 2.004 . S
Co84 O94 2.021 . S
Co84 O96 2.137 1_655 S
Co84 O97 2.244 . S
O85 Co84 2.216 1_455 S
O85 C92 1.247 . S
O86 Co84 2.091 1_455 S
O86 C92 1.261 . S
C87 O96 1.247 1_655 S
C87 O97 1.272 . S
O88 Co84 2.004 . S
O88 C93 1.259 . S
Co89 O90 2.061 . S
Co89 O95 2.052 . S
Co89 O97 2.135 . S
O90 Co89 2.061 . S
O90 C93 1.235 . S
C91 O94 1.238 . S
C91 O95 1.241 . S
C92 O85 1.247 . S
C92 O86 1.261 . S
C93 O88 1.259 . S
C93 O90 1.235 . S
O94 Co84 2.021 . S
O94 C91 1.238 . S
O95 Co89 2.052 . S
O95 C91 1.241 . S
O96 Co84 2.137 1_455 S
O96 C87 1.247 1_455 S
O97 Co84 2.244 . S
O97 C87 1.272 . S
O97 Co89 2.135 . S
Co98 O99 2.216 1_565 S
Co98 O100 2.091 1_565 S
Co98 O102 2.004 . S
Co98 O108 2.021 . S
Co98 O110 2.137 1_565 S
Co98 O111 2.244 . S
O99 Co98 2.216 1_545 S
O99 C106 1.247 . S
O100 Co98 2.091 1_545 S
O100 C106 1.261 . S
C101 O110 1.247 1_565 S
C101 O111 1.272 . S
O102 Co98 2.004 . S
O102 C107 1.259 . S
Co103 O104 2.061 . S
Co103 O109 2.052 . S
Co103 O111 2.135 . S
O104 Co103 2.061 . S
O104 C107 1.235 . S
C105 O108 1.238 . S
C105 O109 1.241 . S
C106 O99 1.247 . S
C106 O100 1.261 . S
C107 O102 1.259 . S
C107 O104 1.235 . S
O108 Co98 2.021 . S
O108 C105 1.238 . S
O109 Co103 2.052 . S
O109 C105 1.241 . S
O110 Co98 2.137 1_545 S
O110 C101 1.247 1_545 S
O111 Co98 2.244 . S
O111 C101 1.272 . S
O111 Co103 2.135 . S
Co112 O113 2.216 . S
Co112 O114 2.091 . S
Co112 O116 2.004 . S
Co112 O122 2.021 . S
Co112 O124 2.137 . S
Co112 O125 2.244 . S
O113 Co112 2.216 . S
O113 C120 1.247 . S
O114 Co112 2.091 . S
O114 C120 1.261 . S
C115 O124 1.247 . S
C115 O125 1.272 . S
O116 Co112 2.004 . S
O116 C121 1.259 . S
Co117 O118 2.061 . S
Co117 O123 2.052 . S
Co117 O125 2.135 . S
O118 Co117 2.061 . S
O118 C121 1.235 . S
C119 O122 1.238 . S
C119 O123 1.241 . S
C120 O113 1.247 . S
C120 O114 1.261 . S
C121 O116 1.259 . S
C121 O118 1.235 . S
O122 Co112 2.021 . S
O122 C119 1.238 . S
O123 Co117 2.052 . S
O123 C119 1.241 . S
O124 Co112 2.137 . S
O124 C115 1.247 . S
O125 Co112 2.244 . S
O125 C115 1.272 . S
O125 Co117 2.135 . S
Co126 O127 2.216 . S
Co126 O128 2.091 . S
Co126 O130 2.004 . S
Co126 O136 2.021 . S
Co126 O138 2.137 . S
Co126 O139 2.244 . S
O127 Co126 2.216 . S
O127 C134 1.247 . S
O128 Co126 2.091 . S
O128 C134 1.261 . S
C129 O138 1.247 . S
C129 O139 1.272 . S
O130 Co126 2.004 . S
O130 C135 1.259 . S
Co131 O132 2.061 . S
Co131 O137 2.052 . S
Co131 O139 2.135 . S
O132 Co131 2.061 . S
O132 C135 1.235 . S
C133 O136 1.238 . S
C133 O137 1.241 . S
C134 O127 1.247 . S
C134 O128 1.261 . S
C135 O130 1.259 . S
C135 O132 1.235 . S
O136 Co126 2.021 . S
O136 C133 1.238 . S
O137 Co131 2.052 . S
O137 C133 1.241 . S
O138 Co126 2.137 . S
O138 C129 1.247 . S
O139 Co126 2.244 . S
O139 C129 1.272 . S
O139 Co131 2.135 . S
Co140 O141 2.216 1_455 S
Co140 O142 2.091 1_455 S
Co140 O144 2.004 . S
Co140 O150 2.021 . S
Co140 O152 2.137 1_455 S
Co140 O153 2.244 . S
O141 Co140 2.216 1_655 S
O141 C148 1.247 . S
O142 Co140 2.091 1_655 S
O142 C148 1.261 . S
C143 O152 1.247 1_455 S
C143 O153 1.272 . S
O144 Co140 2.004 . S
O144 C149 1.259 . S
Co145 O146 2.061 . S
Co145 O151 2.052 . S
Co145 O153 2.135 . S
O146 Co145 2.061 . S
O146 C149 1.235 . S
C147 O150 1.238 . S
C147 O151 1.241 . S
C148 O141 1.247 . S
C148 O142 1.261 . S
C149 O144 1.259 . S
C149 O146 1.235 . S
O150 Co140 2.021 . S
O150 C147 1.238 . S
O151 Co145 2.052 . S
O151 C147 1.241 . S
O152 Co140 2.137 1_655 S
O152 C143 1.247 1_655 S
O153 Co140 2.244 . S
O153 C143 1.272 . S
O153 Co145 2.135 . S
Co154 O155 2.216 1_545 S
Co154 O156 2.091 1_545 S
Co154 O158 2.004 . S
Co154 O164 2.021 . S
Co154 O166 2.137 1_545 S
Co154 O167 2.244 . S
O155 Co154 2.216 1_565 S
O155 C162 1.247 . S
O156 Co154 2.091 1_565 S
O156 C162 1.261 . S
C157 O166 1.247 1_545 S
C157 O167 1.272 . S
O158 Co154 2.004 . S
O158 C163 1.259 . S
Co159 O160 2.061 . S
Co159 O165 2.052 . S
Co159 O167 2.135 . S
O160 Co159 2.061 . S
O160 C163 1.235 . S
C161 O164 1.238 . S
C161 O165 1.241 . S
C162 O155 1.247 . S
C162 O156 1.261 . S
C163 O158 1.259 . S
C163 O160 1.235 . S
O164 Co154 2.021 . S
O164 C161 1.238 . S
O165 Co159 2.052 . S
O165 C161 1.241 . S
O166 Co154 2.137 1_565 S
O166 C157 1.247 1_565 S
O167 Co154 2.244 . S
O167 C157 1.272 . S
O167 Co159 2.135 . S
Co168 O169 2.216 . S
Co168 O170 2.091 . S
Co168 O172 2.004 . S
Co168 O178 2.021 . S
Co168 O180 2.137 . S
Co168 O181 2.244 . S
O169 Co168 2.216 . S
O169 C176 1.247 . S
O170 Co168 2.091 . S
O170 C176 1.261 . S
C171 O180 1.247 . S
C171 O181 1.272 . S
O172 Co168 2.004 . S
O172 C177 1.259 . S
Co173 O174 2.061 . S
Co173 O179 2.052 . S
Co173 O181 2.135 . S
O174 Co173 2.061 . S
O174 C177 1.235 . S
C175 O178 1.238 . S
C175 O179 1.241 . S
C176 O169 1.247 . S
C176 O170 1.261 . S
C177 O172 1.259 . S
C177 O174 1.235 . S
O178 Co168 2.021 . S
O178 C175 1.238 . S
O179 Co173 2.052 . S
O179 C175 1.241 . S
O180 Co168 2.137 . S
O180 C171 1.247 . S
O181 Co168 2.244 . S
O181 C171 1.272 . S
O181 Co173 2.135 . S
Co182 O183 2.216 . S
Co182 O184 2.091 . S
Co182 O186 2.004 . S
Co182 O192 2.021 . S
Co182 O194 2.137 . S
Co182 O195 2.244 . S
O183 Co182 2.216 . S
O183 C190 1.247 . S
O184 Co182 2.091 . S
O184 C190 1.261 . S
C185 O194 1.247 . S
C185 O195 1.272 . S
O186 Co182 2.004 . S
O186 C191 1.259 . S
Co187 O188 2.061 . S
Co187 O193 2.052 . S
Co187 O195 2.135 . S
O188 Co187 2.061 . S
O188 C191 1.235 . S
C189 O192 1.238 . S
C189 O193 1.241 . S
C190 O183 1.247 . S
C190 O184 1.261 . S
C191 O186 1.259 . S
C191 O188 1.235 . S
O192 Co182 2.021 . S
O192 C189 1.238 . S
O193 Co187 2.052 . S
O193 C189 1.241 . S
O194 Co182 2.137 . S
O194 C185 1.247 . S
O195 Co182 2.244 . S
O195 C185 1.272 . S
O195 Co187 2.135 . S
Co196 O197 2.216 1_455 S
Co196 O198 2.091 1_455 S
Co196 O200 2.004 . S
Co196 O206 2.021 . S
Co196 O208 2.137 1_455 S
Co196 O209 2.244 . S
O197 Co196 2.216 1_655 S
O197 C204 1.247 . S
O198 Co196 2.091 1_655 S
O198 C204 1.261 . S
C199 O208 1.247 1_455 S
C199 O209 1.272 . S
O200 Co196 2.004 . S
O200 C205 1.259 . S
Co201 O202 2.061 . S
Co201 O207 2.052 . S
Co201 O209 2.135 . S
O202 Co201 2.061 . S
O202 C205 1.235 . S
C203 O206 1.238 . S
C203 O207 1.241 . S
C204 O197 1.247 . S
C204 O198 1.261 . S
C205 O200 1.259 . S
C205 O202 1.235 . S
O206 Co196 2.021 . S
O206 C203 1.238 . S
O207 Co201 2.052 . S
O207 C203 1.241 . S
O208 Co196 2.137 1_655 S
O208 C199 1.247 1_655 S
O209 Co196 2.244 . S
O209 C199 1.272 . S
O209 Co201 2.135 . S
Co210 O211 2.216 1_545 S
Co210 O212 2.091 1_545 S
Co210 O214 2.004 . S
Co210 O220 2.021 . S
Co210 O222 2.137 1_545 S
Co210 O223 2.244 . S
O211 Co210 2.216 1_565 S
O211 C218 1.247 . S
O212 Co210 2.091 1_565 S
O212 C218 1.261 . S
C213 O222 1.247 1_545 S
C213 O223 1.272 . S
O214 Co210 2.004 . S
O214 C219 1.259 . S
Co215 O216 2.061 . S
Co215 O221 2.052 . S
Co215 O223 2.135 . S
O216 Co215 2.061 . S
O216 C219 1.235 . S
C217 O220 1.238 . S
C217 O221 1.241 . S
C218 O211 1.247 . S
C218 O212 1.261 . S
C219 O214 1.259 . S
C219 O216 1.235 . S
O220 Co210 2.021 . S
O220 C217 1.238 . S
O221 Co215 2.052 . S
O221 C217 1.241 . S
O222 Co210 2.137 1_565 S
O222 C213 1.247 1_565 S
O223 Co210 2.244 . S
O223 C213 1.272 . S
O223 Co215 2.135 . S
C224 C225 1.363 . S
C224 C230 1.379 . S
C224 N232 1.356 . S
C225 C224 1.363 . S
C225 C231 1.363 . S
C226 C227 1.363 . S
C226 C231 1.379 . S
C226 N233 1.356 . S
C227 C226 1.363 . S
C227 C230 1.363 . S
N228 C230 1.356 . S
N228 H240 0.984 . S
N228 H241 0.985 . S
N229 C231 1.356 . S
N229 H234 0.984 . S
N229 H235 0.985 . S
C230 C224 1.379 . S
C230 C227 1.363 . S
C230 N228 1.356 . S
C231 C225 1.363 . S
C231 C226 1.379 . S
C231 N229 1.356 . S
N232 C224 1.356 . S
N232 H238 0.984 . S
N232 H239 0.984 . S
N233 C226 1.356 . S
N233 H236 0.984 . S
N233 H237 0.985 . S
H234 N229 0.984 . S
H235 N229 0.985 . S
H236 N233 0.984 . S
H237 N233 0.985 . S
H238 N232 0.984 . S
H239 N232 0.984 . S
H240 N228 0.984 . S
H241 N228 0.985 . S
C242 C243 1.363 . S
C242 C248 1.379 . S
C242 N250 1.356 . S
C243 C242 1.363 . S
C243 C249 1.363 . S
C244 C245 1.363 . S
C244 C249 1.379 . S
C244 N251 1.356 . S
C245 C244 1.363 . S
C245 C248 1.363 . S
N246 C248 1.356 . S
N246 H258 0.984 . S
N246 H259 0.985 . S
N247 C249 1.356 . S
N247 H252 0.984 . S
N247 H253 0.985 . S
C248 C242 1.379 . S
C248 C245 1.363 . S
C248 N246 1.356 . S
C249 C243 1.363 . S
C249 C244 1.379 . S
C249 N247 1.356 . S
N250 C242 1.356 . S
N250 H256 0.984 . S
N250 H257 0.984 . S
N251 C244 1.356 . S
N251 H254 0.984 . S
N251 H255 0.985 . S
H252 N247 0.984 . S
H253 N247 0.985 . S
H254 N251 0.984 . S
H255 N251 0.985 . S
H256 N250 0.984 . S
H257 N250 0.984 . S
H258 N246 0.984 . S
H259 N246 0.985 . S
C260 C261 1.363 . S
C260 C266 1.379 . S
C260 N268 1.356 . S
C261 C260 1.363 . S
C261 C267 1.363 . S
C262 C263 1.363 . S
C262 C267 1.379 . S
C262 N269 1.356 . S
C263 C262 1.363 . S
C263 C266 1.363 . S
N264 C266 1.356 . S
N264 H276 0.984 . S
N264 H277 0.985 . S
N265 C267 1.356 . S
N265 H270 0.984 . S
N265 H271 0.985 . S
C266 C260 1.379 . S
C266 C263 1.363 . S
C266 N264 1.356 . S
C267 C261 1.363 . S
C267 C262 1.379 . S
C267 N265 1.356 . S
N268 C260 1.356 . S
N268 H274 0.984 . S
N268 H275 0.984 . S
N269 C262 1.356 . S
N269 H272 0.984 . S
N269 H273 0.985 . S
H270 N265 0.984 . S
H271 N265 0.985 . S
H272 N269 0.984 . S
H273 N269 0.985 . S
H274 N268 0.984 . S
H275 N268 0.984 . S
H276 N264 0.984 . S
H277 N264 0.985 . S
C278 C279 1.363 . S
C278 C284 1.379 . S
C278 N286 1.356 . S
C279 C278 1.363 . S
C279 C285 1.363 . S
C280 C281 1.363 . S
C280 C285 1.379 . S
C280 N287 1.356 . S
C281 C280 1.363 . S
C281 C284 1.363 . S
N282 C284 1.356 . S
N282 H294 0.984 . S
N282 H295 0.985 . S
N283 C285 1.356 . S
N283 H288 0.984 . S
N283 H289 0.985 . S
C284 C278 1.379 . S
C284 C281 1.363 . S
C284 N282 1.356 . S
C285 C279 1.363 . S
C285 C280 1.379 . S
C285 N283 1.356 . S
N286 C278 1.356 . S
N286 H292 0.984 . S
N286 H293 0.984 . S
N287 C280 1.356 . S
N287 H290 0.984 . S
N287 H291 0.985 . S
H288 N283 0.984 . S
H289 N283 0.985 . S
H290 N287 0.984 . S
H291 N287 0.985 . S
H292 N286 0.984 . S
H293 N286 0.984 . S
H294 N282 0.984 . S
H295 N282 0.985 . S
C296 C297 1.363 . S
C296 C302 1.379 . S
C296 N304 1.356 . S
C297 C296 1.363 . S
C297 C303 1.363 . S
C298 C299 1.363 . S
C298 C303 1.379 . S
C298 N305 1.356 . S
C299 C298 1.363 . S
C299 C302 1.363 . S
N300 C302 1.356 . S
N300 H312 0.984 . S
N300 H313 0.985 . S
N301 C303 1.356 . S
N301 H306 0.984 . S
N301 H307 0.985 . S
C302 C296 1.379 . S
C302 C299 1.363 . S
C302 N300 1.356 . S
C303 C297 1.363 . S
C303 C298 1.379 . S
C303 N301 1.356 . S
N304 C296 1.356 . S
N304 H310 0.984 . S
N304 H311 0.984 . S
N305 C298 1.356 . S
N305 H308 0.984 . S
N305 H309 0.985 . S
H306 N301 0.984 . S
H307 N301 0.985 . S
H308 N305 0.984 . S
H309 N305 0.985 . S
H310 N304 0.984 . S
H311 N304 0.984 . S
H312 N300 0.984 . S
H313 N300 0.985 . S
C314 C315 1.363 . S
C314 C320 1.379 . S
C314 N322 1.356 . S
C315 C314 1.363 . S
C315 C321 1.363 . S
C316 C317 1.363 . S
C316 C321 1.379 . S
C316 N323 1.356 . S
C317 C316 1.363 . S
C317 C320 1.363 . S
N318 C320 1.356 . S
N318 H330 0.984 . S
N318 H331 0.985 . S
N319 C321 1.356 . S
N319 H324 0.984 . S
N319 H325 0.985 . S
C320 C314 1.379 . S
C320 C317 1.363 . S
C320 N318 1.356 . S
C321 C315 1.363 . S
C321 C316 1.379 . S
C321 N319 1.356 . S
N322 C314 1.356 . S
N322 H328 0.984 . S
N322 H329 0.984 . S
N323 C316 1.356 . S
N323 H326 0.984 . S
N323 H327 0.985 . S
H324 N319 0.984 . S
H325 N319 0.985 . S
H326 N323 0.984 . S
H327 N323 0.985 . S
H328 N322 0.984 . S
H329 N322 0.984 . S
H330 N318 0.984 . S
H331 N318 0.985 . S
C332 C333 1.363 . S
C332 C338 1.379 . S
C332 N340 1.356 . S
C333 C332 1.363 . S
C333 C339 1.363 . S
C334 C335 1.363 . S
C334 C339 1.379 . S
C334 N341 1.356 . S
C335 C334 1.363 . S
C335 C338 1.363 . S
N336 C338 1.356 . S
N336 H348 0.984 . S
N336 H349 0.985 . S
N337 C339 1.356 . S
N337 H342 0.984 . S
N337 H343 0.985 . S
C338 C332 1.379 . S
C338 C335 1.363 . S
C338 N336 1.356 . S
C339 C333 1.363 . S
C339 C334 1.379 . S
C339 N337 1.356 . S
N340 C332 1.356 . S
N340 H346 0.984 . S
N340 H347 0.984 . S
N341 C334 1.356 . S
N341 H344 0.984 . S
N341 H345 0.985 . S
H342 N337 0.984 . S
H343 N337 0.985 . S
H344 N341 0.984 . S
H345 N341 0.985 . S
H346 N340 0.984 . S
H347 N340 0.984 . S
H348 N336 0.984 . S
H349 N336 0.985 . S
C350 C351 1.363 . S
C350 C356 1.379 . S
C350 N358 1.356 . S
C351 C350 1.363 . S
C351 C357 1.363 . S
C352 C353 1.363 . S
C352 C357 1.379 . S
C352 N359 1.356 . S
C353 C352 1.363 . S
C353 C356 1.363 . S
N354 C356 1.356 . S
N354 H366 0.984 . S
N354 H367 0.985 . S
N355 C357 1.356 . S
N355 H360 0.984 . S
N355 H361 0.985 . S
C356 C350 1.379 . S
C356 C353 1.363 . S
C356 N354 1.356 . S
C357 C351 1.363 . S
C357 C352 1.379 . S
C357 N355 1.356 . S
N358 C350 1.356 . S
N358 H364 0.984 . S
N358 H365 0.984 . S
N359 C352 1.356 . S
N359 H362 0.984 . S
N359 H363 0.985 . S
H360 N355 0.984 . S
H361 N355 0.985 . S
H362 N359 0.984 . S
H363 N359 0.985 . S
H364 N358 0.984 . S
H365 N358 0.984 . S
H366 N354 0.984 . S
H367 N354 0.985 . S
C368 C369 1.363 . S
C368 C374 1.379 . S
C368 N376 1.356 . S
C369 C368 1.363 . S
C369 C375 1.363 . S
C370 C371 1.363 . S
C370 C375 1.379 . S
C370 N377 1.356 . S
C371 C370 1.363 . S
C371 C374 1.363 . S
N372 C374 1.356 . S
N372 H384 0.984 . S
N372 H385 0.985 . S
N373 C375 1.356 . S
N373 H378 0.984 . S
N373 H379 0.985 . S
C374 C368 1.379 . S
C374 C371 1.363 . S
C374 N372 1.356 . S
C375 C369 1.363 . S
C375 C370 1.379 . S
C375 N373 1.356 . S
N376 C368 1.356 . S
N376 H382 0.984 . S
N376 H383 0.984 . S
N377 C370 1.356 . S
N377 H380 0.984 . S
N377 H381 0.985 . S
H378 N373 0.984 . S
H379 N373 0.985 . S
H380 N377 0.984 . S
H381 N377 0.985 . S
H382 N376 0.984 . S
H383 N376 0.984 . S
H384 N372 0.984 . S
H385 N372 0.985 . S
C386 C387 1.363 . S
C386 C392 1.379 . S
C386 N394 1.356 . S
C387 C386 1.363 . S
C387 C393 1.363 . S
C388 C389 1.363 . S
C388 C393 1.379 . S
C388 N395 1.356 . S
C389 C388 1.363 . S
C389 C392 1.363 . S
N390 C392 1.356 . S
N390 H402 0.984 . S
N390 H403 0.985 . S
N391 C393 1.356 . S
N391 H396 0.984 . S
N391 H397 0.985 . S
C392 C386 1.379 . S
C392 C389 1.363 . S
C392 N390 1.356 . S
C393 C387 1.363 . S
C393 C388 1.379 . S
C393 N391 1.356 . S
N394 C386 1.356 . S
N394 H400 0.984 . S
N394 H401 0.984 . S
N395 C388 1.356 . S
N395 H398 0.984 . S
N395 H399 0.985 . S
H396 N391 0.984 . S
H397 N391 0.985 . S
H398 N395 0.984 . S
H399 N395 0.985 . S
H400 N394 0.984 . S
H401 N394 0.984 . S
H402 N390 0.984 . S
H403 N390 0.985 . S
C404 C405 1.363 . S
C404 C410 1.379 . S
C404 N412 1.356 . S
C405 C404 1.363 . S
C405 C411 1.363 . S
C406 C407 1.363 . S
C406 C411 1.379 . S
C406 N413 1.356 . S
C407 C406 1.363 . S
C407 C410 1.363 . S
N408 C410 1.356 . S
N408 H420 0.984 . S
N408 H421 0.985 . S
N409 C411 1.356 . S
N409 H414 0.984 . S
N409 H415 0.985 . S
C410 C404 1.379 . S
C410 C407 1.363 . S
C410 N408 1.356 . S
C411 C405 1.363 . S
C411 C406 1.379 . S
C411 N409 1.356 . S
N412 C404 1.356 . S
N412 H418 0.984 . S
N412 H419 0.984 . S
N413 C406 1.356 . S
N413 H416 0.984 . S
N413 H417 0.985 . S
H414 N409 0.984 . S
H415 N409 0.985 . S
H416 N413 0.984 . S
H417 N413 0.985 . S
H418 N412 0.984 . S
H419 N412 0.984 . S
H420 N408 0.984 . S
H421 N408 0.985 . S
C422 C423 1.363 . S
C422 C428 1.379 . S
C422 N430 1.356 . S
C423 C422 1.363 . S
C423 C429 1.363 . S
C424 C425 1.363 . S
C424 C429 1.379 . S
C424 N431 1.356 . S
C425 C424 1.363 . S
C425 C428 1.363 . S
N426 C428 1.356 . S
N426 H438 0.984 . S
N426 H439 0.985 . S
N427 C429 1.356 . S
N427 H432 0.984 . S
N427 H433 0.985 . S
C428 C422 1.379 . S
C428 C425 1.363 . S
C428 N426 1.356 . S
C429 C423 1.363 . S
C429 C424 1.379 . S
C429 N427 1.356 . S
N430 C422 1.356 . S
N430 H436 0.984 . S
N430 H437 0.984 . S
N431 C424 1.356 . S
N431 H434 0.984 . S
N431 H435 0.985 . S
H432 N427 0.984 . S
H433 N427 0.985 . S
H434 N431 0.984 . S
H435 N431 0.985 . S
H436 N430 0.984 . S
H437 N430 0.984 . S
H438 N426 0.984 . S
H439 N426 0.985 . S
C440 C441 1.363 . S
C440 C446 1.379 . S
C440 N448 1.356 . S
C441 C440 1.363 . S
C441 C447 1.363 . S
C442 C443 1.363 . S
C442 C447 1.379 . S
C442 N449 1.356 . S
C443 C442 1.363 . S
C443 C446 1.363 . S
N444 C446 1.356 . S
N444 H456 0.984 . S
N444 H457 0.985 . S
N445 C447 1.356 . S
N445 H450 0.984 . S
N445 H451 0.985 . S
C446 C440 1.379 . S
C446 C443 1.363 . S
C446 N444 1.356 . S
C447 C441 1.363 . S
C447 C442 1.379 . S
C447 N445 1.356 . S
N448 C440 1.356 . S
N448 H454 0.984 . S
N448 H455 0.984 . S
N449 C442 1.356 . S
N449 H452 0.984 . S
N449 H453 0.985 . S
H450 N445 0.984 . S
H451 N445 0.985 . S
H452 N449 0.984 . S
H453 N449 0.985 . S
H454 N448 0.984 . S
H455 N448 0.984 . S
H456 N444 0.984 . S
H457 N444 0.985 . S
C458 C459 1.363 . S
C458 C464 1.379 . S
C458 N466 1.356 . S
C459 C458 1.363 . S
C459 C465 1.363 . S
C460 C461 1.363 . S
C460 C465 1.379 . S
C460 N467 1.356 . S
C461 C460 1.363 . S
C461 C464 1.363 . S
N462 C464 1.356 . S
N462 H474 0.984 . S
N462 H475 0.985 . S
N463 C465 1.356 . S
N463 H468 0.984 . S
N463 H469 0.985 . S
C464 C458 1.379 . S
C464 C461 1.363 . S
C464 N462 1.356 . S
C465 C459 1.363 . S
C465 C460 1.379 . S
C465 N463 1.356 . S
N466 C458 1.356 . S
N466 H472 0.984 . S
N466 H473 0.984 . S
N467 C460 1.356 . S
N467 H470 0.984 . S
N467 H471 0.985 . S
H468 N463 0.984 . S
H469 N463 0.985 . S
H470 N467 0.984 . S
H471 N467 0.985 . S
H472 N466 0.984 . S
H473 N466 0.984 . S
H474 N462 0.984 . S
H475 N462 0.985 . S
C476 C477 1.363 . S
C476 C482 1.379 . S
C476 N484 1.356 . S
C477 C476 1.363 . S
C477 C483 1.363 . S
C478 C479 1.363 . S
C478 C483 1.379 . S
C478 N485 1.356 . S
C479 C478 1.363 . S
C479 C482 1.363 . S
N480 C482 1.356 . S
N480 H492 0.984 . S
N480 H493 0.985 . S
N481 C483 1.356 . S
N481 H486 0.984 . S
N481 H487 0.985 . S
C482 C476 1.379 . S
C482 C479 1.363 . S
C482 N480 1.356 . S
C483 C477 1.363 . S
C483 C478 1.379 . S
C483 N481 1.356 . S
N484 C476 1.356 . S
N484 H490 0.984 . S
N484 H491 0.984 . S
N485 C478 1.356 . S
N485 H488 0.984 . S
N485 H489 0.985 . S
H486 N481 0.984 . S
H487 N481 0.985 . S
H488 N485 0.984 . S
H489 N485 0.985 . S
H490 N484 0.984 . S
H491 N484 0.984 . S
H492 N480 0.984 . S
H493 N480 0.985 . S
C494 C495 1.363 . S
C494 C500 1.379 . S
C494 N502 1.356 . S
C495 C494 1.363 . S
C495 C501 1.363 . S
C496 C497 1.363 . S
C496 C501 1.379 . S
C496 N503 1.356 . S
C497 C496 1.363 . S
C497 C500 1.363 . S
N498 C500 1.356 . S
N498 H510 0.984 . S
N498 H511 0.985 . S
N499 C501 1.356 . S
N499 H504 0.984 . S
N499 H505 0.985 . S
C500 C494 1.379 . S
C500 C497 1.363 . S
C500 N498 1.356 . S
C501 C495 1.363 . S
C501 C496 1.379 . S
C501 N499 1.356 . S
N502 C494 1.356 . S
N502 H508 0.984 . S
N502 H509 0.984 . S
N503 C496 1.356 . S
N503 H506 0.984 . S
N503 H507 0.985 . S
H504 N499 0.984 . S
H505 N499 0.985 . S
H506 N503 0.984 . S
H507 N503 0.985 . S
H508 N502 0.984 . S
H509 N502 0.984 . S
H510 N498 0.984 . S
H511 N498 0.985 . S
C512 C513 1.363 . S
C512 C518 1.379 . S
C512 N520 1.356 . S
C513 C512 1.363 . S
C513 C519 1.363 . S
C514 C515 1.363 . S
C514 C519 1.379 . S
C514 N521 1.356 . S
C515 C514 1.363 . S
C515 C518 1.363 . S
N516 C518 1.356 . S
N516 H528 0.984 . S
N516 H529 0.985 . S
N517 C519 1.356 . S
N517 H522 0.984 . S
N517 H523 0.985 . S
C518 C512 1.379 . S
C518 C515 1.363 . S
C518 N516 1.356 . S
C519 C513 1.363 . S
C519 C514 1.379 . S
C519 N517 1.356 . S
N520 C512 1.356 . S
N520 H526 0.984 . S
N520 H527 0.984 . S
N521 C514 1.356 . S
N521 H524 0.984 . S
N521 H525 0.985 . S
H522 N517 0.984 . S
H523 N517 0.985 . S
H524 N521 0.984 . S
H525 N521 0.985 . S
H526 N520 0.984 . S
H527 N520 0.984 . S
H528 N516 0.984 . S
H529 N516 0.985 . S
C530 C531 1.363 . S
C530 C536 1.379 . S
C530 N538 1.356 . S
C531 C530 1.363 . S
C531 C537 1.363 . S
C532 C533 1.363 . S
C532 C537 1.379 . S
C532 N539 1.356 . S
C533 C532 1.363 . S
C533 C536 1.363 . S
N534 C536 1.356 . S
N534 H546 0.984 . S
N534 H547 0.985 . S
N535 C537 1.356 . S
N535 H540 0.984 . S
N535 H541 0.985 . S
C536 C530 1.379 . S
C536 C533 1.363 . S
C536 N534 1.356 . S
C537 C531 1.363 . S
C537 C532 1.379 . S
C537 N535 1.356 . S
N538 C530 1.356 . S
N538 H544 0.984 . S
N538 H545 0.984 . S
N539 C532 1.356 . S
N539 H542 0.984 . S
N539 H543 0.985 . S
H540 N535 0.984 . S
H541 N535 0.985 . S
H542 N539 0.984 . S
H543 N539 0.985 . S
H544 N538 0.984 . S
H545 N538 0.984 . S
H546 N534 0.984 . S
H547 N534 0.985 . S
C548 C549 1.363 . S
C548 C554 1.379 . S
C548 N556 1.356 . S
C549 C548 1.363 . S
C549 C555 1.363 . S
C550 C551 1.363 . S
C550 C555 1.379 . S
C550 N557 1.356 . S
C551 C550 1.363 . S
C551 C554 1.363 . S
N552 C554 1.356 . S
N552 H564 0.984 . S
N552 H565 0.985 . S
N553 C555 1.356 . S
N553 H558 0.984 . S
N553 H559 0.985 . S
C554 C548 1.379 . S
C554 C551 1.363 . S
C554 N552 1.356 . S
C555 C549 1.363 . S
C555 C550 1.379 . S
C555 N553 1.356 . S
N556 C548 1.356 . S
N556 H562 0.984 . S
N556 H563 0.984 . S
N557 C550 1.356 . S
N557 H560 0.984 . S
N557 H561 0.985 . S
H558 N553 0.984 . S
H559 N553 0.985 . S
H560 N557 0.984 . S
H561 N557 0.985 . S
H562 N556 0.984 . S
H563 N556 0.984 . S
H564 N552 0.984 . S
H565 N552 0.985 . S
C566 C567 1.363 . S
C566 C572 1.379 . S
C566 N574 1.356 . S
C567 C566 1.363 . S
C567 C573 1.363 . S
C568 C569 1.363 . S
C568 C573 1.379 . S
C568 N575 1.356 . S
C569 C568 1.363 . S
C569 C572 1.363 . S
N570 C572 1.356 . S
N570 H582 0.984 . S
N570 H583 0.985 . S
N571 C573 1.356 . S
N571 H576 0.984 . S
N571 H577 0.985 . S
C572 C566 1.379 . S
C572 C569 1.363 . S
C572 N570 1.356 . S
C573 C567 1.363 . S
C573 C568 1.379 . S
C573 N571 1.356 . S
N574 C566 1.356 . S
N574 H580 0.984 . S
N574 H581 0.984 . S
N575 C568 1.356 . S
N575 H578 0.984 . S
N575 H579 0.985 . S
H576 N571 0.984 . S
H577 N571 0.985 . S
H578 N575 0.984 . S
H579 N575 0.985 . S
H580 N574 0.984 . S
H581 N574 0.984 . S
H582 N570 0.984 . S
H583 N570 0.985 . S
C584 C585 1.363 . S
C584 C590 1.379 . S
C584 N592 1.356 . S
C585 C584 1.363 . S
C585 C591 1.363 . S
C586 C587 1.363 . S
C586 C591 1.379 . S
C586 N593 1.356 . S
C587 C586 1.363 . S
C587 C590 1.363 . S
N588 C590 1.356 . S
N588 H600 0.984 . S
N588 H601 0.985 . S
N589 C591 1.356 . S
N589 H594 0.984 . S
N589 H595 0.985 . S
C590 C584 1.379 . S
C590 C587 1.363 . S
C590 N588 1.356 . S
C591 C585 1.363 . S
C591 C586 1.379 . S
C591 N589 1.356 . S
N592 C584 1.356 . S
N592 H598 0.984 . S
N592 H599 0.984 . S
N593 C586 1.356 . S
N593 H596 0.984 . S
N593 H597 0.985 . S
H594 N589 0.984 . S
H595 N589 0.985 . S
H596 N593 0.984 . S
H597 N593 0.985 . S
H598 N592 0.984 . S
H599 N592 0.984 . S
H600 N588 0.984 . S
H601 N588 0.985 . S
C602 C603 1.363 . S
C602 C608 1.379 . S
C602 N610 1.356 . S
C603 C602 1.363 . S
C603 C609 1.363 . S
C604 C605 1.363 . S
C604 C609 1.379 . S
C604 N611 1.356 . S
C605 C604 1.363 . S
C605 C608 1.363 . S
N606 C608 1.356 . S
N606 H618 0.984 . S
N606 H619 0.985 . S
N607 C609 1.356 . S
N607 H612 0.984 . S
N607 H613 0.985 . S
C608 C602 1.379 . S
C608 C605 1.363 . S
C608 N606 1.356 . S
C609 C603 1.363 . S
C609 C604 1.379 . S
C609 N607 1.356 . S
N610 C602 1.356 . S
N610 H616 0.984 . S
N610 H617 0.984 . S
N611 C604 1.356 . S
N611 H614 0.984 . S
N611 H615 0.985 . S
H612 N607 0.984 . S
H613 N607 0.985 . S
H614 N611 0.984 . S
H615 N611 0.985 . S
H616 N610 0.984 . S
H617 N610 0.984 . S
H618 N606 0.984 . S
H619 N606 0.985 . S
C620 C621 1.363 . S
C620 C626 1.379 . S
C620 N628 1.356 . S
C621 C620 1.363 . S
C621 C627 1.363 . S
C622 C623 1.363 . S
C622 C627 1.379 . S
C622 N629 1.356 . S
C623 C622 1.363 . S
C623 C626 1.363 . S
N624 C626 1.356 . S
N624 H636 0.984 . S
N624 H637 0.985 . S
N625 C627 1.356 . S
N625 H630 0.984 . S
N625 H631 0.985 . S
C626 C620 1.379 . S
C626 C623 1.363 . S
C626 N624 1.356 . S
C627 C621 1.363 . S
C627 C622 1.379 . S
C627 N625 1.356 . S
N628 C620 1.356 . S
N628 H634 0.984 . S
N628 H635 0.984 . S
N629 C622 1.356 . S
N629 H632 0.984 . S
N629 H633 0.985 . S
H630 N625 0.984 . S
H631 N625 0.985 . S
H632 N629 0.984 . S
H633 N629 0.985 . S
H634 N628 0.984 . S
H635 N628 0.984 . S
H636 N624 0.984 . S
H637 N624 0.985 . S
C638 C639 1.363 . S
C638 C644 1.379 . S
C638 N646 1.356 . S
C639 C638 1.363 . S
C639 C645 1.363 . S
C640 C641 1.363 . S
C640 C645 1.379 . S
C640 N647 1.356 . S
C641 C640 1.363 . S
C641 C644 1.363 . S
N642 C644 1.356 . S
N642 H654 0.984 . S
N642 H655 0.985 . S
N643 C645 1.356 . S
N643 H648 0.984 . S
N643 H649 0.985 . S
C644 C638 1.379 . S
C644 C641 1.363 . S
C644 N642 1.356 . S
C645 C639 1.363 . S
C645 C640 1.379 . S
C645 N643 1.356 . S
N646 C638 1.356 . S
N646 H652 0.984 . S
N646 H653 0.984 . S
N647 C640 1.356 . S
N647 H650 0.984 . S
N647 H651 0.985 . S
H648 N643 0.984 . S
H649 N643 0.985 . S
H650 N647 0.984 . S
H651 N647 0.985 . S
H652 N646 0.984 . S
H653 N646 0.984 . S
H654 N642 0.984 . S
H655 N642 0.985 . S
C656 C657 1.363 . S
C656 C662 1.379 1_554 S
C656 N664 1.356 . S
C657 C656 1.363 . S
C657 C663 1.363 . S
C658 C659 1.363 . S
C658 C663 1.379 1_556 S
C658 N665 1.356 . S
C659 C658 1.363 . S
C659 C662 1.363 . S
N660 C662 1.356 . S
N660 H672 0.984 . S
N660 H673 0.985 . S
N661 C663 1.356 . S
N661 H666 0.984 . S
N661 H667 0.985 . S
C662 C656 1.379 1_556 S
C662 C659 1.363 . S
C662 N660 1.356 . S
C663 C657 1.363 . S
C663 C658 1.379 1_554 S
C663 N661 1.356 . S
N664 C656 1.356 . S
N664 H670 0.984 . S
N664 H671 0.984 . S
N665 C658 1.356 . S
N665 H668 0.984 . S
N665 H669 0.985 . S
H666 N661 0.984 . S
H667 N661 0.985 . S
H668 N665 0.984 . S
H669 N665 0.985 . S
H670 N664 0.984 . S
H671 N664 0.984 . S
H672 N660 0.984 . S
H673 N660 0.985 . S
C674 C675 1.363 . S
C674 C680 1.379 . S
C674 N682 1.356 . S
C675 C674 1.363 . S
C675 C681 1.363 . S
C676 C677 1.363 . S
C676 C681 1.379 . S
C676 N683 1.356 . S
C677 C676 1.363 . S
C677 C680 1.363 . S
N678 C680 1.356 . S
N678 H690 0.984 . S
N678 H691 0.985 . S
N679 C681 1.356 . S
N679 H684 0.984 . S
N679 H685 0.985 . S
C680 C674 1.379 . S
C680 C677 1.363 . S
C680 N678 1.356 . S
C681 C675 1.363 . S
C681 C676 1.379 . S
C681 N679 1.356 . S
N682 C674 1.356 . S
N682 H688 0.984 . S
N682 H689 0.984 . S
N683 C676 1.356 . S
N683 H686 0.984 . S
N683 H687 0.985 . S
H684 N679 0.984 . S
H685 N679 0.985 . S
H686 N683 0.984 . S
H687 N683 0.985 . S
H688 N682 0.984 . S
H689 N682 0.984 . S
H690 N678 0.984 . S
H691 N678 0.985 . S
C692 C693 1.363 . S
C692 C698 1.379 1_554 S
C692 N700 1.356 . S
C693 C692 1.363 . S
C693 C699 1.363 1_655 S
C694 C695 1.363 1_455 S
C694 C699 1.379 1_556 S
C694 N701 1.356 . S
C695 C694 1.363 1_655 S
C695 C698 1.363 . S
N696 C698 1.356 . S
N696 H708 0.984 . S
N696 H709 0.985 . S
N697 C699 1.356 . S
N697 H702 0.984 . S
N697 H703 0.985 . S
C698 C692 1.379 1_556 S
C698 C695 1.363 . S
C698 N696 1.356 . S
C699 C693 1.363 1_455 S
C699 C694 1.379 1_554 S
C699 N697 1.356 . S
N700 C692 1.356 . S
N700 H706 0.984 . S
N700 H707 0.984 . S
N701 C694 1.356 . S
N701 H704 0.984 . S
N701 H705 0.985 . S
H702 N697 0.984 . S
H703 N697 0.985 . S
H704 N701 0.984 . S
H705 N701 0.985 . S
H706 N700 0.984 . S
H707 N700 0.984 . S
H708 N696 0.984 . S
H709 N696 0.985 . S
C710 C711 1.363 . S
C710 C716 1.379 . S
C710 N718 1.356 . S
C711 C710 1.363 . S
C711 C717 1.363 1_565 S
C712 C713 1.363 1_545 S
C712 C717 1.379 . S
C712 N719 1.356 . S
C713 C712 1.363 1_565 S
C713 C716 1.363 . S
N714 C716 1.356 . S
N714 H726 0.984 . S
N714 H727 0.985 . S
N715 C717 1.356 . S
N715 H720 0.984 . S
N715 H721 0.985 . S
C716 C710 1.379 . S
C716 C713 1.363 . S
C716 N714 1.356 . S
C717 C711 1.363 1_545 S
C717 C712 1.379 . S
C717 N715 1.356 . S
N718 C710 1.356 . S
N718 H724 0.984 . S
N718 H725 0.984 . S
N719 C712 1.356 . S
N719 H722 0.984 . S
N719 H723 0.985 . S
H720 N715 0.984 . S
H721 N715 0.985 . S
H722 N719 0.984 . S
H723 N719 0.985 . S
H724 N718 0.984 . S
H725 N718 0.984 . S
H726 N714 0.984 . S
H727 N714 0.985 . S
C728 C729 1.363 . S
C728 C734 1.379 1_556 S
C728 N736 1.356 . S
C729 C728 1.363 . S
C729 C735 1.363 . S
C730 C731 1.363 . S
C730 C735 1.379 1_554 S
C730 N737 1.356 . S
C731 C730 1.363 . S
C731 C734 1.363 . S
N732 C734 1.356 . S
N732 H744 0.984 . S
N732 H745 0.985 . S
N733 C735 1.356 . S
N733 H738 0.984 . S
N733 H739 0.985 . S
C734 C728 1.379 1_554 S
C734 C731 1.363 . S
C734 N732 1.356 . S
C735 C729 1.363 . S
C735 C730 1.379 1_556 S
C735 N733 1.356 . S
N736 C728 1.356 . S
N736 H742 0.984 . S
N736 H743 0.984 . S
N737 C730 1.356 . S
N737 H740 0.984 . S
N737 H741 0.985 . S
H738 N733 0.984 . S
H739 N733 0.985 . S
H740 N737 0.984 . S
H741 N737 0.985 . S
H742 N736 0.984 . S
H743 N736 0.984 . S
H744 N732 0.984 . S
H745 N732 0.985 . S
C746 C747 1.363 . S
C746 C752 1.379 . S
C746 N754 1.356 . S
C747 C746 1.363 . S
C747 C753 1.363 . S
C748 C749 1.363 . S
C748 C753 1.379 . S
C748 N755 1.356 . S
C749 C748 1.363 . S
C749 C752 1.363 . S
N750 C752 1.356 . S
N750 H762 0.984 . S
N750 H763 0.985 . S
N751 C753 1.356 . S
N751 H756 0.984 . S
N751 H757 0.985 . S
C752 C746 1.379 . S
C752 C749 1.363 . S
C752 N750 1.356 . S
C753 C747 1.363 . S
C753 C748 1.379 . S
C753 N751 1.356 . S
N754 C746 1.356 . S
N754 H760 0.984 . S
N754 H761 0.984 . S
N755 C748 1.356 . S
N755 H758 0.984 . S
N755 H759 0.985 . S
H756 N751 0.984 . S
H757 N751 0.985 . S
H758 N755 0.984 . S
H759 N755 0.985 . S
H760 N754 0.984 . S
H761 N754 0.984 . S
H762 N750 0.984 . S
H763 N750 0.985 . S
C764 C765 1.363 1_655 S
C764 C770 1.379 1_554 S
C764 N772 1.356 . S
C765 C764 1.363 1_455 S
C765 C771 1.363 . S
C766 C767 1.363 . S
C766 C771 1.379 1_556 S
C766 N773 1.356 . S
C767 C766 1.363 . S
C767 C770 1.363 1_455 S
N768 C770 1.356 . S
N768 H780 0.984 . S
N768 H781 0.985 . S
N769 C771 1.356 . S
N769 H774 0.984 . S
N769 H775 0.985 . S
C770 C764 1.379 1_556 S
C770 C767 1.363 1_655 S
C770 N768 1.356 . S
C771 C765 1.363 . S
C771 C766 1.379 1_554 S
C771 N769 1.356 . S
N772 C764 1.356 . S
N772 H778 0.984 . S
N772 H779 0.984 . S
N773 C766 1.356 . S
N773 H776 0.984 . S
N773 H777 0.985 . S
H774 N769 0.984 . S
H775 N769 0.985 . S
H776 N773 0.984 . S
H777 N773 0.985 . S
H778 N772 0.984 . S
H779 N772 0.984 . S
H780 N768 0.984 . S
H781 N768 0.985 . S
C782 C783 1.363 . S
C782 C788 1.379 . S
C782 N790 1.356 . S
C783 C782 1.363 . S
C783 C789 1.363 1_545 S
C784 C785 1.363 1_565 S
C784 C789 1.379 . S
C784 N791 1.356 . S
C785 C784 1.363 1_545 S
C785 C788 1.363 . S
N786 C788 1.356 . S
N786 H798 0.984 . S
N786 H799 0.985 . S
N787 C789 1.356 . S
N787 H792 0.984 . S
N787 H793 0.985 . S
C788 C782 1.379 . S
C788 C785 1.363 . S
C788 N786 1.356 . S
C789 C783 1.363 1_565 S
C789 C784 1.379 . S
C789 N787 1.356 . S
N790 C782 1.356 . S
N790 H796 0.984 . S
N790 H797 0.984 . S
N791 C784 1.356 . S
N791 H794 0.984 . S
N791 H795 0.985 . S
H792 N787 0.984 . S
H793 N787 0.985 . S
H794 N791 0.984 . S
H795 N791 0.985 . S
H796 N790 0.984 . S
H797 N790 0.984 . S
H798 N786 0.984 . S
H799 N786 0.985 . S
C225 C8 1.385 . S
C227 C106 1.385 . S
C243 C22 1.385 . S
C245 C64 1.385 . S
C261 C36 1.385 . S
C263 C78 1.385 . S
C279 C50 1.385 . S
C281 C92 1.385 . S
C297 C120 1.385 . S
C299 C218 1.385 . S
C315 C176 1.385 . S
C317 C134 1.385 . S
C333 C148 1.385 . S
C335 C190 1.385 . S
C351 C162 1.385 . S
C353 C204 1.385 . S
C369 C9 1.442 . S
C371 C133 1.475 . S
C387 C23 1.442 . S
C389 C147 1.475 . S
C405 C161 1.475 . S
C407 C37 1.442 . S
C423 C51 1.442 . S
C425 C119 1.475 . S
C441 C65 1.442 . S
C443 C217 1.475 . S
C459 C175 1.475 . S
C461 C79 1.442 . S
C477 C189 1.475 . S
C479 C93 1.442 . S
C495 C203 1.475 . S
C497 C107 1.442 . S
C513 C21 1.475 . S
C515 C121 1.442 . S
C531 C35 1.475 . S
C533 C135 1.442 . S
C549 C149 1.442 . S
C551 C49 1.475 . S
C567 C7 1.475 . S
C569 C163 1.442 . S
C585 C177 1.442 . S
C587 C105 1.475 . S
C603 C191 1.442 . S
C605 C63 1.475 . S
C621 C77 1.475 . S
C623 C205 1.442 . S
C639 C91 1.475 . S
C641 C219 1.442 . S
C657 C3 1.598 . S
C659 C59 1.598 . S
C675 C73 1.598 . S
C677 C17 1.598 . S
C693 C31 1.598 . S
C695 C87 1.598 . S
C711 C101 1.598 . S
C713 C45 1.598 . S
C729 C115 1.598 . S
C731 C171 1.598 . S
C747 C185 1.598 . S
C749 C129 1.598 . S
C765 C199 1.598 . S
C767 C143 1.598 . S
C783 C213 1.598 . S
C785 C157 1.598 . S
