# Generated by pormake.
# Topology ghw, (5)-cn, num edge types: 1
# Building blocks:
#     Node 0, Type 0, BuildingBlock: XOMCOT_clean_sbu_1, # of connection points: 5
#     Node 1, Type 0, BuildingBlock: XOMCOT_clean_sbu_1, # of connection points: 5
#     Node 2, Type 0, BuildingBlock: XOMCOT_clean_sbu_1, # of connection points: 5
#     Node 3, Type 0, BuildingBlock: XOMCOT_clean_sbu_1, # of connection points: 5
#     Node 4, Type 0, BuildingBlock: XOMCOT_clean_sbu_1, # of connection points: 5
#     Node 5, Type 0, BuildingBlock: XOMCOT_clean_sbu_1, # of connection points: 5
#     Node 6, Type 0, BuildingBlock: XOMCOT_clean_sbu_1, # of connection points: 5
#     Node 7, Type 0, BuildingBlock: XOMCOT_clean_sbu_1, # of connection points: 5
#     Node 8, Type 0, BuildingBlock: XOMCOT_clean_sbu_1, # of connection points: 5
#     Node 9, Type 0, BuildingBlock: XOMCOT_clean_sbu_1, # of connection points: 5
#     Node 10, Type 0, BuildingBlock: XOMCOT_clean_sbu_1, # of connection points: 5
#     Node 11, Type 0, BuildingBlock: XOMCOT_clean_sbu_1, # of connection points: 5
#     Node 12, Type 0, BuildingBlock: XOMCOT_clean_sbu_1, # of connection points: 5
#     Node 13, Type 0, BuildingBlock: XOMCOT_clean_sbu_1, # of connection points: 5
#     Node 14, Type 0, BuildingBlock: XOMCOT_clean_sbu_1, # of connection points: 5
#     Node 15, Type 0, BuildingBlock: XOMCOT_clean_sbu_1, # of connection points: 5
#     Edge 16, Type (0, 0), BuildingBlock: TEMPAE_clean_linker_10, # of connection points: 2
#     Edge 17, Type (0, 0), BuildingBlock: TEMPAE_clean_linker_10, # of connection points: 2
#     Edge 18, Type (0, 0), BuildingBlock: TEMPAE_clean_linker_10, # of connection points: 2
#     Edge 19, Type (0, 0), BuildingBlock: TEMPAE_clean_linker_10, # of connection points: 2
#     Edge 20, Type (0, 0), BuildingBlock: TEMPAE_clean_linker_10, # of connection points: 2
#     Edge 21, Type (0, 0), BuildingBlock: TEMPAE_clean_linker_10, # of connection points: 2
#     Edge 22, Type (0, 0), BuildingBlock: TEMPAE_clean_linker_10, # of connection points: 2
#     Edge 23, Type (0, 0), BuildingBlock: TEMPAE_clean_linker_10, # of connection points: 2
#     Edge 24, Type (0, 0), BuildingBlock: TEMPAE_clean_linker_10, # of connection points: 2
#     Edge 25, Type (0, 0), BuildingBlock: TEMPAE_clean_linker_10, # of connection points: 2
#     Edge 26, Type (0, 0), BuildingBlock: TEMPAE_clean_linker_10, # of connection points: 2
#     Edge 27, Type (0, 0), BuildingBlock: TEMPAE_clean_linker_10, # of connection points: 2
#     Edge 28, Type (0, 0), BuildingBlock: TEMPAE_clean_linker_10, # of connection points: 2
#     Edge 29, Type (0, 0), BuildingBlock: TEMPAE_clean_linker_10, # of connection points: 2
#     Edge 30, Type (0, 0), BuildingBlock: TEMPAE_clean_linker_10, # of connection points: 2
#     Edge 31, Type (0, 0), BuildingBlock: TEMPAE_clean_linker_10, # of connection points: 2
#     Edge 32, Type (0, 0), BuildingBlock: TEMPAE_clean_linker_10, # of connection points: 2
#     Edge 33, Type (0, 0), BuildingBlock: TEMPAE_clean_linker_10, # of connection points: 2
#     Edge 34, Type (0, 0), BuildingBlock: TEMPAE_clean_linker_10, # of connection points: 2
#     Edge 35, Type (0, 0), BuildingBlock: TEMPAE_clean_linker_10, # of connection points: 2
#     Edge 36, Type (0, 0), BuildingBlock: TEMPAE_clean_linker_10, # of connection points: 2
#     Edge 37, Type (0, 0), BuildingBlock: TEMPAE_clean_linker_10, # of connection points: 2
#     Edge 38, Type (0, 0), BuildingBlock: TEMPAE_clean_linker_10, # of connection points: 2
#     Edge 39, Type (0, 0), BuildingBlock: TEMPAE_clean_linker_10, # of connection points: 2
#     Edge 40, Type (0, 0), BuildingBlock: TEMPAE_clean_linker_10, # of connection points: 2
#     Edge 41, Type (0, 0), BuildingBlock: TEMPAE_clean_linker_10, # of connection points: 2
#     Edge 42, Type (0, 0), BuildingBlock: TEMPAE_clean_linker_10, # of connection points: 2
#     Edge 43, Type (0, 0), BuildingBlock: TEMPAE_clean_linker_10, # of connection points: 2
#     Edge 44, Type (0, 0), BuildingBlock: TEMPAE_clean_linker_10, # of connection points: 2
#     Edge 45, Type (0, 0), BuildingBlock: TEMPAE_clean_linker_10, # of connection points: 2
#     Edge 46, Type (0, 0), BuildingBlock: TEMPAE_clean_linker_10, # of connection points: 2
#     Edge 47, Type (0, 0), BuildingBlock: TEMPAE_clean_linker_10, # of connection points: 2
#     Edge 48, Type (0, 0), BuildingBlock: TEMPAE_clean_linker_10, # of connection points: 2
#     Edge 49, Type (0, 0), BuildingBlock: TEMPAE_clean_linker_10, # of connection points: 2
#     Edge 50, Type (0, 0), BuildingBlock: TEMPAE_clean_linker_10, # of connection points: 2
#     Edge 51, Type (0, 0), BuildingBlock: TEMPAE_clean_linker_10, # of connection points: 2
#     Edge 52, Type (0, 0), BuildingBlock: TEMPAE_clean_linker_10, # of connection points: 2
#     Edge 53, Type (0, 0), BuildingBlock: TEMPAE_clean_linker_10, # of connection points: 2
#     Edge 54, Type (0, 0), BuildingBlock: TEMPAE_clean_linker_10, # of connection points: 2
#     Edge 55, Type (0, 0), BuildingBlock: TEMPAE_clean_linker_10, # of connection points: 2
# Relax obj value: 0.211
# Max RMSD: 0.215
# Mean RMSD: 0.215
data_MOF--net-ghw--node1-XOMCOT_clean_sbu_1--edge1-TEMPAE_clean_linker_10
_symmetry_space_group_name_H-M    P1
_symmetry_Int_Tables_number       1
_symmetry_cell_setting            triclinic
loop_
_symmetry_equiv_pos_as_xyz
'x, y, z'
_cell_length_a     33.459305
_cell_length_b     42.261491
_cell_length_c     34.885006
_cell_angle_alpha  90.085237
_cell_angle_beta   92.718157
_cell_angle_gamma 89.904991
loop_
_atom_site_label
_atom_site_type_symbol
_atom_site_fract_x
_atom_site_fract_y
_atom_site_fract_z
_atom_type_partial_charge
C0 C 0.1725 0.09877 0.36199 0.0
C1 C 0.21015 0.08599 0.36045 0.0
N2 N 0.2357 0.10401 0.38202 0.0
N3 N 0.17408 0.12468 0.38453 0.0
C4 C 0.21299 0.12735 0.39633 0.0
H5 H 0.1458 0.09023 0.34668 0.0
Co6 Co 0.13019 0.15044 0.39222 0.0
C7 C 0.16257 0.21163 0.42073 0.0
O8 O 0.13711 0.22522 0.39604 0.0
N9 N 0.08526 0.17566 0.40056 0.0
C10 C 0.03925 0.20105 0.43286 0.0
C11 C 0.07626 0.18703 0.43534 0.0
C12 C 0.05292 0.18278 0.37758 0.0
N13 N 0.02451 0.19821 0.39645 0.0
O14 O 0.11732 0.12584 0.437 0.0
H15 H 0.09479 0.18408 0.46135 0.0
H16 H 0.04912 0.1757 0.34803 0.0
O17 O 0.16393 0.18127 0.42292 0.0
C18 C 0.09272 0.10452 0.42463 0.0
O19 O 0.08356 0.10349 0.38761 0.0
N20 N 0.13946 0.17052 0.34516 0.0
C21 C 0.14287 0.1906 0.26912 0.0
C22 C 0.17209 0.20037 0.29691 0.0
C23 C 0.17027 0.18952 0.3349 0.0
C24 C 0.11375 0.15843 0.31752 0.0
C25 C 0.11405 0.1688 0.27979 0.0
H26 H 0.19394 0.19593 0.35555 0.0
H27 H 0.09265 0.14036 0.32494 0.0
H28 H 0.22455 0.14617 0.4147 0.0
H29 H 0.21826 0.06569 0.34352 0.0
H30 H 0.02338 0.21055 0.45663 0.0
H31 H 0.19611 0.21597 0.28931 0.0
H32 H 0.09249 0.15908 0.25883 0.0
C33 C 0.091 0.07314 0.8851 0.0
C34 C 0.05214 0.06425 0.89032 0.0
N35 N 0.02808 0.08856 0.87972 0.0
N36 N 0.09138 0.1029 0.87121 0.0
C37 C 0.05256 0.11168 0.86829 0.0
H38 H 0.1173 0.05912 0.89233 0.0
Co39 Co 0.13679 0.12689 0.86441 0.0
C40 C 0.1096 0.18765 0.82777 0.0
O41 O 0.13844 0.20238 0.84741 0.0
N42 N 0.18312 0.15037 0.8574 0.0
C43 C 0.23367 0.17302 0.82905 0.0
C44 C 0.19818 0.15721 0.82318 0.0
C45 C 0.21001 0.16227 0.88354 0.0
N46 N 0.24121 0.17625 0.86719 0.0
O47 O 0.14953 0.10129 0.82048 0.0
H48 H 0.18447 0.15072 0.79559 0.0
H49 H 0.20714 0.16023 0.91401 0.0
O50 O 0.105 0.1577 0.83206 0.0
C51 C 0.17411 0.0798 0.83244 0.0
O52 O 0.18432 0.07873 0.86923 0.0
N53 N 0.12732 0.14808 0.91056 0.0
C54 C 0.12462 0.16829 0.98666 0.0
C55 C 0.10358 0.18478 0.95712 0.0
C56 C 0.10456 0.17382 0.9191 0.0
C57 C 0.14615 0.13111 0.93927 0.0
C58 C 0.14568 0.14094 0.97725 0.0
H59 H 0.08651 0.18578 0.89723 0.0
H60 H 0.1628 0.1101 0.93229 0.0
H61 H 0.04247 0.1351 0.85989 0.0
H62 H 0.04238 0.04183 0.90155 0.0
H63 H 0.25309 0.18016 0.80673 0.0
H64 H 0.08589 0.20545 0.96347 0.0
H65 H 0.16226 0.1274 0.99905 0.0
C66 C 0.83994 0.96623 0.63515 0.0
C67 C 0.80098 0.97544 0.64016 0.0
N68 N 0.77668 0.95156 0.62853 0.0
N69 N 0.84008 0.9367 0.62053 0.0
C70 C 0.80112 0.9284 0.61693 0.0
H71 H 0.86651 0.97991 0.64245 0.0
Co72 Co 0.88495 0.91232 0.61181 0.0
C73 C 0.85407 0.85113 0.57953 0.0
O74 O 0.88181 0.83634 0.60062 0.0
N75 N 0.93045 0.88803 0.60233 0.0
C76 C 0.9751 0.86101 0.57022 0.0
C77 C 0.93959 0.87724 0.56734 0.0
C78 C 0.96159 0.8789 0.62575 0.0
N79 N 0.989 0.86209 0.60708 0.0
O80 O 0.89598 0.93765 0.56695 0.0
H81 H 0.92139 0.88091 0.54126 0.0
H82 H 0.96522 0.8856 0.65552 0.0
O83 O 0.85133 0.88142 0.58131 0.0
C84 C 0.92443 0.95635 0.57794 0.0
O85 O 0.93668 0.95583 0.61427 0.0
N86 N 0.87792 0.89157 0.65878 0.0
C87 C 0.88052 0.87113 0.73509 0.0
C88 C 0.85353 0.85747 0.70768 0.0
C89 C 0.85222 0.86842 0.66954 0.0
C90 C 0.90155 0.90666 0.68583 0.0
C91 C 0.90391 0.89657 0.72373 0.0
H92 H 0.83027 0.85859 0.64928 0.0
H93 H 0.91955 0.92651 0.67761 0.0
H94 H 0.79076 0.90533 0.6075 0.0
H95 H 0.7913 0.99788 0.65153 0.0
H96 H 0.98957 0.84964 0.54679 0.0
H97 H 0.83376 0.83854 0.71555 0.0
H98 H 0.92363 0.90901 0.74413 0.0
C99 C 0.91447 0.95864 0.13118 0.0
C100 C 0.95294 0.96924 0.12785 0.0
N101 N 0.97818 0.94563 0.13841 0.0
N102 N 0.91543 0.92853 0.14389 0.0
C103 C 0.9547 0.92124 0.14806 0.0
H104 H 0.88755 0.97176 0.12348 0.0
Co105 Co 0.87077 0.90313 0.14799 0.0
C106 C 0.90076 0.83998 0.17501 0.0
O107 O 0.8743 0.82683 0.15094 0.0
N108 N 0.825 0.87835 0.15246 0.0
C109 C 0.77712 0.8511 0.17951 0.0
C110 C 0.81411 0.86463 0.18532 0.0
C111 C 0.79357 0.87359 0.12744 0.0
N112 N 0.76415 0.85692 0.14307 0.0
O113 O 0.85733 0.92512 0.19467 0.0
H114 H 0.83162 0.86515 0.21219 0.0
H115 H 0.79072 0.88392 0.09921 0.0
O116 O 0.90352 0.87031 0.17672 0.0
C117 C 0.83245 0.94703 0.18465 0.0
O118 O 0.8219 0.9499 0.14807 0.0
N119 N 0.88088 0.88578 0.09963 0.0
C120 C 0.8892 0.87384 0.02143 0.0
C121 C 0.91356 0.85817 0.04941 0.0
C122 C 0.9095 0.86498 0.08852 0.0
C123 C 0.85847 0.90204 0.07267 0.0
C124 C 0.86133 0.89595 0.03376 0.0
H125 H 0.93035 0.85443 0.10929 0.0
H126 H 0.83821 0.92028 0.0816 0.0
H127 H 0.96594 0.89805 0.15606 0.0
H128 H 0.96164 0.99235 0.11786 0.0
H129 H 0.76054 0.83889 0.20088 0.0
H130 H 0.93647 0.84173 0.04113 0.0
H131 H 0.84187 0.90875 0.0135 0.0
C132 C 0.14778 0.61131 0.85505 0.0
C133 C 0.18409 0.59673 0.8506 0.0
N134 N 0.21226 0.61261 0.87169 0.0
N135 N 0.153 0.63631 0.87876 0.0
C136 C 0.19258 0.6364 0.88861 0.0
H137 H 0.11954 0.6047 0.84095 0.0
Co138 Co 0.11313 0.66533 0.88955 0.0
C139 C 0.15852 0.72312 0.91304 0.0
O140 O 0.13538 0.73929 0.88865 0.0
N141 N 0.07228 0.69423 0.90131 0.0
C142 C 0.03341 0.72492 0.93599 0.0
C143 C 0.07078 0.71177 0.9337 0.0
C144 C 0.03486 0.69633 0.88527 0.0
N145 N 0.01074 0.71501 0.90548 0.0
O146 O 0.10147 0.64234 0.93576 0.0
H147 H 0.09429 0.71308 0.95598 0.0
H148 H 0.0239 0.68177 0.8617 0.0
O149 O 0.15312 0.69323 0.9168 0.0
C150 C 0.07209 0.62455 0.9248 0.0
O151 O 0.06093 0.62449 0.88819 0.0
N152 N 0.12011 0.68405 0.8411 0.0
C153 C 0.12055 0.69926 0.76297 0.0
C154 C 0.15366 0.70646 0.78783 0.0
C155 C 0.15316 0.69808 0.82687 0.0
C156 C 0.08945 0.67496 0.8165 0.0
C157 C 0.08846 0.68301 0.77792 0.0
H158 H 0.17976 0.70184 0.84505 0.0
H159 H 0.06658 0.65948 0.82631 0.0
H160 H 0.20714 0.65431 0.90645 0.0
H161 H 0.18938 0.57626 0.83284 0.0
H162 H 0.02315 0.73898 0.95955 0.0
H163 H 0.17989 0.71777 0.77709 0.0
H164 H 0.06355 0.67494 0.75947 0.0
C165 C 0.06791 0.57262 0.37949 0.0
C166 C 0.02899 0.56367 0.38459 0.0
N167 N 0.00455 0.58736 0.37229 0.0
N168 N 0.06807 0.60173 0.36387 0.0
C169 C 0.02916 0.61002 0.35967 0.0
H170 H 0.09444 0.55936 0.38826 0.0
Co171 Co 0.11288 0.62649 0.35753 0.0
C172 C 0.08252 0.68768 0.32519 0.0
O173 O 0.10808 0.70199 0.34914 0.0
N174 N 0.15835 0.65106 0.35067 0.0
C175 C 0.20481 0.67741 0.32043 0.0
C176 C 0.16921 0.66157 0.31611 0.0
C177 C 0.18839 0.66013 0.37541 0.0
N178 N 0.21677 0.67644 0.35776 0.0
O179 O 0.12762 0.60069 0.31386 0.0
H180 H 0.15247 0.65751 0.28927 0.0
H181 H 0.19025 0.65444 0.40556 0.0
O182 O 0.08067 0.65727 0.32476 0.0
C183 C 0.15512 0.58221 0.32777 0.0
O184 O 0.16356 0.58355 0.3649 0.0
N185 N 0.10215 0.64747 0.40386 0.0
C186 C 0.0968 0.66762 0.47972 0.0
C187 C 0.07189 0.68084 0.45043 0.0
C188 C 0.07405 0.66958 0.41265 0.0
C189 C 0.12453 0.63324 0.4326 0.0
C190 C 0.12273 0.64313 0.47051 0.0
H191 H 0.05265 0.67828 0.3911 0.0
H192 H 0.14446 0.6141 0.42591 0.0
H193 H 0.01916 0.63269 0.34864 0.0
H194 H 0.01972 0.542 0.39803 0.0
H195 H 0.22153 0.68754 0.29765 0.0
H196 H 0.05028 0.69896 0.4569 0.0
H197 H 0.1418 0.63185 0.49245 0.0
C198 C 0.81373 0.48216 0.13546 0.0
C199 C 0.77375 0.4883 0.13952 0.0
N200 N 0.75258 0.46353 0.12521 0.0
N201 N 0.81779 0.45371 0.11855 0.0
C202 C 0.77998 0.44294 0.11268 0.0
H203 H 0.83826 0.49709 0.14545 0.0
Co204 Co 0.86616 0.43328 0.11146 0.0
C205 C 0.84636 0.37022 0.07767 0.0
O206 O 0.87546 0.35825 0.09977 0.0
N207 N 0.91519 0.41335 0.10373 0.0
C208 C 0.96358 0.39014 0.07248 0.0
C209 C 0.92738 0.40518 0.0687 0.0
C210 C 0.94532 0.40395 0.12822 0.0
N211 N 0.97497 0.38931 0.11004 0.0
O212 O 0.87578 0.45967 0.06754 0.0
H213 H 0.91033 0.4091 0.042 0.0
H214 H 0.946 0.40817 0.15869 0.0
O215 O 0.83843 0.39996 0.07936 0.0
C216 C 0.89779 0.48272 0.07959 0.0
O217 O 0.90611 0.48511 0.11666 0.0
N218 N 0.85931 0.41113 0.15741 0.0
C219 C 0.85651 0.38833 0.23201 0.0
C220 C 0.83306 0.37437 0.20229 0.0
C221 C 0.83411 0.3867 0.16505 0.0
C222 C 0.87995 0.42612 0.18672 0.0
C223 C 0.87955 0.41482 0.22413 0.0
H224 H 0.81405 0.37699 0.14301 0.0
H225 H 0.89749 0.44686 0.18074 0.0
H226 H 0.77265 0.41978 0.10127 0.0
H227 H 0.76132 0.50919 0.15244 0.0
H228 H 0.97974 0.38029 0.04914 0.0
H229 H 0.81364 0.35461 0.20797 0.0
H230 H 0.89708 0.42669 0.24675 0.0
C231 C 0.90025 0.43033 0.60813 0.0
C232 C 0.9359 0.44605 0.60578 0.0
N233 N 0.96267 0.43296 0.63114 0.0
N234 N 0.90437 0.40743 0.6349 0.0
C235 C 0.94262 0.40984 0.64879 0.0
H236 H 0.87349 0.4343 0.59016 0.0
Co237 Co 0.86497 0.37756 0.64376 0.0
C238 C 0.92051 0.32241 0.6611 0.0
O239 O 0.9089 0.30877 0.62864 0.0
N240 N 0.82442 0.34861 0.65316 0.0
C241 C 0.78332 0.30819 0.66247 0.0
C242 C 0.82259 0.31701 0.65927 0.0
C243 C 0.78617 0.35838 0.65395 0.0
N244 N 0.76079 0.33442 0.65937 0.0
O245 O 0.85305 0.39881 0.69136 0.0
H246 H 0.84739 0.30084 0.66089 0.0
H247 H 0.77671 0.38246 0.64823 0.0
O248 O 0.90519 0.34906 0.67058 0.0
C249 C 0.83238 0.42388 0.68426 0.0
O250 O 0.825 0.43213 0.64836 0.0
N251 N 0.87253 0.35994 0.59421 0.0
C252 C 0.87664 0.34918 0.51514 0.0
C253 C 0.91165 0.35193 0.5387 0.0
C254 C 0.90897 0.35766 0.57805 0.0
C255 C 0.83836 0.35703 0.57147 0.0
C256 C 0.83973 0.35113 0.53226 0.0
H257 H 0.93627 0.36122 0.5953 0.0
H258 H 0.80952 0.36146 0.58287 0.0
H259 H 0.95627 0.39366 0.66956 0.0
H260 H 0.94195 0.46497 0.58601 0.0
H261 H 0.77209 0.28441 0.66607 0.0
H262 H 0.94086 0.3508 0.52665 0.0
H263 H 0.81191 0.35036 0.51509 0.0
C264 C 0.66722 0.10495 0.87133 0.0
C265 C 0.70437 0.09263 0.86512 0.0
N266 N 0.73067 0.10444 0.89194 0.0
N267 N 0.67 0.12457 0.90179 0.0
C268 C 0.70879 0.12344 0.91413 0.0
H269 H 0.64025 0.1012 0.85357 0.0
Co270 Co 0.62881 0.15031 0.91764 0.0
C271 C 0.67024 0.21025 0.93672 0.0
O272 O 0.64367 0.22402 0.9133 0.0
N273 N 0.58668 0.17509 0.93501 0.0
C274 C 0.54837 0.20355 0.97282 0.0
C275 C 0.58685 0.19506 0.96546 0.0
C276 C 0.5475 0.17021 0.92639 0.0
N277 N 0.52367 0.18776 0.94817 0.0
O278 O 0.62418 0.12488 0.963 0.0
H279 H 0.61276 0.2014 0.98341 0.0
H280 H 0.53648 0.15261 0.90613 0.0
O281 O 0.66812 0.1803 0.94287 0.0
C282 C 0.6025 0.10121 0.95238 0.0
O283 O 0.59121 0.09867 0.91592 0.0
N284 N 0.63022 0.1721 0.86977 0.0
C285 C 0.63224 0.18778 0.79198 0.0
C286 C 0.66706 0.18931 0.81581 0.0
C287 C 0.66545 0.18134 0.85464 0.0
C288 C 0.59631 0.17057 0.84652 0.0
C289 C 0.59641 0.17909 0.80798 0.0
H290 H 0.69312 0.18067 0.8719 0.0
H291 H 0.56962 0.16007 0.85637 0.0
H292 H 0.72091 0.1371 0.93816 0.0
H293 H 0.71168 0.07759 0.84132 0.0
H294 H 0.53924 0.21866 0.99592 0.0
H295 H 0.69553 0.19529 0.80419 0.0
H296 H 0.56924 0.17638 0.79012 0.0
C297 C 0.59727 0.08997 0.41626 0.0
C298 C 0.56054 0.07597 0.42026 0.0
N299 N 0.53439 0.08857 0.39392 0.0
N300 N 0.59415 0.11151 0.38781 0.0
C301 C 0.55577 0.10951 0.37416 0.0
H302 H 0.62375 0.0864 0.43476 0.0
Co303 Co 0.63243 0.14203 0.37721 0.0
C304 C 0.57053 0.19193 0.3532 0.0
O305 O 0.57461 0.20675 0.38618 0.0
N306 N 0.67104 0.17254 0.36557 0.0
C307 C 0.70403 0.21656 0.35184 0.0
C308 C 0.66711 0.20368 0.35705 0.0
C309 C 0.71079 0.16723 0.36517 0.0
N310 N 0.73143 0.19359 0.35723 0.0
O311 O 0.64661 0.11798 0.33227 0.0
H312 H 0.63977 0.21702 0.35562 0.0
H313 H 0.72459 0.14466 0.37181 0.0
O314 O 0.59174 0.16732 0.3466 0.0
C315 C 0.67249 0.09734 0.344 0.0
O316 O 0.68142 0.09565 0.38104 0.0
N317 N 0.62317 0.16228 0.42509 0.0
C318 C 0.61984 0.17814 0.50311 0.0
C319 C 0.58472 0.17198 0.48074 0.0
C320 C 0.58706 0.16357 0.44203 0.0
C321 C 0.65744 0.16785 0.44692 0.0
C322 C 0.65643 0.17634 0.48544 0.0
H323 H 0.55977 0.15743 0.426 0.0
H324 H 0.68634 0.1636 0.43559 0.0
H325 H 0.54261 0.12512 0.35253 0.0
H326 H 0.55321 0.05913 0.44218 0.0
H327 H 0.71037 0.2412 0.34627 0.0
H328 H 0.55573 0.17275 0.49326 0.0
H329 H 0.68448 0.17943 0.50181 0.0
C330 C 0.33886 0.96499 0.12399 0.0
C331 C 0.29975 0.97493 0.12538 0.0
N332 N 0.27598 0.94921 0.12345 0.0
N333 N 0.33962 0.93319 0.12116 0.0
C334 C 0.30091 0.92427 0.12086 0.0
H335 H 0.36504 0.97996 0.12606 0.0
Co336 Co 0.3843 0.9071 0.12279 0.0
C337 C 0.36045 0.84861 0.07656 0.0
O338 O 0.3909 0.83233 0.09122 0.0
N339 N 0.42994 0.88098 0.12453 0.0
C340 C 0.48072 0.84968 0.14309 0.0
C341 C 0.44672 0.86456 0.15443 0.0
C342 C 0.45492 0.87613 0.09569 0.0
N343 N 0.48561 0.85699 0.10615 0.0
O344 O 0.40605 0.93106 0.08118 0.0
H345 H 0.43623 0.86435 0.18323 0.0
H346 H 0.45144 0.88693 0.06764 0.0
O347 O 0.35505 0.87739 0.08699 0.0
C348 C 0.4333 0.94909 0.0962 0.0
O349 O 0.43961 0.94846 0.13368 0.0
N350 N 0.3658 0.88767 0.16681 0.0
C351 C 0.35683 0.86818 0.24223 0.0
C352 C 0.3485 0.84728 0.21147 0.0
C353 C 0.35267 0.85767 0.17358 0.0
C354 C 0.37265 0.90833 0.19637 0.0
C355 C 0.36805 0.89923 0.23412 0.0
H356 H 0.34726 0.8412 0.15036 0.0
H357 H 0.38366 0.93181 0.19059 0.0
H358 H 0.29133 0.89982 0.12067 0.0
H359 H 0.28965 0.99914 0.12805 0.0
H360 H 0.50196 0.83661 0.16136 0.0
H361 H 0.33967 0.82309 0.21675 0.0
H362 H 0.37525 0.91598 0.25694 0.0
C363 C 0.41566 0.92816 0.60731 0.0
C364 C 0.45259 0.94132 0.60225 0.0
N365 N 0.47853 0.93016 0.62983 0.0
N366 N 0.41817 0.90865 0.63781 0.0
C367 C 0.45662 0.91064 0.65124 0.0
H368 H 0.38906 0.93143 0.58888 0.0
Co369 Co 0.37729 0.88227 0.65305 0.0
C370 C 0.42208 0.82394 0.67443 0.0
O371 O 0.39778 0.80877 0.6501 0.0
N372 N 0.33541 0.85646 0.66989 0.0
C373 C 0.2979 0.82645 0.70676 0.0
C374 C 0.33612 0.83558 0.69945 0.0
C375 C 0.29596 0.86103 0.66172 0.0
N376 N 0.27282 0.84277 0.68313 0.0
O377 O 0.36976 0.90863 0.69755 0.0
H378 H 0.36209 0.82912 0.71721 0.0
H379 H 0.28405 0.87882 0.64211 0.0
O380 O 0.41723 0.85377 0.68003 0.0
C381 C 0.34356 0.92853 0.68443 0.0
O382 O 0.33422 0.92803 0.6474 0.0
N383 N 0.38044 0.85999 0.60573 0.0
C384 C 0.38118 0.84263 0.52806 0.0
C385 C 0.41629 0.84116 0.55175 0.0
C386 C 0.41543 0.85038 0.59038 0.0
C387 C 0.34643 0.86176 0.58274 0.0
C388 C 0.34591 0.85267 0.54438 0.0
H389 H 0.44326 0.85128 0.60738 0.0
H390 H 0.32011 0.87289 0.5928 0.0
H391 H 0.46848 0.89742 0.67573 0.0
H392 H 0.46004 0.95665 0.57884 0.0
H393 H 0.28907 0.81076 0.72936 0.0
H394 H 0.44447 0.83415 0.54023 0.0
H395 H 0.31853 0.85587 0.52697 0.0
C396 C 0.64365 0.61062 0.35606 0.0
C397 C 0.67943 0.59556 0.35111 0.0
N398 N 0.70673 0.60736 0.37688 0.0
N399 N 0.64832 0.6319 0.38476 0.0
C400 C 0.687 0.62907 0.39727 0.0
H401 H 0.61649 0.60758 0.33839 0.0
Co402 Co 0.60924 0.6614 0.39654 0.0
C403 C 0.6609 0.71689 0.41726 0.0
O404 O 0.64231 0.73285 0.38944 0.0
N405 N 0.56881 0.69001 0.40897 0.0
C406 C 0.52905 0.72664 0.43312 0.0
C407 C 0.56796 0.71659 0.43063 0.0
C408 C 0.52995 0.6836 0.40077 0.0
N409 N 0.50518 0.70582 0.414 0.0
O410 O 0.59763 0.63783 0.44225 0.0
H411 H 0.59322 0.72752 0.44562 0.0
H412 H 0.52001 0.66221 0.38624 0.0
O413 O 0.65019 0.68838 0.42437 0.0
C414 C 0.57444 0.61504 0.43156 0.0
O415 O 0.56567 0.61146 0.39472 0.0
N416 N 0.61678 0.68136 0.34835 0.0
C417 C 0.62294 0.69504 0.27024 0.0
C418 C 0.65727 0.69352 0.29488 0.0
C419 C 0.65358 0.68649 0.33383 0.0
C420 C 0.58338 0.68277 0.32438 0.0
C421 C 0.58567 0.69022 0.28573 0.0
H422 H 0.6805 0.6837 0.35187 0.0
H423 H 0.5548 0.67561 0.33396 0.0
H424 H 0.70123 0.64419 0.41892 0.0
H425 H 0.68531 0.57821 0.32922 0.0
H426 H 0.51925 0.74737 0.44833 0.0
H427 H 0.68675 0.69658 0.2839 0.0
H428 H 0.55853 0.6898 0.26751 0.0
C429 C 0.57171 0.56976 0.90466 0.0
C430 C 0.53174 0.56319 0.90818 0.0
N431 N 0.51017 0.58203 0.88381 0.0
N432 N 0.57541 0.59258 0.87817 0.0
C433 C 0.5375 0.59933 0.86574 0.0
H434 H 0.5964 0.55967 0.92168 0.0
Co435 Co 0.62276 0.61326 0.86775 0.0
C436 C 0.59872 0.67451 0.83244 0.0
O437 O 0.62694 0.68773 0.8545 0.0
N438 N 0.6707 0.63378 0.8562 0.0
C439 C 0.71492 0.65711 0.81963 0.0
C440 C 0.67935 0.64109 0.81969 0.0
C441 C 0.70256 0.64456 0.87767 0.0
N442 N 0.72913 0.65922 0.85609 0.0
O443 O 0.63184 0.58423 0.82574 0.0
H444 H 0.6604 0.63565 0.79457 0.0
H445 H 0.7067 0.64214 0.90836 0.0
O446 O 0.59283 0.6445 0.83437 0.0
C447 C 0.65597 0.56354 0.84059 0.0
O448 O 0.66362 0.56487 0.87786 0.0
N449 N 0.61673 0.63785 0.91225 0.0
C450 C 0.61212 0.6632 0.98575 0.0
C451 C 0.58432 0.67214 0.95641 0.0
C452 C 0.58679 0.65877 0.91971 0.0
C453 C 0.64188 0.62744 0.94143 0.0
C454 C 0.64091 0.64042 0.97805 0.0
H455 H 0.56383 0.66441 0.89799 0.0
H456 H 0.66264 0.60845 0.93629 0.0
H457 H 0.52989 0.6172 0.84457 0.0
H458 H 0.51955 0.54698 0.92857 0.0
H459 H 0.72958 0.66608 0.79487 0.0
H460 H 0.56053 0.68868 0.96204 0.0
H461 H 0.66168 0.63197 1.00055 0.0
C462 C 0.32357 0.46746 0.65301 0.0
C463 C 0.28458 0.47526 0.6599 0.0
N464 N 0.26025 0.45599 0.63869 0.0
N465 N 0.32375 0.44352 0.62748 0.0
C466 C 0.28481 0.43724 0.61907 0.0
H467 H 0.35008 0.47761 0.66701 0.0
Co468 Co 0.36875 0.42154 0.61359 0.0
C469 C 0.34042 0.36145 0.57833 0.0
O470 O 0.36961 0.34746 0.59836 0.0
N471 N 0.41464 0.39998 0.59861 0.0
C472 C 0.45941 0.38194 0.55858 0.0
C473 C 0.42197 0.39466 0.56128 0.0
C474 C 0.44824 0.39013 0.61801 0.0
N475 N 0.4756 0.37908 0.59432 0.0
O476 O 0.37615 0.45082 0.57167 0.0
H477 H 0.40164 0.40053 0.53731 0.0
H478 H 0.45404 0.39237 0.64853 0.0
O479 O 0.33541 0.39151 0.58137 0.0
C480 C 0.40297 0.46994 0.58523 0.0
O481 O 0.41378 0.46761 0.62183 0.0
N482 N 0.3647 0.39682 0.65812 0.0
C483 C 0.36059 0.37606 0.73414 0.0
C484 C 0.33205 0.36617 0.70564 0.0
C485 C 0.33434 0.37716 0.66777 0.0
C486 C 0.39165 0.40722 0.68571 0.0
C487 C 0.39121 0.39625 0.72319 0.0
H488 H 0.31043 0.37136 0.64709 0.0
H489 H 0.41303 0.42523 0.67886 0.0
H490 H 0.27454 0.41871 0.59969 0.0
H491 H 0.27503 0.49267 0.68034 0.0
H492 H 0.47404 0.37601 0.53249 0.0
H493 H 0.30702 0.35148 0.71285 0.0
H494 H 0.41417 0.40456 0.74366 0.0
C495 C 0.39262 0.42807 0.09994 0.0
C496 C 0.42926 0.44162 0.09448 0.0
N497 N 0.45555 0.43101 0.12207 0.0
N498 N 0.39574 0.4088 0.13067 0.0
C499 C 0.43416 0.41151 0.14395 0.0
H500 H 0.36588 0.43081 0.08157 0.0
Co501 Co 0.35571 0.38186 0.14714 0.0
C502 C 0.40357 0.32425 0.16558 0.0
O503 O 0.38043 0.30941 0.13995 0.0
N504 N 0.31505 0.35605 0.16548 0.0
C505 C 0.27757 0.32507 0.20114 0.0
C506 C 0.31576 0.33173 0.19087 0.0
C507 C 0.27624 0.36469 0.16266 0.0
N508 N 0.25299 0.34613 0.1836 0.0
O509 O 0.34989 0.40795 0.19221 0.0
H510 H 0.34199 0.32084 0.20414 0.0
H511 H 0.26533 0.38482 0.14609 0.0
O512 O 0.39706 0.35367 0.17252 0.0
C513 C 0.32792 0.43156 0.18159 0.0
O514 O 0.31786 0.43466 0.14494 0.0
N515 N 0.35709 0.35927 0.0994 0.0
C516 C 0.3549 0.34426 0.02066 0.0
C517 C 0.39153 0.34787 0.04178 0.0
C518 C 0.39197 0.35478 0.08108 0.0
C519 C 0.32145 0.35403 0.07976 0.0
C520 C 0.31978 0.3455 0.04109 0.0
H521 H 0.42051 0.35874 0.09612 0.0
H522 H 0.29356 0.35832 0.09285 0.0
H523 H 0.44643 0.39873 0.16863 0.0
H524 H 0.4363 0.45681 0.0708 0.0
H525 H 0.26883 0.30745 0.22161 0.0
H526 H 0.41981 0.3474 0.02801 0.0
H527 H 0.29066 0.34159 0.02711 0.0
C528 C 0.30358 0.12628 0.39329 0.0
C529 C 0.27855 0.10009 0.38637 0.0
C530 C 0.3454 0.12293 0.39545 0.0
C531 C 0.36265 0.09265 0.39047 0.0
C532 C 0.3376 0.06604 0.38416 0.0
C533 C 0.29591 0.07007 0.38229 0.0
C534 C 0.37114 0.1519 0.40229 0.0
C535 C 0.35484 0.03336 0.37881 0.0
C536 C 0.46932 0.09112 0.3578 0.0
C537 C 0.49136 0.08612 0.39246 0.0
C538 C 0.42738 0.09257 0.3566 0.0
C539 C 0.40693 0.08902 0.39095 0.0
C540 C 0.42891 0.08299 0.42586 0.0
C541 C 0.47085 0.08155 0.42618 0.0
C542 C 0.40501 0.09874 0.31872 0.0
C543 C 0.4082 0.07919 0.4631 0.0
H544 H 0.29056 0.1496 0.39601 0.0
H545 H 0.27684 0.04962 0.37758 0.0
H546 H 0.39199 0.14821 0.42757 0.0
H547 H 0.38961 0.15599 0.37718 0.0
H548 H 0.35309 0.1735 0.40717 0.0
H549 H 0.33125 1.015 0.37499 0.0
H550 H 0.37338 0.03308 0.35327 0.0
H551 H 0.37472 0.02696 0.40397 0.0
H552 H 0.48503 0.09436 0.33165 0.0
H553 H 0.48764 0.07819 0.45317 0.0
H554 H 0.38889 0.12166 0.32 0.0
H555 H 0.38224 0.08008 0.31291 0.0
H556 H 0.42522 0.09951 0.29438 0.0
H557 H 0.39287 0.10159 0.47022 0.0
H558 H 0.42941 0.07291 0.48738 0.0
H559 H 0.38494 0.06056 0.46016 0.0
C560 C 0.96606 0.1862 0.35317 0.0
C561 C 0.98402 0.20451 0.38284 0.0
C562 C 0.925 0.18831 0.34409 0.0
C563 C 0.90137 0.20891 0.36552 0.0
C564 C 0.9197 0.22936 0.39323 0.0
C565 C 0.96093 0.22699 0.40146 0.0
C566 C 0.90648 0.16665 0.31373 0.0
C567 C 0.89552 0.25199 0.41631 0.0
C568 C 0.79193 0.21942 0.33501 0.0
C569 C 0.77404 0.19729 0.35863 0.0
C570 C 0.83347 0.22378 0.33691 0.0
C571 C 0.85738 0.20552 0.36309 0.0
C572 C 0.83939 0.18319 0.38705 0.0
C573 C 0.79791 0.17934 0.38447 0.0
C574 C 0.85149 0.24729 0.3102 0.0
C575 C 0.86395 0.16332 0.41546 0.0
H576 H 0.98338 0.1687 0.33852 0.0
H577 H 0.97478 0.24184 0.42364 0.0
H578 H 0.88905 0.14791 0.32763 0.0
H579 H 0.88546 0.17999 0.29421 0.0
H580 H 0.92938 0.15511 0.29636 0.0
H581 H 0.91428 0.27142 0.42889 0.0
H582 H 0.87075 0.26242 0.39833 0.0
H583 H 0.88214 0.23894 0.44011 0.0
H584 H 0.77345 0.23305 0.31472 0.0
H585 H 0.78403 0.16267 0.40326 0.0
H586 H 0.86095 0.23468 0.28422 0.0
H587 H 0.87823 0.25886 0.32378 0.0
H588 H 0.82955 0.26583 0.3009 0.0
H589 H 0.88587 0.14886 0.40015 0.0
H590 H 0.84518 0.14718 0.4321 0.0
H591 H 0.88114 0.17887 0.43587 0.0
C592 C 0.46036 0.21641 0.9558 0.0
C593 C 0.48075 0.18886 0.94557 0.0
C594 C 0.41883 0.21894 0.94926 0.0
C595 C 0.3977 0.1936 0.93141 0.0
C596 C 0.41778 0.16514 0.92291 0.0
C597 C 0.45902 0.16302 0.93053 0.0
C598 C 0.39789 0.24907 0.95997 0.0
C599 C 0.39608 0.13739 0.90416 0.0
C600 C 0.28683 0.18009 0.92503 0.0
C601 C 0.27779 0.18738 0.88624 0.0
C602 C 0.32516 0.18512 0.94162 0.0
C603 C 0.35525 0.19715 0.91871 0.0
C604 C 0.34551 0.20757 0.88093 0.0
C605 C 0.30665 0.20303 0.86535 0.0
C606 C 0.33422 0.17472 0.98253 0.0
C607 C 0.37701 0.2207 0.85572 0.0
H608 H 0.477 0.23644 0.96752 0.0
H609 H 0.47433 0.14126 0.9239 0.0
H610 H 0.38857 0.2622 0.93355 0.0
H611 H 0.37038 0.24377 0.97528 0.0
H612 H 0.41751 0.26449 0.97847 0.0
H613 H 0.41604 0.11669 0.90044 0.0
H614 H 0.37089 0.12997 0.92162 0.0
H615 H 0.38324 0.14447 0.87552 0.0
H616 H 0.26504 0.16869 0.94219 0.0
H617 H 0.29973 0.21025 0.83606 0.0
H618 H 0.35566 0.19102 0.99759 0.0
H619 H 0.34807 0.15085 0.98252 0.0
H620 H 0.30662 0.17342 0.99896 0.0
H621 H 0.39414 0.23978 0.87087 0.0
H622 H 0.36393 0.2302 0.82822 0.0
H623 H 0.39855 0.20169 0.84906 0.0
C624 C 0.96208 0.10739 0.85521 0.0
C625 C 0.9854 0.09032 0.88245 0.0
C626 C 0.9204 0.1092 0.85743 0.0
C627 C 0.90177 0.09397 0.88799 0.0
C628 C 0.92524 0.07696 0.91581 0.0
C629 C 0.96679 0.07516 0.91252 0.0
C630 C 0.89628 0.12719 0.82691 0.0
C631 C 0.90652 0.06092 0.94919 0.0
C632 C 0.79858 0.12369 0.91102 0.0
C633 C 0.77364 0.10075 0.89321 0.0
C634 C 0.84036 0.12139 0.91029 0.0
C635 C 0.85768 0.09581 0.89079 0.0
C636 C 0.83287 0.07232 0.87327 0.0
C637 C 0.79121 0.07493 0.875 0.0
C638 C 0.86593 0.14668 0.92977 0.0
C639 C 0.8503 0.04475 0.85204 0.0
H640 H 0.97646 0.11889 0.83179 0.0
H641 H 0.98488 0.06237 0.93393 0.0
H642 H 0.87387 0.11126 0.81255 0.0
H643 H 0.87959 0.14672 0.84021 0.0
H644 H 0.91533 0.13735 0.8048 0.0
H645 H 0.92909 0.04902 0.96864 0.0
H646 H 0.89008 0.07856 0.96602 0.0
H647 H 0.88446 0.04303 0.93851 0.0
H648 H 0.78562 0.14398 0.92474 0.0
H649 H 0.77239 0.05678 0.86176 0.0
H650 H 0.88276 0.15962 0.90809 0.0
H651 H 0.88827 0.13572 0.95023 0.0
H652 H 0.84791 0.16402 0.94559 0.0
H653 H 0.86789 0.05362 0.82811 0.0
H654 H 0.82687 0.02842 0.8401 0.0
H655 H 0.8711 0.03117 0.8715 0.0
C656 C 0.71143 0.93316 0.60139 0.0
C657 C 0.7337 0.95023 0.62947 0.0
C658 C 0.66964 0.93105 0.60223 0.0
C659 C 0.64963 0.94595 0.63227 0.0
C660 C 0.67194 0.96327 0.6607 0.0
C661 C 0.7137 0.9654 0.65879 0.0
C662 C 0.64693 0.91272 0.57105 0.0
C663 C 0.65175 0.97911 0.69346 0.0
C664 C 0.5383 0.96168 0.61543 0.0
C665 C 0.52131 0.93528 0.63286 0.0
C666 C 0.57995 0.96572 0.61552 0.0
C667 C 0.60539 0.94307 0.63398 0.0
C668 C 0.58856 0.91695 0.65274 0.0
C669 C 0.54682 0.91326 0.65175 0.0
C670 C 0.59675 0.99379 0.59497 0.0
C671 C 0.61468 0.89244 0.67309 0.0
H672 H 0.72675 0.92171 0.57846 0.0
H673 H 0.73087 0.97827 0.68079 0.0
H674 H 0.63248 0.89181 0.58365 0.0
H675 H 0.62282 0.92762 0.55758 0.0
H676 H 0.66662 0.90444 0.54831 0.0
H677 H 0.67333 0.99188 0.71307 0.0
H678 H 0.6289 0.99617 0.68217 0.0
H679 H 0.63597 0.96114 0.71027 0.0
H680 H 0.51905 0.97916 0.60136 0.0
H681 H 0.53438 0.89257 0.66493 0.0
H682 H 0.61502 0.98545 0.57121 0.0
H683 H 0.61679 1.00763 0.61489 0.0
H684 H 0.57293 1.00974 0.58288 0.0
H685 H 0.63264 0.87976 0.65197 0.0
H686 H 0.59694 0.87477 0.68857 0.0
H687 H 0.636 0.90405 0.69397 0.0
C688 C 0.0589 0.84617 0.59832 0.0
C689 C 0.02724 0.85117 0.62258 0.0
C690 C 0.09757 0.83995 0.61333 0.0
C691 C 0.10491 0.83937 0.65357 0.0
C692 C 0.07277 0.84181 0.6782 0.0
C693 C 0.03414 0.84745 0.66237 0.0
C694 C 0.13102 0.83628 0.58605 0.0
C695 C 0.07958 0.84007 0.7212 0.0
C696 C 0.20964 0.81356 0.68479 0.0
C697 C 0.23002 0.84228 0.68208 0.0
C698 C 0.16807 0.81218 0.67808 0.0
C699 C 0.14673 0.84037 0.6692 0.0
C700 C 0.16689 0.8698 0.67019 0.0
C701 C 0.20846 0.87035 0.67616 0.0
C702 C 0.14808 0.78031 0.67956 0.0
C703 C 0.14484 0.9006 0.66296 0.0
H704 H 0.05418 0.8487 0.56759 0.0
H705 H 0.00963 0.84991 0.68131 0.0
H706 H 0.14794 0.85878 0.58491 0.0
H707 H 0.15226 0.81749 0.59601 0.0
H708 H 0.11948 0.83044 0.55649 0.0
H709 H 0.05116 0.84121 0.73638 0.0
H710 H 0.09532 0.81773 0.72919 0.0
H711 H 0.09906 0.85994 0.73129 0.0
H712 H 0.22644 0.79192 0.69008 0.0
H713 H 0.22427 0.89267 0.67542 0.0
H714 H 0.14767 0.77264 0.70996 0.0
H715 H 0.16581 0.76253 0.6642 0.0
H716 H 0.11693 0.78023 0.66729 0.0
H717 H 0.13577 0.9025 0.63204 0.0
H718 H 0.16362 0.9214 0.67104 0.0
H719 H 0.11726 0.90145 0.6794 0.0
C720 C 0.71803 0.84931 0.08641 0.0
C721 C 0.7246 0.85175 0.12636 0.0
C722 C 0.67909 0.84741 0.06972 0.0
C723 C 0.6462 0.84838 0.09369 0.0
C724 C 0.65283 0.84957 0.13413 0.0
C725 C 0.69189 0.8512 0.14986 0.0
C726 C 0.6736 0.84557 0.0266 0.0
C727 C 0.61862 0.85012 0.16101 0.0
C728 C 0.54393 0.88107 0.07889 0.0
C729 C 0.52236 0.85383 0.08731 0.0
C730 C 0.58518 0.87931 0.0743 0.0
C731 C 0.60443 0.84955 0.07777 0.0
C732 C 0.58127 0.82165 0.07839 0.0
C733 C 0.54033 0.82409 0.08454 0.0
C734 C 0.60862 0.90962 0.07183 0.0
C735 C 0.6006 0.7895 0.07812 0.0
H736 H 0.74331 0.84925 0.06813 0.0
H737 H 0.69665 0.85341 0.18064 0.0
H738 H 0.64544 0.83339 0.01726 0.0
H739 H 0.6726 0.86991 0.01472 0.0
H740 H 0.69914 0.83306 0.01405 0.0
H741 H 0.62914 0.85157 0.19165 0.0
H742 H 0.59887 0.87073 0.15449 0.0
H743 H 0.60033 0.82838 0.15709 0.0
H744 H 0.52958 0.90401 0.08056 0.0
H745 H 0.52311 0.80304 0.09017 0.0
H746 H 0.63453 0.90655 0.0535 0.0
H747 H 0.62023 0.91644 0.10102 0.0
H748 H 0.58957 0.92925 0.06015 0.0
H749 H 0.62656 0.78929 0.05949 0.0
H750 H 0.579 0.77109 0.06784 0.0
H751 H 0.61163 0.78351 0.1077 0.0
C752 C 0.03962 0.96325 0.10866 0.0
C753 C 0.02108 0.94566 0.13684 0.0
C754 C 0.08134 0.9634 0.10653 0.0
C755 C 0.10513 0.94577 0.1335 0.0
C756 C 0.08661 0.92794 0.16204 0.0
C757 C 0.04474 0.92796 0.16323 0.0
C758 C 0.09995 0.98231 0.0753 0.0
C759 C 0.11104 0.90899 0.19141 0.0
C760 C 0.21065 0.92443 0.10725 0.0
C761 C 0.23319 0.94822 0.12614 0.0
C762 C 0.16895 0.92313 0.10973 0.0
C763 C 0.1494 0.94611 0.13175 0.0
C764 C 0.17204 0.96994 0.15126 0.0
C765 C 0.21365 0.97079 0.14807 0.0
C766 C 0.14574 0.8976 0.08812 0.0
C767 C 0.15228 0.99458 0.17545 0.0
H768 H 0.0214 0.9765 0.0878 0.0
H769 H 0.03047 0.91453 0.18519 0.0
H770 H 0.12046 1.00041 0.08821 0.0
H771 H 0.11807 0.96652 0.0575 0.0
H772 H 0.07718 0.99441 0.05628 0.0
H773 H 0.09202 0.89631 0.21164 0.0
H774 H 0.1297 0.89138 0.17681 0.0
H775 H 0.1317 0.92488 0.20813 0.0
H776 H 0.2256 0.90716 0.08995 0.0
H777 H 0.23102 0.98887 0.16324 0.0
H778 H 0.12745 0.90844 0.06422 0.0
H779 H 0.12487 0.88561 0.10713 0.0
H780 H 0.16564 0.87949 0.07603 0.0
H781 H 0.13089 1.00877 0.15728 0.0
H782 H 0.17431 1.01088 0.1898 0.0
H783 H 0.13491 0.98288 0.19773 0.0
C784 C 0.27366 0.59419 0.84184 0.0
C785 C 0.25485 0.6069 0.87352 0.0
C786 C 0.31524 0.58937 0.84277 0.0
C787 C 0.33861 0.59721 0.87633 0.0
C788 C 0.31975 0.60969 0.90859 0.0
C789 C 0.27815 0.61451 0.90672 0.0
C790 C 0.33424 0.57636 0.80763 0.0
C791 C 0.34357 0.61809 0.94502 0.0
C792 C 0.44217 0.56053 0.89126 0.0
C793 C 0.46711 0.58544 0.88078 0.0
C794 C 0.40034 0.56396 0.88984 0.0
C795 C 0.38289 0.59297 0.87744 0.0
C796 C 0.40779 0.61808 0.86639 0.0
C797 C 0.4495 0.61406 0.8683 0.0
C798 C 0.37481 0.53662 0.90189 0.0
C799 C 0.39039 0.64934 0.85281 0.0
H800 H 0.25595 0.58869 0.8159 0.0
H801 H 0.26373 0.62399 0.93142 0.0
H802 H 0.3559 0.59373 0.79696 0.0
H803 H 0.3512 0.55446 0.81503 0.0
H804 H 0.3118 0.5709 0.78406 0.0
H805 H 0.32429 0.62689 0.96783 0.0
H806 H 0.36036 0.59707 0.95601 0.0
H807 H 0.36588 0.63661 0.93902 0.0
H808 H 0.45535 0.53823 0.90047 0.0
H809 H 0.46826 0.6337 0.86074 0.0
H810 H 0.35364 0.52969 0.87792 0.0
H811 H 0.35666 0.5439 0.92622 0.0
H812 H 0.39297 0.51561 0.91073 0.0
H813 H 0.37008 0.64557 0.82714 0.0
H814 H 0.41384 0.66657 0.84541 0.0
H815 H 0.37228 0.65989 0.87541 0.0
C816 C 0.77374 0.70477 0.86339 0.0
C817 C 0.76654 0.67257 0.86874 0.0
C818 C 0.81165 0.7176 0.87227 0.0
C819 C 0.84298 0.6973 0.88568 0.0
C820 C 0.83526 0.66478 0.89197 0.0
C821 C 0.79678 0.65291 0.88391 0.0
C822 C 0.81811 0.75264 0.8671 0.0
C823 C 0.86807 0.64215 0.9051 0.0
C824 C 0.95016 0.71259 0.86296 0.0
C825 C 0.96793 0.71722 0.89972 0.0
C826 C 0.90891 0.7079 0.85764 0.0
C827 C 0.88469 0.70889 0.88978 0.0
C828 C 0.90182 0.7167 0.92639 0.0
C829 C 0.9434 0.72046 0.93105 0.0
C830 C 0.89182 0.69938 0.8181 0.0
C831 C 0.87666 0.71935 0.96104 0.0
H832 H 0.74968 0.71971 0.85192 0.0
H833 H 0.79063 0.62795 0.88758 0.0
H834 H 0.82322 0.76379 0.8957 0.0
H835 H 0.84495 0.75715 0.8505 0.0
H836 H 0.79195 0.76436 0.8523 0.0
H837 H 0.85687 0.61764 0.90867 0.0
H838 H 0.89175 0.64175 0.88386 0.0
H839 H 0.88218 0.6501 0.93284 0.0
H840 H 0.96885 0.71103 0.83852 0.0
H841 H 0.95667 0.72424 0.95958 0.0
H842 H 0.86627 0.71507 0.80984 0.0
H843 H 0.88034 0.67475 0.81829 0.0
H844 H 0.91441 0.70116 0.79587 0.0
H845 H 0.84756 0.73092 0.95347 0.0
H846 H 0.89223 0.73304 0.9845 0.0
H847 H 0.87037 0.69535 0.97205 0.0
C848 C 0.44344 0.68914 0.37875 0.0
C849 C 0.46225 0.70623 0.40897 0.0
C850 C 0.40184 0.68735 0.37456 0.0
C851 C 0.37825 0.70395 0.40052 0.0
C852 C 0.39681 0.72239 0.43019 0.0
C853 C 0.43871 0.72303 0.43432 0.0
C854 C 0.38319 0.66715 0.34267 0.0
C855 C 0.37284 0.74059 0.45841 0.0
C856 C 0.2733 0.71322 0.35842 0.0
C857 C 0.25465 0.6869 0.37394 0.0
C858 C 0.31292 0.72064 0.3692 0.0
C859 C 0.33421 0.70128 0.39616 0.0
C860 C 0.31454 0.67615 0.41418 0.0
C861 C 0.27481 0.66925 0.40285 0.0
C862 C 0.33281 0.74779 0.34979 0.0
C863 C 0.33642 0.65494 0.44297 0.0
H864 H 0.46123 0.67692 0.35825 0.0
H865 H 0.45285 0.73617 0.4579 0.0
H866 H 0.36375 0.64884 0.35487 0.0
H867 H 0.36405 0.68193 0.323 0.0
H868 H 0.40595 0.65512 0.3256 0.0
H869 H 0.39017 0.76082 0.47091 0.0
H870 H 0.34444 0.74962 0.44492 0.0
H871 H 0.36531 0.72467 0.48226 0.0
H872 H 0.25732 0.72726 0.33669 0.0
H873 H 0.26047 0.64879 0.41479 0.0
H874 H 0.35428 0.73851 0.32926 0.0
H875 H 0.34989 0.76211 0.3715 0.0
H876 H 0.31093 0.76324 0.3338 0.0
H877 H 0.35905 0.64071 0.42827 0.0
H878 H 0.31587 0.6385 0.45714 0.0
H879 H 0.35259 0.66931 0.46534 0.0
C880 C 0.7719 0.60314 0.41264 0.0
C881 C 0.74925 0.602 0.37785 0.0
C882 C 0.81365 0.59926 0.41359 0.0
C883 C 0.83311 0.59469 0.37882 0.0
C884 C 0.8103 0.59329 0.34365 0.0
C885 C 0.76865 0.59678 0.34364 0.0
C886 C 0.83696 0.60043 0.45169 0.0
C887 C 0.82998 0.58903 0.30589 0.0
C888 C 0.94196 0.61858 0.3739 0.0
C889 C 0.96158 0.58915 0.37472 0.0
C890 C 0.90026 0.62069 0.37555 0.0
C891 C 0.87748 0.59274 0.37881 0.0
C892 C 0.89696 0.563 0.38051 0.0
C893 C 0.93871 0.56154 0.37814 0.0
C894 C 0.88053 0.65287 0.37326 0.0
C895 C 0.87365 0.53269 0.38434 0.0
H896 H 0.75687 0.60697 0.43909 0.0
H897 H 0.75132 0.59646 0.31662 0.0
H898 H 0.85565 0.57884 0.45547 0.0
H899 H 0.85752 0.621 0.4524 0.0
H900 H 0.81714 0.60238 0.47625 0.0
H901 H 0.80784 0.58761 0.28119 0.0
H902 H 0.85041 0.60916 0.30114 0.0
H903 H 0.84836 0.56716 0.3065 0.0
H904 H 0.95908 0.64017 0.37219 0.0
H905 H 0.95328 0.53866 0.37845 0.0
H906 H 0.86319 0.65706 0.39911 0.0
H907 H 0.85912 0.65385 0.348 0.0
H908 H 0.90255 0.67233 0.37086 0.0
H909 H 0.8547 0.53409 0.40954 0.0
H910 H 0.89347 0.51165 0.38758 0.0
H911 H 0.85333 0.52926 0.35861 0.0
C912 C 0.52423 0.41481 0.14352 0.0
C913 C 0.49824 0.43656 0.12477 0.0
C914 C 0.56587 0.41915 0.14467 0.0
C915 C 0.58209 0.44569 0.12624 0.0
C916 C 0.55615 0.46791 0.10761 0.0
C917 C 0.51461 0.46319 0.10732 0.0
C918 C 0.59254 0.39507 0.16515 0.0
C919 C 0.5723 0.49649 0.08755 0.0
C920 C 0.68782 0.47238 0.15465 0.0
C921 C 0.70988 0.45903 0.12546 0.0
C922 C 0.64628 0.46803 0.15544 0.0
C923 C 0.62623 0.4501 0.12613 0.0
C924 C 0.64832 0.43656 0.09656 0.0
C925 C 0.6899 0.44107 0.09669 0.0
C926 C 0.62389 0.48246 0.18775 0.0
C927 C 0.62799 0.41751 0.0646 0.0
H928 H 0.51224 0.39391 0.15663 0.0
H929 H 0.49495 0.48041 0.09329 0.0
H930 H 0.61198 0.38347 0.14439 0.0
H931 H 0.61247 0.40694 0.18704 0.0
H932 H 0.57518 0.3765 0.17951 0.0
H933 H 0.54814 0.51154 0.07434 0.0
H934 H 0.59056 0.51108 0.1082 0.0
H935 H 0.59221 0.48879 0.06474 0.0
H936 H 0.70316 0.48582 0.17731 0.0
H937 H 0.70674 0.43095 0.0739 0.0
H938 H 0.6082 0.46367 0.20333 0.0
H939 H 0.60075 0.4991 0.17602 0.0
H940 H 0.64399 0.49544 0.20857 0.0
H941 H 0.61231 0.39697 0.07668 0.0
H942 H 0.64944 0.40866 0.04371 0.0
H943 H 0.60505 0.43224 0.04904 0.0
C944 C 0.19294 0.37887 0.18668 0.0
C945 C 0.21067 0.3489 0.18662 0.0
C946 C 0.15146 0.38219 0.18232 0.0
C947 C 0.12747 0.3548 0.17746 0.0
C948 C 0.14495 0.32441 0.1814 0.0
C949 C 0.18665 0.32181 0.18607 0.0
C950 C 0.13377 0.41504 0.17932 0.0
C951 C 0.11997 0.29478 0.17783 0.0
C952 C 0.01653 0.37175 0.16679 0.0
C953 C 0.01185 0.3768 0.12698 0.0
C954 C 0.05358 0.36273 0.18386 0.0
C955 C 0.08644 0.35832 0.16047 0.0
C956 C 0.08124 0.36102 0.12014 0.0
C957 C 0.04419 0.37052 0.10397 0.0
C958 C 0.05788 0.35984 0.22698 0.0
C959 C 0.11547 0.35563 0.09407 0.0
H960 H 0.21174 0.39974 0.18839 0.0
H961 H 0.20062 0.29865 0.18659 0.0
H962 H 0.12398 0.41987 0.14904 0.0
H963 H 0.1071 0.41698 0.19687 0.0
H964 H 0.15568 0.43349 0.18881 0.0
H965 H 0.13838 0.27307 0.18195 0.0
H966 H 0.0967 0.29503 0.19943 0.0
H967 H 0.10424 0.2938 0.14915 0.0
H968 H 0.99162 0.37545 0.18494 0.0
H969 H 0.04134 0.37416 0.07331 0.0
H970 H 0.06984 0.38236 0.23917 0.0
H971 H 0.07906 0.34071 0.23585 0.0
H972 H 0.02861 0.35521 0.23965 0.0
H973 H 0.13833 0.37437 0.09905 0.0
H974 H 0.10554 0.35592 0.06323 0.0
H975 H 0.1301 0.33254 0.10054 0.0
C976 C 0.54731 0.38261 0.58474 0.0
C977 C 0.51581 0.37033 0.60499 0.0
C978 C 0.58697 0.37575 0.59608 0.0
C979 C 0.59494 0.35552 0.62783 0.0
C980 C 0.56313 0.34263 0.64802 0.0
C981 C 0.52374 0.35062 0.63662 0.0
C982 C 0.6203 0.39033 0.57431 0.0
C983 C 0.57068 0.32086 0.68186 0.0
C984 C 0.69667 0.31673 0.63049 0.0
C985 C 0.71822 0.33667 0.65588 0.0
C986 C 0.65602 0.32222 0.62165 0.0
C987 C 0.63673 0.34774 0.63949 0.0
C988 C 0.65809 0.36713 0.66641 0.0
C989 C 0.69883 0.36143 0.6741 0.0
C990 C 0.63411 0.30164 0.5921 0.0
C991 C 0.63851 0.39485 0.68549 0.0
H992 H 0.5408 0.3983 0.5607 0.0
H993 H 0.49903 0.34131 0.6521 0.0
H994 H 0.6402 0.40437 0.59416 0.0
H995 H 0.63884 0.37148 0.56188 0.0
H996 H 0.60885 0.40602 0.55072 0.0
H997 H 0.54284 0.30912 0.69055 0.0
H998 H 0.59295 0.30242 0.67516 0.0
H999 H 0.58329 0.33465 0.70665 0.0
H1000 H 0.71226 0.29811 0.61592 0.0
H1001 H 0.71599 0.37681 0.69353 0.0
H1002 H 0.61898 0.31637 0.56947 0.0
H1003 H 0.61054 0.288 0.60603 0.0
H1004 H 0.65438 0.28492 0.57798 0.0
H1005 H 0.62857 0.41247 0.66348 0.0
H1006 H 0.65904 0.40673 0.70691 0.0
H1007 H 0.61153 0.38691 0.70003 0.0
C1008 C 0.02696 0.43338 0.66894 0.0
C1009 C 0.00506 0.43901 0.63436 0.0
C1010 C 0.06864 0.43745 0.67166 0.0
C1011 C 0.08881 0.44723 0.63894 0.0
C1012 C 0.06679 0.45354 0.60418 0.0
C1013 C 0.02521 0.44938 0.60233 0.0
C1014 C 0.09117 0.43071 0.70929 0.0
C1015 C 0.08727 0.46373 0.56855 0.0
C1016 C 0.19433 0.48022 0.64898 0.0
C1017 C 0.21728 0.45381 0.63937 0.0
C1018 C 0.15248 0.47833 0.64966 0.0
C1019 C 0.13316 0.44936 0.64032 0.0
C1020 C 0.15614 0.42256 0.63092 0.0
C1021 C 0.19787 0.42507 0.63072 0.0
C1022 C 0.1289 0.5074 0.65981 0.0
C1023 C 0.13662 0.39125 0.62068 0.0
H1024 H 0.01146 0.42569 0.69384 0.0
H1025 H 0.00867 0.45325 0.57532 0.0
H1026 H 0.11189 0.41051 0.70575 0.0
H1027 H 0.10962 0.45146 0.71827 0.0
H1028 H 0.07083 0.42493 0.73255 0.0
H1029 H 0.06561 0.46913 0.54431 0.0
H1030 H 0.10582 0.48503 0.57471 0.0
H1031 H 0.10765 0.4447 0.55943 0.0
H1032 H 0.20904 0.50254 0.65539 0.0
H1033 H 0.21528 0.40433 0.62413 0.0
H1034 H 0.10955 0.50213 0.68395 0.0
H1035 H 0.10896 0.51451 0.63499 0.0
H1036 H 0.14855 0.52772 0.66803 0.0
H1037 H 0.11841 0.38312 0.64452 0.0
H1038 H 0.15885 0.37257 0.61456 0.0
H1039 H 0.11606 0.39411 0.59502 0.0
C1040 C 0.1073 0.20912 0.20872 0.0
C1041 C 0.14326 0.20043 0.22828 0.0
C1042 C 0.10447 0.21091 0.16853 0.0
C1043 C 0.13832 0.20355 0.14742 0.0
C1044 C 0.17569 0.19807 0.16718 0.0
C1045 C 0.17776 0.19657 0.20751 0.0
C1046 C 0.06459 0.21842 0.14863 0.0
C1047 C 0.21276 0.19118 0.14562 0.0
C1048 C 0.11893 0.15617 0.05614 0.0
C1049 C 0.12465 0.17863 0.02741 0.0
C1050 C 0.12299 0.16426 0.09506 0.0
C1051 C 0.13302 0.19572 0.10579 0.0
C1052 C 0.13793 0.2188 0.07692 0.0
C1053 C 0.13331 0.21 0.03799 0.0
C1054 C 0.11718 0.13886 0.12474 0.0
C1055 C 0.14782 0.25278 0.0867 0.0
H1056 H 0.08075 0.21285 0.22483 0.0
H1057 H 0.20566 0.19 0.2225 0.0
H1058 H 0.06838 0.2359 0.12538 0.0
H1059 H 0.05184 0.19659 0.13527 0.0
H1060 H 0.04288 0.22801 0.16882 0.0
H1061 H 0.24028 0.19174 0.16472 0.0
H1062 H 0.21014 0.16736 0.13229 0.0
H1063 H 0.21583 0.20861 0.12218 0.0
H1064 H 0.11165 0.13199 0.04808 0.0
H1065 H 0.1378 0.22745 0.01585 0.0
H1066 H 0.09297 0.14587 0.14371 0.0
H1067 H 0.14497 0.13601 0.14307 0.0
H1068 H 0.10937 0.11559 0.11158 0.0
H1069 H 0.1195 0.26609 0.08948 0.0
H1070 H 0.16443 0.26417 0.0636 0.0
H1071 H 0.16579 0.25498 0.11413 0.0
C1072 C 0.88989 0.89408 0.954 0.0
C1073 C 0.89303 0.86842 0.97949 0.0
C1074 C 0.88933 0.88955 0.91418 0.0
C1075 C 0.89236 0.85856 0.89911 0.0
C1076 C 0.89744 0.83263 0.92463 0.0
C1077 C 0.89773 0.83787 0.96454 0.0
C1078 C 0.88507 0.91807 0.88819 0.0
C1079 C 0.90279 0.79924 0.91055 0.0
C1080 C 0.84926 0.85558 0.79657 0.0
C1081 C 0.88362 0.86078 0.77595 0.0
C1082 C 0.85201 0.85198 0.83672 0.0
C1083 C 0.88985 0.85408 0.85661 0.0
C1084 C 0.9248 0.85626 0.83557 0.0
C1085 C 0.92129 0.85948 0.79553 0.0
C1086 C 0.81426 0.84784 0.85812 0.0
C1087 C 0.96577 0.85713 0.85557 0.0
H1088 H 0.88758 0.9179 0.96523 0.0
H1089 H 0.90048 0.81788 0.98392 0.0
H1090 H 0.91042 0.919 0.86884 0.0
H1091 H 0.85713 0.91613 0.86989 0.0
H1092 H 0.88421 0.94065 0.90449 0.0
H1093 H 0.8857 0.78271 0.92816 0.0
H1094 H 0.89327 0.79599 0.87995 0.0
H1095 H 0.93486 0.79264 0.9143 0.0
H1096 H 0.82008 0.85621 0.78173 0.0
H1097 H 0.94809 0.86241 0.77961 0.0
H1098 H 0.80781 0.86996 0.87388 0.0
H1099 H 0.81821 0.82859 0.8796 0.0
H1100 H 0.78808 0.84222 0.83853 0.0
H1101 H 0.96898 0.8791 0.87292 0.0
H1102 H 0.99012 0.8564 0.835 0.0
H1103 H 0.96947 0.8368 0.87553 0.0
C1104 C 0.10664 0.70924 0.53044 0.0
C1105 C 0.09583 0.67827 0.52012 0.0
C1106 C 0.11166 0.71807 0.56932 0.0
C1107 C 0.10508 0.69546 0.59833 0.0
C1108 C 0.09246 0.66451 0.58777 0.0
C1109 C 0.08838 0.65625 0.54885 0.0
C1110 C 0.12548 0.75115 0.57923 0.0
C1111 C 0.08425 0.6398 0.61764 0.0
C1112 C 0.15263 0.69641 0.69937 0.0
C1113 C 0.12003 0.70516 0.72087 0.0
C1114 C 0.14913 0.69549 0.65902 0.0
C1115 C 0.11212 0.70334 0.63982 0.0
C1116 C 0.08019 0.71455 0.66132 0.0
C1117 C 0.0846 0.71544 0.70152 0.0
C1118 C 0.18428 0.68424 0.6371 0.0
C1119 C 0.04032 0.72334 0.64217 0.0
H1120 H 0.11287 0.72611 0.50813 0.0
H1121 H 0.08003 0.63228 0.54075 0.0
H1122 H 0.15548 0.7502 0.59413 0.0
H1123 H 0.12731 0.7663 0.55338 0.0
H1124 H 0.10483 0.76246 0.59908 0.0
H1125 H 0.07258 0.61744 0.60466 0.0
H1126 H 0.11218 0.63441 0.63482 0.0
H1127 H 0.06216 0.64893 0.63769 0.0
H1128 H 0.18007 0.68841 0.71406 0.0
H1129 H 0.05951 0.72277 0.71801 0.0
H1130 H 0.1889 0.69994 0.61224 0.0
H1131 H 0.17813 0.66012 0.62571 0.0
H1132 H 0.21233 0.68346 0.65544 0.0
H1133 H 0.04444 0.73895 0.61716 0.0
H1134 H 0.0205 0.7355 0.66221 0.0
H1135 H 0.02503 0.70158 0.63135 0.0
C1136 C 0.90335 0.36886 0.45373 0.0
C1137 C 0.87791 0.3483 0.47257 0.0
C1138 C 0.90048 0.37222 0.41368 0.0
C1139 C 0.87153 0.35454 0.39188 0.0
C1140 C 0.84713 0.33258 0.41047 0.0
C1141 C 0.85063 0.3297 0.4506 0.0
C1142 C 0.9269 0.39603 0.39496 0.0
C1143 C 0.81597 0.31326 0.38822 0.0
C1144 C 0.83348 0.39218 0.29839 0.0
C1145 C 0.85635 0.37655 0.2717 0.0
C1146 C 0.83728 0.38452 0.3375 0.0
C1147 C 0.86489 0.36081 0.35008 0.0
C1148 C 0.88735 0.34439 0.3229 0.0
C1149 C 0.8828 0.35252 0.28389 0.0
C1150 C 0.81306 0.40279 0.36554 0.0
C1151 C 0.91777 0.31954 0.3351 0.0
H1152 H 0.92408 0.38365 0.47046 0.0
H1153 H 0.83117 0.31351 0.46492 0.0
H1154 H 0.94255 0.38483 0.37111 0.0
H1155 H 0.90823 0.41552 0.38247 0.0
H1156 H 0.94962 0.40636 0.41557 0.0
H1157 H 0.80414 0.29374 0.4057 0.0
H1158 H 0.79062 0.32879 0.37878 0.0
H1159 H 0.82857 0.30306 0.36206 0.0
H1160 H 0.81353 0.4111 0.28872 0.0
H1161 H 0.90101 0.34095 0.2631 0.0
H1162 H 0.83342 0.4165 0.38533 0.0
H1163 H 0.79606 0.38629 0.3833 0.0
H1164 H 0.79166 0.41947 0.35092 0.0
H1165 H 0.9455 0.33131 0.3464 0.0
H1166 H 0.92565 0.30419 0.31069 0.0
H1167 H 0.9067 0.30452 0.35835 0.0
C1168 C 0.64598 0.20475 0.56369 0.0
C1169 C 0.61928 0.18334 0.54533 0.0
C1170 C 0.64923 0.20709 0.60387 0.0
C1171 C 0.62469 0.18802 0.62627 0.0
C1172 C 0.59703 0.16689 0.60799 0.0
C1173 C 0.59466 0.1648 0.56776 0.0
C1174 C 0.67959 0.2294 0.62246 0.0
C1175 C 0.57101 0.1456 0.63096 0.0
C1176 C 0.65921 0.17135 0.72962 0.0
C1177 C 0.6336 0.19085 0.74982 0.0
C1178 C 0.65678 0.1703 0.68937 0.0
C1179 C 0.62857 0.18969 0.6689 0.0
C1180 C 0.6036 0.21023 0.68921 0.0
C1181 C 0.60615 0.21034 0.72949 0.0
C1182 C 0.68323 0.14747 0.66885 0.0
C1183 C 0.57348 0.23145 0.6684 0.0
H1184 H 0.66488 0.21937 0.5466 0.0
H1185 H 0.57458 0.14772 0.55396 0.0
H1186 H 0.66413 0.24727 0.6398 0.0
H1187 H 0.7004 0.21631 0.64241 0.0
H1188 H 0.69757 0.24164 0.60105 0.0
H1189 H 0.55035 0.13104 0.61239 0.0
H1190 H 0.59013 0.12952 0.64907 0.0
H1191 H 0.55304 0.15989 0.65055 0.0
H1192 H 0.67986 0.1558 0.74541 0.0
H1193 H 0.58623 0.22529 0.7452 0.0
H1194 H 0.70034 0.16009 0.64713 0.0
H1195 H 0.66443 0.12953 0.65333 0.0
H1196 H 0.70471 0.13502 0.68889 0.0
H1197 H 0.58855 0.2461 0.64708 0.0
H1198 H 0.5579 0.24729 0.6883 0.0
H1199 H 0.55072 0.2169 0.65239 0.0
C1200 C 0.38017 0.8322 0.29582 0.0
C1201 C 0.35682 0.85798 0.28293 0.0
C1202 C 0.3861 0.82578 0.33526 0.0
C1203 C 0.36772 0.84548 0.36239 0.0
C1204 C 0.34348 0.87118 0.34927 0.0
C1205 C 0.33814 0.87693 0.3098 0.0
C1206 C 0.41415 0.79913 0.34715 0.0
C1207 C 0.32446 0.89352 0.37697 0.0
C1208 C 0.34855 0.82408 0.46578 0.0
C1209 C 0.38148 0.83799 0.4857 0.0
C1210 C 0.34428 0.82519 0.4256 0.0
C1211 C 0.37415 0.84014 0.40451 0.0
C1212 C 0.40846 0.85285 0.42436 0.0
C1213 C 0.41181 0.85145 0.46465 0.0
C1214 C 0.30597 0.81243 0.40685 0.0
C1215 C 0.4403 0.87002 0.40329 0.0
H1216 H 0.39554 0.81799 0.27518 0.0
H1217 H 0.32028 0.897 0.29985 0.0
H1218 H 0.44543 0.80701 0.344 0.0
H1219 H 0.41104 0.79141 0.37723 0.0
H1220 H 0.40938 0.77848 0.32776 0.0
H1221 H 0.31058 0.9144 0.36229 0.0
H1222 H 0.30092 0.88091 0.3922 0.0
H1223 H 0.34712 0.90198 0.39889 0.0
H1224 H 0.32507 0.81335 0.48173 0.0
H1225 H 0.43703 0.86274 0.47972 0.0
H1226 H 0.30634 0.8111 0.37517 0.0
H1227 H 0.28071 0.82788 0.41454 0.0
H1228 H 0.29955 0.78856 0.41822 0.0
H1229 H 0.45502 0.8534 0.3838 0.0
H1230 H 0.46365 0.8805 0.42312 0.0
H1231 H 0.42653 0.88921 0.3854 0.0
C1232 C 0.63766 0.69715 0.03998 0.0
C1233 C 0.60976 0.67505 0.02538 0.0
C1234 C 0.64012 0.7047 0.07927 0.0
C1235 C 0.61479 0.68901 0.10456 0.0
C1236 C 0.58575 0.66733 0.08954 0.0
C1237 C 0.58343 0.66078 0.05003 0.0
C1238 C 0.67126 0.72825 0.09363 0.0
C1239 C 0.55827 0.65005 0.11545 0.0
C1240 C 0.65124 0.67767 0.20852 0.0
C1241 C 0.62538 0.69753 0.22794 0.0
C1242 C 0.64869 0.67533 0.1683 0.0
C1243 C 0.61997 0.69367 0.1469 0.0
C1244 C 0.59481 0.71471 0.16641 0.0
C1245 C 0.59798 0.71642 0.2066 0.0
C1246 C 0.67488 0.65159 0.14896 0.0
C1247 C 0.56276 0.7344 0.14596 0.0
H1248 H 0.65836 0.70783 0.02081 0.0
H1249 H 0.56229 0.64334 0.03859 0.0
H1250 H 0.66149 0.7415 0.11902 0.0
H1251 H 0.69928 0.71549 0.10212 0.0
H1252 H 0.67838 0.7454 0.07084 0.0
H1253 H 0.53831 0.63313 0.09944 0.0
H1254 H 0.57618 0.63683 0.13776 0.0
H1255 H 0.53946 0.66734 0.1304 0.0
H1256 H 0.67189 0.66254 0.2249 0.0
H1257 H 0.57788 0.73183 0.22147 0.0
H1258 H 0.69319 0.66361 0.12771 0.0
H1259 H 0.65588 0.63394 0.13313 0.0
H1260 H 0.6953 0.63887 0.16974 0.0
H1261 H 0.56258 0.7325 0.11431 0.0
H1262 H 0.56649 0.75962 0.15436 0.0
H1263 H 0.53301 0.7269 0.15544 0.0
C1264 C 0.36866 0.38989 0.80408 0.0
C1265 C 0.3574 0.36767 0.77554 0.0
C1266 C 0.3679 0.38253 0.84315 0.0
C1267 C 0.35413 0.35249 0.85447 0.0
C1268 C 0.34163 0.33011 0.82609 0.0
C1269 C 0.34364 0.33788 0.78693 0.0
C1270 C 0.38178 0.4071 0.87237 0.0
C1271 C 0.32533 0.29827 0.83704 0.0
C1272 C 0.38525 0.33082 0.95732 0.0
C1273 C 0.35292 0.34243 0.97755 0.0
C1274 C 0.38524 0.33236 0.91704 0.0
C1275 C 0.35188 0.34543 0.89617 0.0
C1276 C 0.31827 0.35554 0.91599 0.0
C1277 C 0.31944 0.35444 0.95622 0.0
C1278 C 0.42172 0.32129 0.89692 0.0
C1279 C 0.28177 0.36919 0.89483 0.0
H1280 H 0.37789 0.41341 0.79599 0.0
H1281 H 0.33478 0.3205 0.76532 0.0
H1282 H 0.35656 0.41417 0.89005 0.0
H1283 H 0.40552 0.39704 0.89206 0.0
H1284 H 0.3937 0.42867 0.8588 0.0
H1285 H 0.32291 0.28177 0.81223 0.0
H1286 H 0.3444 0.28729 0.86026 0.0
H1287 H 0.2951 0.30145 0.84824 0.0
H1288 H 0.41113 0.32104 0.97284 0.0
H1289 H 0.29451 0.36447 0.97071 0.0
H1290 H 0.43632 0.34186 0.88367 0.0
H1291 H 0.41293 0.30458 0.87348 0.0
H1292 H 0.44391 0.30945 0.91682 0.0
H1293 H 0.28889 0.39299 0.88368 0.0
H1294 H 0.25601 0.37151 0.91362 0.0
H1295 H 0.27265 0.35413 0.86986 0.0
C1296 C 0.33034 0.31567 0.53406 0.0
C1297 C 0.31386 0.34146 0.55319 0.0
C1298 C 0.30609 0.29436 0.51259 0.0
C1299 C 0.26401 0.29827 0.51103 0.0
C1300 C 0.24711 0.32434 0.53036 0.0
C1301 C 0.27231 0.3459 0.55079 0.0
C1302 C 0.32561 0.26764 0.49152 0.0
C1303 C 0.20239 0.32905 0.53012 0.0
C1304 C 0.20337 0.2607 0.42778 0.0
C1305 C 0.1904 0.23227 0.44379 0.0
C1306 C 0.22743 0.28215 0.44922 0.0
C1307 C 0.23805 0.27556 0.48815 0.0
C1308 C 0.22502 0.24684 0.50457 0.0
C1309 C 0.2018 0.22529 0.48201 0.0
C1310 C 0.24165 0.31183 0.43005 0.0
C1311 C 0.23504 0.23916 0.54615 0.0
H1312 H 0.36249 0.31219 0.53583 0.0
H1313 H 0.25943 0.36549 0.56609 0.0
H1314 H 0.31535 0.24455 0.50244 0.0
H1315 H 0.31665 0.26868 0.46051 0.0
H1316 H 0.35879 0.26844 0.49471 0.0
H1317 H 0.1939 0.34994 0.54735 0.0
H1318 H 0.19017 0.3322 0.50026 0.0
H1319 H 0.18803 0.3077 0.54179 0.0
H1320 H 0.19482 0.26613 0.39814 0.0
H1321 H 0.19144 0.20353 0.49461 0.0
H1322 H 0.27482 0.31285 0.43208 0.0
H1323 H 0.23044 0.33302 0.44498 0.0
H1324 H 0.23149 0.31312 0.39931 0.0
H1325 H 0.26795 0.23757 0.55128 0.0
H1326 H 0.22149 0.21649 0.555 0.0
H1327 H 0.22427 0.25842 0.56471 0.0
C1328 C 0.93048 0.99608 0.52441 0.0
C1329 C 0.94823 0.97528 0.55142 0.0
C1330 C 0.95409 1.01768 0.50435 0.0
C1331 C 0.99636 1.01802 0.51108 0.0
C1332 C 0.01425 0.99616 0.53738 0.0
C1333 C 0.99003 0.97539 0.55735 0.0
C1334 C 0.93377 0.0407 0.47674 0.0
C1335 C 0.05907 0.9949 0.54484 0.0
C1336 C 0.0613 0.05208 0.43441 0.0
C1337 C 0.07229 0.08178 0.44962 0.0
C1338 C 0.03687 0.03125 0.45409 0.0
C1339 C 0.02227 0.04036 0.48988 0.0
C1340 C 0.03376 0.07016 0.50582 0.0
C1341 C 0.05891 0.09046 0.48562 0.0
C1342 C 0.02641 0.99953 0.43632 0.0
C1343 C 0.01867 0.08089 0.54378 0.0
H1344 H 0.89817 0.99644 0.52024 0.0
H1345 H 0.00389 0.95931 0.57825 0.0
H1346 H 0.94058 0.0653 0.48607 0.0
H1347 H 0.94547 0.03772 0.44773 0.0
H1348 H 0.90078 0.03756 0.47471 0.0
H1349 H 0.06836 0.97594 0.56544 0.0
H1350 H 0.07405 0.99076 0.51757 0.0
H1351 H 0.06998 1.01791 0.55651 0.0
H1352 H 0.07149 0.04522 0.40653 0.0
H1353 H 0.06666 0.11359 0.49719 0.0
H1354 H 0.99353 0.99758 0.43129 0.0
H1355 H 0.03594 0.98021 0.45624 0.0
H1356 H 0.04076 0.99578 0.4086 0.0
H1357 H 0.98547 0.08139 0.54221 0.0
H1358 H 0.02987 0.10478 0.55214 0.0
H1359 H 0.02808 0.06387 0.56665 0.0
C1360 C 0.33426 0.96433 0.74178 0.0
C1361 C 0.31879 0.94882 0.70883 0.0
C1362 C 0.31053 0.9862 0.76145 0.0
C1363 C 0.27033 0.99211 0.74822 0.0
C1364 C 0.25453 0.97574 0.71557 0.0
C1365 C 0.27888 0.95454 0.69636 0.0
C1366 C 0.32868 1.00353 0.79584 0.0
C1367 C 0.21169 0.98034 0.70091 0.0
C1368 C 0.19701 0.02539 0.8183 0.0
C1369 C 0.19365 0.05713 0.80692 0.0
C1370 C 0.22144 1.004 0.79925 0.0
C1371 C 0.24423 1.01479 0.76872 0.0
C1372 C 0.24058 0.04684 0.75676 0.0
C1373 C 0.21496 0.06759 0.77578 0.0
C1374 C 0.22321 0.96992 0.81217 0.0
C1375 C 0.26443 0.05935 0.72444 0.0
H1376 H 0.36513 0.96023 0.75132 0.0
H1377 H 0.2665 0.94238 0.67111 0.0
H1378 H 0.32723 0.02943 0.79071 0.0
H1379 H 0.31129 0.99862 0.82145 0.0
H1380 H 0.36036 0.99669 0.80225 0.0
H1381 H 0.20573 0.96924 0.67234 0.0
H1382 H 0.19132 0.96964 0.72147 0.0
H1383 H 0.20415 1.00585 0.69863 0.0
H1384 H 0.18088 1.01739 0.84273 0.0
H1385 H 0.2132 0.09231 0.7676 0.0
H1386 H 0.25419 0.96372 0.82217 0.0
H1387 H 0.21488 0.95406 0.7877 0.0
H1388 H 0.2029 0.96514 0.83577 0.0
H1389 H 0.29684 0.05554 0.73113 0.0
H1390 H 0.25911 0.08497 0.71924 0.0
H1391 H 0.25653 0.04619 0.69761 0.0
C1392 C 0.97455 0.28227 0.67136 0.0
C1393 C 0.94924 0.30489 0.68707 0.0
C1394 C -0.00011 0.26318 0.69474 0.0
C1395 C -0.00029 0.26633 0.73512 0.0
C1396 C 0.97449 0.28934 0.75129 0.0
C1397 C 0.94978 0.30858 0.72704 0.0
C1398 C 0.02688 0.23958 0.67612 0.0
C1399 C 0.9732 0.29328 0.7942 0.0
C1400 C 0.0425 0.19621 0.79304 0.0
C1401 C 0.08118 0.20693 0.80339 0.0
C1402 C 0.0152 0.21561 0.77179 0.0
C1403 C 0.0271 0.2462 0.76002 0.0
C1404 C 0.06622 0.25693 0.77019 0.0
C1405 C 0.09256 0.23732 0.79187 0.0
C1406 C 0.97363 0.20338 0.76192 0.0
C1407 C 0.08056 0.28901 0.75767 0.0
H1408 H 0.97454 0.27939 0.64047 0.0
H1409 H 0.93004 0.32579 0.73938 0.0
H1410 H 0.05857 0.2444 0.68501 0.0
H1411 H 0.01995 0.21529 0.68578 0.0
H1412 H 0.02374 0.24028 0.64429 0.0
H1413 H 0.9516 0.31183 0.80232 0.0
H1414 H 0.96469 0.27055 0.80743 0.0
H1415 H 0.0033 0.29963 0.8065 0.0
H1416 H 0.03333 0.17292 0.80209 0.0
H1417 H 0.12243 0.24581 0.79956 0.0
H1418 H 0.96896 0.20128 0.73032 0.0
H1419 H 0.951 0.22035 0.77191 0.0
H1420 H 0.96826 0.17989 0.77498 0.0
H1421 H 0.07949 0.2903 0.72587 0.0
H1422 H 0.11161 0.29412 0.76858 0.0
H1423 H 0.06054 0.30783 0.76797 0.0
C1424 C 0.78668 0.8421 0.54588 0.0
C1425 C 0.82586 0.83188 0.55501 0.0
C1426 C 0.75943 0.82255 0.52485 0.0
C1427 C 0.77198 0.79246 0.51176 0.0
C1428 C 0.81177 0.7824 0.52034 0.0
C1429 C 0.83797 0.80202 0.54217 0.0
C1430 C 0.71709 0.83398 0.51692 0.0
C1431 C 0.82687 0.751 0.50611 0.0
C1432 C 0.69521 0.72908 0.48138 0.0
C1433 C 0.69153 0.73377 0.44161 0.0
C1434 C 0.72093 0.74822 0.50471 0.0
C1435 C 0.7442 0.77201 0.48771 0.0
C1436 C 0.74148 0.77597 0.44738 0.0
C1437 C 0.71488 0.75713 0.42498 0.0
C1438 C 0.72245 0.74356 0.54763 0.0
C1439 C 0.76651 0.80028 0.42783 0.0
H1440 H 0.77702 0.865 0.55598 0.0
H1441 H 0.8683 0.79403 0.54891 0.0
H1442 H 0.71091 0.83638 0.48554 0.0
H1443 H 0.69564 0.81639 0.5275 0.0
H1444 H 0.71146 0.85716 0.53073 0.0
H1445 H 0.85873 0.74673 0.51506 0.0
H1446 H 0.80862 0.73143 0.51715 0.0
H1447 H 0.82377 0.75013 0.47431 0.0
H1448 H 0.67681 0.71134 0.49438 0.0
H1449 H 0.71222 0.76075 0.3942 0.0
H1450 H 0.71371 0.76583 0.56194 0.0
H1451 H 0.75343 0.73789 0.55814 0.0
H1452 H 0.70231 0.7243 0.55645 0.0
H1453 H 0.7589 0.82435 0.43793 0.0
H1454 H 0.76198 0.79957 0.39608 0.0
H1455 H 0.7987 0.79629 0.43542 0.0
C1456 C 0.67916 0.0618 0.2862 0.0
C1457 C 0.69643 0.07777 0.31804 0.0
C1458 C 0.70177 0.03994 0.26536 0.0
C1459 C 0.74275 0.03453 0.27616 0.0
C1460 C 0.76043 0.05156 0.30751 0.0
C1461 C 0.73703 0.07257 0.32819 0.0
C1462 C 0.68163 0.02207 0.23236 0.0
C1463 C 0.80413 0.04748 0.31945 0.0
C1464 C 0.7962 0.95903 0.2447 0.0
C1465 C 0.81459 0.96947 0.21178 0.0
C1466 C 0.77245 0.97984 0.26585 0.0
C1467 C 0.76767 1.01189 0.25414 0.0
C1468 C 0.78762 0.02264 0.22174 0.0
C1469 C 0.8103 1.00127 0.2008 0.0
C1470 C 0.75141 0.96729 0.29995 0.0
C1471 C 0.78451 0.05667 0.20875 0.0
H1472 H 0.6477 0.06541 0.27857 0.0
H1473 H 0.75063 0.08498 0.35272 0.0
H1474 H 0.69704 0.0269 0.20553 0.0
H1475 H 0.68389 0.99624 0.23777 0.0
H1476 H 0.64955 0.02853 0.22787 0.0
H1477 H 0.81362 0.06321 0.34373 0.0
H1478 H 0.81008 0.02261 0.32809 0.0
H1479 H 0.82296 0.05263 0.29487 0.0
H1480 H 0.79868 0.93431 0.25274 0.0
H1481 H 0.82427 1.00937 0.17516 0.0
H1482 H 0.71859 0.97023 0.29512 0.0
H1483 H 0.76045 0.98103 0.32605 0.0
H1484 H 0.75805 0.94188 0.30539 0.0
H1485 H 0.75295 0.06251 0.20046 0.0
H1486 H 0.80315 0.06156 0.18391 0.0
H1487 H 0.79405 0.07273 0.23265 0.0
C1488 C 0.9117 0.79023 0.21237 0.0
C1489 C 0.9271 0.81885 0.19908 0.0
C1490 C 0.9361 0.76837 0.2329 0.0
C1491 C 0.97743 0.77468 0.23937 0.0
C1492 C 0.99323 0.80359 0.22592 0.0
C1493 C 0.96774 0.82556 0.20644 0.0
C1494 C 0.91752 0.73854 0.24782 0.0
C1495 C 0.03722 0.81105 0.23145 0.0
C1496 C 0.03515 0.73309 0.3217 0.0
C1497 C 0.05313 0.70768 0.30312 0.0
C1498 C 0.01004 0.75462 0.30146 0.0
C1499 C 0.00365 0.7514 0.26122 0.0
C1500 C 0.02166 0.72563 0.24226 0.0
C1501 C 0.04573 0.70376 0.26355 0.0
C1502 C 0.99043 0.78088 0.32322 0.0
C1503 C 0.01635 0.72166 0.19934 0.0
H1504 H 0.88023 0.78498 0.20687 0.0
H1505 H 0.97989 0.84744 0.19578 0.0
H1506 H 0.93139 0.71748 0.23485 0.0
H1507 H 0.92326 0.73687 0.27935 0.0
H1508 H 0.8847 0.73762 0.24144 0.0
H1509 H 0.0451 0.83396 0.2182 0.0
H1510 H 0.04594 0.81199 0.26249 0.0
H1511 H 0.05514 0.79197 0.21864 0.0
H1512 H 0.04078 0.73614 0.35236 0.0
H1513 H 0.06008 0.68442 0.24906 0.0
H1514 H 0.95751 0.78013 0.31769 0.0
H1515 H 0.00088 0.80418 0.31312 0.0
H1516 H 0.99704 0.77929 0.35467 0.0
H1517 H 0.98419 0.71881 0.19089 0.0
H1518 H 0.03297 0.70086 0.18876 0.0
H1519 H 0.02696 0.74321 0.18481 0.0
C1520 C 0.29079 0.84137 0.04713 0.0
C1521 C 0.33102 0.83199 0.05039 0.0
C1522 C 0.26244 0.82371 0.02489 0.0
C1523 C 0.2747 0.79626 1.00506 0.0
C1524 C 0.31554 0.78734 0.00737 0.0
C1525 C 0.34301 0.80508 0.03024 0.0
C1526 C 0.21918 0.83395 0.02377 0.0
C1527 C 0.33029 0.75898 0.98571 0.0
C1528 C 0.19951 0.73187 0.97444 0.0
C1529 C 0.18975 0.74033 0.93631 0.0
C1530 C 0.22652 0.75018 0.9974 0.0
C1531 C 0.24512 0.77697 0.98147 0.0
C1532 C 0.2361 0.78499 0.94262 0.0
C1533 C 0.20815 0.76689 0.92076 0.0
C1534 C 0.23454 0.74126 0.03892 0.0
C1535 C 0.25587 0.81281 0.92414 0.0
H1536 H 0.28119 0.86192 0.06291 0.0
H1537 H 0.37412 0.79779 0.03234 0.0
H1538 H 0.2056 0.83275 0.99418 0.0
H1539 H 0.2021 0.8177 0.04182 0.0
H1540 H 0.21577 0.85844 0.03473 0.0
H1541 H 0.36324 0.75591 0.98933 0.0
H1542 H 0.31569 0.73718 0.9958 0.0
H1543 H 0.32211 0.76145 0.95466 0.0
H1544 H 0.18498 0.71159 0.98668 0.0
H1545 H 0.20079 0.77345 0.89122 0.0
H1546 H 0.22696 0.76145 0.05765 0.0
H1547 H 0.2668 0.73607 0.04441 0.0
H1548 H 0.217 0.72028 0.04725 0.0
H1549 H 0.24817 0.83499 0.93918 0.0
H1550 H 0.24664 0.81526 0.89328 0.0
H1551 H 0.28889 0.81015 0.92679 0.0
C1552 C 0.06311 0.58888 0.98202 0.0
C1553 C 0.04693 0.60666 0.95117 0.0
C1554 C 0.03861 0.56838 1.00267 0.0
C1555 C 0.99705 0.566 0.99246 0.0
C1556 C 0.98066 0.58471 0.96203 0.0
C1557 C 0.00569 0.6047 0.94193 0.0
C1558 C 0.05733 0.54858 0.0347 0.0
C1559 C 0.93658 0.58381 0.95051 0.0
C1560 C 0.93595 0.49375 0.02063 0.0
C1561 C 0.91845 0.50461 0.0539 0.0
C1562 C 0.96209 0.51328 1.00063 0.0
C1563 C 0.97028 0.54454 0.01384 0.0
C1564 C 0.95138 0.55585 0.04662 0.0
C1565 C 0.92617 0.53569 0.06641 0.0
C1566 C 0.98149 0.50033 0.96572 0.0
C1567 C 0.95811 0.5892 0.06111 0.0
H1568 H 0.095 0.59002 0.98894 0.0
H1569 H 0.99288 0.61868 0.91834 0.0
H1570 H 0.04254 0.55355 0.06186 0.0
H1571 H 0.05277 0.52311 0.02811 0.0
H1572 H 0.08991 0.5531 0.0392 0.0
H1573 H 0.93008 0.59524 0.92228 0.0
H1574 H 0.92539 0.55913 0.94889 0.0
H1575 H 0.91957 0.59641 0.97243 0.0
H1576 H 0.93074 0.46957 0.01131 0.0
H1577 H 0.91287 0.54411 0.09228 0.0
H1578 H 0.01453 0.50168 0.96989 0.0
H1579 H 0.97281 0.51492 0.94023 0.0
H1580 H 0.97291 0.47538 0.95965 0.0
H1581 H 0.99035 0.59297 0.06854 0.0
H1582 H 0.94087 0.59448 0.08681 0.0
H1583 H 0.94924 0.60639 0.03823 0.0
C1584 C 0.21899 0.55332 0.31952 0.0
C1585 C 0.18061 0.56141 0.30439 0.0
C1586 C 0.24374 0.53207 0.30076 0.0
C1587 C 0.22997 0.51799 0.26582 0.0
C1588 C 0.19141 0.52627 0.24993 0.0
C1589 C 0.16724 0.5481 0.26926 0.0
C1590 C 0.28476 0.52466 0.31851 0.0
C1591 C 0.17551 0.51169 0.21282 0.0
C1592 C 0.30871 0.48594 0.20019 0.0
C1593 C 0.30881 0.45347 0.20842 0.0
C1594 C 0.2835 0.50709 0.21876 0.0
C1595 C 0.25676 0.49547 0.24569 0.0
C1596 C 0.25708 0.46263 0.2545 0.0
C1597 C 0.28331 0.44204 0.23592 0.0
C1598 C 0.28494 0.54184 0.20892 0.0
C1599 C 0.22874 0.4491 0.28254 0.0
H1600 H 0.22995 0.56371 0.34644 0.0
H1601 H 0.13763 0.55404 0.25748 0.0
H1602 H 0.28735 0.49895 0.32454 0.0
H1603 H 0.30805 0.53069 0.29813 0.0
H1604 H 0.29119 0.53783 0.34569 0.0
H1605 H 0.14473 0.5199 0.20461 0.0
H1606 H 0.19544 0.5176 0.18935 0.0
H1607 H 0.17529 0.48555 0.21553 0.0
H1608 H 0.32772 0.4947 0.17822 0.0
H1609 H 0.28218 0.41679 0.24125 0.0
H1610 H 0.29142 0.55601 0.23529 0.0
H1611 H 0.25539 0.54966 0.19659 0.0
H1612 H 0.30802 0.54719 0.18801 0.0
H1613 H 0.2331 0.46101 0.31079 0.0
H1614 H 0.23291 0.42322 0.28661 0.0
H1615 H 0.19739 0.45357 0.2721 0.0
C1616 C 0.8388 0.32004 0.04064 0.0
C1617 C 0.82146 0.34802 0.0539 0.0
C1618 C 0.81569 0.29682 0.02124 0.0
C1619 C 0.77389 0.30123 0.01567 0.0
C1620 C 0.75617 0.32959 0.02873 0.0
C1621 C 0.78028 0.35286 0.04727 0.0
C1622 C 0.83605 0.26747 0.00684 0.0
C1623 C 0.71163 0.33504 0.02385 0.0
C1624 C 0.71686 0.25577 0.93649 0.0
C1625 C 0.70047 0.23064 0.95668 0.0
C1626 C 0.74146 0.27842 0.95518 0.0
C1627 C 0.74902 0.27646 0.99536 0.0
C1628 C 0.73304 0.25077 0.01588 0.0
C1629 C 0.70931 0.22787 0.99615 0.0
C1630 C 0.75885 0.30473 0.93194 0.0
C1631 C 0.73989 0.24809 0.05881 0.0
H1632 H 0.87069 0.31625 0.04556 0.0
H1633 H 0.76666 0.37424 0.05783 0.0
H1634 H 0.8241 0.24618 0.02086 0.0
H1635 H 0.82968 0.2648 0.97549 0.0
H1636 H 0.869 0.26809 0.01246 0.0
H1637 H 0.70233 0.35788 0.03654 0.0
H1638 H 0.70224 0.33492 0.99293 0.0
H1639 H 0.69541 0.31555 0.03762 0.0
H1640 H 0.71001 0.2579 0.9059 0.0
H1641 H 0.6961 0.20873 0.01186 0.0
H1642 H 0.79184 0.30546 0.93692 0.0
H1643 H 0.74693 0.32787 0.94123 0.0
H1644 H 0.75182 0.30191 0.90068 0.0
H1645 H 0.77241 0.24717 0.06651 0.0
H1646 H 0.72551 0.22674 0.07053 0.0
H1647 H 0.72773 0.26936 0.07291 0.0
C1648 C 0.78144 0.42748 0.73426 0.0
C1649 C 0.81153 0.44182 0.71378 0.0
C1650 C 0.75411 0.44591 0.75442 0.0
C1651 C 0.75752 0.47941 0.75469 0.0
C1652 C 0.78891 0.49377 0.73513 0.0
C1653 C 0.81501 0.47486 0.71447 0.0
C1654 C 0.72088 0.4296 0.77443 0.0
C1655 C 0.79444 0.52923 0.73529 0.0
C1656 C 0.67054 0.53419 0.77902 0.0
C1657 C 0.67997 0.54116 0.81772 0.0
C1658 C 0.69468 0.51324 0.75838 0.0
C1659 C 0.72948 0.49956 0.77661 0.0
C1660 C 0.73889 0.50655 0.81562 0.0
C1661 C 0.71401 0.52688 0.8356 0.0
C1662 C 0.68315 0.50591 0.717 0.0
C1663 C 0.77602 0.49327 0.83611 0.0
H1664 H 0.77784 0.40201 0.73266 0.0
H1665 H 0.83765 0.486 0.69781 0.0
H1666 H 0.72447 0.43369 0.80581 0.0
H1667 H 0.69151 0.43972 0.76467 0.0
H1668 H 0.7204 0.40368 0.76904 0.0
H1669 H 0.82113 0.5366 0.71978 0.0
H1670 H 0.76764 0.54082 0.72163 0.0
H1671 H 0.79768 0.53806 0.76524 0.0
H1672 H 0.64435 0.54496 0.76497 0.0
H1673 H 0.72203 0.53215 0.86538 0.0
H1674 H 0.6812 0.47991 0.71272 0.0
H1675 H 0.70654 0.5148 0.69828 0.0
H1676 H 0.65405 0.51676 0.70763 0.0
H1677 H 0.77586 0.46706 0.83458 0.0
H1678 H 0.77871 0.50045 0.86677 0.0
H1679 H 0.80301 0.50153 0.82179 0.0
C1680 C 0.49977 0.97347 0.08744 0.0
C1681 C 0.46015 0.96879 0.07347 0.0
C1682 C 0.5255 0.99432 0.06942 0.0
C1683 C 0.51115 1.01163 0.03693 0.0
C1684 C 0.47129 1.00667 0.02223 0.0
C1685 C 0.44634 0.985 0.04046 0.0
C1686 C 0.56794 0.99808 0.08551 0.0
C1687 C 0.45477 0.02478 0.98775 0.0
C1688 C 0.56496 0.08792 0.01069 0.0
C1689 C 0.58613 0.078 0.97914 0.0
C1690 C 0.54073 0.06651 0.03013 0.0
C1691 C 0.53817 0.03444 0.018 0.0
C1692 C 0.56131 0.02412 0.98743 0.0
C1693 C 0.58454 0.04608 0.96814 0.0
C1694 C 0.51638 0.07853 0.06244 0.0
C1695 C 0.56046 0.99008 0.97415 0.0
H1696 H 0.51072 0.96078 0.11283 0.0
H1697 H 0.41567 0.98167 0.02981 0.0
H1698 H 0.58937 0.99393 0.06271 0.0
H1699 H 0.57263 0.02263 0.09603 0.0
H1700 H 0.57514 0.9815 0.10955 0.0
H1701 H 0.42317 1.01851 0.98006 0.0
H1702 H 0.45651 0.05058 0.99359 0.0
H1703 H 0.47305 1.01998 0.96267 0.0
H1704 H 0.56531 0.11275 0.01857 0.0
H1705 H 0.60055 0.03847 0.94341 0.0
H1706 H 0.52261 0.06417 0.08864 0.0
H1707 H 0.48403 0.07603 0.05446 0.0
H1708 H 0.5227 0.10376 0.06933 0.0
H1709 H 0.56735 0.97401 0.99872 0.0
H1710 H 0.58217 0.98544 0.95166 0.0
H1711 H 0.53004 0.98403 0.96238 0.0
C1712 C 0.46047 0.31878 0.21546 0.0
C1713 C 0.43152 0.30493 0.1904 0.0
C1714 C 0.4854 0.29992 0.23991 0.0
C1715 C 0.48069 0.26652 0.23979 0.0
C1716 C 0.45196 0.2525 0.21409 0.0
C1717 C 0.42811 0.27177 0.1896 0.0
C1718 C 0.51625 0.31573 0.2664 0.0
C1719 C 0.44529 0.21714 0.21342 0.0
C1720 C 0.56045 0.21192 0.28582 0.0
C1721 C 0.54588 0.20752 0.32242 0.0
C1722 C 0.53993 0.23148 0.25872 0.0
C1723 C 0.50359 0.24626 0.26824 0.0
C1724 C 0.48819 0.24083 0.30478 0.0
C1725 C 0.5098 0.22192 0.33154 0.0
C1726 C 0.55766 0.23706 0.22034 0.0
C1727 C 0.449 0.25523 0.31579 0.0
H1728 H 0.46353 0.34431 0.21608 0.0
H1729 H 0.40581 0.26067 0.17048 0.0
H1730 H 0.50805 0.31264 0.29661 0.0
H1731 H 0.54595 0.30449 0.26352 0.0
H1732 H 0.51884 0.34146 0.2605 0.0
H1733 H 0.42283 0.20981 0.19066 0.0
H1734 H 0.47376 0.20457 0.20872 0.0
H1735 H 0.43481 0.20928 0.24157 0.0
H1736 H 0.5888 0.20133 0.27906 0.0
H1737 H 0.49866 0.21862 0.35995 0.0
H1738 H 0.56334 0.26271 0.21655 0.0
H1739 H 0.53622 0.22967 0.19681 0.0
H1740 H 0.58618 0.22398 0.21739 0.0
H1741 H 0.45104 0.28141 0.31516 0.0
H1742 H 0.44056 0.24785 0.34487 0.0
H1743 H 0.4247 0.24821 0.29475 0.0
C1744 C 0.45906 0.81005 0.73653 0.0
C1745 C 0.45194 0.80499 0.69712 0.0
C1746 C 0.48274 0.78871 0.75887 0.0
C1747 C 0.50043 0.76223 0.74111 0.0
C1748 C 0.49454 0.75791 0.701 0.0
C1749 C 0.46998 0.77906 0.67966 0.0
C1750 C 0.48779 0.7939 0.80162 0.0
C1751 C 0.5137 0.73065 0.68063 0.0
C1752 C 0.59032 0.72293 0.79234 0.0
C1753 C 0.57357 0.69531 0.80701 0.0
C1754 C 0.56697 0.74469 0.77067 0.0
C1755 C 0.5255 0.73916 0.76417 0.0
C1756 C 0.50836 0.71121 0.77882 0.0
C1757 C 0.53273 0.68941 0.79973 0.0
C1758 C 0.58676 0.7736 0.75469 0.0
C1759 C 0.46415 0.70466 0.77313 0.0
H1760 H 0.44462 0.8298 0.75016 0.0
H1761 H 0.46452 0.77514 0.64913 0.0
H1762 H 0.47585 0.77323 0.81696 0.0
H1763 H 0.52 0.79589 0.81034 0.0
H1764 H 0.47217 0.81557 0.81106 0.0
H1765 H 0.50763 0.73147 0.64906 0.0
H1766 H 0.54657 0.73088 0.68662 0.0
H1767 H 0.50233 0.70789 0.69152 0.0
H1768 H 0.62195 0.72754 0.7978 0.0
H1769 H 0.51954 0.66837 0.81151 0.0
H1770 H 0.57331 0.79536 0.76641 0.0
H1771 H 0.58164 0.77434 0.72304 0.0
H1772 H 0.61951 0.77406 0.76159 0.0
H1773 H 0.44691 0.72382 0.78657 0.0
H1774 H 0.45558 0.68168 0.78577 0.0
H1775 H 0.45528 0.70446 0.74209 0.0
C1776 C 0.54823 0.56202 0.44723 0.0
C1777 C 0.55451 0.59363 0.4583 0.0
C1778 C 0.52326 0.54198 0.46741 0.0
C1779 C 0.5032 0.55391 0.49921 0.0
C1780 C 0.51001 0.58572 0.51107 0.0
C1781 C 0.53586 0.60519 0.49061 0.0
C1782 C 0.5179 0.50811 0.45427 0.0
C1783 C 0.48904 0.59942 0.54466 0.0
C1784 C 0.4115 0.5073 0.52942 0.0
C1785 C 0.4276 0.49036 0.561 0.0
C1786 C 0.43548 0.52866 0.50942 0.0
C1787 C 0.47658 0.53252 0.52083 0.0
C1788 C 0.49294 0.51473 0.55209 0.0
C1789 C 0.4683 0.4942 0.57184 0.0
C1790 C 0.41681 0.54738 0.47641 0.0
C1791 C 0.53668 0.51722 0.56466 0.0
H1792 H 0.56237 0.55308 0.42205 0.0
H1793 H 0.53986 0.6298 0.49868 0.0
H1794 H 0.52612 0.49171 0.47817 0.0
H1795 H 0.48604 0.50371 0.44573 0.0
H1796 H 0.53639 0.5023 0.42958 0.0
H1797 H 0.49733 0.62451 0.55024 0.0
H1798 H 0.45616 0.59799 0.53912 0.0
H1799 H 0.49649 0.58543 0.57092 0.0
H1800 H 0.38007 0.50458 0.52111 0.0
H1801 H 0.48113 0.48087 0.59596 0.0
H1802 H 0.43202 0.54174 0.44966 0.0
H1803 H 0.42086 0.57307 0.48189 0.0
H1804 H 0.38435 0.54241 0.47173 0.0
H1805 H 0.55555 0.51074 0.54054 0.0
H1806 H 0.54479 0.50162 0.58944 0.0
H1807 H 0.54407 0.54198 0.5728 0.0
loop_
_geom_bond_atom_site_label_1
_geom_bond_atom_site_label_2
_geom_bond_distance
_geom_bond_site_symmetry_2
_ccdc_geom_bond_type
C0 C1 1.351 . S
C0 N3 1.368 . S
C0 H5 0.931 . S
C1 C0 1.351 . S
C1 N2 1.373 . S
C1 H29 0.930 . S
N2 C1 1.373 . S
N2 C4 1.340 . S
N3 C0 1.368 . S
N3 C4 1.321 . S
N3 Co6 2.135 . S
C4 N2 1.340 . S
C4 N3 1.321 . S
C4 H28 0.930 . S
H5 C0 0.931 . S
Co6 N3 2.135 . S
Co6 N9 2.121 . S
Co6 O14 2.055 . S
Co6 O17 2.039 . S
Co6 N20 2.140 . S
C7 O8 1.227 . S
C7 O17 1.265 . S
O8 C7 1.227 . S
N9 Co6 2.121 . S
N9 C11 1.375 . S
N9 C12 1.313 . S
C10 C11 1.338 . S
C10 N13 1.389 . S
C10 H30 0.930 . S
C11 N9 1.375 . S
C11 C10 1.338 . S
C11 H15 0.931 . S
C12 N9 1.313 . S
C12 N13 1.364 . S
C12 H16 0.930 . S
N13 C10 1.389 . S
N13 C12 1.364 . S
O14 Co6 2.055 . S
O14 C18 1.253 . S
H15 C11 0.931 . S
H16 C12 0.930 . S
O17 Co6 2.039 . S
O17 C7 1.265 . S
C18 O14 1.253 . S
C18 O19 1.227 . S
O19 C18 1.227 . S
N20 Co6 2.140 . S
N20 C23 1.346 . S
N20 C24 1.345 . S
C21 C22 1.387 . S
C21 C25 1.391 . S
C22 C21 1.387 . S
C22 C23 1.369 . S
C22 H31 0.929 . S
C23 N20 1.346 . S
C23 C22 1.369 . S
C23 H26 0.928 . S
C24 N20 1.345 . S
C24 C25 1.371 . S
C24 H27 0.931 . S
C25 C21 1.391 . S
C25 C24 1.371 . S
C25 H32 0.930 . S
H26 C23 0.928 . S
H27 C24 0.931 . S
H28 C4 0.930 . S
H29 C1 0.930 . S
H30 C10 0.930 . S
H31 C22 0.929 . S
H32 C25 0.930 . S
C33 C34 1.351 . S
C33 N36 1.368 . S
C33 H38 0.931 . S
C34 C33 1.351 . S
C34 N35 1.380 . S
C34 H62 0.930 . S
N35 C34 1.380 . S
N35 C37 1.353 . S
N36 C33 1.368 . S
N36 C37 1.321 . S
N36 Co39 2.135 . S
C37 N35 1.353 . S
C37 N36 1.321 . S
C37 H61 0.930 . S
H38 C33 0.931 . S
Co39 N36 2.135 . S
Co39 N42 2.121 . S
Co39 O47 2.055 . S
Co39 O50 2.039 . S
Co39 N53 2.140 . S
C40 O41 1.227 . S
C40 O50 1.265 . S
O41 C40 1.227 . S
N42 Co39 2.121 . S
N42 C44 1.375 . S
N42 C45 1.313 . S
C43 C44 1.338 . S
C43 N46 1.377 . S
C43 H63 0.930 . S
C44 N42 1.375 . S
C44 C43 1.338 . S
C44 H48 0.931 . S
C45 N42 1.313 . S
C45 N46 1.344 . S
C45 H49 0.930 . S
N46 C43 1.377 . S
N46 C45 1.344 . S
O47 Co39 2.055 . S
O47 C51 1.253 . S
H48 C44 0.931 . S
H49 C45 0.930 . S
O50 Co39 2.039 . S
O50 C40 1.265 . S
C51 O47 1.253 . S
C51 O52 1.227 . S
O52 C51 1.227 . S
N53 Co39 2.140 . S
N53 C56 1.346 . S
N53 C57 1.345 . S
C54 C55 1.387 . S
C54 C58 1.391 . S
C55 C54 1.387 . S
C55 C56 1.369 . S
C55 H64 0.929 . S
C56 N53 1.346 . S
C56 C55 1.369 . S
C56 H59 0.928 . S
C57 N53 1.345 . S
C57 C58 1.371 . S
C57 H60 0.931 . S
C58 C54 1.391 . S
C58 C57 1.371 . S
C58 H65 0.930 . S
H59 C56 0.928 . S
H60 C57 0.931 . S
H61 C37 0.930 . S
H62 C34 0.930 . S
H63 C43 0.930 . S
H64 C55 0.929 . S
H65 C58 0.930 . S
C66 C67 1.351 . S
C66 N69 1.368 . S
C66 H71 0.931 . S
C67 C66 1.351 . S
C67 N68 1.373 . S
C67 H95 0.930 . S
N68 C67 1.373 . S
N68 C70 1.340 . S
N69 C66 1.368 . S
N69 C70 1.321 . S
N69 Co72 2.135 . S
C70 N68 1.340 . S
C70 N69 1.321 . S
C70 H94 0.930 . S
H71 C66 0.931 . S
Co72 N69 2.135 . S
Co72 N75 2.121 . S
Co72 O80 2.055 . S
Co72 O83 2.039 . S
Co72 N86 2.140 . S
C73 O74 1.227 . S
C73 O83 1.265 . S
O74 C73 1.227 . S
N75 Co72 2.121 . S
N75 C77 1.375 . S
N75 C78 1.313 . S
C76 C77 1.338 . S
C76 N79 1.389 . S
C76 H96 0.930 . S
C77 N75 1.375 . S
C77 C76 1.338 . S
C77 H81 0.931 . S
C78 N75 1.313 . S
C78 N79 1.364 . S
C78 H82 0.930 . S
N79 C76 1.389 . S
N79 C78 1.364 . S
O80 Co72 2.055 . S
O80 C84 1.253 . S
H81 C77 0.931 . S
H82 C78 0.930 . S
O83 Co72 2.039 . S
O83 C73 1.265 . S
C84 O80 1.253 . S
C84 O85 1.227 . S
O85 C84 1.227 . S
N86 Co72 2.140 . S
N86 C89 1.346 . S
N86 C90 1.345 . S
C87 C88 1.387 . S
C87 C91 1.391 . S
C88 C87 1.387 . S
C88 C89 1.369 . S
C88 H97 0.929 . S
C89 N86 1.346 . S
C89 C88 1.369 . S
C89 H92 0.928 . S
C90 N86 1.345 . S
C90 C91 1.371 . S
C90 H93 0.931 . S
C91 C87 1.391 . S
C91 C90 1.371 . S
C91 H98 0.930 . S
H92 C89 0.928 . S
H93 C90 0.931 . S
H94 C70 0.930 . S
H95 C67 0.930 . S
H96 C76 0.930 . S
H97 C88 0.929 . S
H98 C91 0.930 . S
C99 C100 1.351 . S
C99 N102 1.368 . S
C99 H104 0.931 . S
C100 C99 1.351 . S
C100 N101 1.380 . S
C100 H128 0.930 . S
N101 C100 1.380 . S
N101 C103 1.353 . S
N102 C99 1.368 . S
N102 C103 1.321 . S
N102 Co105 2.135 . S
C103 N101 1.353 . S
C103 N102 1.321 . S
C103 H127 0.930 . S
H104 C99 0.931 . S
Co105 N102 2.135 . S
Co105 N108 2.121 . S
Co105 O113 2.055 . S
Co105 O116 2.039 . S
Co105 N119 2.140 . S
C106 O107 1.227 . S
C106 O116 1.265 . S
O107 C106 1.227 . S
N108 Co105 2.121 . S
N108 C110 1.375 . S
N108 C111 1.313 . S
C109 C110 1.338 . S
C109 N112 1.377 . S
C109 H129 0.930 . S
C110 N108 1.375 . S
C110 C109 1.338 . S
C110 H114 0.931 . S
C111 N108 1.313 . S
C111 N112 1.344 . S
C111 H115 0.930 . S
N112 C109 1.377 . S
N112 C111 1.344 . S
O113 Co105 2.055 . S
O113 C117 1.253 . S
H114 C110 0.931 . S
H115 C111 0.930 . S
O116 Co105 2.039 . S
O116 C106 1.265 . S
C117 O113 1.253 . S
C117 O118 1.227 . S
O118 C117 1.227 . S
N119 Co105 2.140 . S
N119 C122 1.346 . S
N119 C123 1.345 . S
C120 C121 1.387 . S
C120 C124 1.391 . S
C121 C120 1.387 . S
C121 C122 1.369 . S
C121 H130 0.929 . S
C122 N119 1.346 . S
C122 C121 1.369 . S
C122 H125 0.928 . S
C123 N119 1.345 . S
C123 C124 1.371 . S
C123 H126 0.931 . S
C124 C120 1.391 . S
C124 C123 1.371 . S
C124 H131 0.930 . S
H125 C122 0.928 . S
H126 C123 0.931 . S
H127 C103 0.930 . S
H128 C100 0.930 . S
H129 C109 0.930 . S
H130 C121 0.929 . S
H131 C124 0.930 . S
C132 C133 1.351 . S
C132 N135 1.368 . S
C132 H137 0.931 . S
C133 C132 1.351 . S
C133 N134 1.373 . S
C133 H161 0.930 . S
N134 C133 1.373 . S
N134 C136 1.340 . S
N135 C132 1.368 . S
N135 C136 1.321 . S
N135 Co138 2.135 . S
C136 N134 1.340 . S
C136 N135 1.321 . S
C136 H160 0.930 . S
H137 C132 0.931 . S
Co138 N135 2.135 . S
Co138 N141 2.121 . S
Co138 O146 2.055 . S
Co138 O149 2.039 . S
Co138 N152 2.140 . S
C139 O140 1.227 . S
C139 O149 1.265 . S
O140 C139 1.227 . S
N141 Co138 2.121 . S
N141 C143 1.375 . S
N141 C144 1.313 . S
C142 C143 1.338 . S
C142 N145 1.389 . S
C142 H162 0.930 . S
C143 N141 1.375 . S
C143 C142 1.338 . S
C143 H147 0.931 . S
C144 N141 1.313 . S
C144 N145 1.364 . S
C144 H148 0.930 . S
N145 C142 1.389 . S
N145 C144 1.364 . S
O146 Co138 2.055 . S
O146 C150 1.253 . S
H147 C143 0.931 . S
H148 C144 0.930 . S
O149 Co138 2.039 . S
O149 C139 1.265 . S
C150 O146 1.253 . S
C150 O151 1.227 . S
O151 C150 1.227 . S
N152 Co138 2.140 . S
N152 C155 1.346 . S
N152 C156 1.345 . S
C153 C154 1.387 . S
C153 C157 1.391 . S
C154 C153 1.387 . S
C154 C155 1.369 . S
C154 H163 0.929 . S
C155 N152 1.346 . S
C155 C154 1.369 . S
C155 H158 0.928 . S
C156 N152 1.345 . S
C156 C157 1.371 . S
C156 H159 0.931 . S
C157 C153 1.391 . S
C157 C156 1.371 . S
C157 H164 0.930 . S
H158 C155 0.928 . S
H159 C156 0.931 . S
H160 C136 0.930 . S
H161 C133 0.930 . S
H162 C142 0.930 . S
H163 C154 0.929 . S
H164 C157 0.930 . S
C165 C166 1.351 . S
C165 N168 1.368 . S
C165 H170 0.931 . S
C166 C165 1.351 . S
C166 N167 1.380 . S
C166 H194 0.930 . S
N167 C166 1.380 . S
N167 C169 1.353 . S
N168 C165 1.368 . S
N168 C169 1.321 . S
N168 Co171 2.135 . S
C169 N167 1.353 . S
C169 N168 1.321 . S
C169 H193 0.930 . S
H170 C165 0.931 . S
Co171 N168 2.135 . S
Co171 N174 2.121 . S
Co171 O179 2.055 . S
Co171 O182 2.039 . S
Co171 N185 2.140 . S
C172 O173 1.227 . S
C172 O182 1.265 . S
O173 C172 1.227 . S
N174 Co171 2.121 . S
N174 C176 1.375 . S
N174 C177 1.313 . S
C175 C176 1.338 . S
C175 N178 1.377 . S
C175 H195 0.930 . S
C176 N174 1.375 . S
C176 C175 1.338 . S
C176 H180 0.931 . S
C177 N174 1.313 . S
C177 N178 1.344 . S
C177 H181 0.930 . S
N178 C175 1.377 . S
N178 C177 1.344 . S
O179 Co171 2.055 . S
O179 C183 1.253 . S
H180 C176 0.931 . S
H181 C177 0.930 . S
O182 Co171 2.039 . S
O182 C172 1.265 . S
C183 O179 1.253 . S
C183 O184 1.227 . S
O184 C183 1.227 . S
N185 Co171 2.140 . S
N185 C188 1.346 . S
N185 C189 1.345 . S
C186 C187 1.387 . S
C186 C190 1.391 . S
C187 C186 1.387 . S
C187 C188 1.369 . S
C187 H196 0.929 . S
C188 N185 1.346 . S
C188 C187 1.369 . S
C188 H191 0.928 . S
C189 N185 1.345 . S
C189 C190 1.371 . S
C189 H192 0.931 . S
C190 C186 1.391 . S
C190 C189 1.371 . S
C190 H197 0.930 . S
H191 C188 0.928 . S
H192 C189 0.931 . S
H193 C169 0.930 . S
H194 C166 0.930 . S
H195 C175 0.930 . S
H196 C187 0.929 . S
H197 C190 0.930 . S
C198 C199 1.351 . S
C198 N201 1.368 . S
C198 H203 0.931 . S
C199 C198 1.351 . S
C199 N200 1.373 . S
C199 H227 0.930 . S
N200 C199 1.373 . S
N200 C202 1.340 . S
N201 C198 1.368 . S
N201 C202 1.321 . S
N201 Co204 2.135 . S
C202 N200 1.340 . S
C202 N201 1.321 . S
C202 H226 0.930 . S
H203 C198 0.931 . S
Co204 N201 2.135 . S
Co204 N207 2.121 . S
Co204 O212 2.055 . S
Co204 O215 2.039 . S
Co204 N218 2.140 . S
C205 O206 1.227 . S
C205 O215 1.265 . S
O206 C205 1.227 . S
N207 Co204 2.121 . S
N207 C209 1.375 . S
N207 C210 1.313 . S
C208 C209 1.338 . S
C208 N211 1.389 . S
C208 H228 0.930 . S
C209 N207 1.375 . S
C209 C208 1.338 . S
C209 H213 0.931 . S
C210 N207 1.313 . S
C210 N211 1.364 . S
C210 H214 0.930 . S
N211 C208 1.389 . S
N211 C210 1.364 . S
O212 Co204 2.055 . S
O212 C216 1.253 . S
H213 C209 0.931 . S
H214 C210 0.930 . S
O215 Co204 2.039 . S
O215 C205 1.265 . S
C216 O212 1.253 . S
C216 O217 1.227 . S
O217 C216 1.227 . S
N218 Co204 2.140 . S
N218 C221 1.346 . S
N218 C222 1.345 . S
C219 C220 1.387 . S
C219 C223 1.391 . S
C220 C219 1.387 . S
C220 C221 1.369 . S
C220 H229 0.929 . S
C221 N218 1.346 . S
C221 C220 1.369 . S
C221 H224 0.928 . S
C222 N218 1.345 . S
C222 C223 1.371 . S
C222 H225 0.931 . S
C223 C219 1.391 . S
C223 C222 1.371 . S
C223 H230 0.930 . S
H224 C221 0.928 . S
H225 C222 0.931 . S
H226 C202 0.930 . S
H227 C199 0.930 . S
H228 C208 0.930 . S
H229 C220 0.929 . S
H230 C223 0.930 . S
C231 C232 1.351 . S
C231 N234 1.368 . S
C231 H236 0.931 . S
C232 C231 1.351 . S
C232 N233 1.380 . S
C232 H260 0.930 . S
N233 C232 1.380 . S
N233 C235 1.353 . S
N234 C231 1.368 . S
N234 C235 1.321 . S
N234 Co237 2.135 . S
C235 N233 1.353 . S
C235 N234 1.321 . S
C235 H259 0.930 . S
H236 C231 0.931 . S
Co237 N234 2.135 . S
Co237 N240 2.121 . S
Co237 O245 2.055 . S
Co237 O248 2.039 . S
Co237 N251 2.140 . S
C238 O239 1.227 . S
C238 O248 1.265 . S
O239 C238 1.227 . S
N240 Co237 2.121 . S
N240 C242 1.375 . S
N240 C243 1.313 . S
C241 C242 1.338 . S
C241 N244 1.377 . S
C241 H261 0.930 . S
C242 N240 1.375 . S
C242 C241 1.338 . S
C242 H246 0.931 . S
C243 N240 1.313 . S
C243 N244 1.344 . S
C243 H247 0.930 . S
N244 C241 1.377 . S
N244 C243 1.344 . S
O245 Co237 2.055 . S
O245 C249 1.253 . S
H246 C242 0.931 . S
H247 C243 0.930 . S
O248 Co237 2.039 . S
O248 C238 1.265 . S
C249 O245 1.253 . S
C249 O250 1.227 . S
O250 C249 1.227 . S
N251 Co237 2.140 . S
N251 C254 1.346 . S
N251 C255 1.345 . S
C252 C253 1.387 . S
C252 C256 1.391 . S
C253 C252 1.387 . S
C253 C254 1.369 . S
C253 H262 0.929 . S
C254 N251 1.346 . S
C254 C253 1.369 . S
C254 H257 0.928 . S
C255 N251 1.345 . S
C255 C256 1.371 . S
C255 H258 0.931 . S
C256 C252 1.391 . S
C256 C255 1.371 . S
C256 H263 0.930 . S
H257 C254 0.928 . S
H258 C255 0.931 . S
H259 C235 0.930 . S
H260 C232 0.930 . S
H261 C241 0.930 . S
H262 C253 0.929 . S
H263 C256 0.930 . S
C264 C265 1.351 . S
C264 N267 1.368 . S
C264 H269 0.931 . S
C265 C264 1.351 . S
C265 N266 1.373 . S
C265 H293 0.930 . S
N266 C265 1.373 . S
N266 C268 1.340 . S
N267 C264 1.368 . S
N267 C268 1.321 . S
N267 Co270 2.135 . S
C268 N266 1.340 . S
C268 N267 1.321 . S
C268 H292 0.930 . S
H269 C264 0.931 . S
Co270 N267 2.135 . S
Co270 N273 2.121 . S
Co270 O278 2.055 . S
Co270 O281 2.039 . S
Co270 N284 2.140 . S
C271 O272 1.227 . S
C271 O281 1.265 . S
O272 C271 1.227 . S
N273 Co270 2.121 . S
N273 C275 1.375 . S
N273 C276 1.313 . S
C274 C275 1.338 . S
C274 N277 1.377 . S
C274 H294 0.930 . S
C275 N273 1.375 . S
C275 C274 1.338 . S
C275 H279 0.931 . S
C276 N273 1.313 . S
C276 N277 1.344 . S
C276 H280 0.930 . S
N277 C274 1.377 . S
N277 C276 1.344 . S
O278 Co270 2.055 . S
O278 C282 1.253 . S
H279 C275 0.931 . S
H280 C276 0.930 . S
O281 Co270 2.039 . S
O281 C271 1.265 . S
C282 O278 1.253 . S
C282 O283 1.227 . S
O283 C282 1.227 . S
N284 Co270 2.140 . S
N284 C287 1.346 . S
N284 C288 1.345 . S
C285 C286 1.387 . S
C285 C289 1.391 . S
C286 C285 1.387 . S
C286 C287 1.369 . S
C286 H295 0.929 . S
C287 N284 1.346 . S
C287 C286 1.369 . S
C287 H290 0.928 . S
C288 N284 1.345 . S
C288 C289 1.371 . S
C288 H291 0.931 . S
C289 C285 1.391 . S
C289 C288 1.371 . S
C289 H296 0.930 . S
H290 C287 0.928 . S
H291 C288 0.931 . S
H292 C268 0.930 . S
H293 C265 0.930 . S
H294 C274 0.930 . S
H295 C286 0.929 . S
H296 C289 0.930 . S
C297 C298 1.351 . S
C297 N300 1.368 . S
C297 H302 0.931 . S
C298 C297 1.351 . S
C298 N299 1.373 . S
C298 H326 0.930 . S
N299 C298 1.373 . S
N299 C301 1.340 . S
N300 C297 1.368 . S
N300 C301 1.321 . S
N300 Co303 2.135 . S
C301 N299 1.340 . S
C301 N300 1.321 . S
C301 H325 0.930 . S
H302 C297 0.931 . S
Co303 N300 2.135 . S
Co303 N306 2.121 . S
Co303 O311 2.055 . S
Co303 O314 2.039 . S
Co303 N317 2.140 . S
C304 O305 1.227 . S
C304 O314 1.265 . S
O305 C304 1.227 . S
N306 Co303 2.121 . S
N306 C308 1.375 . S
N306 C309 1.313 . S
C307 C308 1.338 . S
C307 N310 1.377 . S
C307 H327 0.930 . S
C308 N306 1.375 . S
C308 C307 1.338 . S
C308 H312 0.931 . S
C309 N306 1.313 . S
C309 N310 1.344 . S
C309 H313 0.930 . S
N310 C307 1.377 . S
N310 C309 1.344 . S
O311 Co303 2.055 . S
O311 C315 1.253 . S
H312 C308 0.931 . S
H313 C309 0.930 . S
O314 Co303 2.039 . S
O314 C304 1.265 . S
C315 O311 1.253 . S
C315 O316 1.227 . S
O316 C315 1.227 . S
N317 Co303 2.140 . S
N317 C320 1.346 . S
N317 C321 1.345 . S
C318 C319 1.387 . S
C318 C322 1.391 . S
C319 C318 1.387 . S
C319 C320 1.369 . S
C319 H328 0.929 . S
C320 N317 1.346 . S
C320 C319 1.369 . S
C320 H323 0.928 . S
C321 N317 1.345 . S
C321 C322 1.371 . S
C321 H324 0.931 . S
C322 C318 1.391 . S
C322 C321 1.371 . S
C322 H329 0.930 . S
H323 C320 0.928 . S
H324 C321 0.931 . S
H325 C301 0.930 . S
H326 C298 0.930 . S
H327 C307 0.930 . S
H328 C319 0.929 . S
H329 C322 0.930 . S
C330 C331 1.351 . S
C330 N333 1.368 . S
C330 H335 0.931 . S
C331 C330 1.351 . S
C331 N332 1.373 . S
C331 H359 0.930 . S
N332 C331 1.373 . S
N332 C334 1.340 . S
N333 C330 1.368 . S
N333 C334 1.321 . S
N333 Co336 2.135 . S
C334 N332 1.340 . S
C334 N333 1.321 . S
C334 H358 0.930 . S
H335 C330 0.931 . S
Co336 N333 2.135 . S
Co336 N339 2.121 . S
Co336 O344 2.055 . S
Co336 O347 2.039 . S
Co336 N350 2.140 . S
C337 O338 1.227 . S
C337 O347 1.265 . S
O338 C337 1.227 . S
N339 Co336 2.121 . S
N339 C341 1.375 . S
N339 C342 1.313 . S
C340 C341 1.338 . S
C340 N343 1.377 . S
C340 H360 0.930 . S
C341 N339 1.375 . S
C341 C340 1.338 . S
C341 H345 0.931 . S
C342 N339 1.313 . S
C342 N343 1.344 . S
C342 H346 0.930 . S
N343 C340 1.377 . S
N343 C342 1.344 . S
O344 Co336 2.055 . S
O344 C348 1.253 . S
H345 C341 0.931 . S
H346 C342 0.930 . S
O347 Co336 2.039 . S
O347 C337 1.265 . S
C348 O344 1.253 . S
C348 O349 1.227 . S
O349 C348 1.227 . S
N350 Co336 2.140 . S
N350 C353 1.346 . S
N350 C354 1.345 . S
C351 C352 1.387 . S
C351 C355 1.391 . S
C352 C351 1.387 . S
C352 C353 1.369 . S
C352 H361 0.929 . S
C353 N350 1.346 . S
C353 C352 1.369 . S
C353 H356 0.928 . S
C354 N350 1.345 . S
C354 C355 1.371 . S
C354 H357 0.931 . S
C355 C351 1.391 . S
C355 C354 1.371 . S
C355 H362 0.930 . S
H356 C353 0.928 . S
H357 C354 0.931 . S
H358 C334 0.930 . S
H359 C331 0.930 . S
H360 C340 0.930 . S
H361 C352 0.929 . S
H362 C355 0.930 . S
C363 C364 1.351 . S
C363 N366 1.368 . S
C363 H368 0.931 . S
C364 C363 1.351 . S
C364 N365 1.373 . S
C364 H392 0.930 . S
N365 C364 1.373 . S
N365 C367 1.340 . S
N366 C363 1.368 . S
N366 C367 1.321 . S
N366 Co369 2.135 . S
C367 N365 1.340 . S
C367 N366 1.321 . S
C367 H391 0.930 . S
H368 C363 0.931 . S
Co369 N366 2.135 . S
Co369 N372 2.121 . S
Co369 O377 2.055 . S
Co369 O380 2.039 . S
Co369 N383 2.140 . S
C370 O371 1.227 . S
C370 O380 1.265 . S
O371 C370 1.227 . S
N372 Co369 2.121 . S
N372 C374 1.375 . S
N372 C375 1.313 . S
C373 C374 1.338 . S
C373 N376 1.377 . S
C373 H393 0.930 . S
C374 N372 1.375 . S
C374 C373 1.338 . S
C374 H378 0.931 . S
C375 N372 1.313 . S
C375 N376 1.344 . S
C375 H379 0.930 . S
N376 C373 1.377 . S
N376 C375 1.344 . S
O377 Co369 2.055 . S
O377 C381 1.253 . S
H378 C374 0.931 . S
H379 C375 0.930 . S
O380 Co369 2.039 . S
O380 C370 1.265 . S
C381 O377 1.253 . S
C381 O382 1.227 . S
O382 C381 1.227 . S
N383 Co369 2.140 . S
N383 C386 1.346 . S
N383 C387 1.345 . S
C384 C385 1.387 . S
C384 C388 1.391 . S
C385 C384 1.387 . S
C385 C386 1.369 . S
C385 H394 0.929 . S
C386 N383 1.346 . S
C386 C385 1.369 . S
C386 H389 0.928 . S
C387 N383 1.345 . S
C387 C388 1.371 . S
C387 H390 0.931 . S
C388 C384 1.391 . S
C388 C387 1.371 . S
C388 H395 0.930 . S
H389 C386 0.928 . S
H390 C387 0.931 . S
H391 C367 0.930 . S
H392 C364 0.930 . S
H393 C373 0.930 . S
H394 C385 0.929 . S
H395 C388 0.930 . S
C396 C397 1.351 . S
C396 N399 1.368 . S
C396 H401 0.931 . S
C397 C396 1.351 . S
C397 N398 1.373 . S
C397 H425 0.930 . S
N398 C397 1.373 . S
N398 C400 1.340 . S
N399 C396 1.368 . S
N399 C400 1.321 . S
N399 Co402 2.135 . S
C400 N398 1.340 . S
C400 N399 1.321 . S
C400 H424 0.930 . S
H401 C396 0.931 . S
Co402 N399 2.135 . S
Co402 N405 2.121 . S
Co402 O410 2.055 . S
Co402 O413 2.039 . S
Co402 N416 2.140 . S
C403 O404 1.227 . S
C403 O413 1.265 . S
O404 C403 1.227 . S
N405 Co402 2.121 . S
N405 C407 1.375 . S
N405 C408 1.313 . S
C406 C407 1.338 . S
C406 N409 1.377 . S
C406 H426 0.930 . S
C407 N405 1.375 . S
C407 C406 1.338 . S
C407 H411 0.931 . S
C408 N405 1.313 . S
C408 N409 1.344 . S
C408 H412 0.930 . S
N409 C406 1.377 . S
N409 C408 1.344 . S
O410 Co402 2.055 . S
O410 C414 1.253 . S
H411 C407 0.931 . S
H412 C408 0.930 . S
O413 Co402 2.039 . S
O413 C403 1.265 . S
C414 O410 1.253 . S
C414 O415 1.227 . S
O415 C414 1.227 . S
N416 Co402 2.140 . S
N416 C419 1.346 . S
N416 C420 1.345 . S
C417 C418 1.387 . S
C417 C421 1.391 . S
C418 C417 1.387 . S
C418 C419 1.369 . S
C418 H427 0.929 . S
C419 N416 1.346 . S
C419 C418 1.369 . S
C419 H422 0.928 . S
C420 N416 1.345 . S
C420 C421 1.371 . S
C420 H423 0.931 . S
C421 C417 1.391 . S
C421 C420 1.371 . S
C421 H428 0.930 . S
H422 C419 0.928 . S
H423 C420 0.931 . S
H424 C400 0.930 . S
H425 C397 0.930 . S
H426 C406 0.930 . S
H427 C418 0.929 . S
H428 C421 0.930 . S
C429 C430 1.351 . S
C429 N432 1.368 . S
C429 H434 0.931 . S
C430 C429 1.351 . S
C430 N431 1.373 . S
C430 H458 0.930 . S
N431 C430 1.373 . S
N431 C433 1.340 . S
N432 C429 1.368 . S
N432 C433 1.321 . S
N432 Co435 2.135 . S
C433 N431 1.340 . S
C433 N432 1.321 . S
C433 H457 0.930 . S
H434 C429 0.931 . S
Co435 N432 2.135 . S
Co435 N438 2.121 . S
Co435 O443 2.055 . S
Co435 O446 2.039 . S
Co435 N449 2.140 . S
C436 O437 1.227 . S
C436 O446 1.265 . S
O437 C436 1.227 . S
N438 Co435 2.121 . S
N438 C440 1.375 . S
N438 C441 1.313 . S
C439 C440 1.338 . S
C439 N442 1.377 . S
C439 H459 0.930 . S
C440 N438 1.375 . S
C440 C439 1.338 . S
C440 H444 0.931 . S
C441 N438 1.313 . S
C441 N442 1.344 . S
C441 H445 0.930 . S
N442 C439 1.377 . S
N442 C441 1.344 . S
O443 Co435 2.055 . S
O443 C447 1.253 . S
H444 C440 0.931 . S
H445 C441 0.930 . S
O446 Co435 2.039 . S
O446 C436 1.265 . S
C447 O443 1.253 . S
C447 O448 1.227 . S
O448 C447 1.227 . S
N449 Co435 2.140 . S
N449 C452 1.346 . S
N449 C453 1.345 . S
C450 C451 1.387 . S
C450 C454 1.391 . S
C451 C450 1.387 . S
C451 C452 1.369 . S
C451 H460 0.929 . S
C452 N449 1.346 . S
C452 C451 1.369 . S
C452 H455 0.928 . S
C453 N449 1.345 . S
C453 C454 1.371 . S
C453 H456 0.931 . S
C454 C450 1.391 . S
C454 C453 1.371 . S
C454 H461 0.930 . S
H455 C452 0.928 . S
H456 C453 0.931 . S
H457 C433 0.930 . S
H458 C430 0.930 . S
H459 C439 0.930 . S
H460 C451 0.929 . S
H461 C454 0.930 . S
C462 C463 1.351 . S
C462 N465 1.368 . S
C462 H467 0.931 . S
C463 C462 1.351 . S
C463 N464 1.373 . S
C463 H491 0.930 . S
N464 C463 1.373 . S
N464 C466 1.340 . S
N465 C462 1.368 . S
N465 C466 1.321 . S
N465 Co468 2.135 . S
C466 N464 1.340 . S
C466 N465 1.321 . S
C466 H490 0.930 . S
H467 C462 0.931 . S
Co468 N465 2.135 . S
Co468 N471 2.121 . S
Co468 O476 2.055 . S
Co468 O479 2.039 . S
Co468 N482 2.140 . S
C469 O470 1.227 . S
C469 O479 1.265 . S
O470 C469 1.227 . S
N471 Co468 2.121 . S
N471 C473 1.375 . S
N471 C474 1.313 . S
C472 C473 1.338 . S
C472 N475 1.377 . S
C472 H492 0.930 . S
C473 N471 1.375 . S
C473 C472 1.338 . S
C473 H477 0.931 . S
C474 N471 1.313 . S
C474 N475 1.344 . S
C474 H478 0.930 . S
N475 C472 1.377 . S
N475 C474 1.344 . S
O476 Co468 2.055 . S
O476 C480 1.253 . S
H477 C473 0.931 . S
H478 C474 0.930 . S
O479 Co468 2.039 . S
O479 C469 1.265 . S
C480 O476 1.253 . S
C480 O481 1.227 . S
O481 C480 1.227 . S
N482 Co468 2.140 . S
N482 C485 1.346 . S
N482 C486 1.345 . S
C483 C484 1.387 . S
C483 C487 1.391 . S
C484 C483 1.387 . S
C484 C485 1.369 . S
C484 H493 0.929 . S
C485 N482 1.346 . S
C485 C484 1.369 . S
C485 H488 0.928 . S
C486 N482 1.345 . S
C486 C487 1.371 . S
C486 H489 0.931 . S
C487 C483 1.391 . S
C487 C486 1.371 . S
C487 H494 0.930 . S
H488 C485 0.928 . S
H489 C486 0.931 . S
H490 C466 0.930 . S
H491 C463 0.930 . S
H492 C472 0.930 . S
H493 C484 0.929 . S
H494 C487 0.930 . S
C495 C496 1.351 . S
C495 N498 1.368 . S
C495 H500 0.931 . S
C496 C495 1.351 . S
C496 N497 1.373 . S
C496 H524 0.930 . S
N497 C496 1.373 . S
N497 C499 1.340 . S
N498 C495 1.368 . S
N498 C499 1.321 . S
N498 Co501 2.135 . S
C499 N497 1.340 . S
C499 N498 1.321 . S
C499 H523 0.930 . S
H500 C495 0.931 . S
Co501 N498 2.135 . S
Co501 N504 2.121 . S
Co501 O509 2.055 . S
Co501 O512 2.039 . S
Co501 N515 2.140 . S
C502 O503 1.227 . S
C502 O512 1.265 . S
O503 C502 1.227 . S
N504 Co501 2.121 . S
N504 C506 1.375 . S
N504 C507 1.313 . S
C505 C506 1.338 . S
C505 N508 1.377 . S
C505 H525 0.930 . S
C506 N504 1.375 . S
C506 C505 1.338 . S
C506 H510 0.931 . S
C507 N504 1.313 . S
C507 N508 1.344 . S
C507 H511 0.930 . S
N508 C505 1.377 . S
N508 C507 1.344 . S
O509 Co501 2.055 . S
O509 C513 1.253 . S
H510 C506 0.931 . S
H511 C507 0.930 . S
O512 Co501 2.039 . S
O512 C502 1.265 . S
C513 O509 1.253 . S
C513 O514 1.227 . S
O514 C513 1.227 . S
N515 Co501 2.140 . S
N515 C518 1.346 . S
N515 C519 1.345 . S
C516 C517 1.387 . S
C516 C520 1.391 . S
C517 C516 1.387 . S
C517 C518 1.369 . S
C517 H526 0.929 . S
C518 N515 1.346 . S
C518 C517 1.369 . S
C518 H521 0.928 . S
C519 N515 1.345 . S
C519 C520 1.371 . S
C519 H522 0.931 . S
C520 C516 1.391 . S
C520 C519 1.371 . S
C520 H527 0.930 . S
H521 C518 0.928 . S
H522 C519 0.931 . S
H523 C499 0.930 . S
H524 C496 0.930 . S
H525 C505 0.930 . S
H526 C517 0.929 . S
H527 C520 0.930 . S
C528 C529 1.391 . S
C528 C530 1.394 . S
C528 H544 0.931 . S
C529 C528 1.391 . S
C529 C533 1.376 . S
C530 C528 1.394 . S
C530 C531 1.369 . S
C530 C534 1.531 . S
C531 C530 1.369 . S
C531 C532 1.410 . S
C531 C539 1.503 . S
C532 C531 1.410 . S
C532 C533 1.392 . S
C532 C535 1.511 . S
C533 C529 1.376 . S
C533 C532 1.392 . S
C533 H545 0.929 . S
C534 C530 1.531 . S
C534 H546 0.960 . S
C534 H547 0.962 . S
C534 H548 0.960 . S
C535 C532 1.511 . S
C535 H549 0.961 . S
C535 H550 0.961 . S
C535 H551 0.961 . S
C536 C537 1.370 . S
C536 C538 1.363 . S
C536 H552 0.931 . S
C537 C536 1.370 . S
C537 C541 1.408 . S
C538 C536 1.363 . S
C538 C539 1.370 . S
C538 C542 1.524 . S
C539 C531 1.503 . S
C539 C538 1.370 . S
C539 C540 1.403 . S
C540 C539 1.403 . S
C540 C541 1.404 . S
C540 C543 1.539 . S
C541 C537 1.408 . S
C541 C540 1.404 . S
C541 H553 0.930 . S
C542 C538 1.524 . S
C542 H554 0.956 . S
C542 H555 0.961 . S
C542 H556 0.961 . S
C543 C540 1.539 . S
C543 H557 0.958 . S
C543 H558 0.961 . S
C543 H559 0.960 . S
H544 C528 0.931 . S
H545 C533 0.929 . S
H546 C534 0.960 . S
H547 C534 0.962 . S
H548 C534 0.960 . S
H549 C535 0.961 . S
H550 C535 0.961 . S
H551 C535 0.961 . S
H552 C536 0.931 . S
H553 C541 0.930 . S
H554 C542 0.956 . S
H555 C542 0.961 . S
H556 C542 0.961 . S
H557 C543 0.958 . S
H558 C543 0.961 . S
H559 C543 0.960 . S
C560 C561 1.391 . S
C560 C562 1.394 . S
C560 H576 0.931 . S
C561 C560 1.391 . S
C561 C565 1.376 . S
C562 C560 1.394 . S
C562 C563 1.369 . S
C562 C566 1.531 . S
C563 C562 1.369 . S
C563 C564 1.410 . S
C563 C571 1.503 . S
C564 C563 1.410 . S
C564 C565 1.392 . S
C564 C567 1.511 . S
C565 C561 1.376 . S
C565 C564 1.392 . S
C565 H577 0.929 . S
C566 C562 1.531 . S
C566 H578 0.960 . S
C566 H579 0.962 . S
C566 H580 0.960 . S
C567 C564 1.511 . S
C567 H581 0.961 . S
C567 H582 0.961 . S
C567 H583 0.961 . S
C568 C569 1.370 . S
C568 C570 1.363 . S
C568 H584 0.931 . S
C569 C568 1.370 . S
C569 C573 1.408 . S
C570 C568 1.363 . S
C570 C571 1.370 . S
C570 C574 1.524 . S
C571 C563 1.503 . S
C571 C570 1.370 . S
C571 C572 1.403 . S
C572 C571 1.403 . S
C572 C573 1.404 . S
C572 C575 1.539 . S
C573 C569 1.408 . S
C573 C572 1.404 . S
C573 H585 0.930 . S
C574 C570 1.524 . S
C574 H586 0.956 . S
C574 H587 0.961 . S
C574 H588 0.961 . S
C575 C572 1.539 . S
C575 H589 0.958 . S
C575 H590 0.961 . S
C575 H591 0.960 . S
H576 C560 0.931 . S
H577 C565 0.929 . S
H578 C566 0.960 . S
H579 C566 0.962 . S
H580 C566 0.960 . S
H581 C567 0.961 . S
H582 C567 0.961 . S
H583 C567 0.961 . S
H584 C568 0.931 . S
H585 C573 0.930 . S
H586 C574 0.956 . S
H587 C574 0.961 . S
H588 C574 0.961 . S
H589 C575 0.958 . S
H590 C575 0.961 . S
H591 C575 0.960 . S
C592 C593 1.391 . S
C592 C594 1.394 . S
C592 H608 0.931 . S
C593 C592 1.391 . S
C593 C597 1.376 . S
C594 C592 1.394 . S
C594 C595 1.369 . S
C594 C598 1.531 . S
C595 C594 1.369 . S
C595 C596 1.410 . S
C595 C603 1.503 . S
C596 C595 1.410 . S
C596 C597 1.392 . S
C596 C599 1.511 . S
C597 C593 1.376 . S
C597 C596 1.392 . S
C597 H609 0.929 . S
C598 C594 1.531 . S
C598 H610 0.960 . S
C598 H611 0.962 . S
C598 H612 0.960 . S
C599 C596 1.511 . S
C599 H613 0.961 . S
C599 H614 0.961 . S
C599 H615 0.961 . S
C600 C601 1.370 . S
C600 C602 1.363 . S
C600 H616 0.931 . S
C601 C600 1.370 . S
C601 C605 1.408 . S
C602 C600 1.363 . S
C602 C603 1.370 . S
C602 C606 1.524 . S
C603 C595 1.503 . S
C603 C602 1.370 . S
C603 C604 1.403 . S
C604 C603 1.403 . S
C604 C605 1.404 . S
C604 C607 1.539 . S
C605 C601 1.408 . S
C605 C604 1.404 . S
C605 H617 0.930 . S
C606 C602 1.524 . S
C606 H618 0.956 . S
C606 H619 0.961 . S
C606 H620 0.961 . S
C607 C604 1.539 . S
C607 H621 0.958 . S
C607 H622 0.961 . S
C607 H623 0.960 . S
H608 C592 0.931 . S
H609 C597 0.929 . S
H610 C598 0.960 . S
H611 C598 0.962 . S
H612 C598 0.960 . S
H613 C599 0.961 . S
H614 C599 0.961 . S
H615 C599 0.961 . S
H616 C600 0.931 . S
H617 C605 0.930 . S
H618 C606 0.956 . S
H619 C606 0.961 . S
H620 C606 0.961 . S
H621 C607 0.958 . S
H622 C607 0.961 . S
H623 C607 0.960 . S
C624 C625 1.391 . S
C624 C626 1.394 . S
C624 H640 0.931 . S
C625 C624 1.391 . S
C625 C629 1.376 . S
C626 C624 1.394 . S
C626 C627 1.369 . S
C626 C630 1.531 . S
C627 C626 1.369 . S
C627 C628 1.410 . S
C627 C635 1.503 . S
C628 C627 1.410 . S
C628 C629 1.392 . S
C628 C631 1.511 . S
C629 C625 1.376 . S
C629 C628 1.392 . S
C629 H641 0.929 . S
C630 C626 1.531 . S
C630 H642 0.960 . S
C630 H643 0.962 . S
C630 H644 0.960 . S
C631 C628 1.511 . S
C631 H645 0.961 . S
C631 H646 0.961 . S
C631 H647 0.961 . S
C632 C633 1.370 . S
C632 C634 1.363 . S
C632 H648 0.931 . S
C633 C632 1.370 . S
C633 C637 1.408 . S
C634 C632 1.363 . S
C634 C635 1.370 . S
C634 C638 1.524 . S
C635 C627 1.503 . S
C635 C634 1.370 . S
C635 C636 1.403 . S
C636 C635 1.403 . S
C636 C637 1.404 . S
C636 C639 1.539 . S
C637 C633 1.408 . S
C637 C636 1.404 . S
C637 H649 0.930 . S
C638 C634 1.524 . S
C638 H650 0.956 . S
C638 H651 0.961 . S
C638 H652 0.961 . S
C639 C636 1.539 . S
C639 H653 0.958 . S
C639 H654 0.961 . S
C639 H655 0.960 . S
H640 C624 0.931 . S
H641 C629 0.929 . S
H642 C630 0.960 . S
H643 C630 0.962 . S
H644 C630 0.960 . S
H645 C631 0.961 . S
H646 C631 0.961 . S
H647 C631 0.961 . S
H648 C632 0.931 . S
H649 C637 0.930 . S
H650 C638 0.956 . S
H651 C638 0.961 . S
H652 C638 0.961 . S
H653 C639 0.958 . S
H654 C639 0.961 . S
H655 C639 0.960 . S
C656 C657 1.391 . S
C656 C658 1.394 . S
C656 H672 0.931 . S
C657 C656 1.391 . S
C657 C661 1.376 . S
C658 C656 1.394 . S
C658 C659 1.369 . S
C658 C662 1.531 . S
C659 C658 1.369 . S
C659 C660 1.410 . S
C659 C667 1.503 . S
C660 C659 1.410 . S
C660 C661 1.392 . S
C660 C663 1.511 . S
C661 C657 1.376 . S
C661 C660 1.392 . S
C661 H673 0.929 . S
C662 C658 1.531 . S
C662 H674 0.960 . S
C662 H675 0.962 . S
C662 H676 0.960 . S
C663 C660 1.511 . S
C663 H677 0.961 . S
C663 H678 0.961 . S
C663 H679 0.961 . S
C664 C665 1.370 . S
C664 C666 1.363 . S
C664 H680 0.931 . S
C665 C664 1.370 . S
C665 C669 1.408 . S
C666 C664 1.363 . S
C666 C667 1.370 . S
C666 C670 1.524 . S
C667 C659 1.503 . S
C667 C666 1.370 . S
C667 C668 1.403 . S
C668 C667 1.403 . S
C668 C669 1.404 . S
C668 C671 1.539 . S
C669 C665 1.408 . S
C669 C668 1.404 . S
C669 H681 0.930 . S
C670 C666 1.524 . S
C670 H682 0.956 . S
C670 H683 0.961 . S
C670 H684 0.961 . S
C671 C668 1.539 . S
C671 H685 0.958 . S
C671 H686 0.961 . S
C671 H687 0.960 . S
H672 C656 0.931 . S
H673 C661 0.929 . S
H674 C662 0.960 . S
H675 C662 0.962 . S
H676 C662 0.960 . S
H677 C663 0.961 . S
H678 C663 0.961 . S
H679 C663 0.961 . S
H680 C664 0.931 . S
H681 C669 0.930 . S
H682 C670 0.956 . S
H683 C670 0.961 . S
H684 C670 0.961 . S
H685 C671 0.958 . S
H686 C671 0.961 . S
H687 C671 0.960 . S
C688 C689 1.391 . S
C688 C690 1.394 . S
C688 H704 0.931 . S
C689 C688 1.391 . S
C689 C693 1.376 . S
C690 C688 1.394 . S
C690 C691 1.369 . S
C690 C694 1.531 . S
C691 C690 1.369 . S
C691 C692 1.410 . S
C691 C699 1.503 . S
C692 C691 1.410 . S
C692 C693 1.392 . S
C692 C695 1.511 . S
C693 C689 1.376 . S
C693 C692 1.392 . S
C693 H705 0.929 . S
C694 C690 1.531 . S
C694 H706 0.960 . S
C694 H707 0.962 . S
C694 H708 0.960 . S
C695 C692 1.511 . S
C695 H709 0.961 . S
C695 H710 0.961 . S
C695 H711 0.961 . S
C696 C697 1.370 . S
C696 C698 1.363 . S
C696 H712 0.931 . S
C697 C696 1.370 . S
C697 C701 1.408 . S
C698 C696 1.363 . S
C698 C699 1.370 . S
C698 C702 1.524 . S
C699 C691 1.503 . S
C699 C698 1.370 . S
C699 C700 1.403 . S
C700 C699 1.403 . S
C700 C701 1.404 . S
C700 C703 1.539 . S
C701 C697 1.408 . S
C701 C700 1.404 . S
C701 H713 0.930 . S
C702 C698 1.524 . S
C702 H714 0.956 . S
C702 H715 0.961 . S
C702 H716 0.961 . S
C703 C700 1.539 . S
C703 H717 0.958 . S
C703 H718 0.961 . S
C703 H719 0.960 . S
H704 C688 0.931 . S
H705 C693 0.929 . S
H706 C694 0.960 . S
H707 C694 0.962 . S
H708 C694 0.960 . S
H709 C695 0.961 . S
H710 C695 0.961 . S
H711 C695 0.961 . S
H712 C696 0.931 . S
H713 C701 0.930 . S
H714 C702 0.956 . S
H715 C702 0.961 . S
H716 C702 0.961 . S
H717 C703 0.958 . S
H718 C703 0.961 . S
H719 C703 0.960 . S
C720 C721 1.391 . S
C720 C722 1.394 . S
C720 H736 0.931 . S
C721 C720 1.391 . S
C721 C725 1.376 . S
C722 C720 1.394 . S
C722 C723 1.369 . S
C722 C726 1.531 . S
C723 C722 1.369 . S
C723 C724 1.410 . S
C723 C731 1.503 . S
C724 C723 1.410 . S
C724 C725 1.392 . S
C724 C727 1.511 . S
C725 C721 1.376 . S
C725 C724 1.392 . S
C725 H737 0.929 . S
C726 C722 1.531 . S
C726 H738 0.960 . S
C726 H739 0.962 . S
C726 H740 0.960 . S
C727 C724 1.511 . S
C727 H741 0.961 . S
C727 H742 0.961 . S
C727 H743 0.961 . S
C728 C729 1.370 . S
C728 C730 1.363 . S
C728 H744 0.931 . S
C729 C728 1.370 . S
C729 C733 1.408 . S
C730 C728 1.363 . S
C730 C731 1.370 . S
C730 C734 1.524 . S
C731 C723 1.503 . S
C731 C730 1.370 . S
C731 C732 1.403 . S
C732 C731 1.403 . S
C732 C733 1.404 . S
C732 C735 1.539 . S
C733 C729 1.408 . S
C733 C732 1.404 . S
C733 H745 0.930 . S
C734 C730 1.524 . S
C734 H746 0.956 . S
C734 H747 0.961 . S
C734 H748 0.961 . S
C735 C732 1.539 . S
C735 H749 0.958 . S
C735 H750 0.961 . S
C735 H751 0.960 . S
H736 C720 0.931 . S
H737 C725 0.929 . S
H738 C726 0.960 . S
H739 C726 0.962 . S
H740 C726 0.960 . S
H741 C727 0.961 . S
H742 C727 0.961 . S
H743 C727 0.961 . S
H744 C728 0.931 . S
H745 C733 0.930 . S
H746 C734 0.956 . S
H747 C734 0.961 . S
H748 C734 0.961 . S
H749 C735 0.958 . S
H750 C735 0.961 . S
H751 C735 0.960 . S
C752 C753 1.391 . S
C752 C754 1.394 . S
C752 H768 0.931 . S
C753 C752 1.391 . S
C753 C757 1.376 . S
C754 C752 1.394 . S
C754 C755 1.369 . S
C754 C758 1.531 . S
C755 C754 1.369 . S
C755 C756 1.410 . S
C755 C763 1.503 . S
C756 C755 1.410 . S
C756 C757 1.392 . S
C756 C759 1.511 . S
C757 C753 1.376 . S
C757 C756 1.392 . S
C757 H769 0.929 . S
C758 C754 1.531 . S
C758 H770 0.960 . S
C758 H771 0.962 . S
C758 H772 0.960 . S
C759 C756 1.511 . S
C759 H773 0.961 . S
C759 H774 0.961 . S
C759 H775 0.961 . S
C760 C761 1.370 . S
C760 C762 1.363 . S
C760 H776 0.931 . S
C761 C760 1.370 . S
C761 C765 1.408 . S
C762 C760 1.363 . S
C762 C763 1.370 . S
C762 C766 1.524 . S
C763 C755 1.503 . S
C763 C762 1.370 . S
C763 C764 1.403 . S
C764 C763 1.403 . S
C764 C765 1.404 . S
C764 C767 1.539 . S
C765 C761 1.408 . S
C765 C764 1.404 . S
C765 H777 0.930 . S
C766 C762 1.524 . S
C766 H778 0.956 . S
C766 H779 0.961 . S
C766 H780 0.961 . S
C767 C764 1.539 . S
C767 H781 0.958 . S
C767 H782 0.961 . S
C767 H783 0.960 . S
H768 C752 0.931 . S
H769 C757 0.929 . S
H770 C758 0.960 . S
H771 C758 0.962 . S
H772 C758 0.960 . S
H773 C759 0.961 . S
H774 C759 0.961 . S
H775 C759 0.961 . S
H776 C760 0.931 . S
H777 C765 0.930 . S
H778 C766 0.956 . S
H779 C766 0.961 . S
H780 C766 0.961 . S
H781 C767 0.958 . S
H782 C767 0.961 . S
H783 C767 0.960 . S
C784 C785 1.391 . S
C784 C786 1.394 . S
C784 H800 0.931 . S
C785 C784 1.391 . S
C785 C789 1.376 . S
C786 C784 1.394 . S
C786 C787 1.369 . S
C786 C790 1.531 . S
C787 C786 1.369 . S
C787 C788 1.410 . S
C787 C795 1.503 . S
C788 C787 1.410 . S
C788 C789 1.392 . S
C788 C791 1.511 . S
C789 C785 1.376 . S
C789 C788 1.392 . S
C789 H801 0.929 . S
C790 C786 1.531 . S
C790 H802 0.960 . S
C790 H803 0.962 . S
C790 H804 0.960 . S
C791 C788 1.511 . S
C791 H805 0.961 . S
C791 H806 0.961 . S
C791 H807 0.961 . S
C792 C793 1.370 . S
C792 C794 1.363 . S
C792 H808 0.931 . S
C793 C792 1.370 . S
C793 C797 1.408 . S
C794 C792 1.363 . S
C794 C795 1.370 . S
C794 C798 1.524 . S
C795 C787 1.503 . S
C795 C794 1.370 . S
C795 C796 1.403 . S
C796 C795 1.403 . S
C796 C797 1.404 . S
C796 C799 1.539 . S
C797 C793 1.408 . S
C797 C796 1.404 . S
C797 H809 0.930 . S
C798 C794 1.524 . S
C798 H810 0.956 . S
C798 H811 0.961 . S
C798 H812 0.961 . S
C799 C796 1.539 . S
C799 H813 0.958 . S
C799 H814 0.961 . S
C799 H815 0.960 . S
H800 C784 0.931 . S
H801 C789 0.929 . S
H802 C790 0.960 . S
H803 C790 0.962 . S
H804 C790 0.960 . S
H805 C791 0.961 . S
H806 C791 0.961 . S
H807 C791 0.961 . S
H808 C792 0.931 . S
H809 C797 0.930 . S
H810 C798 0.956 . S
H811 C798 0.961 . S
H812 C798 0.961 . S
H813 C799 0.958 . S
H814 C799 0.961 . S
H815 C799 0.960 . S
C816 C817 1.391 . S
C816 C818 1.394 . S
C816 H832 0.931 . S
C817 C816 1.391 . S
C817 C821 1.376 . S
C818 C816 1.394 . S
C818 C819 1.369 . S
C818 C822 1.531 . S
C819 C818 1.369 . S
C819 C820 1.410 . S
C819 C827 1.503 . S
C820 C819 1.410 . S
C820 C821 1.392 . S
C820 C823 1.511 . S
C821 C817 1.376 . S
C821 C820 1.392 . S
C821 H833 0.929 . S
C822 C818 1.531 . S
C822 H834 0.960 . S
C822 H835 0.962 . S
C822 H836 0.960 . S
C823 C820 1.511 . S
C823 H837 0.961 . S
C823 H838 0.961 . S
C823 H839 0.961 . S
C824 C825 1.370 . S
C824 C826 1.363 . S
C824 H840 0.931 . S
C825 C824 1.370 . S
C825 C829 1.408 . S
C826 C824 1.363 . S
C826 C827 1.370 . S
C826 C830 1.524 . S
C827 C819 1.503 . S
C827 C826 1.370 . S
C827 C828 1.403 . S
C828 C827 1.403 . S
C828 C829 1.404 . S
C828 C831 1.539 . S
C829 C825 1.408 . S
C829 C828 1.404 . S
C829 H841 0.930 . S
C830 C826 1.524 . S
C830 H842 0.956 . S
C830 H843 0.961 . S
C830 H844 0.961 . S
C831 C828 1.539 . S
C831 H845 0.958 . S
C831 H846 0.961 . S
C831 H847 0.960 . S
H832 C816 0.931 . S
H833 C821 0.929 . S
H834 C822 0.960 . S
H835 C822 0.962 . S
H836 C822 0.960 . S
H837 C823 0.961 . S
H838 C823 0.961 . S
H839 C823 0.961 . S
H840 C824 0.931 . S
H841 C829 0.930 . S
H842 C830 0.956 . S
H843 C830 0.961 . S
H844 C830 0.961 . S
H845 C831 0.958 . S
H846 C831 0.961 . S
H847 C831 0.960 . S
C848 C849 1.391 . S
C848 C850 1.394 . S
C848 H864 0.931 . S
C849 C848 1.391 . S
C849 C853 1.376 . S
C850 C848 1.394 . S
C850 C851 1.369 . S
C850 C854 1.531 . S
C851 C850 1.369 . S
C851 C852 1.410 . S
C851 C859 1.503 . S
C852 C851 1.410 . S
C852 C853 1.392 . S
C852 C855 1.511 . S
C853 C849 1.376 . S
C853 C852 1.392 . S
C853 H865 0.929 . S
C854 C850 1.531 . S
C854 H866 0.960 . S
C854 H867 0.962 . S
C854 H868 0.960 . S
C855 C852 1.511 . S
C855 H869 0.961 . S
C855 H870 0.961 . S
C855 H871 0.961 . S
C856 C857 1.370 . S
C856 C858 1.363 . S
C856 H872 0.931 . S
C857 C856 1.370 . S
C857 C861 1.408 . S
C858 C856 1.363 . S
C858 C859 1.370 . S
C858 C862 1.524 . S
C859 C851 1.503 . S
C859 C858 1.370 . S
C859 C860 1.403 . S
C860 C859 1.403 . S
C860 C861 1.404 . S
C860 C863 1.539 . S
C861 C857 1.408 . S
C861 C860 1.404 . S
C861 H873 0.930 . S
C862 C858 1.524 . S
C862 H874 0.956 . S
C862 H875 0.961 . S
C862 H876 0.961 . S
C863 C860 1.539 . S
C863 H877 0.958 . S
C863 H878 0.961 . S
C863 H879 0.960 . S
H864 C848 0.931 . S
H865 C853 0.929 . S
H866 C854 0.960 . S
H867 C854 0.962 . S
H868 C854 0.960 . S
H869 C855 0.961 . S
H870 C855 0.961 . S
H871 C855 0.961 . S
H872 C856 0.931 . S
H873 C861 0.930 . S
H874 C862 0.956 . S
H875 C862 0.961 . S
H876 C862 0.961 . S
H877 C863 0.958 . S
H878 C863 0.961 . S
H879 C863 0.960 . S
C880 C881 1.391 . S
C880 C882 1.394 . S
C880 H896 0.931 . S
C881 C880 1.391 . S
C881 C885 1.376 . S
C882 C880 1.394 . S
C882 C883 1.369 . S
C882 C886 1.531 . S
C883 C882 1.369 . S
C883 C884 1.410 . S
C883 C891 1.503 . S
C884 C883 1.410 . S
C884 C885 1.392 . S
C884 C887 1.511 . S
C885 C881 1.376 . S
C885 C884 1.392 . S
C885 H897 0.929 . S
C886 C882 1.531 . S
C886 H898 0.960 . S
C886 H899 0.962 . S
C886 H900 0.960 . S
C887 C884 1.511 . S
C887 H901 0.961 . S
C887 H902 0.961 . S
C887 H903 0.961 . S
C888 C889 1.370 . S
C888 C890 1.363 . S
C888 H904 0.931 . S
C889 C888 1.370 . S
C889 C893 1.408 . S
C890 C888 1.363 . S
C890 C891 1.370 . S
C890 C894 1.524 . S
C891 C883 1.503 . S
C891 C890 1.370 . S
C891 C892 1.403 . S
C892 C891 1.403 . S
C892 C893 1.404 . S
C892 C895 1.539 . S
C893 C889 1.408 . S
C893 C892 1.404 . S
C893 H905 0.930 . S
C894 C890 1.524 . S
C894 H906 0.956 . S
C894 H907 0.961 . S
C894 H908 0.961 . S
C895 C892 1.539 . S
C895 H909 0.958 . S
C895 H910 0.961 . S
C895 H911 0.960 . S
H896 C880 0.931 . S
H897 C885 0.929 . S
H898 C886 0.960 . S
H899 C886 0.962 . S
H900 C886 0.960 . S
H901 C887 0.961 . S
H902 C887 0.961 . S
H903 C887 0.961 . S
H904 C888 0.931 . S
H905 C893 0.930 . S
H906 C894 0.956 . S
H907 C894 0.961 . S
H908 C894 0.961 . S
H909 C895 0.958 . S
H910 C895 0.961 . S
H911 C895 0.960 . S
C912 C913 1.391 . S
C912 C914 1.394 . S
C912 H928 0.931 . S
C913 C912 1.391 . S
C913 C917 1.376 . S
C914 C912 1.394 . S
C914 C915 1.369 . S
C914 C918 1.531 . S
C915 C914 1.369 . S
C915 C916 1.410 . S
C915 C923 1.503 . S
C916 C915 1.410 . S
C916 C917 1.392 . S
C916 C919 1.511 . S
C917 C913 1.376 . S
C917 C916 1.392 . S
C917 H929 0.929 . S
C918 C914 1.531 . S
C918 H930 0.960 . S
C918 H931 0.962 . S
C918 H932 0.960 . S
C919 C916 1.511 . S
C919 H933 0.961 . S
C919 H934 0.961 . S
C919 H935 0.961 . S
C920 C921 1.370 . S
C920 C922 1.363 . S
C920 H936 0.931 . S
C921 C920 1.370 . S
C921 C925 1.408 . S
C922 C920 1.363 . S
C922 C923 1.370 . S
C922 C926 1.524 . S
C923 C915 1.503 . S
C923 C922 1.370 . S
C923 C924 1.403 . S
C924 C923 1.403 . S
C924 C925 1.404 . S
C924 C927 1.539 . S
C925 C921 1.408 . S
C925 C924 1.404 . S
C925 H937 0.930 . S
C926 C922 1.524 . S
C926 H938 0.956 . S
C926 H939 0.961 . S
C926 H940 0.961 . S
C927 C924 1.539 . S
C927 H941 0.958 . S
C927 H942 0.961 . S
C927 H943 0.960 . S
H928 C912 0.931 . S
H929 C917 0.929 . S
H930 C918 0.960 . S
H931 C918 0.962 . S
H932 C918 0.960 . S
H933 C919 0.961 . S
H934 C919 0.961 . S
H935 C919 0.961 . S
H936 C920 0.931 . S
H937 C925 0.930 . S
H938 C926 0.956 . S
H939 C926 0.961 . S
H940 C926 0.961 . S
H941 C927 0.958 . S
H942 C927 0.961 . S
H943 C927 0.960 . S
C944 C945 1.391 . S
C944 C946 1.394 . S
C944 H960 0.931 . S
C945 C944 1.391 . S
C945 C949 1.376 . S
C946 C944 1.394 . S
C946 C947 1.369 . S
C946 C950 1.531 . S
C947 C946 1.369 . S
C947 C948 1.410 . S
C947 C955 1.503 . S
C948 C947 1.410 . S
C948 C949 1.392 . S
C948 C951 1.511 . S
C949 C945 1.376 . S
C949 C948 1.392 . S
C949 H961 0.929 . S
C950 C946 1.531 . S
C950 H962 0.960 . S
C950 H963 0.962 . S
C950 H964 0.960 . S
C951 C948 1.511 . S
C951 H965 0.961 . S
C951 H966 0.961 . S
C951 H967 0.961 . S
C952 C953 1.370 . S
C952 C954 1.363 . S
C952 H968 0.931 . S
C953 C952 1.370 . S
C953 C957 1.408 . S
C954 C952 1.363 . S
C954 C955 1.370 . S
C954 C958 1.524 . S
C955 C947 1.503 . S
C955 C954 1.370 . S
C955 C956 1.403 . S
C956 C955 1.403 . S
C956 C957 1.404 . S
C956 C959 1.539 . S
C957 C953 1.408 . S
C957 C956 1.404 . S
C957 H969 0.930 . S
C958 C954 1.524 . S
C958 H970 0.956 . S
C958 H971 0.961 . S
C958 H972 0.961 . S
C959 C956 1.539 . S
C959 H973 0.958 . S
C959 H974 0.961 . S
C959 H975 0.960 . S
H960 C944 0.931 . S
H961 C949 0.929 . S
H962 C950 0.960 . S
H963 C950 0.962 . S
H964 C950 0.960 . S
H965 C951 0.961 . S
H966 C951 0.961 . S
H967 C951 0.961 . S
H968 C952 0.931 . S
H969 C957 0.930 . S
H970 C958 0.956 . S
H971 C958 0.961 . S
H972 C958 0.961 . S
H973 C959 0.958 . S
H974 C959 0.961 . S
H975 C959 0.960 . S
C976 C977 1.391 . S
C976 C978 1.394 . S
C976 H992 0.931 . S
C977 C976 1.391 . S
C977 C981 1.376 . S
C978 C976 1.394 . S
C978 C979 1.369 . S
C978 C982 1.531 . S
C979 C978 1.369 . S
C979 C980 1.410 . S
C979 C987 1.503 . S
C980 C979 1.410 . S
C980 C981 1.392 . S
C980 C983 1.511 . S
C981 C977 1.376 . S
C981 C980 1.392 . S
C981 H993 0.929 . S
C982 C978 1.531 . S
C982 H994 0.960 . S
C982 H995 0.962 . S
C982 H996 0.960 . S
C983 C980 1.511 . S
C983 H997 0.961 . S
C983 H998 0.961 . S
C983 H999 0.961 . S
C984 C985 1.370 . S
C984 C986 1.363 . S
C984 H1000 0.931 . S
C985 C984 1.370 . S
C985 C989 1.408 . S
C986 C984 1.363 . S
C986 C987 1.370 . S
C986 C990 1.524 . S
C987 C979 1.503 . S
C987 C986 1.370 . S
C987 C988 1.403 . S
C988 C987 1.403 . S
C988 C989 1.404 . S
C988 C991 1.539 . S
C989 C985 1.408 . S
C989 C988 1.404 . S
C989 H1001 0.930 . S
C990 C986 1.524 . S
C990 H1002 0.956 . S
C990 H1003 0.961 . S
C990 H1004 0.961 . S
C991 C988 1.539 . S
C991 H1005 0.958 . S
C991 H1006 0.961 . S
C991 H1007 0.960 . S
H992 C976 0.931 . S
H993 C981 0.929 . S
H994 C982 0.960 . S
H995 C982 0.962 . S
H996 C982 0.960 . S
H997 C983 0.961 . S
H998 C983 0.961 . S
H999 C983 0.961 . S
H1000 C984 0.931 . S
H1001 C989 0.930 . S
H1002 C990 0.956 . S
H1003 C990 0.961 . S
H1004 C990 0.961 . S
H1005 C991 0.958 . S
H1006 C991 0.961 . S
H1007 C991 0.960 . S
C1008 C1009 1.391 . S
C1008 C1010 1.394 . S
C1008 H1024 0.931 . S
C1009 C1008 1.391 . S
C1009 C1013 1.376 . S
C1010 C1008 1.394 . S
C1010 C1011 1.369 . S
C1010 C1014 1.531 . S
C1011 C1010 1.369 . S
C1011 C1012 1.410 . S
C1011 C1019 1.503 . S
C1012 C1011 1.410 . S
C1012 C1013 1.392 . S
C1012 C1015 1.511 . S
C1013 C1009 1.376 . S
C1013 C1012 1.392 . S
C1013 H1025 0.929 . S
C1014 C1010 1.531 . S
C1014 H1026 0.960 . S
C1014 H1027 0.962 . S
C1014 H1028 0.960 . S
C1015 C1012 1.511 . S
C1015 H1029 0.961 . S
C1015 H1030 0.961 . S
C1015 H1031 0.961 . S
C1016 C1017 1.370 . S
C1016 C1018 1.363 . S
C1016 H1032 0.931 . S
C1017 C1016 1.370 . S
C1017 C1021 1.408 . S
C1018 C1016 1.363 . S
C1018 C1019 1.370 . S
C1018 C1022 1.524 . S
C1019 C1011 1.503 . S
C1019 C1018 1.370 . S
C1019 C1020 1.403 . S
C1020 C1019 1.403 . S
C1020 C1021 1.404 . S
C1020 C1023 1.539 . S
C1021 C1017 1.408 . S
C1021 C1020 1.404 . S
C1021 H1033 0.930 . S
C1022 C1018 1.524 . S
C1022 H1034 0.956 . S
C1022 H1035 0.961 . S
C1022 H1036 0.961 . S
C1023 C1020 1.539 . S
C1023 H1037 0.958 . S
C1023 H1038 0.961 . S
C1023 H1039 0.960 . S
H1024 C1008 0.931 . S
H1025 C1013 0.929 . S
H1026 C1014 0.960 . S
H1027 C1014 0.962 . S
H1028 C1014 0.960 . S
H1029 C1015 0.961 . S
H1030 C1015 0.961 . S
H1031 C1015 0.961 . S
H1032 C1016 0.931 . S
H1033 C1021 0.930 . S
H1034 C1022 0.956 . S
H1035 C1022 0.961 . S
H1036 C1022 0.961 . S
H1037 C1023 0.958 . S
H1038 C1023 0.961 . S
H1039 C1023 0.960 . S
C1040 C1041 1.391 . S
C1040 C1042 1.394 . S
C1040 H1056 0.931 . S
C1041 C1040 1.391 . S
C1041 C1045 1.376 . S
C1042 C1040 1.394 . S
C1042 C1043 1.369 . S
C1042 C1046 1.531 . S
C1043 C1042 1.369 . S
C1043 C1044 1.410 . S
C1043 C1051 1.503 . S
C1044 C1043 1.410 . S
C1044 C1045 1.392 . S
C1044 C1047 1.511 . S
C1045 C1041 1.376 . S
C1045 C1044 1.392 . S
C1045 H1057 0.929 . S
C1046 C1042 1.531 . S
C1046 H1058 0.960 . S
C1046 H1059 0.962 . S
C1046 H1060 0.960 . S
C1047 C1044 1.511 . S
C1047 H1061 0.961 . S
C1047 H1062 0.961 . S
C1047 H1063 0.961 . S
C1048 C1049 1.370 . S
C1048 C1050 1.363 . S
C1048 H1064 0.931 . S
C1049 C1048 1.370 . S
C1049 C1053 1.408 . S
C1050 C1048 1.363 . S
C1050 C1051 1.370 . S
C1050 C1054 1.524 . S
C1051 C1043 1.503 . S
C1051 C1050 1.370 . S
C1051 C1052 1.403 . S
C1052 C1051 1.403 . S
C1052 C1053 1.404 . S
C1052 C1055 1.539 . S
C1053 C1049 1.408 . S
C1053 C1052 1.404 . S
C1053 H1065 0.930 . S
C1054 C1050 1.524 . S
C1054 H1066 0.956 . S
C1054 H1067 0.961 . S
C1054 H1068 0.961 . S
C1055 C1052 1.539 . S
C1055 H1069 0.958 . S
C1055 H1070 0.961 . S
C1055 H1071 0.960 . S
H1056 C1040 0.931 . S
H1057 C1045 0.929 . S
H1058 C1046 0.960 . S
H1059 C1046 0.962 . S
H1060 C1046 0.960 . S
H1061 C1047 0.961 . S
H1062 C1047 0.961 . S
H1063 C1047 0.961 . S
H1064 C1048 0.931 . S
H1065 C1053 0.930 . S
H1066 C1054 0.956 . S
H1067 C1054 0.961 . S
H1068 C1054 0.961 . S
H1069 C1055 0.958 . S
H1070 C1055 0.961 . S
H1071 C1055 0.960 . S
C1072 C1073 1.391 . S
C1072 C1074 1.394 . S
C1072 H1088 0.931 . S
C1073 C1072 1.391 . S
C1073 C1077 1.376 . S
C1074 C1072 1.394 . S
C1074 C1075 1.369 . S
C1074 C1078 1.531 . S
C1075 C1074 1.369 . S
C1075 C1076 1.410 . S
C1075 C1083 1.503 . S
C1076 C1075 1.410 . S
C1076 C1077 1.392 . S
C1076 C1079 1.511 . S
C1077 C1073 1.376 . S
C1077 C1076 1.392 . S
C1077 H1089 0.929 . S
C1078 C1074 1.531 . S
C1078 H1090 0.960 . S
C1078 H1091 0.962 . S
C1078 H1092 0.960 . S
C1079 C1076 1.511 . S
C1079 H1093 0.961 . S
C1079 H1094 0.961 . S
C1079 H1095 0.961 . S
C1080 C1081 1.370 . S
C1080 C1082 1.363 . S
C1080 H1096 0.931 . S
C1081 C1080 1.370 . S
C1081 C1085 1.408 . S
C1082 C1080 1.363 . S
C1082 C1083 1.370 . S
C1082 C1086 1.524 . S
C1083 C1075 1.503 . S
C1083 C1082 1.370 . S
C1083 C1084 1.403 . S
C1084 C1083 1.403 . S
C1084 C1085 1.404 . S
C1084 C1087 1.539 . S
C1085 C1081 1.408 . S
C1085 C1084 1.404 . S
C1085 H1097 0.930 . S
C1086 C1082 1.524 . S
C1086 H1098 0.956 . S
C1086 H1099 0.961 . S
C1086 H1100 0.961 . S
C1087 C1084 1.539 . S
C1087 H1101 0.958 . S
C1087 H1102 0.961 . S
C1087 H1103 0.960 . S
H1088 C1072 0.931 . S
H1089 C1077 0.929 . S
H1090 C1078 0.960 . S
H1091 C1078 0.962 . S
H1092 C1078 0.960 . S
H1093 C1079 0.961 . S
H1094 C1079 0.961 . S
H1095 C1079 0.961 . S
H1096 C1080 0.931 . S
H1097 C1085 0.930 . S
H1098 C1086 0.956 . S
H1099 C1086 0.961 . S
H1100 C1086 0.961 . S
H1101 C1087 0.958 . S
H1102 C1087 0.961 . S
H1103 C1087 0.960 . S
C1104 C1105 1.391 . S
C1104 C1106 1.394 . S
C1104 H1120 0.931 . S
C1105 C1104 1.391 . S
C1105 C1109 1.376 . S
C1106 C1104 1.394 . S
C1106 C1107 1.369 . S
C1106 C1110 1.531 . S
C1107 C1106 1.369 . S
C1107 C1108 1.410 . S
C1107 C1115 1.503 . S
C1108 C1107 1.410 . S
C1108 C1109 1.392 . S
C1108 C1111 1.511 . S
C1109 C1105 1.376 . S
C1109 C1108 1.392 . S
C1109 H1121 0.929 . S
C1110 C1106 1.531 . S
C1110 H1122 0.960 . S
C1110 H1123 0.962 . S
C1110 H1124 0.960 . S
C1111 C1108 1.511 . S
C1111 H1125 0.961 . S
C1111 H1126 0.961 . S
C1111 H1127 0.961 . S
C1112 C1113 1.370 . S
C1112 C1114 1.363 . S
C1112 H1128 0.931 . S
C1113 C1112 1.370 . S
C1113 C1117 1.408 . S
C1114 C1112 1.363 . S
C1114 C1115 1.370 . S
C1114 C1118 1.524 . S
C1115 C1107 1.503 . S
C1115 C1114 1.370 . S
C1115 C1116 1.403 . S
C1116 C1115 1.403 . S
C1116 C1117 1.404 . S
C1116 C1119 1.539 . S
C1117 C1113 1.408 . S
C1117 C1116 1.404 . S
C1117 H1129 0.930 . S
C1118 C1114 1.524 . S
C1118 H1130 0.956 . S
C1118 H1131 0.961 . S
C1118 H1132 0.961 . S
C1119 C1116 1.539 . S
C1119 H1133 0.958 . S
C1119 H1134 0.961 . S
C1119 H1135 0.960 . S
H1120 C1104 0.931 . S
H1121 C1109 0.929 . S
H1122 C1110 0.960 . S
H1123 C1110 0.962 . S
H1124 C1110 0.960 . S
H1125 C1111 0.961 . S
H1126 C1111 0.961 . S
H1127 C1111 0.961 . S
H1128 C1112 0.931 . S
H1129 C1117 0.930 . S
H1130 C1118 0.956 . S
H1131 C1118 0.961 . S
H1132 C1118 0.961 . S
H1133 C1119 0.958 . S
H1134 C1119 0.961 . S
H1135 C1119 0.960 . S
C1136 C1137 1.391 . S
C1136 C1138 1.394 . S
C1136 H1152 0.931 . S
C1137 C1136 1.391 . S
C1137 C1141 1.376 . S
C1138 C1136 1.394 . S
C1138 C1139 1.369 . S
C1138 C1142 1.531 . S
C1139 C1138 1.369 . S
C1139 C1140 1.410 . S
C1139 C1147 1.503 . S
C1140 C1139 1.410 . S
C1140 C1141 1.392 . S
C1140 C1143 1.511 . S
C1141 C1137 1.376 . S
C1141 C1140 1.392 . S
C1141 H1153 0.929 . S
C1142 C1138 1.531 . S
C1142 H1154 0.960 . S
C1142 H1155 0.962 . S
C1142 H1156 0.960 . S
C1143 C1140 1.511 . S
C1143 H1157 0.961 . S
C1143 H1158 0.961 . S
C1143 H1159 0.961 . S
C1144 C1145 1.370 . S
C1144 C1146 1.363 . S
C1144 H1160 0.931 . S
C1145 C1144 1.370 . S
C1145 C1149 1.408 . S
C1146 C1144 1.363 . S
C1146 C1147 1.370 . S
C1146 C1150 1.524 . S
C1147 C1139 1.503 . S
C1147 C1146 1.370 . S
C1147 C1148 1.403 . S
C1148 C1147 1.403 . S
C1148 C1149 1.404 . S
C1148 C1151 1.539 . S
C1149 C1145 1.408 . S
C1149 C1148 1.404 . S
C1149 H1161 0.930 . S
C1150 C1146 1.524 . S
C1150 H1162 0.956 . S
C1150 H1163 0.961 . S
C1150 H1164 0.961 . S
C1151 C1148 1.539 . S
C1151 H1165 0.958 . S
C1151 H1166 0.961 . S
C1151 H1167 0.960 . S
H1152 C1136 0.931 . S
H1153 C1141 0.929 . S
H1154 C1142 0.960 . S
H1155 C1142 0.962 . S
H1156 C1142 0.960 . S
H1157 C1143 0.961 . S
H1158 C1143 0.961 . S
H1159 C1143 0.961 . S
H1160 C1144 0.931 . S
H1161 C1149 0.930 . S
H1162 C1150 0.956 . S
H1163 C1150 0.961 . S
H1164 C1150 0.961 . S
H1165 C1151 0.958 . S
H1166 C1151 0.961 . S
H1167 C1151 0.960 . S
C1168 C1169 1.391 . S
C1168 C1170 1.394 . S
C1168 H1184 0.931 . S
C1169 C1168 1.391 . S
C1169 C1173 1.376 . S
C1170 C1168 1.394 . S
C1170 C1171 1.369 . S
C1170 C1174 1.531 . S
C1171 C1170 1.369 . S
C1171 C1172 1.410 . S
C1171 C1179 1.503 . S
C1172 C1171 1.410 . S
C1172 C1173 1.392 . S
C1172 C1175 1.511 . S
C1173 C1169 1.376 . S
C1173 C1172 1.392 . S
C1173 H1185 0.929 . S
C1174 C1170 1.531 . S
C1174 H1186 0.960 . S
C1174 H1187 0.962 . S
C1174 H1188 0.960 . S
C1175 C1172 1.511 . S
C1175 H1189 0.961 . S
C1175 H1190 0.961 . S
C1175 H1191 0.961 . S
C1176 C1177 1.370 . S
C1176 C1178 1.363 . S
C1176 H1192 0.931 . S
C1177 C1176 1.370 . S
C1177 C1181 1.408 . S
C1178 C1176 1.363 . S
C1178 C1179 1.370 . S
C1178 C1182 1.524 . S
C1179 C1171 1.503 . S
C1179 C1178 1.370 . S
C1179 C1180 1.403 . S
C1180 C1179 1.403 . S
C1180 C1181 1.404 . S
C1180 C1183 1.539 . S
C1181 C1177 1.408 . S
C1181 C1180 1.404 . S
C1181 H1193 0.930 . S
C1182 C1178 1.524 . S
C1182 H1194 0.956 . S
C1182 H1195 0.961 . S
C1182 H1196 0.961 . S
C1183 C1180 1.539 . S
C1183 H1197 0.958 . S
C1183 H1198 0.961 . S
C1183 H1199 0.960 . S
H1184 C1168 0.931 . S
H1185 C1173 0.929 . S
H1186 C1174 0.960 . S
H1187 C1174 0.962 . S
H1188 C1174 0.960 . S
H1189 C1175 0.961 . S
H1190 C1175 0.961 . S
H1191 C1175 0.961 . S
H1192 C1176 0.931 . S
H1193 C1181 0.930 . S
H1194 C1182 0.956 . S
H1195 C1182 0.961 . S
H1196 C1182 0.961 . S
H1197 C1183 0.958 . S
H1198 C1183 0.961 . S
H1199 C1183 0.960 . S
C1200 C1201 1.391 . S
C1200 C1202 1.394 . S
C1200 H1216 0.931 . S
C1201 C1200 1.391 . S
C1201 C1205 1.376 . S
C1202 C1200 1.394 . S
C1202 C1203 1.369 . S
C1202 C1206 1.531 . S
C1203 C1202 1.369 . S
C1203 C1204 1.410 . S
C1203 C1211 1.503 . S
C1204 C1203 1.410 . S
C1204 C1205 1.392 . S
C1204 C1207 1.511 . S
C1205 C1201 1.376 . S
C1205 C1204 1.392 . S
C1205 H1217 0.929 . S
C1206 C1202 1.531 . S
C1206 H1218 0.960 . S
C1206 H1219 0.962 . S
C1206 H1220 0.960 . S
C1207 C1204 1.511 . S
C1207 H1221 0.961 . S
C1207 H1222 0.961 . S
C1207 H1223 0.961 . S
C1208 C1209 1.370 . S
C1208 C1210 1.363 . S
C1208 H1224 0.931 . S
C1209 C1208 1.370 . S
C1209 C1213 1.408 . S
C1210 C1208 1.363 . S
C1210 C1211 1.370 . S
C1210 C1214 1.524 . S
C1211 C1203 1.503 . S
C1211 C1210 1.370 . S
C1211 C1212 1.403 . S
C1212 C1211 1.403 . S
C1212 C1213 1.404 . S
C1212 C1215 1.539 . S
C1213 C1209 1.408 . S
C1213 C1212 1.404 . S
C1213 H1225 0.930 . S
C1214 C1210 1.524 . S
C1214 H1226 0.956 . S
C1214 H1227 0.961 . S
C1214 H1228 0.961 . S
C1215 C1212 1.539 . S
C1215 H1229 0.958 . S
C1215 H1230 0.961 . S
C1215 H1231 0.960 . S
H1216 C1200 0.931 . S
H1217 C1205 0.929 . S
H1218 C1206 0.960 . S
H1219 C1206 0.962 . S
H1220 C1206 0.960 . S
H1221 C1207 0.961 . S
H1222 C1207 0.961 . S
H1223 C1207 0.961 . S
H1224 C1208 0.931 . S
H1225 C1213 0.930 . S
H1226 C1214 0.956 . S
H1227 C1214 0.961 . S
H1228 C1214 0.961 . S
H1229 C1215 0.958 . S
H1230 C1215 0.961 . S
H1231 C1215 0.960 . S
C1232 C1233 1.391 . S
C1232 C1234 1.394 . S
C1232 H1248 0.931 . S
C1233 C1232 1.391 . S
C1233 C1237 1.376 . S
C1234 C1232 1.394 . S
C1234 C1235 1.369 . S
C1234 C1238 1.531 . S
C1235 C1234 1.369 . S
C1235 C1236 1.410 . S
C1235 C1243 1.503 . S
C1236 C1235 1.410 . S
C1236 C1237 1.392 . S
C1236 C1239 1.511 . S
C1237 C1233 1.376 . S
C1237 C1236 1.392 . S
C1237 H1249 0.929 . S
C1238 C1234 1.531 . S
C1238 H1250 0.960 . S
C1238 H1251 0.962 . S
C1238 H1252 0.960 . S
C1239 C1236 1.511 . S
C1239 H1253 0.961 . S
C1239 H1254 0.961 . S
C1239 H1255 0.961 . S
C1240 C1241 1.370 . S
C1240 C1242 1.363 . S
C1240 H1256 0.931 . S
C1241 C1240 1.370 . S
C1241 C1245 1.408 . S
C1242 C1240 1.363 . S
C1242 C1243 1.370 . S
C1242 C1246 1.524 . S
C1243 C1235 1.503 . S
C1243 C1242 1.370 . S
C1243 C1244 1.403 . S
C1244 C1243 1.403 . S
C1244 C1245 1.404 . S
C1244 C1247 1.539 . S
C1245 C1241 1.408 . S
C1245 C1244 1.404 . S
C1245 H1257 0.930 . S
C1246 C1242 1.524 . S
C1246 H1258 0.956 . S
C1246 H1259 0.961 . S
C1246 H1260 0.961 . S
C1247 C1244 1.539 . S
C1247 H1261 0.958 . S
C1247 H1262 0.961 . S
C1247 H1263 0.960 . S
H1248 C1232 0.931 . S
H1249 C1237 0.929 . S
H1250 C1238 0.960 . S
H1251 C1238 0.962 . S
H1252 C1238 0.960 . S
H1253 C1239 0.961 . S
H1254 C1239 0.961 . S
H1255 C1239 0.961 . S
H1256 C1240 0.931 . S
H1257 C1245 0.930 . S
H1258 C1246 0.956 . S
H1259 C1246 0.961 . S
H1260 C1246 0.961 . S
H1261 C1247 0.958 . S
H1262 C1247 0.961 . S
H1263 C1247 0.960 . S
C1264 C1265 1.391 . S
C1264 C1266 1.394 . S
C1264 H1280 0.931 . S
C1265 C1264 1.391 . S
C1265 C1269 1.376 . S
C1266 C1264 1.394 . S
C1266 C1267 1.369 . S
C1266 C1270 1.531 . S
C1267 C1266 1.369 . S
C1267 C1268 1.410 . S
C1267 C1275 1.503 . S
C1268 C1267 1.410 . S
C1268 C1269 1.392 . S
C1268 C1271 1.511 . S
C1269 C1265 1.376 . S
C1269 C1268 1.392 . S
C1269 H1281 0.929 . S
C1270 C1266 1.531 . S
C1270 H1282 0.960 . S
C1270 H1283 0.962 . S
C1270 H1284 0.960 . S
C1271 C1268 1.511 . S
C1271 H1285 0.961 . S
C1271 H1286 0.961 . S
C1271 H1287 0.961 . S
C1272 C1273 1.370 . S
C1272 C1274 1.363 . S
C1272 H1288 0.931 . S
C1273 C1272 1.370 . S
C1273 C1277 1.408 . S
C1274 C1272 1.363 . S
C1274 C1275 1.370 . S
C1274 C1278 1.524 . S
C1275 C1267 1.503 . S
C1275 C1274 1.370 . S
C1275 C1276 1.403 . S
C1276 C1275 1.403 . S
C1276 C1277 1.404 . S
C1276 C1279 1.539 . S
C1277 C1273 1.408 . S
C1277 C1276 1.404 . S
C1277 H1289 0.930 . S
C1278 C1274 1.524 . S
C1278 H1290 0.956 . S
C1278 H1291 0.961 . S
C1278 H1292 0.961 . S
C1279 C1276 1.539 . S
C1279 H1293 0.958 . S
C1279 H1294 0.961 . S
C1279 H1295 0.960 . S
H1280 C1264 0.931 . S
H1281 C1269 0.929 . S
H1282 C1270 0.960 . S
H1283 C1270 0.962 . S
H1284 C1270 0.960 . S
H1285 C1271 0.961 . S
H1286 C1271 0.961 . S
H1287 C1271 0.961 . S
H1288 C1272 0.931 . S
H1289 C1277 0.930 . S
H1290 C1278 0.956 . S
H1291 C1278 0.961 . S
H1292 C1278 0.961 . S
H1293 C1279 0.958 . S
H1294 C1279 0.961 . S
H1295 C1279 0.960 . S
C1296 C1297 1.391 . S
C1296 C1298 1.394 . S
C1296 H1312 0.931 . S
C1297 C1296 1.391 . S
C1297 C1301 1.376 . S
C1298 C1296 1.394 . S
C1298 C1299 1.369 . S
C1298 C1302 1.531 . S
C1299 C1298 1.369 . S
C1299 C1300 1.410 . S
C1299 C1307 1.503 . S
C1300 C1299 1.410 . S
C1300 C1301 1.392 . S
C1300 C1303 1.511 . S
C1301 C1297 1.376 . S
C1301 C1300 1.392 . S
C1301 H1313 0.929 . S
C1302 C1298 1.531 . S
C1302 H1314 0.960 . S
C1302 H1315 0.962 . S
C1302 H1316 0.960 . S
C1303 C1300 1.511 . S
C1303 H1317 0.961 . S
C1303 H1318 0.961 . S
C1303 H1319 0.961 . S
C1304 C1305 1.370 . S
C1304 C1306 1.363 . S
C1304 H1320 0.931 . S
C1305 C1304 1.370 . S
C1305 C1309 1.408 . S
C1306 C1304 1.363 . S
C1306 C1307 1.370 . S
C1306 C1310 1.524 . S
C1307 C1299 1.503 . S
C1307 C1306 1.370 . S
C1307 C1308 1.403 . S
C1308 C1307 1.403 . S
C1308 C1309 1.404 . S
C1308 C1311 1.539 . S
C1309 C1305 1.408 . S
C1309 C1308 1.404 . S
C1309 H1321 0.930 . S
C1310 C1306 1.524 . S
C1310 H1322 0.956 . S
C1310 H1323 0.961 . S
C1310 H1324 0.961 . S
C1311 C1308 1.539 . S
C1311 H1325 0.958 . S
C1311 H1326 0.961 . S
C1311 H1327 0.960 . S
H1312 C1296 0.931 . S
H1313 C1301 0.929 . S
H1314 C1302 0.960 . S
H1315 C1302 0.962 . S
H1316 C1302 0.960 . S
H1317 C1303 0.961 . S
H1318 C1303 0.961 . S
H1319 C1303 0.961 . S
H1320 C1304 0.931 . S
H1321 C1309 0.930 . S
H1322 C1310 0.956 . S
H1323 C1310 0.961 . S
H1324 C1310 0.961 . S
H1325 C1311 0.958 . S
H1326 C1311 0.961 . S
H1327 C1311 0.960 . S
C1328 C1329 1.391 . S
C1328 C1330 1.394 . S
C1328 H1344 0.931 . S
C1329 C1328 1.391 . S
C1329 C1333 1.376 . S
C1330 C1328 1.394 . S
C1330 C1331 1.369 . S
C1330 C1334 1.531 . S
C1331 C1330 1.369 . S
C1331 C1332 1.410 . S
C1331 C1339 1.503 1_665 S
C1332 C1331 1.410 . S
C1332 C1333 1.392 . S
C1332 C1335 1.511 1_665 S
C1333 C1329 1.376 . S
C1333 C1332 1.392 . S
C1333 H1345 0.929 . S
C1334 C1330 1.531 . S
C1334 H1346 0.960 1_565 S
C1334 H1347 0.962 . S
C1334 H1348 0.960 . S
C1335 C1332 1.511 1_445 S
C1335 H1349 0.942 1_545 S
C1335 H1350 0.961 . S
C1335 H1351 0.961 . S
C1336 C1337 1.370 . S
C1336 C1338 1.363 1_545 S
C1336 H1352 0.928 1_545 S
C1337 C1336 1.370 . S
C1337 C1341 1.408 . S
C1338 C1336 1.363 1_565 S
C1338 C1339 1.370 1_565 S
C1338 C1342 1.524 . S
C1339 C1331 1.503 1_445 S
C1339 C1338 1.370 1_545 S
C1339 C1340 1.403 . S
C1340 C1339 1.403 . S
C1340 C1341 1.404 . S
C1340 C1343 1.539 1_455 S
C1341 C1337 1.408 . S
C1341 C1340 1.404 . S
C1341 H1353 0.930 . S
C1342 C1338 1.524 . S
C1342 H1354 0.956 . S
C1342 H1355 0.961 . S
C1342 H1356 0.961 . S
C1343 C1340 1.539 1_655 S
C1343 H1357 0.958 . S
C1343 H1358 0.961 . S
C1343 H1359 0.960 . S
H1344 C1328 0.931 . S
H1345 C1333 0.929 . S
H1346 C1334 0.960 1_545 S
H1347 C1334 0.962 . S
H1348 C1334 0.960 . S
H1349 C1335 0.942 1_565 S
H1350 C1335 0.961 . S
H1351 C1335 0.961 . S
H1352 C1336 0.928 1_565 S
H1353 C1341 0.930 . S
H1354 C1342 0.956 . S
H1355 C1342 0.961 . S
H1356 C1342 0.961 . S
H1357 C1343 0.958 . S
H1358 C1343 0.961 . S
H1359 C1343 0.960 . S
C1360 C1361 1.391 . S
C1360 C1362 1.394 . S
C1360 H1376 0.931 . S
C1361 C1360 1.391 . S
C1361 C1365 1.376 . S
C1362 C1360 1.394 . S
C1362 C1363 1.369 . S
C1362 C1366 1.526 1_565 S
C1363 C1362 1.369 . S
C1363 C1364 1.410 . S
C1363 C1371 1.503 1_565 S
C1364 C1363 1.410 . S
C1364 C1365 1.392 . S
C1364 C1367 1.511 . S
C1365 C1361 1.376 . S
C1365 C1364 1.392 . S
C1365 H1377 0.929 . S
C1366 C1362 1.526 1_545 S
C1366 H1378 0.974 . S
C1366 H1379 0.951 1_545 S
C1366 H1380 0.962 . S
C1367 C1364 1.511 . S
C1367 H1381 0.961 . S
C1367 H1382 0.961 . S
C1367 H1383 0.961 1_565 S
C1368 C1369 1.370 . S
C1368 C1370 1.363 1_545 S
C1368 H1384 0.911 1_545 S
C1369 C1368 1.370 . S
C1369 C1373 1.408 . S
C1370 C1368 1.363 1_565 S
C1370 C1371 1.370 1_565 S
C1370 C1374 1.524 . S
C1371 C1363 1.503 1_545 S
C1371 C1370 1.370 1_545 S
C1371 C1372 1.403 . S
C1372 C1371 1.403 . S
C1372 C1373 1.404 . S
C1372 C1375 1.539 . S
C1373 C1369 1.408 . S
C1373 C1372 1.404 . S
C1373 H1385 0.930 . S
C1374 C1370 1.524 . S
C1374 H1386 0.956 . S
C1374 H1387 0.961 . S
C1374 H1388 0.961 . S
C1375 C1372 1.539 . S
C1375 H1389 0.958 . S
C1375 H1390 0.961 . S
C1375 H1391 0.960 . S
H1376 C1360 0.931 . S
H1377 C1365 0.929 . S
H1378 C1366 0.974 . S
H1379 C1366 0.951 1_565 S
H1380 C1366 0.962 . S
H1381 C1367 0.961 . S
H1382 C1367 0.961 . S
H1383 C1367 0.961 1_545 S
H1384 C1368 0.911 1_565 S
H1385 C1373 0.930 . S
H1386 C1374 0.956 . S
H1387 C1374 0.961 . S
H1388 C1374 0.961 . S
H1389 C1375 0.958 . S
H1390 C1375 0.961 . S
H1391 C1375 0.960 . S
C1392 C1393 1.391 . S
C1392 C1394 1.394 . S
C1392 H1408 0.931 . S
C1393 C1392 1.391 . S
C1393 C1397 1.376 . S
C1394 C1392 1.394 . S
C1394 C1395 1.369 . S
C1394 C1398 1.531 1_655 S
C1395 C1394 1.369 . S
C1395 C1396 1.410 . S
C1395 C1403 1.503 1_655 S
C1396 C1395 1.410 . S
C1396 C1397 1.392 . S
C1396 C1399 1.511 . S
C1397 C1393 1.376 . S
C1397 C1396 1.392 . S
C1397 H1409 0.929 . S
C1398 C1394 1.531 1_455 S
C1398 H1410 0.960 . S
C1398 H1411 0.962 . S
C1398 H1412 0.960 . S
C1399 C1396 1.511 . S
C1399 H1413 0.961 . S
C1399 H1414 0.961 . S
C1399 H1415 0.961 . S
C1400 C1401 1.370 . S
C1400 C1402 1.363 . S
C1400 H1416 0.931 . S
C1401 C1400 1.370 . S
C1401 C1405 1.408 . S
C1402 C1400 1.363 . S
C1402 C1403 1.370 . S
C1402 C1406 1.524 . S
C1403 C1395 1.503 1_455 S
C1403 C1402 1.370 . S
C1403 C1404 1.403 . S
C1404 C1403 1.403 . S
C1404 C1405 1.404 . S
C1404 C1407 1.539 . S
C1405 C1401 1.408 . S
C1405 C1404 1.404 . S
C1405 H1417 0.930 . S
C1406 C1402 1.524 . S
C1406 H1418 0.956 . S
C1406 H1419 0.961 1_455 S
C1406 H1420 0.961 . S
C1407 C1404 1.539 . S
C1407 H1421 0.958 . S
C1407 H1422 0.961 1_455 S
C1407 H1423 0.960 1_455 S
H1408 C1392 0.931 . S
H1409 C1397 0.929 . S
H1410 C1398 0.960 . S
H1411 C1398 0.962 . S
H1412 C1398 0.960 . S
H1413 C1399 0.961 . S
H1414 C1399 0.961 . S
H1415 C1399 0.961 . S
H1416 C1400 0.931 . S
H1417 C1405 0.930 . S
H1418 C1406 0.956 . S
H1419 C1406 0.961 1_655 S
H1420 C1406 0.961 . S
H1421 C1407 0.958 . S
H1422 C1407 0.961 1_655 S
H1423 C1407 0.960 1_655 S
C1424 C1425 1.391 . S
C1424 C1426 1.394 . S
C1424 H1440 0.931 . S
C1425 C1424 1.391 . S
C1425 C1429 1.376 . S
C1426 C1424 1.394 . S
C1426 C1427 1.369 . S
C1426 C1430 1.531 . S
C1427 C1426 1.369 . S
C1427 C1428 1.410 . S
C1427 C1435 1.503 . S
C1428 C1427 1.410 . S
C1428 C1429 1.392 . S
C1428 C1431 1.511 . S
C1429 C1425 1.376 . S
C1429 C1428 1.392 . S
C1429 H1441 0.929 . S
C1430 C1426 1.531 . S
C1430 H1442 0.960 . S
C1430 H1443 0.962 . S
C1430 H1444 0.960 . S
C1431 C1428 1.511 . S
C1431 H1445 0.961 . S
C1431 H1446 0.961 . S
C1431 H1447 0.961 . S
C1432 C1433 1.370 . S
C1432 C1434 1.363 . S
C1432 H1448 0.931 . S
C1433 C1432 1.370 . S
C1433 C1437 1.408 . S
C1434 C1432 1.363 . S
C1434 C1435 1.370 . S
C1434 C1438 1.524 . S
C1435 C1427 1.503 . S
C1435 C1434 1.370 . S
C1435 C1436 1.403 . S
C1436 C1435 1.403 . S
C1436 C1437 1.404 . S
C1436 C1439 1.539 . S
C1437 C1433 1.408 . S
C1437 C1436 1.404 . S
C1437 H1449 0.930 . S
C1438 C1434 1.524 . S
C1438 H1450 0.956 . S
C1438 H1451 0.961 . S
C1438 H1452 0.961 . S
C1439 C1436 1.539 . S
C1439 H1453 0.958 . S
C1439 H1454 0.961 . S
C1439 H1455 0.960 . S
H1440 C1424 0.931 . S
H1441 C1429 0.929 . S
H1442 C1430 0.960 . S
H1443 C1430 0.962 . S
H1444 C1430 0.960 . S
H1445 C1431 0.961 . S
H1446 C1431 0.961 . S
H1447 C1431 0.961 . S
H1448 C1432 0.931 . S
H1449 C1437 0.930 . S
H1450 C1438 0.956 . S
H1451 C1438 0.961 . S
H1452 C1438 0.961 . S
H1453 C1439 0.958 . S
H1454 C1439 0.961 . S
H1455 C1439 0.960 . S
C1456 C1457 1.391 . S
C1456 C1458 1.394 . S
C1456 H1472 0.931 . S
C1457 C1456 1.391 . S
C1457 C1461 1.376 . S
C1458 C1456 1.394 . S
C1458 C1459 1.369 . S
C1458 C1462 1.531 . S
C1459 C1458 1.369 . S
C1459 C1460 1.410 . S
C1459 C1467 1.503 1_545 S
C1460 C1459 1.410 . S
C1460 C1461 1.392 . S
C1460 C1463 1.511 . S
C1461 C1457 1.376 . S
C1461 C1460 1.392 . S
C1461 H1473 0.929 . S
C1462 C1458 1.531 . S
C1462 H1474 0.960 . S
C1462 H1475 0.962 1_545 S
C1462 H1476 0.960 . S
C1463 C1460 1.511 . S
C1463 H1477 0.961 . S
C1463 H1478 0.961 1_545 S
C1463 H1479 0.961 . S
C1464 C1465 1.370 . S
C1464 C1466 1.363 . S
C1464 H1480 0.931 . S
C1465 C1464 1.370 . S
C1465 C1469 1.408 . S
C1466 C1464 1.363 . S
C1466 C1467 1.370 . S
C1466 C1470 1.524 . S
C1467 C1459 1.503 1_565 S
C1467 C1466 1.370 . S
C1467 C1468 1.403 1_565 S
C1468 C1467 1.403 1_545 S
C1468 C1469 1.404 1_545 S
C1468 C1471 1.539 . S
C1469 C1465 1.408 . S
C1469 C1468 1.404 1_565 S
C1469 H1481 0.930 1_565 S
C1470 C1466 1.524 . S
C1470 H1482 0.956 . S
C1470 H1483 0.961 . S
C1470 H1484 0.961 . S
C1471 C1468 1.539 . S
C1471 H1485 0.958 . S
C1471 H1486 0.961 . S
C1471 H1487 0.960 . S
H1472 C1456 0.931 . S
H1473 C1461 0.929 . S
H1474 C1462 0.960 . S
H1475 C1462 0.962 1_565 S
H1476 C1462 0.960 . S
H1477 C1463 0.961 . S
H1478 C1463 0.961 1_565 S
H1479 C1463 0.961 . S
H1480 C1464 0.931 . S
H1481 C1469 0.930 1_545 S
H1482 C1470 0.956 . S
H1483 C1470 0.961 . S
H1484 C1470 0.961 . S
H1485 C1471 0.958 . S
H1486 C1471 0.961 . S
H1487 C1471 0.960 . S
C1488 C1489 1.391 . S
C1488 C1490 1.394 . S
C1488 H1504 0.931 . S
C1489 C1488 1.391 . S
C1489 C1493 1.376 . S
C1490 C1488 1.394 . S
C1490 C1491 1.369 . S
C1490 C1494 1.531 . S
C1491 C1490 1.369 . S
C1491 C1492 1.410 . S
C1491 C1499 1.503 1_655 S
C1492 C1491 1.410 . S
C1492 C1493 1.392 . S
C1492 C1495 1.511 1_655 S
C1493 C1489 1.376 . S
C1493 C1492 1.392 . S
C1493 H1505 0.929 . S
C1494 C1490 1.531 . S
C1494 H1506 0.960 . S
C1494 H1507 0.962 . S
C1494 H1508 0.960 . S
C1495 C1492 1.511 1_455 S
C1495 H1509 0.961 . S
C1495 H1510 0.961 . S
C1495 H1511 0.961 . S
C1496 C1497 1.370 . S
C1496 C1498 1.363 . S
C1496 H1512 0.931 . S
C1497 C1496 1.370 . S
C1497 C1501 1.408 . S
C1498 C1496 1.363 . S
C1498 C1499 1.370 . S
C1498 C1502 1.524 1_455 S
C1499 C1491 1.503 1_455 S
C1499 C1498 1.370 . S
C1499 C1500 1.403 . S
C1500 C1499 1.403 . S
C1500 C1501 1.404 . S
C1500 C1503 1.539 . S
C1501 C1497 1.408 . S
C1501 C1500 1.404 . S
C1501 H1513 0.930 . S
C1502 C1498 1.524 1_655 S
C1502 H1514 0.956 . S
C1502 H1515 0.961 . S
C1502 H1516 0.961 . S
C1503 C1500 1.539 . S
C1503 H1517 0.958 . S
C1503 H1518 0.961 . S
C1503 H1519 0.960 . S
H1504 C1488 0.931 . S
H1505 C1493 0.929 . S
H1506 C1494 0.960 . S
H1507 C1494 0.962 . S
H1508 C1494 0.960 . S
H1509 C1495 0.961 . S
H1510 C1495 0.961 . S
H1511 C1495 0.961 . S
H1512 C1496 0.931 . S
H1513 C1501 0.930 . S
H1514 C1502 0.956 . S
H1515 C1502 0.961 . S
H1516 C1502 0.961 . S
H1517 C1503 0.958 . S
H1518 C1503 0.961 . S
H1519 C1503 0.960 . S
C1520 C1521 1.391 . S
C1520 C1522 1.402 . S
C1520 H1536 0.931 . S
C1521 C1520 1.391 . S
C1521 C1525 1.376 . S
C1522 C1520 1.402 . S
C1522 C1523 1.371 . S
C1522 C1526 1.519 1_554 S
C1523 C1522 1.371 . S
C1523 C1524 1.410 . S
C1523 C1531 1.503 1_554 S
C1524 C1523 1.410 . S
C1524 C1525 1.392 . S
C1524 C1527 1.511 . S
C1525 C1521 1.376 . S
C1525 C1524 1.392 . S
C1525 H1537 0.929 . S
C1526 C1522 1.519 1_556 S
C1526 H1538 0.960 . S
C1526 H1539 0.962 . S
C1526 H1540 0.960 . S
C1527 C1524 1.511 . S
C1527 H1541 0.961 . S
C1527 H1542 0.961 . S
C1527 H1543 0.961 . S
C1528 C1529 1.370 . S
C1528 C1530 1.363 . S
C1528 H1544 0.931 . S
C1529 C1528 1.370 . S
C1529 C1533 1.408 . S
C1530 C1528 1.363 . S
C1530 C1531 1.370 . S
C1530 C1534 1.524 1_556 S
C1531 C1523 1.503 1_556 S
C1531 C1530 1.370 . S
C1531 C1532 1.403 . S
C1532 C1531 1.403 . S
C1532 C1533 1.404 . S
C1532 C1535 1.539 . S
C1533 C1529 1.408 . S
C1533 C1532 1.404 . S
C1533 H1545 0.930 . S
C1534 C1530 1.524 1_554 S
C1534 H1546 0.956 . S
C1534 H1547 0.961 . S
C1534 H1548 0.961 . S
C1535 C1532 1.539 . S
C1535 H1549 0.958 . S
C1535 H1550 0.961 . S
C1535 H1551 0.960 . S
H1536 C1520 0.931 . S
H1537 C1525 0.929 . S
H1538 C1526 0.960 . S
H1539 C1526 0.962 . S
H1540 C1526 0.960 . S
H1541 C1527 0.961 . S
H1542 C1527 0.961 . S
H1543 C1527 0.961 . S
H1544 C1528 0.931 . S
H1545 C1533 0.930 . S
H1546 C1534 0.956 . S
H1547 C1534 0.961 . S
H1548 C1534 0.961 . S
H1549 C1535 0.958 . S
H1550 C1535 0.961 . S
H1551 C1535 0.960 . S
C1552 C1553 1.391 . S
C1552 C1554 1.394 . S
C1552 H1568 0.931 . S
C1553 C1552 1.391 . S
C1553 C1557 1.376 . S
C1554 C1552 1.394 . S
C1554 C1555 1.369 . S
C1554 C1558 1.531 1_556 S
C1555 C1554 1.369 . S
C1555 C1556 1.410 . S
C1555 C1563 1.503 1_456 S
C1556 C1555 1.410 . S
C1556 C1557 1.392 . S
C1556 C1559 1.511 1_455 S
C1557 C1553 1.376 . S
C1557 C1556 1.392 . S
C1557 H1569 0.929 . S
C1558 C1554 1.531 1_554 S
C1558 H1570 0.960 . S
C1558 H1571 0.962 1_554 S
C1558 H1572 0.960 . S
C1559 C1556 1.511 1_655 S
C1559 H1573 0.961 . S
C1559 H1574 0.961 . S
C1559 H1575 0.961 1_556 S
C1560 C1561 1.370 . S
C1560 C1562 1.363 1_554 S
C1560 H1576 0.931 . S
C1561 C1560 1.370 . S
C1561 C1565 1.408 . S
C1562 C1560 1.363 1_556 S
C1562 C1563 1.370 1_556 S
C1562 C1566 1.524 . S
C1563 C1555 1.503 1_654 S
C1563 C1562 1.370 1_554 S
C1563 C1564 1.403 . S
C1564 C1563 1.403 . S
C1564 C1565 1.404 . S
C1564 C1567 1.539 1_655 S
C1565 C1561 1.408 . S
C1565 C1564 1.404 . S
C1565 H1577 0.930 . S
C1566 C1562 1.524 . S
C1566 H1578 0.956 . S
C1566 H1579 0.961 . S
C1566 H1580 0.961 . S
C1567 C1564 1.539 1_455 S
C1567 H1581 0.958 . S
C1567 H1582 0.961 1_455 S
C1567 H1583 0.960 . S
H1568 C1552 0.931 . S
H1569 C1557 0.929 . S
H1570 C1558 0.960 . S
H1571 C1558 0.962 1_556 S
H1572 C1558 0.960 . S
H1573 C1559 0.961 . S
H1574 C1559 0.961 . S
H1575 C1559 0.961 1_554 S
H1576 C1560 0.931 . S
H1577 C1565 0.930 . S
H1578 C1566 0.956 . S
H1579 C1566 0.961 . S
H1580 C1566 0.961 . S
H1581 C1567 0.958 . S
H1582 C1567 0.961 1_655 S
H1583 C1567 0.960 . S
C1584 C1585 1.391 . S
C1584 C1586 1.394 . S
C1584 H1600 0.931 . S
C1585 C1584 1.391 . S
C1585 C1589 1.376 . S
C1586 C1584 1.394 . S
C1586 C1587 1.369 . S
C1586 C1590 1.531 . S
C1587 C1586 1.369 . S
C1587 C1588 1.410 . S
C1587 C1595 1.503 . S
C1588 C1587 1.410 . S
C1588 C1589 1.392 . S
C1588 C1591 1.511 . S
C1589 C1585 1.376 . S
C1589 C1588 1.392 . S
C1589 H1601 0.929 . S
C1590 C1586 1.531 . S
C1590 H1602 0.960 . S
C1590 H1603 0.962 . S
C1590 H1604 0.960 . S
C1591 C1588 1.511 . S
C1591 H1605 0.961 . S
C1591 H1606 0.961 . S
C1591 H1607 0.961 . S
C1592 C1593 1.370 . S
C1592 C1594 1.363 . S
C1592 H1608 0.931 . S
C1593 C1592 1.370 . S
C1593 C1597 1.408 . S
C1594 C1592 1.363 . S
C1594 C1595 1.370 . S
C1594 C1598 1.524 . S
C1595 C1587 1.503 . S
C1595 C1594 1.370 . S
C1595 C1596 1.403 . S
C1596 C1595 1.403 . S
C1596 C1597 1.404 . S
C1596 C1599 1.539 . S
C1597 C1593 1.408 . S
C1597 C1596 1.404 . S
C1597 H1609 0.930 . S
C1598 C1594 1.524 . S
C1598 H1610 0.956 . S
C1598 H1611 0.961 . S
C1598 H1612 0.961 . S
C1599 C1596 1.539 . S
C1599 H1613 0.958 . S
C1599 H1614 0.961 . S
C1599 H1615 0.960 . S
H1600 C1584 0.931 . S
H1601 C1589 0.929 . S
H1602 C1590 0.960 . S
H1603 C1590 0.962 . S
H1604 C1590 0.960 . S
H1605 C1591 0.961 . S
H1606 C1591 0.961 . S
H1607 C1591 0.961 . S
H1608 C1592 0.931 . S
H1609 C1597 0.930 . S
H1610 C1598 0.956 . S
H1611 C1598 0.961 . S
H1612 C1598 0.961 . S
H1613 C1599 0.958 . S
H1614 C1599 0.961 . S
H1615 C1599 0.960 . S
C1616 C1617 1.391 . S
C1616 C1618 1.394 . S
C1616 H1632 0.931 . S
C1617 C1616 1.391 . S
C1617 C1621 1.376 . S
C1618 C1616 1.394 . S
C1618 C1619 1.369 . S
C1618 C1622 1.531 . S
C1619 C1618 1.369 . S
C1619 C1620 1.400 1_554 S
C1619 C1627 1.503 1_554 S
C1620 C1619 1.400 1_556 S
C1620 C1621 1.380 1_556 S
C1620 C1623 1.532 . S
C1621 C1617 1.376 . S
C1621 C1620 1.380 1_554 S
C1621 H1633 0.929 . S
C1622 C1618 1.531 . S
C1622 H1634 0.960 . S
C1622 H1635 0.962 . S
C1622 H1636 0.960 . S
C1623 C1620 1.532 . S
C1623 H1637 0.961 . S
C1623 H1638 0.961 . S
C1623 H1639 0.961 . S
C1624 C1625 1.370 . S
C1624 C1626 1.363 . S
C1624 H1640 0.931 . S
C1625 C1624 1.370 . S
C1625 C1629 1.408 . S
C1626 C1624 1.363 . S
C1626 C1627 1.370 . S
C1626 C1630 1.524 . S
C1627 C1619 1.503 1_556 S
C1627 C1626 1.370 . S
C1627 C1628 1.403 . S
C1628 C1627 1.403 . S
C1628 C1629 1.404 . S
C1628 C1631 1.539 1_556 S
C1629 C1625 1.408 . S
C1629 C1628 1.404 . S
C1629 H1641 0.930 . S
C1630 C1626 1.524 . S
C1630 H1642 0.954 1_556 S
C1630 H1643 0.961 . S
C1630 H1644 0.961 . S
C1631 C1628 1.539 1_554 S
C1631 H1645 0.958 . S
C1631 H1646 0.961 1_554 S
C1631 H1647 0.960 . S
H1632 C1616 0.931 . S
H1633 C1621 0.929 . S
H1634 C1622 0.960 . S
H1635 C1622 0.962 . S
H1636 C1622 0.960 . S
H1637 C1623 0.961 . S
H1638 C1623 0.961 . S
H1639 C1623 0.961 . S
H1640 C1624 0.931 . S
H1641 C1629 0.930 . S
H1642 C1630 0.954 1_554 S
H1643 C1630 0.961 . S
H1644 C1630 0.961 . S
H1645 C1631 0.958 . S
H1646 C1631 0.961 1_556 S
H1647 C1631 0.960 . S
C1648 C1649 1.391 . S
C1648 C1650 1.394 . S
C1648 H1664 0.931 . S
C1649 C1648 1.391 . S
C1649 C1653 1.376 . S
C1650 C1648 1.394 . S
C1650 C1651 1.369 . S
C1650 C1654 1.531 . S
C1651 C1650 1.369 . S
C1651 C1652 1.410 . S
C1651 C1659 1.503 . S
C1652 C1651 1.410 . S
C1652 C1653 1.392 . S
C1652 C1655 1.511 . S
C1653 C1649 1.376 . S
C1653 C1652 1.392 . S
C1653 H1665 0.929 . S
C1654 C1650 1.531 . S
C1654 H1666 0.960 . S
C1654 H1667 0.962 . S
C1654 H1668 0.960 . S
C1655 C1652 1.511 . S
C1655 H1669 0.961 . S
C1655 H1670 0.961 . S
C1655 H1671 0.961 . S
C1656 C1657 1.370 . S
C1656 C1658 1.363 . S
C1656 H1672 0.931 . S
C1657 C1656 1.370 . S
C1657 C1661 1.408 . S
C1658 C1656 1.363 . S
C1658 C1659 1.370 . S
C1658 C1662 1.524 . S
C1659 C1651 1.503 . S
C1659 C1658 1.370 . S
C1659 C1660 1.403 . S
C1660 C1659 1.403 . S
C1660 C1661 1.404 . S
C1660 C1663 1.539 . S
C1661 C1657 1.408 . S
C1661 C1660 1.404 . S
C1661 H1673 0.930 . S
C1662 C1658 1.524 . S
C1662 H1674 0.956 . S
C1662 H1675 0.961 . S
C1662 H1676 0.961 . S
C1663 C1660 1.539 . S
C1663 H1677 0.958 . S
C1663 H1678 0.961 . S
C1663 H1679 0.960 . S
H1664 C1648 0.931 . S
H1665 C1653 0.929 . S
H1666 C1654 0.960 . S
H1667 C1654 0.962 . S
H1668 C1654 0.960 . S
H1669 C1655 0.961 . S
H1670 C1655 0.961 . S
H1671 C1655 0.961 . S
H1672 C1656 0.931 . S
H1673 C1661 0.930 . S
H1674 C1662 0.956 . S
H1675 C1662 0.961 . S
H1676 C1662 0.961 . S
H1677 C1663 0.958 . S
H1678 C1663 0.961 . S
H1679 C1663 0.960 . S
C1680 C1681 1.391 . S
C1680 C1682 1.394 . S
C1680 H1696 0.931 . S
C1681 C1680 1.391 . S
C1681 C1685 1.376 . S
C1682 C1680 1.394 . S
C1682 C1683 1.369 . S
C1682 C1686 1.531 . S
C1683 C1682 1.369 . S
C1683 C1684 1.410 . S
C1683 C1691 1.503 1_564 S
C1684 C1683 1.410 . S
C1684 C1685 1.392 . S
C1684 C1687 1.511 1_564 S
C1685 C1681 1.376 . S
C1685 C1684 1.392 . S
C1685 H1697 0.929 . S
C1686 C1682 1.531 . S
C1686 H1698 0.960 . S
C1686 H1699 0.962 . S
C1686 H1700 0.960 . S
C1687 C1684 1.511 1_546 S
C1687 H1701 0.961 . S
C1687 H1702 0.961 . S
C1687 H1703 0.961 . S
C1688 C1689 1.370 . S
C1688 C1690 1.358 1_556 S
C1688 H1704 0.931 . S
C1689 C1688 1.370 . S
C1689 C1693 1.408 . S
C1690 C1688 1.358 1_554 S
C1690 C1691 1.367 1_554 S
C1690 C1694 1.533 . S
C1691 C1683 1.503 1_546 S
C1691 C1690 1.367 1_556 S
C1691 C1692 1.403 1_545 S
C1692 C1691 1.403 1_565 S
C1692 C1693 1.404 1_565 S
C1692 C1695 1.539 . S
C1693 C1689 1.408 . S
C1693 C1692 1.404 1_545 S
C1693 H1705 0.930 . S
C1694 C1690 1.533 . S
C1694 H1706 0.956 . S
C1694 H1707 0.961 . S
C1694 H1708 0.961 . S
C1695 C1692 1.539 . S
C1695 H1709 0.958 . S
C1695 H1710 0.961 . S
C1695 H1711 0.960 . S
H1696 C1680 0.931 . S
H1697 C1685 0.929 . S
H1698 C1686 0.960 . S
H1699 C1686 0.962 . S
H1700 C1686 0.960 . S
H1701 C1687 0.961 . S
H1702 C1687 0.961 . S
H1703 C1687 0.961 . S
H1704 C1688 0.931 . S
H1705 C1693 0.930 . S
H1706 C1694 0.956 . S
H1707 C1694 0.961 . S
H1708 C1694 0.961 . S
H1709 C1695 0.958 . S
H1710 C1695 0.961 . S
H1711 C1695 0.960 . S
C1712 C1713 1.391 . S
C1712 C1714 1.394 . S
C1712 H1728 0.931 . S
C1713 C1712 1.391 . S
C1713 C1717 1.376 . S
C1714 C1712 1.394 . S
C1714 C1715 1.369 . S
C1714 C1718 1.531 . S
C1715 C1714 1.369 . S
C1715 C1716 1.410 . S
C1715 C1723 1.503 . S
C1716 C1715 1.410 . S
C1716 C1717 1.392 . S
C1716 C1719 1.511 . S
C1717 C1713 1.376 . S
C1717 C1716 1.392 . S
C1717 H1729 0.929 . S
C1718 C1714 1.531 . S
C1718 H1730 0.960 . S
C1718 H1731 0.962 . S
C1718 H1732 0.960 . S
C1719 C1716 1.511 . S
C1719 H1733 0.961 . S
C1719 H1734 0.961 . S
C1719 H1735 0.961 . S
C1720 C1721 1.370 . S
C1720 C1722 1.363 . S
C1720 H1736 0.931 . S
C1721 C1720 1.370 . S
C1721 C1725 1.408 . S
C1722 C1720 1.363 . S
C1722 C1723 1.370 . S
C1722 C1726 1.524 . S
C1723 C1715 1.503 . S
C1723 C1722 1.370 . S
C1723 C1724 1.403 . S
C1724 C1723 1.403 . S
C1724 C1725 1.404 . S
C1724 C1727 1.539 . S
C1725 C1721 1.408 . S
C1725 C1724 1.404 . S
C1725 H1737 0.930 . S
C1726 C1722 1.524 . S
C1726 H1738 0.956 . S
C1726 H1739 0.961 . S
C1726 H1740 0.961 . S
C1727 C1724 1.539 . S
C1727 H1741 0.958 . S
C1727 H1742 0.961 . S
C1727 H1743 0.960 . S
H1728 C1712 0.931 . S
H1729 C1717 0.929 . S
H1730 C1718 0.960 . S
H1731 C1718 0.962 . S
H1732 C1718 0.960 . S
H1733 C1719 0.961 . S
H1734 C1719 0.961 . S
H1735 C1719 0.961 . S
H1736 C1720 0.931 . S
H1737 C1725 0.930 . S
H1738 C1726 0.956 . S
H1739 C1726 0.961 . S
H1740 C1726 0.961 . S
H1741 C1727 0.958 . S
H1742 C1727 0.961 . S
H1743 C1727 0.960 . S
C1744 C1745 1.391 . S
C1744 C1746 1.394 . S
C1744 H1760 0.931 . S
C1745 C1744 1.391 . S
C1745 C1749 1.376 . S
C1746 C1744 1.394 . S
C1746 C1747 1.369 . S
C1746 C1750 1.531 . S
C1747 C1746 1.369 . S
C1747 C1748 1.410 . S
C1747 C1755 1.503 . S
C1748 C1747 1.410 . S
C1748 C1749 1.392 . S
C1748 C1751 1.511 . S
C1749 C1745 1.376 . S
C1749 C1748 1.392 . S
C1749 H1761 0.929 . S
C1750 C1746 1.531 . S
C1750 H1762 0.960 . S
C1750 H1763 0.962 . S
C1750 H1764 0.960 . S
C1751 C1748 1.511 . S
C1751 H1765 0.961 . S
C1751 H1766 0.961 . S
C1751 H1767 0.961 . S
C1752 C1753 1.370 . S
C1752 C1754 1.363 . S
C1752 H1768 0.931 . S
C1753 C1752 1.370 . S
C1753 C1757 1.408 . S
C1754 C1752 1.363 . S
C1754 C1755 1.370 . S
C1754 C1758 1.524 . S
C1755 C1747 1.503 . S
C1755 C1754 1.370 . S
C1755 C1756 1.403 . S
C1756 C1755 1.403 . S
C1756 C1757 1.404 . S
C1756 C1759 1.539 . S
C1757 C1753 1.408 . S
C1757 C1756 1.404 . S
C1757 H1769 0.930 . S
C1758 C1754 1.524 . S
C1758 H1770 0.956 . S
C1758 H1771 0.961 . S
C1758 H1772 0.961 . S
C1759 C1756 1.539 . S
C1759 H1773 0.958 . S
C1759 H1774 0.961 . S
C1759 H1775 0.960 . S
H1760 C1744 0.931 . S
H1761 C1749 0.929 . S
H1762 C1750 0.960 . S
H1763 C1750 0.962 . S
H1764 C1750 0.960 . S
H1765 C1751 0.961 . S
H1766 C1751 0.961 . S
H1767 C1751 0.961 . S
H1768 C1752 0.931 . S
H1769 C1757 0.930 . S
H1770 C1758 0.956 . S
H1771 C1758 0.961 . S
H1772 C1758 0.961 . S
H1773 C1759 0.958 . S
H1774 C1759 0.961 . S
H1775 C1759 0.960 . S
C1776 C1777 1.391 . S
C1776 C1778 1.394 . S
C1776 H1792 0.931 . S
C1777 C1776 1.391 . S
C1777 C1781 1.376 . S
C1778 C1776 1.394 . S
C1778 C1779 1.369 . S
C1778 C1782 1.531 . S
C1779 C1778 1.369 . S
C1779 C1780 1.410 . S
C1779 C1787 1.503 . S
C1780 C1779 1.410 . S
C1780 C1781 1.392 . S
C1780 C1783 1.511 . S
C1781 C1777 1.376 . S
C1781 C1780 1.392 . S
C1781 H1793 0.929 . S
C1782 C1778 1.531 . S
C1782 H1794 0.960 . S
C1782 H1795 0.962 . S
C1782 H1796 0.960 . S
C1783 C1780 1.511 . S
C1783 H1797 0.961 . S
C1783 H1798 0.961 . S
C1783 H1799 0.961 . S
C1784 C1785 1.370 . S
C1784 C1786 1.363 . S
C1784 H1800 0.931 . S
C1785 C1784 1.370 . S
C1785 C1789 1.408 . S
C1786 C1784 1.363 . S
C1786 C1787 1.370 . S
C1786 C1790 1.524 . S
C1787 C1779 1.503 . S
C1787 C1786 1.370 . S
C1787 C1788 1.403 . S
C1788 C1787 1.403 . S
C1788 C1789 1.404 . S
C1788 C1791 1.539 . S
C1789 C1785 1.408 . S
C1789 C1788 1.404 . S
C1789 H1801 0.930 . S
C1790 C1786 1.524 . S
C1790 H1802 0.956 . S
C1790 H1803 0.961 . S
C1790 H1804 0.961 . S
C1791 C1788 1.539 . S
C1791 H1805 0.958 . S
C1791 H1806 0.961 . S
C1791 H1807 0.960 . S
H1792 C1776 0.931 . S
H1793 C1781 0.929 . S
H1794 C1782 0.960 . S
H1795 C1782 0.962 . S
H1796 C1782 0.960 . S
H1797 C1783 0.961 . S
H1798 C1783 0.961 . S
H1799 C1783 0.961 . S
H1800 C1784 0.931 . S
H1801 C1789 0.930 . S
H1802 C1790 0.956 . S
H1803 C1790 0.961 . S
H1804 C1790 0.961 . S
H1805 C1791 0.958 . S
H1806 C1791 0.961 . S
H1807 C1791 0.960 . S
C529 N2 0.816 . S
C537 N299 0.790 . S
C561 N13 0.738 1_655 S
C569 N310 0.730 . S
C593 N277 0.693 . S
C601 N46 0.726 . S
C625 N35 0.744 1_655 S
C633 N266 0.781 . S
C657 N68 0.817 . S
C665 N365 0.797 . S
C689 N79 0.704 1_455 S
C697 N376 0.743 . S
C721 N112 0.706 . S
C729 N343 0.714 . S
C753 N101 0.789 1_455 S
C761 N332 0.786 . S
C785 N134 0.817 . S
C793 N431 0.792 . S
C817 N442 0.691 . S
C825 N145 0.707 1_655 S
C849 N409 0.765 . S
C857 N178 0.726 . S
C881 N398 0.763 . S
C889 N167 0.763 1_655 S
C913 N497 0.766 . S
C921 N200 0.788 . S
C945 N508 0.704 . S
C953 N211 0.712 1_455 S
C977 N475 0.710 . S
C985 N244 0.740 . S
C1009 N233 0.801 1_455 S
C1017 N464 0.796 . S
C1041 C21 1.106 . S
C1049 C54 1.108 1_554 S
C1073 C120 1.103 1_556 S
C1081 C87 1.106 . S
C1105 C186 1.106 . S
C1113 C153 1.108 . S
C1137 C252 1.104 . S
C1145 C219 1.107 . S
C1169 C318 1.106 . S
C1177 C285 1.108 . S
C1201 C351 1.105 . S
C1209 C384 1.107 . S
C1233 C450 1.106 1_554 S
C1241 C417 1.108 . S
C1265 C483 1.103 . S
C1273 C516 1.107 1_556 S
C1297 C469 1.800 . S
C1305 C7 1.832 . S
C1329 C84 1.874 . S
C1337 C18 1.848 . S
C1361 C381 1.872 . S
C1369 C51 1.849 . S
C1393 C238 1.813 . S
C1401 C40 1.824 . S
C1425 C73 1.844 . S
C1433 C403 1.813 . S
C1457 C315 1.832 . S
C1465 C117 1.866 . S
C1489 C106 1.808 . S
C1497 C172 1.830 . S
C1521 C337 1.838 . S
C1529 C139 1.814 . S
C1553 C150 1.848 . S
C1561 C216 1.860 . S
C1585 C183 1.873 . S
C1593 C513 1.848 . S
C1617 C205 1.794 . S
C1625 C271 1.834 . S
C1649 C249 1.863 . S
C1657 C447 1.851 . S
C1681 C348 1.844 . S
C1689 C282 1.859 . S
C1713 C502 1.832 . S
C1721 C304 1.816 . S
C1745 C370 1.843 . S
C1753 C436 1.814 . S
C1777 C414 1.874 . S
C1785 C480 1.848 . S
