# Generated by pormake.
# Topology ukb, (4)-cn, num edge types: 1
# Building blocks:
#     Node 0, Type 0, BuildingBlock: CEKHIL_clean_sbu_0, # of connection points: 4
#     Node 1, Type 0, BuildingBlock: CEKHIL_clean_sbu_0, # of connection points: 4
#     Node 2, Type 0, BuildingBlock: CEKHIL_clean_sbu_0, # of connection points: 4
#     Node 3, Type 0, BuildingBlock: CEKHIL_clean_sbu_0, # of connection points: 4
#     Node 4, Type 0, BuildingBlock: CEKHIL_clean_sbu_0, # of connection points: 4
#     Node 5, Type 0, BuildingBlock: CEKHIL_clean_sbu_0, # of connection points: 4
#     Node 6, Type 0, BuildingBlock: CEKHIL_clean_sbu_0, # of connection points: 4
#     Node 7, Type 0, BuildingBlock: CEKHIL_clean_sbu_0, # of connection points: 4
#     Node 8, Type 0, BuildingBlock: CEKHIL_clean_sbu_0, # of connection points: 4
#     Node 9, Type 0, BuildingBlock: CEKHIL_clean_sbu_0, # of connection points: 4
#     Node 10, Type 0, BuildingBlock: CEKHIL_clean_sbu_0, # of connection points: 4
#     Node 11, Type 0, BuildingBlock: CEKHIL_clean_sbu_0, # of connection points: 4
#     Node 12, Type 0, BuildingBlock: CEKHIL_clean_sbu_0, # of connection points: 4
#     Node 13, Type 0, BuildingBlock: CEKHIL_clean_sbu_0, # of connection points: 4
#     Node 14, Type 0, BuildingBlock: CEKHIL_clean_sbu_0, # of connection points: 4
#     Node 15, Type 0, BuildingBlock: CEKHIL_clean_sbu_0, # of connection points: 4
#     Edge 16, Type (0, 0), BuildingBlock: KIFKEQ_clean_linker_1, # of connection points: 2
#     Edge 17, Type (0, 0), BuildingBlock: KIFKEQ_clean_linker_1, # of connection points: 2
#     Edge 18, Type (0, 0), BuildingBlock: KIFKEQ_clean_linker_1, # of connection points: 2
#     Edge 19, Type (0, 0), BuildingBlock: KIFKEQ_clean_linker_1, # of connection points: 2
#     Edge 20, Type (0, 0), BuildingBlock: KIFKEQ_clean_linker_1, # of connection points: 2
#     Edge 21, Type (0, 0), BuildingBlock: KIFKEQ_clean_linker_1, # of connection points: 2
#     Edge 22, Type (0, 0), BuildingBlock: KIFKEQ_clean_linker_1, # of connection points: 2
#     Edge 23, Type (0, 0), BuildingBlock: KIFKEQ_clean_linker_1, # of connection points: 2
#     Edge 24, Type (0, 0), BuildingBlock: KIFKEQ_clean_linker_1, # of connection points: 2
#     Edge 25, Type (0, 0), BuildingBlock: KIFKEQ_clean_linker_1, # of connection points: 2
#     Edge 26, Type (0, 0), BuildingBlock: KIFKEQ_clean_linker_1, # of connection points: 2
#     Edge 27, Type (0, 0), BuildingBlock: KIFKEQ_clean_linker_1, # of connection points: 2
#     Edge 28, Type (0, 0), BuildingBlock: KIFKEQ_clean_linker_1, # of connection points: 2
#     Edge 29, Type (0, 0), BuildingBlock: KIFKEQ_clean_linker_1, # of connection points: 2
#     Edge 30, Type (0, 0), BuildingBlock: KIFKEQ_clean_linker_1, # of connection points: 2
#     Edge 31, Type (0, 0), BuildingBlock: KIFKEQ_clean_linker_1, # of connection points: 2
#     Edge 32, Type (0, 0), BuildingBlock: KIFKEQ_clean_linker_1, # of connection points: 2
#     Edge 33, Type (0, 0), BuildingBlock: KIFKEQ_clean_linker_1, # of connection points: 2
#     Edge 34, Type (0, 0), BuildingBlock: KIFKEQ_clean_linker_1, # of connection points: 2
#     Edge 35, Type (0, 0), BuildingBlock: KIFKEQ_clean_linker_1, # of connection points: 2
#     Edge 36, Type (0, 0), BuildingBlock: KIFKEQ_clean_linker_1, # of connection points: 2
#     Edge 37, Type (0, 0), BuildingBlock: KIFKEQ_clean_linker_1, # of connection points: 2
#     Edge 38, Type (0, 0), BuildingBlock: KIFKEQ_clean_linker_1, # of connection points: 2
#     Edge 39, Type (0, 0), BuildingBlock: KIFKEQ_clean_linker_1, # of connection points: 2
#     Edge 40, Type (0, 0), BuildingBlock: KIFKEQ_clean_linker_1, # of connection points: 2
#     Edge 41, Type (0, 0), BuildingBlock: KIFKEQ_clean_linker_1, # of connection points: 2
#     Edge 42, Type (0, 0), BuildingBlock: KIFKEQ_clean_linker_1, # of connection points: 2
#     Edge 43, Type (0, 0), BuildingBlock: KIFKEQ_clean_linker_1, # of connection points: 2
#     Edge 44, Type (0, 0), BuildingBlock: KIFKEQ_clean_linker_1, # of connection points: 2
#     Edge 45, Type (0, 0), BuildingBlock: KIFKEQ_clean_linker_1, # of connection points: 2
#     Edge 46, Type (0, 0), BuildingBlock: KIFKEQ_clean_linker_1, # of connection points: 2
#     Edge 47, Type (0, 0), BuildingBlock: KIFKEQ_clean_linker_1, # of connection points: 2
# Relax obj value: 0.092
# Max RMSD: 0.049
# Mean RMSD: 0.049
data_MOF--net-ukb--node1-CEKHIL_clean_sbu_0--edge1-KIFKEQ_clean_linker_1
_symmetry_space_group_name_H-M    P1
_symmetry_Int_Tables_number       1
_symmetry_cell_setting            triclinic
loop_
_symmetry_equiv_pos_as_xyz
'x, y, z'
_cell_length_a     44.347622
_cell_length_b     44.349172
_cell_length_c     38.067715
_cell_angle_alpha  90.008659
_cell_angle_beta   89.997851
_cell_angle_gamma 89.990422
loop_
_atom_site_label
_atom_site_type_symbol
_atom_site_fract_x
_atom_site_fract_y
_atom_site_fract_z
_atom_type_partial_charge
Co0 Co 0.53654 0.17648 0.16546 0.0
O1 O 0.5141 0.13957 0.16035 0.0
O2 O 0.51354 0.16887 0.2075 0.0
C3 C 0.52472 0.1954 0.11236 0.0
O4 O 0.55521 0.21633 0.18038 0.0
Co5 Co 0.58985 0.19351 0.11693 0.0
O6 O 0.58552 0.23432 0.13806 0.0
C7 C 0.59899 0.14894 0.17395 0.0
C8 C 0.5038 0.14477 0.19171 0.0
C9 C 0.57161 0.23735 0.16712 0.0
O10 O 0.57206 0.15378 0.18527 0.0
O11 O 0.60942 0.16094 0.14583 0.0
O12 O 0.50611 0.19834 0.13852 0.0
O13 O 0.54854 0.17947 0.11836 0.0
Co14 Co 0.32581 0.53713 0.66686 0.0
O15 O 0.3629 0.51507 0.66218 0.0
O16 O 0.33302 0.51382 0.70883 0.0
C17 C 0.30739 0.52565 0.61351 0.0
O18 O 0.28544 0.55539 0.68075 0.0
Co19 Co 0.31057 0.59103 0.6183 0.0
O20 O 0.26976 0.58805 0.63956 0.0
C21 C 0.35403 0.59931 0.67629 0.0
C22 C 0.35741 0.50443 0.6933 0.0
C23 C 0.26531 0.573 0.66761 0.0
O24 O 0.34809 0.5726 0.68756 0.0
O25 O 0.34318 0.60989 0.64764 0.0
O26 O 0.30449 0.50676 0.63938 0.0
O27 O 0.32345 0.54933 0.61982 0.0
Co28 Co 0.96859 0.32418 0.16795 0.0
O29 O 0.99022 0.36149 0.163 0.0
O30 O 0.99384 0.33058 0.20856 0.0
C31 C 0.97717 0.30684 0.11323 0.0
O32 O 0.95087 0.28357 0.18171 0.0
Co33 Co 0.912 0.31097 0.12232 0.0
O34 O 0.91498 0.26994 0.14316 0.0
C35 C 0.90793 0.35408 0.18087 0.0
C36 C 0.0022 0.35547 0.19332 0.0
C37 C 0.9317 0.26439 0.16965 0.0
O38 O 0.93412 0.34579 0.19174 0.0
O39 O 0.89645 0.34527 0.15177 0.0
O40 O 0.9976 0.3037 0.13745 0.0
O41 O 0.95398 0.32275 0.12197 0.0
Co42 Co 0.17731 0.96519 0.66841 0.0
O43 O 0.13994 0.98677 0.66367 0.0
O44 O 0.16958 0.98829 0.71048 0.0
C45 C 0.19572 0.97693 0.61505 0.0
O46 O 0.21786 0.94728 0.68238 0.0
Co47 Co 0.19313 0.91152 0.61958 0.0
O48 O 0.2338 0.91474 0.64115 0.0
C49 C 0.14946 0.90279 0.67724 0.0
C50 C 0.14505 0.99728 0.69493 0.0
C51 C 0.2381 0.92976 0.66926 0.0
O52 O 0.15535 0.92942 0.68885 0.0
O53 O 0.16037 0.89246 0.6485 0.0
O54 O 0.19834 0.99586 0.64094 0.0
O55 O 0.17993 0.95309 0.6214 0.0
Co56 Co 0.53335 0.3233 0.82904 0.0
O57 O 0.51139 0.36035 0.83471 0.0
O58 O 0.50945 0.33101 0.78762 0.0
C59 C 0.52269 0.30454 0.88253 0.0
O60 O 0.55169 0.28334 0.81407 0.0
Co61 Co 0.58795 0.3076 0.87648 0.0
O62 O 0.58384 0.2667 0.85538 0.0
C63 C 0.59492 0.3522 0.81953 0.0
C64 C 0.50042 0.3553 0.80364 0.0
C65 C 0.569 0.26292 0.82705 0.0
O66 O 0.5685 0.34562 0.80791 0.0
O67 O 0.60572 0.34166 0.84823 0.0
O68 O 0.50344 0.30167 0.85701 0.0
O69 O 0.54628 0.32055 0.87576 0.0
Co70 Co 0.17525 0.53677 0.33357 0.0
O71 O 0.13841 0.51421 0.33775 0.0
O72 O 0.16845 0.51384 0.29121 0.0
C73 C 0.19364 0.52497 0.38683 0.0
O74 O 0.21543 0.55562 0.32008 0.0
Co75 Co 0.18988 0.59029 0.38301 0.0
O76 O 0.23078 0.58788 0.36187 0.0
C77 C 0.14641 0.59875 0.32503 0.0
C78 C 0.14413 0.50399 0.30648 0.0
C79 C 0.23539 0.57323 0.33356 0.0
O80 O 0.15262 0.57222 0.31333 0.0
O81 O 0.15712 0.6091 0.35386 0.0
O82 O 0.19686 0.50637 0.36072 0.0
O83 O 0.17734 0.54852 0.38076 0.0
Co84 Co 0.96486 0.17469 0.83051 0.0
O85 O 0.98595 0.13703 0.83627 0.0
O86 O 0.9893 0.16678 0.78967 0.0
C87 C 0.97474 0.19301 0.88453 0.0
O88 O 0.94793 0.21529 0.81529 0.0
Co89 Co 0.90988 0.19256 0.8766 0.0
O90 O 0.91653 0.23342 0.85654 0.0
C91 C 0.90232 0.14829 0.81898 0.0
C92 C 0.99762 0.1422 0.80555 0.0
C93 C 0.93165 0.23654 0.82832 0.0
O94 O 0.92948 0.15323 0.80846 0.0
O95 O 0.8913 0.15995 0.84698 0.0
O96 O 0.99481 0.19524 0.85976 0.0
O97 O 0.9509 0.17778 0.87668 0.0
Co98 Co 0.32507 0.96939 0.33276 0.0
O99 O 0.36214 0.99149 0.33695 0.0
O100 O 0.33158 0.99317 0.29092 0.0
C101 C 0.30736 0.98 0.38674 0.0
O102 O 0.28468 0.95085 0.31963 0.0
Co103 Co 0.31204 0.91457 0.38104 0.0
O104 O 0.27102 0.91645 0.35994 0.0
C105 C 0.35519 0.90836 0.32279 0.0
C106 C 0.35629 0.00229 0.306 0.0
C107 C 0.2655 0.93212 0.33258 0.0
O108 O 0.34712 0.9343 0.31095 0.0
O109 O 0.34616 0.89773 0.35223 0.0
O110 O 0.30401 0.99929 0.36133 0.0
O111 O 0.3236 0.95663 0.37956 0.0
Co112 Co 0.46568 0.82463 0.83383 0.0
O113 O 0.48718 0.86212 0.83855 0.0
O114 O 0.49005 0.83146 0.79269 0.0
C115 C 0.47558 0.80724 0.88826 0.0
O116 O 0.44833 0.78388 0.81976 0.0
Co117 Co 0.41055 0.80877 0.88057 0.0
O118 O 0.41418 0.76807 0.85921 0.0
C119 C 0.40364 0.85233 0.82232 0.0
C120 C 0.4987 0.85623 0.80792 0.0
C121 C 0.43022 0.76373 0.83189 0.0
O122 O 0.43045 0.84619 0.8114 0.0
O123 O 0.39274 0.84171 0.85092 0.0
O124 O 0.4955 0.80428 0.86344 0.0
O125 O 0.45189 0.82262 0.88015 0.0
Co126 Co 0.67803 0.46626 0.3305 0.0
O127 O 0.64032 0.4872 0.33598 0.0
O128 O 0.67071 0.49141 0.29002 0.0
C129 C 0.69556 0.47514 0.38514 0.0
O130 O 0.71874 0.44931 0.31592 0.0
Co131 Co 0.69383 0.41012 0.37579 0.0
O132 O 0.73498 0.41568 0.35588 0.0
C133 C 0.6502 0.40469 0.3176 0.0
C134 C 0.64581 0.4993 0.30557 0.0
C135 C 0.73913 0.43173 0.32852 0.0
O136 O 0.65696 0.43139 0.30701 0.0
O137 O 0.66016 0.39325 0.34624 0.0
O138 O 0.69818 0.49563 0.3609 0.0
O139 O 0.68026 0.45156 0.37642 0.0
Co140 Co 0.03718 0.6765 0.83234 0.0
O141 O 0.01575 0.63898 0.83709 0.0
O142 O 0.01288 0.66951 0.79113 0.0
C143 C 0.02722 0.69412 0.88666 0.0
O144 O 0.05452 0.71726 0.81832 0.0
Co145 Co 0.09228 0.69224 0.87929 0.0
O146 O 0.08846 0.73299 0.8581 0.0
C147 C 0.09927 0.64887 0.8209 0.0
C148 C 0.0043 0.64472 0.8064 0.0
C149 C 0.07253 0.73739 0.8307 0.0
O150 O 0.07246 0.65499 0.81 0.0
O151 O 0.11016 0.65941 0.84955 0.0
O152 O 0.00728 0.69689 0.86183 0.0
O153 O 0.05087 0.67863 0.87868 0.0
Co154 Co 0.82517 0.03627 0.33051 0.0
O155 O 0.86258 0.01478 0.33598 0.0
O156 O 0.833 0.0124 0.28913 0.0
C157 C 0.80659 0.02571 0.3842 0.0
O158 O 0.78471 0.05386 0.31571 0.0
Co159 Co 0.8088 0.09092 0.37784 0.0
O160 O 0.76842 0.08745 0.35561 0.0
C161 C 0.85326 0.09837 0.32071 0.0
C162 C 0.85749 0.00369 0.30496 0.0
C163 C 0.76442 0.07183 0.32788 0.0
O164 O 0.84718 0.07171 0.3093 0.0
O165 O 0.84225 0.10904 0.34923 0.0
O166 O 0.8042 0.00608 0.35898 0.0
O167 O 0.82223 0.04944 0.37697 0.0
Co168 Co 0.46519 0.6773 0.1721 0.0
O169 O 0.48606 0.63952 0.16637 0.0
O170 O 0.48944 0.66921 0.21303 0.0
C171 C 0.47537 0.69544 0.11805 0.0
O172 O 0.44847 0.71797 0.18739 0.0
Co173 Co 0.41058 0.69582 0.12576 0.0
O174 O 0.41719 0.73651 0.14629 0.0
C175 C 0.40247 0.65131 0.18307 0.0
C176 C 0.49767 0.64459 0.19714 0.0
C177 C 0.43226 0.73937 0.17459 0.0
O178 O 0.42958 0.65604 0.19389 0.0
O179 O 0.39173 0.66316 0.15502 0.0
O180 O 0.49536 0.69767 0.1429 0.0
O181 O 0.45138 0.68047 0.12591 0.0
Co182 Co 0.82478 0.46711 0.67036 0.0
O183 O 0.86197 0.48894 0.66453 0.0
O184 O 0.832 0.49209 0.71097 0.0
C185 C 0.80641 0.47594 0.61609 0.0
O186 O 0.78465 0.44922 0.68551 0.0
Co187 Co 0.80941 0.411 0.6248 0.0
O188 O 0.7684 0.4157 0.64543 0.0
C189 C 0.85406 0.40606 0.68201 0.0
C190 C 0.85654 0.50065 0.69517 0.0
C191 C 0.76439 0.43143 0.67307 0.0
O192 O 0.84689 0.43252 0.69309 0.0
O193 O 0.84391 0.39466 0.65344 0.0
O194 O 0.80361 0.49624 0.64053 0.0
O195 O 0.82229 0.45264 0.62437 0.0
Co196 Co 0.03733 0.82619 0.16918 0.0
O197 O 0.01634 0.86393 0.16407 0.0
O198 O 0.01282 0.83357 0.21013 0.0
C199 C 0.02753 0.80852 0.11485 0.0
O200 O 0.05416 0.78527 0.18349 0.0
Co201 Co 0.0926 0.80982 0.1228 0.0
O202 O 0.08816 0.76914 0.144 0.0
C203 C 0.09956 0.85339 0.18096 0.0
C204 C 0.00461 0.8584 0.19467 0.0
C205 C 0.07201 0.76492 0.17126 0.0
O206 O 0.07268 0.84742 0.19174 0.0
O207 O 0.11052 0.8427 0.15242 0.0
O208 O 0.00741 0.80603 0.13952 0.0
O209 O 0.05129 0.82378 0.12296 0.0
Co210 Co 0.67643 0.03275 0.66734 0.0
O211 O 0.63904 0.01114 0.66337 0.0
O212 O 0.67028 0.00833 0.7087 0.0
C213 C 0.69324 0.02304 0.61267 0.0
O214 O 0.7172 0.05063 0.68017 0.0
Co215 Co 0.68956 0.08835 0.62004 0.0
O216 O 0.73069 0.08581 0.64069 0.0
C217 C 0.64696 0.09381 0.67896 0.0
C218 C 0.64526 0.99973 0.69393 0.0
C219 C 0.73635 0.06956 0.66754 0.0
O220 O 0.65512 0.06776 0.69038 0.0
O221 O 0.65564 0.10469 0.64949 0.0
O222 O 0.69659 0.00308 0.63738 0.0
O223 O 0.6775 0.04644 0.621 0.0
H224 H 0.48033 0.14846 0.25792 0.0
H225 H 0.47708 0.09514 0.16298 0.0
H226 H 0.44353 0.11487 0.28516 0.0
H227 H 0.44056 0.06139 0.19037 0.0
H228 H 0.35277 0.02581 0.2396 0.0
H229 H 0.38775 0.06113 0.21178 0.0
H230 H 0.44176 0.06238 0.3062 0.0
H231 H 0.4068 0.02748 0.33404 0.0
C232 C 0.47181 0.12954 0.2429 0.0
C233 C 0.48167 0.12438 0.20836 0.0
C234 C 0.45082 0.11025 0.25854 0.0
C235 C 0.43917 0.08548 0.2399 0.0
C236 C 0.44887 0.08048 0.20525 0.0
C237 C 0.46996 0.09968 0.18967 0.0
C238 C 0.37208 0.03371 0.25439 0.0
C239 C 0.37705 0.02385 0.28897 0.0
C240 C 0.39217 0.0538 0.23842 0.0
C241 C 0.41749 0.06454 0.25683 0.0
C242 C 0.42227 0.05481 0.29149 0.0
C243 C 0.40232 0.03465 0.30735 0.0
H244 H 0.40725 0.47842 0.66446 0.0
H245 H 0.35364 0.48019 0.75924 0.0
H246 H 0.441 0.44165 0.6912 0.0
H247 H 0.38735 0.44307 0.7859 0.0
H248 H 0.47528 0.40515 0.83347 0.0
H249 H 0.44006 0.44062 0.80693 0.0
H250 H 0.44081 0.38853 0.71103 0.0
H251 H 0.47639 0.35311 0.7375 0.0
C252 C 0.40264 0.47092 0.691 0.0
C253 C 0.37783 0.48226 0.7098 0.0
C254 C 0.42186 0.44969 0.70621 0.0
C255 C 0.41679 0.43943 0.7406 0.0
C256 C 0.39198 0.45078 0.75944 0.0
C257 C 0.37263 0.47194 0.74415 0.0
C258 C 0.46792 0.40122 0.80673 0.0
C259 C 0.47868 0.37639 0.78751 0.0
C260 C 0.44758 0.42144 0.79163 0.0
C261 C 0.43767 0.41736 0.75692 0.0
C262 C 0.44831 0.39243 0.73773 0.0
C263 C 0.46856 0.37209 0.75292 0.0
H264 H 0.02656 0.4062 0.16466 0.0
H265 H 0.0274 0.35172 0.25876 0.0
H266 H 0.06172 0.44141 0.19182 0.0
H267 H 0.06287 0.38691 0.28585 0.0
H268 H 0.09497 0.47646 0.33496 0.0
H269 H 0.06172 0.43967 0.30741 0.0
H270 H 0.11474 0.44406 0.21237 0.0
H271 H 0.14797 0.48117 0.23986 0.0
C272 C 0.03435 0.40167 0.19111 0.0
C273 C 0.02413 0.37625 0.20964 0.0
C274 C 0.05465 0.42175 0.20656 0.0
C275 C 0.06503 0.41693 0.24096 0.0
C276 C 0.055 0.39136 0.25941 0.0
C277 C 0.03481 0.37116 0.24386 0.0
C278 C 0.09955 0.46961 0.30817 0.0
C279 C 0.12404 0.48177 0.28952 0.0
C280 C 0.08062 0.44836 0.2925 0.0
C281 C 0.08567 0.43893 0.25777 0.0
C282 C 0.11016 0.45111 0.23908 0.0
C283 C 0.12923 0.47226 0.25485 0.0
H284 H 0.09513 0.0228 0.6658 0.0
H285 H 0.14708 0.02005 0.76178 0.0
H286 H 0.05998 0.05801 0.69288 0.0
H287 H 0.11188 0.05561 0.78885 0.0
H288 H 0.02223 0.09174 0.83499 0.0
H289 H 0.05843 0.05698 0.80864 0.0
H290 H 0.0592 0.11068 0.71399 0.0
H291 H 0.02281 0.1453 0.74019 0.0
C292 C 0.09908 0.02975 0.69268 0.0
C293 C 0.12387 0.01864 0.71167 0.0
C294 C 0.07902 0.05008 0.70811 0.0
C295 C 0.0832 0.05964 0.74295 0.0
C296 C 0.10794 0.04844 0.76204 0.0
C297 C 0.12815 0.0282 0.7465 0.0
C298 C 0.03011 0.09612 0.80855 0.0
C299 C 0.01959 0.1212 0.7896 0.0
C300 C 0.051 0.07632 0.79357 0.0
C301 C 0.06164 0.08109 0.75925 0.0
C302 C 0.05115 0.10623 0.74035 0.0
C303 C 0.03041 0.12612 0.7554 0.0
H304 H 0.52322 0.852 0.74229 0.0
H305 H 0.5243 0.90659 0.83632 0.0
H306 H 0.55976 0.88591 0.71508 0.0
H307 H 0.56065 0.94058 0.80898 0.0
H308 H 0.64876 0.97644 0.76039 0.0
H309 H 0.61402 0.94088 0.7882 0.0
H310 H 0.56043 0.9387 0.69349 0.0
H311 H 0.59511 0.97397 0.66568 0.0
C312 C 0.53123 0.87124 0.75713 0.0
C313 C 0.52082 0.87669 0.79139 0.0
C314 C 0.55206 0.89071 0.7415 0.0
C315 C 0.56303 0.9159 0.75991 0.0
C316 C 0.55283 0.92117 0.7943 0.0
C317 C 0.53186 0.90182 0.80984 0.0
C318 C 0.6296 0.9683 0.74553 0.0
C319 C 0.62463 0.97802 0.71089 0.0
C320 C 0.60965 0.94807 0.76149 0.0
C321 C 0.58453 0.937 0.74299 0.0
C322 C 0.57977 0.94656 0.70826 0.0
C323 C 0.59955 0.96692 0.69243 0.0
H324 H 0.52295 0.59475 0.16714 0.0
H325 H 0.52192 0.64687 0.26305 0.0
H326 H 0.55926 0.56001 0.19328 0.0
H327 H 0.5584 0.6122 0.28908 0.0
H328 H 0.59534 0.52345 0.33519 0.0
H329 H 0.55984 0.55883 0.30888 0.0
H330 H 0.61272 0.55976 0.2136 0.0
H331 H 0.64824 0.52413 0.23986 0.0
C332 C 0.53049 0.5988 0.19379 0.0
C333 C 0.51953 0.6235 0.21308 0.0
C334 C 0.55143 0.57901 0.20866 0.0
C335 C 0.56169 0.5834 0.2432 0.0
C336 C 0.55068 0.60808 0.26251 0.0
C337 C 0.52989 0.62799 0.24756 0.0
C338 C 0.59942 0.5312 0.30863 0.0
C339 C 0.62456 0.52097 0.28956 0.0
C340 C 0.57918 0.5516 0.29365 0.0
C341 C 0.58351 0.56207 0.2592 0.0
C342 C 0.60865 0.55184 0.2401 0.0
C343 C 0.62905 0.53158 0.25519 0.0
H344 H 0.98005 0.64836 0.74051 0.0
H345 H 0.97878 0.5945 0.83508 0.0
H346 H 0.94351 0.61423 0.71355 0.0
H347 H 0.94248 0.56034 0.80804 0.0
H348 H 0.85397 0.52485 0.76114 0.0
H349 H 0.88919 0.56045 0.78786 0.0
H350 H 0.94181 0.56124 0.69238 0.0
H351 H 0.90655 0.52586 0.66557 0.0
C352 C 0.97201 0.62923 0.75551 0.0
C353 C 0.98232 0.62408 0.78989 0.0
C354 C 0.95119 0.60963 0.74003 0.0
C355 C 0.94012 0.58463 0.75871 0.0
C356 C 0.95034 0.57961 0.79315 0.0
C357 C 0.97128 0.59907 0.80853 0.0
C358 C 0.87302 0.53268 0.74584 0.0
C359 C 0.87753 0.52251 0.71129 0.0
C360 C 0.89325 0.55294 0.7612 0.0
C361 C 0.91828 0.5636 0.74222 0.0
C362 C 0.92257 0.55366 0.70753 0.0
C363 C 0.90247 0.53326 0.69227 0.0
H364 H 0.90709 0.97795 0.33475 0.0
H365 H 0.85559 0.98049 0.23844 0.0
H366 H 0.94223 0.94242 0.30803 0.0
H367 H 0.8907 0.9447 0.21178 0.0
H368 H 0.98023 0.9091 0.16576 0.0
H369 H 0.94418 0.9438 0.19237 0.0
H370 H 0.94319 0.88959 0.28661 0.0
H371 H 0.97949 0.85494 0.26011 0.0
C372 C 0.90324 0.97088 0.30788 0.0
C373 C 0.87861 0.98206 0.28866 0.0
C374 C 0.92327 0.95038 0.29267 0.0
C375 C 0.91921 0.94076 0.25783 0.0
C376 C 0.89456 0.95194 0.23858 0.0
C377 C 0.8744 0.97231 0.25389 0.0
C378 C 0.97234 0.90458 0.19217 0.0
C379 C 0.98275 0.87933 0.21089 0.0
C380 C 0.95154 0.92435 0.2073 0.0
C381 C 0.94085 0.9194 0.24156 0.0
C382 C 0.95127 0.89414 0.26029 0.0
C383 C 0.97194 0.87425 0.24506 0.0
H384 H 0.58206 0.2948 0.14384 0.0
H385 H 0.57401 0.24141 0.23809 0.0
H386 H 0.59466 0.33893 0.17915 0.0
H387 H 0.58888 0.28433 0.27325 0.0
H388 H 0.6051 0.36617 0.33586 0.0
H389 H 0.57988 0.32952 0.2984 0.0
H390 H 0.63295 0.3604 0.2099 0.0
H391 H 0.65586 0.39863 0.247 0.0
C392 C 0.58305 0.29257 0.17216 0.0
C393 C 0.57707 0.26474 0.18825 0.0
C394 C 0.59055 0.31779 0.1925 0.0
C395 C 0.59316 0.31551 0.22934 0.0
C396 C 0.58652 0.28758 0.24522 0.0
C397 C 0.57819 0.2627 0.22499 0.0
C398 C 0.61077 0.36539 0.30818 0.0
C399 C 0.6324 0.38507 0.29426 0.0
C400 C 0.59662 0.34412 0.28667 0.0
C401 C 0.60466 0.34125 0.25098 0.0
C402 C 0.62562 0.36191 0.23695 0.0
C403 C 0.639 0.38382 0.25826 0.0
H404 H 0.24715 0.54565 0.72861 0.0
H405 H 0.21878 0.61124 0.65133 0.0
H406 H 0.20329 0.55788 0.7644 0.0
H407 H 0.17535 0.62382 0.68751 0.0
H408 H 0.0908 0.63179 0.75218 0.0
H409 H 0.12747 0.60766 0.71334 0.0
H410 H 0.19057 0.60163 0.79951 0.0
H411 H 0.15404 0.62505 0.83826 0.0
C412 C 0.23146 0.56247 0.71904 0.0
C413 C 0.2368 0.57776 0.68727 0.0
C414 C 0.20635 0.56954 0.73965 0.0
C415 C 0.18599 0.59206 0.72901 0.0
C416 C 0.19043 0.60618 0.69637 0.0
C417 C 0.21552 0.5991 0.67572 0.0
C418 C 0.1123 0.62481 0.76297 0.0
C419 C 0.11956 0.63068 0.79829 0.0
C420 C 0.13337 0.61116 0.74064 0.0
C421 C 0.16202 0.6029 0.75325 0.0
C422 C 0.16863 0.60739 0.78897 0.0
C423 C 0.1477 0.6211 0.81118 0.0
H424 H 0.87228 0.08979 0.25275 0.0
H425 H 0.87639 0.15332 0.3388 0.0
H426 H 0.8973 0.1264 0.2147 0.0
H427 H 0.90082 0.18979 0.30075 0.0
H428 H 0.95849 0.24616 0.23102 0.0
H429 H 0.94571 0.20235 0.26668 0.0
H430 H 0.88095 0.17429 0.1885 0.0
H431 H 0.894 0.21768 0.15254 0.0
C432 C 0.87887 0.11134 0.26372 0.0
C433 C 0.87198 0.1187 0.29877 0.0
C434 C 0.89306 0.13236 0.24184 0.0
C435 C 0.90086 0.16108 0.25462 0.0
C436 C 0.8954 0.1678 0.29012 0.0
C437 C 0.88113 0.1469 0.31191 0.0
C438 C 0.94188 0.23041 0.22111 0.0
C439 C 0.927 0.23573 0.18906 0.0
C440 C 0.93447 0.20536 0.24166 0.0
C441 C 0.91211 0.185 0.23061 0.0
C442 C 0.89846 0.18939 0.19768 0.0
C443 C 0.90581 0.21445 0.17715 0.0
H444 H 0.28498 0.89212 0.65253 0.0
H445 H 0.2558 0.95633 0.73097 0.0
H446 H 0.32823 0.87917 0.68876 0.0
H447 H 0.29953 0.94376 0.76684 0.0
H448 H 0.34873 0.87582 0.83971 0.0
H449 H 0.31236 0.89971 0.80118 0.0
H450 H 0.37584 0.89483 0.71528 0.0
H451 H 0.41235 0.87021 0.75389 0.0
C452 C 0.28803 0.90389 0.6772 0.0
C453 C 0.26656 0.92495 0.68903 0.0
C454 C 0.31303 0.8966 0.69789 0.0
C455 C 0.31721 0.91022 0.73087 0.0
C456 C 0.29667 0.93248 0.74182 0.0
C457 C 0.27164 0.93976 0.72116 0.0
C458 C 0.35519 0.88012 0.81273 0.0
C459 C 0.38339 0.87071 0.79985 0.0
C460 C 0.33434 0.8941 0.79065 0.0
C461 C 0.34109 0.89907 0.75506 0.0
C462 C 0.36981 0.89097 0.74248 0.0
C463 C 0.3908 0.87703 0.76467 0.0
H464 H 0.58021 0.20598 0.85139 0.0
H465 H 0.57015 0.25767 0.75613 0.0
H466 H 0.59259 0.16135 0.81685 0.0
H467 H 0.58483 0.21425 0.72163 0.0
H468 H 0.60103 0.1314 0.66071 0.0
H469 H 0.57597 0.16849 0.69774 0.0
H470 H 0.63067 0.13979 0.78589 0.0
H471 H 0.65348 0.10116 0.74932 0.0
C472 C 0.58072 0.20772 0.82301 0.0
C473 C 0.57424 0.23522 0.80641 0.0
C474 C 0.58809 0.18222 0.80311 0.0
C475 C 0.59011 0.18389 0.76617 0.0
C476 C 0.58295 0.21148 0.74978 0.0
C477 C 0.57472 0.23664 0.76962 0.0
C478 C 0.60709 0.13274 0.68824 0.0
C479 C 0.62916 0.11355 0.70221 0.0
C480 C 0.59303 0.15426 0.70949 0.0
C481 C 0.60156 0.15788 0.74493 0.0
C482 C 0.62295 0.1377 0.75905 0.0
C483 C 0.63627 0.11554 0.73802 0.0
H484 H 0.4106 0.6322 0.25109 0.0
H485 H 0.34709 0.6294 0.16497 0.0
H486 H 0.3735 0.6077 0.28903 0.0
H487 H 0.31016 0.60554 0.20285 0.0
H488 H 0.2533 0.54758 0.27147 0.0
H489 H 0.29719 0.56055 0.23611 0.0
H490 H 0.32565 0.62403 0.31551 0.0
H491 H 0.28214 0.61075 0.35124 0.0
C492 C 0.38895 0.62601 0.24009 0.0
C493 C 0.38175 0.63306 0.20505 0.0
C494 C 0.36763 0.61214 0.2619 0.0
C495 C 0.33882 0.60482 0.24903 0.0
C496 C 0.33223 0.61056 0.21356 0.0
C497 C 0.35339 0.62451 0.19187 0.0
C498 C 0.2691 0.56401 0.28168 0.0
C499 C 0.26389 0.57842 0.31404 0.0
C500 C 0.29423 0.5715 0.26131 0.0
C501 C 0.31475 0.59355 0.27282 0.0
C502 C 0.31043 0.60678 0.30599 0.0
C503 C 0.2853 0.5993 0.32637 0.0
H504 H 0.84942 0.39932 0.75259 0.0
H505 H 0.89948 0.36834 0.66248 0.0
H506 H 0.87291 0.36078 0.78865 0.0
H507 H 0.92532 0.33134 0.69892 0.0
H508 H 0.93058 0.24194 0.75739 0.0
H509 H 0.91661 0.28574 0.72316 0.0
H510 H 0.91127 0.33877 0.81853 0.0
H511 H 0.92288 0.29382 0.85282 0.0
C512 C 0.86629 0.38481 0.74084 0.0
C513 C 0.87248 0.38652 0.70478 0.0
C514 C 0.88001 0.3627 0.76156 0.0
C515 C 0.90092 0.34231 0.74687 0.0
C516 C 0.90863 0.34573 0.71115 0.0
C517 C 0.89414 0.36719 0.69022 0.0
C518 C 0.92675 0.26309 0.77095 0.0
C519 C 0.92756 0.26445 0.80773 0.0
C520 C 0.91892 0.28846 0.75126 0.0
C521 C 0.91251 0.31618 0.76781 0.0
C522 C 0.91512 0.31781 0.80469 0.0
C523 C 0.92208 0.29212 0.82444 0.0
H524 H 0.0914 0.86991 0.24992 0.0
H525 H 0.15386 0.87802 0.16323 0.0
H526 H 0.12795 0.89451 0.28852 0.0
H527 H 0.19025 0.90199 0.20173 0.0
H528 H 0.24583 0.95946 0.2722 0.0
H529 H 0.20196 0.94624 0.23693 0.0
H530 H 0.17664 0.8791 0.31363 0.0
H531 H 0.22013 0.8926 0.34928 0.0
C532 C 0.11269 0.87729 0.23895 0.0
C533 C 0.11978 0.87169 0.20352 0.0
C534 C 0.13369 0.89121 0.26113 0.0
C535 C 0.16208 0.90006 0.24826 0.0
C536 C 0.16851 0.89577 0.21247 0.0
C537 C 0.14767 0.88176 0.19041 0.0
C538 C 0.23071 0.94217 0.28187 0.0
C539 C 0.23683 0.92682 0.31341 0.0
C540 C 0.20559 0.93454 0.26154 0.0
C541 C 0.18598 0.91139 0.27226 0.0
C542 C 0.19115 0.8972 0.30472 0.0
C543 C 0.21627 0.90482 0.32506 0.0
H544 H 0.37553 0.65532 0.65963 0.0
H545 H 0.37365 0.58993 0.74386 0.0
H546 H 0.39927 0.69161 0.69855 0.0
H547 H 0.39797 0.62634 0.78274 0.0
H548 H 0.39369 0.71583 0.848 0.0
H549 H 0.38101 0.67314 0.81072 0.0
H550 H 0.4441 0.70454 0.73243 0.0
H551 H 0.4565 0.74764 0.76942 0.0
C552 C 0.38061 0.64846 0.68629 0.0
C553 C 0.37231 0.61976 0.69866 0.0
C554 C 0.39448 0.66927 0.70857 0.0
C555 C 0.40037 0.66195 0.74383 0.0
C556 C 0.39337 0.63278 0.75582 0.0
C557 C 0.37958 0.61187 0.73345 0.0
C558 C 0.40521 0.71348 0.82307 0.0
C559 C 0.42581 0.73549 0.81156 0.0
C560 C 0.39807 0.68882 0.80177 0.0
C561 C 0.41134 0.68557 0.76844 0.0
C562 C 0.43313 0.70667 0.75773 0.0
C563 C 0.44033 0.73132 0.77905 0.0
H564 H 0.87215 0.40162 0.16346 0.0
H565 H 0.90001 0.34661 0.25097 0.0
H566 H 0.8356 0.42719 0.20076 0.0
H567 H 0.86179 0.3699 0.28774 0.0
H568 H 0.79563 0.41954 0.35359 0.0
H569 H 0.84064 0.4076 0.31951 0.0
H570 H 0.78938 0.41921 0.22359 0.0
H571 H 0.74565 0.43345 0.25776 0.0
C572 C 0.87041 0.39512 0.19082 0.0
C573 C 0.88874 0.37217 0.2044 0.0
C574 C 0.84918 0.40947 0.21222 0.0
C575 C 0.84495 0.40034 0.24737 0.0
C576 C 0.86436 0.37809 0.26114 0.0
C577 C 0.88628 0.36449 0.24001 0.0
C578 C 0.79436 0.42005 0.32518 0.0
C579 C 0.76721 0.42739 0.3083 0.0
C580 C 0.82007 0.4129 0.30552 0.0
C581 C 0.81894 0.41198 0.2685 0.0
C582 C 0.79176 0.4202 0.25185 0.0
C583 C 0.7664 0.4282 0.27148 0.0
H584 H 0.1087 0.78535 0.84758 0.0
H585 H 0.04668 0.75369 0.76806 0.0
H586 H 0.12151 0.82828 0.81078 0.0
H587 H 0.0592 0.79705 0.73154 0.0
H588 H 0.12829 0.84681 0.65994 0.0
H589 H 0.10427 0.81028 0.6983 0.0
H590 H 0.10465 0.87514 0.78296 0.0
H591 H 0.12926 0.91179 0.74465 0.0
C592 C 0.09737 0.78778 0.82254 0.0
C593 C 0.07697 0.76574 0.81062 0.0
C594 C 0.10458 0.81258 0.80152 0.0
C595 C 0.09158 0.81595 0.76808 0.0
C596 C 0.06996 0.79483 0.75695 0.0
C597 C 0.0627 0.77003 0.77799 0.0
C598 C 0.12295 0.85352 0.68658 0.0
C599 C 0.13109 0.88218 0.69927 0.0
C600 C 0.10892 0.83259 0.70854 0.0
C601 C 0.10269 0.83972 0.74377 0.0
C602 C 0.10952 0.86884 0.75606 0.0
C603 C 0.12348 0.88988 0.73402 0.0
H604 H 0.59001 0.12745 0.2408 0.0
H605 H 0.65552 0.12916 0.15668 0.0
H606 H 0.62694 0.10308 0.27893 0.0
H607 H 0.69233 0.10533 0.19488 0.0
H608 H 0.74925 0.04716 0.2642 0.0
H609 H 0.70616 0.05989 0.2273 0.0
H610 H 0.67334 0.12043 0.30754 0.0
H611 H 0.71601 0.10743 0.34469 0.0
C612 C 0.61209 0.12228 0.23024 0.0
C613 C 0.61984 0.13057 0.19571 0.0
C614 C 0.63331 0.10847 0.25219 0.0
C615 C 0.66264 0.10245 0.24004 0.0
C616 C 0.66986 0.10936 0.20501 0.0
C617 C 0.64875 0.12327 0.18314 0.0
C618 C 0.73262 0.06284 0.27425 0.0
C619 C 0.73636 0.07653 0.30731 0.0
C620 C 0.70799 0.07023 0.25299 0.0
C621 C 0.68646 0.09137 0.26433 0.0
C622 C 0.68935 0.10386 0.2981 0.0
C623 C 0.714 0.09654 0.31933 0.0
H624 H 0.42356 0.7969 0.15089 0.0
H625 H 0.43105 0.74405 0.24559 0.0
H626 H 0.4119 0.8415 0.18579 0.0
H627 H 0.41702 0.7875 0.28042 0.0
H628 H 0.40019 0.86991 0.34206 0.0
H629 H 0.42572 0.8329 0.30532 0.0
H630 H 0.37348 0.86316 0.21586 0.0
H631 H 0.35025 0.90164 0.2522 0.0
C632 C 0.4227 0.79491 0.17924 0.0
C633 C 0.42815 0.76707 0.19555 0.0
C634 C 0.41571 0.82039 0.19934 0.0
C635 C 0.41301 0.81839 0.23619 0.0
C636 C 0.41939 0.7905 0.25235 0.0
C637 C 0.42726 0.76533 0.23232 0.0
C638 C 0.39477 0.86891 0.31433 0.0
C639 C 0.37325 0.88849 0.29993 0.0
C640 C 0.40911 0.84745 0.29323 0.0
C641 C 0.40141 0.84432 0.25746 0.0
C642 C 0.38058 0.86488 0.24297 0.0
C643 C 0.36701 0.88695 0.26387 0.0
H644 H 0.70722 0.42153 0.64887 0.0
H645 H 0.75948 0.42958 0.74393 0.0
H646 H 0.66263 0.40914 0.68342 0.0
H647 H 0.71614 0.41468 0.77843 0.0
H648 H 0.63364 0.39669 0.83963 0.0
H649 H 0.67082 0.42244 0.80335 0.0
H650 H 0.6407 0.37099 0.71315 0.0
H651 H 0.60198 0.34771 0.74904 0.0
C652 C 0.70908 0.42059 0.67723 0.0
C653 C 0.73671 0.42649 0.69377 0.0
C654 C 0.6836 0.41316 0.69715 0.0
C655 C 0.68546 0.41041 0.73402 0.0
C656 C 0.7132 0.4171 0.75037 0.0
C657 C 0.73832 0.42546 0.73053 0.0
C658 C 0.63473 0.39152 0.81184 0.0
C659 C 0.61507 0.37027 0.79707 0.0
C660 C 0.65629 0.40596 0.79099 0.0
C661 C 0.65951 0.39857 0.75512 0.0
C662 C 0.63894 0.37791 0.74032 0.0
C663 C 0.61673 0.36429 0.76096 0.0
H664 H 0.12473 0.65451 0.34244 0.0
H665 H 0.12677 0.58994 0.25735 0.0
H666 H 0.10119 0.69122 0.30393 0.0
H667 H 0.10261 0.62676 0.21888 0.0
H668 H 0.10796 0.71669 0.1548 0.0
H669 H 0.11991 0.67352 0.19159 0.0
H670 H 0.05688 0.70505 0.26992 0.0
H671 H 0.04525 0.74868 0.23342 0.0
C672 C 0.1197 0.64791 0.31568 0.0
C673 C 0.12804 0.61933 0.30294 0.0
C674 C 0.10594 0.66896 0.29363 0.0
C675 C 0.10018 0.66201 0.25824 0.0
C676 C 0.10712 0.63293 0.2459 0.0
C677 C 0.12082 0.61178 0.26803 0.0
C678 C 0.09629 0.71428 0.17964 0.0
C679 C 0.07596 0.73648 0.19132 0.0
C680 C 0.10301 0.68934 0.20065 0.0
C681 C 0.08955 0.68596 0.23385 0.0
C682 C 0.06799 0.70726 0.24471 0.0
C683 C 0.06124 0.73222 0.22368 0.0
H684 H 0.84733 0.12512 0.83662 0.0
H685 H 0.91079 0.13032 0.75061 0.0
H686 H 0.81089 0.10097 0.79825 0.0
H687 H 0.87418 0.10564 0.71217 0.0
H688 H 0.78238 0.10814 0.65039 0.0
H689 H 0.82578 0.12163 0.68621 0.0
H690 H 0.79916 0.05589 0.76392 0.0
H691 H 0.75541 0.04262 0.72844 0.0
C692 C 0.85372 0.12071 0.80964 0.0
C693 C 0.88192 0.12997 0.79665 0.0
C694 C 0.83286 0.1066 0.78767 0.0
C695 C 0.83958 0.10147 0.7521 0.0
C696 C 0.86823 0.10957 0.73938 0.0
C697 C 0.88926 0.12355 0.76148 0.0
C698 C 0.78595 0.0962 0.67486 0.0
C699 C 0.76507 0.07459 0.68672 0.0
C700 C 0.811 0.10382 0.6953 0.0
C701 C 0.81576 0.09004 0.72808 0.0
C702 C 0.79584 0.06725 0.73903 0.0
C703 C 0.77081 0.05958 0.71858 0.0
H704 H 0.54763 0.17898 0.04919 0.0
H705 H 0.49215 0.24651 0.0993 0.0
H706 H 0.54275 0.20559 0.99312 0.0
H707 H 0.48817 0.27365 0.04316 0.0
H708 H 0.54753 0.32053 0.9449 0.0
H709 H 0.54358 0.294 0.00113 0.0
H710 H 0.48674 0.22683 0.95295 0.0
H711 H 0.4898 0.25388 0.8967 0.0
C712 C 0.5343 0.19943 0.04814 0.0
C713 C 0.52027 0.21076 0.07847 0.0
C714 C 0.53142 0.21448 0.01612 0.0
C715 C 0.51501 0.24142 0.01412 0.0
C716 C 0.50076 0.25274 0.04428 0.0
C717 C 0.50303 0.23727 0.07621 0.0
C718 C 0.53392 0.30029 0.94641 0.0
C719 C 0.51898 0.28919 0.91656 0.0
C720 C 0.53156 0.28529 0.97852 0.0
C721 C 0.51476 0.25863 0.98108 0.0
C722 C 0.49964 0.24753 0.9514 0.0
C723 C 0.5014 0.26295 0.9194 0.0
H724 H 0.24541 0.49334 0.39889 0.0
H725 H 0.17804 0.54827 0.45014 0.0
H726 H 0.27376 0.49034 0.45425 0.0
H727 H 0.20592 0.54437 0.50551 0.0
H728 H 0.25649 0.49282 0.60105 0.0
H729 H 0.2283 0.4894 0.54563 0.0
H730 H 0.29461 0.54568 0.495 0.0
H731 H 0.32231 0.55 0.55047 0.0
C732 C 0.23646 0.50431 0.42209 0.0
C733 C 0.20964 0.52108 0.42038 0.0
C734 C 0.25265 0.50261 0.45356 0.0
C735 C 0.24174 0.517 0.48381 0.0
C736 C 0.2145 0.53296 0.4824 0.0
C737 C 0.19872 0.53527 0.45081 0.0
C738 C 0.26513 0.50422 0.57799 0.0
C739 C 0.29147 0.52173 0.57991 0.0
C740 C 0.24905 0.50227 0.54648 0.0
C741 C 0.25958 0.51715 0.51637 0.0
C742 C 0.28634 0.53388 0.51799 0.0
C743 C 0.30201 0.53643 0.54964 0.0
H744 H 0.02359 0.27272 0.0871 0.0
H745 H 0.93451 0.30585 0.06204 0.0
H746 H 0.02481 0.24529 0.03118 0.0
H747 H 0.93579 0.27861 0.00659 0.0
H748 H 0.93279 0.19571 0.93632 0.0
H749 H 0.93519 0.22369 0.99112 0.0
H750 H 0.02445 0.25513 0.96447 0.0
H751 H 0.02209 0.22692 0.90905 0.0
C752 C 0.00438 0.27426 0.06962 0.0
C753 C 0.97886 0.29124 0.07904 0.0
C754 C 0.00515 0.2587 0.03761 0.0
C755 C 0.9803 0.25967 0.01474 0.0
C756 C 0.95509 0.27713 0.02395 0.0
C757 C 0.95442 0.29281 0.05567 0.0
C758 C 0.95298 0.20854 0.94203 0.0
C759 C 0.97719 0.20929 0.91825 0.0
C760 C 0.95428 0.22466 0.9734 0.0
C761 C 0.97989 0.24177 0.98188 0.0
C762 C 0.00447 0.24202 0.95857 0.0
C763 C 0.00307 0.22601 0.92687 0.0
H764 H 0.32057 0.95105 0.44769 0.0
H765 H 0.25904 0.01584 0.40237 0.0
H766 H 0.29336 0.9541 0.50356 0.0
H767 H 0.23153 0.01828 0.45833 0.0
H768 H 0.18327 0.94912 0.55323 0.0
H769 H 0.21074 0.95365 0.49769 0.0
H770 H 0.27158 0.01754 0.54523 0.0
H771 H 0.24377 0.01361 0.60092 0.0
C772 C 0.30136 0.96603 0.44974 0.0
C773 C 0.29185 0.98319 0.42076 0.0
C774 C 0.28596 0.96783 0.48165 0.0
C775 C 0.26065 0.98651 0.4849 0.0
C776 C 0.25123 0.00395 0.45622 0.0
C777 C 0.26692 0.00251 0.42438 0.0
C778 C 0.20234 0.96434 0.55178 0.0
C779 C 0.21146 0.981 0.58131 0.0
C780 C 0.21789 0.96696 0.52007 0.0
C781 C 0.24299 0.98599 0.51754 0.0
C782 C 0.25206 0.00292 0.54679 0.0
C783 C 0.2362 1.00066 0.57847 0.0
H784 H 0.52265 0.77321 0.91338 0.0
H785 H 0.43432 0.80698 0.94083 0.0
H786 H 0.52497 0.74621 0.96964 0.0
H787 H 0.43669 0.78021 0.99644 0.0
H788 H 0.43378 0.69728 0.06596 0.0
H789 H 0.43621 0.72468 0.01084 0.0
H790 H 0.52524 0.75682 0.03733 0.0
H791 H 0.52284 0.72918 0.09321 0.0
C792 C 0.50386 0.77498 0.93144 0.0
C793 C 0.47819 0.79196 0.92258 0.0
C794 C 0.50527 0.7597 0.96362 0.0
C795 C 0.48089 0.76095 0.98716 0.0
C796 C 0.45562 0.77851 0.97855 0.0
C797 C 0.45431 0.7939 0.9467 0.0
C798 C 0.45394 0.71012 0.06017 0.0
C799 C 0.47803 0.71129 0.08408 0.0
C800 C 0.45527 0.72589 0.0286 0.0
C801 C 0.48078 0.74308 0.02001 0.0
C802 C 0.50534 0.74365 0.04336 0.0
C803 C 0.5039 0.72798 0.07531 0.0
H804 H 0.77204 0.52248 0.59033 0.0
H805 H 0.80507 0.43346 0.56477 0.0
H806 H 0.74479 0.524 0.53424 0.0
H807 H 0.77806 0.43504 0.50926 0.0
H808 H 0.69716 0.43259 0.43639 0.0
H809 H 0.7237 0.43457 0.49223 0.0
H810 H 0.75541 0.52421 0.46787 0.0
H811 H 0.72863 0.52229 0.41152 0.0
C812 C 0.77355 0.50333 0.57275 0.0
C813 C 0.79052 0.47778 0.58204 0.0
C814 C 0.75809 0.50427 0.54065 0.0
C815 C 0.75915 0.47954 0.51756 0.0
C816 C 0.77647 0.45425 0.52675 0.0
C817 C 0.79204 0.45341 0.55854 0.0
C818 C 0.70973 0.45278 0.44286 0.0
C819 C 0.71099 0.47721 0.41945 0.0
C820 C 0.72501 0.45385 0.47483 0.0
C821 C 0.7418 0.47945 0.48427 0.0
C822 C 0.74252 0.50425 0.46129 0.0
C823 C 0.72734 0.50309 0.42903 0.0
H824 H 0.06947 0.80647 0.063 0.0
H825 H 0.98023 0.77483 0.08985 0.0
H826 H 0.06726 0.77871 0.00802 0.0
H827 H 0.97806 0.74686 0.03425 0.0
H828 H 0.98031 0.72857 0.91133 0.0
H829 H 0.97831 0.75658 0.96692 0.0
H830 H 0.06683 0.72326 0.99378 0.0
H831 H 0.06888 0.69544 0.93883 0.0
C832 C 0.04932 0.79363 0.05714 0.0
C833 C 0.02511 0.79262 0.08089 0.0
C834 C 0.04811 0.77766 0.02566 0.0
C835 C 0.0226 0.76044 0.01706 0.0
C836 C 0.99795 0.76005 0.04026 0.0
C837 C 0.99926 0.77591 0.07207 0.0
C838 C 0.99923 0.72716 0.92926 0.0
C839 C 0.02485 0.71003 0.92062 0.0
C840 C 0.99802 0.74306 0.96105 0.0
C841 C 0.02254 0.74227 0.98442 0.0
C842 C 0.0478 0.72462 0.976 0.0
C843 C 0.04891 0.70862 0.94455 0.0
H844 H 0.69263 0.06425 0.55999 0.0
H845 H 0.72834 0.97676 0.58779 0.0
H846 H 0.71995 0.06249 0.50459 0.0
H847 H 0.75569 0.97502 0.53172 0.0
H848 H 0.80546 0.06618 0.4376 0.0
H849 H 0.77744 0.06311 0.49239 0.0
H850 H 0.74346 0.97556 0.4627 0.0
H851 H 0.77152 0.97863 0.40716 0.0
C852 C 0.70621 0.04456 0.55422 0.0
C853 C 0.70857 0.02075 0.57837 0.0
C854 C 0.72187 0.04361 0.52252 0.0
C855 C 0.74004 0.01873 0.51411 0.0
C856 C 0.7417 0.99439 0.53764 0.0
C857 C 0.72619 0.99547 0.56968 0.0
C858 C 0.79207 0.04622 0.44263 0.0
C859 C 0.79048 0.02274 0.41794 0.0
C860 C 0.776 0.04453 0.47399 0.0
C861 C 0.75817 0.01923 0.48154 0.0
C862 C 0.75716 0.99527 0.45742 0.0
C863 C 0.77308 0.99709 0.42569 0.0
loop_
_geom_bond_atom_site_label_1
_geom_bond_atom_site_label_2
_geom_bond_distance
_geom_bond_site_symmetry_2
_ccdc_geom_bond_type
Co0 O1 2.216 . S
Co0 O2 2.091 . S
Co0 O4 2.004 . S
Co0 O10 2.021 . S
Co0 O12 2.137 . S
Co0 O13 2.244 . S
O1 Co0 2.216 . S
O1 C8 1.247 . S
O2 Co0 2.091 . S
O2 C8 1.261 . S
C3 O12 1.247 . S
C3 O13 1.272 . S
O4 Co0 2.004 . S
O4 C9 1.259 . S
Co5 O6 2.061 . S
Co5 O11 2.052 . S
Co5 O13 2.135 . S
O6 Co5 2.061 . S
O6 C9 1.235 . S
C7 O10 1.238 . S
C7 O11 1.241 . S
C8 O1 1.247 . S
C8 O2 1.261 . S
C9 O4 1.259 . S
C9 O6 1.235 . S
O10 Co0 2.021 . S
O10 C7 1.238 . S
O11 Co5 2.052 . S
O11 C7 1.241 . S
O12 Co0 2.137 . S
O12 C3 1.247 . S
O13 Co0 2.244 . S
O13 C3 1.272 . S
O13 Co5 2.135 . S
Co14 O15 2.216 . S
Co14 O16 2.091 . S
Co14 O18 2.004 . S
Co14 O24 2.021 . S
Co14 O26 2.137 . S
Co14 O27 2.244 . S
O15 Co14 2.216 . S
O15 C22 1.247 . S
O16 Co14 2.091 . S
O16 C22 1.261 . S
C17 O26 1.247 . S
C17 O27 1.272 . S
O18 Co14 2.004 . S
O18 C23 1.259 . S
Co19 O20 2.061 . S
Co19 O25 2.052 . S
Co19 O27 2.135 . S
O20 Co19 2.061 . S
O20 C23 1.235 . S
C21 O24 1.238 . S
C21 O25 1.241 . S
C22 O15 1.247 . S
C22 O16 1.261 . S
C23 O18 1.259 . S
C23 O20 1.235 . S
O24 Co14 2.021 . S
O24 C21 1.238 . S
O25 Co19 2.052 . S
O25 C21 1.241 . S
O26 Co14 2.137 . S
O26 C17 1.247 . S
O27 Co14 2.244 . S
O27 C17 1.272 . S
O27 Co19 2.135 . S
Co28 O29 2.216 1_655 S
Co28 O30 2.091 1_655 S
Co28 O32 2.004 . S
Co28 O38 2.021 . S
Co28 O40 2.137 1_655 S
Co28 O41 2.244 . S
O29 Co28 2.216 1_455 S
O29 C36 1.247 . S
O30 Co28 2.091 1_455 S
O30 C36 1.261 . S
C31 O40 1.247 1_655 S
C31 O41 1.272 . S
O32 Co28 2.004 . S
O32 C37 1.259 . S
Co33 O34 2.061 . S
Co33 O39 2.052 . S
Co33 O41 2.135 . S
O34 Co33 2.061 . S
O34 C37 1.235 . S
C35 O38 1.238 . S
C35 O39 1.241 . S
C36 O29 1.247 . S
C36 O30 1.261 . S
C37 O32 1.259 . S
C37 O34 1.235 . S
O38 Co28 2.021 . S
O38 C35 1.238 . S
O39 Co33 2.052 . S
O39 C35 1.241 . S
O40 Co28 2.137 1_455 S
O40 C31 1.247 1_455 S
O41 Co28 2.244 . S
O41 C31 1.272 . S
O41 Co33 2.135 . S
Co42 O43 2.216 1_565 S
Co42 O44 2.091 1_565 S
Co42 O46 2.004 . S
Co42 O52 2.021 . S
Co42 O54 2.137 1_565 S
Co42 O55 2.244 . S
O43 Co42 2.216 1_545 S
O43 C50 1.247 . S
O44 Co42 2.091 1_545 S
O44 C50 1.261 . S
C45 O54 1.247 1_565 S
C45 O55 1.272 . S
O46 Co42 2.004 . S
O46 C51 1.259 . S
Co47 O48 2.061 . S
Co47 O53 2.052 . S
Co47 O55 2.135 . S
O48 Co47 2.061 . S
O48 C51 1.235 . S
C49 O52 1.238 . S
C49 O53 1.241 . S
C50 O43 1.247 . S
C50 O44 1.261 . S
C51 O46 1.259 . S
C51 O48 1.235 . S
O52 Co42 2.021 . S
O52 C49 1.238 . S
O53 Co47 2.052 . S
O53 C49 1.241 . S
O54 Co42 2.137 1_545 S
O54 C45 1.247 1_545 S
O55 Co42 2.244 . S
O55 C45 1.272 . S
O55 Co47 2.135 . S
Co56 O57 2.216 . S
Co56 O58 2.091 . S
Co56 O60 2.004 . S
Co56 O66 2.021 . S
Co56 O68 2.137 . S
Co56 O69 2.244 . S
O57 Co56 2.216 . S
O57 C64 1.247 . S
O58 Co56 2.091 . S
O58 C64 1.261 . S
C59 O68 1.247 . S
C59 O69 1.272 . S
O60 Co56 2.004 . S
O60 C65 1.259 . S
Co61 O62 2.061 . S
Co61 O67 2.052 . S
Co61 O69 2.135 . S
O62 Co61 2.061 . S
O62 C65 1.235 . S
C63 O66 1.238 . S
C63 O67 1.241 . S
C64 O57 1.247 . S
C64 O58 1.261 . S
C65 O60 1.259 . S
C65 O62 1.235 . S
O66 Co56 2.021 . S
O66 C63 1.238 . S
O67 Co61 2.052 . S
O67 C63 1.241 . S
O68 Co56 2.137 . S
O68 C59 1.247 . S
O69 Co56 2.244 . S
O69 C59 1.272 . S
O69 Co61 2.135 . S
Co70 O71 2.216 . S
Co70 O72 2.091 . S
Co70 O74 2.004 . S
Co70 O80 2.021 . S
Co70 O82 2.137 . S
Co70 O83 2.244 . S
O71 Co70 2.216 . S
O71 C78 1.247 . S
O72 Co70 2.091 . S
O72 C78 1.261 . S
C73 O82 1.247 . S
C73 O83 1.272 . S
O74 Co70 2.004 . S
O74 C79 1.259 . S
Co75 O76 2.061 . S
Co75 O81 2.052 . S
Co75 O83 2.135 . S
O76 Co75 2.061 . S
O76 C79 1.235 . S
C77 O80 1.238 . S
C77 O81 1.241 . S
C78 O71 1.247 . S
C78 O72 1.261 . S
C79 O74 1.259 . S
C79 O76 1.235 . S
O80 Co70 2.021 . S
O80 C77 1.238 . S
O81 Co75 2.052 . S
O81 C77 1.241 . S
O82 Co70 2.137 . S
O82 C73 1.247 . S
O83 Co70 2.244 . S
O83 C73 1.272 . S
O83 Co75 2.135 . S
Co84 O85 2.216 1_655 S
Co84 O86 2.091 1_655 S
Co84 O88 2.004 . S
Co84 O94 2.021 . S
Co84 O96 2.137 1_655 S
Co84 O97 2.244 . S
O85 Co84 2.216 1_455 S
O85 C92 1.247 . S
O86 Co84 2.091 1_455 S
O86 C92 1.261 . S
C87 O96 1.247 1_655 S
C87 O97 1.272 . S
O88 Co84 2.004 . S
O88 C93 1.259 . S
Co89 O90 2.061 . S
Co89 O95 2.052 . S
Co89 O97 2.135 . S
O90 Co89 2.061 . S
O90 C93 1.235 . S
C91 O94 1.238 . S
C91 O95 1.241 . S
C92 O85 1.247 . S
C92 O86 1.261 . S
C93 O88 1.259 . S
C93 O90 1.235 . S
O94 Co84 2.021 . S
O94 C91 1.238 . S
O95 Co89 2.052 . S
O95 C91 1.241 . S
O96 Co84 2.137 1_455 S
O96 C87 1.247 1_455 S
O97 Co84 2.244 . S
O97 C87 1.272 . S
O97 Co89 2.135 . S
Co98 O99 2.216 1_565 S
Co98 O100 2.091 1_565 S
Co98 O102 2.004 . S
Co98 O108 2.021 . S
Co98 O110 2.137 1_565 S
Co98 O111 2.244 . S
O99 Co98 2.216 1_545 S
O99 C106 1.247 . S
O100 Co98 2.091 1_545 S
O100 C106 1.261 . S
C101 O110 1.247 1_565 S
C101 O111 1.272 . S
O102 Co98 2.004 . S
O102 C107 1.259 . S
Co103 O104 2.061 . S
Co103 O109 2.052 . S
Co103 O111 2.135 . S
O104 Co103 2.061 . S
O104 C107 1.235 . S
C105 O108 1.238 . S
C105 O109 1.241 . S
C106 O99 1.247 . S
C106 O100 1.261 . S
C107 O102 1.259 . S
C107 O104 1.235 . S
O108 Co98 2.021 . S
O108 C105 1.238 . S
O109 Co103 2.052 . S
O109 C105 1.241 . S
O110 Co98 2.137 1_545 S
O110 C101 1.247 1_545 S
O111 Co98 2.244 . S
O111 C101 1.272 . S
O111 Co103 2.135 . S
Co112 O113 2.216 . S
Co112 O114 2.091 . S
Co112 O116 2.004 . S
Co112 O122 2.021 . S
Co112 O124 2.137 . S
Co112 O125 2.244 . S
O113 Co112 2.216 . S
O113 C120 1.247 . S
O114 Co112 2.091 . S
O114 C120 1.261 . S
C115 O124 1.247 . S
C115 O125 1.272 . S
O116 Co112 2.004 . S
O116 C121 1.259 . S
Co117 O118 2.061 . S
Co117 O123 2.052 . S
Co117 O125 2.135 . S
O118 Co117 2.061 . S
O118 C121 1.235 . S
C119 O122 1.238 . S
C119 O123 1.241 . S
C120 O113 1.247 . S
C120 O114 1.261 . S
C121 O116 1.259 . S
C121 O118 1.235 . S
O122 Co112 2.021 . S
O122 C119 1.238 . S
O123 Co117 2.052 . S
O123 C119 1.241 . S
O124 Co112 2.137 . S
O124 C115 1.247 . S
O125 Co112 2.244 . S
O125 C115 1.272 . S
O125 Co117 2.135 . S
Co126 O127 2.216 . S
Co126 O128 2.091 . S
Co126 O130 2.004 . S
Co126 O136 2.021 . S
Co126 O138 2.137 . S
Co126 O139 2.244 . S
O127 Co126 2.216 . S
O127 C134 1.247 . S
O128 Co126 2.091 . S
O128 C134 1.261 . S
C129 O138 1.247 . S
C129 O139 1.272 . S
O130 Co126 2.004 . S
O130 C135 1.259 . S
Co131 O132 2.061 . S
Co131 O137 2.052 . S
Co131 O139 2.135 . S
O132 Co131 2.061 . S
O132 C135 1.235 . S
C133 O136 1.238 . S
C133 O137 1.241 . S
C134 O127 1.247 . S
C134 O128 1.261 . S
C135 O130 1.259 . S
C135 O132 1.235 . S
O136 Co126 2.021 . S
O136 C133 1.238 . S
O137 Co131 2.052 . S
O137 C133 1.241 . S
O138 Co126 2.137 . S
O138 C129 1.247 . S
O139 Co126 2.244 . S
O139 C129 1.272 . S
O139 Co131 2.135 . S
Co140 O141 2.216 1_455 S
Co140 O142 2.091 1_455 S
Co140 O144 2.004 . S
Co140 O150 2.021 . S
Co140 O152 2.137 1_455 S
Co140 O153 2.244 . S
O141 Co140 2.216 1_655 S
O141 C148 1.247 . S
O142 Co140 2.091 1_655 S
O142 C148 1.261 . S
C143 O152 1.247 1_455 S
C143 O153 1.272 . S
O144 Co140 2.004 . S
O144 C149 1.259 . S
Co145 O146 2.061 . S
Co145 O151 2.052 . S
Co145 O153 2.135 . S
O146 Co145 2.061 . S
O146 C149 1.235 . S
C147 O150 1.238 . S
C147 O151 1.241 . S
C148 O141 1.247 . S
C148 O142 1.261 . S
C149 O144 1.259 . S
C149 O146 1.235 . S
O150 Co140 2.021 . S
O150 C147 1.238 . S
O151 Co145 2.052 . S
O151 C147 1.241 . S
O152 Co140 2.137 1_655 S
O152 C143 1.247 1_655 S
O153 Co140 2.244 . S
O153 C143 1.272 . S
O153 Co145 2.135 . S
Co154 O155 2.216 1_545 S
Co154 O156 2.091 1_545 S
Co154 O158 2.004 . S
Co154 O164 2.021 . S
Co154 O166 2.137 1_545 S
Co154 O167 2.244 . S
O155 Co154 2.216 1_565 S
O155 C162 1.247 . S
O156 Co154 2.091 1_565 S
O156 C162 1.261 . S
C157 O166 1.247 1_545 S
C157 O167 1.272 . S
O158 Co154 2.004 . S
O158 C163 1.259 . S
Co159 O160 2.061 . S
Co159 O165 2.052 . S
Co159 O167 2.135 . S
O160 Co159 2.061 . S
O160 C163 1.235 . S
C161 O164 1.238 . S
C161 O165 1.241 . S
C162 O155 1.247 . S
C162 O156 1.261 . S
C163 O158 1.259 . S
C163 O160 1.235 . S
O164 Co154 2.021 . S
O164 C161 1.238 . S
O165 Co159 2.052 . S
O165 C161 1.241 . S
O166 Co154 2.137 1_565 S
O166 C157 1.247 1_565 S
O167 Co154 2.244 . S
O167 C157 1.272 . S
O167 Co159 2.135 . S
Co168 O169 2.216 . S
Co168 O170 2.091 . S
Co168 O172 2.004 . S
Co168 O178 2.021 . S
Co168 O180 2.137 . S
Co168 O181 2.244 . S
O169 Co168 2.216 . S
O169 C176 1.247 . S
O170 Co168 2.091 . S
O170 C176 1.261 . S
C171 O180 1.247 . S
C171 O181 1.272 . S
O172 Co168 2.004 . S
O172 C177 1.259 . S
Co173 O174 2.061 . S
Co173 O179 2.052 . S
Co173 O181 2.135 . S
O174 Co173 2.061 . S
O174 C177 1.235 . S
C175 O178 1.238 . S
C175 O179 1.241 . S
C176 O169 1.247 . S
C176 O170 1.261 . S
C177 O172 1.259 . S
C177 O174 1.235 . S
O178 Co168 2.021 . S
O178 C175 1.238 . S
O179 Co173 2.052 . S
O179 C175 1.241 . S
O180 Co168 2.137 . S
O180 C171 1.247 . S
O181 Co168 2.244 . S
O181 C171 1.272 . S
O181 Co173 2.135 . S
Co182 O183 2.216 . S
Co182 O184 2.091 . S
Co182 O186 2.004 . S
Co182 O192 2.021 . S
Co182 O194 2.137 . S
Co182 O195 2.244 . S
O183 Co182 2.216 . S
O183 C190 1.247 . S
O184 Co182 2.091 . S
O184 C190 1.261 . S
C185 O194 1.247 . S
C185 O195 1.272 . S
O186 Co182 2.004 . S
O186 C191 1.259 . S
Co187 O188 2.061 . S
Co187 O193 2.052 . S
Co187 O195 2.135 . S
O188 Co187 2.061 . S
O188 C191 1.235 . S
C189 O192 1.238 . S
C189 O193 1.241 . S
C190 O183 1.247 . S
C190 O184 1.261 . S
C191 O186 1.259 . S
C191 O188 1.235 . S
O192 Co182 2.021 . S
O192 C189 1.238 . S
O193 Co187 2.052 . S
O193 C189 1.241 . S
O194 Co182 2.137 . S
O194 C185 1.247 . S
O195 Co182 2.244 . S
O195 C185 1.272 . S
O195 Co187 2.135 . S
Co196 O197 2.216 1_455 S
Co196 O198 2.091 1_455 S
Co196 O200 2.004 . S
Co196 O206 2.021 . S
Co196 O208 2.137 1_455 S
Co196 O209 2.244 . S
O197 Co196 2.216 1_655 S
O197 C204 1.247 . S
O198 Co196 2.091 1_655 S
O198 C204 1.261 . S
C199 O208 1.247 1_455 S
C199 O209 1.272 . S
O200 Co196 2.004 . S
O200 C205 1.259 . S
Co201 O202 2.061 . S
Co201 O207 2.052 . S
Co201 O209 2.135 . S
O202 Co201 2.061 . S
O202 C205 1.235 . S
C203 O206 1.238 . S
C203 O207 1.241 . S
C204 O197 1.247 . S
C204 O198 1.261 . S
C205 O200 1.259 . S
C205 O202 1.235 . S
O206 Co196 2.021 . S
O206 C203 1.238 . S
O207 Co201 2.052 . S
O207 C203 1.241 . S
O208 Co196 2.137 1_655 S
O208 C199 1.247 1_655 S
O209 Co196 2.244 . S
O209 C199 1.272 . S
O209 Co201 2.135 . S
Co210 O211 2.216 1_545 S
Co210 O212 2.091 1_545 S
Co210 O214 2.004 . S
Co210 O220 2.021 . S
Co210 O222 2.137 1_545 S
Co210 O223 2.244 . S
O211 Co210 2.216 1_565 S
O211 C218 1.247 . S
O212 Co210 2.091 1_565 S
O212 C218 1.261 . S
C213 O222 1.247 1_545 S
C213 O223 1.272 . S
O214 Co210 2.004 . S
O214 C219 1.259 . S
Co215 O216 2.061 . S
Co215 O221 2.052 . S
Co215 O223 2.135 . S
O216 Co215 2.061 . S
O216 C219 1.235 . S
C217 O220 1.238 . S
C217 O221 1.241 . S
C218 O211 1.247 . S
C218 O212 1.261 . S
C219 O214 1.259 . S
C219 O216 1.235 . S
O220 Co210 2.021 . S
O220 C217 1.238 . S
O221 Co215 2.052 . S
O221 C217 1.241 . S
O222 Co210 2.137 1_565 S
O222 C213 1.247 1_565 S
O223 Co210 2.244 . S
O223 C213 1.272 . S
O223 Co215 2.135 . S
H224 C232 0.950 . S
H225 C237 0.950 . S
H226 C234 0.950 . S
H227 C236 0.950 . S
H228 C238 0.950 . S
H229 C240 0.950 . S
H230 C242 0.950 . S
H231 C243 0.950 . S
C232 H224 0.950 . S
C232 C233 1.386 . S
C232 C234 1.391 . S
C233 C232 1.386 . S
C233 C237 1.393 . S
C234 H226 0.950 . S
C234 C232 1.391 . S
C234 C235 1.400 . S
C235 C234 1.400 . S
C235 C236 1.398 . S
C235 C241 1.491 . S
C236 H227 0.950 . S
C236 C235 1.398 . S
C236 C237 1.391 . S
C237 H225 0.950 . S
C237 C233 1.393 . S
C237 C236 1.391 . S
C238 H228 0.950 . S
C238 C239 1.386 . S
C238 C240 1.391 . S
C239 C238 1.386 . S
C239 C243 1.393 . S
C240 H229 0.950 . S
C240 C238 1.391 . S
C240 C241 1.400 . S
C241 C235 1.491 . S
C241 C240 1.400 . S
C241 C242 1.398 . S
C242 H230 0.950 . S
C242 C241 1.398 . S
C242 C243 1.391 . S
C243 H231 0.950 . S
C243 C239 1.393 . S
C243 C242 1.391 . S
H244 C252 0.950 . S
H245 C257 0.950 . S
H246 C254 0.950 . S
H247 C256 0.950 . S
H248 C258 0.950 . S
H249 C260 0.950 . S
H250 C262 0.950 . S
H251 C263 0.950 . S
C252 H244 0.950 . S
C252 C253 1.386 . S
C252 C254 1.391 . S
C253 C252 1.386 . S
C253 C257 1.393 . S
C254 H246 0.950 . S
C254 C252 1.391 . S
C254 C255 1.400 . S
C255 C254 1.400 . S
C255 C256 1.398 . S
C255 C261 1.491 . S
C256 H247 0.950 . S
C256 C255 1.398 . S
C256 C257 1.391 . S
C257 H245 0.950 . S
C257 C253 1.393 . S
C257 C256 1.391 . S
C258 H248 0.950 . S
C258 C259 1.386 . S
C258 C260 1.391 . S
C259 C258 1.386 . S
C259 C263 1.393 . S
C260 H249 0.950 . S
C260 C258 1.391 . S
C260 C261 1.400 . S
C261 C255 1.491 . S
C261 C260 1.400 . S
C261 C262 1.398 . S
C262 H250 0.950 . S
C262 C261 1.398 . S
C262 C263 1.391 . S
C263 H251 0.950 . S
C263 C259 1.393 . S
C263 C262 1.391 . S
H264 C272 0.950 . S
H265 C277 0.950 . S
H266 C274 0.950 . S
H267 C276 0.950 . S
H268 C278 0.950 . S
H269 C280 0.950 . S
H270 C282 0.950 . S
H271 C283 0.950 . S
C272 H264 0.950 . S
C272 C273 1.386 . S
C272 C274 1.391 . S
C273 C272 1.386 . S
C273 C277 1.393 . S
C274 H266 0.950 . S
C274 C272 1.391 . S
C274 C275 1.400 . S
C275 C274 1.400 . S
C275 C276 1.398 . S
C275 C281 1.491 . S
C276 H267 0.950 . S
C276 C275 1.398 . S
C276 C277 1.391 . S
C277 H265 0.950 . S
C277 C273 1.393 . S
C277 C276 1.391 . S
C278 H268 0.950 . S
C278 C279 1.386 . S
C278 C280 1.391 . S
C279 C278 1.386 . S
C279 C283 1.393 . S
C280 H269 0.950 . S
C280 C278 1.391 . S
C280 C281 1.400 . S
C281 C275 1.491 . S
C281 C280 1.400 . S
C281 C282 1.398 . S
C282 H270 0.950 . S
C282 C281 1.398 . S
C282 C283 1.391 . S
C283 H271 0.950 . S
C283 C279 1.393 . S
C283 C282 1.391 . S
H284 C292 0.950 . S
H285 C297 0.950 . S
H286 C294 0.950 . S
H287 C296 0.950 . S
H288 C298 0.950 . S
H289 C300 0.950 . S
H290 C302 0.950 . S
H291 C303 0.950 . S
C292 H284 0.950 . S
C292 C293 1.386 . S
C292 C294 1.391 . S
C293 C292 1.386 . S
C293 C297 1.393 . S
C294 H286 0.950 . S
C294 C292 1.391 . S
C294 C295 1.400 . S
C295 C294 1.400 . S
C295 C296 1.398 . S
C295 C301 1.491 . S
C296 H287 0.950 . S
C296 C295 1.398 . S
C296 C297 1.391 . S
C297 H285 0.950 . S
C297 C293 1.393 . S
C297 C296 1.391 . S
C298 H288 0.950 . S
C298 C299 1.386 . S
C298 C300 1.391 . S
C299 C298 1.386 . S
C299 C303 1.393 . S
C300 H289 0.950 . S
C300 C298 1.391 . S
C300 C301 1.400 . S
C301 C295 1.491 . S
C301 C300 1.400 . S
C301 C302 1.398 . S
C302 H290 0.950 . S
C302 C301 1.398 . S
C302 C303 1.391 . S
C303 H291 0.950 . S
C303 C299 1.393 . S
C303 C302 1.391 . S
H304 C312 0.950 . S
H305 C317 0.950 . S
H306 C314 0.950 . S
H307 C316 0.950 . S
H308 C318 0.950 . S
H309 C320 0.950 . S
H310 C322 0.950 . S
H311 C323 0.950 . S
C312 H304 0.950 . S
C312 C313 1.386 . S
C312 C314 1.391 . S
C313 C312 1.386 . S
C313 C317 1.393 . S
C314 H306 0.950 . S
C314 C312 1.391 . S
C314 C315 1.400 . S
C315 C314 1.400 . S
C315 C316 1.398 . S
C315 C321 1.491 . S
C316 H307 0.950 . S
C316 C315 1.398 . S
C316 C317 1.391 . S
C317 H305 0.950 . S
C317 C313 1.393 . S
C317 C316 1.391 . S
C318 H308 0.950 . S
C318 C319 1.386 . S
C318 C320 1.391 . S
C319 C318 1.386 . S
C319 C323 1.393 . S
C320 H309 0.950 . S
C320 C318 1.391 . S
C320 C321 1.400 . S
C321 C315 1.491 . S
C321 C320 1.400 . S
C321 C322 1.398 . S
C322 H310 0.950 . S
C322 C321 1.398 . S
C322 C323 1.391 . S
C323 H311 0.950 . S
C323 C319 1.393 . S
C323 C322 1.391 . S
H324 C332 0.950 . S
H325 C337 0.950 . S
H326 C334 0.950 . S
H327 C336 0.950 . S
H328 C338 0.950 . S
H329 C340 0.950 . S
H330 C342 0.950 . S
H331 C343 0.950 . S
C332 H324 0.950 . S
C332 C333 1.386 . S
C332 C334 1.391 . S
C333 C332 1.386 . S
C333 C337 1.393 . S
C334 H326 0.950 . S
C334 C332 1.391 . S
C334 C335 1.400 . S
C335 C334 1.400 . S
C335 C336 1.398 . S
C335 C341 1.491 . S
C336 H327 0.950 . S
C336 C335 1.398 . S
C336 C337 1.391 . S
C337 H325 0.950 . S
C337 C333 1.393 . S
C337 C336 1.391 . S
C338 H328 0.950 . S
C338 C339 1.386 . S
C338 C340 1.391 . S
C339 C338 1.386 . S
C339 C343 1.393 . S
C340 H329 0.950 . S
C340 C338 1.391 . S
C340 C341 1.400 . S
C341 C335 1.491 . S
C341 C340 1.400 . S
C341 C342 1.398 . S
C342 H330 0.950 . S
C342 C341 1.398 . S
C342 C343 1.391 . S
C343 H331 0.950 . S
C343 C339 1.393 . S
C343 C342 1.391 . S
H344 C352 0.950 . S
H345 C357 0.950 . S
H346 C354 0.950 . S
H347 C356 0.950 . S
H348 C358 0.950 . S
H349 C360 0.950 . S
H350 C362 0.950 . S
H351 C363 0.950 . S
C352 H344 0.950 . S
C352 C353 1.386 . S
C352 C354 1.391 . S
C353 C352 1.386 . S
C353 C357 1.393 . S
C354 H346 0.950 . S
C354 C352 1.391 . S
C354 C355 1.400 . S
C355 C354 1.400 . S
C355 C356 1.398 . S
C355 C361 1.491 . S
C356 H347 0.950 . S
C356 C355 1.398 . S
C356 C357 1.391 . S
C357 H345 0.950 . S
C357 C353 1.393 . S
C357 C356 1.391 . S
C358 H348 0.950 . S
C358 C359 1.386 . S
C358 C360 1.391 . S
C359 C358 1.386 . S
C359 C363 1.393 . S
C360 H349 0.950 . S
C360 C358 1.391 . S
C360 C361 1.400 . S
C361 C355 1.491 . S
C361 C360 1.400 . S
C361 C362 1.398 . S
C362 H350 0.950 . S
C362 C361 1.398 . S
C362 C363 1.391 . S
C363 H351 0.950 . S
C363 C359 1.393 . S
C363 C362 1.391 . S
H364 C372 0.950 . S
H365 C377 0.950 . S
H366 C374 0.950 . S
H367 C376 0.950 . S
H368 C378 0.950 . S
H369 C380 0.950 . S
H370 C382 0.950 . S
H371 C383 0.950 . S
C372 H364 0.950 . S
C372 C373 1.386 . S
C372 C374 1.391 . S
C373 C372 1.386 . S
C373 C377 1.393 . S
C374 H366 0.950 . S
C374 C372 1.391 . S
C374 C375 1.400 . S
C375 C374 1.400 . S
C375 C376 1.398 . S
C375 C381 1.491 . S
C376 H367 0.950 . S
C376 C375 1.398 . S
C376 C377 1.391 . S
C377 H365 0.950 . S
C377 C373 1.393 . S
C377 C376 1.391 . S
C378 H368 0.950 . S
C378 C379 1.386 . S
C378 C380 1.391 . S
C379 C378 1.386 . S
C379 C383 1.393 . S
C380 H369 0.950 . S
C380 C378 1.391 . S
C380 C381 1.400 . S
C381 C375 1.491 . S
C381 C380 1.400 . S
C381 C382 1.398 . S
C382 H370 0.950 . S
C382 C381 1.398 . S
C382 C383 1.391 . S
C383 H371 0.950 . S
C383 C379 1.393 . S
C383 C382 1.391 . S
H384 C392 0.950 . S
H385 C397 0.950 . S
H386 C394 0.950 . S
H387 C396 0.950 . S
H388 C398 0.950 . S
H389 C400 0.950 . S
H390 C402 0.950 . S
H391 C403 0.950 . S
C392 H384 0.950 . S
C392 C393 1.386 . S
C392 C394 1.391 . S
C393 C392 1.386 . S
C393 C397 1.393 . S
C394 H386 0.950 . S
C394 C392 1.391 . S
C394 C395 1.400 . S
C395 C394 1.400 . S
C395 C396 1.398 . S
C395 C401 1.491 . S
C396 H387 0.950 . S
C396 C395 1.398 . S
C396 C397 1.391 . S
C397 H385 0.950 . S
C397 C393 1.393 . S
C397 C396 1.391 . S
C398 H388 0.950 . S
C398 C399 1.386 . S
C398 C400 1.391 . S
C399 C398 1.386 . S
C399 C403 1.393 . S
C400 H389 0.950 . S
C400 C398 1.391 . S
C400 C401 1.400 . S
C401 C395 1.491 . S
C401 C400 1.400 . S
C401 C402 1.398 . S
C402 H390 0.950 . S
C402 C401 1.398 . S
C402 C403 1.391 . S
C403 H391 0.950 . S
C403 C399 1.393 . S
C403 C402 1.391 . S
H404 C412 0.950 . S
H405 C417 0.950 . S
H406 C414 0.950 . S
H407 C416 0.950 . S
H408 C418 0.950 . S
H409 C420 0.950 . S
H410 C422 0.950 . S
H411 C423 0.950 . S
C412 H404 0.950 . S
C412 C413 1.386 . S
C412 C414 1.391 . S
C413 C412 1.386 . S
C413 C417 1.393 . S
C414 H406 0.950 . S
C414 C412 1.391 . S
C414 C415 1.400 . S
C415 C414 1.400 . S
C415 C416 1.398 . S
C415 C421 1.491 . S
C416 H407 0.950 . S
C416 C415 1.398 . S
C416 C417 1.391 . S
C417 H405 0.950 . S
C417 C413 1.393 . S
C417 C416 1.391 . S
C418 H408 0.950 . S
C418 C419 1.386 . S
C418 C420 1.391 . S
C419 C418 1.386 . S
C419 C423 1.393 . S
C420 H409 0.950 . S
C420 C418 1.391 . S
C420 C421 1.400 . S
C421 C415 1.491 . S
C421 C420 1.400 . S
C421 C422 1.398 . S
C422 H410 0.950 . S
C422 C421 1.398 . S
C422 C423 1.391 . S
C423 H411 0.950 . S
C423 C419 1.393 . S
C423 C422 1.391 . S
H424 C432 0.950 . S
H425 C437 0.950 . S
H426 C434 0.950 . S
H427 C436 0.950 . S
H428 C438 0.950 . S
H429 C440 0.950 . S
H430 C442 0.950 . S
H431 C443 0.950 . S
C432 H424 0.950 . S
C432 C433 1.386 . S
C432 C434 1.391 . S
C433 C432 1.386 . S
C433 C437 1.393 . S
C434 H426 0.950 . S
C434 C432 1.391 . S
C434 C435 1.400 . S
C435 C434 1.400 . S
C435 C436 1.398 . S
C435 C441 1.491 . S
C436 H427 0.950 . S
C436 C435 1.398 . S
C436 C437 1.391 . S
C437 H425 0.950 . S
C437 C433 1.393 . S
C437 C436 1.391 . S
C438 H428 0.950 . S
C438 C439 1.386 . S
C438 C440 1.391 . S
C439 C438 1.386 . S
C439 C443 1.393 . S
C440 H429 0.950 . S
C440 C438 1.391 . S
C440 C441 1.400 . S
C441 C435 1.491 . S
C441 C440 1.400 . S
C441 C442 1.398 . S
C442 H430 0.950 . S
C442 C441 1.398 . S
C442 C443 1.391 . S
C443 H431 0.950 . S
C443 C439 1.393 . S
C443 C442 1.391 . S
H444 C452 0.950 . S
H445 C457 0.950 . S
H446 C454 0.950 . S
H447 C456 0.950 . S
H448 C458 0.950 . S
H449 C460 0.950 . S
H450 C462 0.950 . S
H451 C463 0.950 . S
C452 H444 0.950 . S
C452 C453 1.386 . S
C452 C454 1.391 . S
C453 C452 1.386 . S
C453 C457 1.393 . S
C454 H446 0.950 . S
C454 C452 1.391 . S
C454 C455 1.400 . S
C455 C454 1.400 . S
C455 C456 1.398 . S
C455 C461 1.491 . S
C456 H447 0.950 . S
C456 C455 1.398 . S
C456 C457 1.391 . S
C457 H445 0.950 . S
C457 C453 1.393 . S
C457 C456 1.391 . S
C458 H448 0.950 . S
C458 C459 1.386 . S
C458 C460 1.391 . S
C459 C458 1.386 . S
C459 C463 1.393 . S
C460 H449 0.950 . S
C460 C458 1.391 . S
C460 C461 1.400 . S
C461 C455 1.491 . S
C461 C460 1.400 . S
C461 C462 1.398 . S
C462 H450 0.950 . S
C462 C461 1.398 . S
C462 C463 1.391 . S
C463 H451 0.950 . S
C463 C459 1.393 . S
C463 C462 1.391 . S
H464 C472 0.950 . S
H465 C477 0.950 . S
H466 C474 0.950 . S
H467 C476 0.950 . S
H468 C478 0.950 . S
H469 C480 0.950 . S
H470 C482 0.950 . S
H471 C483 0.950 . S
C472 H464 0.950 . S
C472 C473 1.386 . S
C472 C474 1.391 . S
C473 C472 1.386 . S
C473 C477 1.393 . S
C474 H466 0.950 . S
C474 C472 1.391 . S
C474 C475 1.400 . S
C475 C474 1.400 . S
C475 C476 1.398 . S
C475 C481 1.491 . S
C476 H467 0.950 . S
C476 C475 1.398 . S
C476 C477 1.391 . S
C477 H465 0.950 . S
C477 C473 1.393 . S
C477 C476 1.391 . S
C478 H468 0.950 . S
C478 C479 1.386 . S
C478 C480 1.391 . S
C479 C478 1.386 . S
C479 C483 1.393 . S
C480 H469 0.950 . S
C480 C478 1.391 . S
C480 C481 1.400 . S
C481 C475 1.491 . S
C481 C480 1.400 . S
C481 C482 1.398 . S
C482 H470 0.950 . S
C482 C481 1.398 . S
C482 C483 1.391 . S
C483 H471 0.950 . S
C483 C479 1.393 . S
C483 C482 1.391 . S
H484 C492 0.950 . S
H485 C497 0.950 . S
H486 C494 0.950 . S
H487 C496 0.950 . S
H488 C498 0.950 . S
H489 C500 0.950 . S
H490 C502 0.950 . S
H491 C503 0.950 . S
C492 H484 0.950 . S
C492 C493 1.386 . S
C492 C494 1.391 . S
C493 C492 1.386 . S
C493 C497 1.393 . S
C494 H486 0.950 . S
C494 C492 1.391 . S
C494 C495 1.400 . S
C495 C494 1.400 . S
C495 C496 1.398 . S
C495 C501 1.491 . S
C496 H487 0.950 . S
C496 C495 1.398 . S
C496 C497 1.391 . S
C497 H485 0.950 . S
C497 C493 1.393 . S
C497 C496 1.391 . S
C498 H488 0.950 . S
C498 C499 1.386 . S
C498 C500 1.391 . S
C499 C498 1.386 . S
C499 C503 1.393 . S
C500 H489 0.950 . S
C500 C498 1.391 . S
C500 C501 1.400 . S
C501 C495 1.491 . S
C501 C500 1.400 . S
C501 C502 1.398 . S
C502 H490 0.950 . S
C502 C501 1.398 . S
C502 C503 1.391 . S
C503 H491 0.950 . S
C503 C499 1.393 . S
C503 C502 1.391 . S
H504 C512 0.950 . S
H505 C517 0.950 . S
H506 C514 0.950 . S
H507 C516 0.950 . S
H508 C518 0.950 . S
H509 C520 0.950 . S
H510 C522 0.950 . S
H511 C523 0.950 . S
C512 H504 0.950 . S
C512 C513 1.386 . S
C512 C514 1.391 . S
C513 C512 1.386 . S
C513 C517 1.393 . S
C514 H506 0.950 . S
C514 C512 1.391 . S
C514 C515 1.400 . S
C515 C514 1.400 . S
C515 C516 1.398 . S
C515 C521 1.491 . S
C516 H507 0.950 . S
C516 C515 1.398 . S
C516 C517 1.391 . S
C517 H505 0.950 . S
C517 C513 1.393 . S
C517 C516 1.391 . S
C518 H508 0.950 . S
C518 C519 1.386 . S
C518 C520 1.391 . S
C519 C518 1.386 . S
C519 C523 1.393 . S
C520 H509 0.950 . S
C520 C518 1.391 . S
C520 C521 1.400 . S
C521 C515 1.491 . S
C521 C520 1.400 . S
C521 C522 1.398 . S
C522 H510 0.950 . S
C522 C521 1.398 . S
C522 C523 1.391 . S
C523 H511 0.950 . S
C523 C519 1.393 . S
C523 C522 1.391 . S
H524 C532 0.950 . S
H525 C537 0.950 . S
H526 C534 0.950 . S
H527 C536 0.950 . S
H528 C538 0.950 . S
H529 C540 0.950 . S
H530 C542 0.950 . S
H531 C543 0.950 . S
C532 H524 0.950 . S
C532 C533 1.386 . S
C532 C534 1.391 . S
C533 C532 1.386 . S
C533 C537 1.393 . S
C534 H526 0.950 . S
C534 C532 1.391 . S
C534 C535 1.400 . S
C535 C534 1.400 . S
C535 C536 1.398 . S
C535 C541 1.491 . S
C536 H527 0.950 . S
C536 C535 1.398 . S
C536 C537 1.391 . S
C537 H525 0.950 . S
C537 C533 1.393 . S
C537 C536 1.391 . S
C538 H528 0.950 . S
C538 C539 1.386 . S
C538 C540 1.391 . S
C539 C538 1.386 . S
C539 C543 1.393 . S
C540 H529 0.950 . S
C540 C538 1.391 . S
C540 C541 1.400 . S
C541 C535 1.491 . S
C541 C540 1.400 . S
C541 C542 1.398 . S
C542 H530 0.950 . S
C542 C541 1.398 . S
C542 C543 1.391 . S
C543 H531 0.950 . S
C543 C539 1.393 . S
C543 C542 1.391 . S
H544 C552 0.950 . S
H545 C557 0.950 . S
H546 C554 0.950 . S
H547 C556 0.950 . S
H548 C558 0.950 . S
H549 C560 0.950 . S
H550 C562 0.950 . S
H551 C563 0.950 . S
C552 H544 0.950 . S
C552 C553 1.386 . S
C552 C554 1.391 . S
C553 C552 1.386 . S
C553 C557 1.393 . S
C554 H546 0.950 . S
C554 C552 1.391 . S
C554 C555 1.400 . S
C555 C554 1.400 . S
C555 C556 1.398 . S
C555 C561 1.491 . S
C556 H547 0.950 . S
C556 C555 1.398 . S
C556 C557 1.391 . S
C557 H545 0.950 . S
C557 C553 1.393 . S
C557 C556 1.391 . S
C558 H548 0.950 . S
C558 C559 1.386 . S
C558 C560 1.391 . S
C559 C558 1.386 . S
C559 C563 1.393 . S
C560 H549 0.950 . S
C560 C558 1.391 . S
C560 C561 1.400 . S
C561 C555 1.491 . S
C561 C560 1.400 . S
C561 C562 1.398 . S
C562 H550 0.950 . S
C562 C561 1.398 . S
C562 C563 1.391 . S
C563 H551 0.950 . S
C563 C559 1.393 . S
C563 C562 1.391 . S
H564 C572 0.950 . S
H565 C577 0.950 . S
H566 C574 0.950 . S
H567 C576 0.950 . S
H568 C578 0.950 . S
H569 C580 0.950 . S
H570 C582 0.950 . S
H571 C583 0.950 . S
C572 H564 0.950 . S
C572 C573 1.386 . S
C572 C574 1.391 . S
C573 C572 1.386 . S
C573 C577 1.393 . S
C574 H566 0.950 . S
C574 C572 1.391 . S
C574 C575 1.400 . S
C575 C574 1.400 . S
C575 C576 1.398 . S
C575 C581 1.491 . S
C576 H567 0.950 . S
C576 C575 1.398 . S
C576 C577 1.391 . S
C577 H565 0.950 . S
C577 C573 1.393 . S
C577 C576 1.391 . S
C578 H568 0.950 . S
C578 C579 1.386 . S
C578 C580 1.391 . S
C579 C578 1.386 . S
C579 C583 1.393 . S
C580 H569 0.950 . S
C580 C578 1.391 . S
C580 C581 1.400 . S
C581 C575 1.491 . S
C581 C580 1.400 . S
C581 C582 1.398 . S
C582 H570 0.950 . S
C582 C581 1.398 . S
C582 C583 1.391 . S
C583 H571 0.950 . S
C583 C579 1.393 . S
C583 C582 1.391 . S
H584 C592 0.950 . S
H585 C597 0.950 . S
H586 C594 0.950 . S
H587 C596 0.950 . S
H588 C598 0.950 . S
H589 C600 0.950 . S
H590 C602 0.950 . S
H591 C603 0.950 . S
C592 H584 0.950 . S
C592 C593 1.386 . S
C592 C594 1.391 . S
C593 C592 1.386 . S
C593 C597 1.393 . S
C594 H586 0.950 . S
C594 C592 1.391 . S
C594 C595 1.400 . S
C595 C594 1.400 . S
C595 C596 1.398 . S
C595 C601 1.491 . S
C596 H587 0.950 . S
C596 C595 1.398 . S
C596 C597 1.391 . S
C597 H585 0.950 . S
C597 C593 1.393 . S
C597 C596 1.391 . S
C598 H588 0.950 . S
C598 C599 1.386 . S
C598 C600 1.391 . S
C599 C598 1.386 . S
C599 C603 1.393 . S
C600 H589 0.950 . S
C600 C598 1.391 . S
C600 C601 1.400 . S
C601 C595 1.491 . S
C601 C600 1.400 . S
C601 C602 1.398 . S
C602 H590 0.950 . S
C602 C601 1.398 . S
C602 C603 1.391 . S
C603 H591 0.950 . S
C603 C599 1.393 . S
C603 C602 1.391 . S
H604 C612 0.950 . S
H605 C617 0.950 . S
H606 C614 0.950 . S
H607 C616 0.950 . S
H608 C618 0.950 . S
H609 C620 0.950 . S
H610 C622 0.950 . S
H611 C623 0.950 . S
C612 H604 0.950 . S
C612 C613 1.386 . S
C612 C614 1.391 . S
C613 C612 1.386 . S
C613 C617 1.393 . S
C614 H606 0.950 . S
C614 C612 1.391 . S
C614 C615 1.400 . S
C615 C614 1.400 . S
C615 C616 1.398 . S
C615 C621 1.491 . S
C616 H607 0.950 . S
C616 C615 1.398 . S
C616 C617 1.391 . S
C617 H605 0.950 . S
C617 C613 1.393 . S
C617 C616 1.391 . S
C618 H608 0.950 . S
C618 C619 1.386 . S
C618 C620 1.391 . S
C619 C618 1.386 . S
C619 C623 1.393 . S
C620 H609 0.950 . S
C620 C618 1.391 . S
C620 C621 1.400 . S
C621 C615 1.491 . S
C621 C620 1.400 . S
C621 C622 1.398 . S
C622 H610 0.950 . S
C622 C621 1.398 . S
C622 C623 1.391 . S
C623 H611 0.950 . S
C623 C619 1.393 . S
C623 C622 1.391 . S
H624 C632 0.950 . S
H625 C637 0.950 . S
H626 C634 0.950 . S
H627 C636 0.950 . S
H628 C638 0.950 . S
H629 C640 0.950 . S
H630 C642 0.950 . S
H631 C643 0.950 . S
C632 H624 0.950 . S
C632 C633 1.386 . S
C632 C634 1.391 . S
C633 C632 1.386 . S
C633 C637 1.393 . S
C634 H626 0.950 . S
C634 C632 1.391 . S
C634 C635 1.400 . S
C635 C634 1.400 . S
C635 C636 1.398 . S
C635 C641 1.491 . S
C636 H627 0.950 . S
C636 C635 1.398 . S
C636 C637 1.391 . S
C637 H625 0.950 . S
C637 C633 1.393 . S
C637 C636 1.391 . S
C638 H628 0.950 . S
C638 C639 1.386 . S
C638 C640 1.391 . S
C639 C638 1.386 . S
C639 C643 1.393 . S
C640 H629 0.950 . S
C640 C638 1.391 . S
C640 C641 1.400 . S
C641 C635 1.491 . S
C641 C640 1.400 . S
C641 C642 1.398 . S
C642 H630 0.950 . S
C642 C641 1.398 . S
C642 C643 1.391 . S
C643 H631 0.950 . S
C643 C639 1.393 . S
C643 C642 1.391 . S
H644 C652 0.950 . S
H645 C657 0.950 . S
H646 C654 0.950 . S
H647 C656 0.950 . S
H648 C658 0.950 . S
H649 C660 0.950 . S
H650 C662 0.950 . S
H651 C663 0.950 . S
C652 H644 0.950 . S
C652 C653 1.386 . S
C652 C654 1.391 . S
C653 C652 1.386 . S
C653 C657 1.393 . S
C654 H646 0.950 . S
C654 C652 1.391 . S
C654 C655 1.400 . S
C655 C654 1.400 . S
C655 C656 1.398 . S
C655 C661 1.491 . S
C656 H647 0.950 . S
C656 C655 1.398 . S
C656 C657 1.391 . S
C657 H645 0.950 . S
C657 C653 1.393 . S
C657 C656 1.391 . S
C658 H648 0.950 . S
C658 C659 1.386 . S
C658 C660 1.391 . S
C659 C658 1.386 . S
C659 C663 1.393 . S
C660 H649 0.950 . S
C660 C658 1.391 . S
C660 C661 1.400 . S
C661 C655 1.491 . S
C661 C660 1.400 . S
C661 C662 1.398 . S
C662 H650 0.950 . S
C662 C661 1.398 . S
C662 C663 1.391 . S
C663 H651 0.950 . S
C663 C659 1.393 . S
C663 C662 1.391 . S
H664 C672 0.950 . S
H665 C677 0.950 . S
H666 C674 0.950 . S
H667 C676 0.950 . S
H668 C678 0.950 . S
H669 C680 0.950 . S
H670 C682 0.950 . S
H671 C683 0.950 . S
C672 H664 0.950 . S
C672 C673 1.386 . S
C672 C674 1.391 . S
C673 C672 1.386 . S
C673 C677 1.393 . S
C674 H666 0.950 . S
C674 C672 1.391 . S
C674 C675 1.400 . S
C675 C674 1.400 . S
C675 C676 1.398 . S
C675 C681 1.491 . S
C676 H667 0.950 . S
C676 C675 1.398 . S
C676 C677 1.391 . S
C677 H665 0.950 . S
C677 C673 1.393 . S
C677 C676 1.391 . S
C678 H668 0.950 . S
C678 C679 1.386 . S
C678 C680 1.391 . S
C679 C678 1.386 . S
C679 C683 1.393 . S
C680 H669 0.950 . S
C680 C678 1.391 . S
C680 C681 1.400 . S
C681 C675 1.491 . S
C681 C680 1.400 . S
C681 C682 1.398 . S
C682 H670 0.950 . S
C682 C681 1.398 . S
C682 C683 1.391 . S
C683 H671 0.950 . S
C683 C679 1.393 . S
C683 C682 1.391 . S
H684 C692 0.950 . S
H685 C697 0.950 . S
H686 C694 0.950 . S
H687 C696 0.950 . S
H688 C698 0.950 . S
H689 C700 0.950 . S
H690 C702 0.950 . S
H691 C703 0.950 . S
C692 H684 0.950 . S
C692 C693 1.386 . S
C692 C694 1.391 . S
C693 C692 1.386 . S
C693 C697 1.393 . S
C694 H686 0.950 . S
C694 C692 1.391 . S
C694 C695 1.400 . S
C695 C694 1.400 . S
C695 C696 1.398 . S
C695 C701 1.491 . S
C696 H687 0.950 . S
C696 C695 1.398 . S
C696 C697 1.391 . S
C697 H685 0.950 . S
C697 C693 1.393 . S
C697 C696 1.391 . S
C698 H688 0.950 . S
C698 C699 1.386 . S
C698 C700 1.391 . S
C699 C698 1.386 . S
C699 C703 1.393 . S
C700 H689 0.950 . S
C700 C698 1.391 . S
C700 C701 1.400 . S
C701 C695 1.491 . S
C701 C700 1.400 . S
C701 C702 1.398 . S
C702 H690 0.950 . S
C702 C701 1.398 . S
C702 C703 1.391 . S
C703 H691 0.950 . S
C703 C699 1.393 . S
C703 C702 1.391 . S
H704 C712 0.950 . S
H705 C717 0.950 . S
H706 C714 0.950 . S
H707 C716 0.950 . S
H708 C718 0.950 . S
H709 C720 0.950 . S
H710 C722 0.950 . S
H711 C723 0.950 . S
C712 H704 0.950 . S
C712 C713 1.386 . S
C712 C714 1.391 . S
C713 C712 1.386 . S
C713 C717 1.393 . S
C714 H706 0.950 . S
C714 C712 1.391 . S
C714 C715 1.400 . S
C715 C714 1.400 . S
C715 C716 1.398 . S
C715 C721 1.491 1_554 S
C716 H707 0.950 . S
C716 C715 1.398 . S
C716 C717 1.391 . S
C717 H705 0.950 . S
C717 C713 1.393 . S
C717 C716 1.391 . S
C718 H708 0.950 . S
C718 C719 1.386 . S
C718 C720 1.391 . S
C719 C718 1.386 . S
C719 C723 1.393 . S
C720 H709 0.950 . S
C720 C718 1.391 . S
C720 C721 1.400 . S
C721 C715 1.491 1_556 S
C721 C720 1.400 . S
C721 C722 1.398 . S
C722 H710 0.950 . S
C722 C721 1.398 . S
C722 C723 1.391 . S
C723 H711 0.950 . S
C723 C719 1.393 . S
C723 C722 1.391 . S
H724 C732 0.950 . S
H725 C737 0.950 . S
H726 C734 0.950 . S
H727 C736 0.950 . S
H728 C738 0.950 . S
H729 C740 0.950 . S
H730 C742 0.950 . S
H731 C743 0.950 . S
C732 H724 0.950 . S
C732 C733 1.386 . S
C732 C734 1.391 . S
C733 C732 1.386 . S
C733 C737 1.393 . S
C734 H726 0.950 . S
C734 C732 1.391 . S
C734 C735 1.400 . S
C735 C734 1.400 . S
C735 C736 1.398 . S
C735 C741 1.491 . S
C736 H727 0.950 . S
C736 C735 1.398 . S
C736 C737 1.391 . S
C737 H725 0.950 . S
C737 C733 1.393 . S
C737 C736 1.391 . S
C738 H728 0.950 . S
C738 C739 1.386 . S
C738 C740 1.391 . S
C739 C738 1.386 . S
C739 C743 1.393 . S
C740 H729 0.950 . S
C740 C738 1.391 . S
C740 C741 1.400 . S
C741 C735 1.491 . S
C741 C740 1.400 . S
C741 C742 1.398 . S
C742 H730 0.950 . S
C742 C741 1.398 . S
C742 C743 1.391 . S
C743 H731 0.950 . S
C743 C739 1.393 . S
C743 C742 1.391 . S
H744 C752 0.950 . S
H745 C757 0.950 . S
H746 C754 0.950 . S
H747 C756 0.950 . S
H748 C758 0.950 . S
H749 C760 0.950 . S
H750 C762 0.950 . S
H751 C763 0.950 . S
C752 H744 0.950 . S
C752 C753 1.386 1_455 S
C752 C754 1.391 . S
C753 C752 1.386 1_655 S
C753 C757 1.393 . S
C754 H746 0.950 . S
C754 C752 1.391 . S
C754 C755 1.400 1_455 S
C755 C754 1.400 1_655 S
C755 C756 1.398 . S
C755 C761 1.491 1_554 S
C756 H747 0.950 . S
C756 C755 1.398 . S
C756 C757 1.391 . S
C757 H745 0.950 . S
C757 C753 1.393 . S
C757 C756 1.391 . S
C758 H748 0.950 . S
C758 C759 1.386 . S
C758 C760 1.391 . S
C759 C758 1.386 . S
C759 C763 1.393 1_655 S
C760 H749 0.950 . S
C760 C758 1.391 . S
C760 C761 1.400 . S
C761 C755 1.491 1_556 S
C761 C760 1.400 . S
C761 C762 1.398 1_655 S
C762 H750 0.950 . S
C762 C761 1.398 1_455 S
C762 C763 1.391 . S
C763 H751 0.950 . S
C763 C759 1.393 1_455 S
C763 C762 1.391 . S
H764 C772 0.950 . S
H765 C777 0.950 . S
H766 C774 0.950 . S
H767 C776 0.950 . S
H768 C778 0.950 . S
H769 C780 0.950 . S
H770 C782 0.950 . S
H771 C783 0.950 . S
C772 H764 0.950 . S
C772 C773 1.386 . S
C772 C774 1.391 . S
C773 C772 1.386 . S
C773 C777 1.393 . S
C774 H766 0.950 . S
C774 C772 1.391 . S
C774 C775 1.400 . S
C775 C774 1.400 . S
C775 C776 1.398 . S
C775 C781 1.491 . S
C776 H767 0.950 . S
C776 C775 1.398 . S
C776 C777 1.391 . S
C777 H765 0.950 . S
C777 C773 1.393 . S
C777 C776 1.391 . S
C778 H768 0.950 . S
C778 C779 1.386 . S
C778 C780 1.391 . S
C779 C778 1.386 . S
C779 C783 1.393 . S
C780 H769 0.950 . S
C780 C778 1.391 . S
C780 C781 1.400 . S
C781 C775 1.491 . S
C781 C780 1.400 . S
C781 C782 1.398 . S
C782 H770 0.950 . S
C782 C781 1.398 . S
C782 C783 1.391 . S
C783 H771 0.950 . S
C783 C779 1.393 . S
C783 C782 1.391 . S
H784 C792 0.950 . S
H785 C797 0.950 . S
H786 C794 0.950 . S
H787 C796 0.950 . S
H788 C798 0.950 . S
H789 C800 0.950 . S
H790 C802 0.950 . S
H791 C803 0.950 . S
C792 H784 0.950 . S
C792 C793 1.386 . S
C792 C794 1.391 . S
C793 C792 1.386 . S
C793 C797 1.393 . S
C794 H786 0.950 . S
C794 C792 1.391 . S
C794 C795 1.400 . S
C795 C794 1.400 . S
C795 C796 1.398 . S
C795 C801 1.491 1_556 S
C796 H787 0.950 . S
C796 C795 1.398 . S
C796 C797 1.391 . S
C797 H785 0.950 . S
C797 C793 1.393 . S
C797 C796 1.391 . S
C798 H788 0.950 . S
C798 C799 1.386 . S
C798 C800 1.391 . S
C799 C798 1.386 . S
C799 C803 1.393 . S
C800 H789 0.950 . S
C800 C798 1.391 . S
C800 C801 1.400 . S
C801 C795 1.491 1_554 S
C801 C800 1.400 . S
C801 C802 1.398 . S
C802 H790 0.950 . S
C802 C801 1.398 . S
C802 C803 1.391 . S
C803 H791 0.950 . S
C803 C799 1.393 . S
C803 C802 1.391 . S
H804 C812 0.950 . S
H805 C817 0.950 . S
H806 C814 0.950 . S
H807 C816 0.950 . S
H808 C818 0.950 . S
H809 C820 0.950 . S
H810 C822 0.950 . S
H811 C823 0.950 . S
C812 H804 0.950 . S
C812 C813 1.386 . S
C812 C814 1.391 . S
C813 C812 1.386 . S
C813 C817 1.393 . S
C814 H806 0.950 . S
C814 C812 1.391 . S
C814 C815 1.400 . S
C815 C814 1.400 . S
C815 C816 1.398 . S
C815 C821 1.491 . S
C816 H807 0.950 . S
C816 C815 1.398 . S
C816 C817 1.391 . S
C817 H805 0.950 . S
C817 C813 1.393 . S
C817 C816 1.391 . S
C818 H808 0.950 . S
C818 C819 1.386 . S
C818 C820 1.391 . S
C819 C818 1.386 . S
C819 C823 1.393 . S
C820 H809 0.950 . S
C820 C818 1.391 . S
C820 C821 1.400 . S
C821 C815 1.491 . S
C821 C820 1.400 . S
C821 C822 1.398 . S
C822 H810 0.950 . S
C822 C821 1.398 . S
C822 C823 1.391 . S
C823 H811 0.950 . S
C823 C819 1.393 . S
C823 C822 1.391 . S
H824 C832 0.950 . S
H825 C837 0.950 . S
H826 C834 0.950 . S
H827 C836 0.950 . S
H828 C838 0.950 . S
H829 C840 0.950 . S
H830 C842 0.950 . S
H831 C843 0.950 . S
C832 H824 0.950 . S
C832 C833 1.386 . S
C832 C834 1.391 . S
C833 C832 1.386 . S
C833 C837 1.393 1_455 S
C834 H826 0.950 . S
C834 C832 1.391 . S
C834 C835 1.400 . S
C835 C834 1.400 . S
C835 C836 1.398 1_455 S
C835 C841 1.491 1_554 S
C836 H827 0.950 . S
C836 C835 1.398 1_655 S
C836 C837 1.391 . S
C837 H825 0.950 . S
C837 C833 1.393 1_655 S
C837 C836 1.391 . S
C838 H828 0.950 . S
C838 C839 1.386 1_655 S
C838 C840 1.391 . S
C839 C838 1.386 1_455 S
C839 C843 1.393 . S
C840 H829 0.950 . S
C840 C838 1.391 . S
C840 C841 1.400 1_655 S
C841 C835 1.491 1_556 S
C841 C840 1.400 1_455 S
C841 C842 1.398 . S
C842 H830 0.950 . S
C842 C841 1.398 . S
C842 C843 1.391 . S
C843 H831 0.950 . S
C843 C839 1.393 . S
C843 C842 1.391 . S
H844 C852 0.950 . S
H845 C857 0.950 . S
H846 C854 0.950 . S
H847 C856 0.950 . S
H848 C858 0.950 . S
H849 C860 0.950 . S
H850 C862 0.950 . S
H851 C863 0.950 . S
C852 H844 0.950 . S
C852 C853 1.386 . S
C852 C854 1.391 . S
C853 C852 1.386 . S
C853 C857 1.393 1_545 S
C854 H846 0.950 . S
C854 C852 1.391 . S
C854 C855 1.400 . S
C855 C854 1.400 . S
C855 C856 1.398 1_545 S
C855 C861 1.491 . S
C856 H847 0.950 . S
C856 C855 1.398 1_565 S
C856 C857 1.391 . S
C857 H845 0.950 . S
C857 C853 1.393 1_565 S
C857 C856 1.391 . S
C858 H848 0.950 . S
C858 C859 1.386 1_565 S
C858 C860 1.391 . S
C859 C858 1.386 1_545 S
C859 C863 1.393 . S
C860 H849 0.950 . S
C860 C858 1.391 . S
C860 C861 1.400 1_565 S
C861 C855 1.491 . S
C861 C860 1.400 1_545 S
C861 C862 1.398 . S
C862 H850 0.950 . S
C862 C861 1.398 . S
C862 C863 1.391 . S
C863 H851 0.950 . S
C863 C859 1.393 . S
C863 C862 1.391 . S
C233 C8 1.315 . S
C239 C106 1.310 . S
C253 C22 1.311 . S
C259 C64 1.317 . S
C273 C36 1.311 . S
C279 C78 1.317 . S
C293 C50 1.310 . S
C299 C92 1.316 . S
C313 C120 1.310 . S
C319 C218 1.316 . S
C333 C176 1.317 . S
C339 C134 1.311 . S
C353 C148 1.310 . S
C359 C190 1.315 . S
C373 C162 1.315 . S
C379 C204 1.310 . S
C393 C9 1.436 . S
C399 C133 1.432 . S
C413 C23 1.427 . S
C419 C147 1.452 . S
C433 C161 1.442 . S
C439 C37 1.439 . S
C453 C51 1.434 . S
C459 C119 1.449 . S
C473 C65 1.433 . S
C479 C217 1.430 . S
C493 C175 1.445 . S
C499 C79 1.437 . S
C513 C189 1.434 . S
C519 C93 1.438 . S
C533 C203 1.439 . S
C539 C107 1.440 . S
C553 C21 1.450 . S
C559 C121 1.433 . S
C573 C35 1.432 . S
C579 C135 1.437 . S
C593 C149 1.413 . S
C599 C49 1.439 . S
C613 C7 1.452 . S
C619 C163 1.428 . S
C633 C177 1.414 . S
C639 C105 1.447 . S
C653 C191 1.417 . S
C659 C63 1.450 . S
C673 C77 1.440 . S
C679 C205 1.440 . S
C693 C91 1.430 . S
C699 C219 1.423 . S
C713 C3 1.610 . S
C719 C59 1.606 . S
C733 C73 1.605 . S
C739 C17 1.609 . S
C753 C31 1.609 . S
C759 C87 1.607 . S
C773 C101 1.610 . S
C779 C45 1.605 . S
C793 C115 1.608 . S
C799 C171 1.606 . S
C813 C185 1.605 . S
C819 C129 1.608 . S
C833 C199 1.608 . S
C839 C143 1.608 . S
C853 C213 1.606 . S
C859 C157 1.610 . S
