# Generated by pormake.
# Topology upa, (4)-cn, num edge types: 1
# Building blocks:
#     Node 0, Type 0, BuildingBlock: QUQFOY_clean_sbu_1, # of connection points: 4
#     Node 1, Type 0, BuildingBlock: QUQFOY_clean_sbu_1, # of connection points: 4
#     Node 2, Type 0, BuildingBlock: QUQFOY_clean_sbu_1, # of connection points: 4
#     Node 3, Type 0, BuildingBlock: QUQFOY_clean_sbu_1, # of connection points: 4
#     Node 4, Type 0, BuildingBlock: QUQFOY_clean_sbu_1, # of connection points: 4
#     Node 5, Type 0, BuildingBlock: QUQFOY_clean_sbu_1, # of connection points: 4
#     Node 6, Type 0, BuildingBlock: QUQFOY_clean_sbu_1, # of connection points: 4
#     Node 7, Type 0, BuildingBlock: QUQFOY_clean_sbu_1, # of connection points: 4
#     Edge 8, Type (0, 0), BuildingBlock: FUNLAD_clean_linker_1, # of connection points: 2
#     Edge 9, Type (0, 0), BuildingBlock: FUNLAD_clean_linker_1, # of connection points: 2
#     Edge 10, Type (0, 0), BuildingBlock: FUNLAD_clean_linker_1, # of connection points: 2
#     Edge 11, Type (0, 0), BuildingBlock: FUNLAD_clean_linker_1, # of connection points: 2
#     Edge 12, Type (0, 0), BuildingBlock: FUNLAD_clean_linker_1, # of connection points: 2
#     Edge 13, Type (0, 0), BuildingBlock: FUNLAD_clean_linker_1, # of connection points: 2
#     Edge 14, Type (0, 0), BuildingBlock: FUNLAD_clean_linker_1, # of connection points: 2
#     Edge 15, Type (0, 0), BuildingBlock: FUNLAD_clean_linker_1, # of connection points: 2
#     Edge 16, Type (0, 0), BuildingBlock: FUNLAD_clean_linker_1, # of connection points: 2
#     Edge 17, Type (0, 0), BuildingBlock: FUNLAD_clean_linker_1, # of connection points: 2
#     Edge 18, Type (0, 0), BuildingBlock: FUNLAD_clean_linker_1, # of connection points: 2
#     Edge 19, Type (0, 0), BuildingBlock: FUNLAD_clean_linker_1, # of connection points: 2
#     Edge 20, Type (0, 0), BuildingBlock: FUNLAD_clean_linker_1, # of connection points: 2
#     Edge 21, Type (0, 0), BuildingBlock: FUNLAD_clean_linker_1, # of connection points: 2
#     Edge 22, Type (0, 0), BuildingBlock: FUNLAD_clean_linker_1, # of connection points: 2
#     Edge 23, Type (0, 0), BuildingBlock: FUNLAD_clean_linker_1, # of connection points: 2
# Relax obj value: 0.121
# Max RMSD: 0.090
# Mean RMSD: 0.090
data_MOF--net-upa--node1-QUQFOY_clean_sbu_1--edge1-FUNLAD_clean_linker_1
_symmetry_space_group_name_H-M    P1
_symmetry_Int_Tables_number       1
_symmetry_cell_setting            triclinic
loop_
_symmetry_equiv_pos_as_xyz
'x, y, z'
_cell_length_a     30.722539
_cell_length_b     30.727887
_cell_length_c     44.040095
_cell_angle_alpha  89.976962
_cell_angle_beta   89.805317
_cell_angle_gamma 89.898025
loop_
_atom_site_label
_atom_site_type_symbol
_atom_site_fract_x
_atom_site_fract_y
_atom_site_fract_z
_atom_type_partial_charge
O0 O 0.18374 0.20401 0.3784 0.0
Cd1 Cd 0.17659 0.18632 0.33304 0.0
Cd2 Cd 0.09327 0.22664 0.34667 0.0
O3 O 0.12529 0.24509 0.38562 0.0
O4 O 0.23671 0.17019 0.31942 0.0
O5 O 0.19921 0.22451 0.29931 0.0
C6 C 0.2345 0.20165 0.30012 0.0
C7 C 0.03917 0.26961 0.32422 0.0
C8 C 0.16089 0.22906 0.39514 0.0
C9 C 0.09745 0.13062 0.33042 0.0
O10 O 0.07741 0.1622 0.3426 0.0
O11 O 0.13706 0.13397 0.32237 0.0
O12 O 0.03356 0.25206 0.35049 0.0
O13 O 0.07695 0.26577 0.31157 0.0
O14 O 0.29854 0.68724 0.87667 0.0
Cd15 Cd 0.30826 0.68797 0.83001 0.0
Cd16 Cd 0.27541 0.59335 0.8426 0.0
O17 O 0.27029 0.62172 0.88503 0.0
O18 O 0.32543 0.74944 0.82059 0.0
O19 O 0.26489 0.71967 0.80348 0.0
C20 C 0.29021 0.75307 0.80503 0.0
C21 C 0.2364 0.52976 0.83112 0.0
C22 C 0.28259 0.65879 0.89456 0.0
C23 C 0.3648 0.61099 0.81301 0.0
O24 O 0.3364 0.58629 0.82483 0.0
O25 O 0.35935 0.65196 0.81189 0.0
O26 O 0.26419 0.53089 0.85279 0.0
O27 O 0.22762 0.56575 0.81729 0.0
O28 O 0.81332 0.7963 0.37056 0.0
Cd29 Cd 0.82513 0.80848 0.32444 0.0
Cd30 Cd 0.90962 0.78235 0.34809 0.0
O31 O 0.87576 0.76879 0.38693 0.0
O32 O 0.76643 0.82636 0.30944 0.0
O33 O 0.80029 0.76717 0.29332 0.0
C34 C 0.76665 0.79235 0.29238 0.0
C35 C 0.96523 0.73988 0.32789 0.0
C36 C 0.8364 0.77974 0.39159 0.0
C37 C 0.9021 0.86974 0.32007 0.0
O38 O 0.92132 0.84611 0.3394 0.0
O39 O 0.86571 0.85839 0.30903 0.0
O40 O 0.97016 0.76052 0.35311 0.0
O41 O 0.92715 0.73984 0.31554 0.0
O42 O 0.6802 0.31261 0.88109 0.0
Cd43 Cd 0.66475 0.30943 0.83541 0.0
Cd44 Cd 0.70381 0.4053 0.84331 0.0
O45 O 0.7075 0.37911 0.88664 0.0
O46 O 0.64304 0.24855 0.83048 0.0
O47 O 0.70116 0.27328 0.80639 0.0
C48 C 0.67459 0.24167 0.81182 0.0
C49 C 0.74328 0.46888 0.83229 0.0
C50 C 0.69652 0.34238 0.89759 0.0
C51 C 0.61275 0.38772 0.81527 0.0
O52 O 0.64428 0.41167 0.82321 0.0
O53 O 0.61369 0.34678 0.81913 0.0
O54 O 0.71319 0.46829 0.85256 0.0
O55 O 0.75376 0.43248 0.81959 0.0
O56 O 0.68595 0.30452 0.14675 0.0
Cd57 Cd 0.67644 0.32447 0.19152 0.0
Cd58 Cd 0.5907 0.28899 0.17456 0.0
O59 O 0.62253 0.27488 0.13461 0.0
O60 O 0.73649 0.34089 0.20471 0.0
O61 O 0.69861 0.28823 0.22647 0.0
C62 C 0.73404 0.31065 0.2249 0.0
C63 C 0.53708 0.2447 0.19619 0.0
C64 C 0.66131 0.28559 0.12773 0.0
C65 C 0.59823 0.38355 0.19367 0.0
O66 O 0.57669 0.35292 0.18178 0.0
O67 O 0.63802 0.37874 0.20082 0.0
O68 O 0.53068 0.26463 0.17085 0.0
O69 O 0.57533 0.24692 0.20813 0.0
O70 O 0.20193 0.18813 0.63519 0.0
Cd71 Cd 0.186 0.18158 0.68109 0.0
Cd72 Cd 0.2321 0.10419 0.66627 0.0
O73 O 0.25748 0.14261 0.6324 0.0
O74 O 0.15301 0.23637 0.68997 0.0
O75 O 0.21561 0.22044 0.7119 0.0
C76 C 0.18351 0.24717 0.70841 0.0
C77 C 0.27048 0.04909 0.69116 0.0
C78 C 0.23432 0.17246 0.62071 0.0
C79 C 0.13949 0.09761 0.67956 0.0
O80 O 0.16859 0.0859 0.66086 0.0
O81 O 0.14375 0.13248 0.69474 0.0
O82 O 0.26358 0.0475 0.66239 0.0
O83 O 0.25888 0.08379 0.70565 0.0
O84 O 0.31569 0.71149 0.14312 0.0
Cd85 Cd 0.32728 0.70286 0.18964 0.0
Cd86 Cd 0.41183 0.72585 0.16395 0.0
O87 O 0.37794 0.73719 0.12494 0.0
O88 O 0.26885 0.68418 0.20481 0.0
O89 O 0.30028 0.74535 0.21927 0.0
C90 C 0.2675 0.71923 0.22079 0.0
C91 C 0.46693 0.76915 0.1834 0.0
C92 C 0.33849 0.72618 0.12119 0.0
C93 C 0.40473 0.64215 0.1961 0.0
O94 O 0.42297 0.66262 0.17463 0.0
O95 O 0.36906 0.65556 0.20739 0.0
O96 O 0.47245 0.74726 0.15871 0.0
O97 O 0.42855 0.76997 0.19548 0.0
O98 O 0.81152 0.81195 0.63685 0.0
Cd99 Cd 0.82781 0.81113 0.68274 0.0
Cd100 Cd 0.79283 0.90535 0.67102 0.0
O101 O 0.78175 0.87703 0.62946 0.0
O102 O 0.8512 0.75075 0.68754 0.0
O103 O 0.79352 0.77437 0.71268 0.0
C104 C 0.82067 0.74332 0.70686 0.0
C105 C 0.75269 0.96655 0.68645 0.0
C106 C 0.79313 0.8398 0.61968 0.0
C107 C 0.88508 0.88941 0.69496 0.0
O108 O 0.85608 0.91368 0.68345 0.0
O109 O 0.87908 0.84883 0.6984 0.0
O110 O 0.77707 0.96737 0.66273 0.0
O111 O 0.74819 0.92993 0.70048 0.0
H112 H 0.04217 0.08745 0.338 0.0
C113 C 0.07268 0.09046 0.32554 0.0
H114 H 0.11358 0.06161 0.29234 0.0
H115 H 0.02518 0.87891 0.32654 0.0
H116 H 0.10197 0.86313 0.33328 0.0
H117 H 0.15732 0.92017 0.32541 0.0
H118 H 0.13611 0.99332 0.31033 0.0
C119 C 0.0834 0.0597 0.30518 0.0
C120 C 0.05325 0.02232 0.30079 0.0
C121 C 0.06622 0.98003 0.30945 0.0
C122 C 0.03418 0.94756 0.31463 0.0
C123 C 0.04802 0.90525 0.32311 0.0
C124 C 0.09202 0.89567 0.32689 0.0
C125 C 0.12319 0.92777 0.32241 0.0
C126 C 0.11061 0.9696 0.31387 0.0
H127 H 0.91863 0.91871 0.28508 0.0
C128 C 0.92516 0.90816 0.30816 0.0
H129 H 0.96305 0.91515 0.34745 0.0
H130 H 0.02094 0.09383 0.2722 0.0
H131 H 0.94463 0.10968 0.26252 0.0
H132 H 0.88731 0.05829 0.27871 0.0
H133 H 0.90606 0.98989 0.30263 0.0
C134 C 0.95682 0.9269 0.32457 0.0
C135 C 0.98923 0.958 0.31191 0.0
C136 C 0.97672 0.99907 0.29997 0.0
C137 C 0.00925 0.03036 0.29299 0.0
C138 C 0.99695 0.07 0.27912 0.0
C139 C 0.95341 0.0794 0.27347 0.0
C140 C 0.92123 0.05028 0.28235 0.0
C141 C 0.93253 0.01074 0.29576 0.0
H142 H 0.43243 0.61277 0.79525 0.0
C143 C 0.40613 0.59151 0.8025 0.0
H144 H 0.38631 0.52675 0.8111 0.0
H145 H 0.53382 0.4218 0.74738 0.0
H146 H 0.47474 0.41034 0.71176 0.0
H147 H 0.40666 0.45253 0.71589 0.0
H148 H 0.39709 0.50656 0.75566 0.0
C149 C 0.41283 0.54829 0.80469 0.0
C150 C 0.45596 0.52751 0.79982 0.0
C151 C 0.46092 0.4961 0.77646 0.0
C152 C 0.50004 0.47151 0.77415 0.0
C153 C 0.50442 0.44074 0.75043 0.0
C154 C 0.47087 0.43401 0.72977 0.0
C155 C 0.4325 0.45779 0.73211 0.0
C156 C 0.4274 0.48858 0.75509 0.0
H157 H 0.54185 0.39245 0.80732 0.0
C158 C 0.57275 0.40913 0.8044 0.0
H159 H 0.60471 0.4673 0.79214 0.0
H160 H 0.45637 0.58297 0.84906 0.0
H161 H 0.51588 0.59518 0.88358 0.0
H162 H 0.5848 0.55468 0.87816 0.0
H163 H 0.59418 0.50133 0.83836 0.0
C164 C 0.57368 0.45078 0.79493 0.0
C165 C 0.53393 0.47827 0.79531 0.0
C166 C 0.52969 0.51081 0.818 0.0
C167 C 0.49037 0.53496 0.82063 0.0
C168 C 0.48595 0.56489 0.84497 0.0
C169 C 0.51984 0.572 0.86527 0.0
C170 C 0.55859 0.54916 0.86226 0.0
C171 C 0.56355 0.51868 0.83914 0.0
H172 H 0.54399 0.42818 0.18714 0.0
C173 C 0.57487 0.42451 0.19894 0.0
H174 H 0.61766 0.45315 0.23085 0.0
H175 H 0.52799 0.63308 0.18937 0.0
H176 H 0.6046 0.64832 0.18093 0.0
H177 H 0.66054 0.59271 0.19171 0.0
H178 H 0.64004 0.52151 0.21134 0.0
C179 C 0.58705 0.4554 0.21868 0.0
C180 C 0.55761 0.49345 0.22308 0.0
C181 C 0.57014 0.53468 0.21206 0.0
C182 C 0.53776 0.56628 0.20538 0.0
C183 C 0.55112 0.6074 0.19417 0.0
C184 C 0.595 0.61664 0.18937 0.0
C185 C 0.62651 0.58536 0.19548 0.0
C186 C 0.61437 0.54467 0.2066 0.0
H187 H 0.4223 0.59837 0.23401 0.0
C188 C 0.4284 0.6057 0.21024 0.0
H189 H 0.46604 0.59363 0.17124 0.0
H190 H 0.52654 0.42502 0.25554 0.0
H191 H 0.45046 0.40982 0.26699 0.0
H192 H 0.39245 0.4593 0.24915 0.0
H193 H 0.41019 0.52512 0.22162 0.0
C194 C 0.46012 0.58503 0.19486 0.0
C195 C 0.49295 0.55601 0.20923 0.0
C196 C 0.48097 0.51651 0.22375 0.0
C197 C 0.51388 0.48623 0.23198 0.0
C198 C 0.50217 0.44802 0.24789 0.0
C199 C 0.4588 0.43901 0.25453 0.0
C200 C 0.42624 0.46706 0.24469 0.0
C201 C 0.43696 0.50517 0.22918 0.0
H202 H 0.0931 0.0478 0.66518 0.0
C203 C 0.1019 0.06899 0.68396 0.0
H204 H 0.09044 0.08494 0.72998 0.0
H205 H 0.89741 0.00993 0.72203 0.0
H206 H 0.88507 0.08389 0.73943 0.0
H207 H 0.94637 0.13478 0.7457 0.0
H208 H 0.02044 0.11202 0.73463 0.0
C209 C 0.08156 0.06459 0.71082 0.0
C210 C 0.04626 0.03181 0.71429 0.0
C211 C 0.00344 0.0456 0.72121 0.0
C212 C 0.9681 0.01648 0.71707 0.0
C213 C 0.92542 0.03102 0.7241 0.0
C214 C 0.91789 0.07328 0.73432 0.0
C215 C 0.95241 0.10194 0.73783 0.0
C216 C 0.99476 0.08848 0.73133 0.0
H217 H 0.94626 0.89273 0.7215 0.0
C218 C 0.92607 0.90958 0.70503 0.0
H219 H 0.91699 0.96534 0.67795 0.0
H220 H 0.12529 0.99125 0.71027 0.0
H221 H 0.13859 0.91723 0.69302 0.0
H222 H 0.07745 0.86932 0.67912 0.0
H223 H 1.00302 0.89432 0.68345 0.0
C224 C 0.93784 0.94878 0.6942 0.0
C225 C 0.97569 0.97405 0.70539 0.0
C226 C 0.01901 0.95903 0.70113 0.0
C227 C 0.05436 0.98755 0.70697 0.0
C228 C 0.09742 0.97139 0.70455 0.0
C229 C 0.10546 0.929 0.69489 0.0
C230 C 0.07103 0.90198 0.68722 0.0
C231 C 0.02827 0.9167 0.69009 0.0
H232 H 0.15093 0.25533 0.44129 0.0
C233 C 0.17287 0.23606 0.42726 0.0
H234 H 0.22751 0.19434 0.42688 0.0
H235 H 0.23546 0.28587 0.56474 0.0
H236 H 0.25258 0.35323 0.53841 0.0
H237 H 0.25146 0.3569 0.48245 0.0
H238 H 0.23302 0.29332 0.45243 0.0
C239 C 0.20648 0.21527 0.44039 0.0
C240 C 0.21044 0.21304 0.4741 0.0
C241 C 0.22174 0.25034 0.49129 0.0
C242 C 0.22288 0.24809 0.52359 0.0
C243 C 0.23406 0.28586 0.54019 0.0
C244 C 0.24404 0.32466 0.52536 0.0
C245 C 0.24337 0.32674 0.49385 0.0
C246 C 0.23251 0.29008 0.47689 0.0
H247 H 0.26842 0.16841 0.57656 0.0
C248 C 0.2414 0.1838 0.58844 0.0
H249 H 0.18464 0.22229 0.58383 0.0
H250 H 0.18872 0.13505 0.44801 0.0
H251 H 0.17103 0.06813 0.47426 0.0
H252 H 0.17116 0.0647 0.53019 0.0
H253 H 0.1893 0.12798 0.56016 0.0
C254 C 0.212 0.20677 0.57246 0.0
C255 C 0.21322 0.20847 0.53863 0.0
C256 C 0.20217 0.17103 0.52141 0.0
C257 C 0.20135 0.1732 0.48913 0.0
C258 C 0.19002 0.13536 0.47255 0.0
C259 C 0.17963 0.09666 0.48732 0.0
C260 C 0.17976 0.09472 0.5188 0.0
C261 C 0.19061 0.13135 0.53575 0.0
H262 H 0.28448 0.63799 0.94229 0.0
C263 C 0.28333 0.66644 0.92764 0.0
H264 H 0.28469 0.73471 0.92502 0.0
H265 H 0.27719 0.66133 0.07077 0.0
H266 H 0.21036 0.62477 0.05737 0.0
H267 H 0.17983 0.63154 1.00584 0.0
H268 H 0.2174 0.67335 0.96706 0.0
C269 C 0.28601 0.70649 0.93985 0.0
C270 C 0.29671 0.71304 0.9727 0.0
C271 C 0.27202 0.69239 0.9959 0.0
C272 C 0.28733 0.69218 0.0264 0.0
C273 C 0.26528 0.66593 0.04797 0.0
C274 C 0.22705 0.6442 0.04045 0.0
C275 C 0.21002 0.64775 0.0114 0.0
C276 C 0.23213 0.67148 0.98929 0.0
H277 H 0.28488 0.73639 0.08851 0.0
C278 C 0.31918 0.72828 0.09061 0.0
H279 H 0.37649 0.7079 0.06863 0.0
H280 H 0.35143 0.75817 0.9344 0.0
H281 H 0.41315 0.8019 0.94888 0.0
H282 H 0.43415 0.80919 1.00261 0.0
H283 H 0.39394 0.7719 0.04212 0.0
C284 C 0.3424 0.71665 0.06596 0.0
C285 C 0.32457 0.71707 0.0344 0.0
C286 C 0.34704 0.74086 0.01159 0.0
C287 C 0.3338 0.73806 0.98069 0.0
C288 C 0.35885 0.75999 0.95832 0.0
C289 C 0.39464 0.78521 0.96629 0.0
C290 C 0.40653 0.78922 0.99651 0.0
C291 C 0.3832 0.76741 0.01897 0.0
H292 H 0.7899 0.85988 0.57191 0.0
C293 C 0.79038 0.83159 0.58674 0.0
H294 H 0.79266 0.76339 0.58963 0.0
H295 H 0.77453 0.83987 0.44497 0.0
H296 H 0.70806 0.87517 0.4612 0.0
H297 H 0.68061 0.86618 0.51353 0.0
H298 H 0.721 0.82338 0.5503 0.0
C299 C 0.79235 0.79144 0.57462 0.0
C300 C 0.80038 0.78486 0.54135 0.0
C301 C 0.77404 0.80594 0.51933 0.0
C302 C 0.78759 0.80743 0.48837 0.0
C303 C 0.764 0.83426 0.46804 0.0
C304 C 0.72595 0.85529 0.47719 0.0
C305 C 0.71065 0.85049 0.50669 0.0
C306 C 0.73433 0.8262 0.52762 0.0
H307 H 0.78362 0.76698 0.42474 0.0
C308 C 0.81775 0.77556 0.42234 0.0
H309 H 0.87539 0.79506 0.44389 0.0
H310 H 0.85724 0.73806 0.57695 0.0
H311 H 0.91822 0.69501 0.55965 0.0
H312 H 0.93619 0.68991 0.50517 0.0
H313 H 0.89364 0.72874 0.46774 0.0
C314 C 0.84147 0.78587 0.44691 0.0
C315 C 0.82471 0.78329 0.47878 0.0
C316 C 0.84844 0.75851 0.50036 0.0
C317 C 0.83697 0.76008 0.5317 0.0
C318 C 0.86332 0.73728 0.5528 0.0
C319 C 0.8987 0.71239 0.54319 0.0
C320 C 0.90888 0.70961 0.51254 0.0
C321 C 0.88424 0.7323 0.4913 0.0
H322 H 0.69765 0.36542 0.94488 0.0
C323 C 0.69815 0.33635 0.93083 0.0
H324 H 0.69769 0.26795 0.92978 0.0
H325 H 0.7167 0.34609 0.07359 0.0
H326 H 0.78164 0.38311 0.05647 0.0
H327 H 0.80754 0.37535 1.00366 0.0
H328 H 0.76715 0.33203 0.96737 0.0
C329 C 0.69704 0.29681 0.94401 0.0
C330 C 0.68911 0.29143 0.97739 0.0
C331 C 0.71551 0.31307 0.99905 0.0
C332 C 0.70295 0.31394 0.03022 0.0
C333 C 0.72656 0.34102 0.05031 0.0
C334 C 0.76373 0.36302 0.04067 0.0
C335 C 0.77814 0.35891 0.0109 0.0
C336 C 0.75442 0.33431 0.99023 0.0
H337 H 0.71106 0.27109 0.09271 0.0
C338 C 0.6771 0.27962 0.09636 0.0
H339 H 0.61809 0.29971 0.07678 0.0
H340 H 0.63171 0.2446 0.94245 0.0
H341 H 0.57181 0.20076 0.96047 0.0
H342 H 0.55553 0.19501 0.01517 0.0
H343 H 0.59871 0.2339 0.05214 0.0
C344 C 0.65172 0.29024 0.07265 0.0
C345 C 0.66681 0.28886 0.04034 0.0
C346 C 0.64261 0.26426 0.019 0.0
C347 C 0.65309 0.26628 0.9875 0.0
C348 C 0.62639 0.24343 0.9667 0.0
C349 C 0.59162 0.21814 0.97671 0.0
C350 C 0.58239 0.21499 1.00749 0.0
C351 C 0.60739 0.2377 0.02847 0.0
H352 H 0.50713 0.20919 0.23465 0.0
C353 C 0.50048 0.22444 0.21288 0.0
H354 H 0.45205 0.2471 0.18285 0.0
H355 H 0.33185 0.11765 0.26977 0.0
H356 H 0.37172 0.05812 0.24669 0.0
H357 H 0.43458 0.07215 0.21314 0.0
H358 H 0.45786 0.14597 0.20237 0.0
C359 C 0.45897 0.22989 0.20386 0.0
C360 C 0.42146 0.22076 0.22448 0.0
C361 C 0.40856 0.17748 0.23091 0.0
C362 C 0.3723 0.16947 0.25038 0.0
C363 C 0.35949 0.12581 0.25562 0.0
C364 C 0.38199 0.09124 0.24239 0.0
C365 C 0.41738 0.09914 0.22349 0.0
C366 C 0.43053 0.14167 0.21762 0.0
H367 H 0.26539 0.23277 0.26025 0.0
C368 C 0.27125 0.21138 0.27947 0.0
H369 H 0.31722 0.17413 0.30363 0.0
H370 H 0.43586 0.30777 0.21536 0.0
H371 H 0.39682 0.36746 0.23881 0.0
H372 H 0.33902 0.35376 0.27654 0.0
H373 H 0.31812 0.28027 0.28962 0.0
C374 C 0.31159 0.19569 0.28447 0.0
C375 C 0.34921 0.20479 0.26374 0.0
C376 C 0.36292 0.24815 0.25785 0.0
C377 C 0.3981 0.25608 0.23744 0.0
C378 C 0.40976 0.29972 0.23091 0.0
C379 C 0.3879 0.3344 0.24444 0.0
C380 C 0.35512 0.32667 0.26549 0.0
C381 C 0.34298 0.28417 0.27245 0.0
H382 H 0.24517 0.79954 0.783 0.0
C383 C 0.27871 0.79453 0.78994 0.0
H384 H 0.34207 0.82033 0.79182 0.0
H385 H 0.23006 0.94814 0.695 0.0
H386 H 0.21399 0.88298 0.66632 0.0
H387 H 0.23932 0.8111 0.68395 0.0
H388 H 0.27922 0.80387 0.73096 0.0
C389 C 0.30866 0.82566 0.78466 0.0
C390 C 0.29763 0.86928 0.77153 0.0
C391 C 0.27758 0.8732 0.74261 0.0
C392 C 0.26645 0.91508 0.73103 0.0
C393 C 0.24215 0.9176 0.70379 0.0
C394 C 0.23226 0.88035 0.68722 0.0
C395 C 0.24625 0.83987 0.69725 0.0
C396 C 0.26874 0.83615 0.72453 0.0
H397 H 0.30713 0.98754 0.69403 0.0
C398 C 0.28684 0.01 0.70688 0.0
H399 H 0.24909 0.01917 0.74647 0.0
H400 H 0.33404 0.87418 0.82824 0.0
H401 H 0.35398 0.93971 0.85525 0.0
H402 H 0.34091 0.01212 0.83287 0.0
H403 H 0.30723 0.0194 0.78344 0.0
C404 C 0.2705 0.99745 0.73387 0.0
C405 C 0.2793 0.95328 0.74685 0.0
C406 C 0.29986 0.94941 0.77548 0.0
C407 C 0.30848 0.90751 0.788 0.0
C408 C 0.32773 0.90495 0.81717 0.0
C409 C 0.33919 0.94238 0.83305 0.0
C410 C 0.33175 0.98314 0.82048 0.0
C411 C 0.31232 0.98683 0.79207 0.0
H412 H 0.73235 0.75543 0.25656 0.0
C413 C 0.72946 0.78247 0.27234 0.0
H414 H 0.68968 0.83329 0.28893 0.0
H415 H 0.56446 0.85299 0.17787 0.0
H416 H 0.604 0.9213 0.17625 0.0
H417 H 0.66736 0.9335 0.20942 0.0
H418 H 0.69158 0.87764 0.2444 0.0
C419 C 0.6923 0.80574 0.27356 0.0
C420 C 0.65477 0.79731 0.25296 0.0
C421 C 0.64098 0.83043 0.23261 0.0
C422 C 0.60456 0.8234 0.21334 0.0
C423 C 0.59179 0.85679 0.19307 0.0
C424 C 0.61424 0.8961 0.19187 0.0
C425 C 0.64989 0.90297 0.21056 0.0
C426 C 0.66334 0.87064 0.23065 0.0
H427 H 0.49845 0.80815 0.21937 0.0
C428 C 0.50452 0.78787 0.19959 0.0
H429 H 0.55136 0.75197 0.17478 0.0
H430 H 0.66836 0.72889 0.29205 0.0
H431 H 0.62906 0.66071 0.29309 0.0
H432 H 0.56798 0.64755 0.25811 0.0
H433 H 0.54567 0.7028 0.22202 0.0
C434 C 0.54534 0.77465 0.19326 0.0
C435 C 0.58208 0.78327 0.21433 0.0
C436 C 0.59556 0.75024 0.23476 0.0
C437 C 0.63149 0.75745 0.25443 0.0
C438 C 0.64256 0.72468 0.27571 0.0
C439 C 0.61995 0.68544 0.27678 0.0
C440 C 0.58552 0.67806 0.25712 0.0
C441 C 0.57317 0.71002 0.23644 0.0
H442 H 0.65541 0.17373 0.8035 0.0
C443 C 0.67908 0.19853 0.79738 0.0
H444 H 0.73528 0.21262 0.77147 0.0
H445 H 0.79308 0.01521 0.76005 0.0
H446 H 0.84831 0.04344 0.79381 0.0
H447 H 0.84269 0.11777 0.81457 0.0
H448 H 0.78181 0.16445 0.80154 0.0
C449 C 0.71048 0.18879 0.7772 0.0
C450 C 0.71399 0.14415 0.76401 0.0
C451 C 0.74955 0.11708 0.77207 0.0
C452 C 0.75245 0.07395 0.76042 0.0
C453 C 0.78877 0.04797 0.76853 0.0
C454 C 0.82081 0.06378 0.78789 0.0
C455 C 0.81768 0.10566 0.79953 0.0
C456 C 0.78256 0.13213 0.79182 0.0
H457 H 0.73649 0.03616 0.68361 0.0
C458 C 0.73491 0.0078 0.69835 0.0
H459 H 0.7258 0.98573 0.74322 0.0
H460 H 0.64424 0.18891 0.74105 0.0
H461 H 0.5883 0.16033 0.70792 0.0
H462 H 0.59099 0.0842 0.69025 0.0
H463 H 0.65006 0.03636 0.70527 0.0
C464 C 0.72429 0.0132 0.72771 0.0
C465 C 0.71971 0.05783 0.74074 0.0
C466 C 0.68414 0.0849 0.73267 0.0
C467 C 0.68168 0.12832 0.74386 0.0
C468 C 0.64692 0.15523 0.73418 0.0
C469 C 0.61471 0.13932 0.71499 0.0
C470 C 0.6163 0.0965 0.70496 0.0
C471 C 0.65051 0.06945 0.71362 0.0
H472 H 0.00794 0.30153 0.28484 0.0
C473 C 1.00213 0.28889 0.30755 0.0
H474 H 0.95493 0.27113 0.3402 0.0
H475 H 0.83471 0.39397 0.2486 0.0
H476 H 0.87761 0.45458 0.26675 0.0
H477 H 0.94137 0.44244 0.29958 0.0
H478 H 0.9625 0.36946 0.31454 0.0
C479 C 0.96104 0.28564 0.31809 0.0
C480 C 0.92263 0.29361 0.2982 0.0
C481 C 0.91098 0.33635 0.28929 0.0
C482 C 0.8742 0.34326 0.27025 0.0
C483 C 0.86269 0.38655 0.26252 0.0
C484 C 0.88692 0.42176 0.27293 0.0
C485 C 0.92282 0.41493 0.29141 0.0
C486 C 0.93474 0.37284 0.29968 0.0
H487 H 0.76455 0.2829 0.26601 0.0
C488 C 0.77076 0.30181 0.2456 0.0
H489 H 0.81739 0.33416 0.2187 0.0
H490 H 0.93372 0.20773 0.3132 0.0
H491 H 0.89119 0.14693 0.29507 0.0
H492 H 0.83276 0.15784 0.25761 0.0
H493 H 0.8145 0.22998 0.23975 0.0
C494 C 0.8115 0.31523 0.23915 0.0
C495 C 0.84934 0.30731 0.25977 0.0
C496 C 0.86161 0.26438 0.26829 0.0
C497 C 0.89728 0.25775 0.28836 0.0
C498 C 0.90738 0.21476 0.29771 0.0
C499 C 0.88352 0.17939 0.28723 0.0
C500 C 0.85036 0.1856 0.26636 0.0
C501 C 0.83976 0.22741 0.25665 0.0
H502 H 0.15323 0.31021 0.71961 0.0
C503 C 0.18127 0.28959 0.72413 0.0
H504 H 0.24168 0.28479 0.74653 0.0
H505 H 0.27149 0.48763 0.75569 0.0
H506 H 0.32626 0.46701 0.71882 0.0
H507 H 0.32898 0.39244 0.69816 0.0
H508 H 0.27667 0.33807 0.71426 0.0
C509 C 0.21262 0.30421 0.7427 0.0
C510 C 0.21077 0.34916 0.7556 0.0
C511 C 0.24131 0.38075 0.74572 0.0
C512 C 0.23941 0.42395 0.75734 0.0
C513 C 0.27087 0.45453 0.74737 0.0
C514 C 0.3027 0.44308 0.72625 0.0
C515 C 0.30421 0.40112 0.71462 0.0
C516 C 0.27397 0.37021 0.72412 0.0
H517 H 0.22649 0.45916 0.83506 0.0
C518 C 0.2203 0.48715 0.82058 0.0
H519 H 0.20383 0.50796 0.77652 0.0
H520 H 0.14994 0.2958 0.7818 0.0
H521 H 0.09398 0.31695 0.81787 0.0
H522 H 0.08818 0.39281 0.83578 0.0
H523 H 0.13877 0.4479 0.818 0.0
C524 C 0.20695 0.48052 0.79194 0.0
C525 C 0.20689 0.43567 0.77883 0.0
C526 C 0.17621 0.40417 0.78861 0.0
C527 C 0.17856 0.36073 0.77738 0.0
C528 C 0.14874 0.32956 0.78869 0.0
C529 C 0.11661 0.3412 0.80957 0.0
C530 C 0.11343 0.38388 0.81973 0.0
C531 C 0.14279 0.41513 0.80946 0.0
H532 H 0.23194 0.75595 0.25631 0.0
C533 C 0.22963 0.72904 0.2404 0.0
H534 H 0.1906 0.67848 0.22307 0.0
H535 H 0.06194 0.65471 0.33206 0.0
H536 H 0.1008 0.58585 0.33203 0.0
H537 H 0.16494 0.57478 0.29907 0.0
H538 H 0.19059 0.63228 0.26591 0.0
C539 C 0.19262 0.70574 0.23871 0.0
C540 C 0.1546 0.7135 0.25922 0.0
C541 C 0.14005 0.67943 0.27856 0.0
C542 C 0.10323 0.68581 0.29777 0.0
C543 C 0.08962 0.65144 0.31697 0.0
C544 C 0.11167 0.6118 0.31722 0.0
C545 C 0.14776 0.60556 0.29864 0.0
C546 C 0.16202 0.63886 0.27959 0.0
H547 H 0.99761 0.70273 0.29114 0.0
C548 C 0.00319 0.72175 0.31156 0.0
H549 H 0.04949 0.7555 0.33795 0.0
H550 H 0.16923 0.78375 0.22187 0.0
H551 H 0.13099 0.85266 0.22284 0.0
H552 H 0.06988 0.86492 0.25829 0.0
H553 H 0.04634 0.80798 0.29271 0.0
C554 C 0.04389 0.73407 0.31873 0.0
C555 C 0.08121 0.7263 0.29782 0.0
C556 C 0.09557 0.76036 0.27851 0.0
C557 C 0.13173 0.75373 0.25874 0.0
C558 C 0.1434 0.78749 0.23837 0.0
C559 C 0.12138 0.82717 0.23845 0.0
C560 C 0.08692 0.83404 0.25835 0.0
C561 C 0.07384 0.80109 0.27806 0.0
H562 H 0.7501 0.53992 0.83454 0.0
C563 C 0.76057 0.5112 0.82206 0.0
H564 H 0.79042 0.48798 0.7821 0.0
H565 H 0.73981 0.65336 0.70499 0.0
H566 H 0.69866 0.59606 0.68048 0.0
H567 H 0.69664 0.52202 0.70207 0.0
H568 H 0.73584 0.50471 0.74811 0.0
C569 C 0.78206 0.51631 0.79569 0.0
C570 C 0.78625 0.56043 0.78169 0.0
C571 C 0.76327 0.56991 0.75452 0.0
C572 C 0.76418 0.61269 0.74212 0.0
C573 C 0.74047 0.62137 0.71525 0.0
C574 C 0.71658 0.58882 0.701 0.0
C575 C 0.71546 0.54714 0.71315 0.0
C576 C 0.7383 0.53763 0.73961 0.0
H577 H 0.83966 0.67482 0.71316 0.0
C578 C 0.81758 0.70003 0.72121 0.0
H579 H 0.76758 0.71532 0.7526 0.0
H580 H 0.83789 0.55253 0.83194 0.0
H581 H 0.87814 0.61034 0.85669 0.0
H582 H 0.8772 0.68509 0.83623 0.0
H583 H 0.8363 0.70242 0.79069 0.0
C584 C 0.78938 0.6906 0.74358 0.0
C585 C 0.78797 0.64599 0.75683 0.0
C586 C 0.81116 0.63655 0.78381 0.0
C587 C 0.81084 0.59363 0.79602 0.0
C588 C 0.83582 0.58483 0.82228 0.0
C589 C 0.85935 0.61764 0.83657 0.0
C590 C 0.85889 0.65972 0.82501 0.0
C591 C 0.83528 0.66923 0.79888 0.0
loop_
_geom_bond_atom_site_label_1
_geom_bond_atom_site_label_2
_geom_bond_distance
_geom_bond_site_symmetry_2
_ccdc_geom_bond_type
O0 Cd1 2.223 . S
O0 C8 1.315 . S
Cd1 O0 2.223 . S
Cd1 O4 2.297 . S
Cd1 O5 2.439 . S
Cd1 O11 2.240 . S
Cd2 O3 2.240 . S
Cd2 O10 2.223 . S
Cd2 O12 2.297 1_455 S
Cd2 O13 2.439 . S
O3 Cd2 2.240 . S
O3 C8 1.279 . S
O4 Cd1 2.297 . S
O4 C6 1.247 . S
O5 Cd1 2.439 . S
O5 C6 1.208 . S
C6 O4 1.247 . S
C6 O5 1.208 . S
C7 O12 1.247 . S
C7 O13 1.208 1_655 S
C8 O0 1.315 . S
C8 O3 1.279 . S
C9 O10 1.315 . S
C9 O11 1.279 . S
O10 Cd2 2.223 . S
O10 C9 1.315 . S
O11 Cd1 2.240 . S
O11 C9 1.279 . S
O12 Cd2 2.297 1_655 S
O12 C7 1.247 . S
O13 Cd2 2.439 . S
O13 C7 1.208 1_455 S
O14 Cd15 2.223 . S
O14 C22 1.315 . S
Cd15 O14 2.223 . S
Cd15 O18 2.297 . S
Cd15 O19 2.439 . S
Cd15 O25 2.240 . S
Cd16 O17 2.240 . S
Cd16 O24 2.223 . S
Cd16 O26 2.297 . S
Cd16 O27 2.439 . S
O17 Cd16 2.240 . S
O17 C22 1.279 . S
O18 Cd15 2.297 . S
O18 C20 1.247 . S
O19 Cd15 2.439 . S
O19 C20 1.208 . S
C20 O18 1.247 . S
C20 O19 1.208 . S
C21 O26 1.247 . S
C21 O27 1.208 . S
C22 O14 1.315 . S
C22 O17 1.279 . S
C23 O24 1.315 . S
C23 O25 1.279 . S
O24 Cd16 2.223 . S
O24 C23 1.315 . S
O25 Cd15 2.240 . S
O25 C23 1.279 . S
O26 Cd16 2.297 . S
O26 C21 1.247 . S
O27 Cd16 2.439 . S
O27 C21 1.208 . S
O28 Cd29 2.223 . S
O28 C36 1.315 . S
Cd29 O28 2.223 . S
Cd29 O32 2.297 . S
Cd29 O33 2.439 . S
Cd29 O39 2.240 . S
Cd30 O31 2.240 . S
Cd30 O38 2.223 . S
Cd30 O40 2.297 1_655 S
Cd30 O41 2.439 . S
O31 Cd30 2.240 . S
O31 C36 1.279 . S
O32 Cd29 2.297 . S
O32 C34 1.247 . S
O33 Cd29 2.439 . S
O33 C34 1.208 . S
C34 O32 1.247 . S
C34 O33 1.208 . S
C35 O40 1.247 . S
C35 O41 1.208 1_455 S
C36 O28 1.315 . S
C36 O31 1.279 . S
C37 O38 1.315 . S
C37 O39 1.279 . S
O38 Cd30 2.223 . S
O38 C37 1.315 . S
O39 Cd29 2.240 . S
O39 C37 1.279 . S
O40 Cd30 2.297 1_455 S
O40 C35 1.247 . S
O41 Cd30 2.439 . S
O41 C35 1.208 1_655 S
O42 Cd43 2.223 . S
O42 C50 1.315 . S
Cd43 O42 2.223 . S
Cd43 O46 2.297 . S
Cd43 O47 2.439 . S
Cd43 O53 2.240 . S
Cd44 O45 2.240 . S
Cd44 O52 2.223 . S
Cd44 O54 2.297 . S
Cd44 O55 2.439 . S
O45 Cd44 2.240 . S
O45 C50 1.279 . S
O46 Cd43 2.297 . S
O46 C48 1.247 . S
O47 Cd43 2.439 . S
O47 C48 1.208 . S
C48 O46 1.247 . S
C48 O47 1.208 . S
C49 O54 1.247 . S
C49 O55 1.208 . S
C50 O42 1.315 . S
C50 O45 1.279 . S
C51 O52 1.315 . S
C51 O53 1.279 . S
O52 Cd44 2.223 . S
O52 C51 1.315 . S
O53 Cd43 2.240 . S
O53 C51 1.279 . S
O54 Cd44 2.297 . S
O54 C49 1.247 . S
O55 Cd44 2.439 . S
O55 C49 1.208 . S
O56 Cd57 2.223 . S
O56 C64 1.315 . S
Cd57 O56 2.223 . S
Cd57 O60 2.297 . S
Cd57 O61 2.439 . S
Cd57 O67 2.240 . S
Cd58 O59 2.240 . S
Cd58 O66 2.223 . S
Cd58 O68 2.297 . S
Cd58 O69 2.439 . S
O59 Cd58 2.240 . S
O59 C64 1.279 . S
O60 Cd57 2.297 . S
O60 C62 1.247 . S
O61 Cd57 2.439 . S
O61 C62 1.208 . S
C62 O60 1.247 . S
C62 O61 1.208 . S
C63 O68 1.247 . S
C63 O69 1.208 . S
C64 O56 1.315 . S
C64 O59 1.279 . S
C65 O66 1.315 . S
C65 O67 1.279 . S
O66 Cd58 2.223 . S
O66 C65 1.315 . S
O67 Cd57 2.240 . S
O67 C65 1.279 . S
O68 Cd58 2.297 . S
O68 C63 1.247 . S
O69 Cd58 2.439 . S
O69 C63 1.208 . S
O70 Cd71 2.223 . S
O70 C78 1.315 . S
Cd71 O70 2.223 . S
Cd71 O74 2.297 . S
Cd71 O75 2.439 . S
Cd71 O81 2.240 . S
Cd72 O73 2.240 . S
Cd72 O80 2.223 . S
Cd72 O82 2.297 1_545 S
Cd72 O83 2.439 . S
O73 Cd72 2.240 . S
O73 C78 1.279 . S
O74 Cd71 2.297 . S
O74 C76 1.247 . S
O75 Cd71 2.439 . S
O75 C76 1.208 . S
C76 O74 1.247 . S
C76 O75 1.208 . S
C77 O82 1.247 . S
C77 O83 1.208 1_565 S
C78 O70 1.315 . S
C78 O73 1.279 . S
C79 O80 1.315 . S
C79 O81 1.279 . S
O80 Cd72 2.223 . S
O80 C79 1.315 . S
O81 Cd71 2.240 . S
O81 C79 1.279 . S
O82 Cd72 2.297 1_565 S
O82 C77 1.247 . S
O83 Cd72 2.439 . S
O83 C77 1.208 1_545 S
O84 Cd85 2.223 . S
O84 C92 1.315 . S
Cd85 O84 2.223 . S
Cd85 O88 2.297 . S
Cd85 O89 2.439 . S
Cd85 O95 2.240 . S
Cd86 O87 2.240 . S
Cd86 O94 2.223 . S
Cd86 O96 2.297 . S
Cd86 O97 2.439 . S
O87 Cd86 2.240 . S
O87 C92 1.279 . S
O88 Cd85 2.297 . S
O88 C90 1.247 . S
O89 Cd85 2.439 . S
O89 C90 1.208 . S
C90 O88 1.247 . S
C90 O89 1.208 . S
C91 O96 1.247 . S
C91 O97 1.208 . S
C92 O84 1.315 . S
C92 O87 1.279 . S
C93 O94 1.315 . S
C93 O95 1.279 . S
O94 Cd86 2.223 . S
O94 C93 1.315 . S
O95 Cd85 2.240 . S
O95 C93 1.279 . S
O96 Cd86 2.297 . S
O96 C91 1.247 . S
O97 Cd86 2.439 . S
O97 C91 1.208 . S
O98 Cd99 2.223 . S
O98 C106 1.315 . S
Cd99 O98 2.223 . S
Cd99 O102 2.297 . S
Cd99 O103 2.439 . S
Cd99 O109 2.240 . S
Cd100 O101 2.240 . S
Cd100 O108 2.223 . S
Cd100 O110 2.297 1_565 S
Cd100 O111 2.439 . S
O101 Cd100 2.240 . S
O101 C106 1.279 . S
O102 Cd99 2.297 . S
O102 C104 1.247 . S
O103 Cd99 2.439 . S
O103 C104 1.208 . S
C104 O102 1.247 . S
C104 O103 1.208 . S
C105 O110 1.247 . S
C105 O111 1.208 1_545 S
C106 O98 1.315 . S
C106 O101 1.279 . S
C107 O108 1.315 . S
C107 O109 1.279 . S
O108 Cd100 2.223 . S
O108 C107 1.315 . S
O109 Cd99 2.240 . S
O109 C107 1.279 . S
O110 Cd100 2.297 1_545 S
O110 C105 1.247 . S
O111 Cd100 2.439 . S
O111 C105 1.208 1_565 S
H112 C113 0.951 . S
C113 H112 0.951 . S
C113 C119 1.265 . S
H114 C119 0.950 . S
H115 C123 0.949 1_655 S
H116 C124 0.950 . S
H117 C125 0.951 . S
H118 C126 0.951 . S
C119 C113 1.265 . S
C119 H114 0.950 . S
C119 C120 1.478 . S
C120 C119 1.478 . S
C120 C121 1.397 . S
C120 C137 1.394 1_455 S
C121 C120 1.397 . S
C121 C122 1.438 1_545 S
C121 C126 1.429 . S
C122 C121 1.438 1_565 S
C122 C123 1.428 . S
C122 C135 1.394 1_455 S
C123 H115 0.949 1_455 S
C123 C122 1.428 . S
C123 C124 1.345 . S
C124 H116 0.950 . S
C124 C123 1.345 . S
C124 C125 1.424 . S
C125 H117 0.951 . S
C125 C124 1.424 . S
C125 C126 1.347 1_565 S
C126 H118 0.951 . S
C126 C121 1.429 . S
C126 C125 1.347 1_545 S
H127 C128 0.951 . S
C128 H127 0.951 . S
C128 C134 1.265 . S
H129 C134 0.950 . S
H130 C138 0.949 1_455 S
H131 C139 0.950 . S
H132 C140 0.951 . S
H133 C141 0.951 . S
C134 C128 1.265 . S
C134 H129 0.950 . S
C134 C135 1.478 . S
C135 C122 1.394 1_655 S
C135 C134 1.478 . S
C135 C136 1.397 . S
C136 C135 1.397 . S
C136 C137 1.438 1_565 S
C136 C141 1.429 . S
C137 C120 1.394 1_655 S
C137 C136 1.438 1_545 S
C137 C138 1.428 . S
C138 H130 0.949 1_655 S
C138 C137 1.428 . S
C138 C139 1.345 . S
C139 H131 0.950 . S
C139 C138 1.345 . S
C139 C140 1.424 . S
C140 H132 0.951 . S
C140 C139 1.424 . S
C140 C141 1.347 1_545 S
C141 H133 0.951 . S
C141 C136 1.429 . S
C141 C140 1.347 1_565 S
H142 C143 0.951 . S
C143 H142 0.951 . S
C143 C149 1.265 . S
H144 C149 0.950 . S
H145 C153 0.949 . S
H146 C154 0.950 . S
H147 C155 0.951 . S
H148 C156 0.951 . S
C149 C143 1.265 . S
C149 H144 0.950 . S
C149 C150 1.478 . S
C150 C149 1.478 . S
C150 C151 1.397 . S
C150 C167 1.394 . S
C151 C150 1.397 . S
C151 C152 1.438 . S
C151 C156 1.429 . S
C152 C151 1.438 . S
C152 C153 1.428 . S
C152 C165 1.394 . S
C153 H145 0.949 . S
C153 C152 1.428 . S
C153 C154 1.345 . S
C154 H146 0.950 . S
C154 C153 1.345 . S
C154 C155 1.424 . S
C155 H147 0.951 . S
C155 C154 1.424 . S
C155 C156 1.347 . S
C156 H148 0.951 . S
C156 C151 1.429 . S
C156 C155 1.347 . S
H157 C158 0.951 . S
C158 H157 0.951 . S
C158 C164 1.265 . S
H159 C164 0.950 . S
H160 C168 0.949 . S
H161 C169 0.950 . S
H162 C170 0.951 . S
H163 C171 0.951 . S
C164 C158 1.265 . S
C164 H159 0.950 . S
C164 C165 1.478 . S
C165 C152 1.394 . S
C165 C164 1.478 . S
C165 C166 1.397 . S
C166 C165 1.397 . S
C166 C167 1.438 . S
C166 C171 1.429 . S
C167 C150 1.394 . S
C167 C166 1.438 . S
C167 C168 1.428 . S
C168 H160 0.949 . S
C168 C167 1.428 . S
C168 C169 1.345 . S
C169 H161 0.950 . S
C169 C168 1.345 . S
C169 C170 1.424 . S
C170 H162 0.951 . S
C170 C169 1.424 . S
C170 C171 1.347 . S
C171 H163 0.951 . S
C171 C166 1.429 . S
C171 C170 1.347 . S
H172 C173 0.951 . S
C173 H172 0.951 . S
C173 C179 1.265 . S
H174 C179 0.950 . S
H175 C183 0.949 . S
H176 C184 0.950 . S
H177 C185 0.951 . S
H178 C186 0.951 . S
C179 C173 1.265 . S
C179 H174 0.950 . S
C179 C180 1.478 . S
C180 C179 1.478 . S
C180 C181 1.397 . S
C180 C197 1.394 . S
C181 C180 1.397 . S
C181 C182 1.438 . S
C181 C186 1.429 . S
C182 C181 1.438 . S
C182 C183 1.428 . S
C182 C195 1.394 . S
C183 H175 0.949 . S
C183 C182 1.428 . S
C183 C184 1.345 . S
C184 H176 0.950 . S
C184 C183 1.345 . S
C184 C185 1.424 . S
C185 H177 0.951 . S
C185 C184 1.424 . S
C185 C186 1.347 . S
C186 H178 0.951 . S
C186 C181 1.429 . S
C186 C185 1.347 . S
H187 C188 0.951 . S
C188 H187 0.951 . S
C188 C194 1.265 . S
H189 C194 0.950 . S
H190 C198 0.949 . S
H191 C199 0.950 . S
H192 C200 0.951 . S
H193 C201 0.951 . S
C194 C188 1.265 . S
C194 H189 0.950 . S
C194 C195 1.478 . S
C195 C182 1.394 . S
C195 C194 1.478 . S
C195 C196 1.397 . S
C196 C195 1.397 . S
C196 C197 1.438 . S
C196 C201 1.429 . S
C197 C180 1.394 . S
C197 C196 1.438 . S
C197 C198 1.428 . S
C198 H190 0.949 . S
C198 C197 1.428 . S
C198 C199 1.345 . S
C199 H191 0.950 . S
C199 C198 1.345 . S
C199 C200 1.424 . S
C200 H192 0.951 . S
C200 C199 1.424 . S
C200 C201 1.347 . S
C201 H193 0.951 . S
C201 C196 1.429 . S
C201 C200 1.347 . S
H202 C203 0.951 . S
C203 H202 0.951 . S
C203 C209 1.265 . S
H204 C209 0.950 . S
H205 C213 0.949 1_565 S
H206 C214 0.950 . S
H207 C215 0.951 . S
H208 C216 0.951 . S
C209 C203 1.265 . S
C209 H204 0.950 . S
C209 C210 1.478 . S
C210 C209 1.478 . S
C210 C211 1.397 . S
C210 C227 1.388 1_545 S
C211 C210 1.397 . S
C211 C212 1.444 1_455 S
C211 C216 1.429 . S
C212 C211 1.444 1_655 S
C212 C213 1.428 . S
C212 C225 1.388 1_545 S
C213 H205 0.949 1_545 S
C213 C212 1.428 . S
C213 C214 1.345 . S
C214 H206 0.950 . S
C214 C213 1.345 . S
C214 C215 1.424 . S
C215 H207 0.951 . S
C215 C214 1.424 . S
C215 C216 1.347 1_655 S
C216 H208 0.951 . S
C216 C211 1.429 . S
C216 C215 1.347 1_455 S
H217 C218 0.951 . S
C218 H217 0.951 . S
C218 C224 1.265 . S
H219 C224 0.950 . S
H220 C228 0.949 1_545 S
H221 C229 0.950 . S
H222 C230 0.951 . S
H223 C231 0.951 . S
C224 C218 1.265 . S
C224 H219 0.950 . S
C224 C225 1.478 . S
C225 C212 1.388 1_565 S
C225 C224 1.478 . S
C225 C226 1.397 . S
C226 C225 1.397 . S
C226 C227 1.444 1_655 S
C226 C231 1.429 . S
C227 C210 1.388 1_565 S
C227 C226 1.444 1_455 S
C227 C228 1.428 . S
C228 H220 0.949 1_565 S
C228 C227 1.428 . S
C228 C229 1.345 . S
C229 H221 0.950 . S
C229 C228 1.345 . S
C229 C230 1.424 . S
C230 H222 0.951 . S
C230 C229 1.424 . S
C230 C231 1.347 1_455 S
C231 H223 0.951 . S
C231 C226 1.429 . S
C231 C230 1.347 1_655 S
H232 C233 0.951 . S
C233 H232 0.951 . S
C233 C239 1.265 . S
H234 C239 0.950 . S
H235 C243 0.949 . S
H236 C244 0.950 . S
H237 C245 0.951 . S
H238 C246 0.951 . S
C239 C233 1.265 . S
C239 H234 0.950 . S
C239 C240 1.478 . S
C240 C239 1.478 . S
C240 C241 1.397 . S
C240 C257 1.394 . S
C241 C240 1.397 . S
C241 C242 1.438 . S
C241 C246 1.429 . S
C242 C241 1.438 . S
C242 C243 1.428 . S
C242 C255 1.394 . S
C243 H235 0.949 . S
C243 C242 1.428 . S
C243 C244 1.345 . S
C244 H236 0.950 . S
C244 C243 1.345 . S
C244 C245 1.424 . S
C245 H237 0.951 . S
C245 C244 1.424 . S
C245 C246 1.347 . S
C246 H238 0.951 . S
C246 C241 1.429 . S
C246 C245 1.347 . S
H247 C248 0.951 . S
C248 H247 0.951 . S
C248 C254 1.265 . S
H249 C254 0.950 . S
H250 C258 0.949 . S
H251 C259 0.950 . S
H252 C260 0.951 . S
H253 C261 0.951 . S
C254 C248 1.265 . S
C254 H249 0.950 . S
C254 C255 1.478 . S
C255 C242 1.394 . S
C255 C254 1.478 . S
C255 C256 1.397 . S
C256 C255 1.397 . S
C256 C257 1.438 . S
C256 C261 1.429 . S
C257 C240 1.394 . S
C257 C256 1.438 . S
C257 C258 1.428 . S
C258 H250 0.949 . S
C258 C257 1.428 . S
C258 C259 1.345 . S
C259 H251 0.950 . S
C259 C258 1.345 . S
C259 C260 1.424 . S
C260 H252 0.951 . S
C260 C259 1.424 . S
C260 C261 1.347 . S
C261 H253 0.951 . S
C261 C256 1.429 . S
C261 C260 1.347 . S
H262 C263 0.951 . S
C263 H262 0.951 . S
C263 C269 1.265 . S
H264 C269 0.950 . S
H265 C273 0.949 . S
H266 C274 0.950 . S
H267 C275 0.951 . S
H268 C276 0.951 . S
C269 C263 1.265 . S
C269 H264 0.950 . S
C269 C270 1.478 . S
C270 C269 1.478 . S
C270 C271 1.397 . S
C270 C287 1.394 . S
C271 C270 1.397 . S
C271 C272 1.438 1_556 S
C271 C276 1.429 . S
C272 C271 1.438 1_554 S
C272 C273 1.428 . S
C272 C285 1.394 . S
C273 H265 0.949 . S
C273 C272 1.428 . S
C273 C274 1.345 . S
C274 H266 0.950 . S
C274 C273 1.345 . S
C274 C275 1.424 . S
C275 H267 0.951 . S
C275 C274 1.424 . S
C275 C276 1.347 1_554 S
C276 H268 0.951 . S
C276 C271 1.429 . S
C276 C275 1.347 1_556 S
H277 C278 0.951 . S
C278 H277 0.951 . S
C278 C284 1.265 . S
H279 C284 0.950 . S
H280 C288 0.949 . S
H281 C289 0.950 . S
H282 C290 0.951 . S
H283 C291 0.951 . S
C284 C278 1.265 . S
C284 H279 0.950 . S
C284 C285 1.478 . S
C285 C272 1.394 . S
C285 C284 1.478 . S
C285 C286 1.397 . S
C286 C285 1.397 . S
C286 C287 1.438 1_554 S
C286 C291 1.429 . S
C287 C270 1.394 . S
C287 C286 1.438 1_556 S
C287 C288 1.428 . S
C288 H280 0.949 . S
C288 C287 1.428 . S
C288 C289 1.345 . S
C289 H281 0.950 . S
C289 C288 1.345 . S
C289 C290 1.424 . S
C290 H282 0.951 . S
C290 C289 1.424 . S
C290 C291 1.347 1_556 S
C291 H283 0.951 . S
C291 C286 1.429 . S
C291 C290 1.347 1_554 S
H292 C293 0.951 . S
C293 H292 0.951 . S
C293 C299 1.265 . S
H294 C299 0.950 . S
H295 C303 0.949 . S
H296 C304 0.950 . S
H297 C305 0.951 . S
H298 C306 0.951 . S
C299 C293 1.265 . S
C299 H294 0.950 . S
C299 C300 1.478 . S
C300 C299 1.478 . S
C300 C301 1.397 . S
C300 C317 1.394 . S
C301 C300 1.397 . S
C301 C302 1.438 . S
C301 C306 1.429 . S
C302 C301 1.438 . S
C302 C303 1.428 . S
C302 C315 1.394 . S
C303 H295 0.949 . S
C303 C302 1.428 . S
C303 C304 1.345 . S
C304 H296 0.950 . S
C304 C303 1.345 . S
C304 C305 1.424 . S
C305 H297 0.951 . S
C305 C304 1.424 . S
C305 C306 1.347 . S
C306 H298 0.951 . S
C306 C301 1.429 . S
C306 C305 1.347 . S
H307 C308 0.951 . S
C308 H307 0.951 . S
C308 C314 1.265 . S
H309 C314 0.950 . S
H310 C318 0.949 . S
H311 C319 0.950 . S
H312 C320 0.951 . S
H313 C321 0.951 . S
C314 C308 1.265 . S
C314 H309 0.950 . S
C314 C315 1.478 . S
C315 C302 1.394 . S
C315 C314 1.478 . S
C315 C316 1.397 . S
C316 C315 1.397 . S
C316 C317 1.438 . S
C316 C321 1.429 . S
C317 C300 1.394 . S
C317 C316 1.438 . S
C317 C318 1.428 . S
C318 H310 0.949 . S
C318 C317 1.428 . S
C318 C319 1.345 . S
C319 H311 0.950 . S
C319 C318 1.345 . S
C319 C320 1.424 . S
C320 H312 0.951 . S
C320 C319 1.424 . S
C320 C321 1.347 . S
C321 H313 0.951 . S
C321 C316 1.429 . S
C321 C320 1.347 . S
H322 C323 0.951 . S
C323 H322 0.951 . S
C323 C329 1.265 . S
H324 C329 0.950 . S
H325 C333 0.949 . S
H326 C334 0.950 . S
H327 C335 0.951 . S
H328 C336 0.951 . S
C329 C323 1.265 . S
C329 H324 0.950 . S
C329 C330 1.478 . S
C330 C329 1.478 . S
C330 C331 1.397 . S
C330 C347 1.394 . S
C331 C330 1.397 . S
C331 C332 1.438 1_556 S
C331 C336 1.429 . S
C332 C331 1.438 1_554 S
C332 C333 1.428 . S
C332 C345 1.394 . S
C333 H325 0.949 . S
C333 C332 1.428 . S
C333 C334 1.345 . S
C334 H326 0.950 . S
C334 C333 1.345 . S
C334 C335 1.424 . S
C335 H327 0.951 . S
C335 C334 1.424 . S
C335 C336 1.347 1_554 S
C336 H328 0.951 . S
C336 C331 1.429 . S
C336 C335 1.347 1_556 S
H337 C338 0.951 . S
C338 H337 0.951 . S
C338 C344 1.265 . S
H339 C344 0.950 . S
H340 C348 0.949 . S
H341 C349 0.950 . S
H342 C350 0.951 . S
H343 C351 0.951 . S
C344 C338 1.265 . S
C344 H339 0.950 . S
C344 C345 1.478 . S
C345 C332 1.394 . S
C345 C344 1.478 . S
C345 C346 1.397 . S
C346 C345 1.397 . S
C346 C347 1.438 1_554 S
C346 C351 1.429 . S
C347 C330 1.394 . S
C347 C346 1.438 1_556 S
C347 C348 1.428 . S
C348 H340 0.949 . S
C348 C347 1.428 . S
C348 C349 1.345 . S
C349 H341 0.950 . S
C349 C348 1.345 . S
C349 C350 1.424 . S
C350 H342 0.951 . S
C350 C349 1.424 . S
C350 C351 1.347 1_556 S
C351 H343 0.951 . S
C351 C346 1.429 . S
C351 C350 1.347 1_554 S
H352 C353 0.951 . S
C353 H352 0.951 . S
C353 C359 1.265 . S
H354 C359 0.950 . S
H355 C363 0.949 . S
H356 C364 0.950 . S
H357 C365 0.951 . S
H358 C366 0.951 . S
C359 C353 1.265 . S
C359 H354 0.950 . S
C359 C360 1.478 . S
C360 C359 1.478 . S
C360 C361 1.397 . S
C360 C377 1.394 . S
C361 C360 1.397 . S
C361 C362 1.438 . S
C361 C366 1.429 . S
C362 C361 1.438 . S
C362 C363 1.428 . S
C362 C375 1.394 . S
C363 H355 0.949 . S
C363 C362 1.428 . S
C363 C364 1.345 . S
C364 H356 0.950 . S
C364 C363 1.345 . S
C364 C365 1.424 . S
C365 H357 0.951 . S
C365 C364 1.424 . S
C365 C366 1.347 . S
C366 H358 0.951 . S
C366 C361 1.429 . S
C366 C365 1.347 . S
H367 C368 0.951 . S
C368 H367 0.951 . S
C368 C374 1.265 . S
H369 C374 0.950 . S
H370 C378 0.949 . S
H371 C379 0.950 . S
H372 C380 0.951 . S
H373 C381 0.951 . S
C374 C368 1.265 . S
C374 H369 0.950 . S
C374 C375 1.478 . S
C375 C362 1.394 . S
C375 C374 1.478 . S
C375 C376 1.397 . S
C376 C375 1.397 . S
C376 C377 1.438 . S
C376 C381 1.429 . S
C377 C360 1.394 . S
C377 C376 1.438 . S
C377 C378 1.428 . S
C378 H370 0.949 . S
C378 C377 1.428 . S
C378 C379 1.345 . S
C379 H371 0.950 . S
C379 C378 1.345 . S
C379 C380 1.424 . S
C380 H372 0.951 . S
C380 C379 1.424 . S
C380 C381 1.347 . S
C381 H373 0.951 . S
C381 C376 1.429 . S
C381 C380 1.347 . S
H382 C383 0.951 . S
C383 H382 0.951 . S
C383 C389 1.265 . S
H384 C389 0.950 . S
H385 C393 0.949 . S
H386 C394 0.950 . S
H387 C395 0.951 . S
H388 C396 0.951 . S
C389 C383 1.265 . S
C389 H384 0.950 . S
C389 C390 1.478 . S
C390 C389 1.478 . S
C390 C391 1.397 . S
C390 C407 1.394 . S
C391 C390 1.397 . S
C391 C392 1.438 . S
C391 C396 1.429 . S
C392 C391 1.438 . S
C392 C393 1.428 . S
C392 C405 1.394 . S
C393 H385 0.949 . S
C393 C392 1.428 . S
C393 C394 1.345 . S
C394 H386 0.950 . S
C394 C393 1.345 . S
C394 C395 1.424 . S
C395 H387 0.951 . S
C395 C394 1.424 . S
C395 C396 1.347 . S
C396 H388 0.951 . S
C396 C391 1.429 . S
C396 C395 1.347 . S
H397 C398 0.951 . S
C398 H397 0.951 . S
C398 C404 1.265 . S
H399 C404 0.950 . S
H400 C408 0.949 . S
H401 C409 0.950 . S
H402 C410 0.951 . S
H403 C411 0.951 . S
C404 C398 1.265 . S
C404 H399 0.950 . S
C404 C405 1.478 . S
C405 C392 1.394 . S
C405 C404 1.478 . S
C405 C406 1.397 . S
C406 C405 1.397 . S
C406 C407 1.438 . S
C406 C411 1.429 . S
C407 C390 1.394 . S
C407 C406 1.438 . S
C407 C408 1.428 . S
C408 H400 0.949 . S
C408 C407 1.428 . S
C408 C409 1.345 . S
C409 H401 0.950 . S
C409 C408 1.345 . S
C409 C410 1.424 . S
C410 H402 0.951 . S
C410 C409 1.424 . S
C410 C411 1.347 . S
C411 H403 0.951 . S
C411 C406 1.429 . S
C411 C410 1.347 . S
H412 C413 0.951 . S
C413 H412 0.951 . S
C413 C419 1.265 . S
H414 C419 0.950 . S
H415 C423 0.949 . S
H416 C424 0.950 . S
H417 C425 0.951 . S
H418 C426 0.951 . S
C419 C413 1.265 . S
C419 H414 0.950 . S
C419 C420 1.478 . S
C420 C419 1.478 . S
C420 C421 1.397 . S
C420 C437 1.394 . S
C421 C420 1.397 . S
C421 C422 1.438 . S
C421 C426 1.429 . S
C422 C421 1.438 . S
C422 C423 1.428 . S
C422 C435 1.394 . S
C423 H415 0.949 . S
C423 C422 1.428 . S
C423 C424 1.345 . S
C424 H416 0.950 . S
C424 C423 1.345 . S
C424 C425 1.424 . S
C425 H417 0.951 . S
C425 C424 1.424 . S
C425 C426 1.347 . S
C426 H418 0.951 . S
C426 C421 1.429 . S
C426 C425 1.347 . S
H427 C428 0.951 . S
C428 H427 0.951 . S
C428 C434 1.265 . S
H429 C434 0.950 . S
H430 C438 0.949 . S
H431 C439 0.950 . S
H432 C440 0.951 . S
H433 C441 0.951 . S
C434 C428 1.265 . S
C434 H429 0.950 . S
C434 C435 1.478 . S
C435 C422 1.394 . S
C435 C434 1.478 . S
C435 C436 1.397 . S
C436 C435 1.397 . S
C436 C437 1.438 . S
C436 C441 1.429 . S
C437 C420 1.394 . S
C437 C436 1.438 . S
C437 C438 1.428 . S
C438 H430 0.949 . S
C438 C437 1.428 . S
C438 C439 1.345 . S
C439 H431 0.950 . S
C439 C438 1.345 . S
C439 C440 1.424 . S
C440 H432 0.951 . S
C440 C439 1.424 . S
C440 C441 1.347 . S
C441 H433 0.951 . S
C441 C436 1.429 . S
C441 C440 1.347 . S
H442 C443 0.951 . S
C443 H442 0.951 . S
C443 C449 1.265 . S
H444 C449 0.950 . S
H445 C453 0.949 . S
H446 C454 0.950 . S
H447 C455 0.951 . S
H448 C456 0.951 . S
C449 C443 1.265 . S
C449 H444 0.950 . S
C449 C450 1.478 . S
C450 C449 1.478 . S
C450 C451 1.397 . S
C450 C467 1.394 . S
C451 C450 1.397 . S
C451 C452 1.438 . S
C451 C456 1.429 . S
C452 C451 1.438 . S
C452 C453 1.428 . S
C452 C465 1.394 . S
C453 H445 0.949 . S
C453 C452 1.428 . S
C453 C454 1.345 . S
C454 H446 0.950 . S
C454 C453 1.345 . S
C454 C455 1.424 . S
C455 H447 0.951 . S
C455 C454 1.424 . S
C455 C456 1.347 . S
C456 H448 0.951 . S
C456 C451 1.429 . S
C456 C455 1.347 . S
H457 C458 0.951 . S
C458 H457 0.951 . S
C458 C464 1.265 . S
H459 C464 0.950 . S
H460 C468 0.949 . S
H461 C469 0.950 . S
H462 C470 0.951 . S
H463 C471 0.951 . S
C464 C458 1.265 . S
C464 H459 0.950 . S
C464 C465 1.478 . S
C465 C452 1.394 . S
C465 C464 1.478 . S
C465 C466 1.397 . S
C466 C465 1.397 . S
C466 C467 1.438 . S
C466 C471 1.429 . S
C467 C450 1.394 . S
C467 C466 1.438 . S
C467 C468 1.428 . S
C468 H460 0.949 . S
C468 C467 1.428 . S
C468 C469 1.345 . S
C469 H461 0.950 . S
C469 C468 1.345 . S
C469 C470 1.424 . S
C470 H462 0.951 . S
C470 C469 1.424 . S
C470 C471 1.347 . S
C471 H463 0.951 . S
C471 C466 1.429 . S
C471 C470 1.347 . S
H472 C473 0.951 . S
C473 H472 0.951 . S
C473 C479 1.265 . S
H474 C479 0.950 . S
H475 C483 0.949 . S
H476 C484 0.950 . S
H477 C485 0.951 . S
H478 C486 0.951 . S
C479 C473 1.265 . S
C479 H474 0.950 . S
C479 C480 1.478 . S
C480 C479 1.478 . S
C480 C481 1.397 . S
C480 C497 1.394 . S
C481 C480 1.397 . S
C481 C482 1.438 . S
C481 C486 1.429 . S
C482 C481 1.438 . S
C482 C483 1.428 . S
C482 C495 1.394 . S
C483 H475 0.949 . S
C483 C482 1.428 . S
C483 C484 1.345 . S
C484 H476 0.950 . S
C484 C483 1.345 . S
C484 C485 1.424 . S
C485 H477 0.951 . S
C485 C484 1.424 . S
C485 C486 1.347 . S
C486 H478 0.951 . S
C486 C481 1.429 . S
C486 C485 1.347 . S
H487 C488 0.951 . S
C488 H487 0.951 . S
C488 C494 1.265 . S
H489 C494 0.950 . S
H490 C498 0.949 . S
H491 C499 0.950 . S
H492 C500 0.951 . S
H493 C501 0.951 . S
C494 C488 1.265 . S
C494 H489 0.950 . S
C494 C495 1.478 . S
C495 C482 1.394 . S
C495 C494 1.478 . S
C495 C496 1.397 . S
C496 C495 1.397 . S
C496 C497 1.438 . S
C496 C501 1.429 . S
C497 C480 1.394 . S
C497 C496 1.438 . S
C497 C498 1.428 . S
C498 H490 0.949 . S
C498 C497 1.428 . S
C498 C499 1.345 . S
C499 H491 0.950 . S
C499 C498 1.345 . S
C499 C500 1.424 . S
C500 H492 0.951 . S
C500 C499 1.424 . S
C500 C501 1.347 . S
C501 H493 0.951 . S
C501 C496 1.429 . S
C501 C500 1.347 . S
H502 C503 0.951 . S
C503 H502 0.951 . S
C503 C509 1.265 . S
H504 C509 0.950 . S
H505 C513 0.949 . S
H506 C514 0.950 . S
H507 C515 0.951 . S
H508 C516 0.951 . S
C509 C503 1.265 . S
C509 H504 0.950 . S
C509 C510 1.478 . S
C510 C509 1.478 . S
C510 C511 1.397 . S
C510 C527 1.394 . S
C511 C510 1.397 . S
C511 C512 1.438 . S
C511 C516 1.429 . S
C512 C511 1.438 . S
C512 C513 1.428 . S
C512 C525 1.394 . S
C513 H505 0.949 . S
C513 C512 1.428 . S
C513 C514 1.345 . S
C514 H506 0.950 . S
C514 C513 1.345 . S
C514 C515 1.424 . S
C515 H507 0.951 . S
C515 C514 1.424 . S
C515 C516 1.347 . S
C516 H508 0.951 . S
C516 C511 1.429 . S
C516 C515 1.347 . S
H517 C518 0.951 . S
C518 H517 0.951 . S
C518 C524 1.265 . S
H519 C524 0.950 . S
H520 C528 0.949 . S
H521 C529 0.950 . S
H522 C530 0.951 . S
H523 C531 0.951 . S
C524 C518 1.265 . S
C524 H519 0.950 . S
C524 C525 1.478 . S
C525 C512 1.394 . S
C525 C524 1.478 . S
C525 C526 1.397 . S
C526 C525 1.397 . S
C526 C527 1.438 . S
C526 C531 1.429 . S
C527 C510 1.394 . S
C527 C526 1.438 . S
C527 C528 1.428 . S
C528 H520 0.949 . S
C528 C527 1.428 . S
C528 C529 1.345 . S
C529 H521 0.950 . S
C529 C528 1.345 . S
C529 C530 1.424 . S
C530 H522 0.951 . S
C530 C529 1.424 . S
C530 C531 1.347 . S
C531 H523 0.951 . S
C531 C526 1.429 . S
C531 C530 1.347 . S
H532 C533 0.951 . S
C533 H532 0.951 . S
C533 C539 1.265 . S
H534 C539 0.950 . S
H535 C543 0.949 . S
H536 C544 0.950 . S
H537 C545 0.951 . S
H538 C546 0.951 . S
C539 C533 1.265 . S
C539 H534 0.950 . S
C539 C540 1.478 . S
C540 C539 1.478 . S
C540 C541 1.397 . S
C540 C557 1.394 . S
C541 C540 1.397 . S
C541 C542 1.438 . S
C541 C546 1.429 . S
C542 C541 1.438 . S
C542 C543 1.428 . S
C542 C555 1.394 . S
C543 H535 0.949 . S
C543 C542 1.428 . S
C543 C544 1.345 . S
C544 H536 0.950 . S
C544 C543 1.345 . S
C544 C545 1.424 . S
C545 H537 0.951 . S
C545 C544 1.424 . S
C545 C546 1.347 . S
C546 H538 0.951 . S
C546 C541 1.429 . S
C546 C545 1.347 . S
H547 C548 0.951 . S
C548 H547 0.951 . S
C548 C554 1.265 . S
H549 C554 0.950 . S
H550 C558 0.949 . S
H551 C559 0.950 . S
H552 C560 0.951 . S
H553 C561 0.951 . S
C554 C548 1.265 . S
C554 H549 0.950 . S
C554 C555 1.478 . S
C555 C542 1.394 . S
C555 C554 1.478 . S
C555 C556 1.397 . S
C556 C555 1.397 . S
C556 C557 1.438 . S
C556 C561 1.429 . S
C557 C540 1.394 . S
C557 C556 1.438 . S
C557 C558 1.428 . S
C558 H550 0.949 . S
C558 C557 1.428 . S
C558 C559 1.345 . S
C559 H551 0.950 . S
C559 C558 1.345 . S
C559 C560 1.424 . S
C560 H552 0.951 . S
C560 C559 1.424 . S
C560 C561 1.347 . S
C561 H553 0.951 . S
C561 C556 1.429 . S
C561 C560 1.347 . S
H562 C563 0.951 . S
C563 H562 0.951 . S
C563 C569 1.265 . S
H564 C569 0.950 . S
H565 C573 0.949 . S
H566 C574 0.950 . S
H567 C575 0.951 . S
H568 C576 0.951 . S
C569 C563 1.265 . S
C569 H564 0.950 . S
C569 C570 1.478 . S
C570 C569 1.478 . S
C570 C571 1.397 . S
C570 C587 1.394 . S
C571 C570 1.397 . S
C571 C572 1.438 . S
C571 C576 1.429 . S
C572 C571 1.438 . S
C572 C573 1.428 . S
C572 C585 1.394 . S
C573 H565 0.949 . S
C573 C572 1.428 . S
C573 C574 1.345 . S
C574 H566 0.950 . S
C574 C573 1.345 . S
C574 C575 1.424 . S
C575 H567 0.951 . S
C575 C574 1.424 . S
C575 C576 1.347 . S
C576 H568 0.951 . S
C576 C571 1.429 . S
C576 C575 1.347 . S
H577 C578 0.951 . S
C578 H577 0.951 . S
C578 C584 1.265 . S
H579 C584 0.950 . S
H580 C588 0.949 . S
H581 C589 0.950 . S
H582 C590 0.951 . S
H583 C591 0.951 . S
C584 C578 1.265 . S
C584 H579 0.950 . S
C584 C585 1.478 . S
C585 C572 1.394 . S
C585 C584 1.478 . S
C585 C586 1.397 . S
C586 C585 1.397 . S
C586 C587 1.438 . S
C586 C591 1.429 . S
C587 C570 1.394 . S
C587 C586 1.438 . S
C587 C588 1.428 . S
C588 H580 0.949 . S
C588 C587 1.428 . S
C588 C589 1.345 . S
C589 H581 0.950 . S
C589 C588 1.345 . S
C589 C590 1.424 . S
C590 H582 0.951 . S
C590 C589 1.424 . S
C590 C591 1.347 . S
C591 H583 0.951 . S
C591 C586 1.429 . S
C591 C590 1.347 . S
C113 C9 0.760 . S
C128 C37 0.759 . S
C143 C23 0.857 . S
C158 C51 0.860 . S
C173 C65 0.759 . S
C188 C93 0.759 . S
C203 C79 0.760 . S
C218 C107 0.759 . S
C233 C8 1.380 . S
C248 C78 1.387 . S
C263 C22 1.327 . S
C278 C92 1.336 . S
C293 C106 1.325 . S
C308 C36 1.333 . S
C323 C50 1.320 . S
C338 C64 1.327 . S
C353 C63 1.786 . S
C368 C6 1.700 . S
C383 C20 1.749 . S
C398 C77 1.763 . S
C413 C34 1.709 . S
C428 C91 1.792 . S
C443 C48 1.659 . S
C458 C105 1.738 . S
C473 C7 1.792 . S
C488 C62 1.710 . S
C503 C76 1.659 . S
C518 C21 1.732 . S
C533 C90 1.719 . S
C548 C35 1.797 . S
C563 C49 1.729 . S
C578 C104 1.660 . S
