# Generated by pormake.
# Topology und, (4)-cn, num edge types: 1
# Building blocks:
#     Node 0, Type 0, BuildingBlock: KUFVIS_clean_sbu_0, # of connection points: 4
#     Node 1, Type 0, BuildingBlock: KUFVIS_clean_sbu_0, # of connection points: 4
#     Node 2, Type 0, BuildingBlock: KUFVIS_clean_sbu_0, # of connection points: 4
#     Node 3, Type 0, BuildingBlock: KUFVIS_clean_sbu_0, # of connection points: 4
#     Node 4, Type 0, BuildingBlock: KUFVIS_clean_sbu_0, # of connection points: 4
#     Node 5, Type 0, BuildingBlock: KUFVIS_clean_sbu_0, # of connection points: 4
#     Node 6, Type 0, BuildingBlock: KUFVIS_clean_sbu_0, # of connection points: 4
#     Node 7, Type 0, BuildingBlock: KUFVIS_clean_sbu_0, # of connection points: 4
#     Node 8, Type 0, BuildingBlock: KUFVIS_clean_sbu_0, # of connection points: 4
#     Node 9, Type 0, BuildingBlock: KUFVIS_clean_sbu_0, # of connection points: 4
#     Node 10, Type 0, BuildingBlock: KUFVIS_clean_sbu_0, # of connection points: 4
#     Node 11, Type 0, BuildingBlock: KUFVIS_clean_sbu_0, # of connection points: 4
#     Node 12, Type 0, BuildingBlock: KUFVIS_clean_sbu_0, # of connection points: 4
#     Node 13, Type 0, BuildingBlock: KUFVIS_clean_sbu_0, # of connection points: 4
#     Node 14, Type 0, BuildingBlock: KUFVIS_clean_sbu_0, # of connection points: 4
#     Node 15, Type 0, BuildingBlock: KUFVIS_clean_sbu_0, # of connection points: 4
#     Edge 16, Type (0, 0), BuildingBlock: KIFKEQ_clean_linker_1, # of connection points: 2
#     Edge 17, Type (0, 0), BuildingBlock: KIFKEQ_clean_linker_1, # of connection points: 2
#     Edge 18, Type (0, 0), BuildingBlock: KIFKEQ_clean_linker_1, # of connection points: 2
#     Edge 19, Type (0, 0), BuildingBlock: KIFKEQ_clean_linker_1, # of connection points: 2
#     Edge 20, Type (0, 0), BuildingBlock: KIFKEQ_clean_linker_1, # of connection points: 2
#     Edge 21, Type (0, 0), BuildingBlock: KIFKEQ_clean_linker_1, # of connection points: 2
#     Edge 22, Type (0, 0), BuildingBlock: KIFKEQ_clean_linker_1, # of connection points: 2
#     Edge 23, Type (0, 0), BuildingBlock: KIFKEQ_clean_linker_1, # of connection points: 2
#     Edge 24, Type (0, 0), BuildingBlock: KIFKEQ_clean_linker_1, # of connection points: 2
#     Edge 25, Type (0, 0), BuildingBlock: KIFKEQ_clean_linker_1, # of connection points: 2
#     Edge 26, Type (0, 0), BuildingBlock: KIFKEQ_clean_linker_1, # of connection points: 2
#     Edge 27, Type (0, 0), BuildingBlock: KIFKEQ_clean_linker_1, # of connection points: 2
#     Edge 28, Type (0, 0), BuildingBlock: KIFKEQ_clean_linker_1, # of connection points: 2
#     Edge 29, Type (0, 0), BuildingBlock: KIFKEQ_clean_linker_1, # of connection points: 2
#     Edge 30, Type (0, 0), BuildingBlock: KIFKEQ_clean_linker_1, # of connection points: 2
#     Edge 31, Type (0, 0), BuildingBlock: KIFKEQ_clean_linker_1, # of connection points: 2
#     Edge 32, Type (0, 0), BuildingBlock: KIFKEQ_clean_linker_1, # of connection points: 2
#     Edge 33, Type (0, 0), BuildingBlock: KIFKEQ_clean_linker_1, # of connection points: 2
#     Edge 34, Type (0, 0), BuildingBlock: KIFKEQ_clean_linker_1, # of connection points: 2
#     Edge 35, Type (0, 0), BuildingBlock: KIFKEQ_clean_linker_1, # of connection points: 2
#     Edge 36, Type (0, 0), BuildingBlock: KIFKEQ_clean_linker_1, # of connection points: 2
#     Edge 37, Type (0, 0), BuildingBlock: KIFKEQ_clean_linker_1, # of connection points: 2
#     Edge 38, Type (0, 0), BuildingBlock: KIFKEQ_clean_linker_1, # of connection points: 2
#     Edge 39, Type (0, 0), BuildingBlock: KIFKEQ_clean_linker_1, # of connection points: 2
#     Edge 40, Type (0, 0), BuildingBlock: KIFKEQ_clean_linker_1, # of connection points: 2
#     Edge 41, Type (0, 0), BuildingBlock: KIFKEQ_clean_linker_1, # of connection points: 2
#     Edge 42, Type (0, 0), BuildingBlock: KIFKEQ_clean_linker_1, # of connection points: 2
#     Edge 43, Type (0, 0), BuildingBlock: KIFKEQ_clean_linker_1, # of connection points: 2
#     Edge 44, Type (0, 0), BuildingBlock: KIFKEQ_clean_linker_1, # of connection points: 2
#     Edge 45, Type (0, 0), BuildingBlock: KIFKEQ_clean_linker_1, # of connection points: 2
#     Edge 46, Type (0, 0), BuildingBlock: KIFKEQ_clean_linker_1, # of connection points: 2
#     Edge 47, Type (0, 0), BuildingBlock: KIFKEQ_clean_linker_1, # of connection points: 2
# Relax obj value: 0.020
# Max RMSD: 0.089
# Mean RMSD: 0.079
data_MOF--net-und--node1-KUFVIS_clean_sbu_0--edge1-KIFKEQ_clean_linker_1
_symmetry_space_group_name_H-M    P1
_symmetry_Int_Tables_number       1
_symmetry_cell_setting            triclinic
loop_
_symmetry_equiv_pos_as_xyz
'x, y, z'
_cell_length_a     60.367674
_cell_length_b     60.384807
_cell_length_c     22.4646
_cell_angle_alpha  92.199313
_cell_angle_beta   92.2634
_cell_angle_gamma 90.133526
loop_
_atom_site_label
_atom_site_type_symbol
_atom_site_fract_x
_atom_site_fract_y
_atom_site_fract_z
_atom_type_partial_charge
Mn0 Mn 0.25931 0.34169 0.02467 0.0
Mn1 Mn 0.23144 0.35828 0.9013 0.0
C2 C 0.26091 0.3209 0.93675 0.0
C3 C 0.25811 0.32117 0.11106 0.0
C4 C 0.27569 0.37839 0.94612 0.0
O5 O 0.23845 0.36523 0.05759 0.0
O6 O 0.21864 0.3726 0.97362 0.0
C7 C 0.18868 0.33646 0.923 0.0
N8 N 0.20603 0.33954 0.88723 0.0
C9 C 0.19102 0.31302 0.8136 0.0
C10 C 0.17285 0.30978 0.84932 0.0
C11 C 0.17171 0.32151 0.90433 0.0
C12 C 0.20741 0.32816 0.83451 0.0
H13 H 0.18785 0.34521 0.96565 0.0
C14 C 0.22255 0.3749 0.03005 0.0
O15 O 0.27305 0.33651 0.10615 0.0
O16 O 0.24377 0.31845 0.06718 0.0
N17 N 0.24159 0.3456 0.82783 0.0
C18 C 0.26024 0.35057 0.79865 0.0
C19 C 0.26383 0.34032 0.74269 0.0
C20 C 0.24817 0.32517 0.71712 0.0
C21 C 0.22893 0.32061 0.74746 0.0
C22 C 0.22608 0.3316 0.80268 0.0
H23 H 0.27236 0.36215 0.818 0.0
O24 O 0.27565 0.31827 0.97929 0.0
O25 O 0.24539 0.33516 0.94765 0.0
O26 O 0.27893 0.36597 0.99076 0.0
O27 O 0.25809 0.37747 0.91223 0.0
C28 C 0.21254 0.30548 0.72526 0.0
C29 C 0.19365 0.3016 0.75845 0.0
H30 H 0.15978 0.2982 0.83518 0.0
H31 H 0.15783 0.31897 0.93238 0.0
H32 H 0.2787 0.34398 0.71949 0.0
H33 H 0.25113 0.31709 0.6743 0.0
H34 H 0.2144 0.29658 0.68297 0.0
H35 H 0.18128 0.28975 0.74121 0.0
Mn36 Mn 0.92658 0.00843 0.25947 0.0
Mn37 Mn 0.90961 0.03682 0.38119 0.0
C38 C 0.94707 0.00695 0.34816 0.0
C39 C 0.94736 0.00962 0.1735 0.0
C40 C 0.88873 0.99311 0.33469 0.0
O41 O 0.90299 0.02925 0.22588 0.0
O42 O 0.89668 0.05041 0.30833 0.0
C43 C 0.93326 0.07893 0.36362 0.0
N44 N 0.92908 0.06147 0.39817 0.0
C45 C 0.9551 0.07515 0.47492 0.0
C46 C 0.95948 0.09342 0.44045 0.0
C47 C 0.94854 0.09528 0.3845 0.0
C48 C 0.93966 0.05941 0.45183 0.0
H49 H 0.9251 0.08028 0.32029 0.0
C50 C 0.89402 0.04584 0.25231 0.0
O51 O 0.93202 0.99466 0.17819 0.0
O52 O 0.94995 0.02396 0.21739 0.0
N53 N 0.921 0.02573 0.455 0.0
C54 C 0.91515 0.00695 0.48238 0.0
C55 C 0.92465 1.00257 0.53878 0.0
C56 C 0.93992 0.01761 0.56664 0.0
C57 C 0.94541 0.037 0.53806 0.0
C58 C 0.93518 0.04062 0.48225 0.0
H59 H 0.90337 0.99535 0.46135 0.0
O60 O 0.94993 0.99218 0.30584 0.0
O61 O 0.93281 0.02238 0.33641 0.0
O62 O 0.90217 0.98888 0.2929 0.0
O63 O 0.88941 0.01105 0.36719 0.0
C64 C 0.96079 0.05276 0.5625 0.0
C65 C 0.96571 0.07177 0.53083 0.0
H66 H 0.97133 0.10601 0.45628 0.0
H67 H 0.95197 0.10923 0.35742 0.0
H68 H 0.92027 0.9876 0.56063 0.0
H69 H 0.9474 0.01405 0.60983 0.0
H70 H 0.96912 0.0503 0.60532 0.0
H71 H 0.97778 0.08363 0.54974 0.0
Mn72 Mn 0.25906 0.6847 0.50758 0.0
Mn73 Mn 0.23241 0.66838 0.62765 0.0
C74 C 0.26252 0.70505 0.59633 0.0
C75 C 0.25759 0.70544 0.4216 0.0
C76 C 0.27472 0.64671 0.58473 0.0
O77 O 0.23682 0.66189 0.47225 0.0
O78 O 0.21788 0.65508 0.55408 0.0
C79 C 0.19004 0.69171 0.60472 0.0
N80 N 0.20805 0.68785 0.64121 0.0
C81 C 0.19515 0.71357 0.71652 0.0
C82 C 0.17639 0.71773 0.6799 0.0
C83 C 0.17386 0.70679 0.62369 0.0
C84 C 0.21076 0.69844 0.69512 0.0
H85 H 0.18808 0.68339 0.5614 0.0
C86 C 0.22101 0.6526 0.49818 0.0
O87 O 0.27193 0.68956 0.42793 0.0
O88 O 0.24388 0.70859 0.46383 0.0
N89 N 0.24454 0.68006 0.70244 0.0
C90 C 0.26358 0.67417 0.73235 0.0
C91 C 0.26854 0.68353 0.78956 0.0
C92 C 0.25377 0.69862 0.81567 0.0
C93 C 0.23408 0.70409 0.78451 0.0
C94 C 0.22993 0.69409 0.72789 0.0
H95 H 0.27491 0.66246 0.71274 0.0
O96 O 0.27685 0.70748 0.55563 0.0
O97 O 0.24642 0.69125 0.58318 0.0
O98 O 0.27826 0.65965 0.54217 0.0
O99 O 0.25776 0.64822 0.61712 0.0
C100 C 0.21847 0.71917 0.80728 0.0
C101 C 0.19908 0.724 0.77318 0.0
H102 H 0.16387 0.72936 0.69437 0.0
H103 H 0.15947 0.70998 0.59507 0.0
H104 H 0.28372 0.67914 0.81342 0.0
H105 H 0.25774 0.70595 0.85958 0.0
H106 H 0.22132 0.7273 0.85074 0.0
H107 H 0.18732 0.73581 0.79089 0.0
Mn108 Mn 0.584 0.00886 0.77086 0.0
Mn109 Mn 0.59957 0.03422 0.64793 0.0
C110 C 0.56231 0.00579 0.68396 0.0
C111 C 0.56448 0.01096 0.85883 0.0
C112 C 0.62039 0.99143 0.69059 0.0
O113 O 0.60778 0.03064 0.80345 0.0
O114 O 0.61448 0.04852 0.71974 0.0
C115 C 0.57832 0.07761 0.67186 0.0
N116 N 0.58092 0.0593 0.63556 0.0
C117 C 0.55455 0.07285 0.56262 0.0
C118 C 0.55169 0.09193 0.59906 0.0
C119 C 0.56359 0.09429 0.65398 0.0
C120 C 0.5694 0.05677 0.58289 0.0
H121 H 0.58737 0.07944 0.71421 0.0
C122 C 0.61742 0.04581 0.77577 0.0
O123 O 0.57996 0.99628 0.85121 0.0
O124 O 0.5611 0.02471 0.8167 0.0
N125 N 0.58634 0.02226 0.57473 0.0
C126 C 0.591 1.00286 0.54484 0.0
C127 C 0.58059 0.99802 0.48881 0.0
C128 C 0.56569 0.01325 0.46383 0.0
C129 C 0.56147 0.03328 0.49492 0.0
C130 C 0.57251 0.0373 0.5503 0.0
H131 H 0.60253 0.99115 0.56361 0.0
O132 O 0.56013 0.99161 0.72519 0.0
O133 O 0.5768 0.02143 0.69532 0.0
O134 O 0.60805 0.98879 0.73489 0.0
O135 O 0.61887 0.00811 0.65714 0.0
C136 C 0.54664 0.04936 0.47329 0.0
C137 C 0.54309 0.06907 0.50727 0.0
H138 H 0.54034 0.10482 0.58545 0.0
H139 H 0.5614 0.10891 0.68246 0.0
H140 H 0.584 0.98257 0.46499 0.0
H141 H 0.55754 0.00937 0.42086 0.0
H142 H 0.53773 0.04663 0.43083 0.0
H143 H 0.53147 0.0812 0.49047 0.0
Mn144 Mn 0.75336 0.68418 0.00837 0.0
Mn145 Mn 0.77762 0.66724 0.13683 0.0
C146 C 0.75206 0.70634 0.09431 0.0
C147 C 0.75596 0.70404 0.92096 0.0
C148 C 0.733 0.64971 0.08824 0.0
O149 O 0.77379 0.65958 0.97904 0.0
O150 O 0.78945 0.65029 0.06725 0.0
C151 C 0.82333 0.68275 0.11858 0.0
N152 N 0.8051 0.68255 0.1524 0.0
C153 C 0.82321 0.70584 0.22898 0.0
C154 C 0.84223 0.70618 0.19516 0.0
C155 C 0.84226 0.69462 0.13966 0.0
C156 C 0.80489 0.69358 0.2059 0.0
H157 H 0.82341 0.67393 0.07586 0.0
C158 C 0.78732 0.64814 0.01026 0.0
O159 O 0.74061 0.68913 0.92581 0.0
O160 O 0.77016 0.70653 0.96532 0.0
N161 N 0.76805 0.68233 0.20775 0.0
C162 C 0.74775 0.682 0.2322 0.0
C163 C 0.74459 0.69361 0.28656 0.0
C164 C 0.76234 0.7053 0.3154 0.0
C165 C 0.7831 0.7053 0.28954 0.0
C166 C 0.7853 0.69334 0.23543 0.0
H167 H 0.734 0.67322 0.20998 0.0
O168 O 0.73761 0.70866 0.05085 0.0
O169 O 0.76692 0.69103 0.08645 0.0
O170 O 0.73187 0.66088 0.04075 0.0
O171 O 0.74939 0.65099 0.12591 0.0
C172 C 0.8015 0.71732 0.31431 0.0
C173 C 0.82153 0.71759 0.28404 0.0
H174 H 0.85682 0.71544 0.21106 0.0
H175 H 0.85684 0.6949 0.11316 0.0
H176 H 0.72847 0.69366 0.30601 0.0
H177 H 0.75976 0.71446 0.35695 0.0
H178 H 0.80027 0.72678 0.35599 0.0
H179 H 0.83543 0.72721 0.303 0.0
Mn180 Mn 0.08353 0.01535 0.77175 0.0
Mn181 Mn 0.10248 0.99147 0.64543 0.0
C182 C 0.06273 0.01693 0.68368 0.0
C183 C 0.06212 0.01215 0.85618 0.0
C184 C 0.11856 0.03642 0.69437 0.0
O185 O 0.10753 0.9949 0.80392 0.0
O186 O 0.11937 0.98063 0.7167 0.0
C187 C 0.08809 0.94553 0.66548 0.0
N188 N 0.08806 0.96348 0.63058 0.0
C189 C 0.06554 0.94431 0.55416 0.0
C190 C 0.06548 0.92556 0.58909 0.0
C191 C 0.07676 0.9262 0.64504 0.0
C192 C 0.07726 0.96305 0.57665 0.0
H193 H 0.09668 0.94597 0.70859 0.0
C194 C 0.12027 0.98238 0.77384 0.0
O195 O 0.07721 0.02753 0.85428 0.0
O196 O 0.06042 0.99837 0.81084 0.0
N197 N 0.08774 1.00006 0.57294 0.0
C198 C 0.08785 0.0201 0.54705 0.0
C199 C 0.07652 0.02256 0.49192 0.0
C200 C 0.06532 1.00437 0.46377 0.0
C201 C 0.06555 0.98387 0.49107 0.0
C202 C 0.07724 0.98238 0.54589 0.0
H203 H 0.09624 0.03419 0.56874 0.0
O204 O 0.05981 0.03128 0.72699 0.0
O205 O 0.07784 1.00196 0.693 0.0
O206 O 0.1074 0.03701 0.742 0.0
O207 O 0.11764 0.0202 0.65616 0.0
C208 C 0.05405 0.96506 0.46697 0.0
C209 C 0.05403 0.9453 0.49851 0.0
H210 H 0.05663 0.91066 0.57367 0.0
H211 H 0.07668 0.91183 0.6724 0.0
H212 H 0.07629 0.03847 0.47134 0.0
H213 H 0.05637 0.00641 0.42161 0.0
H214 H 0.04482 0.96574 0.42475 0.0
H215 H 0.04483 0.93106 0.47998 0.0
Mn216 Mn 0.75127 0.34044 0.51612 0.0
Mn217 Mn 0.77138 0.36172 0.3921 0.0
C218 C 0.74791 0.32072 0.4264 0.0
C219 C 0.75633 0.31883 0.59986 0.0
C220 C 0.72907 0.3778 0.44773 0.0
O221 O 0.77251 0.36459 0.54907 0.0
O222 O 0.78655 0.37606 0.46362 0.0
C223 C 0.81745 0.34513 0.40035 0.0
N224 N 0.79764 0.34649 0.36958 0.0
C225 C 0.81133 0.32486 0.28675 0.0
C226 C 0.83193 0.32334 0.31741 0.0
C227 C 0.83498 0.3335 0.37449 0.0
C228 C 0.79455 0.33688 0.31449 0.0
H229 H 0.81982 0.35286 0.44431 0.0
C230 C 0.78561 0.37664 0.52059 0.0
O231 O 0.74101 0.3339 0.59737 0.0
O232 O 0.76922 0.31713 0.55519 0.0
N233 N 0.75808 0.34895 0.31998 0.0
C234 C 0.73666 0.35022 0.29895 0.0
C235 C 0.73048 0.33985 0.24375 0.0
C236 C 0.74639 0.32839 0.21067 0.0
C237 C 0.76835 0.32739 0.23312 0.0
C238 C 0.77357 0.33815 0.28825 0.0
H239 H 0.72436 0.35892 0.32437 0.0
O240 O 0.73461 0.31676 0.46876 0.0
O241 O 0.76252 0.33632 0.43762 0.0
O242 O 0.72863 0.36393 0.48921 0.0
O243 O 0.7444 0.3785 0.41037 0.0
C244 C 0.78512 0.31561 0.20377 0.0
C245 C 0.80661 0.31438 0.23052 0.0
H246 H 0.84543 0.3142 0.29788 0.0
H247 H 0.85079 0.33229 0.39857 0.0
H248 H 0.71347 0.34061 0.22685 0.0
H249 H 0.7415 0.3202 0.16841 0.0
H250 H 0.78156 0.30708 0.16116 0.0
H251 H 0.81925 0.30493 0.20802 0.0
Mn252 Mn 0.42833 0.01704 0.25964 0.0
Mn253 Mn 0.40617 0.99608 0.38143 0.0
C254 C 0.44767 0.01947 0.35008 0.0
C255 C 0.45021 0.01222 0.17644 0.0
C256 C 0.3912 0.03928 0.32873 0.0
O257 O 0.40384 0.99666 0.22443 0.0
O258 O 0.39178 0.98203 0.3084 0.0
C259 C 0.42204 0.94985 0.36964 0.0
N260 N 0.42084 0.96929 0.4021 0.0
C261 C 0.44181 0.95421 0.4843 0.0
C262 C 0.44315 0.93398 0.4519 0.0
C263 C 0.43325 0.93181 0.39428 0.0
C264 C 0.43022 0.97154 0.45767 0.0
H265 H 0.4145 0.94816 0.32527 0.0
C266 C 0.39134 0.9836 0.2516 0.0
O267 O 0.43546 0.02784 0.17933 0.0
O268 O 0.45143 0.99894 0.22033 0.0
N269 N 0.41882 0.00828 0.45502 0.0
C270 C 0.4177 0.02944 0.478 0.0
C271 C 0.4278 0.03475 0.53414 0.0
C272 C 0.43881 0.01823 0.56616 0.0
C273 C 0.43961 0.99654 0.54173 0.0
C274 C 0.42914 0.99221 0.48574 0.0
H275 H 0.40934 0.04221 0.45345 0.0
O276 O 0.4521 0.03292 0.30846 0.0
O277 O 0.43195 1.00507 0.33758 0.0
O278 O 0.40516 0.03988 0.28749 0.0
O279 O 0.39006 0.02359 0.36491 0.0
C280 C 0.45094 0.97921 0.56996 0.0
C281 C 0.45202 0.95805 0.54129 0.0
H282 H 0.45195 0.92008 0.47052 0.0
H283 H 0.43432 0.91628 0.36888 0.0
H284 H 0.42719 0.05154 0.55258 0.0
H285 H 0.4468 0.02245 0.60915 0.0
H286 H 0.45924 0.98208 0.6132 0.0
H287 H 0.46111 0.94497 0.56298 0.0
Mn288 Mn 0.75853 0.84127 0.51983 0.0
Mn289 Mn 0.73301 0.85874 0.39396 0.0
C290 C 0.76242 0.82163 0.43045 0.0
C291 C 0.75627 0.81913 0.60333 0.0
C292 C 0.77539 0.87978 0.44823 0.0
O293 O 0.73609 0.86376 0.5514 0.0
O294 O 0.71857 0.87196 0.46472 0.0
C295 C 0.6901 0.8359 0.40645 0.0
N296 N 0.7083 0.83962 0.37426 0.0
C297 C 0.69536 0.81386 0.29608 0.0
C298 C 0.6764 0.80985 0.32821 0.0
C299 C 0.67379 0.82089 0.38369 0.0
C300 C 0.71105 0.82898 0.32105 0.0
H301 H 0.68809 0.84425 0.44926 0.0
C302 C 0.72093 0.87377 0.52164 0.0
O303 O 0.77055 0.83531 0.60288 0.0
O304 O 0.74299 0.81669 0.55705 0.0
N305 N 0.74508 0.84718 0.32167 0.0
C306 C 0.76431 0.85293 0.2963 0.0
C307 C 0.76935 0.84351 0.24032 0.0
C308 C 0.7545 0.82844 0.21082 0.0
C309 C 0.73464 0.82308 0.23733 0.0
C310 C 0.73039 0.83321 0.29282 0.0
H311 H 0.77574 0.86458 0.31862 0.0
O312 O 0.77649 0.81892 0.47459 0.0
O313 O 0.74643 0.83541 0.44047 0.0
O314 O 0.77824 0.86674 0.49172 0.0
O315 O 0.75876 0.87854 0.41105 0.0
C316 C 0.71897 0.80798 0.21106 0.0
C317 C 0.6994 0.80329 0.24056 0.0
H318 H 0.66381 0.79826 0.31087 0.0
H319 H 0.65926 0.8178 0.40888 0.0
H320 H 0.78467 0.8478 0.22006 0.0
H321 H 0.75855 0.82104 0.16795 0.0
H322 H 0.72191 0.79973 0.16844 0.0
H323 H 0.68759 0.79147 0.22021 0.0
Mn324 Mn 0.4262 0.51145 0.76046 0.0
Mn325 Mn 0.40864 0.53508 0.88873 0.0
C326 C 0.44764 0.50915 0.84734 0.0
C327 C 0.44711 0.51493 0.67515 0.0
C328 C 0.39096 0.4909 0.83752 0.0
O329 O 0.40214 0.53234 0.73083 0.0
O330 O 0.39212 0.54742 0.81894 0.0
C331 C 0.42471 0.58074 0.87273 0.0
N332 N 0.42415 0.56234 0.90585 0.0
C333 C 0.44742 0.57978 0.98363 0.0
C334 C 0.44811 0.59897 0.95053 0.0
C335 C 0.43675 0.59943 0.89479 0.0
C336 C 0.43499 0.56173 0.9596 0.0
H337 H 0.41605 0.58114 0.82979 0.0
C338 C 0.39044 0.54566 0.76183 0.0
O339 O 0.43185 0.49972 0.67702 0.0
O340 O 0.44921 0.52844 0.72098 0.0
N341 N 0.42326 0.52501 0.95984 0.0
C342 C 0.42264 0.50457 0.98346 0.0
C343 C 0.43404 0.50099 0.03792 0.0
C344 C 0.44586 0.51845 0.06768 0.0
C345 C 0.44619 0.53935 0.04262 0.0
C346 C 0.43441 0.54198 0.98839 0.0
H347 H 0.41379 0.49103 0.96049 0.0
O348 O 0.4501 0.49498 0.80334 0.0
O349 O 0.43261 0.52428 0.83937 0.0
O350 O 0.40229 0.48997 0.79026 0.0
O351 O 0.39226 0.50705 0.87591 0.0
C352 C 0.45837 0.55747 0.06832 0.0
C353 C 0.45899 0.57767 0.03884 0.0
H354 H 0.45752 0.61337 0.96718 0.0
H355 H 0.43732 0.61414 0.86884 0.0
H356 H 0.43384 0.48476 0.05673 0.0
H357 H 0.45487 0.51554 0.10929 0.0
H358 H 0.4677 0.55591 0.11013 0.0
H359 H 0.46874 0.59135 0.05852 0.0
Mn360 Mn 0.76097 0.1849 0.00644 0.0
Mn361 Mn 0.73687 0.16699 0.12882 0.0
C362 C 0.76392 0.20562 0.09488 0.0
C363 C 0.7582 0.20516 0.91978 0.0
C364 C 0.77952 0.14764 0.08164 0.0
O365 O 0.73951 0.16088 0.97297 0.0
O366 O 0.72192 0.1532 0.05652 0.0
C367 C 0.69307 0.18818 0.11106 0.0
N368 N 0.71184 0.18521 0.14542 0.0
C369 C 0.69905 0.2104 0.22216 0.0
C370 C 0.67952 0.21363 0.18776 0.0
C371 C 0.67654 0.2025 0.13192 0.0
C372 C 0.71494 0.19595 0.19901 0.0
H373 H 0.69077 0.17974 0.06799 0.0
C374 C 0.72442 0.15092 1.00026 0.0
O375 O 0.77315 0.18988 0.92631 0.0
O376 O 0.74447 0.20793 0.96225 0.0
N377 N 0.74965 0.17924 0.20225 0.0
C378 C 0.76954 0.17452 0.22957 0.0
C379 C 0.77508 0.18425 0.28601 0.0
C380 C 0.76005 0.19859 0.31396 0.0
C381 C 0.73955 0.20295 0.28536 0.0
C382 C 0.73484 0.19257 0.22945 0.0
H383 H 0.78112 0.16343 0.20848 0.0
O384 O 0.77779 0.20875 0.0534 0.0
O385 O 0.74871 0.19075 0.08287 0.0
O386 O 0.78187 0.16117 0.03992 0.0
O387 O 0.76292 0.14782 0.11541 0.0
C388 C 0.72368 0.21736 0.30986 0.0
C389 C 0.7035 0.22116 0.27816 0.0
H390 H 0.66676 0.2247 0.20363 0.0
H391 H 0.66156 0.20499 0.10499 0.0
H392 H 0.79091 0.18076 0.30785 0.0
H393 H 0.76447 0.20623 0.35722 0.0
H394 H 0.72694 0.22578 0.35277 0.0
H395 H 0.69155 0.23247 0.29714 0.0
Mn396 Mn 0.08252 0.50948 0.26915 0.0
Mn397 Mn 0.10292 0.52937 0.14388 0.0
C398 C 0.06238 0.50556 0.18009 0.0
C399 C 0.06127 0.51499 0.35339 0.0
C400 C 0.11985 0.48753 0.2009 0.0
O401 O 0.1069 0.53081 0.30046 0.0
O402 O 0.11681 0.5455 0.21441 0.0
C403 C 0.08513 0.575 0.14908 0.0
N404 N 0.08695 0.55499 0.11965 0.0
C405 C 0.06494 0.56743 0.03581 0.0
C406 C 0.06293 0.58822 0.0651 0.0
C407 C 0.07304 0.592 0.12201 0.0
C408 C 0.07739 0.5512 0.06474 0.0
H409 H 0.09283 0.57795 0.1929 0.0
C410 C 0.11805 0.54451 0.27136 0.0
O411 O 0.07634 0.49966 0.35111 0.0
O412 O 0.05942 0.52766 0.30826 0.0
N413 N 0.09041 0.51515 0.07264 0.0
C414 C 0.09223 0.49363 0.05299 0.0
C415 C 0.082 0.48674 0.99814 0.0
C416 C 0.07009 0.50206 0.964 0.0
C417 C 0.06853 0.52414 0.98504 0.0
C418 C 0.07917 0.53007 0.03988 0.0
H419 H 0.10128 0.48177 0.07917 0.0
O420 O 0.0586 0.49256 0.22323 0.0
O421 O 0.07792 0.52028 0.19034 0.0
O422 O 0.10586 0.48679 0.242 0.0
O423 O 0.12045 0.50298 0.16381 0.0
C424 C 0.05632 0.54034 0.95454 0.0
C425 C 0.05456 0.56199 0.97985 0.0
H426 H 0.05345 0.60131 0.04462 0.0
H427 H 0.07147 0.60796 0.14502 0.0
H428 H 0.08319 0.46965 0.98233 0.0
H429 H 0.06202 0.49662 0.92203 0.0
H430 H 0.04786 0.53622 0.91212 0.0
H431 H 0.04479 0.57419 0.95647 0.0
Mn432 Mn 0.25351 0.18497 0.51294 0.0
Mn433 Mn 0.27881 0.16624 0.63773 0.0
C434 C 0.25189 0.20552 0.60128 0.0
C435 C 0.25642 0.2064 0.42848 0.0
C436 C 0.23423 0.14859 0.58779 0.0
O437 O 0.27397 0.16104 0.48064 0.0
O438 O 0.29184 0.15166 0.56595 0.0
C439 C 0.32366 0.18477 0.62352 0.0
N440 N 0.30543 0.18264 0.6567 0.0
C441 C 0.322 0.20531 0.73702 0.0
C442 C 0.34107 0.2075 0.70402 0.0
C443 C 0.34187 0.19724 0.64695 0.0
C444 C 0.30447 0.19247 0.71164 0.0
H445 H 0.32427 0.17709 0.57943 0.0
C446 C 0.28885 0.15024 0.50905 0.0
O447 O 0.24112 0.19125 0.43053 0.0
O448 O 0.27028 0.20817 0.47368 0.0
N449 N 0.26822 0.17919 0.71036 0.0
C450 C 0.24784 0.17734 0.73374 0.0
C451 C 0.24383 0.18775 0.78923 0.0
C452 C 0.26082 0.19983 0.82026 0.0
C453 C 0.28169 0.20142 0.79547 0.0
C454 C 0.28477 0.19059 0.74016 0.0
H455 H 0.23465 0.16822 0.70995 0.0
O456 O 0.23751 0.20856 0.55804 0.0
O457 O 0.26698 0.19062 0.59136 0.0
O458 O 0.23224 0.16112 0.54302 0.0
O459 O 0.25131 0.14885 0.62333 0.0
C460 C 0.29933 0.21394 0.82256 0.0
C461 C 0.31947 0.21588 0.79336 0.0
H462 H 0.35507 0.21728 0.72169 0.0
H463 H 0.35644 0.19903 0.62098 0.0
H464 H 0.22763 0.18655 0.80789 0.0
H465 H 0.25758 0.20806 0.86272 0.0
H466 H 0.29742 0.22254 0.86525 0.0
H467 H 0.33275 0.22592 0.81409 0.0
Mn468 Mn 0.58318 0.51773 0.27256 0.0
Mn469 Mn 0.60062 0.48995 0.1501 0.0
C470 C 0.56291 0.51925 0.18353 0.0
C471 C 0.56207 0.51658 0.35799 0.0
C472 C 0.62049 0.53417 0.19608 0.0
O473 O 0.60656 0.49685 0.30666 0.0
O474 O 0.61438 0.47708 0.22305 0.0
C475 C 0.57854 0.4472 0.17033 0.0
N476 N 0.58197 0.46456 0.1348 0.0
C477 C 0.55613 0.44954 0.05937 0.0
C478 C 0.55256 0.43135 0.09481 0.0
C479 C 0.56377 0.43022 0.15061 0.0
C480 C 0.57107 0.46594 0.08133 0.0
H481 H 0.58687 0.4464 0.21358 0.0
C482 C 0.61634 0.48094 0.27954 0.0
O483 O 0.57749 0.53149 0.35367 0.0
O484 O 0.55961 0.50223 0.31409 0.0
N485 N 0.58848 0.5002 0.07605 0.0
C486 C 0.59361 0.51893 0.04743 0.0
C487 C 0.58382 0.52256 0.9909 0.0
C488 C 0.56898 0.50686 0.96419 0.0
C489 C 0.56424 0.48754 0.99401 0.0
C490 C 0.57475 0.48466 0.04987 0.0
H491 H 0.60496 0.53109 0.06765 0.0
O492 O 0.55999 0.53401 0.22581 0.0
O493 O 0.57716 0.5038 0.19527 0.0
O494 O 0.60772 0.53741 0.23993 0.0
O495 O 0.61979 0.51658 0.16221 0.0
C496 C 0.54934 0.47111 0.97071 0.0
C497 C 0.5452 0.45218 0.0035 0.0
H498 H 0.54112 0.41826 0.07987 0.0
H499 H 0.56095 0.41634 0.17847 0.0
H500 H 0.58761 0.53749 0.96812 0.0
H501 H 0.56125 0.50984 0.92091 0.0
H502 H 0.5408 0.47299 0.92788 0.0
H503 H 0.53352 0.4398 0.98543 0.0
Mn504 Mn 0.25434 0.84058 0.01789 0.0
Mn505 Mn 0.27713 0.85839 0.89334 0.0
C506 C 0.25232 0.81891 0.9315 0.0
C507 C 0.25795 0.82009 0.10429 0.0
C508 C 0.23267 0.87462 0.93533 0.0
O509 O 0.27497 0.86496 0.0507 0.0
O510 O 0.28847 0.87623 0.96473 0.0
C511 C 0.32344 0.84511 0.92153 0.0
N512 N 0.3052 0.8444 0.88381 0.0
C513 C 0.32424 0.82198 0.81131 0.0
C514 C 0.34327 0.82261 0.8492 0.0
C515 C 0.34284 0.83418 0.9046 0.0
C516 C 0.30543 0.83332 0.83038 0.0
H517 H 0.32318 0.85394 0.9642 0.0
C518 C 0.2872 0.87758 0.0216 0.0
O519 O 0.24267 0.83514 0.09888 0.0
O520 O 0.27154 0.81802 0.06144 0.0
N521 N 0.26813 0.84262 0.82073 0.0
C522 C 0.24774 0.8415 0.7925 0.0
C523 C 0.24505 0.82972 0.73756 0.0
C524 C 0.26333 0.8192 0.71219 0.0
C525 C 0.28412 0.82041 0.74225 0.0
C526 C 0.28584 0.83255 0.79667 0.0
H527 H 0.23356 0.84899 0.81259 0.0
O528 O 0.23811 0.81633 0.97244 0.0
O529 O 0.26726 0.83429 0.94189 0.0
O530 O 0.23259 0.86405 0.98378 0.0
O531 O 0.24827 0.87317 0.89858 0.0
C532 C 0.303 0.80935 0.72147 0.0
C533 C 0.32304 0.81012 0.756 0.0
H534 H 0.35823 0.81408 0.83648 0.0
H535 H 0.35743 0.83464 0.93423 0.0
H536 H 0.22886 0.82854 0.71517 0.0
H537 H 0.26111 0.80984 0.67026 0.0
H538 H 0.30215 0.79979 0.67965 0.0
H539 H 0.33732 0.8012 0.74008 0.0
Mn540 Mn 0.92687 0.51624 0.75824 0.0
Mn541 Mn 0.91057 0.48951 0.87843 0.0
C542 C 0.94778 0.51873 0.84633 0.0
C543 C 0.94714 0.51517 0.67144 0.0
C544 C 0.88969 0.5325 0.83808 0.0
O545 O 0.90369 0.49442 0.72268 0.0
O546 O 0.8958 0.47624 0.80514 0.0
C547 C 0.93193 0.44646 0.85096 0.0
N548 N 0.92917 0.46428 0.88889 0.0
C549 C 0.95533 0.44983 0.96099 0.0
C550 C 0.95835 0.43124 0.92286 0.0
C551 C 0.94664 0.42958 0.86755 0.0
C552 C 0.94051 0.46614 0.94196 0.0
H553 H 0.92303 0.44518 0.8083 0.0
C554 C 0.89344 0.47937 0.7492 0.0
O555 O 0.93144 0.52961 0.67905 0.0
O556 O 0.95037 0.50113 0.71291 0.0
N557 N 0.92348 0.5005 0.95301 0.0
C558 C 0.91858 0.51944 0.9847 0.0
C559 C 0.92874 0.52355 0.0414 0.0
C560 C 0.94363 0.50805 0.06517 0.0
C561 C 0.94806 0.48847 0.03225 0.0
C562 C 0.93725 0.48518 0.97628 0.0
H563 H 0.90704 0.53134 0.96683 0.0
O564 O 0.95011 0.53339 0.80637 0.0
O565 O 0.93358 0.50299 0.83312 0.0
O566 O 0.90215 0.53562 0.79422 0.0
O567 O 0.89136 0.51568 0.87093 0.0
C568 C 0.96286 0.47215 0.05263 0.0
C569 C 0.96659 0.4529 0.01687 0.0
H570 H 0.96969 0.41819 0.93547 0.0
H571 H 0.94895 0.41533 0.83776 0.0
H572 H 0.92514 0.53864 0.06665 0.0
H573 H 0.95159 0.51136 0.10867 0.0
H574 H 0.9716 0.47433 0.0955 0.0
H575 H 0.97818 0.44059 0.03274 0.0
H576 H 0.2233 0.2971 0.14646 0.0
H577 H 0.29252 0.31052 0.18811 0.0
H578 H 0.22316 0.26936 0.222 0.0
H579 H 0.29284 0.28189 0.26201 0.0
H580 H 0.28141 0.24382 0.42858 0.0
H581 H 0.28164 0.272 0.35486 0.0
H582 H 0.23445 0.23355 0.24372 0.0
H583 H 0.23341 0.2057 0.31984 0.0
C584 C 0.23853 0.29411 0.17197 0.0
C585 C 0.25791 0.30607 0.16153 0.0
C586 C 0.23853 0.27795 0.21489 0.0
C587 C 0.25804 0.273 0.24803 0.0
C588 C 0.27738 0.28532 0.23816 0.0
C589 C 0.27726 0.30178 0.19573 0.0
C590 C 0.27113 0.24125 0.38827 0.0
C591 C 0.25737 0.22245 0.38015 0.0
C592 C 0.27137 0.25746 0.34559 0.0
C593 C 0.25808 0.25525 0.29289 0.0
C594 C 0.24462 0.23614 0.28415 0.0
C595 C 0.24414 0.22001 0.3275 0.0
H596 H 0.95324 0.97776 0.43596 0.0
H597 H 0.97767 0.03893 0.37064 0.0
H598 H 0.98013 0.98041 0.5195 0.0
H599 H 0.0063 0.0407 0.44968 0.0
H600 H 0.04457 0.05066 0.62276 0.0
H601 H 0.01529 0.04849 0.5454 0.0
H602 H 0.01445 0.97696 0.55653 0.0
H603 H 0.04163 0.97994 0.63891 0.0
C604 C 0.96461 0.99171 0.43967 0.0
C605 C 0.96303 0.00857 0.39882 0.0
C606 C 0.98035 0.99313 0.48696 0.0
C607 C 0.99561 0.0109 0.49246 0.0
C608 C 0.9945 0.02719 0.44907 0.0
C609 C 0.97821 0.02615 0.40325 0.0
C610 C 0.03803 0.03454 0.60818 0.0
C611 C 0.04614 0.01531 0.63409 0.0
C612 C 0.02138 0.03318 0.56326 0.0
C613 C 0.01264 0.01246 0.54264 0.0
C614 C 0.0204 0.9933 0.57064 0.0
C615 C 0.03652 0.99483 0.61689 0.0
H616 H 0.23109 0.73571 0.61294 0.0
H617 H 0.29274 0.71154 0.68797 0.0
H618 H 0.22948 0.7637 0.69301 0.0
H619 H 0.29023 0.73771 0.77251 0.0
H620 H 0.28954 0.79836 0.89597 0.0
H621 H 0.29299 0.77153 0.81385 0.0
H622 H 0.2214 0.77053 0.78784 0.0
H623 H 0.21869 0.79931 0.86569 0.0
C624 C 0.24407 0.73623 0.64773 0.0
C625 C 0.26168 0.72127 0.64595 0.0
C626 C 0.24309 0.75209 0.69417 0.0
C627 C 0.2594 0.75286 0.74087 0.0
C628 C 0.27742 0.73806 0.73756 0.0
C629 C 0.27879 0.72278 0.68964 0.0
C630 C 0.27471 0.79278 0.87108 0.0
C631 C 0.25405 0.80182 0.88394 0.0
C632 C 0.27653 0.77691 0.82485 0.0
C633 C 0.25751 0.76899 0.79235 0.0
C634 C 0.2366 0.77687 0.80926 0.0
C635 C 0.23492 0.79319 0.85441 0.0
H636 H 0.48821 0.98803 0.17489 0.0
H637 H 0.44905 0.03319 0.07022 0.0
H638 H 0.51671 0.98789 0.1015 0.0
H639 H 0.47706 0.03221 0.99481 0.0
H640 H 0.5398 0.04534 0.90031 0.0
H641 H 0.51248 0.04511 0.97687 0.0
H642 H 0.52727 0.97626 0.00664 0.0
H643 H 0.55548 0.97699 0.93178 0.0
C644 C 0.4855 0.99764 0.13554 0.0
C645 C 0.46637 0.01067 0.12844 0.0
C646 C 0.50186 0.99749 0.09317 0.0
C647 C 0.49942 0.01014 0.04203 0.0
C648 C 0.47988 0.02266 0.03418 0.0
C649 C 0.46366 0.02307 0.07711 0.0
C650 C 0.53741 0.03023 0.92383 0.0
C651 C 0.54982 0.01119 0.91014 0.0
C652 C 0.5215 0.02999 0.96731 0.0
C653 C 0.51725 0.01056 0.99765 0.0
C654 C 0.53013 0.99163 0.98486 0.0
C655 C 0.54635 0.992 0.94189 0.0
H656 H 0.28198 0.78226 0.10899 0.0
H657 H 0.23576 0.82166 0.20928 0.0
H658 H 0.28162 0.75415 0.18279 0.0
H659 H 0.2363 0.79392 0.2858 0.0
H660 H 0.22345 0.73075 0.38128 0.0
H661 H 0.22389 0.75856 0.30592 0.0
H662 H 0.29284 0.74385 0.2771 0.0
H663 H 0.29184 0.71513 0.35042 0.0
C664 C 0.27202 0.78514 0.14757 0.0
C665 C 0.25888 0.80426 0.15322 0.0
C666 C 0.27192 0.76897 0.19032 0.0
C667 C 0.25894 0.77155 0.2407 0.0
C668 C 0.24618 0.79102 0.24712 0.0
C669 C 0.24601 0.8071 0.2036 0.0
C670 C 0.23862 0.73328 0.3582 0.0
C671 C 0.25758 0.72067 0.37149 0.0
C672 C 0.23898 0.74948 0.31543 0.0
C673 C 0.25846 0.75382 0.28547 0.0
C674 C 0.27738 0.74089 0.29836 0.0
C675 C 0.27688 0.72437 0.34048 0.0
H676 H 0.4663 0.98173 0.38821 0.0
H677 H 0.4667 0.05247 0.41992 0.0
H678 H 0.49215 0.9774 0.472 0.0
H679 H 0.49481 0.04889 0.49931 0.0
H680 H 0.53256 0.03838 0.66981 0.0
H681 H 0.50344 0.04083 0.59278 0.0
H682 H 0.52591 0.97884 0.51213 0.0
H683 H 0.55314 0.97558 0.59383 0.0
C684 C 0.47189 0.99636 0.41395 0.0
C685 C 0.46358 0.01727 0.40049 0.0
C686 C 0.48726 0.99402 0.46118 0.0
C687 C 0.49567 0.01275 0.49408 0.0
C688 C 0.48821 0.03388 0.47752 0.0
C689 C 0.47226 0.03608 0.43143 0.0
C690 C 0.53099 0.02531 0.63547 0.0
C691 C 0.5453 0.00713 0.63614 0.0
C692 C 0.51444 0.02675 0.59073 0.0
C693 C 0.5123 0.01032 0.54451 0.0
C694 C 0.52648 0.99176 0.54679 0.0
C695 C 0.54242 0.98995 0.59309 0.0
H696 H 0.21809 0.22248 0.66397 0.0
H697 H 0.28858 0.22721 0.64519 0.0
H698 H 0.21999 0.25156 0.74165 0.0
H699 H 0.29146 0.25391 0.72833 0.0
H700 H 0.29042 0.31447 0.8502 0.0
H701 H 0.28801 0.28755 0.76708 0.0
H702 H 0.22755 0.26135 0.83613 0.0
H703 H 0.22901 0.29021 0.91437 0.0
C704 C 0.23413 0.22932 0.67822 0.0
C705 C 0.25339 0.22178 0.65144 0.0
C706 C 0.23536 0.24585 0.72337 0.0
C707 C 0.25599 0.25498 0.74349 0.0
C708 C 0.27516 0.24771 0.71472 0.0
C709 C 0.27372 0.2318 0.66807 0.0
C710 C 0.27649 0.30308 0.84637 0.0
C711 C 0.25946 0.30477 0.88662 0.0
C712 C 0.27521 0.28729 0.79932 0.0
C713 C 0.25744 0.272 0.79364 0.0
C714 C 0.24104 0.27317 0.8367 0.0
C715 C 0.2419 0.28958 0.88212 0.0
H716 H 0.02477 0.98702 0.85588 0.0
H717 H 0.06278 0.03497 0.96501 0.0
H718 H 0.99662 0.98657 0.92961 0.0
H719 H 0.03498 0.03371 0.04113 0.0
H720 H 0.97147 0.0445 0.13862 0.0
H721 H 0.99918 0.04483 0.06311 0.0
H722 H 0.98672 0.97522 0.0223 0.0
H723 H 0.95811 0.97535 0.0962 0.0
C724 C 0.02733 0.99724 0.89627 0.0
C725 C 0.04609 0.01106 0.9045 0.0
C726 C 0.01113 0.99687 0.93897 0.0
C727 C 0.01331 0.01008 0.99179 0.0
C728 C 0.03239 0.02359 1.00061 0.0
C729 C 0.0485 0.0242 0.95726 0.0
C730 C 0.97447 0.02932 0.11297 0.0
C731 C 0.96252 0.00991 0.12319 0.0
C732 C 0.99062 0.02942 0.07005 0.0
C733 C 0.99558 0.01 0.03667 0.0
C734 C 0.98329 0.99062 0.04634 0.0
C735 C 0.96683 0.99063 0.08877 0.0
H736 H 0.72229 0.71338 0.84038 0.0
H737 H 0.79042 0.72963 0.889 0.0
H738 H 0.72186 0.74186 0.76625 0.0
H739 H 0.79047 0.75734 0.81318 0.0
H740 H 0.77831 0.8207 0.7135 0.0
H741 H 0.77794 0.79269 0.78936 0.0
H742 H 0.73389 0.75203 0.6745 0.0
H743 H 0.73345 0.78029 0.60094 0.0
C744 C 0.73733 0.72271 0.83429 0.0
C745 C 0.75638 0.7192 0.8705 0.0
C746 C 0.73714 0.7391 0.79167 0.0
C747 C 0.75612 0.75219 0.78354 0.0
C748 C 0.77536 0.7481 0.81879 0.0
C749 C 0.77543 0.73196 0.86189 0.0
C750 C 0.76842 0.80585 0.70492 0.0
C751 C 0.75584 0.80285 0.65129 0.0
C752 C 0.76833 0.78963 0.74815 0.0
C753 C 0.75589 0.76988 0.73841 0.0
C754 C 0.74333 0.76706 0.6846 0.0
C755 C 0.74319 0.78333 0.642 0.0
H756 H 0.78575 0.30194 0.39011 0.0
H757 H 0.71498 0.30044 0.3583 0.0
H758 H 0.79041 0.27553 0.30808 0.0
H759 H 0.71893 0.27166 0.28078 0.0
H760 H 0.73038 0.23415 0.10992 0.0
H761 H 0.72705 0.26284 0.18756 0.0
H762 H 0.78967 0.24184 0.26824 0.0
H763 H 0.79377 0.21512 0.18587 0.0
C764 C 0.77117 0.29596 0.36475 0.0
C765 C 0.75017 0.30418 0.37749 0.0
C766 C 0.77371 0.28024 0.31854 0.0
C767 C 0.7551 0.27138 0.286 0.0
C768 C 0.73385 0.27864 0.3022 0.0
C769 C 0.73145 0.29497 0.34722 0.0
C770 C 0.74339 0.23595 0.14442 0.0
C771 C 0.76203 0.22224 0.14343 0.0
C772 C 0.74145 0.25223 0.18956 0.0
C773 C 0.75782 0.25472 0.23585 0.0
C774 C 0.77676 0.24104 0.23349 0.0
C775 C 0.77908 0.22538 0.1868 0.0
H776 H 0.79151 0.21369 0.84461 0.0
H777 H 0.72404 0.23111 0.88193 0.0
H778 H 0.79206 0.24181 0.7696 0.0
H779 H 0.72404 0.25838 0.80504 0.0
H780 H 0.73637 0.321 0.70752 0.0
H781 H 0.73737 0.29334 0.78396 0.0
H782 H 0.77965 0.2521 0.67547 0.0
H783 H 0.77951 0.28023 0.60108 0.0
C784 C 0.77664 0.22322 0.83585 0.0
C785 C 0.75775 0.22019 0.86918 0.0
C786 C 0.77689 0.23937 0.79271 0.0
C787 C 0.75814 0.25266 0.78122 0.0
C788 C 0.73902 0.249 0.81345 0.0
C789 C 0.7389 0.23312 0.85714 0.0
C790 C 0.74605 0.30612 0.70047 0.0
C791 C 0.7579 0.30286 0.64835 0.0
C792 C 0.74647 0.29009 0.744 0.0
C793 C 0.75845 0.27024 0.73603 0.0
C794 C 0.77051 0.26722 0.684 0.0
C795 C 0.77036 0.28337 0.64102 0.0
H796 H 0.78914 0.72797 0.13634 0.0
H797 H 0.71853 0.72506 0.15485 0.0
H798 H 0.79256 0.75508 0.21859 0.0
H799 H 0.72108 0.75426 0.23211 0.0
H800 H 0.73061 0.79108 0.40671 0.0
H801 H 0.7289 0.76279 0.32718 0.0
H802 H 0.79001 0.78842 0.26061 0.0
H803 H 0.79261 0.81486 0.34505 0.0
C804 C 0.77436 0.73313 0.15878 0.0
C805 C 0.75382 0.72343 0.14255 0.0
C806 C 0.77614 0.7492 0.20507 0.0
C807 C 0.75716 0.75679 0.23418 0.0
C808 C 0.73632 0.74822 0.21379 0.0
C809 C 0.73471 0.73162 0.16881 0.0
C810 C 0.74363 0.79044 0.37483 0.0
C811 C 0.7614 0.80538 0.38041 0.0
C812 C 0.7426 0.77438 0.32857 0.0
C813 C 0.75901 0.77332 0.28555 0.0
C814 C 0.77711 0.78819 0.29258 0.0
C815 C 0.77854 0.80367 0.34048 0.0
H816 H 0.5327 0.48699 0.15972 0.0
H817 H 0.55661 0.5487 0.09653 0.0
H818 H 0.50445 0.48505 0.07979 0.0
H819 H 0.53027 0.54588 0.01196 0.0
H820 H 0.46934 0.54592 0.89045 0.0
H821 H 0.49655 0.54892 0.97249 0.0
H822 H 0.49547 0.4774 0.98444 0.0
H823 H 0.46606 0.47526 0.90738 0.0
C824 C 0.53214 0.49986 0.12738 0.0
C825 C 0.54705 0.51765 0.13267 0.0
C826 C 0.51608 0.49872 0.08099 0.0
C827 C 0.515 0.51508 0.03779 0.0
C828 C 0.52999 0.53308 0.04425 0.0
C829 C 0.54543 0.53462 0.09218 0.0
C830 C 0.47443 0.53103 0.91253 0.0
C831 C 0.46463 0.5106 0.89587 0.0
C832 C 0.49059 0.53257 0.95863 0.0
C833 C 0.49821 0.51344 0.98702 0.0
C834 C 0.48945 0.49271 0.96646 0.0
C835 C 0.47274 0.49135 0.92168 0.0
H836 H 0.06312 0.49466 0.46058 0.0
H837 H 0.02315 0.53902 0.35548 0.0
H838 H 0.03533 0.4956 0.53658 0.0
H839 H 0.9949 0.53914 0.42956 0.0
H840 H 0.95592 0.54949 0.59922 0.0
H841 H 0.98427 0.55074 0.5247 0.0
H842 H 1.00006 0.48211 0.55431 0.0
H843 H 0.97259 0.48135 0.63035 0.0
C844 C 0.04841 0.50462 0.45376 0.0
C845 C 0.04538 0.51676 0.40204 0.0
C846 C 0.0323 0.50501 0.49703 0.0
C847 C 0.01259 0.51725 0.48921 0.0
C848 C 0.00988 0.52974 0.43784 0.0
C849 C 0.0261 0.52959 0.39507 0.0
C850 C 0.96533 0.53465 0.58919 0.0
C851 C 0.96207 0.51536 0.6207 0.0
C852 C 0.98162 0.53532 0.54643 0.0
C853 C 0.99479 0.51659 0.53366 0.0
C854 C 0.99081 0.49707 0.56387 0.0
C855 C 0.97481 0.49653 0.60707 0.0
H856 H 0.04316 0.47211 0.11174 0.0
H857 H 0.0427 0.54286 0.14352 0.0
H858 H 0.01461 0.47537 0.03305 0.0
H859 H 0.01634 0.54686 0.06089 0.0
H860 H 0.95583 0.54837 0.93835 0.0
H861 H 0.9825 0.5449 0.02123 0.0
H862 H 0.00635 0.48373 0.93908 0.0
H863 H 0.97776 0.48634 0.86059 0.0
C864 C 0.03725 0.48842 0.10056 0.0
C865 C 0.04583 0.50735 0.1311 0.0
C866 C 0.02105 0.49043 0.05495 0.0
C867 C 0.01328 0.51149 0.03867 0.0
C868 C 0.02147 0.53029 0.07153 0.0
C869 C 0.03711 0.52814 0.11814 0.0
C870 C 0.96672 0.53413 0.93899 0.0
C871 C 0.9644 0.51722 0.895 0.0
C872 C 0.98234 0.5322 0.98598 0.0
C873 C 0.99675 0.51383 0.98806 0.0
C874 C 0.99514 0.49765 0.94114 0.0
C875 C 0.97891 0.4992 0.89561 0.0
H876 H 0.44603 0.49233 0.5659 0.0
H877 H 0.48461 0.53981 0.67505 0.0
H878 H 0.47376 0.4934 0.48953 0.0
H879 H 0.51267 0.54006 0.60113 0.0
H880 H 0.55151 0.5509 0.43529 0.0
H881 H 0.52275 0.55133 0.50872 0.0
H882 H 0.5094 0.48194 0.46701 0.0
H883 H 0.53727 0.48199 0.39187 0.0
C884 C 0.4604 0.50297 0.57358 0.0
C885 C 0.463 0.51603 0.62646 0.0
C886 C 0.47648 0.50346 0.53009 0.0
C887 C 0.4957 0.51677 0.53887 0.0
C888 C 0.49805 0.52991 0.59176 0.0
C889 C 0.4819 0.52966 0.63459 0.0
C890 C 0.54255 0.53573 0.44238 0.0
C891 C 0.54669 0.51644 0.40785 0.0
C892 C 0.52601 0.53591 0.48457 0.0
C893 C 0.51344 0.51668 0.49394 0.0
C894 C 0.51818 0.49724 0.46034 0.0
C895 C 0.53442 0.49718 0.41764 0.0
H896 H 0.16368 0.49124 0.18209 0.0
H897 H 0.11166 0.44298 0.19817 0.0
H898 H 0.18897 0.4618 0.15082 0.0
H899 H 0.13687 0.41346 0.16491 0.0
H900 H 0.17936 0.38462 0.00236 0.0
H901 H 0.15486 0.40964 0.0564 0.0
H902 H 0.20715 0.42363 0.18901 0.0
H903 H 0.23169 0.398 0.13579 0.0
C904 C 0.15785 0.47423 0.18009 0.0
C905 C 0.13581 0.4693 0.19274 0.0
C906 C 0.1723 0.45742 0.16235 0.0
C907 C 0.16483 0.43541 0.15539 0.0
C908 C 0.143 0.43033 0.17007 0.0
C909 C 0.12867 0.44713 0.18939 0.0
C910 C 0.18561 0.39281 0.04337 0.0
C911 C 0.20752 0.38938 0.06465 0.0
C912 C 0.1715 0.40699 0.07452 0.0
C913 C 0.1791 0.41844 0.12696 0.0
C914 C 0.2009 0.4149 0.14875 0.0
C915 C 0.2149 0.40027 0.11831 0.0
H916 H 0.82045 0.87876 0.4732 0.0
H917 H 0.7687 0.9193 0.39667 0.0
H918 H 0.84831 0.90574 0.4445 0.0
H919 H 0.79628 0.94608 0.36881 0.0
H920 H 0.85005 1.00018 0.39089 0.0
H921 H 0.82351 0.97286 0.42165 0.0
H922 H 0.86282 0.92036 0.34453 0.0
H923 H 0.88955 0.94788 0.31302 0.0
C924 C 0.815 0.89354 0.45115 0.0
C925 C 0.79235 0.89692 0.43747 0.0
C926 C 0.83094 0.90884 0.43412 0.0
C927 C 0.82448 0.928 0.40419 0.0
C928 C 0.8018 0.93157 0.39203 0.0
C929 C 0.78599 0.91618 0.40801 0.0
C930 C 0.85305 0.98284 0.38005 0.0
C931 C 0.87191 0.97627 0.34909 0.0
C932 C 0.8378 0.96717 0.39772 0.0
C933 C 0.8411 0.94444 0.38576 0.0
C934 C 0.85994 0.93776 0.35485 0.0
C935 C 0.8751 0.95353 0.33622 0.0
H936 H 0.27003 0.61312 0.66085 0.0
H937 H 0.31742 0.64173 0.54619 0.0
H938 H 0.29819 0.58812 0.69818 0.0
H939 H 0.34587 0.61639 0.5844 0.0
H940 H 0.38424 0.5518 0.64122 0.0
H941 H 0.35644 0.57516 0.59196 0.0
H942 H 0.33186 0.59525 0.76353 0.0
H943 H 0.35923 0.57212 0.81257 0.0
C944 C 0.28643 0.61402 0.64314 0.0
C945 C 0.29147 0.62973 0.60094 0.0
C946 C 0.30261 0.59967 0.66483 0.0
C947 C 0.32433 0.60054 0.64501 0.0
C948 C 0.32924 0.61536 0.60049 0.0
C949 C 0.31295 0.62988 0.57869 0.0
C950 C 0.37287 0.56119 0.66839 0.0
C951 C 0.37392 0.55991 0.73094 0.0
C952 C 0.35706 0.57465 0.64014 0.0
C953 C 0.34185 0.58686 0.67385 0.0
C954 C 0.34311 0.58576 0.73624 0.0
C955 C 0.35893 0.57253 0.76439 0.0
H956 H 0.72604 0.13596 0.88324 0.0
H957 H 0.68726 0.13143 0.04019 0.0
H958 H 0.70057 0.11009 0.82938 0.0
H959 H 0.66177 0.10613 0.98619 0.0
H960 H 0.63695 0.08293 0.7354 0.0
H961 H 0.66284 0.10808 0.78883 0.0
H962 H 0.65973 0.06868 0.94484 0.0
H963 H 0.63333 0.04363 0.89172 0.0
C964 C 0.71206 0.12959 0.90615 0.0
C965 C 0.70881 0.13575 0.96613 0.0
C966 C 0.69742 0.11481 0.87525 0.0
C967 C 0.67918 0.10594 0.9036 0.0
C968 C 0.67586 0.11228 0.96333 0.0
C969 C 0.69047 0.12695 0.99418 0.0
C970 C 0.64175 0.07954 0.78112 0.0
C971 C 0.63301 0.06119 0.80924 0.0
C972 C 0.65675 0.09394 0.81161 0.0
C973 C 0.66345 0.09037 0.87101 0.0
C974 C 0.65471 0.07205 0.89928 0.0
C975 C 0.63962 0.05764 0.86878 0.0
H976 H 0.14002 0.57956 0.22736 0.0
H977 H 0.13036 0.54556 0.39042 0.0
H978 H 0.16459 0.60592 0.28107 0.0
H979 H 0.15548 0.57175 0.4439 0.0
H980 H 0.18157 0.63607 0.53223 0.0
H981 H 0.15688 0.61017 0.47724 0.0
H982 H 0.20086 0.6087 0.32998 0.0
H983 H 0.22546 0.63515 0.38461 0.0
C984 C 0.14324 0.57757 0.27463 0.0
C985 C 0.13316 0.56038 0.30456 0.0
C986 C 0.15746 0.59267 0.30534 0.0
C987 C 0.16204 0.59094 0.36673 0.0
C988 C 0.15205 0.57373 0.39672 0.0
C989 C 0.13772 0.55865 0.36602 0.0
C990 C 0.18602 0.6303 0.48806 0.0
C991 C 0.20558 0.63765 0.46291 0.0
C992 C 0.17189 0.6153 0.45669 0.0
C993 C 0.17698 0.6072 0.39945 0.0
C994 C 0.19636 0.61479 0.37382 0.0
C995 C 0.21049 0.62991 0.40516 0.0
H996 H 0.64886 0.9916 0.59936 0.0
H997 H 0.62897 0.95158 0.7439 0.0
H998 H 0.67302 0.9622 0.56526 0.0
H999 H 0.6536 0.92188 0.70894 0.0
H1000 H 0.72033 0.88578 0.64186 0.0
H1001 H 0.69645 0.91365 0.68942 0.0
H1002 H 0.66299 0.92398 0.51955 0.0
H1003 H 0.68633 0.89651 0.47231 0.0
C1004 C 0.6497 0.97661 0.62433 0.0
C1005 C 0.63666 0.97396 0.67417 0.0
C1006 C 0.66357 0.95971 0.60451 0.0
C1007 C 0.66497 0.93965 0.63396 0.0
C1008 C 0.65282 0.9372 0.68543 0.0
C1009 C 0.63869 0.95418 0.70525 0.0
C1010 C 0.70773 0.89386 0.61485 0.0
C1011 C 0.70554 0.88905 0.55301 0.0
C1012 C 0.69405 0.90974 0.64215 0.0
C1013 C 0.67812 0.92118 0.60794 0.0
C1014 C 0.6754 0.91571 0.54684 0.0
C1015 C 0.68883 0.89987 0.51981 0.0
H1016 H 0.37396 0.48262 0.94493 0.0
H1017 H 0.37297 0.45747 0.76207 0.0
H1018 H 0.34778 0.45435 0.96943 0.0
H1019 H 0.34621 0.42883 0.78721 0.0
H1020 H 0.27712 0.40336 0.84685 0.0
H1021 H 0.30638 0.42814 0.81842 0.0
H1022 H 0.34432 0.41371 0.97902 0.0
H1023 H 0.31503 0.38868 0.00779 0.0
C1024 C 0.36831 0.47096 0.90975 0.0
C1025 C 0.37567 0.47247 0.85121 0.0
C1026 C 0.35331 0.45458 0.92416 0.0
C1027 C 0.34491 0.43926 0.88048 0.0
C1028 C 0.35232 0.44049 0.82189 0.0
C1029 C 0.36771 0.45681 0.8075 0.0
C1030 C 0.29168 0.40535 0.87633 0.0
C1031 C 0.29354 0.394 0.93004 0.0
C1032 C 0.30858 0.41945 0.85952 0.0
C1033 C 0.32774 0.42286 0.8962 0.0
C1034 C 0.3297 0.41153 0.94983 0.0
C1035 C 0.31288 0.39719 0.96639 0.0
H1036 H 0.82418 0.15299 0.07147 0.0
H1037 H 0.77495 0.10596 0.12175 0.0
H1038 H 0.85366 0.12784 0.10478 0.0
H1039 H 0.8044 0.08064 0.15321 0.0
H1040 H 0.86692 0.03477 0.15494 0.0
H1041 H 0.83999 0.05875 0.10404 0.0
H1042 H 0.86145 0.11407 0.21937 0.0
H1043 H 0.88776 0.09014 0.27141 0.0
C1044 C 0.81968 0.13709 0.0883 0.0
C1045 C 0.79729 0.13144 0.09418 0.0
C1046 C 0.83651 0.12278 0.1075 0.0
C1047 C 0.83123 0.10233 0.13132 0.0
C1048 C 0.80887 0.09624 0.13452 0.0
C1049 C 0.79207 0.11075 0.11681 0.0
C1050 C 0.86606 0.05211 0.16886 0.0
C1051 C 0.87938 0.06057 0.21728 0.0
C1052 C 0.85064 0.06576 0.13989 0.0
C1053 C 0.84878 0.08822 0.15776 0.0
C1054 C 0.86273 0.09686 0.20446 0.0
C1055 C 0.87768 0.08313 0.23437 0.0
H1056 H 0.79318 0.64101 0.88965 0.0
H1057 H 0.81424 0.61763 0.06238 0.0
H1058 H 0.81702 0.61329 0.84179 0.0
H1059 H 0.83783 0.59041 0.01482 0.0
H1060 H 0.85675 0.52824 0.91625 0.0
H1061 H 0.83137 0.55625 0.952 0.0
H1062 H 0.85844 0.60329 0.8343 0.0
H1063 H 0.88416 0.57492 0.7975 0.0
C1064 C 0.80281 0.63001 0.91741 0.0
C1065 C 0.80161 0.63151 0.97995 0.0
C1066 C 0.81655 0.61426 0.88997 0.0
C1067 C 0.82914 0.59955 0.92452 0.0
C1068 C 0.82807 0.60125 0.98687 0.0
C1069 C 0.81456 0.61698 0.01417 0.0
C1070 C 0.85735 0.54446 0.89742 0.0
C1071 C 0.87281 0.54934 0.85444 0.0
C1072 C 0.84277 0.56057 0.91818 0.0
C1073 C 0.84314 0.58208 0.89672 0.0
C1074 C 0.85778 0.58682 0.85163 0.0
C1075 C 0.87253 0.57059 0.83071 0.0
H1076 H 0.23052 0.1252 0.68872 0.0
H1077 H 0.19555 0.13819 0.52208 0.0
H1078 H 0.20076 0.10097 0.71547 0.0
H1079 H 0.16549 0.11363 0.54945 0.0
H1080 H 0.13549 0.04473 0.58679 0.0
H1081 H 0.16111 0.07344 0.56183 0.0
H1082 H 0.16128 0.09999 0.743 0.0
H1083 H 0.1352 0.07086 0.76861 0.0
C1084 C 0.21647 0.12296 0.65756 0.0
C1085 C 0.21565 0.13364 0.60271 0.0
C1086 C 0.19922 0.10917 0.67348 0.0
C1087 C 0.18065 0.10538 0.63491 0.0
C1088 C 0.17964 0.11611 0.58016 0.0
C1089 C 0.19687 0.13018 0.56439 0.0
C1090 C 0.14071 0.05673 0.62162 0.0
C1091 C 0.13325 0.05527 0.68011 0.0
C1092 C 0.15536 0.07338 0.6069 0.0
C1093 C 0.16329 0.08908 0.65021 0.0
C1094 C 0.15558 0.08804 0.70857 0.0
C1095 C 0.14058 0.07141 0.72327 0.0
H1096 H 0.68446 0.36971 0.4469 0.0
H1097 H 0.73269 0.42159 0.42847 0.0
H1098 H 0.65478 0.39503 0.41511 0.0
H1099 H 0.70311 0.44697 0.39865 0.0
H1100 H 0.63966 0.49003 0.38509 0.0
H1101 H 0.66529 0.46536 0.43816 0.0
H1102 H 0.65032 0.41296 0.30673 0.0
H1103 H 0.62537 0.43758 0.25285 0.0
C1104 C 0.68859 0.38669 0.43788 0.0
C1105 C 0.71079 0.39376 0.44009 0.0
C1106 C 0.67169 0.4011 0.41944 0.0
C1107 C 0.67671 0.42292 0.40454 0.0
C1108 C 0.69878 0.43031 0.41039 0.0
C1109 C 0.71567 0.41579 0.42725 0.0
C1110 C 0.6417 0.47318 0.36793 0.0
C1111 C 0.6306 0.46581 0.31457 0.0
C1112 C 0.65633 0.45911 0.39826 0.0
C1113 C 0.65961 0.43724 0.37669 0.0
C1114 C 0.64788 0.42964 0.3247 0.0
C1115 C 0.63373 0.44382 0.29364 0.0
H1116 H 0.39283 0.97005 0.13394 0.0
H1117 H 0.35359 0.96498 0.28958 0.0
H1118 H 0.36725 0.94489 0.07815 0.0
H1119 H 0.32757 0.94075 0.23348 0.0
H1120 H 0.29964 0.87833 0.13991 0.0
H1121 H 0.32459 0.90435 0.19384 0.0
H1122 H 0.33128 0.94083 0.03355 0.0
H1123 H 0.30706 0.91418 0.97901 0.0
C1124 C 0.37859 0.96379 0.15597 0.0
C1125 C 0.37534 0.96935 0.21626 0.0
C1126 C 0.36384 0.94945 0.12395 0.0
C1127 C 0.34536 0.94063 0.15134 0.0
C1128 C 0.34187 0.94674 0.21124 0.0
C1129 C 0.35675 0.96077 0.24338 0.0
C1130 C 0.30634 0.89197 0.11624 0.0
C1131 C 0.30136 0.89417 0.05516 0.0
C1132 C 0.3206 0.907 0.14725 0.0
C1133 C 0.32999 0.92479 0.11817 0.0
C1134 C 0.32471 0.92715 0.05721 0.0
C1135 C 0.31067 0.91194 0.026 0.0
H1136 H 0.80123 0.3739 0.636 0.0
H1137 H 0.80461 0.4141 0.48164 0.0
H1138 H 0.82777 0.39845 0.68994 0.0
H1139 H 0.83023 0.43928 0.53623 0.0
H1140 H 0.89265 0.46827 0.62958 0.0
H1141 H 0.8668 0.44314 0.5745 0.0
H1142 H 0.83179 0.43359 0.73595 0.0
H1143 H 0.85816 0.45768 0.79099 0.0
C1144 C 0.80742 0.38816 0.61391 0.0
C1145 C 0.80086 0.39204 0.55462 0.0
C1146 C 0.82258 0.40233 0.64486 0.0
C1147 C 0.83122 0.42094 0.61755 0.0
C1148 C 0.82435 0.42492 0.55841 0.0
C1149 C 0.8095 0.41055 0.5272 0.0
C1150 C 0.8794 0.46076 0.65309 0.0
C1151 C 0.87752 0.46483 0.7146 0.0
C1152 C 0.8645 0.44643 0.62156 0.0
C1153 C 0.84718 0.43619 0.65074 0.0
C1154 C 0.84517 0.44067 0.71213 0.0
C1155 C 0.86024 0.45465 0.7437 0.0
H1156 H 0.33067 0.13716 0.54209 0.0
H1157 H 0.28121 0.13048 0.39809 0.0
H1158 H 0.35543 0.11289 0.48653 0.0
H1159 H 0.30596 0.10563 0.3432 0.0
H1160 H 0.34674 0.0366 0.33643 0.0
H1161 H 0.32172 0.06569 0.37152 0.0
H1162 H 0.37613 0.11235 0.38263 0.0
H1163 H 0.4011 0.08323 0.34561 0.0
C1164 C 0.32508 0.13055 0.49856 0.0
C1165 C 0.3039 0.13569 0.47464 0.0
C1166 C 0.33936 0.11682 0.46657 0.0
C1167 C 0.33264 0.10754 0.41048 0.0
C1168 C 0.31153 0.11267 0.3863 0.0
C1169 C 0.2974 0.12685 0.41774 0.0
C1170 C 0.35316 0.05326 0.34461 0.0
C1171 C 0.37572 0.05781 0.3379 0.0
C1172 C 0.33888 0.06987 0.36465 0.0
C1173 C 0.34704 0.0912 0.37992 0.0
C1174 C 0.36947 0.096 0.3711 0.0
C1175 C 0.38367 0.07946 0.34954 0.0
H1176 H 0.64605 0.53565 0.09805 0.0
H1177 H 0.6306 0.57345 0.25834 0.0
H1178 H 0.67092 0.56493 0.07048 0.0
H1179 H 0.65577 0.60279 0.23047 0.0
H1180 H 0.72468 0.63321 0.1964 0.0
H1181 H 0.69651 0.60689 0.22139 0.0
H1182 H 0.67118 0.60458 0.03889 0.0
H1183 H 0.69965 0.63141 0.01336 0.0
C1184 C 0.6479 0.55018 0.1276 0.0
C1185 C 0.63625 0.55202 0.18079 0.0
C1186 C 0.66207 0.56711 0.1113 0.0
C1187 C 0.66528 0.58628 0.14799 0.0
C1188 C 0.65374 0.58818 0.20126 0.0
C1189 C 0.63931 0.57133 0.21729 0.0
C1190 C 0.71306 0.62735 0.16132 0.0
C1191 C 0.71458 0.6345 0.10258 0.0
C1192 C 0.69675 0.61228 0.17597 0.0
C1193 C 0.68155 0.6036 0.1323 0.0
C1194 C 0.68276 0.61088 0.07357 0.0
C1195 C 0.69899 0.62632 0.05896 0.0
H1196 H 0.21721 0.88234 0.82355 0.0
H1197 H 0.20584 0.90033 0.00762 0.0
H1198 H 0.18954 0.90823 0.79129 0.0
H1199 H 0.1785 0.92797 0.97467 0.0
H1200 H 0.11674 0.96235 0.881 0.0
H1201 H 0.14276 0.93594 0.92573 0.0
H1202 H 0.18763 0.94645 0.78407 0.0
H1203 H 0.16129 0.97153 0.73838 0.0
C1204 C 0.20874 0.89181 0.85742 0.0
C1205 C 0.21387 0.88921 0.91828 0.0
C1206 C 0.19298 0.90705 0.83874 0.0
C1207 C 0.1822 0.92083 0.88013 0.0
C1208 C 0.18655 0.91771 0.94144 0.0
C1209 C 0.20218 0.90189 0.96038 0.0
C1210 C 0.13228 0.95904 0.85993 0.0
C1211 C 0.13686 0.96868 0.80569 0.0
C1212 C 0.14722 0.94397 0.8856 0.0
C1213 C 0.16711 0.93855 0.85783 0.0
C1214 C 0.17215 0.94947 0.80568 0.0
C1215 C 0.15712 0.96403 0.77957 0.0
loop_
_geom_bond_atom_site_label_1
_geom_bond_atom_site_label_2
_geom_bond_distance
_geom_bond_site_symmetry_2
_ccdc_geom_bond_type
Mn0 O5 2.095 . S
Mn0 O15 2.162 . S
Mn0 O16 2.297 . S
Mn0 O24 2.385 1_554 S
Mn0 O25 2.209 1_554 S
Mn0 O26 2.094 . S
Mn1 O6 2.121 . S
Mn1 N8 2.257 . S
Mn1 N17 2.282 . S
Mn1 O25 2.215 . S
Mn1 O27 2.117 . S
C2 O24 1.234 . S
C2 O25 1.283 . S
C3 O15 1.281 . S
C3 O16 1.236 . S
C4 O26 1.240 1_556 S
C4 O27 1.264 . S
O5 Mn0 2.095 . S
O5 C14 1.250 . S
O6 Mn1 2.121 . S
O6 C14 1.258 1_556 S
C7 N8 1.326 . S
C7 C11 1.460 . S
C7 H13 0.929 . S
N8 Mn1 2.257 . S
N8 C7 1.326 . S
N8 C12 1.362 . S
C9 C10 1.258 . S
C9 C12 1.431 . S
C9 C29 1.449 . S
C10 C9 1.258 . S
C10 C11 1.477 . S
C10 H30 0.931 . S
C11 C7 1.460 . S
C11 C10 1.477 . S
C11 H31 0.930 . S
C12 N8 1.362 . S
C12 C9 1.431 . S
C12 C22 1.476 . S
H13 C7 0.929 . S
C14 O5 1.250 . S
C14 O6 1.258 1_554 S
O15 Mn0 2.162 . S
O15 C3 1.281 . S
O16 Mn0 2.297 . S
O16 C3 1.236 . S
N17 Mn1 2.282 . S
N17 C18 1.328 . S
N17 C22 1.318 . S
C18 N17 1.328 . S
C18 C19 1.457 . S
C18 H23 0.929 . S
C19 C18 1.457 . S
C19 C20 1.291 . S
C19 H32 0.931 . S
C20 C19 1.291 . S
C20 C21 1.373 . S
C20 H33 0.929 . S
C21 C20 1.373 . S
C21 C22 1.396 . S
C21 C28 1.403 . S
C22 C12 1.476 . S
C22 N17 1.318 . S
C22 C21 1.396 . S
H23 C18 0.929 . S
O24 Mn0 2.385 1_556 S
O24 C2 1.234 . S
O25 Mn0 2.209 1_556 S
O25 Mn1 2.215 . S
O25 C2 1.283 . S
O26 Mn0 2.094 . S
O26 C4 1.240 1_554 S
O27 Mn1 2.117 . S
O27 C4 1.264 . S
C28 C21 1.403 . S
C28 C29 1.399 . S
C28 H34 0.929 . S
C29 C9 1.449 . S
C29 C28 1.399 . S
C29 H35 0.930 . S
H30 C10 0.931 . S
H31 C11 0.930 . S
H32 C19 0.931 . S
H33 C20 0.929 . S
H34 C28 0.929 . S
H35 C29 0.930 . S
Mn36 O41 2.120 . S
Mn36 O51 2.148 1_545 S
Mn36 O52 2.320 . S
Mn36 O60 2.374 1_545 S
Mn36 O61 2.230 . S
Mn36 O62 2.061 1_545 S
Mn37 O42 2.121 . S
Mn37 N44 2.257 . S
Mn37 N53 2.282 . S
Mn37 O61 2.215 . S
Mn37 O63 2.117 1_545 S
C38 O60 1.234 1_545 S
C38 O61 1.283 . S
C39 O51 1.281 1_545 S
C39 O52 1.236 . S
C40 O62 1.240 . S
C40 O63 1.264 . S
O41 Mn36 2.120 . S
O41 C50 1.250 . S
O42 Mn37 2.121 . S
O42 C50 1.258 . S
C43 N44 1.326 . S
C43 C47 1.460 . S
C43 H49 0.929 . S
N44 Mn37 2.257 . S
N44 C43 1.326 . S
N44 C48 1.362 . S
C45 C46 1.258 . S
C45 C48 1.431 . S
C45 C65 1.449 . S
C46 C45 1.258 . S
C46 C47 1.477 . S
C46 H66 0.931 . S
C47 C43 1.460 . S
C47 C46 1.477 . S
C47 H67 0.930 . S
C48 N44 1.362 . S
C48 C45 1.431 . S
C48 C58 1.476 . S
H49 C43 0.929 . S
C50 O41 1.250 . S
C50 O42 1.258 . S
O51 Mn36 2.148 1_565 S
O51 C39 1.281 1_565 S
O52 Mn36 2.320 . S
O52 C39 1.236 . S
N53 Mn37 2.282 . S
N53 C54 1.328 1_545 S
N53 C58 1.318 . S
C54 N53 1.328 1_565 S
C54 C55 1.457 . S
C54 H59 0.929 . S
C55 C54 1.457 . S
C55 C56 1.310 . S
C55 H68 0.931 . S
C56 C55 1.310 . S
C56 C57 1.345 1_565 S
C56 H69 0.939 . S
C57 C56 1.345 1_545 S
C57 C58 1.396 . S
C57 C64 1.403 . S
C58 C48 1.476 . S
C58 N53 1.318 . S
C58 C57 1.396 . S
H59 C54 0.929 . S
O60 Mn36 2.374 1_565 S
O60 C38 1.234 1_565 S
O61 Mn36 2.230 . S
O61 Mn37 2.215 . S
O61 C38 1.283 . S
O62 Mn36 2.061 1_565 S
O62 C40 1.240 . S
O63 Mn37 2.117 1_565 S
O63 C40 1.264 . S
C64 C57 1.403 . S
C64 C65 1.399 . S
C64 H70 0.929 . S
C65 C45 1.449 . S
C65 C64 1.399 . S
C65 H71 0.930 . S
H66 C46 0.931 . S
H67 C47 0.930 . S
H68 C55 0.931 . S
H69 C56 0.939 . S
H70 C64 0.929 . S
H71 C65 0.930 . S
Mn72 O77 2.095 . S
Mn72 O87 2.162 . S
Mn72 O88 2.297 . S
Mn72 O96 2.385 . S
Mn72 O97 2.209 . S
Mn72 O98 2.094 . S
Mn73 O78 2.121 . S
Mn73 N80 2.257 . S
Mn73 N89 2.282 . S
Mn73 O97 2.215 . S
Mn73 O99 2.117 . S
C74 O96 1.234 . S
C74 O97 1.283 . S
C75 O87 1.281 . S
C75 O88 1.236 . S
C76 O98 1.240 . S
C76 O99 1.264 . S
O77 Mn72 2.095 . S
O77 C86 1.250 . S
O78 Mn73 2.121 . S
O78 C86 1.258 . S
C79 N80 1.326 . S
C79 C83 1.460 . S
C79 H85 0.929 . S
N80 Mn73 2.257 . S
N80 C79 1.326 . S
N80 C84 1.362 . S
C81 C82 1.258 . S
C81 C84 1.431 . S
C81 C101 1.449 . S
C82 C81 1.258 . S
C82 C83 1.477 . S
C82 H102 0.931 . S
C83 C79 1.460 . S
C83 C82 1.477 . S
C83 H103 0.930 . S
C84 N80 1.362 . S
C84 C81 1.431 . S
C84 C94 1.476 . S
H85 C79 0.929 . S
C86 O77 1.250 . S
C86 O78 1.258 . S
O87 Mn72 2.162 . S
O87 C75 1.281 . S
O88 Mn72 2.297 . S
O88 C75 1.236 . S
N89 Mn73 2.282 . S
N89 C90 1.328 . S
N89 C94 1.318 . S
C90 N89 1.328 . S
C90 C91 1.457 . S
C90 H95 0.929 . S
C91 C90 1.457 . S
C91 C92 1.291 . S
C91 H104 0.931 . S
C92 C91 1.291 . S
C92 C93 1.373 . S
C92 H105 0.929 . S
C93 C92 1.373 . S
C93 C94 1.396 . S
C93 C100 1.403 . S
C94 C84 1.476 . S
C94 N89 1.318 . S
C94 C93 1.396 . S
H95 C90 0.929 . S
O96 Mn72 2.385 . S
O96 C74 1.234 . S
O97 Mn72 2.209 . S
O97 Mn73 2.215 . S
O97 C74 1.283 . S
O98 Mn72 2.094 . S
O98 C76 1.240 . S
O99 Mn73 2.117 . S
O99 C76 1.264 . S
C100 C93 1.403 . S
C100 C101 1.399 . S
C100 H106 0.929 . S
C101 C81 1.449 . S
C101 C100 1.399 . S
C101 H107 0.930 . S
H102 C82 0.931 . S
H103 C83 0.930 . S
H104 C91 0.931 . S
H105 C92 0.929 . S
H106 C100 0.929 . S
H107 C101 0.930 . S
Mn108 O113 2.124 . S
Mn108 O123 2.142 1_545 S
Mn108 O124 2.323 . S
Mn108 O132 2.374 1_545 S
Mn108 O133 2.238 . S
Mn108 O134 2.055 1_545 S
Mn109 O114 2.121 . S
Mn109 N116 2.257 . S
Mn109 N125 2.282 . S
Mn109 O133 2.215 . S
Mn109 O135 2.117 1_545 S
C110 O132 1.234 1_545 S
C110 O133 1.283 . S
C111 O123 1.281 1_545 S
C111 O124 1.236 . S
C112 O134 1.240 . S
C112 O135 1.264 . S
O113 Mn108 2.124 . S
O113 C122 1.250 . S
O114 Mn109 2.121 . S
O114 C122 1.258 . S
C115 N116 1.326 . S
C115 C119 1.460 . S
C115 H121 0.929 . S
N116 Mn109 2.257 . S
N116 C115 1.326 . S
N116 C120 1.362 . S
C117 C118 1.258 . S
C117 C120 1.431 . S
C117 C137 1.449 . S
C118 C117 1.258 . S
C118 C119 1.477 . S
C118 H138 0.931 . S
C119 C115 1.460 . S
C119 C118 1.477 . S
C119 H139 0.930 . S
C120 N116 1.362 . S
C120 C117 1.431 . S
C120 C130 1.476 . S
H121 C115 0.929 . S
C122 O113 1.250 . S
C122 O114 1.258 . S
O123 Mn108 2.142 1_565 S
O123 C111 1.281 1_565 S
O124 Mn108 2.323 . S
O124 C111 1.236 . S
N125 Mn109 2.282 . S
N125 C126 1.328 1_545 S
N125 C130 1.318 . S
C126 N125 1.328 1_565 S
C126 C127 1.457 . S
C126 H131 0.929 . S
C127 C126 1.457 . S
C127 C128 1.291 . S
C127 H140 0.931 . S
C128 C127 1.291 . S
C128 C129 1.373 1_565 S
C128 H141 0.929 . S
C129 C128 1.373 1_545 S
C129 C130 1.396 . S
C129 C136 1.403 . S
C130 C120 1.476 . S
C130 N125 1.318 . S
C130 C129 1.396 . S
H131 C126 0.929 . S
O132 Mn108 2.374 1_565 S
O132 C110 1.234 1_565 S
O133 Mn108 2.238 . S
O133 Mn109 2.215 . S
O133 C110 1.283 . S
O134 Mn108 2.055 1_565 S
O134 C112 1.240 . S
O135 Mn109 2.117 1_565 S
O135 C112 1.264 . S
C136 C129 1.403 . S
C136 C137 1.399 . S
C136 H142 0.929 . S
C137 C117 1.449 . S
C137 C136 1.399 . S
C137 H143 0.930 . S
H138 C118 0.931 . S
H139 C119 0.930 . S
H140 C127 0.931 . S
H141 C128 0.929 . S
H142 C136 0.929 . S
H143 C137 0.930 . S
Mn144 O149 2.095 1_554 S
Mn144 O159 2.162 1_554 S
Mn144 O160 2.297 1_554 S
Mn144 O168 2.385 . S
Mn144 O169 2.209 . S
Mn144 O170 2.094 . S
Mn145 O150 2.121 . S
Mn145 N152 2.257 . S
Mn145 N161 2.282 . S
Mn145 O169 2.215 . S
Mn145 O171 2.117 . S
C146 O168 1.234 . S
C146 O169 1.283 . S
C147 O159 1.281 . S
C147 O160 1.236 . S
C148 O170 1.240 . S
C148 O171 1.264 . S
O149 Mn144 2.095 1_556 S
O149 C158 1.250 . S
O150 Mn145 2.121 . S
O150 C158 1.258 1_554 S
C151 N152 1.326 . S
C151 C155 1.460 . S
C151 H157 0.929 . S
N152 Mn145 2.257 . S
N152 C151 1.326 . S
N152 C156 1.362 . S
C153 C154 1.258 . S
C153 C156 1.431 . S
C153 C173 1.449 . S
C154 C153 1.258 . S
C154 C155 1.477 . S
C154 H174 0.931 . S
C155 C151 1.460 . S
C155 C154 1.477 . S
C155 H175 0.930 . S
C156 N152 1.362 . S
C156 C153 1.431 . S
C156 C166 1.476 . S
H157 C151 0.929 . S
C158 O149 1.250 . S
C158 O150 1.258 1_556 S
O159 Mn144 2.162 1_556 S
O159 C147 1.281 . S
O160 Mn144 2.297 1_556 S
O160 C147 1.236 . S
N161 Mn145 2.282 . S
N161 C162 1.328 . S
N161 C166 1.318 . S
C162 N161 1.328 . S
C162 C163 1.457 . S
C162 H167 0.929 . S
C163 C162 1.457 . S
C163 C164 1.291 . S
C163 H176 0.931 . S
C164 C163 1.291 . S
C164 C165 1.373 . S
C164 H177 0.929 . S
C165 C164 1.373 . S
C165 C166 1.396 . S
C165 C172 1.403 . S
C166 C156 1.476 . S
C166 N161 1.318 . S
C166 C165 1.396 . S
H167 C162 0.929 . S
O168 Mn144 2.385 . S
O168 C146 1.234 . S
O169 Mn144 2.209 . S
O169 Mn145 2.215 . S
O169 C146 1.283 . S
O170 Mn144 2.094 . S
O170 C148 1.240 . S
O171 Mn145 2.117 . S
O171 C148 1.264 . S
C172 C165 1.403 . S
C172 C173 1.399 . S
C172 H178 0.929 . S
C173 C153 1.449 . S
C173 C172 1.399 . S
C173 H179 0.930 . S
H174 C154 0.931 . S
H175 C155 0.930 . S
H176 C163 0.931 . S
H177 C164 0.929 . S
H178 C172 0.929 . S
H179 C173 0.930 . S
Mn180 O185 2.095 1_545 S
Mn180 O195 2.162 . S
Mn180 O196 2.297 1_545 S
Mn180 O204 2.385 . S
Mn180 O205 2.209 1_545 S
Mn180 O206 2.094 . S
Mn181 O186 2.121 . S
Mn181 N188 2.257 . S
Mn181 N197 2.282 1_565 S
Mn181 O205 2.215 . S
Mn181 O207 2.117 1_565 S
C182 O204 1.234 . S
C182 O205 1.283 1_545 S
C183 O195 1.281 . S
C183 O196 1.236 1_545 S
C184 O206 1.240 . S
C184 O207 1.264 . S
O185 Mn180 2.095 1_565 S
O185 C194 1.250 . S
O186 Mn181 2.121 . S
O186 C194 1.258 . S
C187 N188 1.326 . S
C187 C191 1.460 . S
C187 H193 0.929 . S
N188 Mn181 2.257 . S
N188 C187 1.326 . S
N188 C192 1.362 . S
C189 C190 1.258 . S
C189 C192 1.431 . S
C189 C209 1.449 . S
C190 C189 1.258 . S
C190 C191 1.477 . S
C190 H210 0.931 . S
C191 C187 1.460 . S
C191 C190 1.477 . S
C191 H211 0.930 . S
C192 N188 1.362 . S
C192 C189 1.431 . S
C192 C202 1.476 . S
H193 C187 0.929 . S
C194 O185 1.250 . S
C194 O186 1.258 . S
O195 Mn180 2.162 . S
O195 C183 1.281 . S
O196 Mn180 2.297 1_565 S
O196 C183 1.236 1_565 S
N197 Mn181 2.282 1_545 S
N197 C198 1.328 . S
N197 C202 1.318 1_545 S
C198 N197 1.328 . S
C198 C199 1.457 . S
C198 H203 0.929 . S
C199 C198 1.457 . S
C199 C200 1.291 . S
C199 H212 0.931 . S
C200 C199 1.291 . S
C200 C201 1.373 1_545 S
C200 H213 0.929 . S
C201 C200 1.373 1_565 S
C201 C202 1.396 . S
C201 C208 1.403 . S
C202 C192 1.476 . S
C202 N197 1.318 1_565 S
C202 C201 1.396 . S
H203 C198 0.929 . S
O204 Mn180 2.385 . S
O204 C182 1.234 . S
O205 Mn180 2.209 1_565 S
O205 Mn181 2.215 . S
O205 C182 1.283 1_565 S
O206 Mn180 2.094 . S
O206 C184 1.240 . S
O207 Mn181 2.117 1_545 S
O207 C184 1.264 . S
C208 C201 1.403 . S
C208 C209 1.399 . S
C208 H214 0.929 . S
C209 C189 1.449 . S
C209 C208 1.399 . S
C209 H215 0.930 . S
H210 C190 0.931 . S
H211 C191 0.930 . S
H212 C199 0.931 . S
H213 C200 0.929 . S
H214 C208 0.929 . S
H215 C209 0.930 . S
Mn216 O221 2.095 . S
Mn216 O231 2.162 . S
Mn216 O232 2.297 . S
Mn216 O240 2.385 . S
Mn216 O241 2.209 . S
Mn216 O242 2.094 . S
Mn217 O222 2.121 . S
Mn217 N224 2.257 . S
Mn217 N233 2.282 . S
Mn217 O241 2.215 . S
Mn217 O243 2.117 . S
C218 O240 1.234 . S
C218 O241 1.283 . S
C219 O231 1.281 . S
C219 O232 1.236 . S
C220 O242 1.240 . S
C220 O243 1.264 . S
O221 Mn216 2.095 . S
O221 C230 1.250 . S
O222 Mn217 2.121 . S
O222 C230 1.258 . S
C223 N224 1.326 . S
C223 C227 1.460 . S
C223 H229 0.929 . S
N224 Mn217 2.257 . S
N224 C223 1.326 . S
N224 C228 1.362 . S
C225 C226 1.258 . S
C225 C228 1.431 . S
C225 C245 1.449 . S
C226 C225 1.258 . S
C226 C227 1.477 . S
C226 H246 0.931 . S
C227 C223 1.460 . S
C227 C226 1.477 . S
C227 H247 0.930 . S
C228 N224 1.362 . S
C228 C225 1.431 . S
C228 C238 1.476 . S
H229 C223 0.929 . S
C230 O221 1.250 . S
C230 O222 1.258 . S
O231 Mn216 2.162 . S
O231 C219 1.281 . S
O232 Mn216 2.297 . S
O232 C219 1.236 . S
N233 Mn217 2.282 . S
N233 C234 1.328 . S
N233 C238 1.318 . S
C234 N233 1.328 . S
C234 C235 1.457 . S
C234 H239 0.929 . S
C235 C234 1.457 . S
C235 C236 1.291 . S
C235 H248 0.931 . S
C236 C235 1.291 . S
C236 C237 1.373 . S
C236 H249 0.929 . S
C237 C236 1.373 . S
C237 C238 1.396 . S
C237 C244 1.403 . S
C238 C228 1.476 . S
C238 N233 1.318 . S
C238 C237 1.396 . S
H239 C234 0.929 . S
O240 Mn216 2.385 . S
O240 C218 1.234 . S
O241 Mn216 2.209 . S
O241 Mn217 2.215 . S
O241 C218 1.283 . S
O242 Mn216 2.094 . S
O242 C220 1.240 . S
O243 Mn217 2.117 . S
O243 C220 1.264 . S
C244 C237 1.403 . S
C244 C245 1.399 . S
C244 H250 0.929 . S
C245 C225 1.449 . S
C245 C244 1.399 . S
C245 H251 0.930 . S
H246 C226 0.931 . S
H247 C227 0.930 . S
H248 C235 0.931 . S
H249 C236 0.929 . S
H250 C244 0.929 . S
H251 C245 0.930 . S
Mn252 O257 2.095 1_545 S
Mn252 O267 2.162 . S
Mn252 O268 2.297 1_545 S
Mn252 O276 2.385 . S
Mn252 O277 2.209 1_545 S
Mn252 O278 2.094 . S
Mn253 O258 2.121 . S
Mn253 N260 2.257 . S
Mn253 N269 2.282 1_565 S
Mn253 O277 2.215 . S
Mn253 O279 2.117 1_565 S
C254 O276 1.234 . S
C254 O277 1.283 1_545 S
C255 O267 1.281 . S
C255 O268 1.236 1_545 S
C256 O278 1.240 . S
C256 O279 1.264 . S
O257 Mn252 2.095 1_565 S
O257 C266 1.250 . S
O258 Mn253 2.121 . S
O258 C266 1.258 . S
C259 N260 1.326 . S
C259 C263 1.460 . S
C259 H265 0.929 . S
N260 Mn253 2.257 . S
N260 C259 1.326 . S
N260 C264 1.362 . S
C261 C262 1.258 . S
C261 C264 1.431 . S
C261 C281 1.449 . S
C262 C261 1.258 . S
C262 C263 1.477 . S
C262 H282 0.931 . S
C263 C259 1.460 . S
C263 C262 1.477 . S
C263 H283 0.930 . S
C264 N260 1.362 . S
C264 C261 1.431 . S
C264 C274 1.476 . S
H265 C259 0.929 . S
C266 O257 1.250 . S
C266 O258 1.258 . S
O267 Mn252 2.162 . S
O267 C255 1.281 . S
O268 Mn252 2.297 1_565 S
O268 C255 1.236 1_565 S
N269 Mn253 2.282 1_545 S
N269 C270 1.328 . S
N269 C274 1.318 1_545 S
C270 N269 1.328 . S
C270 C271 1.457 . S
C270 H275 0.929 . S
C271 C270 1.457 . S
C271 C272 1.291 . S
C271 H284 0.931 . S
C272 C271 1.291 . S
C272 C273 1.373 1_545 S
C272 H285 0.929 . S
C273 C272 1.373 1_565 S
C273 C274 1.396 . S
C273 C280 1.403 . S
C274 C264 1.476 . S
C274 N269 1.318 1_565 S
C274 C273 1.396 . S
H275 C270 0.929 . S
O276 Mn252 2.385 . S
O276 C254 1.234 . S
O277 Mn252 2.209 1_565 S
O277 Mn253 2.215 . S
O277 C254 1.283 1_565 S
O278 Mn252 2.094 . S
O278 C256 1.240 . S
O279 Mn253 2.117 1_545 S
O279 C256 1.264 . S
C280 C273 1.403 . S
C280 C281 1.399 . S
C280 H286 0.929 . S
C281 C261 1.449 . S
C281 C280 1.399 . S
C281 H287 0.930 . S
H282 C262 0.931 . S
H283 C263 0.930 . S
H284 C271 0.931 . S
H285 C272 0.929 . S
H286 C280 0.929 . S
H287 C281 0.930 . S
Mn288 O293 2.095 . S
Mn288 O303 2.162 . S
Mn288 O304 2.297 . S
Mn288 O312 2.385 . S
Mn288 O313 2.209 . S
Mn288 O314 2.094 . S
Mn289 O294 2.121 . S
Mn289 N296 2.257 . S
Mn289 N305 2.282 . S
Mn289 O313 2.215 . S
Mn289 O315 2.117 . S
C290 O312 1.234 . S
C290 O313 1.283 . S
C291 O303 1.281 . S
C291 O304 1.236 . S
C292 O314 1.240 . S
C292 O315 1.264 . S
O293 Mn288 2.095 . S
O293 C302 1.250 . S
O294 Mn289 2.121 . S
O294 C302 1.258 . S
C295 N296 1.326 . S
C295 C299 1.460 . S
C295 H301 0.929 . S
N296 Mn289 2.257 . S
N296 C295 1.326 . S
N296 C300 1.362 . S
C297 C298 1.258 . S
C297 C300 1.431 . S
C297 C317 1.449 . S
C298 C297 1.258 . S
C298 C299 1.477 . S
C298 H318 0.931 . S
C299 C295 1.460 . S
C299 C298 1.477 . S
C299 H319 0.930 . S
C300 N296 1.362 . S
C300 C297 1.431 . S
C300 C310 1.476 . S
H301 C295 0.929 . S
C302 O293 1.250 . S
C302 O294 1.258 . S
O303 Mn288 2.162 . S
O303 C291 1.281 . S
O304 Mn288 2.297 . S
O304 C291 1.236 . S
N305 Mn289 2.282 . S
N305 C306 1.328 . S
N305 C310 1.318 . S
C306 N305 1.328 . S
C306 C307 1.457 . S
C306 H311 0.929 . S
C307 C306 1.457 . S
C307 C308 1.291 . S
C307 H320 0.931 . S
C308 C307 1.291 . S
C308 C309 1.373 . S
C308 H321 0.929 . S
C309 C308 1.373 . S
C309 C310 1.396 . S
C309 C316 1.403 . S
C310 C300 1.476 . S
C310 N305 1.318 . S
C310 C309 1.396 . S
H311 C306 0.929 . S
O312 Mn288 2.385 . S
O312 C290 1.234 . S
O313 Mn288 2.209 . S
O313 Mn289 2.215 . S
O313 C290 1.283 . S
O314 Mn288 2.094 . S
O314 C292 1.240 . S
O315 Mn289 2.117 . S
O315 C292 1.264 . S
C316 C309 1.403 . S
C316 C317 1.399 . S
C316 H322 0.929 . S
C317 C297 1.449 . S
C317 C316 1.399 . S
C317 H323 0.930 . S
H318 C298 0.931 . S
H319 C299 0.930 . S
H320 C307 0.931 . S
H321 C308 0.929 . S
H322 C316 0.929 . S
H323 C317 0.930 . S
Mn324 O329 2.095 . S
Mn324 O339 2.162 . S
Mn324 O340 2.297 . S
Mn324 O348 2.385 . S
Mn324 O349 2.209 . S
Mn324 O350 2.094 . S
Mn325 O330 2.121 . S
Mn325 N332 2.257 . S
Mn325 N341 2.282 . S
Mn325 O349 2.215 . S
Mn325 O351 2.117 . S
C326 O348 1.234 . S
C326 O349 1.283 . S
C327 O339 1.281 . S
C327 O340 1.236 . S
C328 O350 1.240 . S
C328 O351 1.264 . S
O329 Mn324 2.095 . S
O329 C338 1.250 . S
O330 Mn325 2.121 . S
O330 C338 1.258 . S
C331 N332 1.326 . S
C331 C335 1.460 . S
C331 H337 0.929 . S
N332 Mn325 2.257 . S
N332 C331 1.326 . S
N332 C336 1.362 . S
C333 C334 1.258 . S
C333 C336 1.431 1_554 S
C333 C353 1.449 . S
C334 C333 1.258 . S
C334 C335 1.477 1_554 S
C334 H354 0.931 . S
C335 C331 1.460 . S
C335 C334 1.477 1_556 S
C335 H355 0.930 . S
C336 N332 1.362 . S
C336 C333 1.431 1_556 S
C336 C346 1.476 1_556 S
H337 C331 0.929 . S
C338 O329 1.250 . S
C338 O330 1.258 . S
O339 Mn324 2.162 . S
O339 C327 1.281 . S
O340 Mn324 2.297 . S
O340 C327 1.236 . S
N341 Mn325 2.282 . S
N341 C342 1.328 . S
N341 C346 1.318 1_556 S
C342 N341 1.328 . S
C342 C343 1.457 1_556 S
C342 H347 0.929 . S
C343 C342 1.457 1_554 S
C343 C344 1.291 . S
C343 H356 0.931 . S
C344 C343 1.291 . S
C344 C345 1.373 . S
C344 H357 0.929 . S
C345 C344 1.373 . S
C345 C346 1.396 . S
C345 C352 1.403 . S
C346 C336 1.476 1_554 S
C346 N341 1.318 1_554 S
C346 C345 1.396 . S
H347 C342 0.929 . S
O348 Mn324 2.385 . S
O348 C326 1.234 . S
O349 Mn324 2.209 . S
O349 Mn325 2.215 . S
O349 C326 1.283 . S
O350 Mn324 2.094 . S
O350 C328 1.240 . S
O351 Mn325 2.117 . S
O351 C328 1.264 . S
C352 C345 1.403 . S
C352 C353 1.399 . S
C352 H358 0.929 . S
C353 C333 1.449 . S
C353 C352 1.399 . S
C353 H359 0.930 . S
H354 C334 0.931 . S
H355 C335 0.930 . S
H356 C343 0.931 . S
H357 C344 0.929 . S
H358 C352 0.929 . S
H359 C353 0.930 . S
Mn360 O365 2.095 1_554 S
Mn360 O375 2.162 1_554 S
Mn360 O376 2.297 1_554 S
Mn360 O384 2.385 . S
Mn360 O385 2.209 . S
Mn360 O386 2.094 . S
Mn361 O366 2.121 . S
Mn361 N368 2.257 . S
Mn361 N377 2.282 . S
Mn361 O385 2.215 . S
Mn361 O387 2.117 . S
C362 O384 1.234 . S
C362 O385 1.283 . S
C363 O375 1.281 . S
C363 O376 1.236 . S
C364 O386 1.240 . S
C364 O387 1.264 . S
O365 Mn360 2.095 1_556 S
O365 C374 1.250 . S
O366 Mn361 2.121 . S
O366 C374 1.258 1_554 S
C367 N368 1.326 . S
C367 C371 1.460 . S
C367 H373 0.929 . S
N368 Mn361 2.257 . S
N368 C367 1.326 . S
N368 C372 1.362 . S
C369 C370 1.258 . S
C369 C372 1.431 . S
C369 C389 1.449 . S
C370 C369 1.258 . S
C370 C371 1.477 . S
C370 H390 0.931 . S
C371 C367 1.460 . S
C371 C370 1.477 . S
C371 H391 0.930 . S
C372 N368 1.362 . S
C372 C369 1.431 . S
C372 C382 1.476 . S
H373 C367 0.929 . S
C374 O365 1.250 . S
C374 O366 1.258 1_556 S
O375 Mn360 2.162 1_556 S
O375 C363 1.281 . S
O376 Mn360 2.297 1_556 S
O376 C363 1.236 . S
N377 Mn361 2.282 . S
N377 C378 1.328 . S
N377 C382 1.318 . S
C378 N377 1.328 . S
C378 C379 1.457 . S
C378 H383 0.929 . S
C379 C378 1.457 . S
C379 C380 1.291 . S
C379 H392 0.931 . S
C380 C379 1.291 . S
C380 C381 1.373 . S
C380 H393 0.929 . S
C381 C380 1.373 . S
C381 C382 1.396 . S
C381 C388 1.403 . S
C382 C372 1.476 . S
C382 N377 1.318 . S
C382 C381 1.396 . S
H383 C378 0.929 . S
O384 Mn360 2.385 . S
O384 C362 1.234 . S
O385 Mn360 2.209 . S
O385 Mn361 2.215 . S
O385 C362 1.283 . S
O386 Mn360 2.094 . S
O386 C364 1.240 . S
O387 Mn361 2.117 . S
O387 C364 1.264 . S
C388 C381 1.403 . S
C388 C389 1.399 . S
C388 H394 0.929 . S
C389 C369 1.449 . S
C389 C388 1.399 . S
C389 H395 0.930 . S
H390 C370 0.931 . S
H391 C371 0.930 . S
H392 C379 0.931 . S
H393 C380 0.929 . S
H394 C388 0.929 . S
H395 C389 0.930 . S
Mn396 O401 2.095 . S
Mn396 O411 2.162 . S
Mn396 O412 2.297 . S
Mn396 O420 2.385 . S
Mn396 O421 2.209 . S
Mn396 O422 2.094 . S
Mn397 O402 2.121 . S
Mn397 N404 2.257 . S
Mn397 N413 2.282 . S
Mn397 O421 2.215 . S
Mn397 O423 2.117 . S
C398 O420 1.234 . S
C398 O421 1.283 . S
C399 O411 1.281 . S
C399 O412 1.236 . S
C400 O422 1.240 . S
C400 O423 1.264 . S
O401 Mn396 2.095 . S
O401 C410 1.250 . S
O402 Mn397 2.121 . S
O402 C410 1.258 . S
C403 N404 1.326 . S
C403 C407 1.460 . S
C403 H409 0.929 . S
N404 Mn397 2.257 . S
N404 C403 1.326 . S
N404 C408 1.362 . S
C405 C406 1.258 . S
C405 C408 1.431 . S
C405 C425 1.449 1_554 S
C406 C405 1.258 . S
C406 C407 1.477 . S
C406 H426 0.931 1_554 S
C407 C403 1.460 . S
C407 C406 1.477 . S
C407 H427 0.930 . S
C408 N404 1.362 . S
C408 C405 1.431 . S
C408 C418 1.476 . S
H409 C403 0.929 . S
C410 O401 1.250 . S
C410 O402 1.258 . S
O411 Mn396 2.162 . S
O411 C399 1.281 . S
O412 Mn396 2.297 . S
O412 C399 1.236 . S
N413 Mn397 2.282 . S
N413 C414 1.328 . S
N413 C418 1.318 . S
C414 N413 1.328 . S
C414 C415 1.457 1_554 S
C414 H419 0.929 . S
C415 C414 1.457 1_556 S
C415 C416 1.291 . S
C415 H428 0.931 . S
C416 C415 1.291 . S
C416 C417 1.373 . S
C416 H429 0.929 . S
C417 C416 1.373 . S
C417 C418 1.396 1_556 S
C417 C424 1.403 . S
C418 C408 1.476 . S
C418 N413 1.318 . S
C418 C417 1.396 1_554 S
H419 C414 0.929 . S
O420 Mn396 2.385 . S
O420 C398 1.234 . S
O421 Mn396 2.209 . S
O421 Mn397 2.215 . S
O421 C398 1.283 . S
O422 Mn396 2.094 . S
O422 C400 1.240 . S
O423 Mn397 2.117 . S
O423 C400 1.264 . S
C424 C417 1.403 . S
C424 C425 1.399 . S
C424 H430 0.929 . S
C425 C405 1.449 1_556 S
C425 C424 1.399 . S
C425 H431 0.930 . S
H426 C406 0.931 1_556 S
H427 C407 0.930 . S
H428 C415 0.931 . S
H429 C416 0.929 . S
H430 C424 0.929 . S
H431 C425 0.930 . S
Mn432 O437 2.095 . S
Mn432 O447 2.162 . S
Mn432 O448 2.297 . S
Mn432 O456 2.385 . S
Mn432 O457 2.209 . S
Mn432 O458 2.094 . S
Mn433 O438 2.121 . S
Mn433 N440 2.257 . S
Mn433 N449 2.282 . S
Mn433 O457 2.215 . S
Mn433 O459 2.117 . S
C434 O456 1.234 . S
C434 O457 1.283 . S
C435 O447 1.281 . S
C435 O448 1.236 . S
C436 O458 1.240 . S
C436 O459 1.264 . S
O437 Mn432 2.095 . S
O437 C446 1.250 . S
O438 Mn433 2.121 . S
O438 C446 1.258 . S
C439 N440 1.326 . S
C439 C443 1.460 . S
C439 H445 0.929 . S
N440 Mn433 2.257 . S
N440 C439 1.326 . S
N440 C444 1.362 . S
C441 C442 1.258 . S
C441 C444 1.431 . S
C441 C461 1.449 . S
C442 C441 1.258 . S
C442 C443 1.477 . S
C442 H462 0.931 . S
C443 C439 1.460 . S
C443 C442 1.477 . S
C443 H463 0.930 . S
C444 N440 1.362 . S
C444 C441 1.431 . S
C444 C454 1.476 . S
H445 C439 0.929 . S
C446 O437 1.250 . S
C446 O438 1.258 . S
O447 Mn432 2.162 . S
O447 C435 1.281 . S
O448 Mn432 2.297 . S
O448 C435 1.236 . S
N449 Mn433 2.282 . S
N449 C450 1.328 . S
N449 C454 1.318 . S
C450 N449 1.328 . S
C450 C451 1.457 . S
C450 H455 0.929 . S
C451 C450 1.457 . S
C451 C452 1.291 . S
C451 H464 0.931 . S
C452 C451 1.291 . S
C452 C453 1.373 . S
C452 H465 0.929 . S
C453 C452 1.373 . S
C453 C454 1.396 . S
C453 C460 1.403 . S
C454 C444 1.476 . S
C454 N449 1.318 . S
C454 C453 1.396 . S
H455 C450 0.929 . S
O456 Mn432 2.385 . S
O456 C434 1.234 . S
O457 Mn432 2.209 . S
O457 Mn433 2.215 . S
O457 C434 1.283 . S
O458 Mn432 2.094 . S
O458 C436 1.240 . S
O459 Mn433 2.117 . S
O459 C436 1.264 . S
C460 C453 1.403 . S
C460 C461 1.399 . S
C460 H466 0.929 . S
C461 C441 1.449 . S
C461 C460 1.399 . S
C461 H467 0.930 . S
H462 C442 0.931 . S
H463 C443 0.930 . S
H464 C451 0.931 . S
H465 C452 0.929 . S
H466 C460 0.929 . S
H467 C461 0.930 . S
Mn468 O473 2.095 . S
Mn468 O483 2.162 . S
Mn468 O484 2.297 . S
Mn468 O492 2.385 . S
Mn468 O493 2.209 . S
Mn468 O494 2.094 . S
Mn469 O474 2.121 . S
Mn469 N476 2.257 . S
Mn469 N485 2.282 . S
Mn469 O493 2.215 . S
Mn469 O495 2.117 . S
C470 O492 1.234 . S
C470 O493 1.283 . S
C471 O483 1.281 . S
C471 O484 1.236 . S
C472 O494 1.240 . S
C472 O495 1.264 . S
O473 Mn468 2.095 . S
O473 C482 1.250 . S
O474 Mn469 2.121 . S
O474 C482 1.258 . S
C475 N476 1.326 . S
C475 C479 1.460 . S
C475 H481 0.929 . S
N476 Mn469 2.257 . S
N476 C475 1.326 . S
N476 C480 1.362 . S
C477 C478 1.258 1_556 S
C477 C480 1.431 1_556 S
C477 C497 1.449 . S
C478 C477 1.258 1_554 S
C478 C479 1.477 . S
C478 H498 0.931 1_554 S
C479 C475 1.460 . S
C479 C478 1.477 . S
C479 H499 0.930 . S
C480 N476 1.362 . S
C480 C477 1.431 1_554 S
C480 C490 1.476 . S
H481 C475 0.929 . S
C482 O473 1.250 . S
C482 O474 1.258 . S
O483 Mn468 2.162 . S
O483 C471 1.281 . S
O484 Mn468 2.297 . S
O484 C471 1.236 . S
N485 Mn469 2.282 . S
N485 C486 1.328 . S
N485 C490 1.318 . S
C486 N485 1.328 . S
C486 C487 1.457 1_554 S
C486 H491 0.929 . S
C487 C486 1.457 1_556 S
C487 C488 1.291 . S
C487 H500 0.931 . S
C488 C487 1.291 . S
C488 C489 1.373 . S
C488 H501 0.929 . S
C489 C488 1.373 . S
C489 C490 1.396 1_556 S
C489 C496 1.403 . S
C490 C480 1.476 . S
C490 N485 1.318 . S
C490 C489 1.396 1_554 S
H491 C486 0.929 . S
O492 Mn468 2.385 . S
O492 C470 1.234 . S
O493 Mn468 2.209 . S
O493 Mn469 2.215 . S
O493 C470 1.283 . S
O494 Mn468 2.094 . S
O494 C472 1.240 . S
O495 Mn469 2.117 . S
O495 C472 1.264 . S
C496 C489 1.403 . S
C496 C497 1.399 . S
C496 H502 0.929 . S
C497 C477 1.449 . S
C497 C496 1.399 . S
C497 H503 0.930 . S
H498 C478 0.931 1_556 S
H499 C479 0.930 . S
H500 C487 0.931 . S
H501 C488 0.929 . S
H502 C496 0.929 . S
H503 C497 0.930 . S
Mn504 O509 2.095 . S
Mn504 O519 2.162 . S
Mn504 O520 2.297 . S
Mn504 O528 2.385 1_554 S
Mn504 O529 2.209 1_554 S
Mn504 O530 2.090 1_554 S
Mn505 O510 2.121 . S
Mn505 N512 2.257 . S
Mn505 N521 2.282 . S
Mn505 O529 2.215 . S
Mn505 O531 2.117 . S
C506 O528 1.234 . S
C506 O529 1.283 . S
C507 O519 1.281 . S
C507 O520 1.236 . S
C508 O530 1.253 . S
C508 O531 1.264 . S
O509 Mn504 2.095 . S
O509 C518 1.250 . S
O510 Mn505 2.121 . S
O510 C518 1.258 1_556 S
C511 N512 1.326 . S
C511 C515 1.460 . S
C511 H517 0.929 . S
N512 Mn505 2.257 . S
N512 C511 1.326 . S
N512 C516 1.362 . S
C513 C514 1.258 . S
C513 C516 1.431 . S
C513 C533 1.449 . S
C514 C513 1.258 . S
C514 C515 1.477 . S
C514 H534 0.931 . S
C515 C511 1.460 . S
C515 C514 1.477 . S
C515 H535 0.930 . S
C516 N512 1.362 . S
C516 C513 1.431 . S
C516 C526 1.476 . S
H517 C511 0.929 . S
C518 O509 1.250 . S
C518 O510 1.258 1_554 S
O519 Mn504 2.162 . S
O519 C507 1.281 . S
O520 Mn504 2.297 . S
O520 C507 1.236 . S
N521 Mn505 2.282 . S
N521 C522 1.328 . S
N521 C526 1.318 . S
C522 N521 1.328 . S
C522 C523 1.457 . S
C522 H527 0.929 . S
C523 C522 1.457 . S
C523 C524 1.291 . S
C523 H536 0.931 . S
C524 C523 1.291 . S
C524 C525 1.373 . S
C524 H537 0.929 . S
C525 C524 1.373 . S
C525 C526 1.396 . S
C525 C532 1.403 . S
C526 C516 1.476 . S
C526 N521 1.318 . S
C526 C525 1.396 . S
H527 C522 0.929 . S
O528 Mn504 2.385 1_556 S
O528 C506 1.234 . S
O529 Mn504 2.209 1_556 S
O529 Mn505 2.215 . S
O529 C506 1.283 . S
O530 Mn504 2.090 1_556 S
O530 C508 1.253 . S
O531 Mn505 2.117 . S
O531 C508 1.264 . S
C532 C525 1.403 . S
C532 C533 1.399 . S
C532 H538 0.929 . S
C533 C513 1.449 . S
C533 C532 1.399 . S
C533 H539 0.930 . S
H534 C514 0.931 . S
H535 C515 0.930 . S
H536 C523 0.931 . S
H537 C524 0.929 . S
H538 C532 0.929 . S
H539 C533 0.930 . S
Mn540 O545 2.095 . S
Mn540 O555 2.162 . S
Mn540 O556 2.297 . S
Mn540 O564 2.385 . S
Mn540 O565 2.209 . S
Mn540 O566 2.094 . S
Mn541 O546 2.121 . S
Mn541 N548 2.257 . S
Mn541 N557 2.282 . S
Mn541 O565 2.215 . S
Mn541 O567 2.117 . S
C542 O564 1.234 . S
C542 O565 1.283 . S
C543 O555 1.281 . S
C543 O556 1.236 . S
C544 O566 1.240 . S
C544 O567 1.264 . S
O545 Mn540 2.095 . S
O545 C554 1.250 . S
O546 Mn541 2.121 . S
O546 C554 1.258 . S
C547 N548 1.326 . S
C547 C551 1.460 . S
C547 H553 0.929 . S
N548 Mn541 2.257 . S
N548 C547 1.326 . S
N548 C552 1.362 . S
C549 C550 1.258 . S
C549 C552 1.431 1_554 S
C549 C569 1.449 . S
C550 C549 1.258 . S
C550 C551 1.477 1_554 S
C550 H570 0.931 . S
C551 C547 1.460 . S
C551 C550 1.477 1_556 S
C551 H571 0.930 . S
C552 N548 1.362 . S
C552 C549 1.431 1_556 S
C552 C562 1.476 1_556 S
H553 C547 0.929 . S
C554 O545 1.250 . S
C554 O546 1.258 . S
O555 Mn540 2.162 . S
O555 C543 1.281 . S
O556 Mn540 2.297 . S
O556 C543 1.236 . S
N557 Mn541 2.282 . S
N557 C558 1.328 . S
N557 C562 1.318 1_556 S
C558 N557 1.328 . S
C558 C559 1.457 1_556 S
C558 H563 0.929 . S
C559 C558 1.457 1_554 S
C559 C560 1.291 . S
C559 H572 0.931 . S
C560 C559 1.291 . S
C560 C561 1.373 . S
C560 H573 0.929 . S
C561 C560 1.373 . S
C561 C562 1.396 . S
C561 C568 1.403 . S
C562 C552 1.476 1_554 S
C562 N557 1.318 1_554 S
C562 C561 1.396 . S
H563 C558 0.929 . S
O564 Mn540 2.385 . S
O564 C542 1.234 . S
O565 Mn540 2.209 . S
O565 Mn541 2.215 . S
O565 C542 1.283 . S
O566 Mn540 2.094 . S
O566 C544 1.240 . S
O567 Mn541 2.117 . S
O567 C544 1.264 . S
C568 C561 1.403 . S
C568 C569 1.399 . S
C568 H574 0.929 . S
C569 C549 1.449 . S
C569 C568 1.399 . S
C569 H575 0.930 . S
H570 C550 0.931 . S
H571 C551 0.930 . S
H572 C559 0.931 . S
H573 C560 0.929 . S
H574 C568 0.929 . S
H575 C569 0.930 . S
H576 C584 0.950 . S
H577 C589 0.950 . S
H578 C586 0.950 . S
H579 C588 0.950 . S
H580 C590 0.950 . S
H581 C592 0.950 . S
H582 C594 0.950 . S
H583 C595 0.950 . S
C584 H576 0.950 . S
C584 C585 1.386 . S
C584 C586 1.391 . S
C585 C584 1.386 . S
C585 C589 1.393 . S
C586 H578 0.950 . S
C586 C584 1.391 . S
C586 C587 1.400 . S
C587 C586 1.400 . S
C587 C588 1.398 . S
C587 C593 1.491 . S
C588 H579 0.950 . S
C588 C587 1.398 . S
C588 C589 1.391 . S
C589 H577 0.950 . S
C589 C585 1.393 . S
C589 C588 1.391 . S
C590 H580 0.950 . S
C590 C591 1.386 . S
C590 C592 1.391 . S
C591 C590 1.386 . S
C591 C595 1.393 . S
C592 H581 0.950 . S
C592 C590 1.391 . S
C592 C593 1.400 . S
C593 C587 1.491 . S
C593 C592 1.400 . S
C593 C594 1.398 . S
C594 H582 0.950 . S
C594 C593 1.398 . S
C594 C595 1.391 . S
C595 H583 0.950 . S
C595 C591 1.393 . S
C595 C594 1.391 . S
H596 C604 0.939 1_565 S
H597 C609 0.950 . S
H598 C606 0.950 1_455 S
H599 C608 0.950 . S
H600 C610 0.950 . S
H601 C612 0.950 1_655 S
H602 C614 0.950 . S
H603 C615 0.950 . S
C604 H596 0.939 1_545 S
C604 C605 1.400 . S
C604 C606 1.388 1_545 S
C605 C604 1.400 . S
C605 C609 1.393 . S
C606 H598 0.950 1_655 S
C606 C604 1.388 1_565 S
C606 C607 1.400 1_565 S
C607 C606 1.400 1_545 S
C607 C608 1.398 . S
C607 C613 1.491 1_655 S
C608 H599 0.950 . S
C608 C607 1.398 . S
C608 C609 1.391 . S
C609 H597 0.950 . S
C609 C605 1.393 . S
C609 C608 1.391 . S
C610 H600 0.950 . S
C610 C611 1.386 . S
C610 C612 1.391 . S
C611 C610 1.386 . S
C611 C615 1.393 1_545 S
C612 H601 0.950 1_455 S
C612 C610 1.391 . S
C612 C613 1.400 . S
C613 C607 1.491 1_455 S
C613 C612 1.400 . S
C613 C614 1.398 1_545 S
C614 H602 0.950 . S
C614 C613 1.398 1_565 S
C614 C615 1.391 . S
C615 H603 0.950 . S
C615 C611 1.393 1_565 S
C615 C614 1.391 . S
H616 C624 0.950 . S
H617 C629 0.950 . S
H618 C626 0.950 . S
H619 C628 0.950 . S
H620 C630 0.950 . S
H621 C632 0.950 . S
H622 C634 0.950 . S
H623 C635 0.950 . S
C624 H616 0.950 . S
C624 C625 1.386 . S
C624 C626 1.391 . S
C625 C624 1.386 . S
C625 C629 1.393 . S
C626 H618 0.950 . S
C626 C624 1.391 . S
C626 C627 1.400 . S
C627 C626 1.400 . S
C627 C628 1.398 . S
C627 C633 1.491 . S
C628 H619 0.950 . S
C628 C627 1.398 . S
C628 C629 1.391 . S
C629 H617 0.950 . S
C629 C625 1.393 . S
C629 C628 1.391 . S
C630 H620 0.950 . S
C630 C631 1.386 . S
C630 C632 1.391 . S
C631 C630 1.386 . S
C631 C635 1.393 . S
C632 H621 0.950 . S
C632 C630 1.391 . S
C632 C633 1.400 . S
C633 C627 1.491 . S
C633 C632 1.400 . S
C633 C634 1.398 . S
C634 H622 0.950 . S
C634 C633 1.398 . S
C634 C635 1.391 . S
C635 H623 0.950 . S
C635 C631 1.393 . S
C635 C634 1.391 . S
H636 C644 0.950 . S
H637 C649 0.950 . S
H638 C646 0.950 . S
H639 C648 0.951 . S
H640 C650 0.950 . S
H641 C652 0.950 . S
H642 C654 0.950 1_554 S
H643 C655 0.950 . S
C644 H636 0.950 . S
C644 C645 1.386 1_565 S
C644 C646 1.391 . S
C645 C644 1.386 1_545 S
C645 C649 1.393 . S
C646 H638 0.950 . S
C646 C644 1.391 . S
C646 C647 1.400 1_565 S
C647 C646 1.400 1_545 S
C647 C648 1.398 . S
C647 C653 1.491 1_554 S
C648 H639 0.951 . S
C648 C647 1.398 . S
C648 C649 1.391 . S
C649 H637 0.950 . S
C649 C645 1.393 . S
C649 C648 1.391 . S
C650 H640 0.950 . S
C650 C651 1.386 . S
C650 C652 1.391 . S
C651 C650 1.386 . S
C651 C655 1.393 1_545 S
C652 H641 0.950 . S
C652 C650 1.391 . S
C652 C653 1.400 . S
C653 C647 1.491 1_556 S
C653 C652 1.400 . S
C653 C654 1.398 1_545 S
C654 H642 0.950 1_556 S
C654 C653 1.398 1_565 S
C654 C655 1.391 . S
C655 H643 0.950 . S
C655 C651 1.393 1_565 S
C655 C654 1.391 . S
H656 C664 0.950 . S
H657 C669 0.950 . S
H658 C666 0.950 . S
H659 C668 0.950 . S
H660 C670 0.950 . S
H661 C672 0.950 . S
H662 C674 0.950 . S
H663 C675 0.950 . S
C664 H656 0.950 . S
C664 C665 1.386 . S
C664 C666 1.391 . S
C665 C664 1.386 . S
C665 C669 1.393 . S
C666 H658 0.950 . S
C666 C664 1.391 . S
C666 C667 1.400 . S
C667 C666 1.400 . S
C667 C668 1.398 . S
C667 C673 1.491 . S
C668 H659 0.950 . S
C668 C667 1.398 . S
C668 C669 1.391 . S
C669 H657 0.950 . S
C669 C665 1.393 . S
C669 C668 1.391 . S
C670 H660 0.950 . S
C670 C671 1.386 . S
C670 C672 1.391 . S
C671 C670 1.386 . S
C671 C675 1.393 . S
C672 H661 0.950 . S
C672 C670 1.391 . S
C672 C673 1.400 . S
C673 C667 1.491 . S
C673 C672 1.400 . S
C673 C674 1.398 . S
C674 H662 0.950 . S
C674 C673 1.398 . S
C674 C675 1.391 . S
C675 H663 0.950 . S
C675 C671 1.393 . S
C675 C674 1.391 . S
H676 C684 0.942 1_565 S
H677 C689 0.950 . S
H678 C686 0.951 . S
H679 C688 0.950 . S
H680 C690 0.950 . S
H681 C692 0.950 . S
H682 C694 0.950 . S
H683 C695 0.950 . S
C684 H676 0.942 1_545 S
C684 C685 1.393 . S
C684 C686 1.393 . S
C685 C684 1.393 . S
C685 C689 1.393 . S
C686 H678 0.951 . S
C686 C684 1.393 . S
C686 C687 1.400 . S
C687 C686 1.400 . S
C687 C688 1.398 . S
C687 C693 1.491 . S
C688 H679 0.950 . S
C688 C687 1.398 . S
C688 C689 1.391 . S
C689 H677 0.950 . S
C689 C685 1.393 . S
C689 C688 1.391 . S
C690 H680 0.950 . S
C690 C691 1.386 . S
C690 C692 1.391 . S
C691 C690 1.386 . S
C691 C695 1.393 . S
C692 H681 0.950 . S
C692 C690 1.391 . S
C692 C693 1.400 . S
C693 C687 1.491 . S
C693 C692 1.400 . S
C693 C694 1.398 . S
C694 H682 0.950 . S
C694 C693 1.398 . S
C694 C695 1.391 . S
C695 H683 0.950 . S
C695 C691 1.393 . S
C695 C694 1.391 . S
H696 C704 0.950 . S
H697 C709 0.950 . S
H698 C706 0.950 . S
H699 C708 0.950 . S
H700 C710 0.950 . S
H701 C712 0.950 . S
H702 C714 0.950 . S
H703 C715 0.950 . S
C704 H696 0.950 . S
C704 C705 1.386 . S
C704 C706 1.391 . S
C705 C704 1.386 . S
C705 C709 1.393 . S
C706 H698 0.950 . S
C706 C704 1.391 . S
C706 C707 1.400 . S
C707 C706 1.400 . S
C707 C708 1.398 . S
C707 C713 1.491 . S
C708 H699 0.950 . S
C708 C707 1.398 . S
C708 C709 1.391 . S
C709 H697 0.950 . S
C709 C705 1.393 . S
C709 C708 1.391 . S
C710 H700 0.950 . S
C710 C711 1.386 . S
C710 C712 1.391 . S
C711 C710 1.386 . S
C711 C715 1.393 . S
C712 H701 0.950 . S
C712 C710 1.391 . S
C712 C713 1.400 . S
C713 C707 1.491 . S
C713 C712 1.400 . S
C713 C714 1.398 . S
C714 H702 0.950 . S
C714 C713 1.398 . S
C714 C715 1.391 . S
C715 H703 0.950 . S
C715 C711 1.393 . S
C715 C714 1.391 . S
H716 C724 0.950 . S
H717 C729 0.950 . S
H718 C726 0.954 1_655 S
H719 C728 0.950 . S
H720 C730 0.950 . S
H721 C732 0.950 1_455 S
H722 C734 0.954 1_556 S
H723 C735 0.950 1_565 S
C724 H716 0.950 . S
C724 C725 1.386 . S
C724 C726 1.391 . S
C725 C724 1.386 . S
C725 C729 1.393 . S
C726 H718 0.954 1_455 S
C726 C724 1.391 . S
C726 C727 1.400 . S
C727 C726 1.400 . S
C727 C728 1.398 1_556 S
C727 C733 1.491 1_456 S
C728 H719 0.950 . S
C728 C727 1.398 1_554 S
C728 C729 1.391 1_554 S
C729 H717 0.950 . S
C729 C725 1.393 . S
C729 C728 1.391 1_556 S
C730 H720 0.950 . S
C730 C731 1.386 . S
C730 C732 1.391 . S
C731 C730 1.386 . S
C731 C735 1.393 . S
C732 H721 0.950 1_655 S
C732 C730 1.391 . S
C732 C733 1.400 . S
C733 C727 1.491 1_654 S
C733 C732 1.400 . S
C733 C734 1.398 . S
C734 H722 0.954 1_554 S
C734 C733 1.398 . S
C734 C735 1.391 . S
C735 H723 0.950 1_545 S
C735 C731 1.393 . S
C735 C734 1.391 . S
H736 C744 0.950 . S
H737 C749 0.950 . S
H738 C746 0.950 . S
H739 C748 0.950 . S
H740 C750 0.950 . S
H741 C752 0.950 . S
H742 C754 0.950 . S
H743 C755 0.950 . S
C744 H736 0.950 . S
C744 C745 1.386 . S
C744 C746 1.391 . S
C745 C744 1.386 . S
C745 C749 1.393 . S
C746 H738 0.950 . S
C746 C744 1.391 . S
C746 C747 1.400 . S
C747 C746 1.400 . S
C747 C748 1.398 . S
C747 C753 1.491 . S
C748 H739 0.950 . S
C748 C747 1.398 . S
C748 C749 1.391 . S
C749 H737 0.950 . S
C749 C745 1.393 . S
C749 C748 1.391 . S
C750 H740 0.950 . S
C750 C751 1.386 . S
C750 C752 1.391 . S
C751 C750 1.386 . S
C751 C755 1.393 . S
C752 H741 0.950 . S
C752 C750 1.391 . S
C752 C753 1.400 . S
C753 C747 1.491 . S
C753 C752 1.400 . S
C753 C754 1.398 . S
C754 H742 0.950 . S
C754 C753 1.398 . S
C754 C755 1.391 . S
C755 H743 0.950 . S
C755 C751 1.393 . S
C755 C754 1.391 . S
H756 C764 0.950 . S
H757 C769 0.950 . S
H758 C766 0.950 . S
H759 C768 0.950 . S
H760 C770 0.950 . S
H761 C772 0.950 . S
H762 C774 0.950 . S
H763 C775 0.950 . S
C764 H756 0.950 . S
C764 C765 1.386 . S
C764 C766 1.391 . S
C765 C764 1.386 . S
C765 C769 1.393 . S
C766 H758 0.950 . S
C766 C764 1.391 . S
C766 C767 1.400 . S
C767 C766 1.400 . S
C767 C768 1.398 . S
C767 C773 1.491 . S
C768 H759 0.950 . S
C768 C767 1.398 . S
C768 C769 1.391 . S
C769 H757 0.950 . S
C769 C765 1.393 . S
C769 C768 1.391 . S
C770 H760 0.950 . S
C770 C771 1.386 . S
C770 C772 1.391 . S
C771 C770 1.386 . S
C771 C775 1.393 . S
C772 H761 0.950 . S
C772 C770 1.391 . S
C772 C773 1.400 . S
C773 C767 1.491 . S
C773 C772 1.400 . S
C773 C774 1.398 . S
C774 H762 0.950 . S
C774 C773 1.398 . S
C774 C775 1.391 . S
C775 H763 0.950 . S
C775 C771 1.393 . S
C775 C774 1.391 . S
H776 C784 0.950 . S
H777 C789 0.950 . S
H778 C786 0.950 . S
H779 C788 0.950 . S
H780 C790 0.950 . S
H781 C792 0.950 . S
H782 C794 0.950 . S
H783 C795 0.950 . S
C784 H776 0.950 . S
C784 C785 1.386 . S
C784 C786 1.391 . S
C785 C784 1.386 . S
C785 C789 1.393 . S
C786 H778 0.950 . S
C786 C784 1.391 . S
C786 C787 1.400 . S
C787 C786 1.400 . S
C787 C788 1.398 . S
C787 C793 1.491 . S
C788 H779 0.950 . S
C788 C787 1.398 . S
C788 C789 1.391 . S
C789 H777 0.950 . S
C789 C785 1.393 . S
C789 C788 1.391 . S
C790 H780 0.950 . S
C790 C791 1.386 . S
C790 C792 1.391 . S
C791 C790 1.386 . S
C791 C795 1.393 . S
C792 H781 0.950 . S
C792 C790 1.391 . S
C792 C793 1.400 . S
C793 C787 1.491 . S
C793 C792 1.400 . S
C793 C794 1.398 . S
C794 H782 0.950 . S
C794 C793 1.398 . S
C794 C795 1.391 . S
C795 H783 0.950 . S
C795 C791 1.393 . S
C795 C794 1.391 . S
H796 C804 0.950 . S
H797 C809 0.950 . S
H798 C806 0.950 . S
H799 C808 0.950 . S
H800 C810 0.950 . S
H801 C812 0.950 . S
H802 C814 0.950 . S
H803 C815 0.950 . S
C804 H796 0.950 . S
C804 C805 1.386 . S
C804 C806 1.391 . S
C805 C804 1.386 . S
C805 C809 1.393 . S
C806 H798 0.950 . S
C806 C804 1.391 . S
C806 C807 1.400 . S
C807 C806 1.400 . S
C807 C808 1.398 . S
C807 C813 1.491 . S
C808 H799 0.950 . S
C808 C807 1.398 . S
C808 C809 1.391 . S
C809 H797 0.950 . S
C809 C805 1.393 . S
C809 C808 1.391 . S
C810 H800 0.950 . S
C810 C811 1.386 . S
C810 C812 1.391 . S
C811 C810 1.386 . S
C811 C815 1.393 . S
C812 H801 0.950 . S
C812 C810 1.391 . S
C812 C813 1.400 . S
C813 C807 1.491 . S
C813 C812 1.400 . S
C813 C814 1.398 . S
C814 H802 0.950 . S
C814 C813 1.398 . S
C814 C815 1.391 . S
C815 H803 0.950 . S
C815 C811 1.393 . S
C815 C814 1.391 . S
H816 C824 0.950 . S
H817 C829 0.950 . S
H818 C826 0.950 . S
H819 C828 0.950 . S
H820 C830 0.950 . S
H821 C832 0.950 . S
H822 C834 0.950 . S
H823 C835 0.950 . S
C824 H816 0.950 . S
C824 C825 1.386 . S
C824 C826 1.391 . S
C825 C824 1.386 . S
C825 C829 1.393 . S
C826 H818 0.950 . S
C826 C824 1.391 . S
C826 C827 1.400 . S
C827 C826 1.400 . S
C827 C828 1.398 . S
C827 C833 1.491 1_554 S
C828 H819 0.950 . S
C828 C827 1.398 . S
C828 C829 1.391 . S
C829 H817 0.950 . S
C829 C825 1.393 . S
C829 C828 1.391 . S
C830 H820 0.950 . S
C830 C831 1.386 . S
C830 C832 1.391 . S
C831 C830 1.386 . S
C831 C835 1.393 . S
C832 H821 0.950 . S
C832 C830 1.391 . S
C832 C833 1.400 . S
C833 C827 1.491 1_556 S
C833 C832 1.400 . S
C833 C834 1.398 . S
C834 H822 0.950 . S
C834 C833 1.398 . S
C834 C835 1.391 . S
C835 H823 0.950 . S
C835 C831 1.393 . S
C835 C834 1.391 . S
H836 C844 0.950 . S
H837 C849 0.950 . S
H838 C846 0.950 . S
H839 C848 0.950 1_655 S
H840 C850 0.950 . S
H841 C852 0.950 . S
H842 C854 0.950 1_455 S
H843 C855 0.950 . S
C844 H836 0.950 . S
C844 C845 1.386 . S
C844 C846 1.391 . S
C845 C844 1.386 . S
C845 C849 1.393 . S
C846 H838 0.950 . S
C846 C844 1.391 . S
C846 C847 1.400 . S
C847 C846 1.400 . S
C847 C848 1.398 . S
C847 C853 1.491 1_455 S
C848 H839 0.950 1_455 S
C848 C847 1.398 . S
C848 C849 1.391 . S
C849 H837 0.950 . S
C849 C845 1.393 . S
C849 C848 1.391 . S
C850 H840 0.950 . S
C850 C851 1.386 . S
C850 C852 1.391 . S
C851 C850 1.386 . S
C851 C855 1.393 . S
C852 H841 0.950 . S
C852 C850 1.391 . S
C852 C853 1.400 . S
C853 C847 1.491 1_655 S
C853 C852 1.400 . S
C853 C854 1.398 . S
C854 H842 0.950 1_655 S
C854 C853 1.398 . S
C854 C855 1.391 . S
C855 H843 0.950 . S
C855 C851 1.393 . S
C855 C854 1.391 . S
H856 C864 0.950 . S
H857 C869 0.950 . S
H858 C866 0.950 1_655 S
H859 C868 0.950 1_556 S
H860 C870 0.950 . S
H861 C872 0.950 1_455 S
H862 C874 0.938 1_554 S
H863 C875 0.950 . S
C864 H856 0.950 . S
C864 C865 1.386 . S
C864 C866 1.391 . S
C865 C864 1.386 . S
C865 C869 1.393 . S
C866 H858 0.950 1_455 S
C866 C864 1.391 . S
C866 C867 1.400 . S
C867 C866 1.400 . S
C867 C868 1.398 . S
C867 C873 1.491 1_454 S
C868 H859 0.950 1_554 S
C868 C867 1.398 . S
C868 C869 1.391 . S
C869 H857 0.950 . S
C869 C865 1.393 . S
C869 C868 1.391 . S
C870 H860 0.950 . S
C870 C871 1.386 . S
C870 C872 1.391 . S
C871 C870 1.386 . S
C871 C875 1.393 . S
C872 H861 0.950 1_655 S
C872 C870 1.391 . S
C872 C873 1.400 . S
C873 C867 1.491 1_656 S
C873 C872 1.400 . S
C873 C874 1.401 . S
C874 H862 0.938 1_556 S
C874 C873 1.401 . S
C874 C875 1.399 . S
C875 H863 0.950 . S
C875 C871 1.393 . S
C875 C874 1.399 . S
H876 C884 0.950 . S
H877 C889 0.950 . S
H878 C886 0.950 . S
H879 C888 0.950 . S
H880 C890 0.950 . S
H881 C892 0.950 . S
H882 C894 0.950 . S
H883 C895 0.950 . S
C884 H876 0.950 . S
C884 C885 1.386 . S
C884 C886 1.391 . S
C885 C884 1.386 . S
C885 C889 1.393 . S
C886 H878 0.950 . S
C886 C884 1.391 . S
C886 C887 1.400 . S
C887 C886 1.400 . S
C887 C888 1.398 . S
C887 C893 1.491 . S
C888 H879 0.950 . S
C888 C887 1.398 . S
C888 C889 1.391 . S
C889 H877 0.950 . S
C889 C885 1.393 . S
C889 C888 1.391 . S
C890 H880 0.950 . S
C890 C891 1.386 . S
C890 C892 1.391 . S
C891 C890 1.386 . S
C891 C895 1.393 . S
C892 H881 0.950 . S
C892 C890 1.391 . S
C892 C893 1.400 . S
C893 C887 1.491 . S
C893 C892 1.400 . S
C893 C894 1.398 . S
C894 H882 0.950 . S
C894 C893 1.398 . S
C894 C895 1.391 . S
C895 H883 0.950 . S
C895 C891 1.393 . S
C895 C894 1.391 . S
H896 C904 0.950 . S
H897 C909 0.950 . S
H898 C906 0.950 . S
H899 C908 0.950 . S
H900 C910 0.950 1_556 S
H901 C912 0.950 . S
H902 C914 0.950 . S
H903 C915 0.950 . S
C904 H896 0.950 . S
C904 C905 1.386 . S
C904 C906 1.391 . S
C905 C904 1.386 . S
C905 C909 1.393 . S
C906 H898 0.950 . S
C906 C904 1.391 . S
C906 C907 1.400 . S
C907 C906 1.400 . S
C907 C908 1.398 . S
C907 C913 1.491 . S
C908 H899 0.950 . S
C908 C907 1.398 . S
C908 C909 1.391 . S
C909 H897 0.950 . S
C909 C905 1.393 . S
C909 C908 1.391 . S
C910 H900 0.950 1_554 S
C910 C911 1.386 . S
C910 C912 1.391 . S
C911 C910 1.386 . S
C911 C915 1.393 . S
C912 H901 0.950 . S
C912 C910 1.391 . S
C912 C913 1.400 . S
C913 C907 1.491 . S
C913 C912 1.400 . S
C913 C914 1.398 . S
C914 H902 0.950 . S
C914 C913 1.398 . S
C914 C915 1.391 . S
C915 H903 0.950 . S
C915 C911 1.393 . S
C915 C914 1.391 . S
H916 C924 0.950 . S
H917 C929 0.950 . S
H918 C926 0.950 . S
H919 C928 0.950 . S
H920 C930 0.950 . S
H921 C932 0.950 . S
H922 C934 0.950 . S
H923 C935 0.950 . S
C924 H916 0.950 . S
C924 C925 1.386 . S
C924 C926 1.391 . S
C925 C924 1.386 . S
C925 C929 1.393 . S
C926 H918 0.950 . S
C926 C924 1.391 . S
C926 C927 1.400 . S
C927 C926 1.400 . S
C927 C928 1.398 . S
C927 C933 1.491 . S
C928 H919 0.950 . S
C928 C927 1.398 . S
C928 C929 1.391 . S
C929 H917 0.950 . S
C929 C925 1.393 . S
C929 C928 1.391 . S
C930 H920 0.950 . S
C930 C931 1.386 . S
C930 C932 1.391 . S
C931 C930 1.386 . S
C931 C935 1.393 . S
C932 H921 0.950 . S
C932 C930 1.391 . S
C932 C933 1.400 . S
C933 C927 1.491 . S
C933 C932 1.400 . S
C933 C934 1.398 . S
C934 H922 0.950 . S
C934 C933 1.398 . S
C934 C935 1.391 . S
C935 H923 0.950 . S
C935 C931 1.393 . S
C935 C934 1.391 . S
H936 C944 0.950 . S
H937 C949 0.950 . S
H938 C946 0.950 . S
H939 C948 0.950 . S
H940 C950 0.950 . S
H941 C952 0.950 . S
H942 C954 0.950 . S
H943 C955 0.950 . S
C944 H936 0.950 . S
C944 C945 1.386 . S
C944 C946 1.391 . S
C945 C944 1.386 . S
C945 C949 1.393 . S
C946 H938 0.950 . S
C946 C944 1.391 . S
C946 C947 1.400 . S
C947 C946 1.400 . S
C947 C948 1.398 . S
C947 C953 1.491 . S
C948 H939 0.950 . S
C948 C947 1.398 . S
C948 C949 1.391 . S
C949 H937 0.950 . S
C949 C945 1.393 . S
C949 C948 1.391 . S
C950 H940 0.950 . S
C950 C951 1.386 . S
C950 C952 1.391 . S
C951 C950 1.386 . S
C951 C955 1.393 . S
C952 H941 0.950 . S
C952 C950 1.391 . S
C952 C953 1.400 . S
C953 C947 1.491 . S
C953 C952 1.400 . S
C953 C954 1.398 . S
C954 H942 0.950 . S
C954 C953 1.398 . S
C954 C955 1.391 . S
C955 H943 0.950 . S
C955 C951 1.393 . S
C955 C954 1.391 . S
H956 C964 0.950 . S
H957 C969 0.950 . S
H958 C966 0.950 . S
H959 C968 0.950 . S
H960 C970 0.950 . S
H961 C972 0.950 . S
H962 C974 0.950 . S
H963 C975 0.950 . S
C964 H956 0.950 . S
C964 C965 1.386 . S
C964 C966 1.391 . S
C965 C964 1.386 . S
C965 C969 1.393 . S
C966 H958 0.950 . S
C966 C964 1.391 . S
C966 C967 1.400 . S
C967 C966 1.400 . S
C967 C968 1.398 . S
C967 C973 1.491 . S
C968 H959 0.950 . S
C968 C967 1.398 . S
C968 C969 1.391 . S
C969 H957 0.950 . S
C969 C965 1.393 . S
C969 C968 1.391 . S
C970 H960 0.950 . S
C970 C971 1.386 . S
C970 C972 1.391 . S
C971 C970 1.386 . S
C971 C975 1.393 . S
C972 H961 0.950 . S
C972 C970 1.391 . S
C972 C973 1.400 . S
C973 C967 1.491 . S
C973 C972 1.400 . S
C973 C974 1.398 . S
C974 H962 0.950 . S
C974 C973 1.398 . S
C974 C975 1.391 . S
C975 H963 0.950 . S
C975 C971 1.393 . S
C975 C974 1.391 . S
H976 C984 0.950 . S
H977 C989 0.950 . S
H978 C986 0.950 . S
H979 C988 0.950 . S
H980 C990 0.950 . S
H981 C992 0.950 . S
H982 C994 0.950 . S
H983 C995 0.950 . S
C984 H976 0.950 . S
C984 C985 1.386 . S
C984 C986 1.391 . S
C985 C984 1.386 . S
C985 C989 1.393 . S
C986 H978 0.950 . S
C986 C984 1.391 . S
C986 C987 1.400 . S
C987 C986 1.400 . S
C987 C988 1.398 . S
C987 C993 1.491 . S
C988 H979 0.950 . S
C988 C987 1.398 . S
C988 C989 1.391 . S
C989 H977 0.950 . S
C989 C985 1.393 . S
C989 C988 1.391 . S
C990 H980 0.950 . S
C990 C991 1.386 . S
C990 C992 1.391 . S
C991 C990 1.386 . S
C991 C995 1.393 . S
C992 H981 0.950 . S
C992 C990 1.391 . S
C992 C993 1.400 . S
C993 C987 1.491 . S
C993 C992 1.400 . S
C993 C994 1.398 . S
C994 H982 0.950 . S
C994 C993 1.398 . S
C994 C995 1.391 . S
C995 H983 0.950 . S
C995 C991 1.393 . S
C995 C994 1.391 . S
H996 C1004 0.950 . S
H997 C1009 0.950 . S
H998 C1006 0.950 . S
H999 C1008 0.950 . S
H1000 C1010 0.950 . S
H1001 C1012 0.950 . S
H1002 C1014 0.950 . S
H1003 C1015 0.950 . S
C1004 H996 0.950 . S
C1004 C1005 1.386 . S
C1004 C1006 1.391 . S
C1005 C1004 1.386 . S
C1005 C1009 1.393 . S
C1006 H998 0.950 . S
C1006 C1004 1.391 . S
C1006 C1007 1.400 . S
C1007 C1006 1.400 . S
C1007 C1008 1.398 . S
C1007 C1013 1.491 . S
C1008 H999 0.950 . S
C1008 C1007 1.398 . S
C1008 C1009 1.391 . S
C1009 H997 0.950 . S
C1009 C1005 1.393 . S
C1009 C1008 1.391 . S
C1010 H1000 0.950 . S
C1010 C1011 1.386 . S
C1010 C1012 1.391 . S
C1011 C1010 1.386 . S
C1011 C1015 1.393 . S
C1012 H1001 0.950 . S
C1012 C1010 1.391 . S
C1012 C1013 1.400 . S
C1013 C1007 1.491 . S
C1013 C1012 1.400 . S
C1013 C1014 1.398 . S
C1014 H1002 0.950 . S
C1014 C1013 1.398 . S
C1014 C1015 1.391 . S
C1015 H1003 0.950 . S
C1015 C1011 1.393 . S
C1015 C1014 1.391 . S
H1016 C1024 0.950 . S
H1017 C1029 0.950 . S
H1018 C1026 0.950 . S
H1019 C1028 0.950 . S
H1020 C1030 0.950 . S
H1021 C1032 0.950 . S
H1022 C1034 0.950 . S
H1023 C1035 0.950 1_554 S
C1024 H1016 0.950 . S
C1024 C1025 1.386 . S
C1024 C1026 1.391 . S
C1025 C1024 1.386 . S
C1025 C1029 1.393 . S
C1026 H1018 0.950 . S
C1026 C1024 1.391 . S
C1026 C1027 1.400 . S
C1027 C1026 1.400 . S
C1027 C1028 1.398 . S
C1027 C1033 1.491 . S
C1028 H1019 0.950 . S
C1028 C1027 1.398 . S
C1028 C1029 1.391 . S
C1029 H1017 0.950 . S
C1029 C1025 1.393 . S
C1029 C1028 1.391 . S
C1030 H1020 0.950 . S
C1030 C1031 1.386 . S
C1030 C1032 1.391 . S
C1031 C1030 1.386 . S
C1031 C1035 1.393 . S
C1032 H1021 0.950 . S
C1032 C1030 1.391 . S
C1032 C1033 1.400 . S
C1033 C1027 1.491 . S
C1033 C1032 1.400 . S
C1033 C1034 1.398 . S
C1034 H1022 0.950 . S
C1034 C1033 1.398 . S
C1034 C1035 1.391 . S
C1035 H1023 0.950 1_556 S
C1035 C1031 1.393 . S
C1035 C1034 1.391 . S
H1036 C1044 0.950 . S
H1037 C1049 0.950 . S
H1038 C1046 0.950 . S
H1039 C1048 0.950 . S
H1040 C1050 0.950 . S
H1041 C1052 0.950 . S
H1042 C1054 0.950 . S
H1043 C1055 0.950 . S
C1044 H1036 0.950 . S
C1044 C1045 1.386 . S
C1044 C1046 1.391 . S
C1045 C1044 1.386 . S
C1045 C1049 1.393 . S
C1046 H1038 0.950 . S
C1046 C1044 1.391 . S
C1046 C1047 1.400 . S
C1047 C1046 1.400 . S
C1047 C1048 1.398 . S
C1047 C1053 1.491 . S
C1048 H1039 0.950 . S
C1048 C1047 1.398 . S
C1048 C1049 1.391 . S
C1049 H1037 0.950 . S
C1049 C1045 1.393 . S
C1049 C1048 1.391 . S
C1050 H1040 0.950 . S
C1050 C1051 1.386 . S
C1050 C1052 1.391 . S
C1051 C1050 1.386 . S
C1051 C1055 1.393 . S
C1052 H1041 0.950 . S
C1052 C1050 1.391 . S
C1052 C1053 1.400 . S
C1053 C1047 1.491 . S
C1053 C1052 1.400 . S
C1053 C1054 1.398 . S
C1054 H1042 0.950 . S
C1054 C1053 1.398 . S
C1054 C1055 1.391 . S
C1055 H1043 0.950 . S
C1055 C1051 1.393 . S
C1055 C1054 1.391 . S
H1056 C1064 0.950 . S
H1057 C1069 0.945 1_554 S
H1058 C1066 0.950 . S
H1059 C1068 0.952 . S
H1060 C1070 0.950 . S
H1061 C1072 0.950 . S
H1062 C1074 0.950 . S
H1063 C1075 0.950 . S
C1064 H1056 0.950 . S
C1064 C1065 1.386 . S
C1064 C1066 1.391 . S
C1065 C1064 1.386 . S
C1065 C1069 1.395 . S
C1066 H1058 0.950 . S
C1066 C1064 1.391 . S
C1066 C1067 1.400 . S
C1067 C1066 1.400 . S
C1067 C1068 1.398 . S
C1067 C1073 1.491 . S
C1068 H1059 0.952 . S
C1068 C1067 1.398 . S
C1068 C1069 1.392 . S
C1069 H1057 0.945 1_556 S
C1069 C1065 1.395 . S
C1069 C1068 1.392 . S
C1070 H1060 0.950 . S
C1070 C1071 1.386 . S
C1070 C1072 1.391 . S
C1071 C1070 1.386 . S
C1071 C1075 1.393 . S
C1072 H1061 0.950 . S
C1072 C1070 1.391 . S
C1072 C1073 1.400 . S
C1073 C1067 1.491 . S
C1073 C1072 1.400 . S
C1073 C1074 1.398 . S
C1074 H1062 0.950 . S
C1074 C1073 1.398 . S
C1074 C1075 1.391 . S
C1075 H1063 0.950 . S
C1075 C1071 1.393 . S
C1075 C1074 1.391 . S
H1076 C1084 0.950 . S
H1077 C1089 0.950 . S
H1078 C1086 0.950 . S
H1079 C1088 0.950 . S
H1080 C1090 0.950 . S
H1081 C1092 0.950 . S
H1082 C1094 0.950 . S
H1083 C1095 0.950 . S
C1084 H1076 0.950 . S
C1084 C1085 1.386 . S
C1084 C1086 1.391 . S
C1085 C1084 1.386 . S
C1085 C1089 1.393 . S
C1086 H1078 0.950 . S
C1086 C1084 1.391 . S
C1086 C1087 1.400 . S
C1087 C1086 1.400 . S
C1087 C1088 1.398 . S
C1087 C1093 1.491 . S
C1088 H1079 0.950 . S
C1088 C1087 1.398 . S
C1088 C1089 1.391 . S
C1089 H1077 0.950 . S
C1089 C1085 1.393 . S
C1089 C1088 1.391 . S
C1090 H1080 0.950 . S
C1090 C1091 1.386 . S
C1090 C1092 1.391 . S
C1091 C1090 1.386 . S
C1091 C1095 1.393 . S
C1092 H1081 0.950 . S
C1092 C1090 1.391 . S
C1092 C1093 1.400 . S
C1093 C1087 1.491 . S
C1093 C1092 1.400 . S
C1093 C1094 1.398 . S
C1094 H1082 0.950 . S
C1094 C1093 1.398 . S
C1094 C1095 1.391 . S
C1095 H1083 0.950 . S
C1095 C1091 1.393 . S
C1095 C1094 1.391 . S
H1096 C1104 0.950 . S
H1097 C1109 0.950 . S
H1098 C1106 0.950 . S
H1099 C1108 0.950 . S
H1100 C1110 0.950 . S
H1101 C1112 0.950 . S
H1102 C1114 0.950 . S
H1103 C1115 0.950 . S
C1104 H1096 0.950 . S
C1104 C1105 1.386 . S
C1104 C1106 1.391 . S
C1105 C1104 1.386 . S
C1105 C1109 1.393 . S
C1106 H1098 0.950 . S
C1106 C1104 1.391 . S
C1106 C1107 1.400 . S
C1107 C1106 1.400 . S
C1107 C1108 1.398 . S
C1107 C1113 1.491 . S
C1108 H1099 0.950 . S
C1108 C1107 1.398 . S
C1108 C1109 1.391 . S
C1109 H1097 0.950 . S
C1109 C1105 1.393 . S
C1109 C1108 1.391 . S
C1110 H1100 0.950 . S
C1110 C1111 1.386 . S
C1110 C1112 1.391 . S
C1111 C1110 1.386 . S
C1111 C1115 1.393 . S
C1112 H1101 0.950 . S
C1112 C1110 1.391 . S
C1112 C1113 1.400 . S
C1113 C1107 1.491 . S
C1113 C1112 1.400 . S
C1113 C1114 1.398 . S
C1114 H1102 0.950 . S
C1114 C1113 1.398 . S
C1114 C1115 1.391 . S
C1115 H1103 0.950 . S
C1115 C1111 1.393 . S
C1115 C1114 1.391 . S
H1116 C1124 0.950 . S
H1117 C1129 0.950 . S
H1118 C1126 0.950 . S
H1119 C1128 0.950 . S
H1120 C1130 0.950 . S
H1121 C1132 0.950 . S
H1122 C1134 0.950 . S
H1123 C1135 0.950 . S
C1124 H1116 0.950 . S
C1124 C1125 1.386 . S
C1124 C1126 1.391 . S
C1125 C1124 1.386 . S
C1125 C1129 1.393 . S
C1126 H1118 0.950 . S
C1126 C1124 1.391 . S
C1126 C1127 1.400 . S
C1127 C1126 1.400 . S
C1127 C1128 1.398 . S
C1127 C1133 1.491 . S
C1128 H1119 0.950 . S
C1128 C1127 1.398 . S
C1128 C1129 1.391 . S
C1129 H1117 0.950 . S
C1129 C1125 1.393 . S
C1129 C1128 1.391 . S
C1130 H1120 0.950 . S
C1130 C1131 1.386 . S
C1130 C1132 1.391 . S
C1131 C1130 1.386 . S
C1131 C1135 1.393 . S
C1132 H1121 0.950 . S
C1132 C1130 1.391 . S
C1132 C1133 1.400 . S
C1133 C1127 1.491 . S
C1133 C1132 1.400 . S
C1133 C1134 1.398 . S
C1134 H1122 0.950 . S
C1134 C1133 1.398 . S
C1134 C1135 1.391 . S
C1135 H1123 0.950 . S
C1135 C1131 1.393 . S
C1135 C1134 1.391 . S
H1136 C1144 0.950 . S
H1137 C1149 0.950 . S
H1138 C1146 0.950 . S
H1139 C1148 0.950 . S
H1140 C1150 0.950 . S
H1141 C1152 0.950 . S
H1142 C1154 0.950 . S
H1143 C1155 0.950 . S
C1144 H1136 0.950 . S
C1144 C1145 1.386 . S
C1144 C1146 1.391 . S
C1145 C1144 1.386 . S
C1145 C1149 1.393 . S
C1146 H1138 0.950 . S
C1146 C1144 1.391 . S
C1146 C1147 1.400 . S
C1147 C1146 1.400 . S
C1147 C1148 1.398 . S
C1147 C1153 1.491 . S
C1148 H1139 0.950 . S
C1148 C1147 1.398 . S
C1148 C1149 1.391 . S
C1149 H1137 0.950 . S
C1149 C1145 1.393 . S
C1149 C1148 1.391 . S
C1150 H1140 0.950 . S
C1150 C1151 1.386 . S
C1150 C1152 1.391 . S
C1151 C1150 1.386 . S
C1151 C1155 1.393 . S
C1152 H1141 0.950 . S
C1152 C1150 1.391 . S
C1152 C1153 1.400 . S
C1153 C1147 1.491 . S
C1153 C1152 1.400 . S
C1153 C1154 1.398 . S
C1154 H1142 0.950 . S
C1154 C1153 1.398 . S
C1154 C1155 1.391 . S
C1155 H1143 0.950 . S
C1155 C1151 1.393 . S
C1155 C1154 1.391 . S
H1156 C1164 0.950 . S
H1157 C1169 0.950 . S
H1158 C1166 0.950 . S
H1159 C1168 0.950 . S
H1160 C1170 0.950 . S
H1161 C1172 0.950 . S
H1162 C1174 0.950 . S
H1163 C1175 0.950 . S
C1164 H1156 0.950 . S
C1164 C1165 1.386 . S
C1164 C1166 1.391 . S
C1165 C1164 1.386 . S
C1165 C1169 1.393 . S
C1166 H1158 0.950 . S
C1166 C1164 1.391 . S
C1166 C1167 1.400 . S
C1167 C1166 1.400 . S
C1167 C1168 1.398 . S
C1167 C1173 1.491 . S
C1168 H1159 0.950 . S
C1168 C1167 1.398 . S
C1168 C1169 1.391 . S
C1169 H1157 0.950 . S
C1169 C1165 1.393 . S
C1169 C1168 1.391 . S
C1170 H1160 0.950 . S
C1170 C1171 1.386 . S
C1170 C1172 1.391 . S
C1171 C1170 1.386 . S
C1171 C1175 1.393 . S
C1172 H1161 0.950 . S
C1172 C1170 1.391 . S
C1172 C1173 1.400 . S
C1173 C1167 1.491 . S
C1173 C1172 1.400 . S
C1173 C1174 1.398 . S
C1174 H1162 0.950 . S
C1174 C1173 1.398 . S
C1174 C1175 1.391 . S
C1175 H1163 0.950 . S
C1175 C1171 1.393 . S
C1175 C1174 1.391 . S
H1176 C1184 0.950 . S
H1177 C1189 0.950 . S
H1178 C1186 0.950 . S
H1179 C1188 0.950 . S
H1180 C1190 0.950 . S
H1181 C1192 0.950 . S
H1182 C1194 0.950 . S
H1183 C1195 0.950 . S
C1184 H1176 0.950 . S
C1184 C1185 1.386 . S
C1184 C1186 1.391 . S
C1185 C1184 1.386 . S
C1185 C1189 1.393 . S
C1186 H1178 0.950 . S
C1186 C1184 1.391 . S
C1186 C1187 1.400 . S
C1187 C1186 1.400 . S
C1187 C1188 1.398 . S
C1187 C1193 1.491 . S
C1188 H1179 0.950 . S
C1188 C1187 1.398 . S
C1188 C1189 1.391 . S
C1189 H1177 0.950 . S
C1189 C1185 1.393 . S
C1189 C1188 1.391 . S
C1190 H1180 0.950 . S
C1190 C1191 1.386 . S
C1190 C1192 1.391 . S
C1191 C1190 1.386 . S
C1191 C1195 1.393 . S
C1192 H1181 0.950 . S
C1192 C1190 1.391 . S
C1192 C1193 1.400 . S
C1193 C1187 1.491 . S
C1193 C1192 1.400 . S
C1193 C1194 1.398 . S
C1194 H1182 0.950 . S
C1194 C1193 1.398 . S
C1194 C1195 1.391 . S
C1195 H1183 0.950 . S
C1195 C1191 1.393 . S
C1195 C1194 1.391 . S
H1196 C1204 0.950 . S
H1197 C1209 0.950 . S
H1198 C1206 0.950 . S
H1199 C1208 0.950 . S
H1200 C1210 0.950 . S
H1201 C1212 0.950 . S
H1202 C1214 0.950 . S
H1203 C1215 0.950 . S
C1204 H1196 0.950 . S
C1204 C1205 1.386 . S
C1204 C1206 1.391 . S
C1205 C1204 1.386 . S
C1205 C1209 1.393 . S
C1206 H1198 0.950 . S
C1206 C1204 1.391 . S
C1206 C1207 1.400 . S
C1207 C1206 1.400 . S
C1207 C1208 1.398 . S
C1207 C1213 1.491 . S
C1208 H1199 0.950 . S
C1208 C1207 1.398 . S
C1208 C1209 1.391 . S
C1209 H1197 0.950 . S
C1209 C1205 1.393 . S
C1209 C1208 1.391 . S
C1210 H1200 0.950 . S
C1210 C1211 1.386 . S
C1210 C1212 1.391 . S
C1211 C1210 1.386 . S
C1211 C1215 1.393 . S
C1212 H1201 0.950 . S
C1212 C1210 1.391 . S
C1212 C1213 1.400 . S
C1213 C1207 1.491 . S
C1213 C1212 1.400 . S
C1213 C1214 1.398 . S
C1214 H1202 0.950 . S
C1214 C1213 1.398 . S
C1214 C1215 1.391 . S
C1215 H1203 0.950 . S
C1215 C1211 1.393 . S
C1215 C1214 1.391 . S
C585 C3 1.360 . S
C591 C435 1.360 . S
C605 C38 1.315 . S
C611 C182 1.315 . S
C625 C74 1.311 . S
C631 C506 1.311 . S
C645 C255 1.362 . S
C651 C111 1.362 . S
C665 C507 1.362 . S
C671 C75 1.362 . S
C685 C254 1.317 . S
C691 C110 1.317 . S
C705 C434 1.303 . S
C711 C2 1.303 . S
C725 C183 1.355 . S
C731 C39 1.355 . S
C745 C147 1.362 . S
C751 C291 1.362 . S
C765 C218 1.308 . S
C771 C362 1.308 . S
C785 C363 1.362 . S
C791 C219 1.362 . S
C805 C146 1.296 . S
C811 C290 1.296 . S
C825 C470 1.303 . S
C831 C326 1.303 . S
C845 C399 1.362 . S
C851 C543 1.362 . S
C865 C398 1.319 . S
C871 C542 1.319 . S
C885 C327 1.356 . S
C891 C471 1.356 . S
C905 C400 1.473 . S
C911 C14 1.445 . S
C925 C292 1.453 . S
C931 C40 1.457 . S
C945 C76 1.473 . S
C951 C338 1.449 . S
C965 C374 1.446 . S
C971 C122 1.444 . S
C985 C410 1.452 . S
C991 C86 1.443 . S
C1005 C112 1.469 . S
C1011 C302 1.455 . S
C1025 C328 1.455 . S
C1031 C4 1.460 . S
C1045 C364 1.464 . S
C1051 C50 1.461 . S
C1065 C158 1.456 . S
C1071 C544 1.468 . S
C1085 C436 1.464 . S
C1091 C184 1.459 . S
C1105 C220 1.476 . S
C1111 C482 1.443 . S
C1125 C266 1.464 . S
C1131 C518 1.458 . S
C1145 C230 1.447 . S
C1151 C554 1.443 . S
C1165 C446 1.444 . S
C1171 C256 1.474 . S
C1185 C472 1.454 . S
C1191 C148 1.452 . S
C1205 C508 1.470 . S
C1211 C194 1.450 . S
