# Generated by pormake.
# Topology unm, (4)-cn, num edge types: 1
# Building blocks:
#     Node 0, Type 0, BuildingBlock: CEKHIL_clean_sbu_0, # of connection points: 4
#     Node 1, Type 0, BuildingBlock: CEKHIL_clean_sbu_0, # of connection points: 4
#     Node 2, Type 0, BuildingBlock: CEKHIL_clean_sbu_0, # of connection points: 4
#     Node 3, Type 0, BuildingBlock: CEKHIL_clean_sbu_0, # of connection points: 4
#     Node 4, Type 0, BuildingBlock: CEKHIL_clean_sbu_0, # of connection points: 4
#     Node 5, Type 0, BuildingBlock: CEKHIL_clean_sbu_0, # of connection points: 4
#     Node 6, Type 0, BuildingBlock: CEKHIL_clean_sbu_0, # of connection points: 4
#     Node 7, Type 0, BuildingBlock: CEKHIL_clean_sbu_0, # of connection points: 4
#     Edge 8, Type (0, 0), BuildingBlock: AJUNOK_clean_linker_0, # of connection points: 2
#     Edge 9, Type (0, 0), BuildingBlock: AJUNOK_clean_linker_0, # of connection points: 2
#     Edge 10, Type (0, 0), BuildingBlock: AJUNOK_clean_linker_0, # of connection points: 2
#     Edge 11, Type (0, 0), BuildingBlock: AJUNOK_clean_linker_0, # of connection points: 2
#     Edge 12, Type (0, 0), BuildingBlock: AJUNOK_clean_linker_0, # of connection points: 2
#     Edge 13, Type (0, 0), BuildingBlock: AJUNOK_clean_linker_0, # of connection points: 2
#     Edge 14, Type (0, 0), BuildingBlock: AJUNOK_clean_linker_0, # of connection points: 2
#     Edge 15, Type (0, 0), BuildingBlock: AJUNOK_clean_linker_0, # of connection points: 2
#     Edge 16, Type (0, 0), BuildingBlock: AJUNOK_clean_linker_0, # of connection points: 2
#     Edge 17, Type (0, 0), BuildingBlock: AJUNOK_clean_linker_0, # of connection points: 2
#     Edge 18, Type (0, 0), BuildingBlock: AJUNOK_clean_linker_0, # of connection points: 2
#     Edge 19, Type (0, 0), BuildingBlock: AJUNOK_clean_linker_0, # of connection points: 2
#     Edge 20, Type (0, 0), BuildingBlock: AJUNOK_clean_linker_0, # of connection points: 2
#     Edge 21, Type (0, 0), BuildingBlock: AJUNOK_clean_linker_0, # of connection points: 2
#     Edge 22, Type (0, 0), BuildingBlock: AJUNOK_clean_linker_0, # of connection points: 2
#     Edge 23, Type (0, 0), BuildingBlock: AJUNOK_clean_linker_0, # of connection points: 2
# Relax obj value: 0.191
# Max RMSD: 0.152
# Mean RMSD: 0.152
data_MOF--net-unm--node1-CEKHIL_clean_sbu_0--edge1-AJUNOK_clean_linker_0
_symmetry_space_group_name_H-M    P1
_symmetry_Int_Tables_number       1
_symmetry_cell_setting            triclinic
loop_
_symmetry_equiv_pos_as_xyz
'x, y, z'
_cell_length_a     18.465711
_cell_length_b     18.469211
_cell_length_c     31.43504
_cell_angle_alpha  90.009056
_cell_angle_beta   90.058233
_cell_angle_gamma 89.966055
loop_
_atom_site_label
_atom_site_type_symbol
_atom_site_fract_x
_atom_site_fract_y
_atom_site_fract_z
_atom_type_partial_charge
Co0 Co 0.19972 0.26494 0.19413 0.0
O1 O 0.28329 0.20718 0.2118 0.0
O2 O 0.28631 0.32397 0.19761 0.0
C3 C 0.11707 0.22784 0.24377 0.0
O4 O 0.12936 0.34419 0.17802 0.0
Co5 Co 0.0532 0.19929 0.16255 0.0
O6 O 0.01691 0.29949 0.1706 0.0
C7 C 0.17413 0.22081 0.10118 0.0
C8 C 0.3208 0.26681 0.21055 0.0
C9 C 0.06089 0.35249 0.17287 0.0
O10 O 0.21698 0.24443 0.13078 0.0
O11 O 0.11006 0.19756 0.10856 0.0
O12 O 0.16677 0.27482 0.25338 0.0
O13 O 0.12521 0.19766 0.20702 0.0
Co14 Co 0.23738 0.70735 0.6961 0.0
O15 O 0.29753 0.78973 0.71193 0.0
O16 O 0.17954 0.79476 0.7014 0.0
C17 C 0.27727 0.62367 0.74419 0.0
O18 O 0.15631 0.63705 0.68229 0.0
Co19 Co 0.30077 0.56289 0.66054 0.0
O20 O 0.20356 0.52544 0.6753 0.0
C21 C 0.27519 0.68519 0.60166 0.0
C22 C 0.23858 0.82841 0.71198 0.0
C23 C 0.14971 0.56787 0.6797 0.0
O24 O 0.25349 0.72593 0.63261 0.0
O25 O 0.29796 0.62034 0.60666 0.0
O26 O 0.23243 0.67443 0.75536 0.0
O27 O 0.30508 0.63207 0.70673 0.0
Co28 Co 0.80859 0.73217 0.19166 0.0
O29 O 0.72764 0.79165 0.21094 0.0
O30 O 0.72127 0.67471 0.19683 0.0
C31 C 0.89503 0.76654 0.23951 0.0
O32 O 0.877 0.65194 0.17408 0.0
Co33 Co 0.95135 0.79818 0.15556 0.0
O34 O 0.98799 0.6982 0.16362 0.0
C35 C 0.82417 0.78433 0.09912 0.0
C36 C 0.68891 0.73283 0.2102 0.0
C37 C 0.94535 0.64448 0.16778 0.0
O38 O 0.78693 0.75416 0.1291 0.0
O39 O 0.88807 0.80949 0.10434 0.0
O40 O 0.84462 0.72098 0.25004 0.0
O41 O 0.88506 0.798 0.20319 0.0
Co42 Co 0.77027 0.30815 0.69509 0.0
O43 O 0.71071 0.22478 0.71049 0.0
O44 O 0.82831 0.2207 0.69886 0.0
C45 C 0.73186 0.39058 0.74446 0.0
O46 O 0.85154 0.3782 0.68179 0.0
Co47 Co 0.70857 0.45494 0.66206 0.0
O48 O 0.80719 0.49084 0.67512 0.0
C49 C 0.7307 0.33454 0.60116 0.0
C50 C 0.76988 0.18637 0.70967 0.0
C51 C 0.86009 0.4471 0.67921 0.0
O52 O 0.75255 0.29206 0.63134 0.0
O53 O 0.7092 0.39951 0.60747 0.0
O54 O 0.77669 0.3392 0.75471 0.0
O55 O 0.70325 0.38365 0.70709 0.0
Co56 Co 0.70076 0.23897 0.32918 0.0
O57 O 0.78406 0.29558 0.31021 0.0
O58 O 0.78672 0.17894 0.32476 0.0
C59 C 0.61543 0.27591 0.28106 0.0
O60 O 0.62965 0.16105 0.34657 0.0
Co61 Co 0.55963 0.30884 0.36502 0.0
O62 O 0.5195 0.21086 0.35485 0.0
C63 C 0.68444 0.2872 0.42252 0.0
C64 C 0.82143 0.23583 0.31169 0.0
C65 C 0.56067 0.15588 0.35112 0.0
O66 O 0.72248 0.2602 0.39183 0.0
O67 O 0.6203 0.31205 0.41776 0.0
O68 O 0.66468 0.22888 0.27065 0.0
O69 O 0.6262 0.30701 0.31743 0.0
Co70 Co 0.27563 0.20754 0.82854 0.0
O71 O 0.21514 0.28961 0.81231 0.0
O72 O 0.33296 0.29511 0.82354 0.0
C73 C 0.23681 0.12361 0.78031 0.0
O74 O 0.35727 0.13848 0.84257 0.0
Co75 Co 0.2146 0.06177 0.86353 0.0
O76 O 0.31355 0.02597 0.85079 0.0
C77 C 0.22852 0.187 0.92155 0.0
C78 C 0.27399 0.32844 0.81251 0.0
C79 C 0.3662 0.06976 0.84592 0.0
O80 O 0.25787 0.22581 0.89195 0.0
O81 O 0.20357 0.12324 0.91548 0.0
O82 O 0.2816 0.17448 0.76929 0.0
O83 O 0.20896 0.13162 0.81774 0.0
Co84 Co 0.30904 0.76999 0.32946 0.0
O85 O 0.22969 0.7073 0.3115 0.0
O86 O 0.22047 0.825 0.32164 0.0
C87 C 0.39738 0.73115 0.28392 0.0
O88 O 0.37493 0.85362 0.34482 0.0
Co89 Co 0.45362 0.71339 0.36878 0.0
O90 O 0.48765 0.81288 0.35658 0.0
C91 C 0.32587 0.73361 0.42441 0.0
C92 C 0.18929 0.7651 0.31024 0.0
C93 C 0.44291 0.86446 0.35068 0.0
O94 O 0.28628 0.75368 0.3925 0.0
O95 O 0.39194 0.71371 0.42096 0.0
O96 O 0.34685 0.77504 0.27106 0.0
O97 O 0.38707 0.70471 0.3215 0.0
Co98 Co 0.74191 0.8084 0.82661 0.0
O99 O 0.8004 0.72459 0.81089 0.0
O100 O 0.68318 0.72112 0.82368 0.0
C101 C 0.77947 0.88979 0.77636 0.0
O102 O 0.66235 0.88009 0.84077 0.0
Co103 Co 0.80937 0.95439 0.85777 0.0
O104 O 0.71068 0.99152 0.84599 0.0
C105 C 0.78536 0.83578 0.91985 0.0
C106 C 0.74121 0.68644 0.8123 0.0
C107 C 0.65633 0.94934 0.84319 0.0
O108 O 0.76106 0.79316 0.89035 0.0
O109 O 0.80964 0.89941 0.9124 0.0
O110 O 0.7337 0.83892 0.76685 0.0
O111 O 0.80953 0.88245 0.81326 0.0
C112 C 0.1386 0.23321 0.02492 0.0
C113 C 0.19459 0.22479 0.05523 0.0
C114 C 0.15166 0.22793 0.98117 0.0
C115 C 0.22143 0.21501 0.96546 0.0
H116 H 0.08315 0.24136 0.03508 0.0
H117 H 0.10598 0.22999 0.95952 0.0
S118 S 0.38836 0.19472 0.0301 0.0
N119 N 0.32389 0.20794 0.06574 0.0
N120 N 0.34835 0.19765 0.98304 0.0
C121 C 0.27889 0.21077 0.99489 0.0
C122 C 0.26557 0.21611 0.03985 0.0
C123 C 0.32179 0.76455 0.54327 0.0
C124 C 0.27275 0.71163 0.55718 0.0
C125 C 0.33416 0.77558 0.49957 0.0
C126 C 0.29696 0.73512 0.46835 0.0
H127 H 0.35475 0.79355 0.56615 0.0
H128 H 0.37627 0.81311 0.49013 0.0
S129 S 0.15794 0.59516 0.48855 0.0
N130 N 0.18321 0.62189 0.5365 0.0
N131 N 0.20534 0.64417 0.45454 0.0
C132 C 0.24402 0.68599 0.48189 0.0
C133 C 0.2323 0.67383 0.52631 0.0
C134 C 0.77563 0.85793 0.03971 0.0
C135 C 0.79494 0.78958 0.05538 0.0
C136 C 0.76866 0.87036 0.99591 0.0
C137 C 0.78159 0.8152 0.9657 0.0
H138 H 0.76995 0.90326 0.06136 0.0
H139 H 0.75595 0.92487 0.98555 0.0
S140 S 0.8303 0.62529 0.99074 0.0
N141 N 0.82395 0.66485 0.03778 0.0
N142 N 0.81049 0.68818 0.95514 0.0
C143 C 0.7969 0.74539 0.98106 0.0
C144 C 0.80402 0.73272 0.02596 0.0
C145 C 0.75206 0.34715 0.48147 0.0
C146 C 0.71272 0.28734 0.46661 0.0
C147 C 0.76179 0.35883 0.5253 0.0
C148 C 0.73287 0.31102 0.55594 0.0
H149 H 0.77131 0.38765 0.45927 0.0
H150 H 0.78922 0.40777 0.5354 0.0
S151 S 0.62868 0.1443 0.53306 0.0
N152 N 0.64702 0.17816 0.4856 0.0
N153 N 0.66659 0.19955 0.56795 0.0
C154 C 0.69718 0.24874 0.54137 0.0
C155 C 0.68657 0.23723 0.49669 0.0
C156 C 0.44355 0.21037 0.2246 0.0
C157 C 0.39738 0.27106 0.22615 0.0
C158 C 0.51499 0.2134 0.2406 0.0
C159 C 0.54265 0.27662 0.25996 0.0
H160 H 0.42435 0.16004 0.21099 0.0
H161 H 0.54789 0.16487 0.23916 0.0
S162 S 0.44313 0.44957 0.27333 0.0
N163 N 0.38495 0.39632 0.24866 0.0
N164 N 0.51734 0.4009 0.28006 0.0
C165 C 0.49688 0.3374 0.26188 0.0
C166 C 0.42493 0.33491 0.24465 0.0
C167 C 0.17581 0.93468 0.74612 0.0
C168 C 0.2376 0.9058 0.72595 0.0
C169 C 0.1753 0.00568 0.76262 0.0
C170 C 0.23566 0.0517 0.75845 0.0
H171 H 0.12823 0.90131 0.75058 0.0
H172 H 0.12744 0.02442 0.77925 0.0
S173 S 0.40951 0.00376 0.70637 0.0
N174 N 0.36013 0.92966 0.70194 0.0
N175 N 0.35836 0.06342 0.73138 0.0
C176 C 0.29686 0.0243 0.73703 0.0
C177 C 0.29803 0.95138 0.72125 0.0
C178 C 0.4919 0.78254 0.23421 0.0
C179 C 0.46996 0.72779 0.26278 0.0
C180 C 0.56269 0.78433 0.2173 0.0
C181 C 0.61369 0.73026 0.22729 0.0
H182 H 0.45485 0.82574 0.22582 0.0
H183 H 0.57751 0.82815 0.19615 0.0
S184 S 0.58547 0.57675 0.3014 0.0
N185 N 0.50698 0.61969 0.30122 0.0
N186 N 0.63809 0.62158 0.26817 0.0
C187 C 0.59231 0.67489 0.25526 0.0
C188 C 0.52108 0.67401 0.2733 0.0
C189 C 0.83588 0.07986 0.74151 0.0
C190 C 0.77233 0.10862 0.72314 0.0
C191 C 0.83844 0.0085 0.75741 0.0
C192 C 0.77835 0.96185 0.75445 0.0
H193 H 0.88346 0.11362 0.74505 0.0
H194 H 0.88768 0.99003 0.77273 0.0
S195 S 0.6001 0.00927 0.70729 0.0
N196 N 0.64836 0.08394 0.7021 0.0
N197 N 0.65374 0.94957 0.73045 0.0
C198 C 0.71529 0.98913 0.73477 0.0
C199 C 0.71212 0.06243 0.71958 0.0
C200 C 0.94285 0.29405 0.29677 0.0
C201 C 0.89872 0.23175 0.2973 0.0
C202 C 0.01482 0.29156 0.28169 0.0
C203 C 0.04512 0.22708 0.2655 0.0
H204 H 0.92151 0.34532 0.30782 0.0
H205 H 0.04587 0.34132 0.28104 0.0
S206 S 0.95328 0.04888 0.25973 0.0
N207 N 0.89208 0.10314 0.28099 0.0
N208 N 0.02556 0.0995 0.25136 0.0
C209 C 1.00188 0.16449 0.26611 0.0
C210 C 0.92933 0.16654 0.28235 0.0
C211 C 0.3376 0.50462 0.76092 0.0
C212 C 0.27806 0.55152 0.76585 0.0
C213 C 0.33666 0.43361 0.77737 0.0
C214 C 0.2752 0.40562 0.79827 0.0
H215 H 0.38516 0.52267 0.74377 0.0
H216 H 0.38364 0.39955 0.77238 0.0
S217 S 0.10538 0.5059 0.82006 0.0
N218 N 0.15642 0.56487 0.79446 0.0
N219 N 0.15393 0.43109 0.82379 0.0
C220 C 0.21557 0.45199 0.80371 0.0
C221 C 0.21719 0.52491 0.78798 0.0
C222 C 0.0802 0.82868 0.27962 0.0
C223 C 0.11269 0.7642 0.29448 0.0
C224 C 0.00967 0.8292 0.26241 0.0
C225 C 0.96757 0.76586 0.26059 0.0
H226 H 0.11018 0.879 0.2802 0.0
H227 H 0.98796 0.87969 0.25031 0.0
S228 S 0.02662 0.58255 0.29478 0.0
N229 N 0.09692 0.63486 0.30531 0.0
N230 N 0.9639 0.6365 0.27477 0.0
C231 C 0.99875 0.70124 0.27601 0.0
C232 C 0.07129 0.7003 0.29244 0.0
C233 C 0.67191 0.5081 0.76532 0.0
C234 C 0.733 0.46247 0.76648 0.0
C235 C 0.6743 0.57919 0.78175 0.0
C236 C 0.73863 0.60868 0.79873 0.0
H237 H 0.62197 0.489 0.75111 0.0
H238 H 0.62593 0.6122 0.77966 0.0
S239 S 0.91402 0.5122 0.8088 0.0
N240 N 0.85952 0.45191 0.78697 0.0
N241 N 0.86479 0.58584 0.81592 0.0
C242 C 0.79996 0.56348 0.80026 0.0
C243 C 0.79694 0.49044 0.78471 0.0
C244 C 0.9325 0.51154 0.18004 0.0
C245 C 0.97565 0.57031 0.16692 0.0
C246 C 0.96021 0.44115 0.18132 0.0
C247 C 0.03221 0.42679 0.1697 0.0
H248 H 0.87704 0.51985 0.19013 0.0
H249 H 0.9253 0.39793 0.19237 0.0
S250 S 0.16668 0.56025 0.13035 0.0
N251 N 0.09341 0.60856 0.14021 0.0
N252 N 0.14538 0.47611 0.1427 0.0
C253 C 0.07574 0.48462 0.15583 0.0
C254 C 0.0475 0.55637 0.1544 0.0
C255 C 0.94714 0.54824 0.66694 0.0
C256 C 0.93432 0.47685 0.68063 0.0
C257 C 0.01692 0.57749 0.66719 0.0
C258 C 0.07651 0.53638 0.68096 0.0
H259 H 0.90316 0.58171 0.65536 0.0
H260 H 0.02431 0.63233 0.65575 0.0
S261 S 0.07144 0.3497 0.72449 0.0
N262 N 0.98665 0.36769 0.71161 0.0
N263 N 0.11796 0.42269 0.71156 0.0
C264 C 0.06445 0.46562 0.69579 0.0
C265 C 0.99332 0.43587 0.69577 0.0
C266 C 0.57208 0.0227 0.36111 0.0
C267 C 0.52828 0.0829 0.35178 0.0
C268 C 0.54379 0.95264 0.36088 0.0
C269 C 0.4705 0.93973 0.35116 0.0
H270 H 0.62886 0.02958 0.36883 0.0
H271 H 0.58006 0.90831 0.36837 0.0
S272 S 0.33336 0.07923 0.32276 0.0
N273 N 0.40836 0.12543 0.33148 0.0
N274 N 0.35475 0.99363 0.33108 0.0
C275 C 0.42593 0.99963 0.34163 0.0
C276 C 0.45489 0.07118 0.34196 0.0
C277 C 0.45392 0.96868 0.85739 0.0
C278 C 0.44065 0.04037 0.84437 0.0
C279 C 0.52379 0.93961 0.85665 0.0
C280 C 0.58314 0.98119 0.84307 0.0
H281 H 0.41016 0.93471 0.86865 0.0
H282 H 0.53139 0.8844 0.86742 0.0
S283 S 0.57707 0.16942 0.80189 0.0
N284 N 0.49246 0.15073 0.81466 0.0
N285 N 0.6239 0.0961 0.81384 0.0
C286 C 0.57069 0.05245 0.82917 0.0
C287 C 0.49944 0.08201 0.82965 0.0
loop_
_geom_bond_atom_site_label_1
_geom_bond_atom_site_label_2
_geom_bond_distance
_geom_bond_site_symmetry_2
_ccdc_geom_bond_type
Co0 O1 2.216 . S
Co0 O2 2.091 . S
Co0 O4 2.004 . S
Co0 O10 2.021 . S
Co0 O12 2.137 . S
Co0 O13 2.244 . S
O1 Co0 2.216 . S
O1 C8 1.247 . S
O2 Co0 2.091 . S
O2 C8 1.261 . S
C3 O12 1.247 . S
C3 O13 1.272 . S
O4 Co0 2.004 . S
O4 C9 1.259 . S
Co5 O6 2.061 . S
Co5 O11 2.052 . S
Co5 O13 2.135 . S
O6 Co5 2.061 . S
O6 C9 1.235 . S
C7 O10 1.238 . S
C7 O11 1.241 . S
C8 O1 1.247 . S
C8 O2 1.261 . S
C9 O4 1.259 . S
C9 O6 1.235 . S
O10 Co0 2.021 . S
O10 C7 1.238 . S
O11 Co5 2.052 . S
O11 C7 1.241 . S
O12 Co0 2.137 . S
O12 C3 1.247 . S
O13 Co0 2.244 . S
O13 C3 1.272 . S
O13 Co5 2.135 . S
Co14 O15 2.216 . S
Co14 O16 2.091 . S
Co14 O18 2.004 . S
Co14 O24 2.021 . S
Co14 O26 2.137 . S
Co14 O27 2.244 . S
O15 Co14 2.216 . S
O15 C22 1.247 . S
O16 Co14 2.091 . S
O16 C22 1.261 . S
C17 O26 1.247 . S
C17 O27 1.272 . S
O18 Co14 2.004 . S
O18 C23 1.259 . S
Co19 O20 2.061 . S
Co19 O25 2.052 . S
Co19 O27 2.135 . S
O20 Co19 2.061 . S
O20 C23 1.235 . S
C21 O24 1.238 . S
C21 O25 1.241 . S
C22 O15 1.247 . S
C22 O16 1.261 . S
C23 O18 1.259 . S
C23 O20 1.235 . S
O24 Co14 2.021 . S
O24 C21 1.238 . S
O25 Co19 2.052 . S
O25 C21 1.241 . S
O26 Co14 2.137 . S
O26 C17 1.247 . S
O27 Co14 2.244 . S
O27 C17 1.272 . S
O27 Co19 2.135 . S
Co28 O29 2.216 . S
Co28 O30 2.091 . S
Co28 O32 2.004 . S
Co28 O38 2.021 . S
Co28 O40 2.137 . S
Co28 O41 2.244 . S
O29 Co28 2.216 . S
O29 C36 1.247 . S
O30 Co28 2.091 . S
O30 C36 1.261 . S
C31 O40 1.247 . S
C31 O41 1.272 . S
O32 Co28 2.004 . S
O32 C37 1.259 . S
Co33 O34 2.061 . S
Co33 O39 2.052 . S
Co33 O41 2.135 . S
O34 Co33 2.061 . S
O34 C37 1.235 . S
C35 O38 1.238 . S
C35 O39 1.241 . S
C36 O29 1.247 . S
C36 O30 1.261 . S
C37 O32 1.259 . S
C37 O34 1.235 . S
O38 Co28 2.021 . S
O38 C35 1.238 . S
O39 Co33 2.052 . S
O39 C35 1.241 . S
O40 Co28 2.137 . S
O40 C31 1.247 . S
O41 Co28 2.244 . S
O41 C31 1.272 . S
O41 Co33 2.135 . S
Co42 O43 2.216 . S
Co42 O44 2.091 . S
Co42 O46 2.004 . S
Co42 O52 2.021 . S
Co42 O54 2.137 . S
Co42 O55 2.244 . S
O43 Co42 2.216 . S
O43 C50 1.247 . S
O44 Co42 2.091 . S
O44 C50 1.261 . S
C45 O54 1.247 . S
C45 O55 1.272 . S
O46 Co42 2.004 . S
O46 C51 1.259 . S
Co47 O48 2.061 . S
Co47 O53 2.052 . S
Co47 O55 2.135 . S
O48 Co47 2.061 . S
O48 C51 1.235 . S
C49 O52 1.238 . S
C49 O53 1.241 . S
C50 O43 1.247 . S
C50 O44 1.261 . S
C51 O46 1.259 . S
C51 O48 1.235 . S
O52 Co42 2.021 . S
O52 C49 1.238 . S
O53 Co47 2.052 . S
O53 C49 1.241 . S
O54 Co42 2.137 . S
O54 C45 1.247 . S
O55 Co42 2.244 . S
O55 C45 1.272 . S
O55 Co47 2.135 . S
Co56 O57 2.216 . S
Co56 O58 2.091 . S
Co56 O60 2.004 . S
Co56 O66 2.021 . S
Co56 O68 2.137 . S
Co56 O69 2.244 . S
O57 Co56 2.216 . S
O57 C64 1.247 . S
O58 Co56 2.091 . S
O58 C64 1.261 . S
C59 O68 1.247 . S
C59 O69 1.272 . S
O60 Co56 2.004 . S
O60 C65 1.259 . S
Co61 O62 2.061 . S
Co61 O67 2.052 . S
Co61 O69 2.135 . S
O62 Co61 2.061 . S
O62 C65 1.235 . S
C63 O66 1.238 . S
C63 O67 1.241 . S
C64 O57 1.247 . S
C64 O58 1.261 . S
C65 O60 1.259 . S
C65 O62 1.235 . S
O66 Co56 2.021 . S
O66 C63 1.238 . S
O67 Co61 2.052 . S
O67 C63 1.241 . S
O68 Co56 2.137 . S
O68 C59 1.247 . S
O69 Co56 2.244 . S
O69 C59 1.272 . S
O69 Co61 2.135 . S
Co70 O71 2.216 . S
Co70 O72 2.091 . S
Co70 O74 2.004 . S
Co70 O80 2.021 . S
Co70 O82 2.137 . S
Co70 O83 2.244 . S
O71 Co70 2.216 . S
O71 C78 1.247 . S
O72 Co70 2.091 . S
O72 C78 1.261 . S
C73 O82 1.247 . S
C73 O83 1.272 . S
O74 Co70 2.004 . S
O74 C79 1.259 . S
Co75 O76 2.061 . S
Co75 O81 2.052 . S
Co75 O83 2.135 . S
O76 Co75 2.061 . S
O76 C79 1.235 . S
C77 O80 1.238 . S
C77 O81 1.241 . S
C78 O71 1.247 . S
C78 O72 1.261 . S
C79 O74 1.259 . S
C79 O76 1.235 . S
O80 Co70 2.021 . S
O80 C77 1.238 . S
O81 Co75 2.052 . S
O81 C77 1.241 . S
O82 Co70 2.137 . S
O82 C73 1.247 . S
O83 Co70 2.244 . S
O83 C73 1.272 . S
O83 Co75 2.135 . S
Co84 O85 2.216 . S
Co84 O86 2.091 . S
Co84 O88 2.004 . S
Co84 O94 2.021 . S
Co84 O96 2.137 . S
Co84 O97 2.244 . S
O85 Co84 2.216 . S
O85 C92 1.247 . S
O86 Co84 2.091 . S
O86 C92 1.261 . S
C87 O96 1.247 . S
C87 O97 1.272 . S
O88 Co84 2.004 . S
O88 C93 1.259 . S
Co89 O90 2.061 . S
Co89 O95 2.052 . S
Co89 O97 2.135 . S
O90 Co89 2.061 . S
O90 C93 1.235 . S
C91 O94 1.238 . S
C91 O95 1.241 . S
C92 O85 1.247 . S
C92 O86 1.261 . S
C93 O88 1.259 . S
C93 O90 1.235 . S
O94 Co84 2.021 . S
O94 C91 1.238 . S
O95 Co89 2.052 . S
O95 C91 1.241 . S
O96 Co84 2.137 . S
O96 C87 1.247 . S
O97 Co84 2.244 . S
O97 C87 1.272 . S
O97 Co89 2.135 . S
Co98 O99 2.216 . S
Co98 O100 2.091 . S
Co98 O102 2.004 . S
Co98 O108 2.021 . S
Co98 O110 2.137 . S
Co98 O111 2.244 . S
O99 Co98 2.216 . S
O99 C106 1.247 . S
O100 Co98 2.091 . S
O100 C106 1.261 . S
C101 O110 1.247 . S
C101 O111 1.272 . S
O102 Co98 2.004 . S
O102 C107 1.259 . S
Co103 O104 2.061 . S
Co103 O109 2.052 . S
Co103 O111 2.135 . S
O104 Co103 2.061 . S
O104 C107 1.235 . S
C105 O108 1.238 . S
C105 O109 1.241 . S
C106 O99 1.247 . S
C106 O100 1.261 . S
C107 O102 1.259 . S
C107 O104 1.235 . S
O108 Co98 2.021 . S
O108 C105 1.238 . S
O109 Co103 2.052 . S
O109 C105 1.241 . S
O110 Co98 2.137 . S
O110 C101 1.247 . S
O111 Co98 2.244 . S
O111 C101 1.272 . S
O111 Co103 2.135 . S
C112 C113 1.369 . S
C112 C114 1.419 1_554 S
C112 H116 0.930 . S
C113 C112 1.369 . S
C113 C122 1.429 . S
C114 C112 1.419 1_556 S
C114 C115 1.363 . S
C114 H117 0.929 . S
C115 C114 1.363 . S
C115 C121 1.428 . S
H116 C112 0.930 . S
H117 C114 0.929 . S
S118 N119 1.613 1_556 S
S118 N120 1.610 . S
N119 S118 1.613 1_554 S
N119 C122 1.350 . S
N120 S118 1.610 . S
N120 C121 1.351 . S
C121 C115 1.428 . S
C121 N120 1.351 . S
C121 C122 1.434 1_556 S
C122 C113 1.429 . S
C122 N119 1.350 . S
C122 C121 1.434 1_554 S
C123 C124 1.369 . S
C123 C125 1.419 . S
C123 H127 0.930 . S
C124 C123 1.369 . S
C124 C133 1.429 . S
C125 C123 1.419 . S
C125 C126 1.363 . S
C125 H128 0.929 . S
C126 C125 1.363 . S
C126 C132 1.428 . S
H127 C123 0.930 . S
H128 C125 0.929 . S
S129 N130 1.613 . S
S129 N131 1.610 . S
N130 S129 1.613 . S
N130 C133 1.350 . S
N131 S129 1.610 . S
N131 C132 1.351 . S
C132 C126 1.428 . S
C132 N131 1.351 . S
C132 C133 1.434 . S
C133 C124 1.429 . S
C133 N130 1.350 . S
C133 C132 1.434 . S
C134 C135 1.369 . S
C134 C136 1.419 1_554 S
C134 H138 0.930 . S
C135 C134 1.369 . S
C135 C144 1.429 . S
C136 C134 1.419 1_556 S
C136 C137 1.363 . S
C136 H139 0.929 . S
C137 C136 1.363 . S
C137 C143 1.428 . S
H138 C134 0.930 . S
H139 C136 0.929 . S
S140 N141 1.613 1_556 S
S140 N142 1.610 . S
N141 S140 1.613 1_554 S
N141 C144 1.350 . S
N142 S140 1.610 . S
N142 C143 1.351 . S
C143 C137 1.428 . S
C143 N142 1.351 . S
C143 C144 1.434 1_556 S
C144 C135 1.429 . S
C144 N141 1.350 . S
C144 C143 1.434 1_554 S
C145 C146 1.369 . S
C145 C147 1.419 . S
C145 H149 0.930 . S
C146 C145 1.369 . S
C146 C155 1.429 . S
C147 C145 1.419 . S
C147 C148 1.363 . S
C147 H150 0.929 . S
C148 C147 1.363 . S
C148 C154 1.428 . S
H149 C145 0.930 . S
H150 C147 0.929 . S
S151 N152 1.613 . S
S151 N153 1.610 . S
N152 S151 1.613 . S
N152 C155 1.350 . S
N153 S151 1.610 . S
N153 C154 1.351 . S
C154 C148 1.428 . S
C154 N153 1.351 . S
C154 C155 1.434 . S
C155 C146 1.429 . S
C155 N152 1.350 . S
C155 C154 1.434 . S
C156 C157 1.369 . S
C156 C158 1.419 . S
C156 H160 0.930 . S
C157 C156 1.369 . S
C157 C166 1.429 . S
C158 C156 1.419 . S
C158 C159 1.363 . S
C158 H161 0.929 . S
C159 C158 1.363 . S
C159 C165 1.428 . S
H160 C156 0.930 . S
H161 C158 0.929 . S
S162 N163 1.613 . S
S162 N164 1.610 . S
N163 S162 1.613 . S
N163 C166 1.350 . S
N164 S162 1.610 . S
N164 C165 1.351 . S
C165 C159 1.428 . S
C165 N164 1.351 . S
C165 C166 1.434 . S
C166 C157 1.429 . S
C166 N163 1.350 . S
C166 C165 1.434 . S
C167 C168 1.369 . S
C167 C169 1.419 . S
C167 H171 0.930 . S
C168 C167 1.369 . S
C168 C177 1.429 . S
C169 C167 1.419 . S
C169 C170 1.363 1_565 S
C169 H172 0.929 . S
C170 C169 1.363 1_545 S
C170 C176 1.428 . S
H171 C167 0.930 . S
H172 C169 0.929 . S
S173 N174 1.613 1_545 S
S173 N175 1.610 . S
N174 S173 1.613 1_565 S
N174 C177 1.350 . S
N175 S173 1.610 . S
N175 C176 1.351 . S
C176 C170 1.428 . S
C176 N175 1.351 . S
C176 C177 1.434 1_545 S
C177 C168 1.429 . S
C177 N174 1.350 . S
C177 C176 1.434 1_565 S
C178 C179 1.369 . S
C178 C180 1.419 . S
C178 H182 0.930 . S
C179 C178 1.369 . S
C179 C188 1.429 . S
C180 C178 1.419 . S
C180 C181 1.363 . S
C180 H183 0.929 . S
C181 C180 1.363 . S
C181 C187 1.428 . S
H182 C178 0.930 . S
H183 C180 0.929 . S
S184 N185 1.613 . S
S184 N186 1.610 . S
N185 S184 1.613 . S
N185 C188 1.350 . S
N186 S184 1.610 . S
N186 C187 1.351 . S
C187 C181 1.428 . S
C187 N186 1.351 . S
C187 C188 1.434 . S
C188 C179 1.429 . S
C188 N185 1.350 . S
C188 C187 1.434 . S
C189 C190 1.369 . S
C189 C191 1.419 . S
C189 H193 0.930 . S
C190 C189 1.369 . S
C190 C199 1.429 . S
C191 C189 1.419 . S
C191 C192 1.363 1_545 S
C191 H194 0.929 . S
C192 C191 1.363 1_565 S
C192 C198 1.429 . S
H193 C189 0.930 . S
H194 C191 0.929 . S
S195 N196 1.613 1_565 S
S195 N197 1.610 . S
N196 S195 1.613 1_545 S
N196 C199 1.350 . S
N197 S195 1.610 . S
N197 C198 1.357 . S
C198 C192 1.429 . S
C198 N197 1.357 . S
C198 C199 1.428 1_565 S
C199 C190 1.429 . S
C199 N196 1.350 . S
C199 C198 1.428 1_545 S
C200 C201 1.369 . S
C200 C202 1.419 . S
C200 H204 0.930 . S
C201 C200 1.369 . S
C201 C210 1.429 . S
C202 C200 1.419 . S
C202 C203 1.363 1_655 S
C202 H205 0.929 1_655 S
C203 C202 1.363 1_455 S
C203 C209 1.428 1_455 S
H204 C200 0.930 . S
H205 C202 0.929 1_455 S
S206 N207 1.613 . S
S206 N208 1.610 . S
N207 S206 1.613 . S
N207 C210 1.350 . S
N208 S206 1.610 . S
N208 C209 1.351 . S
C209 C203 1.428 1_655 S
C209 N208 1.351 . S
C209 C210 1.434 . S
C210 C201 1.429 . S
C210 N207 1.350 . S
C210 C209 1.434 . S
C211 C212 1.369 . S
C211 C213 1.419 . S
C211 H215 0.930 . S
C212 C211 1.369 . S
C212 C221 1.429 . S
C213 C211 1.419 . S
C213 C214 1.363 . S
C213 H216 0.929 . S
C214 C213 1.363 . S
C214 C220 1.428 . S
H215 C211 0.930 . S
H216 C213 0.929 . S
S217 N218 1.613 . S
S217 N219 1.610 . S
N218 S217 1.613 . S
N218 C221 1.350 . S
N219 S217 1.610 . S
N219 C220 1.351 . S
C220 C214 1.428 . S
C220 N219 1.351 . S
C220 C221 1.434 . S
C221 C212 1.429 . S
C221 N218 1.350 . S
C221 C220 1.434 . S
C222 C223 1.369 . S
C222 C224 1.419 . S
C222 H226 0.930 . S
C223 C222 1.369 . S
C223 C232 1.429 . S
C224 C222 1.419 . S
C224 C225 1.363 1_455 S
C224 H227 0.929 1_455 S
C225 C224 1.363 1_655 S
C225 C231 1.428 1_655 S
H226 C222 0.930 . S
H227 C224 0.929 1_655 S
S228 N229 1.613 . S
S228 N230 1.610 . S
N229 S228 1.613 . S
N229 C232 1.350 . S
N230 S228 1.610 . S
N230 C231 1.351 . S
C231 C225 1.428 1_455 S
C231 N230 1.351 . S
C231 C232 1.434 . S
C232 C223 1.429 . S
C232 N229 1.350 . S
C232 C231 1.434 . S
C233 C234 1.369 . S
C233 C235 1.419 . S
C233 H237 0.930 . S
C234 C233 1.369 . S
C234 C243 1.429 . S
C235 C233 1.419 . S
C235 C236 1.363 . S
C235 H238 0.929 . S
C236 C235 1.363 . S
C236 C242 1.428 . S
H237 C233 0.930 . S
H238 C235 0.929 . S
S239 N240 1.613 . S
S239 N241 1.610 . S
N240 S239 1.613 . S
N240 C243 1.350 . S
N241 S239 1.610 . S
N241 C242 1.351 . S
C242 C236 1.428 . S
C242 N241 1.351 . S
C242 C243 1.434 . S
C243 C234 1.429 . S
C243 N240 1.350 . S
C243 C242 1.434 . S
C244 C245 1.369 . S
C244 C246 1.419 1_655 S
C244 H248 0.930 . S
C245 C244 1.369 . S
C245 C254 1.429 . S
C246 C244 1.419 1_455 S
C246 C247 1.363 . S
C246 H249 0.929 . S
C247 C246 1.363 . S
C247 C253 1.428 . S
H248 C244 0.930 . S
H249 C246 0.929 . S
S250 N251 1.613 . S
S250 N252 1.610 1_655 S
N251 S250 1.613 . S
N251 C254 1.350 . S
N252 S250 1.610 1_455 S
N252 C253 1.351 . S
C253 C247 1.428 . S
C253 N252 1.351 . S
C253 C254 1.434 1_455 S
C254 C245 1.429 . S
C254 N251 1.350 . S
C254 C253 1.434 1_655 S
C255 C256 1.369 . S
C255 C257 1.415 1_655 S
C255 H259 0.930 . S
C256 C255 1.369 . S
C256 C265 1.429 . S
C257 C255 1.415 1_455 S
C257 C258 1.367 . S
C257 H260 0.929 1_455 S
C258 C257 1.367 . S
C258 C264 1.428 . S
H259 C255 0.930 . S
H260 C257 0.929 1_655 S
S261 N262 1.610 1_455 S
S261 N263 1.610 . S
N262 S261 1.610 1_655 S
N262 C265 1.350 . S
N263 S261 1.610 . S
N263 C264 1.351 . S
C264 C258 1.428 . S
C264 N263 1.351 . S
C264 C265 1.434 1_455 S
C265 C256 1.429 . S
C265 N262 1.350 . S
C265 C264 1.434 1_655 S
C266 C267 1.369 1_565 S
C266 C268 1.419 . S
C266 H270 0.930 . S
C267 C266 1.369 1_545 S
C267 C276 1.429 . S
C268 C266 1.419 . S
C268 C269 1.363 . S
C268 H271 0.929 . S
C269 C268 1.363 . S
C269 C275 1.428 1_565 S
H270 C266 0.930 . S
H271 C268 0.929 . S
S272 N273 1.613 . S
S272 N274 1.610 . S
N273 S272 1.613 . S
N273 C276 1.350 . S
N274 S272 1.610 . S
N274 C275 1.351 . S
C275 C269 1.428 1_545 S
C275 N274 1.351 . S
C275 C276 1.434 . S
C276 C267 1.429 . S
C276 N273 1.350 . S
C276 C275 1.434 . S
C277 C278 1.369 . S
C277 C279 1.419 1_545 S
C277 H281 0.930 . S
C278 C277 1.369 . S
C278 C287 1.429 . S
C279 C277 1.419 1_565 S
C279 C280 1.363 . S
C279 H282 0.929 . S
C280 C279 1.363 . S
C280 C286 1.428 . S
H281 C277 0.930 . S
H282 C279 0.929 . S
S283 N284 1.613 . S
S283 N285 1.610 1_545 S
N284 S283 1.613 . S
N284 C287 1.350 . S
N285 S283 1.610 1_565 S
N285 C286 1.351 . S
C286 C280 1.428 . S
C286 N285 1.351 . S
C286 C287 1.434 1_565 S
C287 C278 1.429 . S
C287 N284 1.350 . S
C287 C286 1.434 1_545 S
C113 C7 1.348 . S
C115 C77 1.350 . S
C124 C21 1.344 . S
C126 C91 1.346 . S
C135 C35 1.343 . S
C137 C105 1.350 . S
C146 C63 1.343 . S
C148 C49 1.347 . S
C157 C8 1.640 . S
C159 C59 1.608 . S
C168 C22 1.641 . S
C170 C73 1.607 . S
C179 C87 1.606 . S
C181 C36 1.640 . S
C190 C50 1.642 . S
C192 C101 1.605 . S
C201 C64 1.638 . S
C203 C3 1.610 . S
C212 C17 1.610 . S
C214 C78 1.639 . S
C223 C92 1.640 . S
C225 C31 1.605 . S
C234 C45 1.603 . S
C236 C106 1.642 . S
C245 C37 0.866 . S
C247 C9 0.848 . S
C256 C51 0.852 . S
C258 C23 0.854 . S
C267 C65 0.843 . S
C269 C93 0.864 . S
C278 C79 0.862 . S
C280 C107 0.847 . S
