# Generated by pormake.
# Topology wfa, (4)-cn, num edge types: 1
# Building blocks:
#     Node 0, Type 0, BuildingBlock: CEKHIL_clean_sbu_0, # of connection points: 4
#     Node 1, Type 0, BuildingBlock: CEKHIL_clean_sbu_0, # of connection points: 4
#     Node 2, Type 0, BuildingBlock: CEKHIL_clean_sbu_0, # of connection points: 4
#     Node 3, Type 0, BuildingBlock: CEKHIL_clean_sbu_0, # of connection points: 4
#     Node 4, Type 0, BuildingBlock: CEKHIL_clean_sbu_0, # of connection points: 4
#     Node 5, Type 0, BuildingBlock: CEKHIL_clean_sbu_0, # of connection points: 4
#     Node 6, Type 0, BuildingBlock: CEKHIL_clean_sbu_0, # of connection points: 4
#     Node 7, Type 0, BuildingBlock: CEKHIL_clean_sbu_0, # of connection points: 4
#     Node 8, Type 0, BuildingBlock: CEKHIL_clean_sbu_0, # of connection points: 4
#     Node 9, Type 0, BuildingBlock: CEKHIL_clean_sbu_0, # of connection points: 4
#     Node 10, Type 0, BuildingBlock: CEKHIL_clean_sbu_0, # of connection points: 4
#     Node 11, Type 0, BuildingBlock: CEKHIL_clean_sbu_0, # of connection points: 4
#     Node 12, Type 0, BuildingBlock: CEKHIL_clean_sbu_0, # of connection points: 4
#     Node 13, Type 0, BuildingBlock: CEKHIL_clean_sbu_0, # of connection points: 4
#     Node 14, Type 0, BuildingBlock: CEKHIL_clean_sbu_0, # of connection points: 4
#     Node 15, Type 0, BuildingBlock: CEKHIL_clean_sbu_0, # of connection points: 4
#     Edge 16, Type (0, 0), BuildingBlock: UVAHIK_clean_linker_0, # of connection points: 2
#     Edge 17, Type (0, 0), BuildingBlock: UVAHIK_clean_linker_0, # of connection points: 2
#     Edge 18, Type (0, 0), BuildingBlock: UVAHIK_clean_linker_0, # of connection points: 2
#     Edge 19, Type (0, 0), BuildingBlock: UVAHIK_clean_linker_0, # of connection points: 2
#     Edge 20, Type (0, 0), BuildingBlock: UVAHIK_clean_linker_0, # of connection points: 2
#     Edge 21, Type (0, 0), BuildingBlock: UVAHIK_clean_linker_0, # of connection points: 2
#     Edge 22, Type (0, 0), BuildingBlock: UVAHIK_clean_linker_0, # of connection points: 2
#     Edge 23, Type (0, 0), BuildingBlock: UVAHIK_clean_linker_0, # of connection points: 2
#     Edge 24, Type (0, 0), BuildingBlock: UVAHIK_clean_linker_0, # of connection points: 2
#     Edge 25, Type (0, 0), BuildingBlock: UVAHIK_clean_linker_0, # of connection points: 2
#     Edge 26, Type (0, 0), BuildingBlock: UVAHIK_clean_linker_0, # of connection points: 2
#     Edge 27, Type (0, 0), BuildingBlock: UVAHIK_clean_linker_0, # of connection points: 2
#     Edge 28, Type (0, 0), BuildingBlock: UVAHIK_clean_linker_0, # of connection points: 2
#     Edge 29, Type (0, 0), BuildingBlock: UVAHIK_clean_linker_0, # of connection points: 2
#     Edge 30, Type (0, 0), BuildingBlock: UVAHIK_clean_linker_0, # of connection points: 2
#     Edge 31, Type (0, 0), BuildingBlock: UVAHIK_clean_linker_0, # of connection points: 2
#     Edge 32, Type (0, 0), BuildingBlock: UVAHIK_clean_linker_0, # of connection points: 2
#     Edge 33, Type (0, 0), BuildingBlock: UVAHIK_clean_linker_0, # of connection points: 2
#     Edge 34, Type (0, 0), BuildingBlock: UVAHIK_clean_linker_0, # of connection points: 2
#     Edge 35, Type (0, 0), BuildingBlock: UVAHIK_clean_linker_0, # of connection points: 2
#     Edge 36, Type (0, 0), BuildingBlock: UVAHIK_clean_linker_0, # of connection points: 2
#     Edge 37, Type (0, 0), BuildingBlock: UVAHIK_clean_linker_0, # of connection points: 2
#     Edge 38, Type (0, 0), BuildingBlock: UVAHIK_clean_linker_0, # of connection points: 2
#     Edge 39, Type (0, 0), BuildingBlock: UVAHIK_clean_linker_0, # of connection points: 2
#     Edge 40, Type (0, 0), BuildingBlock: UVAHIK_clean_linker_0, # of connection points: 2
#     Edge 41, Type (0, 0), BuildingBlock: UVAHIK_clean_linker_0, # of connection points: 2
#     Edge 42, Type (0, 0), BuildingBlock: UVAHIK_clean_linker_0, # of connection points: 2
#     Edge 43, Type (0, 0), BuildingBlock: UVAHIK_clean_linker_0, # of connection points: 2
#     Edge 44, Type (0, 0), BuildingBlock: UVAHIK_clean_linker_0, # of connection points: 2
#     Edge 45, Type (0, 0), BuildingBlock: UVAHIK_clean_linker_0, # of connection points: 2
#     Edge 46, Type (0, 0), BuildingBlock: UVAHIK_clean_linker_0, # of connection points: 2
#     Edge 47, Type (0, 0), BuildingBlock: UVAHIK_clean_linker_0, # of connection points: 2
# Relax obj value: 0.214
# Max RMSD: 0.273
# Mean RMSD: 0.267
data_MOF--net-wfa--node1-CEKHIL_clean_sbu_0--edge1-UVAHIK_clean_linker_0
_symmetry_space_group_name_H-M    P1
_symmetry_Int_Tables_number       1
_symmetry_cell_setting            triclinic
loop_
_symmetry_equiv_pos_as_xyz
'x, y, z'
_cell_length_a     58.98092
_cell_length_b     58.961129
_cell_length_c     30.585981
_cell_angle_alpha  89.714026
_cell_angle_beta   89.744059
_cell_angle_gamma 89.570737
loop_
_atom_site_label
_atom_site_type_symbol
_atom_site_fract_x
_atom_site_fract_y
_atom_site_fract_z
_atom_type_partial_charge
Co0 Co 0.65338 0.97852 0.04231 0.0
O1 O 0.66997 0.95801 0.00534 0.0
O2 O 0.67931 0.9938 0.01742 0.0
C3 C 0.61844 0.97143 0.01649 0.0
O4 O 0.63985 0.00461 0.07747 0.0
Co5 Co 0.61862 0.95883 0.10918 0.0
O6 O 0.60851 0.99105 0.11062 0.0
C7 C 0.6673 0.9577 0.13021 0.0
C8 C 0.68348 0.9748 0.99732 0.0
C9 C 0.62127 0.0074 0.09907 0.0
O10 O 0.67165 0.96873 0.09477 0.0
O11 O 0.64748 0.95058 0.14029 0.0
O12 O 0.63195 0.98499 0.99556 0.0
O13 O 0.6276 0.9603 0.04848 0.0
Co14 Co 0.51872 0.65423 0.04331 0.0
O15 O 0.54069 0.66753 0.00449 0.0
O16 O 0.50697 0.6824 0.01923 0.0
C17 C 0.52091 0.61862 0.01671 0.0
O18 O 0.49148 0.64478 0.0804 0.0
Co19 Co 0.53351 0.61604 0.10831 0.0
O20 O 0.50027 0.61115 0.11148 0.0
C21 C 0.54155 0.66407 0.13081 0.0
C22 C 0.52592 0.68351 0.99734 0.0
C23 C 0.48602 0.62672 0.10174 0.0
O24 O 0.53177 0.67063 0.09527 0.0
O25 O 0.54517 0.64317 0.14027 0.0
O26 O 0.50872 0.63395 0.99702 0.0
O27 O 0.53333 0.62598 0.04821 0.0
Co28 Co 0.84747 0.51869 0.04544 0.0
O29 O 0.83399 0.54055 0.00633 0.0
O30 O 0.81957 0.50688 0.02174 0.0
C31 C 0.88315 0.52077 0.0187 0.0
O32 O 0.85702 0.49154 0.08283 0.0
Co33 Co 0.88523 0.53337 0.11021 0.0
O34 O 0.89026 0.50009 0.11443 0.0
C35 C 0.83701 0.54163 0.13284 0.0
C36 C 0.81824 0.52574 0.99956 0.0
C37 C 0.87483 0.48597 0.10469 0.0
O38 O 0.83069 0.5319 0.0973 0.0
O39 O 0.85784 0.54515 0.14222 0.0
O40 O 0.86807 0.50853 0.99923 0.0
O41 O 0.87552 0.53326 0.05014 0.0
Co42 Co 0.98318 0.84521 0.03575 0.0
O43 O 0.96277 0.82811 0.0004 0.0
O44 O 0.9988 0.819 0.01211 0.0
C45 C 0.97524 0.87974 0.00767 0.0
O46 O 0.0091 0.85935 0.0698 0.0
Co47 Co 0.96287 0.88071 0.10047 0.0
O48 O 0.9949 0.89089 0.10136 0.0
C49 C 0.9634 0.83234 0.1251 0.0
C50 C 0.97973 0.81455 0.9928 0.0
C51 C 0.01152 0.87808 0.09068 0.0
O52 O 0.97411 0.82758 0.08953 0.0
O53 O 0.95586 0.85222 0.13408 0.0
O54 O 0.989 0.86604 0.98749 0.0
O55 O 0.96445 0.87095 0.04043 0.0
Co56 Co 0.15533 0.01974 0.46165 0.0
O57 O 0.17019 0.0409 0.49919 0.0
O58 O 0.18321 0.00652 0.48375 0.0
C59 C 0.12026 0.0235 0.49056 0.0
O60 O 0.14401 0.99319 0.4254 0.0
Co61 Co 0.11726 0.03703 0.39913 0.0
O62 O 0.11044 0.00413 0.39709 0.0
C63 C 0.16528 0.04233 0.37331 0.0
C64 C 0.18555 0.02536 0.50525 0.0
C65 C 0.12527 0.98894 0.40576 0.0
O66 O 0.17166 0.03211 0.40856 0.0
O67 O 0.14452 0.04719 0.36504 0.0
O68 O 0.13525 0.01056 0.50939 0.0
O69 O 0.12782 0.03575 0.45863 0.0
Co70 Co 0.47345 0.15297 0.46551 0.0
O71 O 0.45275 0.16911 0.50305 0.0
O72 O 0.48774 0.18005 0.48731 0.0
C73 C 0.46867 0.11804 0.49452 0.0
O74 O 0.49965 0.14024 0.4292 0.0
Co75 Co 0.45491 0.11586 0.40319 0.0
O76 O 0.48751 0.10741 0.40048 0.0
C77 C 0.45169 0.16407 0.37703 0.0
C78 C 0.46896 0.18353 0.50884 0.0
C79 C 0.50323 0.12138 0.40923 0.0
O80 O 0.4619 0.16989 0.41237 0.0
O81 O 0.44609 0.14359 0.36877 0.0
O82 O 0.48181 0.13259 0.51328 0.0
O83 O 0.45656 0.12612 0.46284 0.0
Co84 Co 0.34771 0.47947 0.44922 0.0
O85 O 0.33477 0.45688 0.48712 0.0
O86 O 0.31958 0.49069 0.47424 0.0
C87 C 0.38342 0.47716 0.47515 0.0
O88 O 0.35686 0.50728 0.41346 0.0
Co89 Co 0.38542 0.46568 0.38265 0.0
O90 O 0.39036 0.49896 0.38154 0.0
C91 C 0.33738 0.45759 0.36093 0.0
C92 C 0.31872 0.47144 0.49523 0.0
C93 C 0.37487 0.51308 0.39235 0.0
O94 O 0.3311 0.46705 0.39696 0.0
O95 O 0.3582 0.45411 0.35075 0.0
O96 O 0.36808 0.48894 0.49568 0.0
O97 O 0.37603 0.46511 0.44312 0.0
Co98 Co 0.01354 0.34327 0.45635 0.0
O99 O 0.03666 0.33012 0.49256 0.0
O100 O 0.0028 0.3152 0.4822 0.0
C101 C 0.01624 0.37882 0.48247 0.0
O102 O 0.98533 0.35283 0.42227 0.0
Co103 Co 0.02652 0.38115 0.3895 0.0
O104 O 0.99324 0.38645 0.3906 0.0
C105 C 0.03421 0.333 0.3666 0.0
C106 C 0.02233 0.31423 0.50187 0.0
C107 C 0.97929 0.37102 0.40174 0.0
O108 O 0.02532 0.32665 0.40319 0.0
O109 O 0.03755 0.35384 0.35654 0.0
O110 O 0.00459 0.36368 0.50356 0.0
O111 O 0.02782 0.37133 0.44959 0.0
Co112 Co 0.34514 0.01725 0.96103 0.0
O113 O 0.33033 0.03925 0.99757 0.0
O114 O 0.31714 0.00496 0.98392 0.0
C115 C 0.38019 0.02058 0.98948 0.0
O116 O 0.35635 0.98992 0.92624 0.0
Co117 Co 0.38349 0.03273 0.89733 0.0
O118 O 0.3901 -0.00034 0.89721 0.0
C119 C 0.33559 0.03896 0.87171 0.0
C120 C 0.31487 0.02412 0.00452 0.0
C121 C 0.37516 0.98494 0.90691 0.0
O122 O 0.32905 0.02926 0.90741 0.0
O123 O 0.35641 0.04322 0.86309 0.0
O124 O 0.36503 0.00829 0.0091 0.0
O125 O 0.3728 0.03257 0.95698 0.0
Co126 Co 0.4771 0.34496 0.96328 0.0
O127 O 0.45592 0.33034 0.00174 0.0
O128 O 0.49073 0.31785 0.98831 0.0
C129 C 0.4723 0.38055 0.98861 0.0
O130 O 0.50364 0.35639 0.92643 0.0
Co131 Co 0.45864 0.38076 0.89668 0.0
O132 O 0.49133 0.38852 0.89364 0.0
C133 C 0.4548 0.33216 0.87654 0.0
C134 C 0.4717 0.31546 0.00953 0.0
C135 C 0.50713 0.37473 0.90442 0.0
O136 O 0.46579 0.32717 0.91164 0.0
O137 O 0.44868 0.35239 0.86644 0.0
O138 O 0.48527 0.36621 0.00917 0.0
O139 O 0.46042 0.372 0.95742 0.0
Co140 Co 0.15728 0.47446 0.94879 0.0
O141 O 0.17118 0.45288 0.98791 0.0
O142 O 0.18504 0.48674 0.9721 0.0
C143 C 0.1217 0.472 0.9759 0.0
O144 O 0.14721 0.50142 0.91146 0.0
Co145 Co 0.11962 0.45903 0.88446 0.0
O146 O 0.11391 0.49221 0.88068 0.0
C147 C 0.16788 0.45158 0.86136 0.0
C148 C 0.18669 0.46797 0.99447 0.0
C149 C 0.1291 0.50661 0.8902 0.0
O150 O 0.1741 0.46142 0.89684 0.0
O151 O 0.14709 0.44771 0.85214 0.0
O152 O 0.13669 0.48443 0.99516 0.0
O153 O 0.1294 0.4595 0.94451 0.0
Co154 Co 0.01855 0.15463 0.9507 0.0
O155 O 0.03777 0.16704 0.99476 0.0
O156 O 0.00532 0.18247 0.97329 0.0
C157 C 0.01876 0.11853 0.97551 0.0
O158 O 0.99431 0.14587 0.90659 0.0
Co159 Co 0.04 0.11819 0.88865 0.0
O160 O 0.00862 0.11718 0.86598 0.0
C161 C 0.04738 0.16669 0.87017 0.0
C162 C 0.02283 0.18312 0.99906 0.0
C163 C 0.99269 0.13098 0.87608 0.0
O164 O 0.0348 0.17211 0.9031 0.0
O165 O 0.05298 0.1462 0.8613 0.0
O166 O 0.00539 0.13355 0.99306 0.0
O167 O 0.03346 0.12649 0.94818 0.0
Co168 Co 0.84597 0.98176 0.54231 0.0
O169 O 0.83175 0.96064 0.50355 0.0
O170 O 0.81938 0.99557 0.51655 0.0
C171 C 0.88186 0.97706 0.51831 0.0
O172 O 0.85648 0.00835 0.57909 0.0
Co173 Co 0.88124 0.9644 0.61059 0.0
O174 O 0.88799 0.99729 0.61499 0.0
C175 C 0.83237 0.95942 0.6288 0.0
C176 C 0.81708 0.97661 0.49549 0.0
C177 C 0.8739 0.01253 0.60282 0.0
O178 O 0.8276 0.97028 0.59337 0.0
O179 O 0.85259 0.95378 0.63972 0.0
O180 O 0.8678 0.99005 0.49709 0.0
O181 O 0.873 0.96522 0.54959 0.0
Co182 Co 0.52382 0.84544 0.5405 0.0
O183 O 0.54534 0.83118 0.50195 0.0
O184 O 0.51111 0.81795 0.5167 0.0
C185 C 0.52706 0.88105 0.51375 0.0
O186 O 0.49695 0.85628 0.57733 0.0
Co187 Co 0.54054 0.88225 0.60539 0.0
O188 O 0.50759 0.88929 0.60751 0.0
C189 C 0.54588 0.83382 0.62857 0.0
C190 C 0.53002 0.81598 0.49488 0.0
C191 C 0.49249 0.87479 0.59793 0.0
O192 O 0.53606 0.82815 0.59272 0.0
O193 O 0.55053 0.85439 0.63817 0.0
O194 O 0.51458 0.86628 0.494 0.0
O195 O 0.53939 0.87298 0.54509 0.0
Co196 Co 0.65595 0.52238 0.54524 0.0
O197 O 0.67047 0.54409 0.50769 0.0
O198 O 0.68354 0.50945 0.52089 0.0
C199 C 0.62061 0.52674 0.51825 0.0
O200 O 0.64475 0.49525 0.58084 0.0
Co201 Co 0.61877 0.53896 0.61061 0.0
O202 O 0.61151 0.50615 0.61101 0.0
C203 C 0.66706 0.54357 0.63391 0.0
C204 C 0.68563 0.52858 0.49983 0.0
C205 C 0.62602 0.4909 0.60089 0.0
O206 O 0.67293 0.53378 0.59796 0.0
O207 O 0.64644 0.54847 0.64354 0.0
O208 O 0.63542 0.51409 0.49821 0.0
O209 O 0.62848 0.53845 0.55034 0.0
Co210 Co 0.98225 0.65397 0.54215 0.0
O211 O 0.9643 0.66981 0.49958 0.0
O212 O 0.999 0.67961 0.51937 0.0
C213 C 0.97688 0.61856 0.51727 0.0
O214 O 0.0056 0.64118 0.58484 0.0
Co215 Co 0.95681 0.62103 0.60551 0.0
O216 O 0.98805 0.61466 0.62605 0.0
C217 C 0.95604 0.66995 0.62336 0.0
C218 C 0.9813 0.68344 0.49506 0.0
C219 C 0.00561 0.62594 0.61521 0.0
O220 O 0.96931 0.67326 0.59048 0.0
O221 O 0.94748 0.65062 0.63266 0.0
O222 O 0.99175 0.63169 0.49893 0.0
O223 O 0.96367 0.62833 0.54539 0.0
C224 C 0.53387 0.09419 0.39116 0.0
C225 C 0.52554 0.1165 0.38982 0.0
C226 C 0.55034 0.08712 0.36133 0.0
C227 C 0.58875 0.10275 0.27036 0.0
H228 H 0.56119 0.05015 0.21727 0.0
C229 C 0.59287 0.03749 0.11321 0.0
C230 C 0.61533 0.02981 0.11652 0.0
C231 C 0.58478 0.05431 0.14119 0.0
C232 C 0.56899 0.06503 0.23118 0.0
H233 H 0.52932 0.14958 0.35974 0.0
H234 H 0.55795 0.13704 0.30655 0.0
H235 H 0.54445 0.06631 0.28233 0.0
H236 H 0.64761 0.03491 0.14821 0.0
H237 H 0.63324 0.06394 0.19844 0.0
H238 H 0.61346 0.10111 0.21843 0.0
C239 C 0.55201 0.12513 0.33104 0.0
C240 C 0.55962 0.07404 0.26906 0.0
C241 C 0.53568 0.13231 0.36149 0.0
C242 C 0.63024 0.04078 0.14497 0.0
C243 C 0.62201 0.05738 0.17369 0.0
C244 C 0.59838 0.0935 0.23225 0.0
C245 C 0.55838 0.10214 0.32905 0.0
C246 C 0.56944 0.09283 0.28937 0.0
C247 C 0.59885 0.06321 0.17381 0.0
C248 C 0.58847 0.07457 0.21225 0.0
H249 H 0.52632 0.08176 0.41292 0.0
H250 H 0.55534 0.0694 0.36106 0.0
H251 H 0.59652 0.11738 0.28526 0.0
H252 H 0.58114 0.02926 0.09133 0.0
H253 H 0.56697 0.0589 0.13985 0.0
C254 C 0.39856 0.54612 0.37218 0.0
C255 C 0.37702 0.53631 0.37498 0.0
C256 C 0.40207 0.56529 0.34624 0.0
C257 C 0.38209 0.58604 0.24324 0.0
H258 H 0.42931 0.63038 0.26122 0.0
C259 C 0.45312 0.6032 0.12348 0.0
C260 C 0.46315 0.62465 0.12076 0.0
C261 C 0.43442 0.59966 0.15061 0.0
C262 C 0.41565 0.61858 0.25563 0.0
H263 H 0.34186 0.53965 0.35569 0.0
H264 H 0.34811 0.5731 0.30921 0.0
H265 H 0.41141 0.61222 0.32421 0.0
H266 H 0.46073 0.65961 0.14177 0.0
H267 H 0.42813 0.65328 0.19038 0.0
H268 H 0.38757 0.59114 0.1746 0.0
C269 C 0.36221 0.56605 0.32748 0.0
C270 C 0.40551 0.60807 0.29174 0.0
C271 C 0.35862 0.54703 0.35421 0.0
C272 C 0.45314 0.64294 0.1431 0.0
C273 C 0.43462 0.6393 0.17105 0.0
C274 C 0.39233 0.59644 0.20714 0.0
C275 C 0.38417 0.57481 0.32195 0.0
C276 C 0.38951 0.59082 0.28581 0.0
C277 C 0.42561 0.61742 0.17623 0.0
C278 C 0.41006 0.61191 0.21297 0.0
H279 H 0.413 0.53814 0.38797 0.0
H280 H 0.41923 0.57145 0.34239 0.0
H281 H 0.36988 0.57276 0.23754 0.0
H282 H 0.46059 0.58884 0.10657 0.0
H283 H 0.42807 0.58255 0.1542 0.0
C284 C 0.85762 0.45303 0.14404 0.0
C285 C 0.87661 0.46317 0.12437 0.0
C286 C 0.86039 0.43435 0.17207 0.0
C287 C 0.90202 0.39141 0.21188 0.0
H288 H 0.88146 0.40899 0.32754 0.0
C289 C 0.94624 0.3552 0.36181 0.0
C290 C 0.95613 0.37326 0.38441 0.0
C291 C 0.9279 0.35925 0.33379 0.0
C292 C 0.88694 0.40351 0.2954 0.0
H293 H 0.91295 0.46069 0.11508 0.0
H294 H 0.91776 0.4279 0.16289 0.0
H295 H 0.86582 0.42804 0.26325 0.0
H296 H 0.95333 0.40899 0.39951 0.0
H297 H 0.92117 0.41599 0.35172 0.0
H298 H 0.92448 0.36821 0.24409 0.0
C299 C 0.90077 0.4343 0.15713 0.0
C300 C 0.87788 0.41431 0.25854 0.0
C301 C 0.89806 0.45316 0.12994 0.0
C302 C 0.94596 0.39481 0.38237 0.0
C303 C 0.92745 0.39876 0.3551 0.0
C304 C 0.91095 0.3805 0.2487 0.0
C305 C 0.88213 0.42529 0.17996 0.0
C306 C 0.88628 0.40924 0.2166 0.0
C307 C 0.91901 0.38131 0.32872 0.0
C308 C 0.90443 0.38736 0.29092 0.0
H309 H 0.84092 0.46056 0.14049 0.0
H310 H 0.84576 0.42771 0.18923 0.0
H311 H 0.90864 0.38704 0.17989 0.0
H312 H 0.95393 0.33846 0.36263 0.0
H313 H 0.92165 0.34547 0.314 0.0
C314 C 0.03981 0.90684 0.11113 0.0
C315 C 0.03366 0.88395 0.10921 0.0
C316 C 0.05612 0.9139 0.14081 0.0
C317 C 0.09814 0.89785 0.22477 0.0
H318 H 0.06672 0.9449 0.28992 0.0
C319 C 0.13657 0.95824 0.35465 0.0
C320 C 0.1215 0.96655 0.38651 0.0
C321 C 0.1293 0.94204 0.32454 0.0
C322 C 0.07564 0.93153 0.27261 0.0
H323 H 0.04126 0.85012 0.13311 0.0
H324 H 0.06967 0.86259 0.18594 0.0
H325 H 0.04988 0.93013 0.22419 0.0
H326 H 0.08834 0.96267 0.41592 0.0
H327 H 0.07598 0.93367 0.36487 0.0
H328 H 0.1241 0.89965 0.27387 0.0
C329 C 0.06208 0.875 0.16414 0.0
C330 C 0.06616 0.92336 0.23439 0.0
C331 C 0.04587 0.86786 0.13387 0.0
C332 C 0.1002 0.95648 0.39148 0.0
C333 C 0.0931 0.94005 0.36204 0.0
C334 C 0.10786 0.90629 0.26321 0.0
C335 C 0.06626 0.89824 0.16963 0.0
C336 C 0.07733 0.90663 0.20976 0.0
C337 C 0.10695 0.93392 0.32639 0.0
C338 C 0.09661 0.92321 0.28753 0.0
H339 H 0.0307 0.91952 0.0922 0.0
H340 H 0.0594 0.93189 0.1438 0.0
H341 H 0.10698 0.8848 0.20647 0.0
H342 H 0.15302 0.966 0.35004 0.0
H343 H 0.14035 0.93764 0.29746 0.0
C344 C 0.40009 0.95161 0.8961 0.0
C345 C 0.37897 0.96208 0.88954 0.0
C346 C 0.40745 0.93442 0.86821 0.0
C347 C 0.39406 0.8994 0.7708 0.0
H348 H 0.45198 0.92279 0.7313 0.0
C349 C 0.45966 0.86205 0.64315 0.0
C350 C 0.46985 0.87872 0.61678 0.0
C351 C 0.44285 0.86821 0.67351 0.0
C352 C 0.43578 0.91608 0.74185 0.0
H353 H 0.34797 0.96152 0.85201 0.0
H354 H 0.36113 0.93183 0.80207 0.0
H355 H 0.4346 0.9381 0.79664 0.0
H356 H 0.46868 0.91399 0.59689 0.0
H357 H 0.4391 0.92461 0.64899 0.0
H358 H 0.39559 0.87745 0.71466 0.0
C359 C 0.37182 0.93649 0.82925 0.0
C360 C 0.42597 0.92459 0.77974 0.0
C361 C 0.36427 0.95347 0.85782 0.0
C362 C 0.46111 0.9009 0.61712 0.0
C363 C 0.44426 0.90696 0.64695 0.0
C364 C 0.40416 0.89058 0.73274 0.0
C365 C 0.39406 0.92792 0.83252 0.0
C366 C 0.40494 0.91653 0.79462 0.0
C367 C 0.43611 0.89102 0.67732 0.0
C368 C 0.42491 0.89925 0.71763 0.0
H369 H 0.41166 0.95803 0.92046 0.0
H370 H 0.42449 0.92774 0.87207 0.0
H371 H 0.37778 0.89298 0.78145 0.0
H372 H 0.4663 0.84487 0.64361 0.0
H373 H 0.43682 0.85566 0.69669 0.0
C374 C 0.63643 0.45829 0.64881 0.0
C375 C 0.62162 0.46806 0.61811 0.0
C376 C 0.62863 0.44136 0.6774 0.0
C377 C 0.57509 0.43163 0.73018 0.0
H378 H 0.60301 0.37962 0.78716 0.0
C379 C 0.53785 0.40173 0.88819 0.0
C380 C 0.52969 0.3795 0.88618 0.0
C381 C 0.55471 0.40891 0.85937 0.0
C382 C 0.59513 0.39415 0.77145 0.0
H383 H 0.58832 0.46618 0.58909 0.0
H384 H 0.57499 0.43614 0.63764 0.0
H385 H 0.62104 0.39648 0.72177 0.0
H386 H 0.53406 0.34667 0.85582 0.0
H387 H 0.56349 0.3594 0.80444 0.0
H388 H 0.54944 0.42978 0.77925 0.0
C389 C 0.59235 0.4418 0.64058 0.0
C390 C 0.60538 0.40374 0.73417 0.0
C391 C 0.59999 0.45885 0.61262 0.0
C392 C 0.54031 0.36385 0.85814 0.0
C393 C 0.55708 0.37114 0.82874 0.0
C394 C 0.56514 0.42235 0.76732 0.0
C395 C 0.60603 0.43406 0.67519 0.0
C396 C 0.5953 0.42251 0.71309 0.0
C397 C 0.56339 0.39408 0.82746 0.0
C398 C 0.57506 0.40365 0.78861 0.0
H399 H 0.65311 0.46536 0.65384 0.0
H400 H 0.63953 0.4357 0.70377 0.0
H401 H 0.56713 0.44637 0.71531 0.0
H402 H 0.52989 0.41405 0.90965 0.0
H403 H 0.55958 0.42659 0.85954 0.0
C404 C 0.04809 0.62564 0.626 0.0
C405 C 0.026 0.62254 0.6424 0.0
C406 C 0.06693 0.62155 0.65297 0.0
C407 C 0.083 0.61545 0.76943 0.0
H408 H 0.1217 0.56564 0.73257 0.0
C409 C 0.10514 0.5404 0.87541 0.0
C410 C 0.12629 0.52956 0.87207 0.0
C411 C 0.10046 0.55971 0.85051 0.0
C412 C 0.11159 0.58004 0.7431 0.0
H413 H 0.00632 0.61387 0.70019 0.0
H414 H 0.03875 0.60708 0.74661 0.0
H415 H 0.09875 0.58592 0.67852 0.0
H416 H 0.15954 0.53071 0.8419 0.0
H417 H 0.15103 0.56433 0.79679 0.0
H418 H 0.09422 0.60822 0.83454 0.0
C419 C 0.04171 0.61255 0.71321 0.0
C420 C 0.09846 0.59166 0.71212 0.0
C421 C 0.0231 0.61613 0.68634 0.0
C422 C 0.14319 0.53903 0.8453 0.0
C423 C 0.13831 0.55812 0.81942 0.0
C424 C 0.09602 0.60381 0.80034 0.0
C425 C 0.06382 0.61501 0.69689 0.0
C426 C 0.08301 0.60849 0.72553 0.0
C427 C 0.11667 0.56824 0.82099 0.0
C428 C 0.10937 0.58512 0.78781 0.0
H429 H 0.05076 0.63063 0.59225 0.0
H430 H 0.08385 0.62336 0.63957 0.0
H431 H 0.07146 0.62862 0.78047 0.0
H432 H 0.09185 0.53325 0.89568 0.0
H433 H 0.08353 0.56693 0.85197 0.0
C434 C 0.95037 0.13211 0.8647 0.0
C435 C 0.97253 0.13074 0.84786 0.0
C436 C 0.93175 0.12883 0.83699 0.0
C437 C 0.91639 0.12362 0.7188 0.0
H438 H 0.87999 0.07287 0.75771 0.0
C439 C 0.89845 0.04526 0.61964 0.0
C440 C 0.87691 0.03541 0.62054 0.0
C441 C 0.90265 0.06487 0.64348 0.0
C442 C 0.88949 0.08748 0.74659 0.0
H443 H 0.99268 0.1267 0.78898 0.0
H444 H 0.96072 0.12111 0.7412 0.0
H445 H 0.90151 0.09444 0.81102 0.0
H446 H 0.84263 0.03842 0.64562 0.0
H447 H 0.85031 0.07245 0.68923 0.0
H448 H 0.90625 0.11499 0.65381 0.0
C449 C 0.95735 0.12468 0.77533 0.0
C450 C 0.9018 0.09989 0.77715 0.0
C451 C 0.97575 0.12757 0.80286 0.0
C452 C 0.85931 0.04599 0.64409 0.0
C453 C 0.86368 0.06531 0.66905 0.0
C454 C 0.90437 0.11102 0.68825 0.0
C455 C 0.93514 0.12467 0.79207 0.0
C456 C 0.91649 0.11717 0.76317 0.0
C457 C 0.88553 0.07461 0.66958 0.0
C458 C 0.89184 0.09209 0.7017 0.0
H459 H 0.94753 0.13458 0.89937 0.0
H460 H 0.91481 0.12888 0.8508 0.0
H461 H 0.92717 0.13719 0.70717 0.0
H462 H 0.91228 0.03725 0.6019 0.0
H463 H 0.91972 0.07152 0.64386 0.0
C464 C 0.71014 0.95122 0.95307 0.0
C465 C 0.70138 0.97268 0.96382 0.0
C466 C 0.72498 0.94865 0.91771 0.0
C467 C 0.75999 0.98145 0.8373 0.0
H468 H 0.75472 0.92639 0.76916 0.0
C469 C 0.79574 0.97152 0.66285 0.0
C470 C 0.81418 0.95626 0.66163 0.0
C471 C 0.78108 0.97188 0.6988 0.0
C472 C 0.75631 0.94179 0.78804 0.0
H473 H 0.70144 0.00835 0.94672 0.0
H474 H 0.72647 0.00387 0.88382 0.0
H475 H 0.73178 0.9311 0.83519 0.0
H476 H 0.83067 0.9283 0.69555 0.0
H477 H 0.80432 0.92844 0.75779 0.0
H478 H 0.78378 0.99239 0.78852 0.0
C479 C 0.72261 0.98902 0.90334 0.0
C480 C 0.74339 0.94447 0.82613 0.0
C481 C 0.70818 0.99164 0.93938 0.0
C482 C 0.81664 0.94027 0.69561 0.0
C483 C 0.80163 0.94033 0.73115 0.0
C484 C 0.77248 0.97894 0.79873 0.0
C485 C 0.73095 0.96741 0.89157 0.0
C486 C 0.74508 0.96434 0.8514 0.0
C487 C 0.78426 0.95664 0.73358 0.0
C488 C 0.77073 0.95912 0.77391 0.0
H489 H 0.70526 0.93634 0.97166 0.0
H490 H 0.7315 0.93185 0.91064 0.0
H491 H 0.7622 0.99676 0.85614 0.0
H492 H 0.79346 0.98417 0.6374 0.0
H493 H 0.76769 0.98455 0.70014 0.0
C494 C 0.53969 0.79463 0.65898 0.0
C495 C 0.54935 0.81626 0.66301 0.0
C496 C 0.53925 0.77966 0.69463 0.0
C497 C 0.52503 0.76032 0.78282 0.0
H498 H 0.57427 0.75415 0.86568 0.0
C499 C 0.51272 0.71599 0.95015 0.0
C500 C 0.52996 0.70083 0.96299 0.0
C501 C 0.51597 0.7306 0.91443 0.0
C502 C 0.56038 0.75559 0.84276 0.0
H503 H 0.56745 0.83842 0.70714 0.0
H504 H 0.5666 0.81241 0.76896 0.0
H505 H 0.57963 0.77668 0.79938 0.0
H506 H 0.56438 0.68962 0.94928 0.0
H507 H 0.56997 0.7149 0.88719 0.0
H508 H 0.50589 0.73896 0.82582 0.0
C509 C 0.55937 0.80697 0.7383 0.0
C510 C 0.56341 0.76865 0.80489 0.0
C511 C 0.55979 0.82195 0.70274 0.0
C512 C 0.55074 0.70112 0.94031 0.0
C513 C 0.554 0.7157 0.90475 0.0
C514 C 0.52199 0.74729 0.82069 0.0
C515 C 0.54853 0.78591 0.73508 0.0
C516 C 0.54576 0.77119 0.77445 0.0
C517 C 0.53655 0.73038 0.8909 0.0
C518 C 0.53962 0.74478 0.85118 0.0
H519 H 0.53154 0.7896 0.62892 0.0
H520 H 0.53115 0.76336 0.6908 0.0
H521 H 0.51095 0.76218 0.76043 0.0
H522 H 0.49652 0.71619 0.96696 0.0
H523 H 0.50229 0.74194 0.90503 0.0
C524 C 0.78593 0.51231 0.95342 0.0
C525 C 0.80089 0.5296 0.96541 0.0
C526 C 0.77124 0.51533 0.91797 0.0
C527 C 0.74541 0.5592 0.8459 0.0
H528 H 0.73948 0.50919 0.76502 0.0
C529 C 0.70629 0.53734 0.66378 0.0
C530 C 0.68449 0.54693 0.6682 0.0
C531 C 0.72132 0.53709 0.69907 0.0
C532 C 0.74115 0.52342 0.787 0.0
H533 H 0.81166 0.5639 0.95049 0.0
H534 H 0.78619 0.56911 0.88885 0.0
H535 H 0.76302 0.50465 0.82979 0.0
H536 H 0.66202 0.565 0.71266 0.0
H537 H 0.68813 0.56449 0.77387 0.0
H538 H 0.72377 0.57807 0.80273 0.0
C539 C 0.78563 0.55327 0.90687 0.0
C540 C 0.75436 0.52069 0.82452 0.0
C541 C 0.80032 0.55023 0.94216 0.0
C542 C 0.67862 0.5574 0.70798 0.0
C543 C 0.69365 0.55718 0.74316 0.0
C544 C 0.73214 0.56191 0.8084 0.0
C545 C 0.77116 0.53574 0.89388 0.0
C546 C 0.75664 0.53853 0.85448 0.0
C547 C 0.71495 0.54649 0.73953 0.0
C548 C 0.72984 0.54405 0.77849 0.0
H549 H 0.78595 0.49622 0.97068 0.0
H550 H 0.76005 0.50161 0.90924 0.0
H551 H 0.74667 0.57324 0.86842 0.0
H552 H 0.71146 0.52917 0.63367 0.0
H553 H 0.73777 0.52909 0.69494 0.0
C554 C 0.99613 0.7903 0.93372 0.0
C555 C 0.9776 0.79641 0.96021 0.0
C556 C 0.993 0.77622 0.8976 0.0
C557 C 0.95767 0.73317 0.84939 0.0
H558 H 0.97222 0.76091 0.73762 0.0
C559 C 0.93729 0.6871 0.6893 0.0
C560 C 0.95373 0.68829 0.656 0.0
C561 C 0.93822 0.70171 0.72513 0.0
C562 C 0.96834 0.75271 0.76846 0.0
H563 H 0.94166 0.7916 0.97165 0.0
H564 H 0.93642 0.76619 0.90955 0.0
H565 H 0.98 0.78123 0.80505 0.0
H566 H 0.98335 0.70657 0.63317 0.0
H567 H 0.98548 0.73127 0.69581 0.0
H568 H 0.94691 0.70425 0.81351 0.0
C569 C 0.95321 0.77262 0.91627 0.0
C570 C 0.97278 0.76441 0.80703 0.0
C571 C 0.95621 0.78712 0.95168 0.0
C572 C 0.97029 0.70527 0.65804 0.0
C573 C 0.97148 0.71955 0.69418 0.0
C574 C 0.95367 0.72122 0.81087 0.0
C575 C 0.97142 0.76761 0.88824 0.0
C576 C 0.96749 0.75473 0.84774 0.0
C577 C 0.95586 0.71755 0.72887 0.0
C578 C 0.95896 0.73082 0.76979 0.0
H579 H 0.01274 0.79741 0.93942 0.0
H580 H 0.00729 0.77245 0.8764 0.0
H581 H 0.95346 0.72542 0.88054 0.0
H582 H 0.9242 0.67432 0.68852 0.0
H583 H 0.92546 0.7001 0.75048 0.0
C584 C 0.21782 0.01049 0.55066 0.0
C585 C 0.20356 0.02853 0.53811 0.0
C586 C 0.23292 0.013 0.58548 0.0
C587 C 0.2607 0.05603 0.65517 0.0
H588 H 0.26383 0.00674 0.73936 0.0
C589 C 0.29659 0.03441 0.84034 0.0
C590 C 0.31875 0.04288 0.83648 0.0
C591 C 0.28206 0.03449 0.80431 0.0
C592 C 0.26296 0.02077 0.71642 0.0
H593 H 0.19457 0.06363 0.55107 0.0
H594 H 0.22067 0.06794 0.61163 0.0
H595 H 0.24074 0.00272 0.67407 0.0
H596 H 0.3424 0.05939 0.79218 0.0
H597 H 0.31716 0.05941 0.72967 0.0
H598 H 0.28258 0.07425 0.69799 0.0
C599 C 0.2204 0.0519 0.59456 0.0
C600 C 0.25001 0.01831 0.67861 0.0
C601 C 0.20533 0.04937 0.55991 0.0
C602 C 0.3255 0.05265 0.79645 0.0
C603 C 0.31097 0.05274 0.7605 0.0
C604 C 0.27366 0.05848 0.69299 0.0
C605 C 0.23409 0.03364 0.60831 0.0
C606 C 0.24869 0.03592 0.64755 0.0
C607 C 0.28931 0.04309 0.76366 0.0
C608 C 0.27492 0.0409 0.72412 0.0
H609 H 0.21686 0.99423 0.53446 0.0
H610 H 0.24349 0.99871 0.59486 0.0
H611 H 0.26018 0.06986 0.63176 0.0
H612 H 0.29074 0.02683 0.87064 0.0
H613 H 0.26529 0.02735 0.80806 0.0
C614 C 0.48581 0.20947 0.56409 0.0
C615 C 0.46666 0.20158 0.54183 0.0
C616 C 0.48325 0.22388 0.60001 0.0
C617 C 0.4501 0.26683 0.65122 0.0
H618 H 0.46537 0.2399 0.76333 0.0
C619 C 0.43538 0.31663 0.81046 0.0
C620 C 0.45182 0.31428 0.84329 0.0
C621 C 0.43514 0.30178 0.77494 0.0
C622 C 0.46133 0.2479 0.73237 0.0
H623 H 0.43 0.20343 0.53801 0.0
H624 H 0.42567 0.22947 0.59979 0.0
H625 H 0.47064 0.21801 0.69655 0.0
H626 H 0.48049 0.29408 0.86526 0.0
H627 H 0.48073 0.2689 0.80291 0.0
H628 H 0.44184 0.29708 0.68608 0.0
C629 C 0.44253 0.22413 0.58984 0.0
C630 C 0.46427 0.23526 0.6942 0.0
C631 C 0.44503 0.20928 0.55462 0.0
C632 C 0.46741 0.29621 0.84078 0.0
C633 C 0.4675 0.28167 0.80485 0.0
C634 C 0.44764 0.2797 0.68927 0.0
C635 C 0.46158 0.23105 0.61341 0.0
C636 C 0.45871 0.24465 0.65343 0.0
C637 C 0.45167 0.28453 0.77087 0.0
C638 C 0.45325 0.27043 0.73048 0.0
H639 H 0.50265 0.20363 0.55514 0.0
H640 H 0.49814 0.22911 0.61785 0.0
H641 H 0.44573 0.27435 0.61995 0.0
H642 H 0.42304 0.33032 0.81164 0.0
H643 H 0.42225 0.30418 0.75023 0.0
C644 C 0.30281 0.44655 0.55393 0.0
C645 C 0.30159 0.46682 0.52959 0.0
C646 C 0.28824 0.44286 0.58932 0.0
C647 C 0.2341 0.46095 0.6387 0.0
H648 H 0.26055 0.43781 0.74616 0.0
C649 C 0.20745 0.45498 0.83106 0.0
C650 C 0.18508 0.44718 0.82673 0.0
C651 C 0.22231 0.4548 0.79523 0.0
C652 C 0.25294 0.44428 0.7164 0.0
H653 H 0.28366 0.49884 0.52253 0.0
H654 H 0.258 0.49231 0.58436 0.0
H655 H 0.28455 0.44339 0.68168 0.0
H656 H 0.16147 0.43146 0.78194 0.0
H657 H 0.18739 0.43109 0.71992 0.0
H658 H 0.20257 0.46216 0.67354 0.0
C659 C 0.27027 0.47927 0.57592 0.0
C660 C 0.26662 0.44732 0.67939 0.0
C661 C 0.28497 0.48303 0.54057 0.0
C662 C 0.17847 0.43783 0.78652 0.0
C663 C 0.19327 0.43775 0.75077 0.0
C664 C 0.2204 0.45774 0.67558 0.0
C665 C 0.27201 0.45929 0.6011 0.0
C666 C 0.25736 0.45577 0.64017 0.0
C667 C 0.2151 0.44688 0.75433 0.0
C668 C 0.22967 0.44943 0.71488 0.0
H669 H 0.31538 0.43366 0.5463 0.0
H670 H 0.28976 0.42716 0.60763 0.0
H671 H 0.22645 0.46734 0.60892 0.0
H672 H 0.21317 0.46229 0.86146 0.0
H673 H 0.23904 0.46196 0.79899 0.0
C674 C 0.04798 0.29897 0.55975 0.0
C675 C 0.02755 0.29736 0.53644 0.0
C676 C 0.05222 0.28489 0.59562 0.0
C677 C 0.03653 0.23124 0.64809 0.0
H678 H 0.05826 0.2598 0.7539 0.0
C679 C 0.06302 0.17819 0.79713 0.0
C680 C 0.05233 0.18432 0.83664 0.0
C681 C 0.06269 0.19286 0.76117 0.0
C682 C 0.05223 0.25161 0.72458 0.0
H683 H 0.99587 0.27916 0.53165 0.0
H684 H 0.00348 0.2542 0.59431 0.0
H685 H 0.05128 0.28284 0.68851 0.0
H686 H 0.03474 0.21167 0.87026 0.0
H687 H 0.03452 0.23739 0.80754 0.0
H688 H 0.03729 0.20005 0.6842 0.0
C689 C 0.01614 0.26649 0.58469 0.0
C690 C 0.04835 0.26474 0.68711 0.0
C691 C 0.01178 0.28076 0.54888 0.0
C692 C 0.04308 0.20631 0.84039 0.0
C693 C 0.04291 0.22107 0.80441 0.0
C694 C 0.04064 0.21808 0.68539 0.0
C695 C 0.03624 0.26873 0.60889 0.0
C696 C 0.0404 0.2547 0.64852 0.0
C697 C 0.0519 0.21411 0.76396 0.0
C698 C 0.04849 0.22813 0.72405 0.0
H699 H 0.06053 0.31153 0.55102 0.0
H700 H 0.068 0.28676 0.6132 0.0
H701 H 0.03051 0.22303 0.61878 0.0
H702 H 0.0705 0.1615 0.79298 0.0
H703 H 0.07018 0.18726 0.73064 0.0
C704 C 0.17558 0.05607 0.29811 0.0
C705 C 0.18222 0.04609 0.33801 0.0
C706 C 0.19013 0.05585 0.26196 0.0
C707 C 0.22742 0.06051 0.1936 0.0
H708 H 0.25971 0.00384 0.17461 0.0
C709 C 0.29536 0.04903 0.05889 0.0
C710 C 0.29688 0.02802 0.03753 0.0
C711 C 0.28036 0.05214 0.0938 0.0
C712 C 0.25062 0.01969 0.17917 0.0
H713 H 0.21011 0.02944 0.37175 0.0
H714 H 0.2356 0.02946 0.30883 0.0
H715 H 0.23679 0.00867 0.24037 0.0
H716 H 0.28316 0.99405 0.03487 0.0
H717 H 0.25666 0.99958 0.09567 0.0
H718 H 0.24089 0.07133 0.13189 0.0
C719 C 0.21889 0.03697 0.30534 0.0
C720 C 0.23777 0.0226 0.21725 0.0
C721 C 0.20433 0.03718 0.34156 0.0
C722 C 0.28241 0.01043 0.05072 0.0
C723 C 0.26738 0.01354 0.08578 0.0
C724 C 0.24028 0.05759 0.1555 0.0
C725 C 0.21171 0.04571 0.26478 0.0
C726 C 0.22604 0.04306 0.22498 0.0
C727 C 0.2665 0.03432 0.10824 0.0
C728 C 0.25205 0.03714 0.14784 0.0
H729 H 0.15872 0.06315 0.29408 0.0
H730 H 0.184 0.06265 0.23121 0.0
H731 H 0.21868 0.07651 0.19862 0.0
H732 H 0.30628 0.06294 0.04954 0.0
H733 H 0.28029 0.06828 0.11056 0.0
C734 C 0.43921 0.17508 0.30147 0.0
C735 C 0.44877 0.18126 0.34176 0.0
C736 C 0.44001 0.18982 0.2656 0.0
C737 C 0.47365 0.23748 0.22255 0.0
H738 H 0.42557 0.24169 0.13683 0.0
C739 C 0.44731 0.29618 0.06501 0.0
C740 C 0.46835 0.29781 0.04348 0.0
C741 C 0.44439 0.2812 0.1 0.0
C742 C 0.43913 0.2408 0.16055 0.0
H743 H 0.4654 0.2085 0.37638 0.0
H744 H 0.46636 0.23435 0.31398 0.0
H745 H 0.42006 0.21895 0.20271 0.0
H746 H 0.50265 0.28445 0.04095 0.0
H747 H 0.49746 0.25792 0.10193 0.0
H748 H 0.49252 0.25975 0.18086 0.0
C749 C 0.45874 0.21785 0.30995 0.0
C750 C 0.43603 0.2276 0.19817 0.0
C751 C 0.45796 0.20309 0.34588 0.0
C752 C 0.48625 0.28359 0.0569 0.0
C753 C 0.48332 0.26855 0.09206 0.0
C754 C 0.47674 0.2507 0.18494 0.0
C755 C 0.45031 0.21115 0.26907 0.0
C756 C 0.45324 0.2258 0.22969 0.0
C757 C 0.46241 0.26741 0.11439 0.0
C758 C 0.4595 0.25256 0.1535 0.0
H759 H 0.43196 0.15844 0.29695 0.0
H760 H 0.43346 0.18403 0.23461 0.0
H761 H 0.48741 0.23619 0.24578 0.0
H762 H 0.43316 0.30692 0.05557 0.0
H763 H 0.42815 0.281 0.11669 0.0
C764 C 0.2978 0.4616 0.33152 0.0
C765 C 0.32001 0.45299 0.32713 0.0
C766 C 0.2827 0.46086 0.29641 0.0
C767 C 0.26254 0.47328 0.20812 0.0
H768 H 0.25875 0.42277 0.12785 0.0
C769 C 0.21859 0.48224 0.04064 0.0
C770 C 0.20403 0.46458 0.0288 0.0
C771 C 0.23314 0.47973 0.07641 0.0
C772 C 0.25953 0.43699 0.15006 0.0
H773 H 0.34313 0.43547 0.28308 0.0
H774 H 0.31685 0.43424 0.22217 0.0
H775 H 0.28157 0.41905 0.19393 0.0
H776 H 0.19386 0.43016 0.04429 0.0
H777 H 0.21913 0.42583 0.10652 0.0
H778 H 0.24033 0.49114 0.16457 0.0
C779 C 0.3111 0.44157 0.2527 0.0
C780 C 0.27273 0.43491 0.18778 0.0
C781 C 0.32622 0.44237 0.28769 0.0
C782 C 0.20489 0.4441 0.0525 0.0
C783 C 0.21946 0.44157 0.08813 0.0
C784 C 0.2494 0.47538 0.17037 0.0
C785 C 0.28939 0.4514 0.2562 0.0
C786 C 0.27443 0.45305 0.21723 0.0
C787 C 0.23348 0.45948 0.101 0.0
C788 C 0.24778 0.45729 0.14079 0.0
H789 H 0.29237 0.46985 0.36139 0.0
H790 H 0.26593 0.4682 0.30042 0.0
H791 H 0.26372 0.4877 0.22975 0.0
H792 H 0.21833 0.49822 0.02303 0.0
H793 H 0.24399 0.49373 0.08505 0.0
C794 C 0.00761 0.21525 0.04465 0.0
C795 C 0.0254 0.20033 0.03367 0.0
C796 C 0.00972 0.22998 0.0802 0.0
C797 C 0.05217 0.25612 0.15316 0.0
H798 H 0.00155 0.26164 0.23381 0.0
C799 C 0.02906 0.29391 0.33606 0.0
C800 C 0.03817 0.31581 0.33205 0.0
C801 C 0.02911 0.27916 0.30036 0.0
C802 C 0.01593 0.26009 0.21184 0.0
H803 H 0.05957 0.18963 0.05054 0.0
H804 H 0.06318 0.21513 0.11215 0.0
H805 H 0.99781 0.23836 0.16856 0.0
H806 H 0.0558 0.33874 0.28797 0.0
H807 H 0.05589 0.31308 0.22606 0.0
H808 H 0.0704 0.27757 0.19675 0.0
C809 C 0.04766 0.21564 0.09334 0.0
C810 C 0.01365 0.24703 0.17409 0.0
C811 C 0.04552 0.20091 0.05809 0.0
C812 C 0.04855 0.32205 0.2923 0.0
C813 C 0.04867 0.30729 0.25673 0.0
C814 C 0.05442 0.26922 0.19084 0.0
C815 C 0.02971 0.23016 0.1052 0.0
C816 C 0.03176 0.24485 0.14436 0.0
C817 C 0.0384 0.28592 0.25995 0.0
C818 C 0.03634 0.27133 0.22067 0.0
H819 H 0.99189 0.21517 0.02647 0.0
H820 H 0.99568 0.24117 0.08823 0.0
H821 H 0.06639 0.25493 0.13076 0.0
H822 H 0.02094 0.28848 0.36614 0.0
H823 H 0.02144 0.26263 0.30412 0.0
C824 C 0.68391 0.93941 0.19718 0.0
C825 C 0.68532 0.95571 0.16353 0.0
C826 C 0.69896 0.93993 0.23237 0.0
C827 C 0.72596 0.97832 0.30156 0.0
H828 H 0.77192 0.9333 0.32949 0.0
C829 C 0.79084 0.99264 0.43916 0.0
C830 C 0.79973 0.97374 0.46141 0.0
C831 C 0.77644 0.98976 0.40346 0.0
C832 C 0.75888 0.94583 0.32283 0.0
H833 H 0.70409 0.98487 0.13981 0.0
H834 H 0.72992 0.98602 0.20202 0.0
H835 H 0.74831 0.92847 0.26485 0.0
H836 H 0.79974 0.93705 0.46536 0.0
H837 H 0.77362 0.93196 0.40487 0.0
H838 H 0.73554 0.99533 0.35999 0.0
C839 C 0.71734 0.97275 0.20061 0.0
C840 C 0.74555 0.9431 0.28554 0.0
C841 C 0.70265 0.97196 0.16498 0.0
C842 C 0.79324 0.95193 0.44852 0.0
C843 C 0.77845 0.94904 0.41347 0.0
C844 C 0.7389 0.98083 0.33934 0.0
C845 C 0.71533 0.957 0.23485 0.0
C846 C 0.72919 0.95945 0.27449 0.0
C847 C 0.7702 0.96788 0.38978 0.0
C848 C 0.75572 0.96474 0.35037 0.0
H849 H 0.67075 0.9267 0.19695 0.0
H850 H 0.69718 0.92765 0.25861 0.0
H851 H 0.71321 0.991 0.2937 0.0
H852 H 0.79578 0.00965 0.44814 0.0
H853 H 0.77085 0.00472 0.38581 0.0
C854 C 0.55347 0.79869 0.43541 0.0
C855 C 0.53348 0.79862 0.46065 0.0
C856 C 0.55609 0.78398 0.4001 0.0
C857 C 0.53525 0.73096 0.3525 0.0
H858 H 0.55825 0.75617 0.24367 0.0
C859 C 0.53898 0.70376 0.1605 0.0
C860 C 0.5463 0.68111 0.16517 0.0
C861 C 0.53969 0.71864 0.19601 0.0
C862 C 0.55178 0.74891 0.2738 0.0
H863 H 0.50083 0.78255 0.46941 0.0
H864 H 0.5055 0.75661 0.40772 0.0
H865 H 0.55419 0.78046 0.30783 0.0
H866 H 0.56164 0.65692 0.21024 0.0
H867 H 0.56292 0.68286 0.27168 0.0
H868 H 0.53257 0.6995 0.31839 0.0
C869 C 0.51914 0.7681 0.41539 0.0
C870 C 0.54962 0.76275 0.31063 0.0
C871 C 0.51645 0.78297 0.45066 0.0
C872 C 0.55564 0.67415 0.20539 0.0
C873 C 0.55624 0.68897 0.24082 0.0
C874 C 0.53759 0.71709 0.3158 0.0
C875 C 0.53884 0.76873 0.3893 0.0
C876 C 0.54128 0.75394 0.35035 0.0
C877 C 0.54767 0.71116 0.23691 0.0
C878 C 0.54585 0.72591 0.27603 0.0
H879 H 0.56697 0.81049 0.44226 0.0
H880 H 0.57161 0.78461 0.38108 0.0
H881 H 0.5289 0.72365 0.38268 0.0
H882 H 0.53169 0.70974 0.13008 0.0
H883 H 0.53296 0.73566 0.192 0.0
C884 C 0.71874 0.51501 0.45468 0.0
C885 C 0.70297 0.5321 0.46536 0.0
C886 C 0.73351 0.51778 0.41907 0.0
C887 C 0.77036 0.53426 0.3555 0.0
H888 H 0.7445 0.55743 0.24752 0.0
C889 C 0.82652 0.55572 0.20748 0.0
C890 C 0.81982 0.54633 0.16736 0.0
C891 C 0.81169 0.55611 0.24317 0.0
C892 C 0.75194 0.55092 0.27741 0.0
H893 H 0.69077 0.56575 0.4478 0.0
H894 H 0.71644 0.5705 0.38599 0.0
H895 H 0.72041 0.55302 0.31224 0.0
H896 H 0.79157 0.53145 0.13273 0.0
H897 H 0.76562 0.53237 0.19511 0.0
H898 H 0.80183 0.53195 0.32063 0.0
C899 C 0.71726 0.55489 0.40478 0.0
C900 C 0.73821 0.54855 0.31454 0.0
C901 C 0.70268 0.55221 0.44045 0.0
C902 C 0.79736 0.53879 0.16306 0.0
C903 C 0.78246 0.5393 0.19883 0.0
C904 C 0.78413 0.53683 0.31851 0.0
C905 C 0.73262 0.53761 0.39329 0.0
C906 C 0.74727 0.54016 0.35397 0.0
C907 C 0.78974 0.54728 0.23964 0.0
C908 C 0.77507 0.54517 0.27905 0.0
H909 H 0.71933 0.4993 0.47316 0.0
H910 H 0.74512 0.50412 0.41087 0.0
H911 H 0.77785 0.52787 0.38545 0.0
H912 H 0.84358 0.5619 0.21204 0.0
H913 H 0.81761 0.56282 0.27395 0.0
C914 C 0.94646 0.81632 0.19385 0.0
C915 C 0.96245 0.81482 0.15982 0.0
C916 C 0.94786 0.80178 0.23002 0.0
C917 C 0.9778 0.74974 0.27201 0.0
H918 H 0.96103 0.77501 0.38456 0.0
C919 C 0.00013 0.70785 0.43872 0.0
C920 C 0.98053 0.70162 0.46192 0.0
C921 C 0.99854 0.72267 0.40293 0.0
C922 C 0.96583 0.76784 0.35327 0.0
H923 H 0.99216 0.79656 0.13656 0.0
H924 H 0.9952 0.77197 0.19997 0.0
H925 H 0.95618 0.79783 0.31848 0.0
H926 H 0.94422 0.70674 0.46775 0.0
H927 H 0.94165 0.7334 0.40639 0.0
H928 H 0.98822 0.72004 0.30764 0.0
C929 C 0.98109 0.78378 0.19851 0.0
C930 C 0.9628 0.78075 0.31527 0.0
C931 C 0.97938 0.79797 0.16198 0.0
C932 C 0.95957 0.7113 0.4503 0.0
C933 C 0.95808 0.72653 0.41536 0.0
C934 C 0.9813 0.73706 0.31014 0.0
C935 C 0.96561 0.78574 0.23348 0.0
C936 C 0.96858 0.77183 0.27399 0.0
C937 C 0.97744 0.73189 0.39077 0.0
C938 C 0.97521 0.74597 0.35097 0.0
H939 H 0.93314 0.82906 0.19297 0.0
H940 H 0.93521 0.80342 0.25557 0.0
H941 H 0.98207 0.74203 0.24098 0.0
H942 H 0.01644 0.70044 0.44689 0.0
H943 H 0.01368 0.72666 0.38432 0.0
C944 C 0.41214 0.00038 0.02705 0.0
C945 C 0.40467 0.01684 0.99689 0.0
C946 C 0.43517 0.99486 0.03022 0.0
C947 C 0.48756 0.99591 0.96488 0.0
H948 H 0.51765 0.98597 0.07587 0.0
C949 C 0.58454 0.98819 0.97967 0.0
C950 C 0.59362 0.97302 0.01063 0.0
C951 C 0.56119 0.99196 0.97739 0.0
C952 C 0.5094 0.98833 0.04459 0.0
H953 H 0.41555 0.04114 0.9478 0.0
H954 H 0.45574 0.0316 0.95352 0.0
H955 H 0.4776 0.99675 0.07477 0.0
H956 H 0.58528 0.94918 0.06233 0.0
H957 H 0.54435 0.95553 0.05796 0.0
H958 H 0.51926 0.98749 0.93462 0.0
C959 C 0.44376 0.0227 0.97421 0.0
C960 C 0.48649 0.99459 0.04399 0.0
C961 C 0.42076 0.02828 0.97117 0.0
C962 C 0.57879 0.96103 0.03821 0.0
C963 C 0.55537 0.96481 0.03595 0.0
C964 C 0.51042 0.98958 0.96546 0.0
C965 C 0.45116 0.00565 0.0032 0.0
C966 C 0.47539 0.99866 0.00412 0.0
C967 C 0.54634 0.98059 0.00594 0.0
C968 C 0.52167 0.98591 0.00532 0.0
H969 H 0.40013 0.99123 0.04727 0.0
H970 H 0.44034 0.98157 0.05272 0.0
H971 H 0.47936 0.99846 0.93361 0.0
H972 H 0.59552 0.99776 0.95802 0.0
H973 H 0.55487 0.00441 0.95424 0.0
C974 C 0.46294 0.42068 0.96766 0.0
C975 C 0.47499 0.40527 0.99411 0.0
C976 C 0.46744 0.44391 0.96965 0.0
C977 C 0.51277 0.48335 0.00045 0.0
H978 H 0.46506 0.5289 0.99702 0.0
C979 C 0.52918 0.57797 0.03458 0.0
C980 C 0.51726 0.59415 0.00965 0.0
C981 C 0.52428 0.55492 0.03087 0.0
C982 C 0.4786 0.51639 0.99739 0.0
H983 H 0.50058 0.40217 0.04455 0.0
H984 H 0.5082 0.44265 0.04839 0.0
H985 H 0.45523 0.48877 0.99549 0.0
H986 H 0.49131 0.59882 0.96034 0.0
H987 H 0.48298 0.55852 0.95339 0.0
H988 H 0.53614 0.51089 0.00234 0.0
C989 C 0.49557 0.43678 0.02556 0.0
C990 C 0.47295 0.4934 0.99662 0.0
C991 C 0.49106 0.4136 0.02362 0.0
C992 C 0.50077 0.58676 0.98006 0.0
C993 C 0.49586 0.56369 0.97635 0.0
C994 C 0.51841 0.5063 0.00116 0.0
C995 C 0.4841 0.45217 0.9981 0.0
C996 C 0.48997 0.47662 0.99841 0.0
C997 C 0.50736 0.54752 0.0021 0.0
C998 C 0.50139 0.52311 -0.00014 0.0
H999 H 0.45047 0.41475 0.94456 0.0
H1000 H 0.45839 0.45532 0.9479 0.0
H1001 H 0.52631 0.47084 0.00101 0.0
H1002 H 0.54196 0.58314 0.05772 0.0
H1003 H 0.53331 0.54295 0.05151 0.0
C1004 C 0.92365 0.52931 0.03573 0.0
C1005 C 0.9077 0.51726 0.01123 0.0
C1006 C 0.94681 0.52462 0.0314 0.0
C1007 C 0.98624 0.47922 0.99684 0.0
H1008 H 0.0308 0.52723 0.99697 0.0
C1009 C 0.0812 0.4634 0.95884 0.0
C1010 C 0.09713 0.47548 0.98332 0.0
C1011 C 0.05803 0.46813 0.96307 0.0
C1012 C 0.01859 0.5136 0.99744 0.0
H1013 H 0.90354 0.49128 0.96204 0.0
H1014 H 0.94399 0.48327 0.95406 0.0
H1015 H 0.99056 0.53681 0.00111 0.0
H1016 H 0.10126 0.50156 0.03235 0.0
H1017 H 0.06083 0.5096 0.04018 0.0
H1018 H 0.01427 0.45601 0.9932 0.0
C1019 C 0.93858 0.49611 0.97715 0.0
C1020 C 0.99552 0.5191 0.99973 0.0
C1021 C 0.91542 0.50082 0.98146 0.0
C1022 C 0.0894 0.49198 0.01296 0.0
C1023 C 0.06624 0.49672 0.01717 0.0
C1024 C 0.00931 0.47372 0.99456 0.0
C1025 C 0.95453 0.50775 0.00245 0.0
C1026 C 0.97907 0.50197 0.99944 0.0
C1027 C 0.0503 0.48505 0.99189 0.0
C1028 C 0.02576 0.49084 0.99485 0.0
H1029 H 0.91823 0.54206 0.05899 0.0
H1030 H 0.95863 0.53376 0.05165 0.0
H1031 H 0.97403 0.46559 0.99732 0.0
H1032 H 0.08663 0.45062 0.93567 0.0
H1033 H 0.04623 0.45896 0.94283 0.0
C1034 C 0.99785 0.08625 0.0097 0.0
C1035 C 0.0149 0.09398 0.98122 0.0
C1036 C 0.99305 0.06313 0.01293 0.0
C1037 C 0.01685 0.00625 0.98903 0.0
H1038 H 0.95395 0.98761 0.99499 0.0
C1039 C 0.99156 0.91321 0.96901 0.0
C1040 C 0.97636 0.90447 0.00021 0.0
C1041 C 0.99514 0.93651 0.96573 0.0
C1042 C 0.97159 0.99258 0.99369 0.0
H1043 H 0.04056 0.08359 0.93433 0.0
H1044 H 0.03201 0.04329 0.93946 0.0
H1045 H 0.96309 0.02793 0.99242 0.0
H1046 H 0.95214 0.91335 0.05094 0.0
H1047 H 0.95837 0.95422 0.04508 0.0
H1048 H 0.02533 0.97092 0.98994 0.0
C1049 C 0.02251 0.05502 0.95976 0.0
C1050 C 0.97685 0.01566 0.99235 0.0
C1051 C 0.02736 0.07813 0.95665 0.0
C1052 C 0.96398 0.91959 0.02663 0.0
C1053 C 0.96751 0.94298 0.02323 0.0
C1054 C 0.01159 0.98321 0.99017 0.0
C1055 C 0.00517 0.04726 0.98766 0.0
C1056 C -0.00045 0.02276 0.98989 0.0
C1057 C 0.98353 0.95161 0.99342 0.0
C1058 C 0.98891 0.97613 0.99233 0.0
H1059 H 0.988 0.09807 0.02918 0.0
H1060 H 0.97985 0.0577 0.03529 0.0
H1061 H 0.03451 0.01111 0.98796 0.0
H1062 H 0.00128 0.90201 0.94799 0.0
H1063 H 0.00727 0.9427 0.94189 0.0
C1064 C 0.07981 0.03265 0.47337 0.0
C1065 C 0.09573 0.02035 0.49815 0.0
C1066 C 0.05673 0.02776 0.4766 0.0
C1067 C 0.01367 -0.00013 0.54582 0.0
H1068 H 0.98063 0.99534 0.43688 0.0
C1069 C 0.92167 0.96715 0.53977 0.0
C1070 C 0.90663 0.97944 0.51299 0.0
C1071 C 0.94499 0.9711 0.53753 0.0
C1072 C 0.98955 0.99673 0.46762 0.0
H1073 H 0.09988 0.99389 0.54705 0.0
H1074 H 0.05955 0.9854 0.55278 0.0
H1075 H 0.02062 0.00541 0.43553 0.0
H1076 H 0.90426 0.00509 0.4621 0.0
H1077 H 0.94483 0.01209 0.4584 0.0
H1078 H 0.98254 0.99137 0.57794 0.0
C1079 C 0.06491 0.99885 0.53091 0.0
C1080 C 0.01245 0.00254 0.46685 0.0
C1081 C 0.08802 0.00369 0.52757 0.0
C1082 C 0.91542 0.99527 0.48307 0.0
C1083 C 0.9387 0.99923 0.48084 0.0
C1084 C 0.99072 0.99411 0.54661 0.0
C1085 C 0.04907 0.01054 0.50483 0.0
C1086 C 0.02474 0.0043 0.50593 0.0
C1087 C 0.95375 0.9874 0.5084 0.0
C1088 C 0.97836 0.99259 0.50751 0.0
H1089 H 0.08522 0.04568 0.4506 0.0
H1090 H 0.04489 0.03733 0.45666 0.0
H1091 H 0.02264 0.00128 0.57649 0.0
H1092 H 0.91539 0.95478 0.56307 0.0
H1093 H 0.95616 0.96146 0.55874 0.0
C1094 C 0.5063 0.9135 0.47895 0.0
C1095 C 0.5231 0.90568 0.50788 0.0
C1096 C 0.50052 0.93651 0.4771 0.0
C1097 C 0.52038 0.99383 0.50614 0.0
H1098 H 0.45631 0.00909 0.50284 0.0
C1099 C 0.48874 0.08546 0.5303 0.0
C1100 C 0.47205 0.09338 0.50122 0.0
C1101 C 0.49428 0.06241 0.53241 0.0
C1102 C 0.47426 0.00512 0.50335 0.0
H1103 H 0.54763 0.91595 0.55635 0.0
H1104 H 0.5375 0.95613 0.55326 0.0
H1105 H 0.46822 0.96939 0.50197 0.0
H1106 H 0.44735 0.0832 0.45299 0.0
H1107 H 0.45709 0.04292 0.45651 0.0
H1108 H 0.52643 0.02955 0.50748 0.0
C1109 C 0.52884 0.9445 0.53184 0.0
C1110 C 0.48111 0.98237 0.50277 0.0
C1111 C 0.53462 0.92146 0.53371 0.0
C1112 C 0.4603 0.07762 0.4757 0.0
C1113 C 0.46585 0.05453 0.47781 0.0
C1114 C 0.51354 0.01657 0.50672 0.0
C1115 C 0.51144 0.95223 0.50407 0.0
C1116 C 0.50425 0.97645 0.50414 0.0
C1117 C 0.48324 0.04673 0.50554 0.0
C1118 C 0.4904 0.02249 0.5054 0.0
H1119 H 0.49715 0.90178 0.4585 0.0
H1120 H 0.48734 0.94196 0.45478 0.0
H1121 H 0.53834 0.98986 0.50664 0.0
H1122 H 0.49805 0.09715 0.55055 0.0
H1123 H 0.50743 0.05691 0.55475 0.0
C1124 C 0.58835 0.50861 0.4794 0.0
C1125 C 0.59605 0.52405 0.51076 0.0
C1126 C 0.56523 0.50425 0.47511 0.0
C1127 C 0.5117 0.50682 0.53732 0.0
H1128 H 0.48428 0.49804 0.42373 0.0
C1129 C 0.41509 0.49661 0.5136 0.0
C1130 C 0.40786 0.48086 0.48238 0.0
C1131 C 0.43808 0.50166 0.51783 0.0
C1132 C 0.49175 0.50016 0.45572 0.0
H1133 H 0.58551 0.54762 0.56121 0.0
H1134 H 0.54504 0.54019 0.55342 0.0
H1135 H 0.52411 0.50847 0.42834 0.0
H1136 H 0.4191 0.45752 0.43206 0.0
H1137 H 0.45928 0.46616 0.43975 0.0
H1138 H 0.47933 0.49846 0.56469 0.0
C1139 C 0.55694 0.53118 0.53262 0.0
C1140 C 0.51456 0.5062 0.45836 0.0
C1141 C 0.5801 0.53557 0.53685 0.0
C1142 C 0.42414 0.4698 0.45629 0.0
C1143 C 0.44714 0.47488 0.46047 0.0
C1144 C 0.48888 0.50078 0.53469 0.0
C1145 C 0.54927 0.51524 0.50208 0.0
C1146 C 0.52482 0.50955 0.49919 0.0
C1147 C 0.45434 0.49108 0.49091 0.0
C1148 C 0.47865 0.49732 0.49385 0.0
H1149 H 0.60023 0.4994 0.45887 0.0
H1150 H 0.55992 0.49172 0.45158 0.0
H1151 H 0.51919 0.50889 0.56931 0.0
H1152 H 0.40294 0.50546 0.53411 0.0
H1153 H 0.44303 0.51436 0.54133 0.0
C1154 C 0.96538 0.57918 0.5388 0.0
C1155 C 0.97817 0.59372 0.51202 0.0
C1156 C 0.96871 0.55568 0.53679 0.0
C1157 C 0.01231 0.51378 0.50503 0.0
H1158 H 0.96299 0.47071 0.50868 0.0
C1159 C 0.02498 0.41926 0.46517 0.0
C1160 C 0.01311 0.40331 0.49046 0.0
C1161 C 0.02076 0.44242 0.47025 0.0
C1162 C 0.97695 0.48253 0.50823 0.0
H1163 H 0.00365 0.5951 0.46071 0.0
H1164 H 0.00918 0.55425 0.45678 0.0
H1165 H 0.95463 0.51133 0.51157 0.0
H1166 H 0.98786 0.39907 0.54157 0.0
H1167 H 0.98065 0.43961 0.55074 0.0
H1168 H 0.03463 0.4851 0.50147 0.0
C1169 C 0.99696 0.56093 0.48001 0.0
C1170 C 0.97216 0.50578 0.50981 0.0
C1171 C 0.99366 0.58434 0.48204 0.0
C1172 C 0.99727 0.41098 0.5216 0.0
C1173 C 0.99301 0.43417 0.52661 0.0
C1174 C 0.01709 0.4906 0.50345 0.0
C1175 C 0.98489 0.54636 0.50797 0.0
C1176 C 0.98979 0.52165 0.50774 0.0
C1177 C 0.00457 0.45013 0.50071 0.0
C1178 C -0.00053 0.47472 0.50461 0.0
H1179 H 0.95331 0.58594 0.56221 0.0
H1180 H 0.95919 0.54487 0.55884 0.0
H1181 H 0.0263 0.52558 0.50434 0.0
H1182 H 0.03725 0.41385 0.44084 0.0
H1183 H 0.02977 0.45427 0.44946 0.0
loop_
_geom_bond_atom_site_label_1
_geom_bond_atom_site_label_2
_geom_bond_distance
_geom_bond_site_symmetry_2
_ccdc_geom_bond_type
Co0 O1 2.216 1_545 S
Co0 O2 2.091 . S
Co0 O4 2.004 . S
Co0 O10 2.021 1_545 S
Co0 O12 2.137 1_545 S
Co0 O13 2.244 1_545 S
O1 Co0 2.216 1_565 S
O1 C8 1.247 1_565 S
O2 Co0 2.091 . S
O2 C8 1.261 . S
C3 O12 1.247 . S
C3 O13 1.272 . S
O4 Co0 2.004 . S
O4 C9 1.259 . S
Co5 O6 2.061 1_565 S
Co5 O11 2.052 . S
Co5 O13 2.135 . S
O6 Co5 2.061 1_545 S
O6 C9 1.235 . S
C7 O10 1.238 . S
C7 O11 1.241 . S
C8 O1 1.247 1_545 S
C8 O2 1.261 . S
C9 O4 1.259 . S
C9 O6 1.235 . S
O10 Co0 2.021 1_565 S
O10 C7 1.238 . S
O11 Co5 2.052 . S
O11 C7 1.241 . S
O12 Co0 2.137 1_565 S
O12 C3 1.247 . S
O13 Co0 2.244 1_565 S
O13 C3 1.272 . S
O13 Co5 2.135 . S
Co14 O15 2.216 . S
Co14 O16 2.091 . S
Co14 O18 2.004 . S
Co14 O24 2.021 . S
Co14 O26 2.137 . S
Co14 O27 2.244 . S
O15 Co14 2.216 . S
O15 C22 1.247 . S
O16 Co14 2.091 . S
O16 C22 1.261 . S
C17 O26 1.247 . S
C17 O27 1.272 . S
O18 Co14 2.004 . S
O18 C23 1.259 . S
Co19 O20 2.061 . S
Co19 O25 2.052 . S
Co19 O27 2.135 . S
O20 Co19 2.061 . S
O20 C23 1.235 . S
C21 O24 1.238 . S
C21 O25 1.241 . S
C22 O15 1.247 . S
C22 O16 1.261 . S
C23 O18 1.259 . S
C23 O20 1.235 . S
O24 Co14 2.021 . S
O24 C21 1.238 . S
O25 Co19 2.052 . S
O25 C21 1.241 . S
O26 Co14 2.137 . S
O26 C17 1.247 . S
O27 Co14 2.244 . S
O27 C17 1.272 . S
O27 Co19 2.135 . S
Co28 O29 2.216 . S
Co28 O30 2.091 . S
Co28 O32 2.004 . S
Co28 O38 2.021 . S
Co28 O40 2.137 . S
Co28 O41 2.244 . S
O29 Co28 2.216 . S
O29 C36 1.247 . S
O30 Co28 2.091 . S
O30 C36 1.261 . S
C31 O40 1.247 . S
C31 O41 1.272 . S
O32 Co28 2.004 . S
O32 C37 1.259 . S
Co33 O34 2.061 . S
Co33 O39 2.052 . S
Co33 O41 2.135 . S
O34 Co33 2.061 . S
O34 C37 1.235 . S
C35 O38 1.238 . S
C35 O39 1.241 . S
C36 O29 1.247 . S
C36 O30 1.261 . S
C37 O32 1.259 . S
C37 O34 1.235 . S
O38 Co28 2.021 . S
O38 C35 1.238 . S
O39 Co33 2.052 . S
O39 C35 1.241 . S
O40 Co28 2.137 . S
O40 C31 1.247 . S
O41 Co28 2.244 . S
O41 C31 1.272 . S
O41 Co33 2.135 . S
Co42 O43 2.216 1_455 S
Co42 O44 2.091 . S
Co42 O46 2.004 . S
Co42 O52 2.021 1_455 S
Co42 O54 2.137 1_455 S
Co42 O55 2.244 1_455 S
O43 Co42 2.216 1_655 S
O43 C50 1.247 1_655 S
O44 Co42 2.091 . S
O44 C50 1.261 . S
C45 O54 1.247 . S
C45 O55 1.272 . S
O46 Co42 2.004 . S
O46 C51 1.259 . S
Co47 O48 2.061 1_655 S
Co47 O53 2.052 . S
Co47 O55 2.135 . S
O48 Co47 2.061 1_455 S
O48 C51 1.235 . S
C49 O52 1.238 . S
C49 O53 1.241 . S
C50 O43 1.247 1_455 S
C50 O44 1.261 . S
C51 O46 1.259 . S
C51 O48 1.235 . S
O52 Co42 2.021 1_655 S
O52 C49 1.238 . S
O53 Co47 2.052 . S
O53 C49 1.241 . S
O54 Co42 2.137 1_655 S
O54 C45 1.247 . S
O55 Co42 2.244 1_655 S
O55 C45 1.272 . S
O55 Co47 2.135 . S
Co56 O57 2.216 1_565 S
Co56 O58 2.091 . S
Co56 O60 2.004 . S
Co56 O66 2.021 1_565 S
Co56 O68 2.137 1_565 S
Co56 O69 2.244 1_565 S
O57 Co56 2.216 1_545 S
O57 C64 1.247 1_545 S
O58 Co56 2.091 . S
O58 C64 1.261 . S
C59 O68 1.247 . S
C59 O69 1.272 . S
O60 Co56 2.004 . S
O60 C65 1.259 . S
Co61 O62 2.061 1_545 S
Co61 O67 2.052 . S
Co61 O69 2.135 . S
O62 Co61 2.061 1_565 S
O62 C65 1.235 . S
C63 O66 1.238 . S
C63 O67 1.241 . S
C64 O57 1.247 1_565 S
C64 O58 1.261 . S
C65 O60 1.259 . S
C65 O62 1.235 . S
O66 Co56 2.021 1_545 S
O66 C63 1.238 . S
O67 Co61 2.052 . S
O67 C63 1.241 . S
O68 Co56 2.137 1_545 S
O68 C59 1.247 . S
O69 Co56 2.244 1_545 S
O69 C59 1.272 . S
O69 Co61 2.135 . S
Co70 O71 2.216 . S
Co70 O72 2.091 . S
Co70 O74 2.004 . S
Co70 O80 2.021 . S
Co70 O82 2.137 . S
Co70 O83 2.244 . S
O71 Co70 2.216 . S
O71 C78 1.247 . S
O72 Co70 2.091 . S
O72 C78 1.261 . S
C73 O82 1.247 . S
C73 O83 1.272 . S
O74 Co70 2.004 . S
O74 C79 1.259 . S
Co75 O76 2.061 . S
Co75 O81 2.052 . S
Co75 O83 2.135 . S
O76 Co75 2.061 . S
O76 C79 1.235 . S
C77 O80 1.238 . S
C77 O81 1.241 . S
C78 O71 1.247 . S
C78 O72 1.261 . S
C79 O74 1.259 . S
C79 O76 1.235 . S
O80 Co70 2.021 . S
O80 C77 1.238 . S
O81 Co75 2.052 . S
O81 C77 1.241 . S
O82 Co70 2.137 . S
O82 C73 1.247 . S
O83 Co70 2.244 . S
O83 C73 1.272 . S
O83 Co75 2.135 . S
Co84 O85 2.216 . S
Co84 O86 2.091 . S
Co84 O88 2.004 . S
Co84 O94 2.021 . S
Co84 O96 2.137 . S
Co84 O97 2.244 . S
O85 Co84 2.216 . S
O85 C92 1.247 . S
O86 Co84 2.091 . S
O86 C92 1.261 . S
C87 O96 1.247 . S
C87 O97 1.272 . S
O88 Co84 2.004 . S
O88 C93 1.259 . S
Co89 O90 2.061 . S
Co89 O95 2.052 . S
Co89 O97 2.135 . S
O90 Co89 2.061 . S
O90 C93 1.235 . S
C91 O94 1.238 . S
C91 O95 1.241 . S
C92 O85 1.247 . S
C92 O86 1.261 . S
C93 O88 1.259 . S
C93 O90 1.235 . S
O94 Co84 2.021 . S
O94 C91 1.238 . S
O95 Co89 2.052 . S
O95 C91 1.241 . S
O96 Co84 2.137 . S
O96 C87 1.247 . S
O97 Co84 2.244 . S
O97 C87 1.272 . S
O97 Co89 2.135 . S
Co98 O99 2.216 1_655 S
Co98 O100 2.091 . S
Co98 O102 2.004 . S
Co98 O108 2.021 1_655 S
Co98 O110 2.137 1_655 S
Co98 O111 2.244 1_655 S
O99 Co98 2.216 1_455 S
O99 C106 1.247 1_455 S
O100 Co98 2.091 . S
O100 C106 1.261 . S
C101 O110 1.247 . S
C101 O111 1.272 . S
O102 Co98 2.004 . S
O102 C107 1.259 . S
Co103 O104 2.061 1_455 S
Co103 O109 2.052 . S
Co103 O111 2.135 . S
O104 Co103 2.061 1_655 S
O104 C107 1.235 . S
C105 O108 1.238 . S
C105 O109 1.241 . S
C106 O99 1.247 1_655 S
C106 O100 1.261 . S
C107 O102 1.259 . S
C107 O104 1.235 . S
O108 Co98 2.021 1_455 S
O108 C105 1.238 . S
O109 Co103 2.052 . S
O109 C105 1.241 . S
O110 Co98 2.137 1_455 S
O110 C101 1.247 . S
O111 Co98 2.244 1_455 S
O111 C101 1.272 . S
O111 Co103 2.135 . S
Co112 O113 2.216 1_565 S
Co112 O114 2.091 . S
Co112 O116 2.004 . S
Co112 O122 2.021 1_565 S
Co112 O124 2.137 1_565 S
Co112 O125 2.244 1_565 S
O113 Co112 2.216 1_545 S
O113 C120 1.247 1_545 S
O114 Co112 2.091 . S
O114 C120 1.261 . S
C115 O124 1.247 . S
C115 O125 1.272 . S
O116 Co112 2.004 . S
O116 C121 1.259 . S
Co117 O118 2.061 1_545 S
Co117 O123 2.052 . S
Co117 O125 2.135 . S
O118 Co117 2.061 1_565 S
O118 C121 1.235 . S
C119 O122 1.238 . S
C119 O123 1.241 . S
C120 O113 1.247 1_565 S
C120 O114 1.261 . S
C121 O116 1.259 . S
C121 O118 1.235 . S
O122 Co112 2.021 1_545 S
O122 C119 1.238 . S
O123 Co117 2.052 . S
O123 C119 1.241 . S
O124 Co112 2.137 1_545 S
O124 C115 1.247 . S
O125 Co112 2.244 1_545 S
O125 C115 1.272 . S
O125 Co117 2.135 . S
Co126 O127 2.216 . S
Co126 O128 2.091 . S
Co126 O130 2.004 . S
Co126 O136 2.021 . S
Co126 O138 2.137 . S
Co126 O139 2.244 . S
O127 Co126 2.216 . S
O127 C134 1.247 . S
O128 Co126 2.091 . S
O128 C134 1.261 . S
C129 O138 1.247 . S
C129 O139 1.272 . S
O130 Co126 2.004 . S
O130 C135 1.259 . S
Co131 O132 2.061 . S
Co131 O137 2.052 . S
Co131 O139 2.135 . S
O132 Co131 2.061 . S
O132 C135 1.235 . S
C133 O136 1.238 . S
C133 O137 1.241 . S
C134 O127 1.247 . S
C134 O128 1.261 . S
C135 O130 1.259 . S
C135 O132 1.235 . S
O136 Co126 2.021 . S
O136 C133 1.238 . S
O137 Co131 2.052 . S
O137 C133 1.241 . S
O138 Co126 2.137 . S
O138 C129 1.247 . S
O139 Co126 2.244 . S
O139 C129 1.272 . S
O139 Co131 2.135 . S
Co140 O141 2.216 . S
Co140 O142 2.091 . S
Co140 O144 2.004 . S
Co140 O150 2.021 . S
Co140 O152 2.137 . S
Co140 O153 2.244 . S
O141 Co140 2.216 . S
O141 C148 1.247 . S
O142 Co140 2.091 . S
O142 C148 1.261 . S
C143 O152 1.247 . S
C143 O153 1.272 . S
O144 Co140 2.004 . S
O144 C149 1.259 . S
Co145 O146 2.061 . S
Co145 O151 2.052 . S
Co145 O153 2.135 . S
O146 Co145 2.061 . S
O146 C149 1.235 . S
C147 O150 1.238 . S
C147 O151 1.241 . S
C148 O141 1.247 . S
C148 O142 1.261 . S
C149 O144 1.259 . S
C149 O146 1.235 . S
O150 Co140 2.021 . S
O150 C147 1.238 . S
O151 Co145 2.052 . S
O151 C147 1.241 . S
O152 Co140 2.137 . S
O152 C143 1.247 . S
O153 Co140 2.244 . S
O153 C143 1.272 . S
O153 Co145 2.135 . S
Co154 O155 2.216 1_655 S
Co154 O156 2.091 . S
Co154 O158 2.004 . S
Co154 O164 2.021 1_655 S
Co154 O166 2.137 1_655 S
Co154 O167 2.244 1_655 S
O155 Co154 2.216 1_455 S
O155 C162 1.247 1_455 S
O156 Co154 2.091 . S
O156 C162 1.261 . S
C157 O166 1.247 . S
C157 O167 1.272 . S
O158 Co154 2.004 . S
O158 C163 1.259 . S
Co159 O160 2.061 1_455 S
Co159 O165 2.052 . S
Co159 O167 2.135 . S
O160 Co159 2.061 1_655 S
O160 C163 1.235 . S
C161 O164 1.238 . S
C161 O165 1.241 . S
C162 O155 1.247 1_655 S
C162 O156 1.261 . S
C163 O158 1.259 . S
C163 O160 1.235 . S
O164 Co154 2.021 1_455 S
O164 C161 1.238 . S
O165 Co159 2.052 . S
O165 C161 1.241 . S
O166 Co154 2.137 1_455 S
O166 C157 1.247 . S
O167 Co154 2.244 1_455 S
O167 C157 1.272 . S
O167 Co159 2.135 . S
Co168 O169 2.216 1_545 S
Co168 O170 2.091 . S
Co168 O172 2.004 . S
Co168 O178 2.021 1_545 S
Co168 O180 2.137 1_545 S
Co168 O181 2.244 1_545 S
O169 Co168 2.216 1_565 S
O169 C176 1.247 1_565 S
O170 Co168 2.091 . S
O170 C176 1.261 . S
C171 O180 1.247 . S
C171 O181 1.272 . S
O172 Co168 2.004 . S
O172 C177 1.259 . S
Co173 O174 2.061 1_565 S
Co173 O179 2.052 . S
Co173 O181 2.135 . S
O174 Co173 2.061 1_545 S
O174 C177 1.235 . S
C175 O178 1.238 . S
C175 O179 1.241 . S
C176 O169 1.247 1_545 S
C176 O170 1.261 . S
C177 O172 1.259 . S
C177 O174 1.235 . S
O178 Co168 2.021 1_565 S
O178 C175 1.238 . S
O179 Co173 2.052 . S
O179 C175 1.241 . S
O180 Co168 2.137 1_565 S
O180 C171 1.247 . S
O181 Co168 2.244 1_565 S
O181 C171 1.272 . S
O181 Co173 2.135 . S
Co182 O183 2.216 . S
Co182 O184 2.091 . S
Co182 O186 2.004 . S
Co182 O192 2.021 . S
Co182 O194 2.137 . S
Co182 O195 2.244 . S
O183 Co182 2.216 . S
O183 C190 1.247 . S
O184 Co182 2.091 . S
O184 C190 1.261 . S
C185 O194 1.247 . S
C185 O195 1.272 . S
O186 Co182 2.004 . S
O186 C191 1.259 . S
Co187 O188 2.061 . S
Co187 O193 2.052 . S
Co187 O195 2.135 . S
O188 Co187 2.061 . S
O188 C191 1.235 . S
C189 O192 1.238 . S
C189 O193 1.241 . S
C190 O183 1.247 . S
C190 O184 1.261 . S
C191 O186 1.259 . S
C191 O188 1.235 . S
O192 Co182 2.021 . S
O192 C189 1.238 . S
O193 Co187 2.052 . S
O193 C189 1.241 . S
O194 Co182 2.137 . S
O194 C185 1.247 . S
O195 Co182 2.244 . S
O195 C185 1.272 . S
O195 Co187 2.135 . S
Co196 O197 2.216 . S
Co196 O198 2.091 . S
Co196 O200 2.004 . S
Co196 O206 2.021 . S
Co196 O208 2.137 . S
Co196 O209 2.244 . S
O197 Co196 2.216 . S
O197 C204 1.247 . S
O198 Co196 2.091 . S
O198 C204 1.261 . S
C199 O208 1.247 . S
C199 O209 1.272 . S
O200 Co196 2.004 . S
O200 C205 1.259 . S
Co201 O202 2.061 . S
Co201 O207 2.052 . S
Co201 O209 2.135 . S
O202 Co201 2.061 . S
O202 C205 1.235 . S
C203 O206 1.238 . S
C203 O207 1.241 . S
C204 O197 1.247 . S
C204 O198 1.261 . S
C205 O200 1.259 . S
C205 O202 1.235 . S
O206 Co196 2.021 . S
O206 C203 1.238 . S
O207 Co201 2.052 . S
O207 C203 1.241 . S
O208 Co196 2.137 . S
O208 C199 1.247 . S
O209 Co196 2.244 . S
O209 C199 1.272 . S
O209 Co201 2.135 . S
Co210 O211 2.216 1_455 S
Co210 O212 2.091 . S
Co210 O214 2.004 . S
Co210 O220 2.021 1_455 S
Co210 O222 2.137 1_455 S
Co210 O223 2.244 1_455 S
O211 Co210 2.216 1_655 S
O211 C218 1.247 1_655 S
O212 Co210 2.091 . S
O212 C218 1.261 . S
C213 O222 1.247 . S
C213 O223 1.272 . S
O214 Co210 2.004 . S
O214 C219 1.259 . S
Co215 O216 2.061 1_655 S
Co215 O221 2.052 . S
Co215 O223 2.135 . S
O216 Co215 2.061 1_455 S
O216 C219 1.235 . S
C217 O220 1.238 . S
C217 O221 1.241 . S
C218 O211 1.247 1_455 S
C218 O212 1.261 . S
C219 O214 1.259 . S
C219 O216 1.235 . S
O220 Co210 2.021 1_655 S
O220 C217 1.238 . S
O221 Co215 2.052 . S
O221 C217 1.241 . S
O222 Co210 2.137 1_655 S
O222 C213 1.247 . S
O223 Co210 2.244 1_655 S
O223 C213 1.272 . S
O223 Co215 2.135 . S
C224 C225 1.349 . S
C224 C226 1.327 . S
C224 H249 0.950 . S
C225 C224 1.349 . S
C225 C241 1.349 . S
C226 C224 1.327 . S
C226 C245 1.429 . S
C226 H250 0.950 . S
C227 C244 1.574 . S
C227 C246 1.368 . S
C227 H251 0.949 . S
H228 C232 0.949 . S
C229 C230 1.349 . S
C229 C231 1.327 . S
C229 H252 0.950 . S
C230 C229 1.349 . S
C230 C242 1.349 . S
C231 C229 1.327 . S
C231 C247 1.429 . S
C231 H253 0.950 . S
C232 H228 0.949 . S
C232 C240 1.574 . S
C232 C248 1.368 . S
H233 C241 0.950 . S
H234 C239 0.950 . S
H235 C240 0.949 . S
H236 C242 0.950 . S
H237 C243 0.950 . S
H238 C244 0.949 . S
C239 H234 0.950 . S
C239 C241 1.327 . S
C239 C245 1.429 . S
C240 C232 1.574 . S
C240 H235 0.949 . S
C240 C246 1.368 . S
C241 C225 1.349 . S
C241 H233 0.950 . S
C241 C239 1.327 . S
C242 C230 1.349 . S
C242 H236 0.950 . S
C242 C243 1.327 . S
C243 H237 0.950 . S
C243 C242 1.327 . S
C243 C247 1.429 . S
C244 C227 1.574 . S
C244 H238 0.949 . S
C244 C248 1.368 . S
C245 C226 1.429 . S
C245 C239 1.429 . S
C245 C246 1.523 . S
C246 C227 1.368 . S
C246 C240 1.368 . S
C246 C245 1.523 . S
C247 C231 1.429 . S
C247 C243 1.429 . S
C247 C248 1.523 . S
C248 C232 1.368 . S
C248 C244 1.368 . S
C248 C247 1.523 . S
H249 C224 0.950 . S
H250 C226 0.950 . S
H251 C227 0.949 . S
H252 C229 0.950 . S
H253 C231 0.950 . S
C254 C255 1.349 . S
C254 C256 1.327 . S
C254 H279 0.950 . S
C255 C254 1.349 . S
C255 C271 1.349 . S
C256 C254 1.327 . S
C256 C275 1.429 . S
C256 H280 0.950 . S
C257 C274 1.574 . S
C257 C276 1.368 . S
C257 H281 0.949 . S
H258 C262 0.949 . S
C259 C260 1.349 . S
C259 C261 1.327 . S
C259 H282 0.950 . S
C260 C259 1.349 . S
C260 C272 1.349 . S
C261 C259 1.327 . S
C261 C277 1.429 . S
C261 H283 0.950 . S
C262 H258 0.949 . S
C262 C270 1.574 . S
C262 C278 1.368 . S
H263 C271 0.950 . S
H264 C269 0.950 . S
H265 C270 0.949 . S
H266 C272 0.950 . S
H267 C273 0.950 . S
H268 C274 0.949 . S
C269 H264 0.950 . S
C269 C271 1.327 . S
C269 C275 1.429 . S
C270 C262 1.574 . S
C270 H265 0.949 . S
C270 C276 1.368 . S
C271 C255 1.349 . S
C271 H263 0.950 . S
C271 C269 1.327 . S
C272 C260 1.349 . S
C272 H266 0.950 . S
C272 C273 1.327 . S
C273 H267 0.950 . S
C273 C272 1.327 . S
C273 C277 1.429 . S
C274 C257 1.574 . S
C274 H268 0.949 . S
C274 C278 1.368 . S
C275 C256 1.429 . S
C275 C269 1.429 . S
C275 C276 1.523 . S
C276 C257 1.368 . S
C276 C270 1.368 . S
C276 C275 1.523 . S
C277 C261 1.429 . S
C277 C273 1.429 . S
C277 C278 1.523 . S
C278 C262 1.368 . S
C278 C274 1.368 . S
C278 C277 1.523 . S
H279 C254 0.950 . S
H280 C256 0.950 . S
H281 C257 0.949 . S
H282 C259 0.950 . S
H283 C261 0.950 . S
C284 C285 1.349 . S
C284 C286 1.327 . S
C284 H309 0.950 . S
C285 C284 1.349 . S
C285 C301 1.349 . S
C286 C284 1.327 . S
C286 C305 1.429 . S
C286 H310 0.950 . S
C287 C304 1.574 . S
C287 C306 1.368 . S
C287 H311 0.949 . S
H288 C292 0.949 . S
C289 C290 1.349 . S
C289 C291 1.327 . S
C289 H312 0.950 . S
C290 C289 1.349 . S
C290 C302 1.349 . S
C291 C289 1.327 . S
C291 C307 1.429 . S
C291 H313 0.950 . S
C292 H288 0.949 . S
C292 C300 1.574 . S
C292 C308 1.368 . S
H293 C301 0.950 . S
H294 C299 0.950 . S
H295 C300 0.949 . S
H296 C302 0.950 . S
H297 C303 0.950 . S
H298 C304 0.949 . S
C299 H294 0.950 . S
C299 C301 1.327 . S
C299 C305 1.429 . S
C300 C292 1.574 . S
C300 H295 0.949 . S
C300 C306 1.368 . S
C301 C285 1.349 . S
C301 H293 0.950 . S
C301 C299 1.327 . S
C302 C290 1.349 . S
C302 H296 0.950 . S
C302 C303 1.327 . S
C303 H297 0.950 . S
C303 C302 1.327 . S
C303 C307 1.429 . S
C304 C287 1.574 . S
C304 H298 0.949 . S
C304 C308 1.368 . S
C305 C286 1.429 . S
C305 C299 1.429 . S
C305 C306 1.523 . S
C306 C287 1.368 . S
C306 C300 1.368 . S
C306 C305 1.523 . S
C307 C291 1.429 . S
C307 C303 1.429 . S
C307 C308 1.523 . S
C308 C292 1.368 . S
C308 C304 1.368 . S
C308 C307 1.523 . S
H309 C284 0.950 . S
H310 C286 0.950 . S
H311 C287 0.949 . S
H312 C289 0.950 . S
H313 C291 0.950 . S
C314 C315 1.349 . S
C314 C316 1.327 . S
C314 H339 0.950 . S
C315 C314 1.349 . S
C315 C331 1.349 . S
C316 C314 1.327 . S
C316 C335 1.429 . S
C316 H340 0.950 . S
C317 C334 1.574 . S
C317 C336 1.368 . S
C317 H341 0.949 . S
H318 C322 0.949 . S
C319 C320 1.349 . S
C319 C321 1.327 . S
C319 H342 0.950 . S
C320 C319 1.349 . S
C320 C332 1.349 . S
C321 C319 1.327 . S
C321 C337 1.429 . S
C321 H343 0.950 . S
C322 H318 0.949 . S
C322 C330 1.574 . S
C322 C338 1.368 . S
H323 C331 0.950 . S
H324 C329 0.950 . S
H325 C330 0.949 . S
H326 C332 0.950 . S
H327 C333 0.950 . S
H328 C334 0.949 . S
C329 H324 0.950 . S
C329 C331 1.327 . S
C329 C335 1.429 . S
C330 C322 1.574 . S
C330 H325 0.949 . S
C330 C336 1.368 . S
C331 C315 1.349 . S
C331 H323 0.950 . S
C331 C329 1.327 . S
C332 C320 1.349 . S
C332 H326 0.950 . S
C332 C333 1.327 . S
C333 H327 0.950 . S
C333 C332 1.327 . S
C333 C337 1.429 . S
C334 C317 1.574 . S
C334 H328 0.949 . S
C334 C338 1.368 . S
C335 C316 1.429 . S
C335 C329 1.429 . S
C335 C336 1.523 . S
C336 C317 1.368 . S
C336 C330 1.368 . S
C336 C335 1.523 . S
C337 C321 1.429 . S
C337 C333 1.429 . S
C337 C338 1.523 . S
C338 C322 1.368 . S
C338 C334 1.368 . S
C338 C337 1.523 . S
H339 C314 0.950 . S
H340 C316 0.950 . S
H341 C317 0.949 . S
H342 C319 0.950 . S
H343 C321 0.950 . S
C344 C345 1.349 . S
C344 C346 1.327 . S
C344 H369 0.950 . S
C345 C344 1.349 . S
C345 C361 1.349 . S
C346 C344 1.327 . S
C346 C365 1.429 . S
C346 H370 0.950 . S
C347 C364 1.574 . S
C347 C366 1.368 . S
C347 H371 0.949 . S
H348 C352 0.949 . S
C349 C350 1.349 . S
C349 C351 1.327 . S
C349 H372 0.950 . S
C350 C349 1.349 . S
C350 C362 1.349 . S
C351 C349 1.327 . S
C351 C367 1.429 . S
C351 H373 0.950 . S
C352 H348 0.949 . S
C352 C360 1.574 . S
C352 C368 1.368 . S
H353 C361 0.950 . S
H354 C359 0.950 . S
H355 C360 0.949 . S
H356 C362 0.950 . S
H357 C363 0.950 . S
H358 C364 0.949 . S
C359 H354 0.950 . S
C359 C361 1.327 . S
C359 C365 1.429 . S
C360 C352 1.574 . S
C360 H355 0.949 . S
C360 C366 1.368 . S
C361 C345 1.349 . S
C361 H353 0.950 . S
C361 C359 1.327 . S
C362 C350 1.349 . S
C362 H356 0.950 . S
C362 C363 1.327 . S
C363 H357 0.950 . S
C363 C362 1.327 . S
C363 C367 1.429 . S
C364 C347 1.574 . S
C364 H358 0.949 . S
C364 C368 1.368 . S
C365 C346 1.429 . S
C365 C359 1.429 . S
C365 C366 1.523 . S
C366 C347 1.368 . S
C366 C360 1.368 . S
C366 C365 1.523 . S
C367 C351 1.429 . S
C367 C363 1.429 . S
C367 C368 1.523 . S
C368 C352 1.368 . S
C368 C364 1.368 . S
C368 C367 1.523 . S
H369 C344 0.950 . S
H370 C346 0.950 . S
H371 C347 0.949 . S
H372 C349 0.950 . S
H373 C351 0.950 . S
C374 C375 1.349 . S
C374 C376 1.327 . S
C374 H399 0.950 . S
C375 C374 1.349 . S
C375 C391 1.349 . S
C376 C374 1.327 . S
C376 C395 1.429 . S
C376 H400 0.950 . S
C377 C394 1.574 . S
C377 C396 1.368 . S
C377 H401 0.949 . S
H378 C382 0.949 . S
C379 C380 1.349 . S
C379 C381 1.327 . S
C379 H402 0.950 . S
C380 C379 1.349 . S
C380 C392 1.349 . S
C381 C379 1.327 . S
C381 C397 1.429 . S
C381 H403 0.950 . S
C382 H378 0.949 . S
C382 C390 1.574 . S
C382 C398 1.368 . S
H383 C391 0.950 . S
H384 C389 0.950 . S
H385 C390 0.949 . S
H386 C392 0.950 . S
H387 C393 0.950 . S
H388 C394 0.949 . S
C389 H384 0.950 . S
C389 C391 1.327 . S
C389 C395 1.429 . S
C390 C382 1.574 . S
C390 H385 0.949 . S
C390 C396 1.368 . S
C391 C375 1.349 . S
C391 H383 0.950 . S
C391 C389 1.327 . S
C392 C380 1.349 . S
C392 H386 0.950 . S
C392 C393 1.327 . S
C393 H387 0.950 . S
C393 C392 1.327 . S
C393 C397 1.429 . S
C394 C377 1.574 . S
C394 H388 0.949 . S
C394 C398 1.368 . S
C395 C376 1.429 . S
C395 C389 1.429 . S
C395 C396 1.523 . S
C396 C377 1.368 . S
C396 C390 1.368 . S
C396 C395 1.523 . S
C397 C381 1.429 . S
C397 C393 1.429 . S
C397 C398 1.523 . S
C398 C382 1.368 . S
C398 C394 1.368 . S
C398 C397 1.523 . S
H399 C374 0.950 . S
H400 C376 0.950 . S
H401 C377 0.949 . S
H402 C379 0.950 . S
H403 C381 0.950 . S
C404 C405 1.349 . S
C404 C406 1.327 . S
C404 H429 0.950 . S
C405 C404 1.349 . S
C405 C421 1.349 . S
C406 C404 1.327 . S
C406 C425 1.429 . S
C406 H430 0.950 . S
C407 C424 1.574 . S
C407 C426 1.368 . S
C407 H431 0.949 . S
H408 C412 0.949 . S
C409 C410 1.349 . S
C409 C411 1.327 . S
C409 H432 0.950 . S
C410 C409 1.349 . S
C410 C422 1.349 . S
C411 C409 1.327 . S
C411 C427 1.429 . S
C411 H433 0.950 . S
C412 H408 0.949 . S
C412 C420 1.574 . S
C412 C428 1.368 . S
H413 C421 0.950 . S
H414 C419 0.950 . S
H415 C420 0.949 . S
H416 C422 0.950 . S
H417 C423 0.950 . S
H418 C424 0.949 . S
C419 H414 0.950 . S
C419 C421 1.327 . S
C419 C425 1.429 . S
C420 C412 1.574 . S
C420 H415 0.949 . S
C420 C426 1.368 . S
C421 C405 1.349 . S
C421 H413 0.950 . S
C421 C419 1.327 . S
C422 C410 1.349 . S
C422 H416 0.950 . S
C422 C423 1.327 . S
C423 H417 0.950 . S
C423 C422 1.327 . S
C423 C427 1.429 . S
C424 C407 1.574 . S
C424 H418 0.949 . S
C424 C428 1.368 . S
C425 C406 1.429 . S
C425 C419 1.429 . S
C425 C426 1.523 . S
C426 C407 1.368 . S
C426 C420 1.368 . S
C426 C425 1.523 . S
C427 C411 1.429 . S
C427 C423 1.429 . S
C427 C428 1.523 . S
C428 C412 1.368 . S
C428 C424 1.368 . S
C428 C427 1.523 . S
H429 C404 0.950 . S
H430 C406 0.950 . S
H431 C407 0.949 . S
H432 C409 0.950 . S
H433 C411 0.950 . S
C434 C435 1.349 . S
C434 C436 1.327 . S
C434 H459 0.950 . S
C435 C434 1.349 . S
C435 C451 1.349 . S
C436 C434 1.327 . S
C436 C455 1.429 . S
C436 H460 0.950 . S
C437 C454 1.574 . S
C437 C456 1.368 . S
C437 H461 0.949 . S
H438 C442 0.949 . S
C439 C440 1.349 . S
C439 C441 1.327 . S
C439 H462 0.950 . S
C440 C439 1.349 . S
C440 C452 1.349 . S
C441 C439 1.327 . S
C441 C457 1.429 . S
C441 H463 0.950 . S
C442 H438 0.949 . S
C442 C450 1.574 . S
C442 C458 1.368 . S
H443 C451 0.950 . S
H444 C449 0.950 . S
H445 C450 0.949 . S
H446 C452 0.950 . S
H447 C453 0.950 . S
H448 C454 0.949 . S
C449 H444 0.950 . S
C449 C451 1.327 . S
C449 C455 1.429 . S
C450 C442 1.574 . S
C450 H445 0.949 . S
C450 C456 1.368 . S
C451 C435 1.349 . S
C451 H443 0.950 . S
C451 C449 1.327 . S
C452 C440 1.349 . S
C452 H446 0.950 . S
C452 C453 1.327 . S
C453 H447 0.950 . S
C453 C452 1.327 . S
C453 C457 1.429 . S
C454 C437 1.574 . S
C454 H448 0.949 . S
C454 C458 1.368 . S
C455 C436 1.429 . S
C455 C449 1.429 . S
C455 C456 1.523 . S
C456 C437 1.368 . S
C456 C450 1.368 . S
C456 C455 1.523 . S
C457 C441 1.429 . S
C457 C453 1.429 . S
C457 C458 1.523 . S
C458 C442 1.368 . S
C458 C454 1.368 . S
C458 C457 1.523 . S
H459 C434 0.950 . S
H460 C436 0.950 . S
H461 C437 0.949 . S
H462 C439 0.950 . S
H463 C441 0.950 . S
C464 C465 1.320 1_565 S
C464 C466 1.327 . S
C464 H489 0.950 . S
C465 C464 1.320 1_545 S
C465 C481 1.374 . S
C466 C464 1.327 . S
C466 C485 1.429 . S
C466 H490 0.950 . S
C467 C484 1.574 . S
C467 C486 1.368 1_545 S
C467 H491 0.949 . S
H468 C472 0.949 . S
C469 C470 1.375 . S
C469 C471 1.324 1_565 S
C469 H492 0.927 1_565 S
C470 C469 1.375 . S
C470 C482 1.349 . S
C471 C469 1.324 1_545 S
C471 C487 1.429 1_545 S
C471 H493 0.950 . S
C472 H468 0.949 . S
C472 C480 1.574 . S
C472 C488 1.368 . S
H473 C481 0.950 . S
H474 C479 0.950 . S
H475 C480 0.949 . S
H476 C482 0.950 . S
H477 C483 0.950 . S
H478 C484 0.949 . S
C479 H474 0.950 . S
C479 C481 1.327 . S
C479 C485 1.429 1_545 S
C480 C472 1.574 . S
C480 H475 0.949 . S
C480 C486 1.368 . S
C481 C465 1.374 . S
C481 H473 0.950 . S
C481 C479 1.327 . S
C482 C470 1.349 . S
C482 H476 0.950 . S
C482 C483 1.327 . S
C483 H477 0.950 . S
C483 C482 1.327 . S
C483 C487 1.429 . S
C484 C467 1.574 . S
C484 H478 0.949 . S
C484 C488 1.368 1_545 S
C485 C466 1.429 . S
C485 C479 1.429 1_565 S
C485 C486 1.523 . S
C486 C467 1.368 1_565 S
C486 C480 1.368 . S
C486 C485 1.523 . S
C487 C471 1.429 1_565 S
C487 C483 1.429 . S
C487 C488 1.523 . S
C488 C472 1.368 . S
C488 C484 1.368 1_565 S
C488 C487 1.523 . S
H489 C464 0.950 . S
H490 C466 0.950 . S
H491 C467 0.949 . S
H492 C469 0.927 1_545 S
H493 C471 0.950 . S
C494 C495 1.349 . S
C494 C496 1.327 . S
C494 H519 0.950 . S
C495 C494 1.349 . S
C495 C511 1.349 . S
C496 C494 1.327 . S
C496 C515 1.429 . S
C496 H520 0.950 . S
C497 C514 1.574 . S
C497 C516 1.368 . S
C497 H521 0.949 . S
H498 C502 0.949 . S
C499 C500 1.349 . S
C499 C501 1.327 . S
C499 H522 0.950 . S
C500 C499 1.349 . S
C500 C512 1.349 . S
C501 C499 1.327 . S
C501 C517 1.429 . S
C501 H523 0.950 . S
C502 H498 0.949 . S
C502 C510 1.574 . S
C502 C518 1.368 . S
H503 C511 0.950 . S
H504 C509 0.950 . S
H505 C510 0.949 . S
H506 C512 0.950 . S
H507 C513 0.950 . S
H508 C514 0.949 . S
C509 H504 0.950 . S
C509 C511 1.327 . S
C509 C515 1.429 . S
C510 C502 1.574 . S
C510 H505 0.949 . S
C510 C516 1.368 . S
C511 C495 1.349 . S
C511 H503 0.950 . S
C511 C509 1.327 . S
C512 C500 1.349 . S
C512 H506 0.950 . S
C512 C513 1.327 . S
C513 H507 0.950 . S
C513 C512 1.327 . S
C513 C517 1.429 . S
C514 C497 1.574 . S
C514 H508 0.949 . S
C514 C518 1.368 . S
C515 C496 1.429 . S
C515 C509 1.429 . S
C515 C516 1.523 . S
C516 C497 1.368 . S
C516 C510 1.368 . S
C516 C515 1.523 . S
C517 C501 1.429 . S
C517 C513 1.429 . S
C517 C518 1.523 . S
C518 C502 1.368 . S
C518 C514 1.368 . S
C518 C517 1.523 . S
H519 C494 0.950 . S
H520 C496 0.950 . S
H521 C497 0.949 . S
H522 C499 0.950 . S
H523 C501 0.950 . S
C524 C525 1.349 . S
C524 C526 1.327 . S
C524 H549 0.950 . S
C525 C524 1.349 . S
C525 C541 1.349 . S
C526 C524 1.327 . S
C526 C545 1.429 . S
C526 H550 0.950 . S
C527 C544 1.574 . S
C527 C546 1.368 . S
C527 H551 0.949 . S
H528 C532 0.949 . S
C529 C530 1.349 . S
C529 C531 1.327 . S
C529 H552 0.950 . S
C530 C529 1.349 . S
C530 C542 1.349 . S
C531 C529 1.327 . S
C531 C547 1.429 . S
C531 H553 0.950 . S
C532 H528 0.949 . S
C532 C540 1.574 . S
C532 C548 1.368 . S
H533 C541 0.950 . S
H534 C539 0.950 . S
H535 C540 0.949 . S
H536 C542 0.950 . S
H537 C543 0.950 . S
H538 C544 0.949 . S
C539 H534 0.950 . S
C539 C541 1.327 . S
C539 C545 1.429 . S
C540 C532 1.574 . S
C540 H535 0.949 . S
C540 C546 1.368 . S
C541 C525 1.349 . S
C541 H533 0.950 . S
C541 C539 1.327 . S
C542 C530 1.349 . S
C542 H536 0.950 . S
C542 C543 1.327 . S
C543 H537 0.950 . S
C543 C542 1.327 . S
C543 C547 1.429 . S
C544 C527 1.574 . S
C544 H538 0.949 . S
C544 C548 1.368 . S
C545 C526 1.429 . S
C545 C539 1.429 . S
C545 C546 1.523 . S
C546 C527 1.368 . S
C546 C540 1.368 . S
C546 C545 1.523 . S
C547 C531 1.429 . S
C547 C543 1.429 . S
C547 C548 1.523 . S
C548 C532 1.368 . S
C548 C544 1.368 . S
C548 C547 1.523 . S
H549 C524 0.950 . S
H550 C526 0.950 . S
H551 C527 0.949 . S
H552 C529 0.950 . S
H553 C531 0.950 . S
C554 C555 1.357 . S
C554 C556 1.327 . S
C554 H579 0.950 . S
C555 C554 1.357 . S
C555 C571 1.340 1_455 S
C556 C554 1.327 . S
C556 C575 1.429 1_455 S
C556 H580 0.950 . S
C557 C574 1.574 . S
C557 C576 1.368 . S
C557 H581 0.949 . S
H558 C562 0.949 . S
C559 C560 1.349 . S
C559 C561 1.327 . S
C559 H582 0.950 . S
C560 C559 1.349 . S
C560 C572 1.349 . S
C561 C559 1.327 . S
C561 C577 1.429 . S
C561 H583 0.950 . S
C562 H558 0.949 . S
C562 C570 1.574 . S
C562 C578 1.368 1_455 S
H563 C571 0.950 1_554 S
H564 C569 0.950 . S
H565 C570 0.949 . S
H566 C572 0.950 1_455 S
H567 C573 0.950 1_455 S
H568 C574 0.949 . S
C569 H564 0.950 . S
C569 C571 1.327 . S
C569 C575 1.429 . S
C570 C562 1.574 . S
C570 H565 0.949 . S
C570 C576 1.368 1_455 S
C571 C555 1.340 1_655 S
C571 H563 0.950 1_556 S
C571 C569 1.327 . S
C572 C560 1.349 . S
C572 H566 0.950 1_655 S
C572 C573 1.327 . S
C573 H567 0.950 1_655 S
C573 C572 1.327 . S
C573 C577 1.429 . S
C574 C557 1.574 . S
C574 H568 0.949 . S
C574 C578 1.368 . S
C575 C556 1.429 1_655 S
C575 C569 1.429 . S
C575 C576 1.523 . S
C576 C557 1.368 . S
C576 C570 1.368 1_655 S
C576 C575 1.523 . S
C577 C561 1.429 . S
C577 C573 1.429 . S
C577 C578 1.523 . S
C578 C562 1.368 1_655 S
C578 C574 1.368 . S
C578 C577 1.523 . S
H579 C554 0.950 . S
H580 C556 0.950 . S
H581 C557 0.949 . S
H582 C559 0.950 . S
H583 C561 0.950 . S
C584 C585 1.361 . S
C584 C586 1.327 . S
C584 H609 0.950 . S
C585 C584 1.361 . S
C585 C601 1.335 1_565 S
C586 C584 1.327 . S
C586 C605 1.429 1_565 S
C586 H610 0.950 . S
C587 C604 1.574 . S
C587 C606 1.368 . S
C587 H611 0.949 . S
H588 C592 0.949 . S
C589 C590 1.349 . S
C589 C591 1.327 . S
C589 H612 0.950 . S
C590 C589 1.349 . S
C590 C602 1.349 1_545 S
C591 C589 1.327 . S
C591 C607 1.429 . S
C591 H613 0.950 . S
C592 H588 0.949 . S
C592 C600 1.574 . S
C592 C608 1.368 1_565 S
H593 C601 0.950 . S
H594 C599 0.950 . S
H595 C600 0.949 . S
H596 C602 0.950 . S
H597 C603 0.950 . S
H598 C604 0.949 . S
C599 H594 0.950 . S
C599 C601 1.327 . S
C599 C605 1.429 . S
C600 C592 1.574 . S
C600 H595 0.949 . S
C600 C606 1.368 1_565 S
C601 C585 1.335 1_545 S
C601 H593 0.950 . S
C601 C599 1.327 . S
C602 C590 1.349 1_565 S
C602 H596 0.950 . S
C602 C603 1.327 . S
C603 H597 0.950 . S
C603 C602 1.327 . S
C603 C607 1.429 1_565 S
C604 C587 1.574 . S
C604 H598 0.949 . S
C604 C608 1.368 . S
C605 C586 1.429 1_545 S
C605 C599 1.429 . S
C605 C606 1.523 . S
C606 C587 1.368 . S
C606 C600 1.368 1_545 S
C606 C605 1.523 . S
C607 C591 1.429 . S
C607 C603 1.429 1_545 S
C607 C608 1.523 . S
C608 C592 1.368 1_545 S
C608 C604 1.368 . S
C608 C607 1.523 . S
H609 C584 0.950 . S
H610 C586 0.950 . S
H611 C587 0.949 . S
H612 C589 0.950 . S
H613 C591 0.950 . S
C614 C615 1.349 . S
C614 C616 1.327 . S
C614 H639 0.950 . S
C615 C614 1.349 . S
C615 C631 1.349 . S
C616 C614 1.327 . S
C616 C635 1.429 . S
C616 H640 0.950 . S
C617 C634 1.574 . S
C617 C636 1.368 . S
C617 H641 0.949 . S
H618 C622 0.949 . S
C619 C620 1.349 . S
C619 C621 1.327 . S
C619 H642 0.950 . S
C620 C619 1.349 . S
C620 C632 1.349 . S
C621 C619 1.327 . S
C621 C637 1.429 . S
C621 H643 0.950 . S
C622 H618 0.949 . S
C622 C630 1.574 . S
C622 C638 1.368 . S
H623 C631 0.950 . S
H624 C629 0.950 . S
H625 C630 0.949 . S
H626 C632 0.950 . S
H627 C633 0.950 . S
H628 C634 0.949 . S
C629 H624 0.950 . S
C629 C631 1.327 . S
C629 C635 1.429 . S
C630 C622 1.574 . S
C630 H625 0.949 . S
C630 C636 1.368 . S
C631 C615 1.349 . S
C631 H623 0.950 . S
C631 C629 1.327 . S
C632 C620 1.349 . S
C632 H626 0.950 . S
C632 C633 1.327 . S
C633 H627 0.950 . S
C633 C632 1.327 . S
C633 C637 1.429 . S
C634 C617 1.574 . S
C634 H628 0.949 . S
C634 C638 1.368 . S
C635 C616 1.429 . S
C635 C629 1.429 . S
C635 C636 1.523 . S
C636 C617 1.368 . S
C636 C630 1.368 . S
C636 C635 1.523 . S
C637 C621 1.429 . S
C637 C633 1.429 . S
C637 C638 1.523 . S
C638 C622 1.368 . S
C638 C634 1.368 . S
C638 C637 1.523 . S
H639 C614 0.950 . S
H640 C616 0.950 . S
H641 C617 0.949 . S
H642 C619 0.950 . S
H643 C621 0.950 . S
C644 C645 1.349 . S
C644 C646 1.327 . S
C644 H669 0.950 . S
C645 C644 1.349 . S
C645 C661 1.349 . S
C646 C644 1.327 . S
C646 C665 1.429 . S
C646 H670 0.950 . S
C647 C664 1.574 . S
C647 C666 1.368 . S
C647 H671 0.949 . S
H648 C652 0.949 . S
C649 C650 1.349 . S
C649 C651 1.327 . S
C649 H672 0.950 . S
C650 C649 1.349 . S
C650 C662 1.349 . S
C651 C649 1.327 . S
C651 C667 1.429 . S
C651 H673 0.950 . S
C652 H648 0.949 . S
C652 C660 1.574 . S
C652 C668 1.368 . S
H653 C661 0.950 . S
H654 C659 0.950 . S
H655 C660 0.949 . S
H656 C662 0.950 . S
H657 C663 0.950 . S
H658 C664 0.949 . S
C659 H654 0.950 . S
C659 C661 1.327 . S
C659 C665 1.429 . S
C660 C652 1.574 . S
C660 H655 0.949 . S
C660 C666 1.368 . S
C661 C645 1.349 . S
C661 H653 0.950 . S
C661 C659 1.327 . S
C662 C650 1.349 . S
C662 H656 0.950 . S
C662 C663 1.327 . S
C663 H657 0.950 . S
C663 C662 1.327 . S
C663 C667 1.429 . S
C664 C647 1.574 . S
C664 H658 0.949 . S
C664 C668 1.368 . S
C665 C646 1.429 . S
C665 C659 1.429 . S
C665 C666 1.523 . S
C666 C647 1.368 . S
C666 C660 1.368 . S
C666 C665 1.523 . S
C667 C651 1.429 . S
C667 C663 1.429 . S
C667 C668 1.523 . S
C668 C652 1.368 . S
C668 C664 1.368 . S
C668 C667 1.523 . S
H669 C644 0.950 . S
H670 C646 0.950 . S
H671 C647 0.949 . S
H672 C649 0.950 . S
H673 C651 0.950 . S
C674 C675 1.361 . S
C674 C676 1.327 . S
C674 H699 0.950 . S
C675 C674 1.361 . S
C675 C691 1.334 1_655 S
C676 C674 1.327 . S
C676 C695 1.429 1_655 S
C676 H700 0.950 . S
C677 C694 1.574 . S
C677 C696 1.368 . S
C677 H701 0.949 . S
H678 C682 0.949 1_655 S
C679 C680 1.349 . S
C679 C681 1.327 . S
C679 H702 0.950 . S
C680 C679 1.349 . S
C680 C692 1.349 . S
C681 C679 1.327 . S
C681 C697 1.429 . S
C681 H703 0.950 . S
C682 H678 0.949 1_455 S
C682 C690 1.574 1_455 S
C682 C698 1.368 . S
H683 C691 0.950 . S
H684 C689 0.950 . S
H685 C690 0.949 . S
H686 C692 0.950 . S
H687 C693 0.948 1_655 S
H688 C694 0.949 . S
C689 H684 0.950 . S
C689 C691 1.327 . S
C689 C695 1.429 . S
C690 C682 1.574 1_655 S
C690 H685 0.949 . S
C690 C696 1.368 1_655 S
C691 C675 1.334 1_455 S
C691 H683 0.950 . S
C691 C689 1.327 . S
C692 C680 1.349 . S
C692 H686 0.950 . S
C692 C693 1.327 . S
C693 H687 0.948 1_455 S
C693 C692 1.327 . S
C693 C697 1.429 . S
C694 C677 1.574 . S
C694 H688 0.949 . S
C694 C698 1.368 . S
C695 C676 1.429 1_455 S
C695 C689 1.429 . S
C695 C696 1.523 . S
C696 C677 1.368 . S
C696 C690 1.368 1_455 S
C696 C695 1.523 . S
C697 C681 1.429 . S
C697 C693 1.429 . S
C697 C698 1.523 . S
C698 C682 1.368 . S
C698 C694 1.368 . S
C698 C697 1.523 . S
H699 C674 0.950 . S
H700 C676 0.950 . S
H701 C677 0.949 . S
H702 C679 0.950 . S
H703 C681 0.950 . S
C704 C705 1.349 . S
C704 C706 1.327 1_545 S
C704 H729 0.950 1_545 S
C705 C704 1.349 . S
C705 C721 1.349 . S
C706 C704 1.327 1_565 S
C706 C725 1.429 1_565 S
C706 H730 0.950 . S
C707 C724 1.574 . S
C707 C726 1.368 . S
C707 H731 0.949 . S
H708 C712 0.949 . S
C709 C710 1.319 1_545 S
C709 C711 1.327 . S
C709 H732 0.950 . S
C710 C709 1.319 1_565 S
C710 C722 1.375 . S
C711 C709 1.327 . S
C711 C727 1.429 . S
C711 H733 0.950 . S
C712 H708 0.949 . S
C712 C720 1.574 . S
C712 C728 1.368 1_565 S
H713 C721 0.950 . S
H714 C719 0.950 . S
H715 C720 0.949 . S
H716 C722 0.950 . S
H717 C723 0.950 . S
H718 C724 0.949 . S
C719 H714 0.950 . S
C719 C721 1.327 . S
C719 C725 1.429 . S
C720 C712 1.574 . S
C720 H715 0.949 . S
C720 C726 1.368 1_565 S
C721 C705 1.349 . S
C721 H713 0.950 . S
C721 C719 1.327 . S
C722 C710 1.375 . S
C722 H716 0.950 . S
C722 C723 1.327 . S
C723 H717 0.950 . S
C723 C722 1.327 . S
C723 C727 1.429 1_565 S
C724 C707 1.574 . S
C724 H718 0.949 . S
C724 C728 1.368 . S
C725 C706 1.429 1_545 S
C725 C719 1.429 . S
C725 C726 1.523 . S
C726 C707 1.368 . S
C726 C720 1.368 1_545 S
C726 C725 1.523 . S
C727 C711 1.429 . S
C727 C723 1.429 1_545 S
C727 C728 1.523 . S
C728 C712 1.368 1_545 S
C728 C724 1.368 . S
C728 C727 1.523 . S
H729 C704 0.950 1_565 S
H730 C706 0.950 . S
H731 C707 0.949 . S
H732 C709 0.950 . S
H733 C711 0.950 . S
C734 C735 1.349 . S
C734 C736 1.327 . S
C734 H759 0.950 . S
C735 C734 1.349 . S
C735 C751 1.349 . S
C736 C734 1.327 . S
C736 C755 1.429 . S
C736 H760 0.950 . S
C737 C754 1.574 . S
C737 C756 1.368 . S
C737 H761 0.949 . S
H738 C742 0.949 . S
C739 C740 1.349 . S
C739 C741 1.327 . S
C739 H762 0.950 . S
C740 C739 1.349 . S
C740 C752 1.349 . S
C741 C739 1.327 . S
C741 C757 1.429 . S
C741 H763 0.950 . S
C742 H738 0.949 . S
C742 C750 1.574 . S
C742 C758 1.368 . S
H743 C751 0.950 . S
H744 C749 0.950 . S
H745 C750 0.949 . S
H746 C752 0.950 1_556 S
H747 C753 0.950 . S
H748 C754 0.949 . S
C749 H744 0.950 . S
C749 C751 1.327 . S
C749 C755 1.429 . S
C750 C742 1.574 . S
C750 H745 0.949 . S
C750 C756 1.368 . S
C751 C735 1.349 . S
C751 H743 0.950 . S
C751 C749 1.327 . S
C752 C740 1.349 . S
C752 H746 0.950 1_554 S
C752 C753 1.327 . S
C753 H747 0.950 . S
C753 C752 1.327 . S
C753 C757 1.429 . S
C754 C737 1.574 . S
C754 H748 0.949 . S
C754 C758 1.368 . S
C755 C736 1.429 . S
C755 C749 1.429 . S
C755 C756 1.523 . S
C756 C737 1.368 . S
C756 C750 1.368 . S
C756 C755 1.523 . S
C757 C741 1.429 . S
C757 C753 1.429 . S
C757 C758 1.523 . S
C758 C742 1.368 . S
C758 C754 1.368 . S
C758 C757 1.523 . S
H759 C734 0.950 . S
H760 C736 0.950 . S
H761 C737 0.949 . S
H762 C739 0.950 . S
H763 C741 0.950 . S
C764 C765 1.349 . S
C764 C766 1.327 . S
C764 H789 0.950 . S
C765 C764 1.349 . S
C765 C781 1.349 . S
C766 C764 1.327 . S
C766 C785 1.429 . S
C766 H790 0.950 . S
C767 C784 1.574 . S
C767 C786 1.368 . S
C767 H791 0.949 . S
H768 C772 0.949 . S
C769 C770 1.349 . S
C769 C771 1.327 . S
C769 H792 0.950 . S
C770 C769 1.349 . S
C770 C782 1.349 . S
C771 C769 1.327 . S
C771 C787 1.429 . S
C771 H793 0.950 . S
C772 H768 0.949 . S
C772 C780 1.574 . S
C772 C788 1.368 . S
H773 C781 0.950 . S
H774 C779 0.950 . S
H775 C780 0.949 . S
H776 C782 0.950 . S
H777 C783 0.950 . S
H778 C784 0.949 . S
C779 H774 0.950 . S
C779 C781 1.327 . S
C779 C785 1.429 . S
C780 C772 1.574 . S
C780 H775 0.949 . S
C780 C786 1.368 . S
C781 C765 1.349 . S
C781 H773 0.950 . S
C781 C779 1.327 . S
C782 C770 1.349 . S
C782 H776 0.950 . S
C782 C783 1.327 . S
C783 H777 0.950 . S
C783 C782 1.327 . S
C783 C787 1.429 . S
C784 C767 1.574 . S
C784 H778 0.949 . S
C784 C788 1.368 . S
C785 C766 1.429 . S
C785 C779 1.429 . S
C785 C786 1.523 . S
C786 C767 1.368 . S
C786 C780 1.368 . S
C786 C785 1.523 . S
C787 C771 1.429 . S
C787 C783 1.429 . S
C787 C788 1.523 . S
C788 C772 1.368 . S
C788 C784 1.368 . S
C788 C787 1.523 . S
H789 C764 0.950 . S
H790 C766 0.950 . S
H791 C767 0.949 . S
H792 C769 0.950 . S
H793 C771 0.950 . S
C794 C795 1.356 . S
C794 C796 1.327 . S
C794 H819 0.950 . S
C795 C794 1.356 . S
C795 C811 1.340 1_655 S
C796 C794 1.327 . S
C796 C815 1.429 1_655 S
C796 H820 0.950 . S
C797 C814 1.574 . S
C797 C816 1.368 . S
C797 H821 0.949 . S
H798 C802 0.949 . S
C799 C800 1.349 . S
C799 C801 1.327 . S
C799 H822 0.950 . S
C800 C799 1.349 . S
C800 C812 1.349 . S
C801 C799 1.327 . S
C801 C817 1.429 . S
C801 H823 0.950 . S
C802 H798 0.949 . S
C802 C810 1.574 . S
C802 C818 1.368 1_655 S
H803 C811 0.950 . S
H804 C809 0.950 . S
H805 C810 0.949 . S
H806 C812 0.950 1_655 S
H807 C813 0.950 1_655 S
H808 C814 0.949 . S
C809 H804 0.950 . S
C809 C811 1.327 . S
C809 C815 1.429 . S
C810 C802 1.574 . S
C810 H805 0.949 . S
C810 C816 1.368 1_655 S
C811 C795 1.340 1_455 S
C811 H803 0.950 . S
C811 C809 1.327 . S
C812 C800 1.349 . S
C812 H806 0.950 1_455 S
C812 C813 1.327 . S
C813 H807 0.950 1_455 S
C813 C812 1.327 . S
C813 C817 1.429 . S
C814 C797 1.574 . S
C814 H808 0.949 . S
C814 C818 1.368 . S
C815 C796 1.429 1_455 S
C815 C809 1.429 . S
C815 C816 1.523 . S
C816 C797 1.368 . S
C816 C810 1.368 1_455 S
C816 C815 1.523 . S
C817 C801 1.429 . S
C817 C813 1.429 . S
C817 C818 1.523 . S
C818 C802 1.368 1_455 S
C818 C814 1.368 . S
C818 C817 1.523 . S
H819 C794 0.950 . S
H820 C796 0.950 . S
H821 C797 0.949 . S
H822 C799 0.950 . S
H823 C801 0.950 . S
C824 C825 1.349 . S
C824 C826 1.327 . S
C824 H849 0.950 . S
C825 C824 1.349 . S
C825 C841 1.374 . S
C826 C824 1.327 . S
C826 C845 1.429 . S
C826 H850 0.950 . S
C827 C844 1.574 . S
C827 C846 1.368 1_545 S
C827 H851 0.949 . S
H828 C832 0.949 . S
C829 C830 1.359 . S
C829 C831 1.327 . S
C829 H852 0.950 . S
C830 C829 1.359 . S
C830 C842 1.337 1_545 S
C831 C829 1.327 . S
C831 C847 1.429 1_545 S
C831 H853 0.950 . S
C832 H828 0.949 . S
C832 C840 1.574 . S
C832 C848 1.368 . S
H833 C841 0.929 1_545 S
H834 C839 0.950 . S
H835 C840 0.949 . S
H836 C842 0.950 . S
H837 C843 0.950 . S
H838 C844 0.949 . S
C839 H834 0.950 . S
C839 C841 1.323 1_545 S
C839 C845 1.429 1_545 S
C840 C832 1.574 . S
C840 H835 0.949 . S
C840 C846 1.368 . S
C841 C825 1.374 . S
C841 H833 0.929 1_565 S
C841 C839 1.323 1_565 S
C842 C830 1.337 1_565 S
C842 H836 0.950 . S
C842 C843 1.327 . S
C843 H837 0.950 . S
C843 C842 1.327 . S
C843 C847 1.429 . S
C844 C827 1.574 . S
C844 H838 0.949 . S
C844 C848 1.368 1_545 S
C845 C826 1.429 . S
C845 C839 1.429 1_565 S
C845 C846 1.523 . S
C846 C827 1.368 1_565 S
C846 C840 1.368 . S
C846 C845 1.523 . S
C847 C831 1.429 1_565 S
C847 C843 1.429 . S
C847 C848 1.523 . S
C848 C832 1.368 . S
C848 C844 1.368 1_565 S
C848 C847 1.523 . S
H849 C824 0.950 . S
H850 C826 0.950 . S
H851 C827 0.949 . S
H852 C829 0.950 . S
H853 C831 0.950 . S
C854 C855 1.349 . S
C854 C856 1.327 . S
C854 H879 0.950 . S
C855 C854 1.349 . S
C855 C871 1.349 . S
C856 C854 1.327 . S
C856 C875 1.429 . S
C856 H880 0.950 . S
C857 C874 1.574 . S
C857 C876 1.368 . S
C857 H881 0.949 . S
H858 C862 0.949 . S
C859 C860 1.349 . S
C859 C861 1.327 . S
C859 H882 0.950 . S
C860 C859 1.349 . S
C860 C872 1.349 . S
C861 C859 1.327 . S
C861 C877 1.429 . S
C861 H883 0.950 . S
C862 H858 0.949 . S
C862 C870 1.574 . S
C862 C878 1.368 . S
H863 C871 0.950 . S
H864 C869 0.950 . S
H865 C870 0.949 . S
H866 C872 0.950 . S
H867 C873 0.950 . S
H868 C874 0.949 . S
C869 H864 0.950 . S
C869 C871 1.327 . S
C869 C875 1.429 . S
C870 C862 1.574 . S
C870 H865 0.949 . S
C870 C876 1.368 . S
C871 C855 1.349 . S
C871 H863 0.950 . S
C871 C869 1.327 . S
C872 C860 1.349 . S
C872 H866 0.950 . S
C872 C873 1.327 . S
C873 H867 0.950 . S
C873 C872 1.327 . S
C873 C877 1.429 . S
C874 C857 1.574 . S
C874 H868 0.949 . S
C874 C878 1.368 . S
C875 C856 1.429 . S
C875 C869 1.429 . S
C875 C876 1.523 . S
C876 C857 1.368 . S
C876 C870 1.368 . S
C876 C875 1.523 . S
C877 C861 1.429 . S
C877 C873 1.429 . S
C877 C878 1.523 . S
C878 C862 1.368 . S
C878 C874 1.368 . S
C878 C877 1.523 . S
H879 C854 0.950 . S
H880 C856 0.950 . S
H881 C857 0.949 . S
H882 C859 0.950 . S
H883 C861 0.950 . S
C884 C885 1.349 . S
C884 C886 1.327 . S
C884 H909 0.950 . S
C885 C884 1.349 . S
C885 C901 1.349 . S
C886 C884 1.327 . S
C886 C905 1.429 . S
C886 H910 0.950 . S
C887 C904 1.574 . S
C887 C906 1.368 . S
C887 H911 0.949 . S
H888 C892 0.949 . S
C889 C890 1.349 . S
C889 C891 1.327 . S
C889 H912 0.950 . S
C890 C889 1.349 . S
C890 C902 1.349 . S
C891 C889 1.327 . S
C891 C907 1.429 . S
C891 H913 0.950 . S
C892 H888 0.949 . S
C892 C900 1.574 . S
C892 C908 1.368 . S
H893 C901 0.950 . S
H894 C899 0.950 . S
H895 C900 0.949 . S
H896 C902 0.950 . S
H897 C903 0.950 . S
H898 C904 0.949 . S
C899 H894 0.950 . S
C899 C901 1.327 . S
C899 C905 1.429 . S
C900 C892 1.574 . S
C900 H895 0.949 . S
C900 C906 1.368 . S
C901 C885 1.349 . S
C901 H893 0.950 . S
C901 C899 1.327 . S
C902 C890 1.349 . S
C902 H896 0.950 . S
C902 C903 1.327 . S
C903 H897 0.950 . S
C903 C902 1.327 . S
C903 C907 1.429 . S
C904 C887 1.574 . S
C904 H898 0.949 . S
C904 C908 1.368 . S
C905 C886 1.429 . S
C905 C899 1.429 . S
C905 C906 1.523 . S
C906 C887 1.368 . S
C906 C900 1.368 . S
C906 C905 1.523 . S
C907 C891 1.429 . S
C907 C903 1.429 . S
C907 C908 1.523 . S
C908 C892 1.368 . S
C908 C904 1.368 . S
C908 C907 1.523 . S
H909 C884 0.950 . S
H910 C886 0.950 . S
H911 C887 0.949 . S
H912 C889 0.950 . S
H913 C891 0.950 . S
C914 C915 1.349 . S
C914 C916 1.327 . S
C914 H939 0.950 . S
C915 C914 1.349 . S
C915 C931 1.349 . S
C916 C914 1.327 . S
C916 C935 1.429 . S
C916 H940 0.950 . S
C917 C934 1.579 . S
C917 C936 1.344 1_455 S
C917 H941 0.968 . S
H918 C922 0.949 . S
C919 C920 1.364 . S
C919 C921 1.327 . S
C919 H942 0.950 . S
C920 C919 1.364 . S
C920 C932 1.331 1_455 S
C921 C919 1.327 . S
C921 C937 1.429 1_455 S
C921 H943 0.950 . S
C922 H918 0.949 . S
C922 C930 1.574 . S
C922 C938 1.368 . S
H923 C931 0.962 . S
H924 C929 0.950 1_455 S
H925 C930 0.949 . S
H926 C932 0.950 . S
H927 C933 0.950 . S
H928 C934 0.949 . S
C929 H924 0.950 1_655 S
C929 C931 1.327 . S
C929 C935 1.429 . S
C930 C922 1.574 . S
C930 H925 0.949 . S
C930 C936 1.368 . S
C931 C915 1.349 . S
C931 H923 0.962 . S
C931 C929 1.327 . S
C932 C920 1.331 1_655 S
C932 H926 0.950 . S
C932 C933 1.327 . S
C933 H927 0.950 . S
C933 C932 1.327 . S
C933 C937 1.429 . S
C934 C917 1.579 . S
C934 H928 0.949 . S
C934 C938 1.368 1_455 S
C935 C916 1.429 . S
C935 C929 1.429 . S
C935 C936 1.523 . S
C936 C917 1.344 1_655 S
C936 C930 1.368 . S
C936 C935 1.523 . S
C937 C921 1.429 1_655 S
C937 C933 1.429 . S
C937 C938 1.523 . S
C938 C922 1.368 . S
C938 C934 1.368 1_655 S
C938 C937 1.523 . S
H939 C914 0.950 . S
H940 C916 0.950 . S
H941 C917 0.968 . S
H942 C919 0.950 . S
H943 C921 0.950 . S
C944 C945 1.349 . S
C944 C946 1.322 1_556 S
C944 H969 0.950 1_556 S
C945 C944 1.349 . S
C945 C961 1.349 . S
C946 C944 1.322 1_554 S
C946 C965 1.419 1_554 S
C946 H970 0.965 . S
C947 C964 1.574 . S
C947 C966 1.368 1_565 S
C947 H971 0.949 . S
H948 C952 0.949 . S
C949 C950 1.349 . S
C949 C951 1.322 1_554 S
C949 H972 0.950 1_554 S
C950 C949 1.349 . S
C950 C962 1.349 . S
C951 C949 1.322 1_556 S
C951 C967 1.419 1_556 S
C951 H973 0.965 . S
C952 H948 0.949 . S
C952 C960 1.574 . S
C952 C968 1.368 1_545 S
H953 C961 0.950 1_565 S
H954 C959 0.970 . S
H955 C960 0.949 . S
H956 C962 0.950 1_545 S
H957 C963 0.961 . S
H958 C964 0.949 . S
C959 H954 0.970 . S
C959 C961 1.321 1_565 S
C959 C965 1.416 1_565 S
C960 C952 1.574 . S
C960 H955 0.949 . S
C960 C966 1.368 1_554 S
C961 C945 1.349 . S
C961 H953 0.950 1_545 S
C961 C959 1.321 1_545 S
C962 C950 1.349 . S
C962 H956 0.950 1_565 S
C962 C963 1.324 1_565 S
C963 H957 0.961 . S
C963 C962 1.324 1_545 S
C963 C967 1.421 1_545 S
C964 C947 1.574 . S
C964 H958 0.949 . S
C964 C968 1.368 1_556 S
C965 C946 1.419 1_556 S
C965 C959 1.416 1_545 S
C965 C966 1.523 . S
C966 C947 1.368 1_545 S
C966 C960 1.368 1_556 S
C966 C965 1.523 . S
C967 C951 1.419 1_554 S
C967 C963 1.421 1_565 S
C967 C968 1.523 . S
C968 C952 1.368 1_565 S
C968 C964 1.368 1_554 S
C968 C967 1.523 . S
H969 C944 0.950 1_554 S
H970 C946 0.965 . S
H971 C947 0.949 . S
H972 C949 0.950 1_556 S
H973 C951 0.965 . S
C974 C975 1.349 . S
C974 C976 1.327 . S
C974 H999 0.950 . S
C975 C974 1.349 . S
C975 C991 1.349 . S
C976 C974 1.327 . S
C976 C995 1.429 . S
C976 H1000 0.950 . S
C977 C994 1.574 . S
C977 C996 1.368 1_554 S
C977 H1001 0.949 . S
H978 C982 0.949 . S
C979 C980 1.349 . S
C979 C981 1.327 . S
C979 H1002 0.950 . S
C980 C979 1.349 . S
C980 C992 1.349 . S
C981 C979 1.327 . S
C981 C997 1.429 . S
C981 H1003 0.950 . S
C982 H978 0.949 . S
C982 C990 1.574 . S
C982 C998 1.368 1_556 S
H983 C991 0.950 1_554 S
H984 C989 0.950 . S
H985 C990 0.949 . S
H986 C992 0.950 1_556 S
H987 C993 0.950 . S
H988 C994 0.949 . S
C989 H984 0.950 . S
C989 C991 1.327 1_554 S
C989 C995 1.429 1_554 S
C990 C982 1.574 . S
C990 H985 0.949 . S
C990 C996 1.368 . S
C991 C975 1.349 . S
C991 H983 0.950 1_556 S
C991 C989 1.327 1_556 S
C992 C980 1.349 . S
C992 H986 0.950 1_554 S
C992 C993 1.327 1_554 S
C993 H987 0.950 . S
C993 C992 1.327 1_556 S
C993 C997 1.429 1_556 S
C994 C977 1.574 . S
C994 H988 0.949 . S
C994 C998 1.368 . S
C995 C976 1.429 . S
C995 C989 1.429 1_556 S
C995 C996 1.523 . S
C996 C977 1.368 1_556 S
C996 C990 1.368 . S
C996 C995 1.523 . S
C997 C981 1.429 . S
C997 C993 1.429 1_554 S
C997 C998 1.523 . S
C998 C982 1.368 1_554 S
C998 C994 1.368 . S
C998 C997 1.523 . S
H999 C974 0.950 . S
H1000 C976 0.950 . S
H1001 C977 0.949 . S
H1002 C979 0.950 . S
H1003 C981 0.950 . S
C1004 C1005 1.349 . S
C1004 C1006 1.327 . S
C1004 H1029 0.950 . S
C1005 C1004 1.349 . S
C1005 C1021 1.349 . S
C1006 C1004 1.327 . S
C1006 C1025 1.429 . S
C1006 H1030 0.950 . S
C1007 C1024 1.574 1_654 S
C1007 C1026 1.368 . S
C1007 H1031 0.949 . S
H1008 C1012 0.949 . S
C1009 C1010 1.349 . S
C1009 C1011 1.327 . S
C1009 H1032 0.950 . S
C1010 C1009 1.349 . S
C1010 C1022 1.349 . S
C1011 C1009 1.327 . S
C1011 C1027 1.429 . S
C1011 H1033 0.950 . S
C1012 H1008 0.949 . S
C1012 C1020 1.574 1_456 S
C1012 C1028 1.368 . S
H1013 C1021 0.950 . S
H1014 C1019 0.950 . S
H1015 C1020 0.949 . S
H1016 C1022 0.950 . S
H1017 C1023 0.950 . S
H1018 C1024 0.949 . S
C1019 H1014 0.950 . S
C1019 C1021 1.327 . S
C1019 C1025 1.429 . S
C1020 C1012 1.574 1_654 S
C1020 H1015 0.949 . S
C1020 C1026 1.368 . S
C1021 C1005 1.349 . S
C1021 H1013 0.950 . S
C1021 C1019 1.327 . S
C1022 C1010 1.349 . S
C1022 H1016 0.950 . S
C1022 C1023 1.327 . S
C1023 H1017 0.950 . S
C1023 C1022 1.327 . S
C1023 C1027 1.429 . S
C1024 C1007 1.574 1_456 S
C1024 H1018 0.949 . S
C1024 C1028 1.368 . S
C1025 C1006 1.429 . S
C1025 C1019 1.429 . S
C1025 C1026 1.523 . S
C1026 C1007 1.368 . S
C1026 C1020 1.368 . S
C1026 C1025 1.523 . S
C1027 C1011 1.429 . S
C1027 C1023 1.429 . S
C1027 C1028 1.523 . S
C1028 C1012 1.368 . S
C1028 C1024 1.368 . S
C1028 C1027 1.523 . S
H1029 C1004 0.950 . S
H1030 C1006 0.950 . S
H1031 C1007 0.949 . S
H1032 C1009 0.950 . S
H1033 C1011 0.950 . S
C1034 C1035 1.349 . S
C1034 C1036 1.327 1_556 S
C1034 H1059 0.950 1_556 S
C1035 C1034 1.349 . S
C1035 C1051 1.349 . S
C1036 C1034 1.327 1_554 S
C1036 C1055 1.429 1_554 S
C1036 H1060 0.950 1_455 S
C1037 C1054 1.574 1_545 S
C1037 C1056 1.368 . S
C1037 H1061 0.949 . S
H1038 C1042 0.949 . S
C1039 C1040 1.349 . S
C1039 C1041 1.327 1_554 S
C1039 H1062 0.950 1_554 S
C1040 C1039 1.349 . S
C1040 C1052 1.349 . S
C1041 C1039 1.327 1_556 S
C1041 C1057 1.429 1_556 S
C1041 H1063 0.950 1_655 S
C1042 H1038 0.949 . S
C1042 C1050 1.574 1_565 S
C1042 C1058 1.368 . S
H1043 C1051 0.950 . S
H1044 C1049 0.950 . S
H1045 C1050 0.949 . S
H1046 C1052 0.950 . S
H1047 C1053 0.950 . S
H1048 C1054 0.949 . S
C1049 H1044 0.950 . S
C1049 C1051 1.327 . S
C1049 C1055 1.429 . S
C1050 C1042 1.574 1_545 S
C1050 H1045 0.949 . S
C1050 C1056 1.368 1_654 S
C1051 C1035 1.349 . S
C1051 H1043 0.950 . S
C1051 C1049 1.327 . S
C1052 C1040 1.349 . S
C1052 H1046 0.950 . S
C1052 C1053 1.327 . S
C1053 H1047 0.950 . S
C1053 C1052 1.327 . S
C1053 C1057 1.429 . S
C1054 C1037 1.574 1_565 S
C1054 H1048 0.949 . S
C1054 C1058 1.368 1_456 S
C1055 C1036 1.429 1_556 S
C1055 C1049 1.429 . S
C1055 C1056 1.523 . S
C1056 C1037 1.368 . S
C1056 C1050 1.368 1_456 S
C1056 C1055 1.523 . S
C1057 C1041 1.429 1_554 S
C1057 C1053 1.429 . S
C1057 C1058 1.523 . S
C1058 C1042 1.368 . S
C1058 C1054 1.368 1_654 S
C1058 C1057 1.523 . S
H1059 C1034 0.950 1_554 S
H1060 C1036 0.950 1_655 S
H1061 C1037 0.949 . S
H1062 C1039 0.950 1_556 S
H1063 C1041 0.950 1_455 S
C1064 C1065 1.349 . S
C1064 C1066 1.327 . S
C1064 H1089 0.964 . S
C1065 C1064 1.349 . S
C1065 C1081 1.349 . S
C1066 C1064 1.327 . S
C1066 C1085 1.429 . S
C1066 H1090 0.950 1_545 S
C1067 C1084 1.574 1_455 S
C1067 C1086 1.368 . S
C1067 H1091 0.949 . S
H1068 C1072 0.949 . S
C1069 C1070 1.349 . S
C1069 C1071 1.327 . S
C1069 H1092 0.969 . S
C1070 C1069 1.349 . S
C1070 C1082 1.349 . S
C1071 C1069 1.327 . S
C1071 C1087 1.429 . S
C1071 H1093 0.950 1_565 S
C1072 H1068 0.949 . S
C1072 C1080 1.574 1_655 S
C1072 C1088 1.368 . S
H1073 C1081 0.950 . S
H1074 C1079 0.950 . S
H1075 C1080 0.949 . S
H1076 C1082 0.950 . S
H1077 C1083 0.950 . S
H1078 C1084 0.949 . S
C1079 H1074 0.950 . S
C1079 C1081 1.327 . S
C1079 C1085 1.429 . S
C1080 C1072 1.574 1_455 S
C1080 H1075 0.949 . S
C1080 C1086 1.368 1_565 S
C1081 C1065 1.349 . S
C1081 H1073 0.950 . S
C1081 C1079 1.327 . S
C1082 C1070 1.349 . S
C1082 H1076 0.950 . S
C1082 C1083 1.327 . S
C1083 H1077 0.950 . S
C1083 C1082 1.327 . S
C1083 C1087 1.429 . S
C1084 C1067 1.574 1_655 S
C1084 H1078 0.949 . S
C1084 C1088 1.368 1_545 S
C1085 C1066 1.429 . S
C1085 C1079 1.429 . S
C1085 C1086 1.523 . S
C1086 C1067 1.368 . S
C1086 C1080 1.368 1_545 S
C1086 C1085 1.523 . S
C1087 C1071 1.429 . S
C1087 C1083 1.429 . S
C1087 C1088 1.523 . S
C1088 C1072 1.368 . S
C1088 C1084 1.368 1_565 S
C1088 C1087 1.523 . S
H1089 C1064 0.964 . S
H1090 C1066 0.950 1_565 S
H1091 C1067 0.949 . S
H1092 C1069 0.969 . S
H1093 C1071 0.950 1_545 S
C1094 C1095 1.349 . S
C1094 C1096 1.327 . S
C1094 H1119 0.950 . S
C1095 C1094 1.349 . S
C1095 C1111 1.349 . S
C1096 C1094 1.327 . S
C1096 C1115 1.429 . S
C1096 H1120 0.950 . S
C1097 C1114 1.574 1_565 S
C1097 C1116 1.368 . S
C1097 H1121 0.949 . S
H1098 C1102 0.949 . S
C1099 C1100 1.349 . S
C1099 C1101 1.327 . S
C1099 H1122 0.950 . S
C1100 C1099 1.349 . S
C1100 C1112 1.349 . S
C1101 C1099 1.327 . S
C1101 C1117 1.429 . S
C1101 H1123 0.950 . S
C1102 H1098 0.949 . S
C1102 C1110 1.574 1_545 S
C1102 C1118 1.368 . S
H1103 C1111 0.950 . S
H1104 C1109 0.950 . S
H1105 C1110 0.949 . S
H1106 C1112 0.950 . S
H1107 C1113 0.950 . S
H1108 C1114 0.949 . S
C1109 H1104 0.950 . S
C1109 C1111 1.327 . S
C1109 C1115 1.429 . S
C1110 C1102 1.574 1_565 S
C1110 H1105 0.949 . S
C1110 C1116 1.368 . S
C1111 C1095 1.349 . S
C1111 H1103 0.950 . S
C1111 C1109 1.327 . S
C1112 C1100 1.349 . S
C1112 H1106 0.950 . S
C1112 C1113 1.327 . S
C1113 H1107 0.950 . S
C1113 C1112 1.327 . S
C1113 C1117 1.429 . S
C1114 C1097 1.574 1_545 S
C1114 H1108 0.949 . S
C1114 C1118 1.368 . S
C1115 C1096 1.429 . S
C1115 C1109 1.429 . S
C1115 C1116 1.523 . S
C1116 C1097 1.368 . S
C1116 C1110 1.368 . S
C1116 C1115 1.523 . S
C1117 C1101 1.429 . S
C1117 C1113 1.429 . S
C1117 C1118 1.523 . S
C1118 C1102 1.368 . S
C1118 C1114 1.368 . S
C1118 C1117 1.523 . S
H1119 C1094 0.950 . S
H1120 C1096 0.950 . S
H1121 C1097 0.949 . S
H1122 C1099 0.950 . S
H1123 C1101 0.950 . S
C1124 C1125 1.349 . S
C1124 C1126 1.327 . S
C1124 H1149 0.950 . S
C1125 C1124 1.349 . S
C1125 C1141 1.349 . S
C1126 C1124 1.327 . S
C1126 C1145 1.429 . S
C1126 H1150 0.950 . S
C1127 C1144 1.574 . S
C1127 C1146 1.368 . S
C1127 H1151 0.949 . S
H1128 C1132 0.949 . S
C1129 C1130 1.349 . S
C1129 C1131 1.327 . S
C1129 H1152 0.950 . S
C1130 C1129 1.349 . S
C1130 C1142 1.349 . S
C1131 C1129 1.327 . S
C1131 C1147 1.429 . S
C1131 H1153 0.950 . S
C1132 H1128 0.949 . S
C1132 C1140 1.574 . S
C1132 C1148 1.368 . S
H1133 C1141 0.950 . S
H1134 C1139 0.950 . S
H1135 C1140 0.949 . S
H1136 C1142 0.950 . S
H1137 C1143 0.950 . S
H1138 C1144 0.949 . S
C1139 H1134 0.950 . S
C1139 C1141 1.327 . S
C1139 C1145 1.429 . S
C1140 C1132 1.574 . S
C1140 H1135 0.949 . S
C1140 C1146 1.368 . S
C1141 C1125 1.349 . S
C1141 H1133 0.950 . S
C1141 C1139 1.327 . S
C1142 C1130 1.349 . S
C1142 H1136 0.950 . S
C1142 C1143 1.327 . S
C1143 H1137 0.950 . S
C1143 C1142 1.327 . S
C1143 C1147 1.429 . S
C1144 C1127 1.574 . S
C1144 H1138 0.949 . S
C1144 C1148 1.368 . S
C1145 C1126 1.429 . S
C1145 C1139 1.429 . S
C1145 C1146 1.523 . S
C1146 C1127 1.368 . S
C1146 C1140 1.368 . S
C1146 C1145 1.523 . S
C1147 C1131 1.429 . S
C1147 C1143 1.429 . S
C1147 C1148 1.523 . S
C1148 C1132 1.368 . S
C1148 C1144 1.368 . S
C1148 C1147 1.523 . S
H1149 C1124 0.950 . S
H1150 C1126 0.950 . S
H1151 C1127 0.949 . S
H1152 C1129 0.950 . S
H1153 C1131 0.950 . S
C1154 C1155 1.349 . S
C1154 C1156 1.327 . S
C1154 H1179 0.950 . S
C1155 C1154 1.349 . S
C1155 C1171 1.349 . S
C1156 C1154 1.327 . S
C1156 C1175 1.429 . S
C1156 H1180 0.950 . S
C1157 C1174 1.574 . S
C1157 C1176 1.368 1_455 S
C1157 H1181 0.949 . S
H1158 C1162 0.949 . S
C1159 C1160 1.349 . S
C1159 C1161 1.327 . S
C1159 H1182 0.950 . S
C1160 C1159 1.349 . S
C1160 C1172 1.349 . S
C1161 C1159 1.327 . S
C1161 C1177 1.429 . S
C1161 H1183 0.950 . S
C1162 H1158 0.949 . S
C1162 C1170 1.574 . S
C1162 C1178 1.368 1_655 S
H1163 C1171 0.950 . S
H1164 C1169 0.950 1_455 S
H1165 C1170 0.949 . S
H1166 C1172 0.950 . S
H1167 C1173 0.950 1_655 S
H1168 C1174 0.949 . S
C1169 H1164 0.950 1_655 S
C1169 C1171 1.327 . S
C1169 C1175 1.429 . S
C1170 C1162 1.574 . S
C1170 H1165 0.949 . S
C1170 C1176 1.368 . S
C1171 C1155 1.349 . S
C1171 H1163 0.950 . S
C1171 C1169 1.327 . S
C1172 C1160 1.349 . S
C1172 H1166 0.950 . S
C1172 C1173 1.327 . S
C1173 H1167 0.950 1_455 S
C1173 C1172 1.327 . S
C1173 C1177 1.429 . S
C1174 C1157 1.574 . S
C1174 H1168 0.949 . S
C1174 C1178 1.368 . S
C1175 C1156 1.429 . S
C1175 C1169 1.429 . S
C1175 C1176 1.523 . S
C1176 C1157 1.368 1_655 S
C1176 C1170 1.368 . S
C1176 C1175 1.523 . S
C1177 C1161 1.429 . S
C1177 C1173 1.429 . S
C1177 C1178 1.523 . S
C1178 C1162 1.368 1_455 S
C1178 C1174 1.368 . S
C1178 C1177 1.523 . S
H1179 C1154 0.950 . S
H1180 C1156 0.950 . S
H1181 C1157 0.949 . S
H1182 C1159 0.950 . S
H1183 C1161 0.950 . S
C225 C79 0.438 . S
C230 C9 0.476 . S
C255 C93 0.441 . S
C260 C23 0.441 . S
C285 C37 0.439 . S
C290 C107 0.476 . S
C315 C51 0.517 . S
C320 C65 0.520 . S
C345 C121 0.478 . S
C350 C191 0.442 . S
C375 C205 0.441 . S
C380 C135 0.441 . S
C405 C219 0.478 . S
C410 C149 0.442 . S
C435 C163 0.517 . S
C440 C177 0.520 . S
C465 C8 1.589 1_556 S
C470 C175 1.516 . S
C495 C189 1.557 . S
C500 C22 1.634 1_556 S
C525 C36 1.650 1_556 S
C530 C203 1.581 . S
C555 C50 1.607 1_556 S
C560 C217 1.538 . S
C585 C64 1.607 . S
C590 C119 1.538 . S
C615 C78 1.650 . S
C620 C133 1.581 . S
C645 C92 1.634 . S
C650 C147 1.557 . S
C675 C106 1.588 . S
C680 C161 1.516 . S
C705 C63 1.516 . S
C710 C120 1.589 1_554 S
C735 C77 1.557 . S
C740 C134 1.634 1_554 S
C765 C91 1.581 . S
C770 C148 1.650 1_554 S
C795 C162 1.607 1_554 S
C800 C105 1.538 . S
C825 C7 1.538 . S
C830 C176 1.607 . S
C855 C190 1.650 . S
C860 C21 1.581 . S
C885 C204 1.634 . S
C890 C35 1.557 . S
C915 C49 1.516 . S
C920 C218 1.588 . S
C945 C115 1.398 . S
C950 C3 1.400 . S
C975 C129 1.436 . S
C980 C17 1.436 . S
C1005 C31 1.548 . S
C1010 C143 1.548 . S
C1035 C157 1.482 . S
C1040 C45 1.484 . S
C1065 C59 1.482 . S
C1070 C171 1.484 . S
C1095 C185 1.548 . S
C1100 C73 1.548 . S
C1125 C199 1.436 . S
C1130 C87 1.436 . S
C1155 C213 1.398 . S
C1160 C101 1.400 . S
