# Generated by pormake.
# Topology lcs, (4)-cn, num edge types: 1
# Building blocks:
#     Node 0, Type 0, BuildingBlock: KUFVIS_clean_sbu_0, # of connection points: 4
#     Node 1, Type 0, BuildingBlock: KUFVIS_clean_sbu_0, # of connection points: 4
#     Node 2, Type 0, BuildingBlock: KUFVIS_clean_sbu_0, # of connection points: 4
#     Node 3, Type 0, BuildingBlock: KUFVIS_clean_sbu_0, # of connection points: 4
#     Node 4, Type 0, BuildingBlock: KUFVIS_clean_sbu_0, # of connection points: 4
#     Node 5, Type 0, BuildingBlock: KUFVIS_clean_sbu_0, # of connection points: 4
#     Node 6, Type 0, BuildingBlock: KUFVIS_clean_sbu_0, # of connection points: 4
#     Node 7, Type 0, BuildingBlock: KUFVIS_clean_sbu_0, # of connection points: 4
#     Node 8, Type 0, BuildingBlock: KUFVIS_clean_sbu_0, # of connection points: 4
#     Node 9, Type 0, BuildingBlock: KUFVIS_clean_sbu_0, # of connection points: 4
#     Node 10, Type 0, BuildingBlock: KUFVIS_clean_sbu_0, # of connection points: 4
#     Node 11, Type 0, BuildingBlock: KUFVIS_clean_sbu_0, # of connection points: 4
#     Node 12, Type 0, BuildingBlock: KUFVIS_clean_sbu_0, # of connection points: 4
#     Node 13, Type 0, BuildingBlock: KUFVIS_clean_sbu_0, # of connection points: 4
#     Node 14, Type 0, BuildingBlock: KUFVIS_clean_sbu_0, # of connection points: 4
#     Node 15, Type 0, BuildingBlock: KUFVIS_clean_sbu_0, # of connection points: 4
#     Node 16, Type 0, BuildingBlock: KUFVIS_clean_sbu_0, # of connection points: 4
#     Node 17, Type 0, BuildingBlock: KUFVIS_clean_sbu_0, # of connection points: 4
#     Node 18, Type 0, BuildingBlock: KUFVIS_clean_sbu_0, # of connection points: 4
#     Node 19, Type 0, BuildingBlock: KUFVIS_clean_sbu_0, # of connection points: 4
#     Node 20, Type 0, BuildingBlock: KUFVIS_clean_sbu_0, # of connection points: 4
#     Node 21, Type 0, BuildingBlock: KUFVIS_clean_sbu_0, # of connection points: 4
#     Node 22, Type 0, BuildingBlock: KUFVIS_clean_sbu_0, # of connection points: 4
#     Node 23, Type 0, BuildingBlock: KUFVIS_clean_sbu_0, # of connection points: 4
#     Edge 24, Type (0, 0), BuildingBlock: TEMPAE_clean_linker_10, # of connection points: 2
#     Edge 25, Type (0, 0), BuildingBlock: TEMPAE_clean_linker_10, # of connection points: 2
#     Edge 26, Type (0, 0), BuildingBlock: TEMPAE_clean_linker_10, # of connection points: 2
#     Edge 27, Type (0, 0), BuildingBlock: TEMPAE_clean_linker_10, # of connection points: 2
#     Edge 28, Type (0, 0), BuildingBlock: TEMPAE_clean_linker_10, # of connection points: 2
#     Edge 29, Type (0, 0), BuildingBlock: TEMPAE_clean_linker_10, # of connection points: 2
#     Edge 30, Type (0, 0), BuildingBlock: TEMPAE_clean_linker_10, # of connection points: 2
#     Edge 31, Type (0, 0), BuildingBlock: TEMPAE_clean_linker_10, # of connection points: 2
#     Edge 32, Type (0, 0), BuildingBlock: TEMPAE_clean_linker_10, # of connection points: 2
#     Edge 33, Type (0, 0), BuildingBlock: TEMPAE_clean_linker_10, # of connection points: 2
#     Edge 34, Type (0, 0), BuildingBlock: TEMPAE_clean_linker_10, # of connection points: 2
#     Edge 35, Type (0, 0), BuildingBlock: TEMPAE_clean_linker_10, # of connection points: 2
#     Edge 36, Type (0, 0), BuildingBlock: TEMPAE_clean_linker_10, # of connection points: 2
#     Edge 37, Type (0, 0), BuildingBlock: TEMPAE_clean_linker_10, # of connection points: 2
#     Edge 38, Type (0, 0), BuildingBlock: TEMPAE_clean_linker_10, # of connection points: 2
#     Edge 39, Type (0, 0), BuildingBlock: TEMPAE_clean_linker_10, # of connection points: 2
#     Edge 40, Type (0, 0), BuildingBlock: TEMPAE_clean_linker_10, # of connection points: 2
#     Edge 41, Type (0, 0), BuildingBlock: TEMPAE_clean_linker_10, # of connection points: 2
#     Edge 42, Type (0, 0), BuildingBlock: TEMPAE_clean_linker_10, # of connection points: 2
#     Edge 43, Type (0, 0), BuildingBlock: TEMPAE_clean_linker_10, # of connection points: 2
#     Edge 44, Type (0, 0), BuildingBlock: TEMPAE_clean_linker_10, # of connection points: 2
#     Edge 45, Type (0, 0), BuildingBlock: TEMPAE_clean_linker_10, # of connection points: 2
#     Edge 46, Type (0, 0), BuildingBlock: TEMPAE_clean_linker_10, # of connection points: 2
#     Edge 47, Type (0, 0), BuildingBlock: TEMPAE_clean_linker_10, # of connection points: 2
#     Edge 48, Type (0, 0), BuildingBlock: TEMPAE_clean_linker_10, # of connection points: 2
#     Edge 49, Type (0, 0), BuildingBlock: TEMPAE_clean_linker_10, # of connection points: 2
#     Edge 50, Type (0, 0), BuildingBlock: TEMPAE_clean_linker_10, # of connection points: 2
#     Edge 51, Type (0, 0), BuildingBlock: TEMPAE_clean_linker_10, # of connection points: 2
#     Edge 52, Type (0, 0), BuildingBlock: TEMPAE_clean_linker_10, # of connection points: 2
#     Edge 53, Type (0, 0), BuildingBlock: TEMPAE_clean_linker_10, # of connection points: 2
#     Edge 54, Type (0, 0), BuildingBlock: TEMPAE_clean_linker_10, # of connection points: 2
#     Edge 55, Type (0, 0), BuildingBlock: TEMPAE_clean_linker_10, # of connection points: 2
#     Edge 56, Type (0, 0), BuildingBlock: TEMPAE_clean_linker_10, # of connection points: 2
#     Edge 57, Type (0, 0), BuildingBlock: TEMPAE_clean_linker_10, # of connection points: 2
#     Edge 58, Type (0, 0), BuildingBlock: TEMPAE_clean_linker_10, # of connection points: 2
#     Edge 59, Type (0, 0), BuildingBlock: TEMPAE_clean_linker_10, # of connection points: 2
#     Edge 60, Type (0, 0), BuildingBlock: TEMPAE_clean_linker_10, # of connection points: 2
#     Edge 61, Type (0, 0), BuildingBlock: TEMPAE_clean_linker_10, # of connection points: 2
#     Edge 62, Type (0, 0), BuildingBlock: TEMPAE_clean_linker_10, # of connection points: 2
#     Edge 63, Type (0, 0), BuildingBlock: TEMPAE_clean_linker_10, # of connection points: 2
#     Edge 64, Type (0, 0), BuildingBlock: TEMPAE_clean_linker_10, # of connection points: 2
#     Edge 65, Type (0, 0), BuildingBlock: TEMPAE_clean_linker_10, # of connection points: 2
#     Edge 66, Type (0, 0), BuildingBlock: TEMPAE_clean_linker_10, # of connection points: 2
#     Edge 67, Type (0, 0), BuildingBlock: TEMPAE_clean_linker_10, # of connection points: 2
#     Edge 68, Type (0, 0), BuildingBlock: TEMPAE_clean_linker_10, # of connection points: 2
#     Edge 69, Type (0, 0), BuildingBlock: TEMPAE_clean_linker_10, # of connection points: 2
#     Edge 70, Type (0, 0), BuildingBlock: TEMPAE_clean_linker_10, # of connection points: 2
#     Edge 71, Type (0, 0), BuildingBlock: TEMPAE_clean_linker_10, # of connection points: 2
# Relax obj value: 0.011
# Max RMSD: 0.062
# Mean RMSD: 0.054
data_MOF--net-lcs--node1-KUFVIS_clean_sbu_0--edge1-TEMPAE_clean_linker_10
_symmetry_space_group_name_H-M    P1
_symmetry_Int_Tables_number       1
_symmetry_cell_setting            triclinic
loop_
_symmetry_equiv_pos_as_xyz
'x, y, z'
_cell_length_a     49.117246
_cell_length_b     49.831962
_cell_length_c     49.829428
_cell_angle_alpha  90.392191
_cell_angle_beta   91.075682
_cell_angle_gamma 91.07627
loop_
_atom_site_label
_atom_site_type_symbol
_atom_site_fract_x
_atom_site_fract_y
_atom_site_fract_z
_atom_type_partial_charge
Mn0 Mn 0.01539 0.26453 0.38414 0.0
Mn1 Mn 0.03831 0.30102 0.43732 0.0
C2 C 0.05671 0.2541 0.40437 0.0
C3 C 0.98882 0.22863 0.36761 0.0
C4 C 0.04026 0.32058 0.37963 0.0
O5 O 0.98182 0.28466 0.39587 0.0
O6 O 0.99825 0.30378 0.43402 0.0
C7 C 0.01314 0.26983 0.48103 0.0
N8 N 0.0356 0.28116 0.46978 0.0
C9 C 0.06351 0.27043 0.50822 0.0
C10 C 0.04068 0.25875 0.52034 0.0
C11 C 0.01543 0.25824 0.50657 0.0
C12 C 0.0601 0.28111 0.48251 0.0
H13 H 0.99366 0.26975 0.47062 0.0
C14 C 0.97879 0.2982 0.4174 0.0
O15 O 0.99495 0.24891 0.35245 0.0
O16 O 0.99758 0.22965 0.3923 0.0
N17 N 0.07678 0.30039 0.44356 0.0
C18 C 0.09704 0.31086 0.42831 0.0
C19 C 0.12369 0.31259 0.43896 0.0
C20 C 0.12907 0.30409 0.46532 0.0
C21 C 0.1079 0.29314 0.48054 0.0
C22 C 0.08186 0.29162 0.46874 0.0
H23 H 0.09282 0.31824 0.40837 0.0
O24 O 0.05079 0.24618 0.38005 0.0
O25 O 0.03798 0.26758 0.41638 0.0
O26 O 0.03156 0.29902 0.36819 0.0
O27 O 0.04242 0.32346 0.40508 0.0
C28 C 0.11158 0.28371 0.50696 0.0
C29 C 0.08951 0.27195 0.52061 0.0
H30 H 0.04231 0.25005 0.54015 0.0
H31 H 0.99773 0.24919 0.51574 0.0
H32 H 0.13996 0.32094 0.42706 0.0
H33 H 0.14957 0.30587 0.4736 0.0
H34 H 0.13146 0.28485 0.51673 0.0
H35 H 0.09276 0.26415 0.54063 0.0
Mn36 Mn 0.02176 0.76417 0.63866 0.0
Mn37 Mn 0.98764 0.78804 0.69179 0.0
C38 C 0.03342 0.80616 0.65645 0.0
C39 C 0.05653 0.73825 0.62072 0.0
C40 C 0.96518 0.78898 0.63469 0.0
O41 O 1.00172 0.73079 0.65256 0.0
O42 O 0.98278 0.74845 0.68921 0.0
C43 C 0.0205 0.76321 0.73505 0.0
N44 N 0.00962 0.78542 0.72364 0.0
C45 C 0.02604 0.81346 0.76017 0.0
C46 C 0.03737 0.79088 0.77239 0.0
C47 C 0.03472 0.76567 0.75969 0.0
C48 C 0.01245 0.80982 0.73545 0.0
H49 H 0.01825 0.74377 0.72545 0.0
C50 C 0.98781 0.72852 0.67386 0.0
O51 O 0.03479 0.74389 0.60684 0.0
O52 O 0.05784 0.74719 0.64526 0.0
N53 N 0.99015 0.82598 0.69742 0.0
C54 C 0.9789 0.84586 0.68246 0.0
C55 C 0.97957 0.87229 0.69239 0.0
C56 C 0.99142 0.87792 0.71772 0.0
C57 C 0.00318 0.85721 0.7326 0.0
C58 C 1.00178 0.83125 0.72173 0.0
H59 H 0.96917 0.84153 0.66327 0.0
O60 O 0.04033 0.79945 0.63236 0.0
O61 O 0.02066 0.78768 0.67001 0.0
O62 O 0.98594 0.77909 0.6235 0.0
O63 O 0.96342 0.79221 0.66004 0.0
C64 C 0.01606 0.86124 0.75786 0.0
C65 C 0.02773 0.83943 0.77151 0.0
H66 H 0.0482 0.79267 0.79148 0.0
H67 H 0.04345 0.74815 0.76897 0.0
H68 H 0.97059 0.88822 0.68074 0.0
H69 H 0.9913 0.89823 0.72556 0.0
H70 H 0.01733 0.88107 0.76688 0.0
H71 H 0.03795 0.84286 0.79071 0.0
Mn72 Mn 0.51499 0.76132 0.88492 0.0
Mn73 Mn 0.5374 0.79757 0.93849 0.0
C74 C 0.55629 0.75096 0.90526 0.0
C75 C 0.48856 0.72555 0.86791 0.0
C76 C 0.53965 0.81748 0.88095 0.0
O77 O 0.4813 0.78131 0.89653 0.0
O78 O 0.49733 0.80008 0.935 0.0
C79 C 0.51221 0.76588 0.98183 0.0
N80 N 0.53465 0.77746 0.97079 0.0
C81 C 0.56243 0.76669 0.00931 0.0
C82 C 0.53961 0.75474 0.02121 0.0
C83 C 0.51444 0.75412 0.0073 0.0
C84 C 0.55907 0.77753 0.98366 0.0
H85 H 0.49278 0.76572 0.97131 0.0
C86 C 0.47804 0.79462 0.91815 0.0
O87 O 0.49479 0.74596 0.85298 0.0
O88 O 0.49717 0.72632 0.89266 0.0
N89 N 0.57583 0.79722 0.94495 0.0
C90 C 0.59608 0.80809 0.92995 0.0
C91 C 0.62262 0.81013 0.94082 0.0
C92 C 0.62791 0.80147 0.96714 0.0
C93 C 0.60678 0.79003 0.98208 0.0
C94 C 0.58084 0.78832 0.9701 0.0
H95 H 0.59191 0.8156 0.91004 0.0
O96 O 0.55047 0.74311 0.8809 0.0
O97 O 0.53744 0.76425 0.9173 0.0
O98 O 0.5312 0.79594 0.86932 0.0
O99 O 0.54152 0.82025 0.90642 0.0
C100 C 0.61041 0.78035 0.00841 0.0
C101 C 0.58835 0.7683 0.02185 0.0
H102 H 0.5412 0.7459 0.04097 0.0
H103 H 0.49675 0.74487 0.01631 0.0
H104 H 0.63886 0.81882 0.92913 0.0
H105 H 0.64831 0.80351 0.97561 0.0
H106 H 0.63022 0.78161 0.01832 0.0
H107 H 0.59155 0.76036 0.04182 0.0
Mn108 Mn 0.5189 0.26261 0.13817 0.0
Mn109 Mn 0.4843 0.28663 0.19093 0.0
C110 C 0.53038 0.30461 0.15596 0.0
C111 C 0.5539 0.23671 0.12063 0.0
C112 C 0.46237 0.28749 0.13364 0.0
O113 O 0.49879 0.22925 0.15201 0.0
O114 O 0.47941 0.24705 0.18836 0.0
C115 C 0.51667 0.26178 0.23454 0.0
N116 N 0.50597 0.284 0.22299 0.0
C117 C 0.52214 0.31206 0.2596 0.0
C118 C 0.53328 0.28947 0.27197 0.0
C119 C 0.53067 0.26424 0.2593 0.0
C120 C 0.50876 0.30842 0.23477 0.0
H121 H 0.51445 0.24233 0.22496 0.0
C122 C 0.48465 0.22706 0.17317 0.0
O123 O 0.53226 0.24226 0.10653 0.0
O124 O 0.55493 0.2457 0.14515 0.0
N125 N 0.48686 0.32458 0.19652 0.0
C126 C 0.47585 0.34447 0.18141 0.0
C127 C 0.4766 0.37093 0.19125 0.0
C128 C 0.48825 0.37658 0.21666 0.0
C129 C 0.49973 0.35584 0.23172 0.0
C130 C 0.49829 0.32986 0.22092 0.0
H131 H 0.46628 0.34013 0.16214 0.0
O132 O 0.53749 0.29787 0.13193 0.0
O133 O 0.51751 0.28615 0.16945 0.0
O134 O 0.48319 0.27748 0.12266 0.0
O135 O 0.4604 0.29082 0.15896 0.0
C136 C 0.51239 0.35988 0.25708 0.0
C137 C 0.52383 0.33805 0.27089 0.0
H138 H 0.54394 0.29126 0.29115 0.0
H139 H 0.53925 0.24672 0.26869 0.0
H140 H 0.46782 0.38688 0.17947 0.0
H141 H 0.4882 0.39692 0.22442 0.0
H142 H 0.51366 0.37972 0.26607 0.0
H143 H 0.53389 0.34148 0.29017 0.0
Mn144 Mn 0.00366 0.76394 0.1336 0.0
Mn145 Mn 0.98546 0.80227 0.08127 0.0
C146 C 0.96056 0.75654 0.11327 0.0
C147 C 0.02727 0.72649 0.1492 0.0
C148 C 0.98635 0.82177 0.13926 0.0
O149 O 0.03964 0.78182 0.12238 0.0
O150 O 0.02522 0.79883 0.08317 0.0
C151 C 1.00252 0.76617 0.03757 0.0
N152 N 0.98335 0.78182 0.04886 0.0
C153 C 0.95457 0.77838 0.00957 0.0
C154 C 0.9742 0.7627 0.99714 0.0
C155 C 0.99807 0.75612 0.01142 0.0
C156 C 0.95956 0.78666 0.03609 0.0
H157 H 0.021 0.76152 0.04845 0.0
C158 C 0.04411 0.79272 0.09978 0.0
O159 O 0.02268 0.74689 0.16475 0.0
O160 O 0.01814 0.7279 0.12468 0.0
N161 N 0.94753 0.80835 0.07558 0.0
C162 C 0.93099 0.82434 0.09016 0.0
C163 C 0.90594 0.83226 0.07903 0.0
C164 C 0.89877 0.82487 0.05255 0.0
C165 C 0.91653 0.80925 0.03758 0.0
C166 C 0.94074 0.80111 0.05005 0.0
H167 H 0.9369 0.83122 0.11003 0.0
O168 O 0.96628 0.74776 0.13713 0.0
O169 O 0.98064 0.76903 0.10178 0.0
O170 O 0.99101 0.79918 0.15018 0.0
O171 O 0.98643 0.82528 0.11387 0.0
C172 C 0.91167 0.80231 0.01043 0.0
C173 C 0.93064 0.7868 0.99648 0.0
H174 H 0.97114 0.75558 0.9767 0.0
H175 H 0.01322 0.74381 1.00212 0.0
H176 H 0.89254 0.84466 0.09058 0.0
H177 H 0.87974 0.83156 0.04381 0.0
H178 H 0.89354 0.80903 0.99999 0.0
H179 H 0.92681 0.7817 0.97557 0.0
Mn180 Mn 0.51439 0.7586 0.38432 0.0
Mn181 Mn 0.49965 0.79849 0.43729 0.0
C182 C 0.54872 0.78536 0.40399 0.0
C183 C 0.5281 0.71785 0.36542 0.0
C184 C 0.48496 0.81213 0.37961 0.0
O185 O 0.47822 0.74264 0.39688 0.0
O186 O 0.47212 0.76896 0.43306 0.0
C187 C 0.50639 0.76043 0.48223 0.0
N188 N 0.51212 0.78457 0.4708 0.0
C189 C 0.53344 0.80133 0.51158 0.0
C190 C 0.52766 0.77669 0.52389 0.0
C191 C 0.51431 0.75607 0.50906 0.0
C192 C 0.5254 0.80434 0.48472 0.0
H193 H 0.49565 0.74478 0.47101 0.0
C194 C 0.46506 0.74923 0.4177 0.0
O195 O 0.51409 0.73504 0.35178 0.0
O196 O 0.53314 0.72373 0.39048 0.0
N197 N 0.52416 0.82794 0.44462 0.0
C198 C 0.53083 0.84916 0.4288 0.0
C199 C 0.54624 0.87069 0.43984 0.0
C200 C 0.55394 0.8705 0.46716 0.0
C201 C 0.54661 0.8485 0.48307 0.0
C202 C 0.53183 0.82737 0.4708 0.0
H203 H 0.52434 0.84964 0.40797 0.0
O204 O 0.5502 0.77655 0.37952 0.0
O205 O 0.5269 0.77809 0.41698 0.0
O206 O 0.49499 0.79146 0.36861 0.0
O207 O 0.48549 0.81596 0.40488 0.0
C208 C 0.55375 0.84648 0.51051 0.0
C209 C 0.54722 0.82288 0.52475 0.0
H210 H 0.53358 0.7733 0.54462 0.0
H211 H 0.50985 0.73698 0.51839 0.0
H212 H 0.55186 0.88758 0.42743 0.0
H213 H 0.56566 0.88723 0.47564 0.0
H214 H 0.56494 0.86263 0.52066 0.0
H215 H 0.55346 0.82127 0.54564 0.0
Mn216 Mn 0.50528 0.26042 0.63586 0.0
Mn217 Mn 0.48519 0.29638 0.58262 0.0
C218 C 0.46206 0.25196 0.61658 0.0
C219 C 0.52989 0.2238 0.65177 0.0
C220 C 0.48717 0.31815 0.63977 0.0
O221 O 0.54052 0.27879 0.62321 0.0
O222 O 0.52512 0.29389 0.58345 0.0
C223 C 0.50152 0.2585 0.54008 0.0
N224 N 0.48225 0.27395 0.5515 0.0
C225 C 0.44985 0.26293 0.5163 0.0
C226 C 0.46947 0.24732 0.50379 0.0
C227 C 0.49533 0.24481 0.51594 0.0
C228 C 0.45693 0.27537 0.54075 0.0
H229 H 0.52136 0.25656 0.54942 0.0
C230 C 0.54438 0.28892 0.60011 0.0
O231 O 0.52533 0.24445 0.66701 0.0
O232 O 0.52024 0.22456 0.62741 0.0
N233 N 0.44684 0.30085 0.57852 0.0
C234 C 0.43047 0.3174 0.59268 0.0
C235 C 0.40397 0.32225 0.58313 0.0
C236 C 0.39483 0.31071 0.55875 0.0
C237 C 0.41223 0.29427 0.54426 0.0
C238 C 0.43834 0.29003 0.5548 0.0
H239 H 0.43761 0.3271 0.61097 0.0
O240 O 0.46812 0.24346 0.64046 0.0
O241 O 0.48182 0.26434 0.60465 0.0
O242 O 0.49222 0.29599 0.65145 0.0
O243 O 0.48688 0.32081 0.61423 0.0
C244 C 0.40492 0.28258 0.51937 0.0
C245 C 0.42362 0.26683 0.5054 0.0
H246 H 0.46485 0.23706 0.48497 0.0
H247 H 0.51051 0.23256 0.50661 0.0
H248 H 0.39077 0.33517 0.59434 0.0
H249 H 0.37444 0.31467 0.5513 0.0
H250 H 0.38505 0.28592 0.5108 0.0
H251 H 0.41773 0.25789 0.48625 0.0
Mn252 Mn 0.01244 0.25958 0.88401 0.0
Mn253 Mn 0.99775 0.29981 0.93676 0.0
C254 C 0.04675 0.28652 0.90347 0.0
C255 C 0.02635 0.21882 0.86524 0.0
C256 C 0.98309 0.31317 0.87902 0.0
O257 O 0.97636 0.24356 0.89676 0.0
O258 O 0.97017 0.27034 0.93257 0.0
C259 C 0.00427 0.26189 0.98185 0.0
N260 N 0.01011 0.28596 0.97034 0.0
C261 C 0.03136 0.30281 0.01112 0.0
C262 C 0.02548 0.27823 0.0235 0.0
C263 C 0.0121 0.2576 0.00871 0.0
C264 C 0.0234 0.30576 0.98423 0.0
H265 H 0.99349 0.24624 0.97067 0.0
C266 C 0.96314 0.25042 0.91747 0.0
O267 O 0.01219 0.23587 0.85157 0.0
O268 O 0.03137 0.22482 0.89027 0.0
N269 N 0.02231 0.32924 0.94405 0.0
C270 C 0.02906 0.35039 0.92818 0.0
C271 C 0.04447 0.37194 0.93921 0.0
C272 C 0.05209 0.37182 0.96654 0.0
C273 C 0.04468 0.34988 0.9825 0.0
C274 C 0.0299 0.32873 0.97025 0.0
H275 H 0.02262 0.35082 0.90734 0.0
O276 O 0.04817 0.27762 0.87903 0.0
O277 O 0.02499 0.27927 0.91655 0.0
O278 O 0.9929 0.29233 0.86816 0.0
O279 O 0.98374 0.3172 0.90426 0.0
C280 C 0.05174 0.34793 0.00997 0.0
C281 C 0.04514 0.32438 0.02426 0.0
H282 H 0.03134 0.2749 0.04426 0.0
H283 H 0.00755 0.23856 0.0181 0.0
H284 H 0.05015 0.38878 0.92676 0.0
H285 H 0.06381 0.38856 0.975 0.0
H286 H 0.06293 0.3641 0.0201 0.0
H287 H 0.05133 0.32282 0.04517 0.0
Mn288 Mn 0.38302 0.00859 0.24593 0.0
Mn289 Mn 0.32773 0.96955 0.25836 0.0
C290 C 0.36477 0.98085 0.21222 0.0
C291 C 0.40246 0.04969 0.23287 0.0
C292 C 0.38499 0.95589 0.27717 0.0
O293 O 0.36839 0.02503 0.28041 0.0
O294 O 0.33041 0.99963 0.28458 0.0
C295 C 0.28464 0.00846 0.2455 0.0
N296 N 0.29584 0.98394 0.2419 0.0
C297 C 0.25798 0.96899 0.214 0.0
C298 C 0.24596 0.99406 0.21744 0.0
C299 C 0.25946 0.01395 0.2331 0.0
C300 C 0.28332 0.96488 0.22643 0.0
H301 H 0.29479 0.02363 0.25784 0.0
C302 C 0.34617 0.01909 0.2921 0.0
O303 O 0.41586 0.03286 0.24759 0.0
O304 O 0.37757 0.04291 0.22629 0.0
N305 N 0.32182 0.93952 0.23481 0.0
C306 C 0.33676 0.91687 0.23261 0.0
C307 C 0.32611 0.8949 0.21782 0.0
C308 C 0.3001 0.89631 0.2058 0.0
C309 C 0.28532 0.92001 0.20788 0.0
C310 C 0.29693 0.94121 0.22296 0.0
H311 H 0.35642 0.9154 0.24248 0.0
O312 O 0.38969 0.98985 0.21125 0.0
O313 O 0.35084 0.9888 0.23271 0.0
O314 O 0.39718 0.97602 0.26677 0.0
O315 O 0.35919 0.95237 0.27582 0.0
C316 C 0.25941 0.92336 0.19586 0.0
C317 C 0.24587 0.94793 0.19869 0.0
H318 H 0.22643 0.99828 0.20809 0.0
H319 H 0.25034 0.03336 0.23582 0.0
H320 H 0.3377 0.87673 0.2161 0.0
H321 H 0.29171 0.87906 0.19495 0.0
H322 H 0.2498 0.90727 0.18418 0.0
H323 H 0.22617 0.95041 0.18898 0.0
Mn324 Mn 0.26578 0.13626 0.50675 0.0
Mn325 Mn 0.28399 0.18855 0.46838 0.0
C326 C 0.30897 0.15644 0.51403 0.0
C327 C 0.24221 0.12073 0.54425 0.0
C328 C 0.28285 0.13056 0.44887 0.0
O329 O 0.2298 0.14758 0.48894 0.0
O330 O 0.24424 0.18682 0.47203 0.0
C331 C 0.26734 0.2323 0.50461 0.0
N332 N 0.28636 0.22093 0.48885 0.0
C333 C 0.31538 0.26006 0.49225 0.0
C334 C 0.2959 0.27256 0.50806 0.0
C335 C 0.27198 0.2584 0.51471 0.0
C336 C 0.31019 0.23359 0.48392 0.0
H337 H 0.24881 0.22151 0.50933 0.0
C338 C 0.22535 0.17022 0.47814 0.0
O339 O 0.24671 0.10517 0.52384 0.0
O340 O 0.25141 0.14523 0.54282 0.0
N341 N 0.3219 0.19408 0.4621 0.0
C342 C 0.33829 0.17944 0.44599 0.0
C343 C 0.36334 0.19046 0.43796 0.0
C344 C 0.37069 0.21688 0.44537 0.0
C345 C 0.35309 0.23192 0.46112 0.0
C346 C 0.32887 0.21956 0.46935 0.0
H347 H 0.33224 0.15961 0.4391 0.0
O348 O 0.30319 0.13261 0.52285 0.0
O349 O 0.28889 0.168 0.50159 0.0
O350 O 0.27831 0.11965 0.47148 0.0
O351 O 0.28276 0.15595 0.44534 0.0
C352 C 0.35814 0.25902 0.46811 0.0
C353 C 0.33934 0.27303 0.48377 0.0
H354 H 0.29912 0.29297 0.51523 0.0
H355 H 0.25694 0.26775 0.52712 0.0
H356 H 0.37662 0.17886 0.42547 0.0
H357 H 0.38974 0.22554 0.43861 0.0
H358 H 0.3763 0.26937 0.46134 0.0
H359 H 0.34333 0.29391 0.48893 0.0
Mn360 Mn 0.13785 0.02236 0.76018 0.0
Mn361 Mn 0.19259 0.98624 0.74292 0.0
C362 C 0.15797 0.99392 0.79148 0.0
C363 C 0.11792 0.06158 0.7764 0.0
C364 C 0.13462 0.97082 0.72625 0.0
O365 O 0.1504 0.04067 0.72557 0.0
O366 O 0.18849 0.01738 0.71892 0.0
C367 C 0.23567 0.02658 0.75695 0.0
N368 N 0.22505 1.00127 0.75899 0.0
C369 C 0.26434 0.9866 0.78395 0.0
C370 C 0.27582 0.01249 0.78205 0.0
C371 C 0.26131 0.03263 0.76868 0.0
C372 C 0.23848 0.98197 0.77241 0.0
H373 H 0.2247 0.04196 0.74637 0.0
C374 C 0.17224 0.03623 0.71283 0.0
O375 O 0.10444 0.04442 0.76137 0.0
O376 O 0.14338 0.05651 0.78127 0.0
N377 N 0.19989 0.95522 0.76394 0.0
C378 C 0.18559 0.93154 0.76454 0.0
C379 C 0.19754 0.90902 0.77629 0.0
C380 C 0.22416 0.911 0.78696 0.0
C381 C 0.23821 0.93575 0.78679 0.0
C382 C 0.22537 0.95741 0.77455 0.0
H383 H 0.16549 0.92964 0.75551 0.0
O384 O 0.13324 1.00204 0.79425 0.0
O385 O 0.1708 1.00335 0.77083 0.0
O386 O 0.12308 0.98982 0.73867 0.0
O387 O 0.16043 0.96846 0.72566 0.0
C388 C 0.26462 0.93968 0.79787 0.0
C389 C 0.27753 0.96519 0.79677 0.0
H390 H 0.29571 0.01714 0.79081 0.0
H391 H 0.26999 0.05267 0.76718 0.0
H392 H 0.1865 0.89003 0.7766 0.0
H393 H 0.23357 0.89337 0.79534 0.0
H394 H 0.27509 0.92329 0.8075 0.0
H395 H 0.29764 0.96808 0.80573 0.0
Mn396 Mn 0.25507 0.88556 0.00617 0.0
Mn397 Mn 0.23169 0.83261 0.96959 0.0
C398 C 0.21356 0.86568 0.01657 0.0
C399 C 0.28173 0.90187 0.0421 0.0
C400 C 0.23025 0.89035 0.95013 0.0
O401 O 0.28855 0.87355 0.98605 0.0
O402 O 0.27177 0.83557 0.96687 0.0
C403 C 0.25644 0.78862 1.00071 0.0
N404 N 0.2341 0.80009 0.9894 0.0
C405 C 0.20584 0.76186 0.99999 0.0
C406 C 0.22855 0.74952 0.01166 0.0
C407 C 0.25391 0.76307 0.01224 0.0
C408 C 0.20949 0.78757 0.98938 0.0
H409 H 0.27602 0.79886 1.00082 0.0
C410 C 0.29138 0.85201 0.9725 0.0
O411 O 0.27575 0.91708 0.02182 0.0
O412 O 0.27279 0.87725 0.04107 0.0
N413 N 0.19318 0.8267 0.97018 0.0
C414 C 0.17307 0.84213 0.95969 0.0
C415 C 0.14634 0.8317 0.95785 0.0
C416 C 0.14073 0.80536 0.96628 0.0
C417 C 0.16174 0.78996 0.97726 0.0
C418 C 0.18786 0.80154 0.97888 0.0
H419 H 0.17748 0.86206 0.95236 0.0
O420 O 0.2197 0.88994 0.02451 0.0
O421 O 0.23218 0.85351 1.00308 0.0
O422 O 0.23904 0.90169 0.9717 0.0
O423 O 0.22789 0.86492 0.9472 0.0
C424 C 0.15781 0.76355 0.98665 0.0
C425 C 0.17974 0.74968 0.99841 0.0
H426 H 0.22673 0.72969 0.02031 0.0
H427 H 0.27152 0.75372 0.02127 0.0
H428 H 0.1302 0.84374 0.94949 0.0
H429 H 0.12017 0.79724 0.96442 0.0
H430 H 0.13785 0.75394 0.98545 0.0
H431 H 0.1763 0.72967 0.00616 0.0
Mn432 Mn 0.2557 0.38584 0.00986 0.0
Mn433 Mn 0.27 0.33282 0.96985 0.0
C434 C 0.22121 0.36639 0.98313 0.0
C435 C 0.24201 0.40486 0.05058 0.0
C436 C 0.28488 0.39041 0.95614 0.0
O437 O 0.29177 0.37302 0.02582 0.0
O438 O 0.29771 0.33704 0.9992 0.0
C439 C 0.2634 0.28797 0.00804 0.0
N440 N 0.25753 0.29937 0.98392 0.0
C441 C 0.23604 0.25858 0.96736 0.0
C442 C 0.24195 0.24632 0.99199 0.0
C443 C 0.25546 0.26116 0.0125 0.0
C444 C 0.24411 0.28543 0.96424 0.0
H445 H 0.27428 0.29919 0.0236 0.0
C446 C 0.30487 0.35222 0.01902 0.0
O447 O 0.25617 0.4184 0.03342 0.0
O448 O 0.23687 0.37983 0.04471 0.0
N449 N 0.2453 0.32547 0.94054 0.0
C450 C 0.23854 0.34125 0.91932 0.0
C451 C 0.22301 0.33018 0.89788 0.0
C452 C 0.21526 0.30288 0.89818 0.0
C453 C 0.22268 0.28701 0.92018 0.0
C454 C 0.23759 0.29931 0.94122 0.0
H455 H 0.24506 0.36206 0.91876 0.0
O456 O 0.21992 0.39088 0.9919 0.0
O457 O 0.24294 0.35325 0.99037 0.0
O458 O 0.2752 0.40143 0.97697 0.0
O459 O 0.28408 0.36516 0.95223 0.0
C460 C 0.2155 0.25958 0.9223 0.0
C461 C 0.22213 0.24539 0.94591 0.0
H462 H 0.23602 0.22561 0.99546 0.0
H463 H 0.26003 0.25186 0.03158 0.0
H464 H 0.21732 0.34256 0.881 0.0
H465 H 0.20344 0.29438 0.88153 0.0
H466 H 0.20421 0.24942 0.90623 0.0
H467 H 0.21586 0.22452 0.9476 0.0
Mn468 Mn 0.74935 0.13117 0.00737 0.0
Mn469 Mn 0.78407 0.07836 0.98365 0.0
C470 C 0.73792 0.11313 0.96545 0.0
C471 C 0.71431 0.1488 0.03315 0.0
C472 C 0.80588 0.13568 0.9825 0.0
O473 O 0.76949 0.11756 0.04082 0.0
O474 O 0.78891 0.08113 0.02322 0.0
C475 C 0.75176 0.03482 0.00869 0.0
N476 N 0.76247 0.04628 0.98642 0.0
C477 C 0.74645 0.00947 0.95853 0.0
C478 C 0.7353 0.9972 0.98117 0.0
C479 C 0.73783 0.01002 0.00633 0.0
C480 C 0.75976 0.03436 0.96206 0.0
H481 H 0.75391 0.04451 0.02809 0.0
C482 C 0.78365 0.09643 0.04313 0.0
O483 O 0.73591 0.16289 0.02753 0.0
O484 O 0.71332 0.12422 0.02431 0.0
N485 N 0.78159 0.07257 0.94573 0.0
C486 C 0.79261 0.08759 0.92578 0.0
C487 C 0.79197 0.07759 0.89937 0.0
C488 C 0.78041 0.05212 0.89385 0.0
C489 C 0.7689 0.03716 0.91464 0.0
C490 C 0.77023 0.04811 0.94056 0.0
H491 H 0.80212 0.1069 0.93003 0.0
O492 O 0.73074 0.13717 0.97206 0.0
O493 O 0.75082 0.09977 0.98399 0.0
O494 O 0.78501 0.14667 0.99242 0.0
O495 O 0.80792 0.11035 0.97933 0.0
C496 C 0.75632 0.01174 0.91072 0.0
C497 C 0.74486 0.99803 0.9326 0.0
H498 H 0.72469 0.97799 0.97946 0.0
H499 H 0.72923 1.0007 0.02389 0.0
H500 H 0.80076 0.08929 0.88338 0.0
H501 H 0.78055 0.04423 0.87356 0.0
H502 H 0.75513 1.00264 0.89092 0.0
H503 H 0.73486 0.9787 0.92926 0.0
Mn504 Mn 0.13205 0.51071 0.24747 0.0
Mn505 Mn 0.07763 0.52801 0.28403 0.0
C506 C 0.11214 0.47942 0.27604 0.0
C507 C 0.15167 0.49448 0.20809 0.0
C508 C 0.13573 0.54458 0.29904 0.0
O509 O 0.1194 0.54534 0.22927 0.0
O510 O 0.08152 0.55204 0.25289 0.0
C511 C 0.03422 0.51409 0.24399 0.0
N512 N 0.04504 0.51199 0.26923 0.0
C513 C 0.00586 0.48702 0.28414 0.0
C514 C 0.99419 0.48898 0.25834 0.0
C515 C 0.00854 0.50239 0.23812 0.0
C516 C 0.03175 0.49855 0.2886 0.0
H517 H 0.04509 0.52469 0.22854 0.0
C518 C 0.09762 0.55811 0.23391 0.0
O519 O 0.16529 0.5095 0.22515 0.0
O520 O 0.12624 0.48964 0.21335 0.0
N521 N 0.07055 0.50695 0.31508 0.0
C522 C 0.08504 0.50629 0.33865 0.0
C523 C 0.07326 0.49449 0.36124 0.0
C524 C 0.04662 0.48383 0.35943 0.0
C525 C 0.03238 0.48406 0.33479 0.0
C526 C 0.04505 0.49635 0.31306 0.0
H527 H 0.10515 0.5153 0.34042 0.0
O528 O 0.1368 0.47664 0.26773 0.0
O529 O 0.09925 0.50009 0.26673 0.0
O530 O 0.1471 0.53218 0.27991 0.0
O531 O 0.10994 0.54519 0.3016 0.0
C532 C 0.00594 0.473 0.33104 0.0
C533 C 0.99284 0.47416 0.30563 0.0
H534 H 0.97425 0.48024 0.25382 0.0
H535 H 0.9997 0.50393 0.21814 0.0
H536 H 0.08445 0.49413 0.38014 0.0
H537 H 0.03735 0.47541 0.37711 0.0
H538 H 0.9956 0.46334 0.34748 0.0
H539 H 0.9727 0.46522 0.30287 0.0
Mn540 Mn 0.7569 0.88507 0.51154 0.0
Mn541 Mn 0.77189 0.83243 0.47132 0.0
C542 C 0.72267 0.86547 0.48459 0.0
C543 C 0.74304 0.90367 0.55237 0.0
C544 C 0.78635 0.89024 0.45805 0.0
O545 O 0.79309 0.87254 0.52748 0.0
O546 O 0.79939 0.83661 0.50088 0.0
C547 C 0.76535 0.78724 0.5091 0.0
N548 N 0.75956 0.79878 0.48504 0.0
C549 C 0.73842 0.75801 0.46805 0.0
C550 C 0.74425 0.74559 0.49262 0.0
C551 C 0.75755 0.76035 0.51332 0.0
C552 C 0.74635 0.78493 0.46518 0.0
H553 H 0.77607 0.7984 0.52481 0.0
C554 C 0.80637 0.85184 0.52073 0.0
O555 O 0.75705 0.91746 0.5353 0.0
O556 O 0.7381 0.87863 0.54633 0.0
N557 N 0.74744 0.82516 0.4418 0.0
C558 C 0.74071 0.84106 0.42067 0.0
C559 C 0.72537 0.83007 0.39906 0.0
C560 C 0.71779 0.80273 0.3991 0.0
C561 C 0.72516 0.78673 0.42102 0.0
C562 C 0.73988 0.79894 0.44223 0.0
H563 H 0.74712 0.86191 0.42031 0.0
O564 O 0.72111 0.88987 0.49356 0.0
O565 O 0.74452 0.8525 0.49182 0.0
O566 O 0.77628 0.90106 0.4788 0.0
O567 O 0.78591 0.865 0.45405 0.0
C568 C 0.71814 0.75924 0.42289 0.0
C569 C 0.72471 0.7449 0.44642 0.0
H570 H 0.73842 0.72481 0.49589 0.0
H571 H 0.76206 0.75092 0.53235 0.0
H572 H 0.71971 0.84255 0.38224 0.0
H573 H 0.70612 0.79429 0.38232 0.0
H574 H 0.70701 0.74914 0.40667 0.0
H575 H 0.71855 0.72399 0.44791 0.0
Mn576 Mn 0.88661 0.02486 0.26141 0.0
Mn577 Mn 0.94219 0.01252 0.30009 0.0
C578 C 0.9051 0.05865 0.28893 0.0
C579 C 0.86684 0.03781 0.22042 0.0
C580 C 0.88504 0.99377 0.31422 0.0
O581 O 0.9011 0.99033 0.24495 0.0
O582 O 0.93926 0.98622 0.27009 0.0
C583 C 0.98498 0.02523 0.26082 0.0
N584 N 0.97398 0.0289 0.28542 0.0
C585 C 0.01201 0.05673 0.30006 0.0
C586 C 0.02383 0.05323 0.2749 0.0
C587 C 0.01015 0.03757 0.25513 0.0
C588 C 0.98668 0.04437 0.30437 0.0
H589 H 0.97469 0.01288 0.24574 0.0
C590 C 0.92335 0.97865 0.25076 0.0
O591 O 0.85358 0.02315 0.23741 0.0
O592 O 0.89178 0.04441 0.22699 0.0
N593 N 0.94835 0.03613 0.33002 0.0
C594 C 0.9336 0.03839 0.35279 0.0
C595 C 0.94447 0.05315 0.37468 0.0
C596 C 0.9705 0.06509 0.37307 0.0
C597 C 0.98508 0.06297 0.34924 0.0
C598 C 0.97325 0.04791 0.32814 0.0
H599 H 0.91393 0.02857 0.35442 0.0
O600 O 0.88011 0.05959 0.28012 0.0
O601 O 0.91895 0.03813 0.28093 0.0
O602 O 0.8727 0.00411 0.29414 0.0
O603 O 0.91086 0.99513 0.31755 0.0
C604 C 0.01099 0.07492 0.34569 0.0
C605 C 0.02432 0.07203 0.32102 0.0
H606 H 0.04335 0.06251 0.27052 0.0
H607 H 0.01911 0.03479 0.23565 0.0
H608 H 0.93303 0.0549 0.39294 0.0
H609 H 0.97906 0.0759 0.39026 0.0
H610 H 0.02075 0.08658 0.3617 0.0
H611 H 0.04403 0.08168 0.31838 0.0
Mn612 Mn 0.24984 0.63107 0.50541 0.0
Mn613 Mn 0.28378 0.57798 0.48118 0.0
C614 C 0.23805 0.61351 0.46336 0.0
C615 C 0.21517 0.64899 0.53147 0.0
C616 C 0.30636 0.63503 0.48043 0.0
O617 O 0.2699 0.61695 0.53868 0.0
O618 O 0.28881 0.58041 0.52077 0.0
C619 C 0.25095 0.53469 0.50601 0.0
N620 N 0.26175 0.54616 0.48378 0.0
C621 C 0.24508 0.50978 0.45568 0.0
C622 C 0.23383 0.4975 0.47827 0.0
C623 C 0.23665 0.51009 0.50352 0.0
C624 C 0.25876 0.53446 0.45935 0.0
H625 H 0.25332 0.5442 0.52548 0.0
C626 C 0.28383 0.59565 0.5408 0.0
O627 O 0.23695 0.66283 0.52586 0.0
O628 O 0.21378 0.6245 0.52242 0.0
N629 N 0.28109 0.57249 0.44323 0.0
C630 C 0.29229 0.58749 0.42335 0.0
C631 C 0.29143 0.57767 0.39688 0.0
C632 C 0.27948 0.5524 0.3912 0.0
C633 C 0.26779 0.53747 0.41192 0.0
C634 C 0.26937 0.54822 0.43792 0.0
H635 H 0.30209 0.60663 0.42771 0.0
O636 O 0.23123 0.63759 0.4702 0.0
O637 O 0.25081 0.59982 0.48176 0.0
O638 O 0.28568 0.6462 0.4905 0.0
O639 O 0.30804 0.60969 0.47702 0.0
C640 C 0.25481 0.51226 0.40785 0.0
C641 C 0.24322 0.49856 0.42966 0.0
H642 H 0.22294 0.47845 0.47645 0.0
H643 H 0.22799 0.50077 0.52104 0.0
H644 H 0.30036 0.58936 0.38095 0.0
H645 H 0.27946 0.54465 0.37086 0.0
H646 H 0.25341 0.50333 0.38798 0.0
H647 H 0.23292 0.4794 0.42621 0.0
Mn648 Mn 0.38667 0.52299 0.75888 0.0
Mn649 Mn 0.44202 0.51044 0.79782 0.0
C650 C 0.40504 0.55667 0.78664 0.0
C651 C 0.36712 0.53603 0.7178 0.0
C652 C 0.38476 0.49167 0.81152 0.0
O653 O 0.40121 0.48845 0.74243 0.0
O654 O 0.43936 0.48441 0.76761 0.0
C655 C 0.48511 0.52356 0.75899 0.0
N656 N 0.47392 0.52698 0.78354 0.0
C657 C 0.51189 0.55459 0.79876 0.0
C658 C 0.5239 0.55134 0.77366 0.0
C659 C 0.51034 0.53592 0.75362 0.0
C660 C 0.48649 0.54223 0.80274 0.0
H661 H 0.4749 0.51139 0.74371 0.0
C662 C 0.42352 0.47685 0.74823 0.0
O663 O 0.35377 0.52136 0.7347 0.0
O664 O 0.39204 0.5426 0.7245 0.0
N665 N 0.44793 0.53379 0.828 0.0
C666 C 0.43302 0.53578 0.85069 0.0
C667 C 0.44376 0.55025 0.87283 0.0
C668 C 0.46983 0.56216 0.87155 0.0
C669 C 0.48457 0.56031 0.8478 0.0
C670 C 0.47287 0.54554 0.82644 0.0
H671 H 0.41332 0.52596 0.85207 0.0
O672 O 0.38013 0.55771 0.77763 0.0
O673 O 0.4189 0.53616 0.77866 0.0
O674 O 0.37253 0.50224 0.7915 0.0
O675 O 0.41057 0.49286 0.81491 0.0
C676 C 0.51055 0.57225 0.84457 0.0
C677 C 0.52407 0.56963 0.81998 0.0
H678 H 0.54347 0.56064 0.76953 0.0
H679 H 0.51945 0.53335 0.73418 0.0
H680 H 0.4322 0.55178 0.89103 0.0
H681 H 0.4783 0.57273 0.88893 0.0
H682 H 0.52021 0.5837 0.86079 0.0
H683 H 0.54381 0.57927 0.81759 0.0
Mn684 Mn 0.63315 0.00769 0.75024 0.0
Mn685 Mn 0.57852 0.02511 0.78644 0.0
C686 C 0.61292 0.97642 0.77858 0.0
C687 C 0.65287 0.99156 0.71089 0.0
C688 C 0.63657 0.04155 0.80179 0.0
O689 O 0.62081 0.04243 0.73212 0.0
O690 O 0.5827 0.04918 0.75536 0.0
C691 C 0.5353 0.01139 0.74615 0.0
N692 N 0.54598 0.00921 0.77143 0.0
C693 C 0.50662 0.98436 0.7861 0.0
C694 C 0.4951 0.98639 0.76024 0.0
C695 C 0.50961 0.99978 0.74012 0.0
C696 C 0.53253 0.99578 0.79072 0.0
H697 H 0.54628 0.02199 0.73078 0.0
C698 C 0.59904 0.05526 0.7366 0.0
O699 O 0.6665 0.00642 0.72809 0.0
O700 O 0.62741 0.98679 0.71603 0.0
N701 N 0.5712 0.00404 0.81742 0.0
C702 C 0.58556 1.00329 0.84106 0.0
C703 C 0.57363 0.99147 0.86355 0.0
C704 C 0.54697 0.98089 0.86159 0.0
C705 C 0.53285 0.98122 0.83689 0.0
C706 C 0.54568 0.99351 0.81525 0.0
H707 H 0.60569 0.01225 0.84294 0.0
O708 O 0.63762 0.97354 0.77042 0.0
O709 O 0.60018 0.99717 0.76924 0.0
O710 O 0.64806 0.02904 0.78281 0.0
O711 O 0.61077 0.04221 0.80418 0.0
C712 C 0.50639 0.97027 0.83297 0.0
C713 C 0.49343 0.97151 0.8075 0.0
H714 H 0.47516 0.97772 0.75561 0.0
H715 H 0.50088 1.00139 0.72011 0.0
H716 H 0.58472 0.99104 0.88251 0.0
H717 H 0.53758 0.97245 0.87921 0.0
H718 H 0.49593 0.96062 0.84935 0.0
H719 H 0.47328 0.96264 0.80463 0.0
Mn720 Mn 0.76555 0.63368 0.00817 0.0
Mn721 Mn 0.78557 0.68702 0.97232 0.0
C722 C 0.80868 0.65311 0.0168 0.0
C723 C 0.74087 0.61768 0.0447 0.0
C724 C 0.78384 0.62989 0.95049 0.0
O725 O 0.73032 0.64622 0.98971 0.0
O726 O 0.74563 0.68604 0.97467 0.0
C727 C 0.76894 0.72946 0.01017 0.0
N728 N 0.78831 0.71812 0.99479 0.0
C729 C 0.82056 0.75339 0.006 0.0
C730 C 0.80083 0.76582 0.02154 0.0
C731 C 0.77499 0.75359 0.02392 0.0
C732 C 0.8136 0.72895 0.99349 0.0
H733 H 0.7491 0.72006 0.012 0.0
C734 C 0.72641 0.66931 0.97958 0.0
O735 O 0.74554 0.60246 0.02407 0.0
O736 O 0.75045 0.64206 0.04398 0.0
N737 N 0.82393 0.69125 0.96801 0.0
C738 C 0.84042 0.67715 0.95154 0.0
C739 C 0.86693 0.68677 0.94683 0.0
C740 C 0.87595 0.71117 0.95844 0.0
C741 C 0.85842 0.72559 0.9748 0.0
C742 C 0.83231 0.71498 0.97889 0.0
H743 H 0.83339 0.65884 0.94179 0.0
O744 O 0.80268 0.6292 0.02524 0.0
O745 O 0.78891 0.66497 0.00435 0.0
O746 O 0.77876 0.61816 0.97262 0.0
O747 O 0.78409 0.65543 0.94787 0.0
C748 C 0.86561 0.75047 0.98658 0.0
C749 C 0.84679 0.76436 1.00226 0.0
H750 H 0.80536 0.78463 0.03185 0.0
H751 H 0.75972 0.76286 0.03611 0.0
H752 H 0.88023 0.67562 0.93397 0.0
H753 H 0.89633 0.71868 0.95459 0.0
H754 H 0.88549 0.75907 0.98338 0.0
H755 H 0.85258 0.7835 0.01127 0.0
Mn756 Mn 0.88351 0.51067 0.7452 0.0
Mn757 Mn 0.82775 0.47227 0.75762 0.0
C758 C 0.86488 0.48316 0.71144 0.0
C759 C 0.90348 0.5516 0.73227 0.0
C760 C 0.88484 0.45794 0.7764 0.0
O761 O 0.86912 0.5272 0.77978 0.0
O762 O 0.83073 0.50239 0.78373 0.0
C763 C 0.78512 0.5116 0.74456 0.0
N764 N 0.79602 0.48692 0.74111 0.0
C765 C 0.75788 0.47214 0.7135 0.0
C766 C 0.74616 0.49738 0.71679 0.0
C767 C 0.75995 0.51726 0.73222 0.0
C768 C 0.78324 0.46788 0.72583 0.0
H769 H 0.79549 0.52675 0.75675 0.0
C770 C 0.84675 0.52159 0.79135 0.0
O771 O 0.91665 0.53452 0.7469 0.0
O772 O 0.87851 0.54516 0.72567 0.0
N773 N 0.82151 0.44219 0.73421 0.0
C774 C 0.83614 0.41933 0.73221 0.0
C775 C 0.82512 0.39729 0.71778 0.0
C776 C 0.79905 0.39886 0.70592 0.0
C777 C 0.78461 0.42279 0.70774 0.0
C778 C 0.79658 0.44403 0.72249 0.0
H779 H 0.85583 0.41772 0.742 0.0
O780 O 0.88988 0.49193 0.71044 0.0
O781 O 0.85108 0.49124 0.73195 0.0
O782 O 0.89729 0.47787 0.76591 0.0
O783 O 0.859 0.4548 0.77516 0.0
C784 C 0.75867 0.42631 0.69582 0.0
C785 C 0.74544 0.45107 0.69846 0.0
H786 H 0.72663 0.50173 0.70751 0.0
H787 H 0.75106 0.53679 0.73482 0.0
H788 H 0.83646 0.37895 0.71625 0.0
H789 H 0.79036 0.38156 0.69538 0.0
H790 H 0.74882 0.4102 0.68438 0.0
H791 H 0.72572 0.45367 0.68884 0.0
Mn792 Mn 0.75449 0.38493 0.5069 0.0
Mn793 Mn 0.73235 0.33123 0.4707 0.0
C794 C 0.71336 0.36428 0.51736 0.0
C795 C 0.78086 0.4021 0.54263 0.0
C796 C 0.72961 0.38874 0.4508 0.0
O797 O 0.78824 0.37354 0.48687 0.0
O798 O 0.77238 0.33505 0.46801 0.0
C799 C 0.75807 0.28808 0.50225 0.0
N800 N 0.73548 0.29894 0.49079 0.0
C801 C 0.70808 0.26021 0.5017 0.0
C802 C 0.73106 0.24849 0.51353 0.0
C803 C 0.75612 0.2626 0.51401 0.0
C804 C 0.71116 0.28588 0.49085 0.0
H805 H 0.77742 0.29876 0.50229 0.0
C806 C 0.79159 0.35199 0.47348 0.0
O807 O 0.7745 0.41699 0.52223 0.0
O808 O 0.77242 0.37731 0.54187 0.0
N809 N 0.69397 0.32444 0.47123 0.0
C810 C 0.67354 0.33928 0.46048 0.0
C811 C 0.64707 0.32821 0.45861 0.0
C812 C 0.64205 0.30186 0.4673 0.0
C813 C 0.66337 0.28708 0.4786 0.0
C814 C 0.68922 0.29926 0.48016 0.0
H815 H 0.6775 0.35922 0.45295 0.0
O816 O 0.71901 0.38868 0.52518 0.0
O817 O 0.73228 0.35239 0.50402 0.0
O818 O 0.73812 0.40041 0.4723 0.0
O819 O 0.72784 0.36326 0.44805 0.0
C820 C 0.66002 0.26072 0.48828 0.0
C821 C 0.68225 0.24746 0.50022 0.0
H822 H 0.72969 0.22872 0.52237 0.0
H823 H 0.77394 0.25374 0.52317 0.0
H824 H 0.63068 0.33977 0.45002 0.0
H825 H 0.6217 0.29323 0.46539 0.0
H826 H 0.64029 0.25065 0.48713 0.0
H827 H 0.67927 0.22747 0.50817 0.0
Mn828 Mn 0.63644 0.51963 0.26049 0.0
Mn829 Mn 0.69075 0.48297 0.2431 0.0
C830 C 0.65645 0.49116 0.2918 0.0
C831 C 0.61707 0.55915 0.27662 0.0
C832 C 0.63258 0.46807 0.22668 0.0
O833 O 0.64893 0.53762 0.22573 0.0
O834 O 0.68685 0.51406 0.21902 0.0
C835 C 0.73433 0.52289 0.25679 0.0
N836 N 0.72343 0.4977 0.25898 0.0
C837 C 0.76267 0.48269 0.2838 0.0
C838 C 0.77442 0.50844 0.28175 0.0
C839 C 0.76008 0.52869 0.26838 0.0
C840 C 0.73671 0.4783 0.2724 0.0
H841 H 0.72348 0.53835 0.24621 0.0
C842 C 0.67067 0.53296 0.21291 0.0
O843 O 0.60329 0.54205 0.26177 0.0
O844 O 0.64248 0.55381 0.28137 0.0
N845 N 0.69779 0.45194 0.26419 0.0
C846 C 0.68322 0.42843 0.26498 0.0
C847 C 0.69494 0.40583 0.27681 0.0
C848 C 0.72162 0.40756 0.28736 0.0
C849 C 0.73597 0.43214 0.28699 0.0
C850 C 0.72334 0.45388 0.27469 0.0
H851 H 0.66306 0.42672 0.25604 0.0
O852 O 0.63182 0.49952 0.29467 0.0
O853 O 0.66925 0.50037 0.27103 0.0
O854 O 0.62125 0.48716 0.23918 0.0
O855 O 0.65836 0.46548 0.22601 0.0
C856 C 0.76247 0.43582 0.29791 0.0
C857 C 0.77567 0.46117 0.29664 0.0
H858 H 0.79441 0.51291 0.2904 0.0
H859 H 0.76899 0.54863 0.26676 0.0
H860 H 0.68367 0.38698 0.27727 0.0
H861 H 0.73085 0.38987 0.29581 0.0
H862 H 0.7728 0.41935 0.30756 0.0
H863 H 0.79585 0.46387 0.30549 0.0
C864 C 0.07346 0.44757 0.28543 0.0
C865 C 0.09946 0.45785 0.2921 0.0
C866 C 0.06232 0.42549 0.29922 0.0
C867 C 0.07815 0.4126 0.31922 0.0
C868 C 0.10471 0.4226 0.32554 0.0
C869 C 0.11496 0.44515 0.312 0.0
C870 C 0.03372 0.4159 0.29228 0.0
C871 C 0.12244 0.40931 0.34646 0.0
C872 C 0.04542 0.36975 0.37312 0.0
C873 C 0.04846 0.34374 0.36301 0.0
C874 C 0.0544 0.39221 0.35882 0.0
C875 C 0.06703 0.38876 0.33377 0.0
C876 C 0.07002 0.36246 0.32329 0.0
C877 C 0.06037 0.34023 0.33791 0.0
C878 C 0.04979 0.41961 0.37046 0.0
C879 C 0.08423 0.35775 0.29714 0.0
H880 H 0.06203 0.45647 0.26908 0.0
H881 H 0.13535 0.4527 0.31673 0.0
H882 H 0.03389 0.3948 0.28508 0.0
H883 H 0.02109 0.41635 0.31051 0.0
H884 H 0.02394 0.42837 0.27657 0.0
H885 H 0.14304 0.41882 0.34818 0.0
H886 H 0.11269 0.41042 0.36633 0.0
H887 H 0.12465 0.38774 0.34141 0.0
H888 H 0.03585 0.37258 0.39235 0.0
H889 H 0.063 0.32008 0.33014 0.0
H890 H 0.03334 0.42904 0.35856 0.0
H891 H 0.06842 0.4324 0.36923 0.0
H892 H 0.04348 0.41884 0.39174 0.0
H893 H 0.07404 0.36891 0.28073 0.0
H894 H 0.08454 0.33615 0.29152 0.0
H895 H 0.10554 0.3655 0.29877 0.0
C896 C 0.91592 0.79961 0.62797 0.0
C897 C 0.94222 0.79826 0.61758 0.0
C898 C 0.89407 0.8091 0.61238 0.0
C899 C 0.89869 0.81808 0.58592 0.0
C900 C 0.92528 0.81712 0.57543 0.0
C901 C 0.94666 0.80693 0.59127 0.0
C902 C 0.86593 0.80915 0.6241 0.0
C903 C 0.93114 0.82695 0.54749 0.0
C904 C 0.83902 0.8171 0.53631 0.0
C905 C 0.8304 0.84382 0.53717 0.0
C906 C 0.86109 0.80854 0.5521 0.0
C907 C 0.87544 0.82723 0.56882 0.0
C908 C 0.86721 0.85435 0.5695 0.0
C909 C 0.84457 0.86227 0.5539 0.0
C910 C 0.86876 0.77933 0.55119 0.0
C911 C 0.88234 0.87497 0.58669 0.0
H912 H 0.91233 0.79289 0.64827 0.0
H913 H 0.967 0.8063 0.58324 0.0
H914 H 0.85784 0.82978 0.62398 0.0
H915 H 0.85185 0.79642 0.61158 0.0
H916 H 0.86576 0.80157 0.64501 0.0
H917 H 0.95314 0.82613 0.54281 0.0
H918 H 0.91954 0.81457 0.53247 0.0
H919 H 0.92435 0.84794 0.54524 0.0
H920 H 0.82816 0.80259 0.52362 0.0
H921 H 0.83816 0.88295 0.55459 0.0
H922 H 0.86765 0.77061 0.57158 0.0
H923 H 0.89006 0.77745 0.54453 0.0
H924 H 0.85526 0.76727 0.53741 0.0
H925 H 0.88112 0.86938 0.60815 0.0
H926 H 0.87407 0.89542 0.58419 0.0
H927 H 0.90422 0.87548 0.58151 0.0
C928 C 0.40168 0.59485 0.81884 0.0
C929 C 0.41725 0.58027 0.80075 0.0
C930 C 0.41161 0.61909 0.83018 0.0
C931 C 0.43792 0.62876 0.82356 0.0
C932 C 0.45374 0.614 0.80534 0.0
C933 C 0.44286 0.59033 0.79359 0.0
C934 C 0.39386 0.6345 0.84903 0.0
C935 C 0.48212 0.62323 0.79822 0.0
C936 C 0.4597 0.70215 0.83239 0.0
C937 C 0.4738 0.70158 0.8571 0.0
C938 C 0.44693 0.6788 0.82171 0.0
C939 C 0.44902 0.65423 0.83574 0.0
C940 C 0.46262 0.65389 0.86103 0.0
C941 C 0.47472 0.67752 0.87138 0.0
C942 C 0.43137 0.68037 0.79538 0.0
C943 C 0.46603 0.62843 0.87669 0.0
H944 H 0.38151 0.58744 0.82382 0.0
H945 H 0.4542 0.57995 0.77839 0.0
H946 H 0.40371 0.63577 0.86923 0.0
H947 H 0.39144 0.65534 0.84177 0.0
H948 H 0.37335 0.62501 0.851 0.0
H949 H 0.49192 0.60924 0.78407 0.0
H950 H 0.48156 0.64337 0.78893 0.0
H951 H 0.49496 0.62507 0.81674 0.0
H952 H 0.45867 0.72082 0.8214 0.0
H953 H 0.48573 0.67685 0.89043 0.0
H954 H 0.41062 0.67154 0.79749 0.0
H955 H 0.44174 0.66853 0.77981 0.0
H956 H 0.42957 0.70135 0.78824 0.0
H957 H 0.44803 0.61482 0.87448 0.0
H958 H 0.46975 0.63256 0.8984 0.0
H959 H 0.48402 0.61805 0.86893 0.0
C960 C 0.59872 0.21352 0.12512 0.0
C961 C 0.57684 0.22185 0.10888 0.0
C962 C 0.62114 0.20055 0.114 0.0
C963 C 0.62191 0.19608 0.08591 0.0
C964 C 0.59974 0.20419 0.06947 0.0
C965 C 0.57744 0.21681 0.08116 0.0
C966 C 0.64417 0.19192 0.13228 0.0
C967 C 0.59982 0.20007 0.03942 0.0
C968 C 0.69069 0.18835 0.05279 0.0
C969 C 0.69133 0.1606 0.04792 0.0
C970 C 0.66838 0.20008 0.06533 0.0
C971 C 0.64622 0.18367 0.07354 0.0
C972 C 0.64704 0.15556 0.06925 0.0
C973 C 0.66947 0.14439 0.05635 0.0
C974 C 0.66826 0.23015 0.06926 0.0
C975 C 0.62404 0.1373 0.07799 0.0
H976 H 0.5984 0.21725 0.14656 0.0
H977 H 0.5607 0.22325 0.06843 0.0
H978 H 0.64794 0.17022 0.1294 0.0
H979 H 0.66317 0.20294 0.12713 0.0
H980 H 0.6399 0.19567 0.15379 0.0
H981 H 0.58082 0.20708 0.0295 0.0
H982 H 0.61738 0.21112 0.0308 0.0
H983 H 0.60226 0.17851 0.03457 0.0
H984 H 0.70742 0.20105 0.04627 0.0
H985 H 0.66982 0.12292 0.05276 0.0
H986 H 0.66584 0.23513 0.09081 0.0
H987 H 0.65066 0.23868 0.05819 0.0
H988 H 0.68723 0.24006 0.06217 0.0
H989 H 0.62028 0.1403 0.09969 0.0
H990 H 0.62832 0.11579 0.07436 0.0
H991 H 0.60501 0.14238 0.06696 0.0
C992 C 0.06249 0.58911 0.21616 0.0
C993 C 0.08988 0.58147 0.21719 0.0
C994 C 0.05444 0.61254 0.20311 0.0
C995 C 0.07423 0.62907 0.19077 0.0
C996 C 0.10181 0.62109 0.19084 0.0
C997 C 0.10933 0.59725 0.20397 0.0
C998 C 0.02475 0.61999 0.20327 0.0
C999 C 0.12349 0.63819 0.17789 0.0
C1000 C 0.04418 0.6798 0.1424 0.0
C1001 C 0.04166 0.70242 0.15906 0.0
C1002 C 0.05607 0.65619 0.152 0.0
C1003 C 0.06577 0.65514 0.17891 0.0
C1004 C 0.06436 0.67831 0.19545 0.0
C1005 C 0.05227 0.70162 0.18537 0.0
C1006 C 0.05705 0.63196 0.13371 0.0
C1007 C 0.07454 0.67811 0.22423 0.0
H1008 H 0.0472 0.57692 0.22602 0.0
H1009 H 0.13051 0.59155 0.20474 0.0
H1010 H 0.0224 0.63904 0.21458 0.0
H1011 H 0.01716 0.62334 0.18247 0.0
H1012 H 0.01174 0.60429 0.21258 0.0
H1013 H 0.14355 0.62825 0.17783 0.0
H1014 H 0.11742 0.64288 0.15691 0.0
H1015 H 0.12579 0.65756 0.18889 0.0
H1016 H 0.03617 0.68025 0.12199 0.0
H1017 H 0.05063 0.71905 0.19832 0.0
H1018 H 0.04265 0.61624 0.14082 0.0
H1019 H 0.07769 0.62329 0.13421 0.0
H1020 H 0.05152 0.63685 0.11261 0.0
H1021 H 0.06136 0.66456 0.23616 0.0
H1022 H 0.07455 0.69841 0.23358 0.0
H1023 H 0.09551 0.67025 0.22541 0.0
C1024 C 0.57903 0.79615 0.44405 0.0
C1025 C 0.57336 0.79819 0.41655 0.0
C1026 C 0.60268 0.80802 0.45563 0.0
C1027 C 0.62292 0.819 0.43878 0.0
C1028 C 0.61833 0.81901 0.41063 0.0
C1029 C 0.59323 0.80964 0.40004 0.0
C1030 C 0.60533 0.80984 0.48587 0.0
C1031 C 0.63967 0.82871 0.39133 0.0
C1032 C 0.6782 0.8695 0.46029 0.0
C1033 C 0.6981 0.85294 0.47162 0.0
C1034 C 0.65313 0.85893 0.45082 0.0
C1035 C 0.6486 0.83076 0.45059 0.0
C1036 C 0.66889 0.81387 0.46142 0.0
C1037 C 0.6925 0.82541 0.47341 0.0
C1038 C 0.63176 0.87827 0.4413 0.0
C1039 C 0.66633 0.78365 0.4593 0.0
H1040 H 0.56512 0.78509 0.45649 0.0
H1041 H 0.58957 0.81049 0.37853 0.0
H1042 H 0.62522 0.80291 0.49353 0.0
H1043 H 0.60416 0.83122 0.492 0.0
H1044 H 0.58919 0.79801 0.49593 0.0
H1045 H 0.63846 0.81691 0.37233 0.0
H1046 H 0.6358 0.84992 0.38615 0.0
H1047 H 0.66064 0.82731 0.39979 0.0
H1048 H 0.68181 0.89102 0.45962 0.0
H1049 H 0.70643 0.81291 0.48438 0.0
H1050 H 0.61081 0.86969 0.4423 0.0
H1051 H 0.63583 0.88393 0.42025 0.0
H1052 H 0.63274 0.89703 0.45349 0.0
H1053 H 0.68245 0.77352 0.47109 0.0
H1054 H 0.66761 0.77773 0.43787 0.0
H1055 H 0.64642 0.77586 0.46606 0.0
C1056 C 0.47008 0.33821 0.68251 0.0
C1057 C 0.47924 0.34164 0.65622 0.0
C1058 C 0.46019 0.35994 0.69734 0.0
C1059 C 0.45976 0.38582 0.68576 0.0
C1060 C 0.46939 0.3895 0.65942 0.0
C1061 C 0.47885 0.36738 0.64494 0.0
C1062 C 0.44992 0.35516 0.72531 0.0
C1063 C 0.46973 0.41684 0.64651 0.0
C1064 C 0.414 0.43928 0.71498 0.0
C1065 C 0.43237 0.45373 0.73172 0.0
C1066 C 0.42254 0.41699 0.70001 0.0
C1067 C 0.45016 0.40924 0.70154 0.0
C1068 C 0.46882 0.42399 0.71809 0.0
C1069 C 0.4597 0.44588 0.73304 0.0
C1070 C 0.40199 0.40158 0.68274 0.0
C1071 C 0.49852 0.4167 0.71999 0.0
H1072 H 0.46998 0.31837 0.69131 0.0
H1073 H 0.48587 0.37029 0.62465 0.0
H1074 H 0.46205 0.36743 0.74002 0.0
H1075 H 0.42846 0.36155 0.72661 0.0
H1076 H 0.45104 0.33374 0.7312 0.0
H1077 H 0.47794 0.41635 0.6259 0.0
H1078 H 0.4488 0.42481 0.64551 0.0
H1079 H 0.48234 0.4311 0.65888 0.0
H1080 H 0.39286 0.44512 0.71388 0.0
H1081 H 0.4742 0.457 0.74569 0.0
H1082 H 0.40107 0.38029 0.68908 0.0
H1083 H 0.40836 0.40179 0.6615 0.0
H1084 H 0.38126 0.41 0.68389 0.0
H1085 H 0.50048 0.39595 0.7276 0.0
H1086 H 0.51051 0.4305 0.73347 0.0
H1087 H 0.50759 0.41721 0.69977 0.0
C1088 C 0.9252 0.21675 0.90761 0.0
C1089 C 0.93919 0.23398 0.92574 0.0
C1090 C 0.90275 0.20106 0.91583 0.0
C1091 C 0.89451 0.20217 0.94294 0.0
C1092 C 0.90865 0.21941 0.9613 0.0
C1093 C 0.93053 0.23526 0.95243 0.0
C1094 C 0.88784 0.18329 0.89555 0.0
C1095 C 0.90097 0.22081 0.99049 0.0
C1096 C 0.82369 0.17905 0.96382 0.0
C1097 C 0.82856 0.153 0.97298 0.0
C1098 C 0.84479 0.19501 0.95327 0.0
C1099 C 0.87155 0.18491 0.95246 0.0
C1100 C 0.87662 0.15872 0.96196 0.0
C1101 C 0.85503 0.14299 0.97179 0.0
C1102 C 0.83845 0.22263 0.94289 0.0
C1103 C 0.90494 0.14743 0.9621 0.0
H1104 H 0.93164 0.21572 0.88694 0.0
H1105 H 0.94125 0.24834 0.96671 0.0
H1106 H 0.88945 0.16196 0.90151 0.0
H1107 H 0.86586 0.18809 0.89501 0.0
H1108 H 0.896 0.18556 0.87503 0.0
H1109 H 0.91424 0.23505 1.00226 0.0
H1110 H 0.87955 0.22715 0.99223 0.0
H1111 H 0.90243 0.20063 0.99963 0.0
H1112 H 0.80321 0.18677 0.96431 0.0
H1113 H 0.85895 0.12288 0.97888 0.0
H1114 H 0.84515 0.22456 0.92183 0.0
H1115 H 0.84986 0.23807 0.95493 0.0
H1116 H 0.81639 0.227 0.94366 0.0
H1117 H 0.91298 0.14724 0.94145 0.0
H1118 H 0.90547 0.1267 0.97011 0.0
H1119 H 0.91886 0.16042 0.97453 0.0
C1120 C 0.30016 0.08737 0.42999 0.0
C1121 C 0.29063 0.11342 0.42582 0.0
C1122 C 0.30993 0.07195 0.40861 0.0
C1123 C 0.30985 0.08267 0.38235 0.0
C1124 C 0.29979 0.10874 0.37793 0.0
C1125 C 0.29047 0.12382 0.3997 0.0
C1126 C 0.32067 0.04431 0.41417 0.0
C1127 C 0.29891 0.12073 0.35018 0.0
C1128 C 0.35556 0.05293 0.32916 0.0
C1129 C 0.33733 0.03561 0.31522 0.0
C1130 C 0.34701 0.06818 0.35125 0.0
C1131 C 0.31951 0.06635 0.35933 0.0
C1132 C 0.30101 0.04911 0.34518 0.0
C1133 C 0.31014 0.0339 0.32348 0.0
C1134 C 0.3674 0.08617 0.36602 0.0
C1135 C 0.27144 0.04686 0.35285 0.0
H1136 H 0.30067 0.07924 0.45011 0.0
H1137 H 0.28314 0.14391 0.39622 0.0
H1138 H 0.30871 0.02905 0.40241 0.0
H1139 H 0.34211 0.04313 0.4077 0.0
H1140 H 0.31977 0.03905 0.43577 0.0
H1141 H 0.29029 0.14118 0.35008 0.0
H1142 H 0.31974 0.12188 0.34198 0.0
H1143 H 0.28642 0.10768 0.33644 0.0
H1144 H 0.37659 0.05434 0.32302 0.0
H1145 H 0.29575 0.0208 0.31276 0.0
H1146 H 0.36851 0.08054 0.38752 0.0
H1147 H 0.36075 0.1073 0.36514 0.0
H1148 H 0.38811 0.08501 0.35755 0.0
H1149 H 0.26986 0.03995 0.37389 0.0
H1150 H 0.2596 0.03267 0.33965 0.0
H1151 H 0.26192 0.06684 0.35172 0.0
C1152 C 0.16032 0.06597 0.6736 0.0
C1153 C 0.17987 0.05299 0.68948 0.0
C1154 C 0.16775 0.07909 0.64974 0.0
C1155 C 0.19536 0.07939 0.64181 0.0
C1156 C 0.21524 0.06733 0.65844 0.0
C1157 C 0.20727 0.05429 0.6819 0.0
C1158 C 0.14598 0.09176 0.63254 0.0
C1159 C 0.24495 0.06742 0.65105 0.0
C1160 C 0.2174 0.08455 0.56927 0.0
C1161 C 0.22781 0.11092 0.56834 0.0
C1162 C 0.20534 0.07451 0.59262 0.0
C1163 C 0.20375 0.09118 0.61568 0.0
C1164 C 0.21324 0.11815 0.61449 0.0
C1165 C 0.22512 0.12769 0.59085 0.0
C1166 C 0.19541 0.04566 0.59298 0.0
C1167 C 0.21204 0.13657 0.63861 0.0
H1168 H 0.13912 0.065 0.67926 0.0
H1169 H 0.22263 0.04463 0.69417 0.0
H1170 H 0.15189 0.11274 0.6277 0.0
H1171 H 0.14376 0.08061 0.61325 0.0
H1172 H 0.12592 0.09174 0.64247 0.0
H1173 H 0.25803 0.05831 0.66684 0.0
H1174 H 0.24746 0.05603 0.63207 0.0
H1175 H 0.25235 0.08826 0.6476 0.0
H1176 H 0.21918 0.07151 0.55192 0.0
H1177 H 0.23297 0.14815 0.59029 0.0
H1178 H 0.17443 0.04435 0.6008 0.0
H1179 H 0.20866 0.03393 0.60663 0.0
H1180 H 0.19552 0.03619 0.57273 0.0
H1181 H 0.19139 0.13592 0.64724 0.0
H1182 H 0.21737 0.15768 0.63358 0.0
H1183 H 0.22649 0.1297 0.65439 0.0
C1184 C 0.19671 0.98476 0.82335 0.0
C1185 C 0.17076 0.97793 0.81304 0.0
C1186 C 0.20794 0.97103 0.8454 0.0
C1187 C 0.19226 0.95088 0.85826 0.0
C1188 C 0.16574 0.9444 0.84825 0.0
C1189 C 0.1554 0.95791 0.82571 0.0
C1190 C 0.2365 0.97814 0.85501 0.0
C1191 C 0.14816 0.92335 0.8615 0.0
C1192 C 0.22529 0.89706 0.90098 0.0
C1193 C 0.22214 0.90706 0.92701 0.0
C1194 C 0.21627 0.91139 0.87855 0.0
C1195 C 0.20349 0.93635 0.88206 0.0
C1196 C 0.20042 0.94673 0.9084 0.0
C1197 C 0.2101 0.93209 0.93059 0.0
C1198 C 0.22098 0.89987 0.85112 0.0
C1199 C 0.18604 0.97279 0.91317 0.0
H1200 H 0.20802 1.00121 0.81447 0.0
H1201 H 0.13504 0.95305 0.81815 0.0
H1202 H 0.23628 0.98528 0.87613 0.0
H1203 H 0.24926 0.96001 0.85451 0.0
H1204 H 0.24616 0.99396 0.84257 0.0
H1205 H 0.12756 0.92151 0.852 0.0
H1206 H 0.15804 0.90355 0.86033 0.0
H1207 H 0.14593 0.92832 0.88308 0.0
H1208 H 0.23494 0.87788 0.8981 0.0
H1209 H 0.20738 0.93976 0.95076 0.0
H1210 H 0.23734 0.91192 0.84173 0.0
H1211 H 0.20234 0.901 0.83833 0.0
H1212 H 0.22746 0.87864 0.85183 0.0
H1213 H 0.1961 0.98928 0.90201 0.0
H1214 H 0.18575 0.97837 0.93478 0.0
H1215 H 0.16473 0.97103 0.90547 0.0
C1216 C 0.29532 0.89769 0.09014 0.0
C1217 C 0.29648 0.91227 0.06626 0.0
C1218 C 0.30732 0.90769 0.11396 0.0
C1219 C 0.32108 0.9329 0.11401 0.0
C1220 C 0.32341 0.94722 0.08963 0.0
C1221 C 0.31074 0.9369 0.06607 0.0
C1222 C 0.30365 0.89176 0.13922 0.0
C1223 C 0.33911 0.9735 0.08848 0.0
C1224 C 0.32703 0.97428 0.17841 0.0
C1225 C 0.35258 0.96695 0.1885 0.0
C1226 C 0.31623 0.96282 0.15457 0.0
C1227 C 0.33206 0.94471 0.13969 0.0
C1228 C 0.35829 0.93788 0.14942 0.0
C1229 C 0.36814 0.94893 0.17382 0.0
C1230 C 0.28792 0.97015 0.14528 0.0
C1231 C 0.37605 0.91914 0.13389 0.0
H1232 H 0.28417 0.87871 0.09051 0.0
H1233 H 0.31194 0.94812 0.04756 0.0
H1234 H 0.3217 0.8935 0.15283 0.0
H1235 H 0.28583 0.89971 0.14976 0.0
H1236 H 0.29954 0.87016 0.13483 0.0
H1237 H 0.3411 0.98089 0.06761 0.0
H1238 H 0.32872 0.98897 0.10045 0.0
H1239 H 0.35979 0.9712 0.09743 0.0
H1240 H 0.3157 0.98941 0.18889 0.0
H1241 H 0.38826 0.94382 0.18125 0.0
H1242 H 0.27503 0.9517 0.14316 0.0
H1243 H 0.28864 0.97968 0.12527 0.0
H1244 H 0.2781 0.98416 0.15939 0.0
H1245 H 0.36608 0.89902 0.13224 0.0
H1246 H 0.39647 0.91691 0.14351 0.0
H1247 H 0.3787 0.92668 0.11318 0.0
C1248 C 0.34309 0.36219 0.05234 0.0
C1249 C 0.32885 0.34396 0.03542 0.0
C1250 C 0.36559 0.35398 0.06798 0.0
C1251 C 0.3736 0.3268 0.06715 0.0
C1252 C 0.35921 0.30834 0.05022 0.0
C1253 C 0.33729 0.31719 0.03439 0.0
C1254 C 0.38078 0.37437 0.08541 0.0
C1255 C 0.36664 0.27907 0.04914 0.0
C1256 C 0.44441 0.30571 0.0901 0.0
C1257 C 0.43964 0.29692 0.11632 0.0
C1258 C 0.42328 0.31618 0.07413 0.0
C1259 C 0.3966 0.31731 0.08439 0.0
C1260 C 0.39164 0.3082 0.11073 0.0
C1261 C 0.41325 0.29843 0.12647 0.0
C1262 C 0.4295 0.32614 0.04633 0.0
C1263 C 0.3634 0.30843 0.1222 0.0
H1264 H 0.33682 0.38291 0.05316 0.0
H1265 H 0.32638 0.30284 0.02155 0.0
H1266 H 0.37926 0.36869 0.10682 0.0
H1267 H 0.40271 0.37467 0.08045 0.0
H1268 H 0.37277 0.39492 0.08292 0.0
H1269 H 0.35318 0.26723 0.03513 0.0
H1270 H 0.38799 0.27707 0.04268 0.0
H1271 H 0.36524 0.2702 0.06944 0.0
H1272 H 0.46483 0.30497 0.08227 0.0
H1273 H 0.40941 0.29164 0.14669 0.0
H1274 H 0.42297 0.34723 0.04417 0.0
H1275 H 0.41789 0.314 0.03112 0.0
H1276 H 0.45153 0.32512 0.04182 0.0
H1277 H 0.35552 0.32914 0.12219 0.0
H1278 H 0.36294 0.30067 0.14304 0.0
H1279 H 0.3493 0.29595 0.10945 0.0
C1280 C 0.96898 0.84061 0.18245 0.0
C1281 C 0.9785 0.84479 0.1564 0.0
C1282 C 0.9592 0.86199 0.19787 0.0
C1283 C 0.95927 0.88825 0.18715 0.0
C1284 C 0.96928 0.89267 0.16107 0.0
C1285 C 0.97861 0.87091 0.14598 0.0
C1286 C 0.94851 0.85643 0.22553 0.0
C1287 C 0.97014 0.92042 0.14907 0.0
C1288 C 0.91375 0.94155 0.21701 0.0
C1289 C 0.93208 0.95547 0.23425 0.0
C1290 C 0.92221 0.91942 0.20176 0.0
C1291 C 0.94969 0.91128 0.20351 0.0
C1292 C 0.96828 0.9254 0.22068 0.0
C1293 C 0.95925 0.94715 0.23589 0.0
C1294 C 0.90173 0.90468 0.18383 0.0
C1295 C 0.99783 0.91767 0.22286 0.0
H1296 H 0.96851 0.82049 0.19058 0.0
H1297 H 0.98592 0.8744 0.12589 0.0
H1298 H 0.96053 0.86814 0.24077 0.0
H1299 H 0.92709 0.86295 0.22676 0.0
H1300 H 0.94936 0.83482 0.23077 0.0
H1301 H 0.97868 0.92051 0.12859 0.0
H1302 H 0.94933 0.92864 0.14802 0.0
H1303 H 0.98271 0.93414 0.16208 0.0
H1304 H 0.89274 0.94774 0.21565 0.0
H1305 H 0.97371 0.95785 0.24894 0.0
H1306 H 0.90061 0.88319 0.18946 0.0
H1307 H 0.90831 0.90555 0.16267 0.0
H1308 H 0.88105 0.91318 0.18507 0.0
H1309 H 0.99939 0.89662 0.22975 0.0
H1310 H 0.00974 0.93084 0.23703 0.0
H1311 H 0.00731 0.91879 0.20285 0.0
C1312 C 0.19223 0.68874 0.55151 0.0
C1313 C 0.19246 0.661 0.54647 0.0
C1314 C 0.17019 0.70069 0.56431 0.0
C1315 C 0.14791 0.68451 0.57262 0.0
C1316 C 0.14832 0.6564 0.56816 0.0
C1317 C 0.17048 0.64502 0.555 0.0
C1318 C 0.17049 0.73075 0.5684 0.0
C1319 C 0.12517 0.63839 0.57701 0.0
C1320 C 0.10119 0.71467 0.62474 0.0
C1321 C 0.07928 0.72329 0.60872 0.0
C1322 C 0.12337 0.70151 0.61337 0.0
C1323 C 0.12387 0.69716 0.58525 0.0
C1324 C 0.10167 0.7056 0.56903 0.0
C1325 C 0.07961 0.71839 0.58096 0.0
C1326 C 0.14643 0.69253 0.63143 0.0
C1327 C 0.10146 0.70164 0.53895 0.0
H1328 H 0.20906 0.70127 0.54492 0.0
H1329 H 0.17052 0.62356 0.55128 0.0
H1330 H 0.15293 0.73955 0.55752 0.0
H1331 H 0.16831 0.73565 0.59 0.0
H1332 H 0.18952 0.74045 0.56121 0.0
H1333 H 0.12915 0.61683 0.57323 0.0
H1334 H 0.12164 0.64133 0.59875 0.0
H1335 H 0.10613 0.64375 0.56616 0.0
H1336 H 0.10108 0.71829 0.64621 0.0
H1337 H 0.06283 0.72506 0.5684 0.0
H1338 H 0.16552 0.70333 0.62616 0.0
H1339 H 0.14989 0.67079 0.62843 0.0
H1340 H 0.1424 0.69626 0.65299 0.0
H1341 H 0.11911 0.71249 0.53026 0.0
H1342 H 0.0825 0.70895 0.52921 0.0
H1343 H 0.10357 0.68006 0.53397 0.0
C1344 C 0.97889 0.6791 0.66493 0.0
C1345 C 0.97662 0.70171 0.68167 0.0
C1346 C 0.96772 0.654 0.67225 0.0
C1347 C 0.95399 0.65138 0.6969 0.0
C1348 C 0.95189 0.67402 0.71396 0.0
C1349 C 0.96318 0.69878 0.70618 0.0
C1350 C 0.9704 0.63031 0.65351 0.0
C1351 C 0.93751 0.67217 0.74045 0.0
C1352 C 0.90181 0.59499 0.7071 0.0
C1353 C 0.91653 0.57695 0.72296 0.0
C1354 C 0.91391 0.61898 0.69801 0.0
C1355 C 0.94145 0.62514 0.70491 0.0
C1356 C 0.95651 0.60686 0.72067 0.0
C1357 C 0.94388 0.58303 0.72952 0.0
C1358 C 0.89708 0.63794 0.68134 0.0
C1359 C 0.98589 0.61266 0.72851 0.0
H1360 H 0.98921 0.68103 0.64598 0.0
H1361 H 0.96134 0.71595 0.71946 0.0
H1362 H 0.98075 0.61371 0.66407 0.0
H1363 H 0.94989 0.6227 0.64715 0.0
H1364 H 0.98207 0.63548 0.63532 0.0
H1365 H 0.93793 0.69156 0.75159 0.0
H1366 H 0.91596 0.66579 0.73699 0.0
H1367 H 0.94716 0.65676 0.75326 0.0
H1368 H 0.8807 0.59045 0.70184 0.0
H1369 H 0.95547 0.56917 0.74167 0.0
H1370 H 0.90733 0.64222 0.66214 0.0
H1371 H 0.89522 0.65733 0.69216 0.0
H1372 H 0.8763 0.62974 0.67679 0.0
H1373 H 0.99805 0.61642 0.71034 0.0
H1374 H 0.99512 0.59591 0.73987 0.0
H1375 H 0.98733 0.6311 0.7411 0.0
C1376 C 0.19202 0.20647 0.47698 0.0
C1377 C 0.19734 0.17926 0.47298 0.0
C1378 C 0.16773 0.21761 0.46798 0.0
C1379 C 0.14794 0.20124 0.45461 0.0
C1380 C 0.15246 0.17332 0.45172 0.0
C1381 C 0.17721 0.16254 0.46112 0.0
C1382 C 0.1638 0.24722 0.47187 0.0
C1383 C 0.13196 0.15524 0.43726 0.0
C1384 C 0.0779 0.23132 0.44381 0.0
C1385 C 0.08049 0.24267 0.41834 0.0
C1386 C 0.09956 0.21754 0.45591 0.0
C1387 C 0.12397 0.21416 0.44167 0.0
C1388 C 0.12637 0.22508 0.41562 0.0
C1389 C 0.10462 0.23927 0.40433 0.0
C1390 C 0.09637 0.2067 0.4839 0.0
C1391 C 0.15196 0.22186 0.39966 0.0
H1392 H 0.2074 0.21945 0.48635 0.0
H1393 H 0.18141 0.14151 0.45781 0.0
H1394 H 0.16286 0.25731 0.45211 0.0
H1395 H 0.1442 0.25018 0.48178 0.0
H1396 H 0.18027 0.25692 0.48431 0.0
H1397 H 0.13705 0.1337 0.43924 0.0
H1398 H 0.11126 0.15833 0.44511 0.0
H1399 H 0.13135 0.16037 0.41563 0.0
H1400 H 0.05868 0.23259 0.45399 0.0
H1401 H 0.10633 0.24744 0.3843 0.0
H1402 H 0.11166 0.21643 0.49764 0.0
H1403 H 0.10019 0.18483 0.48408 0.0
H1404 H 0.07575 0.21021 0.49186 0.0
H1405 H 0.16927 0.23245 0.41003 0.0
H1406 H 0.14987 0.23 0.37904 0.0
H1407 H 0.15717 0.20034 0.39824 0.0
C1408 C 0.58718 0.44498 0.21915 0.0
C1409 C 0.61514 0.44661 0.214 0.0
C1410 C 0.57105 0.42323 0.20963 0.0
C1411 C 0.58305 0.40251 0.19457 0.0
C1412 C 0.61103 0.4046 0.18835 0.0
C1413 C 0.62673 0.42649 0.19823 0.0
C1414 C 0.54145 0.42193 0.21685 0.0
C1415 C 0.62456 0.38338 0.17173 0.0
C1416 C 0.5544 0.33099 0.19236 0.0
C1417 C 0.54055 0.33034 0.16756 0.0
C1418 C 0.56705 0.35477 0.20205 0.0
C1419 C 0.56681 0.37817 0.18602 0.0
C1420 C 0.55273 0.37757 0.16094 0.0
C1421 C 0.5398 0.35365 0.15202 0.0
C1422 C 0.58141 0.35462 0.22909 0.0
C1423 C 0.55231 0.40186 0.14302 0.0
H1424 H 0.57797 0.46028 0.23138 0.0
H1425 H 0.64828 0.42756 0.19394 0.0
H1426 H 0.5286 0.41588 0.19923 0.0
H1427 H 0.53874 0.40661 0.23262 0.0
H1428 H 0.53419 0.4414 0.22469 0.0
H1429 H 0.646 0.38885 0.16715 0.0
H1430 H 0.62438 0.36404 0.18264 0.0
H1431 H 0.61311 0.38009 0.15255 0.0
H1432 H 0.556 0.31267 0.20383 0.0
H1433 H 0.52958 0.35296 0.13254 0.0
H1434 H 0.5739 0.37118 0.24182 0.0
H1435 H 0.60358 0.35811 0.22658 0.0
H1436 H 0.57831 0.33534 0.23977 0.0
H1437 H 0.54483 0.41952 0.15415 0.0
H1438 H 0.53922 0.39858 0.12482 0.0
H1439 H 0.57331 0.40683 0.13662 0.0
C1440 C 0.32462 0.81787 0.95814 0.0
C1441 C 0.31874 0.84487 0.96321 0.0
C1442 C 0.35042 0.81032 0.94973 0.0
C1443 C 0.37074 0.8303 0.94572 0.0
C1444 C 0.36482 0.85766 0.95022 0.0
C1445 C 0.33893 0.86462 0.95925 0.0
C1446 C 0.35613 0.78087 0.9458 0.0
C1447 C 0.38588 0.87953 0.94567 0.0
C1448 C 0.44399 0.80845 0.95169 0.0
C1449 C 0.45058 0.80399 0.92477 0.0
C1450 C 0.41815 0.81722 0.95872 0.0
C1451 C 0.39857 0.82224 0.93828 0.0
C1452 C 0.40521 0.81828 0.91101 0.0
C1453 C 0.43109 0.80886 0.90457 0.0
C1454 C 0.41165 0.82056 0.98806 0.0
C1455 C 0.38495 0.82391 0.8887 0.0
H1456 H 0.30917 0.80246 0.96129 0.0
H1457 H 0.3344 0.88552 0.9629 0.0
H1458 H 0.36301 0.77713 0.92506 0.0
H1459 H 0.37281 0.77481 0.95967 0.0
H1460 H 0.33796 0.76788 0.94948 0.0
H1461 H 0.37752 0.8999 0.94839 0.0
H1462 H 0.40331 0.8772 0.95988 0.0
H1463 H 0.39394 0.87785 0.92508 0.0
H1464 H 0.45891 0.80459 0.96743 0.0
H1465 H 0.4362 0.80568 0.88374 0.0
H1466 H 0.39432 0.80708 0.99324 0.0
H1467 H 0.40535 0.84142 0.99216 0.0
H1468 H 0.42925 0.81595 1.00146 0.0
H1469 H 0.36699 0.81021 0.89026 0.0
H1470 H 0.39381 0.82131 0.86851 0.0
H1471 H 0.37752 0.84472 0.89057 0.0
C1472 C 0.9294 0.43807 0.79157 0.0
C1473 C 0.90083 0.43665 0.78996 0.0
C1474 C 0.94439 0.41772 0.80415 0.0
C1475 C 0.93052 0.39544 0.81544 0.0
C1476 C 0.90176 0.39369 0.81352 0.0
C1477 C 0.88733 0.41423 0.80086 0.0
C1478 C 0.97505 0.42029 0.80579 0.0
C1479 C 0.88613 0.37036 0.82538 0.0
C1480 C 0.96704 0.33106 0.8342 0.0
C1481 C 0.97059 0.33433 0.86206 0.0
C1482 C 0.95468 0.35108 0.81855 0.0
C1483 C 0.94569 0.37489 0.83105 0.0
C1484 C 0.94975 0.37851 0.85901 0.0
C1485 C 0.96209 0.3583 0.87409 0.0
C1486 C 0.95075 0.34654 0.78874 0.0
C1487 C 0.94047 0.40354 0.8732 0.0
H1488 H 0.9401 0.45514 0.78309 0.0
H1489 H 0.8653 0.41267 0.79965 0.0
H1490 H 0.98181 0.4223 0.82709 0.0
H1491 H 0.98438 0.40192 0.79765 0.0
H1492 H 0.98288 0.43793 0.7946 0.0
H1493 H 0.86391 0.37128 0.82098 0.0
H1494 H 0.89375 0.35112 0.81742 0.0
H1495 H 0.88933 0.3702 0.84748 0.0
H1496 H 0.97361 0.31276 0.82463 0.0
H1497 H 0.9649 0.36133 0.89554 0.0
H1498 H 0.95955 0.36369 0.77752 0.0
H1499 H 0.92868 0.3454 0.78362 0.0
H1500 H 0.96032 0.32776 0.7818 0.0
H1501 H 0.94938 0.42166 0.86369 0.0
H1502 H 0.94626 0.40382 0.89486 0.0
H1503 H 0.91799 0.40495 0.87134 0.0
C1504 C 0.35492 0.17973 0.51572 0.0
C1505 C 0.33088 0.17192 0.52823 0.0
C1506 C 0.37593 0.19343 0.53 0.0
C1507 C 0.37378 0.19751 0.55815 0.0
C1508 C 0.35039 0.1873 0.57127 0.0
C1509 C 0.32895 0.17556 0.55601 0.0
C1510 C 0.40044 0.20251 0.51442 0.0
C1511 C 0.34781 0.18728 0.60145 0.0
C1512 C 0.44301 0.21307 0.59107 0.0
C1513 C 0.43933 0.23886 0.60147 0.0
C1514 C 0.42151 0.19882 0.57821 0.0
C1515 C 0.39619 0.21149 0.57385 0.0
C1516 C 0.39238 0.23759 0.58461 0.0
C1517 C 0.41366 0.25037 0.59943 0.0
C1518 C 0.4263 0.17029 0.56933 0.0
C1519 C 0.36606 0.25223 0.58014 0.0
H1520 H 0.35785 0.17451 0.49499 0.0
H1521 H 0.31093 0.1682 0.56611 0.0
H1522 H 0.41551 0.21455 0.52634 0.0
H1523 H 0.41064 0.18471 0.50603 0.0
H1524 H 0.39371 0.2147 0.49716 0.0
H1525 H 0.34275 0.16663 0.60826 0.0
H1526 H 0.36648 0.19429 0.61243 0.0
H1527 H 0.33055 0.20003 0.60721 0.0
H1528 H 0.46264 0.20369 0.59364 0.0
H1529 H 0.41032 0.2695 0.60907 0.0
H1530 H 0.43462 0.17037 0.54879 0.0
H1531 H 0.40727 0.15792 0.56915 0.0
H1532 H 0.44152 0.16056 0.58267 0.0
H1533 H 0.3614 0.25349 0.55828 0.0
H1534 H 0.36681 0.27276 0.5889 0.0
H1535 H 0.34897 0.24124 0.58949 0.0
C1536 C 0.54933 0.6724 0.36775 0.0
C1537 C 0.53965 0.6938 0.35237 0.0
C1538 C 0.56153 0.6502 0.35553 0.0
C1539 C 0.56477 0.64967 0.32731 0.0
C1540 C 0.55504 0.67127 0.31172 0.0
C1541 C 0.54233 0.69287 0.32439 0.0
C1542 C 0.57101 0.62731 0.37282 0.0
C1543 C 0.55853 0.67182 0.28169 0.0
C1544 C 0.61944 0.60446 0.29909 0.0
C1545 C 0.60384 0.58274 0.28883 0.0
C1546 C 0.607 0.62651 0.31136 0.0
C1547 C 0.5783 0.62655 0.31404 0.0
C1548 C 0.5625 0.60455 0.30387 0.0
C1549 C 0.57542 0.58311 0.29113 0.0
C1550 C 0.62456 0.64981 0.32135 0.0
C1551 C 0.53196 0.60348 0.30677 0.0
H1552 H 0.5473 0.67297 0.38937 0.0
H1553 H 0.53517 0.70946 0.31238 0.0
H1554 H 0.56138 0.60818 0.36566 0.0
H1555 H 0.59336 0.62519 0.37122 0.0
H1556 H 0.56607 0.63027 0.39429 0.0
H1557 H 0.55021 0.69026 0.27249 0.0
H1558 H 0.58046 0.67068 0.27693 0.0
H1559 H 0.54815 0.65411 0.27223 0.0
H1560 H 0.64141 0.60433 0.29734 0.0
H1561 H 0.56322 0.56628 0.28349 0.0
H1562 H 0.62233 0.65233 0.34332 0.0
H1563 H 0.61777 0.66866 0.3118 0.0
H1564 H 0.64645 0.64708 0.31705 0.0
H1565 H 0.52673 0.60503 0.32829 0.0
H1566 H 0.52266 0.58467 0.29835 0.0
H1567 H 0.52267 0.62078 0.2964 0.0
C1568 C 0.09234 0.80946 0.10768 0.0
C1569 C 0.07213 0.79795 0.09079 0.0
C1570 C 0.11718 0.8188 0.09703 0.0
C1571 C 0.12172 0.81617 0.06909 0.0
C1572 C 0.10183 0.80318 0.05254 0.0
C1573 C 0.07745 0.79427 0.06354 0.0
C1574 C 0.13777 0.83287 0.1153 0.0
C1575 C 0.1058 0.79954 0.0229 0.0
C1576 C 0.16569 0.86621 0.03147 0.0
C1577 C 0.18963 0.85193 0.02796 0.0
C1578 C 0.14382 0.8551 0.04561 0.0
C1579 C 0.14588 0.82895 0.05636 0.0
C1580 C 0.17011 0.81444 0.05289 0.0
C1581 C 0.19192 0.82637 0.03919 0.0
C1582 C 0.11844 0.87135 0.04895 0.0
C1583 C 0.17295 0.78633 0.06354 0.0
H1584 H 0.08815 0.81254 0.12875 0.0
H1585 H 0.06202 0.78517 0.05043 0.0
H1586 H 0.15839 0.82484 0.1122 0.0
H1587 H 0.13863 0.85455 0.11037 0.0
H1588 H 0.1326 0.83076 0.13681 0.0
H1589 H 0.0891 0.78757 0.01299 0.0
H1590 H 0.10725 0.81939 0.01303 0.0
H1591 H 0.12517 0.78922 0.01992 0.0
H1592 H 0.16422 0.8863 0.02341 0.0
H1593 H 0.21102 0.81598 0.03786 0.0
H1594 H 0.11317 0.8726 0.07047 0.0
H1595 H 0.10103 0.86132 0.0382 0.0
H1596 H 0.12083 0.89204 0.04105 0.0
H1597 H 0.16905 0.78604 0.08538 0.0
H1598 H 0.19349 0.77817 0.06002 0.0
H1599 H 0.15754 0.77283 0.05366 0.0
C1600 C 0.72155 0.90101 0.59769 0.0
C1601 C 0.73136 0.91654 0.57645 0.0
C1602 C 0.70918 0.91307 0.61989 0.0
C1603 C 0.70592 0.94129 0.62058 0.0
C1604 C 0.71579 0.95702 0.59915 0.0
C1605 C 0.72865 0.94451 0.57755 0.0
C1606 C 0.69955 0.89562 0.6426 0.0
C1607 C 0.71229 0.98706 0.59878 0.0
C1608 C 0.65086 0.96922 0.66551 0.0
C1609 C 0.66628 0.97939 0.68739 0.0
C1610 C 0.66349 0.95706 0.64351 0.0
C1611 C 0.69219 0.95438 0.64368 0.0
C1612 C 0.70781 0.96445 0.66585 0.0
C1613 C 0.69472 0.97709 0.68723 0.0
C1614 C 0.64612 0.94718 0.62002 0.0
C1615 C 0.73835 0.96156 0.66714 0.0
H1616 H 0.7236 0.8794 0.59699 0.0
H1617 H 0.73592 0.95664 0.56109 0.0
H1618 H 0.70902 0.90267 0.66184 0.0
H1619 H 0.67718 0.89717 0.64456 0.0
H1620 H 0.70456 0.87418 0.63954 0.0
H1621 H 0.72075 0.99639 0.58047 0.0
H1622 H 0.69034 0.99179 0.59978 0.0
H1623 H 0.72252 0.9964 0.61663 0.0
H1624 H 0.62889 0.97098 0.66547 0.0
H1625 H 0.70677 0.98466 0.70419 0.0
H1626 H 0.64841 0.92522 0.61738 0.0
H1627 H 0.65303 0.95686 0.60129 0.0
H1628 H 0.6242 0.95141 0.62262 0.0
H1629 H 0.7436 0.94005 0.66548 0.0
H1630 H 0.74748 0.96984 0.68609 0.0
H1631 H 0.74778 0.97206 0.65 0.0
C1632 C 0.88225 0.9701 0.35835 0.0
C1633 C 0.86895 0.98019 0.33542 0.0
C1634 C 0.86771 0.95731 0.37874 0.0
C1635 C 0.83907 0.9544 0.3763 0.0
C1636 C 0.82537 0.96489 0.35351 0.0
C1637 C 0.84046 0.97765 0.33333 0.0
C1638 C 0.88316 0.94635 0.40264 0.0
C1639 C 0.79483 0.96217 0.3502 0.0
C1640 C 0.8085 0.89525 0.41347 0.0
C1641 C 0.79893 0.9073 0.43701 0.0
C1642 C 0.8209 0.91046 0.39338 0.0
C1643 C 0.8239 0.93857 0.39668 0.0
C1644 C 0.81385 0.95106 0.42006 0.0
C1645 C 0.80149 0.93528 0.43996 0.0
C1646 C 0.83137 0.89628 0.36884 0.0
C1647 C 0.81662 0.98101 0.42423 0.0
H1648 H 0.9042 0.97206 0.36042 0.0
H1649 H 0.8299 0.98548 0.31586 0.0
H1650 H 0.87473 0.95428 0.42154 0.0
H1651 H 0.88076 0.92417 0.40306 0.0
H1652 H 0.90524 0.95153 0.40223 0.0
H1653 H 0.78706 0.97289 0.33223 0.0
H1654 H 0.78887 0.94065 0.3483 0.0
H1655 H 0.78473 0.97017 0.36822 0.0
H1656 H 0.80651 0.8737 0.4107 0.0
H1657 H 0.79408 0.94485 0.45793 0.0
H1658 H 0.85382 0.89891 0.36798 0.0
H1659 H 0.82259 0.90521 0.35036 0.0
H1660 H 0.82637 0.87444 0.36876 0.0
H1661 H 0.83849 0.9869 0.42581 0.0
H1662 H 0.80636 0.98786 0.44267 0.0
H1663 H 0.80784 0.99168 0.40672 0.0
C1664 C 0.792 0.10524 0.09265 0.0
C1665 C 0.79477 0.08868 0.06998 0.0
C1666 C 0.80299 0.09791 0.11783 0.0
C1667 C 0.81702 0.07343 0.12045 0.0
C1668 C 0.81965 0.05656 0.09773 0.0
C1669 C 0.80854 0.06435 0.0729 0.0
C1670 C 0.79976 0.11643 0.1416 0.0
C1671 C 0.83437 0.03026 0.09959 0.0
C1672 C 0.86868 0.06339 0.1773 0.0
C1673 C 0.85394 0.04719 0.19504 0.0
C1674 C 0.85673 0.07256 0.15328 0.0
C1675 C 0.82934 0.06539 0.14677 0.0
C1676 C 0.81425 0.04929 0.16474 0.0
C1677 C 0.82673 0.04038 0.18863 0.0
C1678 C 0.87357 0.08962 0.13466 0.0
C1679 C 0.78504 0.04113 0.15854 0.0
H1680 H 0.78142 0.12404 0.09072 0.0
H1681 H 0.81076 0.05122 0.05569 0.0
H1682 H 0.7893 0.10563 0.15797 0.0
H1683 H 0.82009 0.12296 0.14954 0.0
H1684 H 0.78795 0.13453 0.13639 0.0
H1685 H 0.83436 0.01926 0.08012 0.0
H1686 H 0.8558 0.03396 0.10626 0.0
H1687 H 0.82469 0.0172 0.11477 0.0
H1688 H 0.88968 0.06885 0.18211 0.0
H1689 H 0.81513 0.02797 0.20226 0.0
H1690 H 0.8631 0.10869 0.13037 0.0
H1691 H 0.87584 0.07897 0.11522 0.0
H1692 H 0.89418 0.09439 0.14314 0.0
H1693 H 0.77269 0.05918 0.15475 0.0
H1694 H 0.77574 0.02954 0.17511 0.0
H1695 H 0.78398 0.02866 0.14001 0.0
C1696 C 0.64209 0.07006 0.84338 0.0
C1697 C 0.65384 0.05428 0.82336 0.0
C1698 C 0.65765 0.08004 0.86532 0.0
C1699 C 0.68565 0.07393 0.86756 0.0
C1700 C 0.6978 0.05885 0.84695 0.0
C1701 C 0.68181 0.04923 0.82515 0.0
C1702 C 0.64395 0.09667 0.88642 0.0
C1703 C 0.72742 0.05172 0.84842 0.0
C1704 C 0.72859 0.11683 0.91637 0.0
C1705 C 0.72784 0.10139 0.93975 0.0
C1706 C 0.71575 0.10777 0.89246 0.0
C1707 C 0.70176 0.08265 0.89193 0.0
C1708 C 0.7015 0.06672 0.9154 0.0
C1709 C 0.71407 0.07655 0.93918 0.0
C1710 C 0.71618 0.12559 0.86809 0.0
C1711 C 0.68724 0.03963 0.91562 0.0
H1712 H 0.62054 0.07428 0.84218 0.0
H1713 H 0.69115 0.03699 0.80992 0.0
H1714 H 0.64412 0.08585 0.90581 0.0
H1715 H 0.65531 0.11592 0.88967 0.0
H1716 H 0.62251 0.10114 0.88085 0.0
H1717 H 0.73481 0.04385 0.82901 0.0
H1718 H 0.74018 0.06941 0.85446 0.0
H1719 H 0.73011 0.03602 0.8638 0.0
H1720 H 0.73875 0.13634 0.917 0.0
H1721 H 0.71245 0.06516 0.95754 0.0
H1722 H 0.69516 0.13185 0.86299 0.0
H1723 H 0.72381 0.11442 0.85052 0.0
H1724 H 0.72915 0.14387 0.87134 0.0
H1725 H 0.66507 0.04206 0.91205 0.0
H1726 H 0.69031 0.02906 0.93497 0.0
H1727 H 0.69485 0.02686 0.89916 0.0
C1728 C 0.5783 0.72869 0.9446 0.0
C1729 C 0.58042 0.74002 0.91907 0.0
C1730 C 0.60043 0.71554 0.95662 0.0
C1731 C 0.62478 0.71262 0.94218 0.0
C1732 C 0.62667 0.72342 0.91603 0.0
C1733 C 0.60451 0.73709 0.90488 0.0
C1734 C 0.59775 0.70481 0.98471 0.0
C1735 C 0.65214 0.72058 0.89982 0.0
C1736 C 0.69325 0.70578 0.97704 0.0
C1737 C 0.69858 0.6785 0.97358 0.0
C1738 C 0.66889 0.71671 0.96792 0.0
C1739 C 0.64908 0.70008 0.95489 0.0
C1740 C 0.65374 0.67216 0.9523 0.0
C1741 C 0.6785 0.66158 0.9619 0.0
C1742 C 0.66472 0.74631 0.97166 0.0
C1743 C 0.63333 0.65382 0.93806 0.0
H1744 H 0.55912 0.72954 0.95491 0.0
H1745 H 0.60586 0.74521 0.8848 0.0
H1746 H 0.60191 0.68302 0.98497 0.0
H1747 H 0.61308 0.71484 0.99821 0.0
H1748 H 0.57719 0.70806 0.99291 0.0
H1749 H 0.64964 0.72848 0.87914 0.0
H1750 H 0.66934 0.73159 0.9099 0.0
H1751 H 0.65779 0.69916 0.89853 0.0
H1752 H 0.70857 0.71891 0.98631 0.0
H1753 H 0.6827 0.64049 0.959 0.0
H1754 H 0.64601 0.74903 0.98319 0.0
H1755 H 0.66185 0.7561 0.95191 0.0
H1756 H 0.68195 0.75652 0.98259 0.0
H1757 H 0.61269 0.65658 0.94618 0.0
H1758 H 0.63874 0.63235 0.93989 0.0
H1759 H 0.63232 0.659 0.91644 0.0
C1760 C 0.11954 0.10684 0.79906 0.0
C1761 C 0.1043 0.08492 0.7887 0.0
C1762 C 0.10671 0.12865 0.81135 0.0
C1763 C 0.078 0.12825 0.81398 0.0
C1764 C 0.06257 0.10603 0.80373 0.0
C1765 C 0.07586 0.08484 0.79095 0.0
C1766 C 0.12387 0.1522 0.82141 0.0
C1767 C 0.03203 0.10446 0.80658 0.0
C1768 C 0.04817 0.17364 0.86762 0.0
C1769 C 0.03818 0.1949 0.85222 0.0
C1770 C 0.06073 0.15162 0.85543 0.0
C1771 C 0.06405 0.15114 0.82721 0.0
C1772 C 0.054 0.17258 0.81161 0.0
C1773 C 0.04093 0.19399 0.82424 0.0
C1774 C 0.07053 0.12888 0.87275 0.0
C1775 C 0.05754 0.1732 0.78158 0.0
H1776 H 0.14151 0.10706 0.79734 0.0
H1777 H 0.06395 0.06785 0.78325 0.0
H1778 H 0.11682 0.17095 0.81185 0.0
H1779 H 0.12153 0.15466 0.84338 0.0
H1780 H 0.14582 0.14981 0.81718 0.0
H1781 H 0.02306 0.0855 0.79816 0.0
H1782 H 0.02674 0.10593 0.82808 0.0
H1783 H 0.02247 0.12159 0.79618 0.0
H1784 H 0.0461 0.17419 0.88923 0.0
H1785 H 0.03354 0.21047 0.81221 0.0
H1786 H 0.09293 0.12713 0.87123 0.0
H1787 H 0.06125 0.10961 0.86555 0.0
H1788 H 0.06545 0.13175 0.8942 0.0
H1789 H 0.07951 0.17241 0.77687 0.0
H1790 H 0.04894 0.19149 0.77236 0.0
H1791 H 0.04747 0.15532 0.77211 0.0
C1792 C 0.94515 0.31227 0.45125 0.0
C1793 C 0.95137 0.30748 0.42428 0.0
C1794 C 0.91925 0.32062 0.45855 0.0
C1795 C 0.89922 0.3249 0.43836 0.0
C1796 C 0.9055 0.32073 0.41104 0.0
C1797 C 0.93146 0.31172 0.40432 0.0
C1798 C 0.91315 0.3242 0.48796 0.0
C1799 C 0.88475 0.32559 0.38896 0.0
C1800 C 0.82571 0.31865 0.45932 0.0
C1801 C 0.81909 0.34551 0.46411 0.0
C1802 C 0.85163 0.31175 0.45068 0.0
C1803 C 0.87128 0.33225 0.44614 0.0
C1804 C 0.8646 0.35946 0.4504 0.0
C1805 C 0.83863 0.36577 0.45967 0.0
C1806 C 0.85816 0.28245 0.44701 0.0
C1807 C 0.88494 0.38185 0.44529 0.0
H1808 H 0.96039 0.3089 0.46681 0.0
H1809 H 0.93627 0.30829 0.38344 0.0
H1810 H 0.90623 0.3449 0.49187 0.0
H1811 H 0.89637 0.31027 0.49363 0.0
H1812 H 0.93113 0.32035 0.50114 0.0
H1813 H 0.89341 0.32315 0.36867 0.0
H1814 H 0.86728 0.31134 0.39085 0.0
H1815 H 0.87667 0.34615 0.39081 0.0
H1816 H 0.81075 0.30286 0.46284 0.0
H1817 H 0.83351 0.38657 0.4631 0.0
H1818 H 0.87528 0.27706 0.46066 0.0
H1819 H 0.86476 0.27865 0.4262 0.0
H1820 H 0.84047 0.269 0.45119 0.0
H1821 H 0.90268 0.38016 0.45923 0.0
H1822 H 0.87602 0.402 0.44796 0.0
H1823 H 0.89268 0.3802 0.42458 0.0
C1824 C 0.57403 0.94472 0.78758 0.0
C1825 C 0.60001 0.95488 0.79449 0.0
C1826 C 0.56268 0.92267 0.80122 0.0
C1827 C 0.57829 0.90967 0.82132 0.0
C1828 C 0.60484 0.91954 0.82789 0.0
C1829 C 0.6153 0.94208 0.81448 0.0
C1830 C 0.5341 0.9132 0.79403 0.0
C1831 C 0.62234 0.90612 0.8489 0.0
C1832 C 0.54495 0.86668 0.87473 0.0
C1833 C 0.548 0.84071 0.86451 0.0
C1834 C 0.55413 0.88918 0.86062 0.0
C1835 C 0.56698 0.88581 0.83567 0.0
C1836 C 0.56997 0.85955 0.82508 0.0
C1837 C 0.56013 0.83728 0.8395 0.0
C1838 C 0.54953 0.91654 0.87236 0.0
C1839 C 0.58441 0.85493 0.79903 0.0
H1840 H 0.56278 0.9537 0.77116 0.0
H1841 H 0.63568 0.94954 0.81939 0.0
H1842 H 0.53424 0.89213 0.78676 0.0
H1843 H 0.52132 0.91363 0.81216 0.0
H1844 H 0.5245 0.92576 0.77829 0.0
H1845 H 0.64296 0.91556 0.85084 0.0
H1846 H 0.61241 0.90717 0.86868 0.0
H1847 H 0.62454 0.88456 0.84378 0.0
H1848 H 0.53522 0.86944 0.89389 0.0
H1849 H 0.56278 0.81717 0.83167 0.0
H1850 H 0.53326 0.92612 0.86036 0.0
H1851 H 0.56824 0.92925 0.87137 0.0
H1852 H 0.54301 0.91569 0.89357 0.0
H1853 H 0.57439 0.86619 0.78259 0.0
H1854 H 0.5847 0.83335 0.79331 0.0
H1855 H 0.60572 0.86261 0.80088 0.0
C1856 C 0.97524 0.18059 0.37165 0.0
C1857 C 0.97409 0.20451 0.35712 0.0
C1858 C 0.96316 0.15682 0.36164 0.0
C1859 C 0.94932 0.15685 0.33647 0.0
C1860 C 0.94703 0.18125 0.32219 0.0
C1861 C 0.95979 0.20477 0.33252 0.0
C1862 C 0.96682 0.13153 0.37752 0.0
C1863 C 0.93124 0.18249 0.29596 0.0
C1864 C 0.94293 0.09242 0.29517 0.0
C1865 C 0.9174 0.0824 0.30268 0.0
C1866 C 0.95386 0.11625 0.30652 0.0
C1867 C 0.93817 0.13122 0.32469 0.0
C1868 C 0.91195 0.12158 0.33167 0.0
C1869 C 0.90198 0.09718 0.32073 0.0
C1870 C 0.98215 0.12544 0.29904 0.0
C1871 C 0.89434 0.1372 0.35049 0.0
H1872 H 0.98642 0.18017 0.39061 0.0
H1873 H 0.95859 0.22331 0.32134 0.0
H1874 H 0.94875 0.11794 0.37577 0.0
H1875 H 0.98462 0.121 0.36953 0.0
H1876 H 0.97095 0.13588 0.39913 0.0
H1877 H 0.92935 0.20337 0.28857 0.0
H1878 H 0.94149 0.17046 0.28045 0.0
H1879 H 0.91052 0.17366 0.29835 0.0
H1880 H 0.95415 0.08187 0.28 0.0
H1881 H 0.88187 0.08981 0.32597 0.0
H1882 H 0.99516 0.12752 0.31742 0.0
H1883 H 0.98146 0.14546 0.28951 0.0
H1884 H 0.99184 0.1113 0.28497 0.0
H1885 H 0.90438 0.13875 0.37058 0.0
H1886 H 0.87388 0.12769 0.35276 0.0
H1887 H 0.8918 0.15794 0.34298 0.0
C1888 C 0.61146 0.0946 0.70726 0.0
C1889 C 0.59169 0.0788 0.72001 0.0
C1890 C 0.60432 0.11862 0.69429 0.0
C1891 C 0.57678 0.12676 0.69389 0.0
C1892 C 0.55669 0.11025 0.70578 0.0
C1893 C 0.56438 0.08663 0.71869 0.0
C1894 C 0.6263 0.1357 0.68181 0.0
C1895 C 0.52704 0.11787 0.70555 0.0
C1896 C 0.55491 0.19928 0.6882 0.0
C1897 C 0.5446 0.2 0.66179 0.0
C1898 C 0.56696 0.17601 0.69844 0.0
C1899 C 0.56864 0.15285 0.68192 0.0
C1900 C 0.55935 0.15387 0.65489 0.0
C1901 C 0.54748 0.17741 0.64515 0.0
C1902 C 0.57671 0.17582 0.72735 0.0
C1903 C 0.56064 0.12965 0.63662 0.0
H1904 H 0.6326 0.08875 0.70828 0.0
H1905 H 0.54886 0.07442 0.72819 0.0
H1906 H 0.62065 0.14048 0.66074 0.0
H1907 H 0.62844 0.15504 0.69289 0.0
H1908 H 0.64633 0.12572 0.68209 0.0
H1909 H 0.5138 0.10224 0.7147 0.0
H1910 H 0.52464 0.13694 0.71681 0.0
H1911 H 0.51975 0.12125 0.68466 0.0
H1912 H 0.55296 0.21669 0.70113 0.0
H1913 H 0.53972 0.17781 0.62465 0.0
H1914 H 0.5976 0.16782 0.72886 0.0
H1915 H 0.56325 0.16239 0.73911 0.0
H1916 H 0.57671 0.19615 0.73664 0.0
H1917 H 0.58125 0.12092 0.63751 0.0
H1918 H 0.55555 0.13458 0.61542 0.0
H1919 H 0.54604 0.11397 0.64342 0.0
C1920 C 0.17665 0.37058 0.95901 0.0
C1921 C 0.19646 0.35397 0.97039 0.0
C1922 C 0.15148 0.3601 0.94969 0.0
C1923 C 0.14677 0.33196 0.94968 0.0
C1924 C 0.16695 0.31502 0.96061 0.0
C1925 C 0.19067 0.32649 0.97243 0.0
C1926 C 0.13019 0.37949 0.94006 0.0
C1927 C 0.16416 0.28479 0.95876 0.0
C1928 C 0.07709 0.29757 0.94343 0.0
C1929 C 0.07142 0.2994 0.91592 0.0
C1930 C 0.10075 0.30949 0.95492 0.0
C1931 C 0.12102 0.32027 0.93798 0.0
C1932 C 0.11641 0.32008 0.90982 0.0
C1933 C 0.09128 0.31069 0.89931 0.0
C1934 C 0.10339 0.31161 0.98514 0.0
C1935 C 0.13775 0.32955 0.89041 0.0
H1936 H 0.1804 0.39207 0.95816 0.0
H1937 H 0.20456 0.31398 0.98345 0.0
H1938 H 0.10919 0.37115 0.94162 0.0
H1939 H 0.13158 0.39852 0.95179 0.0
H1940 H 0.13394 0.38456 0.91881 0.0
H1941 H 0.18032 0.27466 0.9705 0.0
H1942 H 0.14428 0.27721 0.96581 0.0
H1943 H 0.16517 0.27867 0.93738 0.0
H1944 H 0.06316 0.28663 0.95596 0.0
H1945 H 0.08762 0.31139 0.8778 0.0
H1946 H 0.10216 0.33303 0.99106 0.0
H1947 H 0.12329 0.3048 0.99289 0.0
H1948 H 0.08727 0.29984 0.9953 0.0
H1949 H 0.13364 0.35057 0.88467 0.0
H1950 H 0.13676 0.31729 0.8717 0.0
H1951 H 0.15872 0.32861 0.89897 0.0
C1952 C 0.43275 0.73317 0.45253 0.0
C1953 C 0.44106 0.73274 0.4257 0.0
C1954 C 0.41072 0.71733 0.46107 0.0
C1955 C 0.39606 0.70101 0.44225 0.0
C1956 C 0.40398 0.70076 0.41502 0.0
C1957 C 0.42661 0.71639 0.40712 0.0
C1958 C 0.4034 0.71775 0.49039 0.0
C1959 C 0.38851 0.68403 0.39426 0.0
C1960 C 0.35552 0.64163 0.4693 0.0
C1961 C 0.32931 0.65216 0.47115 0.0
C1962 C 0.37736 0.65725 0.45981 0.0
C1963 C 0.37281 0.68389 0.45136 0.0
C1964 C 0.34632 0.69453 0.45281 0.0
C1965 C 0.32496 0.67864 0.46297 0.0
C1966 C 0.4054 0.64535 0.45921 0.0
C1967 C 0.34054 0.72267 0.44355 0.0
H1968 H 0.44383 0.74558 0.46713 0.0
H1969 H 0.43278 0.71604 0.38636 0.0
H1970 H 0.38217 0.72452 0.49264 0.0
H1971 H 0.40445 0.69719 0.49871 0.0
H1972 H 0.41713 0.73122 0.50254 0.0
H1973 H 0.39657 0.68683 0.37377 0.0
H1974 H 0.38965 0.66246 0.39946 0.0
H1975 H 0.36667 0.68935 0.39409 0.0
H1976 H 0.35906 0.62119 0.47562 0.0
H1977 H 0.30469 0.68679 0.46398 0.0
H1978 H 0.41971 0.65755 0.47201 0.0
H1979 H 0.41325 0.6458 0.4385 0.0
H1980 H 0.40551 0.6243 0.4664 0.0
H1981 H 0.35236 0.7374 0.45608 0.0
H1982 H 0.31859 0.72747 0.44469 0.0
H1983 H 0.34712 0.72526 0.42253 0.0
C1984 C 0.85662 0.5546 0.82906 0.0
C1985 C 0.83808 0.5381 0.81454 0.0
C1986 C 0.84823 0.56954 0.85144 0.0
C1987 C 0.82061 0.56824 0.8592 0.0
C1988 C 0.80178 0.55193 0.84437 0.0
C1989 C 0.81074 0.537 0.82241 0.0
C1990 C 0.86895 0.58656 0.86691 0.0
C1991 C 0.77208 0.55027 0.85167 0.0
C1992 C 0.80078 0.58714 0.9303 0.0
C1993 C 0.7918 0.6135 0.92696 0.0
C1994 C 0.81061 0.57233 0.90852 0.0
C1995 C 0.81116 0.58401 0.88269 0.0
C1996 C 0.80175 0.61044 0.8791 0.0
C1997 C 0.79234 0.62489 0.90126 0.0
C1998 C 0.82064 0.54426 0.91319 0.0
C1999 C 0.80156 0.62347 0.85182 0.0
H2000 H 0.87776 0.55552 0.82322 0.0
H2001 H 0.79612 0.52454 0.81123 0.0
H2002 H 0.86279 0.60786 0.86681 0.0
H2003 H 0.86982 0.58011 0.88818 0.0
H2004 H 0.88966 0.58526 0.85847 0.0
H2005 H 0.75996 0.53694 0.83783 0.0
H2006 H 0.77006 0.5426 0.8724 0.0
H2007 H 0.76319 0.57057 0.85125 0.0
H2008 H 0.80076 0.57824 0.95009 0.0
H2009 H 0.78546 0.64523 0.89842 0.0
H2010 H 0.84207 0.54279 0.90676 0.0
H2011 H 0.80836 0.52968 0.90088 0.0
H2012 H 0.81949 0.53831 0.93459 0.0
H2013 H 0.82249 0.62427 0.84385 0.0
H2014 H 0.79359 0.64417 0.8524 0.0
H2015 H 0.78881 0.6113 0.83751 0.0
C2016 C 0.70555 0.5507 0.18169 0.0
C2017 C 0.6782 0.54949 0.1894 0.0
C2018 C 0.7134 0.56357 0.1581 0.0
C2019 C 0.69343 0.57553 0.1415 0.0
C2020 C 0.66586 0.57523 0.1495 0.0
C2021 C 0.65855 0.5623 0.17349 0.0
C2022 C 0.74309 0.5637 0.15062 0.0
C2023 C 0.64401 0.58777 0.1323 0.0
C2024 C 0.72312 0.62425 0.09103 0.0
C2025 C 0.72607 0.60764 0.06844 0.0
C2026 C 0.71111 0.61451 0.11451 0.0
C2027 C 0.70176 0.5875 0.11545 0.0
C2028 C 0.70352 0.571 0.09229 0.0
C2029 C 0.71571 0.58124 0.06909 0.0
C2030 C 0.70975 0.63276 0.13875 0.0
C2031 C 0.69369 0.54212 0.0924 0.0
H2032 H 0.72097 0.54114 0.19397 0.0
H2033 H 0.63738 0.56136 0.17925 0.0
H2034 H 0.74555 0.55244 0.13156 0.0
H2035 H 0.75047 0.58457 0.14729 0.0
H2036 H 0.75622 0.55451 0.16632 0.0
H2037 H 0.62391 0.58752 0.14217 0.0
H2038 H 0.64973 0.60884 0.12759 0.0
H2039 H 0.64196 0.57672 0.11294 0.0
H2040 H 0.73091 0.64474 0.09069 0.0
H2041 H 0.71771 0.56833 0.05167 0.0
H2042 H 0.72423 0.62588 0.1545 0.0
H2043 H 0.68909 0.63193 0.14735 0.0
H2044 H 0.71495 0.65394 0.13388 0.0
H2045 H 0.70705 0.53031 0.10589 0.0
H2046 H 0.69378 0.53285 0.07206 0.0
H2047 H 0.67275 0.54065 0.10029 0.0
C2048 C 0.70918 0.43022 0.43099 0.0
C2049 C 0.72113 0.40512 0.42757 0.0
C2050 C 0.69931 0.44464 0.40874 0.0
C2051 C 0.70207 0.43395 0.38248 0.0
C2052 C 0.7147 0.40889 0.37912 0.0
C2053 C 0.72393 0.39479 0.4016 0.0
C2054 C 0.6851 0.47081 0.41336 0.0
C2055 C 0.71905 0.39703 0.35176 0.0
C2056 C 0.65381 0.45541 0.32627 0.0
C2057 C 0.66924 0.47522 0.31337 0.0
C2058 C 0.66419 0.44199 0.34884 0.0
C2059 C 0.69082 0.44835 0.35864 0.0
C2060 C 0.70657 0.46827 0.34554 0.0
C2061 C 0.6953 0.48194 0.32347 0.0
C2062 C 0.64653 0.42118 0.36237 0.0
C2063 C 0.73523 0.47524 0.35492 0.0
H2064 H 0.70672 0.43814 0.4511 0.0
H2065 H 0.73351 0.37557 0.39883 0.0
H2066 H 0.69522 0.48716 0.40206 0.0
H2067 H 0.66375 0.46912 0.40574 0.0
H2068 H 0.6849 0.47656 0.43494 0.0
H2069 H 0.72528 0.37573 0.35264 0.0
H2070 H 0.70033 0.39824 0.33908 0.0
H2071 H 0.73547 0.40879 0.34212 0.0
H2072 H 0.63337 0.45065 0.31886 0.0
H2073 H 0.70667 0.49824 0.31441 0.0
H2074 H 0.64446 0.42636 0.38392 0.0
H2075 H 0.65626 0.4013 0.36132 0.0
H2076 H 0.62587 0.41942 0.353 0.0
H2077 H 0.73521 0.48254 0.37599 0.0
H2078 H 0.74493 0.49088 0.34231 0.0
H2079 H 0.74785 0.457 0.35448 0.0
C2080 C 0.82701 0.47657 0.67775 0.0
C2081 C 0.85256 0.46919 0.68781 0.0
C2082 C 0.81604 0.46491 0.65407 0.0
C2083 C 0.83169 0.44655 0.63931 0.0
C2084 C 0.85795 0.43973 0.64896 0.0
C2085 C 0.86797 0.45098 0.67321 0.0
C2086 C 0.78771 0.47225 0.64486 0.0
C2087 C 0.87554 0.42072 0.63355 0.0
C2088 C 0.79458 0.3988 0.5907 0.0
C2089 C 0.7956 0.41299 0.56658 0.0
C2090 C 0.80672 0.40918 0.61429 0.0
C2091 C 0.82047 0.43439 0.61388 0.0
C2092 C 0.82262 0.44833 0.58926 0.0
C2093 C 0.8098 0.43763 0.56593 0.0
C2094 C 0.80319 0.39364 0.63981 0.0
C2095 C 0.83835 0.47456 0.58759 0.0
H2096 H 0.8158 0.49185 0.68814 0.0
H2097 H 0.8881 0.44583 0.68061 0.0
H2098 H 0.78833 0.48149 0.6247 0.0
H2099 H 0.77472 0.45383 0.64307 0.0
H2100 H 0.77805 0.4865 0.65884 0.0
H2101 H 0.89606 0.41866 0.64299 0.0
H2102 H 0.86555 0.40058 0.63238 0.0
H2103 H 0.87794 0.4279 0.61268 0.0
H2104 H 0.78347 0.37982 0.59142 0.0
H2105 H 0.8109 0.44854 0.54723 0.0
H2106 H 0.78521 0.40152 0.65012 0.0
H2107 H 0.82117 0.39581 0.65345 0.0
H2108 H 0.79937 0.37192 0.63575 0.0
H2109 H 0.82812 0.49022 0.59945 0.0
H2110 H 0.84013 0.48165 0.5666 0.0
H2111 H 0.85911 0.47233 0.59638 0.0
C2112 C 0.44227 0.08186 0.23035 0.0
C2113 C 0.41516 0.07513 0.2234 0.0
C2114 C 0.45456 0.10579 0.22132 0.0
C2115 C 0.43941 0.12347 0.20494 0.0
C2116 C 0.41212 0.11664 0.19765 0.0
C2117 C 0.40035 0.09259 0.20695 0.0
C2118 C 0.48366 0.11235 0.22963 0.0
C2119 C 0.39522 0.13493 0.18029 0.0
C2120 C 0.45961 0.19749 0.20533 0.0
C2121 C 0.47357 0.20024 0.18108 0.0
C2122 C 0.44862 0.17267 0.2133 0.0
C2123 C 0.45154 0.1498 0.1967 0.0
C2124 C 0.46574 0.15226 0.1723 0.0
C2125 C 0.4766 0.17743 0.16478 0.0
C2126 C 0.4337 0.17098 0.2395 0.0
C2127 C 0.46929 0.12833 0.15406 0.0
H2128 H 0.45392 0.06846 0.24295 0.0
H2129 H 0.37943 0.08753 0.20138 0.0
H2130 H 0.49612 0.11604 0.21164 0.0
H2131 H 0.48446 0.13103 0.24188 0.0
H2132 H 0.49303 0.09601 0.24149 0.0
H2133 H 0.3747 0.12623 0.17549 0.0
H2134 H 0.39271 0.15446 0.19071 0.0
H2135 H 0.40577 0.1391 0.16123 0.0
H2136 H 0.45717 0.21482 0.21826 0.0
H2137 H 0.48733 0.17923 0.14605 0.0
H2138 H 0.44343 0.15604 0.25281 0.0
H2139 H 0.41236 0.16408 0.23572 0.0
H2140 H 0.43345 0.19057 0.25027 0.0
H2141 H 0.47986 0.11218 0.16509 0.0
H2142 H 0.48115 0.13344 0.13597 0.0
H2143 H 0.44906 0.12013 0.14752 0.0
C2144 C 0.0426 0.85525 0.65236 0.0
C2145 C 0.04356 0.83197 0.66794 0.0
C2146 C 0.05547 0.87926 0.66113 0.0
C2147 C 0.06971 0.88001 0.68612 0.0
C2148 C 0.0702 0.85664 0.7022 0.0
C2149 C 0.0576 0.83276 0.69264 0.0
C2150 C 0.05477 0.9035 0.64315 0.0
C2151 C 0.08472 0.85665 0.72915 0.0
C2152 C 0.12916 0.92906 0.69794 0.0
C2153 C 0.1174 0.94911 0.71366 0.0
C2154 C 0.11368 0.90694 0.68823 0.0
C2155 C 0.08574 0.90454 0.69457 0.0
C2156 C 0.07357 0.92519 0.70959 0.0
C2157 C 0.08948 0.94717 0.71893 0.0
C2158 C 0.12739 0.88582 0.67163 0.0
C2159 C 0.04403 0.92356 0.71698 0.0
H2160 H 0.03224 0.85446 0.63295 0.0
H2161 H 0.05939 0.81449 0.70415 0.0
H2162 H 0.04706 0.92108 0.65425 0.0
H2163 H 0.07572 0.90871 0.63675 0.0
H2164 H 0.04172 0.90004 0.62495 0.0
H2165 H 0.08186 0.83736 0.73987 0.0
H2166 H 0.10685 0.86033 0.72651 0.0
H2167 H 0.07714 0.87315 0.74191 0.0
H2168 H 0.15068 0.93036 0.69357 0.0
H2169 H 0.08013 0.9624 0.73114 0.0
H2170 H 0.1159 0.88236 0.65249 0.0
H2171 H 0.12745 0.86652 0.68259 0.0
H2172 H 0.14875 0.89151 0.66696 0.0
H2173 H 0.03115 0.91724 0.69947 0.0
H2174 H 0.03655 0.94298 0.72473 0.0
H2175 H 0.04161 0.90832 0.73287 0.0
C2176 C 0.4632 0.85693 0.37493 0.0
C2177 C 0.47229 0.83327 0.36274 0.0
C2178 C 0.45061 0.87706 0.35992 0.0
C2179 C 0.44693 0.87366 0.33189 0.0
C2180 C 0.45653 0.85018 0.31925 0.0
C2181 C 0.4691 0.83024 0.33482 0.0
C2182 C 0.44066 0.90173 0.37425 0.0
C2183 C 0.45302 0.84589 0.28936 0.0
C2184 C 0.38808 0.91206 0.30135 0.0
C2185 C 0.40125 0.93482 0.29076 0.0
C2186 C 0.4028 0.89174 0.31404 0.0
C2187 C 0.4315 0.89405 0.31632 0.0
C2188 C 0.44505 0.9167 0.30537 0.0
C2189 C 0.42979 0.93682 0.29273 0.0
C2190 C 0.3875 0.868 0.32552 0.0
C2191 C 0.47564 0.91988 0.3074 0.0
H2192 H 0.4657 0.85977 0.39642 0.0
H2193 H 0.47613 0.81217 0.32514 0.0
H2194 H 0.4493 0.92012 0.36501 0.0
H2195 H 0.41817 0.9027 0.37218 0.0
H2196 H 0.44622 0.90189 0.39597 0.0
H2197 H 0.46305 0.82739 0.28234 0.0
H2198 H 0.43102 0.84436 0.28399 0.0
H2199 H 0.46159 0.86333 0.27842 0.0
H2200 H 0.3661 0.91006 0.29985 0.0
H2201 H 0.44024 0.95417 0.28451 0.0
H2202 H 0.39049 0.86768 0.34765 0.0
H2203 H 0.39559 0.849 0.31747 0.0
H2204 H 0.3653 0.86853 0.32091 0.0
H2205 H 0.48211 0.92178 0.32879 0.0
H2206 H 0.48325 0.9378 0.29649 0.0
H2207 H 0.48547 0.9018 0.29918 0.0
C2208 C 0.85698 0.67055 0.01872 0.0
C2209 C 0.83124 0.66833 0.03007 0.0
C2210 C 0.87808 0.68548 0.03166 0.0
C2211 C 0.87402 0.69619 0.05774 0.0
C2212 C 0.84863 0.69165 0.07024 0.0
C2213 C 0.82732 0.67867 0.05584 0.0
C2214 C 0.90448 0.69013 0.0172 0.0
C2215 C 0.84358 0.70046 0.09874 0.0
C2216 C 0.94095 0.71444 0.09405 0.0
C2217 C 0.93881 0.7422 0.0977 0.0
C2218 C 0.91968 0.69905 0.08219 0.0
C2219 C 0.89624 0.71202 0.07187 0.0
C2220 C 0.89387 0.74014 0.07599 0.0
C2221 C 0.91472 0.75455 0.08979 0.0
C2222 C 0.92246 0.66889 0.08222 0.0
C2223 C 0.86927 0.75555 0.06685 0.0
H2224 H 0.8605 0.66097 0.9996 0.0
H2225 H 0.80764 0.67597 0.06509 0.0
H2226 H 0.90903 0.71201 0.01601 0.0
H2227 H 0.92155 0.68085 0.02828 0.0
H2228 H 0.90392 0.6814 0.99665 0.0
H2229 H 0.82855 0.68687 0.10841 0.0
H2230 H 0.86255 0.70098 0.11121 0.0
H2231 H 0.83487 0.72084 0.09859 0.0
H2232 H 0.95901 0.70446 0.1015 0.0
H2233 H 0.91162 0.77526 0.095 0.0
H2234 H 0.93987 0.66326 0.0696 0.0
H2235 H 0.90392 0.6578 0.07506 0.0
H2236 H 0.92741 0.66211 0.1029 0.0
H2237 H 0.8759 0.77304 0.05492 0.0
H2238 H 0.85879 0.7636 0.08465 0.0
H2239 H 0.85445 0.74359 0.05455 0.0
C2240 C 0.59224 0.30681 0.6076 0.0
C2241 C 0.57217 0.29488 0.59082 0.0
C2242 C 0.61688 0.31652 0.59686 0.0
C2243 C 0.62143 0.31381 0.56892 0.0
C2244 C 0.60168 0.30048 0.55246 0.0
C2245 C 0.57745 0.29123 0.56355 0.0
C2246 C 0.63725 0.33104 0.61503 0.0
C2247 C 0.60574 0.29663 0.52286 0.0
C2248 C 0.66521 0.36418 0.53149 0.0
C2249 C 0.68945 0.35024 0.52847 0.0
C2250 C 0.64326 0.35282 0.5453 0.0
C2251 C 0.64551 0.32673 0.55618 0.0
C2252 C 0.67001 0.31256 0.55317 0.0
C2253 C 0.69192 0.32477 0.53984 0.0
C2254 C 0.61761 0.36874 0.54822 0.0
C2255 C 0.67308 0.28454 0.56398 0.0
H2256 H 0.58808 0.30986 0.62868 0.0
H2257 H 0.56213 0.28178 0.55054 0.0
H2258 H 0.65796 0.32314 0.61215 0.0
H2259 H 0.63796 0.35265 0.60977 0.0
H2260 H 0.632 0.3292 0.63653 0.0
H2261 H 0.5887 0.28522 0.51285 0.0
H2262 H 0.60802 0.31637 0.51292 0.0
H2263 H 0.62472 0.28556 0.52008 0.0
H2264 H 0.66359 0.38421 0.52332 0.0
H2265 H 0.7112 0.31466 0.5389 0.0
H2266 H 0.6121 0.37009 0.56968 0.0
H2267 H 0.60045 0.3584 0.53739 0.0
H2268 H 0.6198 0.38939 0.54018 0.0
H2269 H 0.66907 0.28432 0.58581 0.0
H2270 H 0.69372 0.27656 0.56063 0.0
H2271 H 0.65784 0.27084 0.55411 0.0
C2272 C 0.22765 0.44601 0.07528 0.0
C2273 C 0.23034 0.41803 0.07451 0.0
C2274 C 0.21474 0.45878 0.09671 0.0
C2275 C 0.20481 0.4433 0.1183 0.0
C2276 C 0.20807 0.41509 0.11794 0.0
C2277 C 0.22047 0.40276 0.0959 0.0
C2278 C 0.21124 0.48881 0.09597 0.0
C2279 C 0.19839 0.3979 0.14083 0.0
C2280 C 0.19353 0.47985 0.18455 0.0
C2281 C 0.16509 0.48213 0.18467 0.0
C2282 C 0.20664 0.46699 0.1633 0.0
C2283 C 0.19105 0.45668 0.14123 0.0
C2284 C 0.16234 0.45935 0.14102 0.0
C2285 C 0.14969 0.47173 0.16288 0.0
C2286 C 0.23719 0.46411 0.16467 0.0
C2287 C 0.145 0.44922 0.11762 0.0
H2288 H 0.23496 0.45794 0.0587 0.0
H2289 H 0.2225 0.38114 0.09545 0.0
H2290 H 0.18929 0.49356 0.09688 0.0
H2291 H 0.22145 0.49836 0.11373 0.0
H2292 H 0.21973 0.49792 0.07756 0.0
H2293 H 0.20341 0.37642 0.13804 0.0
H2294 H 0.20782 0.40518 0.16001 0.0
H2295 H 0.17602 0.39948 0.14273 0.0
H2296 H 0.20557 0.4876 0.20144 0.0
H2297 H 0.12772 0.47346 0.16282 0.0
H2298 H 0.24664 0.4744 0.14741 0.0
H2299 H 0.24244 0.44259 0.16327 0.0
H2300 H 0.24631 0.47262 0.18352 0.0
H2301 H 0.15195 0.45866 0.09878 0.0
H2302 H 0.12308 0.45352 0.12013 0.0
H2303 H 0.14726 0.42723 0.11525 0.0
C2304 C 0.33991 0.47755 0.83149 0.0
C2305 C 0.36852 0.47812 0.83263 0.0
C2306 C 0.32468 0.46518 0.85179 0.0
C2307 C 0.33833 0.45301 0.87372 0.0
C2308 C 0.36713 0.45378 0.87513 0.0
C2309 C 0.38181 0.46629 0.85467 0.0
C2310 C 0.29398 0.46478 0.84959 0.0
C2311 C 0.38253 0.44092 0.89805 0.0
C2312 C 0.30207 0.43489 0.93841 0.0
C2313 C 0.29742 0.4072 0.93487 0.0
C2314 C 0.31469 0.45031 0.91837 0.0
C2315 C 0.32279 0.43775 0.89426 0.0
C2316 C 0.31754 0.40999 0.89034 0.0
C2317 C 0.30498 0.39513 0.91059 0.0
C2318 C 0.3199 0.4799 0.92323 0.0
C2319 C 0.32582 0.39576 0.86497 0.0
H2320 H 0.32937 0.48677 0.81473 0.0
H2321 H 0.40386 0.46666 0.85598 0.0
H2322 H 0.28632 0.44377 0.84748 0.0
H2323 H 0.28523 0.47314 0.86816 0.0
H2324 H 0.28641 0.47644 0.83215 0.0
H2325 H 0.40488 0.44436 0.89686 0.0
H2326 H 0.37556 0.44895 0.91752 0.0
H2327 H 0.37833 0.41896 0.89796 0.0
H2328 H 0.29623 0.44447 0.95697 0.0
H2329 H 0.30129 0.37383 0.90735 0.0
H2330 H 0.31144 0.49168 0.90632 0.0
H2331 H 0.34216 0.4841 0.92422 0.0
H2332 H 0.31082 0.487 0.94219 0.0
H2333 H 0.31711 0.4059 0.84712 0.0
H2334 H 0.31906 0.37436 0.86447 0.0
H2335 H 0.34831 0.39666 0.86327 0.0
C2336 C 0.30881 0.56332 0.57025 0.0
C2337 C 0.29504 0.58768 0.56756 0.0
C2338 C 0.32001 0.55536 0.59499 0.0
C2339 C 0.31749 0.57206 0.61784 0.0
C2340 C 0.30347 0.59658 0.61544 0.0
C2341 C 0.29239 0.60409 0.59035 0.0
C2342 C 0.33472 0.52904 0.59662 0.0
C2343 C 0.30033 0.61494 0.63935 0.0
C2344 C 0.32711 0.53866 0.68588 0.0
C2345 C 0.35431 0.54545 0.69238 0.0
C2346 C 0.31469 0.54765 0.66199 0.0
C2347 C 0.32981 0.56381 0.6441 0.0
C2348 C 0.35721 0.57093 0.65068 0.0
C2349 C 0.36911 0.56168 0.6747 0.0
C2350 C 0.28548 0.53954 0.65573 0.0
C2351 C 0.37408 0.58805 0.63215 0.0
H2352 H 0.31095 0.55031 0.55294 0.0
H2353 H 0.28182 0.62291 0.5886 0.0
H2354 H 0.35615 0.53266 0.6033 0.0
H2355 H 0.32504 0.51586 0.6117 0.0
H2356 H 0.33467 0.5182 0.57706 0.0
H2357 H 0.28858 0.63311 0.6343 0.0
H2358 H 0.28985 0.60405 0.65566 0.0
H2359 H 0.32069 0.62135 0.64731 0.0
H2360 H 0.31547 0.52623 0.69944 0.0
H2361 H 0.3901 0.56712 0.67957 0.0
H2362 H 0.28441 0.52724 0.63708 0.0
H2363 H 0.27313 0.55763 0.65211 0.0
H2364 H 0.27617 0.5278 0.67218 0.0
H2365 H 0.37628 0.57753 0.61263 0.0
H2366 H 0.39473 0.59269 0.64063 0.0
H2367 H 0.36368 0.60719 0.62802 0.0
C2368 C 0.14155 0.57279 0.34082 0.0
C2369 C 0.15314 0.55708 0.32065 0.0
C2370 C 0.15721 0.58239 0.36288 0.0
C2371 C 0.18512 0.57594 0.36509 0.0
C2372 C 0.19712 0.56093 0.34433 0.0
C2373 C 0.18105 0.55171 0.32241 0.0
C2374 C 0.14369 0.59897 0.38414 0.0
C2375 C 0.22664 0.55342 0.34576 0.0
C2376 C 0.22867 0.61781 0.41433 0.0
C2377 C 0.22776 0.60214 0.43755 0.0
C2378 C 0.21566 0.60917 0.39035 0.0
C2379 C 0.20133 0.58423 0.38957 0.0
C2380 C 0.20089 0.56806 0.41288 0.0
C2381 C 0.21364 0.57748 0.43674 0.0
C2382 C 0.21631 0.62723 0.36617 0.0
C2383 C 0.18627 0.54116 0.41284 0.0
H2384 H 0.12005 0.57724 0.33966 0.0
H2385 H 0.19025 0.53951 0.30708 0.0
H2386 H 0.14368 0.58794 0.4034 0.0
H2387 H 0.15528 0.61805 0.38761 0.0
H2388 H 0.12232 0.60375 0.37858 0.0
H2389 H 0.23396 0.5457 0.32627 0.0
H2390 H 0.23961 0.57087 0.35206 0.0
H2391 H 0.22908 0.53748 0.36094 0.0
H2392 H 0.2391 0.63718 0.41515 0.0
H2393 H 0.2119 0.56591 0.45498 0.0
H2394 H 0.19536 0.63375 0.36111 0.0
H2395 H 0.22385 0.61616 0.3485 0.0
H2396 H 0.22946 0.64536 0.36963 0.0
H2397 H 0.16414 0.5439 0.4093 0.0
H2398 H 0.1892 0.53035 0.43207 0.0
H2399 H 0.19371 0.52844 0.39625 0.0
loop_
_geom_bond_atom_site_label_1
_geom_bond_atom_site_label_2
_geom_bond_distance
_geom_bond_site_symmetry_2
_ccdc_geom_bond_type
Mn0 O5 2.095 1_455 S
Mn0 O15 2.162 1_455 S
Mn0 O16 2.297 1_455 S
Mn0 O24 2.385 . S
Mn0 O25 2.209 . S
Mn0 O26 2.094 . S
Mn1 O6 2.121 1_455 S
Mn1 N8 2.257 . S
Mn1 N17 2.282 . S
Mn1 O25 2.215 . S
Mn1 O27 2.117 . S
C2 O24 1.234 . S
C2 O25 1.283 . S
C3 O15 1.281 . S
C3 O16 1.236 . S
C4 O26 1.240 . S
C4 O27 1.264 . S
O5 Mn0 2.095 1_655 S
O5 C14 1.250 . S
O6 Mn1 2.121 1_655 S
O6 C14 1.258 . S
C7 N8 1.326 . S
C7 C11 1.460 . S
C7 H13 0.898 1_455 S
N8 Mn1 2.257 . S
N8 C7 1.326 . S
N8 C12 1.362 . S
C9 C10 1.258 . S
C9 C12 1.431 . S
C9 C29 1.449 . S
C10 C9 1.258 . S
C10 C11 1.477 . S
C10 H30 0.931 . S
C11 C7 1.460 . S
C11 C10 1.477 . S
C11 H31 0.930 . S
C12 N8 1.362 . S
C12 C9 1.431 . S
C12 C22 1.476 . S
H13 C7 0.898 1_655 S
C14 O5 1.250 . S
C14 O6 1.258 . S
O15 Mn0 2.162 1_655 S
O15 C3 1.281 . S
O16 Mn0 2.297 1_655 S
O16 C3 1.236 . S
N17 Mn1 2.282 . S
N17 C18 1.328 . S
N17 C22 1.318 . S
C18 N17 1.328 . S
C18 C19 1.457 . S
C18 H23 0.929 . S
C19 C18 1.457 . S
C19 C20 1.291 . S
C19 H32 0.931 . S
C20 C19 1.291 . S
C20 C21 1.373 . S
C20 H33 0.929 . S
C21 C20 1.373 . S
C21 C22 1.396 . S
C21 C28 1.403 . S
C22 C12 1.476 . S
C22 N17 1.318 . S
C22 C21 1.396 . S
H23 C18 0.929 . S
O24 Mn0 2.385 . S
O24 C2 1.234 . S
O25 Mn0 2.209 . S
O25 Mn1 2.215 . S
O25 C2 1.283 . S
O26 Mn0 2.094 . S
O26 C4 1.240 . S
O27 Mn1 2.117 . S
O27 C4 1.264 . S
C28 C21 1.403 . S
C28 C29 1.399 . S
C28 H34 0.929 . S
C29 C9 1.449 . S
C29 C28 1.399 . S
C29 H35 0.930 . S
H30 C10 0.931 . S
H31 C11 0.930 . S
H32 C19 0.931 . S
H33 C20 0.929 . S
H34 C28 0.929 . S
H35 C29 0.930 . S
Mn36 O41 2.095 1_455 S
Mn36 O51 2.162 . S
Mn36 O52 2.297 . S
Mn36 O60 2.385 . S
Mn36 O61 2.209 . S
Mn36 O62 2.094 1_455 S
Mn37 O42 2.121 . S
Mn37 N44 2.257 . S
Mn37 N53 2.282 . S
Mn37 O61 2.215 1_655 S
Mn37 O63 2.117 . S
C38 O60 1.234 . S
C38 O61 1.283 . S
C39 O51 1.281 . S
C39 O52 1.236 . S
C40 O62 1.240 . S
C40 O63 1.264 . S
O41 Mn36 2.095 1_655 S
O41 C50 1.250 . S
O42 Mn37 2.121 . S
O42 C50 1.258 . S
C43 N44 1.326 . S
C43 C47 1.460 . S
C43 H49 0.929 . S
N44 Mn37 2.257 . S
N44 C43 1.326 . S
N44 C48 1.362 . S
C45 C46 1.258 . S
C45 C48 1.431 . S
C45 C65 1.449 . S
C46 C45 1.258 . S
C46 C47 1.477 . S
C46 H66 0.931 . S
C47 C43 1.460 . S
C47 C46 1.477 . S
C47 H67 0.930 . S
C48 N44 1.362 . S
C48 C45 1.431 . S
C48 C58 1.476 . S
H49 C43 0.929 . S
C50 O41 1.250 . S
C50 O42 1.258 . S
O51 Mn36 2.162 . S
O51 C39 1.281 . S
O52 Mn36 2.297 . S
O52 C39 1.236 . S
N53 Mn37 2.282 . S
N53 C54 1.328 . S
N53 C58 1.318 . S
C54 N53 1.328 . S
C54 C55 1.457 . S
C54 H59 0.929 . S
C55 C54 1.457 . S
C55 C56 1.291 . S
C55 H68 0.931 . S
C56 C55 1.291 . S
C56 C57 1.373 . S
C56 H69 0.929 . S
C57 C56 1.373 . S
C57 C58 1.396 . S
C57 C64 1.403 . S
C58 C48 1.476 . S
C58 N53 1.318 . S
C58 C57 1.396 . S
H59 C54 0.929 . S
O60 Mn36 2.385 . S
O60 C38 1.234 . S
O61 Mn36 2.209 . S
O61 Mn37 2.215 1_455 S
O61 C38 1.283 . S
O62 Mn36 2.094 1_655 S
O62 C40 1.240 . S
O63 Mn37 2.117 . S
O63 C40 1.264 . S
C64 C57 1.403 . S
C64 C65 1.399 . S
C64 H70 0.929 . S
C65 C45 1.449 . S
C65 C64 1.399 . S
C65 H71 0.930 . S
H66 C46 0.931 . S
H67 C47 0.930 . S
H68 C55 0.931 . S
H69 C56 0.929 . S
H70 C64 0.929 . S
H71 C65 0.930 . S
Mn72 O77 2.095 . S
Mn72 O87 2.162 . S
Mn72 O88 2.297 . S
Mn72 O96 2.385 . S
Mn72 O97 2.209 . S
Mn72 O98 2.094 . S
Mn73 O78 2.121 . S
Mn73 N80 2.257 . S
Mn73 N89 2.282 . S
Mn73 O97 2.215 . S
Mn73 O99 2.117 . S
C74 O96 1.234 . S
C74 O97 1.283 . S
C75 O87 1.281 . S
C75 O88 1.236 . S
C76 O98 1.240 . S
C76 O99 1.264 . S
O77 Mn72 2.095 . S
O77 C86 1.250 . S
O78 Mn73 2.121 . S
O78 C86 1.258 . S
C79 N80 1.326 . S
C79 C83 1.460 1_556 S
C79 H85 0.929 . S
N80 Mn73 2.257 . S
N80 C79 1.326 . S
N80 C84 1.362 . S
C81 C82 1.258 1_556 S
C81 C84 1.431 . S
C81 C101 1.449 1_556 S
C82 C81 1.258 1_554 S
C82 C83 1.477 . S
C82 H102 0.931 . S
C83 C79 1.460 1_554 S
C83 C82 1.477 . S
C83 H103 0.930 . S
C84 N80 1.362 . S
C84 C81 1.431 . S
C84 C94 1.476 . S
H85 C79 0.929 . S
C86 O77 1.250 . S
C86 O78 1.258 . S
O87 Mn72 2.162 . S
O87 C75 1.281 . S
O88 Mn72 2.297 . S
O88 C75 1.236 . S
N89 Mn73 2.282 . S
N89 C90 1.328 . S
N89 C94 1.318 . S
C90 N89 1.328 . S
C90 C91 1.457 . S
C90 H95 0.929 . S
C91 C90 1.457 . S
C91 C92 1.291 . S
C91 H104 0.931 . S
C92 C91 1.291 . S
C92 C93 1.373 . S
C92 H105 0.929 . S
C93 C92 1.373 . S
C93 C94 1.396 . S
C93 C100 1.403 . S
C94 C84 1.476 . S
C94 N89 1.318 . S
C94 C93 1.396 . S
H95 C90 0.929 . S
O96 Mn72 2.385 . S
O96 C74 1.234 . S
O97 Mn72 2.209 . S
O97 Mn73 2.215 . S
O97 C74 1.283 . S
O98 Mn72 2.094 . S
O98 C76 1.240 . S
O99 Mn73 2.117 . S
O99 C76 1.264 . S
C100 C93 1.403 . S
C100 C101 1.399 1_556 S
C100 H106 0.929 . S
C101 C81 1.449 1_554 S
C101 C100 1.399 1_554 S
C101 H107 0.930 . S
H102 C82 0.931 . S
H103 C83 0.930 . S
H104 C91 0.931 . S
H105 C92 0.929 . S
H106 C100 0.929 . S
H107 C101 0.930 . S
Mn108 O113 2.095 . S
Mn108 O123 2.162 . S
Mn108 O124 2.297 . S
Mn108 O132 2.385 . S
Mn108 O133 2.209 . S
Mn108 O134 2.094 . S
Mn109 O114 2.121 . S
Mn109 N116 2.257 . S
Mn109 N125 2.282 . S
Mn109 O133 2.215 . S
Mn109 O135 2.117 . S
C110 O132 1.234 . S
C110 O133 1.283 . S
C111 O123 1.281 . S
C111 O124 1.236 . S
C112 O134 1.240 . S
C112 O135 1.264 . S
O113 Mn108 2.095 . S
O113 C122 1.250 . S
O114 Mn109 2.121 . S
O114 C122 1.258 . S
C115 N116 1.326 . S
C115 C119 1.460 . S
C115 H121 0.929 . S
N116 Mn109 2.257 . S
N116 C115 1.326 . S
N116 C120 1.362 . S
C117 C118 1.258 . S
C117 C120 1.431 . S
C117 C137 1.449 . S
C118 C117 1.258 . S
C118 C119 1.477 . S
C118 H138 0.931 . S
C119 C115 1.460 . S
C119 C118 1.477 . S
C119 H139 0.930 . S
C120 N116 1.362 . S
C120 C117 1.431 . S
C120 C130 1.476 . S
H121 C115 0.929 . S
C122 O113 1.250 . S
C122 O114 1.258 . S
O123 Mn108 2.162 . S
O123 C111 1.281 . S
O124 Mn108 2.297 . S
O124 C111 1.236 . S
N125 Mn109 2.282 . S
N125 C126 1.328 . S
N125 C130 1.318 . S
C126 N125 1.328 . S
C126 C127 1.457 . S
C126 H131 0.929 . S
C127 C126 1.457 . S
C127 C128 1.291 . S
C127 H140 0.931 . S
C128 C127 1.291 . S
C128 C129 1.373 . S
C128 H141 0.929 . S
C129 C128 1.373 . S
C129 C130 1.396 . S
C129 C136 1.403 . S
C130 C120 1.476 . S
C130 N125 1.318 . S
C130 C129 1.396 . S
H131 C126 0.929 . S
O132 Mn108 2.385 . S
O132 C110 1.234 . S
O133 Mn108 2.209 . S
O133 Mn109 2.215 . S
O133 C110 1.283 . S
O134 Mn108 2.094 . S
O134 C112 1.240 . S
O135 Mn109 2.117 . S
O135 C112 1.264 . S
C136 C129 1.403 . S
C136 C137 1.399 . S
C136 H142 0.929 . S
C137 C117 1.449 . S
C137 C136 1.399 . S
C137 H143 0.930 . S
H138 C118 0.931 . S
H139 C119 0.930 . S
H140 C127 0.931 . S
H141 C128 0.929 . S
H142 C136 0.929 . S
H143 C137 0.930 . S
Mn144 O149 2.095 . S
Mn144 O159 2.162 . S
Mn144 O160 2.297 . S
Mn144 O168 2.385 1_455 S
Mn144 O169 2.209 1_455 S
Mn144 O170 2.094 1_455 S
Mn145 O150 2.121 1_655 S
Mn145 N152 2.257 . S
Mn145 N161 2.282 . S
Mn145 O169 2.215 . S
Mn145 O171 2.117 . S
C146 O168 1.234 . S
C146 O169 1.283 . S
C147 O159 1.281 . S
C147 O160 1.236 . S
C148 O170 1.240 . S
C148 O171 1.264 . S
O149 Mn144 2.095 . S
O149 C158 1.250 . S
O150 Mn145 2.121 1_455 S
O150 C158 1.258 . S
C151 N152 1.326 . S
C151 C155 1.460 1_554 S
C151 H157 0.929 1_655 S
N152 Mn145 2.257 . S
N152 C151 1.326 . S
N152 C156 1.362 . S
C153 C154 1.258 1_554 S
C153 C156 1.431 . S
C153 C173 1.449 . S
C154 C153 1.258 1_556 S
C154 C155 1.477 . S
C154 H174 0.931 . S
C155 C151 1.460 1_556 S
C155 C154 1.477 . S
C155 H175 0.930 1_655 S
C156 N152 1.362 . S
C156 C153 1.431 . S
C156 C166 1.476 . S
H157 C151 0.929 1_455 S
C158 O149 1.250 . S
C158 O150 1.258 . S
O159 Mn144 2.162 . S
O159 C147 1.281 . S
O160 Mn144 2.297 . S
O160 C147 1.236 . S
N161 Mn145 2.282 . S
N161 C162 1.328 . S
N161 C166 1.318 . S
C162 N161 1.328 . S
C162 C163 1.457 . S
C162 H167 0.929 . S
C163 C162 1.457 . S
C163 C164 1.291 . S
C163 H176 0.931 . S
C164 C163 1.291 . S
C164 C165 1.373 . S
C164 H177 0.929 . S
C165 C164 1.373 . S
C165 C166 1.396 . S
C165 C172 1.403 . S
C166 C156 1.476 . S
C166 N161 1.318 . S
C166 C165 1.396 . S
H167 C162 0.929 . S
O168 Mn144 2.385 1_655 S
O168 C146 1.234 . S
O169 Mn144 2.209 1_655 S
O169 Mn145 2.215 . S
O169 C146 1.283 . S
O170 Mn144 2.094 1_655 S
O170 C148 1.240 . S
O171 Mn145 2.117 . S
O171 C148 1.264 . S
C172 C165 1.403 . S
C172 C173 1.399 . S
C172 H178 0.929 . S
C173 C153 1.449 . S
C173 C172 1.399 . S
C173 H179 0.930 1_554 S
H174 C154 0.931 . S
H175 C155 0.930 1_455 S
H176 C163 0.931 . S
H177 C164 0.929 . S
H178 C172 0.929 . S
H179 C173 0.930 1_556 S
Mn180 O185 2.095 . S
Mn180 O195 2.162 . S
Mn180 O196 2.297 . S
Mn180 O204 2.385 . S
Mn180 O205 2.209 . S
Mn180 O206 2.094 . S
Mn181 O186 2.121 . S
Mn181 N188 2.257 . S
Mn181 N197 2.282 . S
Mn181 O205 2.215 . S
Mn181 O207 2.117 . S
C182 O204 1.234 . S
C182 O205 1.283 . S
C183 O195 1.281 . S
C183 O196 1.236 . S
C184 O206 1.240 . S
C184 O207 1.264 . S
O185 Mn180 2.095 . S
O185 C194 1.250 . S
O186 Mn181 2.121 . S
O186 C194 1.258 . S
C187 N188 1.326 . S
C187 C191 1.460 . S
C187 H193 0.929 . S
N188 Mn181 2.257 . S
N188 C187 1.326 . S
N188 C192 1.362 . S
C189 C190 1.258 . S
C189 C192 1.431 . S
C189 C209 1.449 . S
C190 C189 1.258 . S
C190 C191 1.477 . S
C190 H210 0.931 . S
C191 C187 1.460 . S
C191 C190 1.477 . S
C191 H211 0.930 . S
C192 N188 1.362 . S
C192 C189 1.431 . S
C192 C202 1.476 . S
H193 C187 0.929 . S
C194 O185 1.250 . S
C194 O186 1.258 . S
O195 Mn180 2.162 . S
O195 C183 1.281 . S
O196 Mn180 2.297 . S
O196 C183 1.236 . S
N197 Mn181 2.282 . S
N197 C198 1.328 . S
N197 C202 1.318 . S
C198 N197 1.328 . S
C198 C199 1.457 . S
C198 H203 0.929 . S
C199 C198 1.457 . S
C199 C200 1.291 . S
C199 H212 0.931 . S
C200 C199 1.291 . S
C200 C201 1.373 . S
C200 H213 0.929 . S
C201 C200 1.373 . S
C201 C202 1.396 . S
C201 C208 1.403 . S
C202 C192 1.476 . S
C202 N197 1.318 . S
C202 C201 1.396 . S
H203 C198 0.929 . S
O204 Mn180 2.385 . S
O204 C182 1.234 . S
O205 Mn180 2.209 . S
O205 Mn181 2.215 . S
O205 C182 1.283 . S
O206 Mn180 2.094 . S
O206 C184 1.240 . S
O207 Mn181 2.117 . S
O207 C184 1.264 . S
C208 C201 1.403 . S
C208 C209 1.399 . S
C208 H214 0.929 . S
C209 C189 1.449 . S
C209 C208 1.399 . S
C209 H215 0.930 . S
H210 C190 0.931 . S
H211 C191 0.930 . S
H212 C199 0.931 . S
H213 C200 0.929 . S
H214 C208 0.929 . S
H215 C209 0.930 . S
Mn216 O221 2.095 . S
Mn216 O231 2.162 . S
Mn216 O232 2.297 . S
Mn216 O240 2.385 . S
Mn216 O241 2.209 . S
Mn216 O242 2.094 . S
Mn217 O222 2.121 . S
Mn217 N224 2.257 . S
Mn217 N233 2.282 . S
Mn217 O241 2.215 . S
Mn217 O243 2.117 . S
C218 O240 1.234 . S
C218 O241 1.283 . S
C219 O231 1.281 . S
C219 O232 1.236 . S
C220 O242 1.240 . S
C220 O243 1.264 . S
O221 Mn216 2.095 . S
O221 C230 1.250 . S
O222 Mn217 2.121 . S
O222 C230 1.258 . S
C223 N224 1.326 . S
C223 C227 1.460 . S
C223 H229 0.929 . S
N224 Mn217 2.257 . S
N224 C223 1.326 . S
N224 C228 1.362 . S
C225 C226 1.258 . S
C225 C228 1.431 . S
C225 C245 1.449 . S
C226 C225 1.258 . S
C226 C227 1.477 . S
C226 H246 0.931 . S
C227 C223 1.460 . S
C227 C226 1.477 . S
C227 H247 0.930 . S
C228 N224 1.362 . S
C228 C225 1.431 . S
C228 C238 1.476 . S
H229 C223 0.929 . S
C230 O221 1.250 . S
C230 O222 1.258 . S
O231 Mn216 2.162 . S
O231 C219 1.281 . S
O232 Mn216 2.297 . S
O232 C219 1.236 . S
N233 Mn217 2.282 . S
N233 C234 1.328 . S
N233 C238 1.318 . S
C234 N233 1.328 . S
C234 C235 1.457 . S
C234 H239 0.929 . S
C235 C234 1.457 . S
C235 C236 1.291 . S
C235 H248 0.931 . S
C236 C235 1.291 . S
C236 C237 1.373 . S
C236 H249 0.929 . S
C237 C236 1.373 . S
C237 C238 1.396 . S
C237 C244 1.403 . S
C238 C228 1.476 . S
C238 N233 1.318 . S
C238 C237 1.396 . S
H239 C234 0.929 . S
O240 Mn216 2.385 . S
O240 C218 1.234 . S
O241 Mn216 2.209 . S
O241 Mn217 2.215 . S
O241 C218 1.283 . S
O242 Mn216 2.094 . S
O242 C220 1.240 . S
O243 Mn217 2.117 . S
O243 C220 1.264 . S
C244 C237 1.403 . S
C244 C245 1.399 . S
C244 H250 0.929 . S
C245 C225 1.449 . S
C245 C244 1.399 . S
C245 H251 0.930 . S
H246 C226 0.931 . S
H247 C227 0.930 . S
H248 C235 0.931 . S
H249 C236 0.929 . S
H250 C244 0.929 . S
H251 C245 0.930 . S
Mn252 O257 2.095 1_455 S
Mn252 O267 2.162 . S
Mn252 O268 2.297 . S
Mn252 O276 2.385 . S
Mn252 O277 2.209 . S
Mn252 O278 2.094 1_455 S
Mn253 O258 2.121 . S
Mn253 N260 2.257 1_655 S
Mn253 N269 2.282 1_655 S
Mn253 O277 2.215 1_655 S
Mn253 O279 2.117 . S
C254 O276 1.234 . S
C254 O277 1.283 . S
C255 O267 1.281 . S
C255 O268 1.236 . S
C256 O278 1.240 . S
C256 O279 1.264 . S
O257 Mn252 2.095 1_655 S
O257 C266 1.250 . S
O258 Mn253 2.121 . S
O258 C266 1.258 . S
C259 N260 1.337 . S
C259 C263 1.468 1_556 S
C259 H265 0.911 1_455 S
N260 Mn253 2.257 1_455 S
N260 C259 1.337 . S
N260 C264 1.362 . S
C261 C262 1.258 . S
C261 C264 1.431 1_554 S
C261 C281 1.449 . S
C262 C261 1.258 . S
C262 C263 1.477 . S
C262 H282 0.931 . S
C263 C259 1.468 1_554 S
C263 C262 1.477 . S
C263 H283 0.930 . S
C264 N260 1.362 . S
C264 C261 1.431 1_556 S
C264 C274 1.476 . S
H265 C259 0.911 1_655 S
C266 O257 1.250 . S
C266 O258 1.258 . S
O267 Mn252 2.162 . S
O267 C255 1.281 . S
O268 Mn252 2.297 . S
O268 C255 1.236 . S
N269 Mn253 2.282 1_455 S
N269 C270 1.328 . S
N269 C274 1.318 . S
C270 N269 1.328 . S
C270 C271 1.457 . S
C270 H275 0.929 . S
C271 C270 1.457 . S
C271 C272 1.291 . S
C271 H284 0.931 . S
C272 C271 1.291 . S
C272 C273 1.373 . S
C272 H285 0.929 . S
C273 C272 1.373 . S
C273 C274 1.396 . S
C273 C280 1.403 . S
C274 C264 1.476 . S
C274 N269 1.318 . S
C274 C273 1.396 . S
H275 C270 0.929 . S
O276 Mn252 2.385 . S
O276 C254 1.234 . S
O277 Mn252 2.209 . S
O277 Mn253 2.215 1_455 S
O277 C254 1.283 . S
O278 Mn252 2.094 1_655 S
O278 C256 1.240 . S
O279 Mn253 2.117 . S
O279 C256 1.264 . S
C280 C273 1.403 . S
C280 C281 1.399 1_556 S
C280 H286 0.929 . S
C281 C261 1.449 . S
C281 C280 1.399 1_554 S
C281 H287 0.930 . S
H282 C262 0.931 . S
H283 C263 0.930 . S
H284 C271 0.931 . S
H285 C272 0.929 . S
H286 C280 0.929 . S
H287 C281 0.930 . S
Mn288 O293 2.095 . S
Mn288 O303 2.162 . S
Mn288 O304 2.297 . S
Mn288 O312 2.385 1_545 S
Mn288 O313 2.209 1_545 S
Mn288 O314 2.094 1_545 S
Mn289 O294 2.121 1_565 S
Mn289 N296 2.257 . S
Mn289 N305 2.282 . S
Mn289 O313 2.215 . S
Mn289 O315 2.117 . S
C290 O312 1.234 . S
C290 O313 1.283 . S
C291 O303 1.281 . S
C291 O304 1.236 . S
C292 O314 1.240 . S
C292 O315 1.264 . S
O293 Mn288 2.095 . S
O293 C302 1.250 . S
O294 Mn289 2.121 1_545 S
O294 C302 1.258 . S
C295 N296 1.326 . S
C295 C299 1.460 . S
C295 H301 0.929 1_565 S
N296 Mn289 2.257 . S
N296 C295 1.326 . S
N296 C300 1.362 . S
C297 C298 1.258 . S
C297 C300 1.431 . S
C297 C317 1.449 . S
C298 C297 1.258 . S
C298 C299 1.477 . S
C298 H318 0.931 . S
C299 C295 1.460 . S
C299 C298 1.477 . S
C299 H319 0.930 . S
C300 N296 1.362 . S
C300 C297 1.431 . S
C300 C310 1.476 . S
H301 C295 0.929 1_545 S
C302 O293 1.250 . S
C302 O294 1.258 . S
O303 Mn288 2.162 . S
O303 C291 1.281 . S
O304 Mn288 2.297 . S
O304 C291 1.236 . S
N305 Mn289 2.282 . S
N305 C306 1.328 . S
N305 C310 1.318 . S
C306 N305 1.328 . S
C306 C307 1.457 . S
C306 H311 0.929 . S
C307 C306 1.457 . S
C307 C308 1.291 . S
C307 H320 0.931 . S
C308 C307 1.291 . S
C308 C309 1.373 . S
C308 H321 0.929 . S
C309 C308 1.373 . S
C309 C310 1.396 . S
C309 C316 1.403 . S
C310 C300 1.476 . S
C310 N305 1.318 . S
C310 C309 1.396 . S
H311 C306 0.929 . S
O312 Mn288 2.385 1_565 S
O312 C290 1.234 . S
O313 Mn288 2.209 1_565 S
O313 Mn289 2.215 . S
O313 C290 1.283 . S
O314 Mn288 2.094 1_565 S
O314 C292 1.240 . S
O315 Mn289 2.117 . S
O315 C292 1.264 . S
C316 C309 1.403 . S
C316 C317 1.399 . S
C316 H322 0.929 . S
C317 C297 1.449 . S
C317 C316 1.399 . S
C317 H323 0.930 . S
H318 C298 0.931 . S
H319 C299 0.930 . S
H320 C307 0.931 . S
H321 C308 0.929 . S
H322 C316 0.929 . S
H323 C317 0.930 . S
Mn324 O329 2.095 . S
Mn324 O339 2.162 . S
Mn324 O340 2.297 . S
Mn324 O348 2.385 . S
Mn324 O349 2.209 . S
Mn324 O350 2.094 . S
Mn325 O330 2.121 . S
Mn325 N332 2.257 . S
Mn325 N341 2.282 . S
Mn325 O349 2.215 . S
Mn325 O351 2.117 . S
C326 O348 1.234 . S
C326 O349 1.283 . S
C327 O339 1.281 . S
C327 O340 1.236 . S
C328 O350 1.240 . S
C328 O351 1.264 . S
O329 Mn324 2.095 . S
O329 C338 1.250 . S
O330 Mn325 2.121 . S
O330 C338 1.258 . S
C331 N332 1.326 . S
C331 C335 1.460 . S
C331 H337 0.929 . S
N332 Mn325 2.257 . S
N332 C331 1.326 . S
N332 C336 1.362 . S
C333 C334 1.258 . S
C333 C336 1.431 . S
C333 C353 1.449 . S
C334 C333 1.258 . S
C334 C335 1.477 . S
C334 H354 0.931 . S
C335 C331 1.460 . S
C335 C334 1.477 . S
C335 H355 0.930 . S
C336 N332 1.362 . S
C336 C333 1.431 . S
C336 C346 1.476 . S
H337 C331 0.929 . S
C338 O329 1.250 . S
C338 O330 1.258 . S
O339 Mn324 2.162 . S
O339 C327 1.281 . S
O340 Mn324 2.297 . S
O340 C327 1.236 . S
N341 Mn325 2.282 . S
N341 C342 1.328 . S
N341 C346 1.318 . S
C342 N341 1.328 . S
C342 C343 1.457 . S
C342 H347 0.929 . S
C343 C342 1.457 . S
C343 C344 1.291 . S
C343 H356 0.931 . S
C344 C343 1.291 . S
C344 C345 1.373 . S
C344 H357 0.929 . S
C345 C344 1.373 . S
C345 C346 1.396 . S
C345 C352 1.403 . S
C346 C336 1.476 . S
C346 N341 1.318 . S
C346 C345 1.396 . S
H347 C342 0.929 . S
O348 Mn324 2.385 . S
O348 C326 1.234 . S
O349 Mn324 2.209 . S
O349 Mn325 2.215 . S
O349 C326 1.283 . S
O350 Mn324 2.094 . S
O350 C328 1.240 . S
O351 Mn325 2.117 . S
O351 C328 1.264 . S
C352 C345 1.403 . S
C352 C353 1.399 . S
C352 H358 0.929 . S
C353 C333 1.449 . S
C353 C352 1.399 . S
C353 H359 0.930 . S
H354 C334 0.931 . S
H355 C335 0.930 . S
H356 C343 0.931 . S
H357 C344 0.929 . S
H358 C352 0.929 . S
H359 C353 0.930 . S
Mn360 O365 2.095 . S
Mn360 O375 2.162 . S
Mn360 O376 2.297 . S
Mn360 O384 2.385 1_545 S
Mn360 O385 2.209 1_545 S
Mn360 O386 2.094 1_545 S
Mn361 O366 2.121 1_565 S
Mn361 N368 2.257 . S
Mn361 N377 2.282 . S
Mn361 O385 2.215 . S
Mn361 O387 2.117 . S
C362 O384 1.234 . S
C362 O385 1.283 . S
C363 O375 1.281 . S
C363 O376 1.236 . S
C364 O386 1.240 . S
C364 O387 1.264 . S
O365 Mn360 2.095 . S
O365 C374 1.250 . S
O366 Mn361 2.121 1_545 S
O366 C374 1.258 . S
C367 N368 1.326 . S
C367 C371 1.460 . S
C367 H373 0.915 1_565 S
N368 Mn361 2.257 . S
N368 C367 1.326 . S
N368 C372 1.362 . S
C369 C370 1.258 . S
C369 C372 1.431 . S
C369 C389 1.449 . S
C370 C369 1.258 . S
C370 C371 1.477 . S
C370 H390 0.931 . S
C371 C367 1.460 . S
C371 C370 1.477 . S
C371 H391 0.930 . S
C372 N368 1.362 . S
C372 C369 1.431 . S
C372 C382 1.476 . S
H373 C367 0.915 1_545 S
C374 O365 1.250 . S
C374 O366 1.258 . S
O375 Mn360 2.162 . S
O375 C363 1.281 . S
O376 Mn360 2.297 . S
O376 C363 1.236 . S
N377 Mn361 2.282 . S
N377 C378 1.328 . S
N377 C382 1.318 . S
C378 N377 1.328 . S
C378 C379 1.457 . S
C378 H383 0.929 . S
C379 C378 1.457 . S
C379 C380 1.291 . S
C379 H392 0.931 . S
C380 C379 1.291 . S
C380 C381 1.373 . S
C380 H393 0.929 . S
C381 C380 1.373 . S
C381 C382 1.396 . S
C381 C388 1.403 . S
C382 C372 1.476 . S
C382 N377 1.318 . S
C382 C381 1.396 . S
H383 C378 0.929 . S
O384 Mn360 2.385 1_565 S
O384 C362 1.234 . S
O385 Mn360 2.209 1_565 S
O385 Mn361 2.215 . S
O385 C362 1.283 . S
O386 Mn360 2.094 1_565 S
O386 C364 1.240 . S
O387 Mn361 2.117 . S
O387 C364 1.264 . S
C388 C381 1.403 . S
C388 C389 1.399 . S
C388 H394 0.929 . S
C389 C369 1.449 . S
C389 C388 1.399 . S
C389 H395 0.930 . S
H390 C370 0.931 . S
H391 C371 0.930 . S
H392 C379 0.931 . S
H393 C380 0.929 . S
H394 C388 0.929 . S
H395 C389 0.930 . S
Mn396 O401 2.095 1_554 S
Mn396 O411 2.162 . S
Mn396 O412 2.297 . S
Mn396 O420 2.385 . S
Mn396 O421 2.209 . S
Mn396 O422 2.094 1_554 S
Mn397 O402 2.121 . S
Mn397 N404 2.257 . S
Mn397 N413 2.282 . S
Mn397 O421 2.215 1_556 S
Mn397 O423 2.117 . S
C398 O420 1.234 . S
C398 O421 1.283 . S
C399 O411 1.281 . S
C399 O412 1.236 . S
C400 O422 1.240 . S
C400 O423 1.264 . S
O401 Mn396 2.095 1_556 S
O401 C410 1.250 . S
O402 Mn397 2.121 . S
O402 C410 1.258 . S
C403 N404 1.326 . S
C403 C407 1.460 . S
C403 H409 0.929 . S
N404 Mn397 2.257 . S
N404 C403 1.326 . S
N404 C408 1.362 . S
C405 C406 1.258 . S
C405 C408 1.431 . S
C405 C425 1.449 . S
C406 C405 1.258 . S
C406 C407 1.477 . S
C406 H426 0.931 . S
C407 C403 1.460 . S
C407 C406 1.477 . S
C407 H427 0.930 . S
C408 N404 1.362 . S
C408 C405 1.431 . S
C408 C418 1.476 . S
H409 C403 0.929 . S
C410 O401 1.250 . S
C410 O402 1.258 . S
O411 Mn396 2.162 . S
O411 C399 1.281 . S
O412 Mn396 2.297 . S
O412 C399 1.236 . S
N413 Mn397 2.282 . S
N413 C414 1.328 . S
N413 C418 1.318 . S
C414 N413 1.328 . S
C414 C415 1.457 . S
C414 H419 0.929 . S
C415 C414 1.457 . S
C415 C416 1.291 . S
C415 H428 0.931 . S
C416 C415 1.291 . S
C416 C417 1.373 . S
C416 H429 0.929 . S
C417 C416 1.373 . S
C417 C418 1.396 . S
C417 C424 1.403 . S
C418 C408 1.476 . S
C418 N413 1.318 . S
C418 C417 1.396 . S
H419 C414 0.929 . S
O420 Mn396 2.385 . S
O420 C398 1.234 . S
O421 Mn396 2.209 . S
O421 Mn397 2.215 1_554 S
O421 C398 1.283 . S
O422 Mn396 2.094 1_556 S
O422 C400 1.240 . S
O423 Mn397 2.117 . S
O423 C400 1.264 . S
C424 C417 1.403 . S
C424 C425 1.399 . S
C424 H430 0.929 . S
C425 C405 1.449 . S
C425 C424 1.399 . S
C425 H431 0.930 . S
H426 C406 0.931 . S
H427 C407 0.930 . S
H428 C415 0.931 . S
H429 C416 0.929 . S
H430 C424 0.929 . S
H431 C425 0.930 . S
Mn432 O437 2.095 . S
Mn432 O447 2.162 . S
Mn432 O448 2.297 . S
Mn432 O456 2.385 1_554 S
Mn432 O457 2.209 1_554 S
Mn432 O458 2.094 1_554 S
Mn433 O438 2.112 1_556 S
Mn433 N440 2.257 . S
Mn433 N449 2.282 . S
Mn433 O457 2.215 . S
Mn433 O459 2.117 . S
C434 O456 1.234 . S
C434 O457 1.283 . S
C435 O447 1.281 . S
C435 O448 1.236 . S
C436 O458 1.240 . S
C436 O459 1.264 . S
O437 Mn432 2.095 . S
O437 C446 1.250 . S
O438 Mn433 2.112 1_554 S
O438 C446 1.266 . S
C439 N440 1.326 . S
C439 C443 1.460 . S
C439 H445 0.929 . S
N440 Mn433 2.257 . S
N440 C439 1.326 . S
N440 C444 1.362 . S
C441 C442 1.258 . S
C441 C444 1.431 . S
C441 C461 1.449 . S
C442 C441 1.258 . S
C442 C443 1.477 . S
C442 H462 0.931 . S
C443 C439 1.460 . S
C443 C442 1.477 . S
C443 H463 0.930 . S
C444 N440 1.362 . S
C444 C441 1.431 . S
C444 C454 1.476 . S
H445 C439 0.929 . S
C446 O437 1.250 . S
C446 O438 1.266 . S
O447 Mn432 2.162 . S
O447 C435 1.281 . S
O448 Mn432 2.297 . S
O448 C435 1.236 . S
N449 Mn433 2.282 . S
N449 C450 1.328 . S
N449 C454 1.318 . S
C450 N449 1.328 . S
C450 C451 1.457 . S
C450 H455 0.929 . S
C451 C450 1.457 . S
C451 C452 1.291 . S
C451 H464 0.931 . S
C452 C451 1.291 . S
C452 C453 1.373 . S
C452 H465 0.929 . S
C453 C452 1.373 . S
C453 C454 1.396 . S
C453 C460 1.403 . S
C454 C444 1.476 . S
C454 N449 1.318 . S
C454 C453 1.396 . S
H455 C450 0.929 . S
O456 Mn432 2.385 1_556 S
O456 C434 1.234 . S
O457 Mn432 2.209 1_556 S
O457 Mn433 2.215 . S
O457 C434 1.283 . S
O458 Mn432 2.094 1_556 S
O458 C436 1.240 . S
O459 Mn433 2.117 . S
O459 C436 1.264 . S
C460 C453 1.403 . S
C460 C461 1.399 . S
C460 H466 0.929 . S
C461 C441 1.449 . S
C461 C460 1.399 . S
C461 H467 0.930 . S
H462 C442 0.931 . S
H463 C443 0.930 . S
H464 C451 0.931 . S
H465 C452 0.929 . S
H466 C460 0.929 . S
H467 C461 0.930 . S
Mn468 O473 2.095 . S
Mn468 O483 2.162 . S
Mn468 O484 2.297 . S
Mn468 O492 2.385 1_554 S
Mn468 O493 2.209 1_554 S
Mn468 O494 2.094 1_554 S
Mn469 O474 2.121 1_556 S
Mn469 N476 2.257 . S
Mn469 N485 2.282 . S
Mn469 O493 2.215 . S
Mn469 O495 2.117 . S
C470 O492 1.234 . S
C470 O493 1.283 . S
C471 O483 1.281 . S
C471 O484 1.236 . S
C472 O494 1.240 . S
C472 O495 1.264 . S
O473 Mn468 2.095 . S
O473 C482 1.250 . S
O474 Mn469 2.121 1_554 S
O474 C482 1.258 . S
C475 N476 1.326 . S
C475 C479 1.460 . S
C475 H481 0.929 1_556 S
N476 Mn469 2.257 . S
N476 C475 1.326 . S
N476 C480 1.362 . S
C477 C478 1.258 . S
C477 C480 1.431 . S
C477 C497 1.449 . S
C478 C477 1.258 . S
C478 C479 1.477 . S
C478 H498 0.931 1_545 S
C479 C475 1.460 . S
C479 C478 1.477 . S
C479 H499 0.912 1_546 S
C480 N476 1.362 . S
C480 C477 1.431 . S
C480 C490 1.476 . S
H481 C475 0.929 1_554 S
C482 O473 1.250 . S
C482 O474 1.258 . S
O483 Mn468 2.162 . S
O483 C471 1.281 . S
O484 Mn468 2.297 . S
O484 C471 1.236 . S
N485 Mn469 2.282 . S
N485 C486 1.328 . S
N485 C490 1.318 . S
C486 N485 1.328 . S
C486 C487 1.457 . S
C486 H491 0.929 . S
C487 C486 1.457 . S
C487 C488 1.291 . S
C487 H500 0.931 . S
C488 C487 1.291 . S
C488 C489 1.373 . S
C488 H501 0.929 . S
C489 C488 1.373 . S
C489 C490 1.396 . S
C489 C496 1.403 . S
C490 C480 1.476 . S
C490 N485 1.318 . S
C490 C489 1.396 . S
H491 C486 0.929 . S
O492 Mn468 2.385 1_556 S
O492 C470 1.234 . S
O493 Mn468 2.209 1_556 S
O493 Mn469 2.215 . S
O493 C470 1.283 . S
O494 Mn468 2.094 1_556 S
O494 C472 1.240 . S
O495 Mn469 2.117 . S
O495 C472 1.264 . S
C496 C489 1.403 . S
C496 C497 1.399 . S
C496 H502 0.929 . S
C497 C477 1.449 . S
C497 C496 1.399 . S
C497 H503 0.930 1_545 S
H498 C478 0.931 1_565 S
H499 C479 0.912 1_564 S
H500 C487 0.931 . S
H501 C488 0.929 . S
H502 C496 0.929 . S
H503 C497 0.930 1_565 S
Mn504 O509 2.095 . S
Mn504 O519 2.162 . S
Mn504 O520 2.297 . S
Mn504 O528 2.385 . S
Mn504 O529 2.209 . S
Mn504 O530 2.094 . S
Mn505 O510 2.121 . S
Mn505 N512 2.257 . S
Mn505 N521 2.282 . S
Mn505 O529 2.215 . S
Mn505 O531 2.117 . S
C506 O528 1.234 . S
C506 O529 1.283 . S
C507 O519 1.281 . S
C507 O520 1.236 . S
C508 O530 1.240 . S
C508 O531 1.264 . S
O509 Mn504 2.095 . S
O509 C518 1.250 . S
O510 Mn505 2.121 . S
O510 C518 1.258 . S
C511 N512 1.326 . S
C511 C515 1.460 1_455 S
C511 H517 0.929 . S
N512 Mn505 2.257 . S
N512 C511 1.326 . S
N512 C516 1.362 . S
C513 C514 1.258 1_455 S
C513 C516 1.431 . S
C513 C533 1.449 . S
C514 C513 1.258 1_655 S
C514 C515 1.477 . S
C514 H534 0.931 . S
C515 C511 1.460 1_655 S
C515 C514 1.477 . S
C515 H535 0.930 . S
C516 N512 1.362 . S
C516 C513 1.431 . S
C516 C526 1.476 . S
H517 C511 0.929 . S
C518 O509 1.250 . S
C518 O510 1.258 . S
O519 Mn504 2.162 . S
O519 C507 1.281 . S
O520 Mn504 2.297 . S
O520 C507 1.236 . S
N521 Mn505 2.282 . S
N521 C522 1.328 . S
N521 C526 1.318 . S
C522 N521 1.328 . S
C522 C523 1.457 . S
C522 H527 0.929 . S
C523 C522 1.457 . S
C523 C524 1.291 . S
C523 H536 0.931 . S
C524 C523 1.291 . S
C524 C525 1.373 . S
C524 H537 0.929 . S
C525 C524 1.373 . S
C525 C526 1.396 . S
C525 C532 1.403 . S
C526 C516 1.476 . S
C526 N521 1.318 . S
C526 C525 1.396 . S
H527 C522 0.929 . S
O528 Mn504 2.385 . S
O528 C506 1.234 . S
O529 Mn504 2.209 . S
O529 Mn505 2.215 . S
O529 C506 1.283 . S
O530 Mn504 2.094 . S
O530 C508 1.240 . S
O531 Mn505 2.117 . S
O531 C508 1.264 . S
C532 C525 1.403 . S
C532 C533 1.399 . S
C532 H538 0.929 . S
C533 C513 1.449 . S
C533 C532 1.399 . S
C533 H539 0.930 1_455 S
H534 C514 0.931 . S
H535 C515 0.930 . S
H536 C523 0.931 . S
H537 C524 0.929 . S
H538 C532 0.929 . S
H539 C533 0.930 1_655 S
Mn540 O545 2.095 . S
Mn540 O555 2.162 . S
Mn540 O556 2.297 . S
Mn540 O564 2.385 . S
Mn540 O565 2.209 . S
Mn540 O566 2.094 . S
Mn541 O546 2.121 . S
Mn541 N548 2.257 . S
Mn541 N557 2.282 . S
Mn541 O565 2.215 . S
Mn541 O567 2.117 . S
C542 O564 1.234 . S
C542 O565 1.283 . S
C543 O555 1.281 . S
C543 O556 1.236 . S
C544 O566 1.240 . S
C544 O567 1.264 . S
O545 Mn540 2.095 . S
O545 C554 1.250 . S
O546 Mn541 2.121 . S
O546 C554 1.258 . S
C547 N548 1.326 . S
C547 C551 1.460 . S
C547 H553 0.929 . S
N548 Mn541 2.257 . S
N548 C547 1.326 . S
N548 C552 1.362 . S
C549 C550 1.258 . S
C549 C552 1.431 . S
C549 C569 1.449 . S
C550 C549 1.258 . S
C550 C551 1.477 . S
C550 H570 0.931 . S
C551 C547 1.460 . S
C551 C550 1.477 . S
C551 H571 0.930 . S
C552 N548 1.362 . S
C552 C549 1.431 . S
C552 C562 1.476 . S
H553 C547 0.929 . S
C554 O545 1.250 . S
C554 O546 1.258 . S
O555 Mn540 2.162 . S
O555 C543 1.281 . S
O556 Mn540 2.297 . S
O556 C543 1.236 . S
N557 Mn541 2.282 . S
N557 C558 1.328 . S
N557 C562 1.318 . S
C558 N557 1.328 . S
C558 C559 1.457 . S
C558 H563 0.929 . S
C559 C558 1.457 . S
C559 C560 1.291 . S
C559 H572 0.931 . S
C560 C559 1.291 . S
C560 C561 1.373 . S
C560 H573 0.929 . S
C561 C560 1.373 . S
C561 C562 1.396 . S
C561 C568 1.403 . S
C562 C552 1.476 . S
C562 N557 1.318 . S
C562 C561 1.396 . S
H563 C558 0.929 . S
O564 Mn540 2.385 . S
O564 C542 1.234 . S
O565 Mn540 2.209 . S
O565 Mn541 2.215 . S
O565 C542 1.283 . S
O566 Mn540 2.094 . S
O566 C544 1.240 . S
O567 Mn541 2.117 . S
O567 C544 1.264 . S
C568 C561 1.403 . S
C568 C569 1.399 . S
C568 H574 0.929 . S
C569 C549 1.449 . S
C569 C568 1.399 . S
C569 H575 0.930 . S
H570 C550 0.931 . S
H571 C551 0.930 . S
H572 C559 0.931 . S
H573 C560 0.929 . S
H574 C568 0.929 . S
H575 C569 0.930 . S
Mn576 O581 2.095 1_545 S
Mn576 O591 2.162 . S
Mn576 O592 2.297 . S
Mn576 O600 2.385 . S
Mn576 O601 2.209 . S
Mn576 O602 2.094 1_545 S
Mn577 O582 2.121 . S
Mn577 N584 2.257 1_565 S
Mn577 N593 2.282 1_565 S
Mn577 O601 2.215 1_565 S
Mn577 O603 2.117 . S
C578 O600 1.234 . S
C578 O601 1.283 . S
C579 O591 1.281 . S
C579 O592 1.236 . S
C580 O602 1.240 . S
C580 O603 1.264 . S
O581 Mn576 2.095 1_565 S
O581 C590 1.250 . S
O582 Mn577 2.121 . S
O582 C590 1.258 . S
C583 N584 1.326 1_565 S
C583 C587 1.460 1_665 S
C583 H589 0.929 . S
N584 Mn577 2.257 1_545 S
N584 C583 1.326 1_545 S
N584 C588 1.362 . S
C585 C586 1.258 . S
C585 C588 1.431 1_455 S
C585 C605 1.449 . S
C586 C585 1.258 . S
C586 C587 1.477 . S
C586 H606 0.931 . S
C587 C583 1.460 1_445 S
C587 C586 1.477 . S
C587 H607 0.918 1_545 S
C588 N584 1.362 . S
C588 C585 1.431 1_655 S
C588 C598 1.476 . S
H589 C583 0.929 . S
C590 O581 1.250 . S
C590 O582 1.258 . S
O591 Mn576 2.162 . S
O591 C579 1.281 . S
O592 Mn576 2.297 . S
O592 C579 1.236 . S
N593 Mn577 2.282 1_545 S
N593 C594 1.328 . S
N593 C598 1.318 . S
C594 N593 1.328 . S
C594 C595 1.457 . S
C594 H599 0.929 . S
C595 C594 1.457 . S
C595 C596 1.291 . S
C595 H608 0.931 . S
C596 C595 1.291 . S
C596 C597 1.373 . S
C596 H609 0.929 . S
C597 C596 1.373 . S
C597 C598 1.396 . S
C597 C604 1.403 . S
C598 C588 1.476 . S
C598 N593 1.318 . S
C598 C597 1.396 . S
H599 C594 0.929 . S
O600 Mn576 2.385 . S
O600 C578 1.234 . S
O601 Mn576 2.209 . S
O601 Mn577 2.215 1_545 S
O601 C578 1.283 . S
O602 Mn576 2.094 1_565 S
O602 C580 1.240 . S
O603 Mn577 2.117 . S
O603 C580 1.264 . S
C604 C597 1.403 . S
C604 C605 1.399 1_655 S
C604 H610 0.929 . S
C605 C585 1.449 . S
C605 C604 1.399 1_455 S
C605 H611 0.930 . S
H606 C586 0.931 . S
H607 C587 0.918 1_565 S
H608 C595 0.931 . S
H609 C596 0.929 . S
H610 C604 0.929 . S
H611 C605 0.930 . S
Mn612 O617 2.095 . S
Mn612 O627 2.162 . S
Mn612 O628 2.297 . S
Mn612 O636 2.385 . S
Mn612 O637 2.209 . S
Mn612 O638 2.094 . S
Mn613 O618 2.121 . S
Mn613 N620 2.257 . S
Mn613 N629 2.282 . S
Mn613 O637 2.215 . S
Mn613 O639 2.117 . S
C614 O636 1.234 . S
C614 O637 1.283 . S
C615 O627 1.281 . S
C615 O628 1.236 . S
C616 O638 1.240 . S
C616 O639 1.264 . S
O617 Mn612 2.095 . S
O617 C626 1.250 . S
O618 Mn613 2.121 . S
O618 C626 1.258 . S
C619 N620 1.326 . S
C619 C623 1.460 . S
C619 H625 0.929 . S
N620 Mn613 2.257 . S
N620 C619 1.326 . S
N620 C624 1.362 . S
C621 C622 1.258 . S
C621 C624 1.431 . S
C621 C641 1.449 . S
C622 C621 1.258 . S
C622 C623 1.477 . S
C622 H642 0.931 . S
C623 C619 1.460 . S
C623 C622 1.477 . S
C623 H643 0.930 . S
C624 N620 1.362 . S
C624 C621 1.431 . S
C624 C634 1.476 . S
H625 C619 0.929 . S
C626 O617 1.250 . S
C626 O618 1.258 . S
O627 Mn612 2.162 . S
O627 C615 1.281 . S
O628 Mn612 2.297 . S
O628 C615 1.236 . S
N629 Mn613 2.282 . S
N629 C630 1.328 . S
N629 C634 1.318 . S
C630 N629 1.328 . S
C630 C631 1.457 . S
C630 H635 0.929 . S
C631 C630 1.457 . S
C631 C632 1.291 . S
C631 H644 0.931 . S
C632 C631 1.291 . S
C632 C633 1.373 . S
C632 H645 0.929 . S
C633 C632 1.373 . S
C633 C634 1.396 . S
C633 C640 1.403 . S
C634 C624 1.476 . S
C634 N629 1.318 . S
C634 C633 1.396 . S
H635 C630 0.929 . S
O636 Mn612 2.385 . S
O636 C614 1.234 . S
O637 Mn612 2.209 . S
O637 Mn613 2.215 . S
O637 C614 1.283 . S
O638 Mn612 2.094 . S
O638 C616 1.240 . S
O639 Mn613 2.117 . S
O639 C616 1.264 . S
C640 C633 1.403 . S
C640 C641 1.399 . S
C640 H646 0.929 . S
C641 C621 1.449 . S
C641 C640 1.399 . S
C641 H647 0.930 . S
H642 C622 0.931 . S
H643 C623 0.930 . S
H644 C631 0.931 . S
H645 C632 0.929 . S
H646 C640 0.929 . S
H647 C641 0.930 . S
Mn648 O653 2.095 . S
Mn648 O663 2.162 . S
Mn648 O664 2.297 . S
Mn648 O672 2.385 . S
Mn648 O673 2.209 . S
Mn648 O674 2.094 . S
Mn649 O654 2.121 . S
Mn649 N656 2.257 . S
Mn649 N665 2.282 . S
Mn649 O673 2.215 . S
Mn649 O675 2.117 . S
C650 O672 1.234 . S
C650 O673 1.283 . S
C651 O663 1.281 . S
C651 O664 1.236 . S
C652 O674 1.240 . S
C652 O675 1.264 . S
O653 Mn648 2.095 . S
O653 C662 1.250 . S
O654 Mn649 2.121 . S
O654 C662 1.258 . S
C655 N656 1.326 . S
C655 C659 1.460 . S
C655 H661 0.929 . S
N656 Mn649 2.257 . S
N656 C655 1.326 . S
N656 C660 1.362 . S
C657 C658 1.258 . S
C657 C660 1.431 . S
C657 C677 1.449 . S
C658 C657 1.258 . S
C658 C659 1.477 . S
C658 H678 0.931 . S
C659 C655 1.460 . S
C659 C658 1.477 . S
C659 H679 0.930 . S
C660 N656 1.362 . S
C660 C657 1.431 . S
C660 C670 1.476 . S
H661 C655 0.929 . S
C662 O653 1.250 . S
C662 O654 1.258 . S
O663 Mn648 2.162 . S
O663 C651 1.281 . S
O664 Mn648 2.297 . S
O664 C651 1.236 . S
N665 Mn649 2.282 . S
N665 C666 1.328 . S
N665 C670 1.318 . S
C666 N665 1.328 . S
C666 C667 1.457 . S
C666 H671 0.929 . S
C667 C666 1.457 . S
C667 C668 1.291 . S
C667 H680 0.931 . S
C668 C667 1.291 . S
C668 C669 1.373 . S
C668 H681 0.929 . S
C669 C668 1.373 . S
C669 C670 1.396 . S
C669 C676 1.403 . S
C670 C660 1.476 . S
C670 N665 1.318 . S
C670 C669 1.396 . S
H671 C666 0.929 . S
O672 Mn648 2.385 . S
O672 C650 1.234 . S
O673 Mn648 2.209 . S
O673 Mn649 2.215 . S
O673 C650 1.283 . S
O674 Mn648 2.094 . S
O674 C652 1.240 . S
O675 Mn649 2.117 . S
O675 C652 1.264 . S
C676 C669 1.403 . S
C676 C677 1.399 . S
C676 H682 0.929 . S
C677 C657 1.449 . S
C677 C676 1.399 . S
C677 H683 0.930 . S
H678 C658 0.931 . S
H679 C659 0.930 . S
H680 C667 0.931 . S
H681 C668 0.929 . S
H682 C676 0.929 . S
H683 C677 0.930 . S
Mn684 O689 2.095 . S
Mn684 O699 2.162 1_545 S
Mn684 O700 2.297 1_545 S
Mn684 O708 2.385 1_545 S
Mn684 O709 2.209 1_545 S
Mn684 O710 2.094 . S
Mn685 O690 2.121 . S
Mn685 N692 2.257 . S
Mn685 N701 2.282 1_545 S
Mn685 O709 2.215 1_545 S
Mn685 O711 2.117 . S
C686 O708 1.234 . S
C686 O709 1.283 . S
C687 O699 1.281 . S
C687 O700 1.236 . S
C688 O710 1.240 . S
C688 O711 1.264 . S
O689 Mn684 2.095 . S
O689 C698 1.250 . S
O690 Mn685 2.121 . S
O690 C698 1.258 . S
C691 N692 1.326 . S
C691 C695 1.460 . S
C691 H697 0.929 . S
N692 Mn685 2.257 . S
N692 C691 1.326 . S
N692 C696 1.362 1_545 S
C693 C694 1.258 . S
C693 C696 1.431 . S
C693 C713 1.449 . S
C694 C693 1.258 . S
C694 C695 1.477 1_565 S
C694 H714 0.931 . S
C695 C691 1.460 . S
C695 C694 1.477 1_545 S
C695 H715 0.930 . S
C696 N692 1.362 1_565 S
C696 C693 1.431 . S
C696 C706 1.476 . S
H697 C691 0.929 . S
C698 O689 1.250 . S
C698 O690 1.258 . S
O699 Mn684 2.162 1_565 S
O699 C687 1.281 . S
O700 Mn684 2.297 1_565 S
O700 C687 1.236 . S
N701 Mn685 2.282 1_565 S
N701 C702 1.328 . S
N701 C706 1.318 . S
C702 N701 1.328 . S
C702 C703 1.457 . S
C702 H707 0.929 . S
C703 C702 1.457 . S
C703 C704 1.291 . S
C703 H716 0.931 . S
C704 C703 1.291 . S
C704 C705 1.373 . S
C704 H717 0.929 . S
C705 C704 1.373 . S
C705 C706 1.396 . S
C705 C712 1.403 . S
C706 C696 1.476 . S
C706 N701 1.318 . S
C706 C705 1.396 . S
H707 C702 0.929 . S
O708 Mn684 2.385 1_565 S
O708 C686 1.234 . S
O709 Mn684 2.209 1_565 S
O709 Mn685 2.215 1_565 S
O709 C686 1.283 . S
O710 Mn684 2.094 . S
O710 C688 1.240 . S
O711 Mn685 2.117 . S
O711 C688 1.264 . S
C712 C705 1.403 . S
C712 C713 1.399 . S
C712 H718 0.929 . S
C713 C693 1.449 . S
C713 C712 1.399 . S
C713 H719 0.930 . S
H714 C694 0.931 . S
H715 C695 0.930 . S
H716 C703 0.931 . S
H717 C704 0.929 . S
H718 C712 0.929 . S
H719 C713 0.930 . S
Mn720 O725 2.095 1_554 S
Mn720 O735 2.162 . S
Mn720 O736 2.297 . S
Mn720 O744 2.385 . S
Mn720 O745 2.209 . S
Mn720 O746 2.094 1_554 S
Mn721 O726 2.121 . S
Mn721 N728 2.257 . S
Mn721 N737 2.282 . S
Mn721 O745 2.215 1_556 S
Mn721 O747 2.117 . S
C722 O744 1.234 . S
C722 O745 1.283 . S
C723 O735 1.281 . S
C723 O736 1.236 . S
C724 O746 1.240 . S
C724 O747 1.264 . S
O725 Mn720 2.095 1_556 S
O725 C734 1.250 . S
O726 Mn721 2.121 . S
O726 C734 1.258 . S
C727 N728 1.326 . S
C727 C731 1.460 . S
C727 H733 0.929 . S
N728 Mn721 2.257 . S
N728 C727 1.326 . S
N728 C732 1.362 . S
C729 C730 1.258 . S
C729 C732 1.431 . S
C729 C749 1.449 . S
C730 C729 1.258 . S
C730 C731 1.477 . S
C730 H750 0.931 . S
C731 C727 1.460 . S
C731 C730 1.477 . S
C731 H751 0.930 . S
C732 N728 1.362 . S
C732 C729 1.431 . S
C732 C742 1.476 . S
H733 C727 0.929 . S
C734 O725 1.250 . S
C734 O726 1.258 . S
O735 Mn720 2.162 . S
O735 C723 1.281 . S
O736 Mn720 2.297 . S
O736 C723 1.236 . S
N737 Mn721 2.282 . S
N737 C738 1.328 . S
N737 C742 1.318 . S
C738 N737 1.328 . S
C738 C739 1.457 . S
C738 H743 0.929 . S
C739 C738 1.457 . S
C739 C740 1.291 . S
C739 H752 0.931 . S
C740 C739 1.291 . S
C740 C741 1.373 . S
C740 H753 0.929 . S
C741 C740 1.373 . S
C741 C742 1.396 . S
C741 C748 1.403 . S
C742 C732 1.476 . S
C742 N737 1.318 . S
C742 C741 1.396 . S
H743 C738 0.929 . S
O744 Mn720 2.385 . S
O744 C722 1.234 . S
O745 Mn720 2.209 . S
O745 Mn721 2.215 1_554 S
O745 C722 1.283 . S
O746 Mn720 2.094 1_556 S
O746 C724 1.240 . S
O747 Mn721 2.117 . S
O747 C724 1.264 . S
C748 C741 1.403 . S
C748 C749 1.399 . S
C748 H754 0.929 . S
C749 C729 1.449 . S
C749 C748 1.399 . S
C749 H755 0.930 . S
H750 C730 0.931 . S
H751 C731 0.930 . S
H752 C739 0.931 . S
H753 C740 0.929 . S
H754 C748 0.929 . S
H755 C749 0.930 . S
Mn756 O761 2.095 . S
Mn756 O771 2.162 . S
Mn756 O772 2.297 . S
Mn756 O780 2.385 . S
Mn756 O781 2.209 . S
Mn756 O782 2.094 . S
Mn757 O762 2.121 . S
Mn757 N764 2.257 . S
Mn757 N773 2.282 . S
Mn757 O781 2.215 . S
Mn757 O783 2.117 . S
C758 O780 1.234 . S
C758 O781 1.283 . S
C759 O771 1.281 . S
C759 O772 1.236 . S
C760 O782 1.240 . S
C760 O783 1.264 . S
O761 Mn756 2.095 . S
O761 C770 1.250 . S
O762 Mn757 2.121 . S
O762 C770 1.258 . S
C763 N764 1.326 . S
C763 C767 1.460 . S
C763 H769 0.929 . S
N764 Mn757 2.257 . S
N764 C763 1.326 . S
N764 C768 1.362 . S
C765 C766 1.258 . S
C765 C768 1.431 . S
C765 C785 1.449 . S
C766 C765 1.258 . S
C766 C767 1.477 . S
C766 H786 0.931 . S
C767 C763 1.460 . S
C767 C766 1.477 . S
C767 H787 0.930 . S
C768 N764 1.362 . S
C768 C765 1.431 . S
C768 C778 1.476 . S
H769 C763 0.929 . S
C770 O761 1.250 . S
C770 O762 1.258 . S
O771 Mn756 2.162 . S
O771 C759 1.281 . S
O772 Mn756 2.297 . S
O772 C759 1.236 . S
N773 Mn757 2.282 . S
N773 C774 1.328 . S
N773 C778 1.318 . S
C774 N773 1.328 . S
C774 C775 1.457 . S
C774 H779 0.929 . S
C775 C774 1.457 . S
C775 C776 1.291 . S
C775 H788 0.931 . S
C776 C775 1.291 . S
C776 C777 1.373 . S
C776 H789 0.929 . S
C777 C776 1.373 . S
C777 C778 1.396 . S
C777 C784 1.403 . S
C778 C768 1.476 . S
C778 N773 1.318 . S
C778 C777 1.396 . S
H779 C774 0.929 . S
O780 Mn756 2.385 . S
O780 C758 1.234 . S
O781 Mn756 2.209 . S
O781 Mn757 2.215 . S
O781 C758 1.283 . S
O782 Mn756 2.094 . S
O782 C760 1.240 . S
O783 Mn757 2.117 . S
O783 C760 1.264 . S
C784 C777 1.403 . S
C784 C785 1.399 . S
C784 H790 0.929 . S
C785 C765 1.449 . S
C785 C784 1.399 . S
C785 H791 0.930 . S
H786 C766 0.931 . S
H787 C767 0.930 . S
H788 C775 0.931 . S
H789 C776 0.929 . S
H790 C784 0.929 . S
H791 C785 0.930 . S
Mn792 O797 2.095 . S
Mn792 O807 2.162 . S
Mn792 O808 2.297 . S
Mn792 O816 2.385 . S
Mn792 O817 2.209 . S
Mn792 O818 2.094 . S
Mn793 O798 2.121 . S
Mn793 N800 2.257 . S
Mn793 N809 2.282 . S
Mn793 O817 2.215 . S
Mn793 O819 2.117 . S
C794 O816 1.234 . S
C794 O817 1.283 . S
C795 O807 1.281 . S
C795 O808 1.236 . S
C796 O818 1.240 . S
C796 O819 1.264 . S
O797 Mn792 2.095 . S
O797 C806 1.250 . S
O798 Mn793 2.121 . S
O798 C806 1.258 . S
C799 N800 1.326 . S
C799 C803 1.460 . S
C799 H805 0.929 . S
N800 Mn793 2.257 . S
N800 C799 1.326 . S
N800 C804 1.362 . S
C801 C802 1.258 . S
C801 C804 1.431 . S
C801 C821 1.449 . S
C802 C801 1.258 . S
C802 C803 1.477 . S
C802 H822 0.931 . S
C803 C799 1.460 . S
C803 C802 1.477 . S
C803 H823 0.930 . S
C804 N800 1.362 . S
C804 C801 1.431 . S
C804 C814 1.476 . S
H805 C799 0.929 . S
C806 O797 1.250 . S
C806 O798 1.258 . S
O807 Mn792 2.162 . S
O807 C795 1.281 . S
O808 Mn792 2.297 . S
O808 C795 1.236 . S
N809 Mn793 2.282 . S
N809 C810 1.328 . S
N809 C814 1.318 . S
C810 N809 1.328 . S
C810 C811 1.457 . S
C810 H815 0.929 . S
C811 C810 1.457 . S
C811 C812 1.291 . S
C811 H824 0.931 . S
C812 C811 1.291 . S
C812 C813 1.373 . S
C812 H825 0.929 . S
C813 C812 1.373 . S
C813 C814 1.396 . S
C813 C820 1.403 . S
C814 C804 1.476 . S
C814 N809 1.318 . S
C814 C813 1.396 . S
H815 C810 0.929 . S
O816 Mn792 2.385 . S
O816 C794 1.234 . S
O817 Mn792 2.209 . S
O817 Mn793 2.215 . S
O817 C794 1.283 . S
O818 Mn792 2.094 . S
O818 C796 1.240 . S
O819 Mn793 2.117 . S
O819 C796 1.264 . S
C820 C813 1.403 . S
C820 C821 1.399 . S
C820 H826 0.929 . S
C821 C801 1.449 . S
C821 C820 1.399 . S
C821 H827 0.930 . S
H822 C802 0.931 . S
H823 C803 0.930 . S
H824 C811 0.931 . S
H825 C812 0.929 . S
H826 C820 0.929 . S
H827 C821 0.930 . S
Mn828 O833 2.095 . S
Mn828 O843 2.162 . S
Mn828 O844 2.297 . S
Mn828 O852 2.385 . S
Mn828 O853 2.209 . S
Mn828 O854 2.094 . S
Mn829 O834 2.121 . S
Mn829 N836 2.257 . S
Mn829 N845 2.282 . S
Mn829 O853 2.215 . S
Mn829 O855 2.117 . S
C830 O852 1.234 . S
C830 O853 1.283 . S
C831 O843 1.281 . S
C831 O844 1.236 . S
C832 O854 1.240 . S
C832 O855 1.264 . S
O833 Mn828 2.095 . S
O833 C842 1.250 . S
O834 Mn829 2.121 . S
O834 C842 1.258 . S
C835 N836 1.326 . S
C835 C839 1.460 . S
C835 H841 0.929 . S
N836 Mn829 2.257 . S
N836 C835 1.326 . S
N836 C840 1.362 . S
C837 C838 1.258 . S
C837 C840 1.431 . S
C837 C857 1.449 . S
C838 C837 1.258 . S
C838 C839 1.477 . S
C838 H858 0.931 . S
C839 C835 1.460 . S
C839 C838 1.477 . S
C839 H859 0.930 . S
C840 N836 1.362 . S
C840 C837 1.431 . S
C840 C850 1.476 . S
H841 C835 0.929 . S
C842 O833 1.250 . S
C842 O834 1.258 . S
O843 Mn828 2.162 . S
O843 C831 1.281 . S
O844 Mn828 2.297 . S
O844 C831 1.236 . S
N845 Mn829 2.282 . S
N845 C846 1.328 . S
N845 C850 1.318 . S
C846 N845 1.328 . S
C846 C847 1.457 . S
C846 H851 0.929 . S
C847 C846 1.457 . S
C847 C848 1.291 . S
C847 H860 0.931 . S
C848 C847 1.291 . S
C848 C849 1.373 . S
C848 H861 0.929 . S
C849 C848 1.373 . S
C849 C850 1.396 . S
C849 C856 1.403 . S
C850 C840 1.476 . S
C850 N845 1.318 . S
C850 C849 1.396 . S
H851 C846 0.929 . S
O852 Mn828 2.385 . S
O852 C830 1.234 . S
O853 Mn828 2.209 . S
O853 Mn829 2.215 . S
O853 C830 1.283 . S
O854 Mn828 2.094 . S
O854 C832 1.240 . S
O855 Mn829 2.117 . S
O855 C832 1.264 . S
C856 C849 1.403 . S
C856 C857 1.399 . S
C856 H862 0.929 . S
C857 C837 1.449 . S
C857 C856 1.399 . S
C857 H863 0.930 . S
H858 C838 0.931 . S
H859 C839 0.930 . S
H860 C847 0.931 . S
H861 C848 0.929 . S
H862 C856 0.929 . S
H863 C857 0.930 . S
C864 C865 1.391 . S
C864 C866 1.394 . S
C864 H880 0.931 . S
C865 C864 1.391 . S
C865 C869 1.376 . S
C866 C864 1.394 . S
C866 C867 1.369 . S
C866 C870 1.531 . S
C867 C866 1.369 . S
C867 C868 1.410 . S
C867 C875 1.503 . S
C868 C867 1.410 . S
C868 C869 1.392 . S
C868 C871 1.511 . S
C869 C865 1.376 . S
C869 C868 1.392 . S
C869 H881 0.929 . S
C870 C866 1.531 . S
C870 H882 0.960 . S
C870 H883 0.962 . S
C870 H884 0.960 . S
C871 C868 1.511 . S
C871 H885 0.961 . S
C871 H886 0.961 . S
C871 H887 0.961 . S
C872 C873 1.370 . S
C872 C874 1.363 . S
C872 H888 0.931 . S
C873 C872 1.370 . S
C873 C877 1.408 . S
C874 C872 1.363 . S
C874 C875 1.370 . S
C874 C878 1.524 . S
C875 C867 1.503 . S
C875 C874 1.370 . S
C875 C876 1.403 . S
C876 C875 1.403 . S
C876 C877 1.404 . S
C876 C879 1.539 . S
C877 C873 1.408 . S
C877 C876 1.404 . S
C877 H889 0.930 . S
C878 C874 1.524 . S
C878 H890 0.956 . S
C878 H891 0.961 . S
C878 H892 0.961 . S
C879 C876 1.539 . S
C879 H893 0.958 . S
C879 H894 0.961 . S
C879 H895 0.960 . S
H880 C864 0.931 . S
H881 C869 0.929 . S
H882 C870 0.960 . S
H883 C870 0.962 . S
H884 C870 0.960 . S
H885 C871 0.961 . S
H886 C871 0.961 . S
H887 C871 0.961 . S
H888 C872 0.931 . S
H889 C877 0.930 . S
H890 C878 0.956 . S
H891 C878 0.961 . S
H892 C878 0.961 . S
H893 C879 0.958 . S
H894 C879 0.961 . S
H895 C879 0.960 . S
C896 C897 1.391 . S
C896 C898 1.394 . S
C896 H912 0.931 . S
C897 C896 1.391 . S
C897 C901 1.376 . S
C898 C896 1.394 . S
C898 C899 1.369 . S
C898 C902 1.531 . S
C899 C898 1.369 . S
C899 C900 1.410 . S
C899 C907 1.503 . S
C900 C899 1.410 . S
C900 C901 1.392 . S
C900 C903 1.511 . S
C901 C897 1.376 . S
C901 C900 1.392 . S
C901 H913 0.929 . S
C902 C898 1.531 . S
C902 H914 0.960 . S
C902 H915 0.962 . S
C902 H916 0.960 . S
C903 C900 1.511 . S
C903 H917 0.961 . S
C903 H918 0.961 . S
C903 H919 0.961 . S
C904 C905 1.370 . S
C904 C906 1.363 . S
C904 H920 0.931 . S
C905 C904 1.370 . S
C905 C909 1.408 . S
C906 C904 1.363 . S
C906 C907 1.370 . S
C906 C910 1.524 . S
C907 C899 1.503 . S
C907 C906 1.370 . S
C907 C908 1.403 . S
C908 C907 1.403 . S
C908 C909 1.404 . S
C908 C911 1.539 . S
C909 C905 1.408 . S
C909 C908 1.404 . S
C909 H921 0.930 . S
C910 C906 1.524 . S
C910 H922 0.956 . S
C910 H923 0.961 . S
C910 H924 0.961 . S
C911 C908 1.539 . S
C911 H925 0.958 . S
C911 H926 0.961 . S
C911 H927 0.960 . S
H912 C896 0.931 . S
H913 C901 0.929 . S
H914 C902 0.960 . S
H915 C902 0.962 . S
H916 C902 0.960 . S
H917 C903 0.961 . S
H918 C903 0.961 . S
H919 C903 0.961 . S
H920 C904 0.931 . S
H921 C909 0.930 . S
H922 C910 0.956 . S
H923 C910 0.961 . S
H924 C910 0.961 . S
H925 C911 0.958 . S
H926 C911 0.961 . S
H927 C911 0.960 . S
C928 C929 1.391 . S
C928 C930 1.394 . S
C928 H944 0.931 . S
C929 C928 1.391 . S
C929 C933 1.376 . S
C930 C928 1.394 . S
C930 C931 1.369 . S
C930 C934 1.531 . S
C931 C930 1.369 . S
C931 C932 1.410 . S
C931 C939 1.503 . S
C932 C931 1.410 . S
C932 C933 1.392 . S
C932 C935 1.511 . S
C933 C929 1.376 . S
C933 C932 1.392 . S
C933 H945 0.929 . S
C934 C930 1.531 . S
C934 H946 0.960 . S
C934 H947 0.962 . S
C934 H948 0.960 . S
C935 C932 1.511 . S
C935 H949 0.961 . S
C935 H950 0.961 . S
C935 H951 0.961 . S
C936 C937 1.370 . S
C936 C938 1.363 . S
C936 H952 0.931 . S
C937 C936 1.370 . S
C937 C941 1.408 . S
C938 C936 1.363 . S
C938 C939 1.370 . S
C938 C942 1.524 . S
C939 C931 1.503 . S
C939 C938 1.370 . S
C939 C940 1.403 . S
C940 C939 1.403 . S
C940 C941 1.404 . S
C940 C943 1.539 . S
C941 C937 1.408 . S
C941 C940 1.404 . S
C941 H953 0.930 . S
C942 C938 1.524 . S
C942 H954 0.956 . S
C942 H955 0.961 . S
C942 H956 0.961 . S
C943 C940 1.539 . S
C943 H957 0.958 . S
C943 H958 0.961 . S
C943 H959 0.960 . S
H944 C928 0.931 . S
H945 C933 0.929 . S
H946 C934 0.960 . S
H947 C934 0.962 . S
H948 C934 0.960 . S
H949 C935 0.961 . S
H950 C935 0.961 . S
H951 C935 0.961 . S
H952 C936 0.931 . S
H953 C941 0.930 . S
H954 C942 0.956 . S
H955 C942 0.961 . S
H956 C942 0.961 . S
H957 C943 0.958 . S
H958 C943 0.961 . S
H959 C943 0.960 . S
C960 C961 1.391 . S
C960 C962 1.394 . S
C960 H976 0.931 . S
C961 C960 1.391 . S
C961 C965 1.376 . S
C962 C960 1.394 . S
C962 C963 1.369 . S
C962 C966 1.531 . S
C963 C962 1.369 . S
C963 C964 1.410 . S
C963 C971 1.503 . S
C964 C963 1.410 . S
C964 C965 1.392 . S
C964 C967 1.511 . S
C965 C961 1.376 . S
C965 C964 1.392 . S
C965 H977 0.929 . S
C966 C962 1.531 . S
C966 H978 0.960 . S
C966 H979 0.962 . S
C966 H980 0.960 . S
C967 C964 1.511 . S
C967 H981 0.961 . S
C967 H982 0.961 . S
C967 H983 0.961 . S
C968 C969 1.370 . S
C968 C970 1.363 . S
C968 H984 0.931 . S
C969 C968 1.370 . S
C969 C973 1.408 . S
C970 C968 1.363 . S
C970 C971 1.370 . S
C970 C974 1.524 . S
C971 C963 1.503 . S
C971 C970 1.370 . S
C971 C972 1.403 . S
C972 C971 1.403 . S
C972 C973 1.404 . S
C972 C975 1.539 . S
C973 C969 1.408 . S
C973 C972 1.404 . S
C973 H985 0.930 . S
C974 C970 1.524 . S
C974 H986 0.956 . S
C974 H987 0.961 . S
C974 H988 0.961 . S
C975 C972 1.539 . S
C975 H989 0.958 . S
C975 H990 0.961 . S
C975 H991 0.960 . S
H976 C960 0.931 . S
H977 C965 0.929 . S
H978 C966 0.960 . S
H979 C966 0.962 . S
H980 C966 0.960 . S
H981 C967 0.961 . S
H982 C967 0.961 . S
H983 C967 0.961 . S
H984 C968 0.931 . S
H985 C973 0.930 . S
H986 C974 0.956 . S
H987 C974 0.961 . S
H988 C974 0.961 . S
H989 C975 0.958 . S
H990 C975 0.961 . S
H991 C975 0.960 . S
C992 C993 1.391 . S
C992 C994 1.394 . S
C992 H1008 0.931 . S
C993 C992 1.391 . S
C993 C997 1.376 . S
C994 C992 1.394 . S
C994 C995 1.369 . S
C994 C998 1.531 . S
C995 C994 1.369 . S
C995 C996 1.410 . S
C995 C1003 1.503 . S
C996 C995 1.410 . S
C996 C997 1.392 . S
C996 C999 1.511 . S
C997 C993 1.376 . S
C997 C996 1.392 . S
C997 H1009 0.929 . S
C998 C994 1.531 . S
C998 H1010 0.960 . S
C998 H1011 0.962 . S
C998 H1012 0.960 . S
C999 C996 1.511 . S
C999 H1013 0.961 . S
C999 H1014 0.961 . S
C999 H1015 0.961 . S
C1000 C1001 1.370 . S
C1000 C1002 1.363 . S
C1000 H1016 0.931 . S
C1001 C1000 1.370 . S
C1001 C1005 1.408 . S
C1002 C1000 1.363 . S
C1002 C1003 1.370 . S
C1002 C1006 1.524 . S
C1003 C995 1.503 . S
C1003 C1002 1.370 . S
C1003 C1004 1.403 . S
C1004 C1003 1.403 . S
C1004 C1005 1.404 . S
C1004 C1007 1.539 . S
C1005 C1001 1.408 . S
C1005 C1004 1.404 . S
C1005 H1017 0.930 . S
C1006 C1002 1.524 . S
C1006 H1018 0.956 . S
C1006 H1019 0.961 . S
C1006 H1020 0.961 . S
C1007 C1004 1.539 . S
C1007 H1021 0.958 . S
C1007 H1022 0.961 . S
C1007 H1023 0.960 . S
H1008 C992 0.931 . S
H1009 C997 0.929 . S
H1010 C998 0.960 . S
H1011 C998 0.962 . S
H1012 C998 0.960 . S
H1013 C999 0.961 . S
H1014 C999 0.961 . S
H1015 C999 0.961 . S
H1016 C1000 0.931 . S
H1017 C1005 0.930 . S
H1018 C1006 0.956 . S
H1019 C1006 0.961 . S
H1020 C1006 0.961 . S
H1021 C1007 0.958 . S
H1022 C1007 0.961 . S
H1023 C1007 0.960 . S
C1024 C1025 1.391 . S
C1024 C1026 1.394 . S
C1024 H1040 0.931 . S
C1025 C1024 1.391 . S
C1025 C1029 1.376 . S
C1026 C1024 1.394 . S
C1026 C1027 1.369 . S
C1026 C1030 1.531 . S
C1027 C1026 1.369 . S
C1027 C1028 1.410 . S
C1027 C1035 1.503 . S
C1028 C1027 1.410 . S
C1028 C1029 1.392 . S
C1028 C1031 1.511 . S
C1029 C1025 1.376 . S
C1029 C1028 1.392 . S
C1029 H1041 0.929 . S
C1030 C1026 1.531 . S
C1030 H1042 0.960 . S
C1030 H1043 0.962 . S
C1030 H1044 0.960 . S
C1031 C1028 1.511 . S
C1031 H1045 0.961 . S
C1031 H1046 0.961 . S
C1031 H1047 0.961 . S
C1032 C1033 1.370 . S
C1032 C1034 1.363 . S
C1032 H1048 0.931 . S
C1033 C1032 1.370 . S
C1033 C1037 1.408 . S
C1034 C1032 1.363 . S
C1034 C1035 1.370 . S
C1034 C1038 1.524 . S
C1035 C1027 1.503 . S
C1035 C1034 1.370 . S
C1035 C1036 1.403 . S
C1036 C1035 1.403 . S
C1036 C1037 1.404 . S
C1036 C1039 1.539 . S
C1037 C1033 1.408 . S
C1037 C1036 1.404 . S
C1037 H1049 0.930 . S
C1038 C1034 1.524 . S
C1038 H1050 0.956 . S
C1038 H1051 0.961 . S
C1038 H1052 0.961 . S
C1039 C1036 1.539 . S
C1039 H1053 0.958 . S
C1039 H1054 0.961 . S
C1039 H1055 0.960 . S
H1040 C1024 0.931 . S
H1041 C1029 0.929 . S
H1042 C1030 0.960 . S
H1043 C1030 0.962 . S
H1044 C1030 0.960 . S
H1045 C1031 0.961 . S
H1046 C1031 0.961 . S
H1047 C1031 0.961 . S
H1048 C1032 0.931 . S
H1049 C1037 0.930 . S
H1050 C1038 0.956 . S
H1051 C1038 0.961 . S
H1052 C1038 0.961 . S
H1053 C1039 0.958 . S
H1054 C1039 0.961 . S
H1055 C1039 0.960 . S
C1056 C1057 1.391 . S
C1056 C1058 1.394 . S
C1056 H1072 0.931 . S
C1057 C1056 1.391 . S
C1057 C1061 1.376 . S
C1058 C1056 1.394 . S
C1058 C1059 1.369 . S
C1058 C1062 1.531 . S
C1059 C1058 1.369 . S
C1059 C1060 1.410 . S
C1059 C1067 1.503 . S
C1060 C1059 1.410 . S
C1060 C1061 1.392 . S
C1060 C1063 1.511 . S
C1061 C1057 1.376 . S
C1061 C1060 1.392 . S
C1061 H1073 0.929 . S
C1062 C1058 1.531 . S
C1062 H1074 0.960 . S
C1062 H1075 0.962 . S
C1062 H1076 0.960 . S
C1063 C1060 1.511 . S
C1063 H1077 0.961 . S
C1063 H1078 0.961 . S
C1063 H1079 0.961 . S
C1064 C1065 1.370 . S
C1064 C1066 1.363 . S
C1064 H1080 0.931 . S
C1065 C1064 1.370 . S
C1065 C1069 1.408 . S
C1066 C1064 1.363 . S
C1066 C1067 1.370 . S
C1066 C1070 1.524 . S
C1067 C1059 1.503 . S
C1067 C1066 1.370 . S
C1067 C1068 1.403 . S
C1068 C1067 1.403 . S
C1068 C1069 1.404 . S
C1068 C1071 1.539 . S
C1069 C1065 1.408 . S
C1069 C1068 1.404 . S
C1069 H1081 0.930 . S
C1070 C1066 1.524 . S
C1070 H1082 0.956 . S
C1070 H1083 0.961 . S
C1070 H1084 0.961 . S
C1071 C1068 1.539 . S
C1071 H1085 0.958 . S
C1071 H1086 0.961 . S
C1071 H1087 0.960 . S
H1072 C1056 0.931 . S
H1073 C1061 0.929 . S
H1074 C1062 0.960 . S
H1075 C1062 0.962 . S
H1076 C1062 0.960 . S
H1077 C1063 0.961 . S
H1078 C1063 0.961 . S
H1079 C1063 0.961 . S
H1080 C1064 0.931 . S
H1081 C1069 0.930 . S
H1082 C1070 0.956 . S
H1083 C1070 0.961 . S
H1084 C1070 0.961 . S
H1085 C1071 0.958 . S
H1086 C1071 0.961 . S
H1087 C1071 0.960 . S
C1088 C1089 1.391 . S
C1088 C1090 1.394 . S
C1088 H1104 0.931 . S
C1089 C1088 1.391 . S
C1089 C1093 1.376 . S
C1090 C1088 1.394 . S
C1090 C1091 1.369 . S
C1090 C1094 1.531 . S
C1091 C1090 1.369 . S
C1091 C1092 1.410 . S
C1091 C1099 1.503 . S
C1092 C1091 1.410 . S
C1092 C1093 1.392 . S
C1092 C1095 1.511 . S
C1093 C1089 1.376 . S
C1093 C1092 1.392 . S
C1093 H1105 0.929 . S
C1094 C1090 1.531 . S
C1094 H1106 0.960 . S
C1094 H1107 0.962 . S
C1094 H1108 0.960 . S
C1095 C1092 1.511 . S
C1095 H1109 0.961 . S
C1095 H1110 0.961 . S
C1095 H1111 0.961 . S
C1096 C1097 1.370 . S
C1096 C1098 1.363 . S
C1096 H1112 0.931 . S
C1097 C1096 1.370 . S
C1097 C1101 1.408 . S
C1098 C1096 1.363 . S
C1098 C1099 1.370 . S
C1098 C1102 1.524 . S
C1099 C1091 1.503 . S
C1099 C1098 1.370 . S
C1099 C1100 1.403 . S
C1100 C1099 1.403 . S
C1100 C1101 1.404 . S
C1100 C1103 1.539 1_556 S
C1101 C1097 1.408 . S
C1101 C1100 1.404 . S
C1101 H1113 0.930 1_556 S
C1102 C1098 1.524 . S
C1102 H1114 0.956 . S
C1102 H1115 0.961 . S
C1102 H1116 0.961 . S
C1103 C1100 1.539 1_554 S
C1103 H1117 0.958 . S
C1103 H1118 0.961 . S
C1103 H1119 0.960 1_554 S
H1104 C1088 0.931 . S
H1105 C1093 0.929 . S
H1106 C1094 0.960 . S
H1107 C1094 0.962 . S
H1108 C1094 0.960 . S
H1109 C1095 0.961 . S
H1110 C1095 0.961 . S
H1111 C1095 0.961 . S
H1112 C1096 0.931 . S
H1113 C1101 0.930 1_554 S
H1114 C1102 0.956 . S
H1115 C1102 0.961 . S
H1116 C1102 0.961 . S
H1117 C1103 0.958 . S
H1118 C1103 0.961 . S
H1119 C1103 0.960 1_556 S
C1120 C1121 1.391 . S
C1120 C1122 1.394 . S
C1120 H1136 0.931 . S
C1121 C1120 1.391 . S
C1121 C1125 1.376 . S
C1122 C1120 1.394 . S
C1122 C1123 1.369 . S
C1122 C1126 1.531 . S
C1123 C1122 1.369 . S
C1123 C1124 1.410 . S
C1123 C1131 1.503 . S
C1124 C1123 1.410 . S
C1124 C1125 1.392 . S
C1124 C1127 1.511 . S
C1125 C1121 1.376 . S
C1125 C1124 1.392 . S
C1125 H1137 0.929 . S
C1126 C1122 1.531 . S
C1126 H1138 0.960 . S
C1126 H1139 0.962 . S
C1126 H1140 0.960 . S
C1127 C1124 1.511 . S
C1127 H1141 0.961 . S
C1127 H1142 0.961 . S
C1127 H1143 0.961 . S
C1128 C1129 1.370 . S
C1128 C1130 1.363 . S
C1128 H1144 0.931 . S
C1129 C1128 1.370 . S
C1129 C1133 1.408 . S
C1130 C1128 1.363 . S
C1130 C1131 1.370 . S
C1130 C1134 1.524 . S
C1131 C1123 1.503 . S
C1131 C1130 1.370 . S
C1131 C1132 1.403 . S
C1132 C1131 1.403 . S
C1132 C1133 1.404 . S
C1132 C1135 1.539 . S
C1133 C1129 1.408 . S
C1133 C1132 1.404 . S
C1133 H1145 0.930 . S
C1134 C1130 1.524 . S
C1134 H1146 0.956 . S
C1134 H1147 0.961 . S
C1134 H1148 0.961 . S
C1135 C1132 1.539 . S
C1135 H1149 0.958 . S
C1135 H1150 0.961 . S
C1135 H1151 0.960 . S
H1136 C1120 0.931 . S
H1137 C1125 0.929 . S
H1138 C1126 0.960 . S
H1139 C1126 0.962 . S
H1140 C1126 0.960 . S
H1141 C1127 0.961 . S
H1142 C1127 0.961 . S
H1143 C1127 0.961 . S
H1144 C1128 0.931 . S
H1145 C1133 0.930 . S
H1146 C1134 0.956 . S
H1147 C1134 0.961 . S
H1148 C1134 0.961 . S
H1149 C1135 0.958 . S
H1150 C1135 0.961 . S
H1151 C1135 0.960 . S
C1152 C1153 1.391 . S
C1152 C1154 1.394 . S
C1152 H1168 0.931 . S
C1153 C1152 1.391 . S
C1153 C1157 1.376 . S
C1154 C1152 1.394 . S
C1154 C1155 1.369 . S
C1154 C1158 1.531 . S
C1155 C1154 1.369 . S
C1155 C1156 1.410 . S
C1155 C1163 1.503 . S
C1156 C1155 1.410 . S
C1156 C1157 1.392 . S
C1156 C1159 1.511 . S
C1157 C1153 1.376 . S
C1157 C1156 1.392 . S
C1157 H1169 0.929 . S
C1158 C1154 1.531 . S
C1158 H1170 0.960 . S
C1158 H1171 0.962 . S
C1158 H1172 0.960 . S
C1159 C1156 1.511 . S
C1159 H1173 0.961 . S
C1159 H1174 0.961 . S
C1159 H1175 0.961 . S
C1160 C1161 1.370 . S
C1160 C1162 1.363 . S
C1160 H1176 0.931 . S
C1161 C1160 1.370 . S
C1161 C1165 1.408 . S
C1162 C1160 1.363 . S
C1162 C1163 1.370 . S
C1162 C1166 1.524 . S
C1163 C1155 1.503 . S
C1163 C1162 1.370 . S
C1163 C1164 1.403 . S
C1164 C1163 1.403 . S
C1164 C1165 1.404 . S
C1164 C1167 1.539 . S
C1165 C1161 1.408 . S
C1165 C1164 1.404 . S
C1165 H1177 0.930 . S
C1166 C1162 1.524 . S
C1166 H1178 0.956 . S
C1166 H1179 0.961 . S
C1166 H1180 0.961 . S
C1167 C1164 1.539 . S
C1167 H1181 0.958 . S
C1167 H1182 0.961 . S
C1167 H1183 0.960 . S
H1168 C1152 0.931 . S
H1169 C1157 0.929 . S
H1170 C1158 0.960 . S
H1171 C1158 0.962 . S
H1172 C1158 0.960 . S
H1173 C1159 0.961 . S
H1174 C1159 0.961 . S
H1175 C1159 0.961 . S
H1176 C1160 0.931 . S
H1177 C1165 0.930 . S
H1178 C1166 0.956 . S
H1179 C1166 0.961 . S
H1180 C1166 0.961 . S
H1181 C1167 0.958 . S
H1182 C1167 0.961 . S
H1183 C1167 0.960 . S
C1184 C1185 1.391 . S
C1184 C1186 1.394 . S
C1184 H1200 0.931 . S
C1185 C1184 1.391 . S
C1185 C1189 1.376 . S
C1186 C1184 1.394 . S
C1186 C1187 1.369 . S
C1186 C1190 1.531 . S
C1187 C1186 1.369 . S
C1187 C1188 1.410 . S
C1187 C1195 1.503 . S
C1188 C1187 1.410 . S
C1188 C1189 1.392 . S
C1188 C1191 1.511 . S
C1189 C1185 1.376 . S
C1189 C1188 1.392 . S
C1189 H1201 0.929 . S
C1190 C1186 1.531 . S
C1190 H1202 0.960 . S
C1190 H1203 0.962 . S
C1190 H1204 0.960 . S
C1191 C1188 1.511 . S
C1191 H1205 0.961 . S
C1191 H1206 0.961 . S
C1191 H1207 0.961 . S
C1192 C1193 1.370 . S
C1192 C1194 1.363 . S
C1192 H1208 0.931 . S
C1193 C1192 1.370 . S
C1193 C1197 1.408 . S
C1194 C1192 1.363 . S
C1194 C1195 1.370 . S
C1194 C1198 1.524 . S
C1195 C1187 1.503 . S
C1195 C1194 1.370 . S
C1195 C1196 1.403 . S
C1196 C1195 1.403 . S
C1196 C1197 1.404 . S
C1196 C1199 1.539 . S
C1197 C1193 1.408 . S
C1197 C1196 1.404 . S
C1197 H1209 0.930 . S
C1198 C1194 1.524 . S
C1198 H1210 0.956 . S
C1198 H1211 0.961 . S
C1198 H1212 0.961 . S
C1199 C1196 1.539 . S
C1199 H1213 0.958 . S
C1199 H1214 0.961 . S
C1199 H1215 0.960 . S
H1200 C1184 0.931 . S
H1201 C1189 0.929 . S
H1202 C1190 0.960 . S
H1203 C1190 0.962 . S
H1204 C1190 0.960 . S
H1205 C1191 0.961 . S
H1206 C1191 0.961 . S
H1207 C1191 0.961 . S
H1208 C1192 0.931 . S
H1209 C1197 0.930 . S
H1210 C1198 0.956 . S
H1211 C1198 0.961 . S
H1212 C1198 0.961 . S
H1213 C1199 0.958 . S
H1214 C1199 0.961 . S
H1215 C1199 0.960 . S
C1216 C1217 1.391 . S
C1216 C1218 1.394 . S
C1216 H1232 0.931 . S
C1217 C1216 1.391 . S
C1217 C1221 1.376 . S
C1218 C1216 1.394 . S
C1218 C1219 1.369 . S
C1218 C1222 1.531 . S
C1219 C1218 1.369 . S
C1219 C1220 1.410 . S
C1219 C1227 1.503 . S
C1220 C1219 1.410 . S
C1220 C1221 1.392 . S
C1220 C1223 1.511 . S
C1221 C1217 1.376 . S
C1221 C1220 1.392 . S
C1221 H1233 0.929 . S
C1222 C1218 1.531 . S
C1222 H1234 0.960 . S
C1222 H1235 0.962 . S
C1222 H1236 0.960 . S
C1223 C1220 1.511 . S
C1223 H1237 0.961 . S
C1223 H1238 0.961 . S
C1223 H1239 0.961 . S
C1224 C1225 1.370 . S
C1224 C1226 1.363 . S
C1224 H1240 0.931 1_565 S
C1225 C1224 1.370 . S
C1225 C1229 1.408 . S
C1226 C1224 1.363 . S
C1226 C1227 1.370 . S
C1226 C1230 1.524 . S
C1227 C1219 1.503 . S
C1227 C1226 1.370 . S
C1227 C1228 1.403 . S
C1228 C1227 1.403 . S
C1228 C1229 1.404 . S
C1228 C1231 1.539 . S
C1229 C1225 1.408 . S
C1229 C1228 1.404 . S
C1229 H1241 0.930 . S
C1230 C1226 1.524 . S
C1230 H1242 0.956 . S
C1230 H1243 0.961 . S
C1230 H1244 0.961 1_565 S
C1231 C1228 1.539 . S
C1231 H1245 0.958 . S
C1231 H1246 0.961 . S
C1231 H1247 0.960 . S
H1232 C1216 0.931 . S
H1233 C1221 0.929 . S
H1234 C1222 0.960 . S
H1235 C1222 0.962 . S
H1236 C1222 0.960 . S
H1237 C1223 0.961 . S
H1238 C1223 0.961 . S
H1239 C1223 0.961 . S
H1240 C1224 0.931 1_545 S
H1241 C1229 0.930 . S
H1242 C1230 0.956 . S
H1243 C1230 0.961 . S
H1244 C1230 0.961 1_545 S
H1245 C1231 0.958 . S
H1246 C1231 0.961 . S
H1247 C1231 0.960 . S
C1248 C1249 1.391 . S
C1248 C1250 1.394 . S
C1248 H1264 0.931 . S
C1249 C1248 1.391 . S
C1249 C1253 1.376 . S
C1250 C1248 1.394 . S
C1250 C1251 1.369 . S
C1250 C1254 1.531 . S
C1251 C1250 1.369 . S
C1251 C1252 1.410 . S
C1251 C1259 1.503 . S
C1252 C1251 1.410 . S
C1252 C1253 1.392 . S
C1252 C1255 1.511 . S
C1253 C1249 1.376 . S
C1253 C1252 1.392 . S
C1253 H1265 0.929 . S
C1254 C1250 1.531 . S
C1254 H1266 0.960 . S
C1254 H1267 0.962 . S
C1254 H1268 0.960 . S
C1255 C1252 1.511 . S
C1255 H1269 0.961 . S
C1255 H1270 0.961 . S
C1255 H1271 0.961 . S
C1256 C1257 1.370 . S
C1256 C1258 1.363 . S
C1256 H1272 0.931 . S
C1257 C1256 1.370 . S
C1257 C1261 1.408 . S
C1258 C1256 1.363 . S
C1258 C1259 1.370 . S
C1258 C1262 1.524 . S
C1259 C1251 1.503 . S
C1259 C1258 1.370 . S
C1259 C1260 1.403 . S
C1260 C1259 1.403 . S
C1260 C1261 1.404 . S
C1260 C1263 1.539 . S
C1261 C1257 1.408 . S
C1261 C1260 1.404 . S
C1261 H1273 0.930 . S
C1262 C1258 1.524 . S
C1262 H1274 0.956 . S
C1262 H1275 0.961 . S
C1262 H1276 0.961 . S
C1263 C1260 1.539 . S
C1263 H1277 0.958 . S
C1263 H1278 0.961 . S
C1263 H1279 0.960 . S
H1264 C1248 0.931 . S
H1265 C1253 0.929 . S
H1266 C1254 0.960 . S
H1267 C1254 0.962 . S
H1268 C1254 0.960 . S
H1269 C1255 0.961 . S
H1270 C1255 0.961 . S
H1271 C1255 0.961 . S
H1272 C1256 0.931 . S
H1273 C1261 0.930 . S
H1274 C1262 0.956 . S
H1275 C1262 0.961 . S
H1276 C1262 0.961 . S
H1277 C1263 0.958 . S
H1278 C1263 0.961 . S
H1279 C1263 0.960 . S
C1280 C1281 1.391 . S
C1280 C1282 1.394 . S
C1280 H1296 0.931 . S
C1281 C1280 1.391 . S
C1281 C1285 1.376 . S
C1282 C1280 1.394 . S
C1282 C1283 1.369 . S
C1282 C1286 1.531 . S
C1283 C1282 1.369 . S
C1283 C1284 1.410 . S
C1283 C1291 1.503 . S
C1284 C1283 1.410 . S
C1284 C1285 1.392 . S
C1284 C1287 1.511 . S
C1285 C1281 1.376 . S
C1285 C1284 1.392 . S
C1285 H1297 0.929 1_655 S
C1286 C1282 1.531 . S
C1286 H1298 0.960 . S
C1286 H1299 0.962 . S
C1286 H1300 0.960 . S
C1287 C1284 1.511 . S
C1287 H1301 0.961 1_655 S
C1287 H1302 0.961 . S
C1287 H1303 0.961 1_655 S
C1288 C1289 1.370 . S
C1288 C1290 1.363 . S
C1288 H1304 0.931 . S
C1289 C1288 1.370 . S
C1289 C1293 1.408 . S
C1290 C1288 1.363 . S
C1290 C1291 1.370 . S
C1290 C1294 1.524 . S
C1291 C1283 1.503 . S
C1291 C1290 1.370 . S
C1291 C1292 1.403 . S
C1292 C1291 1.403 . S
C1292 C1293 1.404 . S
C1292 C1295 1.539 . S
C1293 C1289 1.408 . S
C1293 C1292 1.404 . S
C1293 H1305 0.930 . S
C1294 C1290 1.524 . S
C1294 H1306 0.956 . S
C1294 H1307 0.961 . S
C1294 H1308 0.961 . S
C1295 C1292 1.539 . S
C1295 H1309 0.958 . S
C1295 H1310 0.961 . S
C1295 H1311 0.960 . S
H1296 C1280 0.931 . S
H1297 C1285 0.929 1_455 S
H1298 C1286 0.960 . S
H1299 C1286 0.962 . S
H1300 C1286 0.960 . S
H1301 C1287 0.961 1_455 S
H1302 C1287 0.961 . S
H1303 C1287 0.961 1_455 S
H1304 C1288 0.931 . S
H1305 C1293 0.930 . S
H1306 C1294 0.956 . S
H1307 C1294 0.961 . S
H1308 C1294 0.961 . S
H1309 C1295 0.958 . S
H1310 C1295 0.961 . S
H1311 C1295 0.960 . S
C1312 C1313 1.391 . S
C1312 C1314 1.394 . S
C1312 H1328 0.931 . S
C1313 C1312 1.391 . S
C1313 C1317 1.376 . S
C1314 C1312 1.394 . S
C1314 C1315 1.369 . S
C1314 C1318 1.531 . S
C1315 C1314 1.369 . S
C1315 C1316 1.410 . S
C1315 C1323 1.503 . S
C1316 C1315 1.410 . S
C1316 C1317 1.392 . S
C1316 C1319 1.511 . S
C1317 C1313 1.376 . S
C1317 C1316 1.392 . S
C1317 H1329 0.929 . S
C1318 C1314 1.531 . S
C1318 H1330 0.960 . S
C1318 H1331 0.962 . S
C1318 H1332 0.960 . S
C1319 C1316 1.511 . S
C1319 H1333 0.961 . S
C1319 H1334 0.961 . S
C1319 H1335 0.961 . S
C1320 C1321 1.370 . S
C1320 C1322 1.363 . S
C1320 H1336 0.931 . S
C1321 C1320 1.370 . S
C1321 C1325 1.408 . S
C1322 C1320 1.363 . S
C1322 C1323 1.370 . S
C1322 C1326 1.524 . S
C1323 C1315 1.503 . S
C1323 C1322 1.370 . S
C1323 C1324 1.403 . S
C1324 C1323 1.403 . S
C1324 C1325 1.404 . S
C1324 C1327 1.539 . S
C1325 C1321 1.408 . S
C1325 C1324 1.404 . S
C1325 H1337 0.930 . S
C1326 C1322 1.524 . S
C1326 H1338 0.956 . S
C1326 H1339 0.961 . S
C1326 H1340 0.961 . S
C1327 C1324 1.539 . S
C1327 H1341 0.958 . S
C1327 H1342 0.961 . S
C1327 H1343 0.960 . S
H1328 C1312 0.931 . S
H1329 C1317 0.929 . S
H1330 C1318 0.960 . S
H1331 C1318 0.962 . S
H1332 C1318 0.960 . S
H1333 C1319 0.961 . S
H1334 C1319 0.961 . S
H1335 C1319 0.961 . S
H1336 C1320 0.931 . S
H1337 C1325 0.930 . S
H1338 C1326 0.956 . S
H1339 C1326 0.961 . S
H1340 C1326 0.961 . S
H1341 C1327 0.958 . S
H1342 C1327 0.961 . S
H1343 C1327 0.960 . S
C1344 C1345 1.391 . S
C1344 C1346 1.394 . S
C1344 H1360 0.931 . S
C1345 C1344 1.391 . S
C1345 C1349 1.376 . S
C1346 C1344 1.394 . S
C1346 C1347 1.369 . S
C1346 C1350 1.531 . S
C1347 C1346 1.369 . S
C1347 C1348 1.410 . S
C1347 C1355 1.503 . S
C1348 C1347 1.410 . S
C1348 C1349 1.392 . S
C1348 C1351 1.511 . S
C1349 C1345 1.376 . S
C1349 C1348 1.392 . S
C1349 H1361 0.929 1_655 S
C1350 C1346 1.531 . S
C1350 H1362 0.960 . S
C1350 H1363 0.962 . S
C1350 H1364 0.960 . S
C1351 C1348 1.511 . S
C1351 H1365 0.961 1_655 S
C1351 H1366 0.961 . S
C1351 H1367 0.961 1_655 S
C1352 C1353 1.370 . S
C1352 C1354 1.363 . S
C1352 H1368 0.931 . S
C1353 C1352 1.370 . S
C1353 C1357 1.408 . S
C1354 C1352 1.363 . S
C1354 C1355 1.370 . S
C1354 C1358 1.524 . S
C1355 C1347 1.503 . S
C1355 C1354 1.370 . S
C1355 C1356 1.403 . S
C1356 C1355 1.403 . S
C1356 C1357 1.404 . S
C1356 C1359 1.539 . S
C1357 C1353 1.408 . S
C1357 C1356 1.404 . S
C1357 H1369 0.930 . S
C1358 C1354 1.524 . S
C1358 H1370 0.956 . S
C1358 H1371 0.961 . S
C1358 H1372 0.961 . S
C1359 C1356 1.539 . S
C1359 H1373 0.958 . S
C1359 H1374 0.961 . S
C1359 H1375 0.960 . S
H1360 C1344 0.931 . S
H1361 C1349 0.929 1_455 S
H1362 C1350 0.960 . S
H1363 C1350 0.962 . S
H1364 C1350 0.960 . S
H1365 C1351 0.961 1_455 S
H1366 C1351 0.961 . S
H1367 C1351 0.961 1_455 S
H1368 C1352 0.931 . S
H1369 C1357 0.930 . S
H1370 C1358 0.956 . S
H1371 C1358 0.961 . S
H1372 C1358 0.961 . S
H1373 C1359 0.958 . S
H1374 C1359 0.961 . S
H1375 C1359 0.960 . S
C1376 C1377 1.391 . S
C1376 C1378 1.394 . S
C1376 H1392 0.931 . S
C1377 C1376 1.391 . S
C1377 C1381 1.376 . S
C1378 C1376 1.394 . S
C1378 C1379 1.369 . S
C1378 C1382 1.531 . S
C1379 C1378 1.369 . S
C1379 C1380 1.410 . S
C1379 C1387 1.503 . S
C1380 C1379 1.410 . S
C1380 C1381 1.392 . S
C1380 C1383 1.511 . S
C1381 C1377 1.376 . S
C1381 C1380 1.392 . S
C1381 H1393 0.929 . S
C1382 C1378 1.531 . S
C1382 H1394 0.960 . S
C1382 H1395 0.962 . S
C1382 H1396 0.960 . S
C1383 C1380 1.511 . S
C1383 H1397 0.961 . S
C1383 H1398 0.961 . S
C1383 H1399 0.961 . S
C1384 C1385 1.370 . S
C1384 C1386 1.363 . S
C1384 H1400 0.931 . S
C1385 C1384 1.370 . S
C1385 C1389 1.408 . S
C1386 C1384 1.363 . S
C1386 C1387 1.370 . S
C1386 C1390 1.524 . S
C1387 C1379 1.503 . S
C1387 C1386 1.370 . S
C1387 C1388 1.403 . S
C1388 C1387 1.403 . S
C1388 C1389 1.404 . S
C1388 C1391 1.539 . S
C1389 C1385 1.408 . S
C1389 C1388 1.404 . S
C1389 H1401 0.930 . S
C1390 C1386 1.524 . S
C1390 H1402 0.956 . S
C1390 H1403 0.961 . S
C1390 H1404 0.961 . S
C1391 C1388 1.539 . S
C1391 H1405 0.958 . S
C1391 H1406 0.961 . S
C1391 H1407 0.960 . S
H1392 C1376 0.931 . S
H1393 C1381 0.929 . S
H1394 C1382 0.960 . S
H1395 C1382 0.962 . S
H1396 C1382 0.960 . S
H1397 C1383 0.961 . S
H1398 C1383 0.961 . S
H1399 C1383 0.961 . S
H1400 C1384 0.931 . S
H1401 C1389 0.930 . S
H1402 C1390 0.956 . S
H1403 C1390 0.961 . S
H1404 C1390 0.961 . S
H1405 C1391 0.958 . S
H1406 C1391 0.961 . S
H1407 C1391 0.960 . S
C1408 C1409 1.391 . S
C1408 C1410 1.394 . S
C1408 H1424 0.931 . S
C1409 C1408 1.391 . S
C1409 C1413 1.376 . S
C1410 C1408 1.394 . S
C1410 C1411 1.369 . S
C1410 C1414 1.531 . S
C1411 C1410 1.369 . S
C1411 C1412 1.410 . S
C1411 C1419 1.503 . S
C1412 C1411 1.410 . S
C1412 C1413 1.392 . S
C1412 C1415 1.511 . S
C1413 C1409 1.376 . S
C1413 C1412 1.392 . S
C1413 H1425 0.929 . S
C1414 C1410 1.531 . S
C1414 H1426 0.960 . S
C1414 H1427 0.962 . S
C1414 H1428 0.960 . S
C1415 C1412 1.511 . S
C1415 H1429 0.961 . S
C1415 H1430 0.961 . S
C1415 H1431 0.961 . S
C1416 C1417 1.370 . S
C1416 C1418 1.363 . S
C1416 H1432 0.931 . S
C1417 C1416 1.370 . S
C1417 C1421 1.408 . S
C1418 C1416 1.363 . S
C1418 C1419 1.370 . S
C1418 C1422 1.524 . S
C1419 C1411 1.503 . S
C1419 C1418 1.370 . S
C1419 C1420 1.403 . S
C1420 C1419 1.403 . S
C1420 C1421 1.404 . S
C1420 C1423 1.539 . S
C1421 C1417 1.408 . S
C1421 C1420 1.404 . S
C1421 H1433 0.930 . S
C1422 C1418 1.524 . S
C1422 H1434 0.956 . S
C1422 H1435 0.961 . S
C1422 H1436 0.961 . S
C1423 C1420 1.539 . S
C1423 H1437 0.958 . S
C1423 H1438 0.961 . S
C1423 H1439 0.960 . S
H1424 C1408 0.931 . S
H1425 C1413 0.929 . S
H1426 C1414 0.960 . S
H1427 C1414 0.962 . S
H1428 C1414 0.960 . S
H1429 C1415 0.961 . S
H1430 C1415 0.961 . S
H1431 C1415 0.961 . S
H1432 C1416 0.931 . S
H1433 C1421 0.930 . S
H1434 C1422 0.956 . S
H1435 C1422 0.961 . S
H1436 C1422 0.961 . S
H1437 C1423 0.958 . S
H1438 C1423 0.961 . S
H1439 C1423 0.960 . S
C1440 C1441 1.391 . S
C1440 C1442 1.394 . S
C1440 H1456 0.931 . S
C1441 C1440 1.391 . S
C1441 C1445 1.376 . S
C1442 C1440 1.394 . S
C1442 C1443 1.369 . S
C1442 C1446 1.531 . S
C1443 C1442 1.369 . S
C1443 C1444 1.410 . S
C1443 C1451 1.503 . S
C1444 C1443 1.410 . S
C1444 C1445 1.392 . S
C1444 C1447 1.511 . S
C1445 C1441 1.376 . S
C1445 C1444 1.392 . S
C1445 H1457 0.929 . S
C1446 C1442 1.531 . S
C1446 H1458 0.960 . S
C1446 H1459 0.962 . S
C1446 H1460 0.960 . S
C1447 C1444 1.511 . S
C1447 H1461 0.961 . S
C1447 H1462 0.961 . S
C1447 H1463 0.961 . S
C1448 C1449 1.370 . S
C1448 C1450 1.363 . S
C1448 H1464 0.931 . S
C1449 C1448 1.370 . S
C1449 C1453 1.408 . S
C1450 C1448 1.363 . S
C1450 C1451 1.370 . S
C1450 C1454 1.524 . S
C1451 C1443 1.503 . S
C1451 C1450 1.370 . S
C1451 C1452 1.403 . S
C1452 C1451 1.403 . S
C1452 C1453 1.404 . S
C1452 C1455 1.539 . S
C1453 C1449 1.408 . S
C1453 C1452 1.404 . S
C1453 H1465 0.930 . S
C1454 C1450 1.524 . S
C1454 H1466 0.956 . S
C1454 H1467 0.961 . S
C1454 H1468 0.961 . S
C1455 C1452 1.539 . S
C1455 H1469 0.958 . S
C1455 H1470 0.961 . S
C1455 H1471 0.960 . S
H1456 C1440 0.931 . S
H1457 C1445 0.929 . S
H1458 C1446 0.960 . S
H1459 C1446 0.962 . S
H1460 C1446 0.960 . S
H1461 C1447 0.961 . S
H1462 C1447 0.961 . S
H1463 C1447 0.961 . S
H1464 C1448 0.931 . S
H1465 C1453 0.930 . S
H1466 C1454 0.956 . S
H1467 C1454 0.961 . S
H1468 C1454 0.961 . S
H1469 C1455 0.958 . S
H1470 C1455 0.961 . S
H1471 C1455 0.960 . S
C1472 C1473 1.391 . S
C1472 C1474 1.394 . S
C1472 H1488 0.931 . S
C1473 C1472 1.391 . S
C1473 C1477 1.376 . S
C1474 C1472 1.394 . S
C1474 C1475 1.369 . S
C1474 C1478 1.531 . S
C1475 C1474 1.369 . S
C1475 C1476 1.410 . S
C1475 C1483 1.503 . S
C1476 C1475 1.410 . S
C1476 C1477 1.392 . S
C1476 C1479 1.511 . S
C1477 C1473 1.376 . S
C1477 C1476 1.392 . S
C1477 H1489 0.929 . S
C1478 C1474 1.531 . S
C1478 H1490 0.960 . S
C1478 H1491 0.962 . S
C1478 H1492 0.960 . S
C1479 C1476 1.511 . S
C1479 H1493 0.961 . S
C1479 H1494 0.961 . S
C1479 H1495 0.961 . S
C1480 C1481 1.370 . S
C1480 C1482 1.363 . S
C1480 H1496 0.931 . S
C1481 C1480 1.370 . S
C1481 C1485 1.408 . S
C1482 C1480 1.363 . S
C1482 C1483 1.370 . S
C1482 C1486 1.524 . S
C1483 C1475 1.503 . S
C1483 C1482 1.370 . S
C1483 C1484 1.403 . S
C1484 C1483 1.403 . S
C1484 C1485 1.404 . S
C1484 C1487 1.539 . S
C1485 C1481 1.408 . S
C1485 C1484 1.404 . S
C1485 H1497 0.930 . S
C1486 C1482 1.524 . S
C1486 H1498 0.956 . S
C1486 H1499 0.961 . S
C1486 H1500 0.961 . S
C1487 C1484 1.539 . S
C1487 H1501 0.958 . S
C1487 H1502 0.961 . S
C1487 H1503 0.960 . S
H1488 C1472 0.931 . S
H1489 C1477 0.929 . S
H1490 C1478 0.960 . S
H1491 C1478 0.962 . S
H1492 C1478 0.960 . S
H1493 C1479 0.961 . S
H1494 C1479 0.961 . S
H1495 C1479 0.961 . S
H1496 C1480 0.931 . S
H1497 C1485 0.930 . S
H1498 C1486 0.956 . S
H1499 C1486 0.961 . S
H1500 C1486 0.961 . S
H1501 C1487 0.958 . S
H1502 C1487 0.961 . S
H1503 C1487 0.960 . S
C1504 C1505 1.391 . S
C1504 C1506 1.394 . S
C1504 H1520 0.931 . S
C1505 C1504 1.391 . S
C1505 C1509 1.376 . S
C1506 C1504 1.394 . S
C1506 C1507 1.369 . S
C1506 C1510 1.531 . S
C1507 C1506 1.369 . S
C1507 C1508 1.410 . S
C1507 C1515 1.503 . S
C1508 C1507 1.410 . S
C1508 C1509 1.392 . S
C1508 C1511 1.511 . S
C1509 C1505 1.376 . S
C1509 C1508 1.392 . S
C1509 H1521 0.929 . S
C1510 C1506 1.531 . S
C1510 H1522 0.960 . S
C1510 H1523 0.962 . S
C1510 H1524 0.960 . S
C1511 C1508 1.511 . S
C1511 H1525 0.961 . S
C1511 H1526 0.961 . S
C1511 H1527 0.961 . S
C1512 C1513 1.370 . S
C1512 C1514 1.363 . S
C1512 H1528 0.931 . S
C1513 C1512 1.370 . S
C1513 C1517 1.408 . S
C1514 C1512 1.363 . S
C1514 C1515 1.370 . S
C1514 C1518 1.524 . S
C1515 C1507 1.503 . S
C1515 C1514 1.370 . S
C1515 C1516 1.403 . S
C1516 C1515 1.403 . S
C1516 C1517 1.404 . S
C1516 C1519 1.539 . S
C1517 C1513 1.408 . S
C1517 C1516 1.404 . S
C1517 H1529 0.930 . S
C1518 C1514 1.524 . S
C1518 H1530 0.956 . S
C1518 H1531 0.961 . S
C1518 H1532 0.961 . S
C1519 C1516 1.539 . S
C1519 H1533 0.958 . S
C1519 H1534 0.961 . S
C1519 H1535 0.960 . S
H1520 C1504 0.931 . S
H1521 C1509 0.929 . S
H1522 C1510 0.960 . S
H1523 C1510 0.962 . S
H1524 C1510 0.960 . S
H1525 C1511 0.961 . S
H1526 C1511 0.961 . S
H1527 C1511 0.961 . S
H1528 C1512 0.931 . S
H1529 C1517 0.930 . S
H1530 C1518 0.956 . S
H1531 C1518 0.961 . S
H1532 C1518 0.961 . S
H1533 C1519 0.958 . S
H1534 C1519 0.961 . S
H1535 C1519 0.960 . S
C1536 C1537 1.391 . S
C1536 C1538 1.394 . S
C1536 H1552 0.931 . S
C1537 C1536 1.391 . S
C1537 C1541 1.376 . S
C1538 C1536 1.394 . S
C1538 C1539 1.369 . S
C1538 C1542 1.531 . S
C1539 C1538 1.369 . S
C1539 C1540 1.410 . S
C1539 C1547 1.503 . S
C1540 C1539 1.410 . S
C1540 C1541 1.392 . S
C1540 C1543 1.511 . S
C1541 C1537 1.376 . S
C1541 C1540 1.392 . S
C1541 H1553 0.929 . S
C1542 C1538 1.531 . S
C1542 H1554 0.960 . S
C1542 H1555 0.962 . S
C1542 H1556 0.960 . S
C1543 C1540 1.511 . S
C1543 H1557 0.961 . S
C1543 H1558 0.961 . S
C1543 H1559 0.961 . S
C1544 C1545 1.370 . S
C1544 C1546 1.363 . S
C1544 H1560 0.931 . S
C1545 C1544 1.370 . S
C1545 C1549 1.408 . S
C1546 C1544 1.363 . S
C1546 C1547 1.370 . S
C1546 C1550 1.524 . S
C1547 C1539 1.503 . S
C1547 C1546 1.370 . S
C1547 C1548 1.403 . S
C1548 C1547 1.403 . S
C1548 C1549 1.404 . S
C1548 C1551 1.539 . S
C1549 C1545 1.408 . S
C1549 C1548 1.404 . S
C1549 H1561 0.930 . S
C1550 C1546 1.524 . S
C1550 H1562 0.956 . S
C1550 H1563 0.961 . S
C1550 H1564 0.961 . S
C1551 C1548 1.539 . S
C1551 H1565 0.958 . S
C1551 H1566 0.961 . S
C1551 H1567 0.960 . S
H1552 C1536 0.931 . S
H1553 C1541 0.929 . S
H1554 C1542 0.960 . S
H1555 C1542 0.962 . S
H1556 C1542 0.960 . S
H1557 C1543 0.961 . S
H1558 C1543 0.961 . S
H1559 C1543 0.961 . S
H1560 C1544 0.931 . S
H1561 C1549 0.930 . S
H1562 C1550 0.956 . S
H1563 C1550 0.961 . S
H1564 C1550 0.961 . S
H1565 C1551 0.958 . S
H1566 C1551 0.961 . S
H1567 C1551 0.960 . S
C1568 C1569 1.391 . S
C1568 C1570 1.394 . S
C1568 H1584 0.931 . S
C1569 C1568 1.391 . S
C1569 C1573 1.376 . S
C1570 C1568 1.394 . S
C1570 C1571 1.369 . S
C1570 C1574 1.531 . S
C1571 C1570 1.369 . S
C1571 C1572 1.410 . S
C1571 C1579 1.503 . S
C1572 C1571 1.410 . S
C1572 C1573 1.392 . S
C1572 C1575 1.511 . S
C1573 C1569 1.376 . S
C1573 C1572 1.392 . S
C1573 H1585 0.929 . S
C1574 C1570 1.531 . S
C1574 H1586 0.960 . S
C1574 H1587 0.962 . S
C1574 H1588 0.960 . S
C1575 C1572 1.511 . S
C1575 H1589 0.961 . S
C1575 H1590 0.961 . S
C1575 H1591 0.961 . S
C1576 C1577 1.370 . S
C1576 C1578 1.363 . S
C1576 H1592 0.931 . S
C1577 C1576 1.370 . S
C1577 C1581 1.408 . S
C1578 C1576 1.363 . S
C1578 C1579 1.370 . S
C1578 C1582 1.524 . S
C1579 C1571 1.503 . S
C1579 C1578 1.370 . S
C1579 C1580 1.403 . S
C1580 C1579 1.403 . S
C1580 C1581 1.404 . S
C1580 C1583 1.539 . S
C1581 C1577 1.408 . S
C1581 C1580 1.404 . S
C1581 H1593 0.930 . S
C1582 C1578 1.524 . S
C1582 H1594 0.956 . S
C1582 H1595 0.961 . S
C1582 H1596 0.961 . S
C1583 C1580 1.539 . S
C1583 H1597 0.958 . S
C1583 H1598 0.961 . S
C1583 H1599 0.960 . S
H1584 C1568 0.931 . S
H1585 C1573 0.929 . S
H1586 C1574 0.960 . S
H1587 C1574 0.962 . S
H1588 C1574 0.960 . S
H1589 C1575 0.961 . S
H1590 C1575 0.961 . S
H1591 C1575 0.961 . S
H1592 C1576 0.931 . S
H1593 C1581 0.930 . S
H1594 C1582 0.956 . S
H1595 C1582 0.961 . S
H1596 C1582 0.961 . S
H1597 C1583 0.958 . S
H1598 C1583 0.961 . S
H1599 C1583 0.960 . S
C1600 C1601 1.391 . S
C1600 C1602 1.394 . S
C1600 H1616 0.931 . S
C1601 C1600 1.391 . S
C1601 C1605 1.376 . S
C1602 C1600 1.394 . S
C1602 C1603 1.369 . S
C1602 C1606 1.531 . S
C1603 C1602 1.369 . S
C1603 C1604 1.410 . S
C1603 C1611 1.503 . S
C1604 C1603 1.410 . S
C1604 C1605 1.392 . S
C1604 C1607 1.511 . S
C1605 C1601 1.376 . S
C1605 C1604 1.392 . S
C1605 H1617 0.929 . S
C1606 C1602 1.531 . S
C1606 H1618 0.960 . S
C1606 H1619 0.962 . S
C1606 H1620 0.960 . S
C1607 C1604 1.511 . S
C1607 H1621 0.961 . S
C1607 H1622 0.961 . S
C1607 H1623 0.961 . S
C1608 C1609 1.370 . S
C1608 C1610 1.363 . S
C1608 H1624 0.931 . S
C1609 C1608 1.370 . S
C1609 C1613 1.408 . S
C1610 C1608 1.363 . S
C1610 C1611 1.370 . S
C1610 C1614 1.524 . S
C1611 C1603 1.503 . S
C1611 C1610 1.370 . S
C1611 C1612 1.403 . S
C1612 C1611 1.403 . S
C1612 C1613 1.404 . S
C1612 C1615 1.539 . S
C1613 C1609 1.408 . S
C1613 C1612 1.404 . S
C1613 H1625 0.930 . S
C1614 C1610 1.524 . S
C1614 H1626 0.956 . S
C1614 H1627 0.961 . S
C1614 H1628 0.961 . S
C1615 C1612 1.539 . S
C1615 H1629 0.958 . S
C1615 H1630 0.961 . S
C1615 H1631 0.960 . S
H1616 C1600 0.931 . S
H1617 C1605 0.929 . S
H1618 C1606 0.960 . S
H1619 C1606 0.962 . S
H1620 C1606 0.960 . S
H1621 C1607 0.961 . S
H1622 C1607 0.961 . S
H1623 C1607 0.961 . S
H1624 C1608 0.931 . S
H1625 C1613 0.930 . S
H1626 C1614 0.956 . S
H1627 C1614 0.961 . S
H1628 C1614 0.961 . S
H1629 C1615 0.958 . S
H1630 C1615 0.961 . S
H1631 C1615 0.960 . S
C1632 C1633 1.391 . S
C1632 C1634 1.394 . S
C1632 H1648 0.921 1_565 S
C1633 C1632 1.391 . S
C1633 C1637 1.376 . S
C1634 C1632 1.394 . S
C1634 C1635 1.369 . S
C1634 C1638 1.531 . S
C1635 C1634 1.369 . S
C1635 C1636 1.410 . S
C1635 C1643 1.503 . S
C1636 C1635 1.410 . S
C1636 C1637 1.392 . S
C1636 C1639 1.511 . S
C1637 C1633 1.376 . S
C1637 C1636 1.392 . S
C1637 H1649 0.929 . S
C1638 C1634 1.531 . S
C1638 H1650 0.960 . S
C1638 H1651 0.962 . S
C1638 H1652 0.960 1_565 S
C1639 C1636 1.511 . S
C1639 H1653 0.961 . S
C1639 H1654 0.961 . S
C1639 H1655 0.961 . S
C1640 C1641 1.370 . S
C1640 C1642 1.363 . S
C1640 H1656 0.931 . S
C1641 C1640 1.370 . S
C1641 C1645 1.408 . S
C1642 C1640 1.363 . S
C1642 C1643 1.370 . S
C1642 C1646 1.524 . S
C1643 C1635 1.503 . S
C1643 C1642 1.370 . S
C1643 C1644 1.403 . S
C1644 C1643 1.403 . S
C1644 C1645 1.404 . S
C1644 C1647 1.539 . S
C1645 C1641 1.408 . S
C1645 C1644 1.404 . S
C1645 H1657 0.930 . S
C1646 C1642 1.524 . S
C1646 H1658 0.956 . S
C1646 H1659 0.961 . S
C1646 H1660 0.961 . S
C1647 C1644 1.539 . S
C1647 H1661 0.958 . S
C1647 H1662 0.961 . S
C1647 H1663 0.960 . S
H1648 C1632 0.921 1_545 S
H1649 C1637 0.929 . S
H1650 C1638 0.960 . S
H1651 C1638 0.962 . S
H1652 C1638 0.960 1_545 S
H1653 C1639 0.961 . S
H1654 C1639 0.961 . S
H1655 C1639 0.961 . S
H1656 C1640 0.931 . S
H1657 C1645 0.930 . S
H1658 C1646 0.956 . S
H1659 C1646 0.961 . S
H1660 C1646 0.961 . S
H1661 C1647 0.958 . S
H1662 C1647 0.961 . S
H1663 C1647 0.960 . S
C1664 C1665 1.391 . S
C1664 C1666 1.394 . S
C1664 H1680 0.931 . S
C1665 C1664 1.391 . S
C1665 C1669 1.376 . S
C1666 C1664 1.394 . S
C1666 C1667 1.369 . S
C1666 C1670 1.531 . S
C1667 C1666 1.369 . S
C1667 C1668 1.410 . S
C1667 C1675 1.503 . S
C1668 C1667 1.410 . S
C1668 C1669 1.392 . S
C1668 C1671 1.511 . S
C1669 C1665 1.376 . S
C1669 C1668 1.392 . S
C1669 H1681 0.929 . S
C1670 C1666 1.531 . S
C1670 H1682 0.960 . S
C1670 H1683 0.962 . S
C1670 H1684 0.960 . S
C1671 C1668 1.511 . S
C1671 H1685 0.961 . S
C1671 H1686 0.961 . S
C1671 H1687 0.961 . S
C1672 C1673 1.370 . S
C1672 C1674 1.363 . S
C1672 H1688 0.931 . S
C1673 C1672 1.370 . S
C1673 C1677 1.408 . S
C1674 C1672 1.363 . S
C1674 C1675 1.370 . S
C1674 C1678 1.524 . S
C1675 C1667 1.503 . S
C1675 C1674 1.370 . S
C1675 C1676 1.403 . S
C1676 C1675 1.403 . S
C1676 C1677 1.404 . S
C1676 C1679 1.539 . S
C1677 C1673 1.408 . S
C1677 C1676 1.404 . S
C1677 H1689 0.930 . S
C1678 C1674 1.524 . S
C1678 H1690 0.956 . S
C1678 H1691 0.961 . S
C1678 H1692 0.961 . S
C1679 C1676 1.539 . S
C1679 H1693 0.958 . S
C1679 H1694 0.961 . S
C1679 H1695 0.960 . S
H1680 C1664 0.931 . S
H1681 C1669 0.929 . S
H1682 C1670 0.960 . S
H1683 C1670 0.962 . S
H1684 C1670 0.960 . S
H1685 C1671 0.961 . S
H1686 C1671 0.961 . S
H1687 C1671 0.961 . S
H1688 C1672 0.931 . S
H1689 C1677 0.930 . S
H1690 C1678 0.956 . S
H1691 C1678 0.961 . S
H1692 C1678 0.961 . S
H1693 C1679 0.958 . S
H1694 C1679 0.961 . S
H1695 C1679 0.960 . S
C1696 C1697 1.391 . S
C1696 C1698 1.394 . S
C1696 H1712 0.931 . S
C1697 C1696 1.391 . S
C1697 C1701 1.376 . S
C1698 C1696 1.394 . S
C1698 C1699 1.369 . S
C1698 C1702 1.531 . S
C1699 C1698 1.369 . S
C1699 C1700 1.410 . S
C1699 C1707 1.503 . S
C1700 C1699 1.410 . S
C1700 C1701 1.392 . S
C1700 C1703 1.511 . S
C1701 C1697 1.376 . S
C1701 C1700 1.392 . S
C1701 H1713 0.929 . S
C1702 C1698 1.531 . S
C1702 H1714 0.960 . S
C1702 H1715 0.962 . S
C1702 H1716 0.960 . S
C1703 C1700 1.511 . S
C1703 H1717 0.961 . S
C1703 H1718 0.961 . S
C1703 H1719 0.961 . S
C1704 C1705 1.370 . S
C1704 C1706 1.363 . S
C1704 H1720 0.931 . S
C1705 C1704 1.370 . S
C1705 C1709 1.408 . S
C1706 C1704 1.363 . S
C1706 C1707 1.370 . S
C1706 C1710 1.524 . S
C1707 C1699 1.503 . S
C1707 C1706 1.370 . S
C1707 C1708 1.403 . S
C1708 C1707 1.403 . S
C1708 C1709 1.404 . S
C1708 C1711 1.539 . S
C1709 C1705 1.408 . S
C1709 C1708 1.404 . S
C1709 H1721 0.930 . S
C1710 C1706 1.524 . S
C1710 H1722 0.956 . S
C1710 H1723 0.961 . S
C1710 H1724 0.961 . S
C1711 C1708 1.539 . S
C1711 H1725 0.958 . S
C1711 H1726 0.961 . S
C1711 H1727 0.960 . S
H1712 C1696 0.931 . S
H1713 C1701 0.929 . S
H1714 C1702 0.960 . S
H1715 C1702 0.962 . S
H1716 C1702 0.960 . S
H1717 C1703 0.961 . S
H1718 C1703 0.961 . S
H1719 C1703 0.961 . S
H1720 C1704 0.931 . S
H1721 C1709 0.930 . S
H1722 C1710 0.956 . S
H1723 C1710 0.961 . S
H1724 C1710 0.961 . S
H1725 C1711 0.958 . S
H1726 C1711 0.961 . S
H1727 C1711 0.960 . S
C1728 C1729 1.391 . S
C1728 C1730 1.394 . S
C1728 H1744 0.931 . S
C1729 C1728 1.391 . S
C1729 C1733 1.376 . S
C1730 C1728 1.394 . S
C1730 C1731 1.369 . S
C1730 C1734 1.531 . S
C1731 C1730 1.369 . S
C1731 C1732 1.410 . S
C1731 C1739 1.503 . S
C1732 C1731 1.410 . S
C1732 C1733 1.392 . S
C1732 C1735 1.511 . S
C1733 C1729 1.376 . S
C1733 C1732 1.392 . S
C1733 H1745 0.929 . S
C1734 C1730 1.531 . S
C1734 H1746 0.960 . S
C1734 H1747 0.962 . S
C1734 H1748 0.960 . S
C1735 C1732 1.511 . S
C1735 H1749 0.961 . S
C1735 H1750 0.961 . S
C1735 H1751 0.961 . S
C1736 C1737 1.370 . S
C1736 C1738 1.363 . S
C1736 H1752 0.931 1_556 S
C1737 C1736 1.370 . S
C1737 C1741 1.408 . S
C1738 C1736 1.363 . S
C1738 C1739 1.370 . S
C1738 C1742 1.524 . S
C1739 C1731 1.503 . S
C1739 C1738 1.370 . S
C1739 C1740 1.403 . S
C1740 C1739 1.403 . S
C1740 C1741 1.404 . S
C1740 C1743 1.539 . S
C1741 C1737 1.408 . S
C1741 C1740 1.404 . S
C1741 H1753 0.930 . S
C1742 C1738 1.524 . S
C1742 H1754 0.956 . S
C1742 H1755 0.961 . S
C1742 H1756 0.961 1_556 S
C1743 C1740 1.539 . S
C1743 H1757 0.958 . S
C1743 H1758 0.961 . S
C1743 H1759 0.960 . S
H1744 C1728 0.931 . S
H1745 C1733 0.929 . S
H1746 C1734 0.960 . S
H1747 C1734 0.962 . S
H1748 C1734 0.960 . S
H1749 C1735 0.961 . S
H1750 C1735 0.961 . S
H1751 C1735 0.961 . S
H1752 C1736 0.931 1_554 S
H1753 C1741 0.930 . S
H1754 C1742 0.956 . S
H1755 C1742 0.961 . S
H1756 C1742 0.961 1_554 S
H1757 C1743 0.958 . S
H1758 C1743 0.961 . S
H1759 C1743 0.960 . S
C1760 C1761 1.391 . S
C1760 C1762 1.394 . S
C1760 H1776 0.931 . S
C1761 C1760 1.391 . S
C1761 C1765 1.376 . S
C1762 C1760 1.394 . S
C1762 C1763 1.369 . S
C1762 C1766 1.531 . S
C1763 C1762 1.369 . S
C1763 C1764 1.410 . S
C1763 C1771 1.503 . S
C1764 C1763 1.410 . S
C1764 C1765 1.392 . S
C1764 C1767 1.511 . S
C1765 C1761 1.376 . S
C1765 C1764 1.392 . S
C1765 H1777 0.929 . S
C1766 C1762 1.531 . S
C1766 H1778 0.960 . S
C1766 H1779 0.962 . S
C1766 H1780 0.960 . S
C1767 C1764 1.511 . S
C1767 H1781 0.961 . S
C1767 H1782 0.961 . S
C1767 H1783 0.961 . S
C1768 C1769 1.370 . S
C1768 C1770 1.363 . S
C1768 H1784 0.931 . S
C1769 C1768 1.370 . S
C1769 C1773 1.408 . S
C1770 C1768 1.363 . S
C1770 C1771 1.370 . S
C1770 C1774 1.524 . S
C1771 C1763 1.503 . S
C1771 C1770 1.370 . S
C1771 C1772 1.403 . S
C1772 C1771 1.403 . S
C1772 C1773 1.404 . S
C1772 C1775 1.539 . S
C1773 C1769 1.408 . S
C1773 C1772 1.404 . S
C1773 H1785 0.930 . S
C1774 C1770 1.524 . S
C1774 H1786 0.956 . S
C1774 H1787 0.961 . S
C1774 H1788 0.961 . S
C1775 C1772 1.539 . S
C1775 H1789 0.958 . S
C1775 H1790 0.961 . S
C1775 H1791 0.960 . S
H1776 C1760 0.931 . S
H1777 C1765 0.929 . S
H1778 C1766 0.960 . S
H1779 C1766 0.962 . S
H1780 C1766 0.960 . S
H1781 C1767 0.961 . S
H1782 C1767 0.961 . S
H1783 C1767 0.961 . S
H1784 C1768 0.931 . S
H1785 C1773 0.930 . S
H1786 C1774 0.956 . S
H1787 C1774 0.961 . S
H1788 C1774 0.961 . S
H1789 C1775 0.958 . S
H1790 C1775 0.961 . S
H1791 C1775 0.960 . S
C1792 C1793 1.391 . S
C1792 C1794 1.394 . S
C1792 H1808 0.931 . S
C1793 C1792 1.391 . S
C1793 C1797 1.376 . S
C1794 C1792 1.394 . S
C1794 C1795 1.369 . S
C1794 C1798 1.531 . S
C1795 C1794 1.369 . S
C1795 C1796 1.410 . S
C1795 C1803 1.503 . S
C1796 C1795 1.410 . S
C1796 C1797 1.392 . S
C1796 C1799 1.511 . S
C1797 C1793 1.376 . S
C1797 C1796 1.392 . S
C1797 H1809 0.929 . S
C1798 C1794 1.531 . S
C1798 H1810 0.960 . S
C1798 H1811 0.962 . S
C1798 H1812 0.960 . S
C1799 C1796 1.511 . S
C1799 H1813 0.961 . S
C1799 H1814 0.961 . S
C1799 H1815 0.961 . S
C1800 C1801 1.370 . S
C1800 C1802 1.363 . S
C1800 H1816 0.931 . S
C1801 C1800 1.370 . S
C1801 C1805 1.408 . S
C1802 C1800 1.363 . S
C1802 C1803 1.370 . S
C1802 C1806 1.524 . S
C1803 C1795 1.503 . S
C1803 C1802 1.370 . S
C1803 C1804 1.403 . S
C1804 C1803 1.403 . S
C1804 C1805 1.404 . S
C1804 C1807 1.539 . S
C1805 C1801 1.408 . S
C1805 C1804 1.404 . S
C1805 H1817 0.930 . S
C1806 C1802 1.524 . S
C1806 H1818 0.956 . S
C1806 H1819 0.961 . S
C1806 H1820 0.961 . S
C1807 C1804 1.539 . S
C1807 H1821 0.958 . S
C1807 H1822 0.961 . S
C1807 H1823 0.960 . S
H1808 C1792 0.931 . S
H1809 C1797 0.929 . S
H1810 C1798 0.960 . S
H1811 C1798 0.962 . S
H1812 C1798 0.960 . S
H1813 C1799 0.961 . S
H1814 C1799 0.961 . S
H1815 C1799 0.961 . S
H1816 C1800 0.931 . S
H1817 C1805 0.930 . S
H1818 C1806 0.956 . S
H1819 C1806 0.961 . S
H1820 C1806 0.961 . S
H1821 C1807 0.958 . S
H1822 C1807 0.961 . S
H1823 C1807 0.960 . S
C1824 C1825 1.391 . S
C1824 C1826 1.394 . S
C1824 H1840 0.931 . S
C1825 C1824 1.391 . S
C1825 C1829 1.376 . S
C1826 C1824 1.394 . S
C1826 C1827 1.369 . S
C1826 C1830 1.531 . S
C1827 C1826 1.369 . S
C1827 C1828 1.410 . S
C1827 C1835 1.503 . S
C1828 C1827 1.410 . S
C1828 C1829 1.392 . S
C1828 C1831 1.511 . S
C1829 C1825 1.376 . S
C1829 C1828 1.392 . S
C1829 H1841 0.929 . S
C1830 C1826 1.531 . S
C1830 H1842 0.960 . S
C1830 H1843 0.962 . S
C1830 H1844 0.960 . S
C1831 C1828 1.511 . S
C1831 H1845 0.961 . S
C1831 H1846 0.961 . S
C1831 H1847 0.961 . S
C1832 C1833 1.370 . S
C1832 C1834 1.363 . S
C1832 H1848 0.931 . S
C1833 C1832 1.370 . S
C1833 C1837 1.408 . S
C1834 C1832 1.363 . S
C1834 C1835 1.370 . S
C1834 C1838 1.524 . S
C1835 C1827 1.503 . S
C1835 C1834 1.370 . S
C1835 C1836 1.403 . S
C1836 C1835 1.403 . S
C1836 C1837 1.404 . S
C1836 C1839 1.539 . S
C1837 C1833 1.408 . S
C1837 C1836 1.404 . S
C1837 H1849 0.930 . S
C1838 C1834 1.524 . S
C1838 H1850 0.956 . S
C1838 H1851 0.961 . S
C1838 H1852 0.961 . S
C1839 C1836 1.539 . S
C1839 H1853 0.958 . S
C1839 H1854 0.961 . S
C1839 H1855 0.960 . S
H1840 C1824 0.931 . S
H1841 C1829 0.929 . S
H1842 C1830 0.960 . S
H1843 C1830 0.962 . S
H1844 C1830 0.960 . S
H1845 C1831 0.961 . S
H1846 C1831 0.961 . S
H1847 C1831 0.961 . S
H1848 C1832 0.931 . S
H1849 C1837 0.930 . S
H1850 C1838 0.956 . S
H1851 C1838 0.961 . S
H1852 C1838 0.961 . S
H1853 C1839 0.958 . S
H1854 C1839 0.961 . S
H1855 C1839 0.960 . S
C1856 C1857 1.391 . S
C1856 C1858 1.394 . S
C1856 H1872 0.931 . S
C1857 C1856 1.391 . S
C1857 C1861 1.376 . S
C1858 C1856 1.394 . S
C1858 C1859 1.369 . S
C1858 C1862 1.531 . S
C1859 C1858 1.369 . S
C1859 C1860 1.410 . S
C1859 C1867 1.503 . S
C1860 C1859 1.410 . S
C1860 C1861 1.392 . S
C1860 C1863 1.511 . S
C1861 C1857 1.376 . S
C1861 C1860 1.392 . S
C1861 H1873 0.929 . S
C1862 C1858 1.531 . S
C1862 H1874 0.960 . S
C1862 H1875 0.962 . S
C1862 H1876 0.960 . S
C1863 C1860 1.511 . S
C1863 H1877 0.961 . S
C1863 H1878 0.961 . S
C1863 H1879 0.961 . S
C1864 C1865 1.370 . S
C1864 C1866 1.363 . S
C1864 H1880 0.931 . S
C1865 C1864 1.370 . S
C1865 C1869 1.408 . S
C1866 C1864 1.363 . S
C1866 C1867 1.370 . S
C1866 C1870 1.524 . S
C1867 C1859 1.503 . S
C1867 C1866 1.370 . S
C1867 C1868 1.403 . S
C1868 C1867 1.403 . S
C1868 C1869 1.404 . S
C1868 C1871 1.539 . S
C1869 C1865 1.408 . S
C1869 C1868 1.404 . S
C1869 H1881 0.930 . S
C1870 C1866 1.524 . S
C1870 H1882 0.956 . S
C1870 H1883 0.961 . S
C1870 H1884 0.961 . S
C1871 C1868 1.539 . S
C1871 H1885 0.958 . S
C1871 H1886 0.961 . S
C1871 H1887 0.960 . S
H1872 C1856 0.931 . S
H1873 C1861 0.929 . S
H1874 C1862 0.960 . S
H1875 C1862 0.962 . S
H1876 C1862 0.960 . S
H1877 C1863 0.961 . S
H1878 C1863 0.961 . S
H1879 C1863 0.961 . S
H1880 C1864 0.931 . S
H1881 C1869 0.930 . S
H1882 C1870 0.956 . S
H1883 C1870 0.961 . S
H1884 C1870 0.961 . S
H1885 C1871 0.958 . S
H1886 C1871 0.961 . S
H1887 C1871 0.960 . S
C1888 C1889 1.391 . S
C1888 C1890 1.394 . S
C1888 H1904 0.931 . S
C1889 C1888 1.391 . S
C1889 C1893 1.376 . S
C1890 C1888 1.394 . S
C1890 C1891 1.369 . S
C1890 C1894 1.531 . S
C1891 C1890 1.369 . S
C1891 C1892 1.410 . S
C1891 C1899 1.503 . S
C1892 C1891 1.410 . S
C1892 C1893 1.392 . S
C1892 C1895 1.511 . S
C1893 C1889 1.376 . S
C1893 C1892 1.392 . S
C1893 H1905 0.929 . S
C1894 C1890 1.531 . S
C1894 H1906 0.960 . S
C1894 H1907 0.962 . S
C1894 H1908 0.960 . S
C1895 C1892 1.511 . S
C1895 H1909 0.961 . S
C1895 H1910 0.961 . S
C1895 H1911 0.961 . S
C1896 C1897 1.370 . S
C1896 C1898 1.363 . S
C1896 H1912 0.931 . S
C1897 C1896 1.370 . S
C1897 C1901 1.408 . S
C1898 C1896 1.363 . S
C1898 C1899 1.370 . S
C1898 C1902 1.524 . S
C1899 C1891 1.503 . S
C1899 C1898 1.370 . S
C1899 C1900 1.403 . S
C1900 C1899 1.403 . S
C1900 C1901 1.404 . S
C1900 C1903 1.539 . S
C1901 C1897 1.408 . S
C1901 C1900 1.404 . S
C1901 H1913 0.930 . S
C1902 C1898 1.524 . S
C1902 H1914 0.956 . S
C1902 H1915 0.961 . S
C1902 H1916 0.961 . S
C1903 C1900 1.539 . S
C1903 H1917 0.958 . S
C1903 H1918 0.961 . S
C1903 H1919 0.960 . S
H1904 C1888 0.931 . S
H1905 C1893 0.929 . S
H1906 C1894 0.960 . S
H1907 C1894 0.962 . S
H1908 C1894 0.960 . S
H1909 C1895 0.961 . S
H1910 C1895 0.961 . S
H1911 C1895 0.961 . S
H1912 C1896 0.931 . S
H1913 C1901 0.930 . S
H1914 C1902 0.956 . S
H1915 C1902 0.961 . S
H1916 C1902 0.961 . S
H1917 C1903 0.958 . S
H1918 C1903 0.961 . S
H1919 C1903 0.960 . S
C1920 C1921 1.391 . S
C1920 C1922 1.394 . S
C1920 H1936 0.931 . S
C1921 C1920 1.391 . S
C1921 C1925 1.376 . S
C1922 C1920 1.394 . S
C1922 C1923 1.369 . S
C1922 C1926 1.531 . S
C1923 C1922 1.369 . S
C1923 C1924 1.410 . S
C1923 C1931 1.503 . S
C1924 C1923 1.410 . S
C1924 C1925 1.392 . S
C1924 C1927 1.511 . S
C1925 C1921 1.376 . S
C1925 C1924 1.392 . S
C1925 H1937 0.929 . S
C1926 C1922 1.531 . S
C1926 H1938 0.960 . S
C1926 H1939 0.962 . S
C1926 H1940 0.960 . S
C1927 C1924 1.511 . S
C1927 H1941 0.961 . S
C1927 H1942 0.961 . S
C1927 H1943 0.961 . S
C1928 C1929 1.370 . S
C1928 C1930 1.363 . S
C1928 H1944 0.931 . S
C1929 C1928 1.370 . S
C1929 C1933 1.408 . S
C1930 C1928 1.363 . S
C1930 C1931 1.370 . S
C1930 C1934 1.524 . S
C1931 C1923 1.503 . S
C1931 C1930 1.370 . S
C1931 C1932 1.403 . S
C1932 C1931 1.403 . S
C1932 C1933 1.404 . S
C1932 C1935 1.539 . S
C1933 C1929 1.408 . S
C1933 C1932 1.404 . S
C1933 H1945 0.930 . S
C1934 C1930 1.524 . S
C1934 H1946 0.956 . S
C1934 H1947 0.961 . S
C1934 H1948 0.961 . S
C1935 C1932 1.539 . S
C1935 H1949 0.958 . S
C1935 H1950 0.961 . S
C1935 H1951 0.960 . S
H1936 C1920 0.931 . S
H1937 C1925 0.929 . S
H1938 C1926 0.960 . S
H1939 C1926 0.962 . S
H1940 C1926 0.960 . S
H1941 C1927 0.961 . S
H1942 C1927 0.961 . S
H1943 C1927 0.961 . S
H1944 C1928 0.931 . S
H1945 C1933 0.930 . S
H1946 C1934 0.956 . S
H1947 C1934 0.961 . S
H1948 C1934 0.961 . S
H1949 C1935 0.958 . S
H1950 C1935 0.961 . S
H1951 C1935 0.960 . S
C1952 C1953 1.391 . S
C1952 C1954 1.394 . S
C1952 H1968 0.931 . S
C1953 C1952 1.391 . S
C1953 C1957 1.376 . S
C1954 C1952 1.394 . S
C1954 C1955 1.369 . S
C1954 C1958 1.531 . S
C1955 C1954 1.369 . S
C1955 C1956 1.410 . S
C1955 C1963 1.503 . S
C1956 C1955 1.410 . S
C1956 C1957 1.392 . S
C1956 C1959 1.511 . S
C1957 C1953 1.376 . S
C1957 C1956 1.392 . S
C1957 H1969 0.929 . S
C1958 C1954 1.531 . S
C1958 H1970 0.960 . S
C1958 H1971 0.962 . S
C1958 H1972 0.960 . S
C1959 C1956 1.511 . S
C1959 H1973 0.961 . S
C1959 H1974 0.961 . S
C1959 H1975 0.961 . S
C1960 C1961 1.370 . S
C1960 C1962 1.363 . S
C1960 H1976 0.931 . S
C1961 C1960 1.370 . S
C1961 C1965 1.408 . S
C1962 C1960 1.363 . S
C1962 C1963 1.370 . S
C1962 C1966 1.524 . S
C1963 C1955 1.503 . S
C1963 C1962 1.370 . S
C1963 C1964 1.403 . S
C1964 C1963 1.403 . S
C1964 C1965 1.404 . S
C1964 C1967 1.539 . S
C1965 C1961 1.408 . S
C1965 C1964 1.404 . S
C1965 H1977 0.930 . S
C1966 C1962 1.524 . S
C1966 H1978 0.956 . S
C1966 H1979 0.961 . S
C1966 H1980 0.961 . S
C1967 C1964 1.539 . S
C1967 H1981 0.958 . S
C1967 H1982 0.961 . S
C1967 H1983 0.960 . S
H1968 C1952 0.931 . S
H1969 C1957 0.929 . S
H1970 C1958 0.960 . S
H1971 C1958 0.962 . S
H1972 C1958 0.960 . S
H1973 C1959 0.961 . S
H1974 C1959 0.961 . S
H1975 C1959 0.961 . S
H1976 C1960 0.931 . S
H1977 C1965 0.930 . S
H1978 C1966 0.956 . S
H1979 C1966 0.961 . S
H1980 C1966 0.961 . S
H1981 C1967 0.958 . S
H1982 C1967 0.961 . S
H1983 C1967 0.960 . S
C1984 C1985 1.391 . S
C1984 C1986 1.394 . S
C1984 H2000 0.931 . S
C1985 C1984 1.391 . S
C1985 C1989 1.376 . S
C1986 C1984 1.394 . S
C1986 C1987 1.369 . S
C1986 C1990 1.531 . S
C1987 C1986 1.369 . S
C1987 C1988 1.410 . S
C1987 C1995 1.503 . S
C1988 C1987 1.410 . S
C1988 C1989 1.392 . S
C1988 C1991 1.511 . S
C1989 C1985 1.376 . S
C1989 C1988 1.392 . S
C1989 H2001 0.929 . S
C1990 C1986 1.531 . S
C1990 H2002 0.960 . S
C1990 H2003 0.962 . S
C1990 H2004 0.960 . S
C1991 C1988 1.511 . S
C1991 H2005 0.961 . S
C1991 H2006 0.961 . S
C1991 H2007 0.961 . S
C1992 C1993 1.370 . S
C1992 C1994 1.363 . S
C1992 H2008 0.931 . S
C1993 C1992 1.370 . S
C1993 C1997 1.408 . S
C1994 C1992 1.363 . S
C1994 C1995 1.370 . S
C1994 C1998 1.524 . S
C1995 C1987 1.503 . S
C1995 C1994 1.370 . S
C1995 C1996 1.403 . S
C1996 C1995 1.403 . S
C1996 C1997 1.404 . S
C1996 C1999 1.539 . S
C1997 C1993 1.408 . S
C1997 C1996 1.404 . S
C1997 H2009 0.930 . S
C1998 C1994 1.524 . S
C1998 H2010 0.956 . S
C1998 H2011 0.961 . S
C1998 H2012 0.961 . S
C1999 C1996 1.539 . S
C1999 H2013 0.958 . S
C1999 H2014 0.961 . S
C1999 H2015 0.960 . S
H2000 C1984 0.931 . S
H2001 C1989 0.929 . S
H2002 C1990 0.960 . S
H2003 C1990 0.962 . S
H2004 C1990 0.960 . S
H2005 C1991 0.961 . S
H2006 C1991 0.961 . S
H2007 C1991 0.961 . S
H2008 C1992 0.931 . S
H2009 C1997 0.930 . S
H2010 C1998 0.956 . S
H2011 C1998 0.961 . S
H2012 C1998 0.961 . S
H2013 C1999 0.958 . S
H2014 C1999 0.961 . S
H2015 C1999 0.960 . S
C2016 C2017 1.391 . S
C2016 C2018 1.394 . S
C2016 H2032 0.931 . S
C2017 C2016 1.391 . S
C2017 C2021 1.376 . S
C2018 C2016 1.394 . S
C2018 C2019 1.369 . S
C2018 C2022 1.531 . S
C2019 C2018 1.369 . S
C2019 C2020 1.410 . S
C2019 C2027 1.503 . S
C2020 C2019 1.410 . S
C2020 C2021 1.392 . S
C2020 C2023 1.511 . S
C2021 C2017 1.376 . S
C2021 C2020 1.392 . S
C2021 H2033 0.929 . S
C2022 C2018 1.531 . S
C2022 H2034 0.960 . S
C2022 H2035 0.962 . S
C2022 H2036 0.960 . S
C2023 C2020 1.511 . S
C2023 H2037 0.961 . S
C2023 H2038 0.961 . S
C2023 H2039 0.961 . S
C2024 C2025 1.370 . S
C2024 C2026 1.363 . S
C2024 H2040 0.931 . S
C2025 C2024 1.370 . S
C2025 C2029 1.408 . S
C2026 C2024 1.363 . S
C2026 C2027 1.370 . S
C2026 C2030 1.524 . S
C2027 C2019 1.503 . S
C2027 C2026 1.370 . S
C2027 C2028 1.403 . S
C2028 C2027 1.403 . S
C2028 C2029 1.404 . S
C2028 C2031 1.539 . S
C2029 C2025 1.408 . S
C2029 C2028 1.404 . S
C2029 H2041 0.930 . S
C2030 C2026 1.524 . S
C2030 H2042 0.956 . S
C2030 H2043 0.961 . S
C2030 H2044 0.961 . S
C2031 C2028 1.539 . S
C2031 H2045 0.958 . S
C2031 H2046 0.961 . S
C2031 H2047 0.960 . S
H2032 C2016 0.931 . S
H2033 C2021 0.929 . S
H2034 C2022 0.960 . S
H2035 C2022 0.962 . S
H2036 C2022 0.960 . S
H2037 C2023 0.961 . S
H2038 C2023 0.961 . S
H2039 C2023 0.961 . S
H2040 C2024 0.931 . S
H2041 C2029 0.930 . S
H2042 C2030 0.956 . S
H2043 C2030 0.961 . S
H2044 C2030 0.961 . S
H2045 C2031 0.958 . S
H2046 C2031 0.961 . S
H2047 C2031 0.960 . S
C2048 C2049 1.391 . S
C2048 C2050 1.394 . S
C2048 H2064 0.931 . S
C2049 C2048 1.391 . S
C2049 C2053 1.376 . S
C2050 C2048 1.394 . S
C2050 C2051 1.369 . S
C2050 C2054 1.531 . S
C2051 C2050 1.369 . S
C2051 C2052 1.410 . S
C2051 C2059 1.503 . S
C2052 C2051 1.410 . S
C2052 C2053 1.392 . S
C2052 C2055 1.511 . S
C2053 C2049 1.376 . S
C2053 C2052 1.392 . S
C2053 H2065 0.929 . S
C2054 C2050 1.531 . S
C2054 H2066 0.960 . S
C2054 H2067 0.962 . S
C2054 H2068 0.960 . S
C2055 C2052 1.511 . S
C2055 H2069 0.961 . S
C2055 H2070 0.961 . S
C2055 H2071 0.961 . S
C2056 C2057 1.370 . S
C2056 C2058 1.363 . S
C2056 H2072 0.931 . S
C2057 C2056 1.370 . S
C2057 C2061 1.408 . S
C2058 C2056 1.363 . S
C2058 C2059 1.370 . S
C2058 C2062 1.524 . S
C2059 C2051 1.503 . S
C2059 C2058 1.370 . S
C2059 C2060 1.403 . S
C2060 C2059 1.403 . S
C2060 C2061 1.404 . S
C2060 C2063 1.539 . S
C2061 C2057 1.408 . S
C2061 C2060 1.404 . S
C2061 H2073 0.930 . S
C2062 C2058 1.524 . S
C2062 H2074 0.956 . S
C2062 H2075 0.961 . S
C2062 H2076 0.961 . S
C2063 C2060 1.539 . S
C2063 H2077 0.958 . S
C2063 H2078 0.961 . S
C2063 H2079 0.960 . S
H2064 C2048 0.931 . S
H2065 C2053 0.929 . S
H2066 C2054 0.960 . S
H2067 C2054 0.962 . S
H2068 C2054 0.960 . S
H2069 C2055 0.961 . S
H2070 C2055 0.961 . S
H2071 C2055 0.961 . S
H2072 C2056 0.931 . S
H2073 C2061 0.930 . S
H2074 C2062 0.956 . S
H2075 C2062 0.961 . S
H2076 C2062 0.961 . S
H2077 C2063 0.958 . S
H2078 C2063 0.961 . S
H2079 C2063 0.960 . S
C2080 C2081 1.391 . S
C2080 C2082 1.394 . S
C2080 H2096 0.931 . S
C2081 C2080 1.391 . S
C2081 C2085 1.376 . S
C2082 C2080 1.394 . S
C2082 C2083 1.369 . S
C2082 C2086 1.531 . S
C2083 C2082 1.369 . S
C2083 C2084 1.410 . S
C2083 C2091 1.503 . S
C2084 C2083 1.410 . S
C2084 C2085 1.392 . S
C2084 C2087 1.511 . S
C2085 C2081 1.376 . S
C2085 C2084 1.392 . S
C2085 H2097 0.929 . S
C2086 C2082 1.531 . S
C2086 H2098 0.960 . S
C2086 H2099 0.962 . S
C2086 H2100 0.960 . S
C2087 C2084 1.511 . S
C2087 H2101 0.961 . S
C2087 H2102 0.961 . S
C2087 H2103 0.961 . S
C2088 C2089 1.370 . S
C2088 C2090 1.363 . S
C2088 H2104 0.931 . S
C2089 C2088 1.370 . S
C2089 C2093 1.408 . S
C2090 C2088 1.363 . S
C2090 C2091 1.370 . S
C2090 C2094 1.524 . S
C2091 C2083 1.503 . S
C2091 C2090 1.370 . S
C2091 C2092 1.403 . S
C2092 C2091 1.403 . S
C2092 C2093 1.404 . S
C2092 C2095 1.539 . S
C2093 C2089 1.408 . S
C2093 C2092 1.404 . S
C2093 H2105 0.930 . S
C2094 C2090 1.524 . S
C2094 H2106 0.956 . S
C2094 H2107 0.961 . S
C2094 H2108 0.961 . S
C2095 C2092 1.539 . S
C2095 H2109 0.958 . S
C2095 H2110 0.961 . S
C2095 H2111 0.960 . S
H2096 C2080 0.931 . S
H2097 C2085 0.929 . S
H2098 C2086 0.960 . S
H2099 C2086 0.962 . S
H2100 C2086 0.960 . S
H2101 C2087 0.961 . S
H2102 C2087 0.961 . S
H2103 C2087 0.961 . S
H2104 C2088 0.931 . S
H2105 C2093 0.930 . S
H2106 C2094 0.956 . S
H2107 C2094 0.961 . S
H2108 C2094 0.961 . S
H2109 C2095 0.958 . S
H2110 C2095 0.961 . S
H2111 C2095 0.960 . S
C2112 C2113 1.391 . S
C2112 C2114 1.394 . S
C2112 H2128 0.931 . S
C2113 C2112 1.391 . S
C2113 C2117 1.376 . S
C2114 C2112 1.394 . S
C2114 C2115 1.369 . S
C2114 C2118 1.531 . S
C2115 C2114 1.369 . S
C2115 C2116 1.410 . S
C2115 C2123 1.503 . S
C2116 C2115 1.410 . S
C2116 C2117 1.392 . S
C2116 C2119 1.511 . S
C2117 C2113 1.376 . S
C2117 C2116 1.392 . S
C2117 H2129 0.929 . S
C2118 C2114 1.531 . S
C2118 H2130 0.960 . S
C2118 H2131 0.962 . S
C2118 H2132 0.960 . S
C2119 C2116 1.511 . S
C2119 H2133 0.961 . S
C2119 H2134 0.961 . S
C2119 H2135 0.961 . S
C2120 C2121 1.370 . S
C2120 C2122 1.363 . S
C2120 H2136 0.931 . S
C2121 C2120 1.370 . S
C2121 C2125 1.408 . S
C2122 C2120 1.363 . S
C2122 C2123 1.370 . S
C2122 C2126 1.524 . S
C2123 C2115 1.503 . S
C2123 C2122 1.370 . S
C2123 C2124 1.403 . S
C2124 C2123 1.403 . S
C2124 C2125 1.404 . S
C2124 C2127 1.539 . S
C2125 C2121 1.408 . S
C2125 C2124 1.404 . S
C2125 H2137 0.930 . S
C2126 C2122 1.524 . S
C2126 H2138 0.956 . S
C2126 H2139 0.961 . S
C2126 H2140 0.961 . S
C2127 C2124 1.539 . S
C2127 H2141 0.958 . S
C2127 H2142 0.961 . S
C2127 H2143 0.960 . S
H2128 C2112 0.931 . S
H2129 C2117 0.929 . S
H2130 C2118 0.960 . S
H2131 C2118 0.962 . S
H2132 C2118 0.960 . S
H2133 C2119 0.961 . S
H2134 C2119 0.961 . S
H2135 C2119 0.961 . S
H2136 C2120 0.931 . S
H2137 C2125 0.930 . S
H2138 C2126 0.956 . S
H2139 C2126 0.961 . S
H2140 C2126 0.961 . S
H2141 C2127 0.958 . S
H2142 C2127 0.961 . S
H2143 C2127 0.960 . S
C2144 C2145 1.391 . S
C2144 C2146 1.394 . S
C2144 H2160 0.931 . S
C2145 C2144 1.391 . S
C2145 C2149 1.376 . S
C2146 C2144 1.394 . S
C2146 C2147 1.369 . S
C2146 C2150 1.531 . S
C2147 C2146 1.369 . S
C2147 C2148 1.410 . S
C2147 C2155 1.503 . S
C2148 C2147 1.410 . S
C2148 C2149 1.392 . S
C2148 C2151 1.511 . S
C2149 C2145 1.376 . S
C2149 C2148 1.392 . S
C2149 H2161 0.929 . S
C2150 C2146 1.531 . S
C2150 H2162 0.960 . S
C2150 H2163 0.962 . S
C2150 H2164 0.960 . S
C2151 C2148 1.511 . S
C2151 H2165 0.961 . S
C2151 H2166 0.961 . S
C2151 H2167 0.961 . S
C2152 C2153 1.370 . S
C2152 C2154 1.363 . S
C2152 H2168 0.931 . S
C2153 C2152 1.370 . S
C2153 C2157 1.408 . S
C2154 C2152 1.363 . S
C2154 C2155 1.370 . S
C2154 C2158 1.524 . S
C2155 C2147 1.503 . S
C2155 C2154 1.370 . S
C2155 C2156 1.403 . S
C2156 C2155 1.403 . S
C2156 C2157 1.404 . S
C2156 C2159 1.539 . S
C2157 C2153 1.408 . S
C2157 C2156 1.404 . S
C2157 H2169 0.930 . S
C2158 C2154 1.524 . S
C2158 H2170 0.956 . S
C2158 H2171 0.961 . S
C2158 H2172 0.961 . S
C2159 C2156 1.539 . S
C2159 H2173 0.958 . S
C2159 H2174 0.961 . S
C2159 H2175 0.960 . S
H2160 C2144 0.931 . S
H2161 C2149 0.929 . S
H2162 C2150 0.960 . S
H2163 C2150 0.962 . S
H2164 C2150 0.960 . S
H2165 C2151 0.961 . S
H2166 C2151 0.961 . S
H2167 C2151 0.961 . S
H2168 C2152 0.931 . S
H2169 C2157 0.930 . S
H2170 C2158 0.956 . S
H2171 C2158 0.961 . S
H2172 C2158 0.961 . S
H2173 C2159 0.958 . S
H2174 C2159 0.961 . S
H2175 C2159 0.960 . S
C2176 C2177 1.391 . S
C2176 C2178 1.394 . S
C2176 H2192 0.931 . S
C2177 C2176 1.391 . S
C2177 C2181 1.376 . S
C2178 C2176 1.394 . S
C2178 C2179 1.369 . S
C2178 C2182 1.531 . S
C2179 C2178 1.369 . S
C2179 C2180 1.410 . S
C2179 C2187 1.503 . S
C2180 C2179 1.410 . S
C2180 C2181 1.392 . S
C2180 C2183 1.511 . S
C2181 C2177 1.376 . S
C2181 C2180 1.392 . S
C2181 H2193 0.929 . S
C2182 C2178 1.531 . S
C2182 H2194 0.960 . S
C2182 H2195 0.962 . S
C2182 H2196 0.960 . S
C2183 C2180 1.511 . S
C2183 H2197 0.961 . S
C2183 H2198 0.961 . S
C2183 H2199 0.961 . S
C2184 C2185 1.370 . S
C2184 C2186 1.363 . S
C2184 H2200 0.931 . S
C2185 C2184 1.370 . S
C2185 C2189 1.408 . S
C2186 C2184 1.363 . S
C2186 C2187 1.370 . S
C2186 C2190 1.524 . S
C2187 C2179 1.503 . S
C2187 C2186 1.370 . S
C2187 C2188 1.403 . S
C2188 C2187 1.403 . S
C2188 C2189 1.404 . S
C2188 C2191 1.539 . S
C2189 C2185 1.408 . S
C2189 C2188 1.404 . S
C2189 H2201 0.930 . S
C2190 C2186 1.524 . S
C2190 H2202 0.956 . S
C2190 H2203 0.961 . S
C2190 H2204 0.961 . S
C2191 C2188 1.539 . S
C2191 H2205 0.958 . S
C2191 H2206 0.961 . S
C2191 H2207 0.960 . S
H2192 C2176 0.931 . S
H2193 C2181 0.929 . S
H2194 C2182 0.960 . S
H2195 C2182 0.962 . S
H2196 C2182 0.960 . S
H2197 C2183 0.961 . S
H2198 C2183 0.961 . S
H2199 C2183 0.961 . S
H2200 C2184 0.931 . S
H2201 C2189 0.930 . S
H2202 C2190 0.956 . S
H2203 C2190 0.961 . S
H2204 C2190 0.961 . S
H2205 C2191 0.958 . S
H2206 C2191 0.961 . S
H2207 C2191 0.960 . S
C2208 C2209 1.391 . S
C2208 C2210 1.394 . S
C2208 H2224 0.931 . S
C2209 C2208 1.391 . S
C2209 C2213 1.376 . S
C2210 C2208 1.394 . S
C2210 C2211 1.369 . S
C2210 C2214 1.531 . S
C2211 C2210 1.369 . S
C2211 C2212 1.410 . S
C2211 C2219 1.503 . S
C2212 C2211 1.410 . S
C2212 C2213 1.392 . S
C2212 C2215 1.511 . S
C2213 C2209 1.376 . S
C2213 C2212 1.392 . S
C2213 H2225 0.929 . S
C2214 C2210 1.531 . S
C2214 H2226 0.960 . S
C2214 H2227 0.962 . S
C2214 H2228 0.960 1_554 S
C2215 C2212 1.511 . S
C2215 H2229 0.961 . S
C2215 H2230 0.961 . S
C2215 H2231 0.961 . S
C2216 C2217 1.370 . S
C2216 C2218 1.363 . S
C2216 H2232 0.931 . S
C2217 C2216 1.370 . S
C2217 C2221 1.408 . S
C2218 C2216 1.363 . S
C2218 C2219 1.370 . S
C2218 C2222 1.524 . S
C2219 C2211 1.503 . S
C2219 C2218 1.370 . S
C2219 C2220 1.403 . S
C2220 C2219 1.403 . S
C2220 C2221 1.404 . S
C2220 C2223 1.539 . S
C2221 C2217 1.408 . S
C2221 C2220 1.404 . S
C2221 H2233 0.930 . S
C2222 C2218 1.524 . S
C2222 H2234 0.956 . S
C2222 H2235 0.961 . S
C2222 H2236 0.961 . S
C2223 C2220 1.539 . S
C2223 H2237 0.958 . S
C2223 H2238 0.961 . S
C2223 H2239 0.960 . S
H2224 C2208 0.931 . S
H2225 C2213 0.929 . S
H2226 C2214 0.960 . S
H2227 C2214 0.962 . S
H2228 C2214 0.960 1_556 S
H2229 C2215 0.961 . S
H2230 C2215 0.961 . S
H2231 C2215 0.961 . S
H2232 C2216 0.931 . S
H2233 C2221 0.930 . S
H2234 C2222 0.956 . S
H2235 C2222 0.961 . S
H2236 C2222 0.961 . S
H2237 C2223 0.958 . S
H2238 C2223 0.961 . S
H2239 C2223 0.960 . S
C2240 C2241 1.391 . S
C2240 C2242 1.394 . S
C2240 H2256 0.931 . S
C2241 C2240 1.391 . S
C2241 C2245 1.376 . S
C2242 C2240 1.394 . S
C2242 C2243 1.369 . S
C2242 C2246 1.531 . S
C2243 C2242 1.369 . S
C2243 C2244 1.410 . S
C2243 C2251 1.503 . S
C2244 C2243 1.410 . S
C2244 C2245 1.392 . S
C2244 C2247 1.511 . S
C2245 C2241 1.376 . S
C2245 C2244 1.392 . S
C2245 H2257 0.929 . S
C2246 C2242 1.531 . S
C2246 H2258 0.960 . S
C2246 H2259 0.962 . S
C2246 H2260 0.960 . S
C2247 C2244 1.511 . S
C2247 H2261 0.961 . S
C2247 H2262 0.961 . S
C2247 H2263 0.961 . S
C2248 C2249 1.370 . S
C2248 C2250 1.363 . S
C2248 H2264 0.931 . S
C2249 C2248 1.370 . S
C2249 C2253 1.408 . S
C2250 C2248 1.363 . S
C2250 C2251 1.370 . S
C2250 C2254 1.524 . S
C2251 C2243 1.503 . S
C2251 C2250 1.370 . S
C2251 C2252 1.403 . S
C2252 C2251 1.403 . S
C2252 C2253 1.404 . S
C2252 C2255 1.539 . S
C2253 C2249 1.408 . S
C2253 C2252 1.404 . S
C2253 H2265 0.930 . S
C2254 C2250 1.524 . S
C2254 H2266 0.956 . S
C2254 H2267 0.961 . S
C2254 H2268 0.961 . S
C2255 C2252 1.539 . S
C2255 H2269 0.958 . S
C2255 H2270 0.961 . S
C2255 H2271 0.960 . S
H2256 C2240 0.931 . S
H2257 C2245 0.929 . S
H2258 C2246 0.960 . S
H2259 C2246 0.962 . S
H2260 C2246 0.960 . S
H2261 C2247 0.961 . S
H2262 C2247 0.961 . S
H2263 C2247 0.961 . S
H2264 C2248 0.931 . S
H2265 C2253 0.930 . S
H2266 C2254 0.956 . S
H2267 C2254 0.961 . S
H2268 C2254 0.961 . S
H2269 C2255 0.958 . S
H2270 C2255 0.961 . S
H2271 C2255 0.960 . S
C2272 C2273 1.391 . S
C2272 C2274 1.394 . S
C2272 H2288 0.931 . S
C2273 C2272 1.391 . S
C2273 C2277 1.376 . S
C2274 C2272 1.394 . S
C2274 C2275 1.369 . S
C2274 C2278 1.531 . S
C2275 C2274 1.369 . S
C2275 C2276 1.410 . S
C2275 C2283 1.503 . S
C2276 C2275 1.410 . S
C2276 C2277 1.392 . S
C2276 C2279 1.511 . S
C2277 C2273 1.376 . S
C2277 C2276 1.392 . S
C2277 H2289 0.929 . S
C2278 C2274 1.531 . S
C2278 H2290 0.960 . S
C2278 H2291 0.962 . S
C2278 H2292 0.960 . S
C2279 C2276 1.511 . S
C2279 H2293 0.961 . S
C2279 H2294 0.961 . S
C2279 H2295 0.961 . S
C2280 C2281 1.370 . S
C2280 C2282 1.363 . S
C2280 H2296 0.931 . S
C2281 C2280 1.370 . S
C2281 C2285 1.408 . S
C2282 C2280 1.363 . S
C2282 C2283 1.370 . S
C2282 C2286 1.524 . S
C2283 C2275 1.503 . S
C2283 C2282 1.370 . S
C2283 C2284 1.403 . S
C2284 C2283 1.403 . S
C2284 C2285 1.404 . S
C2284 C2287 1.539 . S
C2285 C2281 1.408 . S
C2285 C2284 1.404 . S
C2285 H2297 0.930 . S
C2286 C2282 1.524 . S
C2286 H2298 0.956 . S
C2286 H2299 0.961 . S
C2286 H2300 0.961 . S
C2287 C2284 1.539 . S
C2287 H2301 0.958 . S
C2287 H2302 0.961 . S
C2287 H2303 0.960 . S
H2288 C2272 0.931 . S
H2289 C2277 0.929 . S
H2290 C2278 0.960 . S
H2291 C2278 0.962 . S
H2292 C2278 0.960 . S
H2293 C2279 0.961 . S
H2294 C2279 0.961 . S
H2295 C2279 0.961 . S
H2296 C2280 0.931 . S
H2297 C2285 0.930 . S
H2298 C2286 0.956 . S
H2299 C2286 0.961 . S
H2300 C2286 0.961 . S
H2301 C2287 0.958 . S
H2302 C2287 0.961 . S
H2303 C2287 0.960 . S
C2304 C2305 1.391 . S
C2304 C2306 1.394 . S
C2304 H2320 0.931 . S
C2305 C2304 1.391 . S
C2305 C2309 1.376 . S
C2306 C2304 1.394 . S
C2306 C2307 1.369 . S
C2306 C2310 1.531 . S
C2307 C2306 1.369 . S
C2307 C2308 1.410 . S
C2307 C2315 1.503 . S
C2308 C2307 1.410 . S
C2308 C2309 1.392 . S
C2308 C2311 1.511 . S
C2309 C2305 1.376 . S
C2309 C2308 1.392 . S
C2309 H2321 0.929 . S
C2310 C2306 1.531 . S
C2310 H2322 0.960 . S
C2310 H2323 0.962 . S
C2310 H2324 0.960 . S
C2311 C2308 1.511 . S
C2311 H2325 0.961 . S
C2311 H2326 0.961 . S
C2311 H2327 0.961 . S
C2312 C2313 1.370 . S
C2312 C2314 1.363 . S
C2312 H2328 0.931 . S
C2313 C2312 1.370 . S
C2313 C2317 1.408 . S
C2314 C2312 1.363 . S
C2314 C2315 1.370 . S
C2314 C2318 1.524 . S
C2315 C2307 1.503 . S
C2315 C2314 1.370 . S
C2315 C2316 1.403 . S
C2316 C2315 1.403 . S
C2316 C2317 1.404 . S
C2316 C2319 1.539 . S
C2317 C2313 1.408 . S
C2317 C2316 1.404 . S
C2317 H2329 0.930 . S
C2318 C2314 1.524 . S
C2318 H2330 0.956 . S
C2318 H2331 0.961 . S
C2318 H2332 0.961 . S
C2319 C2316 1.539 . S
C2319 H2333 0.958 . S
C2319 H2334 0.961 . S
C2319 H2335 0.960 . S
H2320 C2304 0.931 . S
H2321 C2309 0.929 . S
H2322 C2310 0.960 . S
H2323 C2310 0.962 . S
H2324 C2310 0.960 . S
H2325 C2311 0.961 . S
H2326 C2311 0.961 . S
H2327 C2311 0.961 . S
H2328 C2312 0.931 . S
H2329 C2317 0.930 . S
H2330 C2318 0.956 . S
H2331 C2318 0.961 . S
H2332 C2318 0.961 . S
H2333 C2319 0.958 . S
H2334 C2319 0.961 . S
H2335 C2319 0.960 . S
C2336 C2337 1.391 . S
C2336 C2338 1.394 . S
C2336 H2352 0.931 . S
C2337 C2336 1.391 . S
C2337 C2341 1.376 . S
C2338 C2336 1.394 . S
C2338 C2339 1.369 . S
C2338 C2342 1.531 . S
C2339 C2338 1.369 . S
C2339 C2340 1.410 . S
C2339 C2347 1.503 . S
C2340 C2339 1.410 . S
C2340 C2341 1.392 . S
C2340 C2343 1.511 . S
C2341 C2337 1.376 . S
C2341 C2340 1.392 . S
C2341 H2353 0.929 . S
C2342 C2338 1.531 . S
C2342 H2354 0.960 . S
C2342 H2355 0.962 . S
C2342 H2356 0.960 . S
C2343 C2340 1.511 . S
C2343 H2357 0.961 . S
C2343 H2358 0.961 . S
C2343 H2359 0.961 . S
C2344 C2345 1.370 . S
C2344 C2346 1.363 . S
C2344 H2360 0.931 . S
C2345 C2344 1.370 . S
C2345 C2349 1.408 . S
C2346 C2344 1.363 . S
C2346 C2347 1.370 . S
C2346 C2350 1.524 . S
C2347 C2339 1.503 . S
C2347 C2346 1.370 . S
C2347 C2348 1.403 . S
C2348 C2347 1.403 . S
C2348 C2349 1.404 . S
C2348 C2351 1.539 . S
C2349 C2345 1.408 . S
C2349 C2348 1.404 . S
C2349 H2361 0.930 . S
C2350 C2346 1.524 . S
C2350 H2362 0.956 . S
C2350 H2363 0.961 . S
C2350 H2364 0.961 . S
C2351 C2348 1.539 . S
C2351 H2365 0.958 . S
C2351 H2366 0.961 . S
C2351 H2367 0.960 . S
H2352 C2336 0.931 . S
H2353 C2341 0.929 . S
H2354 C2342 0.960 . S
H2355 C2342 0.962 . S
H2356 C2342 0.960 . S
H2357 C2343 0.961 . S
H2358 C2343 0.961 . S
H2359 C2343 0.961 . S
H2360 C2344 0.931 . S
H2361 C2349 0.930 . S
H2362 C2350 0.956 . S
H2363 C2350 0.961 . S
H2364 C2350 0.961 . S
H2365 C2351 0.958 . S
H2366 C2351 0.961 . S
H2367 C2351 0.960 . S
C2368 C2369 1.391 . S
C2368 C2370 1.394 . S
C2368 H2384 0.931 . S
C2369 C2368 1.391 . S
C2369 C2373 1.376 . S
C2370 C2368 1.394 . S
C2370 C2371 1.369 . S
C2370 C2374 1.531 . S
C2371 C2370 1.369 . S
C2371 C2372 1.410 . S
C2371 C2379 1.503 . S
C2372 C2371 1.410 . S
C2372 C2373 1.392 . S
C2372 C2375 1.511 . S
C2373 C2369 1.376 . S
C2373 C2372 1.392 . S
C2373 H2385 0.929 . S
C2374 C2370 1.531 . S
C2374 H2386 0.960 . S
C2374 H2387 0.962 . S
C2374 H2388 0.960 . S
C2375 C2372 1.511 . S
C2375 H2389 0.961 . S
C2375 H2390 0.961 . S
C2375 H2391 0.961 . S
C2376 C2377 1.370 . S
C2376 C2378 1.363 . S
C2376 H2392 0.931 . S
C2377 C2376 1.370 . S
C2377 C2381 1.408 . S
C2378 C2376 1.363 . S
C2378 C2379 1.370 . S
C2378 C2382 1.524 . S
C2379 C2371 1.503 . S
C2379 C2378 1.370 . S
C2379 C2380 1.403 . S
C2380 C2379 1.403 . S
C2380 C2381 1.404 . S
C2380 C2383 1.539 . S
C2381 C2377 1.408 . S
C2381 C2380 1.404 . S
C2381 H2393 0.930 . S
C2382 C2378 1.524 . S
C2382 H2394 0.956 . S
C2382 H2395 0.961 . S
C2382 H2396 0.961 . S
C2383 C2380 1.539 . S
C2383 H2397 0.958 . S
C2383 H2398 0.961 . S
C2383 H2399 0.960 . S
H2384 C2368 0.931 . S
H2385 C2373 0.929 . S
H2386 C2374 0.960 . S
H2387 C2374 0.962 . S
H2388 C2374 0.960 . S
H2389 C2375 0.961 . S
H2390 C2375 0.961 . S
H2391 C2375 0.961 . S
H2392 C2376 0.931 . S
H2393 C2381 0.930 . S
H2394 C2382 0.956 . S
H2395 C2382 0.961 . S
H2396 C2382 0.961 . S
H2397 C2383 0.958 . S
H2398 C2383 0.961 . S
H2399 C2383 0.960 . S
C865 C506 1.443 . S
C873 C4 1.458 . S
C897 C40 1.267 . S
C905 C554 1.271 . S
C929 C650 1.431 . S
C937 C75 1.454 . S
C961 C111 1.313 . S
C969 C471 1.319 . S
C993 C518 1.425 . S
C1001 C147 1.470 . S
C1025 C182 1.290 . S
C1033 C542 1.309 . S
C1057 C220 1.438 . S
C1065 C662 1.401 . S
C1089 C266 1.241 . S
C1097 C472 1.291 . S
C1121 C328 1.445 . S
C1129 C302 1.393 . S
C1153 C374 1.453 . S
C1161 C327 1.472 . S
C1185 C362 1.440 . S
C1193 C400 1.458 . S
C1217 C399 1.450 . S
C1225 C290 1.427 . S
C1249 C446 1.275 . S
C1257 C112 1.284 . S
C1281 C148 1.445 . S
C1289 C590 1.392 . S
C1313 C615 1.319 . S
C1321 C39 1.320 . S
C1345 C50 1.370 . S
C1353 C759 1.385 . S
C1377 C338 1.569 . S
C1385 C2 1.601 . S
C1409 C832 1.425 . S
C1417 C110 1.427 . S
C1441 C410 1.556 . S
C1449 C86 1.586 . S
C1473 C760 1.425 . S
C1481 C256 1.432 . S
C1505 C326 1.589 . S
C1513 C218 1.572 . S
C1537 C183 1.435 . S
C1545 C831 1.441 . S
C1569 C158 1.602 . S
C1577 C398 1.614 . S
C1601 C543 1.433 . S
C1609 C687 1.443 . S
C1633 C580 1.440 . S
C1641 C544 1.437 . S
C1665 C482 1.373 . S
C1673 C579 1.385 . S
C1697 C688 1.425 . S
C1705 C470 1.438 . S
C1729 C74 1.586 . S
C1737 C734 1.579 . S
C1761 C363 1.433 . S
C1769 C255 1.441 . S
C1793 C14 1.559 . S
C1801 C806 1.593 . S
C1825 C686 1.424 . S
C1833 C76 1.456 . S
C1857 C3 1.450 . S
C1865 C578 1.425 . S
C1889 C698 1.436 . S
C1897 C219 1.472 . S
C1921 C434 1.300 . S
C1929 C254 1.297 . S
C1953 C194 1.228 . S
C1961 C616 1.293 . S
C1985 C770 1.428 . S
C1993 C724 1.430 . S
C2017 C842 1.412 . S
C2025 C723 1.470 . S
C2049 C796 1.458 . S
C2057 C830 1.447 . S
C2081 C758 1.447 . S
C2089 C795 1.453 . S
C2113 C291 1.384 . S
C2121 C122 1.352 . S
C2145 C38 1.434 . S
C2153 C364 1.441 . S
C2177 C184 1.421 . S
C2185 C292 1.440 . S
C2209 C722 1.589 . S
C2217 C146 1.576 . S
C2241 C230 1.596 . S
C2249 C794 1.609 . S
C2273 C435 1.443 . S
C2281 C507 1.445 . S
C2305 C652 1.442 . S
C2313 C436 1.430 . S
C2337 C626 1.317 . S
C2345 C651 1.383 . S
C2369 C508 1.429 . S
C2377 C614 1.438 . S
