# Generated by pormake.
# Topology mer, (4)-cn, num edge types: 1
# Building blocks:
#     Node 0, Type 0, BuildingBlock: CEKHIL_clean_sbu_0, # of connection points: 4
#     Node 1, Type 0, BuildingBlock: CEKHIL_clean_sbu_0, # of connection points: 4
#     Node 2, Type 0, BuildingBlock: CEKHIL_clean_sbu_0, # of connection points: 4
#     Node 3, Type 0, BuildingBlock: CEKHIL_clean_sbu_0, # of connection points: 4
#     Node 4, Type 0, BuildingBlock: CEKHIL_clean_sbu_0, # of connection points: 4
#     Node 5, Type 0, BuildingBlock: CEKHIL_clean_sbu_0, # of connection points: 4
#     Node 6, Type 0, BuildingBlock: CEKHIL_clean_sbu_0, # of connection points: 4
#     Node 7, Type 0, BuildingBlock: CEKHIL_clean_sbu_0, # of connection points: 4
#     Node 8, Type 0, BuildingBlock: CEKHIL_clean_sbu_0, # of connection points: 4
#     Node 9, Type 0, BuildingBlock: CEKHIL_clean_sbu_0, # of connection points: 4
#     Node 10, Type 0, BuildingBlock: CEKHIL_clean_sbu_0, # of connection points: 4
#     Node 11, Type 0, BuildingBlock: CEKHIL_clean_sbu_0, # of connection points: 4
#     Node 12, Type 0, BuildingBlock: CEKHIL_clean_sbu_0, # of connection points: 4
#     Node 13, Type 0, BuildingBlock: CEKHIL_clean_sbu_0, # of connection points: 4
#     Node 14, Type 0, BuildingBlock: CEKHIL_clean_sbu_0, # of connection points: 4
#     Node 15, Type 0, BuildingBlock: CEKHIL_clean_sbu_0, # of connection points: 4
#     Node 16, Type 0, BuildingBlock: CEKHIL_clean_sbu_0, # of connection points: 4
#     Node 17, Type 0, BuildingBlock: CEKHIL_clean_sbu_0, # of connection points: 4
#     Node 18, Type 0, BuildingBlock: CEKHIL_clean_sbu_0, # of connection points: 4
#     Node 19, Type 0, BuildingBlock: CEKHIL_clean_sbu_0, # of connection points: 4
#     Node 20, Type 0, BuildingBlock: CEKHIL_clean_sbu_0, # of connection points: 4
#     Node 21, Type 0, BuildingBlock: CEKHIL_clean_sbu_0, # of connection points: 4
#     Node 22, Type 0, BuildingBlock: CEKHIL_clean_sbu_0, # of connection points: 4
#     Node 23, Type 0, BuildingBlock: CEKHIL_clean_sbu_0, # of connection points: 4
#     Node 24, Type 0, BuildingBlock: CEKHIL_clean_sbu_0, # of connection points: 4
#     Node 25, Type 0, BuildingBlock: CEKHIL_clean_sbu_0, # of connection points: 4
#     Node 26, Type 0, BuildingBlock: CEKHIL_clean_sbu_0, # of connection points: 4
#     Node 27, Type 0, BuildingBlock: CEKHIL_clean_sbu_0, # of connection points: 4
#     Node 28, Type 0, BuildingBlock: CEKHIL_clean_sbu_0, # of connection points: 4
#     Node 29, Type 0, BuildingBlock: CEKHIL_clean_sbu_0, # of connection points: 4
#     Node 30, Type 0, BuildingBlock: CEKHIL_clean_sbu_0, # of connection points: 4
#     Node 31, Type 0, BuildingBlock: CEKHIL_clean_sbu_0, # of connection points: 4
#     Edge 32, Type (0, 0), BuildingBlock: XUDNAN_clean_linker_2, # of connection points: 2
#     Edge 33, Type (0, 0), BuildingBlock: XUDNAN_clean_linker_2, # of connection points: 2
#     Edge 34, Type (0, 0), BuildingBlock: XUDNAN_clean_linker_2, # of connection points: 2
#     Edge 35, Type (0, 0), BuildingBlock: XUDNAN_clean_linker_2, # of connection points: 2
#     Edge 36, Type (0, 0), BuildingBlock: XUDNAN_clean_linker_2, # of connection points: 2
#     Edge 37, Type (0, 0), BuildingBlock: XUDNAN_clean_linker_2, # of connection points: 2
#     Edge 38, Type (0, 0), BuildingBlock: XUDNAN_clean_linker_2, # of connection points: 2
#     Edge 39, Type (0, 0), BuildingBlock: XUDNAN_clean_linker_2, # of connection points: 2
#     Edge 40, Type (0, 0), BuildingBlock: XUDNAN_clean_linker_2, # of connection points: 2
#     Edge 41, Type (0, 0), BuildingBlock: XUDNAN_clean_linker_2, # of connection points: 2
#     Edge 42, Type (0, 0), BuildingBlock: XUDNAN_clean_linker_2, # of connection points: 2
#     Edge 43, Type (0, 0), BuildingBlock: XUDNAN_clean_linker_2, # of connection points: 2
#     Edge 44, Type (0, 0), BuildingBlock: XUDNAN_clean_linker_2, # of connection points: 2
#     Edge 45, Type (0, 0), BuildingBlock: XUDNAN_clean_linker_2, # of connection points: 2
#     Edge 46, Type (0, 0), BuildingBlock: XUDNAN_clean_linker_2, # of connection points: 2
#     Edge 47, Type (0, 0), BuildingBlock: XUDNAN_clean_linker_2, # of connection points: 2
#     Edge 48, Type (0, 0), BuildingBlock: XUDNAN_clean_linker_2, # of connection points: 2
#     Edge 49, Type (0, 0), BuildingBlock: XUDNAN_clean_linker_2, # of connection points: 2
#     Edge 50, Type (0, 0), BuildingBlock: XUDNAN_clean_linker_2, # of connection points: 2
#     Edge 51, Type (0, 0), BuildingBlock: XUDNAN_clean_linker_2, # of connection points: 2
#     Edge 52, Type (0, 0), BuildingBlock: XUDNAN_clean_linker_2, # of connection points: 2
#     Edge 53, Type (0, 0), BuildingBlock: XUDNAN_clean_linker_2, # of connection points: 2
#     Edge 54, Type (0, 0), BuildingBlock: XUDNAN_clean_linker_2, # of connection points: 2
#     Edge 55, Type (0, 0), BuildingBlock: XUDNAN_clean_linker_2, # of connection points: 2
#     Edge 56, Type (0, 0), BuildingBlock: XUDNAN_clean_linker_2, # of connection points: 2
#     Edge 57, Type (0, 0), BuildingBlock: XUDNAN_clean_linker_2, # of connection points: 2
#     Edge 58, Type (0, 0), BuildingBlock: XUDNAN_clean_linker_2, # of connection points: 2
#     Edge 59, Type (0, 0), BuildingBlock: XUDNAN_clean_linker_2, # of connection points: 2
#     Edge 60, Type (0, 0), BuildingBlock: XUDNAN_clean_linker_2, # of connection points: 2
#     Edge 61, Type (0, 0), BuildingBlock: XUDNAN_clean_linker_2, # of connection points: 2
#     Edge 62, Type (0, 0), BuildingBlock: XUDNAN_clean_linker_2, # of connection points: 2
#     Edge 63, Type (0, 0), BuildingBlock: XUDNAN_clean_linker_2, # of connection points: 2
#     Edge 64, Type (0, 0), BuildingBlock: XUDNAN_clean_linker_2, # of connection points: 2
#     Edge 65, Type (0, 0), BuildingBlock: XUDNAN_clean_linker_2, # of connection points: 2
#     Edge 66, Type (0, 0), BuildingBlock: XUDNAN_clean_linker_2, # of connection points: 2
#     Edge 67, Type (0, 0), BuildingBlock: XUDNAN_clean_linker_2, # of connection points: 2
#     Edge 68, Type (0, 0), BuildingBlock: XUDNAN_clean_linker_2, # of connection points: 2
#     Edge 69, Type (0, 0), BuildingBlock: XUDNAN_clean_linker_2, # of connection points: 2
#     Edge 70, Type (0, 0), BuildingBlock: XUDNAN_clean_linker_2, # of connection points: 2
#     Edge 71, Type (0, 0), BuildingBlock: XUDNAN_clean_linker_2, # of connection points: 2
#     Edge 72, Type (0, 0), BuildingBlock: XUDNAN_clean_linker_2, # of connection points: 2
#     Edge 73, Type (0, 0), BuildingBlock: XUDNAN_clean_linker_2, # of connection points: 2
#     Edge 74, Type (0, 0), BuildingBlock: XUDNAN_clean_linker_2, # of connection points: 2
#     Edge 75, Type (0, 0), BuildingBlock: XUDNAN_clean_linker_2, # of connection points: 2
#     Edge 76, Type (0, 0), BuildingBlock: XUDNAN_clean_linker_2, # of connection points: 2
#     Edge 77, Type (0, 0), BuildingBlock: XUDNAN_clean_linker_2, # of connection points: 2
#     Edge 78, Type (0, 0), BuildingBlock: XUDNAN_clean_linker_2, # of connection points: 2
#     Edge 79, Type (0, 0), BuildingBlock: XUDNAN_clean_linker_2, # of connection points: 2
#     Edge 80, Type (0, 0), BuildingBlock: XUDNAN_clean_linker_2, # of connection points: 2
#     Edge 81, Type (0, 0), BuildingBlock: XUDNAN_clean_linker_2, # of connection points: 2
#     Edge 82, Type (0, 0), BuildingBlock: XUDNAN_clean_linker_2, # of connection points: 2
#     Edge 83, Type (0, 0), BuildingBlock: XUDNAN_clean_linker_2, # of connection points: 2
#     Edge 84, Type (0, 0), BuildingBlock: XUDNAN_clean_linker_2, # of connection points: 2
#     Edge 85, Type (0, 0), BuildingBlock: XUDNAN_clean_linker_2, # of connection points: 2
#     Edge 86, Type (0, 0), BuildingBlock: XUDNAN_clean_linker_2, # of connection points: 2
#     Edge 87, Type (0, 0), BuildingBlock: XUDNAN_clean_linker_2, # of connection points: 2
#     Edge 88, Type (0, 0), BuildingBlock: XUDNAN_clean_linker_2, # of connection points: 2
#     Edge 89, Type (0, 0), BuildingBlock: XUDNAN_clean_linker_2, # of connection points: 2
#     Edge 90, Type (0, 0), BuildingBlock: XUDNAN_clean_linker_2, # of connection points: 2
#     Edge 91, Type (0, 0), BuildingBlock: XUDNAN_clean_linker_2, # of connection points: 2
#     Edge 92, Type (0, 0), BuildingBlock: XUDNAN_clean_linker_2, # of connection points: 2
#     Edge 93, Type (0, 0), BuildingBlock: XUDNAN_clean_linker_2, # of connection points: 2
#     Edge 94, Type (0, 0), BuildingBlock: XUDNAN_clean_linker_2, # of connection points: 2
#     Edge 95, Type (0, 0), BuildingBlock: XUDNAN_clean_linker_2, # of connection points: 2
# Relax obj value: 0.065
# Max RMSD: 0.119
# Mean RMSD: 0.119
data_MOF--net-mer--node1-CEKHIL_clean_sbu_0--edge1-XUDNAN_clean_linker_2
_symmetry_space_group_name_H-M    P1
_symmetry_Int_Tables_number       1
_symmetry_cell_setting            triclinic
loop_
_symmetry_equiv_pos_as_xyz
'x, y, z'
_cell_length_a     62.240588
_cell_length_b     62.226704
_cell_length_c     53.083
_cell_angle_alpha  90.008689
_cell_angle_beta   90.005
_cell_angle_gamma 90.008071
loop_
_atom_site_label
_atom_site_type_symbol
_atom_site_fract_x
_atom_site_fract_y
_atom_site_fract_z
_atom_type_partial_charge
Co0 Co 0.10687 0.29113 0.35659 0.0
O1 O 0.08057 0.30694 0.35532 0.0
O2 O 0.08302 0.27245 0.36553 0.0
C3 C 0.12055 0.30241 0.31969 0.0
O4 O 0.13174 0.26979 0.35915 0.0
Co5 Co 0.14883 0.3171 0.36173 0.0
O6 O 0.16222 0.28886 0.3547 0.0
C7 C 0.12177 0.31187 0.40622 0.0
C8 C 0.0711 0.28947 0.3626 0.0
C9 C 0.1523 0.27099 0.35648 0.0
O10 O 0.10998 0.29924 0.39303 0.0
O11 O 0.13786 0.32198 0.39702 0.0
O12 O 0.10665 0.28685 0.32052 0.0
O13 O 0.12358 0.31254 0.34076 0.0
Co14 Co 0.71234 0.12107 0.35663 0.0
O15 O 0.69971 0.0936 0.36373 0.0
O16 O 0.73404 0.10169 0.36939 0.0
C17 C 0.69721 0.12523 0.31844 0.0
O18 O 0.73128 0.14727 0.35004 0.0
Co19 Co 0.68387 0.16162 0.34907 0.0
O20 O 0.71025 0.17259 0.33253 0.0
C21 C 0.69114 0.14433 0.40033 0.0
C22 C 0.71883 0.08736 0.3702 0.0
C23 C 0.72871 0.16493 0.33774 0.0
O24 O 0.70533 0.13118 0.39179 0.0
O25 O 0.67989 0.15659 0.38611 0.0
O26 O 0.71438 0.11359 0.32108 0.0
O27 O 0.68869 0.13217 0.33907 0.0
Co28 Co 0.88861 0.71576 0.35013 0.0
O29 O 0.91462 0.69959 0.35087 0.0
O30 O 0.91226 0.73443 0.35954 0.0
C31 C 0.87647 0.70323 0.31316 0.0
O32 O 0.86412 0.7375 0.35063 0.0
Co33 Co 0.84576 0.69095 0.35356 0.0
O34 O 0.83324 0.71932 0.34502 0.0
C35 C 0.87205 0.69562 0.39891 0.0
C36 C 0.92401 0.71717 0.35793 0.0
C37 C 0.84367 0.73689 0.34687 0.0
O38 O 0.88402 0.70861 0.38651 0.0
O39 O 0.85633 0.68546 0.38889 0.0
O40 O 0.89031 0.71884 0.31393 0.0
O41 O 0.87227 0.69411 0.33454 0.0
Co42 Co 0.29151 0.88737 0.35715 0.0
O43 O 0.30422 0.91567 0.35617 0.0
O44 O 0.27028 0.90859 0.36571 0.0
C45 C 0.30478 0.87512 0.32043 0.0
O46 O 0.27197 0.86127 0.35894 0.0
Co47 Co 0.31846 0.8461 0.36136 0.0
O48 O 0.2912 0.83128 0.35273 0.0
C49 C 0.3116 0.87211 0.40679 0.0
C50 C 0.28532 0.92279 0.36248 0.0
C51 C 0.27326 0.84094 0.35501 0.0
O52 O 0.29939 0.88448 0.39374 0.0
O53 O 0.32171 0.85614 0.39727 0.0
O54 O 0.28799 0.88753 0.32096 0.0
O55 O 0.31449 0.87235 0.34182 0.0
Co56 Co 0.1128 0.70275 0.64031 0.0
O57 O 0.08932 0.68285 0.64049 0.0
O58 O 0.0856 0.71815 0.63847 0.0
C59 C 0.13115 0.68703 0.67204 0.0
O60 O 0.1336 0.72825 0.64074 0.0
Co61 Co 0.15908 0.68643 0.6282 0.0
O62 O 0.16713 0.71474 0.64245 0.0
C63 C 0.12738 0.69114 0.58726 0.0
C64 C 0.07657 0.69928 0.63926 0.0
C65 C 0.15403 0.73045 0.64387 0.0
O66 O 0.11433 0.70078 0.60236 0.0
O67 O 0.14517 0.68283 0.59445 0.0
O68 O 0.11553 0.70023 0.67708 0.0
O69 O 0.13373 0.68256 0.64855 0.0
Co70 Co 0.29345 0.11529 0.63982 0.0
O71 O 0.31053 0.08994 0.64233 0.0
O72 O 0.27624 0.09008 0.6313 0.0
C73 C 0.30384 0.12981 0.67663 0.0
O74 O 0.27099 0.13911 0.63625 0.0
Co75 Co 0.31751 0.15849 0.63474 0.0
O76 O 0.28856 0.17046 0.64116 0.0
C77 C 0.31431 0.13064 0.59056 0.0
C78 C 0.29378 0.07915 0.63533 0.0
C79 C 0.27121 0.15973 0.63892 0.0
O80 O 0.30208 0.11824 0.60351 0.0
O81 O 0.32336 0.14734 0.59981 0.0
O82 O 0.28869 0.11547 0.67585 0.0
O83 O 0.31388 0.13309 0.6556 0.0
Co84 Co 0.88227 0.28132 0.64901 0.0
O85 O 0.91034 0.29343 0.64451 0.0
O86 O 0.90307 0.25865 0.64296 0.0
C87 C 0.87398 0.30062 0.68337 0.0
O88 O 0.85517 0.26317 0.65398 0.0
Co89 Co 0.84231 0.31034 0.64339 0.0
O90 O 0.82822 0.28638 0.66163 0.0
C91 C 0.86484 0.29568 0.59789 0.0
C92 C 0.91732 0.27395 0.64183 0.0
C93 C 0.83592 0.26741 0.66142 0.0
O94 O 0.87674 0.2838 0.6119 0.0
O95 O 0.85074 0.30861 0.60679 0.0
O96 O 0.88546 0.28328 0.68517 0.0
O97 O 0.86956 0.30695 0.66072 0.0
Co98 Co 0.7185 0.89406 0.64093 0.0
O99 O 0.7054 0.9221 0.64105 0.0
O100 O 0.7395 0.91567 0.63193 0.0
C101 C 0.70486 0.88255 0.67792 0.0
O102 O 0.73804 0.86769 0.6398 0.0
Co103 Co 0.69055 0.85329 0.63727 0.0
O104 O 0.71773 0.83826 0.64549 0.0
C105 C 0.69728 0.87909 0.5918 0.0
C106 C 0.72404 0.92958 0.63442 0.0
C107 C 0.73601 0.84732 0.64345 0.0
O108 O 0.7106 0.89065 0.60439 0.0
O109 O 0.68645 0.86376 0.60168 0.0
O110 O 0.72176 0.89481 0.67728 0.0
O111 O 0.69541 0.8795 0.65646 0.0
Co112 Co 0.88171 0.70219 0.6366 0.0
O113 O 0.90546 0.68274 0.63766 0.0
O114 O 0.90876 0.71804 0.63525 0.0
C115 C 0.86313 0.68666 0.66815 0.0
O116 O 0.86005 0.72703 0.63615 0.0
Co117 Co 0.83659 0.68357 0.62284 0.0
O118 O 0.82708 0.71206 0.63512 0.0
C119 C 0.86878 0.68983 0.58298 0.0
C120 C 0.91803 0.69929 0.63655 0.0
C121 C 0.83936 0.72836 0.63745 0.0
O122 O 0.88101 0.6999 0.59863 0.0
O123 O 0.85123 0.68065 0.58946 0.0
O124 O 0.87846 0.70016 0.6733 0.0
O125 O 0.8612 0.68158 0.64473 0.0
Co126 Co 0.28597 0.88558 0.64119 0.0
O127 O 0.30497 0.90961 0.64208 0.0
O128 O 0.27032 0.91191 0.63318 0.0
C129 C 0.29701 0.87091 0.67774 0.0
O130 O 0.26159 0.8635 0.63967 0.0
Co131 Co 0.30626 0.84066 0.63566 0.0
O132 O 0.27728 0.83149 0.64675 0.0
C133 C 0.30402 0.86832 0.59124 0.0
C134 C 0.28877 0.92155 0.63595 0.0
C135 C 0.26058 0.84325 0.64479 0.0
O136 O 0.29283 0.88152 0.60443 0.0
O137 O 0.31222 0.85117 0.60045 0.0
O138 O 0.28289 0.88626 0.6775 0.0
O139 O 0.30574 0.86653 0.65617 0.0
Co140 Co 0.11038 0.28605 0.64064 0.0
O141 O 0.08169 0.29757 0.64387 0.0
O142 O 0.08951 0.26388 0.63403 0.0
C143 C 0.12419 0.30035 0.67608 0.0
O144 O 0.13706 0.2675 0.63674 0.0
Co145 Co 0.15059 0.31455 0.6339 0.0
O146 O 0.16677 0.28762 0.64048 0.0
C147 C 0.12195 0.3074 0.59053 0.0
C148 C 0.07494 0.27837 0.63826 0.0
C149 C 0.15754 0.2694 0.63885 0.0
O150 O 0.11085 0.29412 0.60382 0.0
O151 O 0.13777 0.31815 0.59941 0.0
O152 O 0.11285 0.28283 0.67701 0.0
O153 O 0.12515 0.30976 0.6544 0.0
Co154 Co 0.70546 0.12041 0.63241 0.0
O155 O 0.69465 0.09216 0.62476 0.0
O156 O 0.72901 0.10128 0.62444 0.0
C157 C 0.68482 0.12484 0.66701 0.0
O158 O 0.72308 0.14725 0.64068 0.0
Co159 Co 0.67625 0.16098 0.63584 0.0
O160 O 0.70072 0.17266 0.65539 0.0
C161 C 0.6879 0.14229 0.58596 0.0
C162 C 0.71454 0.08634 0.62202 0.0
C163 C 0.71955 0.16509 0.65229 0.0
O164 O 0.70186 0.12946 0.59588 0.0
O165 O 0.67559 0.15445 0.59903 0.0
O166 O 0.70282 0.11433 0.66875 0.0
O167 O 0.67972 0.13121 0.64479 0.0
Co168 Co 0.87892 0.29489 0.35965 0.0
O169 O 0.90395 0.31165 0.3669 0.0
O170 O 0.90397 0.27635 0.36128 0.0
C171 C 0.86522 0.31662 0.3298 0.0
O172 O 0.85602 0.27256 0.35119 0.0
Co173 Co 0.8337 0.31425 0.37054 0.0
O174 O 0.82454 0.2903 0.34828 0.0
C175 C 0.86069 0.29957 0.4127 0.0
C176 C 0.91469 0.2938 0.36632 0.0
C177 C 0.8361 0.27366 0.34481 0.0
O178 O 0.87387 0.29111 0.39687 0.0
O179 O 0.84448 0.31089 0.406 0.0
O180 O 0.88021 0.30292 0.32405 0.0
O181 O 0.86087 0.31822 0.35349 0.0
Co182 Co 0.71536 0.89549 0.35794 0.0
O183 O 0.70244 0.92361 0.35863 0.0
O184 O 0.73661 0.91663 0.36707 0.0
C185 C 0.70144 0.88448 0.321 0.0
O186 O 0.73493 0.86936 0.35813 0.0
Co187 Co 0.68824 0.85434 0.36137 0.0
O188 O 0.71529 0.83967 0.35154 0.0
C189 C 0.69515 0.87962 0.40721 0.0
C190 C 0.7213 0.93072 0.3651 0.0
C191 C 0.73336 0.84913 0.35356 0.0
O192 O 0.70799 0.89156 0.39448 0.0
O193 O 0.68451 0.86415 0.39735 0.0
O194 O 0.71826 0.89685 0.32168 0.0
O195 O 0.69213 0.88098 0.34249 0.0
Co196 Co 0.11492 0.71115 0.35349 0.0
O197 O 0.08834 0.6959 0.35216 0.0
O198 O 0.09158 0.73051 0.36173 0.0
C199 C 0.12887 0.69909 0.31729 0.0
O200 O 0.14002 0.73204 0.35601 0.0
Co201 Co 0.15673 0.68487 0.35951 0.0
O202 O 0.17043 0.71286 0.35162 0.0
C203 C 0.12868 0.69036 0.40321 0.0
C204 C 0.0793 0.71373 0.35906 0.0
C205 C 0.16054 0.73076 0.35313 0.0
O206 O 0.11748 0.70345 0.39 0.0
O207 O 0.14466 0.6799 0.39425 0.0
O208 O 0.11521 0.71489 0.31735 0.0
O209 O 0.13144 0.68927 0.33861 0.0
Co210 Co 0.28626 0.11616 0.35837 0.0
O211 O 0.29989 0.08838 0.35658 0.0
O212 O 0.26592 0.09407 0.36712 0.0
C213 C 0.29874 0.12893 0.32156 0.0
O214 O 0.26597 0.14173 0.36107 0.0
Co215 Co 0.31234 0.15816 0.36213 0.0
O216 O 0.28439 0.17233 0.35535 0.0
C217 C 0.30831 0.13075 0.40689 0.0
C218 C 0.28142 0.08048 0.36326 0.0
C219 C 0.26673 0.1622 0.3578 0.0
O220 O 0.29504 0.11885 0.39468 0.0
O221 O 0.31807 0.14676 0.39697 0.0
O222 O 0.28213 0.11627 0.32219 0.0
O223 O 0.30853 0.13183 0.34282 0.0
Co224 Co 0.61604 0.79413 0.85201 0.0
O225 O 0.58772 0.80695 0.85138 0.0
O226 O 0.59458 0.77202 0.85221 0.0
C227 C 0.63115 0.8146 0.82158 0.0
O228 O 0.64187 0.77428 0.85161 0.0
Co229 Co 0.65756 0.81861 0.86638 0.0
O230 O 0.67291 0.79227 0.85523 0.0
C231 C 0.6269 0.80596 0.90625 0.0
C232 C 0.58045 0.78733 0.8517 0.0
C233 C 0.66249 0.77491 0.85167 0.0
O234 O 0.6161 0.79486 0.89014 0.0
O235 O 0.64284 0.81786 0.90003 0.0
O236 O 0.61907 0.79834 0.81556 0.0
O237 O 0.63207 0.81902 0.84533 0.0
Co238 Co 0.21097 0.61072 0.8575 0.0
O239 O 0.19815 0.5826 0.85681 0.0
O240 O 0.23151 0.58963 0.86889 0.0
C241 C 0.19979 0.62126 0.81916 0.0
O242 O 0.23012 0.63718 0.85946 0.0
Co243 Co 0.18286 0.65185 0.85595 0.0
O244 O 0.21073 0.6667 0.85058 0.0
C245 C 0.1846 0.62578 0.90219 0.0
C246 C 0.21652 0.57547 0.86486 0.0
C247 C 0.22865 0.65742 0.85474 0.0
O248 O 0.20045 0.61509 0.89304 0.0
O249 O 0.17406 0.63975 0.8895 0.0
O250 O 0.21669 0.60916 0.82149 0.0
O251 O 0.18909 0.62472 0.83961 0.0
Co252 Co 0.39093 0.20908 0.85639 0.0
O253 O 0.41718 0.19328 0.858 0.0
O254 O 0.41495 0.22887 0.85917 0.0
C255 C 0.37566 0.19073 0.82452 0.0
O256 O 0.36602 0.23038 0.8549 0.0
Co257 Co 0.34881 0.18436 0.8695 0.0
O258 O 0.33536 0.21117 0.85692 0.0
C259 C 0.37849 0.19635 0.91002 0.0
C260 C 0.42679 0.21164 0.8605 0.0
C261 C 0.34536 0.22888 0.85389 0.0
O262 O 0.38906 0.20791 0.89426 0.0
O263 O 0.36291 0.18414 0.90349 0.0
O264 O 0.3895 0.20585 0.81967 0.0
O265 O 0.3738 0.18565 0.84798 0.0
Co266 Co 0.79256 0.38118 0.86499 0.0
O267 O 0.80391 0.40993 0.86693 0.0
O268 O 0.76955 0.4012 0.87099 0.0
C269 C 0.81155 0.3716 0.8306 0.0
O270 O 0.77414 0.35431 0.86283 0.0
Co271 Co 0.82026 0.33988 0.86857 0.0
O272 O 0.79396 0.32461 0.85728 0.0
C273 C 0.81298 0.36714 0.91355 0.0
C274 C 0.78416 0.4161 0.87032 0.0
C275 C 0.77586 0.33412 0.85815 0.0
O276 O 0.79759 0.37722 0.90237 0.0
O277 O 0.82496 0.35336 0.90242 0.0
O278 O 0.79374 0.38231 0.82795 0.0
O279 O 0.81752 0.36804 0.85343 0.0
Co280 Co 0.61702 0.20527 0.13394 0.0
O281 O 0.58841 0.19306 0.1353 0.0
O282 O 0.59589 0.22753 0.12987 0.0
C283 C 0.63038 0.18728 0.1674 0.0
O284 O 0.64332 0.22467 0.13287 0.0
Co285 Co 0.65899 0.17896 0.12628 0.0
O286 O 0.67414 0.20607 0.13477 0.0
C287 C 0.62806 0.18466 0.08449 0.0
C288 C 0.58146 0.21263 0.13238 0.0
C289 C 0.6639 0.22379 0.13483 0.0
O290 O 0.61836 0.19995 0.09633 0.0
O291 O 0.64285 0.17314 0.0944 0.0
O292 O 0.61885 0.20447 0.17096 0.0
O293 O 0.63212 0.18103 0.1444 0.0
Co294 Co 0.79165 0.61675 0.13635 0.0
O295 O 0.80349 0.58811 0.13633 0.0
O296 O 0.76879 0.59593 0.1344 0.0
C297 C 0.81177 0.63031 0.16776 0.0
O298 O 0.77312 0.6437 0.13712 0.0
Co299 Co 0.81915 0.65697 0.12359 0.0
O300 O 0.79376 0.67329 0.13564 0.0
C301 C 0.8062 0.62746 0.08304 0.0
C302 C 0.78376 0.58137 0.13471 0.0
C303 C 0.77556 0.66422 0.13844 0.0
O304 O 0.79366 0.61757 0.09845 0.0
O305 O 0.81891 0.64256 0.08983 0.0
O306 O 0.79494 0.61872 0.17298 0.0
O307 O 0.81692 0.63135 0.14425 0.0
Co308 Co 0.38894 0.78321 0.14553 0.0
O309 O 0.41667 0.79681 0.14789 0.0
O310 O 0.41129 0.76173 0.14451 0.0
C311 C 0.37296 0.80196 0.17688 0.0
O312 O 0.36304 0.76312 0.14352 0.0
Co313 Co 0.34835 0.80961 0.13109 0.0
O314 O 0.33288 0.78266 0.13926 0.0
C315 C 0.37997 0.79841 0.0919 0.0
C316 C 0.42478 0.77762 0.14642 0.0
C317 C 0.34244 0.7647 0.14214 0.0
O318 O 0.38979 0.78595 0.10751 0.0
O319 O 0.36435 0.81059 0.09838 0.0
O320 O 0.38504 0.78553 0.1822 0.0
O321 O 0.3727 0.80754 0.15349 0.0
Co322 Co 0.20022 0.3832 0.13531 0.0
O323 O 0.18152 0.40755 0.13546 0.0
O324 O 0.21679 0.4096 0.13101 0.0
C325 C 0.18539 0.3667 0.16911 0.0
O326 O 0.22434 0.36077 0.1353 0.0
Co327 Co 0.17956 0.33818 0.12578 0.0
O328 O 0.2084 0.32824 0.1364 0.0
C329 C 0.1828 0.36939 0.08449 0.0
C330 C 0.19835 0.41947 0.13222 0.0
C331 C 0.2251 0.34011 0.13757 0.0
O332 O 0.19625 0.3806 0.09745 0.0
O333 O 0.1726 0.35327 0.0935 0.0
O334 O 0.19945 0.38189 0.17242 0.0
O335 O 0.17944 0.36381 0.14613 0.0
Co336 Co 0.38823 0.21592 0.14753 0.0
O337 O 0.41592 0.20207 0.1487 0.0
O338 O 0.41076 0.23721 0.14603 0.0
C339 C 0.37265 0.19689 0.1788 0.0
O340 O 0.36239 0.23619 0.14669 0.0
Co341 Co 0.34704 0.19004 0.13384 0.0
O342 O 0.33206 0.21664 0.14447 0.0
C343 C 0.37819 0.20115 0.09416 0.0
C344 C 0.42416 0.22119 0.14696 0.0
C345 C 0.34174 0.23458 0.14696 0.0
O346 O 0.38824 0.21358 0.10956 0.0
O347 O 0.3626 0.18902 0.10088 0.0
O348 O 0.38502 0.21311 0.18425 0.0
O349 O 0.372 0.19168 0.15534 0.0
Co350 Co 0.78541 0.38873 0.14162 0.0
O351 O 0.79786 0.41695 0.1416 0.0
O352 O 0.76458 0.4095 0.1297 0.0
C353 C 0.79675 0.37945 0.18041 0.0
O354 O 0.76694 0.36168 0.14016 0.0
Co355 Co 0.81487 0.34855 0.14456 0.0
O356 O 0.7874 0.33286 0.1491 0.0
C357 C 0.81183 0.37299 0.09718 0.0
C358 C 0.77946 0.42385 0.13346 0.0
C359 C 0.76919 0.34145 0.14465 0.0
O360 O 0.79599 0.3838 0.10621 0.0
O361 O 0.82282 0.35964 0.11026 0.0
O362 O 0.77954 0.39099 0.17755 0.0
O363 O 0.80757 0.37571 0.1601 0.0
Co364 Co 0.61781 0.79323 0.14543 0.0
O365 O 0.58905 0.80486 0.14623 0.0
O366 O 0.59716 0.77021 0.14503 0.0
C367 C 0.6319 0.81414 0.17609 0.0
O368 O 0.64476 0.77477 0.14559 0.0
Co369 Co 0.65766 0.82041 0.13097 0.0
O370 O 0.67448 0.79496 0.1419 0.0
C371 C 0.62768 0.80614 0.0912 0.0
C372 C 0.58247 0.78502 0.14573 0.0
C373 C 0.66532 0.7769 0.14546 0.0
O374 O 0.61771 0.79428 0.10731 0.0
O375 O 0.64287 0.81899 0.0974 0.0
O376 O 0.62065 0.79725 0.18192 0.0
O377 O 0.63249 0.81885 0.15241 0.0
Co378 Co 0.20239 0.61406 0.13378 0.0
O379 O 0.18361 0.58987 0.13611 0.0
O380 O 0.21841 0.5875 0.12815 0.0
C381 C 0.19039 0.63112 0.16857 0.0
O382 O 0.22648 0.63643 0.13104 0.0
Co383 Co 0.1807 0.65889 0.12545 0.0
O384 O 0.21047 0.66897 0.13121 0.0
C385 C 0.18111 0.6272 0.08473 0.0
C386 C 0.20004 0.5778 0.13126 0.0
C387 C 0.22725 0.65719 0.13161 0.0
O388 O 0.19566 0.61636 0.09646 0.0
O389 O 0.1713 0.64321 0.09452 0.0
O390 O 0.2044 0.61574 0.1708 0.0
O391 O 0.18266 0.63368 0.1463 0.0
Co392 Co 0.3869 0.78747 0.85346 0.0
O393 O 0.4146 0.80115 0.85112 0.0
O394 O 0.40921 0.76603 0.85401 0.0
C395 C 0.37052 0.80614 0.82255 0.0
O396 O 0.36109 0.76739 0.8552 0.0
Co397 Co 0.34625 0.81317 0.86889 0.0
O398 O 0.33075 0.78676 0.85844 0.0
C399 C 0.378 0.80127 0.90767 0.0
C400 C 0.42268 0.78193 0.85224 0.0
C401 C 0.34046 0.7689 0.8555 0.0
O402 O 0.388 0.78962 0.89143 0.0
O403 O 0.362 0.81324 0.90189 0.0
O404 O 0.38286 0.78996 0.81701 0.0
O405 O 0.3704 0.81178 0.84597 0.0
Co406 Co 0.21103 0.38248 0.85429 0.0
O407 O 0.19793 0.41058 0.85306 0.0
O408 O 0.23199 0.40404 0.86258 0.0
C409 C 0.19735 0.36964 0.81783 0.0
O410 O 0.23092 0.35668 0.85639 0.0
Co411 Co 0.18424 0.34062 0.85832 0.0
O412 O 0.21235 0.32578 0.85503 0.0
C413 C 0.18726 0.36974 0.9018 0.0
C414 C 0.2167 0.418 0.85946 0.0
C415 C 0.23006 0.33606 0.85547 0.0
O416 O 0.20286 0.37976 0.89108 0.0
O417 O 0.17622 0.35519 0.8907 0.0
O418 O 0.21412 0.38209 0.8175 0.0
O419 O 0.18837 0.36705 0.83953 0.0
Co420 Co 0.61672 0.20661 0.85559 0.0
O421 O 0.58974 0.19235 0.85974 0.0
O422 O 0.59506 0.22724 0.86597 0.0
C423 C 0.6249 0.19163 0.81831 0.0
O424 O 0.64247 0.22665 0.85253 0.0
Co425 Co 0.65845 0.17932 0.85466 0.0
O426 O 0.67228 0.20701 0.84575 0.0
C427 C 0.63424 0.18461 0.90178 0.0
C428 C 0.58199 0.21091 0.86609 0.0
C429 C 0.66271 0.22505 0.84771 0.0
O430 O 0.62378 0.20018 0.89173 0.0
O431 O 0.64726 0.17268 0.8894 0.0
O432 O 0.61235 0.20828 0.8194 0.0
O433 O 0.6304 0.18342 0.8397 0.0
Co434 Co 0.78059 0.60789 0.85029 0.0
O435 O 0.79292 0.57972 0.84902 0.0
O436 O 0.75923 0.58678 0.85974 0.0
C437 C 0.7931 0.61974 0.81328 0.0
O438 O 0.76233 0.63499 0.85263 0.0
Co439 Co 0.81072 0.64726 0.85396 0.0
O440 O 0.78399 0.66351 0.84685 0.0
C441 C 0.80345 0.62111 0.89899 0.0
C442 C 0.77434 0.57261 0.85631 0.0
C443 C 0.76535 0.65527 0.84917 0.0
O444 O 0.78941 0.61046 0.88648 0.0
O445 O 0.81498 0.63594 0.88916 0.0
O446 O 0.77603 0.60777 0.81427 0.0
O447 O 0.80357 0.6219 0.83424 0.0
H448 H 0.26205 0.2059 0.35564 0.0
H449 H 0.22525 0.14667 0.35903 0.0
H450 H 0.19155 0.16775 0.35851 0.0
H451 H 0.22794 0.23646 0.39614 0.0
H452 H 0.2315 0.26103 0.37865 0.0
H453 H 0.25246 0.24111 0.37892 0.0
H454 H 0.25191 0.23992 0.33008 0.0
H455 H 0.23093 0.25983 0.32966 0.0
H456 H 0.22701 0.23445 0.31395 0.0
H457 H 0.16159 0.19604 0.35803 0.0
H458 H 0.13869 0.22865 0.35778 0.0
H459 H 0.19605 0.26834 0.35467 0.0
C460 C 0.24695 0.19726 0.35619 0.0
C461 C 0.24636 0.17459 0.35734 0.0
C462 C 0.22617 0.16403 0.35817 0.0
C463 C 0.20692 0.17586 0.35785 0.0
C464 C 0.20814 0.19822 0.35675 0.0
C465 C 0.2277 0.20874 0.35596 0.0
C466 C 0.22485 0.23283 0.35517 0.0
C467 C 0.23477 0.24348 0.37862 0.0
C468 C 0.23423 0.24231 0.33076 0.0
C469 C 0.20063 0.23429 0.35551 0.0
C470 C 0.19117 0.21424 0.35647 0.0
C471 C 0.16887 0.21182 0.35724 0.0
C472 C 0.15599 0.23043 0.35709 0.0
C473 C 0.16549 0.25112 0.35616 0.0
C474 C 0.18813 0.25285 0.35529 0.0
H475 H 0.76679 0.16977 0.36317 0.0
H476 H 0.7326 0.18961 0.29592 0.0
H477 H 0.76158 0.21518 0.28591 0.0
H478 H 0.78103 0.21981 0.38165 0.0
H479 H 0.80725 0.2133 0.39388 0.0
H480 H 0.78675 0.19302 0.39274 0.0
H481 H 0.81186 0.16846 0.36655 0.0
H482 H 0.83253 0.18875 0.36763 0.0
H483 H 0.82347 0.17844 0.33772 0.0
H484 H 0.78947 0.24295 0.28743 0.0
H485 H 0.81452 0.27154 0.3008 0.0
H486 H 0.83177 0.2343 0.36665 0.0
C487 C 0.7659 0.17893 0.34586 0.0
C488 C 0.74762 0.17765 0.33018 0.0
C489 C 0.74654 0.19037 0.30813 0.0
C490 C 0.763 0.20481 0.30219 0.0
C491 C 0.78048 0.20633 0.31846 0.0
C492 C 0.78215 0.19367 0.33981 0.0
C493 C 0.801 0.20067 0.35598 0.0
C494 C 0.79355 0.20709 0.38262 0.0
C495 C 0.81824 0.18303 0.35702 0.0
C496 C 0.80883 0.21997 0.34113 0.0
C497 C 0.79704 0.22261 0.31925 0.0
C498 C 0.7993 0.24073 0.30405 0.0
C499 C 0.8135 0.25687 0.31175 0.0
C500 C 0.82532 0.2547 0.33432 0.0
C501 C 0.82347 0.2358 0.3488 0.0
H502 H 0.80063 0.74151 0.33816 0.0
H503 H 0.85845 0.77828 0.35376 0.0
H504 H 0.83678 0.8116 0.35501 0.0
H505 H 0.7742 0.78151 0.29875 0.0
H506 H 0.74797 0.77515 0.31107 0.0
H507 H 0.76838 0.75467 0.30955 0.0
H508 H 0.76381 0.74753 0.35738 0.0
H509 H 0.74349 0.76804 0.35908 0.0
H510 H 0.76672 0.76949 0.37928 0.0
H511 H 0.80809 0.84061 0.35703 0.0
H512 H 0.77516 0.86268 0.35938 0.0
H513 H 0.73668 0.80619 0.34271 0.0
C514 C 0.80889 0.75655 0.34156 0.0
C515 C 0.8313 0.75723 0.34586 0.0
C516 C 0.84133 0.77732 0.35033 0.0
C517 C 0.82915 0.79634 0.35108 0.0
C518 C 0.80703 0.79496 0.34718 0.0
C519 C 0.79705 0.77555 0.34239 0.0
C520 C 0.773 0.77811 0.33987 0.0
C521 C 0.76545 0.772 0.31322 0.0
C522 C 0.76107 0.76502 0.36011 0.0
C523 C 0.77087 0.80197 0.34444 0.0
C524 C 0.79064 0.81148 0.34845 0.0
C525 C 0.79254 0.83334 0.35374 0.0
C526 C 0.77372 0.84573 0.35507 0.0
C527 C 0.75327 0.8362 0.35125 0.0
C528 C 0.75199 0.81404 0.3457 0.0
H529 H 0.20389 0.73402 0.34574 0.0
H530 H 0.14679 0.77261 0.35871 0.0
H531 H 0.16924 0.80542 0.35898 0.0
H532 H 0.2384 0.76293 0.38596 0.0
H533 H 0.26162 0.76017 0.36593 0.0
H534 H 0.24086 0.74004 0.36534 0.0
H535 H 0.23654 0.74529 0.31714 0.0
H536 H 0.25735 0.76541 0.31756 0.0
H537 H 0.23126 0.77176 0.30482 0.0
H538 H 0.19848 0.83382 0.3596 0.0
H539 H 0.23177 0.85538 0.36037 0.0
H540 H 0.26922 0.79757 0.34708 0.0
C541 C 0.19597 0.74933 0.34847 0.0
C542 C 0.17353 0.75069 0.35223 0.0
C543 C 0.16394 0.77113 0.35575 0.0
C544 C 0.17656 0.78986 0.35593 0.0
C545 C 0.19868 0.78783 0.35244 0.0
C546 C 0.20825 0.76807 0.34869 0.0
C547 C 0.23236 0.77004 0.34609 0.0
C548 C 0.24398 0.75756 0.36708 0.0
C549 C 0.23981 0.76269 0.31984 0.0
C550 C 0.23496 0.79402 0.34933 0.0
C551 C 0.21538 0.80405 0.35283 0.0
C552 C 0.21388 0.82613 0.35674 0.0
C553 C 0.23291 0.83824 0.35717 0.0
C554 C 0.25318 0.8282 0.3538 0.0
C555 C 0.25405 0.8058 0.34969 0.0
H556 H 0.19122 0.73969 0.668 0.0
H557 H 0.13867 0.76972 0.62765 0.0
H558 H 0.15841 0.8044 0.62814 0.0
H559 H 0.2068 0.78732 0.70668 0.0
H560 H 0.23486 0.78052 0.70417 0.0
H561 H 0.21486 0.75958 0.70422 0.0
H562 H 0.22993 0.74519 0.66192 0.0
H563 H 0.2498 0.76611 0.66161 0.0
H564 H 0.23177 0.76307 0.63527 0.0
H565 H 0.18705 0.83442 0.62776 0.0
H566 H 0.22061 0.85605 0.62731 0.0
H567 H 0.25317 0.80531 0.66831 0.0
C568 C 0.18358 0.75368 0.6598 0.0
C569 C 0.16344 0.75205 0.64777 0.0
C570 C 0.15401 0.77069 0.63719 0.0
C571 C 0.16514 0.79042 0.63735 0.0
C572 C 0.18545 0.79124 0.64857 0.0
C573 C 0.19434 0.77333 0.65994 0.0
C574 C 0.217 0.77751 0.66882 0.0
C575 C 0.21845 0.77616 0.69769 0.0
C576 C 0.23305 0.76206 0.65613 0.0
C577 C 0.21994 0.80029 0.65974 0.0
C578 C 0.20158 0.80821 0.64841 0.0
C579 C 0.20136 0.82847 0.63701 0.0
C580 C 0.22047 0.84066 0.63684 0.0
C581 C 0.23953 0.83236 0.6477 0.0
C582 C 0.23891 0.81217 0.6598 0.0
H583 H 0.26672 0.20334 0.63994 0.0
H584 H 0.22947 0.14434 0.63765 0.0
H585 H 0.19594 0.16587 0.63755 0.0
H586 H 0.23224 0.23272 0.68096 0.0
H587 H 0.23649 0.25787 0.66487 0.0
H588 H 0.2572 0.23769 0.66474 0.0
H589 H 0.25774 0.2383 0.61589 0.0
H590 H 0.23704 0.2585 0.61586 0.0
H591 H 0.23314 0.23379 0.59875 0.0
H592 H 0.16645 0.19458 0.6377 0.0
H593 H 0.14394 0.2273 0.63785 0.0
H594 H 0.20151 0.26671 0.64001 0.0
C595 C 0.25158 0.19477 0.63948 0.0
C596 C 0.25079 0.17206 0.63887 0.0
C597 C 0.23052 0.1617 0.63813 0.0
C598 C 0.21141 0.17381 0.63808 0.0
C599 C 0.21289 0.1962 0.63871 0.0
C600 C 0.23252 0.20651 0.63936 0.0
C601 C 0.23003 0.23067 0.63977 0.0
C602 C 0.23955 0.24029 0.66403 0.0
C603 C 0.24008 0.24091 0.61616 0.0
C604 C 0.20585 0.23249 0.63941 0.0
C605 C 0.19618 0.21249 0.63876 0.0
C606 C 0.1739 0.21029 0.63821 0.0
C607 C 0.16125 0.229 0.63829 0.0
C608 C 0.17092 0.24966 0.63894 0.0
C609 C 0.19354 0.25125 0.63955 0.0
H610 H 0.75999 0.16849 0.63172 0.0
H611 H 0.72001 0.19155 0.69295 0.0
H612 H 0.74878 0.21638 0.70602 0.0
H613 H 0.81327 0.17461 0.66473 0.0
H614 H 0.82633 0.1838 0.63641 0.0
H615 H 0.80431 0.16504 0.63444 0.0
H616 H 0.78415 0.19092 0.60441 0.0
H617 H 0.80604 0.2097 0.60628 0.0
H618 H 0.77921 0.21821 0.61427 0.0
H619 H 0.77879 0.24201 0.70881 0.0
H620 H 0.80816 0.26766 0.70056 0.0
H621 H 0.82963 0.22866 0.63775 0.0
C622 C 0.75762 0.17832 0.64832 0.0
C623 C 0.73786 0.17804 0.66145 0.0
C624 C 0.73503 0.19155 0.68265 0.0
C625 C 0.75134 0.20558 0.69032 0.0
C626 C 0.77042 0.20595 0.67662 0.0
C627 C 0.77372 0.19267 0.65609 0.0
C628 C 0.79471 0.19809 0.64295 0.0
C629 C 0.8106 0.17926 0.64475 0.0
C630 C 0.79078 0.20463 0.61536 0.0
C631 C 0.80219 0.21704 0.65869 0.0
C632 C 0.78807 0.22099 0.67827 0.0
C633 C 0.79024 0.23882 0.69393 0.0
C634 C 0.80692 0.25331 0.68908 0.0
C635 C 0.82128 0.24989 0.66881 0.0
C636 C 0.81924 0.23123 0.65384 0.0
H637 H 0.7967 0.73554 0.64501 0.0
H638 H 0.85743 0.76919 0.63697 0.0
H639 H 0.83802 0.804 0.63951 0.0
H640 H 0.76641 0.76995 0.60653 0.0
H641 H 0.7424 0.76769 0.62532 0.0
H642 H 0.76142 0.74594 0.6246 0.0
H643 H 0.76457 0.74729 0.6733 0.0
H644 H 0.74548 0.76902 0.67419 0.0
H645 H 0.77155 0.77224 0.6885 0.0
H646 H 0.8106 0.83537 0.64059 0.0
H647 H 0.77879 0.85936 0.64072 0.0
H648 H 0.73726 0.80363 0.64787 0.0
C649 C 0.80613 0.75014 0.64398 0.0
C650 C 0.82867 0.74955 0.64075 0.0
C651 C 0.84017 0.76919 0.63952 0.0
C652 C 0.82926 0.78903 0.64091 0.0
C653 C 0.80692 0.78889 0.64364 0.0
C654 C 0.7956 0.76985 0.64526 0.0
C655 C 0.7717 0.77362 0.6472 0.0
C656 C 0.7598 0.76372 0.62456 0.0
C657 C 0.76281 0.76504 0.67229 0.0
C658 C 0.77114 0.79784 0.64631 0.0
C659 C 0.79151 0.80651 0.64428 0.0
C660 C 0.79462 0.82867 0.64236 0.0
C661 C 0.77645 0.84218 0.64242 0.0
C662 C 0.75545 0.83346 0.64437 0.0
C663 C 0.753 0.81097 0.6465 0.0
H664 H 0.70627 0.76889 0.84938 0.0
H665 H 0.6456 0.73435 0.84793 0.0
H666 H 0.6652 0.70001 0.84599 0.0
H667 H 0.73479 0.73313 0.80642 0.0
H668 H 0.75978 0.73548 0.82335 0.0
H669 H 0.74091 0.75743 0.82347 0.0
H670 H 0.74063 0.757 0.87231 0.0
H671 H 0.7594 0.735 0.87233 0.0
H672 H 0.73412 0.73243 0.88862 0.0
H673 H 0.69143 0.6692 0.84657 0.0
H674 H 0.72248 0.64446 0.84793 0.0
H675 H 0.76572 0.69929 0.84838 0.0
C676 C 0.69707 0.75415 0.84842 0.0
C677 C 0.67437 0.75441 0.84883 0.0
C678 C 0.66299 0.73466 0.8476 0.0
C679 C 0.67397 0.71502 0.84651 0.0
C680 C 0.69632 0.71535 0.84649 0.0
C681 C 0.70775 0.73439 0.84722 0.0
C682 C 0.7317 0.7303 0.84746 0.0
C683 C 0.74242 0.73963 0.82376 0.0
C684 C 0.74207 0.73921 0.87162 0.0
C685 C 0.73194 0.70598 0.84713 0.0
C686 C 0.7114 0.69763 0.84654 0.0
C687 C 0.70762 0.67555 0.84684 0.0
C688 C 0.72535 0.66162 0.84769 0.0
C689 C 0.74657 0.66987 0.84819 0.0
C690 C 0.74975 0.69238 0.84784 0.0
H691 H 0.23188 0.7013 0.85124 0.0
H692 H 0.27048 0.64336 0.85711 0.0
H693 H 0.30347 0.66542 0.85619 0.0
H694 H 0.26711 0.73025 0.80919 0.0
H695 H 0.26223 0.7558 0.82414 0.0
H696 H 0.24174 0.73536 0.82444 0.0
H697 H 0.24008 0.73738 0.87319 0.0
H698 H 0.26051 0.75785 0.87303 0.0
H699 H 0.26434 0.73371 0.89124 0.0
H700 H 0.33232 0.69408 0.85513 0.0
H701 H 0.35452 0.727 0.85578 0.0
H702 H 0.29666 0.76583 0.85111 0.0
C703 C 0.24723 0.69317 0.85222 0.0
C704 C 0.24853 0.67055 0.85421 0.0
C705 C 0.26902 0.66065 0.85561 0.0
C706 C 0.28787 0.67304 0.85502 0.0
C707 C 0.28596 0.69529 0.85306 0.0
C708 C 0.26615 0.70525 0.85176 0.0
C709 C 0.26841 0.72943 0.85048 0.0
C710 C 0.25934 0.73822 0.82558 0.0
C711 C 0.25771 0.74022 0.87335 0.0
C712 C 0.2926 0.73157 0.85146 0.0
C713 C 0.30248 0.71172 0.85275 0.0
C714 C 0.32475 0.70972 0.85409 0.0
C715 C 0.33723 0.72852 0.8544 0.0
C716 C 0.32738 0.74905 0.85355 0.0
C717 C 0.30475 0.75044 0.85183 0.0
H718 H 0.30192 0.2309 0.84732 0.0
H719 H 0.35857 0.27128 0.85403 0.0
H720 H 0.33531 0.30357 0.85339 0.0
H721 H 0.27101 0.26636 0.80629 0.0
H722 H 0.24603 0.25969 0.82159 0.0
H723 H 0.26741 0.24021 0.82028 0.0
H724 H 0.26619 0.2366 0.86892 0.0
H725 H 0.24499 0.2562 0.87043 0.0
H726 H 0.26935 0.26025 0.88818 0.0
H727 H 0.30519 0.33127 0.85508 0.0
H728 H 0.27132 0.35186 0.85756 0.0
H729 H 0.23507 0.29252 0.85035 0.0
C730 C 0.3096 0.24649 0.84832 0.0
C731 C 0.33213 0.24851 0.85075 0.0
C732 C 0.34136 0.2693 0.85204 0.0
C733 C 0.32827 0.28773 0.85175 0.0
C734 C 0.30606 0.28504 0.85002 0.0
C735 C 0.29686 0.26491 0.84812 0.0
C736 C 0.27261 0.2661 0.84758 0.0
C737 C 0.26375 0.25759 0.82244 0.0
C738 C 0.26271 0.25408 0.87012 0.0
C739 C 0.26947 0.29007 0.84991 0.0
C740 C 0.2889 0.30079 0.85115 0.0
C741 C 0.28991 0.32303 0.85395 0.0
C742 C 0.27056 0.33457 0.85541 0.0
C743 C 0.25046 0.32383 0.8542 0.0
C744 C 0.25008 0.30127 0.85137 0.0
H745 H 0.70624 0.2279 0.84058 0.0
H746 H 0.64918 0.26704 0.85148 0.0
H747 H 0.67186 0.29961 0.85244 0.0
H748 H 0.73916 0.25568 0.88239 0.0
H749 H 0.76328 0.25319 0.86381 0.0
H750 H 0.74245 0.23326 0.86121 0.0
H751 H 0.74035 0.23966 0.81302 0.0
H752 H 0.76132 0.25954 0.81543 0.0
H753 H 0.73594 0.26647 0.80124 0.0
H754 H 0.70104 0.32751 0.85551 0.0
H755 H 0.73428 0.34866 0.86015 0.0
H756 H 0.77214 0.29097 0.84767 0.0
C757 C 0.69838 0.24331 0.84275 0.0
C758 C 0.67586 0.24486 0.84592 0.0
C759 C 0.66637 0.2654 0.84894 0.0
C760 C 0.67912 0.28401 0.84948 0.0
C761 C 0.7013 0.2818 0.84685 0.0
C762 C 0.71082 0.26198 0.84339 0.0
C763 C 0.73507 0.26378 0.84244 0.0
C764 C 0.7456 0.25071 0.86373 0.0
C765 C 0.74367 0.25696 0.81649 0.0
C766 C 0.73776 0.28767 0.84658 0.0
C767 C 0.7181 0.29782 0.84881 0.0
C768 C 0.71652 0.31976 0.85357 0.0
C769 C 0.73554 0.33162 0.85624 0.0
C770 C 0.75591 0.32151 0.85431 0.0
C771 C 0.75689 0.29924 0.8492 0.0
H772 H 0.70744 0.22914 0.14142 0.0
H773 H 0.64796 0.26488 0.13252 0.0
H774 H 0.6682 0.29889 0.13495 0.0
H775 H 0.73225 0.26553 0.1858 0.0
H776 H 0.75877 0.26217 0.17272 0.0
H777 H 0.73952 0.24062 0.17069 0.0
H778 H 0.74426 0.23958 0.12219 0.0
H779 H 0.76352 0.26112 0.12407 0.0
H780 H 0.74022 0.2638 0.10415 0.0
H781 H 0.69517 0.32917 0.1372 0.0
H782 H 0.72675 0.35316 0.13963 0.0
H783 H 0.76825 0.29743 0.14756 0.0
C784 C 0.69861 0.24409 0.14004 0.0
C785 C 0.67607 0.24425 0.13674 0.0
C786 C 0.66521 0.26425 0.13506 0.0
C787 C 0.67656 0.2837 0.13642 0.0
C788 C 0.69876 0.28293 0.13958 0.0
C789 C 0.70965 0.26364 0.14144 0.0
C790 C 0.73356 0.26721 0.14454 0.0
C791 C 0.74148 0.25836 0.16995 0.0
C792 C 0.74612 0.25734 0.12242 0.0
C793 C 0.73442 0.29151 0.14396 0.0
C794 C 0.71421 0.30031 0.14109 0.0
C795 C 0.71108 0.32246 0.13957 0.0
C796 C 0.72913 0.33596 0.14094 0.0
C797 C 0.75003 0.32726 0.14385 0.0
C798 C 0.75254 0.3047 0.14548 0.0
H799 H 0.77322 0.7083 0.13726 0.0
H800 H 0.73437 0.65115 0.14891 0.0
H801 H 0.70227 0.67394 0.15444 0.0
H802 H 0.74529 0.74262 0.18221 0.0
H803 H 0.74765 0.76616 0.16262 0.0
H804 H 0.76779 0.7454 0.16107 0.0
H805 H 0.76169 0.74198 0.11293 0.0
H806 H 0.74156 0.7627 0.11432 0.0
H807 H 0.73501 0.7368 0.10118 0.0
H808 H 0.67411 0.70287 0.15675 0.0
H809 H 0.65192 0.73567 0.15501 0.0
H810 H 0.7093 0.7738 0.14173 0.0
C811 C 0.75803 0.70052 0.14123 0.0
C812 C 0.75638 0.67789 0.14268 0.0
C813 C 0.7361 0.66844 0.14769 0.0
C814 C 0.71776 0.68125 0.15093 0.0
C815 C 0.71996 0.70348 0.14916 0.0
C816 C 0.73958 0.71304 0.14445 0.0
C817 C 0.73748 0.73722 0.14241 0.0
C818 C 0.75031 0.74851 0.16333 0.0
C819 C 0.74434 0.74513 0.11615 0.0
C820 C 0.71353 0.73975 0.14637 0.0
C821 C 0.70374 0.72013 0.15041 0.0
C822 C 0.68162 0.71835 0.15377 0.0
C823 C 0.66915 0.7371 0.15272 0.0
C824 C 0.67881 0.75739 0.14826 0.0
C825 C 0.70136 0.75862 0.14533 0.0
H826 H 0.23392 0.70002 0.1255 0.0
H827 H 0.26797 0.64059 0.14102 0.0
H828 H 0.30191 0.66132 0.14554 0.0
H829 H 0.27548 0.72562 0.08958 0.0
H830 H 0.26926 0.75183 0.10205 0.0
H831 H 0.24844 0.7319 0.09925 0.0
H832 H 0.23984 0.73608 0.14682 0.0
H833 H 0.26075 0.75589 0.14983 0.0
H834 H 0.26096 0.73238 0.16966 0.0
H835 H 0.33223 0.69001 0.14922 0.0
H836 H 0.35511 0.72265 0.15076 0.0
H837 H 0.29933 0.76188 0.13357 0.0
C838 C 0.24843 0.69115 0.12979 0.0
C839 C 0.24819 0.66861 0.13298 0.0
C840 C 0.26773 0.65785 0.13841 0.0
C841 C 0.28705 0.66951 0.14107 0.0
C842 C 0.2865 0.69185 0.13817 0.0
C843 C 0.2676 0.70242 0.13252 0.0
C844 C 0.27075 0.7264 0.13055 0.0
C845 C 0.26569 0.7344 0.10377 0.0
C846 C 0.25728 0.73838 0.1504 0.0
C847 C 0.29442 0.72791 0.13624 0.0
C848 C 0.30342 0.70793 0.14049 0.0
C849 C 0.32526 0.70569 0.14591 0.0
C850 C 0.33813 0.72433 0.14679 0.0
C851 C 0.32906 0.74492 0.1424 0.0
C852 C 0.30687 0.74651 0.1372 0.0
H853 H 0.23131 0.2974 0.14608 0.0
H854 H 0.2663 0.35728 0.13713 0.0
H855 H 0.30065 0.33729 0.14135 0.0
H856 H 0.26672 0.2727 0.19158 0.0
H857 H 0.26329 0.24633 0.17811 0.0
H858 H 0.24193 0.26577 0.17601 0.0
H859 H 0.24136 0.26145 0.12741 0.0
H860 H 0.26268 0.24202 0.12935 0.0
H861 H 0.26578 0.26548 0.10978 0.0
H862 H 0.33142 0.30937 0.14443 0.0
H863 H 0.35475 0.27709 0.14527 0.0
H864 H 0.29816 0.23672 0.15206 0.0
C865 C 0.2461 0.30652 0.14517 0.0
C866 C 0.24602 0.32899 0.14122 0.0
C867 C 0.2659 0.34008 0.14018 0.0
C868 C 0.28548 0.32885 0.14258 0.0
C869 C 0.28485 0.3066 0.14615 0.0
C870 C 0.26557 0.29567 0.14749 0.0
C871 C 0.26884 0.27175 0.15033 0.0
C872 C 0.25965 0.26367 0.1755 0.0
C873 C 0.25909 0.25947 0.12788 0.0
C874 C 0.29304 0.27071 0.15009 0.0
C875 C 0.30214 0.29089 0.14783 0.0
C876 C 0.32439 0.29355 0.14638 0.0
C877 C 0.33752 0.27511 0.14691 0.0
C878 C 0.32835 0.25429 0.14872 0.0
C879 C 0.30581 0.25231 0.15069 0.0
H880 H 0.94555 0.26413 0.35209 0.0
H881 H 0.93622 0.32386 0.39293 0.0
H882 H 0.97508 0.32635 0.40042 0.0
H883 H 0.99171 0.24401 0.39063 0.0
H884 H 0.00549 0.23321 0.36359 0.0
H885 H 0.97654 0.23427 0.36404 0.0
H886 H 0.97682 0.25579 0.32229 0.0
H887 H 0.00571 0.25482 0.32173 0.0
H888 H 0.9921 0.28036 0.32038 0.0
H889 H 0.01419 0.32514 0.39962 0.0
H890 H 0.05262 0.32025 0.39036 0.0
H891 H 0.03843 0.26108 0.3505 0.0
C892 C 0.95173 0.27743 0.36307 0.0
C893 C 0.9379 0.29379 0.372 0.0
C894 C 0.94653 0.31121 0.38584 0.0
C895 C 0.96858 0.3127 0.39035 0.0
C896 C 0.98186 0.29664 0.38091 0.0
C897 C 0.9739 0.27929 0.36759 0.0
C898 C 0.99214 0.26535 0.35777 0.0
C899 C 0.99142 0.24288 0.36973 0.0
C900 C 0.99165 0.26402 0.32883 0.0
C901 C 0.01148 0.27802 0.367 0.0
C902 C 0.005 0.29586 0.38056 0.0
C903 C 0.01953 0.31106 0.38944 0.0
C904 C 0.04128 0.3082 0.38399 0.0
C905 C 0.04835 0.29024 0.36995 0.0
C906 C 0.03337 0.27468 0.36175 0.0
H907 H 0.69018 0.05431 0.3689 0.0
H908 H 0.75736 0.06868 0.38283 0.0
H909 H 0.76501 0.02975 0.38634 0.0
H910 H 0.68632 0.00664 0.41023 0.0
H911 H 0.66874 0.99294 0.38855 0.0
H912 H 0.6683 0.02185 0.3905 0.0
H913 H 0.67553 0.02421 0.3425 0.0
H914 H 0.67623 0.99538 0.34042 0.0
H915 H 0.69878 0.01097 0.32947 0.0
H916 H 0.76571 0.98911 0.38417 0.0
H917 H 0.75936 0.95031 0.37726 0.0
H918 H 0.69178 0.9632 0.36398 0.0
C919 C 0.70643 0.04934 0.37328 0.0
C920 C 0.72318 0.06451 0.37572 0.0
C921 C 0.74427 0.05732 0.38105 0.0
C922 C 0.74875 0.03525 0.38307 0.0
C923 C 0.73193 0.02069 0.37981 0.0
C924 C 0.71116 0.02749 0.37523 0.0
C925 C 0.69621 0.00873 0.37063 0.0
C926 C 0.67887 0.00747 0.39121 0.0
C927 C 0.68611 0.0099 0.34419 0.0
C928 C 0.71189 0.99028 0.37268 0.0
C929 C 0.73238 0.99744 0.37826 0.0
C930 C 0.74969 0.98332 0.38007 0.0
C931 C 0.74594 0.96134 0.37604 0.0
C932 C 0.72508 0.95376 0.37007 0.0
C933 C 0.70789 0.96848 0.36858 0.0
H934 H 0.04867 0.74466 0.34918 0.0
H935 H 0.05873 0.68243 0.38404 0.0
H936 H 0.02008 0.67969 0.39315 0.0
H937 H 0.00269 0.76237 0.39068 0.0
H938 H 0.98861 0.77464 0.36473 0.0
H939 H 0.01757 0.77386 0.36485 0.0
H940 H 0.01721 0.75495 0.32137 0.0
H941 H 0.98832 0.75563 0.32114 0.0
H942 H 0.00219 0.73039 0.31754 0.0
H943 H 0.98115 0.68081 0.39339 0.0
H944 H 0.94274 0.6854 0.384 0.0
H945 H 0.95603 0.74685 0.34872 0.0
C946 C 0.04267 0.73082 0.35935 0.0
C947 C 0.05651 0.71378 0.36609 0.0
C948 C 0.04825 0.69558 0.37873 0.0
C949 C 0.02639 0.69397 0.38416 0.0
C950 C 0.01298 0.71068 0.37674 0.0
C951 C 0.02066 0.72879 0.3646 0.0
C952 C 0.00225 0.74309 0.35611 0.0
C953 C 0.00282 0.76478 0.36992 0.0
C954 C 0.00251 0.74618 0.32734 0.0
C955 C 0.98314 0.72969 0.36445 0.0
C956 C 0.98987 0.71127 0.37672 0.0
C957 C 0.9756 0.69533 0.38427 0.0
C958 C 0.95387 0.69802 0.37872 0.0
C959 C 0.94659 0.7165 0.36582 0.0
C960 C 0.96127 0.73281 0.3591 0.0
H961 H 0.31297 0.95642 0.35424 0.0
H962 H 0.2477 0.94157 0.37726 0.0
H963 H 0.2399 0.98031 0.38114 0.0
H964 H 0.32039 0.00244 0.39537 0.0
H965 H 0.33569 0.01734 0.37243 0.0
H966 H 0.33635 0.9884 0.3723 0.0
H967 H 0.32423 0.9882 0.32558 0.0
H968 H 0.32351 0.01713 0.32558 0.0
H969 H 0.29994 0.00207 0.31674 0.0
H970 H 0.23887 0.02062 0.38135 0.0
H971 H 0.24471 0.05977 0.37784 0.0
H972 H 0.31061 0.04832 0.35464 0.0
C973 C 0.29708 0.96131 0.36026 0.0
C974 C 0.28095 0.94599 0.36549 0.0
C975 C 0.26032 0.95303 0.37318 0.0
C976 C 0.25574 0.975 0.37546 0.0
C977 C 0.27196 0.9897 0.37002 0.0
C978 C 0.29222 0.98317 0.36261 0.0
C979 C 0.30662 0.00226 0.35732 0.0
C980 C 0.3259 0.00263 0.37544 0.0
C981 C 0.314 0.00242 0.32966 0.0
C982 C 0.29124 0.02053 0.36273 0.0
C983 C 0.27135 0.01294 0.3701 0.0
C984 C 0.2544 0.02677 0.3757 0.0
C985 C 0.25787 0.04897 0.37363 0.0
C986 C 0.27811 0.05708 0.366 0.0
C987 C 0.29499 0.04262 0.3606 0.0
H988 H 0.04408 0.72986 0.63517 0.0
H989 H 0.05561 0.66128 0.64286 0.0
H990 H 0.0168 0.65464 0.64281 0.0
H991 H 0.99697 0.73182 0.67516 0.0
H992 H 0.98278 0.75106 0.65599 0.0
H993 H 0.01173 0.75096 0.65643 0.0
H994 H 0.01234 0.74686 0.60789 0.0
H995 H 0.98339 0.74695 0.6073 0.0
H996 H 0.998 0.72493 0.59341 0.0
H997 H 0.97765 0.6547 0.64213 0.0
H998 H 0.93892 0.66137 0.64084 0.0
H999 H 0.95067 0.72996 0.63352 0.0
C1000 C 0.03838 0.71348 0.63682 0.0
C1001 C 0.05297 0.69609 0.63901 0.0
C1002 C 0.04486 0.67489 0.64112 0.0
C1003 C 0.02279 0.67091 0.64113 0.0
C1004 C 0.00888 0.68827 0.63895 0.0
C1005 C 0.01618 0.70915 0.63681 0.0
C1006 C 0.99737 0.72469 0.63471 0.0
C1007 C 0.99721 0.74057 0.6569 0.0
C1008 C 0.99781 0.73656 0.60932 0.0
C1009 C 0.9785 0.70919 0.63615 0.0
C1010 C 0.98572 0.6883 0.63855 0.0
C1011 C 0.97174 0.67097 0.64024 0.0
C1012 C 0.94969 0.67498 0.63947 0.0
C1013 C 0.94165 0.6962 0.63706 0.0
C1014 C 0.95631 0.71358 0.63537 0.0
H1015 H 0.25852 0.95461 0.63401 0.0
H1016 H 0.32691 0.94113 0.62907 0.0
H1017 H 0.33446 0.97955 0.62519 0.0
H1018 H 0.25926 0.00121 0.58968 0.0
H1019 H 0.23985 0.01631 0.6076 0.0
H1020 H 0.23901 0.98734 0.60772 0.0
H1021 H 0.24128 0.9874 0.65643 0.0
H1022 H 0.24217 0.01632 0.65646 0.0
H1023 H 0.26318 0.0012 0.6717 0.0
H1024 H 0.3357 0.01833 0.62514 0.0
H1025 H 0.33059 0.05719 0.62876 0.0
H1026 H 0.26148 0.04808 0.63354 0.0
C1027 C 0.27499 0.95982 0.63168 0.0
C1028 C 0.29212 0.94482 0.63186 0.0
C1029 C 0.31351 0.95224 0.6291 0.0
C1030 C 0.31801 0.97408 0.62675 0.0
C1031 C 0.30097 0.98846 0.62707 0.0
C1032 C 0.27987 0.98184 0.62936 0.0
C1033 C 0.26491 0.00119 0.63044 0.0
C1034 C 0.24986 0.00153 0.60749 0.0
C1035 C 0.25214 0.00154 0.65524 0.0
C1036 C 0.28107 0.01952 0.62927 0.0
C1037 C 0.30171 0.01157 0.62702 0.0
C1038 C 0.31963 0.02484 0.62664 0.0
C1039 C 0.31652 0.04694 0.62883 0.0
C1040 C 0.29564 0.0557 0.63144 0.0
C1041 C 0.27759 0.04182 0.63131 0.0
H1042 H 0.04101 0.30618 0.64234 0.0
H1043 H 0.05648 0.23887 0.631 0.0
H1044 H 0.01773 0.23019 0.6294 0.0
H1045 H 0.99579 0.29812 0.68228 0.0
H1046 H 0.9806 0.32012 0.66922 0.0
H1047 H 0.00951 0.32093 0.66886 0.0
H1048 H 0.00898 0.32649 0.62045 0.0
H1049 H 0.98005 0.32567 0.62068 0.0
H1050 H 0.99492 0.30748 0.60081 0.0
H1051 H 0.97687 0.22883 0.63053 0.0
H1052 H 0.93763 0.2352 0.63377 0.0
H1053 H 0.94964 0.30341 0.64343 0.0
C1054 C 0.03628 0.28962 0.63944 0.0
C1055 C 0.05176 0.2732 0.63683 0.0
C1056 C 0.04488 0.25173 0.63303 0.0
C1057 C 0.02291 0.24663 0.63209 0.0
C1058 C 0.00804 0.26321 0.63482 0.0
C1059 C 0.01447 0.28428 0.63832 0.0
C1060 C 0.99537 0.29912 0.64096 0.0
C1061 C 0.99532 0.31022 0.66687 0.0
C1062 C 0.9948 0.31566 0.61944 0.0
C1063 C 0.97718 0.28311 0.63868 0.0
C1064 C 0.98473 0.26247 0.63512 0.0
C1065 C 0.97078 0.24497 0.63316 0.0
C1066 C 0.94855 0.24871 0.63501 0.0
C1067 C 0.94057 0.26978 0.63874 0.0
C1068 C 0.95517 0.28712 0.6404 0.0
H1069 H 0.68761 0.05177 0.62406 0.0
H1070 H 0.75461 0.06904 0.61407 0.0
H1071 H 0.76439 0.03047 0.61375 0.0
H1072 H 0.69644 0.01009 0.66678 0.0
H1073 H 0.67523 0.99309 0.65506 0.0
H1074 H 0.6733 0.02179 0.65165 0.0
H1075 H 0.66855 0.01756 0.60338 0.0
H1076 H 0.67026 0.9888 0.60666 0.0
H1077 H 0.68823 0.00269 0.58559 0.0
H1078 H 0.76689 0.98974 0.6174 0.0
H1079 H 0.76188 0.95074 0.62459 0.0
H1080 H 0.69332 0.96091 0.63334 0.0
C1081 C 0.7043 0.04748 0.62127 0.0
C1082 C 0.72034 0.06342 0.61889 0.0
C1083 C 0.74204 0.0571 0.61575 0.0
C1084 C 0.74773 0.03523 0.61556 0.0
C1085 C 0.73154 0.01993 0.61854 0.0
C1086 C 0.71025 0.02582 0.62123 0.0
C1087 C 0.69602 0.00647 0.62566 0.0
C1088 C 0.68458 0.00796 0.65131 0.0
C1089 C 0.67981 0.00372 0.60403 0.0
C1090 C 0.71264 0.98875 0.6255 0.0
C1091 C 0.73302 0.99674 0.62113 0.0
C1092 C 0.75098 0.98332 0.62068 0.0
C1093 C 0.74799 0.96121 0.62483 0.0
C1094 C 0.72723 0.95279 0.62959 0.0
C1095 C 0.7094 0.96682 0.6298 0.0
H1096 H 0.54655 0.81572 0.85031 0.0
H1097 H 0.56186 0.74768 0.85305 0.0
H1098 H 0.52324 0.73895 0.85318 0.0
H1099 H 0.5006 0.81334 0.8913 0.0
H1100 H 0.48542 0.83302 0.87387 0.0
H1101 H 0.51434 0.83401 0.87379 0.0
H1102 H 0.51438 0.83258 0.82499 0.0
H1103 H 0.48546 0.83158 0.82492 0.0
H1104 H 0.50067 0.81093 0.80915 0.0
H1105 H 0.4831 0.73747 0.85333 0.0
H1106 H 0.44388 0.74345 0.85342 0.0
H1107 H 0.45451 0.81237 0.85041 0.0
C1108 C 0.54177 0.799 0.85092 0.0
C1109 C 0.55722 0.78239 0.85166 0.0
C1110 C 0.55032 0.76069 0.85245 0.0
C1111 C 0.52841 0.75555 0.85253 0.0
C1112 C 0.51359 0.77227 0.85179 0.0
C1113 C 0.51993 0.79356 0.85099 0.0
C1114 C 0.50067 0.80843 0.85037 0.0
C1115 C 0.50024 0.82306 0.87372 0.0
C1116 C 0.50028 0.82166 0.8259 0.0
C1117 C 0.48256 0.79217 0.85099 0.0
C1118 C 0.49038 0.77141 0.85181 0.0
C1119 C 0.47676 0.75365 0.85266 0.0
C1120 C 0.45452 0.75721 0.8527 0.0
C1121 C 0.44615 0.77836 0.85188 0.0
C1122 C 0.46042 0.79601 0.85098 0.0
H1123 H 0.18817 0.4511 0.85287 0.0
H1124 H 0.25398 0.43733 0.87461 0.0
H1125 H 0.26066 0.47611 0.88052 0.0
H1126 H 0.1995 0.49822 0.81764 0.0
H1127 H 0.17557 0.51224 0.82739 0.0
H1128 H 0.17572 0.48334 0.82611 0.0
H1129 H 0.16398 0.48171 0.87294 0.0
H1130 H 0.16385 0.51064 0.87437 0.0
H1131 H 0.17975 0.49544 0.89645 0.0
H1132 H 0.26052 0.51654 0.88266 0.0
H1133 H 0.25368 0.55562 0.87993 0.0
H1134 H 0.18803 0.54275 0.85677 0.0
C1135 C 0.20395 0.45622 0.85901 0.0
C1136 C 0.22055 0.4412 0.86329 0.0
C1137 C 0.24101 0.44856 0.87121 0.0
C1138 C 0.24496 0.47055 0.87469 0.0
C1139 C 0.22826 0.48495 0.87022 0.0
C1140 C 0.20817 0.47809 0.86256 0.0
C1141 C 0.19318 0.49689 0.85828 0.0
C1142 C 0.18555 0.49772 0.83072 0.0
C1143 C 0.17406 0.49612 0.87661 0.0
C1144 C 0.20808 0.5154 0.86435 0.0
C1145 C 0.2282 0.50819 0.87139 0.0
C1146 C 0.24479 0.52238 0.8773 0.0
C1147 C 0.24076 0.54453 0.8757 0.0
C1148 C 0.22033 0.55221 0.86817 0.0
C1149 C 0.20379 0.53739 0.86269 0.0
H1150 H 0.45887 0.23983 0.84569 0.0
H1151 H 0.44576 0.18407 0.89227 0.0
H1152 H 0.48389 0.18197 0.90398 0.0
H1153 H 0.50644 0.22002 0.82036 0.0
H1154 H 0.52071 0.24522 0.81953 0.0
H1155 H 0.49185 0.24498 0.81805 0.0
H1156 H 0.49013 0.27025 0.85677 0.0
H1157 H 0.51907 0.27052 0.8584 0.0
H1158 H 0.50353 0.26264 0.88553 0.0
H1159 H 0.52284 0.18235 0.9064 0.0
H1160 H 0.56172 0.1845 0.89816 0.0
H1161 H 0.55152 0.23993 0.85018 0.0
C1162 C 0.46408 0.22758 0.85882 0.0
C1163 C 0.44949 0.21214 0.86819 0.0
C1164 C 0.45678 0.19597 0.88483 0.0
C1165 C 0.47836 0.19476 0.89178 0.0
C1166 C 0.49252 0.20982 0.88187 0.0
C1167 C 0.48584 0.22592 0.8657 0.0
C1168 C 0.50499 0.23839 0.8556 0.0
C1169 C 0.50605 0.23706 0.82667 0.0
C1170 C 0.50439 0.26185 0.86462 0.0
C1171 C 0.52337 0.22617 0.86784 0.0
C1172 C 0.51564 0.21003 0.88328 0.0
C1173 C 0.52916 0.19519 0.89484 0.0
C1174 C 0.55117 0.1965 0.89001 0.0
C1175 C 0.55945 0.21256 0.87393 0.0
C1176 C 0.54551 0.22794 0.86317 0.0
H1177 H 0.81075 0.45051 0.8637 0.0
H1178 H 0.7446 0.43355 0.88018 0.0
H1179 H 0.73476 0.47207 0.88006 0.0
H1180 H 0.81258 0.49962 0.90107 0.0
H1181 H 0.82915 0.51342 0.87841 0.0
H1182 H 0.83103 0.48466 0.88163 0.0
H1183 H 0.8231 0.48028 0.83394 0.0
H1184 H 0.82107 0.50898 0.83061 0.0
H1185 H 0.79909 0.49205 0.82087 0.0
H1186 H 0.73205 0.5127 0.8762 0.0
H1187 H 0.73684 0.55176 0.86891 0.0
H1188 H 0.80462 0.54115 0.85428 0.0
C1189 C 0.79425 0.45488 0.86764 0.0
C1190 C 0.77845 0.43907 0.87205 0.0
C1191 C 0.75697 0.44544 0.87682 0.0
C1192 C 0.75124 0.46726 0.87681 0.0
C1193 C 0.76718 0.48244 0.87199 0.0
C1194 C 0.78825 0.4765 0.86757 0.0
C1195 C 0.8022 0.49575 0.86183 0.0
C1196 C 0.81977 0.49852 0.88194 0.0
C1197 C 0.81192 0.49416 0.83523 0.0
C1198 C 0.78566 0.51347 0.8634 0.0
C1199 C 0.76556 0.50558 0.86945 0.0
C1200 C 0.74774 0.51906 0.87156 0.0
C1201 C 0.75059 0.54118 0.86735 0.0
C1202 C 0.77106 0.54946 0.86096 0.0
C1203 C 0.78874 0.53534 0.85907 0.0
H1204 H 0.45568 0.19041 0.14831 0.0
H1205 H 0.44576 0.25916 0.14068 0.0
H1206 H 0.48487 0.26431 0.13549 0.0
H1207 H 0.50508 0.19358 0.18373 0.0
H1208 H 0.51693 0.17058 0.16846 0.0
H1209 H 0.48818 0.17239 0.17174 0.0
H1210 H 0.48389 0.16771 0.12348 0.0
H1211 H 0.51263 0.16601 0.12004 0.0
H1212 H 0.49771 0.18582 0.1025 0.0
H1213 H 0.52494 0.2619 0.13052 0.0
H1214 H 0.56332 0.25237 0.12764 0.0
H1215 H 0.54723 0.18513 0.13869 0.0
C1216 C 0.46172 0.20657 0.14566 0.0
C1217 C 0.44766 0.22441 0.14493 0.0
C1218 C 0.45622 0.24527 0.14137 0.0
C1219 C 0.47841 0.24835 0.13835 0.0
C1220 C 0.4918 0.2304 0.13897 0.0
C1221 C 0.48381 0.20993 0.14265 0.0
C1222 C 0.50167 0.19337 0.1426 0.0
C1223 C 0.50304 0.18181 0.16816 0.0
C1224 C 0.49879 0.17728 0.12086 0.0
C1225 C 0.52098 0.20773 0.13831 0.0
C1226 C 0.51491 0.22902 0.13619 0.0
C1227 C 0.52988 0.24529 0.13218 0.0
C1228 C 0.55166 0.23969 0.13053 0.0
C1229 C 0.5583 0.218 0.13293 0.0
C1230 C 0.54267 0.20184 0.13673 0.0
H1231 H 0.81157 0.54747 0.13846 0.0
H1232 H 0.74438 0.56299 0.12638 0.0
H1233 H 0.73598 0.52428 0.12256 0.0
H1234 H 0.81422 0.50257 0.09536 0.0
H1235 H 0.83189 0.48718 0.11532 0.0
H1236 H 0.83262 0.51611 0.11625 0.0
H1237 H 0.8257 0.51533 0.16441 0.0
H1238 H 0.82506 0.48642 0.16364 0.0
H1239 H 0.80262 0.50113 0.17643 0.0
H1240 H 0.73499 0.48352 0.12066 0.0
H1241 H 0.74132 0.44425 0.12291 0.0
H1242 H 0.80904 0.45604 0.1367 0.0
C1243 C 0.79509 0.54276 0.13492 0.0
C1244 C 0.77863 0.55823 0.13268 0.0
C1245 C 0.75725 0.55139 0.12819 0.0
C1246 C 0.75234 0.52945 0.1259 0.0
C1247 C 0.76898 0.51459 0.12818 0.0
C1248 C 0.78991 0.52098 0.13269 0.0
C1249 C 0.80476 0.50186 0.13517 0.0
C1250 C 0.82188 0.50194 0.11428 0.0
C1251 C 0.81513 0.50115 0.16147 0.0
C1252 C 0.78891 0.4837 0.13158 0.0
C1253 C 0.76837 0.4913 0.12736 0.0
C1254 C 0.75103 0.47739 0.12389 0.0
C1255 C 0.75477 0.45514 0.12515 0.0
C1256 C 0.77565 0.4471 0.12999 0.0
C1257 C 0.79289 0.46165 0.13295 0.0
H1258 H 0.45638 0.80819 0.14839 0.0
H1259 H 0.44629 0.73924 0.14449 0.0
H1260 H 0.4856 0.73359 0.14413 0.0
H1261 H 0.5019 0.80999 0.10709 0.0
H1262 H 0.51548 0.83072 0.12468 0.0
H1263 H 0.48659 0.82927 0.125 0.0
H1264 H 0.48697 0.82735 0.17377 0.0
H1265 H 0.51587 0.82881 0.17361 0.0
H1266 H 0.50256 0.80679 0.1892 0.0
H1267 H 0.52604 0.73554 0.14397 0.0
H1268 H 0.56459 0.7449 0.14393 0.0
H1269 H 0.54812 0.81262 0.14774 0.0
C1270 C 0.46241 0.79188 0.14753 0.0
C1271 C 0.44828 0.77413 0.14651 0.0
C1272 C 0.45683 0.75307 0.14531 0.0
C1273 C 0.47913 0.7497 0.1451 0.0
C1274 C 0.49261 0.76757 0.14607 0.0
C1275 C 0.48458 0.78824 0.14726 0.0
C1276 C 0.50251 0.8047 0.14794 0.0
C1277 C 0.50156 0.81954 0.1248 0.0
C1278 C 0.50194 0.81767 0.1726 0.0
C1279 C 0.5219 0.79005 0.14694 0.0
C1280 C 0.51586 0.7687 0.14589 0.0
C1281 C 0.53096 0.75221 0.14481 0.0
C1282 C 0.55282 0.75769 0.14479 0.0
C1283 C 0.55937 0.77948 0.14584 0.0
C1284 C 0.54364 0.79582 0.14693 0.0
H1285 H 0.22977 0.45152 0.13235 0.0
H1286 H 0.16093 0.44083 0.12639 0.0
H1287 H 0.15495 0.47961 0.12354 0.0
H1288 H 0.22631 0.4985 0.17106 0.0
H1289 H 0.24821 0.51263 0.15623 0.0
H1290 H 0.24783 0.48369 0.15638 0.0
H1291 H 0.25095 0.48334 0.10775 0.0
H1292 H 0.25136 0.51231 0.10745 0.0
H1293 H 0.23162 0.49796 0.08915 0.0
H1294 H 0.15537 0.51855 0.12329 0.0
H1295 H 0.16222 0.55723 0.12561 0.0
H1296 H 0.23081 0.54512 0.13153 0.0
C1297 C 0.21351 0.45741 0.1302 0.0
C1298 C 0.19582 0.44305 0.12962 0.0
C1299 C 0.17476 0.45139 0.12699 0.0
C1300 C 0.17115 0.47346 0.12526 0.0
C1301 C 0.18874 0.48716 0.12614 0.0
C1302 C 0.20953 0.47966 0.1285 0.0
C1303 C 0.22528 0.49837 0.12977 0.0
C1304 C 0.23763 0.49829 0.15486 0.0
C1305 C 0.24072 0.49796 0.10718 0.0
C1306 C 0.20994 0.51738 0.12818 0.0
C1307 C 0.18899 0.51031 0.12595 0.0
C1308 C 0.1717 0.52437 0.12488 0.0
C1309 C 0.1758 0.54637 0.12631 0.0
C1310 C 0.19705 0.55427 0.12878 0.0
C1311 C 0.21442 0.53956 0.12947 0.0
H1312 H 0.14782 0.3262 0.4449 0.0
H1313 H 0.08405 0.30121 0.42914 0.0
H1314 H 0.07624 0.30017 0.47453 0.0
H1315 H 0.15795 0.29396 0.49732 0.0
H1316 H 0.17204 0.31412 0.51527 0.0
H1317 H 0.17198 0.31537 0.4814 0.0
H1318 H 0.1566 0.35404 0.48315 0.0
H1319 H 0.15672 0.35295 0.51709 0.0
H1320 H 0.13222 0.35912 0.5005 0.0
H1321 H 0.07649 0.29804 0.52135 0.0
H1322 H 0.08448 0.29629 0.56684 0.0
H1323 H 0.14773 0.32323 0.5528 0.0
C1324 C 0.13205 0.321 0.45098 0.0
C1325 C 0.11658 0.31378 0.43339 0.0
C1326 C 0.09624 0.30673 0.44219 0.0
C1327 C 0.09158 0.30615 0.46798 0.0
C1328 C 0.10735 0.31279 0.48483 0.0
C1329 C 0.12711 0.32027 0.47676 0.0
C1330 C 0.14163 0.32519 0.49897 0.0
C1331 C 0.1621 0.31133 0.49818 0.0
C1332 C 0.14711 0.34926 0.49998 0.0
C1333 C 0.12713 0.31875 0.52066 0.0
C1334 C 0.10738 0.31178 0.51207 0.0
C1335 C 0.09177 0.30377 0.52837 0.0
C1336 C 0.0965 0.30275 0.55417 0.0
C1337 C 0.11666 0.30975 0.56344 0.0
C1338 C 0.13203 0.31808 0.54639 0.0
H1339 H 0.71216 0.1229 0.54791 0.0
H1340 H 0.65742 0.16503 0.56083 0.0
H1341 H 0.65255 0.16908 0.51554 0.0
H1342 H 0.73295 0.15153 0.4944 0.0
H1343 H 0.74077 0.12785 0.47711 0.0
H1344 H 0.74013 0.12731 0.51103 0.0
H1345 H 0.71441 0.0946 0.50976 0.0
H1346 H 0.71501 0.09503 0.47582 0.0
H1347 H 0.68968 0.09642 0.49221 0.0
H1348 H 0.65345 0.17005 0.46982 0.0
H1349 H 0.65998 0.16723 0.42443 0.0
H1350 H 0.71383 0.12435 0.43877 0.0
C1351 C 0.69911 0.13286 0.54118 0.0
C1352 C 0.68529 0.14367 0.55819 0.0
C1353 C 0.6684 0.1566 0.54847 0.0
C1354 C 0.66538 0.15903 0.52263 0.0
C1355 C 0.67928 0.14842 0.50648 0.0
C1356 C 0.69577 0.13552 0.51514 0.0
C1357 C 0.70841 0.12626 0.49317 0.0
C1358 C 0.73196 0.13369 0.49398 0.0
C1359 C 0.70677 0.10161 0.49272 0.0
C1360 C 0.69648 0.13623 0.47107 0.0
C1361 C 0.67973 0.14889 0.47939 0.0
C1362 C 0.66646 0.16012 0.46295 0.0
C1363 C 0.67037 0.15843 0.43714 0.0
C1364 C 0.68743 0.14557 0.42788 0.0
C1365 C 0.70062 0.13426 0.44518 0.0
H1366 H 0.84576 0.67903 0.43593 0.0
H1367 H 0.90893 0.70676 0.42341 0.0
H1368 H 0.91606 0.70565 0.46897 0.0
H1369 H 0.83388 0.70816 0.4904 0.0
H1370 H 0.82015 0.6866 0.50637 0.0
H1371 H 0.82074 0.68732 0.4725 0.0
H1372 H 0.83725 0.64909 0.47157 0.0
H1373 H 0.83662 0.64822 0.5055 0.0
H1374 H 0.86153 0.64373 0.489 0.0
H1375 H 0.91525 0.7047 0.51597 0.0
H1376 H 0.90655 0.70333 0.56132 0.0
H1377 H 0.84413 0.67602 0.54333 0.0
C1378 C 0.86124 0.68447 0.44272 0.0
C1379 C 0.87673 0.69301 0.42607 0.0
C1380 C 0.89671 0.70025 0.43578 0.0
C1381 C 0.901 0.69961 0.46165 0.0
C1382 C 0.88522 0.69157 0.47761 0.0
C1383 C 0.86579 0.68399 0.46856 0.0
C1384 C 0.85111 0.67739 0.48994 0.0
C1385 C 0.83025 0.69067 0.48978 0.0
C1386 C 0.84636 0.65316 0.48894 0.0
C1387 C 0.86511 0.68299 0.51233 0.0
C1388 C 0.88479 0.69096 0.50483 0.0
C1389 C 0.89999 0.69824 0.52213 0.0
C1390 C 0.89487 0.69747 0.54785 0.0
C1391 C 0.87469 0.68952 0.55597 0.0
C1392 C 0.8598 0.68199 0.53786 0.0
H1393 H 0.31758 0.84138 0.55289 0.0
H1394 H 0.29721 0.90688 0.56819 0.0
H1395 H 0.3001 0.91546 0.52312 0.0
H1396 H 0.3556 0.85471 0.50165 0.0
H1397 H 0.34859 0.83128 0.48344 0.0
H1398 H 0.34687 0.83054 0.51733 0.0
H1399 H 0.30698 0.81893 0.51427 0.0
H1400 H 0.30857 0.81964 0.48043 0.0
H1401 H 0.2884 0.83523 0.49655 0.0
H1402 H 0.30224 0.91652 0.4766 0.0
H1403 H 0.30334 0.90987 0.43091 0.0
H1404 H 0.32263 0.84383 0.44473 0.0
C1405 C 0.31407 0.85761 0.54681 0.0
C1406 C 0.30716 0.87343 0.56418 0.0
C1407 C 0.30244 0.89442 0.55533 0.0
C1408 C 0.30413 0.89952 0.52974 0.0
C1409 C 0.31065 0.88352 0.51311 0.0
C1410 C 0.31561 0.863 0.52119 0.0
C1411 C 0.32098 0.84854 0.49903 0.0
C1412 C 0.34441 0.84081 0.50045 0.0
C1413 C 0.3053 0.82947 0.49749 0.0
C1414 C 0.31775 0.86403 0.47727 0.0
C1415 C 0.31198 0.88416 0.48593 0.0
C1416 C 0.30698 0.9009 0.46957 0.0
C1417 C 0.30759 0.89693 0.44362 0.0
C1418 C 0.31317 0.87636 0.4342 0.0
C1419 C 0.31865 0.85981 0.45133 0.0
H1420 H 0.15355 0.6744 0.44183 0.0
H1421 H 0.09106 0.70223 0.42565 0.0
H1422 H 0.08272 0.7028 0.47097 0.0
H1423 H 0.13601 0.64127 0.49636 0.0
H1424 H 0.16063 0.64619 0.5133 0.0
H1425 H 0.16071 0.64558 0.47935 0.0
H1426 H 0.17773 0.6836 0.47854 0.0
H1427 H 0.17757 0.68439 0.51241 0.0
H1428 H 0.16448 0.70536 0.49472 0.0
H1429 H 0.08249 0.70383 0.51809 0.0
H1430 H 0.09024 0.70429 0.56372 0.0
H1431 H 0.15271 0.67569 0.54911 0.0
C1432 C 0.13793 0.68013 0.44777 0.0
C1433 C 0.12301 0.68828 0.43017 0.0
C1434 C 0.10284 0.69599 0.43878 0.0
C1435 C 0.09788 0.69631 0.46449 0.0
C1436 C 0.11317 0.68874 0.4814 0.0
C1437 C 0.13272 0.68063 0.47342 0.0
C1438 C 0.14685 0.67482 0.49559 0.0
C1439 C 0.1513 0.65052 0.49618 0.0
C1440 C 0.16789 0.68782 0.49528 0.0
C1441 C 0.13245 0.68154 0.51718 0.0
C1442 C 0.11301 0.68933 0.50864 0.0
C1443 C 0.09755 0.6975 0.52506 0.0
C1444 C 0.10214 0.69778 0.55094 0.0
C1445 C 0.12206 0.69001 0.56009 0.0
C1446 C 0.13724 0.68161 0.54286 0.0
H1447 H 0.32268 0.15791 0.44422 0.0
H1448 H 0.30162 0.09241 0.43047 0.0
H1449 H 0.30499 0.08442 0.47574 0.0
H1450 H 0.36076 0.14549 0.49616 0.0
H1451 H 0.35359 0.16932 0.51354 0.0
H1452 H 0.35222 0.1693 0.47962 0.0
H1453 H 0.31232 0.18102 0.48175 0.0
H1454 H 0.31355 0.18106 0.51561 0.0
H1455 H 0.29354 0.16512 0.49969 0.0
H1456 H 0.30731 0.08422 0.52227 0.0
H1457 H 0.30734 0.09207 0.56769 0.0
H1458 H 0.32653 0.15785 0.55212 0.0
C1459 C 0.31925 0.14176 0.45068 0.0
C1460 C 0.31199 0.12575 0.43379 0.0
C1461 C 0.30719 0.10494 0.44305 0.0
C1462 C 0.30918 0.1002 0.46872 0.0
C1463 C 0.31599 0.11642 0.48492 0.0
C1464 C 0.32097 0.13678 0.47635 0.0
C1465 C 0.32612 0.15174 0.4981 0.0
C1466 C 0.34957 0.15941 0.49677 0.0
C1467 C 0.31044 0.17086 0.49882 0.0
C1468 C 0.32266 0.13674 0.52023 0.0
C1469 C 0.31713 0.11637 0.51211 0.0
C1470 C 0.31187 0.10002 0.52889 0.0
C1471 C 0.31186 0.10469 0.55467 0.0
C1472 C 0.31698 0.12557 0.5635 0.0
C1473 C 0.32287 0.14166 0.546 0.0
H1474 H 0.83801 0.31636 0.45263 0.0
H1475 H 0.89226 0.27513 0.43458 0.0
H1476 H 0.89907 0.26984 0.47988 0.0
H1477 H 0.86214 0.34219 0.506 0.0
H1478 H 0.83755 0.34329 0.52388 0.0
H1479 H 0.83665 0.34366 0.48997 0.0
H1480 H 0.81137 0.31056 0.49023 0.0
H1481 H 0.81215 0.31011 0.52414 0.0
H1482 H 0.81955 0.28649 0.50651 0.0
H1483 H 0.90014 0.26904 0.52684 0.0
H1484 H 0.89547 0.27264 0.57265 0.0
H1485 H 0.84064 0.31465 0.56039 0.0
C1486 C 0.8513 0.30615 0.45813 0.0
C1487 C 0.86456 0.29613 0.43994 0.0
C1488 C 0.88183 0.28298 0.44807 0.0
C1489 C 0.88585 0.27987 0.47378 0.0
C1490 C 0.87252 0.29004 0.49114 0.0
C1491 C 0.85559 0.30291 0.48371 0.0
C1492 C 0.84379 0.31209 0.50624 0.0
C1493 C 0.84512 0.33677 0.50653 0.0
C1494 C 0.82033 0.30434 0.50681 0.0
C1495 C 0.85673 0.30233 0.52751 0.0
C1496 C 0.8732 0.28967 0.51834 0.0
C1497 C 0.8873 0.2789 0.53427 0.0
C1498 C 0.88447 0.28107 0.5603 0.0
C1499 C 0.86765 0.29394 0.57024 0.0
C1500 C 0.85367 0.30474 0.55349 0.0
H1501 H 0.68332 0.85204 0.55388 0.0
H1502 H 0.70619 0.91685 0.56817 0.0
H1503 H 0.70486 0.92463 0.52276 0.0
H1504 H 0.71402 0.84351 0.49925 0.0
H1505 H 0.69386 0.82835 0.48256 0.0
H1506 H 0.69419 0.82834 0.51646 0.0
H1507 H 0.65472 0.84154 0.51717 0.0
H1508 H 0.65426 0.84155 0.48321 0.0
H1509 H 0.64753 0.86565 0.50033 0.0
H1510 H 0.70407 0.92481 0.47632 0.0
H1511 H 0.70422 0.91731 0.43086 0.0
H1512 H 0.68201 0.85229 0.44537 0.0
C1513 C 0.68762 0.86798 0.54746 0.0
C1514 C 0.6948 0.88386 0.56461 0.0
C1515 C 0.70071 0.90441 0.55542 0.0
C1516 C 0.6999 0.90904 0.52965 0.0
C1517 C 0.69316 0.89297 0.51322 0.0
C1518 C 0.68708 0.87286 0.52165 0.0
C1519 C 0.68194 0.8581 0.49966 0.0
C1520 C 0.6969 0.83842 0.49948 0.0
C1521 C 0.6582 0.85132 0.50012 0.0
C1522 C 0.68657 0.87295 0.47763 0.0
C1523 C 0.6928 0.89304 0.48601 0.0
C1524 C 0.699 0.90923 0.46948 0.0
C1525 C 0.69912 0.90475 0.44367 0.0
C1526 C 0.6931 0.88421 0.4345 0.0
C1527 C 0.68641 0.86822 0.45176 0.0
H1528 H 0.64554 0.82838 0.05192 0.0
H1529 H 0.59752 0.77981 0.0687 0.0
H1530 H 0.59025 0.7758 0.02309 0.0
H1531 H 0.61773 0.85287 0.99881 0.0
H1532 H 0.64234 0.85742 0.98173 0.0
H1533 H 0.64247 0.85736 0.01567 0.0
H1534 H 0.67191 0.82788 0.0155 0.0
H1535 H 0.67184 0.82781 0.98161 0.0
H1536 H 0.66721 0.80317 0.99862 0.0
H1537 H 0.58992 0.77588 0.97483 0.0
H1538 H 0.59675 0.77986 0.92912 0.0
H1539 H 0.64505 0.82831 0.94527 0.0
C1540 C 0.6333 0.81703 0.04617 0.0
C1541 C 0.62211 0.80443 0.06403 0.0
C1542 C 0.60631 0.78971 0.05546 0.0
C1543 C 0.60205 0.78733 0.02957 0.0
C1544 C 0.61363 0.79985 0.0125 0.0
C1545 C 0.62888 0.81446 0.02056 0.0
C1546 C 0.63983 0.8254 0.99861 0.0
C1547 C 0.63531 0.8497 0.99872 0.0
C1548 C 0.66413 0.82078 0.99859 0.0
C1549 C 0.62869 0.81442 0.97684 0.0
C1550 C 0.61349 0.79984 0.9851 0.0
C1551 C 0.60168 0.78737 0.96819 0.0
C1552 C 0.60568 0.78975 0.94224 0.0
C1553 C 0.62146 0.80439 0.93346 0.0
C1554 C 0.63285 0.81699 0.95117 0.0
H1555 H 0.21 0.61047 0.94054 0.0
H1556 H 0.14593 0.63428 0.92423 0.0
H1557 H 0.13669 0.6318 0.96926 0.0
H1558 H 0.19463 0.57394 0.9937 0.0
H1559 H 0.21846 0.58057 0.01138 0.0
H1560 H 0.21911 0.58079 0.97741 0.0
H1561 H 0.23271 0.62014 0.97807 0.0
H1562 H 0.23211 0.62003 0.01193 0.0
H1563 H 0.21743 0.64024 0.99474 0.0
H1564 H 0.13557 0.63108 0.01563 0.0
H1565 H 0.14302 0.63358 0.06106 0.0
H1566 H 0.20792 0.61052 0.04838 0.0
C1567 C 0.19385 0.61461 0.94638 0.0
C1568 C 0.17863 0.62244 0.92886 0.0
C1569 C 0.15784 0.62824 0.93731 0.0
C1570 C 0.15239 0.62673 0.96283 0.0
C1571 C 0.16788 0.61938 0.97969 0.0
C1572 C 0.1882 0.6134 0.97189 0.0
C1573 C 0.20251 0.60829 0.99424 0.0
C1574 C 0.20906 0.58448 0.99417 0.0
C1575 C 0.22235 0.62306 0.99477 0.0
C1576 C 0.18731 0.61318 0.01581 0.0
C1577 C 0.1673 0.61915 0.00689 0.0
C1578 C 0.15103 0.6261 0.0229 0.0
C1579 C 0.15546 0.62755 0.04866 0.0
C1580 C 0.17601 0.62214 0.05822 0.0
C1581 C 0.19194 0.61431 0.04164 0.0
H1582 H 0.35951 0.17815 0.05614 0.0
H1583 H 0.40982 0.22494 0.07074 0.0
H1584 H 0.41739 0.22685 0.02505 0.0
H1585 H 0.38608 0.15055 0.00381 0.0
H1586 H 0.36116 0.14677 0.98708 0.0
H1587 H 0.36127 0.14769 0.02101 0.0
H1588 H 0.33326 0.17852 0.02 0.0
H1589 H 0.33312 0.17776 0.98614 0.0
H1590 H 0.33904 0.20255 0.00228 0.0
H1591 H 0.41751 0.2254 0.9773 0.0
H1592 H 0.41005 0.22105 0.93191 0.0
H1593 H 0.35937 0.17545 0.94956 0.0
C1594 C 0.37236 0.18861 0.04991 0.0
C1595 C 0.38407 0.20139 0.06712 0.0
C1596 C 0.40063 0.21495 0.05796 0.0
C1597 C 0.40508 0.21611 0.03205 0.0
C1598 C 0.39291 0.20353 0.01562 0.0
C1599 C 0.37696 0.18998 0.02427 0.0
C1600 C 0.36532 0.17903 0.00283 0.0
C1601 C 0.36867 0.15456 0.00374 0.0
C1602 C 0.34127 0.18482 0.00282 0.0
C1603 C 0.37684 0.18891 0.98064 0.0
C1604 C 0.39287 0.20282 0.98834 0.0
C1605 C 0.40512 0.21441 0.97108 0.0
C1606 C 0.40071 0.21185 0.94532 0.0
C1607 C 0.38407 0.19793 0.93709 0.0
C1608 C 0.37224 0.18616 0.95512 0.0
H1609 H 0.78509 0.38568 0.05872 0.0
H1610 H 0.85022 0.36462 0.07451 0.0
H1611 H 0.85832 0.36499 0.02909 0.0
H1612 H 0.77745 0.35306 0.00628 0.0
H1613 H 0.76186 0.37209 0.98835 0.0
H1614 H 0.76182 0.37333 0.02221 0.0
H1615 H 0.77419 0.41306 0.02045 0.0
H1616 H 0.77419 0.41196 0.98651 0.0
H1617 H 0.79812 0.42 0.00314 0.0
H1618 H 0.85857 0.36398 0.98279 0.0
H1619 H 0.85094 0.36092 0.93756 0.0
H1620 H 0.78538 0.38212 0.95052 0.0
C1621 C 0.8012 0.38168 0.05263 0.0
C1622 C 0.81709 0.37525 0.07015 0.0
C1623 C 0.83782 0.3696 0.06143 0.0
C1624 C 0.84261 0.36988 0.03568 0.0
C1625 C 0.8265 0.37582 0.01887 0.0
C1626 C 0.80621 0.38165 0.02689 0.0
C1627 C 0.79133 0.38544 0.00465 0.0
C1628 C 0.77198 0.37006 0.00543 0.0
C1629 C 0.78403 0.40902 0.00363 0.0
C1630 C 0.80628 0.38016 0.98295 0.0
C1631 C 0.82655 0.37497 0.9917 0.0
C1632 C 0.84285 0.36825 0.97565 0.0
C1633 C 0.83829 0.36645 0.94998 0.0
C1634 C 0.81754 0.37125 0.94048 0.0
C1635 C 0.80144 0.37861 0.95718 0.0
H1636 H 0.61729 0.21327 0.04685 0.0
H1637 H 0.62871 0.14572 0.06205 0.0
H1638 H 0.62802 0.138 0.01664 0.0
H1639 H 0.58234 0.20458 0.98905 0.0
H1640 H 0.59378 0.22757 0.97335 0.0
H1641 H 0.59132 0.22738 0.00719 0.0
H1642 H 0.63207 0.23515 0.0111 0.0
H1643 H 0.63475 0.23501 0.97737 0.0
H1644 H 0.65102 0.21726 0.99625 0.0
H1645 H 0.63261 0.13827 0.97065 0.0
H1646 H 0.63824 0.14604 0.92557 0.0
H1647 H 0.62274 0.21311 0.93889 0.0
C1648 C 0.61878 0.19678 0.04057 0.0
C1649 C 0.623 0.18008 0.05789 0.0
C1650 C 0.62549 0.15874 0.04903 0.0
C1651 C 0.62508 0.15417 0.02329 0.0
C1652 C 0.62197 0.17107 0.00658 0.0
C1653 C 0.61845 0.19191 0.01474 0.0
C1654 C 0.61735 0.20727 0.99258 0.0
C1655 C 0.59486 0.21729 0.99042 0.0
C1656 C 0.63484 0.22469 0.99445 0.0
C1657 C 0.62172 0.19192 0.97097 0.0
C1658 C 0.62421 0.17112 0.97953 0.0
C1659 C 0.6302 0.15439 0.96357 0.0
C1660 C 0.63357 0.15899 0.93806 0.0
C1661 C 0.6308 0.18011 0.92877 0.0
C1662 C 0.62462 0.19673 0.94544 0.0
H1663 H 0.8234 0.64963 0.0432 0.0
H1664 H 0.78778 0.59172 0.06184 0.0
H1665 H 0.78627 0.58223 0.01673 0.0
H1666 H 0.79396 0.66257 0.98888 0.0
H1667 H 0.81668 0.67262 0.97142 0.0
H1668 H 0.81669 0.67384 0.00528 0.0
H1669 H 0.85259 0.65274 0.00639 0.0
H1670 H 0.85266 0.65141 0.97247 0.0
H1671 H 0.85441 0.62708 0.99078 0.0
H1672 H 0.78676 0.58011 0.9698 0.0
H1673 H 0.78769 0.58616 0.92402 0.0
H1674 H 0.82271 0.64574 0.93577 0.0
C1675 C 0.81552 0.63479 0.03789 0.0
C1676 C 0.80576 0.62137 0.0561 0.0
C1677 C 0.79534 0.60227 0.04825 0.0
C1678 C 0.79451 0.59668 0.02269 0.0
C1679 C 0.80417 0.61035 0.00525 0.0
C1680 C 0.81444 0.62902 0.01248 0.0
C1681 C 0.82231 0.64162 0.98987 0.0
C1682 C 0.81177 0.66398 0.98881 0.0
C1683 C 0.84696 0.6433 0.98989 0.0
C1684 C 0.81445 0.62732 0.96873 0.0
C1685 C 0.80427 0.60924 0.97806 0.0
C1686 C 0.79482 0.59412 0.96227 0.0
C1687 C 0.7954 0.59776 0.93626 0.0
C1688 C 0.80527 0.61646 0.92625 0.0
C1689 C 0.81527 0.63119 0.94277 0.0
H1690 H 0.36108 0.82379 0.94731 0.0
H1691 H 0.40913 0.77561 0.92919 0.0
H1692 H 0.4173 0.77158 0.97454 0.0
H1693 H 0.38969 0.84816 0.00064 0.0
H1694 H 0.36518 0.85232 0.01805 0.0
H1695 H 0.36481 0.85279 0.98411 0.0
H1696 H 0.33547 0.82319 0.98396 0.0
H1697 H 0.33579 0.82259 0.01783 0.0
H1698 H 0.3404 0.79825 0.00024 0.0
H1699 H 0.4178 0.77073 0.02263 0.0
H1700 H 0.41063 0.7733 0.06841 0.0
H1701 H 0.36242 0.8222 0.05378 0.0
C1702 C 0.37357 0.8126 0.95271 0.0
C1703 C 0.38444 0.80003 0.93458 0.0
C1704 C 0.40058 0.78549 0.94267 0.0
C1705 C 0.40537 0.7831 0.96841 0.0
C1706 C 0.394 0.79548 0.98579 0.0
C1707 C 0.37854 0.81005 0.97819 0.0
C1708 C 0.3677 0.8206 0.00046 0.0
C1709 C 0.37212 0.84491 0.00083 0.0
C1710 C 0.34341 0.81586 0.00062 0.0
C1711 C 0.37906 0.80933 0.02186 0.0
C1712 C 0.39432 0.79503 0.01315 0.0
C1713 C 0.40605 0.78207 0.02964 0.0
C1714 C 0.40185 0.78363 0.05562 0.0
C1715 C 0.38596 0.79795 0.06482 0.0
C1716 C 0.37476 0.81114 0.04756 0.0
H1717 H 0.21457 0.38221 0.94002 0.0
H1718 H 0.14795 0.36712 0.92365 0.0
H1719 H 0.13902 0.37078 0.96862 0.0
H1720 H 0.21785 0.35165 0.99424 0.0
H1721 H 0.23495 0.36965 0.01174 0.0
H1722 H 0.23573 0.36969 0.97788 0.0
H1723 H 0.22738 0.41046 0.97748 0.0
H1724 H 0.22664 0.41057 0.01144 0.0
H1725 H 0.20395 0.42036 0.99373 0.0
H1726 H 0.13788 0.37097 0.01479 0.0
H1727 H 0.14467 0.36733 0.06028 0.0
H1728 H 0.21196 0.38234 0.04839 0.0
C1729 C 0.19801 0.38034 0.94589 0.0
C1730 C 0.1819 0.37453 0.92835 0.0
C1731 C 0.16052 0.37158 0.93676 0.0
C1732 C 0.15526 0.37376 0.96225 0.0
C1733 C 0.17155 0.37889 0.97918 0.0
C1734 C 0.1925 0.38222 0.97146 0.0
C1735 C 0.20726 0.38528 0.99399 0.0
C1736 C 0.22499 0.36804 0.99448 0.0
C1737 C 0.21687 0.40803 0.99417 0.0
C1738 C 0.19145 0.38229 0.0155 0.0
C1739 C 0.17089 0.37897 0.00639 0.0
C1740 C 0.15379 0.37396 0.02222 0.0
C1741 C 0.15782 0.37184 0.04801 0.0
C1742 C 0.17877 0.37475 0.05781 0.0
C1743 C 0.19571 0.38055 0.04142 0.0
H1744 H 0.1856 0.37476 0.22033 0.0
H1745 H 0.16605 0.32786 0.16426 0.0
H1746 H 0.15026 0.3054 0.19745 0.0
H1747 H 0.19724 0.33589 0.27153 0.0
H1748 H 0.18631 0.35303 0.29571 0.0
H1749 H 0.19831 0.36468 0.26798 0.0
H1750 H 0.16324 0.38581 0.25926 0.0
H1751 H 0.15113 0.37421 0.28688 0.0
H1752 H 0.13819 0.37143 0.25668 0.0
H1753 H 0.13465 0.28907 0.23523 0.0
H1754 H 0.11878 0.27987 0.27615 0.0
H1755 H 0.14696 0.33722 0.30915 0.0
C1756 C 0.17833 0.35957 0.21519 0.0
C1757 C 0.17721 0.35297 0.1897 0.0
C1758 C 0.16718 0.33323 0.1836 0.0
C1759 C 0.15821 0.32029 0.20235 0.0
C1760 C 0.15926 0.32732 0.22719 0.0
C1761 C 0.16898 0.34648 0.23377 0.0
C1762 C 0.16642 0.3508 0.26181 0.0
C1763 C 0.18838 0.35112 0.27503 0.0
C1764 C 0.154 0.37181 0.26642 0.0
C1765 C 0.15332 0.33132 0.26969 0.0
C1766 C 0.1497 0.31793 0.24936 0.0
C1767 C 0.13748 0.29931 0.25137 0.0
C1768 C 0.12848 0.29428 0.27473 0.0
C1769 C 0.13159 0.30784 0.29586 0.0
C1770 C 0.14442 0.3265 0.29336 0.0
H1771 H 0.62866 0.19377 0.21905 0.0
H1772 H 0.6595 0.15539 0.161 0.0
H1773 H 0.67992 0.136 0.19323 0.0
H1774 H 0.67508 0.19762 0.26052 0.0
H1775 H 0.65956 0.19508 0.28903 0.0
H1776 H 0.64762 0.20682 0.26134 0.0
H1777 H 0.61674 0.17892 0.26333 0.0
H1778 H 0.62863 0.16707 0.29098 0.0
H1779 H 0.62311 0.15065 0.26376 0.0
H1780 H 0.69715 0.1206 0.23092 0.0
H1781 H 0.70966 0.10935 0.27298 0.0
H1782 H 0.66713 0.15619 0.30748 0.0
C1783 C 0.6398 0.18137 0.2132 0.0
C1784 C 0.64256 0.17624 0.18747 0.0
C1785 C 0.65715 0.15976 0.18054 0.0
C1786 C 0.66887 0.14858 0.19872 0.0
C1787 C 0.66577 0.15391 0.22385 0.0
C1788 C 0.6516 0.16982 0.23123 0.0
C1789 C 0.65108 0.17181 0.25971 0.0
C1790 C 0.6588 0.19416 0.26814 0.0
C1791 C 0.62855 0.16681 0.27005 0.0
C1792 C 0.66709 0.1545 0.26697 0.0
C1793 C 0.67545 0.14452 0.24592 0.0
C1794 C 0.69072 0.12823 0.24762 0.0
C1795 C 0.69772 0.12195 0.27156 0.0
C1796 C 0.68932 0.13184 0.29344 0.0
C1797 C 0.67375 0.14827 0.29107 0.0
H1798 H 0.80773 0.62906 0.21954 0.0
H1799 H 0.84118 0.6616 0.15868 0.0
H1800 H 0.85961 0.68464 0.18937 0.0
H1801 H 0.80109 0.67569 0.26015 0.0
H1802 H 0.80623 0.66107 0.28883 0.0
H1803 H 0.79456 0.64752 0.26212 0.0
H1804 H 0.82526 0.6194 0.26309 0.0
H1805 H 0.83696 0.63282 0.28984 0.0
H1806 H 0.85278 0.62837 0.26189 0.0
H1807 H 0.87448 0.70407 0.22569 0.0
H1808 H 0.88724 0.71749 0.26658 0.0
H1809 H 0.84583 0.67186 0.30507 0.0
C1810 C 0.81886 0.64111 0.21274 0.0
C1811 C 0.82287 0.64366 0.18669 0.0
C1812 C 0.83773 0.65941 0.1785 0.0
C1813 C 0.84827 0.67264 0.19578 0.0
C1814 C 0.84396 0.66981 0.22125 0.0
C1815 C 0.82981 0.65436 0.22985 0.0
C1816 C 0.82898 0.65419 0.25843 0.0
C1817 C 0.80637 0.65997 0.26794 0.0
C1818 C 0.83644 0.6324 0.26892 0.0
C1819 C 0.84498 0.67187 0.26441 0.0
C1820 C 0.85318 0.68076 0.24258 0.0
C1821 C 0.86823 0.69726 0.24295 0.0
C1822 C 0.87535 0.70478 0.2663 0.0
C1823 C 0.86759 0.69567 0.28898 0.0
C1824 C 0.85206 0.6791 0.28801 0.0
H1825 H 0.37745 0.80245 0.22866 0.0
H1826 H 0.33807 0.82689 0.16754 0.0
H1827 H 0.31583 0.84667 0.19795 0.0
H1828 H 0.33446 0.79711 0.27538 0.0
H1829 H 0.35089 0.80628 0.3012 0.0
H1830 H 0.36308 0.79263 0.2749 0.0
H1831 H 0.38877 0.82488 0.2682 0.0
H1832 H 0.37663 0.83864 0.29443 0.0
H1833 H 0.37771 0.85141 0.26398 0.0
H1834 H 0.2984 0.8645 0.234 0.0
H1835 H 0.28715 0.88064 0.27414 0.0
H1836 H 0.33811 0.84631 0.31294 0.0
C1837 C 0.36397 0.81176 0.2218 0.0
C1838 C 0.35939 0.813 0.19572 0.0
C1839 C 0.34187 0.82564 0.18738 0.0
C1840 C 0.32909 0.83692 0.20453 0.0
C1841 C 0.33412 0.8356 0.23001 0.0
C1842 C 0.35115 0.82346 0.23873 0.0
C1843 C 0.35358 0.82585 0.26708 0.0
C1844 C 0.3503 0.80417 0.28042 0.0
C1845 C 0.37547 0.83579 0.27381 0.0
C1846 C 0.3353 0.84128 0.27279 0.0
C1847 C 0.32425 0.84649 0.25106 0.0
C1848 C 0.30689 0.86055 0.25118 0.0
C1849 C 0.30063 0.86965 0.27412 0.0
C1850 C 0.31177 0.8648 0.29669 0.0
C1851 C 0.32931 0.85033 0.29599 0.0
H1852 H 0.16596 0.64833 0.80956 0.0
H1853 H 0.21976 0.61601 0.77386 0.0
H1854 H 0.20908 0.63125 0.73284 0.0
H1855 H 0.1285 0.6401 0.76038 0.0
H1856 H 0.11571 0.66595 0.76353 0.0
H1857 H 0.12829 0.65362 0.79042 0.0
H1858 H 0.15187 0.6875 0.7968 0.0
H1859 H 0.13935 0.69996 0.76989 0.0
H1860 H 0.16816 0.6972 0.77112 0.0
H1861 H 0.19159 0.64792 0.69565 0.0
H1862 H 0.16842 0.66529 0.66413 0.0
H1863 H 0.12603 0.68762 0.72359 0.0
C1864 C 0.17559 0.64461 0.79314 0.0
C1865 C 0.19369 0.63099 0.79485 0.0
C1866 C 0.20585 0.62642 0.77296 0.0
C1867 C 0.19993 0.63504 0.7496 0.0
C1868 C 0.18192 0.64828 0.7485 0.0
C1869 C 0.16994 0.65314 0.76965 0.0
C1870 C 0.15089 0.66724 0.76307 0.0
C1871 C 0.12959 0.65605 0.76974 0.0
C1872 C 0.15268 0.68929 0.77599 0.0
C1873 C 0.15378 0.66915 0.73481 0.0
C1874 C 0.17187 0.65817 0.7269 0.0
C1875 C 0.1775 0.65676 0.70161 0.0
C1876 C 0.16419 0.66667 0.68384 0.0
C1877 C 0.14548 0.6779 0.69142 0.0
C1878 C 0.14036 0.67934 0.71729 0.0
H1879 H 0.33768 0.15744 0.68583 0.0
H1880 H 0.2842 0.12479 0.72185 0.0
H1881 H 0.29594 0.13845 0.76305 0.0
H1882 H 0.37593 0.14698 0.73288 0.0
H1883 H 0.38914 0.17273 0.73119 0.0
H1884 H 0.37568 0.16208 0.70389 0.0
H1885 H 0.35247 0.19654 0.70078 0.0
H1886 H 0.36601 0.20739 0.72798 0.0
H1887 H 0.33713 0.2052 0.72774 0.0
H1888 H 0.31505 0.15206 0.80044 0.0
H1889 H 0.33926 0.16746 0.83227 0.0
H1890 H 0.38001 0.19291 0.77296 0.0
C1891 C 0.32828 0.15349 0.70236 0.0
C1892 C 0.31007 0.13999 0.70066 0.0
C1893 C 0.29823 0.13505 0.72269 0.0
C1894 C 0.30475 0.14276 0.74621 0.0
C1895 C 0.32302 0.15556 0.74739 0.0
C1896 C 0.33452 0.16117 0.72611 0.0
C1897 C 0.35402 0.17459 0.73298 0.0
C1898 C 0.37492 0.16342 0.72474 0.0
C1899 C 0.3523 0.19728 0.7217 0.0
C1900 C 0.35193 0.17509 0.76145 0.0
C1901 C 0.33388 0.16401 0.76925 0.0
C1902 C 0.32905 0.16109 0.7946 0.0
C1903 C 0.34297 0.16984 0.81256 0.0
C1904 C 0.36141 0.18154 0.8051 0.0
C1905 C 0.36588 0.18426 0.77918 0.0
H1906 H 0.83738 0.32437 0.69301 0.0
H1907 H 0.89849 0.30455 0.72479 0.0
H1908 H 0.8899 0.32351 0.76418 0.0
H1909 H 0.83393 0.37742 0.72445 0.0
H1910 H 0.80549 0.37515 0.73035 0.0
H1911 H 0.81719 0.36217 0.70326 0.0
H1912 H 0.80151 0.32568 0.71787 0.0
H1913 H 0.78979 0.33853 0.74498 0.0
H1914 H 0.80758 0.31595 0.74905 0.0
H1915 H 0.87466 0.3419 0.80032 0.0
H1916 H 0.85259 0.35819 0.8334 0.0
H1917 H 0.79993 0.36589 0.78041 0.0
C1918 C 0.84902 0.32445 0.70817 0.0
C1919 C 0.86867 0.31321 0.70594 0.0
C1920 C 0.88337 0.31311 0.72623 0.0
C1921 C 0.87869 0.32391 0.74859 0.0
C1922 C 0.85912 0.33455 0.75047 0.0
C1923 C 0.84439 0.33489 0.73099 0.0
C1924 C 0.8238 0.34608 0.73911 0.0
C1925 C 0.81988 0.36642 0.72335 0.0
C1926 C 0.80453 0.33064 0.73767 0.0
C1927 C 0.82928 0.35166 0.76624 0.0
C1928 C 0.84987 0.34499 0.77208 0.0
C1929 C 0.85856 0.34735 0.79601 0.0
C1930 C 0.84582 0.35656 0.8147 0.0
C1931 C 0.82454 0.36329 0.80949 0.0
C1932 C 0.81622 0.36108 0.78482 0.0
H1933 H 0.67241 0.85281 0.68529 0.0
H1934 H 0.71896 0.89226 0.72498 0.0
H1935 H 0.7053 0.8788 0.76552 0.0
H1936 H 0.62911 0.85935 0.72922 0.0
H1937 H 0.6197 0.83203 0.72673 0.0
H1938 H 0.63323 0.84444 0.70049 0.0
H1939 H 0.66095 0.8134 0.69976 0.0
H1940 H 0.64748 0.80086 0.72596 0.0
H1941 H 0.67572 0.80702 0.728 0.0
H1942 H 0.686 0.86264 0.80165 0.0
H1943 H 0.66315 0.84309 0.83172 0.0
H1944 H 0.62955 0.81259 0.76956 0.0
C1945 C 0.67973 0.85854 0.70253 0.0
C1946 C 0.69672 0.87365 0.70196 0.0
C1947 C 0.70596 0.8807 0.72491 0.0
C1948 C 0.69829 0.87317 0.74807 0.0
C1949 C 0.68148 0.85842 0.74804 0.0
C1950 C 0.67238 0.851 0.72595 0.0
C1951 C 0.65453 0.83502 0.73145 0.0
C1952 C 0.63286 0.84321 0.72138 0.0
C1953 C 0.66 0.81275 0.72065 0.0
C1954 C 0.65492 0.83486 0.76006 0.0
C1955 C 0.67059 0.84856 0.76913 0.0
C1956 C 0.67378 0.85172 0.79481 0.0
C1957 C 0.66067 0.84055 0.81176 0.0
C1958 C 0.64463 0.82621 0.80304 0.0
C1959 C 0.64178 0.82332 0.7768 0.0
H1960 H 0.86873 0.68608 0.71952 0.0
H1961 H 0.82477 0.66702 0.66007 0.0
H1962 H 0.80103 0.65026 0.69146 0.0
H1963 H 0.86463 0.63811 0.75429 0.0
H1964 H 0.86589 0.65058 0.78491 0.0
H1965 H 0.87849 0.66333 0.7583 0.0
H1966 H 0.85646 0.69796 0.7665 0.0
H1967 H 0.84385 0.68534 0.79324 0.0
H1968 H 0.82758 0.69641 0.76833 0.0
H1969 H 0.7833 0.63368 0.72805 0.0
H1970 H 0.77255 0.61736 0.76829 0.0
H1971 H 0.82811 0.64595 0.80479 0.0
C1972 C 0.85391 0.67871 0.71324 0.0
C1973 C 0.84849 0.67795 0.68741 0.0
C1974 C 0.8292 0.66783 0.67977 0.0
C1975 C 0.81556 0.65832 0.69746 0.0
C1976 C 0.82149 0.659 0.72271 0.0
C1977 C 0.84017 0.66889 0.7307 0.0
C1978 C 0.84336 0.66596 0.75882 0.0
C1979 C 0.86434 0.65377 0.7644 0.0
C1980 C 0.84277 0.68772 0.77253 0.0
C1981 C 0.82381 0.65248 0.76518 0.0
C1982 C 0.81133 0.64893 0.74406 0.0
C1983 C 0.79282 0.63645 0.7448 0.0
C1984 C 0.7869 0.6272 0.76775 0.0
C1985 C 0.79952 0.63036 0.78964 0.0
C1986 C 0.81814 0.64332 0.78836 0.0
H1987 H 0.37235 0.8032 0.77085 0.0
H1988 H 0.33634 0.83219 0.8321 0.0
H1989 H 0.31216 0.84938 0.80143 0.0
H1990 H 0.37041 0.84892 0.73061 0.0
H1991 H 0.36779 0.83374 0.70185 0.0
H1992 H 0.38133 0.82214 0.72855 0.0
H1993 H 0.35544 0.78955 0.72721 0.0
H1994 H 0.34176 0.8011 0.70052 0.0
H1995 H 0.32684 0.79403 0.72842 0.0
H1996 H 0.29262 0.86426 0.76483 0.0
H1997 H 0.28008 0.8782 0.72406 0.0
H1998 H 0.32916 0.84098 0.68562 0.0
C1999 C 0.35924 0.813 0.77775 0.0
C2000 C 0.35611 0.81624 0.80387 0.0
C2001 C 0.33901 0.82943 0.81221 0.0
C2002 C 0.32512 0.8392 0.79493 0.0
C2003 C 0.32864 0.83577 0.76935 0.0
C2004 C 0.34534 0.82315 0.76069 0.0
C2005 C 0.34626 0.82327 0.73211 0.0
C2006 C 0.36772 0.83258 0.72274 0.0
C2007 C 0.34233 0.80064 0.72144 0.0
C2008 C 0.32765 0.83818 0.72614 0.0
C2009 C 0.31759 0.84492 0.74797 0.0
C2010 C 0.30031 0.85908 0.74759 0.0
C2011 C 0.29332 0.86692 0.7243 0.0
C2012 C 0.30368 0.86073 0.70166 0.0
C2013 C 0.32089 0.84592 0.7026 0.0
H2014 H 0.12879 0.34102 0.69492 0.0
H2015 H 0.14961 0.27515 0.70517 0.0
H2016 H 0.17289 0.28648 0.74059 0.0
H2017 H 0.17855 0.36784 0.71143 0.0
H2018 H 0.16556 0.38911 0.72873 0.0
H2019 H 0.15177 0.37621 0.70299 0.0
H2020 H 0.11995 0.36694 0.73252 0.0
H2021 H 0.13357 0.37993 0.75828 0.0
H2022 H 0.12501 0.35238 0.76127 0.0
H2023 H 0.19396 0.30488 0.77442 0.0
H2024 H 0.20828 0.32831 0.80793 0.0
H2025 H 0.17159 0.38188 0.77858 0.0
C2026 C 0.13841 0.3291 0.70458 0.0
C2027 C 0.13765 0.30727 0.69738 0.0
C2028 C 0.15004 0.29193 0.71059 0.0
C2029 C 0.16337 0.29825 0.73056 0.0
C2030 C 0.16377 0.31989 0.73733 0.0
C2031 C 0.15135 0.33505 0.72506 0.0
C2032 C 0.15346 0.35693 0.73745 0.0
C2033 C 0.1629 0.3735 0.71905 0.0
C2034 C 0.13171 0.36448 0.74801 0.0
C2035 C 0.16914 0.35174 0.75846 0.0
C2036 C 0.17506 0.33033 0.75779 0.0
C2037 C 0.1893 0.32162 0.77526 0.0
C2038 C 0.19729 0.33501 0.7943 0.0
C2039 C 0.19084 0.35673 0.7959 0.0
C2040 C 0.17683 0.3653 0.77758 0.0
H2041 H 0.69664 0.12815 0.71735 0.0
H2042 H 0.6438 0.13827 0.66522 0.0
H2043 H 0.62264 0.15506 0.69884 0.0
H2044 H 0.66241 0.11695 0.77345 0.0
H2045 H 0.68016 0.13101 0.79463 0.0
H2046 H 0.69084 0.11795 0.76702 0.0
H2047 H 0.70814 0.15388 0.75304 0.0
H2048 H 0.6973 0.16713 0.7804 0.0
H2049 H 0.69146 0.17735 0.74938 0.0
H2050 H 0.60879 0.17441 0.73543 0.0
H2051 H 0.60092 0.1921 0.77591 0.0
H2052 H 0.66114 0.16841 0.80639 0.0
C2053 C 0.68043 0.13344 0.71329 0.0
C2054 C 0.67186 0.13195 0.68869 0.0
C2055 C 0.65073 0.13935 0.68391 0.0
C2056 C 0.63854 0.14891 0.70287 0.0
C2057 C 0.6476 0.15082 0.72665 0.0
C2058 C 0.66787 0.14305 0.73219 0.0
C2059 C 0.67382 0.14803 0.75932 0.0
C2060 C 0.67699 0.12724 0.7745 0.0
C2061 C 0.69387 0.16246 0.7606 0.0
C2062 C 0.65385 0.16006 0.76781 0.0
C2063 C 0.63907 0.16154 0.7485 0.0
C2064 C 0.62001 0.17306 0.75091 0.0
C2065 C 0.61576 0.18317 0.77387 0.0
C2066 C 0.63034 0.18141 0.79418 0.0
C2067 C 0.64961 0.16967 0.79118 0.0
H2068 H 0.83014 0.35212 0.19109 0.0
H2069 H 0.77873 0.38873 0.22592 0.0
H2070 H 0.79066 0.37645 0.26785 0.0
H2071 H 0.82733 0.3066 0.23383 0.0
H2072 H 0.85599 0.30247 0.23405 0.0
H2073 H 0.84318 0.31386 0.2067 0.0
H2074 H 0.8686 0.34679 0.2092 0.0
H2075 H 0.88141 0.33555 0.23661 0.0
H2076 H 0.86998 0.36214 0.23796 0.0
H2077 H 0.80873 0.36133 0.30586 0.0
H2078 H 0.83098 0.34307 0.33775 0.0
H2079 H 0.87036 0.3156 0.27839 0.0
C2080 C 0.82136 0.35748 0.20754 0.0
C2081 C 0.80354 0.37141 0.2053 0.0
C2082 C 0.79241 0.37804 0.22723 0.0
C2083 C 0.79908 0.37118 0.25111 0.0
C2084 C 0.8168 0.35759 0.2527 0.0
C2085 C 0.82772 0.35068 0.23153 0.0
C2086 C 0.84626 0.33607 0.23854 0.0
C2087 C 0.84298 0.31341 0.22763 0.0
C2088 C 0.86784 0.34573 0.23008 0.0
C2089 C 0.8442 0.33608 0.26697 0.0
C2090 C 0.82709 0.34861 0.2747 0.0
C2091 C 0.8221 0.35138 0.30005 0.0
C2092 C 0.83487 0.34097 0.31802 0.0
C2093 C 0.85236 0.3279 0.31054 0.0
C2094 C 0.85706 0.32547 0.28466 0.0
H2095 H 0.63029 0.81146 0.22802 0.0
H2096 H 0.66205 0.84469 0.16648 0.0
H2097 H 0.68344 0.86542 0.19696 0.0
H2098 H 0.62659 0.85752 0.26893 0.0
H2099 H 0.63154 0.84259 0.29745 0.0
H2100 H 0.61907 0.82959 0.27089 0.0
H2101 H 0.64875 0.8004 0.27123 0.0
H2102 H 0.66132 0.81333 0.2978 0.0
H2103 H 0.67656 0.80838 0.26952 0.0
H2104 H 0.70153 0.88237 0.23337 0.0
H2105 H 0.71447 0.89598 0.27414 0.0
H2106 H 0.67048 0.85321 0.31312 0.0
C2107 C 0.64182 0.82304 0.22101 0.0
C2108 C 0.64457 0.82638 0.19483 0.0
C2109 C 0.65967 0.84181 0.18639 0.0
C2110 C 0.67194 0.85366 0.20357 0.0
C2111 C 0.66884 0.85005 0.22919 0.0
C2112 C 0.65411 0.83524 0.23799 0.0
C2113 C 0.65366 0.83504 0.26661 0.0
C2114 C 0.63139 0.84158 0.27655 0.0
C2115 C 0.66048 0.81298 0.27689 0.0
C2116 C 0.67039 0.8521 0.27242 0.0
C2117 C 0.67901 0.86036 0.25047 0.0
C2118 C 0.69489 0.87609 0.25071 0.0
C2119 C 0.70214 0.8837 0.27401 0.0
C2120 C 0.69343 0.87573 0.29683 0.0
C2121 C 0.67734 0.85969 0.29599 0.0
H2122 H 0.15218 0.66231 0.30734 0.0
H2123 H 0.1323 0.72329 0.27515 0.0
H2124 H 0.14966 0.7137 0.23514 0.0
H2125 H 0.20451 0.65847 0.27295 0.0
H2126 H 0.20199 0.62986 0.26845 0.0
H2127 H 0.19039 0.64242 0.29588 0.0
H2128 H 0.15329 0.62623 0.28453 0.0
H2129 H 0.16473 0.6137 0.25708 0.0
H2130 H 0.14195 0.63137 0.25386 0.0
H2131 H 0.16454 0.69647 0.19774 0.0
H2132 H 0.17735 0.6725 0.16432 0.0
H2133 H 0.18925 0.62239 0.21944 0.0
C2134 C 0.15192 0.67376 0.29199 0.0
C2135 C 0.1409 0.69353 0.29429 0.0
C2136 C 0.14057 0.70803 0.27375 0.0
C2137 C 0.15049 0.70279 0.25098 0.0
C2138 C 0.16079 0.68303 0.24906 0.0
C2139 C 0.16174 0.66873 0.26894 0.0
C2140 C 0.17249 0.6479 0.26096 0.0
C2141 C 0.1936 0.64447 0.27542 0.0
C2142 C 0.1572 0.62867 0.2643 0.0
C2143 C 0.17668 0.65254 0.23332 0.0
C2144 C 0.16993 0.67302 0.22707 0.0
C2145 C 0.1703 0.68056 0.20243 0.0
C2146 C 0.17754 0.66675 0.18353 0.0
C2147 C 0.18452 0.64569 0.18933 0.0
C2148 C 0.18444 0.6386 0.21462 0.0
H2149 H 0.33118 0.15857 0.31464 0.0
H2150 H 0.28323 0.12102 0.27464 0.0
H2151 H 0.29635 0.13546 0.23432 0.0
H2152 H 0.3283 0.20573 0.27321 0.0
H2153 H 0.35673 0.21103 0.27502 0.0
H2154 H 0.34314 0.19843 0.3011 0.0
H2155 H 0.36997 0.16664 0.29926 0.0
H2156 H 0.38359 0.1791 0.27314 0.0
H2157 H 0.37337 0.15211 0.27014 0.0
H2158 H 0.31576 0.1515 0.19857 0.0
H2159 H 0.33936 0.17006 0.16867 0.0
H2160 H 0.37432 0.19903 0.23083 0.0
C2161 C 0.32337 0.15354 0.29738 0.0
C2162 C 0.30621 0.13863 0.29775 0.0
C2163 C 0.29638 0.13243 0.27482 0.0
C2164 C 0.30371 0.14054 0.25181 0.0
C2165 C 0.32076 0.155 0.25204 0.0
C2166 C 0.33039 0.16165 0.27415 0.0
C2167 C 0.34865 0.1772 0.26882 0.0
C2168 C 0.34391 0.19942 0.28021 0.0
C2169 C 0.37017 0.16822 0.27841 0.0
C2170 C 0.34797 0.17787 0.24025 0.0
C2171 C 0.33173 0.16488 0.2311 0.0
C2172 C 0.32836 0.16195 0.20546 0.0
C2173 C 0.34192 0.17258 0.1886 0.0
C2174 C 0.35857 0.18619 0.19738 0.0
C2175 C 0.36156 0.18894 0.22359 0.0
loop_
_geom_bond_atom_site_label_1
_geom_bond_atom_site_label_2
_geom_bond_distance
_geom_bond_site_symmetry_2
_ccdc_geom_bond_type
Co0 O1 2.216 . S
Co0 O2 2.091 . S
Co0 O4 2.004 . S
Co0 O10 2.021 . S
Co0 O12 2.137 . S
Co0 O13 2.244 . S
O1 Co0 2.216 . S
O1 C8 1.247 . S
O2 Co0 2.091 . S
O2 C8 1.261 . S
C3 O12 1.247 . S
C3 O13 1.272 . S
O4 Co0 2.004 . S
O4 C9 1.259 . S
Co5 O6 2.061 . S
Co5 O11 2.052 . S
Co5 O13 2.135 . S
O6 Co5 2.061 . S
O6 C9 1.235 . S
C7 O10 1.238 . S
C7 O11 1.241 . S
C8 O1 1.247 . S
C8 O2 1.261 . S
C9 O4 1.259 . S
C9 O6 1.235 . S
O10 Co0 2.021 . S
O10 C7 1.238 . S
O11 Co5 2.052 . S
O11 C7 1.241 . S
O12 Co0 2.137 . S
O12 C3 1.247 . S
O13 Co0 2.244 . S
O13 C3 1.272 . S
O13 Co5 2.135 . S
Co14 O15 2.216 . S
Co14 O16 2.091 . S
Co14 O18 2.004 . S
Co14 O24 2.021 . S
Co14 O26 2.137 . S
Co14 O27 2.244 . S
O15 Co14 2.216 . S
O15 C22 1.247 . S
O16 Co14 2.091 . S
O16 C22 1.261 . S
C17 O26 1.247 . S
C17 O27 1.272 . S
O18 Co14 2.004 . S
O18 C23 1.259 . S
Co19 O20 2.061 . S
Co19 O25 2.052 . S
Co19 O27 2.135 . S
O20 Co19 2.061 . S
O20 C23 1.235 . S
C21 O24 1.238 . S
C21 O25 1.241 . S
C22 O15 1.247 . S
C22 O16 1.261 . S
C23 O18 1.259 . S
C23 O20 1.235 . S
O24 Co14 2.021 . S
O24 C21 1.238 . S
O25 Co19 2.052 . S
O25 C21 1.241 . S
O26 Co14 2.137 . S
O26 C17 1.247 . S
O27 Co14 2.244 . S
O27 C17 1.272 . S
O27 Co19 2.135 . S
Co28 O29 2.216 . S
Co28 O30 2.091 . S
Co28 O32 2.004 . S
Co28 O38 2.021 . S
Co28 O40 2.137 . S
Co28 O41 2.244 . S
O29 Co28 2.216 . S
O29 C36 1.247 . S
O30 Co28 2.091 . S
O30 C36 1.261 . S
C31 O40 1.247 . S
C31 O41 1.272 . S
O32 Co28 2.004 . S
O32 C37 1.259 . S
Co33 O34 2.061 . S
Co33 O39 2.052 . S
Co33 O41 2.135 . S
O34 Co33 2.061 . S
O34 C37 1.235 . S
C35 O38 1.238 . S
C35 O39 1.241 . S
C36 O29 1.247 . S
C36 O30 1.261 . S
C37 O32 1.259 . S
C37 O34 1.235 . S
O38 Co28 2.021 . S
O38 C35 1.238 . S
O39 Co33 2.052 . S
O39 C35 1.241 . S
O40 Co28 2.137 . S
O40 C31 1.247 . S
O41 Co28 2.244 . S
O41 C31 1.272 . S
O41 Co33 2.135 . S
Co42 O43 2.216 . S
Co42 O44 2.091 . S
Co42 O46 2.004 . S
Co42 O52 2.021 . S
Co42 O54 2.137 . S
Co42 O55 2.244 . S
O43 Co42 2.216 . S
O43 C50 1.247 . S
O44 Co42 2.091 . S
O44 C50 1.261 . S
C45 O54 1.247 . S
C45 O55 1.272 . S
O46 Co42 2.004 . S
O46 C51 1.259 . S
Co47 O48 2.061 . S
Co47 O53 2.052 . S
Co47 O55 2.135 . S
O48 Co47 2.061 . S
O48 C51 1.235 . S
C49 O52 1.238 . S
C49 O53 1.241 . S
C50 O43 1.247 . S
C50 O44 1.261 . S
C51 O46 1.259 . S
C51 O48 1.235 . S
O52 Co42 2.021 . S
O52 C49 1.238 . S
O53 Co47 2.052 . S
O53 C49 1.241 . S
O54 Co42 2.137 . S
O54 C45 1.247 . S
O55 Co42 2.244 . S
O55 C45 1.272 . S
O55 Co47 2.135 . S
Co56 O57 2.216 . S
Co56 O58 2.091 . S
Co56 O60 2.004 . S
Co56 O66 2.021 . S
Co56 O68 2.137 . S
Co56 O69 2.244 . S
O57 Co56 2.216 . S
O57 C64 1.247 . S
O58 Co56 2.091 . S
O58 C64 1.261 . S
C59 O68 1.247 . S
C59 O69 1.272 . S
O60 Co56 2.004 . S
O60 C65 1.259 . S
Co61 O62 2.061 . S
Co61 O67 2.052 . S
Co61 O69 2.135 . S
O62 Co61 2.061 . S
O62 C65 1.235 . S
C63 O66 1.238 . S
C63 O67 1.241 . S
C64 O57 1.247 . S
C64 O58 1.261 . S
C65 O60 1.259 . S
C65 O62 1.235 . S
O66 Co56 2.021 . S
O66 C63 1.238 . S
O67 Co61 2.052 . S
O67 C63 1.241 . S
O68 Co56 2.137 . S
O68 C59 1.247 . S
O69 Co56 2.244 . S
O69 C59 1.272 . S
O69 Co61 2.135 . S
Co70 O71 2.216 . S
Co70 O72 2.091 . S
Co70 O74 2.004 . S
Co70 O80 2.021 . S
Co70 O82 2.137 . S
Co70 O83 2.244 . S
O71 Co70 2.216 . S
O71 C78 1.247 . S
O72 Co70 2.091 . S
O72 C78 1.261 . S
C73 O82 1.247 . S
C73 O83 1.272 . S
O74 Co70 2.004 . S
O74 C79 1.259 . S
Co75 O76 2.061 . S
Co75 O81 2.052 . S
Co75 O83 2.135 . S
O76 Co75 2.061 . S
O76 C79 1.235 . S
C77 O80 1.238 . S
C77 O81 1.241 . S
C78 O71 1.247 . S
C78 O72 1.261 . S
C79 O74 1.259 . S
C79 O76 1.235 . S
O80 Co70 2.021 . S
O80 C77 1.238 . S
O81 Co75 2.052 . S
O81 C77 1.241 . S
O82 Co70 2.137 . S
O82 C73 1.247 . S
O83 Co70 2.244 . S
O83 C73 1.272 . S
O83 Co75 2.135 . S
Co84 O85 2.216 . S
Co84 O86 2.091 . S
Co84 O88 2.004 . S
Co84 O94 2.021 . S
Co84 O96 2.137 . S
Co84 O97 2.244 . S
O85 Co84 2.216 . S
O85 C92 1.247 . S
O86 Co84 2.091 . S
O86 C92 1.261 . S
C87 O96 1.247 . S
C87 O97 1.272 . S
O88 Co84 2.004 . S
O88 C93 1.259 . S
Co89 O90 2.061 . S
Co89 O95 2.052 . S
Co89 O97 2.135 . S
O90 Co89 2.061 . S
O90 C93 1.235 . S
C91 O94 1.238 . S
C91 O95 1.241 . S
C92 O85 1.247 . S
C92 O86 1.261 . S
C93 O88 1.259 . S
C93 O90 1.235 . S
O94 Co84 2.021 . S
O94 C91 1.238 . S
O95 Co89 2.052 . S
O95 C91 1.241 . S
O96 Co84 2.137 . S
O96 C87 1.247 . S
O97 Co84 2.244 . S
O97 C87 1.272 . S
O97 Co89 2.135 . S
Co98 O99 2.216 . S
Co98 O100 2.091 . S
Co98 O102 2.004 . S
Co98 O108 2.021 . S
Co98 O110 2.137 . S
Co98 O111 2.244 . S
O99 Co98 2.216 . S
O99 C106 1.247 . S
O100 Co98 2.091 . S
O100 C106 1.261 . S
C101 O110 1.247 . S
C101 O111 1.272 . S
O102 Co98 2.004 . S
O102 C107 1.259 . S
Co103 O104 2.061 . S
Co103 O109 2.052 . S
Co103 O111 2.135 . S
O104 Co103 2.061 . S
O104 C107 1.235 . S
C105 O108 1.238 . S
C105 O109 1.241 . S
C106 O99 1.247 . S
C106 O100 1.261 . S
C107 O102 1.259 . S
C107 O104 1.235 . S
O108 Co98 2.021 . S
O108 C105 1.238 . S
O109 Co103 2.052 . S
O109 C105 1.241 . S
O110 Co98 2.137 . S
O110 C101 1.247 . S
O111 Co98 2.244 . S
O111 C101 1.272 . S
O111 Co103 2.135 . S
Co112 O113 2.216 . S
Co112 O114 2.091 . S
Co112 O116 2.004 . S
Co112 O122 2.021 . S
Co112 O124 2.137 . S
Co112 O125 2.244 . S
O113 Co112 2.216 . S
O113 C120 1.247 . S
O114 Co112 2.091 . S
O114 C120 1.261 . S
C115 O124 1.247 . S
C115 O125 1.272 . S
O116 Co112 2.004 . S
O116 C121 1.259 . S
Co117 O118 2.061 . S
Co117 O123 2.052 . S
Co117 O125 2.135 . S
O118 Co117 2.061 . S
O118 C121 1.235 . S
C119 O122 1.238 . S
C119 O123 1.241 . S
C120 O113 1.247 . S
C120 O114 1.261 . S
C121 O116 1.259 . S
C121 O118 1.235 . S
O122 Co112 2.021 . S
O122 C119 1.238 . S
O123 Co117 2.052 . S
O123 C119 1.241 . S
O124 Co112 2.137 . S
O124 C115 1.247 . S
O125 Co112 2.244 . S
O125 C115 1.272 . S
O125 Co117 2.135 . S
Co126 O127 2.216 . S
Co126 O128 2.091 . S
Co126 O130 2.004 . S
Co126 O136 2.021 . S
Co126 O138 2.137 . S
Co126 O139 2.244 . S
O127 Co126 2.216 . S
O127 C134 1.247 . S
O128 Co126 2.091 . S
O128 C134 1.261 . S
C129 O138 1.247 . S
C129 O139 1.272 . S
O130 Co126 2.004 . S
O130 C135 1.259 . S
Co131 O132 2.061 . S
Co131 O137 2.052 . S
Co131 O139 2.135 . S
O132 Co131 2.061 . S
O132 C135 1.235 . S
C133 O136 1.238 . S
C133 O137 1.241 . S
C134 O127 1.247 . S
C134 O128 1.261 . S
C135 O130 1.259 . S
C135 O132 1.235 . S
O136 Co126 2.021 . S
O136 C133 1.238 . S
O137 Co131 2.052 . S
O137 C133 1.241 . S
O138 Co126 2.137 . S
O138 C129 1.247 . S
O139 Co126 2.244 . S
O139 C129 1.272 . S
O139 Co131 2.135 . S
Co140 O141 2.216 . S
Co140 O142 2.091 . S
Co140 O144 2.004 . S
Co140 O150 2.021 . S
Co140 O152 2.137 . S
Co140 O153 2.244 . S
O141 Co140 2.216 . S
O141 C148 1.247 . S
O142 Co140 2.091 . S
O142 C148 1.261 . S
C143 O152 1.247 . S
C143 O153 1.272 . S
O144 Co140 2.004 . S
O144 C149 1.259 . S
Co145 O146 2.061 . S
Co145 O151 2.052 . S
Co145 O153 2.135 . S
O146 Co145 2.061 . S
O146 C149 1.235 . S
C147 O150 1.238 . S
C147 O151 1.241 . S
C148 O141 1.247 . S
C148 O142 1.261 . S
C149 O144 1.259 . S
C149 O146 1.235 . S
O150 Co140 2.021 . S
O150 C147 1.238 . S
O151 Co145 2.052 . S
O151 C147 1.241 . S
O152 Co140 2.137 . S
O152 C143 1.247 . S
O153 Co140 2.244 . S
O153 C143 1.272 . S
O153 Co145 2.135 . S
Co154 O155 2.216 . S
Co154 O156 2.091 . S
Co154 O158 2.004 . S
Co154 O164 2.021 . S
Co154 O166 2.137 . S
Co154 O167 2.244 . S
O155 Co154 2.216 . S
O155 C162 1.247 . S
O156 Co154 2.091 . S
O156 C162 1.261 . S
C157 O166 1.247 . S
C157 O167 1.272 . S
O158 Co154 2.004 . S
O158 C163 1.259 . S
Co159 O160 2.061 . S
Co159 O165 2.052 . S
Co159 O167 2.135 . S
O160 Co159 2.061 . S
O160 C163 1.235 . S
C161 O164 1.238 . S
C161 O165 1.241 . S
C162 O155 1.247 . S
C162 O156 1.261 . S
C163 O158 1.259 . S
C163 O160 1.235 . S
O164 Co154 2.021 . S
O164 C161 1.238 . S
O165 Co159 2.052 . S
O165 C161 1.241 . S
O166 Co154 2.137 . S
O166 C157 1.247 . S
O167 Co154 2.244 . S
O167 C157 1.272 . S
O167 Co159 2.135 . S
Co168 O169 2.216 . S
Co168 O170 2.091 . S
Co168 O172 2.004 . S
Co168 O178 2.021 . S
Co168 O180 2.137 . S
Co168 O181 2.244 . S
O169 Co168 2.216 . S
O169 C176 1.247 . S
O170 Co168 2.091 . S
O170 C176 1.261 . S
C171 O180 1.247 . S
C171 O181 1.272 . S
O172 Co168 2.004 . S
O172 C177 1.259 . S
Co173 O174 2.061 . S
Co173 O179 2.052 . S
Co173 O181 2.135 . S
O174 Co173 2.061 . S
O174 C177 1.235 . S
C175 O178 1.238 . S
C175 O179 1.241 . S
C176 O169 1.247 . S
C176 O170 1.261 . S
C177 O172 1.259 . S
C177 O174 1.235 . S
O178 Co168 2.021 . S
O178 C175 1.238 . S
O179 Co173 2.052 . S
O179 C175 1.241 . S
O180 Co168 2.137 . S
O180 C171 1.247 . S
O181 Co168 2.244 . S
O181 C171 1.272 . S
O181 Co173 2.135 . S
Co182 O183 2.216 . S
Co182 O184 2.091 . S
Co182 O186 2.004 . S
Co182 O192 2.021 . S
Co182 O194 2.137 . S
Co182 O195 2.244 . S
O183 Co182 2.216 . S
O183 C190 1.247 . S
O184 Co182 2.091 . S
O184 C190 1.261 . S
C185 O194 1.247 . S
C185 O195 1.272 . S
O186 Co182 2.004 . S
O186 C191 1.259 . S
Co187 O188 2.061 . S
Co187 O193 2.052 . S
Co187 O195 2.135 . S
O188 Co187 2.061 . S
O188 C191 1.235 . S
C189 O192 1.238 . S
C189 O193 1.241 . S
C190 O183 1.247 . S
C190 O184 1.261 . S
C191 O186 1.259 . S
C191 O188 1.235 . S
O192 Co182 2.021 . S
O192 C189 1.238 . S
O193 Co187 2.052 . S
O193 C189 1.241 . S
O194 Co182 2.137 . S
O194 C185 1.247 . S
O195 Co182 2.244 . S
O195 C185 1.272 . S
O195 Co187 2.135 . S
Co196 O197 2.216 . S
Co196 O198 2.091 . S
Co196 O200 2.004 . S
Co196 O206 2.021 . S
Co196 O208 2.137 . S
Co196 O209 2.244 . S
O197 Co196 2.216 . S
O197 C204 1.247 . S
O198 Co196 2.091 . S
O198 C204 1.261 . S
C199 O208 1.247 . S
C199 O209 1.272 . S
O200 Co196 2.004 . S
O200 C205 1.259 . S
Co201 O202 2.061 . S
Co201 O207 2.052 . S
Co201 O209 2.135 . S
O202 Co201 2.061 . S
O202 C205 1.235 . S
C203 O206 1.238 . S
C203 O207 1.241 . S
C204 O197 1.247 . S
C204 O198 1.261 . S
C205 O200 1.259 . S
C205 O202 1.235 . S
O206 Co196 2.021 . S
O206 C203 1.238 . S
O207 Co201 2.052 . S
O207 C203 1.241 . S
O208 Co196 2.137 . S
O208 C199 1.247 . S
O209 Co196 2.244 . S
O209 C199 1.272 . S
O209 Co201 2.135 . S
Co210 O211 2.216 . S
Co210 O212 2.091 . S
Co210 O214 2.004 . S
Co210 O220 2.021 . S
Co210 O222 2.137 . S
Co210 O223 2.244 . S
O211 Co210 2.216 . S
O211 C218 1.247 . S
O212 Co210 2.091 . S
O212 C218 1.261 . S
C213 O222 1.247 . S
C213 O223 1.272 . S
O214 Co210 2.004 . S
O214 C219 1.259 . S
Co215 O216 2.061 . S
Co215 O221 2.052 . S
Co215 O223 2.135 . S
O216 Co215 2.061 . S
O216 C219 1.235 . S
C217 O220 1.238 . S
C217 O221 1.241 . S
C218 O211 1.247 . S
C218 O212 1.261 . S
C219 O214 1.259 . S
C219 O216 1.235 . S
O220 Co210 2.021 . S
O220 C217 1.238 . S
O221 Co215 2.052 . S
O221 C217 1.241 . S
O222 Co210 2.137 . S
O222 C213 1.247 . S
O223 Co210 2.244 . S
O223 C213 1.272 . S
O223 Co215 2.135 . S
Co224 O225 2.216 . S
Co224 O226 2.091 . S
Co224 O228 2.004 . S
Co224 O234 2.021 . S
Co224 O236 2.137 . S
Co224 O237 2.244 . S
O225 Co224 2.216 . S
O225 C232 1.247 . S
O226 Co224 2.091 . S
O226 C232 1.261 . S
C227 O236 1.247 . S
C227 O237 1.272 . S
O228 Co224 2.004 . S
O228 C233 1.259 . S
Co229 O230 2.061 . S
Co229 O235 2.052 . S
Co229 O237 2.135 . S
O230 Co229 2.061 . S
O230 C233 1.235 . S
C231 O234 1.238 . S
C231 O235 1.241 . S
C232 O225 1.247 . S
C232 O226 1.261 . S
C233 O228 1.259 . S
C233 O230 1.235 . S
O234 Co224 2.021 . S
O234 C231 1.238 . S
O235 Co229 2.052 . S
O235 C231 1.241 . S
O236 Co224 2.137 . S
O236 C227 1.247 . S
O237 Co224 2.244 . S
O237 C227 1.272 . S
O237 Co229 2.135 . S
Co238 O239 2.216 . S
Co238 O240 2.091 . S
Co238 O242 2.004 . S
Co238 O248 2.021 . S
Co238 O250 2.137 . S
Co238 O251 2.244 . S
O239 Co238 2.216 . S
O239 C246 1.247 . S
O240 Co238 2.091 . S
O240 C246 1.261 . S
C241 O250 1.247 . S
C241 O251 1.272 . S
O242 Co238 2.004 . S
O242 C247 1.259 . S
Co243 O244 2.061 . S
Co243 O249 2.052 . S
Co243 O251 2.135 . S
O244 Co243 2.061 . S
O244 C247 1.235 . S
C245 O248 1.238 . S
C245 O249 1.241 . S
C246 O239 1.247 . S
C246 O240 1.261 . S
C247 O242 1.259 . S
C247 O244 1.235 . S
O248 Co238 2.021 . S
O248 C245 1.238 . S
O249 Co243 2.052 . S
O249 C245 1.241 . S
O250 Co238 2.137 . S
O250 C241 1.247 . S
O251 Co238 2.244 . S
O251 C241 1.272 . S
O251 Co243 2.135 . S
Co252 O253 2.216 . S
Co252 O254 2.091 . S
Co252 O256 2.004 . S
Co252 O262 2.021 . S
Co252 O264 2.137 . S
Co252 O265 2.244 . S
O253 Co252 2.216 . S
O253 C260 1.247 . S
O254 Co252 2.091 . S
O254 C260 1.261 . S
C255 O264 1.247 . S
C255 O265 1.272 . S
O256 Co252 2.004 . S
O256 C261 1.259 . S
Co257 O258 2.061 . S
Co257 O263 2.052 . S
Co257 O265 2.135 . S
O258 Co257 2.061 . S
O258 C261 1.235 . S
C259 O262 1.238 . S
C259 O263 1.241 . S
C260 O253 1.247 . S
C260 O254 1.261 . S
C261 O256 1.259 . S
C261 O258 1.235 . S
O262 Co252 2.021 . S
O262 C259 1.238 . S
O263 Co257 2.052 . S
O263 C259 1.241 . S
O264 Co252 2.137 . S
O264 C255 1.247 . S
O265 Co252 2.244 . S
O265 C255 1.272 . S
O265 Co257 2.135 . S
Co266 O267 2.216 . S
Co266 O268 2.091 . S
Co266 O270 2.004 . S
Co266 O276 2.021 . S
Co266 O278 2.137 . S
Co266 O279 2.244 . S
O267 Co266 2.216 . S
O267 C274 1.247 . S
O268 Co266 2.091 . S
O268 C274 1.261 . S
C269 O278 1.247 . S
C269 O279 1.272 . S
O270 Co266 2.004 . S
O270 C275 1.259 . S
Co271 O272 2.061 . S
Co271 O277 2.052 . S
Co271 O279 2.135 . S
O272 Co271 2.061 . S
O272 C275 1.235 . S
C273 O276 1.238 . S
C273 O277 1.241 . S
C274 O267 1.247 . S
C274 O268 1.261 . S
C275 O270 1.259 . S
C275 O272 1.235 . S
O276 Co266 2.021 . S
O276 C273 1.238 . S
O277 Co271 2.052 . S
O277 C273 1.241 . S
O278 Co266 2.137 . S
O278 C269 1.247 . S
O279 Co266 2.244 . S
O279 C269 1.272 . S
O279 Co271 2.135 . S
Co280 O281 2.216 . S
Co280 O282 2.091 . S
Co280 O284 2.004 . S
Co280 O290 2.021 . S
Co280 O292 2.137 . S
Co280 O293 2.244 . S
O281 Co280 2.216 . S
O281 C288 1.247 . S
O282 Co280 2.091 . S
O282 C288 1.261 . S
C283 O292 1.247 . S
C283 O293 1.272 . S
O284 Co280 2.004 . S
O284 C289 1.259 . S
Co285 O286 2.061 . S
Co285 O291 2.052 . S
Co285 O293 2.135 . S
O286 Co285 2.061 . S
O286 C289 1.235 . S
C287 O290 1.238 . S
C287 O291 1.241 . S
C288 O281 1.247 . S
C288 O282 1.261 . S
C289 O284 1.259 . S
C289 O286 1.235 . S
O290 Co280 2.021 . S
O290 C287 1.238 . S
O291 Co285 2.052 . S
O291 C287 1.241 . S
O292 Co280 2.137 . S
O292 C283 1.247 . S
O293 Co280 2.244 . S
O293 C283 1.272 . S
O293 Co285 2.135 . S
Co294 O295 2.216 . S
Co294 O296 2.091 . S
Co294 O298 2.004 . S
Co294 O304 2.021 . S
Co294 O306 2.137 . S
Co294 O307 2.244 . S
O295 Co294 2.216 . S
O295 C302 1.247 . S
O296 Co294 2.091 . S
O296 C302 1.261 . S
C297 O306 1.247 . S
C297 O307 1.272 . S
O298 Co294 2.004 . S
O298 C303 1.259 . S
Co299 O300 2.061 . S
Co299 O305 2.052 . S
Co299 O307 2.135 . S
O300 Co299 2.061 . S
O300 C303 1.235 . S
C301 O304 1.238 . S
C301 O305 1.241 . S
C302 O295 1.247 . S
C302 O296 1.261 . S
C303 O298 1.259 . S
C303 O300 1.235 . S
O304 Co294 2.021 . S
O304 C301 1.238 . S
O305 Co299 2.052 . S
O305 C301 1.241 . S
O306 Co294 2.137 . S
O306 C297 1.247 . S
O307 Co294 2.244 . S
O307 C297 1.272 . S
O307 Co299 2.135 . S
Co308 O309 2.216 . S
Co308 O310 2.091 . S
Co308 O312 2.004 . S
Co308 O318 2.021 . S
Co308 O320 2.137 . S
Co308 O321 2.244 . S
O309 Co308 2.216 . S
O309 C316 1.247 . S
O310 Co308 2.091 . S
O310 C316 1.261 . S
C311 O320 1.247 . S
C311 O321 1.272 . S
O312 Co308 2.004 . S
O312 C317 1.259 . S
Co313 O314 2.061 . S
Co313 O319 2.052 . S
Co313 O321 2.135 . S
O314 Co313 2.061 . S
O314 C317 1.235 . S
C315 O318 1.238 . S
C315 O319 1.241 . S
C316 O309 1.247 . S
C316 O310 1.261 . S
C317 O312 1.259 . S
C317 O314 1.235 . S
O318 Co308 2.021 . S
O318 C315 1.238 . S
O319 Co313 2.052 . S
O319 C315 1.241 . S
O320 Co308 2.137 . S
O320 C311 1.247 . S
O321 Co308 2.244 . S
O321 C311 1.272 . S
O321 Co313 2.135 . S
Co322 O323 2.216 . S
Co322 O324 2.091 . S
Co322 O326 2.004 . S
Co322 O332 2.021 . S
Co322 O334 2.137 . S
Co322 O335 2.244 . S
O323 Co322 2.216 . S
O323 C330 1.247 . S
O324 Co322 2.091 . S
O324 C330 1.261 . S
C325 O334 1.247 . S
C325 O335 1.272 . S
O326 Co322 2.004 . S
O326 C331 1.259 . S
Co327 O328 2.061 . S
Co327 O333 2.052 . S
Co327 O335 2.135 . S
O328 Co327 2.061 . S
O328 C331 1.235 . S
C329 O332 1.238 . S
C329 O333 1.241 . S
C330 O323 1.247 . S
C330 O324 1.261 . S
C331 O326 1.259 . S
C331 O328 1.235 . S
O332 Co322 2.021 . S
O332 C329 1.238 . S
O333 Co327 2.052 . S
O333 C329 1.241 . S
O334 Co322 2.137 . S
O334 C325 1.247 . S
O335 Co322 2.244 . S
O335 C325 1.272 . S
O335 Co327 2.135 . S
Co336 O337 2.216 . S
Co336 O338 2.091 . S
Co336 O340 2.004 . S
Co336 O346 2.021 . S
Co336 O348 2.137 . S
Co336 O349 2.244 . S
O337 Co336 2.216 . S
O337 C344 1.247 . S
O338 Co336 2.091 . S
O338 C344 1.261 . S
C339 O348 1.247 . S
C339 O349 1.272 . S
O340 Co336 2.004 . S
O340 C345 1.259 . S
Co341 O342 2.061 . S
Co341 O347 2.052 . S
Co341 O349 2.135 . S
O342 Co341 2.061 . S
O342 C345 1.235 . S
C343 O346 1.238 . S
C343 O347 1.241 . S
C344 O337 1.247 . S
C344 O338 1.261 . S
C345 O340 1.259 . S
C345 O342 1.235 . S
O346 Co336 2.021 . S
O346 C343 1.238 . S
O347 Co341 2.052 . S
O347 C343 1.241 . S
O348 Co336 2.137 . S
O348 C339 1.247 . S
O349 Co336 2.244 . S
O349 C339 1.272 . S
O349 Co341 2.135 . S
Co350 O351 2.216 . S
Co350 O352 2.091 . S
Co350 O354 2.004 . S
Co350 O360 2.021 . S
Co350 O362 2.137 . S
Co350 O363 2.244 . S
O351 Co350 2.216 . S
O351 C358 1.247 . S
O352 Co350 2.091 . S
O352 C358 1.261 . S
C353 O362 1.247 . S
C353 O363 1.272 . S
O354 Co350 2.004 . S
O354 C359 1.259 . S
Co355 O356 2.061 . S
Co355 O361 2.052 . S
Co355 O363 2.135 . S
O356 Co355 2.061 . S
O356 C359 1.235 . S
C357 O360 1.238 . S
C357 O361 1.241 . S
C358 O351 1.247 . S
C358 O352 1.261 . S
C359 O354 1.259 . S
C359 O356 1.235 . S
O360 Co350 2.021 . S
O360 C357 1.238 . S
O361 Co355 2.052 . S
O361 C357 1.241 . S
O362 Co350 2.137 . S
O362 C353 1.247 . S
O363 Co350 2.244 . S
O363 C353 1.272 . S
O363 Co355 2.135 . S
Co364 O365 2.216 . S
Co364 O366 2.091 . S
Co364 O368 2.004 . S
Co364 O374 2.021 . S
Co364 O376 2.137 . S
Co364 O377 2.244 . S
O365 Co364 2.216 . S
O365 C372 1.247 . S
O366 Co364 2.091 . S
O366 C372 1.261 . S
C367 O376 1.247 . S
C367 O377 1.272 . S
O368 Co364 2.004 . S
O368 C373 1.259 . S
Co369 O370 2.061 . S
Co369 O375 2.052 . S
Co369 O377 2.135 . S
O370 Co369 2.061 . S
O370 C373 1.235 . S
C371 O374 1.238 . S
C371 O375 1.241 . S
C372 O365 1.247 . S
C372 O366 1.261 . S
C373 O368 1.259 . S
C373 O370 1.235 . S
O374 Co364 2.021 . S
O374 C371 1.238 . S
O375 Co369 2.052 . S
O375 C371 1.241 . S
O376 Co364 2.137 . S
O376 C367 1.247 . S
O377 Co364 2.244 . S
O377 C367 1.272 . S
O377 Co369 2.135 . S
Co378 O379 2.216 . S
Co378 O380 2.091 . S
Co378 O382 2.004 . S
Co378 O388 2.021 . S
Co378 O390 2.137 . S
Co378 O391 2.244 . S
O379 Co378 2.216 . S
O379 C386 1.247 . S
O380 Co378 2.091 . S
O380 C386 1.261 . S
C381 O390 1.247 . S
C381 O391 1.272 . S
O382 Co378 2.004 . S
O382 C387 1.259 . S
Co383 O384 2.061 . S
Co383 O389 2.052 . S
Co383 O391 2.135 . S
O384 Co383 2.061 . S
O384 C387 1.235 . S
C385 O388 1.238 . S
C385 O389 1.241 . S
C386 O379 1.247 . S
C386 O380 1.261 . S
C387 O382 1.259 . S
C387 O384 1.235 . S
O388 Co378 2.021 . S
O388 C385 1.238 . S
O389 Co383 2.052 . S
O389 C385 1.241 . S
O390 Co378 2.137 . S
O390 C381 1.247 . S
O391 Co378 2.244 . S
O391 C381 1.272 . S
O391 Co383 2.135 . S
Co392 O393 2.216 . S
Co392 O394 2.091 . S
Co392 O396 2.004 . S
Co392 O402 2.021 . S
Co392 O404 2.137 . S
Co392 O405 2.244 . S
O393 Co392 2.216 . S
O393 C400 1.247 . S
O394 Co392 2.091 . S
O394 C400 1.261 . S
C395 O404 1.247 . S
C395 O405 1.272 . S
O396 Co392 2.004 . S
O396 C401 1.259 . S
Co397 O398 2.061 . S
Co397 O403 2.052 . S
Co397 O405 2.135 . S
O398 Co397 2.061 . S
O398 C401 1.235 . S
C399 O402 1.238 . S
C399 O403 1.241 . S
C400 O393 1.247 . S
C400 O394 1.261 . S
C401 O396 1.259 . S
C401 O398 1.235 . S
O402 Co392 2.021 . S
O402 C399 1.238 . S
O403 Co397 2.052 . S
O403 C399 1.241 . S
O404 Co392 2.137 . S
O404 C395 1.247 . S
O405 Co392 2.244 . S
O405 C395 1.272 . S
O405 Co397 2.135 . S
Co406 O407 2.216 . S
Co406 O408 2.091 . S
Co406 O410 2.004 . S
Co406 O416 2.021 . S
Co406 O418 2.137 . S
Co406 O419 2.244 . S
O407 Co406 2.216 . S
O407 C414 1.247 . S
O408 Co406 2.091 . S
O408 C414 1.261 . S
C409 O418 1.247 . S
C409 O419 1.272 . S
O410 Co406 2.004 . S
O410 C415 1.259 . S
Co411 O412 2.061 . S
Co411 O417 2.052 . S
Co411 O419 2.135 . S
O412 Co411 2.061 . S
O412 C415 1.235 . S
C413 O416 1.238 . S
C413 O417 1.241 . S
C414 O407 1.247 . S
C414 O408 1.261 . S
C415 O410 1.259 . S
C415 O412 1.235 . S
O416 Co406 2.021 . S
O416 C413 1.238 . S
O417 Co411 2.052 . S
O417 C413 1.241 . S
O418 Co406 2.137 . S
O418 C409 1.247 . S
O419 Co406 2.244 . S
O419 C409 1.272 . S
O419 Co411 2.135 . S
Co420 O421 2.216 . S
Co420 O422 2.091 . S
Co420 O424 2.004 . S
Co420 O430 2.021 . S
Co420 O432 2.137 . S
Co420 O433 2.244 . S
O421 Co420 2.216 . S
O421 C428 1.247 . S
O422 Co420 2.091 . S
O422 C428 1.261 . S
C423 O432 1.247 . S
C423 O433 1.272 . S
O424 Co420 2.004 . S
O424 C429 1.259 . S
Co425 O426 2.061 . S
Co425 O431 2.052 . S
Co425 O433 2.135 . S
O426 Co425 2.061 . S
O426 C429 1.235 . S
C427 O430 1.238 . S
C427 O431 1.241 . S
C428 O421 1.247 . S
C428 O422 1.261 . S
C429 O424 1.259 . S
C429 O426 1.235 . S
O430 Co420 2.021 . S
O430 C427 1.238 . S
O431 Co425 2.052 . S
O431 C427 1.241 . S
O432 Co420 2.137 . S
O432 C423 1.247 . S
O433 Co420 2.244 . S
O433 C423 1.272 . S
O433 Co425 2.135 . S
Co434 O435 2.216 . S
Co434 O436 2.091 . S
Co434 O438 2.004 . S
Co434 O444 2.021 . S
Co434 O446 2.137 . S
Co434 O447 2.244 . S
O435 Co434 2.216 . S
O435 C442 1.247 . S
O436 Co434 2.091 . S
O436 C442 1.261 . S
C437 O446 1.247 . S
C437 O447 1.272 . S
O438 Co434 2.004 . S
O438 C443 1.259 . S
Co439 O440 2.061 . S
Co439 O445 2.052 . S
Co439 O447 2.135 . S
O440 Co439 2.061 . S
O440 C443 1.235 . S
C441 O444 1.238 . S
C441 O445 1.241 . S
C442 O435 1.247 . S
C442 O436 1.261 . S
C443 O438 1.259 . S
C443 O440 1.235 . S
O444 Co434 2.021 . S
O444 C441 1.238 . S
O445 Co439 2.052 . S
O445 C441 1.241 . S
O446 Co434 2.137 . S
O446 C437 1.247 . S
O447 Co434 2.244 . S
O447 C437 1.272 . S
O447 Co439 2.135 . S
H448 C460 0.930 . S
H449 C462 0.930 . S
H450 C463 0.930 . S
H451 C467 0.959 . S
H452 C467 0.959 . S
H453 C467 0.961 . S
H454 C468 0.960 . S
H455 C468 0.961 . S
H456 C468 0.959 . S
H457 C471 0.929 . S
H458 C472 0.931 . S
H459 C474 0.930 . S
C460 H448 0.930 . S
C460 C461 1.399 . S
C460 C465 1.399 . S
C461 C460 1.399 . S
C461 C462 1.376 . S
C462 H449 0.930 . S
C462 C461 1.376 . S
C462 C463 1.388 . S
C463 H450 0.930 . S
C463 C462 1.388 . S
C463 C464 1.390 . S
C464 C463 1.390 . S
C464 C465 1.394 . S
C464 C470 1.465 . S
C465 C460 1.399 . S
C465 C464 1.394 . S
C465 C466 1.516 . S
C466 C465 1.516 . S
C466 C467 1.502 . S
C466 C468 1.561 . S
C466 C469 1.526 . S
C467 H451 0.959 . S
C467 H452 0.959 . S
C467 H453 0.961 . S
C467 C466 1.502 . S
C468 H454 0.960 . S
C468 H455 0.961 . S
C468 H456 0.959 . S
C468 C466 1.561 . S
C469 C466 1.526 . S
C469 C470 1.396 . S
C469 C474 1.390 . S
C470 C464 1.465 . S
C470 C469 1.396 . S
C470 C471 1.399 . S
C471 H457 0.929 . S
C471 C470 1.399 . S
C471 C472 1.385 . S
C472 H458 0.931 . S
C472 C471 1.385 . S
C472 C473 1.389 . S
C473 C472 1.389 . S
C473 C474 1.387 . S
C474 H459 0.930 . S
C474 C469 1.390 . S
C474 C473 1.387 . S
H475 C487 0.930 . S
H476 C489 0.930 . S
H477 C490 0.930 . S
H478 C494 0.959 . S
H479 C494 0.959 . S
H480 C494 0.961 . S
H481 C495 0.960 . S
H482 C495 0.961 . S
H483 C495 0.959 . S
H484 C498 0.929 . S
H485 C499 0.931 . S
H486 C501 0.930 . S
C487 H475 0.930 . S
C487 C488 1.399 . S
C487 C492 1.399 . S
C488 C487 1.399 . S
C488 C489 1.376 . S
C489 H476 0.930 . S
C489 C488 1.376 . S
C489 C490 1.388 . S
C490 H477 0.930 . S
C490 C489 1.388 . S
C490 C491 1.390 . S
C491 C490 1.390 . S
C491 C492 1.394 . S
C491 C497 1.465 . S
C492 C487 1.399 . S
C492 C491 1.394 . S
C492 C493 1.516 . S
C493 C492 1.516 . S
C493 C494 1.502 . S
C493 C495 1.561 . S
C493 C496 1.526 . S
C494 H478 0.959 . S
C494 H479 0.959 . S
C494 H480 0.961 . S
C494 C493 1.502 . S
C495 H481 0.960 . S
C495 H482 0.961 . S
C495 H483 0.959 . S
C495 C493 1.561 . S
C496 C493 1.526 . S
C496 C497 1.396 . S
C496 C501 1.390 . S
C497 C491 1.465 . S
C497 C496 1.396 . S
C497 C498 1.399 . S
C498 H484 0.929 . S
C498 C497 1.399 . S
C498 C499 1.385 . S
C499 H485 0.931 . S
C499 C498 1.385 . S
C499 C500 1.389 . S
C500 C499 1.389 . S
C500 C501 1.387 . S
C501 H486 0.930 . S
C501 C496 1.390 . S
C501 C500 1.387 . S
H502 C514 0.930 . S
H503 C516 0.930 . S
H504 C517 0.930 . S
H505 C521 0.959 . S
H506 C521 0.959 . S
H507 C521 0.961 . S
H508 C522 0.960 . S
H509 C522 0.961 . S
H510 C522 0.959 . S
H511 C525 0.929 . S
H512 C526 0.931 . S
H513 C528 0.930 . S
C514 H502 0.930 . S
C514 C515 1.399 . S
C514 C519 1.399 . S
C515 C514 1.399 . S
C515 C516 1.376 . S
C516 H503 0.930 . S
C516 C515 1.376 . S
C516 C517 1.388 . S
C517 H504 0.930 . S
C517 C516 1.388 . S
C517 C518 1.390 . S
C518 C517 1.390 . S
C518 C519 1.394 . S
C518 C524 1.465 . S
C519 C514 1.399 . S
C519 C518 1.394 . S
C519 C520 1.516 . S
C520 C519 1.516 . S
C520 C521 1.502 . S
C520 C522 1.561 . S
C520 C523 1.526 . S
C521 H505 0.959 . S
C521 H506 0.959 . S
C521 H507 0.961 . S
C521 C520 1.502 . S
C522 H508 0.960 . S
C522 H509 0.961 . S
C522 H510 0.959 . S
C522 C520 1.561 . S
C523 C520 1.526 . S
C523 C524 1.396 . S
C523 C528 1.390 . S
C524 C518 1.465 . S
C524 C523 1.396 . S
C524 C525 1.399 . S
C525 H511 0.929 . S
C525 C524 1.399 . S
C525 C526 1.385 . S
C526 H512 0.931 . S
C526 C525 1.385 . S
C526 C527 1.389 . S
C527 C526 1.389 . S
C527 C528 1.387 . S
C528 H513 0.930 . S
C528 C523 1.390 . S
C528 C527 1.387 . S
H529 C541 0.930 . S
H530 C543 0.930 . S
H531 C544 0.930 . S
H532 C548 0.959 . S
H533 C548 0.959 . S
H534 C548 0.961 . S
H535 C549 0.960 . S
H536 C549 0.961 . S
H537 C549 0.959 . S
H538 C552 0.929 . S
H539 C553 0.931 . S
H540 C555 0.930 . S
C541 H529 0.930 . S
C541 C542 1.399 . S
C541 C546 1.399 . S
C542 C541 1.399 . S
C542 C543 1.376 . S
C543 H530 0.930 . S
C543 C542 1.376 . S
C543 C544 1.388 . S
C544 H531 0.930 . S
C544 C543 1.388 . S
C544 C545 1.390 . S
C545 C544 1.390 . S
C545 C546 1.394 . S
C545 C551 1.465 . S
C546 C541 1.399 . S
C546 C545 1.394 . S
C546 C547 1.516 . S
C547 C546 1.516 . S
C547 C548 1.502 . S
C547 C549 1.561 . S
C547 C550 1.526 . S
C548 H532 0.959 . S
C548 H533 0.959 . S
C548 H534 0.961 . S
C548 C547 1.502 . S
C549 H535 0.960 . S
C549 H536 0.961 . S
C549 H537 0.959 . S
C549 C547 1.561 . S
C550 C547 1.526 . S
C550 C551 1.396 . S
C550 C555 1.390 . S
C551 C545 1.465 . S
C551 C550 1.396 . S
C551 C552 1.399 . S
C552 H538 0.929 . S
C552 C551 1.399 . S
C552 C553 1.385 . S
C553 H539 0.931 . S
C553 C552 1.385 . S
C553 C554 1.389 . S
C554 C553 1.389 . S
C554 C555 1.387 . S
C555 H540 0.930 . S
C555 C550 1.390 . S
C555 C554 1.387 . S
H556 C568 0.930 . S
H557 C570 0.930 . S
H558 C571 0.930 . S
H559 C575 0.959 . S
H560 C575 0.959 . S
H561 C575 0.961 . S
H562 C576 0.960 . S
H563 C576 0.961 . S
H564 C576 0.959 . S
H565 C579 0.929 . S
H566 C580 0.931 . S
H567 C582 0.930 . S
C568 H556 0.930 . S
C568 C569 1.399 . S
C568 C573 1.399 . S
C569 C568 1.399 . S
C569 C570 1.376 . S
C570 H557 0.930 . S
C570 C569 1.376 . S
C570 C571 1.388 . S
C571 H558 0.930 . S
C571 C570 1.388 . S
C571 C572 1.390 . S
C572 C571 1.390 . S
C572 C573 1.394 . S
C572 C578 1.465 . S
C573 C568 1.399 . S
C573 C572 1.394 . S
C573 C574 1.516 . S
C574 C573 1.516 . S
C574 C575 1.502 . S
C574 C576 1.561 . S
C574 C577 1.526 . S
C575 H559 0.959 . S
C575 H560 0.959 . S
C575 H561 0.961 . S
C575 C574 1.502 . S
C576 H562 0.960 . S
C576 H563 0.961 . S
C576 H564 0.959 . S
C576 C574 1.561 . S
C577 C574 1.526 . S
C577 C578 1.396 . S
C577 C582 1.390 . S
C578 C572 1.465 . S
C578 C577 1.396 . S
C578 C579 1.399 . S
C579 H565 0.929 . S
C579 C578 1.399 . S
C579 C580 1.385 . S
C580 H566 0.931 . S
C580 C579 1.385 . S
C580 C581 1.389 . S
C581 C580 1.389 . S
C581 C582 1.387 . S
C582 H567 0.930 . S
C582 C577 1.390 . S
C582 C581 1.387 . S
H583 C595 0.930 . S
H584 C597 0.930 . S
H585 C598 0.930 . S
H586 C602 0.959 . S
H587 C602 0.959 . S
H588 C602 0.961 . S
H589 C603 0.960 . S
H590 C603 0.961 . S
H591 C603 0.959 . S
H592 C606 0.929 . S
H593 C607 0.931 . S
H594 C609 0.930 . S
C595 H583 0.930 . S
C595 C596 1.399 . S
C595 C600 1.399 . S
C596 C595 1.399 . S
C596 C597 1.376 . S
C597 H584 0.930 . S
C597 C596 1.376 . S
C597 C598 1.388 . S
C598 H585 0.930 . S
C598 C597 1.388 . S
C598 C599 1.390 . S
C599 C598 1.390 . S
C599 C600 1.394 . S
C599 C605 1.465 . S
C600 C595 1.399 . S
C600 C599 1.394 . S
C600 C601 1.516 . S
C601 C600 1.516 . S
C601 C602 1.502 . S
C601 C603 1.561 . S
C601 C604 1.526 . S
C602 H586 0.959 . S
C602 H587 0.959 . S
C602 H588 0.961 . S
C602 C601 1.502 . S
C603 H589 0.960 . S
C603 H590 0.961 . S
C603 H591 0.959 . S
C603 C601 1.561 . S
C604 C601 1.526 . S
C604 C605 1.396 . S
C604 C609 1.390 . S
C605 C599 1.465 . S
C605 C604 1.396 . S
C605 C606 1.399 . S
C606 H592 0.929 . S
C606 C605 1.399 . S
C606 C607 1.385 . S
C607 H593 0.931 . S
C607 C606 1.385 . S
C607 C608 1.389 . S
C608 C607 1.389 . S
C608 C609 1.387 . S
C609 H594 0.930 . S
C609 C604 1.390 . S
C609 C608 1.387 . S
H610 C622 0.930 . S
H611 C624 0.930 . S
H612 C625 0.930 . S
H613 C629 0.959 . S
H614 C629 0.959 . S
H615 C629 0.961 . S
H616 C630 0.960 . S
H617 C630 0.961 . S
H618 C630 0.959 . S
H619 C633 0.929 . S
H620 C634 0.931 . S
H621 C636 0.930 . S
C622 H610 0.930 . S
C622 C623 1.399 . S
C622 C627 1.399 . S
C623 C622 1.399 . S
C623 C624 1.376 . S
C624 H611 0.930 . S
C624 C623 1.376 . S
C624 C625 1.388 . S
C625 H612 0.930 . S
C625 C624 1.388 . S
C625 C626 1.390 . S
C626 C625 1.390 . S
C626 C627 1.394 . S
C626 C632 1.465 . S
C627 C622 1.399 . S
C627 C626 1.394 . S
C627 C628 1.516 . S
C628 C627 1.516 . S
C628 C629 1.502 . S
C628 C630 1.561 . S
C628 C631 1.526 . S
C629 H613 0.959 . S
C629 H614 0.959 . S
C629 H615 0.961 . S
C629 C628 1.502 . S
C630 H616 0.960 . S
C630 H617 0.961 . S
C630 H618 0.959 . S
C630 C628 1.561 . S
C631 C628 1.526 . S
C631 C632 1.396 . S
C631 C636 1.390 . S
C632 C626 1.465 . S
C632 C631 1.396 . S
C632 C633 1.399 . S
C633 H619 0.929 . S
C633 C632 1.399 . S
C633 C634 1.385 . S
C634 H620 0.931 . S
C634 C633 1.385 . S
C634 C635 1.389 . S
C635 C634 1.389 . S
C635 C636 1.387 . S
C636 H621 0.930 . S
C636 C631 1.390 . S
C636 C635 1.387 . S
H637 C649 0.930 . S
H638 C651 0.930 . S
H639 C652 0.930 . S
H640 C656 0.959 . S
H641 C656 0.959 . S
H642 C656 0.961 . S
H643 C657 0.960 . S
H644 C657 0.961 . S
H645 C657 0.959 . S
H646 C660 0.929 . S
H647 C661 0.931 . S
H648 C663 0.930 . S
C649 H637 0.930 . S
C649 C650 1.399 . S
C649 C654 1.399 . S
C650 C649 1.399 . S
C650 C651 1.376 . S
C651 H638 0.930 . S
C651 C650 1.376 . S
C651 C652 1.388 . S
C652 H639 0.930 . S
C652 C651 1.388 . S
C652 C653 1.390 . S
C653 C652 1.390 . S
C653 C654 1.394 . S
C653 C659 1.465 . S
C654 C649 1.399 . S
C654 C653 1.394 . S
C654 C655 1.516 . S
C655 C654 1.516 . S
C655 C656 1.502 . S
C655 C657 1.561 . S
C655 C658 1.526 . S
C656 H640 0.959 . S
C656 H641 0.959 . S
C656 H642 0.961 . S
C656 C655 1.502 . S
C657 H643 0.960 . S
C657 H644 0.961 . S
C657 H645 0.959 . S
C657 C655 1.561 . S
C658 C655 1.526 . S
C658 C659 1.396 . S
C658 C663 1.390 . S
C659 C653 1.465 . S
C659 C658 1.396 . S
C659 C660 1.399 . S
C660 H646 0.929 . S
C660 C659 1.399 . S
C660 C661 1.385 . S
C661 H647 0.931 . S
C661 C660 1.385 . S
C661 C662 1.389 . S
C662 C661 1.389 . S
C662 C663 1.387 . S
C663 H648 0.930 . S
C663 C658 1.390 . S
C663 C662 1.387 . S
H664 C676 0.930 . S
H665 C678 0.930 . S
H666 C679 0.930 . S
H667 C683 0.959 . S
H668 C683 0.959 . S
H669 C683 0.961 . S
H670 C684 0.960 . S
H671 C684 0.961 . S
H672 C684 0.959 . S
H673 C687 0.929 . S
H674 C688 0.931 . S
H675 C690 0.930 . S
C676 H664 0.930 . S
C676 C677 1.399 . S
C676 C681 1.399 . S
C677 C676 1.399 . S
C677 C678 1.376 . S
C678 H665 0.930 . S
C678 C677 1.376 . S
C678 C679 1.388 . S
C679 H666 0.930 . S
C679 C678 1.388 . S
C679 C680 1.390 . S
C680 C679 1.390 . S
C680 C681 1.394 . S
C680 C686 1.465 . S
C681 C676 1.399 . S
C681 C680 1.394 . S
C681 C682 1.516 . S
C682 C681 1.516 . S
C682 C683 1.502 . S
C682 C684 1.561 . S
C682 C685 1.526 . S
C683 H667 0.959 . S
C683 H668 0.959 . S
C683 H669 0.961 . S
C683 C682 1.502 . S
C684 H670 0.960 . S
C684 H671 0.961 . S
C684 H672 0.959 . S
C684 C682 1.561 . S
C685 C682 1.526 . S
C685 C686 1.396 . S
C685 C690 1.390 . S
C686 C680 1.465 . S
C686 C685 1.396 . S
C686 C687 1.399 . S
C687 H673 0.929 . S
C687 C686 1.399 . S
C687 C688 1.385 . S
C688 H674 0.931 . S
C688 C687 1.385 . S
C688 C689 1.389 . S
C689 C688 1.389 . S
C689 C690 1.387 . S
C690 H675 0.930 . S
C690 C685 1.390 . S
C690 C689 1.387 . S
H691 C703 0.930 . S
H692 C705 0.930 . S
H693 C706 0.930 . S
H694 C710 0.959 . S
H695 C710 0.959 . S
H696 C710 0.961 . S
H697 C711 0.960 . S
H698 C711 0.961 . S
H699 C711 0.959 . S
H700 C714 0.929 . S
H701 C715 0.931 . S
H702 C717 0.930 . S
C703 H691 0.930 . S
C703 C704 1.399 . S
C703 C708 1.399 . S
C704 C703 1.399 . S
C704 C705 1.376 . S
C705 H692 0.930 . S
C705 C704 1.376 . S
C705 C706 1.388 . S
C706 H693 0.930 . S
C706 C705 1.388 . S
C706 C707 1.390 . S
C707 C706 1.390 . S
C707 C708 1.394 . S
C707 C713 1.465 . S
C708 C703 1.399 . S
C708 C707 1.394 . S
C708 C709 1.516 . S
C709 C708 1.516 . S
C709 C710 1.502 . S
C709 C711 1.561 . S
C709 C712 1.526 . S
C710 H694 0.959 . S
C710 H695 0.959 . S
C710 H696 0.961 . S
C710 C709 1.502 . S
C711 H697 0.960 . S
C711 H698 0.961 . S
C711 H699 0.959 . S
C711 C709 1.561 . S
C712 C709 1.526 . S
C712 C713 1.396 . S
C712 C717 1.390 . S
C713 C707 1.465 . S
C713 C712 1.396 . S
C713 C714 1.399 . S
C714 H700 0.929 . S
C714 C713 1.399 . S
C714 C715 1.385 . S
C715 H701 0.931 . S
C715 C714 1.385 . S
C715 C716 1.389 . S
C716 C715 1.389 . S
C716 C717 1.387 . S
C717 H702 0.930 . S
C717 C712 1.390 . S
C717 C716 1.387 . S
H718 C730 0.930 . S
H719 C732 0.930 . S
H720 C733 0.930 . S
H721 C737 0.959 . S
H722 C737 0.959 . S
H723 C737 0.961 . S
H724 C738 0.960 . S
H725 C738 0.961 . S
H726 C738 0.959 . S
H727 C741 0.929 . S
H728 C742 0.931 . S
H729 C744 0.930 . S
C730 H718 0.930 . S
C730 C731 1.399 . S
C730 C735 1.399 . S
C731 C730 1.399 . S
C731 C732 1.376 . S
C732 H719 0.930 . S
C732 C731 1.376 . S
C732 C733 1.388 . S
C733 H720 0.930 . S
C733 C732 1.388 . S
C733 C734 1.390 . S
C734 C733 1.390 . S
C734 C735 1.394 . S
C734 C740 1.465 . S
C735 C730 1.399 . S
C735 C734 1.394 . S
C735 C736 1.516 . S
C736 C735 1.516 . S
C736 C737 1.502 . S
C736 C738 1.561 . S
C736 C739 1.526 . S
C737 H721 0.959 . S
C737 H722 0.959 . S
C737 H723 0.961 . S
C737 C736 1.502 . S
C738 H724 0.960 . S
C738 H725 0.961 . S
C738 H726 0.959 . S
C738 C736 1.561 . S
C739 C736 1.526 . S
C739 C740 1.396 . S
C739 C744 1.390 . S
C740 C734 1.465 . S
C740 C739 1.396 . S
C740 C741 1.399 . S
C741 H727 0.929 . S
C741 C740 1.399 . S
C741 C742 1.385 . S
C742 H728 0.931 . S
C742 C741 1.385 . S
C742 C743 1.389 . S
C743 C742 1.389 . S
C743 C744 1.387 . S
C744 H729 0.930 . S
C744 C739 1.390 . S
C744 C743 1.387 . S
H745 C757 0.930 . S
H746 C759 0.930 . S
H747 C760 0.930 . S
H748 C764 0.959 . S
H749 C764 0.959 . S
H750 C764 0.961 . S
H751 C765 0.960 . S
H752 C765 0.961 . S
H753 C765 0.959 . S
H754 C768 0.929 . S
H755 C769 0.931 . S
H756 C771 0.930 . S
C757 H745 0.930 . S
C757 C758 1.399 . S
C757 C762 1.399 . S
C758 C757 1.399 . S
C758 C759 1.376 . S
C759 H746 0.930 . S
C759 C758 1.376 . S
C759 C760 1.388 . S
C760 H747 0.930 . S
C760 C759 1.388 . S
C760 C761 1.390 . S
C761 C760 1.390 . S
C761 C762 1.394 . S
C761 C767 1.465 . S
C762 C757 1.399 . S
C762 C761 1.394 . S
C762 C763 1.516 . S
C763 C762 1.516 . S
C763 C764 1.502 . S
C763 C765 1.561 . S
C763 C766 1.526 . S
C764 H748 0.959 . S
C764 H749 0.959 . S
C764 H750 0.961 . S
C764 C763 1.502 . S
C765 H751 0.960 . S
C765 H752 0.961 . S
C765 H753 0.959 . S
C765 C763 1.561 . S
C766 C763 1.526 . S
C766 C767 1.396 . S
C766 C771 1.390 . S
C767 C761 1.465 . S
C767 C766 1.396 . S
C767 C768 1.399 . S
C768 H754 0.929 . S
C768 C767 1.399 . S
C768 C769 1.385 . S
C769 H755 0.931 . S
C769 C768 1.385 . S
C769 C770 1.389 . S
C770 C769 1.389 . S
C770 C771 1.387 . S
C771 H756 0.930 . S
C771 C766 1.390 . S
C771 C770 1.387 . S
H772 C784 0.930 . S
H773 C786 0.930 . S
H774 C787 0.930 . S
H775 C791 0.959 . S
H776 C791 0.959 . S
H777 C791 0.961 . S
H778 C792 0.960 . S
H779 C792 0.961 . S
H780 C792 0.959 . S
H781 C795 0.929 . S
H782 C796 0.931 . S
H783 C798 0.930 . S
C784 H772 0.930 . S
C784 C785 1.399 . S
C784 C789 1.399 . S
C785 C784 1.399 . S
C785 C786 1.376 . S
C786 H773 0.930 . S
C786 C785 1.376 . S
C786 C787 1.388 . S
C787 H774 0.930 . S
C787 C786 1.388 . S
C787 C788 1.390 . S
C788 C787 1.390 . S
C788 C789 1.394 . S
C788 C794 1.465 . S
C789 C784 1.399 . S
C789 C788 1.394 . S
C789 C790 1.516 . S
C790 C789 1.516 . S
C790 C791 1.502 . S
C790 C792 1.561 . S
C790 C793 1.526 . S
C791 H775 0.959 . S
C791 H776 0.959 . S
C791 H777 0.961 . S
C791 C790 1.502 . S
C792 H778 0.960 . S
C792 H779 0.961 . S
C792 H780 0.959 . S
C792 C790 1.561 . S
C793 C790 1.526 . S
C793 C794 1.396 . S
C793 C798 1.390 . S
C794 C788 1.465 . S
C794 C793 1.396 . S
C794 C795 1.399 . S
C795 H781 0.929 . S
C795 C794 1.399 . S
C795 C796 1.385 . S
C796 H782 0.931 . S
C796 C795 1.385 . S
C796 C797 1.389 . S
C797 C796 1.389 . S
C797 C798 1.387 . S
C798 H783 0.930 . S
C798 C793 1.390 . S
C798 C797 1.387 . S
H799 C811 0.930 . S
H800 C813 0.930 . S
H801 C814 0.930 . S
H802 C818 0.959 . S
H803 C818 0.959 . S
H804 C818 0.961 . S
H805 C819 0.960 . S
H806 C819 0.961 . S
H807 C819 0.959 . S
H808 C822 0.929 . S
H809 C823 0.931 . S
H810 C825 0.930 . S
C811 H799 0.930 . S
C811 C812 1.399 . S
C811 C816 1.399 . S
C812 C811 1.399 . S
C812 C813 1.376 . S
C813 H800 0.930 . S
C813 C812 1.376 . S
C813 C814 1.388 . S
C814 H801 0.930 . S
C814 C813 1.388 . S
C814 C815 1.390 . S
C815 C814 1.390 . S
C815 C816 1.394 . S
C815 C821 1.465 . S
C816 C811 1.399 . S
C816 C815 1.394 . S
C816 C817 1.516 . S
C817 C816 1.516 . S
C817 C818 1.502 . S
C817 C819 1.561 . S
C817 C820 1.526 . S
C818 H802 0.959 . S
C818 H803 0.959 . S
C818 H804 0.961 . S
C818 C817 1.502 . S
C819 H805 0.960 . S
C819 H806 0.961 . S
C819 H807 0.959 . S
C819 C817 1.561 . S
C820 C817 1.526 . S
C820 C821 1.396 . S
C820 C825 1.390 . S
C821 C815 1.465 . S
C821 C820 1.396 . S
C821 C822 1.399 . S
C822 H808 0.929 . S
C822 C821 1.399 . S
C822 C823 1.385 . S
C823 H809 0.931 . S
C823 C822 1.385 . S
C823 C824 1.389 . S
C824 C823 1.389 . S
C824 C825 1.387 . S
C825 H810 0.930 . S
C825 C820 1.390 . S
C825 C824 1.387 . S
H826 C838 0.930 . S
H827 C840 0.930 . S
H828 C841 0.930 . S
H829 C845 0.959 . S
H830 C845 0.959 . S
H831 C845 0.961 . S
H832 C846 0.960 . S
H833 C846 0.961 . S
H834 C846 0.959 . S
H835 C849 0.929 . S
H836 C850 0.931 . S
H837 C852 0.930 . S
C838 H826 0.930 . S
C838 C839 1.399 . S
C838 C843 1.399 . S
C839 C838 1.399 . S
C839 C840 1.376 . S
C840 H827 0.930 . S
C840 C839 1.376 . S
C840 C841 1.388 . S
C841 H828 0.930 . S
C841 C840 1.388 . S
C841 C842 1.390 . S
C842 C841 1.390 . S
C842 C843 1.394 . S
C842 C848 1.465 . S
C843 C838 1.399 . S
C843 C842 1.394 . S
C843 C844 1.516 . S
C844 C843 1.516 . S
C844 C845 1.502 . S
C844 C846 1.561 . S
C844 C847 1.526 . S
C845 H829 0.959 . S
C845 H830 0.959 . S
C845 H831 0.961 . S
C845 C844 1.502 . S
C846 H832 0.960 . S
C846 H833 0.961 . S
C846 H834 0.959 . S
C846 C844 1.561 . S
C847 C844 1.526 . S
C847 C848 1.396 . S
C847 C852 1.390 . S
C848 C842 1.465 . S
C848 C847 1.396 . S
C848 C849 1.399 . S
C849 H835 0.929 . S
C849 C848 1.399 . S
C849 C850 1.385 . S
C850 H836 0.931 . S
C850 C849 1.385 . S
C850 C851 1.389 . S
C851 C850 1.389 . S
C851 C852 1.387 . S
C852 H837 0.930 . S
C852 C847 1.390 . S
C852 C851 1.387 . S
H853 C865 0.930 . S
H854 C867 0.930 . S
H855 C868 0.930 . S
H856 C872 0.959 . S
H857 C872 0.959 . S
H858 C872 0.961 . S
H859 C873 0.960 . S
H860 C873 0.961 . S
H861 C873 0.959 . S
H862 C876 0.929 . S
H863 C877 0.931 . S
H864 C879 0.930 . S
C865 H853 0.930 . S
C865 C866 1.399 . S
C865 C870 1.399 . S
C866 C865 1.399 . S
C866 C867 1.376 . S
C867 H854 0.930 . S
C867 C866 1.376 . S
C867 C868 1.388 . S
C868 H855 0.930 . S
C868 C867 1.388 . S
C868 C869 1.390 . S
C869 C868 1.390 . S
C869 C870 1.394 . S
C869 C875 1.465 . S
C870 C865 1.399 . S
C870 C869 1.394 . S
C870 C871 1.516 . S
C871 C870 1.516 . S
C871 C872 1.502 . S
C871 C873 1.561 . S
C871 C874 1.526 . S
C872 H856 0.959 . S
C872 H857 0.959 . S
C872 H858 0.961 . S
C872 C871 1.502 . S
C873 H859 0.960 . S
C873 H860 0.961 . S
C873 H861 0.959 . S
C873 C871 1.561 . S
C874 C871 1.526 . S
C874 C875 1.396 . S
C874 C879 1.390 . S
C875 C869 1.465 . S
C875 C874 1.396 . S
C875 C876 1.399 . S
C876 H862 0.929 . S
C876 C875 1.399 . S
C876 C877 1.385 . S
C877 H863 0.931 . S
C877 C876 1.385 . S
C877 C878 1.389 . S
C878 C877 1.389 . S
C878 C879 1.387 . S
C879 H864 0.930 . S
C879 C874 1.390 . S
C879 C878 1.387 . S
H880 C892 0.930 . S
H881 C894 0.930 . S
H882 C895 0.930 . S
H883 C899 0.962 . S
H884 C899 0.978 . S
H885 C899 0.940 1_655 S
H886 C900 0.958 1_655 S
H887 C900 0.963 . S
H888 C900 0.959 . S
H889 C903 0.929 . S
H890 C904 0.931 . S
H891 C906 0.930 . S
C892 H880 0.930 . S
C892 C893 1.399 . S
C892 C897 1.399 . S
C893 C892 1.399 . S
C893 C894 1.376 . S
C894 H881 0.930 . S
C894 C893 1.376 . S
C894 C895 1.388 . S
C895 H882 0.930 . S
C895 C894 1.388 . S
C895 C896 1.390 . S
C896 C895 1.390 . S
C896 C897 1.394 . S
C896 C902 1.465 1_655 S
C897 C892 1.399 . S
C897 C896 1.394 . S
C897 C898 1.517 1_655 S
C898 C897 1.517 1_455 S
C898 C899 1.502 . S
C898 C900 1.561 . S
C898 C901 1.525 . S
C899 H883 0.962 . S
C899 H884 0.978 . S
C899 H885 0.940 1_455 S
C899 C898 1.502 . S
C900 H886 0.958 1_455 S
C900 H887 0.963 . S
C900 H888 0.959 . S
C900 C898 1.561 . S
C901 C898 1.525 . S
C901 C902 1.396 . S
C901 C906 1.390 . S
C902 C896 1.465 1_455 S
C902 C901 1.396 . S
C902 C903 1.399 . S
C903 H889 0.929 . S
C903 C902 1.399 . S
C903 C904 1.385 . S
C904 H890 0.931 . S
C904 C903 1.385 . S
C904 C905 1.389 . S
C905 C904 1.389 . S
C905 C906 1.387 . S
C906 H891 0.930 . S
C906 C901 1.390 . S
C906 C905 1.387 . S
H907 C919 0.930 . S
H908 C921 0.930 . S
H909 C922 0.930 . S
H910 C926 0.962 . S
H911 C926 0.978 . S
H912 C926 0.940 1_545 S
H913 C927 0.958 1_545 S
H914 C927 0.963 . S
H915 C927 0.959 . S
H916 C930 0.929 . S
H917 C931 0.931 . S
H918 C933 0.930 . S
C919 H907 0.930 . S
C919 C920 1.399 . S
C919 C924 1.399 . S
C920 C919 1.399 . S
C920 C921 1.376 . S
C921 H908 0.930 . S
C921 C920 1.376 . S
C921 C922 1.388 . S
C922 H909 0.930 . S
C922 C921 1.388 . S
C922 C923 1.390 . S
C923 C922 1.390 . S
C923 C924 1.394 . S
C923 C929 1.465 1_545 S
C924 C919 1.399 . S
C924 C923 1.394 . S
C924 C925 1.517 1_545 S
C925 C924 1.517 1_565 S
C925 C926 1.502 . S
C925 C927 1.561 . S
C925 C928 1.525 . S
C926 H910 0.962 . S
C926 H911 0.978 . S
C926 H912 0.940 1_565 S
C926 C925 1.502 . S
C927 H913 0.958 1_565 S
C927 H914 0.963 . S
C927 H915 0.959 . S
C927 C925 1.561 . S
C928 C925 1.525 . S
C928 C929 1.396 . S
C928 C933 1.390 . S
C929 C923 1.465 1_565 S
C929 C928 1.396 . S
C929 C930 1.399 . S
C930 H916 0.929 . S
C930 C929 1.399 . S
C930 C931 1.385 . S
C931 H917 0.931 . S
C931 C930 1.385 . S
C931 C932 1.389 . S
C932 C931 1.389 . S
C932 C933 1.387 . S
C933 H918 0.930 . S
C933 C928 1.390 . S
C933 C932 1.387 . S
H934 C946 0.930 . S
H935 C948 0.930 . S
H936 C949 0.930 . S
H937 C953 0.962 . S
H938 C953 0.978 . S
H939 C953 0.940 1_455 S
H940 C954 0.958 1_455 S
H941 C954 0.963 . S
H942 C954 0.959 . S
H943 C957 0.929 . S
H944 C958 0.931 . S
H945 C960 0.930 . S
C946 H934 0.930 . S
C946 C947 1.399 . S
C946 C951 1.399 . S
C947 C946 1.399 . S
C947 C948 1.376 . S
C948 H935 0.930 . S
C948 C947 1.376 . S
C948 C949 1.388 . S
C949 H936 0.930 . S
C949 C948 1.388 . S
C949 C950 1.390 . S
C950 C949 1.390 . S
C950 C951 1.394 . S
C950 C956 1.465 1_455 S
C951 C946 1.399 . S
C951 C950 1.394 . S
C951 C952 1.517 1_455 S
C952 C951 1.517 1_655 S
C952 C953 1.502 . S
C952 C954 1.561 . S
C952 C955 1.525 . S
C953 H937 0.962 . S
C953 H938 0.978 . S
C953 H939 0.940 1_655 S
C953 C952 1.502 . S
C954 H940 0.958 1_655 S
C954 H941 0.963 . S
C954 H942 0.959 . S
C954 C952 1.561 . S
C955 C952 1.525 . S
C955 C956 1.396 . S
C955 C960 1.390 . S
C956 C950 1.465 1_655 S
C956 C955 1.396 . S
C956 C957 1.399 . S
C957 H943 0.929 . S
C957 C956 1.399 . S
C957 C958 1.385 . S
C958 H944 0.931 . S
C958 C957 1.385 . S
C958 C959 1.389 . S
C959 C958 1.389 . S
C959 C960 1.387 . S
C960 H945 0.930 . S
C960 C955 1.390 . S
C960 C959 1.387 . S
H961 C973 0.930 . S
H962 C975 0.930 . S
H963 C976 0.930 . S
H964 C980 0.962 . S
H965 C980 0.978 . S
H966 C980 0.940 1_565 S
H967 C981 0.958 1_565 S
H968 C981 0.963 . S
H969 C981 0.959 . S
H970 C984 0.929 . S
H971 C985 0.931 . S
H972 C987 0.930 . S
C973 H961 0.930 . S
C973 C974 1.399 . S
C973 C978 1.399 . S
C974 C973 1.399 . S
C974 C975 1.376 . S
C975 H962 0.930 . S
C975 C974 1.376 . S
C975 C976 1.388 . S
C976 H963 0.930 . S
C976 C975 1.388 . S
C976 C977 1.390 . S
C977 C976 1.390 . S
C977 C978 1.394 . S
C977 C983 1.465 1_565 S
C978 C973 1.399 . S
C978 C977 1.394 . S
C978 C979 1.517 1_565 S
C979 C978 1.517 1_545 S
C979 C980 1.502 . S
C979 C981 1.561 . S
C979 C982 1.525 . S
C980 H964 0.962 . S
C980 H965 0.978 . S
C980 H966 0.940 1_545 S
C980 C979 1.502 . S
C981 H967 0.958 1_545 S
C981 H968 0.963 . S
C981 H969 0.959 . S
C981 C979 1.561 . S
C982 C979 1.525 . S
C982 C983 1.396 . S
C982 C987 1.390 . S
C983 C977 1.465 1_545 S
C983 C982 1.396 . S
C983 C984 1.399 . S
C984 H970 0.929 . S
C984 C983 1.399 . S
C984 C985 1.385 . S
C985 H971 0.931 . S
C985 C984 1.385 . S
C985 C986 1.389 . S
C986 C985 1.389 . S
C986 C987 1.387 . S
C987 H972 0.930 . S
C987 C982 1.390 . S
C987 C986 1.387 . S
H988 C1000 0.930 . S
H989 C1002 0.930 . S
H990 C1003 0.930 . S
H991 C1007 0.962 . S
H992 C1007 0.978 . S
H993 C1007 0.940 1_455 S
H994 C1008 0.958 1_455 S
H995 C1008 0.963 . S
H996 C1008 0.959 . S
H997 C1011 0.929 . S
H998 C1012 0.931 . S
H999 C1014 0.930 . S
C1000 H988 0.930 . S
C1000 C1001 1.399 . S
C1000 C1005 1.399 . S
C1001 C1000 1.399 . S
C1001 C1002 1.376 . S
C1002 H989 0.930 . S
C1002 C1001 1.376 . S
C1002 C1003 1.388 . S
C1003 H990 0.930 . S
C1003 C1002 1.388 . S
C1003 C1004 1.390 . S
C1004 C1003 1.390 . S
C1004 C1005 1.394 . S
C1004 C1010 1.465 1_455 S
C1005 C1000 1.399 . S
C1005 C1004 1.394 . S
C1005 C1006 1.517 1_455 S
C1006 C1005 1.517 1_655 S
C1006 C1007 1.502 . S
C1006 C1008 1.561 . S
C1006 C1009 1.525 . S
C1007 H991 0.962 . S
C1007 H992 0.978 . S
C1007 H993 0.940 1_655 S
C1007 C1006 1.502 . S
C1008 H994 0.958 1_655 S
C1008 H995 0.963 . S
C1008 H996 0.959 . S
C1008 C1006 1.561 . S
C1009 C1006 1.525 . S
C1009 C1010 1.396 . S
C1009 C1014 1.390 . S
C1010 C1004 1.465 1_655 S
C1010 C1009 1.396 . S
C1010 C1011 1.399 . S
C1011 H997 0.929 . S
C1011 C1010 1.399 . S
C1011 C1012 1.385 . S
C1012 H998 0.931 . S
C1012 C1011 1.385 . S
C1012 C1013 1.389 . S
C1013 C1012 1.389 . S
C1013 C1014 1.387 . S
C1014 H999 0.930 . S
C1014 C1009 1.390 . S
C1014 C1013 1.387 . S
H1015 C1027 0.930 . S
H1016 C1029 0.930 . S
H1017 C1030 0.930 . S
H1018 C1034 0.962 . S
H1019 C1034 0.978 . S
H1020 C1034 0.940 1_565 S
H1021 C1035 0.958 1_565 S
H1022 C1035 0.963 . S
H1023 C1035 0.959 . S
H1024 C1038 0.929 . S
H1025 C1039 0.931 . S
H1026 C1041 0.930 . S
C1027 H1015 0.930 . S
C1027 C1028 1.399 . S
C1027 C1032 1.399 . S
C1028 C1027 1.399 . S
C1028 C1029 1.376 . S
C1029 H1016 0.930 . S
C1029 C1028 1.376 . S
C1029 C1030 1.388 . S
C1030 H1017 0.930 . S
C1030 C1029 1.388 . S
C1030 C1031 1.390 . S
C1031 C1030 1.390 . S
C1031 C1032 1.394 . S
C1031 C1037 1.465 1_565 S
C1032 C1027 1.399 . S
C1032 C1031 1.394 . S
C1032 C1033 1.517 1_565 S
C1033 C1032 1.517 1_545 S
C1033 C1034 1.502 . S
C1033 C1035 1.561 . S
C1033 C1036 1.525 . S
C1034 H1018 0.962 . S
C1034 H1019 0.978 . S
C1034 H1020 0.940 1_545 S
C1034 C1033 1.502 . S
C1035 H1021 0.958 1_545 S
C1035 H1022 0.963 . S
C1035 H1023 0.959 . S
C1035 C1033 1.561 . S
C1036 C1033 1.525 . S
C1036 C1037 1.396 . S
C1036 C1041 1.390 . S
C1037 C1031 1.465 1_545 S
C1037 C1036 1.396 . S
C1037 C1038 1.399 . S
C1038 H1024 0.929 . S
C1038 C1037 1.399 . S
C1038 C1039 1.385 . S
C1039 H1025 0.931 . S
C1039 C1038 1.385 . S
C1039 C1040 1.389 . S
C1040 C1039 1.389 . S
C1040 C1041 1.387 . S
C1041 H1026 0.930 . S
C1041 C1036 1.390 . S
C1041 C1040 1.387 . S
H1042 C1054 0.930 . S
H1043 C1056 0.930 . S
H1044 C1057 0.930 . S
H1045 C1061 0.962 . S
H1046 C1061 0.978 . S
H1047 C1061 0.940 1_455 S
H1048 C1062 0.958 1_455 S
H1049 C1062 0.963 . S
H1050 C1062 0.959 . S
H1051 C1065 0.929 . S
H1052 C1066 0.931 . S
H1053 C1068 0.930 . S
C1054 H1042 0.930 . S
C1054 C1055 1.399 . S
C1054 C1059 1.399 . S
C1055 C1054 1.399 . S
C1055 C1056 1.376 . S
C1056 H1043 0.930 . S
C1056 C1055 1.376 . S
C1056 C1057 1.388 . S
C1057 H1044 0.930 . S
C1057 C1056 1.388 . S
C1057 C1058 1.390 . S
C1058 C1057 1.390 . S
C1058 C1059 1.394 . S
C1058 C1064 1.465 1_455 S
C1059 C1054 1.399 . S
C1059 C1058 1.394 . S
C1059 C1060 1.517 1_455 S
C1060 C1059 1.517 1_655 S
C1060 C1061 1.502 . S
C1060 C1062 1.561 . S
C1060 C1063 1.525 . S
C1061 H1045 0.962 . S
C1061 H1046 0.978 . S
C1061 H1047 0.940 1_655 S
C1061 C1060 1.502 . S
C1062 H1048 0.958 1_655 S
C1062 H1049 0.963 . S
C1062 H1050 0.959 . S
C1062 C1060 1.561 . S
C1063 C1060 1.525 . S
C1063 C1064 1.396 . S
C1063 C1068 1.390 . S
C1064 C1058 1.465 1_655 S
C1064 C1063 1.396 . S
C1064 C1065 1.399 . S
C1065 H1051 0.929 . S
C1065 C1064 1.399 . S
C1065 C1066 1.385 . S
C1066 H1052 0.931 . S
C1066 C1065 1.385 . S
C1066 C1067 1.389 . S
C1067 C1066 1.389 . S
C1067 C1068 1.387 . S
C1068 H1053 0.930 . S
C1068 C1063 1.390 . S
C1068 C1067 1.387 . S
H1069 C1081 0.930 . S
H1070 C1083 0.930 . S
H1071 C1084 0.930 . S
H1072 C1088 0.962 . S
H1073 C1088 0.978 . S
H1074 C1088 0.940 1_545 S
H1075 C1089 0.958 1_545 S
H1076 C1089 0.963 . S
H1077 C1089 0.959 . S
H1078 C1092 0.929 . S
H1079 C1093 0.931 . S
H1080 C1095 0.930 . S
C1081 H1069 0.930 . S
C1081 C1082 1.399 . S
C1081 C1086 1.399 . S
C1082 C1081 1.399 . S
C1082 C1083 1.376 . S
C1083 H1070 0.930 . S
C1083 C1082 1.376 . S
C1083 C1084 1.388 . S
C1084 H1071 0.930 . S
C1084 C1083 1.388 . S
C1084 C1085 1.390 . S
C1085 C1084 1.390 . S
C1085 C1086 1.394 . S
C1085 C1091 1.465 1_545 S
C1086 C1081 1.399 . S
C1086 C1085 1.394 . S
C1086 C1087 1.517 1_545 S
C1087 C1086 1.517 1_565 S
C1087 C1088 1.502 . S
C1087 C1089 1.561 . S
C1087 C1090 1.525 . S
C1088 H1072 0.962 . S
C1088 H1073 0.978 . S
C1088 H1074 0.940 1_565 S
C1088 C1087 1.502 . S
C1089 H1075 0.958 1_565 S
C1089 H1076 0.963 . S
C1089 H1077 0.959 . S
C1089 C1087 1.561 . S
C1090 C1087 1.525 . S
C1090 C1091 1.396 . S
C1090 C1095 1.390 . S
C1091 C1085 1.465 1_565 S
C1091 C1090 1.396 . S
C1091 C1092 1.399 . S
C1092 H1078 0.929 . S
C1092 C1091 1.399 . S
C1092 C1093 1.385 . S
C1093 H1079 0.931 . S
C1093 C1092 1.385 . S
C1093 C1094 1.389 . S
C1094 C1093 1.389 . S
C1094 C1095 1.387 . S
C1095 H1080 0.930 . S
C1095 C1090 1.390 . S
C1095 C1094 1.387 . S
H1096 C1108 0.930 . S
H1097 C1110 0.930 . S
H1098 C1111 0.930 . S
H1099 C1115 0.959 . S
H1100 C1115 0.959 . S
H1101 C1115 0.961 . S
H1102 C1116 0.960 . S
H1103 C1116 0.961 . S
H1104 C1116 0.959 . S
H1105 C1119 0.929 . S
H1106 C1120 0.931 . S
H1107 C1122 0.930 . S
C1108 H1096 0.930 . S
C1108 C1109 1.399 . S
C1108 C1113 1.399 . S
C1109 C1108 1.399 . S
C1109 C1110 1.376 . S
C1110 H1097 0.930 . S
C1110 C1109 1.376 . S
C1110 C1111 1.388 . S
C1111 H1098 0.930 . S
C1111 C1110 1.388 . S
C1111 C1112 1.390 . S
C1112 C1111 1.390 . S
C1112 C1113 1.394 . S
C1112 C1118 1.465 . S
C1113 C1108 1.399 . S
C1113 C1112 1.394 . S
C1113 C1114 1.516 . S
C1114 C1113 1.516 . S
C1114 C1115 1.502 . S
C1114 C1116 1.561 . S
C1114 C1117 1.526 . S
C1115 H1099 0.959 . S
C1115 H1100 0.959 . S
C1115 H1101 0.961 . S
C1115 C1114 1.502 . S
C1116 H1102 0.960 . S
C1116 H1103 0.961 . S
C1116 H1104 0.959 . S
C1116 C1114 1.561 . S
C1117 C1114 1.526 . S
C1117 C1118 1.396 . S
C1117 C1122 1.390 . S
C1118 C1112 1.465 . S
C1118 C1117 1.396 . S
C1118 C1119 1.399 . S
C1119 H1105 0.929 . S
C1119 C1118 1.399 . S
C1119 C1120 1.385 . S
C1120 H1106 0.931 . S
C1120 C1119 1.385 . S
C1120 C1121 1.389 . S
C1121 C1120 1.389 . S
C1121 C1122 1.387 . S
C1122 H1107 0.930 . S
C1122 C1117 1.390 . S
C1122 C1121 1.387 . S
H1123 C1135 0.930 . S
H1124 C1137 0.930 . S
H1125 C1138 0.930 . S
H1126 C1142 0.959 . S
H1127 C1142 0.959 . S
H1128 C1142 0.961 . S
H1129 C1143 0.960 . S
H1130 C1143 0.961 . S
H1131 C1143 0.959 . S
H1132 C1146 0.929 . S
H1133 C1147 0.931 . S
H1134 C1149 0.930 . S
C1135 H1123 0.930 . S
C1135 C1136 1.399 . S
C1135 C1140 1.399 . S
C1136 C1135 1.399 . S
C1136 C1137 1.376 . S
C1137 H1124 0.930 . S
C1137 C1136 1.376 . S
C1137 C1138 1.388 . S
C1138 H1125 0.930 . S
C1138 C1137 1.388 . S
C1138 C1139 1.390 . S
C1139 C1138 1.390 . S
C1139 C1140 1.394 . S
C1139 C1145 1.465 . S
C1140 C1135 1.399 . S
C1140 C1139 1.394 . S
C1140 C1141 1.516 . S
C1141 C1140 1.516 . S
C1141 C1142 1.502 . S
C1141 C1143 1.561 . S
C1141 C1144 1.526 . S
C1142 H1126 0.959 . S
C1142 H1127 0.959 . S
C1142 H1128 0.961 . S
C1142 C1141 1.502 . S
C1143 H1129 0.960 . S
C1143 H1130 0.961 . S
C1143 H1131 0.959 . S
C1143 C1141 1.561 . S
C1144 C1141 1.526 . S
C1144 C1145 1.396 . S
C1144 C1149 1.390 . S
C1145 C1139 1.465 . S
C1145 C1144 1.396 . S
C1145 C1146 1.399 . S
C1146 H1132 0.929 . S
C1146 C1145 1.399 . S
C1146 C1147 1.385 . S
C1147 H1133 0.931 . S
C1147 C1146 1.385 . S
C1147 C1148 1.389 . S
C1148 C1147 1.389 . S
C1148 C1149 1.387 . S
C1149 H1134 0.930 . S
C1149 C1144 1.390 . S
C1149 C1148 1.387 . S
H1150 C1162 0.930 . S
H1151 C1164 0.930 . S
H1152 C1165 0.930 . S
H1153 C1169 0.959 . S
H1154 C1169 0.959 . S
H1155 C1169 0.961 . S
H1156 C1170 0.960 . S
H1157 C1170 0.961 . S
H1158 C1170 0.959 . S
H1159 C1173 0.929 . S
H1160 C1174 0.931 . S
H1161 C1176 0.930 . S
C1162 H1150 0.930 . S
C1162 C1163 1.399 . S
C1162 C1167 1.399 . S
C1163 C1162 1.399 . S
C1163 C1164 1.376 . S
C1164 H1151 0.930 . S
C1164 C1163 1.376 . S
C1164 C1165 1.388 . S
C1165 H1152 0.930 . S
C1165 C1164 1.388 . S
C1165 C1166 1.390 . S
C1166 C1165 1.390 . S
C1166 C1167 1.394 . S
C1166 C1172 1.465 . S
C1167 C1162 1.399 . S
C1167 C1166 1.394 . S
C1167 C1168 1.516 . S
C1168 C1167 1.516 . S
C1168 C1169 1.502 . S
C1168 C1170 1.561 . S
C1168 C1171 1.526 . S
C1169 H1153 0.959 . S
C1169 H1154 0.959 . S
C1169 H1155 0.961 . S
C1169 C1168 1.502 . S
C1170 H1156 0.960 . S
C1170 H1157 0.961 . S
C1170 H1158 0.959 . S
C1170 C1168 1.561 . S
C1171 C1168 1.526 . S
C1171 C1172 1.396 . S
C1171 C1176 1.390 . S
C1172 C1166 1.465 . S
C1172 C1171 1.396 . S
C1172 C1173 1.399 . S
C1173 H1159 0.929 . S
C1173 C1172 1.399 . S
C1173 C1174 1.385 . S
C1174 H1160 0.931 . S
C1174 C1173 1.385 . S
C1174 C1175 1.389 . S
C1175 C1174 1.389 . S
C1175 C1176 1.387 . S
C1176 H1161 0.930 . S
C1176 C1171 1.390 . S
C1176 C1175 1.387 . S
H1177 C1189 0.930 . S
H1178 C1191 0.930 . S
H1179 C1192 0.930 . S
H1180 C1196 0.959 . S
H1181 C1196 0.959 . S
H1182 C1196 0.961 . S
H1183 C1197 0.960 . S
H1184 C1197 0.961 . S
H1185 C1197 0.959 . S
H1186 C1200 0.929 . S
H1187 C1201 0.931 . S
H1188 C1203 0.930 . S
C1189 H1177 0.930 . S
C1189 C1190 1.399 . S
C1189 C1194 1.399 . S
C1190 C1189 1.399 . S
C1190 C1191 1.376 . S
C1191 H1178 0.930 . S
C1191 C1190 1.376 . S
C1191 C1192 1.388 . S
C1192 H1179 0.930 . S
C1192 C1191 1.388 . S
C1192 C1193 1.390 . S
C1193 C1192 1.390 . S
C1193 C1194 1.394 . S
C1193 C1199 1.465 . S
C1194 C1189 1.399 . S
C1194 C1193 1.394 . S
C1194 C1195 1.516 . S
C1195 C1194 1.516 . S
C1195 C1196 1.502 . S
C1195 C1197 1.561 . S
C1195 C1198 1.526 . S
C1196 H1180 0.959 . S
C1196 H1181 0.959 . S
C1196 H1182 0.961 . S
C1196 C1195 1.502 . S
C1197 H1183 0.960 . S
C1197 H1184 0.961 . S
C1197 H1185 0.959 . S
C1197 C1195 1.561 . S
C1198 C1195 1.526 . S
C1198 C1199 1.396 . S
C1198 C1203 1.390 . S
C1199 C1193 1.465 . S
C1199 C1198 1.396 . S
C1199 C1200 1.399 . S
C1200 H1186 0.929 . S
C1200 C1199 1.399 . S
C1200 C1201 1.385 . S
C1201 H1187 0.931 . S
C1201 C1200 1.385 . S
C1201 C1202 1.389 . S
C1202 C1201 1.389 . S
C1202 C1203 1.387 . S
C1203 H1188 0.930 . S
C1203 C1198 1.390 . S
C1203 C1202 1.387 . S
H1204 C1216 0.930 . S
H1205 C1218 0.930 . S
H1206 C1219 0.930 . S
H1207 C1223 0.959 . S
H1208 C1223 0.959 . S
H1209 C1223 0.961 . S
H1210 C1224 0.960 . S
H1211 C1224 0.961 . S
H1212 C1224 0.959 . S
H1213 C1227 0.929 . S
H1214 C1228 0.931 . S
H1215 C1230 0.930 . S
C1216 H1204 0.930 . S
C1216 C1217 1.399 . S
C1216 C1221 1.399 . S
C1217 C1216 1.399 . S
C1217 C1218 1.376 . S
C1218 H1205 0.930 . S
C1218 C1217 1.376 . S
C1218 C1219 1.388 . S
C1219 H1206 0.930 . S
C1219 C1218 1.388 . S
C1219 C1220 1.390 . S
C1220 C1219 1.390 . S
C1220 C1221 1.394 . S
C1220 C1226 1.465 . S
C1221 C1216 1.399 . S
C1221 C1220 1.394 . S
C1221 C1222 1.516 . S
C1222 C1221 1.516 . S
C1222 C1223 1.502 . S
C1222 C1224 1.561 . S
C1222 C1225 1.526 . S
C1223 H1207 0.959 . S
C1223 H1208 0.959 . S
C1223 H1209 0.961 . S
C1223 C1222 1.502 . S
C1224 H1210 0.960 . S
C1224 H1211 0.961 . S
C1224 H1212 0.959 . S
C1224 C1222 1.561 . S
C1225 C1222 1.526 . S
C1225 C1226 1.396 . S
C1225 C1230 1.390 . S
C1226 C1220 1.465 . S
C1226 C1225 1.396 . S
C1226 C1227 1.399 . S
C1227 H1213 0.929 . S
C1227 C1226 1.399 . S
C1227 C1228 1.385 . S
C1228 H1214 0.931 . S
C1228 C1227 1.385 . S
C1228 C1229 1.389 . S
C1229 C1228 1.389 . S
C1229 C1230 1.387 . S
C1230 H1215 0.930 . S
C1230 C1225 1.390 . S
C1230 C1229 1.387 . S
H1231 C1243 0.930 . S
H1232 C1245 0.930 . S
H1233 C1246 0.930 . S
H1234 C1250 0.959 . S
H1235 C1250 0.959 . S
H1236 C1250 0.961 . S
H1237 C1251 0.960 . S
H1238 C1251 0.961 . S
H1239 C1251 0.959 . S
H1240 C1254 0.929 . S
H1241 C1255 0.931 . S
H1242 C1257 0.930 . S
C1243 H1231 0.930 . S
C1243 C1244 1.399 . S
C1243 C1248 1.399 . S
C1244 C1243 1.399 . S
C1244 C1245 1.376 . S
C1245 H1232 0.930 . S
C1245 C1244 1.376 . S
C1245 C1246 1.388 . S
C1246 H1233 0.930 . S
C1246 C1245 1.388 . S
C1246 C1247 1.390 . S
C1247 C1246 1.390 . S
C1247 C1248 1.394 . S
C1247 C1253 1.465 . S
C1248 C1243 1.399 . S
C1248 C1247 1.394 . S
C1248 C1249 1.516 . S
C1249 C1248 1.516 . S
C1249 C1250 1.502 . S
C1249 C1251 1.561 . S
C1249 C1252 1.526 . S
C1250 H1234 0.959 . S
C1250 H1235 0.959 . S
C1250 H1236 0.961 . S
C1250 C1249 1.502 . S
C1251 H1237 0.960 . S
C1251 H1238 0.961 . S
C1251 H1239 0.959 . S
C1251 C1249 1.561 . S
C1252 C1249 1.526 . S
C1252 C1253 1.396 . S
C1252 C1257 1.390 . S
C1253 C1247 1.465 . S
C1253 C1252 1.396 . S
C1253 C1254 1.399 . S
C1254 H1240 0.929 . S
C1254 C1253 1.399 . S
C1254 C1255 1.385 . S
C1255 H1241 0.931 . S
C1255 C1254 1.385 . S
C1255 C1256 1.389 . S
C1256 C1255 1.389 . S
C1256 C1257 1.387 . S
C1257 H1242 0.930 . S
C1257 C1252 1.390 . S
C1257 C1256 1.387 . S
H1258 C1270 0.930 . S
H1259 C1272 0.930 . S
H1260 C1273 0.930 . S
H1261 C1277 0.959 . S
H1262 C1277 0.959 . S
H1263 C1277 0.961 . S
H1264 C1278 0.960 . S
H1265 C1278 0.961 . S
H1266 C1278 0.959 . S
H1267 C1281 0.929 . S
H1268 C1282 0.931 . S
H1269 C1284 0.930 . S
C1270 H1258 0.930 . S
C1270 C1271 1.399 . S
C1270 C1275 1.399 . S
C1271 C1270 1.399 . S
C1271 C1272 1.376 . S
C1272 H1259 0.930 . S
C1272 C1271 1.376 . S
C1272 C1273 1.388 . S
C1273 H1260 0.930 . S
C1273 C1272 1.388 . S
C1273 C1274 1.390 . S
C1274 C1273 1.390 . S
C1274 C1275 1.394 . S
C1274 C1280 1.465 . S
C1275 C1270 1.399 . S
C1275 C1274 1.394 . S
C1275 C1276 1.516 . S
C1276 C1275 1.516 . S
C1276 C1277 1.502 . S
C1276 C1278 1.561 . S
C1276 C1279 1.526 . S
C1277 H1261 0.959 . S
C1277 H1262 0.959 . S
C1277 H1263 0.961 . S
C1277 C1276 1.502 . S
C1278 H1264 0.960 . S
C1278 H1265 0.961 . S
C1278 H1266 0.959 . S
C1278 C1276 1.561 . S
C1279 C1276 1.526 . S
C1279 C1280 1.396 . S
C1279 C1284 1.390 . S
C1280 C1274 1.465 . S
C1280 C1279 1.396 . S
C1280 C1281 1.399 . S
C1281 H1267 0.929 . S
C1281 C1280 1.399 . S
C1281 C1282 1.385 . S
C1282 H1268 0.931 . S
C1282 C1281 1.385 . S
C1282 C1283 1.389 . S
C1283 C1282 1.389 . S
C1283 C1284 1.387 . S
C1284 H1269 0.930 . S
C1284 C1279 1.390 . S
C1284 C1283 1.387 . S
H1285 C1297 0.930 . S
H1286 C1299 0.930 . S
H1287 C1300 0.930 . S
H1288 C1304 0.959 . S
H1289 C1304 0.959 . S
H1290 C1304 0.961 . S
H1291 C1305 0.960 . S
H1292 C1305 0.961 . S
H1293 C1305 0.959 . S
H1294 C1308 0.929 . S
H1295 C1309 0.931 . S
H1296 C1311 0.930 . S
C1297 H1285 0.930 . S
C1297 C1298 1.399 . S
C1297 C1302 1.399 . S
C1298 C1297 1.399 . S
C1298 C1299 1.376 . S
C1299 H1286 0.930 . S
C1299 C1298 1.376 . S
C1299 C1300 1.388 . S
C1300 H1287 0.930 . S
C1300 C1299 1.388 . S
C1300 C1301 1.390 . S
C1301 C1300 1.390 . S
C1301 C1302 1.394 . S
C1301 C1307 1.465 . S
C1302 C1297 1.399 . S
C1302 C1301 1.394 . S
C1302 C1303 1.516 . S
C1303 C1302 1.516 . S
C1303 C1304 1.502 . S
C1303 C1305 1.561 . S
C1303 C1306 1.526 . S
C1304 H1288 0.959 . S
C1304 H1289 0.959 . S
C1304 H1290 0.961 . S
C1304 C1303 1.502 . S
C1305 H1291 0.960 . S
C1305 H1292 0.961 . S
C1305 H1293 0.959 . S
C1305 C1303 1.561 . S
C1306 C1303 1.526 . S
C1306 C1307 1.396 . S
C1306 C1311 1.390 . S
C1307 C1301 1.465 . S
C1307 C1306 1.396 . S
C1307 C1308 1.399 . S
C1308 H1294 0.929 . S
C1308 C1307 1.399 . S
C1308 C1309 1.385 . S
C1309 H1295 0.931 . S
C1309 C1308 1.385 . S
C1309 C1310 1.389 . S
C1310 C1309 1.389 . S
C1310 C1311 1.387 . S
C1311 H1296 0.930 . S
C1311 C1306 1.390 . S
C1311 C1310 1.387 . S
H1312 C1324 0.930 . S
H1313 C1326 0.930 . S
H1314 C1327 0.930 . S
H1315 C1331 0.959 . S
H1316 C1331 0.959 . S
H1317 C1331 0.961 . S
H1318 C1332 0.960 . S
H1319 C1332 0.961 . S
H1320 C1332 0.959 . S
H1321 C1335 0.929 . S
H1322 C1336 0.931 . S
H1323 C1338 0.930 . S
C1324 H1312 0.930 . S
C1324 C1325 1.399 . S
C1324 C1329 1.399 . S
C1325 C1324 1.399 . S
C1325 C1326 1.376 . S
C1326 H1313 0.930 . S
C1326 C1325 1.376 . S
C1326 C1327 1.388 . S
C1327 H1314 0.930 . S
C1327 C1326 1.388 . S
C1327 C1328 1.390 . S
C1328 C1327 1.390 . S
C1328 C1329 1.394 . S
C1328 C1334 1.465 . S
C1329 C1324 1.399 . S
C1329 C1328 1.394 . S
C1329 C1330 1.516 . S
C1330 C1329 1.516 . S
C1330 C1331 1.502 . S
C1330 C1332 1.561 . S
C1330 C1333 1.526 . S
C1331 H1315 0.959 . S
C1331 H1316 0.959 . S
C1331 H1317 0.961 . S
C1331 C1330 1.502 . S
C1332 H1318 0.960 . S
C1332 H1319 0.961 . S
C1332 H1320 0.959 . S
C1332 C1330 1.561 . S
C1333 C1330 1.526 . S
C1333 C1334 1.396 . S
C1333 C1338 1.390 . S
C1334 C1328 1.465 . S
C1334 C1333 1.396 . S
C1334 C1335 1.399 . S
C1335 H1321 0.929 . S
C1335 C1334 1.399 . S
C1335 C1336 1.385 . S
C1336 H1322 0.931 . S
C1336 C1335 1.385 . S
C1336 C1337 1.389 . S
C1337 C1336 1.389 . S
C1337 C1338 1.387 . S
C1338 H1323 0.930 . S
C1338 C1333 1.390 . S
C1338 C1337 1.387 . S
H1339 C1351 0.930 . S
H1340 C1353 0.930 . S
H1341 C1354 0.930 . S
H1342 C1358 0.959 . S
H1343 C1358 0.959 . S
H1344 C1358 0.961 . S
H1345 C1359 0.960 . S
H1346 C1359 0.961 . S
H1347 C1359 0.959 . S
H1348 C1362 0.929 . S
H1349 C1363 0.931 . S
H1350 C1365 0.930 . S
C1351 H1339 0.930 . S
C1351 C1352 1.399 . S
C1351 C1356 1.399 . S
C1352 C1351 1.399 . S
C1352 C1353 1.376 . S
C1353 H1340 0.930 . S
C1353 C1352 1.376 . S
C1353 C1354 1.388 . S
C1354 H1341 0.930 . S
C1354 C1353 1.388 . S
C1354 C1355 1.390 . S
C1355 C1354 1.390 . S
C1355 C1356 1.394 . S
C1355 C1361 1.465 . S
C1356 C1351 1.399 . S
C1356 C1355 1.394 . S
C1356 C1357 1.516 . S
C1357 C1356 1.516 . S
C1357 C1358 1.502 . S
C1357 C1359 1.561 . S
C1357 C1360 1.526 . S
C1358 H1342 0.959 . S
C1358 H1343 0.959 . S
C1358 H1344 0.961 . S
C1358 C1357 1.502 . S
C1359 H1345 0.960 . S
C1359 H1346 0.961 . S
C1359 H1347 0.959 . S
C1359 C1357 1.561 . S
C1360 C1357 1.526 . S
C1360 C1361 1.396 . S
C1360 C1365 1.390 . S
C1361 C1355 1.465 . S
C1361 C1360 1.396 . S
C1361 C1362 1.399 . S
C1362 H1348 0.929 . S
C1362 C1361 1.399 . S
C1362 C1363 1.385 . S
C1363 H1349 0.931 . S
C1363 C1362 1.385 . S
C1363 C1364 1.389 . S
C1364 C1363 1.389 . S
C1364 C1365 1.387 . S
C1365 H1350 0.930 . S
C1365 C1360 1.390 . S
C1365 C1364 1.387 . S
H1366 C1378 0.930 . S
H1367 C1380 0.930 . S
H1368 C1381 0.930 . S
H1369 C1385 0.959 . S
H1370 C1385 0.959 . S
H1371 C1385 0.961 . S
H1372 C1386 0.960 . S
H1373 C1386 0.961 . S
H1374 C1386 0.959 . S
H1375 C1389 0.929 . S
H1376 C1390 0.931 . S
H1377 C1392 0.930 . S
C1378 H1366 0.930 . S
C1378 C1379 1.399 . S
C1378 C1383 1.399 . S
C1379 C1378 1.399 . S
C1379 C1380 1.376 . S
C1380 H1367 0.930 . S
C1380 C1379 1.376 . S
C1380 C1381 1.388 . S
C1381 H1368 0.930 . S
C1381 C1380 1.388 . S
C1381 C1382 1.390 . S
C1382 C1381 1.390 . S
C1382 C1383 1.394 . S
C1382 C1388 1.465 . S
C1383 C1378 1.399 . S
C1383 C1382 1.394 . S
C1383 C1384 1.516 . S
C1384 C1383 1.516 . S
C1384 C1385 1.502 . S
C1384 C1386 1.561 . S
C1384 C1387 1.526 . S
C1385 H1369 0.959 . S
C1385 H1370 0.959 . S
C1385 H1371 0.961 . S
C1385 C1384 1.502 . S
C1386 H1372 0.960 . S
C1386 H1373 0.961 . S
C1386 H1374 0.959 . S
C1386 C1384 1.561 . S
C1387 C1384 1.526 . S
C1387 C1388 1.396 . S
C1387 C1392 1.390 . S
C1388 C1382 1.465 . S
C1388 C1387 1.396 . S
C1388 C1389 1.399 . S
C1389 H1375 0.929 . S
C1389 C1388 1.399 . S
C1389 C1390 1.385 . S
C1390 H1376 0.931 . S
C1390 C1389 1.385 . S
C1390 C1391 1.389 . S
C1391 C1390 1.389 . S
C1391 C1392 1.387 . S
C1392 H1377 0.930 . S
C1392 C1387 1.390 . S
C1392 C1391 1.387 . S
H1393 C1405 0.930 . S
H1394 C1407 0.930 . S
H1395 C1408 0.930 . S
H1396 C1412 0.959 . S
H1397 C1412 0.959 . S
H1398 C1412 0.961 . S
H1399 C1413 0.960 . S
H1400 C1413 0.961 . S
H1401 C1413 0.959 . S
H1402 C1416 0.929 . S
H1403 C1417 0.931 . S
H1404 C1419 0.930 . S
C1405 H1393 0.930 . S
C1405 C1406 1.399 . S
C1405 C1410 1.399 . S
C1406 C1405 1.399 . S
C1406 C1407 1.376 . S
C1407 H1394 0.930 . S
C1407 C1406 1.376 . S
C1407 C1408 1.388 . S
C1408 H1395 0.930 . S
C1408 C1407 1.388 . S
C1408 C1409 1.390 . S
C1409 C1408 1.390 . S
C1409 C1410 1.394 . S
C1409 C1415 1.465 . S
C1410 C1405 1.399 . S
C1410 C1409 1.394 . S
C1410 C1411 1.516 . S
C1411 C1410 1.516 . S
C1411 C1412 1.502 . S
C1411 C1413 1.561 . S
C1411 C1414 1.526 . S
C1412 H1396 0.959 . S
C1412 H1397 0.959 . S
C1412 H1398 0.961 . S
C1412 C1411 1.502 . S
C1413 H1399 0.960 . S
C1413 H1400 0.961 . S
C1413 H1401 0.959 . S
C1413 C1411 1.561 . S
C1414 C1411 1.526 . S
C1414 C1415 1.396 . S
C1414 C1419 1.390 . S
C1415 C1409 1.465 . S
C1415 C1414 1.396 . S
C1415 C1416 1.399 . S
C1416 H1402 0.929 . S
C1416 C1415 1.399 . S
C1416 C1417 1.385 . S
C1417 H1403 0.931 . S
C1417 C1416 1.385 . S
C1417 C1418 1.389 . S
C1418 C1417 1.389 . S
C1418 C1419 1.387 . S
C1419 H1404 0.930 . S
C1419 C1414 1.390 . S
C1419 C1418 1.387 . S
H1420 C1432 0.930 . S
H1421 C1434 0.930 . S
H1422 C1435 0.930 . S
H1423 C1439 0.959 . S
H1424 C1439 0.959 . S
H1425 C1439 0.961 . S
H1426 C1440 0.960 . S
H1427 C1440 0.961 . S
H1428 C1440 0.959 . S
H1429 C1443 0.929 . S
H1430 C1444 0.931 . S
H1431 C1446 0.930 . S
C1432 H1420 0.930 . S
C1432 C1433 1.399 . S
C1432 C1437 1.399 . S
C1433 C1432 1.399 . S
C1433 C1434 1.376 . S
C1434 H1421 0.930 . S
C1434 C1433 1.376 . S
C1434 C1435 1.388 . S
C1435 H1422 0.930 . S
C1435 C1434 1.388 . S
C1435 C1436 1.390 . S
C1436 C1435 1.390 . S
C1436 C1437 1.394 . S
C1436 C1442 1.465 . S
C1437 C1432 1.399 . S
C1437 C1436 1.394 . S
C1437 C1438 1.516 . S
C1438 C1437 1.516 . S
C1438 C1439 1.502 . S
C1438 C1440 1.561 . S
C1438 C1441 1.526 . S
C1439 H1423 0.959 . S
C1439 H1424 0.959 . S
C1439 H1425 0.961 . S
C1439 C1438 1.502 . S
C1440 H1426 0.960 . S
C1440 H1427 0.961 . S
C1440 H1428 0.959 . S
C1440 C1438 1.561 . S
C1441 C1438 1.526 . S
C1441 C1442 1.396 . S
C1441 C1446 1.390 . S
C1442 C1436 1.465 . S
C1442 C1441 1.396 . S
C1442 C1443 1.399 . S
C1443 H1429 0.929 . S
C1443 C1442 1.399 . S
C1443 C1444 1.385 . S
C1444 H1430 0.931 . S
C1444 C1443 1.385 . S
C1444 C1445 1.389 . S
C1445 C1444 1.389 . S
C1445 C1446 1.387 . S
C1446 H1431 0.930 . S
C1446 C1441 1.390 . S
C1446 C1445 1.387 . S
H1447 C1459 0.930 . S
H1448 C1461 0.930 . S
H1449 C1462 0.930 . S
H1450 C1466 0.959 . S
H1451 C1466 0.959 . S
H1452 C1466 0.961 . S
H1453 C1467 0.960 . S
H1454 C1467 0.961 . S
H1455 C1467 0.959 . S
H1456 C1470 0.929 . S
H1457 C1471 0.931 . S
H1458 C1473 0.930 . S
C1459 H1447 0.930 . S
C1459 C1460 1.399 . S
C1459 C1464 1.399 . S
C1460 C1459 1.399 . S
C1460 C1461 1.376 . S
C1461 H1448 0.930 . S
C1461 C1460 1.376 . S
C1461 C1462 1.388 . S
C1462 H1449 0.930 . S
C1462 C1461 1.388 . S
C1462 C1463 1.390 . S
C1463 C1462 1.390 . S
C1463 C1464 1.394 . S
C1463 C1469 1.465 . S
C1464 C1459 1.399 . S
C1464 C1463 1.394 . S
C1464 C1465 1.516 . S
C1465 C1464 1.516 . S
C1465 C1466 1.502 . S
C1465 C1467 1.561 . S
C1465 C1468 1.526 . S
C1466 H1450 0.959 . S
C1466 H1451 0.959 . S
C1466 H1452 0.961 . S
C1466 C1465 1.502 . S
C1467 H1453 0.960 . S
C1467 H1454 0.961 . S
C1467 H1455 0.959 . S
C1467 C1465 1.561 . S
C1468 C1465 1.526 . S
C1468 C1469 1.396 . S
C1468 C1473 1.390 . S
C1469 C1463 1.465 . S
C1469 C1468 1.396 . S
C1469 C1470 1.399 . S
C1470 H1456 0.929 . S
C1470 C1469 1.399 . S
C1470 C1471 1.385 . S
C1471 H1457 0.931 . S
C1471 C1470 1.385 . S
C1471 C1472 1.389 . S
C1472 C1471 1.389 . S
C1472 C1473 1.387 . S
C1473 H1458 0.930 . S
C1473 C1468 1.390 . S
C1473 C1472 1.387 . S
H1474 C1486 0.930 . S
H1475 C1488 0.930 . S
H1476 C1489 0.930 . S
H1477 C1493 0.959 . S
H1478 C1493 0.959 . S
H1479 C1493 0.961 . S
H1480 C1494 0.960 . S
H1481 C1494 0.961 . S
H1482 C1494 0.959 . S
H1483 C1497 0.929 . S
H1484 C1498 0.931 . S
H1485 C1500 0.930 . S
C1486 H1474 0.930 . S
C1486 C1487 1.399 . S
C1486 C1491 1.399 . S
C1487 C1486 1.399 . S
C1487 C1488 1.376 . S
C1488 H1475 0.930 . S
C1488 C1487 1.376 . S
C1488 C1489 1.388 . S
C1489 H1476 0.930 . S
C1489 C1488 1.388 . S
C1489 C1490 1.390 . S
C1490 C1489 1.390 . S
C1490 C1491 1.394 . S
C1490 C1496 1.465 . S
C1491 C1486 1.399 . S
C1491 C1490 1.394 . S
C1491 C1492 1.516 . S
C1492 C1491 1.516 . S
C1492 C1493 1.502 . S
C1492 C1494 1.561 . S
C1492 C1495 1.526 . S
C1493 H1477 0.959 . S
C1493 H1478 0.959 . S
C1493 H1479 0.961 . S
C1493 C1492 1.502 . S
C1494 H1480 0.960 . S
C1494 H1481 0.961 . S
C1494 H1482 0.959 . S
C1494 C1492 1.561 . S
C1495 C1492 1.526 . S
C1495 C1496 1.396 . S
C1495 C1500 1.390 . S
C1496 C1490 1.465 . S
C1496 C1495 1.396 . S
C1496 C1497 1.399 . S
C1497 H1483 0.929 . S
C1497 C1496 1.399 . S
C1497 C1498 1.385 . S
C1498 H1484 0.931 . S
C1498 C1497 1.385 . S
C1498 C1499 1.389 . S
C1499 C1498 1.389 . S
C1499 C1500 1.387 . S
C1500 H1485 0.930 . S
C1500 C1495 1.390 . S
C1500 C1499 1.387 . S
H1501 C1513 0.930 . S
H1502 C1515 0.930 . S
H1503 C1516 0.930 . S
H1504 C1520 0.959 . S
H1505 C1520 0.959 . S
H1506 C1520 0.961 . S
H1507 C1521 0.960 . S
H1508 C1521 0.961 . S
H1509 C1521 0.959 . S
H1510 C1524 0.929 . S
H1511 C1525 0.931 . S
H1512 C1527 0.930 . S
C1513 H1501 0.930 . S
C1513 C1514 1.399 . S
C1513 C1518 1.399 . S
C1514 C1513 1.399 . S
C1514 C1515 1.376 . S
C1515 H1502 0.930 . S
C1515 C1514 1.376 . S
C1515 C1516 1.388 . S
C1516 H1503 0.930 . S
C1516 C1515 1.388 . S
C1516 C1517 1.390 . S
C1517 C1516 1.390 . S
C1517 C1518 1.394 . S
C1517 C1523 1.465 . S
C1518 C1513 1.399 . S
C1518 C1517 1.394 . S
C1518 C1519 1.516 . S
C1519 C1518 1.516 . S
C1519 C1520 1.502 . S
C1519 C1521 1.561 . S
C1519 C1522 1.526 . S
C1520 H1504 0.959 . S
C1520 H1505 0.959 . S
C1520 H1506 0.961 . S
C1520 C1519 1.502 . S
C1521 H1507 0.960 . S
C1521 H1508 0.961 . S
C1521 H1509 0.959 . S
C1521 C1519 1.561 . S
C1522 C1519 1.526 . S
C1522 C1523 1.396 . S
C1522 C1527 1.390 . S
C1523 C1517 1.465 . S
C1523 C1522 1.396 . S
C1523 C1524 1.399 . S
C1524 H1510 0.929 . S
C1524 C1523 1.399 . S
C1524 C1525 1.385 . S
C1525 H1511 0.931 . S
C1525 C1524 1.385 . S
C1525 C1526 1.389 . S
C1526 C1525 1.389 . S
C1526 C1527 1.387 . S
C1527 H1512 0.930 . S
C1527 C1522 1.390 . S
C1527 C1526 1.387 . S
H1528 C1540 0.930 . S
H1529 C1542 0.930 . S
H1530 C1543 0.930 . S
H1531 C1547 0.962 . S
H1532 C1547 0.979 . S
H1533 C1547 0.939 1_554 S
H1534 C1548 0.957 1_554 S
H1535 C1548 0.963 . S
H1536 C1548 0.959 . S
H1537 C1551 0.929 . S
H1538 C1552 0.931 . S
H1539 C1554 0.930 . S
C1540 H1528 0.930 . S
C1540 C1541 1.399 . S
C1540 C1545 1.399 . S
C1541 C1540 1.399 . S
C1541 C1542 1.376 . S
C1542 H1529 0.930 . S
C1542 C1541 1.376 . S
C1542 C1543 1.388 . S
C1543 H1530 0.930 . S
C1543 C1542 1.388 . S
C1543 C1544 1.390 . S
C1544 C1543 1.390 . S
C1544 C1545 1.394 . S
C1544 C1550 1.465 1_554 S
C1545 C1540 1.399 . S
C1545 C1544 1.394 . S
C1545 C1546 1.517 1_554 S
C1546 C1545 1.517 1_556 S
C1546 C1547 1.502 . S
C1546 C1548 1.561 . S
C1546 C1549 1.525 . S
C1547 H1531 0.962 . S
C1547 H1532 0.979 . S
C1547 H1533 0.939 1_556 S
C1547 C1546 1.502 . S
C1548 H1534 0.957 1_556 S
C1548 H1535 0.963 . S
C1548 H1536 0.959 . S
C1548 C1546 1.561 . S
C1549 C1546 1.525 . S
C1549 C1550 1.396 . S
C1549 C1554 1.390 . S
C1550 C1544 1.465 1_556 S
C1550 C1549 1.396 . S
C1550 C1551 1.399 . S
C1551 H1537 0.929 . S
C1551 C1550 1.399 . S
C1551 C1552 1.385 . S
C1552 H1538 0.931 . S
C1552 C1551 1.385 . S
C1552 C1553 1.389 . S
C1553 C1552 1.389 . S
C1553 C1554 1.387 . S
C1554 H1539 0.930 . S
C1554 C1549 1.390 . S
C1554 C1553 1.387 . S
H1555 C1567 0.930 . S
H1556 C1569 0.930 . S
H1557 C1570 0.930 . S
H1558 C1574 0.962 . S
H1559 C1574 0.979 . S
H1560 C1574 0.939 1_556 S
H1561 C1575 0.957 1_556 S
H1562 C1575 0.963 . S
H1563 C1575 0.959 . S
H1564 C1578 0.929 . S
H1565 C1579 0.931 . S
H1566 C1581 0.930 . S
C1567 H1555 0.930 . S
C1567 C1568 1.399 . S
C1567 C1572 1.399 . S
C1568 C1567 1.399 . S
C1568 C1569 1.376 . S
C1569 H1556 0.930 . S
C1569 C1568 1.376 . S
C1569 C1570 1.388 . S
C1570 H1557 0.930 . S
C1570 C1569 1.388 . S
C1570 C1571 1.390 . S
C1571 C1570 1.390 . S
C1571 C1572 1.394 . S
C1571 C1577 1.465 1_556 S
C1572 C1567 1.399 . S
C1572 C1571 1.394 . S
C1572 C1573 1.517 1_556 S
C1573 C1572 1.517 1_554 S
C1573 C1574 1.502 . S
C1573 C1575 1.561 . S
C1573 C1576 1.525 . S
C1574 H1558 0.962 . S
C1574 H1559 0.979 . S
C1574 H1560 0.939 1_554 S
C1574 C1573 1.502 . S
C1575 H1561 0.957 1_554 S
C1575 H1562 0.963 . S
C1575 H1563 0.959 . S
C1575 C1573 1.561 . S
C1576 C1573 1.525 . S
C1576 C1577 1.396 . S
C1576 C1581 1.390 . S
C1577 C1571 1.465 1_554 S
C1577 C1576 1.396 . S
C1577 C1578 1.399 . S
C1578 H1564 0.929 . S
C1578 C1577 1.399 . S
C1578 C1579 1.385 . S
C1579 H1565 0.931 . S
C1579 C1578 1.385 . S
C1579 C1580 1.389 . S
C1580 C1579 1.389 . S
C1580 C1581 1.387 . S
C1581 H1566 0.930 . S
C1581 C1576 1.390 . S
C1581 C1580 1.387 . S
H1582 C1594 0.930 . S
H1583 C1596 0.930 . S
H1584 C1597 0.930 . S
H1585 C1601 0.962 . S
H1586 C1601 0.979 . S
H1587 C1601 0.939 1_554 S
H1588 C1602 0.957 1_554 S
H1589 C1602 0.963 . S
H1590 C1602 0.959 . S
H1591 C1605 0.929 . S
H1592 C1606 0.931 . S
H1593 C1608 0.930 . S
C1594 H1582 0.930 . S
C1594 C1595 1.399 . S
C1594 C1599 1.399 . S
C1595 C1594 1.399 . S
C1595 C1596 1.376 . S
C1596 H1583 0.930 . S
C1596 C1595 1.376 . S
C1596 C1597 1.388 . S
C1597 H1584 0.930 . S
C1597 C1596 1.388 . S
C1597 C1598 1.390 . S
C1598 C1597 1.390 . S
C1598 C1599 1.394 . S
C1598 C1604 1.465 1_554 S
C1599 C1594 1.399 . S
C1599 C1598 1.394 . S
C1599 C1600 1.517 1_554 S
C1600 C1599 1.517 1_556 S
C1600 C1601 1.502 . S
C1600 C1602 1.561 . S
C1600 C1603 1.525 . S
C1601 H1585 0.962 . S
C1601 H1586 0.979 . S
C1601 H1587 0.939 1_556 S
C1601 C1600 1.502 . S
C1602 H1588 0.957 1_556 S
C1602 H1589 0.963 . S
C1602 H1590 0.959 . S
C1602 C1600 1.561 . S
C1603 C1600 1.525 . S
C1603 C1604 1.396 . S
C1603 C1608 1.390 . S
C1604 C1598 1.465 1_556 S
C1604 C1603 1.396 . S
C1604 C1605 1.399 . S
C1605 H1591 0.929 . S
C1605 C1604 1.399 . S
C1605 C1606 1.385 . S
C1606 H1592 0.931 . S
C1606 C1605 1.385 . S
C1606 C1607 1.389 . S
C1607 C1606 1.389 . S
C1607 C1608 1.387 . S
C1608 H1593 0.930 . S
C1608 C1603 1.390 . S
C1608 C1607 1.387 . S
H1609 C1621 0.930 . S
H1610 C1623 0.930 . S
H1611 C1624 0.930 . S
H1612 C1628 0.962 . S
H1613 C1628 0.979 . S
H1614 C1628 0.939 1_554 S
H1615 C1629 0.957 1_554 S
H1616 C1629 0.963 . S
H1617 C1629 0.959 . S
H1618 C1632 0.929 . S
H1619 C1633 0.931 . S
H1620 C1635 0.930 . S
C1621 H1609 0.930 . S
C1621 C1622 1.399 . S
C1621 C1626 1.399 . S
C1622 C1621 1.399 . S
C1622 C1623 1.376 . S
C1623 H1610 0.930 . S
C1623 C1622 1.376 . S
C1623 C1624 1.388 . S
C1624 H1611 0.930 . S
C1624 C1623 1.388 . S
C1624 C1625 1.390 . S
C1625 C1624 1.390 . S
C1625 C1626 1.394 . S
C1625 C1631 1.465 1_554 S
C1626 C1621 1.399 . S
C1626 C1625 1.394 . S
C1626 C1627 1.517 1_554 S
C1627 C1626 1.517 1_556 S
C1627 C1628 1.502 . S
C1627 C1629 1.561 . S
C1627 C1630 1.525 . S
C1628 H1612 0.962 . S
C1628 H1613 0.979 . S
C1628 H1614 0.939 1_556 S
C1628 C1627 1.502 . S
C1629 H1615 0.957 1_556 S
C1629 H1616 0.963 . S
C1629 H1617 0.959 . S
C1629 C1627 1.561 . S
C1630 C1627 1.525 . S
C1630 C1631 1.396 . S
C1630 C1635 1.390 . S
C1631 C1625 1.465 1_556 S
C1631 C1630 1.396 . S
C1631 C1632 1.399 . S
C1632 H1618 0.929 . S
C1632 C1631 1.399 . S
C1632 C1633 1.385 . S
C1633 H1619 0.931 . S
C1633 C1632 1.385 . S
C1633 C1634 1.389 . S
C1634 C1633 1.389 . S
C1634 C1635 1.387 . S
C1635 H1620 0.930 . S
C1635 C1630 1.390 . S
C1635 C1634 1.387 . S
H1636 C1648 0.930 . S
H1637 C1650 0.930 . S
H1638 C1651 0.930 . S
H1639 C1655 0.962 . S
H1640 C1655 0.979 . S
H1641 C1655 0.939 1_554 S
H1642 C1656 0.957 1_554 S
H1643 C1656 0.963 . S
H1644 C1656 0.959 . S
H1645 C1659 0.929 . S
H1646 C1660 0.931 . S
H1647 C1662 0.930 . S
C1648 H1636 0.930 . S
C1648 C1649 1.399 . S
C1648 C1653 1.399 . S
C1649 C1648 1.399 . S
C1649 C1650 1.376 . S
C1650 H1637 0.930 . S
C1650 C1649 1.376 . S
C1650 C1651 1.388 . S
C1651 H1638 0.930 . S
C1651 C1650 1.388 . S
C1651 C1652 1.390 . S
C1652 C1651 1.390 . S
C1652 C1653 1.394 . S
C1652 C1658 1.465 1_554 S
C1653 C1648 1.399 . S
C1653 C1652 1.394 . S
C1653 C1654 1.517 1_554 S
C1654 C1653 1.517 1_556 S
C1654 C1655 1.502 . S
C1654 C1656 1.561 . S
C1654 C1657 1.525 . S
C1655 H1639 0.962 . S
C1655 H1640 0.979 . S
C1655 H1641 0.939 1_556 S
C1655 C1654 1.502 . S
C1656 H1642 0.957 1_556 S
C1656 H1643 0.963 . S
C1656 H1644 0.959 . S
C1656 C1654 1.561 . S
C1657 C1654 1.525 . S
C1657 C1658 1.396 . S
C1657 C1662 1.390 . S
C1658 C1652 1.465 1_556 S
C1658 C1657 1.396 . S
C1658 C1659 1.399 . S
C1659 H1645 0.929 . S
C1659 C1658 1.399 . S
C1659 C1660 1.385 . S
C1660 H1646 0.931 . S
C1660 C1659 1.385 . S
C1660 C1661 1.389 . S
C1661 C1660 1.389 . S
C1661 C1662 1.387 . S
C1662 H1647 0.930 . S
C1662 C1657 1.390 . S
C1662 C1661 1.387 . S
H1663 C1675 0.930 . S
H1664 C1677 0.930 . S
H1665 C1678 0.930 . S
H1666 C1682 0.962 . S
H1667 C1682 0.979 . S
H1668 C1682 0.939 1_554 S
H1669 C1683 0.957 1_554 S
H1670 C1683 0.963 . S
H1671 C1683 0.959 . S
H1672 C1686 0.929 . S
H1673 C1687 0.931 . S
H1674 C1689 0.930 . S
C1675 H1663 0.930 . S
C1675 C1676 1.399 . S
C1675 C1680 1.399 . S
C1676 C1675 1.399 . S
C1676 C1677 1.376 . S
C1677 H1664 0.930 . S
C1677 C1676 1.376 . S
C1677 C1678 1.388 . S
C1678 H1665 0.930 . S
C1678 C1677 1.388 . S
C1678 C1679 1.390 . S
C1679 C1678 1.390 . S
C1679 C1680 1.394 . S
C1679 C1685 1.465 1_554 S
C1680 C1675 1.399 . S
C1680 C1679 1.394 . S
C1680 C1681 1.517 1_554 S
C1681 C1680 1.517 1_556 S
C1681 C1682 1.502 . S
C1681 C1683 1.561 . S
C1681 C1684 1.525 . S
C1682 H1666 0.962 . S
C1682 H1667 0.979 . S
C1682 H1668 0.939 1_556 S
C1682 C1681 1.502 . S
C1683 H1669 0.957 1_556 S
C1683 H1670 0.963 . S
C1683 H1671 0.959 . S
C1683 C1681 1.561 . S
C1684 C1681 1.525 . S
C1684 C1685 1.396 . S
C1684 C1689 1.390 . S
C1685 C1679 1.465 1_556 S
C1685 C1684 1.396 . S
C1685 C1686 1.399 . S
C1686 H1672 0.929 . S
C1686 C1685 1.399 . S
C1686 C1687 1.385 . S
C1687 H1673 0.931 . S
C1687 C1686 1.385 . S
C1687 C1688 1.389 . S
C1688 C1687 1.389 . S
C1688 C1689 1.387 . S
C1689 H1674 0.930 . S
C1689 C1684 1.390 . S
C1689 C1688 1.387 . S
H1690 C1702 0.930 . S
H1691 C1704 0.930 . S
H1692 C1705 0.930 . S
H1693 C1709 0.962 . S
H1694 C1709 0.979 . S
H1695 C1709 0.939 1_556 S
H1696 C1710 0.957 1_556 S
H1697 C1710 0.963 . S
H1698 C1710 0.959 . S
H1699 C1713 0.929 . S
H1700 C1714 0.931 . S
H1701 C1716 0.930 . S
C1702 H1690 0.930 . S
C1702 C1703 1.399 . S
C1702 C1707 1.399 . S
C1703 C1702 1.399 . S
C1703 C1704 1.376 . S
C1704 H1691 0.930 . S
C1704 C1703 1.376 . S
C1704 C1705 1.388 . S
C1705 H1692 0.930 . S
C1705 C1704 1.388 . S
C1705 C1706 1.390 . S
C1706 C1705 1.390 . S
C1706 C1707 1.394 . S
C1706 C1712 1.465 1_556 S
C1707 C1702 1.399 . S
C1707 C1706 1.394 . S
C1707 C1708 1.517 1_556 S
C1708 C1707 1.517 1_554 S
C1708 C1709 1.502 . S
C1708 C1710 1.561 . S
C1708 C1711 1.525 . S
C1709 H1693 0.962 . S
C1709 H1694 0.979 . S
C1709 H1695 0.939 1_554 S
C1709 C1708 1.502 . S
C1710 H1696 0.957 1_554 S
C1710 H1697 0.963 . S
C1710 H1698 0.959 . S
C1710 C1708 1.561 . S
C1711 C1708 1.525 . S
C1711 C1712 1.396 . S
C1711 C1716 1.390 . S
C1712 C1706 1.465 1_554 S
C1712 C1711 1.396 . S
C1712 C1713 1.399 . S
C1713 H1699 0.929 . S
C1713 C1712 1.399 . S
C1713 C1714 1.385 . S
C1714 H1700 0.931 . S
C1714 C1713 1.385 . S
C1714 C1715 1.389 . S
C1715 C1714 1.389 . S
C1715 C1716 1.387 . S
C1716 H1701 0.930 . S
C1716 C1711 1.390 . S
C1716 C1715 1.387 . S
H1717 C1729 0.930 . S
H1718 C1731 0.930 . S
H1719 C1732 0.930 . S
H1720 C1736 0.962 . S
H1721 C1736 0.979 . S
H1722 C1736 0.939 1_556 S
H1723 C1737 0.957 1_556 S
H1724 C1737 0.963 . S
H1725 C1737 0.959 . S
H1726 C1740 0.929 . S
H1727 C1741 0.931 . S
H1728 C1743 0.930 . S
C1729 H1717 0.930 . S
C1729 C1730 1.399 . S
C1729 C1734 1.399 . S
C1730 C1729 1.399 . S
C1730 C1731 1.376 . S
C1731 H1718 0.930 . S
C1731 C1730 1.376 . S
C1731 C1732 1.388 . S
C1732 H1719 0.930 . S
C1732 C1731 1.388 . S
C1732 C1733 1.390 . S
C1733 C1732 1.390 . S
C1733 C1734 1.394 . S
C1733 C1739 1.465 1_556 S
C1734 C1729 1.399 . S
C1734 C1733 1.394 . S
C1734 C1735 1.517 1_556 S
C1735 C1734 1.517 1_554 S
C1735 C1736 1.502 . S
C1735 C1737 1.561 . S
C1735 C1738 1.525 . S
C1736 H1720 0.962 . S
C1736 H1721 0.979 . S
C1736 H1722 0.939 1_554 S
C1736 C1735 1.502 . S
C1737 H1723 0.957 1_554 S
C1737 H1724 0.963 . S
C1737 H1725 0.959 . S
C1737 C1735 1.561 . S
C1738 C1735 1.525 . S
C1738 C1739 1.396 . S
C1738 C1743 1.390 . S
C1739 C1733 1.465 1_554 S
C1739 C1738 1.396 . S
C1739 C1740 1.399 . S
C1740 H1726 0.929 . S
C1740 C1739 1.399 . S
C1740 C1741 1.385 . S
C1741 H1727 0.931 . S
C1741 C1740 1.385 . S
C1741 C1742 1.389 . S
C1742 C1741 1.389 . S
C1742 C1743 1.387 . S
C1743 H1728 0.930 . S
C1743 C1738 1.390 . S
C1743 C1742 1.387 . S
H1744 C1756 0.930 . S
H1745 C1758 0.930 . S
H1746 C1759 0.930 . S
H1747 C1763 0.959 . S
H1748 C1763 0.959 . S
H1749 C1763 0.961 . S
H1750 C1764 0.960 . S
H1751 C1764 0.961 . S
H1752 C1764 0.959 . S
H1753 C1767 0.929 . S
H1754 C1768 0.931 . S
H1755 C1770 0.930 . S
C1756 H1744 0.930 . S
C1756 C1757 1.399 . S
C1756 C1761 1.399 . S
C1757 C1756 1.399 . S
C1757 C1758 1.376 . S
C1758 H1745 0.930 . S
C1758 C1757 1.376 . S
C1758 C1759 1.388 . S
C1759 H1746 0.930 . S
C1759 C1758 1.388 . S
C1759 C1760 1.390 . S
C1760 C1759 1.390 . S
C1760 C1761 1.394 . S
C1760 C1766 1.465 . S
C1761 C1756 1.399 . S
C1761 C1760 1.394 . S
C1761 C1762 1.516 . S
C1762 C1761 1.516 . S
C1762 C1763 1.502 . S
C1762 C1764 1.561 . S
C1762 C1765 1.526 . S
C1763 H1747 0.959 . S
C1763 H1748 0.959 . S
C1763 H1749 0.961 . S
C1763 C1762 1.502 . S
C1764 H1750 0.960 . S
C1764 H1751 0.961 . S
C1764 H1752 0.959 . S
C1764 C1762 1.561 . S
C1765 C1762 1.526 . S
C1765 C1766 1.396 . S
C1765 C1770 1.390 . S
C1766 C1760 1.465 . S
C1766 C1765 1.396 . S
C1766 C1767 1.399 . S
C1767 H1753 0.929 . S
C1767 C1766 1.399 . S
C1767 C1768 1.385 . S
C1768 H1754 0.931 . S
C1768 C1767 1.385 . S
C1768 C1769 1.389 . S
C1769 C1768 1.389 . S
C1769 C1770 1.387 . S
C1770 H1755 0.930 . S
C1770 C1765 1.390 . S
C1770 C1769 1.387 . S
H1771 C1783 0.930 . S
H1772 C1785 0.930 . S
H1773 C1786 0.930 . S
H1774 C1790 0.959 . S
H1775 C1790 0.959 . S
H1776 C1790 0.961 . S
H1777 C1791 0.960 . S
H1778 C1791 0.961 . S
H1779 C1791 0.959 . S
H1780 C1794 0.929 . S
H1781 C1795 0.931 . S
H1782 C1797 0.930 . S
C1783 H1771 0.930 . S
C1783 C1784 1.399 . S
C1783 C1788 1.399 . S
C1784 C1783 1.399 . S
C1784 C1785 1.376 . S
C1785 H1772 0.930 . S
C1785 C1784 1.376 . S
C1785 C1786 1.388 . S
C1786 H1773 0.930 . S
C1786 C1785 1.388 . S
C1786 C1787 1.390 . S
C1787 C1786 1.390 . S
C1787 C1788 1.394 . S
C1787 C1793 1.465 . S
C1788 C1783 1.399 . S
C1788 C1787 1.394 . S
C1788 C1789 1.516 . S
C1789 C1788 1.516 . S
C1789 C1790 1.502 . S
C1789 C1791 1.561 . S
C1789 C1792 1.526 . S
C1790 H1774 0.959 . S
C1790 H1775 0.959 . S
C1790 H1776 0.961 . S
C1790 C1789 1.502 . S
C1791 H1777 0.960 . S
C1791 H1778 0.961 . S
C1791 H1779 0.959 . S
C1791 C1789 1.561 . S
C1792 C1789 1.526 . S
C1792 C1793 1.396 . S
C1792 C1797 1.390 . S
C1793 C1787 1.465 . S
C1793 C1792 1.396 . S
C1793 C1794 1.399 . S
C1794 H1780 0.929 . S
C1794 C1793 1.399 . S
C1794 C1795 1.385 . S
C1795 H1781 0.931 . S
C1795 C1794 1.385 . S
C1795 C1796 1.389 . S
C1796 C1795 1.389 . S
C1796 C1797 1.387 . S
C1797 H1782 0.930 . S
C1797 C1792 1.390 . S
C1797 C1796 1.387 . S
H1798 C1810 0.930 . S
H1799 C1812 0.930 . S
H1800 C1813 0.930 . S
H1801 C1817 0.959 . S
H1802 C1817 0.959 . S
H1803 C1817 0.961 . S
H1804 C1818 0.960 . S
H1805 C1818 0.961 . S
H1806 C1818 0.959 . S
H1807 C1821 0.929 . S
H1808 C1822 0.931 . S
H1809 C1824 0.930 . S
C1810 H1798 0.930 . S
C1810 C1811 1.399 . S
C1810 C1815 1.399 . S
C1811 C1810 1.399 . S
C1811 C1812 1.376 . S
C1812 H1799 0.930 . S
C1812 C1811 1.376 . S
C1812 C1813 1.388 . S
C1813 H1800 0.930 . S
C1813 C1812 1.388 . S
C1813 C1814 1.390 . S
C1814 C1813 1.390 . S
C1814 C1815 1.394 . S
C1814 C1820 1.465 . S
C1815 C1810 1.399 . S
C1815 C1814 1.394 . S
C1815 C1816 1.516 . S
C1816 C1815 1.516 . S
C1816 C1817 1.502 . S
C1816 C1818 1.561 . S
C1816 C1819 1.526 . S
C1817 H1801 0.959 . S
C1817 H1802 0.959 . S
C1817 H1803 0.961 . S
C1817 C1816 1.502 . S
C1818 H1804 0.960 . S
C1818 H1805 0.961 . S
C1818 H1806 0.959 . S
C1818 C1816 1.561 . S
C1819 C1816 1.526 . S
C1819 C1820 1.396 . S
C1819 C1824 1.390 . S
C1820 C1814 1.465 . S
C1820 C1819 1.396 . S
C1820 C1821 1.399 . S
C1821 H1807 0.929 . S
C1821 C1820 1.399 . S
C1821 C1822 1.385 . S
C1822 H1808 0.931 . S
C1822 C1821 1.385 . S
C1822 C1823 1.389 . S
C1823 C1822 1.389 . S
C1823 C1824 1.387 . S
C1824 H1809 0.930 . S
C1824 C1819 1.390 . S
C1824 C1823 1.387 . S
H1825 C1837 0.930 . S
H1826 C1839 0.930 . S
H1827 C1840 0.930 . S
H1828 C1844 0.959 . S
H1829 C1844 0.959 . S
H1830 C1844 0.961 . S
H1831 C1845 0.960 . S
H1832 C1845 0.961 . S
H1833 C1845 0.959 . S
H1834 C1848 0.929 . S
H1835 C1849 0.931 . S
H1836 C1851 0.930 . S
C1837 H1825 0.930 . S
C1837 C1838 1.399 . S
C1837 C1842 1.399 . S
C1838 C1837 1.399 . S
C1838 C1839 1.376 . S
C1839 H1826 0.930 . S
C1839 C1838 1.376 . S
C1839 C1840 1.388 . S
C1840 H1827 0.930 . S
C1840 C1839 1.388 . S
C1840 C1841 1.390 . S
C1841 C1840 1.390 . S
C1841 C1842 1.394 . S
C1841 C1847 1.465 . S
C1842 C1837 1.399 . S
C1842 C1841 1.394 . S
C1842 C1843 1.516 . S
C1843 C1842 1.516 . S
C1843 C1844 1.502 . S
C1843 C1845 1.561 . S
C1843 C1846 1.526 . S
C1844 H1828 0.959 . S
C1844 H1829 0.959 . S
C1844 H1830 0.961 . S
C1844 C1843 1.502 . S
C1845 H1831 0.960 . S
C1845 H1832 0.961 . S
C1845 H1833 0.959 . S
C1845 C1843 1.561 . S
C1846 C1843 1.526 . S
C1846 C1847 1.396 . S
C1846 C1851 1.390 . S
C1847 C1841 1.465 . S
C1847 C1846 1.396 . S
C1847 C1848 1.399 . S
C1848 H1834 0.929 . S
C1848 C1847 1.399 . S
C1848 C1849 1.385 . S
C1849 H1835 0.931 . S
C1849 C1848 1.385 . S
C1849 C1850 1.389 . S
C1850 C1849 1.389 . S
C1850 C1851 1.387 . S
C1851 H1836 0.930 . S
C1851 C1846 1.390 . S
C1851 C1850 1.387 . S
H1852 C1864 0.930 . S
H1853 C1866 0.930 . S
H1854 C1867 0.930 . S
H1855 C1871 0.959 . S
H1856 C1871 0.959 . S
H1857 C1871 0.961 . S
H1858 C1872 0.960 . S
H1859 C1872 0.961 . S
H1860 C1872 0.959 . S
H1861 C1875 0.929 . S
H1862 C1876 0.931 . S
H1863 C1878 0.930 . S
C1864 H1852 0.930 . S
C1864 C1865 1.399 . S
C1864 C1869 1.399 . S
C1865 C1864 1.399 . S
C1865 C1866 1.376 . S
C1866 H1853 0.930 . S
C1866 C1865 1.376 . S
C1866 C1867 1.388 . S
C1867 H1854 0.930 . S
C1867 C1866 1.388 . S
C1867 C1868 1.390 . S
C1868 C1867 1.390 . S
C1868 C1869 1.394 . S
C1868 C1874 1.465 . S
C1869 C1864 1.399 . S
C1869 C1868 1.394 . S
C1869 C1870 1.516 . S
C1870 C1869 1.516 . S
C1870 C1871 1.502 . S
C1870 C1872 1.561 . S
C1870 C1873 1.526 . S
C1871 H1855 0.959 . S
C1871 H1856 0.959 . S
C1871 H1857 0.961 . S
C1871 C1870 1.502 . S
C1872 H1858 0.960 . S
C1872 H1859 0.961 . S
C1872 H1860 0.959 . S
C1872 C1870 1.561 . S
C1873 C1870 1.526 . S
C1873 C1874 1.396 . S
C1873 C1878 1.390 . S
C1874 C1868 1.465 . S
C1874 C1873 1.396 . S
C1874 C1875 1.399 . S
C1875 H1861 0.929 . S
C1875 C1874 1.399 . S
C1875 C1876 1.385 . S
C1876 H1862 0.931 . S
C1876 C1875 1.385 . S
C1876 C1877 1.389 . S
C1877 C1876 1.389 . S
C1877 C1878 1.387 . S
C1878 H1863 0.930 . S
C1878 C1873 1.390 . S
C1878 C1877 1.387 . S
H1879 C1891 0.930 . S
H1880 C1893 0.930 . S
H1881 C1894 0.930 . S
H1882 C1898 0.959 . S
H1883 C1898 0.959 . S
H1884 C1898 0.961 . S
H1885 C1899 0.960 . S
H1886 C1899 0.961 . S
H1887 C1899 0.959 . S
H1888 C1902 0.929 . S
H1889 C1903 0.931 . S
H1890 C1905 0.930 . S
C1891 H1879 0.930 . S
C1891 C1892 1.399 . S
C1891 C1896 1.399 . S
C1892 C1891 1.399 . S
C1892 C1893 1.376 . S
C1893 H1880 0.930 . S
C1893 C1892 1.376 . S
C1893 C1894 1.388 . S
C1894 H1881 0.930 . S
C1894 C1893 1.388 . S
C1894 C1895 1.390 . S
C1895 C1894 1.390 . S
C1895 C1896 1.394 . S
C1895 C1901 1.465 . S
C1896 C1891 1.399 . S
C1896 C1895 1.394 . S
C1896 C1897 1.516 . S
C1897 C1896 1.516 . S
C1897 C1898 1.502 . S
C1897 C1899 1.561 . S
C1897 C1900 1.526 . S
C1898 H1882 0.959 . S
C1898 H1883 0.959 . S
C1898 H1884 0.961 . S
C1898 C1897 1.502 . S
C1899 H1885 0.960 . S
C1899 H1886 0.961 . S
C1899 H1887 0.959 . S
C1899 C1897 1.561 . S
C1900 C1897 1.526 . S
C1900 C1901 1.396 . S
C1900 C1905 1.390 . S
C1901 C1895 1.465 . S
C1901 C1900 1.396 . S
C1901 C1902 1.399 . S
C1902 H1888 0.929 . S
C1902 C1901 1.399 . S
C1902 C1903 1.385 . S
C1903 H1889 0.931 . S
C1903 C1902 1.385 . S
C1903 C1904 1.389 . S
C1904 C1903 1.389 . S
C1904 C1905 1.387 . S
C1905 H1890 0.930 . S
C1905 C1900 1.390 . S
C1905 C1904 1.387 . S
H1906 C1918 0.930 . S
H1907 C1920 0.930 . S
H1908 C1921 0.930 . S
H1909 C1925 0.959 . S
H1910 C1925 0.959 . S
H1911 C1925 0.961 . S
H1912 C1926 0.960 . S
H1913 C1926 0.961 . S
H1914 C1926 0.959 . S
H1915 C1929 0.929 . S
H1916 C1930 0.931 . S
H1917 C1932 0.930 . S
C1918 H1906 0.930 . S
C1918 C1919 1.399 . S
C1918 C1923 1.399 . S
C1919 C1918 1.399 . S
C1919 C1920 1.376 . S
C1920 H1907 0.930 . S
C1920 C1919 1.376 . S
C1920 C1921 1.388 . S
C1921 H1908 0.930 . S
C1921 C1920 1.388 . S
C1921 C1922 1.390 . S
C1922 C1921 1.390 . S
C1922 C1923 1.394 . S
C1922 C1928 1.465 . S
C1923 C1918 1.399 . S
C1923 C1922 1.394 . S
C1923 C1924 1.516 . S
C1924 C1923 1.516 . S
C1924 C1925 1.502 . S
C1924 C1926 1.561 . S
C1924 C1927 1.526 . S
C1925 H1909 0.959 . S
C1925 H1910 0.959 . S
C1925 H1911 0.961 . S
C1925 C1924 1.502 . S
C1926 H1912 0.960 . S
C1926 H1913 0.961 . S
C1926 H1914 0.959 . S
C1926 C1924 1.561 . S
C1927 C1924 1.526 . S
C1927 C1928 1.396 . S
C1927 C1932 1.390 . S
C1928 C1922 1.465 . S
C1928 C1927 1.396 . S
C1928 C1929 1.399 . S
C1929 H1915 0.929 . S
C1929 C1928 1.399 . S
C1929 C1930 1.385 . S
C1930 H1916 0.931 . S
C1930 C1929 1.385 . S
C1930 C1931 1.389 . S
C1931 C1930 1.389 . S
C1931 C1932 1.387 . S
C1932 H1917 0.930 . S
C1932 C1927 1.390 . S
C1932 C1931 1.387 . S
H1933 C1945 0.930 . S
H1934 C1947 0.930 . S
H1935 C1948 0.930 . S
H1936 C1952 0.959 . S
H1937 C1952 0.959 . S
H1938 C1952 0.961 . S
H1939 C1953 0.960 . S
H1940 C1953 0.961 . S
H1941 C1953 0.959 . S
H1942 C1956 0.929 . S
H1943 C1957 0.931 . S
H1944 C1959 0.930 . S
C1945 H1933 0.930 . S
C1945 C1946 1.399 . S
C1945 C1950 1.399 . S
C1946 C1945 1.399 . S
C1946 C1947 1.376 . S
C1947 H1934 0.930 . S
C1947 C1946 1.376 . S
C1947 C1948 1.388 . S
C1948 H1935 0.930 . S
C1948 C1947 1.388 . S
C1948 C1949 1.390 . S
C1949 C1948 1.390 . S
C1949 C1950 1.394 . S
C1949 C1955 1.465 . S
C1950 C1945 1.399 . S
C1950 C1949 1.394 . S
C1950 C1951 1.516 . S
C1951 C1950 1.516 . S
C1951 C1952 1.502 . S
C1951 C1953 1.561 . S
C1951 C1954 1.526 . S
C1952 H1936 0.959 . S
C1952 H1937 0.959 . S
C1952 H1938 0.961 . S
C1952 C1951 1.502 . S
C1953 H1939 0.960 . S
C1953 H1940 0.961 . S
C1953 H1941 0.959 . S
C1953 C1951 1.561 . S
C1954 C1951 1.526 . S
C1954 C1955 1.396 . S
C1954 C1959 1.390 . S
C1955 C1949 1.465 . S
C1955 C1954 1.396 . S
C1955 C1956 1.399 . S
C1956 H1942 0.929 . S
C1956 C1955 1.399 . S
C1956 C1957 1.385 . S
C1957 H1943 0.931 . S
C1957 C1956 1.385 . S
C1957 C1958 1.389 . S
C1958 C1957 1.389 . S
C1958 C1959 1.387 . S
C1959 H1944 0.930 . S
C1959 C1954 1.390 . S
C1959 C1958 1.387 . S
H1960 C1972 0.930 . S
H1961 C1974 0.930 . S
H1962 C1975 0.930 . S
H1963 C1979 0.959 . S
H1964 C1979 0.959 . S
H1965 C1979 0.961 . S
H1966 C1980 0.960 . S
H1967 C1980 0.961 . S
H1968 C1980 0.959 . S
H1969 C1983 0.929 . S
H1970 C1984 0.931 . S
H1971 C1986 0.930 . S
C1972 H1960 0.930 . S
C1972 C1973 1.399 . S
C1972 C1977 1.399 . S
C1973 C1972 1.399 . S
C1973 C1974 1.376 . S
C1974 H1961 0.930 . S
C1974 C1973 1.376 . S
C1974 C1975 1.388 . S
C1975 H1962 0.930 . S
C1975 C1974 1.388 . S
C1975 C1976 1.390 . S
C1976 C1975 1.390 . S
C1976 C1977 1.394 . S
C1976 C1982 1.465 . S
C1977 C1972 1.399 . S
C1977 C1976 1.394 . S
C1977 C1978 1.516 . S
C1978 C1977 1.516 . S
C1978 C1979 1.502 . S
C1978 C1980 1.561 . S
C1978 C1981 1.526 . S
C1979 H1963 0.959 . S
C1979 H1964 0.959 . S
C1979 H1965 0.961 . S
C1979 C1978 1.502 . S
C1980 H1966 0.960 . S
C1980 H1967 0.961 . S
C1980 H1968 0.959 . S
C1980 C1978 1.561 . S
C1981 C1978 1.526 . S
C1981 C1982 1.396 . S
C1981 C1986 1.390 . S
C1982 C1976 1.465 . S
C1982 C1981 1.396 . S
C1982 C1983 1.399 . S
C1983 H1969 0.929 . S
C1983 C1982 1.399 . S
C1983 C1984 1.385 . S
C1984 H1970 0.931 . S
C1984 C1983 1.385 . S
C1984 C1985 1.389 . S
C1985 C1984 1.389 . S
C1985 C1986 1.387 . S
C1986 H1971 0.930 . S
C1986 C1981 1.390 . S
C1986 C1985 1.387 . S
H1987 C1999 0.930 . S
H1988 C2001 0.930 . S
H1989 C2002 0.930 . S
H1990 C2006 0.959 . S
H1991 C2006 0.959 . S
H1992 C2006 0.961 . S
H1993 C2007 0.960 . S
H1994 C2007 0.961 . S
H1995 C2007 0.959 . S
H1996 C2010 0.929 . S
H1997 C2011 0.931 . S
H1998 C2013 0.930 . S
C1999 H1987 0.930 . S
C1999 C2000 1.399 . S
C1999 C2004 1.399 . S
C2000 C1999 1.399 . S
C2000 C2001 1.376 . S
C2001 H1988 0.930 . S
C2001 C2000 1.376 . S
C2001 C2002 1.388 . S
C2002 H1989 0.930 . S
C2002 C2001 1.388 . S
C2002 C2003 1.390 . S
C2003 C2002 1.390 . S
C2003 C2004 1.394 . S
C2003 C2009 1.465 . S
C2004 C1999 1.399 . S
C2004 C2003 1.394 . S
C2004 C2005 1.516 . S
C2005 C2004 1.516 . S
C2005 C2006 1.502 . S
C2005 C2007 1.561 . S
C2005 C2008 1.526 . S
C2006 H1990 0.959 . S
C2006 H1991 0.959 . S
C2006 H1992 0.961 . S
C2006 C2005 1.502 . S
C2007 H1993 0.960 . S
C2007 H1994 0.961 . S
C2007 H1995 0.959 . S
C2007 C2005 1.561 . S
C2008 C2005 1.526 . S
C2008 C2009 1.396 . S
C2008 C2013 1.390 . S
C2009 C2003 1.465 . S
C2009 C2008 1.396 . S
C2009 C2010 1.399 . S
C2010 H1996 0.929 . S
C2010 C2009 1.399 . S
C2010 C2011 1.385 . S
C2011 H1997 0.931 . S
C2011 C2010 1.385 . S
C2011 C2012 1.389 . S
C2012 C2011 1.389 . S
C2012 C2013 1.387 . S
C2013 H1998 0.930 . S
C2013 C2008 1.390 . S
C2013 C2012 1.387 . S
H2014 C2026 0.930 . S
H2015 C2028 0.930 . S
H2016 C2029 0.930 . S
H2017 C2033 0.959 . S
H2018 C2033 0.959 . S
H2019 C2033 0.961 . S
H2020 C2034 0.960 . S
H2021 C2034 0.961 . S
H2022 C2034 0.959 . S
H2023 C2037 0.929 . S
H2024 C2038 0.931 . S
H2025 C2040 0.930 . S
C2026 H2014 0.930 . S
C2026 C2027 1.399 . S
C2026 C2031 1.399 . S
C2027 C2026 1.399 . S
C2027 C2028 1.376 . S
C2028 H2015 0.930 . S
C2028 C2027 1.376 . S
C2028 C2029 1.388 . S
C2029 H2016 0.930 . S
C2029 C2028 1.388 . S
C2029 C2030 1.390 . S
C2030 C2029 1.390 . S
C2030 C2031 1.394 . S
C2030 C2036 1.465 . S
C2031 C2026 1.399 . S
C2031 C2030 1.394 . S
C2031 C2032 1.516 . S
C2032 C2031 1.516 . S
C2032 C2033 1.502 . S
C2032 C2034 1.561 . S
C2032 C2035 1.526 . S
C2033 H2017 0.959 . S
C2033 H2018 0.959 . S
C2033 H2019 0.961 . S
C2033 C2032 1.502 . S
C2034 H2020 0.960 . S
C2034 H2021 0.961 . S
C2034 H2022 0.959 . S
C2034 C2032 1.561 . S
C2035 C2032 1.526 . S
C2035 C2036 1.396 . S
C2035 C2040 1.390 . S
C2036 C2030 1.465 . S
C2036 C2035 1.396 . S
C2036 C2037 1.399 . S
C2037 H2023 0.929 . S
C2037 C2036 1.399 . S
C2037 C2038 1.385 . S
C2038 H2024 0.931 . S
C2038 C2037 1.385 . S
C2038 C2039 1.389 . S
C2039 C2038 1.389 . S
C2039 C2040 1.387 . S
C2040 H2025 0.930 . S
C2040 C2035 1.390 . S
C2040 C2039 1.387 . S
H2041 C2053 0.930 . S
H2042 C2055 0.930 . S
H2043 C2056 0.930 . S
H2044 C2060 0.959 . S
H2045 C2060 0.959 . S
H2046 C2060 0.961 . S
H2047 C2061 0.960 . S
H2048 C2061 0.961 . S
H2049 C2061 0.959 . S
H2050 C2064 0.929 . S
H2051 C2065 0.931 . S
H2052 C2067 0.930 . S
C2053 H2041 0.930 . S
C2053 C2054 1.399 . S
C2053 C2058 1.399 . S
C2054 C2053 1.399 . S
C2054 C2055 1.376 . S
C2055 H2042 0.930 . S
C2055 C2054 1.376 . S
C2055 C2056 1.388 . S
C2056 H2043 0.930 . S
C2056 C2055 1.388 . S
C2056 C2057 1.390 . S
C2057 C2056 1.390 . S
C2057 C2058 1.394 . S
C2057 C2063 1.465 . S
C2058 C2053 1.399 . S
C2058 C2057 1.394 . S
C2058 C2059 1.516 . S
C2059 C2058 1.516 . S
C2059 C2060 1.502 . S
C2059 C2061 1.561 . S
C2059 C2062 1.526 . S
C2060 H2044 0.959 . S
C2060 H2045 0.959 . S
C2060 H2046 0.961 . S
C2060 C2059 1.502 . S
C2061 H2047 0.960 . S
C2061 H2048 0.961 . S
C2061 H2049 0.959 . S
C2061 C2059 1.561 . S
C2062 C2059 1.526 . S
C2062 C2063 1.396 . S
C2062 C2067 1.390 . S
C2063 C2057 1.465 . S
C2063 C2062 1.396 . S
C2063 C2064 1.399 . S
C2064 H2050 0.929 . S
C2064 C2063 1.399 . S
C2064 C2065 1.385 . S
C2065 H2051 0.931 . S
C2065 C2064 1.385 . S
C2065 C2066 1.389 . S
C2066 C2065 1.389 . S
C2066 C2067 1.387 . S
C2067 H2052 0.930 . S
C2067 C2062 1.390 . S
C2067 C2066 1.387 . S
H2068 C2080 0.930 . S
H2069 C2082 0.930 . S
H2070 C2083 0.930 . S
H2071 C2087 0.959 . S
H2072 C2087 0.959 . S
H2073 C2087 0.961 . S
H2074 C2088 0.960 . S
H2075 C2088 0.961 . S
H2076 C2088 0.959 . S
H2077 C2091 0.929 . S
H2078 C2092 0.931 . S
H2079 C2094 0.930 . S
C2080 H2068 0.930 . S
C2080 C2081 1.399 . S
C2080 C2085 1.399 . S
C2081 C2080 1.399 . S
C2081 C2082 1.376 . S
C2082 H2069 0.930 . S
C2082 C2081 1.376 . S
C2082 C2083 1.388 . S
C2083 H2070 0.930 . S
C2083 C2082 1.388 . S
C2083 C2084 1.390 . S
C2084 C2083 1.390 . S
C2084 C2085 1.394 . S
C2084 C2090 1.465 . S
C2085 C2080 1.399 . S
C2085 C2084 1.394 . S
C2085 C2086 1.516 . S
C2086 C2085 1.516 . S
C2086 C2087 1.502 . S
C2086 C2088 1.561 . S
C2086 C2089 1.526 . S
C2087 H2071 0.959 . S
C2087 H2072 0.959 . S
C2087 H2073 0.961 . S
C2087 C2086 1.502 . S
C2088 H2074 0.960 . S
C2088 H2075 0.961 . S
C2088 H2076 0.959 . S
C2088 C2086 1.561 . S
C2089 C2086 1.526 . S
C2089 C2090 1.396 . S
C2089 C2094 1.390 . S
C2090 C2084 1.465 . S
C2090 C2089 1.396 . S
C2090 C2091 1.399 . S
C2091 H2077 0.929 . S
C2091 C2090 1.399 . S
C2091 C2092 1.385 . S
C2092 H2078 0.931 . S
C2092 C2091 1.385 . S
C2092 C2093 1.389 . S
C2093 C2092 1.389 . S
C2093 C2094 1.387 . S
C2094 H2079 0.930 . S
C2094 C2089 1.390 . S
C2094 C2093 1.387 . S
H2095 C2107 0.930 . S
H2096 C2109 0.930 . S
H2097 C2110 0.930 . S
H2098 C2114 0.959 . S
H2099 C2114 0.959 . S
H2100 C2114 0.961 . S
H2101 C2115 0.960 . S
H2102 C2115 0.961 . S
H2103 C2115 0.959 . S
H2104 C2118 0.929 . S
H2105 C2119 0.931 . S
H2106 C2121 0.930 . S
C2107 H2095 0.930 . S
C2107 C2108 1.399 . S
C2107 C2112 1.399 . S
C2108 C2107 1.399 . S
C2108 C2109 1.376 . S
C2109 H2096 0.930 . S
C2109 C2108 1.376 . S
C2109 C2110 1.388 . S
C2110 H2097 0.930 . S
C2110 C2109 1.388 . S
C2110 C2111 1.390 . S
C2111 C2110 1.390 . S
C2111 C2112 1.394 . S
C2111 C2117 1.465 . S
C2112 C2107 1.399 . S
C2112 C2111 1.394 . S
C2112 C2113 1.516 . S
C2113 C2112 1.516 . S
C2113 C2114 1.502 . S
C2113 C2115 1.561 . S
C2113 C2116 1.526 . S
C2114 H2098 0.959 . S
C2114 H2099 0.959 . S
C2114 H2100 0.961 . S
C2114 C2113 1.502 . S
C2115 H2101 0.960 . S
C2115 H2102 0.961 . S
C2115 H2103 0.959 . S
C2115 C2113 1.561 . S
C2116 C2113 1.526 . S
C2116 C2117 1.396 . S
C2116 C2121 1.390 . S
C2117 C2111 1.465 . S
C2117 C2116 1.396 . S
C2117 C2118 1.399 . S
C2118 H2104 0.929 . S
C2118 C2117 1.399 . S
C2118 C2119 1.385 . S
C2119 H2105 0.931 . S
C2119 C2118 1.385 . S
C2119 C2120 1.389 . S
C2120 C2119 1.389 . S
C2120 C2121 1.387 . S
C2121 H2106 0.930 . S
C2121 C2116 1.390 . S
C2121 C2120 1.387 . S
H2122 C2134 0.930 . S
H2123 C2136 0.930 . S
H2124 C2137 0.930 . S
H2125 C2141 0.959 . S
H2126 C2141 0.959 . S
H2127 C2141 0.961 . S
H2128 C2142 0.960 . S
H2129 C2142 0.961 . S
H2130 C2142 0.959 . S
H2131 C2145 0.929 . S
H2132 C2146 0.931 . S
H2133 C2148 0.930 . S
C2134 H2122 0.930 . S
C2134 C2135 1.399 . S
C2134 C2139 1.399 . S
C2135 C2134 1.399 . S
C2135 C2136 1.376 . S
C2136 H2123 0.930 . S
C2136 C2135 1.376 . S
C2136 C2137 1.388 . S
C2137 H2124 0.930 . S
C2137 C2136 1.388 . S
C2137 C2138 1.390 . S
C2138 C2137 1.390 . S
C2138 C2139 1.394 . S
C2138 C2144 1.465 . S
C2139 C2134 1.399 . S
C2139 C2138 1.394 . S
C2139 C2140 1.516 . S
C2140 C2139 1.516 . S
C2140 C2141 1.502 . S
C2140 C2142 1.561 . S
C2140 C2143 1.526 . S
C2141 H2125 0.959 . S
C2141 H2126 0.959 . S
C2141 H2127 0.961 . S
C2141 C2140 1.502 . S
C2142 H2128 0.960 . S
C2142 H2129 0.961 . S
C2142 H2130 0.959 . S
C2142 C2140 1.561 . S
C2143 C2140 1.526 . S
C2143 C2144 1.396 . S
C2143 C2148 1.390 . S
C2144 C2138 1.465 . S
C2144 C2143 1.396 . S
C2144 C2145 1.399 . S
C2145 H2131 0.929 . S
C2145 C2144 1.399 . S
C2145 C2146 1.385 . S
C2146 H2132 0.931 . S
C2146 C2145 1.385 . S
C2146 C2147 1.389 . S
C2147 C2146 1.389 . S
C2147 C2148 1.387 . S
C2148 H2133 0.930 . S
C2148 C2143 1.390 . S
C2148 C2147 1.387 . S
H2149 C2161 0.930 . S
H2150 C2163 0.930 . S
H2151 C2164 0.930 . S
H2152 C2168 0.959 . S
H2153 C2168 0.959 . S
H2154 C2168 0.961 . S
H2155 C2169 0.960 . S
H2156 C2169 0.961 . S
H2157 C2169 0.959 . S
H2158 C2172 0.929 . S
H2159 C2173 0.931 . S
H2160 C2175 0.930 . S
C2161 H2149 0.930 . S
C2161 C2162 1.399 . S
C2161 C2166 1.399 . S
C2162 C2161 1.399 . S
C2162 C2163 1.376 . S
C2163 H2150 0.930 . S
C2163 C2162 1.376 . S
C2163 C2164 1.388 . S
C2164 H2151 0.930 . S
C2164 C2163 1.388 . S
C2164 C2165 1.390 . S
C2165 C2164 1.390 . S
C2165 C2166 1.394 . S
C2165 C2171 1.465 . S
C2166 C2161 1.399 . S
C2166 C2165 1.394 . S
C2166 C2167 1.516 . S
C2167 C2166 1.516 . S
C2167 C2168 1.502 . S
C2167 C2169 1.561 . S
C2167 C2170 1.526 . S
C2168 H2152 0.959 . S
C2168 H2153 0.959 . S
C2168 H2154 0.961 . S
C2168 C2167 1.502 . S
C2169 H2155 0.960 . S
C2169 H2156 0.961 . S
C2169 H2157 0.959 . S
C2169 C2167 1.561 . S
C2170 C2167 1.526 . S
C2170 C2171 1.396 . S
C2170 C2175 1.390 . S
C2171 C2165 1.465 . S
C2171 C2170 1.396 . S
C2171 C2172 1.399 . S
C2172 H2158 0.929 . S
C2172 C2171 1.399 . S
C2172 C2173 1.385 . S
C2173 H2159 0.931 . S
C2173 C2172 1.385 . S
C2173 C2174 1.389 . S
C2174 C2173 1.389 . S
C2174 C2175 1.387 . S
C2175 H2160 0.930 . S
C2175 C2170 1.390 . S
C2175 C2174 1.387 . S
C461 C219 1.452 . S
C473 C9 1.460 . S
C488 C23 1.467 . S
C500 C177 1.460 . S
C515 C37 1.447 . S
C527 C191 1.454 . S
C542 C205 1.476 . S
C554 C51 1.469 . S
C569 C65 1.455 . S
C581 C135 1.462 . S
C596 C79 1.484 . S
C608 C149 1.478 . S
C623 C163 1.454 . S
C635 C93 1.461 . S
C650 C121 1.458 . S
C662 C107 1.465 . S
C677 C233 1.445 . S
C689 C443 1.451 . S
C704 C247 1.481 . S
C716 C401 1.476 . S
C731 C261 1.485 . S
C743 C415 1.481 . S
C758 C429 1.472 . S
C770 C275 1.465 . S
C785 C289 1.488 . S
C797 C359 1.486 . S
C812 C303 1.481 . S
C824 C373 1.476 . S
C839 C387 1.464 . S
C851 C317 1.471 . S
C866 C331 1.487 . S
C878 C345 1.484 . S
C893 C176 1.428 . S
C905 C8 1.427 . S
C920 C22 1.419 . S
C932 C190 1.420 . S
C947 C204 1.428 . S
C959 C36 1.426 . S
C974 C50 1.419 . S
C986 C218 1.420 . S
C1001 C64 1.430 . S
C1013 C120 1.430 . S
C1028 C134 1.428 . S
C1040 C78 1.429 . S
C1055 C148 1.420 . S
C1067 C92 1.422 . S
C1082 C162 1.424 . S
C1094 C106 1.426 . S
C1109 C232 1.419 . S
C1121 C400 1.420 . S
C1136 C414 1.419 . S
C1148 C246 1.420 . S
C1163 C260 1.423 . S
C1175 C428 1.425 . S
C1190 C274 1.419 . S
C1202 C442 1.420 . S
C1217 C344 1.420 . S
C1229 C288 1.421 . S
C1244 C302 1.427 . S
C1256 C358 1.425 . S
C1271 C316 1.429 . S
C1283 C372 1.428 . S
C1298 C330 1.431 . S
C1310 C386 1.430 . S
C1325 C7 1.302 . S
C1337 C147 1.294 . S
C1352 C161 1.278 . S
C1364 C21 1.272 . S
C1379 C35 1.317 . S
C1391 C119 1.312 . S
C1406 C133 1.294 . S
C1418 C49 1.303 . S
C1433 C203 1.266 . S
C1445 C63 1.271 . S
C1460 C217 1.300 . S
C1472 C77 1.308 . S
C1487 C175 1.265 . S
C1499 C91 1.270 . S
C1514 C105 1.318 . S
C1526 C189 1.319 . S
C1541 C371 1.265 . S
C1553 C231 1.270 . S
C1568 C245 1.265 . S
C1580 C385 1.264 . S
C1595 C343 1.264 . S
C1607 C259 1.268 . S
C1622 C357 1.292 . S
C1634 C273 1.283 . S
C1649 C287 1.286 . S
C1661 C427 1.295 . S
C1676 C301 1.304 . S
C1688 C441 1.296 . S
C1703 C399 1.265 . S
C1715 C315 1.270 . S
C1730 C413 1.277 . S
C1742 C329 1.271 . S
C1757 C325 1.222 . S
C1769 C3 1.180 . S
C1784 C283 1.200 . S
C1796 C17 1.207 . S
C1811 C297 1.224 . S
C1823 C31 1.160 . S
C1838 C311 1.189 . S
C1850 C45 1.179 . S
C1865 C241 1.159 . S
C1877 C59 1.221 . S
C1892 C73 1.160 . S
C1904 C255 1.226 . S
C1919 C87 1.171 . S
C1931 C269 1.226 . S
C1946 C101 1.167 . S
C1958 C227 1.227 . S
C1973 C115 1.217 . S
C1985 C437 1.162 . S
C2000 C395 1.222 . S
C2012 C129 1.165 . S
C2027 C143 1.161 . S
C2039 C409 1.194 . S
C2054 C157 1.221 . S
C2066 C423 1.204 . S
C2081 C353 1.209 . S
C2093 C171 1.217 . S
C2108 C367 1.227 . S
C2120 C185 1.175 . S
C2135 C199 1.159 . S
C2147 C381 1.212 . S
C2162 C213 1.213 . S
C2174 C339 1.213 . S
