# Generated by pormake.
# Topology wmb, (6)-cn, num edge types: 1
# Building blocks:
#     Node 0, Type 0, BuildingBlock: IZENUY_clean_sbu_0, # of connection points: 6
#     Node 1, Type 0, BuildingBlock: IZENUY_clean_sbu_0, # of connection points: 6
#     Node 2, Type 0, BuildingBlock: IZENUY_clean_sbu_0, # of connection points: 6
#     Node 3, Type 0, BuildingBlock: IZENUY_clean_sbu_0, # of connection points: 6
#     Node 4, Type 0, BuildingBlock: IZENUY_clean_sbu_0, # of connection points: 6
#     Node 5, Type 0, BuildingBlock: IZENUY_clean_sbu_0, # of connection points: 6
#     Edge 6, Type (0, 0), BuildingBlock: ZUJKAS_clean_linker_0, # of connection points: 2
#     Edge 7, Type (0, 0), BuildingBlock: ZUJKAS_clean_linker_0, # of connection points: 2
#     Edge 8, Type (0, 0), BuildingBlock: ZUJKAS_clean_linker_0, # of connection points: 2
#     Edge 9, Type (0, 0), BuildingBlock: ZUJKAS_clean_linker_0, # of connection points: 2
#     Edge 10, Type (0, 0), BuildingBlock: ZUJKAS_clean_linker_0, # of connection points: 2
#     Edge 11, Type (0, 0), BuildingBlock: ZUJKAS_clean_linker_0, # of connection points: 2
#     Edge 12, Type (0, 0), BuildingBlock: ZUJKAS_clean_linker_0, # of connection points: 2
#     Edge 13, Type (0, 0), BuildingBlock: ZUJKAS_clean_linker_0, # of connection points: 2
#     Edge 14, Type (0, 0), BuildingBlock: ZUJKAS_clean_linker_0, # of connection points: 2
#     Edge 15, Type (0, 0), BuildingBlock: ZUJKAS_clean_linker_0, # of connection points: 2
#     Edge 16, Type (0, 0), BuildingBlock: ZUJKAS_clean_linker_0, # of connection points: 2
#     Edge 17, Type (0, 0), BuildingBlock: ZUJKAS_clean_linker_0, # of connection points: 2
#     Edge 18, Type (0, 0), BuildingBlock: ZUJKAS_clean_linker_0, # of connection points: 2
#     Edge 19, Type (0, 0), BuildingBlock: ZUJKAS_clean_linker_0, # of connection points: 2
#     Edge 20, Type (0, 0), BuildingBlock: ZUJKAS_clean_linker_0, # of connection points: 2
#     Edge 21, Type (0, 0), BuildingBlock: ZUJKAS_clean_linker_0, # of connection points: 2
#     Edge 22, Type (0, 0), BuildingBlock: ZUJKAS_clean_linker_0, # of connection points: 2
#     Edge 23, Type (0, 0), BuildingBlock: ZUJKAS_clean_linker_0, # of connection points: 2
# Relax obj value: 0.258
# Max RMSD: 0.258
# Mean RMSD: 0.258
data_MOF--net-wmb--node1-IZENUY_clean_sbu_0--edge1-ZUJKAS_clean_linker_0
_symmetry_space_group_name_H-M    P1
_symmetry_Int_Tables_number       1
_symmetry_cell_setting            triclinic
loop_
_symmetry_equiv_pos_as_xyz
'x, y, z'
_cell_length_a     34.62253
_cell_length_b     34.65711
_cell_length_c     53.966894
_cell_angle_alpha  90.100639
_cell_angle_beta   89.954489
_cell_angle_gamma 120.05996
loop_
_atom_site_label
_atom_site_type_symbol
_atom_site_fract_x
_atom_site_fract_y
_atom_site_fract_z
_atom_type_partial_charge
Fe0 Fe 0.49136 0.18416 0.03693 0.0
Fe1 Fe 0.55871 0.16645 0.00937 0.0
O2 O 0.53875 0.20284 0.01755 0.0
Fe3 Fe 0.56666 0.25847 0.00652 0.0
O4 O 0.58 0.27998 0.03786 0.0
O5 O 0.51196 0.2384 0.05239 0.0
O6 O 0.51771 0.17069 0.06161 0.0
C7 C 0.53363 0.14515 0.05989 0.0
C8 C 0.47523 0.23541 0.00535 0.0
O9 O 0.54347 0.13581 0.03895 0.0
C10 C 0.56698 0.21405 0.96489 0.0
O11 O 0.46282 0.12628 0.02527 0.0
O12 O 0.50616 0.12713 0.99527 0.0
O13 O 0.5165 0.26401 0.00582 0.0
O14 O 0.46135 0.19672 0.01374 0.0
C15 C 0.63826 0.24272 0.01611 0.0
O16 O 0.57729 0.19052 0.97832 0.0
O17 O 0.55509 0.2397 0.97457 0.0
C18 C 0.46908 0.10851 0.00625 0.0
O19 O 0.61302 0.20303 0.02286 0.0
O20 O 0.62231 0.26393 0.00516 0.0
C21 C 0.55155 0.27066 0.05482 0.0
Fe22 Fe 0.85606 0.39551 0.67551 0.0
Fe23 Fe 0.7631 0.31242 0.67299 0.0
O24 O 0.8187 0.33966 0.68418 0.0
Fe25 Fe 0.83642 0.31104 0.70419 0.0
O26 O 0.85063 0.352 0.72839 0.0
O27 O 0.88681 0.41153 0.70509 0.0
O28 O 0.82036 0.41474 0.68848 0.0
C29 C 0.7807 0.40062 0.68169 0.0
C30 C 0.9125 0.36212 0.67337 0.0
O31 O 0.75891 0.36319 0.67097 0.0
C32 C 0.78437 0.24285 0.67301 0.0
O33 O 0.8321 0.38941 0.64436 0.0
O34 O 0.78188 0.31818 0.64112 0.0
O35 O 0.8944 0.33908 0.69262 0.0
O36 O 0.89444 0.38058 0.6619 0.0
C37 C 0.75011 0.2869 0.72156 0.0
O38 O 0.75634 0.25622 0.67299 0.0
O39 O 0.8231 0.2674 0.68153 0.0
C40 C 0.8079 0.35531 0.63116 0.0
O41 O 0.74154 0.30577 0.70419 0.0
O42 O 0.78187 0.27873 0.71965 0.0
C43 C 0.87709 0.39324 0.72625 0.0
Fe44 Fe 0.69837 0.5312 0.37124 0.0
Fe45 Fe 0.61941 0.46341 0.33986 0.0
O46 O 0.67467 0.48431 0.35106 0.0
Fe47 Fe 0.70553 0.458 0.34243 0.0
O48 O 0.73323 0.46645 0.37261 0.0
O49 O 0.70545 0.49938 0.39553 0.0
O50 O 0.64553 0.51734 0.38609 0.0
C51 C 0.61003 0.48021 0.3883 0.0
C52 C 0.77299 0.54544 0.34195 0.0
O53 O 0.5966 0.45162 0.37114 0.0
C54 C 0.66119 0.45842 0.29791 0.0
O55 O 0.69229 0.5665 0.34837 0.0
O56 O 0.62259 0.5176 0.33951 0.0
O57 O 0.75154 0.50938 0.33007 0.0
O58 O 0.75588 0.55331 0.3606 0.0
C59 C 0.62221 0.38418 0.34791 0.0
O60 O 0.63853 0.47353 0.30801 0.0
O61 O 0.6827 0.44489 0.31083 0.0
C62 C 0.65527 0.55699 0.33875 0.0
O63 O 0.60543 0.40521 0.33783 0.0
O64 O 0.66274 0.40405 0.35414 0.0
C65 C 0.72444 0.47654 0.39362 0.0
Fe66 Fe 0.26121 0.5638 0.98998 0.0
Fe67 Fe 0.18655 0.48923 0.95928 0.0
O68 O 0.20533 0.53597 0.97918 0.0
Fe69 Fe 0.16877 0.55535 0.98813 0.0
O70 O 0.20494 0.61007 0.97506 0.0
O71 O 0.26636 0.6192 0.99213 0.0
O72 O 0.28226 0.5781 0.95867 0.0
C73 C 0.2728 0.55026 0.94137 0.0
C74 C 0.21735 0.56258 0.03211 0.0
O75 O 0.2406 0.51059 0.94347 0.0
C76 C 0.11128 0.46566 0.99055 0.0
O77 O 0.26709 0.51388 0.98984 0.0
O78 O 0.19975 0.45876 0.98182 0.0
O79 O 0.19333 0.57305 0.0192 0.0
O80 O 0.24302 0.55127 0.02189 0.0
C81 C 0.14654 0.53148 0.93748 0.0
O82 O 0.12881 0.46007 0.97122 0.0
O83 O 0.12993 0.50238 0.00187 0.0
C84 C 0.23861 0.4726 0.99003 0.0
O85 O 0.17244 0.51607 0.93522 0.0
O86 O 0.13753 0.54076 0.95867 0.0
C87 C 0.2448 0.63524 0.98165 0.0
Fe88 Fe 0.45742 0.69885 0.65705 0.0
Fe89 Fe 0.53151 0.69886 0.62598 0.0
O90 O 0.4856 0.67118 0.64641 0.0
Fe91 Fe 0.46741 0.61581 0.65592 0.0
O92 O 0.41204 0.59568 0.64328 0.0
O93 O 0.40241 0.64816 0.65969 0.0
O94 O 0.44204 0.70411 0.62569 0.0
C95 C 0.46953 0.72259 0.60827 0.0
C96 C 0.46043 0.65818 0.69955 0.0
O97 O 0.50945 0.73088 0.6103 0.0
C98 C 0.55728 0.64935 0.65739 0.0
O99 O 0.50712 0.75497 0.65639 0.0
O100 O 0.56258 0.74339 0.64809 0.0
O101 O 0.45026 0.62337 0.68698 0.0
O102 O 0.47086 0.69461 0.68899 0.0
C103 C 0.48869 0.61572 0.60508 0.0
O104 O 0.56153 0.67111 0.6377 0.0
O105 O 0.52114 0.63165 0.66928 0.0
C106 C 0.54855 0.76821 0.65637 0.0
O107 O 0.50355 0.65687 0.60237 0.0
O108 O 0.48163 0.59859 0.62652 0.0
C109 C 0.38663 0.6102 0.64961 0.0
Fe110 Fe 0.32164 0.76041 0.32312 0.0
Fe111 Fe 0.31899 0.83456 0.29355 0.0
O112 O 0.34813 0.81649 0.31292 0.0
Fe113 Fe 0.40378 0.854 0.32194 0.0
O114 O 0.42392 0.81973 0.30808 0.0
O115 O 0.37312 0.75719 0.32484 0.0
O116 O 0.31551 0.74055 0.29154 0.0
C117 C 0.29626 0.74962 0.27457 0.0
C118 C 0.36358 0.80355 0.36553 0.0
O119 O 0.28751 0.78085 0.27724 0.0
C120 C 0.36969 0.90955 0.32532 0.0
O121 O 0.265 0.75258 0.32327 0.0
O122 O 0.27486 0.81926 0.31626 0.0
O123 O 0.39779 0.82858 0.35263 0.0
O124 O 0.3267 0.7775 0.35528 0.0
C125 C 0.40136 0.87724 0.27168 0.0
O126 O 0.34649 0.89202 0.30599 0.0
O127 O 0.38792 0.89098 0.33647 0.0
C128 C 0.25071 0.77984 0.32394 0.0
O129 O 0.36017 0.8505 0.26935 0.0
O130 O 0.4196 0.88622 0.29287 0.0
C131 C 0.41066 0.78007 0.31437 0.0
H132 H 0.19666 0.38347 0.97841 0.0
H133 H 0.22744 0.33356 0.98158 0.0
H134 H 0.34635 0.43881 0.01565 0.0
H135 H 0.31605 0.48893 0.01254 0.0
H136 H 0.31055 0.35227 0.95872 0.0
H137 H 0.31091 0.32836 0.06035 0.0
H138 H 0.2762 0.34695 0.04567 0.0
H139 H 0.33446 0.38544 0.05081 0.0
C140 C 0.22898 0.39578 0.98704 0.0
C141 C 0.25392 0.4403 0.99519 0.0
C142 C 0.24658 0.36723 0.98873 0.0
C143 C 0.28906 0.3824 -0.00104 0.0
C144 C 0.31327 0.42623 0.00797 0.0
H145 H 0.49166 0.3124 0.98242 0.0
H146 H 0.4416 0.34277 0.97904 0.0
C147 C 0.29592 0.45489 0.0061 0.0
C148 C 0.30968 0.35377 0.9986 0.0
H149 H 0.35506 0.30742 0.03598 0.0
C150 C 0.31981 0.34197 0.9756 0.0
C151 C 0.32145 0.34012 0.02063 0.0
C152 C 0.3099 0.35047 0.0458 0.0
C153 C 0.34301 0.31841 0.97406 0.0
C154 C 0.35656 0.30654 0.9961 0.0
C155 C 0.34483 0.31675 0.0191 0.0
C156 C 0.38506 0.28575 0.99575 0.0
C157 C 0.35328 0.30678 0.9489 0.0
C158 C 0.36978 0.24338 0.00607 0.0
C159 C 0.39828 0.22574 0.0079 0.0
C160 C 0.44288 0.25054 -0.00016 0.0
C161 C 0.45756 0.29239 0.9888 0.0
C162 C 0.42893 0.30977 0.98678 0.0
H163 H 0.33115 0.30784 0.93434 0.0
H164 H 0.38829 0.33125 0.9439 0.0
H165 H 0.34966 0.27308 0.94901 0.0
H166 H 0.33607 0.22438 0.01319 0.0
H167 H 0.38591 0.19354 0.01663 0.0
H168 H 0.82623 0.19526 0.68359 0.0
H169 H 0.79519 0.11459 0.67984 0.0
H170 H 0.67556 0.10153 0.6473 0.0
H171 H 0.70614 0.18197 0.65095 0.0
H172 H 0.71351 0.0499 0.70298 0.0
H173 H 0.70885 0.02698 0.60103 0.0
H174 H 0.74378 0.08023 0.61581 0.0
H175 H 0.68522 0.05994 0.61154 0.0
C176 C 0.79367 0.1754 0.67518 0.0
C177 C 0.76866 0.19518 0.6676 0.0
C178 C 0.77592 0.12925 0.67316 0.0
C179 C 0.7332 0.1021 0.66316 0.0
C180 C 0.70884 0.1219 0.65476 0.0
H181 H 0.53212 0.82853 0.6797 0.0
H182 H 0.58167 0.90914 0.68291 0.0
C183 C 0.72635 0.16793 0.65695 0.0
C184 C 0.71255 0.0528 0.66314 0.0
H185 H 0.66574 0.96146 0.62525 0.0
C186 C 0.70353 0.03056 0.68598 0.0
C187 C 0.69984 0.02764 0.64096 0.0
C188 C 0.71022 0.04984 0.61591 0.0
C189 C 0.68054 0.98375 0.68724 0.0
C190 C 0.66608 0.95859 0.6651 0.0
C191 C 0.67666 0.98083 0.64223 0.0
C192 C 0.63785 0.90925 0.66528 0.0
C193 C 0.67151 0.96152 0.71225 0.0
C194 C 0.65309 0.88245 0.65446 0.0
C195 C 0.62489 0.8362 0.65274 0.0
C196 C 0.58063 0.816 0.66141 0.0
C197 C 0.56597 0.84293 0.67284 0.0
C198 C 0.5943 0.88903 0.67477 0.0
H199 H 0.69401 0.98466 0.72675 0.0
H200 H 0.63659 0.9504 0.71776 0.0
H201 H 0.67558 0.93173 0.71157 0.0
H202 H 0.68654 0.89745 0.64693 0.0
H203 H 0.63721 0.81656 0.64369 0.0
H204 H 0.2012 0.82068 0.31551 0.0
H205 H 0.12002 0.78727 0.31893 0.0
H206 H 0.10971 0.66557 0.34612 0.0
H207 H 0.19047 0.69861 0.34302 0.0
H208 H 0.05561 0.71053 0.29397 0.0
H209 H 0.03415 0.68862 0.39569 0.0
H210 H 0.08753 0.72495 0.38146 0.0
H211 H 0.06614 0.6658 0.38265 0.0
C212 C 0.18178 0.78711 0.32268 0.0
C213 C 0.20251 0.7624 0.32902 0.0
C214 C 0.13532 0.76797 0.32448 0.0
C215 C 0.10876 0.72401 0.33294 0.0
C216 C 0.12949 0.69976 0.33991 0.0
H217 H 0.82811 0.5325 0.31042 0.0
H218 H 0.90929 0.57883 0.30669 0.0
C219 C 0.17578 0.71873 0.33804 0.0
C220 C 0.05923 0.70245 0.3333 0.0
H221 H 0.96844 0.64848 0.37116 0.0
C222 C 0.03652 0.69731 0.31087 0.0
C223 C 0.03432 0.68551 0.35538 0.0
C224 C 0.05674 0.69182 0.38021 0.0
C225 C 0.98959 0.67462 0.30984 0.0
C226 C 0.96468 0.65608 0.33177 0.0
C227 C 0.98746 0.66232 0.35429 0.0
C228 C 0.91499 0.63001 0.33196 0.0
C229 C 0.96714 0.671 0.28532 0.0
C230 C 0.89101 0.64328 0.34733 0.0
C231 C 0.84469 0.6168 0.3496 0.0
C232 C 0.82113 0.57616 0.33664 0.0
C233 C 0.84502 0.56367 0.32055 0.0
C234 C 0.89151 0.59023 0.31834 0.0
H235 H 0.99005 0.69694 0.27208 0.0
H236 H 0.95668 0.6379 0.27698 0.0
H237 H 0.93697 0.67413 0.28775 0.0
H238 H 0.90832 0.67379 0.35803 0.0
H239 H 0.82752 0.62764 0.36212 0.0
H240 H 0.36895 0.87676 0.2256 0.0
H241 H 0.40919 0.92224 0.19018 0.0
H242 H 0.53238 0.97953 0.23148 0.0
H243 H 0.49171 0.93496 0.26769 0.0
H244 H 0.52525 0.04251 0.20954 0.0
H245 H 0.48703 0.91291 0.13945 0.0
H246 H 0.43587 0.90383 0.15289 0.0
H247 H 0.47651 0.89988 0.172 0.0
C248 C 0.40471 0.89854 0.22717 0.0
C249 C 0.42708 0.9022 0.24956 0.0
C250 C 0.42783 0.92427 0.20671 0.0
C251 C 0.47406 0.95359 0.20788 0.0
C252 C 0.49677 0.95682 0.23005 0.0
H253 H 0.57143 0.09233 0.06542 0.0
H254 H 0.56913 0.04987 0.10224 0.0
C255 C 0.47349 0.93135 0.25073 0.0
C256 C 0.49726 0.98357 0.18662 0.0
H257 H 0.50032 0.98463 0.12344 0.0
C258 C 0.52071 0.0298 0.19074 0.0
C259 C 0.49265 0.96728 0.16209 0.0
C260 C 0.47209 0.91822 0.15643 0.0
C261 C 0.53628 0.06002 0.17092 0.0
C262 C 0.52679 0.04354 0.14632 0.0
C263 C 0.50678 0.99743 0.14225 0.0
C264 C 0.5329 0.07284 0.12484 0.0
C265 C 0.56193 0.10926 0.17663 0.0
C266 C 0.51339 0.09989 0.12525 0.0
C267 C 0.5151 0.12447 0.10444 0.0
C268 C 0.53548 0.12181 0.08245 0.0
C269 C 0.55544 0.09507 0.08206 0.0
C270 C 0.55418 0.07082 0.10309 0.0
H271 H 0.5816 0.11583 0.19396 0.0
H272 H 0.585 0.12864 0.16135 0.0
H273 H 0.5381 0.12142 0.17958 0.0
H274 H 0.49539 0.1009 0.14142 0.0
H275 H 0.49905 0.1444 0.1054 0.0
H276 H 0.87841 0.36073 0.772 0.0
H277 H 0.92281 0.40156 0.80768 0.0
H278 H 0.97431 0.52518 0.76746 0.0
H279 H 0.93095 0.48399 0.73099 0.0
H280 H 0.03956 0.52217 0.7889 0.0
H281 H 0.90903 0.47467 0.85953 0.0
H282 H 0.90298 0.42504 0.8456 0.0
H283 H 0.89586 0.46427 0.82698 0.0
C284 C 0.89863 0.39668 0.77075 0.0
C285 C 0.9011 0.41907 0.74857 0.0
C286 C 0.92375 0.42012 0.79135 0.0
C287 C 0.95117 0.46665 0.79057 0.0
C288 C 0.95309 0.48932 0.76861 0.0
H289 H 0.08974 0.56513 0.9333 0.0
H290 H 0.0456 0.5616 0.89694 0.0
C291 C 0.92832 0.46575 0.74778 0.0
C292 C 0.98079 0.49045 0.81192 0.0
H293 H 0.98241 0.49174 0.87513 0.0
C294 C 0.02692 0.51638 0.80773 0.0
C295 C 0.96455 0.48424 0.83653 0.0
C296 C 0.91532 0.46097 0.84234 0.0
C297 C 0.05731 0.53295 0.8275 0.0
C298 C 0.04123 0.52196 0.8521 0.0
C299 C 0.99498 0.49939 0.8563 0.0
C300 C 0.07136 0.52903 0.87336 0.0
C301 C 0.10637 0.56128 0.82171 0.0
C302 C 0.10055 0.51202 0.87225 0.0
C303 C 0.12605 0.51445 0.89279 0.0
C304 C 0.12228 0.53304 0.91522 0.0
C305 C 0.09343 0.5506 0.91631 0.0
C306 C 0.06819 0.5486 0.89555 0.0
H307 H 0.11155 0.5813 0.80468 0.0
H308 H 0.125 0.58427 0.83719 0.0
H309 H 0.12056 0.53932 0.81817 0.0
H310 H 0.10255 0.49535 0.85573 0.0
H311 H 0.14764 0.50029 0.89125 0.0
H312 H 0.63716 0.4794 0.43469 0.0
H313 H 0.60296 0.48549 0.473 0.0
H314 H 0.4919 0.47503 0.43116 0.0
H315 H 0.5257 0.46733 0.39273 0.0
H316 H 0.59334 0.55695 0.47878 0.0
H317 H 0.42971 0.40365 0.49332 0.0
H318 H 0.47194 0.40532 0.47292 0.0
H319 H 0.43721 0.42718 0.46286 0.0
C320 C 0.60463 0.4767 0.43385 0.0
C321 C 0.58379 0.47267 0.41097 0.0
C322 C 0.58515 0.48027 0.45569 0.0
C323 C 0.54481 0.48064 0.45501 0.0
C324 C 0.52255 0.47391 0.43223 0.0
H325 H 0.4872 0.63698 0.55664 0.0
H326 H 0.49458 0.59945 0.52015 0.0
C327 C 0.54184 0.46961 0.41029 0.0
C328 C 0.53052 0.49533 0.47731 0.0
H329 H 0.4447 0.46712 0.51799 0.0
C330 C 0.56092 0.53707 0.48742 0.0
C331 C 0.48826 0.46941 0.48859 0.0
C332 C 0.45498 0.4237 0.47904 0.0
C333 C 0.55027 0.55378 0.50834 0.0
C334 C 0.50759 0.52856 0.5192 0.0
C335 C 0.47722 0.48651 0.50941 0.0
C336 C 0.49474 0.54609 0.54077 0.0
C337 C 0.58502 0.59826 0.51878 0.0
C338 C 0.49032 0.52728 0.56434 0.0
C339 C 0.48592 0.54861 0.58533 0.0
C340 C 0.48613 0.58915 0.58298 0.0
C341 C 0.48763 0.60618 0.55913 0.0
C342 C 0.49172 0.58474 0.53824 0.0
H343 H 0.61904 0.60829 0.51192 0.0
H344 H 0.57705 0.62424 0.51309 0.0
H345 H 0.58529 0.59736 0.53935 0.0
H346 H 0.49257 0.49742 0.56662 0.0
H347 H 0.48467 0.53457 0.60343 0.0
H348 H 0.47479 0.05841 0.96876 0.0
H349 H 0.42772 0.97857 0.96215 0.0
H350 H 0.34147 0.97199 0.02169 0.0
H351 H 0.38926 0.05208 0.02894 0.0
H352 H 0.36726 0.91179 0.02754 0.0
H353 H 0.30764 0.89993 0.93137 0.0
H354 H 0.36721 0.93353 0.93323 0.0
H355 H 0.33275 0.9515 0.94866 0.0
C356 C 0.44533 0.0403 0.98018 0.0
C357 C 0.43603 0.06179 -0.00049 0.0
C358 C 0.41818 0.99453 0.97622 0.0
C359 C 0.3807 0.96923 0.99122 0.0
C360 C 0.37013 0.99086 0.00982 0.0
H361 H 0.2034 0.68217 0.96855 0.0
H362 H 0.23401 0.76288 0.97086 0.0
C363 C 0.39744 0.03671 0.01389 0.0
C364 C 0.35565 0.9198 0.98917 0.0
H365 H 0.30474 0.83386 0.94782 0.0
C366 C 0.35306 0.89475 0.01018 0.0
C367 C 0.33669 0.8974 0.96659 0.0
C368 C 0.33578 0.92199 0.94377 0.0
C369 C 0.33357 0.84822 0.00902 0.0
C370 C 0.31713 0.82614 0.98608 0.0
C371 C 0.31805 0.8509 0.9653 0.0
C372 C 0.29934 0.77746 0.98334 0.0
C373 C 0.33071 0.82319 0.03245 0.0
C374 C 0.3263 0.75898 0.98885 0.0
C375 C 0.30891 0.7129 0.98766 0.0
C376 C 0.26425 0.68432 0.98067 0.0
C377 C 0.23787 0.70314 0.9741 0.0
C378 C 0.25529 0.74928 0.97542 0.0
H379 H 0.33223 0.8425 0.04924 0.0
H380 H 0.2994 0.7904 0.03304 0.0
H381 H 0.35936 0.81727 0.03317 0.0
H382 H 0.36075 0.78019 0.99436 0.0
H383 H 0.33033 0.69966 0.99258 0.0
H384 H 0.33991 0.52057 0.63925 0.0
H385 H 0.25906 0.47072 0.64102 0.0
H386 H 0.24142 0.58223 0.659 0.0
H387 H 0.32212 0.63209 0.65785 0.0
H388 H 0.19537 0.51277 0.69007 0.0
H389 H 0.16215 0.45343 0.59262 0.0
H390 H 0.20338 0.44503 0.60793 0.0
H391 H 0.21433 0.50074 0.60231 0.0
C392 C 0.31881 0.5346 0.6433 0.0
C393 C 0.33755 0.58036 0.64846 0.0
C394 C 0.27253 0.50603 0.64418 0.0
C395 C 0.24411 0.52277 0.64989 0.0
C396 C 0.2627 0.56856 0.65456 0.0
H397 H 0.96291 0.41532 0.63518 0.0
H398 H 0.04312 0.44856 0.6294 0.0
C399 C 0.30888 0.59704 0.65385 0.0
C400 C 0.19516 0.49258 0.65231 0.0
H401 H 0.10142 0.41881 0.62061 0.0
C402 C 0.17483 0.49212 0.6749 0.0
C403 C 0.1684 0.46586 0.63245 0.0
C404 C 0.18802 0.46645 0.60738 0.0
C405 C 0.12846 0.46629 0.67811 0.0
C406 C 0.10168 0.43912 0.65836 0.0
C407 C 0.12206 0.43915 0.63584 0.0
C408 C 0.05221 0.41377 0.66006 0.0
C409 C 0.10847 0.46984 0.7023 0.0
C410 C 0.03022 0.38158 0.67858 0.0
C411 C 0.98416 0.36264 0.68211 0.0
C412 C 0.95925 0.3753 0.66702 0.0
C413 C 0.98098 0.40504 0.64733 0.0
C414 C 0.02695 0.42409 0.64394 0.0
H415 H 0.13226 0.49964 0.71316 0.0
H416 H 0.07774 0.47161 0.69904 0.0
H417 H 0.09946 0.4399 0.71371 0.0
H418 H 0.04892 0.37226 0.69085 0.0
H419 H 0.96849 0.33956 0.6973 0.0
H420 H 0.39619 0.69861 0.32964 0.0
H421 H 0.44983 0.67245 0.33098 0.0
H422 H 0.55018 0.7958 0.29835 0.0
H423 H 0.49658 0.82224 0.29666 0.0
H424 H 0.54799 0.72045 0.27786 0.0
H425 H 0.55354 0.71737 0.38037 0.0
H426 H 0.49786 0.68633 0.36827 0.0
H427 H 0.52976 0.74569 0.36373 0.0
C428 C 0.42957 0.72018 0.32261 0.0
C429 C 0.44211 0.76273 0.31324 0.0
C430 C 0.46031 0.70527 0.32357 0.0
C431 C 0.50428 0.7326 0.31529 0.0
C432 C 0.51653 0.77438 0.30507 0.0
H433 H 0.69473 0.64444 0.35415 0.0
H434 H 0.66737 0.69645 0.34605 0.0
C435 C 0.48579 0.78939 0.30411 0.0
C436 C 0.53722 0.71723 0.3173 0.0
H437 H 0.58311 0.6774 0.35877 0.0
C438 C 0.55619 0.7116 0.29557 0.0
C439 C 0.54875 0.70668 0.34045 0.0
C440 C 0.5318 0.71475 0.36456 0.0
C441 C 0.58424 0.69315 0.29628 0.0
C442 C 0.59305 0.67949 0.31927 0.0
C443 C 0.57621 0.68762 0.34111 0.0
C444 C 0.61502 0.65215 0.32094 0.0
C445 C 0.60355 0.68778 0.27233 0.0
C446 C 0.59533 0.61049 0.30914 0.0
C447 C 0.61078 0.58098 0.31373 0.0
C448 C 0.64619 0.59229 0.33033 0.0
C449 C 0.66767 0.63499 0.3411 0.0
C450 C 0.65191 0.66458 0.33659 0.0
H451 H 0.60732 0.71319 0.25852 0.0
H452 H 0.63657 0.69053 0.27531 0.0
H453 H 0.58054 0.65445 0.26435 0.0
H454 H 0.56629 0.59967 0.29744 0.0
H455 H 0.59355 0.54831 0.30515 0.0
H456 H 0.06182 0.4701 0.02879 0.0
H457 H 0.98201 0.423 0.03554 0.0
H458 H 0.97441 0.33864 0.97468 0.0
H459 H 0.05449 0.38656 0.96726 0.0
H460 H 0.91437 0.36456 0.96983 0.0
H461 H 0.90318 0.30253 0.06528 0.0
H462 H 0.93692 0.36207 0.06404 0.0
H463 H 0.95469 0.32805 0.04793 0.0
C464 C 0.0435 0.44104 0.01709 0.0
C465 C 0.06468 0.43235 0.99734 0.0
C466 C 0.99775 0.41385 0.02114 0.0
C467 C 0.97217 0.37692 0.00582 0.0
C468 C 0.99351 0.36688 0.98681 0.0
H469 H 0.68497 0.20105 0.02907 0.0
H470 H 0.76566 0.2313 0.0266 0.0
C471 C 0.03935 0.39425 0.98264 0.0
C472 C 0.92271 0.35203 0.00799 0.0
H473 H 0.83716 0.30092 0.04951 0.0
C474 C 0.89748 0.3501 0.98718 0.0
C475 C 0.9005 0.33272 0.03054 0.0
C476 C 0.92524 0.33101 0.05312 0.0
C477 C 0.85096 0.33094 0.98851 0.0
C478 C 0.82911 0.31424 0.01146 0.0
C479 C 0.85403 0.31447 0.03203 0.0
C480 C 0.78048 0.29676 0.01442 0.0
C481 C 0.82571 0.32871 0.96526 0.0
C482 C 0.76214 0.32394 0.00918 0.0
C483 C 0.71606 0.30674 0.01044 0.0
C484 C 0.68735 0.26208 0.01726 0.0
C485 C 0.70604 0.23553 0.02366 0.0
C486 C 0.75218 0.25274 0.02224 0.0
H487 H 0.84472 0.33022 0.94833 0.0
H488 H 0.7927 0.29766 0.96464 0.0
H489 H 0.82021 0.35761 0.96484 0.0
H490 H 0.78347 0.35838 0.00379 0.0
H491 H 0.70289 0.32828 0.00566 0.0
H492 H 0.55491 0.59701 0.69587 0.0
H493 H 0.60273 0.56513 0.70219 0.0
H494 H 0.68425 0.64033 0.64019 0.0
H495 H 0.63556 0.6716 0.63319 0.0
H496 H 0.65876 0.55462 0.63577 0.0
H497 H 0.7245 0.60817 0.73047 0.0
H498 H 0.66484 0.58193 0.72998 0.0
H499 H 0.69796 0.63336 0.71342 0.0
C500 C 0.58352 0.60761 0.68383 0.0
C501 C 0.59115 0.63673 0.66389 0.0
C502 C 0.61113 0.58952 0.68763 0.0
C503 C 0.64747 0.60066 0.67187 0.0
C504 C 0.65649 0.63136 0.65266 0.0
H505 H 0.82363 0.48949 0.69388 0.0
H506 H 0.79396 0.54034 0.6914 0.0
C507 C 0.62868 0.64932 0.64873 0.0
C508 C 0.67265 0.57643 0.67379 0.0
H509 H 0.72534 0.54321 0.71483 0.0
C510 C 0.67389 0.5527 0.65298 0.0
C511 C 0.69285 0.5742 0.69613 0.0
C512 C 0.69541 0.60119 0.71867 0.0
C513 C 0.69313 0.52547 0.65415 0.0
C514 C 0.71062 0.52089 0.67695 0.0
C515 C 0.71117 0.54609 0.69748 0.0
C516 C 0.72791 0.48965 0.67981 0.0
C517 C 0.69454 0.50192 0.6309 0.0
C518 C 0.70023 0.44401 0.6749 0.0
C519 C 0.71709 0.41492 0.67615 0.0
C520 C 0.7619 0.43077 0.68267 0.0
C521 C 0.78901 0.47617 0.68871 0.0
C522 C 0.77214 0.50532 0.68729 0.0
H523 H 0.69264 0.51913 0.61398 0.0
H524 H 0.72548 0.49983 0.63004 0.0
H525 H 0.66547 0.46754 0.63073 0.0
H526 H 0.66563 0.43094 0.66978 0.0
H527 H 0.69512 0.38009 0.67167 0.0
H528 H 0.53196 0.33347 0.34297 0.0
H529 H 0.48622 0.25238 0.34295 0.0
H530 H 0.60305 0.24171 0.35701 0.0
H531 H 0.64948 0.32334 0.35705 0.0
H532 H 0.54826 0.18934 0.31606 0.0
H533 H 0.44909 0.16353 0.40162 0.0
H534 H 0.45083 0.20486 0.38085 0.0
H535 H 0.5012 0.21415 0.39571 0.0
C536 C 0.54803 0.31401 0.3463 0.0
C537 C 0.59449 0.33497 0.34995 0.0
C538 C 0.5217 0.2676 0.34643 0.0
C539 C 0.54115 0.24105 0.35022 0.0
C540 C 0.58739 0.26169 0.3542 0.0
H541 H 0.41226 0.95465 0.36744 0.0
H542 H 0.4511 0.03524 0.37401 0.0
C543 C 0.61384 0.30829 0.35427 0.0
C544 C 0.51337 0.19183 0.34849 0.0
H545 H 0.4242 0.10115 0.37461 0.0
C546 C 0.52128 0.16999 0.32892 0.0
C547 C 0.47831 0.16672 0.36535 0.0
C548 C 0.46944 0.18834 0.38722 0.0
C549 C 0.49455 0.12376 0.32549 0.0
C550 C 0.45864 0.09879 0.34193 0.0
C551 C 0.4513 0.12048 0.36181 0.0
C552 C 0.42985 0.04978 0.33933 0.0
C553 C 0.50534 0.10187 0.30449 0.0
C554 C 0.40328 0.03107 0.31817 0.0
C555 C 0.38079 0.98488 0.31437 0.0
C556 C 0.38464 0.95666 0.33167 0.0
C557 C 0.4088 0.9754 0.35365 0.0
C558 C 0.43109 0.0215 0.35745 0.0
H559 H 0.53936 0.12389 0.29696 0.0
H560 H 0.50283 0.07014 0.31066 0.0
H561 H 0.48102 0.09408 0.28925 0.0
H562 H 0.40128 0.05234 0.30415 0.0
H563 H 0.36251 0.97164 0.29725 0.0
H564 H 0.63349 0.34118 0.06724 0.0
H565 H 0.65586 0.38048 0.107 0.0
H566 H 0.52135 0.30077 0.13417 0.0
H567 H 0.49863 0.26104 0.09468 0.0
H568 H 0.62236 0.42904 0.13486 0.0
H569 H 0.59953 0.27777 0.1834 0.0
H570 H 0.60219 0.28277 0.15007 0.0
H571 H 0.5517 0.2699 0.16619 0.0
C572 C 0.60851 0.33229 0.08157 0.0
C573 C 0.56431 0.29769 0.07782 0.0
C574 C 0.62139 0.35483 0.10425 0.0
C575 C 0.59039 0.34303 0.12358 0.0
C576 C 0.5459 0.30986 0.11957 0.0
H577 H 0.60635 0.46821 0.26498 0.0
H578 H 0.59317 0.44481 0.22159 0.0
C579 C 0.53298 0.28732 0.09694 0.0
C580 C 0.60489 0.36384 0.14832 0.0
H581 H 0.61396 0.33968 0.20853 0.0
C582 C 0.62073 0.40965 0.151 0.0
C583 C 0.60332 0.33849 0.16919 0.0
C584 C 0.58867 0.28959 0.16715 0.0
C585 C 0.63411 0.43064 0.17423 0.0
C586 C 0.63106 0.40492 0.19526 0.0
C587 C 0.61607 0.3593 0.1924 0.0
C588 C 0.64268 0.42414 0.22055 0.0
C589 C 0.65182 0.48015 0.17603 0.0
C590 C 0.67494 0.42039 0.23437 0.0
C591 C 0.68228 0.43333 0.25922 0.0
C592 C 0.65732 0.45013 0.27082 0.0
C593 C 0.62625 0.45552 0.25664 0.0
C594 C 0.61883 0.44239 0.23176 0.0
H595 H 0.66351 0.49675 0.15777 0.0
H596 H 0.62476 0.48599 0.18255 0.0
H597 H 0.67982 0.49596 0.18947 0.0
H598 H 0.69366 0.40631 0.22607 0.0
H599 H 0.70663 0.42891 0.26953 0.0
H600 H 0.55337 0.26347 0.92985 0.0
H601 H 0.57303 0.27068 0.88583 0.0
H602 H 0.62045 0.17781 0.89502 0.0
H603 H 0.60016 0.16964 0.93867 0.0
H604 H 0.65617 0.30233 0.86715 0.0
H605 H 0.54702 0.13056 0.83278 0.0
H606 H 0.53816 0.1494 0.86233 0.0
H607 H 0.57889 0.13186 0.85927 0.0
C608 C 0.56735 0.24406 0.92242 0.0
C609 C 0.57525 0.21604 0.93784 0.0
C610 C 0.57856 0.24822 0.89726 0.0
C611 C 0.59759 0.22428 0.88705 0.0
C612 C 0.60476 0.19574 0.90231 0.0
H613 H 0.7524 0.2376 0.76054 0.0
H614 H 0.71106 0.22145 0.79954 0.0
C615 C 0.59345 0.19142 0.92737 0.0
C616 C 0.61359 0.23183 0.86105 0.0
H617 H 0.61063 0.17793 0.80739 0.0
C618 C 0.64564 0.27526 0.85394 0.0
C619 C 0.59987 0.19644 0.84385 0.0
C620 C 0.56375 0.14954 0.84986 0.0
C621 C 0.6657 0.28393 0.83047 0.0
C622 C 0.65312 0.24829 0.81366 0.0
C623 C 0.62028 0.20508 0.82045 0.0
C624 C 0.67521 0.25523 0.78932 0.0
C625 C 0.70144 0.33082 0.82408 0.0
C626 C 0.66791 0.27877 0.77057 0.0
C627 C 0.69129 0.28792 0.74822 0.0
C628 C 0.72249 0.27376 0.7443 0.0
C629 C 0.72872 0.24907 0.76295 0.0
C630 C 0.70511 0.23973 0.78522 0.0
H631 H 0.71177 0.35342 0.8404 0.0
H632 H 0.73126 0.33091 0.81642 0.0
H633 H 0.68866 0.34435 0.80965 0.0
H634 H 0.6447 0.29072 0.7734 0.0
H635 H 0.68571 0.30706 0.73428 0.0
H636 H 0.7567 0.41891 0.39748 0.0
H637 H 0.77245 0.39075 0.43547 0.0
H638 H 0.73666 0.47242 0.47918 0.0
H639 H 0.72026 0.50024 0.44148 0.0
H640 H 0.83167 0.43423 0.47379 0.0
H641 H 0.6576 0.34868 0.50817 0.0
H642 H 0.67198 0.36872 0.47677 0.0
H643 H 0.67817 0.40643 0.50144 0.0
C644 C 0.75233 0.43102 0.41517 0.0
C645 C 0.73688 0.4616 0.41642 0.0
C646 C 0.76129 0.41483 0.43685 0.0
C647 C 0.75482 0.42879 0.46013 0.0
C648 C 0.74078 0.46034 0.46141 0.0
H649 H 0.8551 0.43149 0.60415 0.0
H650 H 0.84391 0.44384 0.56101 0.0
C651 C 0.73167 0.47641 0.43981 0.0
C652 C 0.76295 0.41077 0.48317 0.0
H653 H 0.714 0.3602 0.5377 0.0
C654 C 0.80585 0.41757 0.48766 0.0
C655 C 0.72897 0.38815 0.501 0.0
C656 C 0.68148 0.37711 0.49653 0.0
C657 C 0.81624 0.40433 0.51009 0.0
C658 C 0.78302 0.38452 0.52861 0.0
C659 C 0.73959 0.37576 0.52359 0.0
C660 C 0.79308 0.37541 0.55393 0.0
C661 C 0.86273 0.41193 0.51375 0.0
C662 C 0.768 0.33282 0.56443 0.0
C663 C 0.77396 0.32566 0.5893 0.0
C664 C 0.80491 0.36112 0.60416 0.0
C665 C 0.83098 0.40338 0.5933 0.0
C666 C 0.82491 0.41047 0.56851 0.0
H667 H 0.8787 0.41277 0.49574 0.0
H668 H 0.88357 0.44461 0.52298 0.0
H669 H 0.8625 0.38557 0.52553 0.0
H670 H 0.74306 0.30534 0.55352 0.0
H671 H 0.75337 0.2927 0.59704 0.0
H672 H 0.35012 0.62875 0.93227 0.0
H673 H 0.39109 0.65315 0.89306 0.0
H674 H 0.29751 0.52768 0.85939 0.0
H675 H 0.25639 0.50278 0.8984 0.0
H676 H 0.42691 0.60412 0.86074 0.0
H677 H 0.29763 0.63345 0.81798 0.0
H678 H 0.3041 0.63207 0.85113 0.0
H679 H 0.27784 0.5811 0.8337 0.0
C680 C 0.33848 0.60614 0.91661 0.0
C681 C 0.29989 0.56384 0.91845 0.0
C682 C 0.36197 0.62014 0.89427 0.0
C683 C 0.34701 0.59227 0.87343 0.0
C684 C 0.30932 0.54966 0.87533 0.0
H685 H 0.44437 0.58762 0.72894 0.0
H686 H 0.42336 0.57704 0.77265 0.0
C687 C 0.28598 0.5355 0.89765 0.0
C688 C 0.36952 0.60821 0.84931 0.0
H689 H 0.35419 0.63775 0.79149 0.0
C690 C 0.41132 0.61185 0.84561 0.0
C691 C 0.34915 0.6187 0.82983 0.0
C692 C 0.30483 0.61653 0.83326 0.0
C693 C 0.43265 0.62429 0.82246 0.0
C694 C 0.41139 0.63305 0.80268 0.0
C695 C 0.37033 0.63092 0.80671 0.0
C696 C 0.42965 0.64197 0.77723 0.0
C697 C 0.47755 0.62775 0.81928 0.0
C698 C 0.44031 0.6821 0.76538 0.0
C699 C 0.45231 0.68829 0.74035 0.0
C700 C 0.45317 0.65412 0.72668 0.0
C701 C 0.44388 0.61455 0.73889 0.0
C702 C 0.43218 0.60853 0.76393 0.0
H703 H 0.4944 0.63157 0.83737 0.0
H704 H 0.47294 0.59688 0.81032 0.0
H705 H 0.49961 0.6564 0.80724 0.0
H706 H 0.43826 0.70817 0.77536 0.0
H707 H 0.45925 0.71916 0.73153 0.0
H708 H 0.38477 0.70026 0.59427 0.0
H709 H 0.36125 0.71525 0.55436 0.0
H710 H 0.49855 0.78866 0.53064 0.0
H711 H 0.52234 0.7733 0.57014 0.0
H712 H 0.38315 0.79457 0.52907 0.0
H713 H 0.43885 0.69276 0.4773 0.0
H714 H 0.43365 0.69085 0.51061 0.0
H715 H 0.48215 0.73541 0.49592 0.0
C716 C 0.41 0.71993 0.58063 0.0
C717 C 0.45541 0.73524 0.58529 0.0
C718 C 0.39648 0.72842 0.55786 0.0
C719 C 0.4281 0.75226 0.53942 0.0
C720 C 0.47355 0.76931 0.54444 0.0
H721 H 0.44 0.84809 0.39275 0.0
H722 H 0.45117 0.83594 0.43603 0.0
C723 C 0.48708 0.76066 0.56709 0.0
C724 C 0.41379 0.75833 0.51461 0.0
H725 H 0.42077 0.73916 0.45317 0.0
C726 C 0.39092 0.7821 0.51247 0.0
C727 C 0.42359 0.74155 0.49305 0.0
C728 C 0.44549 0.71332 0.49428 0.0
C729 C 0.37923 0.79109 0.48914 0.0
C730 C 0.39071 0.77583 0.46764 0.0
C731 C 0.41242 0.75107 0.46981 0.0
C732 C 0.38213 0.78648 0.44252 0.0
C733 C 0.35592 0.81787 0.48742 0.0
C734 C 0.33938 0.76297 0.43206 0.0
C735 C 0.3328 0.76958 0.4072 0.0
C736 C 0.36899 0.79976 0.39248 0.0
C737 C 0.4114 0.82446 0.40346 0.0
C738 C 0.41792 0.81766 0.4282 0.0
H739 H 0.35202 0.82992 0.50582 0.0
H740 H 0.37496 0.84699 0.47505 0.0
H741 H 0.32235 0.79699 0.47912 0.0
H742 H 0.31148 0.7385 0.44288 0.0
H743 H 0.2997 0.75013 0.39935 0.0
H744 H 0.27889 0.56377 0.0645 0.0
H745 H 0.28858 0.58552 0.10822 0.0
H746 H 0.17318 0.60184 0.10459 0.0
H747 H 0.1631 0.58015 0.06095 0.0
H748 H 0.3023 0.67065 0.12391 0.0
H749 H 0.15537 0.53024 0.16957 0.0
H750 H 0.17591 0.52483 0.13971 0.0
H751 H 0.14293 0.55144 0.14218 0.0
C752 C 0.25509 0.57122 0.07309 0.0
C753 C 0.22038 0.57052 0.05918 0.0
C754 C 0.26072 0.58366 0.09806 0.0
C755 C 0.23139 0.5949 0.10962 0.0
C756 C 0.19576 0.59262 0.09608 0.0
H757 H 0.26386 0.7659 0.23216 0.0
H758 H 0.24759 0.72552 0.19286 0.0
C759 C 0.19027 0.58051 0.07109 0.0
C760 C 0.24046 0.61326 0.13505 0.0
H761 H 0.19598 0.59713 0.19319 0.0
C762 C 0.27932 0.65438 0.13913 0.0
C763 C 0.2104 0.59182 0.15481 0.0
C764 C 0.16895 0.54694 0.15151 0.0
C765 C 0.28824 0.67536 0.16232 0.0
C766 C 0.25745 0.65468 0.18183 0.0
C767 C 0.21927 0.61292 0.17804 0.0
C768 C 0.2642 0.67678 0.20612 0.0
C769 C 0.33029 0.71975 0.16583 0.0
C770 C 0.27808 0.66203 0.2266 0.0
C771 C 0.28763 0.68511 0.24909 0.0
C772 C 0.283 0.72306 0.25145 0.0
C773 C 0.26768 0.73678 0.23101 0.0
C774 C 0.25846 0.71386 0.20853 0.0
H775 H 0.35419 0.72756 0.15031 0.0
H776 H 0.32156 0.74646 0.16687 0.0
H777 H 0.347 0.72016 0.18346 0.0
H778 H 0.28262 0.63339 0.22498 0.0
H779 H 0.29928 0.67363 0.26447 0.0
loop_
_geom_bond_atom_site_label_1
_geom_bond_atom_site_label_2
_geom_bond_distance
_geom_bond_site_symmetry_2
_ccdc_geom_bond_type
Fe0 O2 1.918 . S
Fe0 O5 1.997 . S
Fe0 O6 2.002 . S
Fe0 O11 1.976 . S
Fe0 O14 1.996 . S
Fe1 O2 1.918 . S
Fe1 O9 1.997 . S
Fe1 O12 1.996 . S
Fe1 O16 1.976 1_554 S
Fe1 O19 2.002 . S
O2 Fe0 1.918 . S
O2 Fe1 1.918 . S
O2 Fe3 1.918 . S
Fe3 O2 1.918 . S
Fe3 O4 2.002 . S
Fe3 O13 1.976 . S
Fe3 O17 1.996 1_554 S
Fe3 O20 1.997 . S
O4 Fe3 2.002 . S
O4 C21 1.295 . S
O5 Fe0 1.997 . S
O5 C21 1.235 . S
O6 Fe0 2.002 . S
O6 C7 1.295 . S
C7 O6 1.295 . S
C7 O9 1.235 . S
C8 O13 1.287 . S
C8 O14 1.255 . S
O9 Fe1 1.997 . S
O9 C7 1.235 . S
C10 O16 1.287 . S
C10 O17 1.255 . S
O11 Fe0 1.976 . S
O11 C18 1.287 . S
O12 Fe1 1.996 . S
O12 C18 1.255 . S
O13 Fe3 1.976 . S
O13 C8 1.287 . S
O14 Fe0 1.996 . S
O14 C8 1.255 . S
C15 O19 1.295 . S
C15 O20 1.235 . S
O16 Fe1 1.976 1_556 S
O16 C10 1.287 . S
O17 Fe3 1.996 1_556 S
O17 C10 1.255 . S
C18 O11 1.287 . S
C18 O12 1.255 . S
O19 Fe1 2.002 . S
O19 C15 1.295 . S
O20 Fe3 1.997 . S
O20 C15 1.235 . S
C21 O4 1.295 . S
C21 O5 1.235 . S
Fe22 O24 1.918 . S
Fe22 O27 1.997 . S
Fe22 O28 2.002 . S
Fe22 O33 1.976 . S
Fe22 O36 1.996 . S
Fe23 O24 1.918 . S
Fe23 O31 1.997 . S
Fe23 O34 1.996 . S
Fe23 O38 1.976 . S
Fe23 O41 2.002 . S
O24 Fe22 1.918 . S
O24 Fe23 1.918 . S
O24 Fe25 1.918 . S
Fe25 O24 1.918 . S
Fe25 O26 2.002 . S
Fe25 O35 1.976 . S
Fe25 O39 1.996 . S
Fe25 O42 1.997 . S
O26 Fe25 2.002 . S
O26 C43 1.295 . S
O27 Fe22 1.997 . S
O27 C43 1.235 . S
O28 Fe22 2.002 . S
O28 C29 1.295 . S
C29 O28 1.295 . S
C29 O31 1.235 . S
C30 O35 1.287 . S
C30 O36 1.255 . S
O31 Fe23 1.997 . S
O31 C29 1.235 . S
C32 O38 1.287 . S
C32 O39 1.255 . S
O33 Fe22 1.976 . S
O33 C40 1.287 . S
O34 Fe23 1.996 . S
O34 C40 1.255 . S
O35 Fe25 1.976 . S
O35 C30 1.287 . S
O36 Fe22 1.996 . S
O36 C30 1.255 . S
C37 O41 1.295 . S
C37 O42 1.235 . S
O38 Fe23 1.976 . S
O38 C32 1.287 . S
O39 Fe25 1.996 . S
O39 C32 1.255 . S
C40 O33 1.287 . S
C40 O34 1.255 . S
O41 Fe23 2.002 . S
O41 C37 1.295 . S
O42 Fe25 1.997 . S
O42 C37 1.235 . S
C43 O26 1.295 . S
C43 O27 1.235 . S
Fe44 O46 1.918 . S
Fe44 O49 1.997 . S
Fe44 O50 2.002 . S
Fe44 O55 1.976 . S
Fe44 O58 1.996 . S
Fe45 O46 1.918 . S
Fe45 O53 1.997 . S
Fe45 O56 1.996 . S
Fe45 O60 1.976 . S
Fe45 O63 2.002 . S
O46 Fe44 1.918 . S
O46 Fe45 1.918 . S
O46 Fe47 1.918 . S
Fe47 O46 1.918 . S
Fe47 O48 2.002 . S
Fe47 O57 1.976 . S
Fe47 O61 1.996 . S
Fe47 O64 1.997 . S
O48 Fe47 2.002 . S
O48 C65 1.295 . S
O49 Fe44 1.997 . S
O49 C65 1.235 . S
O50 Fe44 2.002 . S
O50 C51 1.295 . S
C51 O50 1.295 . S
C51 O53 1.235 . S
C52 O57 1.287 . S
C52 O58 1.255 . S
O53 Fe45 1.997 . S
O53 C51 1.235 . S
C54 O60 1.287 . S
C54 O61 1.255 . S
O55 Fe44 1.976 . S
O55 C62 1.287 . S
O56 Fe45 1.996 . S
O56 C62 1.255 . S
O57 Fe47 1.976 . S
O57 C52 1.287 . S
O58 Fe44 1.996 . S
O58 C52 1.255 . S
C59 O63 1.295 . S
C59 O64 1.235 . S
O60 Fe45 1.976 . S
O60 C54 1.287 . S
O61 Fe47 1.996 . S
O61 C54 1.255 . S
C62 O55 1.287 . S
C62 O56 1.255 . S
O63 Fe45 2.002 . S
O63 C59 1.295 . S
O64 Fe47 1.997 . S
O64 C59 1.235 . S
C65 O48 1.295 . S
C65 O49 1.235 . S
Fe66 O68 1.918 . S
Fe66 O71 1.997 . S
Fe66 O72 2.002 . S
Fe66 O77 1.976 . S
Fe66 O80 1.996 1_556 S
Fe67 O68 1.918 . S
Fe67 O75 1.997 . S
Fe67 O78 1.996 . S
Fe67 O82 1.976 . S
Fe67 O85 2.002 . S
O68 Fe66 1.918 . S
O68 Fe67 1.918 . S
O68 Fe69 1.918 . S
Fe69 O68 1.918 . S
Fe69 O70 2.002 . S
Fe69 O79 1.976 1_556 S
Fe69 O83 1.996 . S
Fe69 O86 1.997 . S
O70 Fe69 2.002 . S
O70 C87 1.295 . S
O71 Fe66 1.997 . S
O71 C87 1.235 . S
O72 Fe66 2.002 . S
O72 C73 1.295 . S
C73 O72 1.295 . S
C73 O75 1.235 . S
C74 O79 1.287 . S
C74 O80 1.255 . S
O75 Fe67 1.997 . S
O75 C73 1.235 . S
C76 O82 1.287 . S
C76 O83 1.255 . S
O77 Fe66 1.976 . S
O77 C84 1.287 . S
O78 Fe67 1.996 . S
O78 C84 1.255 . S
O79 Fe69 1.976 1_554 S
O79 C74 1.287 . S
O80 Fe66 1.996 1_554 S
O80 C74 1.255 . S
C81 O85 1.295 . S
C81 O86 1.235 . S
O82 Fe67 1.976 . S
O82 C76 1.287 . S
O83 Fe69 1.996 . S
O83 C76 1.255 . S
C84 O77 1.287 . S
C84 O78 1.255 . S
O85 Fe67 2.002 . S
O85 C81 1.295 . S
O86 Fe69 1.997 . S
O86 C81 1.235 . S
C87 O70 1.295 . S
C87 O71 1.235 . S
Fe88 O90 1.918 . S
Fe88 O93 1.997 . S
Fe88 O94 2.002 . S
Fe88 O99 1.976 . S
Fe88 O102 1.996 . S
Fe89 O90 1.918 . S
Fe89 O97 1.997 . S
Fe89 O100 1.996 . S
Fe89 O104 1.976 . S
Fe89 O107 2.002 . S
O90 Fe88 1.918 . S
O90 Fe89 1.918 . S
O90 Fe91 1.918 . S
Fe91 O90 1.918 . S
Fe91 O92 2.002 . S
Fe91 O101 1.976 . S
Fe91 O105 1.996 . S
Fe91 O108 1.997 . S
O92 Fe91 2.002 . S
O92 C109 1.295 . S
O93 Fe88 1.997 . S
O93 C109 1.235 . S
O94 Fe88 2.002 . S
O94 C95 1.295 . S
C95 O94 1.295 . S
C95 O97 1.235 . S
C96 O101 1.287 . S
C96 O102 1.255 . S
O97 Fe89 1.997 . S
O97 C95 1.235 . S
C98 O104 1.287 . S
C98 O105 1.255 . S
O99 Fe88 1.976 . S
O99 C106 1.287 . S
O100 Fe89 1.996 . S
O100 C106 1.255 . S
O101 Fe91 1.976 . S
O101 C96 1.287 . S
O102 Fe88 1.996 . S
O102 C96 1.255 . S
C103 O107 1.295 . S
C103 O108 1.235 . S
O104 Fe89 1.976 . S
O104 C98 1.287 . S
O105 Fe91 1.996 . S
O105 C98 1.255 . S
C106 O99 1.287 . S
C106 O100 1.255 . S
O107 Fe89 2.002 . S
O107 C103 1.295 . S
O108 Fe91 1.997 . S
O108 C103 1.235 . S
C109 O92 1.295 . S
C109 O93 1.235 . S
Fe110 O112 1.918 . S
Fe110 O115 1.997 . S
Fe110 O116 2.002 . S
Fe110 O121 1.976 . S
Fe110 O124 1.996 . S
Fe111 O112 1.918 . S
Fe111 O119 1.997 . S
Fe111 O122 1.996 . S
Fe111 O126 1.976 . S
Fe111 O129 2.002 . S
O112 Fe110 1.918 . S
O112 Fe111 1.918 . S
O112 Fe113 1.918 . S
Fe113 O112 1.918 . S
Fe113 O114 2.002 . S
Fe113 O123 1.976 . S
Fe113 O127 1.996 . S
Fe113 O130 1.997 . S
O114 Fe113 2.002 . S
O114 C131 1.295 . S
O115 Fe110 1.997 . S
O115 C131 1.235 . S
O116 Fe110 2.002 . S
O116 C117 1.295 . S
C117 O116 1.295 . S
C117 O119 1.235 . S
C118 O123 1.287 . S
C118 O124 1.255 . S
O119 Fe111 1.997 . S
O119 C117 1.235 . S
C120 O126 1.287 . S
C120 O127 1.255 . S
O121 Fe110 1.976 . S
O121 C128 1.287 . S
O122 Fe111 1.996 . S
O122 C128 1.255 . S
O123 Fe113 1.976 . S
O123 C118 1.287 . S
O124 Fe110 1.996 . S
O124 C118 1.255 . S
C125 O129 1.295 . S
C125 O130 1.235 . S
O126 Fe111 1.976 . S
O126 C120 1.287 . S
O127 Fe113 1.996 . S
O127 C120 1.255 . S
C128 O121 1.287 . S
C128 O122 1.255 . S
O129 Fe111 2.002 . S
O129 C125 1.295 . S
O130 Fe113 1.997 . S
O130 C125 1.235 . S
C131 O114 1.295 . S
C131 O115 1.235 . S
H132 C140 0.929 . S
H133 C142 0.930 . S
H134 C144 0.930 . S
H135 C147 0.929 . S
H136 C150 0.930 . S
H137 C152 0.960 . S
H138 C152 0.960 . S
H139 C152 0.960 . S
C140 H132 0.929 . S
C140 C141 1.377 . S
C140 C142 1.384 . S
C141 C140 1.377 . S
C141 C147 1.390 1_556 S
C142 H133 0.930 . S
C142 C140 1.384 . S
C142 C143 1.372 . S
C143 C142 1.372 . S
C143 C144 1.400 1_556 S
C143 C148 1.490 . S
C144 H134 0.930 . S
C144 C143 1.400 1_554 S
C144 C147 1.386 . S
H145 C161 0.930 . S
H146 C162 0.931 . S
C147 H135 0.929 . S
C147 C141 1.390 1_554 S
C147 C144 1.386 . S
C148 C143 1.490 . S
C148 C150 1.395 . S
C148 C151 1.403 1_556 S
H149 C155 0.930 . S
C150 H136 0.930 . S
C150 C148 1.395 . S
C150 C153 1.403 . S
C151 C148 1.403 1_554 S
C151 C152 1.524 . S
C151 C155 1.400 . S
C152 H137 0.960 . S
C152 H138 0.960 . S
C152 H139 0.960 . S
C152 C151 1.524 . S
C153 C150 1.403 . S
C153 C154 1.392 . S
C153 C157 1.495 . S
C154 C153 1.392 . S
C154 C155 1.385 1_556 S
C154 C156 1.478 1_556 S
C155 H149 0.930 . S
C155 C151 1.400 . S
C155 C154 1.385 1_554 S
C156 C154 1.478 1_554 S
C156 C158 1.381 1_554 S
C156 C162 1.383 . S
C157 C153 1.495 . S
C157 H163 0.959 . S
C157 H164 0.961 . S
C157 H165 0.960 . S
C158 C156 1.381 1_556 S
C158 C159 1.394 . S
C158 H166 0.930 . S
C159 C158 1.394 . S
C159 C160 1.383 1_556 S
C159 H167 0.929 . S
C160 C159 1.383 1_554 S
C160 C161 1.377 . S
C161 H145 0.930 . S
C161 C160 1.377 . S
C161 C162 1.379 . S
C162 H146 0.931 . S
C162 C156 1.383 . S
C162 C161 1.379 . S
H163 C157 0.959 . S
H164 C157 0.961 . S
H165 C157 0.960 . S
H166 C158 0.930 . S
H167 C159 0.929 . S
H168 C176 0.929 . S
H169 C178 0.930 . S
H170 C180 0.930 . S
H171 C183 0.929 . S
H172 C186 0.930 . S
H173 C188 0.960 . S
H174 C188 0.960 . S
H175 C188 0.960 . S
C176 H168 0.929 . S
C176 C177 1.377 . S
C176 C178 1.384 . S
C177 C176 1.377 . S
C177 C183 1.390 . S
C178 H169 0.930 . S
C178 C176 1.384 . S
C178 C179 1.372 . S
C179 C178 1.372 . S
C179 C180 1.400 . S
C179 C184 1.490 . S
C180 H170 0.930 . S
C180 C179 1.400 . S
C180 C183 1.386 . S
H181 C197 0.930 . S
H182 C198 0.931 . S
C183 H171 0.929 . S
C183 C177 1.390 . S
C183 C180 1.386 . S
C184 C179 1.490 . S
C184 C186 1.395 . S
C184 C187 1.403 . S
H185 C191 0.930 . S
C186 H172 0.930 . S
C186 C184 1.395 . S
C186 C189 1.403 1_545 S
C187 C184 1.403 . S
C187 C188 1.524 . S
C187 C191 1.400 1_545 S
C188 H173 0.960 . S
C188 H174 0.960 . S
C188 H175 0.960 . S
C188 C187 1.524 . S
C189 C186 1.403 1_565 S
C189 C190 1.392 . S
C189 C193 1.495 . S
C190 C189 1.392 . S
C190 C191 1.385 . S
C190 C192 1.478 . S
C191 H185 0.930 . S
C191 C187 1.400 1_565 S
C191 C190 1.385 . S
C192 C190 1.478 . S
C192 C194 1.381 . S
C192 C198 1.383 . S
C193 C189 1.495 . S
C193 H199 0.959 . S
C193 H200 0.961 . S
C193 H201 0.960 . S
C194 C192 1.381 . S
C194 C195 1.394 . S
C194 H202 0.930 . S
C195 C194 1.394 . S
C195 C196 1.383 . S
C195 H203 0.929 . S
C196 C195 1.383 . S
C196 C197 1.377 . S
C197 H181 0.930 . S
C197 C196 1.377 . S
C197 C198 1.379 . S
C198 H182 0.931 . S
C198 C192 1.383 . S
C198 C197 1.379 . S
H199 C193 0.959 . S
H200 C193 0.961 . S
H201 C193 0.960 . S
H202 C194 0.930 . S
H203 C195 0.929 . S
H204 C212 0.929 . S
H205 C214 0.930 . S
H206 C216 0.930 . S
H207 C219 0.929 . S
H208 C222 0.930 . S
H209 C224 0.960 . S
H210 C224 0.960 . S
H211 C224 0.960 . S
C212 H204 0.929 . S
C212 C213 1.377 . S
C212 C214 1.384 . S
C213 C212 1.377 . S
C213 C219 1.390 . S
C214 H205 0.930 . S
C214 C212 1.384 . S
C214 C215 1.372 . S
C215 C214 1.372 . S
C215 C216 1.400 . S
C215 C220 1.490 . S
C216 H206 0.930 . S
C216 C215 1.400 . S
C216 C219 1.386 . S
H217 C233 0.930 . S
H218 C234 0.931 . S
C219 H207 0.929 . S
C219 C213 1.390 . S
C219 C216 1.386 . S
C220 C215 1.490 . S
C220 C222 1.395 . S
C220 C223 1.403 . S
H221 C227 0.930 . S
C222 H208 0.930 . S
C222 C220 1.395 . S
C222 C225 1.403 1_455 S
C223 C220 1.403 . S
C223 C224 1.524 . S
C223 C227 1.400 1_455 S
C224 H209 0.960 . S
C224 H210 0.960 . S
C224 H211 0.960 . S
C224 C223 1.524 . S
C225 C222 1.403 1_655 S
C225 C226 1.392 . S
C225 C229 1.495 . S
C226 C225 1.392 . S
C226 C227 1.385 . S
C226 C228 1.478 . S
C227 H221 0.930 . S
C227 C223 1.400 1_655 S
C227 C226 1.385 . S
C228 C226 1.478 . S
C228 C230 1.381 . S
C228 C234 1.383 . S
C229 C225 1.495 . S
C229 H235 0.959 . S
C229 H236 0.961 . S
C229 H237 0.960 . S
C230 C228 1.381 . S
C230 C231 1.394 . S
C230 H238 0.930 . S
C231 C230 1.394 . S
C231 C232 1.383 . S
C231 H239 0.929 . S
C232 C231 1.383 . S
C232 C233 1.377 . S
C233 H217 0.930 . S
C233 C232 1.377 . S
C233 C234 1.379 . S
C234 H218 0.931 . S
C234 C228 1.383 . S
C234 C233 1.379 . S
H235 C229 0.959 . S
H236 C229 0.961 . S
H237 C229 0.960 . S
H238 C230 0.930 . S
H239 C231 0.929 . S
H240 C248 0.929 . S
H241 C250 0.930 . S
H242 C252 0.930 . S
H243 C255 0.929 . S
H244 C258 0.930 . S
H245 C260 0.960 . S
H246 C260 0.960 . S
H247 C260 0.960 . S
C248 H240 0.929 . S
C248 C249 1.377 . S
C248 C250 1.384 . S
C249 C248 1.377 . S
C249 C255 1.390 . S
C250 H241 0.930 . S
C250 C248 1.384 . S
C250 C251 1.372 . S
C251 C250 1.372 . S
C251 C252 1.400 . S
C251 C256 1.490 . S
C252 H242 0.930 . S
C252 C251 1.400 . S
C252 C255 1.386 . S
H253 C269 0.930 . S
H254 C270 0.931 . S
C255 H243 0.929 . S
C255 C249 1.390 . S
C255 C252 1.386 . S
C256 C251 1.490 . S
C256 C258 1.395 1_565 S
C256 C259 1.403 . S
H257 C263 0.930 . S
C258 H244 0.930 . S
C258 C256 1.395 1_545 S
C258 C261 1.403 . S
C259 C256 1.403 . S
C259 C260 1.524 . S
C259 C263 1.400 . S
C260 H245 0.960 . S
C260 H246 0.960 . S
C260 H247 0.960 . S
C260 C259 1.524 . S
C261 C258 1.403 . S
C261 C262 1.392 . S
C261 C265 1.495 . S
C262 C261 1.392 . S
C262 C263 1.385 1_545 S
C262 C264 1.478 . S
C263 H257 0.930 . S
C263 C259 1.400 . S
C263 C262 1.385 1_565 S
C264 C262 1.478 . S
C264 C266 1.381 . S
C264 C270 1.383 . S
C265 C261 1.495 . S
C265 H271 0.959 . S
C265 H272 0.961 . S
C265 H273 0.960 . S
C266 C264 1.381 . S
C266 C267 1.394 . S
C266 H274 0.930 . S
C267 C266 1.394 . S
C267 C268 1.383 . S
C267 H275 0.929 . S
C268 C267 1.383 . S
C268 C269 1.377 . S
C269 H253 0.930 . S
C269 C268 1.377 . S
C269 C270 1.379 . S
C270 H254 0.931 . S
C270 C264 1.383 . S
C270 C269 1.379 . S
H271 C265 0.959 . S
H272 C265 0.961 . S
H273 C265 0.960 . S
H274 C266 0.930 . S
H275 C267 0.929 . S
H276 C284 0.929 . S
H277 C286 0.930 . S
H278 C288 0.930 . S
H279 C291 0.929 . S
H280 C294 0.930 . S
H281 C296 0.960 . S
H282 C296 0.960 . S
H283 C296 0.960 . S
C284 H276 0.929 . S
C284 C285 1.377 . S
C284 C286 1.384 . S
C285 C284 1.377 . S
C285 C291 1.390 . S
C286 H277 0.930 . S
C286 C284 1.384 . S
C286 C287 1.372 . S
C287 C286 1.372 . S
C287 C288 1.400 . S
C287 C292 1.490 . S
C288 H278 0.930 . S
C288 C287 1.400 . S
C288 C291 1.386 . S
H289 C305 0.930 . S
H290 C306 0.931 . S
C291 H279 0.929 . S
C291 C285 1.390 . S
C291 C288 1.386 . S
C292 C287 1.490 . S
C292 C294 1.395 1_655 S
C292 C295 1.403 . S
H293 C299 0.930 . S
C294 H280 0.930 . S
C294 C292 1.395 1_455 S
C294 C297 1.403 . S
C295 C292 1.403 . S
C295 C296 1.524 . S
C295 C299 1.400 . S
C296 H281 0.960 . S
C296 H282 0.960 . S
C296 H283 0.960 . S
C296 C295 1.524 . S
C297 C294 1.403 . S
C297 C298 1.392 . S
C297 C301 1.495 . S
C298 C297 1.392 . S
C298 C299 1.385 1_455 S
C298 C300 1.478 . S
C299 H293 0.930 . S
C299 C295 1.400 . S
C299 C298 1.385 1_655 S
C300 C298 1.478 . S
C300 C302 1.381 . S
C300 C306 1.383 . S
C301 C297 1.495 . S
C301 H307 0.959 . S
C301 H308 0.961 . S
C301 H309 0.960 . S
C302 C300 1.381 . S
C302 C303 1.394 . S
C302 H310 0.930 . S
C303 C302 1.394 . S
C303 C304 1.383 . S
C303 H311 0.929 . S
C304 C303 1.383 . S
C304 C305 1.377 . S
C305 H289 0.930 . S
C305 C304 1.377 . S
C305 C306 1.379 . S
C306 H290 0.931 . S
C306 C300 1.383 . S
C306 C305 1.379 . S
H307 C301 0.959 . S
H308 C301 0.961 . S
H309 C301 0.960 . S
H310 C302 0.930 . S
H311 C303 0.929 . S
H312 C320 0.929 . S
H313 C322 0.930 . S
H314 C324 0.930 . S
H315 C327 0.929 . S
H316 C330 0.930 . S
H317 C332 0.960 . S
H318 C332 0.960 . S
H319 C332 0.960 . S
C320 H312 0.929 . S
C320 C321 1.377 . S
C320 C322 1.384 . S
C321 C320 1.377 . S
C321 C327 1.390 . S
C322 H313 0.930 . S
C322 C320 1.384 . S
C322 C323 1.372 . S
C323 C322 1.372 . S
C323 C324 1.400 . S
C323 C328 1.490 . S
C324 H314 0.930 . S
C324 C323 1.400 . S
C324 C327 1.386 . S
H325 C341 0.930 . S
H326 C342 0.931 . S
C327 H315 0.929 . S
C327 C321 1.390 . S
C327 C324 1.386 . S
C328 C323 1.490 . S
C328 C330 1.395 . S
C328 C331 1.403 . S
H329 C335 0.930 . S
C330 H316 0.930 . S
C330 C328 1.395 . S
C330 C333 1.403 . S
C331 C328 1.403 . S
C331 C332 1.524 . S
C331 C335 1.400 . S
C332 H317 0.960 . S
C332 H318 0.960 . S
C332 H319 0.960 . S
C332 C331 1.524 . S
C333 C330 1.403 . S
C333 C334 1.392 . S
C333 C337 1.495 . S
C334 C333 1.392 . S
C334 C335 1.385 . S
C334 C336 1.478 . S
C335 H329 0.930 . S
C335 C331 1.400 . S
C335 C334 1.385 . S
C336 C334 1.478 . S
C336 C338 1.381 . S
C336 C342 1.383 . S
C337 C333 1.495 . S
C337 H343 0.959 . S
C337 H344 0.961 . S
C337 H345 0.960 . S
C338 C336 1.381 . S
C338 C339 1.394 . S
C338 H346 0.930 . S
C339 C338 1.394 . S
C339 C340 1.383 . S
C339 H347 0.929 . S
C340 C339 1.383 . S
C340 C341 1.377 . S
C341 H325 0.930 . S
C341 C340 1.377 . S
C341 C342 1.379 . S
C342 H326 0.931 . S
C342 C336 1.383 . S
C342 C341 1.379 . S
H343 C337 0.959 . S
H344 C337 0.961 . S
H345 C337 0.960 . S
H346 C338 0.930 . S
H347 C339 0.929 . S
H348 C356 0.929 . S
H349 C358 0.930 . S
H350 C360 0.930 . S
H351 C363 0.929 1_556 S
H352 C366 0.930 . S
H353 C368 0.960 . S
H354 C368 0.960 . S
H355 C368 0.960 . S
C356 H348 0.929 . S
C356 C357 1.377 . S
C356 C358 1.384 1_545 S
C357 C356 1.377 . S
C357 C363 1.389 . S
C358 H349 0.930 . S
C358 C356 1.384 1_565 S
C358 C359 1.372 1_554 S
C359 C358 1.372 1_556 S
C359 C360 1.400 . S
C359 C364 1.490 . S
C360 H350 0.930 . S
C360 C359 1.400 . S
C360 C363 1.387 1_566 S
H361 C377 0.930 . S
H362 C378 0.931 . S
C363 H351 0.929 1_554 S
C363 C357 1.389 . S
C363 C360 1.387 1_544 S
C364 C359 1.490 . S
C364 C366 1.395 1_556 S
C364 C367 1.403 . S
H365 C371 0.930 . S
C366 H352 0.930 . S
C366 C364 1.395 1_554 S
C366 C369 1.403 . S
C367 C364 1.403 . S
C367 C368 1.524 . S
C367 C371 1.400 . S
C368 H353 0.960 . S
C368 H354 0.960 . S
C368 H355 0.960 . S
C368 C367 1.524 . S
C369 C366 1.403 . S
C369 C370 1.392 1_554 S
C369 C373 1.495 . S
C370 C369 1.392 1_556 S
C370 C371 1.385 . S
C370 C372 1.478 . S
C371 H365 0.930 . S
C371 C367 1.400 . S
C371 C370 1.385 . S
C372 C370 1.478 . S
C372 C374 1.381 . S
C372 C378 1.383 . S
C373 C369 1.495 . S
C373 H379 0.959 . S
C373 H380 0.961 . S
C373 H381 0.960 . S
C374 C372 1.381 . S
C374 C375 1.394 . S
C374 H382 0.930 . S
C375 C374 1.394 . S
C375 C376 1.383 . S
C375 H383 0.929 . S
C376 C375 1.383 . S
C376 C377 1.377 . S
C377 H361 0.930 . S
C377 C376 1.377 . S
C377 C378 1.379 . S
C378 H362 0.931 . S
C378 C372 1.383 . S
C378 C377 1.379 . S
H379 C373 0.959 . S
H380 C373 0.961 . S
H381 C373 0.960 . S
H382 C374 0.930 . S
H383 C375 0.929 . S
H384 C392 0.929 . S
H385 C394 0.930 . S
H386 C396 0.930 . S
H387 C399 0.929 . S
H388 C402 0.930 . S
H389 C404 0.960 . S
H390 C404 0.960 . S
H391 C404 0.960 . S
C392 H384 0.929 . S
C392 C393 1.377 . S
C392 C394 1.384 . S
C393 C392 1.377 . S
C393 C399 1.390 . S
C394 H385 0.930 . S
C394 C392 1.384 . S
C394 C395 1.372 . S
C395 C394 1.372 . S
C395 C396 1.400 . S
C395 C400 1.490 . S
C396 H386 0.930 . S
C396 C395 1.400 . S
C396 C399 1.386 . S
H397 C413 0.930 . S
H398 C414 0.931 . S
C399 H387 0.929 . S
C399 C393 1.390 . S
C399 C396 1.386 . S
C400 C395 1.490 . S
C400 C402 1.395 . S
C400 C403 1.403 . S
H401 C407 0.930 . S
C402 H388 0.930 . S
C402 C400 1.395 . S
C402 C405 1.403 . S
C403 C400 1.403 . S
C403 C404 1.524 . S
C403 C407 1.400 . S
C404 H389 0.960 . S
C404 H390 0.960 . S
C404 H391 0.960 . S
C404 C403 1.524 . S
C405 C402 1.403 . S
C405 C406 1.392 . S
C405 C409 1.495 . S
C406 C405 1.392 . S
C406 C407 1.385 . S
C406 C408 1.478 . S
C407 H401 0.930 . S
C407 C403 1.400 . S
C407 C406 1.385 . S
C408 C406 1.478 . S
C408 C410 1.381 . S
C408 C414 1.383 . S
C409 C405 1.495 . S
C409 H415 0.959 . S
C409 H416 0.961 . S
C409 H417 0.960 . S
C410 C408 1.381 . S
C410 C411 1.394 1_455 S
C410 H418 0.930 . S
C411 C410 1.394 1_655 S
C411 C412 1.383 . S
C411 H419 0.929 . S
C412 C411 1.383 . S
C412 C413 1.377 . S
C413 H397 0.930 . S
C413 C412 1.377 . S
C413 C414 1.379 1_655 S
C414 H398 0.931 . S
C414 C408 1.383 . S
C414 C413 1.379 1_455 S
H415 C409 0.959 . S
H416 C409 0.961 . S
H417 C409 0.960 . S
H418 C410 0.930 . S
H419 C411 0.929 . S
H420 C428 0.929 . S
H421 C430 0.930 . S
H422 C432 0.930 . S
H423 C435 0.929 . S
H424 C438 0.930 . S
H425 C440 0.960 . S
H426 C440 0.960 . S
H427 C440 0.960 . S
C428 H420 0.929 . S
C428 C429 1.377 . S
C428 C430 1.384 . S
C429 C428 1.377 . S
C429 C435 1.390 . S
C430 H421 0.930 . S
C430 C428 1.384 . S
C430 C431 1.372 . S
C431 C430 1.372 . S
C431 C432 1.400 . S
C431 C436 1.490 . S
C432 H422 0.930 . S
C432 C431 1.400 . S
C432 C435 1.386 . S
H433 C449 0.930 . S
H434 C450 0.931 . S
C435 H423 0.929 . S
C435 C429 1.390 . S
C435 C432 1.386 . S
C436 C431 1.490 . S
C436 C438 1.395 . S
C436 C439 1.403 . S
H437 C443 0.930 . S
C438 H424 0.930 . S
C438 C436 1.395 . S
C438 C441 1.403 . S
C439 C436 1.403 . S
C439 C440 1.524 . S
C439 C443 1.400 . S
C440 H425 0.960 . S
C440 H426 0.960 . S
C440 H427 0.960 . S
C440 C439 1.524 . S
C441 C438 1.403 . S
C441 C442 1.392 . S
C441 C445 1.495 . S
C442 C441 1.392 . S
C442 C443 1.385 . S
C442 C444 1.478 . S
C443 H437 0.930 . S
C443 C439 1.400 . S
C443 C442 1.385 . S
C444 C442 1.478 . S
C444 C446 1.381 . S
C444 C450 1.383 . S
C445 C441 1.495 . S
C445 H451 0.959 . S
C445 H452 0.961 . S
C445 H453 0.960 . S
C446 C444 1.381 . S
C446 C447 1.394 . S
C446 H454 0.930 . S
C447 C446 1.394 . S
C447 C448 1.383 . S
C447 H455 0.929 . S
C448 C447 1.383 . S
C448 C449 1.377 . S
C449 H433 0.930 . S
C449 C448 1.377 . S
C449 C450 1.379 . S
C450 H434 0.931 . S
C450 C444 1.383 . S
C450 C449 1.379 . S
H451 C445 0.959 . S
H452 C445 0.961 . S
H453 C445 0.960 . S
H454 C446 0.930 . S
H455 C447 0.929 . S
H456 C464 0.929 . S
H457 C466 0.930 . S
H458 C468 0.930 . S
H459 C471 0.929 . S
H460 C474 0.930 . S
H461 C476 0.960 . S
H462 C476 0.960 . S
H463 C476 0.960 1_556 S
C464 H456 0.929 . S
C464 C465 1.377 1_554 S
C464 C466 1.384 1_455 S
C465 C464 1.377 1_556 S
C465 C471 1.390 . S
C466 H457 0.930 . S
C466 C464 1.384 1_655 S
C466 C467 1.372 . S
C467 C466 1.372 . S
C467 C468 1.400 1_554 S
C467 C472 1.490 . S
C468 H458 0.930 . S
C468 C467 1.400 1_556 S
C468 C471 1.386 1_655 S
H469 C485 0.930 1_556 S
H470 C486 0.931 1_556 S
C471 H459 0.929 . S
C471 C465 1.390 . S
C471 C468 1.386 1_455 S
C472 C467 1.490 . S
C472 C474 1.395 . S
C472 C475 1.403 . S
H473 C479 0.930 . S
C474 H460 0.930 . S
C474 C472 1.395 . S
C474 C477 1.403 . S
C475 C472 1.403 . S
C475 C476 1.524 . S
C475 C479 1.400 . S
C476 H461 0.960 . S
C476 H462 0.960 . S
C476 H463 0.960 1_554 S
C476 C475 1.524 . S
C477 C474 1.403 . S
C477 C478 1.392 . S
C477 C481 1.495 . S
C478 C477 1.392 . S
C478 C479 1.385 . S
C478 C480 1.478 . S
C479 H473 0.930 . S
C479 C475 1.400 . S
C479 C478 1.385 . S
C480 C478 1.478 . S
C480 C482 1.381 . S
C480 C486 1.383 . S
C481 C477 1.495 . S
C481 H487 0.959 . S
C481 H488 0.961 . S
C481 H489 0.960 . S
C482 C480 1.381 . S
C482 C483 1.394 . S
C482 H490 0.930 . S
C483 C482 1.394 . S
C483 C484 1.383 . S
C483 H491 0.929 . S
C484 C483 1.383 . S
C484 C485 1.377 . S
C485 H469 0.930 1_554 S
C485 C484 1.377 . S
C485 C486 1.379 . S
C486 H470 0.931 1_554 S
C486 C480 1.383 . S
C486 C485 1.379 . S
H487 C481 0.959 . S
H488 C481 0.961 . S
H489 C481 0.960 . S
H490 C482 0.930 . S
H491 C483 0.929 . S
H492 C500 0.929 . S
H493 C502 0.930 . S
H494 C504 0.930 . S
H495 C507 0.929 . S
H496 C510 0.930 . S
H497 C512 0.960 . S
H498 C512 0.960 . S
H499 C512 0.960 . S
C500 H492 0.929 . S
C500 C501 1.377 . S
C500 C502 1.384 . S
C501 C500 1.377 . S
C501 C507 1.390 . S
C502 H493 0.930 . S
C502 C500 1.384 . S
C502 C503 1.372 . S
C503 C502 1.372 . S
C503 C504 1.400 . S
C503 C508 1.490 . S
C504 H494 0.930 . S
C504 C503 1.400 . S
C504 C507 1.386 . S
H505 C521 0.930 . S
H506 C522 0.931 . S
C507 H495 0.929 . S
C507 C501 1.390 . S
C507 C504 1.386 . S
C508 C503 1.490 . S
C508 C510 1.395 . S
C508 C511 1.403 . S
H509 C515 0.930 . S
C510 H496 0.930 . S
C510 C508 1.395 . S
C510 C513 1.403 . S
C511 C508 1.403 . S
C511 C512 1.524 . S
C511 C515 1.400 . S
C512 H497 0.960 . S
C512 H498 0.960 . S
C512 H499 0.960 . S
C512 C511 1.524 . S
C513 C510 1.403 . S
C513 C514 1.392 . S
C513 C517 1.495 . S
C514 C513 1.392 . S
C514 C515 1.385 . S
C514 C516 1.478 . S
C515 H509 0.930 . S
C515 C511 1.400 . S
C515 C514 1.385 . S
C516 C514 1.478 . S
C516 C518 1.381 . S
C516 C522 1.383 . S
C517 C513 1.495 . S
C517 H523 0.959 . S
C517 H524 0.961 . S
C517 H525 0.960 . S
C518 C516 1.381 . S
C518 C519 1.394 . S
C518 H526 0.930 . S
C519 C518 1.394 . S
C519 C520 1.383 . S
C519 H527 0.929 . S
C520 C519 1.383 . S
C520 C521 1.377 . S
C521 H505 0.930 . S
C521 C520 1.377 . S
C521 C522 1.379 . S
C522 H506 0.931 . S
C522 C516 1.383 . S
C522 C521 1.379 . S
H523 C517 0.959 . S
H524 C517 0.961 . S
H525 C517 0.960 . S
H526 C518 0.930 . S
H527 C519 0.929 . S
H528 C536 0.929 . S
H529 C538 0.930 . S
H530 C540 0.930 . S
H531 C543 0.929 . S
H532 C546 0.930 . S
H533 C548 0.960 . S
H534 C548 0.960 . S
H535 C548 0.960 . S
C536 H528 0.929 . S
C536 C537 1.377 . S
C536 C538 1.384 . S
C537 C536 1.377 . S
C537 C543 1.390 . S
C538 H529 0.930 . S
C538 C536 1.384 . S
C538 C539 1.372 . S
C539 C538 1.372 . S
C539 C540 1.400 . S
C539 C544 1.490 . S
C540 H530 0.930 . S
C540 C539 1.400 . S
C540 C543 1.386 . S
H541 C557 0.930 . S
H542 C558 0.931 . S
C543 H531 0.929 . S
C543 C537 1.390 . S
C543 C540 1.386 . S
C544 C539 1.490 . S
C544 C546 1.395 . S
C544 C547 1.403 . S
H545 C551 0.930 . S
C546 H532 0.930 . S
C546 C544 1.395 . S
C546 C549 1.403 . S
C547 C544 1.403 . S
C547 C548 1.524 . S
C547 C551 1.400 . S
C548 H533 0.960 . S
C548 H534 0.960 . S
C548 H535 0.960 . S
C548 C547 1.524 . S
C549 C546 1.403 . S
C549 C550 1.392 . S
C549 C553 1.495 . S
C550 C549 1.392 . S
C550 C551 1.385 . S
C550 C552 1.478 . S
C551 H545 0.930 . S
C551 C547 1.400 . S
C551 C550 1.385 . S
C552 C550 1.478 . S
C552 C554 1.381 . S
C552 C558 1.383 . S
C553 C549 1.495 . S
C553 H559 0.959 . S
C553 H560 0.961 . S
C553 H561 0.960 . S
C554 C552 1.381 . S
C554 C555 1.394 1_545 S
C554 H562 0.930 . S
C555 C554 1.394 1_565 S
C555 C556 1.383 . S
C555 H563 0.929 . S
C556 C555 1.383 . S
C556 C557 1.377 . S
C557 H541 0.930 . S
C557 C556 1.377 . S
C557 C558 1.379 1_565 S
C558 H542 0.931 . S
C558 C552 1.383 . S
C558 C557 1.379 1_545 S
H559 C553 0.959 . S
H560 C553 0.961 . S
H561 C553 0.960 . S
H562 C554 0.930 . S
H563 C555 0.929 . S
H564 C572 0.929 . S
H565 C574 0.930 . S
H566 C576 0.930 . S
H567 C579 0.929 . S
H568 C582 0.930 . S
H569 C584 0.960 . S
H570 C584 0.960 . S
H571 C584 0.960 . S
C572 H564 0.929 . S
C572 C573 1.377 . S
C572 C574 1.384 . S
C573 C572 1.377 . S
C573 C579 1.390 . S
C574 H565 0.930 . S
C574 C572 1.384 . S
C574 C575 1.372 . S
C575 C574 1.372 . S
C575 C576 1.400 . S
C575 C580 1.490 . S
C576 H566 0.930 . S
C576 C575 1.400 . S
C576 C579 1.386 . S
H577 C593 0.930 . S
H578 C594 0.931 . S
C579 H567 0.929 . S
C579 C573 1.390 . S
C579 C576 1.386 . S
C580 C575 1.490 . S
C580 C582 1.395 . S
C580 C583 1.403 . S
H581 C587 0.930 . S
C582 H568 0.930 . S
C582 C580 1.395 . S
C582 C585 1.403 . S
C583 C580 1.403 . S
C583 C584 1.524 . S
C583 C587 1.400 . S
C584 H569 0.960 . S
C584 H570 0.960 . S
C584 H571 0.960 . S
C584 C583 1.524 . S
C585 C582 1.403 . S
C585 C586 1.392 . S
C585 C589 1.495 . S
C586 C585 1.392 . S
C586 C587 1.385 . S
C586 C588 1.478 . S
C587 H581 0.930 . S
C587 C583 1.400 . S
C587 C586 1.385 . S
C588 C586 1.478 . S
C588 C590 1.381 . S
C588 C594 1.383 . S
C589 C585 1.495 . S
C589 H595 0.959 . S
C589 H596 0.961 . S
C589 H597 0.960 . S
C590 C588 1.381 . S
C590 C591 1.394 . S
C590 H598 0.930 . S
C591 C590 1.394 . S
C591 C592 1.383 . S
C591 H599 0.929 . S
C592 C591 1.383 . S
C592 C593 1.377 . S
C593 H577 0.930 . S
C593 C592 1.377 . S
C593 C594 1.379 . S
C594 H578 0.931 . S
C594 C588 1.383 . S
C594 C593 1.379 . S
H595 C589 0.959 . S
H596 C589 0.961 . S
H597 C589 0.960 . S
H598 C590 0.930 . S
H599 C591 0.929 . S
H600 C608 0.929 . S
H601 C610 0.930 . S
H602 C612 0.930 . S
H603 C615 0.929 . S
H604 C618 0.930 . S
H605 C620 0.960 . S
H606 C620 0.960 . S
H607 C620 0.960 . S
C608 H600 0.929 . S
C608 C609 1.377 . S
C608 C610 1.384 . S
C609 C608 1.377 . S
C609 C615 1.390 . S
C610 H601 0.930 . S
C610 C608 1.384 . S
C610 C611 1.372 . S
C611 C610 1.372 . S
C611 C612 1.400 . S
C611 C616 1.490 . S
C612 H602 0.930 . S
C612 C611 1.400 . S
C612 C615 1.386 . S
H613 C629 0.930 . S
H614 C630 0.931 . S
C615 H603 0.929 . S
C615 C609 1.390 . S
C615 C612 1.386 . S
C616 C611 1.490 . S
C616 C618 1.395 . S
C616 C619 1.403 . S
H617 C623 0.930 . S
C618 H604 0.930 . S
C618 C616 1.395 . S
C618 C621 1.403 . S
C619 C616 1.403 . S
C619 C620 1.524 . S
C619 C623 1.400 . S
C620 H605 0.960 . S
C620 H606 0.960 . S
C620 H607 0.960 . S
C620 C619 1.524 . S
C621 C618 1.403 . S
C621 C622 1.392 . S
C621 C625 1.495 . S
C622 C621 1.392 . S
C622 C623 1.385 . S
C622 C624 1.478 . S
C623 H617 0.930 . S
C623 C619 1.400 . S
C623 C622 1.385 . S
C624 C622 1.478 . S
C624 C626 1.381 . S
C624 C630 1.383 . S
C625 C621 1.495 . S
C625 H631 0.959 . S
C625 H632 0.961 . S
C625 H633 0.960 . S
C626 C624 1.381 . S
C626 C627 1.394 . S
C626 H634 0.930 . S
C627 C626 1.394 . S
C627 C628 1.383 . S
C627 H635 0.929 . S
C628 C627 1.383 . S
C628 C629 1.377 . S
C629 H613 0.930 . S
C629 C628 1.377 . S
C629 C630 1.379 . S
C630 H614 0.931 . S
C630 C624 1.383 . S
C630 C629 1.379 . S
H631 C625 0.959 . S
H632 C625 0.961 . S
H633 C625 0.960 . S
H634 C626 0.930 . S
H635 C627 0.929 . S
H636 C644 0.929 . S
H637 C646 0.930 . S
H638 C648 0.930 . S
H639 C651 0.929 . S
H640 C654 0.930 . S
H641 C656 0.960 . S
H642 C656 0.960 . S
H643 C656 0.960 . S
C644 H636 0.929 . S
C644 C645 1.377 . S
C644 C646 1.384 . S
C645 C644 1.377 . S
C645 C651 1.390 . S
C646 H637 0.930 . S
C646 C644 1.384 . S
C646 C647 1.372 . S
C647 C646 1.372 . S
C647 C648 1.400 . S
C647 C652 1.490 . S
C648 H638 0.930 . S
C648 C647 1.400 . S
C648 C651 1.386 . S
H649 C665 0.930 . S
H650 C666 0.931 . S
C651 H639 0.929 . S
C651 C645 1.390 . S
C651 C648 1.386 . S
C652 C647 1.490 . S
C652 C654 1.395 . S
C652 C655 1.403 . S
H653 C659 0.930 . S
C654 H640 0.930 . S
C654 C652 1.395 . S
C654 C657 1.403 . S
C655 C652 1.403 . S
C655 C656 1.524 . S
C655 C659 1.400 . S
C656 H641 0.960 . S
C656 H642 0.960 . S
C656 H643 0.960 . S
C656 C655 1.524 . S
C657 C654 1.403 . S
C657 C658 1.392 . S
C657 C661 1.495 . S
C658 C657 1.392 . S
C658 C659 1.385 . S
C658 C660 1.478 . S
C659 H653 0.930 . S
C659 C655 1.400 . S
C659 C658 1.385 . S
C660 C658 1.478 . S
C660 C662 1.381 . S
C660 C666 1.383 . S
C661 C657 1.495 . S
C661 H667 0.959 . S
C661 H668 0.961 . S
C661 H669 0.960 . S
C662 C660 1.381 . S
C662 C663 1.394 . S
C662 H670 0.930 . S
C663 C662 1.394 . S
C663 C664 1.383 . S
C663 H671 0.929 . S
C664 C663 1.383 . S
C664 C665 1.377 . S
C665 H649 0.930 . S
C665 C664 1.377 . S
C665 C666 1.379 . S
C666 H650 0.931 . S
C666 C660 1.383 . S
C666 C665 1.379 . S
H667 C661 0.959 . S
H668 C661 0.961 . S
H669 C661 0.960 . S
H670 C662 0.930 . S
H671 C663 0.929 . S
H672 C680 0.929 . S
H673 C682 0.930 . S
H674 C684 0.930 . S
H675 C687 0.929 . S
H676 C690 0.930 . S
H677 C692 0.960 . S
H678 C692 0.960 . S
H679 C692 0.960 . S
C680 H672 0.929 . S
C680 C681 1.377 . S
C680 C682 1.384 . S
C681 C680 1.377 . S
C681 C687 1.390 . S
C682 H673 0.930 . S
C682 C680 1.384 . S
C682 C683 1.372 . S
C683 C682 1.372 . S
C683 C684 1.400 . S
C683 C688 1.490 . S
C684 H674 0.930 . S
C684 C683 1.400 . S
C684 C687 1.386 . S
H685 C701 0.930 . S
H686 C702 0.931 . S
C687 H675 0.929 . S
C687 C681 1.390 . S
C687 C684 1.386 . S
C688 C683 1.490 . S
C688 C690 1.395 . S
C688 C691 1.403 . S
H689 C695 0.930 . S
C690 H676 0.930 . S
C690 C688 1.395 . S
C690 C693 1.403 . S
C691 C688 1.403 . S
C691 C692 1.524 . S
C691 C695 1.400 . S
C692 H677 0.960 . S
C692 H678 0.960 . S
C692 H679 0.960 . S
C692 C691 1.524 . S
C693 C690 1.403 . S
C693 C694 1.392 . S
C693 C697 1.495 . S
C694 C693 1.392 . S
C694 C695 1.385 . S
C694 C696 1.478 . S
C695 H689 0.930 . S
C695 C691 1.400 . S
C695 C694 1.385 . S
C696 C694 1.478 . S
C696 C698 1.381 . S
C696 C702 1.383 . S
C697 C693 1.495 . S
C697 H703 0.959 . S
C697 H704 0.961 . S
C697 H705 0.960 . S
C698 C696 1.381 . S
C698 C699 1.394 . S
C698 H706 0.930 . S
C699 C698 1.394 . S
C699 C700 1.383 . S
C699 H707 0.929 . S
C700 C699 1.383 . S
C700 C701 1.377 . S
C701 H685 0.930 . S
C701 C700 1.377 . S
C701 C702 1.379 . S
C702 H686 0.931 . S
C702 C696 1.383 . S
C702 C701 1.379 . S
H703 C697 0.959 . S
H704 C697 0.961 . S
H705 C697 0.960 . S
H706 C698 0.930 . S
H707 C699 0.929 . S
H708 C716 0.929 . S
H709 C718 0.930 . S
H710 C720 0.930 . S
H711 C723 0.929 . S
H712 C726 0.930 . S
H713 C728 0.960 . S
H714 C728 0.960 . S
H715 C728 0.960 . S
C716 H708 0.929 . S
C716 C717 1.377 . S
C716 C718 1.384 . S
C717 C716 1.377 . S
C717 C723 1.390 . S
C718 H709 0.930 . S
C718 C716 1.384 . S
C718 C719 1.372 . S
C719 C718 1.372 . S
C719 C720 1.400 . S
C719 C724 1.490 . S
C720 H710 0.930 . S
C720 C719 1.400 . S
C720 C723 1.386 . S
H721 C737 0.930 . S
H722 C738 0.931 . S
C723 H711 0.929 . S
C723 C717 1.390 . S
C723 C720 1.386 . S
C724 C719 1.490 . S
C724 C726 1.395 . S
C724 C727 1.403 . S
H725 C731 0.930 . S
C726 H712 0.930 . S
C726 C724 1.395 . S
C726 C729 1.403 . S
C727 C724 1.403 . S
C727 C728 1.524 . S
C727 C731 1.400 . S
C728 H713 0.960 . S
C728 H714 0.960 . S
C728 H715 0.960 . S
C728 C727 1.524 . S
C729 C726 1.403 . S
C729 C730 1.392 . S
C729 C733 1.495 . S
C730 C729 1.392 . S
C730 C731 1.385 . S
C730 C732 1.478 . S
C731 H725 0.930 . S
C731 C727 1.400 . S
C731 C730 1.385 . S
C732 C730 1.478 . S
C732 C734 1.381 . S
C732 C738 1.383 . S
C733 C729 1.495 . S
C733 H739 0.959 . S
C733 H740 0.961 . S
C733 H741 0.960 . S
C734 C732 1.381 . S
C734 C735 1.394 . S
C734 H742 0.930 . S
C735 C734 1.394 . S
C735 C736 1.383 . S
C735 H743 0.929 . S
C736 C735 1.383 . S
C736 C737 1.377 . S
C737 H721 0.930 . S
C737 C736 1.377 . S
C737 C738 1.379 . S
C738 H722 0.931 . S
C738 C732 1.383 . S
C738 C737 1.379 . S
H739 C733 0.959 . S
H740 C733 0.961 . S
H741 C733 0.960 . S
H742 C734 0.930 . S
H743 C735 0.929 . S
H744 C752 0.929 . S
H745 C754 0.930 . S
H746 C756 0.930 . S
H747 C759 0.929 . S
H748 C762 0.930 . S
H749 C764 0.960 . S
H750 C764 0.960 . S
H751 C764 0.960 . S
C752 H744 0.929 . S
C752 C753 1.377 . S
C752 C754 1.384 . S
C753 C752 1.377 . S
C753 C759 1.390 . S
C754 H745 0.930 . S
C754 C752 1.384 . S
C754 C755 1.372 . S
C755 C754 1.372 . S
C755 C756 1.400 . S
C755 C760 1.490 . S
C756 H746 0.930 . S
C756 C755 1.400 . S
C756 C759 1.386 . S
H757 C773 0.930 . S
H758 C774 0.931 . S
C759 H747 0.929 . S
C759 C753 1.390 . S
C759 C756 1.386 . S
C760 C755 1.490 . S
C760 C762 1.395 . S
C760 C763 1.403 . S
H761 C767 0.930 . S
C762 H748 0.930 . S
C762 C760 1.395 . S
C762 C765 1.403 . S
C763 C760 1.403 . S
C763 C764 1.524 . S
C763 C767 1.400 . S
C764 H749 0.960 . S
C764 H750 0.960 . S
C764 H751 0.960 . S
C764 C763 1.524 . S
C765 C762 1.403 . S
C765 C766 1.392 . S
C765 C769 1.495 . S
C766 C765 1.392 . S
C766 C767 1.385 . S
C766 C768 1.478 . S
C767 H761 0.930 . S
C767 C763 1.400 . S
C767 C766 1.385 . S
C768 C766 1.478 . S
C768 C770 1.381 . S
C768 C774 1.383 . S
C769 C765 1.495 . S
C769 H775 0.959 . S
C769 H776 0.961 . S
C769 H777 0.960 . S
C770 C768 1.381 . S
C770 C771 1.394 . S
C770 H778 0.930 . S
C771 C770 1.394 . S
C771 C772 1.383 . S
C771 H779 0.929 . S
C772 C771 1.383 . S
C772 C773 1.377 . S
C773 H757 0.930 . S
C773 C772 1.377 . S
C773 C774 1.379 . S
C774 H758 0.931 . S
C774 C768 1.383 . S
C774 C773 1.379 . S
H775 C769 0.959 . S
H776 C769 0.961 . S
H777 C769 0.960 . S
H778 C770 0.930 . S
H779 C771 0.929 . S
C141 C84 1.885 . S
C160 C8 1.884 . S
C177 C32 1.885 . S
C196 C106 1.887 . S
C213 C128 1.887 . S
C232 C52 1.891 . S
C249 C125 0.647 . S
C268 C7 0.641 . S
C285 C43 0.645 . S
C304 C81 0.653 . S
C321 C51 0.658 . S
C340 C103 0.603 . S
C357 C18 1.320 . S
C376 C87 1.294 . S
C393 C109 1.328 . S
C412 C30 1.328 . S
C429 C131 1.318 . S
C448 C62 1.299 . S
C465 C76 1.327 . S
C484 C15 1.319 . S
C501 C98 1.327 . S
C520 C29 1.320 . S
C537 C59 1.326 . S
C556 C120 1.306 . S
C573 C21 1.202 . S
C592 C54 1.207 . S
C609 C10 1.199 . S
C628 C37 1.198 . S
C645 C65 1.203 . S
C664 C40 1.199 . S
C681 C73 1.203 . S
C700 C96 1.201 . S
C717 C95 1.201 . S
C736 C118 1.206 . S
C753 C74 1.198 . S
C772 C117 1.194 . S
