# Generated by pormake.
# Topology wjz, (5)-cn, num edge types: 1
# Building blocks:
#     Node 0, Type 0, BuildingBlock: XOMCOT_clean_sbu_1, # of connection points: 5
#     Node 1, Type 0, BuildingBlock: XOMCOT_clean_sbu_1, # of connection points: 5
#     Node 2, Type 0, BuildingBlock: XOMCOT_clean_sbu_1, # of connection points: 5
#     Node 3, Type 0, BuildingBlock: XOMCOT_clean_sbu_1, # of connection points: 5
#     Node 4, Type 0, BuildingBlock: XOMCOT_clean_sbu_1, # of connection points: 5
#     Node 5, Type 0, BuildingBlock: XOMCOT_clean_sbu_1, # of connection points: 5
#     Node 6, Type 0, BuildingBlock: XOMCOT_clean_sbu_1, # of connection points: 5
#     Node 7, Type 0, BuildingBlock: XOMCOT_clean_sbu_1, # of connection points: 5
#     Node 8, Type 0, BuildingBlock: XOMCOT_clean_sbu_1, # of connection points: 5
#     Node 9, Type 0, BuildingBlock: XOMCOT_clean_sbu_1, # of connection points: 5
#     Node 10, Type 0, BuildingBlock: XOMCOT_clean_sbu_1, # of connection points: 5
#     Node 11, Type 0, BuildingBlock: XOMCOT_clean_sbu_1, # of connection points: 5
#     Edge 12, Type (0, 0), None
#     Edge 13, Type (0, 0), None
#     Edge 14, Type (0, 0), None
#     Edge 15, Type (0, 0), None
#     Edge 16, Type (0, 0), None
#     Edge 17, Type (0, 0), None
#     Edge 18, Type (0, 0), None
#     Edge 19, Type (0, 0), None
#     Edge 20, Type (0, 0), None
#     Edge 21, Type (0, 0), None
#     Edge 22, Type (0, 0), None
#     Edge 23, Type (0, 0), None
#     Edge 24, Type (0, 0), None
#     Edge 25, Type (0, 0), None
#     Edge 26, Type (0, 0), None
#     Edge 27, Type (0, 0), None
#     Edge 28, Type (0, 0), None
#     Edge 29, Type (0, 0), None
#     Edge 30, Type (0, 0), None
#     Edge 31, Type (0, 0), None
#     Edge 32, Type (0, 0), None
#     Edge 33, Type (0, 0), None
#     Edge 34, Type (0, 0), None
#     Edge 35, Type (0, 0), None
#     Edge 36, Type (0, 0), None
#     Edge 37, Type (0, 0), None
#     Edge 38, Type (0, 0), None
#     Edge 39, Type (0, 0), None
#     Edge 40, Type (0, 0), None
#     Edge 41, Type (0, 0), None
# Relax obj value: 0.196
# Max RMSD: 0.207
# Mean RMSD: 0.207
data_MOF--net-wjz--node1-XOMCOT_clean_sbu_1--edge1-none
_symmetry_space_group_name_H-M    P1
_symmetry_Int_Tables_number       1
_symmetry_cell_setting            triclinic
loop_
_symmetry_equiv_pos_as_xyz
'x, y, z'
_cell_length_a     36.664631
_cell_length_b     36.652364
_cell_length_c     9.1034643
_cell_angle_alpha  89.985695
_cell_angle_beta   90.01253
_cell_angle_gamma 120.00691
loop_
_atom_site_label
_atom_site_type_symbol
_atom_site_fract_x
_atom_site_fract_y
_atom_site_fract_z
_atom_type_partial_charge
C0 C 0.29045 0.43455 0.8771 0.0
C1 C 0.29391 0.43864 0.72665 0.0
N2 N 0.30481 0.47856 0.69312 0.0
N3 N 0.30028 0.47208 0.93753 0.0
C4 C 0.30628 0.49737 0.82117 0.0
H5 H 0.28472 0.40683 0.9374 0.0
Co6 Co 0.31863 0.49079 0.12997 0.0
C7 C 0.38217 0.58304 0.99165 0.0
O8 O 0.38122 0.61577 0.0451 0.0
N9 N 0.33569 0.50856 0.31931 0.0
C10 C 0.33776 0.5405 0.52867 0.0
C11 C 0.34622 0.54612 0.38019 0.0
C12 C 0.32181 0.48089 0.4316 0.0
N13 N 0.32197 0.49932 0.55895 0.0
O14 O 0.27488 0.50453 0.16101 0.0
H15 H 0.35445 0.57445 0.31896 0.0
H16 H 0.30714 0.44722 0.41743 0.0
O17 O 0.35714 0.54664 0.046 0.0
C18 C 0.24652 0.47293 0.23218 0.0
O19 O 0.24726 0.4375 0.22894 0.0
N20 N 0.35808 0.47309 0.118 0.0
C21 C 0.40459 0.43336 0.17495 0.0
C22 C 0.42483 0.47566 0.12785 0.0
C23 C 0.4008 0.4953 0.10102 0.0
C24 C 0.33845 0.43229 0.16332 0.0
C25 C 0.36085 0.41202 0.19295 0.0
H26 H 0.41653 0.52829 0.07235 0.0
H27 H 0.30493 0.41578 0.1835 0.0
H28 H 0.31474 0.53 0.82962 0.0
H29 H 0.29191 0.41516 0.65002 0.0
H30 H 0.34022 0.56419 0.60521 0.0
H31 H 0.45866 0.49334 0.11314 0.0
H32 H 0.34382 0.37996 0.23362 0.0
C33 C 0.85044 0.29317 0.0434 0.0
C34 C 0.84984 0.29666 0.89295 0.0
N35 N 0.82097 0.30775 0.8594 0.0
N36 N 0.82286 0.30316 0.10379 0.0
C37 C 0.8037 0.30932 0.98743 0.0
H38 H 0.87234 0.28733 0.10377 0.0
Co39 Co 0.82259 0.32153 0.29618 0.0
C40 C 0.79412 0.38538 0.1593 0.0
O41 O 0.76062 0.38436 0.21475 0.0
N42 N 0.82197 0.33864 0.48549 0.0
C43 C 0.79222 0.3409 0.69487 0.0
C44 C 0.7951 0.34935 0.54638 0.0
C45 C 0.83564 0.32465 0.5978 0.0
N46 N 0.81746 0.32494 0.72517 0.0
O47 O 0.76493 0.27803 0.32696 0.0
H48 H 0.77508 0.35771 0.48518 0.0
H49 H 0.85449 0.30983 0.58366 0.0
O50 O 0.80577 0.36039 0.21191 0.0
C51 C 0.76792 0.24951 0.39808 0.0
O52 O 0.804 0.25008 0.39518 0.0
N53 N 0.87988 0.36073 0.28432 0.0
C54 C 0.96617 0.40705 0.34119 0.0
C55 C 0.94426 0.42736 0.29321 0.0
C56 C 0.90059 0.40344 0.2664 0.0
C57 C 0.90091 0.341 0.33002 0.0
C58 C 0.94359 0.36329 0.35964 0.0
H59 H 0.88349 0.41927 0.23694 0.0
H60 H 0.88376 0.30748 0.35049 0.0
H61 H 0.77967 0.31796 0.99588 0.0
H62 H 0.87126 0.29456 0.81633 0.0
H63 H 0.77108 0.34349 0.77142 0.0
H64 H 0.96054 0.46118 0.27789 0.0
H65 H 0.95847 0.34619 0.40084 0.0
C66 C 0.55199 0.85343 0.20906 0.0
C67 C 0.5479 0.85279 0.0586 0.0
N68 N 0.50796 0.82384 0.02513 0.0
N69 N 0.51445 0.8258 0.26951 0.0
C70 C 0.48913 0.80656 0.15321 0.0
H71 H 0.57972 0.87538 0.26934 0.0
Co72 Co 0.49577 0.82542 0.46191 0.0
C73 C 0.40348 0.79694 0.32488 0.0
O74 O 0.37093 0.76354 0.38061 0.0
N75 N 0.47804 0.82472 0.65123 0.0
C76 C 0.44605 0.79494 0.86066 0.0
C77 C 0.44046 0.79779 0.71216 0.0
C78 C 0.5057 0.83843 0.76349 0.0
N79 N 0.48724 0.82024 0.89089 0.0
O80 O 0.48168 0.76777 0.49245 0.0
H81 H 0.41209 0.77776 0.651 0.0
H82 H 0.53937 0.85734 0.74931 0.0
O83 O 0.44007 0.80853 0.37772 0.0
C84 C 0.51317 0.77075 0.56358 0.0
O85 O 0.54868 0.80686 0.56094 0.0
N86 N 0.5138 0.88271 0.45033 0.0
C87 C 0.55362 0.96895 0.50808 0.0
C88 C 0.51138 0.94699 0.46049 0.0
C89 C 0.4917 0.90333 0.43321 0.0
C90 C 0.55458 0.90379 0.49579 0.0
C91 C 0.5749 0.94646 0.5258 0.0
H92 H 0.45875 0.88618 0.40409 0.0
H93 H 0.57102 0.8867 0.51585 0.0
H94 H 0.45648 0.78247 0.16173 0.0
H95 H 0.5714 0.87423 0.98192 0.0
H96 H 0.42233 0.7738 0.93726 0.0
H97 H 0.49377 0.96321 0.44578 0.0
H98 H 0.60692 0.96141 0.56666 0.0
C99 C 0.69283 0.55458 0.37635 0.0
C100 C 0.68939 0.5505 0.22591 0.0
N101 N 0.67844 0.51056 0.19245 0.0
N102 N 0.68292 0.51703 0.43683 0.0
C103 C 0.6769 0.49173 0.32054 0.0
H104 H 0.6986 0.58231 0.43661 0.0
Co105 Co 0.66463 0.49835 0.62928 0.0
C106 C 0.60095 0.40609 0.4916 0.0
O107 O 0.60174 0.37337 0.54598 0.0
N108 N 0.64761 0.48061 0.81862 0.0
C109 C 0.64544 0.44863 0.02805 0.0
C110 C 0.63699 0.44303 0.87956 0.0
C111 C 0.66154 0.50828 0.93085 0.0
N112 N 0.66131 0.48983 0.05825 0.0
O113 O 0.70827 0.48445 0.66008 0.0
H114 H 0.62869 0.41467 0.81841 0.0
H115 H 0.67627 0.54196 0.91663 0.0
O116 O 0.62601 0.44254 0.54549 0.0
C117 C 0.73669 0.51604 0.73109 0.0
O118 O 0.73603 0.55151 0.72776 0.0
N119 N 0.62526 0.51618 0.61751 0.0
C120 C 0.57882 0.55596 0.67513 0.0
C121 C 0.55854 0.51366 0.62801 0.0
C122 C 0.58253 0.494 0.60082 0.0
C123 C 0.64494 0.55699 0.66274 0.0
C124 C 0.62258 0.57729 0.69268 0.0
H125 H 0.56675 0.46101 0.57215 0.0
H126 H 0.67847 0.57347 0.6827 0.0
H127 H 0.66838 0.45909 0.32906 0.0
H128 H 0.69145 0.574 0.14921 0.0
H129 H 0.64289 0.42492 0.10467 0.0
H130 H 0.52469 0.496 0.61357 0.0
H131 H 0.63966 0.60934 0.73328 0.0
C132 C 0.13277 0.69617 0.54257 0.0
C133 C 0.13344 0.69274 0.39211 0.0
N134 N 0.16225 0.68156 0.35873 0.0
N135 N 0.16024 0.68605 0.60313 0.0
C136 C 0.17941 0.67986 0.48689 0.0
H137 H 0.1109 0.70207 0.60279 0.0
Co138 Co 0.16051 0.66768 0.79555 0.0
C139 C 0.18874 0.60353 0.66015 0.0
O140 O 0.22172 0.60417 0.71878 0.0
N141 N 0.16115 0.65057 0.98492 0.0
C142 C 0.19107 0.6485 0.19421 0.0
C143 C 0.18811 0.63995 0.0458 0.0
C144 C 0.1475 0.66457 0.0972 0.0
N145 N 0.16578 0.66439 0.22451 0.0
O146 O 0.21825 0.71099 0.82588 0.0
H147 H 0.20813 0.63161 0.98464 0.0
H148 H 0.12858 0.67933 0.08302 0.0
O149 O 0.17688 0.6285 0.71113 0.0
C150 C 0.21535 0.73957 0.89691 0.0
O151 O 0.17929 0.73905 0.89418 0.0
N152 N 0.10317 0.62868 0.78408 0.0
C153 C 0.01696 0.58246 0.84186 0.0
C154 C 0.0388 0.56209 0.79403 0.0
C155 C 0.08242 0.58596 0.76668 0.0
C156 C 0.0822 0.6485 0.82952 0.0
C157 C 0.03953 0.62624 0.85953 0.0
H158 H 0.09946 0.57007 0.73726 0.0
H159 H 0.09937 0.68204 0.84958 0.0
H160 H 0.20334 0.67109 0.49554 0.0
H161 H 0.11212 0.69498 0.31534 0.0
H162 H 0.21229 0.646 0.27068 0.0
H163 H 0.02249 0.52825 0.77919 0.0
H164 H 0.02466 0.64338 0.90041 0.0
C165 C 0.43137 0.13563 0.70989 0.0
C166 C 0.43545 0.13626 0.55945 0.0
N167 N 0.47538 0.16523 0.52596 0.0
N168 N 0.46892 0.16328 0.77032 0.0
C169 C 0.49422 0.18252 0.65402 0.0
H170 H 0.40365 0.11368 0.77021 0.0
Co171 Co 0.48758 0.16367 0.96274 0.0
C172 C 0.57989 0.19223 0.82558 0.0
O173 O 0.6125 0.22572 0.88057 0.0
N174 N 0.5053 0.16439 0.15209 0.0
C175 C 0.53729 0.19414 0.36153 0.0
C176 C 0.54288 0.19131 0.21304 0.0
C177 C 0.47764 0.15066 0.26432 0.0
N178 N 0.4961 0.16884 0.39173 0.0
O179 O 0.50153 0.22128 0.99327 0.0
H180 H 0.57125 0.21134 0.1519 0.0
H181 H 0.44397 0.13175 0.25012 0.0
O182 O 0.54336 0.18072 0.87885 0.0
C183 C 0.47001 0.21828 0.06423 0.0
O184 O 0.43453 0.18214 0.06168 0.0
N185 N 0.46968 0.10641 0.95113 0.0
C186 C 0.42988 0.02013 1.00806 0.0
C187 C 0.47213 0.04215 0.96064 0.0
C188 C 0.4918 0.08583 0.93377 0.0
C189 C 0.4289 0.08528 0.99654 0.0
C190 C 0.40859 0.04259 0.02615 0.0
H191 H 0.52475 0.10302 0.90471 0.0
H192 H 0.41244 0.10235 1.01675 0.0
H193 H 0.52686 0.20663 0.66252 0.0
H194 H 0.41195 0.11482 0.48278 0.0
H195 H 0.56101 0.21526 0.43816 0.0
H196 H 0.48976 0.02595 0.9457 0.0
H197 H 0.37656 0.02759 0.0669 0.0
C198 C 0.55231 0.69189 0.9974 0.0
C199 C 0.54815 0.68885 0.14802 0.0
N200 N 0.50851 0.67908 0.18173 0.0
N201 N 0.51516 0.68314 0.93699 0.0
C202 C 0.48999 0.67785 0.05312 0.0
H203 H 0.57936 0.69591 0.93652 0.0
Co204 Co 0.49632 0.66408 0.74563 0.0
C205 C 0.40831 0.5886 0.85876 0.0
O206 O 0.40204 0.55576 0.78129 0.0
N207 N 0.47816 0.64643 0.5553 0.0
C208 C 0.44676 0.64785 0.34814 0.0
C209 C 0.44106 0.63823 0.49606 0.0
C210 C 0.50556 0.66024 0.44174 0.0
N211 N 0.48749 0.66188 0.31582 0.0
O212 O 0.48144 0.70713 0.71385 0.0
H213 H 0.41343 0.6316 0.55908 0.0
H214 H 0.53913 0.67426 0.45375 0.0
O215 O 0.44099 0.62461 0.83566 0.0
C216 C 0.51307 0.73576 0.64331 0.0
O217 O 0.54856 0.73517 0.64654 0.0
N218 N 0.51599 0.62565 0.76001 0.0
C219 C 0.55588 0.5791 0.70459 0.0
C220 C 0.51755 0.56103 0.78188 0.0
C221 C 0.49825 0.5852 0.81042 0.0
C222 C 0.55468 0.64424 0.69611 0.0
C223 C 0.57451 0.62152 0.66361 0.0
H224 H 0.46985 0.57143 0.87413 0.0
H225 H 0.56996 0.67713 0.66635 0.0
H226 H 0.45756 0.66978 0.0437 0.0
H227 H 0.57126 0.69001 0.22459 0.0
H228 H 0.42382 0.64816 0.27481 0.0
H229 H 0.50307 0.52895 0.82188 0.0
H230 H 0.60424 0.63729 0.60543 0.0
C231 C 0.8544 0.55547 0.16575 0.0
C232 C 0.85323 0.55132 0.31638 0.0
N233 N 0.82345 0.51162 0.35006 0.0
N234 N 0.82612 0.51827 0.1053 0.0
C235 C 0.80627 0.49305 0.22141 0.0
H236 H 0.87737 0.5826 0.10493 0.0
Co237 Co 0.8264 0.49947 0.91389 0.0
C238 C 0.81424 0.41156 0.02606 0.0
O239 O 0.8406 0.40537 0.94708 0.0
N240 N 0.82592 0.48131 0.7236 0.0
C241 C 0.79293 0.44989 0.51667 0.0
C242 C 0.79694 0.4442 0.66452 0.0
C243 C 0.83948 0.5087 0.60998 0.0
N244 N 0.81966 0.49062 0.4842 0.0
O245 O 0.76844 0.48436 0.88224 0.0
H246 H 0.77594 0.41657 0.72767 0.0
H247 H 0.85909 0.54228 0.62195 0.0
O248 O 0.81076 0.44419 1.00391 0.0
C249 C 0.77146 0.51602 0.8118 0.0
O250 O 0.80749 0.55158 0.81557 0.0
N251 N 0.88452 0.51938 0.92808 0.0
C252 C 0.97092 0.55954 0.87212 0.0
C253 C 0.95075 0.52109 0.94881 0.0
C254 C 0.9073 0.50166 0.97768 0.0
C255 C 0.90452 0.55817 0.86469 0.0
C256 C 0.94707 0.57817 0.83212 0.0
H257 H 0.89276 0.47315 0.04084 0.0
H258 H 0.88683 0.57337 0.83519 0.0
H259 H 0.78201 0.46056 0.21195 0.0
H260 H 0.87508 0.5745 0.393 0.0
H261 H 0.76959 0.42696 0.44354 0.0
H262 H 0.96841 0.50659 0.98801 0.0
H263 H 0.96098 0.60799 0.7744 0.0
C264 C 0.29422 0.85767 0.33066 0.0
C265 C 0.29716 0.85644 0.48129 0.0
N266 N 0.30681 0.82647 0.51495 0.0
N267 N 0.3029 0.82923 0.27017 0.0
C268 C 0.30807 0.80923 0.38627 0.0
H269 H 0.29028 0.88078 0.26988 0.0
Co270 Co 0.32195 0.82939 0.07878 0.0
C271 C 0.3975 0.81703 0.19139 0.0
O272 O 0.4301 0.84337 0.11246 0.0
N273 N 0.33959 0.82878 0.88843 0.0
C274 C 0.33752 0.79549 0.6817 0.0
C275 C 0.3473 0.79951 0.82949 0.0
C276 C 0.32597 0.84254 0.77473 0.0
N277 N 0.32393 0.82253 0.64908 0.0
O278 O 0.27891 0.77142 0.04739 0.0
H279 H 0.35365 0.77833 0.89276 0.0
H280 H 0.31234 0.86244 0.78656 0.0
O281 O 0.36143 0.81361 0.16907 0.0
C282 C 0.25037 0.77446 0.97642 0.0
O283 O 0.25105 0.8106 0.97906 0.0
N284 N 0.36035 0.88753 0.09278 0.0
C285 C 0.40677 0.97402 0.03743 0.0
C286 C 0.42494 0.95375 0.11411 0.0
C287 C 0.40083 0.91026 0.14268 0.0
C288 C 0.34168 0.90763 0.02928 0.0
C289 C 0.36432 0.95021 0.99693 0.0
H290 H 0.41469 0.89565 0.20601 0.0
H291 H 0.30879 0.88999 0.99969 0.0
H292 H 0.31608 0.78482 0.37676 0.0
H293 H 0.296 0.87838 0.55793 0.0
H294 H 0.33675 0.77194 0.60877 0.0
H295 H 0.45705 0.97136 0.15368 0.0
H296 H 0.34849 0.96419 0.93919 0.0
C297 C 0.43088 0.29745 0.49743 0.0
C298 C 0.43505 0.30043 0.64805 0.0
N299 N 0.47463 0.31 0.68175 0.0
N300 N 0.46797 0.30604 0.43701 0.0
C301 C 0.49312 0.31119 0.55313 0.0
H302 H 0.40387 0.29357 0.43658 0.0
Co303 Co 0.48686 0.32504 0.24563 0.0
C304 C 0.57489 0.40044 0.35845 0.0
O305 O 0.58121 0.43323 0.28046 0.0
N306 N 0.50508 0.34262 0.05529 0.0
C307 C 0.53637 0.34089 0.84831 0.0
C308 C 0.5421 0.35056 0.99618 0.0
C309 C 0.47769 0.32893 0.94167 0.0
N310 N 0.49569 0.32711 0.81587 0.0
O311 O 0.50165 0.28191 0.2143 0.0
H312 H 0.56968 0.35703 0.05931 0.0
H313 H 0.44414 0.31511 0.95359 0.0
O314 O 0.54218 0.36444 0.33567 0.0
C315 C 0.47007 0.25329 0.14356 0.0
O316 O 0.43459 0.25392 0.14616 0.0
N317 N 0.46732 0.36357 0.25965 0.0
C318 C 0.42755 0.41021 0.20405 0.0
C319 C 0.46589 0.42825 0.28128 0.0
C320 C 0.48512 0.40403 0.30993 0.0
C321 C 0.42863 0.34502 0.19574 0.0
C322 C 0.40887 0.3678 0.16308 0.0
H323 H 0.51351 0.41776 0.3737 0.0
H324 H 0.41329 0.31212 0.16613 0.0
H325 H 0.52551 0.31913 0.54366 0.0
H326 H 0.41198 0.29935 0.72464 0.0
H327 H 0.55921 0.34036 0.77514 0.0
H328 H 0.4804 0.46034 0.32125 0.0
H329 H 0.37912 0.35206 0.10494 0.0
C330 C 0.12819 0.43351 0.6669 0.0
C331 C 0.12958 0.4377 0.81754 0.0
N332 N 0.15975 0.47725 0.851 0.0
N333 N 0.15674 0.47056 0.60619 0.0
C334 C 0.17693 0.4957 0.72216 0.0
H335 H 0.10495 0.4065 0.60635 0.0
Co336 Co 0.15676 0.48955 0.41468 0.0
C337 C 0.16925 0.57754 0.52603 0.0
O338 O 0.14346 0.58402 0.44475 0.0
N339 N 0.15759 0.50794 0.22431 0.0
C340 C 0.19134 0.53891 1.01786 0.0
C341 C 0.18726 0.54477 0.1655 0.0
C342 C 0.14365 0.48057 0.11062 0.0
N343 N 0.16391 0.49838 0.98514 0.0
O344 O 0.21468 0.50437 0.38389 0.0
H345 H 0.20863 0.57219 0.22887 0.0
H346 H 0.12337 0.44709 0.12244 0.0
O347 O 0.17259 0.5448 0.50509 0.0
C348 C 0.21166 0.47285 0.31251 0.0
O349 O 0.17554 0.43737 0.31485 0.0
N350 N 0.09863 0.46992 0.42802 0.0
C351 C 0.01224 0.42998 0.37116 0.0
C352 C 0.03253 0.46859 0.44679 0.0
C353 C 0.07596 0.48792 0.47609 0.0
C354 C 0.07853 0.43106 0.36528 0.0
C355 C 0.036 0.41116 0.33228 0.0
H356 H 0.09056 0.51657 0.5384 0.0
H357 H 0.09615 0.41572 0.3365 0.0
H358 H 0.20145 0.52809 0.71245 0.0
H359 H 0.10763 0.41466 0.89435 0.0
H360 H 0.21516 0.5615 0.94515 0.0
H361 H 0.01497 0.4833 0.48496 0.0
H362 H 0.02204 0.38125 0.27518 0.0
C363 C 0.68923 0.13148 0.83188 0.0
C364 C 0.68627 0.13269 0.98251 0.0
N365 N 0.67649 0.16256 1.01612 0.0
N366 N 0.68042 0.15984 0.77137 0.0
C367 C 0.67515 0.17976 0.88743 0.0
H368 H 0.69328 0.10845 0.77112 0.0
Co369 Co 0.66137 0.15963 0.57994 0.0
C370 C 0.58574 0.17195 0.69242 0.0
O371 O 0.55307 0.14555 0.61388 0.0
N372 N 0.64375 0.16018 0.3896 0.0
C373 C 0.64545 0.19324 0.18265 0.0
C374 C 0.63574 0.18924 0.33048 0.0
C375 C 0.65751 0.14656 0.27602 0.0
N376 N 0.65933 0.16642 0.15023 0.0
O377 O 0.70434 0.21763 0.54847 0.0
H378 H 0.62919 0.2103 0.3936 0.0
H379 H 0.67138 0.12687 0.28802 0.0
O380 O 0.62178 0.17532 0.66995 0.0
C381 C 0.73297 0.21464 0.47795 0.0
O382 O 0.7324 0.17855 0.48118 0.0
N383 N 0.62306 0.10148 0.59397 0.0
C384 C 0.57672 0.01503 0.53802 0.0
C385 C 0.55849 0.03524 0.61468 0.0
C386 C 0.58255 0.07871 0.64351 0.0
C387 C 0.64179 0.08145 0.53058 0.0
C388 C 0.61919 0.03889 0.49793 0.0
H389 H 0.56862 0.09328 0.70664 0.0
H390 H 0.67469 0.09912 0.50117 0.0
H391 H 0.66703 0.2041 0.87789 0.0
H392 H 0.68752 0.11079 0.05918 0.0
H393 H 0.64595 0.21663 0.1095 0.0
H394 H 0.52634 0.01759 0.65393 0.0
H395 H 0.63507 0.02497 0.4402 0.0
loop_
_geom_bond_atom_site_label_1
_geom_bond_atom_site_label_2
_geom_bond_distance
_geom_bond_site_symmetry_2
_ccdc_geom_bond_type
C0 C1 1.351 . S
C0 N3 1.368 . S
C0 H5 0.931 . S
C1 C0 1.351 . S
C1 N2 1.373 . S
C1 H29 0.930 . S
N2 C1 1.373 . S
N2 C4 1.340 . S
N3 C0 1.368 . S
N3 C4 1.321 . S
N3 Co6 2.135 1_556 S
C4 N2 1.340 . S
C4 N3 1.321 . S
C4 H28 0.930 . S
H5 C0 0.931 . S
Co6 N3 2.135 1_554 S
Co6 N9 2.121 . S
Co6 O14 2.055 . S
Co6 O17 2.039 . S
Co6 N20 2.140 . S
C7 O8 1.227 . S
C7 O17 1.265 1_556 S
O8 C7 1.227 . S
N9 Co6 2.121 . S
N9 C11 1.375 . S
N9 C12 1.313 . S
C10 C11 1.338 . S
C10 N13 1.377 . S
C10 H30 0.930 . S
C11 N9 1.375 . S
C11 C10 1.338 . S
C11 H15 0.931 . S
C12 N9 1.313 . S
C12 N13 1.344 . S
C12 H16 0.930 . S
N13 C10 1.377 . S
N13 C12 1.344 . S
O14 Co6 2.055 . S
O14 C18 1.253 . S
H15 C11 0.931 . S
H16 C12 0.930 . S
O17 Co6 2.039 . S
O17 C7 1.265 1_554 S
C18 O14 1.253 . S
C18 O19 1.227 . S
O19 C18 1.227 . S
N20 Co6 2.140 . S
N20 C23 1.346 1_554 S
N20 C24 1.345 . S
C21 C22 1.387 . S
C21 C25 1.391 . S
C22 C21 1.387 . S
C22 C23 1.369 1_554 S
C22 H31 0.929 1_554 S
C23 N20 1.346 1_556 S
C23 C22 1.369 1_556 S
C23 H26 0.928 . S
C24 N20 1.345 . S
C24 C25 1.371 . S
C24 H27 0.931 . S
C25 C21 1.391 . S
C25 C24 1.371 . S
C25 H32 0.930 . S
H26 C23 0.928 . S
H27 C24 0.931 . S
H28 C4 0.930 . S
H29 C1 0.930 . S
H30 C10 0.930 . S
H31 C22 0.929 1_556 S
H32 C25 0.930 . S
C33 C34 1.351 1_554 S
C33 N36 1.368 . S
C33 H38 0.931 . S
C34 C33 1.351 1_556 S
C34 N35 1.373 . S
C34 H62 0.930 . S
N35 C34 1.373 . S
N35 C37 1.340 . S
N36 C33 1.368 . S
N36 C37 1.321 1_554 S
N36 Co39 2.135 . S
C37 N35 1.340 . S
C37 N36 1.321 1_556 S
C37 H61 0.930 . S
H38 C33 0.931 . S
Co39 N36 2.135 . S
Co39 N42 2.121 . S
Co39 O47 2.055 . S
Co39 O50 2.039 . S
Co39 N53 2.140 . S
C40 O41 1.227 . S
C40 O50 1.265 . S
O41 C40 1.227 . S
N42 Co39 2.121 . S
N42 C44 1.375 . S
N42 C45 1.313 . S
C43 C44 1.338 . S
C43 N46 1.377 . S
C43 H63 0.930 . S
C44 N42 1.375 . S
C44 C43 1.338 . S
C44 H48 0.931 . S
C45 N42 1.313 . S
C45 N46 1.344 . S
C45 H49 0.930 . S
N46 C43 1.377 . S
N46 C45 1.344 . S
O47 Co39 2.055 . S
O47 C51 1.253 . S
H48 C44 0.931 . S
H49 C45 0.930 . S
O50 Co39 2.039 . S
O50 C40 1.265 . S
C51 O47 1.253 . S
C51 O52 1.227 . S
O52 C51 1.227 . S
N53 Co39 2.140 . S
N53 C56 1.346 . S
N53 C57 1.345 . S
C54 C55 1.387 . S
C54 C58 1.391 . S
C55 C54 1.387 . S
C55 C56 1.369 . S
C55 H64 0.929 . S
C56 N53 1.346 . S
C56 C55 1.369 . S
C56 H59 0.928 . S
C57 N53 1.345 . S
C57 C58 1.371 . S
C57 H60 0.931 . S
C58 C54 1.391 . S
C58 C57 1.371 . S
C58 H65 0.930 . S
H59 C56 0.928 . S
H60 C57 0.931 . S
H61 C37 0.930 . S
H62 C34 0.930 . S
H63 C43 0.930 . S
H64 C55 0.929 . S
H65 C58 0.930 . S
C66 C67 1.351 . S
C66 N69 1.368 . S
C66 H71 0.931 . S
C67 C66 1.351 . S
C67 N68 1.373 1_554 S
C67 H95 0.930 1_554 S
N68 C67 1.373 1_556 S
N68 C70 1.340 1_556 S
N69 C66 1.368 . S
N69 C70 1.321 . S
N69 Co72 2.135 . S
C70 N68 1.340 1_554 S
C70 N69 1.321 . S
C70 H94 0.930 . S
H71 C66 0.931 . S
Co72 N69 2.135 . S
Co72 N75 2.121 . S
Co72 O80 2.055 . S
Co72 O83 2.039 . S
Co72 N86 2.140 . S
C73 O74 1.227 . S
C73 O83 1.265 . S
O74 C73 1.227 . S
N75 Co72 2.121 . S
N75 C77 1.375 . S
N75 C78 1.313 . S
C76 C77 1.338 . S
C76 N79 1.377 . S
C76 H96 0.930 . S
C77 N75 1.375 . S
C77 C76 1.338 . S
C77 H81 0.931 . S
C78 N75 1.313 . S
C78 N79 1.344 . S
C78 H82 0.930 . S
N79 C76 1.377 . S
N79 C78 1.344 . S
O80 Co72 2.055 . S
O80 C84 1.253 . S
H81 C77 0.931 . S
H82 C78 0.930 . S
O83 Co72 2.039 . S
O83 C73 1.265 . S
C84 O80 1.253 . S
C84 O85 1.227 . S
O85 C84 1.227 . S
N86 Co72 2.140 . S
N86 C89 1.346 . S
N86 C90 1.345 . S
C87 C88 1.387 . S
C87 C91 1.391 . S
C88 C87 1.387 . S
C88 C89 1.369 . S
C88 H97 0.929 . S
C89 N86 1.346 . S
C89 C88 1.369 . S
C89 H92 0.928 . S
C90 N86 1.345 . S
C90 C91 1.371 . S
C90 H93 0.931 . S
C91 C87 1.391 . S
C91 C90 1.371 . S
C91 H98 0.930 . S
H92 C89 0.928 . S
H93 C90 0.931 . S
H94 C70 0.930 . S
H95 C67 0.930 1_556 S
H96 C76 0.930 . S
H97 C88 0.929 . S
H98 C91 0.930 . S
C99 C100 1.351 . S
C99 N102 1.368 . S
C99 H104 0.931 . S
C100 C99 1.351 . S
C100 N101 1.373 . S
C100 H128 0.930 . S
N101 C100 1.373 . S
N101 C103 1.340 . S
N102 C99 1.368 . S
N102 C103 1.321 . S
N102 Co105 2.135 . S
C103 N101 1.340 . S
C103 N102 1.321 . S
C103 H127 0.930 . S
H104 C99 0.931 . S
Co105 N102 2.135 . S
Co105 N108 2.121 . S
Co105 O113 2.055 . S
Co105 O116 2.039 . S
Co105 N119 2.140 . S
C106 O107 1.227 . S
C106 O116 1.265 . S
O107 C106 1.227 . S
N108 Co105 2.121 . S
N108 C110 1.375 . S
N108 C111 1.313 . S
C109 C110 1.338 . S
C109 N112 1.377 1_556 S
C109 H129 0.930 1_556 S
C110 N108 1.375 . S
C110 C109 1.338 . S
C110 H114 0.931 . S
C111 N108 1.313 . S
C111 N112 1.344 1_556 S
C111 H115 0.930 . S
N112 C109 1.377 1_554 S
N112 C111 1.344 1_554 S
O113 Co105 2.055 . S
O113 C117 1.253 . S
H114 C110 0.931 . S
H115 C111 0.930 . S
O116 Co105 2.039 . S
O116 C106 1.265 . S
C117 O113 1.253 . S
C117 O118 1.227 . S
O118 C117 1.227 . S
N119 Co105 2.140 . S
N119 C122 1.346 . S
N119 C123 1.345 . S
C120 C121 1.387 . S
C120 C124 1.391 . S
C121 C120 1.387 . S
C121 C122 1.369 . S
C121 H130 0.929 . S
C122 N119 1.346 . S
C122 C121 1.369 . S
C122 H125 0.928 . S
C123 N119 1.345 . S
C123 C124 1.371 . S
C123 H126 0.931 . S
C124 C120 1.391 . S
C124 C123 1.371 . S
C124 H131 0.930 . S
H125 C122 0.928 . S
H126 C123 0.931 . S
H127 C103 0.930 . S
H128 C100 0.930 . S
H129 C109 0.930 1_554 S
H130 C121 0.929 . S
H131 C124 0.930 . S
C132 C133 1.351 . S
C132 N135 1.368 . S
C132 H137 0.931 . S
C133 C132 1.351 . S
C133 N134 1.373 . S
C133 H161 0.930 . S
N134 C133 1.373 . S
N134 C136 1.340 . S
N135 C132 1.368 . S
N135 C136 1.321 . S
N135 Co138 2.135 . S
C136 N134 1.340 . S
C136 N135 1.321 . S
C136 H160 0.930 . S
H137 C132 0.931 . S
Co138 N135 2.135 . S
Co138 N141 2.121 . S
Co138 O146 2.055 . S
Co138 O149 2.039 . S
Co138 N152 2.140 . S
C139 O140 1.227 . S
C139 O149 1.265 . S
O140 C139 1.227 . S
N141 Co138 2.121 . S
N141 C143 1.375 1_556 S
N141 C144 1.313 1_556 S
C142 C143 1.338 . S
C142 N145 1.377 . S
C142 H162 0.930 . S
C143 N141 1.375 1_554 S
C143 C142 1.338 . S
C143 H147 0.931 1_554 S
C144 N141 1.313 1_554 S
C144 N145 1.344 . S
C144 H148 0.930 . S
N145 C142 1.377 . S
N145 C144 1.344 . S
O146 Co138 2.055 . S
O146 C150 1.253 . S
H147 C143 0.931 1_556 S
H148 C144 0.930 . S
O149 Co138 2.039 . S
O149 C139 1.265 . S
C150 O146 1.253 . S
C150 O151 1.227 . S
O151 C150 1.227 . S
N152 Co138 2.140 . S
N152 C155 1.346 . S
N152 C156 1.345 . S
C153 C154 1.387 . S
C153 C157 1.391 . S
C154 C153 1.387 . S
C154 C155 1.369 . S
C154 H163 0.929 . S
C155 N152 1.346 . S
C155 C154 1.369 . S
C155 H158 0.928 . S
C156 N152 1.345 . S
C156 C157 1.371 . S
C156 H159 0.931 . S
C157 C153 1.391 . S
C157 C156 1.371 . S
C157 H164 0.930 . S
H158 C155 0.928 . S
H159 C156 0.931 . S
H160 C136 0.930 . S
H161 C133 0.930 . S
H162 C142 0.930 . S
H163 C154 0.929 . S
H164 C157 0.930 . S
C165 C166 1.351 . S
C165 N168 1.368 . S
C165 H170 0.931 . S
C166 C165 1.351 . S
C166 N167 1.373 . S
C166 H194 0.930 . S
N167 C166 1.373 . S
N167 C169 1.340 . S
N168 C165 1.368 . S
N168 C169 1.321 . S
N168 Co171 2.135 . S
C169 N167 1.340 . S
C169 N168 1.321 . S
C169 H193 0.930 . S
H170 C165 0.931 . S
Co171 N168 2.135 . S
Co171 N174 2.121 1_556 S
Co171 O179 2.055 . S
Co171 O182 2.039 . S
Co171 N185 2.140 . S
C172 O173 1.227 . S
C172 O182 1.265 . S
O173 C172 1.227 . S
N174 Co171 2.121 1_554 S
N174 C176 1.375 . S
N174 C177 1.313 . S
C175 C176 1.338 . S
C175 N178 1.377 . S
C175 H195 0.930 . S
C176 N174 1.375 . S
C176 C175 1.338 . S
C176 H180 0.931 . S
C177 N174 1.313 . S
C177 N178 1.344 . S
C177 H181 0.930 . S
N178 C175 1.377 . S
N178 C177 1.344 . S
O179 Co171 2.055 . S
O179 C183 1.253 1_556 S
H180 C176 0.931 . S
H181 C177 0.930 . S
O182 Co171 2.039 . S
O182 C172 1.265 . S
C183 O179 1.253 1_554 S
C183 O184 1.227 . S
O184 C183 1.227 . S
N185 Co171 2.140 . S
N185 C188 1.346 . S
N185 C189 1.345 1_556 S
C186 C187 1.387 . S
C186 C190 1.391 1_556 S
C187 C186 1.387 . S
C187 C188 1.369 . S
C187 H196 0.929 . S
C188 N185 1.346 . S
C188 C187 1.369 . S
C188 H191 0.928 . S
C189 N185 1.345 1_554 S
C189 C190 1.371 . S
C189 H192 0.931 . S
C190 C186 1.391 1_554 S
C190 C189 1.371 . S
C190 H197 0.930 . S
H191 C188 0.928 . S
H192 C189 0.931 . S
H193 C169 0.930 . S
H194 C166 0.930 . S
H195 C175 0.930 . S
H196 C187 0.929 . S
H197 C190 0.930 . S
C198 C199 1.351 1_556 S
C198 N201 1.368 . S
C198 H203 0.931 . S
C199 C198 1.351 1_554 S
C199 N200 1.373 . S
C199 H227 0.930 . S
N200 C199 1.373 . S
N200 C202 1.340 . S
N201 C198 1.368 . S
N201 C202 1.321 1_556 S
N201 Co204 2.135 . S
C202 N200 1.340 . S
C202 N201 1.321 1_554 S
C202 H226 0.930 . S
H203 C198 0.931 . S
Co204 N201 2.135 . S
Co204 N207 2.121 . S
Co204 O212 2.055 . S
Co204 O215 2.039 . S
Co204 N218 2.140 . S
C205 O206 1.227 . S
C205 O215 1.265 . S
O206 C205 1.227 . S
N207 Co204 2.121 . S
N207 C209 1.375 . S
N207 C210 1.313 . S
C208 C209 1.338 . S
C208 N211 1.377 . S
C208 H228 0.930 . S
C209 N207 1.375 . S
C209 C208 1.338 . S
C209 H213 0.931 . S
C210 N207 1.313 . S
C210 N211 1.344 . S
C210 H214 0.930 . S
N211 C208 1.377 . S
N211 C210 1.344 . S
O212 Co204 2.055 . S
O212 C216 1.253 . S
H213 C209 0.931 . S
H214 C210 0.930 . S
O215 Co204 2.039 . S
O215 C205 1.265 . S
C216 O212 1.253 . S
C216 O217 1.227 . S
O217 C216 1.227 . S
N218 Co204 2.140 . S
N218 C221 1.346 . S
N218 C222 1.345 . S
C219 C220 1.387 . S
C219 C223 1.391 . S
C220 C219 1.387 . S
C220 C221 1.369 . S
C220 H229 0.929 . S
C221 N218 1.346 . S
C221 C220 1.369 . S
C221 H224 0.928 . S
C222 N218 1.345 . S
C222 C223 1.371 . S
C222 H225 0.931 . S
C223 C219 1.391 . S
C223 C222 1.371 . S
C223 H230 0.930 . S
H224 C221 0.928 . S
H225 C222 0.931 . S
H226 C202 0.930 . S
H227 C199 0.930 . S
H228 C208 0.930 . S
H229 C220 0.929 . S
H230 C223 0.930 . S
C231 C232 1.351 . S
C231 N234 1.368 . S
C231 H236 0.931 . S
C232 C231 1.351 . S
C232 N233 1.373 . S
C232 H260 0.930 . S
N233 C232 1.373 . S
N233 C235 1.340 . S
N234 C231 1.368 . S
N234 C235 1.321 . S
N234 Co237 2.135 1_554 S
C235 N233 1.340 . S
C235 N234 1.321 . S
C235 H259 0.930 . S
H236 C231 0.931 . S
Co237 N234 2.135 1_556 S
Co237 N240 2.121 . S
Co237 O245 2.055 . S
Co237 O248 2.039 . S
Co237 N251 2.140 . S
C238 O239 1.227 . S
C238 O248 1.265 1_554 S
O239 C238 1.227 . S
N240 Co237 2.121 . S
N240 C242 1.375 . S
N240 C243 1.313 . S
C241 C242 1.338 . S
C241 N244 1.377 . S
C241 H261 0.930 . S
C242 N240 1.375 . S
C242 C241 1.338 . S
C242 H246 0.931 . S
C243 N240 1.313 . S
C243 N244 1.344 . S
C243 H247 0.930 . S
N244 C241 1.377 . S
N244 C243 1.344 . S
O245 Co237 2.055 . S
O245 C249 1.253 . S
H246 C242 0.931 . S
H247 C243 0.930 . S
O248 Co237 2.039 . S
O248 C238 1.265 1_556 S
C249 O245 1.253 . S
C249 O250 1.227 . S
O250 C249 1.227 . S
N251 Co237 2.140 . S
N251 C254 1.346 1_556 S
N251 C255 1.345 . S
C252 C253 1.387 . S
C252 C256 1.391 . S
C253 C252 1.387 . S
C253 C254 1.369 1_556 S
C253 H262 0.929 1_556 S
C254 N251 1.346 1_554 S
C254 C253 1.369 1_554 S
C254 H257 0.928 . S
C255 N251 1.345 . S
C255 C256 1.371 . S
C255 H258 0.931 . S
C256 C252 1.391 . S
C256 C255 1.371 . S
C256 H263 0.930 . S
H257 C254 0.928 . S
H258 C255 0.931 . S
H259 C235 0.930 . S
H260 C232 0.930 . S
H261 C241 0.930 . S
H262 C253 0.929 1_554 S
H263 C256 0.930 . S
C264 C265 1.351 . S
C264 N267 1.368 . S
C264 H269 0.931 . S
C265 C264 1.351 . S
C265 N266 1.373 . S
C265 H293 0.930 . S
N266 C265 1.373 . S
N266 C268 1.340 . S
N267 C264 1.368 . S
N267 C268 1.321 . S
N267 Co270 2.135 . S
C268 N266 1.340 . S
C268 N267 1.321 . S
C268 H292 0.930 . S
H269 C264 0.931 . S
Co270 N267 2.135 . S
Co270 N273 2.121 1_554 S
Co270 O278 2.055 . S
Co270 O281 2.039 . S
Co270 N284 2.140 . S
C271 O272 1.227 . S
C271 O281 1.265 . S
O272 C271 1.227 . S
N273 Co270 2.121 1_556 S
N273 C275 1.375 . S
N273 C276 1.313 . S
C274 C275 1.338 . S
C274 N277 1.377 . S
C274 H294 0.930 . S
C275 N273 1.375 . S
C275 C274 1.338 . S
C275 H279 0.931 . S
C276 N273 1.313 . S
C276 N277 1.344 . S
C276 H280 0.930 . S
N277 C274 1.377 . S
N277 C276 1.344 . S
O278 Co270 2.055 . S
O278 C282 1.253 1_554 S
H279 C275 0.931 . S
H280 C276 0.930 . S
O281 Co270 2.039 . S
O281 C271 1.265 . S
C282 O278 1.253 1_556 S
C282 O283 1.227 . S
O283 C282 1.227 . S
N284 Co270 2.140 . S
N284 C287 1.346 . S
N284 C288 1.345 1_554 S
C285 C286 1.387 . S
C285 C289 1.391 1_554 S
C286 C285 1.387 . S
C286 C287 1.369 . S
C286 H295 0.929 . S
C287 N284 1.346 . S
C287 C286 1.369 . S
C287 H290 0.928 . S
C288 N284 1.345 1_556 S
C288 C289 1.371 . S
C288 H291 0.931 . S
C289 C285 1.391 1_556 S
C289 C288 1.371 . S
C289 H296 0.930 . S
H290 C287 0.928 . S
H291 C288 0.931 . S
H292 C268 0.930 . S
H293 C265 0.930 . S
H294 C274 0.930 . S
H295 C286 0.929 . S
H296 C289 0.930 . S
C297 C298 1.351 . S
C297 N300 1.368 . S
C297 H302 0.931 . S
C298 C297 1.351 . S
C298 N299 1.373 . S
C298 H326 0.930 . S
N299 C298 1.373 . S
N299 C301 1.340 . S
N300 C297 1.368 . S
N300 C301 1.321 . S
N300 Co303 2.135 . S
C301 N299 1.340 . S
C301 N300 1.321 . S
C301 H325 0.930 . S
H302 C297 0.931 . S
Co303 N300 2.135 . S
Co303 N306 2.121 . S
Co303 O311 2.055 . S
Co303 O314 2.039 . S
Co303 N317 2.140 . S
C304 O305 1.227 . S
C304 O314 1.265 . S
O305 C304 1.227 . S
N306 Co303 2.121 . S
N306 C308 1.375 1_554 S
N306 C309 1.313 1_554 S
C307 C308 1.338 . S
C307 N310 1.377 . S
C307 H327 0.930 . S
C308 N306 1.375 1_556 S
C308 C307 1.338 . S
C308 H312 0.931 1_556 S
C309 N306 1.313 1_556 S
C309 N310 1.344 . S
C309 H313 0.930 . S
N310 C307 1.377 . S
N310 C309 1.344 . S
O311 Co303 2.055 . S
O311 C315 1.253 . S
H312 C308 0.931 1_554 S
H313 C309 0.930 . S
O314 Co303 2.039 . S
O314 C304 1.265 . S
C315 O311 1.253 . S
C315 O316 1.227 . S
O316 C315 1.227 . S
N317 Co303 2.140 . S
N317 C320 1.346 . S
N317 C321 1.345 . S
C318 C319 1.387 . S
C318 C322 1.391 . S
C319 C318 1.387 . S
C319 C320 1.369 . S
C319 H328 0.929 . S
C320 N317 1.346 . S
C320 C319 1.369 . S
C320 H323 0.928 . S
C321 N317 1.345 . S
C321 C322 1.371 . S
C321 H324 0.931 . S
C322 C318 1.391 . S
C322 C321 1.371 . S
C322 H329 0.930 . S
H323 C320 0.928 . S
H324 C321 0.931 . S
H325 C301 0.930 . S
H326 C298 0.930 . S
H327 C307 0.930 . S
H328 C319 0.929 . S
H329 C322 0.930 . S
C330 C331 1.351 . S
C330 N333 1.368 . S
C330 H335 0.931 . S
C331 C330 1.351 . S
C331 N332 1.373 . S
C331 H359 0.930 . S
N332 C331 1.373 . S
N332 C334 1.340 . S
N333 C330 1.368 . S
N333 C334 1.321 . S
N333 Co336 2.135 . S
C334 N332 1.340 . S
C334 N333 1.321 . S
C334 H358 0.930 . S
H335 C330 0.931 . S
Co336 N333 2.135 . S
Co336 N339 2.121 . S
Co336 O344 2.055 . S
Co336 O347 2.039 . S
Co336 N350 2.140 . S
C337 O338 1.227 . S
C337 O347 1.265 . S
O338 C337 1.227 . S
N339 Co336 2.121 . S
N339 C341 1.375 . S
N339 C342 1.313 . S
C340 C341 1.338 . S
C340 N343 1.377 1_554 S
C340 H360 0.930 1_554 S
C341 N339 1.375 . S
C341 C340 1.338 . S
C341 H345 0.931 . S
C342 N339 1.313 . S
C342 N343 1.344 1_554 S
C342 H346 0.930 . S
N343 C340 1.377 1_556 S
N343 C342 1.344 1_556 S
O344 Co336 2.055 . S
O344 C348 1.253 . S
H345 C341 0.931 . S
H346 C342 0.930 . S
O347 Co336 2.039 . S
O347 C337 1.265 . S
C348 O344 1.253 . S
C348 O349 1.227 . S
O349 C348 1.227 . S
N350 Co336 2.140 . S
N350 C353 1.346 . S
N350 C354 1.345 . S
C351 C352 1.387 . S
C351 C355 1.391 . S
C352 C351 1.387 . S
C352 C353 1.369 . S
C352 H361 0.929 . S
C353 N350 1.346 . S
C353 C352 1.369 . S
C353 H356 0.928 . S
C354 N350 1.345 . S
C354 C355 1.371 . S
C354 H357 0.931 . S
C355 C351 1.391 . S
C355 C354 1.371 . S
C355 H362 0.930 . S
H356 C353 0.928 . S
H357 C354 0.931 . S
H358 C334 0.930 . S
H359 C331 0.930 . S
H360 C340 0.930 1_556 S
H361 C352 0.929 . S
H362 C355 0.930 . S
C363 C364 1.351 . S
C363 N366 1.368 . S
C363 H368 0.931 . S
C364 C363 1.351 . S
C364 N365 1.373 1_556 S
C364 H392 0.930 1_556 S
N365 C364 1.373 1_554 S
N365 C367 1.340 1_554 S
N366 C363 1.368 . S
N366 C367 1.321 . S
N366 Co369 2.135 . S
C367 N365 1.340 1_556 S
C367 N366 1.321 . S
C367 H391 0.930 . S
H368 C363 0.931 . S
Co369 N366 2.135 . S
Co369 N372 2.121 . S
Co369 O377 2.055 . S
Co369 O380 2.039 . S
Co369 N383 2.140 . S
C370 O371 1.227 . S
C370 O380 1.265 . S
O371 C370 1.227 . S
N372 Co369 2.121 . S
N372 C374 1.375 . S
N372 C375 1.313 . S
C373 C374 1.338 . S
C373 N376 1.377 . S
C373 H393 0.930 . S
C374 N372 1.375 . S
C374 C373 1.338 . S
C374 H378 0.931 . S
C375 N372 1.313 . S
C375 N376 1.344 . S
C375 H379 0.930 . S
N376 C373 1.377 . S
N376 C375 1.344 . S
O377 Co369 2.055 . S
O377 C381 1.253 . S
H378 C374 0.931 . S
H379 C375 0.930 . S
O380 Co369 2.039 . S
O380 C370 1.265 . S
C381 O377 1.253 . S
C381 O382 1.227 . S
O382 C381 1.227 . S
N383 Co369 2.140 . S
N383 C386 1.346 . S
N383 C387 1.345 . S
C384 C385 1.387 . S
C384 C388 1.391 . S
C385 C384 1.387 . S
C385 C386 1.369 . S
C385 H394 0.929 . S
C386 N383 1.346 . S
C386 C385 1.369 . S
C386 H389 0.928 . S
C387 N383 1.345 . S
C387 C388 1.371 . S
C387 H390 0.931 . S
C388 C384 1.391 . S
C388 C387 1.371 . S
C388 H395 0.930 . S
H389 C386 0.928 . S
H390 C387 0.931 . S
H391 C367 0.930 . S
H392 C364 0.930 1_554 S
H393 C373 0.930 . S
H394 C385 0.929 . S
H395 C388 0.930 . S
N13 N2 2.337 . S
N35 N46 2.337 . S
N68 N79 2.337 . S
N112 N101 2.337 . S
N145 N134 2.337 . S
N167 N178 2.337 . S
N211 N200 2.337 . S
N244 N233 2.337 . S
N266 N277 2.337 . S
N310 N299 2.337 . S
N343 N332 2.337 . S
N365 N376 2.337 . S
C205 C7 1.731 . S
C40 C238 1.731 . S
C271 C73 1.731 . S
C304 C106 1.731 . S
C337 C139 1.731 . S
C370 C172 1.731 . S
C18 C348 1.474 . S
C51 C381 1.473 . S
C84 C216 1.474 . S
C249 C117 1.474 . S
C282 C150 1.474 . S
C315 C183 1.474 . S
C21 C318 1.772 . S
C54 C351 1.772 1_655 S
C384 C87 1.773 1_545 S
C120 C219 1.772 . S
C153 C252 1.773 1_455 S
C186 C285 1.772 1_546 S
