# Generated by pormake.
# Topology fcu, (12)-cn, num edge types: 1
# Building blocks:
#     Node 0, Type 0, BuildingBlock: BOTCEU_clean_sbu_0, # of connection points: 12
#     Node 1, Type 0, BuildingBlock: BOTCEU_clean_sbu_0, # of connection points: 12
#     Node 2, Type 0, BuildingBlock: BOTCEU_clean_sbu_0, # of connection points: 12
#     Node 3, Type 0, BuildingBlock: BOTCEU_clean_sbu_0, # of connection points: 12
#     Edge 4, Type (0, 0), BuildingBlock: UVAHIK_clean_linker_0, # of connection points: 2
#     Edge 5, Type (0, 0), BuildingBlock: UVAHIK_clean_linker_0, # of connection points: 2
#     Edge 6, Type (0, 0), BuildingBlock: UVAHIK_clean_linker_0, # of connection points: 2
#     Edge 7, Type (0, 0), BuildingBlock: UVAHIK_clean_linker_0, # of connection points: 2
#     Edge 8, Type (0, 0), BuildingBlock: UVAHIK_clean_linker_0, # of connection points: 2
#     Edge 9, Type (0, 0), BuildingBlock: UVAHIK_clean_linker_0, # of connection points: 2
#     Edge 10, Type (0, 0), BuildingBlock: UVAHIK_clean_linker_0, # of connection points: 2
#     Edge 11, Type (0, 0), BuildingBlock: UVAHIK_clean_linker_0, # of connection points: 2
#     Edge 12, Type (0, 0), BuildingBlock: UVAHIK_clean_linker_0, # of connection points: 2
#     Edge 13, Type (0, 0), BuildingBlock: UVAHIK_clean_linker_0, # of connection points: 2
#     Edge 14, Type (0, 0), BuildingBlock: UVAHIK_clean_linker_0, # of connection points: 2
#     Edge 15, Type (0, 0), BuildingBlock: UVAHIK_clean_linker_0, # of connection points: 2
#     Edge 16, Type (0, 0), BuildingBlock: UVAHIK_clean_linker_0, # of connection points: 2
#     Edge 17, Type (0, 0), BuildingBlock: UVAHIK_clean_linker_0, # of connection points: 2
#     Edge 18, Type (0, 0), BuildingBlock: UVAHIK_clean_linker_0, # of connection points: 2
#     Edge 19, Type (0, 0), BuildingBlock: UVAHIK_clean_linker_0, # of connection points: 2
#     Edge 20, Type (0, 0), BuildingBlock: UVAHIK_clean_linker_0, # of connection points: 2
#     Edge 21, Type (0, 0), BuildingBlock: UVAHIK_clean_linker_0, # of connection points: 2
#     Edge 22, Type (0, 0), BuildingBlock: UVAHIK_clean_linker_0, # of connection points: 2
#     Edge 23, Type (0, 0), BuildingBlock: UVAHIK_clean_linker_0, # of connection points: 2
#     Edge 24, Type (0, 0), BuildingBlock: UVAHIK_clean_linker_0, # of connection points: 2
#     Edge 25, Type (0, 0), BuildingBlock: UVAHIK_clean_linker_0, # of connection points: 2
#     Edge 26, Type (0, 0), BuildingBlock: UVAHIK_clean_linker_0, # of connection points: 2
#     Edge 27, Type (0, 0), BuildingBlock: UVAHIK_clean_linker_0, # of connection points: 2
# Relax obj value: 0.051
# Max RMSD: 0.157
# Mean RMSD: 0.157
data_MOF--net-fcu--node1-BOTCEU_clean_sbu_0--edge1-UVAHIK_clean_linker_0
_symmetry_space_group_name_H-M    P1
_symmetry_Int_Tables_number       1
_symmetry_cell_setting            triclinic
loop_
_symmetry_equiv_pos_as_xyz
'x, y, z'
_cell_length_a     42.133298
_cell_length_b     42.183386
_cell_length_c     42.212797
_cell_angle_alpha  99.658821
_cell_angle_beta   99.597767
_cell_angle_gamma 99.847648
loop_
_atom_site_label
_atom_site_type_symbol
_atom_site_fract_x
_atom_site_fract_y
_atom_site_fract_z
_atom_type_partial_charge
C0 C 0.12624 0.92307 0.06506 0.0
C1 C 0.13238 0.9307 0.09918 0.0
C2 C 0.10144 0.92574 0.10736 0.0
N3 N 0.09356 0.91393 0.05429 0.0
N4 N 0.0788 0.9159 0.07939 0.0
C5 C 0.15092 0.92276 0.04335 0.0
H6 H 0.13883 0.91232 0.01742 0.0
H7 H 0.16928 0.90839 0.05172 0.0
H8 H 0.16418 0.94824 0.04498 0.0
C9 C 0.09345 0.92998 0.14082 0.0
H10 H 0.11218 0.94967 0.15829 0.0
H11 H 0.09339 0.90663 0.14965 0.0
H12 H 0.06861 0.93575 0.13989 0.0
C13 C 0.97138 0.13978 0.87943 0.0
C14 C 0.01159 0.12272 0.85837 0.0
C15 C 0.99034 0.14447 0.85583 0.0
N16 N 0.98135 0.11667 0.89477 0.0
N17 N 0.00516 0.10646 0.88202 0.0
H18 H 0.95491 0.17981 0.90514 0.0
H19 H 0.93109 0.16271 0.86449 0.0
H20 H 0.92692 0.14073 0.89766 0.0
C21 C 0.94429 0.1566 0.88698 0.0
H22 H 0.05337 0.14471 0.84077 0.0
H23 H 0.02997 0.10657 0.81555 0.0
H24 H 0.05651 0.1061 0.85353 0.0
C25 C 0.03968 0.11991 0.84127 0.0
C26 C 0.01015 0.84628 0.0139 0.0
C27 C 0.07352 0.96438 0.00485 0.0
C28 C 0.94606 0.09873 0.13687 0.0
N29 N 0.93842 0.08206 0.10575 0.0
N30 N 0.93648 0.10262 0.08567 0.0
C31 C 0.94771 0.13187 0.13646 0.0
C32 C 0.94188 0.13335 0.1033 0.0
H33 H 0.94655 0.05644 0.15931 0.0
H34 H 0.92371 0.08571 0.17618 0.0
H35 H 0.96775 0.09506 0.18551 0.0
C36 C 0.94595 0.08285 0.16604 0.0
H37 H 0.94405 0.1597 0.06411 0.0
H38 H 0.95375 0.18535 0.1051 0.0
H39 H 0.91198 0.16573 0.08634 0.0
C40 C 0.93786 0.16281 0.08885 0.0
C41 C 0.10612 0.85608 0.94521 0.0
C42 C 0.09895 0.84459 0.993 0.0
N43 N 0.08829 0.87625 0.9587 0.0
N44 N 0.08376 0.86896 0.98695 0.0
C45 C 0.11377 0.83554 0.96677 0.0
H46 H 0.14494 0.87124 0.92098 0.0
H47 H 0.1166 0.83417 0.89946 0.0
H48 H 0.1044 0.87346 0.90013 0.0
C49 C 0.11858 0.85892 0.91449 0.0
C50 C 0.10177 0.83268 0.02461 0.0
H51 H 0.12447 0.847 0.0418 0.0
H52 H 0.10326 0.80633 0.02044 0.0
H53 H 0.08052 0.83646 0.03613 0.0
C54 C 0.85851 0.03118 0.03848 0.0
C55 C 0.98473 0.02906 0.0863 0.0
C56 C 0.09118 0.11989 0.92835 0.0
N57 N 0.07051 0.09116 0.9147 0.0
C58 C 0.12307 0.11419 0.93263 0.0
N59 N 0.08733 0.06787 0.91052 0.0
C60 C 0.11954 0.08067 0.92083 0.0
H61 H 0.05572 0.15082 0.9226 0.0
H62 H 0.09847 0.17225 0.9321 0.0
H63 H 0.07973 0.15678 0.96326 0.0
C64 C 0.08061 0.15184 0.9368 0.0
H65 H 0.13567 0.03501 0.92093 0.0
C66 C 0.14584 0.06096 0.92044 0.0
H67 H 0.1553 0.06143 0.89747 0.0
H68 H 0.16659 0.07156 0.94156 0.0
C69 C 0.88963 0.98053 0.14416 0.0
C70 C 0.87378 0.0251 0.13202 0.0
N71 N 0.90662 0.99168 0.12263 0.0
N72 N 0.89694 0.01805 0.11522 0.0
C73 C 0.86837 0.00154 0.15112 0.0
H74 H 0.91025 0.95528 0.17964 0.0
C75 C 0.89225 0.94947 0.15604 0.0
H76 H 0.90097 0.93252 0.13795 0.0
H77 H 0.86813 0.93747 0.16018 0.0
H78 H 0.85802 0.06669 0.15674 0.0
H79 H 0.83363 0.04762 0.11683 0.0
C80 C 0.8591 0.05496 0.13146 0.0
H81 H 0.87351 0.07277 0.12 0.0
C82 C 0.00588 0.02636 0.84248 0.0
C83 C 0.02552 0.08253 0.97073 0.0
C84 C 0.88348 0.05013 0.92946 0.0
N85 N 0.91381 0.06818 0.94176 0.0
C86 C 0.88112 0.03843 0.89618 0.0
C87 C 0.9119 0.0507 0.89003 0.0
N88 N 0.93082 0.06856 0.91839 0.0
C89 C 0.85671 0.04655 0.9486 0.0
H90 H 0.84341 0.06696 0.94712 0.0
H91 H 0.83888 0.02295 0.93847 0.0
H92 H 0.86744 0.04786 0.97472 0.0
C93 C 0.9212 0.0501 0.85731 0.0
H94 H 0.94831 0.05475 0.86008 0.0
H95 H 0.91007 0.02616 0.8405 0.0
H96 H 0.9119 0.06969 0.8463 0.0
C97 C 0.01943 0.85503 0.11041 0.0
C98 C -0.00341 0.84951 0.13028 0.0
C99 C 0.97921 0.87467 0.12909 0.0
N100 N 0.01534 0.88197 0.09849 0.0
N101 N 0.9917 0.8939 0.11002 0.0
H102 H 0.03328 0.8135 0.08405 0.0
H103 H 0.05548 0.82737 0.12569 0.0
H104 H 0.06463 0.85048 0.09441 0.0
C105 C 0.0449 0.83562 0.10335 0.0
C106 C 0.94892 0.87802 0.14234 0.0
H107 H 0.93347 0.85346 0.1407 0.0
H108 H 0.95608 0.89048 0.16854 0.0
H109 H 0.93461 0.89289 0.12857 0.0
C110 C 0.97072 0.16058 0.97314 0.0
C111 C 0.95625 0.04675 0.00811 0.0
C112 C 0.01397 0.91662 0.87005 0.0
C113 C -0.00057 0.88444 0.86988 0.0
C114 C 0.01551 0.87769 0.89893 0.0
N115 N 0.03735 0.92752 0.89715 0.0
N116 N 0.03814 0.90467 0.91473 0.0
C117 C 0.00879 0.93517 0.84303 0.0
H118 H 0.01331 0.9618 0.85361 0.0
H119 H 0.02657 0.93119 0.82686 0.0
H120 H 0.98346 0.92671 0.82812 0.0
C121 C 0.0138 0.84485 0.90818 0.0
H122 H 0.01967 0.84785 0.93527 0.0
H123 H 0.98909 0.82898 0.89812 0.0
H124 H 0.0323 0.83271 0.89792 0.0
C125 C 0.86521 0.12229 0.02869 0.0
C126 C 0.85615 0.13864 0.00362 0.0
C127 C 0.87832 0.13451 0.98297 0.0
N128 N 0.89129 0.10961 0.02276 0.0
N129 N 0.89929 0.11724 -0.00424 0.0
C130 C 0.84991 0.1192 0.05787 0.0
H131 H 0.82685 0.10026 0.0503 0.0
H132 H 0.84365 0.14285 0.06797 0.0
H133 H 0.86676 0.11159 0.07699 0.0
C134 C 0.87694 0.14295 0.9498 0.0
H135 H 0.85102 0.13941 0.93683 0.0
H136 H 0.88877 0.16912 0.95261 0.0
H137 H 0.89023 0.12753 0.93503 0.0
C138 C 0.13679 0.9486 0.93735 0.0
C139 C 0.03216 -0.00065 0.94193 0.0
C140 C 0.92106 0.8896 0.04825 0.0
N141 N 0.93899 0.9181 0.06668 0.0
N142 N 0.92023 0.93982 0.06972 0.0
C143 C 0.88889 0.89359 0.03946 0.0
C144 C 0.88939 0.92595 0.05374 0.0
H145 H 0.96005 0.86277 0.04936 0.0
H146 H 0.92403 0.84373 0.06238 0.0
H147 H 0.92301 0.84298 0.01954 0.0
C148 C 0.93287 0.85796 0.04458 0.0
H149 H 0.86822 0.96876 0.05686 0.0
H150 H 0.8404 0.93104 0.03393 0.0
H151 H 0.85139 0.93851 0.07809 0.0
C152 C 0.86058 0.94202 0.05551 0.0
C153 C 0.09394 0.00719 0.83807 0.0
N154 N 0.08171 0.00178 0.86446 0.0
N155 N 0.08601 0.97308 0.87052 0.0
C156 C 0.10596 0.97974 0.82619 0.0
C157 C 0.10007 0.95837 0.8474 0.0
C158 C 0.0946 0.0382 0.8252 0.0
H159 H 0.09121 0.03287 0.79805 0.0
H160 H 0.11881 0.05492 0.83551 0.0
H161 H 0.07532 0.05087 0.83294 0.0
C162 C 0.1085 0.92527 0.84645 0.0
H163 H 0.09745 0.90914 0.82218 0.0
H164 H 0.13558 0.92777 0.85016 0.0
H165 H 0.099 0.91371 0.86564 0.0
C166 C 0.98178 0.96863 0.15953 0.0
C167 C 0.00606 0.95405 0.042 0.0
Cu168 Cu 0.06636 0.89762 0.01365 0.0
Cu169 Cu 0.03352 0.90344 0.06886 0.0
Cu170 Cu 0.91909 0.03878 0.08754 0.0
Cu171 Cu 0.916 0.08348 0.04281 0.0
Cu172 Cu 0.0255 0.07753 0.90209 0.0
Cu173 Cu 0.06265 0.02633 0.89339 0.0
Cu174 Cu 0.93157 0.09816 0.9804 0.0
Cu175 Cu 0.97078 0.09805 0.92955 0.0
Cu176 Cu 0.0726 0.96231 0.90772 0.0
Cu177 Cu 0.0738 0.91363 0.94946 0.0
Cu178 Cu 0.97986 0.9294 0.09415 0.0
Cu179 Cu 0.93812 0.97771 0.10087 0.0
H180 H 0.00815 0.835 0.03555 0.0
H181 H 0.02496 0.83333 -0.00124 0.0
H182 H 0.98526 0.84403 -0.00098 0.0
H183 H 0.09502 0.97466 -0.00488 0.0
H184 H 0.08124 0.9663 0.03162 0.0
H185 H 0.05404 0.97859 0.00057 0.0
H186 H 0.85174 0.00787 0.01998 0.0
H187 H 0.84751 0.05017 0.02811 0.0
H188 H 0.84895 0.0274 0.06075 0.0
H189 H 0.98664 0.05552 0.08596 0.0
H190 H -0.00316 0.01812 0.06712 0.0
H191 H -0.00284 0.0264 0.11074 0.0
H192 H 0.02094 0.01215 0.82886 0.0
H193 H 0.00464 0.0492 0.83307 0.0
H194 H 0.98074 0.01135 0.83879 0.0
H195 H 0.05051 0.07838 0.96905 0.0
H196 H 0.01506 0.06639 0.9861 0.0
H197 H 0.02723 0.10863 0.98203 0.0
H198 H 0.99156 0.17048 0.96225 0.0
H199 H 0.9479 0.16675 0.9609 0.0
H200 H 0.97586 0.1716 -0.00029 0.0
H201 H 0.95635 0.0402 0.98158 0.0
H202 H 0.98118 0.04833 0.0225 0.0
H203 H 0.93849 0.02748 0.01452 0.0
H204 H 0.14906 0.94219 0.96009 0.0
H205 H 0.13895 0.93075 0.91581 0.0
H206 H 0.14886 0.97365 0.93578 0.0
H207 H 0.02374 0.97374 0.94461 0.0
H208 H 0.03901 0.01584 0.96642 0.0
H209 H 0.01185 0.00682 0.92656 0.0
H210 H 0.00719 0.96547 0.16808 0.0
H211 H 0.97887 0.99303 0.17187 0.0
H212 H 0.96405 0.94915 0.16559 0.0
H213 H 0.00713 0.9362 0.01993 0.0
H214 H 0.98097 0.95933 0.03944 0.0
H215 H 0.02417 0.97713 0.04444 0.0
O216 O 0.02497 0.87883 0.02399 0.0
O217 O 0.06163 0.93209 0.98972 0.0
O218 O 0.89207 0.04106 0.04632 0.0
O219 O 0.95227 0.01367 0.08022 0.0
O220 O 0.01982 0.03407 0.87527 0.0
O221 O 0.00599 0.07529 0.93998 0.0
O222 O 0.96712 0.12717 0.96906 0.0
O223 O 0.94724 0.07649 0.01489 0.0
O224 O 0.10433 0.94794 0.93824 0.0
O225 O 0.0589 0.00116 0.92725 0.0
O226 O 0.9761 0.96671 0.1263 0.0
O227 O 0.01297 0.94106 0.06937 0.0
C228 C 0.1418 0.46578 0.56957 0.0
C229 C 0.14938 0.48523 0.60093 0.0
C230 C 0.12114 0.47831 0.61378 0.0
N231 N 0.11087 0.44886 0.56467 0.0
N232 N 0.09857 0.45616 0.59093 0.0
C233 C 0.16329 0.46299 0.54483 0.0
H234 H 0.14821 0.45859 0.5197 0.0
H235 H 0.17506 0.44159 0.54674 0.0
H236 H 0.18279 0.48548 0.54925 0.0
C237 C 0.11657 0.49056 0.64776 0.0
H238 H 0.09349 0.47678 0.65235 0.0
H239 H 0.11541 0.51695 0.65081 0.0
H240 H 0.13787 0.48829 0.66602 0.0
C241 C 0.92894 0.59306 0.33996 0.0
C242 C 0.96974 0.57968 0.31737 0.0
C243 C 0.94432 0.59679 0.31361 0.0
N244 N 0.94485 0.57505 0.35799 0.0
N245 N 0.96905 0.56704 0.34438 0.0
H246 H 0.90952 0.63202 0.36371 0.0
H247 H 0.88382 0.609 0.32565 0.0
H248 H 0.88679 0.59144 0.36233 0.0
C249 C 0.90041 0.60706 0.34829 0.0
H250 H 0.00811 0.60453 0.29733 0.0
H251 H 0.98631 0.56547 0.2729 0.0
H252 H 0.01569 0.56682 0.30969 0.0
C253 C -0.00328 0.57908 0.2984 0.0
C254 C 0.03878 0.36729 0.54816 0.0
C255 C 0.07092 0.47759 0.50464 0.0
C256 C 0.94435 0.61469 0.61107 0.0
N257 N 0.93709 0.58916 0.58566 0.0
N258 N 0.92877 0.59941 0.5583 0.0
C259 C 0.93986 0.64267 0.59907 0.0
C260 C 0.93033 0.632 0.56531 0.0
H261 H 0.9598 0.5891 0.64904 0.0
H262 H 0.92674 0.61014 0.65514 0.0
H263 H 0.96779 0.63363 0.66153 0.0
C264 C 0.95018 0.61161 0.64627 0.0
H265 H 0.91633 0.6386 0.51575 0.0
H266 H 0.93414 0.67608 0.5461 0.0
H267 H 0.89299 0.65531 0.54448 0.0
C268 C 0.91774 0.65148 0.54127 0.0
C269 C 0.11751 0.3698 0.46199 0.0
C270 C 0.12119 0.36884 0.51462 0.0
N271 N 0.10184 0.39204 0.47553 0.0
N272 N 0.10371 0.39122 0.5068 0.0
C273 C 0.13055 0.3545 0.48639 0.0
H274 H 0.14056 0.37531 0.42134 0.0
H275 H 0.11679 0.33488 0.4183 0.0
H276 H 0.09622 0.36845 0.41186 0.0
C277 C 0.11759 0.36152 0.42618 0.0
C278 C 0.12974 0.36241 0.54844 0.0
H279 H 0.15592 0.36035 0.55403 0.0
H280 H 0.11441 0.33871 0.54982 0.0
H281 H 0.12504 0.38227 0.56681 0.0
C282 C 0.86165 0.51323 0.53822 0.0
C283 C 0.99235 0.54126 0.58437 0.0
C284 C 0.05972 0.59567 0.37929 0.0
N285 N 0.04154 0.56513 0.37355 0.0
C286 C 0.09273 0.59355 0.38594 0.0
N287 N 0.06091 0.54404 0.37614 0.0
C288 C 0.0924 0.56015 0.38386 0.0
H289 H 0.01983 0.6207 0.38428 0.0
H290 H 0.04642 0.63525 0.3582 0.0
H291 H 0.06071 0.64555 0.40192 0.0
C292 C 0.04575 0.62606 0.38126 0.0
H293 H 0.11472 0.5178 0.37762 0.0
C294 C 0.12123 0.54405 0.38989 0.0
H295 H 0.14235 0.55693 0.38118 0.0
H296 H 0.12874 0.54537 0.41662 0.0
C297 C 0.90628 0.5056 0.65751 0.0
C298 C 0.88381 0.54131 0.63332 0.0
N299 N 0.92288 0.51372 0.63452 0.0
N300 N 0.90916 0.53457 0.61981 0.0
C301 C 0.88098 0.52303 0.65767 0.0
H302 H 0.9261 0.48895 0.70012 0.0
C303 C 0.91142 0.47833 0.67506 0.0
H304 H 0.92498 0.46182 0.66192 0.0
H305 H 0.88747 0.46403 0.67728 0.0
H306 H 0.85555 0.57816 0.64445 0.0
H307 H 0.8403 0.55061 0.60536 0.0
C308 C 0.8629 0.56454 0.62291 0.0
H309 H 0.87635 0.58199 0.61044 0.0
C310 C 0.97999 0.48563 0.31921 0.0
C311 C 0.00733 0.57006 0.43786 0.0
C312 C 0.86955 0.50366 0.41491 0.0
N313 N 0.89576 0.52846 0.42139 0.0
C314 C 0.86745 0.48562 0.38355 0.0
C315 C 0.8941 0.50155 0.37255 0.0
N316 N 0.91044 0.52727 0.39624 0.0
C317 C 0.84521 0.49985 0.43675 0.0
H318 H 0.8286 0.51733 0.43346 0.0
H319 H 0.83028 0.47446 0.4308 0.0
H320 H 0.8583 0.506 0.46278 0.0
C321 C 0.89976 0.4963 0.33818 0.0
H322 H 0.92365 0.51114 0.33692 0.0
H323 H 0.89938 0.46999 0.32907 0.0
H324 H 0.87973 0.50341 0.32198 0.0
C325 C 0.0604 0.39833 0.64296 0.0
C326 C 0.04209 0.39399 0.66713 0.0
C327 C 0.01948 0.41431 0.66358 0.0
N328 N 0.04878 0.41987 0.6264 0.0
N329 N 0.02469 0.42963 0.63898 0.0
H330 H 0.07787 0.35752 0.61972 0.0
H331 H 0.10307 0.37899 0.65852 0.0
H332 H 0.10352 0.39698 0.62221 0.0
C333 C 0.088 0.38218 0.6355 0.0
C334 C 0.99063 0.41556 0.67985 0.0
H335 H 0.97963 0.39067 0.68289 0.0
H336 H -0.00097 0.43166 0.70455 0.0
H337 H 0.97179 0.42567 0.66528 0.0
C338 C 0.93618 0.62797 0.43372 0.0
C339 C 0.94948 0.53066 0.49159 0.0
C340 C 0.00503 0.39251 0.38433 0.0
C341 C -0.00521 0.36634 0.39909 0.0
C342 C 0.0179 0.37156 0.42818 0.0
N343 N 0.03252 0.41142 0.40381 0.0
N344 N 0.03995 0.39907 0.42997 0.0
C345 C 0.9907 0.39783 0.35121 0.0
H346 H 0.00662 0.41826 0.34436 0.0
H347 H 0.98736 0.37497 0.33254 0.0
H348 H 0.96618 0.40398 0.35156 0.0
C349 C 0.01992 0.35045 0.45326 0.0
H350 H 0.02955 0.36617 0.47799 0.0
H351 H -0.00449 0.33503 0.45236 0.0
H352 H 0.03751 0.33428 0.44849 0.0
C353 C 0.8466 0.59266 0.50551 0.0
C354 C 0.83169 0.60245 0.47784 0.0
C355 C 0.84976 0.59402 0.4541 0.0
N356 N 0.87204 0.57964 0.49813 0.0
N357 N 0.87405 0.58061 0.46755 0.0
C358 C 0.83908 0.59883 0.53913 0.0
H359 H 0.81557 0.58234 0.53919 0.0
H360 H 0.836 0.62454 0.54601 0.0
H361 H 0.85891 0.59394 0.55733 0.0
C362 C 0.84381 0.59844 0.41938 0.0
H363 H 0.817 0.59282 0.40902 0.0
H364 H 0.8535 0.62436 0.41854 0.0
H365 H 0.8563 0.58221 0.40446 0.0
C366 C 0.13123 0.45743 0.43414 0.0
C367 C 0.01605 0.48559 0.42771 0.0
C368 C 0.94418 0.40213 0.58667 0.0
N369 N 0.95944 0.43376 0.5969 0.0
N370 N 0.93778 0.45263 0.59473 0.0
C371 C 0.91072 0.4011 0.57735 0.0
C372 C 0.90761 0.43379 0.58291 0.0
H373 H 0.9614 0.36654 0.61174 0.0
H374 H 0.94766 0.35237 0.56808 0.0
H375 H 0.98674 0.38096 0.58472 0.0
C376 C 0.961 0.37376 0.58761 0.0
H377 H 0.88133 0.47318 0.58434 0.0
H378 H 0.85887 0.43481 0.55841 0.0
H379 H 0.86471 0.43957 0.60216 0.0
C380 C 0.87637 0.44623 0.58182 0.0
C381 C 0.07282 0.47534 0.3196 0.0
N382 N 0.05917 0.47241 0.34571 0.0
N383 N 0.06979 0.44957 0.35976 0.0
C384 C 0.09326 0.45281 0.31681 0.0
C385 C 0.09036 0.43663 0.34268 0.0
C386 C 0.07048 0.50259 0.30127 0.0
H387 H 0.07367 0.49489 0.27573 0.0
H388 H 0.09017 0.52423 0.31361 0.0
H389 H 0.04651 0.51012 0.3013 0.0
C390 C 0.1109 0.41354 0.3539 0.0
H391 H 0.11015 0.39333 0.33307 0.0
H392 H 0.13686 0.42679 0.36262 0.0
H393 H 0.10181 0.40328 0.37397 0.0
C394 C 0.00217 0.50352 0.67572 0.0
C395 C 0.01069 0.46635 0.55241 0.0
Cu396 Cu 0.08299 0.41997 0.52982 0.0
Cu397 Cu 0.05607 0.43442 0.58855 0.0
Cu398 Cu 0.92477 0.54459 0.58344 0.0
Cu399 Cu 0.90641 0.56689 0.52277 0.0
Cu400 Cu -0.00245 0.54699 0.36827 0.0
Cu401 Cu 0.03948 0.50078 0.37012 0.0
Cu402 Cu 0.90935 0.56606 0.45346 0.0
Cu403 Cu 0.9433 0.5633 0.39832 0.0
Cu404 Cu 0.06128 0.44886 0.40149 0.0
Cu405 Cu 0.07767 0.42076 0.45957 0.0
Cu406 Cu 0.00163 0.45534 0.61663 0.0
Cu407 Cu 0.95385 0.49633 0.61472 0.0
H408 H 0.01385 0.35788 0.53267 0.0
H409 H 0.03839 0.36287 0.57321 0.0
H410 H 0.05649 0.35422 0.53763 0.0
H411 H 0.07846 0.48699 0.53148 0.0
H412 H 0.04762 0.48498 0.49559 0.0
H413 H 0.09043 0.4882 0.49252 0.0
H414 H 0.85893 0.48738 0.52552 0.0
H415 H 0.84505 0.52537 0.52337 0.0
H416 H 0.85491 0.51379 0.5625 0.0
H417 H -0.00493 0.56611 0.59949 0.0
H418 H -0.00412 0.54331 0.55934 0.0
H419 H 0.01125 0.52908 0.59584 0.0
H420 H 0.95723 0.46789 0.31898 0.0
H421 H -0.00292 0.47216 0.30802 0.0
H422 H 0.97403 0.50432 0.30485 0.0
H423 H 0.0094 0.59661 0.43778 0.0
H424 H 0.03177 0.56364 0.43785 0.0
H425 H -0.00126 0.56461 0.46013 0.0
H426 H 0.95424 0.63775 0.41961 0.0
H427 H 0.91131 0.63034 0.42237 0.0
H428 H 0.94287 0.64214 0.45935 0.0
H429 H 0.94642 0.51751 0.46588 0.0
H430 H 0.97606 0.53932 0.50226 0.0
H431 H 0.93825 0.51363 0.50589 0.0
H432 H 0.146 0.47222 0.45787 0.0
H433 H 0.13954 0.43396 0.42858 0.0
H434 H 0.13455 0.47142 0.41449 0.0
H435 H 0.99312 0.4862 0.4108 0.0
H436 H 0.01239 0.46273 0.43748 0.0
H437 H 0.02194 0.50699 0.44841 0.0
H438 H -0.0001 0.52925 0.68411 0.0
H439 H 0.98449 0.48674 0.68511 0.0
H440 H 0.02755 0.5008 0.68517 0.0
H441 H 0.98437 0.46656 0.55206 0.0
H442 H 0.02263 0.48962 0.54666 0.0
H443 H 0.01256 0.44524 0.53376 0.0
O444 O 0.0479 0.4003 0.54927 0.0
O445 O 0.06635 0.444 0.49792 0.0
O446 O 0.89358 0.52939 0.54199 0.0
O447 O 0.96161 0.52319 0.58283 0.0
O448 O -0.00558 0.50074 0.35093 0.0
O449 O 0.98533 0.55206 0.41049 0.0
O450 O 0.93673 0.59561 0.4337 0.0
O451 O 0.93444 0.55707 0.49229 0.0
O452 O 0.09871 0.45126 0.4361 0.0
O453 O 0.04147 0.48633 0.41117 0.0
O454 O -0.00432 0.496 0.64213 0.0
O455 O 0.02581 0.46348 0.58288 0.0
C456 C 0.60807 0.92372 0.607 0.0
C457 C 0.59995 0.92774 0.63781 0.0
C458 C 0.56565 0.92065 0.6317 0.0
N459 N 0.58009 0.91449 0.5845 0.0
N460 N 0.55474 0.9127 0.59895 0.0
C461 C 0.6416 0.92692 0.599 0.0
H462 H 0.64908 0.90283 0.59754 0.0
H463 H 0.65985 0.94529 0.61833 0.0
H464 H 0.64126 0.93409 0.57484 0.0
C465 C 0.54415 0.91732 0.65626 0.0
H466 H 0.51811 0.91598 0.64489 0.0
H467 H 0.5524 0.93839 0.67737 0.0
H468 H 0.54621 0.89457 0.66569 0.0
C469 C 0.49824 0.14222 0.38868 0.0
C470 C 0.5488 0.13422 0.38928 0.0
C471 C 0.52634 0.15169 0.37646 0.0
N472 N 0.50438 0.1207 0.40782 0.0
N473 N 0.53438 0.1157 0.4079 0.0
H474 H 0.46562 0.17525 0.3948 0.0
H475 H 0.46025 0.15266 0.35357 0.0
H476 H 0.44576 0.13237 0.38477 0.0
C477 C 0.46541 0.15092 0.37982 0.0
H478 H 0.59549 0.16154 0.3855 0.0
H479 H 0.58342 0.12095 0.36044 0.0
H480 H 0.59755 0.12578 0.40401 0.0
C481 C 0.58346 0.13579 0.38478 0.0
C482 C 0.52213 0.83797 0.52185 0.0
C483 C 0.57378 0.96724 0.53742 0.0
C484 C 0.40452 0.06743 0.59899 0.0
N485 N 0.3961 0.05206 0.56742 0.0
N486 N 0.39999 0.07356 0.54851 0.0
C487 C 0.41434 0.10088 0.60001 0.0
C488 C 0.41117 0.10376 0.56725 0.0
H489 H 0.40684 0.02438 0.61955 0.0
H490 H 0.38057 0.04986 0.63528 0.0
H491 H 0.42447 0.0632 0.64815 0.0
C492 C 0.40434 0.05018 0.62718 0.0
H493 H 0.40417 0.13081 0.52846 0.0
H494 H 0.44423 0.14163 0.55459 0.0
H495 H 0.41022 0.15495 0.56968 0.0
C496 C 0.41753 0.13458 0.55415 0.0
C497 C 0.63751 0.8754 0.49223 0.0
C498 C 0.61534 0.85395 0.52978 0.0
N499 N 0.61639 0.89332 0.50254 0.0
N500 N 0.6029 0.88026 0.52454 0.0
C501 C 0.63773 0.84978 0.5093 0.0
H502 H 0.67969 0.89473 0.4743 0.0
H503 H 0.65519 0.8569 0.44921 0.0
H504 H 0.64103 0.89522 0.44892 0.0
C505 C 0.65416 0.88076 0.46436 0.0
C506 C 0.60646 0.83413 0.55445 0.0
H507 H 0.62823 0.82567 0.56614 0.0
H508 H 0.58715 0.81224 0.54195 0.0
H509 H 0.59653 0.84879 0.57341 0.0
C510 C 0.33028 0.00142 0.48711 0.0
C511 C 0.44915 0.00373 0.55851 0.0
C512 C 0.59985 0.13415 0.47897 0.0
N513 N 0.5857 0.10343 0.46302 0.0
C514 C 0.63226 0.13436 0.49306 0.0
N515 N 0.60708 0.08431 0.46621 0.0
C516 C 0.63583 0.10199 0.4844 0.0
H517 H 0.58755 0.17308 0.45601 0.0
H518 H 0.59425 0.18251 0.50014 0.0
H519 H 0.5567 0.15507 0.47604 0.0
C520 C 0.58361 0.16294 0.47797 0.0
H521 H 0.66187 0.06224 0.48302 0.0
C522 C 0.66713 0.08949 0.48818 0.0
H523 H 0.68182 0.09833 0.4707 0.0
H524 H 0.68193 0.09895 0.51335 0.0
C525 C 0.34023 0.94573 0.592 0.0
C526 C 0.32695 0.99092 0.57872 0.0
N527 N 0.36177 0.95867 0.57511 0.0
N528 N 0.35342 0.98525 0.56678 0.0
C529 C 0.31758 0.966 0.59512 0.0
H530 H 0.351 0.92416 0.63376 0.0
C531 C 0.34284 0.91626 0.60676 0.0
H532 H 0.3607 0.90313 0.59659 0.0
H533 H 0.31851 0.8994 0.60168 0.0
H534 H 0.3232 0.04006 0.59764 0.0
H535 H 0.28521 0.01418 0.57432 0.0
C536 C 0.31216 0.02035 0.57571 0.0
H537 H 0.31752 0.0298 0.55376 0.0
C538 C 0.55562 0.04087 0.37379 0.0
C539 C 0.51465 0.0741 0.48495 0.0
C540 C 0.39373 0.04008 0.38775 0.0
N541 N 0.41754 0.05928 0.41177 0.0
C542 C 0.40689 0.03396 0.35969 0.0
C543 C 0.4396 0.05061 0.3691 0.0
N544 N 0.44497 0.06512 0.40092 0.0
C545 C 0.35848 0.03127 0.39051 0.0
H546 H 0.35548 0.03926 0.41602 0.0
H547 H 0.34328 0.04304 0.37376 0.0
H548 H 0.34948 0.00432 0.38303 0.0
C549 C 0.46448 0.0546 0.34789 0.0
H550 H 0.48959 0.05837 0.36281 0.0
H551 H 0.45988 0.03285 0.32761 0.0
H552 H 0.46274 0.07666 0.33714 0.0
C553 C 0.49176 0.84152 0.6059 0.0
C554 C 0.4633 0.83212 0.61758 0.0
C555 C 0.44266 0.85265 0.60775 0.0
N556 N 0.48761 0.86604 0.5901 0.0
N557 N 0.4585 0.87296 0.59151 0.0
H558 H 0.52011 0.80474 0.59703 0.0
H559 H 0.52957 0.82776 0.63841 0.0
H560 H 0.54356 0.84629 0.60597 0.0
C561 C 0.52325 0.82962 0.61227 0.0
C562 C 0.40811 0.8518 0.61221 0.0
H563 H 0.39521 0.82611 0.6104 0.0
H564 H 0.40836 0.86591 0.63693 0.0
H565 H 0.39479 0.86297 0.59346 0.0
C566 C 0.45669 0.14966 0.46631 0.0
C567 C 0.43268 0.02328 0.47428 0.0
C568 C 0.56969 0.92866 0.39752 0.0
C569 C 0.5568 0.89534 0.394 0.0
C570 C 0.5629 0.88909 0.42557 0.0
N571 N 0.58268 0.94076 0.4294 0.0
N572 N 0.57836 0.91736 0.44614 0.0
C573 C 0.57375 0.94745 0.37091 0.0
H574 H 0.57885 0.97423 0.38099 0.0
H575 H 0.5947 0.94133 0.35999 0.0
H576 H 0.55138 0.9407 0.35121 0.0
C577 C 0.55642 0.85666 0.43564 0.0
H578 H 0.55229 0.86021 0.46115 0.0
H579 H 0.53482 0.83987 0.41873 0.0
H580 H 0.57822 0.84528 0.43484 0.0
C581 C 0.3396 0.09651 0.48497 0.0
C582 C 0.33659 0.11755 0.46289 0.0
C583 C 0.36279 0.11551 0.44677 0.0
N584 N 0.36575 0.08302 0.48143 0.0
N585 N 0.37991 0.09475 0.45914 0.0
C586 C 0.32086 0.09251 0.5117 0.0
H587 H 0.29689 0.07543 0.50122 0.0
H588 H 0.316 0.1165 0.52292 0.0
H589 H 0.33467 0.0821 0.53079 0.0
C590 C 0.37108 0.13218 0.41975 0.0
H591 H 0.34832 0.13462 0.40363 0.0
H592 H 0.38607 0.15714 0.43046 0.0
H593 H 0.38569 0.11821 0.40518 0.0
C594 C 0.66456 0.97126 0.49939 0.0
C595 C 0.5477 -0.00042 0.46234 0.0
C596 C 0.40144 0.86193 0.51676 0.0
N597 N 0.41388 0.89185 0.53565 0.0
N598 N 0.39225 0.91067 0.53193 0.0
C599 C 0.36991 0.86182 0.50016 0.0
C600 C 0.36509 0.89351 0.51046 0.0
H601 H 0.44489 0.84172 0.52238 0.0
H602 H 0.41169 0.82133 0.53803 0.0
H603 H 0.40925 0.81489 0.49432 0.0
C604 C 0.41781 0.83324 0.5177 0.0
H605 H 0.33807 0.93227 0.50986 0.0
H606 H 0.31909 0.89497 0.48 0.0
H607 H 0.31838 0.89648 0.52269 0.0
C608 C 0.33333 0.90507 0.5053 0.0
C609 C 0.64722 0.03935 0.40137 0.0
N610 N 0.62864 0.02886 0.42195 0.0
N611 N 0.63502 0.0008 0.42816 0.0
C612 C 0.66615 0.01617 0.39373 0.0
C613 C 0.65752 0.99192 0.41128 0.0
C614 C 0.64669 0.07076 0.38949 0.0
H615 H 0.62931 0.06579 0.36557 0.0
H616 H 0.67148 0.0816 0.38599 0.0
H617 H 0.63824 0.08841 0.40719 0.0
C618 C 0.66732 0.9593 0.40894 0.0
H619 H 0.66877 0.94926 0.38329 0.0
H620 H 0.692 0.96245 0.42461 0.0
H621 H 0.64952 0.94178 0.41753 0.0
C622 C 0.43188 0.94461 0.63021 0.0
C623 C 0.48819 0.93398 0.52924 0.0
Cu624 Cu 0.57076 0.89959 0.5399 0.0
Cu625 Cu 0.51479 0.89289 0.57096 0.0
Cu626 Cu 0.38132 0.00898 0.54597 0.0
Cu627 Cu 0.38741 0.05636 0.50399 0.0
Cu628 Cu 0.54753 0.0858 0.43203 0.0
Cu629 Cu 0.59476 0.04322 0.43921 0.0
Cu630 Cu 0.41888 0.08188 0.45345 0.0
Cu631 Cu 0.47925 0.09495 0.42969 0.0
Cu632 Cu 0.60858 0.98006 0.45268 0.0
Cu633 Cu 0.59982 0.92808 0.48952 0.0
Cu634 Cu 0.4482 0.90683 0.57155 0.0
Cu635 Cu 0.40013 0.94887 0.5634 0.0
H636 H 0.49633 0.8286 0.50854 0.0
H637 H 0.52687 0.82642 0.5434 0.0
H638 H 0.53887 0.83172 0.50519 0.0
H639 H 0.56304 0.96539 0.55944 0.0
H640 H 0.56104 0.98278 0.52327 0.0
H641 H 0.60034 0.97855 0.54528 0.0
H642 H 0.32826 0.98868 0.46142 0.0
H643 H 0.31778 0.02248 0.48734 0.0
H644 H 0.31838 0.98407 0.50073 0.0
H645 H 0.4506 0.0299 0.55698 0.0
H646 H 0.46587 -0.00636 0.54382 0.0
H647 H 0.45671 0.00202 0.58451 0.0
H648 H 0.53236 0.02317 0.36189 0.0
H649 H 0.57658 0.02999 0.36788 0.0
H650 H 0.55611 0.06394 0.36448 0.0
H651 H 0.50156 0.05071 0.48943 0.0
H652 H 0.50492 0.09484 0.49682 0.0
H653 H 0.54116 0.07759 0.4957 0.0
H654 H 0.48216 0.16435 0.47409 0.0
H655 H 0.44469 0.15557 0.44328 0.0
H656 H 0.44262 0.15558 0.48575 0.0
H657 H 0.44855 0.01711 0.49503 0.0
H658 H 0.4098 0.00417 0.46575 0.0
H659 H 0.44607 0.02424 0.45386 0.0
H660 H 0.67681 -0.00285 0.50124 0.0
H661 H 0.67139 0.9639 0.52324 0.0
H662 H 0.67254 0.95516 0.48002 0.0
H663 H 0.54277 0.9731 0.46321 0.0
H664 H 0.54065 0.01366 0.48373 0.0
H665 H 0.53296 0.00309 0.43935 0.0
H666 H 0.42334 0.96745 0.63861 0.0
H667 H 0.41452 0.92322 0.63362 0.0
H668 H 0.45667 0.94576 0.64478 0.0
H669 H 0.46263 0.93455 0.51795 0.0
H670 H 0.50368 0.9589 0.5335 0.0
H671 H 0.4977 0.91663 0.51231 0.0
O672 O 0.52756 0.87138 0.53197 0.0
O673 O 0.56995 0.93651 0.51853 0.0
O674 O 0.36279 0.0124 0.50171 0.0
O675 O 0.41754 0.98651 0.54639 0.0
O676 O 0.55779 0.04728 0.40708 0.0
O677 O 0.51047 0.0731 0.45185 0.0
O678 O 0.45753 0.11692 0.4614 0.0
O679 O 0.42497 0.05322 0.48401 0.0
O680 O 0.63117 0.96836 0.49177 0.0
O681 O 0.5805 0.01027 0.4632 0.0
O682 O 0.43344 0.94172 0.59773 0.0
O683 O 0.48856 0.92394 0.55853 0.0
C684 C 0.63127 0.43914 0.07377 0.0
C685 C 0.63582 0.44891 0.1077 0.0
C686 C 0.60418 0.44745 0.11387 0.0
N687 N 0.59882 0.43184 0.06133 0.0
N688 N 0.58275 0.43645 0.08525 0.0
C689 C 0.65688 0.43288 0.05421 0.0
H690 H 0.65958 0.407 0.05244 0.0
H691 H 0.68099 0.44911 0.06625 0.0
H692 H 0.6493 0.43692 0.02897 0.0
C693 C 0.59446 0.44985 0.14661 0.0
H694 H 0.56777 0.44941 0.14413 0.0
H695 H 0.60829 0.47302 0.16331 0.0
H696 H 0.60066 0.42912 0.1578 0.0
C697 C 0.46982 0.63485 0.88802 0.0
C698 C 0.51639 0.62691 0.87361 0.0
C699 C 0.49054 0.64294 0.8668 0.0
N700 N 0.48315 0.61531 0.90612 0.0
N701 N 0.5106 0.61024 0.89715 0.0
H702 H 0.43754 0.66518 0.90402 0.0
H703 H 0.42381 0.64236 0.86247 0.0
H704 H 0.42102 0.62168 0.89654 0.0
C705 C 0.43595 0.64125 0.88759 0.0
H706 H 0.55404 0.65148 0.85233 0.0
H707 H 0.53919 0.60861 0.83458 0.0
H708 H 0.56602 0.62036 0.87426 0.0
C709 C 0.54575 0.62698 0.85794 0.0
C710 C 0.52559 0.35196 0.0285 0.0
C711 C 0.56412 0.46901 0.00388 0.0
C712 C 0.44568 0.59921 0.12742 0.0
N713 N 0.43015 0.57726 0.10005 0.0
N714 N 0.4255 0.59244 0.07547 0.0
C715 C 0.45065 0.6302 0.11948 0.0
C716 C 0.43723 0.62479 0.08613 0.0
H717 H 0.44034 0.5661 0.16089 0.0
H718 H 0.4475 0.60945 0.17939 0.0
H719 H 0.48045 0.59173 0.16699 0.0
C720 C 0.45367 0.59102 0.16059 0.0
H721 H 0.43432 0.63831 0.03919 0.0
H722 H 0.45568 0.67106 0.07378 0.0
H723 H 0.4115 0.65842 0.06576 0.0
C724 C 0.4348 0.64968 0.06495 0.0
C725 C 0.617 0.36551 0.95689 0.0
C726 C 0.60964 0.35541 0.00516 0.0
N727 N 0.6006 0.38701 0.97048 0.0
N728 N 0.59607 0.38085 -0.00091 0.0
C729 C 0.6234 0.34477 0.97853 0.0
H730 H 0.65019 0.37533 0.92496 0.0
H731 H 0.62059 0.33737 0.91068 0.0
H732 H 0.60816 0.37632 0.90851 0.0
C733 C 0.62417 0.36345 0.92316 0.0
C734 C 0.61088 0.343 0.03641 0.0
H735 H 0.63507 0.33655 0.0441 0.0
H736 H 0.59148 0.32055 0.03247 0.0
H737 H 0.60641 0.36176 0.05602 0.0
C738 C 0.34776 0.51504 0.04321 0.0
C739 C 0.47779 0.52499 0.08323 0.0
C740 C 0.59334 0.6189 0.94777 0.0
N741 N 0.57298 0.59051 0.93228 0.0
C742 C 0.6253 0.61342 0.95208 0.0
N743 N 0.58998 0.56751 0.92705 0.0
C744 C 0.62209 0.58033 0.93844 0.0
H745 H 0.55582 0.6479 0.94731 0.0
H746 H 0.59524 0.66839 0.94126 0.0
H747 H 0.59042 0.66196 0.98125 0.0
C748 C 0.58286 0.65108 0.95467 0.0
H749 H 0.63974 0.5353 0.93417 0.0
C750 C 0.64888 0.56172 0.93479 0.0
H751 H 0.65673 0.56395 0.91131 0.0
H752 H 0.67047 0.57187 0.95515 0.0
C753 C 0.39088 0.47875 0.15256 0.0
C754 C 0.37218 0.52155 0.13909 0.0
N755 N 0.40827 0.49137 0.13207 0.0
N756 N 0.39658 0.51633 0.12342 0.0
C757 C 0.3675 0.49765 0.15791 0.0
H758 H 0.38946 0.44898 0.1892 0.0
C759 C 0.39468 0.44775 0.16415 0.0
H760 H 0.41975 0.44324 0.16376 0.0
H761 H 0.37696 0.42675 0.14736 0.0
H762 H 0.35544 0.56493 0.1569 0.0
H763 H 0.3255 0.53487 0.12645 0.0
C764 C 0.35197 0.54678 0.13369 0.0
H765 H 0.35949 0.55986 0.11456 0.0
C766 C 0.51649 0.53507 0.84795 0.0
C767 C 0.51992 0.57381 0.97897 0.0
C768 C 0.37906 0.53978 0.91282 0.0
N769 N 0.4079 0.55506 0.93257 0.0
C770 C 0.38397 0.53386 0.88075 0.0
C771 C 0.41731 0.54591 0.8833 0.0
N772 N 0.43067 0.55885 0.91494 0.0
C773 C 0.34683 0.53532 0.92366 0.0
H774 H 0.35052 0.53311 0.9498 0.0
H775 H 0.33554 0.55685 0.92103 0.0
H776 H 0.3297 0.51315 0.90808 0.0
C777 C 0.43406 0.55153 0.85559 0.0
H778 H 0.46096 0.55815 0.86444 0.0
H779 H 0.42774 0.52905 0.83601 0.0
H780 H 0.42557 0.57168 0.84493 0.0
C781 C 0.54034 0.37221 0.12451 0.0
C782 C 0.52188 0.36619 0.14815 0.0
C783 C 0.49855 0.38588 0.14521 0.0
N784 N 0.52821 0.39408 0.10886 0.0
N785 N 0.50372 0.40263 0.12157 0.0
H786 H 0.56287 0.33425 0.10356 0.0
H787 H 0.58586 0.35845 0.1423 0.0
H788 H 0.58475 0.37526 0.10533 0.0
C789 C 0.57035 0.35949 0.11865 0.0
C790 C 0.47033 0.38673 0.16242 0.0
H791 H 0.46017 0.36177 0.16593 0.0
H792 H 0.47904 0.40306 0.18695 0.0
H793 H 0.45083 0.39637 0.1482 0.0
C794 C 0.45847 0.64659 0.97992 0.0
C795 C 0.43155 0.52264 -0.00313 0.0
C796 C 0.53237 0.40748 0.86776 0.0
C797 C 0.52058 0.37527 0.87029 0.0
C798 C 0.5324 0.37408 0.90286 0.0
N799 N 0.55008 0.42371 0.89712 0.0
N800 N 0.55019 0.40395 0.91803 0.0
C801 C 0.5296 0.42175 0.83752 0.0
H802 H 0.52887 0.44821 0.84392 0.0
H803 H 0.55158 0.41972 0.82667 0.0
H804 H 0.5073 0.40837 0.81912 0.0
C805 C 0.5316 0.34409 0.9175 0.0
H806 H 0.53864 0.35099 0.94463 0.0
H807 H 0.50669 0.32817 0.91032 0.0
H808 H 0.54906 0.32981 0.90805 0.0
C809 C 0.35041 0.60486 0.02057 0.0
C810 C 0.34162 0.6208 -0.00489 0.0
C811 C 0.36293 0.61493 0.97398 0.0
N812 N 0.37498 0.58996 0.01395 0.0
N813 N 0.38291 0.5966 0.98658 0.0
C814 C 0.33688 0.60505 0.05115 0.0
H815 H 0.30959 0.59943 0.04489 0.0
H816 H 0.34492 0.62988 0.06707 0.0
H817 H 0.34597 0.58713 0.06494 0.0
C818 C 0.36566 0.6282 0.94366 0.0
H819 H 0.34243 0.61902 0.92522 0.0
H820 H 0.36975 0.65542 0.9496 0.0
H821 H 0.38616 0.62047 0.93314 0.0
C822 C 0.64298 0.45713 0.94673 0.0
C823 C 0.52365 0.48726 0.93162 0.0
C824 C 0.42488 0.38557 0.06412 0.0
N825 N 0.44122 0.41535 0.08102 0.0
N826 N 0.42067 0.43535 0.08328 0.0
C827 C 0.39186 0.38693 0.0557 0.0
C828 C 0.39017 0.41907 0.06851 0.0
H829 H 0.46594 0.36134 0.07121 0.0
H830 H 0.42585 0.3357 0.06795 0.0
H831 H 0.43812 0.34729 0.03214 0.0
C832 C 0.43978 0.35586 0.05879 0.0
H833 H 0.34181 0.42235 0.04484 0.0
H834 H 0.349 0.42911 0.08893 0.0
H835 H 0.36707 0.46062 0.06974 0.0
C836 C 0.36023 0.43371 0.06773 0.0
C837 C 0.60715 0.51836 0.85192 0.0
N838 N 0.59005 0.50818 0.87377 0.0
N839 N 0.59614 0.47968 0.8788 0.0
C840 C 0.62484 0.49461 0.84255 0.0
C841 C 0.61703 0.47031 0.86016 0.0
C842 C 0.60976 0.55167 0.84356 0.0
H843 H 0.59819 0.54904 0.8174 0.0
H844 H 0.63603 0.56363 0.84686 0.0
H845 H 0.59721 0.56725 0.8591 0.0
C846 C 0.62963 0.43922 0.85978 0.0
H847 H 0.63159 0.42852 0.83447 0.0
H848 H 0.65454 0.44469 0.87552 0.0
H849 H 0.61317 0.42131 0.86937 0.0
C850 C 0.48954 0.47834 0.16656 0.0
C851 C 0.49681 0.45156 0.0428 0.0
Cu852 Cu 0.57365 0.40772 0.02189 0.0
Cu853 Cu 0.53937 0.41477 0.07572 0.0
Cu854 Cu 0.41251 0.53282 0.08987 0.0
Cu855 Cu 0.40152 0.5668 0.03626 0.0
Cu856 Cu 0.52887 0.57819 0.91376 0.0
Cu857 Cu 0.56635 0.52794 0.9016 0.0
Cu858 Cu 0.4183 0.58058 0.97431 0.0
Cu859 Cu 0.46835 0.58992 0.9347 0.0
Cu860 Cu 0.57878 0.46358 0.91165 0.0
Cu861 Cu 0.58118 0.41969 0.95655 0.0
Cu862 Cu 0.48371 0.43287 0.10322 0.0
Cu863 Cu 0.43814 0.4766 0.10884 0.0
H864 H 0.49872 0.34487 0.0269 0.0
H865 H 0.53885 0.34285 0.04889 0.0
H866 H 0.53174 0.34094 0.00512 0.0
H867 H 0.5716 0.47495 0.03098 0.0
H868 H 0.53995 0.47553 -0.00327 0.0
H869 H 0.58274 0.48345 0.99336 0.0
H870 H 0.34208 0.49065 0.02649 0.0
H871 H 0.3342 0.53174 0.03148 0.0
H872 H 0.34 0.51239 0.06658 0.0
H873 H 0.48369 0.5481 0.10193 0.0
H874 H 0.48004 0.53065 0.0589 0.0
H875 H 0.49544 0.50947 0.09017 0.0
H876 H 0.4954 0.51399 0.83871 0.0
H877 H 0.53714 0.53047 0.83587 0.0
H878 H 0.50906 0.55766 0.84209 0.0
H879 H 0.52849 0.6006 0.98868 0.0
H880 H 0.54139 0.56177 0.9807 0.0
H881 H 0.50276 0.56348 0.99362 0.0
H882 H 0.4753 0.65741 0.00389 0.0
H883 H 0.46817 0.6576 0.96052 0.0
H884 H 0.43376 0.65191 0.9809 0.0
H885 H 0.45576 0.52119 0.99038 0.0
H886 H 0.42839 0.50944 0.01706 0.0
H887 H 0.41166 0.51087 0.97529 0.0
H888 H 0.65673 0.45945 0.9721 0.0
H889 H 0.64581 0.43433 0.93116 0.0
H890 H 0.65288 0.47862 0.93677 0.0
H891 H 0.51947 0.46218 0.9369 0.0
H892 H 0.51888 0.50465 0.95216 0.0
H893 H 0.50657 0.4873 0.90861 0.0
H894 H 0.48233 0.50136 0.17696 0.0
H895 H 0.47777 0.45793 0.17677 0.0
H896 H 0.51666 0.48142 0.17311 0.0
H897 H 0.47028 0.45141 0.04141 0.0
H898 H 0.50944 0.47615 0.04059 0.0
H899 H 0.49972 0.43261 0.02248 0.0
O900 O 0.53474 0.38547 0.0338 0.0
O901 O 0.56175 0.43608 0.9926 0.0
O902 O 0.38091 0.52752 0.049 0.0
O903 O 0.44638 0.50871 0.08209 0.0
O904 O 0.52613 0.53863 0.88123 0.0
O905 O 0.50417 0.56859 0.94683 0.0
O906 O 0.45647 0.6133 0.97314 0.0
O907 O 0.42977 0.55489 0.00652 0.0
O908 O 0.61039 0.45608 0.94712 0.0
O909 O 0.5555 0.49624 0.92804 0.0
O910 O 0.47972 0.47169 0.13312 0.0
O911 O 0.5101 0.44495 0.0723 0.0
C912 C 0.96436 0.16294 0.19402 0.0
C913 C 0.94253 0.15582 0.16369 0.0
C914 C 0.95658 0.18093 0.22144 0.0
C915 C 0.91348 0.24327 0.24744 0.0
H916 H 0.92755 0.21317 0.32964 0.0
C917 C 0.94019 0.33666 0.36507 0.0
C918 C 0.97122 0.33574 0.38271 0.0
C919 C 0.92168 0.30891 0.34251 0.0
C920 C 0.92302 0.22175 0.30683 0.0
H921 H 0.89554 0.16168 0.1379 0.0
H922 H 0.88282 0.19491 0.18571 0.0
H923 H 0.92646 0.17587 0.27835 0.0
H924 H 0.00596 0.30463 0.3931 0.0
H925 H 0.97411 0.25661 0.35428 0.0
H926 H 0.91317 0.28998 0.27582 0.0
C927 C 0.90569 0.18623 0.18821 0.0
C928 C 0.92249 0.20047 0.27759 0.0
C929 C 0.91325 0.16778 0.16086 0.0
C930 C 0.98192 0.30592 0.38016 0.0
C931 C 0.96349 0.27826 0.35779 0.0
C932 C 0.91446 0.26472 0.27672 0.0
C933 C 0.927 0.19231 0.21882 0.0
C934 C 0.91948 0.21169 0.24799 0.0
C935 C 0.9341 0.27999 0.33736 0.0
C936 C 0.92125 0.25473 0.3069 0.0
H937 H 0.98705 0.15395 0.19664 0.0
H938 H 0.97373 0.18602 0.24474 0.0
H939 H 0.91097 0.25233 0.22479 0.0
H940 H 0.93121 0.35934 0.36722 0.0
H941 H 0.89885 0.31079 0.32749 0.0
C942 C 0.81464 0.00564 0.16751 0.0
C943 C 0.84689 0.00073 0.17539 0.0
C944 C 0.79498 0.00665 0.19106 0.0
C945 C 0.78562 0.98245 0.26942 0.0
H946 H 0.73578 0.0516 0.2779 0.0
C947 C 0.71868 0.00785 0.37686 0.0
C948 C 0.68743 0.01524 0.36929 0.0
C949 C 0.73845 0.00614 0.35339 0.0
C950 C 0.74924 0.03191 0.27561 0.0
H951 H 0.88395 0.993 0.21388 0.0
H952 H 0.84949 -0.00565 0.25501 0.0
H953 H 0.76914 0.04754 0.23603 0.0
H954 H 0.65182 0.02573 0.33124 0.0
H955 H 0.68619 0.02272 0.2902 0.0
H956 H 0.76557 0.96667 0.30886 0.0
C957 C 0.83927 -0.00288 0.23056 0.0
C958 C 0.76834 0.0296 0.25162 0.0
C959 C 0.85896 -0.00375 0.20702 0.0
C960 C 0.67617 0.0208 0.33792 0.0
C961 C 0.69585 0.01899 0.31442 0.0
C962 C 0.7664 0.98468 0.29335 0.0
C963 C 0.80718 0.00264 0.22291 0.0
C964 C 0.78671 0.00484 0.24825 0.0
C965 C 0.72722 0.01162 0.32187 0.0
C966 C 0.74797 0.00943 0.2967 0.0
H967 H 0.80455 0.00853 0.14309 0.0
H968 H 0.77015 0.0104 0.1843 0.0
H969 H 0.79923 0.96289 0.26714 0.0
H970 H 0.72793 0.00371 0.40102 0.0
H971 H 0.76267 0.00085 0.36006 0.0
C972 C 0.98754 0.82962 0.18082 0.0
C973 C 0.9909 0.82257 0.14805 0.0
C974 C 0.9806 0.80429 0.19753 0.0
C975 C 0.9455 0.71614 0.18474 0.0
H976 H 0.99131 0.72646 0.27466 0.0
C977 C 0.94102 0.61182 0.25863 0.0
C978 C 0.94099 0.6207 0.29216 0.0
C979 C 0.94369 0.6358 0.23952 0.0
C980 C 0.97795 0.72341 0.24972 0.0
H981 H 0.98952 0.78381 0.10678 0.0
H982 H 0.97799 0.73925 0.13628 0.0
H983 H 0.00448 0.7694 0.24425 0.0
H984 H 0.94257 0.66115 0.33191 0.0
H985 H 0.94607 0.70281 0.29844 0.0
H986 H 0.9191 0.66992 0.19034 0.0
C987 C 0.98046 0.76437 0.14894 0.0
C988 C 0.98558 0.74796 0.23229 0.0
C989 C 0.9875 0.78981 0.13223 0.0
C990 C 0.94193 0.65356 0.30598 0.0
C991 C 0.9445 0.67747 0.28693 0.0
C992 C 0.93785 0.69149 0.20224 0.0
C993 C 0.97689 0.7714 0.18176 0.0
C994 C 0.96933 0.74469 0.1997 0.0
C995 C 0.94644 0.669 0.25377 0.0
C996 C 0.95388 0.69502 0.23499 0.0
H997 H 0.99032 0.85476 0.19356 0.0
H998 H 0.97765 0.81046 0.22269 0.0
H999 H 0.93235 0.71315 0.15974 0.0
H1000 H 0.94009 0.58654 0.24746 0.0
H1001 H 0.94522 0.62855 0.21405 0.0
C1002 C 0.36713 0.98822 0.32026 0.0
C1003 C 0.38808 0.01912 0.32632 0.0
C1004 C 0.34488 0.97657 0.29046 0.0
C1005 C 0.29933 0.00957 0.22642 0.0
H1006 H 0.26705 0.91748 0.18613 0.0
C1007 C 0.18853 0.96589 0.1181 0.0
C1008 C 0.16471 0.9398 0.12156 0.0
C1009 C 0.21926 0.97441 0.13919 0.0
C1010 C 0.27583 0.94328 0.19718 0.0
H1011 H 0.40396 0.0613 0.30561 0.0
H1012 H 0.36577 0.04056 0.25298 0.0
H1013 H 0.3169 0.9339 0.2289 0.0
H1014 H 0.15404 0.90171 0.14906 0.0
H1015 H 0.20769 0.91682 0.18639 0.0
H1016 H 0.25795 0.01888 0.19523 0.0
C1017 C 0.36599 0.02557 0.27145 0.0
C1018 C 0.30434 0.95268 0.22162 0.0
C1019 C 0.38813 0.03727 0.30137 0.0
C1020 C 0.17203 0.92214 0.14621 0.0
C1021 C 0.20281 0.93051 0.16721 0.0
C1022 C 0.27097 0.00018 0.2019 0.0
C1023 C 0.34334 -0.00439 0.26611 0.0
C1024 C 0.31599 0.98587 0.23702 0.0
C1025 C 0.22667 0.95684 0.16401 0.0
C1026 C 0.25855 0.96689 0.18755 0.0
H1027 H 0.36712 0.97361 0.33904 0.0
H1028 H 0.32769 0.9535 0.28729 0.0
H1029 H 0.30723 0.03527 0.23814 0.0
H1030 H 0.18321 0.98009 0.09947 0.0
H1031 H 0.23722 -0.00526 0.13612 0.0
C1032 C -0.00277 0.8571 0.81294 0.0
C1033 C 0.98212 0.86041 0.84011 0.0
C1034 C 0.98064 0.83661 0.78351 0.0
C1035 C 0.92075 0.76264 0.74946 0.0
H1036 H 0.93155 0.79046 0.66808 0.0
C1037 C 0.90355 0.66804 0.6314 0.0
C1038 C 0.93202 0.6716 0.61812 0.0
C1039 C 0.89813 0.694 0.65355 0.0
C1040 C 0.92795 0.78243 0.69053 0.0
H1041 H 0.93855 0.84445 0.85874 0.0
H1042 H 0.90932 0.80715 0.80672 0.0
H1043 H 0.94312 0.83131 0.71911 0.0
H1044 H 0.97592 0.70489 0.61508 0.0
H1045 H 0.96682 0.75061 0.65424 0.0
H1046 H 0.90773 0.71358 0.72138 0.0
C1047 C 0.93381 0.82113 0.80825 0.0
C1048 C 0.93449 0.80572 0.71964 0.0
C1049 C 0.95046 0.84212 0.83787 0.0
C1050 C 0.9539 0.70191 0.62528 0.0
C1051 C 0.94848 0.72797 0.64743 0.0
C1052 C 0.91416 0.73931 0.72031 0.0
C1053 C 0.94868 0.81868 0.78072 0.0
C1054 C 0.93267 0.79579 0.74955 0.0
C1055 C 0.9211 0.72387 0.66259 0.0
C1056 C 0.91939 0.74889 0.69093 0.0
H1057 H 0.02198 0.87049 0.81446 0.0
H1058 H 0.99312 0.83433 0.76302 0.0
H1059 H 0.91927 0.75438 0.77223 0.0
H1060 H 0.88622 0.64473 0.62564 0.0
H1061 H 0.87671 0.69031 0.66462 0.0
C1062 C 0.11556 0.9481 0.77419 0.0
C1063 C 0.12441 0.97606 0.79955 0.0
C1064 C 0.13334 0.94499 0.74907 0.0
C1065 C 0.18806 -0.00581 0.70826 0.0
H1066 H 0.22022 0.91445 0.68433 0.0
C1067 C 0.29459 0.99214 0.6408 0.0
C1068 C 0.29297 0.9649 0.61607 0.0
C1069 C 0.27122 0.9918 0.66054 0.0
C1070 C 0.21096 0.93666 0.69034 0.0
H1071 H 0.15879 0.02237 0.8191 0.0
H1072 H 0.18954 0.01728 0.77508 0.0
H1073 H 0.18372 0.91689 0.72366 0.0
H1074 H 0.26595 0.91602 0.59216 0.0
H1075 H 0.22473 0.91525 0.62693 0.0
H1076 H 0.21544 0.01418 0.67538 0.0
C1077 C 0.16872 -0.00208 0.77432 0.0
C1078 C 0.19012 0.93805 0.71285 0.0
C1079 C 0.15115 0.00087 0.79946 0.0
C1080 C 0.26779 0.93713 0.61144 0.0
C1081 C 0.24427 0.93675 0.63123 0.0
C1082 C 0.20872 0.99276 0.68573 0.0
C1083 C 0.15998 0.96999 0.74886 0.0
C1084 C 0.17912 0.96711 0.72255 0.0
C1085 C 0.24567 0.96421 0.65587 0.0
C1086 C 0.22103 0.96428 0.67713 0.0
H1087 H 0.09457 0.92898 0.77343 0.0
H1088 H 0.12596 0.92335 0.72957 0.0
H1089 H 0.1794 0.01667 0.71486 0.0
H1090 H 0.31421 0.01359 0.64514 0.0
H1091 H 0.27343 0.01304 0.67979 0.0
C1092 C 0.04039 0.37775 0.721 0.0
C1093 C 0.04191 0.3691 0.68781 0.0
C1094 C 0.03587 0.35359 0.73965 0.0
C1095 C 0.00098 0.26586 0.72973 0.0
H1096 H 0.04606 0.27756 0.82009 0.0
C1097 C 0.9928 0.1617 0.80252 0.0
C1098 C 0.99147 0.16992 0.83579 0.0
C1099 C -0.00225 0.18619 0.78434 0.0
C1100 C 0.03295 0.27414 0.79501 0.0
H1101 H 0.04035 0.32871 0.64804 0.0
H1102 H 0.03329 0.28647 0.68079 0.0
H1103 H 0.05955 0.31996 0.78886 0.0
H1104 H -0.00642 0.20989 0.87617 0.0
H1105 H 0.00143 0.25281 0.84422 0.0
H1106 H 0.97433 0.22011 0.73585 0.0
C1107 C 0.03532 0.31187 0.69237 0.0
C1108 C 0.04077 0.29836 0.77712 0.0
C1109 C 0.0399 0.33606 0.67376 0.0
C1110 C -0.00592 0.20292 0.8504 0.0
C1111 C -0.00094 0.22747 0.83225 0.0
C1112 C 0.99314 0.24168 0.74762 0.0
C1113 C 0.03263 0.32033 0.72534 0.0
C1114 C 0.02491 0.29443 0.74426 0.0
C1115 C 0.00149 0.2194 0.79916 0.0
C1116 C 0.00907 0.24553 0.78043 0.0
H1117 H 0.04192 0.40314 0.73229 0.0
H1118 H 0.03366 0.36085 0.76492 0.0
H1119 H 0.98788 0.26243 0.70464 0.0
H1120 H 0.99056 0.13634 0.7907 0.0
H1121 H -0.00027 0.17919 0.75897 0.0
C1122 C 0.62535 0.96036 0.69403 0.0
C1123 C 0.62306 0.93291 0.6693 0.0
C1124 C 0.65091 0.96789 0.72161 0.0
C1125 C 0.7352 0.95632 0.74397 0.0
H1126 H 0.7282 0.99296 0.83249 0.0
C1127 C 0.84809 -0.00635 0.85036 0.0
C1128 C 0.85066 0.02353 0.87185 0.0
C1129 C 0.819 0.97966 0.82742 0.0
C1130 C 0.73055 0.98295 0.80783 0.0
H1131 H 0.64359 0.8904 0.65461 0.0
H1132 H 0.68806 0.90328 0.70284 0.0
H1133 H 0.67844 0.97311 0.78984 0.0
H1134 H 0.82561 0.0627 0.88627 0.0
H1135 H 0.77492 0.03859 0.84605 0.0
H1136 H 0.78721 0.96684 0.76153 0.0
C1137 C 0.67073 0.91942 0.70077 0.0
C1138 C 0.70207 0.97155 0.78348 0.0
C1139 C 0.6453 0.91199 0.67329 0.0
C1140 C 0.8239 0.03931 0.87019 0.0
C1141 C 0.79489 0.02544 0.84726 0.0
C1142 C 0.76362 0.96778 0.76824 0.0
C1143 C 0.67442 0.94799 0.72472 0.0
C1144 C 0.70415 0.95832 0.75125 0.0
C1145 C 0.79211 -0.00453 0.82557 0.0
C1146 C 0.76166 0.9815 0.80037 0.0
H1147 H 0.60851 0.9769 0.69119 0.0
H1148 H 0.65325 0.99018 0.73957 0.0
H1149 H 0.73767 0.94683 0.71921 0.0
H1150 H 0.86844 0.98099 0.85154 0.0
H1151 H 0.8175 0.95636 0.81129 0.0
C1152 C 0.365 0.33776 0.01214 0.0
C1153 C 0.36444 0.35897 0.0413 0.0
C1154 C 0.34034 0.30969 -8e-05 0.0
C1155 C 0.27859 0.25312 0.02656 0.0
H1156 H 0.2385 0.22819 0.93399 0.0
C1157 C 0.15672 0.16042 0.9761 0.0
C1158 C 0.15371 0.13853 0.94637 0.0
C1159 C 0.18477 0.18509 0.98807 0.0
C1160 C 0.24986 0.23457 0.95982 0.0
H1161 H 0.33803 0.36805 0.08062 0.0
H1162 H 0.29432 0.31941 0.05888 0.0
H1163 H 0.28249 0.27684 0.95364 0.0
H1164 H 0.17747 0.12427 0.90608 0.0
H1165 H 0.22697 0.16741 0.9272 0.0
H1166 H 0.2456 0.21115 0.03281 0.0
C1167 C 0.31398 0.32417 0.04564 0.0
C1168 C 0.27495 0.26242 0.97105 0.0
C1169 C 0.33864 0.35221 0.05781 0.0
C1170 C 0.17947 0.1409 0.92919 0.0
C1171 C 0.20754 0.16567 0.94109 0.0
C1172 C 0.2535 0.22531 0.01534 0.0
C1173 C 0.31481 0.30245 0.01679 0.0
C1174 C 0.28923 0.27218 0.00459 0.0
C1175 C 0.21023 0.18823 0.97044 0.0
C1176 C 0.23864 0.21602 0.98193 0.0
H1177 H 0.3846 0.34279 -0.00109 0.0
H1178 H 0.34164 0.29329 0.97771 0.0
H1179 H 0.28965 0.25973 0.05246 0.0
H1180 H 0.13727 0.15866 0.98995 0.0
H1181 H 0.18607 0.20231 0.01062 0.0
C1182 C 0.2921 0.63403 0.96322 0.0
C1183 C 0.31656 0.64103 0.99178 0.0
C1184 C 0.26911 0.65401 0.9593 0.0
C1185 C 0.23313 0.71602 0.00604 0.0
H1186 H 0.20978 0.74032 0.92181 0.0
C1187 C 0.16514 0.82061 0.99214 0.0
C1188 C 0.13807 0.81434 0.96605 0.0
C1189 C 0.18663 0.79899 0.99366 0.0
C1190 C 0.21584 0.73345 0.94535 0.0
H1191 H 0.33674 0.67423 0.03849 0.0
H1192 H 0.2967 0.70938 0.03178 0.0
H1193 H 0.24751 0.70276 0.92819 0.0
H1194 H 0.1126 0.78159 0.92044 0.0
H1195 H 0.15062 0.74353 0.92281 0.0
H1196 H 0.20186 0.74704 0.02331 0.0
C1197 C 0.29476 0.68814 0.01262 0.0
C1198 C 0.23737 0.71192 0.94902 0.0
C1199 C 0.31765 0.66807 0.01654 0.0
C1200 C 0.1335 0.78688 0.94068 0.0
C1201 C 0.15515 0.76519 0.9421 0.0
C1202 C 0.21178 0.73761 0.00241 0.0
C1203 C 0.2703 0.68141 0.98388 0.0
C1204 C 0.24646 0.70321 0.9795 0.0
C1205 C 0.18151 0.77074 0.969 0.0
C1206 C 0.20318 0.7468 0.97214 0.0
H1207 H 0.29064 0.61297 0.94401 0.0
H1208 H 0.25029 0.64787 0.93713 0.0
H1209 H 0.23909 0.70927 0.02964 0.0
H1210 H 0.16948 0.84209 0.01162 0.0
H1211 H 0.20716 0.80427 0.01428 0.0
C1212 C 0.67323 0.325 0.96652 0.0
C1213 C 0.64239 0.31865 0.9751 0.0
C1214 C 0.69244 0.30119 0.96556 0.0
C1215 C 0.70564 0.22993 0.00097 0.0
H1216 H 0.76142 0.21962 0.93713 0.0
C1217 C 0.79722 0.14185 0.00223 0.0
C1218 C 0.82887 0.15611 -0.00091 0.0
C1219 C 0.77135 0.15829 -0.00323 0.0
C1220 C 0.74597 0.22229 0.95511 0.0
H1221 H 0.60661 0.28237 0.98813 0.0
H1222 H 0.64024 0.24047 0.98644 0.0
H1223 H 0.72061 0.2539 0.93062 0.0
H1224 H 0.85871 0.19878 0.98867 0.0
H1225 H 0.81355 0.22737 0.97876 0.0
H1226 H 0.73149 0.19871 0.02572 0.0
C1227 C 0.64978 0.26398 0.9809 0.0
C1228 C 0.72267 0.24189 0.95142 0.0
C1229 C 0.63059 0.28788 0.9819 0.0
C1230 C 0.83436 0.18704 0.99063 0.0
C1231 C 0.80855 0.20335 0.98496 0.0
C1232 C 0.72887 0.21018 0.00457 0.0
C1233 C 0.68109 0.27057 0.97312 0.0
C1234 C 0.70282 0.24656 0.97474 0.0
C1235 C 0.77679 0.18908 0.98783 0.0
C1236 C 0.74976 0.20686 0.9821 0.0
H1237 H 0.68308 0.3488 0.9618 0.0
H1238 H 0.71671 0.30725 0.96009 0.0
H1239 H 0.69094 0.23334 0.01954 0.0
H1240 H 0.79228 0.11771 0.00812 0.0
H1241 H 0.74701 0.14672 -0.00105 0.0
C1242 C 0.85653 0.84508 -0.0023 0.0
C1243 C 0.85992 0.86677 0.02764 0.0
C1244 C 0.83138 0.8171 0.98859 0.0
C1245 C 0.77899 0.76146 0.02557 0.0
H1246 H 0.72743 0.73128 0.93713 0.0
C1247 C 0.66113 0.66109 0.99232 0.0
C1248 C 0.65562 0.63872 0.96247 0.0
C1249 C 0.68792 0.68746 0.0005 0.0
C1250 C 0.74199 0.73917 0.96181 0.0
H1251 H 0.83989 0.87704 0.07141 0.0
H1252 H 0.79535 0.82866 0.05518 0.0
H1253 H 0.76943 0.78172 0.9501 0.0
H1254 H 0.67366 0.62549 0.91795 0.0
H1255 H 0.72105 0.67132 0.9325 0.0
H1256 H 0.75143 0.71908 0.03737 0.0
C1257 C 0.81223 0.83294 0.03888 0.0
C1258 C 0.76592 0.76806 0.96923 0.0
C1259 C 0.83734 0.86084 0.04793 0.0
C1260 C 0.67776 0.64231 0.94132 0.0
C1261 C 0.70455 0.66871 0.94945 0.0
C1262 C 0.75509 0.73261 0.01816 0.0
C1263 C 0.80942 0.81047 0.00945 0.0
C1264 C 0.78442 0.77961 0.00125 0.0
C1265 C 0.70954 0.69183 0.97886 0.0
C1266 C 0.7362 0.72133 0.98628 0.0
H1267 H 0.87382 0.84936 0.98178 0.0
H1268 H 0.82987 0.8001 0.96585 0.0
H1269 H 0.79338 0.76946 0.05032 0.0
H1270 H 0.6444 0.65851 0.00905 0.0
H1271 H 0.69104 0.70503 0.02323 0.0
C1272 C 0.64377 0.50275 0.79112 0.0
C1273 C 0.65073 0.4975 0.82323 0.0
C1274 C 0.66856 0.50546 0.77291 0.0
C1275 C 0.75758 0.52739 0.78164 0.0
H1276 H 0.74262 0.47473 0.6939 0.0
C1277 C 0.86226 0.52023 0.71037 0.0
C1278 C 0.85465 0.51975 0.67665 0.0
C1279 C 0.83729 0.5172 0.72832 0.0
C1280 C 0.74706 0.48996 0.71818 0.0
H1281 H 0.68871 0.49212 0.86219 0.0
H1282 H 0.73216 0.49695 0.83043 0.0
H1283 H 0.69865 0.4711 0.72491 0.0
H1284 H 0.81507 0.51441 0.63491 0.0
H1285 H 0.7717 0.51085 0.66633 0.0
H1286 H 0.80568 0.54683 0.77487 0.0
C1287 C 0.70761 0.49867 0.8192 0.0
C1288 C 0.72191 0.48779 0.73591 0.0
C1289 C 0.68277 0.49556 0.8372 0.0
C1290 C 0.82172 0.51583 0.66106 0.0
C1291 C 0.7968 0.51314 0.679 0.0
C1292 C 0.78263 0.52986 0.7638 0.0
C1293 C 0.70069 0.50351 0.78687 0.0
C1294 C 0.72702 0.50639 0.76781 0.0
C1295 C 0.80427 0.51381 0.71285 0.0
C1296 C 0.77769 0.5111 0.73189 0.0
H1297 H 0.61914 0.50438 0.78005 0.0
H1298 H 0.66274 0.50944 0.74809 0.0
H1299 H 0.76195 0.54224 0.80612 0.0
H1300 H 0.88752 0.52325 0.72291 0.0
H1301 H 0.84387 0.51728 0.75425 0.0
C1302 C 0.18504 0.53471 0.63865 0.0
C1303 C 0.18179 0.50342 0.61942 0.0
C1304 C 0.21319 0.54824 0.66281 0.0
C1305 C 0.29434 0.53351 0.70094 0.0
H1306 H 0.26108 0.55179 0.781 0.0
C1307 C 0.35704 0.50865 0.82298 0.0
C1308 C 0.35937 0.53226 0.85128 0.0
C1309 C 0.33827 0.51103 0.79329 0.0
C1310 C 0.27097 0.54734 0.75894 0.0
H1311 H 0.2061 0.46301 0.60757 0.0
H1312 H 0.25501 0.48621 0.64991 0.0
H1313 H 0.22614 0.55014 0.72873 0.0
H1314 H 0.34495 0.57718 0.8712 0.0
H1315 H 0.31156 0.58103 0.81955 0.0
H1316 H 0.33874 0.52921 0.73145 0.0
C1317 C 0.23632 0.5007 0.64632 0.0
C1318 C 0.25105 0.54666 0.72895 0.0
C1319 C 0.20826 0.48731 0.62209 0.0
C1320 C 0.3424 0.55799 0.84983 0.0
C1321 C 0.32368 0.56041 0.82024 0.0
C1322 C 0.3143 0.53415 0.73103 0.0
C1323 C 0.23817 0.53038 0.66813 0.0
C1324 C 0.26213 0.53871 0.69957 0.0
C1325 C 0.32183 0.53722 0.79161 0.0
C1326 C 0.30235 0.54007 0.76016 0.0
H1327 H 0.165 0.54773 0.63641 0.0
H1328 H 0.21432 0.57148 0.67888 0.0
H1329 H 0.30357 0.52762 0.67867 0.0
H1330 H 0.3705 0.48899 0.82368 0.0
H1331 H 0.33678 0.49252 0.77164 0.0
C1332 C 0.14377 0.48445 0.30538 0.0
C1333 C 0.12073 0.45485 0.29941 0.0
C1334 C 0.16985 0.48707 0.28904 0.0
C1335 C 0.21999 0.43935 0.24554 0.0
H1336 H 0.24215 0.5189 0.21225 0.0
C1337 C 0.31934 0.45955 0.16714 0.0
C1338 C 0.34013 0.4907 0.1749 0.0
C1339 C 0.29226 0.45354 0.18192 0.0
C1340 C 0.23645 0.4967 0.22168 0.0
H1341 H 0.1071 0.40441 0.27296 0.0
H1342 H 0.15307 0.40892 0.24384 0.0
H1343 H 0.19463 0.51084 0.238 0.0
H1344 H 0.34978 0.53976 0.20444 0.0
H1345 H 0.30238 0.52939 0.23038 0.0
H1346 H 0.26206 0.42537 0.22925 0.0
C1347 C 0.15083 0.4301 0.26113 0.0
C1348 C 0.20923 0.49205 0.23636 0.0
C1349 C 0.12458 0.42752 0.27758 0.0
C1350 C 0.33379 0.51567 0.19787 0.0
C1351 C 0.30671 0.50971 0.21262 0.0
C1352 C 0.24729 0.444 0.23077 0.0
C1353 C 0.17349 0.46006 0.26649 0.0
C1354 C 0.20101 0.46358 0.24886 0.0
C1355 C 0.2855 0.47868 0.20454 0.0
C1356 C 0.256 0.47295 0.21913 0.0
H1357 H 0.14183 0.50552 0.32299 0.0
H1358 H 0.18741 0.5102 0.29433 0.0
H1359 H 0.21435 0.4173 0.25521 0.0
H1360 H 0.32337 0.44014 0.14889 0.0
H1361 H 0.27609 0.42953 0.17494 0.0
C1362 C 0.67487 0.47105 0.16079 0.0
C1363 C 0.66415 0.44674 0.13217 0.0
C1364 C 0.69559 0.46535 0.18765 0.0
C1365 C 0.7571 0.42379 0.21696 0.0
H1366 H 0.71958 0.42956 0.2952 0.0
C1367 C 0.83987 0.43592 0.3407 0.0
C1368 C 0.83773 0.46453 0.36188 0.0
C1369 C 0.8143 0.42127 0.31392 0.0
C1370 C 0.7303 0.42755 0.27352 0.0
H1371 H 0.66753 0.39801 0.10836 0.0
H1372 H 0.70543 0.38885 0.15501 0.0
H1373 H 0.68593 0.43181 0.24291 0.0
H1374 H 0.80658 0.49889 0.37354 0.0
H1375 H 0.76217 0.47354 0.3275 0.0
H1376 H 0.80226 0.42235 0.24779 0.0
C1377 C 0.69743 0.41204 0.15661 0.0
C1378 C 0.7111 0.42889 0.24374 0.0
C1379 C 0.67621 0.41752 0.12989 0.0
C1380 C 0.80857 0.47646 0.35793 0.0
C1381 C 0.78307 0.46186 0.33137 0.0
C1382 C 0.77654 0.42298 0.2469 0.0
C1383 C 0.70618 0.43544 0.18598 0.0
C1384 C 0.72481 0.42833 0.21564 0.0
C1385 C 0.78635 0.43515 0.30814 0.0
C1386 C 0.76371 0.42636 0.27576 0.0
H1387 H 0.66585 0.49372 0.16295 0.0
H1388 H 0.70254 0.48384 0.21011 0.0
H1389 H 0.76794 0.42318 0.19538 0.0
H1390 H 0.86214 0.42621 0.34362 0.0
H1391 H 0.81728 0.40041 0.29668 0.0
C1392 C 0.32394 0.83059 0.45436 0.0
C1393 C 0.34378 0.83266 0.4851 0.0
C1394 C 0.29718 0.80434 0.44177 0.0
C1395 C 0.24111 0.74291 0.46999 0.0
H1396 H 0.21713 0.69983 0.3782 0.0
C1397 C 0.14498 0.62286 0.42424 0.0
C1398 C 0.12153 0.62089 0.39583 0.0
C1399 C 0.17208 0.64891 0.43392 0.0
C1400 C 0.22341 0.71188 0.40384 0.0
H1401 H 0.35166 0.80917 0.52679 0.0
H1402 H 0.30594 0.76278 0.50442 0.0
H1403 H 0.26542 0.74464 0.39703 0.0
H1404 H 0.10777 0.64411 0.35505 0.0
H1405 H 0.15535 0.69002 0.37207 0.0
H1406 H 0.19941 0.71005 0.47691 0.0
C1407 C 0.31054 0.78153 0.49015 0.0
C1408 C 0.251 0.73751 0.41461 0.0
C1409 C 0.33707 0.80779 0.50273 0.0
C1410 C 0.12556 0.6453 0.37715 0.0
C1411 C 0.15284 0.67131 0.38671 0.0
C1412 C 0.21373 0.71727 0.45928 0.0
C1413 C 0.28991 0.7798 0.45982 0.0
C1414 C 0.26029 0.7531 0.44788 0.0
C1415 C 0.17625 0.67343 0.41531 0.0
C1416 C 0.20475 0.70133 0.42618 0.0
H1417 H 0.32881 0.84956 0.44038 0.0
H1418 H 0.28163 0.80381 0.41843 0.0
H1419 H 0.24711 0.75493 0.49563 0.0
H1420 H 0.14208 0.60459 0.43931 0.0
H1421 H 0.18988 0.6498 0.45594 0.0
C1422 C 0.1785 0.33448 0.46936 0.0
C1423 C 0.15036 0.32907 0.4829 0.0
C1424 C 0.1972 0.31034 0.4655 0.0
C1425 C 0.2114 0.23369 0.49304 0.0
H1426 H 0.25583 0.2248 0.41956 0.0
C1427 C 0.27997 0.1287 0.46133 0.0
C1428 C 0.31309 0.13978 0.46025 0.0
C1429 C 0.2584 0.15041 0.46184 0.0
C1430 C 0.24351 0.22708 0.44015 0.0
H1431 H 0.11903 0.29439 0.50247 0.0
H1432 H 0.15089 0.2515 0.4947 0.0
H1433 H 0.22077 0.26502 0.42488 0.0
H1434 H 0.34947 0.18222 0.4585 0.0
H1435 H 0.31136 0.21974 0.45779 0.0
H1436 H 0.2337 0.19501 0.50765 0.0
C1437 C 0.15933 0.2747 0.48799 0.0
C1438 C 0.22363 0.25026 0.44342 0.0
C1439 C 0.14097 0.29915 0.49239 0.0
C1440 C 0.32395 0.17271 0.45851 0.0
C1441 C 0.30223 0.19427 0.45838 0.0
C1442 C 0.2308 0.21011 0.4894 0.0
C1443 C 0.18775 0.27999 0.47453 0.0
C1444 C 0.20766 0.2542 0.47017 0.0
C1445 C 0.26944 0.18341 0.46061 0.0
C1446 C 0.24729 0.2069 0.46315 0.0
H1447 H 0.18628 0.35761 0.46218 0.0
H1448 H 0.2193 0.31572 0.4558 0.0
H1449 H 0.20004 0.23632 0.51426 0.0
H1450 H 0.27077 0.10331 0.46203 0.0
H1451 H 0.23309 0.14146 0.46327 0.0
C1452 C 0.77831 0.61711 0.48623 0.0
C1453 C 0.80877 0.62509 0.47717 0.0
C1454 C 0.75809 0.64013 0.48844 0.0
C1455 C 0.76324 0.72813 0.50615 0.0
H1456 H 0.67146 0.70951 0.46293 0.0
C1457 C 0.68962 0.83059 0.50305 0.0
C1458 C 0.65648 0.8233 0.50543 0.0
C1459 C 0.70738 0.80564 0.49924 0.0
C1460 C 0.69691 0.71498 0.4756 0.0
H1461 H 0.84249 0.66304 0.46383 0.0
H1462 H 0.80728 0.7033 0.46778 0.0
H1463 H 0.70348 0.66652 0.4569 0.0
H1464 H 0.61564 0.78416 0.505 0.0
H1465 H 0.64697 0.74079 0.50015 0.0
H1466 H 0.75685 0.77615 0.52563 0.0
C1467 C 0.79882 0.67925 0.47278 0.0
C1468 C 0.7152 0.69039 0.47199 0.0
C1469 C 0.81873 0.65615 0.47014 0.0
C1470 C 0.64136 0.7906 0.50394 0.0
C1471 C 0.65921 0.76566 0.50056 0.0
C1472 C 0.74491 0.75254 0.51015 0.0
C1473 C 0.76851 0.67157 0.48227 0.0
C1474 C 0.7486 0.69693 0.48694 0.0
C1475 C 0.69246 0.77287 0.49816 0.0
C1476 C 0.7116 0.74642 0.49464 0.0
H1477 H 0.77041 0.5933 0.492 0.0
H1478 H 0.73487 0.63379 0.49599 0.0
H1479 H 0.78888 0.73356 0.51832 0.0
H1480 H 0.70198 0.85565 0.50447 0.0
H1481 H 0.73277 0.81208 0.49692 0.0
C1482 C 0.66428 0.1871 0.48628 0.0
C1483 C 0.65913 0.16331 0.50544 0.0
C1484 C 0.6911 0.21336 0.49656 0.0
C1485 C 0.77382 0.23681 0.54754 0.0
H1486 H 0.76541 0.32447 0.53589 0.0
C1487 C 0.88114 0.35005 0.59039 0.0
C1488 C 0.88377 0.37208 0.56905 0.0
C1489 C 0.85397 0.32412 0.58391 0.0
C1490 C 0.76818 0.30005 0.53899 0.0
H1491 H 0.67716 0.14825 0.55045 0.0
H1492 H 0.7245 0.19436 0.56862 0.0
H1493 H 0.71649 0.28079 0.52362 0.0
H1494 H 0.86146 0.38385 0.52367 0.0
H1495 H 0.81392 0.33842 0.5121 0.0
H1496 H 0.82561 0.25605 0.56256 0.0
C1497 C 0.7079 0.19257 0.54555 0.0
C1498 C 0.74018 0.2751 0.53207 0.0
C1499 C 0.68091 0.1663 0.53525 0.0
C1500 C 0.85952 0.36737 0.54069 0.0
C1501 C 0.83238 0.34149 0.53418 0.0
C1502 C 0.80187 0.2618 0.55446 0.0
C1503 C 0.71336 0.2162 0.52615 0.0
C1504 C 0.74276 0.24315 0.53589 0.0
C1505 C 0.82907 0.31991 0.55598 0.0
C1506 C 0.79935 0.29357 0.54984 0.0
H1507 H 0.6482 0.18482 0.46279 0.0
H1508 H 0.69501 0.23086 0.48082 0.0
H1509 H 0.77657 0.2123 0.55033 0.0
H1510 H 0.8995 0.35355 0.61263 0.0
H1511 H 0.85195 0.30802 0.60127 0.0
C1512 C 0.47894 0.32439 0.84269 0.0
C1513 C 0.50768 0.34688 0.843 0.0
C1514 C 0.46787 0.29662 0.81745 0.0
C1515 C 0.49762 0.24383 0.75502 0.0
H1516 H 0.40553 0.21644 0.71273 0.0
C1517 C 0.45344 0.15138 0.63254 0.0
C1518 C 0.42488 0.12752 0.62926 0.0
C1519 C 0.46313 0.17697 0.65995 0.0
C1520 C 0.43126 0.22356 0.72461 0.0
H1521 H 0.54765 0.35829 0.8178 0.0
H1522 H 0.52801 0.31035 0.77333 0.0
H1523 H 0.42293 0.26376 0.75834 0.0
H1524 H 0.38386 0.11146 0.65158 0.0
H1525 H 0.40103 0.15609 0.6999 0.0
H1526 H 0.50605 0.20393 0.72114 0.0
C1527 C 0.51412 0.31381 0.7926 0.0
C1528 C 0.4412 0.25062 0.75069 0.0
C1529 C 0.52511 0.34147 0.81775 0.0
C1530 C 0.40619 0.12947 0.65382 0.0
C1531 C 0.41581 0.15514 0.68122 0.0
C1532 C 0.4877 0.21686 0.72898 0.0
C1533 C 0.48554 0.29095 0.79231 0.0
C1534 C 0.47454 0.26125 0.76586 0.0
C1535 C 0.44437 0.17916 0.68452 0.0
C1536 C 0.4545 0.20669 0.71327 0.0
H1537 H 0.46513 0.32827 0.86197 0.0
H1538 H 0.44587 0.27931 0.81795 0.0
H1539 H 0.5234 0.25106 0.76669 0.0
H1540 H 0.46841 0.15013 0.61404 0.0
H1541 H 0.48508 0.19533 0.66167 0.0
C1542 C 0.44908 0.81859 0.6693 0.0
C1543 C 0.45827 0.8087 0.63934 0.0
C1544 C 0.44797 0.79779 0.69171 0.0
C1545 C 0.48484 0.73 0.71421 0.0
H1546 H 0.42157 0.72506 0.77117 0.0
C1547 C 0.48639 0.64586 0.80786 0.0
C1548 C 0.48374 0.66009 0.83956 0.0
C1549 C 0.48019 0.66206 0.78202 0.0
C1550 C 0.43948 0.72639 0.75552 0.0
H1551 H 0.47168 0.76903 0.6082 0.0
H1552 H 0.4694 0.73232 0.64718 0.0
H1553 H 0.41485 0.75596 0.72726 0.0
H1554 H 0.47171 0.70168 0.86924 0.0
H1555 H 0.4609 0.73031 0.82391 0.0
H1556 H 0.50965 0.70076 0.74257 0.0
C1557 C 0.46373 0.75636 0.65373 0.0
C1558 C 0.43564 0.74402 0.73041 0.0
C1559 C 0.465 0.77726 0.63143 0.0
C1560 C 0.47395 0.69035 0.84493 0.0
C1561 C 0.46765 0.70658 0.81903 0.0
C1562 C 0.4886 0.71232 0.73918 0.0
C1563 C 0.45595 0.76671 0.68443 0.0
C1564 C 0.45845 0.74621 0.70966 0.0
C1565 C 0.47103 0.6927 0.78739 0.0
C1566 C 0.46611 0.71054 0.76023 0.0
H1567 H 0.44431 0.84298 0.67609 0.0
H1568 H 0.44233 0.80668 0.7153 0.0
H1569 H 0.50323 0.73177 0.69911 0.0
H1570 H 0.49277 0.62199 0.80289 0.0
H1571 H 0.48235 0.6505 0.75776 0.0
C1572 C 0.44589 0.68708 0.14279 0.0
C1573 C 0.46377 0.66191 0.14232 0.0
C1574 C 0.45696 0.71612 0.16629 0.0
C1575 C 0.52948 0.76479 0.22768 0.0
H1576 H 0.464 0.79391 0.27377 0.0
C1577 C 0.56277 0.84556 0.35673 0.0
C1578 C 0.54592 0.87107 0.36311 0.0
C1579 C 0.55318 0.82293 0.32708 0.0
C1580 C 0.48247 0.78642 0.2608 0.0
H1581 H 0.50769 0.6475 0.16474 0.0
H1582 H 0.52676 0.69789 0.20643 0.0
H1583 H 0.44688 0.74945 0.22566 0.0
H1584 H 0.50601 0.89326 0.34427 0.0
H1585 H 0.48907 0.85354 0.29201 0.0
H1586 H 0.56517 0.80118 0.26352 0.0
C1587 C 0.50443 0.69549 0.18849 0.0
C1588 C 0.47269 0.76102 0.23323 0.0
C1589 C 0.49335 0.6665 0.16495 0.0
C1590 C 0.51935 0.87375 0.33959 0.0
C1591 C 0.50962 0.85101 0.30992 0.0
C1592 C 0.53927 0.79013 0.25532 0.0
C1593 C 0.48606 0.72037 0.18972 0.0
C1594 C 0.49616 0.74956 0.21675 0.0
C1595 C 0.52653 0.82544 0.3034 0.0
C1596 C 0.51591 0.80075 0.27246 0.0
H1597 H 0.42277 0.68388 0.12577 0.0
H1598 H 0.44247 0.735 0.16649 0.0
H1599 H 0.54804 0.75681 0.21513 0.0
H1600 H 0.58358 0.84335 0.37453 0.0
H1601 H 0.56635 0.80319 0.32287 0.0
C1602 C 0.52343 0.2055 0.36078 0.0
C1603 C 0.53067 0.17418 0.35375 0.0
C1604 C 0.52659 0.22657 0.33882 0.0
C1605 C 0.52251 0.22569 0.25228 0.0
H1606 H 0.56537 0.31751 0.28121 0.0
C1607 C 0.53181 0.31271 0.16129 0.0
C1608 C 0.52647 0.34438 0.17167 0.0
C1609 C 0.53579 0.29201 0.18355 0.0
C1610 C 0.55303 0.29201 0.2728 0.0
H1611 H 0.54661 0.13991 0.31859 0.0
H1612 H 0.55193 0.17676 0.27984 0.0
H1613 H 0.56587 0.28115 0.32051 0.0
H1614 H 0.52199 0.37969 0.21346 0.0
H1615 H 0.5273 0.34314 0.25203 0.0
H1616 H 0.5085 0.23655 0.20493 0.0
C1617 C 0.54407 0.18508 0.30242 0.0
C1618 C 0.55346 0.27123 0.29526 0.0
C1619 C 0.54129 0.16417 0.3246 0.0
C1620 C 0.52545 0.35514 0.20469 0.0
C1621 C 0.52909 0.33437 0.2269 0.0
C1622 C 0.52174 0.24652 0.22988 0.0
C1623 C 0.53663 0.2164 0.30931 0.0
C1624 C 0.53797 0.23798 0.28523 0.0
C1625 C 0.53419 0.3025 0.21657 0.0
C1626 C 0.53672 0.28 0.23995 0.0
H1627 H 0.51536 0.21367 0.38327 0.0
H1628 H 0.52042 0.25051 0.34451 0.0
H1629 H 0.51006 0.20019 0.24406 0.0
H1630 H 0.53229 0.30368 0.13586 0.0
H1631 H 0.54008 0.26776 0.17484 0.0
loop_
_geom_bond_atom_site_label_1
_geom_bond_atom_site_label_2
_geom_bond_distance
_geom_bond_site_symmetry_2
_ccdc_geom_bond_type
C0 C1 1.388 . S
C0 N3 1.338 . S
C0 C5 1.503 . S
C1 C0 1.388 . S
C1 C2 1.396 . S
C2 C1 1.396 . S
C2 N4 1.348 . S
C2 C9 1.504 . S
N3 C0 1.338 . S
N3 N4 1.361 . S
N3 Cu168 1.924 . S
N4 C2 1.348 . S
N4 N3 1.361 . S
N4 Cu169 1.964 . S
C5 C0 1.503 . S
C5 H6 0.979 . S
C5 H7 0.979 . S
C5 H8 0.979 . S
H6 C5 0.979 . S
H7 C5 0.979 . S
H8 C5 0.979 . S
C9 C2 1.504 . S
C9 H10 0.981 . S
C9 H11 0.980 1_565 S
C9 H12 0.979 . S
H10 C9 0.981 . S
H11 C9 0.980 1_545 S
H12 C9 0.979 . S
C13 C15 1.402 . S
C13 N16 1.356 . S
C13 C21 1.481 . S
C14 C15 1.400 1_455 S
C14 N17 1.325 . S
C14 C25 1.503 . S
C15 C13 1.402 . S
C15 C14 1.400 1_655 S
N16 C13 1.356 . S
N16 N17 1.365 1_655 S
N16 Cu175 1.941 . S
N17 C14 1.325 . S
N17 N16 1.365 1_455 S
N17 Cu172 1.924 . S
H18 C21 0.980 . S
H19 C21 0.980 . S
H20 C21 0.980 . S
C21 C13 1.481 . S
C21 H18 0.980 . S
C21 H19 0.980 . S
C21 H20 0.980 . S
H22 C25 0.978 . S
H23 C25 0.978 . S
H24 C25 0.983 . S
C25 C14 1.503 . S
C25 H22 0.978 . S
C25 H23 0.978 . S
C25 H24 0.983 . S
C26 H180 0.979 . S
C26 H181 0.981 . S
C26 H182 0.981 . S
C26 O216 1.438 . S
C27 H183 0.980 . S
C27 H184 0.979 . S
C27 H185 0.980 1_554 S
C27 O217 1.533 . S
C28 N29 1.338 . S
C28 C31 1.388 . S
C28 C36 1.503 . S
N29 C28 1.338 . S
N29 N30 1.361 . S
N29 Cu170 1.924 . S
N30 N29 1.361 . S
N30 C32 1.348 . S
N30 Cu171 1.964 . S
C31 C28 1.388 . S
C31 C32 1.396 . S
C32 N30 1.348 . S
C32 C31 1.396 . S
C32 C40 1.504 . S
H33 C36 0.979 . S
H34 C36 0.979 . S
H35 C36 0.979 . S
C36 C28 1.503 . S
C36 H33 0.979 . S
C36 H34 0.979 . S
C36 H35 0.979 . S
H37 C40 0.981 . S
H38 C40 0.980 1_455 S
H39 C40 0.979 . S
C40 C32 1.504 . S
C40 H37 0.981 . S
C40 H38 0.980 1_655 S
C40 H39 0.979 . S
C41 N43 1.356 . S
C41 C45 1.402 . S
C41 C49 1.481 . S
C42 N44 1.325 . S
C42 C45 1.400 1_554 S
C42 C50 1.503 . S
N43 C41 1.356 . S
N43 N44 1.365 1_556 S
N43 Cu177 1.941 . S
N44 C42 1.325 . S
N44 N43 1.365 1_554 S
N44 Cu168 1.924 . S
C45 C41 1.402 . S
C45 C42 1.400 1_556 S
H46 C49 0.980 . S
H47 C49 0.980 . S
H48 C49 0.980 . S
C49 C41 1.481 . S
C49 H46 0.980 . S
C49 H47 0.980 . S
C49 H48 0.980 . S
C50 C42 1.503 . S
C50 H51 0.978 . S
C50 H52 0.978 . S
C50 H53 0.983 . S
H51 C50 0.978 . S
H52 C50 0.978 . S
H53 C50 0.983 . S
C54 H186 0.979 . S
C54 H187 0.981 . S
C54 H188 0.981 . S
C54 O218 1.438 . S
C55 H189 0.980 . S
C55 H190 0.979 . S
C55 H191 0.980 1_545 S
C55 O219 1.533 . S
C56 N57 1.338 . S
C56 C58 1.388 . S
C56 C64 1.503 . S
N57 C56 1.338 . S
N57 N59 1.361 . S
N57 Cu172 1.924 . S
C58 C56 1.388 . S
C58 C60 1.396 . S
N59 N57 1.361 . S
N59 C60 1.348 . S
N59 Cu173 1.964 . S
C60 C58 1.396 . S
C60 N59 1.348 . S
C60 C66 1.504 . S
H61 C64 0.979 . S
H62 C64 0.979 . S
H63 C64 0.979 . S
C64 C56 1.503 . S
C64 H61 0.979 . S
C64 H62 0.979 . S
C64 H63 0.979 . S
H65 C66 0.981 . S
C66 C60 1.504 . S
C66 H65 0.981 . S
C66 H67 0.979 . S
C66 H68 0.980 1_556 S
H67 C66 0.979 . S
H68 C66 0.980 1_554 S
C69 N71 1.356 . S
C69 C73 1.402 . S
C69 C75 1.481 . S
C70 N72 1.325 . S
C70 C73 1.400 1_545 S
C70 C80 1.503 . S
N71 C69 1.356 . S
N71 N72 1.365 1_565 S
N71 Cu179 1.941 . S
N72 C70 1.325 . S
N72 N71 1.365 1_545 S
N72 Cu170 1.924 . S
C73 C69 1.402 . S
C73 C70 1.400 1_565 S
H74 C75 0.980 . S
C75 C69 1.481 . S
C75 H74 0.980 . S
C75 H76 0.980 . S
C75 H77 0.980 . S
H76 C75 0.980 . S
H77 C75 0.980 . S
H78 C80 0.978 . S
H79 C80 0.978 . S
C80 C70 1.503 . S
C80 H78 0.978 . S
C80 H79 0.978 . S
C80 H81 0.983 . S
H81 C80 0.983 . S
C82 H192 0.979 . S
C82 H193 0.981 . S
C82 H194 0.981 . S
C82 O220 1.438 . S
C83 H195 0.980 . S
C83 H196 0.979 . S
C83 H197 0.980 1_455 S
C83 O221 1.533 . S
C84 N85 1.338 . S
C84 C86 1.388 . S
C84 C89 1.503 . S
N85 C84 1.338 . S
N85 N88 1.361 . S
N85 Cu174 1.924 . S
C86 C84 1.388 . S
C86 C87 1.396 . S
C87 C86 1.396 . S
C87 N88 1.348 . S
C87 C93 1.504 . S
N88 N85 1.361 . S
N88 C87 1.348 . S
N88 Cu175 1.964 . S
C89 C84 1.503 . S
C89 H90 0.979 . S
C89 H91 0.979 . S
C89 H92 0.979 . S
H90 C89 0.979 . S
H91 C89 0.979 . S
H92 C89 0.979 . S
C93 C87 1.504 . S
C93 H94 0.981 . S
C93 H95 0.980 1_545 S
C93 H96 0.979 . S
H94 C93 0.981 . S
H95 C93 0.980 1_565 S
H96 C93 0.979 . S
C97 C98 1.402 . S
C97 N100 1.356 . S
C97 C105 1.481 . S
C98 C97 1.402 . S
C98 C99 1.400 1_455 S
C99 C98 1.400 1_655 S
C99 N101 1.331 . S
C99 C106 1.503 . S
N100 C97 1.356 . S
N100 N101 1.335 1_455 S
N100 Cu169 1.941 . S
N101 C99 1.331 . S
N101 N100 1.335 1_655 S
N101 Cu178 1.942 . S
H102 C105 0.980 . S
H103 C105 0.980 . S
H104 C105 0.980 . S
C105 C97 1.481 . S
C105 H102 0.980 . S
C105 H103 0.980 . S
C105 H104 0.980 . S
C106 C99 1.503 . S
C106 H107 0.978 . S
C106 H108 0.978 . S
C106 H109 0.983 . S
H107 C106 0.978 . S
H108 C106 0.978 . S
H109 C106 0.983 . S
C110 H198 0.979 . S
C110 H199 0.981 . S
C110 H200 0.981 . S
C110 O222 1.438 . S
C111 H201 0.980 . S
C111 H202 0.979 . S
C111 H203 0.980 1_556 S
C111 O223 1.533 . S
C112 C113 1.388 . S
C112 N115 1.338 . S
C112 C117 1.503 . S
C113 C112 1.388 . S
C113 C114 1.396 . S
C114 C113 1.396 . S
C114 N116 1.348 . S
C114 C121 1.504 . S
N115 C112 1.338 . S
N115 N116 1.361 . S
N115 Cu176 1.924 . S
N116 C114 1.348 . S
N116 N115 1.361 . S
N116 Cu177 1.964 . S
C117 C112 1.503 . S
C117 H118 0.979 . S
C117 H119 0.979 . S
C117 H120 0.979 . S
H118 C117 0.979 . S
H119 C117 0.979 . S
H120 C117 0.979 . S
C121 C114 1.504 . S
C121 H122 0.981 . S
C121 H123 0.980 1_455 S
C121 H124 0.979 . S
H122 C121 0.981 . S
H123 C121 0.980 1_655 S
H124 C121 0.979 . S
C125 C126 1.402 . S
C125 N128 1.356 . S
C125 C130 1.481 . S
C126 C125 1.402 . S
C126 C127 1.400 1_554 S
C127 C126 1.400 1_556 S
C127 N129 1.331 . S
C127 C134 1.503 . S
N128 C125 1.356 . S
N128 N129 1.335 1_554 S
N128 Cu171 1.941 . S
N129 C127 1.331 . S
N129 N128 1.335 1_556 S
N129 Cu174 1.942 . S
C130 C125 1.481 . S
C130 H131 0.980 . S
C130 H132 0.980 . S
C130 H133 0.980 . S
H131 C130 0.980 . S
H132 C130 0.980 . S
H133 C130 0.980 . S
C134 C127 1.503 . S
C134 H135 0.978 . S
C134 H136 0.978 . S
C134 H137 0.983 . S
H135 C134 0.978 . S
H136 C134 0.978 . S
H137 C134 0.983 . S
C138 H204 0.979 . S
C138 H205 0.981 . S
C138 H206 0.981 . S
C138 O224 1.438 . S
C139 H207 0.980 . S
C139 H208 0.979 . S
C139 H209 0.980 1_565 S
C139 O225 1.533 . S
C140 N141 1.338 . S
C140 C143 1.388 . S
C140 C148 1.503 . S
N141 C140 1.338 . S
N141 N142 1.361 . S
N141 Cu178 1.924 . S
N142 N141 1.361 . S
N142 C144 1.348 . S
N142 Cu179 1.964 . S
C143 C140 1.388 . S
C143 C144 1.396 . S
C144 N142 1.348 . S
C144 C143 1.396 . S
C144 C152 1.504 . S
H145 C148 0.979 . S
H146 C148 0.979 . S
H147 C148 0.979 . S
C148 C140 1.503 . S
C148 H145 0.979 . S
C148 H146 0.979 . S
C148 H147 0.979 . S
H149 C152 0.981 . S
H150 C152 0.980 1_556 S
H151 C152 0.979 . S
C152 C144 1.504 . S
C152 H149 0.981 . S
C152 H150 0.980 1_554 S
C152 H151 0.979 . S
C153 N154 1.356 . S
C153 C156 1.402 . S
C153 C158 1.481 . S
N154 C153 1.356 . S
N154 N155 1.335 1_545 S
N154 Cu173 1.941 . S
N155 N154 1.335 1_565 S
N155 C157 1.331 . S
N155 Cu176 1.942 . S
C156 C153 1.402 . S
C156 C157 1.400 1_545 S
C157 N155 1.331 . S
C157 C156 1.400 1_565 S
C157 C162 1.503 . S
C158 C153 1.481 . S
C158 H159 0.980 . S
C158 H160 0.980 . S
C158 H161 0.980 . S
H159 C158 0.980 . S
H160 C158 0.980 . S
H161 C158 0.980 . S
C162 C157 1.503 . S
C162 H163 0.978 . S
C162 H164 0.978 . S
C162 H165 0.983 . S
H163 C162 0.978 . S
H164 C162 0.978 . S
H165 C162 0.983 . S
C166 H210 0.979 . S
C166 H211 0.981 . S
C166 H212 0.981 . S
C166 O226 1.438 . S
C167 H213 0.980 . S
C167 H214 0.979 . S
C167 H215 0.980 1_655 S
C167 O227 1.533 . S
Cu168 N3 1.924 . S
Cu168 N44 1.924 . S
Cu168 O216 1.923 . S
Cu168 O217 1.930 . S
Cu169 N4 1.964 . S
Cu169 N100 1.941 . S
Cu169 O216 1.905 . S
Cu169 O227 1.920 1_455 S
Cu170 N29 1.924 . S
Cu170 N72 1.924 . S
Cu170 O218 1.923 . S
Cu170 O219 1.930 . S
Cu171 N30 1.964 . S
Cu171 N128 1.941 . S
Cu171 O218 1.905 . S
Cu171 O223 1.920 1_554 S
Cu172 N17 1.924 . S
Cu172 N57 1.924 . S
Cu172 O220 1.923 . S
Cu172 O221 1.930 . S
Cu173 N59 1.964 . S
Cu173 N154 1.941 . S
Cu173 O220 1.905 . S
Cu173 O225 1.920 1_545 S
Cu174 N85 1.924 . S
Cu174 N129 1.942 . S
Cu174 O222 1.923 . S
Cu174 O223 1.930 . S
Cu175 N16 1.941 . S
Cu175 N88 1.964 . S
Cu175 O221 1.920 1_655 S
Cu175 O222 1.905 . S
Cu176 N115 1.924 . S
Cu176 N155 1.942 . S
Cu176 O224 1.923 . S
Cu176 O225 1.930 . S
Cu177 N43 1.941 . S
Cu177 N116 1.964 . S
Cu177 O217 1.920 1_556 S
Cu177 O224 1.905 . S
Cu178 N101 1.942 . S
Cu178 N141 1.924 . S
Cu178 O226 1.923 . S
Cu178 O227 1.930 . S
Cu179 N71 1.941 . S
Cu179 N142 1.964 . S
Cu179 O219 1.920 1_565 S
Cu179 O226 1.905 . S
H180 C26 0.979 . S
H181 C26 0.981 . S
H182 C26 0.981 . S
H183 C27 0.980 . S
H184 C27 0.979 . S
H185 C27 0.980 1_556 S
H186 C54 0.979 . S
H187 C54 0.981 . S
H188 C54 0.981 . S
H189 C55 0.980 . S
H190 C55 0.979 . S
H191 C55 0.980 1_565 S
H192 C82 0.979 . S
H193 C82 0.981 . S
H194 C82 0.981 . S
H195 C83 0.980 . S
H196 C83 0.979 . S
H197 C83 0.980 1_655 S
H198 C110 0.979 . S
H199 C110 0.981 . S
H200 C110 0.981 . S
H201 C111 0.980 . S
H202 C111 0.979 . S
H203 C111 0.980 1_554 S
H204 C138 0.979 . S
H205 C138 0.981 . S
H206 C138 0.981 . S
H207 C139 0.980 . S
H208 C139 0.979 . S
H209 C139 0.980 1_545 S
H210 C166 0.979 . S
H211 C166 0.981 . S
H212 C166 0.981 . S
H213 C167 0.980 . S
H214 C167 0.979 . S
H215 C167 0.980 1_455 S
O216 C26 1.438 . S
O216 Cu168 1.923 . S
O216 Cu169 1.905 . S
O217 C27 1.533 . S
O217 Cu168 1.930 . S
O217 Cu177 1.920 1_554 S
O218 C54 1.438 . S
O218 Cu170 1.923 . S
O218 Cu171 1.905 . S
O219 C55 1.533 . S
O219 Cu170 1.930 . S
O219 Cu179 1.920 1_545 S
O220 C82 1.438 . S
O220 Cu172 1.923 . S
O220 Cu173 1.905 . S
O221 C83 1.533 . S
O221 Cu172 1.930 . S
O221 Cu175 1.920 1_455 S
O222 C110 1.438 . S
O222 Cu174 1.923 . S
O222 Cu175 1.905 . S
O223 C111 1.533 . S
O223 Cu171 1.920 1_556 S
O223 Cu174 1.930 . S
O224 C138 1.438 . S
O224 Cu176 1.923 . S
O224 Cu177 1.905 . S
O225 C139 1.533 . S
O225 Cu173 1.920 1_565 S
O225 Cu176 1.930 . S
O226 C166 1.438 . S
O226 Cu178 1.923 . S
O226 Cu179 1.905 . S
O227 C167 1.533 . S
O227 Cu169 1.920 1_655 S
O227 Cu178 1.930 . S
C228 C229 1.388 . S
C228 N231 1.338 . S
C228 C233 1.503 . S
C229 C228 1.388 . S
C229 C230 1.396 . S
C230 C229 1.396 . S
C230 N232 1.348 . S
C230 C237 1.504 . S
N231 C228 1.338 . S
N231 N232 1.361 . S
N231 Cu396 1.924 . S
N232 C230 1.348 . S
N232 N231 1.361 . S
N232 Cu397 1.964 . S
C233 C228 1.503 . S
C233 H234 0.979 . S
C233 H235 0.979 . S
C233 H236 0.979 . S
H234 C233 0.979 . S
H235 C233 0.979 . S
H236 C233 0.979 . S
C237 C230 1.504 . S
C237 H238 0.981 . S
C237 H239 0.980 . S
C237 H240 0.979 . S
H238 C237 0.981 . S
H239 C237 0.980 . S
H240 C237 0.979 . S
C241 C243 1.402 . S
C241 N244 1.356 . S
C241 C249 1.481 . S
C242 C243 1.400 1_455 S
C242 N245 1.325 . S
C242 C253 1.503 . S
C243 C241 1.402 . S
C243 C242 1.400 1_655 S
N244 C241 1.356 . S
N244 N245 1.365 1_655 S
N244 Cu403 1.941 . S
N245 C242 1.325 . S
N245 N244 1.365 1_455 S
N245 Cu400 1.924 . S
H246 C249 0.980 . S
H247 C249 0.980 . S
H248 C249 0.980 . S
C249 C241 1.481 . S
C249 H246 0.980 . S
C249 H247 0.980 . S
C249 H248 0.980 . S
H250 C253 0.978 . S
H251 C253 0.978 . S
H252 C253 0.983 . S
C253 C242 1.503 . S
C253 H250 0.978 . S
C253 H251 0.978 . S
C253 H252 0.983 . S
C254 H408 0.979 . S
C254 H409 0.981 . S
C254 H410 0.981 . S
C254 O444 1.438 . S
C255 H411 0.980 . S
C255 H412 0.979 . S
C255 H413 0.980 . S
C255 O445 1.533 . S
C256 N257 1.338 . S
C256 C259 1.388 . S
C256 C264 1.503 . S
N257 C256 1.338 . S
N257 N258 1.361 . S
N257 Cu398 1.924 . S
N258 N257 1.361 . S
N258 C260 1.348 . S
N258 Cu399 1.964 . S
C259 C256 1.388 . S
C259 C260 1.396 . S
C260 N258 1.348 . S
C260 C259 1.396 . S
C260 C268 1.504 . S
H261 C264 0.979 . S
H262 C264 0.979 . S
H263 C264 0.979 . S
C264 C256 1.503 . S
C264 H261 0.979 . S
C264 H262 0.979 . S
C264 H263 0.979 . S
H265 C268 0.981 . S
H266 C268 0.980 1_455 S
H267 C268 0.979 . S
C268 C260 1.504 . S
C268 H265 0.981 . S
C268 H266 0.980 1_655 S
C268 H267 0.979 . S
C269 N271 1.356 . S
C269 C273 1.402 . S
C269 C277 1.481 . S
C270 N272 1.325 . S
C270 C273 1.400 . S
C270 C278 1.503 . S
N271 C269 1.356 . S
N271 N272 1.365 . S
N271 Cu405 1.941 . S
N272 C270 1.325 . S
N272 N271 1.365 . S
N272 Cu396 1.924 . S
C273 C269 1.402 . S
C273 C270 1.400 . S
H274 C277 0.980 . S
H275 C277 0.980 . S
H276 C277 0.980 . S
C277 C269 1.481 . S
C277 H274 0.980 . S
C277 H275 0.980 . S
C277 H276 0.980 . S
C278 C270 1.503 . S
C278 H279 0.978 . S
C278 H280 0.978 . S
C278 H281 0.983 . S
H279 C278 0.978 . S
H280 C278 0.978 . S
H281 C278 0.983 . S
C282 H414 0.979 . S
C282 H415 0.981 . S
C282 H416 0.981 . S
C282 O446 1.438 . S
C283 H417 0.980 . S
C283 H418 0.979 . S
C283 H419 0.980 . S
C283 O447 1.533 . S
C284 N285 1.338 . S
C284 C286 1.388 . S
C284 C292 1.503 . S
N285 C284 1.338 . S
N285 N287 1.361 . S
N285 Cu400 1.924 . S
C286 C284 1.388 . S
C286 C288 1.396 . S
N287 N285 1.361 . S
N287 C288 1.348 . S
N287 Cu401 1.964 . S
C288 C286 1.396 . S
C288 N287 1.348 . S
C288 C294 1.504 . S
H289 C292 0.979 . S
H290 C292 0.979 . S
H291 C292 0.979 . S
C292 C284 1.503 . S
C292 H289 0.979 . S
C292 H290 0.979 . S
C292 H291 0.979 . S
H293 C294 0.981 . S
C294 C288 1.504 . S
C294 H293 0.981 . S
C294 H295 0.979 . S
C294 H296 0.980 . S
H295 C294 0.979 . S
H296 C294 0.980 . S
C297 N299 1.356 . S
C297 C301 1.402 . S
C297 C303 1.481 . S
C298 N300 1.325 . S
C298 C301 1.400 . S
C298 C308 1.503 . S
N299 C297 1.356 . S
N299 N300 1.365 . S
N299 Cu407 1.941 . S
N300 C298 1.325 . S
N300 N299 1.365 . S
N300 Cu398 1.924 . S
C301 C297 1.402 . S
C301 C298 1.400 . S
H302 C303 0.980 . S
C303 C297 1.481 . S
C303 H302 0.980 . S
C303 H304 0.980 . S
C303 H305 0.980 . S
H304 C303 0.980 . S
H305 C303 0.980 . S
H306 C308 0.978 . S
H307 C308 0.978 . S
C308 C298 1.503 . S
C308 H306 0.978 . S
C308 H307 0.978 . S
C308 H309 0.983 . S
H309 C308 0.983 . S
C310 H420 0.979 . S
C310 H421 0.981 . S
C310 H422 0.981 . S
C310 O448 1.438 . S
C311 H423 0.980 . S
C311 H424 0.979 . S
C311 H425 0.980 1_455 S
C311 O449 1.533 . S
C312 N313 1.338 . S
C312 C314 1.388 . S
C312 C317 1.503 . S
N313 C312 1.338 . S
N313 N316 1.361 . S
N313 Cu402 1.924 . S
C314 C312 1.388 . S
C314 C315 1.396 . S
C315 C314 1.396 . S
C315 N316 1.348 . S
C315 C321 1.504 . S
N316 N313 1.361 . S
N316 C315 1.348 . S
N316 Cu403 1.964 . S
C317 C312 1.503 . S
C317 H318 0.979 . S
C317 H319 0.979 . S
C317 H320 0.979 . S
H318 C317 0.979 . S
H319 C317 0.979 . S
H320 C317 0.979 . S
C321 C315 1.504 . S
C321 H322 0.981 . S
C321 H323 0.980 . S
C321 H324 0.979 . S
H322 C321 0.981 . S
H323 C321 0.980 . S
H324 C321 0.979 . S
C325 C326 1.402 . S
C325 N328 1.356 . S
C325 C333 1.481 . S
C326 C325 1.402 . S
C326 C327 1.400 1_455 S
C327 C326 1.400 1_655 S
C327 N329 1.331 . S
C327 C334 1.503 . S
N328 C325 1.356 . S
N328 N329 1.335 1_455 S
N328 Cu397 1.941 . S
N329 C327 1.331 . S
N329 N328 1.335 1_655 S
N329 Cu406 1.942 . S
H330 C333 0.980 . S
H331 C333 0.980 . S
H332 C333 0.980 . S
C333 C325 1.481 . S
C333 H330 0.980 . S
C333 H331 0.980 . S
C333 H332 0.980 . S
C334 C327 1.503 . S
C334 H335 0.978 . S
C334 H336 0.978 . S
C334 H337 0.983 . S
H335 C334 0.978 . S
H336 C334 0.978 . S
H337 C334 0.983 . S
C338 H426 0.979 . S
C338 H427 0.981 . S
C338 H428 0.981 . S
C338 O450 1.438 . S
C339 H429 0.980 . S
C339 H430 0.979 . S
C339 H431 0.980 . S
C339 O451 1.533 . S
C340 C341 1.388 . S
C340 N343 1.338 . S
C340 C345 1.503 . S
C341 C340 1.388 . S
C341 C342 1.396 . S
C342 C341 1.396 . S
C342 N344 1.348 . S
C342 C349 1.504 . S
N343 C340 1.338 . S
N343 N344 1.361 . S
N343 Cu404 1.924 . S
N344 C342 1.348 . S
N344 N343 1.361 . S
N344 Cu405 1.964 . S
C345 C340 1.503 . S
C345 H346 0.979 . S
C345 H347 0.979 . S
C345 H348 0.979 . S
H346 C345 0.979 . S
H347 C345 0.979 . S
H348 C345 0.979 . S
C349 C342 1.504 . S
C349 H350 0.981 . S
C349 H351 0.980 1_455 S
C349 H352 0.979 . S
H350 C349 0.981 . S
H351 C349 0.980 1_655 S
H352 C349 0.979 . S
C353 C354 1.402 . S
C353 N356 1.356 . S
C353 C358 1.481 . S
C354 C353 1.402 . S
C354 C355 1.400 . S
C355 C354 1.400 . S
C355 N357 1.325 . S
C355 C362 1.503 . S
N356 C353 1.356 . S
N356 N357 1.365 . S
N356 Cu399 1.941 . S
N357 C355 1.325 . S
N357 N356 1.365 . S
N357 Cu402 1.924 . S
C358 C353 1.481 . S
C358 H359 0.980 . S
C358 H360 0.980 . S
C358 H361 0.980 . S
H359 C358 0.980 . S
H360 C358 0.980 . S
H361 C358 0.980 . S
C362 C355 1.503 . S
C362 H363 0.978 . S
C362 H364 0.978 . S
C362 H365 0.983 . S
H363 C362 0.978 . S
H364 C362 0.978 . S
H365 C362 0.983 . S
C366 H432 0.979 . S
C366 H433 0.981 . S
C366 H434 0.981 . S
C366 O452 1.438 . S
C367 H435 0.980 . S
C367 H436 0.979 . S
C367 H437 0.980 . S
C367 O453 1.533 . S
C368 N369 1.338 . S
C368 C371 1.388 . S
C368 C376 1.503 . S
N369 C368 1.338 . S
N369 N370 1.361 . S
N369 Cu406 1.924 . S
N370 N369 1.361 . S
N370 C372 1.348 . S
N370 Cu407 1.964 . S
C371 C368 1.388 . S
C371 C372 1.396 . S
C372 N370 1.348 . S
C372 C371 1.396 . S
C372 C380 1.504 . S
H373 C376 0.979 . S
H374 C376 0.979 . S
H375 C376 0.979 . S
C376 C368 1.503 . S
C376 H373 0.979 . S
C376 H374 0.979 . S
C376 H375 0.979 . S
H377 C380 0.981 . S
H378 C380 0.980 . S
H379 C380 0.979 . S
C380 C372 1.504 . S
C380 H377 0.981 . S
C380 H378 0.980 . S
C380 H379 0.979 . S
C381 N382 1.356 . S
C381 C384 1.402 . S
C381 C386 1.481 . S
N382 C381 1.356 . S
N382 N383 1.365 . S
N382 Cu401 1.941 . S
N383 N382 1.365 . S
N383 C385 1.325 . S
N383 Cu404 1.924 . S
C384 C381 1.402 . S
C384 C385 1.400 . S
C385 N383 1.325 . S
C385 C384 1.400 . S
C385 C390 1.503 . S
C386 C381 1.481 . S
C386 H387 0.980 . S
C386 H388 0.980 . S
C386 H389 0.980 . S
H387 C386 0.980 . S
H388 C386 0.980 . S
H389 C386 0.980 . S
C390 C385 1.503 . S
C390 H391 0.978 . S
C390 H392 0.978 . S
C390 H393 0.983 . S
H391 C390 0.978 . S
H392 C390 0.978 . S
H393 C390 0.983 . S
C394 H438 0.979 . S
C394 H439 0.981 . S
C394 H440 0.981 . S
C394 O454 1.438 . S
C395 H441 0.980 . S
C395 H442 0.979 . S
C395 H443 0.980 1_655 S
C395 O455 1.533 . S
Cu396 N231 1.924 . S
Cu396 N272 1.924 . S
Cu396 O444 1.923 . S
Cu396 O445 1.930 . S
Cu397 N232 1.964 . S
Cu397 N328 1.941 . S
Cu397 O444 1.905 . S
Cu397 O455 1.920 1_455 S
Cu398 N257 1.924 . S
Cu398 N300 1.924 . S
Cu398 O446 1.923 . S
Cu398 O447 1.930 . S
Cu399 N258 1.964 . S
Cu399 N356 1.941 . S
Cu399 O446 1.905 . S
Cu399 O451 1.920 . S
Cu400 N245 1.924 . S
Cu400 N285 1.924 . S
Cu400 O448 1.923 . S
Cu400 O449 1.930 . S
Cu401 N287 1.964 . S
Cu401 N382 1.941 . S
Cu401 O448 1.905 . S
Cu401 O453 1.920 . S
Cu402 N313 1.924 . S
Cu402 N357 1.924 . S
Cu402 O450 1.923 . S
Cu402 O451 1.930 . S
Cu403 N244 1.941 . S
Cu403 N316 1.964 . S
Cu403 O449 1.920 1_655 S
Cu403 O450 1.905 . S
Cu404 N343 1.924 . S
Cu404 N383 1.924 . S
Cu404 O452 1.923 . S
Cu404 O453 1.930 . S
Cu405 N271 1.941 . S
Cu405 N344 1.964 . S
Cu405 O445 1.920 . S
Cu405 O452 1.905 . S
Cu406 N329 1.942 . S
Cu406 N369 1.924 . S
Cu406 O454 1.923 . S
Cu406 O455 1.930 . S
Cu407 N299 1.941 . S
Cu407 N370 1.964 . S
Cu407 O447 1.920 . S
Cu407 O454 1.905 . S
H408 C254 0.979 . S
H409 C254 0.981 . S
H410 C254 0.981 . S
H411 C255 0.980 . S
H412 C255 0.979 . S
H413 C255 0.980 . S
H414 C282 0.979 . S
H415 C282 0.981 . S
H416 C282 0.981 . S
H417 C283 0.980 . S
H418 C283 0.979 . S
H419 C283 0.980 . S
H420 C310 0.979 . S
H421 C310 0.981 . S
H422 C310 0.981 . S
H423 C311 0.980 . S
H424 C311 0.979 . S
H425 C311 0.980 1_655 S
H426 C338 0.979 . S
H427 C338 0.981 . S
H428 C338 0.981 . S
H429 C339 0.980 . S
H430 C339 0.979 . S
H431 C339 0.980 . S
H432 C366 0.979 . S
H433 C366 0.981 . S
H434 C366 0.981 . S
H435 C367 0.980 . S
H436 C367 0.979 . S
H437 C367 0.980 . S
H438 C394 0.979 . S
H439 C394 0.981 . S
H440 C394 0.981 . S
H441 C395 0.980 . S
H442 C395 0.979 . S
H443 C395 0.980 1_455 S
O444 C254 1.438 . S
O444 Cu396 1.923 . S
O444 Cu397 1.905 . S
O445 C255 1.533 . S
O445 Cu396 1.930 . S
O445 Cu405 1.920 . S
O446 C282 1.438 . S
O446 Cu398 1.923 . S
O446 Cu399 1.905 . S
O447 C283 1.533 . S
O447 Cu398 1.930 . S
O447 Cu407 1.920 . S
O448 C310 1.438 . S
O448 Cu400 1.923 . S
O448 Cu401 1.905 . S
O449 C311 1.533 . S
O449 Cu400 1.930 . S
O449 Cu403 1.920 1_455 S
O450 C338 1.438 . S
O450 Cu402 1.923 . S
O450 Cu403 1.905 . S
O451 C339 1.533 . S
O451 Cu399 1.920 . S
O451 Cu402 1.930 . S
O452 C366 1.438 . S
O452 Cu404 1.923 . S
O452 Cu405 1.905 . S
O453 C367 1.533 . S
O453 Cu401 1.920 . S
O453 Cu404 1.930 . S
O454 C394 1.438 . S
O454 Cu406 1.923 . S
O454 Cu407 1.905 . S
O455 C395 1.533 . S
O455 Cu397 1.920 1_655 S
O455 Cu406 1.930 . S
C456 C457 1.388 . S
C456 N459 1.338 . S
C456 C461 1.503 . S
C457 C456 1.388 . S
C457 C458 1.396 . S
C458 C457 1.396 . S
C458 N460 1.348 . S
C458 C465 1.504 . S
N459 C456 1.338 . S
N459 N460 1.361 . S
N459 Cu624 1.924 . S
N460 C458 1.348 . S
N460 N459 1.361 . S
N460 Cu625 1.964 . S
C461 C456 1.503 . S
C461 H462 0.979 . S
C461 H463 0.979 . S
C461 H464 0.979 . S
H462 C461 0.979 . S
H463 C461 0.979 . S
H464 C461 0.979 . S
C465 C458 1.504 . S
C465 H466 0.981 . S
C465 H467 0.980 1_565 S
C465 H468 0.979 . S
H466 C465 0.981 . S
H467 C465 0.980 1_545 S
H468 C465 0.979 . S
C469 C471 1.402 . S
C469 N472 1.356 . S
C469 C477 1.481 . S
C470 C471 1.400 . S
C470 N473 1.325 . S
C470 C481 1.503 . S
C471 C469 1.402 . S
C471 C470 1.400 . S
N472 C469 1.356 . S
N472 N473 1.365 . S
N472 Cu631 1.941 . S
N473 C470 1.325 . S
N473 N472 1.365 . S
N473 Cu628 1.924 . S
H474 C477 0.980 . S
H475 C477 0.980 . S
H476 C477 0.980 . S
C477 C469 1.481 . S
C477 H474 0.980 . S
C477 H475 0.980 . S
C477 H476 0.980 . S
H478 C481 0.978 . S
H479 C481 0.978 . S
H480 C481 0.983 . S
C481 C470 1.503 . S
C481 H478 0.978 . S
C481 H479 0.978 . S
C481 H480 0.983 . S
C482 H636 0.979 . S
C482 H637 0.981 . S
C482 H638 0.981 . S
C482 O672 1.438 . S
C483 H639 0.980 . S
C483 H640 0.979 . S
C483 H641 0.980 . S
C483 O673 1.533 . S
C484 N485 1.338 . S
C484 C487 1.388 . S
C484 C492 1.503 . S
N485 C484 1.338 . S
N485 N486 1.361 . S
N485 Cu626 1.924 . S
N486 N485 1.361 . S
N486 C488 1.348 . S
N486 Cu627 1.964 . S
C487 C484 1.388 . S
C487 C488 1.396 . S
C488 N486 1.348 . S
C488 C487 1.396 . S
C488 C496 1.504 . S
H489 C492 0.979 . S
H490 C492 0.979 . S
H491 C492 0.979 . S
C492 C484 1.503 . S
C492 H489 0.979 . S
C492 H490 0.979 . S
C492 H491 0.979 . S
H493 C496 0.981 . S
H494 C496 0.980 . S
H495 C496 0.979 . S
C496 C488 1.504 . S
C496 H493 0.981 . S
C496 H494 0.980 . S
C496 H495 0.979 . S
C497 N499 1.356 . S
C497 C501 1.402 . S
C497 C505 1.481 . S
C498 N500 1.325 . S
C498 C501 1.400 . S
C498 C506 1.503 . S
N499 C497 1.356 . S
N499 N500 1.365 . S
N499 Cu633 1.941 . S
N500 C498 1.325 . S
N500 N499 1.365 . S
N500 Cu624 1.924 . S
C501 C497 1.402 . S
C501 C498 1.400 . S
H502 C505 0.980 . S
H503 C505 0.980 . S
H504 C505 0.980 . S
C505 C497 1.481 . S
C505 H502 0.980 . S
C505 H503 0.980 . S
C505 H504 0.980 . S
C506 C498 1.503 . S
C506 H507 0.978 . S
C506 H508 0.978 . S
C506 H509 0.983 . S
H507 C506 0.978 . S
H508 C506 0.978 . S
H509 C506 0.983 . S
C510 H642 0.979 . S
C510 H643 0.981 . S
C510 H644 0.981 . S
C510 O674 1.438 . S
C511 H645 0.980 . S
C511 H646 0.979 . S
C511 H647 0.980 1_545 S
C511 O675 1.533 . S
C512 N513 1.338 . S
C512 C514 1.388 . S
C512 C520 1.503 . S
N513 C512 1.338 . S
N513 N515 1.361 . S
N513 Cu628 1.924 . S
C514 C512 1.388 . S
C514 C516 1.396 . S
N515 N513 1.361 . S
N515 C516 1.348 . S
N515 Cu629 1.964 . S
C516 C514 1.396 . S
C516 N515 1.348 . S
C516 C522 1.504 . S
H517 C520 0.979 . S
H518 C520 0.979 . S
H519 C520 0.979 . S
C520 C512 1.503 . S
C520 H517 0.979 . S
C520 H518 0.979 . S
C520 H519 0.979 . S
H521 C522 0.981 . S
C522 C516 1.504 . S
C522 H521 0.981 . S
C522 H523 0.979 . S
C522 H524 0.980 . S
H523 C522 0.979 . S
H524 C522 0.980 . S
C525 N527 1.356 . S
C525 C529 1.402 . S
C525 C531 1.481 . S
C526 N528 1.325 . S
C526 C529 1.400 1_545 S
C526 C536 1.503 . S
N527 C525 1.356 . S
N527 N528 1.365 1_565 S
N527 Cu635 1.941 . S
N528 C526 1.325 . S
N528 N527 1.365 1_545 S
N528 Cu626 1.924 . S
C529 C525 1.402 . S
C529 C526 1.400 1_565 S
H530 C531 0.980 . S
C531 C525 1.481 . S
C531 H530 0.980 . S
C531 H532 0.980 . S
C531 H533 0.980 . S
H532 C531 0.980 . S
H533 C531 0.980 . S
H534 C536 0.978 . S
H535 C536 0.978 . S
C536 C526 1.503 . S
C536 H534 0.978 . S
C536 H535 0.978 . S
C536 H537 0.983 . S
H537 C536 0.983 . S
C538 H648 0.979 . S
C538 H649 0.981 . S
C538 H650 0.981 . S
C538 O676 1.438 . S
C539 H651 0.980 . S
C539 H652 0.979 . S
C539 H653 0.980 . S
C539 O677 1.533 . S
C540 N541 1.338 . S
C540 C542 1.388 . S
C540 C545 1.503 . S
N541 C540 1.338 . S
N541 N544 1.361 . S
N541 Cu630 1.924 . S
C542 C540 1.388 . S
C542 C543 1.396 . S
C543 C542 1.396 . S
C543 N544 1.348 . S
C543 C549 1.504 . S
N544 N541 1.361 . S
N544 C543 1.348 . S
N544 Cu631 1.964 . S
C545 C540 1.503 . S
C545 H546 0.979 . S
C545 H547 0.979 . S
C545 H548 0.979 . S
H546 C545 0.979 . S
H547 C545 0.979 . S
H548 C545 0.979 . S
C549 C543 1.504 . S
C549 H550 0.981 . S
C549 H551 0.980 1_545 S
C549 H552 0.979 . S
H550 C549 0.981 . S
H551 C549 0.980 1_565 S
H552 C549 0.979 . S
C553 C554 1.402 . S
C553 N556 1.356 . S
C553 C561 1.481 . S
C554 C553 1.402 . S
C554 C555 1.400 . S
C555 C554 1.400 . S
C555 N557 1.325 . S
C555 C562 1.503 . S
N556 C553 1.356 . S
N556 N557 1.365 . S
N556 Cu625 1.941 . S
N557 C555 1.325 . S
N557 N556 1.365 . S
N557 Cu634 1.924 . S
H558 C561 0.980 . S
H559 C561 0.980 . S
H560 C561 0.980 . S
C561 C553 1.481 . S
C561 H558 0.980 . S
C561 H559 0.980 . S
C561 H560 0.980 . S
C562 C555 1.503 . S
C562 H563 0.978 . S
C562 H564 0.978 . S
C562 H565 0.983 . S
H563 C562 0.978 . S
H564 C562 0.978 . S
H565 C562 0.983 . S
C566 H654 0.979 . S
C566 H655 0.981 . S
C566 H656 0.981 . S
C566 O678 1.438 . S
C567 H657 0.980 . S
C567 H658 0.979 . S
C567 H659 0.980 . S
C567 O679 1.533 . S
C568 C569 1.388 . S
C568 N571 1.338 . S
C568 C573 1.503 . S
C569 C568 1.388 . S
C569 C570 1.396 . S
C570 C569 1.396 . S
C570 N572 1.348 . S
C570 C577 1.504 . S
N571 C568 1.338 . S
N571 N572 1.361 . S
N571 Cu632 1.924 . S
N572 C570 1.348 . S
N572 N571 1.361 . S
N572 Cu633 1.964 . S
C573 C568 1.503 . S
C573 H574 0.979 . S
C573 H575 0.979 . S
C573 H576 0.979 . S
H574 C573 0.979 . S
H575 C573 0.979 . S
H576 C573 0.979 . S
C577 C570 1.504 . S
C577 H578 0.981 . S
C577 H579 0.980 . S
C577 H580 0.979 . S
H578 C577 0.981 . S
H579 C577 0.980 . S
H580 C577 0.979 . S
C581 C582 1.402 . S
C581 N584 1.356 . S
C581 C586 1.481 . S
C582 C581 1.402 . S
C582 C583 1.400 . S
C583 C582 1.400 . S
C583 N585 1.325 . S
C583 C590 1.503 . S
N584 C581 1.356 . S
N584 N585 1.365 . S
N584 Cu627 1.941 . S
N585 C583 1.325 . S
N585 N584 1.365 . S
N585 Cu630 1.924 . S
C586 C581 1.481 . S
C586 H587 0.980 . S
C586 H588 0.980 . S
C586 H589 0.980 . S
H587 C586 0.980 . S
H588 C586 0.980 . S
H589 C586 0.980 . S
C590 C583 1.503 . S
C590 H591 0.978 . S
C590 H592 0.978 . S
C590 H593 0.983 . S
H591 C590 0.978 . S
H592 C590 0.978 . S
H593 C590 0.983 . S
C594 H660 0.979 . S
C594 H661 0.981 . S
C594 H662 0.981 . S
C594 O680 1.438 . S
C595 H663 0.980 . S
C595 H664 0.979 . S
C595 H665 0.980 1_565 S
C595 O681 1.533 . S
C596 N597 1.338 . S
C596 C599 1.388 . S
C596 C604 1.503 . S
N597 C596 1.338 . S
N597 N598 1.361 . S
N597 Cu634 1.924 . S
N598 N597 1.361 . S
N598 C600 1.348 . S
N598 Cu635 1.964 . S
C599 C596 1.388 . S
C599 C600 1.396 . S
C600 N598 1.348 . S
C600 C599 1.396 . S
C600 C608 1.504 . S
H601 C604 0.979 . S
H602 C604 0.979 . S
H603 C604 0.979 . S
C604 C596 1.503 . S
C604 H601 0.979 . S
C604 H602 0.979 . S
C604 H603 0.979 . S
H605 C608 0.981 . S
H606 C608 0.980 . S
H607 C608 0.979 . S
C608 C600 1.504 . S
C608 H605 0.981 . S
C608 H606 0.980 . S
C608 H607 0.979 . S
C609 N610 1.356 . S
C609 C612 1.402 . S
C609 C614 1.481 . S
N610 C609 1.356 . S
N610 N611 1.335 1_545 S
N610 Cu629 1.941 . S
N611 N610 1.335 1_565 S
N611 C613 1.331 . S
N611 Cu632 1.942 . S
C612 C609 1.402 . S
C612 C613 1.400 1_545 S
C613 N611 1.331 . S
C613 C612 1.400 1_565 S
C613 C618 1.503 . S
C614 C609 1.481 . S
C614 H615 0.980 . S
C614 H616 0.980 . S
C614 H617 0.980 . S
H615 C614 0.980 . S
H616 C614 0.980 . S
H617 C614 0.980 . S
C618 C613 1.503 . S
C618 H619 0.978 . S
C618 H620 0.978 . S
C618 H621 0.983 . S
H619 C618 0.978 . S
H620 C618 0.978 . S
H621 C618 0.983 . S
C622 H666 0.979 . S
C622 H667 0.981 . S
C622 H668 0.981 . S
C622 O682 1.438 . S
C623 H669 0.980 . S
C623 H670 0.979 . S
C623 H671 0.980 . S
C623 O683 1.533 . S
Cu624 N459 1.924 . S
Cu624 N500 1.924 . S
Cu624 O672 1.923 . S
Cu624 O673 1.930 . S
Cu625 N460 1.964 . S
Cu625 N556 1.941 . S
Cu625 O672 1.905 . S
Cu625 O683 1.920 . S
Cu626 N485 1.924 . S
Cu626 N528 1.924 . S
Cu626 O674 1.923 . S
Cu626 O675 1.930 . S
Cu627 N486 1.964 . S
Cu627 N584 1.941 . S
Cu627 O674 1.905 . S
Cu627 O679 1.920 . S
Cu628 N473 1.924 . S
Cu628 N513 1.924 . S
Cu628 O676 1.923 . S
Cu628 O677 1.930 . S
Cu629 N515 1.964 . S
Cu629 N610 1.941 . S
Cu629 O676 1.905 . S
Cu629 O681 1.920 1_545 S
Cu630 N541 1.924 . S
Cu630 N585 1.924 . S
Cu630 O678 1.923 . S
Cu630 O679 1.930 . S
Cu631 N472 1.941 . S
Cu631 N544 1.964 . S
Cu631 O677 1.920 . S
Cu631 O678 1.905 . S
Cu632 N571 1.924 . S
Cu632 N611 1.942 . S
Cu632 O680 1.923 . S
Cu632 O681 1.930 . S
Cu633 N499 1.941 . S
Cu633 N572 1.964 . S
Cu633 O673 1.920 . S
Cu633 O680 1.905 . S
Cu634 N557 1.924 . S
Cu634 N597 1.924 . S
Cu634 O682 1.923 . S
Cu634 O683 1.930 . S
Cu635 N527 1.941 . S
Cu635 N598 1.964 . S
Cu635 O675 1.920 1_565 S
Cu635 O682 1.905 . S
H636 C482 0.979 . S
H637 C482 0.981 . S
H638 C482 0.981 . S
H639 C483 0.980 . S
H640 C483 0.979 . S
H641 C483 0.980 . S
H642 C510 0.979 . S
H643 C510 0.981 . S
H644 C510 0.981 . S
H645 C511 0.980 . S
H646 C511 0.979 . S
H647 C511 0.980 1_565 S
H648 C538 0.979 . S
H649 C538 0.981 . S
H650 C538 0.981 . S
H651 C539 0.980 . S
H652 C539 0.979 . S
H653 C539 0.980 . S
H654 C566 0.979 . S
H655 C566 0.981 . S
H656 C566 0.981 . S
H657 C567 0.980 . S
H658 C567 0.979 . S
H659 C567 0.980 . S
H660 C594 0.979 . S
H661 C594 0.981 . S
H662 C594 0.981 . S
H663 C595 0.980 . S
H664 C595 0.979 . S
H665 C595 0.980 1_545 S
H666 C622 0.979 . S
H667 C622 0.981 . S
H668 C622 0.981 . S
H669 C623 0.980 . S
H670 C623 0.979 . S
H671 C623 0.980 . S
O672 C482 1.438 . S
O672 Cu624 1.923 . S
O672 Cu625 1.905 . S
O673 C483 1.533 . S
O673 Cu624 1.930 . S
O673 Cu633 1.920 . S
O674 C510 1.438 . S
O674 Cu626 1.923 . S
O674 Cu627 1.905 . S
O675 C511 1.533 . S
O675 Cu626 1.930 . S
O675 Cu635 1.920 1_545 S
O676 C538 1.438 . S
O676 Cu628 1.923 . S
O676 Cu629 1.905 . S
O677 C539 1.533 . S
O677 Cu628 1.930 . S
O677 Cu631 1.920 . S
O678 C566 1.438 . S
O678 Cu630 1.923 . S
O678 Cu631 1.905 . S
O679 C567 1.533 . S
O679 Cu627 1.920 . S
O679 Cu630 1.930 . S
O680 C594 1.438 . S
O680 Cu632 1.923 . S
O680 Cu633 1.905 . S
O681 C595 1.533 . S
O681 Cu629 1.920 1_565 S
O681 Cu632 1.930 . S
O682 C622 1.438 . S
O682 Cu634 1.923 . S
O682 Cu635 1.905 . S
O683 C623 1.533 . S
O683 Cu625 1.920 . S
O683 Cu634 1.930 . S
C684 C685 1.388 . S
C684 N687 1.338 . S
C684 C689 1.503 . S
C685 C684 1.388 . S
C685 C686 1.396 . S
C686 C685 1.396 . S
C686 N688 1.348 . S
C686 C693 1.504 . S
N687 C684 1.338 . S
N687 N688 1.361 . S
N687 Cu852 1.924 . S
N688 C686 1.348 . S
N688 N687 1.361 . S
N688 Cu853 1.964 . S
C689 C684 1.503 . S
C689 H690 0.979 . S
C689 H691 0.979 . S
C689 H692 0.979 . S
H690 C689 0.979 . S
H691 C689 0.979 . S
H692 C689 0.979 . S
C693 C686 1.504 . S
C693 H694 0.981 . S
C693 H695 0.980 . S
C693 H696 0.979 . S
H694 C693 0.981 . S
H695 C693 0.980 . S
H696 C693 0.979 . S
C697 C699 1.402 . S
C697 N700 1.356 . S
C697 C705 1.481 . S
C698 C699 1.400 . S
C698 N701 1.325 . S
C698 C709 1.503 . S
C699 C697 1.402 . S
C699 C698 1.400 . S
N700 C697 1.356 . S
N700 N701 1.365 . S
N700 Cu859 1.941 . S
N701 C698 1.325 . S
N701 N700 1.365 . S
N701 Cu856 1.924 . S
H702 C705 0.980 . S
H703 C705 0.980 . S
H704 C705 0.980 . S
C705 C697 1.481 . S
C705 H702 0.980 . S
C705 H703 0.980 . S
C705 H704 0.980 . S
H706 C709 0.978 . S
H707 C709 0.978 . S
H708 C709 0.983 . S
C709 C698 1.503 . S
C709 H706 0.978 . S
C709 H707 0.978 . S
C709 H708 0.983 . S
C710 H864 0.979 . S
C710 H865 0.981 . S
C710 H866 0.981 . S
C710 O900 1.438 . S
C711 H867 0.980 . S
C711 H868 0.979 . S
C711 H869 0.980 1_554 S
C711 O901 1.533 . S
C712 N713 1.338 . S
C712 C715 1.388 . S
C712 C720 1.503 . S
N713 C712 1.338 . S
N713 N714 1.361 . S
N713 Cu854 1.924 . S
N714 N713 1.361 . S
N714 C716 1.348 . S
N714 Cu855 1.964 . S
C715 C712 1.388 . S
C715 C716 1.396 . S
C716 N714 1.348 . S
C716 C715 1.396 . S
C716 C724 1.504 . S
H717 C720 0.979 . S
H718 C720 0.979 . S
H719 C720 0.979 . S
C720 C712 1.503 . S
C720 H717 0.979 . S
C720 H718 0.979 . S
C720 H719 0.979 . S
H721 C724 0.981 . S
H722 C724 0.980 . S
H723 C724 0.979 . S
C724 C716 1.504 . S
C724 H721 0.981 . S
C724 H722 0.980 . S
C724 H723 0.979 . S
C725 N727 1.356 . S
C725 C729 1.402 . S
C725 C733 1.481 . S
C726 N728 1.325 . S
C726 C729 1.400 1_554 S
C726 C734 1.503 . S
N727 C725 1.356 . S
N727 N728 1.365 1_556 S
N727 Cu861 1.941 . S
N728 C726 1.325 . S
N728 N727 1.365 1_554 S
N728 Cu852 1.924 . S
C729 C725 1.402 . S
C729 C726 1.400 1_556 S
H730 C733 0.980 . S
H731 C733 0.980 . S
H732 C733 0.980 . S
C733 C725 1.481 . S
C733 H730 0.980 . S
C733 H731 0.980 . S
C733 H732 0.980 . S
C734 C726 1.503 . S
C734 H735 0.978 . S
C734 H736 0.978 . S
C734 H737 0.983 . S
H735 C734 0.978 . S
H736 C734 0.978 . S
H737 C734 0.983 . S
C738 H870 0.979 . S
C738 H871 0.981 . S
C738 H872 0.981 . S
C738 O902 1.438 . S
C739 H873 0.980 . S
C739 H874 0.979 . S
C739 H875 0.980 . S
C739 O903 1.533 . S
C740 N741 1.338 . S
C740 C742 1.388 . S
C740 C748 1.503 . S
N741 C740 1.338 . S
N741 N743 1.361 . S
N741 Cu856 1.924 . S
C742 C740 1.388 . S
C742 C744 1.396 . S
N743 N741 1.361 . S
N743 C744 1.348 . S
N743 Cu857 1.964 . S
C744 C742 1.396 . S
C744 N743 1.348 . S
C744 C750 1.504 . S
H745 C748 0.979 . S
H746 C748 0.979 . S
H747 C748 0.979 . S
C748 C740 1.503 . S
C748 H745 0.979 . S
C748 H746 0.979 . S
C748 H747 0.979 . S
H749 C750 0.981 . S
C750 C744 1.504 . S
C750 H749 0.981 . S
C750 H751 0.979 . S
C750 H752 0.980 1_556 S
H751 C750 0.979 . S
H752 C750 0.980 1_554 S
C753 N755 1.356 . S
C753 C757 1.402 . S
C753 C759 1.481 . S
C754 N756 1.325 . S
C754 C757 1.400 . S
C754 C764 1.503 . S
N755 C753 1.356 . S
N755 N756 1.365 . S
N755 Cu863 1.941 . S
N756 C754 1.325 . S
N756 N755 1.365 . S
N756 Cu854 1.924 . S
C757 C753 1.402 . S
C757 C754 1.400 . S
H758 C759 0.980 . S
C759 C753 1.481 . S
C759 H758 0.980 . S
C759 H760 0.980 . S
C759 H761 0.980 . S
H760 C759 0.980 . S
H761 C759 0.980 . S
H762 C764 0.978 . S
H763 C764 0.978 . S
C764 C754 1.503 . S
C764 H762 0.978 . S
C764 H763 0.978 . S
C764 H765 0.983 . S
H765 C764 0.983 . S
C766 H876 0.979 . S
C766 H877 0.981 . S
C766 H878 0.981 . S
C766 O904 1.438 . S
C767 H879 0.980 . S
C767 H880 0.979 . S
C767 H881 0.980 . S
C767 O905 1.533 . S
C768 N769 1.338 . S
C768 C770 1.388 . S
C768 C773 1.503 . S
N769 C768 1.338 . S
N769 N772 1.361 . S
N769 Cu858 1.924 . S
C770 C768 1.388 . S
C770 C771 1.396 . S
C771 C770 1.396 . S
C771 N772 1.348 . S
C771 C777 1.504 . S
N772 N769 1.361 . S
N772 C771 1.348 . S
N772 Cu859 1.964 . S
C773 C768 1.503 . S
C773 H774 0.979 . S
C773 H775 0.979 . S
C773 H776 0.979 . S
H774 C773 0.979 . S
H775 C773 0.979 . S
H776 C773 0.979 . S
C777 C771 1.504 . S
C777 H778 0.981 . S
C777 H779 0.980 . S
C777 H780 0.979 . S
H778 C777 0.981 . S
H779 C777 0.980 . S
H780 C777 0.979 . S
C781 C782 1.402 . S
C781 N784 1.356 . S
C781 C789 1.481 . S
C782 C781 1.402 . S
C782 C783 1.400 . S
C783 C782 1.400 . S
C783 N785 1.325 . S
C783 C790 1.503 . S
N784 C781 1.356 . S
N784 N785 1.365 . S
N784 Cu853 1.941 . S
N785 C783 1.325 . S
N785 N784 1.365 . S
N785 Cu862 1.924 . S
H786 C789 0.980 . S
H787 C789 0.980 . S
H788 C789 0.980 . S
C789 C781 1.481 . S
C789 H786 0.980 . S
C789 H787 0.980 . S
C789 H788 0.980 . S
C790 C783 1.503 . S
C790 H791 0.978 . S
C790 H792 0.978 . S
C790 H793 0.983 . S
H791 C790 0.978 . S
H792 C790 0.978 . S
H793 C790 0.983 . S
C794 H882 0.979 . S
C794 H883 0.981 . S
C794 H884 0.981 . S
C794 O906 1.438 . S
C795 H885 0.980 . S
C795 H886 0.979 . S
C795 H887 0.980 1_556 S
C795 O907 1.533 . S
C796 C797 1.388 . S
C796 N799 1.338 . S
C796 C801 1.503 . S
C797 C796 1.388 . S
C797 C798 1.396 . S
C798 C797 1.396 . S
C798 N800 1.348 . S
C798 C805 1.504 . S
N799 C796 1.338 . S
N799 N800 1.361 . S
N799 Cu860 1.924 . S
N800 C798 1.348 . S
N800 N799 1.361 . S
N800 Cu861 1.964 . S
C801 C796 1.503 . S
C801 H802 0.979 . S
C801 H803 0.979 . S
C801 H804 0.979 . S
H802 C801 0.979 . S
H803 C801 0.979 . S
H804 C801 0.979 . S
C805 C798 1.504 . S
C805 H806 0.981 . S
C805 H807 0.980 . S
C805 H808 0.979 . S
H806 C805 0.981 . S
H807 C805 0.980 . S
H808 C805 0.979 . S
C809 C810 1.402 . S
C809 N812 1.356 . S
C809 C814 1.481 . S
C810 C809 1.402 . S
C810 C811 1.400 1_554 S
C811 C810 1.400 1_556 S
C811 N813 1.331 . S
C811 C818 1.503 . S
N812 C809 1.356 . S
N812 N813 1.335 1_554 S
N812 Cu855 1.941 . S
N813 C811 1.331 . S
N813 N812 1.335 1_556 S
N813 Cu858 1.942 . S
C814 C809 1.481 . S
C814 H815 0.980 . S
C814 H816 0.980 . S
C814 H817 0.980 . S
H815 C814 0.980 . S
H816 C814 0.980 . S
H817 C814 0.980 . S
C818 C811 1.503 . S
C818 H819 0.978 . S
C818 H820 0.978 . S
C818 H821 0.983 . S
H819 C818 0.978 . S
H820 C818 0.978 . S
H821 C818 0.983 . S
C822 H888 0.979 . S
C822 H889 0.981 . S
C822 H890 0.981 . S
C822 O908 1.438 . S
C823 H891 0.980 . S
C823 H892 0.979 . S
C823 H893 0.980 . S
C823 O909 1.533 . S
C824 N825 1.338 . S
C824 C827 1.388 . S
C824 C832 1.503 . S
N825 C824 1.338 . S
N825 N826 1.361 . S
N825 Cu862 1.924 . S
N826 N825 1.361 . S
N826 C828 1.348 . S
N826 Cu863 1.964 . S
C827 C824 1.388 . S
C827 C828 1.396 . S
C828 N826 1.348 . S
C828 C827 1.396 . S
C828 C836 1.504 . S
H829 C832 0.979 . S
H830 C832 0.979 . S
H831 C832 0.979 . S
C832 C824 1.503 . S
C832 H829 0.979 . S
C832 H830 0.979 . S
C832 H831 0.979 . S
H833 C836 0.981 . S
H834 C836 0.980 1_556 S
H835 C836 0.979 . S
C836 C828 1.504 . S
C836 H833 0.981 . S
C836 H834 0.980 1_554 S
C836 H835 0.979 . S
C837 N838 1.356 . S
C837 C840 1.402 . S
C837 C842 1.481 . S
N838 C837 1.356 . S
N838 N839 1.365 . S
N838 Cu857 1.941 . S
N839 N838 1.365 . S
N839 C841 1.325 . S
N839 Cu860 1.924 . S
C840 C837 1.402 . S
C840 C841 1.400 . S
C841 N839 1.325 . S
C841 C840 1.400 . S
C841 C846 1.503 . S
C842 C837 1.481 . S
C842 H843 0.980 . S
C842 H844 0.980 . S
C842 H845 0.980 . S
H843 C842 0.980 . S
H844 C842 0.980 . S
H845 C842 0.980 . S
C846 C841 1.503 . S
C846 H847 0.978 . S
C846 H848 0.978 . S
C846 H849 0.983 . S
H847 C846 0.978 . S
H848 C846 0.978 . S
H849 C846 0.983 . S
C850 H894 0.979 . S
C850 H895 0.981 . S
C850 H896 0.981 . S
C850 O910 1.438 . S
C851 H897 0.980 . S
C851 H898 0.979 . S
C851 H899 0.980 . S
C851 O911 1.533 . S
Cu852 N687 1.924 . S
Cu852 N728 1.924 . S
Cu852 O900 1.923 . S
Cu852 O901 1.930 . S
Cu853 N688 1.964 . S
Cu853 N784 1.941 . S
Cu853 O900 1.905 . S
Cu853 O911 1.920 . S
Cu854 N713 1.924 . S
Cu854 N756 1.924 . S
Cu854 O902 1.923 . S
Cu854 O903 1.930 . S
Cu855 N714 1.964 . S
Cu855 N812 1.941 . S
Cu855 O902 1.905 . S
Cu855 O907 1.920 1_554 S
Cu856 N701 1.924 . S
Cu856 N741 1.924 . S
Cu856 O904 1.923 . S
Cu856 O905 1.930 . S
Cu857 N743 1.964 . S
Cu857 N838 1.941 . S
Cu857 O904 1.905 . S
Cu857 O909 1.920 . S
Cu858 N769 1.924 . S
Cu858 N813 1.942 . S
Cu858 O906 1.923 . S
Cu858 O907 1.930 . S
Cu859 N700 1.941 . S
Cu859 N772 1.964 . S
Cu859 O905 1.920 . S
Cu859 O906 1.905 . S
Cu860 N799 1.924 . S
Cu860 N839 1.924 . S
Cu860 O908 1.923 . S
Cu860 O909 1.930 . S
Cu861 N727 1.941 . S
Cu861 N800 1.964 . S
Cu861 O901 1.920 1_556 S
Cu861 O908 1.905 . S
Cu862 N785 1.924 . S
Cu862 N825 1.924 . S
Cu862 O910 1.923 . S
Cu862 O911 1.930 . S
Cu863 N755 1.941 . S
Cu863 N826 1.964 . S
Cu863 O903 1.920 . S
Cu863 O910 1.905 . S
H864 C710 0.979 . S
H865 C710 0.981 . S
H866 C710 0.981 . S
H867 C711 0.980 . S
H868 C711 0.979 . S
H869 C711 0.980 1_556 S
H870 C738 0.979 . S
H871 C738 0.981 . S
H872 C738 0.981 . S
H873 C739 0.980 . S
H874 C739 0.979 . S
H875 C739 0.980 . S
H876 C766 0.979 . S
H877 C766 0.981 . S
H878 C766 0.981 . S
H879 C767 0.980 . S
H880 C767 0.979 . S
H881 C767 0.980 . S
H882 C794 0.979 . S
H883 C794 0.981 . S
H884 C794 0.981 . S
H885 C795 0.980 . S
H886 C795 0.979 . S
H887 C795 0.980 1_554 S
H888 C822 0.979 . S
H889 C822 0.981 . S
H890 C822 0.981 . S
H891 C823 0.980 . S
H892 C823 0.979 . S
H893 C823 0.980 . S
H894 C850 0.979 . S
H895 C850 0.981 . S
H896 C850 0.981 . S
H897 C851 0.980 . S
H898 C851 0.979 . S
H899 C851 0.980 . S
O900 C710 1.438 . S
O900 Cu852 1.923 . S
O900 Cu853 1.905 . S
O901 C711 1.533 . S
O901 Cu852 1.930 . S
O901 Cu861 1.920 1_554 S
O902 C738 1.438 . S
O902 Cu854 1.923 . S
O902 Cu855 1.905 . S
O903 C739 1.533 . S
O903 Cu854 1.930 . S
O903 Cu863 1.920 . S
O904 C766 1.438 . S
O904 Cu856 1.923 . S
O904 Cu857 1.905 . S
O905 C767 1.533 . S
O905 Cu856 1.930 . S
O905 Cu859 1.920 . S
O906 C794 1.438 . S
O906 Cu858 1.923 . S
O906 Cu859 1.905 . S
O907 C795 1.533 . S
O907 Cu855 1.920 1_556 S
O907 Cu858 1.930 . S
O908 C822 1.438 . S
O908 Cu860 1.923 . S
O908 Cu861 1.905 . S
O909 C823 1.533 . S
O909 Cu857 1.920 . S
O909 Cu860 1.930 . S
O910 C850 1.438 . S
O910 Cu862 1.923 . S
O910 Cu863 1.905 . S
O911 C851 1.533 . S
O911 Cu853 1.920 . S
O911 Cu862 1.930 . S
C912 C913 1.351 . S
C912 C914 1.327 . S
C912 H937 0.950 . S
C913 C912 1.351 . S
C913 C929 1.343 1_455 S
C914 C912 1.327 . S
C914 C933 1.431 . S
C914 H938 0.950 . S
C915 C932 1.574 . S
C915 C934 1.367 1_655 S
C915 H939 0.949 . S
H916 C920 0.949 . S
C917 C918 1.350 . S
C917 C919 1.327 . S
C917 H940 0.950 . S
C918 C917 1.350 . S
C918 C930 1.347 1_655 S
C919 C917 1.327 . S
C919 C935 1.428 . S
C919 H941 0.950 . S
C920 H916 0.949 . S
C920 C928 1.574 . S
C920 C936 1.367 . S
H921 C929 0.950 . S
H922 C927 0.950 . S
H923 C928 0.949 . S
H924 C930 0.950 . S
H925 C931 0.950 . S
H926 C932 0.949 . S
C927 H922 0.950 . S
C927 C929 1.327 . S
C927 C933 1.428 1_655 S
C928 C920 1.574 . S
C928 H923 0.949 . S
C928 C934 1.369 . S
C929 C913 1.343 1_655 S
C929 H921 0.950 . S
C929 C927 1.327 . S
C930 C918 1.347 1_455 S
C930 H924 0.950 . S
C930 C931 1.327 . S
C931 H925 0.950 . S
C931 C930 1.327 . S
C931 C935 1.429 1_455 S
C932 C915 1.574 . S
C932 H926 0.949 . S
C932 C936 1.369 1_655 S
C933 C914 1.431 . S
C933 C927 1.428 1_455 S
C933 C934 1.522 . S
C934 C915 1.367 1_455 S
C934 C928 1.369 . S
C934 C933 1.522 . S
C935 C919 1.428 . S
C935 C931 1.429 1_655 S
C935 C936 1.524 1_655 S
C936 C920 1.367 . S
C936 C932 1.369 1_455 S
C936 C935 1.524 1_455 S
H937 C912 0.950 . S
H938 C914 0.950 . S
H939 C915 0.949 . S
H940 C917 0.950 . S
H941 C919 0.950 . S
C942 C943 1.349 . S
C942 C944 1.327 1_565 S
C942 H967 0.950 1_565 S
C943 C942 1.349 . S
C943 C959 1.349 . S
C944 C942 1.327 1_545 S
C944 C963 1.429 1_545 S
C944 H968 0.950 . S
C945 C962 1.574 . S
C945 C964 1.368 . S
C945 H969 0.949 . S
H946 C950 0.949 . S
C947 C948 1.349 . S
C947 C949 1.327 1_545 S
C947 H970 0.950 1_545 S
C948 C947 1.349 . S
C948 C960 1.349 . S
C949 C947 1.327 1_565 S
C949 C965 1.429 1_565 S
C949 H971 0.950 . S
C950 H946 0.949 . S
C950 C958 1.574 . S
C950 C966 1.368 . S
H951 C959 0.950 . S
H952 C957 0.950 . S
H953 C958 0.949 . S
H954 C960 0.950 . S
H955 C961 0.950 . S
H956 C962 0.949 . S
C957 H952 0.950 . S
C957 C959 1.327 . S
C957 C963 1.429 . S
C958 C950 1.574 . S
C958 H953 0.949 . S
C958 C964 1.368 1_545 S
C959 C943 1.349 . S
C959 H951 0.950 . S
C959 C957 1.327 . S
C960 C948 1.349 . S
C960 H954 0.950 . S
C960 C961 1.327 . S
C961 H955 0.950 . S
C961 C960 1.327 . S
C961 C965 1.429 . S
C962 C945 1.574 . S
C962 H956 0.949 . S
C962 C966 1.368 1_565 S
C963 C944 1.429 1_565 S
C963 C957 1.429 . S
C963 C964 1.523 . S
C964 C945 1.368 . S
C964 C958 1.368 1_565 S
C964 C963 1.523 . S
C965 C949 1.429 1_545 S
C965 C961 1.429 . S
C965 C966 1.523 . S
C966 C950 1.368 . S
C966 C962 1.368 1_545 S
C966 C965 1.523 . S
H967 C942 0.950 1_545 S
H968 C944 0.950 . S
H969 C945 0.949 . S
H970 C947 0.950 1_565 S
H971 C949 0.950 . S
C972 C973 1.349 . S
C972 C974 1.327 . S
C972 H997 0.950 . S
C973 C972 1.349 . S
C973 C989 1.349 . S
C974 C972 1.327 . S
C974 C993 1.429 . S
C974 H998 0.950 . S
C975 C992 1.574 . S
C975 C994 1.368 . S
C975 H999 0.949 . S
H976 C980 0.949 . S
C977 C978 1.349 . S
C977 C979 1.327 . S
C977 H1000 0.950 . S
C978 C977 1.349 . S
C978 C990 1.349 . S
C979 C977 1.327 . S
C979 C995 1.429 . S
C979 H1001 0.950 . S
C980 H976 0.949 . S
C980 C988 1.574 1_655 S
C980 C996 1.368 . S
H981 C989 0.950 . S
H982 C987 0.950 . S
H983 C988 0.951 . S
H984 C990 0.950 . S
H985 C991 0.950 . S
H986 C992 0.949 1_655 S
C987 H982 0.950 . S
C987 C989 1.327 . S
C987 C993 1.429 . S
C988 C980 1.574 1_455 S
C988 H983 0.951 . S
C988 C994 1.369 . S
C989 C973 1.349 . S
C989 H981 0.950 . S
C989 C987 1.327 . S
C990 C978 1.349 . S
C990 H984 0.950 . S
C990 C991 1.327 . S
C991 H985 0.950 . S
C991 C990 1.327 . S
C991 C995 1.429 . S
C992 C975 1.574 . S
C992 H986 0.949 1_455 S
C992 C996 1.369 1_455 S
C993 C974 1.429 . S
C993 C987 1.429 . S
C993 C994 1.523 . S
C994 C975 1.368 . S
C994 C988 1.369 . S
C994 C993 1.523 . S
C995 C979 1.429 . S
C995 C991 1.429 . S
C995 C996 1.523 . S
C996 C980 1.368 . S
C996 C992 1.369 1_655 S
C996 C995 1.523 . S
H997 C972 0.950 . S
H998 C974 0.950 . S
H999 C975 0.949 . S
H1000 C977 0.950 . S
H1001 C979 0.950 . S
C1002 C1003 1.351 . S
C1002 C1004 1.327 . S
C1002 H1027 0.950 . S
C1003 C1002 1.351 . S
C1003 C1019 1.345 1_565 S
C1004 C1002 1.327 . S
C1004 C1023 1.428 . S
C1004 H1028 0.950 . S
C1005 C1022 1.574 . S
C1005 C1024 1.366 . S
C1005 H1029 0.949 . S
H1006 C1010 0.949 . S
C1007 C1008 1.354 . S
C1007 C1009 1.327 . S
C1007 H1030 0.950 . S
C1008 C1007 1.354 . S
C1008 C1020 1.340 1_545 S
C1009 C1007 1.327 . S
C1009 C1025 1.433 . S
C1009 H1031 0.950 . S
C1010 H1006 0.949 . S
C1010 C1018 1.574 . S
C1010 C1026 1.366 1_565 S
H1011 C1019 0.950 . S
H1012 C1017 0.950 . S
H1013 C1018 0.949 . S
H1014 C1020 0.950 . S
H1015 C1021 0.950 . S
H1016 C1022 0.949 . S
C1017 H1012 0.950 . S
C1017 C1019 1.327 . S
C1017 C1023 1.429 1_545 S
C1018 C1010 1.574 . S
C1018 H1013 0.949 . S
C1018 C1024 1.370 1_565 S
C1019 C1003 1.345 1_545 S
C1019 H1011 0.950 . S
C1019 C1017 1.327 . S
C1020 C1008 1.340 1_565 S
C1020 H1014 0.950 . S
C1020 C1021 1.327 . S
C1021 H1015 0.950 . S
C1021 C1020 1.327 . S
C1021 C1025 1.426 1_565 S
C1022 C1005 1.574 . S
C1022 H1016 0.949 . S
C1022 C1026 1.370 . S
C1023 C1004 1.428 . S
C1023 C1017 1.429 1_565 S
C1023 C1024 1.524 1_565 S
C1024 C1005 1.366 . S
C1024 C1018 1.370 1_545 S
C1024 C1023 1.524 1_545 S
C1025 C1009 1.433 . S
C1025 C1021 1.426 1_545 S
C1025 C1026 1.522 . S
C1026 C1010 1.366 1_545 S
C1026 C1022 1.370 . S
C1026 C1025 1.522 . S
H1027 C1002 0.950 . S
H1028 C1004 0.950 . S
H1029 C1005 0.949 . S
H1030 C1007 0.950 . S
H1031 C1009 0.950 . S
C1032 C1033 1.343 1_455 S
C1032 C1034 1.327 . S
C1032 H1057 0.950 . S
C1033 C1032 1.343 1_655 S
C1033 C1049 1.353 . S
C1034 C1032 1.327 . S
C1034 C1053 1.429 1_455 S
C1034 H1058 0.950 . S
C1035 C1052 1.574 . S
C1035 C1054 1.371 1_655 S
C1035 H1059 0.949 . S
H1036 C1040 0.949 . S
C1037 C1038 1.335 1_655 S
C1037 C1039 1.327 . S
C1037 H1060 0.950 . S
C1038 C1037 1.335 1_455 S
C1038 C1050 1.359 . S
C1039 C1037 1.327 . S
C1039 C1055 1.424 1_655 S
C1039 H1061 0.950 . S
C1040 H1036 0.949 . S
C1040 C1048 1.574 . S
C1040 C1056 1.371 . S
H1041 C1049 0.950 . S
H1042 C1047 0.950 . S
H1043 C1048 0.949 . S
H1044 C1050 0.950 . S
H1045 C1051 0.950 . S
H1046 C1052 0.949 . S
C1047 H1042 0.950 . S
C1047 C1049 1.327 . S
C1047 C1053 1.428 . S
C1048 C1040 1.574 . S
C1048 H1043 0.949 . S
C1048 C1054 1.365 . S
C1049 C1033 1.353 . S
C1049 H1041 0.950 . S
C1049 C1047 1.327 . S
C1050 C1038 1.359 . S
C1050 H1044 0.950 . S
C1050 C1051 1.327 . S
C1051 H1045 0.950 . S
C1051 C1050 1.327 . S
C1051 C1055 1.435 . S
C1052 C1035 1.574 . S
C1052 H1046 0.949 . S
C1052 C1056 1.365 1_655 S
C1053 C1034 1.429 1_655 S
C1053 C1047 1.428 . S
C1053 C1054 1.524 1_655 S
C1054 C1035 1.371 1_455 S
C1054 C1048 1.365 . S
C1054 C1053 1.524 1_455 S
C1055 C1039 1.424 1_455 S
C1055 C1051 1.435 . S
C1055 C1056 1.522 . S
C1056 C1040 1.371 . S
C1056 C1052 1.365 1_455 S
C1056 C1055 1.522 . S
H1057 C1032 0.950 . S
H1058 C1034 0.950 . S
H1059 C1035 0.949 . S
H1060 C1037 0.950 . S
H1061 C1039 0.950 . S
C1062 C1063 1.349 1_565 S
C1062 C1064 1.327 . S
C1062 H1087 0.950 . S
C1063 C1062 1.349 1_545 S
C1063 C1079 1.349 . S
C1064 C1062 1.327 . S
C1064 C1083 1.429 1_565 S
C1064 H1088 0.950 . S
C1065 C1082 1.574 . S
C1065 C1084 1.368 . S
C1065 H1089 0.949 . S
H1066 C1070 0.949 . S
C1067 C1068 1.349 1_545 S
C1067 C1069 1.327 . S
C1067 H1090 0.950 . S
C1068 C1067 1.349 1_565 S
C1068 C1080 1.349 . S
C1069 C1067 1.327 . S
C1069 C1085 1.429 1_545 S
C1069 H1091 0.950 . S
C1070 H1066 0.949 . S
C1070 C1078 1.574 . S
C1070 C1086 1.368 . S
H1071 C1079 0.950 . S
H1072 C1077 0.950 . S
H1073 C1078 0.949 . S
H1074 C1080 0.950 . S
H1075 C1081 0.950 . S
H1076 C1082 0.949 . S
C1077 H1072 0.950 . S
C1077 C1079 1.327 . S
C1077 C1083 1.429 . S
C1078 C1070 1.574 . S
C1078 H1073 0.949 . S
C1078 C1084 1.368 1_565 S
C1079 C1063 1.349 . S
C1079 H1071 0.950 . S
C1079 C1077 1.327 . S
C1080 C1068 1.349 . S
C1080 H1074 0.950 . S
C1080 C1081 1.327 . S
C1081 H1075 0.950 . S
C1081 C1080 1.327 . S
C1081 C1085 1.429 . S
C1082 C1065 1.574 . S
C1082 H1076 0.949 . S
C1082 C1086 1.368 1_545 S
C1083 C1064 1.429 1_545 S
C1083 C1077 1.429 . S
C1083 C1084 1.523 . S
C1084 C1065 1.368 . S
C1084 C1078 1.368 1_545 S
C1084 C1083 1.523 . S
C1085 C1069 1.429 1_565 S
C1085 C1081 1.429 . S
C1085 C1086 1.523 . S
C1086 C1070 1.368 . S
C1086 C1082 1.368 1_565 S
C1086 C1085 1.523 . S
H1087 C1062 0.950 . S
H1088 C1064 0.950 . S
H1089 C1065 0.949 . S
H1090 C1067 0.950 . S
H1091 C1069 0.950 . S
C1092 C1093 1.349 . S
C1092 C1094 1.327 . S
C1092 H1117 0.950 . S
C1093 C1092 1.349 . S
C1093 C1109 1.349 . S
C1094 C1092 1.327 . S
C1094 C1113 1.429 . S
C1094 H1118 0.950 1_455 S
C1095 C1112 1.574 . S
C1095 C1114 1.368 . S
C1095 H1119 0.949 . S
H1096 C1100 0.949 . S
C1097 C1098 1.349 . S
C1097 C1099 1.327 . S
C1097 H1120 0.950 . S
C1098 C1097 1.349 . S
C1098 C1110 1.349 . S
C1099 C1097 1.327 . S
C1099 C1115 1.429 . S
C1099 H1121 0.950 1_655 S
C1100 H1096 0.949 . S
C1100 C1108 1.574 . S
C1100 C1116 1.368 . S
H1101 C1109 0.950 . S
H1102 C1107 0.950 . S
H1103 C1108 0.949 . S
H1104 C1110 0.950 . S
H1105 C1111 0.950 . S
H1106 C1112 0.949 . S
C1107 H1102 0.950 . S
C1107 C1109 1.327 . S
C1107 C1113 1.429 . S
C1108 C1100 1.574 . S
C1108 H1103 0.949 . S
C1108 C1114 1.368 1_655 S
C1109 C1093 1.349 . S
C1109 H1101 0.950 . S
C1109 C1107 1.327 . S
C1110 C1098 1.349 . S
C1110 H1104 0.950 . S
C1110 C1111 1.327 . S
C1111 H1105 0.950 . S
C1111 C1110 1.327 . S
C1111 C1115 1.429 . S
C1112 C1095 1.574 . S
C1112 H1106 0.949 . S
C1112 C1116 1.368 1_455 S
C1113 C1094 1.429 . S
C1113 C1107 1.429 . S
C1113 C1114 1.523 . S
C1114 C1095 1.368 . S
C1114 C1108 1.368 1_455 S
C1114 C1113 1.523 . S
C1115 C1099 1.429 . S
C1115 C1111 1.429 . S
C1115 C1116 1.523 . S
C1116 C1100 1.368 . S
C1116 C1112 1.368 1_655 S
C1116 C1115 1.523 . S
H1117 C1092 0.950 . S
H1118 C1094 0.950 1_655 S
H1119 C1095 0.949 . S
H1120 C1097 0.950 . S
H1121 C1099 0.950 1_455 S
C1122 C1123 1.356 . S
C1122 C1124 1.327 . S
C1122 H1147 0.950 . S
C1123 C1122 1.356 . S
C1123 C1139 1.338 1_545 S
C1124 C1122 1.327 . S
C1124 C1143 1.434 . S
C1124 H1148 0.950 . S
C1125 C1142 1.574 . S
C1125 C1144 1.366 1_565 S
C1125 H1149 0.949 . S
H1126 C1130 0.949 . S
C1127 C1128 1.352 . S
C1127 C1129 1.327 . S
C1127 H1150 0.950 . S
C1128 C1127 1.352 . S
C1128 C1140 1.344 1_565 S
C1129 C1127 1.327 . S
C1129 C1145 1.428 . S
C1129 H1151 0.950 . S
C1130 H1126 0.949 . S
C1130 C1138 1.574 . S
C1130 C1146 1.366 . S
H1131 C1139 0.950 . S
H1132 C1137 0.950 . S
H1133 C1138 0.949 . S
H1134 C1140 0.950 . S
H1135 C1141 0.950 . S
H1136 C1142 0.949 . S
C1137 H1132 0.950 . S
C1137 C1139 1.327 . S
C1137 C1143 1.425 1_565 S
C1138 C1130 1.574 . S
C1138 H1133 0.949 . S
C1138 C1144 1.370 . S
C1139 C1123 1.338 1_565 S
C1139 H1131 0.950 . S
C1139 C1137 1.327 . S
C1140 C1128 1.344 1_545 S
C1140 H1134 0.950 . S
C1140 C1141 1.327 . S
C1141 H1135 0.950 . S
C1141 C1140 1.327 . S
C1141 C1145 1.429 1_545 S
C1142 C1125 1.574 . S
C1142 H1136 0.949 . S
C1142 C1146 1.370 1_565 S
C1143 C1124 1.434 . S
C1143 C1137 1.425 1_545 S
C1143 C1144 1.522 . S
C1144 C1125 1.366 1_545 S
C1144 C1138 1.370 . S
C1144 C1143 1.522 . S
C1145 C1129 1.428 . S
C1145 C1141 1.429 1_565 S
C1145 C1146 1.524 1_565 S
C1146 C1130 1.366 . S
C1146 C1142 1.370 1_545 S
C1146 C1145 1.524 1_545 S
H1147 C1122 0.950 . S
H1148 C1124 0.950 . S
H1149 C1125 0.949 . S
H1150 C1127 0.950 . S
H1151 C1129 0.950 . S
C1152 C1153 1.352 . S
C1152 C1154 1.327 . S
C1152 H1177 0.950 . S
C1153 C1152 1.352 . S
C1153 C1169 1.344 1_556 S
C1154 C1152 1.327 . S
C1154 C1173 1.428 . S
C1154 H1178 0.950 . S
C1155 C1172 1.574 . S
C1155 C1174 1.365 . S
C1155 H1179 0.949 . S
H1156 C1160 0.949 . S
C1157 C1158 1.357 . S
C1157 C1159 1.327 . S
C1157 H1180 0.950 . S
C1158 C1157 1.357 . S
C1158 C1170 1.337 1_554 S
C1159 C1157 1.327 . S
C1159 C1175 1.434 . S
C1159 H1181 0.950 . S
C1160 H1156 0.949 . S
C1160 C1168 1.574 . S
C1160 C1176 1.365 1_556 S
H1161 C1169 0.950 . S
H1162 C1167 0.950 . S
H1163 C1168 0.949 . S
H1164 C1170 0.950 . S
H1165 C1171 0.950 . S
H1166 C1172 0.949 . S
C1167 H1162 0.950 . S
C1167 C1169 1.327 . S
C1167 C1173 1.429 1_554 S
C1168 C1160 1.574 . S
C1168 H1163 0.949 . S
C1168 C1174 1.370 1_556 S
C1169 C1153 1.344 1_554 S
C1169 H1161 0.950 . S
C1169 C1167 1.327 . S
C1170 C1158 1.337 1_556 S
C1170 H1164 0.950 . S
C1170 C1171 1.327 . S
C1171 H1165 0.950 . S
C1171 C1170 1.327 . S
C1171 C1175 1.425 1_556 S
C1172 C1155 1.574 . S
C1172 H1166 0.949 . S
C1172 C1176 1.370 . S
C1173 C1154 1.428 . S
C1173 C1167 1.429 1_556 S
C1173 C1174 1.524 1_556 S
C1174 C1155 1.365 . S
C1174 C1168 1.370 1_554 S
C1174 C1173 1.524 1_554 S
C1175 C1159 1.434 . S
C1175 C1171 1.425 1_554 S
C1175 C1176 1.522 . S
C1176 C1160 1.365 1_554 S
C1176 C1172 1.370 . S
C1176 C1175 1.522 . S
H1177 C1152 0.950 . S
H1178 C1154 0.950 . S
H1179 C1155 0.949 . S
H1180 C1157 0.950 . S
H1181 C1159 0.950 . S
C1182 C1183 1.349 1_556 S
C1182 C1184 1.327 . S
C1182 H1207 0.950 . S
C1183 C1182 1.349 1_554 S
C1183 C1199 1.349 . S
C1184 C1182 1.327 . S
C1184 C1203 1.429 1_556 S
C1184 H1208 0.950 . S
C1185 C1202 1.574 . S
C1185 C1204 1.368 . S
C1185 H1209 0.949 . S
H1186 C1190 0.949 . S
C1187 C1188 1.349 1_554 S
C1187 C1189 1.327 . S
C1187 H1210 0.950 . S
C1188 C1187 1.349 1_556 S
C1188 C1200 1.349 . S
C1189 C1187 1.327 . S
C1189 C1205 1.429 1_554 S
C1189 H1211 0.950 . S
C1190 H1186 0.949 . S
C1190 C1198 1.574 . S
C1190 C1206 1.368 . S
H1191 C1199 0.950 . S
H1192 C1197 0.950 . S
H1193 C1198 0.949 . S
H1194 C1200 0.950 . S
H1195 C1201 0.950 . S
H1196 C1202 0.949 . S
C1197 H1192 0.950 . S
C1197 C1199 1.327 . S
C1197 C1203 1.429 . S
C1198 C1190 1.574 . S
C1198 H1193 0.949 . S
C1198 C1204 1.368 1_556 S
C1199 C1183 1.349 . S
C1199 H1191 0.950 . S
C1199 C1197 1.327 . S
C1200 C1188 1.349 . S
C1200 H1194 0.950 . S
C1200 C1201 1.327 . S
C1201 H1195 0.950 . S
C1201 C1200 1.327 . S
C1201 C1205 1.429 . S
C1202 C1185 1.574 . S
C1202 H1196 0.949 . S
C1202 C1206 1.368 1_554 S
C1203 C1184 1.429 1_554 S
C1203 C1197 1.429 . S
C1203 C1204 1.523 . S
C1204 C1185 1.368 . S
C1204 C1198 1.368 1_554 S
C1204 C1203 1.523 . S
C1205 C1189 1.429 1_556 S
C1205 C1201 1.429 . S
C1205 C1206 1.523 . S
C1206 C1190 1.368 . S
C1206 C1202 1.368 1_556 S
C1206 C1205 1.523 . S
H1207 C1182 0.950 . S
H1208 C1184 0.950 . S
H1209 C1185 0.949 . S
H1210 C1187 0.950 . S
H1211 C1189 0.950 . S
C1212 C1213 1.349 . S
C1212 C1214 1.327 . S
C1212 H1237 0.950 . S
C1213 C1212 1.349 . S
C1213 C1229 1.349 1_556 S
C1214 C1212 1.327 . S
C1214 C1233 1.429 . S
C1214 H1238 0.950 . S
C1215 C1232 1.574 . S
C1215 C1234 1.368 1_554 S
C1215 H1239 0.949 . S
H1216 C1220 0.949 . S
C1217 C1218 1.349 . S
C1217 C1219 1.327 . S
C1217 H1240 0.950 . S
C1218 C1217 1.349 . S
C1218 C1230 1.319 1_554 S
C1219 C1217 1.327 . S
C1219 C1235 1.429 . S
C1219 H1241 0.950 . S
C1220 H1216 0.949 . S
C1220 C1228 1.574 . S
C1220 C1236 1.368 1_556 S
H1221 C1229 0.950 . S
H1222 C1227 0.950 . S
H1223 C1228 0.949 . S
H1224 C1230 0.976 . S
H1225 C1231 0.950 . S
H1226 C1232 0.949 . S
C1227 H1222 0.950 . S
C1227 C1229 1.327 . S
C1227 C1233 1.429 1_554 S
C1228 C1220 1.574 . S
C1228 H1223 0.949 . S
C1228 C1234 1.368 . S
C1229 C1213 1.349 1_554 S
C1229 H1221 0.950 . S
C1229 C1227 1.327 . S
C1230 C1218 1.319 1_556 S
C1230 H1224 0.976 . S
C1230 C1231 1.332 . S
C1231 H1225 0.950 . S
C1231 C1230 1.332 . S
C1231 C1235 1.429 1_556 S
C1232 C1215 1.574 . S
C1232 H1226 0.949 . S
C1232 C1236 1.368 . S
C1233 C1214 1.429 . S
C1233 C1227 1.429 1_556 S
C1233 C1234 1.523 . S
C1234 C1215 1.368 1_556 S
C1234 C1228 1.368 . S
C1234 C1233 1.523 . S
C1235 C1219 1.429 . S
C1235 C1231 1.429 1_554 S
C1235 C1236 1.523 . S
C1236 C1220 1.368 1_554 S
C1236 C1232 1.368 . S
C1236 C1235 1.523 . S
H1237 C1212 0.950 . S
H1238 C1214 0.950 . S
H1239 C1215 0.949 . S
H1240 C1217 0.950 . S
H1241 C1219 0.950 . S
C1242 C1243 1.352 . S
C1242 C1244 1.327 . S
C1242 H1267 0.950 . S
C1243 C1242 1.352 . S
C1243 C1259 1.344 1_556 S
C1244 C1242 1.327 . S
C1244 C1263 1.428 . S
C1244 H1268 0.950 . S
C1245 C1262 1.574 . S
C1245 C1264 1.366 . S
C1245 H1269 0.949 . S
H1246 C1250 0.949 . S
C1247 C1248 1.355 . S
C1247 C1249 1.327 . S
C1247 H1270 0.950 . S
C1248 C1247 1.355 . S
C1248 C1260 1.339 1_554 S
C1249 C1247 1.327 . S
C1249 C1265 1.434 . S
C1249 H1271 0.950 . S
C1250 H1246 0.949 . S
C1250 C1258 1.574 . S
C1250 C1266 1.366 1_556 S
H1251 C1259 0.950 . S
H1252 C1257 0.950 . S
H1253 C1258 0.949 . S
H1254 C1260 0.950 . S
H1255 C1261 0.950 . S
H1256 C1262 0.949 . S
C1257 H1252 0.950 . S
C1257 C1259 1.327 . S
C1257 C1263 1.429 1_554 S
C1258 C1250 1.574 . S
C1258 H1253 0.949 . S
C1258 C1264 1.370 1_556 S
C1259 C1243 1.344 1_554 S
C1259 H1251 0.950 . S
C1259 C1257 1.327 . S
C1260 C1248 1.339 1_556 S
C1260 H1254 0.950 . S
C1260 C1261 1.327 . S
C1261 H1255 0.950 . S
C1261 C1260 1.327 . S
C1261 C1265 1.425 1_556 S
C1262 C1245 1.574 . S
C1262 H1256 0.949 . S
C1262 C1266 1.370 . S
C1263 C1244 1.428 . S
C1263 C1257 1.429 1_556 S
C1263 C1264 1.524 1_556 S
C1264 C1245 1.366 . S
C1264 C1258 1.370 1_554 S
C1264 C1263 1.524 1_554 S
C1265 C1249 1.434 . S
C1265 C1261 1.425 1_554 S
C1265 C1266 1.522 . S
C1266 C1250 1.366 1_554 S
C1266 C1262 1.370 . S
C1266 C1265 1.522 . S
H1267 C1242 0.950 . S
H1268 C1244 0.950 . S
H1269 C1245 0.949 . S
H1270 C1247 0.950 . S
H1271 C1249 0.950 . S
C1272 C1273 1.349 . S
C1272 C1274 1.327 . S
C1272 H1297 0.950 . S
C1273 C1272 1.349 . S
C1273 C1289 1.349 . S
C1274 C1272 1.327 . S
C1274 C1293 1.429 . S
C1274 H1298 0.950 . S
C1275 C1292 1.574 . S
C1275 C1294 1.368 . S
C1275 H1299 0.949 . S
H1276 C1280 0.949 . S
C1277 C1278 1.349 . S
C1277 C1279 1.327 . S
C1277 H1300 0.950 . S
C1278 C1277 1.349 . S
C1278 C1290 1.349 . S
C1279 C1277 1.327 . S
C1279 C1295 1.429 . S
C1279 H1301 0.950 . S
C1280 H1276 0.949 . S
C1280 C1288 1.574 . S
C1280 C1296 1.368 . S
H1281 C1289 0.950 . S
H1282 C1287 0.950 . S
H1283 C1288 0.949 . S
H1284 C1290 0.950 . S
H1285 C1291 0.950 . S
H1286 C1292 0.949 . S
C1287 H1282 0.950 . S
C1287 C1289 1.327 . S
C1287 C1293 1.429 . S
C1288 C1280 1.574 . S
C1288 H1283 0.949 . S
C1288 C1294 1.368 . S
C1289 C1273 1.349 . S
C1289 H1281 0.950 . S
C1289 C1287 1.327 . S
C1290 C1278 1.349 . S
C1290 H1284 0.950 . S
C1290 C1291 1.327 . S
C1291 H1285 0.950 . S
C1291 C1290 1.327 . S
C1291 C1295 1.429 . S
C1292 C1275 1.574 . S
C1292 H1286 0.949 . S
C1292 C1296 1.368 . S
C1293 C1274 1.429 . S
C1293 C1287 1.429 . S
C1293 C1294 1.523 . S
C1294 C1275 1.368 . S
C1294 C1288 1.368 . S
C1294 C1293 1.523 . S
C1295 C1279 1.429 . S
C1295 C1291 1.429 . S
C1295 C1296 1.523 . S
C1296 C1280 1.368 . S
C1296 C1292 1.368 . S
C1296 C1295 1.523 . S
H1297 C1272 0.950 . S
H1298 C1274 0.950 . S
H1299 C1275 0.949 . S
H1300 C1277 0.950 . S
H1301 C1279 0.950 . S
C1302 C1303 1.349 . S
C1302 C1304 1.327 . S
C1302 H1327 0.950 . S
C1303 C1302 1.349 . S
C1303 C1319 1.349 . S
C1304 C1302 1.327 . S
C1304 C1323 1.429 . S
C1304 H1328 0.950 . S
C1305 C1322 1.574 . S
C1305 C1324 1.368 . S
C1305 H1329 0.949 . S
H1306 C1310 0.949 . S
C1307 C1308 1.349 . S
C1307 C1309 1.327 . S
C1307 H1330 0.950 . S
C1308 C1307 1.349 . S
C1308 C1320 1.349 . S
C1309 C1307 1.327 . S
C1309 C1325 1.429 . S
C1309 H1331 0.950 . S
C1310 H1306 0.949 . S
C1310 C1318 1.574 . S
C1310 C1326 1.368 . S
H1311 C1319 0.950 . S
H1312 C1317 0.950 . S
H1313 C1318 0.949 . S
H1314 C1320 0.950 . S
H1315 C1321 0.950 . S
H1316 C1322 0.949 . S
C1317 H1312 0.950 . S
C1317 C1319 1.327 . S
C1317 C1323 1.429 . S
C1318 C1310 1.574 . S
C1318 H1313 0.949 . S
C1318 C1324 1.368 . S
C1319 C1303 1.349 . S
C1319 H1311 0.950 . S
C1319 C1317 1.327 . S
C1320 C1308 1.349 . S
C1320 H1314 0.950 . S
C1320 C1321 1.327 . S
C1321 H1315 0.950 . S
C1321 C1320 1.327 . S
C1321 C1325 1.429 . S
C1322 C1305 1.574 . S
C1322 H1316 0.949 . S
C1322 C1326 1.368 . S
C1323 C1304 1.429 . S
C1323 C1317 1.429 . S
C1323 C1324 1.523 . S
C1324 C1305 1.368 . S
C1324 C1318 1.368 . S
C1324 C1323 1.523 . S
C1325 C1309 1.429 . S
C1325 C1321 1.429 . S
C1325 C1326 1.523 . S
C1326 C1310 1.368 . S
C1326 C1322 1.368 . S
C1326 C1325 1.523 . S
H1327 C1302 0.950 . S
H1328 C1304 0.950 . S
H1329 C1305 0.949 . S
H1330 C1307 0.950 . S
H1331 C1309 0.950 . S
C1332 C1333 1.349 . S
C1332 C1334 1.327 . S
C1332 H1357 0.950 . S
C1333 C1332 1.349 . S
C1333 C1349 1.349 . S
C1334 C1332 1.327 . S
C1334 C1353 1.429 . S
C1334 H1358 0.950 . S
C1335 C1352 1.574 . S
C1335 C1354 1.368 . S
C1335 H1359 0.949 . S
H1336 C1340 0.949 . S
C1337 C1338 1.349 . S
C1337 C1339 1.327 . S
C1337 H1360 0.950 . S
C1338 C1337 1.349 . S
C1338 C1350 1.349 . S
C1339 C1337 1.327 . S
C1339 C1355 1.429 . S
C1339 H1361 0.950 . S
C1340 H1336 0.949 . S
C1340 C1348 1.574 . S
C1340 C1356 1.368 . S
H1341 C1349 0.950 . S
H1342 C1347 0.950 . S
H1343 C1348 0.949 . S
H1344 C1350 0.950 . S
H1345 C1351 0.950 . S
H1346 C1352 0.949 . S
C1347 H1342 0.950 . S
C1347 C1349 1.327 . S
C1347 C1353 1.429 . S
C1348 C1340 1.574 . S
C1348 H1343 0.949 . S
C1348 C1354 1.368 . S
C1349 C1333 1.349 . S
C1349 H1341 0.950 . S
C1349 C1347 1.327 . S
C1350 C1338 1.349 . S
C1350 H1344 0.950 . S
C1350 C1351 1.327 . S
C1351 H1345 0.950 . S
C1351 C1350 1.327 . S
C1351 C1355 1.429 . S
C1352 C1335 1.574 . S
C1352 H1346 0.949 . S
C1352 C1356 1.368 . S
C1353 C1334 1.429 . S
C1353 C1347 1.429 . S
C1353 C1354 1.523 . S
C1354 C1335 1.368 . S
C1354 C1348 1.368 . S
C1354 C1353 1.523 . S
C1355 C1339 1.429 . S
C1355 C1351 1.429 . S
C1355 C1356 1.523 . S
C1356 C1340 1.368 . S
C1356 C1352 1.368 . S
C1356 C1355 1.523 . S
H1357 C1332 0.950 . S
H1358 C1334 0.950 . S
H1359 C1335 0.949 . S
H1360 C1337 0.950 . S
H1361 C1339 0.950 . S
C1362 C1363 1.349 . S
C1362 C1364 1.327 . S
C1362 H1387 0.950 . S
C1363 C1362 1.349 . S
C1363 C1379 1.349 . S
C1364 C1362 1.327 . S
C1364 C1383 1.429 . S
C1364 H1388 0.950 . S
C1365 C1382 1.574 . S
C1365 C1384 1.368 . S
C1365 H1389 0.949 . S
H1366 C1370 0.949 . S
C1367 C1368 1.349 . S
C1367 C1369 1.327 . S
C1367 H1390 0.950 . S
C1368 C1367 1.349 . S
C1368 C1380 1.349 . S
C1369 C1367 1.327 . S
C1369 C1385 1.429 . S
C1369 H1391 0.950 . S
C1370 H1366 0.949 . S
C1370 C1378 1.574 . S
C1370 C1386 1.368 . S
H1371 C1379 0.950 . S
H1372 C1377 0.950 . S
H1373 C1378 0.949 . S
H1374 C1380 0.950 . S
H1375 C1381 0.950 . S
H1376 C1382 0.949 . S
C1377 H1372 0.950 . S
C1377 C1379 1.327 . S
C1377 C1383 1.429 . S
C1378 C1370 1.574 . S
C1378 H1373 0.949 . S
C1378 C1384 1.368 . S
C1379 C1363 1.349 . S
C1379 H1371 0.950 . S
C1379 C1377 1.327 . S
C1380 C1368 1.349 . S
C1380 H1374 0.950 . S
C1380 C1381 1.327 . S
C1381 H1375 0.950 . S
C1381 C1380 1.327 . S
C1381 C1385 1.429 . S
C1382 C1365 1.574 . S
C1382 H1376 0.949 . S
C1382 C1386 1.368 . S
C1383 C1364 1.429 . S
C1383 C1377 1.429 . S
C1383 C1384 1.523 . S
C1384 C1365 1.368 . S
C1384 C1378 1.368 . S
C1384 C1383 1.523 . S
C1385 C1369 1.429 . S
C1385 C1381 1.429 . S
C1385 C1386 1.523 . S
C1386 C1370 1.368 . S
C1386 C1382 1.368 . S
C1386 C1385 1.523 . S
H1387 C1362 0.950 . S
H1388 C1364 0.950 . S
H1389 C1365 0.949 . S
H1390 C1367 0.950 . S
H1391 C1369 0.950 . S
C1392 C1393 1.349 . S
C1392 C1394 1.327 . S
C1392 H1417 0.950 . S
C1393 C1392 1.349 . S
C1393 C1409 1.349 . S
C1394 C1392 1.327 . S
C1394 C1413 1.429 . S
C1394 H1418 0.950 . S
C1395 C1412 1.574 . S
C1395 C1414 1.368 . S
C1395 H1419 0.949 . S
H1396 C1400 0.949 . S
C1397 C1398 1.349 . S
C1397 C1399 1.327 . S
C1397 H1420 0.950 . S
C1398 C1397 1.349 . S
C1398 C1410 1.349 . S
C1399 C1397 1.327 . S
C1399 C1415 1.429 . S
C1399 H1421 0.950 . S
C1400 H1396 0.949 . S
C1400 C1408 1.574 . S
C1400 C1416 1.368 . S
H1401 C1409 0.950 . S
H1402 C1407 0.950 . S
H1403 C1408 0.949 . S
H1404 C1410 0.950 . S
H1405 C1411 0.950 . S
H1406 C1412 0.949 . S
C1407 H1402 0.950 . S
C1407 C1409 1.327 . S
C1407 C1413 1.429 . S
C1408 C1400 1.574 . S
C1408 H1403 0.949 . S
C1408 C1414 1.368 . S
C1409 C1393 1.349 . S
C1409 H1401 0.950 . S
C1409 C1407 1.327 . S
C1410 C1398 1.349 . S
C1410 H1404 0.950 . S
C1410 C1411 1.327 . S
C1411 H1405 0.950 . S
C1411 C1410 1.327 . S
C1411 C1415 1.429 . S
C1412 C1395 1.574 . S
C1412 H1406 0.949 . S
C1412 C1416 1.368 . S
C1413 C1394 1.429 . S
C1413 C1407 1.429 . S
C1413 C1414 1.523 . S
C1414 C1395 1.368 . S
C1414 C1408 1.368 . S
C1414 C1413 1.523 . S
C1415 C1399 1.429 . S
C1415 C1411 1.429 . S
C1415 C1416 1.523 . S
C1416 C1400 1.368 . S
C1416 C1412 1.368 . S
C1416 C1415 1.523 . S
H1417 C1392 0.950 . S
H1418 C1394 0.950 . S
H1419 C1395 0.949 . S
H1420 C1397 0.950 . S
H1421 C1399 0.950 . S
C1422 C1423 1.349 . S
C1422 C1424 1.327 . S
C1422 H1447 0.950 . S
C1423 C1422 1.349 . S
C1423 C1439 1.349 . S
C1424 C1422 1.327 . S
C1424 C1443 1.429 . S
C1424 H1448 0.950 . S
C1425 C1442 1.574 . S
C1425 C1444 1.368 . S
C1425 H1449 0.949 . S
H1426 C1430 0.949 . S
C1427 C1428 1.349 . S
C1427 C1429 1.327 . S
C1427 H1450 0.950 . S
C1428 C1427 1.349 . S
C1428 C1440 1.349 . S
C1429 C1427 1.327 . S
C1429 C1445 1.429 . S
C1429 H1451 0.950 . S
C1430 H1426 0.949 . S
C1430 C1438 1.574 . S
C1430 C1446 1.368 . S
H1431 C1439 0.950 . S
H1432 C1437 0.950 . S
H1433 C1438 0.949 . S
H1434 C1440 0.950 . S
H1435 C1441 0.950 . S
H1436 C1442 0.949 . S
C1437 H1432 0.950 . S
C1437 C1439 1.327 . S
C1437 C1443 1.429 . S
C1438 C1430 1.574 . S
C1438 H1433 0.949 . S
C1438 C1444 1.368 . S
C1439 C1423 1.349 . S
C1439 H1431 0.950 . S
C1439 C1437 1.327 . S
C1440 C1428 1.349 . S
C1440 H1434 0.950 . S
C1440 C1441 1.327 . S
C1441 H1435 0.950 . S
C1441 C1440 1.327 . S
C1441 C1445 1.429 . S
C1442 C1425 1.574 . S
C1442 H1436 0.949 . S
C1442 C1446 1.368 . S
C1443 C1424 1.429 . S
C1443 C1437 1.429 . S
C1443 C1444 1.523 . S
C1444 C1425 1.368 . S
C1444 C1438 1.368 . S
C1444 C1443 1.523 . S
C1445 C1429 1.429 . S
C1445 C1441 1.429 . S
C1445 C1446 1.523 . S
C1446 C1430 1.368 . S
C1446 C1442 1.368 . S
C1446 C1445 1.523 . S
H1447 C1422 0.950 . S
H1448 C1424 0.950 . S
H1449 C1425 0.949 . S
H1450 C1427 0.950 . S
H1451 C1429 0.950 . S
C1452 C1453 1.349 . S
C1452 C1454 1.327 . S
C1452 H1477 0.950 . S
C1453 C1452 1.349 . S
C1453 C1469 1.349 . S
C1454 C1452 1.327 . S
C1454 C1473 1.429 . S
C1454 H1478 0.950 . S
C1455 C1472 1.574 . S
C1455 C1474 1.368 . S
C1455 H1479 0.949 . S
H1456 C1460 0.949 . S
C1457 C1458 1.349 . S
C1457 C1459 1.327 . S
C1457 H1480 0.950 . S
C1458 C1457 1.349 . S
C1458 C1470 1.349 . S
C1459 C1457 1.327 . S
C1459 C1475 1.429 . S
C1459 H1481 0.950 . S
C1460 H1456 0.949 . S
C1460 C1468 1.574 . S
C1460 C1476 1.368 . S
H1461 C1469 0.950 . S
H1462 C1467 0.950 . S
H1463 C1468 0.949 . S
H1464 C1470 0.950 . S
H1465 C1471 0.950 . S
H1466 C1472 0.949 . S
C1467 H1462 0.950 . S
C1467 C1469 1.327 . S
C1467 C1473 1.429 . S
C1468 C1460 1.574 . S
C1468 H1463 0.949 . S
C1468 C1474 1.368 . S
C1469 C1453 1.349 . S
C1469 H1461 0.950 . S
C1469 C1467 1.327 . S
C1470 C1458 1.349 . S
C1470 H1464 0.950 . S
C1470 C1471 1.327 . S
C1471 H1465 0.950 . S
C1471 C1470 1.327 . S
C1471 C1475 1.429 . S
C1472 C1455 1.574 . S
C1472 H1466 0.949 . S
C1472 C1476 1.368 . S
C1473 C1454 1.429 . S
C1473 C1467 1.429 . S
C1473 C1474 1.523 . S
C1474 C1455 1.368 . S
C1474 C1468 1.368 . S
C1474 C1473 1.523 . S
C1475 C1459 1.429 . S
C1475 C1471 1.429 . S
C1475 C1476 1.523 . S
C1476 C1460 1.368 . S
C1476 C1472 1.368 . S
C1476 C1475 1.523 . S
H1477 C1452 0.950 . S
H1478 C1454 0.950 . S
H1479 C1455 0.949 . S
H1480 C1457 0.950 . S
H1481 C1459 0.950 . S
C1482 C1483 1.349 . S
C1482 C1484 1.327 . S
C1482 H1507 0.950 . S
C1483 C1482 1.349 . S
C1483 C1499 1.349 . S
C1484 C1482 1.327 . S
C1484 C1503 1.429 . S
C1484 H1508 0.950 . S
C1485 C1502 1.574 . S
C1485 C1504 1.368 . S
C1485 H1509 0.949 . S
H1486 C1490 0.949 . S
C1487 C1488 1.349 . S
C1487 C1489 1.327 . S
C1487 H1510 0.950 . S
C1488 C1487 1.349 . S
C1488 C1500 1.349 . S
C1489 C1487 1.327 . S
C1489 C1505 1.429 . S
C1489 H1511 0.950 . S
C1490 H1486 0.949 . S
C1490 C1498 1.574 . S
C1490 C1506 1.368 . S
H1491 C1499 0.950 . S
H1492 C1497 0.950 . S
H1493 C1498 0.949 . S
H1494 C1500 0.950 . S
H1495 C1501 0.950 . S
H1496 C1502 0.949 . S
C1497 H1492 0.950 . S
C1497 C1499 1.327 . S
C1497 C1503 1.429 . S
C1498 C1490 1.574 . S
C1498 H1493 0.949 . S
C1498 C1504 1.368 . S
C1499 C1483 1.349 . S
C1499 H1491 0.950 . S
C1499 C1497 1.327 . S
C1500 C1488 1.349 . S
C1500 H1494 0.950 . S
C1500 C1501 1.327 . S
C1501 H1495 0.950 . S
C1501 C1500 1.327 . S
C1501 C1505 1.429 . S
C1502 C1485 1.574 . S
C1502 H1496 0.949 . S
C1502 C1506 1.368 . S
C1503 C1484 1.429 . S
C1503 C1497 1.429 . S
C1503 C1504 1.523 . S
C1504 C1485 1.368 . S
C1504 C1498 1.368 . S
C1504 C1503 1.523 . S
C1505 C1489 1.429 . S
C1505 C1501 1.429 . S
C1505 C1506 1.523 . S
C1506 C1490 1.368 . S
C1506 C1502 1.368 . S
C1506 C1505 1.523 . S
H1507 C1482 0.950 . S
H1508 C1484 0.950 . S
H1509 C1485 0.949 . S
H1510 C1487 0.950 . S
H1511 C1489 0.950 . S
C1512 C1513 1.349 . S
C1512 C1514 1.327 . S
C1512 H1537 0.950 . S
C1513 C1512 1.349 . S
C1513 C1529 1.349 . S
C1514 C1512 1.327 . S
C1514 C1533 1.429 . S
C1514 H1538 0.950 . S
C1515 C1532 1.574 . S
C1515 C1534 1.368 . S
C1515 H1539 0.949 . S
H1516 C1520 0.949 . S
C1517 C1518 1.349 . S
C1517 C1519 1.327 . S
C1517 H1540 0.950 . S
C1518 C1517 1.349 . S
C1518 C1530 1.349 . S
C1519 C1517 1.327 . S
C1519 C1535 1.429 . S
C1519 H1541 0.950 . S
C1520 H1516 0.949 . S
C1520 C1528 1.574 . S
C1520 C1536 1.368 . S
H1521 C1529 0.950 . S
H1522 C1527 0.950 . S
H1523 C1528 0.949 . S
H1524 C1530 0.950 . S
H1525 C1531 0.950 . S
H1526 C1532 0.949 . S
C1527 H1522 0.950 . S
C1527 C1529 1.327 . S
C1527 C1533 1.429 . S
C1528 C1520 1.574 . S
C1528 H1523 0.949 . S
C1528 C1534 1.368 . S
C1529 C1513 1.349 . S
C1529 H1521 0.950 . S
C1529 C1527 1.327 . S
C1530 C1518 1.349 . S
C1530 H1524 0.950 . S
C1530 C1531 1.327 . S
C1531 H1525 0.950 . S
C1531 C1530 1.327 . S
C1531 C1535 1.429 . S
C1532 C1515 1.574 . S
C1532 H1526 0.949 . S
C1532 C1536 1.368 . S
C1533 C1514 1.429 . S
C1533 C1527 1.429 . S
C1533 C1534 1.523 . S
C1534 C1515 1.368 . S
C1534 C1528 1.368 . S
C1534 C1533 1.523 . S
C1535 C1519 1.429 . S
C1535 C1531 1.429 . S
C1535 C1536 1.523 . S
C1536 C1520 1.368 . S
C1536 C1532 1.368 . S
C1536 C1535 1.523 . S
H1537 C1512 0.950 . S
H1538 C1514 0.950 . S
H1539 C1515 0.949 . S
H1540 C1517 0.950 . S
H1541 C1519 0.950 . S
C1542 C1543 1.349 . S
C1542 C1544 1.327 . S
C1542 H1567 0.950 . S
C1543 C1542 1.349 . S
C1543 C1559 1.349 . S
C1544 C1542 1.327 . S
C1544 C1563 1.429 . S
C1544 H1568 0.950 . S
C1545 C1562 1.574 . S
C1545 C1564 1.368 . S
C1545 H1569 0.949 . S
H1546 C1550 0.949 . S
C1547 C1548 1.349 . S
C1547 C1549 1.327 . S
C1547 H1570 0.950 . S
C1548 C1547 1.349 . S
C1548 C1560 1.349 . S
C1549 C1547 1.327 . S
C1549 C1565 1.429 . S
C1549 H1571 0.950 . S
C1550 H1546 0.949 . S
C1550 C1558 1.574 . S
C1550 C1566 1.368 . S
H1551 C1559 0.950 . S
H1552 C1557 0.950 . S
H1553 C1558 0.949 . S
H1554 C1560 0.950 . S
H1555 C1561 0.950 . S
H1556 C1562 0.949 . S
C1557 H1552 0.950 . S
C1557 C1559 1.327 . S
C1557 C1563 1.429 . S
C1558 C1550 1.574 . S
C1558 H1553 0.949 . S
C1558 C1564 1.368 . S
C1559 C1543 1.349 . S
C1559 H1551 0.950 . S
C1559 C1557 1.327 . S
C1560 C1548 1.349 . S
C1560 H1554 0.950 . S
C1560 C1561 1.327 . S
C1561 H1555 0.950 . S
C1561 C1560 1.327 . S
C1561 C1565 1.429 . S
C1562 C1545 1.574 . S
C1562 H1556 0.949 . S
C1562 C1566 1.368 . S
C1563 C1544 1.429 . S
C1563 C1557 1.429 . S
C1563 C1564 1.523 . S
C1564 C1545 1.368 . S
C1564 C1558 1.368 . S
C1564 C1563 1.523 . S
C1565 C1549 1.429 . S
C1565 C1561 1.429 . S
C1565 C1566 1.523 . S
C1566 C1550 1.368 . S
C1566 C1562 1.368 . S
C1566 C1565 1.523 . S
H1567 C1542 0.950 . S
H1568 C1544 0.950 . S
H1569 C1545 0.949 . S
H1570 C1547 0.950 . S
H1571 C1549 0.950 . S
C1572 C1573 1.349 . S
C1572 C1574 1.327 . S
C1572 H1597 0.950 . S
C1573 C1572 1.349 . S
C1573 C1589 1.349 . S
C1574 C1572 1.327 . S
C1574 C1593 1.429 . S
C1574 H1598 0.950 . S
C1575 C1592 1.574 . S
C1575 C1594 1.368 . S
C1575 H1599 0.949 . S
H1576 C1580 0.949 . S
C1577 C1578 1.349 . S
C1577 C1579 1.327 . S
C1577 H1600 0.950 . S
C1578 C1577 1.349 . S
C1578 C1590 1.349 . S
C1579 C1577 1.327 . S
C1579 C1595 1.429 . S
C1579 H1601 0.950 . S
C1580 H1576 0.949 . S
C1580 C1588 1.574 . S
C1580 C1596 1.368 . S
H1581 C1589 0.950 . S
H1582 C1587 0.950 . S
H1583 C1588 0.949 . S
H1584 C1590 0.950 . S
H1585 C1591 0.950 . S
H1586 C1592 0.949 . S
C1587 H1582 0.950 . S
C1587 C1589 1.327 . S
C1587 C1593 1.429 . S
C1588 C1580 1.574 . S
C1588 H1583 0.949 . S
C1588 C1594 1.368 . S
C1589 C1573 1.349 . S
C1589 H1581 0.950 . S
C1589 C1587 1.327 . S
C1590 C1578 1.349 . S
C1590 H1584 0.950 . S
C1590 C1591 1.327 . S
C1591 H1585 0.950 . S
C1591 C1590 1.327 . S
C1591 C1595 1.429 . S
C1592 C1575 1.574 . S
C1592 H1586 0.949 . S
C1592 C1596 1.368 . S
C1593 C1574 1.429 . S
C1593 C1587 1.429 . S
C1593 C1594 1.523 . S
C1594 C1575 1.368 . S
C1594 C1588 1.368 . S
C1594 C1593 1.523 . S
C1595 C1579 1.429 . S
C1595 C1591 1.429 . S
C1595 C1596 1.523 . S
C1596 C1580 1.368 . S
C1596 C1592 1.368 . S
C1596 C1595 1.523 . S
H1597 C1572 0.950 . S
H1598 C1574 0.950 . S
H1599 C1575 0.949 . S
H1600 C1577 0.950 . S
H1601 C1579 0.950 . S
C1602 C1603 1.349 . S
C1602 C1604 1.327 . S
C1602 H1627 0.950 . S
C1603 C1602 1.349 . S
C1603 C1619 1.349 . S
C1604 C1602 1.327 . S
C1604 C1623 1.429 . S
C1604 H1628 0.950 . S
C1605 C1622 1.574 . S
C1605 C1624 1.368 . S
C1605 H1629 0.949 . S
H1606 C1610 0.949 . S
C1607 C1608 1.349 . S
C1607 C1609 1.327 . S
C1607 H1630 0.950 . S
C1608 C1607 1.349 . S
C1608 C1620 1.349 . S
C1609 C1607 1.327 . S
C1609 C1625 1.429 . S
C1609 H1631 0.950 . S
C1610 H1606 0.949 . S
C1610 C1618 1.574 . S
C1610 C1626 1.368 . S
H1611 C1619 0.950 . S
H1612 C1617 0.950 . S
H1613 C1618 0.949 . S
H1614 C1620 0.950 . S
H1615 C1621 0.950 . S
H1616 C1622 0.949 . S
C1617 H1612 0.950 . S
C1617 C1619 1.327 . S
C1617 C1623 1.429 . S
C1618 C1610 1.574 . S
C1618 H1613 0.949 . S
C1618 C1624 1.368 . S
C1619 C1603 1.349 . S
C1619 H1611 0.950 . S
C1619 C1617 1.327 . S
C1620 C1608 1.349 . S
C1620 H1614 0.950 . S
C1620 C1621 1.327 . S
C1621 H1615 0.950 . S
C1621 C1620 1.327 . S
C1621 C1625 1.429 . S
C1622 C1605 1.574 . S
C1622 H1616 0.949 . S
C1622 C1626 1.368 . S
C1623 C1604 1.429 . S
C1623 C1617 1.429 . S
C1623 C1624 1.523 . S
C1624 C1605 1.368 . S
C1624 C1618 1.368 . S
C1624 C1623 1.523 . S
C1625 C1609 1.429 . S
C1625 C1621 1.429 . S
C1625 C1626 1.523 . S
C1626 C1610 1.368 . S
C1626 C1622 1.368 . S
C1626 C1625 1.523 . S
H1627 C1602 0.950 . S
H1628 C1604 0.950 . S
H1629 C1605 0.949 . S
H1630 C1607 0.950 . S
H1631 C1609 0.950 . S
C913 C31 1.372 1_455 S
C918 C341 1.369 1_655 S
C943 C73 1.598 . S
C948 C612 1.598 . S
C973 C98 1.598 . S
C978 C243 1.598 . S
C1003 C542 1.373 1_565 S
C1008 C1 1.367 1_545 S
C1033 C113 1.373 1_655 S
C1038 C259 1.377 1_455 S
C1063 C156 1.598 . S
C1068 C529 1.598 . S
C1093 C326 1.598 . S
C1098 C15 1.598 . S
C1123 C457 1.372 1_545 S
C1128 C86 1.378 1_565 S
C1153 C827 1.373 1_556 S
C1158 C58 1.367 1_554 S
C1183 C810 1.598 . S
C1188 C45 1.598 . S
C1213 C729 1.598 . S
C1218 C126 1.598 . S
C1243 C143 1.373 1_556 S
C1248 C742 1.377 1_554 S
C1273 C840 1.598 . S
C1278 C301 1.605 . S
C1303 C229 1.374 . S
C1308 C770 1.375 . S
C1333 C384 1.598 . S
C1338 C757 1.592 . S
C1363 C685 1.374 . S
C1368 C314 1.374 . S
C1393 C599 1.374 . S
C1398 C286 1.374 . S
C1423 C273 1.598 . S
C1428 C582 1.592 . S
C1453 C354 1.598 . S
C1458 C501 1.605 . S
C1483 C514 1.374 . S
C1488 C371 1.375 . S
C1513 C797 1.374 . S
C1518 C487 1.374 . S
C1543 C554 1.598 . S
C1548 C699 1.605 . S
C1573 C715 1.374 . S
C1578 C569 1.375 . S
C1603 C471 1.598 . S
C1608 C782 1.592 . S
