# Generated by pormake.
# Topology irl, (4)-cn, num edge types: 1
# Building blocks:
#     Node 0, Type 0, BuildingBlock: GALJAG_clean_sbu_0, # of connection points: 4
#     Node 1, Type 0, BuildingBlock: GALJAG_clean_sbu_0, # of connection points: 4
#     Node 2, Type 0, BuildingBlock: GALJAG_clean_sbu_0, # of connection points: 4
#     Node 3, Type 0, BuildingBlock: GALJAG_clean_sbu_0, # of connection points: 4
#     Node 4, Type 0, BuildingBlock: GALJAG_clean_sbu_0, # of connection points: 4
#     Node 5, Type 0, BuildingBlock: GALJAG_clean_sbu_0, # of connection points: 4
#     Node 6, Type 0, BuildingBlock: GALJAG_clean_sbu_0, # of connection points: 4
#     Node 7, Type 0, BuildingBlock: GALJAG_clean_sbu_0, # of connection points: 4
#     Edge 8, Type (0, 0), BuildingBlock: MIFKUJ_clean_linker_0, # of connection points: 2
#     Edge 9, Type (0, 0), BuildingBlock: MIFKUJ_clean_linker_0, # of connection points: 2
#     Edge 10, Type (0, 0), BuildingBlock: MIFKUJ_clean_linker_0, # of connection points: 2
#     Edge 11, Type (0, 0), BuildingBlock: MIFKUJ_clean_linker_0, # of connection points: 2
#     Edge 12, Type (0, 0), BuildingBlock: MIFKUJ_clean_linker_0, # of connection points: 2
#     Edge 13, Type (0, 0), BuildingBlock: MIFKUJ_clean_linker_0, # of connection points: 2
#     Edge 14, Type (0, 0), BuildingBlock: MIFKUJ_clean_linker_0, # of connection points: 2
#     Edge 15, Type (0, 0), BuildingBlock: MIFKUJ_clean_linker_0, # of connection points: 2
#     Edge 16, Type (0, 0), BuildingBlock: MIFKUJ_clean_linker_0, # of connection points: 2
#     Edge 17, Type (0, 0), BuildingBlock: MIFKUJ_clean_linker_0, # of connection points: 2
#     Edge 18, Type (0, 0), BuildingBlock: MIFKUJ_clean_linker_0, # of connection points: 2
#     Edge 19, Type (0, 0), BuildingBlock: MIFKUJ_clean_linker_0, # of connection points: 2
#     Edge 20, Type (0, 0), BuildingBlock: MIFKUJ_clean_linker_0, # of connection points: 2
#     Edge 21, Type (0, 0), BuildingBlock: MIFKUJ_clean_linker_0, # of connection points: 2
#     Edge 22, Type (0, 0), BuildingBlock: MIFKUJ_clean_linker_0, # of connection points: 2
#     Edge 23, Type (0, 0), BuildingBlock: MIFKUJ_clean_linker_0, # of connection points: 2
# Relax obj value: 0.098
# Max RMSD: 0.151
# Mean RMSD: 0.151
data_MOF--net-irl--node1-GALJAG_clean_sbu_0--edge1-MIFKUJ_clean_linker_0
_symmetry_space_group_name_H-M    P1
_symmetry_Int_Tables_number       1
_symmetry_cell_setting            triclinic
loop_
_symmetry_equiv_pos_as_xyz
'x, y, z'
_cell_length_a     38.559633
_cell_length_b     62.051951
_cell_length_c     37.549307
_cell_angle_alpha  90.054714
_cell_angle_beta   90.039538
_cell_angle_gamma 89.999077
loop_
_atom_site_label
_atom_site_type_symbol
_atom_site_fract_x
_atom_site_fract_y
_atom_site_fract_z
_atom_type_partial_charge
In0 In 0.04336 0.15462 0.01728 0.0
O1 O 0.00655 0.17048 0.05751 0.0
O2 O 0.05267 0.15518 0.07618 0.0
C3 C 0.01901 0.16208 0.95174 0.0
C4 C 0.10101 0.17848 0.01085 0.0
C5 C 0.03169 0.11206 0.02002 0.0
O6 O 0.00783 0.17259 0.97829 0.0
O7 O 0.04112 0.14774 0.95878 0.0
O8 O 0.06177 0.11981 0.01564 0.0
O9 O 0.00772 0.12584 0.02331 0.0
C10 C 0.02555 0.16555 0.08381 0.0
O11 O 0.10247 0.15844 0.01693 0.0
O12 O 0.07084 0.1861 0.00815 0.0
In13 In 0.95263 0.84226 0.02364 0.0
O14 O 0.89348 0.84166 0.02762 0.0
O15 O 0.92177 0.81331 0.04111 0.0
C16 C 0.96161 0.88473 0.01333 0.0
C17 C 0.98322 0.83629 0.08717 0.0
C18 C 0.96767 0.82643 0.95879 0.0
O19 O 0.93274 0.87683 0.0226 0.0
O20 O 0.98558 0.87113 0.00869 0.0
O21 O 0.99062 0.82801 0.98274 0.0
O22 O 0.93793 0.83279 0.96778 0.0
C23 C 0.89257 0.82222 0.0377 0.0
O24 O 0.98599 0.82253 0.06248 0.0
O25 O 0.96626 0.85294 0.07921 0.0
In26 In 0.05071 0.84842 0.52482 0.0
O27 O 0.01315 0.8318 0.48616 0.0
O28 O 0.04756 0.85587 0.46636 0.0
C29 C 0.03304 0.83548 0.59039 0.0
C30 C 0.10708 0.82366 0.51673 0.0
C31 C 0.04161 0.89111 0.53191 0.0
O32 O 0.0121 0.83407 0.56449 0.0
O33 O 0.06211 0.84366 0.58304 0.0
O34 O 0.07117 0.88292 0.52622 0.0
O35 O 0.01708 0.87771 0.53451 0.0
C36 C 0.02413 0.8423 0.45959 0.0
O37 O 0.10947 0.84387 0.52075 0.0
O38 O 0.07657 0.81635 0.51649 0.0
In39 In 0.95517 0.16053 0.52388 0.0
O40 O 0.98573 0.17707 0.4794 0.0
O41 O 0.94154 0.15807 0.46574 0.0
C42 C 0.98864 0.1691 0.58474 0.0
C43 C 0.89771 0.18382 0.53643 0.0
C44 C 0.96783 0.11807 0.52148 0.0
O45 O 0.99525 0.17946 0.55655 0.0
O46 O 0.96602 0.15456 0.58174 0.0
O47 O 0.93791 0.12556 0.52793 0.0
O48 O 0.99107 0.13206 0.5159 0.0
C49 C 0.96604 0.16989 0.45516 0.0
O50 O 0.89672 0.16348 0.5345 0.0
O51 O 0.92726 0.19199 0.53191 0.0
In52 In 0.54642 0.6545 0.02115 0.0
O53 O 0.60443 0.66044 0.02765 0.0
O54 O 0.57177 0.68665 0.0121 0.0
C55 C 0.53971 0.6119 0.03277 0.0
C56 C 0.51967 0.67058 0.08129 0.0
C57 C 0.52919 0.65902 0.95239 0.0
O58 O 0.56905 0.62065 0.02855 0.0
O59 O 0.51429 0.62465 0.03128 0.0
O60 O 0.51175 0.66784 0.97694 0.0
O61 O 0.5542 0.64757 0.96283 0.0
C62 C 0.60196 0.68024 0.01971 0.0
O63 O 0.50067 0.66684 0.0545 0.0
O64 O 0.55126 0.66595 0.07766 0.0
In65 In 0.45222 0.34343 0.03039 0.0
O66 O 0.49282 0.32873 0.06784 0.0
O67 O 0.44454 0.33964 0.08919 0.0
C68 C 0.47029 0.3358 0.96262 0.0
C69 C 0.39375 0.32029 0.02724 0.0
C70 C 0.46649 0.38554 0.03708 0.0
O71 O 0.48328 0.32501 0.98796 0.0
O72 O 0.44958 0.35049 0.97187 0.0
O73 O 0.43571 0.37842 0.03814 0.0
O74 O 0.48968 0.37139 0.03276 0.0
C75 C 0.47362 0.33101 0.095 0.0
O76 O 0.39313 0.34071 0.02647 0.0
O77 O 0.42352 0.31199 0.02965 0.0
In78 In 0.5402 0.34013 0.53444 0.0
O79 O 0.59813 0.33845 0.54729 0.0
O80 O 0.5685 0.30945 0.54784 0.0
C81 C 0.52888 0.38269 0.52912 0.0
C82 C 0.53297 0.32851 0.46586 0.0
C83 C 0.50455 0.33125 0.59396 0.0
O84 O 0.55832 0.37508 0.53714 0.0
O85 O 0.50558 0.3688 0.52331 0.0
O86 O 0.50171 0.31961 0.56644 0.0
O87 O 0.52443 0.34726 0.59088 0.0
C88 C 0.59774 0.31823 0.55174 0.0
O89 O 0.50827 0.32668 0.48786 0.0
O90 O 0.56057 0.3362 0.47858 0.0
In91 In 0.45077 0.65259 0.51769 0.0
O92 O 0.39207 0.65754 0.51701 0.0
O93 O 0.42517 0.68455 0.50752 0.0
C94 C 0.45875 0.60998 0.52768 0.0
C95 C 0.47268 0.6575 0.45052 0.0
C96 C 0.47272 0.66748 0.58076 0.0
O97 O 0.4291 0.61849 0.52426 0.0
O98 O 0.48384 0.62301 0.52649 0.0
O99 O 0.49344 0.6651 0.55493 0.0
O100 O 0.44172 0.66224 0.57463 0.0
C101 C 0.39458 0.67752 0.51044 0.0
O102 O 0.48659 0.6677 0.47602 0.0
O103 O 0.44893 0.64462 0.45937 0.0
H104 H 0.91575 0.91729 0.02677 0.0
H105 H 0.92742 0.95606 0.02641 0.0
H106 H 0.03274 0.94378 0.99336 0.0
H107 H 0.02139 0.90502 0.99415 0.0
H108 H 0.03053 0.97178 0.04789 0.0
H109 H 0.97295 0.9637 0.93511 0.0
H110 H 0.9257 0.95239 0.89495 0.0
H111 H 0.85428 0.99305 0.9514 0.0
H112 H 0.90102 0.00438 0.99224 0.0
H113 H 0.07714 0.07944 0.00572 0.0
H114 H 0.06482 0.04079 0.00363 0.0
H115 H 0.95843 0.05323 0.03275 0.0
H116 H 0.97041 0.09191 0.03403 0.0
H117 H 0.96106 0.02506 0.98001 0.0
H118 H 0.01765 0.03288 0.09312 0.0
H119 H 0.06419 0.04397 0.13432 0.0
H120 H 0.13662 0.00368 0.07851 0.0
H121 H 0.09059 0.99257 0.03667 0.0
C122 C 0.94128 0.92288 0.01909 0.0
C123 C 0.96766 0.90815 0.01048 0.0
C124 C 0.9479 0.94502 0.01882 0.0
C125 C 0.98091 0.9528 0.00965 0.0
C126 C 0.00711 0.93811 0.00056 0.0
C127 C 0.00054 0.91599 0.00089 0.0
C128 C 0.98853 0.97621 0.01075 0.0
C129 C 0.01567 0.98342 0.03265 0.0
C130 C 0.96851 0.99141 0.99162 0.0
C131 C 0.94043 0.98473 0.96693 0.0
C132 C 0.94711 0.97011 0.93913 0.0
C133 C 0.92043 0.96372 0.91621 0.0
C134 C 0.88699 0.97196 0.92067 0.0
C135 C 0.88019 0.98666 0.948 0.0
C136 C 0.90677 0.99309 0.97102 0.0
C137 C 0.05118 0.07391 0.01185 0.0
C138 C 0.02475 0.08867 0.02012 0.0
C139 C 0.04419 0.05182 0.01075 0.0
C140 C 0.01077 0.04409 0.0184 0.0
C141 C 0.98438 0.05883 0.02674 0.0
C142 C 0.9913 0.08091 0.02759 0.0
C143 C 0.00313 0.02066 0.01712 0.0
C144 C 0.97596 0.01344 0.99522 0.0
C145 C 0.02304 0.00544 0.03637 0.0
C146 C 0.05074 0.01206 0.06155 0.0
C147 C 0.04356 0.02652 0.08946 0.0
C148 C 0.06984 0.03278 0.11296 0.0
C149 C 0.10336 0.02458 0.10898 0.0
C150 C 0.11066 0.01005 0.08154 0.0
C151 C 0.08448 0.00375 0.05794 0.0
H152 H 0.12367 0.02945 0.1272 0.0
H153 H 0.86636 0.96699 0.90291 0.0
H154 H 0.08795 0.92351 0.51869 0.0
H155 H 0.07632 0.96231 0.51764 0.0
H156 H 0.97014 0.9504 0.54809 0.0
H157 H 0.9814 0.91168 0.54842 0.0
H158 H 0.97269 0.97785 0.49436 0.0
H159 H 0.03042 0.97095 0.60736 0.0
H160 H 0.07777 0.96032 0.64788 0.0
H161 H 0.14872 0.00074 0.5905 0.0
H162 H 0.10188 0.0114 0.54933 0.0
H163 H 0.92377 0.08499 0.53746 0.0
H164 H 0.93731 0.04649 0.53961 0.0
H165 H 0.04259 0.06 0.50779 0.0
H166 H 0.02939 0.09853 0.50624 0.0
H167 H 0.0414 0.03191 0.56152 0.0
H168 H 0.98369 0.03899 0.44885 0.0
H169 H 0.93645 0.04963 0.40821 0.0
H170 H 0.86557 0.00876 0.46482 0.0
H171 H 0.91231 0.9981 0.50612 0.0
C172 C 0.06223 0.92921 0.52545 0.0
C173 C 0.03558 0.91459 0.53364 0.0
C174 C 0.05563 0.95137 0.52494 0.0
C175 C 0.0224 0.95928 0.53303 0.0
C176 C 0.99594 0.94467 0.54168 0.0
C177 C 0.00245 0.92255 0.54199 0.0
C178 C 0.01475 0.98269 0.53133 0.0
C179 C 0.98742 0.98964 0.50944 0.0
C180 C 0.03455 0.99813 0.55024 0.0
C181 C 0.06272 0.99181 0.57505 0.0
C182 C 0.05618 0.97745 0.60322 0.0
C183 C 0.08292 0.97144 0.62633 0.0
C184 C 0.11625 0.9798 0.62171 0.0
C185 C 0.1229 0.99425 0.59402 0.0
C186 C 0.09626 0.0003 0.57081 0.0
C187 C 0.94975 0.07974 0.53077 0.0
C188 C 0.97549 0.09475 0.52158 0.0
C189 C 0.95743 0.05774 0.53191 0.0
C190 C 0.99089 0.05035 0.52351 0.0
C191 C 0.01662 0.06534 0.51436 0.0
C192 C 0.00899 0.08734 0.51336 0.0
C193 C -0.00079 0.02702 0.52473 0.0
C194 C 0.02668 0.0201 0.54646 0.0
C195 C 0.97955 0.01158 0.50567 0.0
C196 C 0.95143 0.01791 0.48078 0.0
C197 C 0.95797 0.0324 0.4528 0.0
C198 C 0.9313 0.03841 0.42962 0.0
C199 C 0.89801 0.02992 0.43399 0.0
C200 C 0.89136 0.01535 0.4615 0.0
C201 C 0.91794 0.0093 0.48478 0.0
H202 H 0.87739 0.03459 0.41601 0.0
H203 H 0.13691 0.97513 0.63964 0.0
H204 H 0.47995 0.59102 0.04941 0.0
H205 H 0.47067 0.55224 0.05444 0.0
H206 H 0.57896 0.54099 0.03238 0.0
H207 H 0.58846 0.57998 0.0272 0.0
H208 H 0.53595 0.51576 0.99161 0.0
H209 H 0.54913 0.53327 0.11471 0.0
H210 H 0.53809 0.55328 0.1703 0.0
H211 H 0.43137 0.53356 0.16794 0.0
H212 H 0.44165 0.51368 0.11201 0.0
H213 H 0.53003 0.40416 0.03027 0.0
H214 H 0.54431 0.44247 0.033 0.0
H215 H 0.43686 0.4576 0.05288 0.0
H216 H 0.42232 0.41915 0.05025 0.0
H217 H 0.4821 0.48052 0.0965 0.0
H218 H 0.46805 0.46481 0.97217 0.0
H219 H 0.47848 0.44503 0.91621 0.0
H220 H 0.58647 0.46172 0.92076 0.0
H221 H 0.57676 0.48134 0.97708 0.0
C222 C 0.50188 0.58032 0.0459 0.0
C223 C 0.53495 0.58851 0.03787 0.0
C224 C 0.49655 0.55817 0.04895 0.0
C225 C 0.52417 0.54376 0.04406 0.0
C226 C 0.55733 0.55187 0.03634 0.0
C227 C 0.56274 0.57411 0.0335 0.0
C228 C 0.51784 0.52023 0.04536 0.0
C229 C 0.5248 0.50797 0.01478 0.0
C230 C 0.5024 0.51023 0.07528 0.0
C231 C 0.4961 0.52214 0.10897 0.0
C232 C 0.52323 0.53335 0.12587 0.0
C233 C 0.51712 0.54464 0.15748 0.0
C234 C 0.48403 0.54474 0.1726 0.0
C235 C 0.45699 0.53349 0.15618 0.0
C236 C 0.46295 0.52219 0.12453 0.0
C237 C 0.50943 0.41562 0.03534 0.0
C238 C 0.47501 0.40868 0.03987 0.0
C239 C 0.51763 0.4375 0.03681 0.0
C240 C 0.49159 0.45286 0.04281 0.0
C241 C 0.45731 0.44597 0.04818 0.0
C242 C 0.44903 0.42404 0.04654 0.0
C243 C 0.50013 0.47613 0.04273 0.0
C244 C 0.49351 0.48831 0.07346 0.0
C245 C 0.51583 0.4861 0.01294 0.0
C246 C 0.52175 0.47434 0.97905 0.0
C247 C 0.49408 0.4641 0.96141 0.0
C248 C 0.49985 0.45295 0.9296 0.0
C249 C 0.53314 0.45206 0.915 0.0
C250 C 0.56071 0.46238 0.93214 0.0
C251 C 0.55509 0.47353 0.964 0.0
H252 H 0.53755 0.44343 0.89035 0.0
H253 H 0.47936 0.55349 0.19708 0.0
H254 H 0.46631 0.40215 0.51943 0.0
H255 H 0.45348 0.44066 0.52044 0.0
H256 H 0.56189 0.45459 0.5374 0.0
H257 H 0.57479 0.41593 0.5373 0.0
H258 H 0.52285 0.47813 0.58065 0.0
H259 H 0.52269 0.46232 0.45562 0.0
H260 H 0.50568 0.44288 0.40103 0.0
H261 H 0.39945 0.46106 0.41749 0.0
H262 H 0.41575 0.48037 0.47248 0.0
H263 H 0.52005 0.58912 0.53709 0.0
H264 H 0.53012 0.55033 0.53924 0.0
H265 H 0.42028 0.53891 0.52805 0.0
H266 H 0.41 0.5779 0.52548 0.0
H267 H 0.4584 0.51405 0.4829 0.0
H268 H 0.45986 0.5311 0.60743 0.0
H269 H 0.47807 0.551 0.66114 0.0
H270 H 0.5834 0.53092 0.64458 0.0
H271 H 0.56591 0.51114 0.59046 0.0
C272 C 0.48746 0.41341 0.52318 0.0
C273 C 0.52159 0.40605 0.52816 0.0
C274 C 0.4801 0.43543 0.52363 0.0
C275 C 0.50678 0.45054 0.52856 0.0
C276 C 0.54091 0.44322 0.53351 0.0
C277 C 0.54827 0.42115 0.53331 0.0
C278 C 0.49891 0.47395 0.52924 0.0
C279 C 0.50916 0.48604 0.55906 0.0
C280 C 0.48026 0.48416 0.50148 0.0
C281 C 0.4704 0.47261 0.46836 0.0
C282 C 0.49566 0.46203 0.44775 0.0
C283 C 0.48615 0.45106 0.41671 0.0
C284 C 0.45149 0.45069 0.40585 0.0
C285 C 0.42628 0.46134 0.42596 0.0
C286 C 0.43564 0.47232 0.45705 0.0
C287 C 0.49797 0.57837 0.53536 0.0
C288 C 0.46421 0.58653 0.53115 0.0
C289 C 0.50377 0.55621 0.53673 0.0
C290 C 0.47592 0.54174 0.53414 0.0
C291 C 0.44211 0.54982 0.53018 0.0
C292 C 0.43627 0.57206 0.52885 0.0
C293 C 0.48244 0.5182 0.53422 0.0
C294 C 0.47196 0.5061 0.50454 0.0
C295 C 0.50104 0.50801 0.562 0.0
C296 C 0.5116 0.51978 0.59471 0.0
C297 C 0.48695 0.53105 0.61509 0.0
C298 C 0.49714 0.5423 0.64564 0.0
C299 C 0.53188 0.54227 0.65622 0.0
C300 C 0.5565 0.53095 0.63633 0.0
C301 C 0.54645 0.5197 0.60574 0.0
H302 H 0.53972 0.55098 0.67988 0.0
H303 H 0.44419 0.44219 0.3818 0.0
H304 H 0.05654 0.14986 0.14287 0.0
H305 H 0.0439 0.15833 0.20463 0.0
H306 H 0.96457 0.20309 0.1712 0.0
H307 H 0.97647 0.19397 0.10865 0.0
H308 H 0.04869 0.19257 0.24303 0.0
H309 H 0.90138 0.20397 0.23594 0.0
H310 H 0.85146 0.19355 0.19845 0.0
H311 H 0.90466 0.13589 0.16649 0.0
H312 H 0.95466 0.14587 0.20408 0.0
H313 H 0.99794 0.20482 0.42502 0.0
H314 H 0.00422 0.21243 0.3612 0.0
H315 H 0.95287 0.15236 0.33653 0.0
H316 H 0.94478 0.14549 0.39976 0.0
H317 H 0.93132 0.18006 0.2927 0.0
H318 H 0.04617 0.16048 0.33664 0.0
H319 H 0.09802 0.16489 0.37453 0.0
H320 H 0.1132 0.22873 0.33331 0.0
H321 H 0.06121 0.22474 0.29544 0.0
C322 C 0.03637 0.16152 0.14856 0.0
C323 C 0.01733 0.17117 0.12099 0.0
C324 C 0.02933 0.16647 0.18394 0.0
C325 C 0.00329 0.18134 0.19264 0.0
C326 C 0.98455 0.19139 0.16512 0.0
C327 C 0.99132 0.18618 0.12947 0.0
C328 C 0.99535 0.18528 0.23072 0.0
C329 C 0.02292 0.19008 0.25387 0.0
C330 C 0.9618 0.18204 0.24493 0.0
C331 C 0.93188 0.17584 0.22238 0.0
C332 C 0.90236 0.18908 0.22091 0.0
C333 C 0.87407 0.18324 0.19966 0.0
C334 C 0.87496 0.16412 0.17998 0.0
C335 C 0.90407 0.15075 0.18162 0.0
C336 C 0.9324 0.15649 0.20285 0.0
C337 C 0.988 0.19334 0.4058 0.0
C338 C 0.97105 0.17454 0.41713 0.0
C339 C 0.9916 0.19766 0.36941 0.0
C340 C 0.97932 0.18287 0.34394 0.0
C341 C 0.9623 0.16414 0.35551 0.0
C342 C 0.95792 0.16013 0.39169 0.0
C343 C 0.98507 0.18608 0.3052 0.0
C344 C 0.95696 0.18301 0.28188 0.0
C345 C 0.01843 0.19003 0.29089 0.0
C346 C 0.04962 0.19242 0.3136 0.0
C347 C 0.06046 0.1755 0.33586 0.0
C348 C 0.08987 0.17791 0.35729 0.0
C349 C 0.10882 0.19711 0.35642 0.0
C350 C 0.09845 0.2139 0.33402 0.0
C351 C 0.06903 0.21157 0.31257 0.0
H352 H 0.13158 0.19895 0.37303 0.0
H353 H 0.85304 0.15964 0.16354 0.0
H354 H 0.02878 0.86994 0.40436 0.0
H355 H 0.01638 0.86273 0.34183 0.0
H356 H 0.98271 0.79844 0.36844 0.0
H357 H 0.99474 0.80573 0.43178 0.0
H358 H 0.03379 0.80188 0.31072 0.0
H359 H 0.92272 0.82901 0.34312 0.0
H360 H 0.88145 0.85381 0.37205 0.0
H361 H 0.91956 0.90614 0.30841 0.0
H362 H 0.96142 0.88174 0.27945 0.0
H363 H 0.9876 0.79776 0.12208 0.0
H364 H 0.9918 0.79288 0.18685 0.0
H365 H 0.00719 0.86137 0.19972 0.0
H366 H 0.00179 0.8663 0.13555 0.0
H367 H 0.95526 0.84811 0.23928 0.0
H368 H 0.07222 0.82293 0.21471 0.0
H369 H 0.11567 0.79911 0.18688 0.0
H370 H 0.0682 0.74404 0.23596 0.0
H371 H 0.0242 0.76753 0.26374 0.0
C372 C 0.01827 0.85436 0.39702 0.0
C373 C 0.01262 0.8384 0.4228 0.0
C374 C 0.0112 0.85027 0.36132 0.0
C375 C -0.00139 0.83008 0.35066 0.0
C376 C 0.99238 0.81412 0.37632 0.0
C377 C -0.00101 0.81835 0.41236 0.0
C378 C 0.99349 0.8259 0.3123 0.0
C379 C 0.01604 0.81156 0.295 0.0
C380 C 0.97067 0.83878 0.29205 0.0
C381 C 0.94533 0.85353 0.3092 0.0
C382 C 0.92247 0.84584 0.33545 0.0
C383 C 0.89894 0.85982 0.35183 0.0
C384 C 0.89791 0.88154 0.3421 0.0
C385 C 0.92037 0.88931 0.31591 0.0
C386 C 0.94396 0.8754 0.29945 0.0
C387 C 0.9929 0.81162 0.13878 0.0
C388 C 0.99426 0.83241 0.12406 0.0
C389 C 0.99517 0.80884 0.17573 0.0
C390 C -0.00054 0.8268 0.19814 0.0
C391 C 0.00342 0.84732 0.18298 0.0
C392 C 0.00058 0.85012 0.14634 0.0
C393 C 0.99686 0.82491 0.23738 0.0
C394 C 0.97258 0.83806 0.25486 0.0
C395 C 0.01826 0.81103 0.25766 0.0
C396 C 0.04467 0.79695 0.24091 0.0
C397 C 0.07087 0.80572 0.2193 0.0
C398 C 0.09563 0.79228 0.20359 0.0
C399 C 0.09462 0.77006 0.20954 0.0
C400 C 0.06891 0.76125 0.23131 0.0
C401 C 0.04406 0.77461 0.24705 0.0
H402 H 0.11383 0.75969 0.19737 0.0
H403 H 0.87968 0.89234 0.35483 0.0
H404 H 0.07753 0.83148 0.64593 0.0
H405 H 0.06384 0.82218 0.70737 0.0
H406 H 0.95614 0.8142 0.67902 0.0
H407 H 0.96975 0.82359 0.61705 0.0
H408 H 0.96557 0.84096 0.73595 0.0
H409 H 0.00271 0.77082 0.70172 0.0
H410 H 0.04119 0.7436 0.67477 0.0
H411 H 0.12213 0.76067 0.74811 0.0
H412 H 0.08431 0.78822 0.77523 0.0
H413 H 0.92055 0.81383 0.90952 0.0
H414 H 0.93034 0.80769 0.84616 0.0
H415 H 0.04016 0.81736 0.86132 0.0
H416 H 0.03056 0.82311 0.92529 0.0
H417 H 0.02553 0.78608 0.80985 0.0
H418 H 0.99186 0.85895 0.83812 0.0
H419 H 0.95463 0.88687 0.86501 0.0
H420 H 0.86856 0.86532 0.80169 0.0
H421 H 0.90519 0.83704 0.7748 0.0
C422 C 0.05096 0.82755 0.65265 0.0
C423 C 0.02462 0.82839 0.62681 0.0
C424 C 0.04325 0.82205 0.68772 0.0
C425 C 0.00906 0.8173 0.69763 0.0
C426 C 0.98274 0.81771 0.67176 0.0
C427 C 0.99051 0.82307 0.63648 0.0
C428 C 0.00066 0.81395 0.73565 0.0
C429 C 0.97803 0.82862 0.75193 0.0
C430 C 0.0178 0.79826 0.75659 0.0
C431 C 0.04071 0.7817 0.74037 0.0
C432 C 0.02881 0.7689 0.71193 0.0
C433 C 0.05049 0.75338 0.69666 0.0
C434 C 0.08408 0.75042 0.7097 0.0
C435 C 0.09609 0.76298 0.73805 0.0
C436 C 0.07452 0.77853 0.75342 0.0
C437 C 0.94689 0.81425 0.8995 0.0
C438 C 0.97478 0.81928 0.92212 0.0
C439 C 0.95242 0.81072 0.86333 0.0
C440 C 0.98586 0.81251 0.84902 0.0
C441 C 0.01413 0.81599 0.87192 0.0
C442 C 0.00863 0.81932 0.90836 0.0
C443 C 0.99061 0.81314 0.80996 0.0
C444 C 0.01266 0.79813 0.79363 0.0
C445 C 0.97315 0.82862 0.78884 0.0
C446 C 0.95116 0.84573 0.80475 0.0
C447 C 0.96493 0.86006 0.83013 0.0
C448 C 0.94395 0.87596 0.84535 0.0
C449 C 0.90922 0.87783 0.83514 0.0
C450 C 0.89544 0.86383 0.80962 0.0
C451 C 0.9163 0.84787 0.79437 0.0
H452 H 0.89302 0.89015 0.84695 0.0
H453 H 0.10077 0.73835 0.69792 0.0
H454 H 0.00014 0.20125 0.92422 0.0
H455 H -0.00027 0.21111 0.86078 0.0
H456 H 0.01985 0.14479 0.83274 0.0
H457 H 0.0211 0.1351 0.89555 0.0
H458 H 0.0659 0.17113 0.80247 0.0
H459 H 0.94037 0.16931 0.81927 0.0
H460 H 0.88535 0.18112 0.84647 0.0
H461 H 0.90446 0.24598 0.81184 0.0
H462 H 0.95984 0.23457 0.78479 0.0
H463 H 0.00528 0.14093 0.63636 0.0
H464 H 0.01862 0.14915 0.6984 0.0
H465 H 0.01608 0.21719 0.6749 0.0
H466 H 0.00347 0.20889 0.61198 0.0
H467 H 0.97005 0.20253 0.73135 0.0
H468 H 0.08928 0.2004 0.7013 0.0
H469 H 0.14216 0.18664 0.67225 0.0
H470 H 0.13356 0.12746 0.73074 0.0
H471 H 0.08035 0.14071 0.75976 0.0
C472 C 0.00355 0.18876 0.90435 0.0
C473 C 0.0108 0.16745 0.91457 0.0
C474 C 0.00351 0.19441 0.86822 0.0
C475 C 0.01023 0.17871 0.84212 0.0
C476 C 0.01515 0.15721 0.85246 0.0
C477 C 0.0156 0.15166 0.88831 0.0
C478 C 0.01424 0.18436 0.80405 0.0
C479 C 0.04496 0.17804 0.7869 0.0
C480 C 0.98761 0.19433 0.78409 0.0
C481 C 0.95444 0.20115 0.80048 0.0
C482 C 0.93299 0.18612 0.81777 0.0
C483 C 0.90171 0.19274 0.83308 0.0
C484 C 0.89148 0.2143 0.83101 0.0
C485 C 0.91246 0.22929 0.81352 0.0
C486 C 0.94379 0.22276 0.79819 0.0
C487 C 0.0086 0.15761 0.64422 0.0
C488 C 0.00355 0.1743 0.61963 0.0
C489 C 0.01621 0.1623 0.67958 0.0
C490 C 0.01837 0.18376 0.69109 0.0
C491 C 0.01468 0.20054 0.66632 0.0
C492 C 0.00776 0.1958 0.63053 0.0
C493 C 0.0208 0.18804 0.72968 0.0
C494 C 0.99145 0.19631 0.74706 0.0
C495 C 0.04854 0.17964 0.7499 0.0
C496 C 0.08073 0.17158 0.7327 0.0
C497 C 0.09854 0.1844 0.70783 0.0
C498 C 0.1286 0.1767 0.69138 0.0
C499 C 0.14121 0.15619 0.69964 0.0
C500 C 0.1238 0.14336 0.72441 0.0
C501 C 0.09371 0.15098 0.74093 0.0
H502 H 0.16448 0.15025 0.68687 0.0
H503 H 0.86724 0.21939 0.84287 0.0
H504 H 0.54655 0.70214 0.12224 0.0
H505 H 0.53465 0.70825 0.18543 0.0
H506 H 0.45405 0.65997 0.18175 0.0
H507 H 0.4645 0.65497 0.11791 0.0
H508 H 0.43836 0.68833 0.23016 0.0
H509 H 0.54129 0.64757 0.20086 0.0
H510 H 0.59801 0.6418 0.17203 0.0
H511 H 0.64037 0.69567 0.22928 0.0
H512 H 0.58371 0.70192 0.25809 0.0
H513 H 0.4484 0.63542 0.39346 0.0
H514 H 0.45522 0.64448 0.33076 0.0
H515 H 0.52086 0.69812 0.35907 0.0
H516 H 0.51432 0.68902 0.42241 0.0
H517 H 0.54481 0.67364 0.3006 0.0
H518 H 0.43934 0.70809 0.33855 0.0
H519 H 0.38249 0.70852 0.3685 0.0
H520 H 0.34417 0.66108 0.29502 0.0
H521 H 0.40102 0.66002 0.26508 0.0
C522 C 0.52542 0.69349 0.13477 0.0
C523 C 0.50647 0.67804 0.11566 0.0
C524 C 0.51883 0.69683 0.17084 0.0
C525 C 0.49432 0.68402 0.18856 0.0
C526 C 0.47328 0.66993 0.16867 0.0
C527 C 0.47916 0.66708 0.13226 0.0
C528 C 0.49357 0.68323 0.22801 0.0
C529 C 0.46162 0.68513 0.24554 0.0
C530 C 0.52404 0.67927 0.2482 0.0
C531 C 0.55821 0.67536 0.2313 0.0
C532 C 0.56267 0.65824 0.20715 0.0
C533 C 0.59479 0.65489 0.19082 0.0
C534 C 0.62275 0.6684 0.19874 0.0
C535 C 0.61867 0.68525 0.22311 0.0
C536 C 0.58657 0.6887 0.23946 0.0
C537 C 0.46458 0.64904 0.38642 0.0
C538 C 0.48065 0.66163 0.41279 0.0
C539 C 0.46827 0.65425 0.3506 0.0
C540 C 0.48786 0.67224 0.34046 0.0
C541 C 0.50534 0.68429 0.36654 0.0
C542 C 0.50168 0.67905 0.40258 0.0
C543 C 0.48957 0.67834 0.3025 0.0
C544 C 0.5217 0.67738 0.28528 0.0
C545 C 0.45918 0.68263 0.28256 0.0
C546 C 0.42453 0.68391 0.29967 0.0
C547 C 0.41883 0.6977 0.32884 0.0
C548 C 0.38658 0.69805 0.34583 0.0
C549 C 0.35974 0.68481 0.33368 0.0
C550 C 0.36499 0.67132 0.30439 0.0
C551 C 0.39721 0.67086 0.28738 0.0
H552 H 0.33485 0.68495 0.34697 0.0
H553 H 0.6476 0.66579 0.18606 0.0
H554 H 0.47412 0.31968 0.42772 0.0
H555 H 0.4698 0.31362 0.36341 0.0
H556 H 0.58116 0.31812 0.35428 0.0
H557 H 0.58548 0.32479 0.41818 0.0
H558 H 0.55242 0.34246 0.30676 0.0
H559 H 0.53738 0.26956 0.34265 0.0
H560 H 0.51268 0.23922 0.37655 0.0
H561 H 0.4122 0.25209 0.33204 0.0
H562 H 0.43619 0.28272 0.29824 0.0
H563 H 0.5388 0.32164 0.12009 0.0
H564 H 0.55509 0.31443 0.18231 0.0
H565 H 0.44756 0.31866 0.21325 0.0
H566 H 0.43127 0.32588 0.15172 0.0
H567 H 0.48248 0.28554 0.24792 0.0
H568 H 0.4971 0.36174 0.22052 0.0
H569 H 0.52189 0.39212 0.18672 0.0
H570 H 0.62464 0.37204 0.21584 0.0
H571 H 0.60041 0.34135 0.24943 0.0
C572 C 0.49765 0.31911 0.412 0.0
C573 C 0.53008 0.32283 0.42784 0.0
C574 C 0.49521 0.31552 0.37531 0.0
C575 C 0.52522 0.31523 0.35403 0.0
C576 C 0.55768 0.3183 0.37012 0.0
C577 C 0.56009 0.32211 0.40664 0.0
C578 C 0.52257 0.31345 0.31472 0.0
C579 C 0.5378 0.3297 0.29391 0.0
C580 C 0.50313 0.29699 0.29787 0.0
C581 C 0.48857 0.27854 0.31809 0.0
C582 C 0.50997 0.26603 0.34028 0.0
C583 C 0.4961 0.24876 0.35945 0.0
C584 C 0.46088 0.24376 0.3565 0.0
C585 C 0.43948 0.25599 0.33431 0.0
C586 C 0.45321 0.27329 0.3151 0.0
C587 C 0.5187 0.32072 0.14017 0.0
C588 C 0.48387 0.32454 0.13125 0.0
C589 C 0.52799 0.31662 0.17559 0.0
C590 C 0.50249 0.31614 0.20231 0.0
C591 C 0.46759 0.3189 0.19302 0.0
C592 C 0.45838 0.32319 0.15789 0.0
C593 C 0.51187 0.31468 0.24042 0.0
C594 C 0.49779 0.29794 0.26092 0.0
C595 C 0.53247 0.33061 0.25705 0.0
C596 C 0.54699 0.34912 0.23707 0.0
C597 C 0.52498 0.36371 0.21946 0.0
C598 C 0.53893 0.381 0.20039 0.0
C599 C 0.57482 0.38397 0.19903 0.0
C600 C 0.59685 0.36969 0.21684 0.0
C601 C 0.58303 0.35235 0.2359 0.0
H602 H 0.58557 0.39736 0.18426 0.0
H603 H 0.4502 0.23038 0.37137 0.0
H604 H 0.49047 0.29744 0.93275 0.0
H605 H 0.49016 0.28832 0.86901 0.0
H606 H 0.46187 0.3539 0.84392 0.0
H607 H 0.46115 0.36278 0.90707 0.0
H608 H 0.42098 0.32707 0.80988 0.0
H609 H 0.54553 0.33266 0.83117 0.0
H610 H 0.60055 0.32241 0.86012 0.0
H611 H 0.58798 0.25729 0.82347 0.0
H612 H 0.53265 0.26714 0.79464 0.0
H613 H 0.48339 0.35916 0.64452 0.0
H614 H 0.46895 0.35092 0.70627 0.0
H615 H 0.47915 0.28295 0.68432 0.0
H616 H 0.49295 0.29121 0.62176 0.0
H617 H 0.52154 0.29924 0.74163 0.0
H618 H 0.40323 0.29789 0.70752 0.0
H619 H 0.35032 0.31022 0.6768 0.0
H620 H 0.35252 0.36931 0.73633 0.0
H621 H 0.40574 0.35751 0.76705 0.0
C622 C 0.4848 0.30992 0.91347 0.0
C623 C 0.4758 0.33079 0.9247 0.0
C624 C 0.48449 0.3047 0.87714 0.0
C625 C 0.47575 0.32041 0.85169 0.0
C626 C 0.46822 0.34144 0.86305 0.0
C627 C 0.46808 0.34655 0.89913 0.0
C628 C 0.47348 0.3153 0.81316 0.0
C629 C 0.44297 0.32097 0.79495 0.0
C630 C 0.50159 0.30644 0.79386 0.0
C631 C 0.53477 0.30056 0.8112 0.0
C632 C 0.55437 0.31612 0.82956 0.0
C633 C 0.58563 0.31039 0.84588 0.0
C634 C 0.59769 0.28919 0.84375 0.0
C635 C 0.57856 0.27369 0.82519 0.0
C636 C 0.54727 0.27933 0.80884 0.0
C637 C 0.48156 0.34244 0.65262 0.0
C638 C 0.48913 0.3258 0.62856 0.0
C639 C 0.47329 0.33774 0.68783 0.0
C640 C 0.47294 0.31633 0.69976 0.0
C641 C 0.47913 0.29956 0.67546 0.0
C642 C 0.48675 0.30427 0.63983 0.0
C643 C 0.46979 0.31218 0.73837 0.0
C644 C 0.49917 0.3047 0.75666 0.0
C645 C 0.44081 0.31963 0.75776 0.0
C646 C 0.40858 0.3268 0.73956 0.0
C647 C 0.39256 0.31357 0.71393 0.0
C648 C 0.36249 0.32047 0.69653 0.0
C649 C 0.34808 0.34054 0.7046 0.0
C650 C 0.36369 0.35375 0.73014 0.0
C651 C 0.39378 0.34694 0.74761 0.0
H652 H 0.3248 0.34585 0.69108 0.0
H653 H 0.6219 0.28479 0.8564 0.0
H654 H 0.56662 0.64365 0.89671 0.0
H655 H 0.55837 0.65121 0.83357 0.0
H656 H 0.46964 0.69081 0.85837 0.0
H657 H 0.47771 0.68325 0.92201 0.0
H658 H 0.4581 0.66177 0.80346 0.0
H659 H 0.54407 0.71446 0.83539 0.0
H660 H 0.59915 0.72668 0.86211 0.0
H661 H 0.65611 0.68625 0.79006 0.0
H662 H 0.6014 0.67353 0.76327 0.0
H663 H 0.43563 0.69139 0.62719 0.0
H664 H 0.44788 0.69694 0.69037 0.0
H665 H 0.54504 0.66309 0.67861 0.0
H666 H 0.53358 0.65858 0.61474 0.0
H667 H 0.55116 0.69314 0.7283 0.0
H668 H 0.46969 0.63656 0.70261 0.0
H669 H 0.41677 0.6208 0.67641 0.0
H670 H 0.35392 0.66447 0.7373 0.0
H671 H 0.40654 0.68069 0.76351 0.0
C672 C 0.54528 0.65394 0.88878 0.0
C673 C 0.52276 0.66287 0.91425 0.0
C674 C 0.5408 0.65837 0.85272 0.0
C675 C 0.5138 0.67186 0.84145 0.0
C676 C 0.49082 0.68051 0.86669 0.0
C677 C 0.49538 0.67614 0.90292 0.0
C678 C 0.50891 0.67611 0.80308 0.0
C679 C 0.4781 0.66908 0.78712 0.0
C680 C 0.5356 0.68498 0.78176 0.0
C681 C 0.56858 0.69293 0.79746 0.0
C682 C 0.56833 0.70807 0.82538 0.0
C683 C 0.59949 0.7151 0.84052 0.0
C684 C 0.63109 0.70721 0.82783 0.0
C685 C 0.63161 0.69234 0.79987 0.0
C686 C 0.60053 0.68524 0.78466 0.0
C687 C 0.46001 0.68566 0.63798 0.0
C688 C 0.48354 0.67435 0.61647 0.0
C689 C 0.46692 0.68875 0.67404 0.0
C690 C 0.49684 0.67983 0.68939 0.0
C691 C 0.52167 0.66997 0.66734 0.0
C692 C 0.51514 0.66738 0.63093 0.0
C693 C 0.50034 0.67873 0.72865 0.0
C694 C 0.53091 0.68621 0.74474 0.0
C695 C 0.47372 0.66985 0.75015 0.0
C696 C 0.44204 0.65998 0.73472 0.0
C697 C 0.44459 0.64288 0.71024 0.0
C698 C 0.41465 0.63386 0.69541 0.0
C699 C 0.38201 0.64167 0.70511 0.0
C700 C 0.37923 0.65847 0.72976 0.0
C701 C 0.40909 0.66757 0.74463 0.0
H702 H 0.35886 0.63467 0.69359 0.0
H703 H 0.65519 0.71261 0.8396 0.0
H704 H 0.3285 0.33191 0.00559 0.0
H705 H 0.27786 0.30825 -0.00059 0.0
H706 H 0.33815 0.25473 0.03899 0.0
H707 H 0.38879 0.278 0.04393 0.0
H708 H 0.30288 0.24247 0.98355 0.0
H709 H 0.27659 0.28236 0.09094 0.0
H710 H 0.26685 0.31519 0.12667 0.0
H711 H 0.18334 0.33361 0.05739 0.0
H712 H 0.19286 0.30101 0.021 0.0
H713 H 0.16808 0.16883 0.02874 0.0
H714 H 0.21782 0.19343 0.02831 0.0
H715 H 0.15286 0.24394 0.98593 0.0
H716 H 0.10311 0.2197 0.98719 0.0
H717 H 0.18942 0.25858 0.03969 0.0
H718 H 0.21388 0.21759 0.93408 0.0
H719 H 0.22342 0.18457 0.89883 0.0
H720 H 0.31024 0.16798 0.96502 0.0
H721 H 0.30094 0.20078 0.00097 0.0
C722 C 0.33076 0.31512 0.01311 0.0
C723 C 0.36246 0.30676 0.02521 0.0
C724 C 0.30187 0.30164 0.00967 0.0
C725 C 0.30417 0.27974 0.019 0.0
C726 C 0.3358 0.27152 0.03146 0.0
C727 C 0.36467 0.28487 0.0344 0.0
C728 C 0.27398 0.26511 0.01547 0.0
C729 C 0.27816 0.24589 0.99614 0.0
C730 C 0.24149 0.26983 0.0311 0.0
C731 C 0.23568 0.28937 0.05306 0.0
C732 C 0.25632 0.29349 0.08319 0.0
C733 C 0.25081 0.31204 0.10358 0.0
C734 C 0.22456 0.32651 0.09425 0.0
C735 C 0.20369 0.32242 0.06456 0.0
C736 C 0.20912 0.3039 0.04406 0.0
C737 C 0.16459 0.18512 0.01903 0.0
C738 C 0.1318 0.19241 0.00813 0.0
C739 C 0.19298 0.19914 0.01868 0.0
C740 C 0.18905 0.22049 0.00687 0.0
C741 C 0.15644 0.22757 0.99525 0.0
C742 C 0.12808 0.21368 0.99592 0.0
C743 C 0.21844 0.23583 0.00811 0.0
C744 C 0.21409 0.2552 0.02696 0.0
C745 C 0.25078 0.23123 0.99211 0.0
C746 C 0.25652 0.21155 0.9704 0.0
C747 C 0.23485 0.20683 0.94127 0.0
C748 C 0.24024 0.18816 0.92114 0.0
C749 C 0.26737 0.17416 0.92973 0.0
C750 C 0.28922 0.17883 0.95842 0.0
C751 C 0.28392 0.19747 0.97865 0.0
H752 H 0.27149 0.15972 0.91411 0.0
H753 H 0.22034 0.34086 0.11006 0.0
H754 H 0.60106 0.7231 0.00528 0.0
H755 H 0.64865 0.74873 0.01116 0.0
H756 H 0.71695 0.69731 0.04377 0.0
H757 H 0.66906 0.67149 0.03851 0.0
H758 H 0.72257 0.73267 0.0866 0.0
H759 H 0.72113 0.71813 0.96029 0.0
H760 H 0.69393 0.71541 0.90099 0.0
H761 H 0.66838 0.78273 0.90435 0.0
H762 H 0.69495 0.78578 0.96393 0.0
H763 H 0.88587 0.781 0.06069 0.0
H764 H 0.83349 0.7591 0.06147 0.0
H765 H 0.77347 0.81366 0.02567 0.0
H766 H 0.82626 0.8357 0.02422 0.0
H767 H 0.7607 0.77877 0.98608 0.0
H768 H 0.76415 0.79433 0.11012 0.0
H769 H 0.79001 0.79771 0.16992 0.0
H770 H 0.81033 0.72969 0.17177 0.0
H771 H 0.78505 0.72593 0.11173 0.0
C772 C 0.62626 0.7172 0.01348 0.0
C773 C 0.63145 0.69529 0.02132 0.0
C774 C 0.65342 0.73187 0.01676 0.0
C775 C 0.68634 0.72487 0.02758 0.0
C776 C 0.69168 0.70299 0.03534 0.0
C777 C 0.66442 0.68827 0.03215 0.0
C778 C 0.71505 0.7405 0.03127 0.0
C779 C 0.73127 0.74257 0.06455 0.0
C780 C 0.72537 0.75393 0.00276 0.0
C781 C 0.70975 0.75213 0.96673 0.0
C782 C 0.70949 0.73232 0.9485 0.0
C783 C 0.69421 0.73072 0.91482 0.0
C784 C 0.67936 0.74888 0.89896 0.0
C785 C 0.67985 0.76868 0.91669 0.0
C786 C 0.69504 0.77035 0.9504 0.0
C787 C 0.86146 0.78845 0.05346 0.0
C788 C 0.86011 0.81003 0.04227 0.0
C789 C 0.83149 0.77593 0.05411 0.0
C790 C 0.79955 0.7848 0.0439 0.0
C791 C 0.79791 0.80655 0.03371 0.0
C792 C 0.82799 0.81912 0.03302 0.0
C793 C 0.7686 0.77079 0.04134 0.0
C794 C 0.75191 0.769 0.00826 0.0
C795 C 0.75772 0.75771 0.07009 0.0
C796 C 0.77293 0.75988 0.10627 0.0
C797 C 0.77438 0.78011 0.12315 0.0
C798 C 0.78889 0.78209 0.15712 0.0
C799 C 0.80187 0.76394 0.17461 0.0
C800 C 0.80029 0.74374 0.15818 0.0
C801 C 0.78583 0.74167 0.12419 0.0
H802 H 0.81309 0.7655 0.20091 0.0
H803 H 0.66754 0.74764 0.87289 0.0
H804 H 0.10642 0.77999 0.51413 0.0
H805 H 0.15597 0.75566 0.51159 0.0
H806 H 0.2256 0.81006 0.51033 0.0
H807 H 0.1758 0.83473 0.51295 0.0
H808 H 0.24173 0.77762 0.45993 0.0
H809 H 0.21723 0.784 0.5847 0.0
H810 H 0.17998 0.78359 0.63804 0.0
H811 H 0.15542 0.71706 0.61919 0.0
H812 H 0.19213 0.71715 0.56538 0.0
H813 H 0.39549 0.72076 0.49964 0.0
H814 H 0.34633 0.74536 0.49818 0.0
H815 H 0.27624 0.69191 0.51317 0.0
H816 H 0.32572 0.6671 0.51548 0.0
H817 H 0.26026 0.72428 0.55653 0.0
H818 H 0.28128 0.71776 0.43116 0.0
H819 H 0.31562 0.71782 0.37587 0.0
H820 H 0.34537 0.7835 0.39476 0.0
H821 H 0.31091 0.7839 0.45015 0.0
C822 C 0.13225 0.78684 0.51321 0.0
C823 C 0.13732 0.80926 0.51387 0.0
C824 C 0.1605 0.77289 0.51188 0.0
C825 C 0.19433 0.7811 0.51118 0.0
C826 C 0.19958 0.80349 0.51099 0.0
C827 C 0.17122 0.81751 0.51255 0.0
C828 C 0.22407 0.76613 0.51085 0.0
C829 C 0.24619 0.76617 0.48127 0.0
C830 C 0.22905 0.75082 0.53827 0.0
C831 C 0.2072 0.75064 0.57081 0.0
C832 C 0.20367 0.76932 0.59175 0.0
C833 C 0.18269 0.76914 0.6221 0.0
C834 C 0.16529 0.75032 0.63194 0.0
C835 C 0.1689 0.73163 0.6115 0.0
C836 C 0.18982 0.73173 0.5811 0.0
C837 C 0.36961 0.71418 0.50238 0.0
C838 C 0.36439 0.692 0.50768 0.0
C839 C 0.34151 0.72827 0.50133 0.0
C840 C 0.30759 0.72045 0.50511 0.0
C841 C 0.30224 0.69826 0.51011 0.0
C842 C 0.33045 0.68412 0.51134 0.0
C843 C 0.27799 0.73565 0.50547 0.0
C844 C 0.25588 0.7357 0.53513 0.0
C845 C 0.27287 0.75096 0.47803 0.0
C846 C 0.29382 0.75078 0.44494 0.0
C847 C 0.29535 0.73217 0.42365 0.0
C848 C 0.31478 0.73213 0.39225 0.0
C849 C 0.3329 0.75059 0.38191 0.0
C850 C 0.3314 0.76919 0.40284 0.0
C851 C 0.3118 0.76937 0.43417 0.0
H852 H 0.348 0.75048 0.35762 0.0
H853 H 0.14908 0.75022 0.65545 0.0
H854 H 0.66498 0.33224 0.55536 0.0
H855 H 0.71717 0.30983 0.55955 0.0
H856 H 0.65343 0.25281 0.56618 0.0
H857 H 0.60139 0.27504 0.56266 0.0
H858 H 0.70869 0.24968 0.60973 0.0
H859 H 0.68669 0.26841 0.4874 0.0
H860 H 0.67633 0.29323 0.43725 0.0
H861 H 0.7754 0.32294 0.45518 0.0
H862 H 0.78612 0.29848 0.50581 0.0
H863 H 0.83028 0.17102 0.54615 0.0
H864 H 0.77958 0.19437 0.5549 0.0
H865 H 0.84561 0.25044 0.55035 0.0
H866 H 0.89599 0.22739 0.54136 0.0
H867 H 0.78989 0.25449 0.50759 0.0
H868 H 0.81274 0.23378 0.62874 0.0
H869 H 0.82237 0.20818 0.67794 0.0
H870 H 0.72119 0.18111 0.66105 0.0
H871 H 0.71114 0.20637 0.61139 0.0
C872 C 0.66216 0.31497 0.55826 0.0
C873 C 0.6292 0.30535 0.55831 0.0
C874 C 0.69193 0.30219 0.56053 0.0
C875 C 0.6891 0.27964 0.56261 0.0
C876 C 0.65618 0.27016 0.56452 0.0
C877 C 0.62648 0.2829 0.56234 0.0
C878 C 0.72021 0.26576 0.5603 0.0
C879 C 0.72635 0.2506 0.58731 0.0
C880 C 0.74335 0.26715 0.53118 0.0
C881 C 0.73704 0.28178 0.50063 0.0
C882 C 0.70615 0.28034 0.48082 0.0
C883 C 0.70023 0.29433 0.45229 0.0
C884 C 0.72515 0.30969 0.4431 0.0
C885 C 0.75609 0.31106 0.46237 0.0
C886 C 0.76211 0.29714 0.49098 0.0
C887 C 0.8339 0.18831 0.54721 0.0
C888 C 0.867 0.1974 0.54297 0.0
C889 C 0.80502 0.20161 0.55235 0.0
C890 C 0.80896 0.22412 0.55344 0.0
C891 C 0.84205 0.23313 0.54954 0.0
C892 C 0.87079 0.21991 0.54445 0.0
C893 C 0.77856 0.23847 0.55713 0.0
C894 C 0.77243 0.25366 0.53021 0.0
C895 C 0.75539 0.23699 0.5862 0.0
C896 C 0.76133 0.22183 0.61612 0.0
C897 C 0.79266 0.22225 0.63532 0.0
C898 C 0.79817 0.20782 0.66333 0.0
C899 C 0.77244 0.19299 0.67255 0.0
C900 C 0.74111 0.19259 0.65384 0.0
C901 C 0.73548 0.20698 0.62578 0.0
H902 H 0.77675 0.18183 0.69425 0.0
H903 H 0.72052 0.3205 0.421 0.0
loop_
_geom_bond_atom_site_label_1
_geom_bond_atom_site_label_2
_geom_bond_distance
_geom_bond_site_symmetry_2
_ccdc_geom_bond_type
In0 O1 2.294 . S
In0 O2 2.326 . S
In0 O6 2.285 1_554 S
In0 O7 2.326 1_554 S
In0 O8 2.266 . S
In0 O9 2.326 . S
In0 O11 2.294 . S
In0 O12 2.326 . S
O1 In0 2.294 . S
O1 C10 1.240 . S
O2 In0 2.326 . S
O2 C10 1.252 . S
C3 O6 1.266 . S
C3 O7 1.260 . S
C4 O11 1.240 . S
C4 O12 1.252 . S
C5 O8 1.252 . S
C5 O9 1.260 . S
O6 In0 2.285 1_556 S
O6 C3 1.266 . S
O7 In0 2.326 1_556 S
O7 C3 1.260 . S
O8 In0 2.266 . S
O8 C5 1.252 . S
O9 In0 2.326 . S
O9 C5 1.260 . S
C10 O1 1.240 . S
C10 O2 1.252 . S
O11 In0 2.294 . S
O11 C4 1.240 . S
O12 In0 2.326 . S
O12 C4 1.252 . S
In13 O14 2.294 . S
In13 O15 2.326 . S
In13 O19 2.266 . S
In13 O20 2.326 . S
In13 O21 2.285 1_554 S
In13 O22 2.326 1_554 S
In13 O24 2.294 . S
In13 O25 2.326 . S
O14 In13 2.294 . S
O14 C23 1.240 . S
O15 In13 2.326 . S
O15 C23 1.252 . S
C16 O19 1.252 . S
C16 O20 1.260 . S
C17 O24 1.240 . S
C17 O25 1.252 . S
C18 O21 1.266 . S
C18 O22 1.260 . S
O19 In13 2.266 . S
O19 C16 1.252 . S
O20 In13 2.326 . S
O20 C16 1.260 . S
O21 In13 2.285 1_556 S
O21 C18 1.266 . S
O22 In13 2.326 1_556 S
O22 C18 1.260 . S
C23 O14 1.240 . S
C23 O15 1.252 . S
O24 In13 2.294 . S
O24 C17 1.240 . S
O25 In13 2.326 . S
O25 C17 1.252 . S
In26 O27 2.294 . S
In26 O28 2.326 . S
In26 O32 2.285 . S
In26 O33 2.326 . S
In26 O34 2.266 . S
In26 O35 2.326 . S
In26 O37 2.294 . S
In26 O38 2.326 . S
O27 In26 2.294 . S
O27 C36 1.240 . S
O28 In26 2.326 . S
O28 C36 1.252 . S
C29 O32 1.266 . S
C29 O33 1.260 . S
C30 O37 1.240 . S
C30 O38 1.252 . S
C31 O34 1.252 . S
C31 O35 1.260 . S
O32 In26 2.285 . S
O32 C29 1.266 . S
O33 In26 2.326 . S
O33 C29 1.260 . S
O34 In26 2.266 . S
O34 C31 1.252 . S
O35 In26 2.326 . S
O35 C31 1.260 . S
C36 O27 1.240 . S
C36 O28 1.252 . S
O37 In26 2.294 . S
O37 C30 1.240 . S
O38 In26 2.326 . S
O38 C30 1.252 . S
In39 O40 2.294 . S
In39 O41 2.326 . S
In39 O45 2.285 . S
In39 O46 2.326 . S
In39 O47 2.266 . S
In39 O48 2.326 . S
In39 O50 2.294 . S
In39 O51 2.326 . S
O40 In39 2.294 . S
O40 C49 1.240 . S
O41 In39 2.326 . S
O41 C49 1.252 . S
C42 O45 1.266 . S
C42 O46 1.260 . S
C43 O50 1.240 . S
C43 O51 1.252 . S
C44 O47 1.252 . S
C44 O48 1.260 . S
O45 In39 2.285 . S
O45 C42 1.266 . S
O46 In39 2.326 . S
O46 C42 1.260 . S
O47 In39 2.266 . S
O47 C44 1.252 . S
O48 In39 2.326 . S
O48 C44 1.260 . S
C49 O40 1.240 . S
C49 O41 1.252 . S
O50 In39 2.294 . S
O50 C43 1.240 . S
O51 In39 2.326 . S
O51 C43 1.252 . S
In52 O53 2.294 . S
In52 O54 2.326 . S
In52 O58 2.266 . S
In52 O59 2.326 . S
In52 O60 2.266 1_554 S
In52 O61 2.326 1_554 S
In52 O63 2.294 . S
In52 O64 2.326 . S
O53 In52 2.294 . S
O53 C62 1.240 . S
O54 In52 2.326 . S
O54 C62 1.252 . S
C55 O58 1.252 . S
C55 O59 1.260 . S
C56 O63 1.240 . S
C56 O64 1.252 . S
C57 O60 1.252 . S
C57 O61 1.260 . S
O58 In52 2.266 . S
O58 C55 1.252 . S
O59 In52 2.326 . S
O59 C55 1.260 . S
O60 In52 2.266 1_556 S
O60 C57 1.252 . S
O61 In52 2.326 1_556 S
O61 C57 1.260 . S
C62 O53 1.240 . S
C62 O54 1.252 . S
O63 In52 2.294 . S
O63 C56 1.240 . S
O64 In52 2.326 . S
O64 C56 1.252 . S
In65 O66 2.294 . S
In65 O67 2.326 . S
In65 O71 2.266 1_554 S
In65 O72 2.326 1_554 S
In65 O73 2.266 . S
In65 O74 2.326 . S
In65 O76 2.294 . S
In65 O77 2.326 . S
O66 In65 2.294 . S
O66 C75 1.240 . S
O67 In65 2.326 . S
O67 C75 1.252 . S
C68 O71 1.252 . S
C68 O72 1.260 . S
C69 O76 1.240 . S
C69 O77 1.252 . S
C70 O73 1.252 . S
C70 O74 1.260 . S
O71 In65 2.266 1_556 S
O71 C68 1.252 . S
O72 In65 2.326 1_556 S
O72 C68 1.260 . S
O73 In65 2.266 . S
O73 C70 1.252 . S
O74 In65 2.326 . S
O74 C70 1.260 . S
C75 O66 1.240 . S
C75 O67 1.252 . S
O76 In65 2.294 . S
O76 C69 1.240 . S
O77 In65 2.326 . S
O77 C69 1.252 . S
In78 O79 2.294 . S
In78 O80 2.326 . S
In78 O84 2.266 . S
In78 O85 2.326 . S
In78 O86 2.266 . S
In78 O87 2.326 . S
In78 O89 2.294 . S
In78 O90 2.326 . S
O79 In78 2.294 . S
O79 C88 1.240 . S
O80 In78 2.326 . S
O80 C88 1.252 . S
C81 O84 1.252 . S
C81 O85 1.260 . S
C82 O89 1.240 . S
C82 O90 1.252 . S
C83 O86 1.252 . S
C83 O87 1.260 . S
O84 In78 2.266 . S
O84 C81 1.252 . S
O85 In78 2.326 . S
O85 C81 1.260 . S
O86 In78 2.266 . S
O86 C83 1.252 . S
O87 In78 2.326 . S
O87 C83 1.260 . S
C88 O79 1.240 . S
C88 O80 1.252 . S
O89 In78 2.294 . S
O89 C82 1.240 . S
O90 In78 2.326 . S
O90 C82 1.252 . S
In91 O92 2.294 . S
In91 O93 2.326 . S
In91 O97 2.266 . S
In91 O98 2.326 . S
In91 O99 2.266 . S
In91 O100 2.326 . S
In91 O102 2.294 . S
In91 O103 2.326 . S
O92 In91 2.294 . S
O92 C101 1.240 . S
O93 In91 2.326 . S
O93 C101 1.252 . S
C94 O97 1.252 . S
C94 O98 1.260 . S
C95 O102 1.240 . S
C95 O103 1.252 . S
C96 O99 1.252 . S
C96 O100 1.260 . S
O97 In91 2.266 . S
O97 C94 1.252 . S
O98 In91 2.326 . S
O98 C94 1.260 . S
O99 In91 2.266 . S
O99 C96 1.252 . S
O100 In91 2.326 . S
O100 C96 1.260 . S
C101 O92 1.240 . S
C101 O93 1.252 . S
O102 In91 2.294 . S
O102 C95 1.240 . S
O103 In91 2.326 . S
O103 C95 1.252 . S
H104 C122 0.951 . S
H105 C124 0.951 . S
H106 C126 0.949 1_556 S
H107 C127 0.937 1_556 S
H108 C129 0.950 . S
H109 C132 0.950 . S
H110 C133 0.950 . S
H111 C135 0.950 1_554 S
H112 C136 0.950 1_545 S
H113 C137 0.951 1_556 S
H114 C139 0.951 1_556 S
H115 C141 0.950 . S
H116 C142 0.950 . S
H117 C144 0.950 . S
H118 C147 0.950 . S
H119 C148 0.950 . S
H120 C150 0.950 . S
H121 C151 0.950 1_565 S
C122 H104 0.951 . S
C122 C123 1.366 . S
C122 C124 1.388 . S
C123 C122 1.366 . S
C123 C127 1.398 1_655 S
C124 H105 0.951 . S
C124 C122 1.388 . S
C124 C125 1.366 . S
C125 C124 1.366 . S
C125 C126 1.416 1_655 S
C125 C128 1.499 . S
C126 H106 0.949 1_554 S
C126 C125 1.416 1_455 S
C126 C127 1.374 . S
C127 H107 0.937 1_554 S
C127 C123 1.398 1_455 S
C127 C126 1.374 . S
C128 C125 1.499 . S
C128 C129 1.373 1_655 S
C128 C130 1.389 . S
C129 H108 0.950 . S
C129 C128 1.373 1_455 S
C129 C145 1.377 1_565 S
C130 C128 1.389 . S
C130 C131 1.524 1_554 S
C130 C144 1.377 1_565 S
C131 C130 1.524 1_556 S
C131 C132 1.397 . S
C131 C136 1.363 1_556 S
C132 H109 0.950 . S
C132 C131 1.397 . S
C132 C133 1.334 . S
C133 H110 0.950 . S
C133 C132 1.334 . S
C133 C134 1.287 . S
C134 C133 1.287 . S
C134 C135 1.524 . S
C134 H153 0.913 . S
C135 H111 0.950 1_556 S
C135 C134 1.524 . S
C135 C136 1.415 1_556 S
C136 H112 0.950 1_565 S
C136 C131 1.363 1_554 S
C136 C135 1.415 1_554 S
C137 H113 0.951 1_554 S
C137 C138 1.366 . S
C137 C139 1.388 . S
C138 C137 1.366 . S
C138 C142 1.385 1_455 S
C139 H114 0.951 1_554 S
C139 C137 1.388 . S
C139 C140 1.366 . S
C140 C139 1.366 . S
C140 C141 1.414 1_455 S
C140 C143 1.499 . S
C141 H115 0.950 . S
C141 C140 1.414 1_655 S
C141 C142 1.374 . S
C142 H116 0.950 . S
C142 C138 1.385 1_655 S
C142 C141 1.374 . S
C143 C140 1.499 . S
C143 C144 1.373 1_455 S
C143 C145 1.389 . S
C144 H117 0.950 . S
C144 C130 1.377 1_545 S
C144 C143 1.373 1_655 S
C145 C129 1.377 1_545 S
C145 C143 1.389 . S
C145 C146 1.524 . S
C146 C145 1.524 . S
C146 C147 1.397 . S
C146 C151 1.363 . S
C147 H118 0.950 . S
C147 C146 1.397 . S
C147 C148 1.334 . S
C148 H119 0.950 . S
C148 C147 1.334 . S
C148 C149 1.287 . S
C149 C148 1.287 . S
C149 C150 1.524 . S
C149 H152 0.999 . S
C150 H120 0.950 . S
C150 C149 1.524 . S
C150 C151 1.415 . S
C151 H121 0.950 1_545 S
C151 C146 1.363 . S
C151 C150 1.415 . S
H152 C149 0.999 . S
H153 C134 0.913 . S
H154 C172 0.951 . S
H155 C174 0.951 . S
H156 C176 0.945 1_655 S
H157 C177 0.950 1_655 S
H158 C179 0.950 . S
H159 C182 0.950 . S
H160 C183 0.950 . S
H161 C185 0.950 . S
H162 C186 0.950 1_545 S
H163 C187 0.951 . S
H164 C189 0.951 . S
H165 C191 0.945 1_455 S
H166 C192 0.950 1_455 S
H167 C194 0.950 . S
H168 C197 0.950 . S
H169 C198 0.950 . S
H170 C200 0.950 . S
H171 C201 0.950 1_565 S
C172 H154 0.951 . S
C172 C173 1.366 . S
C172 C174 1.388 . S
C173 C172 1.366 . S
C173 C177 1.385 . S
C174 H155 0.951 . S
C174 C172 1.388 . S
C174 C175 1.366 . S
C175 C174 1.366 . S
C175 C176 1.418 . S
C175 C178 1.499 . S
C176 H156 0.945 1_455 S
C176 C175 1.418 . S
C176 C177 1.375 . S
C177 H157 0.950 1_455 S
C177 C173 1.385 . S
C177 C176 1.375 . S
C178 C175 1.499 . S
C178 C179 1.373 1_455 S
C178 C180 1.389 . S
C179 H158 0.950 . S
C179 C178 1.373 1_655 S
C179 C195 1.377 1_565 S
C180 C178 1.389 . S
C180 C181 1.524 . S
C180 C194 1.377 1_565 S
C181 C180 1.524 . S
C181 C182 1.397 . S
C181 C186 1.363 . S
C182 H159 0.950 . S
C182 C181 1.397 . S
C182 C183 1.334 . S
C183 H160 0.950 . S
C183 C182 1.334 . S
C183 C184 1.287 . S
C184 C183 1.287 . S
C184 C185 1.524 . S
C184 H203 0.913 . S
C185 H161 0.950 . S
C185 C184 1.524 . S
C185 C186 1.415 . S
C186 H162 0.950 1_565 S
C186 C181 1.363 . S
C186 C185 1.415 . S
C187 H163 0.951 . S
C187 C188 1.366 . S
C187 C189 1.388 . S
C188 C187 1.366 . S
C188 C192 1.385 . S
C189 H164 0.951 . S
C189 C187 1.388 . S
C189 C190 1.366 . S
C190 C189 1.366 . S
C190 C191 1.418 . S
C190 C193 1.499 . S
C191 H165 0.945 1_655 S
C191 C190 1.418 . S
C191 C192 1.375 . S
C192 H166 0.950 1_655 S
C192 C188 1.385 . S
C192 C191 1.375 . S
C193 C190 1.499 . S
C193 C194 1.373 1_655 S
C193 C195 1.389 . S
C194 H167 0.950 . S
C194 C180 1.377 1_545 S
C194 C193 1.373 1_455 S
C195 C179 1.377 1_545 S
C195 C193 1.389 . S
C195 C196 1.524 . S
C196 C195 1.524 . S
C196 C197 1.397 . S
C196 C201 1.363 . S
C197 H168 0.950 . S
C197 C196 1.397 . S
C197 C198 1.334 . S
C198 H169 0.950 . S
C198 C197 1.334 . S
C198 C199 1.287 . S
C199 C198 1.287 . S
C199 C200 1.524 . S
C199 H202 0.999 . S
C200 H170 0.950 . S
C200 C199 1.524 . S
C200 C201 1.415 . S
C201 H171 0.950 1_545 S
C201 C196 1.363 . S
C201 C200 1.415 . S
H202 C199 0.999 . S
H203 C184 0.913 . S
H204 C222 0.951 . S
H205 C224 0.951 . S
H206 C226 0.950 . S
H207 C227 0.950 . S
H208 C229 0.950 . S
H209 C232 0.950 . S
H210 C233 0.950 . S
H211 C235 0.950 . S
H212 C236 0.950 . S
H213 C237 0.951 . S
H214 C239 0.951 . S
H215 C241 0.950 . S
H216 C242 0.950 . S
H217 C244 0.950 . S
H218 C247 0.950 . S
H219 C248 0.950 . S
H220 C250 0.950 . S
H221 C251 0.950 . S
C222 H204 0.951 . S
C222 C223 1.366 . S
C222 C224 1.388 . S
C223 C222 1.366 . S
C223 C227 1.385 1_554 S
C224 H205 0.951 . S
C224 C222 1.388 . S
C224 C225 1.366 . S
C225 C224 1.366 . S
C225 C226 1.414 1_554 S
C225 C228 1.499 . S
C226 H206 0.950 . S
C226 C225 1.414 1_556 S
C226 C227 1.374 . S
C227 H207 0.950 . S
C227 C223 1.385 1_556 S
C227 C226 1.374 . S
C228 C225 1.499 . S
C228 C229 1.373 1_554 S
C228 C230 1.389 . S
C229 H208 0.950 . S
C229 C228 1.373 1_556 S
C229 C245 1.377 . S
C230 C228 1.389 . S
C230 C231 1.524 . S
C230 C244 1.377 . S
C231 C230 1.524 . S
C231 C232 1.397 . S
C231 C236 1.363 . S
C232 H209 0.950 . S
C232 C231 1.397 . S
C232 C233 1.334 . S
C233 H210 0.950 . S
C233 C232 1.334 . S
C233 C234 1.287 . S
C234 C233 1.287 . S
C234 C235 1.524 . S
C234 H253 0.913 . S
C235 H211 0.950 . S
C235 C234 1.524 . S
C235 C236 1.415 . S
C236 H212 0.950 . S
C236 C231 1.363 . S
C236 C235 1.415 . S
C237 H213 0.951 . S
C237 C238 1.366 1_556 S
C237 C239 1.388 . S
C238 C237 1.366 1_554 S
C238 C242 1.385 . S
C239 H214 0.951 . S
C239 C237 1.388 . S
C239 C240 1.366 1_556 S
C240 C239 1.366 1_554 S
C240 C241 1.414 . S
C240 C243 1.499 . S
C241 H215 0.950 . S
C241 C240 1.414 . S
C241 C242 1.374 . S
C242 H216 0.950 . S
C242 C238 1.385 . S
C242 C241 1.374 . S
C243 C240 1.499 . S
C243 C244 1.373 . S
C243 C245 1.389 1_554 S
C244 H217 0.950 . S
C244 C230 1.377 . S
C244 C243 1.373 . S
C245 C229 1.377 . S
C245 C243 1.389 1_556 S
C245 C246 1.524 . S
C246 C245 1.524 . S
C246 C247 1.397 . S
C246 C251 1.363 . S
C247 H218 0.950 . S
C247 C246 1.397 . S
C247 C248 1.334 . S
C248 H219 0.950 . S
C248 C247 1.334 . S
C248 C249 1.287 . S
C249 C248 1.287 . S
C249 C250 1.524 . S
C249 H252 0.999 . S
C250 H220 0.950 . S
C250 C249 1.524 . S
C250 C251 1.415 . S
C251 H221 0.950 . S
C251 C246 1.363 . S
C251 C250 1.415 . S
H252 C249 0.999 . S
H253 C234 0.913 . S
H254 C272 0.951 . S
H255 C274 0.951 . S
H256 C276 0.950 . S
H257 C277 0.950 . S
H258 C279 0.950 . S
H259 C282 0.950 . S
H260 C283 0.950 . S
H261 C285 0.950 . S
H262 C286 0.950 . S
H263 C287 0.951 . S
H264 C289 0.951 . S
H265 C291 0.950 . S
H266 C292 0.950 . S
H267 C294 0.950 . S
H268 C297 0.950 . S
H269 C298 0.950 . S
H270 C300 0.950 . S
H271 C301 0.950 . S
C272 H254 0.951 . S
C272 C273 1.366 . S
C272 C274 1.388 . S
C273 C272 1.366 . S
C273 C277 1.385 . S
C274 H255 0.951 . S
C274 C272 1.388 . S
C274 C275 1.366 . S
C275 C274 1.366 . S
C275 C276 1.414 . S
C275 C278 1.499 . S
C276 H256 0.950 . S
C276 C275 1.414 . S
C276 C277 1.374 . S
C277 H257 0.950 . S
C277 C273 1.385 . S
C277 C276 1.374 . S
C278 C275 1.499 . S
C278 C279 1.373 . S
C278 C280 1.389 . S
C279 H258 0.950 . S
C279 C278 1.373 . S
C279 C295 1.377 . S
C280 C278 1.389 . S
C280 C281 1.524 . S
C280 C294 1.377 . S
C281 C280 1.524 . S
C281 C282 1.397 . S
C281 C286 1.363 . S
C282 H259 0.950 . S
C282 C281 1.397 . S
C282 C283 1.334 . S
C283 H260 0.950 . S
C283 C282 1.334 . S
C283 C284 1.287 . S
C284 C283 1.287 . S
C284 C285 1.524 . S
C284 H303 0.913 . S
C285 H261 0.950 . S
C285 C284 1.524 . S
C285 C286 1.415 . S
C286 H262 0.950 . S
C286 C281 1.363 . S
C286 C285 1.415 . S
C287 H263 0.951 . S
C287 C288 1.366 . S
C287 C289 1.388 . S
C288 C287 1.366 . S
C288 C292 1.385 . S
C289 H264 0.951 . S
C289 C287 1.388 . S
C289 C290 1.366 . S
C290 C289 1.366 . S
C290 C291 1.414 . S
C290 C293 1.499 . S
C291 H265 0.950 . S
C291 C290 1.414 . S
C291 C292 1.374 . S
C292 H266 0.950 . S
C292 C288 1.385 . S
C292 C291 1.374 . S
C293 C290 1.499 . S
C293 C294 1.373 . S
C293 C295 1.389 . S
C294 H267 0.950 . S
C294 C280 1.377 . S
C294 C293 1.373 . S
C295 C279 1.377 . S
C295 C293 1.389 . S
C295 C296 1.524 . S
C296 C295 1.524 . S
C296 C297 1.397 . S
C296 C301 1.363 . S
C297 H268 0.950 . S
C297 C296 1.397 . S
C297 C298 1.334 . S
C298 H269 0.950 . S
C298 C297 1.334 . S
C298 C299 1.287 . S
C299 C298 1.287 . S
C299 C300 1.524 . S
C299 H302 0.999 . S
C300 H270 0.950 . S
C300 C299 1.524 . S
C300 C301 1.415 . S
C301 H271 0.950 . S
C301 C296 1.363 . S
C301 C300 1.415 . S
H302 C299 0.999 . S
H303 C284 0.913 . S
H304 C322 0.951 . S
H305 C324 0.951 . S
H306 C326 0.950 . S
H307 C327 0.950 . S
H308 C329 0.950 . S
H309 C332 0.950 . S
H310 C333 0.950 . S
H311 C335 0.950 . S
H312 C336 0.950 . S
H313 C337 0.951 . S
H314 C339 0.951 . S
H315 C341 0.950 . S
H316 C342 0.950 . S
H317 C344 0.950 . S
H318 C347 0.950 . S
H319 C348 0.950 . S
H320 C350 0.950 . S
H321 C351 0.950 . S
C322 H304 0.951 . S
C322 C323 1.366 . S
C322 C324 1.388 . S
C323 C322 1.366 . S
C323 C327 1.385 . S
C324 H305 0.951 . S
C324 C322 1.388 . S
C324 C325 1.366 . S
C325 C324 1.366 . S
C325 C326 1.414 . S
C325 C328 1.499 . S
C326 H306 0.950 . S
C326 C325 1.414 . S
C326 C327 1.374 . S
C327 H307 0.950 . S
C327 C323 1.385 . S
C327 C326 1.374 . S
C328 C325 1.499 . S
C328 C329 1.373 . S
C328 C330 1.389 1_455 S
C329 H308 0.950 . S
C329 C328 1.373 . S
C329 C345 1.377 . S
C330 C328 1.389 1_655 S
C330 C331 1.524 . S
C330 C344 1.377 . S
C331 C330 1.524 . S
C331 C332 1.397 . S
C331 C336 1.363 . S
C332 H309 0.950 . S
C332 C331 1.397 . S
C332 C333 1.334 . S
C333 H310 0.950 . S
C333 C332 1.334 . S
C333 C334 1.287 . S
C334 C333 1.287 . S
C334 C335 1.524 . S
C334 H353 0.913 . S
C335 H311 0.950 . S
C335 C334 1.524 . S
C335 C336 1.415 . S
C336 H312 0.950 . S
C336 C331 1.363 . S
C336 C335 1.415 . S
C337 H313 0.951 . S
C337 C338 1.366 . S
C337 C339 1.388 . S
C338 C337 1.366 . S
C338 C342 1.385 . S
C339 H314 0.951 . S
C339 C337 1.388 . S
C339 C340 1.366 . S
C340 C339 1.366 . S
C340 C341 1.414 . S
C340 C343 1.499 . S
C341 H315 0.950 . S
C341 C340 1.414 . S
C341 C342 1.374 . S
C342 H316 0.950 . S
C342 C338 1.385 . S
C342 C341 1.374 . S
C343 C340 1.499 . S
C343 C344 1.373 . S
C343 C345 1.389 1_655 S
C344 H317 0.950 . S
C344 C330 1.377 . S
C344 C343 1.373 . S
C345 C329 1.377 . S
C345 C343 1.389 1_455 S
C345 C346 1.524 . S
C346 C345 1.524 . S
C346 C347 1.397 . S
C346 C351 1.363 . S
C347 H318 0.950 . S
C347 C346 1.397 . S
C347 C348 1.334 . S
C348 H319 0.950 . S
C348 C347 1.334 . S
C348 C349 1.287 . S
C349 C348 1.287 . S
C349 C350 1.524 . S
C349 H352 0.999 . S
C350 H320 0.950 . S
C350 C349 1.524 . S
C350 C351 1.415 . S
C351 H321 0.950 . S
C351 C346 1.363 . S
C351 C350 1.415 . S
H352 C349 0.999 . S
H353 C334 0.913 . S
H354 C372 0.951 . S
H355 C374 0.951 . S
H356 C376 0.950 . S
H357 C377 0.950 . S
H358 C379 0.950 . S
H359 C382 0.950 . S
H360 C383 0.950 . S
H361 C385 0.950 . S
H362 C386 0.950 1_455 S
H363 C387 0.951 . S
H364 C389 0.951 . S
H365 C391 0.950 . S
H366 C392 0.950 . S
H367 C394 0.950 . S
H368 C397 0.950 . S
H369 C398 0.950 . S
H370 C400 0.950 . S
H371 C401 0.950 1_655 S
C372 H354 0.951 . S
C372 C373 1.366 . S
C372 C374 1.388 . S
C373 C372 1.366 . S
C373 C377 1.385 1_455 S
C374 H355 0.951 . S
C374 C372 1.388 . S
C374 C375 1.366 . S
C375 C374 1.366 . S
C375 C376 1.414 1_455 S
C375 C378 1.499 . S
C376 H356 0.950 . S
C376 C375 1.414 1_655 S
C376 C377 1.374 . S
C377 H357 0.950 . S
C377 C373 1.385 1_655 S
C377 C376 1.374 . S
C378 C375 1.499 . S
C378 C379 1.373 . S
C378 C380 1.389 1_455 S
C379 H358 0.950 . S
C379 C378 1.373 . S
C379 C395 1.377 . S
C380 C378 1.389 1_655 S
C380 C381 1.524 . S
C380 C394 1.377 . S
C381 C380 1.524 . S
C381 C382 1.397 . S
C381 C386 1.363 . S
C382 H359 0.950 . S
C382 C381 1.397 . S
C382 C383 1.334 . S
C383 H360 0.950 . S
C383 C382 1.334 . S
C383 C384 1.287 . S
C384 C383 1.287 . S
C384 C385 1.524 . S
C384 H403 0.913 . S
C385 H361 0.950 . S
C385 C384 1.524 . S
C385 C386 1.415 . S
C386 H362 0.950 1_655 S
C386 C381 1.363 . S
C386 C385 1.415 . S
C387 H363 0.951 . S
C387 C388 1.366 . S
C387 C389 1.388 . S
C388 C387 1.366 . S
C388 C392 1.385 1_655 S
C389 H364 0.951 . S
C389 C387 1.388 . S
C389 C390 1.366 . S
C390 C389 1.366 . S
C390 C391 1.414 1_655 S
C390 C393 1.499 . S
C391 H365 0.950 . S
C391 C390 1.414 1_455 S
C391 C392 1.374 . S
C392 H366 0.950 . S
C392 C388 1.385 1_455 S
C392 C391 1.374 . S
C393 C390 1.499 . S
C393 C394 1.373 . S
C393 C395 1.389 1_655 S
C394 H367 0.950 . S
C394 C380 1.377 . S
C394 C393 1.373 . S
C395 C379 1.377 . S
C395 C393 1.389 1_455 S
C395 C396 1.524 . S
C396 C395 1.524 . S
C396 C397 1.397 . S
C396 C401 1.363 . S
C397 H368 0.950 . S
C397 C396 1.397 . S
C397 C398 1.334 . S
C398 H369 0.950 . S
C398 C397 1.334 . S
C398 C399 1.287 . S
C399 C398 1.287 . S
C399 C400 1.524 . S
C399 H402 0.999 . S
C400 H370 0.950 . S
C400 C399 1.524 . S
C400 C401 1.415 . S
C401 H371 0.950 1_455 S
C401 C396 1.363 . S
C401 C400 1.415 . S
H402 C399 0.999 . S
H403 C384 0.913 . S
H404 C422 0.951 . S
H405 C424 0.951 . S
H406 C426 0.950 . S
H407 C427 0.950 . S
H408 C429 0.950 . S
H409 C432 0.950 . S
H410 C433 0.950 1_655 S
H411 C435 0.950 . S
H412 C436 0.950 . S
H413 C437 0.951 . S
H414 C439 0.951 . S
H415 C441 0.950 . S
H416 C442 0.950 . S
H417 C444 0.950 . S
H418 C447 0.950 . S
H419 C448 0.950 1_455 S
H420 C450 0.950 . S
H421 C451 0.950 . S
C422 H404 0.951 . S
C422 C423 1.366 . S
C422 C424 1.388 . S
C423 C422 1.366 . S
C423 C427 1.385 1_455 S
C424 H405 0.951 . S
C424 C422 1.388 . S
C424 C425 1.366 . S
C425 C424 1.366 . S
C425 C426 1.414 1_455 S
C425 C428 1.500 . S
C426 H406 0.950 . S
C426 C425 1.414 1_655 S
C426 C427 1.374 . S
C427 H407 0.950 . S
C427 C423 1.385 1_655 S
C427 C426 1.374 . S
C428 C425 1.500 . S
C428 C429 1.369 1_455 S
C428 C430 1.394 . S
C429 H408 0.950 . S
C429 C428 1.369 1_655 S
C429 C445 1.377 . S
C430 C428 1.394 . S
C430 C431 1.524 . S
C430 C444 1.377 . S
C431 C430 1.524 . S
C431 C432 1.397 1_455 S
C431 C436 1.363 . S
C432 H409 0.950 . S
C432 C431 1.397 1_655 S
C432 C433 1.334 1_655 S
C433 H410 0.950 1_455 S
C433 C432 1.334 1_455 S
C433 C434 1.287 . S
C434 C433 1.287 . S
C434 C435 1.524 . S
C434 H453 0.913 . S
C435 H411 0.950 . S
C435 C434 1.524 . S
C435 C436 1.415 . S
C436 H412 0.950 . S
C436 C431 1.363 . S
C436 C435 1.415 . S
C437 H413 0.951 . S
C437 C438 1.366 . S
C437 C439 1.388 . S
C438 C437 1.366 . S
C438 C442 1.385 1_655 S
C439 H414 0.951 . S
C439 C437 1.388 . S
C439 C440 1.366 . S
C440 C439 1.366 . S
C440 C441 1.414 1_655 S
C440 C443 1.500 . S
C441 H415 0.950 . S
C441 C440 1.414 1_455 S
C441 C442 1.374 . S
C442 H416 0.950 . S
C442 C438 1.385 1_455 S
C442 C441 1.374 . S
C443 C440 1.500 . S
C443 C444 1.369 1_655 S
C443 C445 1.394 . S
C444 H417 0.950 . S
C444 C430 1.377 . S
C444 C443 1.369 1_455 S
C445 C429 1.377 . S
C445 C443 1.394 . S
C445 C446 1.524 . S
C446 C445 1.524 . S
C446 C447 1.397 1_655 S
C446 C451 1.363 . S
C447 H418 0.950 . S
C447 C446 1.397 1_455 S
C447 C448 1.334 1_455 S
C448 H419 0.950 1_655 S
C448 C447 1.334 1_655 S
C448 C449 1.287 . S
C449 C448 1.287 . S
C449 C450 1.524 . S
C449 H452 0.999 . S
C450 H420 0.950 . S
C450 C449 1.524 . S
C450 C451 1.415 . S
C451 H421 0.950 . S
C451 C446 1.363 . S
C451 C450 1.415 . S
H452 C449 0.999 . S
H453 C434 0.913 . S
H454 C472 0.951 . S
H455 C474 0.947 1_655 S
H456 C476 0.950 . S
H457 C477 0.950 . S
H458 C479 0.950 . S
H459 C482 0.950 . S
H460 C483 0.950 . S
H461 C485 0.950 . S
H462 C486 0.950 . S
H463 C487 0.951 . S
H464 C489 0.947 1_455 S
H465 C491 0.950 . S
H466 C492 0.950 . S
H467 C494 0.950 . S
H468 C497 0.950 . S
H469 C498 0.950 . S
H470 C500 0.950 . S
H471 C501 0.950 . S
C472 H454 0.951 . S
C472 C473 1.366 . S
C472 C474 1.391 . S
C473 C472 1.366 . S
C473 C477 1.385 . S
C474 H455 0.947 1_455 S
C474 C472 1.391 . S
C474 C475 1.368 . S
C475 C474 1.368 . S
C475 C476 1.414 . S
C475 C478 1.500 . S
C476 H456 0.950 . S
C476 C475 1.414 . S
C476 C477 1.374 . S
C477 H457 0.950 . S
C477 C473 1.385 . S
C477 C476 1.374 . S
C478 C475 1.500 . S
C478 C479 1.383 . S
C478 C480 1.379 1_455 S
C479 H458 0.950 . S
C479 C478 1.383 . S
C479 C495 1.377 . S
C480 C478 1.379 1_655 S
C480 C481 1.524 . S
C480 C494 1.377 . S
C481 C480 1.524 . S
C481 C482 1.397 . S
C481 C486 1.363 . S
C482 H459 0.950 . S
C482 C481 1.397 . S
C482 C483 1.334 . S
C483 H460 0.950 . S
C483 C482 1.334 . S
C483 C484 1.287 . S
C484 C483 1.287 . S
C484 C485 1.524 . S
C484 H503 0.913 . S
C485 H461 0.950 . S
C485 C484 1.524 . S
C485 C486 1.415 . S
C486 H462 0.950 . S
C486 C481 1.363 . S
C486 C485 1.415 . S
C487 H463 0.951 . S
C487 C488 1.366 . S
C487 C489 1.391 . S
C488 C487 1.366 . S
C488 C492 1.385 . S
C489 H464 0.947 1_655 S
C489 C487 1.391 . S
C489 C490 1.368 . S
C490 C489 1.368 . S
C490 C491 1.414 . S
C490 C493 1.500 . S
C491 H465 0.950 . S
C491 C490 1.414 . S
C491 C492 1.374 . S
C492 H466 0.950 . S
C492 C488 1.385 . S
C492 C491 1.374 . S
C493 C490 1.500 . S
C493 C494 1.383 . S
C493 C495 1.380 1_655 S
C494 H467 0.950 . S
C494 C480 1.377 . S
C494 C493 1.383 . S
C495 C479 1.377 . S
C495 C493 1.380 1_455 S
C495 C496 1.524 . S
C496 C495 1.524 . S
C496 C497 1.397 . S
C496 C501 1.363 . S
C497 H468 0.950 . S
C497 C496 1.397 . S
C497 C498 1.334 . S
C498 H469 0.950 . S
C498 C497 1.334 . S
C498 C499 1.287 . S
C499 C498 1.287 . S
C499 C500 1.524 . S
C499 H502 0.999 . S
C500 H470 0.950 . S
C500 C499 1.524 . S
C500 C501 1.415 . S
C501 H471 0.950 . S
C501 C496 1.363 . S
C501 C500 1.415 . S
H502 C499 0.999 . S
H503 C484 0.913 . S
H504 C522 0.951 . S
H505 C524 0.951 . S
H506 C526 0.950 . S
H507 C527 0.950 . S
H508 C529 0.950 . S
H509 C532 0.950 . S
H510 C533 0.950 . S
H511 C535 0.950 . S
H512 C536 0.950 . S
H513 C537 0.951 . S
H514 C539 0.951 . S
H515 C541 0.950 . S
H516 C542 0.950 . S
H517 C544 0.950 . S
H518 C547 0.950 . S
H519 C548 0.950 . S
H520 C550 0.950 . S
H521 C551 0.950 . S
C522 H504 0.951 . S
C522 C523 1.366 . S
C522 C524 1.388 . S
C523 C522 1.366 . S
C523 C527 1.385 . S
C524 H505 0.951 . S
C524 C522 1.388 . S
C524 C525 1.366 . S
C525 C524 1.366 . S
C525 C526 1.414 . S
C525 C528 1.499 . S
C526 H506 0.950 . S
C526 C525 1.414 . S
C526 C527 1.374 . S
C527 H507 0.950 . S
C527 C523 1.385 . S
C527 C526 1.374 . S
C528 C525 1.499 . S
C528 C529 1.373 . S
C528 C530 1.389 . S
C529 H508 0.950 . S
C529 C528 1.373 . S
C529 C545 1.377 . S
C530 C528 1.389 . S
C530 C531 1.524 . S
C530 C544 1.377 . S
C531 C530 1.524 . S
C531 C532 1.397 . S
C531 C536 1.363 . S
C532 H509 0.950 . S
C532 C531 1.397 . S
C532 C533 1.334 . S
C533 H510 0.950 . S
C533 C532 1.334 . S
C533 C534 1.287 . S
C534 C533 1.287 . S
C534 C535 1.524 . S
C534 H553 0.913 . S
C535 H511 0.950 . S
C535 C534 1.524 . S
C535 C536 1.415 . S
C536 H512 0.950 . S
C536 C531 1.363 . S
C536 C535 1.415 . S
C537 H513 0.951 . S
C537 C538 1.366 . S
C537 C539 1.388 . S
C538 C537 1.366 . S
C538 C542 1.385 . S
C539 H514 0.951 . S
C539 C537 1.388 . S
C539 C540 1.366 . S
C540 C539 1.366 . S
C540 C541 1.414 . S
C540 C543 1.499 . S
C541 H515 0.950 . S
C541 C540 1.414 . S
C541 C542 1.374 . S
C542 H516 0.950 . S
C542 C538 1.385 . S
C542 C541 1.374 . S
C543 C540 1.499 . S
C543 C544 1.373 . S
C543 C545 1.389 . S
C544 H517 0.950 . S
C544 C530 1.377 . S
C544 C543 1.373 . S
C545 C529 1.377 . S
C545 C543 1.389 . S
C545 C546 1.524 . S
C546 C545 1.524 . S
C546 C547 1.397 . S
C546 C551 1.363 . S
C547 H518 0.950 . S
C547 C546 1.397 . S
C547 C548 1.334 . S
C548 H519 0.950 . S
C548 C547 1.334 . S
C548 C549 1.287 . S
C549 C548 1.287 . S
C549 C550 1.524 . S
C549 H552 0.999 . S
C550 H520 0.950 . S
C550 C549 1.524 . S
C550 C551 1.415 . S
C551 H521 0.950 . S
C551 C546 1.363 . S
C551 C550 1.415 . S
H552 C549 0.999 . S
H553 C534 0.913 . S
H554 C572 0.951 . S
H555 C574 0.951 . S
H556 C576 0.950 . S
H557 C577 0.950 . S
H558 C579 0.950 . S
H559 C582 0.950 . S
H560 C583 0.950 . S
H561 C585 0.950 . S
H562 C586 0.950 . S
H563 C587 0.951 . S
H564 C589 0.951 . S
H565 C591 0.950 . S
H566 C592 0.950 . S
H567 C594 0.950 . S
H568 C597 0.950 . S
H569 C598 0.950 . S
H570 C600 0.950 . S
H571 C601 0.950 . S
C572 H554 0.951 . S
C572 C573 1.366 . S
C572 C574 1.388 . S
C573 C572 1.366 . S
C573 C577 1.385 . S
C574 H555 0.951 . S
C574 C572 1.388 . S
C574 C575 1.366 . S
C575 C574 1.366 . S
C575 C576 1.414 . S
C575 C578 1.499 . S
C576 H556 0.950 . S
C576 C575 1.414 . S
C576 C577 1.374 . S
C577 H557 0.950 . S
C577 C573 1.385 . S
C577 C576 1.374 . S
C578 C575 1.499 . S
C578 C579 1.373 . S
C578 C580 1.389 . S
C579 H558 0.950 . S
C579 C578 1.373 . S
C579 C595 1.377 . S
C580 C578 1.389 . S
C580 C581 1.524 . S
C580 C594 1.377 . S
C581 C580 1.524 . S
C581 C582 1.397 . S
C581 C586 1.363 . S
C582 H559 0.950 . S
C582 C581 1.397 . S
C582 C583 1.334 . S
C583 H560 0.950 . S
C583 C582 1.334 . S
C583 C584 1.287 . S
C584 C583 1.287 . S
C584 C585 1.524 . S
C584 H603 0.913 . S
C585 H561 0.950 . S
C585 C584 1.524 . S
C585 C586 1.415 . S
C586 H562 0.950 . S
C586 C581 1.363 . S
C586 C585 1.415 . S
C587 H563 0.951 . S
C587 C588 1.366 . S
C587 C589 1.388 . S
C588 C587 1.366 . S
C588 C592 1.385 . S
C589 H564 0.951 . S
C589 C587 1.388 . S
C589 C590 1.366 . S
C590 C589 1.366 . S
C590 C591 1.414 . S
C590 C593 1.499 . S
C591 H565 0.950 . S
C591 C590 1.414 . S
C591 C592 1.374 . S
C592 H566 0.950 . S
C592 C588 1.385 . S
C592 C591 1.374 . S
C593 C590 1.499 . S
C593 C594 1.373 . S
C593 C595 1.389 . S
C594 H567 0.950 . S
C594 C580 1.377 . S
C594 C593 1.373 . S
C595 C579 1.377 . S
C595 C593 1.389 . S
C595 C596 1.524 . S
C596 C595 1.524 . S
C596 C597 1.397 . S
C596 C601 1.363 . S
C597 H568 0.950 . S
C597 C596 1.397 . S
C597 C598 1.334 . S
C598 H569 0.950 . S
C598 C597 1.334 . S
C598 C599 1.287 . S
C599 C598 1.287 . S
C599 C600 1.524 . S
C599 H602 0.999 . S
C600 H570 0.950 . S
C600 C599 1.524 . S
C600 C601 1.415 . S
C601 H571 0.950 . S
C601 C596 1.363 . S
C601 C600 1.415 . S
H602 C599 0.999 . S
H603 C584 0.913 . S
H604 C622 0.951 . S
H605 C624 0.951 . S
H606 C626 0.950 . S
H607 C627 0.950 . S
H608 C629 0.950 . S
H609 C632 0.950 . S
H610 C633 0.950 . S
H611 C635 0.950 . S
H612 C636 0.950 . S
H613 C637 0.951 . S
H614 C639 0.951 . S
H615 C641 0.950 . S
H616 C642 0.950 . S
H617 C644 0.950 . S
H618 C647 0.950 . S
H619 C648 0.950 . S
H620 C650 0.950 . S
H621 C651 0.950 . S
C622 H604 0.951 . S
C622 C623 1.366 . S
C622 C624 1.388 . S
C623 C622 1.366 . S
C623 C627 1.385 . S
C624 H605 0.951 . S
C624 C622 1.388 . S
C624 C625 1.366 . S
C625 C624 1.366 . S
C625 C626 1.414 . S
C625 C628 1.499 . S
C626 H606 0.950 . S
C626 C625 1.414 . S
C626 C627 1.374 . S
C627 H607 0.950 . S
C627 C623 1.385 . S
C627 C626 1.374 . S
C628 C625 1.499 . S
C628 C629 1.373 . S
C628 C630 1.389 . S
C629 H608 0.950 . S
C629 C628 1.373 . S
C629 C645 1.377 . S
C630 C628 1.389 . S
C630 C631 1.524 . S
C630 C644 1.377 . S
C631 C630 1.524 . S
C631 C632 1.397 . S
C631 C636 1.363 . S
C632 H609 0.950 . S
C632 C631 1.397 . S
C632 C633 1.334 . S
C633 H610 0.950 . S
C633 C632 1.334 . S
C633 C634 1.287 . S
C634 C633 1.287 . S
C634 C635 1.524 . S
C634 H653 0.913 . S
C635 H611 0.950 . S
C635 C634 1.524 . S
C635 C636 1.415 . S
C636 H612 0.950 . S
C636 C631 1.363 . S
C636 C635 1.415 . S
C637 H613 0.951 . S
C637 C638 1.366 . S
C637 C639 1.388 . S
C638 C637 1.366 . S
C638 C642 1.385 . S
C639 H614 0.951 . S
C639 C637 1.388 . S
C639 C640 1.366 . S
C640 C639 1.366 . S
C640 C641 1.414 . S
C640 C643 1.499 . S
C641 H615 0.950 . S
C641 C640 1.414 . S
C641 C642 1.374 . S
C642 H616 0.950 . S
C642 C638 1.385 . S
C642 C641 1.374 . S
C643 C640 1.499 . S
C643 C644 1.373 . S
C643 C645 1.389 . S
C644 H617 0.950 . S
C644 C630 1.377 . S
C644 C643 1.373 . S
C645 C629 1.377 . S
C645 C643 1.389 . S
C645 C646 1.524 . S
C646 C645 1.524 . S
C646 C647 1.397 . S
C646 C651 1.363 . S
C647 H618 0.950 . S
C647 C646 1.397 . S
C647 C648 1.334 . S
C648 H619 0.950 . S
C648 C647 1.334 . S
C648 C649 1.287 . S
C649 C648 1.287 . S
C649 C650 1.524 . S
C649 H652 0.999 . S
C650 H620 0.950 . S
C650 C649 1.524 . S
C650 C651 1.415 . S
C651 H621 0.950 . S
C651 C646 1.363 . S
C651 C650 1.415 . S
H652 C649 0.999 . S
H653 C634 0.913 . S
H654 C672 0.951 . S
H655 C674 0.951 . S
H656 C676 0.950 . S
H657 C677 0.950 . S
H658 C679 0.950 . S
H659 C682 0.950 . S
H660 C683 0.950 . S
H661 C685 0.950 . S
H662 C686 0.950 . S
H663 C687 0.951 . S
H664 C689 0.951 . S
H665 C691 0.950 . S
H666 C692 0.950 . S
H667 C694 0.950 . S
H668 C697 0.950 . S
H669 C698 0.950 . S
H670 C700 0.950 . S
H671 C701 0.950 . S
C672 H654 0.951 . S
C672 C673 1.366 . S
C672 C674 1.388 . S
C673 C672 1.366 . S
C673 C677 1.385 . S
C674 H655 0.951 . S
C674 C672 1.388 . S
C674 C675 1.366 . S
C675 C674 1.366 . S
C675 C676 1.414 . S
C675 C678 1.499 . S
C676 H656 0.950 . S
C676 C675 1.414 . S
C676 C677 1.374 . S
C677 H657 0.950 . S
C677 C673 1.385 . S
C677 C676 1.374 . S
C678 C675 1.499 . S
C678 C679 1.373 . S
C678 C680 1.389 . S
C679 H658 0.950 . S
C679 C678 1.373 . S
C679 C695 1.377 . S
C680 C678 1.389 . S
C680 C681 1.524 . S
C680 C694 1.377 . S
C681 C680 1.524 . S
C681 C682 1.397 . S
C681 C686 1.363 . S
C682 H659 0.950 . S
C682 C681 1.397 . S
C682 C683 1.334 . S
C683 H660 0.950 . S
C683 C682 1.334 . S
C683 C684 1.287 . S
C684 C683 1.287 . S
C684 C685 1.524 . S
C684 H703 0.913 . S
C685 H661 0.950 . S
C685 C684 1.524 . S
C685 C686 1.415 . S
C686 H662 0.950 . S
C686 C681 1.363 . S
C686 C685 1.415 . S
C687 H663 0.951 . S
C687 C688 1.366 . S
C687 C689 1.388 . S
C688 C687 1.366 . S
C688 C692 1.385 . S
C689 H664 0.951 . S
C689 C687 1.388 . S
C689 C690 1.366 . S
C690 C689 1.366 . S
C690 C691 1.414 . S
C690 C693 1.499 . S
C691 H665 0.950 . S
C691 C690 1.414 . S
C691 C692 1.374 . S
C692 H666 0.950 . S
C692 C688 1.385 . S
C692 C691 1.374 . S
C693 C690 1.499 . S
C693 C694 1.373 . S
C693 C695 1.389 . S
C694 H667 0.950 . S
C694 C680 1.377 . S
C694 C693 1.373 . S
C695 C679 1.377 . S
C695 C693 1.389 . S
C695 C696 1.524 . S
C696 C695 1.524 . S
C696 C697 1.397 . S
C696 C701 1.363 . S
C697 H668 0.950 . S
C697 C696 1.397 . S
C697 C698 1.334 . S
C698 H669 0.950 . S
C698 C697 1.334 . S
C698 C699 1.287 . S
C699 C698 1.287 . S
C699 C700 1.524 . S
C699 H702 0.999 . S
C700 H670 0.950 . S
C700 C699 1.524 . S
C700 C701 1.415 . S
C701 H671 0.950 . S
C701 C696 1.363 . S
C701 C700 1.415 . S
H702 C699 0.999 . S
H703 C684 0.913 . S
H704 C722 0.951 1_556 S
H705 C724 0.951 1_556 S
H706 C726 0.950 . S
H707 C727 0.950 . S
H708 C729 0.950 . S
H709 C732 0.950 . S
H710 C733 0.950 . S
H711 C735 0.950 . S
H712 C736 0.950 . S
H713 C737 0.951 . S
H714 C739 0.951 . S
H715 C741 0.950 1_556 S
H716 C742 0.950 1_556 S
H717 C744 0.950 . S
H718 C747 0.950 . S
H719 C748 0.950 . S
H720 C750 0.950 . S
H721 C751 0.950 . S
C722 H704 0.951 1_554 S
C722 C723 1.366 . S
C722 C724 1.388 . S
C723 C722 1.366 . S
C723 C727 1.385 . S
C724 H705 0.951 1_554 S
C724 C722 1.388 . S
C724 C725 1.366 . S
C725 C724 1.366 . S
C725 C726 1.414 . S
C725 C728 1.499 . S
C726 H706 0.950 . S
C726 C725 1.414 . S
C726 C727 1.374 . S
C727 H707 0.950 . S
C727 C723 1.385 . S
C727 C726 1.374 . S
C728 C725 1.499 . S
C728 C729 1.373 . S
C728 C730 1.389 . S
C729 H708 0.950 . S
C729 C728 1.373 . S
C729 C745 1.377 . S
C730 C728 1.389 . S
C730 C731 1.524 . S
C730 C744 1.377 . S
C731 C730 1.524 . S
C731 C732 1.397 . S
C731 C736 1.363 1_554 S
C732 H709 0.950 . S
C732 C731 1.397 . S
C732 C733 1.334 . S
C733 H710 0.950 . S
C733 C732 1.334 . S
C733 C734 1.287 1_554 S
C734 C733 1.287 1_556 S
C734 C735 1.524 . S
C734 H753 0.913 . S
C735 H711 0.950 . S
C735 C734 1.524 . S
C735 C736 1.415 . S
C736 H712 0.950 . S
C736 C731 1.363 1_556 S
C736 C735 1.415 . S
C737 H713 0.951 . S
C737 C738 1.366 . S
C737 C739 1.388 . S
C738 C737 1.366 . S
C738 C742 1.385 . S
C739 H714 0.951 . S
C739 C737 1.388 . S
C739 C740 1.366 . S
C740 C739 1.366 . S
C740 C741 1.414 . S
C740 C743 1.499 . S
C741 H715 0.950 1_554 S
C741 C740 1.414 . S
C741 C742 1.374 . S
C742 H716 0.950 1_554 S
C742 C738 1.385 . S
C742 C741 1.374 . S
C743 C740 1.499 . S
C743 C744 1.373 . S
C743 C745 1.389 . S
C744 H717 0.950 . S
C744 C730 1.377 . S
C744 C743 1.373 . S
C745 C729 1.377 . S
C745 C743 1.389 . S
C745 C746 1.524 . S
C746 C745 1.524 . S
C746 C747 1.397 . S
C746 C751 1.363 . S
C747 H718 0.950 . S
C747 C746 1.397 . S
C747 C748 1.334 . S
C748 H719 0.950 . S
C748 C747 1.334 . S
C748 C749 1.287 . S
C749 C748 1.287 . S
C749 C750 1.524 . S
C749 H752 0.999 . S
C750 H720 0.950 . S
C750 C749 1.524 . S
C750 C751 1.415 . S
C751 H721 0.950 . S
C751 C746 1.363 . S
C751 C750 1.415 . S
H752 C749 0.999 . S
H753 C734 0.913 . S
H754 C772 0.951 . S
H755 C774 0.951 . S
H756 C776 0.950 . S
H757 C777 0.950 . S
H758 C779 0.950 . S
H759 C782 0.950 . S
H760 C783 0.950 . S
H761 C785 0.950 . S
H762 C786 0.950 . S
H763 C787 0.951 . S
H764 C789 0.951 . S
H765 C791 0.950 . S
H766 C792 0.950 . S
H767 C794 0.950 1_556 S
H768 C797 0.950 . S
H769 C798 0.950 . S
H770 C800 0.950 . S
H771 C801 0.950 . S
C772 H754 0.951 . S
C772 C773 1.366 . S
C772 C774 1.388 . S
C773 C772 1.366 . S
C773 C777 1.385 . S
C774 H755 0.951 . S
C774 C772 1.388 . S
C774 C775 1.366 . S
C775 C774 1.366 . S
C775 C776 1.414 . S
C775 C778 1.499 . S
C776 H756 0.950 . S
C776 C775 1.414 . S
C776 C777 1.374 . S
C777 H757 0.950 . S
C777 C773 1.385 . S
C777 C776 1.374 . S
C778 C775 1.499 . S
C778 C779 1.373 . S
C778 C780 1.389 . S
C779 H758 0.950 . S
C779 C778 1.373 . S
C779 C795 1.377 . S
C780 C778 1.389 . S
C780 C781 1.524 1_554 S
C780 C794 1.377 . S
C781 C780 1.524 1_556 S
C781 C782 1.397 . S
C781 C786 1.363 . S
C782 H759 0.950 . S
C782 C781 1.397 . S
C782 C783 1.334 . S
C783 H760 0.950 . S
C783 C782 1.334 . S
C783 C784 1.287 . S
C784 C783 1.287 . S
C784 C785 1.524 . S
C784 H803 0.913 . S
C785 H761 0.950 . S
C785 C784 1.524 . S
C785 C786 1.415 . S
C786 H762 0.950 . S
C786 C781 1.363 . S
C786 C785 1.415 . S
C787 H763 0.951 . S
C787 C788 1.366 . S
C787 C789 1.388 . S
C788 C787 1.366 . S
C788 C792 1.385 . S
C789 H764 0.951 . S
C789 C787 1.388 . S
C789 C790 1.366 . S
C790 C789 1.366 . S
C790 C791 1.414 . S
C790 C793 1.499 . S
C791 H765 0.950 . S
C791 C790 1.414 . S
C791 C792 1.374 . S
C792 H766 0.950 . S
C792 C788 1.385 . S
C792 C791 1.374 . S
C793 C790 1.499 . S
C793 C794 1.373 . S
C793 C795 1.389 . S
C794 H767 0.950 1_554 S
C794 C780 1.377 . S
C794 C793 1.373 . S
C795 C779 1.377 . S
C795 C793 1.389 . S
C795 C796 1.524 . S
C796 C795 1.524 . S
C796 C797 1.397 . S
C796 C801 1.363 . S
C797 H768 0.950 . S
C797 C796 1.397 . S
C797 C798 1.334 . S
C798 H769 0.950 . S
C798 C797 1.334 . S
C798 C799 1.287 . S
C799 C798 1.287 . S
C799 C800 1.524 . S
C799 H802 0.999 . S
C800 H770 0.950 . S
C800 C799 1.524 . S
C800 C801 1.415 . S
C801 H771 0.950 . S
C801 C796 1.363 . S
C801 C800 1.415 . S
H802 C799 0.999 . S
H803 C784 0.913 . S
H804 C822 0.951 . S
H805 C824 0.951 . S
H806 C826 0.950 . S
H807 C827 0.950 . S
H808 C829 0.950 . S
H809 C832 0.950 . S
H810 C833 0.950 . S
H811 C835 0.950 . S
H812 C836 0.950 . S
H813 C837 0.951 . S
H814 C839 0.951 . S
H815 C841 0.950 . S
H816 C842 0.950 . S
H817 C844 0.950 . S
H818 C847 0.950 . S
H819 C848 0.950 . S
H820 C850 0.950 . S
H821 C851 0.950 . S
C822 H804 0.951 . S
C822 C823 1.366 . S
C822 C824 1.388 . S
C823 C822 1.366 . S
C823 C827 1.385 . S
C824 H805 0.951 . S
C824 C822 1.388 . S
C824 C825 1.366 . S
C825 C824 1.366 . S
C825 C826 1.414 . S
C825 C828 1.499 . S
C826 H806 0.950 . S
C826 C825 1.414 . S
C826 C827 1.374 . S
C827 H807 0.950 . S
C827 C823 1.385 . S
C827 C826 1.374 . S
C828 C825 1.499 . S
C828 C829 1.373 . S
C828 C830 1.389 . S
C829 H808 0.950 . S
C829 C828 1.373 . S
C829 C845 1.377 . S
C830 C828 1.389 . S
C830 C831 1.524 . S
C830 C844 1.377 . S
C831 C830 1.524 . S
C831 C832 1.397 . S
C831 C836 1.363 . S
C832 H809 0.950 . S
C832 C831 1.397 . S
C832 C833 1.334 . S
C833 H810 0.950 . S
C833 C832 1.334 . S
C833 C834 1.287 . S
C834 C833 1.287 . S
C834 C835 1.524 . S
C834 H853 0.913 . S
C835 H811 0.950 . S
C835 C834 1.524 . S
C835 C836 1.415 . S
C836 H812 0.950 . S
C836 C831 1.363 . S
C836 C835 1.415 . S
C837 H813 0.951 . S
C837 C838 1.366 . S
C837 C839 1.388 . S
C838 C837 1.366 . S
C838 C842 1.385 . S
C839 H814 0.951 . S
C839 C837 1.388 . S
C839 C840 1.366 . S
C840 C839 1.366 . S
C840 C841 1.414 . S
C840 C843 1.499 . S
C841 H815 0.950 . S
C841 C840 1.414 . S
C841 C842 1.374 . S
C842 H816 0.950 . S
C842 C838 1.385 . S
C842 C841 1.374 . S
C843 C840 1.499 . S
C843 C844 1.373 . S
C843 C845 1.389 . S
C844 H817 0.950 . S
C844 C830 1.377 . S
C844 C843 1.373 . S
C845 C829 1.377 . S
C845 C843 1.389 . S
C845 C846 1.524 . S
C846 C845 1.524 . S
C846 C847 1.397 . S
C846 C851 1.363 . S
C847 H818 0.950 . S
C847 C846 1.397 . S
C847 C848 1.334 . S
C848 H819 0.950 . S
C848 C847 1.334 . S
C848 C849 1.287 . S
C849 C848 1.287 . S
C849 C850 1.524 . S
C849 H852 0.999 . S
C850 H820 0.950 . S
C850 C849 1.524 . S
C850 C851 1.415 . S
C851 H821 0.950 . S
C851 C846 1.363 . S
C851 C850 1.415 . S
H852 C849 0.999 . S
H853 C834 0.913 . S
H854 C872 0.951 . S
H855 C874 0.951 . S
H856 C876 0.950 . S
H857 C877 0.950 . S
H858 C879 0.950 . S
H859 C882 0.950 . S
H860 C883 0.950 . S
H861 C885 0.950 . S
H862 C886 0.950 . S
H863 C887 0.951 . S
H864 C889 0.951 . S
H865 C891 0.950 . S
H866 C892 0.950 . S
H867 C894 0.950 . S
H868 C897 0.950 . S
H869 C898 0.950 . S
H870 C900 0.950 . S
H871 C901 0.950 . S
C872 H854 0.951 . S
C872 C873 1.366 . S
C872 C874 1.388 . S
C873 C872 1.366 . S
C873 C877 1.385 . S
C874 H855 0.951 . S
C874 C872 1.388 . S
C874 C875 1.366 . S
C875 C874 1.366 . S
C875 C876 1.414 . S
C875 C878 1.499 . S
C876 H856 0.950 . S
C876 C875 1.414 . S
C876 C877 1.374 . S
C877 H857 0.950 . S
C877 C873 1.385 . S
C877 C876 1.374 . S
C878 C875 1.499 . S
C878 C879 1.373 . S
C878 C880 1.389 . S
C879 H858 0.950 . S
C879 C878 1.373 . S
C879 C895 1.377 . S
C880 C878 1.389 . S
C880 C881 1.524 . S
C880 C894 1.377 . S
C881 C880 1.524 . S
C881 C882 1.397 . S
C881 C886 1.363 . S
C882 H859 0.950 . S
C882 C881 1.397 . S
C882 C883 1.334 . S
C883 H860 0.950 . S
C883 C882 1.334 . S
C883 C884 1.287 . S
C884 C883 1.287 . S
C884 C885 1.524 . S
C884 H903 0.913 . S
C885 H861 0.950 . S
C885 C884 1.524 . S
C885 C886 1.415 . S
C886 H862 0.950 . S
C886 C881 1.363 . S
C886 C885 1.415 . S
C887 H863 0.951 . S
C887 C888 1.366 . S
C887 C889 1.388 . S
C888 C887 1.366 . S
C888 C892 1.385 . S
C889 H864 0.951 . S
C889 C887 1.388 . S
C889 C890 1.366 . S
C890 C889 1.366 . S
C890 C891 1.414 . S
C890 C893 1.499 . S
C891 H865 0.950 . S
C891 C890 1.414 . S
C891 C892 1.374 . S
C892 H866 0.950 . S
C892 C888 1.385 . S
C892 C891 1.374 . S
C893 C890 1.499 . S
C893 C894 1.373 . S
C893 C895 1.389 . S
C894 H867 0.950 . S
C894 C880 1.377 . S
C894 C893 1.373 . S
C895 C879 1.377 . S
C895 C893 1.389 . S
C895 C896 1.524 . S
C896 C895 1.524 . S
C896 C897 1.397 . S
C896 C901 1.363 . S
C897 H868 0.950 . S
C897 C896 1.397 . S
C897 C898 1.334 . S
C898 H869 0.950 . S
C898 C897 1.334 . S
C898 C899 1.287 . S
C899 C898 1.287 . S
C899 C900 1.524 . S
C899 H902 0.999 . S
C900 H870 0.950 . S
C900 C899 1.524 . S
C900 C901 1.415 . S
C901 H871 0.950 . S
C901 C896 1.363 . S
C901 C900 1.415 . S
H902 C899 0.999 . S
H903 C884 0.913 . S
C123 C16 1.518 . S
C138 C5 1.518 . S
C173 C31 1.518 . S
C188 C44 1.518 . S
C223 C55 1.518 . S
C238 C70 1.518 . S
C273 C81 1.519 . S
C288 C94 1.518 . S
C323 C10 1.271 . S
C338 C49 1.271 . S
C373 C36 1.272 . S
C388 C17 1.271 . S
C423 C29 1.236 . S
C438 C18 1.237 . S
C473 C3 1.236 . S
C488 C42 1.236 . S
C523 C56 1.272 . S
C538 C95 1.272 . S
C573 C82 1.271 . S
C588 C75 1.272 . S
C623 C68 1.236 . S
C638 C83 1.236 . S
C673 C57 1.237 . S
C688 C96 1.237 . S
C723 C69 1.523 . S
C738 C4 1.523 . S
C773 C62 1.523 . S
C788 C23 1.523 . S
C823 C30 1.523 . S
C838 C101 1.523 . S
C873 C88 1.523 . S
C888 C43 1.523 . S
