# Generated by pormake.
# Topology cdl, (4)-cn, num edge types: 1
# Building blocks:
#     Node 0, Type 0, BuildingBlock: ESEHIV_clean_sbu_0, # of connection points: 4
#     Node 1, Type 0, BuildingBlock: ESEHIV_clean_sbu_0, # of connection points: 4
#     Node 2, Type 0, BuildingBlock: ESEHIV_clean_sbu_0, # of connection points: 4
#     Node 3, Type 0, BuildingBlock: ESEHIV_clean_sbu_0, # of connection points: 4
#     Edge 4, Type (0, 0), BuildingBlock: TEMPAE_clean_linker_10, # of connection points: 2
#     Edge 5, Type (0, 0), BuildingBlock: TEMPAE_clean_linker_10, # of connection points: 2
#     Edge 6, Type (0, 0), BuildingBlock: TEMPAE_clean_linker_10, # of connection points: 2
#     Edge 7, Type (0, 0), BuildingBlock: TEMPAE_clean_linker_10, # of connection points: 2
#     Edge 8, Type (0, 0), BuildingBlock: TEMPAE_clean_linker_10, # of connection points: 2
#     Edge 9, Type (0, 0), BuildingBlock: TEMPAE_clean_linker_10, # of connection points: 2
#     Edge 10, Type (0, 0), BuildingBlock: TEMPAE_clean_linker_10, # of connection points: 2
#     Edge 11, Type (0, 0), BuildingBlock: TEMPAE_clean_linker_10, # of connection points: 2
# Relax obj value: 0.000
# Max RMSD: 0.146
# Mean RMSD: 0.094
data_MOF--net-cdl--node1-ESEHIV_clean_sbu_0--edge1-TEMPAE_clean_linker_10
_symmetry_space_group_name_H-M    P1
_symmetry_Int_Tables_number       1
_symmetry_cell_setting            triclinic
loop_
_symmetry_equiv_pos_as_xyz
'x, y, z'
_cell_length_a     14.979738
_cell_length_b     17.425086
_cell_length_c     64.215704
_cell_angle_alpha  101.40981
_cell_angle_beta   100.85468
_cell_angle_gamma 88.229124
loop_
_atom_site_label
_atom_site_type_symbol
_atom_site_fract_x
_atom_site_fract_y
_atom_site_fract_z
_atom_type_partial_charge
Cu0 Cu 0.02966 0.10096 0.12386 0.0
N1 N 0.95928 1.00857 0.11586 0.0
N2 N 0.92089 0.88252 0.11201 0.0
C3 C 0.98755 0.9372 0.11939 0.0
C4 C 0.84793 0.92138 0.10355 0.0
C5 C 0.87171 0.99886 0.10597 0.0
O6 O 0.09556 0.10349 0.15335 0.0
C7 C 0.05673 0.09332 0.0827 0.0
O8 O 0.96848 0.0835 0.08009 0.0
H9 H 0.05597 0.92577 0.12711 0.0
H10 H 0.82808 0.04482 0.10083 0.0
N11 N 0.95727 0.19082 0.12437 0.0
N12 N 0.91775 0.31549 0.1236 0.0
C13 C 0.98327 0.26082 0.1215 0.0
C14 C 0.87239 0.20136 0.12842 0.0
C15 C 0.84781 0.27799 0.12792 0.0
C16 C 0.04461 0.09446 0.16655 0.0
O17 O 0.95679 0.08572 0.15924 0.0
H18 H 0.0499 0.27166 0.11843 0.0
H19 H 0.83145 0.15679 0.13173 0.0
O20 O 0.10348 0.10222 0.1018 0.0
H21 H 0.78144 0.89609 0.09644 0.0
H22 H 0.78312 0.30379 0.13045 0.0
Cu23 Cu 0.20257 0.18494 0.6566 0.0
N24 N 0.23156 0.12301 0.67773 0.0
N25 N 0.2456 0.0863 0.70975 0.0
C26 C 0.21915 0.14322 0.69834 0.0
C27 C 0.27654 1.02817 0.69562 0.0
C28 C 0.26785 0.05101 0.67594 0.0
O29 O 0.0943 0.24549 0.66183 0.0
C30 C 0.3753 0.20615 0.65075 0.0
O31 O 0.36248 0.1307 0.64333 0.0
H32 H 0.18858 0.19798 0.70456 0.0
H33 H 0.28618 1.01731 0.66133 0.0
N34 N 0.17346 0.12388 0.62866 0.0
N35 N 0.16108 0.08798 0.59278 0.0
C36 C 0.19075 0.14331 0.6105 0.0
C37 C 0.13072 0.05404 0.62221 0.0
C38 C 0.12277 0.03181 0.60006 0.0
C39 C 0.03028 0.20575 0.66521 0.0
O40 O 0.0428 0.13069 0.66502 0.0
H41 H 0.22416 0.1973 0.6103 0.0
H42 H 0.10736 1.02145 0.63286 0.0
O43 O 0.31127 0.24619 0.65805 0.0
H44 H 0.30369 0.97297 0.69914 0.0
H45 H 0.09277 0.97789 0.59015 0.0
Cu46 Cu 0.06116 0.13986 0.89701 0.0
N47 N 0.98802 0.05426 0.89654 0.0
N48 N 0.94843 0.93135 0.89651 0.0
C49 C 1.01121 0.97812 0.89257 0.0
C50 C 0.88335 0.98039 0.90318 0.0
C51 C 0.90833 0.05593 0.90337 0.0
O52 O 0.1365 0.15896 0.92595 0.0
C53 C 0.07592 0.09731 0.85442 0.0
O54 O 0.98792 0.09138 0.85343 0.0
H55 H 0.07514 0.95809 0.88797 0.0
H56 H 0.87272 0.10861 0.90899 0.0
N57 N 0.98976 0.22752 0.89239 0.0
N58 N 0.95058 0.35025 0.88909 0.0
C59 C 0.0187 0.3021 0.89532 0.0
C60 C 0.90062 0.22839 0.88387 0.0
C61 C 0.8762 0.3038 0.88192 0.0
C62 C 0.10157 0.19838 0.94135 0.0
O63 O 0.02269 0.23199 0.9366 0.0
H64 H 0.08882 0.32004 0.90139 0.0
H65 H 0.85666 0.17747 0.87891 0.0
O66 O 0.12675 0.11544 0.873 0.0
H67 H 0.82268 0.96332 0.90802 0.0
H68 H 0.80866 0.32272 0.87571 0.0
Cu69 Cu 0.21852 0.19497 0.38856 0.0
N70 N 0.20699 0.13019 0.36121 0.0
N71 N 0.19958 0.09335 0.32546 0.0
C72 C 0.20758 0.15401 0.34251 0.0
C73 C 0.1938 0.02893 0.33392 0.0
C74 C 0.19857 0.05181 0.35593 0.0
O75 O 0.32463 0.26136 0.39067 0.0
C76 C 0.03468 0.19887 0.38814 0.0
O77 O 0.05146 0.1235 0.38385 0.0
H78 H 0.21471 0.21475 0.34156 0.0
H79 H 0.19546 1.01401 0.36726 0.0
N80 N 0.24367 0.13495 0.41017 0.0
N81 N 0.24626 0.09636 0.4416 0.0
C82 C 0.20825 0.14476 0.42831 0.0
C83 C 0.30617 0.07846 0.41188 0.0
C84 C 0.30792 0.05452 0.43118 0.0
C85 C 0.38734 0.27565 0.40741 0.0
O86 O 0.37221 0.26026 0.42566 0.0
H87 H 0.15652 0.18757 0.43173 0.0
H88 H 0.34941 0.05795 0.40023 0.0
O89 O 0.10099 0.24644 0.39081 0.0
H90 H 0.18477 0.96949 0.32484 0.0
H91 H 0.35374 1.01155 0.4373 0.0
C92 C 0.86838 0.45303 0.13278 0.0
C93 C 0.92208 0.39699 0.12202 0.0
C94 C 0.87095 0.53223 0.13123 0.0
C95 C 0.92877 0.5565 0.11863 0.0
C96 C 0.98381 0.50052 0.10787 0.0
C97 C 0.97977 0.42157 0.10968 0.0
C98 C 0.8113 0.58996 0.14301 0.0
C99 C 0.0463 0.52389 0.09425 0.0
C100 C 0.86691 0.74575 0.09828 0.0
C101 C 0.92552 0.80039 0.11324 0.0
C102 C 0.86829 0.66621 0.09966 0.0
C103 C 0.9299 0.64019 0.11639 0.0
C104 C 0.99035 0.69465 0.13134 0.0
C105 C 0.98741 0.77397 0.1296 0.0
C106 C 0.8029 0.61012 0.08333 0.0
C107 C 0.05707 0.66937 0.14942 0.0
H108 H 0.82474 0.43517 0.14264 0.0
H109 H 0.02075 0.37886 0.10109 0.0
H110 H 0.85361 0.63736 0.15429 0.0
H111 H 0.76375 0.61773 0.13127 0.0
H112 H 0.77098 0.56196 0.15237 0.0
H113 H 0.08628 0.47374 0.08733 0.0
H114 H 1.00603 0.54858 0.08079 0.0
H115 H 0.09411 0.57031 0.10412 0.0
H116 H 0.81996 0.76509 0.08537 0.0
H117 H 0.03228 0.81558 0.14138 0.0
H118 H 0.75687 0.58378 0.0917 0.0
H119 H 0.84081 0.56153 0.07501 0.0
H120 H 0.76091 0.63918 0.07097 0.0
H121 H 0.01974 0.64628 0.16026 0.0
H122 H 0.10191 0.7182 0.1592 0.0
H123 H 0.10014 0.6213 0.14273 0.0
C124 C 0.51888 0.20253 0.63688 0.0
C125 C 0.46567 0.23971 0.65163 0.0
C126 C 0.61163 0.21944 0.63985 0.0
C127 C 0.65258 0.275 0.65811 0.0
C128 C 0.59728 0.31866 0.67183 0.0
C129 C 0.50395 0.30039 0.66844 0.0
C130 C 0.6672 0.17197 0.62457 0.0
C131 C 0.63771 0.37993 0.6911 0.0
C132 C 0.88553 0.20183 0.67826 0.0
C133 C 0.93994 0.23902 0.66767 0.0
C134 C 0.79301 0.21889 0.67698 0.0
C135 C 0.75347 0.27465 0.66473 0.0
C136 C 0.8099 0.31812 0.65579 0.0
C137 C 0.90297 0.29968 0.65734 0.0
C138 C 0.73615 0.17156 0.68704 0.0
C139 C 0.77097 0.37952 0.64313 0.0
H140 H 0.48894 0.15667 0.62358 0.0
H141 H 0.46281 0.32969 0.6798 0.0
H142 H 0.71286 0.21058 0.61945 0.0
H143 H 0.71048 0.13031 0.63297 0.0
H144 H 0.62381 0.13794 0.60989 0.0
H145 H 0.58529 0.42161 0.69656 0.0
H146 H 0.66771 0.35093 0.70468 0.0
H147 H 0.69272 0.41316 0.68736 0.0
H148 H 0.91435 0.15596 0.68664 0.0
H149 H 0.94497 0.32899 0.64924 0.0
H150 H 0.69177 0.13045 0.67408 0.0
H151 H 0.6915 0.21038 0.6964 0.0
H152 H 0.77858 0.13696 0.69795 0.0
H153 H 0.74059 0.35061 0.6264 0.0
H154 H 0.82432 0.42099 0.64222 0.0
H155 H 0.7165 0.41296 0.65042 0.0
C156 C 0.02303 0.48021 0.90441 0.0
C157 C 0.95573 0.43336 0.88958 0.0
C158 C 0.02667 0.56148 0.90547 0.0
C159 C 0.96126 0.59694 0.89141 0.0
C160 C 0.89414 0.54989 0.87618 0.0
C161 C 0.89237 0.46887 0.87541 0.0
C162 C 0.09945 0.60962 0.9219 0.0
C163 C 0.82318 0.58533 0.86089 0.0
C164 C 0.90628 0.81225 0.90809 0.0
C165 C 0.95299 0.84763 0.89541 0.0
C166 C 0.90921 0.73102 0.90709 0.0
C167 C 0.96054 0.68359 0.89315 0.0
C168 C 1.00885 0.71877 0.88049 0.0
C169 C 1.00434 0.80026 0.88174 0.0
C170 C 0.8567 0.69587 0.92086 0.0
C171 C 0.06449 0.6702 0.86546 0.0
H172 H 0.07176 0.45369 0.91555 0.0
H173 H 0.84122 0.43327 0.86361 0.0
H174 H 0.13804 0.64436 0.9138 0.0
H175 H 0.0676 0.6517 0.93367 0.0
H176 H 0.14792 0.57279 0.93092 0.0
H177 H 0.77708 0.54044 0.84961 0.0
H178 H 0.78163 0.62773 0.87025 0.0
H179 H 0.85645 0.61813 0.85127 0.0
H180 H 0.86789 0.84811 0.91903 0.0
H181 H 0.03997 0.82668 0.87172 0.0
H182 H 0.9033 0.66318 0.93152 0.0
H183 H 0.80554 0.65342 0.91037 0.0
H184 H 0.82107 0.74091 0.93108 0.0
H185 H 0.1153 0.63553 0.87457 0.0
H186 H 0.10068 0.70671 0.85729 0.0
H187 H 0.0197 0.62804 0.85292 0.0
C188 C 0.50367 0.29352 0.38498 0.0
C189 C 0.48225 0.29165 0.40526 0.0
C190 C 0.59467 0.29259 0.38206 0.0
C191 C 0.66627 0.28925 0.39978 0.0
C192 C 0.64515 0.29342 0.42058 0.0
C193 C 0.55373 0.29482 0.42306 0.0
C194 C 0.61375 0.28925 0.35965 0.0
C195 C 0.71881 0.28993 0.43996 0.0
C196 C 0.87331 0.16789 0.38845 0.0
C197 C 0.94057 0.22483 0.39056 0.0
C198 C 0.78439 0.18846 0.39118 0.0
C199 C 0.76066 0.26839 0.39605 0.0
C200 C 0.82753 0.3266 0.3979 0.0
C201 C 0.91687 0.30417 0.3952 0.0
C202 C 0.71601 0.12411 0.38914 0.0
C203 C 0.80483 0.41241 0.40291 0.0
H204 H 0.44933 0.29156 0.3711 0.0
H205 H 0.53844 0.29398 0.43886 0.0
H206 H 0.67111 0.32876 0.36015 0.0
H207 H 0.63368 0.22886 0.35295 0.0
H208 H 0.55334 0.30562 0.34849 0.0
H209 H 0.69288 0.30479 0.45537 0.0
H210 H 0.74712 0.22989 0.4385 0.0
H211 H 0.7754 0.33052 0.4407 0.0
H212 H 0.8902 0.10635 0.38485 0.0
H213 H 0.96806 0.34866 0.39684 0.0
H214 H 0.65637 0.13006 0.3764 0.0
H215 H 0.69104 0.12907 0.40455 0.0
H216 H 0.74499 0.06477 0.38506 0.0
H217 H 0.74559 0.42566 0.39096 0.0
H218 H 0.86279 0.45046 0.40278 0.0
H219 H 0.78539 0.42731 0.41906 0.0
C220 C 0.10169 0.24422 0.98061 0.0
C221 C 0.1367 0.19349 0.96428 0.0
C222 C 0.11315 0.22919 1.00161 0.0
C223 C 0.16129 0.16183 1.00651 0.0
C224 C 0.20573 0.11548 0.9908 0.0
C225 C 0.19263 0.13165 0.96977 0.0
C226 C 0.06534 0.28097 0.01783 0.0
C227 C 0.26027 0.04473 0.99556 0.0
C228 C 0.17608 0.14187 0.06523 0.0
C229 C 0.09611 0.09938 0.06353 0.0
C230 C 0.20276 0.15835 0.04661 0.0
C231 C 0.14778 0.13204 0.02599 0.0
C232 C 0.07084 0.08433 0.02422 0.0
C233 C 0.04631 0.06859 0.04294 0.0
C234 C 0.28647 0.20777 0.0492 0.0
C235 C 1.01025 0.05427 1.00264 0.0
H236 H 0.05983 0.29305 0.97662 0.0
H237 H 0.22072 0.09247 0.95732 0.0
H238 H 1.00579 0.24911 0.02003 0.0
H239 H 0.11115 0.29587 0.03379 0.0
H240 H 0.04101 0.33618 1.01255 0.0
H241 H 0.30722 1.02656 0.98401 0.0
H242 H 0.30029 0.05648 1.01227 0.0
H243 H 0.21339 0.99515 0.99417 0.0
H244 H 0.21512 0.16564 0.0811 0.0
H245 H 0.98528 0.0345 0.04145 0.0
H246 H 0.26611 0.26948 0.04913 0.0
H247 H 0.3234 0.18815 0.03566 0.0
H248 H 0.33343 0.20602 0.06471 0.0
H249 H 0.97665 0.10429 0.99603 0.0
H250 H 0.95667 1.01362 1.0039 0.0
H251 H 0.05106 1.02326 0.99087 0.0
C252 C 0.25752 0.02872 0.4726 0.0
C253 C 0.22895 0.09316 0.4629 0.0
C254 C 0.2448 1.02628 0.4936 0.0
C255 C 0.20119 0.08923 0.50523 0.0
C256 C 0.17015 0.15355 0.49544 0.0
C257 C 0.18487 0.15501 0.47453 0.0
C258 C 0.27932 0.9567 0.50347 0.0
C259 C 0.1225 0.22155 0.50721 0.0
C260 C 0.10406 0.05387 0.55334 0.0
C261 C 0.17079 0.08818 0.57084 0.0
C262 C 0.11258 0.05429 0.53192 0.0
C263 C 0.1904 0.08883 0.52787 0.0
C264 C 0.25833 0.12297 0.54549 0.0
C265 C 0.2474 0.12266 0.56673 0.0
C266 C 0.03801 1.01829 0.51362 0.0
C267 C 0.34297 0.15938 0.54191 0.0
H268 H 0.29005 0.97981 0.46381 0.0
H269 H 0.1631 0.20562 0.46755 0.0
H270 H 0.33028 0.97636 0.51842 0.0
H271 H 0.22266 0.92862 0.50815 0.0
H272 H 0.31114 0.91214 0.49226 0.0
H273 H 0.09811 0.26515 0.49696 0.0
H274 H 0.06352 0.20016 0.51266 0.0
H275 H 0.1695 0.25141 0.52186 0.0
H276 H 0.04433 1.02789 0.55645 0.0
H277 H 0.29979 0.14822 0.58017 0.0
H278 H 0.06587 0.97032 0.50259 0.0
H279 H 1.01013 0.0628 0.50399 0.0
H280 H 0.98153 0.9944 0.51948 0.0
H281 H 0.37983 0.11529 0.53176 0.0
H282 H 0.38982 0.18271 0.55733 0.0
H283 H 0.32425 0.20787 0.53307 0.0
C284 C 0.16409 0.16469 0.29513 0.0
C285 C 0.1941 0.09663 0.30289 0.0
C286 C 0.15167 0.16663 0.27299 0.0
C287 C 0.16918 0.0988 0.25812 0.0
C288 C 0.2034 0.0311 0.26592 0.0
C289 C 0.21555 0.03087 0.28816 0.0
C290 C 0.11512 0.24011 0.26539 0.0
C291 C 0.22308 0.95753 0.25065 0.0
C292 C 0.02182 0.07115 0.20222 0.0
C293 C 0.08034 0.09327 0.18971 0.0
C294 C 0.05059 0.07181 0.22431 0.0
C295 C 0.14043 0.09548 0.23438 0.0
C296 C 0.20069 0.1169 0.22186 0.0
C297 C 0.16999 0.11534 0.1996 0.0
C298 C 0.98407 0.04794 0.23693 0.0
C299 C 0.29693 0.14258 0.23205 0.0
H300 H 0.14669 0.21573 0.30622 0.0
H301 H 0.2407 0.97856 0.29395 0.0
H302 H 0.15593 0.2561 0.25414 0.0
H303 H 0.04431 0.22954 0.25641 0.0
H304 H 0.11518 0.29045 0.27905 0.0
H305 H 0.25868 0.913 0.25938 0.0
H306 H 0.15833 0.93164 0.24072 0.0
H307 H 0.26529 0.97127 0.23939 0.0
H308 H 0.9526 0.05335 0.19477 0.0
H309 H 0.21561 0.13255 0.19007 0.0
H310 H 0.97305 0.09756 0.24995 0.0
H311 H 1.01214 0.99885 0.24478 0.0
H312 H 0.91719 0.02945 0.22658 0.0
H313 H 0.2963 0.19641 0.24458 0.0
H314 H 0.33633 0.15461 0.22001 0.0
H315 H 0.33244 0.09684 0.24026 0.0
C316 C 0.2356 1.01547 0.73923 0.0
C317 C 0.23694 0.08614 0.73186 0.0
C318 C 0.22033 1.01432 0.76012 0.0
C319 C 0.20493 0.08541 0.774 0.0
C320 C 0.20963 0.15709 0.76702 0.0
C321 C 0.22612 0.15661 0.74616 0.0
C322 C 0.21664 0.93662 0.76697 0.0
C323 C 0.19315 0.23426 0.78123 0.0
C324 C 0.05025 0.08071 0.81425 0.0
C325 C 0.11166 0.08982 0.83402 0.0
C326 C 0.08006 0.07841 0.79471 0.0
C327 C 0.17405 0.08444 0.79474 0.0
C328 C 0.23695 0.09168 0.81454 0.0
C329 C 0.20498 0.09476 0.83399 0.0
C330 C 1.01042 0.07127 0.77405 0.0
C331 C 0.33778 0.0972 0.81518 0.0
H332 H 0.24334 0.96049 0.72846 0.0
H333 H 0.22915 0.21176 0.741 0.0
H334 H 0.25845 0.93883 0.7833 0.0
H335 H 0.14563 0.92369 0.76793 0.0
H336 H 0.24096 0.88778 0.75549 0.0
H337 H 0.20606 0.28514 0.77414 0.0
H338 H 0.12161 0.23667 0.78365 0.0
H339 H 0.23725 0.23983 0.7974 0.0
H340 H 0.97797 0.0769 0.814 0.0
H341 H 0.25292 0.10165 0.84916 0.0
H342 H 0.02479 1.01912 0.76217 0.0
H343 H 1.01447 0.12331 0.76671 0.0
H344 H 0.93991 0.06618 0.77675 0.0
H345 H 0.36004 0.04678 0.80387 0.0
H346 H 0.37809 0.09833 0.83163 0.0
H347 H 0.35321 0.15112 0.80975 0.0
loop_
_geom_bond_atom_site_label_1
_geom_bond_atom_site_label_2
_geom_bond_distance
_geom_bond_site_symmetry_2
_ccdc_geom_bond_type
Cu0 N1 1.999 1_545 S
Cu0 O6 1.974 . S
Cu0 N11 1.985 . S
Cu0 O20 1.959 . S
N1 Cu0 1.999 1_565 S
N1 C3 1.263 . S
N1 C5 1.389 . S
N2 C3 1.358 . S
N2 C4 1.400 . S
C3 N1 1.263 . S
C3 N2 1.358 . S
C3 H9 0.930 . S
C4 N2 1.400 . S
C4 C5 1.351 . S
C4 H21 0.930 . S
C5 N1 1.389 . S
C5 C4 1.351 . S
C5 H10 0.930 . S
O6 Cu0 1.974 . S
O6 C16 1.282 . S
C7 O8 1.261 . S
C7 O20 1.251 . S
O8 C7 1.261 . S
H9 C3 0.930 . S
H10 C5 0.930 . S
N11 Cu0 1.985 . S
N11 C13 1.335 . S
N11 C14 1.390 . S
N12 C13 1.345 . S
N12 C15 1.336 . S
C13 N11 1.335 . S
C13 N12 1.345 . S
C13 H18 0.930 . S
C14 N11 1.390 . S
C14 C15 1.346 . S
C14 H19 0.930 . S
C15 N12 1.336 . S
C15 C14 1.346 . S
C15 H22 0.929 . S
C16 O6 1.282 . S
C16 O17 1.216 . S
O17 C16 1.216 . S
H18 C13 0.930 . S
H19 C14 0.930 . S
O20 Cu0 1.959 . S
O20 C7 1.251 . S
H21 C4 0.930 . S
H22 C15 0.929 . S
Cu23 N24 1.999 . S
Cu23 O29 1.974 1_455 S
Cu23 N34 1.985 . S
Cu23 O43 1.959 . S
N24 Cu23 1.999 . S
N24 C26 1.263 . S
N24 C28 1.389 . S
N25 C26 1.358 . S
N25 C27 1.400 . S
C26 N24 1.263 . S
C26 N25 1.358 . S
C26 H32 0.930 1_455 S
C27 N25 1.400 . S
C27 C28 1.351 . S
C27 H44 0.930 . S
C28 N24 1.389 . S
C28 C27 1.351 . S
C28 H33 0.930 . S
O29 Cu23 1.974 1_655 S
O29 C39 1.282 . S
C30 O31 1.261 . S
C30 O43 1.251 . S
O31 C30 1.261 . S
H32 C26 0.930 1_655 S
H33 C28 0.930 . S
N34 Cu23 1.985 . S
N34 C36 1.335 . S
N34 C37 1.390 1_455 S
N35 C36 1.345 . S
N35 C38 1.336 1_455 S
C36 N34 1.335 . S
C36 N35 1.345 . S
C36 H41 0.930 . S
C37 N34 1.390 1_655 S
C37 C38 1.346 . S
C37 H42 0.930 . S
C38 N35 1.336 1_655 S
C38 C37 1.346 . S
C38 H45 0.929 . S
C39 O29 1.282 . S
C39 O40 1.216 . S
O40 C39 1.216 . S
H41 C36 0.930 . S
H42 C37 0.930 . S
O43 Cu23 1.959 . S
O43 C30 1.251 . S
H44 C27 0.930 . S
H45 C38 0.929 . S
Cu46 N47 1.999 . S
Cu46 O52 1.974 . S
Cu46 N57 1.985 . S
Cu46 O66 1.959 . S
N47 Cu46 1.999 . S
N47 C49 1.263 1_545 S
N47 C51 1.389 1_545 S
N48 C49 1.358 . S
N48 C50 1.400 . S
C49 N47 1.263 1_565 S
C49 N48 1.358 . S
C49 H55 0.930 1_455 S
C50 N48 1.400 . S
C50 C51 1.351 . S
C50 H67 0.930 . S
C51 N47 1.389 1_565 S
C51 C50 1.351 . S
C51 H56 0.930 . S
O52 Cu46 1.974 . S
O52 C62 1.282 1_455 S
C53 O54 1.261 . S
C53 O66 1.251 1_655 S
O54 C53 1.261 . S
H55 C49 0.930 1_655 S
H56 C51 0.930 . S
N57 Cu46 1.985 . S
N57 C59 1.335 . S
N57 C60 1.390 1_455 S
N58 C59 1.345 . S
N58 C61 1.336 1_455 S
C59 N57 1.335 . S
C59 N58 1.345 . S
C59 H64 0.930 . S
C60 N57 1.390 1_655 S
C60 C61 1.346 . S
C60 H65 0.930 . S
C61 N58 1.336 1_655 S
C61 C60 1.346 . S
C61 H68 0.929 . S
C62 O52 1.282 1_655 S
C62 O63 1.216 . S
O63 C62 1.216 . S
H64 C59 0.930 . S
H65 C60 0.930 . S
O66 Cu46 1.959 . S
O66 C53 1.251 1_455 S
H67 C50 0.930 . S
H68 C61 0.929 . S
Cu69 N70 1.999 . S
Cu69 O75 1.974 . S
Cu69 N80 1.985 . S
Cu69 O89 1.959 1_455 S
N70 Cu69 1.999 . S
N70 C72 1.263 . S
N70 C74 1.389 . S
N71 C72 1.358 . S
N71 C73 1.400 . S
C72 N70 1.263 . S
C72 N71 1.358 . S
C72 H78 0.930 . S
C73 N71 1.400 . S
C73 C74 1.351 . S
C73 H90 0.930 . S
C74 N70 1.389 . S
C74 C73 1.351 . S
C74 H79 0.930 1_455 S
O75 Cu69 1.974 . S
O75 C85 1.282 . S
C76 O77 1.261 1_545 S
C76 O89 1.251 . S
O77 C76 1.261 1_565 S
H78 C72 0.930 . S
H79 C74 0.930 1_655 S
N80 Cu69 1.985 . S
N80 C82 1.335 . S
N80 C83 1.390 . S
N81 C82 1.345 . S
N81 C84 1.336 . S
C82 N80 1.335 . S
C82 N81 1.345 . S
C82 H87 0.930 . S
C83 N80 1.390 . S
C83 C84 1.346 . S
C83 H88 0.930 . S
C84 N81 1.336 . S
C84 C83 1.346 . S
C84 H91 0.929 . S
C85 O75 1.282 . S
C85 O86 1.216 1_545 S
O86 C85 1.216 1_565 S
H87 C82 0.930 . S
H88 C83 0.930 . S
O89 Cu69 1.959 1_655 S
O89 C76 1.251 . S
H90 C73 0.930 . S
H91 C84 0.929 . S
C92 C93 1.391 . S
C92 C94 1.394 . S
C92 H108 0.931 . S
C93 C92 1.391 . S
C93 C97 1.376 . S
C94 C92 1.394 . S
C94 C95 1.369 . S
C94 C98 1.531 . S
C95 C94 1.369 . S
C95 C96 1.410 . S
C95 C103 1.503 . S
C96 C95 1.410 . S
C96 C97 1.392 . S
C96 C99 1.511 . S
C97 C93 1.376 . S
C97 C96 1.392 . S
C97 H109 0.929 . S
C98 C94 1.531 . S
C98 H110 0.960 . S
C98 H111 0.962 . S
C98 H112 0.960 . S
C99 C96 1.511 . S
C99 H113 0.961 . S
C99 H114 0.961 . S
C99 H115 0.961 . S
C100 C101 1.370 . S
C100 C102 1.363 . S
C100 H116 0.931 . S
C101 C100 1.370 . S
C101 C105 1.408 . S
C102 C100 1.363 . S
C102 C103 1.370 . S
C102 C106 1.524 . S
C103 C95 1.503 . S
C103 C102 1.370 . S
C103 C104 1.403 . S
C104 C103 1.403 . S
C104 C105 1.404 . S
C104 C107 1.539 . S
C105 C101 1.408 . S
C105 C104 1.404 . S
C105 H117 0.930 . S
C106 C102 1.524 . S
C106 H118 0.956 . S
C106 H119 0.961 . S
C106 H120 0.961 . S
C107 C104 1.539 . S
C107 H121 0.958 . S
C107 H122 0.961 . S
C107 H123 0.960 . S
H108 C92 0.931 . S
H109 C97 0.929 . S
H110 C98 0.960 . S
H111 C98 0.962 . S
H112 C98 0.960 . S
H113 C99 0.961 . S
H114 C99 0.961 . S
H115 C99 0.961 . S
H116 C100 0.931 . S
H117 C105 0.930 . S
H118 C106 0.956 . S
H119 C106 0.961 . S
H120 C106 0.961 . S
H121 C107 0.958 . S
H122 C107 0.961 . S
H123 C107 0.960 . S
C124 C125 1.391 . S
C124 C126 1.394 . S
C124 H140 0.931 . S
C125 C124 1.391 . S
C125 C129 1.376 . S
C126 C124 1.394 . S
C126 C127 1.369 . S
C126 C130 1.531 . S
C127 C126 1.369 . S
C127 C128 1.410 . S
C127 C135 1.503 . S
C128 C127 1.410 . S
C128 C129 1.392 . S
C128 C131 1.511 . S
C129 C125 1.376 . S
C129 C128 1.392 . S
C129 H141 0.929 . S
C130 C126 1.531 . S
C130 H142 0.960 . S
C130 H143 0.962 . S
C130 H144 0.960 . S
C131 C128 1.511 . S
C131 H145 0.961 . S
C131 H146 0.961 . S
C131 H147 0.961 . S
C132 C133 1.370 . S
C132 C134 1.363 . S
C132 H148 0.931 . S
C133 C132 1.370 . S
C133 C137 1.408 . S
C134 C132 1.363 . S
C134 C135 1.370 . S
C134 C138 1.524 . S
C135 C127 1.503 . S
C135 C134 1.370 . S
C135 C136 1.403 . S
C136 C135 1.403 . S
C136 C137 1.404 . S
C136 C139 1.539 . S
C137 C133 1.408 . S
C137 C136 1.404 . S
C137 H149 0.930 . S
C138 C134 1.524 . S
C138 H150 0.956 . S
C138 H151 0.961 . S
C138 H152 0.956 1_545 S
C139 C136 1.539 . S
C139 H153 0.958 . S
C139 H154 0.961 . S
C139 H155 0.960 . S
H140 C124 0.931 . S
H141 C129 0.929 . S
H142 C130 0.960 . S
H143 C130 0.962 . S
H144 C130 0.960 . S
H145 C131 0.961 . S
H146 C131 0.961 . S
H147 C131 0.961 . S
H148 C132 0.931 . S
H149 C137 0.930 . S
H150 C138 0.956 . S
H151 C138 0.961 . S
H152 C138 0.956 1_565 S
H153 C139 0.958 . S
H154 C139 0.961 . S
H155 C139 0.960 . S
C156 C157 1.391 . S
C156 C158 1.394 . S
C156 H172 0.931 . S
C157 C156 1.391 . S
C157 C161 1.376 1_455 S
C158 C156 1.394 . S
C158 C159 1.369 . S
C158 C162 1.531 . S
C159 C158 1.369 . S
C159 C160 1.410 1_455 S
C159 C167 1.503 . S
C160 C159 1.410 1_655 S
C160 C161 1.392 . S
C160 C163 1.511 . S
C161 C157 1.376 1_655 S
C161 C160 1.392 . S
C161 H173 0.929 . S
C162 C158 1.531 . S
C162 H174 0.960 . S
C162 H175 0.962 . S
C162 H176 0.960 . S
C163 C160 1.511 . S
C163 H177 0.961 . S
C163 H178 0.961 . S
C163 H179 0.961 . S
C164 C165 1.370 1_655 S
C164 C166 1.363 . S
C164 H180 0.931 . S
C165 C164 1.370 1_455 S
C165 C169 1.408 . S
C166 C164 1.363 . S
C166 C167 1.370 1_655 S
C166 C170 1.524 . S
C167 C159 1.503 . S
C167 C166 1.370 1_455 S
C167 C168 1.403 . S
C168 C167 1.403 . S
C168 C169 1.404 . S
C168 C171 1.539 . S
C169 C165 1.408 . S
C169 C168 1.404 . S
C169 H181 0.930 . S
C170 C166 1.524 . S
C170 H182 0.956 . S
C170 H183 0.961 . S
C170 H184 0.961 . S
C171 C168 1.539 . S
C171 H185 0.958 . S
C171 H186 0.961 . S
C171 H187 0.960 . S
H172 C156 0.931 . S
H173 C161 0.929 . S
H174 C162 0.960 . S
H175 C162 0.962 . S
H176 C162 0.960 . S
H177 C163 0.961 . S
H178 C163 0.961 . S
H179 C163 0.961 . S
H180 C164 0.931 . S
H181 C169 0.930 . S
H182 C170 0.956 . S
H183 C170 0.961 . S
H184 C170 0.961 . S
H185 C171 0.958 . S
H186 C171 0.961 . S
H187 C171 0.960 . S
C188 C189 1.391 . S
C188 C190 1.394 . S
C188 H204 0.931 . S
C189 C188 1.391 . S
C189 C193 1.376 . S
C190 C188 1.394 . S
C190 C191 1.369 . S
C190 C194 1.531 . S
C191 C190 1.369 . S
C191 C192 1.410 . S
C191 C199 1.503 . S
C192 C191 1.410 . S
C192 C193 1.392 . S
C192 C195 1.511 . S
C193 C189 1.376 . S
C193 C192 1.392 . S
C193 H205 0.929 . S
C194 C190 1.531 . S
C194 H206 0.960 . S
C194 H207 0.962 . S
C194 H208 0.960 . S
C195 C192 1.511 . S
C195 H209 0.961 . S
C195 H210 0.961 . S
C195 H211 0.961 . S
C196 C197 1.370 1_565 S
C196 C198 1.363 . S
C196 H212 0.931 . S
C197 C196 1.370 1_545 S
C197 C201 1.408 . S
C198 C196 1.363 . S
C198 C199 1.370 1_565 S
C198 C202 1.524 . S
C199 C191 1.503 . S
C199 C198 1.370 1_545 S
C199 C200 1.403 . S
C200 C199 1.403 . S
C200 C201 1.404 . S
C200 C203 1.539 . S
C201 C197 1.408 . S
C201 C200 1.404 . S
C201 H213 0.930 . S
C202 C198 1.524 . S
C202 H214 0.956 . S
C202 H215 0.961 . S
C202 H216 0.961 . S
C203 C200 1.539 . S
C203 H217 0.958 . S
C203 H218 0.961 . S
C203 H219 0.960 . S
H204 C188 0.931 . S
H205 C193 0.929 . S
H206 C194 0.960 . S
H207 C194 0.962 . S
H208 C194 0.960 . S
H209 C195 0.961 . S
H210 C195 0.961 . S
H211 C195 0.961 . S
H212 C196 0.931 . S
H213 C201 0.930 . S
H214 C202 0.956 . S
H215 C202 0.961 . S
H216 C202 0.961 . S
H217 C203 0.958 . S
H218 C203 0.961 . S
H219 C203 0.960 . S
C220 C221 1.384 1_655 S
C220 C222 1.394 . S
C220 H236 0.931 . S
C221 C220 1.384 1_455 S
C221 C225 1.383 . S
C222 C220 1.394 . S
C222 C223 1.369 1_655 S
C222 C226 1.531 . S
C223 C222 1.369 1_455 S
C223 C224 1.410 . S
C223 C231 1.503 1_556 S
C224 C223 1.410 . S
C224 C225 1.392 . S
C224 C227 1.511 . S
C225 C221 1.383 . S
C225 C224 1.392 . S
C225 H237 0.929 . S
C226 C222 1.531 . S
C226 H238 0.960 1_556 S
C226 H239 0.962 1_556 S
C226 H240 0.960 . S
C227 C224 1.511 . S
C227 H241 0.961 . S
C227 H242 0.961 . S
C227 H243 0.961 . S
C228 C229 1.370 . S
C228 C230 1.363 . S
C228 H244 0.931 . S
C229 C228 1.370 . S
C229 C233 1.408 . S
C230 C228 1.363 . S
C230 C231 1.370 . S
C230 C234 1.524 . S
C231 C223 1.503 1_554 S
C231 C230 1.370 . S
C231 C232 1.403 . S
C232 C231 1.403 . S
C232 C233 1.404 . S
C232 C235 1.539 1_545 S
C233 C229 1.408 . S
C233 C232 1.404 . S
C233 H245 0.930 1_545 S
C234 C230 1.524 . S
C234 H246 0.956 . S
C234 H247 0.961 . S
C234 H248 0.961 . S
C235 C232 1.539 1_565 S
C235 H249 0.958 1_455 S
C235 H250 0.961 . S
C235 H251 0.960 1_554 S
H236 C220 0.931 . S
H237 C225 0.929 . S
H238 C226 0.960 1_554 S
H239 C226 0.962 1_554 S
H240 C226 0.960 . S
H241 C227 0.961 . S
H242 C227 0.961 . S
H243 C227 0.961 . S
H244 C228 0.931 . S
H245 C233 0.930 1_565 S
H246 C234 0.956 . S
H247 C234 0.961 . S
H248 C234 0.961 . S
H249 C235 0.958 1_655 S
H250 C235 0.961 . S
H251 C235 0.960 1_556 S
C252 C253 1.391 . S
C252 C254 1.394 . S
C252 H268 0.931 1_545 S
C253 C252 1.391 . S
C253 C257 1.376 . S
C254 C252 1.394 . S
C254 C255 1.369 . S
C254 C258 1.531 1_545 S
C255 C254 1.369 . S
C255 C256 1.410 . S
C255 C263 1.503 . S
C256 C255 1.410 . S
C256 C257 1.392 . S
C256 C259 1.511 . S
C257 C253 1.376 . S
C257 C256 1.392 . S
C257 H269 0.929 . S
C258 C254 1.531 1_565 S
C258 H270 0.960 . S
C258 H271 0.962 . S
C258 H272 0.960 . S
C259 C256 1.511 . S
C259 H273 0.961 . S
C259 H274 0.961 . S
C259 H275 0.961 . S
C260 C261 1.370 . S
C260 C262 1.363 . S
C260 H276 0.931 1_455 S
C261 C260 1.370 . S
C261 C265 1.408 . S
C262 C260 1.363 . S
C262 C263 1.370 . S
C262 C266 1.524 1_455 S
C263 C255 1.503 . S
C263 C262 1.370 . S
C263 C264 1.403 . S
C264 C263 1.403 . S
C264 C265 1.404 . S
C264 C267 1.539 . S
C265 C261 1.408 . S
C265 C264 1.404 . S
C265 H277 0.930 . S
C266 C262 1.524 1_655 S
C266 H278 0.956 . S
C266 H279 0.961 . S
C266 H280 0.961 . S
C267 C264 1.539 . S
C267 H281 0.958 . S
C267 H282 0.961 . S
C267 H283 0.960 . S
H268 C252 0.931 1_565 S
H269 C257 0.929 . S
H270 C258 0.960 . S
H271 C258 0.962 . S
H272 C258 0.960 . S
H273 C259 0.961 . S
H274 C259 0.961 . S
H275 C259 0.961 . S
H276 C260 0.931 1_655 S
H277 C265 0.930 . S
H278 C266 0.956 . S
H279 C266 0.961 . S
H280 C266 0.961 . S
H281 C267 0.958 . S
H282 C267 0.961 . S
H283 C267 0.960 . S
C284 C285 1.391 . S
C284 C286 1.394 . S
C284 H300 0.931 . S
C285 C284 1.391 . S
C285 C289 1.376 . S
C286 C284 1.394 . S
C286 C287 1.369 . S
C286 C290 1.531 . S
C287 C286 1.369 . S
C287 C288 1.410 . S
C287 C295 1.503 . S
C288 C287 1.410 . S
C288 C289 1.392 . S
C288 C291 1.511 . S
C289 C285 1.376 . S
C289 C288 1.392 . S
C289 H301 0.929 . S
C290 C286 1.531 . S
C290 H302 0.960 . S
C290 H303 0.962 1_455 S
C290 H304 0.960 1_455 S
C291 C288 1.511 . S
C291 H305 0.961 1_545 S
C291 H306 0.961 . S
C291 H307 0.961 . S
C292 C293 1.370 . S
C292 C294 1.363 . S
C292 H308 0.931 1_545 S
C293 C292 1.370 . S
C293 C297 1.408 . S
C294 C292 1.363 . S
C294 C295 1.370 . S
C294 C298 1.524 1_545 S
C295 C287 1.503 . S
C295 C294 1.370 . S
C295 C296 1.403 . S
C296 C295 1.403 . S
C296 C297 1.404 . S
C296 C299 1.539 . S
C297 C293 1.408 . S
C297 C296 1.404 . S
C297 H309 0.930 . S
C298 C294 1.524 1_565 S
C298 H310 0.956 . S
C298 H311 0.961 . S
C298 H312 0.961 . S
C299 C296 1.539 . S
C299 H313 0.958 . S
C299 H314 0.961 . S
C299 H315 0.960 . S
H300 C284 0.931 . S
H301 C289 0.929 . S
H302 C290 0.960 . S
H303 C290 0.962 1_655 S
H304 C290 0.960 1_655 S
H305 C291 0.961 1_565 S
H306 C291 0.961 . S
H307 C291 0.961 . S
H308 C292 0.931 1_565 S
H309 C297 0.930 . S
H310 C298 0.956 . S
H311 C298 0.961 . S
H312 C298 0.961 . S
H313 C299 0.958 . S
H314 C299 0.961 . S
H315 C299 0.960 . S
C316 C317 1.391 1_655 S
C316 C318 1.394 . S
C316 H332 0.931 . S
C317 C316 1.391 1_455 S
C317 C321 1.376 . S
C318 C316 1.394 . S
C318 C319 1.369 1_655 S
C318 C322 1.531 . S
C319 C318 1.369 1_455 S
C319 C320 1.410 . S
C319 C327 1.503 1_455 S
C320 C319 1.410 . S
C320 C321 1.392 . S
C320 C323 1.511 . S
C321 C317 1.376 . S
C321 C320 1.392 . S
C321 H333 0.929 . S
C322 C318 1.531 . S
C322 H334 0.960 . S
C322 H335 0.962 . S
C322 H336 0.960 . S
C323 C320 1.511 . S
C323 H337 0.961 . S
C323 H338 0.961 . S
C323 H339 0.961 . S
C324 C325 1.370 . S
C324 C326 1.363 . S
C324 H340 0.931 . S
C325 C324 1.370 . S
C325 C329 1.408 1_655 S
C326 C324 1.363 . S
C326 C327 1.371 . S
C326 C330 1.524 . S
C327 C319 1.503 1_655 S
C327 C326 1.371 . S
C327 C328 1.402 1_655 S
C328 C327 1.402 1_455 S
C328 C329 1.404 . S
C328 C331 1.539 . S
C329 C325 1.408 1_455 S
C329 C328 1.404 . S
C329 H341 0.930 . S
C330 C326 1.524 . S
C330 H342 0.956 . S
C330 H343 0.961 . S
C330 H344 0.961 . S
C331 C328 1.539 . S
C331 H345 0.958 1_545 S
C331 H346 0.961 . S
C331 H347 0.960 . S
H332 C316 0.931 . S
H333 C321 0.929 . S
H334 C322 0.960 . S
H335 C322 0.962 . S
H336 C322 0.960 . S
H337 C323 0.961 . S
H338 C323 0.961 . S
H339 C323 0.961 . S
H340 C324 0.931 . S
H341 C329 0.930 . S
H342 C330 0.956 . S
H343 C330 0.961 . S
H344 C330 0.961 . S
H345 C331 0.958 1_565 S
H346 C331 0.961 . S
H347 C331 0.960 . S
C93 N12 1.436 . S
C101 N2 1.462 . S
C125 C30 1.486 . S
C133 C39 1.484 . S
C157 N58 1.478 . S
C165 N48 1.447 . S
C189 C85 1.487 . S
C197 C76 1.488 . S
C221 C62 1.558 1_455 S
C229 C7 1.548 . S
C253 N81 1.481 . S
C261 N35 1.501 . S
C285 N71 1.434 . S
C293 C16 1.485 . S
C317 N25 1.574 . S
C325 C53 1.583 . S
