# Generated by pormake.
# Topology sof, (5)-cn, num edge types: 1
# Building blocks:
#     Node 0, Type 0, BuildingBlock: XOMCOT_clean_sbu_1, # of connection points: 5
#     Node 1, Type 0, BuildingBlock: XOMCOT_clean_sbu_1, # of connection points: 5
#     Node 2, Type 0, BuildingBlock: XOMCOT_clean_sbu_1, # of connection points: 5
#     Node 3, Type 0, BuildingBlock: XOMCOT_clean_sbu_1, # of connection points: 5
#     Node 4, Type 0, BuildingBlock: XOMCOT_clean_sbu_1, # of connection points: 5
#     Node 5, Type 0, BuildingBlock: XOMCOT_clean_sbu_1, # of connection points: 5
#     Node 6, Type 0, BuildingBlock: XOMCOT_clean_sbu_1, # of connection points: 5
#     Node 7, Type 0, BuildingBlock: XOMCOT_clean_sbu_1, # of connection points: 5
#     Edge 8, Type (0, 0), BuildingBlock: CIFDUS_clean_linker_0, # of connection points: 2
#     Edge 9, Type (0, 0), BuildingBlock: CIFDUS_clean_linker_0, # of connection points: 2
#     Edge 10, Type (0, 0), BuildingBlock: CIFDUS_clean_linker_0, # of connection points: 2
#     Edge 11, Type (0, 0), BuildingBlock: CIFDUS_clean_linker_0, # of connection points: 2
#     Edge 12, Type (0, 0), BuildingBlock: CIFDUS_clean_linker_0, # of connection points: 2
#     Edge 13, Type (0, 0), BuildingBlock: CIFDUS_clean_linker_0, # of connection points: 2
#     Edge 14, Type (0, 0), BuildingBlock: CIFDUS_clean_linker_0, # of connection points: 2
#     Edge 15, Type (0, 0), BuildingBlock: CIFDUS_clean_linker_0, # of connection points: 2
#     Edge 16, Type (0, 0), BuildingBlock: CIFDUS_clean_linker_0, # of connection points: 2
#     Edge 17, Type (0, 0), BuildingBlock: CIFDUS_clean_linker_0, # of connection points: 2
#     Edge 18, Type (0, 0), BuildingBlock: CIFDUS_clean_linker_0, # of connection points: 2
#     Edge 19, Type (0, 0), BuildingBlock: CIFDUS_clean_linker_0, # of connection points: 2
#     Edge 20, Type (0, 0), BuildingBlock: CIFDUS_clean_linker_0, # of connection points: 2
#     Edge 21, Type (0, 0), BuildingBlock: CIFDUS_clean_linker_0, # of connection points: 2
#     Edge 22, Type (0, 0), BuildingBlock: CIFDUS_clean_linker_0, # of connection points: 2
#     Edge 23, Type (0, 0), BuildingBlock: CIFDUS_clean_linker_0, # of connection points: 2
#     Edge 24, Type (0, 0), BuildingBlock: CIFDUS_clean_linker_0, # of connection points: 2
#     Edge 25, Type (0, 0), BuildingBlock: CIFDUS_clean_linker_0, # of connection points: 2
#     Edge 26, Type (0, 0), BuildingBlock: CIFDUS_clean_linker_0, # of connection points: 2
#     Edge 27, Type (0, 0), BuildingBlock: CIFDUS_clean_linker_0, # of connection points: 2
# Relax obj value: 0.152
# Max RMSD: 0.158
# Mean RMSD: 0.158
data_MOF--net-sof--node1-XOMCOT_clean_sbu_1--edge1-CIFDUS_clean_linker_0
_symmetry_space_group_name_H-M    P1
_symmetry_Int_Tables_number       1
_symmetry_cell_setting            triclinic
loop_
_symmetry_equiv_pos_as_xyz
'x, y, z'
_cell_length_a     50.890557
_cell_length_b     15.79633
_cell_length_c     42.684918
_cell_angle_alpha  89.827561
_cell_angle_beta   90.176879
_cell_angle_gamma 89.915151
loop_
_atom_site_label
_atom_site_type_symbol
_atom_site_fract_x
_atom_site_fract_y
_atom_site_fract_z
_atom_type_partial_charge
C0 C 0.10717 0.18356 0.10168 0.0
C1 C 0.10646 0.2707 0.10053 0.0
N2 N 0.08539 0.2975 0.11688 0.0
N3 N 0.0868 0.15566 0.11892 0.0
C4 C 0.0737 0.22623 0.12737 0.0
H5 H 0.12188 0.14331 0.09114 0.0
Co6 Co 0.07836 0.04513 0.12978 0.0
C7 C 0.06708 0.05739 0.19841 0.0
O8 O 0.0778 0.9826 0.20298 0.0
N9 N 0.06887 0.93266 0.13997 0.0
C10 C 0.04359 0.82239 0.15252 0.0
C11 C 0.04609 0.9091 0.15368 0.0
C12 C 0.07933 0.85891 0.12981 0.0
N13 N 0.06452 0.79111 0.13724 0.0
O14 O 0.04485 0.05793 0.10978 0.0
H15 H 0.03153 0.9526 0.16266 0.0
H16 H 0.09688 0.85401 0.116 0.0
O17 O 0.06534 0.08712 0.17052 0.0
C18 C 0.0481 0.0342 0.08145 0.0
O19 O 0.0719 0.01241 0.07266 0.0
N20 N 0.11261 0.03056 0.14559 0.0
C21 C 0.16661 0.00784 0.15551 0.0
C22 C 0.15167 0.05896 0.17574 0.0
C23 C 0.12464 0.07016 0.17021 0.0
C24 C 0.1272 0.98554 0.1249 0.0
C25 C 0.15359 0.96932 0.13027 0.0
H26 H 0.11398 0.11431 0.18464 0.0
H27 H 0.1185 0.96488 0.10316 0.0
H28 H 0.0558 0.22507 0.14093 0.0
H29 H 0.12083 0.31097 0.08932 0.0
H30 H 0.027 0.78584 0.16075 0.0
H31 H 0.16087 0.09308 0.19479 0.0
H32 H 0.16368 0.92871 0.11387 0.0
C33 C 0.38013 0.77819 0.08712 0.0
C34 C 0.38099 0.69116 0.08596 0.0
N35 N 0.40311 0.66474 0.10049 0.0
N36 N 0.40149 0.8066 0.1026 0.0
C37 C 0.41528 0.73621 0.10991 0.0
H38 H 0.36466 0.81785 0.07774 0.0
Co39 Co 0.41036 0.91761 0.11311 0.0
C40 C 0.42424 0.90042 0.18173 0.0
O41 O 0.41462 0.97549 0.18834 0.0
N42 N 0.42013 0.0293 0.12312 0.0
C43 C 0.44567 0.1394 0.13485 0.0
C44 C 0.44327 0.05266 0.13608 0.0
C45 C 0.40923 0.10311 0.1135 0.0
N46 N 0.42424 0.17088 0.12039 0.0
O47 O 0.44348 0.90516 0.09244 0.0
H48 H 0.45811 0.00904 0.1445 0.0
H49 H 0.39114 0.10795 0.10056 0.0
O50 O 0.42409 0.87435 0.15334 0.0
C51 C 0.43907 0.91484 0.06315 0.0
O52 O 0.41461 0.92235 0.05357 0.0
N53 N 0.3765 0.93305 0.12922 0.0
C54 C 0.32221 0.95079 0.13601 0.0
C55 C 0.33708 0.90715 0.15874 0.0
C56 C 0.36438 0.89804 0.15471 0.0
C57 C 0.3621 0.97387 0.10697 0.0
C58 C 0.33538 0.98654 0.11045 0.0
H59 H 0.37514 0.85855 0.17093 0.0
H60 H 0.3713 0.99276 0.08527 0.0
H61 H 0.43403 0.73765 0.12187 0.0
H62 H 0.36601 0.65066 0.07605 0.0
H63 H 0.46251 0.17584 0.14245 0.0
H64 H 0.32759 0.87646 0.17838 0.0
H65 H 0.32496 0.02093 0.09227 0.0
C66 C 0.11593 0.29575 0.42622 0.0
C67 C 0.11552 0.2087 0.42812 0.0
N68 N 0.0946 0.1805 0.41179 0.0
N69 N 0.09556 0.32213 0.40843 0.0
C70 C 0.0827 0.25063 0.40044 0.0
H71 H 0.13038 0.33703 0.43674 0.0
Co72 Co 0.08782 0.43262 0.39642 0.0
C73 C 0.07363 0.41717 0.32853 0.0
O74 O 0.08487 0.4904 0.32275 0.0
N75 N 0.07925 0.54534 0.38509 0.0
C76 C 0.05526 0.65741 0.37086 0.0
C77 C 0.0561 0.57045 0.37251 0.0
C78 C 0.09167 0.61881 0.39186 0.0
N79 N 0.07774 0.68786 0.38311 0.0
O80 O 0.0546 0.42487 0.41702 0.0
H81 H 0.04044 0.52809 0.36564 0.0
H82 H 0.10983 0.62277 0.40472 0.0
O83 O 0.07306 0.38885 0.35667 0.0
C84 C 0.05685 0.45191 0.44506 0.0
O85 O 0.08026 0.47501 0.4549 0.0
N86 N 0.12178 0.44181 0.37931 0.0
C87 C 0.17478 0.45876 0.36419 0.0
C88 C 0.15829 0.4075 0.34599 0.0
C89 C 0.13177 0.39898 0.35418 0.0
C90 C 0.13821 0.4857 0.39852 0.0
C91 C 0.16451 0.49736 0.39093 0.0
H92 H 0.11983 0.3552 0.34109 0.0
H93 H 0.131 0.50951 0.42059 0.0
H94 H 0.06523 0.24984 0.38596 0.0
H95 H 0.12952 0.1693 0.44056 0.0
H96 H 0.03915 0.69498 0.36177 0.0
H97 H 0.16591 0.37346 0.32598 0.0
H98 H 0.177 0.53335 0.40658 0.0
C99 C 0.38274 0.73862 0.43555 0.0
C100 C 0.38321 0.8256 0.43782 0.0
N101 N 0.40479 0.85429 0.42295 0.0
N102 N 0.40374 0.71261 0.41897 0.0
C103 C 0.41704 0.78431 0.41218 0.0
H104 H 0.36774 0.6972 0.4448 0.0
Co105 Co 0.41147 0.60251 0.4063 0.0
C106 C 0.42674 0.62544 0.3387 0.0
O107 O 0.41634 0.55201 0.33134 0.0
N108 N 0.41998 0.49022 0.39438 0.0
C109 C 0.44386 0.37801 0.38035 0.0
C110 C 0.44297 0.46507 0.38164 0.0
C111 C 0.40772 0.41665 0.4016 0.0
N112 N 0.42157 0.34753 0.39297 0.0
O113 O 0.44447 0.60808 0.42786 0.0
H114 H 0.45858 0.50741 0.37463 0.0
H115 H 0.38982 0.41265 0.41486 0.0
O116 O 0.42674 0.6495 0.36735 0.0
C117 C 0.44198 0.57895 0.45564 0.0
O118 O 0.41848 0.5553 0.46485 0.0
N119 N 0.37774 0.59518 0.38803 0.0
C120 C 0.32528 0.57888 0.36993 0.0
C121 C 0.34224 0.63221 0.35324 0.0
C122 C 0.36843 0.6404 0.36294 0.0
C123 C 0.36078 0.54934 0.40591 0.0
C124 C 0.33475 0.53799 0.39679 0.0
H125 H 0.38063 0.68584 0.35101 0.0
H126 H 0.36728 0.52387 0.42813 0.0
H127 H 0.43506 0.78534 0.39883 0.0
H128 H 0.3687 0.86463 0.44937 0.0
H129 H 0.4599 0.34036 0.37133 0.0
H130 H 0.33522 0.66806 0.33322 0.0
H131 H 0.32183 0.5004 0.41138 0.0
C132 C 0.88823 0.80413 0.91958 0.0
C133 C 0.88878 0.71695 0.92052 0.0
N134 N 0.90986 0.69002 0.90422 0.0
N135 N 0.90872 0.83192 0.90252 0.0
C136 C 0.92172 0.76123 0.89396 0.0
H137 H 0.87355 0.84445 0.93012 0.0
Co138 Co 0.91732 0.94242 0.89177 0.0
C139 C 0.9296 0.92969 0.8233 0.0
O140 O 0.91943 0.00504 0.81826 0.0
N141 N 0.92695 0.05481 0.88167 0.0
C142 C 0.95231 0.16521 0.86953 0.0
C143 C 0.94994 0.07844 0.8685 0.0
C144 C 0.9162 0.12857 0.89137 0.0
N145 N 0.93106 0.19644 0.88418 0.0
O146 O 0.95069 0.92932 0.91207 0.0
H147 H 0.96469 0.03496 0.85996 0.0
H148 H 0.89837 0.13349 0.90467 0.0
O149 O 0.9306 0.90018 0.85126 0.0
C150 C 0.94739 0.95316 0.94039 0.0
O151 O 0.9236 0.97528 0.94908 0.0
N152 N 0.88322 0.95734 0.87563 0.0
C153 C 0.82932 0.98079 0.86528 0.0
C154 C 0.8444 0.93067 0.84484 0.0
C155 C 0.87138 0.91911 0.85058 0.0
C156 C 0.8685 1.00154 0.89643 0.0
C157 C 0.84216 0.01802 0.89091 0.0
H158 H 0.88215 0.87578 0.83593 0.0
H159 H 0.87713 0.02165 0.9183 0.0
H160 H 0.93966 0.76223 0.88048 0.0
H161 H 0.87429 0.67677 0.93157 0.0
H162 H 0.969 0.20188 0.86166 0.0
H163 H 0.83534 0.89763 0.82545 0.0
H164 H 0.83194 0.0579 0.90745 0.0
C165 C 0.61408 0.20745 0.93185 0.0
C166 C 0.61352 0.29449 0.93307 0.0
N167 N 0.59217 0.32169 0.91722 0.0
N168 N 0.59336 0.17997 0.91495 0.0
C169 C 0.58017 0.25101 0.9068 0.0
H170 H 0.62883 0.16702 0.94239 0.0
Co171 Co 0.58498 0.06886 0.90391 0.0
C172 C 0.5729 0.08319 0.83547 0.0
O173 O 0.58331 0.00824 0.83053 0.0
N174 N 0.57572 0.95658 0.8931 0.0
C175 C 0.5512 0.8464 0.87856 0.0
C176 C 0.55229 0.93324 0.88091 0.0
C177 C 0.58816 0.88221 0.89868 0.0
N178 N 0.5739 0.8144 0.88975 0.0
O179 O 0.55147 0.08003 0.92381 0.0
H180 H 0.53674 0.97678 0.87451 0.0
H181 H 0.60679 0.87641 0.91046 0.0
O182 O 0.57186 0.11226 0.86339 0.0
C183 C 0.55562 0.06946 0.95312 0.0
O184 O 0.57999 0.06124 0.96294 0.0
N185 N 0.6192 0.05505 0.88871 0.0
C186 C 0.67363 0.03866 0.88321 0.0
C187 C 0.6591 0.08343 0.86047 0.0
C188 C 0.63173 0.09195 0.86388 0.0
C189 C 0.63327 0.01358 0.9111 0.0
C190 C 0.66008 1.00161 0.90823 0.0
H191 H 0.62118 0.13221 0.84771 0.0
H192 H 0.62359 0.99223 0.9322 0.0
H193 H 0.56236 0.25101 0.8929 0.0
H194 H 0.62766 0.33459 0.9448 0.0
H195 H 0.53489 0.80993 0.86952 0.0
H196 H 0.66888 0.11524 0.84127 0.0
H197 H 0.67022 0.96617 0.92636 0.0
C198 C 0.88921 0.70089 0.59023 0.0
C199 C 0.88963 0.78801 0.58929 0.0
N200 N 0.90921 0.81526 0.60808 0.0
N201 N 0.90826 0.67339 0.60977 0.0
C202 C 0.92036 0.74424 0.61978 0.0
H203 H 0.87555 0.66039 0.57794 0.0
Co204 Co 0.91586 0.56279 0.62152 0.0
C205 C 0.92449 0.57478 0.69087 0.0
O206 O 0.91299 0.5011 0.69484 0.0
N207 N 0.92438 0.45039 0.63262 0.0
C208 C 0.9486 0.33903 0.64702 0.0
C209 C 0.94653 0.42586 0.64771 0.0
C210 C 0.91384 0.37713 0.62218 0.0
N211 N 0.92805 0.30868 0.6307 0.0
O212 O 0.95041 0.57396 0.60432 0.0
H213 H 0.96099 0.46871 0.65734 0.0
H214 H 0.89671 0.37314 0.60744 0.0
O215 O 0.92717 0.60461 0.66313 0.0
C216 C 0.94875 0.54898 0.57594 0.0
O217 O 0.92545 0.52776 0.56516 0.0
N218 N 0.88078 0.54968 0.63444 0.0
C219 C 0.82614 0.53411 0.63854 0.0
C220 C 0.84029 0.57943 0.66132 0.0
C221 C 0.86768 0.58769 0.65857 0.0
C222 C 0.86709 0.5084 0.61177 0.0
C223 C 0.84015 0.49708 0.6139 0.0
H224 H 0.87785 0.62852 0.67476 0.0
H225 H 0.87705 0.48756 0.59086 0.0
H226 H 0.93716 0.7435 0.63532 0.0
H227 H 0.876 0.82793 0.57651 0.0
H228 H 0.96473 0.30167 0.65624 0.0
H229 H 0.8302 0.61177 0.68011 0.0
H230 H 0.83031 0.46179 0.5956 0.0
C231 C 0.60837 0.32022 0.60514 0.0
C232 C 0.60773 0.23313 0.60399 0.0
N233 N 0.58737 0.20588 0.6215 0.0
N234 N 0.58869 0.34768 0.62354 0.0
C235 C 0.576 0.27692 0.63266 0.0
H236 H 0.62264 0.36071 0.59388 0.0
Co237 Co 0.58099 0.45797 0.63521 0.0
C238 C 0.57097 0.44358 0.70421 0.0
O239 O 0.58211 0.51755 0.70878 0.0
N240 N 0.5723 0.57022 0.64619 0.0
C241 C 0.54765 0.68113 0.65961 0.0
C242 C 0.54986 0.59434 0.66054 0.0
C243 C 0.58287 0.64375 0.63594 0.0
N244 N 0.56841 0.71196 0.64387 0.0
O245 O 0.5468 0.44789 0.61659 0.0
H246 H 0.53529 0.55121 0.66972 0.0
H247 H 0.60016 0.6481 0.62164 0.0
O248 O 0.56877 0.41486 0.67628 0.0
C249 C 0.54884 0.47413 0.58835 0.0
O250 O 0.57227 0.49583 0.57826 0.0
N251 N 0.61576 0.46995 0.6498 0.0
C252 C 0.6701 0.48738 0.65831 0.0
C253 C 0.6551 0.43772 0.679 0.0
C254 C 0.62793 0.42894 0.67412 0.0
C255 C 0.63033 0.51406 0.62872 0.0
C256 C 0.65704 0.52694 0.63323 0.0
H257 H 0.61722 0.38552 0.68884 0.0
H258 H 0.62133 0.53649 0.60732 0.0
H259 H 0.55869 0.27778 0.64725 0.0
H260 H 0.62175 0.19321 0.59202 0.0
H261 H 0.53128 0.71809 0.66823 0.0
H262 H 0.66434 0.40286 0.69793 0.0
H263 H 0.66734 0.566 0.61643 0.0
H264 H 0.20207 0.98918 0.10852 0.0
H265 H 0.19761 0.0101 0.20925 0.0
H266 H 0.24547 0.99448 0.21268 0.0
H267 H 0.28883 0.97366 0.18632 0.0
H268 H 0.28955 0.9299 0.08638 0.0
H269 H 0.24257 0.95132 0.08382 0.0
C270 C 0.21106 0.98738 0.13154 0.0
C271 C 0.19579 0.99923 0.15859 0.0
C272 C 0.23811 0.97384 0.1335 0.0
C273 C 0.20866 1.00163 0.18786 0.0
C274 C 0.23607 0.99181 0.18989 0.0
C275 C 0.27861 0.96775 0.16411 0.0
C276 C 0.29299 0.95333 0.13642 0.0
C277 C 0.25104 0.97747 0.16278 0.0
C278 C 0.27931 0.94465 0.1079 0.0
C279 C 0.25233 0.95627 0.10636 0.0
H280 H 0.29784 0.43437 0.36079 0.0
H281 H 0.2899 0.70605 0.36109 0.0
H282 H 0.24214 0.6929 0.35605 0.0
H283 H 0.20253 0.60353 0.35768 0.0
H284 H 0.21043 0.33189 0.35678 0.0
H285 H 0.25837 0.34517 0.35548 0.0
C286 C 0.2856 0.49052 0.35921 0.0
C287 C 0.29718 0.571 0.36153 0.0
C288 C 0.25823 0.48234 0.35639 0.0
C289 C 0.28132 0.64353 0.35921 0.0
C290 C 0.25405 0.63598 0.35655 0.0
C291 C 0.21483 0.54745 0.35662 0.0
C292 C 0.20316 0.46691 0.35753 0.0
C293 C 0.24227 0.55571 0.35601 0.0
C294 C 0.21909 0.39447 0.35593 0.0
C295 C 0.24645 0.40209 0.35544 0.0
H296 H 0.7935 0.99676 0.91199 0.0
H297 H 0.7988 0.98211 0.81116 0.0
H298 H 0.751 0.99856 0.80726 0.0
H299 H 0.70746 0.01839 0.83323 0.0
H300 H 0.70583 0.05555 0.93351 0.0
H301 H 0.75276 0.03329 0.93652 0.0
C302 C 0.78469 1.00006 0.88888 0.0
C303 C 0.80018 0.98975 0.86192 0.0
C304 C 0.75767 0.01402 0.8867 0.0
C305 C 0.78757 0.98934 0.83248 0.0
C306 C 0.7602 0.99964 0.83018 0.0
C307 C 0.71747 0.0227 0.85562 0.0
C308 C 0.70285 0.03559 0.88323 0.0
C309 C 0.74501 0.01246 0.85722 0.0
C310 C 0.71626 0.04209 0.91201 0.0
C311 C 0.74321 0.02997 0.91381 0.0
H312 H 0.70545 0.49866 0.61083 0.0
H313 H 0.70111 0.48816 0.7118 0.0
H314 H 0.74901 0.50088 0.71499 0.0
H315 H 0.79231 0.51676 0.68856 0.0
H316 H 0.7938 0.54605 0.58785 0.0
H317 H 0.74667 0.5273 0.58541 0.0
C318 C 0.71462 0.50152 0.63375 0.0
C319 C 0.69933 0.49376 0.66102 0.0
C320 C 0.74184 0.51243 0.63548 0.0
C321 C 0.71221 0.49342 0.69029 0.0
C322 C 0.73964 0.5015 0.69217 0.0
C323 C 0.78227 0.51999 0.66616 0.0
C324 C 0.79688 0.53031 0.63837 0.0
C325 C 0.75469 0.51151 0.66485 0.0
C326 C 0.7834 0.53488 0.60956 0.0
C327 C 0.75631 0.52485 0.60808 0.0
H328 H 0.05111 0.97957 0.02143 0.0
H329 H 0.99567 0.06863 0.09032 0.0
H330 H 0.95977 0.0498 0.0526 0.0
H331 H 0.94434 0.00768 1.00043 0.0
H332 H -0.0002 0.91863 0.93157 0.0
H333 H 0.03569 0.93743 0.96929 0.0
C334 C 0.03119 0.99517 0.02831 0.0
C335 C 0.02611 0.02572 0.05876 0.0
C336 C 0.01073 0.98378 1.00659 0.0
C337 C 0.00015 0.04529 0.0671 0.0
C338 C 0.97964 0.03433 0.04555 0.0
C339 C 0.96426 0.99207 0.99357 0.0
C340 C 0.96935 0.96153 0.96312 0.0
C341 C 0.98472 1.00345 0.01529 0.0
C342 C 0.99531 0.94195 0.95478 0.0
C343 C 0.01582 0.95289 0.97634 0.0
H344 H 0.48511 0.99951 0.07144 0.0
H345 H 0.43902 0.86668 1.00251 0.0
H346 H 0.46962 0.90894 0.96135 0.0
H347 H 0.50942 0.9856 0.94463 0.0
H348 H 0.55544 0.11851 0.0136 0.0
H349 H 0.52478 0.07659 0.05471 0.0
C350 C 0.48216 0.97848 0.04752 0.0
C351 C 0.46014 0.92904 0.04005 0.0
C352 C 0.49946 0.00504 0.02376 0.0
C353 C 0.45606 0.90411 1.00882 0.0
C354 C 0.47339 0.92888 0.98521 0.0
C355 C 0.51233 0.00676 0.96854 0.0
C356 C 0.53438 0.05598 0.97605 0.0
C357 C 0.49498 0.98039 0.99229 0.0
C358 C 0.5384 0.08117 1.00727 0.0
C359 C 0.52102 0.05659 0.03084 0.0
H360 H 0.0569 0.51231 0.50462 0.0
H361 H 0.00509 0.41736 0.43255 0.0
H362 H 0.96731 0.44062 0.46678 0.0
H363 H 0.94913 0.48844 0.51668 0.0
H364 H 0.00065 0.58308 0.58906 0.0
H365 H 0.0386 0.55979 0.55488 0.0
C366 C 0.03736 0.4964 0.49634 0.0
C367 C 0.03386 0.46294 0.46597 0.0
C368 C 0.01575 0.51029 0.5161 0.0
C369 C 0.00838 0.44292 0.45575 0.0
C370 C 0.98677 0.45641 0.47531 0.0
C371 C 0.96863 0.50432 0.5251 0.0
C372 C 0.97201 0.5378 0.55546 0.0
C373 C 0.99024 0.49028 0.50544 0.0
C374 C 0.99747 0.55755 0.56583 0.0
C375 C 0.01915 0.54404 0.5463 0.0
H376 H 0.44141 0.51463 0.51479 0.0
H377 H 0.49389 0.61402 0.44444 0.0
H378 H 0.53135 0.58865 0.47932 0.0
H379 H 0.54906 0.53798 0.52937 0.0
H380 H 0.49681 0.43904 0.60002 0.0
H381 H 0.45922 0.46415 0.56514 0.0
C382 C 0.46102 0.53105 0.50702 0.0
C383 C 0.46479 0.56642 0.47695 0.0
C384 C 0.48245 0.51597 0.52716 0.0
C385 C 0.49038 0.58702 0.4674 0.0
C386 C 0.51181 0.57232 0.48733 0.0
C387 C 0.52948 0.52154 0.53725 0.0
C388 C 0.5258 0.48634 0.56735 0.0
C389 C 0.50805 0.53665 0.51719 0.0
C390 C 0.50024 0.4659 0.57702 0.0
C391 C 0.47875 0.48045 0.55708 0.0
H392 H 0.06628 0.2453 0.32868 0.0
H393 H 0.06604 0.46359 0.26766 0.0
H394 H 0.06118 0.37209 0.22218 0.0
H395 H 0.06142 0.22941 0.19915 0.0
H396 H 0.06337 0.01091 0.25991 0.0
H397 H 0.06282 0.10276 0.30583 0.0
C398 C 0.06463 0.27304 0.30551 0.0
C399 C 0.06664 0.36145 0.30172 0.0
C400 C 0.06234 0.2197 0.27922 0.0
C401 C 0.0647 0.39587 0.27137 0.0
C402 C 0.06195 0.34345 0.24523 0.0
C403 C 0.06116 0.20179 0.22238 0.0
C404 C 0.0625 0.11322 0.22592 0.0
C405 C 0.06139 0.25516 0.24877 0.0
C406 C 0.06245 0.07878 0.25637 0.0
C407 C 0.0622 0.13135 0.28272 0.0
H408 H 0.43301 0.59388 0.27645 0.0
H409 H 0.43182 0.79799 0.34336 0.0
H410 H 0.43304 0.90129 0.30085 0.0
H411 H 0.42998 0.93406 0.24433 0.0
H412 H 0.43121 0.72964 0.17773 0.0
H413 H 0.43464 0.6268 0.22015 0.0
C414 C 0.43342 0.66095 0.2818 0.0
C415 C 0.43213 0.68769 0.31322 0.0
C416 C 0.4339 0.72034 0.25713 0.0
C417 C 0.43288 0.77506 0.31956 0.0
C418 C 0.43338 0.83448 0.29516 0.0
C419 C 0.43135 0.86709 0.23907 0.0
C420 C 0.43014 0.8398 0.20767 0.0
C421 C 0.43322 0.80791 0.2638 0.0
C422 C 0.43214 0.75267 0.20146 0.0
C423 C 0.43397 0.69361 0.22583 0.0
H424 H 0.93026 0.75695 0.82223 0.0
H425 H 0.93896 0.97614 0.76277 0.0
H426 H 0.94075 0.88531 0.71666 0.0
H427 H 0.93568 0.74428 0.6927 0.0
H428 H 0.9252 0.5259 0.75223 0.0
H429 H 0.92846 0.6151 0.79855 0.0
C430 C 0.93315 0.7847 0.79928 0.0
C431 C 0.93454 0.87336 0.79608 0.0
C432 C 0.93353 0.73204 0.77269 0.0
C433 C 0.93778 0.9082 0.76598 0.0
C434 C 0.93872 0.8562 0.73952 0.0
C435 C 0.93453 0.716 0.71577 0.0
C436 C 0.93003 0.62836 0.71879 0.0
C437 C 0.93599 0.76813 0.74249 0.0
C438 C 0.9285 0.5931 0.74904 0.0
C439 C 0.93035 0.64419 0.77566 0.0
H440 H 0.56675 0.25548 0.83483 0.0
H441 H 0.56699 0.0371 0.77434 0.0
H442 H 0.56379 0.12888 0.72847 0.0
H443 H 0.56505 0.27166 0.70514 0.0
H444 H 0.56657 0.48997 0.76551 0.0
H445 H 0.56469 0.39813 0.81158 0.0
C446 C 0.5656 0.2278 0.81167 0.0
C447 C 0.5672 0.13924 0.80817 0.0
C448 C 0.56427 0.28123 0.7852 0.0
C449 C 0.56593 0.10491 0.77783 0.0
C450 C 0.56413 0.15749 0.75149 0.0
C451 C 0.56442 0.29923 0.72831 0.0
C452 C 0.56598 0.38774 0.73172 0.0
C453 C 0.56388 0.24582 0.75481 0.0
C454 C 0.56549 0.42214 0.76209 0.0
C455 C 0.56447 0.36958 0.78852 0.0
H456 H 0.04882 0.65103 0.16807 0.0
H457 H 0.09087 0.73542 0.08613 0.0
H458 H 0.10077 0.58945 0.07234 0.0
H459 H 0.09804 0.43769 0.08379 0.0
H460 H 0.05566 0.35292 0.16544 0.0
H461 H 0.04485 0.49846 0.17857 0.0
C462 C 0.05992 0.63741 0.14705 0.0
C463 C 0.06933 0.70436 0.12846 0.0
C464 C 0.06544 0.55301 0.13908 0.0
C465 C 0.08387 0.6855 0.10135 0.0
C466 C 0.08939 0.60183 0.09327 0.0
C467 C 0.08658 0.45086 0.10456 0.0
C468 C 0.07797 0.38382 0.1237 0.0
C469 C 0.08048 0.53509 0.1121 0.0
C470 C 0.06258 0.40261 0.15015 0.0
C471 C 0.05644 0.48618 0.1578 0.0
H472 H 0.44171 0.31065 0.14992 0.0
H473 H 0.3955 0.22735 0.0709 0.0
H474 H 0.38528 0.3735 0.05743 0.0
H475 H 0.38888 0.52508 0.06837 0.0
H476 H 0.43539 0.60874 0.14706 0.0
H477 H 0.44662 0.46306 0.15971 0.0
C478 C 0.42963 0.3245 0.12958 0.0
C479 C 0.41915 0.25776 0.11178 0.0
C480 C 0.42395 0.40902 0.12174 0.0
C481 C 0.40336 0.27702 0.08556 0.0
C482 C 0.39765 0.36081 0.07763 0.0
C483 C 0.40134 0.51164 0.08839 0.0
C484 C 0.41098 0.57846 0.10684 0.0
C485 C 0.40764 0.4273 0.09572 0.0
C486 C 0.42765 0.55934 0.13229 0.0
C487 C 0.43404 0.47563 0.13969 0.0
H488 H 0.12702 0.04625 0.40765 0.0
H489 H 0.04547 0.11954 0.4029 0.0
H490 H 0.03289 0.97274 0.39294 0.0
H491 H 0.04506 0.82317 0.38676 0.0
H492 H 0.12692 0.75126 0.3899 0.0
H493 H 0.13928 0.89749 0.39994 0.0
C494 C 0.10648 0.02995 0.40474 0.0
C495 C 0.08721 0.09372 0.40622 0.0
C496 C 0.09942 0.94553 0.39888 0.0
C497 C 0.0607 0.0718 0.40169 0.0
C498 C 0.05349 0.98779 0.39611 0.0
C499 C 0.06562 0.83932 0.38928 0.0
C500 C 0.08494 0.77545 0.38783 0.0
C501 C 0.07269 0.92407 0.39469 0.0
C502 C 0.11151 0.79825 0.39151 0.0
C503 C 0.11866 0.88219 0.39707 0.0
H504 H 0.37237 0.98885 0.41793 0.0
H505 H 0.45403 0.9161 0.41551 0.0
H506 H 0.46661 0.06296 0.40544 0.0
H507 H 0.45439 0.21258 0.39808 0.0
H508 H 0.37247 0.28382 0.39937 0.0
H509 H 0.36013 0.13753 0.40973 0.0
C510 C 0.39294 0.00518 0.41556 0.0
C511 C 0.41222 0.94139 0.41766 0.0
C512 C 0.40002 0.08973 0.40966 0.0
C513 C 0.43876 0.96367 0.4138 0.0
C514 C 0.44598 0.04777 0.40815 0.0
C515 C 0.43382 0.19622 0.4003 0.0
C516 C 0.41445 0.25992 0.39813 0.0
C517 C 0.42677 0.1114 0.40599 0.0
C518 C 0.38789 0.23692 0.40147 0.0
C519 C 0.38076 0.15295 0.40722 0.0
H520 H 0.89694 0.5498 0.93708 0.0
H521 H 0.93961 0.63459 0.85563 0.0
H522 H 0.95052 0.48905 0.84261 0.0
H523 H 0.94674 0.33641 0.85328 0.0
H524 H 0.90421 0.25212 0.93487 0.0
H525 H 0.89411 0.3981 0.94848 0.0
C526 C 0.90848 0.53664 0.91637 0.0
C527 C 0.91719 0.60369 0.89731 0.0
C528 C 0.91462 0.45242 0.90887 0.0
C529 C 0.93265 0.58492 0.87091 0.0
C530 C 0.93885 0.50134 0.86331 0.0
C531 C 0.93548 0.3501 0.87418 0.0
C532 C 0.92603 0.28319 0.89275 0.0
C533 C 0.92981 0.4345 0.88202 0.0
C534 C 0.91127 0.30204 0.91969 0.0
C535 C 0.90563 0.3857 0.92766 0.0
H536 H 0.54138 0.67923 0.89437 0.0
H537 H 0.62326 0.75031 0.89257 0.0
H538 H 0.63606 0.60377 0.90148 0.0
H539 H 0.62421 0.45537 0.91028 0.0
H540 H 0.54267 0.3822 0.91052 0.0
H541 H 0.52955 0.52916 0.90099 0.0
C542 C 0.56202 0.66272 0.89554 0.0
C543 C 0.58125 0.72646 0.89319 0.0
C544 C 0.56934 0.57775 0.90035 0.0
C545 C 0.60794 0.70335 0.89502 0.0
C546 C 0.61534 0.61927 0.89991 0.0
C547 C 0.60357 0.47174 0.90851 0.0
C548 C 0.58445 0.40813 0.91139 0.0
C549 C 0.59622 0.55611 0.90291 0.0
C550 C 0.55777 0.42997 0.90827 0.0
C551 C 0.55027 0.51402 0.90294 0.0
H552 H 0.89818 0.95564 0.57411 0.0
H553 H 0.93491 0.87078 0.65988 0.0
H554 H 0.9446 0.01631 0.67414 0.0
H555 H 0.94142 0.16876 0.66315 0.0
H556 H 0.90434 0.25359 0.57762 0.0
H557 H 0.8955 0.10752 0.56279 0.0
C558 C 0.90814 0.96877 0.59602 0.0
C559 C 0.91568 0.90169 0.61587 0.0
C560 C 0.91342 0.05301 0.60429 0.0
C561 C 0.92904 0.92048 0.64392 0.0
C562 C 0.93448 0.00403 0.65224 0.0
C563 C 0.93161 0.15516 0.64116 0.0
C564 C 0.92337 0.22212 0.62172 0.0
C565 C 0.92665 0.07085 0.63269 0.0
C566 C 0.91043 0.20349 0.59339 0.0
C567 C 0.90554 0.11984 0.58474 0.0
H568 H 0.55333 0.85179 0.67499 0.0
H569 H 0.59387 0.76782 0.59205 0.0
H570 H 0.60301 0.91397 0.57752 0.0
H571 H 0.5998 0.06572 0.58845 0.0
H572 H 0.55907 0.14981 0.67129 0.0
H573 H 0.54915 0.00415 0.68521 0.0
C574 C 0.56395 0.86553 0.6536 0.0
C575 C 0.57312 0.79869 0.6349 0.0
C576 C 0.56902 0.94996 0.64522 0.0
C577 C 0.58706 0.81767 0.60733 0.0
C578 C 0.59213 0.90143 0.59883 0.0
C579 C 0.5889 0.05244 0.60966 0.0
C580 C 0.58046 0.11939 0.62885 0.0
C581 C 0.58337 0.96809 0.61771 0.0
C582 C 0.56582 0.10031 0.6559 0.0
C583 C 0.56019 0.01663 0.66402 0.0
loop_
_geom_bond_atom_site_label_1
_geom_bond_atom_site_label_2
_geom_bond_distance
_geom_bond_site_symmetry_2
_ccdc_geom_bond_type
C0 C1 1.351 . S
C0 N3 1.368 . S
C0 H5 0.931 . S
C1 C0 1.351 . S
C1 N2 1.373 . S
C1 H29 0.930 . S
N2 C1 1.373 . S
N2 C4 1.340 . S
N3 C0 1.368 . S
N3 C4 1.321 . S
N3 Co6 2.135 . S
C4 N2 1.340 . S
C4 N3 1.321 . S
C4 H28 0.930 . S
H5 C0 0.931 . S
Co6 N3 2.135 . S
Co6 N9 2.121 1_545 S
Co6 O14 2.055 . S
Co6 O17 2.039 . S
Co6 N20 2.140 . S
C7 O8 1.227 . S
C7 O17 1.265 . S
O8 C7 1.227 . S
N9 Co6 2.121 1_565 S
N9 C11 1.375 . S
N9 C12 1.313 . S
C10 C11 1.338 . S
C10 N13 1.377 . S
C10 H30 0.930 . S
C11 N9 1.375 . S
C11 C10 1.338 . S
C11 H15 0.931 . S
C12 N9 1.313 . S
C12 N13 1.344 . S
C12 H16 0.930 . S
N13 C10 1.377 . S
N13 C12 1.344 . S
O14 Co6 2.055 . S
O14 C18 1.253 . S
H15 C11 0.931 . S
H16 C12 0.930 . S
O17 Co6 2.039 . S
O17 C7 1.265 . S
C18 O14 1.253 . S
C18 O19 1.227 . S
O19 C18 1.227 . S
N20 Co6 2.140 . S
N20 C23 1.346 . S
N20 C24 1.345 . S
C21 C22 1.387 . S
C21 C25 1.391 . S
C22 C21 1.387 . S
C22 C23 1.369 . S
C22 H31 0.929 . S
C23 N20 1.346 . S
C23 C22 1.369 . S
C23 H26 0.928 . S
C24 N20 1.345 . S
C24 C25 1.371 . S
C24 H27 0.931 1_545 S
C25 C21 1.391 . S
C25 C24 1.371 . S
C25 H32 0.930 1_545 S
H26 C23 0.928 . S
H27 C24 0.931 1_565 S
H28 C4 0.930 . S
H29 C1 0.930 . S
H30 C10 0.930 . S
H31 C22 0.929 . S
H32 C25 0.930 1_565 S
C33 C34 1.351 . S
C33 N36 1.368 . S
C33 H38 0.931 . S
C34 C33 1.351 . S
C34 N35 1.373 . S
C34 H62 0.930 . S
N35 C34 1.373 . S
N35 C37 1.340 . S
N36 C33 1.368 . S
N36 C37 1.321 . S
N36 Co39 2.135 . S
C37 N35 1.340 . S
C37 N36 1.321 . S
C37 H61 0.930 . S
H38 C33 0.931 . S
Co39 N36 2.135 . S
Co39 N42 2.121 1_565 S
Co39 O47 2.055 . S
Co39 O50 2.039 . S
Co39 N53 2.140 . S
C40 O41 1.227 . S
C40 O50 1.265 . S
O41 C40 1.227 . S
N42 Co39 2.121 1_545 S
N42 C44 1.375 . S
N42 C45 1.313 . S
C43 C44 1.338 . S
C43 N46 1.377 . S
C43 H63 0.930 . S
C44 N42 1.375 . S
C44 C43 1.338 . S
C44 H48 0.931 . S
C45 N42 1.313 . S
C45 N46 1.344 . S
C45 H49 0.930 . S
N46 C43 1.377 . S
N46 C45 1.344 . S
O47 Co39 2.055 . S
O47 C51 1.253 . S
H48 C44 0.931 . S
H49 C45 0.930 . S
O50 Co39 2.039 . S
O50 C40 1.265 . S
C51 O47 1.253 . S
C51 O52 1.227 . S
O52 C51 1.227 . S
N53 Co39 2.140 . S
N53 C56 1.346 . S
N53 C57 1.345 . S
C54 C55 1.387 . S
C54 C58 1.391 . S
C55 C54 1.387 . S
C55 C56 1.369 . S
C55 H64 0.929 . S
C56 N53 1.346 . S
C56 C55 1.369 . S
C56 H59 0.928 . S
C57 N53 1.345 . S
C57 C58 1.371 . S
C57 H60 0.931 1_565 S
C58 C54 1.391 . S
C58 C57 1.371 . S
C58 H65 0.930 1_565 S
H59 C56 0.928 . S
H60 C57 0.931 1_545 S
H61 C37 0.930 . S
H62 C34 0.930 . S
H63 C43 0.930 . S
H64 C55 0.929 . S
H65 C58 0.930 1_545 S
C66 C67 1.351 . S
C66 N69 1.368 . S
C66 H71 0.931 . S
C67 C66 1.351 . S
C67 N68 1.373 . S
C67 H95 0.930 . S
N68 C67 1.373 . S
N68 C70 1.340 . S
N69 C66 1.368 . S
N69 C70 1.321 . S
N69 Co72 2.135 . S
C70 N68 1.340 . S
C70 N69 1.321 . S
C70 H94 0.930 . S
H71 C66 0.931 . S
Co72 N69 2.135 . S
Co72 N75 2.121 . S
Co72 O80 2.055 . S
Co72 O83 2.039 . S
Co72 N86 2.140 . S
C73 O74 1.227 . S
C73 O83 1.265 . S
O74 C73 1.227 . S
N75 Co72 2.121 . S
N75 C77 1.375 . S
N75 C78 1.313 . S
C76 C77 1.338 . S
C76 N79 1.377 . S
C76 H96 0.930 . S
C77 N75 1.375 . S
C77 C76 1.338 . S
C77 H81 0.931 . S
C78 N75 1.313 . S
C78 N79 1.344 . S
C78 H82 0.930 . S
N79 C76 1.377 . S
N79 C78 1.344 . S
O80 Co72 2.055 . S
O80 C84 1.253 . S
H81 C77 0.931 . S
H82 C78 0.930 . S
O83 Co72 2.039 . S
O83 C73 1.265 . S
C84 O80 1.253 . S
C84 O85 1.227 . S
O85 C84 1.227 . S
N86 Co72 2.140 . S
N86 C89 1.346 . S
N86 C90 1.345 . S
C87 C88 1.387 . S
C87 C91 1.391 . S
C88 C87 1.387 . S
C88 C89 1.369 . S
C88 H97 0.929 . S
C89 N86 1.346 . S
C89 C88 1.369 . S
C89 H92 0.928 . S
C90 N86 1.345 . S
C90 C91 1.371 . S
C90 H93 0.931 . S
C91 C87 1.391 . S
C91 C90 1.371 . S
C91 H98 0.930 . S
H92 C89 0.928 . S
H93 C90 0.931 . S
H94 C70 0.930 . S
H95 C67 0.930 . S
H96 C76 0.930 . S
H97 C88 0.929 . S
H98 C91 0.930 . S
C99 C100 1.351 . S
C99 N102 1.368 . S
C99 H104 0.931 . S
C100 C99 1.351 . S
C100 N101 1.373 . S
C100 H128 0.930 . S
N101 C100 1.373 . S
N101 C103 1.340 . S
N102 C99 1.368 . S
N102 C103 1.321 . S
N102 Co105 2.135 . S
C103 N101 1.340 . S
C103 N102 1.321 . S
C103 H127 0.930 . S
H104 C99 0.931 . S
Co105 N102 2.135 . S
Co105 N108 2.121 . S
Co105 O113 2.055 . S
Co105 O116 2.039 . S
Co105 N119 2.140 . S
C106 O107 1.227 . S
C106 O116 1.265 . S
O107 C106 1.227 . S
N108 Co105 2.121 . S
N108 C110 1.375 . S
N108 C111 1.313 . S
C109 C110 1.338 . S
C109 N112 1.377 . S
C109 H129 0.930 . S
C110 N108 1.375 . S
C110 C109 1.338 . S
C110 H114 0.931 . S
C111 N108 1.313 . S
C111 N112 1.344 . S
C111 H115 0.930 . S
N112 C109 1.377 . S
N112 C111 1.344 . S
O113 Co105 2.055 . S
O113 C117 1.253 . S
H114 C110 0.931 . S
H115 C111 0.930 . S
O116 Co105 2.039 . S
O116 C106 1.265 . S
C117 O113 1.253 . S
C117 O118 1.227 . S
O118 C117 1.227 . S
N119 Co105 2.140 . S
N119 C122 1.346 . S
N119 C123 1.345 . S
C120 C121 1.387 . S
C120 C124 1.391 . S
C121 C120 1.387 . S
C121 C122 1.369 . S
C121 H130 0.929 . S
C122 N119 1.346 . S
C122 C121 1.369 . S
C122 H125 0.928 . S
C123 N119 1.345 . S
C123 C124 1.371 . S
C123 H126 0.931 . S
C124 C120 1.391 . S
C124 C123 1.371 . S
C124 H131 0.930 . S
H125 C122 0.928 . S
H126 C123 0.931 . S
H127 C103 0.930 . S
H128 C100 0.930 . S
H129 C109 0.930 . S
H130 C121 0.929 . S
H131 C124 0.930 . S
C132 C133 1.351 . S
C132 N135 1.368 . S
C132 H137 0.931 . S
C133 C132 1.351 . S
C133 N134 1.373 . S
C133 H161 0.930 . S
N134 C133 1.373 . S
N134 C136 1.340 . S
N135 C132 1.368 . S
N135 C136 1.321 . S
N135 Co138 2.135 . S
C136 N134 1.340 . S
C136 N135 1.321 . S
C136 H160 0.930 . S
H137 C132 0.931 . S
Co138 N135 2.135 . S
Co138 N141 2.121 1_565 S
Co138 O146 2.055 . S
Co138 O149 2.039 . S
Co138 N152 2.140 . S
C139 O140 1.227 . S
C139 O149 1.265 . S
O140 C139 1.227 . S
N141 Co138 2.121 1_545 S
N141 C143 1.375 . S
N141 C144 1.313 . S
C142 C143 1.338 . S
C142 N145 1.377 . S
C142 H162 0.930 . S
C143 N141 1.375 . S
C143 C142 1.338 . S
C143 H147 0.931 . S
C144 N141 1.313 . S
C144 N145 1.344 . S
C144 H148 0.930 . S
N145 C142 1.377 . S
N145 C144 1.344 . S
O146 Co138 2.055 . S
O146 C150 1.253 . S
H147 C143 0.931 . S
H148 C144 0.930 . S
O149 Co138 2.039 . S
O149 C139 1.265 . S
C150 O146 1.253 . S
C150 O151 1.227 . S
O151 C150 1.227 . S
N152 Co138 2.140 . S
N152 C155 1.346 . S
N152 C156 1.345 . S
C153 C154 1.387 . S
C153 C157 1.391 . S
C154 C153 1.387 . S
C154 C155 1.369 . S
C154 H163 0.929 . S
C155 N152 1.346 . S
C155 C154 1.369 . S
C155 H158 0.928 . S
C156 N152 1.345 . S
C156 C157 1.371 . S
C156 H159 0.931 1_565 S
C157 C153 1.391 . S
C157 C156 1.371 . S
C157 H164 0.930 1_565 S
H158 C155 0.928 . S
H159 C156 0.931 1_545 S
H160 C136 0.930 . S
H161 C133 0.930 . S
H162 C142 0.930 . S
H163 C154 0.929 . S
H164 C157 0.930 1_545 S
C165 C166 1.351 . S
C165 N168 1.368 . S
C165 H170 0.931 . S
C166 C165 1.351 . S
C166 N167 1.373 . S
C166 H194 0.930 . S
N167 C166 1.373 . S
N167 C169 1.340 . S
N168 C165 1.368 . S
N168 C169 1.321 . S
N168 Co171 2.135 . S
C169 N167 1.340 . S
C169 N168 1.321 . S
C169 H193 0.930 . S
H170 C165 0.931 . S
Co171 N168 2.135 . S
Co171 N174 2.121 1_545 S
Co171 O179 2.055 . S
Co171 O182 2.039 . S
Co171 N185 2.140 . S
C172 O173 1.227 . S
C172 O182 1.265 . S
O173 C172 1.227 . S
N174 Co171 2.121 1_565 S
N174 C176 1.375 . S
N174 C177 1.313 . S
C175 C176 1.338 . S
C175 N178 1.377 . S
C175 H195 0.930 . S
C176 N174 1.375 . S
C176 C175 1.338 . S
C176 H180 0.931 . S
C177 N174 1.313 . S
C177 N178 1.344 . S
C177 H181 0.930 . S
N178 C175 1.377 . S
N178 C177 1.344 . S
O179 Co171 2.055 . S
O179 C183 1.253 . S
H180 C176 0.931 . S
H181 C177 0.930 . S
O182 Co171 2.039 . S
O182 C172 1.265 . S
C183 O179 1.253 . S
C183 O184 1.227 . S
O184 C183 1.227 . S
N185 Co171 2.140 . S
N185 C188 1.346 . S
N185 C189 1.345 . S
C186 C187 1.387 . S
C186 C190 1.391 . S
C187 C186 1.387 . S
C187 C188 1.369 . S
C187 H196 0.929 . S
C188 N185 1.346 . S
C188 C187 1.369 . S
C188 H191 0.928 . S
C189 N185 1.345 . S
C189 C190 1.371 . S
C189 H192 0.931 1_545 S
C190 C186 1.391 . S
C190 C189 1.371 . S
C190 H197 0.930 1_545 S
H191 C188 0.928 . S
H192 C189 0.931 1_565 S
H193 C169 0.930 . S
H194 C166 0.930 . S
H195 C175 0.930 . S
H196 C187 0.929 . S
H197 C190 0.930 1_565 S
C198 C199 1.351 . S
C198 N201 1.368 . S
C198 H203 0.931 . S
C199 C198 1.351 . S
C199 N200 1.373 . S
C199 H227 0.930 . S
N200 C199 1.373 . S
N200 C202 1.340 . S
N201 C198 1.368 . S
N201 C202 1.321 . S
N201 Co204 2.135 . S
C202 N200 1.340 . S
C202 N201 1.321 . S
C202 H226 0.930 . S
H203 C198 0.931 . S
Co204 N201 2.135 . S
Co204 N207 2.121 . S
Co204 O212 2.055 . S
Co204 O215 2.039 . S
Co204 N218 2.140 . S
C205 O206 1.227 . S
C205 O215 1.265 . S
O206 C205 1.227 . S
N207 Co204 2.121 . S
N207 C209 1.375 . S
N207 C210 1.313 . S
C208 C209 1.338 . S
C208 N211 1.377 . S
C208 H228 0.930 . S
C209 N207 1.375 . S
C209 C208 1.338 . S
C209 H213 0.931 . S
C210 N207 1.313 . S
C210 N211 1.344 . S
C210 H214 0.930 . S
N211 C208 1.377 . S
N211 C210 1.344 . S
O212 Co204 2.055 . S
O212 C216 1.253 . S
H213 C209 0.931 . S
H214 C210 0.930 . S
O215 Co204 2.039 . S
O215 C205 1.265 . S
C216 O212 1.253 . S
C216 O217 1.227 . S
O217 C216 1.227 . S
N218 Co204 2.140 . S
N218 C221 1.346 . S
N218 C222 1.345 . S
C219 C220 1.387 . S
C219 C223 1.391 . S
C220 C219 1.387 . S
C220 C221 1.369 . S
C220 H229 0.929 . S
C221 N218 1.346 . S
C221 C220 1.369 . S
C221 H224 0.928 . S
C222 N218 1.345 . S
C222 C223 1.371 . S
C222 H225 0.931 . S
C223 C219 1.391 . S
C223 C222 1.371 . S
C223 H230 0.930 . S
H224 C221 0.928 . S
H225 C222 0.931 . S
H226 C202 0.930 . S
H227 C199 0.930 . S
H228 C208 0.930 . S
H229 C220 0.929 . S
H230 C223 0.930 . S
C231 C232 1.351 . S
C231 N234 1.368 . S
C231 H236 0.931 . S
C232 C231 1.351 . S
C232 N233 1.373 . S
C232 H260 0.930 . S
N233 C232 1.373 . S
N233 C235 1.340 . S
N234 C231 1.368 . S
N234 C235 1.321 . S
N234 Co237 2.135 . S
C235 N233 1.340 . S
C235 N234 1.321 . S
C235 H259 0.930 . S
H236 C231 0.931 . S
Co237 N234 2.135 . S
Co237 N240 2.121 . S
Co237 O245 2.055 . S
Co237 O248 2.039 . S
Co237 N251 2.140 . S
C238 O239 1.227 . S
C238 O248 1.265 . S
O239 C238 1.227 . S
N240 Co237 2.121 . S
N240 C242 1.375 . S
N240 C243 1.313 . S
C241 C242 1.338 . S
C241 N244 1.377 . S
C241 H261 0.930 . S
C242 N240 1.375 . S
C242 C241 1.338 . S
C242 H246 0.931 . S
C243 N240 1.313 . S
C243 N244 1.344 . S
C243 H247 0.930 . S
N244 C241 1.377 . S
N244 C243 1.344 . S
O245 Co237 2.055 . S
O245 C249 1.253 . S
H246 C242 0.931 . S
H247 C243 0.930 . S
O248 Co237 2.039 . S
O248 C238 1.265 . S
C249 O245 1.253 . S
C249 O250 1.227 . S
O250 C249 1.227 . S
N251 Co237 2.140 . S
N251 C254 1.346 . S
N251 C255 1.345 . S
C252 C253 1.387 . S
C252 C256 1.391 . S
C253 C252 1.387 . S
C253 C254 1.369 . S
C253 H262 0.929 . S
C254 N251 1.346 . S
C254 C253 1.369 . S
C254 H257 0.928 . S
C255 N251 1.345 . S
C255 C256 1.371 . S
C255 H258 0.931 . S
C256 C252 1.391 . S
C256 C255 1.371 . S
C256 H263 0.930 . S
H257 C254 0.928 . S
H258 C255 0.931 . S
H259 C235 0.930 . S
H260 C232 0.930 . S
H261 C241 0.930 . S
H262 C253 0.929 . S
H263 C256 0.930 . S
H264 C270 0.930 1_565 S
H265 C273 0.930 . S
H266 C274 0.930 . S
H267 C275 0.930 1_545 S
H268 C278 0.930 . S
H269 C279 0.930 . S
C270 H264 0.930 1_545 S
C270 C271 1.355 . S
C270 C272 1.415 1_545 S
C271 C270 1.355 . S
C271 C273 1.419 . S
C272 C270 1.415 1_565 S
C272 C277 1.425 1_565 S
C272 C279 1.409 . S
C273 H265 0.930 . S
C273 C271 1.419 . S
C273 C274 1.362 . S
C274 H266 0.930 . S
C274 C273 1.362 . S
C274 C277 1.409 . S
C275 H267 0.930 1_565 S
C275 C276 1.355 . S
C275 C277 1.415 1_565 S
C276 C275 1.355 . S
C276 C278 1.419 . S
C277 C272 1.425 1_545 S
C277 C274 1.409 . S
C277 C275 1.415 1_545 S
C278 H268 0.930 . S
C278 C276 1.419 . S
C278 C279 1.362 . S
C279 H269 0.930 . S
C279 C272 1.409 . S
C279 C278 1.362 . S
H280 C286 0.930 . S
H281 C289 0.930 . S
H282 C290 0.930 . S
H283 C291 0.930 . S
H284 C294 0.930 . S
H285 C295 0.930 . S
C286 H280 0.930 . S
C286 C287 1.355 . S
C286 C288 1.415 . S
C287 C286 1.355 . S
C287 C289 1.419 . S
C288 C286 1.415 . S
C288 C293 1.425 . S
C288 C295 1.409 . S
C289 H281 0.930 . S
C289 C287 1.419 . S
C289 C290 1.362 . S
C290 H282 0.930 . S
C290 C289 1.362 . S
C290 C293 1.409 . S
C291 H283 0.930 . S
C291 C292 1.355 . S
C291 C293 1.415 . S
C292 C291 1.355 . S
C292 C294 1.419 . S
C293 C288 1.425 . S
C293 C290 1.409 . S
C293 C291 1.415 . S
C294 H284 0.930 . S
C294 C292 1.419 . S
C294 C295 1.362 . S
C295 H285 0.930 . S
C295 C288 1.409 . S
C295 C294 1.362 . S
H296 C302 0.930 . S
H297 C305 0.930 . S
H298 C306 0.930 . S
H299 C307 0.930 . S
H300 C310 0.930 . S
H301 C311 0.930 . S
C302 H296 0.930 . S
C302 C303 1.355 . S
C302 C304 1.415 . S
C303 C302 1.355 . S
C303 C305 1.419 1_565 S
C304 C302 1.415 . S
C304 C309 1.425 1_565 S
C304 C311 1.409 . S
C305 H297 0.930 . S
C305 C303 1.419 1_545 S
C305 C306 1.362 . S
C306 H298 0.930 . S
C306 C305 1.362 . S
C306 C309 1.409 . S
C307 H299 0.930 . S
C307 C308 1.355 . S
C307 C309 1.415 . S
C308 C307 1.355 . S
C308 C310 1.419 1_545 S
C309 C304 1.425 1_545 S
C309 C306 1.409 . S
C309 C307 1.415 . S
C310 H300 0.930 . S
C310 C308 1.419 1_565 S
C310 C311 1.362 . S
C311 H301 0.930 . S
C311 C304 1.409 . S
C311 C310 1.362 . S
H312 C318 0.930 . S
H313 C321 0.930 . S
H314 C322 0.930 . S
H315 C323 0.930 . S
H316 C326 0.930 . S
H317 C327 0.930 . S
C318 H312 0.930 . S
C318 C319 1.355 . S
C318 C320 1.415 . S
C319 C318 1.355 . S
C319 C321 1.419 . S
C320 C318 1.415 . S
C320 C325 1.425 . S
C320 C327 1.409 . S
C321 H313 0.930 . S
C321 C319 1.419 . S
C321 C322 1.362 . S
C322 H314 0.930 . S
C322 C321 1.362 . S
C322 C325 1.409 . S
C323 H315 0.930 . S
C323 C324 1.355 . S
C323 C325 1.415 . S
C324 C323 1.355 . S
C324 C326 1.419 . S
C325 C320 1.425 . S
C325 C322 1.409 . S
C325 C323 1.415 . S
C326 H316 0.930 . S
C326 C324 1.419 . S
C326 C327 1.362 . S
C327 H317 0.930 . S
C327 C320 1.409 . S
C327 C326 1.362 . S
H328 C334 0.930 . S
H329 C337 0.930 . S
H330 C338 0.930 . S
H331 C339 0.930 . S
H332 C342 0.930 . S
H333 C343 0.930 . S
C334 H328 0.930 . S
C334 C335 1.355 . S
C334 C336 1.420 . S
C335 C334 1.355 . S
C335 C337 1.419 1_545 S
C336 C334 1.420 . S
C336 C341 1.425 1_444 S
C336 C343 1.404 1_454 S
C337 H329 0.930 . S
C337 C335 1.419 1_565 S
C337 C338 1.362 . S
C338 H330 0.930 . S
C338 C337 1.362 . S
C338 C341 1.404 1_454 S
C339 H331 0.930 . S
C339 C340 1.355 . S
C339 C341 1.420 . S
C340 C339 1.355 . S
C340 C342 1.419 1_565 S
C341 C336 1.425 1_666 S
C341 C338 1.404 1_656 S
C341 C339 1.420 . S
C342 H332 0.930 . S
C342 C340 1.419 1_545 S
C342 C343 1.362 . S
C343 H333 0.930 . S
C343 C336 1.404 1_656 S
C343 C342 1.362 . S
H344 C350 0.930 . S
H345 C353 0.930 . S
H346 C354 0.930 . S
H347 C355 0.930 . S
H348 C358 0.930 . S
H349 C359 0.930 . S
C350 H344 0.930 . S
C350 C351 1.355 . S
C350 C352 1.415 . S
C351 C350 1.355 . S
C351 C353 1.419 . S
C352 C350 1.415 . S
C352 C357 1.425 1_564 S
C352 C359 1.409 . S
C353 H345 0.930 . S
C353 C351 1.419 . S
C353 C354 1.362 1_564 S
C354 H346 0.930 . S
C354 C353 1.362 1_546 S
C354 C357 1.409 . S
C355 H347 0.930 . S
C355 C356 1.355 . S
C355 C357 1.415 . S
C356 C355 1.355 . S
C356 C358 1.419 . S
C357 C352 1.425 1_546 S
C357 C354 1.409 . S
C357 C355 1.415 . S
C358 H348 0.930 . S
C358 C356 1.419 . S
C358 C359 1.362 1_546 S
C359 H349 0.930 . S
C359 C352 1.409 . S
C359 C358 1.362 1_564 S
H360 C366 0.930 . S
H361 C369 0.930 . S
H362 C370 0.930 . S
H363 C371 0.930 . S
H364 C374 0.930 . S
H365 C375 0.930 . S
C366 H360 0.930 . S
C366 C367 1.355 . S
C366 C368 1.413 . S
C367 C366 1.355 . S
C367 C369 1.419 . S
C368 C366 1.413 . S
C368 C373 1.425 1_455 S
C368 C375 1.411 1_455 S
C369 H361 0.930 . S
C369 C367 1.419 . S
C369 C370 1.362 . S
C370 H362 0.930 . S
C370 C369 1.362 . S
C370 C373 1.411 1_455 S
C371 H363 0.930 . S
C371 C372 1.355 . S
C371 C373 1.413 . S
C372 C371 1.355 . S
C372 C374 1.419 . S
C373 C368 1.425 1_655 S
C373 C370 1.411 1_655 S
C373 C371 1.413 . S
C374 H364 0.930 . S
C374 C372 1.419 . S
C374 C375 1.362 . S
C375 H365 0.930 . S
C375 C368 1.411 1_655 S
C375 C374 1.362 . S
H376 C382 0.930 . S
H377 C385 0.930 . S
H378 C386 0.930 . S
H379 C387 0.930 . S
H380 C390 0.930 . S
H381 C391 0.930 . S
C382 H376 0.930 . S
C382 C383 1.355 . S
C382 C384 1.415 . S
C383 C382 1.355 . S
C383 C385 1.419 . S
C384 C382 1.415 . S
C384 C389 1.425 . S
C384 C391 1.409 . S
C385 H377 0.930 . S
C385 C383 1.419 . S
C385 C386 1.362 . S
C386 H378 0.930 . S
C386 C385 1.362 . S
C386 C389 1.409 . S
C387 H379 0.930 . S
C387 C388 1.355 . S
C387 C389 1.415 . S
C388 C387 1.355 . S
C388 C390 1.419 . S
C389 C384 1.425 . S
C389 C386 1.409 . S
C389 C387 1.415 . S
C390 H380 0.930 . S
C390 C388 1.419 . S
C390 C391 1.362 . S
C391 H381 0.930 . S
C391 C384 1.409 . S
C391 C390 1.362 . S
H392 C398 0.930 . S
H393 C401 0.930 . S
H394 C402 0.930 . S
H395 C403 0.930 . S
H396 C406 0.930 . S
H397 C407 0.930 . S
C398 H392 0.930 . S
C398 C399 1.355 . S
C398 C400 1.415 . S
C399 C398 1.355 . S
C399 C401 1.419 . S
C400 C398 1.415 . S
C400 C405 1.425 . S
C400 C407 1.409 . S
C401 H393 0.930 . S
C401 C399 1.419 . S
C401 C402 1.362 . S
C402 H394 0.930 . S
C402 C401 1.362 . S
C402 C405 1.409 . S
C403 H395 0.930 . S
C403 C404 1.355 . S
C403 C405 1.415 . S
C404 C403 1.355 . S
C404 C406 1.419 . S
C405 C400 1.425 . S
C405 C402 1.409 . S
C405 C403 1.415 . S
C406 H396 0.930 . S
C406 C404 1.419 . S
C406 C407 1.362 . S
C407 H397 0.930 . S
C407 C400 1.409 . S
C407 C406 1.362 . S
H408 C414 0.930 . S
H409 C417 0.930 . S
H410 C418 0.930 . S
H411 C419 0.930 . S
H412 C422 0.930 . S
H413 C423 0.930 . S
C414 H408 0.930 . S
C414 C415 1.355 . S
C414 C416 1.415 . S
C415 C414 1.355 . S
C415 C417 1.419 . S
C416 C414 1.415 . S
C416 C421 1.425 . S
C416 C423 1.409 . S
C417 H409 0.930 . S
C417 C415 1.419 . S
C417 C418 1.362 . S
C418 H410 0.930 . S
C418 C417 1.362 . S
C418 C421 1.409 . S
C419 H411 0.930 . S
C419 C420 1.355 . S
C419 C421 1.415 . S
C420 C419 1.355 . S
C420 C422 1.419 . S
C421 C416 1.425 . S
C421 C418 1.409 . S
C421 C419 1.415 . S
C422 H412 0.930 . S
C422 C420 1.419 . S
C422 C423 1.362 . S
C423 H413 0.930 . S
C423 C416 1.409 . S
C423 C422 1.362 . S
H424 C430 0.930 . S
H425 C433 0.930 . S
H426 C434 0.930 . S
H427 C435 0.930 . S
H428 C438 0.930 . S
H429 C439 0.930 . S
C430 H424 0.930 . S
C430 C431 1.355 . S
C430 C432 1.415 . S
C431 C430 1.355 . S
C431 C433 1.419 . S
C432 C430 1.415 . S
C432 C437 1.425 . S
C432 C439 1.409 . S
C433 H425 0.930 . S
C433 C431 1.419 . S
C433 C434 1.362 . S
C434 H426 0.930 . S
C434 C433 1.362 . S
C434 C437 1.409 . S
C435 H427 0.930 . S
C435 C436 1.355 . S
C435 C437 1.415 . S
C436 C435 1.355 . S
C436 C438 1.419 . S
C437 C432 1.425 . S
C437 C434 1.409 . S
C437 C435 1.415 . S
C438 H428 0.930 . S
C438 C436 1.419 . S
C438 C439 1.362 . S
C439 H429 0.930 . S
C439 C432 1.409 . S
C439 C438 1.362 . S
H440 C446 0.930 . S
H441 C449 0.930 . S
H442 C450 0.930 . S
H443 C451 0.930 . S
H444 C454 0.930 . S
H445 C455 0.930 . S
C446 H440 0.930 . S
C446 C447 1.355 . S
C446 C448 1.415 . S
C447 C446 1.355 . S
C447 C449 1.419 . S
C448 C446 1.415 . S
C448 C453 1.425 . S
C448 C455 1.409 . S
C449 H441 0.930 . S
C449 C447 1.419 . S
C449 C450 1.362 . S
C450 H442 0.930 . S
C450 C449 1.362 . S
C450 C453 1.409 . S
C451 H443 0.930 . S
C451 C452 1.355 . S
C451 C453 1.415 . S
C452 C451 1.355 . S
C452 C454 1.419 . S
C453 C448 1.425 . S
C453 C450 1.409 . S
C453 C451 1.415 . S
C454 H444 0.930 . S
C454 C452 1.419 . S
C454 C455 1.362 . S
C455 H445 0.930 . S
C455 C448 1.409 . S
C455 C454 1.362 . S
H456 C462 0.930 . S
H457 C465 0.930 . S
H458 C466 0.930 . S
H459 C467 0.930 . S
H460 C470 0.930 . S
H461 C471 0.930 . S
C462 H456 0.930 . S
C462 C463 1.355 . S
C462 C464 1.415 . S
C463 C462 1.355 . S
C463 C465 1.419 . S
C464 C462 1.415 . S
C464 C469 1.425 . S
C464 C471 1.409 . S
C465 H457 0.930 . S
C465 C463 1.419 . S
C465 C466 1.362 . S
C466 H458 0.930 . S
C466 C465 1.362 . S
C466 C469 1.409 . S
C467 H459 0.930 . S
C467 C468 1.355 . S
C467 C469 1.415 . S
C468 C467 1.355 . S
C468 C470 1.419 . S
C469 C464 1.425 . S
C469 C466 1.409 . S
C469 C467 1.415 . S
C470 H460 0.930 . S
C470 C468 1.419 . S
C470 C471 1.362 . S
C471 H461 0.930 . S
C471 C464 1.409 . S
C471 C470 1.362 . S
H472 C478 0.930 . S
H473 C481 0.930 . S
H474 C482 0.930 . S
H475 C483 0.930 . S
H476 C486 0.930 . S
H477 C487 0.930 . S
C478 H472 0.930 . S
C478 C479 1.355 . S
C478 C480 1.415 . S
C479 C478 1.355 . S
C479 C481 1.419 . S
C480 C478 1.415 . S
C480 C485 1.425 . S
C480 C487 1.409 . S
C481 H473 0.930 . S
C481 C479 1.419 . S
C481 C482 1.362 . S
C482 H474 0.930 . S
C482 C481 1.362 . S
C482 C485 1.409 . S
C483 H475 0.930 . S
C483 C484 1.355 . S
C483 C485 1.415 . S
C484 C483 1.355 . S
C484 C486 1.419 . S
C485 C480 1.425 . S
C485 C482 1.409 . S
C485 C483 1.415 . S
C486 H476 0.930 . S
C486 C484 1.419 . S
C486 C487 1.362 . S
C487 H477 0.930 . S
C487 C480 1.409 . S
C487 C486 1.362 . S
H488 C494 0.930 . S
H489 C497 0.930 . S
H490 C498 0.930 . S
H491 C499 0.930 . S
H492 C502 0.930 . S
H493 C503 0.930 . S
C494 H488 0.930 . S
C494 C495 1.355 . S
C494 C496 1.415 1_545 S
C495 C494 1.355 . S
C495 C497 1.419 . S
C496 C494 1.415 1_565 S
C496 C501 1.425 . S
C496 C503 1.409 . S
C497 H489 0.930 . S
C497 C495 1.419 . S
C497 C498 1.362 1_545 S
C498 H490 0.930 . S
C498 C497 1.362 1_565 S
C498 C501 1.409 . S
C499 H491 0.930 . S
C499 C500 1.355 . S
C499 C501 1.415 . S
C500 C499 1.355 . S
C500 C502 1.419 . S
C501 C496 1.425 . S
C501 C498 1.409 . S
C501 C499 1.415 . S
C502 H492 0.930 . S
C502 C500 1.419 . S
C502 C503 1.362 . S
C503 H493 0.930 . S
C503 C496 1.409 . S
C503 C502 1.362 . S
H504 C510 0.930 1_565 S
H505 C513 0.930 . S
H506 C514 0.930 . S
H507 C515 0.930 . S
H508 C518 0.930 . S
H509 C519 0.930 . S
C510 H504 0.930 1_545 S
C510 C511 1.355 1_545 S
C510 C512 1.415 . S
C511 C510 1.355 1_565 S
C511 C513 1.419 . S
C512 C510 1.415 . S
C512 C517 1.425 . S
C512 C519 1.409 . S
C513 H505 0.930 . S
C513 C511 1.419 . S
C513 C514 1.362 1_565 S
C514 H506 0.930 . S
C514 C513 1.362 1_545 S
C514 C517 1.409 . S
C515 H507 0.930 . S
C515 C516 1.355 . S
C515 C517 1.415 . S
C516 C515 1.355 . S
C516 C518 1.419 . S
C517 C512 1.425 . S
C517 C514 1.409 . S
C517 C515 1.415 . S
C518 H508 0.930 . S
C518 C516 1.419 . S
C518 C519 1.362 . S
C519 H509 0.930 . S
C519 C512 1.409 . S
C519 C518 1.362 . S
H520 C526 0.930 . S
H521 C529 0.930 . S
H522 C530 0.930 . S
H523 C531 0.930 . S
H524 C534 0.930 . S
H525 C535 0.930 . S
C526 H520 0.930 . S
C526 C527 1.355 . S
C526 C528 1.415 . S
C527 C526 1.355 . S
C527 C529 1.419 . S
C528 C526 1.415 . S
C528 C533 1.425 . S
C528 C535 1.409 . S
C529 H521 0.930 . S
C529 C527 1.419 . S
C529 C530 1.362 . S
C530 H522 0.930 . S
C530 C529 1.362 . S
C530 C533 1.409 . S
C531 H523 0.930 . S
C531 C532 1.355 . S
C531 C533 1.415 . S
C532 C531 1.355 . S
C532 C534 1.419 . S
C533 C528 1.425 . S
C533 C530 1.409 . S
C533 C531 1.415 . S
C534 H524 0.930 . S
C534 C532 1.419 . S
C534 C535 1.362 . S
C535 H525 0.930 . S
C535 C528 1.409 . S
C535 C534 1.362 . S
H536 C542 0.930 . S
H537 C545 0.930 . S
H538 C546 0.930 . S
H539 C547 0.930 . S
H540 C550 0.930 . S
H541 C551 0.930 . S
C542 H536 0.930 . S
C542 C543 1.355 . S
C542 C544 1.415 . S
C543 C542 1.355 . S
C543 C545 1.419 . S
C544 C542 1.415 . S
C544 C549 1.425 . S
C544 C551 1.409 . S
C545 H537 0.930 . S
C545 C543 1.419 . S
C545 C546 1.362 . S
C546 H538 0.930 . S
C546 C545 1.362 . S
C546 C549 1.409 . S
C547 H539 0.930 . S
C547 C548 1.355 . S
C547 C549 1.415 . S
C548 C547 1.355 . S
C548 C550 1.419 . S
C549 C544 1.425 . S
C549 C546 1.409 . S
C549 C547 1.415 . S
C550 H540 0.930 . S
C550 C548 1.419 . S
C550 C551 1.362 . S
C551 H541 0.930 . S
C551 C544 1.409 . S
C551 C550 1.362 . S
H552 C558 0.930 . S
H553 C561 0.930 . S
H554 C562 0.930 . S
H555 C563 0.930 . S
H556 C566 0.930 . S
H557 C567 0.930 . S
C558 H552 0.930 . S
C558 C559 1.355 . S
C558 C560 1.415 1_565 S
C559 C558 1.355 . S
C559 C561 1.419 . S
C560 C558 1.415 1_545 S
C560 C565 1.425 . S
C560 C567 1.409 . S
C561 H553 0.930 . S
C561 C559 1.419 . S
C561 C562 1.362 1_565 S
C562 H554 0.930 . S
C562 C561 1.362 1_545 S
C562 C565 1.409 . S
C563 H555 0.930 . S
C563 C564 1.355 . S
C563 C565 1.415 . S
C564 C563 1.355 . S
C564 C566 1.419 . S
C565 C560 1.425 . S
C565 C562 1.409 . S
C565 C563 1.415 . S
C566 H556 0.930 . S
C566 C564 1.419 . S
C566 C567 1.362 . S
C567 H557 0.930 . S
C567 C560 1.409 . S
C567 C566 1.362 . S
H568 C574 0.930 . S
H569 C577 0.930 . S
H570 C578 0.930 . S
H571 C579 0.930 . S
H572 C582 0.930 . S
H573 C583 0.930 . S
C574 H568 0.930 . S
C574 C575 1.355 . S
C574 C576 1.415 . S
C575 C574 1.355 . S
C575 C577 1.419 . S
C576 C574 1.415 . S
C576 C581 1.425 . S
C576 C583 1.409 . S
C577 H569 0.930 . S
C577 C575 1.419 . S
C577 C578 1.362 . S
C578 H570 0.930 . S
C578 C577 1.362 . S
C578 C581 1.409 . S
C579 H571 0.930 . S
C579 C580 1.355 . S
C579 C581 1.415 1_545 S
C580 C579 1.355 . S
C580 C582 1.419 . S
C581 C576 1.425 . S
C581 C578 1.409 . S
C581 C579 1.415 1_565 S
C582 H572 0.930 . S
C582 C580 1.419 . S
C582 C583 1.362 1_545 S
C583 H573 0.930 . S
C583 C576 1.409 . S
C583 C582 1.362 1_565 S
C271 C21 1.530 . S
C276 C54 1.556 . S
C287 C120 1.559 . S
C292 C87 1.552 . S
C303 C153 1.522 . S
C308 C186 1.546 . S
C319 C252 1.552 . S
C324 C219 1.559 . S
C335 C18 1.177 . S
C340 C150 1.177 . S
C351 C51 1.186 . S
C356 C183 1.186 . S
C367 C84 1.197 . S
C372 C216 1.197 . S
C383 C117 1.180 . S
C388 C249 1.180 . S
C399 C73 1.411 . S
C404 C7 1.455 . S
C415 C106 1.409 . S
C420 C40 1.416 . S
C431 C139 1.475 . S
C436 C205 1.445 . S
C447 C172 1.475 . S
C452 C238 1.439 . S
C463 N13 1.321 . S
C468 N2 1.320 . S
C479 N46 1.357 . S
C484 N35 1.356 . S
C495 N68 1.295 . S
C500 N79 1.298 . S
C511 N101 1.314 . S
C516 N112 1.316 . S
C527 N134 1.343 . S
C532 N145 1.344 . S
C543 N178 1.309 . S
C548 N167 1.308 . S
C559 N200 1.346 . S
C564 N211 1.346 . S
C575 N244 1.357 . S
C580 N233 1.356 . S
