# Generated by pormake.
# Topology lcs, (4)-cn, num edge types: 1
# Building blocks:
#     Node 0, Type 0, BuildingBlock: ICAMEG_clean_sbu_1, # of connection points: 4
#     Node 1, Type 0, BuildingBlock: ICAMEG_clean_sbu_1, # of connection points: 4
#     Node 2, Type 0, BuildingBlock: ICAMEG_clean_sbu_1, # of connection points: 4
#     Node 3, Type 0, BuildingBlock: ICAMEG_clean_sbu_1, # of connection points: 4
#     Node 4, Type 0, BuildingBlock: ICAMEG_clean_sbu_1, # of connection points: 4
#     Node 5, Type 0, BuildingBlock: ICAMEG_clean_sbu_1, # of connection points: 4
#     Node 6, Type 0, BuildingBlock: ICAMEG_clean_sbu_1, # of connection points: 4
#     Node 7, Type 0, BuildingBlock: ICAMEG_clean_sbu_1, # of connection points: 4
#     Node 8, Type 0, BuildingBlock: ICAMEG_clean_sbu_1, # of connection points: 4
#     Node 9, Type 0, BuildingBlock: ICAMEG_clean_sbu_1, # of connection points: 4
#     Node 10, Type 0, BuildingBlock: ICAMEG_clean_sbu_1, # of connection points: 4
#     Node 11, Type 0, BuildingBlock: ICAMEG_clean_sbu_1, # of connection points: 4
#     Node 12, Type 0, BuildingBlock: ICAMEG_clean_sbu_1, # of connection points: 4
#     Node 13, Type 0, BuildingBlock: ICAMEG_clean_sbu_1, # of connection points: 4
#     Node 14, Type 0, BuildingBlock: ICAMEG_clean_sbu_1, # of connection points: 4
#     Node 15, Type 0, BuildingBlock: ICAMEG_clean_sbu_1, # of connection points: 4
#     Node 16, Type 0, BuildingBlock: ICAMEG_clean_sbu_1, # of connection points: 4
#     Node 17, Type 0, BuildingBlock: ICAMEG_clean_sbu_1, # of connection points: 4
#     Node 18, Type 0, BuildingBlock: ICAMEG_clean_sbu_1, # of connection points: 4
#     Node 19, Type 0, BuildingBlock: ICAMEG_clean_sbu_1, # of connection points: 4
#     Node 20, Type 0, BuildingBlock: ICAMEG_clean_sbu_1, # of connection points: 4
#     Node 21, Type 0, BuildingBlock: ICAMEG_clean_sbu_1, # of connection points: 4
#     Node 22, Type 0, BuildingBlock: ICAMEG_clean_sbu_1, # of connection points: 4
#     Node 23, Type 0, BuildingBlock: ICAMEG_clean_sbu_1, # of connection points: 4
#     Edge 24, Type (0, 0), BuildingBlock: OJICUG_clean_linker_0, # of connection points: 2
#     Edge 25, Type (0, 0), BuildingBlock: OJICUG_clean_linker_0, # of connection points: 2
#     Edge 26, Type (0, 0), BuildingBlock: OJICUG_clean_linker_0, # of connection points: 2
#     Edge 27, Type (0, 0), BuildingBlock: OJICUG_clean_linker_0, # of connection points: 2
#     Edge 28, Type (0, 0), BuildingBlock: OJICUG_clean_linker_0, # of connection points: 2
#     Edge 29, Type (0, 0), BuildingBlock: OJICUG_clean_linker_0, # of connection points: 2
#     Edge 30, Type (0, 0), BuildingBlock: OJICUG_clean_linker_0, # of connection points: 2
#     Edge 31, Type (0, 0), BuildingBlock: OJICUG_clean_linker_0, # of connection points: 2
#     Edge 32, Type (0, 0), BuildingBlock: OJICUG_clean_linker_0, # of connection points: 2
#     Edge 33, Type (0, 0), BuildingBlock: OJICUG_clean_linker_0, # of connection points: 2
#     Edge 34, Type (0, 0), BuildingBlock: OJICUG_clean_linker_0, # of connection points: 2
#     Edge 35, Type (0, 0), BuildingBlock: OJICUG_clean_linker_0, # of connection points: 2
#     Edge 36, Type (0, 0), BuildingBlock: OJICUG_clean_linker_0, # of connection points: 2
#     Edge 37, Type (0, 0), BuildingBlock: OJICUG_clean_linker_0, # of connection points: 2
#     Edge 38, Type (0, 0), BuildingBlock: OJICUG_clean_linker_0, # of connection points: 2
#     Edge 39, Type (0, 0), BuildingBlock: OJICUG_clean_linker_0, # of connection points: 2
#     Edge 40, Type (0, 0), BuildingBlock: OJICUG_clean_linker_0, # of connection points: 2
#     Edge 41, Type (0, 0), BuildingBlock: OJICUG_clean_linker_0, # of connection points: 2
#     Edge 42, Type (0, 0), BuildingBlock: OJICUG_clean_linker_0, # of connection points: 2
#     Edge 43, Type (0, 0), BuildingBlock: OJICUG_clean_linker_0, # of connection points: 2
#     Edge 44, Type (0, 0), BuildingBlock: OJICUG_clean_linker_0, # of connection points: 2
#     Edge 45, Type (0, 0), BuildingBlock: OJICUG_clean_linker_0, # of connection points: 2
#     Edge 46, Type (0, 0), BuildingBlock: OJICUG_clean_linker_0, # of connection points: 2
#     Edge 47, Type (0, 0), BuildingBlock: OJICUG_clean_linker_0, # of connection points: 2
#     Edge 48, Type (0, 0), BuildingBlock: OJICUG_clean_linker_0, # of connection points: 2
#     Edge 49, Type (0, 0), BuildingBlock: OJICUG_clean_linker_0, # of connection points: 2
#     Edge 50, Type (0, 0), BuildingBlock: OJICUG_clean_linker_0, # of connection points: 2
#     Edge 51, Type (0, 0), BuildingBlock: OJICUG_clean_linker_0, # of connection points: 2
#     Edge 52, Type (0, 0), BuildingBlock: OJICUG_clean_linker_0, # of connection points: 2
#     Edge 53, Type (0, 0), BuildingBlock: OJICUG_clean_linker_0, # of connection points: 2
#     Edge 54, Type (0, 0), BuildingBlock: OJICUG_clean_linker_0, # of connection points: 2
#     Edge 55, Type (0, 0), BuildingBlock: OJICUG_clean_linker_0, # of connection points: 2
#     Edge 56, Type (0, 0), BuildingBlock: OJICUG_clean_linker_0, # of connection points: 2
#     Edge 57, Type (0, 0), BuildingBlock: OJICUG_clean_linker_0, # of connection points: 2
#     Edge 58, Type (0, 0), BuildingBlock: OJICUG_clean_linker_0, # of connection points: 2
#     Edge 59, Type (0, 0), BuildingBlock: OJICUG_clean_linker_0, # of connection points: 2
#     Edge 60, Type (0, 0), BuildingBlock: OJICUG_clean_linker_0, # of connection points: 2
#     Edge 61, Type (0, 0), BuildingBlock: OJICUG_clean_linker_0, # of connection points: 2
#     Edge 62, Type (0, 0), BuildingBlock: OJICUG_clean_linker_0, # of connection points: 2
#     Edge 63, Type (0, 0), BuildingBlock: OJICUG_clean_linker_0, # of connection points: 2
#     Edge 64, Type (0, 0), BuildingBlock: OJICUG_clean_linker_0, # of connection points: 2
#     Edge 65, Type (0, 0), BuildingBlock: OJICUG_clean_linker_0, # of connection points: 2
#     Edge 66, Type (0, 0), BuildingBlock: OJICUG_clean_linker_0, # of connection points: 2
#     Edge 67, Type (0, 0), BuildingBlock: OJICUG_clean_linker_0, # of connection points: 2
#     Edge 68, Type (0, 0), BuildingBlock: OJICUG_clean_linker_0, # of connection points: 2
#     Edge 69, Type (0, 0), BuildingBlock: OJICUG_clean_linker_0, # of connection points: 2
#     Edge 70, Type (0, 0), BuildingBlock: OJICUG_clean_linker_0, # of connection points: 2
#     Edge 71, Type (0, 0), BuildingBlock: OJICUG_clean_linker_0, # of connection points: 2
# Relax obj value: 0.041
# Max RMSD: 0.109
# Mean RMSD: 0.106
data_MOF--net-lcs--node1-ICAMEG_clean_sbu_1--edge1-OJICUG_clean_linker_0
_symmetry_space_group_name_H-M    P1
_symmetry_Int_Tables_number       1
_symmetry_cell_setting            triclinic
loop_
_symmetry_equiv_pos_as_xyz
'x, y, z'
_cell_length_a     38.60167
_cell_length_b     38.613467
_cell_length_c     38.613414
_cell_angle_alpha  93.756959
_cell_angle_beta   93.866607
_cell_angle_gamma 93.784285
loop_
_atom_site_label
_atom_site_type_symbol
_atom_site_fract_x
_atom_site_fract_y
_atom_site_fract_z
_atom_type_partial_charge
Co0 Co 1.00526 0.24174 0.43327 0.0
Co1 Co 0.04682 0.25658 0.36023 0.0
O2 O 0.02051 0.27372 0.3989 0.0
C3 C 0.94931 0.29339 0.42693 0.0
O4 O 0.96367 0.30798 0.40119 0.0
C5 C 0.07954 0.32844 0.38243 0.0
O6 O 0.07588 0.32273 0.41514 0.0
O7 O 0.08329 0.24252 0.39505 0.0
O8 O 0.04725 0.2141 0.42821 0.0
H9 H 0.11644 0.16974 0.29812 0.0
H10 H 0.0133 0.31813 0.45286 0.0
O11 O 0.96248 0.26763 0.44064 0.0
H12 H 0.08828 0.26493 0.53989 0.0
H13 H 0.95267 0.20874 0.54351 0.0
H14 H 1.00203 0.16501 0.43591 0.0
H15 H 0.05423 0.22839 0.49327 0.0
H16 H 0.97366 0.24947 0.50169 0.0
O17 O 0.07165 0.30407 0.35878 0.0
H18 H 0.08195 0.19198 0.34518 0.0
H19 H 0.0699 0.28547 0.29487 0.0
H20 H 0.98163 0.12341 0.47719 0.0
H21 H 0.04628 0.3555 0.49943 0.0
H22 H 0.95673 0.14521 0.53145 0.0
H23 H 0.0843 0.32899 0.54335 0.0
O24 O 0.97903 0.21205 0.3951 0.0
H25 H 0.96308 0.33864 0.31191 0.0
H26 H 1.00834 0.22277 0.29558 0.0
H27 H 0.96226 0.23974 0.25409 0.0
H28 H 0.93936 0.29814 0.26205 0.0
H29 H 1.00879 0.32036 0.35305 0.0
H30 H 0.10453 0.2644 0.24747 0.0
H31 H 0.12793 0.20606 0.24881 0.0
O32 O 0.02131 0.20878 0.35842 0.0
C33 C 0.07769 0.22149 0.41863 0.0
C34 C 0.10634 0.19518 0.29721 0.0
C35 C 0.0997 0.24833 0.26881 0.0
N36 N 0.07381 0.23992 0.32273 0.0
C37 C 0.08674 0.20788 0.32375 0.0
C38 C 0.08021 0.26018 0.29581 0.0
C39 C 0.1128 0.21558 0.26957 0.0
C40 C 0.02914 0.30621 0.47213 0.0
N41 N 0.03134 0.27098 0.47041 0.0
C42 C 0.04806 0.32759 0.49836 0.0
C43 C 0.06945 0.31272 0.52293 0.0
C44 C 0.07171 0.2768 0.52099 0.0
C45 C 0.0524 0.25624 0.49442 0.0
C46 C 0.96353 0.19892 0.51999 0.0
C47 C 0.99142 0.17473 0.45955 0.0
C48 C 0.97538 0.22186 0.49615 0.0
N49 N 0.9893 0.20966 0.46647 0.0
C50 C 0.97982 0.15104 0.48279 0.0
C51 C 0.96582 0.16329 0.51321 0.0
C52 C 0.99174 0.19806 0.3684 0.0
C53 C 0.97276 0.31309 0.3082 0.0
C54 C 0.9982 0.24799 0.29955 0.0
C55 C 0.97225 0.25757 0.2758 0.0
C56 C 0.95945 0.29035 0.28025 0.0
N57 N 1.01102 0.27034 0.32704 0.0
C58 C 0.99869 0.30258 0.33143 0.0
Co59 Co 0.02338 0.7901 0.58706 0.0
Co60 Co 0.04168 0.75423 0.66461 0.0
O61 O 1.00831 0.76576 0.62713 0.0
C62 C 0.96134 0.82655 0.60905 0.0
O63 O 0.97189 0.82324 0.64158 0.0
C64 C 0.98399 0.69579 0.65702 0.0
O65 O 0.96697 0.71104 0.63248 0.0
O66 O 0.06877 0.72903 0.62979 0.0
O67 O 0.06853 0.76607 0.58756 0.0
H68 H 0.16182 0.74328 0.71961 0.0
H69 H 0.95363 0.75238 0.58007 0.0
O70 O 0.97881 0.81486 0.58449 0.0
H71 H 0.0186 0.69805 0.48778 0.0
H72 H 1.00678 0.84017 0.47037 0.0
H73 H 0.08986 0.8257 0.57025 0.0
H74 H 0.04601 0.74675 0.52676 0.0
H75 H 0.98828 0.80831 0.52007 0.0
O76 O 0.01341 0.70896 0.6708 0.0
H77 H 0.1187 0.75872 0.67412 0.0
H78 H 0.03609 0.72329 0.73312 0.0
H79 H 0.10956 0.8575 0.52096 0.0
H80 H 0.92505 0.70395 0.5414 0.0
H81 H 0.06787 0.86489 0.47055 0.0
H82 H 0.95764 0.67636 0.49492 0.0
O83 O 0.04532 0.82873 0.61918 0.0
H84 H 0.93383 0.78975 0.72128 0.0
H85 H 0.06174 0.80542 0.72462 0.0
H86 H 0.03053 0.83811 0.768 0.0
H87 H 0.96608 0.83022 0.76676 0.0
H88 H 0.96583 0.75842 0.67795 0.0
H89 H 0.07832 0.70716 0.77909 0.0
H90 H 0.14169 0.71729 0.77255 0.0
O91 O 0.071 0.79913 0.66065 0.0
C92 C 0.08065 0.74015 0.6022 0.0
C93 C 0.13428 0.73883 0.7228 0.0
C94 C 0.08741 0.71851 0.75616 0.0
N95 N 0.07493 0.74213 0.70105 0.0
C96 C 0.10974 0.7476 0.69718 0.0
C97 C 0.06363 0.72759 0.72999 0.0
C98 C 0.12296 0.72421 0.75249 0.0
C99 C 0.96794 0.74057 0.55986 0.0
N100 N 1.00152 0.75222 0.55591 0.0
C101 C 0.95164 0.71313 0.53806 0.0
C102 C 0.96995 0.69765 0.512 0.0
C103 C 1.00416 0.70977 0.50802 0.0
C104 C 0.01961 0.73725 0.53032 0.0
C105 C 0.02521 0.83706 0.49215 0.0
C106 C 0.07163 0.82864 0.54831 0.0
C107 C 0.01487 0.8191 0.52039 0.0
N108 N 0.03806 0.8149 0.54789 0.0
C109 C 0.08291 0.84675 0.52052 0.0
C110 C 0.05949 0.85091 0.49226 0.0
C111 C 0.0662 0.82742 0.64599 0.0
C112 C 0.96195 0.79313 0.72235 0.0
C113 C 0.03369 0.80175 0.72371 0.0
C114 C 0.01616 0.82037 0.74847 0.0
C115 C 0.98003 0.81592 0.74778 0.0
N116 N 0.01586 0.77915 0.69891 0.0
C117 C 0.98037 0.77498 0.69799 0.0
Co118 Co 0.50433 0.73754 0.93393 0.0
Co119 Co 0.54508 0.75657 0.86148 0.0
O120 O 0.51874 0.77146 0.90092 0.0
C121 C 0.44289 0.78047 0.92435 0.0
O122 O 0.44711 0.78063 0.89093 0.0
C123 C 0.5697 0.83233 0.88115 0.0
O124 O 0.55091 0.8328 0.9082 0.0
O125 O 0.58143 0.74085 0.8954 0.0
O126 O 0.54552 0.7095 0.92608 0.0
H127 H 0.61369 0.67171 0.79541 0.0
H128 H 0.51093 0.81232 0.95799 0.0
O129 O 0.46301 0.76424 0.94401 0.0
H130 H 0.59118 0.75631 0.03809 0.0
H131 H 0.45501 0.69971 0.04408 0.0
H132 H 0.49971 0.66046 0.93253 0.0
H133 H 0.55561 0.72144 0.99127 0.0
H134 H 0.47534 0.74233 1.00376 0.0
O135 O 0.57155 0.80407 0.86236 0.0
H136 H 0.57898 0.69201 0.84312 0.0
H137 H 0.56965 0.78881 0.79825 0.0
H138 H 0.47991 0.61697 0.97222 0.0
H139 H 0.54571 0.84817 1.00478 0.0
H140 H 0.45736 0.63651 0.02846 0.0
H141 H 0.58633 0.82018 0.04514 0.0
O142 O 0.4771 0.70989 0.895 0.0
H143 H 0.458 0.83846 0.81798 0.0
H144 H 0.50885 0.72631 0.79458 0.0
H145 H 0.46322 0.74446 0.75339 0.0
H146 H 0.43759 0.80106 0.7648 0.0
H147 H 0.50303 0.81901 0.85877 0.0
H148 H 0.60457 0.76971 0.7503 0.0
H149 H 0.6267 0.7107 0.74857 0.0
O150 O 0.51876 0.70889 0.85733 0.0
C151 C 0.57601 0.71833 0.91759 0.0
C152 C 0.60412 0.69745 0.79583 0.0
C153 C 0.59906 0.75247 0.77055 0.0
N154 N 0.57214 0.74146 0.8234 0.0
C155 C 0.5844 0.70905 0.82274 0.0
C156 C 0.57941 0.76319 0.79786 0.0
C157 C 0.61144 0.71935 0.76958 0.0
C158 C 0.5285 0.79995 0.97547 0.0
N159 N 0.5315 0.76489 0.97157 0.0
C160 C 0.54814 0.82038 1.00192 0.0
C161 C 0.57093 0.80466 0.02455 0.0
C162 C 0.57369 0.76884 0.02059 0.0
C163 C 0.5536 0.74925 0.99387 0.0
C164 C 0.46482 0.69087 0.01966 0.0
C165 C 0.49008 0.6692 0.95702 0.0
C166 C 0.47628 0.71488 0.99667 0.0
N167 N 0.48887 0.70392 0.96587 0.0
C168 C 0.47884 0.64444 0.97936 0.0
C169 C 0.46616 0.65542 1.01089 0.0
C170 C 0.48938 0.69742 0.86733 0.0
C171 C 0.4692 0.81389 0.81253 0.0
C172 C 0.49789 0.75095 0.79987 0.0
C173 C 0.47204 0.76111 0.77636 0.0
C174 C 0.45768 0.79286 0.78276 0.0
N175 N 0.50937 0.77184 0.82891 0.0
C176 C 0.49509 0.80285 0.83546 0.0
Co177 Co 0.52303 0.28406 0.09693 0.0
Co178 Co 0.54756 0.25339 0.17502 0.0
O179 O 0.5119 0.26191 0.13899 0.0
C180 C 0.4716 0.33865 0.09682 0.0
O181 O 0.49787 0.36171 0.09498 0.0
C182 C 0.50413 0.18618 0.16399 0.0
O183 O 0.50923 0.18605 0.1307 0.0
O184 O 0.57315 0.22671 0.13985 0.0
O185 O 0.56871 0.26107 0.09522 0.0
H186 H 0.66995 0.24565 0.22555 0.0
H187 H 0.45539 0.24334 0.09866 0.0
O188 O 0.47714 0.30646 0.09812 0.0
H189 H 0.51316 0.18736 1.00186 0.0
H190 H 0.49545 0.32596 0.97797 0.0
H191 H 0.58606 0.3207 0.07346 0.0
H192 H 0.54164 0.23881 0.03615 0.0
H193 H 0.48226 0.29672 0.03098 0.0
O194 O 0.51894 0.21021 0.18515 0.0
H195 H 0.6247 0.2581 0.18076 0.0
H196 H 0.54553 0.22724 0.24593 0.0
H197 H 0.60046 0.35008 0.02087 0.0
H198 H 0.4258 0.19218 0.06476 0.0
H199 H 0.55496 0.35283 0.97267 0.0
H200 H 0.45477 0.16377 0.01603 0.0
O201 O 0.54651 0.32449 0.12602 0.0
H202 H 0.44129 0.28915 0.23274 0.0
H203 H 0.56862 0.30926 0.23111 0.0
H204 H 0.53736 0.34426 0.27286 0.0
H205 H 0.47323 0.33422 0.27395 0.0
H206 H 0.47352 0.25502 0.19108 0.0
H207 H 0.58992 0.21418 0.29131 0.0
H208 H 0.65264 0.22352 0.2813 0.0
O209 O 0.57612 0.29738 0.16686 0.0
C210 C 0.58265 0.23644 0.11066 0.0
C211 C 0.64271 0.24157 0.23026 0.0
C212 C 0.59779 0.22386 0.26715 0.0
N213 N 0.58254 0.24364 0.21083 0.0
C214 C 0.61698 0.24866 0.20503 0.0
C215 C 0.57278 0.23122 0.24132 0.0
C216 C 0.63298 0.22912 0.26152 0.0
C217 C 0.468 0.23136 0.07725 0.0
N218 N 0.5001 0.24421 0.06927 0.0
C219 C 0.45119 0.20229 0.05826 0.0
C220 C 0.46748 0.18633 0.03095 0.0
C221 C 0.50025 0.19954 0.02301 0.0
C222 C 0.51629 0.22863 0.04259 0.0
C223 C 0.51552 0.32489 0.99877 0.0
C224 C 0.56618 0.32172 0.05253 0.0
C225 C 0.50819 0.30839 0.02883 0.0
N226 N 0.53343 0.3069 0.05518 0.0
C227 C 0.57446 0.33842 0.02285 0.0
C228 C 0.54891 0.33997 0.99582 0.0
C229 C 0.56952 0.32473 0.15136 0.0
C230 C 0.46924 0.29371 0.23258 0.0
C231 C 0.5407 0.3048 0.2313 0.0
C232 C 0.52315 0.32466 0.25508 0.0
C233 C 0.48717 0.31901 0.25568 0.0
N234 N 0.52295 0.27998 0.20874 0.0
C235 C 0.48766 0.27438 0.20912 0.0
Co236 Co 0.02724 0.73469 0.1096 0.0
Co237 Co 0.99632 0.75612 0.18852 0.0
O238 O 0.019 0.76941 0.147 0.0
C239 C 0.09568 0.77705 0.12027 0.0
O240 O 0.09687 0.77163 0.15354 0.0
C241 C 0.96042 0.81891 0.16713 0.0
O242 O 0.9625 0.80826 0.13445 0.0
O243 O 0.95578 0.73435 0.15857 0.0
O244 O 0.98307 0.70606 0.11709 0.0
H245 H 0.93057 0.67364 0.26 0.0
H246 H 0.02793 0.80911 0.09421 0.0
O247 O 0.07066 0.76311 0.09977 0.0
H248 H 0.93574 0.74894 0.01314 0.0
H249 H 0.06491 0.6955 0.9918 0.0
H250 H 0.02187 0.65761 0.1016 0.0
H251 H 0.96998 0.71607 0.05416 0.0
H252 H 0.05273 0.73868 0.03853 0.0
O253 O 0.97278 0.80137 0.19139 0.0
H254 H 0.96029 0.69113 0.20863 0.0
H255 H 0.98236 0.79338 0.25581 0.0
H256 H 0.03346 0.61357 0.05543 0.0
H257 H 0.99486 0.84285 0.053 0.0
H258 H 0.05514 0.63243 1.00004 0.0
H259 H 0.9482 0.81279 0.01225 0.0
O260 O 0.05391 0.70763 0.14366 0.0
H261 H 0.0884 0.85184 0.22527 0.0
H262 H 0.04119 0.73444 0.24833 0.0
H263 H 0.09264 0.76131 0.2839 0.0
H264 H 0.11654 0.82047 0.2725 0.0
H265 H 0.03714 0.82385 0.19011 0.0
H266 H 0.95262 0.7771 0.30756 0.0
H267 H 0.92661 0.7168 0.30994 0.0
O268 O 0.01918 0.7104 0.18786 0.0
C269 C 0.95565 0.71215 0.13262 0.0
C270 C 0.9419 0.69996 0.25932 0.0
C271 C 0.95424 0.75804 0.286 0.0
N272 N 0.97329 0.74313 0.22935 0.0
C273 C 0.95884 0.70999 0.23035 0.0
C274 C 0.97099 0.76713 0.2566 0.0
C275 C 0.93966 0.7242 0.28732 0.0
C276 C 1.00801 0.79574 0.07625 0.0
N277 N 1.0009 0.76063 0.07671 0.0
C278 C 0.98923 0.81503 0.05309 0.0
C279 C 0.96301 0.79816 0.03028 0.0
C280 C 0.95597 0.76234 0.0308 0.0
C281 C 0.97533 0.74389 0.05426 0.0
C282 C 0.05542 0.68696 0.01579 0.0
C283 C 0.03114 0.66603 0.07751 0.0
C284 C 0.04856 0.71128 0.0424 0.0
N285 N 0.0364 0.70068 0.0727 0.0
C286 C 0.03773 0.64097 0.05149 0.0
C287 C 0.04992 0.65157 0.02043 0.0
C288 C 0.04371 0.69683 0.17216 0.0
C289 C 0.07816 0.8261 0.23055 0.0
C290 C 0.05149 0.76015 0.24313 0.0
C291 C 0.08059 0.77526 0.26341 0.0
C292 C 0.09397 0.80846 0.25702 0.0
N293 N 0.03609 0.77766 0.21728 0.0
C294 C 0.04908 0.81018 0.21082 0.0
Co295 Co 0.5225 0.73538 0.42018 0.0
Co296 Co 0.53481 0.77717 0.34531 0.0
O297 O 0.50481 0.7619 0.3815 0.0
C298 C 0.44902 0.70507 0.39974 0.0
O299 O 0.4499 0.71851 0.36953 0.0
C300 C 0.48637 0.83545 0.35656 0.0
O301 O 0.47187 0.82059 0.38208 0.0
O302 O 0.5683 0.80116 0.382 0.0
O303 O 0.56941 0.76207 0.42233 0.0
H304 H 0.64993 0.7962 0.29356 0.0
H305 H 0.45734 0.77177 0.42712 0.0
O306 O 0.4759 0.70803 0.42113 0.0
H307 H 0.53709 0.81977 0.52621 0.0
H308 H 0.51585 0.67683 0.53268 0.0
H309 H 0.58837 0.70239 0.43586 0.0
H310 H 0.55533 0.77463 0.4846 0.0
H311 H 0.49388 0.71097 0.48515 0.0
O312 O 0.51102 0.82171 0.34153 0.0
H313 H 0.61045 0.77628 0.33699 0.0
H314 H 0.52422 0.8122 0.27888 0.0
H315 H 0.61145 0.6684 0.48302 0.0
H316 H 0.43782 0.81641 0.46841 0.0
H317 H 0.57509 0.65542 0.53189 0.0
H318 H 0.47786 0.84089 0.51837 0.0
O319 O 0.53824 0.69954 0.38613 0.0
H320 H 0.4156 0.74512 0.28567 0.0
H321 H 0.54106 0.73092 0.28142 0.0
H322 H 0.50013 0.70083 0.23592 0.0
H323 H 0.43679 0.70801 0.23768 0.0
H324 H 0.45736 0.7738 0.33108 0.0
H325 H 0.56282 0.83281 0.23505 0.0
H326 H 0.62614 0.8247 0.24215 0.0
O327 O 0.56003 0.73326 0.34651 0.0
C328 C 0.5816 0.78979 0.40979 0.0
C329 C 0.62237 0.79977 0.29012 0.0
C330 C 0.57348 0.82036 0.2573 0.0
N331 N 0.56503 0.79278 0.31036 0.0
C332 C 0.59987 0.78844 0.31456 0.0
C333 C 0.55177 0.80871 0.28228 0.0
C334 C 0.60901 0.81579 0.2613 0.0
C335 C 0.47485 0.78195 0.44889 0.0
N336 N 0.50748 0.77048 0.4533 0.0
C337 C 0.46368 0.80739 0.47216 0.0
C338 C 0.48616 0.82115 0.50014 0.0
C339 C 0.5194 0.80934 0.50453 0.0
C340 C 0.52966 0.78387 0.48074 0.0
C341 C 0.53196 0.68235 0.51155 0.0
C342 C 0.57245 0.69699 0.45711 0.0
C343 C 0.51962 0.70159 0.48449 0.0
N344 N 0.53991 0.70884 0.45782 0.0
C345 C 0.58563 0.67766 0.4837 0.0
C346 C 0.5652 0.67036 0.5111 0.0
C347 C 0.55634 0.70405 0.36005 0.0
C348 C 0.44313 0.74178 0.28458 0.0
C349 C 0.51361 0.73366 0.28286 0.0
C350 C 0.49051 0.7168 0.25677 0.0
C351 C 0.45501 0.72091 0.25771 0.0
N352 N 0.50184 0.754 0.30929 0.0
C353 C 0.46704 0.75822 0.31021 0.0
Co354 Co 0.52845 0.23513 0.6078 0.0
Co355 Co 0.49693 0.25754 0.68626 0.0
O356 O 0.51961 0.2703 0.64459 0.0
C357 C 0.5961 0.27834 0.61917 0.0
O358 O 0.59632 0.2735 0.65253 0.0
C359 C 0.46115 0.32021 0.66375 0.0
O360 O 0.46442 0.30988 0.63119 0.0
O361 O 0.45674 0.23484 0.65647 0.0
O362 O 0.48428 0.20636 0.61527 0.0
H363 H 0.43186 0.17562 0.75885 0.0
H364 H 0.52894 0.3092 0.59105 0.0
O365 O 0.57185 0.26368 0.59817 0.0
H366 H 0.43757 0.24734 0.5102 0.0
H367 H 0.56767 0.19468 0.49103 0.0
H368 H 0.52357 0.15804 0.60083 0.0
H369 H 0.47164 0.21538 0.55218 0.0
H370 H 0.55472 0.23834 0.537 0.0
O371 O 0.47273 0.30251 0.68824 0.0
H372 H 0.46159 0.19261 0.70731 0.0
H373 H 0.48221 0.29566 0.75289 0.0
H374 H 0.53594 0.11351 0.55543 0.0
H375 H 0.49606 0.34201 0.54884 0.0
H376 H 0.55816 0.13175 0.50005 0.0
H377 H 0.4498 0.31111 0.50821 0.0
O378 O 0.55515 0.20876 0.64245 0.0
H379 H 0.58773 0.35477 0.72186 0.0
H380 H 0.54187 0.23745 0.74676 0.0
H381 H 0.59289 0.26547 0.78217 0.0
H382 H 0.6161 0.32459 0.76986 0.0
H383 H 0.53693 0.32564 0.68687 0.0
H384 H 0.45243 0.27988 0.80477 0.0
H385 H 0.42714 0.21944 0.80804 0.0
O386 O 0.52042 0.21219 0.68658 0.0
C387 C 0.4568 0.21235 0.63078 0.0
C388 C 0.44288 0.20201 0.75778 0.0
C389 C 0.45439 0.26054 0.78354 0.0
N390 N 0.47388 0.24498 0.72723 0.0
C391 C 0.45982 0.21175 0.72871 0.0
C392 C 0.47116 0.26933 0.75406 0.0
C393 C 0.44021 0.22662 0.78536 0.0
C394 C 0.5092 0.29545 0.57314 0.0
N395 N 0.50221 0.26039 0.57422 0.0
C396 C 0.49052 0.31422 0.54942 0.0
C397 C 0.46453 0.29688 0.52667 0.0
C398 C 0.45762 0.26111 0.52781 0.0
C399 C 0.47687 0.24318 0.55183 0.0
C400 C 0.55795 0.18641 0.51503 0.0
C401 C 0.53307 0.16618 0.57673 0.0
C402 C 0.55065 0.21101 0.54119 0.0
N403 N 0.53819 0.20074 0.57149 0.0
C404 C 0.5401 0.14085 0.55115 0.0
C405 C 0.5526 0.1511 0.5201 0.0
C406 C 0.54513 0.19854 0.67122 0.0
C407 C 0.57779 0.32905 0.72755 0.0
C408 C 0.55188 0.26314 0.74116 0.0
C409 C 0.58073 0.2789 0.76136 0.0
C410 C 0.59373 0.31208 0.75445 0.0
N411 N 0.53634 0.27999 0.71488 0.0
C412 C 0.54896 0.3125 0.70792 0.0
Co413 Co 0.0222 0.23632 0.92102 0.0
Co414 Co 0.03461 0.27723 0.84585 0.0
O415 O 1.00446 0.26242 0.88213 0.0
C416 C 0.94782 0.20711 0.90221 0.0
O417 O 0.94731 0.22267 0.87306 0.0
C418 C 0.98773 0.33647 0.85771 0.0
O419 O 0.97797 0.32503 0.887 0.0
O420 O 0.06748 0.30251 0.88237 0.0
O421 O 0.06898 0.26348 0.92284 0.0
H422 H 0.14993 0.29747 0.79479 0.0
H423 H 0.9571 0.27326 0.92768 0.0
O424 O 0.97567 0.20861 0.92224 0.0
H425 H 0.03667 0.3206 0.02711 0.0
H426 H 0.01621 0.17822 0.03385 0.0
H427 H 0.08843 0.20409 0.93688 0.0
H428 H 0.05488 0.27554 0.98543 0.0
H429 H 0.99385 0.21193 0.98615 0.0
O430 O 1.00978 0.32084 0.84048 0.0
H431 H 0.11055 0.27818 0.83856 0.0
H432 H 0.0236 0.30923 0.77779 0.0
H433 H 0.11192 0.17055 0.98422 0.0
H434 H 0.93756 0.31768 0.96911 0.0
H435 H 0.07571 0.15741 0.03316 0.0
H436 H 0.97751 0.34188 0.01923 0.0
O437 O 0.03799 0.20023 0.88716 0.0
H438 H 0.916 0.24363 0.78623 0.0
H439 H 0.04147 0.22842 0.7837 0.0
H440 H 1.00062 0.19668 0.7391 0.0
H441 H 0.93729 0.20431 0.74004 0.0
H442 H 0.95775 0.27412 0.83079 0.0
H443 H 0.06207 0.32915 0.73357 0.0
H444 H 0.12572 0.32318 0.74184 0.0
O445 O 0.06084 0.23409 0.84835 0.0
C446 C 0.08082 0.29141 0.91031 0.0
C447 C 0.12223 0.30013 0.79085 0.0
C448 C 0.07293 0.31795 0.75651 0.0
N449 N 0.06479 0.29237 0.81068 0.0
C450 C 0.09979 0.28918 0.8155 0.0
C451 C 0.05128 0.30671 0.78171 0.0
C452 C 0.10864 0.31458 0.76116 0.0
C453 C 0.97453 0.28314 0.94958 0.0
N454 N 1.0071 0.27154 0.95402 0.0
C455 C 0.96337 0.30855 0.9729 0.0
C456 C 0.98581 0.32217 1.00097 0.0
C457 C 0.019 0.31028 1.00537 0.0
C458 C 0.02925 0.28485 0.98153 0.0
C459 C 0.03225 0.18381 0.01268 0.0
C460 C 0.07257 0.19862 0.95817 0.0
C461 C 0.01969 0.20279 0.98553 0.0
N462 N 0.03989 0.21013 0.95882 0.0
C463 C 0.08598 0.17955 0.98486 0.0
C464 C 0.06564 0.17216 0.01229 0.0
C465 C 0.05666 0.20476 0.86151 0.0
C466 C 0.94352 0.24 0.78557 0.0
C467 C 0.01401 0.23133 0.78479 0.0
C468 C 0.99097 0.21355 0.75921 0.0
C469 C 0.95547 0.21791 0.7597 0.0
N470 N 1.00213 0.25277 0.81029 0.0
C471 C 0.96736 0.25734 0.81071 0.0
Co472 Co 0.36193 0.0463 0.25716 0.0
Co473 Co 0.43486 1.00557 0.23975 0.0
O474 O 0.4014 0.02036 0.27295 0.0
C475 C 0.38172 0.07266 0.33228 0.0
O476 O 0.40949 0.05487 0.33278 0.0
C477 C 0.42468 0.94506 0.28367 0.0
O478 O 0.39119 0.94928 0.28297 0.0
O479 O 0.39628 0.97801 0.21192 0.0
O480 O 0.35834 0.01941 0.20981 0.0
H481 H 0.47467 0.97985 0.12008 0.0
H482 H 0.35877 1.00591 0.32054 0.0
O483 O 0.3623 0.07332 0.30422 0.0
H484 H 0.25455 0.96357 0.24519 0.0
H485 H 0.25003 0.10518 0.26801 0.0
H486 H 0.34398 0.07929 0.19191 0.0
H487 H 0.29555 1.00907 0.22662 0.0
H488 H 0.29815 0.07088 0.28825 0.0
O489 O 0.44463 0.96468 0.26727 0.0
H490 H 0.43442 1.00014 0.16274 0.0
H491 H 0.50469 0.97653 0.24593 0.0
H492 H 0.29612 0.11337 0.17048 0.0
H493 H 0.31813 0.96102 0.34042 0.0
H494 H 0.24871 0.12652 0.20866 0.0
H495 H 0.26555 0.93934 0.3026 0.0
O496 O 0.39584 0.08246 0.2414 0.0
H497 H 0.50488 0.048 0.35069 0.0
H498 H 0.49229 0.05663 0.22371 0.0
H499 H 0.53883 0.09253 0.25866 0.0
H500 H 0.54542 0.08831 0.32265 0.0
H501 H 0.45836 0.01292 0.31476 0.0
H502 H 0.54557 0.95571 0.20416 0.0
H503 H 0.53072 0.95743 0.14072 0.0
O504 O 0.42726 0.0464 0.21107 0.0
C505 C 0.36869 0.99002 0.19885 0.0
C506 C 0.48148 0.97905 0.14766 0.0
C507 C 0.52124 0.96546 0.19484 0.0
N508 N 0.46725 0.98971 0.20681 0.0
C509 C 0.45881 0.99057 0.17195 0.0
C510 C 0.49793 0.97719 0.21838 0.0
C511 C 0.51291 0.96644 0.15926 0.0
C512 C 0.33571 0.99734 0.30416 0.0
N513 N 0.32942 1.01077 0.27266 0.0
C514 C 0.31287 0.97157 0.31546 0.0
C515 C 0.28344 0.95935 0.29421 0.0
C516 C 0.27727 0.97291 0.262 0.0
C517 C 0.30068 0.99866 0.25158 0.0
C518 C 0.27052 0.0996 0.25112 0.0
C519 C 0.32335 0.08477 0.2086 0.0
C520 C 0.29793 0.0803 0.26248 0.0
N521 N 0.32378 0.07294 0.24119 0.0
C522 C 0.29637 0.10415 0.19636 0.0
C523 C 0.26979 0.11154 0.21781 0.0
C524 C 0.41854 0.07692 0.21948 0.0
C525 C 0.50221 0.05016 0.32284 0.0
C526 C 0.49466 0.05493 0.25158 0.0
C527 C 0.52123 0.07518 0.27121 0.0
C528 C 0.52494 0.07278 0.3071 0.0
N529 N 0.47224 0.03304 0.26724 0.0
C530 C 0.47591 0.03035 0.30237 0.0
Co531 Co 0.25397 0.17103 0.54503 0.0
Co532 Co 0.28506 0.09229 0.52308 0.0
O533 O 0.26246 0.13397 0.51001 0.0
C534 C 0.18633 0.16084 0.50121 0.0
O535 O 0.18548 0.12737 0.50565 0.0
C536 C 0.3212 0.11404 0.46064 0.0
O537 O 0.3189 0.1467 0.47126 0.0
O538 O 0.32549 0.12209 0.54528 0.0
O539 O 0.29799 0.16318 0.57393 0.0
H540 H 0.35032 0.02014 0.60545 0.0
H541 H 0.25397 0.18721 0.47086 0.0
O542 O 0.21077 0.18129 0.51634 0.0
H543 H 0.34572 0.26763 0.53265 0.0
H544 H 0.21604 0.2885 0.58512 0.0
H545 H 0.25873 0.17816 0.62214 0.0
H546 H 0.3111 0.2263 0.56474 0.0
H547 H 0.22857 0.24222 0.5416 0.0
O548 O 0.30886 0.08972 0.47805 0.0
H549 H 0.32075 0.07169 0.5881 0.0
H550 H 0.29925 0.02522 0.48548 0.0
H551 H 0.24678 0.22386 0.66652 0.0
H552 H 0.28741 0.22876 0.43789 0.0
H553 H 0.22527 0.27951 0.6481 0.0
H554 H 0.33386 0.26918 0.46876 0.0
O555 O 0.22699 0.13663 0.5715 0.0
H556 H 0.19364 0.05617 0.42648 0.0
H557 H 0.24007 0.03228 0.54398 0.0
H558 H 0.18883 0.99685 0.51649 0.0
H559 H 0.16533 1.00865 0.45727 0.0
H560 H 0.24466 0.0912 0.45511 0.0
H561 H 0.32887 0.9733 0.50162 0.0
H562 H 0.35452 0.97047 0.56203 0.0
O563 O 0.26195 0.0926 0.56855 0.0
C564 C 0.32552 0.14784 0.56772 0.0
C565 C 0.33915 0.02101 0.57907 0.0
C566 C 0.32715 0.99475 0.52079 0.0
N567 N 0.30803 0.05134 0.53592 0.0
C568 C 0.3223 0.05009 0.56913 0.0
C569 C 0.31047 0.02424 0.51179 0.0
C570 C 0.34152 0.99317 0.55469 0.0
C571 C 0.27379 0.20504 0.48459 0.0
N572 N 0.28057 0.20421 0.51971 0.0
C573 C 0.29278 0.22838 0.46573 0.0
C574 C 0.31888 0.251 0.48306 0.0
C575 C 0.32558 0.25012 0.51889 0.0
C576 C 0.30601 0.22648 0.5369 0.0
C577 C 0.22545 0.26438 0.59348 0.0
C578 C 0.24954 0.20237 0.61391 0.0
C579 C 0.23251 0.23804 0.56895 0.0
N580 N 0.24457 0.20758 0.57932 0.0
C581 C 0.24274 0.22812 0.63916 0.0
C582 C 0.23065 0.25933 0.62881 0.0
C583 C 0.2372 0.108 0.58204 0.0
C584 C 0.2037 0.05071 0.45224 0.0
C585 C 0.22993 0.03767 0.51826 0.0
C586 C 0.20096 0.01746 0.50279 0.0
C587 C 0.1878 0.02408 0.46956 0.0
N588 N 0.24542 0.06369 0.50108 0.0
C589 C 0.23265 0.07037 0.46852 0.0
Co590 Co 0.19098 0.99381 0.7565 0.0
Co591 Co 0.11332 0.02958 0.73827 0.0
O592 O 0.15091 0.01814 0.77159 0.0
C593 C 0.16914 0.9574 0.81867 0.0
O594 O 0.13658 0.96079 0.80826 0.0
C595 C 0.12113 0.08824 0.79574 0.0
O596 O 0.14584 0.07309 0.81264 0.0
O597 O 0.14803 0.05474 0.711 0.0
O598 O 0.19035 0.0178 0.71133 0.0
H599 H 0.05793 0.04012 0.61824 0.0
H600 H 0.19812 0.03154 0.82622 0.0
O601 O 0.19366 0.96905 0.80109 0.0
H602 H 0.29024 0.08591 0.761 0.0
H603 H 0.30774 0.94381 0.77297 0.0
H604 H 0.20772 0.9582 0.69003 0.0
H605 H 0.25118 0.03721 0.7337 0.0
H606 H 0.25807 0.97567 0.79151 0.0
O607 O 0.10713 0.07491 0.76647 0.0
H608 H 0.1036 0.02492 0.66128 0.0
H609 H 0.04474 0.06037 0.74396 0.0
H610 H 0.25699 0.9264 0.6703 0.0
H611 H 0.23688 0.07997 0.85468 0.0
H612 H 0.30747 0.91905 0.71192 0.0
H613 H 0.28328 0.10758 0.82197 0.0
O614 O 0.15889 0.95514 0.73461 0.0
H615 H 0.05698 0.99435 0.84638 0.0
H616 H 0.0534 0.97814 0.71853 0.0
H617 H 1.0102 0.94543 0.74998 0.0
H618 H 1.01156 0.95359 0.81439 0.0
H619 H 0.10014 0.0257 0.81414 0.0
H620 H 0.99859 0.07626 0.70181 0.0
H621 H 1.00496 0.066 0.63845 0.0
O622 O 0.11728 0.98464 0.70902 0.0
C623 C 0.17559 0.04359 0.69908 0.0
C624 C 0.05481 0.04463 0.64579 0.0
C625 C 0.02153 0.06496 0.69269 0.0
N626 N 0.07676 0.04154 0.70508 0.0
C627 C 0.08054 0.03599 0.67028 0.0
C628 C 0.04781 0.05601 0.71643 0.0
C629 C 0.02511 0.05918 0.65714 0.0
C630 C 0.21829 0.04336 0.81185 0.0
N631 N 0.22215 0.03172 0.77826 0.0
C632 C 0.24014 0.0708 0.82809 0.0
C633 C 0.26615 0.0863 0.80971 0.0
C634 C 0.27004 0.07418 0.77549 0.0
C635 C 0.2477 0.04671 0.7601 0.0
C636 C 0.28593 0.94691 0.75457 0.0
C637 C 0.22969 0.95528 0.70823 0.0
C638 C 0.2577 0.96487 0.76493 0.0
N639 N 0.23016 0.96904 0.74178 0.0
C640 C 0.25747 0.93717 0.69694 0.0
C641 C 0.28577 0.93303 0.72031 0.0
C642 C 0.13212 0.95642 0.71367 0.0
C643 C 0.05586 0.99085 0.81827 0.0
C644 C 0.05437 0.98192 0.74656 0.0
C645 C 0.0297 0.9633 0.76423 0.0
C646 C 0.03046 0.9679 0.80034 0.0
N647 N 0.07913 1.00467 0.76425 0.0
C648 C 0.08012 1.009 0.79972 0.0
Co649 Co 0.27756 0.84486 0.03981 0.0
Co650 Co 0.23431 0.91686 0.02329 0.0
O651 O 0.26157 0.87847 1.00719 0.0
C652 C 0.3334 0.85168 0.98824 0.0
O653 O 0.3192 0.87792 0.9744 0.0
C654 C 0.20842 0.89704 0.948 0.0
O655 O 0.22611 0.86922 0.94788 0.0
O656 O 0.19896 0.88177 0.03848 0.0
O657 O 0.23572 0.84995 0.0677 0.0
H658 H 0.16461 0.97912 0.10993 0.0
H659 H 0.27064 0.82265 0.96397 0.0
O660 O 0.32024 0.83748 0.01371 0.0
H661 H 0.19524 0.73758 0.01902 0.0
H662 H 0.33188 0.73602 0.07465 0.0
H663 H 0.28163 0.84378 0.11671 0.0
H664 H 0.22892 0.78515 0.05453 0.0
H665 H 0.30993 0.77675 0.03318 0.0
O666 O 0.20753 0.91649 0.97598 0.0
H667 H 0.20025 0.9327 0.08832 0.0
H668 H 0.20821 0.98037 0.99284 0.0
H669 H 0.30301 0.80361 0.15905 0.0
H670 H 0.23788 0.77519 0.92759 0.0
H671 H 0.32836 0.74927 0.13809 0.0
H672 H 0.19966 0.73224 0.95504 0.0
O673 O 0.30337 0.88379 0.06862 0.0
H674 H 0.31749 0.9658 0.94066 0.0
H675 H 0.27028 0.98313 0.05544 0.0
H676 H 0.31475 0.02583 0.03787 0.0
H677 H 0.3386 0.01744 0.97999 0.0
H678 H 0.27352 0.92352 0.95951 0.0
H679 H 0.17238 0.02708 0.01327 0.0
H680 H 0.15046 0.02675 0.07228 0.0
O681 O 0.26081 0.92039 0.07088 0.0
C682 C 0.20504 0.85882 0.06004 0.0
C683 C 0.17408 0.9796 0.0842 0.0
C684 C 0.17839 1.00649 0.02993 0.0
N685 N 0.20646 0.9539 0.03945 0.0
C686 C 0.19433 0.95343 0.07186 0.0
C687 C 0.19857 0.97988 0.01846 0.0
C688 C 0.16612 1.0063 0.06305 0.0
C689 C 0.2544 0.80403 0.97625 0.0
N690 N 0.25179 0.8069 0.01141 0.0
C691 C 0.23575 0.7772 0.95545 0.0
C692 C 0.21428 0.75314 0.97085 0.0
C693 C 0.21177 0.75614 1.00672 0.0
C694 C 0.23082 0.78329 0.02669 0.0
C695 C 0.32083 0.75958 0.08411 0.0
C696 C 0.29245 0.8201 0.10735 0.0
C697 C 0.30843 0.7828 0.06075 0.0
N698 N 0.29428 0.81253 0.07249 0.0
C699 C 0.30459 0.79749 0.13147 0.0
C700 C 0.31884 0.76703 0.11969 0.0
C701 C 0.29044 0.91067 0.08199 0.0
C702 C 0.30724 0.96982 0.96591 0.0
C703 C 0.28066 0.97904 0.03034 0.0
C704 C 0.30578 1.00345 0.02047 0.0
C705 C 0.31912 0.99875 0.988 0.0
N706 N 0.26903 0.95069 1.00854 0.0
C707 C 0.28211 0.94595 0.9767 0.0
Co708 Co 0.24839 0.4331 0.99825 0.0
Co709 Co 0.25935 0.358 0.0394 0.0
O710 O 0.27745 0.39597 0.01259 0.0
C711 C 0.29593 0.42119 0.93936 0.0
O712 O 0.31104 0.39606 0.95436 0.0
C713 C 0.33013 0.37962 0.07424 0.0
O714 O 0.32334 0.41238 0.0729 0.0
O715 O 0.24617 0.39269 0.07609 0.0
O716 O 0.22462 0.43309 0.04308 0.0
H717 H 0.17195 0.29793 0.11002 0.0
H718 H 0.32634 0.44181 1.00347 0.0
O719 O 0.27107 0.43591 0.95307 0.0
H720 H 0.28873 0.54294 0.0718 0.0
H721 H 0.22229 0.54384 0.94239 0.0
H722 H 0.17354 0.44433 1.00165 0.0
H723 H 0.24554 0.49935 0.04208 0.0
H724 H 0.25994 0.49883 0.96221 0.0
O725 O 0.30679 0.35565 0.06383 0.0
H726 H 0.19481 0.34446 0.0752 0.0
H727 H 0.28684 0.29194 0.0622 0.0
H728 H 0.13504 0.48904 0.98263 0.0
H729 H 0.37033 0.48512 0.03193 0.0
H730 H 0.1594 0.53923 0.95275 0.0
H731 H 0.35174 0.53615 0.06665 0.0
O732 O 0.21311 0.39733 0.97505 0.0
H733 H 0.33961 0.30681 0.95567 0.0
H734 H 0.22317 0.29482 1.00048 0.0
H735 H 0.23864 0.25279 0.95427 0.0
H736 H 0.2973 0.25856 0.93159 0.0
H737 H 0.32284 0.34857 1.00153 0.0
H738 H 0.26509 0.245 0.09712 0.0
H739 H 0.20719 0.24774 0.12118 0.0
O740 O 0.21164 0.35765 0.01477 0.0
C741 C 0.22899 0.41956 0.07226 0.0
C742 C 0.19718 0.2964 0.09961 0.0
C743 C 0.24948 0.26672 0.09241 0.0
N744 N 0.24204 0.32085 0.06653 0.0
C745 C 0.21024 0.32263 0.07981 0.0
C746 C 0.26171 0.29344 0.07274 0.0
C747 C 0.21698 0.26826 0.10589 0.0
C748 C 0.31776 0.4641 0.01782 0.0
N749 N 0.2831 0.46793 0.02069 0.0
C750 C 0.34295 0.4885 0.03421 0.0
C751 C 0.33252 0.51706 0.05377 0.0
C752 C 0.2972 0.52084 0.05672 0.0
C753 C 0.27279 0.49589 0.03997 0.0
C754 C 0.21139 0.52213 0.95544 0.0
C755 C 0.18438 0.46624 0.98891 0.0
C756 C 0.23255 0.49648 0.96663 0.0
N757 N 0.219 0.46909 0.98336 0.0
C758 C 0.16243 0.49141 0.97809 0.0
C759 C 0.17611 0.51954 0.96128 0.0
C760 C 0.19931 0.37006 0.98702 0.0
C761 C 0.31394 0.30406 0.96526 0.0
C762 C 0.24854 0.29784 0.99045 0.0
C763 C 0.25726 0.27379 0.96442 0.0
C764 C 0.29018 0.27701 0.95175 0.0
N765 N 0.27191 0.32443 1.00347 0.0
C766 C 0.30429 0.32762 0.99128 0.0
Co767 Co 0.75566 0.18678 0.99691 0.0
Co768 Co 0.73353 0.10802 0.02795 0.0
O769 O 0.76865 0.14497 0.01933 0.0
C770 C 0.81909 0.16521 0.96201 0.0
O771 O 0.8096 0.13255 0.96585 0.0
C772 C 0.77711 0.11863 0.09549 0.0
O773 O 0.77225 0.152 0.09616 0.0
O774 O 0.70739 0.14247 0.05503 0.0
O775 O 0.71024 0.18662 0.02023 0.0
H776 H 0.61186 0.05567 0.03553 0.0
H777 H 0.82369 0.18747 0.03721 0.0
O778 O 0.80067 0.18935 0.97291 0.0
H779 H 0.76285 0.28199 0.09334 0.0
H780 H 0.77737 0.30586 0.95332 0.0
H781 H 0.69062 0.20763 0.96148 0.0
H782 H 0.73515 0.24683 0.04205 0.0
H783 H 0.79342 0.25384 0.9828 0.0
O784 O 0.76228 0.09792 0.07111 0.0
H785 H 0.65641 0.10116 0.02333 0.0
H786 H 0.73674 0.03692 0.05363 0.0
H787 H 0.67336 0.2593 0.93204 0.0
H788 H 0.85252 0.22221 0.08828 0.0
H789 H 0.71691 0.30888 0.92782 0.0
H790 H 0.822 0.26981 0.11675 0.0
O791 O 0.73324 0.15711 0.95652 0.0
H792 H 0.84009 0.04898 0.99493 0.0
H793 H 0.71342 0.05294 0.9708 0.0
H794 H 0.7451 1.0111 0.93641 0.0
H795 H 0.80889 1.00878 0.9485 0.0
H796 H 0.80754 0.09108 0.0281 0.0
H797 H 0.69307 0.99085 0.06642 0.0
H798 H 0.63011 1.00003 0.05724 0.0
O799 O 0.70456 0.11594 0.98396 0.0
C800 C 0.69697 0.17122 0.0451 0.0
C801 C 0.63921 0.05132 0.03954 0.0
C802 C 0.68479 0.01496 0.05692 0.0
N803 N 0.69913 0.07163 0.03753 0.0
C804 C 0.66455 0.07695 0.03259 0.0
C805 C 0.7094 0.04119 0.04971 0.0
C806 C 0.64947 0.02012 0.05175 0.0
C807 C 0.81041 0.20835 0.04927 0.0
N808 N 0.77789 0.21523 0.03654 0.0
C809 C 0.82679 0.22784 0.07826 0.0
C810 C 0.80963 0.25451 0.09425 0.0
C811 C 0.77643 0.26135 0.08114 0.0
C812 C 0.76084 0.24129 0.05213 0.0
C813 C 0.75814 0.28446 0.95505 0.0
C814 C 0.70965 0.2292 0.95992 0.0
C815 C 0.76709 0.2549 0.97164 0.0
N816 N 0.74289 0.22785 0.97409 0.0
C817 C 0.69976 0.25834 0.94314 0.0
C818 C 0.72421 0.28614 0.94076 0.0
C819 C 0.71074 0.13139 0.95648 0.0
C820 C 0.81229 0.04971 0.98944 0.0
C821 C 0.74123 0.05247 0.97595 0.0
C822 C 0.75901 0.02853 0.95652 0.0
C823 C 0.79478 0.0272 0.96336 0.0
N824 N 0.7586 0.07464 1.00136 0.0
C825 C 0.79366 0.07337 1.00829 0.0
Co826 Co 0.09416 0.52003 0.28295 0.0
Co827 Co 0.171 0.54323 0.2483 0.0
O828 O 0.13533 0.50818 0.25932 0.0
C829 C 0.09651 0.46951 0.33859 0.0
O830 O 0.09532 0.49607 0.36143 0.0
C831 C 0.16677 0.48513 0.19041 0.0
O832 O 0.14311 0.46714 0.20585 0.0
O833 O 0.1346 0.56857 0.22314 0.0
O834 O 0.09164 0.56543 0.25944 0.0
H835 H 0.21989 0.66563 0.23772 0.0
H836 H 0.0915 0.45031 0.24496 0.0
O837 O 0.09638 0.47456 0.30617 0.0
H838 H 0.9957 0.51014 0.18952 0.0
H839 H 0.97737 0.49409 0.33007 0.0
H840 H 0.07243 0.58379 0.31977 0.0
H841 H 0.03285 0.53927 0.2387 0.0
H842 H 0.02893 0.48002 0.29886 0.0
O843 O 0.17878 0.51538 0.20309 0.0
H844 H 0.17657 0.62033 0.25298 0.0
H845 H 0.23992 0.54132 0.21762 0.0
H846 H 0.0213 0.59904 0.35112 0.0
H847 H 0.05468 0.42007 0.19611 0.0
H848 H 0.97331 0.554 0.35641 0.0
H849 H 1.00643 0.45005 0.16793 0.0
O850 O 0.12473 0.54397 0.32182 0.0
H851 H 0.23014 0.4383 0.28829 0.0
H852 H 0.23123 0.56621 0.29841 0.0
H853 H 0.27559 0.53717 0.33231 0.0
H854 H 0.27547 0.47272 0.32722 0.0
H855 H 0.18603 0.46821 0.25544 0.0
H856 H 0.28376 0.58576 0.20166 0.0
H857 H 0.27395 0.64843 0.21186 0.0
O858 O 0.16539 0.57195 0.2931 0.0
C859 C 0.10627 0.57892 0.23413 0.0
C860 C 0.22451 0.63841 0.23325 0.0
C861 C 0.26033 0.59358 0.21295 0.0
N862 N 0.20581 0.57824 0.23642 0.0
C863 C 0.20012 0.61265 0.24192 0.0
C864 C 0.23535 0.56854 0.22192 0.0
C865 C 0.25482 0.62874 0.2187 0.0
C866 C 0.07054 0.46354 0.23293 0.0
N867 N 0.06463 0.49667 0.24452 0.0
C868 C 0.04978 0.44628 0.20522 0.0
C869 C 0.02274 0.46312 0.18941 0.0
C870 C 0.01673 0.49685 0.20147 0.0
C871 C 0.03804 0.5133 0.22922 0.0
C872 C 0.99808 0.51396 0.32789 0.0
C873 C 0.05159 0.5641 0.32189 0.0
C874 C 0.02732 0.50614 0.31026 0.0
N875 N 0.05355 0.53113 0.30736 0.0
C876 C 0.02274 0.57286 0.3397 0.0
C877 C 0.99583 0.54757 0.34267 0.0
C878 C 0.15029 0.56647 0.32096 0.0
C879 C 0.23078 0.46643 0.29036 0.0
C880 C 0.23103 0.53817 0.29569 0.0
C881 C 0.25624 0.52186 0.3151 0.0
C882 C 0.25614 0.48573 0.31227 0.0
N883 N 0.20649 0.51915 0.27371 0.0
C884 C 0.20594 0.48364 0.27138 0.0
Co885 Co 0.7372 0.93758 0.50349 0.0
Co886 Co 0.75635 0.86494 0.54406 0.0
O887 O 0.7711 0.90468 0.5181 0.0
C888 C 0.77955 0.92708 0.44217 0.0
O889 O 0.77831 0.89357 0.44631 0.0
C890 C 0.83151 0.88588 0.56978 0.0
O891 O 0.83131 0.91361 0.55195 0.0
O892 O 0.74002 0.89833 0.58037 0.0
O893 O 0.70909 0.92976 0.54465 0.0
H894 H 0.67158 0.79735 0.61153 0.0
H895 H 0.81195 0.9621 0.50987 0.0
O896 O 0.7641 0.94739 0.46229 0.0
H897 H 0.75576 0.04165 0.59025 0.0
H898 H 0.69961 0.0476 0.45357 0.0
H899 H 0.66012 0.93627 0.49871 0.0
H900 H 0.72101 0.99466 0.55483 0.0
H901 H 0.74216 1.00724 0.4741 0.0
O902 O 0.80372 0.86616 0.57083 0.0
H903 H 0.69167 0.8456 0.57733 0.0
H904 H 0.78908 0.80187 0.56845 0.0
H905 H 0.61669 0.97601 0.4787 0.0
H906 H 0.84766 1.00908 0.54448 0.0
H907 H 0.63636 0.03214 0.45594 0.0
H908 H 0.81959 0.04916 0.58517 0.0
O909 O 0.7096 0.8987 0.47617 0.0
H910 H 0.83981 0.8231 0.4581 0.0
H911 H 0.72689 0.79818 0.50695 0.0
H912 H 0.74596 0.75767 0.46135 0.0
H913 H 0.80295 0.76985 0.43672 0.0
H914 H 0.81944 0.86322 0.5031 0.0
H915 H 0.77018 0.75338 0.60286 0.0
H916 H 0.71097 0.75081 0.62451 0.0
O917 O 0.70884 0.86054 0.51741 0.0
C918 C 0.71756 0.92062 0.57504 0.0
C919 C 0.6974 0.79814 0.60217 0.0
C920 C 0.75276 0.77349 0.59736 0.0
N921 N 0.74141 0.82647 0.57074 0.0
C922 C 0.70889 0.82535 0.58273 0.0
C923 C 0.76336 0.8011 0.57799 0.0
C924 C 0.71953 0.77205 0.60947 0.0
C925 C 0.79953 0.97945 0.52747 0.0
N926 N 0.7645 0.97528 0.53062 0.0
C927 C 0.81989 1.00601 0.54701 0.0
C928 C 0.80413 0.02848 0.56984 0.0
C929 C 0.76834 0.02426 0.57274 0.0
C930 C 0.74882 0.99743 0.55275 0.0
C931 C 0.69071 0.02324 0.46348 0.0
C932 C 0.6689 0.96072 0.48899 0.0
C933 C 0.71468 1.00023 0.47506 0.0
N934 N 0.70365 0.9695 0.4878 0.0
C935 C 0.64418 0.98308 0.47763 0.0
C936 C 0.65523 0.01456 0.46483 0.0
C937 C 0.6974 0.87074 0.4881 0.0
C938 C 0.81507 0.81732 0.46885 0.0
C939 C 0.75168 0.80381 0.4964 0.0
C940 C 0.76238 0.78068 0.47057 0.0
C941 C 0.79434 0.78751 0.45679 0.0
N942 N 0.77226 0.8329 0.50839 0.0
C943 C 0.8035 0.83986 0.4947 0.0
Co944 Co 0.84678 0.03957 0.27638 0.0
Co945 Co 0.91896 0.02285 0.23368 0.0
O946 O 0.88035 1.00678 0.26069 0.0
C947 C 0.85246 0.98771 0.33214 0.0
O948 O 0.87812 0.97295 0.31782 0.0
C949 C 0.89956 0.94744 0.20799 0.0
O950 O 0.87206 0.94691 0.22614 0.0
O951 O 0.88402 0.0381 0.19813 0.0
O952 O 0.85241 0.06757 0.23473 0.0
H953 H 0.9817 0.10969 0.1645 0.0
H954 H 0.8243 0.96379 0.26889 0.0
O955 O 0.83892 0.01352 0.31893 0.0
H956 H 0.73987 0.01966 0.19331 0.0
H957 H 0.73775 0.0749 0.32985 0.0
H958 H 0.84618 0.11651 0.2805 0.0
H959 H 0.78737 0.05482 0.22751 0.0
H960 H 0.77835 0.03324 0.30817 0.0
O961 O 0.91864 0.97563 0.20685 0.0
H962 H 0.93508 0.08799 0.19983 0.0
H963 H 0.98256 0.9924 0.20784 0.0
H964 H 0.80615 0.15904 0.30162 0.0
H965 H 0.77692 0.92775 0.23558 0.0
H966 H 0.75147 0.1383 0.32651 0.0
H967 H 0.73429 0.95562 0.19728 0.0
O968 O 0.88567 0.06806 0.30253 0.0
H969 H 0.96697 0.94037 0.31777 0.0
H970 H 0.9855 0.05458 0.26956 0.0
H971 H 0.02791 0.03699 0.31437 0.0
H972 H 0.01892 0.97939 0.33873 0.0
H973 H 0.92501 0.95925 0.27344 0.0
H974 H 0.02947 0.01293 0.1723 0.0
H975 H 0.02933 0.07204 0.15051 0.0
O976 O 0.92253 0.07036 0.26025 0.0
C977 C 0.8611 0.0597 0.20409 0.0
C978 C 0.98209 0.08392 0.17391 0.0
C979 C 1.00887 0.02959 0.17824 0.0
N980 N 0.95617 0.03906 0.20605 0.0
C981 C 0.95581 0.07152 0.19399 0.0
C982 C 0.98215 0.01806 0.19825 0.0
C983 C 1.00879 0.06277 0.16604 0.0
C984 C 0.80583 0.97625 0.25261 0.0
N985 N 0.80883 1.01144 0.25027 0.0
C986 C 0.77904 0.95564 0.23365 0.0
C987 C 0.75515 0.97127 0.21214 0.0
C988 C 0.75828 1.00718 0.20988 0.0
C989 C 0.78538 0.02695 0.22924 0.0
C990 C 0.76146 0.08426 0.31899 0.0
C991 C 0.82235 0.10725 0.29111 0.0
C992 C 0.7846 0.06079 0.30674 0.0
N993 N 0.81452 0.0724 0.29283 0.0
C994 C 0.79982 0.13147 0.30311 0.0
C995 C 0.76917 0.11982 0.3171 0.0
C996 C 0.91272 0.08133 0.28985 0.0
C997 C 0.97126 0.9655 0.3073 0.0
C998 C 0.98115 0.02962 0.28014 0.0
C999 C 1.00539 0.01972 0.30546 0.0
C1000 C 1.00036 0.98741 0.31909 0.0
N1001 N 0.95263 1.00799 0.26858 0.0
C1002 C 0.94756 0.97631 0.28196 0.0
Co1003 Co 0.25593 0.68937 0.49237 0.0
Co1004 Co 0.23329 0.61103 0.52386 0.0
O1005 O 0.2686 0.64783 0.51543 0.0
C1006 C 0.31845 0.66675 0.45732 0.0
O1007 O 0.30719 0.63428 0.45968 0.0
C1008 C 0.27698 0.62165 0.59148 0.0
O1009 O 0.27279 0.65515 0.59189 0.0
O1010 O 0.20689 0.64577 0.55037 0.0
O1011 O 0.21013 0.68944 0.51498 0.0
H1012 H 0.11133 0.55895 0.53027 0.0
H1013 H 0.32349 0.69053 0.53356 0.0
O1014 O 0.3013 0.69149 0.46915 0.0
H1015 H 0.26177 0.78542 0.58787 0.0
H1016 H 0.27848 0.80788 0.4478 0.0
H1017 H 0.19137 0.70994 0.4558 0.0
H1018 H 0.23476 0.7498 0.53655 0.0
H1019 H 0.29406 0.75613 0.47801 0.0
O1020 O 0.26161 0.601 0.56735 0.0
H1021 H 0.15616 0.60431 0.5184 0.0
H1022 H 0.23602 0.54007 0.54998 0.0
H1023 H 0.17458 0.76133 0.42562 0.0
H1024 H 0.35164 0.72574 0.58467 0.0
H1025 H 0.21831 0.81077 0.42149 0.0
H1026 H 0.32067 0.77352 0.61222 0.0
O1027 O 0.23415 0.65933 0.45193 0.0
H1028 H 0.34027 0.5521 0.49203 0.0
H1029 H 0.21364 0.55545 0.46707 0.0
H1030 H 0.24567 0.51343 0.43328 0.0
H1031 H 0.30944 0.51143 0.44578 0.0
H1032 H 0.30738 0.59432 0.52463 0.0
H1033 H 0.19206 0.49415 0.56246 0.0
H1034 H 0.1292 0.50339 0.55246 0.0
O1035 O 0.20483 0.61874 0.4795 0.0
C1036 C 0.19655 0.67437 0.5399 0.0
C1037 C 0.13864 0.55458 0.53464 0.0
C1038 C 0.18395 0.51823 0.55275 0.0
N1039 N 0.19866 0.57477 0.53327 0.0
C1040 C 0.16414 0.58013 0.52789 0.0
C1041 C 0.20873 0.54437 0.54572 0.0
C1042 C 0.14869 0.52342 0.54712 0.0
C1043 C 0.31001 0.71148 0.54523 0.0
N1044 N 0.27762 0.71819 0.532 0.0
C1045 C 0.32601 0.73125 0.57424 0.0
C1046 C 0.3086 0.75802 0.58972 0.0
C1047 C 0.27554 0.76469 0.57608 0.0
C1048 C 0.26034 0.74437 0.54706 0.0
C1049 C 0.25918 0.78654 0.44949 0.0
C1050 C 0.21047 0.73144 0.45427 0.0
C1051 C 0.26786 0.75713 0.4665 0.0
N1052 N 0.24355 0.73017 0.4689 0.0
C1053 C 0.20085 0.76043 0.43708 0.0
C1054 C 0.22541 0.78815 0.43474 0.0
C1055 C 0.21167 0.63361 0.45185 0.0
C1056 C 0.31248 0.55268 0.48637 0.0
C1057 C 0.24144 0.55508 0.47243 0.0
C1058 C 0.25941 0.53105 0.45333 0.0
C1059 C 0.29518 0.52991 0.46039 0.0
N1060 N 0.2586 0.57748 0.49777 0.0
C1061 C 0.29366 0.57641 0.5049 0.0
Co1062 Co 0.34513 0.54044 0.77048 0.0
Co1063 Co 0.41806 0.52401 0.72946 0.0
O1064 O 0.3788 0.50768 0.75525 0.0
C1065 C 0.35604 0.49601 0.83043 0.0
O1066 O 0.38958 0.49759 0.82644 0.0
C1067 C 0.39917 0.44869 0.70303 0.0
O1068 O 0.37134 0.44798 0.72069 0.0
O1069 O 0.38387 0.54004 0.69351 0.0
O1070 O 0.35239 0.56974 0.73004 0.0
H1071 H 0.48303 0.61185 0.6632 0.0
H1072 H 0.32212 0.46534 0.76229 0.0
O1073 O 0.33574 0.51224 0.81095 0.0
H1074 H 0.24109 0.52191 0.68347 0.0
H1075 H 0.23429 0.57446 0.82108 0.0
H1076 H 0.34494 0.61739 0.77694 0.0
H1077 H 0.2875 0.55673 0.71966 0.0
H1078 H 0.27545 0.5333 0.79957 0.0
O1079 O 0.41811 0.47704 0.70212 0.0
H1080 H 0.43543 0.58974 0.69712 0.0
H1081 H 0.48204 0.49362 0.70447 0.0
H1082 H 0.3044 0.65945 0.79794 0.0
H1083 H 0.27575 0.42955 0.72689 0.0
H1084 H 0.2486 0.63805 0.82022 0.0
H1085 H 0.23492 0.45781 0.68698 0.0
O1086 O 0.38359 0.5682 0.79831 0.0
H1087 H 0.46282 0.44058 0.81427 0.0
H1088 H 0.48435 0.55473 0.7667 0.0
H1089 H 0.52571 0.53617 0.81196 0.0
H1090 H 0.51524 0.47858 0.83594 0.0
H1091 H 0.42181 0.46043 0.76964 0.0
H1092 H 0.52992 0.51455 0.67031 0.0
H1093 H 0.53071 0.57413 0.64958 0.0
O1094 O 0.42131 0.57114 0.7568 0.0
C1095 C 0.36122 0.56197 0.69943 0.0
C1096 C 0.48301 0.58587 0.67215 0.0
C1097 C 0.5093 0.53124 0.6761 0.0
N1098 N 0.45602 0.54052 0.70292 0.0
C1099 C 0.45617 0.57324 0.69143 0.0
C1100 C 0.48203 0.51948 0.69531 0.0
C1101 C 0.50974 0.56468 0.66449 0.0
C1102 C 0.30446 0.47784 0.74503 0.0
N1103 N 0.30789 0.51303 0.74274 0.0
C1104 C 0.27823 0.45744 0.72504 0.0
C1105 C 0.25534 0.47331 0.70264 0.0
C1106 C 0.25881 0.50925 0.70063 0.0
C1107 C 0.28531 0.52882 0.72106 0.0
C1108 C 0.2585 0.58411 0.8114 0.0
C1109 C 0.32065 0.60785 0.78644 0.0
C1110 C 0.28196 0.56092 0.79927 0.0
N1111 N 0.31251 0.57291 0.78683 0.0
C1112 C 0.29782 0.63181 0.79836 0.0
C1113 C 0.26654 0.61978 0.81089 0.0
C1114 C 0.41103 0.58163 0.78637 0.0
C1115 C 0.46786 0.4656 0.8038 0.0
C1116 C 0.47947 0.52966 0.77696 0.0
C1117 C 0.50307 0.51927 0.8026 0.0
C1118 C 0.4972 0.48696 0.81602 0.0
N1119 N 0.45083 0.50847 0.76482 0.0
C1120 C 0.44481 0.47688 0.77815 0.0
Co1121 Co 0.5911 0.02375 0.78435 0.0
Co1122 Co 0.67039 0.04453 0.75373 0.0
O1123 O 0.63274 1.01008 0.76215 0.0
C1124 C 0.61189 0.96097 0.82085 0.0
O1125 O 0.64468 0.9712 0.81862 0.0
C1126 C 0.65918 1.00171 0.68583 0.0
O1127 O 0.62594 1.00725 0.68509 0.0
O1128 O 0.63666 0.07157 0.7266 0.0
O1129 O 0.59207 0.06914 0.76085 0.0
H1130 H 0.72541 0.16523 0.74676 0.0
H1131 H 0.58952 0.95558 0.74438 0.0
O1132 O 0.58786 0.97876 0.80844 0.0
H1133 H 0.49629 0.01774 0.68741 0.0
H1134 H 0.4716 1.00382 0.82741 0.0
H1135 H 0.57101 0.08921 0.81937 0.0
H1136 H 0.53163 0.04507 0.73878 0.0
H1137 H 0.52352 0.98695 0.79831 0.0
O1138 O 0.68004 0.01575 0.71051 0.0
H1139 H 0.6789 0.12158 0.75856 0.0
H1140 H 0.74147 0.03987 0.72844 0.0
H1141 H 0.51946 0.10729 0.84842 0.0
H1142 H 0.55458 0.92711 0.69323 0.0
H1143 H 0.46929 0.06443 0.85258 0.0
H1144 H 0.50763 0.9583 0.66435 0.0
O1145 O 0.62088 0.04588 0.82485 0.0
H1146 H 0.72626 0.9363 0.78708 0.0
H1147 H 0.72567 0.06323 0.81111 0.0
H1148 H 0.76634 0.03037 0.84579 0.0
H1149 H 0.76694 0.96643 0.83376 0.0
H1150 H 0.6854 0.97004 0.75358 0.0
H1151 H 0.78854 0.08264 0.71606 0.0
H1152 H 0.78072 0.14583 0.72535 0.0
O1153 O 0.66294 0.07355 0.79771 0.0
C1154 C 0.60797 0.08237 0.73625 0.0
C1155 C 0.72917 0.13777 0.7427 0.0
C1156 C 0.76458 0.09142 0.72543 0.0
N1157 N 0.70754 0.07822 0.74443 0.0
C1158 C 0.70296 0.11293 0.74942 0.0
C1159 C 0.7378 0.06732 0.73241 0.0
C1160 C 0.76018 0.12687 0.73066 0.0
C1161 C 0.56893 0.96916 0.73212 0.0
N1162 N 0.56251 1.00184 0.74465 0.0
C1163 C 0.54932 0.95298 0.7031 0.0
C1164 C 0.52301 0.97051 0.68688 0.0
C1165 C 0.51665 1.00387 0.69979 0.0
C1166 C 0.53681 0.01925 0.72884 0.0
C1167 C 0.49327 0.02275 0.8257 0.0
C1168 C 0.54919 0.07048 0.8209 0.0
C1169 C 0.52277 0.01333 0.80932 0.0
N1170 N 0.55015 0.03717 0.80691 0.0
C1171 C 0.52012 0.08084 0.83746 0.0
C1172 C 0.49198 0.05676 0.83981 0.0
C1173 C 0.64706 0.06786 0.82503 0.0
C1174 C 0.72629 0.96415 0.79253 0.0
C1175 C 0.72544 0.03537 0.80595 0.0
C1176 C 0.74871 0.01692 0.82555 0.0
C1177 C 0.74906 0.98107 0.81876 0.0
N1178 N 0.70303 0.01859 0.78038 0.0
C1179 C 0.70334 0.98345 0.7735 0.0
Co1180 Co 0.75259 0.67202 0.04559 0.0
Co1181 Co 0.78447 0.59383 0.02272 0.0
O1182 O 0.76145 0.63544 1.01022 0.0
C1183 C 0.68525 0.66068 1.00177 0.0
O1184 O 0.68536 0.62721 1.006 0.0
C1185 C 0.81949 0.61685 0.9601 0.0
O1186 O 0.8161 0.64931 0.97072 0.0
O1187 O 0.8246 0.62374 0.04528 0.0
O1188 O 0.79689 0.66454 0.07419 0.0
H1189 H 0.85061 0.52128 0.10399 0.0
H1190 H 0.75174 0.68922 0.97162 0.0
O1191 O 0.70906 0.68169 0.01718 0.0
H1192 H 0.84281 0.77016 0.03379 0.0
H1193 H 0.71287 0.78838 0.08683 0.0
H1194 H 0.75774 0.67855 0.12271 0.0
H1195 H 0.80916 0.72775 0.06554 0.0
H1196 H 0.72592 0.74273 0.04287 0.0
O1197 O 0.80827 0.59213 0.97765 0.0
H1198 H 0.82049 0.57275 0.08736 0.0
H1199 H 0.79924 0.5274 0.98428 0.0
H1200 H 0.74528 0.72363 0.16752 0.0
H1201 H 0.78418 0.73186 0.93903 0.0
H1202 H 0.72267 0.77902 0.14966 0.0
H1203 H 0.83029 0.77255 0.97008 0.0
O1204 O 0.72622 0.63707 0.07185 0.0
H1205 H 0.69322 0.55802 0.92585 0.0
H1206 H 0.74001 0.53314 0.04294 0.0
H1207 H 0.689 0.49758 0.01512 0.0
H1208 H 0.66532 0.50988 0.95612 0.0
H1209 H 0.74401 0.59316 0.95479 0.0
H1210 H 0.8294 0.47557 0.9997 0.0
H1211 H 0.8552 0.47222 0.05998 0.0
O1212 O 0.76143 0.5933 0.06818 0.0
C1213 C 0.82445 0.64925 0.06797 0.0
C1214 C 0.83938 0.52238 0.07767 0.0
C1215 C 0.82751 0.49675 0.01913 0.0
N1216 N 0.80787 0.55294 0.035 0.0
C1217 C 0.82221 0.55142 0.06813 0.0
C1218 C 0.81053 0.52619 1.01053 0.0
C1219 C 0.84197 0.49488 0.05296 0.0
C1220 C 0.77141 0.70715 0.98545 0.0
N1221 N 0.77855 0.70586 0.02047 0.0
C1222 C 0.78984 0.73111 0.96679 0.0
C1223 C 0.81575 0.75389 0.98422 0.0
C1224 C 0.82282 0.75253 0.01995 0.0
C1225 C 0.80381 0.72827 0.03776 0.0
C1226 C 0.72276 0.76437 0.09493 0.0
C1227 C 0.74807 0.70266 0.11473 0.0
C1228 C 0.73012 0.73838 0.07016 0.0
N1229 N 0.74279 0.70808 0.08022 0.0
C1230 C 0.74099 0.72805 0.14022 0.0
C1231 C 0.72828 0.75911 0.13018 0.0
C1232 C 0.73671 0.60843 0.08202 0.0
C1233 C 0.70337 0.55233 0.95152 0.0
C1234 C 0.72979 0.53875 0.01731 0.0
C1235 C 0.70095 0.51846 1.00165 0.0
C1236 C 0.68769 0.52536 0.96854 0.0
N1237 N 0.74506 0.56511 1.00041 0.0
C1238 C 0.7322 0.57205 0.96796 0.0
Co1239 Co 0.85894 0.54804 0.75653 0.0
Co1240 Co 0.93431 0.50719 0.7447 0.0
O1241 O 0.89779 0.52197 0.77452 0.0
C1242 C 0.87844 0.57824 0.83025 0.0
O1243 O 0.90846 0.56436 0.82994 0.0
C1244 C 0.92156 0.44749 0.79082 0.0
O1245 O 0.89192 0.45866 0.79992 0.0
O1246 O 0.89799 0.48219 0.71148 0.0
O1247 O 0.85731 0.52099 0.70978 0.0
H1248 H 0.98629 0.48731 0.62986 0.0
H1249 H 0.85195 0.51172 0.82182 0.0
O1250 O 0.85755 0.57561 0.80299 0.0
H1251 H 0.75334 0.46303 0.74181 0.0
H1252 H 0.74582 0.60564 0.76211 0.0
H1253 H 0.84324 0.58036 0.69031 0.0
H1254 H 0.79492 0.5082 0.72355 0.0
H1255 H 0.7936 0.57212 0.78462 0.0
O1256 O 0.93929 0.46342 0.76934 0.0
H1257 H 0.94228 0.5066 0.66893 0.0
H1258 H 1.0022 0.47494 0.75613 0.0
H1259 H 0.79583 0.61374 0.66668 0.0
H1260 H 0.81058 0.46718 0.8414 0.0
H1261 H 0.74666 0.62657 0.70268 0.0
H1262 H 0.76089 0.4423 0.80122 0.0
O1263 O 0.89281 0.58416 0.74079 0.0
H1264 H 0.99319 0.53953 0.86381 0.0
H1265 H 0.99673 0.55596 0.73869 0.0
H1266 H 0.04126 0.58712 0.78004 0.0
H1267 H 0.03982 0.57886 0.8432 0.0
H1268 H 0.94868 0.50968 0.82156 0.0
H1269 H 0.04667 0.455 0.71797 0.0
H1270 H 0.03894 0.46128 0.65435 0.0
O1271 O 0.93218 0.55047 0.7187 0.0
C1272 C 0.8701 0.49324 0.69795 0.0
C1273 C 0.99 0.48452 0.65755 0.0
C1274 C 0.02386 0.46634 0.70698 0.0
N1275 N 0.96972 0.4921 0.7148 0.0
C1276 C 0.9652 0.49547 0.67981 0.0
C1277 C 0.99852 0.47759 0.72845 0.0
C1278 C 0.01952 0.46989 0.6713 0.0
C1279 C 0.83021 0.50151 0.80429 0.0
N1280 N 0.82596 0.51277 0.77156 0.0
C1281 C 0.80693 0.47606 0.81548 0.0
C1282 C 0.77911 0.46206 0.79291 0.0
C1283 C 0.77489 0.47364 0.75957 0.0
C1284 C 0.79868 0.49913 0.7493 0.0
C1285 C 0.76709 0.60019 0.74616 0.0
C1286 C 0.82187 0.58571 0.70608 0.0
C1287 C 0.79429 0.5813 0.75881 0.0
N1288 N 0.82113 0.57413 0.73872 0.0
C1289 C 0.79513 0.60469 0.69259 0.0
C1290 C 0.76757 0.61191 0.71281 0.0
C1291 C 0.91871 0.57967 0.72245 0.0
C1292 C 0.99408 0.54342 0.83637 0.0
C1293 C 0.99541 0.5528 0.76607 0.0
C1294 C 0.02096 0.57024 0.7894 0.0
C1295 C 0.02019 0.56552 0.8248 0.0
N1296 N 0.96969 0.53134 0.77758 0.0
C1297 C 0.96899 0.52642 0.81224 0.0
Co1298 Co 0.77819 0.3445 0.54215 0.0
Co1299 Co 0.73712 0.4168 0.52294 0.0
O1300 O 0.76347 0.37735 0.50819 0.0
C1301 C 0.83947 0.3549 0.4995 0.0
O1302 O 0.83511 0.38835 0.50013 0.0
C1303 C 0.71193 0.39631 0.44756 0.0
O1304 O 0.73034 0.36897 0.44744 0.0
O1305 O 0.70097 0.38303 0.53897 0.0
O1306 O 0.73692 0.35211 0.57017 0.0
H1307 H 0.66873 0.48333 0.60763 0.0
H1308 H 0.77181 0.32017 0.4674 0.0
O1309 O 0.8195 0.33479 0.51536 0.0
H1310 H 0.69191 0.23998 0.52348 0.0
H1311 H 0.82844 0.23471 0.57994 0.0
H1312 H 0.78287 0.34586 0.61921 0.0
H1313 H 0.72717 0.28706 0.55828 0.0
H1314 H 0.80781 0.27496 0.53733 0.0
O1315 O 0.71046 0.4156 0.47554 0.0
H1316 H 0.70345 0.43553 0.58752 0.0
H1317 H 0.71229 0.4798 0.49037 0.0
H1318 H 0.80297 0.30624 0.6627 0.0
H1319 H 0.73736 0.27312 0.43163 0.0
H1320 H 0.82595 0.25019 0.64314 0.0
H1321 H 0.69692 0.23271 0.45965 0.0
O1322 O 0.8053 0.38355 0.56977 0.0
H1323 H 0.8233 0.45979 0.44015 0.0
H1324 H 0.7735 0.48381 0.5527 0.0
H1325 H 0.81889 0.52484 0.534 0.0
H1326 H 0.84398 0.51312 0.47719 0.0
H1327 H 0.77853 0.41915 0.46016 0.0
H1328 H 0.67735 0.52784 0.50929 0.0
H1329 H 0.65546 0.52992 0.56838 0.0
O1330 O 0.7636 0.42121 0.57051 0.0
C1331 C 0.70642 0.3608 0.56145 0.0
C1332 C 0.67819 0.48276 0.58186 0.0
C1333 C 0.68298 0.50771 0.52665 0.0
N1334 N 0.71005 0.45495 0.53791 0.0
C1335 C 0.69793 0.4558 0.57036 0.0
C1336 C 0.70264 0.48035 0.51603 0.0
C1337 C 0.67073 0.50887 0.55981 0.0
C1338 C 0.75432 0.30268 0.47979 0.0
N1339 N 0.75122 0.3067 0.51482 0.0
C1340 C 0.73487 0.27608 0.4594 0.0
C1341 C 0.71217 0.25342 0.47513 0.0
C1342 C 0.70933 0.25751 0.51093 0.0
C1343 C 0.72923 0.28437 0.53048 0.0
C1344 C 0.81844 0.25903 0.58879 0.0
C1345 C 0.79269 0.32146 0.61048 0.0
C1346 C 0.80681 0.28198 0.56478 0.0
N1347 N 0.79396 0.31267 0.57575 0.0
C1348 C 0.8041 0.29915 0.63523 0.0
C1349 C 0.81702 0.26773 0.62424 0.0
C1350 C 0.79305 0.41133 0.58199 0.0
C1351 C 0.81234 0.46537 0.46481 0.0
C1352 C 0.78426 0.47838 0.52799 0.0
C1353 C 0.80996 0.5018 0.5175 0.0
C1354 C 0.82401 0.49523 0.48564 0.0
N1355 N 0.77264 0.44924 0.5073 0.0
C1356 C 0.78661 0.44253 0.47617 0.0
Co1357 Co 0.69312 0.49428 0.25703 0.0
Co1358 Co 0.61457 0.52849 0.23865 0.0
O1359 O 0.65253 0.51783 0.27197 0.0
C1360 C 0.67167 0.45701 0.31875 0.0
O1361 O 0.63904 0.45967 0.30809 0.0
C1362 C 0.6218 0.58759 0.29559 0.0
O1363 O 0.64677 0.57291 0.31262 0.0
O1364 O 0.64872 0.55394 0.21104 0.0
O1365 O 0.69216 0.51828 0.21193 0.0
H1366 H 0.55831 0.53739 0.11868 0.0
H1367 H 0.69945 0.53181 0.32683 0.0
O1368 O 0.69609 0.46946 0.30153 0.0
H1369 H 0.79077 0.58814 0.26203 0.0
H1370 H 0.81086 0.44641 0.27394 0.0
H1371 H 0.71069 0.45913 0.19063 0.0
H1372 H 0.75259 0.53888 0.23449 0.0
H1373 H 0.76051 0.47733 0.29228 0.0
O1374 O 0.60787 0.57384 0.26648 0.0
H1375 H 0.60449 0.52318 0.16168 0.0
H1376 H 0.54551 0.55824 0.2444 0.0
H1377 H 0.76063 0.42827 0.1711 0.0
H1378 H 0.73733 0.58077 0.35553 0.0
H1379 H 0.81119 0.42176 0.21291 0.0
H1380 H 0.78333 0.60937 0.32302 0.0
O1381 O 0.66178 0.45517 0.23497 0.0
H1382 H 0.55955 0.49305 0.34738 0.0
H1383 H 0.55526 0.47617 0.21955 0.0
H1384 H 0.51283 0.44298 0.25147 0.0
H1385 H 0.51455 0.45147 0.31588 0.0
H1386 H 0.60195 0.52487 0.31468 0.0
H1387 H 0.49883 0.57313 0.2023 0.0
H1388 H 0.50501 0.56256 0.13894 0.0
O1389 O 0.61906 0.48352 0.20971 0.0
C1390 C 0.67665 0.54346 0.19936 0.0
C1391 C 0.55527 0.54202 0.14623 0.0
C1392 C 0.52191 0.56214 0.19315 0.0
N1393 N 0.57761 0.53966 0.2055 0.0
C1394 C 0.58129 0.53395 0.17069 0.0
C1395 C 0.54848 0.55376 0.21687 0.0
C1396 C 0.52539 0.55618 0.15761 0.0
C1397 C 0.71946 0.54405 0.31256 0.0
N1398 N 0.72358 0.53265 0.27895 0.0
C1399 C 0.74081 0.5718 0.32892 0.0
C1400 C 0.76659 0.58785 0.31066 0.0
C1401 C 0.77075 0.57598 0.27643 0.0
C1402 C 0.7489 0.54818 0.2609 0.0
C1403 C 0.78902 0.44915 0.25546 0.0
C1404 C 0.73269 0.45659 0.20891 0.0
C1405 C 0.76042 0.46658 0.2657 0.0
N1406 N 0.73284 0.4703 0.24245 0.0
C1407 C 0.76085 0.43901 0.19773 0.0
C1408 C 0.78919 0.43533 0.22121 0.0
C1409 C 0.63476 0.45579 0.21423 0.0
C1410 C 0.55826 0.48939 0.31928 0.0
C1411 C 0.55637 0.4801 0.24757 0.0
C1412 C 0.53215 0.4612 0.26551 0.0
C1413 C 0.53311 0.46598 0.30162 0.0
N1414 N 0.58091 0.5033 0.26499 0.0
C1415 C 0.5821 0.50781 0.30046 0.0
C1416 C 0.09393 0.40452 0.32589 0.0
C1417 C 0.09523 0.43338 0.35024 0.0
H1418 H 0.08843 0.34911 0.31685 0.0
C1419 C 0.09394 0.42727 0.38572 0.0
H1420 H 0.09498 0.4081 0.29838 0.0
C1421 C 0.09027 0.39323 0.39642 0.0
C1422 C 0.08777 0.36441 0.37191 0.0
H1423 H 0.095 0.44881 0.40528 0.0
H1424 H 0.08837 0.3896 0.42382 0.0
C1425 C 0.09023 0.37055 0.33656 0.0
C1426 C 0.89982 0.83891 0.62065 0.0
C1427 C 0.92866 0.84338 0.60055 0.0
H1428 H 0.84607 0.84826 0.62627 0.0
C1429 C 0.9257 0.86333 0.57149 0.0
H1430 H 0.90132 0.82348 0.64307 0.0
C1431 C 0.89461 0.87848 0.56266 0.0
C1432 C 0.86536 0.8731 0.58201 0.0
H1433 H 0.94749 0.86725 0.55556 0.0
H1434 H 0.89308 0.89332 0.53982 0.0
C1435 C 0.86825 0.85308 0.61107 0.0
C1436 C 0.4193 0.62516 0.8384 0.0
C1437 C 0.43098 0.61144 0.80692 0.0
H1438 H 0.42826 0.66269 0.88198 0.0
C1439 C 0.4622 0.62627 0.79561 0.0
H1440 H 0.39541 0.61454 0.84803 0.0
C1441 C 0.4813 0.65376 0.81534 0.0
C1442 C 0.46952 0.66758 0.84673 0.0
H1443 H 0.47205 0.6166 0.77149 0.0
H1444 H 0.5053 0.66421 0.80582 0.0
C1445 C 0.43823 0.65286 0.85796 0.0
C1446 C 0.62634 0.19001 0.10774 0.0
C1447 C 0.61178 0.21926 0.0941 0.0
H1448 H 0.66416 0.15178 0.10314 0.0
C1449 C 0.62557 0.23223 0.06428 0.0
H1450 H 0.61651 0.17918 0.13063 0.0
C1451 C 0.65304 0.21671 0.04872 0.0
C1452 C 0.6676 0.18743 0.0622 0.0
H1453 H 0.61528 0.25466 0.05289 0.0
H1454 H 0.66277 0.22776 0.02589 0.0
C1455 C 0.65374 0.17423 0.09192 0.0
C1456 C 0.1038 0.62342 0.18852 0.0
C1457 C 0.09014 0.60875 0.21769 0.0
H1458 H 0.10008 0.66222 0.15121 0.0
C1459 C 0.06112 0.62341 0.23146 0.0
H1460 H 0.12614 0.61301 0.17711 0.0
C1461 C 0.04639 0.65184 0.21678 0.0
C1462 C 0.05996 0.66654 0.18761 0.0
H1463 H 0.04978 0.6131 0.25388 0.0
H1464 H 0.02416 0.66224 0.22841 0.0
C1465 C 0.08885 0.65177 0.17362 0.0
C1466 C 0.62675 0.79877 0.46046 0.0
C1467 C 0.61209 0.80993 0.42906 0.0
H1468 H 0.66432 0.80918 0.50384 0.0
C1469 C 0.62604 0.84121 0.41713 0.0
H1470 H 0.61694 0.77479 0.47052 0.0
C1471 C 0.65362 0.8609 0.43622 0.0
C1472 C 0.66795 0.84993 0.46784 0.0
H1473 H 0.61551 0.85073 0.39312 0.0
H1474 H 0.66356 0.88485 0.42619 0.0
C1475 C 0.65411 0.81856 0.47965 0.0
C1476 C 0.42372 0.35508 0.70123 0.0
C1477 C 0.44398 0.35269 0.6724 0.0
H1478 H 0.39283 0.38682 0.73266 0.0
C1479 C 0.44819 0.38178 0.65255 0.0
H1480 H 0.41996 0.3331 0.71697 0.0
C1481 C 0.43339 0.413 0.66212 0.0
C1482 C 0.41298 0.41529 0.69091 0.0
H1483 H 0.46383 0.38073 0.63029 0.0
H1484 H 0.43796 0.43537 0.64709 0.0
C1485 C 0.40796 0.38579 0.71003 0.0
C1486 C 0.88419 0.21182 0.90862 0.0
C1487 C 0.91444 0.19429 0.91548 0.0
H1488 H 0.83069 0.21691 0.9187 0.0
C1489 C 0.91286 0.1664 0.93712 0.0
H1490 H 0.88469 0.23373 0.89246 0.0
C1491 C 0.88155 0.15612 0.95135 0.0
C1492 C 0.85164 0.17442 0.9453 0.0
H1493 H 0.93583 0.15262 0.94308 0.0
H1494 H 0.88103 0.1346 0.96799 0.0
C1495 C 0.85333 0.20237 0.92382 0.0
C1496 C 0.33436 0.12482 0.39913 0.0
C1497 C 0.33824 0.10501 0.42827 0.0
H1498 H 0.34447 0.12968 0.34545 0.0
C1499 C 0.35791 0.07571 0.426 0.0
H1500 H 0.31918 0.14743 0.40012 0.0
C1501 C 0.37335 0.06635 0.39528 0.0
C1502 C 0.36856 0.0854 0.36572 0.0
H1503 H 0.36138 0.06 0.44805 0.0
H1504 H 0.38798 0.04335 0.39428 0.0
C1505 C 0.34882 0.1147 0.36791 0.0
C1506 C 0.21954 0.04674 0.65364 0.0
C1507 C 0.19096 0.0605 0.66913 0.0
H1508 H 0.25606 0.05041 0.6146 0.0
C1509 C 0.17747 0.09029 0.65551 0.0
H1510 H 0.23078 0.02387 0.66312 0.0
C1511 C 0.19227 0.10585 0.6274 0.0
C1512 C 0.22084 0.09192 0.61193 0.0
H1513 H 0.15548 0.10171 0.66662 0.0
H1514 H 0.18126 0.12876 0.61778 0.0
C1515 C 0.23412 0.06207 0.62555 0.0
C1516 C 0.20674 0.92041 0.85406 0.0
C1517 C 0.17773 0.94044 0.85127 0.0
H1518 H 0.23835 0.89009 0.88639 0.0
C1519 C 0.1577 0.94479 0.88017 0.0
H1520 H 0.22263 0.91658 0.83222 0.0
C1521 C 0.16727 0.93038 0.91161 0.0
C1522 C 0.19627 0.91024 0.91431 0.0
H1523 H 0.13531 0.96027 0.87881 0.0
H1524 H 0.15211 0.93507 0.93384 0.0
C1525 C 0.21556 0.90503 0.88501 0.0
C1526 C 0.3417 0.91963 0.12645 0.0
C1527 C 0.31011 0.93079 0.11224 0.0
H1528 H 0.38476 0.92926 0.16457 0.0
C1529 C 0.29799 0.96167 0.12689 0.0
H1530 H 0.35194 0.89599 0.116 0.0
C1531 C 0.3171 0.98105 0.15462 0.0
C1532 C 0.34864 0.96983 0.16887 0.0
H1533 H 0.27374 0.97108 0.11688 0.0
H1534 H 0.30702 1.00483 0.16488 0.0
C1535 C 0.36061 0.9388 0.1544 0.0
C1536 C 0.37272 0.33464 0.08639 0.0
C1537 C 0.36607 0.36983 0.0837 0.0
H1538 H 0.41082 0.29727 0.0928 0.0
C1539 C 0.39443 0.39493 0.08748 0.0
H1540 H 0.35158 0.31454 0.08368 0.0
C1541 C 0.42861 0.38492 0.09258 0.0
C1542 C 0.43527 0.3496 0.09417 0.0
H1543 H 0.39036 0.42223 0.08544 0.0
H1544 H 0.44986 0.40488 0.09456 0.0
C1545 C 0.4068 0.32468 0.09163 0.0
C1546 C 0.9241 0.85388 0.20568 0.0
C1547 C 0.94348 0.85139 0.17621 0.0
H1548 H 0.89413 0.88574 0.238 0.0
C1549 C 0.94702 0.88036 0.15612 0.0
H1550 H 0.92088 0.83197 0.2216 0.0
C1551 C 0.93246 0.9116 0.16607 0.0
C1552 C 0.91295 0.91399 0.19551 0.0
H1553 H 0.96196 0.87921 0.13336 0.0
H1554 H 0.93652 0.93391 0.15084 0.0
C1555 C 0.90856 0.88461 0.21489 0.0
C1556 C 0.15345 0.72073 0.54301 0.0
C1557 C 0.16689 0.69081 0.55631 0.0
H1558 H 0.11629 0.75933 0.54656 0.0
C1559 C 0.15155 0.67718 0.58509 0.0
H1560 H 0.16432 0.73216 0.5209 0.0
C1561 C 0.12375 0.69307 0.60009 0.0
C1562 C 0.11031 0.72294 0.5866 0.0
H1563 H 0.16105 0.65423 0.59614 0.0
H1564 H 0.11274 0.68184 0.62223 0.0
C1565 C 0.12566 0.73642 0.5578 0.0
C1566 C 0.93381 0.66841 0.68569 0.0
C1567 C 0.96667 0.66584 0.67247 0.0
H1568 H 0.89309 0.64362 0.7126 0.0
C1569 C 0.98315 0.63481 0.67492 0.0
H1570 H 0.92067 0.69226 0.68414 0.0
C1571 C 0.96696 0.60665 0.69007 0.0
C1572 C 0.93459 0.60936 0.70464 0.0
H1573 H 1.00836 0.63216 0.66466 0.0
H1574 H 0.98014 0.58282 0.69046 0.0
C1575 C 0.91812 0.64063 0.70207 0.0
C1576 C 0.12663 0.15727 0.47012 0.0
C1577 C 0.15926 0.17533 0.47809 0.0
H1578 H 0.07538 0.15777 0.4452 0.0
C1579 C 0.16572 0.20776 0.46404 0.0
H1580 H 0.12079 0.13228 0.4804 0.0
C1581 C 0.13993 0.22204 0.44307 0.0
C1582 C 0.10685 0.20456 0.43631 0.0
H1583 H 0.1907 0.22226 0.46943 0.0
H1584 H 0.14541 0.24737 0.43337 0.0
C1585 C 0.10064 0.17189 0.44987 0.0
C1586 C 0.63256 0.3906 0.20467 0.0
C1587 C 0.62013 0.42249 0.19556 0.0
H1588 H 0.62659 0.33503 0.19799 0.0
C1589 C 0.59239 0.42191 0.16988 0.0
H1590 H 0.65387 0.38991 0.22431 0.0
C1591 C 0.57686 0.39026 0.15451 0.0
C1592 C 0.58842 0.35836 0.16466 0.0
H1593 H 0.58218 0.4459 0.16207 0.0
H1594 H 0.55506 0.39086 0.13546 0.0
C1595 C 0.61684 0.359 0.18956 0.0
C1596 C 0.37078 0.84163 0.93794 0.0
C1597 C 0.36258 0.8353 0.97204 0.0
H1598 H 0.40232 0.8289 0.89575 0.0
C1599 C 0.38122 0.81125 0.99011 0.0
H1600 H 0.35671 0.85984 0.92324 0.0
C1601 C 0.40718 0.79372 0.9745 0.0
C1602 C 0.41508 0.79947 0.94023 0.0
H1603 H 0.37563 0.80573 0.0164 0.0
H1604 H 0.42078 0.77528 0.98933 0.0
C1605 C 0.39668 0.82371 0.92209 0.0
C1606 C 0.92386 0.40488 0.83773 0.0
C1607 C 0.93719 0.41837 0.80796 0.0
H1608 H 0.92961 0.36862 0.87732 0.0
C1609 C 0.96732 0.40504 0.79539 0.0
H1610 H 0.90082 0.41476 0.84821 0.0
C1611 C 0.98382 0.3791 0.81207 0.0
C1612 C 0.9707 0.36553 0.84183 0.0
H1613 H 0.97839 0.41468 0.77253 0.0
H1614 H 1.00697 0.36968 0.80144 0.0
C1615 C 0.94053 0.37872 0.85459 0.0
C1616 C 0.39093 0.15053 0.57576 0.0
C1617 C 0.35909 0.16165 0.58643 0.0
H1618 H 0.44656 0.15756 0.58129 0.0
C1619 C 0.35981 0.18786 0.61365 0.0
H1620 H 0.39147 0.13044 0.55491 0.0
C1621 C 0.39149 0.20337 0.62892 0.0
C1622 C 0.42333 0.19327 0.61724 0.0
H1623 H 0.33586 0.19702 0.62271 0.0
H1624 H 0.39093 0.22407 0.64916 0.0
C1625 C 0.42262 0.1662 0.59088 0.0
C1626 C 0.58738 0.67631 0.31121 0.0
C1627 C 0.57399 0.67427 0.34419 0.0
H1628 H 0.61194 0.65015 0.26961 0.0
C1629 C 0.57769 0.64359 0.36144 0.0
H1630 H 0.58605 0.69967 0.29739 0.0
C1631 C 0.59412 0.61575 0.34597 0.0
C1632 C 0.60623 0.61762 0.31257 0.0
H1633 H 0.56808 0.64112 0.38694 0.0
H1634 H 0.59659 0.59238 0.35975 0.0
C1635 C 0.60257 0.64804 0.29527 0.0
C1636 C 0.15617 0.80634 0.12359 0.0
C1637 C 0.1231 0.79983 0.10601 0.0
H1638 H 0.20793 0.8299 0.12279 0.0
C1639 C 0.11652 0.81493 0.07416 0.0
H1640 H 0.16211 0.79518 0.14814 0.0
C1641 C 0.14255 0.83554 0.05998 0.0
C1642 C 0.17601 0.84094 0.07694 0.0
H1643 H 0.09122 0.81065 0.06003 0.0
H1644 H 0.13686 0.84615 0.03511 0.0
C1645 C 0.1824 0.82629 0.10904 0.0
C1646 C 0.66847 0.95186 0.59909 0.0
C1647 C 0.70101 0.93783 0.60464 0.0
H1648 H 0.62955 0.98252 0.62032 0.0
C1649 C 0.71888 0.94369 0.63763 0.0
H1650 H 0.65405 0.94791 0.57393 0.0
C1651 C 0.70516 0.96425 0.66399 0.0
C1652 C 0.67292 0.97885 0.65819 0.0
H1653 H 0.74412 0.9336 0.64264 0.0
H1654 H 0.71999 0.96895 0.68888 0.0
C1655 C 0.65442 0.97178 0.62565 0.0
C1656 C 0.813 0.99159 0.38055 0.0
C1657 C 0.83585 0.9723 0.36158 0.0
H1658 H 0.77753 0.99255 0.42052 0.0
C1659 C 0.84065 0.93785 0.36965 0.0
H1660 H 0.80873 0.0182 0.37508 0.0
C1661 C 0.82228 0.92283 0.39572 0.0
C1662 C 0.79915 0.94216 0.41438 0.0
H1663 H 0.85792 0.92224 0.35533 0.0
H1664 H 0.8262 0.89617 0.40123 0.0
C1665 C 0.79504 0.9768 0.40667 0.0
C1666 C 0.8083 0.12291 0.15513 0.0
C1667 C 0.80046 0.10461 0.12261 0.0
H1668 H 0.8335 0.12301 0.20631 0.0
C1669 C 0.81493 0.07241 0.11628 0.0
H1670 H 0.79768 0.14776 0.16085 0.0
C1671 C 0.83622 0.05858 0.14207 0.0
C1672 C 0.84291 0.07628 0.17502 0.0
H1673 H 0.80964 0.05774 0.09139 0.0
H1674 H 0.84626 0.0334 0.13666 0.0
C1675 C 0.82891 0.10873 0.18114 0.0
C1676 C 0.64907 0.07644 0.89038 0.0
C1677 C 0.66074 0.08668 0.85859 0.0
H1678 H 0.65545 0.08243 0.94602 0.0
C1679 C 0.68728 0.1136 0.85939 0.0
H1680 H 0.62871 0.05583 0.89086 0.0
C1681 C 0.70255 0.12902 0.8911 0.0
C1682 C 0.69188 0.11777 0.9229 0.0
H1683 H 0.69688 0.12232 0.83548 0.0
H1684 H 0.72352 0.14901 0.89062 0.0
C1685 C 0.66451 0.09169 0.9221 0.0
C1686 C 0.60012 0.66903 0.94843 0.0
C1687 C 0.60549 0.70208 0.93547 0.0
H1688 H 0.62106 0.62987 0.97905 0.0
C1689 C 0.63782 0.72074 0.94332 0.0
H1690 H 0.57541 0.65403 0.94297 0.0
C1691 C 0.66369 0.70723 0.96477 0.0
C1692 C 0.65806 0.67442 0.97827 0.0
H1693 H 0.6426 0.74642 0.93413 0.0
H1694 H 0.68807 0.72263 0.97098 0.0
C1695 C 0.62623 0.65519 0.96923 0.0
C1696 C 0.0918 0.11535 0.84559 0.0
C1697 C 0.10579 0.11822 0.81312 0.0
H1698 H 0.06462 0.14003 0.88612 0.0
C1699 C 0.10444 0.14968 0.79722 0.0
H1700 H 0.09254 0.09118 0.8583 0.0
C1701 C 0.0896 0.17794 0.81358 0.0
C1702 C 0.07427 0.17497 0.84554 0.0
H1703 H 0.11534 0.15257 0.77235 0.0
H1704 H 0.09004 0.20207 0.80087 0.0
C1705 C 0.07576 0.14327 0.86144 0.0
C1706 C 0.90114 0.29007 0.46677 0.0
C1707 C 0.91992 0.30899 0.44348 0.0
H1708 H 0.86141 0.28962 0.50252 0.0
C1709 C 0.91172 0.34332 0.43819 0.0
H1710 H 0.90671 0.26357 0.47146 0.0
C1711 C 0.88572 0.35857 0.45647 0.0
C1712 C 0.86725 0.3396 0.48003 0.0
H1713 H 0.92589 0.35866 0.42057 0.0
H1714 H 0.88011 0.38512 0.45214 0.0
C1715 C 0.8751 0.30509 0.48466 0.0
C1716 C 0.57266 0.92601 0.85665 0.0
C1717 C 0.60245 0.92849 0.83772 0.0
H1718 H 0.53976 0.89414 0.88611 0.0
C1719 C 0.62251 0.89946 0.83449 0.0
H1720 H 0.55674 0.94795 0.85964 0.0
C1721 C 0.61224 0.86821 0.8489 0.0
C1722 C 0.58247 0.86582 0.86794 0.0
H1723 H 0.64551 0.90058 0.81989 0.0
H1724 H 0.6275 0.8459 0.84506 0.0
C1725 C 0.56311 0.89526 0.87204 0.0
C1726 C 0.9838 0.15289 0.31773 0.0
C1727 C 0.97187 0.16777 0.34861 0.0
H1728 H 0.97427 0.11503 0.27454 0.0
C1729 C 0.94027 0.1539 0.35989 0.0
H1730 H 1.00809 0.1626 0.30824 0.0
C1731 C 0.92114 0.12602 0.34084 0.0
C1732 C 0.93289 0.11137 0.30976 0.0
H1733 H 0.9302 0.16455 0.38353 0.0
H1734 H 0.89701 0.11606 0.35049 0.0
C1735 C 0.9644 0.12536 0.29839 0.0
C1736 C 0.56317 0.12693 0.73235 0.0
C1737 C 0.59242 0.11215 0.71914 0.0
H1738 H 0.52582 0.16521 0.72814 0.0
C1739 C 0.60621 0.12625 0.68978 0.0
H1740 H 0.55166 0.11706 0.75488 0.0
C1741 C 0.59102 0.15412 0.67407 0.0
C1742 C 0.56181 0.16889 0.68747 0.0
H1743 H 0.62867 0.11567 0.67878 0.0
H1744 H 0.60227 0.16413 0.65147 0.0
C1745 C 0.54826 0.15481 0.71691 0.0
C1746 C 0.1533 0.3203 0.98004 0.0
C1747 C 0.1682 0.35098 0.96766 0.0
H1748 H 0.11535 0.27726 0.97159 0.0
C1749 C 0.15399 0.36195 0.93598 0.0
H1750 H 0.16323 0.31092 1.00434 0.0
C1751 C 0.12585 0.34266 0.91722 0.0
C1752 C 0.11128 0.31176 0.92952 0.0
H1753 H 0.16473 0.38536 0.92552 0.0
H1754 H 0.11558 0.35196 0.89301 0.0
C1755 C 0.12557 0.30089 0.96117 0.0
C1756 C 0.4124 0.66528 0.43388 0.0
C1757 C 0.41509 0.69307 0.41221 0.0
H1758 H 0.3792 0.6344 0.46429 0.0
C1759 C 0.38551 0.7114 0.40477 0.0
H1760 H 0.4349 0.65095 0.44028 0.0
C1761 C 0.35418 0.70285 0.41954 0.0
C1762 C 0.35141 0.675 0.44106 0.0
H1763 H 0.38696 0.73327 0.38859 0.0
H1764 H 0.33206 0.718 0.41407 0.0
C1765 C 0.38062 0.65586 0.4476 0.0
C1766 C 0.84339 0.61778 0.86623 0.0
C1767 C 0.8655 0.59032 0.86397 0.0
H1768 H 0.81233 0.64847 0.8989 0.0
C1769 C 0.87306 0.57242 0.89382 0.0
H1770 H 0.83689 0.63179 0.84354 0.0
C1771 C 0.85802 0.58105 0.92497 0.0
C1772 C 0.83606 0.60856 0.92731 0.0
H1773 H 0.88958 0.55081 0.89274 0.0
H1774 H 0.86362 0.56621 0.94729 0.0
C1775 C 0.82936 0.62727 0.89783 0.0
C1776 C 0.6776 0.58999 0.15568 0.0
C1777 C 0.69162 0.56047 0.16932 0.0
H1778 H 0.68065 0.6284 0.11787 0.0
C1779 C 0.72033 0.54707 0.15374 0.0
H1780 H 0.6555 0.60113 0.16687 0.0
C1781 C 0.73453 0.56251 0.12553 0.0
C1782 C 0.72073 0.59211 0.11193 0.0
H1783 H 0.73195 0.52441 0.16324 0.0
H1784 H 0.75659 0.55116 0.1145 0.0
C1785 C 0.69204 0.60567 0.12749 0.0
C1786 C 0.66997 0.42882 0.41127 0.0
C1787 C 0.69946 0.40935 0.41391 0.0
H1788 H 0.63743 0.45834 0.37865 0.0
C1789 C 0.71898 0.40488 0.38467 0.0
H1790 H 0.65463 0.43294 0.43346 0.0
C1791 C 0.70991 0.42039 0.35386 0.0
C1792 C 0.68045 0.43981 0.35116 0.0
H1793 H 0.74213 0.39048 0.38601 0.0
H1794 H 0.72597 0.41718 0.33208 0.0
C1795 C 0.66018 0.44335 0.37996 0.0
C1796 C 0.86346 0.44162 0.6537 0.0
C1797 C 0.85113 0.47277 0.66749 0.0
H1798 H 0.85504 0.39788 0.61623 0.0
C1799 C 0.81964 0.48354 0.65262 0.0
H1800 H 0.88756 0.4324 0.66439 0.0
C1801 C 0.80077 0.46352 0.62524 0.0
C1802 C 0.813 0.43231 0.61152 0.0
H1803 H 0.80927 0.50741 0.66228 0.0
H1804 H 0.77649 0.47261 0.61489 0.0
C1805 C 0.8447 0.42171 0.62606 0.0
C1806 C 0.4508 0.10096 0.17113 0.0
C1807 C 0.43684 0.10636 0.20367 0.0
H1808 H 0.48253 0.12192 0.13292 0.0
C1809 C 0.44409 0.13873 0.2224 0.0
H1810 H 0.44583 0.07622 0.15612 0.0
C1811 C 0.4659 0.16463 0.20947 0.0
C1812 C 0.48037 0.15897 0.1772 0.0
H1813 H 0.43413 0.14352 0.24771 0.0
H1814 H 0.4716 0.18905 0.2249 0.0
C1815 C 0.47196 0.12709 0.15787 0.0
C1816 C 0.11178 0.85995 0.68795 0.0
C1817 C 0.08495 0.86038 0.66149 0.0
H1818 H 0.14789 0.88961 0.72476 0.0
C1819 C 0.07494 0.89283 0.65121 0.0
H1820 H 0.12024 0.83552 0.69655 0.0
C1821 C 0.09061 0.92395 0.66764 0.0
C1822 C 0.117 0.9235 0.69454 0.0
H1823 H 0.05431 0.89427 0.63102 0.0
H1824 H 0.08169 0.94836 0.65949 0.0
C1825 C 0.12772 0.89107 0.70411 0.0
C1826 C 0.43644 0.87314 0.34554 0.0
C1827 C 0.471 0.86543 0.34082 0.0
H1828 H 0.39431 0.9041 0.33076 0.0
C1829 C 0.49017 0.88474 0.31812 0.0
H1830 H 0.42091 0.85851 0.36265 0.0
C1831 C 0.47506 0.91061 0.29999 0.0
C1832 C 0.44022 0.91779 0.3038 0.0
H1833 H 0.51685 0.87952 0.31389 0.0
H1834 H 0.4907 0.9246 0.28248 0.0
C1835 C 0.42111 0.899 0.32703 0.0
C1836 C 0.85858 0.68899 0.11427 0.0
C1837 C 0.8579 0.66278 0.08707 0.0
H1838 H 0.88972 0.72483 0.15019 0.0
C1839 C 0.88974 0.6512 0.07686 0.0
H1840 H 0.83462 0.69848 0.12298 0.0
C1841 C 0.92139 0.66644 0.09242 0.0
C1842 C 0.92209 0.69352 0.11875 0.0
H1843 H 0.89031 0.63106 0.05606 0.0
H1844 H 0.94535 0.65745 0.08318 0.0
C1845 C 0.89025 0.70409 0.12998 0.0
C1846 C 0.61795 0.31561 0.57303 0.0
C1847 C 0.62363 0.30142 0.60549 0.0
H1848 H 0.63927 0.34632 0.53409 0.0
C1849 C 0.65589 0.30922 0.62436 0.0
H1850 H 0.59327 0.31034 0.55792 0.0
C1851 C 0.68231 0.3295 0.61048 0.0
C1852 C 0.67688 0.34317 0.57776 0.0
H1853 H 0.6611 0.29881 0.64941 0.0
H1854 H 0.70729 0.33403 0.62519 0.0
C1855 C 0.64416 0.33654 0.55949 0.0
C1856 C 0.20283 0.47055 0.10217 0.0
C1857 C 0.21296 0.43613 0.10272 0.0
H1858 H 0.18143 0.51336 0.12978 0.0
C1859 C 0.20724 0.41796 0.13245 0.0
H1860 H 0.20597 0.48523 0.07962 0.0
C1861 C 0.19163 0.43375 0.16065 0.0
C1862 C 0.18245 0.4684 0.16022 0.0
H1863 H 0.21437 0.39139 0.13377 0.0
H1864 H 0.18731 0.41908 0.18313 0.0
C1865 C 0.1885 0.48674 0.13086 0.0
C1866 C 0.30569 0.47758 0.86393 0.0
C1867 C 0.34085 0.47513 0.85731 0.0
H1868 H 0.26401 0.46219 0.89449 0.0
C1869 C 0.36068 0.45259 0.87635 0.0
H1870 H 0.2895 0.49448 0.8497 0.0
C1871 C 0.34574 0.43355 0.90202 0.0
C1872 C 0.31085 0.43703 0.90927 0.0
H1873 H 0.38775 0.4499 0.87167 0.0
H1874 H 0.36183 0.41711 0.91695 0.0
C1875 C 0.29096 0.45892 0.88961 0.0
C1876 C 0.31428 0.5749 0.61205 0.0
C1877 C 0.30046 0.60743 0.6184 0.0
H1878 H 0.34519 0.53546 0.63224 0.0
C1879 C 0.30915 0.62591 0.65069 0.0
H1880 H 0.30834 0.56007 0.58732 0.0
C1881 C 0.32992 0.61158 0.6765 0.0
C1882 C 0.34325 0.5788 0.67038 0.0
H1883 H 0.29906 0.65101 0.65642 0.0
H1884 H 0.33511 0.62598 0.70155 0.0
C1885 C 0.33573 0.56091 0.63762 0.0
C1886 C 0.15063 0.57807 0.38591 0.0
C1887 C 0.16387 0.58623 0.3541 0.0
H1888 H 0.15506 0.5865 0.44141 0.0
C1889 C 0.1914 0.61212 0.35469 0.0
H1890 H 0.12935 0.55848 0.38663 0.0
C1891 C 0.20601 0.6285 0.38629 0.0
C1892 C 0.19366 0.61924 0.41815 0.0
H1893 H 0.20221 0.61927 0.33078 0.0
H1894 H 0.22777 0.64762 0.38576 0.0
C1895 C 0.16541 0.59421 0.41746 0.0
loop_
_geom_bond_atom_site_label_1
_geom_bond_atom_site_label_2
_geom_bond_distance
_geom_bond_site_symmetry_2
_ccdc_geom_bond_type
Co0 O2 2.143 . S
Co0 O8 2.074 1_655 S
Co0 O11 2.093 . S
Co0 O24 2.097 . S
Co0 N41 2.151 1_655 S
Co0 N49 2.214 . S
Co1 O2 2.160 1_455 S
Co1 O7 2.058 . S
Co1 O17 2.057 . S
Co1 O32 2.037 1_455 S
Co1 N36 2.145 . S
Co1 N57 2.257 1_455 S
O2 Co0 2.143 . S
O2 Co1 2.160 1_655 S
C3 O4 1.278 . S
C3 O11 1.224 . S
O4 C3 1.278 . S
C5 O6 1.245 . S
C5 O17 1.232 . S
O6 C5 1.245 . S
O7 Co1 2.058 . S
O7 C33 1.269 . S
O8 Co0 2.074 1_455 S
O8 C33 1.257 . S
H9 C34 0.930 . S
H10 C40 0.930 . S
O11 Co0 2.093 . S
O11 C3 1.224 . S
H12 C44 0.929 . S
H13 C46 0.930 . S
H14 C47 0.930 . S
H15 C45 0.929 . S
H16 C48 0.928 . S
O17 Co1 2.057 . S
O17 C5 1.232 . S
H18 C37 0.929 . S
H19 C38 0.929 . S
H20 C50 0.931 . S
H21 C42 0.929 . S
H22 C51 0.930 . S
H23 C43 0.931 . S
O24 Co0 2.097 . S
O24 C52 1.214 . S
H25 C53 0.929 . S
H26 C54 0.929 . S
H27 C55 0.930 . S
H28 C56 0.929 . S
H29 C58 0.930 . S
H30 C35 0.930 . S
H31 C39 0.930 . S
O32 Co1 2.037 1_655 S
O32 C52 1.234 . S
C33 O7 1.269 . S
C33 O8 1.257 . S
C34 H9 0.930 . S
C34 C37 1.388 . S
C34 C39 1.418 . S
C35 H30 0.930 . S
C35 C38 1.404 . S
C35 C39 1.353 . S
N36 Co1 2.145 . S
N36 C37 1.397 . S
N36 C38 1.334 . S
C37 H18 0.929 . S
C37 C34 1.388 . S
C37 N36 1.397 . S
C38 H19 0.929 . S
C38 C35 1.404 . S
C38 N36 1.334 . S
C39 H31 0.930 . S
C39 C34 1.418 . S
C39 C35 1.353 . S
C40 H10 0.930 . S
C40 N41 1.330 1_655 S
C40 C42 1.446 1_655 S
N41 Co0 2.151 1_455 S
N41 C40 1.330 1_455 S
N41 C45 1.418 . S
C42 H21 0.929 . S
C42 C40 1.446 1_455 S
C42 C43 1.332 . S
C43 H23 0.931 . S
C43 C42 1.332 . S
C43 C44 1.267 . S
C44 H12 0.929 . S
C44 C43 1.267 . S
C44 C45 1.251 . S
C45 H15 0.929 . S
C45 N41 1.418 . S
C45 C44 1.251 . S
C46 H13 0.930 . S
C46 C48 1.406 . S
C46 C51 1.261 . S
C47 H14 0.930 . S
C47 N49 1.325 . S
C47 C50 1.357 . S
C48 H16 0.928 . S
C48 C46 1.406 . S
C48 N49 1.261 . S
N49 Co0 2.214 . S
N49 C47 1.325 . S
N49 C48 1.261 . S
C50 H20 0.931 . S
C50 C47 1.357 . S
C50 C51 1.312 . S
C51 H22 0.930 . S
C51 C46 1.261 . S
C51 C50 1.312 . S
C52 O24 1.214 . S
C52 O32 1.234 . S
C53 H25 0.929 . S
C53 C56 1.391 . S
C53 C58 1.391 . S
C54 H26 0.929 . S
C54 C55 1.390 . S
C54 N57 1.391 . S
C55 H27 0.930 . S
C55 C54 1.390 . S
C55 C56 1.392 . S
C56 H28 0.929 . S
C56 C53 1.391 . S
C56 C55 1.392 . S
N57 Co1 2.257 1_655 S
N57 C54 1.391 . S
N57 C58 1.388 . S
C58 H29 0.930 . S
C58 C53 1.391 . S
C58 N57 1.388 . S
Co59 O61 2.143 1_455 S
Co59 O67 2.074 . S
Co59 O70 2.093 1_455 S
Co59 O83 2.097 . S
Co59 N100 2.151 1_455 S
Co59 N108 2.214 . S
Co60 O61 2.160 1_455 S
Co60 O66 2.058 . S
Co60 O76 2.057 1_455 S
Co60 O91 2.037 . S
Co60 N95 2.145 . S
Co60 N116 2.257 1_455 S
O61 Co59 2.143 1_655 S
O61 Co60 2.160 1_655 S
C62 O63 1.278 . S
C62 O70 1.224 . S
O63 C62 1.278 . S
C64 O65 1.245 . S
C64 O76 1.232 . S
O65 C64 1.245 . S
O66 Co60 2.058 . S
O66 C92 1.269 . S
O67 Co59 2.074 . S
O67 C92 1.257 . S
H68 C93 0.930 . S
H69 C99 0.930 . S
O70 Co59 2.093 1_655 S
O70 C62 1.224 . S
H71 C103 0.929 . S
H72 C105 0.930 . S
H73 C106 0.930 . S
H74 C104 0.929 . S
H75 C107 0.928 1_655 S
O76 Co60 2.057 1_655 S
O76 C64 1.232 . S
H77 C96 0.929 . S
H78 C97 0.929 . S
H79 C109 0.931 . S
H80 C101 0.929 . S
H81 C110 0.930 . S
H82 C102 0.931 . S
O83 Co59 2.097 . S
O83 C111 1.214 . S
H84 C112 0.929 . S
H85 C113 0.960 . S
H86 C114 0.930 . S
H87 C115 0.929 . S
H88 C117 0.930 . S
H89 C94 0.930 . S
H90 C98 0.930 . S
O91 Co60 2.037 . S
O91 C111 1.234 . S
C92 O66 1.269 . S
C92 O67 1.257 . S
C93 H68 0.930 . S
C93 C96 1.388 . S
C93 C98 1.418 . S
C94 H89 0.930 . S
C94 C97 1.404 . S
C94 C98 1.353 . S
N95 Co60 2.145 . S
N95 C96 1.397 . S
N95 C97 1.334 . S
C96 H77 0.929 . S
C96 C93 1.388 . S
C96 N95 1.397 . S
C97 H78 0.929 . S
C97 C94 1.404 . S
C97 N95 1.334 . S
C98 H90 0.930 . S
C98 C93 1.418 . S
C98 C94 1.353 . S
C99 H69 0.930 . S
C99 N100 1.330 . S
C99 C101 1.446 . S
N100 Co59 2.151 1_655 S
N100 C99 1.330 . S
N100 C104 1.418 1_655 S
C101 H80 0.929 . S
C101 C99 1.446 . S
C101 C102 1.332 . S
C102 H82 0.931 . S
C102 C101 1.332 . S
C102 C103 1.267 1_655 S
C103 H71 0.929 . S
C103 C102 1.267 1_455 S
C103 C104 1.251 . S
C104 H74 0.929 . S
C104 N100 1.418 1_455 S
C104 C103 1.251 . S
C105 H72 0.930 . S
C105 C107 1.406 . S
C105 C110 1.261 . S
C106 H73 0.930 . S
C106 N108 1.325 . S
C106 C109 1.357 . S
C107 H75 0.928 1_455 S
C107 C105 1.406 . S
C107 N108 1.261 . S
N108 Co59 2.214 . S
N108 C106 1.325 . S
N108 C107 1.261 . S
C109 H79 0.931 . S
C109 C106 1.357 . S
C109 C110 1.312 . S
C110 H81 0.930 . S
C110 C105 1.261 . S
C110 C109 1.312 . S
C111 O83 1.214 . S
C111 O91 1.234 . S
C112 H84 0.929 . S
C112 C115 1.391 . S
C112 C117 1.391 . S
C113 H85 0.960 . S
C113 C114 1.368 1_455 S
C113 N116 1.383 1_455 S
C114 H86 0.930 . S
C114 C113 1.368 1_655 S
C114 C115 1.392 . S
C115 H87 0.929 . S
C115 C112 1.391 . S
C115 C114 1.392 . S
N116 Co60 2.257 1_655 S
N116 C113 1.383 1_655 S
N116 C117 1.388 . S
C117 H88 0.930 . S
C117 C112 1.391 . S
C117 N116 1.388 . S
Co118 O120 2.143 . S
Co118 O126 2.074 . S
Co118 O129 2.093 . S
Co118 O142 2.097 . S
Co118 N159 2.151 . S
Co118 N167 2.214 . S
Co119 O120 2.160 . S
Co119 O125 2.058 . S
Co119 O135 2.057 . S
Co119 O150 2.037 . S
Co119 N154 2.145 . S
Co119 N175 2.257 . S
O120 Co118 2.143 . S
O120 Co119 2.160 . S
C121 O122 1.278 . S
C121 O129 1.224 . S
O122 C121 1.278 . S
C123 O124 1.245 . S
C123 O135 1.232 . S
O124 C123 1.245 . S
O125 Co119 2.058 . S
O125 C151 1.269 . S
O126 Co118 2.074 . S
O126 C151 1.257 . S
H127 C152 0.930 . S
H128 C158 0.930 . S
O129 Co118 2.093 . S
O129 C121 1.224 . S
H130 C162 0.929 . S
H131 C164 0.930 . S
H132 C165 0.930 . S
H133 C163 0.929 . S
H134 C166 0.928 . S
O135 Co119 2.057 . S
O135 C123 1.232 . S
H136 C155 0.929 . S
H137 C156 0.929 . S
H138 C168 0.931 . S
H139 C160 0.929 1_554 S
H140 C169 0.930 . S
H141 C161 0.931 . S
O142 Co118 2.097 . S
O142 C170 1.214 . S
H143 C171 0.929 . S
H144 C172 0.929 . S
H145 C173 0.930 . S
H146 C174 0.929 . S
H147 C176 0.930 . S
H148 C153 0.930 . S
H149 C157 0.930 . S
O150 Co119 2.037 . S
O150 C170 1.234 . S
C151 O125 1.269 . S
C151 O126 1.257 . S
C152 H127 0.930 . S
C152 C155 1.388 . S
C152 C157 1.418 . S
C153 H148 0.930 . S
C153 C156 1.404 . S
C153 C157 1.353 . S
N154 Co119 2.145 . S
N154 C155 1.397 . S
N154 C156 1.334 . S
C155 H136 0.929 . S
C155 C152 1.388 . S
C155 N154 1.397 . S
C156 H137 0.929 . S
C156 C153 1.404 . S
C156 N154 1.334 . S
C157 H149 0.930 . S
C157 C152 1.418 . S
C157 C153 1.353 . S
C158 H128 0.930 . S
C158 N159 1.330 . S
C158 C160 1.450 . S
N159 Co118 2.151 . S
N159 C158 1.330 . S
N159 C163 1.418 . S
C160 H139 0.929 1_556 S
C160 C158 1.450 . S
C160 C161 1.328 1_556 S
C161 H141 0.931 . S
C161 C160 1.328 1_554 S
C161 C162 1.267 . S
C162 H130 0.929 . S
C162 C161 1.267 . S
C162 C163 1.251 1_554 S
C163 H133 0.929 . S
C163 N159 1.418 . S
C163 C162 1.251 1_556 S
C164 H131 0.930 . S
C164 C166 1.406 1_554 S
C164 C169 1.261 . S
C165 H132 0.930 . S
C165 N167 1.325 . S
C165 C168 1.357 . S
C166 H134 0.928 . S
C166 C164 1.406 1_556 S
C166 N167 1.261 . S
N167 Co118 2.214 . S
N167 C165 1.325 . S
N167 C166 1.261 . S
C168 H138 0.931 . S
C168 C165 1.357 . S
C168 C169 1.312 1_556 S
C169 H140 0.930 . S
C169 C164 1.261 . S
C169 C168 1.312 1_554 S
C170 O142 1.214 . S
C170 O150 1.234 . S
C171 H143 0.929 . S
C171 C174 1.391 . S
C171 C176 1.391 . S
C172 H144 0.929 . S
C172 C173 1.390 . S
C172 N175 1.391 . S
C173 H145 0.930 . S
C173 C172 1.390 . S
C173 C174 1.392 . S
C174 H146 0.929 . S
C174 C171 1.391 . S
C174 C173 1.392 . S
N175 Co119 2.257 . S
N175 C172 1.391 . S
N175 C176 1.388 . S
C176 H147 0.930 . S
C176 C171 1.391 . S
C176 N175 1.388 . S
Co177 O179 2.143 . S
Co177 O185 2.074 . S
Co177 O188 2.093 . S
Co177 O201 2.097 . S
Co177 N218 2.151 . S
Co177 N226 2.214 . S
Co178 O179 2.160 . S
Co178 O184 2.058 . S
Co178 O194 2.057 . S
Co178 O209 2.037 . S
Co178 N213 2.145 . S
Co178 N234 2.257 . S
O179 Co177 2.143 . S
O179 Co178 2.160 . S
C180 O181 1.278 . S
C180 O188 1.224 . S
O181 C180 1.278 . S
C182 O183 1.245 . S
C182 O194 1.232 . S
O183 C182 1.245 . S
O184 Co178 2.058 . S
O184 C210 1.269 . S
O185 Co177 2.074 . S
O185 C210 1.257 . S
H186 C211 0.930 . S
H187 C217 0.930 . S
O188 Co177 2.093 . S
O188 C180 1.224 . S
H189 C221 0.929 . S
H190 C223 0.930 . S
H191 C224 0.930 . S
H192 C222 0.929 . S
H193 C225 0.928 . S
O194 Co178 2.057 . S
O194 C182 1.232 . S
H195 C214 0.929 . S
H196 C215 0.929 . S
H197 C227 0.931 . S
H198 C219 0.928 1_556 S
H199 C228 0.948 . S
H200 C220 0.931 . S
O201 Co177 2.097 . S
O201 C229 1.214 . S
H202 C230 0.929 . S
H203 C231 0.929 . S
H204 C232 0.930 . S
H205 C233 0.929 . S
H206 C235 0.930 . S
H207 C212 0.930 . S
H208 C216 0.930 . S
O209 Co178 2.037 . S
O209 C229 1.234 . S
C210 O184 1.269 . S
C210 O185 1.257 . S
C211 H186 0.930 . S
C211 C214 1.388 . S
C211 C216 1.418 . S
C212 H207 0.930 . S
C212 C215 1.404 . S
C212 C216 1.353 . S
N213 Co178 2.145 . S
N213 C214 1.397 . S
N213 C215 1.334 . S
C214 H195 0.929 . S
C214 C211 1.388 . S
C214 N213 1.397 . S
C215 H196 0.929 . S
C215 C212 1.404 . S
C215 N213 1.334 . S
C216 H208 0.930 . S
C216 C211 1.418 . S
C216 C212 1.353 . S
C217 H187 0.930 . S
C217 N218 1.330 . S
C217 C219 1.470 . S
N218 Co177 2.151 . S
N218 C217 1.330 . S
N218 C222 1.418 . S
C219 H198 0.928 1_554 S
C219 C217 1.470 . S
C219 C220 1.310 1_554 S
C220 H200 0.931 . S
C220 C219 1.310 1_556 S
C220 C221 1.267 . S
C221 H189 0.929 . S
C221 C220 1.267 . S
C221 C222 1.251 1_556 S
C222 H192 0.929 . S
C222 N218 1.418 . S
C222 C221 1.251 1_554 S
C223 H190 0.930 . S
C223 C225 1.406 1_556 S
C223 C228 1.265 . S
C224 H191 0.930 . S
C224 N226 1.325 . S
C224 C227 1.357 . S
C225 H193 0.928 . S
C225 C223 1.406 1_554 S
C225 N226 1.261 . S
N226 Co177 2.214 . S
N226 C224 1.325 . S
N226 C225 1.261 . S
C227 H197 0.931 . S
C227 C224 1.357 . S
C227 C228 1.291 1_554 S
C228 H199 0.948 . S
C228 C223 1.265 . S
C228 C227 1.291 1_556 S
C229 O201 1.214 . S
C229 O209 1.234 . S
C230 H202 0.929 . S
C230 C233 1.391 . S
C230 C235 1.391 . S
C231 H203 0.929 . S
C231 C232 1.390 . S
C231 N234 1.391 . S
C232 H204 0.930 . S
C232 C231 1.390 . S
C232 C233 1.392 . S
C233 H205 0.929 . S
C233 C230 1.391 . S
C233 C232 1.392 . S
N234 Co178 2.257 . S
N234 C231 1.391 . S
N234 C235 1.388 . S
C235 H206 0.930 . S
C235 C230 1.391 . S
C235 N234 1.388 . S
Co236 O238 2.143 . S
Co236 O244 2.074 1_455 S
Co236 O247 2.093 . S
Co236 O260 2.097 . S
Co236 N277 2.151 . S
Co236 N285 2.214 . S
Co237 O238 2.160 1_655 S
Co237 O243 2.058 . S
Co237 O253 2.057 . S
Co237 O268 2.037 1_655 S
Co237 N272 2.145 . S
Co237 N293 2.257 1_655 S
O238 Co236 2.143 . S
O238 Co237 2.160 1_455 S
C239 O240 1.278 . S
C239 O247 1.224 . S
O240 C239 1.278 . S
C241 O242 1.245 . S
C241 O253 1.232 . S
O242 C241 1.245 . S
O243 Co237 2.058 . S
O243 C269 1.269 . S
O244 Co236 2.074 1_655 S
O244 C269 1.257 . S
H245 C270 0.930 . S
H246 C276 0.930 . S
O247 Co236 2.093 . S
O247 C239 1.224 . S
H248 C280 0.929 1_556 S
H249 C282 0.930 1_556 S
H250 C283 0.930 . S
H251 C281 0.929 . S
H252 C284 0.928 . S
O253 Co237 2.057 . S
O253 C241 1.232 . S
H254 C273 0.929 . S
H255 C274 0.929 . S
H256 C286 0.931 . S
H257 C278 0.929 . S
H258 C287 0.930 1_556 S
H259 C279 0.931 . S
O260 Co236 2.097 . S
O260 C288 1.214 . S
H261 C289 0.929 . S
H262 C290 0.929 . S
H263 C291 0.930 . S
H264 C292 0.929 . S
H265 C294 0.930 . S
H266 C271 0.930 . S
H267 C275 0.930 . S
O268 Co237 2.037 1_455 S
O268 C288 1.234 . S
C269 O243 1.269 . S
C269 O244 1.257 . S
C270 H245 0.930 . S
C270 C273 1.388 . S
C270 C275 1.418 . S
C271 H266 0.930 . S
C271 C274 1.404 . S
C271 C275 1.353 . S
N272 Co237 2.145 . S
N272 C273 1.397 . S
N272 C274 1.334 . S
C273 H254 0.929 . S
C273 C270 1.388 . S
C273 N272 1.397 . S
C274 H255 0.929 . S
C274 C271 1.404 . S
C274 N272 1.334 . S
C275 H267 0.930 . S
C275 C270 1.418 . S
C275 C271 1.353 . S
C276 H246 0.930 . S
C276 N277 1.330 . S
C276 C278 1.446 . S
N277 Co236 2.151 . S
N277 C276 1.330 . S
N277 C281 1.418 1_455 S
C278 H257 0.929 . S
C278 C276 1.446 . S
C278 C279 1.332 1_454 S
C279 H259 0.931 . S
C279 C278 1.332 1_656 S
C279 C280 1.267 1_556 S
C280 H248 0.929 1_554 S
C280 C279 1.267 1_554 S
C280 C281 1.251 . S
C281 H251 0.929 . S
C281 N277 1.418 1_655 S
C281 C280 1.251 . S
C282 H249 0.930 1_554 S
C282 C284 1.406 . S
C282 C287 1.261 . S
C283 H250 0.930 . S
C283 N285 1.325 . S
C283 C286 1.357 . S
C284 H252 0.928 . S
C284 C282 1.406 . S
C284 N285 1.261 . S
N285 Co236 2.214 . S
N285 C283 1.325 . S
N285 C284 1.261 . S
C286 H256 0.931 . S
C286 C283 1.357 . S
C286 C287 1.312 . S
C287 H258 0.930 1_554 S
C287 C282 1.261 . S
C287 C286 1.312 . S
C288 O260 1.214 . S
C288 O268 1.234 . S
C289 H261 0.929 . S
C289 C292 1.391 . S
C289 C294 1.391 . S
C290 H262 0.929 . S
C290 C291 1.390 . S
C290 N293 1.391 . S
C291 H263 0.930 . S
C291 C290 1.390 . S
C291 C292 1.392 . S
C292 H264 0.929 . S
C292 C289 1.391 . S
C292 C291 1.392 . S
N293 Co237 2.257 1_455 S
N293 C290 1.391 . S
N293 C294 1.388 . S
C294 H265 0.930 . S
C294 C289 1.391 . S
C294 N293 1.388 . S
Co295 O297 2.143 . S
Co295 O303 2.074 . S
Co295 O306 2.093 . S
Co295 O319 2.097 . S
Co295 N336 2.151 . S
Co295 N344 2.214 . S
Co296 O297 2.160 . S
Co296 O302 2.058 . S
Co296 O312 2.057 . S
Co296 O327 2.037 . S
Co296 N331 2.145 . S
Co296 N352 2.257 . S
O297 Co295 2.143 . S
O297 Co296 2.160 . S
C298 O299 1.278 . S
C298 O306 1.224 . S
O299 C298 1.278 . S
C300 O301 1.245 . S
C300 O312 1.232 . S
O301 C300 1.245 . S
O302 Co296 2.058 . S
O302 C328 1.269 . S
O303 Co295 2.074 . S
O303 C328 1.257 . S
H304 C329 0.930 . S
H305 C335 0.930 . S
O306 Co295 2.093 . S
O306 C298 1.224 . S
H307 C339 0.929 . S
H308 C341 0.930 . S
H309 C342 0.930 . S
H310 C340 0.929 . S
H311 C343 0.928 . S
O312 Co296 2.057 . S
O312 C300 1.232 . S
H313 C332 0.929 . S
H314 C333 0.929 . S
H315 C345 0.931 . S
H316 C337 0.929 . S
H317 C346 0.930 . S
H318 C338 0.931 . S
O319 Co295 2.097 . S
O319 C347 1.214 . S
H320 C348 0.929 . S
H321 C349 0.929 . S
H322 C350 0.930 . S
H323 C351 0.929 . S
H324 C353 0.930 . S
H325 C330 0.930 . S
H326 C334 0.930 . S
O327 Co296 2.037 . S
O327 C347 1.234 . S
C328 O302 1.269 . S
C328 O303 1.257 . S
C329 H304 0.930 . S
C329 C332 1.388 . S
C329 C334 1.418 . S
C330 H325 0.930 . S
C330 C333 1.404 . S
C330 C334 1.353 . S
N331 Co296 2.145 . S
N331 C332 1.397 . S
N331 C333 1.334 . S
C332 H313 0.929 . S
C332 C329 1.388 . S
C332 N331 1.397 . S
C333 H314 0.929 . S
C333 C330 1.404 . S
C333 N331 1.334 . S
C334 H326 0.930 . S
C334 C329 1.418 . S
C334 C330 1.353 . S
C335 H305 0.930 . S
C335 N336 1.330 . S
C335 C337 1.446 . S
N336 Co295 2.151 . S
N336 C335 1.330 . S
N336 C340 1.418 . S
C337 H316 0.929 . S
C337 C335 1.446 . S
C337 C338 1.332 . S
C338 H318 0.931 . S
C338 C337 1.332 . S
C338 C339 1.267 . S
C339 H307 0.929 . S
C339 C338 1.267 . S
C339 C340 1.251 . S
C340 H310 0.929 . S
C340 N336 1.418 . S
C340 C339 1.251 . S
C341 H308 0.930 . S
C341 C343 1.406 . S
C341 C346 1.261 . S
C342 H309 0.930 . S
C342 N344 1.325 . S
C342 C345 1.357 . S
C343 H311 0.928 . S
C343 C341 1.406 . S
C343 N344 1.261 . S
N344 Co295 2.214 . S
N344 C342 1.325 . S
N344 C343 1.261 . S
C345 H315 0.931 . S
C345 C342 1.357 . S
C345 C346 1.312 . S
C346 H317 0.930 . S
C346 C341 1.261 . S
C346 C345 1.312 . S
C347 O319 1.214 . S
C347 O327 1.234 . S
C348 H320 0.929 . S
C348 C351 1.391 . S
C348 C353 1.391 . S
C349 H321 0.929 . S
C349 C350 1.390 . S
C349 N352 1.391 . S
C350 H322 0.930 . S
C350 C349 1.390 . S
C350 C351 1.392 . S
C351 H323 0.929 . S
C351 C348 1.391 . S
C351 C350 1.392 . S
N352 Co296 2.257 . S
N352 C349 1.391 . S
N352 C353 1.388 . S
C353 H324 0.930 . S
C353 C348 1.391 . S
C353 N352 1.388 . S
Co354 O356 2.143 . S
Co354 O362 2.074 . S
Co354 O365 2.093 . S
Co354 O378 2.097 . S
Co354 N395 2.151 . S
Co354 N403 2.214 . S
Co355 O356 2.160 . S
Co355 O361 2.058 . S
Co355 O371 2.057 . S
Co355 O386 2.037 . S
Co355 N390 2.145 . S
Co355 N411 2.257 . S
O356 Co354 2.143 . S
O356 Co355 2.160 . S
C357 O358 1.278 . S
C357 O365 1.224 . S
O358 C357 1.278 . S
C359 O360 1.245 . S
C359 O371 1.232 . S
O360 C359 1.245 . S
O361 Co355 2.058 . S
O361 C387 1.269 . S
O362 Co354 2.074 . S
O362 C387 1.257 . S
H363 C388 0.930 . S
H364 C394 0.930 . S
O365 Co354 2.093 . S
O365 C357 1.224 . S
H366 C398 0.929 . S
H367 C400 0.930 . S
H368 C401 0.930 . S
H369 C399 0.929 . S
H370 C402 0.928 . S
O371 Co355 2.057 . S
O371 C359 1.232 . S
H372 C391 0.929 . S
H373 C392 0.929 . S
H374 C404 0.931 . S
H375 C396 0.929 . S
H376 C405 0.930 . S
H377 C397 0.931 . S
O378 Co354 2.097 . S
O378 C406 1.214 . S
H379 C407 0.929 . S
H380 C408 0.929 . S
H381 C409 0.930 . S
H382 C410 0.929 . S
H383 C412 0.930 . S
H384 C389 0.930 . S
H385 C393 0.930 . S
O386 Co355 2.037 . S
O386 C406 1.234 . S
C387 O361 1.269 . S
C387 O362 1.257 . S
C388 H363 0.930 . S
C388 C391 1.388 . S
C388 C393 1.418 . S
C389 H384 0.930 . S
C389 C392 1.404 . S
C389 C393 1.353 . S
N390 Co355 2.145 . S
N390 C391 1.397 . S
N390 C392 1.334 . S
C391 H372 0.929 . S
C391 C388 1.388 . S
C391 N390 1.397 . S
C392 H373 0.929 . S
C392 C389 1.404 . S
C392 N390 1.334 . S
C393 H385 0.930 . S
C393 C388 1.418 . S
C393 C389 1.353 . S
C394 H364 0.930 . S
C394 N395 1.330 . S
C394 C396 1.446 . S
N395 Co354 2.151 . S
N395 C394 1.330 . S
N395 C399 1.418 . S
C396 H375 0.929 . S
C396 C394 1.446 . S
C396 C397 1.332 . S
C397 H377 0.931 . S
C397 C396 1.332 . S
C397 C398 1.267 . S
C398 H366 0.929 . S
C398 C397 1.267 . S
C398 C399 1.251 . S
C399 H369 0.929 . S
C399 N395 1.418 . S
C399 C398 1.251 . S
C400 H367 0.930 . S
C400 C402 1.406 . S
C400 C405 1.261 . S
C401 H368 0.930 . S
C401 N403 1.325 . S
C401 C404 1.357 . S
C402 H370 0.928 . S
C402 C400 1.406 . S
C402 N403 1.261 . S
N403 Co354 2.214 . S
N403 C401 1.325 . S
N403 C402 1.261 . S
C404 H374 0.931 . S
C404 C401 1.357 . S
C404 C405 1.312 . S
C405 H376 0.930 . S
C405 C400 1.261 . S
C405 C404 1.312 . S
C406 O378 1.214 . S
C406 O386 1.234 . S
C407 H379 0.929 . S
C407 C410 1.391 . S
C407 C412 1.391 . S
C408 H380 0.929 . S
C408 C409 1.390 . S
C408 N411 1.391 . S
C409 H381 0.930 . S
C409 C408 1.390 . S
C409 C410 1.392 . S
C410 H382 0.929 . S
C410 C407 1.391 . S
C410 C409 1.392 . S
N411 Co355 2.257 . S
N411 C408 1.391 . S
N411 C412 1.388 . S
C412 H383 0.930 . S
C412 C407 1.391 . S
C412 N411 1.388 . S
Co413 O415 2.143 1_455 S
Co413 O421 2.074 . S
Co413 O424 2.093 1_455 S
Co413 O437 2.097 . S
Co413 N454 2.146 1_455 S
Co413 N462 2.214 . S
Co414 O415 2.160 1_455 S
Co414 O420 2.058 . S
Co414 O430 2.057 1_455 S
Co414 O445 2.037 . S
Co414 N449 2.145 . S
Co414 N470 2.257 1_455 S
O415 Co413 2.143 1_655 S
O415 Co414 2.160 1_655 S
C416 O417 1.278 . S
C416 O424 1.224 . S
O417 C416 1.278 . S
C418 O419 1.245 . S
C418 O430 1.232 . S
O419 C418 1.245 . S
O420 Co414 2.058 . S
O420 C446 1.269 . S
O421 Co413 2.074 . S
O421 C446 1.257 . S
H422 C447 0.930 . S
H423 C453 0.930 . S
O424 Co413 2.093 1_655 S
O424 C416 1.224 . S
H425 C457 0.929 . S
H426 C459 0.930 . S
H427 C460 0.930 . S
H428 C458 0.929 . S
H429 C461 0.928 . S
O430 Co414 2.057 1_655 S
O430 C418 1.232 . S
H431 C450 0.929 . S
H432 C451 0.929 . S
H433 C463 0.931 . S
H434 C455 0.929 . S
H435 C464 0.930 1_554 S
H436 C456 0.931 . S
O437 Co413 2.097 . S
O437 C465 1.214 . S
H438 C466 0.929 . S
H439 C467 0.929 1_455 S
H440 C468 0.930 . S
H441 C469 0.929 . S
H442 C471 0.930 . S
H443 C448 0.930 . S
H444 C452 0.930 . S
O445 Co414 2.037 . S
O445 C465 1.234 . S
C446 O420 1.269 . S
C446 O421 1.257 . S
C447 H422 0.930 . S
C447 C450 1.388 . S
C447 C452 1.418 . S
C448 H443 0.930 . S
C448 C451 1.404 . S
C448 C452 1.353 . S
N449 Co414 2.145 . S
N449 C450 1.397 . S
N449 C451 1.334 . S
C450 H431 0.929 . S
C450 C447 1.388 . S
C450 N449 1.397 . S
C451 H432 0.929 . S
C451 C448 1.404 . S
C451 N449 1.334 . S
C452 H444 0.930 . S
C452 C447 1.418 . S
C452 C448 1.353 . S
C453 H423 0.930 . S
C453 N454 1.347 . S
C453 C455 1.446 . S
N454 Co413 2.146 1_655 S
N454 C453 1.347 . S
N454 C458 1.407 1_655 S
C455 H434 0.929 . S
C455 C453 1.446 . S
C455 C456 1.332 1_556 S
C456 H436 0.931 . S
C456 C455 1.332 1_554 S
C456 C457 1.267 1_655 S
C457 H425 0.929 . S
C457 C456 1.267 1_455 S
C457 C458 1.251 1_554 S
C458 H428 0.929 . S
C458 N454 1.407 1_455 S
C458 C457 1.251 1_556 S
C459 H426 0.930 . S
C459 C461 1.406 1_554 S
C459 C464 1.261 1_554 S
C460 H427 0.930 . S
C460 N462 1.325 . S
C460 C463 1.357 . S
C461 H429 0.928 . S
C461 C459 1.406 1_556 S
C461 N462 1.261 . S
N462 Co413 2.214 . S
N462 C460 1.325 . S
N462 C461 1.261 . S
C463 H433 0.931 . S
C463 C460 1.357 . S
C463 C464 1.312 . S
C464 H435 0.930 1_556 S
C464 C459 1.261 1_556 S
C464 C463 1.312 . S
C465 O437 1.214 . S
C465 O445 1.234 . S
C466 H438 0.929 . S
C466 C469 1.391 . S
C466 C471 1.391 . S
C467 H439 0.929 1_655 S
C467 C468 1.390 . S
C467 N470 1.391 . S
C468 H440 0.930 . S
C468 C467 1.390 . S
C468 C469 1.392 . S
C469 H441 0.929 . S
C469 C466 1.391 . S
C469 C468 1.392 . S
N470 Co414 2.257 1_655 S
N470 C467 1.391 . S
N470 C471 1.388 . S
C471 H442 0.930 . S
C471 C466 1.391 . S
C471 N470 1.388 . S
Co472 O474 2.143 1_545 S
Co472 O480 2.074 1_545 S
Co472 O483 2.093 . S
Co472 O496 2.097 . S
Co472 N513 2.151 1_545 S
Co472 N521 2.214 . S
Co473 O474 2.160 . S
Co473 O479 2.058 . S
Co473 O489 2.057 . S
Co473 O504 2.037 1_565 S
Co473 N508 2.145 . S
Co473 N529 2.257 1_565 S
O474 Co472 2.143 1_565 S
O474 Co473 2.160 . S
C475 O476 1.278 . S
C475 O483 1.224 . S
O476 C475 1.278 . S
C477 O478 1.245 . S
C477 O489 1.232 . S
O478 C477 1.245 . S
O479 Co473 2.058 . S
O479 C505 1.269 . S
O480 Co472 2.074 1_565 S
O480 C505 1.257 . S
H481 C506 0.930 . S
H482 C512 0.930 . S
O483 Co472 2.093 . S
O483 C475 1.224 . S
H484 C516 0.929 . S
H485 C518 0.930 . S
H486 C519 0.930 . S
H487 C517 0.929 . S
H488 C520 0.928 . S
O489 Co473 2.057 . S
O489 C477 1.232 . S
H490 C509 0.929 1_545 S
H491 C510 0.929 . S
H492 C522 0.931 . S
H493 C514 0.929 . S
H494 C523 0.930 . S
H495 C515 0.931 . S
O496 Co472 2.097 . S
O496 C524 1.214 . S
H497 C525 0.929 . S
H498 C526 0.929 . S
H499 C527 0.930 . S
H500 C528 0.929 . S
H501 C530 0.930 1_565 S
H502 C507 0.930 . S
H503 C511 0.930 . S
O504 Co473 2.037 1_545 S
O504 C524 1.234 . S
C505 O479 1.269 . S
C505 O480 1.257 . S
C506 H481 0.930 . S
C506 C509 1.388 . S
C506 C511 1.418 . S
C507 H502 0.930 . S
C507 C510 1.404 . S
C507 C511 1.353 . S
N508 Co473 2.145 . S
N508 C509 1.397 . S
N508 C510 1.334 . S
C509 H490 0.929 1_565 S
C509 C506 1.388 . S
C509 N508 1.397 . S
C510 H491 0.929 . S
C510 C507 1.404 . S
C510 N508 1.334 . S
C511 H503 0.930 . S
C511 C506 1.418 . S
C511 C507 1.353 . S
C512 H482 0.930 . S
C512 N513 1.330 . S
C512 C514 1.446 . S
N513 Co472 2.151 1_565 S
N513 C512 1.330 . S
N513 C517 1.418 . S
C514 H493 0.929 . S
C514 C512 1.446 . S
C514 C515 1.332 . S
C515 H495 0.931 . S
C515 C514 1.332 . S
C515 C516 1.267 . S
C516 H484 0.929 . S
C516 C515 1.267 . S
C516 C517 1.251 . S
C517 H487 0.929 . S
C517 N513 1.418 . S
C517 C516 1.251 . S
C518 H485 0.930 . S
C518 C520 1.406 . S
C518 C523 1.261 . S
C519 H486 0.930 . S
C519 N521 1.325 . S
C519 C522 1.357 . S
C520 H488 0.928 . S
C520 C518 1.406 . S
C520 N521 1.261 . S
N521 Co472 2.214 . S
N521 C519 1.325 . S
N521 C520 1.261 . S
C522 H492 0.931 . S
C522 C519 1.357 . S
C522 C523 1.312 . S
C523 H494 0.930 . S
C523 C518 1.261 . S
C523 C522 1.312 . S
C524 O496 1.214 . S
C524 O504 1.234 . S
C525 H497 0.929 . S
C525 C528 1.391 . S
C525 C530 1.391 . S
C526 H498 0.929 . S
C526 C527 1.390 . S
C526 N529 1.391 . S
C527 H499 0.930 . S
C527 C526 1.390 . S
C527 C528 1.392 . S
C528 H500 0.929 . S
C528 C525 1.391 . S
C528 C527 1.392 . S
N529 Co473 2.257 1_545 S
N529 C526 1.391 . S
N529 C530 1.388 . S
C530 H501 0.930 1_545 S
C530 C525 1.391 . S
C530 N529 1.388 . S
Co531 O533 2.143 . S
Co531 O539 2.074 . S
Co531 O542 2.093 . S
Co531 O555 2.097 . S
Co531 N572 2.151 . S
Co531 N580 2.214 . S
Co532 O533 2.160 . S
Co532 O538 2.058 . S
Co532 O548 2.057 . S
Co532 O563 2.037 . S
Co532 N567 2.145 . S
Co532 N588 2.257 . S
O533 Co531 2.143 . S
O533 Co532 2.160 . S
C534 O535 1.278 . S
C534 O542 1.224 . S
O535 C534 1.278 . S
C536 O537 1.245 . S
C536 O548 1.232 . S
O537 C536 1.245 . S
O538 Co532 2.058 . S
O538 C564 1.269 . S
O539 Co531 2.074 . S
O539 C564 1.257 . S
H540 C565 0.930 . S
H541 C571 0.930 . S
O542 Co531 2.093 . S
O542 C534 1.224 . S
H543 C575 0.929 . S
H544 C577 0.930 . S
H545 C578 0.930 . S
H546 C576 0.929 . S
H547 C579 0.928 . S
O548 Co532 2.057 . S
O548 C536 1.232 . S
H549 C568 0.929 . S
H550 C569 0.929 . S
H551 C581 0.931 . S
H552 C573 0.929 . S
H553 C582 0.930 . S
H554 C574 0.931 . S
O555 Co531 2.097 . S
O555 C583 1.214 . S
H556 C584 0.929 . S
H557 C585 0.929 . S
H558 C586 0.911 1_565 S
H559 C587 0.929 1_565 S
H560 C589 0.930 . S
H561 C566 0.930 . S
H562 C570 0.930 . S
O563 Co532 2.037 . S
O563 C583 1.234 . S
C564 O538 1.269 . S
C564 O539 1.257 . S
C565 H540 0.930 . S
C565 C568 1.388 . S
C565 C570 1.418 1_545 S
C566 H561 0.930 . S
C566 C569 1.404 1_565 S
C566 C570 1.353 . S
N567 Co532 2.145 . S
N567 C568 1.397 . S
N567 C569 1.334 . S
C568 H549 0.929 . S
C568 C565 1.388 . S
C568 N567 1.397 . S
C569 H550 0.929 . S
C569 C566 1.404 1_545 S
C569 N567 1.334 . S
C570 H562 0.930 . S
C570 C565 1.418 1_565 S
C570 C566 1.353 . S
C571 H541 0.930 . S
C571 N572 1.330 . S
C571 C573 1.446 . S
N572 Co531 2.151 . S
N572 C571 1.330 . S
N572 C576 1.418 . S
C573 H552 0.929 . S
C573 C571 1.446 . S
C573 C574 1.332 . S
C574 H554 0.931 . S
C574 C573 1.332 . S
C574 C575 1.267 . S
C575 H543 0.929 . S
C575 C574 1.267 . S
C575 C576 1.251 . S
C576 H546 0.929 . S
C576 N572 1.418 . S
C576 C575 1.251 . S
C577 H544 0.930 . S
C577 C579 1.406 . S
C577 C582 1.261 . S
C578 H545 0.930 . S
C578 N580 1.325 . S
C578 C581 1.357 . S
C579 H547 0.928 . S
C579 C577 1.406 . S
C579 N580 1.261 . S
N580 Co531 2.214 . S
N580 C578 1.325 . S
N580 C579 1.261 . S
C581 H551 0.931 . S
C581 C578 1.357 . S
C581 C582 1.312 . S
C582 H553 0.930 . S
C582 C577 1.261 . S
C582 C581 1.312 . S
C583 O555 1.214 . S
C583 O563 1.234 . S
C584 H556 0.929 . S
C584 C587 1.391 . S
C584 C589 1.391 . S
C585 H557 0.929 . S
C585 C586 1.405 . S
C585 N588 1.391 . S
C586 H558 0.911 1_545 S
C586 C585 1.405 . S
C586 C587 1.396 . S
C587 H559 0.929 1_545 S
C587 C584 1.391 . S
C587 C586 1.396 . S
N588 Co532 2.257 . S
N588 C585 1.391 . S
N588 C589 1.388 . S
C589 H560 0.930 . S
C589 C584 1.391 . S
C589 N588 1.388 . S
Co590 O592 2.143 1_565 S
Co590 O598 2.074 1_565 S
Co590 O601 2.093 . S
Co590 O614 2.097 . S
Co590 N631 2.151 1_565 S
Co590 N639 2.214 . S
Co591 O592 2.160 . S
Co591 O597 2.058 . S
Co591 O607 2.057 . S
Co591 O622 2.037 1_545 S
Co591 N626 2.145 . S
Co591 N647 2.257 1_545 S
O592 Co590 2.143 1_545 S
O592 Co591 2.160 . S
C593 O594 1.278 . S
C593 O601 1.224 . S
O594 C593 1.278 . S
C595 O596 1.245 . S
C595 O607 1.232 . S
O596 C595 1.245 . S
O597 Co591 2.058 . S
O597 C623 1.269 . S
O598 Co590 2.074 1_545 S
O598 C623 1.257 . S
H599 C624 0.930 . S
H600 C630 0.930 . S
O601 Co590 2.093 . S
O601 C593 1.224 . S
H602 C634 0.929 . S
H603 C636 0.930 . S
H604 C637 0.930 . S
H605 C635 0.929 . S
H606 C638 0.928 . S
O607 Co591 2.057 . S
O607 C595 1.232 . S
H608 C627 0.929 1_565 S
H609 C628 0.929 . S
H610 C640 0.931 . S
H611 C632 0.929 . S
H612 C641 0.930 . S
H613 C633 0.931 . S
O614 Co590 2.097 . S
O614 C642 1.214 . S
H615 C643 0.929 . S
H616 C644 0.929 . S
H617 C645 0.930 . S
H618 C646 0.929 . S
H619 C648 0.930 . S
H620 C625 0.930 1_655 S
H621 C629 0.930 . S
O622 Co591 2.037 1_565 S
O622 C642 1.234 . S
C623 O597 1.269 . S
C623 O598 1.257 . S
C624 H599 0.930 . S
C624 C627 1.388 . S
C624 C629 1.418 1_455 S
C625 H620 0.930 1_455 S
C625 C628 1.404 . S
C625 C629 1.353 1_455 S
N626 Co591 2.145 . S
N626 C627 1.397 . S
N626 C628 1.334 . S
C627 H608 0.929 1_545 S
C627 C624 1.388 . S
C627 N626 1.397 . S
C628 H609 0.929 . S
C628 C625 1.404 . S
C628 N626 1.334 . S
C629 H621 0.930 . S
C629 C624 1.418 1_655 S
C629 C625 1.353 1_655 S
C630 H600 0.930 . S
C630 N631 1.330 . S
C630 C632 1.446 . S
N631 Co590 2.151 1_545 S
N631 C630 1.330 . S
N631 C635 1.418 . S
C632 H611 0.929 . S
C632 C630 1.446 . S
C632 C633 1.332 . S
C633 H613 0.931 . S
C633 C632 1.332 . S
C633 C634 1.267 . S
C634 H602 0.929 . S
C634 C633 1.267 . S
C634 C635 1.251 . S
C635 H605 0.929 . S
C635 N631 1.418 . S
C635 C634 1.251 . S
C636 H603 0.930 . S
C636 C638 1.406 . S
C636 C641 1.261 . S
C637 H604 0.930 . S
C637 N639 1.325 . S
C637 C640 1.357 . S
C638 H606 0.928 . S
C638 C636 1.406 . S
C638 N639 1.261 . S
N639 Co590 2.214 . S
N639 C637 1.325 . S
N639 C638 1.261 . S
C640 H610 0.931 . S
C640 C637 1.357 . S
C640 C641 1.312 . S
C641 H612 0.930 . S
C641 C636 1.261 . S
C641 C640 1.312 . S
C642 O614 1.214 . S
C642 O622 1.234 . S
C643 H615 0.929 . S
C643 C646 1.391 . S
C643 C648 1.391 1_565 S
C644 H616 0.929 . S
C644 C645 1.390 . S
C644 N647 1.391 . S
C645 H617 0.930 . S
C645 C644 1.390 . S
C645 C646 1.392 . S
C646 H618 0.929 . S
C646 C643 1.391 . S
C646 C645 1.392 . S
N647 Co591 2.257 1_565 S
N647 C644 1.391 . S
N647 C648 1.388 1_565 S
C648 H619 0.930 . S
C648 C643 1.391 1_545 S
C648 N647 1.388 1_545 S
Co649 O651 2.143 1_554 S
Co649 O657 2.074 . S
Co649 O660 2.078 1_554 S
Co649 O673 2.097 . S
Co649 N690 2.151 1_554 S
Co649 N698 2.214 . S
Co650 O651 2.160 1_554 S
Co650 O656 2.058 . S
Co650 O666 2.057 1_554 S
Co650 O681 2.037 . S
Co650 N685 2.145 . S
Co650 N706 2.257 1_554 S
O651 Co649 2.143 1_556 S
O651 Co650 2.160 1_556 S
C652 O653 1.278 . S
C652 O660 1.249 . S
O653 C652 1.278 . S
C654 O655 1.245 . S
C654 O666 1.232 . S
O655 C654 1.245 . S
O656 Co650 2.058 . S
O656 C682 1.269 . S
O657 Co649 2.074 . S
O657 C682 1.257 . S
H658 C683 0.930 . S
H659 C689 0.930 . S
O660 Co649 2.078 1_556 S
O660 C652 1.249 . S
H661 C693 0.929 . S
H662 C695 0.930 . S
H663 C696 0.930 . S
H664 C694 0.929 1_554 S
H665 C697 0.928 . S
O666 Co650 2.057 1_556 S
O666 C654 1.232 . S
H667 C686 0.929 . S
H668 C687 0.929 1_556 S
H669 C699 0.931 . S
H670 C691 0.929 . S
H671 C700 0.930 . S
H672 C692 0.931 . S
O673 Co649 2.097 . S
O673 C701 1.214 . S
H674 C702 0.929 . S
H675 C703 0.929 . S
H676 C704 0.930 1_545 S
H677 C705 0.929 1_545 S
H678 C707 0.930 . S
H679 C684 0.930 . S
H680 C688 0.930 . S
O681 Co650 2.037 . S
O681 C701 1.234 . S
C682 O656 1.269 . S
C682 O657 1.257 . S
C683 H658 0.930 . S
C683 C686 1.388 . S
C683 C688 1.418 1_565 S
C684 H679 0.930 . S
C684 C687 1.404 1_545 S
C684 C688 1.353 . S
N685 Co650 2.145 . S
N685 C686 1.397 . S
N685 C687 1.334 . S
C686 H667 0.929 . S
C686 C683 1.388 . S
C686 N685 1.397 . S
C687 H668 0.929 1_554 S
C687 C684 1.404 1_565 S
C687 N685 1.334 . S
C688 H680 0.930 . S
C688 C683 1.418 1_545 S
C688 C684 1.353 . S
C689 H659 0.930 . S
C689 N690 1.330 . S
C689 C691 1.446 . S
N690 Co649 2.151 1_556 S
N690 C689 1.330 . S
N690 C694 1.418 . S
C691 H670 0.929 . S
C691 C689 1.446 . S
C691 C692 1.332 . S
C692 H672 0.931 . S
C692 C691 1.332 . S
C692 C693 1.267 . S
C693 H661 0.929 . S
C693 C692 1.267 . S
C693 C694 1.251 . S
C694 H664 0.929 1_556 S
C694 N690 1.418 . S
C694 C693 1.251 . S
C695 H662 0.930 . S
C695 C697 1.406 . S
C695 C700 1.261 . S
C696 H663 0.930 . S
C696 N698 1.325 . S
C696 C699 1.357 . S
C697 H665 0.928 . S
C697 C695 1.406 . S
C697 N698 1.261 . S
N698 Co649 2.214 . S
N698 C696 1.325 . S
N698 C697 1.261 . S
C699 H669 0.931 . S
C699 C696 1.357 . S
C699 C700 1.312 . S
C700 H671 0.930 . S
C700 C695 1.261 . S
C700 C699 1.312 . S
C701 O673 1.214 . S
C701 O681 1.234 . S
C702 H674 0.929 . S
C702 C705 1.391 . S
C702 C707 1.391 . S
C703 H675 0.929 . S
C703 C704 1.390 . S
C703 N706 1.391 1_554 S
C704 H676 0.930 1_565 S
C704 C703 1.390 . S
C704 C705 1.392 1_554 S
C705 H677 0.929 1_565 S
C705 C702 1.391 . S
C705 C704 1.392 1_556 S
N706 Co650 2.257 1_556 S
N706 C703 1.391 1_556 S
N706 C707 1.388 . S
C707 H678 0.930 . S
C707 C702 1.391 . S
C707 N706 1.388 . S
Co708 O710 2.143 . S
Co708 O716 2.074 1_556 S
Co708 O719 2.093 . S
Co708 O732 2.097 . S
Co708 N749 2.151 1_556 S
Co708 N757 2.214 . S
Co709 O710 2.160 1_554 S
Co709 O715 2.058 . S
Co709 O725 2.057 . S
Co709 O740 2.037 1_554 S
Co709 N744 2.145 . S
Co709 N765 2.257 1_554 S
O710 Co708 2.143 . S
O710 Co709 2.160 1_556 S
C711 O712 1.278 . S
C711 O719 1.224 . S
O712 C711 1.278 . S
C713 O714 1.245 . S
C713 O725 1.232 . S
O714 C713 1.245 . S
O715 Co709 2.058 . S
O715 C741 1.269 . S
O716 Co708 2.074 1_554 S
O716 C741 1.257 . S
H717 C742 0.930 . S
H718 C748 0.930 . S
O719 Co708 2.093 . S
O719 C711 1.224 . S
H720 C752 0.929 . S
H721 C754 0.930 . S
H722 C755 0.930 . S
H723 C753 0.929 . S
H724 C756 0.928 . S
O725 Co709 2.057 . S
O725 C713 1.232 . S
H726 C745 0.929 . S
H727 C746 0.929 . S
H728 C758 0.931 . S
H729 C750 0.929 . S
H730 C759 0.930 . S
H731 C751 0.931 . S
O732 Co708 2.097 . S
O732 C760 1.214 . S
H733 C761 0.929 . S
H734 C762 0.929 . S
H735 C763 0.930 . S
H736 C764 0.929 . S
H737 C766 0.930 . S
H738 C743 0.930 . S
H739 C747 0.930 . S
O740 Co709 2.037 1_556 S
O740 C760 1.234 . S
C741 O715 1.269 . S
C741 O716 1.257 . S
C742 H717 0.930 . S
C742 C745 1.388 . S
C742 C747 1.418 . S
C743 H738 0.930 . S
C743 C746 1.404 . S
C743 C747 1.353 . S
N744 Co709 2.145 . S
N744 C745 1.397 . S
N744 C746 1.334 . S
C745 H726 0.929 . S
C745 C742 1.388 . S
C745 N744 1.397 . S
C746 H727 0.929 . S
C746 C743 1.404 . S
C746 N744 1.334 . S
C747 H739 0.930 . S
C747 C742 1.418 . S
C747 C743 1.353 . S
C748 H718 0.930 . S
C748 N749 1.330 1_556 S
C748 C750 1.446 1_556 S
N749 Co708 2.151 1_554 S
N749 C748 1.330 1_554 S
N749 C753 1.418 . S
C750 H729 0.929 . S
C750 C748 1.446 1_554 S
C750 C751 1.332 . S
C751 H731 0.931 . S
C751 C750 1.332 . S
C751 C752 1.267 . S
C752 H720 0.929 . S
C752 C751 1.267 . S
C752 C753 1.251 . S
C753 H723 0.929 . S
C753 N749 1.418 . S
C753 C752 1.251 . S
C754 H721 0.930 . S
C754 C756 1.406 . S
C754 C759 1.261 . S
C755 H722 0.930 . S
C755 N757 1.325 . S
C755 C758 1.357 . S
C756 H724 0.928 . S
C756 C754 1.406 . S
C756 N757 1.261 . S
N757 Co708 2.214 . S
N757 C755 1.325 . S
N757 C756 1.261 . S
C758 H728 0.931 . S
C758 C755 1.357 . S
C758 C759 1.312 . S
C759 H730 0.930 . S
C759 C754 1.261 . S
C759 C758 1.312 . S
C760 O732 1.214 . S
C760 O740 1.234 . S
C761 H733 0.929 . S
C761 C764 1.391 . S
C761 C766 1.391 . S
C762 H734 0.929 . S
C762 C763 1.390 . S
C762 N765 1.391 . S
C763 H735 0.930 . S
C763 C762 1.390 . S
C763 C764 1.392 . S
C764 H736 0.929 . S
C764 C761 1.391 . S
C764 C763 1.392 . S
N765 Co709 2.257 1_556 S
N765 C762 1.391 . S
N765 C766 1.388 . S
C766 H737 0.930 . S
C766 C761 1.391 . S
C766 N765 1.388 . S
Co767 O769 2.143 1_556 S
Co767 O775 2.074 1_556 S
Co767 O778 2.093 . S
Co767 O791 2.097 . S
Co767 N808 2.151 1_556 S
Co767 N816 2.214 . S
Co768 O769 2.160 . S
Co768 O774 2.058 . S
Co768 O784 2.057 . S
Co768 O799 2.037 1_554 S
Co768 N803 2.145 . S
Co768 N824 2.257 1_554 S
O769 Co767 2.143 1_554 S
O769 Co768 2.160 . S
C770 O771 1.278 . S
C770 O778 1.224 . S
O771 C770 1.278 . S
C772 O773 1.245 . S
C772 O784 1.232 . S
O773 C772 1.245 . S
O774 Co768 2.058 . S
O774 C800 1.269 . S
O775 Co767 2.074 1_554 S
O775 C800 1.257 . S
H776 C801 0.930 . S
H777 C807 0.930 . S
O778 Co767 2.093 . S
O778 C770 1.224 . S
H779 C811 0.929 . S
H780 C813 0.930 . S
H781 C814 0.930 . S
H782 C812 0.929 . S
H783 C815 0.928 . S
O784 Co768 2.057 . S
O784 C772 1.232 . S
H785 C804 0.929 1_556 S
H786 C805 0.929 . S
H787 C817 0.931 . S
H788 C809 0.929 . S
H789 C818 0.930 . S
H790 C810 0.931 . S
O791 Co767 2.097 . S
O791 C819 1.214 . S
H792 C820 0.929 . S
H793 C821 0.929 . S
H794 C822 0.930 . S
H795 C823 0.929 . S
H796 C825 0.930 . S
H797 C802 0.930 1_565 S
H798 C806 0.930 . S
O799 Co768 2.037 1_556 S
O799 C819 1.234 . S
C800 O774 1.269 . S
C800 O775 1.257 . S
C801 H776 0.930 . S
C801 C804 1.388 . S
C801 C806 1.418 1_545 S
C802 H797 0.930 1_545 S
C802 C805 1.404 . S
C802 C806 1.353 1_545 S
N803 Co768 2.145 . S
N803 C804 1.397 . S
N803 C805 1.334 . S
C804 H785 0.929 1_554 S
C804 C801 1.388 . S
C804 N803 1.397 . S
C805 H786 0.929 . S
C805 C802 1.404 . S
C805 N803 1.334 . S
C806 H798 0.930 . S
C806 C801 1.418 1_565 S
C806 C802 1.353 1_565 S
C807 H777 0.930 . S
C807 N808 1.330 . S
C807 C809 1.446 . S
N808 Co767 2.151 1_554 S
N808 C807 1.330 . S
N808 C812 1.418 . S
C809 H788 0.929 . S
C809 C807 1.446 . S
C809 C810 1.332 . S
C810 H790 0.931 . S
C810 C809 1.332 . S
C810 C811 1.267 . S
C811 H779 0.929 . S
C811 C810 1.267 . S
C811 C812 1.251 . S
C812 H782 0.929 . S
C812 N808 1.418 . S
C812 C811 1.251 . S
C813 H780 0.930 . S
C813 C815 1.406 . S
C813 C818 1.261 . S
C814 H781 0.930 . S
C814 N816 1.325 . S
C814 C817 1.357 . S
C815 H783 0.928 . S
C815 C813 1.406 . S
C815 N816 1.261 . S
N816 Co767 2.214 . S
N816 C814 1.325 . S
N816 C815 1.261 . S
C817 H787 0.931 . S
C817 C814 1.357 . S
C817 C818 1.312 . S
C818 H789 0.930 . S
C818 C813 1.261 . S
C818 C817 1.312 . S
C819 O791 1.214 . S
C819 O799 1.234 . S
C820 H792 0.929 . S
C820 C823 1.391 . S
C820 C825 1.391 1_556 S
C821 H793 0.929 . S
C821 C822 1.390 . S
C821 N824 1.391 . S
C822 H794 0.930 . S
C822 C821 1.390 . S
C822 C823 1.392 . S
C823 H795 0.929 . S
C823 C820 1.391 . S
C823 C822 1.392 . S
N824 Co768 2.257 1_556 S
N824 C821 1.391 . S
N824 C825 1.388 1_556 S
C825 H796 0.930 . S
C825 C820 1.391 1_554 S
C825 N824 1.388 1_554 S
Co826 O828 2.143 . S
Co826 O834 2.074 . S
Co826 O837 2.093 . S
Co826 O850 2.097 . S
Co826 N867 2.151 . S
Co826 N875 2.214 . S
Co827 O828 2.160 . S
Co827 O833 2.058 . S
Co827 O843 2.057 . S
Co827 O858 2.037 . S
Co827 N862 2.145 . S
Co827 N883 2.257 . S
O828 Co826 2.143 . S
O828 Co827 2.160 . S
C829 O830 1.278 . S
C829 O837 1.224 . S
O830 C829 1.278 . S
C831 O832 1.245 . S
C831 O843 1.232 . S
O832 C831 1.245 . S
O833 Co827 2.058 . S
O833 C859 1.269 . S
O834 Co826 2.074 . S
O834 C859 1.257 . S
H835 C860 0.930 . S
H836 C866 0.930 . S
O837 Co826 2.093 . S
O837 C829 1.224 . S
H838 C870 0.929 . S
H839 C872 0.930 . S
H840 C873 0.930 . S
H841 C871 0.929 . S
H842 C874 0.928 . S
O843 Co827 2.057 . S
O843 C831 1.232 . S
H844 C863 0.929 . S
H845 C864 0.929 . S
H846 C876 0.931 . S
H847 C868 0.929 1_655 S
H848 C877 0.948 . S
H849 C869 0.931 . S
O850 Co826 2.097 . S
O850 C878 1.214 . S
H851 C879 0.929 . S
H852 C880 0.929 . S
H853 C881 0.930 . S
H854 C882 0.929 . S
H855 C884 0.930 . S
H856 C861 0.930 . S
H857 C865 0.930 . S
O858 Co827 2.037 . S
O858 C878 1.234 . S
C859 O833 1.269 . S
C859 O834 1.257 . S
C860 H835 0.930 . S
C860 C863 1.388 . S
C860 C865 1.418 . S
C861 H856 0.930 . S
C861 C864 1.404 . S
C861 C865 1.353 . S
N862 Co827 2.145 . S
N862 C863 1.397 . S
N862 C864 1.334 . S
C863 H844 0.929 . S
C863 C860 1.388 . S
C863 N862 1.397 . S
C864 H845 0.929 . S
C864 C861 1.404 . S
C864 N862 1.334 . S
C865 H857 0.930 . S
C865 C860 1.418 . S
C865 C861 1.353 . S
C866 H836 0.930 . S
C866 N867 1.330 . S
C866 C868 1.446 . S
N867 Co826 2.151 . S
N867 C866 1.330 . S
N867 C871 1.418 . S
C868 H847 0.929 1_455 S
C868 C866 1.446 . S
C868 C869 1.332 1_455 S
C869 H849 0.931 . S
C869 C868 1.332 1_655 S
C869 C870 1.267 . S
C870 H838 0.929 . S
C870 C869 1.267 . S
C870 C871 1.251 1_655 S
C871 H841 0.929 . S
C871 N867 1.418 . S
C871 C870 1.251 1_455 S
C872 H839 0.930 . S
C872 C874 1.406 1_655 S
C872 C877 1.265 . S
C873 H840 0.930 . S
C873 N875 1.325 . S
C873 C876 1.357 . S
C874 H842 0.928 . S
C874 C872 1.406 1_455 S
C874 N875 1.261 . S
N875 Co826 2.214 . S
N875 C873 1.325 . S
N875 C874 1.261 . S
C876 H846 0.931 . S
C876 C873 1.357 . S
C876 C877 1.292 1_455 S
C877 H848 0.948 . S
C877 C872 1.265 . S
C877 C876 1.292 1_655 S
C878 O850 1.214 . S
C878 O858 1.234 . S
C879 H851 0.929 . S
C879 C882 1.391 . S
C879 C884 1.391 . S
C880 H852 0.929 . S
C880 C881 1.390 . S
C880 N883 1.391 . S
C881 H853 0.930 . S
C881 C880 1.390 . S
C881 C882 1.392 . S
C882 H854 0.929 . S
C882 C879 1.391 . S
C882 C881 1.392 . S
N883 Co827 2.257 . S
N883 C880 1.391 . S
N883 C884 1.388 . S
C884 H855 0.930 . S
C884 C879 1.391 . S
C884 N883 1.388 . S
Co885 O887 2.143 . S
Co885 O893 2.074 . S
Co885 O896 2.093 . S
Co885 O909 2.097 . S
Co885 N926 2.151 . S
Co885 N934 2.214 . S
Co886 O887 2.160 . S
Co886 O892 2.058 . S
Co886 O902 2.057 . S
Co886 O917 2.037 . S
Co886 N921 2.145 . S
Co886 N942 2.257 . S
O887 Co885 2.143 . S
O887 Co886 2.160 . S
C888 O889 1.278 . S
C888 O896 1.224 . S
O889 C888 1.278 . S
C890 O891 1.245 . S
C890 O902 1.232 . S
O891 C890 1.245 . S
O892 Co886 2.058 . S
O892 C918 1.269 . S
O893 Co885 2.074 . S
O893 C918 1.257 . S
H894 C919 0.930 . S
H895 C925 0.930 . S
O896 Co885 2.093 . S
O896 C888 1.224 . S
H897 C929 0.929 . S
H898 C931 0.930 . S
H899 C932 0.930 . S
H900 C930 0.929 . S
H901 C933 0.928 . S
O902 Co886 2.057 . S
O902 C890 1.232 . S
H903 C922 0.929 . S
H904 C923 0.929 . S
H905 C935 0.931 . S
H906 C927 0.928 1_545 S
H907 C936 0.930 . S
H908 C928 0.931 . S
O909 Co885 2.097 . S
O909 C937 1.214 . S
H910 C938 0.929 . S
H911 C939 0.929 . S
H912 C940 0.930 . S
H913 C941 0.929 . S
H914 C943 0.930 . S
H915 C920 0.930 . S
H916 C924 0.930 . S
O917 Co886 2.037 . S
O917 C937 1.234 . S
C918 O892 1.269 . S
C918 O893 1.257 . S
C919 H894 0.930 . S
C919 C922 1.388 . S
C919 C924 1.418 . S
C920 H915 0.930 . S
C920 C923 1.404 . S
C920 C924 1.353 . S
N921 Co886 2.145 . S
N921 C922 1.397 . S
N921 C923 1.334 . S
C922 H903 0.929 . S
C922 C919 1.388 . S
C922 N921 1.397 . S
C923 H904 0.929 . S
C923 C920 1.404 . S
C923 N921 1.334 . S
C924 H916 0.930 . S
C924 C919 1.418 . S
C924 C920 1.353 . S
C925 H895 0.930 . S
C925 N926 1.330 . S
C925 C927 1.459 . S
N926 Co885 2.151 . S
N926 C925 1.330 . S
N926 C930 1.418 . S
C927 H906 0.928 1_565 S
C927 C925 1.459 . S
C927 C928 1.320 1_565 S
C928 H908 0.931 . S
C928 C927 1.320 1_545 S
C928 C929 1.267 . S
C929 H897 0.929 . S
C929 C928 1.267 . S
C929 C930 1.251 1_545 S
C930 H900 0.929 . S
C930 N926 1.418 . S
C930 C929 1.251 1_565 S
C931 H898 0.930 . S
C931 C933 1.406 1_545 S
C931 C936 1.261 . S
C932 H899 0.930 . S
C932 N934 1.325 . S
C932 C935 1.357 . S
C933 H901 0.928 . S
C933 C931 1.406 1_565 S
C933 N934 1.261 . S
N934 Co885 2.214 . S
N934 C932 1.325 . S
N934 C933 1.261 . S
C935 H905 0.931 . S
C935 C932 1.357 . S
C935 C936 1.312 1_565 S
C936 H907 0.930 . S
C936 C931 1.261 . S
C936 C935 1.312 1_545 S
C937 O909 1.214 . S
C937 O917 1.234 . S
C938 H910 0.929 . S
C938 C941 1.391 . S
C938 C943 1.391 . S
C939 H911 0.929 . S
C939 C940 1.390 . S
C939 N942 1.391 . S
C940 H912 0.930 . S
C940 C939 1.390 . S
C940 C941 1.392 . S
C941 H913 0.929 . S
C941 C938 1.391 . S
C941 C940 1.392 . S
N942 Co886 2.257 . S
N942 C939 1.391 . S
N942 C943 1.388 . S
C943 H914 0.930 . S
C943 C938 1.391 . S
C943 N942 1.388 . S
Co944 O946 2.143 1_545 S
Co944 O952 2.074 . S
Co944 O955 2.081 1_545 S
Co944 O968 2.097 . S
Co944 N985 2.151 1_545 S
Co944 N993 2.214 . S
Co945 O946 2.160 1_545 S
Co945 O951 2.058 . S
Co945 O961 2.057 1_545 S
Co945 O976 2.037 . S
Co945 N980 2.145 . S
Co945 N1001 2.257 1_545 S
O946 Co944 2.143 1_565 S
O946 Co945 2.160 1_565 S
C947 O948 1.278 . S
C947 O955 1.243 . S
O948 C947 1.278 . S
C949 O950 1.245 . S
C949 O961 1.232 . S
O950 C949 1.245 . S
O951 Co945 2.058 . S
O951 C977 1.269 . S
O952 Co944 2.074 . S
O952 C977 1.257 . S
H953 C978 0.930 . S
H954 C984 0.930 . S
O955 Co944 2.081 1_565 S
O955 C947 1.243 . S
H956 C988 0.929 . S
H957 C990 0.930 . S
H958 C991 0.930 . S
H959 C989 0.929 1_545 S
H960 C992 0.928 . S
O961 Co945 2.057 1_565 S
O961 C949 1.232 . S
H962 C981 0.929 . S
H963 C982 0.929 1_565 S
H964 C994 0.931 . S
H965 C986 0.929 . S
H966 C995 0.930 . S
H967 C987 0.931 . S
O968 Co944 2.097 . S
O968 C996 1.214 . S
H969 C997 0.929 . S
H970 C998 0.929 . S
H971 C999 0.930 1_455 S
H972 C1000 0.929 1_455 S
H973 C1002 0.930 . S
H974 C979 0.930 . S
H975 C983 0.930 . S
O976 Co945 2.037 . S
O976 C996 1.234 . S
C977 O951 1.269 . S
C977 O952 1.257 . S
C978 H953 0.930 . S
C978 C981 1.388 . S
C978 C983 1.418 1_655 S
C979 H974 0.930 . S
C979 C982 1.404 1_455 S
C979 C983 1.353 . S
N980 Co945 2.145 . S
N980 C981 1.397 . S
N980 C982 1.334 . S
C981 H962 0.929 . S
C981 C978 1.388 . S
C981 N980 1.397 . S
C982 H963 0.929 1_545 S
C982 C979 1.404 1_655 S
C982 N980 1.334 . S
C983 H975 0.930 . S
C983 C978 1.418 1_455 S
C983 C979 1.353 . S
C984 H954 0.930 . S
C984 N985 1.330 . S
C984 C986 1.446 . S
N985 Co944 2.151 1_565 S
N985 C984 1.330 . S
N985 C989 1.418 . S
C986 H965 0.929 . S
C986 C984 1.446 . S
C986 C987 1.332 . S
C987 H967 0.931 . S
C987 C986 1.332 . S
C987 C988 1.267 . S
C988 H956 0.929 . S
C988 C987 1.267 . S
C988 C989 1.251 . S
C989 H959 0.929 1_565 S
C989 N985 1.418 . S
C989 C988 1.251 . S
C990 H957 0.930 . S
C990 C992 1.406 . S
C990 C995 1.261 . S
C991 H958 0.930 . S
C991 N993 1.325 . S
C991 C994 1.357 . S
C992 H960 0.928 . S
C992 C990 1.406 . S
C992 N993 1.261 . S
N993 Co944 2.214 . S
N993 C991 1.325 . S
N993 C992 1.261 . S
C994 H964 0.931 . S
C994 C991 1.357 . S
C994 C995 1.312 . S
C995 H966 0.930 . S
C995 C990 1.261 . S
C995 C994 1.312 . S
C996 O968 1.214 . S
C996 O976 1.234 . S
C997 H969 0.929 . S
C997 C1000 1.391 . S
C997 C1002 1.391 . S
C998 H970 0.929 . S
C998 C999 1.390 . S
C998 N1001 1.391 1_545 S
C999 H971 0.930 1_655 S
C999 C998 1.390 . S
C999 C1000 1.392 1_545 S
C1000 H972 0.929 1_655 S
C1000 C997 1.391 . S
C1000 C999 1.392 1_565 S
N1001 Co945 2.257 1_565 S
N1001 C998 1.391 1_565 S
N1001 C1002 1.388 . S
C1002 H973 0.930 . S
C1002 C997 1.391 . S
C1002 N1001 1.388 . S
Co1003 O1005 2.143 . S
Co1003 O1011 2.074 . S
Co1003 O1014 2.093 . S
Co1003 O1027 2.097 . S
Co1003 N1044 2.151 . S
Co1003 N1052 2.214 . S
Co1004 O1005 2.160 . S
Co1004 O1010 2.058 . S
Co1004 O1020 2.057 . S
Co1004 O1035 2.037 . S
Co1004 N1039 2.145 . S
Co1004 N1060 2.257 . S
O1005 Co1003 2.143 . S
O1005 Co1004 2.160 . S
C1006 O1007 1.278 . S
C1006 O1014 1.224 . S
O1007 C1006 1.278 . S
C1008 O1009 1.245 . S
C1008 O1020 1.232 . S
O1009 C1008 1.245 . S
O1010 Co1004 2.058 . S
O1010 C1036 1.269 . S
O1011 Co1003 2.074 . S
O1011 C1036 1.257 . S
H1012 C1037 0.930 . S
H1013 C1043 0.930 . S
O1014 Co1003 2.093 . S
O1014 C1006 1.224 . S
H1015 C1047 0.929 . S
H1016 C1049 0.930 . S
H1017 C1050 0.930 . S
H1018 C1048 0.929 . S
H1019 C1051 0.928 . S
O1020 Co1004 2.057 . S
O1020 C1008 1.232 . S
H1021 C1040 0.929 . S
H1022 C1041 0.929 . S
H1023 C1053 0.931 . S
H1024 C1045 0.929 . S
H1025 C1054 0.930 . S
H1026 C1046 0.931 . S
O1027 Co1003 2.097 . S
O1027 C1055 1.214 . S
H1028 C1056 0.929 . S
H1029 C1057 0.929 . S
H1030 C1058 0.930 . S
H1031 C1059 0.929 . S
H1032 C1061 0.930 . S
H1033 C1038 0.930 . S
H1034 C1042 0.930 . S
O1035 Co1004 2.037 . S
O1035 C1055 1.234 . S
C1036 O1010 1.269 . S
C1036 O1011 1.257 . S
C1037 H1012 0.930 . S
C1037 C1040 1.388 . S
C1037 C1042 1.418 . S
C1038 H1033 0.930 . S
C1038 C1041 1.404 . S
C1038 C1042 1.353 . S
N1039 Co1004 2.145 . S
N1039 C1040 1.397 . S
N1039 C1041 1.334 . S
C1040 H1021 0.929 . S
C1040 C1037 1.388 . S
C1040 N1039 1.397 . S
C1041 H1022 0.929 . S
C1041 C1038 1.404 . S
C1041 N1039 1.334 . S
C1042 H1034 0.930 . S
C1042 C1037 1.418 . S
C1042 C1038 1.353 . S
C1043 H1013 0.930 . S
C1043 N1044 1.330 . S
C1043 C1045 1.446 . S
N1044 Co1003 2.151 . S
N1044 C1043 1.330 . S
N1044 C1048 1.418 . S
C1045 H1024 0.929 . S
C1045 C1043 1.446 . S
C1045 C1046 1.332 . S
C1046 H1026 0.931 . S
C1046 C1045 1.332 . S
C1046 C1047 1.267 . S
C1047 H1015 0.929 . S
C1047 C1046 1.267 . S
C1047 C1048 1.251 . S
C1048 H1018 0.929 . S
C1048 N1044 1.418 . S
C1048 C1047 1.251 . S
C1049 H1016 0.930 . S
C1049 C1051 1.406 . S
C1049 C1054 1.261 . S
C1050 H1017 0.930 . S
C1050 N1052 1.325 . S
C1050 C1053 1.357 . S
C1051 H1019 0.928 . S
C1051 C1049 1.406 . S
C1051 N1052 1.261 . S
N1052 Co1003 2.214 . S
N1052 C1050 1.325 . S
N1052 C1051 1.261 . S
C1053 H1023 0.931 . S
C1053 C1050 1.357 . S
C1053 C1054 1.312 . S
C1054 H1025 0.930 . S
C1054 C1049 1.261 . S
C1054 C1053 1.312 . S
C1055 O1027 1.214 . S
C1055 O1035 1.234 . S
C1056 H1028 0.929 . S
C1056 C1059 1.391 . S
C1056 C1061 1.391 . S
C1057 H1029 0.929 . S
C1057 C1058 1.390 . S
C1057 N1060 1.391 . S
C1058 H1030 0.930 . S
C1058 C1057 1.390 . S
C1058 C1059 1.392 . S
C1059 H1031 0.929 . S
C1059 C1056 1.391 . S
C1059 C1058 1.392 . S
N1060 Co1004 2.257 . S
N1060 C1057 1.391 . S
N1060 C1061 1.388 . S
C1061 H1032 0.930 . S
C1061 C1056 1.391 . S
C1061 N1060 1.388 . S
Co1062 O1064 2.143 . S
Co1062 O1070 2.074 . S
Co1062 O1073 2.093 . S
Co1062 O1086 2.097 . S
Co1062 N1103 2.151 . S
Co1062 N1111 2.214 . S
Co1063 O1064 2.160 . S
Co1063 O1069 2.058 . S
Co1063 O1079 2.057 . S
Co1063 O1094 2.037 . S
Co1063 N1098 2.145 . S
Co1063 N1119 2.257 . S
O1064 Co1062 2.143 . S
O1064 Co1063 2.160 . S
C1065 O1066 1.278 . S
C1065 O1073 1.224 . S
O1066 C1065 1.278 . S
C1067 O1068 1.245 . S
C1067 O1079 1.232 . S
O1068 C1067 1.245 . S
O1069 Co1063 2.058 . S
O1069 C1095 1.269 . S
O1070 Co1062 2.074 . S
O1070 C1095 1.257 . S
H1071 C1096 0.930 . S
H1072 C1102 0.930 . S
O1073 Co1062 2.093 . S
O1073 C1065 1.224 . S
H1074 C1106 0.929 . S
H1075 C1108 0.930 . S
H1076 C1109 0.930 . S
H1077 C1107 0.929 . S
H1078 C1110 0.928 . S
O1079 Co1063 2.057 . S
O1079 C1067 1.232 . S
H1080 C1099 0.929 . S
H1081 C1100 0.929 . S
H1082 C1112 0.931 . S
H1083 C1104 0.929 . S
H1084 C1113 0.930 . S
H1085 C1105 0.931 . S
O1086 Co1062 2.097 . S
O1086 C1114 1.214 . S
H1087 C1115 0.929 . S
H1088 C1116 0.929 . S
H1089 C1117 0.930 . S
H1090 C1118 0.929 . S
H1091 C1120 0.930 . S
H1092 C1097 0.930 . S
H1093 C1101 0.930 . S
O1094 Co1063 2.037 . S
O1094 C1114 1.234 . S
C1095 O1069 1.269 . S
C1095 O1070 1.257 . S
C1096 H1071 0.930 . S
C1096 C1099 1.388 . S
C1096 C1101 1.418 . S
C1097 H1092 0.930 . S
C1097 C1100 1.404 . S
C1097 C1101 1.353 . S
N1098 Co1063 2.145 . S
N1098 C1099 1.397 . S
N1098 C1100 1.334 . S
C1099 H1080 0.929 . S
C1099 C1096 1.388 . S
C1099 N1098 1.397 . S
C1100 H1081 0.929 . S
C1100 C1097 1.404 . S
C1100 N1098 1.334 . S
C1101 H1093 0.930 . S
C1101 C1096 1.418 . S
C1101 C1097 1.353 . S
C1102 H1072 0.930 . S
C1102 N1103 1.330 . S
C1102 C1104 1.446 . S
N1103 Co1062 2.151 . S
N1103 C1102 1.330 . S
N1103 C1107 1.418 . S
C1104 H1083 0.929 . S
C1104 C1102 1.446 . S
C1104 C1105 1.332 . S
C1105 H1085 0.931 . S
C1105 C1104 1.332 . S
C1105 C1106 1.267 . S
C1106 H1074 0.929 . S
C1106 C1105 1.267 . S
C1106 C1107 1.251 . S
C1107 H1077 0.929 . S
C1107 N1103 1.418 . S
C1107 C1106 1.251 . S
C1108 H1075 0.930 . S
C1108 C1110 1.406 . S
C1108 C1113 1.261 . S
C1109 H1076 0.930 . S
C1109 N1111 1.325 . S
C1109 C1112 1.357 . S
C1110 H1078 0.928 . S
C1110 C1108 1.406 . S
C1110 N1111 1.261 . S
N1111 Co1062 2.214 . S
N1111 C1109 1.325 . S
N1111 C1110 1.261 . S
C1112 H1082 0.931 . S
C1112 C1109 1.357 . S
C1112 C1113 1.312 . S
C1113 H1084 0.930 . S
C1113 C1108 1.261 . S
C1113 C1112 1.312 . S
C1114 O1086 1.214 . S
C1114 O1094 1.234 . S
C1115 H1087 0.929 . S
C1115 C1118 1.391 . S
C1115 C1120 1.391 . S
C1116 H1088 0.929 . S
C1116 C1117 1.390 . S
C1116 N1119 1.391 . S
C1117 H1089 0.930 . S
C1117 C1116 1.390 . S
C1117 C1118 1.392 . S
C1118 H1090 0.929 . S
C1118 C1115 1.391 . S
C1118 C1117 1.392 . S
N1119 Co1063 2.257 . S
N1119 C1116 1.391 . S
N1119 C1120 1.388 . S
C1120 H1091 0.930 . S
C1120 C1115 1.391 . S
C1120 N1119 1.388 . S
Co1121 O1123 2.143 1_545 S
Co1121 O1129 2.074 . S
Co1121 O1132 2.093 1_545 S
Co1121 O1145 2.097 . S
Co1121 N1162 2.151 1_545 S
Co1121 N1170 2.214 . S
Co1122 O1123 2.160 1_545 S
Co1122 O1128 2.058 . S
Co1122 O1138 2.057 1_545 S
Co1122 O1153 2.037 . S
Co1122 N1157 2.145 . S
Co1122 N1178 2.257 1_545 S
O1123 Co1121 2.143 1_565 S
O1123 Co1122 2.160 1_565 S
C1124 O1125 1.278 . S
C1124 O1132 1.224 . S
O1125 C1124 1.278 . S
C1126 O1127 1.245 . S
C1126 O1138 1.232 . S
O1127 C1126 1.245 . S
O1128 Co1122 2.058 . S
O1128 C1154 1.269 . S
O1129 Co1121 2.074 . S
O1129 C1154 1.257 . S
H1130 C1155 0.930 . S
H1131 C1161 0.930 . S
O1132 Co1121 2.093 1_565 S
O1132 C1124 1.224 . S
H1133 C1165 0.929 . S
H1134 C1167 0.930 . S
H1135 C1168 0.930 . S
H1136 C1166 0.929 . S
H1137 C1169 0.928 1_565 S
O1138 Co1122 2.057 1_565 S
O1138 C1126 1.232 . S
H1139 C1158 0.929 . S
H1140 C1159 0.929 . S
H1141 C1171 0.931 . S
H1142 C1163 0.929 . S
H1143 C1172 0.930 . S
H1144 C1164 0.931 . S
O1145 Co1121 2.097 . S
O1145 C1173 1.214 . S
H1146 C1174 0.929 . S
H1147 C1175 0.929 . S
H1148 C1176 0.930 . S
H1149 C1177 0.929 . S
H1150 C1179 0.930 . S
H1151 C1156 0.930 . S
H1152 C1160 0.930 . S
O1153 Co1122 2.037 . S
O1153 C1173 1.234 . S
C1154 O1128 1.269 . S
C1154 O1129 1.257 . S
C1155 H1130 0.930 . S
C1155 C1158 1.388 . S
C1155 C1160 1.418 . S
C1156 H1151 0.930 . S
C1156 C1159 1.404 . S
C1156 C1160 1.353 . S
N1157 Co1122 2.145 . S
N1157 C1158 1.397 . S
N1157 C1159 1.334 . S
C1158 H1139 0.929 . S
C1158 C1155 1.388 . S
C1158 N1157 1.397 . S
C1159 H1140 0.929 . S
C1159 C1156 1.404 . S
C1159 N1157 1.334 . S
C1160 H1152 0.930 . S
C1160 C1155 1.418 . S
C1160 C1156 1.353 . S
C1161 H1131 0.930 . S
C1161 N1162 1.330 . S
C1161 C1163 1.446 . S
N1162 Co1121 2.151 1_565 S
N1162 C1161 1.330 . S
N1162 C1166 1.418 1_565 S
C1163 H1142 0.929 . S
C1163 C1161 1.446 . S
C1163 C1164 1.332 . S
C1164 H1144 0.931 . S
C1164 C1163 1.332 . S
C1164 C1165 1.267 1_565 S
C1165 H1133 0.929 . S
C1165 C1164 1.267 1_545 S
C1165 C1166 1.251 . S
C1166 H1136 0.929 . S
C1166 N1162 1.418 1_545 S
C1166 C1165 1.251 . S
C1167 H1134 0.930 . S
C1167 C1169 1.406 . S
C1167 C1172 1.261 . S
C1168 H1135 0.930 . S
C1168 N1170 1.325 . S
C1168 C1171 1.357 . S
C1169 H1137 0.928 1_545 S
C1169 C1167 1.406 . S
C1169 N1170 1.261 . S
N1170 Co1121 2.214 . S
N1170 C1168 1.325 . S
N1170 C1169 1.261 . S
C1171 H1141 0.931 . S
C1171 C1168 1.357 . S
C1171 C1172 1.312 . S
C1172 H1143 0.930 . S
C1172 C1167 1.261 . S
C1172 C1171 1.312 . S
C1173 O1145 1.214 . S
C1173 O1153 1.234 . S
C1174 H1146 0.929 . S
C1174 C1177 1.391 . S
C1174 C1179 1.391 . S
C1175 H1147 0.929 . S
C1175 C1176 1.390 1_545 S
C1175 N1178 1.391 1_545 S
C1176 H1148 0.930 . S
C1176 C1175 1.390 1_565 S
C1176 C1177 1.392 . S
C1177 H1149 0.929 . S
C1177 C1174 1.391 . S
C1177 C1176 1.392 . S
N1178 Co1122 2.257 1_565 S
N1178 C1175 1.391 1_565 S
N1178 C1179 1.388 . S
C1179 H1150 0.930 . S
C1179 C1174 1.391 . S
C1179 N1178 1.388 . S
Co1180 O1182 2.143 1_554 S
Co1180 O1188 2.074 . S
Co1180 O1191 2.093 . S
Co1180 O1204 2.097 . S
Co1180 N1221 2.151 1_554 S
Co1180 N1229 2.214 . S
Co1181 O1182 2.160 1_554 S
Co1181 O1187 2.058 . S
Co1181 O1197 2.057 1_554 S
Co1181 O1212 2.037 . S
Co1181 N1216 2.145 . S
Co1181 N1237 2.257 1_554 S
O1182 Co1180 2.143 1_556 S
O1182 Co1181 2.160 1_556 S
C1183 O1184 1.278 . S
C1183 O1191 1.224 1_556 S
O1184 C1183 1.278 . S
C1185 O1186 1.245 . S
C1185 O1197 1.232 . S
O1186 C1185 1.245 . S
O1187 Co1181 2.058 . S
O1187 C1213 1.269 . S
O1188 Co1180 2.074 . S
O1188 C1213 1.257 . S
H1189 C1214 0.930 . S
H1190 C1220 0.930 . S
O1191 Co1180 2.093 . S
O1191 C1183 1.224 1_554 S
H1192 C1224 0.929 1_554 S
H1193 C1226 0.930 . S
H1194 C1227 0.930 . S
H1195 C1225 0.929 . S
H1196 C1228 0.928 . S
O1197 Co1181 2.057 1_556 S
O1197 C1185 1.232 . S
H1198 C1217 0.929 . S
H1199 C1218 0.933 1_556 S
H1200 C1230 0.931 . S
H1201 C1222 0.929 . S
H1202 C1231 0.930 . S
H1203 C1223 0.931 . S
O1204 Co1180 2.097 . S
O1204 C1232 1.214 . S
H1205 C1233 0.929 . S
H1206 C1234 0.929 . S
H1207 C1235 0.914 1_554 S
H1208 C1236 0.929 . S
H1209 C1238 0.930 . S
H1210 C1215 0.930 1_556 S
H1211 C1219 0.930 . S
O1212 Co1181 2.037 . S
O1212 C1232 1.234 . S
C1213 O1187 1.269 . S
C1213 O1188 1.257 . S
C1214 H1189 0.930 . S
C1214 C1217 1.388 . S
C1214 C1219 1.418 . S
C1215 H1210 0.930 1_554 S
C1215 C1218 1.402 . S
C1215 C1219 1.353 . S
N1216 Co1181 2.145 . S
N1216 C1217 1.397 . S
N1216 C1218 1.332 . S
C1217 H1198 0.929 . S
C1217 C1214 1.388 . S
C1217 N1216 1.397 . S
C1218 H1199 0.933 1_554 S
C1218 C1215 1.402 . S
C1218 N1216 1.332 . S
C1219 H1211 0.930 . S
C1219 C1214 1.418 . S
C1219 C1215 1.353 . S
C1220 H1190 0.930 . S
C1220 N1221 1.330 . S
C1220 C1222 1.446 . S
N1221 Co1180 2.151 1_556 S
N1221 C1220 1.330 . S
N1221 C1225 1.418 1_556 S
C1222 H1201 0.929 . S
C1222 C1220 1.446 . S
C1222 C1223 1.332 . S
C1223 H1203 0.931 . S
C1223 C1222 1.332 . S
C1223 C1224 1.267 . S
C1224 H1192 0.929 1_556 S
C1224 C1223 1.267 . S
C1224 C1225 1.251 1_556 S
C1225 H1195 0.929 . S
C1225 N1221 1.418 1_554 S
C1225 C1224 1.251 1_554 S
C1226 H1193 0.930 . S
C1226 C1228 1.406 . S
C1226 C1231 1.261 . S
C1227 H1194 0.930 . S
C1227 N1229 1.325 . S
C1227 C1230 1.357 . S
C1228 H1196 0.928 . S
C1228 C1226 1.406 . S
C1228 N1229 1.261 . S
N1229 Co1180 2.214 . S
N1229 C1227 1.325 . S
N1229 C1228 1.261 . S
C1230 H1200 0.931 . S
C1230 C1227 1.357 . S
C1230 C1231 1.312 . S
C1231 H1202 0.930 . S
C1231 C1226 1.261 . S
C1231 C1230 1.312 . S
C1232 O1204 1.214 . S
C1232 O1212 1.234 . S
C1233 H1205 0.929 . S
C1233 C1236 1.391 . S
C1233 C1238 1.391 . S
C1234 H1206 0.929 . S
C1234 C1235 1.385 1_554 S
C1234 N1237 1.391 1_554 S
C1235 H1207 0.914 1_556 S
C1235 C1234 1.385 1_556 S
C1235 C1236 1.412 . S
C1236 H1208 0.929 . S
C1236 C1233 1.391 . S
C1236 C1235 1.412 . S
N1237 Co1181 2.257 1_556 S
N1237 C1234 1.391 1_556 S
N1237 C1238 1.388 . S
C1238 H1209 0.930 . S
C1238 C1233 1.391 . S
C1238 N1237 1.388 . S
Co1239 O1241 2.143 . S
Co1239 O1247 2.074 . S
Co1239 O1250 2.093 . S
Co1239 O1263 2.097 . S
Co1239 N1280 2.151 . S
Co1239 N1288 2.214 . S
Co1240 O1241 2.160 . S
Co1240 O1246 2.058 . S
Co1240 O1256 2.057 . S
Co1240 O1271 2.037 . S
Co1240 N1275 2.145 . S
Co1240 N1296 2.257 . S
O1241 Co1239 2.143 . S
O1241 Co1240 2.160 . S
C1242 O1243 1.278 . S
C1242 O1250 1.224 . S
O1243 C1242 1.278 . S
C1244 O1245 1.245 . S
C1244 O1256 1.232 . S
O1245 C1244 1.245 . S
O1246 Co1240 2.058 . S
O1246 C1272 1.269 . S
O1247 Co1239 2.074 . S
O1247 C1272 1.257 . S
H1248 C1273 0.930 . S
H1249 C1279 0.930 . S
O1250 Co1239 2.093 . S
O1250 C1242 1.224 . S
H1251 C1283 0.929 . S
H1252 C1285 0.930 . S
H1253 C1286 0.930 . S
H1254 C1284 0.929 . S
H1255 C1287 0.928 . S
O1256 Co1240 2.057 . S
O1256 C1244 1.232 . S
H1257 C1276 0.929 . S
H1258 C1277 0.929 . S
H1259 C1289 0.931 . S
H1260 C1281 0.929 . S
H1261 C1290 0.930 . S
H1262 C1282 0.931 . S
O1263 Co1239 2.097 . S
O1263 C1291 1.214 . S
H1264 C1292 0.929 . S
H1265 C1293 0.929 . S
H1266 C1294 0.929 . S
H1267 C1295 0.929 1_455 S
H1268 C1297 0.930 . S
H1269 C1274 0.930 . S
H1270 C1278 0.930 . S
O1271 Co1240 2.037 . S
O1271 C1291 1.234 . S
C1272 O1246 1.269 . S
C1272 O1247 1.257 . S
C1273 H1248 0.930 . S
C1273 C1276 1.388 . S
C1273 C1278 1.418 1_655 S
C1274 H1269 0.930 . S
C1274 C1277 1.404 1_455 S
C1274 C1278 1.353 . S
N1275 Co1240 2.145 . S
N1275 C1276 1.397 . S
N1275 C1277 1.334 . S
C1276 H1257 0.929 . S
C1276 C1273 1.388 . S
C1276 N1275 1.397 . S
C1277 H1258 0.929 . S
C1277 C1274 1.404 1_655 S
C1277 N1275 1.334 . S
C1278 H1270 0.930 . S
C1278 C1273 1.418 1_455 S
C1278 C1274 1.353 . S
C1279 H1249 0.930 . S
C1279 N1280 1.330 . S
C1279 C1281 1.446 . S
N1280 Co1239 2.151 . S
N1280 C1279 1.330 . S
N1280 C1284 1.418 . S
C1281 H1260 0.929 . S
C1281 C1279 1.446 . S
C1281 C1282 1.332 . S
C1282 H1262 0.931 . S
C1282 C1281 1.332 . S
C1282 C1283 1.267 . S
C1283 H1251 0.929 . S
C1283 C1282 1.267 . S
C1283 C1284 1.251 . S
C1284 H1254 0.929 . S
C1284 N1280 1.418 . S
C1284 C1283 1.251 . S
C1285 H1252 0.930 . S
C1285 C1287 1.406 . S
C1285 C1290 1.261 . S
C1286 H1253 0.930 . S
C1286 N1288 1.325 . S
C1286 C1289 1.357 . S
C1287 H1255 0.928 . S
C1287 C1285 1.406 . S
C1287 N1288 1.261 . S
N1288 Co1239 2.214 . S
N1288 C1286 1.325 . S
N1288 C1287 1.261 . S
C1289 H1259 0.931 . S
C1289 C1286 1.357 . S
C1289 C1290 1.312 . S
C1290 H1261 0.930 . S
C1290 C1285 1.261 . S
C1290 C1289 1.312 . S
C1291 O1263 1.214 . S
C1291 O1271 1.234 . S
C1292 H1264 0.929 . S
C1292 C1295 1.391 . S
C1292 C1297 1.391 . S
C1293 H1265 0.929 . S
C1293 C1294 1.391 1_655 S
C1293 N1296 1.391 . S
C1294 H1266 0.929 . S
C1294 C1293 1.391 1_455 S
C1294 C1295 1.392 1_455 S
C1295 H1267 0.929 1_655 S
C1295 C1292 1.391 . S
C1295 C1294 1.392 1_655 S
N1296 Co1240 2.257 . S
N1296 C1293 1.391 . S
N1296 C1297 1.388 . S
C1297 H1268 0.930 . S
C1297 C1292 1.391 . S
C1297 N1296 1.388 . S
Co1298 O1300 2.143 . S
Co1298 O1306 2.074 . S
Co1298 O1309 2.093 . S
Co1298 O1322 2.097 . S
Co1298 N1339 2.151 . S
Co1298 N1347 2.214 . S
Co1299 O1300 2.160 . S
Co1299 O1305 2.058 . S
Co1299 O1315 2.057 . S
Co1299 O1330 2.037 . S
Co1299 N1334 2.145 . S
Co1299 N1355 2.257 . S
O1300 Co1298 2.143 . S
O1300 Co1299 2.160 . S
C1301 O1302 1.278 . S
C1301 O1309 1.224 . S
O1302 C1301 1.278 . S
C1303 O1304 1.245 . S
C1303 O1315 1.232 . S
O1304 C1303 1.245 . S
O1305 Co1299 2.058 . S
O1305 C1331 1.269 . S
O1306 Co1298 2.074 . S
O1306 C1331 1.257 . S
H1307 C1332 0.930 . S
H1308 C1338 0.930 . S
O1309 Co1298 2.093 . S
O1309 C1301 1.224 . S
H1310 C1342 0.929 . S
H1311 C1344 0.930 . S
H1312 C1345 0.930 . S
H1313 C1343 0.929 . S
H1314 C1346 0.928 . S
O1315 Co1299 2.057 . S
O1315 C1303 1.232 . S
H1316 C1335 0.929 . S
H1317 C1336 0.929 . S
H1318 C1348 0.931 . S
H1319 C1340 0.929 . S
H1320 C1349 0.930 . S
H1321 C1341 0.931 . S
O1322 Co1298 2.097 . S
O1322 C1350 1.214 . S
H1323 C1351 0.929 . S
H1324 C1352 0.929 . S
H1325 C1353 0.930 . S
H1326 C1354 0.929 . S
H1327 C1356 0.930 . S
H1328 C1333 0.930 . S
H1329 C1337 0.930 . S
O1330 Co1299 2.037 . S
O1330 C1350 1.234 . S
C1331 O1305 1.269 . S
C1331 O1306 1.257 . S
C1332 H1307 0.930 . S
C1332 C1335 1.388 . S
C1332 C1337 1.418 . S
C1333 H1328 0.930 . S
C1333 C1336 1.404 . S
C1333 C1337 1.353 . S
N1334 Co1299 2.145 . S
N1334 C1335 1.397 . S
N1334 C1336 1.334 . S
C1335 H1316 0.929 . S
C1335 C1332 1.388 . S
C1335 N1334 1.397 . S
C1336 H1317 0.929 . S
C1336 C1333 1.404 . S
C1336 N1334 1.334 . S
C1337 H1329 0.930 . S
C1337 C1332 1.418 . S
C1337 C1333 1.353 . S
C1338 H1308 0.930 . S
C1338 N1339 1.330 . S
C1338 C1340 1.446 . S
N1339 Co1298 2.151 . S
N1339 C1338 1.330 . S
N1339 C1343 1.418 . S
C1340 H1319 0.929 . S
C1340 C1338 1.446 . S
C1340 C1341 1.332 . S
C1341 H1321 0.931 . S
C1341 C1340 1.332 . S
C1341 C1342 1.267 . S
C1342 H1310 0.929 . S
C1342 C1341 1.267 . S
C1342 C1343 1.251 . S
C1343 H1313 0.929 . S
C1343 N1339 1.418 . S
C1343 C1342 1.251 . S
C1344 H1311 0.930 . S
C1344 C1346 1.406 . S
C1344 C1349 1.261 . S
C1345 H1312 0.930 . S
C1345 N1347 1.325 . S
C1345 C1348 1.357 . S
C1346 H1314 0.928 . S
C1346 C1344 1.406 . S
C1346 N1347 1.261 . S
N1347 Co1298 2.214 . S
N1347 C1345 1.325 . S
N1347 C1346 1.261 . S
C1348 H1318 0.931 . S
C1348 C1345 1.357 . S
C1348 C1349 1.312 . S
C1349 H1320 0.930 . S
C1349 C1344 1.261 . S
C1349 C1348 1.312 . S
C1350 O1322 1.214 . S
C1350 O1330 1.234 . S
C1351 H1323 0.929 . S
C1351 C1354 1.391 . S
C1351 C1356 1.391 . S
C1352 H1324 0.929 . S
C1352 C1353 1.390 . S
C1352 N1355 1.391 . S
C1353 H1325 0.930 . S
C1353 C1352 1.390 . S
C1353 C1354 1.392 . S
C1354 H1326 0.929 . S
C1354 C1351 1.391 . S
C1354 C1353 1.392 . S
N1355 Co1299 2.257 . S
N1355 C1352 1.391 . S
N1355 C1356 1.388 . S
C1356 H1327 0.930 . S
C1356 C1351 1.391 . S
C1356 N1355 1.388 . S
Co1357 O1359 2.143 . S
Co1357 O1365 2.074 . S
Co1357 O1368 2.093 . S
Co1357 O1381 2.097 . S
Co1357 N1398 2.151 . S
Co1357 N1406 2.214 . S
Co1358 O1359 2.160 . S
Co1358 O1364 2.058 . S
Co1358 O1374 2.057 . S
Co1358 O1389 2.037 . S
Co1358 N1393 2.145 . S
Co1358 N1414 2.257 . S
O1359 Co1357 2.143 . S
O1359 Co1358 2.160 . S
C1360 O1361 1.278 . S
C1360 O1368 1.224 . S
O1361 C1360 1.278 . S
C1362 O1363 1.245 . S
C1362 O1374 1.232 . S
O1363 C1362 1.245 . S
O1364 Co1358 2.058 . S
O1364 C1390 1.269 . S
O1365 Co1357 2.074 . S
O1365 C1390 1.257 . S
H1366 C1391 0.930 . S
H1367 C1397 0.930 . S
O1368 Co1357 2.093 . S
O1368 C1360 1.224 . S
H1369 C1401 0.929 . S
H1370 C1403 0.930 . S
H1371 C1404 0.930 . S
H1372 C1402 0.929 . S
H1373 C1405 0.928 . S
O1374 Co1358 2.057 . S
O1374 C1362 1.232 . S
H1375 C1394 0.929 . S
H1376 C1395 0.929 . S
H1377 C1407 0.931 . S
H1378 C1399 0.929 . S
H1379 C1408 0.930 . S
H1380 C1400 0.931 . S
O1381 Co1357 2.097 . S
O1381 C1409 1.214 . S
H1382 C1410 0.929 . S
H1383 C1411 0.929 . S
H1384 C1412 0.930 . S
H1385 C1413 0.929 . S
H1386 C1415 0.930 . S
H1387 C1392 0.930 . S
H1388 C1396 0.930 . S
O1389 Co1358 2.037 . S
O1389 C1409 1.234 . S
C1390 O1364 1.269 . S
C1390 O1365 1.257 . S
C1391 H1366 0.930 . S
C1391 C1394 1.388 . S
C1391 C1396 1.418 . S
C1392 H1387 0.930 . S
C1392 C1395 1.404 . S
C1392 C1396 1.353 . S
N1393 Co1358 2.145 . S
N1393 C1394 1.397 . S
N1393 C1395 1.334 . S
C1394 H1375 0.929 . S
C1394 C1391 1.388 . S
C1394 N1393 1.397 . S
C1395 H1376 0.929 . S
C1395 C1392 1.404 . S
C1395 N1393 1.334 . S
C1396 H1388 0.930 . S
C1396 C1391 1.418 . S
C1396 C1392 1.353 . S
C1397 H1367 0.930 . S
C1397 N1398 1.330 . S
C1397 C1399 1.446 . S
N1398 Co1357 2.151 . S
N1398 C1397 1.330 . S
N1398 C1402 1.418 . S
C1399 H1378 0.929 . S
C1399 C1397 1.446 . S
C1399 C1400 1.332 . S
C1400 H1380 0.931 . S
C1400 C1399 1.332 . S
C1400 C1401 1.267 . S
C1401 H1369 0.929 . S
C1401 C1400 1.267 . S
C1401 C1402 1.251 . S
C1402 H1372 0.929 . S
C1402 N1398 1.418 . S
C1402 C1401 1.251 . S
C1403 H1370 0.930 . S
C1403 C1405 1.406 . S
C1403 C1408 1.261 . S
C1404 H1371 0.930 . S
C1404 N1406 1.325 . S
C1404 C1407 1.357 . S
C1405 H1373 0.928 . S
C1405 C1403 1.406 . S
C1405 N1406 1.261 . S
N1406 Co1357 2.214 . S
N1406 C1404 1.325 . S
N1406 C1405 1.261 . S
C1407 H1377 0.931 . S
C1407 C1404 1.357 . S
C1407 C1408 1.312 . S
C1408 H1379 0.930 . S
C1408 C1403 1.261 . S
C1408 C1407 1.312 . S
C1409 O1381 1.214 . S
C1409 O1389 1.234 . S
C1410 H1382 0.929 . S
C1410 C1413 1.391 . S
C1410 C1415 1.391 . S
C1411 H1383 0.929 . S
C1411 C1412 1.390 . S
C1411 N1414 1.391 . S
C1412 H1384 0.930 . S
C1412 C1411 1.390 . S
C1412 C1413 1.392 . S
C1413 H1385 0.929 . S
C1413 C1410 1.391 . S
C1413 C1412 1.392 . S
N1414 Co1358 2.257 . S
N1414 C1411 1.391 . S
N1414 C1415 1.388 . S
C1415 H1386 0.930 . S
C1415 C1410 1.391 . S
C1415 N1414 1.388 . S
C1416 C1417 1.387 . S
C1416 H1420 0.950 . S
C1416 C1425 1.390 . S
C1417 C1416 1.387 . S
C1417 C1419 1.387 . S
H1418 C1425 0.950 . S
C1419 C1417 1.387 . S
C1419 C1421 1.390 . S
C1419 H1423 0.950 . S
H1420 C1416 0.950 . S
C1421 C1419 1.390 . S
C1421 C1422 1.387 . S
C1421 H1424 0.950 . S
C1422 C1421 1.387 . S
C1422 C1425 1.387 . S
H1423 C1419 0.950 . S
H1424 C1421 0.950 . S
C1425 C1416 1.390 . S
C1425 H1418 0.950 . S
C1425 C1422 1.387 . S
C1426 C1427 1.387 . S
C1426 H1430 0.950 . S
C1426 C1435 1.390 . S
C1427 C1426 1.387 . S
C1427 C1429 1.387 . S
H1428 C1435 0.950 . S
C1429 C1427 1.387 . S
C1429 C1431 1.390 . S
C1429 H1433 0.950 . S
H1430 C1426 0.950 . S
C1431 C1429 1.390 . S
C1431 C1432 1.387 . S
C1431 H1434 0.950 . S
C1432 C1431 1.387 . S
C1432 C1435 1.387 . S
H1433 C1429 0.950 . S
H1434 C1431 0.950 . S
C1435 C1426 1.390 . S
C1435 H1428 0.950 . S
C1435 C1432 1.387 . S
C1436 C1437 1.387 . S
C1436 H1440 0.950 . S
C1436 C1445 1.390 . S
C1437 C1436 1.387 . S
C1437 C1439 1.387 . S
H1438 C1445 0.950 . S
C1439 C1437 1.387 . S
C1439 C1441 1.390 . S
C1439 H1443 0.950 . S
H1440 C1436 0.950 . S
C1441 C1439 1.390 . S
C1441 C1442 1.387 . S
C1441 H1444 0.950 . S
C1442 C1441 1.387 . S
C1442 C1445 1.387 . S
H1443 C1439 0.950 . S
H1444 C1441 0.950 . S
C1445 C1436 1.390 . S
C1445 H1438 0.950 . S
C1445 C1442 1.387 . S
C1446 C1447 1.387 . S
C1446 H1450 0.950 . S
C1446 C1455 1.390 . S
C1447 C1446 1.387 . S
C1447 C1449 1.387 . S
H1448 C1455 0.950 . S
C1449 C1447 1.387 . S
C1449 C1451 1.390 . S
C1449 H1453 0.950 . S
H1450 C1446 0.950 . S
C1451 C1449 1.390 . S
C1451 C1452 1.387 . S
C1451 H1454 0.950 . S
C1452 C1451 1.387 . S
C1452 C1455 1.387 . S
H1453 C1449 0.950 . S
H1454 C1451 0.950 . S
C1455 C1446 1.390 . S
C1455 H1448 0.950 . S
C1455 C1452 1.387 . S
C1456 C1457 1.387 . S
C1456 H1460 0.950 . S
C1456 C1465 1.390 . S
C1457 C1456 1.387 . S
C1457 C1459 1.387 . S
H1458 C1465 0.950 . S
C1459 C1457 1.387 . S
C1459 C1461 1.390 . S
C1459 H1463 0.950 . S
H1460 C1456 0.950 . S
C1461 C1459 1.390 . S
C1461 C1462 1.387 . S
C1461 H1464 0.950 . S
C1462 C1461 1.387 . S
C1462 C1465 1.387 . S
H1463 C1459 0.950 . S
H1464 C1461 0.950 . S
C1465 C1456 1.390 . S
C1465 H1458 0.950 . S
C1465 C1462 1.387 . S
C1466 C1467 1.387 . S
C1466 H1470 0.950 . S
C1466 C1475 1.390 . S
C1467 C1466 1.387 . S
C1467 C1469 1.387 . S
H1468 C1475 0.950 . S
C1469 C1467 1.387 . S
C1469 C1471 1.390 . S
C1469 H1473 0.950 . S
H1470 C1466 0.950 . S
C1471 C1469 1.390 . S
C1471 C1472 1.387 . S
C1471 H1474 0.950 . S
C1472 C1471 1.387 . S
C1472 C1475 1.387 . S
H1473 C1469 0.950 . S
H1474 C1471 0.950 . S
C1475 C1466 1.390 . S
C1475 H1468 0.950 . S
C1475 C1472 1.387 . S
C1476 C1477 1.387 . S
C1476 H1480 0.950 . S
C1476 C1485 1.390 . S
C1477 C1476 1.387 . S
C1477 C1479 1.387 . S
H1478 C1485 0.950 . S
C1479 C1477 1.387 . S
C1479 C1481 1.390 . S
C1479 H1483 0.950 . S
H1480 C1476 0.950 . S
C1481 C1479 1.390 . S
C1481 C1482 1.387 . S
C1481 H1484 0.950 . S
C1482 C1481 1.387 . S
C1482 C1485 1.387 . S
H1483 C1479 0.950 . S
H1484 C1481 0.950 . S
C1485 C1476 1.390 . S
C1485 H1478 0.950 . S
C1485 C1482 1.387 . S
C1486 C1487 1.387 . S
C1486 H1490 0.950 . S
C1486 C1495 1.390 . S
C1487 C1486 1.387 . S
C1487 C1489 1.387 . S
H1488 C1495 0.950 . S
C1489 C1487 1.387 . S
C1489 C1491 1.390 . S
C1489 H1493 0.950 . S
H1490 C1486 0.950 . S
C1491 C1489 1.390 . S
C1491 C1492 1.387 . S
C1491 H1494 0.950 . S
C1492 C1491 1.387 . S
C1492 C1495 1.387 . S
H1493 C1489 0.950 . S
H1494 C1491 0.950 . S
C1495 C1486 1.390 . S
C1495 H1488 0.950 . S
C1495 C1492 1.387 . S
C1496 C1497 1.387 . S
C1496 H1500 0.950 . S
C1496 C1505 1.390 . S
C1497 C1496 1.387 . S
C1497 C1499 1.387 . S
H1498 C1505 0.950 . S
C1499 C1497 1.387 . S
C1499 C1501 1.390 . S
C1499 H1503 0.950 . S
H1500 C1496 0.950 . S
C1501 C1499 1.390 . S
C1501 C1502 1.387 . S
C1501 H1504 0.950 . S
C1502 C1501 1.387 . S
C1502 C1505 1.387 . S
H1503 C1499 0.950 . S
H1504 C1501 0.950 . S
C1505 C1496 1.390 . S
C1505 H1498 0.950 . S
C1505 C1502 1.387 . S
C1506 C1507 1.387 . S
C1506 H1510 0.950 . S
C1506 C1515 1.390 . S
C1507 C1506 1.387 . S
C1507 C1509 1.387 . S
H1508 C1515 0.950 . S
C1509 C1507 1.387 . S
C1509 C1511 1.390 . S
C1509 H1513 0.950 . S
H1510 C1506 0.950 . S
C1511 C1509 1.390 . S
C1511 C1512 1.387 . S
C1511 H1514 0.950 . S
C1512 C1511 1.387 . S
C1512 C1515 1.387 . S
H1513 C1509 0.950 . S
H1514 C1511 0.950 . S
C1515 C1506 1.390 . S
C1515 H1508 0.950 . S
C1515 C1512 1.387 . S
C1516 C1517 1.387 . S
C1516 H1520 0.950 . S
C1516 C1525 1.390 . S
C1517 C1516 1.387 . S
C1517 C1519 1.387 . S
H1518 C1525 0.950 . S
C1519 C1517 1.387 . S
C1519 C1521 1.390 . S
C1519 H1523 0.950 . S
H1520 C1516 0.950 . S
C1521 C1519 1.390 . S
C1521 C1522 1.387 . S
C1521 H1524 0.950 . S
C1522 C1521 1.387 . S
C1522 C1525 1.387 . S
H1523 C1519 0.950 . S
H1524 C1521 0.950 . S
C1525 C1516 1.390 . S
C1525 H1518 0.950 . S
C1525 C1522 1.387 . S
C1526 C1527 1.387 . S
C1526 H1530 0.950 . S
C1526 C1535 1.390 . S
C1527 C1526 1.387 . S
C1527 C1529 1.387 . S
H1528 C1535 0.950 . S
C1529 C1527 1.387 . S
C1529 C1531 1.390 . S
C1529 H1533 0.950 . S
H1530 C1526 0.950 . S
C1531 C1529 1.390 . S
C1531 C1532 1.387 . S
C1531 H1534 0.950 . S
C1532 C1531 1.387 . S
C1532 C1535 1.387 . S
H1533 C1529 0.950 . S
H1534 C1531 0.950 . S
C1535 C1526 1.390 . S
C1535 H1528 0.950 . S
C1535 C1532 1.387 . S
C1536 C1537 1.387 . S
C1536 H1540 0.950 . S
C1536 C1545 1.390 . S
C1537 C1536 1.387 . S
C1537 C1539 1.387 . S
H1538 C1545 0.950 . S
C1539 C1537 1.387 . S
C1539 C1541 1.390 . S
C1539 H1543 0.950 . S
H1540 C1536 0.950 . S
C1541 C1539 1.390 . S
C1541 C1542 1.387 . S
C1541 H1544 0.950 . S
C1542 C1541 1.387 . S
C1542 C1545 1.387 . S
H1543 C1539 0.950 . S
H1544 C1541 0.950 . S
C1545 C1536 1.390 . S
C1545 H1538 0.950 . S
C1545 C1542 1.387 . S
C1546 C1547 1.387 . S
C1546 H1550 0.950 . S
C1546 C1555 1.390 . S
C1547 C1546 1.387 . S
C1547 C1549 1.387 . S
H1548 C1555 0.950 . S
C1549 C1547 1.387 . S
C1549 C1551 1.390 . S
C1549 H1553 0.950 . S
H1550 C1546 0.950 . S
C1551 C1549 1.390 . S
C1551 C1552 1.387 . S
C1551 H1554 0.950 . S
C1552 C1551 1.387 . S
C1552 C1555 1.387 . S
H1553 C1549 0.950 . S
H1554 C1551 0.950 . S
C1555 C1546 1.390 . S
C1555 H1548 0.950 . S
C1555 C1552 1.387 . S
C1556 C1557 1.387 . S
C1556 H1560 0.950 . S
C1556 C1565 1.390 . S
C1557 C1556 1.387 . S
C1557 C1559 1.387 . S
H1558 C1565 0.950 . S
C1559 C1557 1.387 . S
C1559 C1561 1.390 . S
C1559 H1563 0.950 . S
H1560 C1556 0.950 . S
C1561 C1559 1.390 . S
C1561 C1562 1.387 . S
C1561 H1564 0.950 . S
C1562 C1561 1.387 . S
C1562 C1565 1.387 . S
H1563 C1559 0.950 . S
H1564 C1561 0.950 . S
C1565 C1556 1.390 . S
C1565 H1558 0.950 . S
C1565 C1562 1.387 . S
C1566 C1567 1.387 . S
C1566 H1570 0.950 . S
C1566 C1575 1.390 . S
C1567 C1566 1.387 . S
C1567 C1569 1.387 . S
H1568 C1575 0.950 . S
C1569 C1567 1.387 . S
C1569 C1571 1.390 . S
C1569 H1573 0.950 . S
H1570 C1566 0.950 . S
C1571 C1569 1.390 . S
C1571 C1572 1.387 . S
C1571 H1574 0.950 . S
C1572 C1571 1.387 . S
C1572 C1575 1.387 . S
H1573 C1569 0.950 . S
H1574 C1571 0.950 . S
C1575 C1566 1.390 . S
C1575 H1568 0.950 . S
C1575 C1572 1.387 . S
C1576 C1577 1.387 . S
C1576 H1580 0.950 . S
C1576 C1585 1.390 . S
C1577 C1576 1.387 . S
C1577 C1579 1.387 . S
H1578 C1585 0.950 . S
C1579 C1577 1.387 . S
C1579 C1581 1.390 . S
C1579 H1583 0.950 . S
H1580 C1576 0.950 . S
C1581 C1579 1.390 . S
C1581 C1582 1.387 . S
C1581 H1584 0.950 . S
C1582 C1581 1.387 . S
C1582 C1585 1.387 . S
H1583 C1579 0.950 . S
H1584 C1581 0.950 . S
C1585 C1576 1.390 . S
C1585 H1578 0.950 . S
C1585 C1582 1.387 . S
C1586 C1587 1.387 . S
C1586 H1590 0.950 . S
C1586 C1595 1.390 . S
C1587 C1586 1.387 . S
C1587 C1589 1.387 . S
H1588 C1595 0.950 . S
C1589 C1587 1.387 . S
C1589 C1591 1.390 . S
C1589 H1593 0.950 . S
H1590 C1586 0.950 . S
C1591 C1589 1.390 . S
C1591 C1592 1.387 . S
C1591 H1594 0.950 . S
C1592 C1591 1.387 . S
C1592 C1595 1.387 . S
H1593 C1589 0.950 . S
H1594 C1591 0.950 . S
C1595 C1586 1.390 . S
C1595 H1588 0.950 . S
C1595 C1592 1.387 . S
C1596 C1597 1.387 . S
C1596 H1600 0.950 . S
C1596 C1605 1.390 . S
C1597 C1596 1.387 . S
C1597 C1599 1.387 . S
H1598 C1605 0.950 . S
C1599 C1597 1.387 . S
C1599 C1601 1.390 . S
C1599 H1603 0.950 . S
H1600 C1596 0.950 . S
C1601 C1599 1.390 . S
C1601 C1602 1.387 . S
C1601 H1604 0.950 . S
C1602 C1601 1.387 . S
C1602 C1605 1.387 . S
H1603 C1599 0.950 . S
H1604 C1601 0.950 . S
C1605 C1596 1.390 . S
C1605 H1598 0.950 . S
C1605 C1602 1.387 . S
C1606 C1607 1.387 . S
C1606 H1610 0.950 . S
C1606 C1615 1.390 . S
C1607 C1606 1.387 . S
C1607 C1609 1.387 . S
H1608 C1615 0.950 . S
C1609 C1607 1.387 . S
C1609 C1611 1.390 . S
C1609 H1613 0.950 . S
H1610 C1606 0.950 . S
C1611 C1609 1.390 . S
C1611 C1612 1.387 . S
C1611 H1614 0.950 . S
C1612 C1611 1.387 . S
C1612 C1615 1.387 . S
H1613 C1609 0.950 . S
H1614 C1611 0.950 . S
C1615 C1606 1.390 . S
C1615 H1608 0.950 . S
C1615 C1612 1.387 . S
C1616 C1617 1.387 . S
C1616 H1620 0.950 . S
C1616 C1625 1.390 . S
C1617 C1616 1.387 . S
C1617 C1619 1.387 . S
H1618 C1625 0.950 . S
C1619 C1617 1.387 . S
C1619 C1621 1.390 . S
C1619 H1623 0.950 . S
H1620 C1616 0.950 . S
C1621 C1619 1.390 . S
C1621 C1622 1.387 . S
C1621 H1624 0.950 . S
C1622 C1621 1.387 . S
C1622 C1625 1.387 . S
H1623 C1619 0.950 . S
H1624 C1621 0.950 . S
C1625 C1616 1.390 . S
C1625 H1618 0.950 . S
C1625 C1622 1.387 . S
C1626 C1627 1.387 . S
C1626 H1630 0.950 . S
C1626 C1635 1.390 . S
C1627 C1626 1.387 . S
C1627 C1629 1.387 . S
H1628 C1635 0.950 . S
C1629 C1627 1.387 . S
C1629 C1631 1.390 . S
C1629 H1633 0.950 . S
H1630 C1626 0.950 . S
C1631 C1629 1.390 . S
C1631 C1632 1.387 . S
C1631 H1634 0.950 . S
C1632 C1631 1.387 . S
C1632 C1635 1.387 . S
H1633 C1629 0.950 . S
H1634 C1631 0.950 . S
C1635 C1626 1.390 . S
C1635 H1628 0.950 . S
C1635 C1632 1.387 . S
C1636 C1637 1.387 . S
C1636 H1640 0.950 . S
C1636 C1645 1.390 . S
C1637 C1636 1.387 . S
C1637 C1639 1.387 . S
H1638 C1645 0.950 . S
C1639 C1637 1.387 . S
C1639 C1641 1.390 . S
C1639 H1643 0.950 . S
H1640 C1636 0.950 . S
C1641 C1639 1.390 . S
C1641 C1642 1.387 . S
C1641 H1644 0.950 . S
C1642 C1641 1.387 . S
C1642 C1645 1.387 . S
H1643 C1639 0.950 . S
H1644 C1641 0.950 . S
C1645 C1636 1.390 . S
C1645 H1638 0.950 . S
C1645 C1642 1.387 . S
C1646 C1647 1.387 . S
C1646 H1650 0.950 . S
C1646 C1655 1.390 . S
C1647 C1646 1.387 . S
C1647 C1649 1.387 . S
H1648 C1655 0.950 . S
C1649 C1647 1.387 . S
C1649 C1651 1.390 . S
C1649 H1653 0.950 . S
H1650 C1646 0.950 . S
C1651 C1649 1.390 . S
C1651 C1652 1.387 . S
C1651 H1654 0.950 . S
C1652 C1651 1.387 . S
C1652 C1655 1.387 . S
H1653 C1649 0.950 . S
H1654 C1651 0.950 . S
C1655 C1646 1.390 . S
C1655 H1648 0.950 . S
C1655 C1652 1.387 . S
C1656 C1657 1.387 . S
C1656 H1660 0.950 1_565 S
C1656 C1665 1.390 . S
C1657 C1656 1.387 . S
C1657 C1659 1.387 . S
H1658 C1665 0.950 . S
C1659 C1657 1.387 . S
C1659 C1661 1.390 . S
C1659 H1663 0.950 . S
H1660 C1656 0.950 1_545 S
C1661 C1659 1.390 . S
C1661 C1662 1.387 . S
C1661 H1664 0.950 . S
C1662 C1661 1.387 . S
C1662 C1665 1.387 . S
H1663 C1659 0.950 . S
H1664 C1661 0.950 . S
C1665 C1656 1.390 . S
C1665 H1658 0.950 . S
C1665 C1662 1.387 . S
C1666 C1667 1.387 . S
C1666 H1670 0.950 . S
C1666 C1675 1.390 . S
C1667 C1666 1.387 . S
C1667 C1669 1.387 . S
H1668 C1675 0.950 . S
C1669 C1667 1.387 . S
C1669 C1671 1.390 . S
C1669 H1673 0.950 . S
H1670 C1666 0.950 . S
C1671 C1669 1.390 . S
C1671 C1672 1.387 . S
C1671 H1674 0.950 . S
C1672 C1671 1.387 . S
C1672 C1675 1.387 . S
H1673 C1669 0.950 . S
H1674 C1671 0.950 . S
C1675 C1666 1.390 . S
C1675 H1668 0.950 . S
C1675 C1672 1.387 . S
C1676 C1677 1.387 . S
C1676 H1680 0.950 . S
C1676 C1685 1.390 . S
C1677 C1676 1.387 . S
C1677 C1679 1.387 . S
H1678 C1685 0.950 . S
C1679 C1677 1.387 . S
C1679 C1681 1.390 . S
C1679 H1683 0.950 . S
H1680 C1676 0.950 . S
C1681 C1679 1.390 . S
C1681 C1682 1.387 . S
C1681 H1684 0.950 . S
C1682 C1681 1.387 . S
C1682 C1685 1.387 . S
H1683 C1679 0.950 . S
H1684 C1681 0.950 . S
C1685 C1676 1.390 . S
C1685 H1678 0.950 . S
C1685 C1682 1.387 . S
C1686 C1687 1.387 . S
C1686 H1690 0.950 . S
C1686 C1695 1.390 . S
C1687 C1686 1.387 . S
C1687 C1689 1.387 . S
H1688 C1695 0.950 . S
C1689 C1687 1.387 . S
C1689 C1691 1.390 . S
C1689 H1693 0.950 . S
H1690 C1686 0.950 . S
C1691 C1689 1.390 . S
C1691 C1692 1.387 . S
C1691 H1694 0.950 . S
C1692 C1691 1.387 . S
C1692 C1695 1.387 . S
H1693 C1689 0.950 . S
H1694 C1691 0.950 . S
C1695 C1686 1.390 . S
C1695 H1688 0.950 . S
C1695 C1692 1.387 . S
C1696 C1697 1.387 . S
C1696 H1700 0.950 . S
C1696 C1705 1.390 . S
C1697 C1696 1.387 . S
C1697 C1699 1.387 . S
H1698 C1705 0.950 . S
C1699 C1697 1.387 . S
C1699 C1701 1.390 . S
C1699 H1703 0.950 . S
H1700 C1696 0.950 . S
C1701 C1699 1.390 . S
C1701 C1702 1.387 . S
C1701 H1704 0.950 . S
C1702 C1701 1.387 . S
C1702 C1705 1.387 . S
H1703 C1699 0.950 . S
H1704 C1701 0.950 . S
C1705 C1696 1.390 . S
C1705 H1698 0.950 . S
C1705 C1702 1.387 . S
C1706 C1707 1.387 . S
C1706 H1710 0.950 . S
C1706 C1715 1.390 . S
C1707 C1706 1.387 . S
C1707 C1709 1.387 . S
H1708 C1715 0.950 . S
C1709 C1707 1.387 . S
C1709 C1711 1.390 . S
C1709 H1713 0.950 . S
H1710 C1706 0.950 . S
C1711 C1709 1.390 . S
C1711 C1712 1.387 . S
C1711 H1714 0.950 . S
C1712 C1711 1.387 . S
C1712 C1715 1.387 . S
H1713 C1709 0.950 . S
H1714 C1711 0.950 . S
C1715 C1706 1.390 . S
C1715 H1708 0.950 . S
C1715 C1712 1.387 . S
C1716 C1717 1.387 . S
C1716 H1720 0.950 . S
C1716 C1725 1.390 . S
C1717 C1716 1.387 . S
C1717 C1719 1.387 . S
H1718 C1725 0.950 . S
C1719 C1717 1.387 . S
C1719 C1721 1.390 . S
C1719 H1723 0.950 . S
H1720 C1716 0.950 . S
C1721 C1719 1.390 . S
C1721 C1722 1.387 . S
C1721 H1724 0.950 . S
C1722 C1721 1.387 . S
C1722 C1725 1.387 . S
H1723 C1719 0.950 . S
H1724 C1721 0.950 . S
C1725 C1716 1.390 . S
C1725 H1718 0.950 . S
C1725 C1722 1.387 . S
C1726 C1727 1.387 . S
C1726 H1730 0.950 . S
C1726 C1735 1.390 . S
C1727 C1726 1.387 . S
C1727 C1729 1.387 . S
H1728 C1735 0.950 . S
C1729 C1727 1.387 . S
C1729 C1731 1.390 . S
C1729 H1733 0.950 . S
H1730 C1726 0.950 . S
C1731 C1729 1.390 . S
C1731 C1732 1.387 . S
C1731 H1734 0.950 . S
C1732 C1731 1.387 . S
C1732 C1735 1.387 . S
H1733 C1729 0.950 . S
H1734 C1731 0.950 . S
C1735 C1726 1.390 . S
C1735 H1728 0.950 . S
C1735 C1732 1.387 . S
C1736 C1737 1.387 . S
C1736 H1740 0.950 . S
C1736 C1745 1.390 . S
C1737 C1736 1.387 . S
C1737 C1739 1.387 . S
H1738 C1745 0.950 . S
C1739 C1737 1.387 . S
C1739 C1741 1.390 . S
C1739 H1743 0.950 . S
H1740 C1736 0.950 . S
C1741 C1739 1.390 . S
C1741 C1742 1.387 . S
C1741 H1744 0.950 . S
C1742 C1741 1.387 . S
C1742 C1745 1.387 . S
H1743 C1739 0.950 . S
H1744 C1741 0.950 . S
C1745 C1736 1.390 . S
C1745 H1738 0.950 . S
C1745 C1742 1.387 . S
C1746 C1747 1.387 . S
C1746 H1750 0.950 . S
C1746 C1755 1.390 . S
C1747 C1746 1.387 . S
C1747 C1749 1.387 . S
H1748 C1755 0.950 . S
C1749 C1747 1.387 . S
C1749 C1751 1.390 . S
C1749 H1753 0.950 . S
H1750 C1746 0.950 . S
C1751 C1749 1.390 . S
C1751 C1752 1.387 . S
C1751 H1754 0.950 . S
C1752 C1751 1.387 . S
C1752 C1755 1.387 . S
H1753 C1749 0.950 . S
H1754 C1751 0.950 . S
C1755 C1746 1.390 . S
C1755 H1748 0.950 . S
C1755 C1752 1.387 . S
C1756 C1757 1.387 . S
C1756 H1760 0.950 . S
C1756 C1765 1.390 . S
C1757 C1756 1.387 . S
C1757 C1759 1.387 . S
H1758 C1765 0.950 . S
C1759 C1757 1.387 . S
C1759 C1761 1.390 . S
C1759 H1763 0.950 . S
H1760 C1756 0.950 . S
C1761 C1759 1.390 . S
C1761 C1762 1.387 . S
C1761 H1764 0.950 . S
C1762 C1761 1.387 . S
C1762 C1765 1.387 . S
H1763 C1759 0.950 . S
H1764 C1761 0.950 . S
C1765 C1756 1.390 . S
C1765 H1758 0.950 . S
C1765 C1762 1.387 . S
C1766 C1767 1.387 . S
C1766 H1770 0.950 . S
C1766 C1775 1.390 . S
C1767 C1766 1.387 . S
C1767 C1769 1.387 . S
H1768 C1775 0.950 . S
C1769 C1767 1.387 . S
C1769 C1771 1.390 . S
C1769 H1773 0.950 . S
H1770 C1766 0.950 . S
C1771 C1769 1.390 . S
C1771 C1772 1.387 . S
C1771 H1774 0.950 . S
C1772 C1771 1.387 . S
C1772 C1775 1.387 . S
H1773 C1769 0.950 . S
H1774 C1771 0.950 . S
C1775 C1766 1.390 . S
C1775 H1768 0.950 . S
C1775 C1772 1.387 . S
C1776 C1777 1.387 . S
C1776 H1780 0.950 . S
C1776 C1785 1.390 . S
C1777 C1776 1.387 . S
C1777 C1779 1.387 . S
H1778 C1785 0.950 . S
C1779 C1777 1.387 . S
C1779 C1781 1.390 . S
C1779 H1783 0.950 . S
H1780 C1776 0.950 . S
C1781 C1779 1.390 . S
C1781 C1782 1.387 . S
C1781 H1784 0.950 . S
C1782 C1781 1.387 . S
C1782 C1785 1.387 . S
H1783 C1779 0.950 . S
H1784 C1781 0.950 . S
C1785 C1776 1.390 . S
C1785 H1778 0.950 . S
C1785 C1782 1.387 . S
C1786 C1787 1.387 . S
C1786 H1790 0.950 . S
C1786 C1795 1.390 . S
C1787 C1786 1.387 . S
C1787 C1789 1.387 . S
H1788 C1795 0.950 . S
C1789 C1787 1.387 . S
C1789 C1791 1.390 . S
C1789 H1793 0.950 . S
H1790 C1786 0.950 . S
C1791 C1789 1.390 . S
C1791 C1792 1.387 . S
C1791 H1794 0.950 . S
C1792 C1791 1.387 . S
C1792 C1795 1.387 . S
H1793 C1789 0.950 . S
H1794 C1791 0.950 . S
C1795 C1786 1.390 . S
C1795 H1788 0.950 . S
C1795 C1792 1.387 . S
C1796 C1797 1.387 . S
C1796 H1800 0.950 . S
C1796 C1805 1.390 . S
C1797 C1796 1.387 . S
C1797 C1799 1.387 . S
H1798 C1805 0.950 . S
C1799 C1797 1.387 . S
C1799 C1801 1.390 . S
C1799 H1803 0.950 . S
H1800 C1796 0.950 . S
C1801 C1799 1.390 . S
C1801 C1802 1.387 . S
C1801 H1804 0.950 . S
C1802 C1801 1.387 . S
C1802 C1805 1.387 . S
H1803 C1799 0.950 . S
H1804 C1801 0.950 . S
C1805 C1796 1.390 . S
C1805 H1798 0.950 . S
C1805 C1802 1.387 . S
C1806 C1807 1.387 . S
C1806 H1810 0.950 . S
C1806 C1815 1.390 . S
C1807 C1806 1.387 . S
C1807 C1809 1.387 . S
H1808 C1815 0.950 . S
C1809 C1807 1.387 . S
C1809 C1811 1.390 . S
C1809 H1813 0.950 . S
H1810 C1806 0.950 . S
C1811 C1809 1.390 . S
C1811 C1812 1.387 . S
C1811 H1814 0.950 . S
C1812 C1811 1.387 . S
C1812 C1815 1.387 . S
H1813 C1809 0.950 . S
H1814 C1811 0.950 . S
C1815 C1806 1.390 . S
C1815 H1808 0.950 . S
C1815 C1812 1.387 . S
C1816 C1817 1.387 . S
C1816 H1820 0.950 . S
C1816 C1825 1.390 . S
C1817 C1816 1.387 . S
C1817 C1819 1.387 . S
H1818 C1825 0.950 . S
C1819 C1817 1.387 . S
C1819 C1821 1.390 . S
C1819 H1823 0.950 . S
H1820 C1816 0.950 . S
C1821 C1819 1.390 . S
C1821 C1822 1.387 . S
C1821 H1824 0.950 . S
C1822 C1821 1.387 . S
C1822 C1825 1.387 . S
H1823 C1819 0.950 . S
H1824 C1821 0.950 . S
C1825 C1816 1.390 . S
C1825 H1818 0.950 . S
C1825 C1822 1.387 . S
C1826 C1827 1.387 . S
C1826 H1830 0.950 . S
C1826 C1835 1.390 . S
C1827 C1826 1.387 . S
C1827 C1829 1.387 . S
H1828 C1835 0.950 . S
C1829 C1827 1.387 . S
C1829 C1831 1.390 . S
C1829 H1833 0.950 . S
H1830 C1826 0.950 . S
C1831 C1829 1.390 . S
C1831 C1832 1.387 . S
C1831 H1834 0.950 . S
C1832 C1831 1.387 . S
C1832 C1835 1.387 . S
H1833 C1829 0.950 . S
H1834 C1831 0.950 . S
C1835 C1826 1.390 . S
C1835 H1828 0.950 . S
C1835 C1832 1.387 . S
C1836 C1837 1.387 . S
C1836 H1840 0.950 . S
C1836 C1845 1.390 . S
C1837 C1836 1.387 . S
C1837 C1839 1.387 . S
H1838 C1845 0.950 . S
C1839 C1837 1.387 . S
C1839 C1841 1.390 . S
C1839 H1843 0.950 . S
H1840 C1836 0.950 . S
C1841 C1839 1.390 . S
C1841 C1842 1.387 . S
C1841 H1844 0.950 . S
C1842 C1841 1.387 . S
C1842 C1845 1.387 . S
H1843 C1839 0.950 . S
H1844 C1841 0.950 . S
C1845 C1836 1.390 . S
C1845 H1838 0.950 . S
C1845 C1842 1.387 . S
C1846 C1847 1.387 . S
C1846 H1850 0.950 . S
C1846 C1855 1.390 . S
C1847 C1846 1.387 . S
C1847 C1849 1.387 . S
H1848 C1855 0.950 . S
C1849 C1847 1.387 . S
C1849 C1851 1.390 . S
C1849 H1853 0.950 . S
H1850 C1846 0.950 . S
C1851 C1849 1.390 . S
C1851 C1852 1.387 . S
C1851 H1854 0.950 . S
C1852 C1851 1.387 . S
C1852 C1855 1.387 . S
H1853 C1849 0.950 . S
H1854 C1851 0.950 . S
C1855 C1846 1.390 . S
C1855 H1848 0.950 . S
C1855 C1852 1.387 . S
C1856 C1857 1.387 . S
C1856 H1860 0.950 . S
C1856 C1865 1.390 . S
C1857 C1856 1.387 . S
C1857 C1859 1.387 . S
H1858 C1865 0.950 . S
C1859 C1857 1.387 . S
C1859 C1861 1.390 . S
C1859 H1863 0.950 . S
H1860 C1856 0.950 . S
C1861 C1859 1.390 . S
C1861 C1862 1.387 . S
C1861 H1864 0.950 . S
C1862 C1861 1.387 . S
C1862 C1865 1.387 . S
H1863 C1859 0.950 . S
H1864 C1861 0.950 . S
C1865 C1856 1.390 . S
C1865 H1858 0.950 . S
C1865 C1862 1.387 . S
C1866 C1867 1.387 . S
C1866 H1870 0.950 . S
C1866 C1875 1.390 . S
C1867 C1866 1.387 . S
C1867 C1869 1.387 . S
H1868 C1875 0.950 . S
C1869 C1867 1.387 . S
C1869 C1871 1.390 . S
C1869 H1873 0.950 . S
H1870 C1866 0.950 . S
C1871 C1869 1.390 . S
C1871 C1872 1.387 . S
C1871 H1874 0.950 . S
C1872 C1871 1.387 . S
C1872 C1875 1.387 . S
H1873 C1869 0.950 . S
H1874 C1871 0.950 . S
C1875 C1866 1.390 . S
C1875 H1868 0.950 . S
C1875 C1872 1.387 . S
C1876 C1877 1.387 . S
C1876 H1880 0.950 . S
C1876 C1885 1.390 . S
C1877 C1876 1.387 . S
C1877 C1879 1.387 . S
H1878 C1885 0.950 . S
C1879 C1877 1.387 . S
C1879 C1881 1.390 . S
C1879 H1883 0.950 . S
H1880 C1876 0.950 . S
C1881 C1879 1.390 . S
C1881 C1882 1.387 . S
C1881 H1884 0.950 . S
C1882 C1881 1.387 . S
C1882 C1885 1.387 . S
H1883 C1879 0.950 . S
H1884 C1881 0.950 . S
C1885 C1876 1.390 . S
C1885 H1878 0.950 . S
C1885 C1882 1.387 . S
C1886 C1887 1.387 . S
C1886 H1890 0.950 . S
C1886 C1895 1.390 . S
C1887 C1886 1.387 . S
C1887 C1889 1.387 . S
H1888 C1895 0.950 . S
C1889 C1887 1.387 . S
C1889 C1891 1.390 . S
C1889 H1893 0.950 . S
H1890 C1886 0.950 . S
C1891 C1889 1.390 . S
C1891 C1892 1.387 . S
C1891 H1894 0.950 . S
C1892 C1891 1.387 . S
C1892 C1895 1.387 . S
H1893 C1889 0.950 . S
H1894 C1891 0.950 . S
C1895 C1886 1.390 . S
C1895 H1888 0.950 . S
C1895 C1892 1.387 . S
C1417 C829 1.407 . S
C1422 C5 1.423 . S
C1427 C62 1.405 . S
C1432 C890 1.419 . S
C1437 C1114 1.568 . S
C1442 C170 1.568 . S
C1447 C210 1.825 . S
C1452 C800 1.825 . S
C1457 C859 1.828 . S
C1462 C288 1.818 . S
C1467 C328 1.577 . S
C1472 C937 1.565 . S
C1477 C359 1.416 . S
C1482 C1067 1.419 . S
C1487 C416 1.419 . S
C1492 C770 1.404 . S
C1497 C536 1.417 . S
C1502 C475 1.419 . S
C1507 C623 1.826 . S
C1512 C583 1.815 . S
C1517 C593 1.407 . S
C1522 C654 1.422 . S
C1527 C701 1.565 . S
C1532 C505 1.578 . S
C1537 C713 1.419 . S
C1542 C180 1.403 . S
C1547 C241 1.416 . S
C1552 C949 1.419 . S
C1557 C1036 1.824 . S
C1562 C92 1.824 . S
C1567 C64 1.710 . S
C1572 C1291 1.706 . S
C1577 C534 1.713 . S
C1582 C33 1.711 . S
C1587 C1409 1.804 . S
C1592 C229 1.803 . S
C1597 C652 1.323 . S
C1602 C121 1.323 . S
C1607 C1244 1.319 . S
C1612 C418 1.319 . S
C1617 C564 1.812 . S
C1622 C387 1.812 . S
C1627 C347 1.706 . S
C1632 C1362 1.711 . S
C1637 C239 1.711 . S
C1642 C682 1.709 . S
C1647 C918 1.707 . S
C1652 C1126 1.710 . S
C1657 C947 1.322 . S
C1662 C888 1.321 . S
C1667 C772 1.710 . S
C1672 C977 1.708 . S
C1677 C1173 1.806 . S
C1682 C819 1.806 . S
C1687 C151 1.711 . S
C1692 C1183 1.714 . S
C1697 C595 1.711 . S
C1702 C465 1.706 . S
C1707 C3 1.323 . S
C1712 C1301 1.322 . S
C1717 C1124 1.407 . S
C1722 C123 1.423 . S
C1727 C52 1.567 . S
C1732 C996 1.567 . S
C1737 C1154 1.827 . S
C1742 C406 1.817 . S
C1747 C760 1.565 . S
C1752 C446 1.577 . S
C1757 C298 1.420 . S
C1762 C1006 1.406 . S
C1767 C1242 1.419 . S
C1772 C1185 1.417 . S
C1777 C1390 1.826 . S
C1782 C1232 1.816 . S
C1787 C1303 1.422 . S
C1792 C1360 1.407 . S
C1797 C1272 1.577 . S
C1802 C1350 1.565 . S
C1807 C524 1.705 . S
C1812 C182 1.710 . S
C1817 C111 1.803 . S
C1822 C642 1.804 . S
C1827 C300 1.319 . S
C1832 C477 1.319 . S
C1837 C1213 1.812 . S
C1842 C269 1.812 . S
C1847 C357 1.712 . S
C1852 C1331 1.710 . S
C1857 C741 1.708 . S
C1862 C831 1.710 . S
C1867 C1065 1.322 . S
C1872 C711 1.321 . S
C1877 C1008 1.711 . S
C1882 C1095 1.709 . S
C1887 C878 1.806 . S
C1892 C1055 1.805 . S
