# Generated by pormake.
# Topology wiv, (6)-cn, num edge types: 1
# Building blocks:
#     Node 0, Type 0, BuildingBlock: UKALOJ_clean_sbu_0, # of connection points: 6
#     Node 1, Type 0, BuildingBlock: UKALOJ_clean_sbu_0, # of connection points: 6
#     Node 2, Type 0, BuildingBlock: UKALOJ_clean_sbu_0, # of connection points: 6
#     Node 3, Type 0, BuildingBlock: UKALOJ_clean_sbu_0, # of connection points: 6
#     Node 4, Type 0, BuildingBlock: UKALOJ_clean_sbu_0, # of connection points: 6
#     Node 5, Type 0, BuildingBlock: UKALOJ_clean_sbu_0, # of connection points: 6
#     Node 6, Type 0, BuildingBlock: UKALOJ_clean_sbu_0, # of connection points: 6
#     Node 7, Type 0, BuildingBlock: UKALOJ_clean_sbu_0, # of connection points: 6
#     Node 8, Type 0, BuildingBlock: UKALOJ_clean_sbu_0, # of connection points: 6
#     Node 9, Type 0, BuildingBlock: UKALOJ_clean_sbu_0, # of connection points: 6
#     Node 10, Type 0, BuildingBlock: UKALOJ_clean_sbu_0, # of connection points: 6
#     Node 11, Type 0, BuildingBlock: UKALOJ_clean_sbu_0, # of connection points: 6
#     Node 12, Type 0, BuildingBlock: UKALOJ_clean_sbu_0, # of connection points: 6
#     Node 13, Type 0, BuildingBlock: UKALOJ_clean_sbu_0, # of connection points: 6
#     Node 14, Type 0, BuildingBlock: UKALOJ_clean_sbu_0, # of connection points: 6
#     Node 15, Type 0, BuildingBlock: UKALOJ_clean_sbu_0, # of connection points: 6
#     Edge 16, Type (0, 0), BuildingBlock: OJICUG_clean_linker_0, # of connection points: 2
#     Edge 17, Type (0, 0), BuildingBlock: OJICUG_clean_linker_0, # of connection points: 2
#     Edge 18, Type (0, 0), BuildingBlock: OJICUG_clean_linker_0, # of connection points: 2
#     Edge 19, Type (0, 0), BuildingBlock: OJICUG_clean_linker_0, # of connection points: 2
#     Edge 20, Type (0, 0), BuildingBlock: OJICUG_clean_linker_0, # of connection points: 2
#     Edge 21, Type (0, 0), BuildingBlock: OJICUG_clean_linker_0, # of connection points: 2
#     Edge 22, Type (0, 0), BuildingBlock: OJICUG_clean_linker_0, # of connection points: 2
#     Edge 23, Type (0, 0), BuildingBlock: OJICUG_clean_linker_0, # of connection points: 2
#     Edge 24, Type (0, 0), BuildingBlock: OJICUG_clean_linker_0, # of connection points: 2
#     Edge 25, Type (0, 0), BuildingBlock: OJICUG_clean_linker_0, # of connection points: 2
#     Edge 26, Type (0, 0), BuildingBlock: OJICUG_clean_linker_0, # of connection points: 2
#     Edge 27, Type (0, 0), BuildingBlock: OJICUG_clean_linker_0, # of connection points: 2
#     Edge 28, Type (0, 0), BuildingBlock: OJICUG_clean_linker_0, # of connection points: 2
#     Edge 29, Type (0, 0), BuildingBlock: OJICUG_clean_linker_0, # of connection points: 2
#     Edge 30, Type (0, 0), BuildingBlock: OJICUG_clean_linker_0, # of connection points: 2
#     Edge 31, Type (0, 0), BuildingBlock: OJICUG_clean_linker_0, # of connection points: 2
#     Edge 32, Type (0, 0), BuildingBlock: OJICUG_clean_linker_0, # of connection points: 2
#     Edge 33, Type (0, 0), BuildingBlock: OJICUG_clean_linker_0, # of connection points: 2
#     Edge 34, Type (0, 0), BuildingBlock: OJICUG_clean_linker_0, # of connection points: 2
#     Edge 35, Type (0, 0), BuildingBlock: OJICUG_clean_linker_0, # of connection points: 2
#     Edge 36, Type (0, 0), BuildingBlock: OJICUG_clean_linker_0, # of connection points: 2
#     Edge 37, Type (0, 0), BuildingBlock: OJICUG_clean_linker_0, # of connection points: 2
#     Edge 38, Type (0, 0), BuildingBlock: OJICUG_clean_linker_0, # of connection points: 2
#     Edge 39, Type (0, 0), BuildingBlock: OJICUG_clean_linker_0, # of connection points: 2
#     Edge 40, Type (0, 0), BuildingBlock: OJICUG_clean_linker_0, # of connection points: 2
#     Edge 41, Type (0, 0), BuildingBlock: OJICUG_clean_linker_0, # of connection points: 2
#     Edge 42, Type (0, 0), BuildingBlock: OJICUG_clean_linker_0, # of connection points: 2
#     Edge 43, Type (0, 0), BuildingBlock: OJICUG_clean_linker_0, # of connection points: 2
#     Edge 44, Type (0, 0), BuildingBlock: OJICUG_clean_linker_0, # of connection points: 2
#     Edge 45, Type (0, 0), BuildingBlock: OJICUG_clean_linker_0, # of connection points: 2
#     Edge 46, Type (0, 0), BuildingBlock: OJICUG_clean_linker_0, # of connection points: 2
#     Edge 47, Type (0, 0), BuildingBlock: OJICUG_clean_linker_0, # of connection points: 2
#     Edge 48, Type (0, 0), BuildingBlock: OJICUG_clean_linker_0, # of connection points: 2
#     Edge 49, Type (0, 0), BuildingBlock: OJICUG_clean_linker_0, # of connection points: 2
#     Edge 50, Type (0, 0), BuildingBlock: OJICUG_clean_linker_0, # of connection points: 2
#     Edge 51, Type (0, 0), BuildingBlock: OJICUG_clean_linker_0, # of connection points: 2
#     Edge 52, Type (0, 0), BuildingBlock: OJICUG_clean_linker_0, # of connection points: 2
#     Edge 53, Type (0, 0), BuildingBlock: OJICUG_clean_linker_0, # of connection points: 2
#     Edge 54, Type (0, 0), BuildingBlock: OJICUG_clean_linker_0, # of connection points: 2
#     Edge 55, Type (0, 0), BuildingBlock: OJICUG_clean_linker_0, # of connection points: 2
#     Edge 56, Type (0, 0), BuildingBlock: OJICUG_clean_linker_0, # of connection points: 2
#     Edge 57, Type (0, 0), BuildingBlock: OJICUG_clean_linker_0, # of connection points: 2
#     Edge 58, Type (0, 0), BuildingBlock: OJICUG_clean_linker_0, # of connection points: 2
#     Edge 59, Type (0, 0), BuildingBlock: OJICUG_clean_linker_0, # of connection points: 2
#     Edge 60, Type (0, 0), BuildingBlock: OJICUG_clean_linker_0, # of connection points: 2
#     Edge 61, Type (0, 0), BuildingBlock: OJICUG_clean_linker_0, # of connection points: 2
#     Edge 62, Type (0, 0), BuildingBlock: OJICUG_clean_linker_0, # of connection points: 2
#     Edge 63, Type (0, 0), BuildingBlock: OJICUG_clean_linker_0, # of connection points: 2
# Relax obj value: 0.139
# Max RMSD: 0.135
# Mean RMSD: 0.135
data_MOF--net-wiv--node1-UKALOJ_clean_sbu_0--edge1-OJICUG_clean_linker_0
_symmetry_space_group_name_H-M    P1
_symmetry_Int_Tables_number       1
_symmetry_cell_setting            triclinic
loop_
_symmetry_equiv_pos_as_xyz
'x, y, z'
_cell_length_a     52.307983
_cell_length_b     52.374851
_cell_length_c     10.872711
_cell_angle_alpha  89.900728
_cell_angle_beta   90.005118
_cell_angle_gamma 90.112023
loop_
_atom_site_label
_atom_site_type_symbol
_atom_site_fract_x
_atom_site_fract_y
_atom_site_fract_z
_atom_type_partial_charge
Zn0 Zn 0.36166 0.12547 0.02908 0.0
O1 O 0.36925 0.12515 0.84446 0.0
C2 C 0.31364 0.09689 0.95822 0.0
Zn3 Zn 0.36712 0.08278 0.03166 0.0
C4 C 0.37451 0.10469 0.78765 0.0
O5 O 0.37701 0.08384 0.84639 0.0
C6 C 0.35402 0.1036 0.27291 0.0
O7 O 0.40637 0.09041 0.08825 0.0
O8 O 0.4004 0.1318 0.06879 0.0
N9 N 0.37301 0.04328 0.03833 0.0
C10 C 0.3854 0.02741 0.1171 0.0
C11 C 0.3665 1.00405 -0.01467 0.0
N12 N 0.36146 0.02857 0.95644 0.0
N13 N 0.38158 1.00263 0.08569 0.0
C14 C 0.36251 0.18476 0.08542 0.0
C15 C 0.33684 0.19871 0.94867 0.0
N16 N 0.35435 0.16438 0.01998 0.0
N17 N 0.33842 0.17319 0.93529 0.0
N18 N 0.3517 0.20655 0.0425 0.0
H19 H 0.3798 0.16667 0.24241 0.0
H20 H 0.38418 0.20095 0.23754 0.0
H21 H 0.40172 0.18072 0.13542 0.0
C22 C 0.38301 0.18336 0.18164 0.0
C23 C 0.40005 0.03606 0.22788 0.0
H24 H 0.42081 0.0349 0.20778 0.0
H25 H 0.39593 0.02337 0.30732 0.0
H26 H 0.3955 0.05602 0.25224 0.0
O27 O 0.35674 0.08277 0.21499 0.0
O28 O 0.35414 0.1247 0.21524 0.0
C29 C 0.41498 0.11321 0.09528 0.0
O30 O 0.32305 0.11854 -0.01417 0.0
O31 O 0.32747 0.07703 -0.02813 0.0
Zn32 Zn 0.13837 0.67758 0.87703 0.0
O33 O 0.14098 0.66978 0.06301 0.0
C34 C 0.10807 0.72345 0.95193 0.0
Zn35 Zn 0.09653 0.66907 0.87814 0.0
C36 C 0.12068 0.66369 0.12041 0.0
O37 O 0.09992 0.66027 0.06217 0.0
C38 C 0.11429 0.68335 0.63481 0.0
O39 O 0.10572 0.62991 0.82738 0.0
O40 O 0.1466 0.63938 0.83005 0.0
N41 N 0.05788 0.66065 0.88304 0.0
C42 C 0.0421 0.64752 0.80713 0.0
C43 C 0.01893 0.66421 0.9463 0.0
N44 N 0.04336 0.67078 -0.03015 0.0
N45 N 0.01759 0.64943 0.8452 0.0
C46 C 0.19802 0.67522 0.87822 0.0
C47 C 0.20737 0.71166 0.80261 0.0
N48 N 0.17594 0.68799 0.86315 0.0
N49 N 0.18183 0.71067 0.81687 0.0
N50 N 0.21802 0.68956 0.83937 0.0
H51 H 0.19921 0.63452 0.86568 0.0
H52 H 0.21825 0.64759 -0.01181 0.0
H53 H 0.18374 0.64629 0.00153 0.0
C54 C 0.19993 0.64946 0.93752 0.0
C55 C 0.05025 0.63421 0.69176 0.0
H56 H 0.04655 0.61345 0.70151 0.0
H57 H 0.03866 0.64119 0.61312 0.0
H58 H 0.07076 0.63709 0.67189 0.0
O59 O 0.09385 0.67833 0.6927 0.0
O60 O 0.13516 0.6854 0.69274 0.0
C61 C 0.12892 0.62312 0.81195 0.0
O62 O 0.13016 0.71524 0.9252 0.0
O63 O 0.08888 0.70873 0.93523 0.0
Zn64 Zn 0.66142 0.94265 0.06841 0.0
O65 O 0.62265 0.93145 0.12324 0.0
C66 C 0.67679 0.92523 0.31135 0.0
Zn67 Zn 0.6717 0.90095 0.06873 0.0
C68 C 0.61667 0.90792 0.13661 0.0
O69 O 0.63357 0.89097 0.11607 0.0
C70 C 0.71621 0.93419 -0.0081 0.0
O71 O 0.66407 0.89795 0.88294 0.0
O72 O 0.65238 0.93836 0.88477 0.0
N73 N 0.68394 0.86355 0.08291 0.0
C74 C 0.67253 0.84065 0.0674 0.0
C75 C 0.70976 0.83357 0.13919 0.0
N76 N 0.70709 0.85901 0.12709 0.0
N77 N 0.68827 0.82145 0.10347 0.0
C78 C 0.64288 0.99807 0.14501 0.0
C79 C 0.64596 0.01822 -0.02456 0.0
N80 N 0.65103 0.98108 0.05996 0.0
N81 N 0.65279 0.99376 0.95463 0.0
N82 N 0.63969 0.0214 0.09442 0.0
H83 H 0.62211 1.00451 0.31277 0.0
H84 H 0.65491 0.99543 0.33103 0.0
H85 H 0.63138 0.97168 0.28687 0.0
C86 C 0.63736 0.99188 0.27656 0.0
C87 C 0.6467 0.83734 0.01017 0.0
H88 H 0.64233 0.85361 0.94829 0.0
H89 H 0.632 0.8368 0.08352 0.0
H90 H 0.64574 0.81924 0.95747 0.0
O91 O 0.70929 0.91163 0.01996 0.0
O92 O 0.70035 0.9524 0.00752 0.0
C93 C 0.65692 0.91792 0.82605 0.0
O94 O 0.67117 0.94563 0.25421 0.0
O95 O 0.67931 0.90456 0.25266 0.0
Zn96 Zn 0.94128 0.37385 0.89538 0.0
O97 O 0.93875 0.41388 0.8434 0.0
C98 C 0.92146 0.36075 0.65181 0.0
Zn99 Zn 0.8989 0.36902 0.8935 0.0
C100 C 0.91636 0.42216 0.82291 0.0
O101 O 0.89754 0.40757 0.84233 0.0
C102 C 0.92187 0.32012 -0.03017 0.0
O103 O 0.89779 0.37799 0.07896 0.0
O104 O 0.93962 0.38296 0.07945 0.0
N105 N 0.86001 0.36959 0.87873 0.0
C106 C 0.83984 0.35635 0.92266 0.0
C107 C 0.82515 0.38568 0.80601 0.0
N108 N 0.85069 0.38766 0.8061 0.0
N109 N 0.81783 0.3662 0.87836 0.0
C110 C 0.99691 0.39099 0.82698 0.0
C111 C 0.01959 0.36972 0.95316 0.0
N112 N 0.98069 0.37695 0.89701 0.0
N113 N 0.9949 0.36386 -0.02438 0.0
N114 N 0.02136 0.38699 0.86139 0.0
H115 H 0.987 0.42753 0.75392 0.0
H116 H 1.00397 0.40748 0.6481 0.0
H117 H 0.97076 0.40137 0.68066 0.0
C118 C 0.98911 0.40761 0.72094 0.0
C119 C 0.84172 0.33459 0.01139 0.0
H120 H 0.82386 0.33265 0.06567 0.0
H121 H 0.84473 0.3167 0.95898 0.0
H122 H 0.85821 0.33743 0.07415 0.0
O123 O 0.9004 0.33028 0.94449 0.0
O124 O 0.94234 0.33317 0.95246 0.0
C125 C 0.91853 0.38184 0.13706 0.0
O126 O 0.94215 0.36434 0.71003 0.0
O127 O 0.90045 0.36006 0.70952 0.0
Zn128 Zn 0.36759 0.39172 0.20286 0.0
O129 O 0.37603 0.39388 0.38751 0.0
C130 C 0.31936 0.41982 0.27162 0.0
Zn131 Zn 0.37299 0.43453 0.1995 0.0
C132 C 0.38044 0.41451 0.44438 0.0
O133 O 0.38201 0.43546 0.38581 0.0
C134 C 0.35983 0.41178 0.95822 0.0
O135 O 0.41237 0.42788 0.15021 0.0
O136 O 0.40617 0.38653 0.15764 0.0
N137 N 0.37967 0.47377 0.18303 0.0
C138 C 0.38981 0.48775 0.08986 0.0
C139 C 0.38353 0.51325 0.239 0.0
N140 N 0.3759 0.48976 0.27559 0.0
N141 N 0.39234 0.51247 0.12268 0.0
C142 C 0.35509 0.33294 0.15293 0.0
C143 C 0.37336 0.31614 0.30825 0.0
N144 N 0.36445 0.35228 0.22205 0.0
N145 N 0.37569 0.34164 0.31843 0.0
N146 N 0.36064 0.31 0.20474 0.0
H147 H 0.32737 0.35416 0.04923 0.0
H148 H 0.32659 0.32008 0.02329 0.0
H149 H 0.35208 0.33923 0.95935 0.0
C150 C 0.33925 0.33675 0.03974 0.0
C151 C 0.39866 0.4773 -0.03111 0.0
H152 H 0.41582 0.48783 0.93651 0.0
H153 H 0.38337 0.48019 0.8998 0.0
H154 H 0.40324 0.45675 -0.02546 0.0
O155 O 0.36315 0.43262 0.01532 0.0
O156 O 0.35961 0.39076 0.01652 0.0
C157 C 0.42088 0.40532 0.13622 0.0
O158 O 0.32865 0.39772 0.2504 0.0
O159 O 0.33324 0.43958 0.25253 0.0
Zn160 Zn 0.44584 0.6532 0.7943 0.0
O161 O 0.44219 0.61373 0.85546 0.0
C162 C 0.42537 0.66527 0.0334 0.0
Zn163 Zn 0.40333 0.65594 0.78694 0.0
C164 C 0.42021 0.60339 0.85955 0.0
O165 O 0.40103 0.61641 0.82725 0.0
C166 C 0.4278 0.7059 0.71463 0.0
O167 O 0.40226 0.64853 0.60279 0.0
O168 O 0.44398 0.64281 0.60875 0.0
N169 N 0.36423 0.65602 0.80034 0.0
C170 C 0.34435 0.67073 0.76524 0.0
C171 C 0.329 0.63923 0.86594 0.0
N172 N 0.35447 0.6366 0.86305 0.0
N173 N 0.32208 0.66048 0.80539 0.0
C174 C 0.50112 0.63943 0.88174 0.0
C175 C 0.5234 0.64466 0.71963 0.0
N176 N 0.48518 0.6484 0.7937 0.0
N177 N 0.49913 0.65152 0.69295 0.0
N178 N 0.52507 0.63696 0.83758 0.0
H179 H 0.50522 0.61551 0.042 0.0
H180 H 0.49683 0.64803 0.07199 0.0
H181 H 0.47305 0.62617 0.01467 0.0
C182 C 0.49338 0.63172 0.00935 0.0
C183 C 0.34679 0.69425 0.68809 0.0
H184 H 0.36242 0.69186 0.62013 0.0
H185 H 0.32862 0.69846 0.63946 0.0
H186 H 0.35159 0.71061 0.74854 0.0
O187 O 0.40632 0.69565 0.74162 0.0
O188 O 0.44827 0.69296 0.73115 0.0
C189 C 0.42324 0.64427 0.54802 0.0
O190 O 0.4466 0.66433 -0.02256 0.0
O191 O 0.40472 0.66325 -0.0266 0.0
Zn192 Zn 0.6717 0.63228 0.14027 0.0
O193 O 0.66412 0.63281 0.3245 0.0
C194 C 0.72205 0.61078 0.21261 0.0
Zn195 Zn 0.66984 0.5893 0.13575 0.0
C196 C 0.66067 0.61178 0.38059 0.0
O197 O 0.65994 0.59084 0.32126 0.0
C198 C 0.68111 0.61003 0.89543 0.0
O199 O 0.63021 0.5905 0.07946 0.0
O200 O 0.63235 0.6319 0.10085 0.0
N201 N 0.6683 0.54934 0.13616 0.0
C202 C 0.65531 0.5326 0.06422 0.0
C203 C 0.6769 0.51068 0.1921 0.0
N204 N 0.68164 0.53555 0.21551 0.0
N205 N 0.66024 0.50819 0.09808 0.0
C206 C 0.68177 0.69289 0.16262 0.0
C207 C 0.65017 0.70521 0.05382 0.0
N208 N 0.66932 0.67167 0.1245 0.0
N209 N 0.64985 0.67962 0.05662 0.0
N210 N 0.66999 0.71418 0.11949 0.0
H211 H 0.70332 0.67629 0.31038 0.0
H212 H 0.7062 0.71078 0.29719 0.0
H213 H 0.72205 0.69017 0.18869 0.0
C214 C 0.7046 0.69261 0.24538 0.0
C215 C 0.63893 0.54002 0.95674 0.0
H216 H 0.61878 0.54153 -0.01237 0.0
H217 H 0.63996 0.52538 0.88331 0.0
H218 H 0.64477 0.55864 0.91796 0.0
O219 O 0.68019 0.58895 0.95265 0.0
O220 O 0.67917 0.63084 0.95397 0.0
C221 C 0.61951 0.61223 0.07387 0.0
O222 O 0.71122 0.6319 0.18554 0.0
O223 O 0.70982 0.58986 0.19566 0.0
Zn224 Zn 0.63386 0.35622 0.83102 0.0
O225 O 0.63649 0.36446 0.64507 0.0
C226 C 0.60141 0.31216 0.74856 0.0
Zn227 Zn 0.59264 0.36639 0.8299 0.0
C228 C 0.61652 0.37146 0.58755 0.0
O229 O 0.59597 0.37586 0.64596 0.0
C230 C 0.61005 0.35058 0.07331 0.0
O231 O 0.60379 0.4051 0.88495 0.0
O232 O 0.64415 0.39387 0.881 0.0
N233 N 0.55447 0.37597 0.82902 0.0
C234 C 0.53936 0.38789 0.9119 0.0
C235 C 0.51501 0.37276 0.77288 0.0
N236 N 0.53924 0.36683 0.74223 0.0
N237 N 0.51457 0.38613 0.87855 0.0
C238 C 0.69331 0.35607 0.8256 0.0
C239 C 0.70129 0.31936 0.90146 0.0
N240 N 0.67077 0.34416 0.84217 0.0
N241 N 0.67578 0.32131 0.8886 0.0
N242 N 0.71276 0.34102 0.86377 0.0
H243 H 0.69619 0.39673 0.83712 0.0
H244 H 0.71439 0.38285 0.71383 0.0
H245 H 0.67995 0.38544 0.70243 0.0
C246 C 0.69614 0.38171 0.76562 0.0
C247 C 0.54833 0.39946 0.03025 0.0
H248 H 0.54211 0.41968 0.03445 0.0
H249 H 0.53919 0.38933 0.10851 0.0
H250 H 0.56932 0.39876 0.0401 0.0
O251 O 0.58985 0.35633 0.01527 0.0
O252 O 0.63081 0.34791 0.01524 0.0
C253 C 0.62731 0.41084 0.9009 0.0
O254 O 0.62376 0.31913 0.77911 0.0
O255 O 0.58289 0.3275 0.76737 0.0
Zn256 Zn 0.86675 0.63893 0.55946 0.0
O257 O 0.87469 0.64053 0.37431 0.0
C258 C 0.81848 0.61412 0.48575 0.0
Zn259 Zn 0.87271 0.59668 0.56025 0.0
C260 C 0.87966 0.61991 0.31734 0.0
O261 O 0.88197 0.59895 0.37576 0.0
C262 C 0.85963 0.61557 0.80269 0.0
O263 O 0.91244 0.601 0.6148 0.0
O264 O 0.90578 0.642 0.60219 0.0
N265 N 0.87505 0.55713 0.56349 0.0
C266 C 0.89383 0.5402 0.58999 0.0
C267 C 0.85879 0.5195 0.58592 0.0
N268 N 0.85339 0.54405 0.56049 0.0
N269 N 0.88402 0.51647 0.60635 0.0
C270 C 0.85393 0.69851 0.53228 0.0
C271 C 0.87561 0.71102 0.68717 0.0
N272 N 0.86548 0.67775 0.58081 0.0
N273 N 0.87897 0.68579 0.67628 0.0
N274 N 0.85992 0.71966 0.59849 0.0
H275 H 0.82999 0.6779 0.40466 0.0
H276 H 0.84639 0.70491 0.34182 0.0
H277 H 0.81934 0.71001 0.44102 0.0
C278 C 0.8362 0.69768 0.42431 0.0
C279 C 0.92175 0.54652 0.59125 0.0
H280 H 0.92618 0.56045 0.5173 0.0
H281 H 0.93351 0.52921 0.5763 0.0
H282 H 0.92685 0.55496 0.68152 0.0
O283 O 0.86335 0.59497 0.74484 0.0
O284 O 0.85882 0.63648 0.74465 0.0
C285 C 0.92081 0.62371 0.62515 0.0
O286 O 0.82762 0.6359 0.51349 0.0
O287 O 0.8324 0.59433 0.50182 0.0
Zn288 Zn 0.62929 0.17347 0.37027 0.0
O289 O 0.63142 0.16576 0.55557 0.0
C290 C 0.59808 0.22013 0.44641 0.0
Zn291 Zn 0.5868 0.16721 0.36713 0.0
C292 C 0.61077 0.1603 0.61142 0.0
O293 O 0.59006 0.15748 0.55165 0.0
C294 C 0.60577 0.18099 0.12584 0.0
O295 O 0.5963 0.12879 0.31076 0.0
O296 O 0.63775 0.13495 0.32513 0.0
N297 N 0.54823 0.15716 0.3683 0.0
C298 C 0.53298 0.14688 0.28071 0.0
C299 C 0.51041 0.15046 0.44265 0.0
N300 N 0.53409 0.15923 0.46894 0.0
N301 N 0.50927 0.14257 0.32501 0.0
C302 C 0.68981 0.17248 0.36794 0.0
C303 C 0.69776 0.21102 0.31727 0.0
N304 N 0.66716 0.18467 0.36006 0.0
N305 N 0.67226 0.20861 0.32896 0.0
N306 N 0.70936 0.18859 0.34025 0.0
H307 H 0.69113 0.13253 0.32901 0.0
H308 H 0.71134 0.14234 0.45504 0.0
H309 H 0.67703 0.14037 0.47498 0.0
C310 C 0.69257 0.14537 0.40977 0.0
C311 C 0.5413 0.13992 0.15335 0.0
H312 H 0.5309 0.12267 0.12135 0.0
H313 H 0.53635 0.15582 0.09043 0.0
H314 H 0.56209 0.13631 0.14884 0.0
O315 O 0.58477 0.1777 0.18225 0.0
O316 O 0.62657 0.18113 0.18532 0.0
C317 C 0.61902 0.12026 0.30089 0.0
O318 O 0.62 0.21139 0.41859 0.0
O319 O 0.5785 0.206 0.42925 0.0
Zn320 Zn 0.16642 0.44343 0.58896 0.0
O321 O 0.12592 0.44026 0.64071 0.0
C322 C 0.17872 0.42403 0.83124 0.0
Zn323 Zn 0.17141 0.40112 0.58831 0.0
C324 C 0.11758 0.41745 0.64944 0.0
O325 O 0.1327 0.3993 0.6265 0.0
C326 C 0.22041 0.42406 0.52018 0.0
O327 O 0.16413 0.39973 0.40309 0.0
O328 O 0.15738 0.44127 0.4044 0.0
N329 N 0.17111 0.36233 0.6058 0.0
C330 C 0.18247 0.34203 0.55292 0.0
C331 C 0.15619 0.32767 0.68651 0.0
N332 N 0.15496 0.35323 0.68902 0.0
N333 N 0.17328 0.32013 0.60201 0.0
C334 C 0.15122 0.50011 0.6541 0.0
C335 C 0.17329 0.52127 0.52471 0.0
N336 N 0.16399 0.48299 0.58393 0.0
N337 N 0.17759 0.49629 0.50345 0.0
N338 N 0.15669 0.5243 0.61843 0.0
H339 H 0.1143 0.49296 0.73069 0.0
H340 H 0.13651 0.50752 0.83576 0.0
H341 H 0.13921 0.4741 0.79805 0.0
C342 C 0.13454 0.4932 0.76128 0.0
C343 C 0.20165 0.34364 0.45121 0.0
H344 H 0.20008 0.36211 0.4018 0.0
H345 H 0.19898 0.32756 0.38603 0.0
H346 H 0.22112 0.34211 0.49105 0.0
O347 O 0.21024 0.40271 0.54743 0.0
O348 O 0.20722 0.4445 0.53289 0.0
C349 C 0.15944 0.42038 0.34603 0.0
O350 O 0.17591 0.44485 0.77337 0.0
O351 O 0.17862 0.40309 0.77347 0.0
Zn352 Zn 0.39635 0.85069 0.3728 0.0
O353 O 0.39452 0.8592 0.55811 0.0
C354 C 0.42562 0.80376 0.45036 0.0
Zn355 Zn 0.43884 0.8582 0.37287 0.0
C356 C 0.41504 0.86456 0.61545 0.0
O357 O 0.43597 0.8672 0.55726 0.0
C358 C 0.42007 0.84407 0.1303 0.0
O359 O 0.43071 0.89783 0.31996 0.0
O360 O 0.3896 0.8892 0.32238 0.0
N361 N 0.4783 0.86517 0.37442 0.0
C362 C 0.4943 0.8788 0.30095 0.0
C363 C 0.51744 0.85926 0.43156 0.0
N364 N 0.49288 0.85321 0.45563 0.0
N365 N 0.51903 0.8754 0.33504 0.0
C366 C 0.33608 0.85539 0.37637 0.0
C367 C 0.32525 0.81839 0.31375 0.0
N368 N 0.3578 0.8418 0.36237 0.0
N369 N 0.35091 0.8188 0.32396 0.0
N370 N 0.31535 0.84119 0.34513 0.0
H371 H 0.33596 0.89584 0.35141 0.0
H372 H 0.31733 0.88491 0.48032 0.0
H373 H 0.35195 0.88529 0.48867 0.0
C374 C 0.33527 0.88186 0.42789 0.0
C375 C 0.48585 0.89426 0.19231 0.0
H376 H 0.48534 0.9147 0.2187 0.0
H377 H 0.49959 0.8921 0.11526 0.0
H378 H 0.46651 0.88865 0.16137 0.0
O379 O 0.44062 0.84876 0.188 0.0
O380 O 0.39915 0.84228 0.18833 0.0
C381 C 0.40764 0.90508 0.3034 0.0
O382 O 0.40359 0.81249 0.42481 0.0
O383 O 0.44509 0.81807 0.43147 0.0
Zn384 Zn 0.86221 0.94597 0.60481 0.0
O385 O 0.90054 0.9346 0.54806 0.0
C386 C 0.84648 0.92887 0.36215 0.0
Zn387 Zn 0.85248 0.90441 0.60538 0.0
C388 C 0.90662 0.91121 0.53355 0.0
O389 O 0.88994 0.89411 0.55484 0.0
C390 C 0.80832 0.93682 0.68979 0.0
O391 O 0.86061 0.90118 0.79131 0.0
O392 O 0.87175 0.94177 0.78844 0.0
N393 N 0.84035 0.86742 0.59035 0.0
C394 C 0.8499 0.84473 0.62628 0.0
C395 C 0.8179 0.83702 0.51025 0.0
N396 N 0.82038 0.86253 0.51903 0.0
N397 N 0.83617 0.82542 0.57687 0.0
C398 C 0.88536 0.99884 0.52307 0.0
C399 C 0.88222 0.0212 0.68564 0.0
N400 N 0.8741 0.98391 0.60927 0.0
N401 N 0.87235 0.9979 0.7104 0.0
N402 N 0.89058 0.02224 0.56859 0.0
H403 H 0.91023 1.00009 0.36557 0.0
H404 H 0.87695 0.99608 0.3321 0.0
H405 H 0.89513 0.96951 0.39112 0.0
C406 C 0.89242 0.99041 0.39602 0.0
C407 C 0.87358 0.84148 0.70217 0.0
H408 H 0.88395 0.85976 0.71369 0.0
H409 H 0.88632 0.82714 0.65899 0.0
H410 H 0.8682 0.83428 0.79461 0.0
O411 O 0.81547 0.9146 0.65838 0.0
O412 O 0.82333 0.9557 0.66995 0.0
C413 C 0.86745 0.9213 0.84785 0.0
O414 O 0.85195 0.94931 0.41899 0.0
O415 O 0.8443 0.90821 0.42141 0.0
Zn416 Zn 0.89836 0.17038 0.2854 0.0
O417 O 0.89836 0.16322 0.10138 0.0
C418 C 0.92065 0.2208 0.21874 0.0
Zn419 Zn 0.94135 0.16792 0.29001 0.0
C420 C 0.91932 0.15962 0.04524 0.0
O421 O 0.94031 0.15875 0.10428 0.0
C422 C 0.92014 0.17886 0.53014 0.0
O423 O 0.94018 0.12798 0.3423 0.0
O424 O 0.89874 0.13079 0.32299 0.0
N425 N 0.98113 0.16704 0.29198 0.0
C426 C 0.99792 0.15435 0.36465 0.0
C427 C 0.01977 0.17727 0.24147 0.0
N428 N 0.99486 0.18122 0.21556 0.0
N429 N 0.0223 0.16034 0.33427 0.0
C430 C 0.83769 0.18173 0.27035 0.0
C431 C 0.82474 0.14624 0.34416 0.0
N432 N 0.85872 0.1676 0.29521 0.0
N433 N 0.85034 0.1457 0.34121 0.0
N434 N 0.81613 0.16862 0.30037 0.0
H435 H 0.81964 0.21264 0.17129 0.0
H436 H 0.84384 0.22194 0.28136 0.0
H437 H 0.85322 0.20781 0.13796 0.0
C438 C 0.83846 0.20752 0.21127 0.0
C439 C 0.9905 0.13727 0.46971 0.0
H440 H 0.98962 0.11726 0.43659 0.0
H441 H 1.00484 0.13835 0.5447 0.0
H442 H 0.97157 0.14235 0.50723 0.0
O443 O 0.94119 0.17754 0.47303 0.0
O444 O 0.8992 0.1774 0.47178 0.0
C445 C 0.91826 0.11753 0.34743 0.0
O446 O 0.89915 0.21022 0.24243 0.0
O447 O 0.94119 0.20801 0.23496 0.0
Zn448 Zn 0.17387 0.13514 0.60581 0.0
O449 O 0.16622 0.13799 0.7916 0.0
C450 C 0.21785 0.10136 0.68312 0.0
Zn451 Zn 0.16358 0.09379 0.60534 0.0
C452 C 0.15911 0.11797 0.84828 0.0
O453 O 0.15458 0.09757 0.78927 0.0
C454 C 0.17904 0.1112 0.36283 0.0
O455 O 0.12539 0.10601 0.55159 0.0
O456 O 0.13644 0.14639 0.55812 0.0
N457 N 0.15115 0.05623 0.60913 0.0
C458 C 0.13967 0.04161 0.52285 0.0
C459 C 0.14308 0.01881 0.68431 0.0
N460 N 0.15308 0.042 0.70962 0.0
N461 N 0.13447 0.01813 0.56767 0.0
C462 C 0.17597 0.19466 0.61459 0.0
C463 C 0.21267 0.20181 0.53629 0.0
N464 N 0.18695 0.17184 0.594 0.0
N465 N 0.20978 0.17634 0.54581 0.0
N466 N 0.19163 0.21382 0.57761 0.0
H467 H 0.13537 0.19907 0.60651 0.0
H468 H 0.1504 0.21569 0.73235 0.0
H469 H 0.14642 0.18139 0.7374 0.0
C470 C 0.15064 0.19791 0.67699 0.0
C471 C 0.13248 0.05037 0.39633 0.0
H472 H 0.1147 0.04069 0.36561 0.0
H473 H 0.14794 0.04502 0.33183 0.0
H474 H 0.12964 0.07128 0.3927 0.0
O475 O 0.1733 0.09081 0.41973 0.0
O476 O 0.18161 0.13183 0.42177 0.0
C477 C 0.11954 0.12947 0.5374 0.0
O478 O 0.21081 0.12382 0.65515 0.0
O479 O 0.20228 0.0829 0.66537 0.0
Zn480 Zn 0.08486 0.87273 0.28763 0.0
O481 O 0.08642 0.91248 0.33945 0.0
C482 C 0.10594 0.86192 0.52826 0.0
Zn483 Zn 0.12792 0.87059 0.28376 0.0
C484 C 0.10826 0.92308 0.34452 0.0
O485 O 0.12796 0.91004 0.32042 0.0
C486 C 0.10529 0.8203 0.21705 0.0
O487 O 0.12805 0.87768 0.09933 0.0
O488 O 0.08607 0.88199 0.10204 0.0
N489 N 0.16769 0.87247 0.29431 0.0
C490 C 0.1881 0.85726 0.27257 0.0
C491 C 0.20249 0.89224 0.34505 0.0
N492 N 0.17694 0.89409 0.33927 0.0
N493 N 0.21018 0.86929 0.30423 0.0
C494 C 0.0283 0.88668 0.36112 0.0
C495 C 1.00644 0.86372 0.2385 0.0
N496 N 0.04508 0.87391 0.289 0.0
N497 N 0.03135 0.85971 0.2129 0.0
N498 N 1.00391 0.8807 0.33074 0.0
H499 H 0.03674 0.92378 0.43186 0.0
H500 H 0.02128 0.90288 0.54039 0.0
H501 H 0.05458 0.89862 0.5038 0.0
C502 C 0.03571 0.90381 0.46572 0.0
C503 C 0.1863 0.83154 0.21373 0.0
H504 H 0.172 0.8321 0.13844 0.0
H505 H 0.205 0.82545 0.17581 0.0
H506 H 0.17981 0.81742 0.28326 0.0
O507 O 0.12663 0.831 0.24203 0.0
O508 O 0.08461 0.83284 0.23247 0.0
C509 C 0.10707 0.88118 0.04307 0.0
O510 O 0.08487 0.86303 0.47102 0.0
O511 O 0.12687 0.86361 0.46999 0.0
C512 C 0.37633 0.93621 0.21369 0.0
C513 C 0.40133 0.93108 0.25468 0.0
H514 H 0.35066 0.96277 0.12913 0.0
C515 C 0.41984 0.95056 0.24295 0.0
H516 H 0.36157 0.92176 0.21904 0.0
C517 C 0.41339 0.97442 0.19095 0.0
C518 C 0.38838 0.97919 0.14873 0.0
H519 H 0.43934 0.94726 0.27241 0.0
H520 H 0.42813 0.98876 0.18011 0.0
C521 C 0.37003 0.95976 0.16121 0.0
C522 C 0.95287 0.65517 0.70277 0.0
C523 C 0.94682 0.62968 0.67312 0.0
H524 H 0.98001 0.68113 0.78101 0.0
C525 C 0.96521 0.61066 0.69638 0.0
H526 H 0.9393 0.67041 0.68681 0.0
C527 C 0.9889 0.61708 0.74984 0.0
C528 C 0.99437 0.64253 0.78202 0.0
H529 H 0.96118 0.59088 0.67507 0.0
H530 H 1.00257 0.60215 0.76962 0.0
C531 C 0.97618 0.66141 0.75723 0.0
C532 C 0.65128 0.05675 0.23343 0.0
C533 C 0.6337 0.04527 0.15312 0.0
H534 H 0.66062 0.08968 0.34214 0.0
C535 C 0.61089 0.05807 0.12526 0.0
H536 H 0.66907 0.0472 0.25508 0.0
C537 C 0.60571 0.08203 0.1769 0.0
C538 C 0.62363 0.09397 0.25465 0.0
H539 H 0.5972 0.04953 0.06291 0.0
H540 H 0.58805 0.09157 0.15274 0.0
C541 C 0.64645 0.08101 0.28261 0.0
C542 C 0.06266 0.37719 0.76724 0.0
C543 C 0.04465 0.39537 0.80306 0.0
H544 H 0.09898 0.36979 0.68827 0.0
C545 C 0.05001 0.42144 0.78332 0.0
H546 H 0.05886 0.35704 0.78086 0.0
C547 C 0.07346 0.4291 0.73085 0.0
C548 C 0.09164 0.4107 0.69602 0.0
H549 H 0.03635 0.43581 0.81126 0.0
H550 H 0.07749 0.44925 0.71946 0.0
C551 C 0.08564 0.38467 0.71356 0.0
C552 C 0.38846 0.5405 0.94098 0.0
C553 C 0.40115 0.53382 0.05005 0.0
H554 H 0.3846 0.56785 0.795 0.0
C555 C 0.4218 0.54891 0.0898 0.0
H556 H 0.37238 0.52925 0.90931 0.0
C557 C 0.42937 0.57057 0.02248 0.0
C558 C 0.41591 0.57791 0.91615 0.0
H559 H 0.4318 0.54407 0.17383 0.0
H560 H 0.4448 0.58233 0.05733 0.0
C561 C 0.39553 0.5625 0.87565 0.0
C562 C 0.57842 0.63608 0.06664 0.0
C563 C 0.59346 0.6157 0.02407 0.0
H564 H 0.54468 0.65866 0.04009 0.0
C565 C 0.58503 0.60162 0.92179 0.0
H566 H 0.58463 0.64745 0.14432 0.0
C567 C 0.56248 0.60856 0.86029 0.0
C568 C 0.54777 0.62921 0.90212 0.0
H569 H 0.59652 0.58617 0.88562 0.0
H570 H 0.55658 0.59801 0.77952 0.0
C571 C 0.55568 0.64258 0.00704 0.0
C572 C 0.669 0.4641 0.0303 0.0
C573 C 0.65167 0.4843 0.04487 0.0
H574 H 0.67507 0.42557 -0.0262 0.0
C575 C 0.62594 0.48024 0.01147 0.0
H576 H 0.68885 0.46654 0.05605 0.0
C577 C 0.61789 0.45657 0.96353 0.0
C578 C 0.6354 0.43644 0.94792 0.0
H579 H 0.61193 0.49513 0.02497 0.0
H580 H 0.59795 0.454 0.93976 0.0
C581 C 0.66104 0.44062 -0.01782 0.0
C582 C 0.46304 0.42087 0.05088 0.0
C583 C 0.44648 0.40062 0.08177 0.0
H584 H 0.49807 0.43199 0.96111 0.0
C585 C 0.45353 0.37559 0.04949 0.0
H586 H 0.4581 0.44038 0.07349 0.0
C587 C 0.47601 0.371 -0.01579 0.0
C588 C 0.49221 0.3912 0.95123 0.0
H589 H 0.44128 0.3595 0.07119 0.0
H590 H 0.48073 0.35162 0.95821 0.0
C591 C 0.48584 0.41615 -0.01334 0.0
C592 C 0.89337 0.44679 0.66348 0.0
C593 C 0.91145 0.44662 0.75904 0.0
H594 H 0.8712 0.46909 0.53797 0.0
C595 C 0.92257 0.46979 0.79589 0.0
H596 H 0.88466 0.42915 0.63235 0.0
C597 C 0.91443 0.49292 0.74261 0.0
C598 C 0.89563 0.49307 0.64934 0.0
H599 H 0.93638 0.47014 0.87008 0.0
H600 H 0.92187 0.51064 0.77899 0.0
C601 C 0.88569 0.46964 0.60909 0.0
C602 C 0.47399 0.11157 0.29845 0.0
C603 C 0.48685 0.1338 0.26066 0.0
H604 H 0.44146 0.08699 0.27229 0.0
C605 C 0.47694 0.14807 0.16244 0.0
H606 H 0.48136 0.10037 0.3743 0.0
C607 C 0.45402 0.14081 0.10586 0.0
C608 C 0.44087 0.11873 0.14423 0.0
H609 H 0.48651 0.16536 0.1327 0.0
H610 H 0.4463 0.15275 0.0334 0.0
C611 C 0.45136 0.10386 0.23951 0.0
C612 C 0.11715 0.57773 0.7534 0.0
C613 C 0.13566 0.59709 0.76699 0.0
H614 H 0.10922 0.53935 0.69413 0.0
C615 C 0.16101 0.59173 0.73221 0.0
H616 H 0.0974 0.58125 0.77779 0.0
C617 C 0.1677 0.56786 0.68508 0.0
C618 C 0.14936 0.54848 0.67192 0.0
H619 H 0.17576 0.60616 0.73908 0.0
H620 H 0.18737 0.56451 0.65862 0.0
C621 C 0.12394 0.55365 0.70639 0.0
C622 C 0.57043 0.91733 0.19414 0.0
C623 C 0.59079 0.89991 0.18163 0.0
H624 H 0.53154 0.92327 0.25274 0.0
C625 C 0.58656 0.87437 0.21707 0.0
H626 H 0.57299 0.93717 0.1687 0.0
C627 C 0.56298 0.86653 0.26496 0.0
C628 C 0.54265 0.88381 0.27787 0.0
H629 H 0.60168 0.86038 0.21038 0.0
H630 H 0.56062 0.8468 0.29269 0.0
C631 C 0.54659 0.90934 0.24135 0.0
C632 C 0.92057 0.05871 0.55067 0.0
C633 C 0.89976 0.0446 0.50487 0.0
H634 H 0.94357 0.09265 0.53311 0.0
C635 C 0.88691 0.05348 0.40007 0.0
H636 H 0.93064 0.0522 0.63184 0.0
C637 C 0.89398 0.07657 0.34497 0.0
C638 C 0.91441 0.09107 0.39195 0.0
H639 H 0.87058 0.04314 0.36443 0.0
H640 H 0.88289 0.08355 0.26774 0.0
C641 C 0.92809 0.08163 0.49357 0.0
C642 C 0.0745 0.1191 0.46848 0.0
C643 C 0.0939 0.13721 0.49048 0.0
H644 H 0.03657 0.11219 0.39995 0.0
C645 C 0.089 0.16296 0.46154 0.0
H646 H 0.07766 0.09908 0.48821 0.0
C647 C 0.06552 0.17038 0.41131 0.0
C648 C 0.04613 0.15238 0.38975 0.0
H649 H 0.10348 0.17745 0.47572 0.0
H650 H 0.06245 0.19032 0.38932 0.0
C651 C 0.05087 0.12662 0.41865 0.0
C652 C 0.09773 0.95863 0.49011 0.0
C653 C 0.11175 0.94948 0.38915 0.0
H654 H 0.09457 0.98783 0.62856 0.0
C655 C 0.13207 0.96425 0.34299 0.0
H656 H 0.0823 0.94737 0.52885 0.0
C657 C 0.13874 0.98734 0.39859 0.0
C658 C 0.12557 0.9959 0.50292 0.0
H659 H 0.14337 0.95749 0.26618 0.0
H660 H 0.15502 0.99791 0.36389 0.0
C661 C 0.10485 0.98154 0.5477 0.0
C662 C 0.96094 0.87049 0.4103 0.0
C663 C 0.9801 0.88862 0.38623 0.0
H664 H 0.9232 0.86322 0.47728 0.0
C665 C 0.97513 0.91443 0.4127 0.0
H666 H 0.96423 0.85051 0.39044 0.0
C667 C 0.95147 0.92189 0.46219 0.0
C668 C 0.93229 0.90366 0.48649 0.0
H669 H 0.98931 0.92891 0.39237 0.0
H670 H 0.94809 0.94195 0.47994 0.0
C671 C 0.93746 0.87784 0.46049 0.0
C672 C 0.35882 0.2523 -0.00147 0.0
C673 C 0.35415 0.23261 0.08371 0.0
H674 H 0.36515 0.29236 -0.02986 0.0
C675 C 0.35014 0.239 0.20747 0.0
H676 H 0.36173 0.24782 0.90235 0.0
C677 C 0.35163 0.26448 0.24597 0.0
C678 C 0.35672 0.28421 0.16133 0.0
H679 H 0.34559 0.2243 0.27413 0.0
H680 H 0.34882 0.26883 0.34235 0.0
C681 C 0.36036 0.27781 0.03702 0.0
C682 C 0.28962 0.69403 0.83446 0.0
C683 C 0.29623 0.66931 0.79672 0.0
H684 H 0.25906 0.7197 0.87974 0.0
C685 C 0.27681 0.6518 0.76805 0.0
H686 H 0.30432 0.70765 0.85924 0.0
C687 C 0.25119 0.65853 0.78029 0.0
C688 C 0.24445 0.68276 0.82429 0.0
H689 H 0.28159 0.63266 0.73849 0.0
H690 H 0.2367 0.64476 0.75519 0.0
C691 C 0.26386 0.70074 0.8477 0.0
C692 C 0.66001 0.78452 0.1484 0.0
C693 C 0.68392 0.79425 0.11271 0.0
H694 H 0.63707 0.75119 0.17971 0.0
C695 C 0.70412 0.77695 0.09285 0.0
H696 H 0.64442 0.79718 0.17094 0.0
C697 C 0.7001 0.75051 0.1021 0.0
C698 C 0.67582 0.74091 0.13192 0.0
H699 H 0.72288 0.78391 0.06711 0.0
H700 H 0.71558 0.73758 0.08057 0.0
C701 C 0.65595 0.7582 0.15631 0.0
C702 C 0.78403 0.3337 0.86138 0.0
C703 C 0.79184 0.35838 0.89424 0.0
H704 H 0.75219 0.309 0.82345 0.0
C705 C 0.77342 0.37676 0.92388 0.0
H706 H 0.79803 0.31943 0.83635 0.0
C707 C 0.7475 0.37091 0.91671 0.0
C708 C 0.7395 0.34676 0.87624 0.0
H709 H 0.77923 0.39588 0.94971 0.0
H710 H 0.73376 0.38534 0.9423 0.0
C711 C 0.75796 0.32791 0.85262 0.0
C712 C 0.84846 0.75816 0.47666 0.0
C713 C 0.85141 0.74575 0.59037 0.0
H714 H 0.84112 0.79369 0.38409 0.0
C715 C 0.8484 0.75998 0.69923 0.0
H716 H 0.85148 0.74809 0.39131 0.0
C717 C 0.84322 0.78606 0.69488 0.0
C718 C 0.84081 0.79847 0.58159 0.0
H719 H 0.85046 0.75091 0.78826 0.0
H720 H 0.84105 0.79655 0.77989 0.0
C721 C 0.84291 0.78429 0.47247 0.0
C722 C 0.77146 0.15692 0.259 0.0
C723 C 0.78946 0.17533 0.29621 0.0
H724 H 0.73199 0.14686 0.24072 0.0
C725 C 0.78067 0.19845 0.34552 0.0
H726 H 0.7778 0.13894 0.22076 0.0
C727 C 0.75437 0.20273 0.35994 0.0
C728 C 0.7364 0.18388 0.32657 0.0
H729 H 0.79412 0.21269 0.3776 0.0
H730 H 0.74803 0.22054 0.4 0.0
C731 C 0.74527 0.16123 0.27283 0.0
C732 C 0.15909 0.27718 0.54733 0.0
C733 C 0.17907 0.29403 0.57583 0.0
H734 H 0.14763 0.23849 0.51973 0.0
C735 C 0.20362 0.28436 0.59744 0.0
H736 H 0.14004 0.28444 0.53013 0.0
C737 C 0.20778 0.25797 0.5966 0.0
C738 C 0.18743 0.24097 0.57413 0.0
H739 H 0.21914 0.29713 0.62132 0.0
H740 H 0.22667 0.25076 0.61758 0.0
C741 C 0.16331 0.25092 0.54446 0.0
C742 C 0.28166 0.87198 0.28536 0.0
C743 C 0.28874 0.84818 0.33404 0.0
H744 H 0.25098 0.89705 0.23608 0.0
C745 C 0.26937 0.83052 0.36401 0.0
H746 H 0.296 0.88557 0.25614 0.0
C747 C 0.24347 0.83691 0.35007 0.0
C748 C 0.23647 0.86099 0.30413 0.0
H749 H 0.27431 0.81192 0.40048 0.0
H750 H 0.22898 0.82341 0.37907 0.0
C751 C 0.25587 0.87836 0.27162 0.0
C752 C 0.25324 0.12064 0.8049 0.0
C753 C 0.24235 0.09854 0.75307 0.0
H754 H 0.28293 0.13724 0.91155 0.0
C755 C 0.25437 0.07493 0.77618 0.0
H756 H 0.24449 0.13919 0.79222 0.0
C757 C 0.27723 0.07382 0.84593 0.0
C758 C 0.2881 0.09624 0.89591 0.0
H759 H 0.24636 0.05748 0.73916 0.0
H760 H 0.28654 0.05557 0.85904 0.0
C761 C 0.27543 0.11949 0.87532 0.0
C762 C 0.12889 0.76086 0.05387 0.0
C763 C 0.10618 0.74855 0.01684 0.0
H764 H 0.14638 0.79198 0.14785 0.0
C765 C 0.08273 0.7596 0.05127 0.0
H766 H 0.14742 0.75296 0.0312 0.0
C767 C 0.08218 0.78259 0.11903 0.0
C768 C 0.10507 0.79476 0.15555 0.0
H769 H 0.06487 0.75055 0.02583 0.0
H770 H 0.06386 0.79091 0.14191 0.0
C771 C 0.12834 0.78335 0.12246 0.0
C772 C 0.75802 0.91674 0.92109 0.0
C773 C 0.74126 0.93764 0.92682 0.0
H774 H 0.7914 0.90028 0.84316 0.0
C775 C 0.7475 0.95967 0.85756 0.0
H776 H 0.75423 0.89949 -0.02682 0.0
C777 C 0.76951 0.9602 0.78135 0.0
C778 C 0.78529 0.93852 0.77135 0.0
H779 H 0.73497 0.97609 0.85894 0.0
H780 H 0.77367 0.97713 0.72761 0.0
C781 C 0.7794 0.91712 0.84472 0.0
C782 C 0.89905 0.28221 0.06151 0.0
C783 C 0.92226 0.29434 0.03047 0.0
H784 H 0.8803 0.25038 0.14615 0.0
C785 C 0.94519 0.2823 0.06579 0.0
H786 H 0.88093 0.29079 0.03732 0.0
C787 C 0.9448 0.25876 0.12914 0.0
C788 C 0.92148 0.24675 0.16007 0.0
H789 H 0.96344 0.29108 0.04481 0.0
H790 H 0.96281 0.2499 0.15324 0.0
C791 C 0.89865 0.25895 0.12539 0.0
C792 C 0.28117 0.39944 0.37055 0.0
C793 C 0.29364 0.42181 0.33119 0.0
H794 H 0.2493 0.3827 0.46229 0.0
C795 C 0.2821 0.44549 0.35802 0.0
H796 H 0.28941 0.38083 0.3533 0.0
C797 C 0.25856 0.44659 0.42145 0.0
C798 C 0.24626 0.42405 0.46098 0.0
H799 H 0.29124 0.46315 0.33022 0.0
H800 H 0.24997 0.46503 0.43892 0.0
C801 C 0.25806 0.40055 0.43464 0.0
C802 C 0.40506 0.74318 0.61838 0.0
C803 C 0.42825 0.73151 0.65164 0.0
H804 H 0.38612 0.77401 0.52845 0.0
C805 C 0.45117 0.74372 0.61537 0.0
H806 H 0.38697 0.73457 0.64314 0.0
C807 C 0.45072 0.76695 0.54853 0.0
C808 C 0.42733 0.77834 0.5146 0.0
H809 H 0.46945 0.73528 0.63814 0.0
H810 H 0.46864 0.77596 0.5236 0.0
C811 C 0.4046 0.76595 0.55091 0.0
C812 C 0.75998 0.58838 0.31199 0.0
C813 C 0.74731 0.61107 0.27794 0.0
H814 H 0.79214 0.57134 0.40446 0.0
C815 C 0.75796 0.63442 0.31675 0.0
H816 H 0.75228 0.57 0.28514 0.0
C817 C 0.78038 0.63514 0.38723 0.0
C818 C 0.79322 0.61257 0.42074 0.0
H819 H 0.74878 0.65233 0.29414 0.0
H820 H 0.78779 0.65362 0.41419 0.0
C821 C 0.78272 0.58912 0.38172 0.0
C822 C 0.62003 0.25798 0.53693 0.0
C823 C 0.59697 0.24494 0.5147 0.0
H824 H 0.63939 0.28818 0.62798 0.0
C825 C 0.57451 0.25447 0.57009 0.0
H826 H 0.63782 0.25152 0.49667 0.0
C827 C 0.57539 0.27631 0.64681 0.0
C828 C 0.59886 0.28857 0.67179 0.0
H829 H 0.55641 0.24483 0.55606 0.0
H830 H 0.5579 0.2833 0.68783 0.0
C831 C 0.62099 0.27909 0.61437 0.0
C832 C 0.36179 0.08068 0.46919 0.0
C833 C 0.35694 0.10365 0.40657 0.0
H834 H 0.37233 0.06304 0.63869 0.0
C835 C 0.35934 0.12694 0.46893 0.0
H836 H 0.36037 0.06243 0.42296 0.0
C837 C 0.36677 0.12731 0.59135 0.0
C838 C 0.37164 0.10438 0.65402 0.0
H839 H 0.35604 0.14498 0.42268 0.0
H840 H 0.36816 0.14559 0.63747 0.0
C841 C 0.36919 0.08105 0.5919 0.0
C842 C 0.09388 0.67113 0.43778 0.0
C843 C 0.11517 0.68071 0.50115 0.0
H844 H 0.07928 0.65696 0.26821 0.0
C845 C 0.13864 0.68339 0.43966 0.0
H846 H 0.07565 0.66853 0.48334 0.0
C847 C 0.14088 0.67628 0.31724 0.0
C848 C 0.11963 0.66659 0.25395 0.0
H849 H 0.15548 0.69045 0.48674 0.0
H850 H 0.15912 0.67893 0.27169 0.0
C851 C 0.09613 0.664 0.31532 0.0
C852 C 0.66701 0.94556 0.51186 0.0
C853 C 0.67432 0.92391 0.44529 0.0
H854 H 0.65444 0.96046 0.68339 0.0
C855 C 0.67487 0.89999 0.50417 0.0
H856 H 0.66649 0.96419 0.46929 0.0
C857 C 0.66771 0.89772 0.62671 0.0
C858 C 0.66001 0.91935 0.69261 0.0
H859 H 0.6802 0.88283 0.45496 0.0
H860 H 0.66862 0.87911 0.67016 0.0
C861 C 0.65969 0.94329 0.6341 0.0
C862 C 0.89648 0.37203 0.33342 0.0
C863 C 0.91896 0.37875 0.27079 0.0
H864 H 0.8798 0.35986 0.50243 0.0
C865 C 0.94248 0.378 0.33297 0.0
H866 H 0.87812 0.37199 0.28727 0.0
C867 C 0.94353 0.37044 0.45537 0.0
C868 C 0.92104 0.36378 0.51807 0.0
H869 H 0.96021 0.38267 0.28649 0.0
H870 H 0.9619 0.37038 0.50136 0.0
C871 C 0.89752 0.36453 0.4559 0.0
C872 C 0.36842 0.43632 0.63737 0.0
C873 C 0.3775 0.41442 0.5778 0.0
H874 H 0.35374 0.45211 0.80376 0.0
C875 C 0.37894 0.39123 0.64226 0.0
H876 H 0.36634 0.45425 0.58852 0.0
C877 C 0.37152 0.38996 0.76475 0.0
C878 C 0.36255 0.41189 0.82456 0.0
H879 H 0.38549 0.37397 0.59746 0.0
H880 H 0.37359 0.37201 0.81335 0.0
C881 C 0.36077 0.43499 0.75962 0.0
C882 C 0.40157 0.65542 0.22454 0.0
C883 C 0.42465 0.66232 0.1672 0.0
H884 H 0.38324 0.64308 0.38949 0.0
C885 C 0.44742 0.66203 0.23516 0.0
H886 H 0.3837 0.65514 0.17416 0.0
C887 C 0.44724 0.65438 0.35765 0.0
C888 C 0.42418 0.64734 0.41456 0.0
H889 H 0.46541 0.66743 0.19352 0.0
H890 H 0.46504 0.65481 0.40861 0.0
C891 C 0.40135 0.64797 0.34709 0.0
C892 C 0.67438 0.58738 0.69785 0.0
C893 C 0.67821 0.61033 0.76178 0.0
H894 H 0.66462 0.56983 0.52739 0.0
C895 C 0.67481 0.63371 0.70073 0.0
H896 H 0.67656 0.56907 0.74307 0.0
C897 C 0.66744 0.63415 0.5782 0.0
C898 C 0.66357 0.61122 0.51422 0.0
H899 H 0.67727 0.65172 0.74816 0.0
H900 H 0.66532 0.65249 0.5331 0.0
C901 C 0.667 0.58782 0.57511 0.0
C902 C 0.59164 0.36952 0.39346 0.0
C903 C 0.61534 0.3682 0.45396 0.0
H904 H 0.57104 0.36352 0.22669 0.0
C905 C 0.63684 0.35931 0.39011 0.0
H906 H 0.57458 0.37579 0.44105 0.0
C907 C 0.63468 0.35186 0.26799 0.0
C908 C 0.61101 0.35335 0.20721 0.0
H909 H 0.65526 0.35762 0.43495 0.0
H910 H 0.65173 0.34554 0.2205 0.0
C911 C 0.58947 0.36201 0.27136 0.0
C912 C 0.87067 0.5942 -0.001 0.0
C913 C 0.86243 0.61611 0.93628 0.0
H914 H 0.88382 0.57846 0.16836 0.0
C915 C 0.86127 0.63955 -0.00161 0.0
H916 H 0.87219 0.57596 0.95271 0.0
C917 C 0.86847 0.64111 0.12096 0.0
C918 C 0.87675 0.61921 0.18375 0.0
H919 H 0.85531 0.65685 0.95174 0.0
H920 H 0.86698 0.65938 0.16701 0.0
C921 C 0.87788 0.59575 0.12169 0.0
C922 C 0.63201 0.16773 0.8119 0.0
C923 C 0.60953 0.16355 0.74481 0.0
H924 H 0.64843 0.17762 -0.01558 0.0
C925 C 0.58569 0.16703 0.80198 0.0
H926 H 0.65064 0.16566 0.76946 0.0
C927 C 0.5844 0.1746 0.92425 0.0
C928 C 0.60687 0.17833 -0.00804 0.0
H929 H 0.56799 0.16464 0.75153 0.0
H930 H 0.56582 0.17714 0.96598 0.0
C931 C 0.6307 0.17511 0.93431 0.0
C932 C 0.16899 0.39876 0.14942 0.0
C933 C 0.16225 0.42107 0.2126 0.0
H934 H 0.18074 0.38241 -0.02039 0.0
C935 C 0.16249 0.44464 0.15091 0.0
H936 H 0.16939 0.38037 0.19526 0.0
C937 C 0.16952 0.44588 0.02798 0.0
C938 C 0.17616 0.42354 0.96476 0.0
H939 H 0.15778 0.46222 0.19803 0.0
H940 H 0.16916 0.46425 -0.01796 0.0
C941 C 0.176 0.4 0.02661 0.0
C942 C 0.44119 0.85533 0.93332 0.0
C943 C 0.41934 0.84695 -0.00346 0.0
H944 H 0.4567 0.86873 0.76388 0.0
C945 C 0.39578 0.84579 0.93484 0.0
H946 H 0.45954 0.85678 -0.02101 0.0
C947 C 0.39403 0.85315 0.81238 0.0
C948 C 0.41586 0.86157 0.74917 0.0
H949 H 0.37852 0.83974 -0.01824 0.0
H950 H 0.37568 0.85166 0.7667 0.0
C951 C 0.43944 0.8627 0.81082 0.0
C952 C 0.85618 0.94919 0.16074 0.0
C953 C 0.84903 0.9275 0.22804 0.0
H954 H 0.86899 0.96406 -0.01093 0.0
C955 C 0.84885 0.90352 0.16996 0.0
H956 H 0.85633 0.96788 0.20259 0.0
C957 C 0.85631 0.90121 0.04779 0.0
C958 C 0.86399 0.92285 -0.0187 0.0
H959 H 0.84361 0.88634 0.21963 0.0
H960 H 0.85568 0.88254 0.0051 0.0
C961 C 0.86384 0.94687 0.03887 0.0
C962 C 0.89656 0.16541 0.84807 0.0
C963 C 0.91967 0.16222 0.91174 0.0
H964 H 0.87859 0.17439 0.67788 0.0
C965 C 0.94297 0.16591 0.85032 0.0
H966 H 0.8783 0.16299 0.89369 0.0
C967 C 0.94313 0.17295 0.7272 0.0
C968 C 0.92 0.17614 0.66362 0.0
H969 H 0.96107 0.16403 0.89787 0.0
H970 H 0.96138 0.17538 0.68149 0.0
C971 C 0.89672 0.17243 0.72515 0.0
C972 C 0.16878 0.13849 0.04814 0.0
C973 C 0.16225 0.11654 -0.01837 0.0
H974 H 0.18029 0.15387 0.2205 0.0
C975 C 0.16318 0.09253 0.03945 0.0
H976 H 0.1687 0.15717 0.00516 0.0
C977 C 0.17054 0.09053 0.16178 0.0
C978 C 0.1766 0.11251 0.22898 0.0
H979 H 0.15893 0.07516 -0.0105 0.0
H980 H 0.17111 0.07184 0.20396 0.0
C981 C 0.17594 0.13649 0.17073 0.0
C982 C 0.12945 0.86799 0.72317 0.0
C983 C 0.10611 0.8646 0.66172 0.0
H984 H 0.14802 0.87719 0.89149 0.0
C985 C 0.08304 0.86808 0.72529 0.0
H986 H 0.14754 0.86579 0.67592 0.0
C987 C 0.08331 0.87511 0.8483 0.0
C988 C 0.10667 0.87852 0.90962 0.0
H989 H 0.06476 0.8659 0.67963 0.0
H990 H 0.06524 0.87724 0.89583 0.0
C991 C 0.12972 0.87502 0.84597 0.0
loop_
_geom_bond_atom_site_label_1
_geom_bond_atom_site_label_2
_geom_bond_distance
_geom_bond_site_symmetry_2
_ccdc_geom_bond_type
Zn0 O1 2.055 1_554 S
Zn0 O8 2.046 . S
Zn0 N16 2.036 . S
Zn0 O28 2.053 . S
Zn0 O30 2.066 . S
O1 Zn0 2.055 1_556 S
O1 C4 1.259 . S
C2 O30 1.256 . S
C2 O31 1.244 . S
Zn3 O5 2.046 1_554 S
Zn3 O7 2.055 . S
Zn3 N9 2.036 . S
Zn3 O27 2.066 . S
Zn3 O31 2.053 . S
C4 O1 1.259 . S
C4 O5 1.254 . S
O5 Zn3 2.046 1_556 S
O5 C4 1.254 . S
C6 O27 1.256 . S
C6 O28 1.244 . S
O7 Zn3 2.055 . S
O7 C29 1.259 . S
O8 Zn0 2.046 . S
O8 C29 1.254 . S
N9 Zn3 2.036 . S
N9 C10 1.298 . S
N9 N12 1.398 . S
C10 N9 1.298 . S
C10 N13 1.367 1_545 S
C10 C23 1.481 . S
C11 N12 1.258 1_565 S
C11 N13 1.384 . S
N12 N9 1.398 . S
N12 C11 1.258 1_545 S
N13 C10 1.367 1_565 S
N13 C11 1.384 . S
C14 N16 1.298 . S
C14 N18 1.367 . S
C14 C22 1.481 1_554 S
C15 N17 1.299 . S
C15 N18 1.379 . S
N16 Zn0 2.036 . S
N16 C14 1.298 . S
N16 N17 1.398 . S
N17 C15 1.299 . S
N17 N16 1.398 . S
N18 C14 1.367 . S
N18 C15 1.379 . S
H19 C22 0.980 . S
H20 C22 0.981 . S
H21 C22 0.981 . S
C22 C14 1.481 1_556 S
C22 H19 0.980 . S
C22 H20 0.981 . S
C22 H21 0.981 . S
C23 C10 1.481 . S
C23 H24 0.980 . S
C23 H25 0.981 . S
C23 H26 0.981 . S
H24 C23 0.980 . S
H25 C23 0.981 . S
H26 C23 0.981 . S
O27 Zn3 2.066 . S
O27 C6 1.256 . S
O28 Zn0 2.053 . S
O28 C6 1.244 . S
C29 O7 1.259 . S
C29 O8 1.254 . S
O30 Zn0 2.066 . S
O30 C2 1.256 . S
O31 C2 1.244 . S
O31 Zn3 2.053 . S
Zn32 O33 2.055 1_556 S
Zn32 O40 2.046 . S
Zn32 N48 2.036 . S
Zn32 O60 2.053 . S
Zn32 O62 2.066 . S
O33 Zn32 2.055 1_554 S
O33 C36 1.259 . S
C34 O62 1.256 . S
C34 O63 1.244 . S
Zn35 O37 2.046 1_556 S
Zn35 O39 2.055 . S
Zn35 N41 2.036 . S
Zn35 O59 2.066 . S
Zn35 O63 2.053 . S
C36 O33 1.259 . S
C36 O37 1.254 . S
O37 Zn35 2.046 1_554 S
O37 C36 1.254 . S
C38 O59 1.256 . S
C38 O60 1.244 . S
O39 Zn35 2.055 . S
O39 C61 1.259 . S
O40 Zn32 2.046 . S
O40 C61 1.254 . S
N41 Zn35 2.036 . S
N41 C42 1.298 . S
N41 N44 1.398 . S
C42 N41 1.298 . S
C42 N45 1.367 1_455 S
C42 C55 1.481 . S
C43 N44 1.258 1_655 S
C43 N45 1.384 . S
N44 N41 1.398 . S
N44 C43 1.258 1_455 S
N45 C42 1.367 1_655 S
N45 C43 1.384 . S
C46 N48 1.298 . S
C46 N50 1.367 . S
C46 C54 1.481 1_556 S
C47 N49 1.299 . S
C47 N50 1.379 . S
N48 Zn32 2.036 . S
N48 C46 1.298 . S
N48 N49 1.398 . S
N49 C47 1.299 . S
N49 N48 1.398 . S
N50 C46 1.367 . S
N50 C47 1.379 . S
H51 C54 0.980 . S
H52 C54 0.981 . S
H53 C54 0.981 . S
C54 C46 1.481 1_554 S
C54 H51 0.980 . S
C54 H52 0.981 . S
C54 H53 0.981 . S
C55 C42 1.481 . S
C55 H56 0.980 . S
C55 H57 0.981 . S
C55 H58 0.981 . S
H56 C55 0.980 . S
H57 C55 0.981 . S
H58 C55 0.981 . S
O59 Zn35 2.066 . S
O59 C38 1.256 . S
O60 Zn32 2.053 . S
O60 C38 1.244 . S
C61 O39 1.259 . S
C61 O40 1.254 . S
O62 Zn32 2.066 . S
O62 C34 1.256 . S
O63 C34 1.244 . S
O63 Zn35 2.053 . S
Zn64 O65 2.055 . S
Zn64 O72 2.046 1_554 S
Zn64 N80 2.036 . S
Zn64 O92 2.053 . S
Zn64 O94 2.066 . S
O65 Zn64 2.055 . S
O65 C68 1.259 . S
C66 O94 1.256 . S
C66 O95 1.244 . S
Zn67 O69 2.046 . S
Zn67 O71 2.055 1_554 S
Zn67 N73 2.036 . S
Zn67 O91 2.066 . S
Zn67 O95 2.053 . S
C68 O65 1.259 . S
C68 O69 1.254 . S
O69 Zn67 2.046 . S
O69 C68 1.254 . S
C70 O91 1.256 . S
C70 O92 1.244 . S
O71 Zn67 2.055 1_556 S
O71 C93 1.259 . S
O72 Zn64 2.046 1_556 S
O72 C93 1.254 . S
N73 Zn67 2.036 . S
N73 C74 1.298 . S
N73 N76 1.398 . S
C74 N73 1.298 . S
C74 N77 1.367 . S
C74 C87 1.481 1_554 S
C75 N76 1.299 . S
C75 N77 1.379 . S
N76 N73 1.398 . S
N76 C75 1.299 . S
N77 C74 1.367 . S
N77 C75 1.379 . S
C78 N80 1.298 . S
C78 N82 1.367 1_565 S
C78 C86 1.481 . S
C79 N81 1.258 1_545 S
C79 N82 1.384 . S
N80 Zn64 2.036 . S
N80 C78 1.298 . S
N80 N81 1.398 . S
N81 C79 1.258 1_565 S
N81 N80 1.398 . S
N82 C78 1.367 1_545 S
N82 C79 1.384 . S
H83 C86 0.980 . S
H84 C86 0.981 . S
H85 C86 0.981 . S
C86 C78 1.481 . S
C86 H83 0.980 . S
C86 H84 0.981 . S
C86 H85 0.981 . S
C87 C74 1.481 1_556 S
C87 H88 0.980 . S
C87 H89 0.981 . S
C87 H90 0.981 . S
H88 C87 0.980 . S
H89 C87 0.981 . S
H90 C87 0.981 . S
O91 Zn67 2.066 . S
O91 C70 1.256 . S
O92 Zn64 2.053 . S
O92 C70 1.244 . S
C93 O71 1.259 . S
C93 O72 1.254 . S
O94 Zn64 2.066 . S
O94 C66 1.256 . S
O95 C66 1.244 . S
O95 Zn67 2.053 . S
Zn96 O97 2.055 . S
Zn96 O104 2.046 1_556 S
Zn96 N112 2.036 . S
Zn96 O124 2.053 . S
Zn96 O126 2.066 . S
O97 Zn96 2.055 . S
O97 C100 1.259 . S
C98 O126 1.256 . S
C98 O127 1.244 . S
Zn99 O101 2.046 . S
Zn99 O103 2.055 1_556 S
Zn99 N105 2.036 . S
Zn99 O123 2.066 . S
Zn99 O127 2.053 . S
C100 O97 1.259 . S
C100 O101 1.254 . S
O101 Zn99 2.046 . S
O101 C100 1.254 . S
C102 O123 1.256 . S
C102 O124 1.244 . S
O103 Zn99 2.055 1_554 S
O103 C125 1.259 . S
O104 Zn96 2.046 1_554 S
O104 C125 1.254 . S
N105 Zn99 2.036 . S
N105 C106 1.298 . S
N105 N108 1.398 . S
C106 N105 1.298 . S
C106 N109 1.367 . S
C106 C119 1.481 1_556 S
C107 N108 1.299 . S
C107 N109 1.379 . S
N108 N105 1.398 . S
N108 C107 1.299 . S
N109 C106 1.367 . S
N109 C107 1.379 . S
C110 N112 1.298 . S
C110 N114 1.367 1_655 S
C110 C118 1.481 . S
C111 N113 1.258 1_455 S
C111 N114 1.384 . S
N112 Zn96 2.036 . S
N112 C110 1.298 . S
N112 N113 1.398 . S
N113 C111 1.258 1_655 S
N113 N112 1.398 . S
N114 C110 1.367 1_455 S
N114 C111 1.384 . S
H115 C118 0.980 . S
H116 C118 0.981 . S
H117 C118 0.981 . S
C118 C110 1.481 . S
C118 H115 0.980 . S
C118 H116 0.981 . S
C118 H117 0.981 . S
C119 C106 1.481 1_554 S
C119 H120 0.980 . S
C119 H121 0.981 . S
C119 H122 0.981 . S
H120 C119 0.980 . S
H121 C119 0.981 . S
H122 C119 0.981 . S
O123 Zn99 2.066 . S
O123 C102 1.256 . S
O124 Zn96 2.053 . S
O124 C102 1.244 . S
C125 O103 1.259 . S
C125 O104 1.254 . S
O126 Zn96 2.066 . S
O126 C98 1.256 . S
O127 C98 1.244 . S
O127 Zn99 2.053 . S
Zn128 O129 2.055 . S
Zn128 O136 2.046 . S
Zn128 N144 2.036 . S
Zn128 O156 2.053 1_554 S
Zn128 O158 2.066 . S
O129 Zn128 2.055 . S
O129 C132 1.259 . S
C130 O158 1.256 . S
C130 O159 1.244 . S
Zn131 O133 2.046 . S
Zn131 O135 2.055 . S
Zn131 N137 2.036 . S
Zn131 O155 2.066 1_554 S
Zn131 O159 2.053 . S
C132 O129 1.259 . S
C132 O133 1.254 . S
O133 Zn131 2.046 . S
O133 C132 1.254 . S
C134 O155 1.256 . S
C134 O156 1.244 . S
O135 Zn131 2.055 . S
O135 C157 1.259 . S
O136 Zn128 2.046 . S
O136 C157 1.254 . S
N137 Zn131 2.036 . S
N137 C138 1.298 . S
N137 N140 1.398 . S
C138 N137 1.298 . S
C138 N141 1.367 . S
C138 C151 1.481 1_554 S
C139 N140 1.299 . S
C139 N141 1.379 . S
N140 N137 1.398 . S
N140 C139 1.299 . S
N141 C138 1.367 . S
N141 C139 1.379 . S
C142 N144 1.298 . S
C142 N146 1.367 . S
C142 C150 1.481 . S
C143 N145 1.299 1_554 S
C143 N146 1.379 . S
N144 Zn128 2.036 . S
N144 C142 1.298 . S
N144 N145 1.398 1_554 S
N145 C143 1.299 1_556 S
N145 N144 1.398 1_556 S
N146 C142 1.367 . S
N146 C143 1.379 . S
H147 C150 0.980 . S
H148 C150 0.981 . S
H149 C150 0.981 . S
C150 C142 1.481 . S
C150 H147 0.980 . S
C150 H148 0.981 . S
C150 H149 0.981 . S
C151 C138 1.481 1_556 S
C151 H152 0.980 1_556 S
C151 H153 0.981 . S
C151 H154 0.981 . S
H152 C151 0.980 1_554 S
H153 C151 0.981 . S
H154 C151 0.981 . S
O155 Zn131 2.066 1_556 S
O155 C134 1.256 . S
O156 Zn128 2.053 1_556 S
O156 C134 1.244 . S
C157 O135 1.259 . S
C157 O136 1.254 . S
O158 Zn128 2.066 . S
O158 C130 1.256 . S
O159 C130 1.244 . S
O159 Zn131 2.053 . S
Zn160 O161 2.055 . S
Zn160 O168 2.046 . S
Zn160 N176 2.036 . S
Zn160 O188 2.053 . S
Zn160 O190 2.066 1_556 S
O161 Zn160 2.055 . S
O161 C164 1.259 . S
C162 O190 1.256 . S
C162 O191 1.244 . S
Zn163 O165 2.046 . S
Zn163 O167 2.055 . S
Zn163 N169 2.036 . S
Zn163 O187 2.066 . S
Zn163 O191 2.053 1_556 S
C164 O161 1.259 . S
C164 O165 1.254 . S
O165 Zn163 2.046 . S
O165 C164 1.254 . S
C166 O187 1.256 . S
C166 O188 1.244 . S
O167 Zn163 2.055 . S
O167 C189 1.259 . S
O168 Zn160 2.046 . S
O168 C189 1.254 . S
N169 Zn163 2.036 . S
N169 C170 1.298 . S
N169 N172 1.398 1_556 S
C170 N169 1.298 . S
C170 N173 1.367 . S
C170 C183 1.481 . S
C171 N172 1.299 1_556 S
C171 N173 1.379 . S
N172 N169 1.398 1_554 S
N172 C171 1.299 1_554 S
N173 C170 1.367 . S
N173 C171 1.379 . S
C174 N176 1.298 . S
C174 N178 1.367 . S
C174 C182 1.481 1_556 S
C175 N177 1.299 . S
C175 N178 1.379 . S
N176 Zn160 2.036 . S
N176 C174 1.298 . S
N176 N177 1.398 . S
N177 C175 1.299 . S
N177 N176 1.398 . S
N178 C174 1.367 . S
N178 C175 1.379 . S
H179 C182 0.980 1_556 S
H180 C182 0.981 . S
H181 C182 0.981 . S
C182 C174 1.481 1_554 S
C182 H179 0.980 1_554 S
C182 H180 0.981 . S
C182 H181 0.981 . S
C183 C170 1.481 . S
C183 H184 0.980 . S
C183 H185 0.981 . S
C183 H186 0.981 . S
H184 C183 0.980 . S
H185 C183 0.981 . S
H186 C183 0.981 . S
O187 Zn163 2.066 . S
O187 C166 1.256 . S
O188 Zn160 2.053 . S
O188 C166 1.244 . S
C189 O167 1.259 . S
C189 O168 1.254 . S
O190 Zn160 2.066 1_554 S
O190 C162 1.256 . S
O191 C162 1.244 . S
O191 Zn163 2.053 1_554 S
Zn192 O193 2.055 . S
Zn192 O200 2.046 . S
Zn192 N208 2.036 . S
Zn192 O220 2.053 1_554 S
Zn192 O222 2.066 . S
O193 Zn192 2.055 . S
O193 C196 1.259 . S
C194 O222 1.256 . S
C194 O223 1.244 . S
Zn195 O197 2.046 . S
Zn195 O199 2.055 . S
Zn195 N201 2.036 . S
Zn195 O219 2.066 1_554 S
Zn195 O223 2.053 . S
C196 O193 1.259 . S
C196 O197 1.254 . S
O197 Zn195 2.046 . S
O197 C196 1.254 . S
C198 O219 1.256 . S
C198 O220 1.244 . S
O199 Zn195 2.055 . S
O199 C221 1.259 . S
O200 Zn192 2.046 . S
O200 C221 1.254 . S
N201 Zn195 2.036 . S
N201 C202 1.298 . S
N201 N204 1.398 . S
C202 N201 1.298 . S
C202 N205 1.367 . S
C202 C215 1.481 1_554 S
C203 N204 1.299 . S
C203 N205 1.379 . S
N204 N201 1.398 . S
N204 C203 1.299 . S
N205 C202 1.367 . S
N205 C203 1.379 . S
C206 N208 1.298 . S
C206 N210 1.367 . S
C206 C214 1.481 . S
C207 N209 1.299 1_554 S
C207 N210 1.379 . S
N208 Zn192 2.036 . S
N208 C206 1.298 . S
N208 N209 1.398 1_554 S
N209 C207 1.299 1_556 S
N209 N208 1.398 1_556 S
N210 C206 1.367 . S
N210 C207 1.379 . S
H211 C214 0.980 . S
H212 C214 0.981 . S
H213 C214 0.981 . S
C214 C206 1.481 . S
C214 H211 0.980 . S
C214 H212 0.981 . S
C214 H213 0.981 . S
C215 C202 1.481 1_556 S
C215 H216 0.980 1_556 S
C215 H217 0.981 . S
C215 H218 0.981 . S
H216 C215 0.980 1_554 S
H217 C215 0.981 . S
H218 C215 0.981 . S
O219 Zn195 2.066 1_556 S
O219 C198 1.256 . S
O220 Zn192 2.053 1_556 S
O220 C198 1.244 . S
C221 O199 1.259 . S
C221 O200 1.254 . S
O222 Zn192 2.066 . S
O222 C194 1.256 . S
O223 C194 1.244 . S
O223 Zn195 2.053 . S
Zn224 O225 2.055 . S
Zn224 O232 2.046 . S
Zn224 N240 2.036 . S
Zn224 O252 2.053 1_556 S
Zn224 O254 2.066 . S
O225 Zn224 2.055 . S
O225 C228 1.259 . S
C226 O254 1.256 . S
C226 O255 1.244 . S
Zn227 O229 2.046 . S
Zn227 O231 2.055 . S
Zn227 N233 2.036 . S
Zn227 O251 2.066 1_556 S
Zn227 O255 2.053 . S
C228 O225 1.259 . S
C228 O229 1.254 . S
O229 Zn227 2.046 . S
O229 C228 1.254 . S
C230 O251 1.256 . S
C230 O252 1.244 . S
O231 Zn227 2.055 . S
O231 C253 1.259 . S
O232 Zn224 2.046 . S
O232 C253 1.254 . S
N233 Zn227 2.036 . S
N233 C234 1.298 . S
N233 N236 1.398 . S
C234 N233 1.298 . S
C234 N237 1.367 . S
C234 C247 1.481 1_556 S
C235 N236 1.299 . S
C235 N237 1.379 . S
N236 N233 1.398 . S
N236 C235 1.299 . S
N237 C234 1.367 . S
N237 C235 1.379 . S
C238 N240 1.298 . S
C238 N242 1.367 . S
C238 C246 1.481 . S
C239 N241 1.299 1_556 S
C239 N242 1.379 . S
N240 Zn224 2.036 . S
N240 C238 1.298 . S
N240 N241 1.398 1_556 S
N241 C239 1.299 1_554 S
N241 N240 1.398 1_554 S
N242 C238 1.367 . S
N242 C239 1.379 . S
H243 C246 0.980 . S
H244 C246 0.981 . S
H245 C246 0.981 . S
C246 C238 1.481 . S
C246 H243 0.980 . S
C246 H244 0.981 . S
C246 H245 0.981 . S
C247 C234 1.481 1_554 S
C247 H248 0.980 1_554 S
C247 H249 0.981 . S
C247 H250 0.981 . S
H248 C247 0.980 1_556 S
H249 C247 0.981 . S
H250 C247 0.981 . S
O251 Zn227 2.066 1_554 S
O251 C230 1.256 . S
O252 Zn224 2.053 1_554 S
O252 C230 1.244 . S
C253 O231 1.259 . S
C253 O232 1.254 . S
O254 Zn224 2.066 . S
O254 C226 1.256 . S
O255 C226 1.244 . S
O255 Zn227 2.053 . S
Zn256 O257 2.055 . S
Zn256 O264 2.046 . S
Zn256 N272 2.036 . S
Zn256 O284 2.053 . S
Zn256 O286 2.066 . S
O257 Zn256 2.055 . S
O257 C260 1.259 . S
C258 O286 1.256 . S
C258 O287 1.244 . S
Zn259 O261 2.046 . S
Zn259 O263 2.055 . S
Zn259 N265 2.036 . S
Zn259 O283 2.066 . S
Zn259 O287 2.053 . S
C260 O257 1.259 . S
C260 O261 1.254 . S
O261 Zn259 2.046 . S
O261 C260 1.254 . S
C262 O283 1.256 . S
C262 O284 1.244 . S
O263 Zn259 2.055 . S
O263 C285 1.259 . S
O264 Zn256 2.046 . S
O264 C285 1.254 . S
N265 Zn259 2.036 . S
N265 C266 1.298 . S
N265 N268 1.398 . S
C266 N265 1.298 . S
C266 N269 1.367 . S
C266 C279 1.481 . S
C267 N268 1.299 . S
C267 N269 1.379 . S
N268 N265 1.398 . S
N268 C267 1.299 . S
N269 C266 1.367 . S
N269 C267 1.379 . S
C270 N272 1.298 . S
C270 N274 1.367 . S
C270 C278 1.481 . S
C271 N273 1.299 . S
C271 N274 1.379 . S
N272 Zn256 2.036 . S
N272 C270 1.298 . S
N272 N273 1.398 . S
N273 C271 1.299 . S
N273 N272 1.398 . S
N274 C270 1.367 . S
N274 C271 1.379 . S
H275 C278 0.980 . S
H276 C278 0.981 . S
H277 C278 0.981 . S
C278 C270 1.481 . S
C278 H275 0.980 . S
C278 H276 0.981 . S
C278 H277 0.981 . S
C279 C266 1.481 . S
C279 H280 0.980 . S
C279 H281 0.981 . S
C279 H282 0.981 . S
H280 C279 0.980 . S
H281 C279 0.981 . S
H282 C279 0.981 . S
O283 Zn259 2.066 . S
O283 C262 1.256 . S
O284 Zn256 2.053 . S
O284 C262 1.244 . S
C285 O263 1.259 . S
C285 O264 1.254 . S
O286 Zn256 2.066 . S
O286 C258 1.256 . S
O287 C258 1.244 . S
O287 Zn259 2.053 . S
Zn288 O289 2.055 . S
Zn288 O296 2.046 . S
Zn288 N304 2.036 . S
Zn288 O316 2.053 . S
Zn288 O318 2.066 . S
O289 Zn288 2.055 . S
O289 C292 1.259 . S
C290 O318 1.256 . S
C290 O319 1.244 . S
Zn291 O293 2.046 . S
Zn291 O295 2.055 . S
Zn291 N297 2.036 . S
Zn291 O315 2.066 . S
Zn291 O319 2.053 . S
C292 O289 1.259 . S
C292 O293 1.254 . S
O293 Zn291 2.046 . S
O293 C292 1.254 . S
C294 O315 1.256 . S
C294 O316 1.244 . S
O295 Zn291 2.055 . S
O295 C317 1.259 . S
O296 Zn288 2.046 . S
O296 C317 1.254 . S
N297 Zn291 2.036 . S
N297 C298 1.298 . S
N297 N300 1.398 . S
C298 N297 1.298 . S
C298 N301 1.367 . S
C298 C311 1.481 . S
C299 N300 1.299 . S
C299 N301 1.379 . S
N300 N297 1.398 . S
N300 C299 1.299 . S
N301 C298 1.367 . S
N301 C299 1.379 . S
C302 N304 1.298 . S
C302 N306 1.367 . S
C302 C310 1.481 . S
C303 N305 1.299 . S
C303 N306 1.379 . S
N304 Zn288 2.036 . S
N304 C302 1.298 . S
N304 N305 1.398 . S
N305 C303 1.299 . S
N305 N304 1.398 . S
N306 C302 1.367 . S
N306 C303 1.379 . S
H307 C310 0.980 . S
H308 C310 0.981 . S
H309 C310 0.981 . S
C310 C302 1.481 . S
C310 H307 0.980 . S
C310 H308 0.981 . S
C310 H309 0.981 . S
C311 C298 1.481 . S
C311 H312 0.980 . S
C311 H313 0.981 . S
C311 H314 0.981 . S
H312 C311 0.980 . S
H313 C311 0.981 . S
H314 C311 0.981 . S
O315 Zn291 2.066 . S
O315 C294 1.256 . S
O316 Zn288 2.053 . S
O316 C294 1.244 . S
C317 O295 1.259 . S
C317 O296 1.254 . S
O318 Zn288 2.066 . S
O318 C290 1.256 . S
O319 C290 1.244 . S
O319 Zn291 2.053 . S
Zn320 O321 2.055 . S
Zn320 O328 2.046 . S
Zn320 N336 2.036 . S
Zn320 O348 2.053 . S
Zn320 O350 2.066 . S
O321 Zn320 2.055 . S
O321 C324 1.259 . S
C322 O350 1.256 . S
C322 O351 1.244 . S
Zn323 O325 2.046 . S
Zn323 O327 2.055 . S
Zn323 N329 2.036 . S
Zn323 O347 2.066 . S
Zn323 O351 2.053 . S
C324 O321 1.259 . S
C324 O325 1.254 . S
O325 Zn323 2.046 . S
O325 C324 1.254 . S
C326 O347 1.256 . S
C326 O348 1.244 . S
O327 Zn323 2.055 . S
O327 C349 1.259 . S
O328 Zn320 2.046 . S
O328 C349 1.254 . S
N329 Zn323 2.036 . S
N329 C330 1.298 . S
N329 N332 1.398 . S
C330 N329 1.298 . S
C330 N333 1.367 . S
C330 C343 1.481 . S
C331 N332 1.299 . S
C331 N333 1.379 . S
N332 N329 1.398 . S
N332 C331 1.299 . S
N333 C330 1.367 . S
N333 C331 1.379 . S
C334 N336 1.298 . S
C334 N338 1.367 . S
C334 C342 1.481 . S
C335 N337 1.299 . S
C335 N338 1.379 . S
N336 Zn320 2.036 . S
N336 C334 1.298 . S
N336 N337 1.398 . S
N337 C335 1.299 . S
N337 N336 1.398 . S
N338 C334 1.367 . S
N338 C335 1.379 . S
H339 C342 0.980 . S
H340 C342 0.981 . S
H341 C342 0.981 . S
C342 C334 1.481 . S
C342 H339 0.980 . S
C342 H340 0.981 . S
C342 H341 0.981 . S
C343 C330 1.481 . S
C343 H344 0.980 . S
C343 H345 0.981 . S
C343 H346 0.981 . S
H344 C343 0.980 . S
H345 C343 0.981 . S
H346 C343 0.981 . S
O347 Zn323 2.066 . S
O347 C326 1.256 . S
O348 Zn320 2.053 . S
O348 C326 1.244 . S
C349 O327 1.259 . S
C349 O328 1.254 . S
O350 Zn320 2.066 . S
O350 C322 1.256 . S
O351 C322 1.244 . S
O351 Zn323 2.053 . S
Zn352 O353 2.055 . S
Zn352 O360 2.046 . S
Zn352 N368 2.036 . S
Zn352 O380 2.053 . S
Zn352 O382 2.066 . S
O353 Zn352 2.055 . S
O353 C356 1.259 . S
C354 O382 1.256 . S
C354 O383 1.244 . S
Zn355 O357 2.046 . S
Zn355 O359 2.055 . S
Zn355 N361 2.036 . S
Zn355 O379 2.066 . S
Zn355 O383 2.053 . S
C356 O353 1.259 . S
C356 O357 1.254 . S
O357 Zn355 2.046 . S
O357 C356 1.254 . S
C358 O379 1.256 . S
C358 O380 1.244 . S
O359 Zn355 2.055 . S
O359 C381 1.259 . S
O360 Zn352 2.046 . S
O360 C381 1.254 . S
N361 Zn355 2.036 . S
N361 C362 1.298 . S
N361 N364 1.398 . S
C362 N361 1.298 . S
C362 N365 1.367 . S
C362 C375 1.481 . S
C363 N364 1.299 . S
C363 N365 1.379 . S
N364 N361 1.398 . S
N364 C363 1.299 . S
N365 C362 1.367 . S
N365 C363 1.379 . S
C366 N368 1.298 . S
C366 N370 1.367 . S
C366 C374 1.481 . S
C367 N369 1.299 . S
C367 N370 1.379 . S
N368 Zn352 2.036 . S
N368 C366 1.298 . S
N368 N369 1.398 . S
N369 C367 1.299 . S
N369 N368 1.398 . S
N370 C366 1.367 . S
N370 C367 1.379 . S
H371 C374 0.980 . S
H372 C374 0.981 . S
H373 C374 0.981 . S
C374 C366 1.481 . S
C374 H371 0.980 . S
C374 H372 0.981 . S
C374 H373 0.981 . S
C375 C362 1.481 . S
C375 H376 0.980 . S
C375 H377 0.981 . S
C375 H378 0.981 . S
H376 C375 0.980 . S
H377 C375 0.981 . S
H378 C375 0.981 . S
O379 Zn355 2.066 . S
O379 C358 1.256 . S
O380 Zn352 2.053 . S
O380 C358 1.244 . S
C381 O359 1.259 . S
C381 O360 1.254 . S
O382 Zn352 2.066 . S
O382 C354 1.256 . S
O383 C354 1.244 . S
O383 Zn355 2.053 . S
Zn384 O385 2.055 . S
Zn384 O392 2.046 . S
Zn384 N400 2.036 . S
Zn384 O412 2.053 . S
Zn384 O414 2.066 . S
O385 Zn384 2.055 . S
O385 C388 1.259 . S
C386 O414 1.256 . S
C386 O415 1.244 . S
Zn387 O389 2.046 . S
Zn387 O391 2.055 . S
Zn387 N393 2.036 . S
Zn387 O411 2.066 . S
Zn387 O415 2.053 . S
C388 O385 1.259 . S
C388 O389 1.254 . S
O389 Zn387 2.046 . S
O389 C388 1.254 . S
C390 O411 1.256 . S
C390 O412 1.244 . S
O391 Zn387 2.055 . S
O391 C413 1.259 . S
O392 Zn384 2.046 . S
O392 C413 1.254 . S
N393 Zn387 2.036 . S
N393 C394 1.298 . S
N393 N396 1.398 . S
C394 N393 1.298 . S
C394 N397 1.367 . S
C394 C407 1.481 . S
C395 N396 1.299 . S
C395 N397 1.379 . S
N396 N393 1.398 . S
N396 C395 1.299 . S
N397 C394 1.367 . S
N397 C395 1.379 . S
C398 N400 1.298 . S
C398 N402 1.367 1_565 S
C398 C406 1.481 . S
C399 N401 1.258 1_545 S
C399 N402 1.384 . S
N400 Zn384 2.036 . S
N400 C398 1.298 . S
N400 N401 1.398 . S
N401 C399 1.258 1_565 S
N401 N400 1.398 . S
N402 C398 1.367 1_545 S
N402 C399 1.384 . S
H403 C406 0.980 . S
H404 C406 0.981 . S
H405 C406 0.981 . S
C406 C398 1.481 . S
C406 H403 0.980 . S
C406 H404 0.981 . S
C406 H405 0.981 . S
C407 C394 1.481 . S
C407 H408 0.980 . S
C407 H409 0.981 . S
C407 H410 0.981 . S
H408 C407 0.980 . S
H409 C407 0.981 . S
H410 C407 0.981 . S
O411 Zn387 2.066 . S
O411 C390 1.256 . S
O412 Zn384 2.053 . S
O412 C390 1.244 . S
C413 O391 1.259 . S
C413 O392 1.254 . S
O414 Zn384 2.066 . S
O414 C386 1.256 . S
O415 C386 1.244 . S
O415 Zn387 2.053 . S
Zn416 O417 2.055 . S
Zn416 O424 2.046 . S
Zn416 N432 2.036 . S
Zn416 O444 2.053 . S
Zn416 O446 2.066 . S
O417 Zn416 2.055 . S
O417 C420 1.259 . S
C418 O446 1.256 . S
C418 O447 1.244 . S
Zn419 O421 2.046 . S
Zn419 O423 2.055 . S
Zn419 N425 2.036 . S
Zn419 O443 2.066 . S
Zn419 O447 2.053 . S
C420 O417 1.259 . S
C420 O421 1.254 . S
O421 Zn419 2.046 . S
O421 C420 1.254 . S
C422 O443 1.256 . S
C422 O444 1.244 . S
O423 Zn419 2.055 . S
O423 C445 1.259 . S
O424 Zn416 2.046 . S
O424 C445 1.254 . S
N425 Zn419 2.036 . S
N425 C426 1.298 . S
N425 N428 1.398 . S
C426 N425 1.298 . S
C426 N429 1.367 1_655 S
C426 C439 1.481 . S
C427 N428 1.258 1_455 S
C427 N429 1.384 . S
N428 N425 1.398 . S
N428 C427 1.258 1_655 S
N429 C426 1.367 1_455 S
N429 C427 1.384 . S
C430 N432 1.298 . S
C430 N434 1.367 . S
C430 C438 1.481 . S
C431 N433 1.299 . S
C431 N434 1.379 . S
N432 Zn416 2.036 . S
N432 C430 1.298 . S
N432 N433 1.398 . S
N433 C431 1.299 . S
N433 N432 1.398 . S
N434 C430 1.367 . S
N434 C431 1.379 . S
H435 C438 0.980 . S
H436 C438 0.981 . S
H437 C438 0.981 . S
C438 C430 1.481 . S
C438 H435 0.980 . S
C438 H436 0.981 . S
C438 H437 0.981 . S
C439 C426 1.481 . S
C439 H440 0.980 . S
C439 H441 0.981 . S
C439 H442 0.981 . S
H440 C439 0.980 . S
H441 C439 0.981 . S
H442 C439 0.981 . S
O443 Zn419 2.066 . S
O443 C422 1.256 . S
O444 Zn416 2.053 . S
O444 C422 1.244 . S
C445 O423 1.259 . S
C445 O424 1.254 . S
O446 Zn416 2.066 . S
O446 C418 1.256 . S
O447 C418 1.244 . S
O447 Zn419 2.053 . S
Zn448 O449 2.055 . S
Zn448 O456 2.046 . S
Zn448 N464 2.036 . S
Zn448 O476 2.053 . S
Zn448 O478 2.066 . S
O449 Zn448 2.055 . S
O449 C452 1.259 . S
C450 O478 1.256 . S
C450 O479 1.244 . S
Zn451 O453 2.046 . S
Zn451 O455 2.055 . S
Zn451 N457 2.036 . S
Zn451 O475 2.066 . S
Zn451 O479 2.053 . S
C452 O449 1.259 . S
C452 O453 1.254 . S
O453 Zn451 2.046 . S
O453 C452 1.254 . S
C454 O475 1.256 . S
C454 O476 1.244 . S
O455 Zn451 2.055 . S
O455 C477 1.259 . S
O456 Zn448 2.046 . S
O456 C477 1.254 . S
N457 Zn451 2.036 . S
N457 C458 1.298 . S
N457 N460 1.398 . S
C458 N457 1.298 . S
C458 N461 1.367 1_545 S
C458 C471 1.481 . S
C459 N460 1.258 1_565 S
C459 N461 1.384 . S
N460 N457 1.398 . S
N460 C459 1.258 1_545 S
N461 C458 1.367 1_565 S
N461 C459 1.384 . S
C462 N464 1.298 . S
C462 N466 1.367 . S
C462 C470 1.481 . S
C463 N465 1.299 . S
C463 N466 1.379 . S
N464 Zn448 2.036 . S
N464 C462 1.298 . S
N464 N465 1.398 . S
N465 C463 1.299 . S
N465 N464 1.398 . S
N466 C462 1.367 . S
N466 C463 1.379 . S
H467 C470 0.980 . S
H468 C470 0.981 . S
H469 C470 0.981 . S
C470 C462 1.481 . S
C470 H467 0.980 . S
C470 H468 0.981 . S
C470 H469 0.981 . S
C471 C458 1.481 . S
C471 H472 0.980 . S
C471 H473 0.981 . S
C471 H474 0.981 . S
H472 C471 0.980 . S
H473 C471 0.981 . S
H474 C471 0.981 . S
O475 Zn451 2.066 . S
O475 C454 1.256 . S
O476 Zn448 2.053 . S
O476 C454 1.244 . S
C477 O455 1.259 . S
C477 O456 1.254 . S
O478 Zn448 2.066 . S
O478 C450 1.256 . S
O479 C450 1.244 . S
O479 Zn451 2.053 . S
Zn480 O481 2.055 . S
Zn480 O488 2.046 . S
Zn480 N496 2.036 . S
Zn480 O508 2.053 . S
Zn480 O510 2.066 . S
O481 Zn480 2.055 . S
O481 C484 1.259 . S
C482 O510 1.256 . S
C482 O511 1.244 . S
Zn483 O485 2.046 . S
Zn483 O487 2.055 . S
Zn483 N489 2.036 . S
Zn483 O507 2.066 . S
Zn483 O511 2.053 . S
C484 O481 1.259 . S
C484 O485 1.254 . S
O485 Zn483 2.046 . S
O485 C484 1.254 . S
C486 O507 1.256 . S
C486 O508 1.244 . S
O487 Zn483 2.055 . S
O487 C509 1.259 . S
O488 Zn480 2.046 . S
O488 C509 1.254 . S
N489 Zn483 2.036 . S
N489 C490 1.298 . S
N489 N492 1.398 . S
C490 N489 1.298 . S
C490 N493 1.367 . S
C490 C503 1.481 . S
C491 N492 1.299 . S
C491 N493 1.379 . S
N492 N489 1.398 . S
N492 C491 1.299 . S
N493 C490 1.367 . S
N493 C491 1.379 . S
C494 N496 1.298 . S
C494 N498 1.367 1_455 S
C494 C502 1.481 . S
C495 N497 1.258 1_655 S
C495 N498 1.384 . S
N496 Zn480 2.036 . S
N496 C494 1.298 . S
N496 N497 1.398 . S
N497 C495 1.258 1_455 S
N497 N496 1.398 . S
N498 C494 1.367 1_655 S
N498 C495 1.384 . S
H499 C502 0.980 . S
H500 C502 0.981 . S
H501 C502 0.981 . S
C502 C494 1.481 . S
C502 H499 0.980 . S
C502 H500 0.981 . S
C502 H501 0.981 . S
C503 C490 1.481 . S
C503 H504 0.980 . S
C503 H505 0.981 . S
C503 H506 0.981 . S
H504 C503 0.980 . S
H505 C503 0.981 . S
H506 C503 0.981 . S
O507 Zn483 2.066 . S
O507 C486 1.256 . S
O508 Zn480 2.053 . S
O508 C486 1.244 . S
C509 O487 1.259 . S
C509 O488 1.254 . S
O510 Zn480 2.066 . S
O510 C482 1.256 . S
O511 C482 1.244 . S
O511 Zn483 2.053 . S
C512 C513 1.387 . S
C512 H516 0.950 . S
C512 C521 1.390 . S
C513 C512 1.387 . S
C513 C515 1.387 . S
H514 C521 0.950 . S
C515 C513 1.387 . S
C515 C517 1.390 . S
C515 H519 0.950 . S
H516 C512 0.950 . S
C517 C515 1.390 . S
C517 C518 1.387 . S
C517 H520 0.950 . S
C518 C517 1.387 . S
C518 C521 1.387 . S
H519 C515 0.950 . S
H520 C517 0.950 . S
C521 C512 1.390 . S
C521 H514 0.950 . S
C521 C518 1.387 . S
C522 C523 1.387 . S
C522 H526 0.950 . S
C522 C531 1.390 . S
C523 C522 1.387 . S
C523 C525 1.387 . S
H524 C531 0.950 . S
C525 C523 1.387 . S
C525 C527 1.390 . S
C525 H529 0.950 . S
H526 C522 0.950 . S
C527 C525 1.390 . S
C527 C528 1.387 . S
C527 H530 0.950 . S
C528 C527 1.387 . S
C528 C531 1.387 . S
H529 C525 0.950 . S
H530 C527 0.950 . S
C531 C522 1.390 . S
C531 H524 0.950 . S
C531 C528 1.387 . S
C532 C533 1.387 . S
C532 H536 0.950 . S
C532 C541 1.390 . S
C533 C532 1.387 . S
C533 C535 1.387 . S
H534 C541 0.950 . S
C535 C533 1.387 . S
C535 C537 1.390 . S
C535 H539 0.950 . S
H536 C532 0.950 . S
C537 C535 1.390 . S
C537 C538 1.387 . S
C537 H540 0.950 . S
C538 C537 1.387 . S
C538 C541 1.387 . S
H539 C535 0.950 . S
H540 C537 0.950 . S
C541 C532 1.390 . S
C541 H534 0.950 . S
C541 C538 1.387 . S
C542 C543 1.387 . S
C542 H546 0.950 . S
C542 C551 1.390 . S
C543 C542 1.387 . S
C543 C545 1.387 . S
H544 C551 0.950 . S
C545 C543 1.387 . S
C545 C547 1.390 . S
C545 H549 0.950 . S
H546 C542 0.950 . S
C547 C545 1.390 . S
C547 C548 1.387 . S
C547 H550 0.950 . S
C548 C547 1.387 . S
C548 C551 1.387 . S
H549 C545 0.950 . S
H550 C547 0.950 . S
C551 C542 1.390 . S
C551 H544 0.950 . S
C551 C548 1.387 . S
C552 C553 1.387 1_556 S
C552 H556 0.950 . S
C552 C561 1.390 . S
C553 C552 1.387 1_554 S
C553 C555 1.387 . S
H554 C561 0.950 . S
C555 C553 1.387 . S
C555 C557 1.390 . S
C555 H559 0.950 . S
H556 C552 0.950 . S
C557 C555 1.390 . S
C557 C558 1.387 1_554 S
C557 H560 0.950 . S
C558 C557 1.387 1_556 S
C558 C561 1.387 . S
H559 C555 0.950 . S
H560 C557 0.950 . S
C561 C552 1.390 . S
C561 H554 0.950 . S
C561 C558 1.387 . S
C562 C563 1.387 . S
C562 H566 0.950 . S
C562 C571 1.390 . S
C563 C562 1.387 . S
C563 C565 1.387 1_554 S
H564 C571 0.950 . S
C565 C563 1.387 1_556 S
C565 C567 1.390 . S
C565 H569 0.950 . S
H566 C562 0.950 . S
C567 C565 1.390 . S
C567 C568 1.387 . S
C567 H570 0.950 . S
C568 C567 1.387 . S
C568 C571 1.387 1_556 S
H569 C565 0.950 . S
H570 C567 0.950 . S
C571 C562 1.390 . S
C571 H564 0.950 . S
C571 C568 1.387 1_554 S
C572 C573 1.387 1_556 S
C572 H576 0.950 . S
C572 C581 1.390 . S
C573 C572 1.387 1_554 S
C573 C575 1.387 . S
H574 C581 0.950 . S
C575 C573 1.387 . S
C575 C577 1.391 . S
C575 H579 0.950 . S
H576 C572 0.950 . S
C577 C575 1.391 . S
C577 C578 1.386 1_554 S
C577 H580 0.950 . S
C578 C577 1.386 1_556 S
C578 C581 1.387 . S
H579 C575 0.950 . S
H580 C577 0.950 . S
C581 C572 1.390 . S
C581 H574 0.950 . S
C581 C578 1.387 . S
C582 C583 1.387 1_556 S
C582 H586 0.950 . S
C582 C591 1.390 . S
C583 C582 1.387 1_554 S
C583 C585 1.387 . S
H584 C591 0.950 . S
C585 C583 1.387 . S
C585 C587 1.390 . S
C585 H589 0.950 . S
H586 C582 0.950 . S
C587 C585 1.390 . S
C587 C588 1.387 1_554 S
C587 H590 0.950 . S
C588 C587 1.387 1_556 S
C588 C591 1.387 . S
H589 C585 0.950 . S
H590 C587 0.950 . S
C591 C582 1.390 . S
C591 H584 0.950 . S
C591 C588 1.387 . S
C592 C593 1.387 . S
C592 H596 0.950 . S
C592 C601 1.390 . S
C593 C592 1.387 . S
C593 C595 1.387 . S
H594 C601 0.950 . S
C595 C593 1.387 . S
C595 C597 1.390 . S
C595 H599 0.950 . S
H596 C592 0.950 . S
C597 C595 1.390 . S
C597 C598 1.387 . S
C597 H600 0.950 . S
C598 C597 1.387 . S
C598 C601 1.387 . S
H599 C595 0.950 . S
H600 C597 0.950 . S
C601 C592 1.390 . S
C601 H594 0.950 . S
C601 C598 1.387 . S
C602 C603 1.387 . S
C602 H606 0.950 . S
C602 C611 1.390 . S
C603 C602 1.387 . S
C603 C605 1.387 . S
H604 C611 0.950 . S
C605 C603 1.387 . S
C605 C607 1.390 . S
C605 H609 0.950 . S
H606 C602 0.950 . S
C607 C605 1.390 . S
C607 C608 1.387 . S
C607 H610 0.950 . S
C608 C607 1.387 . S
C608 C611 1.387 . S
H609 C605 0.950 . S
H610 C607 0.950 . S
C611 C602 1.390 . S
C611 H604 0.950 . S
C611 C608 1.387 . S
C612 C613 1.387 . S
C612 H616 0.950 . S
C612 C621 1.390 . S
C613 C612 1.387 . S
C613 C615 1.387 . S
H614 C621 0.950 . S
C615 C613 1.387 . S
C615 C617 1.390 . S
C615 H619 0.950 . S
H616 C612 0.950 . S
C617 C615 1.390 . S
C617 C618 1.387 . S
C617 H620 0.950 . S
C618 C617 1.387 . S
C618 C621 1.387 . S
H619 C615 0.950 . S
H620 C617 0.950 . S
C621 C612 1.390 . S
C621 H614 0.950 . S
C621 C618 1.387 . S
C622 C623 1.387 . S
C622 H626 0.950 . S
C622 C631 1.390 . S
C623 C622 1.387 . S
C623 C625 1.387 . S
H624 C631 0.950 . S
C625 C623 1.387 . S
C625 C627 1.390 . S
C625 H629 0.950 . S
H626 C622 0.950 . S
C627 C625 1.390 . S
C627 C628 1.387 . S
C627 H630 0.950 . S
C628 C627 1.387 . S
C628 C631 1.387 . S
H629 C625 0.950 . S
H630 C627 0.950 . S
C631 C622 1.390 . S
C631 H624 0.950 . S
C631 C628 1.387 . S
C632 C633 1.387 . S
C632 H636 0.950 . S
C632 C641 1.390 . S
C633 C632 1.387 . S
C633 C635 1.387 . S
H634 C641 0.950 . S
C635 C633 1.387 . S
C635 C637 1.390 . S
C635 H639 0.950 . S
H636 C632 0.950 . S
C637 C635 1.390 . S
C637 C638 1.387 . S
C637 H640 0.950 . S
C638 C637 1.387 . S
C638 C641 1.387 . S
H639 C635 0.950 . S
H640 C637 0.950 . S
C641 C632 1.390 . S
C641 H634 0.950 . S
C641 C638 1.387 . S
C642 C643 1.387 . S
C642 H646 0.950 . S
C642 C651 1.390 . S
C643 C642 1.387 . S
C643 C645 1.387 . S
H644 C651 0.950 . S
C645 C643 1.387 . S
C645 C647 1.390 . S
C645 H649 0.950 . S
H646 C642 0.950 . S
C647 C645 1.390 . S
C647 C648 1.387 . S
C647 H650 0.950 . S
C648 C647 1.387 . S
C648 C651 1.387 . S
H649 C645 0.950 . S
H650 C647 0.950 . S
C651 C642 1.390 . S
C651 H644 0.950 . S
C651 C648 1.387 . S
C652 C653 1.387 . S
C652 H656 0.950 . S
C652 C661 1.390 . S
C653 C652 1.387 . S
C653 C655 1.387 . S
H654 C661 0.950 . S
C655 C653 1.387 . S
C655 C657 1.390 . S
C655 H659 0.950 . S
H656 C652 0.950 . S
C657 C655 1.390 . S
C657 C658 1.387 . S
C657 H660 0.950 . S
C658 C657 1.387 . S
C658 C661 1.387 . S
H659 C655 0.950 . S
H660 C657 0.950 . S
C661 C652 1.390 . S
C661 H654 0.950 . S
C661 C658 1.387 . S
C662 C663 1.387 . S
C662 H666 0.950 . S
C662 C671 1.390 . S
C663 C662 1.387 . S
C663 C665 1.387 . S
H664 C671 0.950 . S
C665 C663 1.387 . S
C665 C667 1.390 . S
C665 H669 0.950 . S
H666 C662 0.950 . S
C667 C665 1.390 . S
C667 C668 1.387 . S
C667 H670 0.950 . S
C668 C667 1.387 . S
C668 C671 1.387 . S
H669 C665 0.950 . S
H670 C667 0.950 . S
C671 C662 1.390 . S
C671 H664 0.950 . S
C671 C668 1.387 . S
C672 C673 1.387 . S
C672 H676 0.950 . S
C672 C681 1.390 . S
C673 C672 1.387 . S
C673 C675 1.387 . S
H674 C681 0.950 . S
C675 C673 1.387 . S
C675 C677 1.390 . S
C675 H679 0.950 . S
H676 C672 0.950 . S
C677 C675 1.390 . S
C677 C678 1.387 . S
C677 H680 0.950 . S
C678 C677 1.387 . S
C678 C681 1.387 . S
H679 C675 0.950 . S
H680 C677 0.950 . S
C681 C672 1.390 . S
C681 H674 0.950 . S
C681 C678 1.387 . S
C682 C683 1.387 . S
C682 H686 0.950 . S
C682 C691 1.390 . S
C683 C682 1.387 . S
C683 C685 1.387 . S
H684 C691 0.950 . S
C685 C683 1.387 . S
C685 C687 1.390 . S
C685 H689 0.950 . S
H686 C682 0.950 . S
C687 C685 1.390 . S
C687 C688 1.387 . S
C687 H690 0.950 . S
C688 C687 1.387 . S
C688 C691 1.387 . S
H689 C685 0.950 . S
H690 C687 0.950 . S
C691 C682 1.390 . S
C691 H684 0.950 . S
C691 C688 1.387 . S
C692 C693 1.387 . S
C692 H696 0.950 . S
C692 C701 1.390 . S
C693 C692 1.387 . S
C693 C695 1.387 . S
H694 C701 0.950 . S
C695 C693 1.387 . S
C695 C697 1.390 . S
C695 H699 0.950 . S
H696 C692 0.950 . S
C697 C695 1.390 . S
C697 C698 1.387 . S
C697 H700 0.950 . S
C698 C697 1.387 . S
C698 C701 1.387 . S
H699 C695 0.950 . S
H700 C697 0.950 . S
C701 C692 1.390 . S
C701 H694 0.950 . S
C701 C698 1.387 . S
C702 C703 1.387 . S
C702 H706 0.950 . S
C702 C711 1.390 . S
C703 C702 1.387 . S
C703 C705 1.387 . S
H704 C711 0.950 . S
C705 C703 1.387 . S
C705 C707 1.390 . S
C705 H709 0.950 . S
H706 C702 0.950 . S
C707 C705 1.390 . S
C707 C708 1.387 . S
C707 H710 0.950 . S
C708 C707 1.387 . S
C708 C711 1.387 . S
H709 C705 0.950 . S
H710 C707 0.950 . S
C711 C702 1.390 . S
C711 H704 0.950 . S
C711 C708 1.387 . S
C712 C713 1.387 . S
C712 H716 0.950 . S
C712 C721 1.390 . S
C713 C712 1.387 . S
C713 C715 1.387 . S
H714 C721 0.950 . S
C715 C713 1.387 . S
C715 C717 1.390 . S
C715 H719 0.950 . S
H716 C712 0.950 . S
C717 C715 1.390 . S
C717 C718 1.387 . S
C717 H720 0.950 . S
C718 C717 1.387 . S
C718 C721 1.387 . S
H719 C715 0.950 . S
H720 C717 0.950 . S
C721 C712 1.390 . S
C721 H714 0.950 . S
C721 C718 1.387 . S
C722 C723 1.387 . S
C722 H726 0.950 . S
C722 C731 1.390 . S
C723 C722 1.387 . S
C723 C725 1.387 . S
H724 C731 0.950 . S
C725 C723 1.387 . S
C725 C727 1.390 . S
C725 H729 0.950 . S
H726 C722 0.950 . S
C727 C725 1.390 . S
C727 C728 1.387 . S
C727 H730 0.950 . S
C728 C727 1.387 . S
C728 C731 1.387 . S
H729 C725 0.950 . S
H730 C727 0.950 . S
C731 C722 1.390 . S
C731 H724 0.950 . S
C731 C728 1.387 . S
C732 C733 1.387 . S
C732 H736 0.950 . S
C732 C741 1.390 . S
C733 C732 1.387 . S
C733 C735 1.387 . S
H734 C741 0.950 . S
C735 C733 1.387 . S
C735 C737 1.390 . S
C735 H739 0.950 . S
H736 C732 0.950 . S
C737 C735 1.390 . S
C737 C738 1.387 . S
C737 H740 0.950 . S
C738 C737 1.387 . S
C738 C741 1.387 . S
H739 C735 0.950 . S
H740 C737 0.950 . S
C741 C732 1.390 . S
C741 H734 0.950 . S
C741 C738 1.387 . S
C742 C743 1.387 . S
C742 H746 0.950 . S
C742 C751 1.390 . S
C743 C742 1.387 . S
C743 C745 1.387 . S
H744 C751 0.950 . S
C745 C743 1.387 . S
C745 C747 1.390 . S
C745 H749 0.950 . S
H746 C742 0.950 . S
C747 C745 1.390 . S
C747 C748 1.387 . S
C747 H750 0.950 . S
C748 C747 1.387 . S
C748 C751 1.387 . S
H749 C745 0.950 . S
H750 C747 0.950 . S
C751 C742 1.390 . S
C751 H744 0.950 . S
C751 C748 1.387 . S
C752 C753 1.387 . S
C752 H756 0.950 . S
C752 C761 1.390 . S
C753 C752 1.387 . S
C753 C755 1.387 . S
H754 C761 0.950 . S
C755 C753 1.387 . S
C755 C757 1.390 . S
C755 H759 0.950 . S
H756 C752 0.950 . S
C757 C755 1.390 . S
C757 C758 1.387 . S
C757 H760 0.950 . S
C758 C757 1.387 . S
C758 C761 1.387 . S
H759 C755 0.950 . S
H760 C757 0.950 . S
C761 C752 1.390 . S
C761 H754 0.950 . S
C761 C758 1.387 . S
C762 C763 1.387 . S
C762 H766 0.950 . S
C762 C771 1.390 . S
C763 C762 1.387 . S
C763 C765 1.387 . S
H764 C771 0.950 . S
C765 C763 1.387 . S
C765 C767 1.390 . S
C765 H769 0.950 . S
H766 C762 0.950 . S
C767 C765 1.390 . S
C767 C768 1.387 . S
C767 H770 0.950 . S
C768 C767 1.387 . S
C768 C771 1.387 . S
H769 C765 0.950 . S
H770 C767 0.950 . S
C771 C762 1.390 . S
C771 H764 0.950 . S
C771 C768 1.387 . S
C772 C773 1.387 . S
C772 H776 0.950 . S
C772 C781 1.390 . S
C773 C772 1.387 . S
C773 C775 1.387 . S
H774 C781 0.950 . S
C775 C773 1.387 . S
C775 C777 1.390 . S
C775 H779 0.950 . S
H776 C772 0.950 . S
C777 C775 1.390 . S
C777 C778 1.387 . S
C777 H780 0.950 . S
C778 C777 1.387 . S
C778 C781 1.387 . S
H779 C775 0.950 . S
H780 C777 0.950 . S
C781 C772 1.390 . S
C781 H774 0.950 . S
C781 C778 1.387 . S
C782 C783 1.387 . S
C782 H786 0.950 . S
C782 C791 1.390 . S
C783 C782 1.387 . S
C783 C785 1.387 . S
H784 C791 0.950 . S
C785 C783 1.387 . S
C785 C787 1.390 . S
C785 H789 0.950 . S
H786 C782 0.950 . S
C787 C785 1.390 . S
C787 C788 1.387 . S
C787 H790 0.950 . S
C788 C787 1.387 . S
C788 C791 1.387 . S
H789 C785 0.950 . S
H790 C787 0.950 . S
C791 C782 1.390 . S
C791 H784 0.950 . S
C791 C788 1.387 . S
C792 C793 1.387 . S
C792 H796 0.950 . S
C792 C801 1.390 . S
C793 C792 1.387 . S
C793 C795 1.387 . S
H794 C801 0.950 . S
C795 C793 1.387 . S
C795 C797 1.390 . S
C795 H799 0.950 . S
H796 C792 0.950 . S
C797 C795 1.390 . S
C797 C798 1.387 . S
C797 H800 0.950 . S
C798 C797 1.387 . S
C798 C801 1.387 . S
H799 C795 0.950 . S
H800 C797 0.950 . S
C801 C792 1.390 . S
C801 H794 0.950 . S
C801 C798 1.387 . S
C802 C803 1.387 . S
C802 H806 0.950 . S
C802 C811 1.390 . S
C803 C802 1.387 . S
C803 C805 1.387 . S
H804 C811 0.950 . S
C805 C803 1.387 . S
C805 C807 1.390 . S
C805 H809 0.950 . S
H806 C802 0.950 . S
C807 C805 1.390 . S
C807 C808 1.387 . S
C807 H810 0.950 . S
C808 C807 1.387 . S
C808 C811 1.387 . S
H809 C805 0.950 . S
H810 C807 0.950 . S
C811 C802 1.390 . S
C811 H804 0.950 . S
C811 C808 1.387 . S
C812 C813 1.387 . S
C812 H816 0.950 . S
C812 C821 1.390 . S
C813 C812 1.387 . S
C813 C815 1.387 . S
H814 C821 0.950 . S
C815 C813 1.387 . S
C815 C817 1.390 . S
C815 H819 0.950 . S
H816 C812 0.950 . S
C817 C815 1.390 . S
C817 C818 1.387 . S
C817 H820 0.950 . S
C818 C817 1.387 . S
C818 C821 1.387 . S
H819 C815 0.950 . S
H820 C817 0.950 . S
C821 C812 1.390 . S
C821 H814 0.950 . S
C821 C818 1.387 . S
C822 C823 1.387 . S
C822 H826 0.950 . S
C822 C831 1.390 . S
C823 C822 1.387 . S
C823 C825 1.387 . S
H824 C831 0.950 . S
C825 C823 1.387 . S
C825 C827 1.390 . S
C825 H829 0.950 . S
H826 C822 0.950 . S
C827 C825 1.390 . S
C827 C828 1.387 . S
C827 H830 0.950 . S
C828 C827 1.387 . S
C828 C831 1.387 . S
H829 C825 0.950 . S
H830 C827 0.950 . S
C831 C822 1.390 . S
C831 H824 0.950 . S
C831 C828 1.387 . S
C832 C833 1.387 . S
C832 H836 0.950 . S
C832 C841 1.390 . S
C833 C832 1.387 . S
C833 C835 1.387 . S
H834 C841 0.950 . S
C835 C833 1.387 . S
C835 C837 1.390 . S
C835 H839 0.950 . S
H836 C832 0.950 . S
C837 C835 1.390 . S
C837 C838 1.387 . S
C837 H840 0.950 . S
C838 C837 1.387 . S
C838 C841 1.387 . S
H839 C835 0.950 . S
H840 C837 0.950 . S
C841 C832 1.390 . S
C841 H834 0.950 . S
C841 C838 1.387 . S
C842 C843 1.387 . S
C842 H846 0.950 . S
C842 C851 1.390 . S
C843 C842 1.387 . S
C843 C845 1.387 . S
H844 C851 0.950 . S
C845 C843 1.387 . S
C845 C847 1.390 . S
C845 H849 0.950 . S
H846 C842 0.950 . S
C847 C845 1.390 . S
C847 C848 1.387 . S
C847 H850 0.950 . S
C848 C847 1.387 . S
C848 C851 1.387 . S
H849 C845 0.950 . S
H850 C847 0.950 . S
C851 C842 1.390 . S
C851 H844 0.950 . S
C851 C848 1.387 . S
C852 C853 1.387 . S
C852 H856 0.950 . S
C852 C861 1.390 . S
C853 C852 1.387 . S
C853 C855 1.387 . S
H854 C861 0.950 . S
C855 C853 1.387 . S
C855 C857 1.390 . S
C855 H859 0.950 . S
H856 C852 0.950 . S
C857 C855 1.390 . S
C857 C858 1.387 . S
C857 H860 0.950 . S
C858 C857 1.387 . S
C858 C861 1.387 . S
H859 C855 0.950 . S
H860 C857 0.950 . S
C861 C852 1.390 . S
C861 H854 0.950 . S
C861 C858 1.387 . S
C862 C863 1.387 . S
C862 H866 0.950 . S
C862 C871 1.390 . S
C863 C862 1.387 . S
C863 C865 1.387 . S
H864 C871 0.950 . S
C865 C863 1.387 . S
C865 C867 1.390 . S
C865 H869 0.950 . S
H866 C862 0.950 . S
C867 C865 1.390 . S
C867 C868 1.387 . S
C867 H870 0.950 . S
C868 C867 1.387 . S
C868 C871 1.387 . S
H869 C865 0.950 . S
H870 C867 0.950 . S
C871 C862 1.390 . S
C871 H864 0.950 . S
C871 C868 1.387 . S
C872 C873 1.387 . S
C872 H876 0.950 . S
C872 C881 1.390 . S
C873 C872 1.387 . S
C873 C875 1.387 . S
H874 C881 0.950 . S
C875 C873 1.387 . S
C875 C877 1.390 . S
C875 H879 0.950 . S
H876 C872 0.950 . S
C877 C875 1.390 . S
C877 C878 1.387 . S
C877 H880 0.950 . S
C878 C877 1.387 . S
C878 C881 1.387 . S
H879 C875 0.950 . S
H880 C877 0.950 . S
C881 C872 1.390 . S
C881 H874 0.950 . S
C881 C878 1.387 . S
C882 C883 1.387 . S
C882 H886 0.950 . S
C882 C891 1.390 . S
C883 C882 1.387 . S
C883 C885 1.387 . S
H884 C891 0.950 . S
C885 C883 1.387 . S
C885 C887 1.390 . S
C885 H889 0.950 . S
H886 C882 0.950 . S
C887 C885 1.390 . S
C887 C888 1.387 . S
C887 H890 0.950 . S
C888 C887 1.387 . S
C888 C891 1.387 . S
H889 C885 0.950 . S
H890 C887 0.950 . S
C891 C882 1.390 . S
C891 H884 0.950 . S
C891 C888 1.387 . S
C892 C893 1.387 . S
C892 H896 0.950 . S
C892 C901 1.390 . S
C893 C892 1.387 . S
C893 C895 1.387 . S
H894 C901 0.950 . S
C895 C893 1.387 . S
C895 C897 1.390 . S
C895 H899 0.950 . S
H896 C892 0.950 . S
C897 C895 1.390 . S
C897 C898 1.387 . S
C897 H900 0.950 . S
C898 C897 1.387 . S
C898 C901 1.387 . S
H899 C895 0.950 . S
H900 C897 0.950 . S
C901 C892 1.390 . S
C901 H894 0.950 . S
C901 C898 1.387 . S
C902 C903 1.387 . S
C902 H906 0.950 . S
C902 C911 1.390 . S
C903 C902 1.387 . S
C903 C905 1.387 . S
H904 C911 0.950 . S
C905 C903 1.387 . S
C905 C907 1.390 . S
C905 H909 0.950 . S
H906 C902 0.950 . S
C907 C905 1.390 . S
C907 C908 1.387 . S
C907 H910 0.950 . S
C908 C907 1.387 . S
C908 C911 1.387 . S
H909 C905 0.950 . S
H910 C907 0.950 . S
C911 C902 1.390 . S
C911 H904 0.950 . S
C911 C908 1.387 . S
C912 C913 1.387 1_554 S
C912 H916 0.950 . S
C912 C921 1.390 . S
C913 C912 1.387 1_556 S
C913 C915 1.387 1_556 S
H914 C921 0.950 . S
C915 C913 1.387 1_554 S
C915 C917 1.390 . S
C915 H919 0.950 1_554 S
H916 C912 0.950 . S
C917 C915 1.390 . S
C917 C918 1.387 . S
C917 H920 0.950 . S
C918 C917 1.387 . S
C918 C921 1.387 . S
H919 C915 0.950 1_556 S
H920 C917 0.950 . S
C921 C912 1.390 . S
C921 H914 0.950 . S
C921 C918 1.387 . S
C922 C923 1.387 . S
C922 H926 0.950 . S
C922 C931 1.390 . S
C923 C922 1.387 . S
C923 C925 1.387 . S
H924 C931 0.950 . S
C925 C923 1.387 . S
C925 C927 1.390 . S
C925 H929 0.950 . S
H926 C922 0.950 . S
C927 C925 1.390 . S
C927 C928 1.387 1_556 S
C927 H930 0.950 1_556 S
C928 C927 1.387 1_554 S
C928 C931 1.387 1_554 S
H929 C925 0.950 . S
H930 C927 0.950 1_554 S
C931 C922 1.390 . S
C931 H924 0.950 . S
C931 C928 1.387 1_556 S
C932 C933 1.387 . S
C932 H936 0.950 . S
C932 C941 1.390 . S
C933 C932 1.387 . S
C933 C935 1.387 . S
H934 C941 0.950 1_556 S
C935 C933 1.387 . S
C935 C937 1.390 . S
C935 H939 0.950 . S
H936 C932 0.950 . S
C937 C935 1.390 . S
C937 C938 1.387 1_554 S
C937 H940 0.950 . S
C938 C937 1.387 1_556 S
C938 C941 1.387 1_556 S
H939 C935 0.950 . S
H940 C937 0.950 . S
C941 C932 1.390 . S
C941 H934 0.950 1_554 S
C941 C938 1.387 1_554 S
C942 C943 1.387 1_556 S
C942 H946 0.950 1_556 S
C942 C951 1.390 . S
C943 C942 1.387 1_554 S
C943 C945 1.387 1_554 S
H944 C951 0.950 . S
C945 C943 1.387 1_556 S
C945 C947 1.390 . S
C945 H949 0.950 . S
H946 C942 0.950 1_554 S
C947 C945 1.390 . S
C947 C948 1.387 . S
C947 H950 0.950 . S
C948 C947 1.387 . S
C948 C951 1.387 . S
H949 C945 0.950 . S
H950 C947 0.950 . S
C951 C942 1.390 . S
C951 H944 0.950 . S
C951 C948 1.387 . S
C952 C953 1.387 . S
C952 H956 0.950 . S
C952 C961 1.390 . S
C953 C952 1.387 . S
C953 C955 1.387 . S
H954 C961 0.950 . S
C955 C953 1.387 . S
C955 C957 1.390 . S
C955 H959 0.950 . S
H956 C952 0.950 . S
C957 C955 1.390 . S
C957 C958 1.391 . S
C957 H960 0.950 . S
C958 C957 1.391 . S
C958 C961 1.391 . S
H959 C955 0.950 . S
H960 C957 0.950 . S
C961 C952 1.390 . S
C961 H954 0.950 . S
C961 C958 1.391 . S
C962 C963 1.390 . S
C962 H966 0.950 . S
C962 C971 1.390 . S
C963 C962 1.390 . S
C963 C965 1.391 . S
H964 C971 0.950 . S
C965 C963 1.391 . S
C965 C967 1.390 . S
C965 H969 0.950 . S
H966 C962 0.950 . S
C967 C965 1.390 . S
C967 C968 1.387 . S
C967 H970 0.950 . S
C968 C967 1.387 . S
C968 C971 1.387 . S
H969 C965 0.950 . S
H970 C967 0.950 . S
C971 C962 1.390 . S
C971 H964 0.950 . S
C971 C968 1.387 . S
C972 C973 1.390 . S
C972 H976 0.950 . S
C972 C981 1.390 . S
C973 C972 1.390 . S
C973 C975 1.390 . S
H974 C981 0.950 . S
C975 C973 1.390 . S
C975 C977 1.390 . S
C975 H979 0.950 . S
H976 C972 0.950 . S
C977 C975 1.390 . S
C977 C978 1.387 . S
C977 H980 0.950 . S
C978 C977 1.387 . S
C978 C981 1.387 . S
H979 C975 0.950 . S
H980 C977 0.950 . S
C981 C972 1.390 . S
C981 H974 0.950 . S
C981 C978 1.387 . S
C982 C983 1.387 . S
C982 H986 0.950 . S
C982 C991 1.390 . S
C983 C982 1.387 . S
C983 C985 1.387 . S
H984 C991 0.950 . S
C985 C983 1.387 . S
C985 C987 1.390 . S
C985 H989 0.950 . S
H986 C982 0.950 . S
C987 C985 1.390 . S
C987 C988 1.390 . S
C987 H990 0.950 . S
C988 C987 1.390 . S
C988 C991 1.391 . S
H989 C985 0.950 . S
H990 C987 0.950 . S
C991 C982 1.390 . S
C991 H984 0.950 . S
C991 C988 1.391 . S
C513 C381 1.603 . S
C518 N13 1.613 . S
C523 C285 1.603 . S
C528 N45 1.612 . S
C533 N82 1.612 . S
C538 C317 1.602 . S
C543 N114 1.612 . S
C548 C324 1.603 . S
C553 N141 1.612 . S
C558 C164 1.602 . S
C563 C221 1.603 . S
C568 N178 1.612 . S
C573 N205 1.613 . S
C578 C253 1.603 . S
C583 C157 1.602 . S
C588 N237 1.612 . S
C593 C100 1.604 . S
C598 N269 1.613 . S
C603 N301 1.612 . S
C608 C29 1.602 . S
C613 C61 1.604 . S
C618 N338 1.612 . S
C623 C68 1.602 . S
C628 N365 1.613 . S
C633 N402 1.613 . S
C638 C445 1.604 . S
C643 C477 1.602 . S
C648 N429 1.613 . S
C653 C484 1.604 . S
C658 N461 1.613 . S
C663 N498 1.612 . S
C668 C388 1.604 . S
C673 N18 1.228 . S
C678 N146 1.228 . S
C683 N173 1.224 . S
C688 N50 1.224 . S
C693 N77 1.224 . S
C698 N210 1.224 . S
C703 N109 1.224 . S
C708 N242 1.224 . S
C713 N274 1.224 . S
C718 N397 1.224 . S
C723 N434 1.228 . S
C728 N306 1.228 . S
C733 N333 1.224 . S
C738 N466 1.224 . S
C743 N370 1.228 . S
C748 N493 1.228 . S
C753 C450 2.188 . S
C758 C2 2.188 1_556 S
C763 C34 2.186 1_554 S
C768 C486 2.186 . S
C773 C70 2.188 1_556 S
C778 C390 2.188 . S
C783 C102 2.186 1_554 S
C788 C418 2.186 . S
C793 C130 2.187 . S
C798 C326 2.187 . S
C803 C166 2.186 . S
C808 C354 2.186 . S
C813 C194 2.186 . S
C818 C258 2.186 . S
C823 C290 2.186 . S
C828 C226 2.186 . S
C833 C6 1.173 . S
C838 C4 1.176 . S
C843 C38 1.172 . S
C848 C36 1.175 . S
C853 C66 1.173 . S
C858 C93 1.176 . S
C863 C125 1.176 . S
C868 C98 1.173 . S
C873 C132 1.176 . S
C878 C134 1.173 . S
C883 C162 1.173 . S
C888 C189 1.175 . S
C893 C198 1.173 . S
C898 C196 1.176 . S
C903 C228 1.175 . S
C908 C230 1.172 . S
C913 C262 1.173 . S
C918 C260 1.176 . S
C923 C292 1.176 . S
C928 C294 1.173 . S
C933 C349 1.175 . S
C938 C322 1.172 . S
C943 C358 1.172 . S
C948 C356 1.175 . S
C953 C386 1.173 . S
C958 C413 1.169 1_554 S
C963 C420 1.169 1_556 S
C968 C422 1.173 . S
C973 C452 1.170 1_554 S
C978 C454 1.172 . S
C983 C482 1.173 . S
C988 C509 1.169 1_556 S
