# Generated by pormake.
# Topology umg, (4)-cn, num edge types: 1
# Building blocks:
#     Node 0, Type 0, BuildingBlock: QUQFOY_clean_sbu_3, # of connection points: 4
#     Node 1, Type 0, BuildingBlock: QUQFOY_clean_sbu_3, # of connection points: 4
#     Node 2, Type 0, BuildingBlock: QUQFOY_clean_sbu_3, # of connection points: 4
#     Node 3, Type 0, BuildingBlock: QUQFOY_clean_sbu_3, # of connection points: 4
#     Node 4, Type 0, BuildingBlock: QUQFOY_clean_sbu_3, # of connection points: 4
#     Node 5, Type 0, BuildingBlock: QUQFOY_clean_sbu_3, # of connection points: 4
#     Node 6, Type 0, BuildingBlock: QUQFOY_clean_sbu_3, # of connection points: 4
#     Node 7, Type 0, BuildingBlock: QUQFOY_clean_sbu_3, # of connection points: 4
#     Node 8, Type 0, BuildingBlock: QUQFOY_clean_sbu_3, # of connection points: 4
#     Node 9, Type 0, BuildingBlock: QUQFOY_clean_sbu_3, # of connection points: 4
#     Node 10, Type 0, BuildingBlock: QUQFOY_clean_sbu_3, # of connection points: 4
#     Node 11, Type 0, BuildingBlock: QUQFOY_clean_sbu_3, # of connection points: 4
#     Edge 12, Type (0, 0), BuildingBlock: EZIPEK_clean_linker_0, # of connection points: 2
#     Edge 13, Type (0, 0), BuildingBlock: EZIPEK_clean_linker_0, # of connection points: 2
#     Edge 14, Type (0, 0), BuildingBlock: EZIPEK_clean_linker_0, # of connection points: 2
#     Edge 15, Type (0, 0), BuildingBlock: EZIPEK_clean_linker_0, # of connection points: 2
#     Edge 16, Type (0, 0), BuildingBlock: EZIPEK_clean_linker_0, # of connection points: 2
#     Edge 17, Type (0, 0), BuildingBlock: EZIPEK_clean_linker_0, # of connection points: 2
#     Edge 18, Type (0, 0), BuildingBlock: EZIPEK_clean_linker_0, # of connection points: 2
#     Edge 19, Type (0, 0), BuildingBlock: EZIPEK_clean_linker_0, # of connection points: 2
#     Edge 20, Type (0, 0), BuildingBlock: EZIPEK_clean_linker_0, # of connection points: 2
#     Edge 21, Type (0, 0), BuildingBlock: EZIPEK_clean_linker_0, # of connection points: 2
#     Edge 22, Type (0, 0), BuildingBlock: EZIPEK_clean_linker_0, # of connection points: 2
#     Edge 23, Type (0, 0), BuildingBlock: EZIPEK_clean_linker_0, # of connection points: 2
#     Edge 24, Type (0, 0), BuildingBlock: EZIPEK_clean_linker_0, # of connection points: 2
#     Edge 25, Type (0, 0), BuildingBlock: EZIPEK_clean_linker_0, # of connection points: 2
#     Edge 26, Type (0, 0), BuildingBlock: EZIPEK_clean_linker_0, # of connection points: 2
#     Edge 27, Type (0, 0), BuildingBlock: EZIPEK_clean_linker_0, # of connection points: 2
#     Edge 28, Type (0, 0), BuildingBlock: EZIPEK_clean_linker_0, # of connection points: 2
#     Edge 29, Type (0, 0), BuildingBlock: EZIPEK_clean_linker_0, # of connection points: 2
#     Edge 30, Type (0, 0), BuildingBlock: EZIPEK_clean_linker_0, # of connection points: 2
#     Edge 31, Type (0, 0), BuildingBlock: EZIPEK_clean_linker_0, # of connection points: 2
#     Edge 32, Type (0, 0), BuildingBlock: EZIPEK_clean_linker_0, # of connection points: 2
#     Edge 33, Type (0, 0), BuildingBlock: EZIPEK_clean_linker_0, # of connection points: 2
#     Edge 34, Type (0, 0), BuildingBlock: EZIPEK_clean_linker_0, # of connection points: 2
#     Edge 35, Type (0, 0), BuildingBlock: EZIPEK_clean_linker_0, # of connection points: 2
# Relax obj value: 0.087
# Max RMSD: 0.350
# Mean RMSD: 0.213
data_MOF--net-umg--node1-QUQFOY_clean_sbu_3--edge1-EZIPEK_clean_linker_0
_symmetry_space_group_name_H-M    P1
_symmetry_Int_Tables_number       1
_symmetry_cell_setting            triclinic
loop_
_symmetry_equiv_pos_as_xyz
'x, y, z'
_cell_length_a     21.444485
_cell_length_b     21.418249
_cell_length_c     59.282696
_cell_angle_alpha  89.860621
_cell_angle_beta   90.041986
_cell_angle_gamma 120.0501
loop_
_atom_site_label
_atom_site_type_symbol
_atom_site_fract_x
_atom_site_fract_y
_atom_site_fract_z
_atom_type_partial_charge
C0 C 0.36356 0.52637 0.15123 0.0
O1 O 0.36686 0.58607 0.14704 0.0
Cd2 Cd 0.36379 0.62442 0.10943 0.0
O3 O 0.36883 0.4892 0.13543 0.0
Cd4 Cd 0.3953 0.50552 0.09457 0.0
C5 C 0.22456 0.46729 0.08771 0.0
O6 O 0.46525 0.63734 0.08883 0.0
O7 O 0.40919 0.57052 0.06001 0.0
O8 O 0.49747 0.48738 0.10077 0.0
C9 C 0.45468 0.63187 0.06769 0.0
O10 O 0.2479 0.53226 0.09379 0.0
C11 C 0.47928 0.43893 0.08586 0.0
O12 O 0.26553 0.44013 0.08738 0.0
O13 O 0.42062 0.41922 0.07538 0.0
C14 C 0.39258 0.28935 0.41464 0.0
O15 O 0.34547 0.2771 0.39972 0.0
Cd16 Cd 0.34422 0.2024 0.36849 0.0
O17 O 0.44001 0.27182 0.41125 0.0
Cd18 Cd 0.48507 0.22348 0.38316 0.0
C19 C 0.34558 0.06224 0.39568 0.0
O20 O 0.45281 0.24932 0.34555 0.0
O21 O 0.47994 0.16426 0.34898 0.0
O22 O 0.59461 0.33824 0.38632 0.0
C23 C 0.46765 0.20461 0.3363 0.0
O24 O 0.30999 0.08315 0.38378 0.0
C25 C 0.63377 0.31278 0.39279 0.0
O26 O 0.41207 0.10423 0.39992 0.0
O27 O 0.60443 0.24452 0.39441 0.0
C28 C 0.52313 0.89147 0.8162 0.0
O29 O 0.46798 0.82898 0.81539 0.0
Cd30 Cd 0.41513 0.77021 0.78038 0.0
O31 O 0.54939 0.92852 0.79838 0.0
Cd32 Cd 0.51759 0.91393 0.75809 0.0
C33 C 0.5636 0.78586 0.7537 0.0
O34 O 0.38426 0.84332 0.75744 0.0
O35 O 0.44208 0.84835 0.72684 0.0
O36 O 0.52863 0.03212 0.76032 0.0
C37 C 0.38292 0.83161 0.73641 0.0
O38 O 0.50215 0.74425 0.76241 0.0
C39 C 0.5728 0.05943 0.74412 0.0
O40 O 0.58693 0.85313 0.75133 0.0
O41 O 0.59289 0.01969 0.73436 0.0
C42 C 0.70884 0.11258 0.08554 0.0
O43 O 0.72331 0.08066 0.07019 0.0
Cd44 Cd 0.78631 0.15143 0.03707 0.0
O45 O 0.71905 0.17553 0.08228 0.0
Cd46 Cd 0.7569 0.26823 0.05333 0.0
C47 C 0.92534 0.30123 0.0615 0.0
O48 O 0.726 0.20428 0.01662 0.0
O49 O 0.80543 0.31883 0.01732 0.0
O50 O 0.64217 0.26211 0.05993 0.0
C51 C 0.76573 0.26272 0.00593 0.0
O52 O 0.90563 0.24463 0.04979 0.0
C53 C 0.66881 0.32854 0.06435 0.0
O54 O 0.8809 0.32161 0.06703 0.0
O55 O 0.73703 0.36803 0.06371 0.0
C56 C 0.0974 0.62351 0.48999 0.0
O57 O 0.15863 0.62812 0.48908 0.0
Cd58 Cd 0.21534 0.63125 0.45385 0.0
O59 O 0.06053 0.61373 0.47223 0.0
Cd60 Cd 0.07424 0.59477 0.43202 0.0
C61 C 0.20551 0.76729 0.42714 0.0
O62 O 0.14096 0.52822 0.43069 0.0
O63 O 0.13841 0.58428 0.40045 0.0
O64 O 0.95604 0.48769 0.43355 0.0
C65 C 0.15254 0.53936 0.40965 0.0
O66 O 0.24577 0.74573 0.4358 0.0
C67 C 0.92893 0.50733 0.41801 0.0
O68 O 0.138 0.72482 0.42491 0.0
O69 O 0.96873 0.5687 0.40901 0.0
C70 C 0.89084 0.59037 0.7472 0.0
O71 O 0.93049 0.63803 0.73295 0.0
Cd72 Cd 0.86596 0.64688 0.70031 0.0
O73 O 0.82603 0.54542 0.74242 0.0
Cd74 Cd 0.741 0.50682 0.71166 0.0
C75 C 0.72095 0.64725 0.72399 0.0
O76 O 0.80888 0.54225 0.67562 0.0
O77 O 0.69733 0.51814 0.67601 0.0
O78 O 0.7435 0.39613 0.71562 0.0
C79 C 0.75247 0.52999 0.66478 0.0
O80 O 0.78061 0.68331 0.71362 0.0
C81 C 0.67697 0.35655 0.71987 0.0
O82 O 0.69348 0.5798 0.72738 0.0
O83 O 0.63825 0.38621 0.71989 0.0
C84 C 0.08661 0.69968 0.57866 0.0
O85 O 0.05186 0.71433 0.59294 0.0
Cd86 Cd 0.12135 0.78331 0.62539 0.0
O87 O 0.15009 0.71334 0.58287 0.0
Cd88 Cd 0.2427 0.75738 0.61133 0.0
C89 C 0.26955 0.92237 0.59984 0.0
O90 O 0.17504 0.72598 0.64726 0.0
O91 O 0.28916 0.80681 0.64739 0.0
O92 O 0.23696 0.64267 0.60548 0.0
C93 C 0.2322 0.76622 0.65835 0.0
O94 O 0.21158 0.90201 0.61089 0.0
C95 C 0.30332 0.66899 0.60113 0.0
O96 O 0.29316 0.87939 0.59601 0.0
O97 O 0.34308 0.73728 0.60173 0.0
C98 C 0.88331 0.51302 0.83831 0.0
O99 O 0.8213 0.45833 0.84117 0.0
Cd100 Cd 0.77008 0.41515 0.87798 0.0
O101 O 0.92417 0.54409 0.85506 0.0
Cd102 Cd 0.91768 0.5256 0.89634 0.0
C103 C 0.78765 0.56955 0.90059 0.0
O104 O 0.84639 0.39342 0.90264 0.0
O105 O 0.85855 0.46427 0.93049 0.0
O106 O 0.0337 0.53112 0.89573 0.0
C107 C 0.8386 0.40116 0.92353 0.0
O108 O 0.74543 0.50569 0.89369 0.0
C109 C 0.06536 0.58571 0.90847 0.0
O110 O 0.85542 0.59451 0.90193 0.0
O111 O 0.02896 0.61374 0.91553 0.0
C112 C 0.2889 0.41791 0.24258 0.0
O113 O 0.33543 0.43505 0.25796 0.0
Cd114 Cd 0.2456 0.36605 0.28792 0.0
O115 O 0.22428 0.39006 0.24887 0.0
Cd116 Cd 0.23158 0.45627 0.28435 0.0
C117 C 0.07855 0.33004 0.27158 0.0
O118 O 0.26213 0.42805 0.32287 0.0
O119 O 0.17438 0.45134 0.31897 0.0
O120 O 0.35128 0.56035 0.27784 0.0
C121 C 0.21642 0.44207 0.33182 0.0
O122 O 0.11531 0.29998 0.27645 0.0
C123 C 0.32936 0.60428 0.27358 0.0
O124 O 0.10787 0.39824 0.27249 0.0
O125 O 0.26181 0.58018 0.27471 0.0
C126 C 0.46926 0.36323 0.5044 0.0
O127 O 0.52437 0.35628 0.50636 0.0
Cd128 Cd 0.57526 0.35297 0.54219 0.0
O129 O 0.44087 0.37432 0.5216 0.0
Cd130 Cd 0.46748 0.39034 0.56246 0.0
C131 C 0.42704 0.2175 0.56819 0.0
O132 O 0.60095 0.45559 0.56498 0.0
O133 O 0.53946 0.40079 0.59487 0.0
O134 O 0.45432 0.49656 0.56015 0.0
C135 C 0.59971 0.44432 0.58607 0.0
O136 O 0.49007 0.23957 0.56048 0.0
C137 C 0.40782 0.47742 0.57574 0.0
O138 O 0.40091 0.25937 0.56934 0.0
O139 O 0.38722 0.41668 0.58508 0.0
C140 C 0.60976 0.91113 0.90548 0.0
O141 O 0.65938 0.94817 0.91947 0.0
Cd142 Cd 0.66247 0.88256 0.95255 0.0
O143 O 0.56094 0.84762 0.91034 0.0
Cd144 Cd 0.51497 0.75833 0.93992 0.0
C145 C 0.65319 0.73221 0.92884 0.0
O146 O 0.55334 0.82836 0.97526 0.0
O147 O 0.52186 0.71457 0.97605 0.0
O148 O 0.40399 0.76125 0.93625 0.0
C149 C 0.53812 0.77201 0.98667 0.0
O150 O 0.69128 0.79208 0.93889 0.0
C151 C 0.36486 0.69544 0.93094 0.0
O152 O 0.58605 0.70675 0.92556 0.0
O153 O 0.39496 0.65718 0.93014 0.0
C154 C 0.63911 0.09138 0.17721 0.0
O155 O 0.64647 0.15314 0.18062 0.0
Cd156 Cd 0.64951 0.20144 0.21719 0.0
O157 O 0.62746 0.04799 0.19349 0.0
Cd158 Cd 0.60919 0.04932 0.23494 0.0
C159 C 0.78235 0.18013 0.24194 0.0
O160 O 0.54557 0.11838 0.23833 0.0
O161 O 0.59665 0.10672 0.2683 0.0
O162 O 0.50118 0.93028 0.23328 0.0
C163 C 0.55479 0.12562 0.25951 0.0
O164 O 0.76191 0.22276 0.23447 0.0
C165 C 0.52291 0.901 0.24748 0.0
O166 O 0.73928 0.11223 0.2428 0.0
O167 O 0.58579 0.93974 0.25552 0.0
C168 C 0.58172 0.75914 0.02395 0.0
C169 C 0.53105 0.76865 0.01138 0.0
C170 C 0.44476 0.71874 0.0424 0.0
C171 C 0.48877 0.69444 0.05239 0.0
N172 N 0.6019 0.69673 0.05489 0.0
N173 N 0.41795 0.76627 0.00884 0.0
C174 C 0.55915 0.71804 0.04419 0.0
C175 C 0.46435 0.75308 0.02099 0.0
N176 N 0.65044 0.78788 0.01597 0.0
N177 N 0.38377 0.70724 0.0533 0.0
H178 H 0.43241 0.79383 -0.00652 0.0
H179 H 0.3649 0.74845 0.01354 0.0
H180 H 0.3691 0.68209 0.06906 0.0
H181 H 0.35131 0.72756 0.04781 0.0
H182 H 0.69201 0.78712 0.02479 0.0
H183 H 0.66696 0.81811 0.00108 0.0
H184 H 0.65064 0.70503 0.04849 0.0
H185 H 0.58718 0.6684 0.07012 0.0
C186 C 0.42833 0.1459 0.29908 0.0
C187 C 0.4805 0.20427 0.31192 0.0
C188 C 0.5722 0.22806 0.28345 0.0
C189 C 0.52427 0.16072 0.27349 0.0
N190 N 0.40508 0.05787 0.26972 0.0
N191 N 0.59989 0.30614 0.31603 0.0
C192 C 0.45108 0.12121 0.28027 0.0
C193 C 0.55143 0.24826 0.30366 0.0
N194 N 0.35768 0.11343 0.30544 0.0
N195 N 0.63767 0.27166 0.27364 0.0
H196 H 0.58495 0.32352 0.33042 0.0
H197 H 0.65482 0.33546 0.31258 0.0
H198 H 0.65334 0.25748 0.25873 0.0
H199 H 0.67358 0.32382 0.27902 0.0
H200 H 0.31547 0.07327 0.29618 0.0
H201 H 0.341 0.13155 0.31926 0.0
H202 H 0.35314 0.02216 0.27532 0.0
H203 H 0.41999 0.03971 0.25552 0.0
C204 C 0.29303 0.73052 0.71327 0.0
C205 C 0.31609 0.79888 0.72302 0.0
C206 C 0.24457 0.82184 0.69569 0.0
C207 C 0.23678 0.76256 0.68304 0.0
N208 N 0.24345 0.65414 0.68027 0.0
N209 N 0.30788 0.90658 0.72597 0.0
C210 C 0.25596 0.71358 0.69234 0.0
C211 C 0.28813 0.84273 0.71539 0.0
N212 N 0.30874 0.6834 0.72389 0.0
N213 N 0.21213 0.85897 0.68822 0.0
H214 H 0.33803 0.92181 0.74082 0.0
H215 H 0.29626 0.94519 0.71986 0.0
H216 H 0.18026 0.84351 0.6737 0.0
H217 H 0.21162 0.90046 0.69717 0.0
H218 H 0.29015 0.63073 0.71856 0.0
H219 H 0.33588 0.69574 0.73932 0.0
H220 H 0.26333 0.62034 0.68469 0.0
H221 H 0.21405 0.63971 0.66527 0.0
C222 C 0.82293 0.27052 0.96893 0.0
C223 C 0.76533 0.26851 0.98115 0.0
C224 C 0.73816 0.32402 0.9494 0.0
C225 C 0.80461 0.34 0.93948 0.0
N226 N 0.9083 0.32459 0.93809 0.0
N227 N 0.6631 0.28592 0.98301 0.0
C228 C 0.84549 0.31027 0.94839 0.0
C229 C 0.72018 0.29136 0.9711 0.0
N230 N 0.85672 0.23589 0.97743 0.0
N231 N 0.69346 0.34153 0.93808 0.0
H232 H 0.6474 0.25947 -0.00145 0.0
H233 H 0.63278 0.30915 0.97796 0.0
H234 H 0.70608 0.36518 0.92208 0.0
H235 H 0.64194 0.32751 0.94353 0.0
H236 H 0.89619 0.23075 0.96882 0.0
H237 H 0.84044 0.20678 0.99252 0.0
H238 H 0.9452 0.31195 0.94503 0.0
H239 H 0.92485 0.35178 0.9227 0.0
C240 C 0.1509 0.40597 0.36819 0.0
C241 C 0.2144 0.45358 0.35626 0.0
C242 C 0.25019 0.54209 0.38662 0.0
C243 C 0.18004 0.50149 0.39572 0.0
N244 N 0.06455 0.39257 0.39699 0.0
N245 N 0.32796 0.56484 0.35425 0.0
C246 C 0.13125 0.4317 0.38743 0.0
C247 C 0.26623 0.52026 0.36584 0.0
N248 N 0.1092 0.33684 0.36068 0.0
N249 N 0.30048 0.60212 0.39776 0.0
H250 H 0.34219 0.54951 0.33932 0.0
H251 H 0.36373 0.61789 0.35888 0.0
H252 H 0.28905 0.61846 0.41304 0.0
H253 H 0.35444 0.63165 0.39307 0.0
H254 H 0.06461 0.29728 0.36934 0.0
H255 H 0.12344 0.31756 0.34658 0.0
H256 H 0.02306 0.34521 0.39014 0.0
H257 H 0.04976 0.40923 0.41155 0.0
C258 C 0.72211 0.44947 0.63152 0.0
C259 C 0.7452 0.51929 0.64017 0.0
C260 C 0.69587 0.54909 0.60736 0.0
C261 C 0.66517 0.4765 0.60019 0.0
N262 N 0.66668 0.36519 0.6005 0.0
N263 N 0.77524 0.64176 0.63387 0.0
C264 C 0.68503 0.42944 0.61058 0.0
C265 C 0.73983 0.5715 0.627 0.0
N266 N 0.73095 0.40106 0.64418 0.0
N267 N 0.67855 0.59454 0.59639 0.0
H268 H 0.80744 0.65812 0.64832 0.0
H269 H 0.77783 0.68412 0.62449 0.0
H270 H 0.64812 0.57992 0.58161 0.0
H271 H 0.69222 0.64564 0.60219 0.0
H272 H 0.70766 0.34654 0.6403 0.0
H273 H 0.76033 0.41548 0.65918 0.0
H274 H 0.68327 0.32989 0.60626 0.0
H275 H 0.63962 0.35025 0.58506 0.0
C276 C 0.36266 0.43734 0.20725 0.0
C277 C 0.30891 0.44439 0.21905 0.0
C278 C 0.28425 0.49312 0.18505 0.0
C279 C 0.34458 0.49603 0.1743 0.0
N280 N 0.44889 0.48118 0.17651 0.0
N281 N 0.2349 0.50086 0.22052 0.0
C282 C 0.38604 0.47085 0.18573 0.0
C283 C 0.274 0.47818 0.20835 0.0
N284 N 0.38956 0.39674 0.21613 0.0
N285 N 0.2351 0.50238 0.17298 0.0
H286 H 0.23093 0.49792 0.23802 0.0
H287 H 0.21444 0.53159 0.21349 0.0
H288 H 0.23853 0.51063 0.15558 0.0
H289 H 0.1866 0.49349 0.17989 0.0
H290 H 0.42366 0.38413 0.20723 0.0
H291 H 0.37228 0.36972 0.23151 0.0
H292 H 0.48476 0.47039 0.18517 0.0
H293 H 0.46851 0.50676 0.16102 0.0
C294 C 0.34661 0.28128 0.45361 0.0
C295 C 0.39531 0.32385 0.43645 0.0
C296 C 0.47809 0.40701 0.46486 0.0
C297 C 0.43703 0.35614 0.4818 0.0
N298 N 0.3306 0.24574 0.49301 0.0
N299 N 0.50334 0.43085 0.42484 0.0
C300 C 0.36971 0.29441 0.47649 0.0
C301 C 0.45919 0.38884 0.44186 0.0
N302 N 0.27938 0.22711 0.44789 0.0
N303 N 0.53497 0.4724 0.4709 0.0
H304 H 0.48817 0.42058 0.40791 0.0
H305 H 0.55519 0.47398 0.42733 0.0
H306 H 0.54918 0.48691 0.48772 0.0
H307 H 0.56415 0.51432 0.45959 0.0
H308 H 0.23894 0.19741 0.45958 0.0
H309 H 0.26184 0.21649 0.4312 0.0
H310 H 0.28587 0.19537 0.48986 0.0
H311 H 0.34505 0.2539 0.50998 0.0
C312 C 0.62416 0.92147 0.84321 0.0
C313 C 0.55865 0.91989 0.83812 0.0
C314 C 0.5446 0.94344 0.87755 0.0
C315 C 0.60636 0.93848 0.88294 0.0
N316 N 0.71659 0.94504 0.87109 0.0
N317 N 0.46787 0.94923 0.84841 0.0
C318 C 0.6506 0.93595 0.86571 0.0
C319 C 0.52275 0.93785 0.85468 0.0
N320 N 0.65811 0.90409 0.82696 0.0
N321 N 0.50507 0.94954 0.89458 0.0
H322 H 0.45137 0.94569 0.83166 0.0
H323 H 0.44269 0.96774 0.85931 0.0
H324 H 0.52271 0.9579 0.91131 0.0
H325 H 0.45454 0.94435 0.89237 0.0
H326 H 0.70102 0.89563 0.83017 0.0
H327 H 0.64093 0.89416 0.81022 0.0
H328 H 0.75417 0.94926 0.85918 0.0
H329 H 0.73646 0.95513 0.88753 0.0
C330 C 0.7307 0.0802 0.12399 0.0
C331 C 0.68139 0.0793 0.10789 0.0
C332 C 0.594 0.0572 0.13787 0.0
C333 C 0.64843 0.07236 0.154 0.0
N334 N 0.76714 0.09439 0.16333 0.0
N335 N 0.56409 0.06034 0.09848 0.0
C336 C 0.71584 0.08089 0.14736 0.0
C337 C 0.61174 0.06436 0.11454 0.0
N338 N 0.79236 0.08238 0.11687 0.0
N339 N 0.52571 0.03631 0.14502 0.0
H340 H 0.57452 0.06114 0.08125 0.0
H341 H 0.51556 0.05817 0.10206 0.0
H342 H 0.51188 0.03041 0.16209 0.0
H343 H 0.48176 0.01928 0.13429 0.0
H344 H 0.8281 0.07743 0.12758 0.0
H345 H 0.80494 0.08311 0.09986 0.0
H346 H 0.82043 0.11013 0.15963 0.0
H347 H 0.7571 0.0928 0.18059 0.0
C348 C 0.0474 0.59902 0.55158 0.0
C349 C 0.05664 0.66784 0.55647 0.0
C350 C 0.07328 0.69996 0.51648 0.0
C351 C 0.07089 0.63374 0.51185 0.0
N352 N 0.03585 0.51253 0.52305 0.0
N353 N 0.05602 0.7742 0.54394 0.0
C354 C 0.05095 0.58043 0.52883 0.0
C355 C 0.06108 0.71468 0.53891 0.0
N356 N 0.03919 0.55347 0.56896 0.0
N357 N 0.09225 0.75064 0.49983 0.0
H358 H 0.04761 0.78583 0.56035 0.0
H359 H 0.05353 0.80817 0.53184 0.0
H360 H 0.10058 0.74145 0.48313 0.0
H361 H 0.10348 0.8032 0.50265 0.0
H362 H 0.04084 0.50602 0.56709 0.0
H363 H 0.0325 0.56482 0.58562 0.0
H364 H 0.01589 0.46935 0.53427 0.0
H365 H 0.03789 0.49793 0.50639 0.0
C366 C 0.91196 0.49884 0.79846 0.0
C367 C 0.90629 0.54265 0.81526 0.0
C368 C 0.92627 0.63391 0.78664 0.0
C369 C 0.9172 0.58375 0.76965 0.0
N370 N 0.90685 0.47094 0.7586 0.0
N371 N 0.90746 0.65218 0.8258 0.0
C372 C 0.91299 0.51738 0.77537 0.0
C373 C 0.91515 0.61121 0.80958 0.0
N374 N 0.91693 0.43999 0.80469 0.0
N375 N 0.94351 0.70244 0.78076 0.0
H376 H 0.89976 0.63805 0.8428 0.0
H377 H 0.90399 0.69799 0.82231 0.0
H378 H 0.95088 0.72005 0.76406 0.0
H379 H 0.95726 0.74368 0.79238 0.0
H380 H 0.92707 0.40888 0.79345 0.0
H381 H 0.91712 0.4259 0.82155 0.0
H382 H 0.89385 0.41777 0.76139 0.0
H383 H 0.91251 0.48543 0.74158 0.0
C384 C 0.02112 0.34461 0.09128 0.0
C385 C 0.00174 0.3444 0.06838 0.0
C386 C 0.12917 0.41836 0.0579 0.0
C387 C 0.14815 0.42291 0.08101 0.0
N388 N 0.11365 0.39747 0.12011 0.0
N389 N 0.03474 0.38834 0.03027 0.0
C390 C 0.09446 0.38811 0.09784 0.0
C391 C 0.05512 0.38308 0.05175 0.0
N392 N 0.9698 0.30093 0.10655 0.0
N393 N 0.18208 0.44707 0.04185 0.0
H394 H 0.98101 0.36335 0.02516 0.0
H395 H 0.07032 0.42195 0.01794 0.0
H396 H 0.23685 0.47519 0.04579 0.0
H397 H 0.17223 0.43884 0.02461 0.0
H398 H 0.98141 0.29235 0.12293 0.0
H399 H 0.91551 0.26868 0.10239 0.0
H400 H 0.07677 0.38094 0.13332 0.0
H401 H 0.16713 0.4258 0.12546 0.0
C402 C 0.29329 0.97201 0.42713 0.0
C403 C 0.30942 0.98689 0.40386 0.0
C404 C 0.25001 0.8574 0.39566 0.0
C405 C 0.23862 0.84268 0.41912 0.0
N406 N 0.25444 0.88437 0.45758 0.0
N407 N 0.31308 0.94612 0.36627 0.0
C408 C 0.26187 0.89961 0.43499 0.0
C409 C 0.29015 0.93019 0.38816 0.0
N410 N 0.30553 0.02685 0.44153 0.0
N411 N 0.22228 0.80172 0.38055 0.0
H412 H 0.3427 -0.00122 0.36014 0.0
H413 H 0.308 0.90777 0.35454 0.0
H414 H 0.19563 0.74761 0.3854 0.0
H415 H 0.22129 0.80875 0.36321 0.0
H416 H 0.28795 0.01893 0.4582 0.0
H417 H 0.32889 0.08054 0.43637 0.0
H418 H 0.27767 0.92345 0.47008 0.0
H419 H 0.22822 0.83185 0.46394 0.0
C420 C 0.64643 0.7044 0.71552 0.0
C421 C 0.68222 0.68428 0.73163 0.0
C422 C 0.64077 0.73142 0.76227 0.0
C423 C 0.60776 0.75455 0.74606 0.0
N424 N 0.58578 0.77182 0.70726 0.0
N425 N 0.72333 0.6871 0.76964 0.0
C426 C 0.61292 0.74397 0.72265 0.0
C427 C 0.68202 0.7 0.75485 0.0
N428 N 0.6419 0.68288 0.69357 0.0
N429 N 0.63199 0.7389 0.78477 0.0
H430 H 0.75361 0.6635 0.7648 0.0
H431 H 0.73199 0.70426 0.78634 0.0
H432 H 0.6059 0.76553 0.79083 0.0
H433 H 0.64711 0.71564 0.7975 0.0
H434 H 0.60988 0.68846 0.68146 0.0
H435 H 0.66616 0.65425 0.68769 0.0
H436 H 0.59488 0.77333 0.68997 0.0
H437 H 0.55777 0.79802 0.71181 0.0
C438 C 0.40876 0.12218 0.5962 0.0
C439 C 0.38495 0.14238 0.5766 0.0
C440 C 0.28326 0.01887 0.57288 0.0
C441 C 0.31011 0.99763 0.59151 0.0
N442 N 0.40173 0.02576 0.61963 0.0
N443 N 0.30614 0.10957 0.5444 0.0
C444 C 0.37404 0.04834 0.60275 0.0
C445 C 0.32367 0.0907 0.56448 0.0
N446 N 0.46275 0.1742 0.60906 0.0
N447 N 0.21895 0.97033 0.56328 0.0
H448 H 0.33429 0.1617 0.53781 0.0
H449 H 0.26726 0.07284 0.53341 0.0
H450 H 0.18992 0.91619 0.56807 0.0
H451 H 0.19208 0.9843 0.55147 0.0
H452 H 0.47767 0.16443 0.6248 0.0
H453 H 0.48915 0.2289 0.60488 0.0
H454 H 0.4524 0.05801 0.62672 0.0
H455 H 0.37602 0.97289 0.62569 0.0
C456 C 0.68724 0.63825 0.9363 0.0
C457 C 0.68759 0.69068 0.92156 0.0
C458 C 0.7608 0.66959 0.89418 0.0
C459 C 0.75617 0.61361 0.90821 0.0
N460 N 0.71072 0.53949 0.94159 0.0
N461 N 0.71733 0.75239 0.88577 0.0
C462 C 0.71809 0.59644 0.92899 0.0
C463 C 0.72255 0.70547 0.9003 0.0
N464 N 0.65919 0.63004 0.95755 0.0
N465 N 0.8022 0.68862 0.8751 0.0
H466 H 0.69084 0.78051 0.88991 0.0
H467 H 0.73484 0.76019 0.8691 0.0
H468 H 0.82869 0.66171 0.86972 0.0
H469 H 0.81422 0.73367 0.86531 0.0
H470 H 0.6644 0.59888 0.97009 0.0
H471 H 0.63443 0.65836 0.96327 0.0
H472 H 0.67638 0.51834 0.9554 0.0
H473 H 0.73624 0.51036 0.93757 0.0
C474 C 0.94764 0.24516 0.27963 0.0
C475 C 0.00305 0.28622 0.26382 0.0
C476 C 0.91411 0.24537 0.23323 0.0
C477 C 0.85812 0.21109 0.24938 0.0
N478 N 0.8197 0.18339 0.28813 0.0
N479 N 0.04022 0.33005 0.22585 0.0
C480 C 0.87432 0.21156 0.27263 0.0
C481 C 0.98661 0.28756 0.24067 0.0
N482 N 0.96516 0.23867 0.30136 0.0
N483 N 0.89793 0.23553 0.21073 0.0
H484 H 0.0945 0.35858 0.23032 0.0
H485 H 0.0308 0.34054 0.20943 0.0
H486 H 0.84541 0.20445 0.20471 0.0
H487 H 0.93655 0.25262 0.19803 0.0
H488 H 0.92815 0.20318 0.31307 0.0
H489 H 0.01796 0.26531 0.30738 0.0
H490 H 0.82788 0.18949 0.30548 0.0
H491 H 0.7654 0.15794 0.28367 0.0
C492 C 0.58615 0.34168 0.09123 0.0
C493 C 0.62159 0.35818 0.07001 0.0
C494 C 0.56637 0.43053 0.05969 0.0
C495 C 0.5268 0.40963 0.08019 0.0
N496 N 0.49093 0.33844 0.11424 0.0
N497 N 0.63806 0.40865 0.03263 0.0
C498 C 0.53455 0.36336 0.09567 0.0
C499 C 0.60978 0.40007 0.05384 0.0
N500 N 0.60347 0.3071 0.10735 0.0
N501 N 0.56453 0.48154 0.04622 0.0
H502 H 0.67092 0.38794 0.02781 0.0
H503 H 0.62464 0.43139 0.01929 0.0
H504 H 0.533 0.50478 0.04982 0.0
H505 H 0.5984 0.5051 0.03241 0.0
H506 H 0.5855 0.30022 0.12396 0.0
H507 H 0.6406 0.28994 0.10462 0.0
H508 H 0.48824 0.29854 0.12493 0.0
H509 H 0.45291 0.35365 0.11807 0.0
C510 C 0.72494 0.41037 0.41744 0.0
C511 C 0.70962 0.36174 0.39924 0.0
C512 C 0.83868 0.40781 0.39364 0.0
C513 C 0.85385 0.45974 0.41074 0.0
N514 N 0.8136 0.5185 0.43673 0.0
N515 N 0.75066 0.32142 0.36757 0.0
C516 C 0.79755 0.4635 0.42196 0.0
C517 C 0.76614 0.36219 0.38669 0.0
N518 N 0.67027 0.40366 0.431 0.0
N519 N 0.89352 0.4013 0.38436 0.0
H520 H 0.69819 0.28756 0.36191 0.0
H521 H 0.78972 0.32535 0.35631 0.0
H522 H 0.94758 0.43562 0.38842 0.0
H523 H 0.88533 0.35915 0.37377 0.0
H524 H 0.67854 0.43244 0.44589 0.0
H525 H 0.61641 0.36461 0.42852 0.0
H526 H 0.77511 0.52899 0.44359 0.0
H527 H 0.86633 0.55751 0.44079 0.0
C528 C 0.67102 0.26368 0.74663 0.0
C529 C 0.64782 0.28014 0.72616 0.0
C530 C 0.57311 0.15127 0.71776 0.0
C531 C 0.60055 0.13523 0.73736 0.0
N532 N 0.68307 0.17487 0.76873 0.0
N533 N 0.58555 0.24185 0.69059 0.0
C534 C 0.65162 0.19112 0.75133 0.0
C535 C 0.60104 0.22454 0.71127 0.0
N536 N 0.70962 0.31723 0.7619 0.0
N537 N 0.51887 0.09653 0.70576 0.0
H538 H 0.60449 0.29494 0.6854 0.0
H539 H 0.55846 0.20417 0.67795 0.0
H540 H 0.49804 0.0422 0.70979 0.0
H541 H 0.49096 0.10482 0.69281 0.0
H542 H 0.72173 0.30779 0.77812 0.0
H543 H 0.72461 0.37109 0.75913 0.0
H544 H 0.72644 0.21358 0.778 0.0
H545 H 0.66979 0.12218 0.77277 0.0
C546 C 0.3132 0.58707 0.57324 0.0
C547 C 0.33175 0.62138 0.59461 0.0
C548 C 0.40222 0.56291 0.6034 0.0
C549 C 0.3795 0.52478 0.5827 0.0
N550 N 0.30549 0.49162 0.54934 0.0
N551 N 0.38454 0.63498 0.63146 0.0
C552 C 0.33282 0.53444 0.56798 0.0
C553 C 0.37382 0.60749 0.6101 0.0
N554 N 0.27869 0.60649 0.55772 0.0
N555 N 0.45287 0.55845 0.61625 0.0
H556 H 0.36542 0.66869 0.63684 0.0
H557 H 0.40764 0.6203 0.64437 0.0
H558 H 0.47422 0.52565 0.61203 0.0
H559 H 0.47773 0.59108 0.63018 0.0
H560 H 0.27048 0.58939 0.54101 0.0
H561 H 0.2631 0.64457 0.561 0.0
H562 H 0.26516 0.49035 0.53924 0.0
H563 H 0.3189 0.45265 0.54494 0.0
C564 C 0.23337 0.60843 0.93785 0.0
C565 C 0.28796 0.66604 0.9251 0.0
C566 C 0.19599 0.67636 0.90338 0.0
C567 C 0.14168 0.61489 0.91479 0.0
N568 N 0.10728 0.51648 0.94094 0.0
N569 N 0.32216 0.74682 0.89315 0.0
C570 C 0.16 0.57899 0.93141 0.0
C571 C 0.26956 0.69812 0.90721 0.0
N572 N 0.25133 0.58427 0.95678 0.0
N573 N 0.17724 0.71412 0.88894 0.0
H574 H 0.37651 0.7628 0.89496 0.0
H575 H 0.31158 0.76649 0.87843 0.0
H576 H 0.1239 0.69824 0.88504 0.0
H577 H 0.21417 0.76403 0.88211 0.0
H578 H 0.2136 0.54801 0.96819 0.0
H579 H 0.30434 0.60506 0.96222 0.0
H580 H 0.11788 0.48321 0.95113 0.0
H581 H 0.0526 0.49518 0.93752 0.0
C582 C 0.41874 0.69562 0.24646 0.0
C583 C 0.38068 0.68029 0.26725 0.0
C584 C 0.44218 0.80975 0.2761 0.0
C585 C 0.47592 0.82505 0.25459 0.0
N586 N 0.49231 0.78485 0.21831 0.0
N587 N 0.35256 0.72121 0.30158 0.0
C588 C 0.46305 0.76857 0.2395 0.0
C589 C 0.39137 0.73702 0.28199 0.0
N590 N 0.41335 0.64038 0.2335 0.0
N591 N 0.45936 0.86489 0.29094 0.0
H592 H 0.31877 0.66863 0.30725 0.0
H593 H 0.35093 0.75968 0.31185 0.0
H594 H 0.4936 0.919 0.28685 0.0
H595 H 0.44322 0.85746 0.30774 0.0
H596 H 0.44561 0.64753 0.21953 0.0
H597 H 0.37965 0.58632 0.23754 0.0
H598 H 0.47798 0.74712 0.20544 0.0
H599 H 0.52829 0.83736 0.21302 0.0
loop_
_geom_bond_atom_site_label_1
_geom_bond_atom_site_label_2
_geom_bond_distance
_geom_bond_site_symmetry_2
_ccdc_geom_bond_type
C0 O1 1.306 . S
C0 O3 1.160 . S
O1 C0 1.306 . S
O1 Cd2 2.228 . S
Cd2 O1 2.228 . S
Cd2 O6 2.273 . S
Cd2 O10 2.277 . S
O3 C0 1.160 . S
O3 Cd4 2.203 . S
Cd4 O3 2.203 . S
Cd4 O6 2.411 . S
Cd4 O7 2.333 . S
Cd4 O8 2.352 . S
Cd4 O12 2.277 . S
Cd4 O13 2.356 . S
C5 O10 1.209 . S
C5 O12 1.226 . S
O6 Cd2 2.273 . S
O6 Cd4 2.411 . S
O6 C9 1.320 . S
O7 Cd4 2.333 . S
O7 C9 1.214 . S
O8 Cd4 2.352 . S
O8 C11 1.258 . S
C9 O6 1.320 . S
C9 O7 1.214 . S
O10 Cd2 2.277 . S
O10 C5 1.209 . S
C11 O8 1.258 . S
C11 O13 1.282 . S
O12 Cd4 2.277 . S
O12 C5 1.226 . S
O13 Cd4 2.356 . S
O13 C11 1.282 . S
C14 O15 1.306 . S
C14 O17 1.160 . S
O15 C14 1.306 . S
O15 Cd16 2.228 . S
Cd16 O15 2.228 . S
Cd16 O20 2.273 . S
Cd16 O24 2.277 . S
O17 C14 1.160 . S
O17 Cd18 2.203 . S
Cd18 O17 2.203 . S
Cd18 O20 2.411 . S
Cd18 O21 2.333 . S
Cd18 O22 2.352 . S
Cd18 O26 2.277 . S
Cd18 O27 2.356 . S
C19 O24 1.209 . S
C19 O26 1.226 . S
O20 Cd16 2.273 . S
O20 Cd18 2.411 . S
O20 C23 1.320 . S
O21 Cd18 2.333 . S
O21 C23 1.214 . S
O22 Cd18 2.352 . S
O22 C25 1.258 . S
C23 O20 1.320 . S
C23 O21 1.214 . S
O24 Cd16 2.277 . S
O24 C19 1.209 . S
C25 O22 1.258 . S
C25 O27 1.282 . S
O26 Cd18 2.277 . S
O26 C19 1.226 . S
O27 Cd18 2.356 . S
O27 C25 1.282 . S
C28 O29 1.306 . S
C28 O31 1.160 . S
O29 C28 1.306 . S
O29 Cd30 2.228 . S
Cd30 O29 2.228 . S
Cd30 O34 2.273 . S
Cd30 O38 2.277 . S
O31 C28 1.160 . S
O31 Cd32 2.203 . S
Cd32 O31 2.203 . S
Cd32 O34 2.411 . S
Cd32 O35 2.333 . S
Cd32 O36 2.352 . S
Cd32 O40 2.277 . S
Cd32 O41 2.356 . S
C33 O38 1.209 . S
C33 O40 1.226 . S
O34 Cd30 2.273 . S
O34 Cd32 2.411 . S
O34 C37 1.320 . S
O35 Cd32 2.333 . S
O35 C37 1.214 . S
O36 Cd32 2.352 . S
O36 C39 1.258 1_565 S
C37 O34 1.320 . S
C37 O35 1.214 . S
O38 Cd30 2.277 . S
O38 C33 1.209 . S
C39 O36 1.258 1_545 S
C39 O41 1.282 1_545 S
O40 Cd32 2.277 . S
O40 C33 1.226 . S
O41 Cd32 2.356 . S
O41 C39 1.282 1_565 S
C42 O43 1.306 . S
C42 O45 1.160 . S
O43 C42 1.306 . S
O43 Cd44 2.228 . S
Cd44 O43 2.228 . S
Cd44 O48 2.273 . S
Cd44 O52 2.277 . S
O45 C42 1.160 . S
O45 Cd46 2.203 . S
Cd46 O45 2.203 . S
Cd46 O48 2.411 . S
Cd46 O49 2.333 . S
Cd46 O50 2.352 . S
Cd46 O54 2.277 . S
Cd46 O55 2.356 . S
C47 O52 1.209 . S
C47 O54 1.226 . S
O48 Cd44 2.273 . S
O48 Cd46 2.411 . S
O48 C51 1.320 . S
O49 Cd46 2.333 . S
O49 C51 1.214 . S
O50 Cd46 2.352 . S
O50 C53 1.258 . S
C51 O48 1.320 . S
C51 O49 1.214 . S
O52 Cd44 2.277 . S
O52 C47 1.209 . S
C53 O50 1.258 . S
C53 O55 1.282 . S
O54 Cd46 2.277 . S
O54 C47 1.226 . S
O55 Cd46 2.356 . S
O55 C53 1.282 . S
C56 O57 1.306 . S
C56 O59 1.160 . S
O57 C56 1.306 . S
O57 Cd58 2.228 . S
Cd58 O57 2.228 . S
Cd58 O62 2.273 . S
Cd58 O66 2.277 . S
O59 C56 1.160 . S
O59 Cd60 2.203 . S
Cd60 O59 2.203 . S
Cd60 O62 2.411 . S
Cd60 O63 2.333 . S
Cd60 O64 2.352 . S
Cd60 O68 2.277 . S
Cd60 O69 2.356 . S
C61 O66 1.209 . S
C61 O68 1.226 . S
O62 Cd58 2.273 . S
O62 Cd60 2.411 . S
O62 C65 1.320 . S
O63 Cd60 2.333 . S
O63 C65 1.214 . S
O64 Cd60 2.352 . S
O64 C67 1.258 1_455 S
C65 O62 1.320 . S
C65 O63 1.214 . S
O66 Cd58 2.277 . S
O66 C61 1.209 . S
C67 O64 1.258 1_655 S
C67 O69 1.282 1_655 S
O68 Cd60 2.277 . S
O68 C61 1.226 . S
O69 Cd60 2.356 . S
O69 C67 1.282 1_455 S
C70 O71 1.306 . S
C70 O73 1.160 . S
O71 C70 1.306 . S
O71 Cd72 2.228 . S
Cd72 O71 2.228 . S
Cd72 O76 2.273 . S
Cd72 O80 2.277 . S
O73 C70 1.160 . S
O73 Cd74 2.203 . S
Cd74 O73 2.203 . S
Cd74 O76 2.411 . S
Cd74 O77 2.333 . S
Cd74 O78 2.352 . S
Cd74 O82 2.277 . S
Cd74 O83 2.356 . S
C75 O80 1.209 . S
C75 O82 1.226 . S
O76 Cd72 2.273 . S
O76 Cd74 2.411 . S
O76 C79 1.320 . S
O77 Cd74 2.333 . S
O77 C79 1.214 . S
O78 Cd74 2.352 . S
O78 C81 1.258 . S
C79 O76 1.320 . S
C79 O77 1.214 . S
O80 Cd72 2.277 . S
O80 C75 1.209 . S
C81 O78 1.258 . S
C81 O83 1.282 . S
O82 Cd74 2.277 . S
O82 C75 1.226 . S
O83 Cd74 2.356 . S
O83 C81 1.282 . S
C84 O85 1.306 . S
C84 O87 1.160 . S
O85 C84 1.306 . S
O85 Cd86 2.228 . S
Cd86 O85 2.228 . S
Cd86 O90 2.273 . S
Cd86 O94 2.277 . S
O87 C84 1.160 . S
O87 Cd88 2.203 . S
Cd88 O87 2.203 . S
Cd88 O90 2.411 . S
Cd88 O91 2.333 . S
Cd88 O92 2.352 . S
Cd88 O96 2.277 . S
Cd88 O97 2.356 . S
C89 O94 1.209 . S
C89 O96 1.226 . S
O90 Cd86 2.273 . S
O90 Cd88 2.411 . S
O90 C93 1.320 . S
O91 Cd88 2.333 . S
O91 C93 1.214 . S
O92 Cd88 2.352 . S
O92 C95 1.258 . S
C93 O90 1.320 . S
C93 O91 1.214 . S
O94 Cd86 2.277 . S
O94 C89 1.209 . S
C95 O92 1.258 . S
C95 O97 1.282 . S
O96 Cd88 2.277 . S
O96 C89 1.226 . S
O97 Cd88 2.356 . S
O97 C95 1.282 . S
C98 O99 1.306 . S
C98 O101 1.160 . S
O99 C98 1.306 . S
O99 Cd100 2.228 . S
Cd100 O99 2.228 . S
Cd100 O104 2.273 . S
Cd100 O108 2.277 . S
O101 C98 1.160 . S
O101 Cd102 2.203 . S
Cd102 O101 2.203 . S
Cd102 O104 2.411 . S
Cd102 O105 2.333 . S
Cd102 O106 2.352 . S
Cd102 O110 2.277 . S
Cd102 O111 2.356 . S
C103 O108 1.209 . S
C103 O110 1.226 . S
O104 Cd100 2.273 . S
O104 Cd102 2.411 . S
O104 C107 1.320 . S
O105 Cd102 2.333 . S
O105 C107 1.214 . S
O106 Cd102 2.352 . S
O106 C109 1.258 1_655 S
C107 O104 1.320 . S
C107 O105 1.214 . S
O108 Cd100 2.277 . S
O108 C103 1.209 . S
C109 O106 1.258 1_455 S
C109 O111 1.282 1_455 S
O110 Cd102 2.277 . S
O110 C103 1.226 . S
O111 Cd102 2.356 . S
O111 C109 1.282 1_655 S
C112 O113 1.306 . S
C112 O115 1.160 . S
O113 C112 1.306 . S
O113 Cd114 2.228 . S
Cd114 O113 2.228 . S
Cd114 O118 2.273 . S
Cd114 O122 2.277 . S
O115 C112 1.160 . S
O115 Cd116 2.203 . S
Cd116 O115 2.203 . S
Cd116 O118 2.411 . S
Cd116 O119 2.333 . S
Cd116 O120 2.352 . S
Cd116 O124 2.277 . S
Cd116 O125 2.356 . S
C117 O122 1.209 . S
C117 O124 1.226 . S
O118 Cd114 2.273 . S
O118 Cd116 2.411 . S
O118 C121 1.320 . S
O119 Cd116 2.333 . S
O119 C121 1.214 . S
O120 Cd116 2.352 . S
O120 C123 1.258 . S
C121 O118 1.320 . S
C121 O119 1.214 . S
O122 Cd114 2.277 . S
O122 C117 1.209 . S
C123 O120 1.258 . S
C123 O125 1.282 . S
O124 Cd116 2.277 . S
O124 C117 1.226 . S
O125 Cd116 2.356 . S
O125 C123 1.282 . S
C126 O127 1.306 . S
C126 O129 1.160 . S
O127 C126 1.306 . S
O127 Cd128 2.228 . S
Cd128 O127 2.228 . S
Cd128 O132 2.273 . S
Cd128 O136 2.277 . S
O129 C126 1.160 . S
O129 Cd130 2.203 . S
Cd130 O129 2.203 . S
Cd130 O132 2.411 . S
Cd130 O133 2.333 . S
Cd130 O134 2.352 . S
Cd130 O138 2.277 . S
Cd130 O139 2.356 . S
C131 O136 1.209 . S
C131 O138 1.226 . S
O132 Cd128 2.273 . S
O132 Cd130 2.411 . S
O132 C135 1.320 . S
O133 Cd130 2.333 . S
O133 C135 1.214 . S
O134 Cd130 2.352 . S
O134 C137 1.258 . S
C135 O132 1.320 . S
C135 O133 1.214 . S
O136 Cd128 2.277 . S
O136 C131 1.209 . S
C137 O134 1.258 . S
C137 O139 1.282 . S
O138 Cd130 2.277 . S
O138 C131 1.226 . S
O139 Cd130 2.356 . S
O139 C137 1.282 . S
C140 O141 1.306 . S
C140 O143 1.160 . S
O141 C140 1.306 . S
O141 Cd142 2.228 . S
Cd142 O141 2.228 . S
Cd142 O146 2.273 . S
Cd142 O150 2.277 . S
O143 C140 1.160 . S
O143 Cd144 2.203 . S
Cd144 O143 2.203 . S
Cd144 O146 2.411 . S
Cd144 O147 2.333 . S
Cd144 O148 2.352 . S
Cd144 O152 2.277 . S
Cd144 O153 2.356 . S
C145 O150 1.209 . S
C145 O152 1.226 . S
O146 Cd142 2.273 . S
O146 Cd144 2.411 . S
O146 C149 1.320 . S
O147 Cd144 2.333 . S
O147 C149 1.214 . S
O148 Cd144 2.352 . S
O148 C151 1.258 . S
C149 O146 1.320 . S
C149 O147 1.214 . S
O150 Cd142 2.277 . S
O150 C145 1.209 . S
C151 O148 1.258 . S
C151 O153 1.282 . S
O152 Cd144 2.277 . S
O152 C145 1.226 . S
O153 Cd144 2.356 . S
O153 C151 1.282 . S
C154 O155 1.306 . S
C154 O157 1.160 . S
O155 C154 1.306 . S
O155 Cd156 2.228 . S
Cd156 O155 2.228 . S
Cd156 O160 2.273 . S
Cd156 O164 2.277 . S
O157 C154 1.160 . S
O157 Cd158 2.203 . S
Cd158 O157 2.203 . S
Cd158 O160 2.411 . S
Cd158 O161 2.333 . S
Cd158 O162 2.352 . S
Cd158 O166 2.277 . S
Cd158 O167 2.356 . S
C159 O164 1.209 . S
C159 O166 1.226 . S
O160 Cd156 2.273 . S
O160 Cd158 2.411 . S
O160 C163 1.320 . S
O161 Cd158 2.333 . S
O161 C163 1.214 . S
O162 Cd158 2.352 . S
O162 C165 1.258 1_545 S
C163 O160 1.320 . S
C163 O161 1.214 . S
O164 Cd156 2.277 . S
O164 C159 1.209 . S
C165 O162 1.258 1_565 S
C165 O167 1.282 1_565 S
O166 Cd158 2.277 . S
O166 C159 1.226 . S
O167 Cd158 2.356 . S
O167 C165 1.282 1_545 S
C168 C169 1.363 . S
C168 C174 1.379 . S
C168 N176 1.356 1_554 S
C169 C168 1.363 . S
C169 C175 1.363 . S
C170 C171 1.363 . S
C170 C175 1.379 . S
C170 N177 1.356 . S
C171 C170 1.363 . S
C171 C174 1.363 . S
N172 C174 1.356 . S
N172 H184 0.984 . S
N172 H185 0.985 . S
N173 C175 1.356 . S
N173 H178 0.984 1_554 S
N173 H179 0.985 . S
C174 C168 1.379 . S
C174 C171 1.363 . S
C174 N172 1.356 . S
C175 C169 1.363 . S
C175 C170 1.379 . S
C175 N173 1.356 . S
N176 C168 1.356 1_556 S
N176 H182 0.984 . S
N176 H183 0.984 . S
N177 C170 1.356 . S
N177 H180 0.984 . S
N177 H181 0.985 . S
H178 N173 0.984 1_556 S
H179 N173 0.985 . S
H180 N177 0.984 . S
H181 N177 0.985 . S
H182 N176 0.984 . S
H183 N176 0.984 . S
H184 N172 0.984 . S
H185 N172 0.985 . S
C186 C187 1.363 . S
C186 C192 1.379 . S
C186 N194 1.356 . S
C187 C186 1.363 . S
C187 C193 1.363 . S
C188 C189 1.363 . S
C188 C193 1.379 . S
C188 N195 1.356 . S
C189 C188 1.363 . S
C189 C192 1.363 . S
N190 C192 1.356 . S
N190 H202 0.984 . S
N190 H203 0.985 . S
N191 C193 1.356 . S
N191 H196 0.984 . S
N191 H197 0.985 . S
C192 C186 1.379 . S
C192 C189 1.363 . S
C192 N190 1.356 . S
C193 C187 1.363 . S
C193 C188 1.379 . S
C193 N191 1.356 . S
N194 C186 1.356 . S
N194 H200 0.984 . S
N194 H201 0.984 . S
N195 C188 1.356 . S
N195 H198 0.984 . S
N195 H199 0.985 . S
H196 N191 0.984 . S
H197 N191 0.985 . S
H198 N195 0.984 . S
H199 N195 0.985 . S
H200 N194 0.984 . S
H201 N194 0.984 . S
H202 N190 0.984 . S
H203 N190 0.985 . S
C204 C205 1.363 . S
C204 C210 1.379 . S
C204 N212 1.356 . S
C205 C204 1.363 . S
C205 C211 1.363 . S
C206 C207 1.363 . S
C206 C211 1.379 . S
C206 N213 1.356 . S
C207 C206 1.363 . S
C207 C210 1.363 . S
N208 C210 1.356 . S
N208 H220 0.984 . S
N208 H221 0.985 . S
N209 C211 1.356 . S
N209 H214 0.984 . S
N209 H215 0.985 . S
C210 C204 1.379 . S
C210 C207 1.363 . S
C210 N208 1.356 . S
C211 C205 1.363 . S
C211 C206 1.379 . S
C211 N209 1.356 . S
N212 C204 1.356 . S
N212 H218 0.984 . S
N212 H219 0.984 . S
N213 C206 1.356 . S
N213 H216 0.984 . S
N213 H217 0.985 . S
H214 N209 0.984 . S
H215 N209 0.985 . S
H216 N213 0.984 . S
H217 N213 0.985 . S
H218 N212 0.984 . S
H219 N212 0.984 . S
H220 N208 0.984 . S
H221 N208 0.985 . S
C222 C223 1.367 . S
C222 C228 1.361 1_554 S
C222 N230 1.375 . S
C223 C222 1.367 . S
C223 C229 1.363 1_554 S
C224 C225 1.363 . S
C224 C229 1.379 . S
C224 N231 1.356 . S
C225 C224 1.363 . S
C225 C228 1.363 . S
N226 C228 1.356 . S
N226 H238 0.984 . S
N226 H239 0.985 . S
N227 C229 1.356 . S
N227 H232 0.984 1_556 S
N227 H233 0.985 . S
C228 C222 1.361 1_556 S
C228 C225 1.363 . S
C228 N226 1.356 . S
C229 C223 1.363 1_556 S
C229 C224 1.379 . S
C229 N227 1.356 . S
N230 C222 1.375 . S
N230 H236 0.984 . S
N230 H237 0.984 . S
N231 C224 1.356 . S
N231 H234 0.984 . S
N231 H235 0.985 . S
H232 N227 0.984 1_554 S
H233 N227 0.985 . S
H234 N231 0.984 . S
H235 N231 0.985 . S
H236 N230 0.984 . S
H237 N230 0.984 . S
H238 N226 0.984 . S
H239 N226 0.985 . S
C240 C241 1.363 . S
C240 C246 1.379 . S
C240 N248 1.356 . S
C241 C240 1.363 . S
C241 C247 1.363 . S
C242 C243 1.363 . S
C242 C247 1.379 . S
C242 N249 1.356 . S
C243 C242 1.363 . S
C243 C246 1.363 . S
N244 C246 1.356 . S
N244 H256 0.984 . S
N244 H257 0.985 . S
N245 C247 1.356 . S
N245 H250 0.984 . S
N245 H251 0.985 . S
C246 C240 1.379 . S
C246 C243 1.363 . S
C246 N244 1.356 . S
C247 C241 1.363 . S
C247 C242 1.379 . S
C247 N245 1.356 . S
N248 C240 1.356 . S
N248 H254 0.984 . S
N248 H255 0.984 . S
N249 C242 1.356 . S
N249 H252 0.984 . S
N249 H253 0.985 . S
H250 N245 0.984 . S
H251 N245 0.985 . S
H252 N249 0.984 . S
H253 N249 0.985 . S
H254 N248 0.984 . S
H255 N248 0.984 . S
H256 N244 0.984 . S
H257 N244 0.985 . S
C258 C259 1.363 . S
C258 C264 1.379 . S
C258 N266 1.356 . S
C259 C258 1.363 . S
C259 C265 1.363 . S
C260 C261 1.363 . S
C260 C265 1.379 . S
C260 N267 1.356 . S
C261 C260 1.363 . S
C261 C264 1.363 . S
N262 C264 1.356 . S
N262 H274 0.984 . S
N262 H275 0.985 . S
N263 C265 1.356 . S
N263 H268 0.984 . S
N263 H269 0.985 . S
C264 C258 1.379 . S
C264 C261 1.363 . S
C264 N262 1.356 . S
C265 C259 1.363 . S
C265 C260 1.379 . S
C265 N263 1.356 . S
N266 C258 1.356 . S
N266 H272 0.984 . S
N266 H273 0.984 . S
N267 C260 1.356 . S
N267 H270 0.984 . S
N267 H271 0.985 . S
H268 N263 0.984 . S
H269 N263 0.985 . S
H270 N267 0.984 . S
H271 N267 0.985 . S
H272 N266 0.984 . S
H273 N266 0.984 . S
H274 N262 0.984 . S
H275 N262 0.985 . S
C276 C277 1.363 . S
C276 C282 1.379 . S
C276 N284 1.356 . S
C277 C276 1.363 . S
C277 C283 1.363 . S
C278 C279 1.363 . S
C278 C283 1.379 . S
C278 N285 1.356 . S
C279 C278 1.363 . S
C279 C282 1.363 . S
N280 C282 1.356 . S
N280 H292 0.984 . S
N280 H293 0.985 . S
N281 C283 1.356 . S
N281 H286 0.984 . S
N281 H287 0.985 . S
C282 C276 1.379 . S
C282 C279 1.363 . S
C282 N280 1.356 . S
C283 C277 1.363 . S
C283 C278 1.379 . S
C283 N281 1.356 . S
N284 C276 1.356 . S
N284 H290 0.984 . S
N284 H291 0.984 . S
N285 C278 1.356 . S
N285 H288 0.984 . S
N285 H289 0.985 . S
H286 N281 0.984 . S
H287 N281 0.985 . S
H288 N285 0.984 . S
H289 N285 0.985 . S
H290 N284 0.984 . S
H291 N284 0.984 . S
H292 N280 0.984 . S
H293 N280 0.985 . S
C294 C295 1.363 . S
C294 C300 1.379 . S
C294 N302 1.356 . S
C295 C294 1.363 . S
C295 C301 1.363 . S
C296 C297 1.363 . S
C296 C301 1.379 . S
C296 N303 1.356 . S
C297 C296 1.363 . S
C297 C300 1.363 . S
N298 C300 1.356 . S
N298 H310 0.984 . S
N298 H311 0.985 . S
N299 C301 1.356 . S
N299 H304 0.984 . S
N299 H305 0.985 . S
C300 C294 1.379 . S
C300 C297 1.363 . S
C300 N298 1.356 . S
C301 C295 1.363 . S
C301 C296 1.379 . S
C301 N299 1.356 . S
N302 C294 1.356 . S
N302 H308 0.984 . S
N302 H309 0.984 . S
N303 C296 1.356 . S
N303 H306 0.984 . S
N303 H307 0.985 . S
H304 N299 0.984 . S
H305 N299 0.985 . S
H306 N303 0.984 . S
H307 N303 0.985 . S
H308 N302 0.984 . S
H309 N302 0.984 . S
H310 N298 0.984 . S
H311 N298 0.985 . S
C312 C313 1.363 . S
C312 C318 1.379 . S
C312 N320 1.356 . S
C313 C312 1.363 . S
C313 C319 1.363 . S
C314 C315 1.363 . S
C314 C319 1.379 . S
C314 N321 1.356 . S
C315 C314 1.363 . S
C315 C318 1.363 . S
N316 C318 1.356 . S
N316 H328 0.984 . S
N316 H329 0.985 . S
N317 C319 1.356 . S
N317 H322 0.984 . S
N317 H323 0.985 . S
C318 C312 1.379 . S
C318 C315 1.363 . S
C318 N316 1.356 . S
C319 C313 1.363 . S
C319 C314 1.379 . S
C319 N317 1.356 . S
N320 C312 1.356 . S
N320 H326 0.984 . S
N320 H327 0.984 . S
N321 C314 1.356 . S
N321 H324 0.984 . S
N321 H325 0.985 . S
H322 N317 0.984 . S
H323 N317 0.985 . S
H324 N321 0.984 . S
H325 N321 0.985 . S
H326 N320 0.984 . S
H327 N320 0.984 . S
H328 N316 0.984 . S
H329 N316 0.985 . S
C330 C331 1.363 . S
C330 C336 1.379 . S
C330 N338 1.356 . S
C331 C330 1.363 . S
C331 C337 1.363 . S
C332 C333 1.363 . S
C332 C337 1.379 . S
C332 N339 1.356 . S
C333 C332 1.363 . S
C333 C336 1.363 . S
N334 C336 1.356 . S
N334 H346 0.984 . S
N334 H347 0.985 . S
N335 C337 1.356 . S
N335 H340 0.984 . S
N335 H341 0.985 1_545 S
C336 C330 1.379 . S
C336 C333 1.363 . S
C336 N334 1.356 . S
C337 C331 1.363 . S
C337 C332 1.379 . S
C337 N335 1.356 . S
N338 C330 1.356 . S
N338 H344 0.984 . S
N338 H345 0.984 . S
N339 C332 1.356 . S
N339 H342 0.984 . S
N339 H343 0.985 . S
H340 N335 0.984 . S
H341 N335 0.985 1_565 S
H342 N339 0.984 . S
H343 N339 0.985 . S
H344 N338 0.984 . S
H345 N338 0.984 . S
H346 N334 0.984 . S
H347 N334 0.985 . S
C348 C349 1.363 . S
C348 C354 1.379 . S
C348 N356 1.356 . S
C349 C348 1.363 . S
C349 C355 1.363 . S
C350 C351 1.363 . S
C350 C355 1.379 . S
C350 N357 1.356 . S
C351 C350 1.363 . S
C351 C354 1.363 . S
N352 C354 1.356 . S
N352 H364 0.984 . S
N352 H365 0.985 . S
N353 C355 1.356 . S
N353 H358 0.984 . S
N353 H359 0.985 . S
C354 C348 1.379 . S
C354 C351 1.363 . S
C354 N352 1.356 . S
C355 C349 1.363 . S
C355 C350 1.379 . S
C355 N353 1.356 . S
N356 C348 1.356 . S
N356 H362 0.984 . S
N356 H363 0.984 . S
N357 C350 1.356 . S
N357 H360 0.984 . S
N357 H361 0.985 . S
H358 N353 0.984 . S
H359 N353 0.985 . S
H360 N357 0.984 . S
H361 N357 0.985 . S
H362 N356 0.984 . S
H363 N356 0.984 . S
H364 N352 0.984 . S
H365 N352 0.985 . S
C366 C367 1.363 . S
C366 C372 1.379 . S
C366 N374 1.356 . S
C367 C366 1.363 . S
C367 C373 1.363 . S
C368 C369 1.363 . S
C368 C373 1.379 . S
C368 N375 1.356 . S
C369 C368 1.363 . S
C369 C372 1.363 . S
N370 C372 1.356 . S
N370 H382 0.984 . S
N370 H383 0.985 . S
N371 C373 1.356 . S
N371 H376 0.984 . S
N371 H377 0.985 . S
C372 C366 1.379 . S
C372 C369 1.363 . S
C372 N370 1.356 . S
C373 C367 1.363 . S
C373 C368 1.379 . S
C373 N371 1.356 . S
N374 C366 1.356 . S
N374 H380 0.984 . S
N374 H381 0.984 . S
N375 C368 1.356 . S
N375 H378 0.984 . S
N375 H379 0.985 . S
H376 N371 0.984 . S
H377 N371 0.985 . S
H378 N375 0.984 . S
H379 N375 0.985 . S
H380 N374 0.984 . S
H381 N374 0.984 . S
H382 N370 0.984 . S
H383 N370 0.985 . S
C384 C385 1.363 . S
C384 C390 1.379 1_655 S
C384 N392 1.356 . S
C385 C384 1.363 . S
C385 C391 1.363 . S
C386 C387 1.363 . S
C386 C391 1.379 1_455 S
C386 N393 1.356 . S
C387 C386 1.363 . S
C387 C390 1.363 . S
N388 C390 1.356 . S
N388 H400 0.984 . S
N388 H401 0.985 . S
N389 C391 1.356 . S
N389 H394 0.984 . S
N389 H395 0.985 . S
C390 C384 1.379 1_455 S
C390 C387 1.363 . S
C390 N388 1.356 . S
C391 C385 1.363 . S
C391 C386 1.379 1_655 S
C391 N389 1.356 . S
N392 C384 1.356 . S
N392 H398 0.984 . S
N392 H399 0.984 . S
N393 C386 1.356 . S
N393 H396 0.984 . S
N393 H397 0.985 . S
H394 N389 0.984 . S
H395 N389 0.985 . S
H396 N393 0.984 . S
H397 N393 0.985 . S
H398 N392 0.984 . S
H399 N392 0.984 . S
H400 N388 0.984 . S
H401 N388 0.985 . S
C402 C403 1.363 . S
C402 C408 1.379 1_545 S
C402 N410 1.356 . S
C403 C402 1.363 . S
C403 C409 1.363 . S
C404 C405 1.363 . S
C404 C409 1.379 1_565 S
C404 N411 1.356 . S
C405 C404 1.363 . S
C405 C408 1.363 . S
N406 C408 1.356 . S
N406 H418 0.984 . S
N406 H419 0.985 . S
N407 C409 1.356 . S
N407 H412 0.984 . S
N407 H413 0.985 . S
C408 C402 1.379 1_565 S
C408 C405 1.363 . S
C408 N406 1.356 . S
C409 C403 1.363 . S
C409 C404 1.379 1_545 S
C409 N407 1.356 . S
N410 C402 1.356 . S
N410 H416 0.984 . S
N410 H417 0.984 . S
N411 C404 1.356 . S
N411 H414 0.984 . S
N411 H415 0.985 . S
H412 N407 0.984 . S
H413 N407 0.985 . S
H414 N411 0.984 . S
H415 N411 0.985 . S
H416 N410 0.984 . S
H417 N410 0.984 . S
H418 N406 0.984 . S
H419 N406 0.985 . S
C420 C421 1.363 . S
C420 C426 1.379 . S
C420 N428 1.356 . S
C421 C420 1.363 . S
C421 C427 1.363 . S
C422 C423 1.363 . S
C422 C427 1.379 . S
C422 N429 1.356 . S
C423 C422 1.363 . S
C423 C426 1.363 . S
N424 C426 1.356 . S
N424 H436 0.984 . S
N424 H437 0.985 . S
N425 C427 1.356 . S
N425 H430 0.984 . S
N425 H431 0.985 . S
C426 C420 1.379 . S
C426 C423 1.363 . S
C426 N424 1.356 . S
C427 C421 1.363 . S
C427 C422 1.379 . S
C427 N425 1.356 . S
N428 C420 1.356 . S
N428 H434 0.984 . S
N428 H435 0.984 . S
N429 C422 1.356 . S
N429 H432 0.984 . S
N429 H433 0.985 . S
H430 N425 0.984 . S
H431 N425 0.985 . S
H432 N429 0.984 . S
H433 N429 0.985 . S
H434 N428 0.984 . S
H435 N428 0.984 . S
H436 N424 0.984 . S
H437 N424 0.985 . S
C438 C439 1.363 . S
C438 C444 1.379 1_545 S
C438 N446 1.356 . S
C439 C438 1.363 . S
C439 C445 1.363 . S
C440 C441 1.363 . S
C440 C445 1.379 1_565 S
C440 N447 1.356 . S
C441 C440 1.363 . S
C441 C444 1.363 . S
N442 C444 1.356 . S
N442 H454 0.984 . S
N442 H455 0.985 . S
N443 C445 1.356 . S
N443 H448 0.984 . S
N443 H449 0.985 . S
C444 C438 1.379 1_565 S
C444 C441 1.363 . S
C444 N442 1.356 . S
C445 C439 1.363 . S
C445 C440 1.379 1_545 S
C445 N443 1.356 . S
N446 C438 1.356 . S
N446 H452 0.984 . S
N446 H453 0.984 . S
N447 C440 1.356 . S
N447 H450 0.984 . S
N447 H451 0.985 . S
H448 N443 0.984 . S
H449 N443 0.985 . S
H450 N447 0.984 . S
H451 N447 0.985 . S
H452 N446 0.984 . S
H453 N446 0.984 . S
H454 N442 0.984 . S
H455 N442 0.985 . S
C456 C457 1.363 . S
C456 C462 1.379 . S
C456 N464 1.356 . S
C457 C456 1.363 . S
C457 C463 1.363 . S
C458 C459 1.363 . S
C458 C463 1.379 . S
C458 N465 1.356 . S
C459 C458 1.363 . S
C459 C462 1.363 . S
N460 C462 1.356 . S
N460 H472 0.984 . S
N460 H473 0.985 . S
N461 C463 1.356 . S
N461 H466 0.984 . S
N461 H467 0.985 . S
C462 C456 1.379 . S
C462 C459 1.363 . S
C462 N460 1.356 . S
C463 C457 1.363 . S
C463 C458 1.379 . S
C463 N461 1.356 . S
N464 C456 1.356 . S
N464 H470 0.984 . S
N464 H471 0.984 . S
N465 C458 1.356 . S
N465 H468 0.984 . S
N465 H469 0.985 . S
H466 N461 0.984 . S
H467 N461 0.985 . S
H468 N465 0.984 . S
H469 N465 0.985 . S
H470 N464 0.984 . S
H471 N464 0.984 . S
H472 N460 0.984 . S
H473 N460 0.985 . S
C474 C475 1.363 . S
C474 C480 1.379 1_455 S
C474 N482 1.356 . S
C475 C474 1.363 . S
C475 C481 1.363 . S
C476 C477 1.363 . S
C476 C481 1.379 1_655 S
C476 N483 1.356 . S
C477 C476 1.363 . S
C477 C480 1.363 . S
N478 C480 1.356 . S
N478 H490 0.984 . S
N478 H491 0.985 . S
N479 C481 1.356 . S
N479 H484 0.984 . S
N479 H485 0.985 . S
C480 C474 1.379 1_655 S
C480 C477 1.363 . S
C480 N478 1.356 . S
C481 C475 1.363 . S
C481 C476 1.379 1_455 S
C481 N479 1.356 . S
N482 C474 1.356 . S
N482 H488 0.984 . S
N482 H489 0.984 . S
N483 C476 1.356 . S
N483 H486 0.984 . S
N483 H487 0.985 . S
H484 N479 0.984 . S
H485 N479 0.985 . S
H486 N483 0.984 . S
H487 N483 0.985 . S
H488 N482 0.984 . S
H489 N482 0.984 . S
H490 N478 0.984 . S
H491 N478 0.985 . S
C492 C493 1.363 . S
C492 C498 1.379 . S
C492 N500 1.356 . S
C493 C492 1.363 . S
C493 C499 1.363 . S
C494 C495 1.363 . S
C494 C499 1.379 . S
C494 N501 1.356 . S
C495 C494 1.363 . S
C495 C498 1.363 . S
N496 C498 1.356 . S
N496 H508 0.984 . S
N496 H509 0.985 . S
N497 C499 1.356 . S
N497 H502 0.984 . S
N497 H503 0.985 . S
C498 C492 1.379 . S
C498 C495 1.363 . S
C498 N496 1.356 . S
C499 C493 1.363 . S
C499 C494 1.379 . S
C499 N497 1.356 . S
N500 C492 1.356 . S
N500 H506 0.984 . S
N500 H507 0.984 . S
N501 C494 1.356 . S
N501 H504 0.984 . S
N501 H505 0.985 . S
H502 N497 0.984 . S
H503 N497 0.985 . S
H504 N501 0.984 . S
H505 N501 0.985 . S
H506 N500 0.984 . S
H507 N500 0.984 . S
H508 N496 0.984 . S
H509 N496 0.985 . S
C510 C511 1.363 . S
C510 C516 1.379 . S
C510 N518 1.356 . S
C511 C510 1.363 . S
C511 C517 1.363 . S
C512 C513 1.363 . S
C512 C517 1.379 . S
C512 N519 1.356 . S
C513 C512 1.363 . S
C513 C516 1.363 . S
N514 C516 1.356 . S
N514 H526 0.984 . S
N514 H527 0.985 . S
N515 C517 1.356 . S
N515 H520 0.984 . S
N515 H521 0.985 . S
C516 C510 1.379 . S
C516 C513 1.363 . S
C516 N514 1.356 . S
C517 C511 1.363 . S
C517 C512 1.379 . S
C517 N515 1.356 . S
N518 C510 1.356 . S
N518 H524 0.984 . S
N518 H525 0.984 . S
N519 C512 1.356 . S
N519 H522 0.984 1_655 S
N519 H523 0.985 . S
H520 N515 0.984 . S
H521 N515 0.985 . S
H522 N519 0.984 1_455 S
H523 N519 0.985 . S
H524 N518 0.984 . S
H525 N518 0.984 . S
H526 N514 0.984 . S
H527 N514 0.985 . S
C528 C529 1.363 . S
C528 C534 1.379 . S
C528 N536 1.356 . S
C529 C528 1.363 . S
C529 C535 1.363 . S
C530 C531 1.363 . S
C530 C535 1.379 . S
C530 N537 1.356 . S
C531 C530 1.363 . S
C531 C534 1.363 . S
N532 C534 1.356 . S
N532 H544 0.984 . S
N532 H545 0.985 . S
N533 C535 1.356 . S
N533 H538 0.984 . S
N533 H539 0.985 . S
C534 C528 1.379 . S
C534 C531 1.363 . S
C534 N532 1.356 . S
C535 C529 1.363 . S
C535 C530 1.379 . S
C535 N533 1.356 . S
N536 C528 1.356 . S
N536 H542 0.984 . S
N536 H543 0.984 . S
N537 C530 1.356 . S
N537 H540 0.984 1_545 S
N537 H541 0.985 . S
H538 N533 0.984 . S
H539 N533 0.985 . S
H540 N537 0.984 1_565 S
H541 N537 0.985 . S
H542 N536 0.984 . S
H543 N536 0.984 . S
H544 N532 0.984 . S
H545 N532 0.985 . S
C546 C547 1.363 . S
C546 C552 1.379 . S
C546 N554 1.356 . S
C547 C546 1.363 . S
C547 C553 1.363 . S
C548 C549 1.363 . S
C548 C553 1.379 . S
C548 N555 1.356 . S
C549 C548 1.363 . S
C549 C552 1.363 . S
N550 C552 1.356 . S
N550 H562 0.984 . S
N550 H563 0.985 . S
N551 C553 1.356 . S
N551 H556 0.984 . S
N551 H557 0.985 . S
C552 C546 1.379 . S
C552 C549 1.363 . S
C552 N550 1.356 . S
C553 C547 1.363 . S
C553 C548 1.379 . S
C553 N551 1.356 . S
N554 C546 1.356 . S
N554 H560 0.984 . S
N554 H561 0.984 . S
N555 C548 1.356 . S
N555 H558 0.984 . S
N555 H559 0.985 . S
H556 N551 0.984 . S
H557 N551 0.985 . S
H558 N555 0.984 . S
H559 N555 0.985 . S
H560 N554 0.984 . S
H561 N554 0.984 . S
H562 N550 0.984 . S
H563 N550 0.985 . S
C564 C565 1.363 . S
C564 C570 1.379 . S
C564 N572 1.356 . S
C565 C564 1.363 . S
C565 C571 1.363 . S
C566 C567 1.363 . S
C566 C571 1.379 . S
C566 N573 1.356 . S
C567 C566 1.363 . S
C567 C570 1.363 . S
N568 C570 1.356 . S
N568 H580 0.984 . S
N568 H581 0.985 1_455 S
N569 C571 1.356 . S
N569 H574 0.984 . S
N569 H575 0.985 . S
C570 C564 1.379 . S
C570 C567 1.363 . S
C570 N568 1.356 . S
C571 C565 1.363 . S
C571 C566 1.379 . S
C571 N569 1.356 . S
N572 C564 1.356 . S
N572 H578 0.984 . S
N572 H579 0.984 . S
N573 C566 1.356 . S
N573 H576 0.984 . S
N573 H577 0.985 . S
H574 N569 0.984 . S
H575 N569 0.985 . S
H576 N573 0.984 . S
H577 N573 0.985 . S
H578 N572 0.984 . S
H579 N572 0.984 . S
H580 N568 0.984 . S
H581 N568 0.985 1_655 S
C582 C583 1.363 . S
C582 C588 1.379 . S
C582 N590 1.356 . S
C583 C582 1.363 . S
C583 C589 1.363 . S
C584 C585 1.363 . S
C584 C589 1.379 . S
C584 N591 1.356 . S
C585 C584 1.363 . S
C585 C588 1.363 . S
N586 C588 1.356 . S
N586 H598 0.984 . S
N586 H599 0.985 . S
N587 C589 1.356 . S
N587 H592 0.984 . S
N587 H593 0.985 . S
C588 C582 1.379 . S
C588 C585 1.363 . S
C588 N586 1.356 . S
C589 C583 1.363 . S
C589 C584 1.379 . S
C589 N587 1.356 . S
N590 C582 1.356 . S
N590 H596 0.984 . S
N590 H597 0.984 . S
N591 C584 1.356 . S
N591 H594 0.984 1_565 S
N591 H595 0.985 . S
H592 N587 0.984 . S
H593 N587 0.985 . S
H594 N591 0.984 1_545 S
H595 N591 0.985 . S
H596 N590 0.984 . S
H597 N590 0.984 . S
H598 N586 0.984 . S
H599 N586 0.985 . S
C169 C149 1.524 1_554 S
C171 C9 1.801 . S
C187 C23 1.525 . S
C189 C163 1.802 . S
C205 C37 1.799 . S
C207 C93 1.523 . S
C223 C51 1.524 . S
C225 C107 1.801 . S
C241 C121 1.524 . S
C243 C65 1.802 . S
C259 C79 1.523 . S
C261 C135 1.799 . S
C277 C112 1.669 . S
C279 C0 1.867 . S
C295 C14 1.668 . S
C297 C126 1.867 . S
C313 C28 1.866 . S
C315 C140 1.668 . S
C331 C42 1.668 . S
C333 C154 1.866 . S
C349 C84 1.667 . S
C351 C56 1.865 . S
C367 C98 1.865 . S
C369 C70 1.667 . S
C385 C47 1.477 . S
C387 C5 1.478 . S
C403 C19 1.477 . S
C405 C61 1.478 . S
C421 C75 1.477 . S
C423 C33 1.478 . S
C439 C131 1.478 . S
C441 C89 1.477 . S
C457 C145 1.477 . S
C459 C103 1.478 . S
C475 C117 1.478 . S
C477 C159 1.478 . S
C493 C53 1.381 . S
C495 C11 1.381 . S
C511 C25 1.382 . S
C513 C67 1.382 . S
C529 C81 1.381 . S
C531 C39 1.381 . S
C547 C95 1.382 . S
C549 C137 1.382 . S
C565 C151 1.381 . S
C567 C109 1.381 . S
C583 C123 1.382 . S
C585 C165 1.382 . S
