# Generated by pormake.
# Topology wiv, (6)-cn, num edge types: 1
# Building blocks:
#     Node 0, Type 0, BuildingBlock: UKALOJ_clean_sbu_0, # of connection points: 6
#     Node 1, Type 0, BuildingBlock: UKALOJ_clean_sbu_0, # of connection points: 6
#     Node 2, Type 0, BuildingBlock: UKALOJ_clean_sbu_0, # of connection points: 6
#     Node 3, Type 0, BuildingBlock: UKALOJ_clean_sbu_0, # of connection points: 6
#     Node 4, Type 0, BuildingBlock: UKALOJ_clean_sbu_0, # of connection points: 6
#     Node 5, Type 0, BuildingBlock: UKALOJ_clean_sbu_0, # of connection points: 6
#     Node 6, Type 0, BuildingBlock: UKALOJ_clean_sbu_0, # of connection points: 6
#     Node 7, Type 0, BuildingBlock: UKALOJ_clean_sbu_0, # of connection points: 6
#     Node 8, Type 0, BuildingBlock: UKALOJ_clean_sbu_0, # of connection points: 6
#     Node 9, Type 0, BuildingBlock: UKALOJ_clean_sbu_0, # of connection points: 6
#     Node 10, Type 0, BuildingBlock: UKALOJ_clean_sbu_0, # of connection points: 6
#     Node 11, Type 0, BuildingBlock: UKALOJ_clean_sbu_0, # of connection points: 6
#     Node 12, Type 0, BuildingBlock: UKALOJ_clean_sbu_0, # of connection points: 6
#     Node 13, Type 0, BuildingBlock: UKALOJ_clean_sbu_0, # of connection points: 6
#     Node 14, Type 0, BuildingBlock: UKALOJ_clean_sbu_0, # of connection points: 6
#     Node 15, Type 0, BuildingBlock: UKALOJ_clean_sbu_0, # of connection points: 6
#     Edge 16, Type (0, 0), BuildingBlock: ZUJKAS_clean_linker_0, # of connection points: 2
#     Edge 17, Type (0, 0), BuildingBlock: ZUJKAS_clean_linker_0, # of connection points: 2
#     Edge 18, Type (0, 0), BuildingBlock: ZUJKAS_clean_linker_0, # of connection points: 2
#     Edge 19, Type (0, 0), BuildingBlock: ZUJKAS_clean_linker_0, # of connection points: 2
#     Edge 20, Type (0, 0), BuildingBlock: ZUJKAS_clean_linker_0, # of connection points: 2
#     Edge 21, Type (0, 0), BuildingBlock: ZUJKAS_clean_linker_0, # of connection points: 2
#     Edge 22, Type (0, 0), BuildingBlock: ZUJKAS_clean_linker_0, # of connection points: 2
#     Edge 23, Type (0, 0), BuildingBlock: ZUJKAS_clean_linker_0, # of connection points: 2
#     Edge 24, Type (0, 0), BuildingBlock: ZUJKAS_clean_linker_0, # of connection points: 2
#     Edge 25, Type (0, 0), BuildingBlock: ZUJKAS_clean_linker_0, # of connection points: 2
#     Edge 26, Type (0, 0), BuildingBlock: ZUJKAS_clean_linker_0, # of connection points: 2
#     Edge 27, Type (0, 0), BuildingBlock: ZUJKAS_clean_linker_0, # of connection points: 2
#     Edge 28, Type (0, 0), BuildingBlock: ZUJKAS_clean_linker_0, # of connection points: 2
#     Edge 29, Type (0, 0), BuildingBlock: ZUJKAS_clean_linker_0, # of connection points: 2
#     Edge 30, Type (0, 0), BuildingBlock: ZUJKAS_clean_linker_0, # of connection points: 2
#     Edge 31, Type (0, 0), BuildingBlock: ZUJKAS_clean_linker_0, # of connection points: 2
#     Edge 32, Type (0, 0), BuildingBlock: ZUJKAS_clean_linker_0, # of connection points: 2
#     Edge 33, Type (0, 0), BuildingBlock: ZUJKAS_clean_linker_0, # of connection points: 2
#     Edge 34, Type (0, 0), BuildingBlock: ZUJKAS_clean_linker_0, # of connection points: 2
#     Edge 35, Type (0, 0), BuildingBlock: ZUJKAS_clean_linker_0, # of connection points: 2
#     Edge 36, Type (0, 0), BuildingBlock: ZUJKAS_clean_linker_0, # of connection points: 2
#     Edge 37, Type (0, 0), BuildingBlock: ZUJKAS_clean_linker_0, # of connection points: 2
#     Edge 38, Type (0, 0), BuildingBlock: ZUJKAS_clean_linker_0, # of connection points: 2
#     Edge 39, Type (0, 0), BuildingBlock: ZUJKAS_clean_linker_0, # of connection points: 2
#     Edge 40, Type (0, 0), BuildingBlock: ZUJKAS_clean_linker_0, # of connection points: 2
#     Edge 41, Type (0, 0), BuildingBlock: ZUJKAS_clean_linker_0, # of connection points: 2
#     Edge 42, Type (0, 0), BuildingBlock: ZUJKAS_clean_linker_0, # of connection points: 2
#     Edge 43, Type (0, 0), BuildingBlock: ZUJKAS_clean_linker_0, # of connection points: 2
#     Edge 44, Type (0, 0), BuildingBlock: ZUJKAS_clean_linker_0, # of connection points: 2
#     Edge 45, Type (0, 0), BuildingBlock: ZUJKAS_clean_linker_0, # of connection points: 2
#     Edge 46, Type (0, 0), BuildingBlock: ZUJKAS_clean_linker_0, # of connection points: 2
#     Edge 47, Type (0, 0), BuildingBlock: ZUJKAS_clean_linker_0, # of connection points: 2
#     Edge 48, Type (0, 0), BuildingBlock: ZUJKAS_clean_linker_0, # of connection points: 2
#     Edge 49, Type (0, 0), BuildingBlock: ZUJKAS_clean_linker_0, # of connection points: 2
#     Edge 50, Type (0, 0), BuildingBlock: ZUJKAS_clean_linker_0, # of connection points: 2
#     Edge 51, Type (0, 0), BuildingBlock: ZUJKAS_clean_linker_0, # of connection points: 2
#     Edge 52, Type (0, 0), BuildingBlock: ZUJKAS_clean_linker_0, # of connection points: 2
#     Edge 53, Type (0, 0), BuildingBlock: ZUJKAS_clean_linker_0, # of connection points: 2
#     Edge 54, Type (0, 0), BuildingBlock: ZUJKAS_clean_linker_0, # of connection points: 2
#     Edge 55, Type (0, 0), BuildingBlock: ZUJKAS_clean_linker_0, # of connection points: 2
#     Edge 56, Type (0, 0), BuildingBlock: ZUJKAS_clean_linker_0, # of connection points: 2
#     Edge 57, Type (0, 0), BuildingBlock: ZUJKAS_clean_linker_0, # of connection points: 2
#     Edge 58, Type (0, 0), BuildingBlock: ZUJKAS_clean_linker_0, # of connection points: 2
#     Edge 59, Type (0, 0), BuildingBlock: ZUJKAS_clean_linker_0, # of connection points: 2
#     Edge 60, Type (0, 0), BuildingBlock: ZUJKAS_clean_linker_0, # of connection points: 2
#     Edge 61, Type (0, 0), BuildingBlock: ZUJKAS_clean_linker_0, # of connection points: 2
#     Edge 62, Type (0, 0), BuildingBlock: ZUJKAS_clean_linker_0, # of connection points: 2
#     Edge 63, Type (0, 0), BuildingBlock: ZUJKAS_clean_linker_0, # of connection points: 2
# Relax obj value: 0.105
# Max RMSD: 0.123
# Mean RMSD: 0.123
data_MOF--net-wiv--node1-UKALOJ_clean_sbu_0--edge1-ZUJKAS_clean_linker_0
_symmetry_space_group_name_H-M    P1
_symmetry_Int_Tables_number       1
_symmetry_cell_setting            triclinic
loop_
_symmetry_equiv_pos_as_xyz
'x, y, z'
_cell_length_a     85.336261
_cell_length_b     85.325675
_cell_length_c     18.672863
_cell_angle_alpha  89.964573
_cell_angle_beta   90.017035
_cell_angle_gamma 89.930873
loop_
_atom_site_label
_atom_site_type_symbol
_atom_site_fract_x
_atom_site_fract_y
_atom_site_fract_z
_atom_type_partial_charge
Zn0 Zn 0.36203 0.12721 0.11529 0.0
O1 O 0.37128 0.1315 0.01311 0.0
C2 C 0.33363 0.11296 0.052 0.0
Zn3 Zn 0.3653 0.10129 0.10324 0.0
C4 C 0.3751 0.1197 0.97535 0.0
O5 O 0.37364 0.10594 0.00068 0.0
C6 C 0.35222 0.10853 0.24312 0.0
O7 O 0.38867 0.10301 0.14268 0.0
O8 O 0.38489 0.12814 0.15976 0.0
N9 N 0.36766 0.0775 0.08645 0.0
C10 C 0.37516 0.06624 0.12418 0.0
C11 C 0.36374 0.05503 0.03657 0.0
N12 N 0.36059 0.07048 0.03209 0.0
N13 N 0.37281 0.05201 0.09405 0.0
C14 C 0.35868 0.16414 0.10145 0.0
C15 C 0.35904 0.17021 0.21224 0.0
N16 N 0.35955 0.15064 0.13907 0.0
N17 N 0.3597 0.15452 0.20773 0.0
N18 N 0.35837 0.1766 0.14642 0.0
H19 H 0.37183 0.1624 0.00475 0.0
H20 H 0.35645 0.17671 0.00066 0.0
H21 H 0.35184 0.156 -0.00245 0.0
C22 C 0.35963 0.16499 0.02149 0.0
C23 C 0.38604 0.06956 0.18553 0.0
H24 H 0.39694 0.07483 0.16405 0.0
H25 H 0.38951 0.05891 0.21523 0.0
H26 H 0.38063 0.07808 0.22289 0.0
O27 O 0.35696 0.09693 0.20671 0.0
O28 O 0.35278 0.12218 0.21633 0.0
C29 C 0.39376 0.11621 0.16389 0.0
O30 O 0.33933 0.12613 0.07037 0.0
O31 O 0.34173 0.10055 0.06162 0.0
Zn32 Zn 0.12679 0.65388 0.9011 0.0
O33 O 0.12557 0.6442 0.00379 0.0
C34 C 0.11321 0.68323 0.95918 0.0
Zn35 Zn 0.1006 0.65293 0.8983 0.0
C36 C 0.11264 0.64097 0.03398 0.0
O37 O 0.09988 0.64346 0.00104 0.0
C38 C 0.11464 0.66585 0.76553 0.0
O39 O 0.10143 0.62968 0.8546 0.0
O40 O 0.12708 0.63121 0.85632 0.0
N41 N 0.07646 0.65306 0.89551 0.0
C42 C 0.06588 0.64648 0.85089 0.0
C43 C 0.05309 0.65872 0.93134 0.0
N44 N 0.06845 0.66065 0.94534 0.0
N45 N 0.05111 0.64979 0.87252 0.0
C46 C 0.16249 0.66201 0.88114 0.0
C47 C 0.17302 0.64328 0.93945 0.0
N48 N 0.15078 0.65305 0.90735 0.0
N49 N 0.15739 0.64144 0.94348 0.0
N50 N 0.17659 0.65607 0.90043 0.0
H51 H 0.14874 0.68246 0.85549 0.0
H52 H 0.16974 0.68525 0.85021 0.0
H53 H 0.15962 0.67423 0.7822 0.0
C54 C 0.16001 0.67692 0.84029 0.0
C55 C 0.07006 0.63763 0.78426 0.0
H56 H 0.07111 0.62499 0.79731 0.0
H57 H 0.06085 0.63909 0.74283 0.0
H58 H 0.08143 0.64168 0.76246 0.0
O59 O 0.10171 0.66258 0.79573 0.0
O60 O 0.12745 0.66341 0.79835 0.0
C61 C 0.11474 0.6235 0.84214 0.0
O62 O 0.12626 0.67655 0.94661 0.0
O63 O 0.10054 0.67612 0.94348 0.0
Zn64 Zn 0.65419 0.91773 0.10807 0.0
O65 O 0.63087 0.9161 0.14883 0.0
C66 C 0.66728 0.91036 0.24721 0.0
Zn67 Zn 0.6574 0.89177 0.11883 0.0
C68 C 0.62562 0.90277 0.16776 0.0
O69 O 0.6344 0.89079 0.16177 0.0
C70 C 0.68584 0.90611 0.05668 0.0
O71 O 0.64839 0.88743 0.01654 0.0
O72 O 0.64563 0.91299 0.00571 0.0
N73 N 0.66006 0.86838 0.14183 0.0
C74 C 0.66298 0.85533 0.10324 0.0
C75 C 0.6616 0.84847 0.21287 0.0
N76 N 0.65919 0.86403 0.20981 0.0
N77 N 0.66399 0.84268 0.14675 0.0
C78 C 0.64495 0.95307 0.12805 0.0
C79 C 0.65607 0.96371 0.03817 0.0
N80 N 0.65197 0.94151 0.09032 0.0
N81 N 0.65885 0.94818 0.03456 0.0
N82 N 0.64743 0.96714 0.09649 0.0
H83 H 0.62339 0.94478 0.17112 0.0
H84 H 0.63107 0.96103 0.2193 0.0
H85 H 0.63994 0.94187 0.22878 0.0
C86 C 0.63438 0.95017 0.19085 0.0
C87 C 0.66567 0.85519 0.02404 0.0
H88 H 0.67114 0.86633 0.00653 0.0
H89 H 0.65422 0.85399 -0.00354 0.0
H90 H 0.67325 0.84519 0.00836 0.0
O91 O 0.68019 0.89294 0.07534 0.0
O92 O 0.67767 0.91847 0.06566 0.0
C93 C 0.64435 0.89929 0.9796 0.0
O94 O 0.66275 0.92209 0.21101 0.0
O95 O 0.66642 0.89674 0.22033 0.0
Zn96 Zn 0.91705 0.36649 0.88385 0.0
O97 O 0.91525 0.38986 0.84244 0.0
C98 C 0.91004 0.35333 0.74465 0.0
Zn99 Zn 0.89115 0.36314 0.87229 0.0
C100 C 0.90188 0.39508 0.82377 0.0
O101 O 0.88998 0.38622 0.82973 0.0
C102 C 0.9056 0.3347 0.93538 0.0
O103 O 0.88658 0.37202 0.97439 0.0
O104 O 0.91209 0.37506 0.98588 0.0
N105 N 0.86783 0.36042 0.84817 0.0
C106 C 0.8546 0.35785 0.886 0.0
C107 C 0.84816 0.35897 0.77578 0.0
N108 N 0.86373 0.36111 0.77982 0.0
N109 N 0.84209 0.35692 0.84162 0.0
C110 C 0.95226 0.3759 0.86328 0.0
C111 C 0.96317 0.36484 0.95274 0.0
N112 N 0.94083 0.36887 0.90166 0.0
N113 N 0.94766 0.36203 0.95717 0.0
N114 N 0.96643 0.37347 0.89412 0.0
H115 H 0.94392 0.3975 0.82092 0.0
H116 H 0.95993 0.38977 0.77134 0.0
H117 H 0.94071 0.38101 0.76336 0.0
C118 C 0.94918 0.3865 0.80066 0.0
C119 C 0.85416 0.35543 0.96535 0.0
H120 H 0.85318 0.36701 -0.00795 0.0
H121 H 0.84393 0.34818 0.98096 0.0
H122 H 0.86511 0.3497 0.98385 0.0
O123 O 0.89243 0.34026 0.9158 0.0
O124 O 0.91791 0.34297 0.92696 0.0
C125 C 0.89834 0.37617 0.01166 0.0
O126 O 0.92166 0.35786 0.78143 0.0
O127 O 0.89636 0.35421 0.77082 0.0
Zn128 Zn 0.36147 0.39216 0.11816 0.0
O129 O 0.3706 0.38746 0.21986 0.0
C130 C 0.3331 0.4067 0.18202 0.0
Zn131 Zn 0.36458 0.41809 0.12906 0.0
C132 C 0.37464 0.39927 0.25693 0.0
O133 O 0.37332 0.41299 0.23096 0.0
C134 C 0.35127 0.41096 -0.00968 0.0
O135 O 0.3878 0.41632 0.08729 0.0
O136 O 0.3844 0.39103 0.07416 0.0
N137 N 0.36767 0.44169 0.14803 0.0
C138 C 0.37221 0.4536 0.10509 0.0
C139 C 0.36886 0.4631 0.20947 0.0
N140 N 0.3656 0.44766 0.21283 0.0
N141 N 0.37296 0.46717 0.14232 0.0
C142 C 0.35616 0.35566 0.13232 0.0
C143 C 0.35711 0.34915 0.02219 0.0
N144 N 0.35865 0.36887 0.0942 0.0
N145 N 0.35923 0.36473 0.02591 0.0
N146 N 0.35517 0.34312 0.08819 0.0
H147 H 0.36547 0.35431 0.23817 0.0
H148 H 0.34664 0.34503 0.22773 0.0
H149 H 0.34813 0.36621 0.23023 0.0
C150 C 0.35386 0.35526 0.21176 0.0
C151 C 0.37674 0.45179 0.02796 0.0
H152 H 0.38631 0.46003 0.01387 0.0
H153 H 0.36644 0.45453 -0.00604 0.0
H154 H 0.38056 0.4397 0.01595 0.0
O155 O 0.35574 0.42272 0.0264 0.0
O156 O 0.35229 0.39736 0.01723 0.0
C157 C 0.39309 0.40304 0.0679 0.0
O158 O 0.33874 0.39354 0.1628 0.0
O159 O 0.34121 0.41909 0.17284 0.0
Zn160 Zn 0.41563 0.65284 0.83906 0.0
O161 O 0.41513 0.62968 0.88263 0.0
C162 C 0.4059 0.66622 0.97574 0.0
Zn163 Zn 0.38953 0.65499 0.84485 0.0
C164 C 0.40189 0.62392 0.89924 0.0
O165 O 0.38961 0.63207 0.88916 0.0
C166 C 0.40289 0.68381 0.78301 0.0
O167 O 0.38698 0.64542 0.74265 0.0
O168 O 0.41265 0.64349 0.73671 0.0
N169 N 0.36577 0.65558 0.86068 0.0
C170 C 0.35322 0.66075 0.82341 0.0
C171 C 0.34466 0.64991 0.91852 0.0
N172 N 0.36037 0.64894 0.91978 0.0
N173 N 0.3398 0.65729 0.85872 0.0
C174 C 0.45104 0.64503 0.86633 0.0
C175 C 0.46203 0.65632 0.77784 0.0
N176 N 0.43959 0.65176 0.82686 0.0
N177 N 0.44648 0.65875 0.77193 0.0
N178 N 0.46524 0.64766 0.83642 0.0
H179 H 0.43753 0.64077 0.96231 0.0
H180 H 0.4472 0.62394 0.92543 0.0
H181 H 0.45844 0.63847 0.97272 0.0
C182 C 0.44838 0.63668 0.93594 0.0
C183 C 0.35414 0.66848 0.75152 0.0
H184 H 0.3654 0.66578 0.72469 0.0
H185 H 0.34423 0.6647 0.7172 0.0
H186 H 0.35338 0.68136 0.75867 0.0
O187 O 0.38978 0.67778 0.80011 0.0
O188 O 0.41544 0.67607 0.79424 0.0
C189 C 0.39925 0.64165 0.70818 0.0
O190 O 0.41813 0.66229 0.94153 0.0
O191 O 0.39254 0.66451 0.9469 0.0
Zn192 Zn 0.65409 0.62738 0.11123 0.0
O193 O 0.64508 0.63164 0.21344 0.0
C194 C 0.68305 0.61393 0.17228 0.0
Zn195 Zn 0.65153 0.60139 0.12251 0.0
C196 C 0.64137 0.61977 0.25083 0.0
O197 O 0.64296 0.60608 0.22505 0.0
C198 C 0.6643 0.60908 0.98282 0.0
O199 O 0.62807 0.60211 0.08255 0.0
O200 O 0.63096 0.62744 0.06929 0.0
N201 N 0.64953 0.57767 0.1419 0.0
C202 C 0.64521 0.56553 0.09986 0.0
C203 C 0.64923 0.55637 0.20444 0.0
N204 N 0.65203 0.57191 0.20679 0.0
N205 N 0.645 0.55202 0.13783 0.0
C206 C 0.66022 0.66398 0.12049 0.0
C207 C 0.65042 0.67082 0.02021 0.0
N208 N 0.65527 0.65082 0.08731 0.0
N209 N 0.64929 0.65516 0.02498 0.0
N210 N 0.65724 0.67675 0.07933 0.0
H211 H 0.66483 0.65329 0.22329 0.0
H212 H 0.66283 0.67447 0.2246 0.0
H213 H 0.68021 0.6654 0.18894 0.0
C214 C 0.6673 0.66427 0.19387 0.0
C215 C 0.64034 0.56704 0.02301 0.0
H216 H 0.63094 0.55852 0.01013 0.0
H217 H 0.65058 0.56447 0.98837 0.0
H218 H 0.63619 0.57901 0.01065 0.0
O219 O 0.66017 0.59723 0.01926 0.0
O220 O 0.66307 0.62269 0.00959 0.0
C221 C 0.62248 0.61528 0.06352 0.0
O222 O 0.67706 0.627 0.15376 0.0
O223 O 0.67511 0.60139 0.16412 0.0
Zn224 Zn 0.62602 0.3622 0.86314 0.0
O225 O 0.63021 0.37142 0.76125 0.0
C226 C 0.61202 0.3339 0.799 0.0
Zn227 Zn 0.60004 0.36534 0.85292 0.0
C228 C 0.61835 0.3756 0.7247 0.0
O229 O 0.60469 0.37437 0.75121 0.0
C230 C 0.6075 0.35181 -0.00885 0.0
O231 O 0.60126 0.38854 0.89589 0.0
O232 O 0.62662 0.38514 0.90671 0.0
N233 N 0.57632 0.36751 0.8348 0.0
C234 C 0.56465 0.37439 0.87231 0.0
C235 C 0.55425 0.36341 0.78158 0.0
N236 N 0.5698 0.36074 0.77841 0.0
N237 N 0.55068 0.37202 0.83981 0.0
C238 C 0.66302 0.35927 0.84969 0.0
C239 C 0.66904 0.35983 0.96052 0.0
N240 N 0.64949 0.36004 0.88713 0.0
N241 N 0.65334 0.36032 0.95582 0.0
N242 N 0.67546 0.35914 0.8948 0.0
H243 H 0.66121 0.3723 0.75264 0.0
H244 H 0.67563 0.35702 0.7491 0.0
H245 H 0.65495 0.35226 0.74586 0.0
C246 C 0.66388 0.36013 0.76971 0.0
C247 C 0.56684 0.38264 0.94251 0.0
H248 H 0.56786 0.39541 0.93257 0.0
H249 H 0.55663 0.38061 0.97807 0.0
H250 H 0.57762 0.37869 0.96998 0.0
O251 O 0.59574 0.3562 0.95483 0.0
O252 O 0.62112 0.35294 0.96448 0.0
C253 C 0.61461 0.39381 0.9142 0.0
O254 O 0.62519 0.33946 0.81843 0.0
O255 O 0.59965 0.34205 0.80843 0.0
Zn256 Zn 0.8651 0.62825 0.56408 0.0
O257 O 0.87457 0.62743 0.46104 0.0
C258 C 0.83581 0.61417 0.50698 0.0
Zn259 Zn 0.8665 0.60201 0.56633 0.0
C260 C 0.8781 0.61459 0.43074 0.0
O261 O 0.8759 0.60175 0.4635 0.0
C262 C 0.85353 0.61556 0.69961 0.0
O263 O 0.88979 0.60319 0.6095 0.0
O264 O 0.88796 0.62883 0.60784 0.0
N265 N 0.86701 0.57783 0.56748 0.0
C266 C 0.87277 0.56716 0.61417 0.0
C267 C 0.8643 0.55459 0.52346 0.0
N268 N 0.8617 0.56995 0.51145 0.0
N269 N 0.8712 0.55249 0.58762 0.0
C270 C 0.85643 0.66388 0.58655 0.0
C271 C 0.87453 0.67479 0.52584 0.0
N272 N 0.8654 0.65234 0.55872 0.0
N273 N 0.87662 0.65919 0.52112 0.0
N274 N 0.86197 0.67811 0.5668 0.0
H275 H 0.83638 0.64983 0.61428 0.0
H276 H 0.83334 0.6708 0.62118 0.0
H277 H 0.84497 0.66063 0.687 0.0
C278 C 0.84186 0.66113 0.62936 0.0
C279 C 0.8813 0.5712 0.68184 0.0
H280 H 0.8941 0.57034 0.67202 0.0
H281 H 0.87833 0.56286 0.72518 0.0
H282 H 0.8785 0.58325 0.69968 0.0
O283 O 0.85694 0.60271 0.66897 0.0
O284 O 0.85579 0.62846 0.66722 0.0
C285 C 0.89586 0.61656 0.6216 0.0
O286 O 0.84224 0.62733 0.51964 0.0
O287 O 0.84325 0.6016 0.52177 0.0
Zn288 Zn 0.62732 0.15827 0.35647 0.0
O289 O 0.63228 0.14912 0.4582 0.0
C290 C 0.61258 0.18642 0.42054 0.0
Zn291 Zn 0.60153 0.15458 0.3699 0.0
C292 C 0.62065 0.1451 0.49661 0.0
O293 O 0.6068 0.14633 0.47207 0.0
C294 C 0.60804 0.16777 0.22978 0.0
O295 O 0.60363 0.13127 0.33023 0.0
O296 O 0.62867 0.13539 0.31182 0.0
N297 N 0.57787 0.1518 0.38859 0.0
C298 C 0.56656 0.14433 0.35123 0.0
C299 C 0.55549 0.15572 0.43935 0.0
N300 N 0.57095 0.15883 0.44331 0.0
N301 N 0.55237 0.1467 0.38186 0.0
C302 C 0.66373 0.16429 0.3691 0.0
C303 C 0.67001 0.16361 0.25863 0.0
N304 N 0.65051 0.16146 0.33157 0.0
N305 N 0.65451 0.16104 0.26306 0.0
N306 N 0.67613 0.16568 0.32437 0.0
H307 H 0.66553 0.15491 0.47468 0.0
H308 H 0.67434 0.17396 0.46418 0.0
H309 H 0.65321 0.17197 0.46765 0.0
C310 C 0.66425 0.16652 0.44854 0.0
C311 C 0.56979 0.13351 0.28961 0.0
H312 H 0.57563 0.12282 0.31039 0.0
H313 H 0.55904 0.12963 0.26185 0.0
H314 H 0.5778 0.13916 0.25077 0.0
O315 O 0.59661 0.16284 0.26675 0.0
O316 O 0.62175 0.1674 0.25588 0.0
C317 C 0.61686 0.12635 0.30835 0.0
O318 O 0.6258 0.18094 0.40137 0.0
O319 O 0.60032 0.17811 0.41164 0.0
Zn320 Zn 0.1533 0.41804 0.60791 0.0
O321 O 0.12997 0.41724 0.64888 0.0
C322 C 0.16677 0.40973 0.74653 0.0
Zn323 Zn 0.15619 0.3921 0.61792 0.0
C324 C 0.12469 0.40405 0.66925 0.0
O325 O 0.1333 0.39197 0.66316 0.0
C326 C 0.1847 0.4057 0.55441 0.0
O327 O 0.14659 0.38842 0.51597 0.0
O328 O 0.14447 0.41403 0.50556 0.0
N329 N 0.1574 0.36858 0.63936 0.0
C330 C 0.16251 0.35558 0.60528 0.0
C331 C 0.15264 0.34829 0.70472 0.0
N332 N 0.15137 0.36396 0.70116 0.0
N333 N 0.1596 0.34266 0.64537 0.0
C334 C 0.14441 0.45327 0.63028 0.0
C335 C 0.15596 0.46429 0.54256 0.0
N336 N 0.1516 0.44187 0.5923 0.0
N337 N 0.15873 0.44877 0.53778 0.0
N338 N 0.14689 0.46744 0.59988 0.0
H339 H 0.1231 0.44914 0.68728 0.0
H340 H 0.13713 0.46084 0.73544 0.0
H341 H 0.13994 0.43998 0.72687 0.0
C342 C 0.13575 0.45064 0.69915 0.0
C343 C 0.16965 0.35559 0.53207 0.0
H344 H 0.16686 0.36656 0.50301 0.0
H345 H 0.1655 0.34533 0.50092 0.0
H346 H 0.18258 0.35476 0.53724 0.0
O347 O 0.17892 0.39253 0.57243 0.0
O348 O 0.17673 0.41815 0.56483 0.0
C349 C 0.1428 0.4004 0.47927 0.0
O350 O 0.16227 0.4216 0.7111 0.0
O351 O 0.16575 0.3962 0.71892 0.0
Zn352 Zn 0.39219 0.86229 0.35725 0.0
O353 O 0.38833 0.87188 0.45897 0.0
C354 C 0.40488 0.83343 0.42114 0.0
Zn355 Zn 0.41816 0.86453 0.36914 0.0
C356 C 0.40024 0.87537 0.49654 0.0
O357 O 0.41393 0.8734 0.4712 0.0
C358 C 0.41008 0.85139 0.22986 0.0
O359 O 0.418 0.88793 0.32827 0.0
O360 O 0.3927 0.88515 0.31259 0.0
N361 N 0.44195 0.86563 0.38707 0.0
C362 C 0.45374 0.87253 0.35057 0.0
C363 C 0.46392 0.86078 0.43995 0.0
N364 N 0.44833 0.85836 0.44259 0.0
N365 N 0.46766 0.86972 0.38293 0.0
C366 C 0.35565 0.85653 0.36794 0.0
C367 C 0.34856 0.86677 0.26891 0.0
N368 N 0.36872 0.8616 0.33445 0.0
N369 N 0.36423 0.86786 0.2729 0.0
N370 N 0.3428 0.85968 0.32772 0.0
H371 H 0.36639 0.85192 0.47054 0.0
H372 H 0.34518 0.85328 0.47174 0.0
H373 H 0.35473 0.83629 0.43496 0.0
C374 C 0.35551 0.8492 0.44082 0.0
C375 C 0.4517 0.88123 0.28139 0.0
H376 H 0.45034 0.89391 0.29301 0.0
H377 H 0.46209 0.87964 0.24642 0.0
H378 H 0.44113 0.87726 0.25241 0.0
O379 O 0.42192 0.85555 0.26619 0.0
O380 O 0.39647 0.85275 0.25649 0.0
C381 C 0.40496 0.8935 0.30729 0.0
O382 O 0.39195 0.83959 0.40207 0.0
O383 O 0.41757 0.84106 0.41201 0.0
Zn384 Zn 0.86618 0.91671 0.63721 0.0
O385 O 0.88948 0.91563 0.59591 0.0
C386 C 0.85289 0.90718 0.49966 0.0
Zn387 Zn 0.86362 0.8906 0.63054 0.0
C388 C 0.89499 0.90232 0.57846 0.0
O389 O 0.88652 0.89022 0.5866 0.0
C390 C 0.83495 0.9045 0.69186 0.0
O391 O 0.87312 0.88799 0.73284 0.0
O392 O 0.8751 0.91366 0.74021 0.0
N393 N 0.86273 0.86677 0.61504 0.0
C394 C 0.85753 0.85425 0.65253 0.0
C395 C 0.86836 0.84556 0.55766 0.0
N396 N 0.86935 0.86127 0.55607 0.0
N397 N 0.86099 0.84078 0.61754 0.0
C398 C 0.87427 0.95198 0.60688 0.0
C399 C 0.86313 0.96357 0.69421 0.0
N400 N 0.86746 0.94081 0.64777 0.0
N401 N 0.86054 0.94808 0.70186 0.0
N402 N 0.87166 0.96639 0.63487 0.0
H403 H 0.89627 0.94437 0.5656 0.0
H404 H 0.88715 0.95879 0.51074 0.0
H405 H 0.87978 0.93897 0.51132 0.0
C406 C 0.88482 0.94845 0.54462 0.0
C407 C 0.84982 0.85525 0.72439 0.0
H408 H 0.85236 0.8666 0.75064 0.0
H409 H 0.85377 0.84545 0.75912 0.0
H410 H 0.83695 0.85428 0.71734 0.0
O411 O 0.84085 0.89129 0.67518 0.0
O412 O 0.84281 0.91696 0.68035 0.0
C413 C 0.87685 0.90017 0.76809 0.0
O414 O 0.85718 0.91926 0.53399 0.0
O415 O 0.85417 0.89375 0.52843 0.0
Zn416 Zn 0.89163 0.15617 0.36132 0.0
O417 O 0.88788 0.14665 0.25938 0.0
C418 C 0.90515 0.1849 0.29865 0.0
Zn419 Zn 0.91757 0.15335 0.35049 0.0
C420 C 0.89982 0.1431 0.22195 0.0
O421 O 0.9135 0.14491 0.2476 0.0
C422 C 0.90945 0.16644 0.48993 0.0
O423 O 0.91662 0.12983 0.38969 0.0
O424 O 0.89145 0.13324 0.406 0.0
N425 N 0.94148 0.15184 0.33522 0.0
C426 C 0.95288 0.14473 0.37366 0.0
C427 C 0.96393 0.15643 0.28635 0.0
N428 N 0.9484 0.15909 0.28108 0.0
N429 N 0.9671 0.14751 0.34417 0.0
C430 C 0.85499 0.16199 0.34898 0.0
C431 C 0.84806 0.15271 0.45015 0.0
N432 N 0.86814 0.15737 0.38339 0.0
N433 N 0.86374 0.15172 0.44626 0.0
N434 N 0.84219 0.15911 0.38991 0.0
H435 H 0.86587 0.16615 0.2463 0.0
H436 H 0.84473 0.16382 0.24405 0.0
H437 H 0.85339 0.18154 0.27802 0.0
C438 C 0.85477 0.16863 0.27476 0.0
C439 C 0.94976 0.1338 0.43506 0.0
H440 H 0.94508 0.12265 0.41347 0.0
H441 H 0.96041 0.13087 0.4659 0.0
H442 H 0.94084 0.13888 0.47144 0.0
O443 O 0.92124 0.16183 0.45428 0.0
O444 O 0.89589 0.16563 0.4624 0.0
C445 C 0.90348 0.12454 0.4106 0.0
O446 O 0.89201 0.17896 0.31615 0.0
O447 O 0.91766 0.17701 0.30907 0.0
Zn448 Zn 0.15711 0.12779 0.6134 0.0
O449 O 0.14763 0.13202 0.71503 0.0
C450 C 0.18559 0.11412 0.67711 0.0
Zn451 Zn 0.15403 0.10191 0.62571 0.0
C452 C 0.14389 0.12023 0.75298 0.0
O453 O 0.14553 0.10646 0.72805 0.0
C454 C 0.16724 0.10942 0.48606 0.0
O455 O 0.13065 0.10297 0.58603 0.0
O456 O 0.13421 0.12809 0.56859 0.0
N457 N 0.1523 0.0781 0.64308 0.0
C458 C 0.14513 0.06659 0.60579 0.0
C459 C 0.15675 0.05585 0.69422 0.0
N460 N 0.1595 0.07137 0.69793 0.0
N461 N 0.14781 0.05249 0.63673 0.0
C462 C 0.16358 0.16432 0.6231 0.0
C463 C 0.15412 0.17122 0.52221 0.0
N464 N 0.15859 0.15119 0.58974 0.0
N465 N 0.15283 0.15557 0.52702 0.0
N466 N 0.16084 0.17708 0.58167 0.0
H467 H 0.16784 0.15363 0.72618 0.0
H468 H 0.16591 0.17482 0.72724 0.0
H469 H 0.18337 0.16573 0.69273 0.0
C470 C 0.17045 0.1646 0.69688 0.0
C471 C 0.13424 0.06953 0.54406 0.0
H472 H 0.12316 0.07455 0.56506 0.0
H473 H 0.13111 0.05874 0.51472 0.0
H474 H 0.13945 0.07812 0.50649 0.0
O475 O 0.16254 0.09777 0.52237 0.0
O476 O 0.16653 0.12307 0.51277 0.0
C477 C 0.12546 0.1161 0.56437 0.0
O478 O 0.17983 0.12727 0.65852 0.0
O479 O 0.17757 0.10169 0.66752 0.0
Zn480 Zn 0.10198 0.86525 0.36314 0.0
O481 O 0.10252 0.8886 0.40378 0.0
C482 C 0.11025 0.85191 0.50202 0.0
Zn483 Zn 0.12793 0.86251 0.3735 0.0
C484 C 0.11568 0.89395 0.42403 0.0
O485 O 0.12781 0.88541 0.41806 0.0
C486 C 0.11462 0.83388 0.31083 0.0
O487 O 0.13163 0.87203 0.27137 0.0
O488 O 0.10602 0.87405 0.26079 0.0
N489 N 0.15143 0.8615 0.39516 0.0
C490 C 0.16444 0.85646 0.36096 0.0
C491 C 0.17172 0.86644 0.46014 0.0
N492 N 0.15605 0.8676 0.45681 0.0
N493 N 0.17736 0.85947 0.4008 0.0
C494 C 0.06657 0.87367 0.38382 0.0
C495 C 0.05602 0.86207 0.29508 0.0
N496 N 0.07819 0.86668 0.3465 0.0
N497 N 0.07158 0.85951 0.29134 0.0
N498 N 0.05254 0.87101 0.35238 0.0
H499 H 0.07016 0.895 0.44135 0.0
H500 H 0.05863 0.8807 0.48874 0.0
H501 H 0.07957 0.87832 0.481 0.0
C502 C 0.06888 0.88231 0.45294 0.0
C503 C 0.16443 0.84927 0.28783 0.0
H504 H 0.17462 0.85351 0.2564 0.0
H505 H 0.16539 0.83635 0.29317 0.0
H506 H 0.15342 0.85193 0.25894 0.0
O507 O 0.12774 0.83975 0.3289 0.0
O508 O 0.10213 0.84182 0.32057 0.0
C509 C 0.11965 0.87576 0.23456 0.0
O510 O 0.09838 0.85631 0.46639 0.0
O511 O 0.1238 0.85303 0.47462 0.0
H512 H 0.42496 0.91817 0.32981 0.0
H513 H 0.42092 0.94561 0.29474 0.0
H514 H 0.37839 0.93266 0.18486 0.0
H515 H 0.38199 0.90549 0.2223 0.0
H516 H 0.41859 0.96119 0.17221 0.0
H517 H 0.36196 0.96604 0.3141 0.0
H518 H 0.37468 0.94931 0.32454 0.0
H519 H 0.36158 0.95063 0.24902 0.0
C520 C 0.41479 0.9212 0.29794 0.0
C521 C 0.40366 0.90973 0.27978 0.0
C522 C 0.41248 0.93688 0.27796 0.0
C523 C 0.39909 0.94132 0.23893 0.0
C524 C 0.3885 0.92967 0.21719 0.0
H525 H 0.38491 0.0293 0.01073 0.0
H526 H 0.39201 1.00259 0.04688 0.0
C527 C 0.39064 0.9141 0.23817 0.0
C528 C 0.39601 0.95809 0.22169 0.0
H529 H 0.36789 0.98652 0.23143 0.0
C530 C 0.40755 0.96678 0.18565 0.0
C531 C 0.38176 0.96554 0.2406 0.0
C532 C 0.36937 0.95744 0.28489 0.0
C533 C 0.40507 0.98253 0.16634 0.0
C534 C 0.39042 0.98967 0.18137 0.0
C535 C 0.37905 0.98107 0.21894 0.0
C536 C 0.38656 1.00602 0.15914 0.0
C537 C 0.41831 0.9914 0.13139 0.0
C538 C 0.38046 0.01671 0.20922 0.0
C539 C 0.37601 0.0318 0.18806 0.0
C540 C 0.37791 0.03668 0.11675 0.0
C541 C 0.38374 0.02593 0.0664 0.0
C542 C 0.38795 0.01074 0.08725 0.0
H543 H 0.42987 0.98625 0.14557 0.0
H544 H 0.41703 0.99069 0.07235 0.0
H545 H 0.41827 1.00393 0.1473 0.0
H546 H 0.37896 0.01332 0.26471 0.0
H547 H 0.37076 0.03956 0.22716 0.0
H548 H 0.91068 0.64329 0.66391 0.0
H549 H 0.93751 0.64621 0.70701 0.0
H550 H 0.94475 0.5964 0.68717 0.0
H551 H 0.91775 0.59331 0.6437 0.0
H552 H 0.95183 0.63096 0.8298 0.0
H553 H 0.98166 0.61693 0.57244 0.0
H554 H 0.96125 0.62249 0.57649 0.0
H555 H 0.9672 0.60326 0.6043 0.0
C556 C 0.91793 0.63291 0.66863 0.0
C557 C 0.91205 0.61806 0.64999 0.0
C558 C 0.93328 0.63462 0.69338 0.0
C559 C 0.94318 0.62157 0.69951 0.0
C560 C 0.93736 0.60667 0.68186 0.0
H561 H 0.04266 0.62098 0.82377 0.0
H562 H 0.01658 0.613 0.78196 0.0
C563 C 0.92191 0.60491 0.6574 0.0
C564 C 0.95952 0.62375 0.72515 0.0
H565 H 0.99774 0.62356 0.67031 0.0
C566 C 0.96188 0.62925 0.79511 0.0
C567 C 0.97261 0.62142 0.67993 0.0
C568 C 0.97067 0.61579 0.60389 0.0
C569 C 0.97696 0.63268 0.82084 0.0
C570 C 0.99003 0.63095 0.77475 0.0
C571 C 0.98772 0.62498 0.70545 0.0
C572 C 1.00605 0.63586 0.79678 0.0
C573 C 0.97874 0.63805 0.8974 0.0
C574 C 1.00892 0.65142 0.81725 0.0
C575 C 0.02379 0.65599 0.84069 0.0
C576 C 0.0362 0.64517 0.84292 0.0
C577 C 0.03344 0.62966 0.82083 0.0
C578 C 0.01851 0.62507 0.79759 0.0
H579 H 0.96873 0.63415 0.931 0.0
H580 H 0.98977 0.63356 0.92143 0.0
H581 H 0.97904 0.65105 0.89878 0.0
H582 H 0.99961 0.66005 0.81555 0.0
H583 H 0.02562 0.668 0.85739 0.0
H584 H 0.63556 0.98986 0.01251 0.0
H585 H 0.62984 0.01704 0.04638 0.0
H586 H 0.64347 1.00676 0.26399 0.0
H587 H 0.65027 0.97998 0.22872 0.0
H588 H 0.60982 0.03011 0.13499 0.0
H589 H 0.6697 0.04434 0.22773 0.0
H590 H 0.66524 0.02637 0.18141 0.0
H591 H 0.66157 0.02813 0.27611 0.0
C592 C 0.63728 0.99346 0.06754 0.0
C593 C 0.64292 0.98271 0.11842 0.0
C594 C 0.63398 1.00896 0.08696 0.0
C595 C 0.63637 0.01407 0.15766 0.0
C596 C 0.64178 1.00325 0.20883 0.0
H597 H 0.59781 0.1011 0.33244 0.0
H598 H 0.60205 0.07398 0.29459 0.0
C599 C 0.64532 0.98782 0.18909 0.0
C600 C 0.63328 0.03072 0.17745 0.0
H601 H 0.64977 0.06284 0.25626 0.0
C602 C 0.61859 0.03729 0.16119 0.0
C603 C 0.6448 0.04025 0.21041 0.0
C604 C 0.66126 0.03447 0.22421 0.0
C605 C 0.61504 0.05299 0.17769 0.0
C606 C 0.62631 0.06228 0.21378 0.0
C607 C 0.64104 0.05574 0.22932 0.0
C608 C 0.62327 0.07886 0.23498 0.0
C609 C 0.59941 0.05952 0.15438 0.0
C610 C 0.63396 0.09067 0.21594 0.0
C611 C 0.63176 0.1061 0.23905 0.0
C612 C 0.61871 0.11014 0.28114 0.0
C613 C 0.60787 0.0984 0.29929 0.0
C614 C 0.61023 0.08289 0.27723 0.0
H615 H 0.59451 0.05284 0.10847 0.0
H616 H 0.59097 0.05858 0.19935 0.0
H617 H 0.60036 0.07203 0.13865 0.0
H618 H 0.64413 0.08792 0.18351 0.0
H619 H 0.64031 0.11488 0.22401 0.0
H620 H 0.97881 0.37057 0.76102 0.0
H621 H 1.00533 0.37762 0.7233 0.0
H622 H 0.01641 0.39129 0.93994 0.0
H623 H 0.98942 0.38539 0.97625 0.0
H624 H 0.02899 0.41138 0.85066 0.0
H625 H 0.04323 0.35169 0.75523 0.0
H626 H 0.02678 0.35977 0.7083 0.0
H627 H 0.02541 0.35599 0.80309 0.0
C628 C 0.98675 0.37559 0.79994 0.0
C629 C 0.9819 0.37797 0.87101 0.0
C630 C 1.00204 0.37926 0.77878 0.0
C631 C 0.01303 0.38476 0.82893 0.0
C632 C 1.00819 0.38709 0.9001 0.0
H633 H 0.1133 0.38064 0.75349 0.0
H634 H 0.0865 0.37706 0.79599 0.0
C635 C 0.99281 0.38368 0.92092 0.0
C636 C 0.02956 0.38797 0.80755 0.0
H637 H 0.06139 0.37175 0.72498 0.0
C638 C 0.03611 0.40267 0.82351 0.0
C639 C 0.039 0.37655 0.77326 0.0
C640 C 0.0333 0.36007 0.75969 0.0
C641 C 0.05171 0.40632 0.80562 0.0
C642 C 0.0609 0.39514 0.76835 0.0
C643 C 0.05436 0.38041 0.75288 0.0
C644 C 0.07744 0.39817 0.74639 0.0
C645 C 0.05825 0.42193 0.82885 0.0
C646 C 0.08146 0.41132 0.70477 0.0
C647 C 0.09692 0.41357 0.68168 0.0
C648 C 0.10859 0.40248 0.69804 0.0
C649 C 0.10457 0.38937 0.73973 0.0
C650 C 0.08922 0.3873 0.76398 0.0
H651 H 0.0517 0.42676 0.87534 0.0
H652 H 0.07081 0.42098 0.84367 0.0
H653 H 0.05712 0.43043 0.78414 0.0
H654 H 0.07257 0.41966 0.68857 0.0
H655 H 0.09964 0.42371 0.649 0.0
H656 H 0.36351 0.48218 0.02174 0.0
H657 H 0.37085 0.5086 0.98324 0.0
H658 H 0.39907 0.51399 0.17329 0.0
H659 H 0.39173 0.48746 0.21171 0.0
H660 H 0.38044 0.53938 0.14881 0.0
H661 H 0.4122 0.5238 0.90013 0.0
H662 H 0.39277 0.51581 0.9035 0.0
H663 H 0.40722 0.50948 0.96754 0.0
C664 C 0.37158 0.48885 0.05433 0.0
C665 C 0.37741 0.48263 0.11874 0.0
C666 C 0.37574 0.50397 0.03244 0.0
C667 C 0.38582 0.51316 0.0745 0.0
C668 C 0.39142 0.50706 0.13956 0.0
H669 H 0.42532 0.60238 0.92337 0.0
H670 H 0.42255 0.57566 0.97048 0.0
C671 C 0.38722 0.49195 0.16151 0.0
C672 C 0.38993 0.52938 0.0522 0.0
H673 H 0.40531 0.5508 0.91442 0.0
C674 C 0.386 0.54186 0.09783 0.0
C675 C 0.39743 0.53263 0.98621 0.0
C676 C 0.4028 0.51972 0.93681 0.0
C677 C 0.38884 0.5575 0.07815 0.0
C678 C 0.39555 0.56078 0.01046 0.0
C679 C 0.40002 0.54829 0.96597 0.0
C680 C 0.39739 0.57708 0.98366 0.0
C681 C 0.38464 0.57037 0.13012 0.0
C682 C 0.38418 0.58668 0.97476 0.0
C683 C 0.38572 0.60189 0.94803 0.0
C684 C 0.40052 0.60784 0.92904 0.0
C685 C 0.41377 0.59819 0.93772 0.0
C686 C 0.4122 0.58292 0.96452 0.0
H687 H 0.38415 0.56595 0.18606 0.0
H688 H 0.39321 0.58014 0.1275 0.0
H689 H 0.37289 0.57508 0.11636 0.0
H690 H 0.3726 0.58232 0.98764 0.0
H691 H 0.37524 0.60893 0.94175 0.0
H692 H 0.60817 0.64147 0.01079 0.0
H693 H 0.58111 0.64437 0.97063 0.0
H694 H 0.57264 0.59549 0.01422 0.0
H695 H 0.59983 0.59244 0.05505 0.0
H696 H 0.56518 0.62784 0.85886 0.0
H697 H 0.53748 0.61883 0.12557 0.0
H698 H 0.55805 0.62329 0.11552 0.0
H699 H 0.55097 0.60396 0.09611 0.0
C700 C 0.6006 0.6313 0.0119 0.0
C701 C 0.60617 0.61673 0.03658 0.0
C702 C 0.58512 0.63299 0.98879 0.0
C703 C 0.57481 0.62021 -0.00972 0.0
C704 C 0.58034 0.60557 0.01371 0.0
H705 H 0.47435 0.61918 0.887 0.0
H706 H 0.5009 0.61141 0.92327 0.0
C707 C 0.5959 0.60383 0.03665 0.0
C708 C 0.55831 0.62239 0.96691 0.0
H709 H 0.52059 0.62362 0.02818 0.0
C710 C 0.55542 0.62684 0.89576 0.0
C711 C 0.54559 0.621 0.01506 0.0
C712 C 0.54808 0.61662 0.09252 0.0
C713 C 0.54017 0.63009 0.87157 0.0
C714 C 0.52749 0.62922 0.92029 0.0
C715 C 0.53032 0.62434 -0.00902 0.0
C716 C 0.51132 0.63393 0.8996 0.0
C717 C 0.53778 0.63435 0.79387 0.0
C718 C 0.5083 0.64923 0.87546 0.0
C719 C 0.49316 0.65369 0.8553 0.0
C720 C 0.48066 0.64304 0.86 0.0
C721 C 0.48365 0.62776 0.88476 0.0
C722 C 0.49884 0.62328 0.90483 0.0
H723 H 0.54751 0.6299 0.75989 0.0
H724 H 0.52656 0.62958 0.77319 0.0
H725 H 0.53748 0.6473 0.78852 0.0
H726 H 0.51766 0.65776 0.87239 0.0
H727 H 0.49115 0.66552 0.83642 0.0
H728 H 0.62673 0.53168 0.20959 0.0
H729 H 0.61999 0.50482 0.17437 0.0
H730 H 0.64755 0.50999 0.98224 0.0
H731 H 0.65426 0.53683 0.01745 0.0
H732 H 0.61891 0.49594 0.95648 0.0
H733 H 0.64914 0.46718 0.1847 0.0
H734 H 0.63479 0.48148 0.21089 0.0
H735 H 0.65199 0.48758 0.16277 0.0
C736 C 0.63131 0.52704 0.15985 0.0
C737 C 0.64081 0.5364 0.11571 0.0
C738 C 0.62752 0.5117 0.13989 0.0
C739 C 0.63339 0.50531 0.07599 0.0
C740 C 0.64283 0.51468 0.03163 0.0
H741 H 0.64176 0.40849 0.95221 0.0
H742 H 0.64522 0.43548 -0.0081 0.0
C743 C 0.64657 0.53005 0.05147 0.0
C744 C 0.62979 0.48887 0.05538 0.0
H745 H 0.63399 0.45082 0.10936 0.0
C746 C 0.62218 0.48606 -0.01008 0.0
C747 C 0.63421 0.47598 0.09872 0.0
C748 C 0.64311 0.47813 0.16787 0.0
C749 C 0.61888 0.47075 0.9666 0.0
C750 C 0.62306 0.45787 0.01057 0.0
C751 C 0.63065 0.46069 0.07605 0.0
C752 C 0.62057 0.44136 0.98773 0.0
C753 C 0.6114 0.46848 0.89412 0.0
C754 C 0.6055 0.43554 0.97316 0.0
C755 C 0.60346 0.42004 0.95004 0.0
C756 C 0.61645 0.41004 0.9416 0.0
C757 C 0.63147 0.41584 0.95789 0.0
C758 C 0.63349 0.43129 0.98071 0.0
H759 H 0.61237 0.47915 0.86029 0.0
H760 H 0.61688 0.45851 0.86521 0.0
H761 H 0.59877 0.46584 0.90128 0.0
H762 H 0.59531 0.44298 0.97966 0.0
H763 H 0.59173 0.41594 0.9384 0.0
H764 H 0.40709 0.37667 0.01481 0.0
H765 H 0.43411 0.37357 0.97385 0.0
H766 H 0.44296 0.4224 0.01677 0.0
H767 H 0.41588 0.42564 0.05824 0.0
H768 H 0.45018 0.39008 0.86163 0.0
H769 H 0.47797 0.39886 0.12821 0.0
H770 H 0.45738 0.3945 0.1181 0.0
H771 H 0.46454 0.41384 0.0993 0.0
C772 C 0.41475 0.38678 0.01555 0.0
C773 C 0.40932 0.40139 0.04027 0.0
C774 C 0.4302 0.38498 -0.00799 0.0
C775 C 0.4406 0.3977 -0.00683 0.0
C776 C 0.43519 0.41238 0.01654 0.0
H777 H 0.54099 0.40024 0.89116 0.0
H778 H 0.51425 0.40745 0.92681 0.0
C779 C 0.41968 0.41422 0.03986 0.0
C780 C 0.45709 0.39547 0.96968 0.0
H781 H 0.49488 0.39468 0.03027 0.0
C782 C 0.45996 0.39113 0.8984 0.0
C783 C 0.46984 0.39694 0.01767 0.0
C784 C 0.46737 0.40118 0.09528 0.0
C785 C 0.47524 0.38816 0.87382 0.0
C786 C 0.48797 0.38918 0.92229 0.0
C787 C 0.48512 0.39386 -0.00679 0.0
C788 C 0.50422 0.38486 0.90114 0.0
C789 C 0.47761 0.3841 0.79593 0.0
C790 C 0.50753 0.36971 0.87592 0.0
C791 C 0.52277 0.36558 0.85602 0.0
C792 C 0.5351 0.3764 0.86209 0.0
C793 C 0.53181 0.39154 0.88774 0.0
C794 C 0.51652 0.3957 0.9075 0.0
H795 H 0.46779 0.38848 0.7623 0.0
H796 H 0.48874 0.38906 0.7752 0.0
H797 H 0.47808 0.37117 0.79008 0.0
H798 H 0.49832 0.36102 0.87204 0.0
H799 H 0.525 0.35383 0.83654 0.0
H800 H 0.87474 0.40963 0.7831 0.0
H801 H 0.87119 0.43666 0.74361 0.0
H802 H 0.92082 0.44479 0.76481 0.0
H803 H 0.92446 0.41777 0.80603 0.0
H804 H 0.90339 0.46872 0.82248 0.0
H805 H 0.88191 0.45504 0.54975 0.0
H806 H 0.87072 0.44555 0.61853 0.0
H807 H 0.89104 0.44052 0.60636 0.0
C808 C 0.88496 0.4171 0.77902 0.0
C809 C 0.89993 0.41143 0.79733 0.0
C810 C 0.8829 0.43257 0.756 0.0
C811 C 0.89576 0.44272 0.74996 0.0
C812 C 0.91072 0.43716 0.7686 0.0
H813 H 0.88999 0.53181 0.52171 0.0
H814 H 0.89728 0.50554 0.56374 0.0
C815 C 0.9128 0.42167 0.7919 0.0
C816 C 0.89349 0.45922 0.72574 0.0
H817 H 0.87844 0.48136 0.58956 0.0
C818 C 0.89803 0.4715 0.77133 0.0
C819 C 0.8867 0.46287 0.65858 0.0
C820 C 0.88246 0.45031 0.60515 0.0
C821 C 0.89561 0.48729 0.75237 0.0
C822 C 0.88818 0.49092 0.68657 0.0
C823 C 0.88398 0.47863 0.64033 0.0
C824 C 0.88468 0.50733 0.66405 0.0
C825 C 0.90127 0.49992 0.80259 0.0
C826 C 0.87519 0.51716 0.70628 0.0
C827 C 0.87116 0.53223 0.68243 0.0
C828 C 0.87649 0.5377 0.61582 0.0
C829 C 0.88593 0.52788 0.57365 0.0
C830 C 0.89005 0.51289 0.59759 0.0
H831 H 0.91062 0.49552 0.83883 0.0
H832 H 0.90585 0.51018 0.77255 0.0
H833 H 0.89134 0.50392 0.83635 0.0
H834 H 0.87048 0.51301 0.75665 0.0
H835 H 0.86339 0.53936 0.71461 0.0
H836 H 0.52931 0.1352 0.46487 0.0
H837 H 0.50247 0.12883 0.42833 0.0
H838 H 0.51371 0.1415 0.21055 0.0
H839 H 0.54012 0.14897 0.24842 0.0
H840 H 0.48705 0.15329 0.24368 0.0
H841 H 0.48559 0.09127 0.32932 0.0
H842 H 0.49021 0.10404 0.40248 0.0
H843 H 0.50348 0.1025 0.32775 0.0
C844 C 0.52604 0.13643 0.40913 0.0
C845 C 0.53697 0.14194 0.35889 0.0
C846 C 0.51076 0.13265 0.38807 0.0
C847 C 0.50614 0.13416 0.3161 0.0
C848 C 0.51702 0.13993 0.26612 0.0
H849 H 0.41874 0.09659 0.14179 0.0
H850 H 0.44603 0.1008 0.17786 0.0
C851 C 0.5322 0.14396 0.28747 0.0
C852 C 0.48975 0.13067 0.29356 0.0
H853 H 0.46085 0.10299 0.30114 0.0
C854 C 0.4814 0.14222 0.25583 0.0
C855 C 0.48235 0.11615 0.30822 0.0
C856 C 0.49093 0.10273 0.34346 0.0
C857 C 0.46588 0.1398 0.23339 0.0
C858 C 0.45819 0.12564 0.2516 0.0
C859 C 0.46662 0.11395 0.28813 0.0
C860 C 0.44149 0.12271 0.23259 0.0
C861 C 0.45807 0.15236 0.18886 0.0
C862 C 0.42975 0.13336 0.25295 0.0
C863 C 0.41423 0.13112 0.23139 0.0
C864 C 0.41002 0.11794 0.19058 0.0
C865 C 0.42162 0.10687 0.17318 0.0
C866 C 0.43722 0.10927 0.19374 0.0
H867 H 0.46683 0.15972 0.16053 0.0
H868 H 0.45004 0.14721 0.14846 0.0
H869 H 0.45119 0.16017 0.22445 0.0
H870 H 0.43261 0.14353 0.28504 0.0
H871 H 0.40552 0.13975 0.24657 0.0
H872 H 0.14131 0.60878 0.79733 0.0
H873 H 0.14422 0.58195 0.75494 0.0
H874 H 0.09456 0.57449 0.78038 0.0
H875 H 0.09146 0.60161 0.8219 0.0
H876 H 0.13767 0.55517 0.82949 0.0
H877 H 0.10237 0.55752 0.57938 0.0
H878 H 0.10857 0.57495 0.62617 0.0
H879 H 0.09232 0.56368 0.65908 0.0
C880 C 0.13094 0.60152 0.79343 0.0
C881 C 0.11614 0.60737 0.81307 0.0
C882 C 0.13265 0.58615 0.76917 0.0
C883 C 0.11961 0.57622 0.76385 0.0
C884 C 0.10475 0.58202 0.78274 0.0
H885 H 0.11803 0.47652 0.64479 0.0
H886 H 0.11041 0.50271 0.68744 0.0
C887 C 0.10301 0.5975 0.8068 0.0
C888 C 0.12192 0.55964 0.74164 0.0
H889 H 0.11306 0.5329 0.61148 0.0
C890 C 0.13225 0.55031 0.7819 0.0
C891 C 0.11478 0.55326 0.67973 0.0
C892 C 0.10399 0.56287 0.63311 0.0
C893 C 0.13579 0.53488 0.76153 0.0
C894 C 0.12896 0.52863 0.69878 0.0
C895 C 0.11829 0.53776 0.65951 0.0
C896 C 0.13336 0.51289 0.67172 0.0
C897 C 0.14686 0.52536 0.80723 0.0
C898 C 0.14868 0.51004 0.64768 0.0
C899 C 0.15303 0.49514 0.62369 0.0
C900 C 0.14218 0.48278 0.62381 0.0
C901 C 0.12673 0.48573 0.64621 0.0
C902 C 0.12234 0.50069 0.66986 0.0
H903 H 0.14809 0.53036 0.86188 0.0
H904 H 0.14279 0.51305 0.81184 0.0
H905 H 0.15862 0.52526 0.78187 0.0
H906 H 0.15729 0.51936 0.64762 0.0
H907 H 0.16495 0.49318 0.60602 0.0
H908 H 0.61199 0.87639 0.2223 0.0
H909 H 0.58489 0.87291 0.26112 0.0
H910 H 0.57515 0.92139 0.21317 0.0
H911 H 0.60227 0.92497 0.17331 0.0
H912 H 0.56801 0.88882 0.36968 0.0
H913 H 0.54108 0.89741 0.10116 0.0
H914 H 0.56176 0.89373 0.11299 0.0
H915 H 0.55383 0.91282 0.13124 0.0
C916 C 0.60412 0.88635 0.21999 0.0
C917 C 0.60933 0.90096 0.19439 0.0
C918 C 0.58862 0.88433 0.24233 0.0
C919 C 0.57794 0.89682 0.23914 0.0
C920 C 0.58313 0.91151 0.21496 0.0
H921 H 0.47734 0.89827 0.33579 0.0
H922 H 0.50412 0.90576 0.30241 0.0
C923 C 0.59868 0.91357 0.1927 0.0
C924 C 0.56141 0.89433 0.26129 0.0
H925 H 0.52384 0.89319 0.19794 0.0
C926 C 0.55834 0.88982 0.3322 0.0
C927 C 0.5488 0.89571 0.21238 0.0
C928 C 0.55146 0.90006 0.135 0.0
C929 C 0.54303 0.88658 0.35552 0.0
C930 C 0.53046 0.88756 0.30618 0.0
C931 C 0.53348 0.89241 0.23564 0.0
C932 C 0.51421 0.88306 0.32604 0.0
C933 C 0.54044 0.88227 0.433 0.0
C934 C 0.51093 0.86777 0.34945 0.0
C935 C 0.49566 0.86346 0.36789 0.0
C936 C 0.48328 0.87426 0.36222 0.0
C937 C 0.48655 0.88957 0.33867 0.0
C938 C 0.50187 0.89389 0.32026 0.0
H939 H 0.55015 0.88652 0.46754 0.0
H940 H 0.52923 0.88718 0.45328 0.0
H941 H 0.53995 0.86932 0.43798 0.0
H942 H 0.52019 0.85911 0.35299 0.0
H943 H 0.49344 0.8516 0.3859 0.0
H944 H 0.86875 0.97833 0.50085 0.0
H945 H 0.87661 1.00445 0.46018 0.0
H946 H 0.89073 0.0161 0.67559 0.0
H947 H 0.88402 0.98953 0.7147 0.0
H948 H 0.86584 0.03149 0.49125 0.0
H949 H 0.92807 0.03196 0.57264 0.0
H950 H 0.91648 0.01431 0.57359 0.0
H951 H 0.91557 0.02789 0.6474 0.0
C952 C 0.87418 0.98626 0.53868 0.0
C953 C 0.8765 0.98166 0.61015 0.0
C954 C 0.87842 1.00129 0.51577 0.0
C955 C 0.88474 0.01221 0.56423 0.0
C956 C 0.88652 1.00778 0.63633 0.0
H957 H 0.88008 0.11271 0.49373 0.0
H958 H 0.87623 0.08561 0.53161 0.0
C959 C 0.88252 0.99265 0.6589 0.0
C960 C 0.88851 0.02848 0.54021 0.0
H961 H 0.91665 0.05697 0.54565 0.0
C962 C 0.87702 0.03697 0.50267 0.0
C963 C 0.90319 0.03567 0.55374 0.0
C964 C 0.91658 0.02692 0.58833 0.0
C965 C 0.87964 0.05243 0.47972 0.0
C966 C 0.89393 0.05996 0.49726 0.0
C967 C 0.90559 0.05136 0.53322 0.0
C968 C 0.89698 0.07669 0.47865 0.0
C969 C 0.86711 0.06037 0.43551 0.0
C970 C 0.91044 0.08099 0.43989 0.0
C971 C 0.91289 0.09664 0.41972 0.0
C972 C 0.90185 0.10825 0.4374 0.0
C973 C 0.88869 0.10401 0.47829 0.0
C974 C 0.8864 0.08846 0.49948 0.0
H975 H 0.8597 0.05167 0.40708 0.0
H976 H 0.85934 0.06725 0.47135 0.0
H977 H 0.87228 0.06842 0.39521 0.0
H978 H 0.91888 0.07218 0.42372 0.0
H979 H 0.92316 0.09954 0.38833 0.0
H980 H 0.11382 0.13938 0.47972 0.0
H981 H 0.08676 0.14324 0.44103 0.0
H982 H 0.07316 0.10086 0.55069 0.0
H983 H 0.10045 0.09657 0.58702 0.0
H984 H 0.05819 0.10299 0.42737 0.0
H985 H 0.0528 0.16 0.56585 0.0
H986 H 0.06843 0.16019 0.50177 0.0
H987 H 0.06949 0.14731 0.57819 0.0
C988 C 0.10508 0.13083 0.49537 0.0
C989 C 0.10924 0.11775 0.53708 0.0
C990 C 0.08957 0.13312 0.47367 0.0
C991 C 0.07778 0.12262 0.49477 0.0
C992 C 0.082 0.10923 0.5343 0.0
H993 H 0.97935 0.15007 0.47745 0.0
H994 H 1.00569 0.1424 0.51595 0.0
C995 C 0.0976 0.10678 0.555 0.0
C996 C 0.06109 0.12569 0.47595 0.0
H997 H 0.03252 0.15373 0.48278 0.0
C998 C 0.05254 0.11405 0.43995 0.0
C999 C 0.05355 0.13998 0.49365 0.0
C1000 C 0.06149 0.1525 0.53768 0.0
C1001 C 0.03683 0.11642 0.41973 0.0
C1002 C 0.02959 0.13107 0.43375 0.0
C1003 C 0.03806 0.14257 0.47109 0.0
C1004 C 0.01325 0.13476 0.41084 0.0
C1005 C 0.0281 0.10306 0.38502 0.0
C1006 C 1.00866 0.13318 0.33888 0.0
C1007 C 0.99343 0.1371 0.31749 0.0
C1008 C 0.98251 0.1428 0.36738 0.0
C1009 C 0.98726 0.14491 0.43873 0.0
C1010 C 1.0024 0.14077 0.46042 0.0
H1011 H 0.0333 0.09156 0.39972 0.0
H1012 H 0.01555 0.10304 0.40064 0.0
H1013 H 0.02887 0.10425 0.32596 0.0
H1014 H 0.01693 0.12919 0.29889 0.0
H1015 H 0.99016 0.13577 0.26179 0.0
H1016 H 0.13892 0.9054 0.50881 0.0
H1017 H 0.14261 0.9323 0.54959 0.0
H1018 H 0.10025 0.94617 0.4401 0.0
H1019 H 0.09609 0.919 0.40215 0.0
H1020 H 0.14818 0.95699 0.47528 0.0
H1021 H 0.09334 0.96791 0.62533 0.0
H1022 H 0.09894 0.94859 0.59559 0.0
H1023 H 0.08963 0.96209 0.53468 0.0
C1024 C 0.13026 0.91413 0.49428 0.0
C1025 C 0.1172 0.91008 0.45237 0.0
C1026 C 0.13239 0.92954 0.51754 0.0
C1027 C 0.12164 0.94133 0.49871 0.0
C1028 C 0.10851 0.93727 0.45714 0.0
H1029 H 0.15017 0.03969 0.50437 0.0
H1030 H 0.14273 0.01311 0.46889 0.0
C1031 C 0.10619 0.92175 0.43501 0.0
C1032 C 0.12484 0.95792 0.51906 0.0
H1033 H 0.10903 0.99031 0.59897 0.0
C1034 C 0.13962 0.96422 0.50272 0.0
C1035 C 0.11379 0.96737 0.55568 0.0
C1036 C 0.09811 0.9611 0.57953 0.0
C1037 C 0.14367 0.97961 0.52172 0.0
C1038 C 0.13238 0.9893 0.55547 0.0
C1039 C 0.11762 0.98299 0.57224 0.0
C1040 C 0.13581 1.00585 0.57548 0.0
C1041 C 0.16019 0.98509 0.50729 0.0
C1042 C 0.13376 0.01092 0.64647 0.0
C1043 C 0.13742 0.02632 0.66604 0.0
C1044 C 0.1431 0.03699 0.61501 0.0
C1045 C 0.1452 0.03191 0.54412 0.0
C1046 C 0.14129 0.0166 0.52423 0.0
H1047 H 0.16846 0.97507 0.50316 0.0
H1048 H 0.16049 0.99147 0.45553 0.0
H1049 H 0.16441 0.99307 0.55009 0.0
H1050 H 0.12958 1.00288 0.6871 0.0
H1051 H 0.13591 0.02991 0.72122 0.0
H1052 H 0.02693 0.85273 0.35369 0.0
H1053 H 1.0004 0.86005 0.39149 0.0
H1054 H 0.01648 0.9068 0.43906 0.0
H1055 H 0.04296 0.89957 0.39961 0.0
H1056 H 0.99144 0.87149 0.52887 0.0
H1057 H 0.9774 0.91395 0.31187 0.0
H1058 H 0.99327 0.90001 0.3049 0.0
H1059 H 0.99546 0.91723 0.35913 0.0
C1060 C 0.02475 0.86457 0.37196 0.0
C1061 C 0.03703 0.8755 0.37496 0.0
C1062 C 0.00964 0.86874 0.39364 0.0
C1063 C 1.00645 0.88399 0.41771 0.0
C1064 C 0.01865 0.89501 0.42007 0.0
H1065 H 0.91808 0.92474 0.57097 0.0
H1066 H 0.94539 0.92108 0.53329 0.0
C1067 C 0.03381 0.89081 0.39854 0.0
C1068 C 0.99041 0.88811 0.44223 0.0
H1069 H 0.95844 0.9107 0.40283 0.0
C1070 C 0.98423 0.88008 0.50139 0.0
C1071 C 0.98109 0.89941 0.40662 0.0
C1072 C 0.98704 0.9081 0.34175 0.0
C1073 C 0.96894 0.88297 0.52575 0.0
C1074 C 0.95943 0.89395 0.48896 0.0
C1075 C 0.96573 0.90226 0.43078 0.0
C1076 C 0.94275 0.89645 0.50863 0.0
C1077 C 0.96315 0.87432 0.5911 0.0
C1078 C 0.93213 0.88394 0.50542 0.0
C1079 C 0.91659 0.88598 0.5269 0.0
C1080 C 0.91126 0.90063 0.55148 0.0
C1081 C 0.92179 0.91331 0.55235 0.0
C1082 C 0.9374 0.91124 0.53093 0.0
H1083 H 0.97302 0.87002 0.62462 0.0
H1084 H 0.95551 0.88191 0.6245 0.0
H1085 H 0.95622 0.86399 0.57385 0.0
H1086 H 0.9359 0.87253 0.48676 0.0
H1087 H 0.90878 0.87598 0.52481 0.0
H1088 H 0.33841 0.19325 0.0628 0.0
H1089 H 0.33765 0.22194 0.04968 0.0
H1090 H 0.37715 0.22593 0.1928 0.0
H1091 H 0.37824 0.19737 0.20336 0.0
H1092 H 0.33267 0.24348 0.1547 0.0
H1093 H 0.39071 0.25423 0.03166 0.0
H1094 H 0.38207 0.23496 0.03586 0.0
H1095 H 0.39205 0.24295 0.11251 0.0
C1096 C 0.34724 0.20029 0.08917 0.0
C1097 C 0.35869 0.19315 0.13227 0.0
C1098 C 0.34669 0.21664 0.0825 0.0
C1099 C 0.35755 0.22609 0.11914 0.0
C1100 C 0.36894 0.21891 0.16236 0.0
H1101 H 0.37069 0.3261 0.18817 0.0
H1102 H 0.37025 0.29742 0.20102 0.0
C1103 C 0.36952 0.20263 0.16871 0.0
C1104 C 0.35645 0.24346 0.11601 0.0
H1105 H 0.37767 0.27652 0.08103 0.0
C1106 C 0.34246 0.2507 0.13798 0.0
C1107 C 0.36926 0.25289 0.09447 0.0
C1108 C 0.38431 0.24586 0.06662 0.0
C1109 C 0.34105 0.2671 0.14031 0.0
C1110 C 0.35393 0.27648 0.11981 0.0
C1111 C 0.36788 0.26927 0.09755 0.0
C1112 C 0.35297 0.29382 0.11782 0.0
C1113 C 0.3259 0.27431 0.16577 0.0
C1114 C 0.34331 0.30124 0.06736 0.0
C1115 C 0.34356 0.31752 0.06014 0.0
C1116 C 0.35336 0.32671 0.10358 0.0
C1117 C 0.36272 0.31932 0.15547 0.0
C1118 C 0.36259 0.30297 0.16229 0.0
H1119 H 0.31843 0.26567 0.19435 0.0
H1120 H 0.32822 0.28437 0.20195 0.0
H1121 H 0.31924 0.27876 0.1189 0.0
H1122 H 0.33601 0.29438 0.03174 0.0
H1123 H 0.3364 0.32298 0.01922 0.0
H1124 H 0.32626 0.68352 0.80254 0.0
H1125 H 0.29804 0.68793 0.78445 0.0
H1126 H 0.28859 0.64102 0.85889 0.0
H1127 H 0.31662 0.63649 0.8747 0.0
H1128 H 0.27032 0.6493 0.74231 0.0
H1129 H 0.26866 0.69505 0.95479 0.0
H1130 H 0.28166 0.69846 0.88067 0.0
H1131 H 0.28549 0.68258 0.94138 0.0
C1132 C 0.31817 0.67405 0.81296 0.0
C1133 C 0.32362 0.6596 0.83944 0.0
C1134 C 0.30204 0.67664 0.80363 0.0
C1135 C 0.29118 0.66487 0.8212 0.0
C1136 C 0.29672 0.65028 0.84496 0.0
H1137 H 0.20106 0.656 -0.00955 0.0
H1138 H 0.22851 0.66095 0.96093 0.0
C1139 C 0.31272 0.64771 0.85421 0.0
C1140 C 0.27399 0.66767 0.81931 0.0
H1141 H 0.2446 0.68665 0.90838 0.0
C1142 C 0.26466 0.65767 0.77756 0.0
C1143 C 0.26666 0.67851 0.86589 0.0
C1144 C 0.27606 0.68922 0.91371 0.0
C1145 C 0.24825 0.65764 0.78377 0.0
C1146 C 0.24094 0.66814 0.83209 0.0
C1147 C 0.25023 0.67869 0.87112 0.0
C1148 C 0.22402 0.66688 0.85009 0.0
C1149 C 0.23897 0.64567 0.74209 0.0
C1150 C 0.21228 0.66893 0.79808 0.0
C1151 C 0.19654 0.666 0.81495 0.0
C1152 C 0.19229 0.66118 0.88431 0.0
C1153 C 0.20402 0.65975 0.93671 0.0
C1154 C 0.21968 0.66262 0.91991 0.0
H1155 H 0.24662 0.63665 0.71715 0.0
H1156 H 0.23038 0.63968 0.77735 0.0
H1157 H 0.23238 0.65165 0.69875 0.0
H1158 H 0.21534 0.67237 0.74404 0.0
H1159 H 0.18783 0.66683 0.77301 0.0
H1160 H 0.68366 0.82316 0.21461 0.0
H1161 H 0.68556 0.79469 0.19971 0.0
H1162 H 0.65075 0.79677 0.03225 0.0
H1163 H 0.64923 0.82532 0.0461 0.0
H1164 H 0.66313 0.77417 0.22388 0.0
H1165 H 0.68197 0.76783 0.94179 0.0
H1166 H 0.68281 0.78633 0.98846 0.0
H1167 H 0.66466 0.77962 0.94998 0.0
C1168 C 0.67673 0.81751 0.17349 0.0
C1169 C 0.66652 0.82639 0.13062 0.0
C1170 C 0.67776 0.80128 0.16514 0.0
C1171 C 0.66846 0.79355 0.11419 0.0
C1172 C 0.6584 0.80246 0.07045 0.0
H1173 H 0.63737 0.69973 0.04215 0.0
H1174 H 0.64136 0.72799 0.05369 0.0
C1175 C 0.65751 0.81877 0.07827 0.0
C1176 C 0.66836 0.77612 0.11125 0.0
H1177 H 0.67135 0.74484 -0.00223 0.0
C1178 C 0.66516 0.76777 0.17458 0.0
C1179 C 0.67103 0.76771 0.04702 0.0
C1180 C 0.67547 0.77583 0.97816 0.0
C1181 C 0.66406 0.75135 0.17487 0.0
C1182 C 0.6662 0.74305 0.11027 0.0
C1183 C 0.66969 0.75129 0.04723 0.0
C1184 C 0.66384 0.72589 0.10615 0.0
C1185 C 0.66012 0.74293 0.24357 0.0
C1186 C 0.67516 0.71538 0.13221 0.0
C1187 C 0.67294 0.69916 0.12531 0.0
C1188 C 0.65929 0.69326 0.09282 0.0
C1189 C 0.64796 0.70392 0.06764 0.0
C1190 C 0.65022 0.72005 0.07411 0.0
H1191 H 0.65771 0.75117 0.28829 0.0
H1192 H 0.6497 0.73535 0.2355 0.0
H1193 H 0.67004 0.73523 0.25911 0.0
H1194 H 0.68584 0.71973 0.15643 0.0
H1195 H 0.68213 0.69133 0.14297 0.0
H1196 H 0.82487 0.37222 0.94146 0.0
H1197 H 0.79617 0.37162 0.95339 0.0
H1198 H 0.79354 0.33752 0.78353 0.0
H1199 H 0.82214 0.33807 0.77188 0.0
H1200 H 0.77538 0.37901 0.83237 0.0
H1201 H 0.76469 0.31967 0.94522 0.0
H1202 H 0.7833 0.32958 0.95371 0.0
H1203 H 0.77791 0.32061 0.87036 0.0
C1204 C 0.81817 0.36425 0.90842 0.0
C1205 C 0.82567 0.35498 0.85659 0.0
C1206 C 0.80181 0.36402 0.91472 0.0
C1207 C 0.79276 0.3544 0.86982 0.0
C1208 C 0.8003 0.34482 0.81947 0.0
H1209 H 0.69233 0.33923 0.81188 0.0
H1210 H 0.72103 0.33864 0.79957 0.0
C1211 C 0.8166 0.34517 0.81274 0.0
C1212 C 0.77542 0.35527 0.87122 0.0
H1213 H 0.74248 0.33382 0.90494 0.0
C1214 C 0.76816 0.36918 0.84865 0.0
C1215 C 0.76607 0.34233 0.89137 0.0
C1216 C 0.77333 0.32721 0.91707 0.0
C1217 C 0.75177 0.37047 0.84496 0.0
C1218 C 0.74238 0.35761 0.8662 0.0
C1219 C 0.74967 0.34365 0.88846 0.0
C1220 C 0.72499 0.35861 0.86874 0.0
C1221 C 0.74472 0.38548 0.81674 0.0
C1222 C 0.7177 0.37 0.91151 0.0
C1223 C 0.7014 0.37049 0.91737 0.0
C1224 C 0.69203 0.35958 0.88091 0.0
C1225 C 0.69928 0.34813 0.83823 0.0
C1226 C 0.71565 0.34768 0.83204 0.0
H1227 H 0.75309 0.3919 0.78193 0.0
H1228 H 0.73386 0.38318 0.7857 0.0
H1229 H 0.74173 0.39323 0.86245 0.0
H1230 H 0.72462 0.37827 0.94202 0.0
H1231 H 0.69606 0.3792 0.95173 0.0
H1232 H 0.85266 0.68911 0.69676 0.0
H1233 H 0.84698 0.71653 0.72754 0.0
H1234 H 0.85525 0.72995 0.50806 0.0
H1235 H 0.86049 0.70263 0.47718 0.0
H1236 H 0.86747 0.74072 0.71716 0.0
H1237 H 0.81566 0.75422 0.55125 0.0
H1238 H 0.82184 0.73436 0.56959 0.0
H1239 H 0.83085 0.74543 0.49846 0.0
C1240 C 0.85268 0.69784 0.65475 0.0
C1241 C 0.85669 0.6937 0.5842 0.0
C1242 C 0.8496 0.71353 0.67246 0.0
C1243 C 0.85038 0.7253 0.61986 0.0
C1244 C 0.85412 0.72108 0.54924 0.0
H1245 H 0.88211 0.81773 0.6054 0.0
H1246 H 0.87777 0.7897 0.62186 0.0
C1247 C 0.85724 0.70548 0.53168 0.0
C1248 C 0.84892 0.74217 0.63909 0.0
H1249 H 0.83204 0.7764 0.58339 0.0
C1250 C 0.85947 0.74848 0.68905 0.0
C1251 C 0.83832 0.75232 0.60358 0.0
C1252 C 0.82592 0.7462 0.55333 0.0
C1253 C 0.86051 0.76473 0.70033 0.0
C1254 C 0.85093 0.77497 0.65973 0.0
C1255 C 0.83955 0.76859 0.61389 0.0
C1256 C 0.85376 0.79217 0.65759 0.0
C1257 C 0.87218 0.77078 0.75429 0.0
C1258 C 0.84167 0.80298 0.67144 0.0
C1259 C 0.84417 0.81911 0.66179 0.0
C1260 C 0.85874 0.82462 0.63745 0.0
C1261 C 0.87083 0.81379 0.62486 0.0
C1262 C 0.86838 0.79777 0.63478 0.0
H1263 H 0.87429 0.76205 0.7974 0.0
H1264 H 0.88353 0.77297 0.7271 0.0
H1265 H 0.86813 0.78191 0.77897 0.0
H1266 H 0.83022 0.7989 0.68808 0.0
H1267 H 0.83453 0.82716 0.67003 0.0
H1268 H 0.8274 0.1836 0.32384 0.0
H1269 H 0.79895 0.18707 0.31034 0.0
H1270 H 0.79119 0.14277 0.41534 0.0
H1271 H 0.81948 0.13902 0.42701 0.0
H1272 H 0.77502 0.16142 0.24712 0.0
H1273 H 0.76674 0.18 0.53029 0.0
H1274 H 0.78504 0.18272 0.48312 0.0
H1275 H 0.77951 0.16358 0.51364 0.0
C1276 C 0.81966 0.17441 0.34206 0.0
C1277 C 0.82569 0.16091 0.37547 0.0
C1278 C 0.80342 0.17649 0.33514 0.0
C1279 C 0.79304 0.16521 0.36239 0.0
C1280 C 0.79903 0.15164 0.39448 0.0
H1281 H 0.69396 0.15044 0.42217 0.0
H1282 H 0.72263 0.15165 0.43253 0.0
C1283 C 0.81517 0.14952 0.40101 0.0
C1284 C 0.77588 0.16751 0.35868 0.0
H1285 H 0.74384 0.17489 0.46292 0.0
C1286 C 0.76817 0.16456 0.29388 0.0
C1287 C 0.76706 0.17138 0.42023 0.0
C1288 C 0.77494 0.1747 0.4909 0.0
C1289 C 0.75174 0.16496 0.28939 0.0
C1290 C 0.74284 0.16884 0.35108 0.0
C1291 C 0.75064 0.17199 0.41569 0.0
C1292 C 0.72544 0.16924 0.34987 0.0
C1293 C 0.74406 0.16057 0.21936 0.0
C1294 C 0.71747 0.17913 0.30204 0.0
C1295 C 0.70118 0.17839 0.29607 0.0
C1296 C 0.6925 0.16803 0.33896 0.0
C1297 C 0.70037 0.15873 0.38956 0.0
C1298 C 0.71673 0.15935 0.39503 0.0
H1299 H 0.75214 0.15384 0.18425 0.0
H1300 H 0.73336 0.15346 0.22845 0.0
H1301 H 0.74064 0.17141 0.19038 0.0
H1302 H 0.72389 0.18715 0.26801 0.0
H1303 H 0.69532 0.18566 0.25676 0.0
H1304 H 0.18526 0.32853 0.58659 0.0
H1305 H 0.18955 0.30015 0.5738 0.0
H1306 H 0.1438 0.29139 0.66321 0.0
H1307 H 0.13943 0.31956 0.67505 0.0
H1308 H 0.16926 0.27421 0.72857 0.0
H1309 H 0.16779 0.26903 0.43114 0.0
H1310 H 0.18046 0.28362 0.46974 0.0
H1311 H 0.15962 0.28573 0.47736 0.0
C1312 C 0.17598 0.32055 0.60152 0.0
C1313 C 0.16189 0.32625 0.63069 0.0
C1314 C 0.17849 0.30435 0.59484 0.0
C1315 C 0.16696 0.29369 0.61742 0.0
C1316 C 0.15286 0.2994 0.64564 0.0
H1317 H 0.14059 0.19995 0.54863 0.0
H1318 H 0.14455 0.22818 0.56 0.0
C1319 C 0.15036 0.31548 0.6522 0.0
C1320 C 0.16945 0.2765 0.61377 0.0
H1321 H 0.16996 0.2457 0.49727 0.0
C1322 C 0.16968 0.26795 0.67807 0.0
C1323 C 0.1699 0.26843 0.54777 0.0
C1324 C 0.16935 0.27708 0.47733 0.0
C1325 C 0.16976 0.25148 0.67809 0.0
C1326 C 0.16972 0.2434 0.61207 0.0
C1327 C 0.17008 0.25196 0.5478 0.0
C1328 C 0.16751 0.22619 0.60825 0.0
C1329 C 0.16906 0.24283 0.7485 0.0
C1330 C 0.17907 0.21567 0.63227 0.0
C1331 C 0.17679 0.19944 0.62585 0.0
C1332 C 0.16292 0.19355 0.59551 0.0
C1333 C 0.15137 0.20417 0.57239 0.0
C1334 C 0.15363 0.22028 0.57868 0.0
H1335 H 0.16712 0.25085 0.79449 0.0
H1336 H 0.15949 0.23401 0.74755 0.0
H1337 H 0.18025 0.23648 0.75722 0.0
H1338 H 0.18996 0.22002 0.65435 0.0
H1339 H 0.18609 0.19159 0.64202 0.0
H1340 H 0.31976 0.87998 0.29762 0.0
H1341 H 0.29157 0.87585 0.31029 0.0
H1342 H 0.30016 0.83003 0.39964 0.0
H1343 H 0.32853 0.83405 0.38588 0.0
H1344 H 0.27392 0.85048 0.2465 0.0
H1345 H 0.26979 0.85231 0.54424 0.0
H1346 H 0.28639 0.86025 0.49656 0.0
H1347 H 0.28414 0.83944 0.50496 0.0
C1348 C 0.31564 0.86907 0.32053 0.0
C1349 C 0.32636 0.85746 0.34194 0.0
C1350 C 0.29956 0.86671 0.32757 0.0
C1351 C 0.29379 0.85268 0.3562 0.0
C1352 C 0.30441 0.84104 0.37834 0.0
H1353 H 0.19164 0.83398 0.34119 0.0
H1354 H 0.22001 0.83003 0.32653 0.0
C1355 C 0.3206 0.8434 0.37113 0.0
C1356 C 0.27661 0.85038 0.36112 0.0
H1357 H 0.24622 0.85021 0.47993 0.0
C1358 C 0.26783 0.85016 0.29747 0.0
C1359 C 0.26877 0.85006 0.42773 0.0
C1360 C 0.27767 0.85061 0.49751 0.0
C1361 C 0.25137 0.85018 0.29869 0.0
C1362 C 0.24353 0.85034 0.36531 0.0
C1363 C 0.25231 0.85 0.42894 0.0
C1364 C 0.22634 0.85263 0.37036 0.0
C1365 C 0.24247 0.85086 0.22896 0.0
C1366 C 0.22056 0.86662 0.39941 0.0
C1367 C 0.20448 0.86894 0.40698 0.0
C1368 C 0.19378 0.85733 0.3857 0.0
C1369 C 0.19955 0.84333 0.35592 0.0
C1370 C 0.21575 0.84101 0.34818 0.0
H1371 H 0.25033 0.8526 0.18224 0.0
H1372 H 0.23597 0.83973 0.22127 0.0
H1373 H 0.23375 0.86053 0.2302 0.0
H1374 H 0.22853 0.87574 0.41672 0.0
H1375 H 0.20035 0.8798 0.43029 0.0
H1376 H 0.2046 0.13857 0.71519 0.0
H1377 H 0.22975 0.13742 0.77754 0.0
H1378 H 0.22724 0.08696 0.78159 0.0
H1379 H 0.20188 0.088 0.72026 0.0
H1380 H 0.23576 0.09911 0.9116 0.0
H1381 H 0.27223 0.12549 0.69788 0.0
H1382 H 0.25586 0.13755 0.7226 0.0
H1383 H 0.25251 0.11872 0.68198 0.0
C1384 C 0.20944 0.1272 0.72869 0.0
C1385 C 0.20123 0.11336 0.71215 0.0
C1386 C 0.22389 0.12657 0.76412 0.0
C1387 C 0.23056 0.1121 0.78321 0.0
C1388 C 0.22238 0.09826 0.76703 0.0
H1389 H 0.31736 0.08688 0.00818 0.0
H1390 H 0.29227 0.08605 0.94432 0.0
C1391 C 0.20789 0.09888 0.73176 0.0
C1392 C 0.24581 0.11145 0.82211 0.0
H1393 H 0.28407 0.12313 0.81305 0.0
C1394 C 0.24636 0.10424 0.88977 0.0
C1395 C 0.25967 0.11812 0.79366 0.0
C1396 C 0.26012 0.12527 0.71975 0.0
C1397 C 0.26024 0.10392 0.93049 0.0
C1398 C 0.27399 0.11085 0.90254 0.0
C1399 C 0.2735 0.11789 0.83459 0.0
C1400 C 0.28897 0.1112 0.94335 0.0
C1401 C 0.25997 0.09657 0.00398 0.0
C1402 C 0.29556 0.1256 0.96345 0.0
C1403 C 0.30987 0.12612 -5e-05 0.0
C1404 C 0.31802 0.11224 0.01667 0.0
C1405 C 0.31137 0.0978 -0.0034 0.0
C1406 C 0.29699 0.09729 0.96029 0.0
H1407 H 0.24783 0.09484 0.02386 0.0
H1408 H 0.26579 0.08495 0.0017 0.0
H1409 H 0.26646 0.10393 0.04301 0.0
H1410 H 0.28961 0.13648 0.95071 0.0
H1411 H 0.31465 0.13746 0.01415 0.0
H1412 H 0.13815 0.70098 0.00248 0.0
H1413 H 0.13766 0.72637 0.06284 0.0
H1414 H 0.08718 0.72651 0.05525 0.0
H1415 H 0.08752 0.70107 -0.00571 0.0
H1416 H 0.10128 0.75536 0.01389 0.0
H1417 H 0.12496 0.73384 0.27279 0.0
H1418 H 0.13661 0.72874 0.19614 0.0
H1419 H 0.1172 0.72083 0.20532 0.0
C1420 C 0.12692 0.70637 0.01355 0.0
C1421 C 0.11286 0.69891 -0.00623 0.0
C1422 C 0.12667 0.72087 0.04849 0.0
C1423 C 0.11238 0.72822 0.06467 0.0
C1424 C 0.09833 0.72099 0.04372 0.0
H1425 H 0.08861 0.81774 0.26625 0.0
H1426 H 0.08766 0.79218 0.20706 0.0
C1427 C 0.09856 0.70645 0.00888 0.0
C1428 C 0.11216 0.74353 0.10274 0.0
H1429 H 0.12312 0.76143 0.25856 0.0
C1430 C 0.10595 0.75669 0.06757 0.0
C1431 C 0.11829 0.74523 0.17275 0.0
C1432 C 0.12452 0.7314 0.21438 0.0
C1433 C 0.10607 0.77159 0.09977 0.0
C1434 C 0.11229 0.77332 0.16965 0.0
C1435 C 0.11838 0.76012 0.205 0.0
C1436 C 0.11279 0.78875 0.20673 0.0
C1437 C 0.09996 0.78543 0.05781 0.0
C1438 C 0.12719 0.79515 0.22824 0.0
C1439 C 0.12778 0.80971 0.26264 0.0
C1440 C 0.11394 0.81817 0.27664 0.0
C1441 C 0.0995 0.8116 0.25607 0.0
C1442 C 0.09893 0.79703 0.22172 0.0
H1443 H 0.09942 0.78291 -0.00051 0.0
H1444 H 0.08793 0.78827 0.07621 0.0
H1445 H 0.10743 0.79592 0.0663 0.0
H1446 H 0.13803 0.78894 0.21761 0.0
H1447 H 0.1391 0.81439 0.27768 0.0
H1448 H 0.70182 0.93215 0.01027 0.0
H1449 H 0.72724 0.93302 0.94944 0.0
H1450 H 0.73062 0.88268 0.96264 0.0
H1451 H 0.70541 0.88171 0.02435 0.0
H1452 H 0.75819 0.89735 -0.00026 0.0
H1453 H 0.73575 0.92095 0.74206 0.0
H1454 H 0.73098 0.93263 0.81899 0.0
H1455 H 0.72296 0.91325 0.81048 0.0
C1456 C 0.70798 0.92127 0.00039 0.0
C1457 C 0.70152 0.90686 0.02213 0.0
C1458 C 0.72247 0.92178 0.96509 0.0
C1459 C 0.73073 0.90789 0.95029 0.0
C1460 C 0.72444 0.89354 0.97312 0.0
H1461 H 0.81647 0.88009 0.73555 0.0
H1462 H 0.79138 0.8814 0.79859 0.0
C1463 C 0.71 0.89302 0.00847 0.0
C1464 C 0.74601 0.90823 0.91174 0.0
H1465 H 0.76329 0.91842 0.75316 0.0
C1466 C 0.75929 0.90194 0.9458 0.0
C1467 C 0.74747 0.91424 0.84132 0.0
C1468 C 0.73352 0.92053 0.80066 0.0
C1469 C 0.77396 0.90158 0.91164 0.0
C1470 C 0.77538 0.90746 0.84106 0.0
C1471 C 0.76217 0.91392 0.80726 0.0
C1472 C 0.79043 0.90673 0.80108 0.0
C1473 C 0.7879 0.89509 0.95171 0.0
C1474 C 0.79805 0.92054 0.77977 0.0
C1475 C 0.81241 0.91984 0.74353 0.0
C1476 C 0.81936 0.9053 0.72722 0.0
C1477 C 0.81149 0.89149 0.74727 0.0
C1478 C 0.79719 0.89221 0.78376 0.0
H1479 H 0.78577 0.89468 0.01039 0.0
H1480 H 0.79025 0.88296 0.93311 0.0
H1481 H 0.79854 0.90222 0.94141 0.0
H1482 H 0.793 0.93187 0.79222 0.0
H1483 H 0.81812 0.93071 0.72883 0.0
H1484 H 0.88132 0.31486 0.96613 0.0
H1485 H 0.88235 0.28965 0.02808 0.0
H1486 H 0.93258 0.29354 0.04546 0.0
H1487 H 0.93164 0.31896 0.9844 0.0
H1488 H 0.89729 0.26223 -0.00739 0.0
H1489 H 0.92005 0.2846 0.25157 0.0
H1490 H 0.91244 0.2974 0.18286 0.0
H1491 H 0.93193 0.28954 0.17553 0.0
C1492 C 0.89262 0.31039 0.98301 0.0
C1493 C 0.9064 0.31902 0.97035 0.0
C1494 C 0.89318 0.29594 0.01852 0.0
C1495 C 0.9075 0.28977 0.04261 0.0
C1496 C 0.92133 0.29819 0.0289 0.0
H1497 H 0.93116 0.20206 0.26178 0.0
H1498 H 0.93202 0.22734 0.19934 0.0
C1499 C 0.92079 0.31269 -0.00658 0.0
C1500 C 0.90789 0.27443 0.0811 0.0
H1501 H 0.91808 0.25701 0.23963 0.0
C1502 C 0.90181 0.26111 0.04667 0.0
C1503 C 0.91379 0.27292 0.15173 0.0
C1504 C 0.9198 0.28688 0.19299 0.0
C1505 C 0.90159 0.24638 0.08052 0.0
C1506 C 0.90741 0.2449 0.15119 0.0
C1507 C 0.91364 0.25815 0.18544 0.0
C1508 C 0.90686 0.22973 0.19075 0.0
C1509 C 0.89531 0.23243 0.03999 0.0
C1510 C 0.89243 0.22279 0.20793 0.0
C1511 C 0.89189 0.20839 0.24394 0.0
C1512 C 0.90578 0.20058 0.26364 0.0
C1513 C 0.92023 0.2077 0.24738 0.0
C1514 C 0.92075 0.22217 0.21168 0.0
H1515 H 0.89484 0.23466 0.9814 0.0
H1516 H 0.90263 0.22188 0.04986 0.0
H1517 H 0.88324 0.22987 0.05865 0.0
H1518 H 0.88155 0.22852 0.19336 0.0
H1519 H 0.88055 0.2033 0.25556 0.0
H1520 H 0.31398 0.38217 0.21711 0.0
H1521 H 0.28882 0.38299 0.27901 0.0
H1522 H 0.29145 0.4334 0.28934 0.0
H1523 H 0.31689 0.43267 0.22834 0.0
H1524 H 0.28264 0.42042 0.41763 0.0
H1525 H 0.24651 0.3954 0.19953 0.0
H1526 H 0.26283 0.38316 0.22298 0.0
H1527 H 0.26625 0.40226 0.18512 0.0
C1528 C 0.30919 0.39347 0.2319 0.0
C1529 C 0.31745 0.40737 0.21713 0.0
C1530 C 0.29472 0.39392 0.26706 0.0
C1531 C 0.28805 0.40827 0.28773 0.0
C1532 C 0.29629 0.42218 0.27348 0.0
H1533 H 0.20116 0.43188 0.51403 0.0
H1534 H 0.22628 0.43299 0.45087 0.0
C1535 C 0.31082 0.42175 0.23841 0.0
C1536 C 0.27275 0.40866 0.32624 0.0
H1537 H 0.23457 0.39676 0.31488 0.0
C1538 C 0.2721 0.41537 0.39488 0.0
C1539 C 0.25895 0.40208 0.29665 0.0
C1540 C 0.25859 0.39546 0.22175 0.0
C1541 C 0.25819 0.41528 0.43542 0.0
C1542 C 0.2445 0.40845 0.40628 0.0
C1543 C 0.24509 0.4019 0.33737 0.0
C1544 C 0.22944 0.40785 0.44652 0.0
C1545 C 0.25837 0.4221 0.50993 0.0
C1546 C 0.22274 0.39335 0.46437 0.0
C1547 C 0.20837 0.39266 0.5005 0.0
C1548 C 0.20031 0.40648 0.51902 0.0
C1549 C 0.20707 0.421 0.50103 0.0
C1550 C 0.22148 0.42167 0.46514 0.0
H1551 H 0.27049 0.42362 0.53048 0.0
H1552 H 0.25263 0.43378 0.50905 0.0
H1553 H 0.25177 0.41452 0.54768 0.0
H1554 H 0.22863 0.38253 0.45025 0.0
H1555 H 0.2035 0.38127 0.51307 0.0
H1556 H 0.42887 0.7006 0.74344 0.0
H1557 H 0.42973 0.726 0.6825 0.0
H1558 H 0.37925 0.72789 0.68234 0.0
H1559 H 0.37825 0.70246 0.74283 0.0
H1560 H 0.39311 0.73476 0.54821 0.0
H1561 H 0.42021 0.76959 0.76674 0.0
H1562 H 0.43058 0.752 0.74301 0.0
H1563 H 0.41138 0.75065 0.78197 0.0
C1564 C 0.41794 0.70646 0.73094 0.0
C1565 C 0.40349 0.69949 0.74839 0.0
C1566 C 0.41846 0.72102 0.69637 0.0
C1567 C 0.40456 0.72895 0.67865 0.0
C1568 C 0.39012 0.72202 0.69582 0.0
H1569 H 0.37977 0.81506 0.45642 0.0
H1570 H 0.37994 0.78971 0.51723 0.0
C1571 C 0.38958 0.70749 0.73058 0.0
C1572 C 0.40502 0.74421 0.64011 0.0
H1573 H 0.41721 0.78222 0.65463 0.0
C1574 C 0.39833 0.74515 0.57153 0.0
C1575 C 0.41192 0.75774 0.67043 0.0
C1576 C 0.41882 0.75756 0.74482 0.0
C1577 C 0.39851 0.7592 0.5321 0.0
C1578 C 0.40527 0.77279 0.56269 0.0
C1579 C 0.41204 0.77182 0.63114 0.0
C1580 C 0.4052 0.78819 0.52506 0.0
C1581 C 0.39175 0.75924 0.45742 0.0
C1582 C 0.41933 0.79603 0.51068 0.0
C1583 C 0.41927 0.81063 0.47627 0.0
C1584 C 0.40506 0.81773 0.45578 0.0
C1585 C 0.39094 0.80988 0.47067 0.0
C1586 C 0.39101 0.79532 0.5052 0.0
H1587 H 0.39129 0.74724 0.43447 0.0
H1588 H 0.3796 0.76386 0.45929 0.0
H1589 H 0.39872 0.76682 0.42105 0.0
H1590 H 0.43042 0.79081 0.5259 0.0
H1591 H 0.43036 0.81637 0.46603 0.0
H1592 H 0.70236 0.63863 0.20319 0.0
H1593 H 0.72826 0.63791 0.25885 0.0
H1594 H 0.7259 0.5875 0.2706 0.0
H1595 H 0.69981 0.58811 0.21581 0.0
H1596 H 0.73621 0.60082 0.39677 0.0
H1597 H 0.76953 0.62516 0.16761 0.0
H1598 H 0.75348 0.63735 0.19509 0.0
H1599 H 0.74966 0.6182 0.15891 0.0
C1600 C 0.70736 0.62736 0.2171 0.0
C1601 C 0.699 0.61342 0.20448 0.0
C1602 C 0.72224 0.62697 0.24866 0.0
C1603 C 0.72919 0.61263 0.26782 0.0
C1604 C 0.72084 0.5987 0.25586 0.0
H1605 H 0.81839 0.58816 0.4731 0.0
H1606 H 0.79253 0.58731 0.41621 0.0
C1607 C 0.70592 0.59907 0.22437 0.0
C1608 C 0.74497 0.61225 0.3021 0.0
H1609 H 0.78309 0.62345 0.27878 0.0
C1610 C 0.74649 0.60566 0.37074 0.0
C1611 C 0.7584 0.61856 0.26819 0.0
C1612 C 0.75777 0.62508 0.19312 0.0
C1613 C 0.76094 0.60558 0.40707 0.0
C1614 C 0.77432 0.61208 0.3735 0.0
C1615 C 0.77283 0.61853 0.30463 0.0
C1616 C 0.78993 0.61249 0.40916 0.0
C1617 C 0.76169 0.59896 0.48193 0.0
C1618 C 0.79723 0.62691 0.42308 0.0
C1619 C 0.81202 0.62744 0.45543 0.0
C1620 C 0.81993 0.61354 0.47411 0.0
C1621 C 0.81262 0.59909 0.45983 0.0
C1622 C 0.79779 0.59858 0.4276 0.0
H1623 H 0.74986 0.5979 0.50632 0.0
H1624 H 0.767 0.58709 0.48002 0.0
H1625 H 0.76909 0.6064 0.51705 0.0
H1626 H 0.79143 0.6378 0.40908 0.0
H1627 H 0.81729 0.63878 0.4654 0.0
H1628 H 0.58633 0.20227 0.46588 0.0
H1629 H 0.58517 0.22763 0.52737 0.0
H1630 H 0.63556 0.2309 0.51902 0.0
H1631 H 0.63681 0.20582 0.45657 0.0
H1632 H 0.59775 0.23634 0.65628 0.0
H1633 H 0.62279 0.2732 0.44071 0.0
H1634 H 0.61622 0.2534 0.42525 0.0
H1635 H 0.63519 0.257 0.46402 0.0
C1636 C 0.59716 0.20847 0.47645 0.0
C1637 C 0.61166 0.20204 0.4556 0.0
C1638 C 0.59648 0.22295 0.5118 0.0
C1639 C 0.61026 0.23134 0.52678 0.0
C1640 C 0.62473 0.22488 0.50648 0.0
H1641 H 0.63642 0.315 0.75877 0.0
H1642 H 0.6352 0.29009 0.69424 0.0
C1643 C 0.62543 0.21046 0.471 0.0
C1644 C 0.6096 0.24656 0.56582 0.0
H1645 H 0.62116 0.28487 0.55665 0.0
C1646 C 0.60273 0.24699 0.63419 0.0
C1647 C 0.61608 0.26048 0.53706 0.0
C1648 C 0.62285 0.26108 0.46245 0.0
C1649 C 0.60259 0.26081 0.67532 0.0
C1650 C 0.60937 0.27462 0.64709 0.0
C1651 C 0.61605 0.27425 0.57841 0.0
C1652 C 0.6099 0.28952 0.68831 0.0
C1653 C 0.59561 0.26042 0.74951 0.0
C1654 C 0.59607 0.29754 0.70629 0.0
C1655 C 0.59671 0.31183 0.74315 0.0
C1656 C 0.61122 0.3184 0.7628 0.0
C1657 C 0.62504 0.31027 0.74496 0.0
C1658 C 0.62438 0.29604 0.70783 0.0
H1659 H 0.59391 0.24825 0.76909 0.0
H1660 H 0.60321 0.26679 0.78803 0.0
H1661 H 0.58402 0.26632 0.74862 0.0
H1662 H 0.58477 0.29286 0.69079 0.0
H1663 H 0.58584 0.3178 0.7556 0.0
H1664 H 0.35915 0.08363 0.32913 0.0
H1665 H 0.36181 0.08472 0.45931 0.0
H1666 H 0.34141 0.13101 0.4601 0.0
H1667 H 0.33854 0.12997 0.33054 0.0
H1668 H 0.3817 0.10879 0.50779 0.0
H1669 H 0.32385 0.11131 0.64314 0.0
H1670 H 0.32637 0.10337 0.5542 0.0
H1671 H 0.32554 0.12421 0.56752 0.0
C1672 C 0.3546 0.09375 0.35734 0.0
C1673 C 0.34894 0.10686 0.31986 0.0
C1674 C 0.35618 0.09437 0.43157 0.0
C1675 C 0.35189 0.10798 0.46876 0.0
C1676 C 0.34463 0.12035 0.43225 0.0
H1677 H 0.36852 0.1448 0.88996 0.0
H1678 H 0.36602 0.14394 0.75972 0.0
C1679 C 0.34308 0.11976 0.35817 0.0
C1680 C 0.35762 0.11055 0.54197 0.0
H1681 H 0.34593 0.11994 0.71068 0.0
C1682 C 0.37391 0.11107 0.55248 0.0
C1683 C 0.34737 0.11381 0.59925 0.0
C1684 C 0.3298 0.11303 0.5908 0.0
C1685 C 0.38026 0.11493 0.61922 0.0
C1686 C 0.37001 0.11817 0.67651 0.0
C1687 C 0.35372 0.11767 0.66597 0.0
C1688 C 0.37573 0.12062 0.7498 0.0
C1689 C 0.39782 0.11568 0.62775 0.0
C1690 C 0.38284 0.10813 0.78609 0.0
C1691 C 0.38428 0.10858 0.86023 0.0
C1692 C 0.3785 0.12148 0.89879 0.0
C1693 C 0.37303 0.1347 0.86158 0.0
C1694 C 0.37153 0.13421 0.7873 0.0
H1695 H 0.40379 0.11738 0.57543 0.0
H1696 H 0.40126 0.12534 0.66433 0.0
H1697 H 0.40207 0.10449 0.6511 0.0
H1698 H 0.38599 0.09747 0.75798 0.0
H1699 H 0.38869 0.09828 0.88769 0.0
H1700 H 0.14004 0.66794 0.67761 0.0
H1701 H 0.13944 0.66531 0.54785 0.0
H1702 H 0.08905 0.66935 0.55007 0.0
H1703 H 0.08946 0.67182 0.68011 0.0
H1704 H 0.10092 0.64026 0.50258 0.0
H1705 H 0.12966 0.69023 0.36441 0.0
H1706 H 0.14029 0.68273 0.44012 0.0
H1707 H 0.12152 0.69183 0.45346 0.0
C1708 C 0.12888 0.66891 0.65036 0.0
C1709 C 0.11476 0.66966 0.68893 0.0
C1710 C 0.12857 0.66747 0.57614 0.0
C1711 C 0.11419 0.66702 0.54003 0.0
C1712 C 0.10023 0.66964 0.57756 0.0
H1713 H 0.08719 0.6391 0.12161 0.0
H1714 H 0.08773 0.64189 0.25134 0.0
C1715 C 0.10051 0.67103 0.65174 0.0
C1716 C 0.11355 0.66074 0.46705 0.0
H1717 H 0.12622 0.66684 0.29682 0.0
C1718 C 0.10631 0.64611 0.45727 0.0
C1719 C 0.12083 0.66835 0.409 0.0
C1720 C 0.12841 0.68422 0.41689 0.0
C1721 C 0.1063 0.63877 0.39041 0.0
C1722 C 0.1136 0.64637 0.33238 0.0
C1723 C 0.12082 0.661 0.34214 0.0
C1724 C 0.11297 0.64007 0.25946 0.0
C1725 C 0.0987 0.62291 0.38247 0.0
C1726 C 0.12694 0.63732 0.22218 0.0
C1727 C 0.12669 0.63582 0.14803 0.0
C1728 C 0.11246 0.63723 0.11065 0.0
C1729 C 0.09833 0.63811 0.14904 0.0
C1730 C 0.09861 0.63964 0.22321 0.0
H1731 H 0.09736 0.61692 0.43497 0.0
H1732 H 0.08686 0.62441 0.35884 0.0
H1733 H 0.10563 0.61527 0.3462 0.0
H1734 H 0.1381 0.63757 0.24981 0.0
H1735 H 0.13774 0.63492 0.1198 0.0
H1736 H 0.66009 0.93489 0.33462 0.0
H1737 H 0.65753 0.93332 0.46452 0.0
H1738 H 0.67916 0.8876 0.46278 0.0
H1739 H 0.6816 0.88896 0.3328 0.0
H1740 H 0.64774 0.88837 0.51039 0.0
H1741 H 0.68439 0.93293 0.64812 0.0
H1742 H 0.67356 0.94012 0.57234 0.0
H1743 H 0.68876 0.92583 0.55917 0.0
C1744 C 0.66491 0.9248 0.36216 0.0
C1745 C 0.67072 0.91189 0.3238 0.0
C1746 C 0.66346 0.92394 0.43638 0.0
C1747 C 0.66804 0.91029 0.47261 0.0
C1748 C 0.67551 0.89818 0.43526 0.0
H1749 H 0.65162 0.87471 0.89267 0.0
H1750 H 0.65428 0.87618 0.76281 0.0
C1751 C 0.6769 0.89899 0.36117 0.0
C1752 C 0.66243 0.90743 0.54572 0.0
H1753 H 0.66412 0.92107 0.71651 0.0
C1754 C 0.65139 0.89542 0.55576 0.0
C1755 C 0.66711 0.91681 0.60391 0.0
C1756 C 0.6792 0.92958 0.59575 0.0
C1757 C 0.64476 0.89262 0.62301 0.0
C1758 C 0.64943 0.90202 0.68118 0.0
C1759 C 0.66047 0.91402 0.67115 0.0
C1760 C 0.64376 0.89921 0.75424 0.0
C1761 C 0.63268 0.87986 0.63118 0.0
C1762 C 0.63626 0.91134 0.7913 0.0
C1763 C 0.63481 0.91058 0.86538 0.0
C1764 C 0.64095 0.8977 0.90301 0.0
C1765 C 0.6468 0.88477 0.86492 0.0
C1766 C 0.64832 0.88558 0.79072 0.0
H1767 H 0.62754 0.87644 0.57879 0.0
H1768 H 0.63831 0.86934 0.65491 0.0
H1769 H 0.62309 0.88363 0.66752 0.0
H1770 H 0.63263 0.9219 0.76357 0.0
H1771 H 0.63008 0.92062 0.89355 0.0
H1772 H 0.91958 0.38996 0.09955 0.0
H1773 H 0.92078 0.3865 0.22907 0.0
H1774 H 0.87478 0.36562 0.22703 0.0
H1775 H 0.87348 0.36892 0.09715 0.0
H1776 H 0.90062 0.39266 0.35426 0.0
H1777 H 0.90726 0.32984 0.27849 0.0
H1778 H 0.90897 0.34556 0.21426 0.0
H1779 H 0.89001 0.33967 0.2459 0.0
C1780 C 0.90948 0.38514 0.12696 0.0
C1781 C 0.89661 0.37931 0.08839 0.0
C1782 C 0.9102 0.38319 0.2008 0.0
C1783 C 0.89805 0.37543 0.23643 0.0
C1784 C 0.88434 0.37141 0.19953 0.0
H1785 H 0.88868 0.3396 0.6571 0.0
H1786 H 0.88776 0.34251 0.52728 0.0
C1787 C 0.88359 0.3734 0.12556 0.0
C1788 C 0.90083 0.3695 0.30896 0.0
H1789 H 0.90825 0.33585 0.4018 0.0
C1790 C 0.90227 0.38027 0.36495 0.0
C1791 C 0.90319 0.35331 0.32159 0.0
C1792 C 0.90242 0.34138 0.26195 0.0
C1793 C 0.90571 0.3752 0.4344 0.0
C1794 C 0.90804 0.35902 0.44707 0.0
C1795 C 0.90662 0.34824 0.39107 0.0
C1796 C 0.9107 0.35313 0.51975 0.0
C1797 C 0.90649 0.38714 0.49401 0.0
C1798 C 0.92441 0.35707 0.55677 0.0
C1799 C 0.925 0.35541 0.63096 0.0
C1800 C 0.9118 0.34992 0.66816 0.0
C1801 C 0.8989 0.34412 0.62965 0.0
C1802 C 0.89836 0.34574 0.55562 0.0
H1803 H 0.90178 0.39872 0.47728 0.0
H1804 H 0.89982 0.38302 0.54147 0.0
H1805 H 0.91888 0.38874 0.51049 0.0
H1806 H 0.9341 0.3626 0.52912 0.0
H1807 H 0.93515 0.35983 0.65934 0.0
H1808 H 0.36732 0.37461 0.34356 0.0
H1809 H 0.36403 0.37622 0.47336 0.0
H1810 H 0.38534 0.42201 0.47341 0.0
H1811 H 0.38864 0.42059 0.34374 0.0
H1812 H 0.38445 0.3861 0.60177 0.0
H1813 H 0.33627 0.42656 0.52106 0.0
H1814 H 0.34529 0.41299 0.45932 0.0
H1815 H 0.35537 0.43058 0.48466 0.0
C1816 C 0.37191 0.38473 0.37151 0.0
C1817 C 0.37787 0.39765 0.33369 0.0
C1818 C 0.36997 0.38564 0.44551 0.0
C1819 C 0.37411 0.39939 0.48176 0.0
C1820 C 0.3819 0.41143 0.44551 0.0
H1821 H 0.35856 0.43529 0.90157 0.0
H1822 H 0.36141 0.43328 0.77173 0.0
C1823 C 0.38379 0.41057 0.37166 0.0
C1824 C 0.3681 0.4022 0.55407 0.0
H1825 H 0.34052 0.4232 0.64523 0.0
C1826 C 0.37484 0.39415 0.61155 0.0
C1827 C 0.35548 0.41267 0.56561 0.0
C1828 C 0.34755 0.42115 0.50449 0.0
C1829 C 0.36945 0.39659 0.68138 0.0
C1830 C 0.35688 0.40712 0.69296 0.0
C1831 C 0.3501 0.41512 0.63545 0.0
C1832 C 0.35109 0.41018 0.76543 0.0
C1833 C 0.37738 0.38812 0.74251 0.0
C1834 C 0.3433 0.39833 0.80294 0.0
C1835 C 0.34166 0.39943 0.87685 0.0
C1836 C 0.34783 0.4124 0.91363 0.0
C1837 C 0.35379 0.42514 0.8746 0.0
C1838 C 0.35547 0.424 0.80055 0.0
H1839 H 0.38855 0.38252 0.72574 0.0
H1840 H 0.37983 0.39632 0.78725 0.0
H1841 H 0.36947 0.37883 0.76304 0.0
H1842 H 0.33968 0.38769 0.77593 0.0
H1843 H 0.33681 0.38954 0.90568 0.0
H1844 H 0.38243 0.67681 0.06169 0.0
H1845 H 0.38157 0.67415 0.19167 0.0
H1846 H 0.43022 0.66033 0.19305 0.0
H1847 H 0.43128 0.66313 0.0633 0.0
H1848 H 0.38754 0.64327 0.23926 0.0
H1849 H 0.42563 0.68666 0.37652 0.0
H1850 H 0.41787 0.68982 0.28762 0.0
H1851 H 0.43448 0.67718 0.3007 0.0
C1852 C 0.39311 0.6738 0.08992 0.0
C1853 C 0.40682 0.66981 0.05245 0.0
C1854 C 0.39259 0.67229 0.16404 0.0
C1855 C 0.40578 0.66691 0.2013 0.0
C1856 C 0.41996 0.66463 0.16498 0.0
H1857 H 0.42268 0.631 0.62213 0.0
H1858 H 0.4235 0.63365 0.49213 0.0
C1859 C 0.42053 0.6662 0.0908 0.0
C1860 C 0.40397 0.66087 0.27439 0.0
H1861 H 0.41752 0.66456 0.4447 0.0
C1862 C 0.39398 0.64798 0.28449 0.0
C1863 C 0.41258 0.66696 0.33237 0.0
C1864 C 0.42316 0.681 0.32415 0.0
C1865 C 0.39248 0.64087 0.3516 0.0
C1866 C 0.4011 0.64696 0.40958 0.0
C1867 C 0.41108 0.65985 0.39948 0.0
C1868 C 0.3993 0.64091 0.48266 0.0
C1869 C 0.38191 0.62683 0.35983 0.0
C1870 C 0.38513 0.64321 0.51906 0.0
C1871 C 0.38458 0.64166 0.59325 0.0
C1872 C 0.3983 0.63804 0.6315 0.0
C1873 C 0.41199 0.63402 0.59396 0.0
C1874 C 0.4125 0.63552 0.51983 0.0
H1875 H 0.37941 0.62118 0.30745 0.0
H1876 H 0.38721 0.618 0.39627 0.0
H1877 H 0.3706 0.63064 0.38341 0.0
H1878 H 0.37487 0.64752 0.49105 0.0
H1879 H 0.37385 0.64475 0.62081 0.0
H1880 H 0.65849 0.58404 0.89609 0.0
H1881 H 0.65599 0.58519 0.76593 0.0
H1882 H 0.67459 0.63219 0.76665 0.0
H1883 H 0.6773 0.63109 0.89627 0.0
H1884 H 0.63519 0.60875 0.71831 0.0
H1885 H 0.69295 0.6133 0.58309 0.0
H1886 H 0.69068 0.60506 0.67164 0.0
H1887 H 0.69078 0.62595 0.6593 0.0
C1888 C 0.66269 0.59435 0.86826 0.0
C1889 C 0.66776 0.60761 0.90617 0.0
C1890 C 0.66121 0.595 0.79402 0.0
C1891 C 0.665 0.6088 0.75725 0.0
C1892 C 0.67174 0.62138 0.79419 0.0
H1893 H 0.64706 0.64512 0.33571 0.0
H1894 H 0.64961 0.64442 0.46601 0.0
C1895 C 0.67319 0.62076 0.8683 0.0
C1896 C 0.6592 0.61128 0.68413 0.0
H1897 H 0.67057 0.62113 0.5155 0.0
C1898 C 0.64291 0.61131 0.67363 0.0
C1899 C 0.66934 0.61491 0.62692 0.0
C1900 C 0.68692 0.61469 0.63545 0.0
C1901 C 0.63643 0.61499 0.60693 0.0
C1902 C 0.64656 0.61856 0.54966 0.0
C1903 C 0.66286 0.61859 0.56021 0.0
C1904 C 0.64077 0.62077 0.47635 0.0
C1905 C 0.61885 0.61519 0.59839 0.0
C1906 C 0.63413 0.60802 0.44032 0.0
C1907 C 0.63267 0.60837 0.36619 0.0
C1908 C 0.63797 0.62144 0.32741 0.0
C1909 C 0.64295 0.63487 0.36433 0.0
C1910 C 0.64447 0.63448 0.43862 0.0
H1911 H 0.61283 0.61671 0.65069 0.0
H1912 H 0.61509 0.62472 0.56167 0.0
H1913 H 0.61499 0.60386 0.5752 0.0
H1914 H 0.63137 0.59728 0.46864 0.0
H1915 H 0.62865 0.59791 0.33894 0.0
H1916 H 0.59639 0.38835 0.63678 0.0
H1917 H 0.59533 0.38489 0.50728 0.0
H1918 H 0.64238 0.36639 0.50892 0.0
H1919 H 0.64354 0.36966 0.63875 0.0
H1920 H 0.61494 0.39211 0.38187 0.0
H1921 H 0.61209 0.32899 0.45723 0.0
H1922 H 0.60955 0.34454 0.52167 0.0
H1923 H 0.62878 0.33972 0.48952 0.0
C1924 C 0.60672 0.38406 0.60933 0.0
C1925 C 0.61988 0.37885 0.64786 0.0
C1926 C 0.60608 0.3821 0.53546 0.0
C1927 C 0.61861 0.37499 0.49967 0.0
C1928 C 0.63252 0.37166 0.5365 0.0
H1929 H 0.62948 0.33908 0.07907 0.0
H1930 H 0.63042 0.34237 0.20868 0.0
C1931 C 0.63319 0.37363 0.61051 0.0
C1932 C 0.61614 0.36896 0.42706 0.0
H1933 H 0.6107 0.33499 0.33402 0.0
C1934 C 0.61403 0.37965 0.37112 0.0
C1935 C 0.61476 0.35267 0.41428 0.0
C1936 C 0.61628 0.34077 0.47379 0.0
C1937 C 0.61087 0.37444 0.30163 0.0
C1938 C 0.60949 0.35815 0.28885 0.0
C1939 C 0.6116 0.34745 0.34479 0.0
C1940 C 0.60708 0.35214 0.21617 0.0
C1941 C 0.60936 0.38634 0.24212 0.0
C1942 C 0.59317 0.35545 0.1792 0.0
C1943 C 0.59257 0.35357 0.10513 0.0
C1944 C 0.60594 0.34847 0.06788 0.0
C1945 C 0.61911 0.34328 0.10647 0.0
C1946 C 0.61967 0.34513 0.1804 0.0
H1947 H 0.61351 0.39813 0.25874 0.0
H1948 H 0.61614 0.38258 0.19434 0.0
H1949 H 0.59687 0.38736 0.2262 0.0
H1950 H 0.58328 0.36064 0.20676 0.0
H1951 H 0.58222 0.35752 0.07675 0.0
H1952 H 0.84843 0.59017 0.78486 0.0
H1953 H 0.85087 0.58981 0.91492 0.0
H1954 H 0.85319 0.64031 0.91734 0.0
H1955 H 0.85057 0.64085 0.78761 0.0
H1956 H 0.8795 0.60254 0.9626 0.0
H1957 H 0.82865 0.62981 0.10041 0.0
H1958 H 0.82733 0.62165 0.01132 0.0
H1959 H 0.83579 0.64069 0.02482 0.0
C1960 C 0.84883 0.60123 0.81328 0.0
C1961 C 0.84973 0.61554 0.77618 0.0
C1962 C 0.85021 0.60098 0.88746 0.0
C1963 C 0.85234 0.61501 0.92504 0.0
C1964 C 0.8514 0.62938 0.88899 0.0
H1965 H 0.8834 0.63985 0.34492 0.0
H1966 H 0.88099 0.64006 0.21479 0.0
C1967 C 0.84998 0.62966 0.8148 0.0
C1968 C 0.85864 0.61457 -0.002 0.0
H1969 H 0.8522 0.62726 0.16789 0.0
C1970 C 0.8735 0.6078 0.00782 0.0
C1971 C 0.85082 0.62168 0.0559 0.0
C1972 C 0.8347 0.62876 0.04795 0.0
C1973 C 0.88087 0.6081 0.07461 0.0
C1974 C 0.87306 0.61523 0.13247 0.0
C1975 C 0.8582 0.62199 0.12267 0.0
C1976 C 0.87939 0.61485 0.20538 0.0
C1977 C 0.89698 0.601 0.08262 0.0
C1978 C 0.88025 0.60053 0.24179 0.0
C1979 C 0.88165 0.60034 0.31601 0.0
C1980 C 0.88195 0.61451 0.35423 0.0
C1981 C 0.88294 0.62876 0.31677 0.0
C1982 C 0.88159 0.62892 0.24257 0.0
H1983 H 0.903 0.59984 0.03014 0.0
H1984 H 0.90439 0.60818 0.11886 0.0
H1985 H 0.89588 0.58912 0.10631 0.0
H1986 H 0.87842 0.58957 0.21372 0.0
H1987 H 0.88101 0.58918 0.34351 0.0
H1988 H 0.60001 0.1306 0.58497 0.0
H1989 H 0.59902 0.13376 0.71465 0.0
H1990 H 0.64442 0.1559 0.71133 0.0
H1991 H 0.6455 0.15289 0.58121 0.0
H1992 H 0.61947 0.12806 0.83939 0.0
H1993 H 0.61113 0.19073 0.76414 0.0
H1994 H 0.60979 0.17503 0.69975 0.0
H1995 H 0.6286 0.18135 0.73143 0.0
C1996 C 0.61004 0.13563 0.61212 0.0
C1997 C 0.62266 0.14187 0.57317 0.0
C1998 C 0.60945 0.13741 0.68607 0.0
C1999 C 0.62145 0.14543 0.72148 0.0
C2000 C 0.63497 0.14988 0.68407 0.0
H2001 H 0.62873 0.18247 0.14214 0.0
H2002 H 0.63011 0.17915 0.01263 0.0
C2003 C 0.6356 0.14806 0.60995 0.0
C2004 C 0.61861 0.15123 0.79421 0.0
H2005 H 0.61006 0.18457 0.88713 0.0
C2006 C 0.61745 0.14039 0.85014 0.0
C2007 C 0.61578 0.16733 0.80697 0.0
C2008 C 0.61625 0.17932 0.74748 0.0
C2009 C 0.61378 0.1453 0.91957 0.0
C2010 C 0.61091 0.1614 0.9323 0.0
C2011 C 0.6121 0.17224 0.87639 0.0
C2012 C 0.60785 0.16718 0.00488 0.0
C2013 C 0.61332 0.13331 0.97907 0.0
C2014 C 0.59429 0.1626 0.04164 0.0
C2015 C 0.59343 0.1645 0.11566 0.0
C2016 C 0.6062 0.1709 0.15302 0.0
C2017 C 0.61884 0.17727 0.1146 0.0
C2018 C 0.61966 0.1754 0.04074 0.0
H2019 H 0.6186 0.12196 0.96261 0.0
H2020 H 0.61963 0.13768 0.02708 0.0
H2021 H 0.60095 0.13114 -0.00547 0.0
H2022 H 0.58498 0.15646 0.01399 0.0
H2023 H 0.5835 0.15961 0.14396 0.0
H2024 H 0.1298 0.42239 0.39237 0.0
H2025 H 0.13254 0.42338 0.26243 0.0
H2026 H 0.1516 0.37653 0.26315 0.0
H2027 H 0.14872 0.37534 0.39298 0.0
H2028 H 0.16389 0.42082 0.21572 0.0
H2029 H 0.12515 0.37796 0.07871 0.0
H2030 H 0.12106 0.38542 0.16731 0.0
H2031 H 0.13554 0.37037 0.15497 0.0
C2032 C 0.13399 0.41206 0.36454 0.0
C2033 C 0.13936 0.39891 0.40262 0.0
C2034 C 0.13555 0.41266 0.29046 0.0
C2035 C 0.14241 0.40009 0.25381 0.0
C2036 C 0.14615 0.38628 0.29072 0.0
H2037 H 0.17994 0.38762 0.83244 0.0
H2038 H 0.17731 0.38637 0.96237 0.0
C2039 C 0.14451 0.38563 0.36491 0.0
C2040 C 0.14827 0.40249 0.18074 0.0
H2041 H 0.146 0.38872 0.01027 0.0
C2042 C 0.15992 0.4139 0.17052 0.0
C2043 C 0.14317 0.39326 0.12275 0.0
C2044 C 0.13045 0.38114 0.13107 0.0
C2045 C 0.16673 0.41627 0.10328 0.0
C2046 C 0.1616 0.40706 0.04525 0.0
C2047 C 0.14998 0.39563 0.0555 0.0
C2048 C 0.16735 0.40959 0.97208 0.0
C2049 C 0.17945 0.4284 0.09496 0.0
C2050 C 0.16348 0.42345 0.93578 0.0
C2051 C 0.16504 0.42424 0.86159 0.0
C2052 C 0.17023 0.41107 0.82325 0.0
C2053 C 0.17571 0.39787 0.86072 0.0
C2054 C 0.17422 0.39712 0.9348 0.0
H2055 H 0.18481 0.4315 0.14728 0.0
H2056 H 0.18879 0.42416 0.05835 0.0
H2057 H 0.17433 0.43921 0.07152 0.0
H2058 H 0.15802 0.43313 0.96385 0.0
H2059 H 0.16076 0.43458 0.83405 0.0
H2060 H 0.43532 0.85696 0.14395 0.0
H2061 H 0.43416 0.8602 0.014 0.0
H2062 H 0.38694 0.84226 0.01272 0.0
H2063 H 0.38798 0.83885 0.14227 0.0
H2064 H 0.40647 0.83486 0.88703 0.0
H2065 H 0.40408 0.89795 0.96292 0.0
H2066 H 0.4207 0.88706 -0.0048 0.0
H2067 H 0.40143 0.88237 0.0272 0.0
C2068 C 0.42493 0.8531 0.11571 0.0
C2069 C 0.41157 0.84807 0.15312 0.0
C2070 C 0.42427 0.85505 0.04168 0.0
C2071 C 0.41031 0.85188 0.00494 0.0
C2072 C 0.39773 0.84492 0.04083 0.0
H2073 H 0.37465 0.87023 0.58082 0.0
H2074 H 0.37534 0.86706 0.71091 0.0
C2075 C 0.39835 0.843 0.11472 0.0
C2076 C 0.40787 0.85797 0.93238 0.0
H2077 H 0.40281 0.89206 0.83957 0.0
C2078 C 0.40568 0.84733 0.87636 0.0
C2079 C 0.40662 0.87428 0.91975 0.0
C2080 C 0.40819 0.88613 0.97939 0.0
C2081 C 0.40261 0.85263 0.80687 0.0
C2082 C 0.40143 0.86894 0.79419 0.0
C2083 C 0.40357 0.87958 0.85026 0.0
C2084 C 0.39928 0.87504 0.72145 0.0
C2085 C 0.40102 0.84079 0.74723 0.0
C2086 C 0.41209 0.88176 0.68629 0.0
C2087 C 0.41174 0.88362 0.61233 0.0
C2088 C 0.39857 0.87874 0.57314 0.0
C2089 C 0.38501 0.87394 0.60972 0.0
C2090 C 0.3854 0.87204 0.68383 0.0
H2091 H 0.40491 0.82891 0.76398 0.0
H2092 H 0.38855 0.84005 0.73066 0.0
H2093 H 0.40798 0.84443 0.69983 0.0
H2094 H 0.42283 0.88427 0.71508 0.0
H2095 H 0.42227 0.88758 0.58541 0.0
H2096 H 0.8555 0.93288 0.41371 0.0
H2097 H 0.85785 0.93233 0.28351 0.0
H2098 H 0.84507 0.88343 0.2826 0.0
H2099 H 0.84252 0.88386 0.41237 0.0
H2100 H 0.88137 0.91134 0.23602 0.0
H2101 H 0.82459 0.90057 0.09909 0.0
H2102 H 0.82586 0.909 0.18768 0.0
H2103 H 0.82814 0.88824 0.17543 0.0
C2104 C 0.85255 0.92218 0.38559 0.0
C2105 C 0.84922 0.9083 0.42308 0.0
C2106 C 0.85392 0.9219 0.31132 0.0
C2107 C 0.85175 0.90782 0.27409 0.0
C2108 C 0.84664 0.89443 0.3106 0.0
H2109 H 0.87407 0.87436 0.85334 0.0
H2110 H 0.87136 0.8748 0.98343 0.0
C2111 C 0.8453 0.89469 0.38481 0.0
C2112 C 0.85783 0.90622 0.20103 0.0
H2113 H 0.84777 0.89568 0.03163 0.0
C2114 C 0.87403 0.90807 0.191 0.0
C2115 C 0.8482 0.90167 0.1434 0.0
C2116 C 0.8307 0.89987 0.15156 0.0
C2117 C 0.88093 0.90534 0.12431 0.0
C2118 C 0.87131 0.90082 0.06664 0.0
C2119 C 0.85511 0.89895 0.07668 0.0
C2120 C 0.87741 0.89931 -0.00641 0.0
C2121 C 0.89843 0.90714 0.11619 0.0
C2122 C 0.88258 0.91274 0.9576 0.0
C2123 C 0.88413 0.91255 0.88349 0.0
C2124 C 0.88035 0.89896 0.84478 0.0
C2125 C 0.87693 0.88504 0.88182 0.0
C2126 C 0.87534 0.88526 0.95601 0.0
H2127 H 0.90454 0.90633 0.16863 0.0
H2128 H 0.90327 0.89806 0.07974 0.0
H2129 H 0.90101 0.91881 0.09279 0.0
H2130 H 0.88407 0.92372 0.9859 0.0
H2131 H 0.88697 0.9234 0.85626 0.0
H2132 H 0.87427 0.14829 0.1374 0.0
H2133 H 0.87483 0.15091 0.00714 0.0
H2134 H 0.92233 0.13355 0.00384 0.0
H2135 H 0.92186 0.13078 0.13353 0.0
H2136 H 0.89768 0.17234 0.95757 0.0
H2137 H 0.90309 0.11472 0.82188 0.0
H2138 H 0.89509 0.11681 0.91096 0.0
H2139 H 0.91594 0.11707 0.89729 0.0
C2140 C 0.88459 0.1444 0.10865 0.0
C2141 C 0.89816 0.13966 0.1454 0.0
C2142 C 0.88489 0.14594 0.03438 0.0
C2143 C 0.89864 0.14252 -0.00354 0.0
C2144 C 0.91156 0.13611 0.0323 0.0
H2145 H 0.93464 0.16088 0.57632 0.0
H2146 H 0.93363 0.15835 0.70652 0.0
C2147 C 0.9113 0.13462 0.10644 0.0
C2148 C 0.90067 0.14838 0.92317 0.0
H2149 H 0.91052 0.13724 0.75429 0.0
C2150 C 0.90032 0.16468 0.91276 0.0
C2151 C 0.90438 0.13833 0.86577 0.0
C2152 C 0.90453 0.12075 0.8742 0.0
C2153 C 0.90381 0.17125 0.84604 0.0
C2154 C 0.90757 0.1612 0.78868 0.0
C2155 C 0.90786 0.1449 0.79906 0.0
C2156 C 0.9099 0.16707 0.71556 0.0
C2157 C 0.90369 0.18884 0.83768 0.0
C2158 C 0.89719 0.17366 0.67883 0.0
C2159 C 0.89772 0.17513 0.6047 0.0
C2160 C 0.91091 0.16987 0.56662 0.0
C2161 C 0.92428 0.16494 0.60433 0.0
C2162 C 0.92373 0.16345 0.67858 0.0
H2163 H 0.90502 0.19487 0.89007 0.0
H2164 H 0.91321 0.19278 0.80134 0.0
H2165 H 0.89233 0.19253 0.81409 0.0
H2166 H 0.88637 0.17636 0.70654 0.0
H2167 H 0.8873 0.17912 0.57693 0.0
H2168 H 0.15 0.14563 0.83698 0.0
H2169 H 0.15307 0.14488 0.96712 0.0
H2170 H 0.13395 0.09812 0.97158 0.0
H2171 H 0.13075 0.09876 0.84185 0.0
H2172 H 0.12696 0.11861 0.096 0.0
H2173 H 0.18995 0.11362 0.02018 0.0
H2174 H 0.17951 0.13041 0.9866 0.0
H2175 H 0.17429 0.11116 0.95617 0.0
C2176 C 0.14585 0.13545 0.86596 0.0
C2177 C 0.14054 0.12207 0.82949 0.0
C2178 C 0.14769 0.13502 0.94009 0.0
C2179 C 0.14411 0.12129 0.97781 0.0
C2180 C 0.1369 0.10874 0.94271 0.0
H2181 H 0.16052 0.08447 0.40014 0.0
H2182 H 0.15736 0.08579 0.27018 0.0
C2183 C 0.13511 0.10912 0.86874 0.0
C2184 C 0.15011 0.1189 0.05053 0.0
H2185 H 0.18393 0.11228 0.14321 0.0
C2186 C 0.13939 0.11727 0.10665 0.0
C2187 C 0.16635 0.11696 0.06313 0.0
C2188 C 0.17824 0.118 0.00342 0.0
C2189 C 0.14455 0.11398 0.17612 0.0
C2190 C 0.16079 0.11197 0.18866 0.0
C2191 C 0.17151 0.11366 0.1326 0.0
C2192 C 0.16677 0.10923 0.26117 0.0
C2193 C 0.13266 0.11297 0.23582 0.0
C2194 C 0.17428 0.12149 0.29707 0.0
C2195 C 0.17616 0.12077 0.37096 0.0
C2196 C 0.17049 0.10779 0.40933 0.0
C2197 C 0.16485 0.09468 0.3719 0.0
C2198 C 0.16295 0.09543 0.29788 0.0
H2199 H 0.12104 0.11764 0.2194 0.0
H2200 H 0.13114 0.10052 0.25164 0.0
H2201 H 0.13674 0.11955 0.28359 0.0
H2202 H 0.17744 0.13214 0.26897 0.0
H2203 H 0.18078 0.13094 0.39852 0.0
H2204 H 0.13231 0.83863 0.58776 0.0
H2205 H 0.13355 0.84117 0.71772 0.0
H2206 H 0.08685 0.86057 0.7194 0.0
H2207 H 0.08541 0.85793 0.58953 0.0
H2208 H 0.13122 0.87254 0.76552 0.0
H2209 H 0.08851 0.83368 0.90291 0.0
H2210 H 0.09586 0.82969 0.81402 0.0
H2211 H 0.08081 0.84414 0.82707 0.0
C2212 C 0.12207 0.84286 0.61609 0.0
C2213 C 0.10889 0.84841 0.57868 0.0
C2214 C 0.12281 0.8443 0.69019 0.0
C2215 C 0.11036 0.85118 0.72753 0.0
C2216 C 0.09651 0.8551 0.69127 0.0
H2217 H 0.09768 0.88878 0.14766 0.0
H2218 H 0.09668 0.886 0.01774 0.0
C2219 C 0.09572 0.8536 0.61706 0.0
C2220 C 0.11291 0.85691 0.80068 0.0
H2221 H 0.09923 0.85458 0.9713 0.0
C2222 C 0.12434 0.86854 0.81082 0.0
C2223 C 0.10374 0.85177 0.8588 0.0
C2224 C 0.09162 0.83904 0.85056 0.0
C2225 C 0.12673 0.87534 0.87805 0.0
C2226 C 0.11753 0.87022 0.93613 0.0
C2227 C 0.10613 0.85857 0.92602 0.0
C2228 C 0.11995 0.8761 0.00915 0.0
C2229 C 0.13884 0.88808 0.88627 0.0
C2230 C 0.13376 0.87234 0.04603 0.0
C2231 C 0.13441 0.87401 0.12021 0.0
C2232 C 0.12114 0.87918 0.1579 0.0
C2233 C 0.108 0.88457 0.11983 0.0
C2234 C 0.10739 0.88298 0.04577 0.0
H2235 H 0.14204 0.89336 0.83387 0.0
H2236 H 0.13455 0.89748 0.9224 0.0
H2237 H 0.14962 0.88301 0.91027 0.0
H2238 H 0.1435 0.86687 0.01846 0.0
H2239 H 0.1447 0.86979 0.14827 0.0
loop_
_geom_bond_atom_site_label_1
_geom_bond_atom_site_label_2
_geom_bond_distance
_geom_bond_site_symmetry_2
_ccdc_geom_bond_type
Zn0 O1 2.055 . S
Zn0 O8 2.046 . S
Zn0 N16 2.036 . S
Zn0 O28 2.053 . S
Zn0 O30 2.066 . S
O1 Zn0 2.055 . S
O1 C4 1.259 1_554 S
C2 O30 1.256 . S
C2 O31 1.244 . S
Zn3 O5 2.046 . S
Zn3 O7 2.055 . S
Zn3 N9 2.036 . S
Zn3 O27 2.066 . S
Zn3 O31 2.053 . S
C4 O1 1.259 1_556 S
C4 O5 1.254 1_556 S
O5 Zn3 2.046 . S
O5 C4 1.254 1_554 S
C6 O27 1.256 . S
C6 O28 1.244 . S
O7 Zn3 2.055 . S
O7 C29 1.259 . S
O8 Zn0 2.046 . S
O8 C29 1.254 . S
N9 Zn3 2.036 . S
N9 C10 1.298 . S
N9 N12 1.398 . S
C10 N9 1.298 . S
C10 N13 1.367 . S
C10 C23 1.481 . S
C11 N12 1.299 . S
C11 N13 1.379 . S
N12 N9 1.398 . S
N12 C11 1.299 . S
N13 C10 1.367 . S
N13 C11 1.379 . S
C14 N16 1.298 . S
C14 N18 1.367 . S
C14 C22 1.481 . S
C15 N17 1.299 . S
C15 N18 1.379 . S
N16 Zn0 2.036 . S
N16 C14 1.298 . S
N16 N17 1.398 . S
N17 C15 1.299 . S
N17 N16 1.398 . S
N18 C14 1.367 . S
N18 C15 1.379 . S
H19 C22 0.980 1_556 S
H20 C22 0.981 1_556 S
H21 C22 0.981 . S
C22 C14 1.481 . S
C22 H19 0.980 1_554 S
C22 H20 0.981 1_554 S
C22 H21 0.981 . S
C23 C10 1.481 . S
C23 H24 0.980 . S
C23 H25 0.981 . S
C23 H26 0.981 . S
H24 C23 0.980 . S
H25 C23 0.981 . S
H26 C23 0.981 . S
O27 Zn3 2.066 . S
O27 C6 1.256 . S
O28 Zn0 2.053 . S
O28 C6 1.244 . S
C29 O7 1.259 . S
C29 O8 1.254 . S
O30 Zn0 2.066 . S
O30 C2 1.256 . S
O31 C2 1.244 . S
O31 Zn3 2.053 . S
Zn32 O33 2.055 . S
Zn32 O40 2.046 . S
Zn32 N48 2.036 . S
Zn32 O60 2.053 . S
Zn32 O62 2.066 . S
O33 Zn32 2.055 . S
O33 C36 1.259 1_556 S
C34 O62 1.256 . S
C34 O63 1.244 . S
Zn35 O37 2.046 . S
Zn35 O39 2.055 . S
Zn35 N41 2.036 . S
Zn35 O59 2.066 . S
Zn35 O63 2.053 . S
C36 O33 1.259 1_554 S
C36 O37 1.254 1_554 S
O37 Zn35 2.046 . S
O37 C36 1.254 1_556 S
C38 O59 1.256 . S
C38 O60 1.244 . S
O39 Zn35 2.055 . S
O39 C61 1.259 . S
O40 Zn32 2.046 . S
O40 C61 1.254 . S
N41 Zn35 2.036 . S
N41 C42 1.298 . S
N41 N44 1.398 . S
C42 N41 1.298 . S
C42 N45 1.367 . S
C42 C55 1.481 . S
C43 N44 1.299 . S
C43 N45 1.379 . S
N44 N41 1.398 . S
N44 C43 1.299 . S
N45 C42 1.367 . S
N45 C43 1.379 . S
C46 N48 1.298 . S
C46 N50 1.367 . S
C46 C54 1.481 . S
C47 N49 1.299 . S
C47 N50 1.379 . S
N48 Zn32 2.036 . S
N48 C46 1.298 . S
N48 N49 1.398 . S
N49 C47 1.299 . S
N49 N48 1.398 . S
N50 C46 1.367 . S
N50 C47 1.379 . S
H51 C54 0.980 1_554 S
H52 C54 0.981 1_554 S
H53 C54 0.981 . S
C54 C46 1.481 . S
C54 H51 0.980 1_556 S
C54 H52 0.981 1_556 S
C54 H53 0.981 . S
C55 C42 1.481 . S
C55 H56 0.980 . S
C55 H57 0.981 . S
C55 H58 0.981 . S
H56 C55 0.980 . S
H57 C55 0.981 . S
H58 C55 0.981 . S
O59 Zn35 2.066 . S
O59 C38 1.256 . S
O60 Zn32 2.053 . S
O60 C38 1.244 . S
C61 O39 1.259 . S
C61 O40 1.254 . S
O62 Zn32 2.066 . S
O62 C34 1.256 . S
O63 C34 1.244 . S
O63 Zn35 2.053 . S
Zn64 O65 2.055 . S
Zn64 O72 2.046 . S
Zn64 N80 2.036 . S
Zn64 O92 2.053 . S
Zn64 O94 2.066 . S
O65 Zn64 2.055 . S
O65 C68 1.259 . S
C66 O94 1.256 . S
C66 O95 1.244 . S
Zn67 O69 2.046 . S
Zn67 O71 2.055 . S
Zn67 N73 2.036 . S
Zn67 O91 2.066 . S
Zn67 O95 2.053 . S
C68 O65 1.259 . S
C68 O69 1.254 . S
O69 Zn67 2.046 . S
O69 C68 1.254 . S
C70 O91 1.256 . S
C70 O92 1.244 . S
O71 Zn67 2.055 . S
O71 C93 1.259 1_554 S
O72 Zn64 2.046 . S
O72 C93 1.254 1_554 S
N73 Zn67 2.036 . S
N73 C74 1.298 . S
N73 N76 1.398 . S
C74 N73 1.298 . S
C74 N77 1.367 . S
C74 C87 1.481 . S
C75 N76 1.299 . S
C75 N77 1.379 . S
N76 N73 1.398 . S
N76 C75 1.299 . S
N77 C74 1.367 . S
N77 C75 1.379 . S
C78 N80 1.298 . S
C78 N82 1.367 . S
C78 C86 1.481 . S
C79 N81 1.299 . S
C79 N82 1.379 . S
N80 Zn64 2.036 . S
N80 C78 1.298 . S
N80 N81 1.398 . S
N81 C79 1.299 . S
N81 N80 1.398 . S
N82 C78 1.367 . S
N82 C79 1.379 . S
H83 C86 0.980 . S
H84 C86 0.981 . S
H85 C86 0.981 . S
C86 C78 1.481 . S
C86 H83 0.980 . S
C86 H84 0.981 . S
C86 H85 0.981 . S
C87 C74 1.481 . S
C87 H88 0.980 1_554 S
C87 H89 0.981 1_554 S
C87 H90 0.981 . S
H88 C87 0.980 1_556 S
H89 C87 0.981 1_556 S
H90 C87 0.981 . S
O91 Zn67 2.066 . S
O91 C70 1.256 . S
O92 Zn64 2.053 . S
O92 C70 1.244 . S
C93 O71 1.259 1_556 S
C93 O72 1.254 1_556 S
O94 Zn64 2.066 . S
O94 C66 1.256 . S
O95 C66 1.244 . S
O95 Zn67 2.053 . S
Zn96 O97 2.055 . S
Zn96 O104 2.046 . S
Zn96 N112 2.036 . S
Zn96 O124 2.053 . S
Zn96 O126 2.066 . S
O97 Zn96 2.055 . S
O97 C100 1.259 . S
C98 O126 1.256 . S
C98 O127 1.244 . S
Zn99 O101 2.046 . S
Zn99 O103 2.055 . S
Zn99 N105 2.036 . S
Zn99 O123 2.066 . S
Zn99 O127 2.053 . S
C100 O97 1.259 . S
C100 O101 1.254 . S
O101 Zn99 2.046 . S
O101 C100 1.254 . S
C102 O123 1.256 . S
C102 O124 1.244 . S
O103 Zn99 2.055 . S
O103 C125 1.259 1_556 S
O104 Zn96 2.046 . S
O104 C125 1.254 1_556 S
N105 Zn99 2.036 . S
N105 C106 1.298 . S
N105 N108 1.398 . S
C106 N105 1.298 . S
C106 N109 1.367 . S
C106 C119 1.481 . S
C107 N108 1.299 . S
C107 N109 1.379 . S
N108 N105 1.398 . S
N108 C107 1.299 . S
N109 C106 1.367 . S
N109 C107 1.379 . S
C110 N112 1.298 . S
C110 N114 1.367 . S
C110 C118 1.481 . S
C111 N113 1.299 . S
C111 N114 1.379 . S
N112 Zn96 2.036 . S
N112 C110 1.298 . S
N112 N113 1.398 . S
N113 C111 1.299 . S
N113 N112 1.398 . S
N114 C110 1.367 . S
N114 C111 1.379 . S
H115 C118 0.980 . S
H116 C118 0.981 . S
H117 C118 0.981 . S
C118 C110 1.481 . S
C118 H115 0.980 . S
C118 H116 0.981 . S
C118 H117 0.981 . S
C119 C106 1.481 . S
C119 H120 0.980 1_556 S
C119 H121 0.981 1_556 S
C119 H122 0.981 . S
H120 C119 0.980 1_554 S
H121 C119 0.981 1_554 S
H122 C119 0.981 . S
O123 Zn99 2.066 . S
O123 C102 1.256 . S
O124 Zn96 2.053 . S
O124 C102 1.244 . S
C125 O103 1.259 1_554 S
C125 O104 1.254 1_554 S
O126 Zn96 2.066 . S
O126 C98 1.256 . S
O127 C98 1.244 . S
O127 Zn99 2.053 . S
Zn128 O129 2.055 . S
Zn128 O136 2.046 . S
Zn128 N144 2.036 . S
Zn128 O156 2.053 . S
Zn128 O158 2.066 . S
O129 Zn128 2.055 . S
O129 C132 1.259 . S
C130 O158 1.256 . S
C130 O159 1.244 . S
Zn131 O133 2.046 . S
Zn131 O135 2.055 . S
Zn131 N137 2.036 . S
Zn131 O155 2.066 . S
Zn131 O159 2.053 . S
C132 O129 1.259 . S
C132 O133 1.254 . S
O133 Zn131 2.046 . S
O133 C132 1.254 . S
C134 O155 1.256 1_556 S
C134 O156 1.244 1_556 S
O135 Zn131 2.055 . S
O135 C157 1.259 . S
O136 Zn128 2.046 . S
O136 C157 1.254 . S
N137 Zn131 2.036 . S
N137 C138 1.298 . S
N137 N140 1.398 . S
C138 N137 1.298 . S
C138 N141 1.367 . S
C138 C151 1.481 . S
C139 N140 1.299 . S
C139 N141 1.379 . S
N140 N137 1.398 . S
N140 C139 1.299 . S
N141 C138 1.367 . S
N141 C139 1.379 . S
C142 N144 1.298 . S
C142 N146 1.367 . S
C142 C150 1.481 . S
C143 N145 1.299 . S
C143 N146 1.379 . S
N144 Zn128 2.036 . S
N144 C142 1.298 . S
N144 N145 1.398 . S
N145 C143 1.299 . S
N145 N144 1.398 . S
N146 C142 1.367 . S
N146 C143 1.379 . S
H147 C150 0.980 . S
H148 C150 0.981 . S
H149 C150 0.981 . S
C150 C142 1.481 . S
C150 H147 0.980 . S
C150 H148 0.981 . S
C150 H149 0.981 . S
C151 C138 1.481 . S
C151 H152 0.980 . S
C151 H153 0.981 . S
C151 H154 0.981 1_554 S
H152 C151 0.980 . S
H153 C151 0.981 . S
H154 C151 0.981 1_556 S
O155 Zn131 2.066 . S
O155 C134 1.256 1_554 S
O156 Zn128 2.053 . S
O156 C134 1.244 1_554 S
C157 O135 1.259 . S
C157 O136 1.254 . S
O158 Zn128 2.066 . S
O158 C130 1.256 . S
O159 C130 1.244 . S
O159 Zn131 2.053 . S
Zn160 O161 2.055 . S
Zn160 O168 2.046 . S
Zn160 N176 2.036 . S
Zn160 O188 2.053 . S
Zn160 O190 2.066 . S
O161 Zn160 2.055 . S
O161 C164 1.259 . S
C162 O190 1.256 1_554 S
C162 O191 1.244 1_554 S
Zn163 O165 2.046 . S
Zn163 O167 2.055 . S
Zn163 N169 2.036 . S
Zn163 O187 2.066 . S
Zn163 O191 2.053 . S
C164 O161 1.259 . S
C164 O165 1.254 . S
O165 Zn163 2.046 . S
O165 C164 1.254 . S
C166 O187 1.256 . S
C166 O188 1.244 . S
O167 Zn163 2.055 . S
O167 C189 1.259 . S
O168 Zn160 2.046 . S
O168 C189 1.254 . S
N169 Zn163 2.036 . S
N169 C170 1.298 . S
N169 N172 1.398 . S
C170 N169 1.298 . S
C170 N173 1.367 . S
C170 C183 1.481 . S
C171 N172 1.299 . S
C171 N173 1.379 . S
N172 N169 1.398 . S
N172 C171 1.299 . S
N173 C170 1.367 . S
N173 C171 1.379 . S
C174 N176 1.298 . S
C174 N178 1.367 . S
C174 C182 1.481 . S
C175 N177 1.299 . S
C175 N178 1.379 . S
N176 Zn160 2.036 . S
N176 C174 1.298 . S
N176 N177 1.398 . S
N177 C175 1.299 . S
N177 N176 1.398 . S
N178 C174 1.367 . S
N178 C175 1.379 . S
H179 C182 0.980 . S
H180 C182 0.981 . S
H181 C182 0.981 1_554 S
C182 C174 1.481 . S
C182 H179 0.980 . S
C182 H180 0.981 . S
C182 H181 0.981 1_556 S
C183 C170 1.481 . S
C183 H184 0.980 . S
C183 H185 0.981 . S
C183 H186 0.981 . S
H184 C183 0.980 . S
H185 C183 0.981 . S
H186 C183 0.981 . S
O187 Zn163 2.066 . S
O187 C166 1.256 . S
O188 Zn160 2.053 . S
O188 C166 1.244 . S
C189 O167 1.259 . S
C189 O168 1.254 . S
O190 Zn160 2.066 . S
O190 C162 1.256 1_556 S
O191 C162 1.244 1_556 S
O191 Zn163 2.053 . S
Zn192 O193 2.055 . S
Zn192 O200 2.046 . S
Zn192 N208 2.036 . S
Zn192 O220 2.053 . S
Zn192 O222 2.066 . S
O193 Zn192 2.055 . S
O193 C196 1.259 . S
C194 O222 1.256 . S
C194 O223 1.244 . S
Zn195 O197 2.046 . S
Zn195 O199 2.055 . S
Zn195 N201 2.036 . S
Zn195 O219 2.066 . S
Zn195 O223 2.053 . S
C196 O193 1.259 . S
C196 O197 1.254 . S
O197 Zn195 2.046 . S
O197 C196 1.254 . S
C198 O219 1.256 1_556 S
C198 O220 1.244 1_556 S
O199 Zn195 2.055 . S
O199 C221 1.259 . S
O200 Zn192 2.046 . S
O200 C221 1.254 . S
N201 Zn195 2.036 . S
N201 C202 1.298 . S
N201 N204 1.398 . S
C202 N201 1.298 . S
C202 N205 1.367 . S
C202 C215 1.481 . S
C203 N204 1.299 . S
C203 N205 1.379 . S
N204 N201 1.398 . S
N204 C203 1.299 . S
N205 C202 1.367 . S
N205 C203 1.379 . S
C206 N208 1.298 . S
C206 N210 1.367 . S
C206 C214 1.481 . S
C207 N209 1.299 . S
C207 N210 1.379 . S
N208 Zn192 2.036 . S
N208 C206 1.298 . S
N208 N209 1.398 . S
N209 C207 1.299 . S
N209 N208 1.398 . S
N210 C206 1.367 . S
N210 C207 1.379 . S
H211 C214 0.980 . S
H212 C214 0.981 . S
H213 C214 0.981 . S
C214 C206 1.481 . S
C214 H211 0.980 . S
C214 H212 0.981 . S
C214 H213 0.981 . S
C215 C202 1.481 . S
C215 H216 0.980 . S
C215 H217 0.981 . S
C215 H218 0.981 1_554 S
H216 C215 0.980 . S
H217 C215 0.981 . S
H218 C215 0.981 1_556 S
O219 Zn195 2.066 . S
O219 C198 1.256 1_554 S
O220 Zn192 2.053 . S
O220 C198 1.244 1_554 S
C221 O199 1.259 . S
C221 O200 1.254 . S
O222 Zn192 2.066 . S
O222 C194 1.256 . S
O223 C194 1.244 . S
O223 Zn195 2.053 . S
Zn224 O225 2.055 . S
Zn224 O232 2.046 . S
Zn224 N240 2.036 . S
Zn224 O252 2.053 . S
Zn224 O254 2.066 . S
O225 Zn224 2.055 . S
O225 C228 1.259 . S
C226 O254 1.256 . S
C226 O255 1.244 . S
Zn227 O229 2.046 . S
Zn227 O231 2.055 . S
Zn227 N233 2.036 . S
Zn227 O251 2.066 . S
Zn227 O255 2.053 . S
C228 O225 1.259 . S
C228 O229 1.254 . S
O229 Zn227 2.046 . S
O229 C228 1.254 . S
C230 O251 1.256 1_554 S
C230 O252 1.244 1_554 S
O231 Zn227 2.055 . S
O231 C253 1.259 . S
O232 Zn224 2.046 . S
O232 C253 1.254 . S
N233 Zn227 2.036 . S
N233 C234 1.298 . S
N233 N236 1.398 . S
C234 N233 1.298 . S
C234 N237 1.367 . S
C234 C247 1.481 . S
C235 N236 1.299 . S
C235 N237 1.379 . S
N236 N233 1.398 . S
N236 C235 1.299 . S
N237 C234 1.367 . S
N237 C235 1.379 . S
C238 N240 1.298 . S
C238 N242 1.367 . S
C238 C246 1.481 . S
C239 N241 1.299 . S
C239 N242 1.379 . S
N240 Zn224 2.036 . S
N240 C238 1.298 . S
N240 N241 1.398 . S
N241 C239 1.299 . S
N241 N240 1.398 . S
N242 C238 1.367 . S
N242 C239 1.379 . S
H243 C246 0.980 . S
H244 C246 0.981 . S
H245 C246 0.981 . S
C246 C238 1.481 . S
C246 H243 0.980 . S
C246 H244 0.981 . S
C246 H245 0.981 . S
C247 C234 1.481 . S
C247 H248 0.980 . S
C247 H249 0.981 . S
C247 H250 0.981 1_556 S
H248 C247 0.980 . S
H249 C247 0.981 . S
H250 C247 0.981 1_554 S
O251 Zn227 2.066 . S
O251 C230 1.256 1_556 S
O252 Zn224 2.053 . S
O252 C230 1.244 1_556 S
C253 O231 1.259 . S
C253 O232 1.254 . S
O254 Zn224 2.066 . S
O254 C226 1.256 . S
O255 C226 1.244 . S
O255 Zn227 2.053 . S
Zn256 O257 2.055 . S
Zn256 O264 2.046 . S
Zn256 N272 2.036 . S
Zn256 O284 2.053 . S
Zn256 O286 2.066 . S
O257 Zn256 2.055 . S
O257 C260 1.259 . S
C258 O286 1.256 . S
C258 O287 1.244 . S
Zn259 O261 2.046 . S
Zn259 O263 2.055 . S
Zn259 N265 2.036 . S
Zn259 O283 2.066 . S
Zn259 O287 2.053 . S
C260 O257 1.259 . S
C260 O261 1.254 . S
O261 Zn259 2.046 . S
O261 C260 1.254 . S
C262 O283 1.256 . S
C262 O284 1.244 . S
O263 Zn259 2.055 . S
O263 C285 1.259 . S
O264 Zn256 2.046 . S
O264 C285 1.254 . S
N265 Zn259 2.036 . S
N265 C266 1.298 . S
N265 N268 1.398 . S
C266 N265 1.298 . S
C266 N269 1.367 . S
C266 C279 1.481 . S
C267 N268 1.299 . S
C267 N269 1.379 . S
N268 N265 1.398 . S
N268 C267 1.299 . S
N269 C266 1.367 . S
N269 C267 1.379 . S
C270 N272 1.298 . S
C270 N274 1.367 . S
C270 C278 1.481 . S
C271 N273 1.299 . S
C271 N274 1.379 . S
N272 Zn256 2.036 . S
N272 C270 1.298 . S
N272 N273 1.398 . S
N273 C271 1.299 . S
N273 N272 1.398 . S
N274 C270 1.367 . S
N274 C271 1.379 . S
H275 C278 0.980 . S
H276 C278 0.981 . S
H277 C278 0.981 . S
C278 C270 1.481 . S
C278 H275 0.980 . S
C278 H276 0.981 . S
C278 H277 0.981 . S
C279 C266 1.481 . S
C279 H280 0.980 . S
C279 H281 0.981 . S
C279 H282 0.981 . S
H280 C279 0.980 . S
H281 C279 0.981 . S
H282 C279 0.981 . S
O283 Zn259 2.066 . S
O283 C262 1.256 . S
O284 Zn256 2.053 . S
O284 C262 1.244 . S
C285 O263 1.259 . S
C285 O264 1.254 . S
O286 Zn256 2.066 . S
O286 C258 1.256 . S
O287 C258 1.244 . S
O287 Zn259 2.053 . S
Zn288 O289 2.055 . S
Zn288 O296 2.046 . S
Zn288 N304 2.036 . S
Zn288 O316 2.053 . S
Zn288 O318 2.066 . S
O289 Zn288 2.055 . S
O289 C292 1.259 . S
C290 O318 1.256 . S
C290 O319 1.244 . S
Zn291 O293 2.046 . S
Zn291 O295 2.055 . S
Zn291 N297 2.036 . S
Zn291 O315 2.066 . S
Zn291 O319 2.053 . S
C292 O289 1.259 . S
C292 O293 1.254 . S
O293 Zn291 2.046 . S
O293 C292 1.254 . S
C294 O315 1.256 . S
C294 O316 1.244 . S
O295 Zn291 2.055 . S
O295 C317 1.259 . S
O296 Zn288 2.046 . S
O296 C317 1.254 . S
N297 Zn291 2.036 . S
N297 C298 1.298 . S
N297 N300 1.398 . S
C298 N297 1.298 . S
C298 N301 1.367 . S
C298 C311 1.481 . S
C299 N300 1.299 . S
C299 N301 1.379 . S
N300 N297 1.398 . S
N300 C299 1.299 . S
N301 C298 1.367 . S
N301 C299 1.379 . S
C302 N304 1.298 . S
C302 N306 1.367 . S
C302 C310 1.481 . S
C303 N305 1.299 . S
C303 N306 1.379 . S
N304 Zn288 2.036 . S
N304 C302 1.298 . S
N304 N305 1.398 . S
N305 C303 1.299 . S
N305 N304 1.398 . S
N306 C302 1.367 . S
N306 C303 1.379 . S
H307 C310 0.980 . S
H308 C310 0.981 . S
H309 C310 0.981 . S
C310 C302 1.481 . S
C310 H307 0.980 . S
C310 H308 0.981 . S
C310 H309 0.981 . S
C311 C298 1.481 . S
C311 H312 0.980 . S
C311 H313 0.981 . S
C311 H314 0.981 . S
H312 C311 0.980 . S
H313 C311 0.981 . S
H314 C311 0.981 . S
O315 Zn291 2.066 . S
O315 C294 1.256 . S
O316 Zn288 2.053 . S
O316 C294 1.244 . S
C317 O295 1.259 . S
C317 O296 1.254 . S
O318 Zn288 2.066 . S
O318 C290 1.256 . S
O319 C290 1.244 . S
O319 Zn291 2.053 . S
Zn320 O321 2.055 . S
Zn320 O328 2.046 . S
Zn320 N336 2.036 . S
Zn320 O348 2.053 . S
Zn320 O350 2.066 . S
O321 Zn320 2.055 . S
O321 C324 1.259 . S
C322 O350 1.256 . S
C322 O351 1.244 . S
Zn323 O325 2.046 . S
Zn323 O327 2.055 . S
Zn323 N329 2.036 . S
Zn323 O347 2.066 . S
Zn323 O351 2.053 . S
C324 O321 1.259 . S
C324 O325 1.254 . S
O325 Zn323 2.046 . S
O325 C324 1.254 . S
C326 O347 1.256 . S
C326 O348 1.244 . S
O327 Zn323 2.055 . S
O327 C349 1.259 . S
O328 Zn320 2.046 . S
O328 C349 1.254 . S
N329 Zn323 2.036 . S
N329 C330 1.298 . S
N329 N332 1.398 . S
C330 N329 1.298 . S
C330 N333 1.367 . S
C330 C343 1.481 . S
C331 N332 1.299 . S
C331 N333 1.379 . S
N332 N329 1.398 . S
N332 C331 1.299 . S
N333 C330 1.367 . S
N333 C331 1.379 . S
C334 N336 1.298 . S
C334 N338 1.367 . S
C334 C342 1.481 . S
C335 N337 1.299 . S
C335 N338 1.379 . S
N336 Zn320 2.036 . S
N336 C334 1.298 . S
N336 N337 1.398 . S
N337 C335 1.299 . S
N337 N336 1.398 . S
N338 C334 1.367 . S
N338 C335 1.379 . S
H339 C342 0.980 . S
H340 C342 0.981 . S
H341 C342 0.981 . S
C342 C334 1.481 . S
C342 H339 0.980 . S
C342 H340 0.981 . S
C342 H341 0.981 . S
C343 C330 1.481 . S
C343 H344 0.980 . S
C343 H345 0.981 . S
C343 H346 0.981 . S
H344 C343 0.980 . S
H345 C343 0.981 . S
H346 C343 0.981 . S
O347 Zn323 2.066 . S
O347 C326 1.256 . S
O348 Zn320 2.053 . S
O348 C326 1.244 . S
C349 O327 1.259 . S
C349 O328 1.254 . S
O350 Zn320 2.066 . S
O350 C322 1.256 . S
O351 C322 1.244 . S
O351 Zn323 2.053 . S
Zn352 O353 2.055 . S
Zn352 O360 2.046 . S
Zn352 N368 2.036 . S
Zn352 O380 2.053 . S
Zn352 O382 2.066 . S
O353 Zn352 2.055 . S
O353 C356 1.259 . S
C354 O382 1.256 . S
C354 O383 1.244 . S
Zn355 O357 2.046 . S
Zn355 O359 2.055 . S
Zn355 N361 2.036 . S
Zn355 O379 2.066 . S
Zn355 O383 2.053 . S
C356 O353 1.259 . S
C356 O357 1.254 . S
O357 Zn355 2.046 . S
O357 C356 1.254 . S
C358 O379 1.256 . S
C358 O380 1.244 . S
O359 Zn355 2.055 . S
O359 C381 1.259 . S
O360 Zn352 2.046 . S
O360 C381 1.254 . S
N361 Zn355 2.036 . S
N361 C362 1.298 . S
N361 N364 1.398 . S
C362 N361 1.298 . S
C362 N365 1.367 . S
C362 C375 1.481 . S
C363 N364 1.299 . S
C363 N365 1.379 . S
N364 N361 1.398 . S
N364 C363 1.299 . S
N365 C362 1.367 . S
N365 C363 1.379 . S
C366 N368 1.298 . S
C366 N370 1.367 . S
C366 C374 1.481 . S
C367 N369 1.299 . S
C367 N370 1.379 . S
N368 Zn352 2.036 . S
N368 C366 1.298 . S
N368 N369 1.398 . S
N369 C367 1.299 . S
N369 N368 1.398 . S
N370 C366 1.367 . S
N370 C367 1.379 . S
H371 C374 0.980 . S
H372 C374 0.981 . S
H373 C374 0.981 . S
C374 C366 1.481 . S
C374 H371 0.980 . S
C374 H372 0.981 . S
C374 H373 0.981 . S
C375 C362 1.481 . S
C375 H376 0.980 . S
C375 H377 0.981 . S
C375 H378 0.981 . S
H376 C375 0.980 . S
H377 C375 0.981 . S
H378 C375 0.981 . S
O379 Zn355 2.066 . S
O379 C358 1.256 . S
O380 Zn352 2.053 . S
O380 C358 1.244 . S
C381 O359 1.259 . S
C381 O360 1.254 . S
O382 Zn352 2.066 . S
O382 C354 1.256 . S
O383 C354 1.244 . S
O383 Zn355 2.053 . S
Zn384 O385 2.055 . S
Zn384 O392 2.046 . S
Zn384 N400 2.036 . S
Zn384 O412 2.053 . S
Zn384 O414 2.066 . S
O385 Zn384 2.055 . S
O385 C388 1.259 . S
C386 O414 1.256 . S
C386 O415 1.244 . S
Zn387 O389 2.046 . S
Zn387 O391 2.055 . S
Zn387 N393 2.036 . S
Zn387 O411 2.066 . S
Zn387 O415 2.053 . S
C388 O385 1.259 . S
C388 O389 1.254 . S
O389 Zn387 2.046 . S
O389 C388 1.254 . S
C390 O411 1.256 . S
C390 O412 1.244 . S
O391 Zn387 2.055 . S
O391 C413 1.259 . S
O392 Zn384 2.046 . S
O392 C413 1.254 . S
N393 Zn387 2.036 . S
N393 C394 1.298 . S
N393 N396 1.398 . S
C394 N393 1.298 . S
C394 N397 1.367 . S
C394 C407 1.481 . S
C395 N396 1.299 . S
C395 N397 1.379 . S
N396 N393 1.398 . S
N396 C395 1.299 . S
N397 C394 1.367 . S
N397 C395 1.379 . S
C398 N400 1.298 . S
C398 N402 1.367 . S
C398 C406 1.481 . S
C399 N401 1.299 . S
C399 N402 1.379 . S
N400 Zn384 2.036 . S
N400 C398 1.298 . S
N400 N401 1.398 . S
N401 C399 1.299 . S
N401 N400 1.398 . S
N402 C398 1.367 . S
N402 C399 1.379 . S
H403 C406 0.980 . S
H404 C406 0.981 . S
H405 C406 0.981 . S
C406 C398 1.481 . S
C406 H403 0.980 . S
C406 H404 0.981 . S
C406 H405 0.981 . S
C407 C394 1.481 . S
C407 H408 0.980 . S
C407 H409 0.981 . S
C407 H410 0.981 . S
H408 C407 0.980 . S
H409 C407 0.981 . S
H410 C407 0.981 . S
O411 Zn387 2.066 . S
O411 C390 1.256 . S
O412 Zn384 2.053 . S
O412 C390 1.244 . S
C413 O391 1.259 . S
C413 O392 1.254 . S
O414 Zn384 2.066 . S
O414 C386 1.256 . S
O415 C386 1.244 . S
O415 Zn387 2.053 . S
Zn416 O417 2.055 . S
Zn416 O424 2.046 . S
Zn416 N432 2.036 . S
Zn416 O444 2.053 . S
Zn416 O446 2.066 . S
O417 Zn416 2.055 . S
O417 C420 1.259 . S
C418 O446 1.256 . S
C418 O447 1.244 . S
Zn419 O421 2.046 . S
Zn419 O423 2.055 . S
Zn419 N425 2.036 . S
Zn419 O443 2.066 . S
Zn419 O447 2.053 . S
C420 O417 1.259 . S
C420 O421 1.254 . S
O421 Zn419 2.046 . S
O421 C420 1.254 . S
C422 O443 1.256 . S
C422 O444 1.244 . S
O423 Zn419 2.055 . S
O423 C445 1.259 . S
O424 Zn416 2.046 . S
O424 C445 1.254 . S
N425 Zn419 2.036 . S
N425 C426 1.298 . S
N425 N428 1.398 . S
C426 N425 1.298 . S
C426 N429 1.367 . S
C426 C439 1.481 . S
C427 N428 1.299 . S
C427 N429 1.379 . S
N428 N425 1.398 . S
N428 C427 1.299 . S
N429 C426 1.367 . S
N429 C427 1.379 . S
C430 N432 1.298 . S
C430 N434 1.367 . S
C430 C438 1.481 . S
C431 N433 1.299 . S
C431 N434 1.379 . S
N432 Zn416 2.036 . S
N432 C430 1.298 . S
N432 N433 1.398 . S
N433 C431 1.299 . S
N433 N432 1.398 . S
N434 C430 1.367 . S
N434 C431 1.379 . S
H435 C438 0.980 . S
H436 C438 0.981 . S
H437 C438 0.981 . S
C438 C430 1.481 . S
C438 H435 0.980 . S
C438 H436 0.981 . S
C438 H437 0.981 . S
C439 C426 1.481 . S
C439 H440 0.980 . S
C439 H441 0.981 . S
C439 H442 0.981 . S
H440 C439 0.980 . S
H441 C439 0.981 . S
H442 C439 0.981 . S
O443 Zn419 2.066 . S
O443 C422 1.256 . S
O444 Zn416 2.053 . S
O444 C422 1.244 . S
C445 O423 1.259 . S
C445 O424 1.254 . S
O446 Zn416 2.066 . S
O446 C418 1.256 . S
O447 C418 1.244 . S
O447 Zn419 2.053 . S
Zn448 O449 2.055 . S
Zn448 O456 2.046 . S
Zn448 N464 2.036 . S
Zn448 O476 2.053 . S
Zn448 O478 2.066 . S
O449 Zn448 2.055 . S
O449 C452 1.259 . S
C450 O478 1.256 . S
C450 O479 1.244 . S
Zn451 O453 2.046 . S
Zn451 O455 2.055 . S
Zn451 N457 2.036 . S
Zn451 O475 2.066 . S
Zn451 O479 2.053 . S
C452 O449 1.259 . S
C452 O453 1.254 . S
O453 Zn451 2.046 . S
O453 C452 1.254 . S
C454 O475 1.256 . S
C454 O476 1.244 . S
O455 Zn451 2.055 . S
O455 C477 1.259 . S
O456 Zn448 2.046 . S
O456 C477 1.254 . S
N457 Zn451 2.036 . S
N457 C458 1.298 . S
N457 N460 1.398 . S
C458 N457 1.298 . S
C458 N461 1.367 . S
C458 C471 1.481 . S
C459 N460 1.299 . S
C459 N461 1.379 . S
N460 N457 1.398 . S
N460 C459 1.299 . S
N461 C458 1.367 . S
N461 C459 1.379 . S
C462 N464 1.298 . S
C462 N466 1.367 . S
C462 C470 1.481 . S
C463 N465 1.299 . S
C463 N466 1.379 . S
N464 Zn448 2.036 . S
N464 C462 1.298 . S
N464 N465 1.398 . S
N465 C463 1.299 . S
N465 N464 1.398 . S
N466 C462 1.367 . S
N466 C463 1.379 . S
H467 C470 0.980 . S
H468 C470 0.981 . S
H469 C470 0.981 . S
C470 C462 1.481 . S
C470 H467 0.980 . S
C470 H468 0.981 . S
C470 H469 0.981 . S
C471 C458 1.481 . S
C471 H472 0.980 . S
C471 H473 0.981 . S
C471 H474 0.981 . S
H472 C471 0.980 . S
H473 C471 0.981 . S
H474 C471 0.981 . S
O475 Zn451 2.066 . S
O475 C454 1.256 . S
O476 Zn448 2.053 . S
O476 C454 1.244 . S
C477 O455 1.259 . S
C477 O456 1.254 . S
O478 Zn448 2.066 . S
O478 C450 1.256 . S
O479 C450 1.244 . S
O479 Zn451 2.053 . S
Zn480 O481 2.055 . S
Zn480 O488 2.046 . S
Zn480 N496 2.036 . S
Zn480 O508 2.053 . S
Zn480 O510 2.066 . S
O481 Zn480 2.055 . S
O481 C484 1.259 . S
C482 O510 1.256 . S
C482 O511 1.244 . S
Zn483 O485 2.046 . S
Zn483 O487 2.055 . S
Zn483 N489 2.036 . S
Zn483 O507 2.066 . S
Zn483 O511 2.053 . S
C484 O481 1.259 . S
C484 O485 1.254 . S
O485 Zn483 2.046 . S
O485 C484 1.254 . S
C486 O507 1.256 . S
C486 O508 1.244 . S
O487 Zn483 2.055 . S
O487 C509 1.259 . S
O488 Zn480 2.046 . S
O488 C509 1.254 . S
N489 Zn483 2.036 . S
N489 C490 1.298 . S
N489 N492 1.398 . S
C490 N489 1.298 . S
C490 N493 1.367 . S
C490 C503 1.481 . S
C491 N492 1.299 . S
C491 N493 1.379 . S
N492 N489 1.398 . S
N492 C491 1.299 . S
N493 C490 1.367 . S
N493 C491 1.379 . S
C494 N496 1.298 . S
C494 N498 1.367 . S
C494 C502 1.481 . S
C495 N497 1.299 . S
C495 N498 1.379 . S
N496 Zn480 2.036 . S
N496 C494 1.298 . S
N496 N497 1.398 . S
N497 C495 1.299 . S
N497 N496 1.398 . S
N498 C494 1.367 . S
N498 C495 1.379 . S
H499 C502 0.980 . S
H500 C502 0.981 . S
H501 C502 0.981 . S
C502 C494 1.481 . S
C502 H499 0.980 . S
C502 H500 0.981 . S
C502 H501 0.981 . S
C503 C490 1.481 . S
C503 H504 0.980 . S
C503 H505 0.981 . S
C503 H506 0.981 . S
H504 C503 0.980 . S
H505 C503 0.981 . S
H506 C503 0.981 . S
O507 Zn483 2.066 . S
O507 C486 1.256 . S
O508 Zn480 2.053 . S
O508 C486 1.244 . S
C509 O487 1.259 . S
C509 O488 1.254 . S
O510 Zn480 2.066 . S
O510 C482 1.256 . S
O511 C482 1.244 . S
O511 Zn483 2.053 . S
H512 C520 0.929 . S
H513 C522 0.930 . S
H514 C524 0.930 . S
H515 C527 0.929 . S
H516 C530 0.930 . S
H517 C532 0.960 . S
H518 C532 0.960 . S
H519 C532 0.960 . S
C520 H512 0.929 . S
C520 C521 1.377 . S
C520 C522 1.384 . S
C521 C520 1.377 . S
C521 C527 1.390 . S
C522 H513 0.930 . S
C522 C520 1.384 . S
C522 C523 1.372 . S
C523 C522 1.372 . S
C523 C524 1.400 . S
C523 C528 1.490 . S
C524 H514 0.930 . S
C524 C523 1.400 . S
C524 C527 1.386 . S
H525 C541 0.930 . S
H526 C542 0.931 1_565 S
C527 H515 0.929 . S
C527 C521 1.390 . S
C527 C524 1.386 . S
C528 C523 1.490 . S
C528 C530 1.395 . S
C528 C531 1.403 . S
H529 C535 0.930 . S
C530 H516 0.930 . S
C530 C528 1.395 . S
C530 C533 1.403 . S
C531 C528 1.403 . S
C531 C532 1.524 . S
C531 C535 1.400 . S
C532 H517 0.960 . S
C532 H518 0.960 . S
C532 H519 0.960 . S
C532 C531 1.524 . S
C533 C530 1.403 . S
C533 C534 1.392 . S
C533 C537 1.495 . S
C534 C533 1.392 . S
C534 C535 1.385 . S
C534 C536 1.478 . S
C535 H529 0.930 . S
C535 C531 1.400 . S
C535 C534 1.385 . S
C536 C534 1.478 . S
C536 C538 1.381 1_565 S
C536 C542 1.383 1_565 S
C537 C533 1.495 . S
C537 H543 0.959 . S
C537 H544 0.961 . S
C537 H545 0.960 . S
C538 C536 1.381 1_545 S
C538 C539 1.394 . S
C538 H546 0.930 . S
C539 C538 1.394 . S
C539 C540 1.383 . S
C539 H547 0.929 . S
C540 C539 1.383 . S
C540 C541 1.377 . S
C541 H525 0.930 . S
C541 C540 1.377 . S
C541 C542 1.379 . S
C542 H526 0.931 1_545 S
C542 C536 1.383 1_545 S
C542 C541 1.379 . S
H543 C537 0.959 . S
H544 C537 0.961 . S
H545 C537 0.960 . S
H546 C538 0.930 . S
H547 C539 0.929 . S
H548 C556 0.929 . S
H549 C558 0.930 . S
H550 C560 0.930 . S
H551 C563 0.929 . S
H552 C566 0.930 . S
H553 C568 0.960 . S
H554 C568 0.960 . S
H555 C568 0.960 . S
C556 H548 0.929 . S
C556 C557 1.377 . S
C556 C558 1.384 . S
C557 C556 1.377 . S
C557 C563 1.390 . S
C558 H549 0.930 . S
C558 C556 1.384 . S
C558 C559 1.372 . S
C559 C558 1.372 . S
C559 C560 1.400 . S
C559 C564 1.490 . S
C560 H550 0.930 . S
C560 C559 1.400 . S
C560 C563 1.386 . S
H561 C577 0.930 . S
H562 C578 0.931 . S
C563 H551 0.929 . S
C563 C557 1.390 . S
C563 C560 1.386 . S
C564 C559 1.490 . S
C564 C566 1.395 . S
C564 C567 1.403 . S
H565 C571 0.930 . S
C566 H552 0.930 . S
C566 C564 1.395 . S
C566 C569 1.403 . S
C567 C564 1.403 . S
C567 C568 1.524 . S
C567 C571 1.400 . S
C568 H553 0.960 . S
C568 H554 0.960 . S
C568 H555 0.960 . S
C568 C567 1.524 . S
C569 C566 1.403 . S
C569 C570 1.392 . S
C569 C573 1.495 . S
C570 C569 1.392 . S
C570 C571 1.385 . S
C570 C572 1.478 . S
C571 H565 0.930 . S
C571 C567 1.400 . S
C571 C570 1.385 . S
C572 C570 1.478 . S
C572 C574 1.381 1_655 S
C572 C578 1.383 1_655 S
C573 C569 1.495 . S
C573 H579 0.959 . S
C573 H580 0.961 . S
C573 H581 0.960 . S
C574 C572 1.381 1_455 S
C574 C575 1.394 . S
C574 H582 0.930 1_455 S
C575 C574 1.394 . S
C575 C576 1.383 . S
C575 H583 0.929 . S
C576 C575 1.383 . S
C576 C577 1.377 . S
C577 H561 0.930 . S
C577 C576 1.377 . S
C577 C578 1.379 . S
C578 H562 0.931 . S
C578 C572 1.383 1_455 S
C578 C577 1.379 . S
H579 C573 0.959 . S
H580 C573 0.961 . S
H581 C573 0.960 . S
H582 C574 0.930 1_655 S
H583 C575 0.929 . S
H584 C592 0.929 . S
H585 C594 0.930 1_545 S
H586 C596 0.930 . S
H587 C599 0.929 . S
H588 C602 0.930 . S
H589 C604 0.960 . S
H590 C604 0.960 . S
H591 C604 0.960 . S
C592 H584 0.929 . S
C592 C593 1.377 . S
C592 C594 1.384 . S
C593 C592 1.377 . S
C593 C599 1.390 . S
C594 H585 0.930 1_565 S
C594 C592 1.384 . S
C594 C595 1.372 1_565 S
C595 C594 1.372 1_545 S
C595 C596 1.400 1_545 S
C595 C600 1.490 . S
C596 H586 0.930 . S
C596 C595 1.400 1_565 S
C596 C599 1.386 . S
H597 C613 0.930 . S
H598 C614 0.931 . S
C599 H587 0.929 . S
C599 C593 1.390 . S
C599 C596 1.386 . S
C600 C595 1.490 . S
C600 C602 1.395 . S
C600 C603 1.403 . S
H601 C607 0.930 . S
C602 H588 0.930 . S
C602 C600 1.395 . S
C602 C605 1.403 . S
C603 C600 1.403 . S
C603 C604 1.524 . S
C603 C607 1.400 . S
C604 H589 0.960 . S
C604 H590 0.960 . S
C604 H591 0.960 . S
C604 C603 1.524 . S
C605 C602 1.403 . S
C605 C606 1.392 . S
C605 C609 1.495 . S
C606 C605 1.392 . S
C606 C607 1.385 . S
C606 C608 1.478 . S
C607 H601 0.930 . S
C607 C603 1.400 . S
C607 C606 1.385 . S
C608 C606 1.478 . S
C608 C610 1.381 . S
C608 C614 1.383 . S
C609 C605 1.495 . S
C609 H615 0.959 . S
C609 H616 0.961 . S
C609 H617 0.960 . S
C610 C608 1.381 . S
C610 C611 1.394 . S
C610 H618 0.930 . S
C611 C610 1.394 . S
C611 C612 1.383 . S
C611 H619 0.929 . S
C612 C611 1.383 . S
C612 C613 1.377 . S
C613 H597 0.930 . S
C613 C612 1.377 . S
C613 C614 1.379 . S
C614 H598 0.931 . S
C614 C608 1.383 . S
C614 C613 1.379 . S
H615 C609 0.959 . S
H616 C609 0.961 . S
H617 C609 0.960 . S
H618 C610 0.930 . S
H619 C611 0.929 . S
H620 C628 0.929 . S
H621 C630 0.930 . S
H622 C632 0.930 1_455 S
H623 C635 0.929 . S
H624 C638 0.930 . S
H625 C640 0.960 . S
H626 C640 0.960 . S
H627 C640 0.960 . S
C628 H620 0.929 . S
C628 C629 1.377 . S
C628 C630 1.384 . S
C629 C628 1.377 . S
C629 C635 1.390 . S
C630 H621 0.930 . S
C630 C628 1.384 . S
C630 C631 1.372 1_655 S
C631 C630 1.372 1_455 S
C631 C632 1.400 1_455 S
C631 C636 1.490 . S
C632 H622 0.930 1_655 S
C632 C631 1.400 1_655 S
C632 C635 1.386 . S
H633 C649 0.930 . S
H634 C650 0.931 . S
C635 H623 0.929 . S
C635 C629 1.390 . S
C635 C632 1.386 . S
C636 C631 1.490 . S
C636 C638 1.395 . S
C636 C639 1.403 . S
H637 C643 0.930 . S
C638 H624 0.930 . S
C638 C636 1.395 . S
C638 C641 1.403 . S
C639 C636 1.403 . S
C639 C640 1.524 . S
C639 C643 1.400 . S
C640 H625 0.960 . S
C640 H626 0.960 . S
C640 H627 0.960 . S
C640 C639 1.524 . S
C641 C638 1.403 . S
C641 C642 1.392 . S
C641 C645 1.495 . S
C642 C641 1.392 . S
C642 C643 1.385 . S
C642 C644 1.478 . S
C643 H637 0.930 . S
C643 C639 1.400 . S
C643 C642 1.385 . S
C644 C642 1.478 . S
C644 C646 1.381 . S
C644 C650 1.383 . S
C645 C641 1.495 . S
C645 H651 0.959 . S
C645 H652 0.961 . S
C645 H653 0.960 . S
C646 C644 1.381 . S
C646 C647 1.394 . S
C646 H654 0.930 . S
C647 C646 1.394 . S
C647 C648 1.383 . S
C647 H655 0.929 . S
C648 C647 1.383 . S
C648 C649 1.377 . S
C649 H633 0.930 . S
C649 C648 1.377 . S
C649 C650 1.379 . S
C650 H634 0.931 . S
C650 C644 1.383 . S
C650 C649 1.379 . S
H651 C645 0.959 . S
H652 C645 0.961 . S
H653 C645 0.960 . S
H654 C646 0.930 . S
H655 C647 0.929 . S
H656 C664 0.931 . S
H657 C666 0.930 . S
H658 C668 0.930 . S
H659 C671 0.929 . S
H660 C674 0.930 . S
H661 C676 0.960 . S
H662 C676 0.960 . S
H663 C676 0.960 1_554 S
C664 H656 0.931 . S
C664 C665 1.376 1_556 S
C664 C666 1.384 . S
C665 C664 1.376 1_554 S
C665 C671 1.390 . S
C666 H657 0.930 . S
C666 C664 1.384 . S
C666 C667 1.372 1_556 S
C667 C666 1.372 1_554 S
C667 C668 1.400 . S
C667 C672 1.490 . S
C668 H658 0.930 . S
C668 C667 1.400 . S
C668 C671 1.386 . S
H669 C685 0.930 1_554 S
H670 C686 0.931 . S
C671 H659 0.929 . S
C671 C665 1.390 . S
C671 C668 1.386 . S
C672 C667 1.490 . S
C672 C674 1.395 . S
C672 C675 1.403 1_554 S
H673 C679 0.930 . S
C674 H660 0.930 . S
C674 C672 1.395 . S
C674 C677 1.403 . S
C675 C672 1.403 1_556 S
C675 C676 1.524 . S
C675 C679 1.400 . S
C676 H661 0.960 . S
C676 H662 0.960 . S
C676 H663 0.960 1_556 S
C676 C675 1.524 . S
C677 C674 1.403 . S
C677 C678 1.392 1_554 S
C677 C681 1.495 . S
C678 C677 1.392 1_556 S
C678 C679 1.385 . S
C678 C680 1.478 . S
C679 H673 0.930 . S
C679 C675 1.400 . S
C679 C678 1.385 . S
C680 C678 1.478 . S
C680 C682 1.381 . S
C680 C686 1.383 1_556 S
C681 C677 1.495 . S
C681 H687 0.959 . S
C681 H688 0.961 . S
C681 H689 0.960 1_554 S
C682 C680 1.381 . S
C682 C683 1.394 . S
C682 H690 0.930 . S
C683 C682 1.394 . S
C683 C684 1.383 . S
C683 H691 0.929 . S
C684 C683 1.383 . S
C684 C685 1.377 . S
C685 H669 0.930 1_556 S
C685 C684 1.377 . S
C685 C686 1.379 1_556 S
C686 H670 0.931 . S
C686 C680 1.383 1_554 S
C686 C685 1.379 1_554 S
H687 C681 0.959 . S
H688 C681 0.961 . S
H689 C681 0.960 1_556 S
H690 C682 0.930 . S
H691 C683 0.929 . S
H692 C700 0.929 . S
H693 C702 0.930 1_556 S
H694 C704 0.930 . S
H695 C707 0.929 . S
H696 C710 0.930 . S
H697 C712 0.960 . S
H698 C712 0.960 . S
H699 C712 0.960 . S
C700 H692 0.929 . S
C700 C701 1.377 . S
C700 C702 1.384 . S
C701 C700 1.377 . S
C701 C707 1.390 . S
C702 H693 0.930 1_554 S
C702 C700 1.384 . S
C702 C703 1.372 . S
C703 C702 1.372 . S
C703 C704 1.400 . S
C703 C708 1.490 . S
C704 H694 0.930 . S
C704 C703 1.400 . S
C704 C707 1.386 . S
H705 C721 0.930 . S
H706 C722 0.931 . S
C707 H695 0.929 . S
C707 C701 1.390 . S
C707 C704 1.386 . S
C708 C703 1.490 . S
C708 C710 1.395 1_554 S
C708 C711 1.403 . S
H709 C715 0.930 . S
C710 H696 0.930 . S
C710 C708 1.395 1_556 S
C710 C713 1.403 . S
C711 C708 1.403 . S
C711 C712 1.524 . S
C711 C715 1.400 . S
C712 H697 0.960 . S
C712 H698 0.960 . S
C712 H699 0.960 . S
C712 C711 1.524 . S
C713 C710 1.403 . S
C713 C714 1.392 . S
C713 C717 1.495 . S
C714 C713 1.392 . S
C714 C715 1.385 1_556 S
C714 C716 1.478 . S
C715 H709 0.930 . S
C715 C711 1.400 . S
C715 C714 1.385 1_554 S
C716 C714 1.478 . S
C716 C718 1.381 . S
C716 C722 1.383 . S
C717 C713 1.495 . S
C717 H723 0.959 . S
C717 H724 0.961 . S
C717 H725 0.960 . S
C718 C716 1.381 . S
C718 C719 1.394 . S
C718 H726 0.930 . S
C719 C718 1.394 . S
C719 C720 1.383 . S
C719 H727 0.929 . S
C720 C719 1.383 . S
C720 C721 1.377 . S
C721 H705 0.930 . S
C721 C720 1.377 . S
C721 C722 1.379 . S
C722 H706 0.931 . S
C722 C716 1.383 . S
C722 C721 1.379 . S
H723 C717 0.959 . S
H724 C717 0.961 . S
H725 C717 0.960 . S
H726 C718 0.930 . S
H727 C719 0.929 . S
H728 C736 0.929 . S
H729 C738 0.930 . S
H730 C740 0.930 . S
H731 C743 0.929 . S
H732 C746 0.930 . S
H733 C748 0.960 . S
H734 C748 0.960 1_554 S
H735 C748 0.960 . S
C736 H728 0.929 . S
C736 C737 1.377 . S
C736 C738 1.384 . S
C737 C736 1.377 . S
C737 C743 1.390 1_554 S
C738 H729 0.930 . S
C738 C736 1.384 . S
C738 C739 1.372 . S
C739 C738 1.372 . S
C739 C740 1.400 1_554 S
C739 C744 1.490 . S
C740 H730 0.930 . S
C740 C739 1.400 1_556 S
C740 C743 1.386 . S
H741 C757 0.930 . S
H742 C758 0.931 . S
C743 H731 0.929 . S
C743 C737 1.390 1_556 S
C743 C740 1.386 . S
C744 C739 1.490 . S
C744 C746 1.395 . S
C744 C747 1.403 1_554 S
H745 C751 0.930 . S
C746 H732 0.930 . S
C746 C744 1.395 . S
C746 C749 1.403 . S
C747 C744 1.403 1_556 S
C747 C748 1.524 . S
C747 C751 1.400 . S
C748 H733 0.960 . S
C748 H734 0.960 1_556 S
C748 H735 0.960 . S
C748 C747 1.524 . S
C749 C746 1.403 . S
C749 C750 1.392 1_554 S
C749 C753 1.495 . S
C750 C749 1.392 1_556 S
C750 C751 1.385 . S
C750 C752 1.478 . S
C751 H745 0.930 . S
C751 C747 1.400 . S
C751 C750 1.385 . S
C752 C750 1.478 . S
C752 C754 1.381 1_556 S
C752 C758 1.383 . S
C753 C749 1.495 . S
C753 H759 0.959 . S
C753 H760 0.961 1_554 S
C753 H761 0.960 . S
C754 C752 1.381 1_554 S
C754 C755 1.394 . S
C754 H762 0.930 . S
C755 C754 1.394 . S
C755 C756 1.383 1_554 S
C755 H763 0.929 . S
C756 C755 1.383 1_556 S
C756 C757 1.377 . S
C757 H741 0.930 . S
C757 C756 1.377 . S
C757 C758 1.379 . S
C758 H742 0.931 . S
C758 C752 1.383 . S
C758 C757 1.379 . S
H759 C753 0.959 . S
H760 C753 0.961 1_556 S
H761 C753 0.960 . S
H762 C754 0.930 . S
H763 C755 0.929 . S
H764 C772 0.929 . S
H765 C774 0.930 . S
H766 C776 0.930 . S
H767 C779 0.929 . S
H768 C782 0.930 . S
H769 C784 0.960 . S
H770 C784 0.960 . S
H771 C784 0.960 . S
C772 H764 0.929 . S
C772 C773 1.377 . S
C772 C774 1.384 . S
C773 C772 1.377 . S
C773 C779 1.390 . S
C774 H765 0.930 . S
C774 C772 1.384 . S
C774 C775 1.372 . S
C775 C774 1.372 . S
C775 C776 1.400 . S
C775 C780 1.490 . S
C776 H766 0.930 . S
C776 C775 1.400 . S
C776 C779 1.386 . S
H777 C793 0.930 . S
H778 C794 0.931 . S
C779 H767 0.929 . S
C779 C773 1.390 . S
C779 C776 1.386 . S
C780 C775 1.490 . S
C780 C782 1.395 1_554 S
C780 C783 1.403 . S
H781 C787 0.930 . S
C782 H768 0.930 . S
C782 C780 1.395 1_556 S
C782 C785 1.403 . S
C783 C780 1.403 . S
C783 C784 1.524 . S
C783 C787 1.400 . S
C784 H769 0.960 . S
C784 H770 0.960 . S
C784 H771 0.960 . S
C784 C783 1.524 . S
C785 C782 1.403 . S
C785 C786 1.392 . S
C785 C789 1.495 . S
C786 C785 1.392 . S
C786 C787 1.385 1_556 S
C786 C788 1.478 . S
C787 H781 0.930 . S
C787 C783 1.400 . S
C787 C786 1.385 1_554 S
C788 C786 1.478 . S
C788 C790 1.381 . S
C788 C794 1.383 . S
C789 C785 1.495 . S
C789 H795 0.959 . S
C789 H796 0.961 . S
C789 H797 0.960 . S
C790 C788 1.381 . S
C790 C791 1.394 . S
C790 H798 0.930 . S
C791 C790 1.394 . S
C791 C792 1.383 . S
C791 H799 0.929 . S
C792 C791 1.383 . S
C792 C793 1.377 . S
C793 H777 0.930 . S
C793 C792 1.377 . S
C793 C794 1.379 . S
C794 H778 0.931 . S
C794 C788 1.383 . S
C794 C793 1.379 . S
H795 C789 0.959 . S
H796 C789 0.961 . S
H797 C789 0.960 . S
H798 C790 0.930 . S
H799 C791 0.929 . S
H800 C808 0.929 . S
H801 C810 0.930 . S
H802 C812 0.930 . S
H803 C815 0.929 . S
H804 C818 0.930 . S
H805 C820 0.960 . S
H806 C820 0.960 . S
H807 C820 0.960 . S
C808 H800 0.929 . S
C808 C809 1.377 . S
C808 C810 1.384 . S
C809 C808 1.377 . S
C809 C815 1.390 . S
C810 H801 0.930 . S
C810 C808 1.384 . S
C810 C811 1.372 . S
C811 C810 1.372 . S
C811 C812 1.400 . S
C811 C816 1.490 . S
C812 H802 0.930 . S
C812 C811 1.400 . S
C812 C815 1.386 . S
H813 C829 0.930 . S
H814 C830 0.931 . S
C815 H803 0.929 . S
C815 C809 1.390 . S
C815 C812 1.386 . S
C816 C811 1.490 . S
C816 C818 1.395 . S
C816 C819 1.403 . S
H817 C823 0.930 . S
C818 H804 0.930 . S
C818 C816 1.395 . S
C818 C821 1.403 . S
C819 C816 1.403 . S
C819 C820 1.524 . S
C819 C823 1.400 . S
C820 H805 0.960 . S
C820 H806 0.960 . S
C820 H807 0.960 . S
C820 C819 1.524 . S
C821 C818 1.403 . S
C821 C822 1.392 . S
C821 C825 1.495 . S
C822 C821 1.392 . S
C822 C823 1.385 . S
C822 C824 1.478 . S
C823 H817 0.930 . S
C823 C819 1.400 . S
C823 C822 1.385 . S
C824 C822 1.478 . S
C824 C826 1.381 . S
C824 C830 1.383 . S
C825 C821 1.495 . S
C825 H831 0.959 . S
C825 H832 0.961 . S
C825 H833 0.960 . S
C826 C824 1.381 . S
C826 C827 1.394 . S
C826 H834 0.930 . S
C827 C826 1.394 . S
C827 C828 1.383 . S
C827 H835 0.929 . S
C828 C827 1.383 . S
C828 C829 1.377 . S
C829 H813 0.930 . S
C829 C828 1.377 . S
C829 C830 1.379 . S
C830 H814 0.931 . S
C830 C824 1.383 . S
C830 C829 1.379 . S
H831 C825 0.959 . S
H832 C825 0.961 . S
H833 C825 0.960 . S
H834 C826 0.930 . S
H835 C827 0.929 . S
H836 C844 0.929 . S
H837 C846 0.930 . S
H838 C848 0.930 . S
H839 C851 0.929 . S
H840 C854 0.930 . S
H841 C856 0.960 . S
H842 C856 0.960 . S
H843 C856 0.960 . S
C844 H836 0.929 . S
C844 C845 1.377 . S
C844 C846 1.384 . S
C845 C844 1.377 . S
C845 C851 1.390 . S
C846 H837 0.930 . S
C846 C844 1.384 . S
C846 C847 1.372 . S
C847 C846 1.372 . S
C847 C848 1.400 . S
C847 C852 1.490 . S
C848 H838 0.930 . S
C848 C847 1.400 . S
C848 C851 1.386 . S
H849 C865 0.930 . S
H850 C866 0.931 . S
C851 H839 0.929 . S
C851 C845 1.390 . S
C851 C848 1.386 . S
C852 C847 1.490 . S
C852 C854 1.395 . S
C852 C855 1.403 . S
H853 C859 0.930 . S
C854 H840 0.930 . S
C854 C852 1.395 . S
C854 C857 1.403 . S
C855 C852 1.403 . S
C855 C856 1.524 . S
C855 C859 1.400 . S
C856 H841 0.960 . S
C856 H842 0.960 . S
C856 H843 0.960 . S
C856 C855 1.524 . S
C857 C854 1.403 . S
C857 C858 1.392 . S
C857 C861 1.495 . S
C858 C857 1.392 . S
C858 C859 1.385 . S
C858 C860 1.478 . S
C859 H853 0.930 . S
C859 C855 1.400 . S
C859 C858 1.385 . S
C860 C858 1.478 . S
C860 C862 1.381 . S
C860 C866 1.383 . S
C861 C857 1.495 . S
C861 H867 0.959 . S
C861 H868 0.961 . S
C861 H869 0.960 . S
C862 C860 1.381 . S
C862 C863 1.394 . S
C862 H870 0.930 . S
C863 C862 1.394 . S
C863 C864 1.383 . S
C863 H871 0.929 . S
C864 C863 1.383 . S
C864 C865 1.377 . S
C865 H849 0.930 . S
C865 C864 1.377 . S
C865 C866 1.379 . S
C866 H850 0.931 . S
C866 C860 1.383 . S
C866 C865 1.379 . S
H867 C861 0.959 . S
H868 C861 0.961 . S
H869 C861 0.960 . S
H870 C862 0.930 . S
H871 C863 0.929 . S
H872 C880 0.929 . S
H873 C882 0.930 . S
H874 C884 0.930 . S
H875 C887 0.929 . S
H876 C890 0.930 . S
H877 C892 0.960 . S
H878 C892 0.960 . S
H879 C892 0.960 . S
C880 H872 0.929 . S
C880 C881 1.377 . S
C880 C882 1.384 . S
C881 C880 1.377 . S
C881 C887 1.390 . S
C882 H873 0.930 . S
C882 C880 1.384 . S
C882 C883 1.372 . S
C883 C882 1.372 . S
C883 C884 1.400 . S
C883 C888 1.490 . S
C884 H874 0.930 . S
C884 C883 1.400 . S
C884 C887 1.386 . S
H885 C901 0.930 . S
H886 C902 0.931 . S
C887 H875 0.929 . S
C887 C881 1.390 . S
C887 C884 1.386 . S
C888 C883 1.490 . S
C888 C890 1.395 . S
C888 C891 1.403 . S
H889 C895 0.930 . S
C890 H876 0.930 . S
C890 C888 1.395 . S
C890 C893 1.403 . S
C891 C888 1.403 . S
C891 C892 1.524 . S
C891 C895 1.400 . S
C892 H877 0.960 . S
C892 H878 0.960 . S
C892 H879 0.960 . S
C892 C891 1.524 . S
C893 C890 1.403 . S
C893 C894 1.392 . S
C893 C897 1.495 . S
C894 C893 1.392 . S
C894 C895 1.385 . S
C894 C896 1.478 . S
C895 H889 0.930 . S
C895 C891 1.400 . S
C895 C894 1.385 . S
C896 C894 1.478 . S
C896 C898 1.381 . S
C896 C902 1.383 . S
C897 C893 1.495 . S
C897 H903 0.959 . S
C897 H904 0.961 . S
C897 H905 0.960 . S
C898 C896 1.381 . S
C898 C899 1.394 . S
C898 H906 0.930 . S
C899 C898 1.394 . S
C899 C900 1.383 . S
C899 H907 0.929 . S
C900 C899 1.383 . S
C900 C901 1.377 . S
C901 H885 0.930 . S
C901 C900 1.377 . S
C901 C902 1.379 . S
C902 H886 0.931 . S
C902 C896 1.383 . S
C902 C901 1.379 . S
H903 C897 0.959 . S
H904 C897 0.961 . S
H905 C897 0.960 . S
H906 C898 0.930 . S
H907 C899 0.929 . S
H908 C916 0.929 . S
H909 C918 0.930 . S
H910 C920 0.930 . S
H911 C923 0.929 . S
H912 C926 0.930 . S
H913 C928 0.960 . S
H914 C928 0.960 . S
H915 C928 0.960 . S
C916 H908 0.929 . S
C916 C917 1.377 . S
C916 C918 1.384 . S
C917 C916 1.377 . S
C917 C923 1.390 . S
C918 H909 0.930 . S
C918 C916 1.384 . S
C918 C919 1.372 . S
C919 C918 1.372 . S
C919 C920 1.400 . S
C919 C924 1.490 . S
C920 H910 0.930 . S
C920 C919 1.400 . S
C920 C923 1.386 . S
H921 C937 0.930 . S
H922 C938 0.931 . S
C923 H911 0.929 . S
C923 C917 1.390 . S
C923 C920 1.386 . S
C924 C919 1.490 . S
C924 C926 1.395 . S
C924 C927 1.403 . S
H925 C931 0.930 . S
C926 H912 0.930 . S
C926 C924 1.395 . S
C926 C929 1.403 . S
C927 C924 1.403 . S
C927 C928 1.524 . S
C927 C931 1.400 . S
C928 H913 0.960 . S
C928 H914 0.960 . S
C928 H915 0.960 . S
C928 C927 1.524 . S
C929 C926 1.403 . S
C929 C930 1.392 . S
C929 C933 1.495 . S
C930 C929 1.392 . S
C930 C931 1.385 . S
C930 C932 1.478 . S
C931 H925 0.930 . S
C931 C927 1.400 . S
C931 C930 1.385 . S
C932 C930 1.478 . S
C932 C934 1.381 . S
C932 C938 1.383 . S
C933 C929 1.495 . S
C933 H939 0.959 . S
C933 H940 0.961 . S
C933 H941 0.960 . S
C934 C932 1.381 . S
C934 C935 1.394 . S
C934 H942 0.930 . S
C935 C934 1.394 . S
C935 C936 1.383 . S
C935 H943 0.929 . S
C936 C935 1.383 . S
C936 C937 1.377 . S
C937 H921 0.930 . S
C937 C936 1.377 . S
C937 C938 1.379 . S
C938 H922 0.931 . S
C938 C932 1.383 . S
C938 C937 1.379 . S
H939 C933 0.959 . S
H940 C933 0.961 . S
H941 C933 0.960 . S
H942 C934 0.930 . S
H943 C935 0.929 . S
H944 C952 0.929 . S
H945 C954 0.930 . S
H946 C956 0.930 1_545 S
H947 C959 0.929 . S
H948 C962 0.930 . S
H949 C964 0.960 . S
H950 C964 0.960 . S
H951 C964 0.960 . S
C952 H944 0.929 . S
C952 C953 1.377 . S
C952 C954 1.384 . S
C953 C952 1.377 . S
C953 C959 1.390 . S
C954 H945 0.930 . S
C954 C952 1.384 . S
C954 C955 1.372 1_565 S
C955 C954 1.372 1_545 S
C955 C956 1.400 1_545 S
C955 C960 1.490 . S
C956 H946 0.930 1_565 S
C956 C955 1.400 1_565 S
C956 C959 1.386 . S
H957 C973 0.930 . S
H958 C974 0.931 . S
C959 H947 0.929 . S
C959 C953 1.390 . S
C959 C956 1.386 . S
C960 C955 1.490 . S
C960 C962 1.395 . S
C960 C963 1.403 . S
H961 C967 0.930 . S
C962 H948 0.930 . S
C962 C960 1.395 . S
C962 C965 1.403 . S
C963 C960 1.403 . S
C963 C964 1.524 . S
C963 C967 1.400 . S
C964 H949 0.960 . S
C964 H950 0.960 . S
C964 H951 0.960 . S
C964 C963 1.524 . S
C965 C962 1.403 . S
C965 C966 1.392 . S
C965 C969 1.495 . S
C966 C965 1.392 . S
C966 C967 1.385 . S
C966 C968 1.478 . S
C967 H961 0.930 . S
C967 C963 1.400 . S
C967 C966 1.385 . S
C968 C966 1.478 . S
C968 C970 1.381 . S
C968 C974 1.383 . S
C969 C965 1.495 . S
C969 H975 0.959 . S
C969 H976 0.961 . S
C969 H977 0.960 . S
C970 C968 1.381 . S
C970 C971 1.394 . S
C970 H978 0.930 . S
C971 C970 1.394 . S
C971 C972 1.383 . S
C971 H979 0.929 . S
C972 C971 1.383 . S
C972 C973 1.377 . S
C973 H957 0.930 . S
C973 C972 1.377 . S
C973 C974 1.379 . S
C974 H958 0.931 . S
C974 C968 1.383 . S
C974 C973 1.379 . S
H975 C969 0.959 . S
H976 C969 0.961 . S
H977 C969 0.960 . S
H978 C970 0.930 . S
H979 C971 0.929 . S
H980 C988 0.929 . S
H981 C990 0.930 . S
H982 C992 0.930 . S
H983 C995 0.929 . S
H984 C998 0.930 . S
H985 C1000 0.960 . S
H986 C1000 0.960 . S
H987 C1000 0.960 . S
C988 H980 0.929 . S
C988 C989 1.377 . S
C988 C990 1.384 . S
C989 C988 1.377 . S
C989 C995 1.390 . S
C990 H981 0.930 . S
C990 C988 1.384 . S
C990 C991 1.372 . S
C991 C990 1.372 . S
C991 C992 1.400 . S
C991 C996 1.490 . S
C992 H982 0.930 . S
C992 C991 1.400 . S
C992 C995 1.386 . S
H993 C1009 0.930 . S
H994 C1010 0.931 . S
C995 H983 0.929 . S
C995 C989 1.390 . S
C995 C992 1.386 . S
C996 C991 1.490 . S
C996 C998 1.395 . S
C996 C999 1.403 . S
H997 C1003 0.930 . S
C998 H984 0.930 . S
C998 C996 1.395 . S
C998 C1001 1.403 . S
C999 C996 1.403 . S
C999 C1000 1.524 . S
C999 C1003 1.400 . S
C1000 H985 0.960 . S
C1000 H986 0.960 . S
C1000 H987 0.960 . S
C1000 C999 1.524 . S
C1001 C998 1.403 . S
C1001 C1002 1.392 . S
C1001 C1005 1.495 . S
C1002 C1001 1.392 . S
C1002 C1003 1.385 . S
C1002 C1004 1.478 . S
C1003 H997 0.930 . S
C1003 C999 1.400 . S
C1003 C1002 1.385 . S
C1004 C1002 1.478 . S
C1004 C1006 1.381 1_455 S
C1004 C1010 1.383 1_455 S
C1005 C1001 1.495 . S
C1005 H1011 0.959 . S
C1005 H1012 0.961 . S
C1005 H1013 0.960 . S
C1006 C1004 1.381 1_655 S
C1006 C1007 1.394 . S
C1006 H1014 0.930 1_655 S
C1007 C1006 1.394 . S
C1007 C1008 1.383 . S
C1007 H1015 0.929 . S
C1008 C1007 1.383 . S
C1008 C1009 1.377 . S
C1009 H993 0.930 . S
C1009 C1008 1.377 . S
C1009 C1010 1.379 . S
C1010 H994 0.931 . S
C1010 C1004 1.383 1_655 S
C1010 C1009 1.379 . S
H1011 C1005 0.959 . S
H1012 C1005 0.961 . S
H1013 C1005 0.960 . S
H1014 C1006 0.930 1_455 S
H1015 C1007 0.929 . S
H1016 C1024 0.929 . S
H1017 C1026 0.930 . S
H1018 C1028 0.930 . S
H1019 C1031 0.929 . S
H1020 C1034 0.930 . S
H1021 C1036 0.960 . S
H1022 C1036 0.960 . S
H1023 C1036 0.960 . S
C1024 H1016 0.929 . S
C1024 C1025 1.377 . S
C1024 C1026 1.384 . S
C1025 C1024 1.377 . S
C1025 C1031 1.390 . S
C1026 H1017 0.930 . S
C1026 C1024 1.384 . S
C1026 C1027 1.372 . S
C1027 C1026 1.372 . S
C1027 C1028 1.400 . S
C1027 C1032 1.490 . S
C1028 H1018 0.930 . S
C1028 C1027 1.400 . S
C1028 C1031 1.386 . S
H1029 C1045 0.930 . S
H1030 C1046 0.931 . S
C1031 H1019 0.929 . S
C1031 C1025 1.390 . S
C1031 C1028 1.386 . S
C1032 C1027 1.490 . S
C1032 C1034 1.395 . S
C1032 C1035 1.403 . S
H1033 C1039 0.930 . S
C1034 H1020 0.930 . S
C1034 C1032 1.395 . S
C1034 C1037 1.403 . S
C1035 C1032 1.403 . S
C1035 C1036 1.524 . S
C1035 C1039 1.400 . S
C1036 H1021 0.960 . S
C1036 H1022 0.960 . S
C1036 H1023 0.960 . S
C1036 C1035 1.524 . S
C1037 C1034 1.403 . S
C1037 C1038 1.392 . S
C1037 C1041 1.495 . S
C1038 C1037 1.392 . S
C1038 C1039 1.385 . S
C1038 C1040 1.478 . S
C1039 H1033 0.930 . S
C1039 C1035 1.400 . S
C1039 C1038 1.385 . S
C1040 C1038 1.478 . S
C1040 C1042 1.381 1_565 S
C1040 C1046 1.383 1_565 S
C1041 C1037 1.495 . S
C1041 H1047 0.959 . S
C1041 H1048 0.961 . S
C1041 H1049 0.960 . S
C1042 C1040 1.381 1_545 S
C1042 C1043 1.394 . S
C1042 H1050 0.930 1_545 S
C1043 C1042 1.394 . S
C1043 C1044 1.383 . S
C1043 H1051 0.929 . S
C1044 C1043 1.383 . S
C1044 C1045 1.377 . S
C1045 H1029 0.930 . S
C1045 C1044 1.377 . S
C1045 C1046 1.379 . S
C1046 H1030 0.931 . S
C1046 C1040 1.383 1_545 S
C1046 C1045 1.379 . S
H1047 C1041 0.959 . S
H1048 C1041 0.961 . S
H1049 C1041 0.960 . S
H1050 C1042 0.930 1_565 S
H1051 C1043 0.929 . S
H1052 C1060 0.929 . S
H1053 C1062 0.930 1_655 S
H1054 C1064 0.930 . S
H1055 C1067 0.929 . S
H1056 C1070 0.930 . S
H1057 C1072 0.960 . S
H1058 C1072 0.960 . S
H1059 C1072 0.960 . S
C1060 H1052 0.929 . S
C1060 C1061 1.377 . S
C1060 C1062 1.384 . S
C1061 C1060 1.377 . S
C1061 C1067 1.390 . S
C1062 H1053 0.930 1_455 S
C1062 C1060 1.384 . S
C1062 C1063 1.372 1_455 S
C1063 C1062 1.372 1_655 S
C1063 C1064 1.400 1_655 S
C1063 C1068 1.490 . S
C1064 H1054 0.930 . S
C1064 C1063 1.400 1_455 S
C1064 C1067 1.386 . S
H1065 C1081 0.930 . S
H1066 C1082 0.931 . S
C1067 H1055 0.929 . S
C1067 C1061 1.390 . S
C1067 C1064 1.386 . S
C1068 C1063 1.490 . S
C1068 C1070 1.395 . S
C1068 C1071 1.403 . S
H1069 C1075 0.930 . S
C1070 H1056 0.930 . S
C1070 C1068 1.395 . S
C1070 C1073 1.403 . S
C1071 C1068 1.403 . S
C1071 C1072 1.524 . S
C1071 C1075 1.400 . S
C1072 H1057 0.960 . S
C1072 H1058 0.960 . S
C1072 H1059 0.960 . S
C1072 C1071 1.524 . S
C1073 C1070 1.403 . S
C1073 C1074 1.392 . S
C1073 C1077 1.495 . S
C1074 C1073 1.392 . S
C1074 C1075 1.385 . S
C1074 C1076 1.478 . S
C1075 H1069 0.930 . S
C1075 C1071 1.400 . S
C1075 C1074 1.385 . S
C1076 C1074 1.478 . S
C1076 C1078 1.381 . S
C1076 C1082 1.383 . S
C1077 C1073 1.495 . S
C1077 H1083 0.959 . S
C1077 H1084 0.961 . S
C1077 H1085 0.960 . S
C1078 C1076 1.381 . S
C1078 C1079 1.394 . S
C1078 H1086 0.930 . S
C1079 C1078 1.394 . S
C1079 C1080 1.383 . S
C1079 H1087 0.929 . S
C1080 C1079 1.383 . S
C1080 C1081 1.377 . S
C1081 H1065 0.930 . S
C1081 C1080 1.377 . S
C1081 C1082 1.379 . S
C1082 H1066 0.931 . S
C1082 C1076 1.383 . S
C1082 C1081 1.379 . S
H1083 C1077 0.959 . S
H1084 C1077 0.961 . S
H1085 C1077 0.960 . S
H1086 C1078 0.930 . S
H1087 C1079 0.929 . S
H1088 C1096 0.929 . S
H1089 C1098 0.930 . S
H1090 C1100 0.930 . S
H1091 C1103 0.929 . S
H1092 C1106 0.930 . S
H1093 C1108 0.960 . S
H1094 C1108 0.960 1_556 S
H1095 C1108 0.960 . S
C1096 H1088 0.929 . S
C1096 C1097 1.377 . S
C1096 C1098 1.384 . S
C1097 C1096 1.377 . S
C1097 C1103 1.390 . S
C1098 H1089 0.930 . S
C1098 C1096 1.384 . S
C1098 C1099 1.372 . S
C1099 C1098 1.372 . S
C1099 C1100 1.400 . S
C1099 C1104 1.490 . S
C1100 H1090 0.930 . S
C1100 C1099 1.400 . S
C1100 C1103 1.386 . S
H1101 C1117 0.930 . S
H1102 C1118 0.931 . S
C1103 H1091 0.929 . S
C1103 C1097 1.390 . S
C1103 C1100 1.386 . S
C1104 C1099 1.490 . S
C1104 C1106 1.395 . S
C1104 C1107 1.403 . S
H1105 C1111 0.930 . S
C1106 H1092 0.930 . S
C1106 C1104 1.395 . S
C1106 C1109 1.403 . S
C1107 C1104 1.403 . S
C1107 C1108 1.524 . S
C1107 C1111 1.400 . S
C1108 H1093 0.960 . S
C1108 H1094 0.960 1_554 S
C1108 H1095 0.960 . S
C1108 C1107 1.524 . S
C1109 C1106 1.403 . S
C1109 C1110 1.392 . S
C1109 C1113 1.495 . S
C1110 C1109 1.392 . S
C1110 C1111 1.385 . S
C1110 C1112 1.478 . S
C1111 H1105 0.930 . S
C1111 C1107 1.400 . S
C1111 C1110 1.385 . S
C1112 C1110 1.478 . S
C1112 C1114 1.381 . S
C1112 C1118 1.383 . S
C1113 C1109 1.495 . S
C1113 H1119 0.959 . S
C1113 H1120 0.961 . S
C1113 H1121 0.960 . S
C1114 C1112 1.381 . S
C1114 C1115 1.394 . S
C1114 H1122 0.930 . S
C1115 C1114 1.394 . S
C1115 C1116 1.383 . S
C1115 H1123 0.929 . S
C1116 C1115 1.383 . S
C1116 C1117 1.377 . S
C1117 H1101 0.930 . S
C1117 C1116 1.377 . S
C1117 C1118 1.379 . S
C1118 H1102 0.931 . S
C1118 C1112 1.383 . S
C1118 C1117 1.379 . S
H1119 C1113 0.959 . S
H1120 C1113 0.961 . S
H1121 C1113 0.960 . S
H1122 C1114 0.930 . S
H1123 C1115 0.929 . S
H1124 C1132 0.929 . S
H1125 C1134 0.930 . S
H1126 C1136 0.930 . S
H1127 C1139 0.929 . S
H1128 C1142 0.930 . S
H1129 C1144 0.960 . S
H1130 C1144 0.960 . S
H1131 C1144 0.960 . S
C1132 H1124 0.929 . S
C1132 C1133 1.377 . S
C1132 C1134 1.384 . S
C1133 C1132 1.377 . S
C1133 C1139 1.390 . S
C1134 H1125 0.930 . S
C1134 C1132 1.384 . S
C1134 C1135 1.372 . S
C1135 C1134 1.372 . S
C1135 C1136 1.400 . S
C1135 C1140 1.490 . S
C1136 H1126 0.930 . S
C1136 C1135 1.400 . S
C1136 C1139 1.386 . S
H1137 C1153 0.930 . S
H1138 C1154 0.931 . S
C1139 H1127 0.929 . S
C1139 C1133 1.390 . S
C1139 C1136 1.386 . S
C1140 C1135 1.490 . S
C1140 C1142 1.395 . S
C1140 C1143 1.403 . S
H1141 C1147 0.930 . S
C1142 H1128 0.930 . S
C1142 C1140 1.395 . S
C1142 C1145 1.403 . S
C1143 C1140 1.403 . S
C1143 C1144 1.524 1_556 S
C1143 C1147 1.400 . S
C1144 H1129 0.960 . S
C1144 H1130 0.960 . S
C1144 H1131 0.960 . S
C1144 C1143 1.524 1_554 S
C1145 C1142 1.403 . S
C1145 C1146 1.392 . S
C1145 C1149 1.495 . S
C1146 C1145 1.392 . S
C1146 C1147 1.385 . S
C1146 C1148 1.478 . S
C1147 H1141 0.930 . S
C1147 C1143 1.400 . S
C1147 C1146 1.385 . S
C1148 C1146 1.478 . S
C1148 C1150 1.381 . S
C1148 C1154 1.383 . S
C1149 C1145 1.495 . S
C1149 H1155 0.959 . S
C1149 H1156 0.961 . S
C1149 H1157 0.960 . S
C1150 C1148 1.381 . S
C1150 C1151 1.394 . S
C1150 H1158 0.930 . S
C1151 C1150 1.394 . S
C1151 C1152 1.383 . S
C1151 H1159 0.929 . S
C1152 C1151 1.383 . S
C1152 C1153 1.377 . S
C1153 H1137 0.930 . S
C1153 C1152 1.377 . S
C1153 C1154 1.379 . S
C1154 H1138 0.931 . S
C1154 C1148 1.383 . S
C1154 C1153 1.379 . S
H1155 C1149 0.959 . S
H1156 C1149 0.961 . S
H1157 C1149 0.960 . S
H1158 C1150 0.930 . S
H1159 C1151 0.929 . S
H1160 C1168 0.929 . S
H1161 C1170 0.930 . S
H1162 C1172 0.930 . S
H1163 C1175 0.929 1_556 S
H1164 C1178 0.930 . S
H1165 C1180 0.960 . S
H1166 C1180 0.960 . S
H1167 C1180 0.960 1_556 S
C1168 H1160 0.929 . S
C1168 C1169 1.377 . S
C1168 C1170 1.384 . S
C1169 C1168 1.377 . S
C1169 C1175 1.390 . S
C1170 H1161 0.930 . S
C1170 C1168 1.384 . S
C1170 C1171 1.372 . S
C1171 C1170 1.372 . S
C1171 C1172 1.400 . S
C1171 C1176 1.490 . S
C1172 H1162 0.930 . S
C1172 C1171 1.400 . S
C1172 C1175 1.386 . S
H1173 C1189 0.930 . S
H1174 C1190 0.931 . S
C1175 H1163 0.929 1_554 S
C1175 C1169 1.390 . S
C1175 C1172 1.386 . S
C1176 C1171 1.490 . S
C1176 C1178 1.395 . S
C1176 C1179 1.403 . S
H1177 C1183 0.930 . S
C1178 H1164 0.930 . S
C1178 C1176 1.395 . S
C1178 C1181 1.403 . S
C1179 C1176 1.403 . S
C1179 C1180 1.524 . S
C1179 C1183 1.400 . S
C1180 H1165 0.960 . S
C1180 H1166 0.960 . S
C1180 H1167 0.960 1_554 S
C1180 C1179 1.524 . S
C1181 C1178 1.403 . S
C1181 C1182 1.392 . S
C1181 C1185 1.495 . S
C1182 C1181 1.392 . S
C1182 C1183 1.385 . S
C1182 C1184 1.478 . S
C1183 H1177 0.930 . S
C1183 C1179 1.400 . S
C1183 C1182 1.385 . S
C1184 C1182 1.478 . S
C1184 C1186 1.381 . S
C1184 C1190 1.383 . S
C1185 C1181 1.495 . S
C1185 H1191 0.959 . S
C1185 H1192 0.961 . S
C1185 H1193 0.960 . S
C1186 C1184 1.381 . S
C1186 C1187 1.394 . S
C1186 H1194 0.930 . S
C1187 C1186 1.394 . S
C1187 C1188 1.383 . S
C1187 H1195 0.929 . S
C1188 C1187 1.383 . S
C1188 C1189 1.377 . S
C1189 H1173 0.930 . S
C1189 C1188 1.377 . S
C1189 C1190 1.379 . S
C1190 H1174 0.931 . S
C1190 C1184 1.383 . S
C1190 C1189 1.379 . S
H1191 C1185 0.959 . S
H1192 C1185 0.961 . S
H1193 C1185 0.960 . S
H1194 C1186 0.930 . S
H1195 C1187 0.929 . S
H1196 C1204 0.929 . S
H1197 C1206 0.930 . S
H1198 C1208 0.930 . S
H1199 C1211 0.929 . S
H1200 C1214 0.930 . S
H1201 C1216 0.960 . S
H1202 C1216 0.960 1_554 S
H1203 C1216 0.960 . S
C1204 H1196 0.929 . S
C1204 C1205 1.377 . S
C1204 C1206 1.384 . S
C1205 C1204 1.377 . S
C1205 C1211 1.390 . S
C1206 H1197 0.930 . S
C1206 C1204 1.384 . S
C1206 C1207 1.372 . S
C1207 C1206 1.372 . S
C1207 C1208 1.400 . S
C1207 C1212 1.490 . S
C1208 H1198 0.930 . S
C1208 C1207 1.400 . S
C1208 C1211 1.386 . S
H1209 C1225 0.930 . S
H1210 C1226 0.931 . S
C1211 H1199 0.929 . S
C1211 C1205 1.390 . S
C1211 C1208 1.386 . S
C1212 C1207 1.490 . S
C1212 C1214 1.395 . S
C1212 C1215 1.403 . S
H1213 C1219 0.930 . S
C1214 H1200 0.930 . S
C1214 C1212 1.395 . S
C1214 C1217 1.403 . S
C1215 C1212 1.403 . S
C1215 C1216 1.524 . S
C1215 C1219 1.400 . S
C1216 H1201 0.960 . S
C1216 H1202 0.960 1_556 S
C1216 H1203 0.960 . S
C1216 C1215 1.524 . S
C1217 C1214 1.403 . S
C1217 C1218 1.392 . S
C1217 C1221 1.495 . S
C1218 C1217 1.392 . S
C1218 C1219 1.385 . S
C1218 C1220 1.478 . S
C1219 H1213 0.930 . S
C1219 C1215 1.400 . S
C1219 C1218 1.385 . S
C1220 C1218 1.478 . S
C1220 C1222 1.381 . S
C1220 C1226 1.383 . S
C1221 C1217 1.495 . S
C1221 H1227 0.959 . S
C1221 H1228 0.961 . S
C1221 H1229 0.960 . S
C1222 C1220 1.381 . S
C1222 C1223 1.394 . S
C1222 H1230 0.930 . S
C1223 C1222 1.394 . S
C1223 C1224 1.383 . S
C1223 H1231 0.929 . S
C1224 C1223 1.383 . S
C1224 C1225 1.377 . S
C1225 H1209 0.930 . S
C1225 C1224 1.377 . S
C1225 C1226 1.379 . S
C1226 H1210 0.931 . S
C1226 C1220 1.383 . S
C1226 C1225 1.379 . S
H1227 C1221 0.959 . S
H1228 C1221 0.961 . S
H1229 C1221 0.960 . S
H1230 C1222 0.930 . S
H1231 C1223 0.929 . S
H1232 C1240 0.929 . S
H1233 C1242 0.930 . S
H1234 C1244 0.930 . S
H1235 C1247 0.929 . S
H1236 C1250 0.930 . S
H1237 C1252 0.960 . S
H1238 C1252 0.960 . S
H1239 C1252 0.960 . S
C1240 H1232 0.929 . S
C1240 C1241 1.377 . S
C1240 C1242 1.384 . S
C1241 C1240 1.377 . S
C1241 C1247 1.390 . S
C1242 H1233 0.930 . S
C1242 C1240 1.384 . S
C1242 C1243 1.372 . S
C1243 C1242 1.372 . S
C1243 C1244 1.400 . S
C1243 C1248 1.490 . S
C1244 H1234 0.930 . S
C1244 C1243 1.400 . S
C1244 C1247 1.386 . S
H1245 C1261 0.930 . S
H1246 C1262 0.931 . S
C1247 H1235 0.929 . S
C1247 C1241 1.390 . S
C1247 C1244 1.386 . S
C1248 C1243 1.490 . S
C1248 C1250 1.395 . S
C1248 C1251 1.403 . S
H1249 C1255 0.930 . S
C1250 H1236 0.930 . S
C1250 C1248 1.395 . S
C1250 C1253 1.403 . S
C1251 C1248 1.403 . S
C1251 C1252 1.524 . S
C1251 C1255 1.400 . S
C1252 H1237 0.960 . S
C1252 H1238 0.960 . S
C1252 H1239 0.960 . S
C1252 C1251 1.524 . S
C1253 C1250 1.403 . S
C1253 C1254 1.392 . S
C1253 C1257 1.495 . S
C1254 C1253 1.392 . S
C1254 C1255 1.385 . S
C1254 C1256 1.478 . S
C1255 H1249 0.930 . S
C1255 C1251 1.400 . S
C1255 C1254 1.385 . S
C1256 C1254 1.478 . S
C1256 C1258 1.381 . S
C1256 C1262 1.383 . S
C1257 C1253 1.495 . S
C1257 H1263 0.959 . S
C1257 H1264 0.961 . S
C1257 H1265 0.960 . S
C1258 C1256 1.381 . S
C1258 C1259 1.394 . S
C1258 H1266 0.930 . S
C1259 C1258 1.394 . S
C1259 C1260 1.383 . S
C1259 H1267 0.929 . S
C1260 C1259 1.383 . S
C1260 C1261 1.377 . S
C1261 H1245 0.930 . S
C1261 C1260 1.377 . S
C1261 C1262 1.379 . S
C1262 H1246 0.931 . S
C1262 C1256 1.383 . S
C1262 C1261 1.379 . S
H1263 C1257 0.959 . S
H1264 C1257 0.961 . S
H1265 C1257 0.960 . S
H1266 C1258 0.930 . S
H1267 C1259 0.929 . S
H1268 C1276 0.929 . S
H1269 C1278 0.930 . S
H1270 C1280 0.930 . S
H1271 C1283 0.929 . S
H1272 C1286 0.930 . S
H1273 C1288 0.960 . S
H1274 C1288 0.960 . S
H1275 C1288 0.960 . S
C1276 H1268 0.929 . S
C1276 C1277 1.377 . S
C1276 C1278 1.384 . S
C1277 C1276 1.377 . S
C1277 C1283 1.390 . S
C1278 H1269 0.930 . S
C1278 C1276 1.384 . S
C1278 C1279 1.372 . S
C1279 C1278 1.372 . S
C1279 C1280 1.400 . S
C1279 C1284 1.490 . S
C1280 H1270 0.930 . S
C1280 C1279 1.400 . S
C1280 C1283 1.386 . S
H1281 C1297 0.930 . S
H1282 C1298 0.931 . S
C1283 H1271 0.929 . S
C1283 C1277 1.390 . S
C1283 C1280 1.386 . S
C1284 C1279 1.490 . S
C1284 C1286 1.395 . S
C1284 C1287 1.403 . S
H1285 C1291 0.930 . S
C1286 H1272 0.930 . S
C1286 C1284 1.395 . S
C1286 C1289 1.403 . S
C1287 C1284 1.403 . S
C1287 C1288 1.524 . S
C1287 C1291 1.400 . S
C1288 H1273 0.960 . S
C1288 H1274 0.960 . S
C1288 H1275 0.960 . S
C1288 C1287 1.524 . S
C1289 C1286 1.403 . S
C1289 C1290 1.392 . S
C1289 C1293 1.495 . S
C1290 C1289 1.392 . S
C1290 C1291 1.385 . S
C1290 C1292 1.478 . S
C1291 H1285 0.930 . S
C1291 C1287 1.400 . S
C1291 C1290 1.385 . S
C1292 C1290 1.478 . S
C1292 C1294 1.381 . S
C1292 C1298 1.383 . S
C1293 C1289 1.495 . S
C1293 H1299 0.959 . S
C1293 H1300 0.961 . S
C1293 H1301 0.960 . S
C1294 C1292 1.381 . S
C1294 C1295 1.394 . S
C1294 H1302 0.930 . S
C1295 C1294 1.394 . S
C1295 C1296 1.383 . S
C1295 H1303 0.929 . S
C1296 C1295 1.383 . S
C1296 C1297 1.377 . S
C1297 H1281 0.930 . S
C1297 C1296 1.377 . S
C1297 C1298 1.379 . S
C1298 H1282 0.931 . S
C1298 C1292 1.383 . S
C1298 C1297 1.379 . S
H1299 C1293 0.959 . S
H1300 C1293 0.961 . S
H1301 C1293 0.960 . S
H1302 C1294 0.930 . S
H1303 C1295 0.929 . S
H1304 C1312 0.929 . S
H1305 C1314 0.930 . S
H1306 C1316 0.930 . S
H1307 C1319 0.929 . S
H1308 C1322 0.930 . S
H1309 C1324 0.960 . S
H1310 C1324 0.960 . S
H1311 C1324 0.960 . S
C1312 H1304 0.929 . S
C1312 C1313 1.377 . S
C1312 C1314 1.384 . S
C1313 C1312 1.377 . S
C1313 C1319 1.390 . S
C1314 H1305 0.930 . S
C1314 C1312 1.384 . S
C1314 C1315 1.372 . S
C1315 C1314 1.372 . S
C1315 C1316 1.400 . S
C1315 C1320 1.490 . S
C1316 H1306 0.930 . S
C1316 C1315 1.400 . S
C1316 C1319 1.386 . S
H1317 C1333 0.930 . S
H1318 C1334 0.931 . S
C1319 H1307 0.929 . S
C1319 C1313 1.390 . S
C1319 C1316 1.386 . S
C1320 C1315 1.490 . S
C1320 C1322 1.395 . S
C1320 C1323 1.403 . S
H1321 C1327 0.930 . S
C1322 H1308 0.930 . S
C1322 C1320 1.395 . S
C1322 C1325 1.403 . S
C1323 C1320 1.403 . S
C1323 C1324 1.524 . S
C1323 C1327 1.400 . S
C1324 H1309 0.960 . S
C1324 H1310 0.960 . S
C1324 H1311 0.960 . S
C1324 C1323 1.524 . S
C1325 C1322 1.403 . S
C1325 C1326 1.392 . S
C1325 C1329 1.495 . S
C1326 C1325 1.392 . S
C1326 C1327 1.385 . S
C1326 C1328 1.478 . S
C1327 H1321 0.930 . S
C1327 C1323 1.400 . S
C1327 C1326 1.385 . S
C1328 C1326 1.478 . S
C1328 C1330 1.381 . S
C1328 C1334 1.383 . S
C1329 C1325 1.495 . S
C1329 H1335 0.959 . S
C1329 H1336 0.961 . S
C1329 H1337 0.960 . S
C1330 C1328 1.381 . S
C1330 C1331 1.394 . S
C1330 H1338 0.930 . S
C1331 C1330 1.394 . S
C1331 C1332 1.383 . S
C1331 H1339 0.929 . S
C1332 C1331 1.383 . S
C1332 C1333 1.377 . S
C1333 H1317 0.930 . S
C1333 C1332 1.377 . S
C1333 C1334 1.379 . S
C1334 H1318 0.931 . S
C1334 C1328 1.383 . S
C1334 C1333 1.379 . S
H1335 C1329 0.959 . S
H1336 C1329 0.961 . S
H1337 C1329 0.960 . S
H1338 C1330 0.930 . S
H1339 C1331 0.929 . S
H1340 C1348 0.929 . S
H1341 C1350 0.930 . S
H1342 C1352 0.930 . S
H1343 C1355 0.929 . S
H1344 C1358 0.930 . S
H1345 C1360 0.960 . S
H1346 C1360 0.960 . S
H1347 C1360 0.960 . S
C1348 H1340 0.929 . S
C1348 C1349 1.377 . S
C1348 C1350 1.384 . S
C1349 C1348 1.377 . S
C1349 C1355 1.390 . S
C1350 H1341 0.930 . S
C1350 C1348 1.384 . S
C1350 C1351 1.372 . S
C1351 C1350 1.372 . S
C1351 C1352 1.400 . S
C1351 C1356 1.490 . S
C1352 H1342 0.930 . S
C1352 C1351 1.400 . S
C1352 C1355 1.386 . S
H1353 C1369 0.930 . S
H1354 C1370 0.931 . S
C1355 H1343 0.929 . S
C1355 C1349 1.390 . S
C1355 C1352 1.386 . S
C1356 C1351 1.490 . S
C1356 C1358 1.395 . S
C1356 C1359 1.403 . S
H1357 C1363 0.930 . S
C1358 H1344 0.930 . S
C1358 C1356 1.395 . S
C1358 C1361 1.403 . S
C1359 C1356 1.403 . S
C1359 C1360 1.524 . S
C1359 C1363 1.400 . S
C1360 H1345 0.960 . S
C1360 H1346 0.960 . S
C1360 H1347 0.960 . S
C1360 C1359 1.524 . S
C1361 C1358 1.403 . S
C1361 C1362 1.392 . S
C1361 C1365 1.495 . S
C1362 C1361 1.392 . S
C1362 C1363 1.385 . S
C1362 C1364 1.478 . S
C1363 H1357 0.930 . S
C1363 C1359 1.400 . S
C1363 C1362 1.385 . S
C1364 C1362 1.478 . S
C1364 C1366 1.381 . S
C1364 C1370 1.383 . S
C1365 C1361 1.495 . S
C1365 H1371 0.959 . S
C1365 H1372 0.961 . S
C1365 H1373 0.960 . S
C1366 C1364 1.381 . S
C1366 C1367 1.394 . S
C1366 H1374 0.930 . S
C1367 C1366 1.394 . S
C1367 C1368 1.383 . S
C1367 H1375 0.929 . S
C1368 C1367 1.383 . S
C1368 C1369 1.377 . S
C1369 H1353 0.930 . S
C1369 C1368 1.377 . S
C1369 C1370 1.379 . S
C1370 H1354 0.931 . S
C1370 C1364 1.383 . S
C1370 C1369 1.379 . S
H1371 C1365 0.959 . S
H1372 C1365 0.961 . S
H1373 C1365 0.960 . S
H1374 C1366 0.930 . S
H1375 C1367 0.929 . S
H1376 C1384 0.929 . S
H1377 C1386 0.930 . S
H1378 C1388 0.930 . S
H1379 C1391 0.929 . S
H1380 C1394 0.930 . S
H1381 C1396 0.960 . S
H1382 C1396 0.960 . S
H1383 C1396 0.960 . S
C1384 H1376 0.929 . S
C1384 C1385 1.377 . S
C1384 C1386 1.384 . S
C1385 C1384 1.377 . S
C1385 C1391 1.390 . S
C1386 H1377 0.930 . S
C1386 C1384 1.384 . S
C1386 C1387 1.372 . S
C1387 C1386 1.372 . S
C1387 C1388 1.400 . S
C1387 C1392 1.490 . S
C1388 H1378 0.930 . S
C1388 C1387 1.400 . S
C1388 C1391 1.386 . S
H1389 C1405 0.930 . S
H1390 C1406 0.931 . S
C1391 H1379 0.929 . S
C1391 C1385 1.390 . S
C1391 C1388 1.386 . S
C1392 C1387 1.490 . S
C1392 C1394 1.395 . S
C1392 C1395 1.403 . S
H1393 C1399 0.930 . S
C1394 H1380 0.930 . S
C1394 C1392 1.395 . S
C1394 C1397 1.403 . S
C1395 C1392 1.403 . S
C1395 C1396 1.524 . S
C1395 C1399 1.400 . S
C1396 H1381 0.960 . S
C1396 H1382 0.960 . S
C1396 H1383 0.960 . S
C1396 C1395 1.524 . S
C1397 C1394 1.403 . S
C1397 C1398 1.392 . S
C1397 C1401 1.495 1_556 S
C1398 C1397 1.392 . S
C1398 C1399 1.385 . S
C1398 C1400 1.478 . S
C1399 H1393 0.930 . S
C1399 C1395 1.400 . S
C1399 C1398 1.385 . S
C1400 C1398 1.478 . S
C1400 C1402 1.381 1_556 S
C1400 C1406 1.383 . S
C1401 C1397 1.495 1_554 S
C1401 H1407 0.959 . S
C1401 H1408 0.961 . S
C1401 H1409 0.960 . S
C1402 C1400 1.381 1_554 S
C1402 C1403 1.394 . S
C1402 H1410 0.930 . S
C1403 C1402 1.394 . S
C1403 C1404 1.383 . S
C1403 H1411 0.929 . S
C1404 C1403 1.383 . S
C1404 C1405 1.377 1_554 S
C1405 H1389 0.930 . S
C1405 C1404 1.377 1_556 S
C1405 C1406 1.379 . S
C1406 H1390 0.931 . S
C1406 C1400 1.383 . S
C1406 C1405 1.379 . S
H1407 C1401 0.959 . S
H1408 C1401 0.961 . S
H1409 C1401 0.960 . S
H1410 C1402 0.930 . S
H1411 C1403 0.929 . S
H1412 C1420 0.929 . S
H1413 C1422 0.930 . S
H1414 C1424 0.930 . S
H1415 C1427 0.929 . S
H1416 C1430 0.930 . S
H1417 C1432 0.960 . S
H1418 C1432 0.960 . S
H1419 C1432 0.960 . S
C1420 H1412 0.929 . S
C1420 C1421 1.377 . S
C1420 C1422 1.384 . S
C1421 C1420 1.377 . S
C1421 C1427 1.390 1_556 S
C1422 H1413 0.930 . S
C1422 C1420 1.384 . S
C1422 C1423 1.372 1_556 S
C1423 C1422 1.372 1_554 S
C1423 C1424 1.400 . S
C1423 C1428 1.490 . S
C1424 H1414 0.930 . S
C1424 C1423 1.400 . S
C1424 C1427 1.386 . S
H1425 C1441 0.930 . S
H1426 C1442 0.931 . S
C1427 H1415 0.929 . S
C1427 C1421 1.390 1_554 S
C1427 C1424 1.386 . S
C1428 C1423 1.490 . S
C1428 C1430 1.395 . S
C1428 C1431 1.403 . S
H1429 C1435 0.930 . S
C1430 H1416 0.930 . S
C1430 C1428 1.395 . S
C1430 C1433 1.403 . S
C1431 C1428 1.403 . S
C1431 C1432 1.524 . S
C1431 C1435 1.400 . S
C1432 H1417 0.960 . S
C1432 H1418 0.960 . S
C1432 H1419 0.960 . S
C1432 C1431 1.524 . S
C1433 C1430 1.403 . S
C1433 C1434 1.392 . S
C1433 C1437 1.495 . S
C1434 C1433 1.392 . S
C1434 C1435 1.385 . S
C1434 C1436 1.478 . S
C1435 H1429 0.930 . S
C1435 C1431 1.400 . S
C1435 C1434 1.385 . S
C1436 C1434 1.478 . S
C1436 C1438 1.381 . S
C1436 C1442 1.383 . S
C1437 C1433 1.495 . S
C1437 H1443 0.959 . S
C1437 H1444 0.961 . S
C1437 H1445 0.960 . S
C1438 C1436 1.381 . S
C1438 C1439 1.394 . S
C1438 H1446 0.930 . S
C1439 C1438 1.394 . S
C1439 C1440 1.383 . S
C1439 H1447 0.929 . S
C1440 C1439 1.383 . S
C1440 C1441 1.377 . S
C1441 H1425 0.930 . S
C1441 C1440 1.377 . S
C1441 C1442 1.379 . S
C1442 H1426 0.931 . S
C1442 C1436 1.383 . S
C1442 C1441 1.379 . S
H1443 C1437 0.959 . S
H1444 C1437 0.961 . S
H1445 C1437 0.960 . S
H1446 C1438 0.930 . S
H1447 C1439 0.929 . S
H1448 C1456 0.929 . S
H1449 C1458 0.930 . S
H1450 C1460 0.930 . S
H1451 C1463 0.929 . S
H1452 C1466 0.930 1_554 S
H1453 C1468 0.960 . S
H1454 C1468 0.960 . S
H1455 C1468 0.960 . S
C1456 H1448 0.929 . S
C1456 C1457 1.377 . S
C1456 C1458 1.384 . S
C1457 C1456 1.377 . S
C1457 C1463 1.390 1_554 S
C1458 H1449 0.930 . S
C1458 C1456 1.384 . S
C1458 C1459 1.372 1_554 S
C1459 C1458 1.372 1_556 S
C1459 C1460 1.400 . S
C1459 C1464 1.490 . S
C1460 H1450 0.930 . S
C1460 C1459 1.400 . S
C1460 C1463 1.386 . S
H1461 C1477 0.930 . S
H1462 C1478 0.931 . S
C1463 H1451 0.929 . S
C1463 C1457 1.390 1_556 S
C1463 C1460 1.386 . S
C1464 C1459 1.490 . S
C1464 C1466 1.395 . S
C1464 C1467 1.403 . S
H1465 C1471 0.930 . S
C1466 H1452 0.930 1_556 S
C1466 C1464 1.395 . S
C1466 C1469 1.403 . S
C1467 C1464 1.403 . S
C1467 C1468 1.524 . S
C1467 C1471 1.400 . S
C1468 H1453 0.960 . S
C1468 H1454 0.960 . S
C1468 H1455 0.960 . S
C1468 C1467 1.524 . S
C1469 C1466 1.403 . S
C1469 C1470 1.392 . S
C1469 C1473 1.495 . S
C1470 C1469 1.392 . S
C1470 C1471 1.385 . S
C1470 C1472 1.478 . S
C1471 H1465 0.930 . S
C1471 C1467 1.400 . S
C1471 C1470 1.385 . S
C1472 C1470 1.478 . S
C1472 C1474 1.381 . S
C1472 C1478 1.383 . S
C1473 C1469 1.495 . S
C1473 H1479 0.959 1_556 S
C1473 H1480 0.961 . S
C1473 H1481 0.960 . S
C1474 C1472 1.381 . S
C1474 C1475 1.394 . S
C1474 H1482 0.930 . S
C1475 C1474 1.394 . S
C1475 C1476 1.383 . S
C1475 H1483 0.929 . S
C1476 C1475 1.383 . S
C1476 C1477 1.377 . S
C1477 H1461 0.930 . S
C1477 C1476 1.377 . S
C1477 C1478 1.379 . S
C1478 H1462 0.931 . S
C1478 C1472 1.383 . S
C1478 C1477 1.379 . S
H1479 C1473 0.959 1_554 S
H1480 C1473 0.961 . S
H1481 C1473 0.960 . S
H1482 C1474 0.930 . S
H1483 C1475 0.929 . S
H1484 C1492 0.929 . S
H1485 C1494 0.930 . S
H1486 C1496 0.930 . S
H1487 C1499 0.929 . S
H1488 C1502 0.930 1_556 S
H1489 C1504 0.960 . S
H1490 C1504 0.960 . S
H1491 C1504 0.960 . S
C1492 H1484 0.929 . S
C1492 C1493 1.377 . S
C1492 C1494 1.384 . S
C1493 C1492 1.377 . S
C1493 C1499 1.390 1_556 S
C1494 H1485 0.930 . S
C1494 C1492 1.384 . S
C1494 C1495 1.372 1_556 S
C1495 C1494 1.372 1_554 S
C1495 C1496 1.400 . S
C1495 C1500 1.490 . S
C1496 H1486 0.930 . S
C1496 C1495 1.400 . S
C1496 C1499 1.386 . S
H1497 C1513 0.930 . S
H1498 C1514 0.931 . S
C1499 H1487 0.929 . S
C1499 C1493 1.390 1_554 S
C1499 C1496 1.386 . S
C1500 C1495 1.490 . S
C1500 C1502 1.395 . S
C1500 C1503 1.403 . S
H1501 C1507 0.930 . S
C1502 H1488 0.930 1_554 S
C1502 C1500 1.395 . S
C1502 C1505 1.403 . S
C1503 C1500 1.403 . S
C1503 C1504 1.524 . S
C1503 C1507 1.400 . S
C1504 H1489 0.960 . S
C1504 H1490 0.960 . S
C1504 H1491 0.960 . S
C1504 C1503 1.524 . S
C1505 C1502 1.403 . S
C1505 C1506 1.392 . S
C1505 C1509 1.495 . S
C1506 C1505 1.392 . S
C1506 C1507 1.385 . S
C1506 C1508 1.478 . S
C1507 H1501 0.930 . S
C1507 C1503 1.400 . S
C1507 C1506 1.385 . S
C1508 C1506 1.478 . S
C1508 C1510 1.381 . S
C1508 C1514 1.383 . S
C1509 C1505 1.495 . S
C1509 H1515 0.959 1_554 S
C1509 H1516 0.961 . S
C1509 H1517 0.960 . S
C1510 C1508 1.381 . S
C1510 C1511 1.394 . S
C1510 H1518 0.930 . S
C1511 C1510 1.394 . S
C1511 C1512 1.383 . S
C1511 H1519 0.929 . S
C1512 C1511 1.383 . S
C1512 C1513 1.377 . S
C1513 H1497 0.930 . S
C1513 C1512 1.377 . S
C1513 C1514 1.379 . S
C1514 H1498 0.931 . S
C1514 C1508 1.383 . S
C1514 C1513 1.379 . S
H1515 C1509 0.959 1_556 S
H1516 C1509 0.961 . S
H1517 C1509 0.960 . S
H1518 C1510 0.930 . S
H1519 C1511 0.929 . S
H1520 C1528 0.929 . S
H1521 C1530 0.930 . S
H1522 C1532 0.930 . S
H1523 C1535 0.929 . S
H1524 C1538 0.930 . S
H1525 C1540 0.960 . S
H1526 C1540 0.960 . S
H1527 C1540 0.960 . S
C1528 H1520 0.929 . S
C1528 C1529 1.377 . S
C1528 C1530 1.384 . S
C1529 C1528 1.377 . S
C1529 C1535 1.390 . S
C1530 H1521 0.930 . S
C1530 C1528 1.384 . S
C1530 C1531 1.372 . S
C1531 C1530 1.372 . S
C1531 C1532 1.400 . S
C1531 C1536 1.490 . S
C1532 H1522 0.930 . S
C1532 C1531 1.400 . S
C1532 C1535 1.386 . S
H1533 C1549 0.930 . S
H1534 C1550 0.931 . S
C1535 H1523 0.929 . S
C1535 C1529 1.390 . S
C1535 C1532 1.386 . S
C1536 C1531 1.490 . S
C1536 C1538 1.395 . S
C1536 C1539 1.403 . S
H1537 C1543 0.930 . S
C1538 H1524 0.930 . S
C1538 C1536 1.395 . S
C1538 C1541 1.403 . S
C1539 C1536 1.403 . S
C1539 C1540 1.524 . S
C1539 C1543 1.400 . S
C1540 H1525 0.960 . S
C1540 H1526 0.960 . S
C1540 H1527 0.960 . S
C1540 C1539 1.524 . S
C1541 C1538 1.403 . S
C1541 C1542 1.392 . S
C1541 C1545 1.495 . S
C1542 C1541 1.392 . S
C1542 C1543 1.385 . S
C1542 C1544 1.478 . S
C1543 H1537 0.930 . S
C1543 C1539 1.400 . S
C1543 C1542 1.385 . S
C1544 C1542 1.478 . S
C1544 C1546 1.381 . S
C1544 C1550 1.383 . S
C1545 C1541 1.495 . S
C1545 H1551 0.959 . S
C1545 H1552 0.961 . S
C1545 H1553 0.960 . S
C1546 C1544 1.381 . S
C1546 C1547 1.394 . S
C1546 H1554 0.930 . S
C1547 C1546 1.394 . S
C1547 C1548 1.383 . S
C1547 H1555 0.929 . S
C1548 C1547 1.383 . S
C1548 C1549 1.377 . S
C1549 H1533 0.930 . S
C1549 C1548 1.377 . S
C1549 C1550 1.379 . S
C1550 H1534 0.931 . S
C1550 C1544 1.383 . S
C1550 C1549 1.379 . S
H1551 C1545 0.959 . S
H1552 C1545 0.961 . S
H1553 C1545 0.960 . S
H1554 C1546 0.930 . S
H1555 C1547 0.929 . S
H1556 C1564 0.929 . S
H1557 C1566 0.930 . S
H1558 C1568 0.930 . S
H1559 C1571 0.929 . S
H1560 C1574 0.930 . S
H1561 C1576 0.960 . S
H1562 C1576 0.960 . S
H1563 C1576 0.960 . S
C1564 H1556 0.929 . S
C1564 C1565 1.377 . S
C1564 C1566 1.384 . S
C1565 C1564 1.377 . S
C1565 C1571 1.390 . S
C1566 H1557 0.930 . S
C1566 C1564 1.384 . S
C1566 C1567 1.372 . S
C1567 C1566 1.372 . S
C1567 C1568 1.400 . S
C1567 C1572 1.490 . S
C1568 H1558 0.930 . S
C1568 C1567 1.400 . S
C1568 C1571 1.386 . S
H1569 C1585 0.930 . S
H1570 C1586 0.931 . S
C1571 H1559 0.929 . S
C1571 C1565 1.390 . S
C1571 C1568 1.386 . S
C1572 C1567 1.490 . S
C1572 C1574 1.395 . S
C1572 C1575 1.403 . S
H1573 C1579 0.930 . S
C1574 H1560 0.930 . S
C1574 C1572 1.395 . S
C1574 C1577 1.403 . S
C1575 C1572 1.403 . S
C1575 C1576 1.524 . S
C1575 C1579 1.400 . S
C1576 H1561 0.960 . S
C1576 H1562 0.960 . S
C1576 H1563 0.960 . S
C1576 C1575 1.524 . S
C1577 C1574 1.403 . S
C1577 C1578 1.392 . S
C1577 C1581 1.495 . S
C1578 C1577 1.392 . S
C1578 C1579 1.385 . S
C1578 C1580 1.478 . S
C1579 H1573 0.930 . S
C1579 C1575 1.400 . S
C1579 C1578 1.385 . S
C1580 C1578 1.478 . S
C1580 C1582 1.381 . S
C1580 C1586 1.383 . S
C1581 C1577 1.495 . S
C1581 H1587 0.959 . S
C1581 H1588 0.961 . S
C1581 H1589 0.960 . S
C1582 C1580 1.381 . S
C1582 C1583 1.394 . S
C1582 H1590 0.930 . S
C1583 C1582 1.394 . S
C1583 C1584 1.383 . S
C1583 H1591 0.929 . S
C1584 C1583 1.383 . S
C1584 C1585 1.377 . S
C1585 H1569 0.930 . S
C1585 C1584 1.377 . S
C1585 C1586 1.379 . S
C1586 H1570 0.931 . S
C1586 C1580 1.383 . S
C1586 C1585 1.379 . S
H1587 C1581 0.959 . S
H1588 C1581 0.961 . S
H1589 C1581 0.960 . S
H1590 C1582 0.930 . S
H1591 C1583 0.929 . S
H1592 C1600 0.929 . S
H1593 C1602 0.930 . S
H1594 C1604 0.930 . S
H1595 C1607 0.929 . S
H1596 C1610 0.930 . S
H1597 C1612 0.960 . S
H1598 C1612 0.960 . S
H1599 C1612 0.960 . S
C1600 H1592 0.929 . S
C1600 C1601 1.377 . S
C1600 C1602 1.384 . S
C1601 C1600 1.377 . S
C1601 C1607 1.390 . S
C1602 H1593 0.930 . S
C1602 C1600 1.384 . S
C1602 C1603 1.372 . S
C1603 C1602 1.372 . S
C1603 C1604 1.400 . S
C1603 C1608 1.490 . S
C1604 H1594 0.930 . S
C1604 C1603 1.400 . S
C1604 C1607 1.386 . S
H1605 C1621 0.930 . S
H1606 C1622 0.931 . S
C1607 H1595 0.929 . S
C1607 C1601 1.390 . S
C1607 C1604 1.386 . S
C1608 C1603 1.490 . S
C1608 C1610 1.395 . S
C1608 C1611 1.403 . S
H1609 C1615 0.930 . S
C1610 H1596 0.930 . S
C1610 C1608 1.395 . S
C1610 C1613 1.403 . S
C1611 C1608 1.403 . S
C1611 C1612 1.524 . S
C1611 C1615 1.400 . S
C1612 H1597 0.960 . S
C1612 H1598 0.960 . S
C1612 H1599 0.960 . S
C1612 C1611 1.524 . S
C1613 C1610 1.403 . S
C1613 C1614 1.392 . S
C1613 C1617 1.495 . S
C1614 C1613 1.392 . S
C1614 C1615 1.385 . S
C1614 C1616 1.478 . S
C1615 H1609 0.930 . S
C1615 C1611 1.400 . S
C1615 C1614 1.385 . S
C1616 C1614 1.478 . S
C1616 C1618 1.381 . S
C1616 C1622 1.383 . S
C1617 C1613 1.495 . S
C1617 H1623 0.959 . S
C1617 H1624 0.961 . S
C1617 H1625 0.960 . S
C1618 C1616 1.381 . S
C1618 C1619 1.394 . S
C1618 H1626 0.930 . S
C1619 C1618 1.394 . S
C1619 C1620 1.383 . S
C1619 H1627 0.929 . S
C1620 C1619 1.383 . S
C1620 C1621 1.377 . S
C1621 H1605 0.930 . S
C1621 C1620 1.377 . S
C1621 C1622 1.379 . S
C1622 H1606 0.931 . S
C1622 C1616 1.383 . S
C1622 C1621 1.379 . S
H1623 C1617 0.959 . S
H1624 C1617 0.961 . S
H1625 C1617 0.960 . S
H1626 C1618 0.930 . S
H1627 C1619 0.929 . S
H1628 C1636 0.929 . S
H1629 C1638 0.930 . S
H1630 C1640 0.930 . S
H1631 C1643 0.929 . S
H1632 C1646 0.930 . S
H1633 C1648 0.960 . S
H1634 C1648 0.960 . S
H1635 C1648 0.960 . S
C1636 H1628 0.929 . S
C1636 C1637 1.377 . S
C1636 C1638 1.384 . S
C1637 C1636 1.377 . S
C1637 C1643 1.390 . S
C1638 H1629 0.930 . S
C1638 C1636 1.384 . S
C1638 C1639 1.372 . S
C1639 C1638 1.372 . S
C1639 C1640 1.400 . S
C1639 C1644 1.490 . S
C1640 H1630 0.930 . S
C1640 C1639 1.400 . S
C1640 C1643 1.386 . S
H1641 C1657 0.930 . S
H1642 C1658 0.931 . S
C1643 H1631 0.929 . S
C1643 C1637 1.390 . S
C1643 C1640 1.386 . S
C1644 C1639 1.490 . S
C1644 C1646 1.395 . S
C1644 C1647 1.403 . S
H1645 C1651 0.930 . S
C1646 H1632 0.930 . S
C1646 C1644 1.395 . S
C1646 C1649 1.403 . S
C1647 C1644 1.403 . S
C1647 C1648 1.524 . S
C1647 C1651 1.400 . S
C1648 H1633 0.960 . S
C1648 H1634 0.960 . S
C1648 H1635 0.960 . S
C1648 C1647 1.524 . S
C1649 C1646 1.403 . S
C1649 C1650 1.392 . S
C1649 C1653 1.495 . S
C1650 C1649 1.392 . S
C1650 C1651 1.385 . S
C1650 C1652 1.478 . S
C1651 H1645 0.930 . S
C1651 C1647 1.400 . S
C1651 C1650 1.385 . S
C1652 C1650 1.478 . S
C1652 C1654 1.381 . S
C1652 C1658 1.383 . S
C1653 C1649 1.495 . S
C1653 H1659 0.959 . S
C1653 H1660 0.961 . S
C1653 H1661 0.960 . S
C1654 C1652 1.381 . S
C1654 C1655 1.394 . S
C1654 H1662 0.930 . S
C1655 C1654 1.394 . S
C1655 C1656 1.383 . S
C1655 H1663 0.929 . S
C1656 C1655 1.383 . S
C1656 C1657 1.377 . S
C1657 H1641 0.930 . S
C1657 C1656 1.377 . S
C1657 C1658 1.379 . S
C1658 H1642 0.931 . S
C1658 C1652 1.383 . S
C1658 C1657 1.379 . S
H1659 C1653 0.959 . S
H1660 C1653 0.961 . S
H1661 C1653 0.960 . S
H1662 C1654 0.930 . S
H1663 C1655 0.929 . S
H1664 C1672 0.929 . S
H1665 C1674 0.930 . S
H1666 C1676 0.930 . S
H1667 C1679 0.929 . S
H1668 C1682 0.930 . S
H1669 C1684 0.960 . S
H1670 C1684 0.960 . S
H1671 C1684 0.960 . S
C1672 H1664 0.929 . S
C1672 C1673 1.377 . S
C1672 C1674 1.384 . S
C1673 C1672 1.377 . S
C1673 C1679 1.390 . S
C1674 H1665 0.930 . S
C1674 C1672 1.384 . S
C1674 C1675 1.372 . S
C1675 C1674 1.372 . S
C1675 C1676 1.400 . S
C1675 C1680 1.490 . S
C1676 H1666 0.930 . S
C1676 C1675 1.400 . S
C1676 C1679 1.386 . S
H1677 C1693 0.930 . S
H1678 C1694 0.931 . S
C1679 H1667 0.929 . S
C1679 C1673 1.390 . S
C1679 C1676 1.386 . S
C1680 C1675 1.490 . S
C1680 C1682 1.395 . S
C1680 C1683 1.403 . S
H1681 C1687 0.930 . S
C1682 H1668 0.930 . S
C1682 C1680 1.395 . S
C1682 C1685 1.403 . S
C1683 C1680 1.403 . S
C1683 C1684 1.524 . S
C1683 C1687 1.400 . S
C1684 H1669 0.960 . S
C1684 H1670 0.960 . S
C1684 H1671 0.960 . S
C1684 C1683 1.524 . S
C1685 C1682 1.403 . S
C1685 C1686 1.392 . S
C1685 C1689 1.495 . S
C1686 C1685 1.392 . S
C1686 C1687 1.385 . S
C1686 C1688 1.478 . S
C1687 H1681 0.930 . S
C1687 C1683 1.400 . S
C1687 C1686 1.385 . S
C1688 C1686 1.478 . S
C1688 C1690 1.381 . S
C1688 C1694 1.383 . S
C1689 C1685 1.495 . S
C1689 H1695 0.959 . S
C1689 H1696 0.961 . S
C1689 H1697 0.960 . S
C1690 C1688 1.381 . S
C1690 C1691 1.394 . S
C1690 H1698 0.930 . S
C1691 C1690 1.394 . S
C1691 C1692 1.383 . S
C1691 H1699 0.929 . S
C1692 C1691 1.383 . S
C1692 C1693 1.377 . S
C1693 H1677 0.930 . S
C1693 C1692 1.377 . S
C1693 C1694 1.379 . S
C1694 H1678 0.931 . S
C1694 C1688 1.383 . S
C1694 C1693 1.379 . S
H1695 C1689 0.959 . S
H1696 C1689 0.961 . S
H1697 C1689 0.960 . S
H1698 C1690 0.930 . S
H1699 C1691 0.929 . S
H1700 C1708 0.929 . S
H1701 C1710 0.930 . S
H1702 C1712 0.930 . S
H1703 C1715 0.929 . S
H1704 C1718 0.930 . S
H1705 C1720 0.960 . S
H1706 C1720 0.960 . S
H1707 C1720 0.960 . S
C1708 H1700 0.929 . S
C1708 C1709 1.377 . S
C1708 C1710 1.384 . S
C1709 C1708 1.377 . S
C1709 C1715 1.390 . S
C1710 H1701 0.930 . S
C1710 C1708 1.384 . S
C1710 C1711 1.372 . S
C1711 C1710 1.372 . S
C1711 C1712 1.400 . S
C1711 C1716 1.490 . S
C1712 H1702 0.930 . S
C1712 C1711 1.400 . S
C1712 C1715 1.386 . S
H1713 C1729 0.930 . S
H1714 C1730 0.931 . S
C1715 H1703 0.929 . S
C1715 C1709 1.390 . S
C1715 C1712 1.386 . S
C1716 C1711 1.490 . S
C1716 C1718 1.395 . S
C1716 C1719 1.403 . S
H1717 C1723 0.930 . S
C1718 H1704 0.930 . S
C1718 C1716 1.395 . S
C1718 C1721 1.403 . S
C1719 C1716 1.403 . S
C1719 C1720 1.524 . S
C1719 C1723 1.400 . S
C1720 H1705 0.960 . S
C1720 H1706 0.960 . S
C1720 H1707 0.960 . S
C1720 C1719 1.524 . S
C1721 C1718 1.403 . S
C1721 C1722 1.392 . S
C1721 C1725 1.495 . S
C1722 C1721 1.392 . S
C1722 C1723 1.385 . S
C1722 C1724 1.478 . S
C1723 H1717 0.930 . S
C1723 C1719 1.400 . S
C1723 C1722 1.385 . S
C1724 C1722 1.478 . S
C1724 C1726 1.381 . S
C1724 C1730 1.383 . S
C1725 C1721 1.495 . S
C1725 H1731 0.959 . S
C1725 H1732 0.961 . S
C1725 H1733 0.960 . S
C1726 C1724 1.381 . S
C1726 C1727 1.394 . S
C1726 H1734 0.930 . S
C1727 C1726 1.394 . S
C1727 C1728 1.383 . S
C1727 H1735 0.929 . S
C1728 C1727 1.383 . S
C1728 C1729 1.377 . S
C1729 H1713 0.930 . S
C1729 C1728 1.377 . S
C1729 C1730 1.379 . S
C1730 H1714 0.931 . S
C1730 C1724 1.383 . S
C1730 C1729 1.379 . S
H1731 C1725 0.959 . S
H1732 C1725 0.961 . S
H1733 C1725 0.960 . S
H1734 C1726 0.930 . S
H1735 C1727 0.929 . S
H1736 C1744 0.929 . S
H1737 C1746 0.930 . S
H1738 C1748 0.930 . S
H1739 C1751 0.929 . S
H1740 C1754 0.930 . S
H1741 C1756 0.960 . S
H1742 C1756 0.960 . S
H1743 C1756 0.960 . S
C1744 H1736 0.929 . S
C1744 C1745 1.377 . S
C1744 C1746 1.384 . S
C1745 C1744 1.377 . S
C1745 C1751 1.390 . S
C1746 H1737 0.930 . S
C1746 C1744 1.384 . S
C1746 C1747 1.372 . S
C1747 C1746 1.372 . S
C1747 C1748 1.400 . S
C1747 C1752 1.490 . S
C1748 H1738 0.930 . S
C1748 C1747 1.400 . S
C1748 C1751 1.386 . S
H1749 C1765 0.930 . S
H1750 C1766 0.931 . S
C1751 H1739 0.929 . S
C1751 C1745 1.390 . S
C1751 C1748 1.386 . S
C1752 C1747 1.490 . S
C1752 C1754 1.395 . S
C1752 C1755 1.403 . S
H1753 C1759 0.930 . S
C1754 H1740 0.930 . S
C1754 C1752 1.395 . S
C1754 C1757 1.403 . S
C1755 C1752 1.403 . S
C1755 C1756 1.524 . S
C1755 C1759 1.400 . S
C1756 H1741 0.960 . S
C1756 H1742 0.960 . S
C1756 H1743 0.960 . S
C1756 C1755 1.524 . S
C1757 C1754 1.403 . S
C1757 C1758 1.392 . S
C1757 C1761 1.495 . S
C1758 C1757 1.392 . S
C1758 C1759 1.385 . S
C1758 C1760 1.478 . S
C1759 H1753 0.930 . S
C1759 C1755 1.400 . S
C1759 C1758 1.385 . S
C1760 C1758 1.478 . S
C1760 C1762 1.381 . S
C1760 C1766 1.383 . S
C1761 C1757 1.495 . S
C1761 H1767 0.959 . S
C1761 H1768 0.961 . S
C1761 H1769 0.960 . S
C1762 C1760 1.381 . S
C1762 C1763 1.394 . S
C1762 H1770 0.930 . S
C1763 C1762 1.394 . S
C1763 C1764 1.383 . S
C1763 H1771 0.929 . S
C1764 C1763 1.383 . S
C1764 C1765 1.377 . S
C1765 H1749 0.930 . S
C1765 C1764 1.377 . S
C1765 C1766 1.379 . S
C1766 H1750 0.931 . S
C1766 C1760 1.383 . S
C1766 C1765 1.379 . S
H1767 C1761 0.959 . S
H1768 C1761 0.961 . S
H1769 C1761 0.960 . S
H1770 C1762 0.930 . S
H1771 C1763 0.929 . S
H1772 C1780 0.929 . S
H1773 C1782 0.930 . S
H1774 C1784 0.930 . S
H1775 C1787 0.929 . S
H1776 C1790 0.930 . S
H1777 C1792 0.960 . S
H1778 C1792 0.960 . S
H1779 C1792 0.960 . S
C1780 H1772 0.929 . S
C1780 C1781 1.377 . S
C1780 C1782 1.384 . S
C1781 C1780 1.377 . S
C1781 C1787 1.390 . S
C1782 H1773 0.930 . S
C1782 C1780 1.384 . S
C1782 C1783 1.372 . S
C1783 C1782 1.372 . S
C1783 C1784 1.400 . S
C1783 C1788 1.490 . S
C1784 H1774 0.930 . S
C1784 C1783 1.400 . S
C1784 C1787 1.386 . S
H1785 C1801 0.930 . S
H1786 C1802 0.931 . S
C1787 H1775 0.929 . S
C1787 C1781 1.390 . S
C1787 C1784 1.386 . S
C1788 C1783 1.490 . S
C1788 C1790 1.395 . S
C1788 C1791 1.403 . S
H1789 C1795 0.930 . S
C1790 H1776 0.930 . S
C1790 C1788 1.395 . S
C1790 C1793 1.403 . S
C1791 C1788 1.403 . S
C1791 C1792 1.524 . S
C1791 C1795 1.400 . S
C1792 H1777 0.960 . S
C1792 H1778 0.960 . S
C1792 H1779 0.960 . S
C1792 C1791 1.524 . S
C1793 C1790 1.403 . S
C1793 C1794 1.392 . S
C1793 C1797 1.495 . S
C1794 C1793 1.392 . S
C1794 C1795 1.385 . S
C1794 C1796 1.478 . S
C1795 H1789 0.930 . S
C1795 C1791 1.400 . S
C1795 C1794 1.385 . S
C1796 C1794 1.478 . S
C1796 C1798 1.381 . S
C1796 C1802 1.383 . S
C1797 C1793 1.495 . S
C1797 H1803 0.959 . S
C1797 H1804 0.961 . S
C1797 H1805 0.960 . S
C1798 C1796 1.381 . S
C1798 C1799 1.394 . S
C1798 H1806 0.930 . S
C1799 C1798 1.394 . S
C1799 C1800 1.383 . S
C1799 H1807 0.929 . S
C1800 C1799 1.383 . S
C1800 C1801 1.377 . S
C1801 H1785 0.930 . S
C1801 C1800 1.377 . S
C1801 C1802 1.379 . S
C1802 H1786 0.931 . S
C1802 C1796 1.383 . S
C1802 C1801 1.379 . S
H1803 C1797 0.959 . S
H1804 C1797 0.961 . S
H1805 C1797 0.960 . S
H1806 C1798 0.930 . S
H1807 C1799 0.929 . S
H1808 C1816 0.929 . S
H1809 C1818 0.930 . S
H1810 C1820 0.930 . S
H1811 C1823 0.929 . S
H1812 C1826 0.930 . S
H1813 C1828 0.960 . S
H1814 C1828 0.960 . S
H1815 C1828 0.960 . S
C1816 H1808 0.929 . S
C1816 C1817 1.377 . S
C1816 C1818 1.384 . S
C1817 C1816 1.377 . S
C1817 C1823 1.390 . S
C1818 H1809 0.930 . S
C1818 C1816 1.384 . S
C1818 C1819 1.372 . S
C1819 C1818 1.372 . S
C1819 C1820 1.400 . S
C1819 C1824 1.490 . S
C1820 H1810 0.930 . S
C1820 C1819 1.400 . S
C1820 C1823 1.386 . S
H1821 C1837 0.930 . S
H1822 C1838 0.931 . S
C1823 H1811 0.929 . S
C1823 C1817 1.390 . S
C1823 C1820 1.386 . S
C1824 C1819 1.490 . S
C1824 C1826 1.395 . S
C1824 C1827 1.403 . S
H1825 C1831 0.930 . S
C1826 H1812 0.930 . S
C1826 C1824 1.395 . S
C1826 C1829 1.403 . S
C1827 C1824 1.403 . S
C1827 C1828 1.524 . S
C1827 C1831 1.400 . S
C1828 H1813 0.960 . S
C1828 H1814 0.960 . S
C1828 H1815 0.960 . S
C1828 C1827 1.524 . S
C1829 C1826 1.403 . S
C1829 C1830 1.392 . S
C1829 C1833 1.495 . S
C1830 C1829 1.392 . S
C1830 C1831 1.385 . S
C1830 C1832 1.478 . S
C1831 H1825 0.930 . S
C1831 C1827 1.400 . S
C1831 C1830 1.385 . S
C1832 C1830 1.478 . S
C1832 C1834 1.381 . S
C1832 C1838 1.383 . S
C1833 C1829 1.495 . S
C1833 H1839 0.959 . S
C1833 H1840 0.961 . S
C1833 H1841 0.960 . S
C1834 C1832 1.381 . S
C1834 C1835 1.394 . S
C1834 H1842 0.930 . S
C1835 C1834 1.394 . S
C1835 C1836 1.383 . S
C1835 H1843 0.929 . S
C1836 C1835 1.383 . S
C1836 C1837 1.377 . S
C1837 H1821 0.930 . S
C1837 C1836 1.377 . S
C1837 C1838 1.379 . S
C1838 H1822 0.931 . S
C1838 C1832 1.383 . S
C1838 C1837 1.379 . S
H1839 C1833 0.959 . S
H1840 C1833 0.961 . S
H1841 C1833 0.960 . S
H1842 C1834 0.930 . S
H1843 C1835 0.929 . S
H1844 C1852 0.929 . S
H1845 C1854 0.930 . S
H1846 C1856 0.930 . S
H1847 C1859 0.929 . S
H1848 C1862 0.930 . S
H1849 C1864 0.960 . S
H1850 C1864 0.960 . S
H1851 C1864 0.960 . S
C1852 H1844 0.929 . S
C1852 C1853 1.377 . S
C1852 C1854 1.384 . S
C1853 C1852 1.377 . S
C1853 C1859 1.390 . S
C1854 H1845 0.930 . S
C1854 C1852 1.384 . S
C1854 C1855 1.372 . S
C1855 C1854 1.372 . S
C1855 C1856 1.400 . S
C1855 C1860 1.490 . S
C1856 H1846 0.930 . S
C1856 C1855 1.400 . S
C1856 C1859 1.386 . S
H1857 C1873 0.930 . S
H1858 C1874 0.931 . S
C1859 H1847 0.929 . S
C1859 C1853 1.390 . S
C1859 C1856 1.386 . S
C1860 C1855 1.490 . S
C1860 C1862 1.395 . S
C1860 C1863 1.403 . S
H1861 C1867 0.930 . S
C1862 H1848 0.930 . S
C1862 C1860 1.395 . S
C1862 C1865 1.403 . S
C1863 C1860 1.403 . S
C1863 C1864 1.524 . S
C1863 C1867 1.400 . S
C1864 H1849 0.960 . S
C1864 H1850 0.960 . S
C1864 H1851 0.960 . S
C1864 C1863 1.524 . S
C1865 C1862 1.403 . S
C1865 C1866 1.392 . S
C1865 C1869 1.495 . S
C1866 C1865 1.392 . S
C1866 C1867 1.385 . S
C1866 C1868 1.478 . S
C1867 H1861 0.930 . S
C1867 C1863 1.400 . S
C1867 C1866 1.385 . S
C1868 C1866 1.478 . S
C1868 C1870 1.381 . S
C1868 C1874 1.383 . S
C1869 C1865 1.495 . S
C1869 H1875 0.959 . S
C1869 H1876 0.961 . S
C1869 H1877 0.960 . S
C1870 C1868 1.381 . S
C1870 C1871 1.394 . S
C1870 H1878 0.930 . S
C1871 C1870 1.394 . S
C1871 C1872 1.383 . S
C1871 H1879 0.929 . S
C1872 C1871 1.383 . S
C1872 C1873 1.377 . S
C1873 H1857 0.930 . S
C1873 C1872 1.377 . S
C1873 C1874 1.379 . S
C1874 H1858 0.931 . S
C1874 C1868 1.383 . S
C1874 C1873 1.379 . S
H1875 C1869 0.959 . S
H1876 C1869 0.961 . S
H1877 C1869 0.960 . S
H1878 C1870 0.930 . S
H1879 C1871 0.929 . S
H1880 C1888 0.929 . S
H1881 C1890 0.930 . S
H1882 C1892 0.930 . S
H1883 C1895 0.929 . S
H1884 C1898 0.930 . S
H1885 C1900 0.960 . S
H1886 C1900 0.960 . S
H1887 C1900 0.960 . S
C1888 H1880 0.929 . S
C1888 C1889 1.377 . S
C1888 C1890 1.384 . S
C1889 C1888 1.377 . S
C1889 C1895 1.390 . S
C1890 H1881 0.930 . S
C1890 C1888 1.384 . S
C1890 C1891 1.372 . S
C1891 C1890 1.372 . S
C1891 C1892 1.400 . S
C1891 C1896 1.490 . S
C1892 H1882 0.930 . S
C1892 C1891 1.400 . S
C1892 C1895 1.386 . S
H1893 C1909 0.930 . S
H1894 C1910 0.931 . S
C1895 H1883 0.929 . S
C1895 C1889 1.390 . S
C1895 C1892 1.386 . S
C1896 C1891 1.490 . S
C1896 C1898 1.395 . S
C1896 C1899 1.403 . S
H1897 C1903 0.930 . S
C1898 H1884 0.930 . S
C1898 C1896 1.395 . S
C1898 C1901 1.403 . S
C1899 C1896 1.403 . S
C1899 C1900 1.524 . S
C1899 C1903 1.400 . S
C1900 H1885 0.960 . S
C1900 H1886 0.960 . S
C1900 H1887 0.960 . S
C1900 C1899 1.524 . S
C1901 C1898 1.403 . S
C1901 C1902 1.392 . S
C1901 C1905 1.495 . S
C1902 C1901 1.392 . S
C1902 C1903 1.385 . S
C1902 C1904 1.478 . S
C1903 H1897 0.930 . S
C1903 C1899 1.400 . S
C1903 C1902 1.385 . S
C1904 C1902 1.478 . S
C1904 C1906 1.381 . S
C1904 C1910 1.383 . S
C1905 C1901 1.495 . S
C1905 H1911 0.959 . S
C1905 H1912 0.961 . S
C1905 H1913 0.960 . S
C1906 C1904 1.381 . S
C1906 C1907 1.394 . S
C1906 H1914 0.930 . S
C1907 C1906 1.394 . S
C1907 C1908 1.383 . S
C1907 H1915 0.929 . S
C1908 C1907 1.383 . S
C1908 C1909 1.377 . S
C1909 H1893 0.930 . S
C1909 C1908 1.377 . S
C1909 C1910 1.379 . S
C1910 H1894 0.931 . S
C1910 C1904 1.383 . S
C1910 C1909 1.379 . S
H1911 C1905 0.959 . S
H1912 C1905 0.961 . S
H1913 C1905 0.960 . S
H1914 C1906 0.930 . S
H1915 C1907 0.929 . S
H1916 C1924 0.929 . S
H1917 C1926 0.930 . S
H1918 C1928 0.930 . S
H1919 C1931 0.929 . S
H1920 C1934 0.930 . S
H1921 C1936 0.960 . S
H1922 C1936 0.960 . S
H1923 C1936 0.960 . S
C1924 H1916 0.929 . S
C1924 C1925 1.377 . S
C1924 C1926 1.384 . S
C1925 C1924 1.377 . S
C1925 C1931 1.390 . S
C1926 H1917 0.930 . S
C1926 C1924 1.384 . S
C1926 C1927 1.372 . S
C1927 C1926 1.372 . S
C1927 C1928 1.400 . S
C1927 C1932 1.490 . S
C1928 H1918 0.930 . S
C1928 C1927 1.400 . S
C1928 C1931 1.386 . S
H1929 C1945 0.930 . S
H1930 C1946 0.931 . S
C1931 H1919 0.929 . S
C1931 C1925 1.390 . S
C1931 C1928 1.386 . S
C1932 C1927 1.490 . S
C1932 C1934 1.395 . S
C1932 C1935 1.403 . S
H1933 C1939 0.930 . S
C1934 H1920 0.930 . S
C1934 C1932 1.395 . S
C1934 C1937 1.403 . S
C1935 C1932 1.403 . S
C1935 C1936 1.524 . S
C1935 C1939 1.400 . S
C1936 H1921 0.960 . S
C1936 H1922 0.960 . S
C1936 H1923 0.960 . S
C1936 C1935 1.524 . S
C1937 C1934 1.403 . S
C1937 C1938 1.392 . S
C1937 C1941 1.495 . S
C1938 C1937 1.392 . S
C1938 C1939 1.385 . S
C1938 C1940 1.478 . S
C1939 H1933 0.930 . S
C1939 C1935 1.400 . S
C1939 C1938 1.385 . S
C1940 C1938 1.478 . S
C1940 C1942 1.381 . S
C1940 C1946 1.383 . S
C1941 C1937 1.495 . S
C1941 H1947 0.959 . S
C1941 H1948 0.961 . S
C1941 H1949 0.960 . S
C1942 C1940 1.381 . S
C1942 C1943 1.394 . S
C1942 H1950 0.930 . S
C1943 C1942 1.394 . S
C1943 C1944 1.383 . S
C1943 H1951 0.929 . S
C1944 C1943 1.383 . S
C1944 C1945 1.377 . S
C1945 H1929 0.930 . S
C1945 C1944 1.377 . S
C1945 C1946 1.379 . S
C1946 H1930 0.931 . S
C1946 C1940 1.383 . S
C1946 C1945 1.379 . S
H1947 C1941 0.959 . S
H1948 C1941 0.961 . S
H1949 C1941 0.960 . S
H1950 C1942 0.930 . S
H1951 C1943 0.929 . S
H1952 C1960 0.929 . S
H1953 C1962 0.930 . S
H1954 C1964 0.930 . S
H1955 C1967 0.929 . S
H1956 C1970 0.930 . S
H1957 C1972 0.960 . S
H1958 C1972 0.960 . S
H1959 C1972 0.960 . S
C1960 H1952 0.929 . S
C1960 C1961 1.377 . S
C1960 C1962 1.384 . S
C1961 C1960 1.377 . S
C1961 C1967 1.390 . S
C1962 H1953 0.930 . S
C1962 C1960 1.384 . S
C1962 C1963 1.372 . S
C1963 C1962 1.372 . S
C1963 C1964 1.400 . S
C1963 C1968 1.490 1_556 S
C1964 H1954 0.930 . S
C1964 C1963 1.400 . S
C1964 C1967 1.386 . S
H1965 C1981 0.930 . S
H1966 C1982 0.931 . S
C1967 H1955 0.929 . S
C1967 C1961 1.390 . S
C1967 C1964 1.386 . S
C1968 C1963 1.490 1_554 S
C1968 C1970 1.395 . S
C1968 C1971 1.403 . S
H1969 C1975 0.930 . S
C1970 H1956 0.930 . S
C1970 C1968 1.395 . S
C1970 C1973 1.403 . S
C1971 C1968 1.403 . S
C1971 C1972 1.524 . S
C1971 C1975 1.400 . S
C1972 H1957 0.960 . S
C1972 H1958 0.960 . S
C1972 H1959 0.960 . S
C1972 C1971 1.524 . S
C1973 C1970 1.403 . S
C1973 C1974 1.392 . S
C1973 C1977 1.495 . S
C1974 C1973 1.392 . S
C1974 C1975 1.385 . S
C1974 C1976 1.478 . S
C1975 H1969 0.930 . S
C1975 C1971 1.400 . S
C1975 C1974 1.385 . S
C1976 C1974 1.478 . S
C1976 C1978 1.381 . S
C1976 C1982 1.383 . S
C1977 C1973 1.495 . S
C1977 H1983 0.959 . S
C1977 H1984 0.961 . S
C1977 H1985 0.960 . S
C1978 C1976 1.381 . S
C1978 C1979 1.394 . S
C1978 H1986 0.930 . S
C1979 C1978 1.394 . S
C1979 C1980 1.383 . S
C1979 H1987 0.929 . S
C1980 C1979 1.383 . S
C1980 C1981 1.377 . S
C1981 H1965 0.930 . S
C1981 C1980 1.377 . S
C1981 C1982 1.379 . S
C1982 H1966 0.931 . S
C1982 C1976 1.383 . S
C1982 C1981 1.379 . S
H1983 C1977 0.959 . S
H1984 C1977 0.961 . S
H1985 C1977 0.960 . S
H1986 C1978 0.930 . S
H1987 C1979 0.929 . S
H1988 C1996 0.929 . S
H1989 C1998 0.930 . S
H1990 C2000 0.930 . S
H1991 C2003 0.929 . S
H1992 C2006 0.930 . S
H1993 C2008 0.960 . S
H1994 C2008 0.960 . S
H1995 C2008 0.960 . S
C1996 H1988 0.929 . S
C1996 C1997 1.377 . S
C1996 C1998 1.384 . S
C1997 C1996 1.377 . S
C1997 C2003 1.390 . S
C1998 H1989 0.930 . S
C1998 C1996 1.384 . S
C1998 C1999 1.372 . S
C1999 C1998 1.372 . S
C1999 C2000 1.400 . S
C1999 C2004 1.490 . S
C2000 H1990 0.930 . S
C2000 C1999 1.400 . S
C2000 C2003 1.386 . S
H2001 C2017 0.930 . S
H2002 C2018 0.931 . S
C2003 H1991 0.929 . S
C2003 C1997 1.390 . S
C2003 C2000 1.386 . S
C2004 C1999 1.490 . S
C2004 C2006 1.395 . S
C2004 C2007 1.403 . S
H2005 C2011 0.930 . S
C2006 H1992 0.930 . S
C2006 C2004 1.395 . S
C2006 C2009 1.403 . S
C2007 C2004 1.403 . S
C2007 C2008 1.524 . S
C2007 C2011 1.400 . S
C2008 H1993 0.960 . S
C2008 H1994 0.960 . S
C2008 H1995 0.960 . S
C2008 C2007 1.524 . S
C2009 C2006 1.403 . S
C2009 C2010 1.392 . S
C2009 C2013 1.495 . S
C2010 C2009 1.392 . S
C2010 C2011 1.385 . S
C2010 C2012 1.478 1_556 S
C2011 H2005 0.930 . S
C2011 C2007 1.400 . S
C2011 C2010 1.385 . S
C2012 C2010 1.478 1_554 S
C2012 C2014 1.381 . S
C2012 C2018 1.383 . S
C2013 C2009 1.495 . S
C2013 H2019 0.959 . S
C2013 H2020 0.961 . S
C2013 H2021 0.960 . S
C2014 C2012 1.381 . S
C2014 C2015 1.394 . S
C2014 H2022 0.930 . S
C2015 C2014 1.394 . S
C2015 C2016 1.383 . S
C2015 H2023 0.929 . S
C2016 C2015 1.383 . S
C2016 C2017 1.377 . S
C2017 H2001 0.930 . S
C2017 C2016 1.377 . S
C2017 C2018 1.379 . S
C2018 H2002 0.931 . S
C2018 C2012 1.383 . S
C2018 C2017 1.379 . S
H2019 C2013 0.959 . S
H2020 C2013 0.961 . S
H2021 C2013 0.960 . S
H2022 C2014 0.930 . S
H2023 C2015 0.929 . S
H2024 C2032 0.929 . S
H2025 C2034 0.930 . S
H2026 C2036 0.930 . S
H2027 C2039 0.929 . S
H2028 C2042 0.930 . S
H2029 C2044 0.960 . S
H2030 C2044 0.960 . S
H2031 C2044 0.960 . S
C2032 H2024 0.929 . S
C2032 C2033 1.377 . S
C2032 C2034 1.384 . S
C2033 C2032 1.377 . S
C2033 C2039 1.390 . S
C2034 H2025 0.930 . S
C2034 C2032 1.384 . S
C2034 C2035 1.372 . S
C2035 C2034 1.372 . S
C2035 C2036 1.400 . S
C2035 C2040 1.490 . S
C2036 H2026 0.930 . S
C2036 C2035 1.400 . S
C2036 C2039 1.386 . S
H2037 C2053 0.930 . S
H2038 C2054 0.931 . S
C2039 H2027 0.929 . S
C2039 C2033 1.390 . S
C2039 C2036 1.386 . S
C2040 C2035 1.490 . S
C2040 C2042 1.395 . S
C2040 C2043 1.403 . S
H2041 C2047 0.930 . S
C2042 H2028 0.930 . S
C2042 C2040 1.395 . S
C2042 C2045 1.403 . S
C2043 C2040 1.403 . S
C2043 C2044 1.524 . S
C2043 C2047 1.400 . S
C2044 H2029 0.960 . S
C2044 H2030 0.960 . S
C2044 H2031 0.960 . S
C2044 C2043 1.524 . S
C2045 C2042 1.403 . S
C2045 C2046 1.392 . S
C2045 C2049 1.495 . S
C2046 C2045 1.392 . S
C2046 C2047 1.385 . S
C2046 C2048 1.478 1_554 S
C2047 H2041 0.930 . S
C2047 C2043 1.400 . S
C2047 C2046 1.385 . S
C2048 C2046 1.478 1_556 S
C2048 C2050 1.381 . S
C2048 C2054 1.383 . S
C2049 C2045 1.495 . S
C2049 H2055 0.959 . S
C2049 H2056 0.961 . S
C2049 H2057 0.960 . S
C2050 C2048 1.381 . S
C2050 C2051 1.394 . S
C2050 H2058 0.930 . S
C2051 C2050 1.394 . S
C2051 C2052 1.383 . S
C2051 H2059 0.929 . S
C2052 C2051 1.383 . S
C2052 C2053 1.377 . S
C2053 H2037 0.930 . S
C2053 C2052 1.377 . S
C2053 C2054 1.379 . S
C2054 H2038 0.931 . S
C2054 C2048 1.383 . S
C2054 C2053 1.379 . S
H2055 C2049 0.959 . S
H2056 C2049 0.961 . S
H2057 C2049 0.960 . S
H2058 C2050 0.930 . S
H2059 C2051 0.929 . S
H2060 C2068 0.929 . S
H2061 C2070 0.930 . S
H2062 C2072 0.930 . S
H2063 C2075 0.929 . S
H2064 C2078 0.930 . S
H2065 C2080 0.960 . S
H2066 C2080 0.960 . S
H2067 C2080 0.960 . S
C2068 H2060 0.929 . S
C2068 C2069 1.377 . S
C2068 C2070 1.384 . S
C2069 C2068 1.377 . S
C2069 C2075 1.390 . S
C2070 H2061 0.930 . S
C2070 C2068 1.384 . S
C2070 C2071 1.372 . S
C2071 C2070 1.372 . S
C2071 C2072 1.400 . S
C2071 C2076 1.490 1_554 S
C2072 H2062 0.930 . S
C2072 C2071 1.400 . S
C2072 C2075 1.386 . S
H2073 C2089 0.930 . S
H2074 C2090 0.931 . S
C2075 H2063 0.929 . S
C2075 C2069 1.390 . S
C2075 C2072 1.386 . S
C2076 C2071 1.490 1_556 S
C2076 C2078 1.395 . S
C2076 C2079 1.403 . S
H2077 C2083 0.930 . S
C2078 H2064 0.930 . S
C2078 C2076 1.395 . S
C2078 C2081 1.403 . S
C2079 C2076 1.403 . S
C2079 C2080 1.524 . S
C2079 C2083 1.400 . S
C2080 H2065 0.960 . S
C2080 H2066 0.960 . S
C2080 H2067 0.960 . S
C2080 C2079 1.524 . S
C2081 C2078 1.403 . S
C2081 C2082 1.392 . S
C2081 C2085 1.495 . S
C2082 C2081 1.392 . S
C2082 C2083 1.385 . S
C2082 C2084 1.478 . S
C2083 H2077 0.930 . S
C2083 C2079 1.400 . S
C2083 C2082 1.385 . S
C2084 C2082 1.478 . S
C2084 C2086 1.381 . S
C2084 C2090 1.383 . S
C2085 C2081 1.495 . S
C2085 H2091 0.959 . S
C2085 H2092 0.961 . S
C2085 H2093 0.960 . S
C2086 C2084 1.381 . S
C2086 C2087 1.394 . S
C2086 H2094 0.930 . S
C2087 C2086 1.394 . S
C2087 C2088 1.383 . S
C2087 H2095 0.929 . S
C2088 C2087 1.383 . S
C2088 C2089 1.377 . S
C2089 H2073 0.930 . S
C2089 C2088 1.377 . S
C2089 C2090 1.379 . S
C2090 H2074 0.931 . S
C2090 C2084 1.383 . S
C2090 C2089 1.379 . S
H2091 C2085 0.959 . S
H2092 C2085 0.961 . S
H2093 C2085 0.960 . S
H2094 C2086 0.930 . S
H2095 C2087 0.929 . S
H2096 C2104 0.929 . S
H2097 C2106 0.930 . S
H2098 C2108 0.930 . S
H2099 C2111 0.929 . S
H2100 C2114 0.930 . S
H2101 C2116 0.960 . S
H2102 C2116 0.960 . S
H2103 C2116 0.960 . S
C2104 H2096 0.929 . S
C2104 C2105 1.377 . S
C2104 C2106 1.384 . S
C2105 C2104 1.377 . S
C2105 C2111 1.390 . S
C2106 H2097 0.930 . S
C2106 C2104 1.384 . S
C2106 C2107 1.372 . S
C2107 C2106 1.372 . S
C2107 C2108 1.400 . S
C2107 C2112 1.490 . S
C2108 H2098 0.930 . S
C2108 C2107 1.400 . S
C2108 C2111 1.386 . S
H2109 C2125 0.930 . S
H2110 C2126 0.931 . S
C2111 H2099 0.929 . S
C2111 C2105 1.390 . S
C2111 C2108 1.386 . S
C2112 C2107 1.490 . S
C2112 C2114 1.395 . S
C2112 C2115 1.403 . S
H2113 C2119 0.930 . S
C2114 H2100 0.930 . S
C2114 C2112 1.395 . S
C2114 C2117 1.403 . S
C2115 C2112 1.403 . S
C2115 C2116 1.524 . S
C2115 C2119 1.400 . S
C2116 H2101 0.960 . S
C2116 H2102 0.960 . S
C2116 H2103 0.960 . S
C2116 C2115 1.524 . S
C2117 C2114 1.403 . S
C2117 C2118 1.392 . S
C2117 C2121 1.495 . S
C2118 C2117 1.392 . S
C2118 C2119 1.385 . S
C2118 C2120 1.478 1_554 S
C2119 H2113 0.930 . S
C2119 C2115 1.400 . S
C2119 C2118 1.385 . S
C2120 C2118 1.478 1_556 S
C2120 C2122 1.381 . S
C2120 C2126 1.383 . S
C2121 C2117 1.495 . S
C2121 H2127 0.959 . S
C2121 H2128 0.961 . S
C2121 H2129 0.960 . S
C2122 C2120 1.381 . S
C2122 C2123 1.394 . S
C2122 H2130 0.930 . S
C2123 C2122 1.394 . S
C2123 C2124 1.383 . S
C2123 H2131 0.929 . S
C2124 C2123 1.383 . S
C2124 C2125 1.377 . S
C2125 H2109 0.930 . S
C2125 C2124 1.377 . S
C2125 C2126 1.379 . S
C2126 H2110 0.931 . S
C2126 C2120 1.383 . S
C2126 C2125 1.379 . S
H2127 C2121 0.959 . S
H2128 C2121 0.961 . S
H2129 C2121 0.960 . S
H2130 C2122 0.930 . S
H2131 C2123 0.929 . S
H2132 C2140 0.929 . S
H2133 C2142 0.930 . S
H2134 C2144 0.930 . S
H2135 C2147 0.929 . S
H2136 C2150 0.930 . S
H2137 C2152 0.960 . S
H2138 C2152 0.960 . S
H2139 C2152 0.960 . S
C2140 H2132 0.929 . S
C2140 C2141 1.377 . S
C2140 C2142 1.384 . S
C2141 C2140 1.377 . S
C2141 C2147 1.390 . S
C2142 H2133 0.930 . S
C2142 C2140 1.384 . S
C2142 C2143 1.372 . S
C2143 C2142 1.372 . S
C2143 C2144 1.400 . S
C2143 C2148 1.490 1_554 S
C2144 H2134 0.930 . S
C2144 C2143 1.400 . S
C2144 C2147 1.386 . S
H2145 C2161 0.930 . S
H2146 C2162 0.931 . S
C2147 H2135 0.929 . S
C2147 C2141 1.390 . S
C2147 C2144 1.386 . S
C2148 C2143 1.490 1_556 S
C2148 C2150 1.395 . S
C2148 C2151 1.403 . S
H2149 C2155 0.930 . S
C2150 H2136 0.930 . S
C2150 C2148 1.395 . S
C2150 C2153 1.403 . S
C2151 C2148 1.403 . S
C2151 C2152 1.524 . S
C2151 C2155 1.400 . S
C2152 H2137 0.960 . S
C2152 H2138 0.960 . S
C2152 H2139 0.960 . S
C2152 C2151 1.524 . S
C2153 C2150 1.403 . S
C2153 C2154 1.392 . S
C2153 C2157 1.495 . S
C2154 C2153 1.392 . S
C2154 C2155 1.385 . S
C2154 C2156 1.478 . S
C2155 H2149 0.930 . S
C2155 C2151 1.400 . S
C2155 C2154 1.385 . S
C2156 C2154 1.478 . S
C2156 C2158 1.381 . S
C2156 C2162 1.383 . S
C2157 C2153 1.495 . S
C2157 H2163 0.959 . S
C2157 H2164 0.961 . S
C2157 H2165 0.960 . S
C2158 C2156 1.381 . S
C2158 C2159 1.394 . S
C2158 H2166 0.930 . S
C2159 C2158 1.394 . S
C2159 C2160 1.383 . S
C2159 H2167 0.929 . S
C2160 C2159 1.383 . S
C2160 C2161 1.377 . S
C2161 H2145 0.930 . S
C2161 C2160 1.377 . S
C2161 C2162 1.379 . S
C2162 H2146 0.931 . S
C2162 C2156 1.383 . S
C2162 C2161 1.379 . S
H2163 C2157 0.959 . S
H2164 C2157 0.961 . S
H2165 C2157 0.960 . S
H2166 C2158 0.930 . S
H2167 C2159 0.929 . S
H2168 C2176 0.929 . S
H2169 C2178 0.930 . S
H2170 C2180 0.930 . S
H2171 C2183 0.929 . S
H2172 C2186 0.930 . S
H2173 C2188 0.960 . S
H2174 C2188 0.960 . S
H2175 C2188 0.960 . S
C2176 H2168 0.929 . S
C2176 C2177 1.377 . S
C2176 C2178 1.384 . S
C2177 C2176 1.377 . S
C2177 C2183 1.390 . S
C2178 H2169 0.930 . S
C2178 C2176 1.384 . S
C2178 C2179 1.372 . S
C2179 C2178 1.372 . S
C2179 C2180 1.400 . S
C2179 C2184 1.490 1_556 S
C2180 H2170 0.930 . S
C2180 C2179 1.400 . S
C2180 C2183 1.386 . S
H2181 C2197 0.930 . S
H2182 C2198 0.931 . S
C2183 H2171 0.929 . S
C2183 C2177 1.390 . S
C2183 C2180 1.386 . S
C2184 C2179 1.490 1_554 S
C2184 C2186 1.395 . S
C2184 C2187 1.403 . S
H2185 C2191 0.930 . S
C2186 H2172 0.930 . S
C2186 C2184 1.395 . S
C2186 C2189 1.403 . S
C2187 C2184 1.403 . S
C2187 C2188 1.524 . S
C2187 C2191 1.400 . S
C2188 H2173 0.960 . S
C2188 H2174 0.960 . S
C2188 H2175 0.960 . S
C2188 C2187 1.524 . S
C2189 C2186 1.403 . S
C2189 C2190 1.392 . S
C2189 C2193 1.495 . S
C2190 C2189 1.392 . S
C2190 C2191 1.385 . S
C2190 C2192 1.478 . S
C2191 H2185 0.930 . S
C2191 C2187 1.400 . S
C2191 C2190 1.385 . S
C2192 C2190 1.478 . S
C2192 C2194 1.381 . S
C2192 C2198 1.383 . S
C2193 C2189 1.495 . S
C2193 H2199 0.959 . S
C2193 H2200 0.961 . S
C2193 H2201 0.960 . S
C2194 C2192 1.381 . S
C2194 C2195 1.394 . S
C2194 H2202 0.930 . S
C2195 C2194 1.394 . S
C2195 C2196 1.383 . S
C2195 H2203 0.929 . S
C2196 C2195 1.383 . S
C2196 C2197 1.377 . S
C2197 H2181 0.930 . S
C2197 C2196 1.377 . S
C2197 C2198 1.379 . S
C2198 H2182 0.931 . S
C2198 C2192 1.383 . S
C2198 C2197 1.379 . S
H2199 C2193 0.959 . S
H2200 C2193 0.961 . S
H2201 C2193 0.960 . S
H2202 C2194 0.930 . S
H2203 C2195 0.929 . S
H2204 C2212 0.929 . S
H2205 C2214 0.930 . S
H2206 C2216 0.930 . S
H2207 C2219 0.929 . S
H2208 C2222 0.930 . S
H2209 C2224 0.960 . S
H2210 C2224 0.960 . S
H2211 C2224 0.960 . S
C2212 H2204 0.929 . S
C2212 C2213 1.377 . S
C2212 C2214 1.384 . S
C2213 C2212 1.377 . S
C2213 C2219 1.390 . S
C2214 H2205 0.930 . S
C2214 C2212 1.384 . S
C2214 C2215 1.372 . S
C2215 C2214 1.372 . S
C2215 C2216 1.400 . S
C2215 C2220 1.490 . S
C2216 H2206 0.930 . S
C2216 C2215 1.400 . S
C2216 C2219 1.386 . S
H2217 C2233 0.930 . S
H2218 C2234 0.931 . S
C2219 H2207 0.929 . S
C2219 C2213 1.390 . S
C2219 C2216 1.386 . S
C2220 C2215 1.490 . S
C2220 C2222 1.395 . S
C2220 C2223 1.403 . S
H2221 C2227 0.930 . S
C2222 H2208 0.930 . S
C2222 C2220 1.395 . S
C2222 C2225 1.403 . S
C2223 C2220 1.403 . S
C2223 C2224 1.524 . S
C2223 C2227 1.400 . S
C2224 H2209 0.960 . S
C2224 H2210 0.960 . S
C2224 H2211 0.960 . S
C2224 C2223 1.524 . S
C2225 C2222 1.403 . S
C2225 C2226 1.392 . S
C2225 C2229 1.495 . S
C2226 C2225 1.392 . S
C2226 C2227 1.385 . S
C2226 C2228 1.478 1_556 S
C2227 H2221 0.930 . S
C2227 C2223 1.400 . S
C2227 C2226 1.385 . S
C2228 C2226 1.478 1_554 S
C2228 C2230 1.381 . S
C2228 C2234 1.383 . S
C2229 C2225 1.495 . S
C2229 H2235 0.959 . S
C2229 H2236 0.961 . S
C2229 H2237 0.960 . S
C2230 C2228 1.381 . S
C2230 C2231 1.394 . S
C2230 H2238 0.930 . S
C2231 C2230 1.394 . S
C2231 C2232 1.383 . S
C2231 H2239 0.929 . S
C2232 C2231 1.383 . S
C2232 C2233 1.377 . S
C2233 H2217 0.930 . S
C2233 C2232 1.377 . S
C2233 C2234 1.379 . S
C2234 H2218 0.931 . S
C2234 C2228 1.383 . S
C2234 C2233 1.379 . S
H2235 C2229 0.959 . S
H2236 C2229 0.961 . S
H2237 C2229 0.960 . S
H2238 C2230 0.930 . S
H2239 C2231 0.929 . S
C521 C381 1.573 . S
C540 N13 1.562 . S
C557 C285 1.573 . S
C576 N45 1.544 . S
C593 N82 1.563 . S
C612 C317 1.583 . S
C629 N114 1.566 . S
C648 C324 1.580 . S
C665 N141 1.567 . S
C684 C164 1.568 . S
C701 C221 1.573 . S
C720 N178 1.544 . S
C737 N205 1.560 . S
C756 C253 1.582 . S
C773 C157 1.573 . S
C792 N237 1.544 . S
C809 C100 1.573 . S
C828 N269 1.576 . S
C845 N301 1.562 . S
C864 C29 1.568 . S
C881 C61 1.575 . S
C900 N338 1.576 . S
C917 C68 1.573 . S
C936 N365 1.546 . S
C953 N402 1.564 . S
C972 C445 1.560 . S
C989 C477 1.574 . S
C1008 N429 1.552 . S
C1025 C484 1.577 . S
C1044 N461 1.562 . S
C1061 N498 1.561 . S
C1080 C388 1.563 . S
C1097 N18 1.123 . S
C1116 N146 1.156 . S
C1133 N173 1.118 . S
C1152 N50 1.081 . S
C1169 N77 1.118 . S
C1188 N210 1.109 . S
C1205 N109 1.121 . S
C1224 N242 1.110 . S
C1241 N274 1.123 . S
C1260 N397 1.137 . S
C1277 N434 1.116 . S
C1296 N306 1.087 . S
C1313 N333 1.124 . S
C1332 N466 1.155 . S
C1349 N370 1.116 . S
C1368 N493 1.133 . S
C1385 C450 2.235 . S
C1404 C2 2.240 . S
C1421 C34 2.236 . S
C1440 C486 2.225 . S
C1457 C70 2.236 . S
C1476 C390 2.223 . S
C1493 C102 2.235 . S
C1512 C418 2.223 . S
C1529 C130 2.235 . S
C1548 C326 2.239 . S
C1565 C166 2.235 . S
C1584 C354 2.233 . S
C1601 C194 2.234 . S
C1620 C258 2.237 . S
C1637 C290 2.237 . S
C1656 C226 2.240 . S
C1673 C6 0.921 . S
C1692 C4 0.918 . S
C1709 C38 0.920 . S
C1728 C36 0.919 . S
C1745 C66 0.920 . S
C1764 C93 0.920 . S
C1781 C125 0.921 . S
C1800 C98 0.913 . S
C1817 C132 0.922 . S
C1836 C134 0.919 . S
C1853 C162 0.922 . S
C1872 C189 0.918 . S
C1889 C198 0.921 . S
C1908 C196 0.918 . S
C1925 C228 0.921 . S
C1944 C230 0.914 . S
C1961 C262 0.922 . S
C1980 C260 0.920 . S
C1997 C292 0.921 . S
C2016 C294 0.913 . S
C2033 C349 0.921 . S
C2052 C322 0.925 . S
C2069 C358 0.920 . S
C2088 C356 0.922 . S
C2105 C386 0.922 . S
C2124 C413 0.918 . S
C2141 C420 0.921 . S
C2160 C422 0.925 . S
C2177 C452 0.922 . S
C2196 C454 0.914 . S
C2213 C482 0.922 . S
C2232 C509 0.919 . S
