# Generated by pormake.
# Topology son, (6)-cn, num edge types: 1
# Building blocks:
#     Node 0, Type 0, BuildingBlock: GEDQOX_clean_sbu_0, # of connection points: 6
#     Node 1, Type 0, BuildingBlock: GEDQOX_clean_sbu_0, # of connection points: 6
#     Node 2, Type 0, BuildingBlock: GEDQOX_clean_sbu_0, # of connection points: 6
#     Node 3, Type 0, BuildingBlock: GEDQOX_clean_sbu_0, # of connection points: 6
#     Node 4, Type 0, BuildingBlock: GEDQOX_clean_sbu_0, # of connection points: 6
#     Node 5, Type 0, BuildingBlock: GEDQOX_clean_sbu_0, # of connection points: 6
#     Node 6, Type 0, BuildingBlock: GEDQOX_clean_sbu_0, # of connection points: 6
#     Node 7, Type 0, BuildingBlock: GEDQOX_clean_sbu_0, # of connection points: 6
#     Node 8, Type 0, BuildingBlock: GEDQOX_clean_sbu_0, # of connection points: 6
#     Node 9, Type 0, BuildingBlock: GEDQOX_clean_sbu_0, # of connection points: 6
#     Node 10, Type 0, BuildingBlock: GEDQOX_clean_sbu_0, # of connection points: 6
#     Node 11, Type 0, BuildingBlock: GEDQOX_clean_sbu_0, # of connection points: 6
#     Node 12, Type 0, BuildingBlock: GEDQOX_clean_sbu_0, # of connection points: 6
#     Node 13, Type 0, BuildingBlock: GEDQOX_clean_sbu_0, # of connection points: 6
#     Node 14, Type 0, BuildingBlock: GEDQOX_clean_sbu_0, # of connection points: 6
#     Node 15, Type 0, BuildingBlock: GEDQOX_clean_sbu_0, # of connection points: 6
#     Node 16, Type 0, BuildingBlock: GEDQOX_clean_sbu_0, # of connection points: 6
#     Node 17, Type 0, BuildingBlock: GEDQOX_clean_sbu_0, # of connection points: 6
#     Node 18, Type 0, BuildingBlock: GEDQOX_clean_sbu_0, # of connection points: 6
#     Node 19, Type 0, BuildingBlock: GEDQOX_clean_sbu_0, # of connection points: 6
#     Node 20, Type 0, BuildingBlock: GEDQOX_clean_sbu_0, # of connection points: 6
#     Node 21, Type 0, BuildingBlock: GEDQOX_clean_sbu_0, # of connection points: 6
#     Node 22, Type 0, BuildingBlock: GEDQOX_clean_sbu_0, # of connection points: 6
#     Node 23, Type 0, BuildingBlock: GEDQOX_clean_sbu_0, # of connection points: 6
#     Node 24, Type 0, BuildingBlock: GEDQOX_clean_sbu_0, # of connection points: 6
#     Node 25, Type 0, BuildingBlock: GEDQOX_clean_sbu_0, # of connection points: 6
#     Node 26, Type 0, BuildingBlock: GEDQOX_clean_sbu_0, # of connection points: 6
#     Node 27, Type 0, BuildingBlock: GEDQOX_clean_sbu_0, # of connection points: 6
#     Node 28, Type 0, BuildingBlock: GEDQOX_clean_sbu_0, # of connection points: 6
#     Node 29, Type 0, BuildingBlock: GEDQOX_clean_sbu_0, # of connection points: 6
#     Node 30, Type 0, BuildingBlock: GEDQOX_clean_sbu_0, # of connection points: 6
#     Node 31, Type 0, BuildingBlock: GEDQOX_clean_sbu_0, # of connection points: 6
#     Edge 32, Type (0, 0), BuildingBlock: UVAHIK_clean_linker_0, # of connection points: 2
#     Edge 33, Type (0, 0), BuildingBlock: UVAHIK_clean_linker_0, # of connection points: 2
#     Edge 34, Type (0, 0), BuildingBlock: UVAHIK_clean_linker_0, # of connection points: 2
#     Edge 35, Type (0, 0), BuildingBlock: UVAHIK_clean_linker_0, # of connection points: 2
#     Edge 36, Type (0, 0), BuildingBlock: UVAHIK_clean_linker_0, # of connection points: 2
#     Edge 37, Type (0, 0), BuildingBlock: UVAHIK_clean_linker_0, # of connection points: 2
#     Edge 38, Type (0, 0), BuildingBlock: UVAHIK_clean_linker_0, # of connection points: 2
#     Edge 39, Type (0, 0), BuildingBlock: UVAHIK_clean_linker_0, # of connection points: 2
#     Edge 40, Type (0, 0), BuildingBlock: UVAHIK_clean_linker_0, # of connection points: 2
#     Edge 41, Type (0, 0), BuildingBlock: UVAHIK_clean_linker_0, # of connection points: 2
#     Edge 42, Type (0, 0), BuildingBlock: UVAHIK_clean_linker_0, # of connection points: 2
#     Edge 43, Type (0, 0), BuildingBlock: UVAHIK_clean_linker_0, # of connection points: 2
#     Edge 44, Type (0, 0), BuildingBlock: UVAHIK_clean_linker_0, # of connection points: 2
#     Edge 45, Type (0, 0), BuildingBlock: UVAHIK_clean_linker_0, # of connection points: 2
#     Edge 46, Type (0, 0), BuildingBlock: UVAHIK_clean_linker_0, # of connection points: 2
#     Edge 47, Type (0, 0), BuildingBlock: UVAHIK_clean_linker_0, # of connection points: 2
#     Edge 48, Type (0, 0), BuildingBlock: UVAHIK_clean_linker_0, # of connection points: 2
#     Edge 49, Type (0, 0), BuildingBlock: UVAHIK_clean_linker_0, # of connection points: 2
#     Edge 50, Type (0, 0), BuildingBlock: UVAHIK_clean_linker_0, # of connection points: 2
#     Edge 51, Type (0, 0), BuildingBlock: UVAHIK_clean_linker_0, # of connection points: 2
#     Edge 52, Type (0, 0), BuildingBlock: UVAHIK_clean_linker_0, # of connection points: 2
#     Edge 53, Type (0, 0), BuildingBlock: UVAHIK_clean_linker_0, # of connection points: 2
#     Edge 54, Type (0, 0), BuildingBlock: UVAHIK_clean_linker_0, # of connection points: 2
#     Edge 55, Type (0, 0), BuildingBlock: UVAHIK_clean_linker_0, # of connection points: 2
#     Edge 56, Type (0, 0), BuildingBlock: UVAHIK_clean_linker_0, # of connection points: 2
#     Edge 57, Type (0, 0), BuildingBlock: UVAHIK_clean_linker_0, # of connection points: 2
#     Edge 58, Type (0, 0), BuildingBlock: UVAHIK_clean_linker_0, # of connection points: 2
#     Edge 59, Type (0, 0), BuildingBlock: UVAHIK_clean_linker_0, # of connection points: 2
#     Edge 60, Type (0, 0), BuildingBlock: UVAHIK_clean_linker_0, # of connection points: 2
#     Edge 61, Type (0, 0), BuildingBlock: UVAHIK_clean_linker_0, # of connection points: 2
#     Edge 62, Type (0, 0), BuildingBlock: UVAHIK_clean_linker_0, # of connection points: 2
#     Edge 63, Type (0, 0), BuildingBlock: UVAHIK_clean_linker_0, # of connection points: 2
#     Edge 64, Type (0, 0), BuildingBlock: UVAHIK_clean_linker_0, # of connection points: 2
#     Edge 65, Type (0, 0), BuildingBlock: UVAHIK_clean_linker_0, # of connection points: 2
#     Edge 66, Type (0, 0), BuildingBlock: UVAHIK_clean_linker_0, # of connection points: 2
#     Edge 67, Type (0, 0), BuildingBlock: UVAHIK_clean_linker_0, # of connection points: 2
#     Edge 68, Type (0, 0), BuildingBlock: UVAHIK_clean_linker_0, # of connection points: 2
#     Edge 69, Type (0, 0), BuildingBlock: UVAHIK_clean_linker_0, # of connection points: 2
#     Edge 70, Type (0, 0), BuildingBlock: UVAHIK_clean_linker_0, # of connection points: 2
#     Edge 71, Type (0, 0), BuildingBlock: UVAHIK_clean_linker_0, # of connection points: 2
#     Edge 72, Type (0, 0), BuildingBlock: UVAHIK_clean_linker_0, # of connection points: 2
#     Edge 73, Type (0, 0), BuildingBlock: UVAHIK_clean_linker_0, # of connection points: 2
#     Edge 74, Type (0, 0), BuildingBlock: UVAHIK_clean_linker_0, # of connection points: 2
#     Edge 75, Type (0, 0), BuildingBlock: UVAHIK_clean_linker_0, # of connection points: 2
#     Edge 76, Type (0, 0), BuildingBlock: UVAHIK_clean_linker_0, # of connection points: 2
#     Edge 77, Type (0, 0), BuildingBlock: UVAHIK_clean_linker_0, # of connection points: 2
#     Edge 78, Type (0, 0), BuildingBlock: UVAHIK_clean_linker_0, # of connection points: 2
#     Edge 79, Type (0, 0), BuildingBlock: UVAHIK_clean_linker_0, # of connection points: 2
#     Edge 80, Type (0, 0), BuildingBlock: UVAHIK_clean_linker_0, # of connection points: 2
#     Edge 81, Type (0, 0), BuildingBlock: UVAHIK_clean_linker_0, # of connection points: 2
#     Edge 82, Type (0, 0), BuildingBlock: UVAHIK_clean_linker_0, # of connection points: 2
#     Edge 83, Type (0, 0), BuildingBlock: UVAHIK_clean_linker_0, # of connection points: 2
#     Edge 84, Type (0, 0), BuildingBlock: UVAHIK_clean_linker_0, # of connection points: 2
#     Edge 85, Type (0, 0), BuildingBlock: UVAHIK_clean_linker_0, # of connection points: 2
#     Edge 86, Type (0, 0), BuildingBlock: UVAHIK_clean_linker_0, # of connection points: 2
#     Edge 87, Type (0, 0), BuildingBlock: UVAHIK_clean_linker_0, # of connection points: 2
#     Edge 88, Type (0, 0), BuildingBlock: UVAHIK_clean_linker_0, # of connection points: 2
#     Edge 89, Type (0, 0), BuildingBlock: UVAHIK_clean_linker_0, # of connection points: 2
#     Edge 90, Type (0, 0), BuildingBlock: UVAHIK_clean_linker_0, # of connection points: 2
#     Edge 91, Type (0, 0), BuildingBlock: UVAHIK_clean_linker_0, # of connection points: 2
#     Edge 92, Type (0, 0), BuildingBlock: UVAHIK_clean_linker_0, # of connection points: 2
#     Edge 93, Type (0, 0), BuildingBlock: UVAHIK_clean_linker_0, # of connection points: 2
#     Edge 94, Type (0, 0), BuildingBlock: UVAHIK_clean_linker_0, # of connection points: 2
#     Edge 95, Type (0, 0), BuildingBlock: UVAHIK_clean_linker_0, # of connection points: 2
#     Edge 96, Type (0, 0), BuildingBlock: UVAHIK_clean_linker_0, # of connection points: 2
#     Edge 97, Type (0, 0), BuildingBlock: UVAHIK_clean_linker_0, # of connection points: 2
#     Edge 98, Type (0, 0), BuildingBlock: UVAHIK_clean_linker_0, # of connection points: 2
#     Edge 99, Type (0, 0), BuildingBlock: UVAHIK_clean_linker_0, # of connection points: 2
#     Edge 100, Type (0, 0), BuildingBlock: UVAHIK_clean_linker_0, # of connection points: 2
#     Edge 101, Type (0, 0), BuildingBlock: UVAHIK_clean_linker_0, # of connection points: 2
#     Edge 102, Type (0, 0), BuildingBlock: UVAHIK_clean_linker_0, # of connection points: 2
#     Edge 103, Type (0, 0), BuildingBlock: UVAHIK_clean_linker_0, # of connection points: 2
#     Edge 104, Type (0, 0), BuildingBlock: UVAHIK_clean_linker_0, # of connection points: 2
#     Edge 105, Type (0, 0), BuildingBlock: UVAHIK_clean_linker_0, # of connection points: 2
#     Edge 106, Type (0, 0), BuildingBlock: UVAHIK_clean_linker_0, # of connection points: 2
#     Edge 107, Type (0, 0), BuildingBlock: UVAHIK_clean_linker_0, # of connection points: 2
#     Edge 108, Type (0, 0), BuildingBlock: UVAHIK_clean_linker_0, # of connection points: 2
#     Edge 109, Type (0, 0), BuildingBlock: UVAHIK_clean_linker_0, # of connection points: 2
#     Edge 110, Type (0, 0), BuildingBlock: UVAHIK_clean_linker_0, # of connection points: 2
#     Edge 111, Type (0, 0), BuildingBlock: UVAHIK_clean_linker_0, # of connection points: 2
#     Edge 112, Type (0, 0), BuildingBlock: UVAHIK_clean_linker_0, # of connection points: 2
#     Edge 113, Type (0, 0), BuildingBlock: UVAHIK_clean_linker_0, # of connection points: 2
#     Edge 114, Type (0, 0), BuildingBlock: UVAHIK_clean_linker_0, # of connection points: 2
#     Edge 115, Type (0, 0), BuildingBlock: UVAHIK_clean_linker_0, # of connection points: 2
#     Edge 116, Type (0, 0), BuildingBlock: UVAHIK_clean_linker_0, # of connection points: 2
#     Edge 117, Type (0, 0), BuildingBlock: UVAHIK_clean_linker_0, # of connection points: 2
#     Edge 118, Type (0, 0), BuildingBlock: UVAHIK_clean_linker_0, # of connection points: 2
#     Edge 119, Type (0, 0), BuildingBlock: UVAHIK_clean_linker_0, # of connection points: 2
#     Edge 120, Type (0, 0), BuildingBlock: UVAHIK_clean_linker_0, # of connection points: 2
#     Edge 121, Type (0, 0), BuildingBlock: UVAHIK_clean_linker_0, # of connection points: 2
#     Edge 122, Type (0, 0), BuildingBlock: UVAHIK_clean_linker_0, # of connection points: 2
#     Edge 123, Type (0, 0), BuildingBlock: UVAHIK_clean_linker_0, # of connection points: 2
#     Edge 124, Type (0, 0), BuildingBlock: UVAHIK_clean_linker_0, # of connection points: 2
#     Edge 125, Type (0, 0), BuildingBlock: UVAHIK_clean_linker_0, # of connection points: 2
#     Edge 126, Type (0, 0), BuildingBlock: UVAHIK_clean_linker_0, # of connection points: 2
#     Edge 127, Type (0, 0), BuildingBlock: UVAHIK_clean_linker_0, # of connection points: 2
# Relax obj value: 0.123
# Max RMSD: 0.176
# Mean RMSD: 0.176
data_MOF--net-son--node1-GEDQOX_clean_sbu_0--edge1-UVAHIK_clean_linker_0
_symmetry_space_group_name_H-M    P1
_symmetry_Int_Tables_number       1
_symmetry_cell_setting            triclinic
loop_
_symmetry_equiv_pos_as_xyz
'x, y, z'
_cell_length_a     239.52701
_cell_length_b     74.201658
_cell_length_c     20.320455
_cell_angle_alpha  89.901793
_cell_angle_beta   90.025086
_cell_angle_gamma 90.086095
loop_
_atom_site_label
_atom_site_type_symbol
_atom_site_fract_x
_atom_site_fract_y
_atom_site_fract_z
_atom_type_partial_charge
Nd0 Nd 0.31369 0.24849 0.26155 0.0
Nd1 Nd 0.32604 0.25256 0.25215 0.0
C2 C 0.3028 0.24154 0.25248 0.0
C3 C 0.29765 0.24141 0.21151 0.0
C4 C 0.29412 0.2263 0.2136 0.0
C5 C 0.28882 0.22674 0.1841 0.0
C6 C 0.2869 0.24237 0.1518 0.0
C7 C 0.29055 0.25727 0.14751 0.0
C8 C 0.29585 0.25681 0.17707 0.0
C9 C 0.31755 0.28201 0.29731 0.0
C10 C 0.31942 0.25655 0.11574 0.0
C11 C 0.33691 0.26013 0.2586 0.0
C12 C 0.34239 0.25973 0.29312 0.0
C13 C 0.34513 0.27602 0.30752 0.0
C14 C 0.3507 0.27612 0.32902 0.0
C15 C 0.3537 0.25993 0.33635 0.0
C16 C 0.35087 0.24358 0.32451 0.0
C17 C 0.3453 0.24348 0.30306 0.0
C18 C 0.32217 0.21865 0.22024 0.0
C19 C 0.32032 0.24438 0.39841 0.0
O20 O 0.30663 0.22928 0.24286 0.0
O21 O 0.30489 0.25714 0.26903 0.0
O22 O 0.31375 0.27309 0.32884 0.0
O23 O 0.31921 0.27344 0.24709 0.0
O24 O 0.31517 0.2494 0.14835 0.0
O25 O 0.32391 0.26211 0.14754 0.0
O26 O 0.33303 0.27145 0.27711 0.0
O27 O 0.33487 0.24503 0.23607 0.0
O28 O 0.32594 0.22732 0.18743 0.0
O29 O 0.32053 0.22771 0.2693 0.0
O30 O 0.32465 0.25097 0.36555 0.0
O31 O 0.31574 0.23938 0.36699 0.0
H32 H 0.29538 0.21429 0.2401 0.0
H33 H 0.2862 0.21488 0.18747 0.0
H34 H 0.28922 0.26959 0.1236 0.0
H35 H 0.29845 0.26874 0.17485 0.0
H36 H 0.34303 0.28877 0.29975 0.0
H37 H 0.35268 0.28897 0.33872 0.0
H38 H 0.35304 0.23083 0.32891 0.0
H39 H 0.34336 0.23067 0.29179 0.0
Nd40 Nd 0.95339 -0.00103 0.26122 0.0
Nd41 Nd 0.94105 0.99394 0.25204 0.0
C42 C 0.96421 0.00699 0.25185 0.0
C43 C 0.96938 0.00674 0.21142 0.0
C44 C 0.97298 0.02167 0.21323 0.0
C45 C 0.97828 0.02093 0.18393 0.0
C46 C 0.98013 0.00519 0.15207 0.0
C47 C 0.97642 0.99046 0.14806 0.0
C48 C 0.97111 0.9912 0.17749 0.0
C49 C 0.94979 0.96492 0.29442 0.0
C50 C 0.9477 0.99064 0.11569 0.0
C51 C 0.9303 0.98491 0.25984 0.0
C52 C 0.92476 0.98625 0.29266 0.0
C53 C 0.92205 0.97043 0.31346 0.0
C54 C 0.91647 0.97081 0.33426 0.0
C55 C 0.91342 0.98704 0.33456 0.0
C56 C 0.91622 0.00301 0.31625 0.0
C57 C 0.92181 0.00262 0.29541 0.0
C58 C 0.94462 0.0285 0.22384 0.0
C59 C 0.94676 0.00238 0.39821 0.0
O60 O 0.96026 0.01851 0.23766 0.0
O61 O 0.96228 0.99159 0.27304 0.0
O62 O 0.95356 0.97387 0.32629 0.0
O63 O 0.94804 0.97372 0.24503 0.0
O64 O 0.95187 0.99822 0.14814 0.0
O65 O 0.94329 0.98448 0.14773 0.0
O66 O 0.93428 0.97542 0.28705 0.0
O67 O 0.93218 -0.0011 0.22768 0.0
O68 O 0.94079 0.01999 0.19133 0.0
O69 O 0.94638 0.01905 0.27133 0.0
O70 O 0.94246 0.99556 0.36539 0.0
O71 O 0.95129 0.00779 0.36672 0.0
H72 H 0.97177 0.03377 0.23929 0.0
H73 H 0.98095 0.03267 0.18706 0.0
H74 H 0.97769 0.97805 0.12443 0.0
H75 H 0.96844 0.97942 0.17552 0.0
H76 H 0.92419 0.9576 0.31137 0.0
H77 H 0.91451 0.95828 0.34907 0.0
H78 H 0.91402 0.01575 0.31524 0.0
H79 H 0.92374 0.01506 0.27918 0.0
Nd80 Nd 0.31367 -0.00057 0.04593 0.0
Nd81 Nd 0.32599 0.99405 0.055 0.0
C82 C 0.30291 0.00819 0.05623 0.0
C83 C 0.29773 0.00727 0.09629 0.0
C84 C 0.29438 0.02271 0.10204 0.0
C85 C 0.28909 0.02178 0.13139 0.0
C86 C 0.28698 0.00533 0.1557 0.0
C87 C 0.29043 0.98998 0.15205 0.0
C88 C 0.29573 0.99093 0.1226 0.0
C89 C 0.3171 0.96504 1.01534 0.0
C90 C 0.31935 0.99093 0.19151 0.0
C91 C 0.33671 0.98466 0.04686 0.0
C92 C 0.34227 0.98626 1.01459 0.0
C93 C 0.34496 0.97062 0.99241 0.0
C94 C 0.35055 0.97115 0.9719 0.0
C95 C 0.35361 0.98737 0.97326 0.0
C96 C 0.35083 0.00319 0.99296 0.0
C97 C 0.34524 0.00264 1.01354 0.0
C98 C 0.32257 0.02882 0.08132 0.0
C99 C 0.3203 0.00247 0.90882 0.0
O100 O 0.30696 0.0189 0.07476 0.0
O101 O 0.30473 0.99328 0.02983 0.0
O102 O 0.3133 0.97387 0.98362 0.0
O103 O 0.31893 0.97409 0.06368 0.0
O104 O 0.31518 -0.00144 0.15897 0.0
O105 O 0.32373 0.98469 0.15954 0.0
O106 O 0.3327 0.9757 1.01775 0.0
O107 O 0.33487 0.99827 0.08116 0.0
O108 O 0.32639 0.02034 0.11393 0.0
O109 O 0.32075 0.01925 0.0345 0.0
O110 O 0.32455 0.99543 0.94168 0.0
O111 O 0.31581 0.0082 0.94035 0.0
H112 H 0.2958 0.03546 0.08195 0.0
H113 H 0.28662 0.03397 0.13431 0.0
H114 H 0.28896 0.97705 0.16967 0.0
H115 H 0.29819 0.97875 0.11865 0.0
H116 H 0.3428 0.95777 0.99315 0.0
H117 H 0.3525 0.95874 0.95599 0.0
H118 H 0.35304 0.01591 0.99525 0.0
H119 H 0.34331 0.01495 0.03085 0.0
Nd120 Nd 0.95328 0.24784 0.04457 0.0
Nd121 Nd 0.94094 0.25271 0.05384 0.0
C122 C 0.9641 0.23994 0.0545 0.0
C123 C 0.96925 0.2404 0.09536 0.0
C124 C 0.9726 0.22493 0.09933 0.0
C125 C 0.97789 0.22559 0.12904 0.0
C126 C 0.97998 0.2418 0.15544 0.0
C127 C 0.97652 0.25714 0.1536 0.0
C128 C 0.97122 0.25646 0.12385 0.0
C129 C 0.94967 0.28181 1.01072 0.0
C130 C 0.9476 0.25629 0.19015 0.0
C131 C 0.93017 0.26136 0.04633 0.0
C132 C 0.92464 0.26024 1.0129 0.0
C133 C 0.92197 0.27616 0.99289 0.0
C134 C 0.91639 0.27592 0.97182 0.0
C135 C 0.91331 0.25972 0.97051 0.0
C136 C 0.91608 0.24365 0.988 0.0
C137 C 0.92166 0.24391 1.00907 0.0
C138 C 0.94454 0.21836 0.08367 0.0
C139 C 0.94663 0.24422 0.90771 0.0
O140 O 0.96013 0.22843 0.06899 0.0
O141 O 0.96216 0.25522 0.03232 0.0
O142 O 0.95343 0.27286 0.97904 0.0
O143 O 0.94792 0.27306 0.06029 0.0
O144 O 0.95178 0.24882 0.15769 0.0
O145 O 0.94317 0.26226 0.15814 0.0
O146 O 0.93413 0.27138 1.02126 0.0
O147 O 0.93207 0.24705 0.07618 0.0
O148 O 0.94076 0.22699 0.1163 0.0
O149 O 0.94628 0.2276 0.03544 0.0
O150 O 0.94234 0.25105 0.94049 0.0
O151 O 0.95116 0.23886 0.93924 0.0
H152 H 0.97121 0.21239 0.07751 0.0
H153 H 0.98036 0.2134 0.13052 0.0
H154 H 0.97798 0.26991 0.17283 0.0
H155 H 0.96876 0.26868 0.1213 0.0
H156 H 0.92413 0.28897 0.99583 0.0
H157 H 0.91446 0.28853 0.95766 0.0
H158 H 0.91386 0.23093 0.98827 0.0
H159 H 0.92356 0.23138 1.02471 0.0
Nd160 Nd 0.6913 0.74312 0.80429 0.0
Nd161 Nd 0.70363 0.74865 0.79519 0.0
C162 C 0.68063 0.73319 0.79601 0.0
C163 C 0.67505 0.73502 0.76458 0.0
C164 C 0.67241 0.71965 0.73881 0.0
C165 C 0.66681 0.72026 0.71853 0.0
C166 C 0.66369 0.73625 0.72388 0.0
C167 C 0.66641 0.75182 0.74749 0.0
C168 C 0.67201 0.75121 0.76762 0.0
C169 C 0.69466 0.77801 0.8304 0.0
C170 C 0.69699 0.75169 0.65802 0.0
C171 C 0.71442 0.75717 0.80412 0.0
C172 C 0.71957 0.75698 0.84464 0.0
C173 C 0.72354 0.77067 0.83552 0.0
C174 C 0.72878 0.76974 0.86607 0.0
C175 C 0.7302 0.75503 0.90667 0.0
C176 C 0.72613 0.74157 0.91738 0.0
C177 C 0.72088 0.74252 0.88667 0.0
C178 C 0.70013 0.71435 0.76412 0.0
C179 C 0.69798 0.74031 0.94071 0.0
O180 O 0.68464 0.72494 0.76454 0.0
O181 O 0.68244 0.74635 0.83284 0.0
O182 O 0.69079 0.76954 0.86235 0.0
O183 O 0.69653 0.76842 0.78405 0.0
O184 O 0.69271 0.74474 0.69091 0.0
O185 O 0.7015 0.75727 0.68945 0.0
O186 O 0.71041 0.76843 0.81896 0.0
O187 O 0.71255 0.74171 0.78286 0.0
O188 O 0.70389 0.72326 0.73188 0.0
O189 O 0.69837 0.72331 0.81294 0.0
O190 O 0.70211 0.74815 0.90821 0.0
O191 O 0.69363 0.73377 0.90864 0.0
H192 H 0.67461 0.70692 0.73676 0.0
H193 H 0.66487 0.70795 0.70133 0.0
H194 H 0.66417 0.76445 0.75136 0.0
H195 H 0.6739 0.76331 0.78744 0.0
H196 H 0.72266 0.78185 0.80276 0.0
H197 H 0.7318 0.78025 0.85571 0.0
H198 H 0.72702 0.73018 0.94905 0.0
H199 H 0.7179 0.73174 0.89452 0.0
Nd200 Nd 0.07618 0.00259 0.80692 0.0
Nd201 Nd 0.06383 0.99758 0.79775 0.0
C202 C 0.08693 0.01166 0.79912 0.0
C203 C 0.09247 0.01043 0.76622 0.0
C204 C 0.09527 0.02635 0.7484 0.0
C205 C 0.10085 0.02595 0.72764 0.0
C206 C 0.1038 0.00957 0.72436 0.0
C207 C 0.10092 0.99353 0.7396 0.0
C208 C 0.09533 0.99395 0.76045 0.0
C209 C 0.07263 0.96803 0.83547 0.0
C210 C 0.07048 0.99405 0.66079 0.0
C211 C 0.053 0.98972 0.80704 0.0
C212 C 0.04784 0.98986 0.8476 0.0
C213 C 0.04424 0.97492 0.84547 0.0
C214 C 0.03895 0.97558 0.87482 0.0
C215 C 0.03709 0.99127 0.90702 0.0
C216 C 0.0408 0.00601 0.91135 0.0
C217 C 0.0461 0.00533 0.88189 0.0
C218 C 0.06747 0.03151 0.76403 0.0
C219 C 0.06954 0.00585 0.94329 0.0
O220 O 0.08295 0.02122 0.7723 0.0
O221 O 0.08506 0.99758 0.8308 0.0
O222 O 0.07646 0.97656 0.86778 0.0
O223 O 0.07084 0.97746 0.78807 0.0
O224 O 0.07477 0.00086 0.69357 0.0
O225 O 0.06593 0.98871 0.69229 0.0
O226 O 0.05694 0.97805 0.82026 0.0
O227 O 0.05496 0.00519 0.78685 0.0
O228 O 0.06371 0.02254 0.7321 0.0
O229 O 0.06919 0.02279 0.81377 0.0
O230 O 0.06536 0.99828 0.91082 0.0
O231 O 0.07394 0.01201 0.91127 0.0
H232 H 0.09319 0.03926 0.75282 0.0
H233 H 0.10288 0.03855 0.71523 0.0
H234 H 0.10305 0.98067 0.73821 0.0
H235 H 0.09332 0.98142 0.77432 0.0
H236 H 0.04546 0.96287 0.81912 0.0
H237 H 0.03628 0.96384 0.87143 0.0
H238 H 0.03953 0.01837 0.93524 0.0
H239 H 0.04876 0.01713 0.88412 0.0
Nd240 Nd 0.69087 0.00182 1.00016 0.0
Nd241 Nd 0.70322 0.9978 1.00966 0.0
C242 C 0.68002 0.00961 1.00672 0.0
C243 C 0.67453 0.00907 0.04109 0.0
C244 C 0.67186 0.02529 0.05769 0.0
C245 C 0.6663 0.02539 0.07919 0.0
C246 C 0.66322 0.00924 0.08431 0.0
C247 C 0.66598 0.99293 0.07026 0.0
C248 C 0.67155 0.99284 0.0488 0.0
C249 C 0.69468 0.96783 0.96877 0.0
C250 C 0.69659 0.99364 0.14648 0.0
C251 C 0.71411 0.99104 1.00093 0.0
C252 C 0.71926 0.99077 0.96002 0.0
C253 C 0.72288 0.97596 0.96465 0.0
C254 C 0.72817 0.9764 0.93516 0.0
C255 C 0.73 0.99175 0.90033 0.0
C256 C 0.72627 0.00631 0.89349 0.0
C257 C 0.72097 0.00585 0.92306 0.0
C258 C 0.69934 0.03127 0.04505 0.0
C259 C 0.69749 0.00568 0.8638 0.0
O260 O 0.68393 0.02068 1.02663 0.0
O261 O 0.68202 0.99465 0.98265 0.0
O262 O 0.69088 0.97642 0.93618 0.0
O263 O 0.69636 0.97699 1.01742 0.0
O264 O 0.69225 0.00013 0.11357 0.0
O265 O 0.70118 0.98875 0.11516 0.0
O266 O 0.71029 0.97864 0.99234 0.0
O267 O 0.71201 0.00671 1.01615 0.0
O268 O 0.70312 0.02239 0.07692 0.0
O269 O 0.6977 0.02267 0.9947 0.0
O270 O 0.70172 -0.00152 0.89647 0.0
O271 O 0.69302 0.01134 0.89557 0.0
H272 H 0.67402 0.03804 0.05167 0.0
H273 H 0.66438 0.0382 0.09063 0.0
H274 H 0.66376 0.98023 0.07293 0.0
H275 H 0.67344 0.98008 0.03579 0.0
H276 H 0.72168 0.9642 0.99311 0.0
H277 H 0.73086 0.96478 0.94055 0.0
H278 H 0.72753 0.01842 0.86754 0.0
H279 H 0.7183 0.01755 0.91886 0.0
Nd280 Nd 0.07626 0.74328 1.0028 0.0
Nd281 Nd 0.06394 0.74902 1.0119 0.0
C282 C 0.08695 0.73353 1.01154 0.0
C283 C 0.09254 0.73558 0.0427 0.0
C284 C 0.09508 0.72058 0.07254 0.0
C285 C 0.10068 0.72122 0.0926 0.0
C286 C 0.10392 0.73687 0.08308 0.0
C287 C 0.10131 0.75212 0.05549 0.0
C288 C 0.0957 0.75148 0.03542 0.0
C289 C 0.07297 0.77812 0.9752 0.0
C290 C 0.07059 0.75209 0.14888 0.0
C291 C 0.05318 0.75771 1.00181 0.0
C292 C 0.048 0.75709 0.96156 0.0
C293 C 0.0446 0.77247 0.95798 0.0
C294 C 0.0393 0.77168 0.92868 0.0
C295 C 0.03724 0.75544 0.90226 0.0
C296 C 0.04074 0.74019 0.90372 0.0
C297 C 0.04605 0.74099 0.9331 0.0
C298 C 0.06735 0.71472 0.04406 0.0
C299 C 0.06958 0.74025 0.86656 0.0
O300 O 0.08294 0.72534 0.04356 0.0
O301 O 0.08512 0.74649 0.97383 0.0
O302 O 0.07679 0.76949 0.94332 0.0
O303 O 0.07109 0.76871 1.02218 0.0
O304 O 0.07483 0.74496 0.11612 0.0
O305 O 0.06611 0.75785 0.11728 0.0
O306 O 0.05722 0.76865 0.98473 0.0
O307 O 0.05501 0.74258 1.02654 0.0
O308 O 0.06362 0.72375 0.07601 0.0
O309 O 0.06914 0.72353 0.99492 0.0
O310 O 0.06546 0.74817 0.8989 0.0
O311 O 0.07392 0.73372 0.89878 0.0
H312 H 0.09278 0.7081 0.07832 0.0
H313 H 0.1025 0.7093 0.11466 0.0
H314 H 0.10366 0.76437 0.04673 0.0
H315 H 0.09391 0.76325 1.01202 0.0
H316 H 0.04598 0.78503 0.97977 0.0
H317 H 0.0368 0.78381 0.9275 0.0
H318 H 0.03931 0.7274 0.88444 0.0
H319 H 0.04855 0.72885 0.93536 0.0
Nd320 Nd 0.31355 0.74868 0.76201 0.0
Nd321 Nd 0.32592 0.75201 0.75259 0.0
C322 C 0.30262 0.74234 0.75329 0.0
C323 C 0.29751 0.74185 0.71183 0.0
C324 C 0.29365 0.72777 0.7207 0.0
C325 C 0.28841 0.72825 0.69008 0.0
C326 C 0.28686 0.7429 0.64983 0.0
C327 C 0.29081 0.75668 0.63909 0.0
C328 C 0.29607 0.75617 0.6697 0.0
C329 C 0.31758 0.78186 0.79922 0.0
C330 C 0.31932 0.75633 0.61602 0.0
C331 C 0.33685 0.75845 0.75812 0.0
C332 C 0.34231 0.75894 0.79314 0.0
C333 C 0.3455 0.77483 0.7919 0.0
C334 C 0.35106 0.7749 0.81384 0.0
C335 C 0.35359 0.75901 0.83733 0.0
C336 C 0.3503 0.74326 0.84103 0.0
C337 C 0.34474 0.74321 0.81916 0.0
C338 C 0.32183 0.71851 0.71894 0.0
C339 C 0.32017 0.74439 0.89884 0.0
O340 O 0.30638 0.72967 0.74698 0.0
O341 O 0.3048 0.75807 0.76617 0.0
O342 O 0.31373 0.77307 0.83027 0.0
O343 O 0.31921 0.77334 0.7487 0.0
O344 O 0.31501 0.74958 0.64876 0.0
O345 O 0.32388 0.76139 0.64759 0.0
O346 O 0.33311 0.77093 0.76876 0.0
O347 O 0.33466 0.74279 0.74441 0.0
O348 O 0.32561 0.72714 0.68607 0.0
O349 O 0.32027 0.72747 0.76859 0.0
O350 O 0.32451 0.75088 0.86598 0.0
O351 O 0.31557 0.73952 0.86743 0.0
H352 H 0.29462 0.71668 0.75352 0.0
H353 H 0.28548 0.71748 0.70027 0.0
H354 H 0.28982 0.76803 0.60762 0.0
H355 H 0.29895 0.76725 0.66187 0.0
H356 H 0.34378 0.78708 0.7712 0.0
H357 H 0.35344 0.78725 0.8095 0.0
H358 H 0.35206 0.73083 0.85982 0.0
H359 H 0.34242 0.73069 0.82061 0.0
Nd360 Nd 0.95323 0.49882 0.75885 0.0
Nd361 Nd 0.94087 0.49407 0.74973 0.0
C362 C 0.96405 0.50693 0.74904 0.0
C363 C 0.96924 0.50628 0.70887 0.0
C364 C 0.97267 0.5216 0.70573 0.0
C365 C 0.97797 0.52077 0.67656 0.0
C366 C 0.98 0.50454 0.64982 0.0
C367 C 0.97645 0.48934 0.65081 0.0
C368 C 0.97114 0.49019 0.68009 0.0
C369 C 0.94959 0.46474 0.79116 0.0
C370 C 0.94751 0.49065 0.61321 0.0
C371 C 0.93007 0.48548 0.75672 0.0
C372 C 0.92456 0.48642 0.79002 0.0
C373 C 0.9214 0.47058 0.79716 0.0
C374 C 0.91584 0.47123 0.81855 0.0
C375 C 0.91326 0.4878 0.83332 0.0
C376 C 0.91651 0.50363 0.82837 0.0
C377 C 0.92208 0.50296 0.80689 0.0
C378 C 0.94454 0.5285 0.72159 0.0
C379 C 0.9466 0.50221 0.89583 0.0
O380 O 0.96008 0.51818 0.73277 0.0
O381 O 0.96213 0.49178 0.77275 0.0
O382 O 0.95342 0.47349 0.82268 0.0
O383 O 0.94783 0.47372 0.74223 0.0
O384 O 0.95173 0.49793 0.64576 0.0
O385 O 0.94305 0.48479 0.64506 0.0
O386 O 0.93402 0.47526 0.78096 0.0
O387 O 0.932 0.50002 0.72844 0.0
O388 O 0.94073 0.52006 0.68863 0.0
O389 O 0.94626 0.51901 0.7692 0.0
O390 O 0.9423 0.49538 0.86306 0.0
O391 O 0.95112 0.50768 0.86429 0.0
H392 H 0.97132 0.53415 0.72777 0.0
H393 H 0.98051 0.53285 0.67574 0.0
H394 H 0.97786 0.47657 0.63125 0.0
H395 H 0.96861 0.47809 0.68201 0.0
H396 H 0.92317 0.45768 0.78362 0.0
H397 H 0.91349 0.45877 0.82081 0.0
H398 H 0.91472 0.51662 0.8403 0.0
H399 H 0.92439 0.51544 0.80172 0.0
Nd400 Nd 0.31362 0.49915 0.54706 0.0
Nd401 Nd 0.32597 0.49399 0.55606 0.0
C402 C 0.30287 0.50789 0.55802 0.0
C403 C 0.29767 0.50631 0.5978 0.0
C404 C 0.29441 0.52173 0.60884 0.0
C405 C 0.28914 0.52038 0.63846 0.0
C406 C 0.28696 0.50353 0.65766 0.0
C407 C 0.29031 0.48814 0.64837 0.0
C408 C 0.2956 0.4895 0.61883 0.0
C409 C 0.31709 0.4648 0.51663 0.0
C410 C 0.31934 0.49072 0.69274 0.0
C411 C 0.33672 0.48497 0.54869 0.0
C412 C 0.34226 0.48611 0.51582 0.0
C413 C 0.34536 0.47027 0.50686 0.0
C414 C 0.35093 0.471 0.48573 0.0
C415 C 0.35356 0.48764 0.47303 0.0
C416 C 0.35037 0.50349 0.47983 0.0
C417 C 0.34479 0.50274 0.50106 0.0
C418 C 0.32245 0.52863 0.5826 0.0
C419 C 0.32025 0.50228 0.41003 0.0
O420 O 0.30691 0.51822 0.57916 0.0
O421 O 0.30468 0.49345 0.52837 0.0
O422 O 0.31323 0.47349 0.48537 0.0
O423 O 0.31893 0.47391 0.56477 0.0
O424 O 0.31513 0.49806 0.66013 0.0
O425 O 0.32377 0.48478 0.66092 0.0
O426 O 0.33274 0.47526 0.52255 0.0
O427 O 0.33486 0.49922 0.57912 0.0
O428 O 0.32626 0.52019 0.61562 0.0
O429 O 0.32067 0.51905 0.53559 0.0
O430 O 0.32451 0.49518 0.44279 0.0
O431 O 0.31578 0.50808 0.44169 0.0
H432 H 0.29587 0.53482 0.59247 0.0
H433 H 0.28668 0.53252 0.64396 0.0
H434 H 0.28884 0.47497 0.66341 0.0
H435 H 0.298 0.47734 0.61104 0.0
H436 H 0.34354 0.45729 0.51876 0.0
H437 H 0.35324 0.4585 0.48201 0.0
H438 H 0.35221 0.51654 0.46952 0.0
H439 H 0.34252 0.51522 0.50767 0.0
Nd440 Nd 0.95352 0.74779 0.54685 0.0
Nd441 Nd 0.9412 0.75307 0.55588 0.0
C442 C 0.9643 0.7393 0.55712 0.0
C443 C 0.96948 0.74006 0.59735 0.0
C444 C 0.97289 0.72473 0.60131 0.0
C445 C 0.97819 0.72563 0.63064 0.0
C446 C 0.98023 0.74195 0.65671 0.0
C447 C 0.97671 0.75716 0.65488 0.0
C448 C 0.97141 0.75624 0.62545 0.0
C449 C 0.95004 0.78205 0.51471 0.0
C450 C 0.94785 0.75637 0.69231 0.0
C451 C 0.93046 0.7622 0.54786 0.0
C452 C 0.92492 0.76079 0.51494 0.0
C453 C 0.92227 0.77653 0.49265 0.0
C454 C 0.91669 0.77615 0.4717 0.0
C455 C 0.91359 0.75999 0.47276 0.0
C456 C 0.91633 0.74409 0.49259 0.0
C457 C 0.92191 0.74448 0.51355 0.0
C458 C 0.94467 0.71849 0.58438 0.0
C459 C 0.94688 0.74451 0.40984 0.0
O460 O 0.96028 0.72833 0.57453 0.0
O461 O 0.96245 0.75434 0.53197 0.0
O462 O 0.95383 0.77316 0.48314 0.0
O463 O 0.94824 0.77312 0.56358 0.0
O464 O 0.95202 0.74877 0.65991 0.0
O465 O 0.94345 0.76253 0.66023 0.0
O466 O 0.93446 0.7716 0.52041 0.0
O467 O 0.93232 0.74828 0.58047 0.0
O468 O 0.94088 0.72712 0.61694 0.0
O469 O 0.94646 0.72784 0.53669 0.0
O470 O 0.94262 0.75151 0.44258 0.0
O471 O 0.95138 0.73891 0.44145 0.0
H472 H 0.97153 0.71212 0.57981 0.0
H473 H 0.98071 0.71354 0.63212 0.0
H474 H 0.97813 0.76999 0.6739 0.0
H475 H 0.96889 0.76834 0.6229 0.0
H476 H 0.92445 0.78933 0.49367 0.0
H477 H 0.91477 0.78862 0.4557 0.0
H478 H 0.91409 0.73141 0.49471 0.0
H479 H 0.9238 0.73211 0.53096 0.0
Nd480 Nd 0.69098 0.24351 0.30274 0.0
Nd481 Nd 0.70332 0.24835 0.2936 0.0
C482 C 0.68022 0.23457 0.2951 0.0
C483 C 0.67469 0.23598 0.2621 0.0
C484 C 0.67192 0.22017 0.2426 0.0
C485 C 0.66634 0.22068 0.22165 0.0
C486 C 0.66336 0.23703 0.21989 0.0
C487 C 0.66622 0.25298 0.23686 0.0
C488 C 0.67181 0.25246 0.25787 0.0
C489 C 0.69456 0.27798 0.33143 0.0
C490 C 0.69669 0.25195 0.15647 0.0
C491 C 0.71416 0.25602 0.30258 0.0
C492 C 0.71929 0.25621 0.3437 0.0
C493 C 0.72326 0.26983 0.33342 0.0
C494 C 0.7285 0.26911 0.36426 0.0
C495 C 0.7299 0.25469 0.4063 0.0
C496 C 0.72582 0.24134 0.41826 0.0
C497 C 0.72058 0.24208 0.3873 0.0
C498 C 0.69963 0.2144 0.26061 0.0
C499 C 0.69762 0.24024 0.43917 0.0
O500 O 0.68419 0.22502 0.26813 0.0
O501 O 0.68211 0.24856 0.32699 0.0
O502 O 0.69073 0.26944 0.36375 0.0
O503 O 0.69634 0.26861 0.28392 0.0
O504 O 0.69237 0.2453 0.18936 0.0
O505 O 0.70126 0.25709 0.18783 0.0
O506 O 0.71025 0.26793 0.31351 0.0
O507 O 0.71218 0.24035 0.28519 0.0
O508 O 0.7034 0.22331 0.22847 0.0
O509 O 0.69793 0.2232 0.31012 0.0
O510 O 0.70179 0.24787 0.40665 0.0
O511 O 0.69323 0.23401 0.40714 0.0
H512 H 0.67401 0.20726 0.24583 0.0
H513 H 0.66433 0.20816 0.20788 0.0
H514 H 0.66408 0.26582 0.23671 0.0
H515 H 0.67379 0.2649 0.27306 0.0
H516 H 0.7224 0.28075 0.29946 0.0
H517 H 0.73152 0.27952 0.35296 0.0
H518 H 0.7267 0.23018 0.45107 0.0
H519 H 0.71759 0.23136 0.39611 0.0
Nd520 Nd 0.07624 0.5011 0.30373 0.0
Nd521 Nd 0.06383 0.49796 0.29461 0.0
C522 C 0.08719 0.50713 0.29776 0.0
C523 C 0.09263 0.5085 0.26269 0.0
C524 C 0.09571 0.52461 0.26615 0.0
C525 C 0.10127 0.52533 0.24452 0.0
C526 C 0.10392 0.50991 0.21909 0.0
C527 C 0.10075 0.49398 0.21295 0.0
C528 C 0.09519 0.49327 0.2346 0.0
C529 C 0.0721 0.46767 0.33786 0.0
C530 C 0.07042 0.49386 0.15783 0.0
C531 C 0.05291 0.49153 0.30385 0.0
C532 C 0.04777 0.49149 0.34502 0.0
C533 C 0.04438 0.47602 0.34656 0.0
C534 C 0.0391 0.47639 0.37627 0.0
C535 C 0.03703 0.4923 0.40508 0.0
C536 C 0.04052 0.50761 0.40567 0.0
C537 C 0.04582 0.50723 0.37595 0.0
C538 C 0.06792 0.53116 0.25805 0.0
C539 C 0.06966 0.50539 0.44064 0.0
O540 O 0.08349 0.52005 0.29305 0.0
O541 O 0.08494 0.49124 0.30565 0.0
O542 O 0.0759 0.47623 0.37057 0.0
O543 O 0.07053 0.47668 0.28827 0.0
O544 O 0.07474 0.50056 0.19049 0.0
O545 O 0.06587 0.48872 0.18944 0.0
O546 O 0.05669 0.47906 0.31296 0.0
O547 O 0.05507 0.50707 0.28752 0.0
O548 O 0.06401 0.52258 0.22718 0.0
O549 O 0.06954 0.52246 0.3083 0.0
O550 O 0.0653 0.49909 0.40783 0.0
O551 O 0.07428 0.51003 0.40931 0.0
H552 H 0.09388 0.53652 0.28811 0.0
H553 H 0.10352 0.53793 0.24898 0.0
H554 H 0.10264 0.48177 0.19423 0.0
H555 H 0.09297 0.48056 0.23175 0.0
H556 H 0.04576 0.46374 0.32278 0.0
H557 H 0.0366 0.46422 0.3758 0.0
H558 H 0.03908 0.52016 0.42675 0.0
H559 H 0.04829 0.51945 0.3753 0.0
Nd560 Nd 0.69052 0.50098 0.50207 0.0
Nd561 Nd 0.70296 0.49859 0.51095 0.0
C562 C 0.67954 0.50625 0.5081 0.0
C563 C 0.67408 0.50805 0.54268 0.0
C564 C 0.67107 0.52424 0.53772 0.0
C565 C 0.66551 0.52527 0.55895 0.0
C566 C 0.66277 0.51008 0.58542 0.0
C567 C 0.66587 0.49407 0.59293 0.0
C568 C 0.67144 0.49305 0.57173 0.0
C569 C 0.69483 0.46779 0.46795 0.0
C570 C 0.69639 0.4942 0.64792 0.0
C571 C 0.71392 0.49298 0.50195 0.0
C572 C 0.71905 0.49254 0.46062 0.0
C573 C 0.72247 0.47717 0.46187 0.0
C574 C 0.72776 0.47733 0.4321 0.0
C575 C 0.72979 0.49293 0.40045 0.0
C576 C 0.72627 0.5081 0.3971 0.0
C577 C 0.72098 0.50792 0.42685 0.0
C578 C 0.69872 0.53135 0.54896 0.0
C579 C 0.69706 0.50548 0.36489 0.0
O580 O 0.68315 0.51951 0.50804 0.0
O581 O 0.68189 0.4904 0.50514 0.0
O582 O 0.69095 0.47609 0.43547 0.0
O583 O 0.69636 0.47694 0.51725 0.0
O584 O 0.69204 0.50069 0.61524 0.0
O585 O 0.70097 0.4893 0.61634 0.0
O586 O 0.71023 0.48001 0.49692 0.0
O587 O 0.71166 0.50862 0.514 0.0
O588 O 0.70267 0.52291 0.57941 0.0
O589 O 0.69712 0.52277 0.49836 0.0
O590 O 0.70146 0.4995 0.39776 0.0
O591 O 0.69242 0.50981 0.39613 0.0
H592 H 0.67296 0.53598 0.51495 0.0
H593 H 0.66332 0.53793 0.55338 0.0
H594 H 0.66392 0.48202 0.61243 0.0
H595 H 0.67359 0.48027 0.57567 0.0
H596 H 0.72113 0.46517 0.48789 0.0
H597 H 0.73028 0.46526 0.43478 0.0
H598 H 0.72768 0.52042 0.37381 0.0
H599 H 0.71848 0.52007 0.42531 0.0
Nd600 Nd 0.07601 0.24305 0.50236 0.0
Nd601 Nd 0.06366 0.24849 0.51131 0.0
C602 C 0.08671 0.23351 0.51017 0.0
C603 C 0.09226 0.23502 0.54242 0.0
C604 C 0.09536 0.21929 0.55381 0.0
C605 C 0.10093 0.22025 0.57477 0.0
C606 C 0.10356 0.23702 0.58485 0.0
C607 C 0.10037 0.25278 0.57556 0.0
C608 C 0.09479 0.2518 0.55451 0.0
C609 C 0.0726 0.27786 0.47589 0.0
C610 C 0.07031 0.25152 0.64839 0.0
C611 C 0.0529 0.25719 0.50113 0.0
C612 C 0.04772 0.25644 0.46092 0.0
C613 C 0.04435 0.27186 0.45611 0.0
C614 C 0.03906 0.27102 0.42672 0.0
C615 C 0.03697 0.25467 0.40143 0.0
C616 C 0.04045 0.23936 0.40411 0.0
C617 C 0.04575 0.24022 0.4336 0.0
C618 C 0.06712 0.21419 0.54262 0.0
C619 C 0.06934 0.24007 0.36583 0.0
O620 O 0.0827 0.22454 0.53927 0.0
O621 O 0.08488 0.24727 0.47639 0.0
O622 O 0.07644 0.26943 0.4435 0.0
O623 O 0.07076 0.26823 0.52248 0.0
O624 O 0.07457 0.24447 0.61566 0.0
O625 O 0.06582 0.25723 0.61678 0.0
O626 O 0.05694 0.26804 0.48333 0.0
O627 O 0.05472 0.24217 0.52672 0.0
O628 O 0.06332 0.22301 0.57424 0.0
O629 O 0.06892 0.22318 0.4939 0.0
O630 O 0.06518 0.24769 0.39828 0.0
O631 O 0.07373 0.2338 0.39785 0.0
H632 H 0.09354 0.20619 0.54402 0.0
H633 H 0.10324 0.20781 0.58044 0.0
H634 H 0.10221 0.26593 0.58382 0.0
H635 H 0.09252 0.26419 0.546 0.0
H636 H 0.04575 0.28452 0.477 0.0
H637 H 0.03658 0.28318 0.42456 0.0
H638 H 0.03899 0.2265 0.3857 0.0
H639 H 0.04822 0.22805 0.4368 0.0
Nd640 Nd 0.81358 0.24841 0.76232 0.0
Nd641 Nd 0.82595 0.25235 0.75286 0.0
C642 C 0.80268 0.24153 0.7539 0.0
C643 C 0.79756 0.24108 0.71268 0.0
C644 C 0.79359 0.22748 0.72378 0.0
C645 C 0.78835 0.22805 0.69302 0.0
C646 C 0.78693 0.2423 0.65031 0.0
C647 C 0.791 0.25561 0.63747 0.0
C648 C 0.79625 0.25501 0.66831 0.0
C649 C 0.81748 0.28191 0.79742 0.0
C650 C 0.81931 0.25609 0.61644 0.0
C651 C 0.83681 0.26004 0.75866 0.0
C652 C 0.84232 0.2597 0.79254 0.0
C653 C 0.84545 0.27567 0.79663 0.0
C654 C 0.85102 0.27537 0.81791 0.0
C655 C 0.85362 0.25904 0.8355 0.0
C656 C 0.8504 0.24313 0.8338 0.0
C657 C 0.84482 0.24345 0.8125 0.0
C658 C 0.82205 0.21834 0.72271 0.0
C659 C 0.82022 0.24446 0.89926 0.0
O660 O 0.8065 0.22913 0.746 0.0
O661 O 0.80479 0.25729 0.76803 0.0
O662 O 0.81366 0.2731 0.82908 0.0
O663 O 0.81914 0.27324 0.7474 0.0
O664 O 0.81507 0.24896 0.64916 0.0
O665 O 0.8238 0.26171 0.64813 0.0
O666 O 0.83294 0.27131 0.77773 0.0
O667 O 0.83478 0.24491 0.73635 0.0
O668 O 0.82586 0.22678 0.68969 0.0
O669 O 0.82041 0.22767 0.77106 0.0
O670 O 0.82457 0.2509 0.8663 0.0
O671 O 0.81563 0.23954 0.86799 0.0
H672 H 0.79446 0.21671 0.75835 0.0
H673 H 0.78533 0.21767 0.70495 0.0
H674 H 0.79011 0.26663 0.60412 0.0
H675 H 0.79923 0.26571 0.65881 0.0
H676 H 0.84366 0.28835 0.78064 0.0
H677 H 0.85335 0.28788 0.81774 0.0
H678 H 0.85221 0.23034 0.84799 0.0
H679 H 0.84253 0.23087 0.80974 0.0
Nd680 Nd 0.45323 -0.0014 0.76189 0.0
Nd681 Nd 0.44088 0.99417 0.75254 0.0
C682 C 0.46408 0.0062 0.75283 0.0
C683 C 0.46924 0.00623 0.71207 0.0
C684 C 0.47287 0.02105 0.71565 0.0
C685 C 0.47815 0.02049 0.68598 0.0
C686 C 0.47995 0.00502 0.65197 0.0
C687 C 0.47621 0.99043 0.64621 0.0
C688 C 0.47092 0.991 0.67601 0.0
C689 C 0.44949 0.96475 0.79571 0.0
C690 C 0.44751 0.99062 0.61615 0.0
C691 C 0.43005 0.98594 0.75884 0.0
C692 C 0.42455 0.9866 0.79243 0.0
C693 C 0.42135 0.97077 0.79698 0.0
C694 C 0.41579 0.97131 0.81842 0.0
C695 C 0.41326 0.98776 0.83581 0.0
C696 C 0.41654 0.00354 0.83351 0.0
C697 C 0.42211 0.00298 0.81199 0.0
C698 C 0.44464 0.02843 0.72325 0.0
C699 C 0.44659 0.00221 0.89881 0.0
O700 O 0.46018 0.01807 0.74091 0.0
O701 O 0.46209 0.99064 0.77158 0.0
O702 O 0.45331 0.97357 0.82729 0.0
O703 O 0.44777 0.97358 0.74617 0.0
O704 O 0.45174 0.99788 0.64875 0.0
O705 O 0.44305 0.98483 0.64795 0.0
O706 O 0.43397 0.97525 0.78093 0.0
O707 O 0.43202 0.00078 0.73318 0.0
O708 O 0.44083 0.01995 0.69024 0.0
O709 O 0.44632 0.01902 0.7713 0.0
O710 O 0.44227 0.99557 0.86593 0.0
O711 O 0.45116 0.0074 0.86743 0.0
H712 H 0.4717 0.03292 0.74337 0.0
H713 H 0.48085 0.03213 0.69052 0.0
H714 H 0.47744 0.97824 0.62089 0.0
H715 H 0.46822 0.97931 0.67264 0.0
H716 H 0.42309 0.95801 0.78132 0.0
H717 H 0.41341 0.9589 0.81862 0.0
H718 H 0.41479 0.01641 0.84752 0.0
H719 H 0.42445 0.01545 0.80886 0.0
Nd720 Nd 0.81377 0.99841 0.54607 0.0
Nd721 Nd 0.82614 0.99463 0.55572 0.0
C722 C 0.80288 0.0052 0.55461 0.0
C723 C 0.79773 0.00552 0.59548 0.0
C724 C 0.79413 0.02038 0.59087 0.0
C725 C 0.78884 0.01999 0.62039 0.0
C726 C 0.78699 0.00467 0.65523 0.0
C727 C 0.79071 0.99005 0.66204 0.0
C728 C 0.796 0.99046 0.63244 0.0
C729 C 0.81768 0.96497 0.51067 0.0
C730 C 0.81951 0.99065 0.69208 0.0
C731 C 0.83702 0.98735 0.55008 0.0
C732 C 0.8425 0.9875 0.51561 0.0
C733 C 0.84562 0.97152 0.51223 0.0
C734 C 0.85118 0.97173 0.49056 0.0
C735 C 0.85378 0.98798 0.47193 0.0
C736 C 0.85058 0.00389 0.47289 0.0
C737 C 0.84501 0.00366 0.49452 0.0
C738 C 0.82221 0.02844 0.58731 0.0
C739 C 0.82042 0.00249 0.40931 0.0
O740 O 0.8067 0.0176 0.56315 0.0
O741 O 0.80498 0.98952 0.53952 0.0
O742 O 0.81386 0.97376 0.47906 0.0
O743 O 0.81934 0.97363 0.56079 0.0
O744 O 0.81525 0.99764 0.6593 0.0
O745 O 0.82401 0.98522 0.66049 0.0
O746 O 0.83318 0.97567 0.53349 0.0
O747 O 0.83495 0.00267 0.56994 0.0
O748 O 0.82599 0.01989 0.62035 0.0
O749 O 0.8206 0.0193 0.5383 0.0
O750 O 0.82475 0.996 0.44229 0.0
O751 O 0.81583 0.00743 0.44059 0.0
H752 H 0.79533 0.03212 0.56242 0.0
H753 H 0.78616 0.03164 0.61502 0.0
H754 H 0.78944 0.97797 0.68799 0.0
H755 H 0.79867 0.97873 0.63664 0.0
H756 H 0.84383 0.95891 0.52908 0.0
H757 H 0.8535 0.95923 0.49128 0.0
H758 H 0.85239 0.01662 0.45789 0.0
H759 H 0.84274 0.01626 0.49671 0.0
Nd760 Nd 0.45337 0.24802 0.54481 0.0
Nd761 Nd 0.44103 0.2525 0.55425 0.0
C762 C 0.46422 0.24049 0.55357 0.0
C763 C 0.46937 0.24056 0.59433 0.0
C764 C 0.47329 0.22673 0.58579 0.0
C765 C 0.47854 0.22761 0.61615 0.0
C766 C 0.48002 0.2424 0.65591 0.0
C767 C 0.476 0.25598 0.66617 0.0
C768 C 0.47074 0.25508 0.63571 0.0
C769 C 0.44966 0.28187 0.51082 0.0
C770 C 0.44769 0.25612 0.69056 0.0
C771 C 0.43022 0.26074 0.54794 0.0
C772 C 0.4247 0.26007 0.51431 0.0
C773 C 0.42167 0.2761 0.50601 0.0
C774 C 0.4161 0.27571 0.48484 0.0
C775 C 0.41339 0.25924 0.47162 0.0
C776 C 0.41651 0.24322 0.47754 0.0
C777 C 0.42209 0.24363 0.49869 0.0
C778 C 0.44475 0.21833 0.58468 0.0
C779 C 0.44672 0.2443 0.40799 0.0
O780 O 0.46031 0.22861 0.56577 0.0
O781 O 0.46223 0.25604 0.53498 0.0
O782 O 0.45344 0.27302 0.47911 0.0
O783 O 0.44795 0.27307 0.56045 0.0
O784 O 0.4519 0.24881 0.65798 0.0
O785 O 0.44324 0.26193 0.65871 0.0
O786 O 0.43414 0.27144 0.52592 0.0
O787 O 0.43217 0.24591 0.57368 0.0
O788 O 0.44097 0.22693 0.61753 0.0
O789 O 0.44644 0.22755 0.53614 0.0
O790 O 0.44241 0.25097 0.44084 0.0
O791 O 0.45128 0.23912 0.4394 0.0
H792 H 0.47237 0.21549 0.55354 0.0
H793 H 0.48152 0.21699 0.6062 0.0
H794 H 0.47694 0.26743 0.69723 0.0
H795 H 0.4678 0.26597 0.64316 0.0
H796 H 0.42354 0.28894 0.51858 0.0
H797 H 0.41384 0.28832 0.48167 0.0
H798 H 0.41462 0.2303 0.46678 0.0
H799 H 0.4243 0.23101 0.50475 0.0
Nd800 Nd 0.19116 0.74361 0.30224 0.0
Nd801 Nd 0.2034 0.75043 0.29472 0.0
C802 C 0.18045 0.73384 0.29517 0.0
C803 C 0.17492 0.7344 0.26238 0.0
C804 C 0.17153 0.71895 0.26416 0.0
C805 C 0.16597 0.71958 0.24279 0.0
C806 C 0.16363 0.73572 0.21888 0.0
C807 C 0.1671 0.75108 0.21506 0.0
C808 C 0.17267 0.75044 0.23671 0.0
C809 C 0.19426 0.77866 0.33022 0.0
C810 C 0.1968 0.75247 0.15688 0.0
C811 C 0.21395 0.76151 0.30672 0.0
C812 C 0.21921 0.75999 0.34477 0.0
C813 C 0.22317 0.77386 0.33987 0.0
C814 C 0.22842 0.77221 0.36966 0.0
C815 C 0.22986 0.7566 0.4054 0.0
C816 C 0.22581 0.74283 0.41139 0.0
C817 C 0.22055 0.74451 0.38135 0.0
C818 C 0.2006 0.71539 0.26446 0.0
C819 C 0.19775 0.74083 0.43962 0.0
O820 O 0.18449 0.7243 0.2697 0.0
O821 O 0.18223 0.74843 0.32417 0.0
O822 O 0.19062 0.76951 0.36339 0.0
O823 O 0.19615 0.76947 0.28287 0.0
O824 O 0.19263 0.74477 0.18928 0.0
O825 O 0.20116 0.75896 0.18896 0.0
O826 O 0.20972 0.76999 0.33309 0.0
O827 O 0.2124 0.74753 0.27236 0.0
O828 O 0.20454 0.72458 0.23664 0.0
O829 O 0.1984 0.72424 0.31125 0.0
O830 O 0.20191 0.74865 0.40752 0.0
O831 O 0.19338 0.73453 0.40734 0.0
H832 H 0.17313 0.70649 0.28458 0.0
H833 H 0.16345 0.70753 0.24759 0.0
H834 H 0.1655 0.76368 0.19601 0.0
H835 H 0.17518 0.7626 0.23495 0.0
H836 H 0.22225 0.78585 0.31134 0.0
H837 H 0.23141 0.78299 0.36279 0.0
H838 H 0.22672 0.73072 0.43917 0.0
H839 H 0.21756 0.73359 0.38575 0.0
Nd840 Nd 0.57588 0.00346 0.30111 0.0
Nd841 Nd 0.56353 -0.00066 0.29169 0.0
C842 C 0.58671 0.01153 0.29493 0.0
C843 C 0.59223 0.0108 0.26154 0.0
C844 C 0.59534 0.02673 0.25459 0.0
C845 C 0.60092 0.02623 0.23355 0.0
C846 C 0.60354 0.00973 0.21906 0.0
C847 C 0.60034 0.99382 0.22366 0.0
C848 C 0.59475 0.99433 0.24472 0.0
C849 C 0.57207 0.96931 0.33137 0.0
C850 C 0.57016 0.9954 0.1548 0.0
C851 C 0.55264 0.99227 0.30065 0.0
C852 C 0.54751 0.99193 0.34173 0.0
C853 C 0.5439 0.97705 0.33748 0.0
C854 C 0.53862 0.9774 0.36732 0.0
C855 C 0.5368 0.99269 0.40215 0.0
C856 C 0.54051 0.00733 0.40857 0.0
C857 C 0.5458 0.00698 0.37863 0.0
C858 C 0.56738 0.03301 0.25726 0.0
C859 C 0.56925 0.00709 0.43745 0.0
O860 O 0.58281 0.02227 0.27273 0.0
O861 O 0.58472 0.99673 0.32067 0.0
O862 O 0.57588 0.9778 0.36412 0.0
O863 O 0.57038 0.97864 0.28313 0.0
O864 O 0.5745 0.00187 0.18769 0.0
O865 O 0.56556 0.99048 0.18613 0.0
O866 O 0.55649 0.98001 0.30979 0.0
O867 O 0.55471 0.00796 0.2847 0.0
O868 O 0.56358 0.0242 0.2254 0.0
O869 O 0.56904 0.02424 0.30724 0.0
O870 O 0.56503 -0.00018 0.40485 0.0
O871 O 0.57371 0.01291 0.40559 0.0
H872 H 0.59353 0.03958 0.26812 0.0
H873 H 0.60323 0.03875 0.23146 0.0
H874 H 0.60217 0.98088 0.2119 0.0
H875 H 0.59248 0.98178 0.24973 0.0
H876 H 0.54509 0.96533 0.30908 0.0
H877 H 0.53594 0.96572 0.36225 0.0
H878 H 0.53926 0.0194 0.4345 0.0
H879 H 0.54847 0.01872 0.38255 0.0
Nd880 Nd 0.191 0.00313 0.50274 0.0
Nd881 Nd 0.20331 0.99803 0.51209 0.0
C882 C 0.18026 0.01225 0.51 0.0
C883 C 0.17472 0.011 0.54278 0.0
C884 C 0.17162 0.02681 0.55246 0.0
C885 C 0.16605 0.02601 0.5736 0.0
C886 C 0.16342 0.00933 0.58557 0.0
C887 C 0.16661 0.9935 0.57807 0.0
C888 C 0.17219 0.99432 0.55684 0.0
C889 C 0.19448 0.96849 0.4748 0.0
C890 C 0.19667 0.99461 0.64899 0.0
C891 C 0.21411 0.98979 0.50222 0.0
C892 C 0.21928 0.99047 0.46174 0.0
C893 C 0.22261 0.97499 0.45668 0.0
C894 C 0.22789 0.97577 0.42714 0.0
C895 C 0.23001 0.99211 0.40198 0.0
C896 C 0.22657 0.00749 0.40493 0.0
C897 C 0.22128 0.0067 0.43453 0.0
C898 C 0.19977 0.03217 0.54441 0.0
C899 C 0.19764 0.00645 0.36634 0.0
O900 O 0.18424 0.0218 0.53684 0.0
O901 O 0.18212 0.99811 0.47886 0.0
O902 O 0.19068 0.9771 0.44218 0.0
O903 O 0.19628 0.97791 0.52214 0.0
O904 O 0.1924 0.00156 0.61612 0.0
O905 O 0.20118 0.98909 0.61751 0.0
O906 O 0.21011 0.97861 0.48597 0.0
O907 O 0.21222 0.00492 0.52613 0.0
O908 O 0.20354 0.02324 0.57623 0.0
O909 O 0.19801 0.02333 0.49518 0.0
O910 O 0.20182 -0.00107 0.39896 0.0
O911 O 0.19323 0.01254 0.39822 0.0
H912 H 0.17344 0.03983 0.54112 0.0
H913 H 0.16375 0.03849 0.57788 0.0
H914 H 0.16478 0.98042 0.58782 0.0
H915 H 0.17446 0.98186 0.54969 0.0
H916 H 0.22119 0.96233 0.4775 0.0
H917 H 0.23035 0.96355 0.42479 0.0
H918 H 0.22805 0.02036 0.38667 0.0
H919 H 0.21883 0.01892 0.43793 0.0
Nd920 Nd 0.57643 0.74661 0.50157 0.0
Nd921 Nd 0.56323 0.74992 0.50526 0.0
C922 C 0.58738 0.74196 0.51165 0.0
C923 C 0.59277 0.73858 0.54602 0.0
C924 C 0.59571 0.72248 0.53511 0.0
C925 C 0.60126 0.72057 0.55648 0.0
C926 C 0.60404 0.7348 0.5888 0.0
C927 C 0.601 0.75062 0.60203 0.0
C928 C 0.59546 0.75248 0.58099 0.0
C929 C 0.57198 0.77958 0.46733 0.0
C930 C 0.56998 0.75019 0.64555 0.0
C931 C 0.55293 0.76296 0.49657 0.0
C932 C 0.54733 0.75989 0.46734 0.0
C933 C 0.54416 0.77482 0.4475 0.0
C934 C 0.53873 0.7726 0.42306 0.0
C935 C 0.53632 0.75534 0.41782 0.0
C936 C 0.53956 0.74032 0.43661 0.0
C937 C 0.54501 0.74257 0.4612 0.0
C938 C 0.56617 0.71389 0.51756 0.0
C939 C 0.56974 0.74217 0.36323 0.0
O940 O 0.58396 0.72872 0.49685 0.0
O941 O 0.58484 0.75735 0.52136 0.0
O942 O 0.57611 0.77198 0.43701 0.0
O943 O 0.57033 0.76989 0.51483 0.0
O944 O 0.57453 0.74514 0.61323 0.0
O945 O 0.56535 0.75502 0.61444 0.0
O946 O 0.55698 0.76772 0.45676 0.0
O947 O 0.55458 0.75206 0.54352 0.0
O948 O 0.56105 0.71952 0.51403 0.0
O949 O 0.56941 0.72715 0.51066 0.0
O950 O 0.56526 0.74854 0.39382 0.0
O951 O 0.57434 0.73771 0.39576 0.0
H952 H 0.5938 0.71159 0.5077 0.0
H953 H 0.6034 0.70805 0.54635 0.0
H954 H 0.60297 0.762 0.62591 0.0
H955 H 0.59337 0.7652 0.58953 0.0
H956 H 0.54587 0.7883 0.45159 0.0
H957 H 0.53643 0.78446 0.40804 0.0
H958 H 0.53785 0.72683 0.43381 0.0
H959 H 0.54736 0.73081 0.47616 0.0
Nd960 Nd 0.81393 0.74822 0.26065 0.0
Nd961 Nd 0.82629 0.75206 0.25124 0.0
C962 C 0.80303 0.74129 0.25218 0.0
C963 C 0.7979 0.74091 0.21107 0.0
C964 C 0.79396 0.7272 0.22154 0.0
C965 C 0.78872 0.72779 0.19093 0.0
C966 C 0.78727 0.74219 0.149 0.0
C967 C 0.79131 0.75561 0.13676 0.0
C968 C 0.79657 0.75499 0.16745 0.0
C969 C 0.81783 0.78176 0.29567 0.0
C970 C 0.81966 0.75599 0.11472 0.0
C971 C 0.83718 0.75932 0.25685 0.0
C972 C 0.84265 0.75937 0.29142 0.0
C973 C 0.84582 0.77532 0.29298 0.0
C974 C 0.85138 0.77519 0.31471 0.0
C975 C 0.85394 0.75905 0.33525 0.0
C976 C 0.85069 0.7432 0.33612 0.0
C977 C 0.84512 0.74335 0.31442 0.0
C978 C 0.82235 0.71827 0.21936 0.0
C979 C 0.82056 0.74427 0.39756 0.0
O980 O 0.80686 0.72894 0.24367 0.0
O981 O 0.80513 0.75702 0.2669 0.0
O982 O 0.814 0.77299 0.32718 0.0
O983 O 0.8195 0.77303 0.24579 0.0
O984 O 0.8154 0.749 0.14743 0.0
O985 O 0.82418 0.76141 0.14637 0.0
O986 O 0.83335 0.77113 0.27232 0.0
O987 O 0.83509 0.74389 0.23821 0.0
O988 O 0.82612 0.72686 0.18635 0.0
O989 O 0.82074 0.72736 0.26845 0.0
O990 O 0.82489 0.7508 0.36466 0.0
O991 O 0.81597 0.73928 0.36621 0.0
H992 H 0.79486 0.71631 0.25552 0.0
H993 H 0.78572 0.71732 0.20237 0.0
H994 H 0.7904 0.76675 0.10401 0.0
H995 H 0.79952 0.76578 0.15845 0.0
H996 H 0.84406 0.7878 0.27464 0.0
H997 H 0.85374 0.78763 0.31255 0.0
H998 H 0.85247 0.73058 0.35261 0.0
H999 H 0.84281 0.73079 0.31366 0.0
Nd1000 Nd 0.45316 0.49907 0.25895 0.0
Nd1001 Nd 0.44083 0.49389 0.24986 0.0
C1002 C 0.46395 0.50744 0.24799 0.0
C1003 C 0.46912 0.50624 0.20758 0.0
C1004 C 0.47223 0.52194 0.19504 0.0
C1005 C 0.47751 0.52099 0.16534 0.0
C1006 C 0.47985 0.50427 0.14757 0.0
C1007 C 0.47664 0.4886 0.15814 0.0
C1008 C 0.47135 0.48956 0.18782 0.0
C1009 C 0.44963 0.46489 0.29153 0.0
C1010 C 0.44746 0.49043 0.11342 0.0
C1011 C 0.43005 0.48505 0.2578 0.0
C1012 C 0.42453 0.48627 0.29104 0.0
C1013 C 0.42174 0.47035 0.30918 0.0
C1014 C 0.41616 0.47075 0.33013 0.0
C1015 C 0.4132 0.48711 0.33328 0.0
C1016 C 0.41607 0.50315 0.31771 0.0
C1017 C 0.42166 0.50273 0.29669 0.0
C1018 C 0.44437 0.5284 0.22097 0.0
C1019 C 0.44653 0.50245 0.39583 0.0
O1020 O 0.45994 0.51827 0.22932 0.0
O1021 O 0.46208 0.49269 0.27524 0.0
O1022 O 0.45343 0.47379 0.32305 0.0
O1023 O 0.44784 0.47375 0.24251 0.0
O1024 O 0.45166 0.49789 0.14587 0.0
O1025 O 0.44303 0.48444 0.1454 0.0
O1026 O 0.43403 0.47526 0.28367 0.0
O1027 O 0.43195 0.49924 0.22696 0.0
O1028 O 0.4406 0.51975 0.18818 0.0
O1029 O 0.44613 0.51909 0.26889 0.0
O1030 O 0.44227 0.49539 0.36314 0.0
O1031 O 0.45103 0.50812 0.36413 0.0
H1032 H 0.47065 0.53497 0.21004 0.0
H1033 H 0.47979 0.5334 0.15702 0.0
H1034 H 0.47829 0.47546 0.1458 0.0
H1035 H 0.46909 0.47717 0.19711 0.0
H1036 H 0.42382 0.45744 0.30484 0.0
H1037 H 0.41414 0.45814 0.34279 0.0
H1038 H 0.41394 0.516 0.31895 0.0
H1039 H 0.42365 0.51526 0.28257 0.0
Nd1040 Nd 0.81362 0.4988 0.04686 0.0
Nd1041 Nd 0.82599 0.49392 0.05583 0.0
C1042 C 0.80282 0.50695 0.05668 0.0
C1043 C 0.79763 0.50643 0.09692 0.0
C1044 C 0.79416 0.52166 0.09824 0.0
C1045 C 0.78886 0.52088 0.1274 0.0
C1046 C 0.78687 0.50479 0.15598 0.0
C1047 C 0.79045 0.48972 0.15683 0.0
C1048 C 0.79576 0.49051 0.12753 0.0
C1049 C 0.81721 0.46467 1.01529 0.0
C1050 C 0.81935 0.49061 0.1924 0.0
C1051 C 0.83675 0.48502 0.04794 0.0
C1052 C 0.84229 0.48644 1.0152 0.0
C1053 C 0.84503 0.47064 0.99521 0.0
C1054 C 0.85062 0.47112 0.97451 0.0
C1055 C 0.85364 0.48743 0.97345 0.0
C1056 C 0.85081 0.50337 0.99094 0.0
C1057 C 0.84522 0.50288 1.01173 0.0
C1058 C 0.82241 0.52847 0.08286 0.0
C1059 C 0.82024 0.50213 0.90966 0.0
O1060 O 0.8068 0.51824 0.07227 0.0
O1061 O 0.80471 0.49172 0.03376 0.0
O1062 O 0.81339 0.47342 0.9836 0.0
O1063 O 0.81899 0.47368 0.06397 0.0
O1064 O 0.81516 0.49806 0.15987 0.0
O1065 O 0.82377 0.48455 0.16046 0.0
O1066 O 0.83277 0.47551 1.02074 0.0
O1067 O 0.83486 0.49896 0.08009 0.0
O1068 O 0.82626 0.5201 0.11548 0.0
O1069 O 0.82064 0.5189 0.0358 0.0
O1070 O 0.82454 0.49536 0.94252 0.0
O1071 O 0.81572 0.50755 0.94113 0.0
H1072 H 0.79548 0.53407 0.07476 0.0
H1073 H 0.78629 0.53287 0.12676 0.0
H1074 H 0.78907 0.47706 0.17786 0.0
H1075 H 0.79832 0.4785 0.12704 0.0
H1076 H 0.84291 0.45776 0.99786 0.0
H1077 H 0.8526 0.4586 0.96034 0.0
H1078 H 0.85299 0.51617 0.99134 0.0
H1079 H 0.84326 0.5153 1.02733 0.0
Nd1080 Nd 0.45311 0.74762 0.04996 0.0
Nd1081 Nd 0.44079 0.7534 0.0585 0.0
C1082 C 0.46382 0.73853 0.06217 0.0
C1083 C 0.46894 0.73981 0.10353 0.0
C1084 C 0.4717 0.72397 0.12286 0.0
C1085 C 0.47692 0.72473 0.15411 0.0
C1086 C 0.47955 0.74139 0.16661 0.0
C1087 C 0.47669 0.75727 0.14906 0.0
C1088 C 0.47146 0.7565 0.11789 0.0
C1089 C 0.44979 0.78207 1.01853 0.0
C1090 C 0.44742 0.75642 0.19517 0.0
C1091 C 0.43011 0.76312 0.04944 0.0
C1092 C 0.42455 0.76139 1.01726 0.0
C1093 C 0.42192 0.77688 0.99249 0.0
C1094 C 0.41634 0.77632 0.97181 0.0
C1095 C 0.41321 0.76025 0.97561 0.0
C1096 C 0.41593 0.74455 0.99797 0.0
C1097 C 0.42153 0.74512 1.01868 0.0
C1098 C 0.44411 0.7185 0.08494 0.0
C1099 C 0.4465 0.74476 0.91267 0.0
O1100 O 0.45972 0.72815 0.08161 0.0
O1101 O 0.46208 0.75315 0.03287 0.0
O1102 O 0.45358 0.77313 0.98725 0.0
O1103 O 0.44792 0.77314 0.06697 0.0
O1104 O 0.45156 0.74867 0.1629 0.0
O1105 O 0.44305 0.76277 0.16294 0.0
O1106 O 0.43414 0.77168 1.01917 0.0
O1107 O 0.43191 0.74976 0.08549 0.0
O1108 O 0.44029 0.72703 0.11729 0.0
O1109 O 0.44597 0.72806 0.03827 0.0
O1110 O 0.44227 0.75198 0.94529 0.0
O1111 O 0.45096 0.73883 0.94448 0.0
H1112 H 0.46989 0.71091 0.11213 0.0
H1113 H 0.47893 0.71221 0.16783 0.0
H1114 H 0.47857 0.77035 0.15712 0.0
H1115 H 0.46948 0.76899 0.10331 0.0
H1116 H 0.42412 0.78963 0.99128 0.0
H1117 H 0.41444 0.78862 0.95381 0.0
H1118 H 0.41368 0.73195 1.0022 0.0
H1119 H 0.4234 0.73294 0.038 0.0
Nd1120 Nd 0.1908 0.24435 0.80742 0.0
Nd1121 Nd 0.2031 0.24923 0.79812 0.0
C1122 C 0.18003 0.23552 0.79989 0.0
C1123 C 0.1745 0.2366 0.7666 0.0
C1124 C 0.1717 0.22059 0.75016 0.0
C1125 C 0.16612 0.22092 0.7292 0.0
C1126 C 0.16318 0.2373 0.72431 0.0
C1127 C 0.16607 0.25341 0.73814 0.0
C1128 C 0.17166 0.25306 0.7592 0.0
C1129 C 0.19437 0.27887 0.83645 0.0
C1130 C 0.19647 0.25294 0.66118 0.0
C1131 C 0.21395 0.2569 0.80742 0.0
C1132 C 0.21911 0.25675 0.84812 0.0
C1133 C 0.22266 0.27181 0.84678 0.0
C1134 C 0.22796 0.27118 0.87618 0.0
C1135 C 0.22986 0.2554 0.90763 0.0
C1136 C 0.2262 0.24054 0.91119 0.0
C1137 C 0.22089 0.24119 0.88169 0.0
C1138 C 0.19946 0.21533 0.76399 0.0
C1139 C 0.19743 0.24093 0.94383 0.0
O1140 O 0.184 0.22565 0.77451 0.0
O1141 O 0.18192 0.2498 0.82995 0.0
O1142 O 0.19058 0.2702 0.86906 0.0
O1143 O 0.19613 0.26954 0.78873 0.0
O1144 O 0.19218 0.24612 0.69403 0.0
O1145 O 0.20102 0.25823 0.69266 0.0
O1146 O 0.21003 0.26867 0.82004 0.0
O1147 O 0.21197 0.24143 0.78775 0.0
O1148 O 0.20319 0.2244 0.73202 0.0
O1149 O 0.19775 0.22396 0.81394 0.0
O1150 O 0.20161 0.24847 0.91125 0.0
O1151 O 0.19301 0.23485 0.91187 0.0
H1152 H 0.17376 0.20769 0.75587 0.0
H1153 H 0.16408 0.20826 0.71791 0.0
H1154 H 0.16395 0.26627 0.7355 0.0
H1155 H 0.17367 0.26565 0.77198 0.0
H1156 H 0.22141 0.28395 0.82098 0.0
H1157 H 0.23059 0.28302 0.8734 0.0
H1158 H 0.22751 0.22811 0.93448 0.0
H1159 H 0.21827 0.22929 0.88331 0.0
Nd1160 Nd 0.5756 0.50638 0.80228 0.0
Nd1161 Nd 0.56341 0.49787 0.7952 0.0
C1162 C 0.58608 0.51818 0.7914 0.0
C1163 C 0.59173 0.51547 0.76267 0.0
C1164 C 0.59458 0.5303 0.73567 0.0
C1165 C 0.60018 0.52888 0.71653 0.0
C1166 C 0.60312 0.51255 0.72409 0.0
C1167 C 0.6002 0.49754 0.74926 0.0
C1168 C 0.59458 0.49897 0.76835 0.0
C1169 C 0.57306 0.47063 0.82741 0.0
C1170 C 0.56997 0.49681 0.65724 0.0
C1171 C 0.553 0.48564 0.80906 0.0
C1172 C 0.54768 0.48757 0.84609 0.0
C1173 C 0.54451 0.47212 0.86021 0.0
C1174 C 0.53918 0.47354 0.88815 0.0
C1175 C 0.53686 0.49051 0.90268 0.0
C1176 C 0.54013 0.50599 0.89039 0.0
C1177 C 0.54547 0.50454 0.86232 0.0
C1178 C 0.5658 0.53331 0.76552 0.0
C1179 C 0.56898 0.50822 0.93944 0.0
O1180 O 0.58203 0.52387 0.75365 0.0
O1181 O 0.58438 0.50679 0.83611 0.0
O1182 O 0.57681 0.47981 0.85859 0.0
O1183 O 0.57092 0.47996 0.78196 0.0
O1184 O 0.57401 0.5052 0.68949 0.0
O1185 O 0.56574 0.48951 0.68957 0.0
O1186 O 0.55729 0.47837 0.83867 0.0
O1187 O 0.55442 0.49875 0.76957 0.0
O1188 O 0.56192 0.52381 0.73814 0.0
O1189 O 0.56811 0.52459 0.81194 0.0
O1190 O 0.565 0.49944 0.90772 0.0
O1191 O 0.57317 0.51558 0.90662 0.0
H1192 H 0.59251 0.54324 0.73149 0.0
H1193 H 0.60228 0.54081 0.69816 0.0
H1194 H 0.60227 0.48466 0.75487 0.0
H1195 H 0.59251 0.48728 0.78908 0.0
H1196 H 0.54611 0.45888 0.84807 0.0
H1197 H 0.53686 0.4613 0.89793 0.0
H1198 H 0.53848 0.51929 0.90035 0.0
H1199 H 0.5478 0.51671 0.85176 0.0
Nd1200 Nd 0.19105 0.50477 0.99963 0.0
Nd1201 Nd 0.20329 0.49697 1.00666 0.0
C1202 C 0.18054 0.51616 1.01014 0.0
C1203 C 0.17489 0.51349 0.03911 0.0
C1204 C 0.17209 0.52833 0.06613 0.0
C1205 C 0.16648 0.52697 0.0855 0.0
C1206 C 0.16352 0.51068 0.07816 0.0
C1207 C 0.1664 0.49564 0.05295 0.0
C1208 C 0.17201 0.49702 0.03362 0.0
C1209 C 0.19373 0.46915 0.97563 0.0
C1210 C 0.19675 0.49582 0.14479 0.0
C1211 C 0.21372 0.48504 0.99271 0.0
C1212 C 0.21903 0.48729 0.95587 0.0
C1213 C 0.22233 0.47207 0.94312 0.0
C1214 C 0.22763 0.47384 0.91461 0.0
C1215 C 0.22979 0.49092 0.89806 0.0
C1216 C 0.22641 0.50615 0.90947 0.0
C1217 C 0.2211 0.50436 0.93804 0.0
C1218 C 0.20076 0.53248 0.03305 0.0
C1219 C 0.19764 0.50666 0.86222 0.0
O1220 O 0.18458 0.52216 0.04737 0.0
O1221 O 0.18225 0.5046 0.96626 0.0
O1222 O 0.18993 0.47807 0.94436 0.0
O1223 O 0.19586 0.47866 1.02072 0.0
O1224 O 0.19266 0.50392 0.11238 0.0
O1225 O 0.20101 0.48874 0.11266 0.0
O1226 O 0.20945 0.47784 0.96247 0.0
O1227 O 0.21227 0.49793 0.03282 0.0
O1228 O 0.20475 0.52349 0.06052 0.0
O1229 O 0.19846 0.52329 0.98798 0.0
O1230 O 0.20166 0.49812 0.89413 0.0
O1231 O 0.19344 0.51388 0.8949 0.0
H1232 H 0.17418 0.54125 0.07015 0.0
H1233 H 0.16442 0.53892 0.10386 0.0
H1234 H 0.1643 0.4828 0.04751 0.0
H1235 H 0.17405 0.48532 1.01286 0.0
H1236 H 0.22086 0.45878 0.95695 0.0
H1237 H 0.23011 0.4618 0.90757 0.0
H1238 H 0.22788 0.51951 0.89656 0.0
H1239 H 0.21864 0.51635 0.94726 0.0
Nd1240 Nd 0.57618 0.24583 0.9965 0.0
Nd1241 Nd 0.56386 0.25027 1.00608 0.0
C1242 C 0.58698 0.23748 1.00293 0.0
C1243 C 0.59248 0.23807 0.03678 0.0
C1244 C 0.59557 0.2221 0.04323 0.0
C1245 C 0.60113 0.2225 0.0649 0.0
C1246 C 0.60376 0.23893 0.08056 0.0
C1247 C 0.60058 0.25488 0.0764 0.0
C1248 C 0.59501 0.25446 0.0547 0.0
C1249 C 0.5725 0.28015 0.96654 0.0
C1250 C 0.57051 0.25412 0.14282 0.0
C1251 C 0.55299 0.25753 0.99761 0.0
C1252 C 0.54784 0.25759 0.95677 0.0
C1253 C 0.54393 0.27141 0.9657 0.0
C1254 C 0.53867 0.2706 0.93539 0.0
C1255 C 0.53719 0.25588 0.8953 0.0
C1256 C 0.5412 0.24232 0.88461 0.0
C1257 C 0.54647 0.24315 0.915 0.0
C1258 C 0.5676 0.21655 0.04088 0.0
C1259 C 0.56953 0.24232 0.86021 0.0
O1260 O 0.58304 0.22683 1.0249 0.0
O1261 O 0.58504 0.25233 0.97719 0.0
O1262 O 0.57627 0.27154 0.93368 0.0
O1263 O 0.57078 0.27083 1.0147 0.0
O1264 O 0.57482 0.24743 0.10995 0.0
O1265 O 0.56595 0.25926 0.11142 0.0
O1266 O 0.55686 0.26961 0.98669 0.0
O1267 O 0.55503 0.24191 1.0148 0.0
O1268 O 0.56386 0.22552 0.07287 0.0
O1269 O 0.56927 0.2252 0.99067 0.0
O1270 O 0.56533 0.24964 0.89288 0.0
O1271 O 0.57398 0.23646 0.89201 0.0
H1272 H 0.59375 0.20932 0.02888 0.0
H1273 H 0.60343 0.20996 0.06659 0.0
H1274 H 0.60242 0.26775 0.08905 0.0
H1275 H 0.59276 0.26704 0.05009 0.0
H1276 H 0.54485 0.28257 0.99826 0.0
H1277 H 0.5357 0.28119 0.94564 0.0
H1278 H 0.54026 0.23092 0.85328 0.0
H1279 H 0.5494 0.23227 0.90723 0.0
C1280 C 0.24019 0.26218 0.8995 0.0
C1281 C 0.23571 0.25425 0.93395 0.0
C1282 C 0.24568 0.26084 0.92295 0.0
C1283 C 0.25399 0.25113 0.07403 0.0
H1284 H 0.26607 0.24398 0.94993 0.0
C1285 C 0.27658 0.23545 0.16008 0.0
C1286 C 0.28105 0.24336 0.12541 0.0
C1287 C 0.27109 0.23669 0.13661 0.0
C1288 C 0.26276 0.2462 0.98534 0.0
H1289 H 0.23358 0.23878 1.02104 0.0
H1290 H 0.24315 0.23621 0.06139 0.0
H1291 H 0.2565 0.24627 0.91005 0.0
H1292 H 0.28316 0.25866 0.03785 0.0
H1293 H 0.27359 0.26108 0.99754 0.0
H1294 H 0.26025 0.25107 0.14932 0.0
C1295 C 0.2424 0.24365 1.01636 0.0
C1296 C 0.25725 0.24751 0.96239 0.0
C1297 C 0.2369 0.24496 0.99278 0.0
C1298 C 0.27985 0.25251 0.0663 0.0
C1299 C 0.27435 0.25373 0.04275 0.0
C1300 C 0.2595 0.24982 0.09699 0.0
C1301 C 0.24688 0.25152 0.98168 0.0
C1302 C 0.25277 0.25001 1.00635 0.0
C1303 C 0.26987 0.24589 0.07766 0.0
C1304 C 0.26398 0.24733 0.05302 0.0
H1305 H 0.23947 0.26923 0.85357 0.0
H1306 H 0.24898 0.26727 0.89514 0.0
H1307 H 0.25068 0.25334 0.10943 0.0
H1308 H 0.2773 0.22851 0.20621 0.0
H1309 H 0.26779 0.23028 0.16461 0.0
C1310 C 0.03008 0.00151 0.99268 0.0
C1311 C 0.03125 0.99247 0.93336 0.0
C1312 C 0.02459 0.00284 1.01633 0.0
C1313 C 0.00972 -0.00043 0.96229 0.0
H1314 H 1.00674 0.9953 0.1491 0.0
C1315 C 0.98713 0.99484 0.06655 0.0
C1316 C 0.98597 0.00393 0.12576 0.0
C1317 C 0.99262 0.99348 0.04287 0.0
C1318 C 1.00749 0.99674 0.09681 0.0
H1319 H 0.02744 0.97799 0.8522 0.0
H1320 H 0.01794 0.97998 0.8939 0.0
H1321 H 0.0163 0.99294 0.10896 0.0
H1322 H 0.98978 0.01847 0.20674 0.0
H1323 H 0.99928 0.01641 0.16504 0.0
H1324 H 1.00091 0.00336 0.95014 0.0
C1325 C 0.02126 0.9862 0.92204 0.0
C1326 C 0.013 0.99539 0.07372 0.0
C1327 C 0.02675 0.98483 0.8985 0.0
C1328 C 0.99047 0.01158 0.16053 0.0
C1329 C 0.99596 0.01019 0.13698 0.0
C1330 C 1.00422 0.00092 0.98538 0.0
C1331 C 0.02009 0.99525 0.98126 0.0
C1332 C 0.0142 0.99677 1.00607 0.0
C1333 C 0.99713 0.00109 0.07784 0.0
C1334 C 1.00301 -0.00046 0.05302 0.0
H1335 H 0.03342 0.00746 1.02125 0.0
H1336 H 0.02387 0.01007 0.06176 0.0
H1337 H 0.01047 0.00101 0.91 0.0
H1338 H 0.98379 0.98887 0.03806 0.0
H1339 H 0.99334 0.98621 0.99751 0.0
C1340 C 0.23714 0.00417 0.32067 0.0
C1341 C 0.23585 0.99322 0.3753 0.0
C1342 C 0.24263 0.00542 0.29686 0.0
C1343 C 0.25643 0.98206 0.30098 0.0
H1344 H 0.26208 0.0282 0.24081 0.0
C1345 C 0.27986 0.99304 0.23656 0.0
C1346 C 0.28114 0.0041 0.18223 0.0
C1347 C 0.27437 0.99174 0.26038 0.0
C1348 C 0.26057 0.01514 0.25666 0.0
H1349 H 0.23945 0.97526 0.44818 0.0
H1350 H 0.24896 0.97741 0.4068 0.0
H1351 H 0.25251 0.02582 0.28051 0.0
H1352 H 0.27754 0.02217 0.10978 0.0
H1353 H 0.26803 0.01992 0.15109 0.0
H1354 H 0.26449 0.97138 0.2771 0.0
C1355 C 0.24571 0.9848 0.38145 0.0
C1356 C 0.25505 0.01377 0.27949 0.0
C1357 C 0.24023 0.98355 0.40524 0.0
C1358 C 0.27676 0.0138 0.15251 0.0
C1359 C 0.27128 0.01249 0.17627 0.0
C1360 C 0.26195 0.98343 0.27813 0.0
C1361 C 0.24701 0.99577 0.32695 0.0
C1362 C 0.25289 0.99721 0.30203 0.0
C1363 C 0.26999 0.00144 0.23056 0.0
C1364 C 0.2641 -1e-05 0.25557 0.0
H1365 H 0.23389 0.01164 0.29565 0.0
H1366 H 0.24343 0.0138 0.2542 0.0
H1367 H 0.25492 0.96901 0.31688 0.0
H1368 H 0.28311 0.98553 0.26137 0.0
H1369 H 0.27358 0.98329 0.30287 0.0
C1370 C 0.02674 0.26295 0.40531 0.0
C1371 C 0.03113 0.25349 0.37491 0.0
C1372 C 0.02126 0.26168 0.3816 0.0
C1373 C 0.01195 0.233 0.27823 0.0
H1374 H 1.00243 0.27521 0.27866 0.0
C1375 C 0.99021 0.23344 0.15152 0.0
C1376 C 0.98582 0.24284 0.18218 0.0
C1377 C 0.99569 0.23465 0.17531 0.0
C1378 C 1.005 0.26321 0.27888 0.0
H1379 H 0.03312 0.2354 0.2946 0.0
H1380 H 0.02357 0.23322 0.25317 0.0
H1381 H 0.01201 0.27756 0.31826 0.0
H1382 H 0.98383 0.26073 0.26309 0.0
H1383 H 0.99338 0.26283 0.30453 0.0
H1384 H 1.00494 0.21866 0.23878 0.0
C1385 C 0.02436 0.24145 0.29615 0.0
C1386 C 0.01052 0.26456 0.30165 0.0
C1387 C 0.02985 0.24271 0.31993 0.0
C1388 C 0.9871 0.25348 0.23753 0.0
C1389 C 0.99259 0.25469 0.26133 0.0
C1390 C 1.00643 0.23165 0.25543 0.0
C1391 C 0.01997 0.2509 0.32667 0.0
C1392 C 0.01408 0.24948 0.30174 0.0
C1393 C 0.99698 0.24532 0.23051 0.0
C1394 C 1.00287 0.24673 0.25539 0.0
H1395 H 0.02751 0.2711 0.44853 0.0
H1396 H 0.018 0.26891 0.40731 0.0
H1397 H 0.01452 0.221 0.27847 0.0
H1398 H 0.98944 0.2254 0.10803 0.0
H1399 H 0.99895 0.22747 0.14942 0.0
C1400 C 0.73888 0.76883 0.957 0.0
C1401 C 0.73596 0.75347 0.93525 0.0
C1402 C 0.74438 0.7675 0.98051 0.0
C1403 C 0.75686 0.73752 0.97654 0.0
H1404 H 0.76185 0.76731 0.12163 0.0
C1405 C 0.77857 0.72804 0.10017 0.0
C1406 C 0.78149 0.74353 0.12079 0.0
C1407 C 0.77306 0.72923 0.07689 0.0
C1408 C 0.76056 0.75903 0.0805 0.0
H1409 H 0.73662 0.72455 0.92187 0.0
H1410 H 0.74611 0.72218 0.96424 0.0
H1411 H 0.7522 0.76926 0.08425 0.0
H1412 H 0.78081 0.7725 0.1326 0.0
H1413 H 0.77129 0.7746 0.09085 0.0
H1414 H 0.76521 0.72728 0.9729 0.0
C1415 C 0.74418 0.73535 0.96225 0.0
C1416 C 0.755 0.76014 0.059 0.0
C1417 C 0.73869 0.73668 0.93874 0.0
C1418 C 0.77874 0.76028 0.11657 0.0
C1419 C 0.77324 0.76146 0.0934 0.0
C1420 C 0.76241 0.7364 0.99809 0.0
C1421 C 0.74713 0.75076 0.98309 0.0
C1422 C 0.75306 0.74942 1.00662 0.0
C1423 C 0.77029 0.74594 0.0736 0.0
C1424 C 0.76436 0.74715 0.05037 0.0
H1425 H 0.73693 0.78198 0.95589 0.0
H1426 H 0.7465 0.77972 0.99545 0.0
H1427 H 0.75557 0.72926 0.93537 0.0
H1428 H 0.78054 0.71493 0.10196 0.0
H1429 H 0.77094 0.71694 0.06269 0.0
C1430 C 0.77664 0.0108 0.6455 0.0
C1431 C 0.78115 0.00366 0.68166 0.0
C1432 C 0.77115 0.00954 0.66906 0.0
C1433 C 0.76286 0.00172 0.82169 0.0
H1434 H 0.75084 0.99191 0.69897 0.0
C1435 C 0.74036 0.98572 0.91012 0.0
C1436 C 0.73585 0.99282 0.87394 0.0
C1437 C 0.74584 0.98702 0.88657 0.0
C1438 C 0.75413 0.99488 0.73393 0.0
H1439 H 0.78333 0.98972 0.77194 0.0
H1440 H 0.77377 0.98728 0.81252 0.0
H1441 H 0.76041 0.9942 0.6589 0.0
H1442 H 0.73366 0.00674 0.78366 0.0
H1443 H 0.74322 0.00926 0.74311 0.0
H1444 H 0.75658 0.0024 0.89672 0.0
C1445 C 0.77449 0.99404 0.76602 0.0
C1446 C 0.75964 0.99619 0.71088 0.0
C1447 C 0.77998 0.99526 0.74235 0.0
C1448 C 0.737 0.00123 0.81326 0.0
C1449 C 0.7425 0.0025 0.78961 0.0
C1450 C 0.75735 0.00041 0.84474 0.0
C1451 C 0.76998 0.0011 0.72961 0.0
C1452 C 0.76409 -0.00036 0.75438 0.0
C1453 C 0.74701 0.99547 0.82602 0.0
C1454 C 0.7529 0.99696 0.80124 0.0
H1455 H 0.77734 0.01714 0.59816 0.0
H1456 H 0.76783 0.01534 0.63986 0.0
H1457 H 0.76615 0.00468 0.85665 0.0
H1458 H 0.73967 0.97937 0.95745 0.0
H1459 H 0.74917 0.98124 0.91579 0.0
C1460 C 0.99049 0.73403 0.65208 0.0
C1461 C 0.98608 0.74321 0.68313 0.0
C1462 C 0.99598 0.7354 0.67567 0.0
C1463 C 1.00429 0.74798 0.82392 0.0
H1464 H 0.01653 0.7507 0.69953 0.0
C1465 C 0.02699 0.76348 0.90701 0.0
C1466 C 0.03139 0.75428 0.87583 0.0
C1467 C 0.0215 0.76219 0.88344 0.0
C1468 C 0.01318 0.74973 0.7351 0.0
H1469 H 0.98406 0.76096 0.76433 0.0
H1470 H 0.99362 0.76357 0.80482 0.0
H1471 H 1.00696 0.74842 0.65932 0.0
H1472 H 0.03339 0.73659 0.79439 0.0
H1473 H 0.02382 0.73409 0.75397 0.0
H1474 H 0.0105 0.74929 0.89971 0.0
C1475 C 0.99283 0.75513 0.76241 0.0
C1476 C 1.00767 0.74842 0.71196 0.0
C1477 C 0.98733 0.75379 0.73869 0.0
C1478 C 0.03012 0.74377 0.82014 0.0
C1479 C 0.02463 0.74249 0.79646 0.0
C1480 C 0.00979 0.74929 0.84707 0.0
C1481 C 0.99724 0.74599 0.73114 0.0
C1482 C 1.00313 0.74751 0.75598 0.0
C1483 C 0.02022 0.75164 0.82786 0.0
C1484 C 0.01433 0.75019 0.80304 0.0
H1485 H 0.98973 0.72595 0.60867 0.0
H1486 H 0.99923 0.72798 0.65058 0.0
H1487 H 1.00093 0.74701 0.85948 0.0
H1488 H 0.02776 0.77152 0.95052 0.0
H1489 H 0.01825 0.76961 0.90864 0.0
C1490 C 0.23844 0.76959 0.46082 0.0
C1491 C 0.2356 0.75462 0.43435 0.0
C1492 C 0.24391 0.76799 0.48475 0.0
C1493 C 0.25652 0.73858 0.47534 0.0
H1494 H 0.26127 0.76631 0.62686 0.0
C1495 C 0.27825 0.7287 0.59898 0.0
C1496 C 0.28107 0.74414 0.62194 0.0
C1497 C 0.27274 0.72979 0.57572 0.0
C1498 C 0.26004 0.75861 0.584 0.0
H1499 H 0.23639 0.72609 0.41323 0.0
H1500 H 0.24584 0.7232 0.4565 0.0
H1501 H 0.25164 0.76829 0.58916 0.0
H1502 H 0.2802 0.77289 0.63816 0.0
H1503 H 0.27067 0.77482 0.59671 0.0
H1504 H 0.26493 0.72885 0.47048 0.0
C1505 C 0.24386 0.73631 0.45777 0.0
C1506 C 0.25449 0.75975 0.56226 0.0
C1507 C 0.23839 0.73791 0.43371 0.0
C1508 C 0.27822 0.76072 0.62026 0.0
C1509 C 0.2727 0.7618 0.59724 0.0
C1510 C 0.26207 0.7374 0.49722 0.0
C1511 C 0.24673 0.75135 0.48326 0.0
C1512 C 0.25264 0.74981 0.50741 0.0
C1513 C 0.26986 0.74634 0.57496 0.0
C1514 C 0.26392 0.74746 0.55174 0.0
H1515 H 0.23643 0.78264 0.46312 0.0
H1516 H 0.24596 0.77996 0.50326 0.0
H1517 H 0.2553 0.73093 0.43232 0.0
H1518 H 0.2803 0.71572 0.59886 0.0
H1519 H 0.27069 0.71755 0.55951 0.0
C1520 C 0.98709 0.49294 0.56753 0.0
C1521 C 0.98584 0.50332 0.62357 0.0
C1522 C 0.99259 0.49165 0.54396 0.0
C1523 C 1.00743 0.498 0.59532 0.0
H1524 H 0.0103 0.49807 0.40765 0.0
C1525 C 0.02992 0.50318 0.4885 0.0
C1526 C 0.03119 0.49311 0.43174 0.0
C1527 C 0.02442 0.50426 0.51215 0.0
C1528 C 0.00959 0.4978 0.46026 0.0
H1529 H 0.98951 0.52028 0.69905 0.0
H1530 H 0.99902 0.51831 0.65744 0.0
H1531 H 1.00073 0.5002 0.44764 0.0
H1532 H 0.02755 0.47643 0.35528 0.0
H1533 H 0.01804 0.47795 0.39716 0.0
H1534 H 0.01628 0.49559 0.60796 0.0
C1535 C 0.99576 0.51102 0.63184 0.0
C1536 C 1.00407 0.49903 0.48327 0.0
C1537 C 0.99027 0.51235 0.65527 0.0
C1538 C 0.02678 0.48411 0.39959 0.0
C1539 C 0.02129 0.4852 0.42318 0.0
C1540 C 0.01294 0.49676 0.57231 0.0
C1541 C 0.99702 0.50063 0.57588 0.0
C1542 C 1.00291 0.49917 0.55117 0.0
C1543 C 0.02001 0.49534 0.47971 0.0
C1544 C 0.01411 0.49665 0.5044 0.0
H1545 H 0.98381 0.4859 0.5414 0.0
H1546 H 0.99338 0.48338 0.50114 0.0
H1547 H 1.00671 0.49776 0.64792 0.0
H1548 H 0.03318 0.51018 0.51505 0.0
H1549 H 0.02362 0.51235 0.55541 0.0
C1550 C 0.27897 0.51515 0.72745 0.0
C1551 C 0.28115 0.50198 0.68473 0.0
C1552 C 0.27346 0.51402 0.75067 0.0
C1553 C 0.2597 0.49285 0.71328 0.0
H1554 H 0.25615 0.50618 0.89277 0.0
C1555 C 0.23779 0.47996 0.82705 0.0
C1556 C 0.2356 0.4928 0.87102 0.0
C1557 C 0.24329 0.4813 0.80389 0.0
C1558 C 0.25704 0.50262 0.8422 0.0
H1559 H 0.27912 0.47725 0.63307 0.0
H1560 H 0.26959 0.47512 0.67433 0.0
H1561 H 0.26578 0.50791 0.85443 0.0
H1562 H 0.2376 0.51721 0.92474 0.0
H1563 H 0.24712 0.51977 0.88331 0.0
H1564 H 0.25096 0.4876 0.70093 0.0
C1565 C 0.27213 0.48646 0.68947 0.0
C1566 C 0.26259 0.5036 0.82016 0.0
C1567 C 0.27764 0.48756 0.66643 0.0
C1568 C 0.23909 0.50714 0.89046 0.0
C1569 C 0.2446 0.50848 0.86731 0.0
C1570 C 0.25415 0.4919 0.73528 0.0
C1571 C 0.26994 0.49972 0.73172 0.0
C1572 C 0.26401 0.4987 0.75537 0.0
C1573 C 0.2468 0.49553 0.82391 0.0
C1574 C 0.25273 0.49674 0.80014 0.0
H1575 H 0.28154 0.52636 0.74324 0.0
H1576 H 0.27193 0.52458 0.78261 0.0
H1577 H 0.26059 0.48926 0.66274 0.0
H1578 H 0.23524 0.46882 0.81023 0.0
H1579 H 0.24483 0.47094 0.7711 0.0
C1580 C 0.77822 0.22811 0.60206 0.0
C1581 C 0.78116 0.24364 0.62186 0.0
C1582 C 0.77272 0.22929 0.57857 0.0
C1583 C 0.76027 0.25936 0.57992 0.0
H1584 H 0.75524 0.22888 0.43688 0.0
C1585 C 0.7386 0.26873 0.4554 0.0
C1586 C 0.73566 0.25326 0.43499 0.0
C1587 C 0.74409 0.26749 0.47902 0.0
C1588 C 0.75654 0.23735 0.47746 0.0
H1589 H 0.78053 0.27266 0.63196 0.0
H1590 H 0.77102 0.27475 0.58981 0.0
H1591 H 0.76488 0.22696 0.47467 0.0
H1592 H 0.73629 0.22425 0.42407 0.0
H1593 H 0.74578 0.22205 0.46657 0.0
H1594 H 0.75192 0.26973 0.58277 0.0
C1595 C 0.77295 0.26158 0.59319 0.0
C1596 C 0.76209 0.23625 0.49917 0.0
C1597 C 0.77845 0.26041 0.61659 0.0
C1598 C 0.73837 0.23647 0.43989 0.0
C1599 C 0.74386 0.23523 0.46349 0.0
C1600 C 0.75471 0.26044 0.55824 0.0
C1601 C 0.76998 0.24603 0.57421 0.0
C1602 C 0.76405 0.24725 0.55072 0.0
C1603 C 0.74683 0.25073 0.48301 0.0
C1604 C 0.75276 0.24946 0.50664 0.0
H1605 H 0.78016 0.21497 0.60467 0.0
H1606 H 0.77058 0.21698 0.56504 0.0
H1607 H 0.76157 0.26783 0.62048 0.0
H1608 H 0.73666 0.28188 0.45315 0.0
H1609 H 0.74623 0.27977 0.49294 0.0
C1610 C 0.7369 0.50312 0.31548 0.0
C1611 C 0.73564 0.49361 0.3737 0.0
C1612 C 0.7424 0.50416 0.29184 0.0
C1613 C 0.75638 0.48226 0.30529 0.0
H1614 H 0.7617 0.52724 0.23099 0.0
C1615 C 0.77978 0.49364 0.23942 0.0
C1616 C 0.78102 0.5036 0.1822 0.0
C1617 C 0.77428 0.49239 0.26304 0.0
C1618 C 0.76028 0.51448 0.25082 0.0
H1619 H 0.73931 0.47795 0.45289 0.0
H1620 H 0.74884 0.47969 0.41167 0.0
H1621 H 0.75212 0.52498 0.27023 0.0
H1622 H 0.77733 0.51972 0.10439 0.0
H1623 H 0.7678 0.51754 0.14524 0.0
H1624 H 0.76454 0.47174 0.28576 0.0
C1625 C 0.74556 0.48612 0.38357 0.0
C1626 C 0.75476 0.51318 0.2734 0.0
C1627 C 0.74006 0.4851 0.40724 0.0
C1628 C 0.77658 0.51223 0.14933 0.0
C1629 C 0.77109 0.51097 0.17285 0.0
C1630 C 0.7619 0.48354 0.28261 0.0
C1631 C 0.74682 0.49572 0.32562 0.0
C1632 C 0.75272 0.49705 0.301 0.0
C1633 C 0.76984 0.50104 0.2301 0.0
C1634 C 0.76395 0.49968 0.25496 0.0
H1635 H 0.73361 0.50965 0.28763 0.0
H1636 H 0.74317 0.51144 0.24651 0.0
H1637 H 0.75496 0.46952 0.32525 0.0
H1638 H 0.78307 0.48697 0.26662 0.0
H1639 H 0.77352 0.48484 0.30779 0.0
C1640 C 0.4869 0.99539 0.56474 0.0
C1641 C 0.48578 0.00389 0.62521 0.0
C1642 C 0.49238 0.99414 0.54062 0.0
C1643 C 0.50727 0.99649 0.59418 0.0
H1644 H 0.5102 0.00273 0.40798 0.0
C1645 C 0.52983 0.00199 0.48974 0.0
C1646 C 0.53097 0.99363 0.42902 0.0
C1647 C 0.52435 0.00313 0.51386 0.0
C1648 C 0.50946 0.00072 0.46006 0.0
H1649 H 0.48966 0.0175 0.70794 0.0
H1650 H 0.49914 0.01565 0.6655 0.0
H1651 H 0.50066 0.00484 0.44891 0.0
H1652 H 0.52711 0.98013 0.34594 0.0
H1653 H 0.51762 0.98177 0.38843 0.0
H1654 H 0.51608 0.99237 0.60535 0.0
C1655 C 0.49579 0.00979 0.63678 0.0
C1656 C 0.50397 0.00194 0.4836 0.0
C1657 C 0.49032 0.01108 0.66078 0.0
C1658 C 0.52644 0.98645 0.39328 0.0
C1659 C 0.52097 0.98762 0.41731 0.0
C1660 C 0.51277 0.99527 0.57064 0.0
C1661 C 0.49692 0.00128 0.57638 0.0
C1662 C 0.50279 -0.00014 0.55105 0.0
C1663 C 0.51983 0.99601 0.47791 0.0
C1664 C 0.51395 0.99736 0.50319 0.0
H1665 H 0.48353 0.9898 0.53563 0.0
H1666 H 0.49307 0.98733 0.49425 0.0
H1667 H 0.50654 0.9945 0.64627 0.0
H1668 H 0.53319 0.00757 0.51901 0.0
H1669 H 0.52366 0.00986 0.56038 0.0
C1670 C 0.4887 0.22862 0.70658 0.0
C1671 C 0.48581 0.24395 0.68399 0.0
C1672 C 0.4942 0.22995 0.72973 0.0
C1673 C 0.50676 0.25967 0.7229 0.0
H1674 H 0.51172 0.23068 0.87053 0.0
C1675 C 0.52851 0.26972 0.84504 0.0
C1676 C 0.5314 0.25437 0.86735 0.0
C1677 C 0.523 0.26842 0.82196 0.0
C1678 C 0.51044 0.23872 0.82869 0.0
H1679 H 0.48654 0.2728 0.66857 0.0
H1680 H 0.49605 0.27517 0.71019 0.0
H1681 H 0.50206 0.22862 0.83349 0.0
H1682 H 0.53067 0.22551 0.8824 0.0
H1683 H 0.52114 0.22318 0.84096 0.0
H1684 H 0.51514 0.26978 0.71812 0.0
C1685 C 0.49409 0.26202 0.70924 0.0
C1686 C 0.50487 0.23755 0.80739 0.0
C1687 C 0.48858 0.2607 0.68615 0.0
C1688 C 0.52863 0.23763 0.86503 0.0
C1689 C 0.52311 0.23632 0.84204 0.0
C1690 C 0.51232 0.26085 0.74421 0.0
C1691 C 0.497 0.24666 0.73099 0.0
C1692 C 0.50294 0.248 0.75414 0.0
C1693 C 0.5202 0.25172 0.82053 0.0
C1694 C 0.51425 0.25039 0.79744 0.0
H1695 H 0.4867 0.21551 0.70646 0.0
H1696 H 0.4963 0.21777 0.74543 0.0
H1697 H 0.50548 0.26771 0.68104 0.0
H1698 H 0.5305 0.28283 0.84532 0.0
H1699 H 0.5209 0.28062 0.80644 0.0
C1700 C 0.48687 0.75581 0.2399 0.0
C1701 C 0.48533 0.74216 0.19533 0.0
C1702 C 0.49232 0.75678 0.2651 0.0
C1703 C 0.50687 0.74131 0.23199 0.0
H1704 H 0.50942 0.7557 0.41279 0.0
C1705 C 0.52892 0.73884 0.35196 0.0
C1706 C 0.53043 0.75316 0.39373 0.0
C1707 C 0.52342 0.7371 0.32869 0.0
C1708 C 0.5088 0.75184 0.36195 0.0
H1709 H 0.48843 0.71887 0.14234 0.0
H1710 H 0.49784 0.72029 0.1873 0.0
H1711 H 0.4999 0.75348 0.37105 0.0
H1712 H 0.52723 0.77663 0.44479 0.0
H1713 H 0.51773 0.77378 0.40353 0.0
H1714 H 0.51577 0.73968 0.22291 0.0
C1715 C 0.49485 0.73042 0.20231 0.0
C1716 C 0.50332 0.75057 0.3379 0.0
C1717 C 0.4894 0.72945 0.17713 0.0
C1718 C 0.52627 0.76556 0.41204 0.0
C1719 C 0.52078 0.76379 0.38896 0.0
C1720 C 0.51235 0.74256 0.25606 0.0
C1721 C 0.49641 0.74414 0.24648 0.0
C1722 C 0.50227 0.74533 0.27248 0.0
C1723 C 0.51927 0.74957 0.34674 0.0
C1724 C 0.5134 0.74789 0.32137 0.0
H1725 H 0.48385 0.76576 0.2557 0.0
H1726 H 0.49335 0.76766 0.29842 0.0
H1727 H 0.50626 0.73753 0.18106 0.0
H1728 H 0.53201 0.7291 0.33632 0.0
H1729 H 0.52242 0.72585 0.29689 0.0
C1730 C 0.52957 0.50495 0.97621 0.0
C1731 C 0.531 0.49202 0.92846 0.0
C1732 C 0.52408 0.50635 0.99969 0.0
C1733 C 0.51062 0.48088 1.0104 0.0
H1734 H 0.50435 0.52792 0.04712 0.0
C1735 C 0.48709 0.49054 0.07166 0.0
C1736 C 0.48568 0.50316 0.1206 0.0
C1737 C 0.49258 0.48928 0.04781 0.0
C1738 C 0.50604 0.51464 0.03785 0.0
H1739 H 0.52764 0.4707 0.86713 0.0
H1740 H 0.51811 0.47314 0.90774 0.0
H1741 H 0.51392 0.52554 1.00739 0.0
H1742 H 0.48907 0.52415 0.18328 0.0
H1743 H 0.49857 0.52202 0.14171 0.0
H1744 H 0.50274 0.46998 0.04076 0.0
C1745 C 0.52126 0.482 0.92821 0.0
C1746 C 0.51156 0.51327 1.01503 0.0
C1747 C 0.52675 0.48058 0.90483 0.0
C1748 C 0.48994 0.51451 0.14471 0.0
C1749 C 0.49542 0.51326 0.12083 0.0
C1750 C 0.5051 0.48225 0.03314 0.0
C1751 C 0.51983 0.49489 0.97607 0.0
C1752 C 0.51394 0.49637 1.00091 0.0
C1753 C 0.49684 0.5006 0.07212 0.0
C1754 C 0.50272 0.49915 0.04726 0.0
H1755 H 0.53273 0.51385 0.9963 0.0
H1756 H 0.52318 0.51627 0.03721 0.0
H1757 H 0.51231 0.4676 1.00126 0.0
H1758 H 0.48394 0.48173 0.05108 0.0
H1759 H 0.49347 0.47955 1.0096 0.0
C1760 C 0.40378 0.24528 0.48108 0.0
C1761 C 0.40729 0.25877 0.45495 0.0
C1762 C 0.39803 0.24528 0.46816 0.0
C1763 C 0.38729 0.26374 0.35369 0.0
H1764 H 0.37703 0.25132 0.49416 0.0
C1765 C 0.36337 0.27336 0.326 0.0
C1766 C 0.35981 0.26012 0.3528 0.0
C1767 C 0.36912 0.27321 0.33901 0.0
C1768 C 0.37982 0.25462 0.45405 0.0
H1769 H 0.40741 0.28264 0.39326 0.0
H1770 H 0.3974 0.28278 0.37154 0.0
H1771 H 0.38705 0.25085 0.51463 0.0
H1772 H 0.3596 0.23647 0.41562 0.0
H1773 H 0.36962 0.23601 0.4373 0.0
H1774 H 0.38006 0.26749 0.29306 0.0
C1775 C 0.39911 0.27209 0.40175 0.0
C1776 C 0.38559 0.25435 0.46582 0.0
C1777 C 0.40486 0.27212 0.41481 0.0
C1778 C 0.36219 0.24681 0.39354 0.0
C1779 C 0.36795 0.24666 0.4066 0.0
C1780 C 0.38152 0.264 0.3419 0.0
C1781 C 0.39559 0.25873 0.42858 0.0
C1782 C 0.38942 0.25892 0.41584 0.0
C1783 C 0.37151 0.2598 0.3792 0.0
C1784 C 0.37769 0.25947 0.39191 0.0
H1785 H 0.40546 0.23489 0.51286 0.0
H1786 H 0.39549 0.23463 0.48909 0.0
H1787 H 0.39008 0.26707 0.31361 0.0
H1788 H 0.36174 0.28371 0.29369 0.0
H1789 H 0.3717 0.28371 0.31765 0.0
C1790 C 0.86237 0.97435 0.41891 0.0
C1791 C 0.85988 0.98843 0.4548 0.0
C1792 C 0.86811 0.97443 0.40548 0.0
C1793 C 0.88155 0.99448 0.46248 0.0
H1794 H 0.88707 0.97753 0.29442 0.0
C1795 C 0.90489 0.0014 0.38624 0.0
C1796 C 0.90731 0.98714 0.35067 0.0
C1797 C 0.89913 0.00165 0.39935 0.0
C1798 C 0.88562 0.98211 0.34198 0.0
H1799 H 0.86159 0.01366 0.50477 0.0
H1800 H 0.87154 0.01398 0.48027 0.0
H1801 H 0.87706 0.97788 0.31547 0.0
H1802 H 0.90547 0.96201 0.30063 0.0
H1803 H 0.89552 0.96226 0.3246 0.0
H1804 H 0.89012 -0.00131 0.48901 0.0
C1805 C 0.86906 0.00274 0.46301 0.0
C1806 C 0.87985 0.98232 0.35407 0.0
C1807 C 0.86331 0.00268 0.47631 0.0
C1808 C 0.9038 0.97311 0.32892 0.0
C1809 C 0.89805 0.97338 0.34191 0.0
C1810 C 0.88732 0.99427 0.45039 0.0
C1811 C 0.87156 0.98858 0.42767 0.0
C1812 C 0.87773 0.98848 0.41454 0.0
C1813 C 0.89562 0.98768 0.37708 0.0
C1814 C 0.88945 0.98805 0.38999 0.0
H1815 H 0.85987 0.96322 0.40097 0.0
H1816 H 0.86987 0.96319 0.37868 0.0
H1817 H 0.88009 -0.00095 0.51005 0.0
H1818 H 0.90744 0.01237 0.4043 0.0
H1819 H 0.89742 0.01299 0.42607 0.0
C1820 C 0.40379 0.00281 0.8316 0.0
C1821 C 0.40717 0.98847 0.85327 0.0
C1822 C 0.39804 0.00307 0.84512 0.0
C1823 C 0.38718 0.98274 0.95431 0.0
H1824 H 0.37696 -0.00027 0.81995 0.0
C1825 C 0.36323 0.97341 0.97817 0.0
C1826 C 0.35973 0.98759 0.95739 0.0
C1827 C 0.36898 0.97376 0.96536 0.0
C1828 C 0.37975 0.99513 0.85839 0.0
H1829 H 0.40709 0.96332 0.90782 0.0
H1830 H 0.3971 0.96359 0.9302 0.0
H1831 H 0.38698 -0.0 0.79888 0.0
H1832 H 0.35964 0.01317 0.9057 0.0
H1833 H 0.36966 0.01389 0.88411 0.0
H1834 H 0.37994 0.9778 1.0137 0.0
C1835 C 0.39889 0.97477 0.90317 0.0
C1836 C 0.38552 0.9953 0.84631 0.0
C1837 C 0.40463 0.97451 0.88963 0.0
C1838 C 0.36218 0.00208 0.92298 0.0
C1839 C 0.36794 0.0024 0.90998 0.0
C1840 C 0.38141 0.98255 0.96634 0.0
C1841 C 0.39549 0.989 0.8808 0.0
C1842 C 0.38933 0.98906 0.89403 0.0
C1843 C 0.37143 0.98828 0.9313 0.0
C1844 C 0.3776 0.98869 0.91852 0.0
H1845 H 0.40555 0.01372 0.8028 0.0
H1846 H 0.3956 0.01439 0.82772 0.0
H1847 H 0.38996 0.97812 0.99281 0.0
H1848 H 0.36154 0.96213 1.00555 0.0
H1849 H 0.3715 0.96253 0.9819 0.0
C1850 C 0.86314 0.24438 0.83015 0.0
C1851 C 0.85972 0.25855 0.85238 0.0
C1852 C 0.86889 0.24431 0.84315 0.0
C1853 C 0.87975 0.26452 0.9522 0.0
H1854 H 0.88994 0.24854 0.81615 0.0
C1855 C 0.90371 0.2737 0.97666 0.0
C1856 C 0.9072 0.25973 0.95431 0.0
C1857 C 0.89796 0.27348 0.9638 0.0
C1858 C 0.88716 0.25285 0.85507 0.0
H1859 H 0.85975 0.2836 0.90722 0.0
H1860 H 0.86976 0.28362 0.92894 0.0
H1861 H 0.87991 0.24817 0.79568 0.0
H1862 H 0.90729 0.23466 0.89963 0.0
H1863 H 0.89726 0.23413 0.87813 0.0
H1864 H 0.887 0.26921 1.01159 0.0
C1865 C 0.86799 0.27244 0.90181 0.0
C1866 C 0.88139 0.25263 0.84331 0.0
C1867 C 0.86223 0.27253 0.8887 0.0
C1868 C 0.90475 0.24559 0.91819 0.0
C1869 C 0.89899 0.24538 0.90523 0.0
C1870 C 0.88552 0.26474 0.96396 0.0
C1871 C 0.87142 0.25838 0.87888 0.0
C1872 C 0.87759 0.25848 0.89166 0.0
C1873 C 0.8955 0.25928 0.92817 0.0
C1874 C 0.88932 0.25894 0.91556 0.0
H1875 H 0.8614 0.23348 0.80134 0.0
H1876 H 0.87137 0.23313 0.82532 0.0
H1877 H 0.87697 0.26885 0.99111 0.0
H1878 H 0.9054 0.28472 1.00537 0.0
H1879 H 0.89544 0.28456 0.98161 0.0
C1880 C 0.6139 0.72491 0.56257 0.0
C1881 C 0.61014 0.73363 0.60523 0.0
C1882 C 0.61965 0.72473 0.57572 0.0
C1883 C 0.63014 0.73266 0.70921 0.0
H1884 H 0.64043 0.73731 0.56297 0.0
C1885 C 0.65379 0.74586 0.74826 0.0
C1886 C 0.65758 0.73644 0.70805 0.0
C1887 C 0.64804 0.74541 0.73545 0.0
C1888 C 0.63763 0.73581 0.6044 0.0
H1889 H 0.60959 0.74861 0.69662 0.0
H1890 H 0.61958 0.74876 0.71842 0.0
H1891 H 0.63042 0.73646 0.54211 0.0
H1892 H 0.65821 0.71942 0.62175 0.0
H1893 H 0.64819 0.71853 0.59972 0.0
H1894 H 0.63736 0.73222 0.77148 0.0
C1895 C 0.61808 0.74182 0.67503 0.0
C1896 C 0.63186 0.73528 0.59243 0.0
C1897 C 0.61232 0.74193 0.66203 0.0
C1898 C 0.65544 0.72673 0.65414 0.0
C1899 C 0.64968 0.72635 0.64112 0.0
C1900 C 0.6359 0.73328 0.72117 0.0
C1901 C 0.62184 0.73334 0.63182 0.0
C1902 C 0.62802 0.7337 0.64464 0.0
C1903 C 0.64589 0.73559 0.68188 0.0
C1904 C 0.63973 0.73488 0.66896 0.0
H1905 H 0.61243 0.71855 0.51789 0.0
H1906 H 0.62238 0.7178 0.54169 0.0
H1907 H 0.62735 0.73111 0.75074 0.0
H1908 H 0.65525 0.75331 0.79068 0.0
H1909 H 0.64527 0.75286 0.7675 0.0
C1910 C 0.1135 0.02281 0.73323 0.0
C1911 C 0.10992 0.00937 0.70839 0.0
C1912 C 0.11925 0.02244 0.72023 0.0
C1913 C 0.12987 0.00311 0.60688 0.0
H1914 H 0.1402 0.01625 0.74574 0.0
C1915 C 0.15386 0.99492 0.57683 0.0
C1916 C 0.15733 0.00849 0.60291 0.0
C1917 C 0.14812 0.99462 0.59043 0.0
C1918 C 0.13739 0.01274 0.70604 0.0
H1919 H 0.10966 0.98507 0.64931 0.0
H1920 H 0.11968 0.98431 0.62729 0.0
H1921 H 0.13019 0.0166 0.76697 0.0
H1922 H 0.15741 0.03217 0.66533 0.0
H1923 H 0.14742 0.03186 0.68785 0.0
H1924 H 0.13707 -0.00067 0.54583 0.0
C1925 C 0.11803 0.99525 0.65654 0.0
C1926 C 0.13162 0.01294 0.71827 0.0
C1927 C 0.11227 0.99559 0.66975 0.0
C1928 C 0.15488 0.02161 0.64369 0.0
C1929 C 0.14914 0.02131 0.65728 0.0
C1930 C 0.13564 0.00294 0.5946 0.0
C1931 C 0.12161 0.00863 0.68189 0.0
C1932 C 0.12777 0.00818 0.66885 0.0
C1933 C 0.14566 0.00787 0.63056 0.0
C1934 C 0.13949 0.00779 0.64394 0.0
H1935 H 0.11188 0.03351 0.7639 0.0
H1936 H 0.12184 0.0331 0.74 0.0
H1937 H 0.12705 -0.0004 0.56725 0.0
H1938 H 0.15555 0.98469 0.54459 0.0
H1939 H 0.14561 0.98391 0.56955 0.0
C1940 C 0.65361 0.02312 0.07566 0.0
C1941 C 0.65711 0.0095 0.10077 0.0
C1942 C 0.64786 0.02305 0.08861 0.0
C1943 C 0.63709 0.00383 0.20121 0.0
H1944 H 0.62688 0.01783 0.06213 0.0
C1945 C 0.61308 0.99529 0.22722 0.0
C1946 C 0.60964 0.0091 0.20237 0.0
C1947 C 0.61883 0.99514 0.21434 0.0
C1948 C 0.62966 0.01407 0.10186 0.0
H1949 H 0.65723 0.98526 0.16055 0.0
H1950 H 0.64721 0.98497 0.18216 0.0
H1951 H 0.63691 0.01807 0.04176 0.0
H1952 H 0.60963 0.03341 0.14295 0.0
H1953 H 0.61965 0.03331 0.12141 0.0
H1954 H 0.62984 -0.00017 0.26129 0.0
C1955 C 0.64892 0.99584 0.15282 0.0
C1956 C 0.63544 0.01422 0.09016 0.0
C1957 C 0.65468 0.99589 0.13979 0.0
C1958 C 0.61213 0.02264 0.16353 0.0
C1959 C 0.61789 0.02247 0.15054 0.0
C1960 C 0.63131 0.00368 0.2129 0.0
C1961 C 0.64542 0.00936 0.12708 0.0
C1962 C 0.63924 0.00913 0.13967 0.0
C1963 C 0.62133 0.00878 0.17609 0.0
C1964 C 0.62751 0.00881 0.16343 0.0
H1965 H 0.65529 0.0337 0.04469 0.0
H1966 H 0.64534 0.03383 0.06858 0.0
H1967 H 0.63987 8e-05 0.24096 0.0
H1968 H 0.61135 0.98474 0.25799 0.0
H1969 H 0.62132 0.98424 0.23425 0.0
C1970 C 0.11338 0.72178 0.08575 0.0
C1971 C 0.11005 0.73699 0.09881 0.0
C1972 C 0.11914 0.72199 0.09817 0.0
C1973 C 0.1302 0.74612 0.19243 0.0
H1974 H 0.14014 0.72311 0.06787 0.0
C1975 C 0.15433 0.75195 0.21545 0.0
C1976 C 0.15755 0.7366 0.2008 0.0
C1977 C 0.14858 0.7524 0.20177 0.0
C1978 C 0.13744 0.72943 0.1037 0.0
H1979 H 0.11025 0.76431 0.1365 0.0
H1980 H 0.12029 0.76476 0.15734 0.0
H1981 H 0.13011 0.72299 0.0478 0.0
H1982 H 0.15717 0.70983 0.15826 0.0
H1983 H 0.14719 0.71043 0.13607 0.0
H1984 H 0.13751 0.75245 0.24859 0.0
C1985 C 0.11843 0.75257 0.13785 0.0
C1986 C 0.13166 0.72937 0.09212 0.0
C1987 C 0.11266 0.75238 0.12523 0.0
C1988 C 0.15485 0.72183 0.17112 0.0
C1989 C 0.1491 0.72226 0.15757 0.0
C1990 C 0.13598 0.74615 0.20411 0.0
C1991 C 0.12177 0.73741 0.12415 0.0
C1992 C 0.12795 0.73767 0.13637 0.0
C1993 C 0.14587 0.73751 0.17305 0.0
C1994 C 0.13969 0.73776 0.16001 0.0
H1995 H 0.11156 0.70974 0.06462 0.0
H1996 H 0.12153 0.70997 0.08769 0.0
H1997 H 0.12748 0.75244 0.22817 0.0
H1998 H 0.15621 0.76355 0.23896 0.0
H1999 H 0.14628 0.7645 0.21366 0.0
C2000 C 0.36223 0.77337 0.88652 0.0
C2001 C 0.35968 0.75868 0.85462 0.0
C2002 C 0.36798 0.77333 0.90009 0.0
C2003 C 0.38131 0.75163 0.84913 0.0
H2004 H 0.38691 0.77161 1.01247 0.0
C2005 C 0.40461 0.74526 0.92759 0.0
C2006 C 0.4071 0.76008 0.95946 0.0
C2007 C 0.39885 0.74499 0.91443 0.0
C2008 C 0.38544 0.76616 0.96619 0.0
H2009 H 0.36126 0.73241 0.81184 0.0
H2010 H 0.37122 0.73219 0.83657 0.0
H2011 H 0.3769 0.77128 0.99123 0.0
H2012 H 0.40538 0.78618 1.00288 0.0
H2013 H 0.39543 0.78587 0.97877 0.0
H2014 H 0.38986 0.74655 0.82404 0.0
C2015 C 0.36879 0.74386 0.85061 0.0
C2016 C 0.37967 0.76597 0.95399 0.0
C2017 C 0.36304 0.74389 0.83721 0.0
C2018 C 0.40365 0.77463 0.97747 0.0
C2019 C 0.39791 0.77434 0.96444 0.0
C2020 C 0.38708 0.75183 0.86131 0.0
C2021 C 0.37135 0.75861 0.88199 0.0
C2022 C 0.37752 0.75872 0.89524 0.0
C2023 C 0.39541 0.75949 0.93296 0.0
C2024 C 0.38924 0.75913 0.92 0.0
H2025 H 0.35979 0.78495 0.90122 0.0
H2026 H 0.36979 0.78501 0.92376 0.0
H2027 H 0.37984 0.74619 0.80285 0.0
H2028 H 0.40711 0.73386 0.91244 0.0
H2029 H 0.39709 0.73323 0.89065 0.0
C2030 C 0.90375 0.50257 0.82727 0.0
C2031 C 0.90718 0.48857 0.8509 0.0
C2032 C 0.89801 0.50285 0.84103 0.0
C2033 C 0.88722 0.48344 0.95365 0.0
H2034 H 0.87691 0.49882 0.81762 0.0
C2035 C 0.86329 0.4738 0.97996 0.0
C2036 C 0.85975 0.48764 0.95736 0.0
C2037 C 0.86904 0.47416 0.96688 0.0
C2038 C 0.87972 0.49468 0.85653 0.0
H2039 H 0.90717 0.46405 0.90918 0.0
H2040 H 0.89718 0.46432 0.93196 0.0
H2041 H 0.88693 0.4991 0.79602 0.0
H2042 H 0.85958 0.51267 0.90216 0.0
H2043 H 0.8696 0.51343 0.88008 0.0
H2044 H 0.88002 0.47894 1.01404 0.0
C2045 C 0.89894 0.47524 0.9032 0.0
C2046 C 0.88549 0.49485 0.84413 0.0
C2047 C 0.90468 0.47497 0.88943 0.0
C2048 C 0.86215 0.50183 0.92088 0.0
C2049 C 0.86791 0.50217 0.9076 0.0
C2050 C 0.88146 0.48324 0.966 0.0
C2051 C 0.8955 0.48913 0.8789 0.0
C2052 C 0.88933 0.48919 0.89245 0.0
C2053 C 0.87145 0.48838 0.93071 0.0
C2054 C 0.87761 0.48881 0.91759 0.0
H2055 H 0.90547 0.51319 0.79679 0.0
H2056 H 0.89553 0.5139 0.82208 0.0
H2057 H 0.89002 0.47928 0.99261 0.0
H2058 H 0.86164 0.46276 1.00896 0.0
H2059 H 0.87159 0.46317 0.98488 0.0
C2060 C 0.36313 0.5021 0.48097 0.0
C2061 C 0.35966 0.48842 0.45564 0.0
C2062 C 0.36887 0.50236 0.46731 0.0
C2063 C 0.3796 0.4838 0.35255 0.0
H2064 H 0.38995 0.49756 0.49041 0.0
C2065 C 0.4035 0.47378 0.32524 0.0
C2066 C 0.40708 0.48731 0.34947 0.0
C2067 C 0.39775 0.47417 0.33836 0.0
C2068 C 0.38713 0.49388 0.45102 0.0
H2069 H 0.35959 0.46449 0.39446 0.0
H2070 H 0.36957 0.46474 0.37185 0.0
H2071 H 0.37994 0.49789 0.51195 0.0
H2072 H 0.40734 0.51177 0.40764 0.0
H2073 H 0.39732 0.51256 0.42981 0.0
H2074 H 0.38679 0.4797 0.29173 0.0
C2075 C 0.36785 0.47541 0.40188 0.0
C2076 C 0.38136 0.49408 0.46337 0.0
C2077 C 0.36211 0.47515 0.41554 0.0
C2078 C 0.40473 0.50119 0.38765 0.0
C2079 C 0.39897 0.50154 0.40096 0.0
C2080 C 0.38537 0.48357 0.34024 0.0
C2081 C 0.37134 0.48896 0.42785 0.0
C2082 C 0.3775 0.489 0.41438 0.0
C2083 C 0.39539 0.48808 0.3762 0.0
C2084 C 0.38922 0.48855 0.38932 0.0
H2085 H 0.36144 0.51245 0.51268 0.0
H2086 H 0.37138 0.51316 0.4876 0.0
H2087 H 0.37679 0.4801 0.31309 0.0
H2088 H 0.40511 0.463 0.29493 0.0
H2089 H 0.39516 0.46343 0.31906 0.0
C2090 C 0.86343 0.74415 0.33264 0.0
C2091 C 0.86003 0.75864 0.35246 0.0
C2092 C 0.86918 0.7441 0.34594 0.0
C2093 C 0.88003 0.76527 0.45239 0.0
H2094 H 0.89024 0.74757 0.31937 0.0
C2095 C 0.904 0.77419 0.4767 0.0
C2096 C 0.90747 0.75992 0.45649 0.0
C2097 C 0.89826 0.77394 0.46367 0.0
C2098 C 0.88746 0.75237 0.35748 0.0
H2099 H 0.86009 0.78432 0.40328 0.0
H2100 H 0.8701 0.78436 0.42556 0.0
H2101 H 0.88021 0.74721 0.29842 0.0
H2102 H 0.90753 0.73427 0.40548 0.0
H2103 H 0.89751 0.7337 0.38372 0.0
H2104 H 0.88727 0.77044 0.51145 0.0
C2105 C 0.86831 0.77292 0.4001 0.0
C2106 C 0.88168 0.75216 0.34543 0.0
C2107 C 0.86256 0.77299 0.38667 0.0
C2108 C 0.90501 0.74544 0.42237 0.0
C2109 C 0.89925 0.74521 0.40924 0.0
C2110 C 0.8858 0.76548 0.46444 0.0
C2111 C 0.87171 0.75853 0.37958 0.0
C2112 C 0.87788 0.75863 0.39267 0.0
C2113 C 0.89578 0.75941 0.43001 0.0
C2114 C 0.88961 0.75907 0.41714 0.0
H2115 H 0.86167 0.73295 0.30548 0.0
H2116 H 0.87163 0.73267 0.33 0.0
H2117 H 0.87725 0.7701 0.49047 0.0
H2118 H 0.90571 0.78547 0.50385 0.0
H2119 H 0.89576 0.78525 0.47978 0.0
C2120 C 0.65368 0.22358 0.22678 0.0
C2121 C 0.65725 0.2373 0.20368 0.0
C2122 C 0.64794 0.22402 0.21368 0.0
C2123 C 0.6373 0.24454 0.10279 0.0
H2124 H 0.62697 0.22972 0.2395 0.0
C2125 C 0.61333 0.25337 0.07455 0.0
C2126 C 0.60985 0.23945 0.09806 0.0
C2127 C 0.61907 0.25343 0.08815 0.0
C2128 C 0.62979 0.23371 0.2004 0.0
H2129 H 0.65749 0.26217 0.14755 0.0
H2130 H 0.64748 0.26307 0.1255 0.0
H2131 H 0.63698 0.22913 0.26076 0.0
H2132 H 0.60976 0.21486 0.15589 0.0
H2133 H 0.61975 0.21479 0.17855 0.0
H2134 H 0.6301 0.24907 0.04236 0.0
C2135 C 0.64914 0.25185 0.1534 0.0
C2136 C 0.63555 0.23337 0.21263 0.0
C2137 C 0.65489 0.25143 0.16666 0.0
C2138 C 0.61229 0.22572 0.13631 0.0
C2139 C 0.61803 0.22578 0.14996 0.0
C2140 C 0.63153 0.24486 0.09053 0.0
C2141 C 0.64557 0.23819 0.17702 0.0
C2142 C 0.6394 0.23874 0.16398 0.0
C2143 C 0.62152 0.23958 0.12576 0.0
C2144 C 0.62768 0.23943 0.13911 0.0
H2145 H 0.6553 0.21259 0.25619 0.0
H2146 H 0.64535 0.21313 0.23206 0.0
H2147 H 0.64012 0.24851 0.06371 0.0
H2148 H 0.61164 0.26408 0.04427 0.0
H2149 H 0.62159 0.26441 0.06928 0.0
C2150 C 0.11214 0.50052 0.14834 0.0
C2151 C 0.11003 0.51018 0.20249 0.0
C2152 C 0.11789 0.50033 0.13455 0.0
C2153 C 0.13176 0.50853 0.21261 0.0
H2154 H 0.13705 0.51036 0.03251 0.0
C2155 C 0.15519 0.51897 0.14863 0.0
C2156 C 0.15741 0.50966 0.09428 0.0
C2157 C 0.14944 0.51862 0.16201 0.0
C2158 C 0.13566 0.5096 0.08313 0.0
H2159 H 0.11242 0.52711 0.28482 0.0
H2160 H 0.12236 0.52711 0.26003 0.0
H2161 H 0.12705 0.51068 0.05463 0.0
H2162 H 0.15522 0.49266 1.01141 0.0
H2163 H 0.14525 0.49173 0.03549 0.0
H2164 H 0.14037 0.50747 0.24116 0.0
C2165 C 0.11958 0.5195 0.22844 0.0
C2166 C 0.1299 0.5098 0.09585 0.0
C2167 C 0.11385 0.51971 0.24215 0.0
C2168 C 0.1537 0.49983 0.05415 0.0
C2169 C 0.14795 0.4995 0.06748 0.0
C2170 C 0.13752 0.50833 0.1999 0.0
C2171 C 0.1217 0.50974 0.17463 0.0
C2172 C 0.12786 0.50932 0.16081 0.0
C2173 C 0.14572 0.50896 0.12143 0.0
C2174 C 0.13956 0.50891 0.13497 0.0
H2175 H 0.10935 0.49312 0.1163 0.0
H2176 H 0.11934 0.49252 0.09302 0.0
H2177 H 0.13037 0.5078 0.26325 0.0
H2178 H 0.15789 0.52655 0.18112 0.0
H2179 H 0.1479 0.52622 0.20364 0.0
C2180 C 0.65289 0.5202 0.5615 0.0
C2181 C 0.65666 0.51064 0.60176 0.0
C2182 C 0.64715 0.52023 0.57497 0.0
C2183 C 0.63675 0.51107 0.70759 0.0
H2184 H 0.62631 0.50894 0.56196 0.0
C2185 C 0.6129 0.50157 0.74858 0.0
C2186 C 0.60923 0.51146 0.70823 0.0
C2187 C 0.61866 0.50115 0.73546 0.0
C2188 C 0.62915 0.50975 0.6033 0.0
H2189 H 0.65723 0.49381 0.68886 0.0
H2190 H 0.64723 0.4936 0.71166 0.0
H2191 H 0.63631 0.50899 0.54022 0.0
H2192 H 0.60881 0.52837 0.62122 0.0
H2193 H 0.61881 0.52787 0.59902 0.0
H2194 H 0.62958 0.51184 0.77065 0.0
C2195 C 0.64874 0.50125 0.66983 0.0
C2196 C 0.63491 0.50978 0.5908 0.0
C2197 C 0.65449 0.50121 0.6563 0.0
C2198 C 0.61149 0.52075 0.65388 0.0
C2199 C 0.61724 0.5203 0.64068 0.0
C2200 C 0.63098 0.51103 0.7201 0.0
C2201 C 0.64497 0.51068 0.62914 0.0
C2202 C 0.63881 0.5105 0.64272 0.0
C2203 C 0.62092 0.51057 0.68148 0.0
C2204 C 0.62709 0.51041 0.66814 0.0
H2205 H 0.65436 0.52743 0.51853 0.0
H2206 H 0.64442 0.52785 0.5429 0.0
H2207 H 0.63959 0.5119 0.74892 0.0
H2208 H 0.61136 0.4944 0.79133 0.0
H2209 H 0.62133 0.49332 0.76762 0.0
C2210 C 0.15472 0.25102 0.66824 0.0
C2211 C 0.15706 0.23746 0.70821 0.0
C2212 C 0.14897 0.25134 0.65493 0.0
C2213 C 0.13536 0.23421 0.71826 0.0
H2214 H 0.12992 0.24669 0.54443 0.0
C2215 C 0.1121 0.22515 0.64441 0.0
C2216 C 0.10965 0.23798 0.60218 0.0
C2217 C 0.11784 0.22554 0.65803 0.0
C2218 C 0.13135 0.2434 0.59357 0.0
H2219 H 0.15507 0.21369 0.76598 0.0
H2220 H 0.14512 0.21406 0.74194 0.0
H2221 H 0.13994 0.24648 0.56597 0.0
H2222 H 0.11144 0.26134 0.54134 0.0
H2223 H 0.12138 0.26228 0.56636 0.0
H2224 H 0.12678 0.23115 0.74599 0.0
C2225 C 0.14772 0.22457 0.72118 0.0
C2226 C 0.13712 0.24327 0.60592 0.0
C2227 C 0.15347 0.22422 0.73428 0.0
C2228 C 0.11313 0.25135 0.5747 0.0
C2229 C 0.11887 0.25173 0.58834 0.0
C2230 C 0.12959 0.23438 0.70597 0.0
C2231 C 0.14537 0.23816 0.68152 0.0
C2232 C 0.13921 0.23859 0.6684 0.0
C2233 C 0.12133 0.23877 0.62992 0.0
C2234 C 0.12749 0.23891 0.64336 0.0
H2235 H 0.15735 0.26138 0.64684 0.0
H2236 H 0.14733 0.26211 0.62462 0.0
H2237 H 0.13679 0.23085 0.76733 0.0
H2238 H 0.10957 0.21475 0.66716 0.0
H2239 H 0.11956 0.2152 0.68974 0.0
C2240 C 0.32503 0.25104 0.50736 0.0
C2241 C 0.32043 0.24415 0.4723 0.0
C2242 C 0.32494 0.25228 0.57644 0.0
C2243 C 0.31508 0.25327 0.71961 0.0
H2244 H 0.3285 0.24537 0.82221 0.0
C2245 C 0.31474 0.24985 1.00662 0.0
C2246 C 0.31933 0.25679 0.04184 0.0
C2247 C 0.31484 0.24868 0.93753 0.0
C2248 C 0.32471 0.24787 0.7945 0.0
H2249 H 0.31213 0.23287 0.48388 0.0
H2250 H 0.31201 0.23473 0.6037 0.0
H2251 H 0.32878 0.24209 0.70294 0.0
H2252 H 0.32761 0.26823 0.03056 0.0
H2253 H 0.32776 0.26644 0.91067 0.0
H2254 H 0.31101 0.25904 0.81118 0.0
C2255 C 0.31568 0.23948 0.57782 0.0
C2256 C 0.32488 0.24596 0.72565 0.0
C2257 C 0.31577 0.23824 0.50875 0.0
C2258 C 0.32399 0.26281 1.00555 0.0
C2259 C 0.32409 0.26162 0.93646 0.0
C2260 C 0.31491 0.25517 0.78846 0.0
C2261 C 0.32024 0.24669 0.61294 0.0
C2262 C 0.32006 0.24861 0.6869 0.0
C2263 C 0.31954 0.25438 0.90118 0.0
C2264 C 0.31973 0.25251 0.82722 0.0
H2265 H 0.32869 0.25589 0.48137 0.0
H2266 H 0.32853 0.2581 0.60106 0.0
H2267 H 0.3113 0.25577 0.69193 0.0
H2268 H 0.31109 0.24496 0.03248 0.0
H2269 H 0.31127 0.24283 0.91277 0.0
C2270 C 0.94208 0.99544 0.50716 0.0
C2271 C 0.94665 0.00261 0.47209 0.0
C2272 C 0.94217 0.99425 0.57626 0.0
C2273 C 0.95202 0.99398 0.71967 0.0
H2274 H 0.93855 0.00107 0.82178 0.0
C2275 C 0.95231 0.99765 1.0065 0.0
C2276 C 0.94777 0.9904 0.04181 0.0
C2277 C 0.95221 -0.00123 0.9374 0.0
C2278 C 0.94235 -0.0012 0.79421 0.0
H2279 H 0.95487 0.01444 0.48363 0.0
H2280 H 0.95499 0.01265 0.6035 0.0
H2281 H 0.93825 0.00427 0.70243 0.0
H2282 H 0.93957 0.97836 0.0307 0.0
H2283 H 0.93942 0.98007 0.91075 0.0
H2284 H 0.95612 0.98853 0.81145 0.0
C2285 C 0.95136 0.00764 0.57762 0.0
C2286 C 0.94218 0.00066 0.72532 0.0
C2287 C 0.95127 0.00884 0.50852 0.0
C2288 C 0.94316 0.98402 1.00561 0.0
C2289 C 0.94305 0.98517 0.93649 0.0
C2290 C 0.95219 0.99212 0.78855 0.0
C2291 C 0.94683 0.00016 0.61276 0.0
C2292 C 0.94701 0.9983 0.68674 0.0
C2293 C 0.94755 0.99271 0.90112 0.0
C2294 C 0.94736 0.9945 0.82713 0.0
H2295 H 0.93846 0.99035 0.48117 0.0
H2296 H 0.93862 0.98821 0.6009 0.0
H2297 H 0.95582 0.99169 0.69213 0.0
H2298 H 0.95593 0.00282 0.03229 0.0
H2299 H 0.95574 0.00486 0.91256 0.0
C2300 C 0.32386 0.98424 0.30175 0.0
C2301 C 0.31926 0.99068 0.26538 0.0
C2302 C 0.32396 0.98538 0.37087 0.0
C2303 C 0.31735 0.01 0.51173 0.0
H2304 H 0.32427 0.97262 0.61711 0.0
C2305 C 0.31581 0.00901 0.79839 0.0
C2306 C 0.3204 0.00268 0.83495 0.0
C2307 C 0.31572 0.00785 0.72929 0.0
C2308 C 0.32238 0.98334 0.58863 0.0
H2309 H 0.31111 0.00311 0.27459 0.0
H2310 H 0.31125 0.00482 0.39438 0.0
H2311 H 0.32393 0.96955 0.49778 0.0
H2312 H 0.32858 0.99039 0.82608 0.0
H2313 H 0.32847 0.98863 0.70625 0.0
H2314 H 0.31579 0.02378 0.60257 0.0
C2315 C 0.31484 -0.00086 0.36956 0.0
C2316 C 0.32218 0.98156 0.51974 0.0
C2317 C 0.31473 0.998 0.3005 0.0
C2318 C 0.32496 0.99544 0.80002 0.0
C2319 C 0.32487 0.99426 0.73095 0.0
C2320 C 0.31755 0.01177 0.5806 0.0
C2321 C 0.31947 0.99302 0.40603 0.0
C2322 C 0.31966 0.99485 0.47999 0.0
C2323 C 0.32023 0.00029 0.69431 0.0
C2324 C 0.32006 0.99848 0.62035 0.0
H2325 H 0.32745 0.97862 0.27677 0.0
H2326 H 0.32764 0.98068 0.39657 0.0
H2327 H 0.31547 0.02073 0.48327 0.0
H2328 H 0.3122 0.01456 0.8232 0.0
H2329 H 0.31204 0.01247 0.70343 0.0
C2330 C 0.95223 0.24935 0.29929 0.0
C2331 C 0.94768 0.25652 0.26405 0.0
C2332 C 0.95213 0.24815 0.36837 0.0
C2333 C 0.94469 0.2653 0.51842 0.0
H2334 H 0.95125 0.22331 0.60149 0.0
C2335 C 0.94194 0.25109 0.79875 0.0
C2336 C 0.94652 0.244 0.83382 0.0
C2337 C 0.94203 0.25232 0.72966 0.0
C2338 C 0.94945 0.23525 0.57946 0.0
H2339 H 0.93945 0.26825 0.27526 0.0
H2340 H 0.93926 0.26609 0.39505 0.0
H2341 H 0.95158 0.22648 0.4822 0.0
H2342 H 0.95477 0.23245 0.82225 0.0
H2343 H 0.95493 0.23463 0.7025 0.0
H2344 H 0.94255 0.27406 0.61571 0.0
C2345 C 0.94296 0.26156 0.36945 0.0
C2346 C 0.94965 0.2371 0.51058 0.0
C2347 C 0.94306 0.26276 0.30032 0.0
C2348 C 0.95114 0.23788 0.79736 0.0
C2349 C 0.95123 0.23909 0.72825 0.0
C2350 C 0.94449 0.26345 0.5873 0.0
C2351 C 0.94747 0.25406 0.40474 0.0
C2352 C 0.94728 0.25216 0.47873 0.0
C2353 C 0.94669 0.2465 0.69313 0.0
C2354 C 0.94687 0.24839 0.61914 0.0
H2355 H 0.95587 0.24439 0.27347 0.0
H2356 H 0.95574 0.24259 0.39328 0.0
H2357 H 0.94289 0.27724 0.49639 0.0
H2358 H 0.9383 0.25599 0.82472 0.0
H2359 H 0.93841 0.25784 0.70488 0.0
C2360 C 0.70255 0.7476 0.04986 0.0
C2361 C 0.69805 0.7401 1.01459 0.0
C2362 C 0.70244 0.7487 0.11894 0.0
C2363 C 0.69258 0.74818 0.26201 0.0
H2364 H 0.70609 0.7416 0.36426 0.0
C2365 C 0.69233 0.74464 0.54908 0.0
C2366 C 0.69688 0.75195 0.58415 0.0
C2367 C 0.69242 0.74351 0.47997 0.0
C2368 C 0.70228 0.74374 0.33667 0.0
H2369 H 0.68991 0.72761 1.02571 0.0
H2370 H 0.68974 0.7293 0.14564 0.0
H2371 H 0.70639 0.73853 0.24495 0.0
H2372 H 0.70505 0.76412 0.57261 0.0
H2373 H 0.70518 0.76243 0.45276 0.0
H2374 H 0.68847 0.75342 0.35372 0.0
C2375 C 0.69335 0.7346 0.11989 0.0
C2376 C 0.70245 0.74194 0.2678 0.0
C2377 C 0.69347 0.73347 0.05079 0.0
C2378 C 0.70147 0.75839 0.54772 0.0
C2379 C 0.70156 0.75726 0.47864 0.0
C2380 C 0.69241 0.75 0.33089 0.0
C2381 C 0.69781 0.74238 0.15522 0.0
C2382 C 0.69761 0.74413 0.22918 0.0
C2383 C 0.69706 0.74963 0.44349 0.0
C2384 C 0.69725 0.74782 0.36952 0.0
H2385 H 0.70614 0.75296 1.02405 0.0
H2386 H 0.70593 0.75497 0.14377 0.0
H2387 H 0.68877 0.7503 0.23438 0.0
H2388 H 0.68873 0.7394 0.57506 0.0
H2389 H 0.6889 0.73735 0.45532 0.0
C2390 C 0.07407 0.01245 0.05341 0.0
C2391 C 0.06946 0.00608 1.01718 0.0
C2392 C 0.07418 0.01129 0.12253 0.0
C2393 C 0.06504 0.00431 0.27044 0.0
H2394 H 0.07897 0.99214 0.35654 0.0
C2395 C 0.06596 0.98759 0.5505 0.0
C2396 C 0.07058 0.99381 0.58691 0.0
C2397 C 0.06587 0.98879 0.48139 0.0
C2398 C 0.07505 0.99576 0.33366 0.0
H2399 H 0.0613 0.99366 1.02665 0.0
H2400 H 0.06149 0.9916 0.14638 0.0
H2401 H 0.07868 0.99535 0.2372 0.0
H2402 H 0.07878 0.00604 0.5778 0.0
H2403 H 0.07861 0.00818 0.45807 0.0
H2404 H 0.06141 0.00473 0.36687 0.0
C2405 C 0.06502 0.99769 0.12156 0.0
C2406 C 0.07488 0.99763 0.26477 0.0
C2407 C 0.06492 -0.00118 0.05246 0.0
C2408 C 0.07515 0.00096 0.55182 0.0
C2409 C 0.07506 0.00215 0.48272 0.0
C2410 C 0.06521 0.00245 0.33932 0.0
C2411 C 0.06968 0.00374 0.15787 0.0
C2412 C 0.06987 0.00193 0.23186 0.0
C2413 C 0.0704 0.99625 0.44623 0.0
C2414 C 0.07021 0.99812 0.37225 0.0
H2415 H 0.07766 0.01811 0.02834 0.0
H2416 H 0.07781 0.01638 0.14828 0.0
H2417 H 0.06111 0.00792 0.24755 0.0
H2418 H 0.06235 0.98201 0.5754 0.0
H2419 H 0.06223 0.98379 0.45552 0.0
C2420 C 0.70216 -0.00105 0.75474 0.0
C2421 C 0.69757 0.00589 0.78991 0.0
C2422 C 0.70206 0.99778 0.68565 0.0
C2423 C 0.69219 0.99699 0.54252 0.0
H2424 H 0.70561 0.005 0.44012 0.0
C2425 C 0.69187 0.00022 0.2554 0.0
C2426 C 0.69648 0.99338 0.22037 0.0
C2427 C 0.69196 0.00143 0.32448 0.0
C2428 C 0.70183 0.00246 0.46776 0.0
H2429 H 0.6893 0.01734 0.77856 0.0
H2430 H 0.68916 0.01556 0.65867 0.0
H2431 H 0.7059 0.00822 0.55939 0.0
H2432 H 0.70477 0.98217 0.23201 0.0
H2433 H 0.70489 0.98399 0.35183 0.0
H2434 H 0.68812 0.9912 0.4509 0.0
C2435 C 0.69282 0.01073 0.68449 0.0
C2436 C 0.70199 0.00434 0.53661 0.0
C2437 C 0.69292 0.01192 0.75358 0.0
C2438 C 0.70114 0.9875 0.25685 0.0
C2439 C 0.70123 0.98872 0.32592 0.0
C2440 C 0.69202 0.99509 0.47367 0.0
C2441 C 0.69736 0.00349 0.64926 0.0
C2442 C 0.69718 0.00164 0.5753 0.0
C2443 C 0.69666 0.99587 0.36102 0.0
C2444 C 0.69684 0.99778 0.43497 0.0
H2445 H 0.7058 0.99404 0.78064 0.0
H2446 H 0.70562 0.99194 0.66092 0.0
H2447 H 0.68841 0.99445 0.57019 0.0
H2448 H 0.68822 0.00503 0.22938 0.0
H2449 H 0.68838 0.00721 0.34908 0.0
C2450 C 0.07521 0.74475 0.25781 0.0
C2451 C 0.07071 0.75229 0.22278 0.0
C2452 C 0.07512 0.74353 0.3269 0.0
C2453 C 0.0679 0.76137 0.47718 0.0
H2454 H 0.07405 0.71875 0.56027 0.0
C2455 C 0.06502 0.74766 0.75741 0.0
C2456 C 0.0695 0.74002 0.79266 0.0
C2457 C 0.06513 0.74883 0.68833 0.0
C2458 C 0.07237 0.73087 0.53824 0.0
H2459 H 0.06257 0.76464 0.23441 0.0
H2460 H 0.0624 0.76249 0.3542 0.0
H2461 H 0.0744 0.72186 0.44093 0.0
H2462 H 0.0776 0.72742 0.78144 0.0
H2463 H 0.07781 0.72952 0.6616 0.0
H2464 H 0.06587 0.7704 0.57445 0.0
C2465 C 0.06605 0.75766 0.32841 0.0
C2466 C 0.07257 0.73268 0.46933 0.0
C2467 C 0.06614 0.75886 0.25928 0.0
C2468 C 0.07405 0.73328 0.75637 0.0
C2469 C 0.07416 0.73445 0.68723 0.0
C2470 C 0.0677 0.75957 0.54607 0.0
C2471 C 0.07052 0.74981 0.36348 0.0
C2472 C 0.07034 0.74796 0.43749 0.0
C2473 C 0.06972 0.74242 0.65194 0.0
C2474 C 0.06992 0.74428 0.57793 0.0
H2475 H 0.0788 0.73949 0.23181 0.0
H2476 H 0.07869 0.73766 0.35165 0.0
H2477 H 0.06621 0.77349 0.45513 0.0
H2478 H 0.06143 0.75301 0.78323 0.0
H2479 H 0.06158 0.75476 0.66345 0.0
C2480 C 0.31559 0.7384 1.0091 0.0
C2481 C 0.32027 0.74418 0.97271 0.0
C2482 C 0.3155 0.73962 0.07817 0.0
C2483 C 0.32471 0.74565 0.22598 0.0
H2484 H 0.3109 0.7593 0.31157 0.0
C2485 C 0.32391 0.76239 0.50585 0.0
C2486 C 0.31923 0.75659 0.54215 0.0
C2487 C 0.324 0.76122 0.43677 0.0
C2488 C 0.31479 0.75527 0.28883 0.0
H2489 H 0.32856 0.75564 0.98184 0.0
H2490 H 0.3284 0.75782 0.10156 0.0
H2491 H 0.31118 0.75609 0.19229 0.0
H2492 H 0.31092 0.74518 0.53285 0.0
H2493 H 0.31109 0.74308 0.41311 0.0
H2494 H 0.32833 0.74483 0.32252 0.0
C2495 C 0.32481 0.75212 0.07688 0.0
C2496 C 0.31495 0.7534 0.21998 0.0
C2497 C 0.32489 0.75092 1.0078 0.0
C2498 C 0.3146 0.7499 0.50696 0.0
C2499 C 0.31469 0.74875 0.43787 0.0
C2500 C 0.32455 0.74752 0.29484 0.0
C2501 C 0.32008 0.74666 0.11332 0.0
C2502 C 0.31991 0.74855 0.18725 0.0
C2503 C 0.31941 0.75422 0.40151 0.0
C2504 C 0.31959 0.75237 0.32756 0.0
H2505 H 0.31193 0.73314 0.9842 0.0
H2506 H 0.31181 0.73497 0.10402 0.0
H2507 H 0.3286 0.74163 0.20324 0.0
H2508 H 0.32756 0.76762 0.53083 0.0
H2509 H 0.32769 0.76588 0.41098 0.0
C2510 C 0.95218 0.49742 0.50417 0.0
C2511 C 0.9476 0.49039 0.53935 0.0
C2512 C 0.95209 0.49856 0.43508 0.0
C2513 C 0.94462 0.48142 0.28516 0.0
H2514 H 0.95127 0.52326 0.20172 0.0
C2515 C 0.9419 0.49545 1.00477 0.0
C2516 C 0.9465 0.50244 0.96969 0.0
C2517 C 0.94199 0.49427 0.07386 0.0
C2518 C 0.94944 0.51136 0.22387 0.0
H2519 H 0.93933 0.47885 0.52806 0.0
H2520 H 0.93916 0.48091 0.40826 0.0
H2521 H 0.95159 0.52019 0.32106 0.0
H2522 H 0.95478 0.51385 0.98119 0.0
H2523 H 0.95493 0.51176 0.10095 0.0
H2524 H 0.94247 0.4726 0.18794 0.0
C2525 C 0.94287 0.48537 0.43392 0.0
C2526 C 0.94963 0.50957 0.29275 0.0
C2527 C 0.94296 0.48423 0.50304 0.0
C2528 C 0.95114 0.5085 1.00611 0.0
C2529 C 0.95122 0.50734 0.07521 0.0
C2530 C 0.94443 0.48321 0.21626 0.0
C2531 C 0.94741 0.49273 0.39868 0.0
C2532 C 0.94723 0.49456 0.32471 0.0
C2533 C 0.94667 0.50004 0.11034 0.0
C2534 C 0.94683 0.49821 0.18432 0.0
H2535 H 0.95583 0.50231 0.53004 0.0
H2536 H 0.95571 0.50401 0.41019 0.0
H2537 H 0.94279 0.46951 0.3073 0.0
H2538 H 0.93825 0.49061 0.97881 0.0
H2539 H 0.93835 0.48885 0.09868 0.0
C2540 C 0.32385 0.48418 0.80304 0.0
C2541 C 0.31924 0.49045 0.76661 0.0
C2542 C 0.32394 0.48531 0.87215 0.0
C2543 C 0.31725 0.50968 1.01295 0.0
H2544 H 0.32426 0.4725 0.11832 0.0
C2545 C 0.31574 0.50872 0.29968 0.0
C2546 C 0.32035 0.50248 0.33616 0.0
C2547 C 0.31565 0.50755 0.23058 0.0
C2548 C 0.32235 0.48317 0.08985 0.0
H2549 H 0.31104 0.50257 0.77571 0.0
H2550 H 0.31116 0.50427 0.89552 0.0
H2551 H 0.32394 0.46943 0.999 0.0
H2552 H 0.32854 0.49034 0.32718 0.0
H2553 H 0.32843 0.48858 0.20737 0.0
H2554 H 0.31566 0.52342 0.10378 0.0
C2555 C 0.31477 0.49873 0.87074 0.0
C2556 C 0.32216 0.48139 1.02097 0.0
C2557 C 0.31468 0.49759 0.80167 0.0
C2558 C 0.32491 0.49532 0.30117 0.0
C2559 C 0.32482 0.49414 0.23211 0.0
C2560 C 0.31744 0.51146 0.08182 0.0
C2561 C 0.31943 0.49278 0.90726 0.0
C2562 C 0.3196 0.49461 0.98122 0.0
C2563 C 0.32017 0.50008 0.19554 0.0
C2564 C 0.31999 0.49825 0.12158 0.0
H2565 H 0.32747 0.47871 0.77812 0.0
H2566 H 0.32764 0.48075 0.89792 0.0
H2567 H 0.31533 0.52036 0.98448 0.0
H2568 H 0.31212 0.51421 0.32454 0.0
H2569 H 0.31195 0.5121 0.20478 0.0
C2570 C 0.94332 0.76295 0.80245 0.0
C2571 C 0.94793 0.7566 0.7662 0.0
C2572 C 0.94322 0.76176 0.87157 0.0
C2573 C 0.94986 0.73719 1.01276 0.0
H2574 H 0.94285 0.77433 0.11779 0.0
C2575 C 0.95138 0.73807 0.29951 0.0
C2576 C 0.94677 0.74429 0.33596 0.0
C2577 C 0.95147 0.73925 0.23039 0.0
C2578 C 0.94476 0.76367 0.08941 0.0
H2579 H 0.9561 0.7443 0.77566 0.0
H2580 H 0.95596 0.74252 0.89546 0.0
H2581 H 0.94318 0.77747 0.99845 0.0
H2582 H 0.93857 0.7564 0.32686 0.0
H2583 H 0.93868 0.75819 0.207 0.0
H2584 H 0.95145 0.7234 0.10372 0.0
C2585 C 0.95236 0.74815 0.87054 0.0
C2586 C 0.94496 0.76549 1.02051 0.0
C2587 C 0.95247 0.74934 0.80146 0.0
C2588 C 0.9422 0.75143 0.30089 0.0
C2589 C 0.94229 0.75263 0.2318 0.0
C2590 C 0.94966 0.73537 0.08165 0.0
C2591 C 0.94771 0.75417 0.90689 0.0
C2592 C 0.94752 0.75229 0.98088 0.0
C2593 C 0.94694 0.74672 0.19527 0.0
C2594 C 0.94711 0.74858 0.12128 0.0
H2595 H 0.93973 0.76851 0.77737 0.0
H2596 H 0.93953 0.76638 0.89717 0.0
H2597 H 0.95178 0.72652 0.98441 0.0
H2598 H 0.955 0.7326 0.32441 0.0
H2599 H 0.95516 0.73472 0.20463 0.0
C2600 C 0.69307 0.23372 0.54929 0.0
C2601 C 0.69769 0.24006 0.51305 0.0
C2602 C 0.69296 0.2349 0.61838 0.0
C2603 C 0.7021 0.24176 0.76631 0.0
H2604 H 0.68818 0.25416 0.85206 0.0
C2605 C 0.70121 0.25836 0.04616 0.0
C2606 C 0.69657 0.25224 0.08259 0.0
C2607 C 0.70129 0.2572 0.97707 0.0
C2608 C 0.6921 0.25048 0.82928 0.0
H2609 H 0.70586 0.25244 0.52247 0.0
H2610 H 0.70566 0.25452 0.64218 0.0
H2611 H 0.68847 0.25096 0.73275 0.0
H2612 H 0.68835 0.24026 0.07351 0.0
H2613 H 0.6885 0.23817 0.95379 0.0
H2614 H 0.70572 0.24124 0.86278 0.0
C2615 C 0.70212 0.24845 0.61738 0.0
C2616 C 0.69227 0.24862 0.76041 0.0
C2617 C 0.70223 0.2473 0.5483 0.0
C2618 C 0.69198 0.24524 0.04752 0.0
C2619 C 0.69207 0.24409 0.97842 0.0
C2620 C 0.70193 0.2436 0.83516 0.0
C2621 C 0.69746 0.24243 0.65368 0.0
C2622 C 0.69727 0.24423 0.72763 0.0
C2623 C 0.69675 0.24987 0.94193 0.0
C2624 C 0.69693 0.24802 0.86796 0.0
H2625 H 0.68948 0.22807 0.52423 0.0
H2626 H 0.68932 0.22984 0.64416 0.0
H2627 H 0.70602 0.23809 0.7435 0.0
H2628 H 0.70483 0.26383 0.07104 0.0
H2629 H 0.70494 0.26212 0.9512 0.0
C2630 C 0.07516 0.50026 0.04886 0.0
C2631 C 0.07051 0.49368 0.08399 0.0
C2632 C 0.07507 0.50145 0.97978 0.0
C2633 C 0.06745 0.48503 0.82992 0.0
H2634 H 0.0745 0.52617 0.74634 0.0
C2635 C 0.06488 0.49928 0.54954 0.0
C2636 C 0.06955 0.50568 0.51448 0.0
C2637 C 0.06494 0.49814 0.61863 0.0
C2638 C 0.07256 0.51446 0.76855 0.0
H2639 H 0.06214 0.48298 0.07263 0.0
H2640 H 0.06198 0.4851 0.95288 0.0
H2641 H 0.07479 0.5231 0.86571 0.0
H2642 H 0.07796 0.51611 0.526 0.0
H2643 H 0.07808 0.5141 0.64577 0.0
H2644 H 0.06521 0.47641 0.73273 0.0
C2645 C 0.06573 0.48919 0.97856 0.0
C2646 C 0.07273 0.51267 0.83744 0.0
C2647 C 0.06582 0.48801 0.04765 0.0
C2648 C 0.07426 0.51122 0.5509 0.0
C2649 C 0.07432 0.51011 0.62001 0.0
C2650 C 0.06727 0.48683 0.76103 0.0
C2651 C 0.07034 0.49609 0.94337 0.0
C2652 C 0.07018 0.49792 0.86941 0.0
C2653 C 0.06968 0.50338 0.65511 0.0
C2654 C 0.06983 0.50157 0.72906 0.0
H2655 H 0.07885 0.50478 0.07476 0.0
H2656 H 0.07875 0.50654 0.95492 0.0
H2657 H 0.06551 0.47332 0.85209 0.0
H2658 H 0.06117 0.49486 0.52357 0.0
H2659 H 0.06125 0.49317 0.64347 0.0
C2660 C 0.70186 0.49962 0.25601 0.0
C2661 C 0.69717 0.50578 0.29106 0.0
C2662 C 0.7018 0.49853 0.18691 0.0
C2663 C 0.69198 0.49653 0.04353 0.0
H2664 H 0.7053 0.50648 0.94162 0.0
C2665 C 0.69166 0.50048 0.75683 0.0
C2666 C 0.69631 0.49403 0.72175 0.0
C2667 C 0.69173 0.50162 0.82589 0.0
C2668 C 0.70155 0.50341 0.96915 0.0
H2669 H 0.68874 0.51597 0.27954 0.0
H2670 H 0.68866 0.51438 0.1597 0.0
H2671 H 0.70553 0.50956 0.06098 0.0
H2672 H 0.7047 0.48348 0.73316 0.0
H2673 H 0.70481 0.48522 0.85305 0.0
H2674 H 0.68799 0.49041 0.95168 0.0
C2675 C 0.69238 0.51006 0.18558 0.0
C2676 C 0.70168 0.5052 0.03803 0.0
C2677 C 0.69245 0.51114 0.25466 0.0
C2678 C 0.70102 0.4885 0.75809 0.0
C2679 C 0.7011 0.48967 0.82716 0.0
C2680 C 0.69184 0.49475 0.97467 0.0
C2681 C 0.69704 0.50356 0.15045 0.0
C2682 C 0.6969 0.50179 0.07651 0.0
C2683 C 0.69648 0.49639 0.86229 0.0
C2684 C 0.69663 0.49815 0.93621 0.0
H2685 H 0.70557 0.49525 0.282 0.0
H2686 H 0.70545 0.49327 0.16224 0.0
H2687 H 0.68822 0.49343 0.07103 0.0
H2688 H 0.68796 0.505 0.73088 0.0
H2689 H 0.68811 0.50706 0.85062 0.0
C2690 C 0.07497 0.24449 0.75734 0.0
C2691 C 0.07042 0.25175 0.72225 0.0
C2692 C 0.07488 0.24333 0.82644 0.0
C2693 C 0.06756 0.26092 0.97641 0.0
H2694 H 0.07392 0.21866 0.05995 0.0
C2695 C 0.06473 0.2472 0.2567 0.0
C2696 C 0.06926 0.23984 0.29196 0.0
C2697 C 0.06484 0.24834 0.18761 0.0
C2698 C 0.07218 0.23068 0.03778 0.0
H2699 H 0.06222 0.26368 0.73371 0.0
H2700 H 0.06206 0.26162 0.8535 0.0
H2701 H 0.07426 0.22171 0.94058 0.0
H2702 H 0.07743 0.22772 0.28081 0.0
H2703 H 0.07763 0.22978 0.161 0.0
H2704 H 0.06548 0.2699 0.07358 0.0
C2705 C 0.06574 0.25697 0.82776 0.0
C2706 C 0.07238 0.23245 0.96888 0.0
C2707 C 0.06583 0.25811 0.75865 0.0
C2708 C 0.07385 0.23336 0.25572 0.0
C2709 C 0.07395 0.2345 0.1866 0.0
C2710 C 0.06737 0.25915 0.04531 0.0
C2711 C 0.07025 0.2494 0.86291 0.0
C2712 C 0.07007 0.2476 0.9369 0.0
C2713 C 0.06947 0.24218 0.15129 0.0
C2714 C 0.06966 0.244 0.0773 0.0
H2715 H 0.07859 0.23941 0.73141 0.0
H2716 H 0.07848 0.23769 0.85127 0.0
H2717 H 0.06582 0.27293 0.95423 0.0
H2718 H 0.06112 0.25234 0.2825 0.0
H2719 H 0.06126 0.25404 0.16268 0.0
C2720 C 0.81567 0.23833 1.00957 0.0
C2721 C 0.82034 0.24421 0.97312 0.0
C2722 C 0.81559 0.23949 0.07864 0.0
C2723 C 0.82245 0.26337 0.21949 0.0
H2724 H 0.81516 0.22663 0.32455 0.0
C2725 C 0.82388 0.26231 0.50627 0.0
C2726 C 0.81923 0.25631 0.54258 0.0
C2727 C 0.82398 0.26116 0.43718 0.0
C2728 C 0.81715 0.23719 0.29617 0.0
H2729 H 0.82862 0.25575 0.98216 0.0
H2730 H 0.82852 0.25751 0.10204 0.0
H2731 H 0.81549 0.22354 0.20527 0.0
H2732 H 0.81096 0.24466 0.53329 0.0
H2733 H 0.81108 0.24293 0.41344 0.0
H2734 H 0.82411 0.27702 0.3104 0.0
C2735 C 0.82487 0.25222 0.07723 0.0
C2736 C 0.81735 0.23539 0.22732 0.0
C2737 C 0.82496 0.25103 1.00815 0.0
C2738 C 0.81463 0.24943 0.50741 0.0
C2739 C 0.81472 0.24827 0.43833 0.0
C2740 C 0.82225 0.26517 0.28836 0.0
C2741 C 0.82017 0.24662 0.11373 0.0
C2742 C 0.82 0.24845 0.18768 0.0
C2743 C 0.81942 0.25395 0.40195 0.0
C2744 C 0.8196 0.25212 0.328 0.0
H2745 H 0.81202 0.23311 0.98469 0.0
H2746 H 0.81186 0.23521 0.10439 0.0
H2747 H 0.82445 0.27392 0.19109 0.0
H2748 H 0.82753 0.26759 0.53127 0.0
H2749 H 0.8277 0.26551 0.41154 0.0
C2750 C 0.45219 0.99735 0.50708 0.0
C2751 C 0.4476 0.99038 0.54229 0.0
C2752 C 0.45209 -0.0015 0.43799 0.0
C2753 C 0.44459 0.98146 0.28813 0.0
H2754 H 0.45129 0.02321 0.20464 0.0
C2755 C 0.44187 0.99556 1.00774 0.0
C2756 C 0.44648 0.00245 0.97267 0.0
C2757 C 0.44196 0.99438 0.07683 0.0
C2758 C 0.44945 0.01133 0.2268 0.0
H2759 H 0.43932 0.97892 0.53105 0.0
H2760 H 0.43914 0.98099 0.41128 0.0
H2761 H 0.45162 0.02012 0.32396 0.0
H2762 H 0.45479 0.01369 0.98418 0.0
H2763 H 0.45494 0.0116 0.10392 0.0
H2764 H 0.44242 0.97267 0.19094 0.0
C2765 C 0.44286 0.98542 0.4369 0.0
C2766 C 0.44964 0.00953 0.29568 0.0
C2767 C 0.44296 0.98427 0.50601 0.0
C2768 C 0.45114 0.00842 1.00909 0.0
C2769 C 0.45122 0.00726 0.07819 0.0
C2770 C 0.44439 0.98326 0.21924 0.0
C2771 C 0.44741 0.99272 0.40163 0.0
C2772 C 0.44722 0.99456 0.32765 0.0
C2773 C 0.44665 5e-05 0.11332 0.0
C2774 C 0.44682 0.99822 0.18728 0.0
H2775 H 0.45585 0.0022 0.53293 0.0
H2776 H 0.45572 0.00392 0.41307 0.0
H2777 H 0.44275 0.96957 0.31029 0.0
H2778 H 0.43821 0.99078 0.98177 0.0
H2779 H 0.43832 0.98902 0.10167 0.0
C2780 C 0.81481 0.99728 0.80103 0.0
C2781 C 0.81941 0.99042 0.76595 0.0
C2782 C 0.8149 0.99845 0.87011 0.0
C2783 C 0.82243 0.98166 1.02029 0.0
H2784 H 0.81568 0.02328 0.10309 0.0
C2785 C 0.82514 0.9959 0.30046 0.0
C2786 C 0.82053 0.00272 0.33544 0.0
C2787 C 0.82506 0.99469 0.23138 0.0
C2788 C 0.81754 0.01143 0.08113 0.0
H2789 H 0.82771 0.97921 0.77743 0.0
H2790 H 0.82788 0.98132 0.89717 0.0
H2791 H 0.81535 0.02014 0.98382 0.0
H2792 H 0.81222 0.01381 0.32378 0.0
H2793 H 0.81206 0.01167 0.20408 0.0
H2794 H 0.82462 0.97296 0.11762 0.0
C2795 C 0.82416 0.98563 0.87145 0.0
C2796 C 0.81734 0.00961 1.01228 0.0
C2797 C 0.82407 0.98446 0.80236 0.0
C2798 C 0.81587 0.00859 0.29894 0.0
C2799 C 0.81579 0.00741 0.22986 0.0
C2800 C 0.82263 0.98348 0.08915 0.0
C2801 C 0.8196 0.99282 0.90659 0.0
C2802 C 0.81978 0.99468 0.98054 0.0
C2803 C 0.82036 0.00027 0.19482 0.0
C2804 C 0.82019 0.99841 0.12087 0.0
H2805 H 0.81115 0.00201 0.77509 0.0
H2806 H 0.81127 0.00378 0.89493 0.0
H2807 H 0.82429 0.96981 0.99832 0.0
H2808 H 0.82881 0.9912 0.32648 0.0
H2809 H 0.8287 0.98939 0.20662 0.0
C2810 C 0.45235 0.24929 0.7997 0.0
C2811 C 0.44778 0.25634 0.76444 0.0
C2812 C 0.45225 0.24811 0.86878 0.0
C2813 C 0.44476 0.26514 1.01865 0.0
H2814 H 0.45139 0.22333 0.10205 0.0
C2815 C 0.44201 0.25097 0.29898 0.0
C2816 C 0.4466 0.24404 0.33411 0.0
C2817 C 0.44209 0.25216 0.22988 0.0
C2818 C 0.44957 0.23522 0.07991 0.0
H2819 H 0.43952 0.26787 0.77561 0.0
H2820 H 0.43933 0.26574 0.89536 0.0
H2821 H 0.45174 0.22646 0.98274 0.0
H2822 H 0.45489 0.23274 0.32267 0.0
H2823 H 0.45505 0.23486 0.20294 0.0
H2824 H 0.44258 0.27389 0.11585 0.0
C2825 C 0.44304 0.26129 0.86979 0.0
C2826 C 0.44977 0.23705 1.01104 0.0
C2827 C 0.44314 0.26247 0.80068 0.0
C2828 C 0.45125 0.23805 0.29773 0.0
C2829 C 0.45133 0.23921 0.22863 0.0
C2830 C 0.44455 0.26331 0.08753 0.0
C2831 C 0.44757 0.25392 0.90511 0.0
C2832 C 0.44738 0.25205 0.97909 0.0
C2833 C 0.44678 0.24646 0.19344 0.0
C2834 C 0.44695 0.24832 0.11946 0.0
H2835 H 0.456 0.24442 0.77388 0.0
H2836 H 0.45586 0.24264 0.89373 0.0
H2837 H 0.44294 0.27704 0.99653 0.0
H2838 H 0.43835 0.25576 0.3249 0.0
H2839 H 0.43846 0.25755 0.20501 0.0
C2840 C 0.20131 0.75908 0.04658 0.0
C2841 C 0.19672 0.75266 0.08301 0.0
C2842 C 0.20141 0.75788 0.97747 0.0
C2843 C 0.19476 0.73318 0.83679 0.0
H2844 H 0.20169 0.77051 0.73118 0.0
C2845 C 0.19324 0.73405 0.54982 0.0
C2846 C 0.19784 0.74046 0.51349 0.0
C2847 C 0.19314 0.73518 0.61896 0.0
C2848 C 0.1998 0.7598 0.75972 0.0
H2849 H 0.18855 0.74021 0.0739 0.0
H2850 H 0.18868 0.73841 0.95416 0.0
H2851 H 0.20138 0.77363 0.85046 0.0
H2852 H 0.20602 0.75279 0.52279 0.0
H2853 H 0.20589 0.75448 0.64254 0.0
H2854 H 0.19317 0.71936 0.74602 0.0
C2855 C 0.19227 0.74411 0.97891 0.0
C2856 C 0.19961 0.76161 0.82858 0.0
C2857 C 0.19218 0.74531 0.04795 0.0
C2858 C 0.20239 0.74771 0.54865 0.0
C2859 C 0.20229 0.74884 0.6177 0.0
C2860 C 0.19494 0.73137 0.76792 0.0
C2861 C 0.19691 0.7502 0.94238 0.0
C2862 C 0.19709 0.74833 0.86843 0.0
C2863 C 0.19765 0.74278 0.65414 0.0
C2864 C 0.19747 0.74464 0.72808 0.0
H2865 H 0.20491 0.76472 0.07151 0.0
H2866 H 0.20509 0.76256 0.9517 0.0
H2867 H 0.19286 0.72246 0.86533 0.0
H2868 H 0.18963 0.7285 0.52481 0.0
H2869 H 0.18945 0.73052 0.64468 0.0
C2870 C 0.5646 0.00025 0.54659 0.0
C2871 C 0.56918 0.00728 0.51132 0.0
C2872 C 0.5647 -0.0009 0.61569 0.0
C2873 C 0.57457 0.99847 0.75877 0.0
H2874 H 0.56115 0.00648 0.86102 0.0
C2875 C 0.57489 0.00191 0.04581 0.0
C2876 C 0.57027 0.9951 0.08094 0.0
C2877 C 0.5748 0.00306 0.97669 0.0
C2878 C 0.56493 0.00394 0.83343 0.0
H2879 H 0.57744 0.01886 0.52247 0.0
H2880 H 0.57759 0.01709 0.64238 0.0
H2881 H 0.56086 0.00962 0.74169 0.0
H2882 H 0.56197 0.98383 0.06952 0.0
H2883 H 0.56186 0.98554 0.94967 0.0
H2884 H 0.57864 0.99276 0.8505 0.0
C2885 C 0.57393 0.0122 0.61663 0.0
C2886 C 0.56477 0.00577 0.76455 0.0
C2887 C 0.57383 0.01338 0.54753 0.0
C2888 C 0.56561 0.98916 0.04458 0.0
C2889 C 0.56553 0.99031 0.97549 0.0
C2890 C 0.57473 0.99662 0.82766 0.0
C2891 C 0.56939 0.00489 0.65196 0.0
C2892 C 0.56958 0.00308 0.72593 0.0
C2893 C 0.5701 0.99746 0.94027 0.0
C2894 C 0.56992 -0.00069 0.86629 0.0
H2895 H 0.56095 0.99529 0.52077 0.0
H2896 H 0.56114 0.9932 0.64053 0.0
H2897 H 0.57835 0.99594 0.73114 0.0
H2898 H 0.57854 0.00676 0.07175 0.0
H2899 H 0.57839 0.00884 0.95198 0.0
C2900 C 0.19199 0.00153 0.75784 0.0
C2901 C 0.19656 0.99438 0.72288 0.0
C2902 C 0.19208 0.00274 0.82691 0.0
C2903 C 0.19947 0.9855 0.9773 0.0
H2904 H 0.193 0.0276 0.05991 0.0
C2905 C 0.20228 -0.00054 0.25735 0.0
C2906 C 0.19773 0.0067 0.29245 0.0
C2907 C 0.20217 0.99829 0.18828 0.0
C2908 C 0.19477 0.01562 0.03801 0.0
H2909 H 0.20479 0.9827 0.73459 0.0
H2910 H 0.20496 0.98484 0.85434 0.0
H2911 H 0.19265 0.02446 0.94062 0.0
H2912 H 0.18952 0.01858 0.28101 0.0
H2913 H 0.18933 0.01647 0.16124 0.0
H2914 H 0.20159 0.97665 0.07466 0.0
C2915 C 0.20126 0.98936 0.82851 0.0
C2916 C 0.19457 0.0138 0.96914 0.0
C2917 C 0.20117 0.98817 0.75942 0.0
C2918 C 0.19313 0.01303 0.25606 0.0
C2919 C 0.19302 0.01186 0.18695 0.0
C2920 C 0.19967 0.98732 0.04616 0.0
C2921 C 0.19674 0.99683 0.86352 0.0
C2922 C 0.19692 -0.0013 0.93748 0.0
C2923 C 0.19752 0.00429 0.1518 0.0
C2924 C 0.19733 0.00242 0.07783 0.0
H2925 H 0.18836 0.00648 0.7318 0.0
H2926 H 0.18847 0.0083 0.85163 0.0
H2927 H 0.20125 0.97352 0.95539 0.0
H2928 H 0.20591 0.99443 0.28328 0.0
H2929 H 0.20577 0.99267 0.16348 0.0
C2930 C 0.56526 0.75449 0.75598 0.0
C2931 C 0.57004 0.74987 0.71939 0.0
C2932 C 0.56526 0.75349 0.82509 0.0
C2933 C 0.57286 0.73255 0.96708 0.0
H2934 H 0.56483 0.76814 0.06918 0.0
C2935 C 0.57449 0.73647 0.25368 0.0
C2936 C 0.56969 0.74138 0.28945 0.0
C2937 C 0.57454 0.73706 0.18445 0.0
C2938 C 0.56704 0.75791 0.04165 0.0
H2939 H 0.57861 0.74067 0.72819 0.0
H2940 H 0.57862 0.73916 0.84804 0.0
H2941 H 0.56493 0.77031 0.9496 0.0
H2942 H 0.56113 0.75042 0.27905 0.0
H2943 H 0.56118 0.75119 0.15931 0.0
H2944 H 0.57497 0.72016 0.05927 0.0
C2945 C 0.57483 0.74333 0.82335 0.0
C2946 C 0.5671 0.75917 0.97265 0.0
C2947 C 0.57483 0.74434 0.75426 0.0
C2948 C 0.56492 0.74657 0.25369 0.0
C2949 C 0.56496 0.74717 0.18461 0.0
C2950 C 0.5728 0.73129 0.03615 0.0
C2951 C 0.57004 0.74782 0.86002 0.0
C2952 C 0.57 0.74651 0.93407 0.0
C2953 C 0.56979 0.74261 0.14871 0.0
C2954 C 0.56988 0.74392 0.07467 0.0
H2955 H 0.56148 0.75872 0.73125 0.0
H2956 H 0.56146 0.75685 0.85106 0.0
H2957 H 0.57507 0.72234 0.9395 0.0
H2958 H 0.57827 0.73249 0.27915 0.0
H2959 H 0.57836 0.73361 0.15903 0.0
C2960 C 0.81599 0.73815 0.50778 0.0
C2961 C 0.82066 0.74403 0.47143 0.0
C2962 C 0.8159 0.73933 0.57685 0.0
C2963 C 0.8251 0.74553 0.72473 0.0
H2964 H 0.81125 0.75878 0.81031 0.0
C2965 C 0.82423 0.76223 1.00459 0.0
C2966 C 0.81957 0.75624 0.04086 0.0
C2967 C 0.82433 0.76107 0.93551 0.0
C2968 C 0.81515 0.75487 0.78756 0.0
H2969 H 0.82894 0.75564 0.48062 0.0
H2970 H 0.82877 0.75777 0.60036 0.0
H2971 H 0.81154 0.75563 0.69101 0.0
H2972 H 0.81131 0.74452 0.03152 0.0
H2973 H 0.81149 0.74245 0.91177 0.0
H2974 H 0.82871 0.74477 0.82129 0.0
C2975 C 0.82518 0.75202 0.57565 0.0
C2976 C 0.81531 0.75302 0.7187 0.0
C2977 C 0.82527 0.75084 0.50656 0.0
C2978 C 0.81497 0.74938 1.00565 0.0
C2979 C 0.81507 0.74824 0.93656 0.0
C2980 C 0.82493 0.74737 0.79358 0.0
C2981 C 0.82047 0.74645 0.61205 0.0
C2982 C 0.82029 0.74831 0.68599 0.0
C2983 C 0.81977 0.7539 0.90024 0.0
C2984 C 0.81995 0.75208 0.8263 0.0
H2985 H 0.81235 0.73283 0.48286 0.0
H2986 H 0.81222 0.7346 0.60267 0.0
H2987 H 0.829 0.7416 0.70199 0.0
H2988 H 0.82787 0.76759 0.0296 0.0
H2989 H 0.828 0.76586 0.90973 0.0
C2990 C 0.45211 0.49735 1.00438 0.0
C2991 C 0.44755 0.49017 0.03952 0.0
C2992 C 0.45202 0.49853 0.9353 0.0
C2993 C 0.4446 0.48131 0.78508 0.0
H2994 H 0.45116 0.52337 0.70215 0.0
C2995 C 0.44187 0.49545 0.50475 0.0
C2996 C 0.44644 0.50264 0.46972 0.0
C2997 C 0.44196 0.49421 0.57383 0.0
C2998 C 0.44936 0.5114 0.72414 0.0
H2999 H 0.43932 0.47839 1.02811 0.0
H3000 H 0.43914 0.48051 0.90829 0.0
H3001 H 0.45148 0.52021 0.82145 0.0
H3002 H 0.45467 0.51436 0.48132 0.0
H3003 H 0.45484 0.51216 0.6011 0.0
H3004 H 0.44248 0.4725 0.68775 0.0
C3005 C 0.44284 0.48507 0.934 0.0
C3006 C 0.44955 0.50957 0.79302 0.0
C3007 C 0.44293 0.48389 1.00313 0.0
C3008 C 0.45105 0.50885 0.50621 0.0
C3009 C 0.45114 0.50763 0.57532 0.0
C3010 C 0.44442 0.48314 0.71619 0.0
C3011 C 0.44736 0.49259 0.89882 0.0
C3012 C 0.44718 0.49448 0.82482 0.0
C3013 C 0.44662 0.50012 0.6104 0.0
C3014 C 0.44679 0.49823 0.6844 0.0
H3015 H 0.45575 0.50233 0.03028 0.0
H3016 H 0.45563 0.50411 0.91048 0.0
H3017 H 0.4428 0.46934 0.80708 0.0
H3018 H 0.43823 0.49048 0.47876 0.0
H3019 H 0.43835 0.48862 0.59857 0.0
C3020 C 0.8239 0.48416 0.30263 0.0
C3021 C 0.81927 0.49036 0.26627 0.0
C3022 C 0.82399 0.4853 0.37174 0.0
C3023 C 0.81726 0.50955 0.51263 0.0
H3024 H 0.82437 0.47254 0.61794 0.0
C3025 C 0.81572 0.50842 0.79926 0.0
C3026 C 0.82035 0.50236 0.8358 0.0
C3027 C 0.81564 0.50727 0.73016 0.0
C3028 C 0.82243 0.48317 0.58947 0.0
H3029 H 0.81106 0.50236 0.27548 0.0
H3030 H 0.81118 0.50407 0.39527 0.0
H3031 H 0.82405 0.46947 0.49861 0.0
H3032 H 0.82859 0.49056 0.82691 0.0
H3033 H 0.8285 0.48881 0.70707 0.0
H3034 H 0.81563 0.52323 0.60349 0.0
C3035 C 0.8148 0.49858 0.37045 0.0
C3036 C 0.82224 0.48138 0.52059 0.0
C3037 C 0.8147 0.49744 0.30138 0.0
C3038 C 0.82495 0.4954 0.80086 0.0
C3039 C 0.82487 0.49422 0.73179 0.0
C3040 C 0.81745 0.51133 0.5815 0.0
C3041 C 0.81947 0.49271 0.4069 0.0
C3042 C 0.81965 0.49454 0.48087 0.0
C3043 C 0.82019 0.49999 0.69517 0.0
C3044 C 0.82003 0.49817 0.62122 0.0
H3045 H 0.82751 0.47873 0.27765 0.0
H3046 H 0.8277 0.4808 0.39744 0.0
H3047 H 0.81532 0.52018 0.48419 0.0
H3048 H 0.81208 0.51376 0.82408 0.0
H3049 H 0.81193 0.51168 0.70432 0.0
C3050 C 0.44189 0.75205 0.80371 0.0
C3051 C 0.44641 0.74459 0.83879 0.0
C3052 C 0.44198 0.75324 0.73462 0.0
C3053 C 0.4518 0.75295 0.59112 0.0
H3054 H 0.43826 0.74655 0.48929 0.0
C3055 C 0.45201 0.74927 0.30434 0.0
C3056 C 0.4475 0.75671 0.26905 0.0
C3057 C 0.45191 0.74818 0.37343 0.0
C3058 C 0.44208 0.74863 0.51678 0.0
H3059 H 0.45455 0.73228 0.82729 0.0
H3060 H 0.45468 0.73409 0.70737 0.0
H3061 H 0.43798 0.74336 0.60864 0.0
H3062 H 0.43937 0.7691 0.28018 0.0
H3063 H 0.43923 0.76745 0.40018 0.0
H3064 H 0.45591 0.75821 0.49926 0.0
C3065 C 0.45108 0.7393 0.73327 0.0
C3066 C 0.44192 0.74677 0.58566 0.0
C3067 C 0.45098 0.7381 0.80238 0.0
C3068 C 0.44293 0.7633 0.30527 0.0
C3069 C 0.44282 0.76218 0.37441 0.0
C3070 C 0.45197 0.75481 0.52224 0.0
C3071 C 0.4466 0.74704 0.69813 0.0
C3072 C 0.44678 0.74888 0.62414 0.0
C3073 C 0.44729 0.75445 0.40975 0.0
C3074 C 0.44711 0.75268 0.48375 0.0
H3075 H 0.4383 0.75734 0.82967 0.0
H3076 H 0.43847 0.75949 0.70998 0.0
H3077 H 0.45562 0.75503 0.61859 0.0
H3078 H 0.4556 0.74393 0.27853 0.0
H3079 H 0.45542 0.74194 0.39823 0.0
C3080 C 0.20205 0.24796 0.05295 0.0
C3081 C 0.19751 0.24071 1.01773 0.0
C3082 C 0.20195 0.24912 0.12204 0.0
C3083 C 0.19208 0.24925 0.26511 0.0
H3084 H 0.20555 0.2422 0.36756 0.0
C3085 C 0.1918 0.24604 0.55224 0.0
C3086 C 0.19636 0.25319 0.58729 0.0
C3087 C 0.19189 0.24483 0.48316 0.0
C3088 C 0.20175 0.24447 0.33991 0.0
H3089 H 0.1893 0.22871 0.02899 0.0
H3090 H 0.18915 0.23048 0.14891 0.0
H3091 H 0.20585 0.23896 0.24831 0.0
H3092 H 0.2046 0.26497 0.57571 0.0
H3093 H 0.20472 0.26316 0.45586 0.0
H3094 H 0.18798 0.25478 0.35672 0.0
C3095 C 0.19278 0.23555 0.12311 0.0
C3096 C 0.20192 0.24258 0.27107 0.0
C3097 C 0.19289 0.23436 0.05401 0.0
C3098 C 0.20099 0.25939 0.55084 0.0
C3099 C 0.20108 0.25818 0.48176 0.0
C3100 C 0.19191 0.25115 0.33397 0.0
C3101 C 0.19729 0.2431 0.15839 0.0
C3102 C 0.19709 0.24494 0.23236 0.0
C3103 C 0.19656 0.25071 0.44664 0.0
C3104 C 0.19674 0.24881 0.37268 0.0
H3105 H 0.20567 0.2531 1.0271 0.0
H3106 H 0.20548 0.2552 0.1468 0.0
H3107 H 0.18828 0.25152 0.23744 0.0
H3108 H 0.18817 0.24098 0.57824 0.0
H3109 H 0.18834 0.2388 0.45855 0.0
C3110 C 0.57444 0.505 0.54841 0.0
C3111 C 0.57006 0.49669 0.58333 0.0
C3112 C 0.57435 0.50619 0.47936 0.0
C3113 C 0.56747 0.48712 0.32876 0.0
H3114 H 0.57307 0.53064 0.24595 0.0
C3115 C 0.56452 0.5003 0.04853 0.0
C3116 C 0.5689 0.50856 1.01334 0.0
C3117 C 0.56463 0.49919 0.11758 0.0
C3118 C 0.57154 0.51827 0.26791 0.0
H3119 H 0.56213 0.48292 0.57155 0.0
H3120 H 0.56195 0.48503 0.45161 0.0
H3121 H 0.57337 0.52765 0.36536 0.0
H3122 H 0.57683 0.52235 1.02463 0.0
H3123 H 0.57704 0.52038 0.14465 0.0
H3124 H 0.56565 0.47773 0.23134 0.0
C3125 C 0.56552 0.4905 0.47756 0.0
C3126 C 0.57172 0.51654 0.33686 0.0
C3127 C 0.56561 0.48932 0.54673 0.0
C3128 C 0.57335 0.51599 0.04968 0.0
C3129 C 0.57346 0.51489 0.11889 0.0
C3130 C 0.5673 0.48885 0.25983 0.0
C3131 C 0.56986 0.49912 0.44262 0.0
C3132 C 0.56969 0.50093 0.3686 0.0
C3133 C 0.56913 0.50628 0.15407 0.0
C3134 C 0.56933 0.50447 0.22809 0.0
H3135 H 0.57795 0.51085 0.57447 0.0
H3136 H 0.57783 0.51264 0.45476 0.0
H3137 H 0.56595 0.47475 0.35071 0.0
H3138 H 0.56101 0.49441 1.02269 0.0
H3139 H 0.56116 0.49276 0.14237 0.0
C3140 C 0.19224 0.50376 0.25347 0.0
C3141 C 0.19666 0.49568 0.21866 0.0
C3142 C 0.19232 0.50488 0.32252 0.0
C3143 C 0.19922 0.48588 0.47309 0.0
H3144 H 0.19353 0.52914 0.55592 0.0
C3145 C 0.20212 0.49888 0.75327 0.0
C3146 C 0.19771 0.50697 0.78836 0.0
C3147 C 0.20201 0.49782 0.68424 0.0
C3148 C 0.19508 0.51685 0.53393 0.0
H3149 H 0.20463 0.48224 0.23056 0.0
H3150 H 0.20478 0.48423 0.35049 0.0
H3151 H 0.19325 0.52629 0.43649 0.0
H3152 H 0.18975 0.52049 0.77696 0.0
H3153 H 0.18956 0.51859 0.65697 0.0
H3154 H 0.20104 0.47643 0.5705 0.0
C3155 C 0.2012 0.48957 0.32447 0.0
C3156 C 0.19492 0.51519 0.465 0.0
C3157 C 0.20112 0.48846 0.25532 0.0
C3158 C 0.19325 0.51426 0.75197 0.0
C3159 C 0.19314 0.51321 0.6828 0.0
C3160 C 0.19938 0.48754 0.542 0.0
C3161 C 0.19683 0.49795 0.3593 0.0
C3162 C 0.19698 0.49967 0.43328 0.0
C3163 C 0.1975 0.50479 0.64771 0.0
C3164 C 0.19732 0.50306 0.57373 0.0
H3165 H 0.18872 0.50948 0.22735 0.0
H3166 H 0.18882 0.51115 0.34707 0.0
H3167 H 0.20077 0.47359 0.45111 0.0
H3168 H 0.20564 0.49311 0.77917 0.0
H3169 H 0.20551 0.49154 0.6595 0.0
C3170 C 0.57521 0.24736 0.25181 0.0
C3171 C 0.57063 0.25438 0.21669 0.0
C3172 C 0.57512 0.24617 0.32091 0.0
C3173 C 0.56768 0.26325 0.47087 0.0
H3174 H 0.57424 0.22131 0.55426 0.0
C3175 C 0.56488 0.24923 0.7511 0.0
C3176 C 0.56944 0.24211 0.78634 0.0
C3177 C 0.56498 0.25041 0.682 0.0
C3178 C 0.57243 0.23324 0.53214 0.0
H3179 H 0.56236 0.26584 0.22812 0.0
H3180 H 0.5622 0.26373 0.34785 0.0
H3181 H 0.57459 0.22445 0.43494 0.0
H3182 H 0.57768 0.23046 0.77513 0.0
H3183 H 0.57787 0.23258 0.65539 0.0
H3184 H 0.56552 0.27205 0.56804 0.0
C3185 C 0.56591 0.2593 0.32216 0.0
C3186 C 0.57264 0.23507 0.46326 0.0
C3187 C 0.566 0.26047 0.25306 0.0
C3188 C 0.57406 0.23591 0.75008 0.0
C3189 C 0.57416 0.23709 0.68097 0.0
C3190 C 0.56747 0.26143 0.53974 0.0
C3191 C 0.57045 0.25196 0.35735 0.0
C3192 C 0.57027 0.25011 0.43132 0.0
C3193 C 0.56965 0.24452 0.64567 0.0
C3194 C 0.56984 0.24639 0.57169 0.0
H3195 H 0.57886 0.24249 0.22588 0.0
H3196 H 0.57874 0.24071 0.34577 0.0
H3197 H 0.56587 0.27518 0.44873 0.0
H3198 H 0.56123 0.25415 0.77693 0.0
H3199 H 0.56137 0.25592 0.65707 0.0
C3200 C 0.31817 0.44114 0.43099 0.0
C3201 C 0.31887 0.44643 0.49691 0.0
C3202 C 0.31926 0.42345 0.41129 0.0
C3203 C 0.31876 0.37756 0.47248 0.0
H3204 H 0.3266 0.3654 0.3117 0.0
C3205 C 0.31966 0.30374 0.38674 0.0
C3206 C 0.31942 0.3001 0.31904 0.0
C3207 C 0.32061 0.32123 0.40972 0.0
C3208 C 0.32433 0.36849 0.35629 0.0
H3209 H 0.32138 0.43741 0.59376 0.0
H3210 H 0.32313 0.40605 0.55964 0.0
H3211 H 0.32646 0.39659 0.34998 0.0
H3212 H 0.32013 0.31182 0.22198 0.0
H3213 H 0.32153 0.34267 0.26157 0.0
H3214 H 0.31631 0.34995 0.47746 0.0
C3215 C 0.3218 0.41578 0.52312 0.0
C3216 C 0.32429 0.38641 0.37853 0.0
C3217 C 0.32083 0.43371 0.54263 0.0
C3218 C 0.32035 0.31425 0.27447 0.0
C3219 C 0.32116 0.33195 0.29748 0.0
C3220 C 0.3187 0.35974 0.44972 0.0
C3221 C 0.32097 0.41042 0.45725 0.0
C3222 C 0.32148 0.39117 0.43672 0.0
C3223 C 0.32117 0.3358 0.36566 0.0
C3224 C 0.32147 0.35485 0.39102 0.0
H3225 H 0.31669 0.45068 0.39454 0.0
H3226 H 0.31853 0.41978 0.36041 0.0
H3227 H 0.31646 0.38082 0.5168 0.0
H3228 H 0.31902 0.29301 0.42225 0.0
H3229 H 0.3208 0.32329 0.46238 0.0
C3230 C 0.94635 0.81318 0.54021 0.0
C3231 C 0.9483 0.80044 0.49467 0.0
C3232 C 0.94539 0.83111 0.52048 0.0
C3233 C 0.94293 0.86054 0.37557 0.0
H3234 H 0.95094 0.89687 0.47457 0.0
C3235 C 0.94697 0.93274 0.27147 0.0
C3236 C 0.94791 0.94683 0.31608 0.0
C3237 C 0.94614 0.91503 0.29447 0.0
C3238 C 0.94854 0.88711 0.44681 0.0
H3239 H 0.95047 0.79616 0.39236 0.0
H3240 H 0.94865 0.82709 0.35784 0.0
H3241 H 0.95076 0.86598 0.51402 0.0
H3242 H 0.94828 0.95383 0.4193 0.0
H3243 H 0.94646 0.92355 0.45937 0.0
H3244 H 0.94065 0.88161 0.30859 0.0
C3245 C 0.94792 0.82342 0.40875 0.0
C3246 C 0.94847 0.86928 0.46962 0.0
C3247 C 0.94899 0.80571 0.42868 0.0
C3248 C 0.94764 0.94315 0.38377 0.0
C3249 C 0.94666 0.92565 0.40672 0.0
C3250 C 0.94292 0.87847 0.35326 0.0
C3251 C 0.94623 0.83646 0.45455 0.0
C3252 C 0.94574 0.85572 0.43385 0.0
C3253 C 0.9461 0.91112 0.36265 0.0
C3254 C 0.94579 0.89206 0.38803 0.0
H3255 H 0.94579 0.80949 0.59138 0.0
H3256 H 0.94407 0.84085 0.55687 0.0
H3257 H 0.94077 0.8504 0.34701 0.0
H3258 H 0.94721 0.93521 0.21899 0.0
H3259 H 0.94577 0.90434 0.25856 0.0
C3260 C 0.31814 0.94124 0.93007 0.0
C3261 C 0.31884 0.94661 0.99591 0.0
C3262 C 0.31921 0.92351 0.91067 0.0
C3263 C 0.31868 0.87769 0.97252 0.0
H3264 H 0.3266 0.86531 0.81246 0.0
C3265 C 0.31965 0.80373 0.88836 0.0
C3266 C 0.31944 0.79998 0.82073 0.0
C3267 C 0.32058 0.82126 0.91105 0.0
C3268 C 0.32431 0.86846 0.85685 0.0
H3269 H 0.32134 0.93767 0.09293 0.0
H3270 H 0.32306 0.90626 0.05936 0.0
H3271 H 0.32643 0.89655 0.85009 0.0
H3272 H 0.3202 0.81155 0.72348 0.0
H3273 H 0.32156 0.84247 0.76252 0.0
H3274 H 0.31624 0.85008 0.97792 0.0
C3275 C 0.32173 0.91596 1.02266 0.0
C3276 C 0.32426 0.8864 0.87872 0.0
C3277 C 0.32078 0.93392 0.04186 0.0
C3278 C 0.32039 0.81406 0.77594 0.0
C3279 C 0.32118 0.83181 0.79864 0.0
C3280 C 0.31864 0.85983 0.95012 0.0
C3281 C 0.32091 0.91053 0.95687 0.0
C3282 C 0.32142 0.89125 0.93665 0.0
C3283 C 0.32116 0.83577 0.86672 0.0
C3284 C 0.32143 0.85486 0.89169 0.0
H3285 H 0.31667 0.95076 0.89345 0.0
H3286 H 0.31849 0.91978 0.85985 0.0
H3287 H 0.31637 0.88101 1.01666 0.0
H3288 H 0.31899 0.79306 0.92405 0.0
H3289 H 0.32073 0.8234 0.96367 0.0
C3290 C 0.94845 0.44108 0.87697 0.0
C3291 C 0.94783 0.44633 0.81086 0.0
C3292 C 0.94741 0.42332 0.89665 0.0
C3293 C 0.94823 0.37752 0.83569 0.0
H3294 H 0.94028 0.36471 0.99532 0.0
C3295 C 0.94759 0.30357 0.92109 0.0
C3296 C 0.94778 0.29986 0.9888 0.0
C3297 C 0.94659 0.32103 0.89806 0.0
C3298 C 0.94258 0.36798 0.95106 0.0
H3299 H 0.94548 0.43719 0.71364 0.0
H3300 H 0.94381 0.40575 0.74775 0.0
H3301 H 0.9403 0.39593 0.95703 0.0
H3302 H 0.94692 0.3114 0.08581 0.0
H3303 H 0.94543 0.34223 0.04615 0.0
H3304 H 0.95082 0.35008 0.83109 0.0
C3305 C 0.94505 0.41554 0.78443 0.0
C3306 C 0.94254 0.38592 0.9288 0.0
C3307 C 0.94598 0.43352 0.76492 0.0
C3308 C 0.94675 0.31389 0.03331 0.0
C3309 C 0.94588 0.33158 1.01026 0.0
C3310 C 0.94835 0.35969 0.85846 0.0
C3311 C 0.94582 0.41021 0.85049 0.0
C3312 C 0.9454 0.39092 0.87102 0.0
C3313 C 0.94591 0.33551 0.9421 0.0
C3314 C 0.94555 0.35457 0.91675 0.0
H3315 H 0.94985 0.45068 0.91357 0.0
H3316 H 0.94808 0.41967 0.94769 0.0
H3317 H 0.95055 0.38096 0.7917 0.0
H3318 H 0.94831 0.29293 0.88561 0.0
H3319 H 0.94644 0.32315 0.84539 0.0
C3320 C 0.69626 0.68343 0.79026 0.0
C3321 C 0.69833 0.69599 0.74451 0.0
C3322 C 0.69519 0.66554 0.77099 0.0
C3323 C 0.69256 0.63615 0.62681 0.0
H3324 H 0.70018 0.59929 0.72743 0.0
C3325 C 0.69604 0.56357 0.525 0.0
C3326 C 0.69685 0.54946 0.57002 0.0
C3327 C 0.69532 0.58135 0.5475 0.0
C3328 C 0.69789 0.60921 0.69922 0.0
H3329 H 0.70059 0.69998 0.64227 0.0
H3330 H 0.69858 0.66912 0.60854 0.0
H3331 H 0.70027 0.63024 0.76591 0.0
H3332 H 0.69711 0.54251 0.67338 0.0
H3333 H 0.69548 0.57295 0.71263 0.0
H3334 H 0.69011 0.6152 0.56036 0.0
C3335 C 0.69785 0.67291 0.65928 0.0
C3336 C 0.69797 0.62707 0.72147 0.0
C3337 C 0.69904 0.69057 0.67877 0.0
C3338 C 0.69655 0.55321 0.63758 0.0
C3339 C 0.69569 0.57078 0.66004 0.0
C3340 C 0.69238 0.6182 0.60507 0.0
C3341 C 0.69603 0.66005 0.70531 0.0
C3342 C 0.69538 0.64081 0.6851 0.0
C3343 C 0.69527 0.58531 0.61558 0.0
C3344 C 0.69511 0.60442 0.64043 0.0
H3345 H 0.69569 0.68723 0.84124 0.0
H3346 H 0.69377 0.65594 0.80754 0.0
H3347 H 0.6905 0.64644 0.59781 0.0
H3348 H 0.69631 0.56105 0.4726 0.0
H3349 H 0.69506 0.59203 0.51131 0.0
C3350 C 0.06964 0.05321 0.67451 0.0
C3351 C 0.06936 0.04958 0.74222 0.0
C3352 C 0.07061 0.07069 0.65139 0.0
C3353 C 0.07434 0.11791 0.70437 0.0
H3354 H 0.06648 0.13027 0.54358 0.0
C3355 C 0.06821 0.19057 0.62867 0.0
C3356 C 0.06889 0.19583 0.56264 0.0
C3357 C 0.0693 0.17288 0.64863 0.0
C3358 C 0.06877 0.127 0.58797 0.0
H3359 H 0.07004 0.06128 0.83921 0.0
H3360 H 0.07147 0.09213 0.79933 0.0
H3361 H 0.06632 0.0994 0.58329 0.0
H3362 H 0.07138 0.18677 0.46588 0.0
H3363 H 0.07313 0.15543 0.50046 0.0
H3364 H 0.07648 0.14599 0.71036 0.0
C3365 C 0.07111 0.08141 0.76354 0.0
C3366 C 0.06871 0.10919 0.61094 0.0
C3367 C 0.07028 0.06371 0.78671 0.0
C3368 C 0.07084 0.18309 0.51708 0.0
C3369 C 0.07181 0.16518 0.53686 0.0
C3370 C 0.07431 0.13582 0.6819 0.0
C3371 C 0.07116 0.08525 0.69532 0.0
C3372 C 0.07147 0.10429 0.66975 0.0
C3373 C 0.07099 0.15984 0.60283 0.0
C3374 C 0.0715 0.1406 0.62361 0.0
H3375 H 0.06901 0.04249 0.63908 0.0
H3376 H 0.07082 0.07275 0.59872 0.0
H3377 H 0.0766 0.11481 0.74905 0.0
H3378 H 0.06674 0.20013 0.665 0.0
H3379 H 0.06859 0.16923 0.69958 0.0
C3380 C 0.69725 0.05313 0.13399 0.0
C3381 C 0.69747 0.04936 0.06639 0.0
C3382 C 0.6963 0.07064 0.15654 0.0
C3383 C 0.69248 0.11769 0.10218 0.0
H3384 H 0.70045 0.13051 0.26163 0.0
C3385 C 0.69851 0.19069 0.17512 0.0
C3386 C 0.69788 0.19598 0.24112 0.0
C3387 C 0.69744 0.17294 0.1557 0.0
C3388 C 0.69813 0.12712 0.2176 0.0
H3389 H 0.6967 0.06087 0.96904 0.0
H3390 H 0.69529 0.09177 1.00788 0.0
H3391 H 0.70062 0.09958 0.22298 0.0
H3392 H 0.6955 0.1869 0.3384 0.0
H3393 H 0.69379 0.15548 0.30477 0.0
H3394 H 0.6903 0.14572 0.09546 0.0
C3395 C 0.69568 0.08113 0.04404 0.0
C3396 C 0.6982 0.10926 0.19526 0.0
C3397 C 0.69651 0.0634 1.02147 0.0
C3398 C 0.69601 0.1832 0.28721 0.0
C3399 C 0.69506 0.16524 0.26797 0.0
C3400 C 0.6925 0.13565 0.12401 0.0
C3401 C 0.6957 0.08511 0.11211 0.0
C3402 C 0.6954 0.1042 0.13696 0.0
C3403 C 0.69583 0.15988 0.20203 0.0
C3404 C 0.69535 0.14059 0.18182 0.0
H3405 H 0.69792 0.04249 0.16977 0.0
H3406 H 0.69613 0.07281 0.20915 0.0
H3407 H 0.69018 0.11446 0.05788 0.0
H3408 H 0.69992 0.20027 0.1384 0.0
H3409 H 0.69812 0.16927 0.10475 0.0
C3410 C 0.07033 0.68274 1.0205 0.0
C3411 C 0.06918 0.69657 0.06548 0.0
C3412 C 0.07121 0.66499 0.04283 0.0
C3413 C 0.06863 0.63621 0.19268 0.0
H3414 H 0.07705 0.60075 0.09459 0.0
C3415 C 0.07138 0.56249 0.285 0.0
C3416 C 0.06966 0.54961 0.23861 0.0
C3417 C 0.07222 0.58053 0.26586 0.0
C3418 C 0.0747 0.61055 0.12266 0.0
H3419 H 0.06846 0.70307 0.16889 0.0
H3420 H 0.07034 0.67275 0.20795 0.0
H3421 H 0.07694 0.63208 0.0574 0.0
H3422 H 0.06779 0.54521 0.13556 0.0
H3423 H 0.06942 0.57637 0.10205 0.0
H3424 H 0.06646 0.61462 0.25823 0.0
C3425 C 0.07028 0.67507 0.15537 0.0
C3426 C 0.07459 0.62854 0.10104 0.0
C3427 C 0.06926 0.69259 0.13302 0.0
C3428 C 0.06909 0.55487 0.17245 0.0
C3429 C 0.07005 0.57271 0.15314 0.0
C3430 C 0.06883 0.61834 0.21485 0.0
C3431 C 0.07108 0.66079 0.11075 0.0
C3432 C 0.07149 0.64167 0.13524 0.0
C3433 C 0.07149 0.58587 0.19976 0.0
C3434 C 0.0718 0.60522 0.1797 0.0
H3435 H 0.07026 0.68544 0.96811 0.0
H3436 H 0.07177 0.6545 1.00651 0.0
H3437 H 0.06606 0.64559 0.21987 0.0
H3438 H 0.07182 0.55881 0.33634 0.0
H3439 H 0.07335 0.59036 0.30287 0.0
C3440 C 0.82092 0.43358 0.04156 0.0
C3441 C 0.819 0.44631 0.99566 0.0
C3442 C 0.82189 0.41565 1.02217 0.0
C3443 C 0.82441 0.38619 0.87786 0.0
H3444 H 0.81636 0.34989 0.97681 0.0
C3445 C 0.82035 0.31405 0.77428 0.0
C3446 C 0.8194 0.29995 0.81898 0.0
C3447 C 0.82119 0.33175 0.79716 0.0
C3448 C 0.81877 0.35964 0.94908 0.0
H3449 H 0.81688 0.45057 0.89311 0.0
H3450 H 0.81872 0.41964 0.8592 0.0
H3451 H 0.81653 0.38078 1.01589 0.0
H3452 H 0.819 0.29292 0.92224 0.0
H3453 H 0.82084 0.32318 0.96212 0.0
H3454 H 0.82671 0.36511 0.81126 0.0
C3455 C 0.81942 0.42332 0.91012 0.0
C3456 C 0.81884 0.37747 0.97168 0.0
C3457 C 0.81834 0.44103 0.92969 0.0
C3458 C 0.81966 0.30361 0.88665 0.0
C3459 C 0.82064 0.32109 0.90948 0.0
C3460 C 0.82443 0.36826 0.85576 0.0
C3461 C 0.82109 0.41029 0.95626 0.0
C3462 C 0.82158 0.39102 0.93589 0.0
C3463 C 0.82122 0.33563 0.8653 0.0
C3464 C 0.82154 0.35469 0.89052 0.0
H3465 H 0.82145 0.43728 0.09272 0.0
H3466 H 0.8232 0.40592 0.05883 0.0
H3467 H 0.82659 0.39632 0.84929 0.0
H3468 H 0.82012 0.3116 0.72182 0.0
H3469 H 0.82158 0.34244 0.76118 0.0
C3470 C 0.44596 0.93341 0.76989 0.0
C3471 C 0.44773 0.94636 0.81573 0.0
C3472 C 0.44507 0.91545 0.78976 0.0
C3473 C 0.44253 0.88599 0.93459 0.0
H3474 H 0.45098 0.85025 0.8384 0.0
C3475 C 0.44682 0.81414 0.04054 0.0
C3476 C 0.44791 0.8001 0.99628 0.0
C3477 C 0.44594 0.8318 1.01722 0.0
C3478 C 0.44846 0.85983 0.86534 0.0
H3479 H 0.44964 0.95098 0.91858 0.0
H3480 H 0.44792 0.91999 0.9533 0.0
H3481 H 0.45065 0.88108 0.79842 0.0
H3482 H 0.44853 0.7931 0.89322 0.0
H3483 H 0.44664 0.82325 0.8525 0.0
H3484 H 0.44027 0.8648 1.00126 0.0
C3485 C 0.44729 0.92351 0.90209 0.0
C3486 C 0.44831 0.87762 0.84222 0.0
C3487 C 0.4483 0.94126 0.88207 0.0
C3488 C 0.44777 0.80376 0.92852 0.0
C3489 C 0.44675 0.82118 0.90521 0.0
C3490 C 0.4426 0.86808 0.95718 0.0
C3491 C 0.44579 0.91026 0.85606 0.0
C3492 C 0.44541 0.89099 0.87699 0.0
C3493 C 0.44601 0.83568 0.94902 0.0
C3494 C 0.44563 0.85471 0.92341 0.0
H3495 H 0.44551 0.93696 0.71844 0.0
H3496 H 0.44389 0.90554 0.75317 0.0
H3497 H 0.44023 0.89597 0.96238 0.0
H3498 H 0.44694 0.81169 0.09308 0.0
H3499 H 0.44543 0.84247 0.05294 0.0
C3500 C 0.81897 0.80543 0.38126 0.0
C3501 C 0.81958 0.80019 0.31519 0.0
C3502 C 0.81999 0.82322 0.40066 0.0
C3503 C 0.81908 0.869 0.33882 0.0
H3504 H 0.82707 0.88205 0.49782 0.0
C3505 C 0.81975 0.94307 0.42174 0.0
C3506 C 0.81957 0.94689 0.48932 0.0
C3507 C 0.82074 0.92557 0.39929 0.0
C3508 C 0.82475 0.8787 0.45373 0.0
H3509 H 0.82187 0.80938 0.21775 0.0
H3510 H 0.82349 0.84084 0.25137 0.0
H3511 H 0.82705 0.85077 0.4604 0.0
H3512 H 0.82045 0.9355 0.58671 0.0
H3513 H 0.82193 0.90461 0.54806 0.0
H3514 H 0.81647 0.89643 0.33351 0.0
C3515 C 0.82228 0.83103 0.28824 0.0
C3516 C 0.82479 0.86074 0.43199 0.0
C3517 C 0.82139 0.81304 0.26901 0.0
C3518 C 0.82061 0.93292 0.53428 0.0
C3519 C 0.82147 0.9152 0.51182 0.0
C3520 C 0.81895 0.88686 0.36109 0.0
C3521 C 0.82153 0.83635 0.35424 0.0
C3522 C 0.82193 0.85566 0.37442 0.0
C3523 C 0.82142 0.91116 0.4438 0.0
C3524 C 0.82177 0.89206 0.4191 0.0
H3525 H 0.8176 0.7958 0.41802 0.0
H3526 H 0.81932 0.82686 0.45166 0.0
H3527 H 0.81674 0.86549 0.295 0.0
H3528 H 0.81902 0.95366 0.38592 0.0
H3529 H 0.82087 0.92337 0.34668 0.0
C3530 C 0.44607 0.31309 0.53672 0.0
C3531 C 0.44791 0.30026 0.4909 0.0
C3532 C 0.44514 0.33105 0.51706 0.0
C3533 C 0.44263 0.36058 0.37252 0.0
H3534 H 0.45087 0.39656 0.47043 0.0
C3535 C 0.44674 0.43276 0.26855 0.0
C3536 C 0.44776 0.44679 0.31321 0.0
C3537 C 0.4459 0.41504 0.29142 0.0
C3538 C 0.44841 0.38691 0.443 0.0
H3539 H 0.44992 0.29586 0.38823 0.0
H3540 H 0.44816 0.32684 0.35386 0.0
H3541 H 0.45063 0.36566 0.50972 0.0
H3542 H 0.44827 0.45366 0.41646 0.0
H3543 H 0.44644 0.42337 0.45637 0.0
H3544 H 0.44034 0.38176 0.30604 0.0
C3545 C 0.44749 0.32322 0.40491 0.0
C3546 C 0.4483 0.36907 0.46571 0.0
C3547 C 0.44853 0.30548 0.42474 0.0
C3548 C 0.44757 0.44303 0.38087 0.0
C3549 C 0.44658 0.42553 0.40372 0.0
C3550 C 0.44265 0.37852 0.35031 0.0
C3551 C 0.44591 0.33634 0.45097 0.0
C3552 C 0.44548 0.35563 0.43033 0.0
C3553 C 0.44594 0.41106 0.35954 0.0
C3554 C 0.4456 0.39198 0.38472 0.0
H3555 H 0.44557 0.30945 0.58803 0.0
H3556 H 0.44391 0.34085 0.55366 0.0
H3557 H 0.44039 0.35052 0.34425 0.0
H3558 H 0.44691 0.4353 0.21607 0.0
H3559 H 0.44546 0.40441 0.25542 0.0
C3560 C 0.19461 0.56022 0.04046 0.0
C3561 C 0.19985 0.55191 0.04721 0.0
C3562 C 0.19381 0.57814 0.06157 0.0
C3563 C 0.20111 0.62057 0.08434 0.0
H3564 H 0.19152 0.63186 0.23226 0.0
C3565 C 0.20438 0.68627 0.22452 0.0
C3566 C 0.19981 0.69593 0.24945 0.0
C3567 C 0.20373 0.66882 0.20016 0.0
C3568 C 0.19415 0.62908 0.1902 0.0
H3569 H 0.20839 0.55602 0.07962 0.0
H3570 H 0.20706 0.58722 0.11311 0.0
H3571 H 0.19135 0.6015 0.18413 0.0
H3572 H 0.19097 0.69449 0.27049 0.0
H3573 H 0.18976 0.6639 0.22586 0.0
H3574 H 0.20391 0.64785 0.08892 0.0
C3575 C 0.20354 0.57989 0.09286 0.0
C3576 C 0.19404 0.61166 0.16266 0.0
C3577 C 0.20429 0.56201 0.07354 0.0
C3578 C 0.19458 0.68737 0.25181 0.0
C3579 C 0.19389 0.66982 0.22611 0.0
C3580 C 0.20116 0.63794 0.11095 0.0
C3581 C 0.19829 0.58813 0.08796 0.0
C3582 C 0.19764 0.60713 0.11055 0.0
C3583 C 0.19845 0.66048 0.19825 0.0
C3584 C 0.19783 0.64236 0.16581 0.0
H3585 H 0.1911 0.55273 1.02084 0.0
H3586 H 0.18972 0.58421 0.05701 0.0
H3587 H 0.2039 0.61752 0.04386 0.0
H3588 H 0.20849 0.69236 0.22267 0.0
H3589 H 0.2074 0.66197 0.18188 0.0
C3590 C 0.56854 0.05672 0.1715 0.0
C3591 C 0.56913 0.05146 0.23765 0.0
C3592 C 0.56956 0.0745 0.15192 0.0
C3593 C 0.56872 0.12036 0.21327 0.0
H3594 H 0.5767 0.13324 0.05389 0.0
C3595 C 0.5696 0.19448 0.1298 0.0
C3596 C 0.56943 0.19837 0.06221 0.0
C3597 C 0.57053 0.17692 0.15231 0.0
C3598 C 0.57439 0.12995 0.09808 0.0
H3599 H 0.57141 0.06064 0.33505 0.0
H3600 H 0.57305 0.0921 0.30111 0.0
H3601 H 0.57662 0.10196 0.09165 0.0
H3602 H 0.57025 0.187 0.96486 0.0
H3603 H 0.57162 0.15602 1.00361 0.0
H3604 H 0.56619 0.14786 0.21839 0.0
C3605 C 0.57184 0.0823 0.26432 0.0
C3606 C 0.57439 0.11198 0.12002 0.0
C3607 C 0.57093 0.06431 0.28374 0.0
C3608 C 0.57041 0.18438 1.01729 0.0
C3609 C 0.5712 0.16661 0.03982 0.0
C3610 C 0.56863 0.13823 0.19082 0.0
C3611 C 0.5711 0.08764 0.19821 0.0
C3612 C 0.57154 0.10695 0.17775 0.0
C3613 C 0.57115 0.16251 0.10785 0.0
C3614 C 0.57145 0.14338 0.13266 0.0
H3615 H 0.56717 0.0471 0.13478 0.0
H3616 H 0.56891 0.07814 0.10084 0.0
H3617 H 0.56639 0.11691 0.25721 0.0
H3618 H 0.56892 0.20506 0.16561 0.0
H3619 H 0.57066 0.17468 0.20492 0.0
C3620 C 0.1962 0.0635 0.51855 0.0
C3621 C 0.19806 0.05061 0.56427 0.0
C3622 C 0.19529 0.08144 0.53828 0.0
C3623 C 0.19281 0.11074 0.68338 0.0
H3624 H 0.20084 0.14713 0.58474 0.0
C3625 C 0.19672 0.18303 0.7872 0.0
C3626 C 0.19764 0.19716 0.74249 0.0
C3627 C 0.19594 0.16528 0.76437 0.0
C3628 C 0.19844 0.13736 0.61242 0.0
H3629 H 0.20012 0.04613 0.66685 0.0
H3630 H 0.19838 0.07707 0.70131 0.0
H3631 H 0.20067 0.11627 0.54531 0.0
H3632 H 0.19806 0.20412 0.63918 0.0
H3633 H 0.19635 0.17379 0.59939 0.0
H3634 H 0.19051 0.13176 0.75023 0.0
C3635 C 0.19769 0.07351 0.65028 0.0
C3636 C 0.19837 0.11954 0.58961 0.0
C3637 C 0.19871 0.05578 0.63038 0.0
C3638 C 0.19743 0.19343 0.67483 0.0
C3639 C 0.19651 0.1759 0.65204 0.0
C3640 C 0.19279 0.12866 0.70569 0.0
C3641 C 0.19608 0.08668 0.60436 0.0
C3642 C 0.19562 0.10595 0.6252 0.0
C3643 C 0.19595 0.16136 0.69624 0.0
C3644 C 0.19567 0.14228 0.67104 0.0
H3645 H 0.19568 0.0599 0.46728 0.0
H3646 H 0.19403 0.09128 0.50176 0.0
H3647 H 0.19062 0.10059 0.71183 0.0
H3648 H 0.19691 0.18552 0.83966 0.0
H3649 H 0.19556 0.1546 0.80039 0.0
C3650 C 0.56345 0.56 0.69704 0.0
C3651 C 0.56695 0.55224 0.74482 0.0
C3652 C 0.56445 0.57728 0.67267 0.0
C3653 C 0.5715 0.62072 0.70464 0.0
H3654 H 0.56832 0.62773 0.51912 0.0
C3655 C 0.57263 0.69104 0.56991 0.0
C3656 C 0.5677 0.69511 0.53534 0.0
C3657 C 0.57356 0.6735 0.59437 0.0
C3658 C 0.56924 0.62603 0.57096 0.0
H3659 H 0.57425 0.55683 0.80529 0.0
H3660 H 0.57606 0.58744 0.76218 0.0
H3661 H 0.56815 0.59749 0.56555 0.0
H3662 H 0.55997 0.684 0.49783 0.0
H3663 H 0.56165 0.65355 0.53807 0.0
H3664 H 0.57252 0.64952 0.70947 0.0
C3665 C 0.57249 0.57996 0.74393 0.0
C3666 C 0.56912 0.60867 0.5978 0.0
C3667 C 0.57147 0.56245 0.76863 0.0
C3668 C 0.56383 0.68125 0.52383 0.0
C3669 C 0.56479 0.66377 0.54691 0.0
C3670 C 0.57166 0.63819 0.67747 0.0
C3671 C 0.56903 0.58748 0.69474 0.0
C3672 C 0.57005 0.60577 0.66547 0.0
C3673 C 0.56962 0.65968 0.58333 0.0
C3674 C 0.57036 0.64109 0.61067 0.0
H3675 H 0.55989 0.55266 0.67774 0.0
H3676 H 0.5616 0.58267 0.63634 0.0
H3677 H 0.57223 0.61905 0.75687 0.0
H3678 H 0.57565 0.70153 0.58026 0.0
H3679 H 0.57732 0.67077 0.62211 0.0
C3680 C 0.32094 0.19357 0.14029 0.0
C3681 C 0.32071 0.19964 0.2056 0.0
C3682 C 0.32018 0.17534 0.12524 0.0
C3683 C 0.3161 0.13033 0.19853 0.0
H3684 H 0.32444 0.11234 0.04895 0.0
C3685 C 0.32209 0.05524 0.15683 0.0
C3686 C 0.32116 0.04798 0.09389 0.0
C3687 C 0.32121 0.07358 0.16914 0.0
C3688 C 0.32203 0.11718 0.0904 0.0
H3689 H 0.3194 0.19144 0.30654 0.0
H3690 H 0.31837 0.15939 0.28126 0.0
H3691 H 0.32461 0.14433 0.07399 0.0
H3692 H 0.31851 0.05419 0.9946 0.0
H3693 H 0.31716 0.08657 1.01552 0.0
H3694 H 0.31385 0.10271 0.21666 0.0
C3695 C 0.31895 0.16872 0.24084 0.0
C3696 C 0.32209 0.13565 0.10482 0.0
C3697 C 0.31956 0.18713 0.25566 0.0
C3698 C 0.31924 0.05941 0.0436 0.0
C3699 C 0.31849 0.07792 0.05553 0.0
C3700 C 0.31615 0.11178 0.18485 0.0
C3701 C 0.31935 0.16244 0.17531 0.0
C3702 C 0.31913 0.14261 0.15921 0.0
C3703 C 0.31951 0.08522 0.1184 0.0
C3704 C 0.31912 0.105 0.13066 0.0
H3705 H 0.32176 0.20298 0.10057 0.0
H3706 H 0.32032 0.17142 0.07401 0.0
H3707 H 0.31367 0.13497 0.24002 0.0
H3708 H 0.32356 0.04674 0.19662 0.0
H3709 H 0.32206 0.07879 0.21789 0.0
C3710 C 0.94572 0.19321 0.16365 0.0
C3711 C 0.94601 0.19937 0.09842 0.0
C3712 C 0.94652 0.175 0.17878 0.0
C3713 C 0.95089 0.1303 0.10622 0.0
H3714 H 0.94243 0.11175 0.25441 0.0
C3715 C 0.94515 0.05487 0.14778 0.0
C3716 C 0.94602 0.04767 0.21101 0.0
C3717 C 0.94599 0.07324 0.13529 0.0
C3718 C 0.94487 0.11675 0.21337 0.0
H3719 H 0.9475 0.19137 0.99771 0.0
H3720 H 0.9486 0.15933 1.02306 0.0
H3721 H 0.94215 0.14373 0.22915 0.0
H3722 H 0.94854 0.05403 0.31062 0.0
H3723 H 0.94981 0.08645 0.28934 0.0
H3724 H 0.95329 0.10281 0.08865 0.0
C3725 C 0.94793 0.16858 0.0634 0.0
C3726 C 0.94475 0.13521 0.19883 0.0
C3727 C 0.94728 0.18698 0.04852 0.0
C3728 C 0.94785 0.0592 0.2614 0.0
C3729 C 0.94856 0.07773 0.24926 0.0
C3730 C 0.9509 0.11174 0.12 0.0
C3731 C 0.94747 0.1622 0.12882 0.0
C3732 C 0.94775 0.14238 0.14496 0.0
C3733 C 0.94759 0.08496 0.18612 0.0
C3734 C 0.94789 0.10476 0.17372 0.0
H3735 H 0.94482 0.20253 0.20326 0.0
H3736 H 0.94633 0.17101 0.22997 0.0
H3737 H 0.95335 0.1351 0.06514 0.0
H3738 H 0.94375 0.04629 0.10793 0.0
H3739 H 0.94517 0.0784 0.08633 0.0
C3740 C 0.69739 0.93642 1.00408 0.0
C3741 C 0.69618 0.94887 0.95407 0.0
C3742 C 0.69805 0.91803 0.98926 0.0
C3743 C 0.69494 0.88481 0.85344 0.0
H3744 H 0.7033 0.85221 0.96512 0.0
C3745 C 0.69798 0.80865 0.79263 0.0
C3746 C 0.69605 0.79721 0.84289 0.0
C3747 C 0.6987 0.82718 0.80445 0.0
C3748 C 0.70097 0.8612 0.93334 0.0
H3749 H 0.69505 0.95215 0.84912 0.0
H3750 H 0.69657 0.92065 0.82252 0.0
H3751 H 0.70341 0.88449 0.98832 0.0
H3752 H 0.69362 0.79598 0.94548 0.0
H3753 H 0.69506 0.82808 0.96658 0.0
H3754 H 0.69263 0.8614 0.79774 0.0
C3755 C 0.69673 0.92458 0.87373 0.0
C3756 C 0.70098 0.87975 0.94694 0.0
C3757 C 0.69592 0.94279 0.8888 0.0
C3758 C 0.69509 0.80449 0.90572 0.0
C3759 C 0.69594 0.82285 0.91793 0.0
C3760 C 0.69504 0.86635 0.83908 0.0
C3761 C 0.69763 0.91172 0.92378 0.0
C3762 C 0.6979 0.89191 0.9077 0.0
C3763 C 0.69765 0.83449 0.8672 0.0
C3764 C 0.69799 0.85429 0.87929 0.0
H3765 H 0.69757 0.94075 0.05493 0.0
H3766 H 0.69867 0.90874 0.02967 0.0
H3767 H 0.69238 0.89339 0.82268 0.0
H3768 H 0.69873 0.80341 0.74372 0.0
H3769 H 0.70003 0.83584 0.76445 0.0
C3770 C 0.06948 0.93726 0.79786 0.0
C3771 C 0.07125 0.94885 0.84836 0.0
C3772 C 0.06882 0.91871 0.81003 0.0
C3773 C 0.06643 0.88464 0.93865 0.0
H3774 H 0.07552 0.85304 0.83178 0.0
C3775 C 0.07013 0.80942 1.01025 0.0
C3776 C 0.07152 0.79713 0.9605 0.0
C3777 C 0.06946 0.82783 0.99552 0.0
C3778 C 0.07282 0.86143 0.86142 0.0
H3779 H 0.07344 0.95034 0.95166 0.0
H3780 H 0.07208 0.9182 0.97333 0.0
H3781 H 0.07515 0.885 0.8065 0.0
H3782 H 0.07295 0.79415 0.856 0.0
H3783 H 0.07142 0.82565 0.82942 0.0
H3784 H 0.06397 0.86117 0.99276 0.0
C3785 C 0.07129 0.92332 0.92425 0.0
C3786 C 0.07265 0.87989 0.84688 0.0
C3787 C 0.07209 0.94171 0.91173 0.0
C3788 C 0.07195 0.80339 0.89552 0.0
C3789 C 0.07114 0.8216 0.88048 0.0
C3790 C 0.06649 0.86608 0.95237 0.0
C3791 C 0.06976 0.91154 0.87332 0.0
C3792 C 0.06951 0.89174 0.88572 0.0
C3793 C 0.07005 0.8343 0.93035 0.0
C3794 C 0.06974 0.85413 0.91441 0.0
H3795 H 0.06883 0.94238 0.74852 0.0
H3796 H 0.06762 0.90993 0.76987 0.0
H3797 H 0.06396 0.89347 0.96938 0.0
H3798 H 0.0698 0.80495 0.06088 0.0
H3799 H 0.06869 0.837 0.03579 0.0
C3800 C 0.32059 0.69339 0.6392 0.0
C3801 C 0.32037 0.69951 0.70444 0.0
C3802 C 0.31985 0.67513 0.62437 0.0
C3803 C 0.31582 0.63016 0.69826 0.0
H3804 H 0.32422 0.61211 0.54917 0.0
C3805 C 0.32191 0.5551 0.65785 0.0
C3806 C 0.32101 0.54777 0.59496 0.0
C3807 C 0.321 0.57344 0.6699 0.0
C3808 C 0.32179 0.61697 0.59048 0.0
H3809 H 0.31908 0.69137 0.80551 0.0
H3810 H 0.31808 0.6593 0.78061 0.0
H3811 H 0.32434 0.64413 0.57368 0.0
H3812 H 0.31838 0.55386 0.49547 0.0
H3813 H 0.31699 0.58624 0.51594 0.0
H3814 H 0.3136 0.60253 0.7168 0.0
C3815 C 0.31864 0.6686 0.74007 0.0
C3816 C 0.32182 0.63545 0.60459 0.0
C3817 C 0.31923 0.68703 0.75467 0.0
C3818 C 0.31909 0.55914 0.54444 0.0
C3819 C 0.31831 0.57764 0.55611 0.0
C3820 C 0.3159 0.6116 0.68489 0.0
C3821 C 0.31903 0.66227 0.67462 0.0
C3822 C 0.31884 0.64243 0.6588 0.0
C3823 C 0.3193 0.585 0.61894 0.0
C3824 C 0.31889 0.60479 0.63088 0.0
H3825 H 0.3214 0.70277 0.59936 0.0
H3826 H 0.31999 0.67116 0.57319 0.0
H3827 H 0.31338 0.63482 0.73962 0.0
H3828 H 0.32337 0.54665 0.69781 0.0
H3829 H 0.32183 0.57871 0.71862 0.0
C3830 C 0.94739 0.68715 0.54876 0.0
C3831 C 0.94611 0.69947 0.59882 0.0
C3832 C 0.94803 0.66872 0.56332 0.0
C3833 C 0.94476 0.63519 0.69792 0.0
H3834 H 0.95334 0.60289 0.58784 0.0
C3835 C 0.94779 0.55912 0.75966 0.0
C3836 C 0.94597 0.54766 0.70901 0.0
C3837 C 0.94852 0.57766 0.74779 0.0
C3838 C 0.95095 0.61179 0.61916 0.0
H3839 H 0.94487 0.70248 0.70364 0.0
H3840 H 0.94636 0.67093 0.72984 0.0
H3841 H 0.95343 0.63521 0.56485 0.0
H3842 H 0.94376 0.54639 0.60574 0.0
H3843 H 0.94522 0.5785 0.58461 0.0
H3844 H 0.94241 0.61168 0.75297 0.0
C3845 C 0.94657 0.67498 0.67874 0.0
C3846 C 0.95095 0.63036 0.60567 0.0
C3847 C 0.94578 0.69322 0.6639 0.0
C3848 C 0.94515 0.55492 0.64579 0.0
C3849 C 0.94601 0.57329 0.63357 0.0
C3850 C 0.94487 0.61672 0.71218 0.0
C3851 C 0.94754 0.66226 0.6286 0.0
C3852 C 0.9478 0.64241 0.64439 0.0
C3853 C 0.94759 0.58495 0.68466 0.0
C3854 C 0.94791 0.60476 0.67256 0.0
H3855 H 0.94764 0.69161 0.49805 0.0
H3856 H 0.94871 0.65953 0.52286 0.0
H3857 H 0.94215 0.64368 0.72819 0.0
H3858 H 0.94844 0.55391 0.80888 0.0
H3859 H 0.94976 0.58633 0.78807 0.0
C3860 C 0.69555 0.44163 0.39141 0.0
C3861 C 0.69631 0.44872 0.45492 0.0
C3862 C 0.69637 0.42326 0.37907 0.0
C3863 C 0.69498 0.37976 0.45754 0.0
H3864 H 0.70358 0.36107 0.31132 0.0
C3865 C 0.6957 0.30325 0.41061 0.0
C3866 C 0.69605 0.29697 0.34566 0.0
C3867 C 0.69653 0.32148 0.42519 0.0
C3868 C 0.70108 0.36598 0.35183 0.0
H3869 H 0.69862 0.4422 0.55514 0.0
H3870 H 0.69988 0.40982 0.53403 0.0
H3871 H 0.70359 0.39339 0.334 0.0
H3872 H 0.69766 0.30477 0.24489 0.0
H3873 H 0.69881 0.33684 0.26924 0.0
H3874 H 0.69215 0.35287 0.47356 0.0
C3875 C 0.69873 0.4186 0.49365 0.0
C3876 C 0.70114 0.38455 0.36513 0.0
C3877 C 0.69803 0.43711 0.50568 0.0
C3878 C 0.6974 0.30925 0.2955 0.0
C3879 C 0.69808 0.32767 0.30979 0.0
C3880 C 0.69482 0.36129 0.44347 0.0
C3881 C 0.69785 0.41145 0.43029 0.0
C3882 C 0.69809 0.39164 0.41817 0.0
C3883 C 0.69756 0.33417 0.3749 0.0
C3884 C 0.69787 0.35401 0.39038 0.0
H3885 H 0.69423 0.45027 0.35131 0.0
H3886 H 0.69563 0.41816 0.32991 0.0
H3887 H 0.6925 0.38486 0.49803 0.0
H3888 H 0.69474 0.29402 0.45043 0.0
H3889 H 0.6963 0.32556 0.4762 0.0
C3890 C 0.07214 0.30439 0.40053 0.0
C3891 C 0.07118 0.29701 0.4633 0.0
C3892 C 0.07123 0.32273 0.38831 0.0
C3893 C 0.07195 0.36616 0.46738 0.0
H3894 H 0.06357 0.38409 0.31777 0.0
C3895 C 0.07081 0.44258 0.41789 0.0
C3896 C 0.0706 0.4487 0.35256 0.0
C3897 C 0.07004 0.42433 0.4329 0.0
C3898 C 0.06601 0.37941 0.35927 0.0
H3899 H 0.06844 0.303 0.56236 0.0
H3900 H 0.06705 0.33538 0.54161 0.0
H3901 H 0.06379 0.35178 0.34082 0.0
H3902 H 0.06933 0.44059 0.25153 0.0
H3903 H 0.06829 0.40853 0.27674 0.0
H3904 H 0.0745 0.39331 0.48408 0.0
C3905 C 0.06842 0.32682 0.50167 0.0
C3906 C 0.06608 0.36084 0.37276 0.0
C3907 C 0.0692 0.30832 0.5135 0.0
C3908 C 0.06947 0.43624 0.30242 0.0
C3909 C 0.06885 0.41782 0.3172 0.0
C3910 C 0.07199 0.38465 0.45314 0.0
C3911 C 0.06947 0.33423 0.43898 0.0
C3912 C 0.06906 0.35402 0.42693 0.0
C3913 C 0.06923 0.41149 0.38274 0.0
C3914 C 0.06902 0.39165 0.39876 0.0
H3915 H 0.07365 0.29598 0.36083 0.0
H3916 H 0.07211 0.32804 0.33971 0.0
H3917 H 0.07437 0.36128 0.50882 0.0
H3918 H 0.07162 0.45195 0.45764 0.0
H3919 H 0.07017 0.42036 0.48412 0.0
C3920 C 0.82099 0.05363 0.66672 0.0
C3921 C 0.82071 0.0474 0.60164 0.0
C3922 C 0.82017 0.07185 0.68136 0.0
C3923 C 0.81576 0.11642 0.60762 0.0
H3924 H 0.82425 0.13522 0.75494 0.0
C3925 C 0.8214 0.19199 0.64694 0.0
C3926 C 0.82061 0.19919 0.7102 0.0
C3927 C 0.82057 0.17361 0.63489 0.0
C3928 C 0.8218 0.13015 0.71414 0.0
H3929 H 0.81923 0.05531 0.50068 0.0
H3930 H 0.81809 0.08735 0.52519 0.0
H3931 H 0.82455 0.10321 0.73062 0.0
H3932 H 0.81822 0.19284 0.8103 0.0
H3933 H 0.81695 0.16041 0.78975 0.0
H3934 H 0.81333 0.14386 0.58936 0.0
C3935 C 0.81876 0.07814 0.56577 0.0
C3936 C 0.82194 0.11167 0.70015 0.0
C3937 C 0.81944 0.05974 0.55139 0.0
C3938 C 0.81884 0.18766 0.76104 0.0
C3939 C 0.81814 0.16913 0.74932 0.0
C3940 C 0.81574 0.135 0.62086 0.0
C3941 C 0.81921 0.08458 0.63104 0.0
C3942 C 0.81892 0.10442 0.64661 0.0
C3943 C 0.81905 0.16188 0.68617 0.0
C3944 C 0.81876 0.14206 0.67427 0.0
H3945 H 0.82189 0.04436 0.70659 0.0
H3946 H 0.82035 0.0759 0.73244 0.0
H3947 H 0.81329 0.11154 0.56677 0.0
H3948 H 0.82275 0.20057 0.60675 0.0
H3949 H 0.82134 0.16843 0.58589 0.0
C3950 C 0.44594 0.19313 0.66441 0.0
C3951 C 0.44622 0.19934 0.59923 0.0
C3952 C 0.44673 0.1749 0.67933 0.0
C3953 C 0.45104 0.13021 0.60625 0.0
H3954 H 0.44256 0.11165 0.75428 0.0
C3955 C 0.44526 0.05478 0.64716 0.0
C3956 C 0.44608 0.04757 0.71046 0.0
C3957 C 0.44612 0.07315 0.63478 0.0
C3958 C 0.44501 0.11666 0.71328 0.0
H3959 H 0.44766 0.19139 0.49837 0.0
H3960 H 0.44875 0.15933 0.52339 0.0
H3961 H 0.44231 0.14365 0.72935 0.0
H3962 H 0.44854 0.0539 0.8103 0.0
H3963 H 0.44985 0.0863 0.7892 0.0
H3964 H 0.45341 0.10272 0.58842 0.0
C3965 C 0.44811 0.16855 0.56383 0.0
C3966 C 0.44491 0.13513 0.69893 0.0
C3967 C 0.44746 0.18697 0.54916 0.0
C3968 C 0.44789 0.05908 0.76102 0.0
C3969 C 0.44862 0.0776 0.74898 0.0
C3970 C 0.45103 0.11164 0.61985 0.0
C3971 C 0.44766 0.16214 0.62921 0.0
C3972 C 0.44792 0.1423 0.64513 0.0
C3973 C 0.44769 0.08485 0.68578 0.0
C3974 C 0.44802 0.10466 0.67351 0.0
H3975 H 0.44506 0.20243 0.70414 0.0
H3976 H 0.44655 0.17088 0.73049 0.0
H3977 H 0.4535 0.13502 0.56521 0.0
H3978 H 0.44388 0.04622 0.60718 0.0
H3979 H 0.44534 0.07832 0.58576 0.0
C3980 C 0.1976 0.9376 0.51216 0.0
C3981 C 0.19583 0.94929 0.46182 0.0
C3982 C 0.19825 0.91907 0.49973 0.0
C3983 C 0.2006 0.88534 0.36981 0.0
H3984 H 0.19172 0.85314 0.47734 0.0
C3985 C 0.19698 0.81023 0.29616 0.0
C3986 C 0.19565 0.79771 0.34554 0.0
C3987 C 0.19762 0.82862 0.31152 0.0
C3988 C 0.19435 0.86171 0.44745 0.0
H3989 H 0.19364 0.95095 0.35855 0.0
H3990 H 0.19498 0.91887 0.33645 0.0
H3991 H 0.19205 0.88504 0.50349 0.0
H3992 H 0.1943 0.79432 0.45009 0.0
H3993 H 0.19578 0.82577 0.47768 0.0
H3994 H 0.20304 0.86212 0.31455 0.0
C3995 C 0.19578 0.92389 0.38561 0.0
C3996 C 0.19451 0.88013 0.46251 0.0
C3997 C 0.19499 0.94225 0.39838 0.0
C3998 C 0.19525 0.80373 0.4108 0.0
C3999 C 0.19604 0.82192 0.42645 0.0
C4000 C 0.20056 0.86682 0.35553 0.0
C4001 C 0.19731 0.912 0.43633 0.0
C4002 C 0.19758 0.89221 0.42346 0.0
C4003 C 0.19708 0.83485 0.37698 0.0
C4004 C 0.19737 0.85465 0.39364 0.0
H4005 H 0.19826 0.94264 0.56154 0.0
H4006 H 0.19945 0.91023 0.53976 0.0
H4007 H 0.20303 0.89433 0.33891 0.0
H4008 H 0.19728 0.80597 0.24533 0.0
H4009 H 0.19835 0.83795 0.2715 0.0
C4010 C 0.56839 0.80984 0.50435 0.0
C4011 C 0.57029 0.79846 0.45393 0.0
C4012 C 0.56762 0.82834 0.49246 0.0
C4013 C 0.56537 0.86272 0.36411 0.0
H4014 H 0.57418 0.89425 0.47486 0.0
C4015 C 0.56924 0.93807 0.29529 0.0
C4016 C 0.57054 0.95032 0.34558 0.0
C4017 C 0.56852 0.91965 0.30957 0.0
C4018 C 0.57156 0.88587 0.4441 0.0
H4019 H 0.57258 0.79728 0.35094 0.0
H4020 H 0.57104 0.82935 0.32966 0.0
H4021 H 0.57379 0.86222 0.49902 0.0
H4022 H 0.57176 0.95319 0.45052 0.0
H4023 H 0.57013 0.92166 0.47622 0.0
H4024 H 0.56302 0.88627 0.30989 0.0
C4025 C 0.57022 0.82409 0.37849 0.0
C4026 C 0.57138 0.86738 0.45801 0.0
C4027 C 0.57112 0.80574 0.39075 0.0
C4028 C 0.57082 0.94399 0.41061 0.0
C4029 C 0.56995 0.92576 0.42516 0.0
C4030 C 0.56545 0.88132 0.35096 0.0
C4031 C 0.5686 0.8357 0.42952 0.0
C4032 C 0.56834 0.85555 0.41779 0.0
C4033 C 0.56895 0.91311 0.3748 0.0
C4034 C 0.5686 0.89324 0.39028 0.0
H4035 H 0.56775 0.80461 0.55358 0.0
H4036 H 0.56636 0.83698 0.53269 0.0
H4037 H 0.56298 0.85392 0.33229 0.0
H4038 H 0.56903 0.94258 0.24462 0.0
H4039 H 0.56782 0.91053 0.26893 0.0
C4040 C 0.81962 0.68688 0.25499 0.0
C4041 C 0.82083 0.6993 0.20483 0.0
C4042 C 0.81896 0.66847 0.24035 0.0
C4043 C 0.82207 0.6352 0.10502 0.0
H4044 H 0.81366 0.60262 0.21666 0.0
C4045 C 0.8191 0.55902 0.04463 0.0
C4046 C 0.82098 0.54761 0.09522 0.0
C4047 C 0.81836 0.57754 0.0563 0.0
C4048 C 0.81601 0.6116 0.1849 0.0
H4049 H 0.82193 0.70252 0.09981 0.0
H4050 H 0.8204 0.67098 0.07356 0.0
H4051 H 0.81356 0.63492 0.23953 0.0
H4052 H 0.8233 0.54642 0.19819 0.0
H4053 H 0.82182 0.57851 0.21898 0.0
H4054 H 0.82439 0.61177 0.04971 0.0
C4055 C 0.82025 0.67495 0.12473 0.0
C4056 C 0.816 0.63016 0.1983 0.0
C4057 C 0.82107 0.69317 0.1396 0.0
C4058 C 0.82186 0.55491 0.15819 0.0
C4059 C 0.82099 0.57326 0.17022 0.0
C4060 C 0.82197 0.61673 0.09087 0.0
C4061 C 0.81936 0.66213 0.17493 0.0
C4062 C 0.81909 0.64231 0.15906 0.0
C4063 C 0.81934 0.58487 0.11917 0.0
C4064 C 0.819 0.60468 0.13107 0.0
H4065 H 0.81946 0.69123 0.30581 0.0
H4066 H 0.81834 0.6592 0.28085 0.0
H4067 H 0.82463 0.64377 0.07429 0.0
H4068 H 0.8184 0.55376 0.99561 0.0
H4069 H 0.81707 0.58617 1.01606 0.0
C4070 C 0.44555 0.55369 0.14164 0.0
C4071 C 0.44581 0.54745 0.20676 0.0
C4072 C 0.44632 0.57196 0.12698 0.0
C4073 C 0.45048 0.61672 0.2011 0.0
H4074 H 0.44211 0.63515 0.05218 0.0
C4075 C 0.44451 0.69194 0.16028 0.0
C4076 C 0.44548 0.6993 0.09751 0.0
C4077 C 0.44537 0.67358 0.17249 0.0
C4078 C 0.44452 0.63018 0.09345 0.0
H4079 H 0.4472 0.55534 0.30781 0.0
H4080 H 0.44823 0.58745 0.28328 0.0
H4081 H 0.4419 0.60312 0.07667 0.0
H4082 H 0.4482 0.69325 0.99843 0.0
H4083 H 0.44952 0.66083 1.01915 0.0
H4084 H 0.45277 0.64428 0.21965 0.0
C4085 C 0.44762 0.57825 0.24266 0.0
C4086 C 0.44445 0.61169 0.10755 0.0
C4087 C 0.44701 0.5598 0.25707 0.0
C4088 C 0.44744 0.68795 0.0473 0.0
C4089 C 0.44816 0.66942 0.05911 0.0
C4090 C 0.45045 0.6353 0.18777 0.0
C4091 C 0.4472 0.58471 0.17732 0.0
C4092 C 0.44742 0.60457 0.16166 0.0
C4093 C 0.44711 0.66203 0.1218 0.0
C4094 C 0.44746 0.64223 0.1338 0.0
H4095 H 0.4447 0.54441 0.10174 0.0
H4096 H 0.44616 0.57602 0.07586 0.0
H4097 H 0.45292 0.61195 0.2424 0.0
H4098 H 0.44302 0.70039 0.20001 0.0
H4099 H 0.44449 0.66828 0.2211 0.0
C4100 C 0.19722 0.30994 0.79812 0.0
C4101 C 0.19567 0.29813 0.84909 0.0
C4102 C 0.19778 0.32852 0.81026 0.0
C4103 C 0.20032 0.3626 0.93794 0.0
H4104 H 0.19068 0.39371 0.83561 0.0
C4105 C 0.19668 0.43782 1.01009 0.0
C4106 C 0.19504 0.45003 0.96092 0.0
C4107 C 0.1973 0.41938 0.99553 0.0
C4108 C 0.19352 0.38546 0.86393 0.0
H4109 H 0.19377 0.29632 0.95309 0.0
H4110 H 0.19496 0.32853 0.97466 0.0
H4111 H 0.19115 0.36179 0.81014 0.0
H4112 H 0.19312 0.45279 0.85738 0.0
H4113 H 0.19457 0.42129 0.83088 0.0
H4114 H 0.20285 0.38618 0.99074 0.0
C4115 C 0.19566 0.32354 0.92526 0.0
C4116 C 0.19375 0.36703 0.8493 0.0
C4117 C 0.19495 0.30512 0.91281 0.0
C4118 C 0.19431 0.44363 0.89654 0.0
C4119 C 0.19508 0.42541 0.88158 0.0
C4120 C 0.20021 0.38115 0.95166 0.0
C4121 C 0.19696 0.33553 0.87394 0.0
C4122 C 0.19711 0.35534 0.88649 0.0
C4123 C 0.19643 0.41279 0.93101 0.0
C4124 C 0.19676 0.39294 0.91529 0.0
H4125 H 0.19778 0.30494 0.74851 0.0
H4126 H 0.1988 0.33745 0.76978 0.0
H4127 H 0.20296 0.3539 0.96741 0.0
H4128 H 0.19725 0.44238 0.06026 0.0
H4129 H 0.19829 0.41029 0.03553 0.0
C4130 C 0.56973 0.31119 1.00518 0.0
C4131 C 0.5712 0.29941 0.95399 0.0
C4132 C 0.56918 0.32978 0.99311 0.0
C4133 C 0.56652 0.36398 0.8661 0.0
H4134 H 0.57639 0.39491 0.96628 0.0
C4135 C 0.57013 0.43927 0.79345 0.0
C4136 C 0.57184 0.45143 0.84229 0.0
C4137 C 0.56953 0.42081 0.80804 0.0
C4138 C 0.57348 0.38672 0.93859 0.0
H4139 H 0.57298 0.29767 0.8497 0.0
H4140 H 0.57181 0.32991 0.82827 0.0
H4141 H 0.57591 0.36296 0.99177 0.0
H4142 H 0.57394 0.45408 0.94537 0.0
H4143 H 0.57255 0.42252 0.97201 0.0
H4144 H 0.56395 0.38764 0.81399 0.0
C4145 C 0.57117 0.32488 0.87778 0.0
C4146 C 0.57325 0.36827 0.95321 0.0
C4147 C 0.57185 0.30644 0.89014 0.0
C4148 C 0.57269 0.44496 0.90643 0.0
C4149 C 0.57195 0.4267 0.92147 0.0
C4150 C 0.56665 0.38255 0.85241 0.0
C4151 C 0.56994 0.33683 0.9293 0.0
C4152 C 0.56981 0.35665 0.91678 0.0
C4153 C 0.5705 0.41414 0.87231 0.0
C4154 C 0.57017 0.39428 0.88802 0.0
H4155 H 0.56922 0.30616 0.0549 0.0
H4156 H 0.56823 0.33868 0.03374 0.0
H4157 H 0.56382 0.35534 0.83723 0.0
H4158 H 0.56946 0.44389 0.74346 0.0
H4159 H 0.56847 0.41176 0.76823 0.0
loop_
_geom_bond_atom_site_label_1
_geom_bond_atom_site_label_2
_geom_bond_distance
_geom_bond_site_symmetry_2
_ccdc_geom_bond_type
Nd0 C2 2.836 . S
Nd0 O20 2.500 . S
Nd0 O21 2.492 . S
Nd0 O22 2.487 . S
Nd0 O23 2.682 . S
Nd0 O24 2.410 . S
Nd0 O29 2.414 . S
Nd0 O31 2.424 . S
Nd1 C11 2.836 . S
Nd1 O23 2.414 . S
Nd1 O25 2.424 . S
Nd1 O26 2.500 . S
Nd1 O27 2.492 . S
Nd1 O28 2.487 . S
Nd1 O29 2.682 . S
Nd1 O30 2.410 . S
C2 Nd0 2.836 . S
C2 C3 1.498 . S
C2 O20 1.258 . S
C2 O21 1.239 . S
C3 C2 1.498 . S
C3 C4 1.366 . S
C3 C8 1.407 . S
C4 C3 1.366 . S
C4 C5 1.392 . S
C4 H32 0.930 . S
C5 C4 1.392 . S
C5 C6 1.398 . S
C5 H33 0.929 . S
C6 C5 1.398 . S
C6 C7 1.352 . S
C7 C6 1.352 . S
C7 C8 1.384 . S
C7 H34 0.930 . S
C8 C3 1.407 . S
C8 C7 1.384 . S
C8 H35 0.929 . S
C9 O22 1.241 . S
C9 O23 1.273 . S
C10 O24 1.251 . S
C10 O25 1.268 . S
C11 Nd1 2.836 . S
C11 C12 1.498 . S
C11 O26 1.258 . S
C11 O27 1.239 . S
C12 C11 1.498 . S
C12 C13 1.366 . S
C12 C17 1.407 . S
C13 C12 1.366 . S
C13 C14 1.392 . S
C13 H36 0.930 . S
C14 C13 1.392 . S
C14 C15 1.398 . S
C14 H37 0.929 . S
C15 C14 1.398 . S
C15 C16 1.352 . S
C16 C15 1.352 . S
C16 C17 1.384 . S
C16 H38 0.930 . S
C17 C12 1.407 . S
C17 C16 1.384 . S
C17 H39 0.929 . S
C18 O28 1.241 . S
C18 O29 1.273 . S
C19 O30 1.251 . S
C19 O31 1.268 . S
O20 Nd0 2.500 . S
O20 C2 1.258 . S
O21 Nd0 2.492 . S
O21 C2 1.239 . S
O22 Nd0 2.487 . S
O22 C9 1.241 . S
O23 Nd0 2.682 . S
O23 Nd1 2.414 . S
O23 C9 1.273 . S
O24 Nd0 2.410 . S
O24 C10 1.251 . S
O25 Nd1 2.424 . S
O25 C10 1.268 . S
O26 Nd1 2.500 . S
O26 C11 1.258 . S
O27 Nd1 2.492 . S
O27 C11 1.239 . S
O28 Nd1 2.487 . S
O28 C18 1.241 . S
O29 Nd0 2.414 . S
O29 Nd1 2.682 . S
O29 C18 1.273 . S
O30 Nd1 2.410 . S
O30 C19 1.251 . S
O31 Nd0 2.424 . S
O31 C19 1.268 . S
H32 C4 0.930 . S
H33 C5 0.929 . S
H34 C7 0.930 . S
H35 C8 0.929 . S
H36 C13 0.930 . S
H37 C14 0.929 . S
H38 C16 0.930 . S
H39 C17 0.929 . S
Nd40 C42 2.836 . S
Nd40 O60 2.500 1_565 S
Nd40 O61 2.492 . S
Nd40 O62 2.487 . S
Nd40 O63 2.682 . S
Nd40 O64 2.410 . S
Nd40 O69 2.414 1_565 S
Nd40 O71 2.429 . S
Nd41 C51 2.836 . S
Nd41 O63 2.414 . S
Nd41 O65 2.424 . S
Nd41 O66 2.500 . S
Nd41 O67 2.492 1_565 S
Nd41 O68 2.487 1_565 S
Nd41 O69 2.682 1_565 S
Nd41 O70 2.410 1_565 S
C42 Nd40 2.836 . S
C42 C43 1.498 . S
C42 O60 1.258 1_565 S
C42 O61 1.239 . S
C43 C42 1.498 . S
C43 C44 1.366 1_565 S
C43 C48 1.407 . S
C44 C43 1.366 1_545 S
C44 C45 1.392 . S
C44 H72 0.930 . S
C45 C44 1.392 . S
C45 C46 1.398 1_545 S
C45 H73 0.929 . S
C46 C45 1.398 1_565 S
C46 C47 1.352 . S
C47 C46 1.352 . S
C47 C48 1.384 . S
C47 H74 0.930 . S
C48 C43 1.407 . S
C48 C47 1.384 . S
C48 H75 0.929 . S
C49 O62 1.241 . S
C49 O63 1.273 . S
C50 O64 1.251 . S
C50 O65 1.268 . S
C51 Nd41 2.836 . S
C51 C52 1.498 . S
C51 O66 1.258 . S
C51 O67 1.239 1_565 S
C52 C51 1.498 . S
C52 C53 1.366 . S
C52 C57 1.407 1_565 S
C53 C52 1.366 . S
C53 C54 1.392 . S
C53 H76 0.930 . S
C54 C53 1.392 . S
C54 C55 1.398 . S
C54 H77 0.929 . S
C55 C54 1.398 . S
C55 C56 1.352 1_565 S
C56 C55 1.352 1_545 S
C56 C57 1.384 . S
C56 H78 0.930 . S
C57 C52 1.407 1_545 S
C57 C56 1.384 . S
C57 H79 0.929 . S
C58 O68 1.241 . S
C58 O69 1.273 . S
C59 O70 1.251 . S
C59 O71 1.262 1_545 S
O60 Nd40 2.500 1_545 S
O60 C42 1.258 1_545 S
O61 Nd40 2.492 . S
O61 C42 1.239 . S
O62 Nd40 2.487 . S
O62 C49 1.241 . S
O63 Nd40 2.682 . S
O63 Nd41 2.414 . S
O63 C49 1.273 . S
O64 Nd40 2.410 . S
O64 C50 1.251 . S
O65 Nd41 2.424 . S
O65 C50 1.268 . S
O66 Nd41 2.500 . S
O66 C51 1.258 . S
O67 Nd41 2.492 1_545 S
O67 C51 1.239 1_545 S
O68 Nd41 2.487 1_545 S
O68 C58 1.241 . S
O69 Nd40 2.414 1_545 S
O69 Nd41 2.682 1_545 S
O69 C58 1.273 . S
O70 Nd41 2.410 1_545 S
O70 C59 1.251 . S
O71 Nd40 2.429 . S
O71 C59 1.262 1_565 S
H72 C44 0.930 . S
H73 C45 0.929 . S
H74 C47 0.930 . S
H75 C48 0.929 . S
H76 C53 0.930 . S
H77 C54 0.929 . S
H78 C56 0.930 . S
H79 C57 0.929 . S
Nd80 C82 2.836 . S
Nd80 O100 2.500 1_565 S
Nd80 O101 2.492 . S
Nd80 O102 2.487 . S
Nd80 O103 2.682 . S
Nd80 O104 2.410 . S
Nd80 O109 2.414 1_565 S
Nd80 O111 2.429 1_554 S
Nd81 C91 2.836 1_554 S
Nd81 O103 2.414 . S
Nd81 O105 2.424 . S
Nd81 O106 2.500 1_554 S
Nd81 O107 2.492 1_565 S
Nd81 O108 2.487 1_565 S
Nd81 O109 2.682 1_565 S
Nd81 O110 2.410 1_564 S
C82 Nd80 2.836 . S
C82 C83 1.498 . S
C82 O100 1.258 1_565 S
C82 O101 1.239 . S
C83 C82 1.498 . S
C83 C84 1.366 1_565 S
C83 C88 1.407 . S
C84 C83 1.366 1_545 S
C84 C85 1.392 . S
C84 H112 0.930 . S
C85 C84 1.392 . S
C85 C86 1.398 1_545 S
C85 H113 0.929 . S
C86 C85 1.398 1_565 S
C86 C87 1.352 . S
C87 C86 1.352 . S
C87 C88 1.384 . S
C87 H114 0.930 . S
C88 C83 1.407 . S
C88 C87 1.384 . S
C88 H115 0.929 . S
C89 O102 1.241 . S
C89 O103 1.273 . S
C90 O104 1.251 . S
C90 O105 1.268 . S
C91 Nd81 2.836 1_556 S
C91 C92 1.498 . S
C91 O106 1.258 . S
C91 O107 1.239 1_566 S
C92 C91 1.498 . S
C92 C93 1.366 . S
C92 C97 1.407 1_565 S
C93 C92 1.366 . S
C93 C94 1.392 . S
C93 H116 0.930 . S
C94 C93 1.392 . S
C94 C95 1.398 . S
C94 H117 0.929 . S
C95 C94 1.398 . S
C95 C96 1.352 1_565 S
C96 C95 1.352 1_545 S
C96 C97 1.384 . S
C96 H118 0.930 . S
C97 C92 1.407 1_545 S
C97 C96 1.384 . S
C97 H119 0.929 . S
C98 O108 1.241 . S
C98 O109 1.273 . S
C99 O110 1.251 . S
C99 O111 1.262 1_545 S
O100 Nd80 2.500 1_545 S
O100 C82 1.258 1_545 S
O101 Nd80 2.492 . S
O101 C82 1.239 . S
O102 Nd80 2.487 . S
O102 C89 1.241 . S
O103 Nd80 2.682 . S
O103 Nd81 2.414 . S
O103 C89 1.273 . S
O104 Nd80 2.410 . S
O104 C90 1.251 . S
O105 Nd81 2.424 . S
O105 C90 1.268 . S
O106 Nd81 2.500 1_556 S
O106 C91 1.258 . S
O107 Nd81 2.492 1_545 S
O107 C91 1.239 1_544 S
O108 Nd81 2.487 1_545 S
O108 C98 1.241 . S
O109 Nd80 2.414 1_545 S
O109 Nd81 2.682 1_545 S
O109 C98 1.273 . S
O110 Nd81 2.410 1_546 S
O110 C99 1.251 . S
O111 Nd80 2.429 1_556 S
O111 C99 1.262 1_565 S
H112 C84 0.930 . S
H113 C85 0.929 . S
H114 C87 0.930 . S
H115 C88 0.929 . S
H116 C93 0.930 . S
H117 C94 0.929 . S
H118 C96 0.930 . S
H119 C97 0.929 . S
Nd120 C122 2.836 . S
Nd120 O140 2.500 . S
Nd120 O141 2.492 . S
Nd120 O142 2.487 . S
Nd120 O143 2.682 . S
Nd120 O144 2.410 . S
Nd120 O149 2.414 . S
Nd120 O151 2.424 1_554 S
Nd121 C131 2.836 1_554 S
Nd121 O143 2.414 . S
Nd121 O145 2.424 . S
Nd121 O146 2.500 1_554 S
Nd121 O147 2.492 . S
Nd121 O148 2.487 . S
Nd121 O149 2.682 . S
Nd121 O150 2.410 1_554 S
C122 Nd120 2.836 . S
C122 C123 1.498 . S
C122 O140 1.258 . S
C122 O141 1.239 . S
C123 C122 1.498 . S
C123 C124 1.366 . S
C123 C128 1.407 . S
C124 C123 1.366 . S
C124 C125 1.392 . S
C124 H152 0.930 . S
C125 C124 1.392 . S
C125 C126 1.398 . S
C125 H153 0.929 . S
C126 C125 1.398 . S
C126 C127 1.352 . S
C127 C126 1.352 . S
C127 C128 1.384 . S
C127 H154 0.930 . S
C128 C123 1.407 . S
C128 C127 1.384 . S
C128 H155 0.929 . S
C129 O142 1.241 . S
C129 O143 1.273 . S
C130 O144 1.251 . S
C130 O145 1.268 . S
C131 Nd121 2.836 1_556 S
C131 C132 1.498 . S
C131 O146 1.258 . S
C131 O147 1.239 1_556 S
C132 C131 1.498 . S
C132 C133 1.366 . S
C132 C137 1.407 . S
C133 C132 1.366 . S
C133 C134 1.392 . S
C133 H156 0.930 . S
C134 C133 1.392 . S
C134 C135 1.398 . S
C134 H157 0.929 . S
C135 C134 1.398 . S
C135 C136 1.352 . S
C136 C135 1.352 . S
C136 C137 1.384 . S
C136 H158 0.930 . S
C137 C132 1.407 . S
C137 C136 1.384 . S
C137 H159 0.929 . S
C138 O148 1.241 . S
C138 O149 1.273 . S
C139 O150 1.251 . S
C139 O151 1.268 . S
O140 Nd120 2.500 . S
O140 C122 1.258 . S
O141 Nd120 2.492 . S
O141 C122 1.239 . S
O142 Nd120 2.487 . S
O142 C129 1.241 . S
O143 Nd120 2.682 . S
O143 Nd121 2.414 . S
O143 C129 1.273 . S
O144 Nd120 2.410 . S
O144 C130 1.251 . S
O145 Nd121 2.424 . S
O145 C130 1.268 . S
O146 Nd121 2.500 1_556 S
O146 C131 1.258 . S
O147 Nd121 2.492 . S
O147 C131 1.239 1_554 S
O148 Nd121 2.487 . S
O148 C138 1.241 . S
O149 Nd120 2.414 . S
O149 Nd121 2.682 . S
O149 C138 1.273 . S
O150 Nd121 2.410 1_556 S
O150 C139 1.251 . S
O151 Nd120 2.424 1_556 S
O151 C139 1.268 . S
H152 C124 0.930 . S
H153 C125 0.929 . S
H154 C127 0.930 . S
H155 C128 0.929 . S
H156 C133 0.930 . S
H157 C134 0.929 . S
H158 C136 0.930 . S
H159 C137 0.929 . S
Nd160 C162 2.836 . S
Nd160 O180 2.500 . S
Nd160 O181 2.492 . S
Nd160 O182 2.487 . S
Nd160 O183 2.682 . S
Nd160 O184 2.410 . S
Nd160 O189 2.414 . S
Nd160 O191 2.424 . S
Nd161 C171 2.836 . S
Nd161 O183 2.414 . S
Nd161 O185 2.424 . S
Nd161 O186 2.500 . S
Nd161 O187 2.492 . S
Nd161 O188 2.487 . S
Nd161 O189 2.682 . S
Nd161 O190 2.410 . S
C162 Nd160 2.836 . S
C162 C163 1.498 . S
C162 O180 1.258 . S
C162 O181 1.239 . S
C163 C162 1.498 . S
C163 C164 1.366 . S
C163 C168 1.407 . S
C164 C163 1.366 . S
C164 C165 1.392 . S
C164 H192 0.930 . S
C165 C164 1.392 . S
C165 C166 1.398 . S
C165 H193 0.929 . S
C166 C165 1.398 . S
C166 C167 1.352 . S
C167 C166 1.352 . S
C167 C168 1.384 . S
C167 H194 0.930 . S
C168 C163 1.407 . S
C168 C167 1.384 . S
C168 H195 0.929 . S
C169 O182 1.241 . S
C169 O183 1.273 . S
C170 O184 1.251 . S
C170 O185 1.268 . S
C171 Nd161 2.836 . S
C171 C172 1.498 . S
C171 O186 1.258 . S
C171 O187 1.239 . S
C172 C171 1.498 . S
C172 C173 1.366 . S
C172 C177 1.407 . S
C173 C172 1.366 . S
C173 C174 1.392 . S
C173 H196 0.930 . S
C174 C173 1.392 . S
C174 C175 1.398 . S
C174 H197 0.929 . S
C175 C174 1.398 . S
C175 C176 1.352 . S
C176 C175 1.352 . S
C176 C177 1.384 . S
C176 H198 0.930 . S
C177 C172 1.407 . S
C177 C176 1.384 . S
C177 H199 0.929 . S
C178 O188 1.241 . S
C178 O189 1.273 . S
C179 O190 1.251 . S
C179 O191 1.268 . S
O180 Nd160 2.500 . S
O180 C162 1.258 . S
O181 Nd160 2.492 . S
O181 C162 1.239 . S
O182 Nd160 2.487 . S
O182 C169 1.241 . S
O183 Nd160 2.682 . S
O183 Nd161 2.414 . S
O183 C169 1.273 . S
O184 Nd160 2.410 . S
O184 C170 1.251 . S
O185 Nd161 2.424 . S
O185 C170 1.268 . S
O186 Nd161 2.500 . S
O186 C171 1.258 . S
O187 Nd161 2.492 . S
O187 C171 1.239 . S
O188 Nd161 2.487 . S
O188 C178 1.241 . S
O189 Nd160 2.414 . S
O189 Nd161 2.682 . S
O189 C178 1.273 . S
O190 Nd161 2.410 . S
O190 C179 1.251 . S
O191 Nd160 2.424 . S
O191 C179 1.268 . S
H192 C164 0.930 . S
H193 C165 0.929 . S
H194 C167 0.930 . S
H195 C168 0.929 . S
H196 C173 0.930 . S
H197 C174 0.929 . S
H198 C176 0.930 . S
H199 C177 0.929 . S
Nd200 C202 2.836 . S
Nd200 O220 2.500 . S
Nd200 O221 2.492 1_545 S
Nd200 O222 2.487 1_545 S
Nd200 O223 2.682 1_545 S
Nd200 O224 2.410 1_545 S
Nd200 O229 2.414 . S
Nd200 O231 2.424 . S
Nd201 C211 2.836 . S
Nd201 O223 2.414 1_545 S
Nd201 O225 2.429 . S
Nd201 O226 2.500 1_545 S
Nd201 O227 2.492 . S
Nd201 O228 2.487 . S
Nd201 O229 2.682 . S
Nd201 O230 2.410 . S
C202 Nd200 2.836 . S
C202 C203 1.498 . S
C202 O220 1.258 . S
C202 O221 1.239 1_545 S
C203 C202 1.498 . S
C203 C204 1.366 . S
C203 C208 1.407 1_545 S
C204 C203 1.366 . S
C204 C205 1.392 . S
C204 H232 0.930 . S
C205 C204 1.392 . S
C205 C206 1.398 . S
C205 H233 0.929 . S
C206 C205 1.398 . S
C206 C207 1.352 1_545 S
C207 C206 1.352 1_565 S
C207 C208 1.384 . S
C207 H234 0.930 . S
C208 C203 1.407 1_565 S
C208 C207 1.384 . S
C208 H235 0.929 . S
C209 O222 1.241 . S
C209 O223 1.273 . S
C210 O224 1.251 . S
C210 O225 1.262 1_565 S
C211 Nd201 2.836 . S
C211 C212 1.498 . S
C211 O226 1.258 1_545 S
C211 O227 1.239 . S
C212 C211 1.498 . S
C212 C213 1.366 1_545 S
C212 C217 1.407 . S
C213 C212 1.366 1_565 S
C213 C214 1.392 . S
C213 H236 0.930 . S
C214 C213 1.392 . S
C214 C215 1.398 1_565 S
C214 H237 0.929 . S
C215 C214 1.398 1_545 S
C215 C216 1.352 . S
C216 C215 1.352 . S
C216 C217 1.384 . S
C216 H238 0.930 . S
C217 C212 1.407 . S
C217 C216 1.384 . S
C217 H239 0.929 . S
C218 O228 1.241 . S
C218 O229 1.273 . S
C219 O230 1.251 . S
C219 O231 1.268 . S
O220 Nd200 2.500 . S
O220 C202 1.258 . S
O221 Nd200 2.492 1_565 S
O221 C202 1.239 1_565 S
O222 Nd200 2.487 1_565 S
O222 C209 1.241 . S
O223 Nd200 2.682 1_565 S
O223 Nd201 2.414 1_565 S
O223 C209 1.273 . S
O224 Nd200 2.410 1_565 S
O224 C210 1.251 . S
O225 Nd201 2.429 . S
O225 C210 1.262 1_545 S
O226 Nd201 2.500 1_565 S
O226 C211 1.258 1_565 S
O227 Nd201 2.492 . S
O227 C211 1.239 . S
O228 Nd201 2.487 . S
O228 C218 1.241 . S
O229 Nd200 2.414 . S
O229 Nd201 2.682 . S
O229 C218 1.273 . S
O230 Nd201 2.410 . S
O230 C219 1.251 . S
O231 Nd200 2.424 . S
O231 C219 1.268 . S
H232 C204 0.930 . S
H233 C205 0.929 . S
H234 C207 0.930 . S
H235 C208 0.929 . S
H236 C213 0.930 . S
H237 C214 0.929 . S
H238 C216 0.930 . S
H239 C217 0.929 . S
Nd240 C242 2.836 1_556 S
Nd240 O260 2.500 1_556 S
Nd240 O261 2.492 1_545 S
Nd240 O262 2.487 1_545 S
Nd240 O263 2.682 1_545 S
Nd240 O264 2.410 1_546 S
Nd240 O269 2.414 . S
Nd240 O271 2.424 . S
Nd241 C251 2.836 . S
Nd241 O263 2.414 1_545 S
Nd241 O265 2.429 1_556 S
Nd241 O266 2.500 1_545 S
Nd241 O267 2.492 . S
Nd241 O268 2.487 . S
Nd241 O269 2.682 . S
Nd241 O270 2.410 . S
C242 Nd240 2.836 1_554 S
C242 C243 1.498 . S
C242 O260 1.258 . S
C242 O261 1.239 1_544 S
C243 C242 1.498 . S
C243 C244 1.366 . S
C243 C248 1.407 1_545 S
C244 C243 1.366 . S
C244 C245 1.392 . S
C244 H272 0.930 . S
C245 C244 1.392 . S
C245 C246 1.398 . S
C245 H273 0.929 . S
C246 C245 1.398 . S
C246 C247 1.352 1_545 S
C247 C246 1.352 1_565 S
C247 C248 1.384 . S
C247 H274 0.930 . S
C248 C243 1.407 1_565 S
C248 C247 1.384 . S
C248 H275 0.929 . S
C249 O262 1.241 . S
C249 O263 1.273 . S
C250 O264 1.251 . S
C250 O265 1.262 1_565 S
C251 Nd241 2.836 . S
C251 C252 1.498 . S
C251 O266 1.258 1_545 S
C251 O267 1.239 . S
C252 C251 1.498 . S
C252 C253 1.366 1_545 S
C252 C257 1.407 . S
C253 C252 1.366 1_565 S
C253 C254 1.392 . S
C253 H276 0.930 . S
C254 C253 1.392 . S
C254 C255 1.398 1_565 S
C254 H277 0.929 . S
C255 C254 1.398 1_545 S
C255 C256 1.352 . S
C256 C255 1.352 . S
C256 C257 1.384 . S
C256 H278 0.930 . S
C257 C252 1.407 . S
C257 C256 1.384 . S
C257 H279 0.929 . S
C258 O268 1.241 . S
C258 O269 1.273 . S
C259 O270 1.251 . S
C259 O271 1.268 . S
O260 Nd240 2.500 1_554 S
O260 C242 1.258 . S
O261 Nd240 2.492 1_565 S
O261 C242 1.239 1_566 S
O262 Nd240 2.487 1_565 S
O262 C249 1.241 . S
O263 Nd240 2.682 1_565 S
O263 Nd241 2.414 1_565 S
O263 C249 1.273 . S
O264 Nd240 2.410 1_564 S
O264 C250 1.251 . S
O265 Nd241 2.429 1_554 S
O265 C250 1.262 1_545 S
O266 Nd241 2.500 1_565 S
O266 C251 1.258 1_565 S
O267 Nd241 2.492 . S
O267 C251 1.239 . S
O268 Nd241 2.487 . S
O268 C258 1.241 . S
O269 Nd240 2.414 . S
O269 Nd241 2.682 . S
O269 C258 1.273 . S
O270 Nd241 2.410 . S
O270 C259 1.251 . S
O271 Nd240 2.424 . S
O271 C259 1.268 . S
H272 C244 0.930 . S
H273 C245 0.929 . S
H274 C247 0.930 . S
H275 C248 0.929 . S
H276 C253 0.930 . S
H277 C254 0.929 . S
H278 C256 0.930 . S
H279 C257 0.929 . S
Nd280 C282 2.836 1_556 S
Nd280 O300 2.500 1_556 S
Nd280 O301 2.492 . S
Nd280 O302 2.487 . S
Nd280 O303 2.682 . S
Nd280 O304 2.410 1_556 S
Nd280 O309 2.414 . S
Nd280 O311 2.424 . S
Nd281 C291 2.836 . S
Nd281 O303 2.414 . S
Nd281 O305 2.424 1_556 S
Nd281 O306 2.500 . S
Nd281 O307 2.492 . S
Nd281 O308 2.487 . S
Nd281 O309 2.682 . S
Nd281 O310 2.410 . S
C282 Nd280 2.836 1_554 S
C282 C283 1.498 . S
C282 O300 1.258 . S
C282 O301 1.239 1_554 S
C283 C282 1.498 . S
C283 C284 1.366 . S
C283 C288 1.407 . S
C284 C283 1.366 . S
C284 C285 1.392 . S
C284 H312 0.930 . S
C285 C284 1.392 . S
C285 C286 1.398 . S
C285 H313 0.929 . S
C286 C285 1.398 . S
C286 C287 1.352 . S
C287 C286 1.352 . S
C287 C288 1.384 . S
C287 H314 0.930 . S
C288 C283 1.407 . S
C288 C287 1.384 . S
C288 H315 0.929 . S
C289 O302 1.241 . S
C289 O303 1.273 . S
C290 O304 1.251 . S
C290 O305 1.268 . S
C291 Nd281 2.836 . S
C291 C292 1.498 . S
C291 O306 1.258 . S
C291 O307 1.239 . S
C292 C291 1.498 . S
C292 C293 1.366 . S
C292 C297 1.407 . S
C293 C292 1.366 . S
C293 C294 1.392 . S
C293 H316 0.930 . S
C294 C293 1.392 . S
C294 C295 1.398 . S
C294 H317 0.929 . S
C295 C294 1.398 . S
C295 C296 1.352 . S
C296 C295 1.352 . S
C296 C297 1.384 . S
C296 H318 0.930 . S
C297 C292 1.407 . S
C297 C296 1.384 . S
C297 H319 0.929 . S
C298 O308 1.241 . S
C298 O309 1.273 . S
C299 O310 1.251 . S
C299 O311 1.268 . S
O300 Nd280 2.500 1_554 S
O300 C282 1.258 . S
O301 Nd280 2.492 . S
O301 C282 1.239 1_556 S
O302 Nd280 2.487 . S
O302 C289 1.241 . S
O303 Nd280 2.682 . S
O303 Nd281 2.414 . S
O303 C289 1.273 . S
O304 Nd280 2.410 1_554 S
O304 C290 1.251 . S
O305 Nd281 2.424 1_554 S
O305 C290 1.268 . S
O306 Nd281 2.500 . S
O306 C291 1.258 . S
O307 Nd281 2.492 . S
O307 C291 1.239 . S
O308 Nd281 2.487 . S
O308 C298 1.241 . S
O309 Nd280 2.414 . S
O309 Nd281 2.682 . S
O309 C298 1.273 . S
O310 Nd281 2.410 . S
O310 C299 1.251 . S
O311 Nd280 2.424 . S
O311 C299 1.268 . S
H312 C284 0.930 . S
H313 C285 0.929 . S
H314 C287 0.930 . S
H315 C288 0.929 . S
H316 C293 0.930 . S
H317 C294 0.929 . S
H318 C296 0.930 . S
H319 C297 0.929 . S
Nd320 C322 2.836 . S
Nd320 O340 2.500 . S
Nd320 O341 2.492 . S
Nd320 O342 2.487 . S
Nd320 O343 2.682 . S
Nd320 O344 2.410 . S
Nd320 O349 2.414 . S
Nd320 O351 2.424 . S
Nd321 C331 2.836 . S
Nd321 O343 2.414 . S
Nd321 O345 2.424 . S
Nd321 O346 2.500 . S
Nd321 O347 2.492 . S
Nd321 O348 2.487 . S
Nd321 O349 2.682 . S
Nd321 O350 2.410 . S
C322 Nd320 2.836 . S
C322 C323 1.498 . S
C322 O340 1.258 . S
C322 O341 1.239 . S
C323 C322 1.498 . S
C323 C324 1.366 . S
C323 C328 1.407 . S
C324 C323 1.366 . S
C324 C325 1.392 . S
C324 H352 0.930 . S
C325 C324 1.392 . S
C325 C326 1.398 . S
C325 H353 0.929 . S
C326 C325 1.398 . S
C326 C327 1.352 . S
C327 C326 1.352 . S
C327 C328 1.384 . S
C327 H354 0.930 . S
C328 C323 1.407 . S
C328 C327 1.384 . S
C328 H355 0.929 . S
C329 O342 1.241 . S
C329 O343 1.273 . S
C330 O344 1.251 . S
C330 O345 1.268 . S
C331 Nd321 2.836 . S
C331 C332 1.498 . S
C331 O346 1.258 . S
C331 O347 1.239 . S
C332 C331 1.498 . S
C332 C333 1.366 . S
C332 C337 1.407 . S
C333 C332 1.366 . S
C333 C334 1.392 . S
C333 H356 0.930 . S
C334 C333 1.392 . S
C334 C335 1.398 . S
C334 H357 0.929 . S
C335 C334 1.398 . S
C335 C336 1.352 . S
C336 C335 1.352 . S
C336 C337 1.384 . S
C336 H358 0.930 . S
C337 C332 1.407 . S
C337 C336 1.384 . S
C337 H359 0.929 . S
C338 O348 1.241 . S
C338 O349 1.273 . S
C339 O350 1.251 . S
C339 O351 1.268 . S
O340 Nd320 2.500 . S
O340 C322 1.258 . S
O341 Nd320 2.492 . S
O341 C322 1.239 . S
O342 Nd320 2.487 . S
O342 C329 1.241 . S
O343 Nd320 2.682 . S
O343 Nd321 2.414 . S
O343 C329 1.273 . S
O344 Nd320 2.410 . S
O344 C330 1.251 . S
O345 Nd321 2.424 . S
O345 C330 1.268 . S
O346 Nd321 2.500 . S
O346 C331 1.258 . S
O347 Nd321 2.492 . S
O347 C331 1.239 . S
O348 Nd321 2.487 . S
O348 C338 1.241 . S
O349 Nd320 2.414 . S
O349 Nd321 2.682 . S
O349 C338 1.273 . S
O350 Nd321 2.410 . S
O350 C339 1.251 . S
O351 Nd320 2.424 . S
O351 C339 1.268 . S
H352 C324 0.930 . S
H353 C325 0.929 . S
H354 C327 0.930 . S
H355 C328 0.929 . S
H356 C333 0.930 . S
H357 C334 0.929 . S
H358 C336 0.930 . S
H359 C337 0.929 . S
Nd360 C362 2.836 . S
Nd360 O380 2.500 . S
Nd360 O381 2.492 . S
Nd360 O382 2.487 . S
Nd360 O383 2.682 . S
Nd360 O384 2.410 . S
Nd360 O389 2.414 . S
Nd360 O391 2.424 . S
Nd361 C371 2.836 . S
Nd361 O383 2.414 . S
Nd361 O385 2.424 . S
Nd361 O386 2.500 . S
Nd361 O387 2.492 . S
Nd361 O388 2.487 . S
Nd361 O389 2.682 . S
Nd361 O390 2.410 . S
C362 Nd360 2.836 . S
C362 C363 1.498 . S
C362 O380 1.258 . S
C362 O381 1.239 . S
C363 C362 1.498 . S
C363 C364 1.366 . S
C363 C368 1.407 . S
C364 C363 1.366 . S
C364 C365 1.392 . S
C364 H392 0.930 . S
C365 C364 1.392 . S
C365 C366 1.398 . S
C365 H393 0.929 . S
C366 C365 1.398 . S
C366 C367 1.352 . S
C367 C366 1.352 . S
C367 C368 1.384 . S
C367 H394 0.930 . S
C368 C363 1.407 . S
C368 C367 1.384 . S
C368 H395 0.929 . S
C369 O382 1.241 . S
C369 O383 1.273 . S
C370 O384 1.251 . S
C370 O385 1.268 . S
C371 Nd361 2.836 . S
C371 C372 1.498 . S
C371 O386 1.258 . S
C371 O387 1.239 . S
C372 C371 1.498 . S
C372 C373 1.366 . S
C372 C377 1.407 . S
C373 C372 1.366 . S
C373 C374 1.392 . S
C373 H396 0.930 . S
C374 C373 1.392 . S
C374 C375 1.398 . S
C374 H397 0.929 . S
C375 C374 1.398 . S
C375 C376 1.352 . S
C376 C375 1.352 . S
C376 C377 1.384 . S
C376 H398 0.930 . S
C377 C372 1.407 . S
C377 C376 1.384 . S
C377 H399 0.929 . S
C378 O388 1.241 . S
C378 O389 1.273 . S
C379 O390 1.251 . S
C379 O391 1.268 . S
O380 Nd360 2.500 . S
O380 C362 1.258 . S
O381 Nd360 2.492 . S
O381 C362 1.239 . S
O382 Nd360 2.487 . S
O382 C369 1.241 . S
O383 Nd360 2.682 . S
O383 Nd361 2.414 . S
O383 C369 1.273 . S
O384 Nd360 2.410 . S
O384 C370 1.251 . S
O385 Nd361 2.424 . S
O385 C370 1.268 . S
O386 Nd361 2.500 . S
O386 C371 1.258 . S
O387 Nd361 2.492 . S
O387 C371 1.239 . S
O388 Nd361 2.487 . S
O388 C378 1.241 . S
O389 Nd360 2.414 . S
O389 Nd361 2.682 . S
O389 C378 1.273 . S
O390 Nd361 2.410 . S
O390 C379 1.251 . S
O391 Nd360 2.424 . S
O391 C379 1.268 . S
H392 C364 0.930 . S
H393 C365 0.929 . S
H394 C367 0.930 . S
H395 C368 0.929 . S
H396 C373 0.930 . S
H397 C374 0.929 . S
H398 C376 0.930 . S
H399 C377 0.929 . S
Nd400 C402 2.836 . S
Nd400 O420 2.500 . S
Nd400 O421 2.492 . S
Nd400 O422 2.487 . S
Nd400 O423 2.682 . S
Nd400 O424 2.410 . S
Nd400 O429 2.414 . S
Nd400 O431 2.424 . S
Nd401 C411 2.836 . S
Nd401 O423 2.414 . S
Nd401 O425 2.424 . S
Nd401 O426 2.500 . S
Nd401 O427 2.492 . S
Nd401 O428 2.487 . S
Nd401 O429 2.682 . S
Nd401 O430 2.410 . S
C402 Nd400 2.836 . S
C402 C403 1.498 . S
C402 O420 1.258 . S
C402 O421 1.239 . S
C403 C402 1.498 . S
C403 C404 1.366 . S
C403 C408 1.407 . S
C404 C403 1.366 . S
C404 C405 1.392 . S
C404 H432 0.930 . S
C405 C404 1.392 . S
C405 C406 1.398 . S
C405 H433 0.929 . S
C406 C405 1.398 . S
C406 C407 1.352 . S
C407 C406 1.352 . S
C407 C408 1.384 . S
C407 H434 0.930 . S
C408 C403 1.407 . S
C408 C407 1.384 . S
C408 H435 0.929 . S
C409 O422 1.241 . S
C409 O423 1.273 . S
C410 O424 1.251 . S
C410 O425 1.268 . S
C411 Nd401 2.836 . S
C411 C412 1.498 . S
C411 O426 1.258 . S
C411 O427 1.239 . S
C412 C411 1.498 . S
C412 C413 1.366 . S
C412 C417 1.407 . S
C413 C412 1.366 . S
C413 C414 1.392 . S
C413 H436 0.930 . S
C414 C413 1.392 . S
C414 C415 1.398 . S
C414 H437 0.929 . S
C415 C414 1.398 . S
C415 C416 1.352 . S
C416 C415 1.352 . S
C416 C417 1.384 . S
C416 H438 0.930 . S
C417 C412 1.407 . S
C417 C416 1.384 . S
C417 H439 0.929 . S
C418 O428 1.241 . S
C418 O429 1.273 . S
C419 O430 1.251 . S
C419 O431 1.268 . S
O420 Nd400 2.500 . S
O420 C402 1.258 . S
O421 Nd400 2.492 . S
O421 C402 1.239 . S
O422 Nd400 2.487 . S
O422 C409 1.241 . S
O423 Nd400 2.682 . S
O423 Nd401 2.414 . S
O423 C409 1.273 . S
O424 Nd400 2.410 . S
O424 C410 1.251 . S
O425 Nd401 2.424 . S
O425 C410 1.268 . S
O426 Nd401 2.500 . S
O426 C411 1.258 . S
O427 Nd401 2.492 . S
O427 C411 1.239 . S
O428 Nd401 2.487 . S
O428 C418 1.241 . S
O429 Nd400 2.414 . S
O429 Nd401 2.682 . S
O429 C418 1.273 . S
O430 Nd401 2.410 . S
O430 C419 1.251 . S
O431 Nd400 2.424 . S
O431 C419 1.268 . S
H432 C404 0.930 . S
H433 C405 0.929 . S
H434 C407 0.930 . S
H435 C408 0.929 . S
H436 C413 0.930 . S
H437 C414 0.929 . S
H438 C416 0.930 . S
H439 C417 0.929 . S
Nd440 C442 2.836 . S
Nd440 O460 2.500 . S
Nd440 O461 2.492 . S
Nd440 O462 2.487 . S
Nd440 O463 2.682 . S
Nd440 O464 2.410 . S
Nd440 O469 2.414 . S
Nd440 O471 2.424 . S
Nd441 C451 2.836 . S
Nd441 O463 2.414 . S
Nd441 O465 2.424 . S
Nd441 O466 2.500 . S
Nd441 O467 2.492 . S
Nd441 O468 2.487 . S
Nd441 O469 2.682 . S
Nd441 O470 2.410 . S
C442 Nd440 2.836 . S
C442 C443 1.498 . S
C442 O460 1.258 . S
C442 O461 1.239 . S
C443 C442 1.498 . S
C443 C444 1.366 . S
C443 C448 1.407 . S
C444 C443 1.366 . S
C444 C445 1.392 . S
C444 H472 0.930 . S
C445 C444 1.392 . S
C445 C446 1.398 . S
C445 H473 0.929 . S
C446 C445 1.398 . S
C446 C447 1.352 . S
C447 C446 1.352 . S
C447 C448 1.384 . S
C447 H474 0.930 . S
C448 C443 1.407 . S
C448 C447 1.384 . S
C448 H475 0.929 . S
C449 O462 1.241 . S
C449 O463 1.273 . S
C450 O464 1.251 . S
C450 O465 1.268 . S
C451 Nd441 2.836 . S
C451 C452 1.498 . S
C451 O466 1.258 . S
C451 O467 1.239 . S
C452 C451 1.498 . S
C452 C453 1.366 . S
C452 C457 1.407 . S
C453 C452 1.366 . S
C453 C454 1.392 . S
C453 H476 0.930 . S
C454 C453 1.392 . S
C454 C455 1.398 . S
C454 H477 0.929 . S
C455 C454 1.398 . S
C455 C456 1.352 . S
C456 C455 1.352 . S
C456 C457 1.384 . S
C456 H478 0.930 . S
C457 C452 1.407 . S
C457 C456 1.384 . S
C457 H479 0.929 . S
C458 O468 1.241 . S
C458 O469 1.273 . S
C459 O470 1.251 . S
C459 O471 1.268 . S
O460 Nd440 2.500 . S
O460 C442 1.258 . S
O461 Nd440 2.492 . S
O461 C442 1.239 . S
O462 Nd440 2.487 . S
O462 C449 1.241 . S
O463 Nd440 2.682 . S
O463 Nd441 2.414 . S
O463 C449 1.273 . S
O464 Nd440 2.410 . S
O464 C450 1.251 . S
O465 Nd441 2.424 . S
O465 C450 1.268 . S
O466 Nd441 2.500 . S
O466 C451 1.258 . S
O467 Nd441 2.492 . S
O467 C451 1.239 . S
O468 Nd441 2.487 . S
O468 C458 1.241 . S
O469 Nd440 2.414 . S
O469 Nd441 2.682 . S
O469 C458 1.273 . S
O470 Nd441 2.410 . S
O470 C459 1.251 . S
O471 Nd440 2.424 . S
O471 C459 1.268 . S
H472 C444 0.930 . S
H473 C445 0.929 . S
H474 C447 0.930 . S
H475 C448 0.929 . S
H476 C453 0.930 . S
H477 C454 0.929 . S
H478 C456 0.930 . S
H479 C457 0.929 . S
Nd480 C482 2.836 . S
Nd480 O500 2.500 . S
Nd480 O501 2.492 . S
Nd480 O502 2.487 . S
Nd480 O503 2.682 . S
Nd480 O504 2.410 . S
Nd480 O509 2.414 . S
Nd480 O511 2.424 . S
Nd481 C491 2.836 . S
Nd481 O503 2.414 . S
Nd481 O505 2.424 . S
Nd481 O506 2.500 . S
Nd481 O507 2.492 . S
Nd481 O508 2.487 . S
Nd481 O509 2.682 . S
Nd481 O510 2.410 . S
C482 Nd480 2.836 . S
C482 C483 1.498 . S
C482 O500 1.258 . S
C482 O501 1.239 . S
C483 C482 1.498 . S
C483 C484 1.366 . S
C483 C488 1.407 . S
C484 C483 1.366 . S
C484 C485 1.392 . S
C484 H512 0.930 . S
C485 C484 1.392 . S
C485 C486 1.398 . S
C485 H513 0.929 . S
C486 C485 1.398 . S
C486 C487 1.352 . S
C487 C486 1.352 . S
C487 C488 1.384 . S
C487 H514 0.930 . S
C488 C483 1.407 . S
C488 C487 1.384 . S
C488 H515 0.929 . S
C489 O502 1.241 . S
C489 O503 1.273 . S
C490 O504 1.251 . S
C490 O505 1.268 . S
C491 Nd481 2.836 . S
C491 C492 1.498 . S
C491 O506 1.258 . S
C491 O507 1.239 . S
C492 C491 1.498 . S
C492 C493 1.366 . S
C492 C497 1.407 . S
C493 C492 1.366 . S
C493 C494 1.392 . S
C493 H516 0.930 . S
C494 C493 1.392 . S
C494 C495 1.398 . S
C494 H517 0.929 . S
C495 C494 1.398 . S
C495 C496 1.352 . S
C496 C495 1.352 . S
C496 C497 1.384 . S
C496 H518 0.930 . S
C497 C492 1.407 . S
C497 C496 1.384 . S
C497 H519 0.929 . S
C498 O508 1.241 . S
C498 O509 1.273 . S
C499 O510 1.251 . S
C499 O511 1.268 . S
O500 Nd480 2.500 . S
O500 C482 1.258 . S
O501 Nd480 2.492 . S
O501 C482 1.239 . S
O502 Nd480 2.487 . S
O502 C489 1.241 . S
O503 Nd480 2.682 . S
O503 Nd481 2.414 . S
O503 C489 1.273 . S
O504 Nd480 2.410 . S
O504 C490 1.251 . S
O505 Nd481 2.424 . S
O505 C490 1.268 . S
O506 Nd481 2.500 . S
O506 C491 1.258 . S
O507 Nd481 2.492 . S
O507 C491 1.239 . S
O508 Nd481 2.487 . S
O508 C498 1.241 . S
O509 Nd480 2.414 . S
O509 Nd481 2.682 . S
O509 C498 1.273 . S
O510 Nd481 2.410 . S
O510 C499 1.251 . S
O511 Nd480 2.424 . S
O511 C499 1.268 . S
H512 C484 0.930 . S
H513 C485 0.929 . S
H514 C487 0.930 . S
H515 C488 0.929 . S
H516 C493 0.930 . S
H517 C494 0.929 . S
H518 C496 0.930 . S
H519 C497 0.929 . S
Nd520 C522 2.836 . S
Nd520 O540 2.500 . S
Nd520 O541 2.492 . S
Nd520 O542 2.487 . S
Nd520 O543 2.682 . S
Nd520 O544 2.410 . S
Nd520 O549 2.414 . S
Nd520 O551 2.424 . S
Nd521 C531 2.836 . S
Nd521 O543 2.414 . S
Nd521 O545 2.424 . S
Nd521 O546 2.500 . S
Nd521 O547 2.492 . S
Nd521 O548 2.487 . S
Nd521 O549 2.682 . S
Nd521 O550 2.410 . S
C522 Nd520 2.836 . S
C522 C523 1.498 . S
C522 O540 1.258 . S
C522 O541 1.239 . S
C523 C522 1.498 . S
C523 C524 1.366 . S
C523 C528 1.407 . S
C524 C523 1.366 . S
C524 C525 1.392 . S
C524 H552 0.930 . S
C525 C524 1.392 . S
C525 C526 1.398 . S
C525 H553 0.929 . S
C526 C525 1.398 . S
C526 C527 1.352 . S
C527 C526 1.352 . S
C527 C528 1.384 . S
C527 H554 0.930 . S
C528 C523 1.407 . S
C528 C527 1.384 . S
C528 H555 0.929 . S
C529 O542 1.241 . S
C529 O543 1.273 . S
C530 O544 1.251 . S
C530 O545 1.268 . S
C531 Nd521 2.836 . S
C531 C532 1.498 . S
C531 O546 1.258 . S
C531 O547 1.239 . S
C532 C531 1.498 . S
C532 C533 1.366 . S
C532 C537 1.407 . S
C533 C532 1.366 . S
C533 C534 1.392 . S
C533 H556 0.930 . S
C534 C533 1.392 . S
C534 C535 1.398 . S
C534 H557 0.929 . S
C535 C534 1.398 . S
C535 C536 1.352 . S
C536 C535 1.352 . S
C536 C537 1.384 . S
C536 H558 0.930 . S
C537 C532 1.407 . S
C537 C536 1.384 . S
C537 H559 0.929 . S
C538 O548 1.241 . S
C538 O549 1.273 . S
C539 O550 1.251 . S
C539 O551 1.268 . S
O540 Nd520 2.500 . S
O540 C522 1.258 . S
O541 Nd520 2.492 . S
O541 C522 1.239 . S
O542 Nd520 2.487 . S
O542 C529 1.241 . S
O543 Nd520 2.682 . S
O543 Nd521 2.414 . S
O543 C529 1.273 . S
O544 Nd520 2.410 . S
O544 C530 1.251 . S
O545 Nd521 2.424 . S
O545 C530 1.268 . S
O546 Nd521 2.500 . S
O546 C531 1.258 . S
O547 Nd521 2.492 . S
O547 C531 1.239 . S
O548 Nd521 2.487 . S
O548 C538 1.241 . S
O549 Nd520 2.414 . S
O549 Nd521 2.682 . S
O549 C538 1.273 . S
O550 Nd521 2.410 . S
O550 C539 1.251 . S
O551 Nd520 2.424 . S
O551 C539 1.268 . S
H552 C524 0.930 . S
H553 C525 0.929 . S
H554 C527 0.930 . S
H555 C528 0.929 . S
H556 C533 0.930 . S
H557 C534 0.929 . S
H558 C536 0.930 . S
H559 C537 0.929 . S
Nd560 C562 2.836 . S
Nd560 O580 2.500 . S
Nd560 O581 2.492 . S
Nd560 O582 2.487 . S
Nd560 O583 2.682 . S
Nd560 O584 2.410 . S
Nd560 O589 2.414 . S
Nd560 O591 2.424 . S
Nd561 C571 2.836 . S
Nd561 O583 2.414 . S
Nd561 O585 2.424 . S
Nd561 O586 2.500 . S
Nd561 O587 2.492 . S
Nd561 O588 2.487 . S
Nd561 O589 2.682 . S
Nd561 O590 2.410 . S
C562 Nd560 2.836 . S
C562 C563 1.498 . S
C562 O580 1.258 . S
C562 O581 1.239 . S
C563 C562 1.498 . S
C563 C564 1.366 . S
C563 C568 1.407 . S
C564 C563 1.366 . S
C564 C565 1.392 . S
C564 H592 0.930 . S
C565 C564 1.392 . S
C565 C566 1.398 . S
C565 H593 0.929 . S
C566 C565 1.398 . S
C566 C567 1.352 . S
C567 C566 1.352 . S
C567 C568 1.384 . S
C567 H594 0.930 . S
C568 C563 1.407 . S
C568 C567 1.384 . S
C568 H595 0.929 . S
C569 O582 1.241 . S
C569 O583 1.273 . S
C570 O584 1.251 . S
C570 O585 1.268 . S
C571 Nd561 2.836 . S
C571 C572 1.498 . S
C571 O586 1.258 . S
C571 O587 1.239 . S
C572 C571 1.498 . S
C572 C573 1.366 . S
C572 C577 1.407 . S
C573 C572 1.366 . S
C573 C574 1.392 . S
C573 H596 0.930 . S
C574 C573 1.392 . S
C574 C575 1.398 . S
C574 H597 0.929 . S
C575 C574 1.398 . S
C575 C576 1.352 . S
C576 C575 1.352 . S
C576 C577 1.384 . S
C576 H598 0.930 . S
C577 C572 1.407 . S
C577 C576 1.384 . S
C577 H599 0.929 . S
C578 O588 1.241 . S
C578 O589 1.273 . S
C579 O590 1.251 . S
C579 O591 1.268 . S
O580 Nd560 2.500 . S
O580 C562 1.258 . S
O581 Nd560 2.492 . S
O581 C562 1.239 . S
O582 Nd560 2.487 . S
O582 C569 1.241 . S
O583 Nd560 2.682 . S
O583 Nd561 2.414 . S
O583 C569 1.273 . S
O584 Nd560 2.410 . S
O584 C570 1.251 . S
O585 Nd561 2.424 . S
O585 C570 1.268 . S
O586 Nd561 2.500 . S
O586 C571 1.258 . S
O587 Nd561 2.492 . S
O587 C571 1.239 . S
O588 Nd561 2.487 . S
O588 C578 1.241 . S
O589 Nd560 2.414 . S
O589 Nd561 2.682 . S
O589 C578 1.273 . S
O590 Nd561 2.410 . S
O590 C579 1.251 . S
O591 Nd560 2.424 . S
O591 C579 1.268 . S
H592 C564 0.930 . S
H593 C565 0.929 . S
H594 C567 0.930 . S
H595 C568 0.929 . S
H596 C573 0.930 . S
H597 C574 0.929 . S
H598 C576 0.930 . S
H599 C577 0.929 . S
Nd600 C602 2.836 . S
Nd600 O620 2.500 . S
Nd600 O621 2.492 . S
Nd600 O622 2.487 . S
Nd600 O623 2.682 . S
Nd600 O624 2.410 . S
Nd600 O629 2.414 . S
Nd600 O631 2.424 . S
Nd601 C611 2.836 . S
Nd601 O623 2.414 . S
Nd601 O625 2.424 . S
Nd601 O626 2.500 . S
Nd601 O627 2.492 . S
Nd601 O628 2.487 . S
Nd601 O629 2.682 . S
Nd601 O630 2.410 . S
C602 Nd600 2.836 . S
C602 C603 1.498 . S
C602 O620 1.258 . S
C602 O621 1.239 . S
C603 C602 1.498 . S
C603 C604 1.366 . S
C603 C608 1.407 . S
C604 C603 1.366 . S
C604 C605 1.392 . S
C604 H632 0.930 . S
C605 C604 1.392 . S
C605 C606 1.398 . S
C605 H633 0.929 . S
C606 C605 1.398 . S
C606 C607 1.352 . S
C607 C606 1.352 . S
C607 C608 1.384 . S
C607 H634 0.930 . S
C608 C603 1.407 . S
C608 C607 1.384 . S
C608 H635 0.929 . S
C609 O622 1.241 . S
C609 O623 1.273 . S
C610 O624 1.251 . S
C610 O625 1.268 . S
C611 Nd601 2.836 . S
C611 C612 1.498 . S
C611 O626 1.258 . S
C611 O627 1.239 . S
C612 C611 1.498 . S
C612 C613 1.366 . S
C612 C617 1.407 . S
C613 C612 1.366 . S
C613 C614 1.392 . S
C613 H636 0.930 . S
C614 C613 1.392 . S
C614 C615 1.398 . S
C614 H637 0.929 . S
C615 C614 1.398 . S
C615 C616 1.352 . S
C616 C615 1.352 . S
C616 C617 1.384 . S
C616 H638 0.930 . S
C617 C612 1.407 . S
C617 C616 1.384 . S
C617 H639 0.929 . S
C618 O628 1.241 . S
C618 O629 1.273 . S
C619 O630 1.251 . S
C619 O631 1.268 . S
O620 Nd600 2.500 . S
O620 C602 1.258 . S
O621 Nd600 2.492 . S
O621 C602 1.239 . S
O622 Nd600 2.487 . S
O622 C609 1.241 . S
O623 Nd600 2.682 . S
O623 Nd601 2.414 . S
O623 C609 1.273 . S
O624 Nd600 2.410 . S
O624 C610 1.251 . S
O625 Nd601 2.424 . S
O625 C610 1.268 . S
O626 Nd601 2.500 . S
O626 C611 1.258 . S
O627 Nd601 2.492 . S
O627 C611 1.239 . S
O628 Nd601 2.487 . S
O628 C618 1.241 . S
O629 Nd600 2.414 . S
O629 Nd601 2.682 . S
O629 C618 1.273 . S
O630 Nd601 2.410 . S
O630 C619 1.251 . S
O631 Nd600 2.424 . S
O631 C619 1.268 . S
H632 C604 0.930 . S
H633 C605 0.929 . S
H634 C607 0.930 . S
H635 C608 0.929 . S
H636 C613 0.930 . S
H637 C614 0.929 . S
H638 C616 0.930 . S
H639 C617 0.929 . S
Nd640 C642 2.836 . S
Nd640 O660 2.500 . S
Nd640 O661 2.492 . S
Nd640 O662 2.487 . S
Nd640 O663 2.682 . S
Nd640 O664 2.410 . S
Nd640 O669 2.414 . S
Nd640 O671 2.424 . S
Nd641 C651 2.836 . S
Nd641 O663 2.414 . S
Nd641 O665 2.424 . S
Nd641 O666 2.500 . S
Nd641 O667 2.492 . S
Nd641 O668 2.487 . S
Nd641 O669 2.682 . S
Nd641 O670 2.410 . S
C642 Nd640 2.836 . S
C642 C643 1.498 . S
C642 O660 1.258 . S
C642 O661 1.239 . S
C643 C642 1.498 . S
C643 C644 1.366 . S
C643 C648 1.407 . S
C644 C643 1.366 . S
C644 C645 1.392 . S
C644 H672 0.930 . S
C645 C644 1.392 . S
C645 C646 1.398 . S
C645 H673 0.929 . S
C646 C645 1.398 . S
C646 C647 1.352 . S
C647 C646 1.352 . S
C647 C648 1.384 . S
C647 H674 0.930 . S
C648 C643 1.407 . S
C648 C647 1.384 . S
C648 H675 0.929 . S
C649 O662 1.241 . S
C649 O663 1.273 . S
C650 O664 1.251 . S
C650 O665 1.268 . S
C651 Nd641 2.836 . S
C651 C652 1.498 . S
C651 O666 1.258 . S
C651 O667 1.239 . S
C652 C651 1.498 . S
C652 C653 1.366 . S
C652 C657 1.407 . S
C653 C652 1.366 . S
C653 C654 1.392 . S
C653 H676 0.930 . S
C654 C653 1.392 . S
C654 C655 1.398 . S
C654 H677 0.929 . S
C655 C654 1.398 . S
C655 C656 1.352 . S
C656 C655 1.352 . S
C656 C657 1.384 . S
C656 H678 0.930 . S
C657 C652 1.407 . S
C657 C656 1.384 . S
C657 H679 0.929 . S
C658 O668 1.241 . S
C658 O669 1.273 . S
C659 O670 1.251 . S
C659 O671 1.268 . S
O660 Nd640 2.500 . S
O660 C642 1.258 . S
O661 Nd640 2.492 . S
O661 C642 1.239 . S
O662 Nd640 2.487 . S
O662 C649 1.241 . S
O663 Nd640 2.682 . S
O663 Nd641 2.414 . S
O663 C649 1.273 . S
O664 Nd640 2.410 . S
O664 C650 1.251 . S
O665 Nd641 2.424 . S
O665 C650 1.268 . S
O666 Nd641 2.500 . S
O666 C651 1.258 . S
O667 Nd641 2.492 . S
O667 C651 1.239 . S
O668 Nd641 2.487 . S
O668 C658 1.241 . S
O669 Nd640 2.414 . S
O669 Nd641 2.682 . S
O669 C658 1.273 . S
O670 Nd641 2.410 . S
O670 C659 1.251 . S
O671 Nd640 2.424 . S
O671 C659 1.268 . S
H672 C644 0.930 . S
H673 C645 0.929 . S
H674 C647 0.930 . S
H675 C648 0.929 . S
H676 C653 0.930 . S
H677 C654 0.929 . S
H678 C656 0.930 . S
H679 C657 0.929 . S
Nd680 C682 2.836 . S
Nd680 O700 2.500 1_565 S
Nd680 O701 2.492 . S
Nd680 O702 2.487 . S
Nd680 O703 2.682 . S
Nd680 O704 2.410 . S
Nd680 O709 2.414 1_565 S
Nd680 O711 2.429 . S
Nd681 C691 2.836 . S
Nd681 O703 2.414 . S
Nd681 O705 2.424 . S
Nd681 O706 2.500 . S
Nd681 O707 2.492 1_565 S
Nd681 O708 2.487 1_565 S
Nd681 O709 2.682 1_565 S
Nd681 O710 2.410 1_565 S
C682 Nd680 2.836 . S
C682 C683 1.498 . S
C682 O700 1.258 1_565 S
C682 O701 1.239 . S
C683 C682 1.498 . S
C683 C684 1.366 1_565 S
C683 C688 1.407 . S
C684 C683 1.366 1_545 S
C684 C685 1.392 . S
C684 H712 0.930 . S
C685 C684 1.392 . S
C685 C686 1.398 1_545 S
C685 H713 0.929 . S
C686 C685 1.398 1_565 S
C686 C687 1.352 . S
C687 C686 1.352 . S
C687 C688 1.384 . S
C687 H714 0.930 . S
C688 C683 1.407 . S
C688 C687 1.384 . S
C688 H715 0.929 . S
C689 O702 1.241 . S
C689 O703 1.273 . S
C690 O704 1.251 . S
C690 O705 1.268 . S
C691 Nd681 2.836 . S
C691 C692 1.498 . S
C691 O706 1.258 . S
C691 O707 1.239 1_565 S
C692 C691 1.498 . S
C692 C693 1.366 . S
C692 C697 1.407 1_565 S
C693 C692 1.366 . S
C693 C694 1.392 . S
C693 H716 0.930 . S
C694 C693 1.392 . S
C694 C695 1.398 . S
C694 H717 0.929 . S
C695 C694 1.398 . S
C695 C696 1.352 1_565 S
C696 C695 1.352 1_545 S
C696 C697 1.384 . S
C696 H718 0.930 . S
C697 C692 1.407 1_545 S
C697 C696 1.384 . S
C697 H719 0.929 . S
C698 O708 1.241 . S
C698 O709 1.273 . S
C699 O710 1.251 . S
C699 O711 1.262 1_545 S
O700 Nd680 2.500 1_545 S
O700 C682 1.258 1_545 S
O701 Nd680 2.492 . S
O701 C682 1.239 . S
O702 Nd680 2.487 . S
O702 C689 1.241 . S
O703 Nd680 2.682 . S
O703 Nd681 2.414 . S
O703 C689 1.273 . S
O704 Nd680 2.410 . S
O704 C690 1.251 . S
O705 Nd681 2.424 . S
O705 C690 1.268 . S
O706 Nd681 2.500 . S
O706 C691 1.258 . S
O707 Nd681 2.492 1_545 S
O707 C691 1.239 1_545 S
O708 Nd681 2.487 1_545 S
O708 C698 1.241 . S
O709 Nd680 2.414 1_545 S
O709 Nd681 2.682 1_545 S
O709 C698 1.273 . S
O710 Nd681 2.410 1_545 S
O710 C699 1.251 . S
O711 Nd680 2.429 . S
O711 C699 1.262 1_565 S
H712 C684 0.930 . S
H713 C685 0.929 . S
H714 C687 0.930 . S
H715 C688 0.929 . S
H716 C693 0.930 . S
H717 C694 0.929 . S
H718 C696 0.930 . S
H719 C697 0.929 . S
Nd720 C722 2.836 . S
Nd720 O740 2.500 1_565 S
Nd720 O741 2.492 . S
Nd720 O742 2.487 . S
Nd720 O743 2.682 . S
Nd720 O744 2.410 . S
Nd720 O749 2.414 1_565 S
Nd720 O751 2.429 . S
Nd721 C731 2.836 . S
Nd721 O743 2.414 . S
Nd721 O745 2.424 . S
Nd721 O746 2.500 . S
Nd721 O747 2.492 1_565 S
Nd721 O748 2.487 1_565 S
Nd721 O749 2.682 1_565 S
Nd721 O750 2.410 1_565 S
C722 Nd720 2.836 . S
C722 C723 1.498 . S
C722 O740 1.258 1_565 S
C722 O741 1.239 . S
C723 C722 1.498 . S
C723 C724 1.366 1_565 S
C723 C728 1.407 . S
C724 C723 1.366 1_545 S
C724 C725 1.392 . S
C724 H752 0.930 . S
C725 C724 1.392 . S
C725 C726 1.398 1_545 S
C725 H753 0.929 . S
C726 C725 1.398 1_565 S
C726 C727 1.352 . S
C727 C726 1.352 . S
C727 C728 1.384 . S
C727 H754 0.930 . S
C728 C723 1.407 . S
C728 C727 1.384 . S
C728 H755 0.929 . S
C729 O742 1.241 . S
C729 O743 1.273 . S
C730 O744 1.251 . S
C730 O745 1.268 . S
C731 Nd721 2.836 . S
C731 C732 1.498 . S
C731 O746 1.258 . S
C731 O747 1.239 1_565 S
C732 C731 1.498 . S
C732 C733 1.366 . S
C732 C737 1.407 1_565 S
C733 C732 1.366 . S
C733 C734 1.392 . S
C733 H756 0.930 . S
C734 C733 1.392 . S
C734 C735 1.398 . S
C734 H757 0.929 . S
C735 C734 1.398 . S
C735 C736 1.352 1_565 S
C736 C735 1.352 1_545 S
C736 C737 1.384 . S
C736 H758 0.930 . S
C737 C732 1.407 1_545 S
C737 C736 1.384 . S
C737 H759 0.929 . S
C738 O748 1.241 . S
C738 O749 1.273 . S
C739 O750 1.251 . S
C739 O751 1.262 1_545 S
O740 Nd720 2.500 1_545 S
O740 C722 1.258 1_545 S
O741 Nd720 2.492 . S
O741 C722 1.239 . S
O742 Nd720 2.487 . S
O742 C729 1.241 . S
O743 Nd720 2.682 . S
O743 Nd721 2.414 . S
O743 C729 1.273 . S
O744 Nd720 2.410 . S
O744 C730 1.251 . S
O745 Nd721 2.424 . S
O745 C730 1.268 . S
O746 Nd721 2.500 . S
O746 C731 1.258 . S
O747 Nd721 2.492 1_545 S
O747 C731 1.239 1_545 S
O748 Nd721 2.487 1_545 S
O748 C738 1.241 . S
O749 Nd720 2.414 1_545 S
O749 Nd721 2.682 1_545 S
O749 C738 1.273 . S
O750 Nd721 2.410 1_545 S
O750 C739 1.251 . S
O751 Nd720 2.429 . S
O751 C739 1.262 1_565 S
H752 C724 0.930 . S
H753 C725 0.929 . S
H754 C727 0.930 . S
H755 C728 0.929 . S
H756 C733 0.930 . S
H757 C734 0.929 . S
H758 C736 0.930 . S
H759 C737 0.929 . S
Nd760 C762 2.836 . S
Nd760 O780 2.500 . S
Nd760 O781 2.492 . S
Nd760 O782 2.487 . S
Nd760 O783 2.682 . S
Nd760 O784 2.410 . S
Nd760 O789 2.414 . S
Nd760 O791 2.424 . S
Nd761 C771 2.836 . S
Nd761 O783 2.414 . S
Nd761 O785 2.424 . S
Nd761 O786 2.500 . S
Nd761 O787 2.492 . S
Nd761 O788 2.487 . S
Nd761 O789 2.682 . S
Nd761 O790 2.410 . S
C762 Nd760 2.836 . S
C762 C763 1.498 . S
C762 O780 1.258 . S
C762 O781 1.239 . S
C763 C762 1.498 . S
C763 C764 1.366 . S
C763 C768 1.407 . S
C764 C763 1.366 . S
C764 C765 1.392 . S
C764 H792 0.930 . S
C765 C764 1.392 . S
C765 C766 1.398 . S
C765 H793 0.929 . S
C766 C765 1.398 . S
C766 C767 1.352 . S
C767 C766 1.352 . S
C767 C768 1.384 . S
C767 H794 0.930 . S
C768 C763 1.407 . S
C768 C767 1.384 . S
C768 H795 0.929 . S
C769 O782 1.241 . S
C769 O783 1.273 . S
C770 O784 1.251 . S
C770 O785 1.268 . S
C771 Nd761 2.836 . S
C771 C772 1.498 . S
C771 O786 1.258 . S
C771 O787 1.239 . S
C772 C771 1.498 . S
C772 C773 1.366 . S
C772 C777 1.407 . S
C773 C772 1.366 . S
C773 C774 1.392 . S
C773 H796 0.930 . S
C774 C773 1.392 . S
C774 C775 1.398 . S
C774 H797 0.929 . S
C775 C774 1.398 . S
C775 C776 1.352 . S
C776 C775 1.352 . S
C776 C777 1.384 . S
C776 H798 0.930 . S
C777 C772 1.407 . S
C777 C776 1.384 . S
C777 H799 0.929 . S
C778 O788 1.241 . S
C778 O789 1.273 . S
C779 O790 1.251 . S
C779 O791 1.268 . S
O780 Nd760 2.500 . S
O780 C762 1.258 . S
O781 Nd760 2.492 . S
O781 C762 1.239 . S
O782 Nd760 2.487 . S
O782 C769 1.241 . S
O783 Nd760 2.682 . S
O783 Nd761 2.414 . S
O783 C769 1.273 . S
O784 Nd760 2.410 . S
O784 C770 1.251 . S
O785 Nd761 2.424 . S
O785 C770 1.268 . S
O786 Nd761 2.500 . S
O786 C771 1.258 . S
O787 Nd761 2.492 . S
O787 C771 1.239 . S
O788 Nd761 2.487 . S
O788 C778 1.241 . S
O789 Nd760 2.414 . S
O789 Nd761 2.682 . S
O789 C778 1.273 . S
O790 Nd761 2.410 . S
O790 C779 1.251 . S
O791 Nd760 2.424 . S
O791 C779 1.268 . S
H792 C764 0.930 . S
H793 C765 0.929 . S
H794 C767 0.930 . S
H795 C768 0.929 . S
H796 C773 0.930 . S
H797 C774 0.929 . S
H798 C776 0.930 . S
H799 C777 0.929 . S
Nd800 C802 2.836 . S
Nd800 O820 2.500 . S
Nd800 O821 2.492 . S
Nd800 O822 2.487 . S
Nd800 O823 2.682 . S
Nd800 O824 2.410 . S
Nd800 O829 2.414 . S
Nd800 O831 2.424 . S
Nd801 C811 2.836 . S
Nd801 O823 2.414 . S
Nd801 O825 2.424 . S
Nd801 O826 2.500 . S
Nd801 O827 2.492 . S
Nd801 O828 2.487 . S
Nd801 O829 2.682 . S
Nd801 O830 2.410 . S
C802 Nd800 2.836 . S
C802 C803 1.498 . S
C802 O820 1.258 . S
C802 O821 1.239 . S
C803 C802 1.498 . S
C803 C804 1.366 . S
C803 C808 1.407 . S
C804 C803 1.366 . S
C804 C805 1.392 . S
C804 H832 0.930 . S
C805 C804 1.392 . S
C805 C806 1.398 . S
C805 H833 0.929 . S
C806 C805 1.398 . S
C806 C807 1.352 . S
C807 C806 1.352 . S
C807 C808 1.384 . S
C807 H834 0.930 . S
C808 C803 1.407 . S
C808 C807 1.384 . S
C808 H835 0.929 . S
C809 O822 1.241 . S
C809 O823 1.273 . S
C810 O824 1.251 . S
C810 O825 1.268 . S
C811 Nd801 2.836 . S
C811 C812 1.498 . S
C811 O826 1.258 . S
C811 O827 1.239 . S
C812 C811 1.498 . S
C812 C813 1.366 . S
C812 C817 1.407 . S
C813 C812 1.366 . S
C813 C814 1.392 . S
C813 H836 0.930 . S
C814 C813 1.392 . S
C814 C815 1.398 . S
C814 H837 0.929 . S
C815 C814 1.398 . S
C815 C816 1.352 . S
C816 C815 1.352 . S
C816 C817 1.384 . S
C816 H838 0.930 . S
C817 C812 1.407 . S
C817 C816 1.384 . S
C817 H839 0.929 . S
C818 O828 1.241 . S
C818 O829 1.273 . S
C819 O830 1.251 . S
C819 O831 1.268 . S
O820 Nd800 2.500 . S
O820 C802 1.258 . S
O821 Nd800 2.492 . S
O821 C802 1.239 . S
O822 Nd800 2.487 . S
O822 C809 1.241 . S
O823 Nd800 2.682 . S
O823 Nd801 2.414 . S
O823 C809 1.273 . S
O824 Nd800 2.410 . S
O824 C810 1.251 . S
O825 Nd801 2.424 . S
O825 C810 1.268 . S
O826 Nd801 2.500 . S
O826 C811 1.258 . S
O827 Nd801 2.492 . S
O827 C811 1.239 . S
O828 Nd801 2.487 . S
O828 C818 1.241 . S
O829 Nd800 2.414 . S
O829 Nd801 2.682 . S
O829 C818 1.273 . S
O830 Nd801 2.410 . S
O830 C819 1.251 . S
O831 Nd800 2.424 . S
O831 C819 1.268 . S
H832 C804 0.930 . S
H833 C805 0.929 . S
H834 C807 0.930 . S
H835 C808 0.929 . S
H836 C813 0.930 . S
H837 C814 0.929 . S
H838 C816 0.930 . S
H839 C817 0.929 . S
Nd840 C842 2.836 . S
Nd840 O860 2.500 . S
Nd840 O861 2.492 1_545 S
Nd840 O862 2.487 1_545 S
Nd840 O863 2.682 1_545 S
Nd840 O864 2.410 1_545 S
Nd840 O869 2.414 . S
Nd840 O871 2.424 . S
Nd841 C851 2.836 . S
Nd841 O863 2.414 1_545 S
Nd841 O865 2.429 . S
Nd841 O866 2.500 1_545 S
Nd841 O867 2.492 . S
Nd841 O868 2.487 . S
Nd841 O869 2.682 . S
Nd841 O870 2.410 . S
C842 Nd840 2.836 . S
C842 C843 1.498 . S
C842 O860 1.258 . S
C842 O861 1.239 1_545 S
C843 C842 1.498 . S
C843 C844 1.366 . S
C843 C848 1.407 1_545 S
C844 C843 1.366 . S
C844 C845 1.392 . S
C844 H872 0.930 . S
C845 C844 1.392 . S
C845 C846 1.398 . S
C845 H873 0.929 . S
C846 C845 1.398 . S
C846 C847 1.352 1_545 S
C847 C846 1.352 1_565 S
C847 C848 1.384 . S
C847 H874 0.930 . S
C848 C843 1.407 1_565 S
C848 C847 1.384 . S
C848 H875 0.929 . S
C849 O862 1.241 . S
C849 O863 1.273 . S
C850 O864 1.251 . S
C850 O865 1.262 1_565 S
C851 Nd841 2.836 . S
C851 C852 1.498 . S
C851 O866 1.258 1_545 S
C851 O867 1.239 . S
C852 C851 1.498 . S
C852 C853 1.366 1_545 S
C852 C857 1.407 . S
C853 C852 1.366 1_565 S
C853 C854 1.392 . S
C853 H876 0.930 . S
C854 C853 1.392 . S
C854 C855 1.398 1_565 S
C854 H877 0.929 . S
C855 C854 1.398 1_545 S
C855 C856 1.352 . S
C856 C855 1.352 . S
C856 C857 1.384 . S
C856 H878 0.930 . S
C857 C852 1.407 . S
C857 C856 1.384 . S
C857 H879 0.929 . S
C858 O868 1.241 . S
C858 O869 1.273 . S
C859 O870 1.251 . S
C859 O871 1.268 . S
O860 Nd840 2.500 . S
O860 C842 1.258 . S
O861 Nd840 2.492 1_565 S
O861 C842 1.239 1_565 S
O862 Nd840 2.487 1_565 S
O862 C849 1.241 . S
O863 Nd840 2.682 1_565 S
O863 Nd841 2.414 1_565 S
O863 C849 1.273 . S
O864 Nd840 2.410 1_565 S
O864 C850 1.251 . S
O865 Nd841 2.429 . S
O865 C850 1.262 1_545 S
O866 Nd841 2.500 1_565 S
O866 C851 1.258 1_565 S
O867 Nd841 2.492 . S
O867 C851 1.239 . S
O868 Nd841 2.487 . S
O868 C858 1.241 . S
O869 Nd840 2.414 . S
O869 Nd841 2.682 . S
O869 C858 1.273 . S
O870 Nd841 2.410 . S
O870 C859 1.251 . S
O871 Nd840 2.424 . S
O871 C859 1.268 . S
H872 C844 0.930 . S
H873 C845 0.929 . S
H874 C847 0.930 . S
H875 C848 0.929 . S
H876 C853 0.930 . S
H877 C854 0.929 . S
H878 C856 0.930 . S
H879 C857 0.929 . S
Nd880 C882 2.836 . S
Nd880 O900 2.500 . S
Nd880 O901 2.492 1_545 S
Nd880 O902 2.487 1_545 S
Nd880 O903 2.682 1_545 S
Nd880 O904 2.410 1_545 S
Nd880 O909 2.414 . S
Nd880 O911 2.424 . S
Nd881 C891 2.836 . S
Nd881 O903 2.414 1_545 S
Nd881 O905 2.429 . S
Nd881 O906 2.500 1_545 S
Nd881 O907 2.492 . S
Nd881 O908 2.487 . S
Nd881 O909 2.682 . S
Nd881 O910 2.410 . S
C882 Nd880 2.836 . S
C882 C883 1.498 . S
C882 O900 1.258 . S
C882 O901 1.239 1_545 S
C883 C882 1.498 . S
C883 C884 1.366 . S
C883 C888 1.407 1_545 S
C884 C883 1.366 . S
C884 C885 1.392 . S
C884 H912 0.930 . S
C885 C884 1.392 . S
C885 C886 1.398 . S
C885 H913 0.929 . S
C886 C885 1.398 . S
C886 C887 1.352 1_545 S
C887 C886 1.352 1_565 S
C887 C888 1.384 . S
C887 H914 0.930 . S
C888 C883 1.407 1_565 S
C888 C887 1.384 . S
C888 H915 0.929 . S
C889 O902 1.241 . S
C889 O903 1.273 . S
C890 O904 1.251 . S
C890 O905 1.262 1_565 S
C891 Nd881 2.836 . S
C891 C892 1.498 . S
C891 O906 1.258 1_545 S
C891 O907 1.239 . S
C892 C891 1.498 . S
C892 C893 1.366 1_545 S
C892 C897 1.407 . S
C893 C892 1.366 1_565 S
C893 C894 1.392 . S
C893 H916 0.930 . S
C894 C893 1.392 . S
C894 C895 1.398 1_565 S
C894 H917 0.929 . S
C895 C894 1.398 1_545 S
C895 C896 1.352 . S
C896 C895 1.352 . S
C896 C897 1.384 . S
C896 H918 0.930 . S
C897 C892 1.407 . S
C897 C896 1.384 . S
C897 H919 0.929 . S
C898 O908 1.241 . S
C898 O909 1.273 . S
C899 O910 1.251 . S
C899 O911 1.268 . S
O900 Nd880 2.500 . S
O900 C882 1.258 . S
O901 Nd880 2.492 1_565 S
O901 C882 1.239 1_565 S
O902 Nd880 2.487 1_565 S
O902 C889 1.241 . S
O903 Nd880 2.682 1_565 S
O903 Nd881 2.414 1_565 S
O903 C889 1.273 . S
O904 Nd880 2.410 1_565 S
O904 C890 1.251 . S
O905 Nd881 2.429 . S
O905 C890 1.262 1_545 S
O906 Nd881 2.500 1_565 S
O906 C891 1.258 1_565 S
O907 Nd881 2.492 . S
O907 C891 1.239 . S
O908 Nd881 2.487 . S
O908 C898 1.241 . S
O909 Nd880 2.414 . S
O909 Nd881 2.682 . S
O909 C898 1.273 . S
O910 Nd881 2.410 . S
O910 C899 1.251 . S
O911 Nd880 2.424 . S
O911 C899 1.268 . S
H912 C884 0.930 . S
H913 C885 0.929 . S
H914 C887 0.930 . S
H915 C888 0.929 . S
H916 C893 0.930 . S
H917 C894 0.929 . S
H918 C896 0.930 . S
H919 C897 0.929 . S
Nd920 C922 2.836 . S
Nd920 O940 2.500 . S
Nd920 O941 2.492 . S
Nd920 O942 2.487 . S
Nd920 O943 2.682 . S
Nd920 O944 2.410 . S
Nd920 O949 2.414 . S
Nd920 O951 2.424 . S
Nd921 C931 2.836 . S
Nd921 O943 2.414 . S
Nd921 O945 2.424 . S
Nd921 O946 2.500 . S
Nd921 O947 2.492 . S
Nd921 O948 2.487 . S
Nd921 O949 2.682 . S
Nd921 O950 2.410 . S
C922 Nd920 2.836 . S
C922 C923 1.498 . S
C922 O940 1.258 . S
C922 O941 1.239 . S
C923 C922 1.498 . S
C923 C924 1.366 . S
C923 C928 1.407 . S
C924 C923 1.366 . S
C924 C925 1.392 . S
C924 H952 0.930 . S
C925 C924 1.392 . S
C925 C926 1.398 . S
C925 H953 0.929 . S
C926 C925 1.398 . S
C926 C927 1.352 . S
C927 C926 1.352 . S
C927 C928 1.384 . S
C927 H954 0.930 . S
C928 C923 1.407 . S
C928 C927 1.384 . S
C928 H955 0.929 . S
C929 O942 1.241 . S
C929 O943 1.273 . S
C930 O944 1.251 . S
C930 O945 1.268 . S
C931 Nd921 2.836 . S
C931 C932 1.498 . S
C931 O946 1.258 . S
C931 O947 1.239 . S
C932 C931 1.498 . S
C932 C933 1.366 . S
C932 C937 1.407 . S
C933 C932 1.366 . S
C933 C934 1.392 . S
C933 H956 0.930 . S
C934 C933 1.392 . S
C934 C935 1.398 . S
C934 H957 0.929 . S
C935 C934 1.398 . S
C935 C936 1.352 . S
C936 C935 1.352 . S
C936 C937 1.384 . S
C936 H958 0.930 . S
C937 C932 1.407 . S
C937 C936 1.384 . S
C937 H959 0.929 . S
C938 O948 1.241 . S
C938 O949 1.273 . S
C939 O950 1.251 . S
C939 O951 1.268 . S
O940 Nd920 2.500 . S
O940 C922 1.258 . S
O941 Nd920 2.492 . S
O941 C922 1.239 . S
O942 Nd920 2.487 . S
O942 C929 1.241 . S
O943 Nd920 2.682 . S
O943 Nd921 2.414 . S
O943 C929 1.273 . S
O944 Nd920 2.410 . S
O944 C930 1.251 . S
O945 Nd921 2.424 . S
O945 C930 1.268 . S
O946 Nd921 2.500 . S
O946 C931 1.258 . S
O947 Nd921 2.492 . S
O947 C931 1.239 . S
O948 Nd921 2.487 . S
O948 C938 1.241 . S
O949 Nd920 2.414 . S
O949 Nd921 2.682 . S
O949 C938 1.273 . S
O950 Nd921 2.410 . S
O950 C939 1.251 . S
O951 Nd920 2.424 . S
O951 C939 1.268 . S
H952 C924 0.930 . S
H953 C925 0.929 . S
H954 C927 0.930 . S
H955 C928 0.929 . S
H956 C933 0.930 . S
H957 C934 0.929 . S
H958 C936 0.930 . S
H959 C937 0.929 . S
Nd960 C962 2.836 . S
Nd960 O980 2.500 . S
Nd960 O981 2.492 . S
Nd960 O982 2.487 . S
Nd960 O983 2.682 . S
Nd960 O984 2.410 . S
Nd960 O989 2.414 . S
Nd960 O991 2.424 . S
Nd961 C971 2.836 . S
Nd961 O983 2.414 . S
Nd961 O985 2.424 . S
Nd961 O986 2.500 . S
Nd961 O987 2.492 . S
Nd961 O988 2.487 . S
Nd961 O989 2.682 . S
Nd961 O990 2.410 . S
C962 Nd960 2.836 . S
C962 C963 1.498 . S
C962 O980 1.258 . S
C962 O981 1.239 . S
C963 C962 1.498 . S
C963 C964 1.366 . S
C963 C968 1.407 . S
C964 C963 1.366 . S
C964 C965 1.392 . S
C964 H992 0.930 . S
C965 C964 1.392 . S
C965 C966 1.398 . S
C965 H993 0.929 . S
C966 C965 1.398 . S
C966 C967 1.352 . S
C967 C966 1.352 . S
C967 C968 1.384 . S
C967 H994 0.930 . S
C968 C963 1.407 . S
C968 C967 1.384 . S
C968 H995 0.929 . S
C969 O982 1.241 . S
C969 O983 1.273 . S
C970 O984 1.251 . S
C970 O985 1.268 . S
C971 Nd961 2.836 . S
C971 C972 1.498 . S
C971 O986 1.258 . S
C971 O987 1.239 . S
C972 C971 1.498 . S
C972 C973 1.366 . S
C972 C977 1.407 . S
C973 C972 1.366 . S
C973 C974 1.392 . S
C973 H996 0.930 . S
C974 C973 1.392 . S
C974 C975 1.398 . S
C974 H997 0.929 . S
C975 C974 1.398 . S
C975 C976 1.352 . S
C976 C975 1.352 . S
C976 C977 1.384 . S
C976 H998 0.930 . S
C977 C972 1.407 . S
C977 C976 1.384 . S
C977 H999 0.929 . S
C978 O988 1.241 . S
C978 O989 1.273 . S
C979 O990 1.251 . S
C979 O991 1.268 . S
O980 Nd960 2.500 . S
O980 C962 1.258 . S
O981 Nd960 2.492 . S
O981 C962 1.239 . S
O982 Nd960 2.487 . S
O982 C969 1.241 . S
O983 Nd960 2.682 . S
O983 Nd961 2.414 . S
O983 C969 1.273 . S
O984 Nd960 2.410 . S
O984 C970 1.251 . S
O985 Nd961 2.424 . S
O985 C970 1.268 . S
O986 Nd961 2.500 . S
O986 C971 1.258 . S
O987 Nd961 2.492 . S
O987 C971 1.239 . S
O988 Nd961 2.487 . S
O988 C978 1.241 . S
O989 Nd960 2.414 . S
O989 Nd961 2.682 . S
O989 C978 1.273 . S
O990 Nd961 2.410 . S
O990 C979 1.251 . S
O991 Nd960 2.424 . S
O991 C979 1.268 . S
H992 C964 0.930 . S
H993 C965 0.929 . S
H994 C967 0.930 . S
H995 C968 0.929 . S
H996 C973 0.930 . S
H997 C974 0.929 . S
H998 C976 0.930 . S
H999 C977 0.929 . S
Nd1000 C1002 2.836 . S
Nd1000 O1020 2.500 . S
Nd1000 O1021 2.492 . S
Nd1000 O1022 2.487 . S
Nd1000 O1023 2.682 . S
Nd1000 O1024 2.410 . S
Nd1000 O1029 2.414 . S
Nd1000 O1031 2.424 . S
Nd1001 C1011 2.836 . S
Nd1001 O1023 2.414 . S
Nd1001 O1025 2.424 . S
Nd1001 O1026 2.500 . S
Nd1001 O1027 2.492 . S
Nd1001 O1028 2.487 . S
Nd1001 O1029 2.682 . S
Nd1001 O1030 2.410 . S
C1002 Nd1000 2.836 . S
C1002 C1003 1.498 . S
C1002 O1020 1.258 . S
C1002 O1021 1.239 . S
C1003 C1002 1.498 . S
C1003 C1004 1.366 . S
C1003 C1008 1.407 . S
C1004 C1003 1.366 . S
C1004 C1005 1.392 . S
C1004 H1032 0.930 . S
C1005 C1004 1.392 . S
C1005 C1006 1.398 . S
C1005 H1033 0.929 . S
C1006 C1005 1.398 . S
C1006 C1007 1.352 . S
C1007 C1006 1.352 . S
C1007 C1008 1.384 . S
C1007 H1034 0.930 . S
C1008 C1003 1.407 . S
C1008 C1007 1.384 . S
C1008 H1035 0.929 . S
C1009 O1022 1.241 . S
C1009 O1023 1.273 . S
C1010 O1024 1.251 . S
C1010 O1025 1.268 . S
C1011 Nd1001 2.836 . S
C1011 C1012 1.498 . S
C1011 O1026 1.258 . S
C1011 O1027 1.239 . S
C1012 C1011 1.498 . S
C1012 C1013 1.366 . S
C1012 C1017 1.407 . S
C1013 C1012 1.366 . S
C1013 C1014 1.392 . S
C1013 H1036 0.930 . S
C1014 C1013 1.392 . S
C1014 C1015 1.398 . S
C1014 H1037 0.929 . S
C1015 C1014 1.398 . S
C1015 C1016 1.352 . S
C1016 C1015 1.352 . S
C1016 C1017 1.384 . S
C1016 H1038 0.930 . S
C1017 C1012 1.407 . S
C1017 C1016 1.384 . S
C1017 H1039 0.929 . S
C1018 O1028 1.241 . S
C1018 O1029 1.273 . S
C1019 O1030 1.251 . S
C1019 O1031 1.268 . S
O1020 Nd1000 2.500 . S
O1020 C1002 1.258 . S
O1021 Nd1000 2.492 . S
O1021 C1002 1.239 . S
O1022 Nd1000 2.487 . S
O1022 C1009 1.241 . S
O1023 Nd1000 2.682 . S
O1023 Nd1001 2.414 . S
O1023 C1009 1.273 . S
O1024 Nd1000 2.410 . S
O1024 C1010 1.251 . S
O1025 Nd1001 2.424 . S
O1025 C1010 1.268 . S
O1026 Nd1001 2.500 . S
O1026 C1011 1.258 . S
O1027 Nd1001 2.492 . S
O1027 C1011 1.239 . S
O1028 Nd1001 2.487 . S
O1028 C1018 1.241 . S
O1029 Nd1000 2.414 . S
O1029 Nd1001 2.682 . S
O1029 C1018 1.273 . S
O1030 Nd1001 2.410 . S
O1030 C1019 1.251 . S
O1031 Nd1000 2.424 . S
O1031 C1019 1.268 . S
H1032 C1004 0.930 . S
H1033 C1005 0.929 . S
H1034 C1007 0.930 . S
H1035 C1008 0.929 . S
H1036 C1013 0.930 . S
H1037 C1014 0.929 . S
H1038 C1016 0.930 . S
H1039 C1017 0.929 . S
Nd1040 C1042 2.836 . S
Nd1040 O1060 2.500 . S
Nd1040 O1061 2.492 . S
Nd1040 O1062 2.487 . S
Nd1040 O1063 2.682 . S
Nd1040 O1064 2.410 . S
Nd1040 O1069 2.414 . S
Nd1040 O1071 2.424 1_554 S
Nd1041 C1051 2.836 1_554 S
Nd1041 O1063 2.414 . S
Nd1041 O1065 2.424 . S
Nd1041 O1066 2.500 1_554 S
Nd1041 O1067 2.492 . S
Nd1041 O1068 2.487 . S
Nd1041 O1069 2.682 . S
Nd1041 O1070 2.410 1_554 S
C1042 Nd1040 2.836 . S
C1042 C1043 1.498 . S
C1042 O1060 1.258 . S
C1042 O1061 1.239 . S
C1043 C1042 1.498 . S
C1043 C1044 1.366 . S
C1043 C1048 1.407 . S
C1044 C1043 1.366 . S
C1044 C1045 1.392 . S
C1044 H1072 0.930 . S
C1045 C1044 1.392 . S
C1045 C1046 1.398 . S
C1045 H1073 0.929 . S
C1046 C1045 1.398 . S
C1046 C1047 1.352 . S
C1047 C1046 1.352 . S
C1047 C1048 1.384 . S
C1047 H1074 0.930 . S
C1048 C1043 1.407 . S
C1048 C1047 1.384 . S
C1048 H1075 0.929 . S
C1049 O1062 1.241 . S
C1049 O1063 1.273 . S
C1050 O1064 1.251 . S
C1050 O1065 1.268 . S
C1051 Nd1041 2.836 1_556 S
C1051 C1052 1.498 . S
C1051 O1066 1.258 . S
C1051 O1067 1.239 1_556 S
C1052 C1051 1.498 . S
C1052 C1053 1.366 . S
C1052 C1057 1.407 . S
C1053 C1052 1.366 . S
C1053 C1054 1.392 . S
C1053 H1076 0.930 . S
C1054 C1053 1.392 . S
C1054 C1055 1.398 . S
C1054 H1077 0.929 . S
C1055 C1054 1.398 . S
C1055 C1056 1.352 . S
C1056 C1055 1.352 . S
C1056 C1057 1.384 . S
C1056 H1078 0.930 . S
C1057 C1052 1.407 . S
C1057 C1056 1.384 . S
C1057 H1079 0.929 . S
C1058 O1068 1.241 . S
C1058 O1069 1.273 . S
C1059 O1070 1.251 . S
C1059 O1071 1.268 . S
O1060 Nd1040 2.500 . S
O1060 C1042 1.258 . S
O1061 Nd1040 2.492 . S
O1061 C1042 1.239 . S
O1062 Nd1040 2.487 . S
O1062 C1049 1.241 . S
O1063 Nd1040 2.682 . S
O1063 Nd1041 2.414 . S
O1063 C1049 1.273 . S
O1064 Nd1040 2.410 . S
O1064 C1050 1.251 . S
O1065 Nd1041 2.424 . S
O1065 C1050 1.268 . S
O1066 Nd1041 2.500 1_556 S
O1066 C1051 1.258 . S
O1067 Nd1041 2.492 . S
O1067 C1051 1.239 1_554 S
O1068 Nd1041 2.487 . S
O1068 C1058 1.241 . S
O1069 Nd1040 2.414 . S
O1069 Nd1041 2.682 . S
O1069 C1058 1.273 . S
O1070 Nd1041 2.410 1_556 S
O1070 C1059 1.251 . S
O1071 Nd1040 2.424 1_556 S
O1071 C1059 1.268 . S
H1072 C1044 0.930 . S
H1073 C1045 0.929 . S
H1074 C1047 0.930 . S
H1075 C1048 0.929 . S
H1076 C1053 0.930 . S
H1077 C1054 0.929 . S
H1078 C1056 0.930 . S
H1079 C1057 0.929 . S
Nd1080 C1082 2.836 . S
Nd1080 O1100 2.500 . S
Nd1080 O1101 2.492 . S
Nd1080 O1102 2.487 . S
Nd1080 O1103 2.682 . S
Nd1080 O1104 2.410 . S
Nd1080 O1109 2.414 . S
Nd1080 O1111 2.424 1_554 S
Nd1081 C1091 2.836 1_554 S
Nd1081 O1103 2.414 . S
Nd1081 O1105 2.424 . S
Nd1081 O1106 2.500 1_554 S
Nd1081 O1107 2.492 . S
Nd1081 O1108 2.487 . S
Nd1081 O1109 2.682 . S
Nd1081 O1110 2.410 1_554 S
C1082 Nd1080 2.836 . S
C1082 C1083 1.498 . S
C1082 O1100 1.258 . S
C1082 O1101 1.239 . S
C1083 C1082 1.498 . S
C1083 C1084 1.366 . S
C1083 C1088 1.407 . S
C1084 C1083 1.366 . S
C1084 C1085 1.392 . S
C1084 H1112 0.930 . S
C1085 C1084 1.392 . S
C1085 C1086 1.398 . S
C1085 H1113 0.929 . S
C1086 C1085 1.398 . S
C1086 C1087 1.352 . S
C1087 C1086 1.352 . S
C1087 C1088 1.384 . S
C1087 H1114 0.930 . S
C1088 C1083 1.407 . S
C1088 C1087 1.384 . S
C1088 H1115 0.929 . S
C1089 O1102 1.241 . S
C1089 O1103 1.273 . S
C1090 O1104 1.251 . S
C1090 O1105 1.268 . S
C1091 Nd1081 2.836 1_556 S
C1091 C1092 1.498 . S
C1091 O1106 1.258 . S
C1091 O1107 1.239 1_556 S
C1092 C1091 1.498 . S
C1092 C1093 1.366 . S
C1092 C1097 1.407 . S
C1093 C1092 1.366 . S
C1093 C1094 1.392 . S
C1093 H1116 0.930 . S
C1094 C1093 1.392 . S
C1094 C1095 1.398 . S
C1094 H1117 0.929 . S
C1095 C1094 1.398 . S
C1095 C1096 1.352 . S
C1096 C1095 1.352 . S
C1096 C1097 1.384 . S
C1096 H1118 0.930 . S
C1097 C1092 1.407 . S
C1097 C1096 1.384 . S
C1097 H1119 0.929 . S
C1098 O1108 1.241 . S
C1098 O1109 1.273 . S
C1099 O1110 1.251 . S
C1099 O1111 1.268 . S
O1100 Nd1080 2.500 . S
O1100 C1082 1.258 . S
O1101 Nd1080 2.492 . S
O1101 C1082 1.239 . S
O1102 Nd1080 2.487 . S
O1102 C1089 1.241 . S
O1103 Nd1080 2.682 . S
O1103 Nd1081 2.414 . S
O1103 C1089 1.273 . S
O1104 Nd1080 2.410 . S
O1104 C1090 1.251 . S
O1105 Nd1081 2.424 . S
O1105 C1090 1.268 . S
O1106 Nd1081 2.500 1_556 S
O1106 C1091 1.258 . S
O1107 Nd1081 2.492 . S
O1107 C1091 1.239 1_554 S
O1108 Nd1081 2.487 . S
O1108 C1098 1.241 . S
O1109 Nd1080 2.414 . S
O1109 Nd1081 2.682 . S
O1109 C1098 1.273 . S
O1110 Nd1081 2.410 1_556 S
O1110 C1099 1.251 . S
O1111 Nd1080 2.424 1_556 S
O1111 C1099 1.268 . S
H1112 C1084 0.930 . S
H1113 C1085 0.929 . S
H1114 C1087 0.930 . S
H1115 C1088 0.929 . S
H1116 C1093 0.930 . S
H1117 C1094 0.929 . S
H1118 C1096 0.930 . S
H1119 C1097 0.929 . S
Nd1120 C1122 2.836 . S
Nd1120 O1140 2.500 . S
Nd1120 O1141 2.492 . S
Nd1120 O1142 2.487 . S
Nd1120 O1143 2.682 . S
Nd1120 O1144 2.410 . S
Nd1120 O1149 2.414 . S
Nd1120 O1151 2.424 . S
Nd1121 C1131 2.836 . S
Nd1121 O1143 2.414 . S
Nd1121 O1145 2.424 . S
Nd1121 O1146 2.500 . S
Nd1121 O1147 2.492 . S
Nd1121 O1148 2.487 . S
Nd1121 O1149 2.682 . S
Nd1121 O1150 2.410 . S
C1122 Nd1120 2.836 . S
C1122 C1123 1.498 . S
C1122 O1140 1.258 . S
C1122 O1141 1.239 . S
C1123 C1122 1.498 . S
C1123 C1124 1.366 . S
C1123 C1128 1.407 . S
C1124 C1123 1.366 . S
C1124 C1125 1.392 . S
C1124 H1152 0.930 . S
C1125 C1124 1.392 . S
C1125 C1126 1.398 . S
C1125 H1153 0.929 . S
C1126 C1125 1.398 . S
C1126 C1127 1.352 . S
C1127 C1126 1.352 . S
C1127 C1128 1.384 . S
C1127 H1154 0.930 . S
C1128 C1123 1.407 . S
C1128 C1127 1.384 . S
C1128 H1155 0.929 . S
C1129 O1142 1.241 . S
C1129 O1143 1.273 . S
C1130 O1144 1.251 . S
C1130 O1145 1.268 . S
C1131 Nd1121 2.836 . S
C1131 C1132 1.498 . S
C1131 O1146 1.258 . S
C1131 O1147 1.239 . S
C1132 C1131 1.498 . S
C1132 C1133 1.366 . S
C1132 C1137 1.407 . S
C1133 C1132 1.366 . S
C1133 C1134 1.392 . S
C1133 H1156 0.930 . S
C1134 C1133 1.392 . S
C1134 C1135 1.398 . S
C1134 H1157 0.929 . S
C1135 C1134 1.398 . S
C1135 C1136 1.352 . S
C1136 C1135 1.352 . S
C1136 C1137 1.384 . S
C1136 H1158 0.930 . S
C1137 C1132 1.407 . S
C1137 C1136 1.384 . S
C1137 H1159 0.929 . S
C1138 O1148 1.241 . S
C1138 O1149 1.273 . S
C1139 O1150 1.251 . S
C1139 O1151 1.268 . S
O1140 Nd1120 2.500 . S
O1140 C1122 1.258 . S
O1141 Nd1120 2.492 . S
O1141 C1122 1.239 . S
O1142 Nd1120 2.487 . S
O1142 C1129 1.241 . S
O1143 Nd1120 2.682 . S
O1143 Nd1121 2.414 . S
O1143 C1129 1.273 . S
O1144 Nd1120 2.410 . S
O1144 C1130 1.251 . S
O1145 Nd1121 2.424 . S
O1145 C1130 1.268 . S
O1146 Nd1121 2.500 . S
O1146 C1131 1.258 . S
O1147 Nd1121 2.492 . S
O1147 C1131 1.239 . S
O1148 Nd1121 2.487 . S
O1148 C1138 1.241 . S
O1149 Nd1120 2.414 . S
O1149 Nd1121 2.682 . S
O1149 C1138 1.273 . S
O1150 Nd1121 2.410 . S
O1150 C1139 1.251 . S
O1151 Nd1120 2.424 . S
O1151 C1139 1.268 . S
H1152 C1124 0.930 . S
H1153 C1125 0.929 . S
H1154 C1127 0.930 . S
H1155 C1128 0.929 . S
H1156 C1133 0.930 . S
H1157 C1134 0.929 . S
H1158 C1136 0.930 . S
H1159 C1137 0.929 . S
Nd1160 C1162 2.836 . S
Nd1160 O1180 2.500 . S
Nd1160 O1181 2.492 . S
Nd1160 O1182 2.487 . S
Nd1160 O1183 2.682 . S
Nd1160 O1184 2.410 . S
Nd1160 O1189 2.414 . S
Nd1160 O1191 2.424 . S
Nd1161 C1171 2.836 . S
Nd1161 O1183 2.414 . S
Nd1161 O1185 2.424 . S
Nd1161 O1186 2.500 . S
Nd1161 O1187 2.492 . S
Nd1161 O1188 2.487 . S
Nd1161 O1189 2.682 . S
Nd1161 O1190 2.410 . S
C1162 Nd1160 2.836 . S
C1162 C1163 1.498 . S
C1162 O1180 1.258 . S
C1162 O1181 1.239 . S
C1163 C1162 1.498 . S
C1163 C1164 1.366 . S
C1163 C1168 1.407 . S
C1164 C1163 1.366 . S
C1164 C1165 1.392 . S
C1164 H1192 0.930 . S
C1165 C1164 1.392 . S
C1165 C1166 1.398 . S
C1165 H1193 0.929 . S
C1166 C1165 1.398 . S
C1166 C1167 1.352 . S
C1167 C1166 1.352 . S
C1167 C1168 1.384 . S
C1167 H1194 0.930 . S
C1168 C1163 1.407 . S
C1168 C1167 1.384 . S
C1168 H1195 0.929 . S
C1169 O1182 1.241 . S
C1169 O1183 1.273 . S
C1170 O1184 1.251 . S
C1170 O1185 1.268 . S
C1171 Nd1161 2.836 . S
C1171 C1172 1.498 . S
C1171 O1186 1.258 . S
C1171 O1187 1.239 . S
C1172 C1171 1.498 . S
C1172 C1173 1.366 . S
C1172 C1177 1.407 . S
C1173 C1172 1.366 . S
C1173 C1174 1.392 . S
C1173 H1196 0.930 . S
C1174 C1173 1.392 . S
C1174 C1175 1.398 . S
C1174 H1197 0.929 . S
C1175 C1174 1.398 . S
C1175 C1176 1.352 . S
C1176 C1175 1.352 . S
C1176 C1177 1.384 . S
C1176 H1198 0.930 . S
C1177 C1172 1.407 . S
C1177 C1176 1.384 . S
C1177 H1199 0.929 . S
C1178 O1188 1.241 . S
C1178 O1189 1.273 . S
C1179 O1190 1.251 . S
C1179 O1191 1.268 . S
O1180 Nd1160 2.500 . S
O1180 C1162 1.258 . S
O1181 Nd1160 2.492 . S
O1181 C1162 1.239 . S
O1182 Nd1160 2.487 . S
O1182 C1169 1.241 . S
O1183 Nd1160 2.682 . S
O1183 Nd1161 2.414 . S
O1183 C1169 1.273 . S
O1184 Nd1160 2.410 . S
O1184 C1170 1.251 . S
O1185 Nd1161 2.424 . S
O1185 C1170 1.268 . S
O1186 Nd1161 2.500 . S
O1186 C1171 1.258 . S
O1187 Nd1161 2.492 . S
O1187 C1171 1.239 . S
O1188 Nd1161 2.487 . S
O1188 C1178 1.241 . S
O1189 Nd1160 2.414 . S
O1189 Nd1161 2.682 . S
O1189 C1178 1.273 . S
O1190 Nd1161 2.410 . S
O1190 C1179 1.251 . S
O1191 Nd1160 2.424 . S
O1191 C1179 1.268 . S
H1192 C1164 0.930 . S
H1193 C1165 0.929 . S
H1194 C1167 0.930 . S
H1195 C1168 0.929 . S
H1196 C1173 0.930 . S
H1197 C1174 0.929 . S
H1198 C1176 0.930 . S
H1199 C1177 0.929 . S
Nd1200 C1202 2.836 1_556 S
Nd1200 O1220 2.500 1_556 S
Nd1200 O1221 2.492 . S
Nd1200 O1222 2.487 . S
Nd1200 O1223 2.682 . S
Nd1200 O1224 2.410 1_556 S
Nd1200 O1229 2.414 . S
Nd1200 O1231 2.424 . S
Nd1201 C1211 2.836 . S
Nd1201 O1223 2.414 . S
Nd1201 O1225 2.424 1_556 S
Nd1201 O1226 2.500 . S
Nd1201 O1227 2.492 . S
Nd1201 O1228 2.487 . S
Nd1201 O1229 2.682 . S
Nd1201 O1230 2.410 . S
C1202 Nd1200 2.836 1_554 S
C1202 C1203 1.498 . S
C1202 O1220 1.258 . S
C1202 O1221 1.239 1_554 S
C1203 C1202 1.498 . S
C1203 C1204 1.366 . S
C1203 C1208 1.407 . S
C1204 C1203 1.366 . S
C1204 C1205 1.392 . S
C1204 H1232 0.930 . S
C1205 C1204 1.392 . S
C1205 C1206 1.398 . S
C1205 H1233 0.929 . S
C1206 C1205 1.398 . S
C1206 C1207 1.352 . S
C1207 C1206 1.352 . S
C1207 C1208 1.384 . S
C1207 H1234 0.930 . S
C1208 C1203 1.407 . S
C1208 C1207 1.384 . S
C1208 H1235 0.929 . S
C1209 O1222 1.241 . S
C1209 O1223 1.273 . S
C1210 O1224 1.251 . S
C1210 O1225 1.268 . S
C1211 Nd1201 2.836 . S
C1211 C1212 1.498 . S
C1211 O1226 1.258 . S
C1211 O1227 1.239 . S
C1212 C1211 1.498 . S
C1212 C1213 1.366 . S
C1212 C1217 1.407 . S
C1213 C1212 1.366 . S
C1213 C1214 1.392 . S
C1213 H1236 0.930 . S
C1214 C1213 1.392 . S
C1214 C1215 1.398 . S
C1214 H1237 0.929 . S
C1215 C1214 1.398 . S
C1215 C1216 1.352 . S
C1216 C1215 1.352 . S
C1216 C1217 1.384 . S
C1216 H1238 0.930 . S
C1217 C1212 1.407 . S
C1217 C1216 1.384 . S
C1217 H1239 0.929 . S
C1218 O1228 1.241 . S
C1218 O1229 1.273 . S
C1219 O1230 1.251 . S
C1219 O1231 1.268 . S
O1220 Nd1200 2.500 1_554 S
O1220 C1202 1.258 . S
O1221 Nd1200 2.492 . S
O1221 C1202 1.239 1_556 S
O1222 Nd1200 2.487 . S
O1222 C1209 1.241 . S
O1223 Nd1200 2.682 . S
O1223 Nd1201 2.414 . S
O1223 C1209 1.273 . S
O1224 Nd1200 2.410 1_554 S
O1224 C1210 1.251 . S
O1225 Nd1201 2.424 1_554 S
O1225 C1210 1.268 . S
O1226 Nd1201 2.500 . S
O1226 C1211 1.258 . S
O1227 Nd1201 2.492 . S
O1227 C1211 1.239 . S
O1228 Nd1201 2.487 . S
O1228 C1218 1.241 . S
O1229 Nd1200 2.414 . S
O1229 Nd1201 2.682 . S
O1229 C1218 1.273 . S
O1230 Nd1201 2.410 . S
O1230 C1219 1.251 . S
O1231 Nd1200 2.424 . S
O1231 C1219 1.268 . S
H1232 C1204 0.930 . S
H1233 C1205 0.929 . S
H1234 C1207 0.930 . S
H1235 C1208 0.929 . S
H1236 C1213 0.930 . S
H1237 C1214 0.929 . S
H1238 C1216 0.930 . S
H1239 C1217 0.929 . S
Nd1240 C1242 2.836 1_556 S
Nd1240 O1260 2.500 1_556 S
Nd1240 O1261 2.492 . S
Nd1240 O1262 2.487 . S
Nd1240 O1263 2.682 . S
Nd1240 O1264 2.410 1_556 S
Nd1240 O1269 2.414 . S
Nd1240 O1271 2.424 . S
Nd1241 C1251 2.836 . S
Nd1241 O1263 2.414 . S
Nd1241 O1265 2.424 1_556 S
Nd1241 O1266 2.500 . S
Nd1241 O1267 2.492 . S
Nd1241 O1268 2.487 . S
Nd1241 O1269 2.682 . S
Nd1241 O1270 2.410 . S
C1242 Nd1240 2.836 1_554 S
C1242 C1243 1.498 . S
C1242 O1260 1.258 . S
C1242 O1261 1.239 1_554 S
C1243 C1242 1.498 . S
C1243 C1244 1.366 . S
C1243 C1248 1.407 . S
C1244 C1243 1.366 . S
C1244 C1245 1.392 . S
C1244 H1272 0.930 . S
C1245 C1244 1.392 . S
C1245 C1246 1.398 . S
C1245 H1273 0.929 . S
C1246 C1245 1.398 . S
C1246 C1247 1.352 . S
C1247 C1246 1.352 . S
C1247 C1248 1.384 . S
C1247 H1274 0.930 . S
C1248 C1243 1.407 . S
C1248 C1247 1.384 . S
C1248 H1275 0.929 . S
C1249 O1262 1.241 . S
C1249 O1263 1.273 . S
C1250 O1264 1.251 . S
C1250 O1265 1.268 . S
C1251 Nd1241 2.836 . S
C1251 C1252 1.498 . S
C1251 O1266 1.258 . S
C1251 O1267 1.239 . S
C1252 C1251 1.498 . S
C1252 C1253 1.366 . S
C1252 C1257 1.407 . S
C1253 C1252 1.366 . S
C1253 C1254 1.392 . S
C1253 H1276 0.930 . S
C1254 C1253 1.392 . S
C1254 C1255 1.398 . S
C1254 H1277 0.929 . S
C1255 C1254 1.398 . S
C1255 C1256 1.352 . S
C1256 C1255 1.352 . S
C1256 C1257 1.384 . S
C1256 H1278 0.930 . S
C1257 C1252 1.407 . S
C1257 C1256 1.384 . S
C1257 H1279 0.929 . S
C1258 O1268 1.241 . S
C1258 O1269 1.273 . S
C1259 O1270 1.251 . S
C1259 O1271 1.268 . S
O1260 Nd1240 2.500 1_554 S
O1260 C1242 1.258 . S
O1261 Nd1240 2.492 . S
O1261 C1242 1.239 1_556 S
O1262 Nd1240 2.487 . S
O1262 C1249 1.241 . S
O1263 Nd1240 2.682 . S
O1263 Nd1241 2.414 . S
O1263 C1249 1.273 . S
O1264 Nd1240 2.410 1_554 S
O1264 C1250 1.251 . S
O1265 Nd1241 2.424 1_554 S
O1265 C1250 1.268 . S
O1266 Nd1241 2.500 . S
O1266 C1251 1.258 . S
O1267 Nd1241 2.492 . S
O1267 C1251 1.239 . S
O1268 Nd1241 2.487 . S
O1268 C1258 1.241 . S
O1269 Nd1240 2.414 . S
O1269 Nd1241 2.682 . S
O1269 C1258 1.273 . S
O1270 Nd1241 2.410 . S
O1270 C1259 1.251 . S
O1271 Nd1240 2.424 . S
O1271 C1259 1.268 . S
H1272 C1244 0.930 . S
H1273 C1245 0.929 . S
H1274 C1247 0.930 . S
H1275 C1248 0.929 . S
H1276 C1253 0.930 . S
H1277 C1254 0.929 . S
H1278 C1256 0.930 . S
H1279 C1257 0.929 . S
C1280 C1281 1.349 . S
C1280 C1282 1.327 . S
C1280 H1305 0.950 . S
C1281 C1280 1.349 . S
C1281 C1297 1.349 . S
C1282 C1280 1.327 . S
C1282 C1301 1.429 . S
C1282 H1306 0.950 . S
C1283 C1300 1.574 . S
C1283 C1302 1.368 1_554 S
C1283 H1307 0.949 . S
H1284 C1288 0.949 . S
C1285 C1286 1.349 . S
C1285 C1287 1.327 . S
C1285 H1308 0.950 . S
C1286 C1285 1.349 . S
C1286 C1298 1.349 . S
C1287 C1285 1.327 . S
C1287 C1303 1.429 . S
C1287 H1309 0.950 . S
C1288 H1284 0.949 . S
C1288 C1296 1.574 . S
C1288 C1304 1.368 1_556 S
H1289 C1297 0.950 . S
H1290 C1295 0.953 . S
H1291 C1296 0.949 . S
H1292 C1298 0.950 . S
H1293 C1299 0.950 . S
H1294 C1300 0.949 . S
C1295 H1290 0.953 . S
C1295 C1297 1.327 . S
C1295 C1301 1.429 . S
C1296 C1288 1.574 . S
C1296 H1291 0.949 . S
C1296 C1302 1.368 . S
C1297 C1281 1.349 . S
C1297 H1289 0.950 . S
C1297 C1295 1.327 . S
C1298 C1286 1.349 . S
C1298 H1292 0.950 . S
C1298 C1299 1.327 . S
C1299 H1293 0.950 . S
C1299 C1298 1.327 . S
C1299 C1303 1.429 . S
C1300 C1283 1.574 . S
C1300 H1294 0.949 . S
C1300 C1304 1.368 . S
C1301 C1282 1.429 . S
C1301 C1295 1.429 . S
C1301 C1302 1.523 . S
C1302 C1283 1.368 1_556 S
C1302 C1296 1.368 . S
C1302 C1301 1.523 . S
C1303 C1287 1.429 . S
C1303 C1299 1.429 . S
C1303 C1304 1.523 . S
C1304 C1288 1.368 1_554 S
C1304 C1300 1.368 . S
C1304 C1303 1.523 . S
H1305 C1280 0.950 . S
H1306 C1282 0.950 . S
H1307 C1283 0.949 . S
H1308 C1285 0.950 . S
H1309 C1287 0.950 . S
C1310 C1311 1.349 1_554 S
C1310 C1312 1.327 . S
C1310 H1335 0.950 . S
C1311 C1310 1.349 1_556 S
C1311 C1327 1.349 1_545 S
C1312 C1310 1.327 . S
C1312 C1331 1.464 1_554 S
C1312 H1336 0.950 . S
C1313 C1330 1.574 1_455 S
C1313 C1332 1.354 1_565 S
C1313 H1337 0.949 . S
H1314 C1318 0.949 . S
C1315 C1316 1.349 1_556 S
C1315 C1317 1.327 . S
C1315 H1338 0.950 . S
C1316 C1315 1.349 1_554 S
C1316 C1328 1.349 1_565 S
C1317 C1315 1.327 . S
C1317 C1333 1.464 1_556 S
C1317 H1339 0.950 . S
C1318 H1314 0.949 . S
C1318 C1326 1.574 1_655 S
C1318 C1334 1.354 1_545 S
H1319 C1327 0.950 . S
H1320 C1325 0.950 . S
H1321 C1326 0.949 . S
H1322 C1328 0.950 . S
H1323 C1329 0.950 . S
H1324 C1330 0.949 . S
C1325 H1320 0.950 . S
C1325 C1327 1.327 . S
C1325 C1331 1.395 1_565 S
C1326 C1318 1.574 1_455 S
C1326 H1321 0.949 . S
C1326 C1332 1.382 1_554 S
C1327 C1311 1.349 1_565 S
C1327 H1319 0.950 . S
C1327 C1325 1.327 . S
C1328 C1316 1.349 1_545 S
C1328 H1322 0.950 . S
C1328 C1329 1.327 . S
C1329 H1323 0.950 . S
C1329 C1328 1.327 . S
C1329 C1333 1.395 1_545 S
C1330 C1313 1.574 1_655 S
C1330 H1324 0.949 . S
C1330 C1334 1.382 1_556 S
C1331 C1312 1.464 1_556 S
C1331 C1325 1.395 1_545 S
C1331 C1332 1.523 . S
C1332 C1313 1.354 1_545 S
C1332 C1326 1.382 1_556 S
C1332 C1331 1.523 . S
C1333 C1317 1.464 1_554 S
C1333 C1329 1.395 1_565 S
C1333 C1334 1.523 . S
C1334 C1318 1.354 1_565 S
C1334 C1330 1.382 1_554 S
C1334 C1333 1.523 . S
H1335 C1310 0.950 . S
H1336 C1312 0.950 . S
H1337 C1313 0.949 . S
H1338 C1315 0.950 . S
H1339 C1317 0.950 . S
C1340 C1341 1.349 . S
C1340 C1342 1.327 . S
C1340 H1365 0.950 . S
C1341 C1340 1.349 . S
C1341 C1357 1.349 1_545 S
C1342 C1340 1.327 . S
C1342 C1361 1.465 . S
C1342 H1366 0.950 . S
C1343 C1360 1.574 . S
C1343 C1362 1.353 1_565 S
C1343 H1367 0.949 . S
H1344 C1348 0.949 . S
C1345 C1346 1.349 . S
C1345 C1347 1.327 . S
C1345 H1368 0.950 . S
C1346 C1345 1.349 . S
C1346 C1358 1.349 1_565 S
C1347 C1345 1.327 . S
C1347 C1363 1.464 . S
C1347 H1369 0.950 . S
C1348 H1344 0.949 . S
C1348 C1356 1.574 . S
C1348 C1364 1.354 1_545 S
H1349 C1357 0.950 . S
H1350 C1355 0.950 . S
H1351 C1356 0.949 . S
H1352 C1358 0.950 . S
H1353 C1359 0.950 . S
H1354 C1360 0.949 . S
C1355 H1350 0.950 . S
C1355 C1357 1.327 . S
C1355 C1361 1.394 1_565 S
C1356 C1348 1.574 . S
C1356 H1351 0.949 . S
C1356 C1362 1.383 . S
C1357 C1341 1.349 1_565 S
C1357 H1349 0.950 . S
C1357 C1355 1.327 . S
C1358 C1346 1.349 1_545 S
C1358 H1352 0.950 . S
C1358 C1359 1.327 . S
C1359 H1353 0.950 . S
C1359 C1358 1.327 . S
C1359 C1363 1.395 1_545 S
C1360 C1343 1.574 . S
C1360 H1354 0.949 . S
C1360 C1364 1.383 . S
C1361 C1342 1.465 . S
C1361 C1355 1.394 1_545 S
C1361 C1362 1.523 . S
C1362 C1343 1.353 1_545 S
C1362 C1356 1.383 . S
C1362 C1361 1.523 . S
C1363 C1347 1.464 . S
C1363 C1359 1.395 1_565 S
C1363 C1364 1.523 . S
C1364 C1348 1.354 1_565 S
C1364 C1360 1.383 . S
C1364 C1363 1.523 . S
H1365 C1340 0.950 . S
H1366 C1342 0.950 . S
H1367 C1343 0.949 . S
H1368 C1345 0.950 . S
H1369 C1347 0.950 . S
C1370 C1371 1.349 . S
C1370 C1372 1.327 . S
C1370 H1395 0.950 . S
C1371 C1370 1.349 . S
C1371 C1387 1.349 . S
C1372 C1370 1.327 . S
C1372 C1391 1.429 . S
C1372 H1396 0.950 . S
C1373 C1390 1.574 1_455 S
C1373 C1392 1.368 . S
C1373 H1397 0.949 . S
H1374 C1378 0.949 . S
C1375 C1376 1.349 . S
C1375 C1377 1.327 . S
C1375 H1398 0.950 . S
C1376 C1375 1.349 . S
C1376 C1388 1.349 . S
C1377 C1375 1.327 . S
C1377 C1393 1.429 . S
C1377 H1399 0.950 . S
C1378 H1374 0.949 . S
C1378 C1386 1.574 1_655 S
C1378 C1394 1.368 . S
H1379 C1387 0.950 . S
H1380 C1385 0.950 . S
H1381 C1386 0.949 . S
H1382 C1388 0.950 . S
H1383 C1389 0.950 . S
H1384 C1390 0.949 . S
C1385 H1380 0.950 . S
C1385 C1387 1.327 . S
C1385 C1391 1.429 . S
C1386 C1378 1.574 1_455 S
C1386 H1381 0.949 . S
C1386 C1392 1.368 . S
C1387 C1371 1.349 . S
C1387 H1379 0.950 . S
C1387 C1385 1.327 . S
C1388 C1376 1.349 . S
C1388 H1382 0.950 . S
C1388 C1389 1.327 . S
C1389 H1383 0.950 . S
C1389 C1388 1.327 . S
C1389 C1393 1.429 . S
C1390 C1373 1.574 1_655 S
C1390 H1384 0.949 . S
C1390 C1394 1.368 . S
C1391 C1372 1.429 . S
C1391 C1385 1.429 . S
C1391 C1392 1.523 . S
C1392 C1373 1.368 . S
C1392 C1386 1.368 . S
C1392 C1391 1.523 . S
C1393 C1377 1.429 . S
C1393 C1389 1.429 . S
C1393 C1394 1.523 . S
C1394 C1378 1.368 . S
C1394 C1390 1.368 . S
C1394 C1393 1.523 . S
H1395 C1370 0.950 . S
H1396 C1372 0.950 . S
H1397 C1373 0.949 . S
H1398 C1375 0.950 . S
H1399 C1377 0.950 . S
C1400 C1401 1.349 1_554 S
C1400 C1402 1.327 . S
C1400 H1425 0.950 . S
C1401 C1400 1.349 1_556 S
C1401 C1417 1.349 . S
C1402 C1400 1.327 . S
C1402 C1421 1.429 1_554 S
C1402 H1426 0.950 . S
C1403 C1420 1.574 . S
C1403 C1422 1.368 . S
C1403 H1427 0.949 . S
H1404 C1408 0.949 . S
C1405 C1406 1.349 1_556 S
C1405 C1407 1.327 . S
C1405 H1428 0.950 . S
C1406 C1405 1.349 1_554 S
C1406 C1418 1.349 . S
C1407 C1405 1.327 . S
C1407 C1423 1.429 1_556 S
C1407 H1429 0.950 . S
C1408 H1404 0.949 . S
C1408 C1416 1.574 . S
C1408 C1424 1.368 . S
H1409 C1417 0.950 . S
H1410 C1415 0.950 . S
H1411 C1416 0.949 . S
H1412 C1418 0.950 . S
H1413 C1419 0.950 . S
H1414 C1420 0.949 . S
C1415 H1410 0.950 . S
C1415 C1417 1.327 . S
C1415 C1421 1.429 . S
C1416 C1408 1.574 . S
C1416 H1411 0.949 . S
C1416 C1422 1.368 1_554 S
C1417 C1401 1.349 . S
C1417 H1409 0.950 . S
C1417 C1415 1.327 . S
C1418 C1406 1.349 . S
C1418 H1412 0.950 . S
C1418 C1419 1.327 . S
C1419 H1413 0.950 . S
C1419 C1418 1.327 . S
C1419 C1423 1.429 . S
C1420 C1403 1.574 . S
C1420 H1414 0.949 . S
C1420 C1424 1.368 1_556 S
C1421 C1402 1.429 1_556 S
C1421 C1415 1.429 . S
C1421 C1422 1.523 . S
C1422 C1403 1.368 . S
C1422 C1416 1.368 1_556 S
C1422 C1421 1.523 . S
C1423 C1407 1.429 1_554 S
C1423 C1419 1.429 . S
C1423 C1424 1.523 . S
C1424 C1408 1.368 . S
C1424 C1420 1.368 1_554 S
C1424 C1423 1.523 . S
H1425 C1400 0.950 . S
H1426 C1402 0.950 . S
H1427 C1403 0.949 . S
H1428 C1405 0.950 . S
H1429 C1407 0.950 . S
C1430 C1431 1.349 1_545 S
C1430 C1432 1.327 . S
C1430 H1455 0.950 . S
C1431 C1430 1.349 1_565 S
C1431 C1447 1.349 . S
C1432 C1430 1.327 . S
C1432 C1451 1.397 1_545 S
C1432 H1456 0.950 . S
C1433 C1450 1.574 . S
C1433 C1452 1.382 . S
C1433 H1457 0.949 . S
H1434 C1438 0.949 . S
C1435 C1436 1.349 1_565 S
C1435 C1437 1.327 . S
C1435 H1458 0.950 . S
C1436 C1435 1.349 1_545 S
C1436 C1448 1.349 . S
C1437 C1435 1.327 . S
C1437 C1453 1.398 1_565 S
C1437 H1459 0.950 . S
C1438 H1434 0.949 . S
C1438 C1446 1.574 . S
C1438 C1454 1.381 . S
H1439 C1447 0.950 . S
H1440 C1445 0.950 . S
H1441 C1446 0.949 . S
H1442 C1448 0.950 . S
H1443 C1449 0.950 . S
H1444 C1450 0.949 . S
C1445 H1440 0.950 . S
C1445 C1447 1.327 . S
C1445 C1451 1.462 . S
C1446 C1438 1.574 . S
C1446 H1441 0.949 . S
C1446 C1452 1.355 1_545 S
C1447 C1431 1.349 . S
C1447 H1439 0.950 . S
C1447 C1445 1.327 . S
C1448 C1436 1.349 . S
C1448 H1442 0.950 . S
C1448 C1449 1.327 . S
C1449 H1443 0.950 . S
C1449 C1448 1.327 . S
C1449 C1453 1.461 . S
C1450 C1433 1.574 . S
C1450 H1444 0.949 . S
C1450 C1454 1.355 1_565 S
C1451 C1432 1.397 1_565 S
C1451 C1445 1.462 . S
C1451 C1452 1.523 . S
C1452 C1433 1.382 . S
C1452 C1446 1.355 1_565 S
C1452 C1451 1.523 . S
C1453 C1437 1.398 1_545 S
C1453 C1449 1.461 . S
C1453 C1454 1.523 . S
C1454 C1438 1.381 . S
C1454 C1450 1.355 1_545 S
C1454 C1453 1.523 . S
H1455 C1430 0.950 . S
H1456 C1432 0.950 . S
H1457 C1433 0.949 . S
H1458 C1435 0.950 . S
H1459 C1437 0.950 . S
C1460 C1461 1.349 . S
C1460 C1462 1.327 . S
C1460 H1485 0.950 . S
C1461 C1460 1.349 . S
C1461 C1477 1.349 . S
C1462 C1460 1.327 . S
C1462 C1481 1.429 . S
C1462 H1486 0.950 . S
C1463 C1480 1.574 1_655 S
C1463 C1482 1.368 . S
C1463 H1487 0.949 . S
H1464 C1468 0.949 . S
C1465 C1466 1.349 . S
C1465 C1467 1.327 . S
C1465 H1488 0.950 . S
C1466 C1465 1.349 . S
C1466 C1478 1.349 . S
C1467 C1465 1.327 . S
C1467 C1483 1.429 . S
C1467 H1489 0.950 . S
C1468 H1464 0.949 . S
C1468 C1476 1.574 1_455 S
C1468 C1484 1.368 . S
H1469 C1477 0.950 . S
H1470 C1475 0.950 . S
H1471 C1476 0.949 . S
H1472 C1478 0.950 . S
H1473 C1479 0.950 . S
H1474 C1480 0.949 . S
C1475 H1470 0.950 . S
C1475 C1477 1.327 . S
C1475 C1481 1.429 . S
C1476 C1468 1.574 1_655 S
C1476 H1471 0.949 . S
C1476 C1482 1.368 . S
C1477 C1461 1.349 . S
C1477 H1469 0.950 . S
C1477 C1475 1.327 . S
C1478 C1466 1.349 . S
C1478 H1472 0.950 . S
C1478 C1479 1.327 . S
C1479 H1473 0.950 . S
C1479 C1478 1.327 . S
C1479 C1483 1.429 . S
C1480 C1463 1.574 1_455 S
C1480 H1474 0.949 . S
C1480 C1484 1.368 . S
C1481 C1462 1.429 . S
C1481 C1475 1.429 . S
C1481 C1482 1.523 . S
C1482 C1463 1.368 . S
C1482 C1476 1.368 . S
C1482 C1481 1.523 . S
C1483 C1467 1.429 . S
C1483 C1479 1.429 . S
C1483 C1484 1.523 . S
C1484 C1468 1.368 . S
C1484 C1480 1.368 . S
C1484 C1483 1.523 . S
H1485 C1460 0.950 . S
H1486 C1462 0.950 . S
H1487 C1463 0.949 . S
H1488 C1465 0.950 . S
H1489 C1467 0.950 . S
C1490 C1491 1.349 . S
C1490 C1492 1.327 . S
C1490 H1515 0.950 . S
C1491 C1490 1.349 . S
C1491 C1507 1.349 . S
C1492 C1490 1.327 . S
C1492 C1511 1.429 . S
C1492 H1516 0.950 . S
C1493 C1510 1.574 . S
C1493 C1512 1.368 . S
C1493 H1517 0.949 . S
H1494 C1498 0.949 . S
C1495 C1496 1.349 . S
C1495 C1497 1.327 . S
C1495 H1518 0.950 . S
C1496 C1495 1.349 . S
C1496 C1508 1.349 . S
C1497 C1495 1.327 . S
C1497 C1513 1.429 . S
C1497 H1519 0.950 . S
C1498 H1494 0.949 . S
C1498 C1506 1.574 . S
C1498 C1514 1.368 . S
H1499 C1507 0.950 . S
H1500 C1505 0.950 . S
H1501 C1506 0.949 . S
H1502 C1508 0.950 . S
H1503 C1509 0.950 . S
H1504 C1510 0.949 . S
C1505 H1500 0.950 . S
C1505 C1507 1.327 . S
C1505 C1511 1.429 . S
C1506 C1498 1.574 . S
C1506 H1501 0.949 . S
C1506 C1512 1.368 . S
C1507 C1491 1.349 . S
C1507 H1499 0.950 . S
C1507 C1505 1.327 . S
C1508 C1496 1.349 . S
C1508 H1502 0.950 . S
C1508 C1509 1.327 . S
C1509 H1503 0.950 . S
C1509 C1508 1.327 . S
C1509 C1513 1.429 . S
C1510 C1493 1.574 . S
C1510 H1504 0.949 . S
C1510 C1514 1.368 . S
C1511 C1492 1.429 . S
C1511 C1505 1.429 . S
C1511 C1512 1.523 . S
C1512 C1493 1.368 . S
C1512 C1506 1.368 . S
C1512 C1511 1.523 . S
C1513 C1497 1.429 . S
C1513 C1509 1.429 . S
C1513 C1514 1.523 . S
C1514 C1498 1.368 . S
C1514 C1510 1.368 . S
C1514 C1513 1.523 . S
H1515 C1490 0.950 . S
H1516 C1492 0.950 . S
H1517 C1493 0.949 . S
H1518 C1495 0.950 . S
H1519 C1497 0.950 . S
C1520 C1521 1.349 . S
C1520 C1522 1.327 . S
C1520 H1545 0.950 . S
C1521 C1520 1.349 . S
C1521 C1537 1.349 . S
C1522 C1520 1.327 . S
C1522 C1541 1.429 . S
C1522 H1546 0.950 . S
C1523 C1540 1.574 1_655 S
C1523 C1542 1.368 . S
C1523 H1547 0.949 . S
H1524 C1528 0.949 . S
C1525 C1526 1.349 . S
C1525 C1527 1.327 . S
C1525 H1548 0.950 . S
C1526 C1525 1.349 . S
C1526 C1538 1.349 . S
C1527 C1525 1.327 . S
C1527 C1543 1.429 . S
C1527 H1549 0.950 . S
C1528 H1524 0.949 . S
C1528 C1536 1.574 1_455 S
C1528 C1544 1.368 . S
H1529 C1537 0.950 . S
H1530 C1535 0.950 . S
H1531 C1536 0.949 . S
H1532 C1538 0.950 . S
H1533 C1539 0.950 . S
H1534 C1540 0.949 . S
C1535 H1530 0.950 . S
C1535 C1537 1.327 . S
C1535 C1541 1.429 . S
C1536 C1528 1.574 1_655 S
C1536 H1531 0.949 . S
C1536 C1542 1.368 . S
C1537 C1521 1.349 . S
C1537 H1529 0.950 . S
C1537 C1535 1.327 . S
C1538 C1526 1.349 . S
C1538 H1532 0.950 . S
C1538 C1539 1.327 . S
C1539 H1533 0.950 . S
C1539 C1538 1.327 . S
C1539 C1543 1.429 . S
C1540 C1523 1.574 1_455 S
C1540 H1534 0.949 . S
C1540 C1544 1.368 . S
C1541 C1522 1.429 . S
C1541 C1535 1.429 . S
C1541 C1542 1.523 . S
C1542 C1523 1.368 . S
C1542 C1536 1.368 . S
C1542 C1541 1.523 . S
C1543 C1527 1.429 . S
C1543 C1539 1.429 . S
C1543 C1544 1.523 . S
C1544 C1528 1.368 . S
C1544 C1540 1.368 . S
C1544 C1543 1.523 . S
H1545 C1520 0.950 . S
H1546 C1522 0.950 . S
H1547 C1523 0.949 . S
H1548 C1525 0.950 . S
H1549 C1527 0.950 . S
C1550 C1551 1.349 . S
C1550 C1552 1.327 . S
C1550 H1575 0.950 . S
C1551 C1550 1.349 . S
C1551 C1567 1.349 . S
C1552 C1550 1.327 . S
C1552 C1571 1.429 . S
C1552 H1576 0.950 . S
C1553 C1570 1.574 . S
C1553 C1572 1.368 . S
C1553 H1577 0.949 . S
H1554 C1558 0.949 . S
C1555 C1556 1.349 . S
C1555 C1557 1.327 . S
C1555 H1578 0.950 . S
C1556 C1555 1.349 . S
C1556 C1568 1.349 . S
C1557 C1555 1.327 . S
C1557 C1573 1.429 . S
C1557 H1579 0.950 . S
C1558 H1554 0.949 . S
C1558 C1566 1.574 . S
C1558 C1574 1.368 . S
H1559 C1567 0.950 . S
H1560 C1565 0.950 . S
H1561 C1566 0.949 . S
H1562 C1568 0.950 . S
H1563 C1569 0.950 . S
H1564 C1570 0.949 . S
C1565 H1560 0.950 . S
C1565 C1567 1.327 . S
C1565 C1571 1.429 . S
C1566 C1558 1.574 . S
C1566 H1561 0.949 . S
C1566 C1572 1.368 . S
C1567 C1551 1.349 . S
C1567 H1559 0.950 . S
C1567 C1565 1.327 . S
C1568 C1556 1.349 . S
C1568 H1562 0.950 . S
C1568 C1569 1.327 . S
C1569 H1563 0.950 . S
C1569 C1568 1.327 . S
C1569 C1573 1.429 . S
C1570 C1553 1.574 . S
C1570 H1564 0.949 . S
C1570 C1574 1.368 . S
C1571 C1552 1.429 . S
C1571 C1565 1.429 . S
C1571 C1572 1.523 . S
C1572 C1553 1.368 . S
C1572 C1566 1.368 . S
C1572 C1571 1.523 . S
C1573 C1557 1.429 . S
C1573 C1569 1.429 . S
C1573 C1574 1.523 . S
C1574 C1558 1.368 . S
C1574 C1570 1.368 . S
C1574 C1573 1.523 . S
H1575 C1550 0.950 . S
H1576 C1552 0.950 . S
H1577 C1553 0.949 . S
H1578 C1555 0.950 . S
H1579 C1557 0.950 . S
C1580 C1581 1.349 . S
C1580 C1582 1.327 . S
C1580 H1605 0.950 . S
C1581 C1580 1.349 . S
C1581 C1597 1.349 . S
C1582 C1580 1.327 . S
C1582 C1601 1.429 . S
C1582 H1606 0.950 . S
C1583 C1600 1.574 . S
C1583 C1602 1.368 . S
C1583 H1607 0.949 . S
H1584 C1588 0.949 . S
C1585 C1586 1.349 . S
C1585 C1587 1.327 . S
C1585 H1608 0.950 . S
C1586 C1585 1.349 . S
C1586 C1598 1.349 . S
C1587 C1585 1.327 . S
C1587 C1603 1.429 . S
C1587 H1609 0.950 . S
C1588 H1584 0.949 . S
C1588 C1596 1.574 . S
C1588 C1604 1.368 . S
H1589 C1597 0.950 . S
H1590 C1595 0.950 . S
H1591 C1596 0.949 . S
H1592 C1598 0.950 . S
H1593 C1599 0.950 . S
H1594 C1600 0.949 . S
C1595 H1590 0.950 . S
C1595 C1597 1.327 . S
C1595 C1601 1.429 . S
C1596 C1588 1.574 . S
C1596 H1591 0.949 . S
C1596 C1602 1.368 . S
C1597 C1581 1.349 . S
C1597 H1589 0.950 . S
C1597 C1595 1.327 . S
C1598 C1586 1.349 . S
C1598 H1592 0.950 . S
C1598 C1599 1.327 . S
C1599 H1593 0.950 . S
C1599 C1598 1.327 . S
C1599 C1603 1.429 . S
C1600 C1583 1.574 . S
C1600 H1594 0.949 . S
C1600 C1604 1.368 . S
C1601 C1582 1.429 . S
C1601 C1595 1.429 . S
C1601 C1602 1.523 . S
C1602 C1583 1.368 . S
C1602 C1596 1.368 . S
C1602 C1601 1.523 . S
C1603 C1587 1.429 . S
C1603 C1599 1.429 . S
C1603 C1604 1.523 . S
C1604 C1588 1.368 . S
C1604 C1600 1.368 . S
C1604 C1603 1.523 . S
H1605 C1580 0.950 . S
H1606 C1582 0.950 . S
H1607 C1583 0.949 . S
H1608 C1585 0.950 . S
H1609 C1587 0.950 . S
C1610 C1611 1.349 . S
C1610 C1612 1.327 . S
C1610 H1635 0.950 . S
C1611 C1610 1.349 . S
C1611 C1627 1.349 . S
C1612 C1610 1.327 . S
C1612 C1631 1.429 . S
C1612 H1636 0.950 . S
C1613 C1630 1.574 . S
C1613 C1632 1.368 . S
C1613 H1637 0.949 . S
H1614 C1618 0.949 . S
C1615 C1616 1.349 . S
C1615 C1617 1.327 . S
C1615 H1638 0.950 . S
C1616 C1615 1.349 . S
C1616 C1628 1.349 . S
C1617 C1615 1.327 . S
C1617 C1633 1.429 . S
C1617 H1639 0.950 . S
C1618 H1614 0.949 . S
C1618 C1626 1.574 . S
C1618 C1634 1.368 . S
H1619 C1627 0.950 . S
H1620 C1625 0.950 . S
H1621 C1626 0.949 . S
H1622 C1628 0.950 . S
H1623 C1629 0.950 . S
H1624 C1630 0.949 . S
C1625 H1620 0.950 . S
C1625 C1627 1.327 . S
C1625 C1631 1.429 . S
C1626 C1618 1.574 . S
C1626 H1621 0.949 . S
C1626 C1632 1.368 . S
C1627 C1611 1.349 . S
C1627 H1619 0.950 . S
C1627 C1625 1.327 . S
C1628 C1616 1.349 . S
C1628 H1622 0.950 . S
C1628 C1629 1.327 . S
C1629 H1623 0.950 . S
C1629 C1628 1.327 . S
C1629 C1633 1.429 . S
C1630 C1613 1.574 . S
C1630 H1624 0.949 . S
C1630 C1634 1.368 . S
C1631 C1612 1.429 . S
C1631 C1625 1.429 . S
C1631 C1632 1.523 . S
C1632 C1613 1.368 . S
C1632 C1626 1.368 . S
C1632 C1631 1.523 . S
C1633 C1617 1.429 . S
C1633 C1629 1.429 . S
C1633 C1634 1.523 . S
C1634 C1618 1.368 . S
C1634 C1630 1.368 . S
C1634 C1633 1.523 . S
H1635 C1610 0.950 . S
H1636 C1612 0.950 . S
H1637 C1613 0.949 . S
H1638 C1615 0.950 . S
H1639 C1617 0.950 . S
C1640 C1641 1.349 . S
C1640 C1642 1.327 . S
C1640 H1665 0.950 . S
C1641 C1640 1.349 . S
C1641 C1657 1.349 1_565 S
C1642 C1640 1.327 . S
C1642 C1661 1.457 . S
C1642 H1666 0.950 . S
C1643 C1660 1.574 . S
C1643 C1662 1.357 1_545 S
C1643 H1667 0.949 . S
H1644 C1648 0.949 . S
C1645 C1646 1.349 . S
C1645 C1647 1.327 . S
C1645 H1668 0.950 . S
C1646 C1645 1.349 . S
C1646 C1658 1.349 1_545 S
C1647 C1645 1.327 . S
C1647 C1663 1.457 . S
C1647 H1669 0.950 . S
C1648 H1644 0.949 . S
C1648 C1656 1.574 . S
C1648 C1664 1.357 1_565 S
H1649 C1657 0.950 . S
H1650 C1655 0.950 . S
H1651 C1656 0.949 . S
H1652 C1658 0.950 . S
H1653 C1659 0.950 . S
H1654 C1660 0.949 . S
C1655 H1650 0.950 . S
C1655 C1657 1.327 . S
C1655 C1661 1.402 1_545 S
C1656 C1648 1.574 . S
C1656 H1651 0.949 . S
C1656 C1662 1.380 . S
C1657 C1641 1.349 1_545 S
C1657 H1649 0.950 . S
C1657 C1655 1.327 . S
C1658 C1646 1.349 1_565 S
C1658 H1652 0.950 . S
C1658 C1659 1.327 . S
C1659 H1653 0.950 . S
C1659 C1658 1.327 . S
C1659 C1663 1.402 1_565 S
C1660 C1643 1.574 . S
C1660 H1654 0.949 . S
C1660 C1664 1.380 . S
C1661 C1642 1.457 . S
C1661 C1655 1.402 1_565 S
C1661 C1662 1.523 . S
C1662 C1643 1.357 1_565 S
C1662 C1656 1.380 . S
C1662 C1661 1.523 . S
C1663 C1647 1.457 . S
C1663 C1659 1.402 1_545 S
C1663 C1664 1.523 . S
C1664 C1648 1.357 1_545 S
C1664 C1660 1.380 . S
C1664 C1663 1.523 . S
H1665 C1640 0.950 . S
H1666 C1642 0.950 . S
H1667 C1643 0.949 . S
H1668 C1645 0.950 . S
H1669 C1647 0.950 . S
C1670 C1671 1.349 . S
C1670 C1672 1.327 . S
C1670 H1695 0.950 . S
C1671 C1670 1.349 . S
C1671 C1687 1.349 . S
C1672 C1670 1.327 . S
C1672 C1691 1.429 . S
C1672 H1696 0.950 . S
C1673 C1690 1.574 . S
C1673 C1692 1.368 . S
C1673 H1697 0.949 . S
H1674 C1678 0.949 . S
C1675 C1676 1.349 . S
C1675 C1677 1.327 . S
C1675 H1698 0.950 . S
C1676 C1675 1.349 . S
C1676 C1688 1.349 . S
C1677 C1675 1.327 . S
C1677 C1693 1.429 . S
C1677 H1699 0.950 . S
C1678 H1674 0.949 . S
C1678 C1686 1.574 . S
C1678 C1694 1.368 . S
H1679 C1687 0.950 . S
H1680 C1685 0.950 . S
H1681 C1686 0.949 . S
H1682 C1688 0.950 . S
H1683 C1689 0.950 . S
H1684 C1690 0.949 . S
C1685 H1680 0.950 . S
C1685 C1687 1.327 . S
C1685 C1691 1.429 . S
C1686 C1678 1.574 . S
C1686 H1681 0.949 . S
C1686 C1692 1.368 . S
C1687 C1671 1.349 . S
C1687 H1679 0.950 . S
C1687 C1685 1.327 . S
C1688 C1676 1.349 . S
C1688 H1682 0.950 . S
C1688 C1689 1.327 . S
C1689 H1683 0.950 . S
C1689 C1688 1.327 . S
C1689 C1693 1.429 . S
C1690 C1673 1.574 . S
C1690 H1684 0.949 . S
C1690 C1694 1.368 . S
C1691 C1672 1.429 . S
C1691 C1685 1.429 . S
C1691 C1692 1.523 . S
C1692 C1673 1.368 . S
C1692 C1686 1.368 . S
C1692 C1691 1.523 . S
C1693 C1677 1.429 . S
C1693 C1689 1.429 . S
C1693 C1694 1.523 . S
C1694 C1678 1.368 . S
C1694 C1690 1.368 . S
C1694 C1693 1.523 . S
H1695 C1670 0.950 . S
H1696 C1672 0.950 . S
H1697 C1673 0.949 . S
H1698 C1675 0.950 . S
H1699 C1677 0.950 . S
C1700 C1701 1.349 . S
C1700 C1702 1.327 . S
C1700 H1725 0.950 . S
C1701 C1700 1.349 . S
C1701 C1717 1.349 . S
C1702 C1700 1.327 . S
C1702 C1721 1.429 . S
C1702 H1726 0.950 . S
C1703 C1720 1.574 . S
C1703 C1722 1.368 . S
C1703 H1727 0.949 . S
H1704 C1708 0.949 . S
C1705 C1706 1.349 . S
C1705 C1707 1.327 . S
C1705 H1728 0.950 . S
C1706 C1705 1.349 . S
C1706 C1718 1.349 . S
C1707 C1705 1.327 . S
C1707 C1723 1.429 . S
C1707 H1729 0.950 . S
C1708 H1704 0.949 . S
C1708 C1716 1.574 . S
C1708 C1724 1.368 . S
H1709 C1717 0.950 . S
H1710 C1715 0.950 . S
H1711 C1716 0.949 . S
H1712 C1718 0.950 . S
H1713 C1719 0.950 . S
H1714 C1720 0.949 . S
C1715 H1710 0.950 . S
C1715 C1717 1.327 . S
C1715 C1721 1.429 . S
C1716 C1708 1.574 . S
C1716 H1711 0.949 . S
C1716 C1722 1.368 . S
C1717 C1701 1.349 . S
C1717 H1709 0.950 . S
C1717 C1715 1.327 . S
C1718 C1706 1.349 . S
C1718 H1712 0.950 . S
C1718 C1719 1.327 . S
C1719 H1713 0.950 . S
C1719 C1718 1.327 . S
C1719 C1723 1.429 . S
C1720 C1703 1.574 . S
C1720 H1714 0.949 . S
C1720 C1724 1.368 . S
C1721 C1702 1.429 . S
C1721 C1715 1.429 . S
C1721 C1722 1.523 . S
C1722 C1703 1.368 . S
C1722 C1716 1.368 . S
C1722 C1721 1.523 . S
C1723 C1707 1.429 . S
C1723 C1719 1.429 . S
C1723 C1724 1.523 . S
C1724 C1708 1.368 . S
C1724 C1720 1.368 . S
C1724 C1723 1.523 . S
H1725 C1700 0.950 . S
H1726 C1702 0.950 . S
H1727 C1703 0.949 . S
H1728 C1705 0.950 . S
H1729 C1707 0.950 . S
C1730 C1731 1.349 . S
C1730 C1732 1.327 . S
C1730 H1755 0.950 . S
C1731 C1730 1.349 . S
C1731 C1747 1.349 . S
C1732 C1730 1.327 . S
C1732 C1751 1.429 . S
C1732 H1756 0.950 . S
C1733 C1750 1.574 . S
C1733 C1752 1.368 1_554 S
C1733 H1757 0.949 . S
H1734 C1738 0.949 . S
C1735 C1736 1.349 . S
C1735 C1737 1.327 . S
C1735 H1758 0.950 . S
C1736 C1735 1.349 . S
C1736 C1748 1.349 . S
C1737 C1735 1.327 . S
C1737 C1753 1.429 . S
C1737 H1759 0.950 . S
C1738 H1734 0.949 . S
C1738 C1746 1.574 . S
C1738 C1754 1.368 1_556 S
H1739 C1747 0.950 . S
H1740 C1745 0.950 . S
H1741 C1746 0.949 . S
H1742 C1748 0.950 . S
H1743 C1749 0.950 . S
H1744 C1750 0.949 . S
C1745 H1740 0.950 . S
C1745 C1747 1.327 . S
C1745 C1751 1.429 . S
C1746 C1738 1.574 . S
C1746 H1741 0.949 . S
C1746 C1752 1.368 . S
C1747 C1731 1.349 . S
C1747 H1739 0.950 . S
C1747 C1745 1.327 . S
C1748 C1736 1.349 . S
C1748 H1742 0.950 . S
C1748 C1749 1.327 . S
C1749 H1743 0.950 . S
C1749 C1748 1.327 . S
C1749 C1753 1.429 . S
C1750 C1733 1.574 . S
C1750 H1744 0.949 . S
C1750 C1754 1.368 . S
C1751 C1732 1.429 . S
C1751 C1745 1.429 . S
C1751 C1752 1.523 . S
C1752 C1733 1.368 1_556 S
C1752 C1746 1.368 . S
C1752 C1751 1.523 . S
C1753 C1737 1.429 . S
C1753 C1749 1.429 . S
C1753 C1754 1.523 . S
C1754 C1738 1.368 1_554 S
C1754 C1750 1.368 . S
C1754 C1753 1.523 . S
H1755 C1730 0.950 . S
H1756 C1732 0.950 . S
H1757 C1733 0.949 . S
H1758 C1735 0.950 . S
H1759 C1737 0.950 . S
C1760 C1761 1.349 . S
C1760 C1762 1.327 . S
C1760 H1785 0.950 . S
C1761 C1760 1.349 . S
C1761 C1777 1.349 . S
C1762 C1760 1.327 . S
C1762 C1781 1.429 . S
C1762 H1786 0.950 . S
C1763 C1780 1.574 . S
C1763 C1782 1.368 . S
C1763 H1787 0.949 . S
H1764 C1768 0.949 . S
C1765 C1766 1.349 . S
C1765 C1767 1.327 . S
C1765 H1788 0.950 . S
C1766 C1765 1.349 . S
C1766 C1778 1.349 . S
C1767 C1765 1.327 . S
C1767 C1783 1.429 . S
C1767 H1789 0.950 . S
C1768 H1764 0.949 . S
C1768 C1776 1.574 . S
C1768 C1784 1.368 . S
H1769 C1777 0.950 . S
H1770 C1775 0.950 . S
H1771 C1776 0.949 . S
H1772 C1778 0.950 . S
H1773 C1779 0.950 . S
H1774 C1780 0.949 . S
C1775 H1770 0.950 . S
C1775 C1777 1.327 . S
C1775 C1781 1.429 . S
C1776 C1768 1.574 . S
C1776 H1771 0.949 . S
C1776 C1782 1.368 . S
C1777 C1761 1.349 . S
C1777 H1769 0.950 . S
C1777 C1775 1.327 . S
C1778 C1766 1.349 . S
C1778 H1772 0.950 . S
C1778 C1779 1.327 . S
C1779 H1773 0.950 . S
C1779 C1778 1.327 . S
C1779 C1783 1.429 . S
C1780 C1763 1.574 . S
C1780 H1774 0.949 . S
C1780 C1784 1.368 . S
C1781 C1762 1.429 . S
C1781 C1775 1.429 . S
C1781 C1782 1.523 . S
C1782 C1763 1.368 . S
C1782 C1776 1.368 . S
C1782 C1781 1.523 . S
C1783 C1767 1.429 . S
C1783 C1779 1.429 . S
C1783 C1784 1.523 . S
C1784 C1768 1.368 . S
C1784 C1780 1.368 . S
C1784 C1783 1.523 . S
H1785 C1760 0.950 . S
H1786 C1762 0.950 . S
H1787 C1763 0.949 . S
H1788 C1765 0.950 . S
H1789 C1767 0.950 . S
C1790 C1791 1.349 . S
C1790 C1792 1.327 . S
C1790 H1815 0.950 . S
C1791 C1790 1.349 . S
C1791 C1807 1.349 1_565 S
C1792 C1790 1.327 . S
C1792 C1811 1.429 . S
C1792 H1816 0.950 . S
C1793 C1810 1.574 . S
C1793 C1812 1.368 1_545 S
C1793 H1817 0.949 . S
H1794 C1798 0.949 . S
C1795 C1796 1.349 1_545 S
C1795 C1797 1.327 . S
C1795 H1818 0.950 . S
C1796 C1795 1.349 1_565 S
C1796 C1808 1.349 . S
C1797 C1795 1.327 . S
C1797 C1813 1.429 1_545 S
C1797 H1819 0.950 . S
C1798 H1794 0.949 . S
C1798 C1806 1.574 . S
C1798 C1814 1.368 . S
H1799 C1807 0.950 . S
H1800 C1805 0.950 . S
H1801 C1806 0.949 . S
H1802 C1808 0.950 . S
H1803 C1809 0.950 . S
H1804 C1810 0.949 . S
C1805 H1800 0.950 . S
C1805 C1807 1.327 . S
C1805 C1811 1.429 1_545 S
C1806 C1798 1.574 . S
C1806 H1801 0.949 . S
C1806 C1812 1.368 . S
C1807 C1791 1.349 1_545 S
C1807 H1799 0.950 . S
C1807 C1805 1.327 . S
C1808 C1796 1.349 . S
C1808 H1802 0.950 . S
C1808 C1809 1.327 . S
C1809 H1803 0.950 . S
C1809 C1808 1.327 . S
C1809 C1813 1.429 . S
C1810 C1793 1.574 . S
C1810 H1804 0.949 . S
C1810 C1814 1.368 1_545 S
C1811 C1792 1.429 . S
C1811 C1805 1.429 1_565 S
C1811 C1812 1.523 . S
C1812 C1793 1.368 1_565 S
C1812 C1806 1.368 . S
C1812 C1811 1.523 . S
C1813 C1797 1.429 1_565 S
C1813 C1809 1.429 . S
C1813 C1814 1.523 . S
C1814 C1798 1.368 . S
C1814 C1810 1.368 1_565 S
C1814 C1813 1.523 . S
H1815 C1790 0.950 . S
H1816 C1792 0.950 . S
H1817 C1793 0.949 . S
H1818 C1795 0.950 . S
H1819 C1797 0.950 . S
C1820 C1821 1.349 1_545 S
C1820 C1822 1.327 . S
C1820 H1845 0.950 . S
C1821 C1820 1.349 1_565 S
C1821 C1837 1.349 . S
C1822 C1820 1.327 . S
C1822 C1841 1.429 1_545 S
C1822 H1846 0.950 . S
C1823 C1840 1.574 . S
C1823 C1842 1.368 . S
C1823 H1847 0.949 . S
H1824 C1828 0.949 . S
C1825 C1826 1.349 . S
C1825 C1827 1.327 . S
C1825 H1848 0.950 . S
C1826 C1825 1.349 . S
C1826 C1838 1.349 1_565 S
C1827 C1825 1.327 . S
C1827 C1843 1.429 . S
C1827 H1849 0.950 . S
C1828 H1824 0.949 . S
C1828 C1836 1.574 . S
C1828 C1844 1.368 1_545 S
H1829 C1837 0.950 . S
H1830 C1835 0.950 . S
H1831 C1836 0.949 . S
H1832 C1838 0.950 . S
H1833 C1839 0.950 . S
H1834 C1840 0.949 . S
C1835 H1830 0.950 . S
C1835 C1837 1.327 . S
C1835 C1841 1.429 . S
C1836 C1828 1.574 . S
C1836 H1831 0.949 . S
C1836 C1842 1.368 1_545 S
C1837 C1821 1.349 . S
C1837 H1829 0.950 . S
C1837 C1835 1.327 . S
C1838 C1826 1.349 1_545 S
C1838 H1832 0.950 . S
C1838 C1839 1.327 . S
C1839 H1833 0.950 . S
C1839 C1838 1.327 . S
C1839 C1843 1.429 1_545 S
C1840 C1823 1.574 . S
C1840 H1834 0.949 . S
C1840 C1844 1.368 . S
C1841 C1822 1.429 1_565 S
C1841 C1835 1.429 . S
C1841 C1842 1.523 . S
C1842 C1823 1.368 . S
C1842 C1836 1.368 1_565 S
C1842 C1841 1.523 . S
C1843 C1827 1.429 . S
C1843 C1839 1.429 1_565 S
C1843 C1844 1.523 . S
C1844 C1828 1.368 1_565 S
C1844 C1840 1.368 . S
C1844 C1843 1.523 . S
H1845 C1820 0.950 . S
H1846 C1822 0.950 . S
H1847 C1823 0.949 . S
H1848 C1825 0.950 . S
H1849 C1827 0.950 . S
C1850 C1851 1.349 . S
C1850 C1852 1.327 . S
C1850 H1875 0.950 . S
C1851 C1850 1.349 . S
C1851 C1867 1.349 . S
C1852 C1850 1.327 . S
C1852 C1871 1.429 . S
C1852 H1876 0.950 . S
C1853 C1870 1.574 . S
C1853 C1872 1.368 . S
C1853 H1877 0.949 . S
H1854 C1858 0.949 . S
C1855 C1856 1.349 . S
C1855 C1857 1.327 . S
C1855 H1878 0.950 . S
C1856 C1855 1.349 . S
C1856 C1868 1.349 . S
C1857 C1855 1.327 . S
C1857 C1873 1.429 . S
C1857 H1879 0.950 . S
C1858 H1854 0.949 . S
C1858 C1866 1.574 . S
C1858 C1874 1.368 . S
H1859 C1867 0.950 . S
H1860 C1865 0.950 . S
H1861 C1866 0.949 . S
H1862 C1868 0.950 . S
H1863 C1869 0.950 . S
H1864 C1870 0.949 . S
C1865 H1860 0.950 . S
C1865 C1867 1.327 . S
C1865 C1871 1.429 . S
C1866 C1858 1.574 . S
C1866 H1861 0.949 . S
C1866 C1872 1.368 . S
C1867 C1851 1.349 . S
C1867 H1859 0.950 . S
C1867 C1865 1.327 . S
C1868 C1856 1.349 . S
C1868 H1862 0.950 . S
C1868 C1869 1.327 . S
C1869 H1863 0.950 . S
C1869 C1868 1.327 . S
C1869 C1873 1.429 . S
C1870 C1853 1.574 . S
C1870 H1864 0.949 . S
C1870 C1874 1.368 . S
C1871 C1852 1.429 . S
C1871 C1865 1.429 . S
C1871 C1872 1.523 . S
C1872 C1853 1.368 . S
C1872 C1866 1.368 . S
C1872 C1871 1.523 . S
C1873 C1857 1.429 . S
C1873 C1869 1.429 . S
C1873 C1874 1.523 . S
C1874 C1858 1.368 . S
C1874 C1870 1.368 . S
C1874 C1873 1.523 . S
H1875 C1850 0.950 . S
H1876 C1852 0.950 . S
H1877 C1853 0.949 . S
H1878 C1855 0.950 . S
H1879 C1857 0.950 . S
C1880 C1881 1.349 . S
C1880 C1882 1.327 . S
C1880 H1905 0.950 . S
C1881 C1880 1.349 . S
C1881 C1897 1.349 . S
C1882 C1880 1.327 . S
C1882 C1901 1.429 . S
C1882 H1906 0.950 . S
C1883 C1900 1.574 . S
C1883 C1902 1.368 . S
C1883 H1907 0.949 . S
H1884 C1888 0.949 . S
C1885 C1886 1.349 . S
C1885 C1887 1.327 . S
C1885 H1908 0.950 . S
C1886 C1885 1.349 . S
C1886 C1898 1.349 . S
C1887 C1885 1.327 . S
C1887 C1903 1.429 . S
C1887 H1909 0.950 . S
C1888 H1884 0.949 . S
C1888 C1896 1.574 . S
C1888 C1904 1.368 . S
H1889 C1897 0.950 . S
H1890 C1895 0.950 . S
H1891 C1896 0.949 . S
H1892 C1898 0.950 . S
H1893 C1899 0.950 . S
H1894 C1900 0.949 . S
C1895 H1890 0.950 . S
C1895 C1897 1.327 . S
C1895 C1901 1.429 . S
C1896 C1888 1.574 . S
C1896 H1891 0.949 . S
C1896 C1902 1.368 . S
C1897 C1881 1.349 . S
C1897 H1889 0.950 . S
C1897 C1895 1.327 . S
C1898 C1886 1.349 . S
C1898 H1892 0.950 . S
C1898 C1899 1.327 . S
C1899 H1893 0.950 . S
C1899 C1898 1.327 . S
C1899 C1903 1.429 . S
C1900 C1883 1.574 . S
C1900 H1894 0.949 . S
C1900 C1904 1.368 . S
C1901 C1882 1.429 . S
C1901 C1895 1.429 . S
C1901 C1902 1.523 . S
C1902 C1883 1.368 . S
C1902 C1896 1.368 . S
C1902 C1901 1.523 . S
C1903 C1887 1.429 . S
C1903 C1899 1.429 . S
C1903 C1904 1.523 . S
C1904 C1888 1.368 . S
C1904 C1900 1.368 . S
C1904 C1903 1.523 . S
H1905 C1880 0.950 . S
H1906 C1882 0.950 . S
H1907 C1883 0.949 . S
H1908 C1885 0.950 . S
H1909 C1887 0.950 . S
C1910 C1911 1.349 . S
C1910 C1912 1.327 . S
C1910 H1935 0.950 . S
C1911 C1910 1.349 . S
C1911 C1927 1.349 1_545 S
C1912 C1910 1.327 . S
C1912 C1931 1.429 . S
C1912 H1936 0.950 . S
C1913 C1930 1.574 . S
C1913 C1932 1.368 1_565 S
C1913 H1937 0.949 . S
H1914 C1918 0.949 . S
C1915 C1916 1.349 1_565 S
C1915 C1917 1.327 . S
C1915 H1938 0.950 . S
C1916 C1915 1.349 1_545 S
C1916 C1928 1.349 . S
C1917 C1915 1.327 . S
C1917 C1933 1.429 1_565 S
C1917 H1939 0.950 . S
C1918 H1914 0.949 . S
C1918 C1926 1.574 . S
C1918 C1934 1.368 . S
H1919 C1927 0.950 . S
H1920 C1925 0.950 . S
H1921 C1926 0.949 . S
H1922 C1928 0.950 . S
H1923 C1929 0.950 . S
H1924 C1930 0.949 . S
C1925 H1920 0.950 . S
C1925 C1927 1.327 . S
C1925 C1931 1.429 1_565 S
C1926 C1918 1.574 . S
C1926 H1921 0.949 . S
C1926 C1932 1.368 . S
C1927 C1911 1.349 1_565 S
C1927 H1919 0.950 . S
C1927 C1925 1.327 . S
C1928 C1916 1.349 . S
C1928 H1922 0.950 . S
C1928 C1929 1.327 . S
C1929 H1923 0.950 . S
C1929 C1928 1.327 . S
C1929 C1933 1.429 . S
C1930 C1913 1.574 . S
C1930 H1924 0.949 . S
C1930 C1934 1.368 1_565 S
C1931 C1912 1.429 . S
C1931 C1925 1.429 1_545 S
C1931 C1932 1.523 . S
C1932 C1913 1.368 1_545 S
C1932 C1926 1.368 . S
C1932 C1931 1.523 . S
C1933 C1917 1.429 1_545 S
C1933 C1929 1.429 . S
C1933 C1934 1.523 . S
C1934 C1918 1.368 . S
C1934 C1930 1.368 1_545 S
C1934 C1933 1.523 . S
H1935 C1910 0.950 . S
H1936 C1912 0.950 . S
H1937 C1913 0.949 . S
H1938 C1915 0.950 . S
H1939 C1917 0.950 . S
C1940 C1941 1.349 . S
C1940 C1942 1.327 . S
C1940 H1965 0.950 . S
C1941 C1940 1.349 . S
C1941 C1957 1.349 1_545 S
C1942 C1940 1.327 . S
C1942 C1961 1.429 . S
C1942 H1966 0.950 . S
C1943 C1960 1.574 . S
C1943 C1962 1.368 1_565 S
C1943 H1967 0.949 . S
H1944 C1948 0.949 . S
C1945 C1946 1.349 1_565 S
C1945 C1947 1.327 . S
C1945 H1968 0.950 . S
C1946 C1945 1.349 1_545 S
C1946 C1958 1.349 . S
C1947 C1945 1.327 . S
C1947 C1963 1.429 1_565 S
C1947 H1969 0.950 . S
C1948 H1944 0.949 . S
C1948 C1956 1.574 . S
C1948 C1964 1.368 . S
H1949 C1957 0.950 . S
H1950 C1955 0.950 . S
H1951 C1956 0.949 . S
H1952 C1958 0.950 . S
H1953 C1959 0.950 . S
H1954 C1960 0.949 . S
C1955 H1950 0.950 . S
C1955 C1957 1.327 . S
C1955 C1961 1.429 1_565 S
C1956 C1948 1.574 . S
C1956 H1951 0.949 . S
C1956 C1962 1.368 . S
C1957 C1941 1.349 1_565 S
C1957 H1949 0.950 . S
C1957 C1955 1.327 . S
C1958 C1946 1.349 . S
C1958 H1952 0.950 . S
C1958 C1959 1.327 . S
C1959 H1953 0.950 . S
C1959 C1958 1.327 . S
C1959 C1963 1.429 . S
C1960 C1943 1.574 . S
C1960 H1954 0.949 . S
C1960 C1964 1.368 1_565 S
C1961 C1942 1.429 . S
C1961 C1955 1.429 1_545 S
C1961 C1962 1.523 . S
C1962 C1943 1.368 1_545 S
C1962 C1956 1.368 . S
C1962 C1961 1.523 . S
C1963 C1947 1.429 1_545 S
C1963 C1959 1.429 . S
C1963 C1964 1.523 . S
C1964 C1948 1.368 . S
C1964 C1960 1.368 1_545 S
C1964 C1963 1.523 . S
H1965 C1940 0.950 . S
H1966 C1942 0.950 . S
H1967 C1943 0.949 . S
H1968 C1945 0.950 . S
H1969 C1947 0.950 . S
C1970 C1971 1.349 . S
C1970 C1972 1.327 . S
C1970 H1995 0.950 . S
C1971 C1970 1.349 . S
C1971 C1987 1.349 . S
C1972 C1970 1.327 . S
C1972 C1991 1.429 . S
C1972 H1996 0.950 . S
C1973 C1990 1.574 . S
C1973 C1992 1.368 . S
C1973 H1997 0.949 . S
H1974 C1978 0.949 . S
C1975 C1976 1.349 . S
C1975 C1977 1.327 . S
C1975 H1998 0.950 . S
C1976 C1975 1.349 . S
C1976 C1988 1.349 . S
C1977 C1975 1.327 . S
C1977 C1993 1.429 . S
C1977 H1999 0.950 . S
C1978 H1974 0.949 . S
C1978 C1986 1.574 . S
C1978 C1994 1.368 . S
H1979 C1987 0.950 . S
H1980 C1985 0.950 . S
H1981 C1986 0.949 . S
H1982 C1988 0.950 . S
H1983 C1989 0.950 . S
H1984 C1990 0.949 . S
C1985 H1980 0.950 . S
C1985 C1987 1.327 . S
C1985 C1991 1.429 . S
C1986 C1978 1.574 . S
C1986 H1981 0.949 . S
C1986 C1992 1.368 . S
C1987 C1971 1.349 . S
C1987 H1979 0.950 . S
C1987 C1985 1.327 . S
C1988 C1976 1.349 . S
C1988 H1982 0.950 . S
C1988 C1989 1.327 . S
C1989 H1983 0.950 . S
C1989 C1988 1.327 . S
C1989 C1993 1.429 . S
C1990 C1973 1.574 . S
C1990 H1984 0.949 . S
C1990 C1994 1.368 . S
C1991 C1972 1.429 . S
C1991 C1985 1.429 . S
C1991 C1992 1.523 . S
C1992 C1973 1.368 . S
C1992 C1986 1.368 . S
C1992 C1991 1.523 . S
C1993 C1977 1.429 . S
C1993 C1989 1.429 . S
C1993 C1994 1.523 . S
C1994 C1978 1.368 . S
C1994 C1990 1.368 . S
C1994 C1993 1.523 . S
H1995 C1970 0.950 . S
H1996 C1972 0.950 . S
H1997 C1973 0.949 . S
H1998 C1975 0.950 . S
H1999 C1977 0.950 . S
C2000 C2001 1.349 . S
C2000 C2002 1.327 . S
C2000 H2025 0.950 . S
C2001 C2000 1.349 . S
C2001 C2017 1.349 . S
C2002 C2000 1.327 . S
C2002 C2021 1.429 . S
C2002 H2026 0.950 . S
C2003 C2020 1.574 . S
C2003 C2022 1.368 . S
C2003 H2027 0.949 . S
H2004 C2008 0.949 . S
C2005 C2006 1.349 . S
C2005 C2007 1.327 . S
C2005 H2028 0.950 . S
C2006 C2005 1.349 . S
C2006 C2018 1.349 . S
C2007 C2005 1.327 . S
C2007 C2023 1.429 . S
C2007 H2029 0.950 . S
C2008 H2004 0.949 . S
C2008 C2016 1.574 . S
C2008 C2024 1.368 . S
H2009 C2017 0.950 . S
H2010 C2015 0.950 . S
H2011 C2016 0.949 . S
H2012 C2018 0.950 . S
H2013 C2019 0.950 . S
H2014 C2020 0.949 . S
C2015 H2010 0.950 . S
C2015 C2017 1.327 . S
C2015 C2021 1.429 . S
C2016 C2008 1.574 . S
C2016 H2011 0.949 . S
C2016 C2022 1.368 . S
C2017 C2001 1.349 . S
C2017 H2009 0.950 . S
C2017 C2015 1.327 . S
C2018 C2006 1.349 . S
C2018 H2012 0.950 . S
C2018 C2019 1.327 . S
C2019 H2013 0.950 . S
C2019 C2018 1.327 . S
C2019 C2023 1.429 . S
C2020 C2003 1.574 . S
C2020 H2014 0.949 . S
C2020 C2024 1.368 . S
C2021 C2002 1.429 . S
C2021 C2015 1.429 . S
C2021 C2022 1.523 . S
C2022 C2003 1.368 . S
C2022 C2016 1.368 . S
C2022 C2021 1.523 . S
C2023 C2007 1.429 . S
C2023 C2019 1.429 . S
C2023 C2024 1.523 . S
C2024 C2008 1.368 . S
C2024 C2020 1.368 . S
C2024 C2023 1.523 . S
H2025 C2000 0.950 . S
H2026 C2002 0.950 . S
H2027 C2003 0.949 . S
H2028 C2005 0.950 . S
H2029 C2007 0.950 . S
C2030 C2031 1.349 . S
C2030 C2032 1.327 . S
C2030 H2055 0.950 . S
C2031 C2030 1.349 . S
C2031 C2047 1.349 . S
C2032 C2030 1.327 . S
C2032 C2051 1.429 . S
C2032 H2056 0.950 . S
C2033 C2050 1.574 . S
C2033 C2052 1.368 . S
C2033 H2057 0.949 . S
H2034 C2038 0.949 . S
C2035 C2036 1.349 . S
C2035 C2037 1.327 . S
C2035 H2058 0.950 . S
C2036 C2035 1.349 . S
C2036 C2048 1.349 . S
C2037 C2035 1.327 . S
C2037 C2053 1.429 . S
C2037 H2059 0.950 . S
C2038 H2034 0.949 . S
C2038 C2046 1.574 . S
C2038 C2054 1.368 . S
H2039 C2047 0.950 . S
H2040 C2045 0.950 . S
H2041 C2046 0.949 . S
H2042 C2048 0.950 . S
H2043 C2049 0.950 . S
H2044 C2050 0.949 . S
C2045 H2040 0.950 . S
C2045 C2047 1.327 . S
C2045 C2051 1.429 . S
C2046 C2038 1.574 . S
C2046 H2041 0.949 . S
C2046 C2052 1.368 . S
C2047 C2031 1.349 . S
C2047 H2039 0.950 . S
C2047 C2045 1.327 . S
C2048 C2036 1.349 . S
C2048 H2042 0.950 . S
C2048 C2049 1.327 . S
C2049 H2043 0.950 . S
C2049 C2048 1.327 . S
C2049 C2053 1.429 . S
C2050 C2033 1.574 . S
C2050 H2044 0.949 . S
C2050 C2054 1.368 . S
C2051 C2032 1.429 . S
C2051 C2045 1.429 . S
C2051 C2052 1.523 . S
C2052 C2033 1.368 . S
C2052 C2046 1.368 . S
C2052 C2051 1.523 . S
C2053 C2037 1.429 . S
C2053 C2049 1.429 . S
C2053 C2054 1.523 . S
C2054 C2038 1.368 . S
C2054 C2050 1.368 . S
C2054 C2053 1.523 . S
H2055 C2030 0.950 . S
H2056 C2032 0.950 . S
H2057 C2033 0.949 . S
H2058 C2035 0.950 . S
H2059 C2037 0.950 . S
C2060 C2061 1.349 . S
C2060 C2062 1.327 . S
C2060 H2085 0.950 . S
C2061 C2060 1.349 . S
C2061 C2077 1.349 . S
C2062 C2060 1.327 . S
C2062 C2081 1.429 . S
C2062 H2086 0.950 . S
C2063 C2080 1.574 . S
C2063 C2082 1.368 . S
C2063 H2087 0.949 . S
H2064 C2068 0.949 . S
C2065 C2066 1.349 . S
C2065 C2067 1.327 . S
C2065 H2088 0.950 . S
C2066 C2065 1.349 . S
C2066 C2078 1.349 . S
C2067 C2065 1.327 . S
C2067 C2083 1.429 . S
C2067 H2089 0.950 . S
C2068 H2064 0.949 . S
C2068 C2076 1.574 . S
C2068 C2084 1.368 . S
H2069 C2077 0.950 . S
H2070 C2075 0.950 . S
H2071 C2076 0.949 . S
H2072 C2078 0.950 . S
H2073 C2079 0.950 . S
H2074 C2080 0.949 . S
C2075 H2070 0.950 . S
C2075 C2077 1.327 . S
C2075 C2081 1.429 . S
C2076 C2068 1.574 . S
C2076 H2071 0.949 . S
C2076 C2082 1.368 . S
C2077 C2061 1.349 . S
C2077 H2069 0.950 . S
C2077 C2075 1.327 . S
C2078 C2066 1.349 . S
C2078 H2072 0.950 . S
C2078 C2079 1.327 . S
C2079 H2073 0.950 . S
C2079 C2078 1.327 . S
C2079 C2083 1.429 . S
C2080 C2063 1.574 . S
C2080 H2074 0.949 . S
C2080 C2084 1.368 . S
C2081 C2062 1.429 . S
C2081 C2075 1.429 . S
C2081 C2082 1.523 . S
C2082 C2063 1.368 . S
C2082 C2076 1.368 . S
C2082 C2081 1.523 . S
C2083 C2067 1.429 . S
C2083 C2079 1.429 . S
C2083 C2084 1.523 . S
C2084 C2068 1.368 . S
C2084 C2080 1.368 . S
C2084 C2083 1.523 . S
H2085 C2060 0.950 . S
H2086 C2062 0.950 . S
H2087 C2063 0.949 . S
H2088 C2065 0.950 . S
H2089 C2067 0.950 . S
C2090 C2091 1.349 . S
C2090 C2092 1.327 . S
C2090 H2115 0.950 . S
C2091 C2090 1.349 . S
C2091 C2107 1.349 . S
C2092 C2090 1.327 . S
C2092 C2111 1.429 . S
C2092 H2116 0.950 . S
C2093 C2110 1.574 . S
C2093 C2112 1.368 . S
C2093 H2117 0.949 . S
H2094 C2098 0.949 . S
C2095 C2096 1.349 . S
C2095 C2097 1.327 . S
C2095 H2118 0.950 . S
C2096 C2095 1.349 . S
C2096 C2108 1.349 . S
C2097 C2095 1.327 . S
C2097 C2113 1.429 . S
C2097 H2119 0.950 . S
C2098 H2094 0.949 . S
C2098 C2106 1.574 . S
C2098 C2114 1.368 . S
H2099 C2107 0.950 . S
H2100 C2105 0.950 . S
H2101 C2106 0.949 . S
H2102 C2108 0.950 . S
H2103 C2109 0.950 . S
H2104 C2110 0.949 . S
C2105 H2100 0.950 . S
C2105 C2107 1.327 . S
C2105 C2111 1.429 . S
C2106 C2098 1.574 . S
C2106 H2101 0.949 . S
C2106 C2112 1.368 . S
C2107 C2091 1.349 . S
C2107 H2099 0.950 . S
C2107 C2105 1.327 . S
C2108 C2096 1.349 . S
C2108 H2102 0.950 . S
C2108 C2109 1.327 . S
C2109 H2103 0.950 . S
C2109 C2108 1.327 . S
C2109 C2113 1.429 . S
C2110 C2093 1.574 . S
C2110 H2104 0.949 . S
C2110 C2114 1.368 . S
C2111 C2092 1.429 . S
C2111 C2105 1.429 . S
C2111 C2112 1.523 . S
C2112 C2093 1.368 . S
C2112 C2106 1.368 . S
C2112 C2111 1.523 . S
C2113 C2097 1.429 . S
C2113 C2109 1.429 . S
C2113 C2114 1.523 . S
C2114 C2098 1.368 . S
C2114 C2110 1.368 . S
C2114 C2113 1.523 . S
H2115 C2090 0.950 . S
H2116 C2092 0.950 . S
H2117 C2093 0.949 . S
H2118 C2095 0.950 . S
H2119 C2097 0.950 . S
C2120 C2121 1.349 . S
C2120 C2122 1.327 . S
C2120 H2145 0.950 . S
C2121 C2120 1.349 . S
C2121 C2137 1.349 . S
C2122 C2120 1.327 . S
C2122 C2141 1.429 . S
C2122 H2146 0.950 . S
C2123 C2140 1.574 . S
C2123 C2142 1.368 . S
C2123 H2147 0.949 . S
H2124 C2128 0.949 . S
C2125 C2126 1.349 . S
C2125 C2127 1.327 . S
C2125 H2148 0.950 . S
C2126 C2125 1.349 . S
C2126 C2138 1.349 . S
C2127 C2125 1.327 . S
C2127 C2143 1.429 . S
C2127 H2149 0.950 . S
C2128 H2124 0.949 . S
C2128 C2136 1.574 . S
C2128 C2144 1.368 . S
H2129 C2137 0.950 . S
H2130 C2135 0.950 . S
H2131 C2136 0.949 . S
H2132 C2138 0.950 . S
H2133 C2139 0.950 . S
H2134 C2140 0.949 . S
C2135 H2130 0.950 . S
C2135 C2137 1.327 . S
C2135 C2141 1.429 . S
C2136 C2128 1.574 . S
C2136 H2131 0.949 . S
C2136 C2142 1.368 . S
C2137 C2121 1.349 . S
C2137 H2129 0.950 . S
C2137 C2135 1.327 . S
C2138 C2126 1.349 . S
C2138 H2132 0.950 . S
C2138 C2139 1.327 . S
C2139 H2133 0.950 . S
C2139 C2138 1.327 . S
C2139 C2143 1.429 . S
C2140 C2123 1.574 . S
C2140 H2134 0.949 . S
C2140 C2144 1.368 . S
C2141 C2122 1.429 . S
C2141 C2135 1.429 . S
C2141 C2142 1.523 . S
C2142 C2123 1.368 . S
C2142 C2136 1.368 . S
C2142 C2141 1.523 . S
C2143 C2127 1.429 . S
C2143 C2139 1.429 . S
C2143 C2144 1.523 . S
C2144 C2128 1.368 . S
C2144 C2140 1.368 . S
C2144 C2143 1.523 . S
H2145 C2120 0.950 . S
H2146 C2122 0.950 . S
H2147 C2123 0.949 . S
H2148 C2125 0.950 . S
H2149 C2127 0.950 . S
C2150 C2151 1.349 . S
C2150 C2152 1.327 . S
C2150 H2175 0.950 . S
C2151 C2150 1.349 . S
C2151 C2167 1.349 . S
C2152 C2150 1.327 . S
C2152 C2171 1.429 . S
C2152 H2176 0.950 . S
C2153 C2170 1.574 . S
C2153 C2172 1.368 . S
C2153 H2177 0.949 . S
H2154 C2158 0.949 . S
C2155 C2156 1.349 . S
C2155 C2157 1.327 . S
C2155 H2178 0.950 . S
C2156 C2155 1.349 . S
C2156 C2168 1.349 . S
C2157 C2155 1.327 . S
C2157 C2173 1.429 . S
C2157 H2179 0.950 . S
C2158 H2154 0.949 . S
C2158 C2166 1.574 . S
C2158 C2174 1.368 . S
H2159 C2167 0.950 . S
H2160 C2165 0.950 . S
H2161 C2166 0.949 . S
H2162 C2168 0.950 . S
H2163 C2169 0.950 . S
H2164 C2170 0.949 . S
C2165 H2160 0.950 . S
C2165 C2167 1.327 . S
C2165 C2171 1.429 . S
C2166 C2158 1.574 . S
C2166 H2161 0.949 . S
C2166 C2172 1.368 . S
C2167 C2151 1.349 . S
C2167 H2159 0.950 . S
C2167 C2165 1.327 . S
C2168 C2156 1.349 . S
C2168 H2162 0.950 . S
C2168 C2169 1.327 . S
C2169 H2163 0.950 . S
C2169 C2168 1.327 . S
C2169 C2173 1.429 . S
C2170 C2153 1.574 . S
C2170 H2164 0.949 . S
C2170 C2174 1.368 . S
C2171 C2152 1.429 . S
C2171 C2165 1.429 . S
C2171 C2172 1.523 . S
C2172 C2153 1.368 . S
C2172 C2166 1.368 . S
C2172 C2171 1.523 . S
C2173 C2157 1.429 . S
C2173 C2169 1.429 . S
C2173 C2174 1.523 . S
C2174 C2158 1.368 . S
C2174 C2170 1.368 . S
C2174 C2173 1.523 . S
H2175 C2150 0.950 . S
H2176 C2152 0.950 . S
H2177 C2153 0.949 . S
H2178 C2155 0.950 . S
H2179 C2157 0.950 . S
C2180 C2181 1.349 . S
C2180 C2182 1.327 . S
C2180 H2205 0.950 . S
C2181 C2180 1.349 . S
C2181 C2197 1.349 . S
C2182 C2180 1.327 . S
C2182 C2201 1.429 . S
C2182 H2206 0.950 . S
C2183 C2200 1.574 . S
C2183 C2202 1.368 . S
C2183 H2207 0.949 . S
H2184 C2188 0.949 . S
C2185 C2186 1.349 . S
C2185 C2187 1.327 . S
C2185 H2208 0.950 . S
C2186 C2185 1.349 . S
C2186 C2198 1.349 . S
C2187 C2185 1.327 . S
C2187 C2203 1.429 . S
C2187 H2209 0.950 . S
C2188 H2184 0.949 . S
C2188 C2196 1.574 . S
C2188 C2204 1.368 . S
H2189 C2197 0.950 . S
H2190 C2195 0.950 . S
H2191 C2196 0.949 . S
H2192 C2198 0.950 . S
H2193 C2199 0.950 . S
H2194 C2200 0.949 . S
C2195 H2190 0.950 . S
C2195 C2197 1.327 . S
C2195 C2201 1.429 . S
C2196 C2188 1.574 . S
C2196 H2191 0.949 . S
C2196 C2202 1.368 . S
C2197 C2181 1.349 . S
C2197 H2189 0.950 . S
C2197 C2195 1.327 . S
C2198 C2186 1.349 . S
C2198 H2192 0.950 . S
C2198 C2199 1.327 . S
C2199 H2193 0.950 . S
C2199 C2198 1.327 . S
C2199 C2203 1.429 . S
C2200 C2183 1.574 . S
C2200 H2194 0.949 . S
C2200 C2204 1.368 . S
C2201 C2182 1.429 . S
C2201 C2195 1.429 . S
C2201 C2202 1.523 . S
C2202 C2183 1.368 . S
C2202 C2196 1.368 . S
C2202 C2201 1.523 . S
C2203 C2187 1.429 . S
C2203 C2199 1.429 . S
C2203 C2204 1.523 . S
C2204 C2188 1.368 . S
C2204 C2200 1.368 . S
C2204 C2203 1.523 . S
H2205 C2180 0.950 . S
H2206 C2182 0.950 . S
H2207 C2183 0.949 . S
H2208 C2185 0.950 . S
H2209 C2187 0.950 . S
C2210 C2211 1.349 . S
C2210 C2212 1.327 . S
C2210 H2235 0.950 . S
C2211 C2210 1.349 . S
C2211 C2227 1.349 . S
C2212 C2210 1.327 . S
C2212 C2231 1.429 . S
C2212 H2236 0.950 . S
C2213 C2230 1.574 . S
C2213 C2232 1.368 . S
C2213 H2237 0.949 . S
H2214 C2218 0.949 . S
C2215 C2216 1.349 . S
C2215 C2217 1.327 . S
C2215 H2238 0.950 . S
C2216 C2215 1.349 . S
C2216 C2228 1.349 . S
C2217 C2215 1.327 . S
C2217 C2233 1.429 . S
C2217 H2239 0.950 . S
C2218 H2214 0.949 . S
C2218 C2226 1.574 . S
C2218 C2234 1.368 . S
H2219 C2227 0.950 . S
H2220 C2225 0.950 . S
H2221 C2226 0.949 . S
H2222 C2228 0.950 . S
H2223 C2229 0.950 . S
H2224 C2230 0.949 . S
C2225 H2220 0.950 . S
C2225 C2227 1.327 . S
C2225 C2231 1.429 . S
C2226 C2218 1.574 . S
C2226 H2221 0.949 . S
C2226 C2232 1.368 . S
C2227 C2211 1.349 . S
C2227 H2219 0.950 . S
C2227 C2225 1.327 . S
C2228 C2216 1.349 . S
C2228 H2222 0.950 . S
C2228 C2229 1.327 . S
C2229 H2223 0.950 . S
C2229 C2228 1.327 . S
C2229 C2233 1.429 . S
C2230 C2213 1.574 . S
C2230 H2224 0.949 . S
C2230 C2234 1.368 . S
C2231 C2212 1.429 . S
C2231 C2225 1.429 . S
C2231 C2232 1.523 . S
C2232 C2213 1.368 . S
C2232 C2226 1.368 . S
C2232 C2231 1.523 . S
C2233 C2217 1.429 . S
C2233 C2229 1.429 . S
C2233 C2234 1.523 . S
C2234 C2218 1.368 . S
C2234 C2230 1.368 . S
C2234 C2233 1.523 . S
H2235 C2210 0.950 . S
H2236 C2212 0.950 . S
H2237 C2213 0.949 . S
H2238 C2215 0.950 . S
H2239 C2217 0.950 . S
C2240 C2241 1.349 . S
C2240 C2242 1.327 . S
C2240 H2265 0.950 . S
C2241 C2240 1.349 . S
C2241 C2257 1.349 . S
C2242 C2240 1.327 . S
C2242 C2261 1.429 . S
C2242 H2266 0.950 . S
C2243 C2260 1.574 . S
C2243 C2262 1.368 . S
C2243 H2267 0.949 . S
H2244 C2248 0.949 . S
C2245 C2246 1.349 . S
C2245 C2247 1.327 . S
C2245 H2268 0.950 . S
C2246 C2245 1.349 . S
C2246 C2258 1.349 . S
C2247 C2245 1.327 . S
C2247 C2263 1.429 . S
C2247 H2269 0.950 . S
C2248 H2244 0.949 . S
C2248 C2256 1.574 . S
C2248 C2264 1.368 . S
H2249 C2257 0.950 . S
H2250 C2255 0.950 . S
H2251 C2256 0.949 . S
H2252 C2258 0.950 . S
H2253 C2259 0.950 . S
H2254 C2260 0.949 . S
C2255 H2250 0.950 . S
C2255 C2257 1.327 . S
C2255 C2261 1.429 . S
C2256 C2248 1.574 . S
C2256 H2251 0.949 . S
C2256 C2262 1.368 . S
C2257 C2241 1.349 . S
C2257 H2249 0.950 . S
C2257 C2255 1.327 . S
C2258 C2246 1.349 . S
C2258 H2252 0.950 . S
C2258 C2259 1.327 . S
C2259 H2253 0.950 . S
C2259 C2258 1.327 . S
C2259 C2263 1.429 . S
C2260 C2243 1.574 . S
C2260 H2254 0.949 . S
C2260 C2264 1.368 . S
C2261 C2242 1.429 . S
C2261 C2255 1.429 . S
C2261 C2262 1.523 . S
C2262 C2243 1.368 . S
C2262 C2256 1.368 . S
C2262 C2261 1.523 . S
C2263 C2247 1.429 . S
C2263 C2259 1.429 . S
C2263 C2264 1.523 . S
C2264 C2248 1.368 . S
C2264 C2260 1.368 . S
C2264 C2263 1.523 . S
H2265 C2240 0.950 . S
H2266 C2242 0.950 . S
H2267 C2243 0.949 . S
H2268 C2245 0.950 . S
H2269 C2247 0.950 . S
C2270 C2271 1.344 . S
C2270 C2272 1.327 . S
C2270 H2295 0.950 . S
C2271 C2270 1.344 . S
C2271 C2287 1.354 1_545 S
C2272 C2270 1.327 . S
C2272 C2291 1.429 1_545 S
C2272 H2296 0.950 . S
C2273 C2290 1.574 . S
C2273 C2292 1.368 . S
C2273 H2297 0.949 . S
H2274 C2278 0.949 . S
C2275 C2276 1.349 . S
C2275 C2277 1.327 . S
C2275 H2298 0.950 . S
C2276 C2275 1.349 . S
C2276 C2288 1.349 1_565 S
C2277 C2275 1.327 . S
C2277 C2293 1.429 . S
C2277 H2299 0.950 . S
C2278 H2274 0.949 . S
C2278 C2286 1.574 . S
C2278 C2294 1.368 1_545 S
H2279 C2287 0.950 . S
H2280 C2285 0.950 . S
H2281 C2286 0.949 . S
H2282 C2288 0.950 . S
H2283 C2289 0.950 . S
H2284 C2290 0.949 . S
C2285 H2280 0.950 . S
C2285 C2287 1.327 . S
C2285 C2291 1.429 . S
C2286 C2278 1.574 . S
C2286 H2281 0.949 . S
C2286 C2292 1.368 1_545 S
C2287 C2271 1.354 1_565 S
C2287 H2279 0.950 . S
C2287 C2285 1.327 . S
C2288 C2276 1.349 1_545 S
C2288 H2282 0.950 . S
C2288 C2289 1.327 . S
C2289 H2283 0.950 . S
C2289 C2288 1.327 . S
C2289 C2293 1.429 1_545 S
C2290 C2273 1.574 . S
C2290 H2284 0.949 . S
C2290 C2294 1.368 . S
C2291 C2272 1.429 1_565 S
C2291 C2285 1.429 . S
C2291 C2292 1.523 . S
C2292 C2273 1.368 . S
C2292 C2286 1.368 1_565 S
C2292 C2291 1.523 . S
C2293 C2277 1.429 . S
C2293 C2289 1.429 1_565 S
C2293 C2294 1.523 . S
C2294 C2278 1.368 1_565 S
C2294 C2290 1.368 . S
C2294 C2293 1.523 . S
H2295 C2270 0.950 . S
H2296 C2272 0.950 . S
H2297 C2273 0.949 . S
H2298 C2275 0.950 . S
H2299 C2277 0.950 . S
C2300 C2301 1.349 . S
C2300 C2302 1.327 . S
C2300 H2325 0.950 . S
C2301 C2300 1.349 . S
C2301 C2317 1.349 1_565 S
C2302 C2300 1.327 . S
C2302 C2321 1.429 . S
C2302 H2326 0.950 . S
C2303 C2320 1.574 . S
C2303 C2322 1.368 1_545 S
C2303 H2327 0.949 . S
H2304 C2308 0.949 . S
C2305 C2306 1.354 1_545 S
C2305 C2307 1.327 . S
C2305 H2328 0.950 . S
C2306 C2305 1.354 1_565 S
C2306 C2318 1.344 . S
C2307 C2305 1.327 . S
C2307 C2323 1.429 1_545 S
C2307 H2329 0.950 . S
C2308 H2304 0.949 . S
C2308 C2316 1.574 . S
C2308 C2324 1.368 . S
H2309 C2317 0.950 . S
H2310 C2315 0.950 . S
H2311 C2316 0.949 . S
H2312 C2318 0.950 . S
H2313 C2319 0.950 . S
H2314 C2320 0.949 . S
C2315 H2310 0.950 . S
C2315 C2317 1.327 . S
C2315 C2321 1.429 1_545 S
C2316 C2308 1.574 . S
C2316 H2311 0.949 . S
C2316 C2322 1.368 . S
C2317 C2301 1.349 1_545 S
C2317 H2309 0.950 . S
C2317 C2315 1.327 . S
C2318 C2306 1.344 . S
C2318 H2312 0.950 . S
C2318 C2319 1.327 . S
C2319 H2313 0.950 . S
C2319 C2318 1.327 . S
C2319 C2323 1.429 . S
C2320 C2303 1.574 . S
C2320 H2314 0.949 . S
C2320 C2324 1.368 1_545 S
C2321 C2302 1.429 . S
C2321 C2315 1.429 1_565 S
C2321 C2322 1.523 . S
C2322 C2303 1.368 1_565 S
C2322 C2316 1.368 . S
C2322 C2321 1.523 . S
C2323 C2307 1.429 1_565 S
C2323 C2319 1.429 . S
C2323 C2324 1.523 . S
C2324 C2308 1.368 . S
C2324 C2320 1.368 1_565 S
C2324 C2323 1.523 . S
H2325 C2300 0.950 . S
H2326 C2302 0.950 . S
H2327 C2303 0.949 . S
H2328 C2305 0.950 . S
H2329 C2307 0.950 . S
C2330 C2331 1.349 . S
C2330 C2332 1.327 . S
C2330 H2355 0.950 . S
C2331 C2330 1.349 . S
C2331 C2347 1.349 . S
C2332 C2330 1.327 . S
C2332 C2351 1.429 . S
C2332 H2356 0.950 . S
C2333 C2350 1.574 . S
C2333 C2352 1.368 . S
C2333 H2357 0.949 . S
H2334 C2338 0.949 . S
C2335 C2336 1.349 . S
C2335 C2337 1.327 . S
C2335 H2358 0.950 . S
C2336 C2335 1.349 . S
C2336 C2348 1.349 . S
C2337 C2335 1.327 . S
C2337 C2353 1.429 . S
C2337 H2359 0.950 . S
C2338 H2334 0.949 . S
C2338 C2346 1.574 . S
C2338 C2354 1.368 . S
H2339 C2347 0.950 . S
H2340 C2345 0.950 . S
H2341 C2346 0.949 . S
H2342 C2348 0.950 . S
H2343 C2349 0.950 . S
H2344 C2350 0.949 . S
C2345 H2340 0.950 . S
C2345 C2347 1.327 . S
C2345 C2351 1.429 . S
C2346 C2338 1.574 . S
C2346 H2341 0.949 . S
C2346 C2352 1.368 . S
C2347 C2331 1.349 . S
C2347 H2339 0.950 . S
C2347 C2345 1.327 . S
C2348 C2336 1.349 . S
C2348 H2342 0.950 . S
C2348 C2349 1.327 . S
C2349 H2343 0.950 . S
C2349 C2348 1.327 . S
C2349 C2353 1.429 . S
C2350 C2333 1.574 . S
C2350 H2344 0.949 . S
C2350 C2354 1.368 . S
C2351 C2332 1.429 . S
C2351 C2345 1.429 . S
C2351 C2352 1.523 . S
C2352 C2333 1.368 . S
C2352 C2346 1.368 . S
C2352 C2351 1.523 . S
C2353 C2337 1.429 . S
C2353 C2349 1.429 . S
C2353 C2354 1.523 . S
C2354 C2338 1.368 . S
C2354 C2350 1.368 . S
C2354 C2353 1.523 . S
H2355 C2330 0.950 . S
H2356 C2332 0.950 . S
H2357 C2333 0.949 . S
H2358 C2335 0.950 . S
H2359 C2337 0.950 . S
C2360 C2361 1.349 . S
C2360 C2362 1.327 . S
C2360 H2385 0.950 . S
C2361 C2360 1.349 . S
C2361 C2377 1.349 . S
C2362 C2360 1.327 . S
C2362 C2381 1.429 . S
C2362 H2386 0.950 . S
C2363 C2380 1.574 . S
C2363 C2382 1.368 . S
C2363 H2387 0.949 . S
H2364 C2368 0.949 . S
C2365 C2366 1.349 . S
C2365 C2367 1.327 . S
C2365 H2388 0.950 . S
C2366 C2365 1.349 . S
C2366 C2378 1.349 . S
C2367 C2365 1.327 . S
C2367 C2383 1.429 . S
C2367 H2389 0.950 . S
C2368 H2364 0.949 . S
C2368 C2376 1.574 . S
C2368 C2384 1.368 . S
H2369 C2377 0.950 . S
H2370 C2375 0.950 . S
H2371 C2376 0.949 . S
H2372 C2378 0.950 . S
H2373 C2379 0.950 . S
H2374 C2380 0.949 . S
C2375 H2370 0.950 . S
C2375 C2377 1.327 . S
C2375 C2381 1.429 . S
C2376 C2368 1.574 . S
C2376 H2371 0.949 . S
C2376 C2382 1.368 . S
C2377 C2361 1.349 . S
C2377 H2369 0.950 . S
C2377 C2375 1.327 . S
C2378 C2366 1.349 . S
C2378 H2372 0.950 . S
C2378 C2379 1.327 . S
C2379 H2373 0.950 . S
C2379 C2378 1.327 . S
C2379 C2383 1.429 . S
C2380 C2363 1.574 . S
C2380 H2374 0.949 . S
C2380 C2384 1.368 . S
C2381 C2362 1.429 . S
C2381 C2375 1.429 . S
C2381 C2382 1.523 . S
C2382 C2363 1.368 . S
C2382 C2376 1.368 . S
C2382 C2381 1.523 . S
C2383 C2367 1.429 . S
C2383 C2379 1.429 . S
C2383 C2384 1.523 . S
C2384 C2368 1.368 . S
C2384 C2380 1.368 . S
C2384 C2383 1.523 . S
H2385 C2360 0.950 . S
H2386 C2362 0.950 . S
H2387 C2363 0.949 . S
H2388 C2365 0.950 . S
H2389 C2367 0.950 . S
C2390 C2391 1.349 1_565 S
C2390 C2392 1.327 . S
C2390 H2415 0.950 . S
C2391 C2390 1.349 1_545 S
C2391 C2407 1.349 . S
C2392 C2390 1.327 . S
C2392 C2411 1.429 1_565 S
C2392 H2416 0.950 . S
C2393 C2410 1.574 . S
C2393 C2412 1.368 . S
C2393 H2417 0.949 . S
H2394 C2398 0.949 . S
C2395 C2396 1.354 1_545 S
C2395 C2397 1.327 . S
C2395 H2418 0.950 . S
C2396 C2395 1.354 1_565 S
C2396 C2408 1.344 . S
C2397 C2395 1.327 . S
C2397 C2413 1.429 . S
C2397 H2419 0.950 . S
C2398 H2394 0.949 . S
C2398 C2406 1.574 . S
C2398 C2414 1.368 1_565 S
H2399 C2407 0.950 . S
H2400 C2405 0.950 . S
H2401 C2406 0.949 . S
H2402 C2408 0.950 . S
H2403 C2409 0.950 . S
H2404 C2410 0.949 . S
C2405 H2400 0.950 . S
C2405 C2407 1.327 . S
C2405 C2411 1.429 . S
C2406 C2398 1.574 . S
C2406 H2401 0.949 . S
C2406 C2412 1.368 1_565 S
C2407 C2391 1.349 . S
C2407 H2399 0.950 . S
C2407 C2405 1.327 . S
C2408 C2396 1.344 . S
C2408 H2402 0.950 . S
C2408 C2409 1.327 . S
C2409 H2403 0.950 . S
C2409 C2408 1.327 . S
C2409 C2413 1.429 1_565 S
C2410 C2393 1.574 . S
C2410 H2404 0.949 . S
C2410 C2414 1.368 . S
C2411 C2392 1.429 1_545 S
C2411 C2405 1.429 . S
C2411 C2412 1.523 . S
C2412 C2393 1.368 . S
C2412 C2406 1.368 1_545 S
C2412 C2411 1.523 . S
C2413 C2397 1.429 . S
C2413 C2409 1.429 1_545 S
C2413 C2414 1.523 . S
C2414 C2398 1.368 1_545 S
C2414 C2410 1.368 . S
C2414 C2413 1.523 . S
H2415 C2390 0.950 . S
H2416 C2392 0.950 . S
H2417 C2393 0.949 . S
H2418 C2395 0.950 . S
H2419 C2397 0.950 . S
C2420 C2421 1.349 . S
C2420 C2422 1.327 . S
C2420 H2445 0.950 . S
C2421 C2420 1.349 . S
C2421 C2437 1.349 1_545 S
C2422 C2420 1.327 . S
C2422 C2441 1.429 . S
C2422 H2446 0.950 . S
C2423 C2440 1.574 . S
C2423 C2442 1.368 1_565 S
C2423 H2447 0.949 . S
H2424 C2428 0.949 . S
C2425 C2426 1.354 1_565 S
C2425 C2427 1.327 . S
C2425 H2448 0.950 . S
C2426 C2425 1.354 1_545 S
C2426 C2438 1.344 . S
C2427 C2425 1.327 . S
C2427 C2443 1.429 1_565 S
C2427 H2449 0.950 . S
C2428 H2424 0.949 . S
C2428 C2436 1.574 . S
C2428 C2444 1.368 . S
H2429 C2437 0.950 . S
H2430 C2435 0.950 . S
H2431 C2436 0.949 . S
H2432 C2438 0.950 . S
H2433 C2439 0.950 . S
H2434 C2440 0.949 . S
C2435 H2430 0.950 . S
C2435 C2437 1.327 . S
C2435 C2441 1.429 1_565 S
C2436 C2428 1.574 . S
C2436 H2431 0.949 . S
C2436 C2442 1.368 . S
C2437 C2421 1.349 1_565 S
C2437 H2429 0.950 . S
C2437 C2435 1.327 . S
C2438 C2426 1.344 . S
C2438 H2432 0.950 . S
C2438 C2439 1.327 . S
C2439 H2433 0.950 . S
C2439 C2438 1.327 . S
C2439 C2443 1.429 . S
C2440 C2423 1.574 . S
C2440 H2434 0.949 . S
C2440 C2444 1.368 1_565 S
C2441 C2422 1.429 . S
C2441 C2435 1.429 1_545 S
C2441 C2442 1.523 . S
C2442 C2423 1.368 1_545 S
C2442 C2436 1.368 . S
C2442 C2441 1.523 . S
C2443 C2427 1.429 1_545 S
C2443 C2439 1.429 . S
C2443 C2444 1.523 . S
C2444 C2428 1.368 . S
C2444 C2440 1.368 1_545 S
C2444 C2443 1.523 . S
H2445 C2420 0.950 . S
H2446 C2422 0.950 . S
H2447 C2423 0.949 . S
H2448 C2425 0.950 . S
H2449 C2427 0.950 . S
C2450 C2451 1.349 . S
C2450 C2452 1.327 . S
C2450 H2475 0.950 . S
C2451 C2450 1.349 . S
C2451 C2467 1.349 . S
C2452 C2450 1.327 . S
C2452 C2471 1.429 . S
C2452 H2476 0.950 . S
C2453 C2470 1.574 . S
C2453 C2472 1.368 . S
C2453 H2477 0.949 . S
H2454 C2458 0.949 . S
C2455 C2456 1.349 . S
C2455 C2457 1.327 . S
C2455 H2478 0.950 . S
C2456 C2455 1.349 . S
C2456 C2468 1.349 . S
C2457 C2455 1.327 . S
C2457 C2473 1.429 . S
C2457 H2479 0.950 . S
C2458 H2454 0.949 . S
C2458 C2466 1.574 . S
C2458 C2474 1.368 . S
H2459 C2467 0.950 . S
H2460 C2465 0.950 . S
H2461 C2466 0.949 . S
H2462 C2468 0.950 . S
H2463 C2469 0.950 . S
H2464 C2470 0.949 . S
C2465 H2460 0.950 . S
C2465 C2467 1.327 . S
C2465 C2471 1.429 . S
C2466 C2458 1.574 . S
C2466 H2461 0.949 . S
C2466 C2472 1.368 . S
C2467 C2451 1.349 . S
C2467 H2459 0.950 . S
C2467 C2465 1.327 . S
C2468 C2456 1.349 . S
C2468 H2462 0.950 . S
C2468 C2469 1.327 . S
C2469 H2463 0.950 . S
C2469 C2468 1.327 . S
C2469 C2473 1.429 . S
C2470 C2453 1.574 . S
C2470 H2464 0.949 . S
C2470 C2474 1.368 . S
C2471 C2452 1.429 . S
C2471 C2465 1.429 . S
C2471 C2472 1.523 . S
C2472 C2453 1.368 . S
C2472 C2466 1.368 . S
C2472 C2471 1.523 . S
C2473 C2457 1.429 . S
C2473 C2469 1.429 . S
C2473 C2474 1.523 . S
C2474 C2458 1.368 . S
C2474 C2470 1.368 . S
C2474 C2473 1.523 . S
H2475 C2450 0.950 . S
H2476 C2452 0.950 . S
H2477 C2453 0.949 . S
H2478 C2455 0.950 . S
H2479 C2457 0.950 . S
C2480 C2481 1.349 . S
C2480 C2482 1.327 1_556 S
C2480 H2505 0.950 . S
C2481 C2480 1.349 . S
C2481 C2497 1.349 . S
C2482 C2480 1.327 1_554 S
C2482 C2501 1.429 . S
C2482 H2506 0.950 . S
C2483 C2500 1.574 . S
C2483 C2502 1.368 . S
C2483 H2507 0.949 . S
H2484 C2488 0.949 . S
C2485 C2486 1.349 . S
C2485 C2487 1.327 . S
C2485 H2508 0.950 . S
C2486 C2485 1.349 . S
C2486 C2498 1.349 . S
C2487 C2485 1.327 . S
C2487 C2503 1.429 . S
C2487 H2509 0.950 . S
C2488 H2484 0.949 . S
C2488 C2496 1.574 . S
C2488 C2504 1.368 . S
H2489 C2497 0.950 . S
H2490 C2495 0.950 . S
H2491 C2496 0.949 . S
H2492 C2498 0.950 . S
H2493 C2499 0.950 . S
H2494 C2500 0.949 . S
C2495 H2490 0.950 . S
C2495 C2497 1.327 1_554 S
C2495 C2501 1.429 . S
C2496 C2488 1.574 . S
C2496 H2491 0.949 . S
C2496 C2502 1.368 . S
C2497 C2481 1.349 . S
C2497 H2489 0.950 . S
C2497 C2495 1.327 1_556 S
C2498 C2486 1.349 . S
C2498 H2492 0.950 . S
C2498 C2499 1.327 . S
C2499 H2493 0.950 . S
C2499 C2498 1.327 . S
C2499 C2503 1.429 . S
C2500 C2483 1.574 . S
C2500 H2494 0.949 . S
C2500 C2504 1.368 . S
C2501 C2482 1.429 . S
C2501 C2495 1.429 . S
C2501 C2502 1.523 . S
C2502 C2483 1.368 . S
C2502 C2496 1.368 . S
C2502 C2501 1.523 . S
C2503 C2487 1.429 . S
C2503 C2499 1.429 . S
C2503 C2504 1.523 . S
C2504 C2488 1.368 . S
C2504 C2500 1.368 . S
C2504 C2503 1.523 . S
H2505 C2480 0.950 . S
H2506 C2482 0.950 . S
H2507 C2483 0.949 . S
H2508 C2485 0.950 . S
H2509 C2487 0.950 . S
C2510 C2511 1.349 . S
C2510 C2512 1.327 . S
C2510 H2535 0.950 . S
C2511 C2510 1.349 . S
C2511 C2527 1.349 . S
C2512 C2510 1.327 . S
C2512 C2531 1.429 . S
C2512 H2536 0.950 . S
C2513 C2530 1.574 . S
C2513 C2532 1.368 . S
C2513 H2537 0.949 . S
H2514 C2518 0.949 . S
C2515 C2516 1.349 . S
C2515 C2517 1.327 1_556 S
C2515 H2538 0.950 . S
C2516 C2515 1.349 . S
C2516 C2528 1.349 . S
C2517 C2515 1.327 1_554 S
C2517 C2533 1.429 . S
C2517 H2539 0.950 . S
C2518 H2514 0.949 . S
C2518 C2526 1.574 . S
C2518 C2534 1.368 . S
H2519 C2527 0.950 . S
H2520 C2525 0.950 . S
H2521 C2526 0.949 . S
H2522 C2528 0.950 . S
H2523 C2529 0.950 . S
H2524 C2530 0.949 . S
C2525 H2520 0.950 . S
C2525 C2527 1.327 . S
C2525 C2531 1.429 . S
C2526 C2518 1.574 . S
C2526 H2521 0.949 . S
C2526 C2532 1.368 . S
C2527 C2511 1.349 . S
C2527 H2519 0.950 . S
C2527 C2525 1.327 . S
C2528 C2516 1.349 . S
C2528 H2522 0.950 . S
C2528 C2529 1.327 1_556 S
C2529 H2523 0.950 . S
C2529 C2528 1.327 1_554 S
C2529 C2533 1.429 . S
C2530 C2513 1.574 . S
C2530 H2524 0.949 . S
C2530 C2534 1.368 . S
C2531 C2512 1.429 . S
C2531 C2525 1.429 . S
C2531 C2532 1.523 . S
C2532 C2513 1.368 . S
C2532 C2526 1.368 . S
C2532 C2531 1.523 . S
C2533 C2517 1.429 . S
C2533 C2529 1.429 . S
C2533 C2534 1.523 . S
C2534 C2518 1.368 . S
C2534 C2530 1.368 . S
C2534 C2533 1.523 . S
H2535 C2510 0.950 . S
H2536 C2512 0.950 . S
H2537 C2513 0.949 . S
H2538 C2515 0.950 . S
H2539 C2517 0.950 . S
C2540 C2541 1.349 . S
C2540 C2542 1.327 . S
C2540 H2565 0.950 . S
C2541 C2540 1.349 . S
C2541 C2557 1.349 . S
C2542 C2540 1.327 . S
C2542 C2561 1.429 . S
C2542 H2566 0.950 . S
C2543 C2560 1.574 1_556 S
C2543 C2562 1.368 . S
C2543 H2567 0.949 . S
H2544 C2548 0.949 . S
C2545 C2546 1.349 . S
C2545 C2547 1.327 . S
C2545 H2568 0.950 . S
C2546 C2545 1.349 . S
C2546 C2558 1.349 . S
C2547 C2545 1.327 . S
C2547 C2563 1.429 . S
C2547 H2569 0.950 . S
C2548 H2544 0.949 . S
C2548 C2556 1.574 1_554 S
C2548 C2564 1.368 . S
H2549 C2557 0.950 . S
H2550 C2555 0.950 . S
H2551 C2556 0.949 . S
H2552 C2558 0.950 . S
H2553 C2559 0.950 . S
H2554 C2560 0.949 . S
C2555 H2550 0.950 . S
C2555 C2557 1.327 . S
C2555 C2561 1.429 . S
C2556 C2548 1.574 1_556 S
C2556 H2551 0.949 . S
C2556 C2562 1.368 . S
C2557 C2541 1.349 . S
C2557 H2549 0.950 . S
C2557 C2555 1.327 . S
C2558 C2546 1.349 . S
C2558 H2552 0.950 . S
C2558 C2559 1.327 . S
C2559 H2553 0.950 . S
C2559 C2558 1.327 . S
C2559 C2563 1.429 . S
C2560 C2543 1.574 1_554 S
C2560 H2554 0.949 . S
C2560 C2564 1.368 . S
C2561 C2542 1.429 . S
C2561 C2555 1.429 . S
C2561 C2562 1.523 . S
C2562 C2543 1.368 . S
C2562 C2556 1.368 . S
C2562 C2561 1.523 . S
C2563 C2547 1.429 . S
C2563 C2559 1.429 . S
C2563 C2564 1.523 . S
C2564 C2548 1.368 . S
C2564 C2560 1.368 . S
C2564 C2563 1.523 . S
H2565 C2540 0.950 . S
H2566 C2542 0.950 . S
H2567 C2543 0.949 . S
H2568 C2545 0.950 . S
H2569 C2547 0.950 . S
C2570 C2571 1.349 . S
C2570 C2572 1.327 . S
C2570 H2595 0.950 . S
C2571 C2570 1.349 . S
C2571 C2587 1.349 . S
C2572 C2570 1.327 . S
C2572 C2591 1.429 . S
C2572 H2596 0.950 . S
C2573 C2590 1.574 1_556 S
C2573 C2592 1.368 . S
C2573 H2597 0.949 . S
H2574 C2578 0.949 . S
C2575 C2576 1.349 . S
C2575 C2577 1.327 . S
C2575 H2598 0.950 . S
C2576 C2575 1.349 . S
C2576 C2588 1.349 . S
C2577 C2575 1.327 . S
C2577 C2593 1.429 . S
C2577 H2599 0.950 . S
C2578 H2574 0.949 . S
C2578 C2586 1.574 1_554 S
C2578 C2594 1.368 . S
H2579 C2587 0.950 . S
H2580 C2585 0.950 . S
H2581 C2586 0.949 . S
H2582 C2588 0.950 . S
H2583 C2589 0.950 . S
H2584 C2590 0.949 . S
C2585 H2580 0.950 . S
C2585 C2587 1.327 . S
C2585 C2591 1.429 . S
C2586 C2578 1.574 1_556 S
C2586 H2581 0.949 . S
C2586 C2592 1.368 . S
C2587 C2571 1.349 . S
C2587 H2579 0.950 . S
C2587 C2585 1.327 . S
C2588 C2576 1.349 . S
C2588 H2582 0.950 . S
C2588 C2589 1.327 . S
C2589 H2583 0.950 . S
C2589 C2588 1.327 . S
C2589 C2593 1.429 . S
C2590 C2573 1.574 1_554 S
C2590 H2584 0.949 . S
C2590 C2594 1.368 . S
C2591 C2572 1.429 . S
C2591 C2585 1.429 . S
C2591 C2592 1.523 . S
C2592 C2573 1.368 . S
C2592 C2586 1.368 . S
C2592 C2591 1.523 . S
C2593 C2577 1.429 . S
C2593 C2589 1.429 . S
C2593 C2594 1.523 . S
C2594 C2578 1.368 . S
C2594 C2590 1.368 . S
C2594 C2593 1.523 . S
H2595 C2570 0.950 . S
H2596 C2572 0.950 . S
H2597 C2573 0.949 . S
H2598 C2575 0.950 . S
H2599 C2577 0.950 . S
C2600 C2601 1.349 . S
C2600 C2602 1.327 . S
C2600 H2625 0.950 . S
C2601 C2600 1.349 . S
C2601 C2617 1.349 . S
C2602 C2600 1.327 . S
C2602 C2621 1.429 . S
C2602 H2626 0.950 . S
C2603 C2620 1.574 . S
C2603 C2622 1.368 . S
C2603 H2627 0.949 . S
H2604 C2608 0.949 . S
C2605 C2606 1.349 . S
C2605 C2607 1.327 1_554 S
C2605 H2628 0.950 . S
C2606 C2605 1.349 . S
C2606 C2618 1.349 . S
C2607 C2605 1.327 1_556 S
C2607 C2623 1.429 . S
C2607 H2629 0.950 . S
C2608 H2604 0.949 . S
C2608 C2616 1.574 . S
C2608 C2624 1.368 . S
H2609 C2617 0.950 . S
H2610 C2615 0.950 . S
H2611 C2616 0.949 . S
H2612 C2618 0.950 . S
H2613 C2619 0.950 . S
H2614 C2620 0.949 . S
C2615 H2610 0.950 . S
C2615 C2617 1.327 . S
C2615 C2621 1.429 . S
C2616 C2608 1.574 . S
C2616 H2611 0.949 . S
C2616 C2622 1.368 . S
C2617 C2601 1.349 . S
C2617 H2609 0.950 . S
C2617 C2615 1.327 . S
C2618 C2606 1.349 . S
C2618 H2612 0.950 . S
C2618 C2619 1.327 1_554 S
C2619 H2613 0.950 . S
C2619 C2618 1.327 1_556 S
C2619 C2623 1.429 . S
C2620 C2603 1.574 . S
C2620 H2614 0.949 . S
C2620 C2624 1.368 . S
C2621 C2602 1.429 . S
C2621 C2615 1.429 . S
C2621 C2622 1.523 . S
C2622 C2603 1.368 . S
C2622 C2616 1.368 . S
C2622 C2621 1.523 . S
C2623 C2607 1.429 . S
C2623 C2619 1.429 . S
C2623 C2624 1.523 . S
C2624 C2608 1.368 . S
C2624 C2620 1.368 . S
C2624 C2623 1.523 . S
H2625 C2600 0.950 . S
H2626 C2602 0.950 . S
H2627 C2603 0.949 . S
H2628 C2605 0.950 . S
H2629 C2607 0.950 . S
C2630 C2631 1.349 . S
C2630 C2632 1.327 1_554 S
C2630 H2655 0.950 . S
C2631 C2630 1.349 . S
C2631 C2647 1.349 . S
C2632 C2630 1.327 1_556 S
C2632 C2651 1.429 . S
C2632 H2656 0.950 . S
C2633 C2650 1.574 . S
C2633 C2652 1.368 . S
C2633 H2657 0.949 . S
H2634 C2638 0.949 . S
C2635 C2636 1.349 . S
C2635 C2637 1.327 . S
C2635 H2658 0.950 . S
C2636 C2635 1.349 . S
C2636 C2648 1.349 . S
C2637 C2635 1.327 . S
C2637 C2653 1.429 . S
C2637 H2659 0.950 . S
C2638 H2634 0.949 . S
C2638 C2646 1.574 . S
C2638 C2654 1.368 . S
H2639 C2647 0.950 . S
H2640 C2645 0.950 . S
H2641 C2646 0.949 . S
H2642 C2648 0.950 . S
H2643 C2649 0.950 . S
H2644 C2650 0.949 . S
C2645 H2640 0.950 . S
C2645 C2647 1.327 1_556 S
C2645 C2651 1.429 . S
C2646 C2638 1.574 . S
C2646 H2641 0.949 . S
C2646 C2652 1.368 . S
C2647 C2631 1.349 . S
C2647 H2639 0.950 . S
C2647 C2645 1.327 1_554 S
C2648 C2636 1.349 . S
C2648 H2642 0.950 . S
C2648 C2649 1.327 . S
C2649 H2643 0.950 . S
C2649 C2648 1.327 . S
C2649 C2653 1.429 . S
C2650 C2633 1.574 . S
C2650 H2644 0.949 . S
C2650 C2654 1.368 . S
C2651 C2632 1.429 . S
C2651 C2645 1.429 . S
C2651 C2652 1.523 . S
C2652 C2633 1.368 . S
C2652 C2646 1.368 . S
C2652 C2651 1.523 . S
C2653 C2637 1.429 . S
C2653 C2649 1.429 . S
C2653 C2654 1.523 . S
C2654 C2638 1.368 . S
C2654 C2650 1.368 . S
C2654 C2653 1.523 . S
H2655 C2630 0.950 . S
H2656 C2632 0.950 . S
H2657 C2633 0.949 . S
H2658 C2635 0.950 . S
H2659 C2637 0.950 . S
C2660 C2661 1.349 . S
C2660 C2662 1.327 . S
C2660 H2685 0.950 . S
C2661 C2660 1.349 . S
C2661 C2677 1.349 . S
C2662 C2660 1.327 . S
C2662 C2681 1.429 . S
C2662 H2686 0.950 . S
C2663 C2680 1.574 1_554 S
C2663 C2682 1.368 . S
C2663 H2687 0.949 . S
H2664 C2668 0.949 . S
C2665 C2666 1.349 . S
C2665 C2667 1.327 . S
C2665 H2688 0.950 . S
C2666 C2665 1.349 . S
C2666 C2678 1.349 . S
C2667 C2665 1.327 . S
C2667 C2683 1.429 . S
C2667 H2689 0.950 . S
C2668 H2664 0.949 . S
C2668 C2676 1.574 1_556 S
C2668 C2684 1.368 . S
H2669 C2677 0.950 . S
H2670 C2675 0.950 . S
H2671 C2676 0.949 . S
H2672 C2678 0.950 . S
H2673 C2679 0.950 . S
H2674 C2680 0.949 . S
C2675 H2670 0.950 . S
C2675 C2677 1.327 . S
C2675 C2681 1.429 . S
C2676 C2668 1.574 1_554 S
C2676 H2671 0.949 . S
C2676 C2682 1.368 . S
C2677 C2661 1.349 . S
C2677 H2669 0.950 . S
C2677 C2675 1.327 . S
C2678 C2666 1.349 . S
C2678 H2672 0.950 . S
C2678 C2679 1.327 . S
C2679 H2673 0.950 . S
C2679 C2678 1.327 . S
C2679 C2683 1.429 . S
C2680 C2663 1.574 1_556 S
C2680 H2674 0.949 . S
C2680 C2684 1.368 . S
C2681 C2662 1.429 . S
C2681 C2675 1.429 . S
C2681 C2682 1.523 . S
C2682 C2663 1.368 . S
C2682 C2676 1.368 . S
C2682 C2681 1.523 . S
C2683 C2667 1.429 . S
C2683 C2679 1.429 . S
C2683 C2684 1.523 . S
C2684 C2668 1.368 . S
C2684 C2680 1.368 . S
C2684 C2683 1.523 . S
H2685 C2660 0.950 . S
H2686 C2662 0.950 . S
H2687 C2663 0.949 . S
H2688 C2665 0.950 . S
H2689 C2667 0.950 . S
C2690 C2691 1.349 . S
C2690 C2692 1.327 . S
C2690 H2715 0.950 . S
C2691 C2690 1.349 . S
C2691 C2707 1.349 . S
C2692 C2690 1.327 . S
C2692 C2711 1.429 . S
C2692 H2716 0.950 . S
C2693 C2710 1.574 1_556 S
C2693 C2712 1.368 . S
C2693 H2717 0.949 . S
H2694 C2698 0.949 . S
C2695 C2696 1.349 . S
C2695 C2697 1.327 . S
C2695 H2718 0.950 . S
C2696 C2695 1.349 . S
C2696 C2708 1.349 . S
C2697 C2695 1.327 . S
C2697 C2713 1.429 . S
C2697 H2719 0.950 . S
C2698 H2694 0.949 . S
C2698 C2706 1.574 1_554 S
C2698 C2714 1.368 . S
H2699 C2707 0.950 . S
H2700 C2705 0.950 . S
H2701 C2706 0.949 . S
H2702 C2708 0.950 . S
H2703 C2709 0.950 . S
H2704 C2710 0.949 . S
C2705 H2700 0.950 . S
C2705 C2707 1.327 . S
C2705 C2711 1.429 . S
C2706 C2698 1.574 1_556 S
C2706 H2701 0.949 . S
C2706 C2712 1.368 . S
C2707 C2691 1.349 . S
C2707 H2699 0.950 . S
C2707 C2705 1.327 . S
C2708 C2696 1.349 . S
C2708 H2702 0.950 . S
C2708 C2709 1.327 . S
C2709 H2703 0.950 . S
C2709 C2708 1.327 . S
C2709 C2713 1.429 . S
C2710 C2693 1.574 1_554 S
C2710 H2704 0.949 . S
C2710 C2714 1.368 . S
C2711 C2692 1.429 . S
C2711 C2705 1.429 . S
C2711 C2712 1.523 . S
C2712 C2693 1.368 . S
C2712 C2706 1.368 . S
C2712 C2711 1.523 . S
C2713 C2697 1.429 . S
C2713 C2709 1.429 . S
C2713 C2714 1.523 . S
C2714 C2698 1.368 . S
C2714 C2710 1.368 . S
C2714 C2713 1.523 . S
H2715 C2690 0.950 . S
H2716 C2692 0.950 . S
H2717 C2693 0.949 . S
H2718 C2695 0.950 . S
H2719 C2697 0.950 . S
C2720 C2721 1.349 . S
C2720 C2722 1.327 1_556 S
C2720 H2745 0.950 . S
C2721 C2720 1.349 . S
C2721 C2737 1.349 . S
C2722 C2720 1.327 1_554 S
C2722 C2741 1.429 . S
C2722 H2746 0.950 . S
C2723 C2740 1.574 . S
C2723 C2742 1.368 . S
C2723 H2747 0.949 . S
H2724 C2728 0.949 . S
C2725 C2726 1.349 . S
C2725 C2727 1.327 . S
C2725 H2748 0.950 . S
C2726 C2725 1.349 . S
C2726 C2738 1.349 . S
C2727 C2725 1.327 . S
C2727 C2743 1.429 . S
C2727 H2749 0.950 . S
C2728 H2724 0.949 . S
C2728 C2736 1.574 . S
C2728 C2744 1.368 . S
H2729 C2737 0.950 . S
H2730 C2735 0.950 . S
H2731 C2736 0.949 . S
H2732 C2738 0.950 . S
H2733 C2739 0.950 . S
H2734 C2740 0.949 . S
C2735 H2730 0.950 . S
C2735 C2737 1.327 1_554 S
C2735 C2741 1.429 . S
C2736 C2728 1.574 . S
C2736 H2731 0.949 . S
C2736 C2742 1.368 . S
C2737 C2721 1.349 . S
C2737 H2729 0.950 . S
C2737 C2735 1.327 1_556 S
C2738 C2726 1.349 . S
C2738 H2732 0.950 . S
C2738 C2739 1.327 . S
C2739 H2733 0.950 . S
C2739 C2738 1.327 . S
C2739 C2743 1.429 . S
C2740 C2723 1.574 . S
C2740 H2734 0.949 . S
C2740 C2744 1.368 . S
C2741 C2722 1.429 . S
C2741 C2735 1.429 . S
C2741 C2742 1.523 . S
C2742 C2723 1.368 . S
C2742 C2736 1.368 . S
C2742 C2741 1.523 . S
C2743 C2727 1.429 . S
C2743 C2739 1.429 . S
C2743 C2744 1.523 . S
C2744 C2728 1.368 . S
C2744 C2740 1.368 . S
C2744 C2743 1.523 . S
H2745 C2720 0.950 . S
H2746 C2722 0.950 . S
H2747 C2723 0.949 . S
H2748 C2725 0.950 . S
H2749 C2727 0.950 . S
C2750 C2751 1.349 1_545 S
C2750 C2752 1.327 . S
C2750 H2775 0.950 . S
C2751 C2750 1.349 1_565 S
C2751 C2767 1.349 . S
C2752 C2750 1.327 . S
C2752 C2771 1.429 1_545 S
C2752 H2776 0.950 . S
C2753 C2770 1.574 . S
C2753 C2772 1.368 . S
C2753 H2777 0.949 . S
H2754 C2758 0.949 . S
C2755 C2756 1.344 . S
C2755 C2757 1.327 1_556 S
C2755 H2778 0.950 . S
C2756 C2755 1.344 . S
C2756 C2768 1.353 1_565 S
C2757 C2755 1.327 1_554 S
C2757 C2773 1.429 . S
C2757 H2779 0.950 . S
C2758 H2754 0.949 . S
C2758 C2766 1.574 . S
C2758 C2774 1.368 1_545 S
H2759 C2767 0.950 . S
H2760 C2765 0.950 . S
H2761 C2766 0.949 . S
H2762 C2768 0.950 . S
H2763 C2769 0.950 . S
H2764 C2770 0.949 . S
C2765 H2760 0.950 . S
C2765 C2767 1.327 . S
C2765 C2771 1.429 . S
C2766 C2758 1.574 . S
C2766 H2761 0.949 . S
C2766 C2772 1.368 1_545 S
C2767 C2751 1.349 . S
C2767 H2759 0.950 . S
C2767 C2765 1.327 . S
C2768 C2756 1.353 1_545 S
C2768 H2762 0.950 . S
C2768 C2769 1.327 1_556 S
C2769 H2763 0.950 . S
C2769 C2768 1.327 1_554 S
C2769 C2773 1.429 1_545 S
C2770 C2753 1.574 . S
C2770 H2764 0.949 . S
C2770 C2774 1.368 . S
C2771 C2752 1.429 1_565 S
C2771 C2765 1.429 . S
C2771 C2772 1.523 . S
C2772 C2753 1.368 . S
C2772 C2766 1.368 1_565 S
C2772 C2771 1.523 . S
C2773 C2757 1.429 . S
C2773 C2769 1.429 1_565 S
C2773 C2774 1.523 . S
C2774 C2758 1.368 1_565 S
C2774 C2770 1.368 . S
C2774 C2773 1.523 . S
H2775 C2750 0.950 . S
H2776 C2752 0.950 . S
H2777 C2753 0.949 . S
H2778 C2755 0.950 . S
H2779 C2757 0.950 . S
C2780 C2781 1.349 1_545 S
C2780 C2782 1.327 . S
C2780 H2805 0.950 . S
C2781 C2780 1.349 1_565 S
C2781 C2797 1.349 . S
C2782 C2780 1.327 . S
C2782 C2801 1.429 1_545 S
C2782 H2806 0.950 . S
C2783 C2800 1.574 1_556 S
C2783 C2802 1.368 . S
C2783 H2807 0.949 . S
H2784 C2788 0.949 . S
C2785 C2786 1.344 . S
C2785 C2787 1.327 . S
C2785 H2808 0.950 . S
C2786 C2785 1.344 . S
C2786 C2798 1.353 1_565 S
C2787 C2785 1.327 . S
C2787 C2803 1.429 . S
C2787 H2809 0.950 . S
C2788 H2784 0.949 . S
C2788 C2796 1.574 1_554 S
C2788 C2804 1.368 1_545 S
H2789 C2797 0.950 . S
H2790 C2795 0.950 . S
H2791 C2796 0.949 . S
H2792 C2798 0.950 . S
H2793 C2799 0.950 . S
H2794 C2800 0.949 . S
C2795 H2790 0.950 . S
C2795 C2797 1.327 . S
C2795 C2801 1.429 . S
C2796 C2788 1.574 1_556 S
C2796 H2791 0.949 . S
C2796 C2802 1.368 1_545 S
C2797 C2781 1.349 . S
C2797 H2789 0.950 . S
C2797 C2795 1.327 . S
C2798 C2786 1.353 1_545 S
C2798 H2792 0.950 . S
C2798 C2799 1.327 . S
C2799 H2793 0.950 . S
C2799 C2798 1.327 . S
C2799 C2803 1.429 1_545 S
C2800 C2783 1.574 1_554 S
C2800 H2794 0.949 . S
C2800 C2804 1.368 . S
C2801 C2782 1.429 1_565 S
C2801 C2795 1.429 . S
C2801 C2802 1.523 . S
C2802 C2783 1.368 . S
C2802 C2796 1.368 1_565 S
C2802 C2801 1.523 . S
C2803 C2787 1.429 . S
C2803 C2799 1.429 1_565 S
C2803 C2804 1.523 . S
C2804 C2788 1.368 1_565 S
C2804 C2800 1.368 . S
C2804 C2803 1.523 . S
H2805 C2780 0.950 . S
H2806 C2782 0.950 . S
H2807 C2783 0.949 . S
H2808 C2785 0.950 . S
H2809 C2787 0.950 . S
C2810 C2811 1.349 . S
C2810 C2812 1.327 . S
C2810 H2835 0.950 . S
C2811 C2810 1.349 . S
C2811 C2827 1.349 . S
C2812 C2810 1.327 . S
C2812 C2831 1.429 . S
C2812 H2836 0.950 . S
C2813 C2830 1.574 1_556 S
C2813 C2832 1.368 . S
C2813 H2837 0.949 . S
H2814 C2818 0.949 . S
C2815 C2816 1.349 . S
C2815 C2817 1.327 . S
C2815 H2838 0.950 . S
C2816 C2815 1.349 . S
C2816 C2828 1.349 . S
C2817 C2815 1.327 . S
C2817 C2833 1.429 . S
C2817 H2839 0.950 . S
C2818 H2814 0.949 . S
C2818 C2826 1.574 1_554 S
C2818 C2834 1.368 . S
H2819 C2827 0.950 . S
H2820 C2825 0.950 . S
H2821 C2826 0.949 . S
H2822 C2828 0.950 . S
H2823 C2829 0.950 . S
H2824 C2830 0.949 . S
C2825 H2820 0.950 . S
C2825 C2827 1.327 . S
C2825 C2831 1.429 . S
C2826 C2818 1.574 1_556 S
C2826 H2821 0.949 . S
C2826 C2832 1.368 . S
C2827 C2811 1.349 . S
C2827 H2819 0.950 . S
C2827 C2825 1.327 . S
C2828 C2816 1.349 . S
C2828 H2822 0.950 . S
C2828 C2829 1.327 . S
C2829 H2823 0.950 . S
C2829 C2828 1.327 . S
C2829 C2833 1.429 . S
C2830 C2813 1.574 1_554 S
C2830 H2824 0.949 . S
C2830 C2834 1.368 . S
C2831 C2812 1.429 . S
C2831 C2825 1.429 . S
C2831 C2832 1.523 . S
C2832 C2813 1.368 . S
C2832 C2826 1.368 . S
C2832 C2831 1.523 . S
C2833 C2817 1.429 . S
C2833 C2829 1.429 . S
C2833 C2834 1.523 . S
C2834 C2818 1.368 . S
C2834 C2830 1.368 . S
C2834 C2833 1.523 . S
H2835 C2810 0.950 . S
H2836 C2812 0.950 . S
H2837 C2813 0.949 . S
H2838 C2815 0.950 . S
H2839 C2817 0.950 . S
C2840 C2841 1.349 . S
C2840 C2842 1.327 1_554 S
C2840 H2865 0.950 . S
C2841 C2840 1.349 . S
C2841 C2857 1.349 . S
C2842 C2840 1.327 1_556 S
C2842 C2861 1.429 . S
C2842 H2866 0.950 . S
C2843 C2860 1.574 . S
C2843 C2862 1.368 . S
C2843 H2867 0.949 . S
H2844 C2848 0.949 . S
C2845 C2846 1.349 . S
C2845 C2847 1.327 . S
C2845 H2868 0.950 . S
C2846 C2845 1.349 . S
C2846 C2858 1.349 . S
C2847 C2845 1.327 . S
C2847 C2863 1.429 . S
C2847 H2869 0.950 . S
C2848 H2844 0.949 . S
C2848 C2856 1.574 . S
C2848 C2864 1.368 . S
H2849 C2857 0.950 . S
H2850 C2855 0.950 . S
H2851 C2856 0.949 . S
H2852 C2858 0.950 . S
H2853 C2859 0.950 . S
H2854 C2860 0.949 . S
C2855 H2850 0.950 . S
C2855 C2857 1.327 1_556 S
C2855 C2861 1.429 . S
C2856 C2848 1.574 . S
C2856 H2851 0.949 . S
C2856 C2862 1.368 . S
C2857 C2841 1.349 . S
C2857 H2849 0.950 . S
C2857 C2855 1.327 1_554 S
C2858 C2846 1.349 . S
C2858 H2852 0.950 . S
C2858 C2859 1.327 . S
C2859 H2853 0.950 . S
C2859 C2858 1.327 . S
C2859 C2863 1.429 . S
C2860 C2843 1.574 . S
C2860 H2854 0.949 . S
C2860 C2864 1.368 . S
C2861 C2842 1.429 . S
C2861 C2855 1.429 . S
C2861 C2862 1.523 . S
C2862 C2843 1.368 . S
C2862 C2856 1.368 . S
C2862 C2861 1.523 . S
C2863 C2847 1.429 . S
C2863 C2859 1.429 . S
C2863 C2864 1.523 . S
C2864 C2848 1.368 . S
C2864 C2860 1.368 . S
C2864 C2863 1.523 . S
H2865 C2840 0.950 . S
H2866 C2842 0.950 . S
H2867 C2843 0.949 . S
H2868 C2845 0.950 . S
H2869 C2847 0.950 . S
C2870 C2871 1.349 . S
C2870 C2872 1.327 . S
C2870 H2895 0.950 . S
C2871 C2870 1.349 . S
C2871 C2887 1.349 1_545 S
C2872 C2870 1.327 . S
C2872 C2891 1.429 . S
C2872 H2896 0.950 . S
C2873 C2890 1.574 . S
C2873 C2892 1.368 1_565 S
C2873 H2897 0.949 . S
H2874 C2878 0.949 . S
C2875 C2876 1.354 1_565 S
C2875 C2877 1.327 1_554 S
C2875 H2898 0.950 . S
C2876 C2875 1.354 1_545 S
C2876 C2888 1.344 . S
C2877 C2875 1.327 1_556 S
C2877 C2893 1.429 1_565 S
C2877 H2899 0.950 . S
C2878 H2874 0.949 . S
C2878 C2886 1.574 . S
C2878 C2894 1.368 . S
H2879 C2887 0.950 . S
H2880 C2885 0.950 . S
H2881 C2886 0.949 . S
H2882 C2888 0.950 . S
H2883 C2889 0.950 . S
H2884 C2890 0.949 . S
C2885 H2880 0.950 . S
C2885 C2887 1.327 . S
C2885 C2891 1.429 1_565 S
C2886 C2878 1.574 . S
C2886 H2881 0.949 . S
C2886 C2892 1.368 . S
C2887 C2871 1.349 1_565 S
C2887 H2879 0.950 . S
C2887 C2885 1.327 . S
C2888 C2876 1.344 . S
C2888 H2882 0.950 . S
C2888 C2889 1.327 1_554 S
C2889 H2883 0.950 . S
C2889 C2888 1.327 1_556 S
C2889 C2893 1.429 . S
C2890 C2873 1.574 . S
C2890 H2884 0.949 . S
C2890 C2894 1.368 1_565 S
C2891 C2872 1.429 . S
C2891 C2885 1.429 1_545 S
C2891 C2892 1.523 . S
C2892 C2873 1.368 1_545 S
C2892 C2886 1.368 . S
C2892 C2891 1.523 . S
C2893 C2877 1.429 1_545 S
C2893 C2889 1.429 . S
C2893 C2894 1.523 . S
C2894 C2878 1.368 . S
C2894 C2890 1.368 1_545 S
C2894 C2893 1.523 . S
H2895 C2870 0.950 . S
H2896 C2872 0.950 . S
H2897 C2873 0.949 . S
H2898 C2875 0.950 . S
H2899 C2877 0.950 . S
C2900 C2901 1.344 . S
C2900 C2902 1.327 . S
C2900 H2925 0.950 . S
C2901 C2900 1.344 . S
C2901 C2917 1.353 1_545 S
C2902 C2900 1.327 . S
C2902 C2921 1.429 . S
C2902 H2926 0.950 . S
C2903 C2920 1.574 1_556 S
C2903 C2922 1.368 1_565 S
C2903 H2927 0.949 . S
H2904 C2908 0.949 . S
C2905 C2906 1.349 1_565 S
C2905 C2907 1.327 . S
C2905 H2928 0.950 . S
C2906 C2905 1.349 1_545 S
C2906 C2918 1.349 . S
C2907 C2905 1.327 . S
C2907 C2923 1.429 1_565 S
C2907 H2929 0.950 . S
C2908 H2904 0.949 . S
C2908 C2916 1.574 1_554 S
C2908 C2924 1.368 . S
H2909 C2917 0.950 . S
H2910 C2915 0.950 . S
H2911 C2916 0.949 . S
H2912 C2918 0.950 . S
H2913 C2919 0.950 . S
H2914 C2920 0.949 . S
C2915 H2910 0.950 . S
C2915 C2917 1.327 . S
C2915 C2921 1.429 1_565 S
C2916 C2908 1.574 1_556 S
C2916 H2911 0.949 . S
C2916 C2922 1.368 . S
C2917 C2901 1.353 1_565 S
C2917 H2909 0.950 . S
C2917 C2915 1.327 . S
C2918 C2906 1.349 . S
C2918 H2912 0.950 . S
C2918 C2919 1.327 . S
C2919 H2913 0.950 . S
C2919 C2918 1.327 . S
C2919 C2923 1.429 . S
C2920 C2903 1.574 1_554 S
C2920 H2914 0.949 . S
C2920 C2924 1.368 1_565 S
C2921 C2902 1.429 . S
C2921 C2915 1.429 1_545 S
C2921 C2922 1.523 . S
C2922 C2903 1.368 1_545 S
C2922 C2916 1.368 . S
C2922 C2921 1.523 . S
C2923 C2907 1.429 1_545 S
C2923 C2919 1.429 . S
C2923 C2924 1.523 . S
C2924 C2908 1.368 . S
C2924 C2920 1.368 1_545 S
C2924 C2923 1.523 . S
H2925 C2900 0.950 . S
H2926 C2902 0.950 . S
H2927 C2903 0.949 . S
H2928 C2905 0.950 . S
H2929 C2907 0.950 . S
C2930 C2931 1.349 . S
C2930 C2932 1.327 . S
C2930 H2955 0.950 . S
C2931 C2930 1.349 . S
C2931 C2947 1.349 . S
C2932 C2930 1.327 . S
C2932 C2951 1.429 . S
C2932 H2956 0.950 . S
C2933 C2950 1.574 1_556 S
C2933 C2952 1.368 . S
C2933 H2957 0.949 . S
H2934 C2938 0.949 . S
C2935 C2936 1.349 . S
C2935 C2937 1.327 . S
C2935 H2958 0.950 . S
C2936 C2935 1.349 . S
C2936 C2948 1.349 . S
C2937 C2935 1.327 . S
C2937 C2953 1.429 . S
C2937 H2959 0.950 . S
C2938 H2934 0.949 . S
C2938 C2946 1.574 1_554 S
C2938 C2954 1.368 . S
H2939 C2947 0.950 . S
H2940 C2945 0.950 . S
H2941 C2946 0.949 . S
H2942 C2948 0.950 . S
H2943 C2949 0.950 . S
H2944 C2950 0.949 . S
C2945 H2940 0.950 . S
C2945 C2947 1.327 . S
C2945 C2951 1.429 . S
C2946 C2938 1.574 1_556 S
C2946 H2941 0.949 . S
C2946 C2952 1.368 . S
C2947 C2931 1.349 . S
C2947 H2939 0.950 . S
C2947 C2945 1.327 . S
C2948 C2936 1.349 . S
C2948 H2942 0.950 . S
C2948 C2949 1.327 . S
C2949 H2943 0.950 . S
C2949 C2948 1.327 . S
C2949 C2953 1.429 . S
C2950 C2933 1.574 1_554 S
C2950 H2944 0.949 . S
C2950 C2954 1.368 . S
C2951 C2932 1.429 . S
C2951 C2945 1.429 . S
C2951 C2952 1.523 . S
C2952 C2933 1.368 . S
C2952 C2946 1.368 . S
C2952 C2951 1.523 . S
C2953 C2937 1.429 . S
C2953 C2949 1.429 . S
C2953 C2954 1.523 . S
C2954 C2938 1.368 . S
C2954 C2950 1.368 . S
C2954 C2953 1.523 . S
H2955 C2930 0.950 . S
H2956 C2932 0.950 . S
H2957 C2933 0.949 . S
H2958 C2935 0.950 . S
H2959 C2937 0.950 . S
C2960 C2961 1.349 . S
C2960 C2962 1.327 . S
C2960 H2985 0.950 . S
C2961 C2960 1.349 . S
C2961 C2977 1.349 . S
C2962 C2960 1.327 . S
C2962 C2981 1.429 . S
C2962 H2986 0.950 . S
C2963 C2980 1.574 . S
C2963 C2982 1.368 . S
C2963 H2987 0.949 . S
H2964 C2968 0.949 . S
C2965 C2966 1.349 . S
C2965 C2967 1.327 . S
C2965 H2988 0.950 . S
C2966 C2965 1.349 . S
C2966 C2978 1.349 . S
C2967 C2965 1.327 . S
C2967 C2983 1.429 . S
C2967 H2989 0.950 . S
C2968 H2964 0.949 . S
C2968 C2976 1.574 . S
C2968 C2984 1.368 . S
H2969 C2977 0.950 . S
H2970 C2975 0.950 . S
H2971 C2976 0.949 . S
H2972 C2978 0.950 . S
H2973 C2979 0.950 . S
H2974 C2980 0.949 . S
C2975 H2970 0.950 . S
C2975 C2977 1.327 . S
C2975 C2981 1.429 . S
C2976 C2968 1.574 . S
C2976 H2971 0.949 . S
C2976 C2982 1.368 . S
C2977 C2961 1.349 . S
C2977 H2969 0.950 . S
C2977 C2975 1.327 . S
C2978 C2966 1.349 . S
C2978 H2972 0.950 . S
C2978 C2979 1.327 . S
C2979 H2973 0.950 . S
C2979 C2978 1.327 . S
C2979 C2983 1.429 . S
C2980 C2963 1.574 . S
C2980 H2974 0.949 . S
C2980 C2984 1.368 . S
C2981 C2962 1.429 . S
C2981 C2975 1.429 . S
C2981 C2982 1.523 . S
C2982 C2963 1.368 . S
C2982 C2976 1.368 . S
C2982 C2981 1.523 . S
C2983 C2967 1.429 . S
C2983 C2979 1.429 . S
C2983 C2984 1.523 . S
C2984 C2968 1.368 . S
C2984 C2980 1.368 . S
C2984 C2983 1.523 . S
H2985 C2960 0.950 . S
H2986 C2962 0.950 . S
H2987 C2963 0.949 . S
H2988 C2965 0.950 . S
H2989 C2967 0.950 . S
C2990 C2991 1.349 . S
C2990 C2992 1.327 . S
C2990 H3015 0.950 . S
C2991 C2990 1.349 . S
C2991 C3007 1.349 . S
C2992 C2990 1.327 . S
C2992 C3011 1.429 . S
C2992 H3016 0.950 . S
C2993 C3010 1.574 . S
C2993 C3012 1.368 . S
C2993 H3017 0.949 . S
H2994 C2998 0.949 . S
C2995 C2996 1.349 . S
C2995 C2997 1.327 . S
C2995 H3018 0.950 . S
C2996 C2995 1.349 . S
C2996 C3008 1.349 . S
C2997 C2995 1.327 . S
C2997 C3013 1.429 . S
C2997 H3019 0.950 . S
C2998 H2994 0.949 . S
C2998 C3006 1.574 . S
C2998 C3014 1.368 . S
H2999 C3007 0.950 . S
H3000 C3005 0.950 . S
H3001 C3006 0.949 . S
H3002 C3008 0.950 . S
H3003 C3009 0.950 . S
H3004 C3010 0.949 . S
C3005 H3000 0.950 . S
C3005 C3007 1.327 . S
C3005 C3011 1.429 . S
C3006 C2998 1.574 . S
C3006 H3001 0.949 . S
C3006 C3012 1.368 . S
C3007 C2991 1.349 . S
C3007 H2999 0.950 . S
C3007 C3005 1.327 . S
C3008 C2996 1.349 . S
C3008 H3002 0.950 . S
C3008 C3009 1.327 . S
C3009 H3003 0.950 . S
C3009 C3008 1.327 . S
C3009 C3013 1.429 . S
C3010 C2993 1.574 . S
C3010 H3004 0.949 . S
C3010 C3014 1.368 . S
C3011 C2992 1.429 . S
C3011 C3005 1.429 . S
C3011 C3012 1.523 . S
C3012 C2993 1.368 . S
C3012 C3006 1.368 . S
C3012 C3011 1.523 . S
C3013 C2997 1.429 . S
C3013 C3009 1.429 . S
C3013 C3014 1.523 . S
C3014 C2998 1.368 . S
C3014 C3010 1.368 . S
C3014 C3013 1.523 . S
H3015 C2990 0.950 . S
H3016 C2992 0.950 . S
H3017 C2993 0.949 . S
H3018 C2995 0.950 . S
H3019 C2997 0.950 . S
C3020 C3021 1.349 . S
C3020 C3022 1.327 . S
C3020 H3045 0.950 . S
C3021 C3020 1.349 . S
C3021 C3037 1.349 . S
C3022 C3020 1.327 . S
C3022 C3041 1.429 . S
C3022 H3046 0.950 . S
C3023 C3040 1.574 . S
C3023 C3042 1.368 . S
C3023 H3047 0.949 . S
H3024 C3028 0.949 . S
C3025 C3026 1.349 . S
C3025 C3027 1.327 . S
C3025 H3048 0.950 . S
C3026 C3025 1.349 . S
C3026 C3038 1.349 . S
C3027 C3025 1.327 . S
C3027 C3043 1.429 . S
C3027 H3049 0.950 . S
C3028 H3024 0.949 . S
C3028 C3036 1.574 . S
C3028 C3044 1.368 . S
H3029 C3037 0.950 . S
H3030 C3035 0.950 . S
H3031 C3036 0.949 . S
H3032 C3038 0.950 . S
H3033 C3039 0.950 . S
H3034 C3040 0.949 . S
C3035 H3030 0.950 . S
C3035 C3037 1.327 . S
C3035 C3041 1.429 . S
C3036 C3028 1.574 . S
C3036 H3031 0.949 . S
C3036 C3042 1.368 . S
C3037 C3021 1.349 . S
C3037 H3029 0.950 . S
C3037 C3035 1.327 . S
C3038 C3026 1.349 . S
C3038 H3032 0.950 . S
C3038 C3039 1.327 . S
C3039 H3033 0.950 . S
C3039 C3038 1.327 . S
C3039 C3043 1.429 . S
C3040 C3023 1.574 . S
C3040 H3034 0.949 . S
C3040 C3044 1.368 . S
C3041 C3022 1.429 . S
C3041 C3035 1.429 . S
C3041 C3042 1.523 . S
C3042 C3023 1.368 . S
C3042 C3036 1.368 . S
C3042 C3041 1.523 . S
C3043 C3027 1.429 . S
C3043 C3039 1.429 . S
C3043 C3044 1.523 . S
C3044 C3028 1.368 . S
C3044 C3040 1.368 . S
C3044 C3043 1.523 . S
H3045 C3020 0.950 . S
H3046 C3022 0.950 . S
H3047 C3023 0.949 . S
H3048 C3025 0.950 . S
H3049 C3027 0.950 . S
C3050 C3051 1.349 . S
C3050 C3052 1.327 . S
C3050 H3075 0.950 . S
C3051 C3050 1.349 . S
C3051 C3067 1.349 . S
C3052 C3050 1.327 . S
C3052 C3071 1.429 . S
C3052 H3076 0.950 . S
C3053 C3070 1.574 . S
C3053 C3072 1.368 . S
C3053 H3077 0.949 . S
H3054 C3058 0.949 . S
C3055 C3056 1.349 . S
C3055 C3057 1.327 . S
C3055 H3078 0.950 . S
C3056 C3055 1.349 . S
C3056 C3068 1.349 . S
C3057 C3055 1.327 . S
C3057 C3073 1.429 . S
C3057 H3079 0.950 . S
C3058 H3054 0.949 . S
C3058 C3066 1.574 . S
C3058 C3074 1.368 . S
H3059 C3067 0.950 . S
H3060 C3065 0.950 . S
H3061 C3066 0.949 . S
H3062 C3068 0.950 . S
H3063 C3069 0.950 . S
H3064 C3070 0.949 . S
C3065 H3060 0.950 . S
C3065 C3067 1.327 . S
C3065 C3071 1.429 . S
C3066 C3058 1.574 . S
C3066 H3061 0.949 . S
C3066 C3072 1.368 . S
C3067 C3051 1.349 . S
C3067 H3059 0.950 . S
C3067 C3065 1.327 . S
C3068 C3056 1.349 . S
C3068 H3062 0.950 . S
C3068 C3069 1.327 . S
C3069 H3063 0.950 . S
C3069 C3068 1.327 . S
C3069 C3073 1.429 . S
C3070 C3053 1.574 . S
C3070 H3064 0.949 . S
C3070 C3074 1.368 . S
C3071 C3052 1.429 . S
C3071 C3065 1.429 . S
C3071 C3072 1.523 . S
C3072 C3053 1.368 . S
C3072 C3066 1.368 . S
C3072 C3071 1.523 . S
C3073 C3057 1.429 . S
C3073 C3069 1.429 . S
C3073 C3074 1.523 . S
C3074 C3058 1.368 . S
C3074 C3070 1.368 . S
C3074 C3073 1.523 . S
H3075 C3050 0.950 . S
H3076 C3052 0.950 . S
H3077 C3053 0.949 . S
H3078 C3055 0.950 . S
H3079 C3057 0.950 . S
C3080 C3081 1.349 . S
C3080 C3082 1.327 . S
C3080 H3105 0.950 . S
C3081 C3080 1.349 . S
C3081 C3097 1.349 . S
C3082 C3080 1.327 . S
C3082 C3101 1.429 . S
C3082 H3106 0.950 . S
C3083 C3100 1.574 . S
C3083 C3102 1.368 . S
C3083 H3107 0.949 . S
H3084 C3088 0.949 . S
C3085 C3086 1.349 . S
C3085 C3087 1.327 . S
C3085 H3108 0.950 . S
C3086 C3085 1.349 . S
C3086 C3098 1.349 . S
C3087 C3085 1.327 . S
C3087 C3103 1.429 . S
C3087 H3109 0.950 . S
C3088 H3084 0.949 . S
C3088 C3096 1.574 . S
C3088 C3104 1.368 . S
H3089 C3097 0.950 . S
H3090 C3095 0.950 . S
H3091 C3096 0.949 . S
H3092 C3098 0.950 . S
H3093 C3099 0.950 . S
H3094 C3100 0.949 . S
C3095 H3090 0.950 . S
C3095 C3097 1.327 . S
C3095 C3101 1.429 . S
C3096 C3088 1.574 . S
C3096 H3091 0.949 . S
C3096 C3102 1.368 . S
C3097 C3081 1.349 . S
C3097 H3089 0.950 . S
C3097 C3095 1.327 . S
C3098 C3086 1.349 . S
C3098 H3092 0.950 . S
C3098 C3099 1.327 . S
C3099 H3093 0.950 . S
C3099 C3098 1.327 . S
C3099 C3103 1.429 . S
C3100 C3083 1.574 . S
C3100 H3094 0.949 . S
C3100 C3104 1.368 . S
C3101 C3082 1.429 . S
C3101 C3095 1.429 . S
C3101 C3102 1.523 . S
C3102 C3083 1.368 . S
C3102 C3096 1.368 . S
C3102 C3101 1.523 . S
C3103 C3087 1.429 . S
C3103 C3099 1.429 . S
C3103 C3104 1.523 . S
C3104 C3088 1.368 . S
C3104 C3100 1.368 . S
C3104 C3103 1.523 . S
H3105 C3080 0.950 . S
H3106 C3082 0.950 . S
H3107 C3083 0.949 . S
H3108 C3085 0.950 . S
H3109 C3087 0.950 . S
C3110 C3111 1.349 . S
C3110 C3112 1.327 . S
C3110 H3135 0.950 . S
C3111 C3110 1.349 . S
C3111 C3127 1.349 . S
C3112 C3110 1.327 . S
C3112 C3131 1.429 . S
C3112 H3136 0.950 . S
C3113 C3130 1.574 . S
C3113 C3132 1.368 . S
C3113 H3137 0.949 . S
H3114 C3118 0.949 . S
C3115 C3116 1.349 . S
C3115 C3117 1.327 . S
C3115 H3138 0.950 . S
C3116 C3115 1.349 . S
C3116 C3128 1.349 . S
C3117 C3115 1.327 . S
C3117 C3133 1.429 . S
C3117 H3139 0.950 . S
C3118 H3114 0.949 . S
C3118 C3126 1.574 . S
C3118 C3134 1.368 . S
H3119 C3127 0.950 . S
H3120 C3125 0.950 . S
H3121 C3126 0.949 . S
H3122 C3128 0.950 . S
H3123 C3129 0.950 . S
H3124 C3130 0.949 . S
C3125 H3120 0.950 . S
C3125 C3127 1.327 . S
C3125 C3131 1.429 . S
C3126 C3118 1.574 . S
C3126 H3121 0.949 . S
C3126 C3132 1.368 . S
C3127 C3111 1.349 . S
C3127 H3119 0.950 . S
C3127 C3125 1.327 . S
C3128 C3116 1.349 . S
C3128 H3122 0.950 . S
C3128 C3129 1.327 . S
C3129 H3123 0.950 . S
C3129 C3128 1.327 . S
C3129 C3133 1.429 . S
C3130 C3113 1.574 . S
C3130 H3124 0.949 . S
C3130 C3134 1.368 . S
C3131 C3112 1.429 . S
C3131 C3125 1.429 . S
C3131 C3132 1.523 . S
C3132 C3113 1.368 . S
C3132 C3126 1.368 . S
C3132 C3131 1.523 . S
C3133 C3117 1.429 . S
C3133 C3129 1.429 . S
C3133 C3134 1.523 . S
C3134 C3118 1.368 . S
C3134 C3130 1.368 . S
C3134 C3133 1.523 . S
H3135 C3110 0.950 . S
H3136 C3112 0.950 . S
H3137 C3113 0.949 . S
H3138 C3115 0.950 . S
H3139 C3117 0.950 . S
C3140 C3141 1.349 . S
C3140 C3142 1.327 . S
C3140 H3165 0.950 . S
C3141 C3140 1.349 . S
C3141 C3157 1.349 . S
C3142 C3140 1.327 . S
C3142 C3161 1.429 . S
C3142 H3166 0.950 . S
C3143 C3160 1.574 . S
C3143 C3162 1.368 . S
C3143 H3167 0.949 . S
H3144 C3148 0.949 . S
C3145 C3146 1.349 . S
C3145 C3147 1.327 . S
C3145 H3168 0.950 . S
C3146 C3145 1.349 . S
C3146 C3158 1.349 . S
C3147 C3145 1.327 . S
C3147 C3163 1.429 . S
C3147 H3169 0.950 . S
C3148 H3144 0.949 . S
C3148 C3156 1.574 . S
C3148 C3164 1.368 . S
H3149 C3157 0.950 . S
H3150 C3155 0.950 . S
H3151 C3156 0.949 . S
H3152 C3158 0.950 . S
H3153 C3159 0.950 . S
H3154 C3160 0.949 . S
C3155 H3150 0.950 . S
C3155 C3157 1.327 . S
C3155 C3161 1.429 . S
C3156 C3148 1.574 . S
C3156 H3151 0.949 . S
C3156 C3162 1.368 . S
C3157 C3141 1.349 . S
C3157 H3149 0.950 . S
C3157 C3155 1.327 . S
C3158 C3146 1.349 . S
C3158 H3152 0.950 . S
C3158 C3159 1.327 . S
C3159 H3153 0.950 . S
C3159 C3158 1.327 . S
C3159 C3163 1.429 . S
C3160 C3143 1.574 . S
C3160 H3154 0.949 . S
C3160 C3164 1.368 . S
C3161 C3142 1.429 . S
C3161 C3155 1.429 . S
C3161 C3162 1.523 . S
C3162 C3143 1.368 . S
C3162 C3156 1.368 . S
C3162 C3161 1.523 . S
C3163 C3147 1.429 . S
C3163 C3159 1.429 . S
C3163 C3164 1.523 . S
C3164 C3148 1.368 . S
C3164 C3160 1.368 . S
C3164 C3163 1.523 . S
H3165 C3140 0.950 . S
H3166 C3142 0.950 . S
H3167 C3143 0.949 . S
H3168 C3145 0.950 . S
H3169 C3147 0.950 . S
C3170 C3171 1.349 . S
C3170 C3172 1.327 . S
C3170 H3195 0.950 . S
C3171 C3170 1.349 . S
C3171 C3187 1.349 . S
C3172 C3170 1.327 . S
C3172 C3191 1.429 . S
C3172 H3196 0.950 . S
C3173 C3190 1.574 . S
C3173 C3192 1.368 . S
C3173 H3197 0.949 . S
H3174 C3178 0.949 . S
C3175 C3176 1.349 . S
C3175 C3177 1.327 . S
C3175 H3198 0.950 . S
C3176 C3175 1.349 . S
C3176 C3188 1.349 . S
C3177 C3175 1.327 . S
C3177 C3193 1.429 . S
C3177 H3199 0.950 . S
C3178 H3174 0.949 . S
C3178 C3186 1.574 . S
C3178 C3194 1.368 . S
H3179 C3187 0.950 . S
H3180 C3185 0.950 . S
H3181 C3186 0.949 . S
H3182 C3188 0.950 . S
H3183 C3189 0.950 . S
H3184 C3190 0.949 . S
C3185 H3180 0.950 . S
C3185 C3187 1.327 . S
C3185 C3191 1.429 . S
C3186 C3178 1.574 . S
C3186 H3181 0.949 . S
C3186 C3192 1.368 . S
C3187 C3171 1.349 . S
C3187 H3179 0.950 . S
C3187 C3185 1.327 . S
C3188 C3176 1.349 . S
C3188 H3182 0.950 . S
C3188 C3189 1.327 . S
C3189 H3183 0.950 . S
C3189 C3188 1.327 . S
C3189 C3193 1.429 . S
C3190 C3173 1.574 . S
C3190 H3184 0.949 . S
C3190 C3194 1.368 . S
C3191 C3172 1.429 . S
C3191 C3185 1.429 . S
C3191 C3192 1.523 . S
C3192 C3173 1.368 . S
C3192 C3186 1.368 . S
C3192 C3191 1.523 . S
C3193 C3177 1.429 . S
C3193 C3189 1.429 . S
C3193 C3194 1.523 . S
C3194 C3178 1.368 . S
C3194 C3190 1.368 . S
C3194 C3193 1.523 . S
H3195 C3170 0.950 . S
H3196 C3172 0.950 . S
H3197 C3173 0.949 . S
H3198 C3175 0.950 . S
H3199 C3177 0.950 . S
C3200 C3201 1.349 . S
C3200 C3202 1.327 . S
C3200 H3225 0.950 . S
C3201 C3200 1.349 . S
C3201 C3217 1.349 . S
C3202 C3200 1.327 . S
C3202 C3221 1.429 . S
C3202 H3226 0.950 . S
C3203 C3220 1.574 . S
C3203 C3222 1.368 . S
C3203 H3227 0.949 . S
H3204 C3208 0.949 . S
C3205 C3206 1.349 . S
C3205 C3207 1.327 . S
C3205 H3228 0.950 . S
C3206 C3205 1.349 . S
C3206 C3218 1.349 . S
C3207 C3205 1.327 . S
C3207 C3223 1.429 . S
C3207 H3229 0.950 . S
C3208 H3204 0.949 . S
C3208 C3216 1.574 . S
C3208 C3224 1.368 . S
H3209 C3217 0.950 . S
H3210 C3215 0.950 . S
H3211 C3216 0.949 . S
H3212 C3218 0.950 . S
H3213 C3219 0.950 . S
H3214 C3220 0.949 . S
C3215 H3210 0.950 . S
C3215 C3217 1.327 . S
C3215 C3221 1.429 . S
C3216 C3208 1.574 . S
C3216 H3211 0.949 . S
C3216 C3222 1.368 . S
C3217 C3201 1.349 . S
C3217 H3209 0.950 . S
C3217 C3215 1.327 . S
C3218 C3206 1.349 . S
C3218 H3212 0.950 . S
C3218 C3219 1.327 . S
C3219 H3213 0.950 . S
C3219 C3218 1.327 . S
C3219 C3223 1.429 . S
C3220 C3203 1.574 . S
C3220 H3214 0.949 . S
C3220 C3224 1.368 . S
C3221 C3202 1.429 . S
C3221 C3215 1.429 . S
C3221 C3222 1.523 . S
C3222 C3203 1.368 . S
C3222 C3216 1.368 . S
C3222 C3221 1.523 . S
C3223 C3207 1.429 . S
C3223 C3219 1.429 . S
C3223 C3224 1.523 . S
C3224 C3208 1.368 . S
C3224 C3220 1.368 . S
C3224 C3223 1.523 . S
H3225 C3200 0.950 . S
H3226 C3202 0.950 . S
H3227 C3203 0.949 . S
H3228 C3205 0.950 . S
H3229 C3207 0.950 . S
C3230 C3231 1.349 . S
C3230 C3232 1.327 . S
C3230 H3255 0.950 . S
C3231 C3230 1.349 . S
C3231 C3247 1.349 . S
C3232 C3230 1.327 . S
C3232 C3251 1.429 . S
C3232 H3256 0.950 . S
C3233 C3250 1.574 . S
C3233 C3252 1.368 . S
C3233 H3257 0.949 . S
H3234 C3238 0.949 . S
C3235 C3236 1.349 . S
C3235 C3237 1.327 . S
C3235 H3258 0.950 . S
C3236 C3235 1.349 . S
C3236 C3248 1.349 . S
C3237 C3235 1.327 . S
C3237 C3253 1.429 . S
C3237 H3259 0.950 . S
C3238 H3234 0.949 . S
C3238 C3246 1.574 . S
C3238 C3254 1.368 . S
H3239 C3247 0.950 . S
H3240 C3245 0.950 . S
H3241 C3246 0.949 . S
H3242 C3248 0.950 . S
H3243 C3249 0.950 . S
H3244 C3250 0.949 . S
C3245 H3240 0.950 . S
C3245 C3247 1.327 . S
C3245 C3251 1.429 . S
C3246 C3238 1.574 . S
C3246 H3241 0.949 . S
C3246 C3252 1.368 . S
C3247 C3231 1.349 . S
C3247 H3239 0.950 . S
C3247 C3245 1.327 . S
C3248 C3236 1.349 . S
C3248 H3242 0.950 . S
C3248 C3249 1.327 . S
C3249 H3243 0.950 . S
C3249 C3248 1.327 . S
C3249 C3253 1.429 . S
C3250 C3233 1.574 . S
C3250 H3244 0.949 . S
C3250 C3254 1.368 . S
C3251 C3232 1.429 . S
C3251 C3245 1.429 . S
C3251 C3252 1.523 . S
C3252 C3233 1.368 . S
C3252 C3246 1.368 . S
C3252 C3251 1.523 . S
C3253 C3237 1.429 . S
C3253 C3249 1.429 . S
C3253 C3254 1.523 . S
C3254 C3238 1.368 . S
C3254 C3250 1.368 . S
C3254 C3253 1.523 . S
H3255 C3230 0.950 . S
H3256 C3232 0.950 . S
H3257 C3233 0.949 . S
H3258 C3235 0.950 . S
H3259 C3237 0.950 . S
C3260 C3261 1.349 . S
C3260 C3262 1.327 . S
C3260 H3285 0.950 . S
C3261 C3260 1.349 . S
C3261 C3277 1.349 . S
C3262 C3260 1.327 . S
C3262 C3281 1.429 . S
C3262 H3286 0.950 . S
C3263 C3280 1.574 . S
C3263 C3282 1.368 . S
C3263 H3287 0.949 . S
H3264 C3268 0.949 . S
C3265 C3266 1.349 . S
C3265 C3267 1.327 . S
C3265 H3288 0.950 . S
C3266 C3265 1.349 . S
C3266 C3278 1.349 . S
C3267 C3265 1.327 . S
C3267 C3283 1.429 . S
C3267 H3289 0.950 . S
C3268 H3264 0.949 . S
C3268 C3276 1.574 . S
C3268 C3284 1.368 . S
H3269 C3277 0.950 1_554 S
H3270 C3275 0.950 . S
H3271 C3276 0.949 . S
H3272 C3278 0.950 . S
H3273 C3279 0.950 . S
H3274 C3280 0.949 . S
C3275 H3270 0.950 . S
C3275 C3277 1.327 . S
C3275 C3281 1.429 . S
C3276 C3268 1.574 . S
C3276 H3271 0.949 . S
C3276 C3282 1.368 . S
C3277 C3261 1.349 . S
C3277 H3269 0.950 1_556 S
C3277 C3275 1.327 . S
C3278 C3266 1.349 . S
C3278 H3272 0.950 . S
C3278 C3279 1.327 . S
C3279 H3273 0.950 . S
C3279 C3278 1.327 . S
C3279 C3283 1.429 . S
C3280 C3263 1.574 . S
C3280 H3274 0.949 . S
C3280 C3284 1.368 . S
C3281 C3262 1.429 . S
C3281 C3275 1.429 . S
C3281 C3282 1.523 . S
C3282 C3263 1.368 . S
C3282 C3276 1.368 . S
C3282 C3281 1.523 . S
C3283 C3267 1.429 . S
C3283 C3279 1.429 . S
C3283 C3284 1.523 . S
C3284 C3268 1.368 . S
C3284 C3280 1.368 . S
C3284 C3283 1.523 . S
H3285 C3260 0.950 . S
H3286 C3262 0.950 . S
H3287 C3263 0.949 . S
H3288 C3265 0.950 . S
H3289 C3267 0.950 . S
C3290 C3291 1.349 . S
C3290 C3292 1.327 . S
C3290 H3315 0.950 . S
C3291 C3290 1.349 . S
C3291 C3307 1.349 . S
C3292 C3290 1.327 . S
C3292 C3311 1.429 . S
C3292 H3316 0.950 . S
C3293 C3310 1.574 . S
C3293 C3312 1.368 . S
C3293 H3317 0.949 . S
H3294 C3298 0.949 . S
C3295 C3296 1.349 . S
C3295 C3297 1.327 . S
C3295 H3318 0.950 . S
C3296 C3295 1.349 . S
C3296 C3308 1.349 1_556 S
C3297 C3295 1.327 . S
C3297 C3313 1.429 . S
C3297 H3319 0.950 . S
C3298 H3294 0.949 . S
C3298 C3306 1.574 . S
C3298 C3314 1.368 . S
H3299 C3307 0.950 . S
H3300 C3305 0.950 . S
H3301 C3306 0.949 . S
H3302 C3308 0.950 . S
H3303 C3309 0.950 1_554 S
H3304 C3310 0.949 . S
C3305 H3300 0.950 . S
C3305 C3307 1.327 . S
C3305 C3311 1.429 . S
C3306 C3298 1.574 . S
C3306 H3301 0.949 . S
C3306 C3312 1.368 . S
C3307 C3291 1.349 . S
C3307 H3299 0.950 . S
C3307 C3305 1.327 . S
C3308 C3296 1.349 1_554 S
C3308 H3302 0.950 . S
C3308 C3309 1.327 1_554 S
C3309 H3303 0.950 1_556 S
C3309 C3308 1.327 1_556 S
C3309 C3313 1.429 . S
C3310 C3293 1.574 . S
C3310 H3304 0.949 . S
C3310 C3314 1.368 . S
C3311 C3292 1.429 . S
C3311 C3305 1.429 . S
C3311 C3312 1.523 . S
C3312 C3293 1.368 . S
C3312 C3306 1.368 . S
C3312 C3311 1.523 . S
C3313 C3297 1.429 . S
C3313 C3309 1.429 . S
C3313 C3314 1.523 . S
C3314 C3298 1.368 . S
C3314 C3310 1.368 . S
C3314 C3313 1.523 . S
H3315 C3290 0.950 . S
H3316 C3292 0.950 . S
H3317 C3293 0.949 . S
H3318 C3295 0.950 . S
H3319 C3297 0.950 . S
C3320 C3321 1.349 . S
C3320 C3322 1.327 . S
C3320 H3345 0.950 . S
C3321 C3320 1.349 . S
C3321 C3337 1.349 . S
C3322 C3320 1.327 . S
C3322 C3341 1.429 . S
C3322 H3346 0.950 . S
C3323 C3340 1.574 . S
C3323 C3342 1.368 . S
C3323 H3347 0.949 . S
H3324 C3328 0.949 . S
C3325 C3326 1.349 . S
C3325 C3327 1.327 . S
C3325 H3348 0.950 . S
C3326 C3325 1.349 . S
C3326 C3338 1.349 . S
C3327 C3325 1.327 . S
C3327 C3343 1.429 . S
C3327 H3349 0.950 . S
C3328 H3324 0.949 . S
C3328 C3336 1.574 . S
C3328 C3344 1.368 . S
H3329 C3337 0.950 . S
H3330 C3335 0.950 . S
H3331 C3336 0.949 . S
H3332 C3338 0.950 . S
H3333 C3339 0.950 . S
H3334 C3340 0.949 . S
C3335 H3330 0.950 . S
C3335 C3337 1.327 . S
C3335 C3341 1.429 . S
C3336 C3328 1.574 . S
C3336 H3331 0.949 . S
C3336 C3342 1.368 . S
C3337 C3321 1.349 . S
C3337 H3329 0.950 . S
C3337 C3335 1.327 . S
C3338 C3326 1.349 . S
C3338 H3332 0.950 . S
C3338 C3339 1.327 . S
C3339 H3333 0.950 . S
C3339 C3338 1.327 . S
C3339 C3343 1.429 . S
C3340 C3323 1.574 . S
C3340 H3334 0.949 . S
C3340 C3344 1.368 . S
C3341 C3322 1.429 . S
C3341 C3335 1.429 . S
C3341 C3342 1.523 . S
C3342 C3323 1.368 . S
C3342 C3336 1.368 . S
C3342 C3341 1.523 . S
C3343 C3327 1.429 . S
C3343 C3339 1.429 . S
C3343 C3344 1.523 . S
C3344 C3328 1.368 . S
C3344 C3340 1.368 . S
C3344 C3343 1.523 . S
H3345 C3320 0.950 . S
H3346 C3322 0.950 . S
H3347 C3323 0.949 . S
H3348 C3325 0.950 . S
H3349 C3327 0.950 . S
C3350 C3351 1.349 . S
C3350 C3352 1.327 . S
C3350 H3375 0.950 . S
C3351 C3350 1.349 . S
C3351 C3367 1.349 . S
C3352 C3350 1.327 . S
C3352 C3371 1.429 . S
C3352 H3376 0.950 . S
C3353 C3370 1.574 . S
C3353 C3372 1.368 . S
C3353 H3377 0.949 . S
H3354 C3358 0.949 . S
C3355 C3356 1.349 . S
C3355 C3357 1.327 . S
C3355 H3378 0.950 . S
C3356 C3355 1.349 . S
C3356 C3368 1.349 . S
C3357 C3355 1.327 . S
C3357 C3373 1.429 . S
C3357 H3379 0.950 . S
C3358 H3354 0.949 . S
C3358 C3366 1.574 . S
C3358 C3374 1.368 . S
H3359 C3367 0.950 . S
H3360 C3365 0.950 . S
H3361 C3366 0.949 . S
H3362 C3368 0.950 . S
H3363 C3369 0.950 . S
H3364 C3370 0.949 . S
C3365 H3360 0.950 . S
C3365 C3367 1.327 . S
C3365 C3371 1.429 . S
C3366 C3358 1.574 . S
C3366 H3361 0.949 . S
C3366 C3372 1.368 . S
C3367 C3351 1.349 . S
C3367 H3359 0.950 . S
C3367 C3365 1.327 . S
C3368 C3356 1.349 . S
C3368 H3362 0.950 . S
C3368 C3369 1.327 . S
C3369 H3363 0.950 . S
C3369 C3368 1.327 . S
C3369 C3373 1.429 . S
C3370 C3353 1.574 . S
C3370 H3364 0.949 . S
C3370 C3374 1.368 . S
C3371 C3352 1.429 . S
C3371 C3365 1.429 . S
C3371 C3372 1.523 . S
C3372 C3353 1.368 . S
C3372 C3366 1.368 . S
C3372 C3371 1.523 . S
C3373 C3357 1.429 . S
C3373 C3369 1.429 . S
C3373 C3374 1.523 . S
C3374 C3358 1.368 . S
C3374 C3370 1.368 . S
C3374 C3373 1.523 . S
H3375 C3350 0.950 . S
H3376 C3352 0.950 . S
H3377 C3353 0.949 . S
H3378 C3355 0.950 . S
H3379 C3357 0.950 . S
C3380 C3381 1.349 . S
C3380 C3382 1.327 . S
C3380 H3405 0.950 . S
C3381 C3380 1.349 . S
C3381 C3397 1.349 1_554 S
C3382 C3380 1.327 . S
C3382 C3401 1.429 . S
C3382 H3406 0.950 . S
C3383 C3400 1.574 . S
C3383 C3402 1.368 . S
C3383 H3407 0.949 . S
H3384 C3388 0.949 . S
C3385 C3386 1.349 . S
C3385 C3387 1.327 . S
C3385 H3408 0.950 . S
C3386 C3385 1.349 . S
C3386 C3398 1.349 . S
C3387 C3385 1.327 . S
C3387 C3403 1.429 . S
C3387 H3409 0.950 . S
C3388 H3384 0.949 . S
C3388 C3396 1.574 . S
C3388 C3404 1.368 . S
H3389 C3397 0.950 . S
H3390 C3395 0.950 1_556 S
H3391 C3396 0.949 . S
H3392 C3398 0.950 . S
H3393 C3399 0.950 . S
H3394 C3400 0.949 . S
C3395 H3390 0.950 1_554 S
C3395 C3397 1.327 1_554 S
C3395 C3401 1.429 . S
C3396 C3388 1.574 . S
C3396 H3391 0.949 . S
C3396 C3402 1.368 . S
C3397 C3381 1.349 1_556 S
C3397 H3389 0.950 . S
C3397 C3395 1.327 1_556 S
C3398 C3386 1.349 . S
C3398 H3392 0.950 . S
C3398 C3399 1.327 . S
C3399 H3393 0.950 . S
C3399 C3398 1.327 . S
C3399 C3403 1.429 . S
C3400 C3383 1.574 . S
C3400 H3394 0.949 . S
C3400 C3404 1.368 . S
C3401 C3382 1.429 . S
C3401 C3395 1.429 . S
C3401 C3402 1.523 . S
C3402 C3383 1.368 . S
C3402 C3396 1.368 . S
C3402 C3401 1.523 . S
C3403 C3387 1.429 . S
C3403 C3399 1.429 . S
C3403 C3404 1.523 . S
C3404 C3388 1.368 . S
C3404 C3400 1.368 . S
C3404 C3403 1.523 . S
H3405 C3380 0.950 . S
H3406 C3382 0.950 . S
H3407 C3383 0.949 . S
H3408 C3385 0.950 . S
H3409 C3387 0.950 . S
C3410 C3411 1.349 . S
C3410 C3412 1.327 . S
C3410 H3435 0.950 1_554 S
C3411 C3410 1.349 . S
C3411 C3427 1.349 . S
C3412 C3410 1.327 . S
C3412 C3431 1.429 . S
C3412 H3436 0.950 . S
C3413 C3430 1.574 . S
C3413 C3432 1.368 . S
C3413 H3437 0.949 . S
H3414 C3418 0.949 . S
C3415 C3416 1.349 . S
C3415 C3417 1.327 . S
C3415 H3438 0.950 . S
C3416 C3415 1.349 . S
C3416 C3428 1.349 . S
C3417 C3415 1.327 . S
C3417 C3433 1.429 . S
C3417 H3439 0.950 . S
C3418 H3414 0.949 . S
C3418 C3426 1.574 . S
C3418 C3434 1.368 . S
H3419 C3427 0.950 . S
H3420 C3425 0.950 . S
H3421 C3426 0.949 . S
H3422 C3428 0.950 . S
H3423 C3429 0.950 . S
H3424 C3430 0.949 . S
C3425 H3420 0.950 . S
C3425 C3427 1.327 . S
C3425 C3431 1.429 . S
C3426 C3418 1.574 . S
C3426 H3421 0.949 . S
C3426 C3432 1.368 . S
C3427 C3411 1.349 . S
C3427 H3419 0.950 . S
C3427 C3425 1.327 . S
C3428 C3416 1.349 . S
C3428 H3422 0.950 . S
C3428 C3429 1.327 . S
C3429 H3423 0.950 . S
C3429 C3428 1.327 . S
C3429 C3433 1.429 . S
C3430 C3413 1.574 . S
C3430 H3424 0.949 . S
C3430 C3434 1.368 . S
C3431 C3412 1.429 . S
C3431 C3425 1.429 . S
C3431 C3432 1.523 . S
C3432 C3413 1.368 . S
C3432 C3426 1.368 . S
C3432 C3431 1.523 . S
C3433 C3417 1.429 . S
C3433 C3429 1.429 . S
C3433 C3434 1.523 . S
C3434 C3418 1.368 . S
C3434 C3430 1.368 . S
C3434 C3433 1.523 . S
H3435 C3410 0.950 1_556 S
H3436 C3412 0.950 . S
H3437 C3413 0.949 . S
H3438 C3415 0.950 . S
H3439 C3417 0.950 . S
C3440 C3441 1.349 1_554 S
C3440 C3442 1.327 1_554 S
C3440 H3465 0.950 . S
C3441 C3440 1.349 1_556 S
C3441 C3457 1.349 . S
C3442 C3440 1.327 1_556 S
C3442 C3461 1.429 . S
C3442 H3466 0.950 1_556 S
C3443 C3460 1.574 . S
C3443 C3462 1.368 . S
C3443 H3467 0.949 . S
H3444 C3448 0.949 . S
C3445 C3446 1.349 . S
C3445 C3447 1.327 . S
C3445 H3468 0.950 . S
C3446 C3445 1.349 . S
C3446 C3458 1.349 . S
C3447 C3445 1.327 . S
C3447 C3463 1.429 . S
C3447 H3469 0.950 . S
C3448 H3444 0.949 . S
C3448 C3456 1.574 . S
C3448 C3464 1.368 . S
H3449 C3457 0.950 . S
H3450 C3455 0.950 . S
H3451 C3456 0.949 . S
H3452 C3458 0.950 . S
H3453 C3459 0.950 . S
H3454 C3460 0.949 . S
C3455 H3450 0.950 . S
C3455 C3457 1.327 . S
C3455 C3461 1.429 . S
C3456 C3448 1.574 . S
C3456 H3451 0.949 . S
C3456 C3462 1.368 . S
C3457 C3441 1.349 . S
C3457 H3449 0.950 . S
C3457 C3455 1.327 . S
C3458 C3446 1.349 . S
C3458 H3452 0.950 . S
C3458 C3459 1.327 . S
C3459 H3453 0.950 . S
C3459 C3458 1.327 . S
C3459 C3463 1.429 . S
C3460 C3443 1.574 . S
C3460 H3454 0.949 . S
C3460 C3464 1.368 . S
C3461 C3442 1.429 . S
C3461 C3455 1.429 . S
C3461 C3462 1.523 . S
C3462 C3443 1.368 . S
C3462 C3456 1.368 . S
C3462 C3461 1.523 . S
C3463 C3447 1.429 . S
C3463 C3459 1.429 . S
C3463 C3464 1.523 . S
C3464 C3448 1.368 . S
C3464 C3460 1.368 . S
C3464 C3463 1.523 . S
H3465 C3440 0.950 . S
H3466 C3442 0.950 1_554 S
H3467 C3443 0.949 . S
H3468 C3445 0.950 . S
H3469 C3447 0.950 . S
C3470 C3471 1.349 . S
C3470 C3472 1.327 . S
C3470 H3495 0.950 . S
C3471 C3470 1.349 . S
C3471 C3487 1.349 . S
C3472 C3470 1.327 . S
C3472 C3491 1.429 . S
C3472 H3496 0.950 . S
C3473 C3490 1.574 . S
C3473 C3492 1.368 . S
C3473 H3497 0.949 . S
H3474 C3478 0.949 . S
C3475 C3476 1.349 1_554 S
C3475 C3477 1.327 1_554 S
C3475 H3498 0.950 . S
C3476 C3475 1.349 1_556 S
C3476 C3488 1.349 . S
C3477 C3475 1.327 1_556 S
C3477 C3493 1.429 . S
C3477 H3499 0.950 1_556 S
C3478 H3474 0.949 . S
C3478 C3486 1.574 . S
C3478 C3494 1.368 . S
H3479 C3487 0.950 . S
H3480 C3485 0.950 . S
H3481 C3486 0.949 . S
H3482 C3488 0.950 . S
H3483 C3489 0.950 . S
H3484 C3490 0.949 . S
C3485 H3480 0.950 . S
C3485 C3487 1.327 . S
C3485 C3491 1.429 . S
C3486 C3478 1.574 . S
C3486 H3481 0.949 . S
C3486 C3492 1.368 . S
C3487 C3471 1.349 . S
C3487 H3479 0.950 . S
C3487 C3485 1.327 . S
C3488 C3476 1.349 . S
C3488 H3482 0.950 . S
C3488 C3489 1.327 . S
C3489 H3483 0.950 . S
C3489 C3488 1.327 . S
C3489 C3493 1.429 . S
C3490 C3473 1.574 . S
C3490 H3484 0.949 . S
C3490 C3494 1.368 . S
C3491 C3472 1.429 . S
C3491 C3485 1.429 . S
C3491 C3492 1.523 . S
C3492 C3473 1.368 . S
C3492 C3486 1.368 . S
C3492 C3491 1.523 . S
C3493 C3477 1.429 . S
C3493 C3489 1.429 . S
C3493 C3494 1.523 . S
C3494 C3478 1.368 . S
C3494 C3490 1.368 . S
C3494 C3493 1.523 . S
H3495 C3470 0.950 . S
H3496 C3472 0.950 . S
H3497 C3473 0.949 . S
H3498 C3475 0.950 . S
H3499 C3477 0.950 1_554 S
C3500 C3501 1.349 . S
C3500 C3502 1.327 . S
C3500 H3525 0.950 . S
C3501 C3500 1.349 . S
C3501 C3517 1.349 . S
C3502 C3500 1.327 . S
C3502 C3521 1.429 . S
C3502 H3526 0.950 . S
C3503 C3520 1.574 . S
C3503 C3522 1.368 . S
C3503 H3527 0.949 . S
H3504 C3508 0.949 . S
C3505 C3506 1.349 . S
C3505 C3507 1.327 . S
C3505 H3528 0.950 . S
C3506 C3505 1.349 . S
C3506 C3518 1.349 . S
C3507 C3505 1.327 . S
C3507 C3523 1.429 . S
C3507 H3529 0.950 . S
C3508 H3504 0.949 . S
C3508 C3516 1.574 . S
C3508 C3524 1.368 . S
H3509 C3517 0.950 . S
H3510 C3515 0.950 . S
H3511 C3516 0.949 . S
H3512 C3518 0.950 . S
H3513 C3519 0.950 . S
H3514 C3520 0.949 . S
C3515 H3510 0.950 . S
C3515 C3517 1.327 . S
C3515 C3521 1.429 . S
C3516 C3508 1.574 . S
C3516 H3511 0.949 . S
C3516 C3522 1.368 . S
C3517 C3501 1.349 . S
C3517 H3509 0.950 . S
C3517 C3515 1.327 . S
C3518 C3506 1.349 . S
C3518 H3512 0.950 . S
C3518 C3519 1.327 . S
C3519 H3513 0.950 . S
C3519 C3518 1.327 . S
C3519 C3523 1.429 . S
C3520 C3503 1.574 . S
C3520 H3514 0.949 . S
C3520 C3524 1.368 . S
C3521 C3502 1.429 . S
C3521 C3515 1.429 . S
C3521 C3522 1.523 . S
C3522 C3503 1.368 . S
C3522 C3516 1.368 . S
C3522 C3521 1.523 . S
C3523 C3507 1.429 . S
C3523 C3519 1.429 . S
C3523 C3524 1.523 . S
C3524 C3508 1.368 . S
C3524 C3520 1.368 . S
C3524 C3523 1.523 . S
H3525 C3500 0.950 . S
H3526 C3502 0.950 . S
H3527 C3503 0.949 . S
H3528 C3505 0.950 . S
H3529 C3507 0.950 . S
C3530 C3531 1.349 . S
C3530 C3532 1.327 . S
C3530 H3555 0.950 . S
C3531 C3530 1.349 . S
C3531 C3547 1.349 . S
C3532 C3530 1.327 . S
C3532 C3551 1.429 . S
C3532 H3556 0.950 . S
C3533 C3550 1.574 . S
C3533 C3552 1.368 . S
C3533 H3557 0.949 . S
H3534 C3538 0.949 . S
C3535 C3536 1.349 . S
C3535 C3537 1.327 . S
C3535 H3558 0.950 . S
C3536 C3535 1.349 . S
C3536 C3548 1.349 . S
C3537 C3535 1.327 . S
C3537 C3553 1.429 . S
C3537 H3559 0.950 . S
C3538 H3534 0.949 . S
C3538 C3546 1.574 . S
C3538 C3554 1.368 . S
H3539 C3547 0.950 . S
H3540 C3545 0.950 . S
H3541 C3546 0.949 . S
H3542 C3548 0.950 . S
H3543 C3549 0.950 . S
H3544 C3550 0.949 . S
C3545 H3540 0.950 . S
C3545 C3547 1.327 . S
C3545 C3551 1.429 . S
C3546 C3538 1.574 . S
C3546 H3541 0.949 . S
C3546 C3552 1.368 . S
C3547 C3531 1.349 . S
C3547 H3539 0.950 . S
C3547 C3545 1.327 . S
C3548 C3536 1.349 . S
C3548 H3542 0.950 . S
C3548 C3549 1.327 . S
C3549 H3543 0.950 . S
C3549 C3548 1.327 . S
C3549 C3553 1.429 . S
C3550 C3533 1.574 . S
C3550 H3544 0.949 . S
C3550 C3554 1.368 . S
C3551 C3532 1.429 . S
C3551 C3545 1.429 . S
C3551 C3552 1.523 . S
C3552 C3533 1.368 . S
C3552 C3546 1.368 . S
C3552 C3551 1.523 . S
C3553 C3537 1.429 . S
C3553 C3549 1.429 . S
C3553 C3554 1.523 . S
C3554 C3538 1.368 . S
C3554 C3550 1.368 . S
C3554 C3553 1.523 . S
H3555 C3530 0.950 . S
H3556 C3532 0.950 . S
H3557 C3533 0.949 . S
H3558 C3535 0.950 . S
H3559 C3537 0.950 . S
C3560 C3561 1.349 . S
C3560 C3562 1.327 . S
C3560 H3585 0.950 1_554 S
C3561 C3560 1.349 . S
C3561 C3577 1.349 . S
C3562 C3560 1.327 . S
C3562 C3581 1.429 . S
C3562 H3586 0.950 . S
C3563 C3580 1.574 . S
C3563 C3582 1.368 . S
C3563 H3587 0.949 . S
H3564 C3568 0.949 . S
C3565 C3566 1.349 . S
C3565 C3567 1.327 . S
C3565 H3588 0.950 . S
C3566 C3565 1.349 . S
C3566 C3578 1.349 . S
C3567 C3565 1.327 . S
C3567 C3583 1.429 . S
C3567 H3589 0.950 . S
C3568 H3564 0.949 . S
C3568 C3576 1.574 . S
C3568 C3584 1.368 . S
H3569 C3577 0.950 . S
H3570 C3575 0.950 . S
H3571 C3576 0.949 . S
H3572 C3578 0.950 . S
H3573 C3579 0.950 . S
H3574 C3580 0.949 . S
C3575 H3570 0.950 . S
C3575 C3577 1.327 . S
C3575 C3581 1.429 . S
C3576 C3568 1.574 . S
C3576 H3571 0.949 . S
C3576 C3582 1.368 . S
C3577 C3561 1.349 . S
C3577 H3569 0.950 . S
C3577 C3575 1.327 . S
C3578 C3566 1.349 . S
C3578 H3572 0.950 . S
C3578 C3579 1.327 . S
C3579 H3573 0.950 . S
C3579 C3578 1.327 . S
C3579 C3583 1.429 . S
C3580 C3563 1.574 . S
C3580 H3574 0.949 . S
C3580 C3584 1.368 . S
C3581 C3562 1.429 . S
C3581 C3575 1.429 . S
C3581 C3582 1.523 . S
C3582 C3563 1.368 . S
C3582 C3576 1.368 . S
C3582 C3581 1.523 . S
C3583 C3567 1.429 . S
C3583 C3579 1.429 . S
C3583 C3584 1.523 . S
C3584 C3568 1.368 . S
C3584 C3580 1.368 . S
C3584 C3583 1.523 . S
H3585 C3560 0.950 1_556 S
H3586 C3562 0.950 . S
H3587 C3563 0.949 . S
H3588 C3565 0.950 . S
H3589 C3567 0.950 . S
C3590 C3591 1.349 . S
C3590 C3592 1.327 . S
C3590 H3615 0.950 . S
C3591 C3590 1.349 . S
C3591 C3607 1.349 . S
C3592 C3590 1.327 . S
C3592 C3611 1.429 . S
C3592 H3616 0.950 . S
C3593 C3610 1.574 . S
C3593 C3612 1.368 . S
C3593 H3617 0.949 . S
H3594 C3598 0.949 . S
C3595 C3596 1.349 . S
C3595 C3597 1.327 . S
C3595 H3618 0.950 . S
C3596 C3595 1.349 . S
C3596 C3608 1.349 1_554 S
C3597 C3595 1.327 . S
C3597 C3613 1.429 . S
C3597 H3619 0.950 . S
C3598 H3594 0.949 . S
C3598 C3606 1.574 . S
C3598 C3614 1.368 . S
H3599 C3607 0.950 . S
H3600 C3605 0.950 . S
H3601 C3606 0.949 . S
H3602 C3608 0.950 . S
H3603 C3609 0.950 1_556 S
H3604 C3610 0.949 . S
C3605 H3600 0.950 . S
C3605 C3607 1.327 . S
C3605 C3611 1.429 . S
C3606 C3598 1.574 . S
C3606 H3601 0.949 . S
C3606 C3612 1.368 . S
C3607 C3591 1.349 . S
C3607 H3599 0.950 . S
C3607 C3605 1.327 . S
C3608 C3596 1.349 1_556 S
C3608 H3602 0.950 . S
C3608 C3609 1.327 1_556 S
C3609 H3603 0.950 1_554 S
C3609 C3608 1.327 1_554 S
C3609 C3613 1.429 . S
C3610 C3593 1.574 . S
C3610 H3604 0.949 . S
C3610 C3614 1.368 . S
C3611 C3592 1.429 . S
C3611 C3605 1.429 . S
C3611 C3612 1.523 . S
C3612 C3593 1.368 . S
C3612 C3606 1.368 . S
C3612 C3611 1.523 . S
C3613 C3597 1.429 . S
C3613 C3609 1.429 . S
C3613 C3614 1.523 . S
C3614 C3598 1.368 . S
C3614 C3610 1.368 . S
C3614 C3613 1.523 . S
H3615 C3590 0.950 . S
H3616 C3592 0.950 . S
H3617 C3593 0.949 . S
H3618 C3595 0.950 . S
H3619 C3597 0.950 . S
C3620 C3621 1.349 . S
C3620 C3622 1.327 . S
C3620 H3645 0.950 . S
C3621 C3620 1.349 . S
C3621 C3637 1.349 . S
C3622 C3620 1.327 . S
C3622 C3641 1.429 . S
C3622 H3646 0.950 . S
C3623 C3640 1.574 . S
C3623 C3642 1.368 . S
C3623 H3647 0.949 . S
H3624 C3628 0.949 . S
C3625 C3626 1.349 . S
C3625 C3627 1.327 . S
C3625 H3648 0.950 . S
C3626 C3625 1.349 . S
C3626 C3638 1.349 . S
C3627 C3625 1.327 . S
C3627 C3643 1.429 . S
C3627 H3649 0.950 . S
C3628 H3624 0.949 . S
C3628 C3636 1.574 . S
C3628 C3644 1.368 . S
H3629 C3637 0.950 . S
H3630 C3635 0.950 . S
H3631 C3636 0.949 . S
H3632 C3638 0.950 . S
H3633 C3639 0.950 . S
H3634 C3640 0.949 . S
C3635 H3630 0.950 . S
C3635 C3637 1.327 . S
C3635 C3641 1.429 . S
C3636 C3628 1.574 . S
C3636 H3631 0.949 . S
C3636 C3642 1.368 . S
C3637 C3621 1.349 . S
C3637 H3629 0.950 . S
C3637 C3635 1.327 . S
C3638 C3626 1.349 . S
C3638 H3632 0.950 . S
C3638 C3639 1.327 . S
C3639 H3633 0.950 . S
C3639 C3638 1.327 . S
C3639 C3643 1.429 . S
C3640 C3623 1.574 . S
C3640 H3634 0.949 . S
C3640 C3644 1.368 . S
C3641 C3622 1.429 . S
C3641 C3635 1.429 . S
C3641 C3642 1.523 . S
C3642 C3623 1.368 . S
C3642 C3636 1.368 . S
C3642 C3641 1.523 . S
C3643 C3627 1.429 . S
C3643 C3639 1.429 . S
C3643 C3644 1.523 . S
C3644 C3628 1.368 . S
C3644 C3640 1.368 . S
C3644 C3643 1.523 . S
H3645 C3620 0.950 . S
H3646 C3622 0.950 . S
H3647 C3623 0.949 . S
H3648 C3625 0.950 . S
H3649 C3627 0.950 . S
C3650 C3651 1.349 . S
C3650 C3652 1.327 . S
C3650 H3675 0.950 . S
C3651 C3650 1.349 . S
C3651 C3667 1.349 . S
C3652 C3650 1.327 . S
C3652 C3671 1.429 . S
C3652 H3676 0.950 . S
C3653 C3670 1.574 . S
C3653 C3672 1.368 . S
C3653 H3677 0.949 . S
H3654 C3658 0.949 . S
C3655 C3656 1.349 . S
C3655 C3657 1.327 . S
C3655 H3678 0.950 . S
C3656 C3655 1.349 . S
C3656 C3668 1.349 . S
C3657 C3655 1.327 . S
C3657 C3673 1.429 . S
C3657 H3679 0.950 . S
C3658 H3654 0.949 . S
C3658 C3666 1.574 . S
C3658 C3674 1.368 . S
H3659 C3667 0.950 . S
H3660 C3665 0.950 . S
H3661 C3666 0.949 . S
H3662 C3668 0.950 . S
H3663 C3669 0.950 . S
H3664 C3670 0.949 . S
C3665 H3660 0.950 . S
C3665 C3667 1.327 . S
C3665 C3671 1.429 . S
C3666 C3658 1.574 . S
C3666 H3661 0.949 . S
C3666 C3672 1.368 . S
C3667 C3651 1.349 . S
C3667 H3659 0.950 . S
C3667 C3665 1.327 . S
C3668 C3656 1.349 . S
C3668 H3662 0.950 . S
C3668 C3669 1.327 . S
C3669 H3663 0.950 . S
C3669 C3668 1.327 . S
C3669 C3673 1.429 . S
C3670 C3653 1.574 . S
C3670 H3664 0.949 . S
C3670 C3674 1.368 . S
C3671 C3652 1.429 . S
C3671 C3665 1.429 . S
C3671 C3672 1.523 . S
C3672 C3653 1.368 . S
C3672 C3666 1.368 . S
C3672 C3671 1.523 . S
C3673 C3657 1.429 . S
C3673 C3669 1.429 . S
C3673 C3674 1.523 . S
C3674 C3658 1.368 . S
C3674 C3670 1.368 . S
C3674 C3673 1.523 . S
H3675 C3650 0.950 . S
H3676 C3652 0.950 . S
H3677 C3653 0.949 . S
H3678 C3655 0.950 . S
H3679 C3657 0.950 . S
C3680 C3681 1.349 . S
C3680 C3682 1.327 . S
C3680 H3705 0.950 . S
C3681 C3680 1.349 . S
C3681 C3697 1.349 . S
C3682 C3680 1.327 . S
C3682 C3701 1.429 . S
C3682 H3706 0.950 . S
C3683 C3700 1.574 . S
C3683 C3702 1.368 . S
C3683 H3707 0.949 . S
H3684 C3688 0.949 . S
C3685 C3686 1.349 . S
C3685 C3687 1.327 . S
C3685 H3708 0.950 . S
C3686 C3685 1.349 . S
C3686 C3698 1.349 . S
C3687 C3685 1.327 . S
C3687 C3703 1.429 . S
C3687 H3709 0.950 . S
C3688 H3684 0.949 . S
C3688 C3696 1.574 . S
C3688 C3704 1.368 . S
H3689 C3697 0.950 . S
H3690 C3695 0.950 . S
H3691 C3696 0.949 . S
H3692 C3698 0.950 1_556 S
H3693 C3699 0.950 . S
H3694 C3700 0.949 . S
C3695 H3690 0.950 . S
C3695 C3697 1.327 . S
C3695 C3701 1.429 . S
C3696 C3688 1.574 . S
C3696 H3691 0.949 . S
C3696 C3702 1.368 . S
C3697 C3681 1.349 . S
C3697 H3689 0.950 . S
C3697 C3695 1.327 . S
C3698 C3686 1.349 . S
C3698 H3692 0.950 1_554 S
C3698 C3699 1.327 . S
C3699 H3693 0.950 . S
C3699 C3698 1.327 . S
C3699 C3703 1.429 . S
C3700 C3683 1.574 . S
C3700 H3694 0.949 . S
C3700 C3704 1.368 . S
C3701 C3682 1.429 . S
C3701 C3695 1.429 . S
C3701 C3702 1.523 . S
C3702 C3683 1.368 . S
C3702 C3696 1.368 . S
C3702 C3701 1.523 . S
C3703 C3687 1.429 . S
C3703 C3699 1.429 . S
C3703 C3704 1.523 . S
C3704 C3688 1.368 . S
C3704 C3700 1.368 . S
C3704 C3703 1.523 . S
H3705 C3680 0.950 . S
H3706 C3682 0.950 . S
H3707 C3683 0.949 . S
H3708 C3685 0.950 . S
H3709 C3687 0.950 . S
C3710 C3711 1.349 . S
C3710 C3712 1.327 . S
C3710 H3735 0.950 . S
C3711 C3710 1.349 . S
C3711 C3727 1.349 . S
C3712 C3710 1.327 . S
C3712 C3731 1.429 . S
C3712 H3736 0.950 . S
C3713 C3730 1.574 . S
C3713 C3732 1.368 . S
C3713 H3737 0.949 . S
H3714 C3718 0.949 . S
C3715 C3716 1.349 . S
C3715 C3717 1.327 . S
C3715 H3738 0.950 . S
C3716 C3715 1.349 . S
C3716 C3728 1.349 . S
C3717 C3715 1.327 . S
C3717 C3733 1.429 . S
C3717 H3739 0.950 . S
C3718 H3714 0.949 . S
C3718 C3726 1.574 . S
C3718 C3734 1.368 . S
H3719 C3727 0.959 . S
H3720 C3725 0.950 . S
H3721 C3726 0.949 . S
H3722 C3728 0.950 . S
H3723 C3729 0.950 . S
H3724 C3730 0.949 . S
C3725 H3720 0.950 . S
C3725 C3727 1.327 . S
C3725 C3731 1.429 . S
C3726 C3718 1.574 . S
C3726 H3721 0.949 . S
C3726 C3732 1.368 . S
C3727 C3711 1.349 . S
C3727 H3719 0.959 . S
C3727 C3725 1.327 . S
C3728 C3716 1.349 . S
C3728 H3722 0.950 . S
C3728 C3729 1.327 . S
C3729 H3723 0.950 . S
C3729 C3728 1.327 . S
C3729 C3733 1.429 . S
C3730 C3713 1.574 . S
C3730 H3724 0.949 . S
C3730 C3734 1.368 . S
C3731 C3712 1.429 . S
C3731 C3725 1.429 . S
C3731 C3732 1.523 . S
C3732 C3713 1.368 . S
C3732 C3726 1.368 . S
C3732 C3731 1.523 . S
C3733 C3717 1.429 . S
C3733 C3729 1.429 . S
C3733 C3734 1.523 . S
C3734 C3718 1.368 . S
C3734 C3730 1.368 . S
C3734 C3733 1.523 . S
H3735 C3710 0.950 . S
H3736 C3712 0.950 . S
H3737 C3713 0.949 . S
H3738 C3715 0.950 . S
H3739 C3717 0.950 . S
C3740 C3741 1.349 . S
C3740 C3742 1.327 . S
C3740 H3765 0.950 . S
C3741 C3740 1.349 . S
C3741 C3757 1.349 . S
C3742 C3740 1.327 . S
C3742 C3761 1.429 . S
C3742 H3766 0.950 . S
C3743 C3760 1.574 . S
C3743 C3762 1.368 . S
C3743 H3767 0.949 . S
H3744 C3748 0.949 . S
C3745 C3746 1.349 . S
C3745 C3747 1.327 . S
C3745 H3768 0.950 . S
C3746 C3745 1.349 . S
C3746 C3758 1.349 . S
C3747 C3745 1.327 . S
C3747 C3763 1.429 . S
C3747 H3769 0.950 . S
C3748 H3744 0.949 . S
C3748 C3756 1.574 . S
C3748 C3764 1.368 . S
H3749 C3757 0.950 . S
H3750 C3755 0.950 . S
H3751 C3756 0.949 . S
H3752 C3758 0.950 . S
H3753 C3759 0.950 . S
H3754 C3760 0.949 . S
C3755 H3750 0.950 . S
C3755 C3757 1.327 . S
C3755 C3761 1.429 . S
C3756 C3748 1.574 . S
C3756 H3751 0.949 . S
C3756 C3762 1.368 . S
C3757 C3741 1.349 . S
C3757 H3749 0.950 . S
C3757 C3755 1.327 . S
C3758 C3746 1.349 . S
C3758 H3752 0.950 . S
C3758 C3759 1.327 . S
C3759 H3753 0.950 . S
C3759 C3758 1.327 . S
C3759 C3763 1.429 . S
C3760 C3743 1.574 . S
C3760 H3754 0.949 . S
C3760 C3764 1.368 . S
C3761 C3742 1.429 . S
C3761 C3755 1.429 . S
C3761 C3762 1.523 . S
C3762 C3743 1.368 . S
C3762 C3756 1.368 . S
C3762 C3761 1.523 . S
C3763 C3747 1.429 . S
C3763 C3759 1.429 . S
C3763 C3764 1.523 . S
C3764 C3748 1.368 . S
C3764 C3760 1.368 . S
C3764 C3763 1.523 . S
H3765 C3740 0.950 . S
H3766 C3742 0.950 . S
H3767 C3743 0.949 . S
H3768 C3745 0.950 . S
H3769 C3747 0.950 . S
C3770 C3771 1.349 . S
C3770 C3772 1.327 . S
C3770 H3795 0.950 . S
C3771 C3770 1.349 . S
C3771 C3787 1.349 . S
C3772 C3770 1.327 . S
C3772 C3791 1.429 . S
C3772 H3796 0.950 . S
C3773 C3790 1.574 . S
C3773 C3792 1.368 . S
C3773 H3797 0.949 . S
H3774 C3778 0.949 . S
C3775 C3776 1.349 . S
C3775 C3777 1.327 . S
C3775 H3798 0.950 1_556 S
C3776 C3775 1.349 . S
C3776 C3788 1.349 . S
C3777 C3775 1.327 . S
C3777 C3793 1.429 . S
C3777 H3799 0.950 . S
C3778 H3774 0.949 . S
C3778 C3786 1.574 . S
C3778 C3794 1.368 . S
H3779 C3787 0.950 . S
H3780 C3785 0.950 . S
H3781 C3786 0.949 . S
H3782 C3788 0.950 . S
H3783 C3789 0.950 . S
H3784 C3790 0.949 . S
C3785 H3780 0.950 . S
C3785 C3787 1.327 . S
C3785 C3791 1.429 . S
C3786 C3778 1.574 . S
C3786 H3781 0.949 . S
C3786 C3792 1.368 . S
C3787 C3771 1.349 . S
C3787 H3779 0.950 . S
C3787 C3785 1.327 . S
C3788 C3776 1.349 . S
C3788 H3782 0.950 . S
C3788 C3789 1.327 . S
C3789 H3783 0.950 . S
C3789 C3788 1.327 . S
C3789 C3793 1.429 . S
C3790 C3773 1.574 . S
C3790 H3784 0.949 . S
C3790 C3794 1.368 . S
C3791 C3772 1.429 . S
C3791 C3785 1.429 . S
C3791 C3792 1.523 . S
C3792 C3773 1.368 . S
C3792 C3786 1.368 . S
C3792 C3791 1.523 . S
C3793 C3777 1.429 . S
C3793 C3789 1.429 . S
C3793 C3794 1.523 . S
C3794 C3778 1.368 . S
C3794 C3790 1.368 . S
C3794 C3793 1.523 . S
H3795 C3770 0.950 . S
H3796 C3772 0.950 . S
H3797 C3773 0.949 . S
H3798 C3775 0.950 1_554 S
H3799 C3777 0.950 . S
C3800 C3801 1.349 . S
C3800 C3802 1.327 . S
C3800 H3825 0.950 . S
C3801 C3800 1.349 . S
C3801 C3817 1.349 . S
C3802 C3800 1.327 . S
C3802 C3821 1.429 . S
C3802 H3826 0.950 . S
C3803 C3820 1.574 . S
C3803 C3822 1.368 . S
C3803 H3827 0.949 . S
H3804 C3808 0.949 . S
C3805 C3806 1.349 . S
C3805 C3807 1.327 . S
C3805 H3828 0.950 . S
C3806 C3805 1.349 . S
C3806 C3818 1.349 . S
C3807 C3805 1.327 . S
C3807 C3823 1.429 . S
C3807 H3829 0.950 . S
C3808 H3804 0.949 . S
C3808 C3816 1.574 . S
C3808 C3824 1.368 . S
H3809 C3817 0.950 . S
H3810 C3815 0.950 . S
H3811 C3816 0.949 . S
H3812 C3818 0.950 . S
H3813 C3819 0.950 . S
H3814 C3820 0.949 . S
C3815 H3810 0.950 . S
C3815 C3817 1.327 . S
C3815 C3821 1.429 . S
C3816 C3808 1.574 . S
C3816 H3811 0.949 . S
C3816 C3822 1.368 . S
C3817 C3801 1.349 . S
C3817 H3809 0.950 . S
C3817 C3815 1.327 . S
C3818 C3806 1.349 . S
C3818 H3812 0.950 . S
C3818 C3819 1.327 . S
C3819 H3813 0.950 . S
C3819 C3818 1.327 . S
C3819 C3823 1.429 . S
C3820 C3803 1.574 . S
C3820 H3814 0.949 . S
C3820 C3824 1.368 . S
C3821 C3802 1.429 . S
C3821 C3815 1.429 . S
C3821 C3822 1.523 . S
C3822 C3803 1.368 . S
C3822 C3816 1.368 . S
C3822 C3821 1.523 . S
C3823 C3807 1.429 . S
C3823 C3819 1.429 . S
C3823 C3824 1.523 . S
C3824 C3808 1.368 . S
C3824 C3820 1.368 . S
C3824 C3823 1.523 . S
H3825 C3800 0.950 . S
H3826 C3802 0.950 . S
H3827 C3803 0.949 . S
H3828 C3805 0.950 . S
H3829 C3807 0.950 . S
C3830 C3831 1.349 . S
C3830 C3832 1.327 . S
C3830 H3855 0.950 . S
C3831 C3830 1.349 . S
C3831 C3847 1.349 . S
C3832 C3830 1.327 . S
C3832 C3851 1.429 . S
C3832 H3856 0.950 . S
C3833 C3850 1.574 . S
C3833 C3852 1.368 . S
C3833 H3857 0.949 . S
H3834 C3838 0.949 . S
C3835 C3836 1.349 . S
C3835 C3837 1.327 . S
C3835 H3858 0.950 . S
C3836 C3835 1.349 . S
C3836 C3848 1.349 . S
C3837 C3835 1.327 . S
C3837 C3853 1.429 . S
C3837 H3859 0.950 . S
C3838 H3834 0.949 . S
C3838 C3846 1.574 . S
C3838 C3854 1.368 . S
H3839 C3847 0.950 . S
H3840 C3845 0.950 . S
H3841 C3846 0.949 . S
H3842 C3848 0.950 . S
H3843 C3849 0.950 . S
H3844 C3850 0.949 . S
C3845 H3840 0.950 . S
C3845 C3847 1.327 . S
C3845 C3851 1.429 . S
C3846 C3838 1.574 . S
C3846 H3841 0.949 . S
C3846 C3852 1.368 . S
C3847 C3831 1.349 . S
C3847 H3839 0.950 . S
C3847 C3845 1.327 . S
C3848 C3836 1.349 . S
C3848 H3842 0.950 . S
C3848 C3849 1.327 . S
C3849 H3843 0.950 . S
C3849 C3848 1.327 . S
C3849 C3853 1.429 . S
C3850 C3833 1.574 . S
C3850 H3844 0.949 . S
C3850 C3854 1.368 . S
C3851 C3832 1.429 . S
C3851 C3845 1.429 . S
C3851 C3852 1.523 . S
C3852 C3833 1.368 . S
C3852 C3846 1.368 . S
C3852 C3851 1.523 . S
C3853 C3837 1.429 . S
C3853 C3849 1.429 . S
C3853 C3854 1.523 . S
C3854 C3838 1.368 . S
C3854 C3850 1.368 . S
C3854 C3853 1.523 . S
H3855 C3830 0.950 . S
H3856 C3832 0.950 . S
H3857 C3833 0.949 . S
H3858 C3835 0.950 . S
H3859 C3837 0.950 . S
C3860 C3861 1.349 . S
C3860 C3862 1.327 . S
C3860 H3885 0.950 . S
C3861 C3860 1.349 . S
C3861 C3877 1.349 . S
C3862 C3860 1.327 . S
C3862 C3881 1.429 . S
C3862 H3886 0.950 . S
C3863 C3880 1.574 . S
C3863 C3882 1.368 . S
C3863 H3887 0.949 . S
H3864 C3868 0.949 . S
C3865 C3866 1.349 . S
C3865 C3867 1.327 . S
C3865 H3888 0.950 . S
C3866 C3865 1.349 . S
C3866 C3878 1.349 . S
C3867 C3865 1.327 . S
C3867 C3883 1.429 . S
C3867 H3889 0.950 . S
C3868 H3864 0.949 . S
C3868 C3876 1.574 . S
C3868 C3884 1.368 . S
H3869 C3877 0.950 . S
H3870 C3875 0.950 . S
H3871 C3876 0.949 . S
H3872 C3878 0.950 . S
H3873 C3879 0.950 . S
H3874 C3880 0.949 . S
C3875 H3870 0.950 . S
C3875 C3877 1.327 . S
C3875 C3881 1.429 . S
C3876 C3868 1.574 . S
C3876 H3871 0.949 . S
C3876 C3882 1.368 . S
C3877 C3861 1.349 . S
C3877 H3869 0.950 . S
C3877 C3875 1.327 . S
C3878 C3866 1.349 . S
C3878 H3872 0.950 . S
C3878 C3879 1.327 . S
C3879 H3873 0.950 . S
C3879 C3878 1.327 . S
C3879 C3883 1.429 . S
C3880 C3863 1.574 . S
C3880 H3874 0.949 . S
C3880 C3884 1.368 . S
C3881 C3862 1.429 . S
C3881 C3875 1.429 . S
C3881 C3882 1.523 . S
C3882 C3863 1.368 . S
C3882 C3876 1.368 . S
C3882 C3881 1.523 . S
C3883 C3867 1.429 . S
C3883 C3879 1.429 . S
C3883 C3884 1.523 . S
C3884 C3868 1.368 . S
C3884 C3880 1.368 . S
C3884 C3883 1.523 . S
H3885 C3860 0.950 . S
H3886 C3862 0.950 . S
H3887 C3863 0.949 . S
H3888 C3865 0.950 . S
H3889 C3867 0.950 . S
C3890 C3891 1.349 . S
C3890 C3892 1.327 . S
C3890 H3915 0.950 . S
C3891 C3890 1.349 . S
C3891 C3907 1.349 . S
C3892 C3890 1.327 . S
C3892 C3911 1.429 . S
C3892 H3916 0.950 . S
C3893 C3910 1.574 . S
C3893 C3912 1.368 . S
C3893 H3917 0.949 . S
H3894 C3898 0.949 . S
C3895 C3896 1.349 . S
C3895 C3897 1.327 . S
C3895 H3918 0.950 . S
C3896 C3895 1.349 . S
C3896 C3908 1.349 . S
C3897 C3895 1.327 . S
C3897 C3913 1.429 . S
C3897 H3919 0.950 . S
C3898 H3894 0.949 . S
C3898 C3906 1.574 . S
C3898 C3914 1.368 . S
H3899 C3907 0.950 . S
H3900 C3905 0.950 . S
H3901 C3906 0.949 . S
H3902 C3908 0.950 . S
H3903 C3909 0.950 . S
H3904 C3910 0.949 . S
C3905 H3900 0.950 . S
C3905 C3907 1.327 . S
C3905 C3911 1.429 . S
C3906 C3898 1.574 . S
C3906 H3901 0.949 . S
C3906 C3912 1.368 . S
C3907 C3891 1.349 . S
C3907 H3899 0.950 . S
C3907 C3905 1.327 . S
C3908 C3896 1.349 . S
C3908 H3902 0.950 . S
C3908 C3909 1.327 . S
C3909 H3903 0.950 . S
C3909 C3908 1.327 . S
C3909 C3913 1.429 . S
C3910 C3893 1.574 . S
C3910 H3904 0.949 . S
C3910 C3914 1.368 . S
C3911 C3892 1.429 . S
C3911 C3905 1.429 . S
C3911 C3912 1.523 . S
C3912 C3893 1.368 . S
C3912 C3906 1.368 . S
C3912 C3911 1.523 . S
C3913 C3897 1.429 . S
C3913 C3909 1.429 . S
C3913 C3914 1.523 . S
C3914 C3898 1.368 . S
C3914 C3910 1.368 . S
C3914 C3913 1.523 . S
H3915 C3890 0.950 . S
H3916 C3892 0.950 . S
H3917 C3893 0.949 . S
H3918 C3895 0.950 . S
H3919 C3897 0.950 . S
C3920 C3921 1.349 . S
C3920 C3922 1.327 . S
C3920 H3945 0.950 . S
C3921 C3920 1.349 . S
C3921 C3937 1.349 . S
C3922 C3920 1.327 . S
C3922 C3941 1.429 . S
C3922 H3946 0.950 . S
C3923 C3940 1.574 . S
C3923 C3942 1.368 . S
C3923 H3947 0.949 . S
H3924 C3928 0.949 . S
C3925 C3926 1.349 . S
C3925 C3927 1.327 . S
C3925 H3948 0.950 . S
C3926 C3925 1.349 . S
C3926 C3938 1.349 . S
C3927 C3925 1.327 . S
C3927 C3943 1.429 . S
C3927 H3949 0.950 . S
C3928 H3924 0.949 . S
C3928 C3936 1.574 . S
C3928 C3944 1.368 . S
H3929 C3937 0.950 . S
H3930 C3935 0.950 . S
H3931 C3936 0.949 . S
H3932 C3938 0.950 . S
H3933 C3939 0.950 . S
H3934 C3940 0.949 . S
C3935 H3930 0.950 . S
C3935 C3937 1.327 . S
C3935 C3941 1.429 . S
C3936 C3928 1.574 . S
C3936 H3931 0.949 . S
C3936 C3942 1.368 . S
C3937 C3921 1.349 . S
C3937 H3929 0.950 . S
C3937 C3935 1.327 . S
C3938 C3926 1.349 . S
C3938 H3932 0.950 . S
C3938 C3939 1.327 . S
C3939 H3933 0.950 . S
C3939 C3938 1.327 . S
C3939 C3943 1.429 . S
C3940 C3923 1.574 . S
C3940 H3934 0.949 . S
C3940 C3944 1.368 . S
C3941 C3922 1.429 . S
C3941 C3935 1.429 . S
C3941 C3942 1.523 . S
C3942 C3923 1.368 . S
C3942 C3936 1.368 . S
C3942 C3941 1.523 . S
C3943 C3927 1.429 . S
C3943 C3939 1.429 . S
C3943 C3944 1.523 . S
C3944 C3928 1.368 . S
C3944 C3940 1.368 . S
C3944 C3943 1.523 . S
H3945 C3920 0.950 . S
H3946 C3922 0.950 . S
H3947 C3923 0.949 . S
H3948 C3925 0.950 . S
H3949 C3927 0.950 . S
C3950 C3951 1.349 . S
C3950 C3952 1.327 . S
C3950 H3975 0.950 . S
C3951 C3950 1.349 . S
C3951 C3967 1.349 . S
C3952 C3950 1.327 . S
C3952 C3971 1.429 . S
C3952 H3976 0.950 . S
C3953 C3970 1.574 . S
C3953 C3972 1.368 . S
C3953 H3977 0.949 . S
H3954 C3958 0.949 . S
C3955 C3956 1.349 . S
C3955 C3957 1.327 . S
C3955 H3978 0.950 . S
C3956 C3955 1.349 . S
C3956 C3968 1.349 . S
C3957 C3955 1.327 . S
C3957 C3973 1.429 . S
C3957 H3979 0.950 . S
C3958 H3954 0.949 . S
C3958 C3966 1.574 . S
C3958 C3974 1.368 . S
H3959 C3967 0.950 . S
H3960 C3965 0.950 . S
H3961 C3966 0.949 . S
H3962 C3968 0.950 . S
H3963 C3969 0.950 . S
H3964 C3970 0.949 . S
C3965 H3960 0.950 . S
C3965 C3967 1.327 . S
C3965 C3971 1.429 . S
C3966 C3958 1.574 . S
C3966 H3961 0.949 . S
C3966 C3972 1.368 . S
C3967 C3951 1.349 . S
C3967 H3959 0.950 . S
C3967 C3965 1.327 . S
C3968 C3956 1.349 . S
C3968 H3962 0.950 . S
C3968 C3969 1.327 . S
C3969 H3963 0.950 . S
C3969 C3968 1.327 . S
C3969 C3973 1.429 . S
C3970 C3953 1.574 . S
C3970 H3964 0.949 . S
C3970 C3974 1.368 . S
C3971 C3952 1.429 . S
C3971 C3965 1.429 . S
C3971 C3972 1.523 . S
C3972 C3953 1.368 . S
C3972 C3966 1.368 . S
C3972 C3971 1.523 . S
C3973 C3957 1.429 . S
C3973 C3969 1.429 . S
C3973 C3974 1.523 . S
C3974 C3958 1.368 . S
C3974 C3970 1.368 . S
C3974 C3973 1.523 . S
H3975 C3950 0.950 . S
H3976 C3952 0.950 . S
H3977 C3953 0.949 . S
H3978 C3955 0.950 . S
H3979 C3957 0.950 . S
C3980 C3981 1.349 . S
C3980 C3982 1.327 . S
C3980 H4005 0.950 . S
C3981 C3980 1.349 . S
C3981 C3997 1.349 . S
C3982 C3980 1.327 . S
C3982 C4001 1.429 . S
C3982 H4006 0.950 . S
C3983 C4000 1.574 . S
C3983 C4002 1.368 . S
C3983 H4007 0.949 . S
H3984 C3988 0.949 . S
C3985 C3986 1.349 . S
C3985 C3987 1.327 . S
C3985 H4008 0.950 . S
C3986 C3985 1.349 . S
C3986 C3998 1.349 . S
C3987 C3985 1.327 . S
C3987 C4003 1.429 . S
C3987 H4009 0.950 . S
C3988 H3984 0.949 . S
C3988 C3996 1.574 . S
C3988 C4004 1.368 . S
H3989 C3997 0.950 . S
H3990 C3995 0.950 . S
H3991 C3996 0.949 . S
H3992 C3998 0.950 . S
H3993 C3999 0.950 . S
H3994 C4000 0.949 . S
C3995 H3990 0.950 . S
C3995 C3997 1.327 . S
C3995 C4001 1.429 . S
C3996 C3988 1.574 . S
C3996 H3991 0.949 . S
C3996 C4002 1.368 . S
C3997 C3981 1.349 . S
C3997 H3989 0.950 . S
C3997 C3995 1.327 . S
C3998 C3986 1.349 . S
C3998 H3992 0.950 . S
C3998 C3999 1.327 . S
C3999 H3993 0.950 . S
C3999 C3998 1.327 . S
C3999 C4003 1.429 . S
C4000 C3983 1.574 . S
C4000 H3994 0.949 . S
C4000 C4004 1.368 . S
C4001 C3982 1.429 . S
C4001 C3995 1.429 . S
C4001 C4002 1.523 . S
C4002 C3983 1.368 . S
C4002 C3996 1.368 . S
C4002 C4001 1.523 . S
C4003 C3987 1.429 . S
C4003 C3999 1.429 . S
C4003 C4004 1.523 . S
C4004 C3988 1.368 . S
C4004 C4000 1.368 . S
C4004 C4003 1.523 . S
H4005 C3980 0.950 . S
H4006 C3982 0.950 . S
H4007 C3983 0.949 . S
H4008 C3985 0.950 . S
H4009 C3987 0.950 . S
C4010 C4011 1.349 . S
C4010 C4012 1.327 . S
C4010 H4035 0.950 . S
C4011 C4010 1.349 . S
C4011 C4027 1.349 . S
C4012 C4010 1.327 . S
C4012 C4031 1.429 . S
C4012 H4036 0.950 . S
C4013 C4030 1.574 . S
C4013 C4032 1.368 . S
C4013 H4037 0.949 . S
H4014 C4018 0.949 . S
C4015 C4016 1.349 . S
C4015 C4017 1.327 . S
C4015 H4038 0.950 . S
C4016 C4015 1.349 . S
C4016 C4028 1.349 . S
C4017 C4015 1.327 . S
C4017 C4033 1.429 . S
C4017 H4039 0.950 . S
C4018 H4014 0.949 . S
C4018 C4026 1.574 . S
C4018 C4034 1.368 . S
H4019 C4027 0.950 . S
H4020 C4025 0.950 . S
H4021 C4026 0.949 . S
H4022 C4028 0.950 . S
H4023 C4029 0.950 . S
H4024 C4030 0.949 . S
C4025 H4020 0.950 . S
C4025 C4027 1.327 . S
C4025 C4031 1.429 . S
C4026 C4018 1.574 . S
C4026 H4021 0.949 . S
C4026 C4032 1.368 . S
C4027 C4011 1.349 . S
C4027 H4019 0.950 . S
C4027 C4025 1.327 . S
C4028 C4016 1.349 . S
C4028 H4022 0.950 . S
C4028 C4029 1.327 . S
C4029 H4023 0.950 . S
C4029 C4028 1.327 . S
C4029 C4033 1.429 . S
C4030 C4013 1.574 . S
C4030 H4024 0.949 . S
C4030 C4034 1.368 . S
C4031 C4012 1.429 . S
C4031 C4025 1.429 . S
C4031 C4032 1.523 . S
C4032 C4013 1.368 . S
C4032 C4026 1.368 . S
C4032 C4031 1.523 . S
C4033 C4017 1.429 . S
C4033 C4029 1.429 . S
C4033 C4034 1.523 . S
C4034 C4018 1.368 . S
C4034 C4030 1.368 . S
C4034 C4033 1.523 . S
H4035 C4010 0.950 . S
H4036 C4012 0.950 . S
H4037 C4013 0.949 . S
H4038 C4015 0.950 . S
H4039 C4017 0.950 . S
C4040 C4041 1.349 . S
C4040 C4042 1.327 . S
C4040 H4065 0.950 . S
C4041 C4040 1.349 . S
C4041 C4057 1.349 . S
C4042 C4040 1.327 . S
C4042 C4061 1.429 . S
C4042 H4066 0.950 . S
C4043 C4060 1.574 . S
C4043 C4062 1.368 . S
C4043 H4067 0.949 . S
H4044 C4048 0.949 . S
C4045 C4046 1.349 . S
C4045 C4047 1.327 . S
C4045 H4068 0.950 1_554 S
C4046 C4045 1.349 . S
C4046 C4058 1.349 . S
C4047 C4045 1.327 . S
C4047 C4063 1.429 . S
C4047 H4069 0.950 . S
C4048 H4044 0.949 . S
C4048 C4056 1.574 . S
C4048 C4064 1.368 . S
H4049 C4057 0.950 . S
H4050 C4055 0.950 . S
H4051 C4056 0.949 . S
H4052 C4058 0.950 . S
H4053 C4059 0.950 . S
H4054 C4060 0.949 . S
C4055 H4050 0.950 . S
C4055 C4057 1.327 . S
C4055 C4061 1.429 . S
C4056 C4048 1.574 . S
C4056 H4051 0.949 . S
C4056 C4062 1.368 . S
C4057 C4041 1.349 . S
C4057 H4049 0.950 . S
C4057 C4055 1.327 . S
C4058 C4046 1.349 . S
C4058 H4052 0.950 . S
C4058 C4059 1.327 . S
C4059 H4053 0.950 . S
C4059 C4058 1.327 . S
C4059 C4063 1.429 . S
C4060 C4043 1.574 . S
C4060 H4054 0.949 . S
C4060 C4064 1.368 . S
C4061 C4042 1.429 . S
C4061 C4055 1.429 . S
C4061 C4062 1.523 . S
C4062 C4043 1.368 . S
C4062 C4056 1.368 . S
C4062 C4061 1.523 . S
C4063 C4047 1.429 . S
C4063 C4059 1.429 . S
C4063 C4064 1.523 . S
C4064 C4048 1.368 . S
C4064 C4060 1.368 . S
C4064 C4063 1.523 . S
H4065 C4040 0.950 . S
H4066 C4042 0.950 . S
H4067 C4043 0.949 . S
H4068 C4045 0.950 1_556 S
H4069 C4047 0.950 . S
C4070 C4071 1.349 . S
C4070 C4072 1.327 . S
C4070 H4095 0.950 . S
C4071 C4070 1.349 . S
C4071 C4087 1.349 . S
C4072 C4070 1.327 . S
C4072 C4091 1.429 . S
C4072 H4096 0.950 . S
C4073 C4090 1.574 . S
C4073 C4092 1.368 . S
C4073 H4097 0.949 . S
H4074 C4078 0.949 . S
C4075 C4076 1.349 . S
C4075 C4077 1.327 . S
C4075 H4098 0.950 . S
C4076 C4075 1.349 . S
C4076 C4088 1.349 . S
C4077 C4075 1.327 . S
C4077 C4093 1.429 . S
C4077 H4099 0.950 . S
C4078 H4074 0.949 . S
C4078 C4086 1.574 . S
C4078 C4094 1.368 . S
H4079 C4087 0.950 . S
H4080 C4085 0.950 . S
H4081 C4086 0.949 . S
H4082 C4088 0.936 1_556 S
H4083 C4089 0.950 . S
H4084 C4090 0.949 . S
C4085 H4080 0.950 . S
C4085 C4087 1.327 . S
C4085 C4091 1.429 . S
C4086 C4078 1.574 . S
C4086 H4081 0.949 . S
C4086 C4092 1.368 . S
C4087 C4071 1.349 . S
C4087 H4079 0.950 . S
C4087 C4085 1.327 . S
C4088 C4076 1.349 . S
C4088 H4082 0.936 1_554 S
C4088 C4089 1.327 . S
C4089 H4083 0.950 . S
C4089 C4088 1.327 . S
C4089 C4093 1.429 . S
C4090 C4073 1.574 . S
C4090 H4084 0.949 . S
C4090 C4094 1.368 . S
C4091 C4072 1.429 . S
C4091 C4085 1.429 . S
C4091 C4092 1.523 . S
C4092 C4073 1.368 . S
C4092 C4086 1.368 . S
C4092 C4091 1.523 . S
C4093 C4077 1.429 . S
C4093 C4089 1.429 . S
C4093 C4094 1.523 . S
C4094 C4078 1.368 . S
C4094 C4090 1.368 . S
C4094 C4093 1.523 . S
H4095 C4070 0.950 . S
H4096 C4072 0.950 . S
H4097 C4073 0.949 . S
H4098 C4075 0.950 . S
H4099 C4077 0.950 . S
C4100 C4101 1.349 . S
C4100 C4102 1.327 . S
C4100 H4125 0.950 . S
C4101 C4100 1.349 . S
C4101 C4117 1.349 . S
C4102 C4100 1.327 . S
C4102 C4121 1.429 . S
C4102 H4126 0.950 . S
C4103 C4120 1.574 . S
C4103 C4122 1.368 . S
C4103 H4127 0.949 . S
H4104 C4108 0.949 . S
C4105 C4106 1.349 . S
C4105 C4107 1.327 . S
C4105 H4128 0.950 1_556 S
C4106 C4105 1.349 . S
C4106 C4118 1.349 . S
C4107 C4105 1.327 . S
C4107 C4123 1.429 . S
C4107 H4129 0.950 . S
C4108 H4104 0.949 . S
C4108 C4116 1.574 . S
C4108 C4124 1.368 . S
H4109 C4117 0.950 . S
H4110 C4115 0.950 . S
H4111 C4116 0.949 . S
H4112 C4118 0.950 . S
H4113 C4119 0.950 . S
H4114 C4120 0.949 . S
C4115 H4110 0.950 . S
C4115 C4117 1.327 . S
C4115 C4121 1.429 . S
C4116 C4108 1.574 . S
C4116 H4111 0.949 . S
C4116 C4122 1.368 . S
C4117 C4101 1.349 . S
C4117 H4109 0.950 . S
C4117 C4115 1.327 . S
C4118 C4106 1.349 . S
C4118 H4112 0.950 . S
C4118 C4119 1.327 . S
C4119 H4113 0.950 . S
C4119 C4118 1.327 . S
C4119 C4123 1.429 . S
C4120 C4103 1.574 . S
C4120 H4114 0.949 . S
C4120 C4124 1.368 . S
C4121 C4102 1.429 . S
C4121 C4115 1.429 . S
C4121 C4122 1.523 . S
C4122 C4103 1.368 . S
C4122 C4116 1.368 . S
C4122 C4121 1.523 . S
C4123 C4107 1.429 . S
C4123 C4119 1.429 . S
C4123 C4124 1.523 . S
C4124 C4108 1.368 . S
C4124 C4120 1.368 . S
C4124 C4123 1.523 . S
H4125 C4100 0.950 . S
H4126 C4102 0.950 . S
H4127 C4103 0.949 . S
H4128 C4105 0.950 1_554 S
H4129 C4107 0.950 . S
C4130 C4131 1.349 . S
C4130 C4132 1.327 . S
C4130 H4155 0.943 1_556 S
C4131 C4130 1.349 . S
C4131 C4147 1.349 . S
C4132 C4130 1.327 . S
C4132 C4151 1.429 . S
C4132 H4156 0.950 . S
C4133 C4150 1.574 . S
C4133 C4152 1.368 . S
C4133 H4157 0.949 . S
H4134 C4138 0.949 . S
C4135 C4136 1.349 . S
C4135 C4137 1.327 . S
C4135 H4158 0.950 . S
C4136 C4135 1.349 . S
C4136 C4148 1.349 . S
C4137 C4135 1.327 . S
C4137 C4153 1.429 . S
C4137 H4159 0.950 . S
C4138 H4134 0.949 . S
C4138 C4146 1.574 . S
C4138 C4154 1.368 . S
H4139 C4147 0.950 . S
H4140 C4145 0.950 . S
H4141 C4146 0.949 . S
H4142 C4148 0.950 . S
H4143 C4149 0.950 . S
H4144 C4150 0.949 . S
C4145 H4140 0.950 . S
C4145 C4147 1.327 . S
C4145 C4151 1.429 . S
C4146 C4138 1.574 . S
C4146 H4141 0.949 . S
C4146 C4152 1.368 . S
C4147 C4131 1.349 . S
C4147 H4139 0.950 . S
C4147 C4145 1.327 . S
C4148 C4136 1.349 . S
C4148 H4142 0.950 . S
C4148 C4149 1.327 . S
C4149 H4143 0.950 . S
C4149 C4148 1.327 . S
C4149 C4153 1.429 . S
C4150 C4133 1.574 . S
C4150 H4144 0.949 . S
C4150 C4154 1.368 . S
C4151 C4132 1.429 . S
C4151 C4145 1.429 . S
C4151 C4152 1.523 . S
C4152 C4133 1.368 . S
C4152 C4146 1.368 . S
C4152 C4151 1.523 . S
C4153 C4137 1.429 . S
C4153 C4149 1.429 . S
C4153 C4154 1.523 . S
C4154 C4138 1.368 . S
C4154 C4150 1.368 . S
C4154 C4153 1.523 . S
H4155 C4130 0.943 1_554 S
H4156 C4132 0.950 . S
H4157 C4133 0.949 . S
H4158 C4135 0.950 . S
H4159 C4137 0.950 . S
C1281 C1135 1.714 . S
C1286 C6 1.714 . S
C1311 C215 1.714 . S
C1316 C46 1.714 . S
C1341 C895 1.714 . S
C1346 C86 1.714 . S
C1371 C615 1.715 . S
C1376 C126 1.715 . S
C1401 C175 1.714 . S
C1406 C966 1.714 . S
C1431 C726 1.714 . S
C1436 C255 1.714 . S
C1461 C446 1.715 . S
C1466 C295 1.715 . S
C1491 C815 1.714 . S
C1496 C326 1.714 . S
C1521 C366 1.714 . S
C1526 C535 1.714 . S
C1551 C406 1.714 . S
C1556 C1215 1.714 . S
C1581 C646 1.714 . S
C1586 C495 1.714 . S
C1611 C575 1.714 . S
C1616 C1046 1.714 . S
C1641 C686 1.714 . S
C1646 C855 1.714 . S
C1671 C766 1.714 . S
C1676 C1255 1.714 . S
C1701 C1086 1.714 . S
C1706 C935 1.714 . S
C1731 C1175 1.714 . S
C1736 C1006 1.714 . S
C1761 C775 2.027 . S
C1766 C15 2.027 . S
C1791 C735 2.027 . S
C1796 C55 2.027 . S
C1821 C695 2.026 . S
C1826 C95 2.026 . S
C1851 C655 2.026 . S
C1856 C135 2.026 . S
C1881 C926 2.027 . S
C1886 C166 2.027 . S
C1911 C206 2.027 . S
C1916 C886 2.027 . S
C1941 C246 2.026 . S
C1946 C846 2.026 . S
C1971 C286 2.026 . S
C1976 C806 2.027 . S
C2001 C335 2.026 . S
C2006 C1095 2.026 . S
C2031 C375 2.026 . S
C2036 C1055 2.026 . S
C2061 C415 2.027 . S
C2066 C1015 2.027 . S
C2091 C975 2.027 . S
C2096 C455 2.027 . S
C2121 C486 2.026 . S
C2126 C1246 2.026 . S
C2151 C526 2.026 . S
C2156 C1206 2.026 . S
C2181 C566 2.027 . S
C2186 C1166 2.027 . S
C2211 C1126 2.027 . S
C2216 C606 2.027 . S
C2241 C19 2.449 . S
C2246 C10 2.449 1_556 S
C2271 C59 2.449 . S
C2276 C50 2.449 1_556 S
C2301 C90 2.449 . S
C2306 C99 2.450 1_565 S
C2331 C130 2.449 . S
C2336 C139 2.449 . S
C2361 C179 2.449 1_554 S
C2366 C170 2.449 . S
C2391 C219 2.449 1_554 S
C2396 C210 2.449 . S
C2421 C259 2.449 . S
C2426 C250 2.450 1_545 S
C2451 C290 2.449 . S
C2456 C299 2.449 . S
C2481 C339 2.449 . S
C2486 C330 2.449 . S
C2511 C370 2.449 . S
C2516 C379 2.449 . S
C2541 C410 2.449 . S
C2546 C419 2.449 . S
C2571 C450 2.449 . S
C2576 C459 2.449 . S
C2601 C499 2.449 . S
C2606 C490 2.449 . S
C2631 C530 2.449 . S
C2636 C539 2.449 . S
C2661 C579 2.449 . S
C2666 C570 2.449 . S
C2691 C610 2.449 . S
C2696 C619 2.449 . S
C2721 C659 2.449 . S
C2726 C650 2.449 . S
C2751 C690 2.449 . S
C2756 C699 2.450 1_565 S
C2781 C730 2.449 . S
C2786 C739 2.449 1_565 S
C2811 C770 2.449 . S
C2816 C779 2.449 . S
C2841 C810 2.449 . S
C2846 C819 2.449 . S
C2871 C859 2.449 . S
C2876 C850 2.450 1_545 S
C2901 C890 2.449 1_545 S
C2906 C899 2.449 . S
C2931 C930 2.449 . S
C2936 C939 2.449 . S
C2961 C979 2.449 . S
C2966 C970 2.449 1_556 S
C2991 C1010 2.449 1_556 S
C2996 C1019 2.449 . S
C3021 C1050 2.449 . S
C3026 C1059 2.449 . S
C3051 C1099 2.449 . S
C3056 C1090 2.449 . S
C3081 C1139 2.449 1_554 S
C3086 C1130 2.449 . S
C3111 C1170 2.449 . S
C3116 C1179 2.449 1_554 S
C3141 C1210 2.449 . S
C3146 C1219 2.449 . S
C3171 C1250 2.449 . S
C3176 C1259 2.449 . S
C3201 C409 1.496 . S
C3206 C9 1.496 . S
C3231 C449 1.496 . S
C3236 C49 1.496 . S
C3261 C89 1.497 1_556 S
C3266 C329 1.497 . S
C3291 C369 1.496 . S
C3296 C129 1.496 1_556 S
C3321 C178 1.496 . S
C3326 C578 1.496 . S
C3351 C218 1.496 . S
C3356 C618 1.496 . S
C3381 C258 1.497 1_554 S
C3386 C498 1.497 . S
C3411 C298 1.496 1_554 S
C3416 C538 1.496 . S
C3441 C1049 1.496 1_556 S
C3446 C649 1.496 . S
C3471 C689 1.496 . S
C3476 C1089 1.496 1_556 S
C3501 C969 1.496 . S
C3506 C729 1.496 . S
C3531 C769 1.496 . S
C3536 C1009 1.496 . S
C3561 C1218 1.496 1_554 S
C3566 C818 1.496 . S
C3591 C858 1.496 . S
C3596 C1258 1.496 1_554 S
C3621 C898 1.496 . S
C3626 C1138 1.496 . S
C3651 C1178 1.496 . S
C3656 C938 1.496 . S
C3681 C18 1.482 . S
C3686 C98 1.482 . S
C3711 C138 1.482 . S
C3716 C58 1.482 . S
C3741 C249 1.482 . S
C3746 C169 1.482 . S
C3771 C209 1.482 . S
C3776 C289 1.482 . S
C3801 C338 1.482 . S
C3806 C418 1.482 . S
C3831 C458 1.483 . S
C3836 C378 1.483 . S
C3861 C569 1.482 . S
C3866 C489 1.482 . S
C3891 C609 1.483 . S
C3896 C529 1.483 . S
C3921 C738 1.482 . S
C3926 C658 1.482 . S
C3951 C778 1.483 . S
C3956 C698 1.483 . S
C3981 C889 1.482 . S
C3986 C809 1.482 . S
C4011 C929 1.483 . S
C4016 C849 1.483 . S
C4041 C978 1.482 . S
C4046 C1058 1.482 . S
C4071 C1018 1.482 . S
C4076 C1098 1.482 . S
C4101 C1129 1.482 . S
C4106 C1209 1.482 . S
C4131 C1249 1.482 . S
C4136 C1169 1.482 . S
