# Generated by pormake.
# Topology fni, (5)-cn, num edge types: 1
# Building blocks:
#     Node 0, Type 0, BuildingBlock: XOMCOT_clean_sbu_1, # of connection points: 5
#     Node 1, Type 0, BuildingBlock: XOMCOT_clean_sbu_1, # of connection points: 5
#     Node 2, Type 0, BuildingBlock: XOMCOT_clean_sbu_1, # of connection points: 5
#     Node 3, Type 0, BuildingBlock: XOMCOT_clean_sbu_1, # of connection points: 5
#     Node 4, Type 0, BuildingBlock: XOMCOT_clean_sbu_1, # of connection points: 5
#     Node 5, Type 0, BuildingBlock: XOMCOT_clean_sbu_1, # of connection points: 5
#     Node 6, Type 0, BuildingBlock: XOMCOT_clean_sbu_1, # of connection points: 5
#     Node 7, Type 0, BuildingBlock: XOMCOT_clean_sbu_1, # of connection points: 5
#     Edge 8, Type (0, 0), BuildingBlock: AJUNOK_clean_linker_0, # of connection points: 2
#     Edge 9, Type (0, 0), BuildingBlock: AJUNOK_clean_linker_0, # of connection points: 2
#     Edge 10, Type (0, 0), BuildingBlock: AJUNOK_clean_linker_0, # of connection points: 2
#     Edge 11, Type (0, 0), BuildingBlock: AJUNOK_clean_linker_0, # of connection points: 2
#     Edge 12, Type (0, 0), BuildingBlock: AJUNOK_clean_linker_0, # of connection points: 2
#     Edge 13, Type (0, 0), BuildingBlock: AJUNOK_clean_linker_0, # of connection points: 2
#     Edge 14, Type (0, 0), BuildingBlock: AJUNOK_clean_linker_0, # of connection points: 2
#     Edge 15, Type (0, 0), BuildingBlock: AJUNOK_clean_linker_0, # of connection points: 2
#     Edge 16, Type (0, 0), BuildingBlock: AJUNOK_clean_linker_0, # of connection points: 2
#     Edge 17, Type (0, 0), BuildingBlock: AJUNOK_clean_linker_0, # of connection points: 2
#     Edge 18, Type (0, 0), BuildingBlock: AJUNOK_clean_linker_0, # of connection points: 2
#     Edge 19, Type (0, 0), BuildingBlock: AJUNOK_clean_linker_0, # of connection points: 2
#     Edge 20, Type (0, 0), BuildingBlock: AJUNOK_clean_linker_0, # of connection points: 2
#     Edge 21, Type (0, 0), BuildingBlock: AJUNOK_clean_linker_0, # of connection points: 2
#     Edge 22, Type (0, 0), BuildingBlock: AJUNOK_clean_linker_0, # of connection points: 2
#     Edge 23, Type (0, 0), BuildingBlock: AJUNOK_clean_linker_0, # of connection points: 2
#     Edge 24, Type (0, 0), BuildingBlock: AJUNOK_clean_linker_0, # of connection points: 2
#     Edge 25, Type (0, 0), BuildingBlock: AJUNOK_clean_linker_0, # of connection points: 2
#     Edge 26, Type (0, 0), BuildingBlock: AJUNOK_clean_linker_0, # of connection points: 2
#     Edge 27, Type (0, 0), BuildingBlock: AJUNOK_clean_linker_0, # of connection points: 2
# Relax obj value: 0.170
# Max RMSD: 0.170
# Mean RMSD: 0.164
data_MOF--net-fni--node1-XOMCOT_clean_sbu_1--edge1-AJUNOK_clean_linker_0
_symmetry_space_group_name_H-M    P1
_symmetry_Int_Tables_number       1
_symmetry_cell_setting            triclinic
loop_
_symmetry_equiv_pos_as_xyz
'x, y, z'
_cell_length_a     41.458381
_cell_length_b     38.799358
_cell_length_c     13.498255
_cell_angle_alpha  92.155229
_cell_angle_beta   92.82053
_cell_angle_gamma 91.072847
loop_
_atom_site_label
_atom_site_type_symbol
_atom_site_fract_x
_atom_site_fract_y
_atom_site_fract_z
_atom_type_partial_charge
C0 C 0.41931 0.43061 0.226 0.0
C1 C 0.41932 0.43203 0.32818 0.0
N2 N 0.43843 0.40698 0.36247 0.0
N3 N 0.43786 0.40435 0.19636 0.0
C4 C 0.44942 0.39069 0.28119 0.0
H5 H 0.40629 0.44734 0.17651 0.0
Co6 Co 0.44554 0.38957 0.06741 0.0
C7 C 0.43619 0.31343 0.06779 0.0
O8 O 0.42237 0.31517 0.97847 0.0
N9 N 0.45455 0.37478 0.93574 0.0
C10 C 0.4806 0.35041 0.81132 0.0
C11 C 0.47786 0.35238 0.91253 0.0
C12 C 0.4442 0.38673 0.84688 0.0
N13 N 0.45954 0.37235 0.77021 0.0
O14 O 0.49097 0.39896 0.09559 0.0
H15 H 0.49247 0.33876 0.96627 0.0
H16 H 0.42717 0.40709 0.8375 0.0
O17 O 0.44786 0.34119 0.11168 0.0
C18 C 0.49894 0.42643 0.05241 0.0
O19 O 0.47736 0.44043 0.99266 0.0
N20 N 0.40064 0.38537 0.04049 0.0
C21 C 0.3344 0.39116 1.00212 0.0
C22 C 0.34633 0.36588 0.06479 0.0
C23 C 0.37965 0.3639 0.08497 0.0
C24 C 0.38899 0.41185 0.98676 0.0
C25 C 0.35609 0.4146 0.96389 0.0
H26 H 0.38818 0.34609 0.13931 0.0
H27 H 0.40533 0.43185 0.96477 0.0
H28 H 0.4651 0.36873 0.28333 0.0
H29 H 0.40634 0.45005 0.37381 0.0
H30 H 0.49696 0.33418 0.77157 0.0
H31 H 0.33007 0.3482 0.09887 0.0
H32 H 0.34757 0.43561 0.91958 0.0
C33 C 0.63304 0.97058 0.18135 0.0
C34 C 0.63424 0.96974 0.07966 0.0
N35 N 0.60824 0.9517 0.04117 0.0
N36 N 0.6066 0.95275 0.20635 0.0
C37 C 0.59171 0.94199 0.11926 0.0
H38 H 0.65017 0.98361 0.23365 0.0
Co39 Co 0.59306 0.94626 0.33301 0.0
C40 C 0.58136 0.87147 0.34472 0.0
O41 O 0.59374 0.87417 0.43626 0.0
N42 N 0.57809 0.94049 0.46201 0.0
C43 C 0.54519 0.92637 0.58099 0.0
C44 C 0.54812 0.92862 0.48027 0.0
C45 C 0.59235 0.94636 0.55356 0.0
N46 N 0.57332 0.93711 0.62655 0.0
O47 O 0.55179 0.96372 0.29426 0.0
H48 H 0.52972 0.92112 0.42354 0.0
H49 H 0.61593 0.9578 0.56856 0.0
O50 O 0.57888 0.89855 0.29348 0.0
C51 C 0.55111 0.99655 0.2947 0.0
O52 O 0.57799 1.01406 0.31843 0.0
N53 N 0.63506 0.93162 0.3698 0.0
C54 C 0.69933 0.91699 0.42204 0.0
C55 C 0.68125 0.89577 0.35249 0.0
C56 C 0.64928 0.90366 0.32684 0.0
C57 C 0.65346 0.95459 0.42781 0.0
C58 C 0.68501 0.94705 0.45884 0.0
H59 H 0.63662 0.88808 0.26892 0.0
H60 H 0.64358 0.97915 0.44978 0.0
H61 H 0.56912 0.92745 0.11316 0.0
H62 H 0.65231 0.98218 0.03717 0.0
H63 H 0.52434 0.91688 0.61766 0.0
H64 H 0.69194 0.87398 0.31502 0.0
H65 H 0.69815 0.96505 0.50987 0.0
C66 C 0.0465 0.12612 0.45495 0.0
C67 C 0.04453 0.12705 0.35287 0.0
N68 N 0.07269 0.11606 0.31872 0.0
N69 N 0.07585 0.11487 0.48467 0.0
C70 C 0.09106 0.10842 0.39987 0.0
H71 H 0.02802 0.13388 0.50457 0.0
Co72 Co 0.09169 0.11208 0.61504 0.0
C73 C 0.16079 0.13456 0.60654 0.0
O74 O 0.15837 0.15316 0.68913 0.0
N75 N 0.10765 0.10832 0.74843 0.0
C76 C 0.13597 0.08987 0.88026 0.0
C77 C 0.13398 0.09067 0.7783 0.0
C78 C 0.09351 0.11683 0.83407 0.0
N79 N 0.11049 0.10654 0.91521 0.0
O80 O 0.09264 0.06239 0.59748 0.0
H81 H 0.15017 0.07798 0.72887 0.0
H82 H 0.06993 0.12778 0.83764 0.0
O83 O 0.13629 0.11671 0.5709 0.0
C84 C 0.07219 0.04598 0.64668 0.0
O85 O 0.05369 0.06365 0.70544 0.0
N86 N 0.0874 0.16052 0.63152 0.0
C87 C 0.0769 0.23019 0.67215 0.0
C88 C 0.09964 0.22012 0.60402 0.0
C89 C 0.10398 0.18496 0.58268 0.0
C90 C 0.06223 0.17026 0.68683 0.0
C91 C 0.05728 0.20495 0.7113 0.0
H92 H 0.12071 0.17763 0.52727 0.0
H93 H 0.04581 0.15095 0.71216 0.0
H94 H 0.1155 0.09926 0.39736 0.0
H95 H 0.02406 0.13522 0.30737 0.0
H96 H 0.15429 0.07726 0.92497 0.0
H97 H 0.11448 0.23917 0.56985 0.0
H98 H 0.03862 0.21198 0.76127 0.0
C99 C 0.84178 0.5949 0.61796 0.0
C100 C 0.84187 0.59443 0.516 0.0
N101 N 0.87092 0.60606 0.49011 0.0
N102 N 0.87055 0.60733 0.6568 0.0
C103 C 0.88782 0.61347 0.57658 0.0
H104 H 0.82169 0.58672 0.65977 0.0
Co105 Co 0.88568 0.61562 0.78965 0.0
C106 C 0.90556 0.69224 0.79494 0.0
O107 O 0.90308 0.69699 0.89111 0.0
N108 N 0.90169 0.62337 0.92229 0.0
C109 C 0.93525 0.63451 0.05433 0.0
C110 C 0.93201 0.63383 0.95221 0.0
C111 C 0.88728 0.61717 1.00791 0.0
N112 N 0.90703 0.62383 0.08915 0.0
O113 O 0.92704 0.59921 0.75649 0.0
H114 H 0.95064 0.64077 0.90281 0.0
H115 H 0.863 0.60702 1.01169 0.0
O116 O 0.89856 0.66262 0.75354 0.0
C117 C 0.92917 0.56654 0.75838 0.0
O118 O 0.90324 0.54838 0.77705 0.0
N119 N 0.84407 0.62813 0.82533 0.0
C120 C 0.78336 0.63352 0.90488 0.0
C121 C 0.80005 0.66305 0.87552 0.0
C122 C 0.83046 0.65978 0.83486 0.0
C123 C 0.82753 0.59925 0.85015 0.0
C124 C 0.79719 0.60131 0.88946 0.0
H125 H 0.84295 0.68266 0.81321 0.0
H126 H 0.8387 0.57438 0.84239 0.0
H127 H 0.91222 0.62394 0.58175 0.0
H128 H 0.82213 0.58602 0.46476 0.0
H129 H 0.95657 0.64269 0.09913 0.0
H130 H 0.78984 0.68838 0.88491 0.0
H131 H 0.78525 0.57793 0.91148 0.0
C132 C 0.34365 0.0899 0.12526 0.0
C133 C 0.34285 0.08961 0.02326 0.0
N134 N 0.36974 0.10578 0.99547 0.0
N135 N 0.37078 0.1066 0.16204 0.0
C136 C 0.38655 0.11508 0.08071 0.0
H137 H 0.32545 0.07843 0.16878 0.0
Co138 Co 0.38492 0.11648 0.29454 0.0
C139 C 0.40323 0.19336 0.29662 0.0
O140 O 0.39904 0.19863 0.39178 0.0
N141 N 0.39991 0.12564 0.42762 0.0
C142 C 0.43189 0.13885 0.56198 0.0
C143 C 0.42967 0.13737 0.45964 0.0
C144 C 0.38498 0.11926 0.51217 0.0
N145 N 0.40355 0.12771 0.59475 0.0
O146 O 0.42664 0.10028 0.26555 0.0
H147 H 0.44863 0.14441 0.41152 0.0
H148 H 0.36144 0.10722 0.51421 0.0
O149 O 0.39761 0.16334 0.25594 0.0
C150 C 0.42883 0.06768 0.27053 0.0
O151 O 0.40274 0.0497 0.28875 0.0
N152 N 0.34277 0.12894 0.32572 0.0
C153 C 0.28092 0.13499 0.39758 0.0
C154 C 0.29724 0.16385 0.36225 0.0
C155 C 0.32825 0.16025 0.32581 0.0
C156 C 0.32645 0.10053 0.35475 0.0
C157 C 0.29573 0.10294 0.39119 0.0
H158 H 0.34033 0.18261 0.29905 0.0
H159 H 0.33817 0.07584 0.35343 0.0
H160 H 0.40986 0.1282 0.08397 0.0
H161 H 0.32409 0.07805 0.97339 0.0
H162 H 0.45271 0.14746 0.60855 0.0
H163 H 0.28626 0.18895 0.36329 0.0
H164 H 0.28419 0.08001 0.41769 0.0
C165 C 0.92634 0.93232 0.71831 0.0
C166 C 0.92711 0.93475 0.82052 0.0
N167 N 0.94363 0.90784 0.85582 0.0
N168 N 0.94192 0.90377 0.68949 0.0
C169 C 0.95237 0.88957 0.77477 0.0
H170 H 0.91481 0.94995 0.66817 0.0
Co171 Co 0.9481 0.88811 0.56037 0.0
C172 C 0.93671 0.81246 0.56481 0.0
O173 O 0.92139 0.81429 0.47765 0.0
N174 N 0.95568 0.8725 0.42791 0.0
C175 C 0.97998 0.84697 0.30125 0.0
C176 C 0.97735 0.84842 0.40269 0.0
C177 C 0.94638 0.886 0.34007 0.0
N178 N 0.96071 0.87098 0.26255 0.0
O179 O 0.99374 0.89654 0.5847 0.0
H180 H 0.99135 0.83368 0.45524 0.0
H181 H 0.93064 0.90752 0.33177 0.0
O182 O 0.94983 0.83995 0.60615 0.0
C183 C 1.00176 0.92393 0.54125 0.0
O184 O 0.98017 0.93797 0.4817 0.0
N185 N 0.90298 0.88487 0.5377 0.0
C186 C 0.83632 0.89254 0.50776 0.0
C187 C 0.84873 0.86844 0.57405 0.0
C188 C 0.88219 0.86525 0.58879 0.0
C189 C 0.89124 0.91058 0.48135 0.0
C190 C 0.85825 0.91385 0.46156 0.0
H191 H 0.89114 0.84837 0.64516 0.0
H192 H 0.90753 0.92989 0.45555 0.0
H193 H 0.9665 0.86644 0.77759 0.0
H194 H 0.91562 0.95429 0.86505 0.0
H195 H 0.99597 0.83082 0.25974 0.0
H196 H 0.83293 0.85322 0.61746 0.0
H197 H 0.85012 0.93369 0.41245 0.0
C198 C 0.13297 0.47106 0.66071 0.0
C199 C 0.13379 0.47193 0.55923 0.0
N200 N 0.1088 0.45264 0.51888 0.0
N201 N 0.10768 0.45118 0.68421 0.0
C202 C 0.0933 0.44039 0.59636 0.0
H203 H 0.14913 0.48501 0.71402 0.0
Co204 Co 0.09388 0.44586 0.81113 0.0
C205 C 0.08227 0.3715 0.8312 0.0
O206 O 0.09519 0.37594 0.92179 0.0
N207 N 0.07871 0.44179 0.94031 0.0
C208 C 0.04511 0.42887 0.05852 0.0
C209 C 0.04877 0.42961 0.95795 0.0
C210 C 0.09219 0.44958 0.03202 0.0
N211 N 0.07252 0.44143 0.1044 0.0
O212 O 0.0527 0.46321 0.77055 0.0
H213 H 0.0309 0.4209 0.90094 0.0
H214 H 0.11604 0.46043 0.04761 0.0
O215 O 0.07931 0.39767 0.77616 0.0
C216 C 0.05179 0.49601 0.76993 0.0
O217 O 0.07858 0.51381 0.79272 0.0
N218 N 0.13579 0.43122 0.8495 0.0
C219 C 0.19951 0.41561 0.90238 0.0
C220 C 0.1811 0.39393 0.83556 0.0
C221 C 0.14951 0.40262 0.80822 0.0
C222 C 0.15458 0.45426 0.90631 0.0
C223 C 0.18621 0.4465 0.93643 0.0
H224 H 0.13661 0.38678 0.7514 0.0
H225 H 0.14513 0.47918 0.9268 0.0
H226 H 0.07089 0.42554 0.58962 0.0
H227 H 0.15097 0.4863 0.51823 0.0
H228 H 0.02408 0.4198 0.09512 0.0
H229 H 0.19118 0.37071 0.8037 0.0
H230 H 0.20048 0.46495 0.98317 0.0
C231 C 0.55153 0.63058 0.96597 0.0
C232 C 0.54974 0.63042 0.86372 0.0
N233 N 0.57624 0.61509 0.83064 0.0
N234 N 0.57933 0.61599 0.99693 0.0
C235 C 0.59369 0.60649 0.91274 0.0
H236 H 0.534 0.64126 0.01465 0.0
Co237 Co 0.59489 0.61179 0.12727 0.0
C238 C 0.66475 0.63172 0.12139 0.0
O239 O 0.66288 0.64925 0.20605 0.0
N240 N 0.61052 0.60648 0.26027 0.0
C241 C 0.63768 0.5846 0.38928 0.0
C242 C 0.63588 0.58698 0.28782 0.0
C243 C 0.59683 0.61479 0.34686 0.0
N244 N 0.61282 0.60183 0.42626 0.0
O245 O 0.59446 0.56213 0.10644 0.0
H246 H 0.65151 0.57416 0.23694 0.0
H247 H 0.5743 0.62798 0.3522 0.0
O248 O 0.63962 0.61548 0.08343 0.0
C249 C 0.57347 0.54617 0.15482 0.0
O250 O 0.55547 0.56418 0.21427 0.0
N251 N 0.59184 0.6602 0.1472 0.0
C252 C 0.58021 0.73002 0.18671 0.0
C253 C 0.60473 0.71999 0.12425 0.0
C254 C 0.60948 0.6849 0.10286 0.0
C255 C 0.56589 0.66966 0.19928 0.0
C256 C 0.56002 0.70429 0.22173 0.0
H257 H 0.62716 0.67791 0.0501 0.0
H258 H 0.54928 0.65012 0.22247 0.0
H259 H 0.61696 0.59438 0.91155 0.0
H260 H 0.53055 0.64084 0.81725 0.0
H261 H 0.65567 0.57083 0.43201 0.0
H262 H 0.62056 0.73894 0.09371 0.0
H263 H 0.53987 0.71088 0.26645 0.0
C264 C 0.56168 0.49638 0.035 0.0
C265 C 0.56471 0.50934 0.13366 0.0
C266 C 0.54328 0.46623 1.01002 0.0
C267 C 0.52795 0.44769 0.08294 0.0
H268 H 0.57067 0.51138 0.97572 0.0
H269 H 0.53865 0.45909 0.93215 0.0
S270 S 0.53387 0.46743 0.35382 0.0
N271 N 0.55489 0.49879 0.3061 0.0
N272 N 0.5209 0.44187 0.25896 0.0
C273 C 0.53408 0.45815 0.18278 0.0
C274 C 0.55231 0.48914 0.20815 0.0
C275 C 0.46132 1.01403 0.27312 0.0
C276 C 0.46029 0.05015 0.26568 0.0
C277 C 0.49071 0.99678 0.27879 0.0
C278 C 0.52034 1.01491 0.27764 0.0
H279 H 0.43926 0.99887 0.27707 0.0
H280 H 0.49013 0.96912 0.28735 0.0
S281 S 0.53104 0.1093 0.249 0.0
N282 N 0.49157 0.10315 0.25004 0.0
N283 N 0.5468 0.07082 0.26058 0.0
C284 C 0.51968 0.05086 0.26582 0.0
C285 C 0.48969 0.06844 0.25979 0.0
C286 C 0.04608 0.96429 0.50277 0.0
C287 C 0.03013 0.94574 0.57438 0.0
C288 C 0.06329 0.99514 0.52853 0.0
C289 C 0.06444 1.00884 0.62652 0.0
H290 H 0.04275 0.95657 0.42488 0.0
H291 H 0.07281 1.01001 0.46977 0.0
S292 S 0.03113 0.96741 0.84405 0.0
N293 N 0.02043 0.94085 0.74913 0.0
N294 N 0.05213 0.99908 0.79768 0.0
C295 C 0.05141 0.98873 0.70025 0.0
C296 C 0.03443 0.95703 0.67417 0.0
C297 C 0.99135 0.49587 0.76086 0.0
C298 C 0.02077 0.51406 0.75485 0.0
C299 C 0.96188 0.513 0.75845 0.0
C300 C 0.96054 0.54904 0.74962 0.0
H301 H 0.99106 0.4683 0.77104 0.0
H302 H 0.94003 0.49781 0.76636 0.0
S303 S 0.03048 0.60816 0.7193 0.0
N304 N 0.04658 0.56984 0.73088 0.0
N305 N 0.99118 0.60195 0.72638 0.0
C306 C 0.98966 0.56734 0.73847 0.0
C307 C 0.01974 0.54989 0.74115 0.0
C308 C 0.41885 0.39799 0.52934 0.0
C309 C 0.44431 0.39816 0.46436 0.0
C310 C 0.42399 0.38915 0.62857 0.0
C311 C 0.45485 0.38042 0.66694 0.0
H312 H 0.39468 0.40425 0.50272 0.0
H313 H 0.40355 0.38886 0.67548 0.0
S314 S 0.53012 0.38019 0.5287 0.0
N315 N 0.50167 0.39049 0.44577 0.0
N316 N 0.51165 0.37473 0.63279 0.0
C317 C 0.48064 0.38104 0.60282 0.0
C318 C 0.47528 0.38971 0.50148 0.0
C319 C 0.56743 0.9514 0.90203 0.0
C320 C 0.59921 0.9457 0.93789 0.0
C321 C 0.55887 0.9479 0.80023 0.0
C322 C 0.58181 0.93837 0.73137 0.0
H323 H 0.54941 0.95969 0.95274 0.0
H324 H 0.53445 0.95365 0.77492 0.0
S325 S 0.66686 0.91515 0.79078 0.0
N326 N 0.65273 0.92683 0.89901 0.0
N327 N 0.63662 0.91932 0.70811 0.0
C328 C 0.61325 0.93092 0.76735 0.0
C329 C 0.62196 0.93483 0.87057 0.0
C330 C 0.10822 0.08324 0.08304 0.0
C331 C 0.10139 0.10971 0.01699 0.0
C332 C 0.09883 0.08552 0.18152 0.0
C333 C 0.08204 0.11417 0.21734 0.0
H334 H 0.1204 0.06032 0.05801 0.0
H335 H 0.10426 0.06448 0.22972 0.0
S336 S 0.06142 0.19206 0.07846 0.0
N337 N 0.07914 0.16675 0.9974 0.0
N338 N 0.061 0.1706 0.18178 0.0
C339 C 0.07558 0.14107 0.15292 0.0
C340 C 0.08538 0.13894 0.05297 0.0
C341 C 0.86751 0.62713 0.2201 0.0
C342 C 0.89897 0.62017 0.19122 0.0
C343 C 0.85865 0.62265 0.31776 0.0
C344 C 0.88089 0.61111 0.39068 0.0
H345 H 0.8496 0.63632 0.16682 0.0
H346 H 0.83423 0.62856 0.33662 0.0
S347 S 0.96577 0.5874 0.35272 0.0
N348 N 0.95212 0.59991 0.24309 0.0
N349 N 0.93544 0.59172 0.42674 0.0
C350 C 0.91245 0.60412 0.36313 0.0
C351 C 0.92149 0.6086 0.26346 0.0
C352 C 0.41014 0.10881 0.86701 0.0
C353 C 0.37821 0.11263 0.8957 0.0
C354 C 0.41842 0.11427 0.76899 0.0
C355 C 0.39509 0.12394 0.6964 0.0
H356 H 0.42863 0.10074 0.92015 0.0
H357 H 0.44307 0.11005 0.74933 0.0
S358 S 0.30916 0.14229 0.7383 0.0
N359 N 0.32392 0.12982 0.84666 0.0
N360 N 0.33943 0.14061 0.6634 0.0
C361 C 0.36337 0.12924 0.72558 0.0
C362 C 0.35495 0.12345 0.82493 0.0
C363 C 0.95312 0.8552 0.08404 0.0
C364 C 0.95779 0.88061 0.16057 0.0
C365 C 0.9488 0.86426 0.9846 0.0
C366 C 0.94924 0.89906 0.95813 0.0
H367 H 0.95203 0.82822 0.10164 0.0
H368 H 0.94435 0.84391 0.92828 0.0
S369 S 0.96523 0.97494 0.13022 0.0
N370 N 0.96548 0.94167 0.20301 0.0
N371 N 0.95785 0.95874 0.0163 0.0
C372 C 0.95507 0.9246 0.03394 0.0
C373 C 0.95926 0.91537 0.13509 0.0
C374 C 0.10279 0.47755 0.35371 0.0
C375 C 0.09891 0.44937 0.41516 0.0
C376 C 0.0938 0.47489 0.2523 0.0
C377 C 0.08032 0.44413 0.20912 0.0
H378 H 0.11266 0.50191 0.38439 0.0
H379 H 0.09724 0.49704 0.2072 0.0
S380 S 0.06804 0.36203 0.33409 0.0
N381 N 0.0827 0.38906 0.42339 0.0
N382 N 0.06527 0.38445 0.2326 0.0
C383 C 0.07646 0.41575 0.26904 0.0
C384 C 0.08586 0.41829 0.37219 0.0
C385 C 0.58041 0.63795 0.66344 0.0
C386 C 0.58517 0.61103 0.72914 0.0
C387 C 0.58959 0.63477 0.5649 0.0
C388 C 0.60374 0.60447 0.52817 0.0
H389 H 0.57002 0.66188 0.68905 0.0
H390 H 0.586 0.65638 0.51738 0.0
S391 S 0.61794 0.52506 0.66788 0.0
N392 N 0.60292 0.55237 0.74942 0.0
N393 N 0.61965 0.54599 0.56391 0.0
C394 C 0.60791 0.57704 0.59274 0.0
C395 C 0.59876 0.58042 0.69325 0.0
C396 C 0.25518 0.40086 0.85566 0.0
C397 C 0.23333 0.40736 0.93019 0.0
C398 C 0.28775 0.39485 0.87987 0.0
C399 C 0.29943 0.3946 0.97937 0.0
H400 H 0.24722 0.40136 0.77807 0.0
H401 H 0.30403 0.39073 0.82034 0.0
S402 S 0.25171 0.40877 0.20184 0.0
N403 N 0.22527 0.41218 0.10724 0.0
N404 N 0.28665 0.40064 0.15287 0.0
C405 C 0.27769 0.40017 0.05463 0.0
C406 C 0.24459 0.40669 0.02996 0.0
C407 C 0.57356 0.80824 0.36079 0.0
C408 C 0.57632 0.83633 0.29856 0.0
C409 C 0.5738 0.77419 0.32305 0.0
C410 C 0.57689 0.76663 0.2213 0.0
H411 H 0.57217 0.81251 0.44024 0.0
H412 H 0.57282 0.7536 0.37494 0.0
S413 S 0.58189 0.83068 0.02479 0.0
N414 N 0.58019 0.8543 0.12869 0.0
N415 N 0.58024 0.79008 0.05738 0.0
C416 C 0.57826 0.7944 0.15724 0.0
C417 C 0.57792 0.82927 0.19586 0.0
C418 C 0.2244 0.1132 0.42052 0.0
C419 C 0.2493 0.13771 0.44514 0.0
C420 C 0.1958 0.11264 0.47203 0.0
C421 C 0.19097 0.13638 0.55112 0.0
H422 H 0.22723 0.09393 0.36155 0.0
H423 H 0.17762 0.09298 0.45076 0.0
S424 S 0.24818 0.20687 0.64224 0.0
N425 N 0.26682 0.18701 0.55184 0.0
N426 N 0.21321 0.18623 0.64848 0.0
C427 C 0.21539 0.1616 0.57492 0.0
C428 C 0.24443 0.16226 0.52189 0.0
C429 C 0.92711 0.75307 0.78117 0.0
C430 C 0.91545 0.72184 0.73424 0.0
C431 C 0.93552 0.78175 0.72615 0.0
C432 C 0.93252 0.78054 0.6217 0.0
H433 H 0.9294 0.75567 0.86139 0.0
H434 H 0.94334 0.80538 0.76613 0.0
S435 S 0.90505 0.70453 0.46161 0.0
N436 N 0.90254 0.69149 0.57591 0.0
N437 N 0.91877 0.74474 0.47325 0.0
C438 C 0.92192 0.74917 0.57372 0.0
C439 C 0.91329 0.72006 0.62964 0.0
C440 C 0.78918 0.93122 0.48224 0.0
C441 C 0.80093 0.89761 0.49138 0.0
C442 C 0.75653 0.93707 0.46028 0.0
C443 C 0.73376 0.90968 0.44928 0.0
H444 H 0.80538 0.95346 0.49142 0.0
H445 H 0.74933 0.96342 0.44991 0.0
S446 S 0.75129 0.81671 0.47365 0.0
N447 N 0.78694 0.83636 0.48911 0.0
N448 N 0.72497 0.8476 0.45659 0.0
C449 C 0.74486 0.87593 0.46224 0.0
C450 C 0.77845 0.86986 0.48177 0.0
C451 C 0.09032 0.27447 0.80501 0.0
C452 C 0.07603 0.26622 0.71074 0.0
C453 C 0.09128 0.30842 0.84363 0.0
C454 C 0.07797 0.33561 0.78948 0.0
H455 H 0.10136 0.25454 0.84862 0.0
H456 H 0.10331 0.31332 0.91596 0.0
S457 S 0.03411 0.32617 0.54346 0.0
N458 N 0.04597 0.28674 0.56676 0.0
N459 N 0.04758 0.35104 0.63929 0.0
C460 C 0.06256 0.32738 0.69606 0.0
C461 C 0.06166 0.29256 0.65666 0.0
C462 C 0.69762 0.61347 0.9774 0.0
C463 C 0.69495 0.63347 0.06584 0.0
C464 C 0.72588 0.61444 0.92417 0.0
C465 C 0.75251 0.63571 0.95645 0.0
H466 H 0.67792 0.59653 0.94945 0.0
H467 H 0.72702 0.59813 0.85755 0.0
S468 S 0.75838 0.69312 0.18263 0.0
N469 N 0.72185 0.67546 0.18265 0.0
N470 N 0.77469 0.67699 0.08233 0.0
C471 C 0.75012 0.65618 0.04366 0.0
C472 C 0.72146 0.65508 0.09843 0.0
C473 C 0.43553 0.28195 0.22816 0.0
C474 C 0.43129 0.28138 0.12389 0.0
C475 C 0.42674 0.25335 0.28297 0.0
C476 C 0.41338 0.22286 0.23607 0.0
H477 H 0.4448 0.30501 0.26833 0.0
H478 H 0.43016 0.25538 0.36306 0.0
S479 S 0.39813 0.20753 0.96421 0.0
N480 N 0.41395 0.24689 0.97564 0.0
N481 N 0.39668 0.19407 0.07838 0.0
C482 C 0.40967 0.22174 0.13174 0.0
C483 C 0.41881 0.25068 0.07589 0.0
loop_
_geom_bond_atom_site_label_1
_geom_bond_atom_site_label_2
_geom_bond_distance
_geom_bond_site_symmetry_2
_ccdc_geom_bond_type
C0 C1 1.351 . S
C0 N3 1.368 . S
C0 H5 0.931 . S
C1 C0 1.351 . S
C1 N2 1.373 . S
C1 H29 0.930 . S
N2 C1 1.373 . S
N2 C4 1.340 . S
N3 C0 1.368 . S
N3 C4 1.321 . S
N3 Co6 2.135 . S
C4 N2 1.340 . S
C4 N3 1.321 . S
C4 H28 0.930 . S
H5 C0 0.931 . S
Co6 N3 2.135 . S
Co6 N9 2.121 1_554 S
Co6 O14 2.055 . S
Co6 O17 2.039 . S
Co6 N20 2.140 . S
C7 O8 1.227 . S
C7 O17 1.265 . S
O8 C7 1.227 . S
N9 Co6 2.121 1_556 S
N9 C11 1.375 . S
N9 C12 1.313 . S
C10 C11 1.338 . S
C10 N13 1.377 . S
C10 H30 0.930 . S
C11 N9 1.375 . S
C11 C10 1.338 . S
C11 H15 0.931 . S
C12 N9 1.313 . S
C12 N13 1.344 . S
C12 H16 0.930 . S
N13 C10 1.377 . S
N13 C12 1.344 . S
O14 Co6 2.055 . S
O14 C18 1.253 . S
H15 C11 0.931 . S
H16 C12 0.930 . S
O17 Co6 2.039 . S
O17 C7 1.265 . S
C18 O14 1.253 . S
C18 O19 1.227 . S
O19 C18 1.227 . S
N20 Co6 2.140 . S
N20 C23 1.346 . S
N20 C24 1.350 . S
C21 C22 1.387 . S
C21 C25 1.391 1_554 S
C22 C21 1.387 . S
C22 C23 1.369 . S
C22 H31 0.929 . S
C23 N20 1.346 . S
C23 C22 1.369 . S
C23 H26 0.928 . S
C24 N20 1.350 . S
C24 C25 1.371 1_554 S
C24 H27 0.926 1_554 S
C25 C21 1.391 1_556 S
C25 C24 1.371 1_556 S
C25 H32 0.930 . S
H26 C23 0.928 . S
H27 C24 0.926 1_556 S
H28 C4 0.930 . S
H29 C1 0.930 . S
H30 C10 0.930 . S
H31 C22 0.929 . S
H32 C25 0.930 . S
C33 C34 1.351 . S
C33 N36 1.368 . S
C33 H38 0.931 . S
C34 C33 1.351 . S
C34 N35 1.373 . S
C34 H62 0.930 . S
N35 C34 1.373 . S
N35 C37 1.340 . S
N36 C33 1.368 . S
N36 C37 1.321 . S
N36 Co39 2.135 . S
C37 N35 1.340 . S
C37 N36 1.321 . S
C37 H61 0.930 . S
H38 C33 0.931 . S
Co39 N36 2.135 . S
Co39 N42 2.121 . S
Co39 O47 2.055 . S
Co39 O50 2.039 . S
Co39 N53 2.140 . S
C40 O41 1.227 . S
C40 O50 1.265 . S
O41 C40 1.227 . S
N42 Co39 2.121 . S
N42 C44 1.375 . S
N42 C45 1.313 . S
C43 C44 1.338 . S
C43 N46 1.377 . S
C43 H63 0.930 . S
C44 N42 1.375 . S
C44 C43 1.338 . S
C44 H48 0.931 . S
C45 N42 1.313 . S
C45 N46 1.344 . S
C45 H49 0.930 . S
N46 C43 1.377 . S
N46 C45 1.344 . S
O47 Co39 2.055 . S
O47 C51 1.253 . S
H48 C44 0.931 . S
H49 C45 0.930 . S
O50 Co39 2.039 . S
O50 C40 1.265 . S
C51 O47 1.253 . S
C51 O52 1.227 . S
O52 C51 1.227 . S
N53 Co39 2.140 . S
N53 C56 1.346 . S
N53 C57 1.345 . S
C54 C55 1.387 . S
C54 C58 1.391 . S
C55 C54 1.387 . S
C55 C56 1.369 . S
C55 H64 0.929 . S
C56 N53 1.346 . S
C56 C55 1.369 . S
C56 H59 0.928 . S
C57 N53 1.345 . S
C57 C58 1.371 . S
C57 H60 0.931 . S
C58 C54 1.391 . S
C58 C57 1.371 . S
C58 H65 0.930 . S
H59 C56 0.928 . S
H60 C57 0.931 . S
H61 C37 0.930 . S
H62 C34 0.930 . S
H63 C43 0.930 . S
H64 C55 0.929 . S
H65 C58 0.930 . S
C66 C67 1.351 . S
C66 N69 1.368 . S
C66 H71 0.931 . S
C67 C66 1.351 . S
C67 N68 1.373 . S
C67 H95 0.930 . S
N68 C67 1.373 . S
N68 C70 1.340 . S
N69 C66 1.368 . S
N69 C70 1.321 . S
N69 Co72 2.135 . S
C70 N68 1.340 . S
C70 N69 1.321 . S
C70 H94 0.930 . S
H71 C66 0.931 . S
Co72 N69 2.135 . S
Co72 N75 2.121 . S
Co72 O80 2.055 . S
Co72 O83 2.039 . S
Co72 N86 2.140 . S
C73 O74 1.227 . S
C73 O83 1.265 . S
O74 C73 1.227 . S
N75 Co72 2.121 . S
N75 C77 1.375 . S
N75 C78 1.313 . S
C76 C77 1.338 . S
C76 N79 1.377 . S
C76 H96 0.930 . S
C77 N75 1.375 . S
C77 C76 1.338 . S
C77 H81 0.931 . S
C78 N75 1.313 . S
C78 N79 1.344 . S
C78 H82 0.930 . S
N79 C76 1.377 . S
N79 C78 1.344 . S
O80 Co72 2.055 . S
O80 C84 1.253 . S
H81 C77 0.931 . S
H82 C78 0.930 . S
O83 Co72 2.039 . S
O83 C73 1.265 . S
C84 O80 1.253 . S
C84 O85 1.227 . S
O85 C84 1.227 . S
N86 Co72 2.140 . S
N86 C89 1.346 . S
N86 C90 1.345 . S
C87 C88 1.387 . S
C87 C91 1.391 . S
C88 C87 1.387 . S
C88 C89 1.369 . S
C88 H97 0.929 . S
C89 N86 1.346 . S
C89 C88 1.369 . S
C89 H92 0.928 . S
C90 N86 1.345 . S
C90 C91 1.371 . S
C90 H93 0.931 . S
C91 C87 1.391 . S
C91 C90 1.371 . S
C91 H98 0.930 . S
H92 C89 0.928 . S
H93 C90 0.931 . S
H94 C70 0.930 . S
H95 C67 0.930 . S
H96 C76 0.930 . S
H97 C88 0.929 . S
H98 C91 0.930 . S
C99 C100 1.351 . S
C99 N102 1.368 . S
C99 H104 0.931 . S
C100 C99 1.351 . S
C100 N101 1.373 . S
C100 H128 0.930 . S
N101 C100 1.373 . S
N101 C103 1.340 . S
N102 C99 1.368 . S
N102 C103 1.321 . S
N102 Co105 2.135 . S
C103 N101 1.340 . S
C103 N102 1.321 . S
C103 H127 0.930 . S
H104 C99 0.931 . S
Co105 N102 2.135 . S
Co105 N108 2.121 . S
Co105 O113 2.055 . S
Co105 O116 2.039 . S
Co105 N119 2.140 . S
C106 O107 1.227 . S
C106 O116 1.265 . S
O107 C106 1.227 . S
N108 Co105 2.121 . S
N108 C110 1.375 1_556 S
N108 C111 1.313 1_556 S
C109 C110 1.338 . S
C109 N112 1.377 . S
C109 H129 0.930 . S
C110 N108 1.375 1_554 S
C110 C109 1.338 . S
C110 H114 0.931 1_554 S
C111 N108 1.313 1_554 S
C111 N112 1.344 . S
C111 H115 0.930 . S
N112 C109 1.377 . S
N112 C111 1.344 . S
O113 Co105 2.055 . S
O113 C117 1.253 . S
H114 C110 0.931 1_556 S
H115 C111 0.930 . S
O116 Co105 2.039 . S
O116 C106 1.265 . S
C117 O113 1.253 . S
C117 O118 1.227 . S
O118 C117 1.227 . S
N119 Co105 2.140 . S
N119 C122 1.346 . S
N119 C123 1.345 . S
C120 C121 1.387 . S
C120 C124 1.391 . S
C121 C120 1.387 . S
C121 C122 1.369 . S
C121 H130 0.929 . S
C122 N119 1.346 . S
C122 C121 1.369 . S
C122 H125 0.928 . S
C123 N119 1.345 . S
C123 C124 1.371 . S
C123 H126 0.931 . S
C124 C120 1.391 . S
C124 C123 1.371 . S
C124 H131 0.930 . S
H125 C122 0.928 . S
H126 C123 0.931 . S
H127 C103 0.930 . S
H128 C100 0.930 . S
H129 C109 0.930 . S
H130 C121 0.929 . S
H131 C124 0.930 . S
C132 C133 1.351 . S
C132 N135 1.368 . S
C132 H137 0.931 . S
C133 C132 1.351 . S
C133 N134 1.373 . S
C133 H161 0.930 . S
N134 C133 1.373 . S
N134 C136 1.340 . S
N135 C132 1.368 . S
N135 C136 1.321 . S
N135 Co138 2.135 . S
C136 N134 1.340 . S
C136 N135 1.321 . S
C136 H160 0.930 . S
H137 C132 0.931 . S
Co138 N135 2.135 . S
Co138 N141 2.121 . S
Co138 O146 2.055 . S
Co138 O149 2.039 . S
Co138 N152 2.140 . S
C139 O140 1.227 . S
C139 O149 1.265 . S
O140 C139 1.227 . S
N141 Co138 2.121 . S
N141 C143 1.375 . S
N141 C144 1.313 . S
C142 C143 1.338 . S
C142 N145 1.377 . S
C142 H162 0.930 . S
C143 N141 1.375 . S
C143 C142 1.338 . S
C143 H147 0.931 . S
C144 N141 1.313 . S
C144 N145 1.344 . S
C144 H148 0.930 . S
N145 C142 1.377 . S
N145 C144 1.344 . S
O146 Co138 2.055 . S
O146 C150 1.253 . S
H147 C143 0.931 . S
H148 C144 0.930 . S
O149 Co138 2.039 . S
O149 C139 1.265 . S
C150 O146 1.253 . S
C150 O151 1.227 . S
O151 C150 1.227 . S
N152 Co138 2.140 . S
N152 C155 1.346 . S
N152 C156 1.345 . S
C153 C154 1.387 . S
C153 C157 1.391 . S
C154 C153 1.387 . S
C154 C155 1.369 . S
C154 H163 0.929 . S
C155 N152 1.346 . S
C155 C154 1.369 . S
C155 H158 0.928 . S
C156 N152 1.345 . S
C156 C157 1.371 . S
C156 H159 0.931 . S
C157 C153 1.391 . S
C157 C156 1.371 . S
C157 H164 0.930 . S
H158 C155 0.928 . S
H159 C156 0.931 . S
H160 C136 0.930 . S
H161 C133 0.930 . S
H162 C142 0.930 . S
H163 C154 0.929 . S
H164 C157 0.930 . S
C165 C166 1.351 . S
C165 N168 1.368 . S
C165 H170 0.931 . S
C166 C165 1.351 . S
C166 N167 1.373 . S
C166 H194 0.930 . S
N167 C166 1.373 . S
N167 C169 1.340 . S
N168 C165 1.368 . S
N168 C169 1.321 . S
N168 Co171 2.135 . S
C169 N167 1.340 . S
C169 N168 1.321 . S
C169 H193 0.930 . S
H170 C165 0.931 . S
Co171 N168 2.135 . S
Co171 N174 2.121 . S
Co171 O179 2.055 . S
Co171 O182 2.039 . S
Co171 N185 2.140 . S
C172 O173 1.227 . S
C172 O182 1.265 . S
O173 C172 1.227 . S
N174 Co171 2.121 . S
N174 C176 1.375 . S
N174 C177 1.313 . S
C175 C176 1.338 . S
C175 N178 1.377 . S
C175 H195 0.930 . S
C176 N174 1.375 . S
C176 C175 1.338 . S
C176 H180 0.931 . S
C177 N174 1.313 . S
C177 N178 1.344 . S
C177 H181 0.930 . S
N178 C175 1.377 . S
N178 C177 1.344 . S
O179 Co171 2.055 . S
O179 C183 1.253 . S
H180 C176 0.931 . S
H181 C177 0.930 . S
O182 Co171 2.039 . S
O182 C172 1.265 . S
C183 O179 1.253 . S
C183 O184 1.227 . S
O184 C183 1.227 . S
N185 Co171 2.140 . S
N185 C188 1.346 . S
N185 C189 1.345 . S
C186 C187 1.387 . S
C186 C190 1.391 . S
C187 C186 1.387 . S
C187 C188 1.369 . S
C187 H196 0.929 . S
C188 N185 1.346 . S
C188 C187 1.369 . S
C188 H191 0.928 . S
C189 N185 1.345 . S
C189 C190 1.371 . S
C189 H192 0.931 . S
C190 C186 1.391 . S
C190 C189 1.371 . S
C190 H197 0.930 . S
H191 C188 0.928 . S
H192 C189 0.931 . S
H193 C169 0.930 . S
H194 C166 0.930 . S
H195 C175 0.930 . S
H196 C187 0.929 . S
H197 C190 0.930 . S
C198 C199 1.351 . S
C198 N201 1.368 . S
C198 H203 0.931 . S
C199 C198 1.351 . S
C199 N200 1.373 . S
C199 H227 0.930 . S
N200 C199 1.373 . S
N200 C202 1.340 . S
N201 C198 1.368 . S
N201 C202 1.321 . S
N201 Co204 2.135 . S
C202 N200 1.340 . S
C202 N201 1.321 . S
C202 H226 0.930 . S
H203 C198 0.931 . S
Co204 N201 2.135 . S
Co204 N207 2.121 . S
Co204 O212 2.055 . S
Co204 O215 2.039 . S
Co204 N218 2.140 . S
C205 O206 1.227 . S
C205 O215 1.265 . S
O206 C205 1.227 . S
N207 Co204 2.121 . S
N207 C209 1.375 1_556 S
N207 C210 1.313 1_556 S
C208 C209 1.338 . S
C208 N211 1.377 . S
C208 H228 0.930 . S
C209 N207 1.375 1_554 S
C209 C208 1.338 . S
C209 H213 0.931 1_554 S
C210 N207 1.313 1_554 S
C210 N211 1.344 . S
C210 H214 0.930 . S
N211 C208 1.377 . S
N211 C210 1.344 . S
O212 Co204 2.055 . S
O212 C216 1.253 . S
H213 C209 0.931 1_556 S
H214 C210 0.930 . S
O215 Co204 2.039 . S
O215 C205 1.265 . S
C216 O212 1.253 . S
C216 O217 1.227 . S
O217 C216 1.227 . S
N218 Co204 2.140 . S
N218 C221 1.346 . S
N218 C222 1.345 . S
C219 C220 1.387 . S
C219 C223 1.391 . S
C220 C219 1.387 . S
C220 C221 1.369 . S
C220 H229 0.929 . S
C221 N218 1.346 . S
C221 C220 1.369 . S
C221 H224 0.928 . S
C222 N218 1.345 . S
C222 C223 1.371 . S
C222 H225 0.931 . S
C223 C219 1.391 . S
C223 C222 1.371 . S
C223 H230 0.930 1_556 S
H224 C221 0.928 . S
H225 C222 0.931 . S
H226 C202 0.930 . S
H227 C199 0.930 . S
H228 C208 0.930 . S
H229 C220 0.929 . S
H230 C223 0.930 1_554 S
C231 C232 1.351 . S
C231 N234 1.368 . S
C231 H236 0.931 . S
C232 C231 1.351 . S
C232 N233 1.373 . S
C232 H260 0.930 . S
N233 C232 1.373 . S
N233 C235 1.340 . S
N234 C231 1.368 . S
N234 C235 1.321 . S
N234 Co237 2.135 1_556 S
C235 N233 1.340 . S
C235 N234 1.321 . S
C235 H259 0.930 . S
H236 C231 0.931 . S
Co237 N234 2.135 1_554 S
Co237 N240 2.121 . S
Co237 O245 2.055 . S
Co237 O248 2.039 1_554 S
Co237 N251 2.140 . S
C238 O239 1.227 . S
C238 O248 1.265 . S
O239 C238 1.227 . S
N240 Co237 2.121 . S
N240 C242 1.375 . S
N240 C243 1.313 . S
C241 C242 1.338 . S
C241 N244 1.377 . S
C241 H261 0.930 . S
C242 N240 1.375 . S
C242 C241 1.338 . S
C242 H246 0.931 . S
C243 N240 1.313 . S
C243 N244 1.344 . S
C243 H247 0.930 . S
N244 C241 1.377 . S
N244 C243 1.344 . S
O245 Co237 2.055 . S
O245 C249 1.253 . S
H246 C242 0.931 . S
H247 C243 0.930 . S
O248 Co237 2.039 1_556 S
O248 C238 1.265 . S
C249 O245 1.253 . S
C249 O250 1.227 . S
O250 C249 1.227 . S
N251 Co237 2.140 . S
N251 C254 1.346 1_554 S
N251 C255 1.345 . S
C252 C253 1.387 1_554 S
C252 C256 1.391 . S
C253 C252 1.387 1_556 S
C253 C254 1.369 . S
C253 H262 0.929 . S
C254 N251 1.346 1_556 S
C254 C253 1.369 . S
C254 H257 0.928 . S
C255 N251 1.345 . S
C255 C256 1.371 . S
C255 H258 0.931 . S
C256 C252 1.391 . S
C256 C255 1.371 . S
C256 H263 0.930 . S
H257 C254 0.928 . S
H258 C255 0.931 . S
H259 C235 0.930 . S
H260 C232 0.930 . S
H261 C241 0.930 . S
H262 C253 0.929 . S
H263 C256 0.930 . S
C264 C265 1.369 1_556 S
C264 C266 1.419 . S
C264 H268 0.930 . S
C265 C264 1.369 1_554 S
C265 C274 1.429 . S
C266 C264 1.419 . S
C266 C267 1.363 1_556 S
C266 H269 0.929 . S
C267 C266 1.363 1_554 S
C267 C273 1.428 . S
H268 C264 0.930 . S
H269 C266 0.929 . S
S270 N271 1.613 . S
S270 N272 1.610 . S
N271 S270 1.613 . S
N271 C274 1.350 . S
N272 S270 1.610 . S
N272 C273 1.351 . S
C273 C267 1.428 . S
C273 N272 1.351 . S
C273 C274 1.434 . S
C274 C265 1.429 . S
C274 N271 1.350 . S
C274 C273 1.434 . S
C275 C276 1.369 . S
C275 C277 1.419 1_545 S
C275 H279 0.930 . S
C276 C275 1.369 . S
C276 C285 1.429 . S
C277 C275 1.419 1_565 S
C277 C278 1.363 . S
C277 H280 0.929 . S
C278 C277 1.363 . S
C278 C284 1.428 . S
H279 C275 0.930 . S
H280 C277 0.929 . S
S281 N282 1.613 . S
S281 N283 1.610 1_545 S
N282 S281 1.613 . S
N282 C285 1.350 . S
N283 S281 1.610 1_565 S
N283 C284 1.351 . S
C284 C278 1.428 . S
C284 N283 1.351 . S
C284 C285 1.434 1_565 S
C285 C276 1.429 . S
C285 N282 1.350 . S
C285 C284 1.434 1_545 S
C286 C287 1.369 . S
C286 C288 1.419 1_655 S
C286 H290 0.930 . S
C287 C286 1.369 . S
C287 C296 1.429 . S
C288 C286 1.419 1_455 S
C288 C289 1.363 1_565 S
C288 H291 0.929 . S
C289 C288 1.363 1_545 S
C289 C295 1.428 . S
H290 C286 0.930 . S
H291 C288 0.929 . S
S292 N293 1.608 1_445 S
S292 N294 1.618 . S
N293 S292 1.608 1_665 S
N293 C296 1.350 . S
N294 S292 1.618 . S
N294 C295 1.351 . S
C295 C289 1.428 . S
C295 N294 1.351 . S
C295 C296 1.434 1_445 S
C296 C287 1.429 . S
C296 N293 1.350 . S
C296 C295 1.434 1_665 S
C297 C298 1.369 1_655 S
C297 C299 1.419 . S
C297 H301 0.930 . S
C298 C297 1.369 1_455 S
C298 C307 1.429 . S
C299 C297 1.419 . S
C299 C300 1.363 . S
C299 H302 0.929 . S
C300 C299 1.363 . S
C300 C306 1.428 1_655 S
H301 C297 0.930 . S
H302 C299 0.929 . S
S303 N304 1.613 . S
S303 N305 1.610 . S
N304 S303 1.613 . S
N304 C307 1.350 . S
N305 S303 1.610 . S
N305 C306 1.351 . S
C306 C300 1.428 1_455 S
C306 N305 1.351 . S
C306 C307 1.434 . S
C307 C298 1.429 . S
C307 N304 1.350 . S
C307 C306 1.434 . S
C308 C309 1.369 . S
C308 C310 1.419 . S
C308 H312 0.930 . S
C309 C308 1.369 . S
C309 C318 1.429 . S
C310 C308 1.419 . S
C310 C311 1.363 . S
C310 H313 0.929 . S
C311 C310 1.363 . S
C311 C317 1.428 . S
H312 C308 0.930 . S
H313 C310 0.929 . S
S314 N315 1.613 . S
S314 N316 1.610 . S
N315 S314 1.613 . S
N315 C318 1.350 . S
N316 S314 1.610 . S
N316 C317 1.351 . S
C317 C311 1.428 . S
C317 N316 1.351 . S
C317 C318 1.434 . S
C318 C309 1.429 . S
C318 N315 1.350 . S
C318 C317 1.434 . S
C319 C320 1.369 . S
C319 C321 1.419 . S
C319 H323 0.930 . S
C320 C319 1.369 . S
C320 C329 1.429 . S
C321 C319 1.419 . S
C321 C322 1.363 . S
C321 H324 0.929 . S
C322 C321 1.363 . S
C322 C328 1.428 . S
H323 C319 0.930 . S
H324 C321 0.929 . S
S325 N326 1.613 . S
S325 N327 1.610 . S
N326 S325 1.613 . S
N326 C329 1.350 . S
N327 S325 1.610 . S
N327 C328 1.351 . S
C328 C322 1.428 . S
C328 N327 1.351 . S
C328 C329 1.434 . S
C329 C320 1.429 . S
C329 N326 1.350 . S
C329 C328 1.434 . S
C330 C331 1.369 . S
C330 C332 1.419 1_556 S
C330 H334 0.930 . S
C331 C330 1.369 . S
C331 C340 1.429 . S
C332 C330 1.419 1_554 S
C332 C333 1.363 . S
C332 H335 0.929 . S
C333 C332 1.363 . S
C333 C339 1.428 . S
H334 C330 0.930 . S
H335 C332 0.929 . S
S336 N337 1.613 . S
S336 N338 1.610 1_556 S
N337 S336 1.613 . S
N337 C340 1.350 . S
N338 S336 1.610 1_554 S
N338 C339 1.351 . S
C339 C333 1.428 . S
C339 N338 1.351 . S
C339 C340 1.434 1_554 S
C340 C331 1.429 . S
C340 N337 1.350 . S
C340 C339 1.434 1_556 S
C341 C342 1.369 . S
C341 C343 1.419 . S
C341 H345 0.930 . S
C342 C341 1.369 . S
C342 C351 1.429 . S
C343 C341 1.419 . S
C343 C344 1.363 . S
C343 H346 0.929 . S
C344 C343 1.363 . S
C344 C350 1.428 . S
H345 C341 0.930 . S
H346 C343 0.929 . S
S347 N348 1.613 . S
S347 N349 1.610 . S
N348 S347 1.613 . S
N348 C351 1.350 . S
N349 S347 1.610 . S
N349 C350 1.351 . S
C350 C344 1.428 . S
C350 N349 1.351 . S
C350 C351 1.434 . S
C351 C342 1.429 . S
C351 N348 1.350 . S
C351 C350 1.434 . S
C352 C353 1.369 . S
C352 C354 1.419 . S
C352 H356 0.930 . S
C353 C352 1.369 . S
C353 C362 1.429 . S
C354 C352 1.419 . S
C354 C355 1.363 . S
C354 H357 0.929 . S
C355 C354 1.363 . S
C355 C361 1.428 . S
H356 C352 0.930 . S
H357 C354 0.929 . S
S358 N359 1.613 . S
S358 N360 1.610 . S
N359 S358 1.613 . S
N359 C362 1.350 . S
N360 S358 1.610 . S
N360 C361 1.351 . S
C361 C355 1.428 . S
C361 N360 1.351 . S
C361 C362 1.434 . S
C362 C353 1.429 . S
C362 N359 1.350 . S
C362 C361 1.434 . S
C363 C364 1.369 . S
C363 C365 1.419 . S
C363 H367 0.930 . S
C364 C363 1.369 . S
C364 C373 1.429 . S
C365 C363 1.419 . S
C365 C366 1.363 1_554 S
C365 H368 0.929 1_554 S
C366 C365 1.363 1_556 S
C366 C372 1.428 1_556 S
H367 C363 0.930 . S
H368 C365 0.929 1_556 S
S369 N370 1.613 . S
S369 N371 1.610 . S
N370 S369 1.613 . S
N370 C373 1.350 . S
N371 S369 1.610 . S
N371 C372 1.351 . S
C372 C366 1.428 1_554 S
C372 N371 1.351 . S
C372 C373 1.434 . S
C373 C364 1.429 . S
C373 N370 1.350 . S
C373 C372 1.434 . S
C374 C375 1.369 . S
C374 C376 1.419 . S
C374 H378 0.930 . S
C375 C374 1.369 . S
C375 C384 1.429 . S
C376 C374 1.419 . S
C376 C377 1.363 . S
C376 H379 0.929 . S
C377 C376 1.363 . S
C377 C383 1.428 . S
H378 C374 0.930 . S
H379 C376 0.929 . S
S380 N381 1.613 . S
S380 N382 1.610 . S
N381 S380 1.613 . S
N381 C384 1.350 . S
N382 S380 1.610 . S
N382 C383 1.351 . S
C383 C377 1.428 . S
C383 N382 1.351 . S
C383 C384 1.434 . S
C384 C375 1.429 . S
C384 N381 1.350 . S
C384 C383 1.434 . S
C385 C386 1.369 . S
C385 C387 1.419 . S
C385 H389 0.930 . S
C386 C385 1.369 . S
C386 C395 1.429 . S
C387 C385 1.419 . S
C387 C388 1.363 . S
C387 H390 0.929 . S
C388 C387 1.363 . S
C388 C394 1.428 . S
H389 C385 0.930 . S
H390 C387 0.929 . S
S391 N392 1.613 . S
S391 N393 1.610 . S
N392 S391 1.613 . S
N392 C395 1.350 . S
N393 S391 1.610 . S
N393 C394 1.351 . S
C394 C388 1.428 . S
C394 N393 1.351 . S
C394 C395 1.434 . S
C395 C386 1.429 . S
C395 N392 1.350 . S
C395 C394 1.434 . S
C396 C397 1.369 . S
C396 C398 1.419 . S
C396 H400 0.930 . S
C397 C396 1.369 . S
C397 C406 1.429 1_556 S
C398 C396 1.419 . S
C398 C399 1.363 1_556 S
C398 H401 0.929 . S
C399 C398 1.363 1_554 S
C399 C405 1.428 . S
H400 C396 0.930 . S
H401 C398 0.929 . S
S402 N403 1.613 . S
S402 N404 1.610 . S
N403 S402 1.613 . S
N403 C406 1.350 . S
N404 S402 1.610 . S
N404 C405 1.351 . S
C405 C399 1.428 . S
C405 N404 1.351 . S
C405 C406 1.434 . S
C406 C397 1.429 1_554 S
C406 N403 1.350 . S
C406 C405 1.434 . S
C407 C408 1.369 . S
C407 C409 1.419 . S
C407 H411 0.930 . S
C408 C407 1.369 . S
C408 C417 1.429 . S
C409 C407 1.419 . S
C409 C410 1.363 . S
C409 H412 0.929 . S
C410 C409 1.363 . S
C410 C416 1.428 . S
H411 C407 0.930 . S
H412 C409 0.929 . S
S413 N414 1.613 1_556 S
S413 N415 1.610 . S
N414 S413 1.613 1_554 S
N414 C417 1.350 . S
N415 S413 1.610 . S
N415 C416 1.351 1_556 S
C416 C410 1.428 . S
C416 N415 1.351 1_554 S
C416 C417 1.434 . S
C417 C408 1.429 . S
C417 N414 1.350 . S
C417 C416 1.434 . S
C418 C419 1.369 . S
C418 C420 1.419 . S
C418 H422 0.930 . S
C419 C418 1.369 . S
C419 C428 1.429 . S
C420 C418 1.419 . S
C420 C421 1.363 . S
C420 H423 0.929 . S
C421 C420 1.363 . S
C421 C427 1.428 . S
H422 C418 0.930 . S
H423 C420 0.929 . S
S424 N425 1.613 . S
S424 N426 1.610 . S
N425 S424 1.613 . S
N425 C428 1.350 . S
N426 S424 1.610 . S
N426 C427 1.351 . S
C427 C421 1.428 . S
C427 N426 1.351 . S
C427 C428 1.434 . S
C428 C419 1.429 . S
C428 N425 1.350 . S
C428 C427 1.434 . S
C429 C430 1.369 . S
C429 C431 1.419 . S
C429 H433 0.930 . S
C430 C429 1.369 . S
C430 C439 1.429 . S
C431 C429 1.419 . S
C431 C432 1.363 . S
C431 H434 0.929 . S
C432 C431 1.363 . S
C432 C438 1.428 . S
H433 C429 0.930 . S
H434 C431 0.929 . S
S435 N436 1.613 . S
S435 N437 1.610 . S
N436 S435 1.613 . S
N436 C439 1.350 . S
N437 S435 1.610 . S
N437 C438 1.351 . S
C438 C432 1.428 . S
C438 N437 1.351 . S
C438 C439 1.434 . S
C439 C430 1.429 . S
C439 N436 1.350 . S
C439 C438 1.434 . S
C440 C441 1.369 . S
C440 C442 1.419 . S
C440 H444 0.930 . S
C441 C440 1.369 . S
C441 C450 1.429 . S
C442 C440 1.419 . S
C442 C443 1.363 . S
C442 H445 0.929 . S
C443 C442 1.363 . S
C443 C449 1.428 . S
H444 C440 0.930 . S
H445 C442 0.929 . S
S446 N447 1.613 . S
S446 N448 1.610 . S
N447 S446 1.613 . S
N447 C450 1.350 . S
N448 S446 1.610 . S
N448 C449 1.351 . S
C449 C443 1.428 . S
C449 N448 1.351 . S
C449 C450 1.434 . S
C450 C441 1.429 . S
C450 N447 1.350 . S
C450 C449 1.434 . S
C451 C452 1.369 . S
C451 C453 1.419 . S
C451 H455 0.930 . S
C452 C451 1.369 . S
C452 C461 1.429 . S
C453 C451 1.419 . S
C453 C454 1.363 . S
C453 H456 0.929 . S
C454 C453 1.363 . S
C454 C460 1.428 . S
H455 C451 0.930 . S
H456 C453 0.929 . S
S457 N458 1.613 1_655 S
S457 N459 1.610 1_655 S
N458 S457 1.613 1_455 S
N458 C461 1.350 . S
N459 S457 1.610 1_455 S
N459 C460 1.351 . S
C460 C454 1.428 . S
C460 N459 1.351 . S
C460 C461 1.434 . S
C461 C452 1.429 . S
C461 N458 1.350 . S
C461 C460 1.434 . S
C462 C463 1.369 . S
C462 C464 1.419 . S
C462 H466 0.930 . S
C463 C462 1.369 . S
C463 C472 1.429 . S
C464 C462 1.419 . S
C464 C465 1.363 . S
C464 H467 0.929 . S
C465 C464 1.363 . S
C465 C471 1.428 . S
H466 C462 0.930 . S
H467 C464 0.929 . S
S468 N469 1.613 . S
S468 N470 1.610 . S
N469 S468 1.613 . S
N469 C472 1.350 . S
N470 S468 1.610 . S
N470 C471 1.351 . S
C471 C465 1.428 . S
C471 N470 1.351 . S
C471 C472 1.434 . S
C472 C463 1.429 . S
C472 N469 1.350 . S
C472 C471 1.434 . S
C473 C474 1.369 . S
C473 C475 1.419 . S
C473 H477 0.930 . S
C474 C473 1.369 . S
C474 C483 1.429 . S
C475 C473 1.419 . S
C475 C476 1.363 . S
C475 H478 0.929 . S
C476 C475 1.363 . S
C476 C482 1.428 . S
H477 C473 0.930 . S
H478 C475 0.929 . S
S479 N480 1.613 . S
S479 N481 1.610 . S
N480 S479 1.613 . S
N480 C483 1.350 . S
N481 S479 1.610 . S
N481 C482 1.351 . S
C482 C476 1.428 . S
C482 N481 1.351 . S
C482 C483 1.434 . S
C483 C474 1.429 . S
C483 N480 1.350 . S
C483 C482 1.434 . S
C265 C249 1.251 . S
C267 C18 1.253 . S
C276 C150 1.262 . S
C278 C51 1.263 . S
C287 C183 1.253 . S
C289 C84 1.252 . S
C298 C216 1.263 . S
C300 C117 1.264 . S
C309 N2 1.388 . S
C311 N13 1.389 . S
C320 N35 1.364 1_556 S
C322 N46 1.367 . S
C331 N79 1.383 . S
C333 N68 1.388 . S
C342 N112 1.415 . S
C344 N101 1.403 . S
C353 N134 1.405 1_556 S
C355 N145 1.411 . S
C364 N178 1.390 . S
C366 N167 1.387 . S
C375 N200 1.370 . S
C377 N211 1.363 . S
C386 N233 1.385 . S
C388 N244 1.388 . S
C397 C219 1.438 . S
C399 C21 1.450 . S
C408 C40 1.432 . S
C410 C252 1.464 . S
C419 C153 1.676 . S
C421 C73 1.649 . S
C430 C106 1.636 . S
C432 C172 1.623 . S
C441 C186 1.446 . S
C443 C54 1.438 . S
C452 C87 1.465 . S
C454 C205 1.436 . S
C463 C238 1.648 . S
C465 C120 1.675 . S
C474 C7 1.619 . S
C476 C139 1.634 . S
