# Generated by pormake.
# Topology uki, (4)-cn, num edge types: 1
# Building blocks:
#     Node 0, Type 0, BuildingBlock: ICAMEG_clean_sbu_1, # of connection points: 4
#     Node 1, Type 0, BuildingBlock: ICAMEG_clean_sbu_1, # of connection points: 4
#     Node 2, Type 0, BuildingBlock: ICAMEG_clean_sbu_1, # of connection points: 4
#     Node 3, Type 0, BuildingBlock: ICAMEG_clean_sbu_1, # of connection points: 4
#     Node 4, Type 0, BuildingBlock: ICAMEG_clean_sbu_1, # of connection points: 4
#     Node 5, Type 0, BuildingBlock: ICAMEG_clean_sbu_1, # of connection points: 4
#     Node 6, Type 0, BuildingBlock: ICAMEG_clean_sbu_1, # of connection points: 4
#     Node 7, Type 0, BuildingBlock: ICAMEG_clean_sbu_1, # of connection points: 4
#     Node 8, Type 0, BuildingBlock: ICAMEG_clean_sbu_1, # of connection points: 4
#     Node 9, Type 0, BuildingBlock: ICAMEG_clean_sbu_1, # of connection points: 4
#     Node 10, Type 0, BuildingBlock: ICAMEG_clean_sbu_1, # of connection points: 4
#     Node 11, Type 0, BuildingBlock: ICAMEG_clean_sbu_1, # of connection points: 4
#     Node 12, Type 0, BuildingBlock: ICAMEG_clean_sbu_1, # of connection points: 4
#     Node 13, Type 0, BuildingBlock: ICAMEG_clean_sbu_1, # of connection points: 4
#     Node 14, Type 0, BuildingBlock: ICAMEG_clean_sbu_1, # of connection points: 4
#     Node 15, Type 0, BuildingBlock: ICAMEG_clean_sbu_1, # of connection points: 4
#     Edge 16, Type (0, 0), BuildingBlock: TEMPAE_clean_linker_10, # of connection points: 2
#     Edge 17, Type (0, 0), BuildingBlock: TEMPAE_clean_linker_10, # of connection points: 2
#     Edge 18, Type (0, 0), BuildingBlock: TEMPAE_clean_linker_10, # of connection points: 2
#     Edge 19, Type (0, 0), BuildingBlock: TEMPAE_clean_linker_10, # of connection points: 2
#     Edge 20, Type (0, 0), BuildingBlock: TEMPAE_clean_linker_10, # of connection points: 2
#     Edge 21, Type (0, 0), BuildingBlock: TEMPAE_clean_linker_10, # of connection points: 2
#     Edge 22, Type (0, 0), BuildingBlock: TEMPAE_clean_linker_10, # of connection points: 2
#     Edge 23, Type (0, 0), BuildingBlock: TEMPAE_clean_linker_10, # of connection points: 2
#     Edge 24, Type (0, 0), BuildingBlock: TEMPAE_clean_linker_10, # of connection points: 2
#     Edge 25, Type (0, 0), BuildingBlock: TEMPAE_clean_linker_10, # of connection points: 2
#     Edge 26, Type (0, 0), BuildingBlock: TEMPAE_clean_linker_10, # of connection points: 2
#     Edge 27, Type (0, 0), BuildingBlock: TEMPAE_clean_linker_10, # of connection points: 2
#     Edge 28, Type (0, 0), BuildingBlock: TEMPAE_clean_linker_10, # of connection points: 2
#     Edge 29, Type (0, 0), BuildingBlock: TEMPAE_clean_linker_10, # of connection points: 2
#     Edge 30, Type (0, 0), BuildingBlock: TEMPAE_clean_linker_10, # of connection points: 2
#     Edge 31, Type (0, 0), BuildingBlock: TEMPAE_clean_linker_10, # of connection points: 2
#     Edge 32, Type (0, 0), BuildingBlock: TEMPAE_clean_linker_10, # of connection points: 2
#     Edge 33, Type (0, 0), BuildingBlock: TEMPAE_clean_linker_10, # of connection points: 2
#     Edge 34, Type (0, 0), BuildingBlock: TEMPAE_clean_linker_10, # of connection points: 2
#     Edge 35, Type (0, 0), BuildingBlock: TEMPAE_clean_linker_10, # of connection points: 2
#     Edge 36, Type (0, 0), BuildingBlock: TEMPAE_clean_linker_10, # of connection points: 2
#     Edge 37, Type (0, 0), BuildingBlock: TEMPAE_clean_linker_10, # of connection points: 2
#     Edge 38, Type (0, 0), BuildingBlock: TEMPAE_clean_linker_10, # of connection points: 2
#     Edge 39, Type (0, 0), BuildingBlock: TEMPAE_clean_linker_10, # of connection points: 2
#     Edge 40, Type (0, 0), BuildingBlock: TEMPAE_clean_linker_10, # of connection points: 2
#     Edge 41, Type (0, 0), BuildingBlock: TEMPAE_clean_linker_10, # of connection points: 2
#     Edge 42, Type (0, 0), BuildingBlock: TEMPAE_clean_linker_10, # of connection points: 2
#     Edge 43, Type (0, 0), BuildingBlock: TEMPAE_clean_linker_10, # of connection points: 2
#     Edge 44, Type (0, 0), BuildingBlock: TEMPAE_clean_linker_10, # of connection points: 2
#     Edge 45, Type (0, 0), BuildingBlock: TEMPAE_clean_linker_10, # of connection points: 2
#     Edge 46, Type (0, 0), BuildingBlock: TEMPAE_clean_linker_10, # of connection points: 2
#     Edge 47, Type (0, 0), BuildingBlock: TEMPAE_clean_linker_10, # of connection points: 2
# Relax obj value: 0.015
# Max RMSD: 0.106
# Mean RMSD: 0.106
data_MOF--net-uki--node1-ICAMEG_clean_sbu_1--edge1-TEMPAE_clean_linker_10
_symmetry_space_group_name_H-M    P1
_symmetry_Int_Tables_number       1
_symmetry_cell_setting            triclinic
loop_
_symmetry_equiv_pos_as_xyz
'x, y, z'
_cell_length_a     33.586476
_cell_length_b     33.590009
_cell_length_c     79.073731
_cell_angle_alpha  90.003847
_cell_angle_beta   90.002872
_cell_angle_gamma 89.996413
loop_
_atom_site_label
_atom_site_type_symbol
_atom_site_fract_x
_atom_site_fract_y
_atom_site_fract_z
_atom_type_partial_charge
Co0 Co 0.10521 0.20295 0.2749 0.0
Co1 Co 0.07809 0.26127 0.30908 0.0
O2 O 0.09726 0.21174 0.29906 0.0
C3 C 0.04861 0.14089 0.28543 0.0
O4 O 0.02935 0.16907 0.29351 0.0
C5 C 0.15578 0.24658 0.3249 0.0
O6 O 0.16869 0.23719 0.30976 0.0
O7 O 0.11533 0.29348 0.29516 0.0
O8 O 0.13048 0.25651 0.27233 0.0
H9 H 0.02912 0.40261 0.30836 0.0
H10 H 0.13403 0.14322 0.29965 0.0
O11 O 0.07995 0.14922 0.27708 0.0
H12 H 0.25356 0.1871 0.26862 0.0
H13 H 0.14033 0.12038 0.22391 0.0
H14 H 0.09556 0.25198 0.244 0.0
H15 H 0.18741 0.21407 0.2614 0.0
H16 H 0.13095 0.13308 0.25438 0.0
O17 O 0.11971 0.25709 0.3271 0.0
H18 H 0.0527 0.33976 0.29571 0.0
H19 H 0.06402 0.28813 0.3445 0.0
H20 H 0.1049 0.24069 0.21342 0.0
H21 H 0.19955 0.11521 0.3072 0.0
H22 H 0.12744 0.17448 0.20321 0.0
H23 H 0.25993 0.1373 0.29168 0.0
O24 O 0.05218 0.22631 0.26944 0.0
H25 H 0.03991 0.1475 0.347 0.0
H26 H 0.99121 0.26607 0.31658 0.0
H27 H 0.94391 0.22513 0.33292 0.0
H28 H 0.96821 0.16534 0.34827 0.0
H29 H 0.08614 0.18914 0.33042 0.0
H30 H 0.04089 0.35055 0.3577 0.0
H31 H 0.0231 0.40828 0.33958 0.0
O32 O 0.03666 0.2666 0.29119 0.0
C33 C 0.1326 0.28858 0.28095 0.0
C34 C 0.03662 0.37761 0.31639 0.0
C35 C 0.04328 0.34841 0.34409 0.0
N36 N 0.05932 0.31021 0.31935 0.0
C37 C 0.04985 0.34191 0.3093 0.0
C38 C 0.05642 0.31317 0.33654 0.0
C39 C 0.0333 0.38079 0.33391 0.0
C40 C 0.16011 0.15266 0.29272 0.0
N41 N 0.15689 0.1802 0.28008 0.0
C42 C 0.19715 0.13682 0.2971 0.0
C43 C 0.23102 0.14928 0.28841 0.0
C44 C 0.22748 0.17725 0.27548 0.0
C45 C 0.18996 0.1925 0.27147 0.0
C46 C 0.13058 0.14938 0.22821 0.0
C47 C 0.10563 0.22318 0.23965 0.0
C48 C 0.12514 0.15672 0.24544 0.0
N49 N 0.11303 0.19333 0.25095 0.0
C50 C 0.11075 0.21692 0.22232 0.0
C51 C 0.12335 0.17975 0.2166 0.0
C52 C 0.0295 0.25158 0.27669 0.0
C53 C 0.02899 0.17355 0.34042 0.0
C54 C 0.00201 0.24012 0.32324 0.0
C55 C 0.9751 0.21708 0.33248 0.0
C56 C 0.98875 0.18355 0.3411 0.0
N57 N 0.04143 0.23012 0.32264 0.0
C58 C 0.05506 0.19734 0.33108 0.0
Co59 Co 0.2044 0.89459 0.72423 0.0
Co60 Co 0.26335 0.92086 0.69013 0.0
O61 O 0.21367 0.90181 0.70006 0.0
C62 C 0.14188 0.95015 0.7131 0.0
O63 O 0.16997 0.96947 0.70499 0.0
C64 C 0.24923 0.84274 0.6746 0.0
O65 O 0.23981 0.83014 0.68978 0.0
O66 O 0.29539 0.88404 0.70432 0.0
O67 O 0.25815 0.86993 0.72718 0.0
H68 H 0.40458 0.97013 0.69113 0.0
H69 H 0.14551 0.86433 0.69941 0.0
O70 O 0.15045 0.91921 0.72168 0.0
H71 H 0.18993 0.74632 0.73134 0.0
H72 H 0.12102 0.86037 0.77508 0.0
H73 H 0.25261 0.90586 0.75527 0.0
H74 H 0.21605 0.81297 0.73827 0.0
H75 H 0.13434 0.8688 0.74461 0.0
O76 O 0.25959 0.8788 0.67227 0.0
H77 H 0.34155 0.9467 0.70366 0.0
H78 H 0.29086 0.93417 0.65475 0.0
H79 H 0.2407 0.89749 0.78585 0.0
H80 H 0.11836 0.79829 0.69215 0.0
H81 H 0.1745 0.87461 0.79593 0.0
H82 H 0.14073 0.73867 0.70811 0.0
O83 O 0.22714 0.94801 0.72944 0.0
H84 H 0.1503 0.95784 0.65159 0.0
H85 H 0.26808 0.00756 0.68228 0.0
H86 H 0.22739 0.05435 0.66556 0.0
H87 H 0.16801 0.02954 0.65008 0.0
H88 H 0.19167 0.91213 0.66855 0.0
H89 H 0.35347 0.95714 0.64166 0.0
H90 H 0.41083 0.97547 0.65991 0.0
O91 O 0.26825 0.96272 0.70787 0.0
C92 C 0.29035 0.86746 0.71867 0.0
C93 C 0.37975 0.9624 0.68305 0.0
C94 C 0.35108 0.95505 0.65528 0.0
N95 N 0.31245 0.9395 0.67995 0.0
C96 C 0.34394 0.94925 0.69007 0.0
C97 C 0.31573 0.94201 0.66276 0.0
C98 C 0.38325 0.96534 0.66553 0.0
C99 C 0.15506 0.8386 0.70654 0.0
N100 N 0.18228 0.84252 0.71928 0.0
C101 C 0.13971 0.80125 0.70232 0.0
C102 C 0.15232 0.76781 0.71127 0.0
C103 C 0.17996 0.77207 0.72429 0.0
C104 C 0.19474 0.80987 0.72813 0.0
C105 C 0.15001 0.87029 0.77085 0.0
C106 C 0.22381 0.89563 0.75956 0.0
C107 C 0.1577 0.87519 0.75361 0.0
N108 N 0.19431 0.88751 0.74818 0.0
C109 C 0.2172 0.89107 0.77689 0.0
C110 C 0.18004 0.87827 0.78254 0.0
C111 C 0.2527 0.97042 0.72222 0.0
C112 C 0.17618 0.96898 0.65824 0.0
C113 C 0.24229 0.99654 0.67557 0.0
C114 C 0.2194 0.02317 0.66611 0.0
C115 C 0.1861 0.00922 0.65742 0.0
N116 N 0.23237 0.95712 0.67631 0.0
C117 C 0.19982 0.94321 0.6678 0.0
Co118 Co 0.89471 0.79435 0.27576 0.0
Co119 Co 0.92225 0.73684 0.31014 0.0
O120 O 0.90238 0.78592 0.29996 0.0
C121 C 0.95042 0.85723 0.28633 0.0
O122 O 0.96973 0.82947 0.29464 0.0
C123 C 0.84375 0.75002 0.32547 0.0
O124 O 0.83118 0.75917 0.31025 0.0
O125 O 0.88622 0.7037 0.29601 0.0
O126 O 0.87005 0.74055 0.27327 0.0
H127 H 0.97498 0.59685 0.30981 0.0
H128 H 0.86494 0.85402 0.30035 0.0
O129 O 0.91938 0.84837 0.27787 0.0
H130 H 0.74629 0.80858 0.2691 0.0
H131 H 0.8594 0.87588 0.2245 0.0
H132 H 0.90534 0.74504 0.245 0.0
H133 H 0.81282 0.78229 0.26206 0.0
H134 H 0.86847 0.86367 0.25503 0.0
O135 O 0.87992 0.74016 0.32789 0.0
H136 H 0.95025 0.65904 0.29697 0.0
H137 H 0.93549 0.71033 0.34566 0.0
H138 H 0.89634 0.75585 0.21437 0.0
H139 H 0.79902 0.88135 0.30771 0.0
H140 H 0.87322 0.82167 0.20395 0.0
H141 H 0.73908 0.85847 0.29209 0.0
O142 O 0.94804 0.77143 0.27047 0.0
H143 H 0.95651 0.85153 0.34825 0.0
H144 H 0.00894 0.73402 0.3182 0.0
H145 H 0.05472 0.77604 0.33484 0.0
H146 H 0.02854 0.83529 0.34999 0.0
H147 H 0.91183 0.80884 0.33138 0.0
H148 H 0.95974 0.64856 0.35905 0.0
H149 H 0.97985 0.59134 0.34107 0.0
O150 O 0.96436 0.73241 0.29252 0.0
C151 C 0.86874 0.70836 0.28183 0.0
C152 C 0.96645 0.62163 0.31777 0.0
C153 C 0.95784 0.65063 0.34541 0.0
N154 N 0.94179 0.68838 0.32055 0.0
C155 C 0.95254 0.65695 0.31058 0.0
C156 C 0.94407 0.6855 0.33777 0.0
C157 C 0.96913 0.61854 0.33531 0.0
C158 C 0.83906 0.84424 0.29337 0.0
N159 N 0.84274 0.81664 0.28077 0.0
C160 C 0.80179 0.8597 0.29764 0.0
C161 C 0.76816 0.84679 0.28889 0.0
C162 C 0.77218 0.81877 0.276 0.0
C163 C 0.80991 0.80391 0.2721 0.0
C164 C 0.86941 0.84705 0.22889 0.0
C165 C 0.89502 0.77368 0.24056 0.0
C166 C 0.87468 0.83999 0.24615 0.0
N167 N 0.88712 0.80358 0.25178 0.0
C168 C 0.89009 0.77966 0.2232 0.0
C169 C 0.87716 0.81661 0.21737 0.0
C170 C 0.97129 0.74699 0.27792 0.0
C171 C 0.96824 0.82572 0.34174 0.0
C172 C 0.99733 0.75974 0.32477 0.0
C173 C 0.02338 0.7834 0.33419 0.0
C174 C 0.00867 0.81662 0.3427 0.0
N175 N 0.95772 0.76886 0.32391 0.0
C176 C 0.94306 0.80134 0.33224 0.0
Co177 Co 0.79534 0.1033 0.72342 0.0
Co178 Co 0.73618 0.07679 0.68942 0.0
O179 O 0.78598 0.09578 0.69927 0.0
C180 C 0.85783 0.04747 0.71245 0.0
O181 O 0.82978 0.02805 0.70436 0.0
C182 C 0.75054 0.15463 0.6737 0.0
O183 O 0.76001 0.16738 0.68886 0.0
O184 O 0.70429 0.11391 0.70354 0.0
O185 O 0.74166 0.12807 0.72635 0.0
H186 H 0.59476 0.02807 0.69062 0.0
H187 H 0.8542 0.13314 0.6985 0.0
O188 O 0.84925 0.07858 0.72091 0.0
H189 H 0.81007 0.25165 0.73019 0.0
H190 H 0.8789 0.1381 0.77416 0.0
H191 H 0.74722 0.09245 0.7545 0.0
H192 H 0.78388 0.18512 0.73729 0.0
H193 H 0.86549 0.12929 0.74371 0.0
O194 O 0.74003 0.11858 0.67146 0.0
H195 H 0.65793 0.05142 0.70305 0.0
H196 H 0.7085 0.0631 0.65408 0.0
H197 H 0.75922 0.1012 0.78506 0.0
H198 H 0.88143 0.19905 0.69107 0.0
H199 H 0.82547 0.12417 0.79506 0.0
H200 H 0.8592 0.25891 0.70691 0.0
O201 O 0.77255 0.04997 0.72874 0.0
H202 H 0.8489 0.03887 0.65087 0.0
H203 H 0.7311 0.99 0.68178 0.0
H204 H 0.77151 0.94284 0.66513 0.0
H205 H 0.8309 0.96722 0.64953 0.0
H206 H 0.8078 0.08495 0.66777 0.0
H207 H 0.64575 0.04019 0.64109 0.0
H208 H 0.58839 0.02234 0.65941 0.0
O209 O 0.73119 0.03517 0.70726 0.0
C210 C 0.70944 0.13058 0.71786 0.0
C211 C 0.61959 0.03559 0.6825 0.0
C212 C 0.6482 0.04245 0.6547 0.0
N213 N 0.68697 0.05819 0.67931 0.0
C214 C 0.65548 0.04869 0.68947 0.0
C215 C 0.68363 0.05546 0.66213 0.0
C216 C 0.61603 0.03243 0.66499 0.0
C217 C 0.84471 0.15899 0.70558 0.0
N218 N 0.81753 0.15528 0.71834 0.0
C219 C 0.86011 0.19625 0.70126 0.0
C220 C 0.84757 0.22984 0.71014 0.0
C221 C 0.81997 0.22579 0.72318 0.0
C222 C 0.80516 0.18806 0.72712 0.0
C223 C 0.84989 0.12815 0.76996 0.0
C224 C 0.77604 0.10271 0.75876 0.0
C225 C 0.84215 0.12303 0.75274 0.0
N226 N 0.80552 0.11068 0.74734 0.0
C227 C 0.7827 0.10749 0.77608 0.0
C228 C 0.81989 0.12034 0.78168 0.0
C229 C 0.74687 0.02757 0.7216 0.0
C230 C 0.82302 0.02791 0.65757 0.0
C231 C 0.7569 0.00083 0.67502 0.0
C232 C 0.77963 0.974 0.6656 0.0
C233 C 0.81294 0.9877 0.65684 0.0
N234 N 0.76697 0.04023 0.67566 0.0
C235 C 0.79954 0.0539 0.66709 0.0
Co236 Co 0.10483 0.29481 0.97447 0.0
Co237 Co 0.07773 0.23677 0.9402 0.0
O238 O 0.09699 0.28619 0.95028 0.0
C239 C 0.04873 0.3574 0.96396 0.0
O240 O 0.02931 0.32947 0.95579 0.0
C241 C 0.1555 0.25127 0.92441 0.0
O242 O 0.16842 0.2605 0.93957 0.0
O243 O 0.11487 0.20435 0.95409 0.0
O244 O 0.12972 0.24109 0.97701 0.0
H245 H 0.02841 0.09555 0.94074 0.0
H246 H 0.13421 0.3545 0.94982 0.0
O247 O 0.07996 0.34872 0.97233 0.0
H248 H 0.25326 0.3096 0.98094 0.0
H249 H 0.14025 0.3768 0.02559 0.0
H250 H 0.09461 0.24567 0.0053 0.0
H251 H 0.18688 0.28304 0.98805 0.0
H252 H 0.13095 0.36436 0.99509 0.0
O253 O 0.11939 0.24094 0.92219 0.0
H254 H 0.05216 0.15824 0.95347 0.0
H255 H 0.0636 0.21018 0.90474 0.0
H256 H 0.10386 0.25669 0.0359 0.0
H257 H 0.19997 0.3821 0.94237 0.0
H258 H 0.12683 0.32266 0.04622 0.0
H259 H 0.2601 0.35949 0.95793 0.0
O260 O 0.05162 0.27176 0.97983 0.0
H261 H 0.0399 0.35085 0.90238 0.0
H262 H 0.99084 0.23226 0.93268 0.0
H263 H 0.94367 0.27344 0.91637 0.0
H264 H 0.96814 0.33323 0.90109 0.0
H265 H 0.08599 0.30899 0.91893 0.0
H266 H 0.04029 0.14793 0.89146 0.0
H267 H 0.02235 0.09012 0.90951 0.0
O268 O 0.03625 0.23142 0.95807 0.0
C269 C 0.13192 0.20909 0.96836 0.0
C270 C 0.03597 0.12058 0.93274 0.0
C271 C 0.04269 0.14996 0.90508 0.0
N272 N 0.05884 0.18794 0.92987 0.0
C273 C 0.0493 0.1562 0.93988 0.0
C274 C 0.05592 0.18511 0.91267 0.0
C275 C 0.03262 0.11754 0.91522 0.0
C276 C 0.16018 0.34484 0.95677 0.0
N277 N 0.1567 0.31724 0.96938 0.0
C278 C 0.19736 0.36044 0.95245 0.0
C279 C 0.23109 0.3477 0.96116 0.0
C280 C 0.22728 0.31967 0.97406 0.0
C281 C 0.18963 0.30465 0.97801 0.0
C282 C 0.1303 0.3479 0.02125 0.0
C283 C 0.10487 0.27437 0.0097 0.0
C284 C 0.12491 0.34072 0.004 0.0
N285 N 0.11256 0.30423 0.99843 0.0
C286 C 0.10993 0.28047 0.02703 0.0
C287 C 0.12278 0.31751 0.03281 0.0
C288 C 0.02897 0.24649 0.97256 0.0
C289 C 0.0289 0.3248 0.90894 0.0
C290 C 0.00171 0.25822 0.92605 0.0
C291 C 0.97487 0.2814 0.91682 0.0
C292 C 0.98863 0.31493 0.90824 0.0
N293 N 0.04117 0.26811 0.92667 0.0
C294 C 0.05489 0.30089 0.91826 0.0
Co295 Co 0.29481 0.89461 0.02643 0.0
Co296 Co 0.23637 0.92265 0.06043 0.0
O297 O 0.28594 0.90318 0.05054 0.0
C298 C 0.35731 0.95104 0.03674 0.0
O299 O 0.32931 0.97071 0.04476 0.0
C300 C 0.25093 0.84541 0.07662 0.0
O301 O 0.26018 0.83213 0.06152 0.0
O302 O 0.20414 0.88506 0.04669 0.0
O303 O 0.24112 0.86964 0.0239 0.0
H304 H 0.09507 0.97171 0.05939 0.0
H305 H 0.35427 0.86601 0.05135 0.0
O306 O 0.34871 0.91956 0.02853 0.0
H307 H 0.30967 0.74601 0.02082 0.0
H308 H 0.37736 0.85764 0.97567 0.0
H309 H 0.246 0.90392 0.99544 0.0
H310 H 0.2832 0.81216 0.01327 0.0
H311 H 0.36459 0.86787 0.00609 0.0
O312 O 0.24048 0.88154 0.07867 0.0
H313 H 0.15792 0.94768 0.0469 0.0
H314 H 0.20942 0.93777 0.09576 0.0
H315 H 0.25735 0.89373 0.96492 0.0
H316 H 0.38178 0.80049 0.05922 0.0
H317 H 0.32344 0.87044 0.95486 0.0
H318 H 0.35932 0.73989 0.04396 0.0
O319 O 0.2718 0.94766 0.02075 0.0
H320 H 0.35001 0.96182 0.09826 0.0
H321 H 0.23163 0.00973 0.06748 0.0
H322 H 0.27254 0.05746 0.08361 0.0
H323 H 0.33222 0.03357 0.09914 0.0
H324 H 0.30842 0.91516 0.08188 0.0
H325 H 0.147 0.96138 0.10881 0.0
H326 H 0.08932 0.97869 0.09057 0.0
O327 O 0.23114 0.96356 0.04233 0.0
C328 C 0.20903 0.86765 0.03251 0.0
C329 C 0.12004 0.96443 0.06747 0.0
C330 C 0.14917 0.95857 0.09521 0.0
N331 N 0.18741 0.94175 0.07058 0.0
C332 C 0.15575 0.95095 0.06046 0.0
C333 C 0.18441 0.94517 0.08775 0.0
C334 C 0.11682 0.96829 0.08496 0.0
C335 C 0.34468 0.83983 0.04452 0.0
N336 N 0.31721 0.84292 0.03184 0.0
C337 C 0.36023 0.80279 0.04909 0.0
C338 C 0.34757 0.76879 0.04054 0.0
C339 C 0.31968 0.7722 0.02757 0.0
C340 C 0.30471 0.80972 0.02337 0.0
C341 C 0.34842 0.86772 0.9799 0.0
C342 C 0.27475 0.89352 0.99116 0.0
C343 C 0.34105 0.87365 0.9971 0.0
N344 N 0.3045 0.88618 0.00252 0.0
C345 C 0.28104 0.88793 0.97386 0.0
C346 C 0.31814 0.8749 0.96823 0.0
C347 C 0.24639 0.97045 0.02784 0.0
C348 C 0.324 0.97257 0.09159 0.0
C349 C 0.25755 0.99911 0.07421 0.0
C350 C 0.28057 0.02627 0.08334 0.0
C351 C 0.31404 0.01283 0.09206 0.0
N352 N 0.26752 0.95967 0.07382 0.0
C353 C 0.30024 0.94626 0.08236 0.0
Co354 Co 0.89486 0.70377 0.97462 0.0
Co355 Co 0.92267 0.76206 0.94054 0.0
O356 O 0.90324 0.71256 0.95048 0.0
C357 C 0.95127 0.64135 0.96424 0.0
O358 O 0.97083 0.66939 0.9562 0.0
C359 C 0.84532 0.74745 0.9244 0.0
O360 O 0.83207 0.73823 0.93951 0.0
O361 O 0.88516 0.79435 0.95431 0.0
O362 O 0.86984 0.75745 0.97714 0.0
H363 H 0.97183 0.90332 0.94144 0.0
H364 H 0.86612 0.64422 0.94976 0.0
O365 O 0.91985 0.6499 0.9725 0.0
H366 H 0.74632 0.68875 0.98045 0.0
H367 H 0.85841 0.62134 0.02548 0.0
H368 H 0.9043 0.75269 0.00557 0.0
H369 H 0.8125 0.71532 0.98788 0.0
H370 H 0.86838 0.63402 0.99504 0.0
O371 O 0.88144 0.7579 0.92235 0.0
H372 H 0.94785 0.84054 0.954 0.0
H373 H 0.93756 0.78888 0.90517 0.0
H374 H 0.89438 0.74143 0.03611 0.0
H375 H 0.80057 0.61661 0.942 0.0
H376 H 0.87127 0.67534 0.04623 0.0
H377 H 0.74006 0.63903 0.95734 0.0
O378 O 0.94792 0.72685 0.98023 0.0
H379 H 0.96158 0.64823 0.90277 0.0
H380 H 0.00972 0.76675 0.93339 0.0
H381 H 0.05734 0.72574 0.91725 0.0
H382 H 0.03333 0.66598 0.9018 0.0
H383 H 0.91503 0.68994 0.91916 0.0
H384 H 0.9611 0.85124 0.89206 0.0
H385 H 0.97858 0.90896 0.91024 0.0
O386 O 0.96371 0.76737 0.9586 0.0
C387 C 0.86782 0.7895 0.96851 0.0
C388 C 0.96447 0.87834 0.93338 0.0
C389 C 0.95839 0.84911 0.90567 0.0
N390 N 0.94172 0.81097 0.93034 0.0
C391 C 0.95101 0.84267 0.94042 0.0
C392 C 0.94502 0.81391 0.91316 0.0
C393 C 0.9682 0.88149 0.91588 0.0
C394 C 0.83998 0.6538 0.95662 0.0
N395 N 0.84314 0.6813 0.96928 0.0
C396 C 0.80293 0.63819 0.95212 0.0
C397 C 0.76898 0.65083 0.96071 0.0
C398 C 0.77246 0.67876 0.97366 0.0
C399 C 0.81 0.69379 0.97779 0.0
C400 C 0.86841 0.65029 0.02122 0.0
C401 C 0.89399 0.72395 0.00988 0.0
C402 C 0.87419 0.65761 0.004 0.0
N403 N 0.88661 0.69416 0.99854 0.0
C404 C 0.88854 0.7177 0.02718 0.0
C405 C 0.87562 0.6806 0.03286 0.0
C406 C 0.97068 0.75222 0.97309 0.0
C407 C 0.97238 0.67427 0.9094 0.0
C408 C 0.99905 0.74081 0.92669 0.0
C409 C 0.02614 0.71773 0.91756 0.0
C410 C 0.01265 0.68422 0.90889 0.0
N411 N 0.9596 0.73086 0.92713 0.0
C412 C 0.94613 0.6981 0.91864 0.0
Co413 Co 0.70388 0.10437 0.02545 0.0
Co414 Co 0.76203 0.07734 0.05969 0.0
O415 O 0.71261 0.09665 0.04962 0.0
C416 C 0.64132 0.04842 0.03611 0.0
O417 O 0.66932 0.02906 0.04426 0.0
C418 C 0.74767 0.15524 0.07538 0.0
O419 O 0.73849 0.16806 0.0602 0.0
O420 O 0.79447 0.11428 0.04572 0.0
O421 O 0.75763 0.1292 0.02283 0.0
H422 H 0.90311 0.0276 0.05911 0.0
H423 H 0.64434 0.13393 0.05013 0.0
O424 O 0.64994 0.07955 0.02767 0.0
H425 H 0.68918 0.25276 0.01886 0.0
H426 H 0.62161 0.13954 0.97437 0.0
H427 H 0.75285 0.09395 0.99457 0.0
H428 H 0.71563 0.18632 0.01177 0.0
H429 H 0.63422 0.13042 0.00487 0.0
O430 O 0.758 0.11914 0.07764 0.0
H431 H 0.84043 0.05142 0.0464 0.0
H432 H 0.78874 0.06346 0.09514 0.0
H433 H 0.74166 0.10302 0.96397 0.0
H434 H 0.61685 0.19975 0.05755 0.0
H435 H 0.67563 0.12596 0.9537 0.0
H436 H 0.63943 0.25977 0.04191 0.0
O437 O 0.72687 0.05112 0.02011 0.0
H438 H 0.648 0.04008 0.09765 0.0
H439 H 0.76637 0.99051 0.06733 0.0
H440 H 0.72515 0.94357 0.08373 0.0
H441 H 0.66547 0.9683 0.09903 0.0
H442 H 0.6899 0.08594 0.081 0.0
H443 H 0.85099 0.04009 0.10841 0.0
H444 H 0.90868 0.02182 0.09034 0.0
O445 O 0.7672 0.03573 0.04186 0.0
C446 C 0.7897 0.13131 0.03145 0.0
C447 C 0.87814 0.03531 0.06712 0.0
C448 C 0.8489 0.04238 0.09479 0.0
N449 N 0.81085 0.05841 0.07001 0.0
C450 C 0.84253 0.04868 0.05999 0.0
C451 C 0.81376 0.05565 0.08721 0.0
C452 C 0.88125 0.03212 0.08464 0.0
C453 C 0.65399 0.15985 0.04315 0.0
N454 N 0.68151 0.15628 0.03051 0.0
C455 C 0.63844 0.19706 0.04745 0.0
C456 C 0.65117 0.23074 0.03869 0.0
C457 C 0.67912 0.22683 0.02577 0.0
C458 C 0.69408 0.18915 0.02184 0.0
C459 C 0.65053 0.1296 0.9787 0.0
C460 C 0.72413 0.1042 0.9902 0.0
C461 C 0.65781 0.12431 0.99594 0.0
N462 N 0.69433 0.11197 0.00148 0.0
C463 C 0.71793 0.10916 0.97286 0.0
C464 C 0.68086 0.12199 0.96711 0.0
C465 C 0.7521 0.02844 0.02739 0.0
C466 C 0.674 0.02897 0.09108 0.0
C467 C 0.74045 0.0015 0.07396 0.0
C468 C 0.71726 0.97479 0.08325 0.0
C469 C 0.68379 0.98869 0.09183 0.0
N470 N 0.73066 0.04096 0.0733 0.0
C471 C 0.69794 0.05483 0.08171 0.0
Co472 Co 0.60489 0.70332 0.7757 0.0
Co473 Co 0.57899 0.76225 0.80985 0.0
O474 O 0.59779 0.71251 0.79988 0.0
C475 C 0.54923 0.64084 0.78678 0.0
O476 O 0.52996 0.66889 0.79494 0.0
C477 C 0.657 0.74766 0.82544 0.0
O478 O 0.66965 0.73815 0.81027 0.0
O479 O 0.61602 0.79414 0.7957 0.0
O480 O 0.62965 0.757 0.77276 0.0
H481 H 0.53057 0.90377 0.80895 0.0
H482 H 0.63513 0.64425 0.80043 0.0
O483 O 0.58018 0.64942 0.77821 0.0
H484 H 0.75311 0.68849 0.76843 0.0
H485 H 0.63873 0.62011 0.72474 0.0
H486 H 0.59358 0.75168 0.74471 0.0
H487 H 0.68648 0.71484 0.76159 0.0
H488 H 0.63046 0.6333 0.75523 0.0
O489 O 0.62097 0.7582 0.82772 0.0
H490 H 0.55364 0.84065 0.79638 0.0
H491 H 0.56573 0.78966 0.84525 0.0
H492 H 0.60179 0.7399 0.71411 0.0
H493 H 0.70114 0.61687 0.80761 0.0
H494 H 0.62451 0.6737 0.70395 0.0
H495 H 0.76074 0.63914 0.7916 0.0
O496 O 0.55148 0.72619 0.77055 0.0
H497 H 0.54132 0.64925 0.84828 0.0
H498 H 0.49229 0.76742 0.81768 0.0
H499 H 0.44524 0.72693 0.83435 0.0
H500 H 0.46971 0.66735 0.84979 0.0
H501 H 0.58729 0.69043 0.83137 0.0
H502 H 0.54311 0.85235 0.85838 0.0
H503 H 0.52519 0.9099 0.84018 0.0
O504 O 0.53716 0.76747 0.79211 0.0
C505 C 0.63241 0.78911 0.78132 0.0
C506 C 0.53812 0.87885 0.81702 0.0
C507 C 0.54522 0.85001 0.84476 0.0
N508 N 0.5606 0.8114 0.82006 0.0
C509 C 0.55106 0.843 0.80997 0.0
C510 C 0.55805 0.81461 0.83726 0.0
C511 C 0.53516 0.88229 0.83454 0.0
C512 C 0.66086 0.65376 0.79329 0.0
N513 N 0.65694 0.68106 0.78058 0.0
C514 C 0.69819 0.63828 0.79746 0.0
C515 C 0.73162 0.65085 0.78849 0.0
C516 C 0.72737 0.67856 0.7755 0.0
C517 C 0.68958 0.69347 0.77171 0.0
C518 C 0.62889 0.6491 0.72901 0.0
C519 C 0.60373 0.72288 0.74038 0.0
C520 C 0.62407 0.65671 0.74625 0.0
N521 N 0.61185 0.69331 0.75173 0.0
C522 C 0.60821 0.71635 0.72304 0.0
C523 C 0.62092 0.67919 0.71735 0.0
C524 C 0.52927 0.7519 0.77778 0.0
C525 C 0.53033 0.67521 0.84165 0.0
C526 C 0.50316 0.74155 0.82437 0.0
C527 C 0.47639 0.71876 0.8338 0.0
C528 C 0.49014 0.68535 0.84247 0.0
N529 N 0.54253 0.73141 0.82363 0.0
C530 C 0.55625 0.69874 0.83212 0.0
Co531 Co 0.70439 0.39396 0.22436 0.0
Co532 Co 0.76229 0.42151 0.19012 0.0
O533 O 0.71288 0.40224 0.2002 0.0
C534 C 0.64214 0.45067 0.21411 0.0
O535 O 0.67021 0.47008 0.20603 0.0
C536 C 0.74737 0.34405 0.17414 0.0
O537 O 0.73818 0.33098 0.18928 0.0
O538 O 0.79469 0.38408 0.20387 0.0
O539 O 0.75799 0.36871 0.22675 0.0
H540 H 0.90362 0.47052 0.19065 0.0
H541 H 0.64431 0.36547 0.19969 0.0
O542 O 0.65062 0.41922 0.22236 0.0
H543 H 0.68876 0.24552 0.23028 0.0
H544 H 0.62247 0.35805 0.27544 0.0
H545 H 0.7538 0.40321 0.25518 0.0
H546 H 0.71579 0.31157 0.23761 0.0
H547 H 0.63479 0.36788 0.24496 0.0
O548 O 0.75787 0.38013 0.17201 0.0
H549 H 0.84094 0.44677 0.20338 0.0
H550 H 0.78873 0.43602 0.15468 0.0
H551 H 0.74289 0.39342 0.28576 0.0
H552 H 0.61623 0.30005 0.19203 0.0
H553 H 0.67682 0.37069 0.29606 0.0
H554 H 0.63861 0.23947 0.20733 0.0
O555 O 0.72784 0.44689 0.2299 0.0
H556 H 0.64805 0.46026 0.15254 0.0
H557 H 0.76702 0.50848 0.18283 0.0
H558 H 0.72588 0.55602 0.1667 0.0
H559 H 0.66589 0.53197 0.15143 0.0
H560 H 0.68988 0.41379 0.16891 0.0
H561 H 0.85098 0.45934 0.14139 0.0
H562 H 0.90893 0.47693 0.15943 0.0
O563 O 0.76786 0.46268 0.20811 0.0
C564 C 0.78997 0.36669 0.21807 0.0
C565 C 0.87854 0.46311 0.18266 0.0
C566 C 0.849 0.45678 0.15501 0.0
N567 N 0.81111 0.44041 0.17979 0.0
C568 C 0.84292 0.44978 0.1898 0.0
C569 C 0.81386 0.44353 0.1626 0.0
C570 C 0.8815 0.46665 0.16514 0.0
C571 C 0.65387 0.3393 0.20652 0.0
N572 N 0.6816 0.34235 0.2191 0.0
C573 C 0.638 0.30232 0.20208 0.0
C574 C 0.65061 0.26833 0.21065 0.0
C575 C 0.67878 0.2717 0.22352 0.0
C576 C 0.69406 0.30916 0.22758 0.0
C577 C 0.65141 0.36789 0.2711 0.0
C578 C 0.72505 0.39306 0.25957 0.0
C579 C 0.65853 0.37359 0.25387 0.0
N580 N 0.69507 0.3858 0.24831 0.0
C581 C 0.71902 0.38769 0.27689 0.0
C582 C 0.68193 0.37497 0.28266 0.0
C583 C 0.75307 0.46964 0.22267 0.0
C584 C 0.67419 0.47108 0.1591 0.0
C585 C 0.74098 0.49779 0.1762 0.0
C586 C 0.71783 0.52484 0.16708 0.0
C587 C 0.68418 0.51132 0.1585 0.0
N588 N 0.73097 0.45836 0.17672 0.0
C589 C 0.69808 0.44487 0.16832 0.0
Co590 Co 0.39582 0.2945 0.77597 0.0
Co591 Co 0.42248 0.23548 0.80999 0.0
O592 O 0.40349 0.28524 0.80011 0.0
C593 C 0.45185 0.35686 0.78685 0.0
O594 O 0.47127 0.32876 0.79491 0.0
C595 C 0.34472 0.25003 0.82576 0.0
O596 O 0.33192 0.25945 0.8106 0.0
O597 O 0.38526 0.20358 0.79593 0.0
O598 O 0.37089 0.24087 0.77311 0.0
H599 H 0.47114 0.09405 0.80887 0.0
H600 H 0.3663 0.35353 0.80087 0.0
O601 O 0.42069 0.34834 0.77841 0.0
H602 H 0.24746 0.3096 0.76936 0.0
H603 H 0.3609 0.37789 0.7252 0.0
H604 H 0.4063 0.24619 0.74491 0.0
H605 H 0.31387 0.2832 0.7622 0.0
H606 H 0.36989 0.36461 0.75565 0.0
O607 O 0.38077 0.23947 0.82798 0.0
H608 H 0.44776 0.15716 0.7964 0.0
H609 H 0.4363 0.20796 0.84534 0.0
H610 H 0.39737 0.25806 0.71435 0.0
H611 H 0.3005 0.38097 0.80837 0.0
H612 H 0.37452 0.32432 0.70433 0.0
H613 H 0.24048 0.35885 0.79262 0.0
O614 O 0.44906 0.27153 0.77058 0.0
H615 H 0.46071 0.34838 0.84838 0.0
H616 H 0.50932 0.23035 0.81755 0.0
H617 H 0.55661 0.27082 0.83411 0.0
H618 H 0.53236 0.33032 0.84966 0.0
H619 H 0.41449 0.30722 0.83158 0.0
H620 H 0.45923 0.14527 0.85836 0.0
H621 H 0.47699 0.08781 0.84007 0.0
O622 O 0.46401 0.23036 0.79211 0.0
C623 C 0.36844 0.20869 0.78164 0.0
C624 C 0.46365 0.11892 0.81697 0.0
C625 C 0.45691 0.14765 0.84475 0.0
N626 N 0.44109 0.18631 0.82012 0.0
C627 C 0.45054 0.15477 0.80998 0.0
C628 C 0.44389 0.18305 0.83731 0.0
C629 C 0.46688 0.11543 0.83448 0.0
C630 C 0.34038 0.34409 0.79384 0.0
N631 N 0.34393 0.31684 0.78109 0.0
C632 C 0.30318 0.3596 0.79819 0.0
C633 C 0.2695 0.34713 0.78936 0.0
C634 C 0.27339 0.31947 0.77633 0.0
C635 C 0.31106 0.30453 0.77235 0.0
C636 C 0.37079 0.34888 0.72941 0.0
C637 C 0.3961 0.27502 0.74064 0.0
C638 C 0.37602 0.34121 0.74663 0.0
N639 N 0.38831 0.30457 0.75204 0.0
C640 C 0.39121 0.2816 0.72332 0.0
C641 C 0.37843 0.3188 0.71771 0.0
C642 C 0.4715 0.24589 0.77773 0.0
C643 C 0.47161 0.32245 0.8417 0.0
C644 C 0.49854 0.25619 0.82429 0.0
C645 C 0.52545 0.27896 0.83366 0.0
C646 C 0.51182 0.31233 0.8424 0.0
N647 N 0.45915 0.2663 0.82368 0.0
C648 C 0.44555 0.29893 0.83223 0.0
Co649 Co 0.29568 0.60445 0.22476 0.0
Co650 Co 0.23782 0.57748 0.1904 0.0
O651 O 0.28703 0.59709 0.20056 0.0
C652 C 0.35837 0.5487 0.214 0.0
O653 O 0.33051 0.52955 0.20567 0.0
C654 C 0.2511 0.65613 0.1752 0.0
O655 O 0.26041 0.66853 0.19043 0.0
O656 O 0.20487 0.61341 0.20464 0.0
O657 O 0.24195 0.62931 0.22737 0.0
H658 H 0.09758 0.52539 0.19071 0.0
H659 H 0.35513 0.63436 0.20012 0.0
O660 O 0.34961 0.57965 0.22254 0.0
H661 H 0.31062 0.75268 0.23183 0.0
H662 H 0.37771 0.63873 0.27602 0.0
H663 H 0.24653 0.59362 0.25556 0.0
H664 H 0.28419 0.68614 0.23874 0.0
H665 H 0.36525 0.63014 0.24548 0.0
O666 O 0.24115 0.62 0.17274 0.0
H667 H 0.15992 0.54972 0.20355 0.0
H668 H 0.21115 0.56466 0.15487 0.0
H669 H 0.25758 0.60216 0.28619 0.0
H670 H 0.38263 0.70028 0.19288 0.0
H671 H 0.32357 0.62486 0.29659 0.0
H672 H 0.36021 0.76005 0.20873 0.0
O673 O 0.27267 0.55109 0.22995 0.0
H674 H 0.35219 0.54334 0.1521 0.0
H675 H 0.23473 0.49089 0.18216 0.0
H676 H 0.27653 0.4452 0.16539 0.0
H677 H 0.33576 0.47139 0.15022 0.0
H678 H 0.30973 0.58794 0.1691 0.0
H679 H 0.14923 0.54083 0.14147 0.0
H680 H 0.09195 0.52083 0.15944 0.0
O681 O 0.23335 0.53518 0.20794 0.0
C682 C 0.20972 0.63078 0.21884 0.0
C683 C 0.12237 0.53387 0.18274 0.0
C684 C 0.15135 0.54259 0.15511 0.0
N685 N 0.18924 0.55822 0.17998 0.0
C686 C 0.15779 0.54754 0.18994 0.0
C687 C 0.1863 0.55612 0.16276 0.0
C688 C 0.11923 0.53136 0.1652 0.0
C689 C 0.34555 0.66017 0.20719 0.0
N690 N 0.3181 0.65641 0.21985 0.0
C691 C 0.3611 0.69744 0.20299 0.0
C692 C 0.34846 0.73098 0.21187 0.0
C693 C 0.3206 0.72687 0.22482 0.0
C694 C 0.30564 0.68914 0.22865 0.0
C695 C 0.3488 0.6289 0.27164 0.0
C696 C 0.27524 0.60377 0.25999 0.0
C697 C 0.3416 0.6239 0.25437 0.0
N698 N 0.30511 0.6117 0.24875 0.0
C699 C 0.28136 0.60843 0.27735 0.0
C700 C 0.31841 0.62113 0.28318 0.0
C701 C 0.24809 0.52803 0.22249 0.0
C702 C 0.32639 0.5316 0.1586 0.0
C703 C 0.26044 0.50251 0.17559 0.0
C704 C 0.28397 0.4765 0.1661 0.0
C705 C 0.31719 0.49122 0.15758 0.0
N706 N 0.26966 0.54208 0.17652 0.0
C707 C 0.30214 0.55675 0.16819 0.0
Co708 Co 0.60411 0.79488 0.47387 0.0
Co709 Co 0.57634 0.73646 0.43982 0.0
O710 O 0.59588 0.78595 0.44974 0.0
C711 C 0.54796 0.85742 0.46334 0.0
O712 O 0.52842 0.82943 0.45527 0.0
C713 C 0.654 0.75051 0.4239 0.0
O714 O 0.66702 0.75984 0.43903 0.0
O715 O 0.61347 0.70408 0.45373 0.0
O716 O 0.62901 0.74117 0.47648 0.0
H717 H 0.52633 0.5955 0.44081 0.0
H718 H 0.63314 0.85419 0.44898 0.0
O719 O 0.57925 0.84879 0.47168 0.0
H720 H 0.75265 0.80963 0.47987 0.0
H721 H 0.64039 0.87753 0.52469 0.0
H722 H 0.59433 0.74617 0.50486 0.0
H723 H 0.68636 0.78327 0.48726 0.0
H724 H 0.63062 0.86469 0.49425 0.0
O725 O 0.61785 0.74022 0.42174 0.0
H726 H 0.5505 0.65826 0.45333 0.0
H727 H 0.56183 0.70941 0.40446 0.0
H728 H 0.60405 0.7576 0.5354 0.0
H729 H 0.69881 0.88159 0.44126 0.0
H730 H 0.62723 0.82369 0.54549 0.0
H731 H 0.75917 0.85915 0.4567 0.0
O732 O 0.55096 0.77194 0.47944 0.0
H733 H 0.53862 0.85013 0.40175 0.0
H734 H 0.48937 0.7322 0.43245 0.0
H735 H 0.44221 0.77331 0.4161 0.0
H736 H 0.46679 0.83277 0.40062 0.0
H737 H 0.5847 0.80834 0.41834 0.0
H738 H 0.5381 0.64708 0.39137 0.0
H739 H 0.52 0.58963 0.4096 0.0
O740 O 0.53504 0.73156 0.45778 0.0
C741 C 0.63085 0.709 0.46792 0.0
C742 C 0.53396 0.62037 0.43273 0.0
C743 C 0.54062 0.64931 0.40499 0.0
N744 N 0.55716 0.68757 0.42965 0.0
C745 C 0.54753 0.65602 0.43975 0.0
C746 C 0.55409 0.68449 0.41246 0.0
C747 C 0.53047 0.61709 0.41522 0.0
C748 C 0.65922 0.8446 0.45588 0.0
N749 N 0.65591 0.81721 0.46858 0.0
C750 C 0.69634 0.8601 0.45141 0.0
C751 C 0.7302 0.84744 0.46006 0.0
C752 C 0.72657 0.81963 0.47304 0.0
C753 C 0.68897 0.80472 0.47715 0.0
C754 C 0.63035 0.84859 0.52045 0.0
C755 C 0.60468 0.77492 0.50915 0.0
C756 C 0.62469 0.84117 0.50324 0.0
N757 N 0.61222 0.80462 0.49779 0.0
C758 C 0.61001 0.78126 0.52646 0.0
C759 C 0.62298 0.81836 0.53211 0.0
C760 C 0.52808 0.74673 0.47227 0.0
C761 C 0.52758 0.82422 0.4084 0.0
C762 C 0.50028 0.75802 0.42573 0.0
C763 C 0.47346 0.78115 0.41648 0.0
C764 C 0.48727 0.8145 0.40779 0.0
N765 N 0.53978 0.76775 0.42626 0.0
C766 C 0.55356 0.80035 0.41775 0.0
Co767 Co 0.79526 0.39453 0.52507 0.0
Co768 Co 0.7371 0.42167 0.5593 0.0
O769 O 0.78653 0.40234 0.54925 0.0
C770 C 0.85782 0.45052 0.53569 0.0
O771 O 0.82983 0.46994 0.54382 0.0
C772 C 0.75143 0.34387 0.57507 0.0
O773 O 0.76068 0.33096 0.55991 0.0
O774 O 0.70468 0.38463 0.54536 0.0
O775 O 0.74152 0.36969 0.52247 0.0
H776 H 0.59598 0.47131 0.55865 0.0
H777 H 0.8548 0.36507 0.54978 0.0
O778 O 0.84918 0.41935 0.52728 0.0
H779 H 0.80998 0.24612 0.51858 0.0
H780 H 0.87751 0.35916 0.47402 0.0
H781 H 0.74627 0.40482 0.49419 0.0
H782 H 0.78351 0.31253 0.51145 0.0
H783 H 0.86491 0.3684 0.50451 0.0
O784 O 0.74113 0.37998 0.57729 0.0
H785 H 0.65868 0.44745 0.54597 0.0
H786 H 0.71037 0.43577 0.59473 0.0
H787 H 0.75746 0.39563 0.4636 0.0
H788 H 0.88232 0.29928 0.55723 0.0
H789 H 0.82348 0.37265 0.45334 0.0
H790 H 0.85975 0.2392 0.54163 0.0
O791 O 0.77225 0.44776 0.5197 0.0
H792 H 0.85111 0.45923 0.59721 0.0
H793 H 0.7327 0.50855 0.56685 0.0
H794 H 0.7739 0.55561 0.5832 0.0
H795 H 0.8336 0.53101 0.59852 0.0
H796 H 0.80923 0.41325 0.58062 0.0
H797 H 0.6481 0.45918 0.60797 0.0
H798 H 0.5904 0.4773 0.58988 0.0
O799 O 0.7319 0.46318 0.54143 0.0
C800 C 0.70947 0.36757 0.5311 0.0
C801 C 0.62095 0.46366 0.56667 0.0
C802 C 0.65019 0.4568 0.59435 0.0
N803 N 0.68826 0.44063 0.56959 0.0
C804 C 0.65658 0.45027 0.55956 0.0
C805 C 0.68535 0.44351 0.58679 0.0
C806 C 0.61784 0.46697 0.58419 0.0
C807 C 0.84516 0.33912 0.54281 0.0
N808 N 0.81763 0.34265 0.53017 0.0
C809 C 0.86072 0.30193 0.54713 0.0
C810 C 0.84799 0.26822 0.53839 0.0
C811 C 0.82004 0.27208 0.52547 0.0
C812 C 0.80507 0.30974 0.52152 0.0
C813 C 0.84859 0.36911 0.47834 0.0
C814 C 0.77499 0.39455 0.48982 0.0
C815 C 0.84131 0.37448 0.49558 0.0
N816 N 0.8048 0.38683 0.50111 0.0
C817 C 0.78119 0.38952 0.47249 0.0
C818 C 0.81826 0.37667 0.46674 0.0
C819 C 0.74699 0.47043 0.52695 0.0
C820 C 0.8251 0.47029 0.59064 0.0
C821 C 0.75862 0.49762 0.57349 0.0
C822 C 0.78181 0.5244 0.58274 0.0
C823 C 0.81529 0.51057 0.59134 0.0
N824 N 0.76844 0.45815 0.57287 0.0
C825 C 0.80117 0.44436 0.58129 0.0
Co826 Co 0.39465 0.20401 0.47382 0.0
Co827 Co 0.4219 0.26226 0.43964 0.0
O828 O 0.40265 0.21276 0.44966 0.0
C829 C 0.45084 0.14149 0.4633 0.0
O830 O 0.47032 0.16948 0.45519 0.0
C831 C 0.3443 0.24759 0.42376 0.0
O832 O 0.3313 0.23844 0.43891 0.0
O833 O 0.3846 0.29456 0.45351 0.0
O834 O 0.36972 0.2577 0.4764 0.0
H835 H 0.47098 0.40355 0.44035 0.0
H836 H 0.36546 0.14445 0.44906 0.0
O837 O 0.41956 0.15011 0.47164 0.0
H838 H 0.24619 0.18911 0.48009 0.0
H839 H 0.35897 0.12169 0.5248 0.0
H840 H 0.40467 0.25296 0.50472 0.0
H841 H 0.31251 0.21564 0.48732 0.0
H842 H 0.36844 0.13432 0.49433 0.0
O843 O 0.38039 0.25804 0.42158 0.0
H844 H 0.44726 0.34077 0.453 0.0
H845 H 0.4362 0.28902 0.40423 0.0
H846 H 0.39524 0.24175 0.53529 0.0
H847 H 0.29977 0.11688 0.4415 0.0
H848 H 0.37224 0.17571 0.54551 0.0
H849 H 0.23952 0.13937 0.45701 0.0
O850 O 0.44782 0.22705 0.47926 0.0
H851 H 0.46024 0.14842 0.40178 0.0
H852 H 0.50883 0.26697 0.43224 0.0
H853 H 0.5562 0.22599 0.41595 0.0
H854 H 0.53196 0.16621 0.40059 0.0
H855 H 0.41394 0.19009 0.41831 0.0
H856 H 0.45948 0.35137 0.39102 0.0
H857 H 0.47721 0.40913 0.40914 0.0
O858 O 0.46322 0.2676 0.45758 0.0
C859 C 0.36752 0.28974 0.46777 0.0
C860 C 0.46351 0.37854 0.43233 0.0
C861 C 0.457 0.34927 0.40464 0.0
N862 N 0.44077 0.31116 0.42937 0.0
C863 C 0.4502 0.34288 0.43942 0.0
C864 C 0.44378 0.31407 0.41218 0.0
C865 C 0.46695 0.38167 0.41481 0.0
C866 C 0.33945 0.15406 0.45599 0.0
N867 N 0.34283 0.18157 0.46864 0.0
C868 C 0.3023 0.13847 0.45161 0.0
C869 C 0.2685 0.15115 0.46029 0.0
C870 C 0.27222 0.17909 0.47323 0.0
C871 C 0.30983 0.19409 0.47724 0.0
C872 C 0.36893 0.15061 0.52051 0.0
C873 C 0.3944 0.22423 0.50907 0.0
C874 C 0.37442 0.15791 0.50327 0.0
N875 N 0.38679 0.19443 0.49776 0.0
C876 C 0.38923 0.21802 0.52639 0.0
C877 C 0.37637 0.18094 0.53212 0.0
C878 C 0.47045 0.25243 0.47205 0.0
C879 C 0.47114 0.17446 0.40837 0.0
C880 C 0.49805 0.24102 0.42558 0.0
C881 C 0.52501 0.21795 0.41636 0.0
C882 C 0.51139 0.18443 0.40773 0.0
N883 N 0.45862 0.23105 0.42614 0.0
C884 C 0.44503 0.19827 0.41769 0.0
Co885 Co 0.20429 0.60412 0.52577 0.0
Co886 Co 0.26279 0.57634 0.5598 0.0
O887 O 0.21321 0.59574 0.5499 0.0
C888 C 0.14187 0.54771 0.53617 0.0
O889 O 0.16988 0.52814 0.54423 0.0
C890 C 0.24835 0.65377 0.57587 0.0
O891 O 0.239 0.66692 0.56076 0.0
O892 O 0.29502 0.61376 0.54597 0.0
O893 O 0.25793 0.62917 0.52321 0.0
H894 H 0.40403 0.52707 0.55877 0.0
H895 H 0.14487 0.63282 0.55068 0.0
O896 O 0.15045 0.57912 0.52791 0.0
H897 H 0.18912 0.75264 0.51996 0.0
H898 H 0.12164 0.64056 0.47497 0.0
H899 H 0.2531 0.59468 0.49479 0.0
H900 H 0.21569 0.68649 0.51249 0.0
H901 H 0.13445 0.6306 0.5054 0.0
O902 O 0.25878 0.61765 0.57796 0.0
H903 H 0.34116 0.55103 0.54627 0.0
H904 H 0.28984 0.56159 0.59515 0.0
H905 H 0.2417 0.6046 0.46425 0.0
H906 H 0.11725 0.69834 0.55847 0.0
H907 H 0.17556 0.62769 0.45417 0.0
H908 H 0.13954 0.75886 0.54312 0.0
O909 O 0.22738 0.55107 0.52014 0.0
H910 H 0.14922 0.53769 0.59776 0.0
H911 H 0.26747 0.48932 0.56701 0.0
H912 H 0.22657 0.44181 0.58325 0.0
H913 H 0.16695 0.46594 0.59877 0.0
H914 H 0.19081 0.58413 0.58126 0.0
H915 H 0.35228 0.53806 0.60821 0.0
H916 H 0.40987 0.52046 0.58997 0.0
O917 O 0.26794 0.53523 0.54177 0.0
C918 C 0.29006 0.63116 0.53179 0.0
C919 C 0.37909 0.53449 0.56686 0.0
C920 C 0.35006 0.54071 0.5946 0.0
N921 N 0.31176 0.55729 0.56996 0.0
C922 C 0.34338 0.54793 0.55984 0.0
C923 C 0.31481 0.55407 0.58714 0.0
C924 C 0.38236 0.53083 0.58436 0.0
C925 C 0.15438 0.65896 0.54382 0.0
N926 N 0.18182 0.65582 0.53112 0.0
C927 C 0.13877 0.696 0.54833 0.0
C928 C 0.15134 0.72996 0.53973 0.0
C929 C 0.17919 0.72649 0.52675 0.0
C930 C 0.19422 0.68897 0.5226 0.0
C931 C 0.1506 0.63056 0.47921 0.0
C932 C 0.22432 0.60499 0.4905 0.0
C933 C 0.158 0.62479 0.49642 0.0
N934 N 0.19458 0.61237 0.50186 0.0
C935 C 0.21801 0.61043 0.4732 0.0
C936 C 0.18088 0.62335 0.46755 0.0
C937 C 0.25273 0.52827 0.52728 0.0
C938 C 0.1752 0.52684 0.5911 0.0
C939 C 0.24158 0.50005 0.57373 0.0
C940 C 0.21857 0.47301 0.58293 0.0
C941 C 0.18513 0.48657 0.59164 0.0
N942 N 0.23165 0.53949 0.57327 0.0
C943 C 0.19896 0.55303 0.5818 0.0
C944 C 0.14753 0.36141 0.27952 0.0
C945 C 0.15486 0.3226 0.27372 0.0
C946 C 0.16545 0.39438 0.27176 0.0
C947 C 0.19197 0.38837 0.25808 0.0
C948 C 0.20095 0.34922 0.25268 0.0
C949 C 0.18196 0.31681 0.26044 0.0
C950 C 0.15458 0.43571 0.27771 0.0
C951 C 0.22965 0.34162 0.23834 0.0
C952 C 0.20044 0.47157 0.22595 0.0
C953 C 0.23505 0.49135 0.23127 0.0
C954 C 0.18631 0.43796 0.23453 0.0
C955 C 0.20771 0.42317 0.2486 0.0
C956 C 0.24322 0.44228 0.25381 0.0
C957 C 0.25629 0.47642 0.24518 0.0
C958 C 0.14795 0.4188 0.22873 0.0
C959 C 0.2672 0.42684 0.26857 0.0
H960 H 0.12657 0.36623 0.28973 0.0
H961 H 0.18804 0.28694 0.25596 0.0
H962 H 0.18183 0.45292 0.28075 0.0
H963 H 0.13887 0.45182 0.26743 0.0
H964 H 0.13505 0.43521 0.28904 0.0
H965 H 0.23655 0.30947 0.23684 0.0
H966 H 0.21671 0.35271 0.22632 0.0
H967 H 0.25786 0.35805 0.24047 0.0
H968 H 0.18374 0.48286 0.21525 0.0
H969 H 0.28321 0.49135 0.2493 0.0
H970 H 0.12581 0.41936 0.23915 0.0
H971 H 0.15322 0.38714 0.22544 0.0
H972 H 0.1349 0.43403 0.21756 0.0
H973 H 0.24927 0.42864 0.28032 0.0
H974 H 0.29521 0.44385 0.27046 0.0
H975 H 0.27474 0.39502 0.26656 0.0
C976 C 0.47402 0.80083 0.7739 0.0
C977 C 0.49275 0.76533 0.76896 0.0
C978 C 0.44052 0.81517 0.76529 0.0
C979 C 0.42479 0.79312 0.75159 0.0
C980 C 0.44289 0.75679 0.74676 0.0
C981 C 0.47693 0.74349 0.75541 0.0
C982 C 0.42245 0.85438 0.77067 0.0
C983 C 0.42646 0.73215 0.7324 0.0
C984 C 0.31849 0.81972 0.73989 0.0
C985 C 0.32432 0.84556 0.72617 0.0
C986 C 0.35084 0.80098 0.74782 0.0
C987 C 0.38998 0.8089 0.74211 0.0
C988 C 0.39602 0.8342 0.72803 0.0
C989 C 0.3631 0.85192 0.72013 0.0
C990 C 0.3432 0.77363 0.76263 0.0
C991 C 0.43735 0.84389 0.72173 0.0
H992 H 0.48604 0.81801 0.78431 0.0
H993 H 0.49104 0.71589 0.75158 0.0
H994 H 0.42319 0.87571 0.75996 0.0
H995 H 0.39078 0.8501 0.7742 0.0
H996 H 0.43834 0.86787 0.78158 0.0
H997 H 0.44288 0.70371 0.73073 0.0
H998 H 0.39459 0.72535 0.7347 0.0
H999 H 0.42813 0.74925 0.72042 0.0
H1000 H 0.28866 0.81441 0.74459 0.0
H1001 H 0.36797 0.87191 0.70958 0.0
H1002 H 0.35515 0.78721 0.77436 0.0
H1003 H 0.35885 0.74487 0.76076 0.0
H1004 H 0.31096 0.76764 0.76448 0.0
H1005 H 0.45409 0.85996 0.73172 0.0
H1006 H 0.43686 0.86266 0.71016 0.0
H1007 H 0.45395 0.81613 0.71892 0.0
C1008 C 0.74622 0.51995 0.24596 0.0
C1009 C 0.76674 0.50575 0.23172 0.0
C1010 C 0.75972 0.55364 0.25479 0.0
C1011 C 0.79489 0.57311 0.2494 0.0
C1012 C 0.81564 0.55898 0.23503 0.0
C1013 C 0.80114 0.52573 0.2263 0.0
C1014 C 0.73648 0.56833 0.26989 0.0
C1015 C 0.85359 0.57859 0.22903 0.0
C1016 C 0.81929 0.6796 0.26151 0.0
C1017 C 0.84704 0.67401 0.27456 0.0
C1018 C 0.80066 0.64703 0.25372 0.0
C1019 C 0.81064 0.60793 0.25887 0.0
C1020 C 0.83789 0.60209 0.2723 0.0
C1021 C 0.85548 0.63522 0.28009 0.0
C1022 C 0.77121 0.65444 0.23964 0.0
C1023 C 0.84979 0.56083 0.27796 0.0
H1024 H 0.71949 0.50484 0.25019 0.0
H1025 H 0.81732 0.51498 0.21536 0.0
H1026 H 0.75525 0.56674 0.28141 0.0
H1027 H 0.72815 0.60001 0.26807 0.0
H1028 H 0.70897 0.55072 0.27208 0.0
H1029 H 0.86629 0.56369 0.2177 0.0
H1030 H 0.84787 0.61026 0.22589 0.0
H1031 H 0.87617 0.57805 0.23927 0.0
H1032 H 0.81237 0.70945 0.25724 0.0
H1033 H 0.87698 0.63058 0.29012 0.0
H1034 H 0.74327 0.63771 0.242 0.0
H1035 H 0.78366 0.64355 0.2275 0.0
H1036 H 0.7639 0.68653 0.23824 0.0
H1037 H 0.823 0.54305 0.28115 0.0
H1038 H 0.86983 0.56141 0.28913 0.0
H1039 H 0.86529 0.54525 0.26748 0.0
C1040 C 0.52323 0.25434 0.75511 0.0
C1041 C 0.50783 0.23251 0.76876 0.0
C1042 C 0.55707 0.24109 0.74631 0.0
C1043 C 0.5754 0.20484 0.75108 0.0
C1044 C 0.56009 0.1828 0.76487 0.0
C1045 C 0.52677 0.19708 0.77363 0.0
C1046 C 0.57306 0.26572 0.73186 0.0
C1047 C 0.57843 0.14368 0.7702 0.0
C1048 C 0.63669 0.14608 0.71947 0.0
C1049 C 0.67555 0.15257 0.72538 0.0
C1050 C 0.60386 0.16377 0.72745 0.0
C1051 C 0.61008 0.18917 0.74148 0.0
C1052 C 0.6493 0.19726 0.74705 0.0
C1053 C 0.68155 0.17855 0.73905 0.0
C1054 C 0.56244 0.15389 0.7213 0.0
C1055 C 0.65713 0.22474 0.7618 0.0
H1056 H 0.50894 0.28188 0.75133 0.0
H1057 H 0.51508 0.17991 0.78411 0.0
H1058 H 0.60495 0.2727 0.73403 0.0
H1059 H 0.57121 0.24854 0.71991 0.0
H1060 H 0.55647 0.29408 0.73023 0.0
H1061 H 0.56281 0.13014 0.78117 0.0
H1062 H 0.57756 0.12231 0.7595 0.0
H1063 H 0.61015 0.14809 0.77362 0.0
H1064 H 0.63169 0.12598 0.70896 0.0
H1065 H 0.71145 0.18397 0.74364 0.0
H1066 H 0.54565 0.18158 0.71856 0.0
H1067 H 0.54599 0.13774 0.73135 0.0
H1068 H 0.56279 0.13513 0.70973 0.0
H1069 H 0.64127 0.2534 0.75998 0.0
H1070 H 0.68938 0.23092 0.76351 0.0
H1071 H 0.64554 0.21115 0.77359 0.0
C1072 C 0.25487 0.0216 0.00499 0.0
C1073 C 0.23307 0.00657 0.01872 0.0
C1074 C 0.2418 0.05543 0.99614 0.0
C1075 C 0.20576 0.07412 0.00095 0.0
C1076 C 0.18369 0.0591 0.01479 0.0
C1077 C 0.19779 0.02579 0.02359 0.0
C1078 C 0.26646 0.07111 0.98163 0.0
C1079 C 0.14477 0.07783 0.02015 0.0
C1080 C 0.18033 0.18058 0.98919 0.0
C1081 C 0.15397 0.17497 0.97563 0.0
C1082 C 0.19897 0.14808 0.99704 0.0
C1083 C 0.19043 0.10901 0.99141 0.0
C1084 C 0.16472 0.10319 0.97744 0.0
C1085 C 0.14709 0.13626 0.96963 0.0
C1086 C 0.22678 0.1555 0.01171 0.0
C1087 C 0.15437 0.06194 0.97124 0.0
H1088 H 0.28229 0.00708 0.00122 0.0
H1089 H 0.18063 0.01437 0.03413 0.0
H1090 H 0.24905 0.06967 0.96973 0.0
H1091 H 0.27401 0.10285 0.98384 0.0
H1092 H 0.2945 0.05405 0.97989 0.0
H1093 H 0.13107 0.06228 0.0311 0.0
H1094 H 0.14957 0.10946 0.02363 0.0
H1095 H 0.12337 0.07732 0.00946 0.0
H1096 H 0.18606 0.21036 0.99385 0.0
H1097 H 0.1267 0.13156 0.95919 0.0
H1098 H 0.2552 0.13925 0.00981 0.0
H1099 H 0.21319 0.14408 0.02354 0.0
H1100 H 0.23343 0.18765 0.01341 0.0
H1101 H 0.18185 0.04482 0.96849 0.0
H1102 H 0.13564 0.06259 0.95966 0.0
H1103 H 0.13798 0.04563 0.98126 0.0
C1104 C 0.18072 0.8187 0.01184 0.0
C1105 C 0.17497 0.84544 0.02526 0.0
C1106 C 0.14829 0.79991 0.004 0.0
C1107 C 0.10915 0.80869 0.00949 0.0
C1108 C 0.10318 0.83478 0.02331 0.0
C1109 C 0.13618 0.85255 0.03113 0.0
C1110 C 0.15586 0.77168 0.98949 0.0
C1111 C 0.06186 0.84539 0.02935 0.0
C1112 C 0.02624 0.80067 0.97717 0.0
C1113 C 0.00684 0.76561 0.98218 0.0
C1114 C 0.05954 0.8149 0.98595 0.0
C1115 C 0.07435 0.79317 -7e-05 0.0
C1116 C 0.0555 0.75732 0.00488 0.0
C1117 C 0.0217 0.74412 0.99603 0.0
C1118 C 0.07844 0.85359 0.98043 0.0
C1119 C 0.07095 0.73302 0.01954 0.0
H1120 H 0.21056 0.81279 0.00729 0.0
H1121 H 0.13138 0.87322 0.04145 0.0
H1122 H 0.13952 0.74336 0.99149 0.0
H1123 H 0.14464 0.78497 0.97756 0.0
H1124 H 0.18802 0.76491 0.98791 0.0
H1125 H 0.06239 0.86445 0.04084 0.0
H1126 H 0.04572 0.86152 0.0192 0.0
H1127 H 0.04466 0.81802 0.0322 0.0
H1128 H 0.01497 0.81759 0.96653 0.0
H1129 H 0.00704 0.71687 -7e-05 0.0
H1130 H 0.11012 0.84862 0.97707 0.0
H1131 H 0.07783 0.87531 0.991 0.0
H1132 H 0.06308 0.867 0.96937 0.0
H1133 H 0.10272 0.7254 0.01746 0.0
H1134 H 0.05385 0.70504 0.02136 0.0
H1135 H 0.06933 0.75073 0.03136 0.0
C1136 C 0.85292 0.86237 0.96992 0.0
C1137 C 0.84562 0.82358 0.97574 0.0
C1138 C 0.83512 0.89537 0.97771 0.0
C1139 C 0.80878 0.88942 0.99145 0.0
C1140 C 0.79985 0.85029 0.99689 0.0
C1141 C 0.81869 0.81785 0.98909 0.0
C1142 C 0.84592 0.93669 0.97172 0.0
C1143 C 0.77136 0.84274 0.01131 0.0
C1144 C 0.80031 0.97252 0.02366 0.0
C1145 C 0.76544 0.99203 0.01847 0.0
C1146 C 0.81458 0.93908 0.01499 0.0
C1147 C 0.7931 0.92423 0.00095 0.0
C1148 C 0.7574 0.94315 0.99584 0.0
C1149 C 0.74416 0.97709 0.00457 0.0
C1150 C 0.85311 0.9201 0.02068 0.0
C1151 C 0.73336 0.92767 0.98111 0.0
H1152 H 0.87375 0.86715 0.95965 0.0
H1153 H 0.81264 0.788 0.9936 0.0
H1154 H 0.81863 0.95391 0.96875 0.0
H1155 H 0.86179 0.95281 0.98195 0.0
H1156 H 0.86527 0.93615 0.96033 0.0
H1157 H 0.76455 0.81058 0.01288 0.0
H1158 H 0.78443 0.85396 0.02328 0.0
H1159 H 0.74307 0.85908 0.00922 0.0
H1160 H 0.81707 0.98384 0.03434 0.0
H1161 H 0.71705 0.99182 0.00055 0.0
H1162 H 0.87509 0.9207 0.0102 0.0
H1163 H 0.84801 0.88843 0.02401 0.0
H1164 H 0.86628 0.93542 0.03181 0.0
H1165 H 0.75125 0.92935 0.96934 0.0
H1166 H 0.70537 0.94472 0.97921 0.0
H1167 H 0.72576 0.89589 0.98316 0.0
C1168 C 0.81823 0.17993 0.0107 0.0
C1169 C 0.82386 0.15326 0.02415 0.0
C1170 C 0.85073 0.19863 0.00288 0.0
C1171 C 0.88983 0.18983 0.00842 0.0
C1172 C 0.89567 0.16373 0.02225 0.0
C1173 C 0.8626 0.14606 0.03005 0.0
C1174 C 0.8433 0.22686 0.98836 0.0
C1175 C 0.93694 0.15307 0.02835 0.0
C1176 C 0.97325 0.19808 0.97635 0.0
C1177 C 0.99259 0.23308 0.98148 0.0
C1178 C 0.93978 0.18381 0.985 0.0
C1179 C 0.92473 0.20545 0.99896 0.0
C1180 C 0.9435 0.24126 0.00401 0.0
C1181 C 0.97747 0.25449 0.9953 0.0
C1182 C 0.92097 0.14515 0.97937 0.0
C1183 C 0.9278 0.26546 0.01866 0.0
H1184 H 0.78841 0.18589 0.00612 0.0
H1185 H 0.8673 0.12543 0.04039 0.0
H1186 H 0.85952 0.25523 0.99042 0.0
H1187 H 0.85475 0.21365 0.97646 0.0
H1188 H 0.81114 0.23354 0.98669 0.0
H1189 H 0.93632 0.13385 0.03978 0.0
H1190 H 0.95322 0.13711 0.01819 0.0
H1191 H 0.95408 0.18042 0.0313 0.0
H1192 H 0.98473 0.18122 0.96573 0.0
H1193 H 0.99207 0.28171 0.99929 0.0
H1194 H 0.88933 0.15012 0.97596 0.0
H1195 H 0.9215 0.12334 0.98991 0.0
H1196 H 0.93647 0.13186 0.96832 0.0
H1197 H 0.89603 0.273 0.01651 0.0
H1198 H 0.94479 0.29349 0.02054 0.0
H1199 H 0.92934 0.24771 0.03047 0.0
C1200 C 0.64825 0.86179 0.77987 0.0
C1201 C 0.65435 0.82302 0.77379 0.0
C1202 C 0.66586 0.89467 0.77191 0.0
C1203 C 0.69077 0.8886 0.75771 0.0
C1204 C 0.69848 0.84945 0.75195 0.0
C1205 C 0.67987 0.81715 0.75996 0.0
C1206 C 0.65639 0.93602 0.77826 0.0
C1207 C 0.72543 0.84176 0.73702 0.0
C1208 C 0.69797 0.97246 0.7258 0.0
C1209 C 0.73363 0.99116 0.73053 0.0
C1210 C 0.68384 0.93904 0.73453 0.0
C1211 C 0.70627 0.92337 0.74813 0.0
C1212 C 0.74276 0.94146 0.75275 0.0
C1213 C 0.75585 0.97542 0.744 0.0
C1214 C 0.64446 0.92098 0.72937 0.0
C1215 C 0.76782 0.92507 0.76699 0.0
H1216 H 0.62851 0.8667 0.79051 0.0
H1217 H 0.68498 0.78732 0.75522 0.0
H1218 H 0.68426 0.95262 0.78089 0.0
H1219 H 0.63999 0.95274 0.76836 0.0
H1220 H 0.63802 0.93555 0.78994 0.0
H1221 H 0.73142 0.80953 0.73517 0.0
H1222 H 0.71149 0.85362 0.72534 0.0
H1223 H 0.75422 0.85747 0.73872 0.0
H1224 H 0.6805 0.98443 0.71547 0.0
H1225 H 0.78357 0.98952 0.74766 0.0
H1226 H 0.62345 0.92174 0.7402 0.0
H1227 H 0.64862 0.88931 0.72582 0.0
H1228 H 0.63063 0.93686 0.71854 0.0
H1229 H 0.75105 0.92676 0.77906 0.0
H1230 H 0.7963 0.9415 0.76851 0.0
H1231 H 0.77457 0.8932 0.76466 0.0
C1232 C 0.97386 0.30003 0.27281 0.0
C1233 C 0.99315 0.26494 0.26774 0.0
C1234 C 0.94034 0.31418 0.26416 0.0
C1235 C 0.92518 0.29235 0.25027 0.0
C1236 C 0.94392 0.25646 0.24528 0.0
C1237 C 0.97794 0.24335 0.25398 0.0
C1238 C 0.92157 0.35292 0.26972 0.0
C1239 C 0.9281 0.23206 0.23072 0.0
C1240 C 0.81861 0.31788 0.23871 0.0
C1241 C 0.82413 0.3445 0.22524 0.0
C1242 C 0.85117 0.29914 0.24647 0.0
C1243 C 0.89021 0.30784 0.24083 0.0
C1244 C 0.89594 0.33381 0.22695 0.0
C1245 C 0.86281 0.35153 0.21922 0.0
C1246 C 0.84386 0.27104 0.26105 0.0
C1247 C 0.93715 0.34433 0.22075 0.0
H1248 H 0.9854 0.31701 0.28337 0.0
H1249 H 0.99251 0.21606 0.25006 0.0
H1250 H 0.92198 0.37457 0.25912 0.0
H1251 H 0.88996 0.34799 0.2732 0.0
H1252 H 0.93717 0.36637 0.28071 0.0
H1253 H 0.94512 0.20403 0.22888 0.0
H1254 H 0.89637 0.22451 0.23294 0.0
H1255 H 0.92949 0.24966 0.21887 0.0
H1256 H 0.78884 0.31204 0.24337 0.0
H1257 H 0.86743 0.37212 0.20885 0.0
H1258 H 0.85534 0.28441 0.27291 0.0
H1259 H 0.86013 0.24268 0.25903 0.0
H1260 H 0.81172 0.26433 0.26276 0.0
H1261 H 0.95352 0.36048 0.23083 0.0
H1262 H 0.93641 0.36333 0.20925 0.0
H1263 H 0.95426 0.31692 0.21786 0.0
C1264 C 0.30119 0.02606 0.72606 0.0
C1265 C 0.26599 0.00692 0.73109 0.0
C1266 C 0.31549 0.05947 0.73475 0.0
C1267 C 0.29368 0.07468 0.74863 0.0
C1268 C 0.25762 0.05618 0.75355 0.0
C1269 C 0.24436 0.02226 0.74481 0.0
C1270 C 0.3544 0.07799 0.72926 0.0
C1271 C 0.23324 0.07206 0.7681 0.0
C1272 C 0.35303 0.13594 0.78004 0.0
C1273 C 0.34633 0.17481 0.77418 0.0
C1274 C 0.33521 0.10312 0.77212 0.0
C1275 C 0.30946 0.10934 0.7582 0.0
C1276 C 0.30116 0.14856 0.75269 0.0
C1277 C 0.32001 0.18082 0.76064 0.0
C1278 C 0.34533 0.0617 0.77819 0.0
C1279 C 0.2733 0.1564 0.73808 0.0
H1280 H 0.31821 0.01443 0.71552 0.0
H1281 H 0.217 0.00782 0.74871 0.0
H1282 H 0.34978 0.10971 0.7259 0.0
H1283 H 0.37604 0.07714 0.73986 0.0
H1284 H 0.36772 0.06249 0.71821 0.0
H1285 H 0.20493 0.05543 0.7698 0.0
H1286 H 0.25065 0.07014 0.77999 0.0
H1287 H 0.22619 0.10395 0.76599 0.0
H1288 H 0.37339 0.13095 0.79046 0.0
H1289 H 0.31443 0.21072 0.75609 0.0
H1290 H 0.36129 0.04533 0.76805 0.0
H1291 H 0.31775 0.04484 0.78103 0.0
H1292 H 0.36437 0.06203 0.78968 0.0
H1293 H 0.28665 0.14494 0.7262 0.0
H1294 H 0.26697 0.18864 0.73643 0.0
H1295 H 0.24474 0.14044 0.74 0.0
C1296 C 0.02996 0.70161 0.27535 0.0
C1297 C 0.00788 0.73386 0.26904 0.0
C1298 C 0.06338 0.68719 0.26671 0.0
C1299 C 0.0755 0.70579 0.2515 0.0
C1300 C 0.05407 0.73898 0.24527 0.0
C1301 C 0.02031 0.75247 0.25405 0.0
C1302 C 0.08518 0.65141 0.27367 0.0
C1303 C 0.06655 0.75992 0.22923 0.0
C1304 C 0.18151 0.68257 0.23818 0.0
C1305 C 0.17551 0.65251 0.22614 0.0
C1306 C 0.14913 0.70156 0.24598 0.0
C1307 C 0.1099 0.68946 0.24194 0.0
C1308 C 0.10364 0.65969 0.22955 0.0
C1309 C 0.13652 0.64191 0.22166 0.0
C1310 C 0.15694 0.7338 0.25887 0.0
C1311 C 0.06228 0.64541 0.22513 0.0
H1312 H 0.02069 0.68694 0.2869 0.0
H1313 H 0.0036 0.77752 0.24912 0.0
H1314 H 0.08449 0.62681 0.26431 0.0
H1315 H 0.11689 0.6589 0.27595 0.0
H1316 H 0.07202 0.64052 0.28571 0.0
H1317 H 0.04802 0.78659 0.22657 0.0
H1318 H 0.09818 0.76922 0.23013 0.0
H1319 H 0.06415 0.73921 0.21835 0.0
H1320 H 0.21154 0.69116 0.2416 0.0
H1321 H 0.13164 0.61858 0.21242 0.0
H1322 H 0.14776 0.72336 0.27159 0.0
H1323 H 0.13899 0.76065 0.25591 0.0
H1324 H 0.18887 0.74237 0.25938 0.0
H1325 H 0.04831 0.63161 0.23642 0.0
H1326 H 0.06244 0.6232 0.21472 0.0
H1327 H 0.04328 0.67089 0.22133 0.0
C1328 C 0.75462 0.52154 0.50402 0.0
C1329 C 0.73355 0.50677 0.518 0.0
C1330 C 0.74127 0.55539 0.49526 0.0
C1331 C 0.70568 0.57441 0.50043 0.0
C1332 C 0.68441 0.55975 0.51457 0.0
C1333 C 0.69879 0.52638 0.52326 0.0
C1334 C 0.76507 0.57067 0.48042 0.0
C1335 C 0.64601 0.57884 0.52034 0.0
C1336 C 0.68012 0.68073 0.48846 0.0
C1337 C 0.65297 0.67492 0.4752 0.0
C1338 C 0.699 0.64833 0.49627 0.0
C1339 C 0.68989 0.60916 0.49093 0.0
C1340 C 0.66331 0.60313 0.47728 0.0
C1341 C 0.64547 0.63609 0.46947 0.0
C1342 C 0.72775 0.65596 0.51059 0.0
C1343 C 0.65233 0.56178 0.47139 0.0
H1344 H 0.78164 0.50673 0.49993 0.0
H1345 H 0.68219 0.5152 0.534 0.0
H1346 H 0.74696 0.56891 0.46871 0.0
H1347 H 0.77277 0.60247 0.48239 0.0
H1348 H 0.79299 0.55355 0.47846 0.0
H1349 H 0.63301 0.56365 0.53153 0.0
H1350 H 0.65121 0.61054 0.5236 0.0
H1351 H 0.62386 0.57817 0.50993 0.0
H1352 H 0.68632 0.71061 0.49289 0.0
H1353 H 0.62446 0.63126 0.45927 0.0
H1354 H 0.75598 0.63957 0.50843 0.0
H1355 H 0.71488 0.64484 0.52262 0.0
H1356 H 0.73461 0.68813 0.51209 0.0
H1357 H 0.67953 0.54448 0.46836 0.0
H1358 H 0.63277 0.56224 0.46006 0.0
H1359 H 0.63661 0.54578 0.4817 0.0
C1360 C 0.6366 0.35261 0.52975 0.0
C1361 C 0.67534 0.34556 0.52381 0.0
C1362 C 0.60354 0.33492 0.52194 0.0
C1363 C 0.6094 0.30897 0.50806 0.0
C1364 C 0.64849 0.3003 0.50249 0.0
C1365 C 0.68098 0.31901 0.51031 0.0
C1366 C 0.56227 0.34543 0.52808 0.0
C1367 C 0.65594 0.27223 0.48791 0.0
C1368 C 0.5219 0.24429 0.4948 0.0
C1369 C 0.50676 0.26583 0.48102 0.0
C1370 C 0.55583 0.25749 0.50355 0.0
C1371 C 0.57452 0.29341 0.49858 0.0
C1372 C 0.55943 0.31519 0.48467 0.0
C1373 C 0.52601 0.30095 0.47598 0.0
C1374 C 0.57157 0.23315 0.51814 0.0
C1375 C 0.57816 0.35396 0.47913 0.0
H1376 H 0.63189 0.37315 0.54013 0.0
H1377 H 0.71079 0.31315 0.50571 0.0
H1378 H 0.54596 0.36152 0.51797 0.0
H1379 H 0.54518 0.31801 0.53096 0.0
H1380 H 0.56289 0.36448 0.53957 0.0
H1381 H 0.68811 0.2656 0.48622 0.0
H1382 H 0.63975 0.24382 0.48991 0.0
H1383 H 0.64447 0.28556 0.47604 0.0
H1384 H 0.50736 0.21699 0.49872 0.0
H1385 H 0.51451 0.3179 0.46539 0.0
H1386 H 0.57006 0.25078 0.52999 0.0
H1387 H 0.60334 0.22565 0.51597 0.0
H1388 H 0.5546 0.2051 0.51997 0.0
H1389 H 0.57762 0.37562 0.48972 0.0
H1390 H 0.56261 0.36736 0.46811 0.0
H1391 H 0.6098 0.34908 0.47569 0.0
C1392 C 0.30117 0.47271 0.52316 0.0
C1393 C 0.26605 0.49209 0.51819 0.0
C1394 C 0.31532 0.43939 0.51437 0.0
C1395 C 0.29345 0.42452 0.50044 0.0
C1396 C 0.25754 0.44335 0.49554 0.0
C1397 C 0.24443 0.47718 0.50438 0.0
C1398 C 0.35409 0.42052 0.51983 0.0
C1399 C 0.23309 0.42783 0.48094 0.0
C1400 C 0.35248 0.36259 0.46916 0.0
C1401 C 0.34543 0.32383 0.47506 0.0
C1402 C 0.33481 0.39561 0.477 0.0
C1403 C 0.30888 0.38969 0.49088 0.0
C1404 C 0.30018 0.35057 0.49641 0.0
C1405 C 0.31887 0.31812 0.48854 0.0
C1406 C 0.34535 0.43691 0.47091 0.0
C1407 C 0.27212 0.34305 0.51098 0.0
H1408 H 0.3182 0.48404 0.53376 0.0
H1409 H 0.21713 0.49181 0.50053 0.0
H1410 H 0.34916 0.38887 0.52323 0.0
H1411 H 0.37569 0.4211 0.50922 0.0
H1412 H 0.36761 0.43594 0.53086 0.0
H1413 H 0.20508 0.44491 0.47916 0.0
H1414 H 0.25068 0.42941 0.46909 0.0
H1415 H 0.2255 0.39607 0.48306 0.0
H1416 H 0.37302 0.36736 0.45878 0.0
H1417 H 0.31302 0.2883 0.49312 0.0
H1418 H 0.36157 0.45309 0.48102 0.0
H1419 H 0.31795 0.4541 0.4681 0.0
H1420 H 0.36431 0.43634 0.4594 0.0
H1421 H 0.28554 0.35433 0.52287 0.0
H1422 H 0.26539 0.31089 0.5126 0.0
H1423 H 0.24376 0.35936 0.50903 0.0
C1424 C 0.47209 0.6987 0.47618 0.0
C1425 C 0.49185 0.73346 0.48133 0.0
C1426 C 0.43882 0.68448 0.48498 0.0
C1427 C 0.42439 0.70591 0.49911 0.0
C1428 C 0.44356 0.7415 0.50419 0.0
C1429 C 0.47732 0.75469 0.49532 0.0
C1430 C 0.41956 0.64607 0.47931 0.0
C1431 C 0.42851 0.76548 0.51902 0.0
C1432 C 0.31816 0.68053 0.51127 0.0
C1433 C 0.32407 0.65339 0.52453 0.0
C1434 C 0.35051 0.6994 0.50342 0.0
C1435 C 0.38972 0.6903 0.50871 0.0
C1436 C 0.39585 0.66379 0.52238 0.0
C1437 C 0.36293 0.64595 0.53023 0.0
C1438 C 0.34277 0.72809 0.48909 0.0
C1439 C 0.43724 0.65281 0.52822 0.0
H1440 H 0.48309 0.68198 0.46544 0.0
H1441 H 0.49225 0.78171 0.49932 0.0
H1442 H 0.42028 0.62403 0.48977 0.0
H1443 H 0.38784 0.65133 0.47611 0.0
H1444 H 0.4346 0.63291 0.46812 0.0
H1445 H 0.44573 0.79337 0.52089 0.0
H1446 H 0.39671 0.77325 0.5171 0.0
H1447 H 0.43036 0.74748 0.53075 0.0
H1448 H 0.28825 0.68669 0.50686 0.0
H1449 H 0.36784 0.62497 0.54043 0.0
H1450 H 0.35365 0.71509 0.47705 0.0
H1451 H 0.35931 0.75626 0.49116 0.0
H1452 H 0.31061 0.73507 0.48767 0.0
H1453 H 0.4531 0.63691 0.51792 0.0
H1454 H 0.43686 0.63341 0.53959 0.0
H1455 H 0.45463 0.68001 0.53115 0.0
C1456 C 0.3242 0.26973 0.39493 0.0
C1457 C 0.31701 0.24603 0.40919 0.0
C1458 C 0.29796 0.26938 0.38115 0.0
C1459 C 0.26436 0.24394 0.38149 0.0
C1460 C 0.25747 0.21928 0.39571 0.0
C1461 C 0.28365 0.22102 0.40952 0.0
C1462 C 0.30579 0.29675 0.36636 0.0
C1463 C 0.22248 0.19109 0.39634 0.0
C1464 C 0.17608 0.26934 0.35361 0.0
C1465 C 0.18317 0.24532 0.33944 0.0
C1466 C 0.20241 0.2693 0.36737 0.0
C1467 C 0.23599 0.24383 0.36709 0.0
C1468 C 0.24281 0.21887 0.35295 0.0
C1469 C 0.21654 0.22031 0.33917 0.0
C1470 C 0.19466 0.29698 0.38206 0.0
C1471 C 0.27778 0.19065 0.3524 0.0
H1472 H 0.3499 0.28926 0.39471 0.0
H1473 H 0.27829 0.20238 0.42048 0.0
H1474 H 0.30904 0.27916 0.35458 0.0
H1475 H 0.2801 0.31709 0.36456 0.0
H1476 H 0.3331 0.31494 0.36815 0.0
H1477 H 0.22243 0.17259 0.40799 0.0
H1478 H 0.19423 0.20814 0.39582 0.0
H1479 H 0.223 0.17107 0.38518 0.0
H1480 H 0.15039 0.28889 0.35379 0.0
H1481 H 0.22183 0.20144 0.32827 0.0
H1482 H 0.22041 0.31728 0.38379 0.0
H1483 H 0.19135 0.27963 0.3939 0.0
H1484 H 0.16741 0.31522 0.38021 0.0
H1485 H 0.30604 0.20768 0.35288 0.0
H1486 H 0.27782 0.17197 0.3408 0.0
H1487 H 0.27724 0.1708 0.36362 0.0
C1488 C 0.22222 0.71442 0.59026 0.0
C1489 C 0.24713 0.68097 0.59048 0.0
C1490 C 0.22088 0.74059 0.60408 0.0
C1491 C 0.24582 0.73359 0.6182 0.0
C1492 C 0.27114 0.6999 0.61844 0.0
C1493 C 0.2711 0.67367 0.60465 0.0
C1494 C 0.1928 0.77568 0.60356 0.0
C1495 C 0.29881 0.69196 0.63312 0.0
C1496 C 0.27185 0.82198 0.64592 0.0
C1497 C 0.24796 0.81508 0.66015 0.0
C1498 C 0.27162 0.79551 0.63222 0.0
C1499 C 0.24611 0.76197 0.6326 0.0
C1500 C 0.22136 0.75529 0.64682 0.0
C1501 C 0.22297 0.7817 0.66054 0.0
C1502 C 0.29909 0.80311 0.61744 0.0
C1503 C 0.19309 0.72037 0.64749 0.0
H1504 H 0.20338 0.71987 0.57936 0.0
H1505 H 0.29056 0.64791 0.60478 0.0
H1506 H 0.17303 0.77525 0.6148 0.0
H1507 H 0.20997 0.80386 0.604 0.0
H1508 H 0.17403 0.77579 0.59198 0.0
H1509 H 0.31683 0.66457 0.63126 0.0
H1510 H 0.31931 0.71755 0.63483 0.0
H1511 H 0.28147 0.68881 0.64498 0.0
H1512 H 0.29138 0.84767 0.64565 0.0
H1513 H 0.20421 0.77656 0.67149 0.0
H1514 H 0.28154 0.80656 0.60566 0.0
H1515 H 0.3192 0.77724 0.61563 0.0
H1516 H 0.31754 0.83024 0.61925 0.0
H1517 H 0.17294 0.72098 0.63637 0.0
H1518 H 0.17473 0.72032 0.65918 0.0
H1519 H 0.21006 0.69207 0.64691 0.0
C1520 C 0.6742 0.72758 0.39519 0.0
C1521 C 0.68134 0.75165 0.40935 0.0
C1522 C 0.70053 0.72752 0.38144 0.0
C1523 C 0.73416 0.75293 0.3817 0.0
C1524 C 0.74101 0.77794 0.39582 0.0
C1525 C 0.71475 0.77661 0.4096 0.0
C1526 C 0.69276 0.69976 0.36678 0.0
C1527 C 0.77602 0.80611 0.39635 0.0
C1528 C 0.82283 0.72724 0.3541 0.0
C1529 C 0.81593 0.75109 0.33986 0.0
C1530 C 0.79625 0.72733 0.36776 0.0
C1531 C 0.76259 0.75269 0.36733 0.0
C1532 C 0.75589 0.77739 0.3531 0.0
C1533 C 0.78241 0.7759 0.33941 0.0
C1534 C 0.80387 0.69989 0.38254 0.0
C1535 C 0.72085 0.80551 0.35238 0.0
H1536 H 0.64847 0.70809 0.39504 0.0
H1537 H 0.72006 0.79552 0.42048 0.0
H1538 H 0.68959 0.71704 0.3549 0.0
H1539 H 0.71844 0.67936 0.3651 0.0
H1540 H 0.66543 0.68164 0.36862 0.0
H1541 H 0.77604 0.82489 0.40792 0.0
H1542 H 0.80426 0.78901 0.39593 0.0
H1543 H 0.77558 0.82585 0.3851 0.0
H1544 H 0.84864 0.70784 0.3544 0.0
H1545 H 0.77727 0.79464 0.32846 0.0
H1546 H 0.77804 0.67973 0.38435 0.0
H1547 H 0.80723 0.71747 0.39433 0.0
H1548 H 0.83105 0.68152 0.38077 0.0
H1549 H 0.69262 0.78843 0.35296 0.0
H1550 H 0.72076 0.82381 0.34067 0.0
H1551 H 0.72134 0.82571 0.36348 0.0
C1552 C 0.72794 0.17521 0.64499 0.0
C1553 C 0.75191 0.18212 0.65919 0.0
C1554 C 0.72819 0.2016 0.63126 0.0
C1555 C 0.75381 0.23506 0.63159 0.0
C1556 C 0.7787 0.2417 0.64576 0.0
C1557 C 0.77706 0.21539 0.65952 0.0
C1558 C 0.70057 0.19404 0.61653 0.0
C1559 C 0.80709 0.27653 0.64638 0.0
C1560 C 0.77739 0.28287 0.58926 0.0
C1561 C 0.75262 0.31642 0.5896 0.0
C1562 C 0.77875 0.25654 0.60303 0.0
C1563 C 0.75397 0.26348 0.61721 0.0
C1564 C 0.72874 0.29724 0.61754 0.0
C1565 C 0.72876 0.32362 0.60381 0.0
C1566 C 0.80673 0.22138 0.6024 0.0
C1567 C 0.70124 0.30513 0.63228 0.0
H1568 H 0.7083 0.14959 0.64478 0.0
H1569 H 0.7959 0.22053 0.67044 0.0
H1570 H 0.68042 0.2199 0.61478 0.0
H1571 H 0.718 0.19066 0.60471 0.0
H1572 H 0.68217 0.16688 0.61834 0.0
H1573 H 0.82566 0.27647 0.65801 0.0
H1574 H 0.82704 0.27592 0.6352 0.0
H1575 H 0.79019 0.30488 0.64588 0.0
H1576 H 0.79613 0.2775 0.57833 0.0
H1577 H 0.7094 0.34945 0.60403 0.0
H1578 H 0.7895 0.19324 0.60289 0.0
H1579 H 0.82669 0.22174 0.61359 0.0
H1580 H 0.8253 0.22125 0.59077 0.0
H1581 H 0.68077 0.27952 0.63403 0.0
H1582 H 0.68317 0.33251 0.63048 0.0
H1583 H 0.71872 0.30827 0.6441 0.0
C1584 C 0.17576 0.22858 0.89567 0.0
C1585 C 0.18295 0.25245 0.90988 0.0
C1586 C 0.20215 0.22853 0.88194 0.0
C1587 C 0.23592 0.25374 0.88227 0.0
C1588 C 0.24285 0.27855 0.89645 0.0
C1589 C 0.2165 0.27722 0.91021 0.0
C1590 C 0.19427 0.20101 0.86721 0.0
C1591 C 0.27802 0.30652 0.89707 0.0
C1592 C 0.32419 0.22759 0.8545 0.0
C1593 C 0.31728 0.25151 0.84028 0.0
C1594 C 0.29782 0.22791 0.86824 0.0
C1595 C 0.26436 0.25355 0.8679 0.0
C1596 C 0.25773 0.2784 0.85371 0.0
C1597 C 0.28403 0.27669 0.83995 0.0
C1598 C 0.30537 0.20033 0.88298 0.0
C1599 C 0.22291 0.3068 0.85308 0.0
H1600 H 0.14992 0.20922 0.89545 0.0
H1601 H 0.22187 0.29597 0.92114 0.0
H1602 H 0.19115 0.21847 0.85538 0.0
H1603 H 0.21988 0.18053 0.86547 0.0
H1604 H 0.16688 0.18296 0.86901 0.0
H1605 H 0.27814 0.32511 0.9087 0.0
H1606 H 0.30616 0.28928 0.89659 0.0
H1607 H 0.27768 0.32645 0.88588 0.0
H1608 H 0.34979 0.20793 0.85472 0.0
H1609 H 0.27888 0.29549 0.82902 0.0
H1610 H 0.27951 0.18018 0.88473 0.0
H1611 H 0.30872 0.21778 0.8948 0.0
H1612 H 0.33253 0.18193 0.88118 0.0
H1613 H 0.19455 0.28992 0.85357 0.0
H1614 H 0.223 0.32537 0.84145 0.0
H1615 H 0.22351 0.32676 0.86427 0.0
C1616 C 0.22813 0.67726 0.14663 0.0
C1617 C 0.25208 0.68407 0.16085 0.0
C1618 C 0.22818 0.7039 0.13299 0.0
C1619 C 0.25359 0.73751 0.13342 0.0
C1620 C 0.27835 0.74415 0.14764 0.0
C1621 C 0.27691 0.71756 0.16131 0.0
C1622 C 0.20068 0.69635 0.11822 0.0
C1623 C 0.30651 0.77915 0.14836 0.0
C1624 C 0.27734 0.78499 0.09107 0.0
C1625 C 0.25232 0.81836 0.09127 0.0
C1626 C 0.27881 0.75892 0.10491 0.0
C1627 C 0.25387 0.76591 0.11904 0.0
C1628 C 0.22847 0.79954 0.11926 0.0
C1629 C 0.22839 0.82569 0.10544 0.0
C1630 C 0.30697 0.72389 0.10441 0.0
C1631 C 0.2008 0.80747 0.13394 0.0
H1632 H 0.20872 0.65148 0.14632 0.0
H1633 H 0.29571 0.72264 0.17225 0.0
H1634 H 0.18062 0.72225 0.1164 0.0
H1635 H 0.21824 0.69286 0.10643 0.0
H1636 H 0.1822 0.66925 0.12002 0.0
H1637 H 0.32477 0.77925 0.16008 0.0
H1638 H 0.32676 0.77857 0.13728 0.0
H1639 H 0.28948 0.8074 0.14775 0.0
H1640 H 0.29615 0.77952 0.08017 0.0
H1641 H 0.20886 0.85139 0.10556 0.0
H1642 H 0.28986 0.69567 0.10482 0.0
H1643 H 0.32666 0.72433 0.11568 0.0
H1644 H 0.32581 0.72385 0.09286 0.0
H1645 H 0.18027 0.78189 0.13563 0.0
H1646 H 0.18281 0.83489 0.1321 0.0
H1647 H 0.21813 0.81055 0.14581 0.0
C1648 C 0.82571 0.76976 0.89553 0.0
C1649 C 0.81824 0.74604 0.90975 0.0
C1650 C 0.79961 0.76963 0.88169 0.0
C1651 C 0.76586 0.74438 0.88194 0.0
C1652 C 0.7587 0.71967 0.89613 0.0
C1653 C 0.78474 0.72119 0.90998 0.0
C1654 C 0.80773 0.79705 0.86695 0.0
C1655 C 0.72354 0.69168 0.89667 0.0
C1656 C 0.6777 0.77043 0.85409 0.0
C1657 C 0.68459 0.74639 0.83991 0.0
C1658 C 0.7041 0.77024 0.86783 0.0
C1659 C 0.73755 0.7446 0.86752 0.0
C1660 C 0.74421 0.71968 0.85336 0.0
C1661 C 0.71788 0.72126 0.8396 0.0
C1662 C 0.69651 0.7979 0.88254 0.0
C1663 C 0.77903 0.69127 0.85277 0.0
H1664 H 0.85151 0.78917 0.89538 0.0
H1665 H 0.77916 0.70253 0.92092 0.0
H1666 H 0.81086 0.77954 0.85514 0.0
H1667 H 0.78223 0.81764 0.86517 0.0
H1668 H 0.83519 0.81499 0.86878 0.0
H1669 H 0.72333 0.67304 0.90828 0.0
H1670 H 0.6954 0.70892 0.89617 0.0
H1671 H 0.72397 0.67181 0.88546 0.0
H1672 H 0.65208 0.79007 0.8543 0.0
H1673 H 0.72301 0.70238 0.82869 0.0
H1674 H 0.72244 0.81794 0.88434 0.0
H1675 H 0.69296 0.78048 0.89436 0.0
H1676 H 0.66945 0.81641 0.88068 0.0
H1677 H 0.80738 0.70814 0.85334 0.0
H1678 H 0.77906 0.67278 0.84112 0.0
H1679 H 0.77829 0.67126 0.86393 0.0
C1680 C 0.72132 0.21613 0.08952 0.0
C1681 C 0.74628 0.18273 0.08989 0.0
C1682 C 0.71969 0.24246 0.10327 0.0
C1683 C 0.74441 0.23567 0.11749 0.0
C1684 C 0.76984 0.20206 0.11786 0.0
C1685 C 0.77007 0.17568 0.10413 0.0
C1686 C 0.69151 0.27745 0.10261 0.0
C1687 C 0.79727 0.19434 0.13264 0.0
C1688 C 0.76987 0.32395 0.14537 0.0
C1689 C 0.74594 0.3168 0.15956 0.0
C1690 C 0.76974 0.29767 0.13159 0.0
C1691 C 0.74429 0.26409 0.13187 0.0
C1692 C 0.71938 0.25724 0.14603 0.0
C1693 C 0.7209 0.28345 0.15982 0.0
C1694 C 0.79738 0.30544 0.11689 0.0
C1695 C 0.69115 0.22228 0.14659 0.0
H1696 H 0.70262 0.22139 0.07856 0.0
H1697 H 0.78957 0.14995 0.10438 0.0
H1698 H 0.67145 0.27695 0.11376 0.0
H1699 H 0.70856 0.3057 0.10314 0.0
H1700 H 0.67305 0.27749 0.09095 0.0
H1701 H 0.81555 0.16709 0.13085 0.0
H1702 H 0.81754 0.22009 0.13443 0.0
H1703 H 0.77971 0.19105 0.14443 0.0
H1704 H 0.78944 0.34963 0.1452 0.0
H1705 H 0.7021 0.27813 0.17074 0.0
H1706 H 0.78 0.30864 0.10505 0.0
H1707 H 0.81776 0.27974 0.11517 0.0
H1708 H 0.81555 0.33275 0.11872 0.0
H1709 H 0.67134 0.22276 0.13536 0.0
H1710 H 0.67244 0.22229 0.15817 0.0
H1711 H 0.7082 0.19402 0.14614 0.0
C1712 C 0.94712 0.92762 0.2762 0.0
C1713 C 0.96449 0.89894 0.28678 0.0
C1714 C 0.96041 0.96719 0.2763 0.0
C1715 C 0.99164 0.97841 0.28733 0.0
C1716 C 0.00896 0.94975 0.2982 0.0
C1717 C 0.99526 0.91029 0.29776 0.0
C1718 C 0.94134 0.99688 0.26446 0.0
C1719 C 0.04215 0.96073 0.31022 0.0
C1720 C 0.05161 0.07013 0.27576 0.0
C1721 C 0.03423 0.0993 0.2861 0.0
C1722 C 0.03816 0.03063 0.27612 0.0
C1723 C 0.00676 0.01998 0.28716 0.0
C1724 C 0.98936 0.04915 0.29776 0.0
C1725 C 0.00323 0.08854 0.29706 0.0
C1726 C 0.05731 0.00037 0.26457 0.0
C1727 C 0.95598 0.0388 0.30977 0.0
H1728 H 0.92333 0.9191 0.26767 0.0
H1729 H 0.00863 0.88836 0.30606 0.0
H1730 H 0.92902 0.02224 0.27176 0.0
H1731 H 0.96408 0.00911 0.25571 0.0
H1732 H 0.91699 0.98346 0.25684 0.0
H1733 H 0.05155 0.93522 0.31822 0.0
H1734 H 0.06832 0.97144 0.30297 0.0
H1735 H 0.03252 0.98544 0.31858 0.0
H1736 H 0.07557 0.0782 0.26724 0.0
H1737 H 0.98983 0.11086 0.30517 0.0
H1738 H 0.03463 0.98768 0.25591 0.0
H1739 H 0.06961 0.97539 0.27211 0.0
H1740 H 0.08169 0.01342 0.25685 0.0
H1741 H 0.92993 0.02768 0.30256 0.0
H1742 H 0.94643 0.06472 0.3175 0.0
H1743 H 0.96549 0.01456 0.3184 0.0
C1744 C 0.9106 0.00237 0.7009 0.0
C1745 C 0.89955 0.03339 0.71181 0.0
C1746 C 0.95007 0.98864 0.70032 0.0
C1747 C 0.97903 0.0062 0.71099 0.0
C1748 C 0.9681 0.03769 0.72193 0.0
C1749 C 0.92854 0.05099 0.72217 0.0
C1750 C 0.96072 0.95518 0.6884 0.0
C1751 C 0.9981 0.05702 0.73356 0.0
C1752 C 0.07106 0.9468 0.72269 0.0
C1753 C 0.10013 0.96408 0.71228 0.0
C1754 C 0.03147 0.95998 0.72226 0.0
C1755 C 0.0206 0.99101 0.71107 0.0
C1756 C 0.04964 0.00821 0.70035 0.0
C1757 C 0.08913 0.99462 0.70112 0.0
C1758 C 0.00137 0.94105 0.73396 0.0
C1759 C 0.03907 0.04118 0.68817 0.0
H1760 H 0.88843 0.98881 0.69277 0.0
H1761 H 0.92026 0.07497 0.73064 0.0
H1762 H 0.98529 0.96455 0.67991 0.0
H1763 H 0.97151 0.92914 0.69572 0.0
H1764 H 0.93503 0.94567 0.68053 0.0
H1765 H 0.9849 0.08158 0.74112 0.0
H1766 H 0.0105 0.03449 0.74236 0.0
H1767 H 0.02331 0.06911 0.72609 0.0
H1768 H 0.0793 0.92318 0.73135 0.0
H1769 H 0.11137 0.00793 0.69294 0.0
H1770 H 0.97622 0.92871 0.72653 0.0
H1771 H 0.98889 0.96389 0.7426 0.0
H1772 H 0.01451 0.91676 0.74169 0.0
H1773 H 0.01455 0.03145 0.67972 0.0
H1774 H 0.06481 0.05037 0.68026 0.0
H1775 H 0.02823 0.06751 0.69527 0.0
C1776 C 0.00374 0.41029 0.95248 0.0
C1777 C 0.0346 0.39909 0.96344 0.0
C1778 C 0.99007 0.44977 0.95195 0.0
C1779 C 0.00751 0.47858 0.96272 0.0
C1780 C 0.03879 0.46749 0.97374 0.0
C1781 C 0.05205 0.42791 0.97393 0.0
C1782 C 0.95682 0.4606 0.93995 0.0
C1783 C 0.05797 0.49733 0.98548 0.0
C1784 C 0.99631 0.58861 0.95268 0.0
C1785 C 0.96542 0.59968 0.96365 0.0
C1786 C 0.00998 0.54914 0.95207 0.0
C1787 C 0.9925 0.5202 0.96276 0.0
C1788 C 0.9612 0.53116 0.9738 0.0
C1789 C 0.94794 0.57074 0.97407 0.0
C1790 C 0.04324 0.53845 0.94005 0.0
C1791 C 0.94199 0.50118 0.98546 0.0
H1792 H 0.99029 0.38825 0.94426 0.0
H1793 H 0.0759 0.4195 0.98245 0.0
H1794 H 0.93074 0.47155 0.94719 0.0
H1795 H 0.96647 0.48509 0.93148 0.0
H1796 H 0.94727 0.43495 0.93205 0.0
H1797 H 0.08228 0.48399 0.99314 0.0
H1798 H 0.07037 0.52251 0.97809 0.0
H1799 H 0.03529 0.50982 0.99419 0.0
H1800 H 0.00978 0.61075 0.94451 0.0
H1801 H 0.92407 0.57905 0.98259 0.0
H1802 H 0.0336 0.51405 0.93152 0.0
H1803 H 0.06931 0.5274 0.94728 0.0
H1804 H 0.05281 0.56418 0.93222 0.0
H1805 H 0.92961 0.47609 0.97801 0.0
H1806 H 0.91767 0.51444 0.99314 0.0
H1807 H 0.96467 0.48858 0.99416 0.0
C1808 C 0.41012 0.99644 0.04801 0.0
C1809 C 0.399 0.96521 0.03722 0.0
C1810 C 0.44958 0.01015 0.0485 0.0
C1811 C 0.47847 0.99238 0.03787 0.0
C1812 C 0.46746 0.96073 0.02702 0.0
C1813 C 0.4279 0.94744 0.02687 0.0
C1814 C 0.46032 0.04379 0.06032 0.0
C1815 C 0.49739 0.94118 0.01543 0.0
C1816 C 0.57071 0.05153 0.02624 0.0
C1817 C 0.59961 0.03437 0.03677 0.0
C1818 C 0.53112 0.03831 0.02657 0.0
C1819 C 0.52009 0.0074 0.03778 0.0
C1820 C 0.54899 0.99027 0.0486 0.0
C1821 C 0.58848 0.00387 0.04792 0.0
C1822 C 0.50118 0.05715 0.01477 0.0
C1823 C 0.53824 0.95742 0.06081 0.0
H1824 H 0.38801 0.01014 0.05613 0.0
H1825 H 0.41955 0.92331 0.01849 0.0
H1826 H 0.48478 0.03444 0.06887 0.0
H1827 H 0.47131 0.06964 0.05294 0.0
H1828 H 0.43463 0.05359 0.06813 0.0
H1829 H 0.4841 0.91662 0.0079 0.0
H1830 H 0.50993 0.96358 0.0066 0.0
H1831 H 0.52254 0.92903 0.02293 0.0
H1832 H 0.57907 0.07509 0.01757 0.0
H1833 H 0.61059 0.99066 0.05619 0.0
H1834 H 0.47604 0.06975 0.02212 0.0
H1835 H 0.48864 0.0342 0.00619 0.0
H1836 H 0.51447 0.08123 0.00696 0.0
H1837 H 0.51378 0.96734 0.06925 0.0
H1838 H 0.56393 0.94815 0.06874 0.0
H1839 H 0.52726 0.9311 0.05374 0.0
C1840 C 0.49693 0.40953 0.79848 0.0
C1841 C 0.46592 0.39856 0.78755 0.0
C1842 C 0.51061 0.449 0.79914 0.0
C1843 C 0.49301 0.47805 0.78854 0.0
C1844 C 0.46153 0.46721 0.77757 0.0
C1845 C 0.44828 0.42764 0.77725 0.0
C1846 C 0.54407 0.45955 0.81108 0.0
C1847 C 0.44216 0.49731 0.766 0.0
C1848 C 0.50465 0.58803 0.79863 0.0
C1849 C 0.53522 0.59912 0.78751 0.0
C1850 C 0.49101 0.54855 0.79931 0.0
C1851 C 0.50819 0.51961 0.78853 0.0
C1852 C 0.53923 0.53058 0.77736 0.0
C1853 C 0.55246 0.57016 0.77702 0.0
C1854 C 0.45803 0.53786 0.81147 0.0
C1855 C 0.55814 0.50061 0.7656 0.0
H1856 H 0.51052 0.38729 0.80657 0.0
H1857 H 0.4243 0.41943 0.76876 0.0
H1858 H 0.57011 0.47041 0.80379 0.0
H1859 H 0.53469 0.48403 0.81961 0.0
H1860 H 0.5536 0.43378 0.81891 0.0
H1861 H 0.4176 0.48419 0.75843 0.0
H1862 H 0.43008 0.52245 0.77352 0.0
H1863 H 0.46468 0.50981 0.75722 0.0
H1864 H 0.49137 0.61018 0.80686 0.0
H1865 H 0.57609 0.57846 0.76838 0.0
H1866 H 0.46776 0.51328 0.81988 0.0
H1867 H 0.4317 0.52707 0.80434 0.0
H1868 H 0.44882 0.56353 0.81942 0.0
H1869 H 0.57051 0.47538 0.77297 0.0
H1870 H 0.5824 0.51382 0.75787 0.0
H1871 H 0.53528 0.48821 0.75694 0.0
C1872 C 0.57146 0.44734 0.22387 0.0
C1873 C 0.60052 0.465 0.21357 0.0
C1874 C 0.53193 0.46072 0.22362 0.0
C1875 C 0.52112 0.49236 0.21273 0.0
C1876 C 0.55019 0.51005 0.20216 0.0
C1877 C 0.58961 0.49623 0.20274 0.0
C1878 C 0.5018 0.44126 0.23514 0.0
C1879 C 0.53968 0.54369 0.19031 0.0
C1880 C 0.41133 0.50406 0.20234 0.0
C1881 C 0.40006 0.53459 0.21345 0.0
C1882 C 0.45079 0.49036 0.20179 0.0
C1883 C 0.47953 0.50744 0.21269 0.0
C1884 C 0.46838 0.5384 0.22387 0.0
C1885 C 0.42881 0.5517 0.22407 0.0
C1886 C 0.46168 0.45747 0.18962 0.0
C1887 C 0.49816 0.55721 0.23575 0.0
H1888 H 0.57964 0.4232 0.23228 0.0
H1889 H 0.61184 0.50985 0.19466 0.0
H1890 H 0.48916 0.46371 0.24392 0.0
H1891 H 0.47675 0.42912 0.22759 0.0
H1892 H 0.51494 0.41671 0.24272 0.0
H1893 H 0.56552 0.55345 0.18258 0.0
H1894 H 0.51536 0.53436 0.18168 0.0
H1895 H 0.5286 0.56956 0.19765 0.0
H1896 H 0.38933 0.49088 0.19401 0.0
H1897 H 0.42035 0.57529 0.23271 0.0
H1898 H 0.47252 0.43115 0.19674 0.0
H1899 H 0.48629 0.46732 0.18125 0.0
H1900 H 0.4361 0.4482 0.18163 0.0
H1901 H 0.51051 0.53426 0.24437 0.0
H1902 H 0.48479 0.58133 0.24351 0.0
H1903 H 0.52344 0.56974 0.22847 0.0
C1904 C 0.44741 0.07089 0.47314 0.0
C1905 C 0.46493 0.09979 0.46271 0.0
C1906 C 0.46064 0.0313 0.47289 0.0
C1907 C 0.49195 0.02028 0.46187 0.0
C1908 C 0.50946 0.04918 0.45116 0.0
C1909 C 0.49582 0.08866 0.45175 0.0
C1910 C 0.44138 0.00137 0.48456 0.0
C1911 C 0.54274 0.03843 0.43916 0.0
C1912 C 0.55138 0.92802 0.47319 0.0
C1913 C 0.53391 0.89913 0.46274 0.0
C1914 C 0.53818 0.96761 0.47293 0.0
C1915 C 0.50695 0.97866 0.46187 0.0
C1916 C 0.48951 0.94978 0.45114 0.0
C1917 C 0.50311 0.91029 0.45174 0.0
C1918 C 0.55736 0.99753 0.48464 0.0
C1919 C 0.45632 0.96056 0.43909 0.0
H1920 H 0.42354 0.07924 0.48165 0.0
H1921 H 0.50932 0.11077 0.44358 0.0
H1922 H 0.42902 0.97625 0.47712 0.0
H1923 H 0.46402 0.98881 0.49328 0.0
H1924 H 0.41703 0.01466 0.49222 0.0
H1925 H 0.55231 0.06412 0.43131 0.0
H1926 H 0.5688 0.02743 0.44641 0.0
H1927 H 0.53312 0.01398 0.43066 0.0
H1928 H 0.57518 0.91965 0.48174 0.0
H1929 H 0.48966 0.88819 0.44354 0.0
H1930 H 0.53467 0.01007 0.49333 0.0
H1931 H 0.56976 0.02267 0.47722 0.0
H1932 H 0.58166 0.98423 0.49231 0.0
H1933 H 0.4302 0.97154 0.4463 0.0
H1934 H 0.44681 0.93488 0.43121 0.0
H1935 H 0.46601 0.98502 0.43061 0.0
C1936 C 0.91069 0.49515 0.54744 0.0
C1937 C 0.89954 0.46453 0.53634 0.0
C1938 C 0.95019 0.50871 0.5481 0.0
C1939 C 0.97909 0.49142 0.53733 0.0
C1940 C 0.96805 0.46038 0.52617 0.0
C1941 C 0.92844 0.44721 0.52586 0.0
C1942 C 0.96095 0.54169 0.56024 0.0
C1943 C 0.99799 0.44137 0.51443 0.0
C1944 C 0.0713 0.55119 0.52629 0.0
C1945 C 0.10019 0.53354 0.53668 0.0
C1946 C 0.03173 0.53791 0.52647 0.0
C1947 C 0.02071 0.50642 0.53739 0.0
C1948 C 0.04959 0.48876 0.54806 0.0
C1949 C 0.08906 0.50246 0.54754 0.0
C1950 C 0.00181 0.55733 0.51483 0.0
C1951 C 0.03884 0.45528 0.55995 0.0
H1952 H 0.88858 0.50848 0.55566 0.0
H1953 H 0.92007 0.42355 0.51724 0.0
H1954 H 0.98541 0.53187 0.5687 0.0
H1955 H 0.97194 0.56793 0.55311 0.0
H1956 H 0.93526 0.55107 0.56815 0.0
H1957 H 0.98469 0.41718 0.50668 0.0
H1958 H 0.01054 0.46419 0.50579 0.0
H1959 H 0.02312 0.42886 0.52182 0.0
H1960 H 0.07965 0.57521 0.51785 0.0
H1961 H 0.11117 0.48885 0.55569 0.0
H1962 H 0.97667 0.56958 0.52229 0.0
H1963 H 0.98927 0.53481 0.50605 0.0
H1964 H 0.01511 0.58178 0.50724 0.0
H1965 H 0.01438 0.46476 0.56849 0.0
H1966 H 0.06453 0.44558 0.56779 0.0
H1967 H 0.02784 0.42935 0.55263 0.0
loop_
_geom_bond_atom_site_label_1
_geom_bond_atom_site_label_2
_geom_bond_distance
_geom_bond_site_symmetry_2
_ccdc_geom_bond_type
Co0 O2 2.143 . S
Co0 O8 2.074 . S
Co0 O11 2.093 . S
Co0 O24 2.097 . S
Co0 N41 2.151 . S
Co0 N49 2.214 . S
Co1 O2 2.160 . S
Co1 O7 2.058 . S
Co1 O17 2.057 . S
Co1 O32 2.037 . S
Co1 N36 2.145 . S
Co1 N57 2.257 . S
O2 Co0 2.143 . S
O2 Co1 2.160 . S
C3 O4 1.278 . S
C3 O11 1.224 . S
O4 C3 1.278 . S
C5 O6 1.245 . S
C5 O17 1.232 . S
O6 C5 1.245 . S
O7 Co1 2.058 . S
O7 C33 1.269 . S
O8 Co0 2.074 . S
O8 C33 1.257 . S
H9 C34 0.930 . S
H10 C40 0.930 . S
O11 Co0 2.093 . S
O11 C3 1.224 . S
H12 C44 0.929 . S
H13 C46 0.930 . S
H14 C47 0.930 . S
H15 C45 0.929 . S
H16 C48 0.928 . S
O17 Co1 2.057 . S
O17 C5 1.232 . S
H18 C37 0.929 . S
H19 C38 0.929 . S
H20 C50 0.931 . S
H21 C42 0.929 . S
H22 C51 0.930 . S
H23 C43 0.931 . S
O24 Co0 2.097 . S
O24 C52 1.214 . S
H25 C53 0.929 . S
H26 C54 0.929 1_655 S
H27 C55 0.930 . S
H28 C56 0.929 . S
H29 C58 0.930 . S
H30 C35 0.930 . S
H31 C39 0.930 . S
O32 Co1 2.037 . S
O32 C52 1.234 . S
C33 O7 1.269 . S
C33 O8 1.257 . S
C34 H9 0.930 . S
C34 C37 1.388 . S
C34 C39 1.418 . S
C35 H30 0.930 . S
C35 C38 1.404 . S
C35 C39 1.353 . S
N36 Co1 2.145 . S
N36 C37 1.397 . S
N36 C38 1.334 . S
C37 H18 0.929 . S
C37 C34 1.388 . S
C37 N36 1.397 . S
C38 H19 0.929 . S
C38 C35 1.404 . S
C38 N36 1.334 . S
C39 H31 0.930 . S
C39 C34 1.418 . S
C39 C35 1.353 . S
C40 H10 0.930 . S
C40 N41 1.330 . S
C40 C42 1.446 . S
N41 Co0 2.151 . S
N41 C40 1.330 . S
N41 C45 1.418 . S
C42 H21 0.929 . S
C42 C40 1.446 . S
C42 C43 1.332 . S
C43 H23 0.931 . S
C43 C42 1.332 . S
C43 C44 1.267 . S
C44 H12 0.929 . S
C44 C43 1.267 . S
C44 C45 1.251 . S
C45 H15 0.929 . S
C45 N41 1.418 . S
C45 C44 1.251 . S
C46 H13 0.930 . S
C46 C48 1.406 . S
C46 C51 1.261 . S
C47 H14 0.930 . S
C47 N49 1.325 . S
C47 C50 1.357 . S
C48 H16 0.928 . S
C48 C46 1.406 . S
C48 N49 1.261 . S
N49 Co0 2.214 . S
N49 C47 1.325 . S
N49 C48 1.261 . S
C50 H20 0.931 . S
C50 C47 1.357 . S
C50 C51 1.312 . S
C51 H22 0.930 . S
C51 C46 1.261 . S
C51 C50 1.312 . S
C52 O24 1.214 . S
C52 O32 1.234 . S
C53 H25 0.929 . S
C53 C56 1.391 1_455 S
C53 C58 1.391 . S
C54 H26 0.929 1_455 S
C54 C55 1.390 1_455 S
C54 N57 1.391 . S
C55 H27 0.930 . S
C55 C54 1.390 1_655 S
C55 C56 1.392 . S
C56 H28 0.929 . S
C56 C53 1.391 1_655 S
C56 C55 1.392 . S
N57 Co1 2.257 . S
N57 C54 1.391 . S
N57 C58 1.388 . S
C58 H29 0.930 . S
C58 C53 1.391 . S
C58 N57 1.388 . S
Co59 O61 2.143 . S
Co59 O67 2.074 . S
Co59 O70 2.093 . S
Co59 O83 2.097 . S
Co59 N100 2.151 . S
Co59 N108 2.214 . S
Co60 O61 2.160 . S
Co60 O66 2.058 . S
Co60 O76 2.057 . S
Co60 O91 2.037 . S
Co60 N95 2.145 . S
Co60 N116 2.257 . S
O61 Co59 2.143 . S
O61 Co60 2.160 . S
C62 O63 1.278 . S
C62 O70 1.224 . S
O63 C62 1.278 . S
C64 O65 1.245 . S
C64 O76 1.232 . S
O65 C64 1.245 . S
O66 Co60 2.058 . S
O66 C92 1.269 . S
O67 Co59 2.074 . S
O67 C92 1.257 . S
H68 C93 0.930 . S
H69 C99 0.930 . S
O70 Co59 2.093 . S
O70 C62 1.224 . S
H71 C103 0.929 . S
H72 C105 0.930 . S
H73 C106 0.930 . S
H74 C104 0.929 . S
H75 C107 0.928 . S
O76 Co60 2.057 . S
O76 C64 1.232 . S
H77 C96 0.929 . S
H78 C97 0.929 . S
H79 C109 0.931 . S
H80 C101 0.929 . S
H81 C110 0.930 . S
H82 C102 0.931 . S
O83 Co59 2.097 . S
O83 C111 1.214 . S
H84 C112 0.929 . S
H85 C113 0.929 1_545 S
H86 C114 0.930 . S
H87 C115 0.929 . S
H88 C117 0.930 . S
H89 C94 0.930 . S
H90 C98 0.930 . S
O91 Co60 2.037 . S
O91 C111 1.234 . S
C92 O66 1.269 . S
C92 O67 1.257 . S
C93 H68 0.930 . S
C93 C96 1.388 . S
C93 C98 1.418 . S
C94 H89 0.930 . S
C94 C97 1.404 . S
C94 C98 1.353 . S
N95 Co60 2.145 . S
N95 C96 1.397 . S
N95 C97 1.334 . S
C96 H77 0.929 . S
C96 C93 1.388 . S
C96 N95 1.397 . S
C97 H78 0.929 . S
C97 C94 1.404 . S
C97 N95 1.334 . S
C98 H90 0.930 . S
C98 C93 1.418 . S
C98 C94 1.353 . S
C99 H69 0.930 . S
C99 N100 1.330 . S
C99 C101 1.446 . S
N100 Co59 2.151 . S
N100 C99 1.330 . S
N100 C104 1.418 . S
C101 H80 0.929 . S
C101 C99 1.446 . S
C101 C102 1.332 . S
C102 H82 0.931 . S
C102 C101 1.332 . S
C102 C103 1.267 . S
C103 H71 0.929 . S
C103 C102 1.267 . S
C103 C104 1.251 . S
C104 H74 0.929 . S
C104 N100 1.418 . S
C104 C103 1.251 . S
C105 H72 0.930 . S
C105 C107 1.406 . S
C105 C110 1.261 . S
C106 H73 0.930 . S
C106 N108 1.325 . S
C106 C109 1.357 . S
C107 H75 0.928 . S
C107 C105 1.406 . S
C107 N108 1.261 . S
N108 Co59 2.214 . S
N108 C106 1.325 . S
N108 C107 1.261 . S
C109 H79 0.931 . S
C109 C106 1.357 . S
C109 C110 1.312 . S
C110 H81 0.930 . S
C110 C105 1.261 . S
C110 C109 1.312 . S
C111 O83 1.214 . S
C111 O91 1.234 . S
C112 H84 0.929 . S
C112 C115 1.391 1_565 S
C112 C117 1.391 . S
C113 H85 0.929 1_565 S
C113 C114 1.390 1_565 S
C113 N116 1.391 . S
C114 H86 0.930 . S
C114 C113 1.390 1_545 S
C114 C115 1.392 . S
C115 H87 0.929 . S
C115 C112 1.391 1_545 S
C115 C114 1.392 . S
N116 Co60 2.257 . S
N116 C113 1.391 . S
N116 C117 1.388 . S
C117 H88 0.930 . S
C117 C112 1.391 . S
C117 N116 1.388 . S
Co118 O120 2.143 . S
Co118 O126 2.074 . S
Co118 O129 2.093 . S
Co118 O142 2.097 . S
Co118 N159 2.151 . S
Co118 N167 2.214 . S
Co119 O120 2.160 . S
Co119 O125 2.058 . S
Co119 O135 2.057 . S
Co119 O150 2.037 . S
Co119 N154 2.145 . S
Co119 N175 2.257 . S
O120 Co118 2.143 . S
O120 Co119 2.160 . S
C121 O122 1.278 . S
C121 O129 1.224 . S
O122 C121 1.278 . S
C123 O124 1.245 . S
C123 O135 1.232 . S
O124 C123 1.245 . S
O125 Co119 2.058 . S
O125 C151 1.269 . S
O126 Co118 2.074 . S
O126 C151 1.257 . S
H127 C152 0.930 . S
H128 C158 0.930 . S
O129 Co118 2.093 . S
O129 C121 1.224 . S
H130 C162 0.929 . S
H131 C164 0.930 . S
H132 C165 0.930 . S
H133 C163 0.929 . S
H134 C166 0.928 . S
O135 Co119 2.057 . S
O135 C123 1.232 . S
H136 C155 0.929 . S
H137 C156 0.929 . S
H138 C168 0.931 . S
H139 C160 0.929 . S
H140 C169 0.930 . S
H141 C161 0.931 . S
O142 Co118 2.097 . S
O142 C170 1.214 . S
H143 C171 0.929 . S
H144 C172 0.929 1_455 S
H145 C173 0.930 . S
H146 C174 0.929 . S
H147 C176 0.930 . S
H148 C153 0.930 . S
H149 C157 0.930 . S
O150 Co119 2.037 . S
O150 C170 1.234 . S
C151 O125 1.269 . S
C151 O126 1.257 . S
C152 H127 0.930 . S
C152 C155 1.388 . S
C152 C157 1.418 . S
C153 H148 0.930 . S
C153 C156 1.404 . S
C153 C157 1.353 . S
N154 Co119 2.145 . S
N154 C155 1.397 . S
N154 C156 1.334 . S
C155 H136 0.929 . S
C155 C152 1.388 . S
C155 N154 1.397 . S
C156 H137 0.929 . S
C156 C153 1.404 . S
C156 N154 1.334 . S
C157 H149 0.930 . S
C157 C152 1.418 . S
C157 C153 1.353 . S
C158 H128 0.930 . S
C158 N159 1.330 . S
C158 C160 1.446 . S
N159 Co118 2.151 . S
N159 C158 1.330 . S
N159 C163 1.418 . S
C160 H139 0.929 . S
C160 C158 1.446 . S
C160 C161 1.332 . S
C161 H141 0.931 . S
C161 C160 1.332 . S
C161 C162 1.267 . S
C162 H130 0.929 . S
C162 C161 1.267 . S
C162 C163 1.251 . S
C163 H133 0.929 . S
C163 N159 1.418 . S
C163 C162 1.251 . S
C164 H131 0.930 . S
C164 C166 1.406 . S
C164 C169 1.261 . S
C165 H132 0.930 . S
C165 N167 1.325 . S
C165 C168 1.357 . S
C166 H134 0.928 . S
C166 C164 1.406 . S
C166 N167 1.261 . S
N167 Co118 2.214 . S
N167 C165 1.325 . S
N167 C166 1.261 . S
C168 H138 0.931 . S
C168 C165 1.357 . S
C168 C169 1.312 . S
C169 H140 0.930 . S
C169 C164 1.261 . S
C169 C168 1.312 . S
C170 O142 1.214 . S
C170 O150 1.234 . S
C171 H143 0.929 . S
C171 C174 1.391 1_655 S
C171 C176 1.391 . S
C172 H144 0.929 1_655 S
C172 C173 1.390 1_655 S
C172 N175 1.391 . S
C173 H145 0.930 . S
C173 C172 1.390 1_455 S
C173 C174 1.392 . S
C174 H146 0.929 . S
C174 C171 1.391 1_455 S
C174 C173 1.392 . S
N175 Co119 2.257 . S
N175 C172 1.391 . S
N175 C176 1.388 . S
C176 H147 0.930 . S
C176 C171 1.391 . S
C176 N175 1.388 . S
Co177 O179 2.143 . S
Co177 O185 2.074 . S
Co177 O188 2.093 . S
Co177 O201 2.097 . S
Co177 N218 2.151 . S
Co177 N226 2.214 . S
Co178 O179 2.160 . S
Co178 O184 2.058 . S
Co178 O194 2.057 . S
Co178 O209 2.037 . S
Co178 N213 2.145 . S
Co178 N234 2.257 . S
O179 Co177 2.143 . S
O179 Co178 2.160 . S
C180 O181 1.278 . S
C180 O188 1.224 . S
O181 C180 1.278 . S
C182 O183 1.245 . S
C182 O194 1.232 . S
O183 C182 1.245 . S
O184 Co178 2.058 . S
O184 C210 1.269 . S
O185 Co177 2.074 . S
O185 C210 1.257 . S
H186 C211 0.930 . S
H187 C217 0.930 . S
O188 Co177 2.093 . S
O188 C180 1.224 . S
H189 C221 0.929 . S
H190 C223 0.930 . S
H191 C224 0.930 . S
H192 C222 0.929 . S
H193 C225 0.928 . S
O194 Co178 2.057 . S
O194 C182 1.232 . S
H195 C214 0.929 . S
H196 C215 0.929 . S
H197 C227 0.931 . S
H198 C219 0.929 . S
H199 C228 0.930 . S
H200 C220 0.931 . S
O201 Co177 2.097 . S
O201 C229 1.214 . S
H202 C230 0.929 . S
H203 C231 0.929 1_565 S
H204 C232 0.930 . S
H205 C233 0.929 . S
H206 C235 0.930 . S
H207 C212 0.930 . S
H208 C216 0.930 . S
O209 Co178 2.037 . S
O209 C229 1.234 . S
C210 O184 1.269 . S
C210 O185 1.257 . S
C211 H186 0.930 . S
C211 C214 1.388 . S
C211 C216 1.418 . S
C212 H207 0.930 . S
C212 C215 1.404 . S
C212 C216 1.353 . S
N213 Co178 2.145 . S
N213 C214 1.397 . S
N213 C215 1.334 . S
C214 H195 0.929 . S
C214 C211 1.388 . S
C214 N213 1.397 . S
C215 H196 0.929 . S
C215 C212 1.404 . S
C215 N213 1.334 . S
C216 H208 0.930 . S
C216 C211 1.418 . S
C216 C212 1.353 . S
C217 H187 0.930 . S
C217 N218 1.330 . S
C217 C219 1.446 . S
N218 Co177 2.151 . S
N218 C217 1.330 . S
N218 C222 1.418 . S
C219 H198 0.929 . S
C219 C217 1.446 . S
C219 C220 1.332 . S
C220 H200 0.931 . S
C220 C219 1.332 . S
C220 C221 1.267 . S
C221 H189 0.929 . S
C221 C220 1.267 . S
C221 C222 1.251 . S
C222 H192 0.929 . S
C222 N218 1.418 . S
C222 C221 1.251 . S
C223 H190 0.930 . S
C223 C225 1.406 . S
C223 C228 1.261 . S
C224 H191 0.930 . S
C224 N226 1.325 . S
C224 C227 1.357 . S
C225 H193 0.928 . S
C225 C223 1.406 . S
C225 N226 1.261 . S
N226 Co177 2.214 . S
N226 C224 1.325 . S
N226 C225 1.261 . S
C227 H197 0.931 . S
C227 C224 1.357 . S
C227 C228 1.312 . S
C228 H199 0.930 . S
C228 C223 1.261 . S
C228 C227 1.312 . S
C229 O201 1.214 . S
C229 O209 1.234 . S
C230 H202 0.929 . S
C230 C233 1.391 1_545 S
C230 C235 1.391 . S
C231 H203 0.929 1_545 S
C231 C232 1.390 1_545 S
C231 N234 1.391 . S
C232 H204 0.930 . S
C232 C231 1.390 1_565 S
C232 C233 1.392 . S
C233 H205 0.929 . S
C233 C230 1.391 1_565 S
C233 C232 1.392 . S
N234 Co178 2.257 . S
N234 C231 1.391 . S
N234 C235 1.388 . S
C235 H206 0.930 . S
C235 C230 1.391 . S
C235 N234 1.388 . S
Co236 O238 2.143 . S
Co236 O244 2.074 . S
Co236 O247 2.093 . S
Co236 O260 2.097 . S
Co236 N277 2.151 . S
Co236 N285 2.214 1_556 S
Co237 O238 2.160 . S
Co237 O243 2.058 . S
Co237 O253 2.057 . S
Co237 O268 2.037 . S
Co237 N272 2.145 . S
Co237 N293 2.257 . S
O238 Co236 2.143 . S
O238 Co237 2.160 . S
C239 O240 1.278 . S
C239 O247 1.224 . S
O240 C239 1.278 . S
C241 O242 1.245 . S
C241 O253 1.232 . S
O242 C241 1.245 . S
O243 Co237 2.058 . S
O243 C269 1.269 . S
O244 Co236 2.074 . S
O244 C269 1.257 . S
H245 C270 0.930 . S
H246 C276 0.930 . S
O247 Co236 2.093 . S
O247 C239 1.224 . S
H248 C280 0.929 . S
H249 C282 0.930 . S
H250 C283 0.930 . S
H251 C281 0.929 1_554 S
H252 C284 0.928 . S
O253 Co237 2.057 . S
O253 C241 1.232 . S
H254 C273 0.929 . S
H255 C274 0.929 . S
H256 C286 0.931 . S
H257 C278 0.929 . S
H258 C287 0.930 . S
H259 C279 0.931 . S
O260 Co236 2.097 . S
O260 C288 1.214 . S
H261 C289 0.929 . S
H262 C290 0.929 1_655 S
H263 C291 0.930 . S
H264 C292 0.929 . S
H265 C294 0.930 . S
H266 C271 0.930 . S
H267 C275 0.930 . S
O268 Co237 2.037 . S
O268 C288 1.234 . S
C269 O243 1.269 . S
C269 O244 1.257 . S
C270 H245 0.930 . S
C270 C273 1.388 . S
C270 C275 1.418 . S
C271 H266 0.930 . S
C271 C274 1.404 . S
C271 C275 1.353 . S
N272 Co237 2.145 . S
N272 C273 1.397 . S
N272 C274 1.334 . S
C273 H254 0.929 . S
C273 C270 1.388 . S
C273 N272 1.397 . S
C274 H255 0.929 . S
C274 C271 1.404 . S
C274 N272 1.334 . S
C275 H267 0.930 . S
C275 C270 1.418 . S
C275 C271 1.353 . S
C276 H246 0.930 . S
C276 N277 1.330 . S
C276 C278 1.446 . S
N277 Co236 2.151 . S
N277 C276 1.330 . S
N277 C281 1.418 . S
C278 H257 0.929 . S
C278 C276 1.446 . S
C278 C279 1.332 . S
C279 H259 0.931 . S
C279 C278 1.332 . S
C279 C280 1.267 1_556 S
C280 H248 0.929 . S
C280 C279 1.267 1_554 S
C280 C281 1.251 1_554 S
C281 H251 0.929 1_556 S
C281 N277 1.418 . S
C281 C280 1.251 1_556 S
C282 H249 0.930 . S
C282 C284 1.406 . S
C282 C287 1.261 . S
C283 H250 0.930 . S
C283 N285 1.325 . S
C283 C286 1.357 . S
C284 H252 0.928 . S
C284 C282 1.406 . S
C284 N285 1.261 . S
N285 Co236 2.214 1_554 S
N285 C283 1.325 . S
N285 C284 1.261 . S
C286 H256 0.931 . S
C286 C283 1.357 . S
C286 C287 1.312 . S
C287 H258 0.930 . S
C287 C282 1.261 . S
C287 C286 1.312 . S
C288 O260 1.214 . S
C288 O268 1.234 . S
C289 H261 0.929 . S
C289 C292 1.391 1_455 S
C289 C294 1.391 . S
C290 H262 0.929 1_455 S
C290 C291 1.390 1_455 S
C290 N293 1.391 . S
C291 H263 0.930 . S
C291 C290 1.390 1_655 S
C291 C292 1.392 . S
C292 H264 0.929 . S
C292 C289 1.391 1_655 S
C292 C291 1.392 . S
N293 Co237 2.257 . S
N293 C290 1.391 . S
N293 C294 1.388 . S
C294 H265 0.930 . S
C294 C289 1.391 . S
C294 N293 1.388 . S
Co295 O297 2.143 . S
Co295 O303 2.074 . S
Co295 O306 2.093 . S
Co295 O319 2.097 . S
Co295 N336 2.151 . S
Co295 N344 2.214 1_554 S
Co296 O297 2.160 . S
Co296 O302 2.058 . S
Co296 O312 2.057 . S
Co296 O327 2.037 . S
Co296 N331 2.145 . S
Co296 N352 2.257 . S
O297 Co295 2.143 . S
O297 Co296 2.160 . S
C298 O299 1.278 . S
C298 O306 1.224 . S
O299 C298 1.278 . S
C300 O301 1.245 . S
C300 O312 1.232 . S
O301 C300 1.245 . S
O302 Co296 2.058 . S
O302 C328 1.269 . S
O303 Co295 2.074 . S
O303 C328 1.257 . S
H304 C329 0.930 . S
H305 C335 0.930 . S
O306 Co295 2.093 . S
O306 C298 1.224 . S
H307 C339 0.929 . S
H308 C341 0.930 . S
H309 C342 0.930 . S
H310 C340 0.929 1_556 S
H311 C343 0.928 . S
O312 Co296 2.057 . S
O312 C300 1.232 . S
H313 C332 0.929 . S
H314 C333 0.929 . S
H315 C345 0.931 . S
H316 C337 0.929 . S
H317 C346 0.930 . S
H318 C338 0.931 . S
O319 Co295 2.097 . S
O319 C347 1.214 . S
H320 C348 0.929 . S
H321 C349 0.929 1_545 S
H322 C350 0.930 . S
H323 C351 0.929 . S
H324 C353 0.930 . S
H325 C330 0.930 . S
H326 C334 0.930 . S
O327 Co296 2.037 . S
O327 C347 1.234 . S
C328 O302 1.269 . S
C328 O303 1.257 . S
C329 H304 0.930 . S
C329 C332 1.388 . S
C329 C334 1.418 . S
C330 H325 0.930 . S
C330 C333 1.404 . S
C330 C334 1.353 . S
N331 Co296 2.145 . S
N331 C332 1.397 . S
N331 C333 1.334 . S
C332 H313 0.929 . S
C332 C329 1.388 . S
C332 N331 1.397 . S
C333 H314 0.929 . S
C333 C330 1.404 . S
C333 N331 1.334 . S
C334 H326 0.930 . S
C334 C329 1.418 . S
C334 C330 1.353 . S
C335 H305 0.930 . S
C335 N336 1.330 . S
C335 C337 1.446 . S
N336 Co295 2.151 . S
N336 C335 1.330 . S
N336 C340 1.418 . S
C337 H316 0.929 . S
C337 C335 1.446 . S
C337 C338 1.332 . S
C338 H318 0.931 . S
C338 C337 1.332 . S
C338 C339 1.267 1_554 S
C339 H307 0.929 . S
C339 C338 1.267 1_556 S
C339 C340 1.251 1_556 S
C340 H310 0.929 1_554 S
C340 N336 1.418 . S
C340 C339 1.251 1_554 S
C341 H308 0.930 . S
C341 C343 1.406 . S
C341 C346 1.261 . S
C342 H309 0.930 . S
C342 N344 1.325 . S
C342 C345 1.357 . S
C343 H311 0.928 . S
C343 C341 1.406 . S
C343 N344 1.261 . S
N344 Co295 2.214 1_556 S
N344 C342 1.325 . S
N344 C343 1.261 . S
C345 H315 0.931 . S
C345 C342 1.357 . S
C345 C346 1.312 . S
C346 H317 0.930 . S
C346 C341 1.261 . S
C346 C345 1.312 . S
C347 O319 1.214 . S
C347 O327 1.234 . S
C348 H320 0.929 . S
C348 C351 1.391 1_565 S
C348 C353 1.391 . S
C349 H321 0.929 1_565 S
C349 C350 1.390 1_565 S
C349 N352 1.391 . S
C350 H322 0.930 . S
C350 C349 1.390 1_545 S
C350 C351 1.392 . S
C351 H323 0.929 . S
C351 C348 1.391 1_545 S
C351 C350 1.392 . S
N352 Co296 2.257 . S
N352 C349 1.391 . S
N352 C353 1.388 . S
C353 H324 0.930 . S
C353 C348 1.391 . S
C353 N352 1.388 . S
Co354 O356 2.143 . S
Co354 O362 2.074 . S
Co354 O365 2.093 . S
Co354 O378 2.097 . S
Co354 N395 2.151 . S
Co354 N403 2.214 1_556 S
Co355 O356 2.160 . S
Co355 O361 2.058 . S
Co355 O371 2.057 . S
Co355 O386 2.037 . S
Co355 N390 2.145 . S
Co355 N411 2.257 . S
O356 Co354 2.143 . S
O356 Co355 2.160 . S
C357 O358 1.278 . S
C357 O365 1.224 . S
O358 C357 1.278 . S
C359 O360 1.245 . S
C359 O371 1.232 . S
O360 C359 1.245 . S
O361 Co355 2.058 . S
O361 C387 1.269 . S
O362 Co354 2.074 . S
O362 C387 1.257 . S
H363 C388 0.930 . S
H364 C394 0.930 . S
O365 Co354 2.093 . S
O365 C357 1.224 . S
H366 C398 0.929 . S
H367 C400 0.930 . S
H368 C401 0.930 . S
H369 C399 0.929 1_554 S
H370 C402 0.928 . S
O371 Co355 2.057 . S
O371 C359 1.232 . S
H372 C391 0.929 . S
H373 C392 0.929 . S
H374 C404 0.931 . S
H375 C396 0.929 . S
H376 C405 0.930 . S
H377 C397 0.931 . S
O378 Co354 2.097 . S
O378 C406 1.214 . S
H379 C407 0.929 . S
H380 C408 0.929 1_455 S
H381 C409 0.930 . S
H382 C410 0.929 . S
H383 C412 0.930 . S
H384 C389 0.930 . S
H385 C393 0.930 . S
O386 Co355 2.037 . S
O386 C406 1.234 . S
C387 O361 1.269 . S
C387 O362 1.257 . S
C388 H363 0.930 . S
C388 C391 1.388 . S
C388 C393 1.418 . S
C389 H384 0.930 . S
C389 C392 1.404 . S
C389 C393 1.353 . S
N390 Co355 2.145 . S
N390 C391 1.397 . S
N390 C392 1.334 . S
C391 H372 0.929 . S
C391 C388 1.388 . S
C391 N390 1.397 . S
C392 H373 0.929 . S
C392 C389 1.404 . S
C392 N390 1.334 . S
C393 H385 0.930 . S
C393 C388 1.418 . S
C393 C389 1.353 . S
C394 H364 0.930 . S
C394 N395 1.330 . S
C394 C396 1.446 . S
N395 Co354 2.151 . S
N395 C394 1.330 . S
N395 C399 1.418 . S
C396 H375 0.929 . S
C396 C394 1.446 . S
C396 C397 1.332 . S
C397 H377 0.931 . S
C397 C396 1.332 . S
C397 C398 1.267 1_556 S
C398 H366 0.929 . S
C398 C397 1.267 1_554 S
C398 C399 1.251 1_554 S
C399 H369 0.929 1_556 S
C399 N395 1.418 . S
C399 C398 1.251 1_556 S
C400 H367 0.930 . S
C400 C402 1.406 . S
C400 C405 1.261 . S
C401 H368 0.930 . S
C401 N403 1.325 . S
C401 C404 1.357 . S
C402 H370 0.928 . S
C402 C400 1.406 . S
C402 N403 1.261 . S
N403 Co354 2.214 1_554 S
N403 C401 1.325 . S
N403 C402 1.261 . S
C404 H374 0.931 . S
C404 C401 1.357 . S
C404 C405 1.312 . S
C405 H376 0.930 . S
C405 C400 1.261 . S
C405 C404 1.312 . S
C406 O378 1.214 . S
C406 O386 1.234 . S
C407 H379 0.929 . S
C407 C410 1.391 1_655 S
C407 C412 1.391 . S
C408 H380 0.929 1_655 S
C408 C409 1.390 1_655 S
C408 N411 1.391 . S
C409 H381 0.930 . S
C409 C408 1.390 1_455 S
C409 C410 1.392 . S
C410 H382 0.929 . S
C410 C407 1.391 1_455 S
C410 C409 1.392 . S
N411 Co355 2.257 . S
N411 C408 1.391 . S
N411 C412 1.388 . S
C412 H383 0.930 . S
C412 C407 1.391 . S
C412 N411 1.388 . S
Co413 O415 2.143 . S
Co413 O421 2.074 . S
Co413 O424 2.093 . S
Co413 O437 2.097 . S
Co413 N454 2.151 . S
Co413 N462 2.214 1_554 S
Co414 O415 2.160 . S
Co414 O420 2.058 . S
Co414 O430 2.057 . S
Co414 O445 2.037 . S
Co414 N449 2.145 . S
Co414 N470 2.257 . S
O415 Co413 2.143 . S
O415 Co414 2.160 . S
C416 O417 1.278 . S
C416 O424 1.224 . S
O417 C416 1.278 . S
C418 O419 1.245 . S
C418 O430 1.232 . S
O419 C418 1.245 . S
O420 Co414 2.058 . S
O420 C446 1.269 . S
O421 Co413 2.074 . S
O421 C446 1.257 . S
H422 C447 0.930 . S
H423 C453 0.930 . S
O424 Co413 2.093 . S
O424 C416 1.224 . S
H425 C457 0.929 . S
H426 C459 0.930 . S
H427 C460 0.930 . S
H428 C458 0.929 1_556 S
H429 C461 0.928 . S
O430 Co414 2.057 . S
O430 C418 1.232 . S
H431 C450 0.929 . S
H432 C451 0.929 . S
H433 C463 0.931 . S
H434 C455 0.929 . S
H435 C464 0.930 . S
H436 C456 0.931 . S
O437 Co413 2.097 . S
O437 C465 1.214 . S
H438 C466 0.929 . S
H439 C467 0.929 1_565 S
H440 C468 0.930 . S
H441 C469 0.929 . S
H442 C471 0.930 . S
H443 C448 0.930 . S
H444 C452 0.930 . S
O445 Co414 2.037 . S
O445 C465 1.234 . S
C446 O420 1.269 . S
C446 O421 1.257 . S
C447 H422 0.930 . S
C447 C450 1.388 . S
C447 C452 1.418 . S
C448 H443 0.930 . S
C448 C451 1.404 . S
C448 C452 1.353 . S
N449 Co414 2.145 . S
N449 C450 1.397 . S
N449 C451 1.334 . S
C450 H431 0.929 . S
C450 C447 1.388 . S
C450 N449 1.397 . S
C451 H432 0.929 . S
C451 C448 1.404 . S
C451 N449 1.334 . S
C452 H444 0.930 . S
C452 C447 1.418 . S
C452 C448 1.353 . S
C453 H423 0.930 . S
C453 N454 1.330 . S
C453 C455 1.446 . S
N454 Co413 2.151 . S
N454 C453 1.330 . S
N454 C458 1.418 . S
C455 H434 0.929 . S
C455 C453 1.446 . S
C455 C456 1.332 . S
C456 H436 0.931 . S
C456 C455 1.332 . S
C456 C457 1.267 1_554 S
C457 H425 0.929 . S
C457 C456 1.267 1_556 S
C457 C458 1.251 1_556 S
C458 H428 0.929 1_554 S
C458 N454 1.418 . S
C458 C457 1.251 1_554 S
C459 H426 0.930 . S
C459 C461 1.406 . S
C459 C464 1.261 . S
C460 H427 0.930 . S
C460 N462 1.325 . S
C460 C463 1.357 . S
C461 H429 0.928 . S
C461 C459 1.406 . S
C461 N462 1.261 . S
N462 Co413 2.214 1_556 S
N462 C460 1.325 . S
N462 C461 1.261 . S
C463 H433 0.931 . S
C463 C460 1.357 . S
C463 C464 1.312 . S
C464 H435 0.930 . S
C464 C459 1.261 . S
C464 C463 1.312 . S
C465 O437 1.214 . S
C465 O445 1.234 . S
C466 H438 0.929 . S
C466 C469 1.391 1_545 S
C466 C471 1.391 . S
C467 H439 0.929 1_545 S
C467 C468 1.390 1_545 S
C467 N470 1.391 . S
C468 H440 0.930 . S
C468 C467 1.390 1_565 S
C468 C469 1.392 . S
C469 H441 0.929 . S
C469 C466 1.391 1_565 S
C469 C468 1.392 . S
N470 Co414 2.257 . S
N470 C467 1.391 . S
N470 C471 1.388 . S
C471 H442 0.930 . S
C471 C466 1.391 . S
C471 N470 1.388 . S
Co472 O474 2.143 . S
Co472 O480 2.074 . S
Co472 O483 2.093 . S
Co472 O496 2.097 . S
Co472 N513 2.151 . S
Co472 N521 2.214 . S
Co473 O474 2.160 . S
Co473 O479 2.058 . S
Co473 O489 2.057 . S
Co473 O504 2.037 . S
Co473 N508 2.145 . S
Co473 N529 2.257 . S
O474 Co472 2.143 . S
O474 Co473 2.160 . S
C475 O476 1.278 . S
C475 O483 1.224 . S
O476 C475 1.278 . S
C477 O478 1.245 . S
C477 O489 1.232 . S
O478 C477 1.245 . S
O479 Co473 2.058 . S
O479 C505 1.269 . S
O480 Co472 2.074 . S
O480 C505 1.257 . S
H481 C506 0.930 . S
H482 C512 0.930 . S
O483 Co472 2.093 . S
O483 C475 1.224 . S
H484 C516 0.929 . S
H485 C518 0.930 . S
H486 C519 0.930 . S
H487 C517 0.929 . S
H488 C520 0.928 . S
O489 Co473 2.057 . S
O489 C477 1.232 . S
H490 C509 0.929 . S
H491 C510 0.929 . S
H492 C522 0.931 . S
H493 C514 0.929 . S
H494 C523 0.930 . S
H495 C515 0.931 . S
O496 Co472 2.097 . S
O496 C524 1.214 . S
H497 C525 0.929 . S
H498 C526 0.929 . S
H499 C527 0.930 . S
H500 C528 0.929 . S
H501 C530 0.930 . S
H502 C507 0.930 . S
H503 C511 0.930 . S
O504 Co473 2.037 . S
O504 C524 1.234 . S
C505 O479 1.269 . S
C505 O480 1.257 . S
C506 H481 0.930 . S
C506 C509 1.388 . S
C506 C511 1.418 . S
C507 H502 0.930 . S
C507 C510 1.404 . S
C507 C511 1.353 . S
N508 Co473 2.145 . S
N508 C509 1.397 . S
N508 C510 1.334 . S
C509 H490 0.929 . S
C509 C506 1.388 . S
C509 N508 1.397 . S
C510 H491 0.929 . S
C510 C507 1.404 . S
C510 N508 1.334 . S
C511 H503 0.930 . S
C511 C506 1.418 . S
C511 C507 1.353 . S
C512 H482 0.930 . S
C512 N513 1.330 . S
C512 C514 1.446 . S
N513 Co472 2.151 . S
N513 C512 1.330 . S
N513 C517 1.418 . S
C514 H493 0.929 . S
C514 C512 1.446 . S
C514 C515 1.332 . S
C515 H495 0.931 . S
C515 C514 1.332 . S
C515 C516 1.267 . S
C516 H484 0.929 . S
C516 C515 1.267 . S
C516 C517 1.251 . S
C517 H487 0.929 . S
C517 N513 1.418 . S
C517 C516 1.251 . S
C518 H485 0.930 . S
C518 C520 1.406 . S
C518 C523 1.261 . S
C519 H486 0.930 . S
C519 N521 1.325 . S
C519 C522 1.357 . S
C520 H488 0.928 . S
C520 C518 1.406 . S
C520 N521 1.261 . S
N521 Co472 2.214 . S
N521 C519 1.325 . S
N521 C520 1.261 . S
C522 H492 0.931 . S
C522 C519 1.357 . S
C522 C523 1.312 . S
C523 H494 0.930 . S
C523 C518 1.261 . S
C523 C522 1.312 . S
C524 O496 1.214 . S
C524 O504 1.234 . S
C525 H497 0.929 . S
C525 C528 1.391 . S
C525 C530 1.391 . S
C526 H498 0.929 . S
C526 C527 1.390 . S
C526 N529 1.391 . S
C527 H499 0.930 . S
C527 C526 1.390 . S
C527 C528 1.392 . S
C528 H500 0.929 . S
C528 C525 1.391 . S
C528 C527 1.392 . S
N529 Co473 2.257 . S
N529 C526 1.391 . S
N529 C530 1.388 . S
C530 H501 0.930 . S
C530 C525 1.391 . S
C530 N529 1.388 . S
Co531 O533 2.143 . S
Co531 O539 2.074 . S
Co531 O542 2.093 . S
Co531 O555 2.097 . S
Co531 N572 2.151 . S
Co531 N580 2.214 . S
Co532 O533 2.160 . S
Co532 O538 2.058 . S
Co532 O548 2.057 . S
Co532 O563 2.037 . S
Co532 N567 2.145 . S
Co532 N588 2.257 . S
O533 Co531 2.143 . S
O533 Co532 2.160 . S
C534 O535 1.278 . S
C534 O542 1.224 . S
O535 C534 1.278 . S
C536 O537 1.245 . S
C536 O548 1.232 . S
O537 C536 1.245 . S
O538 Co532 2.058 . S
O538 C564 1.269 . S
O539 Co531 2.074 . S
O539 C564 1.257 . S
H540 C565 0.930 . S
H541 C571 0.930 . S
O542 Co531 2.093 . S
O542 C534 1.224 . S
H543 C575 0.929 . S
H544 C577 0.930 . S
H545 C578 0.930 . S
H546 C576 0.929 . S
H547 C579 0.928 . S
O548 Co532 2.057 . S
O548 C536 1.232 . S
H549 C568 0.929 . S
H550 C569 0.929 . S
H551 C581 0.931 . S
H552 C573 0.929 . S
H553 C582 0.930 . S
H554 C574 0.931 . S
O555 Co531 2.097 . S
O555 C583 1.214 . S
H556 C584 0.929 . S
H557 C585 0.929 . S
H558 C586 0.930 . S
H559 C587 0.929 . S
H560 C589 0.930 . S
H561 C566 0.930 . S
H562 C570 0.930 . S
O563 Co532 2.037 . S
O563 C583 1.234 . S
C564 O538 1.269 . S
C564 O539 1.257 . S
C565 H540 0.930 . S
C565 C568 1.388 . S
C565 C570 1.418 . S
C566 H561 0.930 . S
C566 C569 1.404 . S
C566 C570 1.353 . S
N567 Co532 2.145 . S
N567 C568 1.397 . S
N567 C569 1.334 . S
C568 H549 0.929 . S
C568 C565 1.388 . S
C568 N567 1.397 . S
C569 H550 0.929 . S
C569 C566 1.404 . S
C569 N567 1.334 . S
C570 H562 0.930 . S
C570 C565 1.418 . S
C570 C566 1.353 . S
C571 H541 0.930 . S
C571 N572 1.330 . S
C571 C573 1.446 . S
N572 Co531 2.151 . S
N572 C571 1.330 . S
N572 C576 1.418 . S
C573 H552 0.929 . S
C573 C571 1.446 . S
C573 C574 1.332 . S
C574 H554 0.931 . S
C574 C573 1.332 . S
C574 C575 1.267 . S
C575 H543 0.929 . S
C575 C574 1.267 . S
C575 C576 1.251 . S
C576 H546 0.929 . S
C576 N572 1.418 . S
C576 C575 1.251 . S
C577 H544 0.930 . S
C577 C579 1.406 . S
C577 C582 1.261 . S
C578 H545 0.930 . S
C578 N580 1.325 . S
C578 C581 1.357 . S
C579 H547 0.928 . S
C579 C577 1.406 . S
C579 N580 1.261 . S
N580 Co531 2.214 . S
N580 C578 1.325 . S
N580 C579 1.261 . S
C581 H551 0.931 . S
C581 C578 1.357 . S
C581 C582 1.312 . S
C582 H553 0.930 . S
C582 C577 1.261 . S
C582 C581 1.312 . S
C583 O555 1.214 . S
C583 O563 1.234 . S
C584 H556 0.929 . S
C584 C587 1.391 . S
C584 C589 1.391 . S
C585 H557 0.929 . S
C585 C586 1.390 . S
C585 N588 1.391 . S
C586 H558 0.930 . S
C586 C585 1.390 . S
C586 C587 1.392 . S
C587 H559 0.929 . S
C587 C584 1.391 . S
C587 C586 1.392 . S
N588 Co532 2.257 . S
N588 C585 1.391 . S
N588 C589 1.388 . S
C589 H560 0.930 . S
C589 C584 1.391 . S
C589 N588 1.388 . S
Co590 O592 2.143 . S
Co590 O598 2.074 . S
Co590 O601 2.093 . S
Co590 O614 2.097 . S
Co590 N631 2.151 . S
Co590 N639 2.214 . S
Co591 O592 2.160 . S
Co591 O597 2.058 . S
Co591 O607 2.057 . S
Co591 O622 2.037 . S
Co591 N626 2.145 . S
Co591 N647 2.257 . S
O592 Co590 2.143 . S
O592 Co591 2.160 . S
C593 O594 1.278 . S
C593 O601 1.224 . S
O594 C593 1.278 . S
C595 O596 1.245 . S
C595 O607 1.232 . S
O596 C595 1.245 . S
O597 Co591 2.058 . S
O597 C623 1.269 . S
O598 Co590 2.074 . S
O598 C623 1.257 . S
H599 C624 0.930 . S
H600 C630 0.930 . S
O601 Co590 2.093 . S
O601 C593 1.224 . S
H602 C634 0.929 . S
H603 C636 0.930 . S
H604 C637 0.930 . S
H605 C635 0.929 . S
H606 C638 0.928 . S
O607 Co591 2.057 . S
O607 C595 1.232 . S
H608 C627 0.929 . S
H609 C628 0.929 . S
H610 C640 0.931 . S
H611 C632 0.929 . S
H612 C641 0.930 . S
H613 C633 0.931 . S
O614 Co590 2.097 . S
O614 C642 1.214 . S
H615 C643 0.929 . S
H616 C644 0.929 . S
H617 C645 0.930 . S
H618 C646 0.929 . S
H619 C648 0.930 . S
H620 C625 0.930 . S
H621 C629 0.930 . S
O622 Co591 2.037 . S
O622 C642 1.234 . S
C623 O597 1.269 . S
C623 O598 1.257 . S
C624 H599 0.930 . S
C624 C627 1.388 . S
C624 C629 1.418 . S
C625 H620 0.930 . S
C625 C628 1.404 . S
C625 C629 1.353 . S
N626 Co591 2.145 . S
N626 C627 1.397 . S
N626 C628 1.334 . S
C627 H608 0.929 . S
C627 C624 1.388 . S
C627 N626 1.397 . S
C628 H609 0.929 . S
C628 C625 1.404 . S
C628 N626 1.334 . S
C629 H621 0.930 . S
C629 C624 1.418 . S
C629 C625 1.353 . S
C630 H600 0.930 . S
C630 N631 1.330 . S
C630 C632 1.446 . S
N631 Co590 2.151 . S
N631 C630 1.330 . S
N631 C635 1.418 . S
C632 H611 0.929 . S
C632 C630 1.446 . S
C632 C633 1.332 . S
C633 H613 0.931 . S
C633 C632 1.332 . S
C633 C634 1.267 . S
C634 H602 0.929 . S
C634 C633 1.267 . S
C634 C635 1.251 . S
C635 H605 0.929 . S
C635 N631 1.418 . S
C635 C634 1.251 . S
C636 H603 0.930 . S
C636 C638 1.406 . S
C636 C641 1.261 . S
C637 H604 0.930 . S
C637 N639 1.325 . S
C637 C640 1.357 . S
C638 H606 0.928 . S
C638 C636 1.406 . S
C638 N639 1.261 . S
N639 Co590 2.214 . S
N639 C637 1.325 . S
N639 C638 1.261 . S
C640 H610 0.931 . S
C640 C637 1.357 . S
C640 C641 1.312 . S
C641 H612 0.930 . S
C641 C636 1.261 . S
C641 C640 1.312 . S
C642 O614 1.214 . S
C642 O622 1.234 . S
C643 H615 0.929 . S
C643 C646 1.391 . S
C643 C648 1.391 . S
C644 H616 0.929 . S
C644 C645 1.390 . S
C644 N647 1.391 . S
C645 H617 0.930 . S
C645 C644 1.390 . S
C645 C646 1.392 . S
C646 H618 0.929 . S
C646 C643 1.391 . S
C646 C645 1.392 . S
N647 Co591 2.257 . S
N647 C644 1.391 . S
N647 C648 1.388 . S
C648 H619 0.930 . S
C648 C643 1.391 . S
C648 N647 1.388 . S
Co649 O651 2.143 . S
Co649 O657 2.074 . S
Co649 O660 2.093 . S
Co649 O673 2.097 . S
Co649 N690 2.151 . S
Co649 N698 2.214 . S
Co650 O651 2.160 . S
Co650 O656 2.058 . S
Co650 O666 2.057 . S
Co650 O681 2.037 . S
Co650 N685 2.145 . S
Co650 N706 2.257 . S
O651 Co649 2.143 . S
O651 Co650 2.160 . S
C652 O653 1.278 . S
C652 O660 1.224 . S
O653 C652 1.278 . S
C654 O655 1.245 . S
C654 O666 1.232 . S
O655 C654 1.245 . S
O656 Co650 2.058 . S
O656 C682 1.269 . S
O657 Co649 2.074 . S
O657 C682 1.257 . S
H658 C683 0.930 . S
H659 C689 0.930 . S
O660 Co649 2.093 . S
O660 C652 1.224 . S
H661 C693 0.929 . S
H662 C695 0.930 . S
H663 C696 0.930 . S
H664 C694 0.929 . S
H665 C697 0.928 . S
O666 Co650 2.057 . S
O666 C654 1.232 . S
H667 C686 0.929 . S
H668 C687 0.929 . S
H669 C699 0.931 . S
H670 C691 0.929 . S
H671 C700 0.930 . S
H672 C692 0.931 . S
O673 Co649 2.097 . S
O673 C701 1.214 . S
H674 C702 0.929 . S
H675 C703 0.929 . S
H676 C704 0.930 . S
H677 C705 0.929 . S
H678 C707 0.930 . S
H679 C684 0.930 . S
H680 C688 0.930 . S
O681 Co650 2.037 . S
O681 C701 1.234 . S
C682 O656 1.269 . S
C682 O657 1.257 . S
C683 H658 0.930 . S
C683 C686 1.388 . S
C683 C688 1.418 . S
C684 H679 0.930 . S
C684 C687 1.404 . S
C684 C688 1.353 . S
N685 Co650 2.145 . S
N685 C686 1.397 . S
N685 C687 1.334 . S
C686 H667 0.929 . S
C686 C683 1.388 . S
C686 N685 1.397 . S
C687 H668 0.929 . S
C687 C684 1.404 . S
C687 N685 1.334 . S
C688 H680 0.930 . S
C688 C683 1.418 . S
C688 C684 1.353 . S
C689 H659 0.930 . S
C689 N690 1.330 . S
C689 C691 1.446 . S
N690 Co649 2.151 . S
N690 C689 1.330 . S
N690 C694 1.418 . S
C691 H670 0.929 . S
C691 C689 1.446 . S
C691 C692 1.332 . S
C692 H672 0.931 . S
C692 C691 1.332 . S
C692 C693 1.267 . S
C693 H661 0.929 . S
C693 C692 1.267 . S
C693 C694 1.251 . S
C694 H664 0.929 . S
C694 N690 1.418 . S
C694 C693 1.251 . S
C695 H662 0.930 . S
C695 C697 1.406 . S
C695 C700 1.261 . S
C696 H663 0.930 . S
C696 N698 1.325 . S
C696 C699 1.357 . S
C697 H665 0.928 . S
C697 C695 1.406 . S
C697 N698 1.261 . S
N698 Co649 2.214 . S
N698 C696 1.325 . S
N698 C697 1.261 . S
C699 H669 0.931 . S
C699 C696 1.357 . S
C699 C700 1.312 . S
C700 H671 0.930 . S
C700 C695 1.261 . S
C700 C699 1.312 . S
C701 O673 1.214 . S
C701 O681 1.234 . S
C702 H674 0.929 . S
C702 C705 1.391 . S
C702 C707 1.391 . S
C703 H675 0.929 . S
C703 C704 1.390 . S
C703 N706 1.391 . S
C704 H676 0.930 . S
C704 C703 1.390 . S
C704 C705 1.392 . S
C705 H677 0.929 . S
C705 C702 1.391 . S
C705 C704 1.392 . S
N706 Co650 2.257 . S
N706 C703 1.391 . S
N706 C707 1.388 . S
C707 H678 0.930 . S
C707 C702 1.391 . S
C707 N706 1.388 . S
Co708 O710 2.143 . S
Co708 O716 2.074 . S
Co708 O719 2.093 . S
Co708 O732 2.097 . S
Co708 N749 2.151 . S
Co708 N757 2.214 . S
Co709 O710 2.160 . S
Co709 O715 2.058 . S
Co709 O725 2.057 . S
Co709 O740 2.037 . S
Co709 N744 2.145 . S
Co709 N765 2.257 . S
O710 Co708 2.143 . S
O710 Co709 2.160 . S
C711 O712 1.278 . S
C711 O719 1.224 . S
O712 C711 1.278 . S
C713 O714 1.245 . S
C713 O725 1.232 . S
O714 C713 1.245 . S
O715 Co709 2.058 . S
O715 C741 1.269 . S
O716 Co708 2.074 . S
O716 C741 1.257 . S
H717 C742 0.930 . S
H718 C748 0.930 . S
O719 Co708 2.093 . S
O719 C711 1.224 . S
H720 C752 0.929 . S
H721 C754 0.930 . S
H722 C755 0.930 . S
H723 C753 0.929 . S
H724 C756 0.928 . S
O725 Co709 2.057 . S
O725 C713 1.232 . S
H726 C745 0.929 . S
H727 C746 0.929 . S
H728 C758 0.931 . S
H729 C750 0.929 . S
H730 C759 0.930 . S
H731 C751 0.931 . S
O732 Co708 2.097 . S
O732 C760 1.214 . S
H733 C761 0.929 . S
H734 C762 0.929 . S
H735 C763 0.930 . S
H736 C764 0.929 . S
H737 C766 0.930 . S
H738 C743 0.930 . S
H739 C747 0.930 . S
O740 Co709 2.037 . S
O740 C760 1.234 . S
C741 O715 1.269 . S
C741 O716 1.257 . S
C742 H717 0.930 . S
C742 C745 1.388 . S
C742 C747 1.418 . S
C743 H738 0.930 . S
C743 C746 1.404 . S
C743 C747 1.353 . S
N744 Co709 2.145 . S
N744 C745 1.397 . S
N744 C746 1.334 . S
C745 H726 0.929 . S
C745 C742 1.388 . S
C745 N744 1.397 . S
C746 H727 0.929 . S
C746 C743 1.404 . S
C746 N744 1.334 . S
C747 H739 0.930 . S
C747 C742 1.418 . S
C747 C743 1.353 . S
C748 H718 0.930 . S
C748 N749 1.330 . S
C748 C750 1.446 . S
N749 Co708 2.151 . S
N749 C748 1.330 . S
N749 C753 1.418 . S
C750 H729 0.929 . S
C750 C748 1.446 . S
C750 C751 1.332 . S
C751 H731 0.931 . S
C751 C750 1.332 . S
C751 C752 1.267 . S
C752 H720 0.929 . S
C752 C751 1.267 . S
C752 C753 1.251 . S
C753 H723 0.929 . S
C753 N749 1.418 . S
C753 C752 1.251 . S
C754 H721 0.930 . S
C754 C756 1.406 . S
C754 C759 1.261 . S
C755 H722 0.930 . S
C755 N757 1.325 . S
C755 C758 1.357 . S
C756 H724 0.928 . S
C756 C754 1.406 . S
C756 N757 1.261 . S
N757 Co708 2.214 . S
N757 C755 1.325 . S
N757 C756 1.261 . S
C758 H728 0.931 . S
C758 C755 1.357 . S
C758 C759 1.312 . S
C759 H730 0.930 . S
C759 C754 1.261 . S
C759 C758 1.312 . S
C760 O732 1.214 . S
C760 O740 1.234 . S
C761 H733 0.929 . S
C761 C764 1.391 . S
C761 C766 1.391 . S
C762 H734 0.929 . S
C762 C763 1.390 . S
C762 N765 1.391 . S
C763 H735 0.930 . S
C763 C762 1.390 . S
C763 C764 1.392 . S
C764 H736 0.929 . S
C764 C761 1.391 . S
C764 C763 1.392 . S
N765 Co709 2.257 . S
N765 C762 1.391 . S
N765 C766 1.388 . S
C766 H737 0.930 . S
C766 C761 1.391 . S
C766 N765 1.388 . S
Co767 O769 2.143 . S
Co767 O775 2.074 . S
Co767 O778 2.093 . S
Co767 O791 2.097 . S
Co767 N808 2.151 . S
Co767 N816 2.214 . S
Co768 O769 2.160 . S
Co768 O774 2.058 . S
Co768 O784 2.057 . S
Co768 O799 2.037 . S
Co768 N803 2.145 . S
Co768 N824 2.257 . S
O769 Co767 2.143 . S
O769 Co768 2.160 . S
C770 O771 1.278 . S
C770 O778 1.224 . S
O771 C770 1.278 . S
C772 O773 1.245 . S
C772 O784 1.232 . S
O773 C772 1.245 . S
O774 Co768 2.058 . S
O774 C800 1.269 . S
O775 Co767 2.074 . S
O775 C800 1.257 . S
H776 C801 0.930 . S
H777 C807 0.930 . S
O778 Co767 2.093 . S
O778 C770 1.224 . S
H779 C811 0.929 . S
H780 C813 0.930 . S
H781 C814 0.930 . S
H782 C812 0.929 . S
H783 C815 0.928 . S
O784 Co768 2.057 . S
O784 C772 1.232 . S
H785 C804 0.929 . S
H786 C805 0.929 . S
H787 C817 0.931 . S
H788 C809 0.929 . S
H789 C818 0.930 . S
H790 C810 0.931 . S
O791 Co767 2.097 . S
O791 C819 1.214 . S
H792 C820 0.929 . S
H793 C821 0.929 . S
H794 C822 0.930 . S
H795 C823 0.929 . S
H796 C825 0.930 . S
H797 C802 0.930 . S
H798 C806 0.930 . S
O799 Co768 2.037 . S
O799 C819 1.234 . S
C800 O774 1.269 . S
C800 O775 1.257 . S
C801 H776 0.930 . S
C801 C804 1.388 . S
C801 C806 1.418 . S
C802 H797 0.930 . S
C802 C805 1.404 . S
C802 C806 1.353 . S
N803 Co768 2.145 . S
N803 C804 1.397 . S
N803 C805 1.334 . S
C804 H785 0.929 . S
C804 C801 1.388 . S
C804 N803 1.397 . S
C805 H786 0.929 . S
C805 C802 1.404 . S
C805 N803 1.334 . S
C806 H798 0.930 . S
C806 C801 1.418 . S
C806 C802 1.353 . S
C807 H777 0.930 . S
C807 N808 1.330 . S
C807 C809 1.446 . S
N808 Co767 2.151 . S
N808 C807 1.330 . S
N808 C812 1.418 . S
C809 H788 0.929 . S
C809 C807 1.446 . S
C809 C810 1.332 . S
C810 H790 0.931 . S
C810 C809 1.332 . S
C810 C811 1.267 . S
C811 H779 0.929 . S
C811 C810 1.267 . S
C811 C812 1.251 . S
C812 H782 0.929 . S
C812 N808 1.418 . S
C812 C811 1.251 . S
C813 H780 0.930 . S
C813 C815 1.406 . S
C813 C818 1.261 . S
C814 H781 0.930 . S
C814 N816 1.325 . S
C814 C817 1.357 . S
C815 H783 0.928 . S
C815 C813 1.406 . S
C815 N816 1.261 . S
N816 Co767 2.214 . S
N816 C814 1.325 . S
N816 C815 1.261 . S
C817 H787 0.931 . S
C817 C814 1.357 . S
C817 C818 1.312 . S
C818 H789 0.930 . S
C818 C813 1.261 . S
C818 C817 1.312 . S
C819 O791 1.214 . S
C819 O799 1.234 . S
C820 H792 0.929 . S
C820 C823 1.391 . S
C820 C825 1.391 . S
C821 H793 0.929 . S
C821 C822 1.390 . S
C821 N824 1.391 . S
C822 H794 0.930 . S
C822 C821 1.390 . S
C822 C823 1.392 . S
C823 H795 0.929 . S
C823 C820 1.391 . S
C823 C822 1.392 . S
N824 Co768 2.257 . S
N824 C821 1.391 . S
N824 C825 1.388 . S
C825 H796 0.930 . S
C825 C820 1.391 . S
C825 N824 1.388 . S
Co826 O828 2.143 . S
Co826 O834 2.074 . S
Co826 O837 2.093 . S
Co826 O850 2.097 . S
Co826 N867 2.151 . S
Co826 N875 2.214 . S
Co827 O828 2.160 . S
Co827 O833 2.058 . S
Co827 O843 2.057 . S
Co827 O858 2.037 . S
Co827 N862 2.145 . S
Co827 N883 2.257 . S
O828 Co826 2.143 . S
O828 Co827 2.160 . S
C829 O830 1.278 . S
C829 O837 1.224 . S
O830 C829 1.278 . S
C831 O832 1.245 . S
C831 O843 1.232 . S
O832 C831 1.245 . S
O833 Co827 2.058 . S
O833 C859 1.269 . S
O834 Co826 2.074 . S
O834 C859 1.257 . S
H835 C860 0.930 . S
H836 C866 0.930 . S
O837 Co826 2.093 . S
O837 C829 1.224 . S
H838 C870 0.929 . S
H839 C872 0.930 . S
H840 C873 0.930 . S
H841 C871 0.929 . S
H842 C874 0.928 . S
O843 Co827 2.057 . S
O843 C831 1.232 . S
H844 C863 0.929 . S
H845 C864 0.929 . S
H846 C876 0.931 . S
H847 C868 0.929 . S
H848 C877 0.930 . S
H849 C869 0.931 . S
O850 Co826 2.097 . S
O850 C878 1.214 . S
H851 C879 0.929 . S
H852 C880 0.929 . S
H853 C881 0.930 . S
H854 C882 0.929 . S
H855 C884 0.930 . S
H856 C861 0.930 . S
H857 C865 0.930 . S
O858 Co827 2.037 . S
O858 C878 1.234 . S
C859 O833 1.269 . S
C859 O834 1.257 . S
C860 H835 0.930 . S
C860 C863 1.388 . S
C860 C865 1.418 . S
C861 H856 0.930 . S
C861 C864 1.404 . S
C861 C865 1.353 . S
N862 Co827 2.145 . S
N862 C863 1.397 . S
N862 C864 1.334 . S
C863 H844 0.929 . S
C863 C860 1.388 . S
C863 N862 1.397 . S
C864 H845 0.929 . S
C864 C861 1.404 . S
C864 N862 1.334 . S
C865 H857 0.930 . S
C865 C860 1.418 . S
C865 C861 1.353 . S
C866 H836 0.930 . S
C866 N867 1.330 . S
C866 C868 1.446 . S
N867 Co826 2.151 . S
N867 C866 1.330 . S
N867 C871 1.418 . S
C868 H847 0.929 . S
C868 C866 1.446 . S
C868 C869 1.332 . S
C869 H849 0.931 . S
C869 C868 1.332 . S
C869 C870 1.267 . S
C870 H838 0.929 . S
C870 C869 1.267 . S
C870 C871 1.251 . S
C871 H841 0.929 . S
C871 N867 1.418 . S
C871 C870 1.251 . S
C872 H839 0.930 . S
C872 C874 1.406 . S
C872 C877 1.261 . S
C873 H840 0.930 . S
C873 N875 1.325 . S
C873 C876 1.357 . S
C874 H842 0.928 . S
C874 C872 1.406 . S
C874 N875 1.261 . S
N875 Co826 2.214 . S
N875 C873 1.325 . S
N875 C874 1.261 . S
C876 H846 0.931 . S
C876 C873 1.357 . S
C876 C877 1.312 . S
C877 H848 0.930 . S
C877 C872 1.261 . S
C877 C876 1.312 . S
C878 O850 1.214 . S
C878 O858 1.234 . S
C879 H851 0.929 . S
C879 C882 1.391 . S
C879 C884 1.391 . S
C880 H852 0.929 . S
C880 C881 1.390 . S
C880 N883 1.391 . S
C881 H853 0.930 . S
C881 C880 1.390 . S
C881 C882 1.392 . S
C882 H854 0.929 . S
C882 C879 1.391 . S
C882 C881 1.392 . S
N883 Co827 2.257 . S
N883 C880 1.391 . S
N883 C884 1.388 . S
C884 H855 0.930 . S
C884 C879 1.391 . S
C884 N883 1.388 . S
Co885 O887 2.143 . S
Co885 O893 2.074 . S
Co885 O896 2.093 . S
Co885 O909 2.097 . S
Co885 N926 2.151 . S
Co885 N934 2.214 . S
Co886 O887 2.160 . S
Co886 O892 2.058 . S
Co886 O902 2.057 . S
Co886 O917 2.037 . S
Co886 N921 2.145 . S
Co886 N942 2.257 . S
O887 Co885 2.143 . S
O887 Co886 2.160 . S
C888 O889 1.278 . S
C888 O896 1.224 . S
O889 C888 1.278 . S
C890 O891 1.245 . S
C890 O902 1.232 . S
O891 C890 1.245 . S
O892 Co886 2.058 . S
O892 C918 1.269 . S
O893 Co885 2.074 . S
O893 C918 1.257 . S
H894 C919 0.930 . S
H895 C925 0.930 . S
O896 Co885 2.093 . S
O896 C888 1.224 . S
H897 C929 0.929 . S
H898 C931 0.930 . S
H899 C932 0.930 . S
H900 C930 0.929 . S
H901 C933 0.928 . S
O902 Co886 2.057 . S
O902 C890 1.232 . S
H903 C922 0.929 . S
H904 C923 0.929 . S
H905 C935 0.931 . S
H906 C927 0.929 . S
H907 C936 0.930 . S
H908 C928 0.931 . S
O909 Co885 2.097 . S
O909 C937 1.214 . S
H910 C938 0.929 . S
H911 C939 0.929 . S
H912 C940 0.930 . S
H913 C941 0.929 . S
H914 C943 0.930 . S
H915 C920 0.930 . S
H916 C924 0.930 . S
O917 Co886 2.037 . S
O917 C937 1.234 . S
C918 O892 1.269 . S
C918 O893 1.257 . S
C919 H894 0.930 . S
C919 C922 1.388 . S
C919 C924 1.418 . S
C920 H915 0.930 . S
C920 C923 1.404 . S
C920 C924 1.353 . S
N921 Co886 2.145 . S
N921 C922 1.397 . S
N921 C923 1.334 . S
C922 H903 0.929 . S
C922 C919 1.388 . S
C922 N921 1.397 . S
C923 H904 0.929 . S
C923 C920 1.404 . S
C923 N921 1.334 . S
C924 H916 0.930 . S
C924 C919 1.418 . S
C924 C920 1.353 . S
C925 H895 0.930 . S
C925 N926 1.330 . S
C925 C927 1.446 . S
N926 Co885 2.151 . S
N926 C925 1.330 . S
N926 C930 1.418 . S
C927 H906 0.929 . S
C927 C925 1.446 . S
C927 C928 1.332 . S
C928 H908 0.931 . S
C928 C927 1.332 . S
C928 C929 1.267 . S
C929 H897 0.929 . S
C929 C928 1.267 . S
C929 C930 1.251 . S
C930 H900 0.929 . S
C930 N926 1.418 . S
C930 C929 1.251 . S
C931 H898 0.930 . S
C931 C933 1.406 . S
C931 C936 1.261 . S
C932 H899 0.930 . S
C932 N934 1.325 . S
C932 C935 1.357 . S
C933 H901 0.928 . S
C933 C931 1.406 . S
C933 N934 1.261 . S
N934 Co885 2.214 . S
N934 C932 1.325 . S
N934 C933 1.261 . S
C935 H905 0.931 . S
C935 C932 1.357 . S
C935 C936 1.312 . S
C936 H907 0.930 . S
C936 C931 1.261 . S
C936 C935 1.312 . S
C937 O909 1.214 . S
C937 O917 1.234 . S
C938 H910 0.929 . S
C938 C941 1.391 . S
C938 C943 1.391 . S
C939 H911 0.929 . S
C939 C940 1.390 . S
C939 N942 1.391 . S
C940 H912 0.930 . S
C940 C939 1.390 . S
C940 C941 1.392 . S
C941 H913 0.929 . S
C941 C938 1.391 . S
C941 C940 1.392 . S
N942 Co886 2.257 . S
N942 C939 1.391 . S
N942 C943 1.388 . S
C943 H914 0.930 . S
C943 C938 1.391 . S
C943 N942 1.388 . S
C944 C945 1.391 . S
C944 C946 1.394 . S
C944 H960 0.931 . S
C945 C944 1.391 . S
C945 C949 1.376 . S
C946 C944 1.394 . S
C946 C947 1.369 . S
C946 C950 1.531 . S
C947 C946 1.369 . S
C947 C948 1.410 . S
C947 C955 1.503 . S
C948 C947 1.410 . S
C948 C949 1.392 . S
C948 C951 1.511 . S
C949 C945 1.376 . S
C949 C948 1.392 . S
C949 H961 0.929 . S
C950 C946 1.531 . S
C950 H962 0.960 . S
C950 H963 0.962 . S
C950 H964 0.960 . S
C951 C948 1.511 . S
C951 H965 0.961 . S
C951 H966 0.961 . S
C951 H967 0.961 . S
C952 C953 1.370 . S
C952 C954 1.363 . S
C952 H968 0.931 . S
C953 C952 1.370 . S
C953 C957 1.408 . S
C954 C952 1.363 . S
C954 C955 1.370 . S
C954 C958 1.524 . S
C955 C947 1.503 . S
C955 C954 1.370 . S
C955 C956 1.403 . S
C956 C955 1.403 . S
C956 C957 1.404 . S
C956 C959 1.539 . S
C957 C953 1.408 . S
C957 C956 1.404 . S
C957 H969 0.930 . S
C958 C954 1.524 . S
C958 H970 0.956 . S
C958 H971 0.961 . S
C958 H972 0.961 . S
C959 C956 1.539 . S
C959 H973 0.958 . S
C959 H974 0.961 . S
C959 H975 0.960 . S
H960 C944 0.931 . S
H961 C949 0.929 . S
H962 C950 0.960 . S
H963 C950 0.962 . S
H964 C950 0.960 . S
H965 C951 0.961 . S
H966 C951 0.961 . S
H967 C951 0.961 . S
H968 C952 0.931 . S
H969 C957 0.930 . S
H970 C958 0.956 . S
H971 C958 0.961 . S
H972 C958 0.961 . S
H973 C959 0.958 . S
H974 C959 0.961 . S
H975 C959 0.960 . S
C976 C977 1.391 . S
C976 C978 1.394 . S
C976 H992 0.931 . S
C977 C976 1.391 . S
C977 C981 1.376 . S
C978 C976 1.394 . S
C978 C979 1.369 . S
C978 C982 1.531 . S
C979 C978 1.369 . S
C979 C980 1.410 . S
C979 C987 1.503 . S
C980 C979 1.410 . S
C980 C981 1.392 . S
C980 C983 1.511 . S
C981 C977 1.376 . S
C981 C980 1.392 . S
C981 H993 0.929 . S
C982 C978 1.531 . S
C982 H994 0.960 . S
C982 H995 0.962 . S
C982 H996 0.960 . S
C983 C980 1.511 . S
C983 H997 0.961 . S
C983 H998 0.961 . S
C983 H999 0.961 . S
C984 C985 1.370 . S
C984 C986 1.363 . S
C984 H1000 0.931 . S
C985 C984 1.370 . S
C985 C989 1.408 . S
C986 C984 1.363 . S
C986 C987 1.370 . S
C986 C990 1.524 . S
C987 C979 1.503 . S
C987 C986 1.370 . S
C987 C988 1.403 . S
C988 C987 1.403 . S
C988 C989 1.404 . S
C988 C991 1.539 . S
C989 C985 1.408 . S
C989 C988 1.404 . S
C989 H1001 0.930 . S
C990 C986 1.524 . S
C990 H1002 0.956 . S
C990 H1003 0.961 . S
C990 H1004 0.961 . S
C991 C988 1.539 . S
C991 H1005 0.958 . S
C991 H1006 0.961 . S
C991 H1007 0.960 . S
H992 C976 0.931 . S
H993 C981 0.929 . S
H994 C982 0.960 . S
H995 C982 0.962 . S
H996 C982 0.960 . S
H997 C983 0.961 . S
H998 C983 0.961 . S
H999 C983 0.961 . S
H1000 C984 0.931 . S
H1001 C989 0.930 . S
H1002 C990 0.956 . S
H1003 C990 0.961 . S
H1004 C990 0.961 . S
H1005 C991 0.958 . S
H1006 C991 0.961 . S
H1007 C991 0.960 . S
C1008 C1009 1.391 . S
C1008 C1010 1.394 . S
C1008 H1024 0.931 . S
C1009 C1008 1.391 . S
C1009 C1013 1.376 . S
C1010 C1008 1.394 . S
C1010 C1011 1.369 . S
C1010 C1014 1.531 . S
C1011 C1010 1.369 . S
C1011 C1012 1.410 . S
C1011 C1019 1.503 . S
C1012 C1011 1.410 . S
C1012 C1013 1.392 . S
C1012 C1015 1.511 . S
C1013 C1009 1.376 . S
C1013 C1012 1.392 . S
C1013 H1025 0.929 . S
C1014 C1010 1.531 . S
C1014 H1026 0.960 . S
C1014 H1027 0.962 . S
C1014 H1028 0.960 . S
C1015 C1012 1.511 . S
C1015 H1029 0.961 . S
C1015 H1030 0.961 . S
C1015 H1031 0.961 . S
C1016 C1017 1.370 . S
C1016 C1018 1.363 . S
C1016 H1032 0.931 . S
C1017 C1016 1.370 . S
C1017 C1021 1.408 . S
C1018 C1016 1.363 . S
C1018 C1019 1.370 . S
C1018 C1022 1.524 . S
C1019 C1011 1.503 . S
C1019 C1018 1.370 . S
C1019 C1020 1.403 . S
C1020 C1019 1.403 . S
C1020 C1021 1.404 . S
C1020 C1023 1.539 . S
C1021 C1017 1.408 . S
C1021 C1020 1.404 . S
C1021 H1033 0.930 . S
C1022 C1018 1.524 . S
C1022 H1034 0.956 . S
C1022 H1035 0.961 . S
C1022 H1036 0.961 . S
C1023 C1020 1.539 . S
C1023 H1037 0.958 . S
C1023 H1038 0.961 . S
C1023 H1039 0.960 . S
H1024 C1008 0.931 . S
H1025 C1013 0.929 . S
H1026 C1014 0.960 . S
H1027 C1014 0.962 . S
H1028 C1014 0.960 . S
H1029 C1015 0.961 . S
H1030 C1015 0.961 . S
H1031 C1015 0.961 . S
H1032 C1016 0.931 . S
H1033 C1021 0.930 . S
H1034 C1022 0.956 . S
H1035 C1022 0.961 . S
H1036 C1022 0.961 . S
H1037 C1023 0.958 . S
H1038 C1023 0.961 . S
H1039 C1023 0.960 . S
C1040 C1041 1.391 . S
C1040 C1042 1.394 . S
C1040 H1056 0.931 . S
C1041 C1040 1.391 . S
C1041 C1045 1.376 . S
C1042 C1040 1.394 . S
C1042 C1043 1.369 . S
C1042 C1046 1.531 . S
C1043 C1042 1.369 . S
C1043 C1044 1.410 . S
C1043 C1051 1.503 . S
C1044 C1043 1.410 . S
C1044 C1045 1.392 . S
C1044 C1047 1.511 . S
C1045 C1041 1.376 . S
C1045 C1044 1.392 . S
C1045 H1057 0.929 . S
C1046 C1042 1.531 . S
C1046 H1058 0.960 . S
C1046 H1059 0.962 . S
C1046 H1060 0.960 . S
C1047 C1044 1.511 . S
C1047 H1061 0.961 . S
C1047 H1062 0.961 . S
C1047 H1063 0.961 . S
C1048 C1049 1.370 . S
C1048 C1050 1.363 . S
C1048 H1064 0.931 . S
C1049 C1048 1.370 . S
C1049 C1053 1.408 . S
C1050 C1048 1.363 . S
C1050 C1051 1.370 . S
C1050 C1054 1.524 . S
C1051 C1043 1.503 . S
C1051 C1050 1.370 . S
C1051 C1052 1.403 . S
C1052 C1051 1.403 . S
C1052 C1053 1.404 . S
C1052 C1055 1.539 . S
C1053 C1049 1.408 . S
C1053 C1052 1.404 . S
C1053 H1065 0.930 . S
C1054 C1050 1.524 . S
C1054 H1066 0.956 . S
C1054 H1067 0.961 . S
C1054 H1068 0.961 . S
C1055 C1052 1.539 . S
C1055 H1069 0.958 . S
C1055 H1070 0.961 . S
C1055 H1071 0.960 . S
H1056 C1040 0.931 . S
H1057 C1045 0.929 . S
H1058 C1046 0.960 . S
H1059 C1046 0.962 . S
H1060 C1046 0.960 . S
H1061 C1047 0.961 . S
H1062 C1047 0.961 . S
H1063 C1047 0.961 . S
H1064 C1048 0.931 . S
H1065 C1053 0.930 . S
H1066 C1054 0.956 . S
H1067 C1054 0.961 . S
H1068 C1054 0.961 . S
H1069 C1055 0.958 . S
H1070 C1055 0.961 . S
H1071 C1055 0.960 . S
C1072 C1073 1.391 . S
C1072 C1074 1.394 . S
C1072 H1088 0.931 . S
C1073 C1072 1.391 . S
C1073 C1077 1.376 . S
C1074 C1072 1.394 . S
C1074 C1075 1.369 . S
C1074 C1078 1.531 . S
C1075 C1074 1.369 . S
C1075 C1076 1.427 . S
C1075 C1083 1.503 1_554 S
C1076 C1075 1.427 . S
C1076 C1077 1.425 . S
C1076 C1079 1.466 1_554 S
C1077 C1073 1.376 . S
C1077 C1076 1.425 . S
C1077 H1089 0.929 1_545 S
C1078 C1074 1.531 . S
C1078 H1090 0.960 . S
C1078 H1091 0.962 . S
C1078 H1092 0.960 . S
C1079 C1076 1.466 1_556 S
C1079 H1093 0.961 . S
C1079 H1094 0.961 . S
C1079 H1095 0.961 . S
C1080 C1081 1.370 . S
C1080 C1082 1.363 1_556 S
C1080 H1096 0.931 1_556 S
C1081 C1080 1.370 . S
C1081 C1085 1.408 . S
C1082 C1080 1.363 1_554 S
C1082 C1083 1.370 1_554 S
C1082 C1086 1.524 . S
C1083 C1075 1.503 1_556 S
C1083 C1082 1.370 1_556 S
C1083 C1084 1.403 . S
C1084 C1083 1.403 . S
C1084 C1085 1.404 . S
C1084 C1087 1.539 . S
C1085 C1081 1.408 . S
C1085 C1084 1.404 . S
C1085 H1097 0.930 . S
C1086 C1082 1.524 . S
C1086 H1098 0.956 . S
C1086 H1099 0.961 . S
C1086 H1100 0.961 . S
C1087 C1084 1.539 . S
C1087 H1101 0.958 . S
C1087 H1102 0.961 . S
C1087 H1103 0.960 . S
H1088 C1072 0.931 . S
H1089 C1077 0.929 1_565 S
H1090 C1078 0.960 . S
H1091 C1078 0.962 . S
H1092 C1078 0.960 . S
H1093 C1079 0.961 . S
H1094 C1079 0.961 . S
H1095 C1079 0.961 . S
H1096 C1080 0.931 1_554 S
H1097 C1085 0.930 . S
H1098 C1086 0.956 . S
H1099 C1086 0.961 . S
H1100 C1086 0.961 . S
H1101 C1087 0.958 . S
H1102 C1087 0.961 . S
H1103 C1087 0.960 . S
C1104 C1105 1.391 . S
C1104 C1106 1.394 . S
C1104 H1120 0.931 . S
C1105 C1104 1.391 . S
C1105 C1109 1.376 . S
C1106 C1104 1.394 . S
C1106 C1107 1.369 . S
C1106 C1110 1.531 1_554 S
C1107 C1106 1.369 . S
C1107 C1108 1.410 . S
C1107 C1115 1.503 1_554 S
C1108 C1107 1.410 . S
C1108 C1109 1.392 . S
C1108 C1111 1.511 . S
C1109 C1105 1.376 . S
C1109 C1108 1.392 . S
C1109 H1121 0.929 . S
C1110 C1106 1.531 1_556 S
C1110 H1122 0.960 . S
C1110 H1123 0.962 . S
C1110 H1124 0.960 1_556 S
C1111 C1108 1.511 . S
C1111 H1125 0.961 . S
C1111 H1126 0.961 . S
C1111 H1127 0.961 . S
C1112 C1113 1.370 . S
C1112 C1114 1.363 . S
C1112 H1128 0.931 . S
C1113 C1112 1.370 . S
C1113 C1117 1.408 . S
C1114 C1112 1.363 . S
C1114 C1115 1.370 . S
C1114 C1118 1.524 . S
C1115 C1107 1.503 1_556 S
C1115 C1114 1.370 . S
C1115 C1116 1.403 1_556 S
C1116 C1115 1.403 1_554 S
C1116 C1117 1.404 1_554 S
C1116 C1119 1.539 . S
C1117 C1113 1.408 . S
C1117 C1116 1.404 1_556 S
C1117 H1129 0.947 1_455 S
C1118 C1114 1.524 . S
C1118 H1130 0.956 . S
C1118 H1131 0.961 . S
C1118 H1132 0.961 . S
C1119 C1116 1.539 . S
C1119 H1133 0.958 . S
C1119 H1134 0.961 . S
C1119 H1135 0.960 . S
H1120 C1104 0.931 . S
H1121 C1109 0.929 . S
H1122 C1110 0.960 . S
H1123 C1110 0.962 . S
H1124 C1110 0.960 1_554 S
H1125 C1111 0.961 . S
H1126 C1111 0.961 . S
H1127 C1111 0.961 . S
H1128 C1112 0.931 . S
H1129 C1117 0.947 1_655 S
H1130 C1118 0.956 . S
H1131 C1118 0.961 . S
H1132 C1118 0.961 . S
H1133 C1119 0.958 . S
H1134 C1119 0.961 . S
H1135 C1119 0.960 . S
C1136 C1137 1.391 . S
C1136 C1138 1.394 . S
C1136 H1152 0.931 . S
C1137 C1136 1.391 . S
C1137 C1141 1.376 . S
C1138 C1136 1.394 . S
C1138 C1139 1.369 . S
C1138 C1142 1.531 . S
C1139 C1138 1.369 . S
C1139 C1140 1.410 . S
C1139 C1147 1.503 1_556 S
C1140 C1139 1.410 . S
C1140 C1141 1.392 . S
C1140 C1143 1.511 . S
C1141 C1137 1.376 . S
C1141 C1140 1.392 . S
C1141 H1153 0.929 . S
C1142 C1138 1.531 . S
C1142 H1154 0.960 . S
C1142 H1155 0.962 1_556 S
C1142 H1156 0.960 . S
C1143 C1140 1.511 . S
C1143 H1157 0.961 . S
C1143 H1158 0.961 1_556 S
C1143 H1159 0.961 . S
C1144 C1145 1.370 . S
C1144 C1146 1.363 . S
C1144 H1160 0.931 . S
C1145 C1144 1.370 . S
C1145 C1149 1.408 . S
C1146 C1144 1.363 . S
C1146 C1147 1.370 . S
C1146 C1150 1.524 . S
C1147 C1139 1.503 1_554 S
C1147 C1146 1.370 . S
C1147 C1148 1.403 1_554 S
C1148 C1147 1.403 1_556 S
C1148 C1149 1.404 1_556 S
C1148 C1151 1.539 . S
C1149 C1145 1.408 . S
C1149 C1148 1.404 1_554 S
C1149 H1161 0.927 1_565 S
C1150 C1146 1.524 . S
C1150 H1162 0.956 . S
C1150 H1163 0.961 . S
C1150 H1164 0.961 . S
C1151 C1148 1.539 . S
C1151 H1165 0.958 . S
C1151 H1166 0.961 . S
C1151 H1167 0.960 . S
H1152 C1136 0.931 . S
H1153 C1141 0.929 . S
H1154 C1142 0.960 . S
H1155 C1142 0.962 1_554 S
H1156 C1142 0.960 . S
H1157 C1143 0.961 . S
H1158 C1143 0.961 1_554 S
H1159 C1143 0.961 . S
H1160 C1144 0.931 . S
H1161 C1149 0.927 1_545 S
H1162 C1150 0.956 . S
H1163 C1150 0.961 . S
H1164 C1150 0.961 . S
H1165 C1151 0.958 . S
H1166 C1151 0.961 . S
H1167 C1151 0.960 . S
C1168 C1169 1.391 . S
C1168 C1170 1.394 . S
C1168 H1184 0.931 . S
C1169 C1168 1.391 . S
C1169 C1173 1.376 . S
C1170 C1168 1.394 . S
C1170 C1171 1.369 . S
C1170 C1174 1.531 . S
C1171 C1170 1.369 . S
C1171 C1172 1.410 . S
C1171 C1179 1.503 1_554 S
C1172 C1171 1.410 . S
C1172 C1173 1.392 . S
C1172 C1175 1.511 . S
C1173 C1169 1.376 . S
C1173 C1172 1.392 . S
C1173 H1185 0.929 . S
C1174 C1170 1.531 . S
C1174 H1186 0.960 . S
C1174 H1187 0.962 1_554 S
C1174 H1188 0.960 . S
C1175 C1172 1.511 . S
C1175 H1189 0.961 1_554 S
C1175 H1190 0.961 1_554 S
C1175 H1191 0.961 . S
C1176 C1177 1.370 . S
C1176 C1178 1.363 . S
C1176 H1192 0.931 . S
C1177 C1176 1.370 . S
C1177 C1181 1.408 . S
C1178 C1176 1.363 . S
C1178 C1179 1.370 . S
C1178 C1182 1.524 . S
C1179 C1171 1.503 1_556 S
C1179 C1178 1.370 . S
C1179 C1180 1.403 1_556 S
C1180 C1179 1.403 1_554 S
C1180 C1181 1.404 1_554 S
C1180 C1183 1.539 . S
C1181 C1177 1.408 . S
C1181 C1180 1.404 1_556 S
C1181 H1193 0.929 1_655 S
C1182 C1178 1.524 . S
C1182 H1194 0.956 . S
C1182 H1195 0.961 . S
C1182 H1196 0.961 . S
C1183 C1180 1.539 . S
C1183 H1197 0.958 . S
C1183 H1198 0.961 . S
C1183 H1199 0.960 . S
H1184 C1168 0.931 . S
H1185 C1173 0.929 . S
H1186 C1174 0.960 . S
H1187 C1174 0.962 1_556 S
H1188 C1174 0.960 . S
H1189 C1175 0.961 1_556 S
H1190 C1175 0.961 1_556 S
H1191 C1175 0.961 . S
H1192 C1176 0.931 . S
H1193 C1181 0.929 1_455 S
H1194 C1182 0.956 . S
H1195 C1182 0.961 . S
H1196 C1182 0.961 . S
H1197 C1183 0.958 . S
H1198 C1183 0.961 . S
H1199 C1183 0.960 . S
C1200 C1201 1.391 . S
C1200 C1202 1.394 . S
C1200 H1216 0.931 . S
C1201 C1200 1.391 . S
C1201 C1205 1.376 . S
C1202 C1200 1.394 . S
C1202 C1203 1.369 . S
C1202 C1206 1.531 . S
C1203 C1202 1.369 . S
C1203 C1204 1.410 . S
C1203 C1211 1.503 . S
C1204 C1203 1.410 . S
C1204 C1205 1.392 . S
C1204 C1207 1.511 . S
C1205 C1201 1.376 . S
C1205 C1204 1.392 . S
C1205 H1217 0.929 . S
C1206 C1202 1.531 . S
C1206 H1218 0.960 . S
C1206 H1219 0.962 . S
C1206 H1220 0.960 . S
C1207 C1204 1.511 . S
C1207 H1221 0.961 . S
C1207 H1222 0.961 . S
C1207 H1223 0.961 . S
C1208 C1209 1.370 . S
C1208 C1210 1.363 . S
C1208 H1224 0.931 1_565 S
C1209 C1208 1.370 . S
C1209 C1213 1.408 . S
C1210 C1208 1.363 . S
C1210 C1211 1.370 . S
C1210 C1214 1.524 . S
C1211 C1203 1.503 . S
C1211 C1210 1.370 . S
C1211 C1212 1.403 . S
C1212 C1211 1.403 . S
C1212 C1213 1.404 . S
C1212 C1215 1.539 . S
C1213 C1209 1.408 . S
C1213 C1212 1.404 . S
C1213 H1225 0.930 . S
C1214 C1210 1.524 . S
C1214 H1226 0.956 . S
C1214 H1227 0.961 . S
C1214 H1228 0.961 . S
C1215 C1212 1.539 . S
C1215 H1229 0.958 . S
C1215 H1230 0.961 . S
C1215 H1231 0.960 . S
H1216 C1200 0.931 . S
H1217 C1205 0.929 . S
H1218 C1206 0.960 . S
H1219 C1206 0.962 . S
H1220 C1206 0.960 . S
H1221 C1207 0.961 . S
H1222 C1207 0.961 . S
H1223 C1207 0.961 . S
H1224 C1208 0.931 1_545 S
H1225 C1213 0.930 . S
H1226 C1214 0.956 . S
H1227 C1214 0.961 . S
H1228 C1214 0.961 . S
H1229 C1215 0.958 . S
H1230 C1215 0.961 . S
H1231 C1215 0.960 . S
C1232 C1233 1.391 . S
C1232 C1234 1.394 . S
C1232 H1248 0.931 1_655 S
C1233 C1232 1.391 . S
C1233 C1237 1.376 . S
C1234 C1232 1.394 . S
C1234 C1235 1.369 . S
C1234 C1238 1.531 . S
C1235 C1234 1.369 . S
C1235 C1236 1.410 . S
C1235 C1243 1.503 . S
C1236 C1235 1.410 . S
C1236 C1237 1.392 . S
C1236 C1239 1.511 . S
C1237 C1233 1.376 . S
C1237 C1236 1.392 . S
C1237 H1249 0.929 . S
C1238 C1234 1.531 . S
C1238 H1250 0.960 . S
C1238 H1251 0.962 . S
C1238 H1252 0.960 . S
C1239 C1236 1.511 . S
C1239 H1253 0.961 . S
C1239 H1254 0.961 . S
C1239 H1255 0.961 . S
C1240 C1241 1.370 . S
C1240 C1242 1.363 . S
C1240 H1256 0.931 . S
C1241 C1240 1.370 . S
C1241 C1245 1.408 . S
C1242 C1240 1.363 . S
C1242 C1243 1.370 . S
C1242 C1246 1.524 . S
C1243 C1235 1.503 . S
C1243 C1242 1.370 . S
C1243 C1244 1.403 . S
C1244 C1243 1.403 . S
C1244 C1245 1.404 . S
C1244 C1247 1.539 . S
C1245 C1241 1.408 . S
C1245 C1244 1.404 . S
C1245 H1257 0.930 . S
C1246 C1242 1.524 . S
C1246 H1258 0.956 . S
C1246 H1259 0.961 . S
C1246 H1260 0.961 . S
C1247 C1244 1.539 . S
C1247 H1261 0.958 . S
C1247 H1262 0.961 . S
C1247 H1263 0.960 . S
H1248 C1232 0.931 1_455 S
H1249 C1237 0.929 . S
H1250 C1238 0.960 . S
H1251 C1238 0.962 . S
H1252 C1238 0.960 . S
H1253 C1239 0.961 . S
H1254 C1239 0.961 . S
H1255 C1239 0.961 . S
H1256 C1240 0.931 . S
H1257 C1245 0.930 . S
H1258 C1246 0.956 . S
H1259 C1246 0.961 . S
H1260 C1246 0.961 . S
H1261 C1247 0.958 . S
H1262 C1247 0.961 . S
H1263 C1247 0.960 . S
C1264 C1265 1.391 . S
C1264 C1266 1.394 . S
C1264 H1280 0.931 . S
C1265 C1264 1.391 . S
C1265 C1269 1.376 . S
C1266 C1264 1.394 . S
C1266 C1267 1.369 . S
C1266 C1270 1.531 . S
C1267 C1266 1.369 . S
C1267 C1268 1.410 . S
C1267 C1275 1.503 . S
C1268 C1267 1.410 . S
C1268 C1269 1.392 . S
C1268 C1271 1.511 . S
C1269 C1265 1.376 . S
C1269 C1268 1.392 . S
C1269 H1281 0.929 1_545 S
C1270 C1266 1.531 . S
C1270 H1282 0.960 . S
C1270 H1283 0.962 . S
C1270 H1284 0.960 . S
C1271 C1268 1.511 . S
C1271 H1285 0.961 . S
C1271 H1286 0.961 . S
C1271 H1287 0.961 . S
C1272 C1273 1.370 . S
C1272 C1274 1.363 . S
C1272 H1288 0.931 . S
C1273 C1272 1.370 . S
C1273 C1277 1.408 . S
C1274 C1272 1.363 . S
C1274 C1275 1.370 . S
C1274 C1278 1.524 . S
C1275 C1267 1.503 . S
C1275 C1274 1.370 . S
C1275 C1276 1.403 . S
C1276 C1275 1.403 . S
C1276 C1277 1.404 . S
C1276 C1279 1.539 . S
C1277 C1273 1.408 . S
C1277 C1276 1.404 . S
C1277 H1289 0.930 . S
C1278 C1274 1.524 . S
C1278 H1290 0.956 . S
C1278 H1291 0.961 . S
C1278 H1292 0.961 . S
C1279 C1276 1.539 . S
C1279 H1293 0.958 . S
C1279 H1294 0.961 . S
C1279 H1295 0.960 . S
H1280 C1264 0.931 . S
H1281 C1269 0.929 1_565 S
H1282 C1270 0.960 . S
H1283 C1270 0.962 . S
H1284 C1270 0.960 . S
H1285 C1271 0.961 . S
H1286 C1271 0.961 . S
H1287 C1271 0.961 . S
H1288 C1272 0.931 . S
H1289 C1277 0.930 . S
H1290 C1278 0.956 . S
H1291 C1278 0.961 . S
H1292 C1278 0.961 . S
H1293 C1279 0.958 . S
H1294 C1279 0.961 . S
H1295 C1279 0.960 . S
C1296 C1297 1.391 . S
C1296 C1298 1.394 . S
C1296 H1312 0.931 . S
C1297 C1296 1.391 . S
C1297 C1301 1.376 . S
C1298 C1296 1.394 . S
C1298 C1299 1.369 . S
C1298 C1302 1.531 . S
C1299 C1298 1.369 . S
C1299 C1300 1.410 . S
C1299 C1307 1.503 . S
C1300 C1299 1.410 . S
C1300 C1301 1.392 . S
C1300 C1303 1.511 . S
C1301 C1297 1.376 . S
C1301 C1300 1.392 . S
C1301 H1313 0.929 1_455 S
C1302 C1298 1.531 . S
C1302 H1314 0.960 . S
C1302 H1315 0.962 . S
C1302 H1316 0.960 . S
C1303 C1300 1.511 . S
C1303 H1317 0.961 . S
C1303 H1318 0.961 . S
C1303 H1319 0.961 . S
C1304 C1305 1.370 . S
C1304 C1306 1.363 . S
C1304 H1320 0.931 . S
C1305 C1304 1.370 . S
C1305 C1309 1.408 . S
C1306 C1304 1.363 . S
C1306 C1307 1.370 . S
C1306 C1310 1.524 . S
C1307 C1299 1.503 . S
C1307 C1306 1.370 . S
C1307 C1308 1.403 . S
C1308 C1307 1.403 . S
C1308 C1309 1.404 . S
C1308 C1311 1.539 . S
C1309 C1305 1.408 . S
C1309 C1308 1.404 . S
C1309 H1321 0.930 . S
C1310 C1306 1.524 . S
C1310 H1322 0.956 . S
C1310 H1323 0.961 . S
C1310 H1324 0.961 . S
C1311 C1308 1.539 . S
C1311 H1325 0.958 . S
C1311 H1326 0.961 . S
C1311 H1327 0.960 . S
H1312 C1296 0.931 . S
H1313 C1301 0.929 1_655 S
H1314 C1302 0.960 . S
H1315 C1302 0.962 . S
H1316 C1302 0.960 . S
H1317 C1303 0.961 . S
H1318 C1303 0.961 . S
H1319 C1303 0.961 . S
H1320 C1304 0.931 . S
H1321 C1309 0.930 . S
H1322 C1310 0.956 . S
H1323 C1310 0.961 . S
H1324 C1310 0.961 . S
H1325 C1311 0.958 . S
H1326 C1311 0.961 . S
H1327 C1311 0.960 . S
C1328 C1329 1.391 . S
C1328 C1330 1.394 . S
C1328 H1344 0.931 . S
C1329 C1328 1.391 . S
C1329 C1333 1.376 . S
C1330 C1328 1.394 . S
C1330 C1331 1.369 . S
C1330 C1334 1.531 . S
C1331 C1330 1.369 . S
C1331 C1332 1.410 . S
C1331 C1339 1.503 . S
C1332 C1331 1.410 . S
C1332 C1333 1.392 . S
C1332 C1335 1.511 . S
C1333 C1329 1.376 . S
C1333 C1332 1.392 . S
C1333 H1345 0.929 . S
C1334 C1330 1.531 . S
C1334 H1346 0.960 . S
C1334 H1347 0.962 . S
C1334 H1348 0.960 . S
C1335 C1332 1.511 . S
C1335 H1349 0.961 . S
C1335 H1350 0.961 . S
C1335 H1351 0.961 . S
C1336 C1337 1.370 . S
C1336 C1338 1.363 . S
C1336 H1352 0.931 . S
C1337 C1336 1.370 . S
C1337 C1341 1.408 . S
C1338 C1336 1.363 . S
C1338 C1339 1.370 . S
C1338 C1342 1.524 . S
C1339 C1331 1.503 . S
C1339 C1338 1.370 . S
C1339 C1340 1.403 . S
C1340 C1339 1.403 . S
C1340 C1341 1.404 . S
C1340 C1343 1.539 . S
C1341 C1337 1.408 . S
C1341 C1340 1.404 . S
C1341 H1353 0.930 . S
C1342 C1338 1.524 . S
C1342 H1354 0.956 . S
C1342 H1355 0.961 . S
C1342 H1356 0.961 . S
C1343 C1340 1.539 . S
C1343 H1357 0.958 . S
C1343 H1358 0.961 . S
C1343 H1359 0.960 . S
H1344 C1328 0.931 . S
H1345 C1333 0.929 . S
H1346 C1334 0.960 . S
H1347 C1334 0.962 . S
H1348 C1334 0.960 . S
H1349 C1335 0.961 . S
H1350 C1335 0.961 . S
H1351 C1335 0.961 . S
H1352 C1336 0.931 . S
H1353 C1341 0.930 . S
H1354 C1342 0.956 . S
H1355 C1342 0.961 . S
H1356 C1342 0.961 . S
H1357 C1343 0.958 . S
H1358 C1343 0.961 . S
H1359 C1343 0.960 . S
C1360 C1361 1.391 . S
C1360 C1362 1.394 . S
C1360 H1376 0.931 . S
C1361 C1360 1.391 . S
C1361 C1365 1.376 . S
C1362 C1360 1.394 . S
C1362 C1363 1.369 . S
C1362 C1366 1.531 . S
C1363 C1362 1.369 . S
C1363 C1364 1.410 . S
C1363 C1371 1.503 . S
C1364 C1363 1.410 . S
C1364 C1365 1.392 . S
C1364 C1367 1.511 . S
C1365 C1361 1.376 . S
C1365 C1364 1.392 . S
C1365 H1377 0.929 . S
C1366 C1362 1.531 . S
C1366 H1378 0.960 . S
C1366 H1379 0.962 . S
C1366 H1380 0.960 . S
C1367 C1364 1.511 . S
C1367 H1381 0.961 . S
C1367 H1382 0.961 . S
C1367 H1383 0.961 . S
C1368 C1369 1.370 . S
C1368 C1370 1.363 . S
C1368 H1384 0.931 . S
C1369 C1368 1.370 . S
C1369 C1373 1.408 . S
C1370 C1368 1.363 . S
C1370 C1371 1.370 . S
C1370 C1374 1.524 . S
C1371 C1363 1.503 . S
C1371 C1370 1.370 . S
C1371 C1372 1.403 . S
C1372 C1371 1.403 . S
C1372 C1373 1.404 . S
C1372 C1375 1.539 . S
C1373 C1369 1.408 . S
C1373 C1372 1.404 . S
C1373 H1385 0.930 . S
C1374 C1370 1.524 . S
C1374 H1386 0.956 . S
C1374 H1387 0.961 . S
C1374 H1388 0.961 . S
C1375 C1372 1.539 . S
C1375 H1389 0.958 . S
C1375 H1390 0.961 . S
C1375 H1391 0.960 . S
H1376 C1360 0.931 . S
H1377 C1365 0.929 . S
H1378 C1366 0.960 . S
H1379 C1366 0.962 . S
H1380 C1366 0.960 . S
H1381 C1367 0.961 . S
H1382 C1367 0.961 . S
H1383 C1367 0.961 . S
H1384 C1368 0.931 . S
H1385 C1373 0.930 . S
H1386 C1374 0.956 . S
H1387 C1374 0.961 . S
H1388 C1374 0.961 . S
H1389 C1375 0.958 . S
H1390 C1375 0.961 . S
H1391 C1375 0.960 . S
C1392 C1393 1.391 . S
C1392 C1394 1.394 . S
C1392 H1408 0.931 . S
C1393 C1392 1.391 . S
C1393 C1397 1.376 . S
C1394 C1392 1.394 . S
C1394 C1395 1.369 . S
C1394 C1398 1.531 . S
C1395 C1394 1.369 . S
C1395 C1396 1.410 . S
C1395 C1403 1.503 . S
C1396 C1395 1.410 . S
C1396 C1397 1.392 . S
C1396 C1399 1.511 . S
C1397 C1393 1.376 . S
C1397 C1396 1.392 . S
C1397 H1409 0.929 . S
C1398 C1394 1.531 . S
C1398 H1410 0.960 . S
C1398 H1411 0.962 . S
C1398 H1412 0.960 . S
C1399 C1396 1.511 . S
C1399 H1413 0.961 . S
C1399 H1414 0.961 . S
C1399 H1415 0.961 . S
C1400 C1401 1.370 . S
C1400 C1402 1.363 . S
C1400 H1416 0.931 . S
C1401 C1400 1.370 . S
C1401 C1405 1.408 . S
C1402 C1400 1.363 . S
C1402 C1403 1.370 . S
C1402 C1406 1.524 . S
C1403 C1395 1.503 . S
C1403 C1402 1.370 . S
C1403 C1404 1.403 . S
C1404 C1403 1.403 . S
C1404 C1405 1.404 . S
C1404 C1407 1.539 . S
C1405 C1401 1.408 . S
C1405 C1404 1.404 . S
C1405 H1417 0.930 . S
C1406 C1402 1.524 . S
C1406 H1418 0.956 . S
C1406 H1419 0.961 . S
C1406 H1420 0.961 . S
C1407 C1404 1.539 . S
C1407 H1421 0.958 . S
C1407 H1422 0.961 . S
C1407 H1423 0.960 . S
H1408 C1392 0.931 . S
H1409 C1397 0.929 . S
H1410 C1398 0.960 . S
H1411 C1398 0.962 . S
H1412 C1398 0.960 . S
H1413 C1399 0.961 . S
H1414 C1399 0.961 . S
H1415 C1399 0.961 . S
H1416 C1400 0.931 . S
H1417 C1405 0.930 . S
H1418 C1406 0.956 . S
H1419 C1406 0.961 . S
H1420 C1406 0.961 . S
H1421 C1407 0.958 . S
H1422 C1407 0.961 . S
H1423 C1407 0.960 . S
C1424 C1425 1.391 . S
C1424 C1426 1.394 . S
C1424 H1440 0.931 . S
C1425 C1424 1.391 . S
C1425 C1429 1.376 . S
C1426 C1424 1.394 . S
C1426 C1427 1.369 . S
C1426 C1430 1.531 . S
C1427 C1426 1.369 . S
C1427 C1428 1.410 . S
C1427 C1435 1.503 . S
C1428 C1427 1.410 . S
C1428 C1429 1.392 . S
C1428 C1431 1.511 . S
C1429 C1425 1.376 . S
C1429 C1428 1.392 . S
C1429 H1441 0.929 . S
C1430 C1426 1.531 . S
C1430 H1442 0.960 . S
C1430 H1443 0.962 . S
C1430 H1444 0.960 . S
C1431 C1428 1.511 . S
C1431 H1445 0.961 . S
C1431 H1446 0.961 . S
C1431 H1447 0.961 . S
C1432 C1433 1.370 . S
C1432 C1434 1.363 . S
C1432 H1448 0.931 . S
C1433 C1432 1.370 . S
C1433 C1437 1.408 . S
C1434 C1432 1.363 . S
C1434 C1435 1.370 . S
C1434 C1438 1.524 . S
C1435 C1427 1.503 . S
C1435 C1434 1.370 . S
C1435 C1436 1.403 . S
C1436 C1435 1.403 . S
C1436 C1437 1.404 . S
C1436 C1439 1.539 . S
C1437 C1433 1.408 . S
C1437 C1436 1.404 . S
C1437 H1449 0.930 . S
C1438 C1434 1.524 . S
C1438 H1450 0.956 . S
C1438 H1451 0.961 . S
C1438 H1452 0.961 . S
C1439 C1436 1.539 . S
C1439 H1453 0.958 . S
C1439 H1454 0.961 . S
C1439 H1455 0.960 . S
H1440 C1424 0.931 . S
H1441 C1429 0.929 . S
H1442 C1430 0.960 . S
H1443 C1430 0.962 . S
H1444 C1430 0.960 . S
H1445 C1431 0.961 . S
H1446 C1431 0.961 . S
H1447 C1431 0.961 . S
H1448 C1432 0.931 . S
H1449 C1437 0.930 . S
H1450 C1438 0.956 . S
H1451 C1438 0.961 . S
H1452 C1438 0.961 . S
H1453 C1439 0.958 . S
H1454 C1439 0.961 . S
H1455 C1439 0.960 . S
C1456 C1457 1.391 . S
C1456 C1458 1.394 . S
C1456 H1472 0.931 . S
C1457 C1456 1.391 . S
C1457 C1461 1.376 . S
C1458 C1456 1.394 . S
C1458 C1459 1.369 . S
C1458 C1462 1.531 . S
C1459 C1458 1.369 . S
C1459 C1460 1.410 . S
C1459 C1467 1.503 . S
C1460 C1459 1.410 . S
C1460 C1461 1.392 . S
C1460 C1463 1.511 . S
C1461 C1457 1.376 . S
C1461 C1460 1.392 . S
C1461 H1473 0.929 . S
C1462 C1458 1.531 . S
C1462 H1474 0.960 . S
C1462 H1475 0.962 . S
C1462 H1476 0.960 . S
C1463 C1460 1.511 . S
C1463 H1477 0.961 . S
C1463 H1478 0.961 . S
C1463 H1479 0.961 . S
C1464 C1465 1.370 . S
C1464 C1466 1.363 . S
C1464 H1480 0.931 . S
C1465 C1464 1.370 . S
C1465 C1469 1.408 . S
C1466 C1464 1.363 . S
C1466 C1467 1.370 . S
C1466 C1470 1.524 . S
C1467 C1459 1.503 . S
C1467 C1466 1.370 . S
C1467 C1468 1.403 . S
C1468 C1467 1.403 . S
C1468 C1469 1.404 . S
C1468 C1471 1.539 . S
C1469 C1465 1.408 . S
C1469 C1468 1.404 . S
C1469 H1481 0.930 . S
C1470 C1466 1.524 . S
C1470 H1482 0.956 . S
C1470 H1483 0.961 . S
C1470 H1484 0.961 . S
C1471 C1468 1.539 . S
C1471 H1485 0.958 . S
C1471 H1486 0.961 . S
C1471 H1487 0.960 . S
H1472 C1456 0.931 . S
H1473 C1461 0.929 . S
H1474 C1462 0.960 . S
H1475 C1462 0.962 . S
H1476 C1462 0.960 . S
H1477 C1463 0.961 . S
H1478 C1463 0.961 . S
H1479 C1463 0.961 . S
H1480 C1464 0.931 . S
H1481 C1469 0.930 . S
H1482 C1470 0.956 . S
H1483 C1470 0.961 . S
H1484 C1470 0.961 . S
H1485 C1471 0.958 . S
H1486 C1471 0.961 . S
H1487 C1471 0.960 . S
C1488 C1489 1.391 . S
C1488 C1490 1.394 . S
C1488 H1504 0.931 . S
C1489 C1488 1.391 . S
C1489 C1493 1.376 . S
C1490 C1488 1.394 . S
C1490 C1491 1.369 . S
C1490 C1494 1.531 . S
C1491 C1490 1.369 . S
C1491 C1492 1.410 . S
C1491 C1499 1.503 . S
C1492 C1491 1.410 . S
C1492 C1493 1.392 . S
C1492 C1495 1.511 . S
C1493 C1489 1.376 . S
C1493 C1492 1.392 . S
C1493 H1505 0.929 . S
C1494 C1490 1.531 . S
C1494 H1506 0.960 . S
C1494 H1507 0.962 . S
C1494 H1508 0.960 . S
C1495 C1492 1.511 . S
C1495 H1509 0.961 . S
C1495 H1510 0.961 . S
C1495 H1511 0.961 . S
C1496 C1497 1.370 . S
C1496 C1498 1.363 . S
C1496 H1512 0.931 . S
C1497 C1496 1.370 . S
C1497 C1501 1.408 . S
C1498 C1496 1.363 . S
C1498 C1499 1.370 . S
C1498 C1502 1.524 . S
C1499 C1491 1.503 . S
C1499 C1498 1.370 . S
C1499 C1500 1.403 . S
C1500 C1499 1.403 . S
C1500 C1501 1.404 . S
C1500 C1503 1.539 . S
C1501 C1497 1.408 . S
C1501 C1500 1.404 . S
C1501 H1513 0.930 . S
C1502 C1498 1.524 . S
C1502 H1514 0.956 . S
C1502 H1515 0.961 . S
C1502 H1516 0.961 . S
C1503 C1500 1.539 . S
C1503 H1517 0.958 . S
C1503 H1518 0.961 . S
C1503 H1519 0.960 . S
H1504 C1488 0.931 . S
H1505 C1493 0.929 . S
H1506 C1494 0.960 . S
H1507 C1494 0.962 . S
H1508 C1494 0.960 . S
H1509 C1495 0.961 . S
H1510 C1495 0.961 . S
H1511 C1495 0.961 . S
H1512 C1496 0.931 . S
H1513 C1501 0.930 . S
H1514 C1502 0.956 . S
H1515 C1502 0.961 . S
H1516 C1502 0.961 . S
H1517 C1503 0.958 . S
H1518 C1503 0.961 . S
H1519 C1503 0.960 . S
C1520 C1521 1.391 . S
C1520 C1522 1.394 . S
C1520 H1536 0.931 . S
C1521 C1520 1.391 . S
C1521 C1525 1.376 . S
C1522 C1520 1.394 . S
C1522 C1523 1.369 . S
C1522 C1526 1.531 . S
C1523 C1522 1.369 . S
C1523 C1524 1.410 . S
C1523 C1531 1.503 . S
C1524 C1523 1.410 . S
C1524 C1525 1.392 . S
C1524 C1527 1.511 . S
C1525 C1521 1.376 . S
C1525 C1524 1.392 . S
C1525 H1537 0.929 . S
C1526 C1522 1.531 . S
C1526 H1538 0.960 . S
C1526 H1539 0.962 . S
C1526 H1540 0.960 . S
C1527 C1524 1.511 . S
C1527 H1541 0.961 . S
C1527 H1542 0.961 . S
C1527 H1543 0.961 . S
C1528 C1529 1.370 . S
C1528 C1530 1.363 . S
C1528 H1544 0.931 . S
C1529 C1528 1.370 . S
C1529 C1533 1.408 . S
C1530 C1528 1.363 . S
C1530 C1531 1.370 . S
C1530 C1534 1.524 . S
C1531 C1523 1.503 . S
C1531 C1530 1.370 . S
C1531 C1532 1.403 . S
C1532 C1531 1.403 . S
C1532 C1533 1.404 . S
C1532 C1535 1.539 . S
C1533 C1529 1.408 . S
C1533 C1532 1.404 . S
C1533 H1545 0.930 . S
C1534 C1530 1.524 . S
C1534 H1546 0.956 . S
C1534 H1547 0.961 . S
C1534 H1548 0.961 . S
C1535 C1532 1.539 . S
C1535 H1549 0.958 . S
C1535 H1550 0.961 . S
C1535 H1551 0.960 . S
H1536 C1520 0.931 . S
H1537 C1525 0.929 . S
H1538 C1526 0.960 . S
H1539 C1526 0.962 . S
H1540 C1526 0.960 . S
H1541 C1527 0.961 . S
H1542 C1527 0.961 . S
H1543 C1527 0.961 . S
H1544 C1528 0.931 . S
H1545 C1533 0.930 . S
H1546 C1534 0.956 . S
H1547 C1534 0.961 . S
H1548 C1534 0.961 . S
H1549 C1535 0.958 . S
H1550 C1535 0.961 . S
H1551 C1535 0.960 . S
C1552 C1553 1.391 . S
C1552 C1554 1.394 . S
C1552 H1568 0.931 . S
C1553 C1552 1.391 . S
C1553 C1557 1.376 . S
C1554 C1552 1.394 . S
C1554 C1555 1.369 . S
C1554 C1558 1.531 . S
C1555 C1554 1.369 . S
C1555 C1556 1.410 . S
C1555 C1563 1.503 . S
C1556 C1555 1.410 . S
C1556 C1557 1.392 . S
C1556 C1559 1.511 . S
C1557 C1553 1.376 . S
C1557 C1556 1.392 . S
C1557 H1569 0.929 . S
C1558 C1554 1.531 . S
C1558 H1570 0.960 . S
C1558 H1571 0.962 . S
C1558 H1572 0.960 . S
C1559 C1556 1.511 . S
C1559 H1573 0.961 . S
C1559 H1574 0.961 . S
C1559 H1575 0.961 . S
C1560 C1561 1.370 . S
C1560 C1562 1.363 . S
C1560 H1576 0.931 . S
C1561 C1560 1.370 . S
C1561 C1565 1.408 . S
C1562 C1560 1.363 . S
C1562 C1563 1.370 . S
C1562 C1566 1.524 . S
C1563 C1555 1.503 . S
C1563 C1562 1.370 . S
C1563 C1564 1.403 . S
C1564 C1563 1.403 . S
C1564 C1565 1.404 . S
C1564 C1567 1.539 . S
C1565 C1561 1.408 . S
C1565 C1564 1.404 . S
C1565 H1577 0.930 . S
C1566 C1562 1.524 . S
C1566 H1578 0.956 . S
C1566 H1579 0.961 . S
C1566 H1580 0.961 . S
C1567 C1564 1.539 . S
C1567 H1581 0.958 . S
C1567 H1582 0.961 . S
C1567 H1583 0.960 . S
H1568 C1552 0.931 . S
H1569 C1557 0.929 . S
H1570 C1558 0.960 . S
H1571 C1558 0.962 . S
H1572 C1558 0.960 . S
H1573 C1559 0.961 . S
H1574 C1559 0.961 . S
H1575 C1559 0.961 . S
H1576 C1560 0.931 . S
H1577 C1565 0.930 . S
H1578 C1566 0.956 . S
H1579 C1566 0.961 . S
H1580 C1566 0.961 . S
H1581 C1567 0.958 . S
H1582 C1567 0.961 . S
H1583 C1567 0.960 . S
C1584 C1585 1.391 . S
C1584 C1586 1.394 . S
C1584 H1600 0.931 . S
C1585 C1584 1.391 . S
C1585 C1589 1.376 . S
C1586 C1584 1.394 . S
C1586 C1587 1.369 . S
C1586 C1590 1.531 . S
C1587 C1586 1.369 . S
C1587 C1588 1.410 . S
C1587 C1595 1.503 . S
C1588 C1587 1.410 . S
C1588 C1589 1.392 . S
C1588 C1591 1.511 . S
C1589 C1585 1.376 . S
C1589 C1588 1.392 . S
C1589 H1601 0.929 . S
C1590 C1586 1.531 . S
C1590 H1602 0.960 . S
C1590 H1603 0.962 . S
C1590 H1604 0.960 . S
C1591 C1588 1.511 . S
C1591 H1605 0.961 . S
C1591 H1606 0.961 . S
C1591 H1607 0.961 . S
C1592 C1593 1.370 . S
C1592 C1594 1.363 . S
C1592 H1608 0.931 . S
C1593 C1592 1.370 . S
C1593 C1597 1.408 . S
C1594 C1592 1.363 . S
C1594 C1595 1.370 . S
C1594 C1598 1.524 . S
C1595 C1587 1.503 . S
C1595 C1594 1.370 . S
C1595 C1596 1.403 . S
C1596 C1595 1.403 . S
C1596 C1597 1.404 . S
C1596 C1599 1.539 . S
C1597 C1593 1.408 . S
C1597 C1596 1.404 . S
C1597 H1609 0.930 . S
C1598 C1594 1.524 . S
C1598 H1610 0.956 . S
C1598 H1611 0.961 . S
C1598 H1612 0.961 . S
C1599 C1596 1.539 . S
C1599 H1613 0.958 . S
C1599 H1614 0.961 . S
C1599 H1615 0.960 . S
H1600 C1584 0.931 . S
H1601 C1589 0.929 . S
H1602 C1590 0.960 . S
H1603 C1590 0.962 . S
H1604 C1590 0.960 . S
H1605 C1591 0.961 . S
H1606 C1591 0.961 . S
H1607 C1591 0.961 . S
H1608 C1592 0.931 . S
H1609 C1597 0.930 . S
H1610 C1598 0.956 . S
H1611 C1598 0.961 . S
H1612 C1598 0.961 . S
H1613 C1599 0.958 . S
H1614 C1599 0.961 . S
H1615 C1599 0.960 . S
C1616 C1617 1.391 . S
C1616 C1618 1.394 . S
C1616 H1632 0.931 . S
C1617 C1616 1.391 . S
C1617 C1621 1.376 . S
C1618 C1616 1.394 . S
C1618 C1619 1.369 . S
C1618 C1622 1.531 . S
C1619 C1618 1.369 . S
C1619 C1620 1.410 . S
C1619 C1627 1.503 . S
C1620 C1619 1.410 . S
C1620 C1621 1.392 . S
C1620 C1623 1.511 . S
C1621 C1617 1.376 . S
C1621 C1620 1.392 . S
C1621 H1633 0.929 . S
C1622 C1618 1.531 . S
C1622 H1634 0.960 . S
C1622 H1635 0.962 . S
C1622 H1636 0.960 . S
C1623 C1620 1.511 . S
C1623 H1637 0.961 . S
C1623 H1638 0.961 . S
C1623 H1639 0.961 . S
C1624 C1625 1.370 . S
C1624 C1626 1.363 . S
C1624 H1640 0.931 . S
C1625 C1624 1.370 . S
C1625 C1629 1.408 . S
C1626 C1624 1.363 . S
C1626 C1627 1.370 . S
C1626 C1630 1.524 . S
C1627 C1619 1.503 . S
C1627 C1626 1.370 . S
C1627 C1628 1.403 . S
C1628 C1627 1.403 . S
C1628 C1629 1.404 . S
C1628 C1631 1.539 . S
C1629 C1625 1.408 . S
C1629 C1628 1.404 . S
C1629 H1641 0.930 . S
C1630 C1626 1.524 . S
C1630 H1642 0.956 . S
C1630 H1643 0.961 . S
C1630 H1644 0.961 . S
C1631 C1628 1.539 . S
C1631 H1645 0.958 . S
C1631 H1646 0.961 . S
C1631 H1647 0.960 . S
H1632 C1616 0.931 . S
H1633 C1621 0.929 . S
H1634 C1622 0.960 . S
H1635 C1622 0.962 . S
H1636 C1622 0.960 . S
H1637 C1623 0.961 . S
H1638 C1623 0.961 . S
H1639 C1623 0.961 . S
H1640 C1624 0.931 . S
H1641 C1629 0.930 . S
H1642 C1630 0.956 . S
H1643 C1630 0.961 . S
H1644 C1630 0.961 . S
H1645 C1631 0.958 . S
H1646 C1631 0.961 . S
H1647 C1631 0.960 . S
C1648 C1649 1.391 . S
C1648 C1650 1.394 . S
C1648 H1664 0.931 . S
C1649 C1648 1.391 . S
C1649 C1653 1.376 . S
C1650 C1648 1.394 . S
C1650 C1651 1.369 . S
C1650 C1654 1.531 . S
C1651 C1650 1.369 . S
C1651 C1652 1.410 . S
C1651 C1659 1.503 . S
C1652 C1651 1.410 . S
C1652 C1653 1.392 . S
C1652 C1655 1.511 . S
C1653 C1649 1.376 . S
C1653 C1652 1.392 . S
C1653 H1665 0.929 . S
C1654 C1650 1.531 . S
C1654 H1666 0.960 . S
C1654 H1667 0.962 . S
C1654 H1668 0.960 . S
C1655 C1652 1.511 . S
C1655 H1669 0.961 . S
C1655 H1670 0.961 . S
C1655 H1671 0.961 . S
C1656 C1657 1.370 . S
C1656 C1658 1.363 . S
C1656 H1672 0.931 . S
C1657 C1656 1.370 . S
C1657 C1661 1.408 . S
C1658 C1656 1.363 . S
C1658 C1659 1.370 . S
C1658 C1662 1.524 . S
C1659 C1651 1.503 . S
C1659 C1658 1.370 . S
C1659 C1660 1.403 . S
C1660 C1659 1.403 . S
C1660 C1661 1.404 . S
C1660 C1663 1.539 . S
C1661 C1657 1.408 . S
C1661 C1660 1.404 . S
C1661 H1673 0.930 . S
C1662 C1658 1.524 . S
C1662 H1674 0.956 . S
C1662 H1675 0.961 . S
C1662 H1676 0.961 . S
C1663 C1660 1.539 . S
C1663 H1677 0.958 . S
C1663 H1678 0.961 . S
C1663 H1679 0.960 . S
H1664 C1648 0.931 . S
H1665 C1653 0.929 . S
H1666 C1654 0.960 . S
H1667 C1654 0.962 . S
H1668 C1654 0.960 . S
H1669 C1655 0.961 . S
H1670 C1655 0.961 . S
H1671 C1655 0.961 . S
H1672 C1656 0.931 . S
H1673 C1661 0.930 . S
H1674 C1662 0.956 . S
H1675 C1662 0.961 . S
H1676 C1662 0.961 . S
H1677 C1663 0.958 . S
H1678 C1663 0.961 . S
H1679 C1663 0.960 . S
C1680 C1681 1.391 . S
C1680 C1682 1.394 . S
C1680 H1696 0.931 . S
C1681 C1680 1.391 . S
C1681 C1685 1.376 . S
C1682 C1680 1.394 . S
C1682 C1683 1.369 . S
C1682 C1686 1.531 . S
C1683 C1682 1.369 . S
C1683 C1684 1.410 . S
C1683 C1691 1.503 . S
C1684 C1683 1.410 . S
C1684 C1685 1.392 . S
C1684 C1687 1.511 . S
C1685 C1681 1.376 . S
C1685 C1684 1.392 . S
C1685 H1697 0.929 . S
C1686 C1682 1.531 . S
C1686 H1698 0.960 . S
C1686 H1699 0.962 . S
C1686 H1700 0.960 . S
C1687 C1684 1.511 . S
C1687 H1701 0.961 . S
C1687 H1702 0.961 . S
C1687 H1703 0.961 . S
C1688 C1689 1.370 . S
C1688 C1690 1.363 . S
C1688 H1704 0.931 . S
C1689 C1688 1.370 . S
C1689 C1693 1.408 . S
C1690 C1688 1.363 . S
C1690 C1691 1.370 . S
C1690 C1694 1.524 . S
C1691 C1683 1.503 . S
C1691 C1690 1.370 . S
C1691 C1692 1.403 . S
C1692 C1691 1.403 . S
C1692 C1693 1.404 . S
C1692 C1695 1.539 . S
C1693 C1689 1.408 . S
C1693 C1692 1.404 . S
C1693 H1705 0.930 . S
C1694 C1690 1.524 . S
C1694 H1706 0.956 . S
C1694 H1707 0.961 . S
C1694 H1708 0.961 . S
C1695 C1692 1.539 . S
C1695 H1709 0.958 . S
C1695 H1710 0.961 . S
C1695 H1711 0.960 . S
H1696 C1680 0.931 . S
H1697 C1685 0.929 . S
H1698 C1686 0.960 . S
H1699 C1686 0.962 . S
H1700 C1686 0.960 . S
H1701 C1687 0.961 . S
H1702 C1687 0.961 . S
H1703 C1687 0.961 . S
H1704 C1688 0.931 . S
H1705 C1693 0.930 . S
H1706 C1694 0.956 . S
H1707 C1694 0.961 . S
H1708 C1694 0.961 . S
H1709 C1695 0.958 . S
H1710 C1695 0.961 . S
H1711 C1695 0.960 . S
C1712 C1713 1.391 . S
C1712 C1714 1.394 . S
C1712 H1728 0.931 . S
C1713 C1712 1.391 . S
C1713 C1717 1.376 . S
C1714 C1712 1.394 . S
C1714 C1715 1.369 . S
C1714 C1718 1.531 1_565 S
C1715 C1714 1.369 . S
C1715 C1716 1.410 1_655 S
C1715 C1723 1.503 1_665 S
C1716 C1715 1.410 1_455 S
C1716 C1717 1.392 1_455 S
C1716 C1719 1.511 . S
C1717 C1713 1.376 . S
C1717 C1716 1.392 1_655 S
C1717 H1729 0.929 1_655 S
C1718 C1714 1.531 1_545 S
C1718 H1730 0.960 . S
C1718 H1731 0.962 . S
C1718 H1732 0.960 . S
C1719 C1716 1.511 . S
C1719 H1733 0.961 . S
C1719 H1734 0.961 . S
C1719 H1735 0.961 . S
C1720 C1721 1.370 . S
C1720 C1722 1.363 . S
C1720 H1736 0.931 . S
C1721 C1720 1.370 . S
C1721 C1725 1.408 . S
C1722 C1720 1.363 . S
C1722 C1723 1.370 . S
C1722 C1726 1.524 . S
C1723 C1715 1.503 1_445 S
C1723 C1722 1.370 . S
C1723 C1724 1.403 . S
C1724 C1723 1.403 . S
C1724 C1725 1.404 . S
C1724 C1727 1.539 1_455 S
C1725 C1721 1.408 . S
C1725 C1724 1.404 . S
C1725 H1737 0.930 . S
C1726 C1722 1.524 . S
C1726 H1738 0.956 1_545 S
C1726 H1739 0.961 1_545 S
C1726 H1740 0.961 . S
C1727 C1724 1.539 1_655 S
C1727 H1741 0.958 . S
C1727 H1742 0.961 . S
C1727 H1743 0.960 . S
H1728 C1712 0.931 . S
H1729 C1717 0.929 1_455 S
H1730 C1718 0.960 . S
H1731 C1718 0.962 . S
H1732 C1718 0.960 . S
H1733 C1719 0.961 . S
H1734 C1719 0.961 . S
H1735 C1719 0.961 . S
H1736 C1720 0.931 . S
H1737 C1725 0.930 . S
H1738 C1726 0.956 1_565 S
H1739 C1726 0.961 1_565 S
H1740 C1726 0.961 . S
H1741 C1727 0.958 . S
H1742 C1727 0.961 . S
H1743 C1727 0.960 . S
C1744 C1745 1.391 . S
C1744 C1746 1.394 1_545 S
C1744 H1760 0.931 1_545 S
C1745 C1744 1.391 . S
C1745 C1749 1.376 . S
C1746 C1744 1.394 1_565 S
C1746 C1747 1.369 1_565 S
C1746 C1750 1.531 . S
C1747 C1746 1.369 1_545 S
C1747 C1748 1.410 . S
C1747 C1755 1.503 1_645 S
C1748 C1747 1.410 . S
C1748 C1749 1.392 . S
C1748 C1751 1.511 1_655 S
C1749 C1745 1.376 . S
C1749 C1748 1.392 . S
C1749 H1761 0.929 . S
C1750 C1746 1.531 . S
C1750 H1762 0.960 . S
C1750 H1763 0.962 . S
C1750 H1764 0.960 . S
C1751 C1748 1.511 1_455 S
C1751 H1765 0.961 . S
C1751 H1766 0.961 . S
C1751 H1767 0.961 . S
C1752 C1753 1.370 . S
C1752 C1754 1.363 . S
C1752 H1768 0.931 . S
C1753 C1752 1.370 . S
C1753 C1757 1.408 . S
C1754 C1752 1.363 . S
C1754 C1755 1.370 . S
C1754 C1758 1.524 . S
C1755 C1747 1.503 1_465 S
C1755 C1754 1.370 . S
C1755 C1756 1.403 . S
C1756 C1755 1.403 . S
C1756 C1757 1.404 . S
C1756 C1759 1.539 1_565 S
C1757 C1753 1.408 . S
C1757 C1756 1.404 . S
C1757 H1769 0.930 . S
C1758 C1754 1.524 . S
C1758 H1770 0.956 1_455 S
C1758 H1771 0.961 1_455 S
C1758 H1772 0.961 . S
C1759 C1756 1.539 1_545 S
C1759 H1773 0.958 . S
C1759 H1774 0.961 . S
C1759 H1775 0.960 . S
H1760 C1744 0.931 1_565 S
H1761 C1749 0.929 . S
H1762 C1750 0.960 . S
H1763 C1750 0.962 . S
H1764 C1750 0.960 . S
H1765 C1751 0.961 . S
H1766 C1751 0.961 . S
H1767 C1751 0.961 . S
H1768 C1752 0.931 . S
H1769 C1757 0.930 . S
H1770 C1758 0.956 1_655 S
H1771 C1758 0.961 1_655 S
H1772 C1758 0.961 . S
H1773 C1759 0.958 . S
H1774 C1759 0.961 . S
H1775 C1759 0.960 . S
C1776 C1777 1.391 . S
C1776 C1778 1.394 1_455 S
C1776 H1792 0.931 1_455 S
C1777 C1776 1.391 . S
C1777 C1781 1.376 . S
C1778 C1776 1.394 1_655 S
C1778 C1779 1.369 1_655 S
C1778 C1782 1.531 . S
C1779 C1778 1.369 1_455 S
C1779 C1780 1.410 . S
C1779 C1787 1.503 1_455 S
C1780 C1779 1.410 . S
C1780 C1781 1.392 . S
C1780 C1783 1.511 . S
C1781 C1777 1.376 . S
C1781 C1780 1.392 . S
C1781 H1793 0.929 . S
C1782 C1778 1.531 . S
C1782 H1794 0.960 . S
C1782 H1795 0.962 . S
C1782 H1796 0.960 . S
C1783 C1780 1.511 . S
C1783 H1797 0.961 . S
C1783 H1798 0.961 . S
C1783 H1799 0.961 . S
C1784 C1785 1.370 . S
C1784 C1786 1.363 . S
C1784 H1800 0.931 . S
C1785 C1784 1.370 . S
C1785 C1789 1.408 . S
C1786 C1784 1.363 . S
C1786 C1787 1.370 . S
C1786 C1790 1.524 . S
C1787 C1779 1.503 1_655 S
C1787 C1786 1.370 . S
C1787 C1788 1.403 . S
C1788 C1787 1.403 . S
C1788 C1789 1.404 . S
C1788 C1791 1.539 1_655 S
C1789 C1785 1.408 . S
C1789 C1788 1.404 . S
C1789 H1801 0.930 . S
C1790 C1786 1.524 . S
C1790 H1802 0.956 . S
C1790 H1803 0.961 . S
C1790 H1804 0.961 . S
C1791 C1788 1.539 1_455 S
C1791 H1805 0.958 1_556 S
C1791 H1806 0.961 . S
C1791 H1807 0.960 . S
H1792 C1776 0.931 1_655 S
H1793 C1781 0.929 . S
H1794 C1782 0.960 . S
H1795 C1782 0.962 . S
H1796 C1782 0.960 . S
H1797 C1783 0.961 . S
H1798 C1783 0.961 . S
H1799 C1783 0.961 . S
H1800 C1784 0.931 . S
H1801 C1789 0.930 . S
H1802 C1790 0.956 . S
H1803 C1790 0.961 . S
H1804 C1790 0.961 . S
H1805 C1791 0.958 1_554 S
H1806 C1791 0.961 . S
H1807 C1791 0.960 . S
C1808 C1809 1.391 . S
C1808 C1810 1.394 1_565 S
C1808 H1824 0.931 1_565 S
C1809 C1808 1.391 . S
C1809 C1813 1.376 . S
C1810 C1808 1.394 1_545 S
C1810 C1811 1.369 1_545 S
C1810 C1814 1.531 . S
C1811 C1810 1.369 1_565 S
C1811 C1812 1.410 . S
C1811 C1819 1.503 1_565 S
C1812 C1811 1.410 . S
C1812 C1813 1.392 . S
C1812 C1815 1.511 . S
C1813 C1809 1.376 . S
C1813 C1812 1.392 . S
C1813 H1825 0.929 . S
C1814 C1810 1.531 . S
C1814 H1826 0.960 . S
C1814 H1827 0.962 . S
C1814 H1828 0.960 . S
C1815 C1812 1.511 . S
C1815 H1829 0.961 . S
C1815 H1830 0.961 . S
C1815 H1831 0.961 . S
C1816 C1817 1.370 . S
C1816 C1818 1.363 . S
C1816 H1832 0.931 . S
C1817 C1816 1.370 . S
C1817 C1821 1.408 . S
C1818 C1816 1.363 . S
C1818 C1819 1.370 . S
C1818 C1822 1.524 . S
C1819 C1811 1.503 1_545 S
C1819 C1818 1.370 . S
C1819 C1820 1.403 . S
C1820 C1819 1.403 . S
C1820 C1821 1.404 . S
C1820 C1823 1.539 1_545 S
C1821 C1817 1.408 . S
C1821 C1820 1.404 . S
C1821 H1833 0.930 . S
C1822 C1818 1.524 . S
C1822 H1834 0.956 . S
C1822 H1835 0.961 1_545 S
C1822 H1836 0.961 . S
C1823 C1820 1.539 1_565 S
C1823 H1837 0.958 1_565 S
C1823 H1838 0.961 . S
C1823 H1839 0.960 . S
H1824 C1808 0.931 1_545 S
H1825 C1813 0.929 . S
H1826 C1814 0.960 . S
H1827 C1814 0.962 . S
H1828 C1814 0.960 . S
H1829 C1815 0.961 . S
H1830 C1815 0.961 . S
H1831 C1815 0.961 . S
H1832 C1816 0.931 . S
H1833 C1821 0.930 . S
H1834 C1822 0.956 . S
H1835 C1822 0.961 1_565 S
H1836 C1822 0.961 . S
H1837 C1823 0.958 1_545 S
H1838 C1823 0.961 . S
H1839 C1823 0.960 . S
C1840 C1841 1.391 . S
C1840 C1842 1.394 . S
C1840 H1856 0.931 . S
C1841 C1840 1.391 . S
C1841 C1845 1.376 . S
C1842 C1840 1.394 . S
C1842 C1843 1.369 . S
C1842 C1846 1.531 . S
C1843 C1842 1.369 . S
C1843 C1844 1.410 . S
C1843 C1851 1.503 . S
C1844 C1843 1.410 . S
C1844 C1845 1.392 . S
C1844 C1847 1.511 . S
C1845 C1841 1.376 . S
C1845 C1844 1.392 . S
C1845 H1857 0.929 . S
C1846 C1842 1.531 . S
C1846 H1858 0.960 . S
C1846 H1859 0.962 . S
C1846 H1860 0.960 . S
C1847 C1844 1.511 . S
C1847 H1861 0.961 . S
C1847 H1862 0.961 . S
C1847 H1863 0.961 . S
C1848 C1849 1.370 . S
C1848 C1850 1.363 . S
C1848 H1864 0.931 . S
C1849 C1848 1.370 . S
C1849 C1853 1.408 . S
C1850 C1848 1.363 . S
C1850 C1851 1.370 . S
C1850 C1854 1.524 . S
C1851 C1843 1.503 . S
C1851 C1850 1.370 . S
C1851 C1852 1.403 . S
C1852 C1851 1.403 . S
C1852 C1853 1.404 . S
C1852 C1855 1.539 . S
C1853 C1849 1.408 . S
C1853 C1852 1.404 . S
C1853 H1865 0.930 . S
C1854 C1850 1.524 . S
C1854 H1866 0.956 . S
C1854 H1867 0.961 . S
C1854 H1868 0.961 . S
C1855 C1852 1.539 . S
C1855 H1869 0.958 . S
C1855 H1870 0.961 . S
C1855 H1871 0.960 . S
H1856 C1840 0.931 . S
H1857 C1845 0.929 . S
H1858 C1846 0.960 . S
H1859 C1846 0.962 . S
H1860 C1846 0.960 . S
H1861 C1847 0.961 . S
H1862 C1847 0.961 . S
H1863 C1847 0.961 . S
H1864 C1848 0.931 . S
H1865 C1853 0.930 . S
H1866 C1854 0.956 . S
H1867 C1854 0.961 . S
H1868 C1854 0.961 . S
H1869 C1855 0.958 . S
H1870 C1855 0.961 . S
H1871 C1855 0.960 . S
C1872 C1873 1.391 . S
C1872 C1874 1.394 . S
C1872 H1888 0.931 . S
C1873 C1872 1.391 . S
C1873 C1877 1.376 . S
C1874 C1872 1.394 . S
C1874 C1875 1.369 . S
C1874 C1878 1.531 . S
C1875 C1874 1.369 . S
C1875 C1876 1.410 . S
C1875 C1883 1.503 . S
C1876 C1875 1.410 . S
C1876 C1877 1.392 . S
C1876 C1879 1.511 . S
C1877 C1873 1.376 . S
C1877 C1876 1.392 . S
C1877 H1889 0.929 . S
C1878 C1874 1.531 . S
C1878 H1890 0.960 . S
C1878 H1891 0.962 . S
C1878 H1892 0.960 . S
C1879 C1876 1.511 . S
C1879 H1893 0.961 . S
C1879 H1894 0.961 . S
C1879 H1895 0.961 . S
C1880 C1881 1.370 . S
C1880 C1882 1.363 . S
C1880 H1896 0.931 . S
C1881 C1880 1.370 . S
C1881 C1885 1.408 . S
C1882 C1880 1.363 . S
C1882 C1883 1.370 . S
C1882 C1886 1.524 . S
C1883 C1875 1.503 . S
C1883 C1882 1.370 . S
C1883 C1884 1.403 . S
C1884 C1883 1.403 . S
C1884 C1885 1.404 . S
C1884 C1887 1.539 . S
C1885 C1881 1.408 . S
C1885 C1884 1.404 . S
C1885 H1897 0.930 . S
C1886 C1882 1.524 . S
C1886 H1898 0.956 . S
C1886 H1899 0.961 . S
C1886 H1900 0.961 . S
C1887 C1884 1.539 . S
C1887 H1901 0.958 . S
C1887 H1902 0.961 . S
C1887 H1903 0.960 . S
H1888 C1872 0.931 . S
H1889 C1877 0.929 . S
H1890 C1878 0.960 . S
H1891 C1878 0.962 . S
H1892 C1878 0.960 . S
H1893 C1879 0.961 . S
H1894 C1879 0.961 . S
H1895 C1879 0.961 . S
H1896 C1880 0.931 . S
H1897 C1885 0.930 . S
H1898 C1886 0.956 . S
H1899 C1886 0.961 . S
H1900 C1886 0.961 . S
H1901 C1887 0.958 . S
H1902 C1887 0.961 . S
H1903 C1887 0.960 . S
C1904 C1905 1.391 . S
C1904 C1906 1.394 . S
C1904 H1920 0.931 . S
C1905 C1904 1.391 . S
C1905 C1909 1.376 . S
C1906 C1904 1.394 . S
C1906 C1907 1.369 . S
C1906 C1910 1.531 1_545 S
C1907 C1906 1.369 . S
C1907 C1908 1.410 . S
C1907 C1915 1.503 1_545 S
C1908 C1907 1.410 . S
C1908 C1909 1.392 . S
C1908 C1911 1.511 . S
C1909 C1905 1.376 . S
C1909 C1908 1.392 . S
C1909 H1921 0.929 . S
C1910 C1906 1.531 1_565 S
C1910 H1922 0.960 . S
C1910 H1923 0.962 . S
C1910 H1924 0.960 . S
C1911 C1908 1.511 . S
C1911 H1925 0.961 . S
C1911 H1926 0.961 . S
C1911 H1927 0.961 . S
C1912 C1913 1.370 . S
C1912 C1914 1.363 . S
C1912 H1928 0.931 . S
C1913 C1912 1.370 . S
C1913 C1917 1.408 . S
C1914 C1912 1.363 . S
C1914 C1915 1.370 . S
C1914 C1918 1.524 . S
C1915 C1907 1.503 1_565 S
C1915 C1914 1.370 . S
C1915 C1916 1.403 . S
C1916 C1915 1.403 . S
C1916 C1917 1.404 . S
C1916 C1919 1.539 . S
C1917 C1913 1.408 . S
C1917 C1916 1.404 . S
C1917 H1929 0.930 . S
C1918 C1914 1.524 . S
C1918 H1930 0.956 . S
C1918 H1931 0.961 1_565 S
C1918 H1932 0.961 . S
C1919 C1916 1.539 . S
C1919 H1933 0.958 . S
C1919 H1934 0.961 . S
C1919 H1935 0.960 1_565 S
H1920 C1904 0.931 . S
H1921 C1909 0.929 . S
H1922 C1910 0.960 . S
H1923 C1910 0.962 . S
H1924 C1910 0.960 . S
H1925 C1911 0.961 . S
H1926 C1911 0.961 . S
H1927 C1911 0.961 . S
H1928 C1912 0.931 . S
H1929 C1917 0.930 . S
H1930 C1918 0.956 . S
H1931 C1918 0.961 1_545 S
H1932 C1918 0.961 . S
H1933 C1919 0.958 . S
H1934 C1919 0.961 . S
H1935 C1919 0.960 1_545 S
C1936 C1937 1.391 . S
C1936 C1938 1.394 . S
C1936 H1952 0.931 . S
C1937 C1936 1.391 . S
C1937 C1941 1.376 . S
C1938 C1936 1.394 . S
C1938 C1939 1.369 . S
C1938 C1942 1.531 . S
C1939 C1938 1.369 . S
C1939 C1940 1.410 . S
C1939 C1947 1.503 1_655 S
C1940 C1939 1.410 . S
C1940 C1941 1.392 . S
C1940 C1943 1.517 . S
C1941 C1937 1.376 . S
C1941 C1940 1.392 . S
C1941 H1953 0.929 . S
C1942 C1938 1.531 . S
C1942 H1954 0.977 . S
C1942 H1955 0.962 . S
C1942 H1956 0.960 . S
C1943 C1940 1.517 . S
C1943 H1957 0.965 . S
C1943 H1958 0.956 1_655 S
C1943 H1959 0.956 1_655 S
C1944 C1945 1.370 . S
C1944 C1946 1.363 . S
C1944 H1960 0.931 . S
C1945 C1944 1.370 . S
C1945 C1949 1.408 . S
C1946 C1944 1.363 . S
C1946 C1947 1.370 . S
C1946 C1950 1.524 1_455 S
C1947 C1939 1.503 1_455 S
C1947 C1946 1.370 . S
C1947 C1948 1.403 . S
C1948 C1947 1.403 . S
C1948 C1949 1.404 . S
C1948 C1951 1.539 . S
C1949 C1945 1.408 . S
C1949 C1948 1.404 . S
C1949 H1961 0.930 . S
C1950 C1946 1.524 1_655 S
C1950 H1962 0.956 . S
C1950 H1963 0.961 . S
C1950 H1964 0.961 . S
C1951 C1948 1.539 . S
C1951 H1965 0.958 . S
C1951 H1966 0.961 . S
C1951 H1967 0.960 . S
H1952 C1936 0.931 . S
H1953 C1941 0.929 . S
H1954 C1942 0.977 . S
H1955 C1942 0.962 . S
H1956 C1942 0.960 . S
H1957 C1943 0.965 . S
H1958 C1943 0.956 1_455 S
H1959 C1943 0.956 1_455 S
H1960 C1944 0.931 . S
H1961 C1949 0.930 . S
H1962 C1950 0.956 . S
H1963 C1950 0.961 . S
H1964 C1950 0.961 . S
H1965 C1951 0.958 . S
H1966 C1951 0.961 . S
H1967 C1951 0.960 . S
C945 C33 1.307 . S
C953 C701 1.311 . S
C977 C524 1.303 . S
C985 C92 1.311 . S
C1009 C583 1.316 . S
C1017 C151 1.302 . S
C1041 C642 1.318 . S
C1049 C210 1.311 . S
C1073 C347 1.303 1_545 S
C1081 C269 1.308 . S
C1105 C328 1.300 . S
C1113 C406 1.312 1_455 S
C1137 C387 1.296 . S
C1145 C465 1.312 1_565 S
C1169 C446 1.295 . S
C1177 C288 1.313 1_655 S
C1201 C505 1.321 . S
C1209 C229 1.316 1_565 S
C1233 C52 1.306 1_655 S
C1241 C564 1.305 . S
C1265 C111 1.305 1_545 S
C1273 C623 1.313 . S
C1297 C170 1.320 1_455 S
C1305 C682 1.303 . S
C1329 C819 1.319 . S
C1337 C741 1.304 . S
C1361 C800 1.296 . S
C1369 C878 1.319 . S
C1393 C937 1.310 . S
C1401 C859 1.315 . S
C1425 C760 1.319 . S
C1433 C918 1.302 . S
C1457 C831 1.511 . S
C1465 C5 1.511 . S
C1489 C890 1.517 . S
C1497 C64 1.505 . S
C1521 C713 1.502 . S
C1529 C123 1.514 . S
C1553 C182 1.497 . S
C1561 C772 1.513 . S
C1585 C241 1.516 . S
C1593 C595 1.508 . S
C1617 C654 1.494 . S
C1625 C300 1.515 . S
C1649 C359 1.506 . S
C1657 C477 1.513 . S
C1681 C418 1.519 . S
C1689 C536 1.504 . S
C1713 C121 1.378 . S
C1721 C3 1.367 . S
C1745 C180 1.379 . S
C1753 C62 1.364 . S
C1777 C239 1.373 . S
C1785 C357 1.361 . S
C1809 C298 1.374 . S
C1817 C416 1.366 . S
C1841 C593 1.370 . S
C1849 C475 1.363 . S
C1873 C534 1.349 . S
C1881 C652 1.374 . S
C1905 C829 1.371 . S
C1913 C711 1.370 . S
C1937 C770 1.388 . S
C1945 C888 1.359 . S
