# Generated by pormake.
# Topology unr, (4)-cn, num edge types: 1
# Building blocks:
#     Node 0, Type 0, BuildingBlock: GALJAG_clean_sbu_0, # of connection points: 4
#     Node 1, Type 0, BuildingBlock: GALJAG_clean_sbu_0, # of connection points: 4
#     Node 2, Type 0, BuildingBlock: GALJAG_clean_sbu_0, # of connection points: 4
#     Node 3, Type 0, BuildingBlock: GALJAG_clean_sbu_0, # of connection points: 4
#     Node 4, Type 0, BuildingBlock: GALJAG_clean_sbu_0, # of connection points: 4
#     Node 5, Type 0, BuildingBlock: GALJAG_clean_sbu_0, # of connection points: 4
#     Node 6, Type 0, BuildingBlock: GALJAG_clean_sbu_0, # of connection points: 4
#     Node 7, Type 0, BuildingBlock: GALJAG_clean_sbu_0, # of connection points: 4
#     Node 8, Type 0, BuildingBlock: GALJAG_clean_sbu_0, # of connection points: 4
#     Node 9, Type 0, BuildingBlock: GALJAG_clean_sbu_0, # of connection points: 4
#     Node 10, Type 0, BuildingBlock: GALJAG_clean_sbu_0, # of connection points: 4
#     Node 11, Type 0, BuildingBlock: GALJAG_clean_sbu_0, # of connection points: 4
#     Node 12, Type 0, BuildingBlock: GALJAG_clean_sbu_0, # of connection points: 4
#     Node 13, Type 0, BuildingBlock: GALJAG_clean_sbu_0, # of connection points: 4
#     Node 14, Type 0, BuildingBlock: GALJAG_clean_sbu_0, # of connection points: 4
#     Node 15, Type 0, BuildingBlock: GALJAG_clean_sbu_0, # of connection points: 4
#     Node 16, Type 0, BuildingBlock: GALJAG_clean_sbu_0, # of connection points: 4
#     Node 17, Type 0, BuildingBlock: GALJAG_clean_sbu_0, # of connection points: 4
#     Node 18, Type 0, BuildingBlock: GALJAG_clean_sbu_0, # of connection points: 4
#     Node 19, Type 0, BuildingBlock: GALJAG_clean_sbu_0, # of connection points: 4
#     Node 20, Type 0, BuildingBlock: GALJAG_clean_sbu_0, # of connection points: 4
#     Node 21, Type 0, BuildingBlock: GALJAG_clean_sbu_0, # of connection points: 4
#     Node 22, Type 0, BuildingBlock: GALJAG_clean_sbu_0, # of connection points: 4
#     Node 23, Type 0, BuildingBlock: GALJAG_clean_sbu_0, # of connection points: 4
#     Node 24, Type 0, BuildingBlock: GALJAG_clean_sbu_0, # of connection points: 4
#     Node 25, Type 0, BuildingBlock: GALJAG_clean_sbu_0, # of connection points: 4
#     Node 26, Type 0, BuildingBlock: GALJAG_clean_sbu_0, # of connection points: 4
#     Node 27, Type 0, BuildingBlock: GALJAG_clean_sbu_0, # of connection points: 4
#     Node 28, Type 0, BuildingBlock: GALJAG_clean_sbu_0, # of connection points: 4
#     Node 29, Type 0, BuildingBlock: GALJAG_clean_sbu_0, # of connection points: 4
#     Node 30, Type 0, BuildingBlock: GALJAG_clean_sbu_0, # of connection points: 4
#     Node 31, Type 0, BuildingBlock: GALJAG_clean_sbu_0, # of connection points: 4
#     Node 32, Type 0, BuildingBlock: GALJAG_clean_sbu_0, # of connection points: 4
#     Node 33, Type 0, BuildingBlock: GALJAG_clean_sbu_0, # of connection points: 4
#     Node 34, Type 0, BuildingBlock: GALJAG_clean_sbu_0, # of connection points: 4
#     Node 35, Type 0, BuildingBlock: GALJAG_clean_sbu_0, # of connection points: 4
#     Edge 36, Type (0, 0), BuildingBlock: ZUJKAS_clean_linker_0, # of connection points: 2
#     Edge 37, Type (0, 0), BuildingBlock: ZUJKAS_clean_linker_0, # of connection points: 2
#     Edge 38, Type (0, 0), BuildingBlock: ZUJKAS_clean_linker_0, # of connection points: 2
#     Edge 39, Type (0, 0), BuildingBlock: ZUJKAS_clean_linker_0, # of connection points: 2
#     Edge 40, Type (0, 0), BuildingBlock: ZUJKAS_clean_linker_0, # of connection points: 2
#     Edge 41, Type (0, 0), BuildingBlock: ZUJKAS_clean_linker_0, # of connection points: 2
#     Edge 42, Type (0, 0), BuildingBlock: ZUJKAS_clean_linker_0, # of connection points: 2
#     Edge 43, Type (0, 0), BuildingBlock: ZUJKAS_clean_linker_0, # of connection points: 2
#     Edge 44, Type (0, 0), BuildingBlock: ZUJKAS_clean_linker_0, # of connection points: 2
#     Edge 45, Type (0, 0), BuildingBlock: ZUJKAS_clean_linker_0, # of connection points: 2
#     Edge 46, Type (0, 0), BuildingBlock: ZUJKAS_clean_linker_0, # of connection points: 2
#     Edge 47, Type (0, 0), BuildingBlock: ZUJKAS_clean_linker_0, # of connection points: 2
#     Edge 48, Type (0, 0), BuildingBlock: ZUJKAS_clean_linker_0, # of connection points: 2
#     Edge 49, Type (0, 0), BuildingBlock: ZUJKAS_clean_linker_0, # of connection points: 2
#     Edge 50, Type (0, 0), BuildingBlock: ZUJKAS_clean_linker_0, # of connection points: 2
#     Edge 51, Type (0, 0), BuildingBlock: ZUJKAS_clean_linker_0, # of connection points: 2
#     Edge 52, Type (0, 0), BuildingBlock: ZUJKAS_clean_linker_0, # of connection points: 2
#     Edge 53, Type (0, 0), BuildingBlock: ZUJKAS_clean_linker_0, # of connection points: 2
#     Edge 54, Type (0, 0), BuildingBlock: ZUJKAS_clean_linker_0, # of connection points: 2
#     Edge 55, Type (0, 0), BuildingBlock: ZUJKAS_clean_linker_0, # of connection points: 2
#     Edge 56, Type (0, 0), BuildingBlock: ZUJKAS_clean_linker_0, # of connection points: 2
#     Edge 57, Type (0, 0), BuildingBlock: ZUJKAS_clean_linker_0, # of connection points: 2
#     Edge 58, Type (0, 0), BuildingBlock: ZUJKAS_clean_linker_0, # of connection points: 2
#     Edge 59, Type (0, 0), BuildingBlock: ZUJKAS_clean_linker_0, # of connection points: 2
#     Edge 60, Type (0, 0), BuildingBlock: ZUJKAS_clean_linker_0, # of connection points: 2
#     Edge 61, Type (0, 0), BuildingBlock: ZUJKAS_clean_linker_0, # of connection points: 2
#     Edge 62, Type (0, 0), BuildingBlock: ZUJKAS_clean_linker_0, # of connection points: 2
#     Edge 63, Type (0, 0), BuildingBlock: ZUJKAS_clean_linker_0, # of connection points: 2
#     Edge 64, Type (0, 0), BuildingBlock: ZUJKAS_clean_linker_0, # of connection points: 2
#     Edge 65, Type (0, 0), BuildingBlock: ZUJKAS_clean_linker_0, # of connection points: 2
#     Edge 66, Type (0, 0), BuildingBlock: ZUJKAS_clean_linker_0, # of connection points: 2
#     Edge 67, Type (0, 0), BuildingBlock: ZUJKAS_clean_linker_0, # of connection points: 2
#     Edge 68, Type (0, 0), BuildingBlock: ZUJKAS_clean_linker_0, # of connection points: 2
#     Edge 69, Type (0, 0), BuildingBlock: ZUJKAS_clean_linker_0, # of connection points: 2
#     Edge 70, Type (0, 0), BuildingBlock: ZUJKAS_clean_linker_0, # of connection points: 2
#     Edge 71, Type (0, 0), BuildingBlock: ZUJKAS_clean_linker_0, # of connection points: 2
#     Edge 72, Type (0, 0), BuildingBlock: ZUJKAS_clean_linker_0, # of connection points: 2
#     Edge 73, Type (0, 0), BuildingBlock: ZUJKAS_clean_linker_0, # of connection points: 2
#     Edge 74, Type (0, 0), BuildingBlock: ZUJKAS_clean_linker_0, # of connection points: 2
#     Edge 75, Type (0, 0), BuildingBlock: ZUJKAS_clean_linker_0, # of connection points: 2
#     Edge 76, Type (0, 0), BuildingBlock: ZUJKAS_clean_linker_0, # of connection points: 2
#     Edge 77, Type (0, 0), BuildingBlock: ZUJKAS_clean_linker_0, # of connection points: 2
#     Edge 78, Type (0, 0), BuildingBlock: ZUJKAS_clean_linker_0, # of connection points: 2
#     Edge 79, Type (0, 0), BuildingBlock: ZUJKAS_clean_linker_0, # of connection points: 2
#     Edge 80, Type (0, 0), BuildingBlock: ZUJKAS_clean_linker_0, # of connection points: 2
#     Edge 81, Type (0, 0), BuildingBlock: ZUJKAS_clean_linker_0, # of connection points: 2
#     Edge 82, Type (0, 0), BuildingBlock: ZUJKAS_clean_linker_0, # of connection points: 2
#     Edge 83, Type (0, 0), BuildingBlock: ZUJKAS_clean_linker_0, # of connection points: 2
#     Edge 84, Type (0, 0), BuildingBlock: ZUJKAS_clean_linker_0, # of connection points: 2
#     Edge 85, Type (0, 0), BuildingBlock: ZUJKAS_clean_linker_0, # of connection points: 2
#     Edge 86, Type (0, 0), BuildingBlock: ZUJKAS_clean_linker_0, # of connection points: 2
#     Edge 87, Type (0, 0), BuildingBlock: ZUJKAS_clean_linker_0, # of connection points: 2
#     Edge 88, Type (0, 0), BuildingBlock: ZUJKAS_clean_linker_0, # of connection points: 2
#     Edge 89, Type (0, 0), BuildingBlock: ZUJKAS_clean_linker_0, # of connection points: 2
#     Edge 90, Type (0, 0), BuildingBlock: ZUJKAS_clean_linker_0, # of connection points: 2
#     Edge 91, Type (0, 0), BuildingBlock: ZUJKAS_clean_linker_0, # of connection points: 2
#     Edge 92, Type (0, 0), BuildingBlock: ZUJKAS_clean_linker_0, # of connection points: 2
#     Edge 93, Type (0, 0), BuildingBlock: ZUJKAS_clean_linker_0, # of connection points: 2
#     Edge 94, Type (0, 0), BuildingBlock: ZUJKAS_clean_linker_0, # of connection points: 2
#     Edge 95, Type (0, 0), BuildingBlock: ZUJKAS_clean_linker_0, # of connection points: 2
#     Edge 96, Type (0, 0), BuildingBlock: ZUJKAS_clean_linker_0, # of connection points: 2
#     Edge 97, Type (0, 0), BuildingBlock: ZUJKAS_clean_linker_0, # of connection points: 2
#     Edge 98, Type (0, 0), BuildingBlock: ZUJKAS_clean_linker_0, # of connection points: 2
#     Edge 99, Type (0, 0), BuildingBlock: ZUJKAS_clean_linker_0, # of connection points: 2
#     Edge 100, Type (0, 0), BuildingBlock: ZUJKAS_clean_linker_0, # of connection points: 2
#     Edge 101, Type (0, 0), BuildingBlock: ZUJKAS_clean_linker_0, # of connection points: 2
#     Edge 102, Type (0, 0), BuildingBlock: ZUJKAS_clean_linker_0, # of connection points: 2
#     Edge 103, Type (0, 0), BuildingBlock: ZUJKAS_clean_linker_0, # of connection points: 2
#     Edge 104, Type (0, 0), BuildingBlock: ZUJKAS_clean_linker_0, # of connection points: 2
#     Edge 105, Type (0, 0), BuildingBlock: ZUJKAS_clean_linker_0, # of connection points: 2
#     Edge 106, Type (0, 0), BuildingBlock: ZUJKAS_clean_linker_0, # of connection points: 2
#     Edge 107, Type (0, 0), BuildingBlock: ZUJKAS_clean_linker_0, # of connection points: 2
# Relax obj value: 0.388
# Max RMSD: 0.141
# Mean RMSD: 0.140
data_MOF--net-unr--node1-GALJAG_clean_sbu_0--edge1-ZUJKAS_clean_linker_0
_symmetry_space_group_name_H-M    P1
_symmetry_Int_Tables_number       1
_symmetry_cell_setting            triclinic
loop_
_symmetry_equiv_pos_as_xyz
'x, y, z'
_cell_length_a     64.13302
_cell_length_b     64.129712
_cell_length_c     100.76052
_cell_angle_alpha  89.99404
_cell_angle_beta   90.012915
_cell_angle_gamma 120.00558
loop_
_atom_site_label
_atom_site_type_symbol
_atom_site_fract_x
_atom_site_fract_y
_atom_site_fract_z
_atom_type_partial_charge
In0 In 0.16905 0.12428 0.16355 0.0
O1 O 0.20833 0.15432 0.16062 0.0
O2 O 0.20042 0.11801 0.16147 0.0
C3 C 0.1425 0.14176 0.15274 0.0
C4 C 0.16734 0.13001 0.18995 0.0
C5 C 0.14693 0.07983 0.153 0.0
O6 O 0.16044 0.14316 0.14674 0.0
O7 O 0.13856 0.13214 0.16403 0.0
O8 O 0.14801 0.08355 0.16537 0.0
O9 O 0.15655 0.09859 0.14593 0.0
C10 C 0.21625 0.13982 0.16043 0.0
O11 O 0.1573 0.10953 0.18448 0.0
O12 O 0.17837 0.14755 0.18209 0.0
In13 In 0.86855 0.04036 0.16505 0.0
O14 O 0.8379 0.04909 0.16346 0.0
O15 O 0.87408 0.07771 0.16275 0.0
C16 C 0.85061 0.9965 0.15391 0.0
C17 C 0.86504 0.03242 0.19143 0.0
C18 C 0.91281 0.06393 0.15434 0.0
O19 O 0.84977 0.01341 0.14798 0.0
O20 O 0.85981 0.00172 0.16531 0.0
O21 O 0.90917 0.06284 0.16671 0.0
O22 O 0.89408 0.05258 0.14734 0.0
C23 C 0.85215 0.07151 0.16278 0.0
O24 O 0.88482 0.04113 0.18529 0.0
O25 O 0.84708 0.02783 0.18426 0.0
In26 In 0.95631 0.8239 0.16088 0.0
O27 O 0.9582 0.8404 0.1812 0.0
O28 O 0.96644 0.81217 0.17999 0.0
C29 C 0.93338 0.84643 0.15172 0.0
C30 C 0.92413 0.77675 0.1577 0.0
C31 C 7e-05 0.84837 0.14938 0.0
O32 O 0.93375 0.84172 0.16387 0.0
O33 O 0.94518 0.84035 0.1442 0.0
O34 O 0.98214 0.83214 0.14322 0.0
O35 O 0.9959 0.85154 0.16118 0.0
C36 C 0.96441 0.82711 0.18724 0.0
O37 O 0.94632 0.78419 0.15904 0.0
O38 O 0.9187 0.79303 0.15742 0.0
In39 In 0.13694 0.1725 0.35458 0.0
O40 O 0.1264 0.17045 0.33277 0.0
O41 O 0.15282 0.16102 0.33776 0.0
C42 C 0.08942 0.15663 0.35663 0.0
C43 C 0.16471 0.22028 0.35898 0.0
C44 C 0.14689 0.14599 0.3716 0.0
O45 O 0.09758 0.14266 0.3544 0.0
O46 O 0.10519 0.17858 0.35755 0.0
O47 O 0.13212 0.15289 0.37425 0.0
O48 O 0.15759 0.15356 0.36068 0.0
C49 C 0.14063 0.16359 0.32874 0.0
O50 O 0.16624 0.21012 0.34866 0.0
O51 O 0.15038 0.20607 0.36755 0.0
In52 In 0.83098 0.9664 0.3566 0.0
O53 O 0.85231 0.97271 0.33736 0.0
O54 O 0.82016 0.97463 0.3367 0.0
C55 C 0.85443 0.9453 0.36681 0.0
C56 C 0.78495 0.93068 0.35817 0.0
C57 C 0.85114 0.01024 0.36848 0.0
O58 O 0.85949 0.95537 0.35553 0.0
O59 O 0.83782 0.9463 0.373 0.0
O60 O 0.85045 0.99218 0.37381 0.0
O61 O 0.84 0.00573 0.35764 0.0
C62 C 0.83789 0.97618 0.33042 0.0
O63 O 0.79139 0.95135 0.36282 0.0
O64 O 0.80155 0.92847 0.35297 0.0
In65 In 0.0311 0.86369 0.35233 0.0
O66 O 0.03153 0.87803 0.33161 0.0
O67 O 0.01678 0.84018 0.33394 0.0
C68 C 0.04991 0.90769 0.36324 0.0
C69 C 0.06634 0.85268 0.35299 0.0
C70 C 0.98827 0.843 0.36496 0.0
O71 O 0.04223 0.90336 0.35144 0.0
O72 O 0.04794 0.88977 0.36953 0.0
O73 O 0.007 0.84542 0.37051 0.0
O74 O 0.99114 0.84979 0.35305 0.0
C75 C 0.0218 0.85752 0.32616 0.0
O76 O 0.04461 0.83687 0.35503 0.0
O77 O 0.06995 0.87359 0.35099 0.0
In78 In 0.83335 0.87602 0.83385 0.0
O79 O 0.85009 0.88966 0.81349 0.0
O80 O 0.82512 0.85213 0.81575 0.0
C81 C 0.85555 0.92093 0.84393 0.0
C82 C 0.78678 0.86348 0.83228 0.0
C83 C 0.85352 0.85511 0.84828 0.0
O84 O 0.8639 0.91513 0.83414 0.0
O85 O 0.83636 0.90401 0.8487 0.0
O86 O 0.83951 0.86128 0.85345 0.0
O87 O 0.85625 0.85851 0.83597 0.0
C88 C 0.83888 0.8691 0.8081 0.0
O89 O 0.79318 0.84979 0.83775 0.0
O90 O 0.80375 0.88298 0.82788 0.0
In91 In 0.1273 0.95789 0.83279 0.0
O92 O 0.1122 0.95535 0.812 0.0
O93 O 0.15015 0.97705 0.81476 0.0
C94 C 0.08391 0.93909 0.84449 0.0
C95 C 0.13889 0.92306 0.83172 0.0
C96 C 0.14838 -0.00024 0.84627 0.0
O97 O 0.08811 0.94866 0.83312 0.0
O98 O 0.10165 0.93919 0.84996 0.0
O99 O 0.14665 0.98083 0.85119 0.0
O100 O 0.14052 0.9975 0.83461 0.0
C101 C 0.13254 0.96907 0.80684 0.0
O102 O 0.15463 0.94462 0.83425 0.0
O103 O 0.1179 0.91947 0.83014 0.0
In104 In 0.04298 0.17235 0.84342 0.0
O105 O 0.03511 0.15017 0.82445 0.0
O106 O 0.0307 0.18095 0.82407 0.0
C107 C 0.06071 0.14563 0.85346 0.0
C108 C 0.08111 0.21714 0.84164 0.0
C109 C 0.00252 0.15683 0.8582 0.0
O110 O 0.04857 0.14006 0.84283 0.0
O111 O 0.06357 0.1645 0.85907 0.0
O112 O 0.02264 0.16256 0.86322 0.0
O113 O 0.00328 0.16081 0.84594 0.0
C114 C 0.02962 0.16342 0.81777 0.0
O115 O 0.06111 0.21354 0.84603 0.0
O116 O 0.08159 0.19841 0.83856 0.0
In117 In 0.8578 0.8245 0.64271 0.0
O118 O 0.87481 0.84207 0.66255 0.0
O119 O 0.83764 0.81566 0.66241 0.0
C120 C 0.90493 0.84248 0.63762 0.0
C121 C 0.83589 0.77699 0.63709 0.0
C122 C 0.84153 0.85044 0.62967 0.0
O123 O 0.89343 0.82549 0.64573 0.0
O124 O 0.89278 0.85082 0.63233 0.0
O125 O 0.84678 0.83642 0.62367 0.0
O126 O 0.84353 0.85042 0.64209 0.0
C127 C 0.85565 0.83033 0.66913 0.0
O128 O 0.82611 0.78597 0.64409 0.0
O129 O 0.85575 0.7922 0.63215 0.0
In130 In 0.16812 0.03236 0.6411 0.0
O131 O 0.15383 0.03545 0.66136 0.0
O132 O 0.17463 0.01801 0.66031 0.0
C133 C 0.14193 0.05053 0.6309 0.0
C134 C 0.21475 0.06697 0.63965 0.0
C135 C 0.14654 0.98878 0.629 0.0
O136 O 0.13706 0.03983 0.64199 0.0
O137 O 0.15967 0.05153 0.62487 0.0
O138 O 0.15392 0.00812 0.62264 0.0
O139 O 0.1515 0.99166 0.64117 0.0
C140 C 0.16296 0.02474 0.66748 0.0
O141 O 0.20825 0.04525 0.63715 0.0
O142 O 0.19793 0.07079 0.64253 0.0
In143 In 0.96246 0.12778 0.6527 0.0
O144 O 0.96141 0.11205 0.67311 0.0
O145 O 0.97827 0.15024 0.67132 0.0
C146 C 0.94102 0.08467 0.64047 0.0
C147 C 0.92935 0.14163 0.65319 0.0
C148 C 0.00507 0.1478 0.63988 0.0
O149 O 0.95054 0.08782 0.65181 0.0
O150 O 0.94241 0.10324 0.63533 0.0
O151 O 0.9867 0.14688 0.63471 0.0
O152 O 0.002 0.13972 0.65153 0.0
C153 C 0.9723 0.13231 0.67882 0.0
O154 O 0.9508 0.15589 0.64961 0.0
O155 O 0.92497 0.12081 0.65631 0.0
In156 In 0.82839 0.45535 0.48748 0.0
O157 O 0.86894 0.48069 0.48458 0.0
O158 O 0.85647 0.44491 0.49134 0.0
C159 C 0.80942 0.47872 0.4743 0.0
C160 C 0.82289 0.46097 0.51344 0.0
C161 C 0.80431 0.41162 0.47602 0.0
O162 O 0.82429 0.47396 0.4689 0.0
O163 O 0.80524 0.47273 0.4863 0.0
O164 O 0.79933 0.4157 0.48752 0.0
O165 O 0.82117 0.42965 0.47029 0.0
C166 C 0.87419 0.46501 0.48827 0.0
O167 O 0.80966 0.44142 0.50737 0.0
O168 O 0.83884 0.4776 0.50638 0.0
In169 In 0.53596 0.37284 0.48751 0.0
O170 O 0.50933 0.38621 0.48363 0.0
O171 O 0.54484 0.41121 0.49013 0.0
C172 C 0.51445 0.3291 0.47585 0.0
C173 C 0.5295 0.36376 0.51368 0.0
C174 C 0.57962 0.39245 0.47601 0.0
O175 O 0.51657 0.34738 0.4699 0.0
O176 O 0.52242 0.33297 0.48753 0.0
O177 O 0.57566 0.38384 0.48762 0.0
O178 O 0.5615 0.39088 0.47018 0.0
C179 C 0.52438 0.40766 0.48685 0.0
O180 O 0.55006 0.37313 0.5083 0.0
O181 O 0.51233 0.35919 0.50585 0.0
In182 In 0.62433 0.16178 0.48493 0.0
O183 O 0.60698 0.1218 0.47923 0.0
O184 O 0.59362 0.13162 0.496 0.0
C185 C 0.66276 0.17849 0.46836 0.0
C186 C 0.64223 0.17579 0.50952 0.0
C187 C 0.59887 0.18196 0.476 0.0
O188 O 0.64191 0.17248 0.46439 0.0
O189 O 0.66382 0.17435 0.48047 0.0
O190 O 0.61641 0.19266 0.48389 0.0
O191 O 0.59404 0.16102 0.47277 0.0
C192 C 0.59203 0.11501 0.48868 0.0
O193 O 0.6332 0.18622 0.50301 0.0
O194 O 0.64246 0.15859 0.50353 0.0
In195 In 0.79414 0.50719 0.67751 0.0
O196 O 0.77952 0.48503 0.65858 0.0
O197 O 0.81232 0.51851 0.65732 0.0
C198 C 0.74886 0.4846 0.68706 0.0
C199 C 0.80877 0.55448 0.67897 0.0
C200 C 0.81609 0.48625 0.69022 0.0
O201 O 0.75353 0.48806 0.67481 0.0
O202 O 0.76706 0.49214 0.6945 0.0
O203 O 0.81143 0.5009 0.69599 0.0
O204 O 0.81068 0.48323 0.67811 0.0
C205 C 0.79658 0.49996 0.65134 0.0
O206 O 0.82362 0.54708 0.6781 0.0
O207 O 0.78708 0.53814 0.67961 0.0
In208 In 0.49132 0.28772 0.67748 0.0
O209 O 0.50754 0.28988 0.65706 0.0
O210 O 0.47976 0.29874 0.65864 0.0
C211 C 0.51372 0.26508 0.68723 0.0
C212 C 0.4443 0.25496 0.68027 0.0
C213 C 0.51607 0.33159 0.68882 0.0
O214 O 0.51012 0.26597 0.67497 0.0
O215 O 0.50664 0.27625 0.69458 0.0
O216 O 0.49966 0.31384 0.69502 0.0
O217 O 0.51929 0.32716 0.67708 0.0
C218 C 0.49449 0.29665 0.65123 0.0
O219 O 0.45161 0.27727 0.68031 0.0
O220 O 0.46063 0.24967 0.67929 0.0
In221 In 0.70999 0.21291 0.67409 0.0
O222 O 0.70766 0.22976 0.65462 0.0
O223 O 0.70083 0.19364 0.6542 0.0
C224 C 0.72948 0.25596 0.68635 0.0
C225 C 0.74455 0.20099 0.67382 0.0
C226 C 0.66662 0.18833 0.68621 0.0
O227 O 0.71853 0.25188 0.6754 0.0
O228 O 0.73042 0.23829 0.69113 0.0
O229 O 0.68602 0.19456 0.6923 0.0
O230 O 0.66922 0.19348 0.67406 0.0
C231 C 0.70231 0.21124 0.64775 0.0
O232 O 0.72322 0.18609 0.67731 0.0
O233 O 0.74815 0.22154 0.67068 0.0
In234 In 0.49339 0.19643 0.19499 0.0
O235 O 0.5101 0.2102 0.17462 0.0
O236 O 0.48176 0.17381 0.17614 0.0
C237 C 0.51542 0.24187 0.20421 0.0
C238 C 0.4463 0.18167 0.19794 0.0
C239 C 0.51773 0.17766 0.20717 0.0
O240 O 0.51142 0.23689 0.19201 0.0
O241 O 0.50891 0.22393 0.21174 0.0
O242 O 0.5008 0.17877 0.21288 0.0
O243 O 0.52168 0.18531 0.19542 0.0
C244 C 0.49679 0.19049 0.16876 0.0
O245 O 0.45378 0.16684 0.19744 0.0
O246 O 0.46249 0.20341 0.19734 0.0
In247 In 0.79491 0.28892 0.20132 0.0
O248 O 0.8253 0.28025 0.20454 0.0
O249 O 0.78906 0.25166 0.20467 0.0
C250 C 0.81222 0.33353 0.21142 0.0
C251 C 0.80041 0.29478 0.17484 0.0
C252 C 0.74966 0.26583 0.21073 0.0
O253 O 0.81189 0.3168 0.21818 0.0
O254 O 0.80453 0.32776 0.19974 0.0
O255 O 0.75446 0.26774 0.19848 0.0
O256 O 0.76775 0.27612 0.21828 0.0
C257 C 0.81097 0.25785 0.20537 0.0
O258 O 0.78032 0.28719 0.1805 0.0
O259 O 0.81772 0.29929 0.18254 0.0
In260 In 0.7055 0.50671 0.19763 0.0
O261 O 0.71281 0.54536 0.20068 0.0
O262 O 0.74203 0.53875 0.2018 0.0
C263 C 0.66093 0.47838 0.20748 0.0
C264 C 0.69939 0.50579 0.17114 0.0
C265 C 0.72952 0.48567 0.20732 0.0
O266 O 0.67712 0.49535 0.21423 0.0
O267 O 0.6672 0.4764 0.19594 0.0
O268 O 0.72961 0.49046 0.19515 0.0
O269 O 0.71685 0.49104 0.21459 0.0
C270 C 0.7352 0.554 0.20212 0.0
O271 O 0.7072 0.49352 0.17687 0.0
O272 O 0.69494 0.5187 0.17878 0.0
In273 In 0.52245 0.15667 0.00281 0.0
O274 O 0.49476 0.1166 0.0052 0.0
O275 O 0.52079 0.12658 0.99005 0.0
C276 C 0.50498 0.18347 0.99209 0.0
C277 C 0.51849 0.15934 0.02927 0.0
C278 C 0.5694 0.17779 0.99624 0.0
O279 O 0.50493 0.16648 0.98575 0.0
O280 O 0.51297 0.18614 0.00373 0.0
O281 O 0.56076 0.16409 0.00617 0.0
O282 O 0.55452 0.18135 0.98988 0.0
C283 C 0.50357 0.10975 0.99621 0.0
O284 O 0.53863 0.1688 0.02343 0.0
O285 O 0.5004 0.14839 0.02175 0.0
In286 In 0.83309 0.36231 0.01001 0.0
O287 O 0.87182 0.37629 0.00269 0.0
O288 O 0.86494 0.39733 0.01642 0.0
C289 C 0.81015 0.31996 0.99665 0.0
C290 C 0.82825 0.35057 0.0358 0.0
C291 C 0.81056 0.38532 0.00068 0.0
O292 O 0.82145 0.33994 0.99081 0.0
O293 O 0.81176 0.32137 0.00909 0.0
O294 O 0.80413 0.37311 0.01125 0.0
O295 O 0.82817 0.38578 0.99487 0.0
C296 C 0.88016 0.39545 0.00943 0.0
O297 O 0.81696 0.35982 0.03039 0.0
O298 O 0.84193 0.34718 0.02814 0.0
In299 In 0.62664 0.46489 0.00697 0.0
O300 O 0.62703 0.45141 0.02777 0.0
O301 O 0.64055 0.48908 0.02508 0.0
C302 C 0.60506 0.4202 0.99655 0.0
C303 C 0.59298 0.47797 0.00552 0.0
C304 C 0.67012 0.48426 0.99495 0.0
O305 O 0.61525 0.42496 0.00776 0.0
O306 O 0.606 0.43796 0.99064 0.0
O307 O 0.65129 0.47944 0.98859 0.0
O308 O 0.66701 0.48055 0.00722 0.0
C309 C 0.63634 0.4721 0.033 0.0
O310 O 0.6138 0.49106 0.0007 0.0
O311 O 0.58969 0.45896 0.01105 0.0
In312 In 0.49774 0.79581 0.8076 0.0
O313 O 0.53741 0.81878 0.80119 0.0
O314 O 0.52833 0.79327 0.81672 0.0
C315 C 0.47922 0.81703 0.79203 0.0
C316 C 0.48492 0.79942 0.83267 0.0
C317 C 0.47739 0.7512 0.79754 0.0
O318 O 0.4753 0.79597 0.79021 0.0
O319 O 0.49378 0.82816 0.80131 0.0
O320 O 0.46719 0.7572 0.80628 0.0
O321 O 0.4978 0.76786 0.79377 0.0
C322 C 0.54458 0.80902 0.80953 0.0
O323 O 0.48001 0.77953 0.82755 0.0
O324 O 0.4957 0.81728 0.82506 0.0
In325 In 0.20075 0.70771 0.79985 0.0
O326 O 0.17112 0.71528 0.80595 0.0
O327 O 0.18915 0.73036 0.78782 0.0
C328 C 0.18644 0.6678 0.78486 0.0
C329 C 0.20027 0.69909 0.82611 0.0
C330 C 0.24773 0.7393 0.79559 0.0
O331 O 0.20706 0.68614 0.78408 0.0
O332 O 0.17236 0.67008 0.79266 0.0
O333 O 0.23115 0.74191 0.79057 0.0
O334 O 0.24059 0.72073 0.80267 0.0
C335 C 0.17394 0.72884 0.79626 0.0
O336 O 0.20827 0.71998 0.82144 0.0
O337 O 0.19283 0.68259 0.81752 0.0
In338 In 0.29214 0.48772 0.79783 0.0
O339 O 0.28846 0.45143 0.8028 0.0
O340 O 0.26597 0.45235 0.7877 0.0
C341 C 0.32932 0.51167 0.78077 0.0
C342 C 0.30194 0.49643 0.82397 0.0
C343 C 0.2625 0.50579 0.79482 0.0
O344 O 0.30907 0.50997 0.77923 0.0
O345 O 0.33032 0.49973 0.79043 0.0
O346 O 0.283 0.51751 0.80015 0.0
O347 O 0.2568 0.48481 0.79112 0.0
C348 C 0.27135 0.43964 0.79487 0.0
O349 O 0.28105 0.48235 0.81963 0.0
O350 O 0.31783 0.5064 0.81512 0.0
In351 In 0.47253 0.83826 0.99922 0.0
O352 O 0.50163 0.87754 0.99578 0.0
O353 O 0.47905 0.86971 0.01249 0.0
C354 C 0.48839 0.81082 0.01082 0.0
C355 C 0.47371 0.83326 0.97274 0.0
C356 C 0.42548 0.81793 0.00562 0.0
O357 O 0.48686 0.827 0.01714 0.0
O358 O 0.4829 0.80935 0.99873 0.0
O359 O 0.43544 0.83478 0.99729 0.0
O360 O 0.43908 0.81098 0.01049 0.0
C361 C 0.49556 0.88563 0.0055 0.0
O362 O 0.4551 0.83012 0.97877 0.0
O363 O 0.49179 0.839 0.98007 0.0
In364 In 0.15637 0.63417 0.99113 0.0
O365 O 0.11899 0.62301 0.99967 0.0
O366 O 0.12157 0.6039 0.98312 0.0
C367 C 0.1811 0.67463 0.00593 0.0
C368 C 0.16646 0.64721 0.96554 0.0
C369 C 0.17357 0.60556 0.99915 0.0
O370 O 0.17403 0.65385 0.01042 0.0
O371 O 0.17428 0.67491 0.99426 0.0
O372 O 0.1841 0.62192 0.99056 0.0
O373 O 0.15431 0.60358 0.00365 0.0
C374 C 0.10816 0.606 0.99147 0.0
O375 O 0.17477 0.63566 0.97158 0.0
O376 O 0.15318 0.65232 0.97246 0.0
In377 In 0.36124 0.53315 0.98985 0.0
O378 O 0.37402 0.50688 0.99593 0.0
O379 O 0.39901 0.54045 0.98712 0.0
C380 C 0.31582 0.51228 0.99932 0.0
C381 C 0.35507 0.52783 0.96347 0.0
C382 C 0.38119 0.576 0.00238 0.0
O383 O 0.33254 0.51225 0.00592 0.0
O384 O 0.32203 0.52199 0.98808 0.0
O385 O 0.37421 0.57338 0.99046 0.0
O386 O 0.37772 0.55697 0.00799 0.0
C387 C 0.39538 0.52089 0.99207 0.0
O388 O 0.36353 0.54808 0.96913 0.0
O389 O 0.34989 0.51028 0.97115 0.0
In390 In 0.15897 0.52548 0.51712 0.0
O391 O 0.17646 0.54052 0.49712 0.0
O392 O 0.15085 0.50301 0.49833 0.0
C393 C 0.18287 0.57029 0.52726 0.0
C394 C 0.11238 0.51336 0.51658 0.0
C395 C 0.17977 0.50464 0.53105 0.0
O396 O 0.18842 0.56483 0.51629 0.0
O397 O 0.16547 0.55306 0.53319 0.0
O398 O 0.16611 0.51099 0.53647 0.0
O399 O 0.18155 0.50749 0.51868 0.0
C400 C 0.16525 0.52054 0.49117 0.0
O401 O 0.11875 0.49857 0.52035 0.0
O402 O 0.12937 0.53375 0.5133 0.0
In403 In 0.45851 0.62798 0.51502 0.0
O404 O 0.48599 0.6154 0.51814 0.0
O405 O 0.45007 0.58968 0.51271 0.0
C406 C 0.48044 0.67146 0.52716 0.0
C407 C 0.46205 0.63665 0.48877 0.0
C408 C 0.41468 0.60709 0.5264 0.0
O409 O 0.4757 0.65241 0.53323 0.0
O410 O 0.47525 0.66856 0.51502 0.0
O411 O 0.41831 0.61472 0.51459 0.0
O412 O 0.43323 0.61035 0.53252 0.0
C413 C 0.47093 0.59372 0.51539 0.0
O414 O 0.44299 0.63086 0.49523 0.0
O415 O 0.47927 0.63809 0.4956 0.0
In416 In 0.36278 0.83117 0.51093 0.0
O417 O 0.37238 0.87072 0.51256 0.0
O418 O 0.40066 0.86254 0.51141 0.0
C419 C 0.31954 0.80707 0.52319 0.0
C420 C 0.35532 0.82678 0.48453 0.0
C421 C 0.38524 0.8095 0.52194 0.0
O422 O 0.33785 0.82343 0.52899 0.0
O423 O 0.32296 0.80396 0.51125 0.0
O424 O 0.37745 0.8054 0.51015 0.0
O425 O 0.38145 0.82433 0.52819 0.0
C426 C 0.39477 0.87848 0.51224 0.0
O427 O 0.36328 0.81516 0.49082 0.0
O428 O 0.35138 0.84077 0.49155 0.0
In429 In 0.19898 0.4906 0.32566 0.0
O430 O 0.17173 0.45002 0.324 0.0
O431 O 0.20877 0.46171 0.32721 0.0
C432 C 0.17691 0.50999 0.3116 0.0
C433 C 0.19482 0.49506 0.35196 0.0
C434 C 0.24377 0.51584 0.31576 0.0
O435 O 0.18346 0.49641 0.30626 0.0
O436 O 0.1803 0.51243 0.32392 0.0
O437 O 0.23681 0.52322 0.32551 0.0
O438 O 0.228 0.49603 0.31089 0.0
C439 C 0.18774 0.44429 0.32582 0.0
O440 O 0.21479 0.50609 0.346 0.0
O441 O 0.17704 0.48188 0.34465 0.0
In442 In 0.50344 0.70564 0.324 0.0
O443 O 0.47944 0.69556 0.34237 0.0
O444 O 0.51248 0.69536 0.34385 0.0
C445 C 0.48001 0.72719 0.31424 0.0
C446 C 0.54944 0.74136 0.32541 0.0
C447 C 0.48579 0.66508 0.30907 0.0
O448 O 0.47374 0.71517 0.3249 0.0
O449 O 0.49798 0.72816 0.30851 0.0
O450 O 0.49205 0.68544 0.30422 0.0
O451 O 0.49036 0.66555 0.32124 0.0
C452 C 0.49359 0.69214 0.34959 0.0
O453 O 0.54403 0.72099 0.32069 0.0
O454 O 0.53182 0.74338 0.32913 0.0
In455 In 0.28364 0.78889 0.31993 0.0
O456 O 0.27441 0.81888 0.31682 0.0
O457 O 0.24605 0.78254 0.31715 0.0
C458 C 0.32774 0.81056 0.30864 0.0
C459 C 0.29192 0.79227 0.34629 0.0
C460 C 0.26127 0.74346 0.31056 0.0
O461 O 0.30903 0.80526 0.30201 0.0
O462 O 0.3241 0.80587 0.32082 0.0
O463 O 0.25961 0.74844 0.3225 0.0
O464 O 0.27473 0.76136 0.30341 0.0
C465 C 0.25202 0.80438 0.31631 0.0
O466 O 0.2909 0.77535 0.33936 0.0
O467 O 0.2885 0.80726 0.33993 0.0
H468 H 0.11144 0.15154 0.16552 0.0
H469 H 0.0754 0.14933 0.15625 0.0
H470 H 0.09759 0.14216 0.11689 0.0
H471 H 0.13392 0.14404 0.12625 0.0
H472 H 0.06124 0.17086 0.1364 0.0
H473 H 0.03735 0.07663 0.12374 0.0
H474 H 0.06339 0.09546 0.13376 0.0
H475 H 0.0636 0.10129 0.11631 0.0
C476 C 0.10904 0.15022 0.15484 0.0
C477 C 0.12514 0.14748 0.14661 0.0
C478 C 0.08848 0.14908 0.14954 0.0
C479 C 0.08358 0.14506 0.13592 0.0
C480 C 0.10091 0.14489 0.12746 0.0
H481 H 0.92623 0.06555 0.12838 0.0
H482 H 0.967 0.08905 0.11911 0.0
C483 C 0.12168 0.14612 0.1328 0.0
C484 C 0.05871 0.13698 0.13146 0.0
H485 H 0.00592 0.0842 0.12727 0.0
C486 C 0.04917 0.15211 0.13392 0.0
C487 C 0.04298 0.11254 0.1281 0.0
C488 C 0.05218 0.09541 0.12534 0.0
C489 C 0.02422 0.14281 0.13457 0.0
C490 C 0.00861 0.11782 0.13284 0.0
C491 C 0.01804 0.10333 0.12873 0.0
C492 C 0.98357 0.10568 0.13781 0.0
C493 C 0.01483 0.15948 0.13806 0.0
C494 C 0.97956 0.10698 0.15139 0.0
C495 C 0.95654 0.09341 0.15671 0.0
C496 C 0.93705 0.07824 0.14855 0.0
C497 C 0.94097 0.07712 0.1349 0.0
C498 C 0.96415 0.09061 0.12958 0.0
H499 H 0.0271 0.17798 0.13433 0.0
H500 H 0.99655 0.15293 0.1339 0.0
H501 H 0.01386 0.16051 0.14902 0.0
H502 H 0.99442 0.11795 0.15799 0.0
H503 H 0.95406 0.09467 0.16726 0.0
H504 H 0.84023 0.95508 0.16625 0.0
H505 H 0.8439 0.92218 0.15682 0.0
H506 H 0.85304 0.95333 0.1178 0.0
H507 H 0.84976 0.98685 0.12734 0.0
H508 H 0.82495 0.88744 0.13656 0.0
H509 H 0.91893 0.96058 0.12584 0.0
H510 H 0.89871 0.96635 0.1355 0.0
H511 H 0.8944 0.9617 0.11791 0.0
C512 C 0.84226 0.95455 0.1556 0.0
C513 C 0.84522 0.97369 0.14755 0.0
C514 C 0.84425 0.93567 0.15019 0.0
C515 C 0.84934 0.93564 0.13666 0.0
C516 C 0.84955 0.9533 0.12831 0.0
H517 H 0.93218 0.86141 0.12643 0.0
H518 H 0.90843 0.87925 0.11834 0.0
C519 C 0.84749 0.9723 0.13375 0.0
C520 C 0.85848 0.91968 0.13225 0.0
H521 H 0.91226 0.92167 0.12813 0.0
C522 C 0.84387 0.89479 0.13426 0.0
C523 C 0.88318 0.92929 0.12918 0.0
C524 C 0.89985 0.95592 0.12701 0.0
C525 C 0.85381 0.87966 0.1346 0.0
C526 C 0.87892 0.88978 0.13299 0.0
C527 C 0.89302 0.91408 0.12947 0.0
C528 C 0.89148 0.87687 0.13727 0.0
C529 C 0.83759 0.85325 0.13749 0.0
C530 C 0.8901 0.87009 0.15062 0.0
C531 C 0.9038 0.86027 0.15529 0.0
C532 C 0.91918 0.85707 0.14668 0.0
C533 C 0.92046 0.8637 0.13327 0.0
C534 C 0.90683 0.87373 0.12862 0.0
H535 H 0.81904 0.84688 0.1338 0.0
H536 H 0.84458 0.84221 0.13291 0.0
H537 H 0.83652 0.85039 0.14839 0.0
H538 H 0.8789 0.87302 0.15755 0.0
H539 H 0.90241 0.85532 0.16566 0.0
H540 H 0.14068 0.06697 0.12677 0.0
H541 H 0.12313 0.0261 0.11757 0.0
H542 H 0.11202 0.99712 0.15721 0.0
H543 H 0.12937 0.03763 0.16645 0.0
H544 H 0.13477 0.97937 0.13622 0.0
H545 H 0.04825 0.97458 0.12226 0.0
H546 H 0.07665 0.00038 0.11773 0.0
H547 H 0.06746 0.99554 0.13478 0.0
C548 C 0.13449 0.05185 0.1335 0.0
C549 C 0.13623 0.05542 0.14733 0.0
C550 C 0.12459 0.02861 0.12823 0.0
C551 C 0.11643 0.00874 0.13674 0.0
C552 C 0.11841 0.01232 0.15051 0.0
H553 H 0.04299 0.87551 0.16141 0.0
H554 H 0.0765 0.91235 0.15278 0.0
C555 C 0.12816 0.03543 0.15577 0.0
C556 C 0.10447 0.98388 0.13161 0.0
H557 H 0.04824 0.93824 0.12421 0.0
C558 C 0.11603 0.97038 0.13319 0.0
C559 C 0.08024 0.97239 0.1274 0.0
C560 C 0.06725 0.98632 0.12541 0.0
C561 C 0.10325 0.94524 0.13188 0.0
C562 C 0.07823 0.93343 0.12931 0.0
C563 C 0.0674 0.94723 0.12625 0.0
C564 C 0.06209 0.90781 0.13285 0.0
C565 C 0.11637 0.93151 0.13405 0.0
C566 C 0.04307 0.89238 0.12444 0.0
C567 C 0.02365 0.87117 0.12945 0.0
C568 C 0.02297 0.86543 0.14296 0.0
C569 C 0.04308 0.87959 0.15096 0.0
C570 C 0.06243 0.9006 0.14597 0.0
H571 H 0.13489 0.94163 0.12991 0.0
H572 H 0.11808 0.92942 0.14487 0.0
H573 H 0.10677 0.91338 0.12941 0.0
H574 H 0.04235 0.89768 0.11432 0.0
H575 H 0.00827 0.86057 0.1231 0.0
H576 H 0.12552 0.12671 0.39539 0.0
H577 H 0.11465 0.08655 0.4034 0.0
H578 H 0.15607 0.07967 0.37169 0.0
H579 H 0.16772 0.11993 0.36406 0.0
H580 H 0.08674 0.05143 0.38836 0.0
H581 H 0.16404 0.03925 0.39856 0.0
H582 H 0.16698 0.06877 0.39822 0.0
H583 H 0.16946 0.05495 0.38313 0.0
C584 C 0.13321 0.11704 0.39053 0.0
C585 C 0.1471 0.12622 0.37896 0.0
C586 C 0.12697 0.09408 0.39511 0.0
C587 C 0.1344 0.07994 0.38814 0.0
C588 C 0.15044 0.09025 0.37745 0.0
H589 H 0.05518 0.94846 0.3518 0.0
H590 H 0.07461 0.98895 0.3612 0.0
C591 C 0.15696 0.11331 0.37299 0.0
C592 C 0.1213 0.05339 0.38979 0.0
H593 H 0.12933 0.00479 0.38735 0.0
C594 C 0.09609 0.04125 0.38859 0.0
C595 C 0.13322 0.03987 0.39027 0.0
C596 C 0.15991 0.05149 0.39277 0.0
C597 C 0.08284 0.01635 0.38654 0.0
C598 C 0.09516 0.00335 0.38538 0.0
C599 C 0.11999 0.01496 0.38791 0.0
C600 C 0.08303 0.97858 0.38003 0.0
C601 C 0.05587 0.00438 0.38499 0.0
C602 C 0.08179 0.95946 0.38741 0.0
C603 C 0.07071 0.93626 0.38202 0.0
C604 C 0.06097 0.93196 0.36913 0.0
C605 C 0.06238 0.95119 0.36176 0.0
C606 C 0.07337 0.9743 0.36716 0.0
H607 H 0.04858 0.01442 0.39043 0.0
H608 H 0.05141 0.00416 0.37433 0.0
H609 H 0.04677 0.98552 0.38866 0.0
H610 H 0.08932 0.96249 0.39731 0.0
H611 H 0.06996 0.92174 0.3879 0.0
H612 H 0.88446 0.02399 0.3882 0.0
H613 H 0.92276 0.06135 0.38849 0.0
H614 H 0.89757 0.09021 0.35774 0.0
H615 H 0.85931 0.05232 0.35708 0.0
H616 H 0.93402 0.08678 0.34935 0.0
H617 H 0.95968 0.13072 0.39821 0.0
H618 H 0.94837 0.09912 0.40025 0.0
H619 H 0.92873 0.1095 0.39404 0.0
C620 C 0.88661 0.03866 0.38192 0.0
C621 C 0.86913 0.03503 0.37238 0.0
C622 C 0.90857 0.0602 0.38217 0.0
C623 C 0.91319 0.07862 0.37307 0.0
C624 C 0.89446 0.0762 0.36481 0.0
H625 H 0.06807 0.1831 0.3628 0.0
H626 H 0.02501 0.16828 0.36619 0.0
C627 C 0.87255 0.05453 0.36446 0.0
C628 C 0.93851 0.09693 0.37004 0.0
H629 H 0.99294 0.13281 0.38479 0.0
C630 C 0.94675 0.0974 0.35706 0.0
C631 C 0.95525 0.11098 0.37999 0.0
C632 C 0.94743 0.11272 0.39385 0.0
C633 C 0.97133 0.10987 0.35402 0.0
C634 C 0.98816 0.12184 0.36428 0.0
C635 C 0.97996 0.12316 0.377 0.0
C636 C 0.01414 0.13107 0.36221 0.0
C637 C 0.97913 0.1093 0.33996 0.0
C638 C 0.02219 0.11498 0.35899 0.0
C639 C 0.04665 0.12332 0.35706 0.0
C640 C 0.06351 0.14793 0.35836 0.0
C641 C 0.05544 0.16404 0.36166 0.0
C642 C 0.03091 0.15563 0.36363 0.0
H643 H 0.96473 0.10608 0.33274 0.0
H644 H 0.99566 0.12642 0.33736 0.0
H645 H 0.98308 0.09438 0.33895 0.0
H646 H 0.00952 0.09588 0.35808 0.0
H647 H 0.05235 0.11048 0.35462 0.0
H648 H 0.88974 0.94011 0.35507 0.0
H649 H 0.9076 0.9166 0.36304 0.0
H650 H 0.86388 0.89767 0.39836 0.0
H651 H 0.84561 0.92103 0.39036 0.0
H652 H 0.93265 0.92153 0.38725 0.0
H653 H 0.84935 0.83196 0.38243 0.0
H654 H 0.85224 0.85849 0.37445 0.0
H655 H 0.84815 0.85496 0.39208 0.0
C656 C 0.88398 0.93105 0.36456 0.0
C657 C 0.86622 0.93231 0.37206 0.0
C658 C 0.89421 0.91765 0.36911 0.0
C659 C 0.88687 0.90523 0.38122 0.0
C660 C 0.86953 0.90686 0.38891 0.0
H661 H 0.98367 0.84791 0.39164 0.0
H662 H 0.95405 0.85691 0.40144 0.0
C663 C 0.85923 0.9203 0.38435 0.0
C664 C 0.89743 0.8904 0.38542 0.0
H665 H 0.88572 0.83232 0.38558 0.0
C666 C 0.9224 0.902 0.38726 0.0
C667 C 0.88382 0.86497 0.38548 0.0
C668 C 0.85691 0.8517 0.38346 0.0
C669 C 0.93453 0.88894 0.3879 0.0
C670 C 0.92112 0.86346 0.38699 0.0
C671 C 0.89588 0.85179 0.38638 0.0
C672 C 0.93316 0.84965 0.38342 0.0
C673 C 0.96174 0.90271 0.3882 0.0
C674 C 0.92963 0.84009 0.37056 0.0
C675 C 0.94623 0.83463 0.36503 0.0
C676 C 0.96662 0.83873 0.37228 0.0
C677 C 0.96818 0.84478 0.3858 0.0
C678 C 0.95141 0.85016 0.39137 0.0
H679 H 0.96926 0.92248 0.38739 0.0
H680 H 0.96814 0.89908 0.39767 0.0
H681 H 0.96909 0.8969 0.37992 0.0
H682 H 0.91552 0.83927 0.36427 0.0
H683 H 0.94443 0.82966 0.35464 0.0
H684 H 0.87903 0.83487 0.83924 0.0
H685 H 0.91619 0.84061 0.84881 0.0
H686 H 0.903 0.86992 0.8843 0.0
H687 H 0.86574 0.86469 0.8745 0.0
H688 H 0.94191 0.90219 0.87288 0.0
H689 H 0.94959 0.82094 0.87465 0.0
H690 H 0.93652 0.82098 0.85898 0.0
H691 H 0.92061 0.81924 0.87411 0.0
C692 C 0.88345 0.84151 0.84933 0.0
C693 C 0.86981 0.8498 0.85602 0.0
C694 C 0.90469 0.84458 0.85489 0.0
C695 C 0.91255 0.85578 0.8673 0.0
C696 C 0.8973 0.86123 0.87472 0.0
H697 H 0.06962 0.91388 0.86778 0.0
H698 H 0.02918 0.8941 0.87761 0.0
C699 C 0.87596 0.85817 0.86912 0.0
C700 C 0.93854 0.86714 0.87057 0.0
H701 H 0.98602 0.85792 0.86595 0.0
C702 C 0.9515 0.89233 0.87188 0.0
C703 C 0.95131 0.8545 0.86952 0.0
C704 C 0.93865 0.82738 0.86939 0.0
C705 C 0.97658 0.90531 0.8705 0.0
C706 C 0.98891 0.8928 0.86753 0.0
C707 C 0.97641 0.86753 0.86787 0.0
C708 C 0.01367 0.90553 0.86216 0.0
C709 C 0.98947 0.93242 0.87138 0.0
C710 C 0.01819 0.91824 0.85017 0.0
C711 C 0.04111 0.92941 0.84453 0.0
C712 C 0.05993 0.928 0.85075 0.0
C713 C 0.05544 0.91534 0.8628 0.0
C714 C 0.0324 0.90403 0.86842 0.0
H715 H 0.97973 0.9385 0.87802 0.0
H716 H 0.00816 0.93981 0.87509 0.0
H717 H 0.99024 0.93997 0.86136 0.0
H718 H 0.00382 0.91915 0.84504 0.0
H719 H 0.04399 0.93892 0.83522 0.0
H720 H 0.0869 0.15371 0.87624 0.0
H721 H 0.10764 0.13244 0.88376 0.0
H722 H 0.08087 0.08595 0.84953 0.0
H723 H 0.0598 0.10671 0.84212 0.0
H724 H 0.07743 0.06171 0.8732 0.0
H725 H 0.16922 0.14101 0.86618 0.0
H726 H 0.14872 0.14428 0.87699 0.0
H727 H 0.14274 0.14025 0.85951 0.0
C728 C 0.08531 0.13882 0.87039 0.0
C729 C 0.07186 0.13192 0.85855 0.0
C730 C 0.09726 0.1268 0.87466 0.0
C731 C 0.09605 0.10786 0.8671 0.0
C732 C 0.08204 0.10055 0.8555 0.0
H733 H 0.1628 0.04432 0.83683 0.0
H734 H 0.15583 0.07415 0.84762 0.0
C735 C 0.07004 0.11244 0.85126 0.0
C736 C 0.10979 0.09583 0.87078 0.0
H737 H 0.16637 0.10353 0.8692 0.0
C738 C 0.09693 0.07085 0.87269 0.0
C739 C 0.13523 0.10798 0.8702 0.0
C740 C 0.14992 0.13484 0.86805 0.0
C741 C 0.10857 0.05728 0.87267 0.0
C742 C 0.13392 0.06922 0.87106 0.0
C743 C 0.14699 0.09448 0.8705 0.0
C744 C 0.1459 0.0558 0.86658 0.0
C745 C 0.0933 0.03014 0.87301 0.0
C746 C 0.14471 0.03665 0.87399 0.0
C747 C 0.14856 0.01934 0.86774 0.0
C748 C 0.15378 0.02127 0.8541 0.0
C749 C 0.15845 0.04227 0.84731 0.0
C750 C 0.15451 0.05939 0.8535 0.0
H751 H 0.07371 0.02386 0.87286 0.0
H752 H 0.09747 0.02211 0.86437 0.0
H753 H 0.09722 0.0232 0.8822 0.0
H754 H 0.13871 0.03392 0.88421 0.0
H755 H 0.14499 0.00335 0.87321 0.0
H756 H 0.83611 0.93893 0.86144 0.0
H757 H 0.85254 0.98104 0.86807 0.0
H758 H 0.91608 0.00094 0.84463 0.0
H759 H 0.89944 0.95909 0.83763 0.0
H760 H 0.8928 0.01393 0.88092 0.0
H761 H 0.89319 0.04439 0.82969 0.0
H762 H 0.87795 0.01293 0.83416 0.0
H763 H 0.90977 0.02876 0.83062 0.0
C764 C 0.85363 0.9523 0.85775 0.0
C765 C 0.8664 0.94584 0.84888 0.0
C766 C 0.86297 0.97632 0.86155 0.0
C767 C 0.88523 0.99418 0.85658 0.0
C768 C 0.89852 0.98753 0.84827 0.0
H769 H 0.99631 0.12573 0.87802 0.0
H770 H 0.96037 0.08693 0.88092 0.0
C771 C 0.88909 0.96361 0.84434 0.0
C772 C 0.89458 0.01989 0.85979 0.0
H773 H 0.92001 0.07486 0.84504 0.0
C774 C 0.89838 0.02732 0.87311 0.0
C775 C 0.90087 0.03727 0.84966 0.0
C776 C 0.89495 0.03038 0.83525 0.0
C777 C 0.9103 0.05188 0.87649 0.0
C778 C 0.91925 0.06936 0.86625 0.0
C779 C 0.91351 0.06171 0.85299 0.0
C780 C 0.93762 0.09504 0.86858 0.0
C781 C 0.91347 0.05872 0.89097 0.0
C782 C 0.93678 0.11331 0.86127 0.0
C783 C 0.95777 0.13537 0.85917 0.0
C784 C 0.97969 0.13965 0.86466 0.0
C785 C 0.97964 0.12295 0.87369 0.0
C786 C 0.95888 0.10063 0.87543 0.0
H787 H 0.89731 0.04589 0.89672 0.0
H788 H 0.92898 0.0576 0.895 0.0
H789 H 0.91663 0.07722 0.89253 0.0
H790 H 0.92055 0.10961 0.85601 0.0
H791 H 0.95733 0.14804 0.85223 0.0
H792 H 0.93791 0.04293 0.64897 0.0
H793 H 0.91627 0.00338 0.63845 0.0
H794 H 0.89437 0.03314 0.60658 0.0
H795 H 0.91601 0.07294 0.61711 0.0
H796 H 0.85641 0.99051 0.61754 0.0
H797 H 0.93387 0.97916 0.60486 0.0
H798 H 0.93552 0.98872 0.62175 0.0
H799 H 0.93705 0.00822 0.60846 0.0
C800 C 0.92868 0.04112 0.63967 0.0
C801 C 0.92869 0.061 0.63384 0.0
C802 C 0.91645 0.01856 0.63362 0.0
C803 C 0.90409 0.01547 0.62163 0.0
C804 C 0.90401 0.03526 0.61577 0.0
H805 H 0.85334 0.8663 0.60409 0.0
H806 H 0.86228 0.90598 0.59608 0.0
C807 C 0.91637 0.05792 0.6218 0.0
C808 C 0.89022 0.99112 0.61581 0.0
H809 H 0.89602 0.94234 0.609 0.0
C810 C 0.86502 0.98005 0.61529 0.0
C811 C 0.90147 0.97773 0.61243 0.0
C812 C 0.9285 0.98917 0.61175 0.0
C813 C 0.85074 0.95522 0.61298 0.0
C814 C 0.86201 0.94123 0.61141 0.0
C815 C 0.88722 0.95289 0.61037 0.0
C816 C 0.84902 0.91485 0.61371 0.0
C817 C 0.82373 0.94406 0.61293 0.0
C818 C 0.83722 0.90605 0.6259 0.0
C819 C 0.83207 0.88346 0.63044 0.0
C820 C 0.83883 0.86935 0.62294 0.0
C821 C 0.84797 0.87684 0.61008 0.0
C822 C 0.85314 0.89955 0.60551 0.0
H823 H 0.81846 0.95644 0.60826 0.0
H824 H 0.81479 0.92662 0.60755 0.0
H825 H 0.81708 0.94101 0.62332 0.0
H826 H 0.83426 0.91756 0.63256 0.0
H827 H 0.82489 0.87805 0.64038 0.0
H828 H 0.13355 0.9445 0.63894 0.0
H829 H 0.09395 0.9087 0.63624 0.0
H830 H 0.07672 0.94497 0.60578 0.0
H831 H 0.11654 0.98031 0.60808 0.0
H832 H 0.05884 0.91587 0.6437 0.0
H833 H 0.03698 0.87687 0.59336 0.0
H834 H 0.06765 0.89583 0.59888 0.0
H835 H 0.05041 0.90897 0.59272 0.0
C836 C 0.12178 0.94432 0.63117 0.0
C837 C 0.12792 0.96525 0.62385 0.0
C838 C 0.09912 0.92387 0.62966 0.0
C839 C 0.08223 0.92418 0.62091 0.0
C840 C 0.08948 0.94406 0.61245 0.0
H841 H 0.93353 0.87933 0.62093 0.0
H842 H 0.97639 0.89542 0.61636 0.0
C843 C 0.11231 0.96438 0.61381 0.0
C844 C 0.0562 0.90702 0.62289 0.0
H845 H 0.00312 0.87256 0.60653 0.0
C846 C 0.04675 0.90588 0.63562 0.0
C847 C 0.04035 0.89429 0.61233 0.0
C848 C 0.04944 0.89387 0.59859 0.0
C849 C 0.02192 0.89344 0.63796 0.0
C850 C 0.00605 0.88149 0.62731 0.0
C851 C 0.0154 0.88182 0.61466 0.0
C852 C 0.97971 0.87003 0.62906 0.0
C853 C 0.01282 0.8943 0.65167 0.0
C854 C 0.9674 0.85024 0.63757 0.0
C855 C 0.94301 0.84116 0.64029 0.0
C856 C 0.93053 0.85167 0.63448 0.0
C857 C 0.94273 0.87099 0.62562 0.0
C858 C 0.96714 0.88008 0.62293 0.0
H859 H 0.02725 0.90801 0.65809 0.0
H860 H -0.00207 0.89837 0.65108 0.0
H861 H 0.00574 0.87647 0.6565 0.0
H862 H 0.97679 0.84213 0.64229 0.0
H863 H 0.934 0.8261 0.64706 0.0
H864 H 0.0098 0.14673 0.6129 0.0
H865 H 0.03942 0.13932 0.60167 0.0
H866 H 0.07735 0.15027 0.6387 0.0
H867 H 0.04842 0.15826 0.64978 0.0
H868 H 0.10756 0.16175 0.61704 0.0
H869 H 0.0248 0.07171 0.61128 0.0
H870 H 0.02596 0.09686 0.60275 0.0
H871 H 0.02437 0.09549 0.62056 0.0
C872 C 0.02512 0.14867 0.61847 0.0
C873 C 0.02656 0.15244 0.63227 0.0
C874 C 0.0419 0.14423 0.61207 0.0
C875 C 0.06005 0.1434 0.61946 0.0
C876 C 0.06334 0.15055 0.63281 0.0
H877 H 0.10437 0.05195 0.64248 0.0
H878 H 0.08552 0.07497 0.63527 0.0
C879 C 0.04673 0.15505 0.63917 0.0
C880 C 0.07241 0.13064 0.61455 0.0
H881 H 0.06164 0.07312 0.6111 0.0
C882 C 0.09764 0.14248 0.61528 0.0
C883 C 0.05931 0.10543 0.61234 0.0
C884 C 0.03213 0.09148 0.61173 0.0
C885 C 0.10994 0.1295 0.61518 0.0
C886 C 0.0966 0.10413 0.61408 0.0
C887 C 0.07169 0.09259 0.61199 0.0
C888 C 0.10723 0.08902 0.61754 0.0
C889 C 0.13679 0.14273 0.61748 0.0
C890 C 0.12534 0.08894 0.6098 0.0
C891 C 0.13621 0.07579 0.61393 0.0
C892 C 0.12903 0.06253 0.62583 0.0
C893 C 0.1103 0.06201 0.63329 0.0
C894 C 0.09951 0.07513 0.62917 0.0
H895 H 0.1441 0.16224 0.61938 0.0
H896 H 0.14127 0.13483 0.62607 0.0
H897 H 0.14596 0.14083 0.60861 0.0
H898 H 0.1313 0.09929 0.60071 0.0
H899 H 0.15057 0.07644 0.60797 0.0
H900 H 0.59385 0.4181 0.45286 0.0
H901 H 0.63464 0.43939 0.44345 0.0
H902 H 0.66042 0.41498 0.47611 0.0
H903 H 0.61995 0.39383 0.48557 0.0
H904 H 0.67735 0.47638 0.45653 0.0
H905 H 0.68615 0.3979 0.44244 0.0
H906 H 0.6573 0.39592 0.44495 0.0
H907 H 0.67431 0.39491 0.45891 0.0
C908 C 0.60821 0.4171 0.45795 0.0
C909 C 0.60377 0.40427 0.46993 0.0
C910 C 0.63143 0.42928 0.45257 0.0
C911 C 0.65038 0.42843 0.459 0.0
C912 C 0.6459 0.41546 0.47088 0.0
H913 H 0.78307 0.49746 0.48414 0.0
H914 H 0.7464 0.49262 0.47433 0.0
C915 C 0.62282 0.40349 0.47631 0.0
C916 C 0.67529 0.44204 0.45391 0.0
H917 H 0.72322 0.43427 0.44828 0.0
C918 C 0.68736 0.46729 0.45431 0.0
C919 C 0.68815 0.43022 0.45059 0.0
C920 C 0.67574 0.40323 0.44904 0.0
C921 C 0.71252 0.48085 0.45306 0.0
C922 C 0.72574 0.46874 0.45162 0.0
C923 C 0.71326 0.4437 0.44955 0.0
C924 C 0.75155 0.48014 0.45528 0.0
C925 C 0.72475 0.50789 0.45408 0.0
C926 C 0.7675 0.476 0.44766 0.0
C927 C 0.78858 0.47861 0.45337 0.0
C928 C 0.79372 0.48514 0.46679 0.0
C929 C 0.77942 0.49226 0.4738 0.0
C930 C 0.75847 0.4897 0.46811 0.0
H931 H 0.71378 0.51461 0.44911 0.0
H932 H 0.72639 0.51313 0.46469 0.0
H933 H 0.74299 0.51678 0.44956 0.0
H934 H 0.76252 0.46857 0.43775 0.0
H935 H 0.79932 0.473 0.44774 0.0
H936 H 0.51609 0.32056 0.44935 0.0
H937 H 0.51832 0.28634 0.44012 0.0
H938 H 0.50171 0.25265 0.47874 0.0
H939 H 0.49886 0.28612 0.48775 0.0
H940 H 0.55334 0.28087 0.448 0.0
H941 H 0.47251 0.19382 0.45684 0.0
H942 H 0.47147 0.22147 0.45686 0.0
H943 H 0.47833 0.21066 0.47188 0.0
C944 C 0.51168 0.30521 0.45565 0.0
C945 C 0.50765 0.30605 0.46929 0.0
C946 C 0.51305 0.2857 0.45039 0.0
C947 C 0.51019 0.26681 0.4587 0.0
C948 C 0.50347 0.26658 0.47199 0.0
H949 H 0.60469 0.22574 0.48247 0.0
H950 H 0.58198 0.24417 0.47411 0.0
C951 C 0.5021 0.28594 0.47721 0.0
C952 C 0.51975 0.25087 0.4548 0.0
H953 H 0.51164 0.19544 0.46228 0.0
C954 C 0.54387 0.26193 0.45065 0.0
C955 C 0.50748 0.22601 0.45789 0.0
C956 C 0.48092 0.21236 0.46096 0.0
C957 C 0.5568 0.24966 0.45119 0.0
C958 C 0.54545 0.22597 0.4563 0.0
C959 C 0.52058 0.21391 0.45878 0.0
C960 C 0.55962 0.21481 0.46081 0.0
C961 C 0.58286 0.26269 0.44696 0.0
C962 C 0.55405 0.19182 0.45646 0.0
C963 C 0.56685 0.18109 0.46139 0.0
C964 C 0.58529 0.19316 0.47079 0.0
C965 C 0.59071 0.2161 0.47517 0.0
C966 C 0.57788 0.22673 0.47029 0.0
H967 H 0.58596 0.2757 0.43887 0.0
H968 H 0.59428 0.27309 0.45549 0.0
H969 H 0.58868 0.24995 0.44351 0.0
H970 H 0.53983 0.1822 0.44928 0.0
H971 H 0.56227 0.16334 0.45785 0.0
H972 H 0.66513 0.19393 0.44282 0.0
H973 H 0.69678 0.23251 0.43426 0.0
H974 H 0.74001 0.24085 0.46884 0.0
H975 H 0.70909 0.20211 0.47708 0.0
H976 H 0.70205 0.26846 0.44781 0.0
H977 H 0.7925 0.2801 0.44379 0.0
H978 H 0.7659 0.25057 0.44369 0.0
H979 H 0.77991 0.26506 0.45915 0.0
C980 C 0.68196 0.2034 0.44822 0.0
C981 C 0.68441 0.19536 0.46079 0.0
C982 C 0.70005 0.2255 0.44332 0.0
C983 C 0.72072 0.23984 0.45096 0.0
C984 C 0.7245 0.23015 0.46261 0.0
H985 H 0.76672 0.37067 0.48608 0.0
H986 H 0.74735 0.33035 0.47642 0.0
C987 C 0.70659 0.20794 0.46741 0.0
C988 C 0.73459 0.26632 0.44895 0.0
H989 H 0.79062 0.31482 0.4538 0.0
C990 C 0.72152 0.27856 0.44864 0.0
C991 C 0.76 0.27979 0.44985 0.0
C992 C 0.7753 0.26809 0.44898 0.0
C993 C 0.73287 0.30346 0.45063 0.0
C994 C 0.75782 0.31639 0.45325 0.0
C995 C 0.77133 0.30472 0.45213 0.0
C996 C 0.76946 0.34107 0.45872 0.0
C997 C 0.71779 0.31551 0.45063 0.0
C998 C 0.78859 0.36033 0.45207 0.0
C999 C 0.79971 0.38343 0.45759 0.0
C1000 C 0.79202 0.38749 0.46991 0.0
C1001 C 0.77293 0.36812 0.47655 0.0
C1002 C 0.76179 0.34511 0.47101 0.0
H1003 H 0.70154 0.30553 0.4443 0.0
H1004 H 0.71164 0.31571 0.4609 0.0
H1005 H 0.72828 0.33437 0.44704 0.0
H1006 H 0.79484 0.35748 0.44262 0.0
H1007 H 0.81449 0.39804 0.45229 0.0
H1008 H 0.81053 0.47514 0.71667 0.0
H1009 H 0.80589 0.43792 0.72619 0.0
H1010 H 0.82823 0.42203 0.68895 0.0
H1011 H 0.83335 0.45913 0.67962 0.0
H1012 H 0.77123 0.3986 0.71615 0.0
H1013 H 0.85151 0.3894 0.71321 0.0
H1014 H 0.85363 0.41859 0.71303 0.0
H1015 H 0.84919 0.40197 0.69781 0.0
C1016 C 0.81567 0.46431 0.71078 0.0
C1017 C 0.82189 0.46973 0.69734 0.0
C1018 C 0.81295 0.44299 0.71622 0.0
C1019 C 0.81663 0.42706 0.70831 0.0
C1020 C 0.8257 0.4341 0.6954 0.0
H1021 H 0.72759 0.29561 0.67862 0.0
H1022 H 0.7486 0.3357 0.6885 0.0
C1023 C 0.8284 0.4553 0.68998 0.0
C1024 C 0.80548 0.40123 0.7119 0.0
H1025 H 0.81296 0.353 0.70606 0.0
C1026 C 0.7806 0.38869 0.71446 0.0
C1027 C 0.81754 0.38807 0.70998 0.0
C1028 C 0.84451 0.40035 0.70851 0.0
C1029 C 0.7671 0.36357 0.71342 0.0
C1030 C 0.77873 0.35079 0.70953 0.0
C1031 C 0.80395 0.36293 0.70868 0.0
C1032 C 0.7649 0.32593 0.70435 0.0
C1033 C 0.74026 0.35112 0.71564 0.0
C1034 C 0.76744 0.30725 0.70986 0.0
C1035 C 0.75545 0.28426 0.70419 0.0
C1036 C 0.74105 0.27977 0.69282 0.0
C1037 C 0.73847 0.2985 0.6874 0.0
C1038 C 0.75033 0.32137 0.69309 0.0
H1039 H 0.73558 0.36116 0.7229 0.0
H1040 H 0.7312 0.35043 0.70613 0.0
H1041 H 0.73314 0.33241 0.71928 0.0
H1042 H 0.77881 0.31051 0.71846 0.0
H1043 H 0.75782 0.27014 0.70854 0.0
H1044 H 0.52876 0.34024 0.71502 0.0
H1045 H 0.56577 0.37476 0.7236 0.0
H1046 H 0.57946 0.40835 0.68502 0.0
H1047 H 0.54275 0.37435 0.67657 0.0
H1048 H 0.60676 0.38152 0.71337 0.0
H1049 H 0.60731 0.46694 0.70795 0.0
H1050 H 0.57958 0.43833 0.70856 0.0
H1051 H 0.59535 0.44982 0.69305 0.0
C1052 C 0.53912 0.35557 0.70859 0.0
C1053 C 0.53313 0.35462 0.69511 0.0
C1054 C 0.56028 0.37523 0.71349 0.0
C1055 C 0.57538 0.39425 0.70499 0.0
C1056 C 0.56795 0.39427 0.69189 0.0
H1057 H 0.70767 0.46974 0.67295 0.0
H1058 H 0.66651 0.45081 0.6814 0.0
C1059 C 0.54702 0.37466 0.687 0.0
C1060 C 0.60091 0.41093 0.70848 0.0
H1061 H 0.64575 0.4683 0.70215 0.0
C1062 C 0.61529 0.4007 0.71146 0.0
C1063 C 0.61206 0.43595 0.70605 0.0
C1064 C 0.59764 0.44836 0.70387 0.0
C1065 C 0.64045 0.41424 0.71048 0.0
C1066 C 0.65139 0.43862 0.70657 0.0
C1067 C 0.63722 0.44947 0.70496 0.0
C1068 C 0.67663 0.45174 0.70197 0.0
C1069 C 0.65498 0.40184 0.7124 0.0
C1070 C 0.69591 0.4586 0.71078 0.0
C1071 C 0.71951 0.46936 0.70596 0.0
C1072 C 0.72407 0.47334 0.69227 0.0
C1073 C 0.70471 0.46677 0.68353 0.0
C1074 C 0.68122 0.45612 0.68835 0.0
H1075 H 0.64346 0.38231 0.71452 0.0
H1076 H 0.66585 0.40401 0.70339 0.0
H1077 H 0.66762 0.41028 0.72082 0.0
H1078 H 0.69268 0.45543 0.72134 0.0
H1079 H 0.73413 0.47439 0.71293 0.0
H1080 H 0.62297 0.17181 0.67471 0.0
H1081 H 0.58943 0.17416 0.68424 0.0
H1082 H 0.62412 0.19055 0.72256 0.0
H1083 H 0.65843 0.18905 0.71288 0.0
H1084 H 0.55647 0.15835 0.70456 0.0
H1085 H 0.62873 0.25382 0.71253 0.0
H1086 H 0.63466 0.23282 0.70383 0.0
H1087 H 0.63081 0.23078 0.72154 0.0
C1088 C 0.62315 0.17513 0.68527 0.0
C1089 C 0.64359 0.18099 0.69297 0.0
C1090 C 0.60388 0.17638 0.69074 0.0
C1091 C 0.60469 0.18338 0.70401 0.0
C1092 C 0.6235 0.1858 0.7122 0.0
H1093 H 0.52824 0.26445 0.7127 0.0
H1094 H 0.54638 0.24125 0.72123 0.0
C1095 C 0.64298 0.18474 0.70668 0.0
C1096 C 0.5885 0.1925 0.70807 0.0
H1097 H 0.58942 0.24598 0.71106 0.0
C1098 C 0.56358 0.17739 0.70641 0.0
C1099 C 0.59779 0.21739 0.71053 0.0
C1100 C 0.62443 0.23476 0.71216 0.0
C1101 C 0.54806 0.18686 0.70586 0.0
C1102 C 0.55777 0.212 0.70697 0.0
C1103 C 0.58215 0.22671 0.71012 0.0
C1104 C 0.54433 0.22388 0.70249 0.0
C1105 C 0.52164 0.17011 0.70326 0.0
C1106 C 0.5376 0.22204 0.68911 0.0
C1107 C 0.52769 0.23548 0.68418 0.0
C1108 C 0.52428 0.25101 0.69256 0.0
C1109 C 0.53071 0.25262 0.70602 0.0
C1110 C 0.54089 0.2393 0.71093 0.0
H1111 H 0.51573 0.15176 0.70713 0.0
H1112 H 0.51048 0.17694 0.70787 0.0
H1113 H 0.51839 0.16864 0.69239 0.0
H1114 H 0.54073 0.21075 0.68235 0.0
H1115 H 0.52284 0.23382 0.67378 0.0
H1116 H 0.70898 0.23967 0.19625 0.0
H1117 H 0.66779 0.21572 0.20439 0.0
H1118 H 0.69276 0.2354 0.24466 0.0
H1119 H 0.73433 0.2596 0.23656 0.0
H1120 H 0.64856 0.17598 0.22494 0.0
H1121 H 0.64069 0.25642 0.23787 0.0
H1122 H 0.66359 0.25895 0.2265 0.0
H1123 H 0.66591 0.25403 0.24382 0.0
C1124 C 0.70576 0.23893 0.20684 0.0
C1125 C 0.72482 0.25163 0.21577 0.0
C1126 C 0.68226 0.22511 0.21148 0.0
C1127 C 0.67734 0.2238 0.2251 0.0
C1128 C 0.69629 0.23625 0.2341 0.0
H1129 H 0.52717 0.18045 0.23378 0.0
H1130 H 0.56362 0.18386 0.2438 0.0
C1131 C 0.71993 0.25008 0.22946 0.0
C1132 C 0.65201 0.21039 0.22949 0.0
H1133 H 0.60504 0.21977 0.23514 0.0
C1134 C 0.63902 0.18537 0.22759 0.0
C1135 C 0.63975 0.22264 0.23319 0.0
C1136 C 0.65304 0.2495 0.23548 0.0
C1137 C 0.61378 0.17264 0.22802 0.0
C1138 C 0.60139 0.18543 0.23007 0.0
C1139 C 0.61451 0.20994 0.23349 0.0
C1140 C 0.57619 0.17578 0.22563 0.0
C1141 C 0.60065 0.14591 0.22545 0.0
C1142 C 0.5706 0.169 0.21228 0.0
C1143 C 0.54998 0.16717 0.20658 0.0
C1144 C 0.53459 0.17214 0.21411 0.0
C1145 C 0.53875 0.17644 0.22779 0.0
C1146 C 0.55957 0.17843 0.23351 0.0
H1147 H 0.61057 0.13754 0.2299 0.0
H1148 H 0.58208 0.13693 0.22952 0.0
H1149 H 0.59968 0.14266 0.21459 0.0
H1150 H 0.58331 0.16741 0.20589 0.0
H1151 H 0.54714 0.16378 0.19601 0.0
H1152 H 0.81091 0.345 0.23751 0.0
H1153 H 0.80703 0.37917 0.24539 0.0
H1154 H 0.81938 0.40765 0.20556 0.0
H1155 H 0.82368 0.37411 0.19777 0.0
H1156 H 0.8369 0.44373 0.22506 0.0
H1157 H 0.74203 0.3716 0.23468 0.0
H1158 H 0.76568 0.3707 0.24377 0.0
H1159 H 0.76295 0.36522 0.2262 0.0
C1160 C 0.81373 0.35909 0.23058 0.0
C1161 C 0.81711 0.35676 0.217 0.0
C1162 C 0.81134 0.37847 0.23506 0.0
C1163 C 0.81229 0.39555 0.22598 0.0
C1164 C 0.81843 0.3946 0.21273 0.0
H1165 H 0.76133 0.47717 0.19395 0.0
H1166 H 0.7844 0.45928 0.20254 0.0
C1167 C 0.82079 0.37535 0.20827 0.0
C1168 C 0.80299 0.41189 0.22931 0.0
H1169 H 0.74933 0.41064 0.23193 0.0
C1170 C 0.81788 0.43664 0.22698 0.0
C1171 C 0.77816 0.4026 0.23184 0.0
C1172 C 0.76115 0.37609 0.23422 0.0
C1173 C 0.80823 0.45196 0.22598 0.0
C1174 C 0.78309 0.44217 0.22722 0.0
C1175 C 0.7686 0.418 0.2309 0.0
C1176 C 0.77098 0.45535 0.22264 0.0
C1177 C 0.82484 0.47822 0.2229 0.0
C1178 C 0.75535 0.45857 0.23103 0.0
C1179 C 0.74196 0.46866 0.2261 0.0
C1180 C 0.74379 0.47533 0.21267 0.0
C1181 C 0.75954 0.47219 0.20434 0.0
C1182 C 0.77297 0.46226 0.20928 0.0
H1183 H 0.8432 0.4845 0.22687 0.0
H1184 H 0.82634 0.48075 0.21198 0.0
H1185 H 0.81791 0.4896 0.2271 0.0
H1186 H 0.75328 0.45298 0.24132 0.0
H1187 H 0.72995 0.4709 0.23274 0.0
H1188 H 0.5288 0.25768 0.22969 0.0
H1189 H 0.54554 0.29903 0.23797 0.0
H1190 H 0.54149 0.32291 0.19853 0.0
H1191 H 0.52488 0.28189 0.19022 0.0
H1192 H 0.58839 0.33864 0.22876 0.0
H1193 H 0.51197 0.35437 0.2218 0.0
H1194 H 0.50825 0.32452 0.22267 0.0
H1195 H 0.51714 0.34123 0.20735 0.0
C1196 C 0.53137 0.27177 0.22282 0.0
C1197 C 0.52562 0.26663 0.2093 0.0
C1198 C 0.54077 0.29528 0.22758 0.0
C1199 C 0.54418 0.31386 0.21892 0.0
C1200 C 0.53836 0.3087 0.20544 0.0
H1201 H 0.62107 0.44792 0.1937 0.0
H1202 H 0.58841 0.40955 0.20151 0.0
C1203 C 0.52916 0.28531 0.20068 0.0
C1204 C 0.5562 0.33917 0.22343 0.0
H1205 H 0.55199 0.3899 0.22058 0.0
C1206 C 0.58031 0.34986 0.22743 0.0
C1207 C 0.54543 0.35358 0.2218 0.0
C1208 C 0.51918 0.34277 0.2183 0.0
C1209 C 0.59476 0.37496 0.22834 0.0
C1210 C 0.58455 0.38959 0.22543 0.0
C1211 C 0.55979 0.37868 0.22278 0.0
C1212 C 0.60009 0.41533 0.22202 0.0
C1213 C 0.62133 0.38559 0.23106 0.0
C1214 C 0.61657 0.43204 0.23112 0.0
C1215 C 0.63546 0.45413 0.22662 0.0
C1216 C 0.63788 0.45958 0.21301 0.0
C1217 C 0.61976 0.44401 0.20423 0.0
C1218 C 0.60102 0.42209 0.2087 0.0
H1219 H 0.62666 0.37159 0.23179 0.0
H1220 H 0.63213 0.3984 0.22307 0.0
H1221 H 0.62599 0.39562 0.24057 0.0
H1222 H 0.61585 0.42731 0.2415 0.0
H1223 H 0.64919 0.46591 0.23359 0.0
H1224 H 0.60358 0.37988 0.00634 0.0
H1225 H 0.58075 0.3389 0.99759 0.0
H1226 H 0.55442 0.36399 0.96552 0.0
H1227 H 0.5773 0.40516 0.97421 0.0
H1228 H 0.51808 0.32305 0.97956 0.0
H1229 H 0.59335 0.31001 0.96378 0.0
H1230 H 0.59766 0.32233 0.98021 0.0
H1231 H 0.59678 0.33948 0.9663 0.0
C1232 C 0.59313 0.37672 0.99736 0.0
C1233 C 0.59224 0.39568 0.99094 0.0
C1234 C 0.58021 0.35335 0.99233 0.0
C1235 C 0.5662 0.34855 0.98081 0.0
C1236 C 0.5653 0.36743 0.97435 0.0
H1237 H 0.51089 0.19701 0.96604 0.0
H1238 H 0.51891 0.2364 0.95793 0.0
C1239 C 0.57838 0.39088 0.97932 0.0
C1240 C 0.55146 0.32345 0.97616 0.0
H1241 H 0.55616 0.27395 0.96955 0.0
C1242 C 0.5263 0.31235 0.97701 0.0
C1243 C 0.56216 0.3097 0.97245 0.0
C1244 C 0.58898 0.32105 0.97048 0.0
C1245 C 0.51173 0.2873 0.97565 0.0
C1246 C 0.52273 0.27319 0.97357 0.0
C1247 C 0.54765 0.28468 0.97126 0.0
C1248 C 0.51016 0.24708 0.97654 0.0
C1249 C 0.48485 0.2761 0.97715 0.0
C1250 C 0.50132 0.23952 0.98944 0.0
C1251 C 0.49686 0.2172 0.99407 0.0
C1252 C 0.50117 0.20206 0.98589 0.0
C1253 C 0.5073 0.20834 0.97252 0.0
C1254 C 0.51197 0.23086 0.96789 0.0
H1255 H 0.47866 0.2882 0.9731 0.0
H1256 H 0.47504 0.25842 0.97204 0.0
H1257 H 0.48015 0.27343 0.98786 0.0
H1258 H 0.50023 0.2518 0.9964 0.0
H1259 H 0.49213 0.21273 0.00442 0.0
H1260 H 0.78448 0.27521 0.00734 0.0
H1261 H 0.74513 0.24394 0.9998 0.0
H1262 H 0.7538 0.28354 0.96366 0.0
H1263 H 0.79323 0.31526 0.9713 0.0
H1264 H 0.71751 0.27948 0.97865 0.0
H1265 H 0.7078 0.18938 0.97429 0.0
H1266 H 0.72322 0.20374 0.98933 0.0
H1267 H 0.73677 0.21667 0.97355 0.0
C1268 C 0.77851 0.27677 0.99752 0.0
C1269 C 0.79167 0.29788 0.99003 0.0
C1270 C 0.75601 0.25872 0.99316 0.0
C1271 C 0.74644 0.2614 0.98117 0.0
C1272 C 0.76087 0.28111 0.97293 0.0
H1273 H 0.58996 0.20145 0.97319 0.0
H1274 H 0.63222 0.21956 0.96657 0.0
C1275 C 0.78343 0.29921 0.9773 0.0
C1276 C 0.72006 0.24724 0.97907 0.0
H1277 H 0.67186 0.19037 0.98157 0.0
C1278 C 0.70749 0.25995 0.97888 0.0
C1279 C 0.70703 0.22181 0.9795 0.0
C1280 C 0.71947 0.20715 0.97904 0.0
C1281 C 0.6824 0.24809 0.98018 0.0
C1282 C 0.66945 0.22271 0.98139 0.0
C1283 C 0.68185 0.20984 0.98074 0.0
C1284 C 0.64344 0.20959 0.98459 0.0
C1285 C 0.67022 0.263 0.98122 0.0
C1286 C 0.63562 0.19725 0.9967 0.0
C1287 C 0.61147 0.18669 0.00045 0.0
C1288 C 0.59479 0.18841 0.99216 0.0
C1289 C 0.60252 0.20018 0.97987 0.0
C1290 C 0.62663 0.21051 0.97607 0.0
H1291 H 0.68333 0.28238 0.98288 0.0
H1292 H 0.66044 0.26141 0.97186 0.0
H1293 H 0.65696 0.2565 0.98947 0.0
H1294 H 0.64833 0.19636 0.00343 0.0
H1295 H 0.60597 0.17758 0.00994 0.0
H1296 H 0.82037 0.41103 0.97765 0.0
H1297 H 0.80128 0.43345 0.96945 0.0
H1298 H 0.75559 0.41197 0.00405 0.0
H1299 H 0.77425 0.38924 0.01218 0.0
H1300 H 0.73125 0.40627 0.98 0.0
H1301 H 0.81189 0.49779 0.98448 0.0
H1302 H 0.81484 0.47579 0.97485 0.0
H1303 H 0.81027 0.47181 0.99244 0.0
C1304 C 0.80623 0.41109 0.98349 0.0
C1305 C 0.79882 0.39846 0.99558 0.0
C1306 C 0.79546 0.424 0.97882 0.0
C1307 C 0.77726 0.42459 0.98622 0.0
C1308 C 0.76966 0.41175 0.9982 0.0
H1309 H 0.71343 0.49994 0.00668 0.0
H1310 H 0.74364 0.49017 0.99936 0.0
C1311 C 0.78033 0.3988 0.00285 0.0
C1312 C 0.76578 0.4384 0.98166 0.0
H1313 H 0.77517 0.49557 0.97937 0.0
C1314 C 0.74085 0.42579 0.97956 0.0
C1315 C 0.77853 0.46384 0.98105 0.0
C1316 C 0.80534 0.47824 0.98338 0.0
C1317 C 0.72793 0.43791 0.97793 0.0
C1318 C 0.74047 0.46345 0.97807 0.0
C1319 C 0.76568 0.47605 0.97914 0.0
C1320 C 0.72737 0.47676 0.98012 0.0
C1321 C 0.70077 0.4232 0.97728 0.0
C1322 C 0.70941 0.4745 0.97127 0.0
C1323 C 0.69186 0.47991 0.97552 0.0
C1324 C 0.69236 0.48781 0.9886 0.0
C1325 C 0.71241 0.49351 0.99662 0.0
C1326 C 0.72976 0.48797 0.99242 0.0
H1327 H 0.6939 0.40372 0.97904 0.0
H1328 H 0.69257 0.42962 0.98477 0.0
H1329 H 0.6946 0.42514 0.96731 0.0
H1330 H 0.70765 0.46647 0.96159 0.0
H1331 H 0.67669 0.47556 0.96908 0.0
H1332 H 0.28587 0.73553 0.80412 0.0
H1333 H 0.32851 0.76385 0.80056 0.0
H1334 H 0.31072 0.81069 0.77868 0.0
H1335 H 0.26769 0.78201 0.78201 0.0
H1336 H 0.34547 0.80493 0.76622 0.0
H1337 H 0.37009 0.82794 0.81871 0.0
H1338 H 0.35369 0.79587 0.81675 0.0
H1339 H 0.33921 0.81314 0.8131 0.0
C1340 C 0.29099 0.75189 0.79861 0.0
C1341 C 0.27348 0.75663 0.79341 0.0
C1342 C 0.31537 0.76817 0.79666 0.0
C1343 C 0.32278 0.78966 0.78964 0.0
C1344 C 0.30536 0.79434 0.78426 0.0
H1345 H 0.47613 0.85694 0.79842 0.0
H1346 H 0.44108 0.86162 0.79435 0.0
C1347 C 0.28084 0.77796 0.78617 0.0
C1348 C 0.34881 0.80639 0.78754 0.0
H1349 H 0.40176 0.83001 0.80437 0.0
C1350 C 0.35788 0.81105 0.77454 0.0
C1351 C 0.36501 0.81527 0.79834 0.0
C1352 C 0.35644 0.81303 0.8125 0.0
C1353 C 0.38272 0.82184 0.77213 0.0
C1354 C 0.39865 0.82743 0.78299 0.0
C1355 C 0.3897 0.82539 0.79595 0.0
C1356 C 0.42307 0.83047 0.78151 0.0
C1357 C 0.39144 0.82615 0.75796 0.0
C1358 C 0.42547 0.81248 0.7749 0.0
C1359 C 0.44559 0.81002 0.77706 0.0
C1360 C 0.46346 0.82517 0.78609 0.0
C1361 C 0.46253 0.8449 0.79147 0.0
C1362 C 0.44245 0.84754 0.78917 0.0
H1363 H 0.38096 0.83223 0.75194 0.0
H1364 H 0.41085 0.83984 0.75724 0.0
H1365 H 0.38846 0.80899 0.75358 0.0
H1366 H 0.41073 0.79872 0.76917 0.0
H1367 H 0.44589 0.79473 0.7727 0.0
H1368 H 0.14713 0.62344 0.78964 0.0
H1369 H 0.14628 0.58495 0.78769 0.0
H1370 H 0.21478 0.62066 0.76754 0.0
H1371 H 0.21538 0.65882 0.76906 0.0
H1372 H 0.18685 0.57313 0.75975 0.0
H1373 H 0.19202 0.58256 0.81487 0.0
H1374 H 0.16533 0.57921 0.80708 0.0
H1375 H 0.19384 0.60593 0.80419 0.0
C1376 C 0.16151 0.62288 0.78431 0.0
C1377 C 0.18165 0.64421 0.77981 0.0
C1378 C 0.16107 0.6009 0.78329 0.0
C1379 C 0.18088 0.60016 0.77789 0.0
C1380 C 0.19943 0.62088 0.77188 0.0
H1381 H 0.27251 0.55124 0.80065 0.0
H1382 H 0.24759 0.56933 0.79623 0.0
C1383 C 0.19978 0.64273 0.77279 0.0
C1384 C 0.18484 0.57968 0.78052 0.0
H1385 H 0.20127 0.555 0.80558 0.0
C1386 C 0.18946 0.56866 0.76977 0.0
C1387 C 0.18851 0.57417 0.79364 0.0
C1388 C 0.18486 0.58614 0.80563 0.0
C1389 C 0.19907 0.55343 0.77174 0.0
C1390 C 0.20376 0.5489 0.78482 0.0
C1391 C 0.19761 0.55858 0.79558 0.0
C1392 C 0.21814 0.53716 0.78756 0.0
C1393 C 0.20572 0.54373 0.75983 0.0
C1394 C 0.20971 0.51298 0.78428 0.0
C1395 C 0.22401 0.5026 0.78676 0.0
C1396 C 0.24686 0.51624 0.79263 0.0
C1397 C 0.255 0.54029 0.79612 0.0
C1398 C 0.24078 0.55063 0.7936 0.0
H1399 H 0.204 0.55169 0.75038 0.0
H1400 H 0.22451 0.54737 0.76073 0.0
H1401 H 0.19367 0.52393 0.7593 0.0
H1402 H 0.19212 0.50219 0.77981 0.0
H1403 H 0.21726 0.48397 0.78402 0.0
H1404 H 0.37603 0.52225 0.78398 0.0
H1405 H 0.41126 0.56234 0.78111 0.0
H1406 H 0.36691 0.58617 0.76169 0.0
H1407 H 0.33207 0.54607 0.76391 0.0
H1408 H 0.41406 0.61315 0.75406 0.0
H1409 H 0.40555 0.60452 0.80911 0.0
H1410 H 0.41334 0.58445 0.80099 0.0
H1411 H 0.38428 0.58152 0.79818 0.0
C1412 C 0.37405 0.53572 0.77853 0.0
C1413 C 0.35118 0.53131 0.77456 0.0
C1414 C 0.39416 0.55867 0.77698 0.0
C1415 C 0.39142 0.57745 0.77174 0.0
C1416 C 0.36937 0.57204 0.76597 0.0
H1417 H 0.43178 0.71449 0.80163 0.0
H1418 H 0.41401 0.67297 0.79393 0.0
C1419 C 0.34939 0.54904 0.76728 0.0
C1420 C 0.40916 0.60295 0.77467 0.0
H1421 H 0.43081 0.64265 0.80051 0.0
C1422 C 0.41813 0.61964 0.7642 0.0
C1423 C 0.414 0.61136 0.78795 0.0
C1424 C 0.40368 0.59463 0.79972 0.0
C1425 C 0.43099 0.64456 0.76666 0.0
C1426 C 0.4353 0.65284 0.77993 0.0
C1427 C 0.4274 0.63615 0.79035 0.0
C1428 C 0.44588 0.67857 0.78344 0.0
C1429 C 0.43862 0.6618 0.75511 0.0
C1430 C 0.46963 0.69554 0.77998 0.0
C1431 C 0.47978 0.7194 0.7843 0.0
C1432 C 0.4664 0.72649 0.79228 0.0
C1433 C 0.44254 0.70953 0.79555 0.0
C1434 C 0.43238 0.68582 0.79115 0.0
H1435 H 0.42994 0.65253 0.74568 0.0
H1436 H 0.43413 0.67617 0.75699 0.0
H1437 H 0.45842 0.67053 0.75383 0.0
H1438 H 0.48049 0.69022 0.77426 0.0
H1439 H 0.49826 0.73212 0.78169 0.0
H1440 H 0.40467 0.58714 0.0262 0.0
H1441 H 0.42782 0.62716 0.03636 0.0
H1442 H 0.40918 0.658 0.00361 0.0
H1443 H 0.38622 0.61827 0.99338 0.0
H1444 H 0.46779 0.66851 0.02383 0.0
H1445 H 0.39397 0.68536 0.03737 0.0
H1446 H 0.38925 0.65543 0.03464 0.0
H1447 H 0.39084 0.67391 0.02079 0.0
C1448 C 0.40529 0.60245 0.02126 0.0
C1449 C 0.39364 0.59965 0.00901 0.0
C1450 C 0.41852 0.62523 0.02707 0.0
C1451 C 0.41991 0.64539 0.02081 0.0
C1452 C 0.40795 0.64254 0.0087 0.0
H1453 H 0.50098 0.78064 0.99926 0.0
H1454 H 0.49067 0.74098 0.00741 0.0
C1455 C 0.39494 0.61988 0.00284 0.0
C1456 C 0.43508 0.66984 0.02625 0.0
H1457 H 0.43262 0.72061 0.03271 0.0
C1458 C 0.46017 0.67984 0.02618 0.0
C1459 C 0.42512 0.68439 0.02967 0.0
C1460 C 0.39829 0.67416 0.03077 0.0
C1461 C 0.47556 0.70468 0.02795 0.0
C1462 C 0.46548 0.71971 0.02965 0.0
C1463 C 0.44046 0.7092 0.03127 0.0
C1464 C 0.47932 0.74588 0.02685 0.0
C1465 C 0.50239 0.71473 0.02723 0.0
C1466 C 0.47747 0.76237 0.03526 0.0
C1467 C 0.48336 0.7852 0.03054 0.0
C1468 C 0.49079 0.79156 0.01732 0.0
C1469 C 0.49521 0.77611 0.00948 0.0
C1470 C 0.48949 0.75345 0.0142 0.0
H1471 H 0.50734 0.70188 0.0316 0.0
H1472 H 0.50808 0.71741 0.01667 0.0
H1473 H 0.51242 0.73224 0.03249 0.0
H1474 H 0.46954 0.75685 0.04503 0.0
H1475 H 0.47973 0.79678 0.03678 0.0
H1476 H 0.20213 0.67758 0.02991 0.0
H1477 H 0.24265 0.70869 0.0363 0.0
H1478 H 0.24577 0.75108 0.00233 0.0
H1479 H 0.20522 0.72027 0.99599 0.0
H1480 H 0.2762 0.71409 0.01766 0.0
H1481 H 0.28669 0.80317 0.02935 0.0
H1482 H 0.25818 0.77547 0.03073 0.0
H1483 H 0.26874 0.78963 0.01482 0.0
C1484 C 0.211 0.69404 0.02415 0.0
C1485 C 0.20074 0.6963 0.0123 0.0
C1486 C 0.23417 0.71181 0.02782 0.0
C1487 C 0.24728 0.73213 0.01975 0.0
C1488 C 0.2359 0.73573 0.00881 0.0
H1489 H 0.39091 0.82408 0.99349 0.0
H1490 H 0.34802 0.8043 0.99902 0.0
C1491 C 0.21271 0.71799 0.00514 0.0
C1492 C 0.27385 0.74609 0.02076 0.0
H1493 H 0.32217 0.80311 0.02135 0.0
C1494 C 0.2863 0.73352 0.01878 0.0
C1495 C 0.2869 0.77142 0.02197 0.0
C1496 C 0.27444 0.7857 0.02446 0.0
C1497 C 0.31135 0.74563 0.01732 0.0
C1498 C 0.32443 0.77104 0.01825 0.0
C1499 C 0.31209 0.78362 0.02067 0.0
C1500 C 0.35072 0.78478 0.01585 0.0
C1501 C 0.32335 0.73112 0.01403 0.0
C1502 C 0.36649 0.78074 0.02364 0.0
C1503 C 0.39086 0.79164 0.02035 0.0
C1504 C 0.39993 0.80714 0.00937 0.0
C1505 C 0.38435 0.81208 0.00196 0.0
C1506 C 0.3599 0.80092 0.00515 0.0
H1507 H 0.3102 0.71274 0.01047 0.0
H1508 H 0.33736 0.74022 0.00629 0.0
H1509 H 0.33212 0.72921 0.02308 0.0
H1510 H 0.35985 0.76875 0.03211 0.0
H1511 H 0.40256 0.78781 0.02635 0.0
H1512 H 0.21333 0.60541 0.98997 0.0
H1513 H 0.22948 0.58005 0.99731 0.0
H1514 H 0.17216 0.54575 0.02598 0.0
H1515 H 0.15556 0.57094 0.01849 0.0
H1516 H 0.24464 0.57695 0.02328 0.0
H1517 H 0.16995 0.48877 0.0054 0.0
H1518 H 0.17342 0.51697 0.99961 0.0
H1519 H 0.16285 0.5068 0.01613 0.0
C1520 C 0.2041 0.59244 0.99781 0.0
C1521 C 0.18316 0.5901 0.00363 0.0
C1522 C 0.21336 0.578 0.00202 0.0
C1523 C 0.20192 0.56094 0.01213 0.0
C1524 C 0.18106 0.55859 0.01805 0.0
H1525 H 0.30277 0.50903 0.02552 0.0
H1526 H 0.26875 0.51273 0.03382 0.0
C1527 C 0.17169 0.57304 0.01379 0.0
C1528 C 0.21237 0.54598 0.01629 0.0
H1529 H 0.20593 0.49039 0.01159 0.0
C1530 C 0.23604 0.55786 0.02108 0.0
C1531 C 0.20087 0.52107 0.01351 0.0
C1532 C 0.1754 0.50751 0.00833 0.0
C1533 C 0.24949 0.54614 0.02186 0.0
C1534 C 0.23865 0.52162 0.01803 0.0
C1535 C 0.21414 0.50912 0.01456 0.0
C1536 C 0.2537 0.51097 0.01433 0.0
C1537 C 0.27586 0.56086 0.02543 0.0
C1538 C 0.25502 0.50627 0.00086 0.0
C1539 C 0.27407 0.5038 0.99617 0.0
C1540 C 0.29216 0.50604 0.00487 0.0
C1541 C 0.28914 0.50744 0.0186 0.0
C1542 C 0.26985 0.50978 0.02332 0.0
H1543 H 0.28187 0.58026 0.02676 0.0
H1544 H 0.2792 0.55411 0.03487 0.0
H1545 H 0.28712 0.55926 0.01758 0.0
H1546 H 0.24267 0.50686 0.99373 0.0
H1547 H 0.27579 0.50236 0.98556 0.0
H1548 H 0.19157 0.51333 0.55741 0.0
H1549 H 0.2308 0.52311 0.5666 0.0
H1550 H 0.24764 0.49886 0.53035 0.0
H1551 H 0.20842 0.48832 0.52139 0.0
H1552 H 0.27306 0.49595 0.55159 0.0
H1553 H 0.27921 0.58587 0.54908 0.0
H1554 H 0.25821 0.56436 0.56066 0.0
H1555 H 0.25311 0.55908 0.54312 0.0
C1556 C 0.20316 0.50895 0.55169 0.0
C1557 C 0.19736 0.50083 0.53852 0.0
C1558 C 0.22566 0.51474 0.55691 0.0
C1559 C 0.24249 0.51268 0.54893 0.0
C1560 C 0.23509 0.50096 0.53663 0.0
H1561 H 0.37252 0.59799 0.51504 0.0
H1562 H 0.3321 0.57517 0.5244 0.0
C1563 C 0.21263 0.49498 0.53148 0.0
C1564 C 0.26868 0.5271 0.55159 0.0
H1565 H 0.31489 0.58505 0.54871 0.0
C1566 C 0.28231 0.51546 0.55139 0.0
C1567 C 0.28068 0.55262 0.5512 0.0
C1568 C 0.26717 0.56633 0.55095 0.0
C1569 C 0.30741 0.52854 0.54966 0.0
C1570 C 0.31903 0.55384 0.5483 0.0
C1571 C 0.30575 0.56561 0.54973 0.0
C1572 C 0.34384 0.56797 0.54313 0.0
C1573 C 0.32103 0.51515 0.54817 0.0
C1574 C 0.36381 0.57168 0.55064 0.0
C1575 C 0.387 0.58477 0.54529 0.0
C1576 C 0.39046 0.59432 0.53237 0.0
C1577 C 0.37042 0.59086 0.525 0.0
C1578 C 0.34734 0.57784 0.53034 0.0
H1579 H 0.30897 0.4953 0.54847 0.0
H1580 H 0.33105 0.52005 0.53863 0.0
H1581 H 0.3344 0.52038 0.5563 0.0
H1582 H 0.36145 0.56445 0.56059 0.0
H1583 H 0.40217 0.58721 0.5512 0.0
H1584 H 0.49763 0.71547 0.51601 0.0
H1585 H 0.49115 0.74717 0.52449 0.0
H1586 H 0.46769 0.70995 0.56197 0.0
H1587 H 0.4738 0.67773 0.55334 0.0
H1588 H 0.43263 0.71258 0.55021 0.0
H1589 H 0.51145 0.80354 0.54843 0.0
H1590 H 0.51053 0.78837 0.53334 0.0
H1591 H 0.51445 0.77698 0.54897 0.0
C1592 C 0.49219 0.71458 0.52627 0.0
C1593 C 0.48576 0.69396 0.53393 0.0
C1594 C 0.48868 0.73291 0.53119 0.0
C1595 C 0.47884 0.73099 0.54388 0.0
C1596 C 0.47533 0.71183 0.55215 0.0
H1597 H 0.40982 0.82084 0.54545 0.0
H1598 H 0.43294 0.80313 0.5547 0.0
C1599 C 0.47889 0.69345 0.54722 0.0
C1600 C 0.46667 0.74497 0.54679 0.0
H1601 H 0.47276 0.80015 0.5409 0.0
C1602 C 0.4416 0.7319 0.54869 0.0
C1603 C 0.47821 0.7702 0.54494 0.0
C1604 C 0.5052 0.78553 0.54396 0.0
C1605 C 0.42758 0.74288 0.54724 0.0
C1606 C 0.43889 0.76744 0.54372 0.0
C1607 C 0.46411 0.78115 0.54332 0.0
C1608 C 0.42473 0.77806 0.53852 0.0
C1609 C 0.40059 0.72777 0.54859 0.0
C1610 C 0.41273 0.76988 0.52635 0.0
C1611 C 0.39974 0.78 0.52102 0.0
C1612 C 0.39846 0.79843 0.5278 0.0
C1613 C 0.41042 0.80655 0.54005 0.0
C1614 C 0.42364 0.79654 0.54533 0.0
H1615 H 0.39537 0.71173 0.55495 0.0
H1616 H 0.39291 0.73843 0.55287 0.0
H1617 H 0.39254 0.72134 0.53863 0.0
H1618 H 0.41365 0.75581 0.52089 0.0
H1619 H 0.39078 0.77343 0.51156 0.0
H1620 H 0.31349 0.79793 0.54991 0.0
H1621 H 0.28341 0.7596 0.55982 0.0
H1622 H 0.24744 0.73692 0.52198 0.0
H1623 H 0.27678 0.77514 0.51222 0.0
H1624 H 0.21607 0.71578 0.54292 0.0
H1625 H 0.29839 0.70769 0.54841 0.0
H1626 H 0.29696 0.73078 0.55776 0.0
H1627 H 0.29929 0.73289 0.53998 0.0
C1628 C 0.2985 0.78518 0.54389 0.0
C1629 C 0.29775 0.78916 0.53022 0.0
C1630 C 0.28146 0.76322 0.54953 0.0
C1631 C 0.26373 0.74512 0.54151 0.0
C1632 C 0.26112 0.75052 0.52834 0.0
H1633 H 0.21998 0.60997 0.51593 0.0
H1634 H 0.23821 0.65161 0.52348 0.0
C1635 C 0.27798 0.77238 0.52274 0.0
C1636 C 0.25106 0.71949 0.54558 0.0
H1637 H 0.26146 0.67235 0.548 0.0
C1638 C 0.22586 0.70624 0.54447 0.0
C1639 C 0.26399 0.70713 0.54749 0.0
C1640 C 0.29114 0.72021 0.54843 0.0
C1641 C 0.21347 0.68097 0.544 0.0
C1642 C 0.22668 0.66877 0.5449 0.0
C1643 C 0.25151 0.6819 0.54728 0.0
C1644 C 0.21603 0.6432 0.54107 0.0
C1645 C 0.18672 0.66761 0.54139 0.0
C1646 C 0.19778 0.62466 0.54859 0.0
C1647 C 0.18726 0.60077 0.54425 0.0
C1648 C 0.19494 0.59516 0.53238 0.0
C1649 C 0.21367 0.61373 0.5251 0.0
C1650 C 0.22411 0.63751 0.52941 0.0
H1651 H 0.17959 0.67999 0.53966 0.0
H1652 H 0.18253 0.65573 0.53259 0.0
H1653 H 0.17718 0.65603 0.55004 0.0
H1654 H 0.19154 0.62868 0.5577 0.0
H1655 H 0.1729 0.58677 0.55009 0.0
H1656 H 0.26556 0.72741 0.28612 0.0
H1657 H 0.24337 0.68596 0.27769 0.0
H1658 H 0.20438 0.66257 0.31462 0.0
H1659 H 0.22642 0.70371 0.3231 0.0
H1660 H 0.24432 0.64712 0.29011 0.0
H1661 H 0.151 0.62959 0.28635 0.0
H1662 H 0.17687 0.65965 0.28658 0.0
H1663 H 0.16488 0.64337 0.30183 0.0
C1664 C 0.25209 0.71343 0.29238 0.0
C1665 C 0.24776 0.71872 0.30529 0.0
C1666 C 0.23936 0.68985 0.28752 0.0
C1667 C 0.22187 0.67135 0.29542 0.0
C1668 C 0.21735 0.67671 0.30824 0.0
H1669 H 0.15812 0.5365 0.32119 0.0
H1670 H 0.16435 0.57401 0.31168 0.0
C1671 C 0.23017 0.70016 0.31313 0.0
C1672 C 0.21029 0.64594 0.29112 0.0
H1673 H 0.1555 0.59459 0.29015 0.0
C1674 C 0.22492 0.63561 0.28967 0.0
C1675 C 0.185 0.63115 0.29048 0.0
C1676 C 0.16853 0.64156 0.29126 0.0
C1677 C 0.21494 0.61056 0.2891 0.0
C1678 C 0.18954 0.59553 0.28962 0.0
C1679 C 0.17491 0.60607 0.28975 0.0
C1680 C 0.17854 0.56967 0.29303 0.0
C1681 C 0.23178 0.60048 0.28932 0.0
C1682 C 0.18245 0.55375 0.28527 0.0
C1683 C 0.17911 0.53223 0.29079 0.0
C1684 C 0.1716 0.52648 0.30405 0.0
C1685 C 0.1643 0.5407 0.31102 0.0
C1686 C 0.16781 0.56216 0.30556 0.0
H1687 H 0.25091 0.61474 0.29059 0.0
H1688 H 0.22697 0.5873 0.29752 0.0
H1689 H 0.23027 0.59107 0.27982 0.0
H1690 H 0.1901 0.55892 0.27542 0.0
H1691 H 0.18466 0.52146 0.28515 0.0
H1692 H 0.27816 0.56232 0.32047 0.0
H1693 H 0.3208 0.58187 0.31458 0.0
H1694 H 0.309 0.5166 0.29549 0.0
H1695 H 0.26611 0.49733 0.30085 0.0
H1696 H 0.35078 0.56851 0.32354 0.0
H1697 H 0.35138 0.56563 0.2685 0.0
H1698 H 0.32494 0.55951 0.27787 0.0
H1699 H 0.33339 0.53679 0.27621 0.0
C1700 C 0.2846 0.55232 0.3148 0.0
C1701 C 0.26891 0.52836 0.31112 0.0
C1702 C 0.30894 0.56347 0.31144 0.0
C1703 C 0.3181 0.55077 0.3045 0.0
C1704 C 0.30231 0.52696 0.30055 0.0
H1705 H 0.47265 0.61877 0.31573 0.0
H1706 H 0.4327 0.58401 0.31162 0.0
C1707 C 0.27783 0.51592 0.30371 0.0
C1708 C 0.34446 0.56192 0.30259 0.0
H1709 H 0.38891 0.57978 0.27931 0.0
C1710 C 0.35912 0.57089 0.31387 0.0
C1711 C 0.35526 0.56488 0.28996 0.0
C1712 C 0.34047 0.5564 0.27742 0.0
C1713 C 0.38423 0.5838 0.31288 0.0
C1714 C 0.39517 0.58683 0.30025 0.0
C1715 C 0.38052 0.57704 0.28899 0.0
C1716 C 0.42141 0.60325 0.2985 0.0
C1717 C 0.39861 0.59539 0.32532 0.0
C1718 C 0.4293 0.6244 0.29107 0.0
C1719 C 0.45241 0.64394 0.293 0.0
C1720 C 0.46762 0.64266 0.30261 0.0
C1721 C 0.46107 0.62032 0.30844 0.0
C1722 C 0.43817 0.60054 0.3062 0.0
H1723 H 0.3871 0.59548 0.33354 0.0
H1724 H 0.40735 0.58518 0.32876 0.0
H1725 H 0.41283 0.61428 0.32339 0.0
H1726 H 0.41682 0.62678 0.28489 0.0
H1727 H 0.45705 0.66087 0.28824 0.0
H1728 H 0.33695 0.80585 0.28257 0.0
H1729 H 0.37048 0.8009 0.27484 0.0
H1730 H 0.40332 0.82154 0.31356 0.0
H1731 H 0.37054 0.82723 0.32113 0.0
H1732 H 0.437 0.83212 0.29389 0.0
H1733 H 0.36049 0.73773 0.28982 0.0
H1734 H 0.36024 0.75979 0.27895 0.0
H1735 H 0.35641 0.76147 0.29652 0.0
C1736 C 0.3519 0.81041 0.28922 0.0
C1737 C 0.35088 0.81624 0.30256 0.0
C1738 C 0.37095 0.80739 0.28482 0.0
C1739 C 0.38887 0.80997 0.29379 0.0
C1740 C 0.38953 0.81916 0.30651 0.0
H1741 H 0.44198 0.72863 0.32516 0.0
H1742 H 0.42191 0.7498 0.31676 0.0
C1743 C 0.37069 0.82232 0.31086 0.0
C1744 C 0.4038 0.79871 0.2913 0.0
H1745 H 0.39896 0.74322 0.29161 0.0
C1746 C 0.42884 0.81274 0.29299 0.0
C1747 C 0.39298 0.77334 0.29026 0.0
C1748 C 0.36607 0.75709 0.28886 0.0
C1749 C 0.44308 0.80196 0.29474 0.0
C1750 C 0.43192 0.77657 0.29458 0.0
C1751 C 0.4073 0.76269 0.29176 0.0
C1752 C 0.44444 0.76391 0.29931 0.0
C1753 C 0.46951 0.81762 0.29782 0.0
C1754 C 0.46364 0.76473 0.29222 0.0
C1755 C 0.47519 0.75267 0.29704 0.0
C1756 C 0.4676 0.73955 0.30898 0.0
C1757 C 0.44821 0.73859 0.31595 0.0
C1758 C 0.43674 0.75065 0.31115 0.0
H1759 H 0.47483 0.83688 0.29896 0.0
H1760 H 0.47411 0.81145 0.30709 0.0
H1761 H 0.48031 0.81612 0.28966 0.0
H1762 H 0.4696 0.77461 0.28298 0.0
H1763 H 0.49006 0.75364 0.29144 0.0
H1764 H 0.16871 0.14711 0.31792 0.0
H1765 H 0.17367 0.14118 0.29438 0.0
H1766 H 0.12402 0.16546 0.28402 0.0
H1767 H 0.11858 0.17094 0.30755 0.0
H1768 H 0.11498 0.1251 0.27045 0.0
H1769 H 0.212 0.19344 0.2673 0.0
H1770 H 0.20527 0.17117 0.2799 0.0
H1771 H 0.19357 0.19137 0.28133 0.0
C1772 C 0.15885 0.15118 0.31062 0.0
C1773 C 0.14332 0.15957 0.31456 0.0
C1774 C 0.16184 0.14795 0.29718 0.0
C1775 C 0.14956 0.15331 0.28744 0.0
C1776 C 0.13377 0.16135 0.29137 0.0
H1777 H 0.1813 0.17205 0.20319 0.0
H1778 H 0.17666 0.17726 0.22685 0.0
C1779 C 0.13069 0.16448 0.30481 0.0
C1780 C 0.15278 0.15011 0.27316 0.0
H1781 H 0.19495 0.16782 0.24859 0.0
C1782 C 0.13245 0.13448 0.26565 0.0
C1783 C 0.17554 0.16264 0.26688 0.0
C1784 C 0.19781 0.18078 0.27422 0.0
C1785 C 0.13427 0.13082 0.25207 0.0
C1786 C 0.15717 0.14267 0.2459 0.0
C1787 C 0.17746 0.15853 0.25337 0.0
C1788 C 0.16037 0.13937 0.23161 0.0
C1789 C 0.11155 0.11474 0.24441 0.0
C1790 C 0.15315 0.1164 0.22646 0.0
C1791 C 0.15555 0.11334 0.21292 0.0
C1792 C 0.16559 0.13328 0.20433 0.0
C1793 C 0.17347 0.15635 0.20957 0.0
C1794 C 0.17084 0.15935 0.22308 0.0
H1795 H 0.09532 0.11271 0.24956 0.0
H1796 H 0.11224 0.1219 0.23429 0.0
H1797 H 0.10949 0.09656 0.24346 0.0
H1798 H 0.14562 0.1008 0.23291 0.0
H1799 H 0.14954 0.09538 0.20918 0.0
H1800 H 0.82388 0.00868 0.20606 0.0
H1801 H 0.82039 -0.00046 0.22984 0.0
H1802 H 0.89773 0.03551 0.23307 0.0
H1803 H 0.90142 0.04459 0.20925 0.0
H1804 H 0.84303 0.97356 0.24377 0.0
H1805 H 0.87206 0.06607 0.26211 0.0
H1806 H 0.85984 0.05612 0.24567 0.0
H1807 H 0.88998 0.06299 0.24934 0.0
C1808 C 0.84015 0.01471 0.21184 0.0
C1809 C 0.86293 0.02738 0.20582 0.0
C1810 C 0.83811 0.00943 0.22539 0.0
C1811 C 0.85881 0.01698 0.23315 0.0
C1812 C 0.88158 0.02971 0.22721 0.0
H1813 H 0.87185 0.97612 0.314 0.0
H1814 H 0.87739 0.98568 0.29021 0.0
C1815 C 0.88364 0.03483 0.21363 0.0
C1816 C 0.85653 0.01122 0.24746 0.0
H1817 H 0.86431 0.03633 0.27823 0.0
C1818 C 0.84774 0.98724 0.25133 0.0
C1819 C 0.86256 0.02917 0.25722 0.0
C1820 C 0.87152 0.05506 0.25347 0.0
C1821 C 0.84494 0.98074 0.26479 0.0
C1822 C 0.85112 -0.00128 0.27455 0.0
C1823 C 0.85978 0.02267 0.27068 0.0
C1824 C 0.84787 0.99282 0.28884 0.0
C1825 C 0.83499 0.95469 0.26853 0.0
C1826 C 0.82958 0.99387 0.29588 0.0
C1827 C 0.8263 0.98832 0.30938 0.0
C1828 C 0.84144 0.98186 0.31611 0.0
C1829 C 0.85991 0.98101 0.30906 0.0
C1830 C 0.86305 0.9864 0.2955 0.0
H1831 H 0.82796 0.94254 0.25978 0.0
H1832 H 0.84944 0.95245 0.27317 0.0
H1833 H 0.82029 0.94907 0.27591 0.0
H1834 H 0.81774 -0.00115 0.29088 0.0
H1835 H 0.81196 0.9892 0.31456 0.0
H1836 H -0.00253 0.81498 0.31276 0.0
H1837 H 0.98792 0.80918 0.28904 0.0
H1838 H 0.024 0.88611 0.2835 0.0
H1839 H 0.03362 0.89211 0.30722 0.0
H1840 H 0.96137 0.82745 0.2742 0.0
H1841 H 0.05428 0.86093 0.25536 0.0
H1842 H 0.04575 0.85144 0.27234 0.0
H1843 H 0.05076 0.88028 0.26696 0.0
C1844 C 0.00346 0.83067 0.30648 0.0
C1845 C 0.01634 0.85401 0.31183 0.0
C1846 C -0.00205 0.82731 0.29296 0.0
C1847 C 0.00546 0.84722 0.28454 0.0
C1848 C 0.01833 0.87054 0.28983 0.0
H1849 H 0.95844 0.85569 0.20513 0.0
H1850 H 0.96776 0.85979 0.2289 0.0
C1851 C 0.02373 0.87392 0.30337 0.0
C1852 C -0.00068 0.84357 0.27027 0.0
H1853 H 0.02403 0.85253 0.23933 0.0
C1854 C 0.97502 0.83287 0.26656 0.0
C1855 C 0.01721 0.85047 0.26038 0.0
C1856 C 0.04348 0.86125 0.2639 0.0
C1857 C 0.96817 0.82929 0.25316 0.0
C1858 C 0.98611 0.83672 0.24326 0.0
C1859 C 0.01036 0.84702 0.24697 0.0
C1860 C 0.98004 0.83392 0.22897 0.0
C1861 C 0.94179 0.81737 0.24966 0.0
C1862 C 0.98412 0.8182 0.22116 0.0
C1863 C 0.97876 0.81577 0.20761 0.0
C1864 C 0.96949 0.82924 0.20163 0.0
C1865 C 0.96551 0.84504 0.20948 0.0
C1866 C 0.97073 0.84734 0.22304 0.0
H1867 H 0.93009 0.80827 0.25836 0.0
H1868 H 0.93764 0.83122 0.246 0.0
H1869 H 0.93731 0.80392 0.24162 0.0
H1870 H 0.99139 0.80777 0.22558 0.0
H1871 H 0.98209 0.80352 0.20181 0.0
H1872 H 0.89257 0.85839 0.68595 0.0
H1873 H 0.89005 0.86446 0.70978 0.0
H1874 H 0.81326 0.81633 0.70861 0.0
H1875 H 0.81559 0.81011 0.68479 0.0
H1876 H 0.82958 0.86253 0.72173 0.0
H1877 H 0.87542 0.8138 0.73989 0.0
H1878 H 0.8908 0.83569 0.72703 0.0
H1879 H 0.86248 0.80924 0.72348 0.0
C1880 C 0.87517 0.84902 0.69079 0.0
C1881 C 0.85428 0.83374 0.68353 0.0
C1882 C 0.87378 0.85244 0.70439 0.0
C1883 C 0.8515 0.84066 0.71093 0.0
C1884 C 0.83061 0.82549 0.70371 0.0
H1885 H 0.81913 0.82624 0.79496 0.0
H1886 H 0.82236 0.81966 0.7713 0.0
C1887 C 0.832 0.82194 0.69013 0.0
C1888 C 0.84988 0.84463 0.72526 0.0
H1889 H 0.8663 0.83509 0.7559 0.0
C1890 C 0.83759 0.85654 0.72922 0.0
C1891 C 0.86017 0.83656 0.73495 0.0
C1892 C 0.87282 0.82293 0.7312 0.0
C1893 C 0.83559 0.86092 0.74267 0.0
C1894 C 0.84631 0.85331 0.75235 0.0
C1895 C 0.8583 0.84108 0.74841 0.0
C1896 C 0.84482 0.85746 0.76666 0.0
C1897 C 0.82174 0.87334 0.74647 0.0
C1898 C 0.85666 0.88089 0.77187 0.0
C1899 C 0.85495 0.88471 0.78539 0.0
C1900 C 0.84132 0.86514 0.79388 0.0
C1901 C 0.82971 0.84168 0.78865 0.0
C1902 C 0.83154 0.83787 0.77515 0.0
H1903 H 0.81063 0.87376 0.73812 0.0
H1904 H 0.80979 0.8642 0.75507 0.0
H1905 H 0.8346 0.89218 0.74941 0.0
H1906 H 0.86723 0.8962 0.76547 0.0
H1907 H 0.86412 0.90298 0.78915 0.0
H1908 H 0.17013 0.00806 0.79526 0.0
H1909 H 0.17497 0.01944 0.77183 0.0
H1910 H 0.1074 0.95544 0.76292 0.0
H1911 H 0.10189 0.94477 0.78648 0.0
H1912 H 0.18029 -0.00045 0.75106 0.0
H1913 H 0.09684 0.00344 0.744 0.0
H1914 H 0.10705 0.00047 0.76019 0.0
H1915 H 0.09029 0.97437 0.7498 0.0
C1916 C 0.15623 0.99654 0.7883 0.0
C1917 C 0.13555 0.97565 0.79266 0.0
C1918 C 0.15901 0.00304 0.77491 0.0
C1919 C 0.14132 0.98858 0.7656 0.0
C1920 C 0.1209 0.96736 0.76994 0.0
H1921 H 0.16908 0.99175 0.68125 0.0
H1922 H 0.16395 0.9836 0.70505 0.0
C1923 C 0.11786 0.96114 0.78339 0.0
C1924 C 0.14476 0.9953 0.75132 0.0
H1925 H 0.11703 0.00254 0.72422 0.0
C1926 C 0.16652 0.00042 0.74524 0.0
C1927 C 0.12704 0.99692 0.74372 0.0
C1928 C 0.10413 0.99377 0.74981 0.0
C1929 C 0.17087 0.00664 0.73177 0.0
C1930 C 0.15253 0.00674 0.72398 0.0
C1931 C 0.13097 0.00213 0.73012 0.0
C1932 C 0.15525 0.01144 0.70947 0.0
C1933 C 0.19532 0.01355 0.72615 0.0
C1934 C 0.15098 0.02905 0.70388 0.0
C1935 C 0.15323 0.03326 0.69019 0.0
C1936 C 0.16006 0.02012 0.68189 0.0
C1937 C 0.16413 0.00239 0.68746 0.0
C1938 C 0.1614 0.99785 0.70108 0.0
H1939 H 0.20936 0.0206 0.73401 0.0
H1940 H 0.19475 0.99737 0.72182 0.0
H1941 H 0.20076 0.02744 0.71828 0.0
H1942 H 0.14605 0.03965 0.71012 0.0
H1943 H 0.14996 0.04701 0.68614 0.0
H1944 H 0.95846 0.09654 0.69725 0.0
H1945 H 0.96752 0.10102 0.72106 0.0
H1946 H 0.00749 0.17822 0.71657 0.0
H1947 H -0.00149 0.17394 0.69278 0.0
H1948 H 0.03134 0.15681 0.73144 0.0
H1949 H 0.93862 0.12794 0.74914 0.0
H1950 H 0.9414 0.10837 0.73738 0.0
H1951 H 0.94829 0.13799 0.73235 0.0
C1952 C 0.96914 0.11447 0.70134 0.0
C1953 C 0.97773 0.1349 0.69317 0.0
C1954 C 0.97421 0.11699 0.71493 0.0
C1955 C 0.98796 0.13995 0.72055 0.0
C1956 C 0.99676 0.16036 0.7124 0.0
H1957 H 0.01321 0.18701 0.80226 0.0
H1958 H 0.00304 0.1807 0.77863 0.0
C1959 C 0.99159 0.15787 0.69883 0.0
C1960 C 0.9935 0.14273 0.7349 0.0
H1961 H 0.96789 0.13506 0.76553 0.0
C1962 C 0.0175 0.15203 0.73891 0.0
C1963 C 0.97538 0.13666 0.74457 0.0
C1964 C 0.94947 0.12734 0.74071 0.0
C1965 C 0.02383 0.15523 0.75239 0.0
C1966 C 0.00566 0.14882 0.76206 0.0
C1967 C 0.9817 0.13974 0.75806 0.0
C1968 C 0.01133 0.15209 0.77639 0.0
C1969 C 0.04993 0.1658 0.75623 0.0
C1970 C 0.01904 0.13783 0.78295 0.0
C1971 C 0.02473 0.14129 0.79646 0.0
C1972 C 0.02287 0.15912 0.8036 0.0
C1973 C 0.01488 0.17318 0.79701 0.0
C1974 C 0.00904 0.16959 0.78354 0.0
H1975 H 0.06216 0.17367 0.74758 0.0
H1976 H 0.055 0.17999 0.76389 0.0
H1977 H 0.05272 0.15144 0.76053 0.0
H1978 H 0.02067 0.12406 0.7776 0.0
H1979 H 0.03081 0.13018 0.80128 0.0
H1980 H 0.8502 0.50069 0.52862 0.0
H1981 H 0.84492 0.50635 0.55214 0.0
H1982 H 0.78307 0.43482 0.55381 0.0
H1983 H 0.78848 0.42887 0.53033 0.0
H1984 H 0.80557 0.50474 0.5645 0.0
H1985 H 0.82355 0.43493 0.58508 0.0
H1986 H 0.83092 0.44563 0.56821 0.0
H1987 H 0.80042 0.42403 0.57263 0.0
C1988 C 0.83555 0.48611 0.53402 0.0
C1989 C 0.8198 0.46429 0.52766 0.0
C1990 C 0.83255 0.48939 0.54744 0.0
C1991 C 0.81382 0.47089 0.55476 0.0
C1992 C 0.79795 0.44914 0.54842 0.0
H1993 H 0.7663 0.4605 0.63661 0.0
H1994 H 0.76976 0.4536 0.61299 0.0
C1995 C 0.80098 0.44582 0.53499 0.0
C1996 C 0.81057 0.47468 0.56894 0.0
H1997 H 0.80936 0.4534 0.60017 0.0
C1998 C 0.80647 0.49357 0.57231 0.0
C1999 C 0.81172 0.46004 0.5791 0.0
C2000 C 0.81711 0.44015 0.57613 0.0
C2001 C 0.80323 0.49808 0.58556 0.0
C2002 C 0.80444 0.48348 0.5957 0.0
C2003 C 0.80838 0.4645 0.59234 0.0
C2004 C 0.80212 0.48791 0.60989 0.0
C2005 C 0.7982 0.51819 0.58859 0.0
C2006 C 0.81929 0.50941 0.61596 0.0
C2007 C 0.81739 0.51339 0.62942 0.0
C2008 C 0.7983 0.49588 0.63706 0.0
C2009 C 0.78115 0.47434 0.63096 0.0
C2010 C 0.78311 0.47035 0.61749 0.0
H2011 H 0.79193 0.52365 0.57966 0.0
H2012 H 0.78439 0.51279 0.5965 0.0
H2013 H 0.81498 0.53412 0.59215 0.0
H2014 H 0.83434 0.523 0.61031 0.0
H2015 H 0.83093 0.53011 0.63386 0.0
H2016 H 0.48665 0.33981 0.52678 0.0
H2017 H 0.48012 0.32874 0.55029 0.0
H2018 H 0.55684 0.36285 0.5563 0.0
H2019 H 0.56356 0.37399 0.53277 0.0
H2020 H 0.49711 0.30021 0.56419 0.0
H2021 H 0.53202 0.39177 0.58547 0.0
H2022 H 0.52285 0.3848 0.56833 0.0
H2023 H 0.55128 0.38864 0.57364 0.0
C2024 C 0.50215 0.34509 0.53312 0.0
C2025 C 0.52563 0.35781 0.52795 0.0
C2026 C 0.49837 0.33871 0.54652 0.0
C2027 C 0.518 0.34517 0.55501 0.0
C2028 C 0.54148 0.35798 0.54992 0.0
H2029 H 0.52283 0.29099 0.63304 0.0
H2030 H 0.52771 0.30206 0.6095 0.0
C2031 C 0.54528 0.36425 0.53648 0.0
C2032 C 0.51386 0.33786 0.56912 0.0
H2033 H 0.52231 0.36 0.60067 0.0
C2034 C 0.50257 0.31324 0.57218 0.0
C2035 C 0.52082 0.35494 0.57946 0.0
C2036 C 0.53226 0.38153 0.57663 0.0
C2037 C 0.4984 0.30526 0.5854 0.0
C2038 C 0.50586 0.32237 0.59575 0.0
C2039 C 0.51678 0.34696 0.59268 0.0
C2040 C 0.50245 0.3151 0.60986 0.0
C2041 C 0.48585 0.27859 0.58821 0.0
C2042 C 0.48678 0.31897 0.61783 0.0
C2043 C 0.4839 0.31261 0.63125 0.0
C2044 C 0.49686 0.30252 0.63694 0.0
C2045 C 0.51256 0.29867 0.62892 0.0
C2046 C 0.51531 0.3049 0.61548 0.0
H2047 H 0.4769 0.26772 0.57923 0.0
H2048 H 0.49928 0.27373 0.59171 0.0
H2049 H 0.47217 0.27372 0.59615 0.0
H2050 H 0.47678 0.32691 0.61366 0.0
H2051 H 0.47174 0.31586 0.6372 0.0
H2052 H 0.64584 0.21335 0.5242 0.0
H2053 H 0.65913 0.22328 0.54731 0.0
H2054 H 0.67085 0.1627 0.54909 0.0
H2055 H 0.65818 0.15305 0.52599 0.0
H2056 H 0.63912 0.19593 0.56926 0.0
H2057 H 0.7332 0.21556 0.5643 0.0
H2058 H 0.715 0.21343 0.55013 0.0
H2059 H 0.71195 0.18661 0.5577 0.0
C2060 C 0.65152 0.20234 0.52949 0.0
C2061 C 0.6511 0.18251 0.52327 0.0
C2062 C 0.65908 0.208 0.54268 0.0
C2063 C 0.66639 0.19398 0.54986 0.0
C2064 C 0.66593 0.17416 0.54365 0.0
H2065 H 0.69465 0.17494 0.63082 0.0
H2066 H 0.68657 0.17255 0.60696 0.0
C2067 C 0.65852 0.16858 0.53047 0.0
C2068 C 0.67319 0.19916 0.56405 0.0
H2069 H 0.71712 0.20848 0.58638 0.0
C2070 C 0.6563 0.19901 0.57298 0.0
C2071 C 0.69563 0.20319 0.56889 0.0
C2072 C 0.71507 0.20496 0.55973 0.0
C2073 C 0.66091 0.2019 0.58667 0.0
C2074 C 0.68303 0.20518 0.59151 0.0
C2075 C 0.70012 0.20583 0.58259 0.0
C2076 C 0.68838 0.20709 0.60588 0.0
C2077 C 0.64183 0.20063 0.59593 0.0
C2078 C 0.69232 0.22746 0.61309 0.0
C2079 C 0.69705 0.22894 0.62672 0.0
C2080 C 0.69783 0.21003 0.63332 0.0
C2081 C 0.69408 0.18976 0.62602 0.0
C2082 C 0.68951 0.18837 0.6124 0.0
H2083 H 0.62432 0.19429 0.59082 0.0
H2084 H 0.63909 0.18837 0.60437 0.0
H2085 H 0.64782 0.2188 0.60007 0.0
H2086 H 0.69174 0.24218 0.60818 0.0
H2087 H 0.69993 0.2448 0.63209 0.0
H2088 H 0.47717 0.14332 0.04361 0.0
H2089 H 0.47349 0.14836 0.06743 0.0
H2090 H 0.55079 0.18544 0.07135 0.0
H2091 H 0.55465 0.18045 0.04753 0.0
H2092 H 0.52417 0.14854 0.09105 0.0
H2093 H 0.49172 0.21387 0.08547 0.0
H2094 H 0.47558 0.18651 0.07605 0.0
H2095 H 0.50654 0.20735 0.07221 0.0
C2096 C 0.49338 0.15251 0.04955 0.0
C2097 C 0.51621 0.16159 0.04371 0.0
C2098 C 0.49125 0.15545 0.06313 0.0
C2099 C 0.51188 0.16753 0.07108 0.0
C2100 C 0.53467 0.17617 0.06534 0.0
H2101 H 0.52584 0.22433 0.15069 0.0
H2102 H 0.52964 0.21845 0.12698 0.0
C2103 C 0.53683 0.17333 0.05175 0.0
C2104 C 0.50971 0.17115 0.0854 0.0
H2105 H 0.49175 0.19982 0.10721 0.0
C2106 C 0.5171 0.15975 0.09461 0.0
C2107 C 0.50071 0.18599 0.08995 0.0
C2108 C 0.49334 0.19933 0.08044 0.0
C2109 C 0.5154 0.16253 0.10831 0.0
C2110 C 0.50592 0.17696 0.11286 0.0
C2111 C 0.49885 0.18864 0.10365 0.0
C2112 C 0.50346 0.18038 0.12718 0.0
C2113 C 0.52404 0.1503 0.11783 0.0
C2114 C 0.48726 0.16096 0.13506 0.0
C2115 C 0.48498 0.16428 0.14858 0.0
C2116 C 0.49889 0.18708 0.15443 0.0
C2117 C 0.51495 0.20654 0.14647 0.0
C2118 C 0.51712 0.20323 0.13294 0.0
H2119 H 0.53544 0.14415 0.11282 0.0
H2120 H 0.53449 0.16261 0.12608 0.0
H2121 H 0.50824 0.13432 0.1222 0.0
H2122 H 0.47631 0.14327 0.13073 0.0
H2123 H 0.47241 0.14896 0.15445 0.0
H2124 H 0.84824 0.32787 0.04921 0.0
H2125 H 0.84384 0.31726 0.07281 0.0
H2126 H 0.79811 0.3481 0.07805 0.0
H2127 H 0.80241 0.3588 0.05448 0.0
H2128 H 0.8367 0.36269 0.09724 0.0
H2129 H 0.78157 0.26334 0.09105 0.0
H2130 H 0.80875 0.27825 0.08138 0.0
H2131 H 0.78469 0.28418 0.07809 0.0
C2132 C 0.8372 0.33233 0.05539 0.0
C2133 C 0.8256 0.3441 0.05001 0.0
C2134 C 0.83463 0.32618 0.06883 0.0
C2135 C 0.82046 0.33169 0.07709 0.0
C2136 C 0.80904 0.34362 0.07178 0.0
H2137 H 0.76566 0.28479 0.15629 0.0
H2138 H 0.77123 0.29351 0.13248 0.0
C2139 C 0.8115 0.34968 0.05833 0.0
C2140 C 0.81785 0.32544 0.09135 0.0
H2141 H 0.79413 0.27794 0.11286 0.0
C2142 C 0.82743 0.34418 0.10068 0.0
C2143 C 0.8056 0.30126 0.09574 0.0
C2144 C 0.79436 0.28053 0.08608 0.0
C2145 C 0.82519 0.33937 0.11435 0.0
C2146 C 0.81319 0.31519 0.11874 0.0
C2147 C 0.80347 0.29644 0.10941 0.0
C2148 C 0.80992 0.30907 0.13302 0.0
C2149 C 0.83525 0.36014 0.124 0.0
C2150 C 0.82981 0.31457 0.14111 0.0
C2151 C 0.82669 0.30955 0.1547 0.0
C2152 C 0.8036 0.29897 0.16039 0.0
C2153 C 0.78366 0.29303 0.15219 0.0
C2154 C 0.7868 0.29796 0.1386 0.0
H2155 H 0.83972 0.37739 0.11907 0.0
H2156 H 0.82223 0.35669 0.13213 0.0
H2157 H 0.85197 0.36219 0.1285 0.0
H2158 H 0.84776 0.32288 0.13692 0.0
H2159 H 0.84238 0.31425 0.16076 0.0
H2160 H 0.67939 0.52777 0.15708 0.0
H2161 H 0.66929 0.52324 0.13343 0.0
H2162 H 0.69824 0.47572 0.12902 0.0
H2163 H 0.70846 0.48017 0.15268 0.0
H2164 H 0.71239 0.51283 0.10874 0.0
H2165 H 0.61348 0.45983 0.11714 0.0
H2166 H 0.62932 0.48783 0.12603 0.0
H2167 H 0.63507 0.46381 0.12982 0.0
C2168 C 0.68372 0.51645 0.15107 0.0
C2169 C 0.6946 0.50421 0.15673 0.0
C2170 C 0.67784 0.51381 0.13758 0.0
C2171 C 0.68275 0.49891 0.12956 0.0
C2172 C 0.69423 0.48722 0.1351 0.0
H2173 H 0.62747 0.43846 0.05209 0.0
H2174 H 0.6391 0.44556 0.07553 0.0
C2175 C 0.70002 0.48976 0.14859 0.0
C2176 C 0.6756 0.49522 0.11542 0.0
H2177 H 0.62659 0.47061 0.09497 0.0
C2178 C 0.69366 0.50364 0.1057 0.0
C2179 C 0.65113 0.483 0.11156 0.0
C2180 C 0.63106 0.47289 0.12165 0.0
C2181 C 0.68785 0.50034 0.09214 0.0
C2182 C 0.66338 0.48846 0.08828 0.0
C2183 C 0.64533 0.47985 0.09801 0.0
C2184 C 0.65612 0.48433 0.07416 0.0
C2185 C 0.70788 0.50919 0.08206 0.0
C2186 C 0.66154 0.5038 0.06572 0.0
C2187 C 0.65485 0.4998 0.05236 0.0
C2188 C 0.64262 0.47626 0.04723 0.0
C2189 C 0.63693 0.45679 0.05576 0.0
C2190 C 0.64354 0.4608 0.06913 0.0
H2191 H 0.7253 0.51339 0.08666 0.0
H2192 H 0.70344 0.49558 0.07413 0.0
H2193 H 0.71019 0.52586 0.07735 0.0
H2194 H 0.67093 0.52206 0.06949 0.0
H2195 H 0.65943 0.51516 0.04603 0.0
H2196 H 0.50734 0.82897 0.95832 0.0
H2197 H 0.50758 0.82306 0.93435 0.0
H2198 H 0.44178 0.82542 0.93049 0.0
H2199 H 0.44094 0.83034 0.95453 0.0
H2200 H 0.43948 0.78991 0.91616 0.0
H2201 H 0.52633 0.87241 0.90574 0.0
H2202 H 0.52946 0.85336 0.91763 0.0
H2203 H 0.51154 0.86695 0.92162 0.0
C2204 C 0.493 0.82834 0.95234 0.0
C2205 C 0.47419 0.83024 0.95825 0.0
C2206 C 0.49324 0.82512 0.93863 0.0
C2207 C 0.47498 0.82432 0.93057 0.0
C2208 C 0.45612 0.8261 0.93649 0.0
H2209 H 0.48819 0.83894 0.84474 0.0
H2210 H 0.48356 0.84436 0.86837 0.0
C2211 C 0.45568 0.82895 0.95022 0.0
C2212 C 0.47515 0.82097 0.916 0.0
H2213 H 0.50987 0.84354 0.88826 0.0
C2214 C 0.45481 0.80175 0.91004 0.0
C2215 C 0.49499 0.83663 0.90797 0.0
C2216 C 0.51669 0.85863 0.91354 0.0
C2217 C 0.45392 0.7975 0.89633 0.0
C2218 C 0.47422 0.81246 0.88842 0.0
C2219 C 0.49439 0.83192 0.89434 0.0
C2220 C 0.47507 0.80836 0.87398 0.0
C2221 C 0.43106 0.7773 0.89046 0.0
C2222 C 0.47165 0.78627 0.86925 0.0
C2223 C 0.47393 0.78302 0.85572 0.0
C2224 C 0.48015 0.80198 0.84673 0.0
C2225 C 0.48335 0.824 0.85145 0.0
C2226 C 0.48077 0.82714 0.86495 0.0
H2227 H 0.41521 0.77284 0.89681 0.0
H2228 H 0.42766 0.78198 0.88038 0.0
H2229 H 0.4327 0.76092 0.88969 0.0
H2230 H 0.46788 0.77173 0.87605 0.0
H2231 H 0.47163 0.76594 0.85237 0.0
H2232 H 0.15132 0.67266 0.95062 0.0
H2233 H 0.15844 0.68222 0.92695 0.0
H2234 H 0.19952 0.64579 0.92478 0.0
H2235 H 0.19278 0.63645 0.94849 0.0
H2236 H 0.22126 0.69033 0.91173 0.0
H2237 H 0.1255 0.63327 0.89694 0.0
H2238 H 0.13056 0.65494 0.90965 0.0
H2239 H 0.1366 0.63094 0.91301 0.0
C2240 C 0.1619 0.66672 0.9451 0.0
C2241 C 0.17138 0.65369 0.95137 0.0
C2242 C 0.16584 0.67209 0.93158 0.0
C2243 C 0.17916 0.66436 0.92409 0.0
C2244 C 0.18909 0.6518 0.93039 0.0
H2245 H 0.18265 0.65555 0.83835 0.0
H2246 H 0.17876 0.64741 0.86223 0.0
C2247 C 0.1852 0.64647 0.94391 0.0
C2248 C 0.18272 0.66929 0.90968 0.0
H2249 H 0.15254 0.6584 0.88029 0.0
C2250 C 0.20627 0.68333 0.90483 0.0
C2251 C 0.16311 0.65986 0.90072 0.0
C2252 C 0.13752 0.64373 0.90529 0.0
C2253 C 0.21072 0.6885 0.89125 0.0
C2254 C 0.19106 0.67961 0.88235 0.0
C2255 C 0.16755 0.66531 0.88717 0.0
C2256 C 0.19444 0.6848 0.86795 0.0
C2257 C 0.23641 0.70308 0.88651 0.0
C2258 C 0.20449 0.70851 0.8633 0.0
C2259 C 0.20676 0.71322 0.84967 0.0
C2260 C 0.19889 0.69425 0.8405 0.0
C2261 C 0.18894 0.67053 0.84519 0.0
C2262 C 0.18667 0.66585 0.85881 0.0
H2263 H 0.24933 0.70334 0.89395 0.0
H2264 H 0.23897 0.69583 0.87702 0.0
H2265 H 0.2408 0.72193 0.88477 0.0
H2266 H 0.21018 0.72334 0.87019 0.0
H2267 H 0.21437 0.73166 0.84634 0.0
H2268 H 0.3456 0.52539 0.83556 0.0
H2269 H 0.35495 0.53072 0.8593 0.0
H2270 H 0.28038 0.48131 0.86842 0.0
H2271 H 0.27081 0.47609 0.8447 0.0
H2272 H 0.30066 0.52331 0.8837 0.0
H2273 H 0.35805 0.48111 0.8838 0.0
H2274 H 0.36695 0.50504 0.87196 0.0
H2275 H 0.33841 0.47786 0.87014 0.0
C2276 C 0.3312 0.5157 0.84262 0.0
C2277 C 0.3075 0.50027 0.83829 0.0
C2278 C 0.33659 0.51863 0.85617 0.0
C2279 C 0.31842 0.5061 0.86559 0.0
C2280 C 0.29467 0.49103 0.86129 0.0
H2281 H 0.33552 0.48601 0.94925 0.0
H2282 H 0.32655 0.48086 0.92546 0.0
C2283 C 0.28926 0.48809 0.84775 0.0
C2284 C 0.32408 0.50892 0.87995 0.0
H2285 H 0.35735 0.5007 0.90365 0.0
C2286 C 0.31302 0.51834 0.88808 0.0
C2287 C 0.33994 0.50209 0.88564 0.0
C2288 C 0.35138 0.49075 0.87748 0.0
C2289 C 0.3177 0.52148 0.90176 0.0
C2290 C 0.33417 0.51538 0.90737 0.0
C2291 C 0.34493 0.50559 0.89928 0.0
C2292 C 0.3402 0.51872 0.92168 0.0
C2293 C 0.30468 0.53091 0.91011 0.0
C2294 C 0.35126 0.54177 0.92736 0.0
C2295 C 0.35637 0.54479 0.94094 0.0
C2296 C 0.35064 0.52477 0.94903 0.0
C2297 C 0.34009 0.50177 0.94326 0.0
C2298 C 0.33496 0.49877 0.92968 0.0
H2299 H 0.2884 0.52888 0.90501 0.0
H2300 H 0.29918 0.52141 0.9198 0.0
H2301 H 0.31689 0.55035 0.91208 0.0
H2302 H 0.35589 0.55746 0.9213 0.0
H2303 H 0.36463 0.56273 0.94509 0.0
H2304 H 0.14522 0.47911 0.47657 0.0
H2305 H 0.15122 0.47483 0.45294 0.0
H2306 H 0.19922 0.55148 0.44998 0.0
H2307 H 0.1933 0.55595 0.4736 0.0
H2308 H 0.16257 0.5309 0.42987 0.0
H2309 H 0.21334 0.48209 0.43544 0.0
H2310 H 0.18547 0.46963 0.44447 0.0
H2311 H 0.20992 0.49884 0.44885 0.0
C2312 C 0.15711 0.49504 0.47089 0.0
C2313 C 0.16884 0.51786 0.47693 0.0
C2314 C 0.1606 0.49254 0.45743 0.0
C2315 C 0.17588 0.51281 0.44979 0.0
C2316 C 0.18745 0.53563 0.45575 0.0
H2317 H 0.23062 0.51971 0.37006 0.0
H2318 H 0.22615 0.52421 0.39389 0.0
C2319 C 0.18406 0.53813 0.46923 0.0
C2320 C 0.17932 0.51032 0.43548 0.0
H2321 H 0.20163 0.48569 0.41361 0.0
C2322 C 0.17114 0.52107 0.4263 0.0
C2323 C 0.19072 0.49766 0.43091 0.0
C2324 C 0.20058 0.48653 0.4404 0.0
C2325 C 0.17371 0.51914 0.4126 0.0
C2326 C 0.1846 0.50601 0.40802 0.0
C2327 C 0.19315 0.49561 0.4172 0.0
C2328 C 0.18726 0.50292 0.3937 0.0
C2329 C 0.16497 0.53134 0.40311 0.0
C2330 C 0.16687 0.48921 0.3858 0.0
C2331 C 0.16936 0.48653 0.37224 0.0
C2332 C 0.1923 0.49757 0.36635 0.0
C2333 C 0.21272 0.51109 0.37432 0.0
C2334 C 0.21021 0.51364 0.38791 0.0
H2335 H 0.16169 0.54479 0.40821 0.0
H2336 H 0.17824 0.54047 0.39502 0.0
H2337 H 0.14782 0.51758 0.39853 0.0
H2338 H 0.14903 0.48056 0.39014 0.0
H2339 H 0.1533 0.47594 0.36635 0.0
H2340 H 0.52262 0.68618 0.36704 0.0
H2341 H 0.51528 0.67589 0.39059 0.0
H2342 H 0.44666 0.67272 0.38775 0.0
H2343 H 0.45381 0.68292 0.3641 0.0
H2344 H 0.50646 0.70249 0.41047 0.0
H2345 H 0.43094 0.60821 0.40579 0.0
H2346 H 0.4509 0.6242 0.39216 0.0
H2347 H 0.42763 0.63059 0.39678 0.0
C2348 C 0.50589 0.68315 0.3714 0.0
C2349 C 0.48876 0.6853 0.36373 0.0
C2350 C 0.50175 0.6773 0.38485 0.0
C2351 C 0.48034 0.67331 0.39085 0.0
C2352 C 0.46314 0.67536 0.38323 0.0
H2353 H 0.42853 0.63723 0.47226 0.0
H2354 H 0.43271 0.6467 0.44851 0.0
C2355 C 0.4673 0.6813 0.36976 0.0
C2356 C 0.47653 0.66786 0.40521 0.0
H2357 H 0.44156 0.62408 0.42749 0.0
C2358 C 0.49229 0.68535 0.41421 0.0
C2359 C 0.45794 0.64554 0.41001 0.0
C2360 C 0.44094 0.62592 0.40072 0.0
C2361 C 0.4899 0.68117 0.42793 0.0
C2362 C 0.47158 0.65867 0.43275 0.0
C2363 C 0.45561 0.64128 0.42375 0.0
C2364 C 0.46898 0.65271 0.44708 0.0
C2365 C 0.5068 0.70101 0.43716 0.0
C2366 C 0.48783 0.65256 0.45408 0.0
C2367 C 0.48553 0.64727 0.46762 0.0
C2368 C 0.46423 0.64179 0.47439 0.0
C2369 C 0.44518 0.64146 0.46731 0.0
C2370 C 0.44753 0.64684 0.45376 0.0
H2371 H 0.51499 0.71894 0.43228 0.0
H2372 H 0.49734 0.70147 0.44628 0.0
H2373 H 0.52162 0.69778 0.44011 0.0
H2374 H 0.50432 0.65649 0.44904 0.0
H2375 H 0.50045 0.64747 0.47279 0.0
H2376 H 0.33979 0.851 0.46887 0.0
H2377 H 0.32947 0.8445 0.44526 0.0
H2378 H 0.3487 0.789 0.44411 0.0
H2379 H 0.35899 0.79531 0.46775 0.0
H2380 H 0.35964 0.84714 0.42325 0.0
H2381 H 0.27884 0.75635 0.42921 0.0
H2382 H 0.2923 0.77697 0.44292 0.0
H2383 H 0.30607 0.76047 0.43673 0.0
C2384 C 0.34186 0.83744 0.46359 0.0
C2385 C 0.35009 0.82358 0.47016 0.0
C2386 C 0.33597 0.83377 0.45011 0.0
C2387 C 0.33802 0.81606 0.44302 0.0
C2388 C 0.34664 0.80249 0.44948 0.0
H2389 H 0.3041 0.76482 0.36161 0.0
H2390 H 0.31584 0.77081 0.38505 0.0
C2391 C 0.35263 0.80621 0.46295 0.0
C2392 C 0.33119 0.8119 0.42883 0.0
H2393 H 0.29049 0.77045 0.40728 0.0
C2394 C 0.34451 0.8304 0.41973 0.0
C2395 C 0.3115 0.79 0.42433 0.0
C2396 C 0.29617 0.76982 0.43378 0.0
C2397 C 0.33883 0.82751 0.40616 0.0
C2398 C 0.31893 0.80571 0.40165 0.0
C2399 C 0.30571 0.78714 0.41076 0.0
C2400 C 0.31142 0.8019 0.38754 0.0
C2401 C 0.35447 0.84764 0.39674 0.0
C2402 C 0.30456 0.81708 0.38126 0.0
C2403 C 0.29795 0.81376 0.36788 0.0
C2404 C 0.29781 0.79502 0.36058 0.0
C2405 C 0.30407 0.77944 0.36698 0.0
C2406 C 0.31079 0.78284 0.38035 0.0
H2407 H 0.37249 0.85988 0.40107 0.0
H2408 H 0.35692 0.84046 0.3872 0.0
H2409 H 0.34572 0.85847 0.39462 0.0
H2410 H 0.30435 0.83153 0.38671 0.0
H2411 H 0.29305 0.82595 0.36325 0.0
H2412 H 0.25384 0.18365 0.16769 0.0
H2413 H 0.29467 0.19239 0.17335 0.0
H2414 H 0.27675 0.12111 0.16059 0.0
H2415 H 0.23622 0.11236 0.1549 0.0
H2416 H 0.30081 0.16376 0.19281 0.0
H2417 H 0.34443 0.16395 0.14522 0.0
H2418 H 0.31882 0.16847 0.14609 0.0
H2419 H 0.31463 0.13863 0.14723 0.0
C2420 C 0.25893 0.1702 0.16568 0.0
C2421 C 0.24195 0.14732 0.16092 0.0
C2422 C 0.28214 0.17514 0.16898 0.0
C2423 C 0.28865 0.1574 0.16733 0.0
C2424 C 0.27217 0.13515 0.16175 0.0
H2425 H 0.40831 0.13841 0.19027 0.0
H2426 H 0.3679 0.13066 0.18435 0.0
C2427 C 0.249 0.13015 0.15856 0.0
C2428 C 0.31137 0.16077 0.17292 0.0
H2429 H 0.36261 0.15995 0.16498 0.0
C2430 C 0.31448 0.16319 0.18674 0.0
C2431 C 0.32888 0.15963 0.16495 0.0
C2432 C 0.32669 0.15774 0.15003 0.0
C2433 C 0.33456 0.16413 0.19284 0.0
C2434 C 0.35203 0.16291 0.18487 0.0
C2435 C 0.34896 0.16057 0.17105 0.0
C2436 C 0.37454 0.1658 0.19051 0.0
C2437 C 0.33672 0.16597 0.20776 0.0
C2438 C 0.39121 0.18781 0.19624 0.0
C2439 C 0.41413 0.19224 0.1996 0.0
C2440 C 0.42074 0.17474 0.19724 0.0
C2441 C 0.40356 0.15211 0.19228 0.0
C2442 C 0.3806 0.14773 0.18883 0.0
H2443 H 0.31902 0.15998 0.21256 0.0
H2444 H 0.34434 0.15503 0.2117 0.0
H2445 H 0.34898 0.18503 0.21058 0.0
H2446 H 0.38698 0.20208 0.19743 0.0
H2447 H 0.42708 0.20985 0.20341 0.0
H2448 H 0.8788 0.11916 0.15746 0.0
H2449 H 0.87068 0.15061 0.16488 0.0
H2450 H 0.80081 0.09655 0.17907 0.0
H2451 H 0.80894 0.06478 0.17175 0.0
H2452 H 0.83336 0.16138 0.16036 0.0
H2453 H 0.83715 0.13538 0.21262 0.0
H2454 H 0.84703 0.12455 0.19882 0.0
H2455 H 0.81546 0.11181 0.20214 0.0
C2456 C 0.86147 0.11394 0.16188 0.0
C2457 C 0.84458 0.08958 0.16419 0.0
C2458 C 0.85689 0.13192 0.16613 0.0
C2459 C 0.83543 0.12583 0.17279 0.0
C2460 C 0.81768 0.10151 0.17415 0.0
H2461 H 0.78406 0.21043 0.21123 0.0
H2462 H 0.79224 0.17868 0.20445 0.0
C2463 C 0.82223 0.08342 0.16985 0.0
C2464 C 0.83266 0.14503 0.17912 0.0
H2465 H 0.82972 0.16755 0.20932 0.0
C2466 C 0.83254 0.16276 0.17105 0.0
C2467 C 0.8319 0.14681 0.19309 0.0
C2468 C 0.83308 0.12877 0.20222 0.0
C2469 C 0.83121 0.1821 0.17659 0.0
C2470 C 0.83046 0.1839 0.19056 0.0
C2471 C 0.83055 0.16615 0.19863 0.0
C2472 C 0.82781 0.2032 0.19685 0.0
C2473 C 0.83005 0.20016 0.16745 0.0
C2474 C 0.84573 0.22745 0.19549 0.0
C2475 C 0.84116 0.24569 0.19943 0.0
C2476 C 0.81859 0.23974 0.2047 0.0
C2477 C 0.80156 0.21547 0.20711 0.0
C2478 C 0.80617 0.19733 0.20323 0.0
H2479 H 0.82605 0.19359 0.15705 0.0
H2480 H 0.81607 0.20435 0.17083 0.0
H2481 H 0.84767 0.21714 0.16757 0.0
H2482 H 0.86272 0.23223 0.19077 0.0
H2483 H 0.85456 0.26427 0.19746 0.0
H2484 H 0.92862 0.73959 0.16768 0.0
H2485 H 0.89544 0.70052 0.17501 0.0
H2486 H 0.84417 0.71831 0.15856 0.0
H2487 H 0.87706 0.75709 0.15116 0.0
H2488 H 0.86133 0.69958 0.19333 0.0
H2489 H 0.81673 0.6477 0.14776 0.0
H2490 H 0.84724 0.67271 0.1478 0.0
H2491 H 0.82228 0.67806 0.14771 0.0
C2492 C 0.9103 0.73475 0.16521 0.0
C2493 C 0.90533 0.75132 0.15891 0.0
C2494 C 0.8914 0.71256 0.16947 0.0
C2495 C 0.86743 0.70661 0.16731 0.0
C2496 C 0.86255 0.72244 0.16017 0.0
H2497 H 0.72843 0.59016 0.19277 0.0
H2498 H 0.7604 0.63036 0.18609 0.0
C2499 C 0.88136 0.7446 0.15598 0.0
C2500 C 0.84753 0.68546 0.17388 0.0
H2501 H 0.79495 0.63341 0.16796 0.0
C2502 C 0.84688 0.68499 0.18781 0.0
C2503 C 0.82859 0.66676 0.16661 0.0
C2504 C 0.82876 0.66614 0.15164 0.0
C2505 C 0.82762 0.66628 0.19469 0.0
C2506 C 0.80876 0.64749 0.18742 0.0
C2507 C 0.80934 0.64805 0.17349 0.0
C2508 C 0.78934 0.6259 0.19395 0.0
C2509 C 0.82748 0.66693 0.20966 0.0
C2510 C 0.79506 0.61061 0.20102 0.0
C2511 C 0.77694 0.5878 0.20484 0.0
C2512 C 0.75281 0.57989 0.20159 0.0
C2513 C 0.74687 0.59592 0.19548 0.0
C2514 C 0.7651 0.61877 0.19159 0.0
H2515 H 0.83885 0.68554 0.21349 0.0
H2516 H 0.80891 0.65955 0.21355 0.0
H2517 H 0.83487 0.65578 0.21358 0.0
H2518 H 0.81366 0.61562 0.20277 0.0
H2519 H 0.78197 0.57576 0.20953 0.0
H2520 H 0.14606 0.40544 0.33473 0.0
H2521 H 0.14165 0.3671 0.34259 0.0
H2522 H 0.21384 0.38953 0.32941 0.0
H2523 H 0.21848 0.42775 0.32183 0.0
H2524 H 0.14699 0.33035 0.33038 0.0
H2525 H 0.21604 0.37752 0.36925 0.0
H2526 H 0.20224 0.39181 0.36024 0.0
H2527 H 0.22654 0.38937 0.35294 0.0
C2528 C 0.16072 0.40187 0.33327 0.0
C2529 C 0.18268 0.41952 0.32783 0.0
C2530 C 0.15827 0.38014 0.33784 0.0
C2531 C 0.17772 0.37595 0.33694 0.0
C2532 C 0.19891 0.3928 0.33055 0.0
H2533 H 0.19466 0.25394 0.34127 0.0
H2534 H 0.19899 0.29367 0.33795 0.0
C2535 C 0.20144 0.41449 0.32612 0.0
C2536 C 0.17644 0.35435 0.34294 0.0
H2537 H 0.20576 0.33674 0.36456 0.0
C2538 C 0.15958 0.33168 0.33798 0.0
C2539 C 0.19274 0.35622 0.353 0.0
C2540 C 0.21025 0.38003 0.35927 0.0
C2541 C 0.15945 0.31087 0.34231 0.0
C2542 C 0.17671 0.31296 0.35175 0.0
C2543 C 0.19281 0.33542 0.35719 0.0
C2544 C 0.17873 0.29188 0.35548 0.0
C2545 C 0.14131 0.28678 0.33658 0.0
C2546 C 0.16712 0.27859 0.36686 0.0
C2547 C 0.1647 0.25592 0.36883 0.0
C2548 C 0.17376 0.24637 0.35937 0.0
C2549 C 0.18742 0.26082 0.34868 0.0
C2550 C 0.18984 0.28344 0.34674 0.0
H2551 H 0.12722 0.28783 0.33068 0.0
H2552 H 0.15069 0.28017 0.33002 0.0
H2553 H 0.13249 0.27336 0.34464 0.0
H2554 H 0.15854 0.28501 0.3737 0.0
H2555 H 0.15408 0.24515 0.37715 0.0
H2556 H 0.56349 0.78764 0.33141 0.0
H2557 H 0.6038 0.81975 0.33721 0.0
H2558 H 0.63168 0.77183 0.33033 0.0
H2559 H 0.59118 0.73951 0.32426 0.0
H2560 H 0.63093 0.81809 0.35816 0.0
H2561 H 0.67877 0.83287 0.31007 0.0
H2562 H 0.64634 0.81651 0.31133 0.0
H2563 H 0.66335 0.80221 0.31574 0.0
C2564 C 0.57825 0.784 0.33094 0.0
C2565 C 0.57427 0.76111 0.3274 0.0
C2566 C 0.60123 0.80235 0.33429 0.0
C2567 C 0.62065 0.79816 0.33415 0.0
C2568 C 0.61692 0.77549 0.3303 0.0
H2569 H 0.77017 0.88366 0.35434 0.0
H2570 H 0.72932 0.85114 0.35001 0.0
C2571 C 0.59384 0.75707 0.32685 0.0
C2572 C 0.64449 0.81728 0.33871 0.0
H2573 H 0.70255 0.8534 0.32879 0.0
C2574 C 0.64662 0.82589 0.35175 0.0
C2575 C 0.66479 0.82737 0.33028 0.0
C2576 C 0.66326 0.81946 0.31604 0.0
C2577 C 0.66871 0.84416 0.35667 0.0
C2578 C 0.68901 0.85416 0.34825 0.0
C2579 C 0.68686 0.84559 0.33521 0.0
C2580 C 0.71292 0.87322 0.35275 0.0
C2581 C 0.67028 0.85227 0.37087 0.0
C2582 C 0.71706 0.89625 0.35609 0.0
C2583 C 0.74048 0.91494 0.35869 0.0
C2584 C 0.75992 0.91075 0.35778 0.0
C2585 C 0.75549 0.88741 0.35502 0.0
C2586 C 0.73221 0.86882 0.35254 0.0
H2587 H 0.65456 0.83919 0.37682 0.0
H2588 H 0.68701 0.85482 0.37565 0.0
H2589 H 0.67076 0.8698 0.37105 0.0
H2590 H 0.70238 0.90003 0.35612 0.0
H2591 H 0.74349 0.93283 0.3607 0.0
H2592 H 0.11422 0.88455 0.35332 0.0
H2593 H 0.14665 0.87709 0.34698 0.0
H2594 H 0.09529 0.80148 0.34232 0.0
H2595 H 0.06262 0.80876 0.34891 0.0
H2596 H 0.13902 0.81139 0.35451 0.0
H2597 H 0.1547 0.86382 0.30803 0.0
H2598 H 0.1564 0.88006 0.32289 0.0
H2599 H 0.12826 0.85425 0.31819 0.0
C2600 C 0.10987 0.86626 0.35114 0.0
C2601 C 0.08592 0.84723 0.35145 0.0
C2602 C 0.12838 0.86208 0.34743 0.0
C2603 C 0.1232 0.83889 0.34383 0.0
C2604 C 0.09952 0.81957 0.34494 0.0
H2605 H 0.20399 0.77623 0.31243 0.0
H2606 H 0.1728 0.78589 0.31817 0.0
C2607 C 0.08094 0.82371 0.34875 0.0
C2608 C 0.14241 0.83503 0.33847 0.0
H2609 H 0.18262 0.85084 0.31296 0.0
C2610 C 0.14851 0.81992 0.34541 0.0
C2611 C 0.15468 0.84625 0.32658 0.0
C2612 C 0.14808 0.86183 0.31841 0.0
C2613 C 0.16687 0.81596 0.34087 0.0
C2614 C 0.17914 0.82719 0.329 0.0
C2615 C 0.17314 0.84237 0.32207 0.0
C2616 C 0.19789 0.82278 0.32357 0.0
C2617 C 0.17323 0.79998 0.34883 0.0
C2618 C 0.22221 0.84081 0.32404 0.0
C2619 C 0.24013 0.8354 0.32069 0.0
C2620 C 0.23381 0.8119 0.31686 0.0
C2621 C 0.20937 0.79445 0.31546 0.0
C2622 C 0.19154 0.79987 0.31877 0.0
H2623 H 0.16564 0.79678 0.35903 0.0
H2624 H 0.16587 0.78229 0.34379 0.0
H2625 H 0.19307 0.80803 0.34953 0.0
H2626 H 0.22732 0.85865 0.32766 0.0
H2627 H 0.25885 0.84914 0.32188 0.0
H2628 H 0.74576 0.82132 0.83875 0.0
H2629 H 0.70399 0.81147 0.83475 0.0
H2630 H 0.72956 0.88195 0.81783 0.0
H2631 H 0.77096 0.892 0.82193 0.0
H2632 H 0.69204 0.86849 0.83571 0.0
H2633 H 0.67138 0.79736 0.79804 0.0
H2634 H 0.68223 0.7931 0.81367 0.0
H2635 H 0.70171 0.81827 0.80336 0.0
C2636 C 0.74238 0.83468 0.83424 0.0
C2637 C 0.76155 0.85735 0.83059 0.0
C2638 C 0.71861 0.829 0.83188 0.0
C2639 C 0.71382 0.8459 0.82581 0.0
C2640 C 0.73293 0.86866 0.82246 0.0
H2641 H 0.58507 0.84734 0.79896 0.0
H2642 H 0.62702 0.85706 0.80233 0.0
C2643 C 0.75657 0.87433 0.8248 0.0
C2644 C 0.68896 0.84016 0.82292 0.0
H2645 H 0.63927 0.80344 0.80449 0.0
C2646 C 0.6805 0.85432 0.82886 0.0
C2647 C 0.67415 0.82181 0.81389 0.0
C2648 C 0.68282 0.80686 0.80676 0.0
C2649 C 0.65736 0.85032 0.82615 0.0
C2650 C 0.64252 0.83185 0.81723 0.0
C2651 C 0.65092 0.8177 0.81127 0.0
C2652 C 0.61758 0.82594 0.81466 0.0
C2653 C 0.64868 0.86548 0.83302 0.0
C2654 C 0.59872 0.80519 0.82037 0.0
C2655 C 0.57502 0.79977 0.81856 0.0
C2656 C 0.56978 0.81489 0.8109 0.0
C2657 C 0.58868 0.83544 0.80491 0.0
C2658 C 0.61253 0.841 0.80684 0.0
H2659 H 0.66144 0.87729 0.84078 0.0
H2660 H 0.64643 0.87699 0.8256 0.0
H2661 H 0.63084 0.85376 0.83768 0.0
H2662 H 0.60238 0.79341 0.82641 0.0
H2663 H 0.5608 0.78371 0.82323 0.0
H2664 H 0.18714 0.76788 0.78031 0.0
H2665 H 0.18139 0.80206 0.78525 0.0
H2666 H 0.1354 0.76299 0.81817 0.0
H2667 H 0.14122 0.72887 0.81342 0.0
H2668 H 0.14071 0.8089 0.78914 0.0
H2669 H 0.19419 0.82283 0.83499 0.0
H2670 H 0.19287 0.80334 0.82169 0.0
H2671 H 0.16852 0.79314 0.83337 0.0
C2672 C 0.1752 0.76628 0.78835 0.0
C2673 C 0.1649 0.74589 0.79662 0.0
C2674 C 0.17207 0.78586 0.79119 0.0
C2675 C 0.15857 0.78519 0.80229 0.0
C2676 C 0.14634 0.76396 0.80974 0.0
H2677 H 0.10672 0.8755 0.82992 0.0
H2678 H 0.11417 0.84357 0.82266 0.0
C2679 C 0.14952 0.74444 0.80695 0.0
C2680 C 0.1588 0.8072 0.80675 0.0
H2681 H 0.17506 0.84634 0.8328 0.0
C2682 C 0.14835 0.81721 0.79863 0.0
C2683 C 0.16934 0.81826 0.819 0.0
C2684 C 0.18209 0.80902 0.82773 0.0
C2685 C 0.14712 0.83744 0.80276 0.0
C2686 C 0.15639 0.84761 0.81536 0.0
C2687 C 0.16782 0.83829 0.8232 0.0
C2688 C 0.15269 0.86679 0.82088 0.0
C2689 C 0.13566 0.84762 0.79372 0.0
C2690 C 0.17213 0.89014 0.82288 0.0
C2691 C 0.16795 0.90853 0.82712 0.0
C2692 C 0.14431 0.9036 0.82941 0.0
C2693 C 0.12512 0.87987 0.8281 0.0
C2694 C 0.1293 0.86163 0.8239 0.0
H2695 H 0.13502 0.84179 0.78327 0.0
H2696 H 0.11691 0.84118 0.79704 0.0
H2697 H 0.14561 0.86761 0.79409 0.0
H2698 H 0.19035 0.89428 0.82071 0.0
H2699 H 0.18303 0.92669 0.82805 0.0
H2700 H 0.2287 0.4114 0.78221 0.0
H2701 H 0.19691 0.37185 0.78964 0.0
H2702 H 0.24523 0.3695 0.81858 0.0
H2703 H 0.27707 0.40915 0.81132 0.0
H2704 H 0.19182 0.32512 0.79368 0.0
H2705 H 0.19052 0.37028 0.84051 0.0
H2706 H 0.20604 0.38678 0.82578 0.0
H2707 H 0.21931 0.37381 0.83622 0.0
C2708 C 0.2328 0.40214 0.78987 0.0
C2709 C 0.25522 0.4135 0.79634 0.0
C2710 C 0.21459 0.37961 0.79413 0.0
C2711 C 0.21863 0.36822 0.80488 0.0
C2712 C 0.24171 0.37836 0.81045 0.0
H2713 H 0.12686 0.2277 0.83706 0.0
H2714 H 0.15998 0.26536 0.8286 0.0
C2715 C 0.25991 0.40089 0.80621 0.0
C2716 C 0.19821 0.34698 0.81107 0.0
H2717 H 0.16519 0.32788 0.83961 0.0
C2718 C 0.18596 0.32567 0.80371 0.0
C2719 C 0.19033 0.34807 0.82404 0.0
C2720 C 0.20205 0.371 0.83209 0.0
C2721 C 0.16638 0.30508 0.80916 0.0
C2722 C 0.15918 0.30588 0.82234 0.0
C2723 C 0.17098 0.32737 0.82956 0.0
C2724 C 0.13992 0.28422 0.82888 0.0
C2725 C 0.15346 0.28267 0.80076 0.0
C2726 C 0.11815 0.28291 0.83251 0.0
C2727 C 0.09916 0.26138 0.83749 0.0
C2728 C 0.10186 0.24107 0.83886 0.0
C2729 C 0.12421 0.24302 0.83597 0.0
C2730 C 0.14309 0.26444 0.83107 0.0
H2731 H 0.15708 0.28678 0.79001 0.0
H2732 H 0.15977 0.27 0.80353 0.0
H2733 H 0.13371 0.27348 0.80243 0.0
H2734 H 0.11556 0.29818 0.83099 0.0
H2735 H 0.08209 0.26029 0.83963 0.0
H2736 H 0.7818 0.57472 0.68532 0.0
H2737 H 0.78799 0.61359 0.67773 0.0
H2738 H 0.8559 0.62983 0.66032 0.0
H2739 H 0.84987 0.59081 0.66796 0.0
H2740 H 0.82933 0.66377 0.68084 0.0
H2741 H 0.81047 0.62837 0.62909 0.0
H2742 H 0.8023 0.6088 0.64337 0.0
H2743 H 0.83318 0.62581 0.63827 0.0
C2744 C 0.79834 0.58682 0.68016 0.0
C2745 C 0.8153 0.57977 0.67714 0.0
C2746 C 0.8018 0.60895 0.67582 0.0
C2747 C 0.82215 0.62423 0.6683 0.0
C2748 C 0.83995 0.61803 0.66601 0.0
H2749 H 0.85843 0.75488 0.62595 0.0
H2750 H 0.85335 0.71598 0.63256 0.0
C2751 C 0.83659 0.5959 0.67047 0.0
C2752 C 0.82364 0.64573 0.66208 0.0
H2753 H 0.81721 0.66762 0.63242 0.0
C2754 C 0.82679 0.66473 0.67026 0.0
C2755 C 0.82021 0.64669 0.64828 0.0
C2756 C 0.81619 0.62632 0.63918 0.0
C2757 C 0.82677 0.68492 0.66496 0.0
C2758 C 0.82277 0.68567 0.65119 0.0
C2759 C 0.81995 0.66678 0.64298 0.0
C2760 C 0.82254 0.70652 0.64512 0.0
C2761 C 0.83147 0.70545 0.67413 0.0
C2762 C 0.80584 0.71322 0.6493 0.0
C2763 C 0.80872 0.73548 0.64557 0.0
C2764 C 0.82824 0.75118 0.63755 0.0
C2765 C 0.8433 0.74322 0.63222 0.0
C2766 C 0.84049 0.72103 0.63601 0.0
H2767 H 0.84004 0.70466 0.68356 0.0
H2768 H 0.84328 0.7231 0.66932 0.0
H2769 H 0.81412 0.70441 0.67663 0.0
H2770 H 0.79146 0.70189 0.65606 0.0
H2771 H 0.79673 0.74108 0.64975 0.0
H2772 H 0.42555 0.20716 0.68428 0.0
H2773 H 0.38567 0.17506 0.67766 0.0
H2774 H 0.36581 0.22789 0.66688 0.0
H2775 H 0.40587 0.26033 0.67357 0.0
H2776 H 0.32867 0.18303 0.68063 0.0
H2777 H 0.37121 0.16708 0.63661 0.0
H2778 H 0.38443 0.16743 0.6524 0.0
H2779 H 0.38606 0.19448 0.64624 0.0
C2780 C 0.41252 0.21196 0.68078 0.0
C2781 C 0.41881 0.2362 0.67928 0.0
C2782 C 0.38983 0.19362 0.67696 0.0
C2783 C 0.37316 0.19924 0.67152 0.0
C2784 C 0.37864 0.22333 0.67097 0.0
H2785 H 0.2315 0.11475 0.63777 0.0
H2786 H 0.27109 0.14718 0.64454 0.0
C2787 C 0.40141 0.24178 0.67485 0.0
C2788 C 0.35078 0.18003 0.66557 0.0
H2789 H 0.32973 0.13978 0.63996 0.0
C2790 C 0.32881 0.17361 0.67171 0.0
C2791 C 0.35123 0.16782 0.65397 0.0
C2792 C 0.37445 0.1746 0.64682 0.0
C2793 C 0.30714 0.15489 0.66666 0.0
C2794 C 0.30756 0.14276 0.655 0.0
C2795 C 0.32956 0.14917 0.64888 0.0
C2796 C 0.28517 0.12357 0.64899 0.0
C2797 C 0.28403 0.14794 0.67398 0.0
C2798 C 0.28067 0.09979 0.64839 0.0
C2799 C 0.25812 0.08118 0.64431 0.0
C2800 C 0.23994 0.08629 0.64086 0.0
C2801 C 0.24518 0.11034 0.64052 0.0
C2802 C 0.26768 0.12884 0.64447 0.0
H2803 H 0.28747 0.15451 0.6844 0.0
H2804 H 0.27444 0.15607 0.66892 0.0
H2805 H 0.272 0.12809 0.67406 0.0
H2806 H 0.29415 0.09548 0.65172 0.0
H2807 H 0.25444 0.06277 0.64468 0.0
H2808 H 0.7915 0.23139 0.66794 0.0
H2809 H 0.82303 0.22125 0.66442 0.0
H2810 H 0.77285 0.14696 0.67376 0.0
H2811 H 0.74094 0.15694 0.6772 0.0
H2812 H 0.84113 0.19937 0.68197 0.0
H2813 H 0.79945 0.14499 0.63653 0.0
H2814 H 0.7903 0.16518 0.64339 0.0
H2815 H 0.78035 0.13633 0.65092 0.0
C2816 C 0.78717 0.2129 0.66931 0.0
C2817 C 0.76375 0.19488 0.67275 0.0
C2818 C 0.8052 0.20717 0.66731 0.0
C2819 C 0.8001 0.18335 0.66864 0.0
C2820 C 0.77694 0.1654 0.67247 0.0
H2821 H 0.88224 0.11244 0.65914 0.0
H2822 H 0.85157 0.12376 0.66246 0.0
C2823 C 0.75883 0.17113 0.67451 0.0
C2824 C 0.81909 0.17743 0.66582 0.0
H2825 H 0.83466 0.1461 0.64457 0.0
C2826 C 0.8398 0.18777 0.67378 0.0
C2827 C 0.81723 0.16245 0.65507 0.0
C2828 C 0.79575 0.15172 0.64589 0.0
C2829 C 0.8586 0.18307 0.67145 0.0
C2830 C 0.85668 0.16799 0.66073 0.0
C2831 C 0.83602 0.15775 0.65273 0.0
C2832 C 0.87532 0.16148 0.65813 0.0
C2833 C 0.88006 0.19374 0.68064 0.0
C2834 C 0.89872 0.17896 0.65434 0.0
C2835 C 0.91638 0.17254 0.65242 0.0
C2836 C 0.91076 0.14858 0.65426 0.0
C2837 C 0.88713 0.13108 0.65771 0.0
C2838 C 0.86957 0.13748 0.65959 0.0
H2839 H 0.87652 0.20086 0.6899 0.0
H2840 H 0.88516 0.18009 0.68333 0.0
H2841 H 0.89563 0.20881 0.67554 0.0
H2842 H 0.90332 0.19753 0.65297 0.0
H2843 H 0.93444 0.18634 0.64972 0.0
H2844 H 0.09642 0.54438 0.51136 0.0
H2845 H 0.05519 0.53489 0.50721 0.0
H2846 H 0.02994 0.45972 0.51458 0.0
H2847 H 0.07155 0.4691 0.51869 0.0
H2848 H 0.01372 0.47008 0.49032 0.0
H2849 H -0.00075 0.51536 0.53335 0.0
H2850 H 0.02664 0.53407 0.52444 0.0
H2851 H 0.02284 0.50777 0.53298 0.0
C2852 C 0.08209 0.52584 0.51227 0.0
C2853 C 0.08714 0.50744 0.51535 0.0
C2854 C 0.05854 0.5205 0.50996 0.0
C2855 C 0.03958 0.49669 0.51076 0.0
C2856 C 0.04442 0.47824 0.51403 0.0
H2857 H 0.88812 0.4324 0.49369 0.0
H2858 H 0.92872 0.44016 0.49824 0.0
C2859 C 0.0681 0.48361 0.5164 0.0
C2860 C 0.01501 0.49114 0.50727 0.0
H2861 H 0.97122 0.50419 0.51552 0.0
C2862 C 0.00427 0.47729 0.49589 0.0
C2863 C 0.00297 0.50085 0.51451 0.0
C2864 C 0.01339 0.51517 0.52707 0.0
C2865 C 0.9819 0.4733 0.49137 0.0
C2866 C 0.96996 0.48318 0.49855 0.0
C2867 C 0.98062 0.49688 0.50998 0.0
C2868 C 0.94579 0.47852 0.49476 0.0
C2869 C 0.97145 0.459 0.47881 0.0
C2870 C 0.94202 0.49761 0.49136 0.0
C2871 C 0.91876 0.49324 0.48876 0.0
C2872 C 0.89903 0.46977 0.4897 0.0
C2873 C 0.903 0.45068 0.49287 0.0
C2874 C 0.92618 0.45504 0.49541 0.0
H2875 H 0.98541 0.45812 0.4727 0.0
H2876 H 0.95757 0.44032 0.48143 0.0
H2877 H 0.9627 0.46693 0.47272 0.0
H2878 H 0.95703 0.51588 0.49091 0.0
H2879 H 0.91615 0.50826 0.48639 0.0
H2880 H 0.47987 0.40375 0.48595 0.0
H2881 H 0.47057 0.43596 0.49021 0.0
H2882 H 0.54635 0.48706 0.49439 0.0
H2883 H 0.55575 0.45526 0.49011 0.0
H2884 H 0.48445 0.46384 0.51426 0.0
H2885 H 0.52189 0.52131 0.4695 0.0
H2886 H 0.51468 0.49025 0.46995 0.0
H2887 H 0.54201 0.5133 0.4774 0.0
C2888 C 0.49451 0.42196 0.48752 0.0
C2889 C 0.5185 0.42705 0.48773 0.0
C2890 C 0.48919 0.44026 0.48999 0.0
C2891 C 0.50782 0.46385 0.49249 0.0
C2892 C 0.53178 0.46905 0.49227 0.0
H2893 H 0.51577 0.5983 0.51564 0.0
H2894 H 0.52545 0.56638 0.51127 0.0
C2895 C 0.53708 0.45082 0.48989 0.0
C2896 C 0.50235 0.48275 0.49639 0.0
H2897 H 0.5118 0.53821 0.48769 0.0
C2898 C 0.49023 0.48003 0.50842 0.0
C2899 C 0.51025 0.50392 0.4888 0.0
C2900 C 0.52276 0.50737 0.47563 0.0
C2901 C 0.48604 0.49815 0.51316 0.0
C2902 C 0.49387 0.51929 0.50555 0.0
C2903 C 0.50603 0.52203 0.49354 0.0
C2904 C 0.48825 0.53811 0.50943 0.0
C2905 C 0.47362 0.4947 0.52637 0.0
C2906 C 0.46422 0.53262 0.50991 0.0
C2907 C 0.4587 0.55067 0.51237 0.0
C2908 C 0.47714 0.57458 0.51434 0.0
C2909 C 0.50123 0.57999 0.51423 0.0
C2910 C 0.50676 0.56185 0.5117 0.0
H2911 H 0.47495 0.48108 0.53257 0.0
H2912 H 0.48142 0.5119 0.53196 0.0
H2913 H 0.45425 0.48828 0.52465 0.0
H2914 H 0.44972 0.5145 0.50794 0.0
H2915 H 0.43995 0.54598 0.51238 0.0
H2916 H 0.57028 0.09523 0.51193 0.0
H2917 H 0.53652 0.05478 0.51571 0.0
H2918 H 0.53641 0.03831 0.47415 0.0
H2919 H 0.57114 0.07863 0.47047 0.0
H2920 H 0.49281 0.03563 0.50602 0.0
H2921 H 0.53261 0.97991 0.49074 0.0
H2922 H 0.55058 0.01203 0.49306 0.0
H2923 H 0.53376 -6e-05 0.47796 0.0
C2924 C 0.5633 0.08282 0.50365 0.0
C2925 C 0.57329 0.08989 0.49093 0.0
C2926 C 0.54396 0.05978 0.5058 0.0
C2927 C 0.53402 0.04346 0.49524 0.0
C2928 C 0.54414 0.05041 0.48251 0.0
H2929 H 0.39079 0.9152 0.50124 0.0
H2930 H 0.4238 0.95625 0.49705 0.0
C2931 C 0.56389 0.07341 0.4804 0.0
C2932 C 0.51246 0.01964 0.49763 0.0
H2933 H 0.49074 0.95925 0.49518 0.0
C2934 C 0.49236 0.0189 0.5037 0.0
C2935 C 0.512 0.99788 0.49466 0.0
C2936 C 0.53347 0.9974 0.48887 0.0
C2937 C 0.47197 0.99699 0.5071 0.0
C2938 C 0.47133 0.97522 0.5039 0.0
C2939 C 0.49125 0.97598 0.49761 0.0
C2940 C 0.45069 0.95136 0.50739 0.0
C2941 C 0.45175 0.99748 0.5145 0.0
C2942 C 0.45483 0.93501 0.51455 0.0
C2943 C 0.43623 0.91154 0.51663 0.0
C2944 C 0.41304 0.90412 0.5118 0.0
C2945 C 0.40849 0.92071 0.50522 0.0
C2946 C 0.42731 0.94414 0.50286 0.0
H2947 H 0.45802 0.01502 0.51956 0.0
H2948 H 0.43749 0.99488 0.50735 0.0
H2949 H 0.4437 0.98293 0.52203 0.0
H2950 H 0.47268 0.94021 0.51819 0.0
H2951 H 0.44011 0.89899 0.52173 0.0
H2952 H 0.47418 0.07164 0.01197 0.0
H2953 H 0.47343 0.03316 0.01328 0.0
H2954 H 0.52011 0.05279 0.97916 0.0
H2955 H 0.52123 0.09141 0.97788 0.0
H2956 H 0.46217 0.99476 0.99529 0.0
H2957 H 0.55901 0.04429 0.00926 0.0
H2958 H 0.54065 0.05832 0.00908 0.0
H2959 H 0.55205 0.05344 0.99381 0.0
C2960 C 0.48378 0.0675 0.00454 0.0
C2961 C 0.49802 0.08461 0.99493 0.0
C2962 C 0.48342 0.04559 0.00534 0.0
C2963 C 0.49727 0.04055 0.99654 0.0
C2964 C 0.5098 0.05669 0.98623 0.0
H2965 H 0.52456 0.92246 0.98888 0.0
H2966 H 0.52711 0.9618 0.98768 0.0
C2967 C 0.51023 0.07862 0.98545 0.0
C2968 C 0.49986 0.01919 0.99869 0.0
H2969 H 0.54099 0.00208 0.00649 0.0
C2970 C 0.47936 0.99631 0.99777 0.0
C2971 C 0.52236 0.02142 0.002 0.0
C2972 C 0.54477 0.04567 0.00372 0.0
C2973 C 0.48081 0.97547 0.99982 0.0
C2974 C 0.50329 0.9777 0.0031 0.0
C2975 C 0.52382 0.00056 0.00402 0.0
C2976 C 0.50571 0.95629 0.00531 0.0
C2977 C 0.45838 0.95119 0.99825 0.0
C2978 C 0.49406 0.94096 0.01606 0.0
C2979 C 0.49265 0.91857 0.0168 0.0
C2980 C 0.50287 0.91126 0.00679 0.0
C2981 C 0.51646 0.92761 0.99672 0.0
C2982 C 0.51786 0.95002 0.99598 0.0
H2983 H 0.44379 0.95253 0.99307 0.0
H2984 H 0.46234 0.93869 0.99261 0.0
H2985 H 0.45166 0.94324 0.0082 0.0
H2986 H 0.48496 0.94578 0.02346 0.0
H2987 H 0.48218 0.90639 0.02473 0.0
H2988 H 0.91364 0.40314 0.99033 0.0
H2989 H 0.95303 0.43972 0.98741 0.0
H2990 H 0.94176 0.46931 0.02334 0.0
H2991 H 0.90266 0.43309 0.02631 0.0
H2992 H 0.95766 0.48764 0.98556 0.0
H2993 H 0.01126 0.48032 0.0268 0.0
H2994 H 0.98469 0.45454 0.02016 0.0
H2995 H 0.98181 0.47487 0.03126 0.0
C2996 C 0.91986 0.41725 0.99773 0.0
C2997 C 0.90517 0.41537 0.00852 0.0
C2998 C 0.94222 0.43811 0.99603 0.0
C2999 C 0.95022 0.45704 0.00521 0.0
C3000 C 0.93598 0.45474 0.01625 0.0
H3001 H 0.07688 0.59933 0.01168 0.0
H3002 H 0.03632 0.56458 0.01466 0.0
C3003 C 0.91364 0.43408 0.0179 0.0
C3004 C 0.97254 0.48005 0.00282 0.0
H3005 H 0.0281 0.51784 0.01568 0.0
C3006 C 0.97316 0.49424 0.99207 0.0
C3007 C 0.99244 0.48862 0.01149 0.0
C3008 C 0.99272 0.47376 0.02303 0.0
C3009 C 0.99325 0.51703 0.9898 0.0
C3010 C 0.0133 0.52552 0.99839 0.0
C3011 C 0.01258 0.51134 0.00919 0.0
C3012 C 0.03596 0.54819 0.99582 0.0
C3013 C 0.99267 0.53194 0.97837 0.0
C3014 C 0.04885 0.55062 0.98414 0.0
C3015 C 0.07182 0.57035 0.98242 0.0
C3016 C 0.08241 0.5879 0.9924 0.0
C3017 C 0.06907 0.5861 0.00382 0.0
C3018 C 0.046 0.56626 0.00555 0.0
H3019 H 0.9739 0.52651 0.9755 0.0
H3020 H 0.00238 0.55141 0.98086 0.0
H3021 H 0.00156 0.5292 0.96964 0.0
H3022 H 0.04163 0.53666 0.97664 0.0
H3023 H 0.08172 0.57126 0.97352 0.0
H3024 H 0.39384 0.4811 0.00324 0.0
H3025 H 0.42776 0.47383 0.00604 0.0
H3026 H 0.47497 0.54136 0.98671 0.0
H3027 H 0.44154 0.54884 0.98399 0.0
H3028 H 0.45838 0.47198 0.98587 0.0
H3029 H 0.50931 0.54566 0.02203 0.0
H3030 H 0.47785 0.53423 0.01843 0.0
H3031 H 0.50061 0.55496 0.00723 0.0
C3032 C 0.41147 0.49435 0.99961 0.0
C3033 C 0.41511 0.51558 0.99347 0.0
C3034 C 0.43077 0.49019 0.00121 0.0
C3035 C 0.45387 0.5073 0.99679 0.0
C3036 C 0.45737 0.52822 0.99044 0.0
H3037 H 0.594 0.51707 0.99374 0.0
H3038 H 0.56009 0.52449 0.99137 0.0
C3039 C 0.4382 0.53237 0.98883 0.0
C3040 C 0.4744 0.50324 0.9985 0.0
H3041 H 0.53005 0.52712 0.01265 0.0
C3042 C 0.47399 0.48389 0.9918 0.0
C3043 C 0.49473 0.51897 0.00618 0.0
C3044 C 0.49566 0.53951 0.01398 0.0
C3045 C 0.49366 0.48008 0.99239 0.0
C3046 C 0.51402 0.49588 1.00001 0.0
C3047 C 0.51443 0.5152 0.00674 0.0
C3048 C 0.53462 0.49192 0.00161 0.0
C3049 C 0.49271 0.45944 0.98469 0.0
C3050 C 0.53147 0.47149 0.00838 0.0
C3051 C 0.55064 0.46729 0.00978 0.0
C3052 C 0.57336 0.48351 0.00445 0.0
C3053 C 0.57666 0.50428 0.99791 0.0
C3054 C 0.55738 0.50851 0.99654 0.0
H3055 H 0.47855 0.45267 0.9769 0.0
H3056 H 0.51033 0.46493 0.97993 0.0
H3057 H 0.48858 0.44437 0.99159 0.0
H3058 H 0.51411 0.45874 0.01256 0.0
H3059 H 0.54756 0.45117 0.01493 0.0
loop_
_geom_bond_atom_site_label_1
_geom_bond_atom_site_label_2
_geom_bond_distance
_geom_bond_site_symmetry_2
_ccdc_geom_bond_type
In0 O1 2.294 . S
In0 O2 2.326 . S
In0 O6 2.266 . S
In0 O7 2.326 . S
In0 O8 2.266 . S
In0 O9 2.326 . S
In0 O11 2.294 . S
In0 O12 2.326 . S
O1 In0 2.294 . S
O1 C10 1.240 . S
O2 In0 2.326 . S
O2 C10 1.252 . S
C3 O6 1.252 . S
C3 O7 1.260 . S
C4 O11 1.240 . S
C4 O12 1.252 . S
C5 O8 1.252 . S
C5 O9 1.260 . S
O6 In0 2.266 . S
O6 C3 1.252 . S
O7 In0 2.326 . S
O7 C3 1.260 . S
O8 In0 2.266 . S
O8 C5 1.252 . S
O9 In0 2.326 . S
O9 C5 1.260 . S
C10 O1 1.240 . S
C10 O2 1.252 . S
O11 In0 2.294 . S
O11 C4 1.240 . S
O12 In0 2.326 . S
O12 C4 1.252 . S
In13 O14 2.294 . S
In13 O15 2.326 . S
In13 O19 2.233 1_545 S
In13 O20 2.326 1_545 S
In13 O21 2.266 . S
In13 O22 2.326 . S
In13 O24 2.294 . S
In13 O25 2.326 . S
O14 In13 2.294 . S
O14 C23 1.240 . S
O15 In13 2.326 . S
O15 C23 1.252 . S
C16 O19 1.295 . S
C16 O20 1.260 . S
C17 O24 1.240 . S
C17 O25 1.252 . S
C18 O21 1.252 . S
C18 O22 1.260 . S
O19 In13 2.233 1_565 S
O19 C16 1.295 . S
O20 In13 2.326 1_565 S
O20 C16 1.260 . S
O21 In13 2.266 . S
O21 C18 1.252 . S
O22 In13 2.326 . S
O22 C18 1.260 . S
C23 O14 1.240 . S
C23 O15 1.252 . S
O24 In13 2.294 . S
O24 C17 1.240 . S
O25 In13 2.326 . S
O25 C17 1.252 . S
In26 O27 2.294 . S
In26 O28 2.326 . S
In26 O32 2.266 . S
In26 O33 2.326 . S
In26 O34 2.234 1_655 S
In26 O35 2.326 1_655 S
In26 O37 2.294 . S
In26 O38 2.326 . S
O27 In26 2.294 . S
O27 C36 1.240 . S
O28 In26 2.326 . S
O28 C36 1.252 . S
C29 O32 1.252 . S
C29 O33 1.260 . S
C30 O37 1.240 . S
C30 O38 1.252 . S
C31 O34 1.253 . S
C31 O35 1.260 . S
O32 In26 2.266 . S
O32 C29 1.252 . S
O33 In26 2.326 . S
O33 C29 1.260 . S
O34 In26 2.234 1_455 S
O34 C31 1.253 . S
O35 In26 2.326 1_455 S
O35 C31 1.260 . S
C36 O27 1.240 . S
C36 O28 1.252 . S
O37 In26 2.294 . S
O37 C30 1.240 . S
O38 In26 2.326 . S
O38 C30 1.252 . S
In39 O40 2.294 . S
In39 O41 2.326 . S
In39 O45 2.266 . S
In39 O46 2.326 . S
In39 O47 2.266 . S
In39 O48 2.326 . S
In39 O50 2.294 . S
In39 O51 2.326 . S
O40 In39 2.294 . S
O40 C49 1.240 . S
O41 In39 2.326 . S
O41 C49 1.252 . S
C42 O45 1.252 . S
C42 O46 1.260 . S
C43 O50 1.240 . S
C43 O51 1.252 . S
C44 O47 1.252 . S
C44 O48 1.260 . S
O45 In39 2.266 . S
O45 C42 1.252 . S
O46 In39 2.326 . S
O46 C42 1.260 . S
O47 In39 2.266 . S
O47 C44 1.252 . S
O48 In39 2.326 . S
O48 C44 1.260 . S
C49 O40 1.240 . S
C49 O41 1.252 . S
O50 In39 2.294 . S
O50 C43 1.240 . S
O51 In39 2.326 . S
O51 C43 1.252 . S
In52 O53 2.294 . S
In52 O54 2.326 . S
In52 O58 2.266 . S
In52 O59 2.326 . S
In52 O60 2.266 1_565 S
In52 O61 2.326 1_565 S
In52 O63 2.294 . S
In52 O64 2.326 . S
O53 In52 2.294 . S
O53 C62 1.240 . S
O54 In52 2.326 . S
O54 C62 1.252 . S
C55 O58 1.252 . S
C55 O59 1.260 . S
C56 O63 1.240 . S
C56 O64 1.252 . S
C57 O60 1.252 . S
C57 O61 1.260 . S
O58 In52 2.266 . S
O58 C55 1.252 . S
O59 In52 2.326 . S
O59 C55 1.260 . S
O60 In52 2.266 1_545 S
O60 C57 1.252 . S
O61 In52 2.326 1_545 S
O61 C57 1.260 . S
C62 O53 1.240 . S
C62 O54 1.252 . S
O63 In52 2.294 . S
O63 C56 1.240 . S
O64 In52 2.326 . S
O64 C56 1.252 . S
In65 O66 2.294 . S
In65 O67 2.326 . S
In65 O71 2.266 . S
In65 O72 2.326 . S
In65 O73 2.266 1_455 S
In65 O74 2.326 1_455 S
In65 O76 2.294 . S
In65 O77 2.326 . S
O66 In65 2.294 . S
O66 C75 1.240 . S
O67 In65 2.326 . S
O67 C75 1.252 . S
C68 O71 1.252 . S
C68 O72 1.260 . S
C69 O76 1.240 . S
C69 O77 1.252 . S
C70 O73 1.252 . S
C70 O74 1.260 . S
O71 In65 2.266 . S
O71 C68 1.252 . S
O72 In65 2.326 . S
O72 C68 1.260 . S
O73 In65 2.266 1_655 S
O73 C70 1.252 . S
O74 In65 2.326 1_655 S
O74 C70 1.260 . S
C75 O66 1.240 . S
C75 O67 1.252 . S
O76 In65 2.294 . S
O76 C69 1.240 . S
O77 In65 2.326 . S
O77 C69 1.252 . S
In78 O79 2.294 . S
In78 O80 2.326 . S
In78 O84 2.266 . S
In78 O85 2.326 . S
In78 O86 2.266 . S
In78 O87 2.326 . S
In78 O89 2.294 . S
In78 O90 2.326 . S
O79 In78 2.294 . S
O79 C88 1.240 . S
O80 In78 2.326 . S
O80 C88 1.252 . S
C81 O84 1.252 . S
C81 O85 1.260 . S
C82 O89 1.240 . S
C82 O90 1.252 . S
C83 O86 1.252 . S
C83 O87 1.260 . S
O84 In78 2.266 . S
O84 C81 1.252 . S
O85 In78 2.326 . S
O85 C81 1.260 . S
O86 In78 2.266 . S
O86 C83 1.252 . S
O87 In78 2.326 . S
O87 C83 1.260 . S
C88 O79 1.240 . S
C88 O80 1.252 . S
O89 In78 2.294 . S
O89 C82 1.240 . S
O90 In78 2.326 . S
O90 C82 1.252 . S
In91 O92 2.294 . S
In91 O93 2.326 . S
In91 O97 2.266 . S
In91 O98 2.326 . S
In91 O99 2.233 1_565 S
In91 O100 2.326 1_565 S
In91 O102 2.294 . S
In91 O103 2.326 . S
O92 In91 2.294 . S
O92 C101 1.240 . S
O93 In91 2.326 . S
O93 C101 1.252 . S
C94 O97 1.252 . S
C94 O98 1.260 . S
C95 O102 1.240 . S
C95 O103 1.252 . S
C96 O99 1.295 . S
C96 O100 1.260 . S
O97 In91 2.266 . S
O97 C94 1.252 . S
O98 In91 2.326 . S
O98 C94 1.260 . S
O99 In91 2.233 1_545 S
O99 C96 1.295 . S
O100 In91 2.326 1_545 S
O100 C96 1.260 . S
C101 O92 1.240 . S
C101 O93 1.252 . S
O102 In91 2.294 . S
O102 C95 1.240 . S
O103 In91 2.326 . S
O103 C95 1.252 . S
In104 O105 2.294 . S
In104 O106 2.326 . S
In104 O110 2.266 . S
In104 O111 2.326 . S
In104 O112 2.234 1_455 S
In104 O113 2.326 1_455 S
In104 O115 2.294 . S
In104 O116 2.326 . S
O105 In104 2.294 . S
O105 C114 1.240 . S
O106 In104 2.326 . S
O106 C114 1.252 . S
C107 O110 1.252 . S
C107 O111 1.260 . S
C108 O115 1.240 . S
C108 O116 1.252 . S
C109 O112 1.253 . S
C109 O113 1.260 . S
O110 In104 2.266 . S
O110 C107 1.252 . S
O111 In104 2.326 . S
O111 C107 1.260 . S
O112 In104 2.234 1_655 S
O112 C109 1.253 . S
O113 In104 2.326 1_655 S
O113 C109 1.260 . S
C114 O105 1.240 . S
C114 O106 1.252 . S
O115 In104 2.294 . S
O115 C108 1.240 . S
O116 In104 2.326 . S
O116 C108 1.252 . S
In117 O118 2.294 . S
In117 O119 2.326 . S
In117 O123 2.266 . S
In117 O124 2.326 . S
In117 O125 2.266 . S
In117 O126 2.326 . S
In117 O128 2.294 . S
In117 O129 2.326 . S
O118 In117 2.294 . S
O118 C127 1.240 . S
O119 In117 2.326 . S
O119 C127 1.252 . S
C120 O123 1.252 . S
C120 O124 1.260 . S
C121 O128 1.240 . S
C121 O129 1.252 . S
C122 O125 1.252 . S
C122 O126 1.260 . S
O123 In117 2.266 . S
O123 C120 1.252 . S
O124 In117 2.326 . S
O124 C120 1.260 . S
O125 In117 2.266 . S
O125 C122 1.252 . S
O126 In117 2.326 . S
O126 C122 1.260 . S
C127 O118 1.240 . S
C127 O119 1.252 . S
O128 In117 2.294 . S
O128 C121 1.240 . S
O129 In117 2.326 . S
O129 C121 1.252 . S
In130 O131 2.294 . S
In130 O132 2.326 . S
In130 O136 2.266 . S
In130 O137 2.326 . S
In130 O138 2.266 1_545 S
In130 O139 2.326 1_545 S
In130 O141 2.294 . S
In130 O142 2.326 . S
O131 In130 2.294 . S
O131 C140 1.240 . S
O132 In130 2.326 . S
O132 C140 1.252 . S
C133 O136 1.252 . S
C133 O137 1.260 . S
C134 O141 1.240 . S
C134 O142 1.252 . S
C135 O138 1.252 . S
C135 O139 1.260 . S
O136 In130 2.266 . S
O136 C133 1.252 . S
O137 In130 2.326 . S
O137 C133 1.260 . S
O138 In130 2.266 1_565 S
O138 C135 1.252 . S
O139 In130 2.326 1_565 S
O139 C135 1.260 . S
C140 O131 1.240 . S
C140 O132 1.252 . S
O141 In130 2.294 . S
O141 C134 1.240 . S
O142 In130 2.326 . S
O142 C134 1.252 . S
In143 O144 2.294 . S
In143 O145 2.326 . S
In143 O149 2.266 . S
In143 O150 2.326 . S
In143 O151 2.266 1_655 S
In143 O152 2.326 1_655 S
In143 O154 2.294 . S
In143 O155 2.326 . S
O144 In143 2.294 . S
O144 C153 1.240 . S
O145 In143 2.326 . S
O145 C153 1.252 . S
C146 O149 1.252 . S
C146 O150 1.260 . S
C147 O154 1.240 . S
C147 O155 1.252 . S
C148 O151 1.252 . S
C148 O152 1.260 . S
O149 In143 2.266 . S
O149 C146 1.252 . S
O150 In143 2.326 . S
O150 C146 1.260 . S
O151 In143 2.266 1_455 S
O151 C148 1.252 . S
O152 In143 2.326 1_455 S
O152 C148 1.260 . S
C153 O144 1.240 . S
C153 O145 1.252 . S
O154 In143 2.294 . S
O154 C147 1.240 . S
O155 In143 2.326 . S
O155 C147 1.252 . S
In156 O157 2.294 . S
In156 O158 2.326 . S
In156 O162 2.266 . S
In156 O163 2.326 . S
In156 O164 2.266 . S
In156 O165 2.326 . S
In156 O167 2.294 . S
In156 O168 2.326 . S
O157 In156 2.294 . S
O157 C166 1.240 . S
O158 In156 2.326 . S
O158 C166 1.252 . S
C159 O162 1.252 . S
C159 O163 1.260 . S
C160 O167 1.240 . S
C160 O168 1.252 . S
C161 O164 1.252 . S
C161 O165 1.260 . S
O162 In156 2.266 . S
O162 C159 1.252 . S
O163 In156 2.326 . S
O163 C159 1.260 . S
O164 In156 2.266 . S
O164 C161 1.252 . S
O165 In156 2.326 . S
O165 C161 1.260 . S
C166 O157 1.240 . S
C166 O158 1.252 . S
O167 In156 2.294 . S
O167 C160 1.240 . S
O168 In156 2.326 . S
O168 C160 1.252 . S
In169 O170 2.294 . S
In169 O171 2.326 . S
In169 O175 2.266 . S
In169 O176 2.326 . S
In169 O177 2.266 . S
In169 O178 2.326 . S
In169 O180 2.294 . S
In169 O181 2.326 . S
O170 In169 2.294 . S
O170 C179 1.240 . S
O171 In169 2.326 . S
O171 C179 1.252 . S
C172 O175 1.252 . S
C172 O176 1.260 . S
C173 O180 1.240 . S
C173 O181 1.252 . S
C174 O177 1.252 . S
C174 O178 1.260 . S
O175 In169 2.266 . S
O175 C172 1.252 . S
O176 In169 2.326 . S
O176 C172 1.260 . S
O177 In169 2.266 . S
O177 C174 1.252 . S
O178 In169 2.326 . S
O178 C174 1.260 . S
C179 O170 1.240 . S
C179 O171 1.252 . S
O180 In169 2.294 . S
O180 C173 1.240 . S
O181 In169 2.326 . S
O181 C173 1.252 . S
In182 O183 2.294 . S
In182 O184 2.326 . S
In182 O188 2.266 . S
In182 O189 2.326 . S
In182 O190 2.266 . S
In182 O191 2.326 . S
In182 O193 2.294 . S
In182 O194 2.326 . S
O183 In182 2.294 . S
O183 C192 1.240 . S
O184 In182 2.326 . S
O184 C192 1.252 . S
C185 O188 1.252 . S
C185 O189 1.260 . S
C186 O193 1.240 . S
C186 O194 1.252 . S
C187 O190 1.252 . S
C187 O191 1.260 . S
O188 In182 2.266 . S
O188 C185 1.252 . S
O189 In182 2.326 . S
O189 C185 1.260 . S
O190 In182 2.266 . S
O190 C187 1.252 . S
O191 In182 2.326 . S
O191 C187 1.260 . S
C192 O183 1.240 . S
C192 O184 1.252 . S
O193 In182 2.294 . S
O193 C186 1.240 . S
O194 In182 2.326 . S
O194 C186 1.252 . S
In195 O196 2.294 . S
In195 O197 2.326 . S
In195 O201 2.266 . S
In195 O202 2.326 . S
In195 O203 2.266 . S
In195 O204 2.326 . S
In195 O206 2.294 . S
In195 O207 2.326 . S
O196 In195 2.294 . S
O196 C205 1.240 . S
O197 In195 2.326 . S
O197 C205 1.252 . S
C198 O201 1.252 . S
C198 O202 1.260 . S
C199 O206 1.240 . S
C199 O207 1.252 . S
C200 O203 1.252 . S
C200 O204 1.260 . S
O201 In195 2.266 . S
O201 C198 1.252 . S
O202 In195 2.326 . S
O202 C198 1.260 . S
O203 In195 2.266 . S
O203 C200 1.252 . S
O204 In195 2.326 . S
O204 C200 1.260 . S
C205 O196 1.240 . S
C205 O197 1.252 . S
O206 In195 2.294 . S
O206 C199 1.240 . S
O207 In195 2.326 . S
O207 C199 1.252 . S
In208 O209 2.294 . S
In208 O210 2.326 . S
In208 O214 2.266 . S
In208 O215 2.326 . S
In208 O216 2.266 . S
In208 O217 2.326 . S
In208 O219 2.294 . S
In208 O220 2.326 . S
O209 In208 2.294 . S
O209 C218 1.240 . S
O210 In208 2.326 . S
O210 C218 1.252 . S
C211 O214 1.252 . S
C211 O215 1.260 . S
C212 O219 1.240 . S
C212 O220 1.252 . S
C213 O216 1.252 . S
C213 O217 1.260 . S
O214 In208 2.266 . S
O214 C211 1.252 . S
O215 In208 2.326 . S
O215 C211 1.260 . S
O216 In208 2.266 . S
O216 C213 1.252 . S
O217 In208 2.326 . S
O217 C213 1.260 . S
C218 O209 1.240 . S
C218 O210 1.252 . S
O219 In208 2.294 . S
O219 C212 1.240 . S
O220 In208 2.326 . S
O220 C212 1.252 . S
In221 O222 2.294 . S
In221 O223 2.326 . S
In221 O227 2.266 . S
In221 O228 2.326 . S
In221 O229 2.266 . S
In221 O230 2.326 . S
In221 O232 2.294 . S
In221 O233 2.326 . S
O222 In221 2.294 . S
O222 C231 1.240 . S
O223 In221 2.326 . S
O223 C231 1.252 . S
C224 O227 1.252 . S
C224 O228 1.260 . S
C225 O232 1.240 . S
C225 O233 1.252 . S
C226 O229 1.252 . S
C226 O230 1.260 . S
O227 In221 2.266 . S
O227 C224 1.252 . S
O228 In221 2.326 . S
O228 C224 1.260 . S
O229 In221 2.266 . S
O229 C226 1.252 . S
O230 In221 2.326 . S
O230 C226 1.260 . S
C231 O222 1.240 . S
C231 O223 1.252 . S
O232 In221 2.294 . S
O232 C225 1.240 . S
O233 In221 2.326 . S
O233 C225 1.252 . S
In234 O235 2.294 . S
In234 O236 2.326 . S
In234 O240 2.266 . S
In234 O241 2.326 . S
In234 O242 2.266 . S
In234 O243 2.326 . S
In234 O245 2.294 . S
In234 O246 2.326 . S
O235 In234 2.294 . S
O235 C244 1.240 . S
O236 In234 2.326 . S
O236 C244 1.252 . S
C237 O240 1.252 . S
C237 O241 1.260 . S
C238 O245 1.240 . S
C238 O246 1.252 . S
C239 O242 1.252 . S
C239 O243 1.260 . S
O240 In234 2.266 . S
O240 C237 1.252 . S
O241 In234 2.326 . S
O241 C237 1.260 . S
O242 In234 2.266 . S
O242 C239 1.252 . S
O243 In234 2.326 . S
O243 C239 1.260 . S
C244 O235 1.240 . S
C244 O236 1.252 . S
O245 In234 2.294 . S
O245 C238 1.240 . S
O246 In234 2.326 . S
O246 C238 1.252 . S
In247 O248 2.294 . S
In247 O249 2.326 . S
In247 O253 2.266 . S
In247 O254 2.326 . S
In247 O255 2.266 . S
In247 O256 2.326 . S
In247 O258 2.294 . S
In247 O259 2.326 . S
O248 In247 2.294 . S
O248 C257 1.240 . S
O249 In247 2.326 . S
O249 C257 1.252 . S
C250 O253 1.252 . S
C250 O254 1.260 . S
C251 O258 1.240 . S
C251 O259 1.252 . S
C252 O255 1.252 . S
C252 O256 1.260 . S
O253 In247 2.266 . S
O253 C250 1.252 . S
O254 In247 2.326 . S
O254 C250 1.260 . S
O255 In247 2.266 . S
O255 C252 1.252 . S
O256 In247 2.326 . S
O256 C252 1.260 . S
C257 O248 1.240 . S
C257 O249 1.252 . S
O258 In247 2.294 . S
O258 C251 1.240 . S
O259 In247 2.326 . S
O259 C251 1.252 . S
In260 O261 2.294 . S
In260 O262 2.326 . S
In260 O266 2.266 . S
In260 O267 2.326 . S
In260 O268 2.266 . S
In260 O269 2.326 . S
In260 O271 2.294 . S
In260 O272 2.326 . S
O261 In260 2.294 . S
O261 C270 1.240 . S
O262 In260 2.326 . S
O262 C270 1.252 . S
C263 O266 1.252 . S
C263 O267 1.260 . S
C264 O271 1.240 . S
C264 O272 1.252 . S
C265 O268 1.252 . S
C265 O269 1.260 . S
O266 In260 2.266 . S
O266 C263 1.252 . S
O267 In260 2.326 . S
O267 C263 1.260 . S
O268 In260 2.266 . S
O268 C265 1.252 . S
O269 In260 2.326 . S
O269 C265 1.260 . S
C270 O261 1.240 . S
C270 O262 1.252 . S
O271 In260 2.294 . S
O271 C264 1.240 . S
O272 In260 2.326 . S
O272 C264 1.252 . S
In273 O274 2.293 1_554 S
In273 O275 2.327 . S
In273 O279 2.265 1_554 S
In273 O280 2.326 . S
In273 O281 2.267 . S
In273 O282 2.324 1_554 S
In273 O284 2.296 . S
In273 O285 2.328 . S
O274 In273 2.293 1_556 S
O274 C283 1.240 . S
O275 In273 2.327 . S
O275 C283 1.252 1_554 S
C276 O279 1.252 . S
C276 O280 1.260 1_556 S
C277 O284 1.240 . S
C277 O285 1.252 . S
C278 O281 1.252 1_556 S
C278 O282 1.260 . S
O279 In273 2.265 1_556 S
O279 C276 1.252 . S
O280 In273 2.326 . S
O280 C276 1.260 1_554 S
O281 In273 2.267 . S
O281 C278 1.252 1_554 S
O282 In273 2.324 1_556 S
O282 C278 1.260 . S
C283 O274 1.240 . S
C283 O275 1.252 1_556 S
O284 In273 2.296 . S
O284 C277 1.240 . S
O285 In273 2.328 . S
O285 C277 1.252 . S
In286 O287 2.293 1_554 S
In286 O288 2.327 . S
In286 O292 2.265 1_554 S
In286 O293 2.326 . S
In286 O294 2.267 . S
In286 O295 2.324 1_554 S
In286 O297 2.296 . S
In286 O298 2.328 . S
O287 In286 2.293 1_556 S
O287 C296 1.240 . S
O288 In286 2.327 . S
O288 C296 1.252 1_554 S
C289 O292 1.252 . S
C289 O293 1.260 1_556 S
C290 O297 1.240 . S
C290 O298 1.252 . S
C291 O294 1.252 1_556 S
C291 O295 1.260 . S
O292 In286 2.265 1_556 S
O292 C289 1.252 . S
O293 In286 2.326 . S
O293 C289 1.260 1_554 S
O294 In286 2.267 . S
O294 C291 1.252 1_554 S
O295 In286 2.324 1_556 S
O295 C291 1.260 . S
C296 O287 1.240 . S
C296 O288 1.252 1_556 S
O297 In286 2.296 . S
O297 C290 1.240 . S
O298 In286 2.328 . S
O298 C290 1.252 . S
In299 O300 2.296 . S
In299 O301 2.328 . S
In299 O305 2.267 . S
In299 O306 2.324 1_554 S
In299 O307 2.265 1_554 S
In299 O308 2.326 . S
In299 O310 2.293 1_554 S
In299 O311 2.327 . S
O300 In299 2.296 . S
O300 C309 1.240 . S
O301 In299 2.328 . S
O301 C309 1.252 . S
C302 O305 1.252 1_556 S
C302 O306 1.260 . S
C303 O310 1.240 . S
C303 O311 1.252 1_556 S
C304 O307 1.252 . S
C304 O308 1.260 1_556 S
O305 In299 2.267 . S
O305 C302 1.252 1_554 S
O306 In299 2.324 1_556 S
O306 C302 1.260 . S
O307 In299 2.265 1_556 S
O307 C304 1.252 . S
O308 In299 2.326 . S
O308 C304 1.260 1_554 S
C309 O300 1.240 . S
C309 O301 1.252 . S
O310 In299 2.293 1_556 S
O310 C303 1.240 . S
O311 In299 2.327 . S
O311 C303 1.252 1_554 S
In312 O313 2.294 . S
In312 O314 2.326 . S
In312 O318 2.266 . S
In312 O319 2.326 . S
In312 O320 2.266 . S
In312 O321 2.326 . S
In312 O323 2.294 . S
In312 O324 2.326 . S
O313 In312 2.294 . S
O313 C322 1.240 . S
O314 In312 2.326 . S
O314 C322 1.252 . S
C315 O318 1.252 . S
C315 O319 1.260 . S
C316 O323 1.240 . S
C316 O324 1.252 . S
C317 O320 1.252 . S
C317 O321 1.260 . S
O318 In312 2.266 . S
O318 C315 1.252 . S
O319 In312 2.326 . S
O319 C315 1.260 . S
O320 In312 2.266 . S
O320 C317 1.252 . S
O321 In312 2.326 . S
O321 C317 1.260 . S
C322 O313 1.240 . S
C322 O314 1.252 . S
O323 In312 2.294 . S
O323 C316 1.240 . S
O324 In312 2.326 . S
O324 C316 1.252 . S
In325 O326 2.294 . S
In325 O327 2.326 . S
In325 O331 2.266 . S
In325 O332 2.326 . S
In325 O333 2.266 . S
In325 O334 2.326 . S
In325 O336 2.294 . S
In325 O337 2.326 . S
O326 In325 2.294 . S
O326 C335 1.240 . S
O327 In325 2.326 . S
O327 C335 1.252 . S
C328 O331 1.252 . S
C328 O332 1.260 . S
C329 O336 1.240 . S
C329 O337 1.252 . S
C330 O333 1.252 . S
C330 O334 1.260 . S
O331 In325 2.266 . S
O331 C328 1.252 . S
O332 In325 2.326 . S
O332 C328 1.260 . S
O333 In325 2.266 . S
O333 C330 1.252 . S
O334 In325 2.326 . S
O334 C330 1.260 . S
C335 O326 1.240 . S
C335 O327 1.252 . S
O336 In325 2.294 . S
O336 C329 1.240 . S
O337 In325 2.326 . S
O337 C329 1.252 . S
In338 O339 2.294 . S
In338 O340 2.326 . S
In338 O344 2.266 . S
In338 O345 2.326 . S
In338 O346 2.266 . S
In338 O347 2.326 . S
In338 O349 2.294 . S
In338 O350 2.326 . S
O339 In338 2.294 . S
O339 C348 1.240 . S
O340 In338 2.326 . S
O340 C348 1.252 . S
C341 O344 1.252 . S
C341 O345 1.260 . S
C342 O349 1.240 . S
C342 O350 1.252 . S
C343 O346 1.252 . S
C343 O347 1.260 . S
O344 In338 2.266 . S
O344 C341 1.252 . S
O345 In338 2.326 . S
O345 C341 1.260 . S
O346 In338 2.266 . S
O346 C343 1.252 . S
O347 In338 2.326 . S
O347 C343 1.260 . S
C348 O339 1.240 . S
C348 O340 1.252 . S
O349 In338 2.294 . S
O349 C342 1.240 . S
O350 In338 2.326 . S
O350 C342 1.252 . S
In351 O352 2.293 1_556 S
In351 O353 2.327 . S
In351 O357 2.265 1_556 S
In351 O358 2.326 . S
In351 O359 2.267 . S
In351 O360 2.324 1_556 S
In351 O362 2.296 . S
In351 O363 2.328 . S
O352 In351 2.293 1_554 S
O352 C361 1.240 . S
O353 In351 2.327 . S
O353 C361 1.252 1_556 S
C354 O357 1.252 . S
C354 O358 1.260 1_554 S
C355 O362 1.240 . S
C355 O363 1.252 . S
C356 O359 1.252 1_554 S
C356 O360 1.260 . S
O357 In351 2.265 1_554 S
O357 C354 1.252 . S
O358 In351 2.326 . S
O358 C354 1.260 1_556 S
O359 In351 2.267 . S
O359 C356 1.252 1_556 S
O360 In351 2.324 1_554 S
O360 C356 1.260 . S
C361 O352 1.240 . S
C361 O353 1.252 1_554 S
O362 In351 2.296 . S
O362 C355 1.240 . S
O363 In351 2.328 . S
O363 C355 1.252 . S
In364 O365 2.293 1_556 S
In364 O366 2.327 . S
In364 O370 2.265 1_556 S
In364 O371 2.326 . S
In364 O372 2.267 . S
In364 O373 2.324 1_556 S
In364 O375 2.296 . S
In364 O376 2.328 . S
O365 In364 2.293 1_554 S
O365 C374 1.240 . S
O366 In364 2.327 . S
O366 C374 1.252 1_556 S
C367 O370 1.252 . S
C367 O371 1.260 1_554 S
C368 O375 1.240 . S
C368 O376 1.252 . S
C369 O372 1.252 1_554 S
C369 O373 1.260 . S
O370 In364 2.265 1_554 S
O370 C367 1.252 . S
O371 In364 2.326 . S
O371 C367 1.260 1_556 S
O372 In364 2.267 . S
O372 C369 1.252 1_556 S
O373 In364 2.324 1_554 S
O373 C369 1.260 . S
C374 O365 1.240 . S
C374 O366 1.252 1_554 S
O375 In364 2.296 . S
O375 C368 1.240 . S
O376 In364 2.328 . S
O376 C368 1.252 . S
In377 O378 2.293 1_556 S
In377 O379 2.327 . S
In377 O383 2.265 1_556 S
In377 O384 2.326 . S
In377 O385 2.267 . S
In377 O386 2.324 1_556 S
In377 O388 2.296 . S
In377 O389 2.328 . S
O378 In377 2.293 1_554 S
O378 C387 1.240 . S
O379 In377 2.327 . S
O379 C387 1.252 1_556 S
C380 O383 1.252 . S
C380 O384 1.260 1_554 S
C381 O388 1.240 . S
C381 O389 1.252 . S
C382 O385 1.252 1_554 S
C382 O386 1.260 . S
O383 In377 2.265 1_554 S
O383 C380 1.252 . S
O384 In377 2.326 . S
O384 C380 1.260 1_556 S
O385 In377 2.267 . S
O385 C382 1.252 1_556 S
O386 In377 2.324 1_554 S
O386 C382 1.260 . S
C387 O378 1.240 . S
C387 O379 1.252 1_554 S
O388 In377 2.296 . S
O388 C381 1.240 . S
O389 In377 2.328 . S
O389 C381 1.252 . S
In390 O391 2.294 . S
In390 O392 2.326 . S
In390 O396 2.266 . S
In390 O397 2.326 . S
In390 O398 2.266 . S
In390 O399 2.326 . S
In390 O401 2.294 . S
In390 O402 2.326 . S
O391 In390 2.294 . S
O391 C400 1.240 . S
O392 In390 2.326 . S
O392 C400 1.252 . S
C393 O396 1.252 . S
C393 O397 1.260 . S
C394 O401 1.240 . S
C394 O402 1.252 . S
C395 O398 1.252 . S
C395 O399 1.260 . S
O396 In390 2.266 . S
O396 C393 1.252 . S
O397 In390 2.326 . S
O397 C393 1.260 . S
O398 In390 2.266 . S
O398 C395 1.252 . S
O399 In390 2.326 . S
O399 C395 1.260 . S
C400 O391 1.240 . S
C400 O392 1.252 . S
O401 In390 2.294 . S
O401 C394 1.240 . S
O402 In390 2.326 . S
O402 C394 1.252 . S
In403 O404 2.294 . S
In403 O405 2.326 . S
In403 O409 2.266 . S
In403 O410 2.326 . S
In403 O411 2.266 . S
In403 O412 2.326 . S
In403 O414 2.294 . S
In403 O415 2.326 . S
O404 In403 2.294 . S
O404 C413 1.240 . S
O405 In403 2.326 . S
O405 C413 1.252 . S
C406 O409 1.252 . S
C406 O410 1.260 . S
C407 O414 1.240 . S
C407 O415 1.252 . S
C408 O411 1.252 . S
C408 O412 1.260 . S
O409 In403 2.266 . S
O409 C406 1.252 . S
O410 In403 2.326 . S
O410 C406 1.260 . S
O411 In403 2.266 . S
O411 C408 1.252 . S
O412 In403 2.326 . S
O412 C408 1.260 . S
C413 O404 1.240 . S
C413 O405 1.252 . S
O414 In403 2.294 . S
O414 C407 1.240 . S
O415 In403 2.326 . S
O415 C407 1.252 . S
In416 O417 2.294 . S
In416 O418 2.326 . S
In416 O422 2.266 . S
In416 O423 2.326 . S
In416 O424 2.266 . S
In416 O425 2.326 . S
In416 O427 2.294 . S
In416 O428 2.326 . S
O417 In416 2.294 . S
O417 C426 1.240 . S
O418 In416 2.326 . S
O418 C426 1.252 . S
C419 O422 1.252 . S
C419 O423 1.260 . S
C420 O427 1.240 . S
C420 O428 1.252 . S
C421 O424 1.252 . S
C421 O425 1.260 . S
O422 In416 2.266 . S
O422 C419 1.252 . S
O423 In416 2.326 . S
O423 C419 1.260 . S
O424 In416 2.266 . S
O424 C421 1.252 . S
O425 In416 2.326 . S
O425 C421 1.260 . S
C426 O417 1.240 . S
C426 O418 1.252 . S
O427 In416 2.294 . S
O427 C420 1.240 . S
O428 In416 2.326 . S
O428 C420 1.252 . S
In429 O430 2.294 . S
In429 O431 2.326 . S
In429 O435 2.266 . S
In429 O436 2.326 . S
In429 O437 2.266 . S
In429 O438 2.326 . S
In429 O440 2.294 . S
In429 O441 2.326 . S
O430 In429 2.294 . S
O430 C439 1.240 . S
O431 In429 2.326 . S
O431 C439 1.252 . S
C432 O435 1.252 . S
C432 O436 1.260 . S
C433 O440 1.240 . S
C433 O441 1.252 . S
C434 O437 1.252 . S
C434 O438 1.260 . S
O435 In429 2.266 . S
O435 C432 1.252 . S
O436 In429 2.326 . S
O436 C432 1.260 . S
O437 In429 2.266 . S
O437 C434 1.252 . S
O438 In429 2.326 . S
O438 C434 1.260 . S
C439 O430 1.240 . S
C439 O431 1.252 . S
O440 In429 2.294 . S
O440 C433 1.240 . S
O441 In429 2.326 . S
O441 C433 1.252 . S
In442 O443 2.294 . S
In442 O444 2.326 . S
In442 O448 2.266 . S
In442 O449 2.326 . S
In442 O450 2.266 . S
In442 O451 2.326 . S
In442 O453 2.294 . S
In442 O454 2.326 . S
O443 In442 2.294 . S
O443 C452 1.240 . S
O444 In442 2.326 . S
O444 C452 1.252 . S
C445 O448 1.252 . S
C445 O449 1.260 . S
C446 O453 1.240 . S
C446 O454 1.252 . S
C447 O450 1.252 . S
C447 O451 1.260 . S
O448 In442 2.266 . S
O448 C445 1.252 . S
O449 In442 2.326 . S
O449 C445 1.260 . S
O450 In442 2.266 . S
O450 C447 1.252 . S
O451 In442 2.326 . S
O451 C447 1.260 . S
C452 O443 1.240 . S
C452 O444 1.252 . S
O453 In442 2.294 . S
O453 C446 1.240 . S
O454 In442 2.326 . S
O454 C446 1.252 . S
In455 O456 2.294 . S
In455 O457 2.326 . S
In455 O461 2.266 . S
In455 O462 2.326 . S
In455 O463 2.266 . S
In455 O464 2.326 . S
In455 O466 2.294 . S
In455 O467 2.326 . S
O456 In455 2.294 . S
O456 C465 1.240 . S
O457 In455 2.326 . S
O457 C465 1.252 . S
C458 O461 1.252 . S
C458 O462 1.260 . S
C459 O466 1.240 . S
C459 O467 1.252 . S
C460 O463 1.252 . S
C460 O464 1.260 . S
O461 In455 2.266 . S
O461 C458 1.252 . S
O462 In455 2.326 . S
O462 C458 1.260 . S
O463 In455 2.266 . S
O463 C460 1.252 . S
O464 In455 2.326 . S
O464 C460 1.260 . S
C465 O456 1.240 . S
C465 O457 1.252 . S
O466 In455 2.294 . S
O466 C459 1.240 . S
O467 In455 2.326 . S
O467 C459 1.252 . S
H468 C476 0.929 . S
H469 C478 0.930 . S
H470 C480 0.930 . S
H471 C483 0.929 . S
H472 C486 0.930 . S
H473 C488 0.960 . S
H474 C488 0.960 . S
H475 C488 0.960 . S
C476 H468 0.929 . S
C476 C477 1.377 . S
C476 C478 1.384 . S
C477 C476 1.377 . S
C477 C483 1.390 . S
C478 H469 0.930 . S
C478 C476 1.384 . S
C478 C479 1.372 . S
C479 C478 1.372 . S
C479 C480 1.400 . S
C479 C484 1.490 . S
C480 H470 0.930 . S
C480 C479 1.400 . S
C480 C483 1.386 . S
H481 C497 0.930 . S
H482 C498 0.931 . S
C483 H471 0.929 . S
C483 C477 1.390 . S
C483 C480 1.386 . S
C484 C479 1.490 . S
C484 C486 1.395 . S
C484 C487 1.403 . S
H485 C491 0.930 1_655 S
C486 H472 0.930 . S
C486 C484 1.395 . S
C486 C489 1.403 . S
C487 C484 1.403 . S
C487 C488 1.524 . S
C487 C491 1.400 . S
C488 H473 0.960 . S
C488 H474 0.960 . S
C488 H475 0.960 . S
C488 C487 1.524 . S
C489 C486 1.403 . S
C489 C490 1.392 1_455 S
C489 C493 1.495 . S
C490 C489 1.392 1_655 S
C490 C491 1.385 1_655 S
C490 C492 1.478 . S
C491 H485 0.930 1_455 S
C491 C487 1.400 . S
C491 C490 1.385 1_455 S
C492 C490 1.478 . S
C492 C494 1.381 . S
C492 C498 1.383 . S
C493 C489 1.495 . S
C493 H499 0.959 . S
C493 H500 0.961 1_455 S
C493 H501 0.960 1_455 S
C494 C492 1.381 . S
C494 C495 1.394 . S
C494 H502 0.930 . S
C495 C494 1.394 . S
C495 C496 1.383 . S
C495 H503 0.929 . S
C496 C495 1.383 . S
C496 C497 1.377 . S
C497 H481 0.930 . S
C497 C496 1.377 . S
C497 C498 1.379 . S
C498 H482 0.931 . S
C498 C492 1.383 . S
C498 C497 1.379 . S
H499 C493 0.959 . S
H500 C493 0.961 1_655 S
H501 C493 0.960 1_655 S
H502 C494 0.930 . S
H503 C495 0.929 . S
H504 C512 0.929 . S
H505 C514 0.930 . S
H506 C516 0.930 . S
H507 C519 0.929 . S
H508 C522 0.930 . S
H509 C524 0.960 . S
H510 C524 0.960 . S
H511 C524 0.960 . S
C512 H504 0.929 . S
C512 C513 1.377 . S
C512 C514 1.384 . S
C513 C512 1.377 . S
C513 C519 1.390 . S
C514 H505 0.930 . S
C514 C512 1.384 . S
C514 C515 1.372 . S
C515 C514 1.372 . S
C515 C516 1.400 . S
C515 C520 1.490 . S
C516 H506 0.930 . S
C516 C515 1.400 . S
C516 C519 1.386 . S
H517 C533 0.930 . S
H518 C534 0.931 . S
C519 H507 0.929 . S
C519 C513 1.390 . S
C519 C516 1.386 . S
C520 C515 1.490 . S
C520 C522 1.395 . S
C520 C523 1.403 . S
H521 C527 0.930 . S
C522 H508 0.930 . S
C522 C520 1.395 . S
C522 C525 1.403 . S
C523 C520 1.403 . S
C523 C524 1.524 . S
C523 C527 1.400 . S
C524 H509 0.960 . S
C524 H510 0.960 . S
C524 H511 0.960 . S
C524 C523 1.524 . S
C525 C522 1.403 . S
C525 C526 1.392 . S
C525 C529 1.495 . S
C526 C525 1.392 . S
C526 C527 1.385 . S
C526 C528 1.478 . S
C527 H521 0.930 . S
C527 C523 1.400 . S
C527 C526 1.385 . S
C528 C526 1.478 . S
C528 C530 1.381 . S
C528 C534 1.383 . S
C529 C525 1.495 . S
C529 H535 0.959 . S
C529 H536 0.961 . S
C529 H537 0.960 . S
C530 C528 1.381 . S
C530 C531 1.394 . S
C530 H538 0.930 . S
C531 C530 1.394 . S
C531 C532 1.383 . S
C531 H539 0.929 . S
C532 C531 1.383 . S
C532 C533 1.377 . S
C533 H517 0.930 . S
C533 C532 1.377 . S
C533 C534 1.379 . S
C534 H518 0.931 . S
C534 C528 1.383 . S
C534 C533 1.379 . S
H535 C529 0.959 . S
H536 C529 0.961 . S
H537 C529 0.960 . S
H538 C530 0.930 . S
H539 C531 0.929 . S
H540 C548 0.929 . S
H541 C550 0.930 . S
H542 C552 0.930 . S
H543 C555 0.929 . S
H544 C558 0.926 1_545 S
H545 C560 0.960 1_565 S
H546 C560 0.960 . S
H547 C560 0.960 . S
C548 H540 0.929 . S
C548 C549 1.377 . S
C548 C550 1.384 . S
C549 C548 1.377 . S
C549 C555 1.390 . S
C550 H541 0.930 . S
C550 C548 1.384 . S
C550 C551 1.372 . S
C551 C550 1.372 . S
C551 C552 1.400 . S
C551 C556 1.490 . S
C552 H542 0.930 . S
C552 C551 1.400 . S
C552 C555 1.386 . S
H553 C569 0.930 . S
H554 C570 0.931 . S
C555 H543 0.929 . S
C555 C549 1.390 . S
C555 C552 1.386 . S
C556 C551 1.490 . S
C556 C558 1.395 1_545 S
C556 C559 1.403 1_545 S
H557 C563 0.930 . S
C558 H544 0.926 1_565 S
C558 C556 1.395 1_565 S
C558 C561 1.403 . S
C559 C556 1.403 1_565 S
C559 C560 1.524 1_565 S
C559 C563 1.400 . S
C560 H545 0.960 1_545 S
C560 H546 0.960 . S
C560 H547 0.960 . S
C560 C559 1.524 1_545 S
C561 C558 1.403 . S
C561 C562 1.392 . S
C561 C565 1.495 . S
C562 C561 1.392 . S
C562 C563 1.385 . S
C562 C564 1.478 . S
C563 H557 0.930 . S
C563 C559 1.400 . S
C563 C562 1.385 . S
C564 C562 1.478 . S
C564 C566 1.381 . S
C564 C570 1.383 . S
C565 C561 1.495 . S
C565 H571 0.959 . S
C565 H572 0.961 . S
C565 H573 0.960 . S
C566 C564 1.381 . S
C566 C567 1.394 . S
C566 H574 0.930 . S
C567 C566 1.394 . S
C567 C568 1.383 . S
C567 H575 0.929 . S
C568 C567 1.383 . S
C568 C569 1.377 . S
C569 H553 0.930 . S
C569 C568 1.377 . S
C569 C570 1.379 . S
C570 H554 0.931 . S
C570 C564 1.383 . S
C570 C569 1.379 . S
H571 C565 0.959 . S
H572 C565 0.961 . S
H573 C565 0.960 . S
H574 C566 0.930 . S
H575 C567 0.929 . S
H576 C584 0.929 . S
H577 C586 0.930 . S
H578 C588 0.930 . S
H579 C591 0.929 . S
H580 C594 0.930 . S
H581 C596 0.960 . S
H582 C596 0.960 . S
H583 C596 0.960 . S
C584 H576 0.929 . S
C584 C585 1.377 . S
C584 C586 1.384 . S
C585 C584 1.377 . S
C585 C591 1.390 . S
C586 H577 0.930 . S
C586 C584 1.384 . S
C586 C587 1.372 . S
C587 C586 1.372 . S
C587 C588 1.400 . S
C587 C592 1.490 . S
C588 H578 0.930 . S
C588 C587 1.400 . S
C588 C591 1.386 . S
H589 C605 0.930 . S
H590 C606 0.931 . S
C591 H579 0.929 . S
C591 C585 1.390 . S
C591 C588 1.386 . S
C592 C587 1.490 . S
C592 C594 1.395 . S
C592 C595 1.403 . S
H593 C599 0.930 1_565 S
C594 H580 0.930 . S
C594 C592 1.395 . S
C594 C597 1.403 . S
C595 C592 1.403 . S
C595 C596 1.524 . S
C595 C599 1.400 . S
C596 H581 0.960 . S
C596 H582 0.960 . S
C596 H583 0.960 . S
C596 C595 1.524 . S
C597 C594 1.403 . S
C597 C598 1.392 1_545 S
C597 C601 1.495 1_545 S
C598 C597 1.392 1_565 S
C598 C599 1.385 1_565 S
C598 C600 1.478 . S
C599 H593 0.930 1_545 S
C599 C595 1.400 . S
C599 C598 1.385 1_545 S
C600 C598 1.478 . S
C600 C602 1.381 . S
C600 C606 1.383 . S
C601 C597 1.495 1_565 S
C601 H607 0.959 1_565 S
C601 H608 0.961 . S
C601 H609 0.960 . S
C602 C600 1.381 . S
C602 C603 1.394 . S
C602 H610 0.930 . S
C603 C602 1.394 . S
C603 C604 1.383 . S
C603 H611 0.929 . S
C604 C603 1.383 . S
C604 C605 1.377 . S
C605 H589 0.930 . S
C605 C604 1.377 . S
C605 C606 1.379 . S
C606 H590 0.931 . S
C606 C600 1.383 . S
C606 C605 1.379 . S
H607 C601 0.959 1_545 S
H608 C601 0.961 . S
H609 C601 0.960 . S
H610 C602 0.930 . S
H611 C603 0.929 . S
H612 C620 0.929 . S
H613 C622 0.930 . S
H614 C624 0.930 . S
H615 C627 0.929 . S
H616 C630 0.930 . S
H617 C632 0.960 . S
H618 C632 0.960 . S
H619 C632 0.960 . S
C620 H612 0.929 . S
C620 C621 1.377 . S
C620 C622 1.384 . S
C621 C620 1.377 . S
C621 C627 1.390 . S
C622 H613 0.930 . S
C622 C620 1.384 . S
C622 C623 1.372 . S
C623 C622 1.372 . S
C623 C624 1.400 . S
C623 C628 1.490 . S
C624 H614 0.930 . S
C624 C623 1.400 . S
C624 C627 1.386 . S
H625 C641 0.930 . S
H626 C642 0.931 . S
C627 H615 0.929 . S
C627 C621 1.390 . S
C627 C624 1.386 . S
C628 C623 1.490 . S
C628 C630 1.395 . S
C628 C631 1.403 . S
H629 C635 0.930 1_455 S
C630 H616 0.930 . S
C630 C628 1.395 . S
C630 C633 1.403 . S
C631 C628 1.403 . S
C631 C632 1.524 . S
C631 C635 1.400 . S
C632 H617 0.960 . S
C632 H618 0.960 . S
C632 H619 0.960 . S
C632 C631 1.524 . S
C633 C630 1.403 . S
C633 C634 1.392 1_655 S
C633 C637 1.495 1_655 S
C634 C633 1.392 1_455 S
C634 C635 1.385 1_455 S
C634 C636 1.478 . S
C635 H629 0.930 1_655 S
C635 C631 1.400 . S
C635 C634 1.385 1_655 S
C636 C634 1.478 . S
C636 C638 1.381 . S
C636 C642 1.383 . S
C637 C633 1.495 1_455 S
C637 H643 0.959 1_455 S
C637 H644 0.961 . S
C637 H645 0.960 . S
C638 C636 1.381 . S
C638 C639 1.394 . S
C638 H646 0.930 . S
C639 C638 1.394 . S
C639 C640 1.383 . S
C639 H647 0.929 . S
C640 C639 1.383 . S
C640 C641 1.377 . S
C641 H625 0.930 . S
C641 C640 1.377 . S
C641 C642 1.379 . S
C642 H626 0.931 . S
C642 C636 1.383 . S
C642 C641 1.379 . S
H643 C637 0.959 1_655 S
H644 C637 0.961 . S
H645 C637 0.960 . S
H646 C638 0.930 . S
H647 C639 0.929 . S
H648 C656 0.929 . S
H649 C658 0.930 . S
H650 C660 0.930 . S
H651 C663 0.929 . S
H652 C666 0.930 . S
H653 C668 0.960 . S
H654 C668 0.960 . S
H655 C668 0.960 . S
C656 H648 0.929 . S
C656 C657 1.377 . S
C656 C658 1.384 . S
C657 C656 1.377 . S
C657 C663 1.390 . S
C658 H649 0.930 . S
C658 C656 1.384 . S
C658 C659 1.372 . S
C659 C658 1.372 . S
C659 C660 1.400 . S
C659 C664 1.490 . S
C660 H650 0.930 . S
C660 C659 1.400 . S
C660 C663 1.386 . S
H661 C677 0.930 . S
H662 C678 0.931 . S
C663 H651 0.929 . S
C663 C657 1.390 . S
C663 C660 1.386 . S
C664 C659 1.490 . S
C664 C666 1.395 . S
C664 C667 1.403 . S
H665 C671 0.930 . S
C666 H652 0.930 . S
C666 C664 1.395 . S
C666 C669 1.403 . S
C667 C664 1.403 . S
C667 C668 1.524 . S
C667 C671 1.400 . S
C668 H653 0.960 . S
C668 H654 0.960 . S
C668 H655 0.960 . S
C668 C667 1.524 . S
C669 C666 1.403 . S
C669 C670 1.392 . S
C669 C673 1.495 . S
C670 C669 1.392 . S
C670 C671 1.385 . S
C670 C672 1.478 . S
C671 H665 0.930 . S
C671 C667 1.400 . S
C671 C670 1.385 . S
C672 C670 1.478 . S
C672 C674 1.381 . S
C672 C678 1.383 . S
C673 C669 1.495 . S
C673 H679 0.959 . S
C673 H680 0.961 . S
C673 H681 0.960 . S
C674 C672 1.381 . S
C674 C675 1.394 . S
C674 H682 0.930 . S
C675 C674 1.394 . S
C675 C676 1.383 . S
C675 H683 0.929 . S
C676 C675 1.383 . S
C676 C677 1.377 . S
C677 H661 0.930 . S
C677 C676 1.377 . S
C677 C678 1.379 . S
C678 H662 0.931 . S
C678 C672 1.383 . S
C678 C677 1.379 . S
H679 C673 0.959 . S
H680 C673 0.961 . S
H681 C673 0.960 . S
H682 C674 0.930 . S
H683 C675 0.929 . S
H684 C692 0.929 . S
H685 C694 0.930 . S
H686 C696 0.930 . S
H687 C699 0.929 . S
H688 C702 0.930 . S
H689 C704 0.960 . S
H690 C704 0.960 . S
H691 C704 0.960 . S
C692 H684 0.929 . S
C692 C693 1.377 . S
C692 C694 1.384 . S
C693 C692 1.377 . S
C693 C699 1.390 . S
C694 H685 0.930 . S
C694 C692 1.384 . S
C694 C695 1.372 . S
C695 C694 1.372 . S
C695 C696 1.400 . S
C695 C700 1.490 . S
C696 H686 0.930 . S
C696 C695 1.400 . S
C696 C699 1.386 . S
H697 C713 0.930 . S
H698 C714 0.931 . S
C699 H687 0.929 . S
C699 C693 1.390 . S
C699 C696 1.386 . S
C700 C695 1.490 . S
C700 C702 1.395 . S
C700 C703 1.403 . S
H701 C707 0.930 1_455 S
C702 H688 0.930 . S
C702 C700 1.395 . S
C702 C705 1.403 . S
C703 C700 1.403 . S
C703 C704 1.524 . S
C703 C707 1.400 . S
C704 H689 0.960 . S
C704 H690 0.960 . S
C704 H691 0.960 . S
C704 C703 1.524 . S
C705 C702 1.403 . S
C705 C706 1.392 1_655 S
C705 C709 1.495 1_655 S
C706 C705 1.392 1_455 S
C706 C707 1.385 1_455 S
C706 C708 1.478 . S
C707 H701 0.930 1_655 S
C707 C703 1.400 . S
C707 C706 1.385 1_655 S
C708 C706 1.478 . S
C708 C710 1.381 . S
C708 C714 1.383 . S
C709 C705 1.495 1_455 S
C709 H715 0.959 1_455 S
C709 H716 0.961 . S
C709 H717 0.960 . S
C710 C708 1.381 . S
C710 C711 1.394 . S
C710 H718 0.930 . S
C711 C710 1.394 . S
C711 C712 1.383 . S
C711 H719 0.929 . S
C712 C711 1.383 . S
C712 C713 1.377 . S
C713 H697 0.930 . S
C713 C712 1.377 . S
C713 C714 1.379 . S
C714 H698 0.931 . S
C714 C708 1.383 . S
C714 C713 1.379 . S
H715 C709 0.959 1_655 S
H716 C709 0.961 . S
H717 C709 0.960 . S
H718 C710 0.930 . S
H719 C711 0.929 . S
H720 C728 0.929 . S
H721 C730 0.930 . S
H722 C732 0.930 . S
H723 C735 0.929 . S
H724 C738 0.930 . S
H725 C740 0.960 . S
H726 C740 0.960 . S
H727 C740 0.960 . S
C728 H720 0.929 . S
C728 C729 1.377 . S
C728 C730 1.384 . S
C729 C728 1.377 . S
C729 C735 1.390 . S
C730 H721 0.930 . S
C730 C728 1.384 . S
C730 C731 1.372 . S
C731 C730 1.372 . S
C731 C732 1.400 . S
C731 C736 1.490 . S
C732 H722 0.930 . S
C732 C731 1.400 . S
C732 C735 1.386 . S
H733 C749 0.930 . S
H734 C750 0.931 . S
C735 H723 0.929 . S
C735 C729 1.390 . S
C735 C732 1.386 . S
C736 C731 1.490 . S
C736 C738 1.395 . S
C736 C739 1.403 . S
H737 C743 0.930 . S
C738 H724 0.930 . S
C738 C736 1.395 . S
C738 C741 1.403 . S
C739 C736 1.403 . S
C739 C740 1.524 . S
C739 C743 1.400 . S
C740 H725 0.960 . S
C740 H726 0.960 . S
C740 H727 0.960 . S
C740 C739 1.524 . S
C741 C738 1.403 . S
C741 C742 1.392 . S
C741 C745 1.495 . S
C742 C741 1.392 . S
C742 C743 1.385 . S
C742 C744 1.478 . S
C743 H737 0.930 . S
C743 C739 1.400 . S
C743 C742 1.385 . S
C744 C742 1.478 . S
C744 C746 1.381 . S
C744 C750 1.383 . S
C745 C741 1.495 . S
C745 H751 0.959 . S
C745 H752 0.961 . S
C745 H753 0.960 . S
C746 C744 1.381 . S
C746 C747 1.394 . S
C746 H754 0.930 . S
C747 C746 1.394 . S
C747 C748 1.383 . S
C747 H755 0.929 . S
C748 C747 1.383 . S
C748 C749 1.377 . S
C749 H733 0.930 . S
C749 C748 1.377 . S
C749 C750 1.379 . S
C750 H734 0.931 . S
C750 C744 1.383 . S
C750 C749 1.379 . S
H751 C745 0.959 . S
H752 C745 0.961 . S
H753 C745 0.960 . S
H754 C746 0.930 . S
H755 C747 0.929 . S
H756 C764 0.929 . S
H757 C766 0.930 . S
H758 C768 0.930 . S
H759 C771 0.929 . S
H760 C774 0.930 1_565 S
H761 C776 0.934 1_545 S
H762 C776 0.959 . S
H763 C776 1.003 . S
C764 H756 0.929 . S
C764 C765 1.377 . S
C764 C766 1.384 . S
C765 C764 1.377 . S
C765 C771 1.390 . S
C766 H757 0.930 . S
C766 C764 1.384 . S
C766 C767 1.372 . S
C767 C766 1.372 . S
C767 C768 1.400 . S
C767 C772 1.490 . S
C768 H758 0.930 . S
C768 C767 1.400 . S
C768 C771 1.386 . S
H769 C785 0.930 . S
H770 C786 0.931 . S
C771 H759 0.929 . S
C771 C765 1.390 . S
C771 C768 1.386 . S
C772 C767 1.490 . S
C772 C774 1.395 1_565 S
C772 C775 1.403 1_565 S
H773 C779 0.930 . S
C774 H760 0.930 1_545 S
C774 C772 1.395 1_545 S
C774 C777 1.403 . S
C775 C772 1.403 1_545 S
C775 C776 1.510 1_545 S
C775 C779 1.400 . S
C776 H761 0.934 1_565 S
C776 H762 0.959 . S
C776 H763 1.003 . S
C776 C775 1.510 1_565 S
C777 C774 1.403 . S
C777 C778 1.392 . S
C777 C781 1.495 . S
C778 C777 1.392 . S
C778 C779 1.385 . S
C778 C780 1.478 . S
C779 H773 0.930 . S
C779 C775 1.400 . S
C779 C778 1.385 . S
C780 C778 1.478 . S
C780 C782 1.381 . S
C780 C786 1.383 . S
C781 C777 1.495 . S
C781 H787 0.959 . S
C781 H788 0.961 . S
C781 H789 0.960 . S
C782 C780 1.381 . S
C782 C783 1.394 . S
C782 H790 0.930 . S
C783 C782 1.394 . S
C783 C784 1.383 . S
C783 H791 0.929 . S
C784 C783 1.383 . S
C784 C785 1.377 . S
C785 H769 0.930 . S
C785 C784 1.377 . S
C785 C786 1.379 . S
C786 H770 0.931 . S
C786 C780 1.383 . S
C786 C785 1.379 . S
H787 C781 0.959 . S
H788 C781 0.961 . S
H789 C781 0.960 . S
H790 C782 0.930 . S
H791 C783 0.929 . S
H792 C800 0.929 . S
H793 C802 0.930 . S
H794 C804 0.930 . S
H795 C807 0.929 . S
H796 C810 0.930 1_545 S
H797 C812 0.960 1_565 S
H798 C812 0.960 . S
H799 C812 0.960 . S
C800 H792 0.929 . S
C800 C801 1.377 . S
C800 C802 1.384 . S
C801 C800 1.377 . S
C801 C807 1.390 . S
C802 H793 0.930 . S
C802 C800 1.384 . S
C802 C803 1.372 . S
C803 C802 1.372 . S
C803 C804 1.400 . S
C803 C808 1.490 . S
C804 H794 0.930 . S
C804 C803 1.400 . S
C804 C807 1.386 . S
H805 C821 0.930 . S
H806 C822 0.931 . S
C807 H795 0.929 . S
C807 C801 1.390 . S
C807 C804 1.386 . S
C808 C803 1.490 . S
C808 C810 1.395 1_545 S
C808 C811 1.403 1_545 S
H809 C815 0.930 . S
C810 H796 0.930 1_565 S
C810 C808 1.395 1_565 S
C810 C813 1.403 . S
C811 C808 1.403 1_565 S
C811 C812 1.524 1_565 S
C811 C815 1.400 . S
C812 H797 0.960 1_545 S
C812 H798 0.960 . S
C812 H799 0.960 . S
C812 C811 1.524 1_545 S
C813 C810 1.403 . S
C813 C814 1.392 . S
C813 C817 1.495 . S
C814 C813 1.392 . S
C814 C815 1.385 . S
C814 C816 1.478 . S
C815 H809 0.930 . S
C815 C811 1.400 . S
C815 C814 1.385 . S
C816 C814 1.478 . S
C816 C818 1.381 . S
C816 C822 1.383 . S
C817 C813 1.495 . S
C817 H823 0.959 . S
C817 H824 0.961 . S
C817 H825 0.960 . S
C818 C816 1.381 . S
C818 C819 1.394 . S
C818 H826 0.930 . S
C819 C818 1.394 . S
C819 C820 1.383 . S
C819 H827 0.929 . S
C820 C819 1.383 . S
C820 C821 1.377 . S
C821 H805 0.930 . S
C821 C820 1.377 . S
C821 C822 1.379 . S
C822 H806 0.931 . S
C822 C816 1.383 . S
C822 C821 1.379 . S
H823 C817 0.959 . S
H824 C817 0.961 . S
H825 C817 0.960 . S
H826 C818 0.930 . S
H827 C819 0.929 . S
H828 C836 0.929 . S
H829 C838 0.930 . S
H830 C840 0.930 . S
H831 C843 0.929 . S
H832 C846 0.930 . S
H833 C848 0.960 . S
H834 C848 0.960 . S
H835 C848 0.960 . S
C836 H828 0.929 . S
C836 C837 1.377 . S
C836 C838 1.384 . S
C837 C836 1.377 . S
C837 C843 1.390 . S
C838 H829 0.930 . S
C838 C836 1.384 . S
C838 C839 1.372 . S
C839 C838 1.372 . S
C839 C840 1.400 . S
C839 C844 1.490 . S
C840 H830 0.930 . S
C840 C839 1.400 . S
C840 C843 1.386 . S
H841 C857 0.930 . S
H842 C858 0.931 . S
C843 H831 0.929 . S
C843 C837 1.390 . S
C843 C840 1.386 . S
C844 C839 1.490 . S
C844 C846 1.395 . S
C844 C847 1.403 . S
H845 C851 0.930 1_655 S
C846 H832 0.930 . S
C846 C844 1.395 . S
C846 C849 1.403 . S
C847 C844 1.403 . S
C847 C848 1.524 . S
C847 C851 1.400 . S
C848 H833 0.960 . S
C848 H834 0.960 . S
C848 H835 0.960 . S
C848 C847 1.524 . S
C849 C846 1.403 . S
C849 C850 1.392 1_455 S
C849 C853 1.495 1_455 S
C850 C849 1.392 1_655 S
C850 C851 1.385 1_655 S
C850 C852 1.478 . S
C851 H845 0.930 1_455 S
C851 C847 1.400 . S
C851 C850 1.385 1_455 S
C852 C850 1.478 . S
C852 C854 1.381 . S
C852 C858 1.383 . S
C853 C849 1.495 1_655 S
C853 H859 0.959 1_655 S
C853 H860 0.961 . S
C853 H861 0.960 . S
C854 C852 1.381 . S
C854 C855 1.394 . S
C854 H862 0.930 . S
C855 C854 1.394 . S
C855 C856 1.383 . S
C855 H863 0.929 . S
C856 C855 1.383 . S
C856 C857 1.377 . S
C857 H841 0.930 . S
C857 C856 1.377 . S
C857 C858 1.379 . S
C858 H842 0.931 . S
C858 C852 1.383 . S
C858 C857 1.379 . S
H859 C853 0.959 1_455 S
H860 C853 0.961 . S
H861 C853 0.960 . S
H862 C854 0.930 . S
H863 C855 0.929 . S
H864 C872 0.929 . S
H865 C874 0.930 . S
H866 C876 0.930 . S
H867 C879 0.929 . S
H868 C882 0.930 . S
H869 C884 0.960 . S
H870 C884 0.960 . S
H871 C884 0.960 . S
C872 H864 0.929 . S
C872 C873 1.377 . S
C872 C874 1.384 . S
C873 C872 1.377 . S
C873 C879 1.390 . S
C874 H865 0.930 . S
C874 C872 1.384 . S
C874 C875 1.372 . S
C875 C874 1.372 . S
C875 C876 1.400 . S
C875 C880 1.490 . S
C876 H866 0.930 . S
C876 C875 1.400 . S
C876 C879 1.386 . S
H877 C893 0.930 . S
H878 C894 0.931 . S
C879 H867 0.929 . S
C879 C873 1.390 . S
C879 C876 1.386 . S
C880 C875 1.490 . S
C880 C882 1.395 . S
C880 C883 1.403 . S
H881 C887 0.930 . S
C882 H868 0.930 . S
C882 C880 1.395 . S
C882 C885 1.403 . S
C883 C880 1.403 . S
C883 C884 1.524 . S
C883 C887 1.400 . S
C884 H869 0.960 . S
C884 H870 0.960 . S
C884 H871 0.960 . S
C884 C883 1.524 . S
C885 C882 1.403 . S
C885 C886 1.392 . S
C885 C889 1.495 . S
C886 C885 1.392 . S
C886 C887 1.385 . S
C886 C888 1.478 . S
C887 H881 0.930 . S
C887 C883 1.400 . S
C887 C886 1.385 . S
C888 C886 1.478 . S
C888 C890 1.381 . S
C888 C894 1.383 . S
C889 C885 1.495 . S
C889 H895 0.959 . S
C889 H896 0.961 . S
C889 H897 0.960 . S
C890 C888 1.381 . S
C890 C891 1.394 . S
C890 H898 0.930 . S
C891 C890 1.394 . S
C891 C892 1.383 . S
C891 H899 0.929 . S
C892 C891 1.383 . S
C892 C893 1.377 . S
C893 H877 0.930 . S
C893 C892 1.377 . S
C893 C894 1.379 . S
C894 H878 0.931 . S
C894 C888 1.383 . S
C894 C893 1.379 . S
H895 C889 0.959 . S
H896 C889 0.961 . S
H897 C889 0.960 . S
H898 C890 0.930 . S
H899 C891 0.929 . S
H900 C908 0.929 . S
H901 C910 0.930 . S
H902 C912 0.930 . S
H903 C915 0.929 . S
H904 C918 0.930 . S
H905 C920 0.960 . S
H906 C920 0.960 . S
H907 C920 0.960 . S
C908 H900 0.929 . S
C908 C909 1.377 . S
C908 C910 1.384 . S
C909 C908 1.377 . S
C909 C915 1.390 . S
C910 H901 0.930 . S
C910 C908 1.384 . S
C910 C911 1.372 . S
C911 C910 1.372 . S
C911 C912 1.400 . S
C911 C916 1.490 . S
C912 H902 0.930 . S
C912 C911 1.400 . S
C912 C915 1.386 . S
H913 C929 0.930 . S
H914 C930 0.931 . S
C915 H903 0.929 . S
C915 C909 1.390 . S
C915 C912 1.386 . S
C916 C911 1.490 . S
C916 C918 1.395 . S
C916 C919 1.403 . S
H917 C923 0.930 . S
C918 H904 0.930 . S
C918 C916 1.395 . S
C918 C921 1.403 . S
C919 C916 1.403 . S
C919 C920 1.524 . S
C919 C923 1.400 . S
C920 H905 0.960 . S
C920 H906 0.960 . S
C920 H907 0.960 . S
C920 C919 1.524 . S
C921 C918 1.403 . S
C921 C922 1.392 . S
C921 C925 1.495 . S
C922 C921 1.392 . S
C922 C923 1.385 . S
C922 C924 1.478 . S
C923 H917 0.930 . S
C923 C919 1.400 . S
C923 C922 1.385 . S
C924 C922 1.478 . S
C924 C926 1.381 . S
C924 C930 1.383 . S
C925 C921 1.495 . S
C925 H931 0.959 . S
C925 H932 0.961 . S
C925 H933 0.960 . S
C926 C924 1.381 . S
C926 C927 1.394 . S
C926 H934 0.930 . S
C927 C926 1.394 . S
C927 C928 1.383 . S
C927 H935 0.929 . S
C928 C927 1.383 . S
C928 C929 1.377 . S
C929 H913 0.930 . S
C929 C928 1.377 . S
C929 C930 1.379 . S
C930 H914 0.931 . S
C930 C924 1.383 . S
C930 C929 1.379 . S
H931 C925 0.959 . S
H932 C925 0.961 . S
H933 C925 0.960 . S
H934 C926 0.930 . S
H935 C927 0.929 . S
H936 C944 0.929 . S
H937 C946 0.930 . S
H938 C948 0.930 . S
H939 C951 0.929 . S
H940 C954 0.930 . S
H941 C956 0.960 . S
H942 C956 0.960 . S
H943 C956 0.960 . S
C944 H936 0.929 . S
C944 C945 1.377 . S
C944 C946 1.384 . S
C945 C944 1.377 . S
C945 C951 1.390 . S
C946 H937 0.930 . S
C946 C944 1.384 . S
C946 C947 1.372 . S
C947 C946 1.372 . S
C947 C948 1.400 . S
C947 C952 1.490 . S
C948 H938 0.930 . S
C948 C947 1.400 . S
C948 C951 1.386 . S
H949 C965 0.930 . S
H950 C966 0.931 . S
C951 H939 0.929 . S
C951 C945 1.390 . S
C951 C948 1.386 . S
C952 C947 1.490 . S
C952 C954 1.395 . S
C952 C955 1.403 . S
H953 C959 0.930 . S
C954 H940 0.930 . S
C954 C952 1.395 . S
C954 C957 1.403 . S
C955 C952 1.403 . S
C955 C956 1.524 . S
C955 C959 1.400 . S
C956 H941 0.960 . S
C956 H942 0.960 . S
C956 H943 0.960 . S
C956 C955 1.524 . S
C957 C954 1.403 . S
C957 C958 1.392 . S
C957 C961 1.495 . S
C958 C957 1.392 . S
C958 C959 1.385 . S
C958 C960 1.478 . S
C959 H953 0.930 . S
C959 C955 1.400 . S
C959 C958 1.385 . S
C960 C958 1.478 . S
C960 C962 1.381 . S
C960 C966 1.383 . S
C961 C957 1.495 . S
C961 H967 0.959 . S
C961 H968 0.961 . S
C961 H969 0.960 . S
C962 C960 1.381 . S
C962 C963 1.394 . S
C962 H970 0.930 . S
C963 C962 1.394 . S
C963 C964 1.383 . S
C963 H971 0.929 . S
C964 C963 1.383 . S
C964 C965 1.377 . S
C965 H949 0.930 . S
C965 C964 1.377 . S
C965 C966 1.379 . S
C966 H950 0.931 . S
C966 C960 1.383 . S
C966 C965 1.379 . S
H967 C961 0.959 . S
H968 C961 0.961 . S
H969 C961 0.960 . S
H970 C962 0.930 . S
H971 C963 0.929 . S
H972 C980 0.929 . S
H973 C982 0.930 . S
H974 C984 0.930 . S
H975 C987 0.929 . S
H976 C990 0.930 . S
H977 C992 0.960 . S
H978 C992 0.960 . S
H979 C992 0.960 . S
C980 H972 0.929 . S
C980 C981 1.377 . S
C980 C982 1.384 . S
C981 C980 1.377 . S
C981 C987 1.390 . S
C982 H973 0.930 . S
C982 C980 1.384 . S
C982 C983 1.372 . S
C983 C982 1.372 . S
C983 C984 1.400 . S
C983 C988 1.490 . S
C984 H974 0.930 . S
C984 C983 1.400 . S
C984 C987 1.386 . S
H985 C1001 0.930 . S
H986 C1002 0.931 . S
C987 H975 0.929 . S
C987 C981 1.390 . S
C987 C984 1.386 . S
C988 C983 1.490 . S
C988 C990 1.395 . S
C988 C991 1.403 . S
H989 C995 0.930 . S
C990 H976 0.930 . S
C990 C988 1.395 . S
C990 C993 1.403 . S
C991 C988 1.403 . S
C991 C992 1.524 . S
C991 C995 1.400 . S
C992 H977 0.960 . S
C992 H978 0.960 . S
C992 H979 0.960 . S
C992 C991 1.524 . S
C993 C990 1.403 . S
C993 C994 1.392 . S
C993 C997 1.495 . S
C994 C993 1.392 . S
C994 C995 1.385 . S
C994 C996 1.478 . S
C995 H989 0.930 . S
C995 C991 1.400 . S
C995 C994 1.385 . S
C996 C994 1.478 . S
C996 C998 1.381 . S
C996 C1002 1.383 . S
C997 C993 1.495 . S
C997 H1003 0.959 . S
C997 H1004 0.961 . S
C997 H1005 0.960 . S
C998 C996 1.381 . S
C998 C999 1.394 . S
C998 H1006 0.930 . S
C999 C998 1.394 . S
C999 C1000 1.383 . S
C999 H1007 0.929 . S
C1000 C999 1.383 . S
C1000 C1001 1.377 . S
C1001 H985 0.930 . S
C1001 C1000 1.377 . S
C1001 C1002 1.379 . S
C1002 H986 0.931 . S
C1002 C996 1.383 . S
C1002 C1001 1.379 . S
H1003 C997 0.959 . S
H1004 C997 0.961 . S
H1005 C997 0.960 . S
H1006 C998 0.930 . S
H1007 C999 0.929 . S
H1008 C1016 0.929 . S
H1009 C1018 0.930 . S
H1010 C1020 0.930 . S
H1011 C1023 0.929 . S
H1012 C1026 0.930 . S
H1013 C1028 0.960 . S
H1014 C1028 0.960 . S
H1015 C1028 0.960 . S
C1016 H1008 0.929 . S
C1016 C1017 1.377 . S
C1016 C1018 1.384 . S
C1017 C1016 1.377 . S
C1017 C1023 1.390 . S
C1018 H1009 0.930 . S
C1018 C1016 1.384 . S
C1018 C1019 1.372 . S
C1019 C1018 1.372 . S
C1019 C1020 1.400 . S
C1019 C1024 1.490 . S
C1020 H1010 0.930 . S
C1020 C1019 1.400 . S
C1020 C1023 1.386 . S
H1021 C1037 0.930 . S
H1022 C1038 0.931 . S
C1023 H1011 0.929 . S
C1023 C1017 1.390 . S
C1023 C1020 1.386 . S
C1024 C1019 1.490 . S
C1024 C1026 1.395 . S
C1024 C1027 1.403 . S
H1025 C1031 0.930 . S
C1026 H1012 0.930 . S
C1026 C1024 1.395 . S
C1026 C1029 1.403 . S
C1027 C1024 1.403 . S
C1027 C1028 1.524 . S
C1027 C1031 1.400 . S
C1028 H1013 0.960 . S
C1028 H1014 0.960 . S
C1028 H1015 0.960 . S
C1028 C1027 1.524 . S
C1029 C1026 1.403 . S
C1029 C1030 1.392 . S
C1029 C1033 1.495 . S
C1030 C1029 1.392 . S
C1030 C1031 1.385 . S
C1030 C1032 1.478 . S
C1031 H1025 0.930 . S
C1031 C1027 1.400 . S
C1031 C1030 1.385 . S
C1032 C1030 1.478 . S
C1032 C1034 1.381 . S
C1032 C1038 1.383 . S
C1033 C1029 1.495 . S
C1033 H1039 0.959 . S
C1033 H1040 0.961 . S
C1033 H1041 0.960 . S
C1034 C1032 1.381 . S
C1034 C1035 1.394 . S
C1034 H1042 0.930 . S
C1035 C1034 1.394 . S
C1035 C1036 1.383 . S
C1035 H1043 0.929 . S
C1036 C1035 1.383 . S
C1036 C1037 1.377 . S
C1037 H1021 0.930 . S
C1037 C1036 1.377 . S
C1037 C1038 1.379 . S
C1038 H1022 0.931 . S
C1038 C1032 1.383 . S
C1038 C1037 1.379 . S
H1039 C1033 0.959 . S
H1040 C1033 0.961 . S
H1041 C1033 0.960 . S
H1042 C1034 0.930 . S
H1043 C1035 0.929 . S
H1044 C1052 0.929 . S
H1045 C1054 0.930 . S
H1046 C1056 0.930 . S
H1047 C1059 0.929 . S
H1048 C1062 0.930 . S
H1049 C1064 0.960 . S
H1050 C1064 0.960 . S
H1051 C1064 0.960 . S
C1052 H1044 0.929 . S
C1052 C1053 1.377 . S
C1052 C1054 1.384 . S
C1053 C1052 1.377 . S
C1053 C1059 1.390 . S
C1054 H1045 0.930 . S
C1054 C1052 1.384 . S
C1054 C1055 1.372 . S
C1055 C1054 1.372 . S
C1055 C1056 1.400 . S
C1055 C1060 1.490 . S
C1056 H1046 0.930 . S
C1056 C1055 1.400 . S
C1056 C1059 1.386 . S
H1057 C1073 0.930 . S
H1058 C1074 0.931 . S
C1059 H1047 0.929 . S
C1059 C1053 1.390 . S
C1059 C1056 1.386 . S
C1060 C1055 1.490 . S
C1060 C1062 1.395 . S
C1060 C1063 1.403 . S
H1061 C1067 0.930 . S
C1062 H1048 0.930 . S
C1062 C1060 1.395 . S
C1062 C1065 1.403 . S
C1063 C1060 1.403 . S
C1063 C1064 1.524 . S
C1063 C1067 1.400 . S
C1064 H1049 0.960 . S
C1064 H1050 0.960 . S
C1064 H1051 0.960 . S
C1064 C1063 1.524 . S
C1065 C1062 1.403 . S
C1065 C1066 1.392 . S
C1065 C1069 1.495 . S
C1066 C1065 1.392 . S
C1066 C1067 1.385 . S
C1066 C1068 1.478 . S
C1067 H1061 0.930 . S
C1067 C1063 1.400 . S
C1067 C1066 1.385 . S
C1068 C1066 1.478 . S
C1068 C1070 1.381 . S
C1068 C1074 1.383 . S
C1069 C1065 1.495 . S
C1069 H1075 0.959 . S
C1069 H1076 0.961 . S
C1069 H1077 0.960 . S
C1070 C1068 1.381 . S
C1070 C1071 1.394 . S
C1070 H1078 0.930 . S
C1071 C1070 1.394 . S
C1071 C1072 1.383 . S
C1071 H1079 0.929 . S
C1072 C1071 1.383 . S
C1072 C1073 1.377 . S
C1073 H1057 0.930 . S
C1073 C1072 1.377 . S
C1073 C1074 1.379 . S
C1074 H1058 0.931 . S
C1074 C1068 1.383 . S
C1074 C1073 1.379 . S
H1075 C1069 0.959 . S
H1076 C1069 0.961 . S
H1077 C1069 0.960 . S
H1078 C1070 0.930 . S
H1079 C1071 0.929 . S
H1080 C1088 0.929 . S
H1081 C1090 0.930 . S
H1082 C1092 0.930 . S
H1083 C1095 0.929 . S
H1084 C1098 0.930 . S
H1085 C1100 0.960 . S
H1086 C1100 0.960 . S
H1087 C1100 0.960 . S
C1088 H1080 0.929 . S
C1088 C1089 1.377 . S
C1088 C1090 1.384 . S
C1089 C1088 1.377 . S
C1089 C1095 1.390 . S
C1090 H1081 0.930 . S
C1090 C1088 1.384 . S
C1090 C1091 1.372 . S
C1091 C1090 1.372 . S
C1091 C1092 1.400 . S
C1091 C1096 1.490 . S
C1092 H1082 0.930 . S
C1092 C1091 1.400 . S
C1092 C1095 1.386 . S
H1093 C1109 0.930 . S
H1094 C1110 0.931 . S
C1095 H1083 0.929 . S
C1095 C1089 1.390 . S
C1095 C1092 1.386 . S
C1096 C1091 1.490 . S
C1096 C1098 1.395 . S
C1096 C1099 1.403 . S
H1097 C1103 0.930 . S
C1098 H1084 0.930 . S
C1098 C1096 1.395 . S
C1098 C1101 1.403 . S
C1099 C1096 1.403 . S
C1099 C1100 1.524 . S
C1099 C1103 1.400 . S
C1100 H1085 0.960 . S
C1100 H1086 0.960 . S
C1100 H1087 0.960 . S
C1100 C1099 1.524 . S
C1101 C1098 1.403 . S
C1101 C1102 1.392 . S
C1101 C1105 1.495 . S
C1102 C1101 1.392 . S
C1102 C1103 1.385 . S
C1102 C1104 1.478 . S
C1103 H1097 0.930 . S
C1103 C1099 1.400 . S
C1103 C1102 1.385 . S
C1104 C1102 1.478 . S
C1104 C1106 1.381 . S
C1104 C1110 1.383 . S
C1105 C1101 1.495 . S
C1105 H1111 0.959 . S
C1105 H1112 0.961 . S
C1105 H1113 0.960 . S
C1106 C1104 1.381 . S
C1106 C1107 1.394 . S
C1106 H1114 0.930 . S
C1107 C1106 1.394 . S
C1107 C1108 1.383 . S
C1107 H1115 0.929 . S
C1108 C1107 1.383 . S
C1108 C1109 1.377 . S
C1109 H1093 0.930 . S
C1109 C1108 1.377 . S
C1109 C1110 1.379 . S
C1110 H1094 0.931 . S
C1110 C1104 1.383 . S
C1110 C1109 1.379 . S
H1111 C1105 0.959 . S
H1112 C1105 0.961 . S
H1113 C1105 0.960 . S
H1114 C1106 0.930 . S
H1115 C1107 0.929 . S
H1116 C1124 0.929 . S
H1117 C1126 0.930 . S
H1118 C1128 0.930 . S
H1119 C1131 0.929 . S
H1120 C1134 0.930 . S
H1121 C1136 0.960 . S
H1122 C1136 0.960 . S
H1123 C1136 0.960 . S
C1124 H1116 0.929 . S
C1124 C1125 1.377 . S
C1124 C1126 1.384 . S
C1125 C1124 1.377 . S
C1125 C1131 1.390 . S
C1126 H1117 0.930 . S
C1126 C1124 1.384 . S
C1126 C1127 1.372 . S
C1127 C1126 1.372 . S
C1127 C1128 1.400 . S
C1127 C1132 1.490 . S
C1128 H1118 0.930 . S
C1128 C1127 1.400 . S
C1128 C1131 1.386 . S
H1129 C1145 0.930 . S
H1130 C1146 0.931 . S
C1131 H1119 0.929 . S
C1131 C1125 1.390 . S
C1131 C1128 1.386 . S
C1132 C1127 1.490 . S
C1132 C1134 1.395 . S
C1132 C1135 1.403 . S
H1133 C1139 0.930 . S
C1134 H1120 0.930 . S
C1134 C1132 1.395 . S
C1134 C1137 1.403 . S
C1135 C1132 1.403 . S
C1135 C1136 1.524 . S
C1135 C1139 1.400 . S
C1136 H1121 0.960 . S
C1136 H1122 0.960 . S
C1136 H1123 0.960 . S
C1136 C1135 1.524 . S
C1137 C1134 1.403 . S
C1137 C1138 1.392 . S
C1137 C1141 1.495 . S
C1138 C1137 1.392 . S
C1138 C1139 1.385 . S
C1138 C1140 1.478 . S
C1139 H1133 0.930 . S
C1139 C1135 1.400 . S
C1139 C1138 1.385 . S
C1140 C1138 1.478 . S
C1140 C1142 1.381 . S
C1140 C1146 1.383 . S
C1141 C1137 1.495 . S
C1141 H1147 0.959 . S
C1141 H1148 0.961 . S
C1141 H1149 0.960 . S
C1142 C1140 1.381 . S
C1142 C1143 1.394 . S
C1142 H1150 0.930 . S
C1143 C1142 1.394 . S
C1143 C1144 1.383 . S
C1143 H1151 0.929 . S
C1144 C1143 1.383 . S
C1144 C1145 1.377 . S
C1145 H1129 0.930 . S
C1145 C1144 1.377 . S
C1145 C1146 1.379 . S
C1146 H1130 0.931 . S
C1146 C1140 1.383 . S
C1146 C1145 1.379 . S
H1147 C1141 0.959 . S
H1148 C1141 0.961 . S
H1149 C1141 0.960 . S
H1150 C1142 0.930 . S
H1151 C1143 0.929 . S
H1152 C1160 0.929 . S
H1153 C1162 0.930 . S
H1154 C1164 0.930 . S
H1155 C1167 0.929 . S
H1156 C1170 0.930 . S
H1157 C1172 0.960 . S
H1158 C1172 0.960 . S
H1159 C1172 0.960 . S
C1160 H1152 0.929 . S
C1160 C1161 1.377 . S
C1160 C1162 1.384 . S
C1161 C1160 1.377 . S
C1161 C1167 1.390 . S
C1162 H1153 0.930 . S
C1162 C1160 1.384 . S
C1162 C1163 1.372 . S
C1163 C1162 1.372 . S
C1163 C1164 1.400 . S
C1163 C1168 1.490 . S
C1164 H1154 0.930 . S
C1164 C1163 1.400 . S
C1164 C1167 1.386 . S
H1165 C1181 0.930 . S
H1166 C1182 0.931 . S
C1167 H1155 0.929 . S
C1167 C1161 1.390 . S
C1167 C1164 1.386 . S
C1168 C1163 1.490 . S
C1168 C1170 1.395 . S
C1168 C1171 1.403 . S
H1169 C1175 0.930 . S
C1170 H1156 0.930 . S
C1170 C1168 1.395 . S
C1170 C1173 1.403 . S
C1171 C1168 1.403 . S
C1171 C1172 1.524 . S
C1171 C1175 1.400 . S
C1172 H1157 0.960 . S
C1172 H1158 0.960 . S
C1172 H1159 0.960 . S
C1172 C1171 1.524 . S
C1173 C1170 1.403 . S
C1173 C1174 1.392 . S
C1173 C1177 1.495 . S
C1174 C1173 1.392 . S
C1174 C1175 1.385 . S
C1174 C1176 1.478 . S
C1175 H1169 0.930 . S
C1175 C1171 1.400 . S
C1175 C1174 1.385 . S
C1176 C1174 1.478 . S
C1176 C1178 1.381 . S
C1176 C1182 1.383 . S
C1177 C1173 1.495 . S
C1177 H1183 0.959 . S
C1177 H1184 0.961 . S
C1177 H1185 0.960 . S
C1178 C1176 1.381 . S
C1178 C1179 1.394 . S
C1178 H1186 0.930 . S
C1179 C1178 1.394 . S
C1179 C1180 1.383 . S
C1179 H1187 0.929 . S
C1180 C1179 1.383 . S
C1180 C1181 1.377 . S
C1181 H1165 0.930 . S
C1181 C1180 1.377 . S
C1181 C1182 1.379 . S
C1182 H1166 0.931 . S
C1182 C1176 1.383 . S
C1182 C1181 1.379 . S
H1183 C1177 0.959 . S
H1184 C1177 0.961 . S
H1185 C1177 0.960 . S
H1186 C1178 0.930 . S
H1187 C1179 0.929 . S
H1188 C1196 0.929 . S
H1189 C1198 0.930 . S
H1190 C1200 0.930 . S
H1191 C1203 0.929 . S
H1192 C1206 0.930 . S
H1193 C1208 0.960 . S
H1194 C1208 0.960 . S
H1195 C1208 0.960 . S
C1196 H1188 0.929 . S
C1196 C1197 1.377 . S
C1196 C1198 1.384 . S
C1197 C1196 1.377 . S
C1197 C1203 1.390 . S
C1198 H1189 0.930 . S
C1198 C1196 1.384 . S
C1198 C1199 1.372 . S
C1199 C1198 1.372 . S
C1199 C1200 1.400 . S
C1199 C1204 1.490 . S
C1200 H1190 0.930 . S
C1200 C1199 1.400 . S
C1200 C1203 1.386 . S
H1201 C1217 0.930 . S
H1202 C1218 0.931 . S
C1203 H1191 0.929 . S
C1203 C1197 1.390 . S
C1203 C1200 1.386 . S
C1204 C1199 1.490 . S
C1204 C1206 1.395 . S
C1204 C1207 1.403 . S
H1205 C1211 0.930 . S
C1206 H1192 0.930 . S
C1206 C1204 1.395 . S
C1206 C1209 1.403 . S
C1207 C1204 1.403 . S
C1207 C1208 1.524 . S
C1207 C1211 1.400 . S
C1208 H1193 0.960 . S
C1208 H1194 0.960 . S
C1208 H1195 0.960 . S
C1208 C1207 1.524 . S
C1209 C1206 1.403 . S
C1209 C1210 1.392 . S
C1209 C1213 1.495 . S
C1210 C1209 1.392 . S
C1210 C1211 1.385 . S
C1210 C1212 1.478 . S
C1211 H1205 0.930 . S
C1211 C1207 1.400 . S
C1211 C1210 1.385 . S
C1212 C1210 1.478 . S
C1212 C1214 1.381 . S
C1212 C1218 1.383 . S
C1213 C1209 1.495 . S
C1213 H1219 0.959 . S
C1213 H1220 0.961 . S
C1213 H1221 0.960 . S
C1214 C1212 1.381 . S
C1214 C1215 1.394 . S
C1214 H1222 0.930 . S
C1215 C1214 1.394 . S
C1215 C1216 1.383 . S
C1215 H1223 0.929 . S
C1216 C1215 1.383 . S
C1216 C1217 1.377 . S
C1217 H1201 0.930 . S
C1217 C1216 1.377 . S
C1217 C1218 1.379 . S
C1218 H1202 0.931 . S
C1218 C1212 1.383 . S
C1218 C1217 1.379 . S
H1219 C1213 0.959 . S
H1220 C1213 0.961 . S
H1221 C1213 0.960 . S
H1222 C1214 0.930 . S
H1223 C1215 0.929 . S
H1224 C1232 0.929 1_554 S
H1225 C1234 0.873 1_554 S
H1226 C1236 0.930 . S
H1227 C1239 0.929 . S
H1228 C1242 0.969 . S
H1229 C1244 0.960 . S
H1230 C1244 0.960 . S
H1231 C1244 0.960 . S
C1232 H1224 0.929 1_556 S
C1232 C1233 1.377 . S
C1232 C1234 1.387 . S
C1233 C1232 1.377 . S
C1233 C1239 1.390 . S
C1234 H1225 0.873 1_556 S
C1234 C1232 1.387 . S
C1234 C1235 1.430 . S
C1235 C1234 1.430 . S
C1235 C1236 1.400 . S
C1235 C1240 1.490 . S
C1236 H1226 0.930 . S
C1236 C1235 1.400 . S
C1236 C1239 1.386 . S
H1237 C1253 0.930 . S
H1238 C1254 0.931 . S
C1239 H1227 0.929 . S
C1239 C1233 1.390 . S
C1239 C1236 1.386 . S
C1240 C1235 1.490 . S
C1240 C1242 1.354 1_556 S
C1240 C1243 1.403 . S
H1241 C1247 0.930 . S
C1242 H1228 0.969 . S
C1242 C1240 1.354 1_554 S
C1242 C1245 1.408 . S
C1243 C1240 1.403 . S
C1243 C1244 1.524 . S
C1243 C1247 1.400 . S
C1244 H1229 0.960 . S
C1244 H1230 0.960 . S
C1244 H1231 0.960 . S
C1244 C1243 1.524 . S
C1245 C1242 1.408 . S
C1245 C1246 1.392 1_554 S
C1245 C1249 1.495 . S
C1246 C1245 1.392 1_556 S
C1246 C1247 1.385 . S
C1246 C1248 1.478 . S
C1247 H1241 0.930 . S
C1247 C1243 1.400 . S
C1247 C1246 1.385 . S
C1248 C1246 1.478 . S
C1248 C1250 1.406 . S
C1248 C1254 1.383 . S
C1249 C1245 1.495 . S
C1249 H1255 0.959 . S
C1249 H1256 0.961 . S
C1249 H1257 0.960 . S
C1250 C1248 1.406 . S
C1250 C1251 1.397 . S
C1250 H1258 0.903 1_556 S
C1251 C1250 1.397 . S
C1251 C1252 1.383 . S
C1251 H1259 0.929 1_556 S
C1252 C1251 1.383 . S
C1252 C1253 1.377 . S
C1253 H1237 0.930 . S
C1253 C1252 1.377 . S
C1253 C1254 1.379 . S
C1254 H1238 0.931 . S
C1254 C1248 1.383 . S
C1254 C1253 1.379 . S
H1255 C1249 0.959 . S
H1256 C1249 0.961 . S
H1257 C1249 0.960 . S
H1258 C1250 0.903 1_554 S
H1259 C1251 0.929 1_554 S
H1260 C1268 0.878 1_554 S
H1261 C1270 0.903 1_554 S
H1262 C1272 0.930 . S
H1263 C1275 0.929 . S
H1264 C1278 0.930 . S
H1265 C1280 0.960 . S
H1266 C1280 0.960 . S
H1267 C1280 0.960 . S
C1268 H1260 0.878 1_556 S
C1268 C1269 1.431 . S
C1268 C1270 1.383 . S
C1269 C1268 1.431 . S
C1269 C1275 1.390 . S
C1270 H1261 0.903 1_556 S
C1270 C1268 1.383 . S
C1270 C1271 1.398 . S
C1271 C1270 1.398 . S
C1271 C1272 1.400 . S
C1271 C1276 1.490 . S
C1272 H1262 0.930 . S
C1272 C1271 1.400 . S
C1272 C1275 1.386 . S
H1273 C1289 0.930 . S
H1274 C1290 0.931 . S
C1275 H1263 0.929 . S
C1275 C1269 1.390 . S
C1275 C1272 1.386 . S
C1276 C1271 1.490 . S
C1276 C1278 1.395 . S
C1276 C1279 1.403 . S
H1277 C1283 0.930 . S
C1278 H1264 0.930 . S
C1278 C1276 1.395 . S
C1278 C1281 1.403 . S
C1279 C1276 1.403 . S
C1279 C1280 1.524 . S
C1279 C1283 1.400 . S
C1280 H1265 0.960 . S
C1280 H1266 0.960 . S
C1280 H1267 0.960 . S
C1280 C1279 1.524 . S
C1281 C1278 1.403 . S
C1281 C1282 1.392 . S
C1281 C1285 1.495 . S
C1282 C1281 1.392 . S
C1282 C1283 1.385 . S
C1282 C1284 1.478 . S
C1283 H1277 0.930 . S
C1283 C1279 1.400 . S
C1283 C1282 1.385 . S
C1284 C1282 1.478 . S
C1284 C1286 1.363 1_556 S
C1284 C1290 1.383 . S
C1285 C1281 1.495 . S
C1285 H1291 0.959 . S
C1285 H1292 0.961 . S
C1285 H1293 1.011 . S
C1286 C1284 1.363 1_554 S
C1286 C1287 1.394 . S
C1286 H1294 0.948 . S
C1287 C1286 1.394 . S
C1287 C1288 1.359 1_554 S
C1287 H1295 0.954 . S
C1288 C1287 1.359 1_556 S
C1288 C1289 1.377 . S
C1289 H1273 0.930 . S
C1289 C1288 1.377 . S
C1289 C1290 1.379 . S
C1290 H1274 0.931 . S
C1290 C1284 1.383 . S
C1290 C1289 1.379 . S
H1291 C1285 0.959 . S
H1292 C1285 0.961 . S
H1293 C1285 1.011 . S
H1294 C1286 0.948 . S
H1295 C1287 0.954 . S
H1296 C1304 0.929 . S
H1297 C1306 0.930 . S
H1298 C1308 0.930 . S
H1299 C1311 0.929 . S
H1300 C1314 0.930 . S
H1301 C1316 0.960 . S
H1302 C1316 0.960 . S
H1303 C1316 0.960 . S
C1304 H1296 0.929 . S
C1304 C1305 1.377 . S
C1304 C1306 1.384 . S
C1305 C1304 1.377 . S
C1305 C1311 1.390 . S
C1306 H1297 0.930 . S
C1306 C1304 1.384 . S
C1306 C1307 1.372 . S
C1307 C1306 1.372 . S
C1307 C1308 1.400 . S
C1307 C1312 1.490 . S
C1308 H1298 0.930 . S
C1308 C1307 1.400 . S
C1308 C1311 1.386 . S
H1309 C1325 0.911 1_554 S
H1310 C1326 0.931 1_554 S
C1311 H1299 0.929 . S
C1311 C1305 1.390 . S
C1311 C1308 1.386 . S
C1312 C1307 1.490 . S
C1312 C1314 1.395 . S
C1312 C1315 1.403 . S
H1313 C1319 0.930 . S
C1314 H1300 0.930 . S
C1314 C1312 1.395 . S
C1314 C1317 1.403 . S
C1315 C1312 1.403 . S
C1315 C1316 1.524 . S
C1315 C1319 1.400 . S
C1316 H1301 0.960 . S
C1316 H1302 0.960 . S
C1316 H1303 0.960 . S
C1316 C1315 1.524 . S
C1317 C1314 1.403 . S
C1317 C1318 1.392 . S
C1317 C1321 1.495 1_556 S
C1318 C1317 1.392 . S
C1318 C1319 1.385 . S
C1318 C1320 1.478 . S
C1319 H1313 0.930 . S
C1319 C1315 1.400 . S
C1319 C1318 1.385 . S
C1320 C1318 1.478 . S
C1320 C1322 1.381 . S
C1320 C1326 1.383 . S
C1321 C1317 1.495 1_554 S
C1321 H1327 0.959 . S
C1321 H1328 0.961 . S
C1321 H1329 0.960 1_554 S
C1322 C1320 1.381 . S
C1322 C1323 1.394 . S
C1322 H1330 0.930 . S
C1323 C1322 1.394 . S
C1323 C1324 1.383 . S
C1323 H1331 0.929 . S
C1324 C1323 1.383 . S
C1324 C1325 1.377 . S
C1325 H1309 0.911 1_556 S
C1325 C1324 1.377 . S
C1325 C1326 1.379 . S
C1326 H1310 0.931 1_556 S
C1326 C1320 1.383 . S
C1326 C1325 1.379 . S
H1327 C1321 0.959 . S
H1328 C1321 0.961 . S
H1329 C1321 0.960 1_556 S
H1330 C1322 0.930 . S
H1331 C1323 0.929 . S
H1332 C1340 0.929 . S
H1333 C1342 0.930 . S
H1334 C1344 0.930 . S
H1335 C1347 0.929 . S
H1336 C1350 0.930 . S
H1337 C1352 0.960 . S
H1338 C1352 0.960 . S
H1339 C1352 0.960 . S
C1340 H1332 0.929 . S
C1340 C1341 1.377 . S
C1340 C1342 1.384 . S
C1341 C1340 1.377 . S
C1341 C1347 1.390 . S
C1342 H1333 0.930 . S
C1342 C1340 1.384 . S
C1342 C1343 1.372 . S
C1343 C1342 1.372 . S
C1343 C1344 1.400 . S
C1343 C1348 1.490 . S
C1344 H1334 0.930 . S
C1344 C1343 1.400 . S
C1344 C1347 1.386 . S
H1345 C1361 0.930 . S
H1346 C1362 0.931 . S
C1347 H1335 0.929 . S
C1347 C1341 1.390 . S
C1347 C1344 1.386 . S
C1348 C1343 1.490 . S
C1348 C1350 1.395 . S
C1348 C1351 1.403 . S
H1349 C1355 0.930 . S
C1350 H1336 0.930 . S
C1350 C1348 1.395 . S
C1350 C1353 1.403 . S
C1351 C1348 1.403 . S
C1351 C1352 1.524 . S
C1351 C1355 1.400 . S
C1352 H1337 0.960 . S
C1352 H1338 0.960 . S
C1352 H1339 0.960 . S
C1352 C1351 1.524 . S
C1353 C1350 1.403 . S
C1353 C1354 1.392 . S
C1353 C1357 1.495 . S
C1354 C1353 1.392 . S
C1354 C1355 1.385 . S
C1354 C1356 1.478 . S
C1355 H1349 0.930 . S
C1355 C1351 1.400 . S
C1355 C1354 1.385 . S
C1356 C1354 1.478 . S
C1356 C1358 1.381 . S
C1356 C1362 1.383 . S
C1357 C1353 1.495 . S
C1357 H1363 0.959 . S
C1357 H1364 0.961 . S
C1357 H1365 0.960 . S
C1358 C1356 1.381 . S
C1358 C1359 1.394 . S
C1358 H1366 0.930 . S
C1359 C1358 1.394 . S
C1359 C1360 1.383 . S
C1359 H1367 0.929 . S
C1360 C1359 1.383 . S
C1360 C1361 1.377 . S
C1361 H1345 0.930 . S
C1361 C1360 1.377 . S
C1361 C1362 1.379 . S
C1362 H1346 0.931 . S
C1362 C1356 1.383 . S
C1362 C1361 1.379 . S
H1363 C1357 0.959 . S
H1364 C1357 0.961 . S
H1365 C1357 0.960 . S
H1366 C1358 0.930 . S
H1367 C1359 0.929 . S
H1368 C1376 0.929 . S
H1369 C1378 0.930 . S
H1370 C1380 0.930 . S
H1371 C1383 0.929 . S
H1372 C1386 0.930 . S
H1373 C1388 0.960 . S
H1374 C1388 0.960 . S
H1375 C1388 0.960 . S
C1376 H1368 0.929 . S
C1376 C1377 1.377 . S
C1376 C1378 1.384 . S
C1377 C1376 1.377 . S
C1377 C1383 1.390 . S
C1378 H1369 0.930 . S
C1378 C1376 1.384 . S
C1378 C1379 1.372 . S
C1379 C1378 1.372 . S
C1379 C1380 1.400 . S
C1379 C1384 1.490 . S
C1380 H1370 0.930 . S
C1380 C1379 1.400 . S
C1380 C1383 1.386 . S
H1381 C1397 0.930 . S
H1382 C1398 0.931 . S
C1383 H1371 0.929 . S
C1383 C1377 1.390 . S
C1383 C1380 1.386 . S
C1384 C1379 1.490 . S
C1384 C1386 1.395 . S
C1384 C1387 1.403 . S
H1385 C1391 0.930 . S
C1386 H1372 0.930 . S
C1386 C1384 1.395 . S
C1386 C1389 1.403 . S
C1387 C1384 1.403 . S
C1387 C1388 1.524 . S
C1387 C1391 1.400 . S
C1388 H1373 0.960 . S
C1388 H1374 0.960 . S
C1388 H1375 0.960 . S
C1388 C1387 1.524 . S
C1389 C1386 1.403 . S
C1389 C1390 1.392 . S
C1389 C1393 1.495 . S
C1390 C1389 1.392 . S
C1390 C1391 1.385 . S
C1390 C1392 1.478 . S
C1391 H1385 0.930 . S
C1391 C1387 1.400 . S
C1391 C1390 1.385 . S
C1392 C1390 1.478 . S
C1392 C1394 1.381 . S
C1392 C1398 1.383 . S
C1393 C1389 1.495 . S
C1393 H1399 0.959 . S
C1393 H1400 0.961 . S
C1393 H1401 0.960 . S
C1394 C1392 1.381 . S
C1394 C1395 1.394 . S
C1394 H1402 0.930 . S
C1395 C1394 1.394 . S
C1395 C1396 1.383 . S
C1395 H1403 0.929 . S
C1396 C1395 1.383 . S
C1396 C1397 1.377 . S
C1397 H1381 0.930 . S
C1397 C1396 1.377 . S
C1397 C1398 1.379 . S
C1398 H1382 0.931 . S
C1398 C1392 1.383 . S
C1398 C1397 1.379 . S
H1399 C1393 0.959 . S
H1400 C1393 0.961 . S
H1401 C1393 0.960 . S
H1402 C1394 0.930 . S
H1403 C1395 0.929 . S
H1404 C1412 0.929 . S
H1405 C1414 0.930 . S
H1406 C1416 0.930 . S
H1407 C1419 0.929 . S
H1408 C1422 0.930 . S
H1409 C1424 0.960 . S
H1410 C1424 0.960 . S
H1411 C1424 0.960 . S
C1412 H1404 0.929 . S
C1412 C1413 1.377 . S
C1412 C1414 1.384 . S
C1413 C1412 1.377 . S
C1413 C1419 1.390 . S
C1414 H1405 0.930 . S
C1414 C1412 1.384 . S
C1414 C1415 1.372 . S
C1415 C1414 1.372 . S
C1415 C1416 1.400 . S
C1415 C1420 1.490 . S
C1416 H1406 0.930 . S
C1416 C1415 1.400 . S
C1416 C1419 1.386 . S
H1417 C1433 0.930 . S
H1418 C1434 0.931 . S
C1419 H1407 0.929 . S
C1419 C1413 1.390 . S
C1419 C1416 1.386 . S
C1420 C1415 1.490 . S
C1420 C1422 1.395 . S
C1420 C1423 1.403 . S
H1421 C1427 0.930 . S
C1422 H1408 0.930 . S
C1422 C1420 1.395 . S
C1422 C1425 1.403 . S
C1423 C1420 1.403 . S
C1423 C1424 1.524 . S
C1423 C1427 1.400 . S
C1424 H1409 0.960 . S
C1424 H1410 0.960 . S
C1424 H1411 0.960 . S
C1424 C1423 1.524 . S
C1425 C1422 1.403 . S
C1425 C1426 1.392 . S
C1425 C1429 1.495 . S
C1426 C1425 1.392 . S
C1426 C1427 1.385 . S
C1426 C1428 1.478 . S
C1427 H1421 0.930 . S
C1427 C1423 1.400 . S
C1427 C1426 1.385 . S
C1428 C1426 1.478 . S
C1428 C1430 1.381 . S
C1428 C1434 1.383 . S
C1429 C1425 1.495 . S
C1429 H1435 0.959 . S
C1429 H1436 0.961 . S
C1429 H1437 0.960 . S
C1430 C1428 1.381 . S
C1430 C1431 1.394 . S
C1430 H1438 0.930 . S
C1431 C1430 1.394 . S
C1431 C1432 1.383 . S
C1431 H1439 0.929 . S
C1432 C1431 1.383 . S
C1432 C1433 1.377 . S
C1433 H1417 0.930 . S
C1433 C1432 1.377 . S
C1433 C1434 1.379 . S
C1434 H1418 0.931 . S
C1434 C1428 1.383 . S
C1434 C1433 1.379 . S
H1435 C1429 0.959 . S
H1436 C1429 0.961 . S
H1437 C1429 0.960 . S
H1438 C1430 0.930 . S
H1439 C1431 0.929 . S
H1440 C1448 0.929 . S
H1441 C1450 0.930 . S
H1442 C1452 0.933 1_556 S
H1443 C1455 0.950 . S
H1444 C1458 0.930 . S
H1445 C1460 0.960 . S
H1446 C1460 0.964 1_554 S
H1447 C1460 0.960 . S
C1448 H1440 0.929 . S
C1448 C1449 1.377 . S
C1448 C1450 1.384 . S
C1449 C1448 1.377 . S
C1449 C1455 1.370 1_554 S
C1450 H1441 0.930 . S
C1450 C1448 1.384 . S
C1450 C1451 1.372 . S
C1451 C1450 1.372 . S
C1451 C1452 1.397 . S
C1451 C1456 1.490 . S
C1452 H1442 0.933 1_554 S
C1452 C1451 1.397 . S
C1452 C1455 1.385 1_554 S
H1453 C1469 0.930 1_556 S
H1454 C1470 0.931 1_556 S
C1455 H1443 0.950 . S
C1455 C1449 1.370 1_556 S
C1455 C1452 1.385 1_556 S
C1456 C1451 1.490 . S
C1456 C1458 1.395 . S
C1456 C1459 1.403 . S
H1457 C1463 0.916 1_556 S
C1458 H1444 0.930 . S
C1458 C1456 1.395 . S
C1458 C1461 1.403 . S
C1459 C1456 1.403 . S
C1459 C1460 1.524 1_554 S
C1459 C1463 1.400 . S
C1460 H1445 0.960 . S
C1460 H1446 0.964 1_556 S
C1460 H1447 0.960 . S
C1460 C1459 1.524 1_556 S
C1461 C1458 1.403 . S
C1461 C1462 1.392 . S
C1461 C1465 1.495 . S
C1462 C1461 1.392 . S
C1462 C1463 1.385 . S
C1462 C1464 1.478 . S
C1463 H1457 0.916 1_554 S
C1463 C1459 1.400 . S
C1463 C1462 1.385 . S
C1464 C1462 1.478 . S
C1464 C1466 1.381 . S
C1464 C1470 1.383 . S
C1465 C1461 1.495 . S
C1465 H1471 0.959 . S
C1465 H1472 0.961 . S
C1465 H1473 0.960 . S
C1466 C1464 1.381 . S
C1466 C1467 1.394 . S
C1466 H1474 0.930 . S
C1467 C1466 1.394 . S
C1467 C1468 1.383 . S
C1467 H1475 0.929 . S
C1468 C1467 1.383 . S
C1468 C1469 1.377 . S
C1469 H1453 0.930 1_554 S
C1469 C1468 1.377 . S
C1469 C1470 1.379 . S
C1470 H1454 0.931 1_554 S
C1470 C1464 1.383 . S
C1470 C1469 1.379 . S
H1471 C1465 0.959 . S
H1472 C1465 0.961 . S
H1473 C1465 0.960 . S
H1474 C1466 0.930 . S
H1475 C1467 0.929 . S
H1476 C1484 0.929 . S
H1477 C1486 0.930 . S
H1478 C1488 0.930 . S
H1479 C1491 0.929 . S
H1480 C1494 0.930 1_556 S
H1481 C1496 0.960 . S
H1482 C1496 0.960 . S
H1483 C1496 0.960 . S
C1484 H1476 0.929 . S
C1484 C1485 1.377 . S
C1484 C1486 1.384 . S
C1485 C1484 1.377 . S
C1485 C1491 1.390 . S
C1486 H1477 0.930 . S
C1486 C1484 1.384 . S
C1486 C1487 1.372 . S
C1487 C1486 1.372 . S
C1487 C1488 1.400 . S
C1487 C1492 1.490 . S
C1488 H1478 0.930 . S
C1488 C1487 1.400 . S
C1488 C1491 1.386 . S
H1489 C1505 0.930 . S
H1490 C1506 0.931 . S
C1491 H1479 0.929 . S
C1491 C1485 1.390 . S
C1491 C1488 1.386 . S
C1492 C1487 1.490 . S
C1492 C1494 1.395 . S
C1492 C1495 1.403 . S
H1493 C1499 0.930 . S
C1494 H1480 0.930 1_554 S
C1494 C1492 1.395 . S
C1494 C1497 1.403 . S
C1495 C1492 1.403 . S
C1495 C1496 1.524 . S
C1495 C1499 1.400 . S
C1496 H1481 0.960 . S
C1496 H1482 0.960 . S
C1496 H1483 0.960 . S
C1496 C1495 1.524 . S
C1497 C1494 1.403 . S
C1497 C1498 1.392 . S
C1497 C1501 1.495 1_554 S
C1498 C1497 1.392 . S
C1498 C1499 1.385 . S
C1498 C1500 1.478 . S
C1499 H1493 0.930 . S
C1499 C1495 1.400 . S
C1499 C1498 1.385 . S
C1500 C1498 1.478 . S
C1500 C1502 1.381 . S
C1500 C1506 1.383 . S
C1501 C1497 1.495 1_556 S
C1501 H1507 0.959 . S
C1501 H1508 0.961 . S
C1501 H1509 0.960 . S
C1502 C1500 1.381 . S
C1502 C1503 1.394 . S
C1502 H1510 0.930 . S
C1503 C1502 1.394 . S
C1503 C1504 1.383 . S
C1503 H1511 0.929 . S
C1504 C1503 1.383 . S
C1504 C1505 1.377 . S
C1505 H1489 0.930 . S
C1505 C1504 1.377 . S
C1505 C1506 1.379 . S
C1506 H1490 0.931 . S
C1506 C1500 1.383 . S
C1506 C1505 1.379 . S
H1507 C1501 0.959 . S
H1508 C1501 0.961 . S
H1509 C1501 0.960 . S
H1510 C1502 0.930 . S
H1511 C1503 0.929 . S
H1512 C1520 0.929 1_556 S
H1513 C1522 0.930 1_556 S
H1514 C1524 0.930 . S
H1515 C1527 0.929 . S
H1516 C1530 0.988 . S
H1517 C1532 0.960 . S
H1518 C1532 0.960 . S
H1519 C1532 0.960 . S
C1520 H1512 0.929 1_554 S
C1520 C1521 1.377 . S
C1520 C1522 1.384 . S
C1521 C1520 1.377 . S
C1521 C1527 1.390 . S
C1522 H1513 0.930 1_554 S
C1522 C1520 1.384 . S
C1522 C1523 1.372 . S
C1523 C1522 1.372 . S
C1523 C1524 1.400 . S
C1523 C1528 1.490 . S
C1524 H1514 0.930 . S
C1524 C1523 1.400 . S
C1524 C1527 1.386 . S
H1525 C1541 0.930 . S
H1526 C1542 0.931 . S
C1527 H1515 0.929 . S
C1527 C1521 1.390 . S
C1527 C1524 1.386 . S
C1528 C1523 1.490 . S
C1528 C1530 1.335 1_554 S
C1528 C1531 1.403 . S
H1529 C1535 0.930 . S
C1530 H1516 0.988 . S
C1530 C1528 1.335 1_556 S
C1530 C1533 1.410 . S
C1531 C1528 1.403 . S
C1531 C1532 1.524 . S
C1531 C1535 1.400 . S
C1532 H1517 0.960 . S
C1532 H1518 0.960 . S
C1532 H1519 0.960 . S
C1532 C1531 1.524 . S
C1533 C1530 1.410 . S
C1533 C1534 1.392 1_556 S
C1533 C1537 1.495 . S
C1534 C1533 1.392 1_554 S
C1534 C1535 1.385 . S
C1534 C1536 1.478 . S
C1535 H1529 0.930 . S
C1535 C1531 1.400 . S
C1535 C1534 1.385 . S
C1536 C1534 1.478 . S
C1536 C1538 1.423 . S
C1536 C1542 1.383 . S
C1537 C1533 1.495 . S
C1537 H1543 0.959 . S
C1537 H1544 0.961 . S
C1537 H1545 0.960 . S
C1538 C1536 1.423 . S
C1538 C1539 1.400 . S
C1538 H1546 0.885 1_554 S
C1539 C1538 1.400 . S
C1539 C1540 1.383 . S
C1539 H1547 0.929 1_554 S
C1540 C1539 1.383 . S
C1540 C1541 1.377 . S
C1541 H1525 0.930 . S
C1541 C1540 1.377 . S
C1541 C1542 1.379 . S
C1542 H1526 0.931 . S
C1542 C1536 1.383 . S
C1542 C1541 1.379 . S
H1543 C1537 0.959 . S
H1544 C1537 0.961 . S
H1545 C1537 0.960 . S
H1546 C1538 0.885 1_556 S
H1547 C1539 0.929 1_556 S
H1548 C1556 0.929 . S
H1549 C1558 0.930 . S
H1550 C1560 0.930 . S
H1551 C1563 0.929 . S
H1552 C1566 0.930 . S
H1553 C1568 0.960 . S
H1554 C1568 0.960 . S
H1555 C1568 0.960 . S
C1556 H1548 0.929 . S
C1556 C1557 1.377 . S
C1556 C1558 1.384 . S
C1557 C1556 1.377 . S
C1557 C1563 1.390 . S
C1558 H1549 0.930 . S
C1558 C1556 1.384 . S
C1558 C1559 1.372 . S
C1559 C1558 1.372 . S
C1559 C1560 1.400 . S
C1559 C1564 1.490 . S
C1560 H1550 0.930 . S
C1560 C1559 1.400 . S
C1560 C1563 1.386 . S
H1561 C1577 0.930 . S
H1562 C1578 0.931 . S
C1563 H1551 0.929 . S
C1563 C1557 1.390 . S
C1563 C1560 1.386 . S
C1564 C1559 1.490 . S
C1564 C1566 1.395 . S
C1564 C1567 1.403 . S
H1565 C1571 0.930 . S
C1566 H1552 0.930 . S
C1566 C1564 1.395 . S
C1566 C1569 1.403 . S
C1567 C1564 1.403 . S
C1567 C1568 1.524 . S
C1567 C1571 1.400 . S
C1568 H1553 0.960 . S
C1568 H1554 0.960 . S
C1568 H1555 0.960 . S
C1568 C1567 1.524 . S
C1569 C1566 1.403 . S
C1569 C1570 1.392 . S
C1569 C1573 1.495 . S
C1570 C1569 1.392 . S
C1570 C1571 1.385 . S
C1570 C1572 1.478 . S
C1571 H1565 0.930 . S
C1571 C1567 1.400 . S
C1571 C1570 1.385 . S
C1572 C1570 1.478 . S
C1572 C1574 1.381 . S
C1572 C1578 1.383 . S
C1573 C1569 1.495 . S
C1573 H1579 0.959 . S
C1573 H1580 0.961 . S
C1573 H1581 0.960 . S
C1574 C1572 1.381 . S
C1574 C1575 1.394 . S
C1574 H1582 0.930 . S
C1575 C1574 1.394 . S
C1575 C1576 1.383 . S
C1575 H1583 0.929 . S
C1576 C1575 1.383 . S
C1576 C1577 1.377 . S
C1577 H1561 0.930 . S
C1577 C1576 1.377 . S
C1577 C1578 1.379 . S
C1578 H1562 0.931 . S
C1578 C1572 1.383 . S
C1578 C1577 1.379 . S
H1579 C1573 0.959 . S
H1580 C1573 0.961 . S
H1581 C1573 0.960 . S
H1582 C1574 0.930 . S
H1583 C1575 0.929 . S
H1584 C1592 0.929 . S
H1585 C1594 0.930 . S
H1586 C1596 0.930 . S
H1587 C1599 0.929 . S
H1588 C1602 0.930 . S
H1589 C1604 0.960 . S
H1590 C1604 0.960 . S
H1591 C1604 0.960 . S
C1592 H1584 0.929 . S
C1592 C1593 1.377 . S
C1592 C1594 1.384 . S
C1593 C1592 1.377 . S
C1593 C1599 1.390 . S
C1594 H1585 0.930 . S
C1594 C1592 1.384 . S
C1594 C1595 1.372 . S
C1595 C1594 1.372 . S
C1595 C1596 1.400 . S
C1595 C1600 1.490 . S
C1596 H1586 0.930 . S
C1596 C1595 1.400 . S
C1596 C1599 1.386 . S
H1597 C1613 0.930 . S
H1598 C1614 0.931 . S
C1599 H1587 0.929 . S
C1599 C1593 1.390 . S
C1599 C1596 1.386 . S
C1600 C1595 1.490 . S
C1600 C1602 1.395 . S
C1600 C1603 1.403 . S
H1601 C1607 0.930 . S
C1602 H1588 0.930 . S
C1602 C1600 1.395 . S
C1602 C1605 1.403 . S
C1603 C1600 1.403 . S
C1603 C1604 1.524 . S
C1603 C1607 1.400 . S
C1604 H1589 0.960 . S
C1604 H1590 0.960 . S
C1604 H1591 0.960 . S
C1604 C1603 1.524 . S
C1605 C1602 1.403 . S
C1605 C1606 1.392 . S
C1605 C1609 1.495 . S
C1606 C1605 1.392 . S
C1606 C1607 1.385 . S
C1606 C1608 1.478 . S
C1607 H1601 0.930 . S
C1607 C1603 1.400 . S
C1607 C1606 1.385 . S
C1608 C1606 1.478 . S
C1608 C1610 1.381 . S
C1608 C1614 1.383 . S
C1609 C1605 1.495 . S
C1609 H1615 0.959 . S
C1609 H1616 0.961 . S
C1609 H1617 0.960 . S
C1610 C1608 1.381 . S
C1610 C1611 1.394 . S
C1610 H1618 0.930 . S
C1611 C1610 1.394 . S
C1611 C1612 1.383 . S
C1611 H1619 0.929 . S
C1612 C1611 1.383 . S
C1612 C1613 1.377 . S
C1613 H1597 0.930 . S
C1613 C1612 1.377 . S
C1613 C1614 1.379 . S
C1614 H1598 0.931 . S
C1614 C1608 1.383 . S
C1614 C1613 1.379 . S
H1615 C1609 0.959 . S
H1616 C1609 0.961 . S
H1617 C1609 0.960 . S
H1618 C1610 0.930 . S
H1619 C1611 0.929 . S
H1620 C1628 0.929 . S
H1621 C1630 0.930 . S
H1622 C1632 0.930 . S
H1623 C1635 0.929 . S
H1624 C1638 0.930 . S
H1625 C1640 0.960 . S
H1626 C1640 0.960 . S
H1627 C1640 0.960 . S
C1628 H1620 0.929 . S
C1628 C1629 1.377 . S
C1628 C1630 1.384 . S
C1629 C1628 1.377 . S
C1629 C1635 1.390 . S
C1630 H1621 0.930 . S
C1630 C1628 1.384 . S
C1630 C1631 1.372 . S
C1631 C1630 1.372 . S
C1631 C1632 1.400 . S
C1631 C1636 1.490 . S
C1632 H1622 0.930 . S
C1632 C1631 1.400 . S
C1632 C1635 1.386 . S
H1633 C1649 0.930 . S
H1634 C1650 0.931 . S
C1635 H1623 0.929 . S
C1635 C1629 1.390 . S
C1635 C1632 1.386 . S
C1636 C1631 1.490 . S
C1636 C1638 1.395 . S
C1636 C1639 1.403 . S
H1637 C1643 0.930 . S
C1638 H1624 0.930 . S
C1638 C1636 1.395 . S
C1638 C1641 1.403 . S
C1639 C1636 1.403 . S
C1639 C1640 1.524 . S
C1639 C1643 1.400 . S
C1640 H1625 0.960 . S
C1640 H1626 0.960 . S
C1640 H1627 0.960 . S
C1640 C1639 1.524 . S
C1641 C1638 1.403 . S
C1641 C1642 1.392 . S
C1641 C1645 1.495 . S
C1642 C1641 1.392 . S
C1642 C1643 1.385 . S
C1642 C1644 1.478 . S
C1643 H1637 0.930 . S
C1643 C1639 1.400 . S
C1643 C1642 1.385 . S
C1644 C1642 1.478 . S
C1644 C1646 1.381 . S
C1644 C1650 1.383 . S
C1645 C1641 1.495 . S
C1645 H1651 0.959 . S
C1645 H1652 0.961 . S
C1645 H1653 0.960 . S
C1646 C1644 1.381 . S
C1646 C1647 1.394 . S
C1646 H1654 0.930 . S
C1647 C1646 1.394 . S
C1647 C1648 1.383 . S
C1647 H1655 0.929 . S
C1648 C1647 1.383 . S
C1648 C1649 1.377 . S
C1649 H1633 0.930 . S
C1649 C1648 1.377 . S
C1649 C1650 1.379 . S
C1650 H1634 0.931 . S
C1650 C1644 1.383 . S
C1650 C1649 1.379 . S
H1651 C1645 0.959 . S
H1652 C1645 0.961 . S
H1653 C1645 0.960 . S
H1654 C1646 0.930 . S
H1655 C1647 0.929 . S
H1656 C1664 0.929 . S
H1657 C1666 0.930 . S
H1658 C1668 0.930 . S
H1659 C1671 0.929 . S
H1660 C1674 0.930 . S
H1661 C1676 0.960 . S
H1662 C1676 0.960 . S
H1663 C1676 0.960 . S
C1664 H1656 0.929 . S
C1664 C1665 1.377 . S
C1664 C1666 1.384 . S
C1665 C1664 1.377 . S
C1665 C1671 1.390 . S
C1666 H1657 0.930 . S
C1666 C1664 1.384 . S
C1666 C1667 1.372 . S
C1667 C1666 1.372 . S
C1667 C1668 1.400 . S
C1667 C1672 1.490 . S
C1668 H1658 0.930 . S
C1668 C1667 1.400 . S
C1668 C1671 1.386 . S
H1669 C1685 0.930 . S
H1670 C1686 0.931 . S
C1671 H1659 0.929 . S
C1671 C1665 1.390 . S
C1671 C1668 1.386 . S
C1672 C1667 1.490 . S
C1672 C1674 1.395 . S
C1672 C1675 1.403 . S
H1673 C1679 0.930 . S
C1674 H1660 0.930 . S
C1674 C1672 1.395 . S
C1674 C1677 1.403 . S
C1675 C1672 1.403 . S
C1675 C1676 1.524 . S
C1675 C1679 1.400 . S
C1676 H1661 0.960 . S
C1676 H1662 0.960 . S
C1676 H1663 0.960 . S
C1676 C1675 1.524 . S
C1677 C1674 1.403 . S
C1677 C1678 1.392 . S
C1677 C1681 1.495 . S
C1678 C1677 1.392 . S
C1678 C1679 1.385 . S
C1678 C1680 1.478 . S
C1679 H1673 0.930 . S
C1679 C1675 1.400 . S
C1679 C1678 1.385 . S
C1680 C1678 1.478 . S
C1680 C1682 1.381 . S
C1680 C1686 1.383 . S
C1681 C1677 1.495 . S
C1681 H1687 0.959 . S
C1681 H1688 0.961 . S
C1681 H1689 0.960 . S
C1682 C1680 1.381 . S
C1682 C1683 1.394 . S
C1682 H1690 0.930 . S
C1683 C1682 1.394 . S
C1683 C1684 1.383 . S
C1683 H1691 0.929 . S
C1684 C1683 1.383 . S
C1684 C1685 1.377 . S
C1685 H1669 0.930 . S
C1685 C1684 1.377 . S
C1685 C1686 1.379 . S
C1686 H1670 0.931 . S
C1686 C1680 1.383 . S
C1686 C1685 1.379 . S
H1687 C1681 0.959 . S
H1688 C1681 0.961 . S
H1689 C1681 0.960 . S
H1690 C1682 0.930 . S
H1691 C1683 0.929 . S
H1692 C1700 0.929 . S
H1693 C1702 0.930 . S
H1694 C1704 0.930 . S
H1695 C1707 0.929 . S
H1696 C1710 0.930 . S
H1697 C1712 0.960 . S
H1698 C1712 0.960 . S
H1699 C1712 0.960 . S
C1700 H1692 0.929 . S
C1700 C1701 1.377 . S
C1700 C1702 1.384 . S
C1701 C1700 1.377 . S
C1701 C1707 1.390 . S
C1702 H1693 0.930 . S
C1702 C1700 1.384 . S
C1702 C1703 1.372 . S
C1703 C1702 1.372 . S
C1703 C1704 1.400 . S
C1703 C1708 1.490 . S
C1704 H1694 0.930 . S
C1704 C1703 1.400 . S
C1704 C1707 1.386 . S
H1705 C1721 0.930 . S
H1706 C1722 0.931 . S
C1707 H1695 0.929 . S
C1707 C1701 1.390 . S
C1707 C1704 1.386 . S
C1708 C1703 1.490 . S
C1708 C1710 1.395 . S
C1708 C1711 1.403 . S
H1709 C1715 0.930 . S
C1710 H1696 0.930 . S
C1710 C1708 1.395 . S
C1710 C1713 1.403 . S
C1711 C1708 1.403 . S
C1711 C1712 1.524 . S
C1711 C1715 1.400 . S
C1712 H1697 0.960 . S
C1712 H1698 0.960 . S
C1712 H1699 0.960 . S
C1712 C1711 1.524 . S
C1713 C1710 1.403 . S
C1713 C1714 1.392 . S
C1713 C1717 1.495 . S
C1714 C1713 1.392 . S
C1714 C1715 1.385 . S
C1714 C1716 1.478 . S
C1715 H1709 0.930 . S
C1715 C1711 1.400 . S
C1715 C1714 1.385 . S
C1716 C1714 1.478 . S
C1716 C1718 1.381 . S
C1716 C1722 1.383 . S
C1717 C1713 1.495 . S
C1717 H1723 0.959 . S
C1717 H1724 0.961 . S
C1717 H1725 0.960 . S
C1718 C1716 1.381 . S
C1718 C1719 1.394 . S
C1718 H1726 0.930 . S
C1719 C1718 1.394 . S
C1719 C1720 1.383 . S
C1719 H1727 0.929 . S
C1720 C1719 1.383 . S
C1720 C1721 1.377 . S
C1721 H1705 0.930 . S
C1721 C1720 1.377 . S
C1721 C1722 1.379 . S
C1722 H1706 0.931 . S
C1722 C1716 1.383 . S
C1722 C1721 1.379 . S
H1723 C1717 0.959 . S
H1724 C1717 0.961 . S
H1725 C1717 0.960 . S
H1726 C1718 0.930 . S
H1727 C1719 0.929 . S
H1728 C1736 0.929 . S
H1729 C1738 0.930 . S
H1730 C1740 0.930 . S
H1731 C1743 0.929 . S
H1732 C1746 0.930 . S
H1733 C1748 0.960 . S
H1734 C1748 0.960 . S
H1735 C1748 0.960 . S
C1736 H1728 0.929 . S
C1736 C1737 1.377 . S
C1736 C1738 1.384 . S
C1737 C1736 1.377 . S
C1737 C1743 1.390 . S
C1738 H1729 0.930 . S
C1738 C1736 1.384 . S
C1738 C1739 1.372 . S
C1739 C1738 1.372 . S
C1739 C1740 1.400 . S
C1739 C1744 1.490 . S
C1740 H1730 0.930 . S
C1740 C1739 1.400 . S
C1740 C1743 1.386 . S
H1741 C1757 0.930 . S
H1742 C1758 0.931 . S
C1743 H1731 0.929 . S
C1743 C1737 1.390 . S
C1743 C1740 1.386 . S
C1744 C1739 1.490 . S
C1744 C1746 1.395 . S
C1744 C1747 1.403 . S
H1745 C1751 0.930 . S
C1746 H1732 0.930 . S
C1746 C1744 1.395 . S
C1746 C1749 1.403 . S
C1747 C1744 1.403 . S
C1747 C1748 1.524 . S
C1747 C1751 1.400 . S
C1748 H1733 0.960 . S
C1748 H1734 0.960 . S
C1748 H1735 0.960 . S
C1748 C1747 1.524 . S
C1749 C1746 1.403 . S
C1749 C1750 1.392 . S
C1749 C1753 1.495 . S
C1750 C1749 1.392 . S
C1750 C1751 1.385 . S
C1750 C1752 1.478 . S
C1751 H1745 0.930 . S
C1751 C1747 1.400 . S
C1751 C1750 1.385 . S
C1752 C1750 1.478 . S
C1752 C1754 1.381 . S
C1752 C1758 1.383 . S
C1753 C1749 1.495 . S
C1753 H1759 0.959 . S
C1753 H1760 0.961 . S
C1753 H1761 0.960 . S
C1754 C1752 1.381 . S
C1754 C1755 1.394 . S
C1754 H1762 0.930 . S
C1755 C1754 1.394 . S
C1755 C1756 1.383 . S
C1755 H1763 0.929 . S
C1756 C1755 1.383 . S
C1756 C1757 1.377 . S
C1757 H1741 0.930 . S
C1757 C1756 1.377 . S
C1757 C1758 1.379 . S
C1758 H1742 0.931 . S
C1758 C1752 1.383 . S
C1758 C1757 1.379 . S
H1759 C1753 0.959 . S
H1760 C1753 0.961 . S
H1761 C1753 0.960 . S
H1762 C1754 0.930 . S
H1763 C1755 0.929 . S
H1764 C1772 0.929 . S
H1765 C1774 0.930 . S
H1766 C1776 0.930 . S
H1767 C1779 0.929 . S
H1768 C1782 0.930 . S
H1769 C1784 0.960 . S
H1770 C1784 0.960 . S
H1771 C1784 0.960 . S
C1772 H1764 0.929 . S
C1772 C1773 1.377 . S
C1772 C1774 1.384 . S
C1773 C1772 1.377 . S
C1773 C1779 1.390 . S
C1774 H1765 0.930 . S
C1774 C1772 1.384 . S
C1774 C1775 1.372 . S
C1775 C1774 1.372 . S
C1775 C1776 1.400 . S
C1775 C1780 1.490 . S
C1776 H1766 0.930 . S
C1776 C1775 1.400 . S
C1776 C1779 1.386 . S
H1777 C1793 0.930 . S
H1778 C1794 0.931 . S
C1779 H1767 0.929 . S
C1779 C1773 1.390 . S
C1779 C1776 1.386 . S
C1780 C1775 1.490 . S
C1780 C1782 1.395 . S
C1780 C1783 1.403 . S
H1781 C1787 0.930 . S
C1782 H1768 0.930 . S
C1782 C1780 1.395 . S
C1782 C1785 1.403 . S
C1783 C1780 1.403 . S
C1783 C1784 1.524 . S
C1783 C1787 1.400 . S
C1784 H1769 0.960 . S
C1784 H1770 0.960 . S
C1784 H1771 0.960 . S
C1784 C1783 1.524 . S
C1785 C1782 1.403 . S
C1785 C1786 1.392 . S
C1785 C1789 1.495 . S
C1786 C1785 1.392 . S
C1786 C1787 1.385 . S
C1786 C1788 1.478 . S
C1787 H1781 0.930 . S
C1787 C1783 1.400 . S
C1787 C1786 1.385 . S
C1788 C1786 1.478 . S
C1788 C1790 1.381 . S
C1788 C1794 1.383 . S
C1789 C1785 1.495 . S
C1789 H1795 0.959 . S
C1789 H1796 0.961 . S
C1789 H1797 0.960 . S
C1790 C1788 1.381 . S
C1790 C1791 1.394 . S
C1790 H1798 0.930 . S
C1791 C1790 1.394 . S
C1791 C1792 1.383 . S
C1791 H1799 0.929 . S
C1792 C1791 1.383 . S
C1792 C1793 1.377 . S
C1793 H1777 0.930 . S
C1793 C1792 1.377 . S
C1793 C1794 1.379 . S
C1794 H1778 0.931 . S
C1794 C1788 1.383 . S
C1794 C1793 1.379 . S
H1795 C1789 0.959 . S
H1796 C1789 0.961 . S
H1797 C1789 0.960 . S
H1798 C1790 0.930 . S
H1799 C1791 0.929 . S
H1800 C1808 0.929 . S
H1801 C1810 0.930 . S
H1802 C1812 0.930 . S
H1803 C1815 0.929 . S
H1804 C1818 0.930 . S
H1805 C1820 0.960 . S
H1806 C1820 0.960 . S
H1807 C1820 0.960 . S
C1808 H1800 0.929 . S
C1808 C1809 1.377 1_565 S
C1808 C1810 1.384 . S
C1809 C1808 1.377 1_545 S
C1809 C1815 1.390 . S
C1810 H1801 0.930 . S
C1810 C1808 1.384 . S
C1810 C1811 1.372 1_565 S
C1811 C1810 1.372 1_545 S
C1811 C1812 1.400 . S
C1811 C1816 1.490 . S
C1812 H1802 0.930 . S
C1812 C1811 1.400 . S
C1812 C1815 1.386 . S
H1813 C1829 0.930 . S
H1814 C1830 0.931 . S
C1815 H1803 0.929 . S
C1815 C1809 1.390 . S
C1815 C1812 1.386 . S
C1816 C1811 1.490 . S
C1816 C1818 1.395 1_545 S
C1816 C1819 1.403 . S
H1817 C1823 0.930 . S
C1818 H1804 0.930 . S
C1818 C1816 1.395 1_565 S
C1818 C1821 1.403 . S
C1819 C1816 1.403 . S
C1819 C1820 1.524 . S
C1819 C1823 1.400 . S
C1820 H1805 0.960 . S
C1820 H1806 0.960 . S
C1820 H1807 0.960 . S
C1820 C1819 1.524 . S
C1821 C1818 1.403 . S
C1821 C1822 1.392 . S
C1821 C1825 1.495 . S
C1822 C1821 1.392 . S
C1822 C1823 1.385 1_565 S
C1822 C1824 1.478 . S
C1823 H1817 0.930 . S
C1823 C1819 1.400 . S
C1823 C1822 1.385 1_545 S
C1824 C1822 1.478 . S
C1824 C1826 1.381 . S
C1824 C1830 1.383 1_565 S
C1825 C1821 1.495 . S
C1825 H1831 0.959 . S
C1825 H1832 0.961 . S
C1825 H1833 0.960 . S
C1826 C1824 1.381 . S
C1826 C1827 1.394 . S
C1826 H1834 0.930 . S
C1827 C1826 1.394 . S
C1827 C1828 1.383 . S
C1827 H1835 0.929 . S
C1828 C1827 1.383 . S
C1828 C1829 1.377 1_565 S
C1829 H1813 0.930 . S
C1829 C1828 1.377 1_545 S
C1829 C1830 1.379 . S
C1830 H1814 0.931 . S
C1830 C1824 1.383 1_545 S
C1830 C1829 1.379 . S
H1831 C1825 0.959 . S
H1832 C1825 0.961 . S
H1833 C1825 0.960 . S
H1834 C1826 0.930 . S
H1835 C1827 0.929 . S
H1836 C1844 0.929 . S
H1837 C1846 0.930 . S
H1838 C1848 0.930 . S
H1839 C1851 0.929 . S
H1840 C1854 0.930 . S
H1841 C1856 0.960 . S
H1842 C1856 0.960 . S
H1843 C1856 0.960 . S
C1844 H1836 0.929 . S
C1844 C1845 1.377 1_655 S
C1844 C1846 1.384 . S
C1845 C1844 1.377 1_455 S
C1845 C1851 1.390 . S
C1846 H1837 0.930 . S
C1846 C1844 1.384 . S
C1846 C1847 1.372 1_655 S
C1847 C1846 1.372 1_455 S
C1847 C1848 1.400 . S
C1847 C1852 1.486 1_455 S
C1848 H1838 0.930 . S
C1848 C1847 1.400 . S
C1848 C1851 1.386 . S
H1849 C1865 0.930 1_455 S
H1850 C1866 0.931 1_455 S
C1851 H1839 0.929 . S
C1851 C1845 1.390 . S
C1851 C1848 1.386 . S
C1852 C1847 1.486 1_655 S
C1852 C1854 1.423 . S
C1852 C1855 1.379 1_655 S
H1853 C1859 0.930 . S
C1854 H1840 0.930 . S
C1854 C1852 1.423 . S
C1854 C1857 1.403 . S
C1855 C1852 1.379 1_455 S
C1855 C1856 1.524 . S
C1855 C1859 1.400 . S
C1856 H1841 0.960 . S
C1856 H1842 0.960 . S
C1856 H1843 0.960 . S
C1856 C1855 1.524 . S
C1857 C1854 1.403 . S
C1857 C1858 1.392 . S
C1857 C1861 1.495 . S
C1858 C1857 1.392 . S
C1858 C1859 1.385 1_655 S
C1858 C1860 1.478 . S
C1859 H1853 0.930 . S
C1859 C1855 1.400 . S
C1859 C1858 1.385 1_455 S
C1860 C1858 1.478 . S
C1860 C1862 1.381 . S
C1860 C1866 1.383 . S
C1861 C1857 1.495 . S
C1861 H1867 0.959 . S
C1861 H1868 0.961 . S
C1861 H1869 0.960 . S
C1862 C1860 1.381 . S
C1862 C1863 1.394 . S
C1862 H1870 0.930 . S
C1863 C1862 1.394 . S
C1863 C1864 1.383 . S
C1863 H1871 0.929 . S
C1864 C1863 1.383 . S
C1864 C1865 1.377 . S
C1865 H1849 0.930 1_655 S
C1865 C1864 1.377 . S
C1865 C1866 1.379 . S
C1866 H1850 0.931 1_655 S
C1866 C1860 1.383 . S
C1866 C1865 1.379 . S
H1867 C1861 0.959 . S
H1868 C1861 0.961 . S
H1869 C1861 0.960 . S
H1870 C1862 0.930 . S
H1871 C1863 0.929 . S
H1872 C1880 0.929 . S
H1873 C1882 0.930 . S
H1874 C1884 0.930 . S
H1875 C1887 0.929 . S
H1876 C1890 0.930 . S
H1877 C1892 0.960 . S
H1878 C1892 0.960 . S
H1879 C1892 0.960 . S
C1880 H1872 0.929 . S
C1880 C1881 1.377 . S
C1880 C1882 1.384 . S
C1881 C1880 1.377 . S
C1881 C1887 1.390 . S
C1882 H1873 0.930 . S
C1882 C1880 1.384 . S
C1882 C1883 1.372 . S
C1883 C1882 1.372 . S
C1883 C1884 1.400 . S
C1883 C1888 1.490 . S
C1884 H1874 0.930 . S
C1884 C1883 1.400 . S
C1884 C1887 1.386 . S
H1885 C1901 0.930 . S
H1886 C1902 0.931 . S
C1887 H1875 0.929 . S
C1887 C1881 1.390 . S
C1887 C1884 1.386 . S
C1888 C1883 1.490 . S
C1888 C1890 1.395 . S
C1888 C1891 1.403 . S
H1889 C1895 0.930 . S
C1890 H1876 0.930 . S
C1890 C1888 1.395 . S
C1890 C1893 1.403 . S
C1891 C1888 1.403 . S
C1891 C1892 1.524 . S
C1891 C1895 1.400 . S
C1892 H1877 0.960 . S
C1892 H1878 0.960 . S
C1892 H1879 0.960 . S
C1892 C1891 1.524 . S
C1893 C1890 1.403 . S
C1893 C1894 1.392 . S
C1893 C1897 1.495 . S
C1894 C1893 1.392 . S
C1894 C1895 1.385 . S
C1894 C1896 1.478 . S
C1895 H1889 0.930 . S
C1895 C1891 1.400 . S
C1895 C1894 1.385 . S
C1896 C1894 1.478 . S
C1896 C1898 1.381 . S
C1896 C1902 1.383 . S
C1897 C1893 1.495 . S
C1897 H1903 0.959 . S
C1897 H1904 0.961 . S
C1897 H1905 0.960 . S
C1898 C1896 1.381 . S
C1898 C1899 1.394 . S
C1898 H1906 0.930 . S
C1899 C1898 1.394 . S
C1899 C1900 1.383 . S
C1899 H1907 0.929 . S
C1900 C1899 1.383 . S
C1900 C1901 1.377 . S
C1901 H1885 0.930 . S
C1901 C1900 1.377 . S
C1901 C1902 1.379 . S
C1902 H1886 0.931 . S
C1902 C1896 1.383 . S
C1902 C1901 1.379 . S
H1903 C1897 0.959 . S
H1904 C1897 0.961 . S
H1905 C1897 0.960 . S
H1906 C1898 0.930 . S
H1907 C1899 0.929 . S
H1908 C1916 0.929 . S
H1909 C1918 0.930 . S
H1910 C1920 0.930 . S
H1911 C1923 0.929 . S
H1912 C1926 0.930 . S
H1913 C1928 0.960 . S
H1914 C1928 0.960 . S
H1915 C1928 0.960 . S
C1916 H1908 0.929 . S
C1916 C1917 1.377 1_545 S
C1916 C1918 1.384 . S
C1917 C1916 1.377 1_565 S
C1917 C1923 1.390 . S
C1918 H1909 0.930 . S
C1918 C1916 1.384 . S
C1918 C1919 1.372 1_545 S
C1919 C1918 1.372 1_565 S
C1919 C1920 1.400 . S
C1919 C1924 1.490 . S
C1920 H1910 0.930 . S
C1920 C1919 1.400 . S
C1920 C1923 1.386 . S
H1921 C1937 0.930 . S
H1922 C1938 0.931 . S
C1923 H1911 0.929 . S
C1923 C1917 1.390 . S
C1923 C1920 1.386 . S
C1924 C1919 1.490 . S
C1924 C1926 1.395 1_565 S
C1924 C1927 1.403 . S
H1925 C1931 0.930 . S
C1926 H1912 0.930 . S
C1926 C1924 1.395 1_545 S
C1926 C1929 1.403 . S
C1927 C1924 1.403 . S
C1927 C1928 1.524 . S
C1927 C1931 1.400 . S
C1928 H1913 0.960 . S
C1928 H1914 0.960 . S
C1928 H1915 0.960 . S
C1928 C1927 1.524 . S
C1929 C1926 1.403 . S
C1929 C1930 1.392 . S
C1929 C1933 1.495 . S
C1930 C1929 1.392 . S
C1930 C1931 1.385 1_545 S
C1930 C1932 1.478 . S
C1931 H1925 0.930 . S
C1931 C1927 1.400 . S
C1931 C1930 1.385 1_565 S
C1932 C1930 1.478 . S
C1932 C1934 1.381 . S
C1932 C1938 1.383 1_545 S
C1933 C1929 1.495 . S
C1933 H1939 0.959 . S
C1933 H1940 0.961 . S
C1933 H1941 0.960 . S
C1934 C1932 1.381 . S
C1934 C1935 1.394 . S
C1934 H1942 0.930 . S
C1935 C1934 1.394 . S
C1935 C1936 1.383 . S
C1935 H1943 0.929 . S
C1936 C1935 1.383 . S
C1936 C1937 1.377 1_545 S
C1937 H1921 0.930 . S
C1937 C1936 1.377 1_565 S
C1937 C1938 1.379 . S
C1938 H1922 0.931 . S
C1938 C1932 1.383 1_565 S
C1938 C1937 1.379 . S
H1939 C1933 0.959 . S
H1940 C1933 0.961 . S
H1941 C1933 0.960 . S
H1942 C1934 0.930 . S
H1943 C1935 0.929 . S
H1944 C1952 0.929 . S
H1945 C1954 0.930 . S
H1946 C1956 0.930 . S
H1947 C1959 0.929 . S
H1948 C1962 0.930 . S
H1949 C1964 0.960 . S
H1950 C1964 0.960 . S
H1951 C1964 0.960 . S
C1952 H1944 0.929 . S
C1952 C1953 1.377 1_455 S
C1952 C1954 1.384 . S
C1953 C1952 1.377 1_655 S
C1953 C1959 1.390 . S
C1954 H1945 0.930 . S
C1954 C1952 1.384 . S
C1954 C1955 1.372 1_455 S
C1955 C1954 1.372 1_655 S
C1955 C1956 1.400 . S
C1955 C1960 1.487 1_655 S
C1956 H1946 0.930 . S
C1956 C1955 1.400 . S
C1956 C1959 1.386 . S
H1957 C1973 0.930 1_655 S
H1958 C1974 0.931 1_655 S
C1959 H1947 0.929 . S
C1959 C1953 1.390 . S
C1959 C1956 1.386 . S
C1960 C1955 1.487 1_455 S
C1960 C1962 1.415 . S
C1960 C1963 1.387 1_455 S
H1961 C1967 0.930 . S
C1962 H1948 0.930 . S
C1962 C1960 1.415 . S
C1962 C1965 1.403 . S
C1963 C1960 1.387 1_655 S
C1963 C1964 1.524 . S
C1963 C1967 1.400 . S
C1964 H1949 0.960 . S
C1964 H1950 0.960 . S
C1964 H1951 0.960 . S
C1964 C1963 1.524 . S
C1965 C1962 1.403 . S
C1965 C1966 1.392 . S
C1965 C1969 1.495 . S
C1966 C1965 1.392 . S
C1966 C1967 1.385 1_455 S
C1966 C1968 1.478 . S
C1967 H1961 0.930 . S
C1967 C1963 1.400 . S
C1967 C1966 1.385 1_655 S
C1968 C1966 1.478 . S
C1968 C1970 1.381 . S
C1968 C1974 1.383 . S
C1969 C1965 1.495 . S
C1969 H1975 0.959 . S
C1969 H1976 0.961 . S
C1969 H1977 0.960 . S
C1970 C1968 1.381 . S
C1970 C1971 1.394 . S
C1970 H1978 0.930 . S
C1971 C1970 1.394 . S
C1971 C1972 1.383 . S
C1971 H1979 0.929 . S
C1972 C1971 1.383 . S
C1972 C1973 1.377 . S
C1973 H1957 0.930 1_455 S
C1973 C1972 1.377 . S
C1973 C1974 1.379 . S
C1974 H1958 0.931 1_455 S
C1974 C1968 1.383 . S
C1974 C1973 1.379 . S
H1975 C1969 0.959 . S
H1976 C1969 0.961 . S
H1977 C1969 0.960 . S
H1978 C1970 0.930 . S
H1979 C1971 0.929 . S
H1980 C1988 0.929 . S
H1981 C1990 0.930 . S
H1982 C1992 0.930 . S
H1983 C1995 0.929 . S
H1984 C1998 0.930 . S
H1985 C2000 0.960 . S
H1986 C2000 0.960 . S
H1987 C2000 0.960 . S
C1988 H1980 0.929 . S
C1988 C1989 1.377 . S
C1988 C1990 1.384 . S
C1989 C1988 1.377 . S
C1989 C1995 1.390 . S
C1990 H1981 0.930 . S
C1990 C1988 1.384 . S
C1990 C1991 1.372 . S
C1991 C1990 1.372 . S
C1991 C1992 1.400 . S
C1991 C1996 1.490 . S
C1992 H1982 0.930 . S
C1992 C1991 1.400 . S
C1992 C1995 1.386 . S
H1993 C2009 0.930 . S
H1994 C2010 0.931 . S
C1995 H1983 0.929 . S
C1995 C1989 1.390 . S
C1995 C1992 1.386 . S
C1996 C1991 1.490 . S
C1996 C1998 1.395 . S
C1996 C1999 1.403 . S
H1997 C2003 0.930 . S
C1998 H1984 0.930 . S
C1998 C1996 1.395 . S
C1998 C2001 1.403 . S
C1999 C1996 1.403 . S
C1999 C2000 1.524 . S
C1999 C2003 1.400 . S
C2000 H1985 0.960 . S
C2000 H1986 0.960 . S
C2000 H1987 0.960 . S
C2000 C1999 1.524 . S
C2001 C1998 1.403 . S
C2001 C2002 1.392 . S
C2001 C2005 1.495 . S
C2002 C2001 1.392 . S
C2002 C2003 1.385 . S
C2002 C2004 1.478 . S
C2003 H1997 0.930 . S
C2003 C1999 1.400 . S
C2003 C2002 1.385 . S
C2004 C2002 1.478 . S
C2004 C2006 1.381 . S
C2004 C2010 1.383 . S
C2005 C2001 1.495 . S
C2005 H2011 0.959 . S
C2005 H2012 0.961 . S
C2005 H2013 0.960 . S
C2006 C2004 1.381 . S
C2006 C2007 1.394 . S
C2006 H2014 0.930 . S
C2007 C2006 1.394 . S
C2007 C2008 1.383 . S
C2007 H2015 0.929 . S
C2008 C2007 1.383 . S
C2008 C2009 1.377 . S
C2009 H1993 0.930 . S
C2009 C2008 1.377 . S
C2009 C2010 1.379 . S
C2010 H1994 0.931 . S
C2010 C2004 1.383 . S
C2010 C2009 1.379 . S
H2011 C2005 0.959 . S
H2012 C2005 0.961 . S
H2013 C2005 0.960 . S
H2014 C2006 0.930 . S
H2015 C2007 0.929 . S
H2016 C2024 0.929 . S
H2017 C2026 0.930 . S
H2018 C2028 0.930 . S
H2019 C2031 0.929 . S
H2020 C2034 0.930 . S
H2021 C2036 0.960 . S
H2022 C2036 0.960 . S
H2023 C2036 0.960 . S
C2024 H2016 0.929 . S
C2024 C2025 1.377 . S
C2024 C2026 1.384 . S
C2025 C2024 1.377 . S
C2025 C2031 1.390 . S
C2026 H2017 0.930 . S
C2026 C2024 1.384 . S
C2026 C2027 1.372 . S
C2027 C2026 1.372 . S
C2027 C2028 1.400 . S
C2027 C2032 1.490 . S
C2028 H2018 0.930 . S
C2028 C2027 1.400 . S
C2028 C2031 1.386 . S
H2029 C2045 0.930 . S
H2030 C2046 0.931 . S
C2031 H2019 0.929 . S
C2031 C2025 1.390 . S
C2031 C2028 1.386 . S
C2032 C2027 1.490 . S
C2032 C2034 1.395 . S
C2032 C2035 1.403 . S
H2033 C2039 0.930 . S
C2034 H2020 0.930 . S
C2034 C2032 1.395 . S
C2034 C2037 1.403 . S
C2035 C2032 1.403 . S
C2035 C2036 1.524 . S
C2035 C2039 1.400 . S
C2036 H2021 0.960 . S
C2036 H2022 0.960 . S
C2036 H2023 0.960 . S
C2036 C2035 1.524 . S
C2037 C2034 1.403 . S
C2037 C2038 1.392 . S
C2037 C2041 1.495 . S
C2038 C2037 1.392 . S
C2038 C2039 1.385 . S
C2038 C2040 1.478 . S
C2039 H2033 0.930 . S
C2039 C2035 1.400 . S
C2039 C2038 1.385 . S
C2040 C2038 1.478 . S
C2040 C2042 1.381 . S
C2040 C2046 1.383 . S
C2041 C2037 1.495 . S
C2041 H2047 0.959 . S
C2041 H2048 0.961 . S
C2041 H2049 0.960 . S
C2042 C2040 1.381 . S
C2042 C2043 1.394 . S
C2042 H2050 0.930 . S
C2043 C2042 1.394 . S
C2043 C2044 1.383 . S
C2043 H2051 0.929 . S
C2044 C2043 1.383 . S
C2044 C2045 1.377 . S
C2045 H2029 0.930 . S
C2045 C2044 1.377 . S
C2045 C2046 1.379 . S
C2046 H2030 0.931 . S
C2046 C2040 1.383 . S
C2046 C2045 1.379 . S
H2047 C2041 0.959 . S
H2048 C2041 0.961 . S
H2049 C2041 0.960 . S
H2050 C2042 0.930 . S
H2051 C2043 0.929 . S
H2052 C2060 0.929 . S
H2053 C2062 0.930 . S
H2054 C2064 0.930 . S
H2055 C2067 0.929 . S
H2056 C2070 0.930 . S
H2057 C2072 0.960 . S
H2058 C2072 0.960 . S
H2059 C2072 0.960 . S
C2060 H2052 0.929 . S
C2060 C2061 1.377 . S
C2060 C2062 1.384 . S
C2061 C2060 1.377 . S
C2061 C2067 1.390 . S
C2062 H2053 0.930 . S
C2062 C2060 1.384 . S
C2062 C2063 1.372 . S
C2063 C2062 1.372 . S
C2063 C2064 1.400 . S
C2063 C2068 1.490 . S
C2064 H2054 0.930 . S
C2064 C2063 1.400 . S
C2064 C2067 1.386 . S
H2065 C2081 0.930 . S
H2066 C2082 0.931 . S
C2067 H2055 0.929 . S
C2067 C2061 1.390 . S
C2067 C2064 1.386 . S
C2068 C2063 1.490 . S
C2068 C2070 1.395 . S
C2068 C2071 1.403 . S
H2069 C2075 0.930 . S
C2070 H2056 0.930 . S
C2070 C2068 1.395 . S
C2070 C2073 1.403 . S
C2071 C2068 1.403 . S
C2071 C2072 1.524 . S
C2071 C2075 1.400 . S
C2072 H2057 0.960 . S
C2072 H2058 0.960 . S
C2072 H2059 0.960 . S
C2072 C2071 1.524 . S
C2073 C2070 1.403 . S
C2073 C2074 1.392 . S
C2073 C2077 1.495 . S
C2074 C2073 1.392 . S
C2074 C2075 1.385 . S
C2074 C2076 1.478 . S
C2075 H2069 0.930 . S
C2075 C2071 1.400 . S
C2075 C2074 1.385 . S
C2076 C2074 1.478 . S
C2076 C2078 1.381 . S
C2076 C2082 1.383 . S
C2077 C2073 1.495 . S
C2077 H2083 0.959 . S
C2077 H2084 0.961 . S
C2077 H2085 0.960 . S
C2078 C2076 1.381 . S
C2078 C2079 1.394 . S
C2078 H2086 0.930 . S
C2079 C2078 1.394 . S
C2079 C2080 1.383 . S
C2079 H2087 0.929 . S
C2080 C2079 1.383 . S
C2080 C2081 1.377 . S
C2081 H2065 0.930 . S
C2081 C2080 1.377 . S
C2081 C2082 1.379 . S
C2082 H2066 0.931 . S
C2082 C2076 1.383 . S
C2082 C2081 1.379 . S
H2083 C2077 0.959 . S
H2084 C2077 0.961 . S
H2085 C2077 0.960 . S
H2086 C2078 0.930 . S
H2087 C2079 0.929 . S
H2088 C2096 0.929 . S
H2089 C2098 0.930 . S
H2090 C2100 0.930 . S
H2091 C2103 0.929 . S
H2092 C2106 0.930 . S
H2093 C2108 0.960 . S
H2094 C2108 0.960 . S
H2095 C2108 0.960 . S
C2096 H2088 0.929 . S
C2096 C2097 1.377 . S
C2096 C2098 1.384 . S
C2097 C2096 1.377 . S
C2097 C2103 1.390 . S
C2098 H2089 0.930 . S
C2098 C2096 1.384 . S
C2098 C2099 1.372 . S
C2099 C2098 1.372 . S
C2099 C2100 1.400 . S
C2099 C2104 1.490 . S
C2100 H2090 0.930 . S
C2100 C2099 1.400 . S
C2100 C2103 1.386 . S
H2101 C2117 0.930 . S
H2102 C2118 0.931 . S
C2103 H2091 0.929 . S
C2103 C2097 1.390 . S
C2103 C2100 1.386 . S
C2104 C2099 1.490 . S
C2104 C2106 1.395 . S
C2104 C2107 1.403 . S
H2105 C2111 0.930 . S
C2106 H2092 0.930 . S
C2106 C2104 1.395 . S
C2106 C2109 1.403 . S
C2107 C2104 1.403 . S
C2107 C2108 1.524 . S
C2107 C2111 1.400 . S
C2108 H2093 0.960 . S
C2108 H2094 0.960 . S
C2108 H2095 0.960 . S
C2108 C2107 1.524 . S
C2109 C2106 1.403 . S
C2109 C2110 1.392 . S
C2109 C2113 1.495 . S
C2110 C2109 1.392 . S
C2110 C2111 1.385 . S
C2110 C2112 1.478 . S
C2111 H2105 0.930 . S
C2111 C2107 1.400 . S
C2111 C2110 1.385 . S
C2112 C2110 1.478 . S
C2112 C2114 1.381 . S
C2112 C2118 1.383 . S
C2113 C2109 1.495 . S
C2113 H2119 0.959 . S
C2113 H2120 0.961 . S
C2113 H2121 0.960 . S
C2114 C2112 1.381 . S
C2114 C2115 1.394 . S
C2114 H2122 0.930 . S
C2115 C2114 1.394 . S
C2115 C2116 1.383 . S
C2115 H2123 0.929 . S
C2116 C2115 1.383 . S
C2116 C2117 1.377 . S
C2117 H2101 0.930 . S
C2117 C2116 1.377 . S
C2117 C2118 1.379 . S
C2118 H2102 0.931 . S
C2118 C2112 1.383 . S
C2118 C2117 1.379 . S
H2119 C2113 0.959 . S
H2120 C2113 0.961 . S
H2121 C2113 0.960 . S
H2122 C2114 0.930 . S
H2123 C2115 0.929 . S
H2124 C2132 0.929 . S
H2125 C2134 0.930 . S
H2126 C2136 0.930 . S
H2127 C2139 0.929 . S
H2128 C2142 0.930 . S
H2129 C2144 0.960 . S
H2130 C2144 0.960 . S
H2131 C2144 0.960 . S
C2132 H2124 0.929 . S
C2132 C2133 1.377 . S
C2132 C2134 1.384 . S
C2133 C2132 1.377 . S
C2133 C2139 1.390 . S
C2134 H2125 0.930 . S
C2134 C2132 1.384 . S
C2134 C2135 1.372 . S
C2135 C2134 1.372 . S
C2135 C2136 1.400 . S
C2135 C2140 1.490 . S
C2136 H2126 0.930 . S
C2136 C2135 1.400 . S
C2136 C2139 1.386 . S
H2137 C2153 0.930 . S
H2138 C2154 0.931 . S
C2139 H2127 0.929 . S
C2139 C2133 1.390 . S
C2139 C2136 1.386 . S
C2140 C2135 1.490 . S
C2140 C2142 1.395 . S
C2140 C2143 1.403 . S
H2141 C2147 0.930 . S
C2142 H2128 0.930 . S
C2142 C2140 1.395 . S
C2142 C2145 1.403 . S
C2143 C2140 1.403 . S
C2143 C2144 1.524 . S
C2143 C2147 1.400 . S
C2144 H2129 0.960 . S
C2144 H2130 0.960 . S
C2144 H2131 0.960 . S
C2144 C2143 1.524 . S
C2145 C2142 1.403 . S
C2145 C2146 1.392 . S
C2145 C2149 1.495 . S
C2146 C2145 1.392 . S
C2146 C2147 1.385 . S
C2146 C2148 1.478 . S
C2147 H2141 0.930 . S
C2147 C2143 1.400 . S
C2147 C2146 1.385 . S
C2148 C2146 1.478 . S
C2148 C2150 1.381 . S
C2148 C2154 1.383 . S
C2149 C2145 1.495 . S
C2149 H2155 0.959 . S
C2149 H2156 0.961 . S
C2149 H2157 0.960 . S
C2150 C2148 1.381 . S
C2150 C2151 1.394 . S
C2150 H2158 0.930 . S
C2151 C2150 1.394 . S
C2151 C2152 1.383 . S
C2151 H2159 0.929 . S
C2152 C2151 1.383 . S
C2152 C2153 1.377 . S
C2153 H2137 0.930 . S
C2153 C2152 1.377 . S
C2153 C2154 1.379 . S
C2154 H2138 0.931 . S
C2154 C2148 1.383 . S
C2154 C2153 1.379 . S
H2155 C2149 0.959 . S
H2156 C2149 0.961 . S
H2157 C2149 0.960 . S
H2158 C2150 0.930 . S
H2159 C2151 0.929 . S
H2160 C2168 0.929 . S
H2161 C2170 0.930 . S
H2162 C2172 0.930 . S
H2163 C2175 0.929 . S
H2164 C2178 0.930 . S
H2165 C2180 0.960 . S
H2166 C2180 0.960 . S
H2167 C2180 0.960 . S
C2168 H2160 0.929 . S
C2168 C2169 1.377 . S
C2168 C2170 1.384 . S
C2169 C2168 1.377 . S
C2169 C2175 1.390 . S
C2170 H2161 0.930 . S
C2170 C2168 1.384 . S
C2170 C2171 1.372 . S
C2171 C2170 1.372 . S
C2171 C2172 1.400 . S
C2171 C2176 1.490 . S
C2172 H2162 0.930 . S
C2172 C2171 1.400 . S
C2172 C2175 1.386 . S
H2173 C2189 0.930 . S
H2174 C2190 0.931 . S
C2175 H2163 0.929 . S
C2175 C2169 1.390 . S
C2175 C2172 1.386 . S
C2176 C2171 1.490 . S
C2176 C2178 1.395 . S
C2176 C2179 1.403 . S
H2177 C2183 0.930 . S
C2178 H2164 0.930 . S
C2178 C2176 1.395 . S
C2178 C2181 1.403 . S
C2179 C2176 1.403 . S
C2179 C2180 1.524 . S
C2179 C2183 1.400 . S
C2180 H2165 0.960 . S
C2180 H2166 0.960 . S
C2180 H2167 0.960 . S
C2180 C2179 1.524 . S
C2181 C2178 1.403 . S
C2181 C2182 1.392 . S
C2181 C2185 1.495 . S
C2182 C2181 1.392 . S
C2182 C2183 1.385 . S
C2182 C2184 1.478 . S
C2183 H2177 0.930 . S
C2183 C2179 1.400 . S
C2183 C2182 1.385 . S
C2184 C2182 1.478 . S
C2184 C2186 1.381 . S
C2184 C2190 1.383 . S
C2185 C2181 1.495 . S
C2185 H2191 0.959 . S
C2185 H2192 0.961 . S
C2185 H2193 0.960 . S
C2186 C2184 1.381 . S
C2186 C2187 1.394 . S
C2186 H2194 0.930 . S
C2187 C2186 1.394 . S
C2187 C2188 1.383 . S
C2187 H2195 0.929 . S
C2188 C2187 1.383 . S
C2188 C2189 1.377 . S
C2189 H2173 0.930 . S
C2189 C2188 1.377 . S
C2189 C2190 1.379 . S
C2190 H2174 0.931 . S
C2190 C2184 1.383 . S
C2190 C2189 1.379 . S
H2191 C2185 0.959 . S
H2192 C2185 0.961 . S
H2193 C2185 0.960 . S
H2194 C2186 0.930 . S
H2195 C2187 0.929 . S
H2196 C2204 0.929 . S
H2197 C2206 0.930 . S
H2198 C2208 0.930 . S
H2199 C2211 0.929 . S
H2200 C2214 0.930 . S
H2201 C2216 0.960 . S
H2202 C2216 0.960 . S
H2203 C2216 0.960 . S
C2204 H2196 0.929 . S
C2204 C2205 1.377 . S
C2204 C2206 1.384 . S
C2205 C2204 1.377 . S
C2205 C2211 1.390 . S
C2206 H2197 0.930 . S
C2206 C2204 1.384 . S
C2206 C2207 1.372 . S
C2207 C2206 1.372 . S
C2207 C2208 1.400 . S
C2207 C2212 1.490 . S
C2208 H2198 0.930 . S
C2208 C2207 1.400 . S
C2208 C2211 1.386 . S
H2209 C2225 0.930 . S
H2210 C2226 0.931 . S
C2211 H2199 0.929 . S
C2211 C2205 1.390 . S
C2211 C2208 1.386 . S
C2212 C2207 1.490 . S
C2212 C2214 1.395 . S
C2212 C2215 1.403 . S
H2213 C2219 0.930 . S
C2214 H2200 0.930 . S
C2214 C2212 1.395 . S
C2214 C2217 1.403 . S
C2215 C2212 1.403 . S
C2215 C2216 1.524 . S
C2215 C2219 1.400 . S
C2216 H2201 0.960 . S
C2216 H2202 0.960 . S
C2216 H2203 0.960 . S
C2216 C2215 1.524 . S
C2217 C2214 1.403 . S
C2217 C2218 1.392 . S
C2217 C2221 1.495 . S
C2218 C2217 1.392 . S
C2218 C2219 1.385 . S
C2218 C2220 1.478 . S
C2219 H2213 0.930 . S
C2219 C2215 1.400 . S
C2219 C2218 1.385 . S
C2220 C2218 1.478 . S
C2220 C2222 1.381 . S
C2220 C2226 1.383 . S
C2221 C2217 1.495 . S
C2221 H2227 0.959 . S
C2221 H2228 0.961 . S
C2221 H2229 0.960 . S
C2222 C2220 1.381 . S
C2222 C2223 1.394 . S
C2222 H2230 0.930 . S
C2223 C2222 1.394 . S
C2223 C2224 1.383 . S
C2223 H2231 0.929 . S
C2224 C2223 1.383 . S
C2224 C2225 1.377 . S
C2225 H2209 0.930 . S
C2225 C2224 1.377 . S
C2225 C2226 1.379 . S
C2226 H2210 0.931 . S
C2226 C2220 1.383 . S
C2226 C2225 1.379 . S
H2227 C2221 0.959 . S
H2228 C2221 0.961 . S
H2229 C2221 0.960 . S
H2230 C2222 0.930 . S
H2231 C2223 0.929 . S
H2232 C2240 0.929 . S
H2233 C2242 0.930 . S
H2234 C2244 0.930 . S
H2235 C2247 0.929 . S
H2236 C2250 0.930 . S
H2237 C2252 0.960 . S
H2238 C2252 0.960 . S
H2239 C2252 0.960 . S
C2240 H2232 0.929 . S
C2240 C2241 1.377 . S
C2240 C2242 1.384 . S
C2241 C2240 1.377 . S
C2241 C2247 1.390 . S
C2242 H2233 0.930 . S
C2242 C2240 1.384 . S
C2242 C2243 1.372 . S
C2243 C2242 1.372 . S
C2243 C2244 1.400 . S
C2243 C2248 1.490 . S
C2244 H2234 0.930 . S
C2244 C2243 1.400 . S
C2244 C2247 1.386 . S
H2245 C2261 0.930 . S
H2246 C2262 0.931 . S
C2247 H2235 0.929 . S
C2247 C2241 1.390 . S
C2247 C2244 1.386 . S
C2248 C2243 1.490 . S
C2248 C2250 1.395 . S
C2248 C2251 1.403 . S
H2249 C2255 0.930 . S
C2250 H2236 0.930 . S
C2250 C2248 1.395 . S
C2250 C2253 1.403 . S
C2251 C2248 1.403 . S
C2251 C2252 1.524 . S
C2251 C2255 1.400 . S
C2252 H2237 0.960 . S
C2252 H2238 0.960 . S
C2252 H2239 0.960 . S
C2252 C2251 1.524 . S
C2253 C2250 1.403 . S
C2253 C2254 1.392 . S
C2253 C2257 1.495 . S
C2254 C2253 1.392 . S
C2254 C2255 1.385 . S
C2254 C2256 1.478 . S
C2255 H2249 0.930 . S
C2255 C2251 1.400 . S
C2255 C2254 1.385 . S
C2256 C2254 1.478 . S
C2256 C2258 1.381 . S
C2256 C2262 1.383 . S
C2257 C2253 1.495 . S
C2257 H2263 0.959 . S
C2257 H2264 0.961 . S
C2257 H2265 0.960 . S
C2258 C2256 1.381 . S
C2258 C2259 1.394 . S
C2258 H2266 0.930 . S
C2259 C2258 1.394 . S
C2259 C2260 1.383 . S
C2259 H2267 0.929 . S
C2260 C2259 1.383 . S
C2260 C2261 1.377 . S
C2261 H2245 0.930 . S
C2261 C2260 1.377 . S
C2261 C2262 1.379 . S
C2262 H2246 0.931 . S
C2262 C2256 1.383 . S
C2262 C2261 1.379 . S
H2263 C2257 0.959 . S
H2264 C2257 0.961 . S
H2265 C2257 0.960 . S
H2266 C2258 0.930 . S
H2267 C2259 0.929 . S
H2268 C2276 0.929 . S
H2269 C2278 0.930 . S
H2270 C2280 0.930 . S
H2271 C2283 0.929 . S
H2272 C2286 0.930 . S
H2273 C2288 0.960 . S
H2274 C2288 0.960 . S
H2275 C2288 0.960 . S
C2276 H2268 0.929 . S
C2276 C2277 1.377 . S
C2276 C2278 1.384 . S
C2277 C2276 1.377 . S
C2277 C2283 1.390 . S
C2278 H2269 0.930 . S
C2278 C2276 1.384 . S
C2278 C2279 1.372 . S
C2279 C2278 1.372 . S
C2279 C2280 1.400 . S
C2279 C2284 1.490 . S
C2280 H2270 0.930 . S
C2280 C2279 1.400 . S
C2280 C2283 1.386 . S
H2281 C2297 0.930 . S
H2282 C2298 0.931 . S
C2283 H2271 0.929 . S
C2283 C2277 1.390 . S
C2283 C2280 1.386 . S
C2284 C2279 1.490 . S
C2284 C2286 1.395 . S
C2284 C2287 1.403 . S
H2285 C2291 0.930 . S
C2286 H2272 0.930 . S
C2286 C2284 1.395 . S
C2286 C2289 1.403 . S
C2287 C2284 1.403 . S
C2287 C2288 1.524 . S
C2287 C2291 1.400 . S
C2288 H2273 0.960 . S
C2288 H2274 0.960 . S
C2288 H2275 0.960 . S
C2288 C2287 1.524 . S
C2289 C2286 1.403 . S
C2289 C2290 1.392 . S
C2289 C2293 1.495 . S
C2290 C2289 1.392 . S
C2290 C2291 1.385 . S
C2290 C2292 1.478 . S
C2291 H2285 0.930 . S
C2291 C2287 1.400 . S
C2291 C2290 1.385 . S
C2292 C2290 1.478 . S
C2292 C2294 1.381 . S
C2292 C2298 1.383 . S
C2293 C2289 1.495 . S
C2293 H2299 0.959 . S
C2293 H2300 0.961 . S
C2293 H2301 0.960 . S
C2294 C2292 1.381 . S
C2294 C2295 1.394 . S
C2294 H2302 0.930 . S
C2295 C2294 1.394 . S
C2295 C2296 1.383 . S
C2295 H2303 0.929 . S
C2296 C2295 1.383 . S
C2296 C2297 1.377 . S
C2297 H2281 0.930 . S
C2297 C2296 1.377 . S
C2297 C2298 1.379 . S
C2298 H2282 0.931 . S
C2298 C2292 1.383 . S
C2298 C2297 1.379 . S
H2299 C2293 0.959 . S
H2300 C2293 0.961 . S
H2301 C2293 0.960 . S
H2302 C2294 0.930 . S
H2303 C2295 0.929 . S
H2304 C2312 0.929 . S
H2305 C2314 0.930 . S
H2306 C2316 0.930 . S
H2307 C2319 0.929 . S
H2308 C2322 0.930 . S
H2309 C2324 0.960 . S
H2310 C2324 0.960 . S
H2311 C2324 0.960 . S
C2312 H2304 0.929 . S
C2312 C2313 1.377 . S
C2312 C2314 1.384 . S
C2313 C2312 1.377 . S
C2313 C2319 1.390 . S
C2314 H2305 0.930 . S
C2314 C2312 1.384 . S
C2314 C2315 1.372 . S
C2315 C2314 1.372 . S
C2315 C2316 1.400 . S
C2315 C2320 1.490 . S
C2316 H2306 0.930 . S
C2316 C2315 1.400 . S
C2316 C2319 1.386 . S
H2317 C2333 0.930 . S
H2318 C2334 0.931 . S
C2319 H2307 0.929 . S
C2319 C2313 1.390 . S
C2319 C2316 1.386 . S
C2320 C2315 1.490 . S
C2320 C2322 1.395 . S
C2320 C2323 1.403 . S
H2321 C2327 0.930 . S
C2322 H2308 0.930 . S
C2322 C2320 1.395 . S
C2322 C2325 1.403 . S
C2323 C2320 1.403 . S
C2323 C2324 1.524 . S
C2323 C2327 1.400 . S
C2324 H2309 0.960 . S
C2324 H2310 0.960 . S
C2324 H2311 0.960 . S
C2324 C2323 1.524 . S
C2325 C2322 1.403 . S
C2325 C2326 1.392 . S
C2325 C2329 1.495 . S
C2326 C2325 1.392 . S
C2326 C2327 1.385 . S
C2326 C2328 1.478 . S
C2327 H2321 0.930 . S
C2327 C2323 1.400 . S
C2327 C2326 1.385 . S
C2328 C2326 1.478 . S
C2328 C2330 1.381 . S
C2328 C2334 1.383 . S
C2329 C2325 1.495 . S
C2329 H2335 0.959 . S
C2329 H2336 0.961 . S
C2329 H2337 0.960 . S
C2330 C2328 1.381 . S
C2330 C2331 1.394 . S
C2330 H2338 0.930 . S
C2331 C2330 1.394 . S
C2331 C2332 1.383 . S
C2331 H2339 0.929 . S
C2332 C2331 1.383 . S
C2332 C2333 1.377 . S
C2333 H2317 0.930 . S
C2333 C2332 1.377 . S
C2333 C2334 1.379 . S
C2334 H2318 0.931 . S
C2334 C2328 1.383 . S
C2334 C2333 1.379 . S
H2335 C2329 0.959 . S
H2336 C2329 0.961 . S
H2337 C2329 0.960 . S
H2338 C2330 0.930 . S
H2339 C2331 0.929 . S
H2340 C2348 0.929 . S
H2341 C2350 0.930 . S
H2342 C2352 0.930 . S
H2343 C2355 0.929 . S
H2344 C2358 0.930 . S
H2345 C2360 0.960 . S
H2346 C2360 0.960 . S
H2347 C2360 0.960 . S
C2348 H2340 0.929 . S
C2348 C2349 1.377 . S
C2348 C2350 1.384 . S
C2349 C2348 1.377 . S
C2349 C2355 1.390 . S
C2350 H2341 0.930 . S
C2350 C2348 1.384 . S
C2350 C2351 1.372 . S
C2351 C2350 1.372 . S
C2351 C2352 1.400 . S
C2351 C2356 1.490 . S
C2352 H2342 0.930 . S
C2352 C2351 1.400 . S
C2352 C2355 1.386 . S
H2353 C2369 0.930 . S
H2354 C2370 0.931 . S
C2355 H2343 0.929 . S
C2355 C2349 1.390 . S
C2355 C2352 1.386 . S
C2356 C2351 1.490 . S
C2356 C2358 1.395 . S
C2356 C2359 1.403 . S
H2357 C2363 0.930 . S
C2358 H2344 0.930 . S
C2358 C2356 1.395 . S
C2358 C2361 1.403 . S
C2359 C2356 1.403 . S
C2359 C2360 1.524 . S
C2359 C2363 1.400 . S
C2360 H2345 0.960 . S
C2360 H2346 0.960 . S
C2360 H2347 0.960 . S
C2360 C2359 1.524 . S
C2361 C2358 1.403 . S
C2361 C2362 1.392 . S
C2361 C2365 1.495 . S
C2362 C2361 1.392 . S
C2362 C2363 1.385 . S
C2362 C2364 1.478 . S
C2363 H2357 0.930 . S
C2363 C2359 1.400 . S
C2363 C2362 1.385 . S
C2364 C2362 1.478 . S
C2364 C2366 1.381 . S
C2364 C2370 1.383 . S
C2365 C2361 1.495 . S
C2365 H2371 0.959 . S
C2365 H2372 0.961 . S
C2365 H2373 0.960 . S
C2366 C2364 1.381 . S
C2366 C2367 1.394 . S
C2366 H2374 0.930 . S
C2367 C2366 1.394 . S
C2367 C2368 1.383 . S
C2367 H2375 0.929 . S
C2368 C2367 1.383 . S
C2368 C2369 1.377 . S
C2369 H2353 0.930 . S
C2369 C2368 1.377 . S
C2369 C2370 1.379 . S
C2370 H2354 0.931 . S
C2370 C2364 1.383 . S
C2370 C2369 1.379 . S
H2371 C2365 0.959 . S
H2372 C2365 0.961 . S
H2373 C2365 0.960 . S
H2374 C2366 0.930 . S
H2375 C2367 0.929 . S
H2376 C2384 0.929 . S
H2377 C2386 0.930 . S
H2378 C2388 0.930 . S
H2379 C2391 0.929 . S
H2380 C2394 0.930 . S
H2381 C2396 0.960 . S
H2382 C2396 0.960 . S
H2383 C2396 0.960 . S
C2384 H2376 0.929 . S
C2384 C2385 1.377 . S
C2384 C2386 1.384 . S
C2385 C2384 1.377 . S
C2385 C2391 1.390 . S
C2386 H2377 0.930 . S
C2386 C2384 1.384 . S
C2386 C2387 1.372 . S
C2387 C2386 1.372 . S
C2387 C2388 1.400 . S
C2387 C2392 1.490 . S
C2388 H2378 0.930 . S
C2388 C2387 1.400 . S
C2388 C2391 1.386 . S
H2389 C2405 0.930 . S
H2390 C2406 0.931 . S
C2391 H2379 0.929 . S
C2391 C2385 1.390 . S
C2391 C2388 1.386 . S
C2392 C2387 1.490 . S
C2392 C2394 1.395 . S
C2392 C2395 1.403 . S
H2393 C2399 0.930 . S
C2394 H2380 0.930 . S
C2394 C2392 1.395 . S
C2394 C2397 1.403 . S
C2395 C2392 1.403 . S
C2395 C2396 1.524 . S
C2395 C2399 1.400 . S
C2396 H2381 0.960 . S
C2396 H2382 0.960 . S
C2396 H2383 0.960 . S
C2396 C2395 1.524 . S
C2397 C2394 1.403 . S
C2397 C2398 1.392 . S
C2397 C2401 1.495 . S
C2398 C2397 1.392 . S
C2398 C2399 1.385 . S
C2398 C2400 1.478 . S
C2399 H2393 0.930 . S
C2399 C2395 1.400 . S
C2399 C2398 1.385 . S
C2400 C2398 1.478 . S
C2400 C2402 1.381 . S
C2400 C2406 1.383 . S
C2401 C2397 1.495 . S
C2401 H2407 0.959 . S
C2401 H2408 0.961 . S
C2401 H2409 0.960 . S
C2402 C2400 1.381 . S
C2402 C2403 1.394 . S
C2402 H2410 0.930 . S
C2403 C2402 1.394 . S
C2403 C2404 1.383 . S
C2403 H2411 0.929 . S
C2404 C2403 1.383 . S
C2404 C2405 1.377 . S
C2405 H2389 0.930 . S
C2405 C2404 1.377 . S
C2405 C2406 1.379 . S
C2406 H2390 0.931 . S
C2406 C2400 1.383 . S
C2406 C2405 1.379 . S
H2407 C2401 0.959 . S
H2408 C2401 0.961 . S
H2409 C2401 0.960 . S
H2410 C2402 0.930 . S
H2411 C2403 0.929 . S
H2412 C2420 0.929 . S
H2413 C2422 0.930 . S
H2414 C2424 0.930 . S
H2415 C2427 0.929 . S
H2416 C2430 0.930 . S
H2417 C2432 0.960 . S
H2418 C2432 0.960 . S
H2419 C2432 0.960 . S
C2420 H2412 0.929 . S
C2420 C2421 1.377 . S
C2420 C2422 1.384 . S
C2421 C2420 1.377 . S
C2421 C2427 1.390 . S
C2422 H2413 0.930 . S
C2422 C2420 1.384 . S
C2422 C2423 1.372 . S
C2423 C2422 1.372 . S
C2423 C2424 1.400 . S
C2423 C2428 1.490 . S
C2424 H2414 0.930 . S
C2424 C2423 1.400 . S
C2424 C2427 1.386 . S
H2425 C2441 0.930 . S
H2426 C2442 0.931 . S
C2427 H2415 0.929 . S
C2427 C2421 1.390 . S
C2427 C2424 1.386 . S
C2428 C2423 1.490 . S
C2428 C2430 1.395 . S
C2428 C2431 1.403 . S
H2429 C2435 0.930 . S
C2430 H2416 0.930 . S
C2430 C2428 1.395 . S
C2430 C2433 1.403 . S
C2431 C2428 1.403 . S
C2431 C2432 1.524 . S
C2431 C2435 1.400 . S
C2432 H2417 0.960 . S
C2432 H2418 0.960 . S
C2432 H2419 0.960 . S
C2432 C2431 1.524 . S
C2433 C2430 1.403 . S
C2433 C2434 1.392 . S
C2433 C2437 1.495 . S
C2434 C2433 1.392 . S
C2434 C2435 1.385 . S
C2434 C2436 1.478 . S
C2435 H2429 0.930 . S
C2435 C2431 1.400 . S
C2435 C2434 1.385 . S
C2436 C2434 1.478 . S
C2436 C2438 1.381 . S
C2436 C2442 1.383 . S
C2437 C2433 1.495 . S
C2437 H2443 0.959 . S
C2437 H2444 0.961 . S
C2437 H2445 0.960 . S
C2438 C2436 1.381 . S
C2438 C2439 1.394 . S
C2438 H2446 0.930 . S
C2439 C2438 1.394 . S
C2439 C2440 1.383 . S
C2439 H2447 0.929 . S
C2440 C2439 1.383 . S
C2440 C2441 1.377 . S
C2441 H2425 0.930 . S
C2441 C2440 1.377 . S
C2441 C2442 1.379 . S
C2442 H2426 0.931 . S
C2442 C2436 1.383 . S
C2442 C2441 1.379 . S
H2443 C2437 0.959 . S
H2444 C2437 0.961 . S
H2445 C2437 0.960 . S
H2446 C2438 0.930 . S
H2447 C2439 0.929 . S
H2448 C2456 0.929 . S
H2449 C2458 0.930 . S
H2450 C2460 0.930 . S
H2451 C2463 0.929 . S
H2452 C2466 0.930 . S
H2453 C2468 0.960 . S
H2454 C2468 0.960 . S
H2455 C2468 0.960 . S
C2456 H2448 0.929 . S
C2456 C2457 1.377 . S
C2456 C2458 1.384 . S
C2457 C2456 1.377 . S
C2457 C2463 1.390 . S
C2458 H2449 0.930 . S
C2458 C2456 1.384 . S
C2458 C2459 1.372 . S
C2459 C2458 1.372 . S
C2459 C2460 1.400 . S
C2459 C2464 1.490 . S
C2460 H2450 0.930 . S
C2460 C2459 1.400 . S
C2460 C2463 1.386 . S
H2461 C2477 0.930 . S
H2462 C2478 0.931 . S
C2463 H2451 0.929 . S
C2463 C2457 1.390 . S
C2463 C2460 1.386 . S
C2464 C2459 1.490 . S
C2464 C2466 1.395 . S
C2464 C2467 1.403 . S
H2465 C2471 0.930 . S
C2466 H2452 0.930 . S
C2466 C2464 1.395 . S
C2466 C2469 1.403 . S
C2467 C2464 1.403 . S
C2467 C2468 1.524 . S
C2467 C2471 1.400 . S
C2468 H2453 0.960 . S
C2468 H2454 0.960 . S
C2468 H2455 0.960 . S
C2468 C2467 1.524 . S
C2469 C2466 1.403 . S
C2469 C2470 1.392 . S
C2469 C2473 1.495 . S
C2470 C2469 1.392 . S
C2470 C2471 1.385 . S
C2470 C2472 1.478 . S
C2471 H2465 0.930 . S
C2471 C2467 1.400 . S
C2471 C2470 1.385 . S
C2472 C2470 1.478 . S
C2472 C2474 1.381 . S
C2472 C2478 1.383 . S
C2473 C2469 1.495 . S
C2473 H2479 0.959 . S
C2473 H2480 0.961 . S
C2473 H2481 0.960 . S
C2474 C2472 1.381 . S
C2474 C2475 1.394 . S
C2474 H2482 0.930 . S
C2475 C2474 1.394 . S
C2475 C2476 1.383 . S
C2475 H2483 0.929 . S
C2476 C2475 1.383 . S
C2476 C2477 1.377 . S
C2477 H2461 0.930 . S
C2477 C2476 1.377 . S
C2477 C2478 1.379 . S
C2478 H2462 0.931 . S
C2478 C2472 1.383 . S
C2478 C2477 1.379 . S
H2479 C2473 0.959 . S
H2480 C2473 0.961 . S
H2481 C2473 0.960 . S
H2482 C2474 0.930 . S
H2483 C2475 0.929 . S
H2484 C2492 0.929 . S
H2485 C2494 0.930 . S
H2486 C2496 0.930 . S
H2487 C2499 0.929 . S
H2488 C2502 0.930 . S
H2489 C2504 0.960 . S
H2490 C2504 0.960 . S
H2491 C2504 0.960 . S
C2492 H2484 0.929 . S
C2492 C2493 1.377 . S
C2492 C2494 1.384 . S
C2493 C2492 1.377 . S
C2493 C2499 1.390 . S
C2494 H2485 0.930 . S
C2494 C2492 1.384 . S
C2494 C2495 1.372 . S
C2495 C2494 1.372 . S
C2495 C2496 1.400 . S
C2495 C2500 1.490 . S
C2496 H2486 0.930 . S
C2496 C2495 1.400 . S
C2496 C2499 1.386 . S
H2497 C2513 0.930 . S
H2498 C2514 0.931 . S
C2499 H2487 0.929 . S
C2499 C2493 1.390 . S
C2499 C2496 1.386 . S
C2500 C2495 1.490 . S
C2500 C2502 1.395 . S
C2500 C2503 1.403 . S
H2501 C2507 0.930 . S
C2502 H2488 0.930 . S
C2502 C2500 1.395 . S
C2502 C2505 1.403 . S
C2503 C2500 1.403 . S
C2503 C2504 1.524 . S
C2503 C2507 1.400 . S
C2504 H2489 0.960 . S
C2504 H2490 0.960 . S
C2504 H2491 0.960 . S
C2504 C2503 1.524 . S
C2505 C2502 1.403 . S
C2505 C2506 1.392 . S
C2505 C2509 1.495 . S
C2506 C2505 1.392 . S
C2506 C2507 1.385 . S
C2506 C2508 1.478 . S
C2507 H2501 0.930 . S
C2507 C2503 1.400 . S
C2507 C2506 1.385 . S
C2508 C2506 1.478 . S
C2508 C2510 1.381 . S
C2508 C2514 1.383 . S
C2509 C2505 1.495 . S
C2509 H2515 0.959 . S
C2509 H2516 0.961 . S
C2509 H2517 0.960 . S
C2510 C2508 1.381 . S
C2510 C2511 1.394 . S
C2510 H2518 0.930 . S
C2511 C2510 1.394 . S
C2511 C2512 1.383 . S
C2511 H2519 0.929 . S
C2512 C2511 1.383 . S
C2512 C2513 1.377 . S
C2513 H2497 0.930 . S
C2513 C2512 1.377 . S
C2513 C2514 1.379 . S
C2514 H2498 0.931 . S
C2514 C2508 1.383 . S
C2514 C2513 1.379 . S
H2515 C2509 0.959 . S
H2516 C2509 0.961 . S
H2517 C2509 0.960 . S
H2518 C2510 0.930 . S
H2519 C2511 0.929 . S
H2520 C2528 0.929 . S
H2521 C2530 0.930 . S
H2522 C2532 0.930 . S
H2523 C2535 0.929 . S
H2524 C2538 0.930 . S
H2525 C2540 0.960 . S
H2526 C2540 0.960 . S
H2527 C2540 0.960 . S
C2528 H2520 0.929 . S
C2528 C2529 1.377 . S
C2528 C2530 1.384 . S
C2529 C2528 1.377 . S
C2529 C2535 1.390 . S
C2530 H2521 0.930 . S
C2530 C2528 1.384 . S
C2530 C2531 1.372 . S
C2531 C2530 1.372 . S
C2531 C2532 1.400 . S
C2531 C2536 1.490 . S
C2532 H2522 0.930 . S
C2532 C2531 1.400 . S
C2532 C2535 1.386 . S
H2533 C2549 0.930 . S
H2534 C2550 0.931 . S
C2535 H2523 0.929 . S
C2535 C2529 1.390 . S
C2535 C2532 1.386 . S
C2536 C2531 1.490 . S
C2536 C2538 1.395 . S
C2536 C2539 1.403 . S
H2537 C2543 0.930 . S
C2538 H2524 0.930 . S
C2538 C2536 1.395 . S
C2538 C2541 1.403 . S
C2539 C2536 1.403 . S
C2539 C2540 1.524 . S
C2539 C2543 1.400 . S
C2540 H2525 0.960 . S
C2540 H2526 0.960 . S
C2540 H2527 0.960 . S
C2540 C2539 1.524 . S
C2541 C2538 1.403 . S
C2541 C2542 1.392 . S
C2541 C2545 1.495 . S
C2542 C2541 1.392 . S
C2542 C2543 1.385 . S
C2542 C2544 1.478 . S
C2543 H2537 0.930 . S
C2543 C2539 1.400 . S
C2543 C2542 1.385 . S
C2544 C2542 1.478 . S
C2544 C2546 1.381 . S
C2544 C2550 1.383 . S
C2545 C2541 1.495 . S
C2545 H2551 0.959 . S
C2545 H2552 0.961 . S
C2545 H2553 0.960 . S
C2546 C2544 1.381 . S
C2546 C2547 1.394 . S
C2546 H2554 0.930 . S
C2547 C2546 1.394 . S
C2547 C2548 1.383 . S
C2547 H2555 0.929 . S
C2548 C2547 1.383 . S
C2548 C2549 1.377 . S
C2549 H2533 0.930 . S
C2549 C2548 1.377 . S
C2549 C2550 1.379 . S
C2550 H2534 0.931 . S
C2550 C2544 1.383 . S
C2550 C2549 1.379 . S
H2551 C2545 0.959 . S
H2552 C2545 0.961 . S
H2553 C2545 0.960 . S
H2554 C2546 0.930 . S
H2555 C2547 0.929 . S
H2556 C2564 0.929 . S
H2557 C2566 0.930 . S
H2558 C2568 0.930 . S
H2559 C2571 0.929 . S
H2560 C2574 0.930 . S
H2561 C2576 0.960 . S
H2562 C2576 0.960 . S
H2563 C2576 0.960 . S
C2564 H2556 0.929 . S
C2564 C2565 1.377 . S
C2564 C2566 1.384 . S
C2565 C2564 1.377 . S
C2565 C2571 1.390 . S
C2566 H2557 0.930 . S
C2566 C2564 1.384 . S
C2566 C2567 1.372 . S
C2567 C2566 1.372 . S
C2567 C2568 1.400 . S
C2567 C2572 1.490 . S
C2568 H2558 0.930 . S
C2568 C2567 1.400 . S
C2568 C2571 1.386 . S
H2569 C2585 0.930 . S
H2570 C2586 0.931 . S
C2571 H2559 0.929 . S
C2571 C2565 1.390 . S
C2571 C2568 1.386 . S
C2572 C2567 1.490 . S
C2572 C2574 1.395 . S
C2572 C2575 1.403 . S
H2573 C2579 0.930 . S
C2574 H2560 0.930 . S
C2574 C2572 1.395 . S
C2574 C2577 1.403 . S
C2575 C2572 1.403 . S
C2575 C2576 1.524 . S
C2575 C2579 1.400 . S
C2576 H2561 0.960 . S
C2576 H2562 0.960 . S
C2576 H2563 0.960 . S
C2576 C2575 1.524 . S
C2577 C2574 1.403 . S
C2577 C2578 1.392 . S
C2577 C2581 1.495 . S
C2578 C2577 1.392 . S
C2578 C2579 1.385 . S
C2578 C2580 1.478 . S
C2579 H2573 0.930 . S
C2579 C2575 1.400 . S
C2579 C2578 1.385 . S
C2580 C2578 1.478 . S
C2580 C2582 1.381 . S
C2580 C2586 1.383 . S
C2581 C2577 1.495 . S
C2581 H2587 0.959 . S
C2581 H2588 0.961 . S
C2581 H2589 0.960 . S
C2582 C2580 1.381 . S
C2582 C2583 1.394 . S
C2582 H2590 0.930 . S
C2583 C2582 1.394 . S
C2583 C2584 1.383 . S
C2583 H2591 0.929 . S
C2584 C2583 1.383 . S
C2584 C2585 1.377 . S
C2585 H2569 0.930 . S
C2585 C2584 1.377 . S
C2585 C2586 1.379 . S
C2586 H2570 0.931 . S
C2586 C2580 1.383 . S
C2586 C2585 1.379 . S
H2587 C2581 0.959 . S
H2588 C2581 0.961 . S
H2589 C2581 0.960 . S
H2590 C2582 0.930 . S
H2591 C2583 0.929 . S
H2592 C2600 0.929 . S
H2593 C2602 0.930 . S
H2594 C2604 0.930 . S
H2595 C2607 0.929 . S
H2596 C2610 0.930 . S
H2597 C2612 0.960 . S
H2598 C2612 0.960 . S
H2599 C2612 0.960 . S
C2600 H2592 0.929 . S
C2600 C2601 1.377 . S
C2600 C2602 1.384 . S
C2601 C2600 1.377 . S
C2601 C2607 1.390 . S
C2602 H2593 0.930 . S
C2602 C2600 1.384 . S
C2602 C2603 1.372 . S
C2603 C2602 1.372 . S
C2603 C2604 1.400 . S
C2603 C2608 1.490 . S
C2604 H2594 0.930 . S
C2604 C2603 1.400 . S
C2604 C2607 1.386 . S
H2605 C2621 0.930 . S
H2606 C2622 0.931 . S
C2607 H2595 0.929 . S
C2607 C2601 1.390 . S
C2607 C2604 1.386 . S
C2608 C2603 1.490 . S
C2608 C2610 1.395 . S
C2608 C2611 1.403 . S
H2609 C2615 0.930 . S
C2610 H2596 0.930 . S
C2610 C2608 1.395 . S
C2610 C2613 1.403 . S
C2611 C2608 1.403 . S
C2611 C2612 1.524 . S
C2611 C2615 1.400 . S
C2612 H2597 0.960 . S
C2612 H2598 0.960 . S
C2612 H2599 0.960 . S
C2612 C2611 1.524 . S
C2613 C2610 1.403 . S
C2613 C2614 1.392 . S
C2613 C2617 1.495 . S
C2614 C2613 1.392 . S
C2614 C2615 1.385 . S
C2614 C2616 1.478 . S
C2615 H2609 0.930 . S
C2615 C2611 1.400 . S
C2615 C2614 1.385 . S
C2616 C2614 1.478 . S
C2616 C2618 1.381 . S
C2616 C2622 1.383 . S
C2617 C2613 1.495 . S
C2617 H2623 0.959 . S
C2617 H2624 0.961 . S
C2617 H2625 0.960 . S
C2618 C2616 1.381 . S
C2618 C2619 1.394 . S
C2618 H2626 0.930 . S
C2619 C2618 1.394 . S
C2619 C2620 1.383 . S
C2619 H2627 0.929 . S
C2620 C2619 1.383 . S
C2620 C2621 1.377 . S
C2621 H2605 0.930 . S
C2621 C2620 1.377 . S
C2621 C2622 1.379 . S
C2622 H2606 0.931 . S
C2622 C2616 1.383 . S
C2622 C2621 1.379 . S
H2623 C2617 0.959 . S
H2624 C2617 0.961 . S
H2625 C2617 0.960 . S
H2626 C2618 0.930 . S
H2627 C2619 0.929 . S
H2628 C2636 0.929 . S
H2629 C2638 0.930 . S
H2630 C2640 0.930 . S
H2631 C2643 0.929 . S
H2632 C2646 0.930 . S
H2633 C2648 0.960 . S
H2634 C2648 0.960 . S
H2635 C2648 0.960 . S
C2636 H2628 0.929 . S
C2636 C2637 1.377 . S
C2636 C2638 1.384 . S
C2637 C2636 1.377 . S
C2637 C2643 1.390 . S
C2638 H2629 0.930 . S
C2638 C2636 1.384 . S
C2638 C2639 1.372 . S
C2639 C2638 1.372 . S
C2639 C2640 1.400 . S
C2639 C2644 1.490 . S
C2640 H2630 0.930 . S
C2640 C2639 1.400 . S
C2640 C2643 1.386 . S
H2641 C2657 0.930 . S
H2642 C2658 0.931 . S
C2643 H2631 0.929 . S
C2643 C2637 1.390 . S
C2643 C2640 1.386 . S
C2644 C2639 1.490 . S
C2644 C2646 1.395 . S
C2644 C2647 1.403 . S
H2645 C2651 0.930 . S
C2646 H2632 0.930 . S
C2646 C2644 1.395 . S
C2646 C2649 1.403 . S
C2647 C2644 1.403 . S
C2647 C2648 1.524 . S
C2647 C2651 1.400 . S
C2648 H2633 0.960 . S
C2648 H2634 0.960 . S
C2648 H2635 0.960 . S
C2648 C2647 1.524 . S
C2649 C2646 1.403 . S
C2649 C2650 1.392 . S
C2649 C2653 1.495 . S
C2650 C2649 1.392 . S
C2650 C2651 1.385 . S
C2650 C2652 1.478 . S
C2651 H2645 0.930 . S
C2651 C2647 1.400 . S
C2651 C2650 1.385 . S
C2652 C2650 1.478 . S
C2652 C2654 1.381 . S
C2652 C2658 1.383 . S
C2653 C2649 1.495 . S
C2653 H2659 0.959 . S
C2653 H2660 0.961 . S
C2653 H2661 0.960 . S
C2654 C2652 1.381 . S
C2654 C2655 1.394 . S
C2654 H2662 0.930 . S
C2655 C2654 1.394 . S
C2655 C2656 1.383 . S
C2655 H2663 0.929 . S
C2656 C2655 1.383 . S
C2656 C2657 1.377 . S
C2657 H2641 0.930 . S
C2657 C2656 1.377 . S
C2657 C2658 1.379 . S
C2658 H2642 0.931 . S
C2658 C2652 1.383 . S
C2658 C2657 1.379 . S
H2659 C2653 0.959 . S
H2660 C2653 0.961 . S
H2661 C2653 0.960 . S
H2662 C2654 0.930 . S
H2663 C2655 0.929 . S
H2664 C2672 0.929 . S
H2665 C2674 0.930 . S
H2666 C2676 0.930 . S
H2667 C2679 0.929 . S
H2668 C2682 0.930 . S
H2669 C2684 0.960 . S
H2670 C2684 0.960 . S
H2671 C2684 0.960 . S
C2672 H2664 0.929 . S
C2672 C2673 1.377 . S
C2672 C2674 1.384 . S
C2673 C2672 1.377 . S
C2673 C2679 1.390 . S
C2674 H2665 0.930 . S
C2674 C2672 1.384 . S
C2674 C2675 1.372 . S
C2675 C2674 1.372 . S
C2675 C2676 1.400 . S
C2675 C2680 1.490 . S
C2676 H2666 0.930 . S
C2676 C2675 1.400 . S
C2676 C2679 1.386 . S
H2677 C2693 0.930 . S
H2678 C2694 0.931 . S
C2679 H2667 0.929 . S
C2679 C2673 1.390 . S
C2679 C2676 1.386 . S
C2680 C2675 1.490 . S
C2680 C2682 1.395 . S
C2680 C2683 1.403 . S
H2681 C2687 0.930 . S
C2682 H2668 0.930 . S
C2682 C2680 1.395 . S
C2682 C2685 1.403 . S
C2683 C2680 1.403 . S
C2683 C2684 1.524 . S
C2683 C2687 1.400 . S
C2684 H2669 0.960 . S
C2684 H2670 0.960 . S
C2684 H2671 0.960 . S
C2684 C2683 1.524 . S
C2685 C2682 1.403 . S
C2685 C2686 1.392 . S
C2685 C2689 1.495 . S
C2686 C2685 1.392 . S
C2686 C2687 1.385 . S
C2686 C2688 1.478 . S
C2687 H2681 0.930 . S
C2687 C2683 1.400 . S
C2687 C2686 1.385 . S
C2688 C2686 1.478 . S
C2688 C2690 1.381 . S
C2688 C2694 1.383 . S
C2689 C2685 1.495 . S
C2689 H2695 0.959 . S
C2689 H2696 0.961 . S
C2689 H2697 0.960 . S
C2690 C2688 1.381 . S
C2690 C2691 1.394 . S
C2690 H2698 0.930 . S
C2691 C2690 1.394 . S
C2691 C2692 1.383 . S
C2691 H2699 0.929 . S
C2692 C2691 1.383 . S
C2692 C2693 1.377 . S
C2693 H2677 0.930 . S
C2693 C2692 1.377 . S
C2693 C2694 1.379 . S
C2694 H2678 0.931 . S
C2694 C2688 1.383 . S
C2694 C2693 1.379 . S
H2695 C2689 0.959 . S
H2696 C2689 0.961 . S
H2697 C2689 0.960 . S
H2698 C2690 0.930 . S
H2699 C2691 0.929 . S
H2700 C2708 0.929 . S
H2701 C2710 0.930 . S
H2702 C2712 0.930 . S
H2703 C2715 0.929 . S
H2704 C2718 0.930 . S
H2705 C2720 0.960 . S
H2706 C2720 0.960 . S
H2707 C2720 0.960 . S
C2708 H2700 0.929 . S
C2708 C2709 1.377 . S
C2708 C2710 1.384 . S
C2709 C2708 1.377 . S
C2709 C2715 1.390 . S
C2710 H2701 0.930 . S
C2710 C2708 1.384 . S
C2710 C2711 1.372 . S
C2711 C2710 1.372 . S
C2711 C2712 1.400 . S
C2711 C2716 1.490 . S
C2712 H2702 0.930 . S
C2712 C2711 1.400 . S
C2712 C2715 1.386 . S
H2713 C2729 0.930 . S
H2714 C2730 0.931 . S
C2715 H2703 0.929 . S
C2715 C2709 1.390 . S
C2715 C2712 1.386 . S
C2716 C2711 1.490 . S
C2716 C2718 1.395 . S
C2716 C2719 1.403 . S
H2717 C2723 0.930 . S
C2718 H2704 0.930 . S
C2718 C2716 1.395 . S
C2718 C2721 1.403 . S
C2719 C2716 1.403 . S
C2719 C2720 1.524 . S
C2719 C2723 1.400 . S
C2720 H2705 0.960 . S
C2720 H2706 0.960 . S
C2720 H2707 0.960 . S
C2720 C2719 1.524 . S
C2721 C2718 1.403 . S
C2721 C2722 1.392 . S
C2721 C2725 1.495 . S
C2722 C2721 1.392 . S
C2722 C2723 1.385 . S
C2722 C2724 1.478 . S
C2723 H2717 0.930 . S
C2723 C2719 1.400 . S
C2723 C2722 1.385 . S
C2724 C2722 1.478 . S
C2724 C2726 1.381 . S
C2724 C2730 1.383 . S
C2725 C2721 1.495 . S
C2725 H2731 0.959 . S
C2725 H2732 0.961 . S
C2725 H2733 0.960 . S
C2726 C2724 1.381 . S
C2726 C2727 1.394 . S
C2726 H2734 0.930 . S
C2727 C2726 1.394 . S
C2727 C2728 1.383 . S
C2727 H2735 0.929 . S
C2728 C2727 1.383 . S
C2728 C2729 1.377 . S
C2729 H2713 0.930 . S
C2729 C2728 1.377 . S
C2729 C2730 1.379 . S
C2730 H2714 0.931 . S
C2730 C2724 1.383 . S
C2730 C2729 1.379 . S
H2731 C2725 0.959 . S
H2732 C2725 0.961 . S
H2733 C2725 0.960 . S
H2734 C2726 0.930 . S
H2735 C2727 0.929 . S
H2736 C2744 0.929 . S
H2737 C2746 0.930 . S
H2738 C2748 0.930 . S
H2739 C2751 0.929 . S
H2740 C2754 0.930 . S
H2741 C2756 0.960 . S
H2742 C2756 0.960 . S
H2743 C2756 0.960 . S
C2744 H2736 0.929 . S
C2744 C2745 1.377 . S
C2744 C2746 1.384 . S
C2745 C2744 1.377 . S
C2745 C2751 1.390 . S
C2746 H2737 0.930 . S
C2746 C2744 1.384 . S
C2746 C2747 1.372 . S
C2747 C2746 1.372 . S
C2747 C2748 1.400 . S
C2747 C2752 1.490 . S
C2748 H2738 0.930 . S
C2748 C2747 1.400 . S
C2748 C2751 1.386 . S
H2749 C2765 0.930 . S
H2750 C2766 0.931 . S
C2751 H2739 0.929 . S
C2751 C2745 1.390 . S
C2751 C2748 1.386 . S
C2752 C2747 1.490 . S
C2752 C2754 1.395 . S
C2752 C2755 1.403 . S
H2753 C2759 0.930 . S
C2754 H2740 0.930 . S
C2754 C2752 1.395 . S
C2754 C2757 1.403 . S
C2755 C2752 1.403 . S
C2755 C2756 1.524 . S
C2755 C2759 1.400 . S
C2756 H2741 0.960 . S
C2756 H2742 0.960 . S
C2756 H2743 0.960 . S
C2756 C2755 1.524 . S
C2757 C2754 1.403 . S
C2757 C2758 1.392 . S
C2757 C2761 1.495 . S
C2758 C2757 1.392 . S
C2758 C2759 1.385 . S
C2758 C2760 1.478 . S
C2759 H2753 0.930 . S
C2759 C2755 1.400 . S
C2759 C2758 1.385 . S
C2760 C2758 1.478 . S
C2760 C2762 1.381 . S
C2760 C2766 1.383 . S
C2761 C2757 1.495 . S
C2761 H2767 0.959 . S
C2761 H2768 0.961 . S
C2761 H2769 0.960 . S
C2762 C2760 1.381 . S
C2762 C2763 1.394 . S
C2762 H2770 0.930 . S
C2763 C2762 1.394 . S
C2763 C2764 1.383 . S
C2763 H2771 0.929 . S
C2764 C2763 1.383 . S
C2764 C2765 1.377 . S
C2765 H2749 0.930 . S
C2765 C2764 1.377 . S
C2765 C2766 1.379 . S
C2766 H2750 0.931 . S
C2766 C2760 1.383 . S
C2766 C2765 1.379 . S
H2767 C2761 0.959 . S
H2768 C2761 0.961 . S
H2769 C2761 0.960 . S
H2770 C2762 0.930 . S
H2771 C2763 0.929 . S
H2772 C2780 0.929 . S
H2773 C2782 0.930 . S
H2774 C2784 0.930 . S
H2775 C2787 0.929 . S
H2776 C2790 0.930 . S
H2777 C2792 0.960 . S
H2778 C2792 0.960 . S
H2779 C2792 0.960 . S
C2780 H2772 0.929 . S
C2780 C2781 1.377 . S
C2780 C2782 1.384 . S
C2781 C2780 1.377 . S
C2781 C2787 1.390 . S
C2782 H2773 0.930 . S
C2782 C2780 1.384 . S
C2782 C2783 1.372 . S
C2783 C2782 1.372 . S
C2783 C2784 1.400 . S
C2783 C2788 1.490 . S
C2784 H2774 0.930 . S
C2784 C2783 1.400 . S
C2784 C2787 1.386 . S
H2785 C2801 0.930 . S
H2786 C2802 0.931 . S
C2787 H2775 0.929 . S
C2787 C2781 1.390 . S
C2787 C2784 1.386 . S
C2788 C2783 1.490 . S
C2788 C2790 1.395 . S
C2788 C2791 1.403 . S
H2789 C2795 0.930 . S
C2790 H2776 0.930 . S
C2790 C2788 1.395 . S
C2790 C2793 1.403 . S
C2791 C2788 1.403 . S
C2791 C2792 1.524 . S
C2791 C2795 1.400 . S
C2792 H2777 0.960 . S
C2792 H2778 0.960 . S
C2792 H2779 0.960 . S
C2792 C2791 1.524 . S
C2793 C2790 1.403 . S
C2793 C2794 1.392 . S
C2793 C2797 1.495 . S
C2794 C2793 1.392 . S
C2794 C2795 1.385 . S
C2794 C2796 1.478 . S
C2795 H2789 0.930 . S
C2795 C2791 1.400 . S
C2795 C2794 1.385 . S
C2796 C2794 1.478 . S
C2796 C2798 1.381 . S
C2796 C2802 1.383 . S
C2797 C2793 1.495 . S
C2797 H2803 0.959 . S
C2797 H2804 0.961 . S
C2797 H2805 0.960 . S
C2798 C2796 1.381 . S
C2798 C2799 1.394 . S
C2798 H2806 0.930 . S
C2799 C2798 1.394 . S
C2799 C2800 1.383 . S
C2799 H2807 0.929 . S
C2800 C2799 1.383 . S
C2800 C2801 1.377 . S
C2801 H2785 0.930 . S
C2801 C2800 1.377 . S
C2801 C2802 1.379 . S
C2802 H2786 0.931 . S
C2802 C2796 1.383 . S
C2802 C2801 1.379 . S
H2803 C2797 0.959 . S
H2804 C2797 0.961 . S
H2805 C2797 0.960 . S
H2806 C2798 0.930 . S
H2807 C2799 0.929 . S
H2808 C2816 0.929 . S
H2809 C2818 0.930 . S
H2810 C2820 0.930 . S
H2811 C2823 0.929 . S
H2812 C2826 0.930 . S
H2813 C2828 0.960 . S
H2814 C2828 0.960 . S
H2815 C2828 0.960 . S
C2816 H2808 0.929 . S
C2816 C2817 1.377 . S
C2816 C2818 1.384 . S
C2817 C2816 1.377 . S
C2817 C2823 1.390 . S
C2818 H2809 0.930 . S
C2818 C2816 1.384 . S
C2818 C2819 1.372 . S
C2819 C2818 1.372 . S
C2819 C2820 1.400 . S
C2819 C2824 1.490 . S
C2820 H2810 0.930 . S
C2820 C2819 1.400 . S
C2820 C2823 1.386 . S
H2821 C2837 0.930 . S
H2822 C2838 0.931 . S
C2823 H2811 0.929 . S
C2823 C2817 1.390 . S
C2823 C2820 1.386 . S
C2824 C2819 1.490 . S
C2824 C2826 1.395 . S
C2824 C2827 1.403 . S
H2825 C2831 0.930 . S
C2826 H2812 0.930 . S
C2826 C2824 1.395 . S
C2826 C2829 1.403 . S
C2827 C2824 1.403 . S
C2827 C2828 1.524 . S
C2827 C2831 1.400 . S
C2828 H2813 0.960 . S
C2828 H2814 0.960 . S
C2828 H2815 0.960 . S
C2828 C2827 1.524 . S
C2829 C2826 1.403 . S
C2829 C2830 1.392 . S
C2829 C2833 1.495 . S
C2830 C2829 1.392 . S
C2830 C2831 1.385 . S
C2830 C2832 1.478 . S
C2831 H2825 0.930 . S
C2831 C2827 1.400 . S
C2831 C2830 1.385 . S
C2832 C2830 1.478 . S
C2832 C2834 1.381 . S
C2832 C2838 1.383 . S
C2833 C2829 1.495 . S
C2833 H2839 0.959 . S
C2833 H2840 0.961 . S
C2833 H2841 0.960 . S
C2834 C2832 1.381 . S
C2834 C2835 1.394 . S
C2834 H2842 0.930 . S
C2835 C2834 1.394 . S
C2835 C2836 1.383 . S
C2835 H2843 0.929 . S
C2836 C2835 1.383 . S
C2836 C2837 1.377 . S
C2837 H2821 0.930 . S
C2837 C2836 1.377 . S
C2837 C2838 1.379 . S
C2838 H2822 0.931 . S
C2838 C2832 1.383 . S
C2838 C2837 1.379 . S
H2839 C2833 0.959 . S
H2840 C2833 0.961 . S
H2841 C2833 0.960 . S
H2842 C2834 0.930 . S
H2843 C2835 0.929 . S
H2844 C2852 0.929 . S
H2845 C2854 0.930 . S
H2846 C2856 0.930 . S
H2847 C2859 0.929 . S
H2848 C2862 0.930 . S
H2849 C2864 0.960 . S
H2850 C2864 0.960 . S
H2851 C2864 0.960 . S
C2852 H2844 0.929 . S
C2852 C2853 1.377 . S
C2852 C2854 1.384 . S
C2853 C2852 1.377 . S
C2853 C2859 1.390 . S
C2854 H2845 0.930 . S
C2854 C2852 1.384 . S
C2854 C2855 1.372 . S
C2855 C2854 1.372 . S
C2855 C2856 1.400 . S
C2855 C2860 1.490 . S
C2856 H2846 0.930 . S
C2856 C2855 1.400 . S
C2856 C2859 1.386 . S
H2857 C2873 0.930 . S
H2858 C2874 0.931 . S
C2859 H2847 0.929 . S
C2859 C2853 1.390 . S
C2859 C2856 1.386 . S
C2860 C2855 1.490 . S
C2860 C2862 1.395 . S
C2860 C2863 1.403 . S
H2861 C2867 0.930 . S
C2862 H2848 0.930 . S
C2862 C2860 1.395 . S
C2862 C2865 1.403 1_455 S
C2863 C2860 1.403 . S
C2863 C2864 1.524 . S
C2863 C2867 1.400 1_455 S
C2864 H2849 0.960 . S
C2864 H2850 0.960 . S
C2864 H2851 0.960 . S
C2864 C2863 1.524 . S
C2865 C2862 1.403 1_655 S
C2865 C2866 1.392 . S
C2865 C2869 1.495 . S
C2866 C2865 1.392 . S
C2866 C2867 1.385 . S
C2866 C2868 1.478 . S
C2867 H2861 0.930 . S
C2867 C2863 1.400 1_655 S
C2867 C2866 1.385 . S
C2868 C2866 1.478 . S
C2868 C2870 1.381 . S
C2868 C2874 1.383 . S
C2869 C2865 1.495 . S
C2869 H2875 0.959 . S
C2869 H2876 0.961 . S
C2869 H2877 0.960 . S
C2870 C2868 1.381 . S
C2870 C2871 1.394 . S
C2870 H2878 0.930 . S
C2871 C2870 1.394 . S
C2871 C2872 1.383 . S
C2871 H2879 0.929 . S
C2872 C2871 1.383 . S
C2872 C2873 1.377 . S
C2873 H2857 0.930 . S
C2873 C2872 1.377 . S
C2873 C2874 1.379 . S
C2874 H2858 0.931 . S
C2874 C2868 1.383 . S
C2874 C2873 1.379 . S
H2875 C2869 0.959 . S
H2876 C2869 0.961 . S
H2877 C2869 0.960 . S
H2878 C2870 0.930 . S
H2879 C2871 0.929 . S
H2880 C2888 0.929 . S
H2881 C2890 0.930 . S
H2882 C2892 0.930 . S
H2883 C2895 0.929 . S
H2884 C2898 0.930 . S
H2885 C2900 0.960 . S
H2886 C2900 0.960 . S
H2887 C2900 0.960 . S
C2888 H2880 0.929 . S
C2888 C2889 1.377 . S
C2888 C2890 1.384 . S
C2889 C2888 1.377 . S
C2889 C2895 1.390 . S
C2890 H2881 0.930 . S
C2890 C2888 1.384 . S
C2890 C2891 1.372 . S
C2891 C2890 1.372 . S
C2891 C2892 1.400 . S
C2891 C2896 1.490 . S
C2892 H2882 0.930 . S
C2892 C2891 1.400 . S
C2892 C2895 1.386 . S
H2893 C2909 0.930 . S
H2894 C2910 0.931 . S
C2895 H2883 0.929 . S
C2895 C2889 1.390 . S
C2895 C2892 1.386 . S
C2896 C2891 1.490 . S
C2896 C2898 1.395 . S
C2896 C2899 1.403 . S
H2897 C2903 0.930 . S
C2898 H2884 0.930 . S
C2898 C2896 1.395 . S
C2898 C2901 1.403 . S
C2899 C2896 1.403 . S
C2899 C2900 1.524 . S
C2899 C2903 1.400 . S
C2900 H2885 0.960 . S
C2900 H2886 0.960 . S
C2900 H2887 0.960 . S
C2900 C2899 1.524 . S
C2901 C2898 1.403 . S
C2901 C2902 1.392 . S
C2901 C2905 1.495 . S
C2902 C2901 1.392 . S
C2902 C2903 1.385 . S
C2902 C2904 1.478 . S
C2903 H2897 0.930 . S
C2903 C2899 1.400 . S
C2903 C2902 1.385 . S
C2904 C2902 1.478 . S
C2904 C2906 1.381 . S
C2904 C2910 1.383 . S
C2905 C2901 1.495 . S
C2905 H2911 0.959 . S
C2905 H2912 0.961 . S
C2905 H2913 0.960 . S
C2906 C2904 1.381 . S
C2906 C2907 1.394 . S
C2906 H2914 0.930 . S
C2907 C2906 1.394 . S
C2907 C2908 1.383 . S
C2907 H2915 0.929 . S
C2908 C2907 1.383 . S
C2908 C2909 1.377 . S
C2909 H2893 0.930 . S
C2909 C2908 1.377 . S
C2909 C2910 1.379 . S
C2910 H2894 0.931 . S
C2910 C2904 1.383 . S
C2910 C2909 1.379 . S
H2911 C2905 0.959 . S
H2912 C2905 0.961 . S
H2913 C2905 0.960 . S
H2914 C2906 0.930 . S
H2915 C2907 0.929 . S
H2916 C2924 0.929 . S
H2917 C2926 0.930 . S
H2918 C2928 0.930 . S
H2919 C2931 0.929 . S
H2920 C2934 0.930 . S
H2921 C2936 0.960 . S
H2922 C2936 0.960 1_545 S
H2923 C2936 0.960 . S
C2924 H2916 0.929 . S
C2924 C2925 1.377 . S
C2924 C2926 1.384 . S
C2925 C2924 1.377 . S
C2925 C2931 1.390 . S
C2926 H2917 0.930 . S
C2926 C2924 1.384 . S
C2926 C2927 1.372 . S
C2927 C2926 1.372 . S
C2927 C2928 1.400 . S
C2927 C2932 1.490 . S
C2928 H2918 0.930 . S
C2928 C2927 1.400 . S
C2928 C2931 1.386 . S
H2929 C2945 0.930 . S
H2930 C2946 0.931 . S
C2931 H2919 0.929 . S
C2931 C2925 1.390 . S
C2931 C2928 1.386 . S
C2932 C2927 1.490 . S
C2932 C2934 1.395 . S
C2932 C2935 1.403 1_545 S
H2933 C2939 0.930 . S
C2934 H2920 0.930 . S
C2934 C2932 1.395 . S
C2934 C2937 1.403 . S
C2935 C2932 1.403 1_565 S
C2935 C2936 1.524 . S
C2935 C2939 1.400 . S
C2936 H2921 0.960 . S
C2936 H2922 0.960 1_565 S
C2936 H2923 0.960 . S
C2936 C2935 1.524 . S
C2937 C2934 1.403 . S
C2937 C2938 1.392 1_545 S
C2937 C2941 1.495 . S
C2938 C2937 1.392 1_565 S
C2938 C2939 1.385 . S
C2938 C2940 1.478 . S
C2939 H2933 0.930 . S
C2939 C2935 1.400 . S
C2939 C2938 1.385 . S
C2940 C2938 1.478 . S
C2940 C2942 1.381 . S
C2940 C2946 1.383 . S
C2941 C2937 1.495 . S
C2941 H2947 0.959 . S
C2941 H2948 0.961 1_545 S
C2941 H2949 0.960 . S
C2942 C2940 1.381 . S
C2942 C2943 1.394 . S
C2942 H2950 0.930 . S
C2943 C2942 1.394 . S
C2943 C2944 1.383 . S
C2943 H2951 0.929 . S
C2944 C2943 1.383 . S
C2944 C2945 1.377 . S
C2945 H2929 0.930 . S
C2945 C2944 1.377 . S
C2945 C2946 1.379 . S
C2946 H2930 0.931 . S
C2946 C2940 1.383 . S
C2946 C2945 1.379 . S
H2947 C2941 0.959 . S
H2948 C2941 0.961 1_565 S
H2949 C2941 0.960 . S
H2950 C2942 0.930 . S
H2951 C2943 0.929 . S
H2952 C2960 0.929 . S
H2953 C2962 0.930 . S
H2954 C2964 0.930 . S
H2955 C2967 0.929 . S
H2956 C2970 0.930 . S
H2957 C2972 0.960 . S
H2958 C2972 0.960 . S
H2959 C2972 0.960 1_556 S
C2960 H2952 0.929 . S
C2960 C2961 1.377 1_554 S
C2960 C2962 1.384 . S
C2961 C2960 1.377 1_556 S
C2961 C2967 1.390 . S
C2962 H2953 0.930 . S
C2962 C2960 1.384 . S
C2962 C2963 1.372 1_554 S
C2963 C2962 1.372 1_556 S
C2963 C2964 1.400 . S
C2963 C2968 1.500 . S
C2964 H2954 0.930 . S
C2964 C2963 1.400 . S
C2964 C2967 1.386 . S
H2965 C2981 0.930 . S
H2966 C2982 0.931 . S
C2967 H2955 0.929 . S
C2967 C2961 1.390 . S
C2967 C2964 1.386 . S
C2968 C2963 1.500 . S
C2968 C2970 1.407 1_545 S
C2968 C2971 1.387 1_556 S
H2969 C2975 0.930 . S
C2970 H2956 0.930 . S
C2970 C2968 1.407 1_565 S
C2970 C2973 1.403 . S
C2971 C2968 1.387 1_554 S
C2971 C2972 1.524 . S
C2971 C2975 1.400 1_545 S
C2972 H2957 0.960 . S
C2972 H2958 0.960 . S
C2972 H2959 0.960 1_554 S
C2972 C2971 1.524 . S
C2973 C2970 1.403 . S
C2973 C2974 1.392 1_556 S
C2973 C2977 1.495 . S
C2974 C2973 1.392 1_554 S
C2974 C2975 1.385 . S
C2974 C2976 1.478 . S
C2975 H2969 0.930 . S
C2975 C2971 1.400 1_565 S
C2975 C2974 1.385 . S
C2976 C2974 1.478 . S
C2976 C2978 1.381 . S
C2976 C2982 1.383 1_554 S
C2977 C2973 1.495 . S
C2977 H2983 0.959 . S
C2977 H2984 0.961 . S
C2977 H2985 0.960 1_556 S
C2978 C2976 1.381 . S
C2978 C2979 1.394 . S
C2978 H2986 0.930 . S
C2979 C2978 1.394 . S
C2979 C2980 1.383 . S
C2979 H2987 0.929 . S
C2980 C2979 1.383 . S
C2980 C2981 1.377 1_554 S
C2981 H2965 0.930 . S
C2981 C2980 1.377 1_556 S
C2981 C2982 1.379 . S
C2982 H2966 0.931 . S
C2982 C2976 1.383 1_556 S
C2982 C2981 1.379 . S
H2983 C2977 0.959 . S
H2984 C2977 0.961 . S
H2985 C2977 0.960 1_554 S
H2986 C2978 0.930 . S
H2987 C2979 0.929 . S
H2988 C2996 0.929 . S
H2989 C2998 0.930 . S
H2990 C3000 0.930 . S
H2991 C3003 0.929 . S
H2992 C3006 0.930 . S
H2993 C3008 0.960 1_455 S
H2994 C3008 0.960 . S
H2995 C3008 0.960 . S
C2996 H2988 0.929 . S
C2996 C2997 1.377 . S
C2996 C2998 1.384 . S
C2997 C2996 1.377 . S
C2997 C3003 1.390 1_556 S
C2998 H2989 0.930 . S
C2998 C2996 1.384 . S
C2998 C2999 1.372 . S
C2999 C2998 1.372 . S
C2999 C3000 1.400 1_556 S
C2999 C3004 1.490 . S
C3000 H2990 0.930 . S
C3000 C2999 1.400 1_554 S
C3000 C3003 1.386 . S
H3001 C3017 0.930 . S
H3002 C3018 0.931 . S
C3003 H2991 0.929 . S
C3003 C2997 1.390 1_554 S
C3003 C3000 1.386 . S
C3004 C2999 1.490 . S
C3004 C3006 1.395 . S
C3004 C3007 1.403 1_556 S
H3005 C3011 0.930 . S
C3006 H2992 0.930 . S
C3006 C3004 1.395 . S
C3006 C3009 1.403 1_655 S
C3007 C3004 1.403 1_554 S
C3007 C3008 1.524 . S
C3007 C3011 1.400 1_655 S
C3008 H2993 0.960 1_655 S
C3008 H2994 0.960 . S
C3008 H2995 0.960 . S
C3008 C3007 1.524 . S
C3009 C3006 1.403 1_455 S
C3009 C3010 1.447 . S
C3009 C3013 1.495 . S
C3010 C3009 1.447 . S
C3010 C3011 1.337 1_556 S
C3010 C3012 1.467 1_556 S
C3011 H3005 0.930 . S
C3011 C3007 1.400 1_455 S
C3011 C3010 1.337 1_554 S
C3012 C3010 1.467 1_554 S
C3012 C3014 1.329 1_554 S
C3012 C3018 1.451 . S
C3013 C3009 1.495 . S
C3013 H3019 0.959 1_455 S
C3013 H3020 0.961 . S
C3013 H3021 0.960 . S
C3014 C3012 1.329 1_556 S
C3014 C3015 1.394 . S
C3014 H3022 0.930 . S
C3015 C3014 1.394 . S
C3015 C3016 1.383 1_556 S
C3015 H3023 0.929 . S
C3016 C3015 1.383 1_554 S
C3016 C3017 1.377 . S
C3017 H3001 0.930 . S
C3017 C3016 1.377 . S
C3017 C3018 1.379 . S
C3018 H3002 0.931 . S
C3018 C3012 1.451 . S
C3018 C3017 1.379 . S
H3019 C3013 0.959 1_655 S
H3020 C3013 0.961 . S
H3021 C3013 0.960 . S
H3022 C3014 0.930 . S
H3023 C3015 0.929 . S
H3024 C3032 0.929 . S
H3025 C3034 0.930 . S
H3026 C3036 0.930 . S
H3027 C3039 0.935 . S
H3028 C3042 0.930 . S
H3029 C3044 0.960 . S
H3030 C3044 0.960 . S
H3031 C3044 0.960 . S
C3032 H3024 0.929 . S
C3032 C3033 1.377 . S
C3032 C3034 1.384 . S
C3033 C3032 1.377 . S
C3033 C3039 1.383 1_554 S
C3034 H3025 0.930 . S
C3034 C3032 1.384 . S
C3034 C3035 1.372 . S
C3035 C3034 1.372 . S
C3035 C3036 1.400 1_554 S
C3035 C3040 1.490 . S
C3036 H3026 0.930 . S
C3036 C3035 1.400 1_556 S
C3036 C3039 1.387 . S
H3037 C3053 0.930 . S
H3038 C3054 0.931 . S
C3039 H3027 0.935 . S
C3039 C3033 1.383 1_556 S
C3039 C3036 1.387 . S
C3040 C3035 1.490 . S
C3040 C3042 1.395 1_554 S
C3040 C3043 1.403 . S
H3041 C3047 0.930 . S
C3042 H3028 0.930 . S
C3042 C3040 1.395 1_556 S
C3042 C3045 1.403 . S
C3043 C3040 1.403 . S
C3043 C3044 1.524 . S
C3043 C3047 1.400 . S
C3044 H3029 0.960 . S
C3044 H3030 0.960 . S
C3044 H3031 0.960 . S
C3044 C3043 1.524 . S
C3045 C3042 1.403 . S
C3045 C3046 1.392 . S
C3045 C3049 1.495 . S
C3046 C3045 1.392 . S
C3046 C3047 1.385 1_556 S
C3046 C3048 1.478 . S
C3047 H3041 0.930 . S
C3047 C3043 1.400 . S
C3047 C3046 1.385 1_554 S
C3048 C3046 1.478 . S
C3048 C3050 1.381 1_556 S
C3048 C3054 1.383 . S
C3049 C3045 1.495 . S
C3049 H3055 0.959 . S
C3049 H3056 0.961 . S
C3049 H3057 0.960 . S
C3050 C3048 1.381 1_554 S
C3050 C3051 1.399 . S
C3050 H3058 0.930 . S
C3051 C3050 1.399 . S
C3051 C3052 1.356 1_554 S
C3051 H3059 0.955 . S
C3052 C3051 1.356 1_556 S
C3052 C3053 1.377 . S
C3053 H3037 0.930 . S
C3053 C3052 1.377 . S
C3053 C3054 1.379 . S
C3054 H3038 0.931 . S
C3054 C3048 1.383 . S
C3054 C3053 1.379 . S
H3055 C3049 0.959 . S
H3056 C3049 0.961 . S
H3057 C3049 0.960 . S
H3058 C3050 0.930 . S
H3059 C3051 0.955 . S
C477 C3 1.185 . S
C496 C18 1.262 . S
C513 C16 1.187 . S
C532 C29 1.270 . S
C549 C5 1.262 . S
C568 C31 1.233 . S
C585 C44 1.208 . S
C604 C68 1.256 . S
C621 C57 1.202 . S
C640 C42 1.253 . S
C657 C55 1.270 . S
C676 C70 1.175 . S
C693 C83 1.196 . S
C712 C94 1.245 . S
C729 C107 1.264 . S
C748 C96 1.149 . S
C765 C81 1.260 . S
C784 C109 1.217 . S
C801 C146 1.270 . S
C820 C122 1.240 . S
C837 C135 1.211 . S
C856 C120 1.254 . S
C873 C148 1.207 . S
C892 C133 1.272 . S
C909 C174 1.270 . S
C928 C159 1.241 . S
C945 C172 1.209 . S
C964 C187 1.260 . S
C981 C185 1.209 . S
C1000 C161 1.260 . S
C1017 C200 1.202 . S
C1036 C224 1.249 . S
C1053 C213 1.209 . S
C1072 C198 1.259 . S
C1089 C226 1.192 . S
C1108 C211 1.272 . S
C1125 C252 1.310 . S
C1144 C239 1.272 . S
C1161 C250 1.243 . S
C1180 C265 1.310 . S
C1197 C237 1.317 . S
C1216 C263 1.198 . S
C1233 C302 1.157 . S
C1252 C276 1.101 . S
C1269 C289 1.104 . S
C1288 C278 1.151 . S
C1305 C291 1.161 . S
C1324 C304 1.059 . S
C1341 C330 1.312 . S
C1360 C315 1.273 . S
C1377 C328 1.244 . S
C1396 C343 1.326 . S
C1413 C341 1.240 . S
C1432 C317 1.328 . S
C1449 C382 1.158 . S
C1468 C354 1.147 . S
C1485 C367 1.107 . S
C1504 C356 1.138 . S
C1521 C369 1.158 . S
C1540 C380 1.062 . S
C1557 C395 1.198 . S
C1576 C408 1.281 . S
C1593 C406 1.204 . S
C1612 C421 1.255 . S
C1629 C419 1.199 . S
C1648 C393 1.279 . S
C1665 C460 1.273 . S
C1684 C432 1.157 . S
C1701 C434 1.269 . S
C1720 C447 1.188 . S
C1737 C458 1.201 . S
C1756 C445 1.274 . S
C1773 C49 1.739 . S
C1792 C4 1.717 . S
C1809 C17 1.740 . S
C1828 C62 1.718 . S
C1845 C75 1.738 . S
C1864 C36 1.721 . S
C1881 C127 1.733 . S
C1900 C88 1.735 . S
C1917 C101 1.734 . S
C1936 C140 1.738 . S
C1953 C153 1.732 . S
C1972 C114 1.729 . S
C1989 C160 1.733 . S
C2008 C205 1.737 . S
C2025 C173 1.735 . S
C2044 C218 1.726 . S
C2061 C186 1.733 . S
C2080 C231 1.727 . S
C2097 C277 1.761 . S
C2116 C244 1.750 . S
C2133 C290 1.761 . S
C2152 C251 1.762 . S
C2169 C264 1.765 . S
C2188 C309 1.744 . S
C2205 C355 1.760 . S
C2224 C316 1.736 . S
C2241 C368 1.761 . S
C2260 C329 1.733 . S
C2277 C342 1.765 . S
C2296 C381 1.726 . S
C2313 C400 1.737 . S
C2332 C433 1.735 . S
C2349 C452 1.736 . S
C2368 C407 1.745 . S
C2385 C420 1.734 . S
C2404 C459 1.746 . S
C2421 C10 1.752 . S
C2440 C238 1.766 . S
C2457 C23 1.743 . S
C2476 C257 1.739 . S
C2493 C30 1.752 . S
C2512 C270 1.762 . S
C2529 C439 1.726 . S
C2548 C43 1.707 . S
C2565 C446 1.732 . S
C2584 C56 1.754 . S
C2601 C69 1.728 . S
C2620 C465 1.699 . S
C2637 C82 1.747 . S
C2656 C322 1.714 . S
C2673 C335 1.739 . S
C2692 C95 1.720 . S
C2709 C348 1.738 . S
C2728 C108 1.717 . S
C2745 C199 1.726 . S
C2764 C121 1.710 . S
C2781 C212 1.730 . S
C2800 C134 1.699 . S
C2817 C225 1.726 . S
C2836 C147 1.732 . S
C2853 C394 1.719 . S
C2872 C166 1.724 . S
C2889 C179 1.729 . S
C2908 C413 1.747 . S
C2925 C192 1.721 . S
C2944 C426 1.736 . S
C2961 C283 1.597 . S
C2980 C361 1.574 . S
C2997 C296 1.606 . S
C3016 C374 1.598 . S
C3033 C387 1.604 . S
C3052 C303 1.592 . S
