# Generated by pormake.
# Topology uov, (4)-cn, num edge types: 1
# Building blocks:
#     Node 0, Type 0, BuildingBlock: UXUYUI_clean_sbu_0, # of connection points: 4
#     Node 1, Type 0, BuildingBlock: UXUYUI_clean_sbu_0, # of connection points: 4
#     Node 2, Type 0, BuildingBlock: UXUYUI_clean_sbu_0, # of connection points: 4
#     Node 3, Type 0, BuildingBlock: UXUYUI_clean_sbu_0, # of connection points: 4
#     Node 4, Type 0, BuildingBlock: UXUYUI_clean_sbu_0, # of connection points: 4
#     Node 5, Type 0, BuildingBlock: UXUYUI_clean_sbu_0, # of connection points: 4
#     Node 6, Type 0, BuildingBlock: UXUYUI_clean_sbu_0, # of connection points: 4
#     Node 7, Type 0, BuildingBlock: UXUYUI_clean_sbu_0, # of connection points: 4
#     Edge 8, Type (0, 0), BuildingBlock: TEMPAE_clean_linker_10, # of connection points: 2
#     Edge 9, Type (0, 0), BuildingBlock: TEMPAE_clean_linker_10, # of connection points: 2
#     Edge 10, Type (0, 0), BuildingBlock: TEMPAE_clean_linker_10, # of connection points: 2
#     Edge 11, Type (0, 0), BuildingBlock: TEMPAE_clean_linker_10, # of connection points: 2
#     Edge 12, Type (0, 0), BuildingBlock: TEMPAE_clean_linker_10, # of connection points: 2
#     Edge 13, Type (0, 0), BuildingBlock: TEMPAE_clean_linker_10, # of connection points: 2
#     Edge 14, Type (0, 0), BuildingBlock: TEMPAE_clean_linker_10, # of connection points: 2
#     Edge 15, Type (0, 0), BuildingBlock: TEMPAE_clean_linker_10, # of connection points: 2
#     Edge 16, Type (0, 0), BuildingBlock: TEMPAE_clean_linker_10, # of connection points: 2
#     Edge 17, Type (0, 0), BuildingBlock: TEMPAE_clean_linker_10, # of connection points: 2
#     Edge 18, Type (0, 0), BuildingBlock: TEMPAE_clean_linker_10, # of connection points: 2
#     Edge 19, Type (0, 0), BuildingBlock: TEMPAE_clean_linker_10, # of connection points: 2
#     Edge 20, Type (0, 0), BuildingBlock: TEMPAE_clean_linker_10, # of connection points: 2
#     Edge 21, Type (0, 0), BuildingBlock: TEMPAE_clean_linker_10, # of connection points: 2
#     Edge 22, Type (0, 0), BuildingBlock: TEMPAE_clean_linker_10, # of connection points: 2
#     Edge 23, Type (0, 0), BuildingBlock: TEMPAE_clean_linker_10, # of connection points: 2
# Relax obj value: 0.339
# Max RMSD: 0.266
# Mean RMSD: 0.265
data_MOF--net-uov--node1-UXUYUI_clean_sbu_0--edge1-TEMPAE_clean_linker_10
_symmetry_space_group_name_H-M    P1
_symmetry_Int_Tables_number       1
_symmetry_cell_setting            triclinic
loop_
_symmetry_equiv_pos_as_xyz
'x, y, z'
_cell_length_a     43.995602
_cell_length_b     44.019229
_cell_length_c     62.736707
_cell_angle_alpha  89.982716
_cell_angle_beta   90.072272
_cell_angle_gamma 90.229346
loop_
_atom_site_label
_atom_site_type_symbol
_atom_site_fract_x
_atom_site_fract_y
_atom_site_fract_z
_atom_type_partial_charge
Li0 Li 0.03371 0.23017 0.61962 0.0
Li1 Li 0.02479 0.27992 0.60443 0.0
Li2 Li 0.98853 0.23897 0.59926 0.0
Li3 Li 0.03775 0.23899 0.58132 0.0
C4 C 0.97284 0.2625 0.63533 0.0
N5 N 0.91509 0.27012 0.65168 0.0
C6 C 0.95825 0.29054 0.63349 0.0
C7 C 0.9581 0.23837 0.64553 0.0
C8 C 0.92906 0.29393 0.64186 0.0
C9 C 0.92889 0.24267 0.65366 0.0
C10 C 0.08303 0.27812 0.6104 0.0
C11 C 0.11315 0.3227 0.60278 0.0
N12 N 0.12121 0.32437 0.62368 0.0
C13 C 0.09165 0.28023 0.6318 0.0
C14 C 0.09392 0.29945 0.59574 0.0
C15 C 0.11098 0.30379 0.6382 0.0
C16 C 0.07776 0.19384 0.63919 0.0
N17 N 0.0517 0.20945 0.64281 0.0
C18 C 0.0537 0.19751 0.67989 0.0
C19 C 0.03952 0.2116 0.66263 0.0
C20 C 0.08063 0.18103 0.67666 0.0
C21 C 0.09249 0.1791 0.65591 0.0
H22 H 0.08721 0.19307 0.6233 0.0
H23 H 0.01915 0.22477 0.6651 0.0
C24 C 0.02664 0.34203 0.59351 0.0
N25 N 0.02849 0.32192 0.60986 0.0
C26 C 0.02765 0.37312 0.59754 0.0
C27 C 0.03242 0.36218 0.6352 0.0
C28 C 0.03162 0.33125 0.6304 0.0
C29 C 0.03016 0.38348 0.61864 0.0
H30 H 0.02367 0.33396 0.5774 0.0
H31 H 0.03282 0.31461 0.64306 0.0
C32 C 0.02517 0.17655 0.60226 0.0
N33 N 0.0433 0.11973 0.61589 0.0
C34 C 0.04956 0.16198 0.59237 0.0
C35 C 0.00991 0.16214 0.619 0.0
C36 C 0.05838 0.13326 0.5995 0.0
C37 C 0.01947 0.13345 0.6257 0.0
C38 C 0.00258 0.27053 0.55626 0.0
C39 C 0.97947 0.2556 0.54503 0.0
C40 C 0.02492 0.28661 0.54507 0.0
C41 C 0.97911 0.25702 0.52278 0.0
C42 C 0.0238 0.28742 0.52282 0.0
N43 N 0.0011 0.27275 0.51223 0.0
C44 C 0.92707 0.25199 0.59032 0.0
C45 C 0.93857 0.1997 0.59424 0.0
C46 C 0.8979 0.24493 0.583 0.0
N47 N 0.9469 0.22939 0.59517 0.0
C48 C 0.90966 0.19162 0.58708 0.0
C49 C 0.88929 0.21435 0.5806 0.0
H50 H 0.93456 0.2754 0.59083 0.0
H51 H 0.95497 0.18222 0.59775 0.0
C52 C 0.08739 0.23428 0.55256 0.0
N53 N 0.05792 0.22652 0.55617 0.0
C54 C 0.10246 0.22319 0.53462 0.0
C55 C 0.05633 0.19693 0.52433 0.0
C56 C 0.04223 0.20839 0.54248 0.0
C57 C 0.08701 0.20385 0.52041 0.0
H58 H 0.09942 0.24835 0.56391 0.0
H59 H 0.01891 0.20233 0.54595 0.0
O60 O 0.0012 0.25855 0.62691 0.0
O61 O 0.06354 0.25566 0.60391 0.0
O62 O 0.01644 0.20486 0.59571 0.0
O63 O 0.0036 0.26907 0.57806 0.0
H64 H 0.96917 0.30937 0.62545 0.0
H65 H 0.96898 0.21647 0.64696 0.0
H66 H 0.91745 0.31546 0.64048 0.0
H67 H 0.91715 0.22415 0.66151 0.0
H68 H 0.12158 0.33948 0.59164 0.0
H69 H 0.08328 0.26406 0.64339 0.0
H70 H 0.08722 0.29834 0.57916 0.0
H71 H 0.11775 0.30577 0.65472 0.0
H72 H 0.04408 0.20017 0.69565 0.0
H73 H 0.11296 0.1664 0.65259 0.0
H74 H 0.02531 0.38889 0.58439 0.0
H75 H 0.03441 0.36938 0.65165 0.0
H76 H 0.06178 0.17281 0.57948 0.0
H77 H 0.99115 0.17318 0.62695 0.0
H78 H 0.07729 0.12178 0.59206 0.0
H79 H 0.008 0.12214 0.63873 0.0
H80 H 0.9622 0.24272 0.55331 0.0
H81 H 0.04332 0.29781 0.55343 0.0
H82 H 0.96141 0.24549 0.5139 0.0
H83 H 0.04108 0.29958 0.51397 0.0
H84 H 0.88285 0.26311 0.5782 0.0
H85 H 0.90425 0.16777 0.5851 0.0
H86 H 0.12627 0.22867 0.53239 0.0
H87 H 0.04351 0.18232 0.5137 0.0
Li88 Li 0.24597 0.98365 0.39367 0.0
Li89 Li 0.28817 0.95349 0.3809 0.0
Li90 Li 0.23835 0.94234 0.36836 0.0
Li91 Li 0.2538 0.93146 0.40554 0.0
C92 C 0.27571 0.00676 0.35807 0.0
N93 N 0.30591 0.05938 0.34645 0.0
C94 C 0.29473 0.02159 0.37265 0.0
C95 C 0.27208 0.01871 0.33759 0.0
C96 C 0.3098 0.04815 0.36646 0.0
C97 C 0.28753 0.04534 0.33202 0.0
C98 C 0.29199 0.96485 0.43039 0.0
C99 C 0.31783 0.93589 0.45755 0.0
N100 N 0.31488 0.95957 0.4713 0.0
C101 C 0.28963 0.98905 0.44471 0.0
C102 C 0.30661 0.93821 0.43679 0.0
C103 C 0.3012 0.98589 0.46534 0.0
C104 C 0.22133 0.01935 0.42446 0.0
N105 N 0.23022 0.0209 0.40379 0.0
C106 C 0.21388 0.07254 0.40144 0.0
C107 C 0.22638 0.0466 0.39204 0.0
C108 C 0.20543 0.07172 0.42301 0.0
C109 C 0.2091 0.04463 0.43449 0.0
H110 H 0.22374 -0.00173 0.43314 0.0
H111 H 0.2327 0.04698 0.37541 0.0
C112 C 0.33693 0.9613 0.3517 0.0
N113 N 0.32949 0.95672 0.37251 0.0
C114 C 0.36698 0.96773 0.34602 0.0
C115 C 0.381 0.9637 0.38321 0.0
C116 C 0.35086 0.95727 0.38812 0.0
C117 C 0.3892 0.96973 0.36202 0.0
H118 H 0.31935 0.96097 0.33964 0.0
H119 H 0.34442 0.9537 0.40447 0.0
C120 C 0.18739 0.96197 0.39204 0.0
N121 N 0.12999 0.98572 0.38614 0.0
C122 C 0.16412 0.95499 0.40638 0.0
C123 C 0.18155 0.98113 0.37476 0.0
C124 C 0.13523 0.9672 0.4031 0.0
C125 C 0.15236 0.99288 0.37203 0.0
C126 C 0.29218 0.89735 0.36964 0.0
C127 C 0.29502 0.89709 0.34745 0.0
C128 C 0.31386 0.88259 0.38217 0.0
C129 C 0.31979 0.88241 0.33817 0.0
C130 C 0.33831 0.86817 0.37229 0.0
N131 N 0.34077 0.86841 0.35068 0.0
C132 C 0.22228 0.93634 0.32525 0.0
C133 C 0.18953 0.91095 0.34946 0.0
C134 C 0.20541 0.9256 0.30796 0.0
N135 N 0.21422 0.92864 0.34543 0.0
C136 C 0.17177 0.90002 0.33267 0.0
C137 C 0.17981 0.90705 0.31154 0.0
H138 H 0.24216 0.95036 0.3226 0.0
H139 H 0.18371 0.90526 0.36572 0.0
C140 C 0.23389 0.92072 0.44654 0.0
N141 N 0.246 0.90638 0.42939 0.0
C142 C 0.22558 0.90425 0.46455 0.0
C143 C 0.2422 0.85835 0.44693 0.0
C144 C 0.25053 0.87585 0.42925 0.0
C145 C 0.2293 0.8726 0.4648 0.0
H146 H 0.23019 0.94497 0.44601 0.0
H147 H 0.25992 0.86506 0.41525 0.0
O148 O 0.261 0.98042 0.36351 0.0
O149 O 0.28053 0.96752 0.41015 0.0
O150 O 0.21591 0.95061 0.39528 0.0
O151 O 0.26845 0.91222 0.379 0.0
H152 H 0.29793 0.01281 0.38856 0.0
H153 H 0.2575 0.00748 0.32611 0.0
H154 H 0.32459 0.05983 0.37757 0.0
H155 H 0.28492 0.05483 0.31622 0.0
H156 H 0.3289 0.91526 0.46274 0.0
H157 H 0.27933 0.01022 0.4399 0.0
H158 H 0.309 0.9194 0.42587 0.0
H159 H 0.29941 0.00442 0.47658 0.0
H160 H 0.21101 0.09297 0.39204 0.0
H161 H 0.20205 0.04283 0.45099 0.0
H162 H 0.37253 0.97229 0.32951 0.0
H163 H 0.39765 0.96455 0.39593 0.0
H164 H 0.16839 0.94036 0.41993 0.0
H165 H 0.19939 0.98702 0.36362 0.0
H166 H 0.11697 0.96199 0.41406 0.0
H167 H 0.14751 0.00774 0.35873 0.0
H168 H 0.2785 0.90843 0.33752 0.0
H169 H 0.31188 0.88227 0.39934 0.0
H170 H 0.32239 0.88223 0.32103 0.0
H171 H 0.35534 0.85678 0.3818 0.0
H172 H 0.21281 0.9312 0.29198 0.0
H173 H 0.15199 0.88622 0.33623 0.0
H174 H 0.21512 0.91603 0.47779 0.0
H175 H 0.24531 0.83396 0.44652 0.0
Li176 Li 0.95632 0.75786 0.62619 0.0
Li177 Li 0.97 0.70911 0.61281 0.0
Li178 Li -0.00235 0.7534 0.60164 0.0
Li179 Li 0.94648 0.74497 0.58942 0.0
C180 C 0.01407 0.7524 0.64398 0.0
N181 N 0.05199 0.78499 0.67074 0.0
C182 C 0.03422 0.73725 0.65749 0.0
C183 C 0.01319 0.78415 0.64409 0.0
C184 C 0.05322 0.75413 0.6709 0.0
C185 C 0.03254 0.80021 0.65773 0.0
C186 C 0.91224 0.71366 0.6316 0.0
C187 C 0.86446 0.69956 0.64768 0.0
N188 N 0.87963 0.68907 0.66508 0.0
C189 C 0.92736 0.7027 0.64962 0.0
C190 C 0.88055 0.71207 0.63059 0.0
C191 C 0.91047 0.69037 0.66638 0.0
C192 C 0.92334 0.80409 0.64624 0.0
N193 N 0.94073 0.77921 0.64998 0.0
C194 C 0.93384 0.78428 0.68754 0.0
C195 C 0.94645 0.7693 0.67011 0.0
C196 C 0.91567 0.80994 0.68414 0.0
C197 C 0.91068 0.82008 0.66323 0.0
H198 H 0.91907 0.81128 0.63003 0.0
H199 H 0.9606 0.74961 0.67264 0.0
C200 C 0.00443 0.65857 0.62231 0.0
N201 N 0.97537 0.6675 0.61876 0.0
C202 C 0.01103 0.62797 0.62545 0.0
C203 C 0.95747 0.61647 0.62166 0.0
C204 C 0.95195 0.64729 0.61843 0.0
C205 C 0.9874 0.60642 0.62496 0.0
H206 H 0.02256 0.67524 0.62219 0.0
H207 H 0.92907 0.65501 0.61531 0.0
C208 C 0.96766 0.8037 0.58443 0.0
N209 N 0.97455 0.8447 0.55138 0.0
C210 C 0.98215 0.79497 0.56559 0.0
C211 C 0.95673 0.83332 0.58645 0.0
C212 C 0.98541 0.81601 0.54908 0.0
C213 C 0.96041 0.8537 0.56957 0.0
C214 C 0.97526 0.69644 0.56998 0.0
C215 C -0.00344 0.68588 0.55526 0.0
C216 C 0.94644 0.68298 0.57085 0.0
C217 C 0.9887 0.66195 0.54168 0.0
C218 C 0.93947 0.65909 0.55702 0.0
N219 N 0.96057 0.64915 0.54284 0.0
C220 C 0.0553 0.7474 0.58381 0.0
C221 C 0.04409 0.79762 0.59489 0.0
C222 C 0.08215 0.75722 0.57417 0.0
N223 N 0.03657 0.76772 0.59335 0.0
C224 C 0.07072 0.80843 0.58549 0.0
C225 C 0.08965 0.78826 0.57438 0.0
H226 H 0.04865 0.72376 0.58286 0.0
H227 H 0.02872 0.81333 0.60251 0.0
C228 C 0.89056 0.76012 0.57073 0.0
N229 N 0.91943 0.75139 0.56627 0.0
C230 C 0.87116 0.76923 0.55433 0.0
C231 C 0.9113 0.75917 0.52904 0.0
C232 C 0.92979 0.74999 0.54589 0.0
C233 C 0.88179 0.76972 0.53319 0.0
H234 H 0.88303 0.76109 0.58712 0.0
H235 H 0.95291 0.74315 0.54276 0.0
O236 O 0.99537 0.736 0.63083 0.0
O237 O 0.92816 0.72604 0.61498 0.0
O238 O 0.96399 0.78352 0.60086 0.0
O239 O 0.98283 0.71978 0.58343 0.0
H240 H 0.03514 0.71267 0.65761 0.0
H241 H -0.0023 0.79633 0.63384 0.0
H242 H 0.06893 0.74268 0.68144 0.0
H243 H 0.03208 0.82477 0.65798 0.0
H244 H 0.83992 0.69821 0.64712 0.0
H245 H 0.95186 0.7037 0.65071 0.0
H246 H 0.86851 0.72044 0.61674 0.0
H247 H 0.92188 0.68184 0.68043 0.0
H248 H 0.93833 0.77602 0.7035 0.0
H249 H 0.89658 0.83969 0.66007 0.0
H250 H 0.03447 0.62119 0.62756 0.0
H251 H 0.93855 0.60066 0.62136 0.0
H252 H 0.99083 0.7722 0.56369 0.0
H253 H 0.94551 0.8405 0.60093 0.0
H254 H -0.00344 0.80952 0.53442 0.0
H255 H 0.95202 0.87669 0.57092 0.0
H256 H 0.01893 0.6961 0.55432 0.0
H257 H 0.92957 0.69083 0.58205 0.0
H258 H 0.00498 0.65355 0.53022 0.0
H259 H 0.91728 0.64845 0.55755 0.0
H260 H 0.09594 0.74096 0.56561 0.0
H261 H 0.07588 0.83249 0.58621 0.0
H262 H 0.84844 0.77677 0.55824 0.0
H263 H 0.92069 0.75958 0.51309 0.0
Li264 Li 0.76006 0.04209 0.37293 0.0
Li265 Li 0.74547 0.05055 0.41027 0.0
Li266 Li 0.75351 -0.0007 0.39752 0.0
Li267 Li 0.71049 0.03012 0.386 0.0
C268 C 0.81188 0.02235 0.39382 0.0
N269 N 0.86907 0.00155 0.38326 0.0
C270 C 0.83725 0.03188 0.40548 0.0
C271 C 0.81556 0.00218 0.37681 0.0
C272 C 0.86599 0.02112 0.39989 0.0
C273 C 0.84467 0.99195 0.37172 0.0
C274 C 0.70641 0.08702 0.37579 0.0
C275 C 0.65863 0.11326 0.37921 0.0
N276 N 0.65808 0.11768 0.35775 0.0
C277 C 0.70549 0.09206 0.3538 0.0
C278 C 0.68293 0.09793 0.38863 0.0
C279 C 0.68083 0.10753 0.34498 0.0
C280 C 0.77381 0.05023 0.32965 0.0
N281 N 0.7831 0.05682 0.34979 0.0
C282 C 0.8251 0.0857 0.33665 0.0
C283 C 0.80815 0.07415 0.35361 0.0
C284 C 0.81567 0.07979 0.31569 0.0
C285 C 0.78973 0.06181 0.31222 0.0
H286 H 0.75371 0.03644 0.32718 0.0
H287 H 0.8148 0.07919 0.36984 0.0
C288 C 0.7709 0.06157 0.4497 0.0
N289 N 0.75354 0.07491 0.43447 0.0
C290 C 0.77964 0.0778 0.46773 0.0
C291 C 0.75217 0.12127 0.45423 0.0
C292 C 0.74384 0.10406 0.4364 0.0
C293 C 0.77077 0.10824 0.46998 0.0
H294 H 0.77828 0.03835 0.44764 0.0
H295 H 0.73026 0.11413 0.42391 0.0
C296 C 0.72275 0.97836 0.3611 0.0
N297 N 0.69228 0.9272 0.3469 0.0
C298 C 0.70106 0.9642 0.37407 0.0
C299 C 0.72887 0.96651 0.3409 0.0
C300 C 0.6859 0.93838 0.36659 0.0
C301 C 0.71328 0.94059 0.33403 0.0
C302 C 0.71207 0.01674 0.43593 0.0
C303 C 0.72261 0.99519 0.45051 0.0
C304 C 0.69421 0.04083 0.44314 0.0
C305 C 0.7158 -0.00145 0.47212 0.0
C306 C 0.68793 0.04345 0.46488 0.0
N307 N 0.6988 0.02245 0.47881 0.0
C308 C 0.78856 0.96468 0.42401 0.0
C309 C 0.76454 0.93367 0.39806 0.0
C310 C 0.80152 0.93938 0.43362 0.0
N311 N 0.77013 0.96148 0.40676 0.0
C312 C 0.77673 0.90755 0.40741 0.0
C313 C 0.79533 0.91034 0.42549 0.0
H314 H 0.79253 0.98699 0.43068 0.0
H315 H 0.7505 0.93149 0.38406 0.0
C316 C 0.66172 0.02755 0.35663 0.0
N317 N 0.66917 0.02755 0.37768 0.0
C318 C 0.63175 0.0221 0.35031 0.0
C319 C 0.61789 0.01722 0.38747 0.0
C320 C 0.64799 0.02288 0.39305 0.0
C321 C 0.60961 0.01623 0.36586 0.0
H322 H 0.67925 0.03082 0.34477 0.0
H323 H 0.65464 0.02256 0.40961 0.0
O324 O 0.78362 0.03264 0.39924 0.0
O325 O 0.7301 0.07138 0.38466 0.0
O326 O 0.73717 0.00433 0.36765 0.0
O327 O 0.71888 0.01405 0.41471 0.0
H328 H 0.83473 0.04741 0.41874 0.0
H329 H 0.79619 0.99446 0.36764 0.0
H330 H 0.88584 0.02831 0.40877 0.0
H331 H 0.84786 0.97636 0.35859 0.0
H332 H 0.64021 0.12164 0.38895 0.0
H333 H 0.72348 0.08391 0.34362 0.0
H334 H 0.68333 0.09447 0.40567 0.0
H335 H 0.67975 0.11141 0.32797 0.0
H336 H 0.84487 0.09973 0.33985 0.0
H337 H 0.78193 0.05681 0.29621 0.0
H338 H 0.79364 0.06678 0.47963 0.0
H339 H 0.74513 0.14476 0.45529 0.0
H340 H 0.69604 0.97288 0.38978 0.0
H341 H 0.74545 0.97731 0.33062 0.0
H342 H 0.66908 0.92721 0.37645 0.0
H343 H 0.71781 0.93117 0.31844 0.0
H344 H 0.73571 0.97593 0.44522 0.0
H345 H 0.68563 0.05758 0.43211 0.0
H346 H 0.72396 0.9821 0.48357 0.0
H347 H 0.67444 0.06219 0.47068 0.0
H348 H 0.81544 0.94242 0.44773 0.0
H349 H 0.77168 0.88547 0.40063 0.0
H350 H 0.62619 0.02133 0.33349 0.0
H351 H 0.60133 0.01319 0.39993 0.0
Li352 Li 0.94078 0.24653 0.09457 0.0
Li353 Li 0.95308 0.23196 0.1309 0.0
Li354 Li 0.96815 0.28296 0.11564 0.0
Li355 Li 0.99306 0.2379 0.10327 0.0
C356 C 0.89576 0.26877 0.12168 0.0
N357 N 0.83321 0.27437 0.12317 0.0
C358 C 0.87789 0.24532 0.13008 0.0
C359 C 0.88177 0.29524 0.11429 0.0
C360 C 0.84632 0.24854 0.13063 0.0
C361 C 0.85014 0.29757 0.11509 0.0
C362 C 0.94529 0.18657 0.09301 0.0
C363 C 0.93934 0.1597 0.05976 0.0
N364 N 0.91453 0.14518 0.06779 0.0
C365 C 0.91985 0.17126 0.10099 0.0
C366 C 0.95528 0.18064 0.07228 0.0
C367 C 0.90458 0.15043 0.08798 0.0
C368 C 0.9229 0.24301 0.05147 0.0
N369 N 0.91233 0.23952 0.07171 0.0
C370 C 0.86699 0.21585 0.05866 0.0
C371 C 0.88464 0.22678 0.07548 0.0
C372 C 0.87803 0.21785 0.03774 0.0
C373 C 0.90592 0.23251 0.03415 0.0
H374 H 0.94542 0.25208 0.04881 0.0
H375 H 0.87713 0.22288 0.09155 0.0
C376 C 0.92672 0.22715 0.1713 0.0
N377 N 0.94108 0.2112 0.1558 0.0
C378 C 0.91588 0.21235 0.18942 0.0
C379 C 0.93622 0.16527 0.17574 0.0
C380 C 0.94622 0.18092 0.1577 0.0
C381 C 0.92041 0.18091 0.1918 0.0
H382 H 0.92298 0.25125 0.16926 0.0
H383 H 0.95787 0.1689 0.14511 0.0
C384 C 0.97379 0.29672 0.07396 0.0
N385 N 0.96859 0.34995 0.0509 0.0
C386 C -0.00065 0.30957 0.06424 0.0
C387 C 0.94557 0.31085 0.07183 0.0
C388 C -0.00374 0.33652 0.05268 0.0
C389 C 0.9434 0.33775 0.06014 0.0
C390 C 0.02087 0.2453 0.13949 0.0
C391 C 0.04511 0.2659 0.13999 0.0
C392 C 0.02578 0.21492 0.14492 0.0
C393 C 0.07398 0.25568 0.14581 0.0
C394 C 0.05498 0.20558 0.15064 0.0
N395 N 0.07828 0.22598 0.15095 0.0
C396 C 0.95273 0.34135 0.13113 0.0
C397 C 0.00206 0.33633 0.11634 0.0
C398 C 0.95762 0.37229 0.13466 0.0
N399 N 0.97472 0.32428 0.12188 0.0
C400 C 0.00805 0.36702 0.11978 0.0
C401 C 0.98555 0.38542 0.12886 0.0
H402 H 0.93135 0.331 0.13559 0.0
H403 H 0.01901 0.32212 0.10891 0.0
C404 C 0.03385 0.19204 0.091 0.0
N405 N 0.03038 0.22252 0.09316 0.0
C406 C 0.05959 0.18047 0.08097 0.0
C407 C 0.07838 0.23183 0.07668 0.0
C408 C 0.05229 0.24239 0.08684 0.0
C409 C 0.08182 0.20054 0.07306 0.0
H410 H 0.01616 0.1768 0.09644 0.0
H411 H 0.04898 0.26649 0.08909 0.0
O412 O 0.92679 0.26633 0.12147 0.0
O413 O 0.96002 0.20769 0.10527 0.0
O414 O 0.97651 0.27082 0.0859 0.0
O415 O 0.99262 0.2546 0.13321 0.0
H416 H 0.88814 0.22452 0.13567 0.0
H417 H 0.89514 0.31393 0.10814 0.0
H418 H 0.83224 0.23044 0.13691 0.0
H419 H 0.83905 0.3179 0.10937 0.0
H420 H 0.9466 0.15512 0.04361 0.0
H421 H 0.9117 0.17576 0.11694 0.0
H422 H 0.97481 0.19249 0.06582 0.0
H423 H 0.88472 0.13858 0.09388 0.0
H424 H 0.84562 0.20458 0.06208 0.0
H425 H 0.9155 0.23395 0.01828 0.0
H426 H 0.90338 0.22533 0.20113 0.0
H427 H 0.94075 0.14118 0.17701 0.0
H428 H 0.02138 0.29897 0.06567 0.0
H429 H 0.92558 0.30108 0.0791 0.0
H430 H 0.01588 0.34678 0.04514 0.0
H431 H 0.92168 0.34893 0.05841 0.0
H432 H 0.04172 0.28949 0.13587 0.0
H433 H 0.00734 0.19863 0.14439 0.0
H434 H 0.09297 0.27135 0.1462 0.0
H435 H 0.05915 0.1821 0.15474 0.0
H436 H 0.93983 0.38581 0.14181 0.0
H437 H 0.0297 0.37645 0.11482 0.0
H438 H 0.06163 0.15615 0.07882 0.0
H439 H 0.09487 0.24809 0.07075 0.0
Li440 Li 0.24403 0.06123 0.90287 0.0
Li441 Li 0.23501 0.011 0.89079 0.0
Li442 Li 0.28275 0.035 0.88288 0.0
Li443 Li 0.23354 0.05208 0.86522 0.0
C444 C 0.26026 0.01699 0.93182 0.0
N445 N 0.24684 0.00185 0.97353 0.0
C446 C 0.23011 0.01646 0.93881 0.0
C447 C 0.2836 0.00986 0.94609 0.0
C448 C 0.22378 0.00873 0.95993 0.0
C449 C 0.27635 0.00226 0.9671 0.0
C450 C 0.17612 0.04059 0.88838 0.0
C451 C 0.13154 0.02657 0.86813 0.0
N452 N 0.1141 0.03082 0.88575 0.0
C453 C 0.15769 0.04503 0.90625 0.0
C454 C 0.1629 0.03144 0.86912 0.0
C455 C 0.12642 0.03987 0.90462 0.0
C456 C 0.21048 0.10544 0.92394 0.0
N457 N 0.23665 0.08931 0.92516 0.0
C458 C 0.24715 0.10922 0.95982 0.0
C459 C 0.25544 0.09149 0.94232 0.0
C460 C 0.21943 0.12495 0.95945 0.0
C461 C 0.20138 0.12351 0.94098 0.0
H462 H 0.19614 0.10337 0.91 0.0
H463 H 0.27636 0.07869 0.94272 0.0
C464 C 0.23861 0.95307 0.9091 0.0
N465 N 0.21889 0.97202 0.89901 0.0
C466 C 0.22808 0.92662 0.91894 0.0
C467 C 0.1775 0.93845 0.90652 0.0
C468 C 0.18903 0.96456 0.89685 0.0
C469 C 0.19695 0.9197 0.91835 0.0
H470 H 0.26235 0.95927 0.91039 0.0
H471 H 0.1738 0.97922 0.88834 0.0
C472 C 0.27497 0.1047 0.88567 0.0
N473 N 0.2891 0.16057 0.90312 0.0
C474 C 0.25611 0.12961 0.88196 0.0
C475 C 0.30108 0.10817 0.89815 0.0
C476 C 0.26363 0.15768 0.89096 0.0
C477 C 0.30782 0.13663 0.90685 0.0
C478 C 0.25243 0.98316 0.85652 0.0
C479 C 0.27445 0.96181 0.86214 0.0
C480 C 0.22666 0.97393 0.84517 0.0
C481 C 0.27009 0.93138 0.85654 0.0
C482 C 0.22314 0.94329 0.83987 0.0
N483 N 0.24473 0.92283 0.84564 0.0
C484 C 0.33904 0.00991 0.89239 0.0
C485 C 0.3397 0.04513 0.86375 0.0
C486 C 0.37028 0.0056 0.8906 0.0
N487 N 0.32459 0.0295 0.87914 0.0
C488 C 0.371 0.04141 0.86132 0.0
C489 C 0.38665 0.02157 0.87497 0.0
H490 H 0.32624 -0.00235 0.90434 0.0
H491 H 0.32743 0.06062 0.85351 0.0
C492 C 0.19414 0.08995 0.84271 0.0
N493 N 0.21608 0.0686 0.84041 0.0
C494 C 0.17988 0.10213 0.82482 0.0
C495 C 0.2117 0.07069 0.80253 0.0
C496 C 0.22515 0.05887 0.8209 0.0
C497 C 0.1886 0.09253 0.80435 0.0
H498 H 0.18742 0.09711 0.8585 0.0
H499 H 0.24278 0.0419 0.81964 0.0
O500 O 0.26713 0.02466 0.91122 0.0
O501 O 0.20672 0.04617 0.88963 0.0
O502 O 0.26751 0.07683 0.87759 0.0
O503 O 0.25592 0.01288 0.86236 0.0
H504 H 0.21179 0.02183 0.92803 0.0
H505 H 0.30709 0.01032 0.941 0.0
H506 H 0.20052 0.00819 0.96551 0.0
H507 H 0.29419 -0.00328 0.97831 0.0
H508 H 0.12107 0.01935 0.85336 0.0
H509 H 0.16737 0.05247 0.92123 0.0
H510 H 0.17669 0.02775 0.85515 0.0
H511 H 0.11193 0.04314 0.91834 0.0
H512 H 0.26183 0.11 0.97368 0.0
H513 H 0.17967 0.13494 0.9401 0.0
H514 H 0.2438 0.91275 0.92796 0.0
H515 H 0.1534 0.93354 0.90543 0.0
H516 H 0.23573 0.1272 0.87243 0.0
H517 H 0.31577 0.089 0.90128 0.0
H518 H 0.24917 0.17715 0.88833 0.0
H519 H 0.32787 0.13964 0.91664 0.0
H520 H 0.2945 0.96861 0.87096 0.0
H521 H 0.20953 0.99021 0.84056 0.0
H522 H 0.28684 0.91456 0.86092 0.0
H523 H 0.20323 0.93578 0.83118 0.0
H524 H 0.38148 0.98977 0.90122 0.0
H525 H 0.38291 0.05428 0.84918 0.0
H526 H 0.16186 0.11851 0.82704 0.0
H527 H 0.21948 0.06296 0.78709 0.0
Li528 Li 0.99519 0.75754 0.10029 0.0
Li529 Li 0.02738 0.71411 0.108 0.0
Li530 Li 0.03757 0.76352 0.12375 0.0
Li531 Li 0.04668 0.75421 0.0859 0.0
C532 C 0.9724 0.73469 0.13459 0.0
N533 N 0.91182 0.7301 0.14568 0.0
C534 C 0.95675 0.70732 0.13166 0.0
C535 C 0.95731 0.7597 0.14324 0.0
C536 C 0.92611 0.70546 0.13737 0.0
C537 C 0.92665 0.75693 0.14871 0.0
C538 C 0.0133 0.72316 0.05874 0.0
C539 C 0.03789 0.70167 0.0279 0.0
N540 N 0.01859 0.71731 0.01504 0.0
C541 C 0.99367 0.73898 0.0452 0.0
C542 C 0.03554 0.70427 0.05003 0.0
C543 C -0.00329 0.73572 0.02316 0.0
C544 C 0.94898 0.79988 0.09206 0.0
N545 N 0.9553 0.76975 0.09292 0.0
C546 C 0.90812 0.7575 0.07605 0.0
C547 C 0.9352 0.74852 0.08578 0.0
C548 C 0.90192 0.78859 0.07365 0.0
C549 C 0.92214 0.80986 0.0826 0.0
H550 H 0.96551 0.81625 0.09762 0.0
H551 H 0.94116 0.72471 0.08635 0.0
C552 C 0.03297 0.661 0.13292 0.0
N553 N 0.02703 0.6718 0.11305 0.0
C554 C 0.0317 0.62984 0.13695 0.0
C555 C 0.01748 0.62174 0.10013 0.0
C556 C 0.01923 0.65297 0.0968 0.0
C557 C 0.02377 0.60977 0.12042 0.0
H558 H 0.0384 0.67664 0.14566 0.0
H559 H 0.0137 0.66224 0.08135 0.0
C560 C 0.0359 0.81743 0.10569 0.0
N561 N 0.05662 0.87303 0.12025 0.0
C562 C 0.06254 0.83011 0.09735 0.0
C563 C 0.01971 0.83312 0.12134 0.0
C564 C 0.07264 0.85824 0.10493 0.0
C565 C 0.03061 0.86115 0.12854 0.0
C566 C 0.08567 0.7132 0.11772 0.0
C567 C 0.09305 0.71173 0.13937 0.0
C568 C 0.09669 0.69108 0.10377 0.0
C569 C 0.11116 0.68792 0.14675 0.0
C570 C 0.11467 0.66761 0.11178 0.0
N571 N 0.12146 0.66652 0.13292 0.0
C572 C 0.03765 0.78323 0.16675 0.0
C573 C 0.08078 0.7974 0.14637 0.0
C574 C 0.0497 0.79752 0.18475 0.0
N575 N 0.05326 0.78354 0.14809 0.0
C576 C 0.0935 0.81228 0.16385 0.0
C577 C 0.07804 0.81232 0.18345 0.0
H578 H 0.01604 0.77156 0.16771 0.0
H579 H 0.09284 0.79685 0.13136 0.0
C580 C 0.0576 0.78225 0.04693 0.0
N581 N 0.07097 0.76477 0.06209 0.0
C582 C 0.07398 0.79151 0.02909 0.0
C583 C 0.11801 0.76546 0.04312 0.0
C584 C 0.10054 0.75621 0.06057 0.0
C585 C 0.10463 0.78331 0.02713 0.0
H586 H 0.03427 0.78935 0.04889 0.0
H587 H 0.11068 0.74268 0.07306 0.0
O588 O 0.0022 0.73718 0.12869 0.0
O589 O 0.01106 0.72644 0.08038 0.0
O590 O 0.02587 0.78971 0.0987 0.0
O591 O 0.06765 0.73608 0.11022 0.0
H592 H 0.96803 0.6878 0.12488 0.0
H593 H 0.96905 0.78111 0.14546 0.0
H594 H 0.91367 0.68446 0.13512 0.0
H595 H 0.91463 0.77614 0.15531 0.0
H596 H 0.05511 0.68728 0.02096 0.0
H597 H 0.97657 0.75398 0.05159 0.0
H598 H 0.05107 0.69202 0.06024 0.0
H599 H 0.98177 0.74795 0.0125 0.0
H600 H 0.89333 0.74039 0.06917 0.0
H601 H 0.91801 0.83403 0.0813 0.0
H602 H 0.0368 0.62158 0.15281 0.0
H603 H 0.01051 0.60721 0.08706 0.0
H604 H 0.07545 0.81828 0.0853 0.0
H605 H -0.00077 0.82351 0.12813 0.0
H606 H 0.09327 0.86826 0.09868 0.0
H607 H 0.01844 0.87342 0.14077 0.0
H608 H 0.08466 0.72859 0.1504 0.0
H609 H 0.09119 0.69188 0.08698 0.0
H610 H 0.11693 0.68641 0.16348 0.0
H611 H 0.12319 0.65023 0.10119 0.0
H612 H 0.03724 0.79646 0.1996 0.0
H613 H 0.11518 0.8237 0.16198 0.0
H614 H 0.06311 0.80584 0.01732 0.0
H615 H 0.14169 0.75897 0.04217 0.0
Li616 Li 0.76173 0.98682 0.8958 0.0
Li617 Li 0.75047 0.93538 0.90401 0.0
Li618 Li 0.76273 0.94857 0.86824 0.0
Li619 Li 0.71414 0.9637 0.88423 0.0
C620 C 0.8176 0.96124 0.88685 0.0
N621 N 0.87432 0.98056 0.87352 0.0
C622 C 0.8438 0.94761 0.89497 0.0
C623 C 0.82025 0.98473 0.87194 0.0
C624 C 0.87227 0.9577 0.88804 0.0
C625 C 0.84913 0.99415 0.8654 0.0
C626 C 0.73312 0.97856 0.93452 0.0
C627 C 0.71644 -0.00011 0.96791 0.0
N628 N 0.74397 0.99341 0.97666 0.0
C629 C 0.76125 0.97213 0.94385 0.0
C630 C 0.71052 0.99254 0.94663 0.0
C631 C 0.76629 0.9798 0.96517 0.0
C632 C 0.76382 0.04997 0.90336 0.0
N633 N 0.77885 0.02343 0.90653 0.0
C634 C 0.81534 0.04819 0.92876 0.0
C635 C 0.80434 0.02216 0.91873 0.0
C636 C 0.79995 0.07588 0.92626 0.0
C637 C 0.77406 0.07668 0.91311 0.0
H638 H 0.74338 0.05018 0.89375 0.0
H639 H 0.81554 0.0007 0.92139 0.0
C640 C 0.78146 0.88838 0.92425 0.0
N641 N 0.75545 0.90479 0.92508 0.0
C642 C 0.7888 0.86854 0.94077 0.0
C643 C 0.74162 0.8817 0.95816 0.0
C644 C 0.73519 0.90133 0.94126 0.0
C645 C 0.76913 0.86559 0.9583 0.0
H646 H 0.79709 0.89168 0.91116 0.0
H647 H 0.71461 0.91469 0.94146 0.0
C648 C 0.72958 -0.00352 0.8482 0.0
N649 N 0.70208 0.0108 0.8099 0.0
C650 C 0.71594 0.9737 0.83591 0.0
C651 C 0.72913 0.02654 0.84107 0.0
C652 C 0.70219 0.9814 0.81658 0.0
C653 C 0.71516 0.03332 0.82164 0.0
C654 C 0.71674 0.89545 0.88477 0.0
C655 C 0.73092 0.86802 0.87974 0.0
C656 C 0.69085 0.89532 0.89766 0.0
C657 C 0.71899 0.84088 0.88778 0.0
C658 C 0.6796 0.86771 0.90537 0.0
N659 N 0.6938 0.84129 0.90032 0.0
C660 C 0.79718 0.9074 0.84537 0.0
C661 C 0.78632 0.95183 0.82544 0.0
C662 C 0.81314 0.8951 0.82825 0.0
N663 N 0.7837 0.93499 0.84355 0.0
C664 C 0.80164 0.9402 0.8078 0.0
C665 C 0.8151 0.91143 0.8091 0.0
H666 H 0.79563 0.89503 0.86022 0.0
H667 H 0.77677 0.97433 0.82464 0.0
C668 C 0.66055 -0.00363 0.88856 0.0
N669 N 0.67279 0.97152 0.87914 0.0
C670 C 0.62991 0.00312 0.8856 0.0
C671 C 0.62529 0.95877 0.86302 0.0
C672 C 0.65602 0.95285 0.86646 0.0
C673 C 0.61183 0.98409 0.87278 0.0
H674 H 0.67461 0.01077 0.89851 0.0
H675 H 0.66651 0.93331 0.85911 0.0
O676 O 0.78963 0.95133 0.89349 0.0
O677 O 0.72754 0.97142 0.91364 0.0
O678 O 0.74264 0.98969 0.86741 0.0
O679 O 0.72846 0.92235 0.87751 0.0
H680 H 0.84215 0.92942 0.90653 0.0
H681 H 0.80034 0.99563 0.86545 0.0
H682 H 0.89274 0.94735 0.89421 0.0
H683 H 0.85151 0.01227 0.85387 0.0
H684 H 0.69915 0.01073 0.97746 0.0
H685 H 0.77904 0.96131 0.93477 0.0
H686 H 0.68862 -0.00232 0.93965 0.0
H687 H 0.78795 0.97494 0.97257 0.0
H688 H 0.83495 0.04631 0.93912 0.0
H689 H 0.7616 0.09756 0.91069 0.0
H690 H 0.81046 0.85697 0.94033 0.0
H691 H 0.72572 0.87989 0.97126 0.0
H692 H 0.71612 0.9503 0.84114 0.0
H693 H 0.73945 0.04445 0.85047 0.0
H694 H 0.6916 0.964 0.80689 0.0
H695 H 0.71466 0.05649 0.81591 0.0
H696 H 0.75095 0.86766 0.86979 0.0
H697 H 0.67985 0.91637 0.902 0.0
H698 H 0.72978 0.81949 0.88406 0.0
H699 H 0.65968 0.8673 0.91546 0.0
H700 H 0.82338 0.87288 0.82983 0.0
H701 H 0.80326 0.95364 0.79338 0.0
H702 H 0.62034 0.02262 0.89366 0.0
H703 H 0.61223 0.94373 0.85283 0.0
C704 C 0.01633 0.56309 0.64107 0.0
C705 C 0.9942 0.57355 0.62674 0.0
C706 C 0.02413 0.53224 0.64192 0.0
C707 C 0.00926 0.51144 0.62821 0.0
C708 C 0.98645 0.52174 0.61405 0.0
C709 C 0.97932 0.55268 0.61341 0.0
C710 C 0.04861 0.522 0.65717 0.0
C711 C 0.97 0.50015 0.59924 0.0
C712 C 0.04465 0.43727 0.61107 0.0
C713 C 0.02809 0.41631 0.62325 0.0
C714 C 0.03994 0.46854 0.61339 0.0
C715 C 0.01794 0.47895 0.62808 0.0
C716 C 0.00222 0.45794 0.64116 0.0
C717 C 0.00758 0.42679 0.63863 0.0
C718 C 0.05742 0.49033 0.59936 0.0
C719 C 0.97847 0.46821 0.65692 0.0
H720 H 0.02764 0.57906 0.6516 0.0
H721 H 0.96259 0.56063 0.60203 0.0
H722 H 0.0397 0.50387 0.66777 0.0
H723 H 0.06785 0.51218 0.64811 0.0
H724 H 0.05737 0.54092 0.66718 0.0
H725 H 0.95195 0.51163 0.58986 0.0
H726 H 0.98641 0.48981 0.58799 0.0
H727 H 0.95948 0.48139 0.6085 0.0
H728 H 0.06078 0.42912 0.59935 0.0
H729 H 0.99456 0.41057 0.64793 0.0
H730 H 0.06757 0.50883 0.60908 0.0
H731 H 0.0417 0.50102 0.58776 0.0
H732 H 0.07583 0.47885 0.59037 0.0
H733 H 0.98745 0.4869 0.667 0.0
H734 H 0.9707 0.44941 0.66743 0.0
H735 H 0.9585 0.47719 0.64816 0.0
C736 C 0.56195 0.02525 0.34491 0.0
C737 C 0.57814 0.00799 0.35985 0.0
C738 C 0.53105 0.01936 0.341 0.0
C739 C 0.51627 0.99573 0.35233 0.0
C740 C 0.53309 0.97708 0.36639 0.0
C741 C 0.56383 0.98345 0.36995 0.0
C742 C 0.51386 0.03951 0.32574 0.0
C743 C 0.51823 0.95153 0.37869 0.0
C744 C 0.43464 0.00148 0.36981 0.0
C745 C 0.42066 0.97927 0.35713 0.0
C746 C 0.46546 0.00844 0.36741 0.0
C747 C 0.4827 0.99279 0.3519 0.0
C748 C 0.46827 0.9718 0.33807 0.0
C749 C 0.43724 0.96525 0.34085 0.0
C750 C 0.47994 0.03115 0.3824 0.0
C751 C 0.48591 0.95495 0.32122 0.0
H752 H 0.57306 0.04419 0.33703 0.0
H753 H 0.57658 0.96963 0.38112 0.0
H754 H 0.49889 0.02576 0.31523 0.0
H755 H 0.49911 0.05516 0.3349 0.0
H756 H 0.52941 0.05333 0.31568 0.0
H757 H 0.53506 0.9375 0.38745 0.0
H758 H 0.50196 0.96108 0.39039 0.0
H759 H 0.50516 0.93655 0.36778 0.0
H760 H 0.42158 0.01283 0.38208 0.0
H761 H 0.42635 0.94816 0.33099 0.0
H762 H 0.49336 0.04816 0.37334 0.0
H763 H 0.49583 0.01923 0.39329 0.0
H764 H 0.46284 0.04329 0.39221 0.0
H765 H 0.50124 0.97065 0.31247 0.0
H766 H 0.47067 0.94343 0.3096 0.0
H767 H 0.50033 0.93749 0.32894 0.0
C768 C 0.96927 0.43902 0.12344 0.0
C769 C 0.99081 0.41843 0.13117 0.0
C770 C 0.97517 0.47032 0.12354 0.0
C771 C 0.00314 0.48119 0.13178 0.0
C772 C 0.02444 0.46057 0.14044 0.0
C773 C 0.0181 0.42934 0.13989 0.0
C774 C 0.95203 0.49162 0.11397 0.0
C775 C 0.05427 0.47141 0.14967 0.0
C776 C 0.03068 0.55588 0.10886 0.0
C777 C 0.02089 0.57665 0.12432 0.0
C778 C 0.02567 0.52465 0.11137 0.0
C779 C 0.01086 0.5139 0.12992 0.0
C780 C 0.00206 0.53456 0.14601 0.0
C781 C 0.00704 0.56576 0.14297 0.0
C782 C 0.03536 0.50327 0.09383 0.0
C783 C 0.98651 0.52382 0.1661 0.0
H784 H 0.94831 0.43055 0.11651 0.0
H785 H 0.03462 0.41337 0.14607 0.0
H786 H 0.94628 0.50983 0.12547 0.0
H787 H 0.96177 0.50275 0.09963 0.0
H788 H 0.93076 0.47968 0.10927 0.0
H789 H 0.0671 0.45276 0.15747 0.0
H790 H 0.06859 0.48121 0.13683 0.0
H791 H 0.05031 0.48966 0.16154 0.0
H792 H 0.04194 0.5641 0.09462 0.0
H793 H -0.00084 0.58168 0.1549 0.0
H794 H 0.01509 0.49172 0.08702 0.0
H795 H 0.05043 0.48539 0.10035 0.0
H796 H 0.04752 0.51521 0.08075 0.0
H797 H 0.96375 0.51448 0.16212 0.0
H798 H 0.98365 0.54242 0.17789 0.0
H799 H -0.00028 0.50526 0.17362 0.0
C800 C 0.43806 0.0176 0.89151 0.0
C801 C 0.41992 0.01763 0.87313 0.0
C802 C 0.46947 0.01293 0.89022 0.0
C803 C 0.483 0.00809 0.87006 0.0
C804 C 0.4649 0.00853 0.8514 0.0
C805 C 0.43351 0.01339 0.85316 0.0
C806 C 0.4881 0.01284 0.91046 0.0
C807 C 0.4786 0.0033 0.82966 0.0
C808 C 0.56829 0.01983 0.86762 0.0
C809 C 0.57888 0.99006 0.8703 0.0
C810 C 0.53706 0.02598 0.86684 0.0
C811 C 0.51602 0.00175 0.86872 0.0
C812 C 0.52656 0.97155 0.8707 0.0
C813 C 0.55789 0.96607 0.87152 0.0
C814 C 0.5266 0.05847 0.86465 0.0
C815 C 0.50474 0.94512 0.87273 0.0
H816 H 0.42766 0.02134 0.90694 0.0
H817 H 0.41946 0.01317 0.83895 0.0
H818 H 0.49903 0.99037 0.91258 0.0
H819 H 0.50654 0.03004 0.9094 0.0
H820 H 0.47417 0.01775 0.9248 0.0
H821 H 0.46158 0.00551 0.81667 0.0
H822 H 0.4973 0.01977 0.82677 0.0
H823 H 0.4886 0.98022 0.82893 0.0
H824 H 0.58444 0.03839 0.86632 0.0
H825 H 0.56592 0.94306 0.87383 0.0
H826 H 0.51435 0.0654 0.8793 0.0
H827 H 0.51044 0.06058 0.85115 0.0
H828 H 0.54584 0.07446 0.86204 0.0
H829 H 0.49184 0.9471 0.88785 0.0
H830 H 0.51659 0.92288 0.87261 0.0
H831 H 0.48799 0.94546 0.85951 0.0
C832 C 0.20139 0.10644 0.45419 0.0
C833 C 0.19172 0.0983 0.43368 0.0
C834 C 0.18536 0.12782 0.46621 0.0
C835 C 0.15901 0.14135 0.45746 0.0
C836 C 0.15049 0.13497 0.43615 0.0
C837 C 0.16701 0.11343 0.42445 0.0
C838 C 0.19535 0.13416 0.48882 0.0
C839 C 0.12269 0.14915 0.42624 0.0
C840 C 0.09899 0.15783 0.49886 0.0
C841 C 0.10348 0.1889 0.50268 0.0
C842 C 0.11608 0.14246 0.4835 0.0
C843 C 0.13831 0.15852 0.47167 0.0
C844 C 0.14223 0.19012 0.47485 0.0
C845 C 0.1248 0.20496 0.4904 0.0
C846 C 0.11126 0.10869 0.48065 0.0
C847 C 0.16556 0.20798 0.46239 0.0
H848 H 0.22084 0.0951 0.46117 0.0
H849 H 0.15949 0.10713 0.40859 0.0
H850 H 0.19602 0.15896 0.49188 0.0
H851 H 0.17871 0.12404 0.50008 0.0
H852 H 0.21812 0.12454 0.49234 0.0
H853 H 0.12207 0.14589 0.40868 0.0
H854 H 0.10198 0.13861 0.43316 0.0
H855 H 0.12182 0.17383 0.42976 0.0
H856 H 0.08292 0.14516 0.50851 0.0
H857 H 0.12809 0.22907 0.49313 0.0
H858 H 0.132 0.09633 0.48569 0.0
H859 H 0.10722 0.10329 0.46361 0.0
H860 H 0.09173 0.10001 0.4901 0.0
H861 H 0.18872 0.20094 0.4673 0.0
H862 H 0.1634 0.23285 0.46498 0.0
H863 H 0.16335 0.20319 0.44509 0.0
C864 C 0.19775 0.82983 0.47881 0.0
C865 C 0.21688 0.85471 0.48282 0.0
C866 C 0.18088 0.81644 0.49529 0.0
C867 C 0.18335 0.82818 0.51624 0.0
C868 C 0.20452 0.85164 0.52066 0.0
C869 C 0.22098 0.86472 0.50385 0.0
C870 C 0.15855 0.79143 0.48992 0.0
C871 C 0.20813 0.86446 0.54283 0.0
C872 C 0.11053 0.82539 0.54818 0.0
C873 C 0.11507 0.79988 0.56115 0.0
C874 C 0.13295 0.8352 0.53392 0.0
C875 C 0.16069 0.81913 0.5326 0.0
C876 C 0.16588 0.79391 0.5461 0.0
C877 C 0.1429 0.78447 0.56019 0.0
C878 C 0.12647 0.86217 0.51973 0.0
C879 C 0.19531 0.77646 0.54526 0.0
H880 H 0.19437 0.82214 0.46256 0.0
H881 H 0.23613 0.88368 0.50702 0.0
H882 H 0.16033 0.77254 0.50155 0.0
H883 H 0.13506 0.80043 0.49087 0.0
H884 H 0.16218 0.78224 0.47364 0.0
H885 H 0.22877 0.87895 0.54428 0.0
H886 H 0.18801 0.87848 0.54678 0.0
H887 H 0.20942 0.84595 0.5548 0.0
H888 H 0.08888 0.83706 0.54855 0.0
H889 H 0.14656 0.76485 0.5703 0.0
H890 H 0.12652 0.85494 0.50279 0.0
H891 H 0.14452 0.87963 0.52163 0.0
H892 H 0.10418 0.87278 0.52329 0.0
H893 H 0.19732 0.76489 0.52962 0.0
H894 H 0.19681 0.75908 0.55805 0.0
H895 H 0.21496 0.7922 0.54673 0.0
C896 C 0.83763 0.88259 0.44322 0.0
C897 C 0.80716 0.88334 0.43676 0.0
C898 C 0.84814 0.85988 0.45697 0.0
C899 C 0.82758 0.83754 0.46456 0.0
C900 C 0.79725 0.83703 0.45698 0.0
C901 C 0.78739 0.85999 0.44308 0.0
C902 C 0.88078 0.86099 0.46445 0.0
C903 C 0.7747 0.81358 0.46469 0.0
C904 C 0.86457 0.77301 0.49501 0.0
C905 C 0.86375 0.78425 0.51595 0.0
C906 C 0.85145 0.78929 0.4781 0.0
C907 C 0.83708 0.81735 0.4823 0.0
C908 C 0.83453 0.82784 0.50355 0.0
C909 C 0.848 0.81126 0.52007 0.0
C910 C 0.85444 0.77731 0.45567 0.0
C911 C 0.81917 0.85758 0.50872 0.0
H912 H 0.85299 0.90047 0.43809 0.0
H913 H 0.76376 0.86066 0.43816 0.0
H914 H 0.8815 0.86728 0.48157 0.0
H915 H 0.89146 0.83833 0.46286 0.0
H916 H 0.89453 0.87779 0.45536 0.0
H917 H 0.75368 0.81333 0.45486 0.0
H918 H 0.78487 0.79056 0.46449 0.0
H919 H 0.76834 0.81868 0.48142 0.0
H920 H 0.87624 0.75189 0.49173 0.0
H921 H 0.84756 0.82042 0.5361 0.0
H922 H 0.87095 0.79155 0.44674 0.0
H923 H 0.83238 0.77865 0.44715 0.0
H924 H 0.86246 0.75342 0.45537 0.0
H925 H 0.83285 0.87669 0.50223 0.0
H926 H 0.81648 0.86102 0.52616 0.0
H927 H 0.79641 0.85858 0.50113 0.0
C928 C 0.76401 0.14656 0.49933 0.0
C929 C 0.78277 0.12665 0.48792 0.0
C930 C 0.77571 0.16399 0.51628 0.0
C931 C 0.80684 0.16147 0.52172 0.0
C932 C 0.8258 0.14146 0.51017 0.0
C933 C 0.81354 0.12438 0.49344 0.0
C934 C 0.75489 0.18505 0.5283 0.0
C935 C 0.85921 0.13823 0.51534 0.0
C936 C 0.8558 0.2202 0.54877 0.0
C937 C 0.86176 0.20579 0.56827 0.0
C938 C 0.83524 0.2076 0.53413 0.0
C939 C 0.82039 0.17993 0.53914 0.0
C940 C 0.82381 0.16713 0.5597 0.0
C941 C 0.84453 0.18022 0.57405 0.0
C942 C 0.8321 0.22213 0.51243 0.0
C943 C 0.80804 0.13789 0.56579 0.0
H944 H 0.74017 0.14824 0.49516 0.0
H945 H 0.82827 0.1095 0.48439 0.0
H946 H 0.75488 0.17911 0.54548 0.0
H947 H 0.76327 0.20878 0.52698 0.0
H948 H 0.73115 0.18406 0.52227 0.0
H949 H 0.87069 0.12141 0.50493 0.0
H950 H 0.87087 0.16047 0.51348 0.0
H951 H 0.86211 0.13101 0.53216 0.0
H952 H 0.8691 0.23989 0.5441 0.0
H953 H 0.84866 0.16934 0.58928 0.0
H954 H 0.80813 0.22159 0.50695 0.0
H955 H 0.8458 0.20919 0.50072 0.0
H956 H 0.84022 0.24606 0.51244 0.0
H957 H 0.78416 0.13769 0.56009 0.0
H958 H 0.80821 0.13423 0.58331 0.0
H959 H 0.81988 0.11853 0.55814 0.0
C960 C 0.84078 0.10897 0.94174 0.0
C961 C 0.80976 0.1029 0.9387 0.0
C962 C 0.85053 0.13117 0.95626 0.0
C963 C 0.82871 0.14794 0.96785 0.0
C964 C 0.79737 0.1435 0.96371 0.0
C965 C 0.78824 0.12091 0.94925 0.0
C966 C 0.88418 0.13522 0.96019 0.0
C967 C 0.77344 0.16122 0.97557 0.0
C968 C 0.85358 0.17109 0.0233 0.0
C969 C 0.86261 0.20133 0.0202 0.0
C970 C 0.84174 0.1538 0.00648 0.0
C971 C 0.83867 0.16713 0.98605 0.0
C972 C 0.84679 0.19798 0.98295 0.0
C973 C 0.85892 0.2147 7e-05 0.0
C974 C 0.83364 0.12089 0.01041 0.0
C975 C 0.84342 0.21303 0.96147 0.0
H976 H 0.85751 0.09557 0.9333 0.0
H977 H 0.76422 0.11628 0.94711 0.0
H978 H 0.89051 0.15961 0.95948 0.0
H979 H 0.88989 0.12694 0.97641 0.0
H980 H 0.89818 0.12258 0.94847 0.0
H981 H 0.75057 0.15849 0.96827 0.0
H982 H 0.77232 0.15317 0.99231 0.0
H983 H 0.77934 0.18574 0.97596 0.0
H984 H 0.85692 0.16051 0.03873 0.0
H985 H 0.86579 0.23813 -0.00232 0.0
H986 H 0.84841 0.10605 0.00061 0.0
H987 H 0.8098 0.1164 0.00554 0.0
H988 H 0.83631 0.11434 0.02742 0.0
H989 H 0.85938 0.20257 0.94996 0.0
H990 H 0.84811 0.23782 0.96217 0.0
H991 H 0.82009 0.20944 0.95518 0.0
C992 C 0.20877 0.12543 -0.00142 0.0
C993 C 0.20762 0.14023 0.97879 0.0
C994 C 0.19261 0.13664 0.01614 0.0
C995 C 0.17484 0.16315 0.01377 0.0
C996 C 0.17557 0.17947 0.99433 0.0
C997 C 0.19199 0.16781 0.97706 0.0
C998 C 0.19263 0.11874 0.03667 0.0
C999 C 0.1571 0.20797 0.9912 0.0
C1000 C 0.1002 0.16776 0.0434 0.0
C1001 C 0.1067 0.18922 0.05929 0.0
C1002 C 0.12247 0.1586 0.02888 0.0
C1003 C 0.15206 0.17121 0.03024 0.0
C1004 C 0.15911 0.19224 0.04659 0.0
C1005 C 0.13627 0.2011 0.06092 0.0
C1006 C 0.11398 0.13615 0.01163 0.0
C1007 C 0.19049 0.20591 0.04861 0.0
H1008 H 0.22065 0.104 1e-05 0.0
H1009 H 0.19152 0.1796 0.96189 0.0
H1010 H 0.19486 0.13408 0.05061 0.0
H1011 H 0.1707 0.1064 0.03827 0.0
H1012 H 0.21132 0.10185 0.03716 0.0
H1013 H 0.16319 0.22003 0.97623 0.0
H1014 H 0.13259 0.20195 0.99054 0.0
H1015 H 0.16035 0.22374 0.0048 0.0
H1016 H 0.07729 0.1589 0.04179 0.0
H1017 H 0.14145 0.21752 0.07328 0.0
H1018 H 0.1296 0.11643 0.01202 0.0
H1019 H 0.11635 0.14703 0.99576 0.0
H1020 H 0.09029 0.12765 0.01329 0.0
H1021 H 0.20788 0.18773 0.04898 0.0
H1022 H 0.19294 0.22005 0.06318 0.0
H1023 H 0.19537 0.22031 0.0345 0.0
C1024 C 0.1495 0.81199 0.01348 0.0
C1025 C 0.12279 0.79562 0.00929 0.0
C1026 C 0.16396 0.82861 -0.00269 0.0
C1027 C 0.15155 0.82845 0.97646 0.0
C1028 C 0.12598 0.80998 0.97182 0.0
C1029 C 0.1117 0.79398 0.98837 0.0
C1030 C 0.19101 0.84825 0.00296 0.0
C1031 C 0.11245 0.80874 0.94971 0.0
C1032 C 0.15974 0.90163 0.94534 0.0
C1033 C 0.18435 0.89525 0.93195 0.0
C1034 C 0.14873 0.8799 0.95968 0.0
C1035 C 0.16246 0.85089 0.96051 0.0
C1036 C 0.18687 0.84398 0.94666 0.0
C1037 C 0.19776 0.86642 0.93264 0.0
C1038 C 0.12289 0.88832 0.97437 0.0
C1039 C 0.20167 0.81312 0.94688 0.0
H1040 H 0.15795 0.8134 0.0297 0.0
H1041 H 0.09119 0.78103 0.98512 0.0
H1042 H 0.2095 0.84527 0.99116 0.0
H1043 H 0.18423 0.8725 0.00256 0.0
H1044 H 0.20004 0.84304 0.01909 0.0
H1045 H 0.09587 0.7898 0.94798 0.0
H1046 H 0.10055 0.83038 0.9463 0.0
H1047 H 0.13055 0.80606 0.93757 0.0
H1048 H 0.14971 0.92409 0.9451 0.0
H1049 H 0.21676 0.86148 0.92223 0.0
H1050 H 0.13037 0.88642 0.99121 0.0
H1051 H 0.10357 0.87237 0.97213 0.0
H1052 H 0.11465 0.91181 0.97158 0.0
H1053 H 0.21272 0.8092 0.96254 0.0
H1054 H 0.21906 0.81076 0.93417 0.0
H1055 H 0.18424 0.79508 0.94477 0.0
C1056 C 0.79558 0.82152 0.97535 0.0
C1057 C 0.77916 0.84858 0.97749 0.0
C1058 C 0.81091 0.80882 0.9928 0.0
C1059 C 0.80959 0.82348 0.01285 0.0
C1060 C 0.79065 0.84908 0.01557 0.0
C1061 C 0.77574 0.86144 -0.00219 0.0
C1062 C 0.8307 0.78134 0.98926 0.0
C1063 C 0.78833 0.86514 0.03676 0.0
C1064 C 0.84829 0.78482 0.05985 0.0
C1065 C 0.87698 0.79884 0.05947 0.0
C1066 C 0.82563 0.79306 0.04513 0.0
C1067 C 0.83208 0.81553 0.02961 0.0
C1068 C 0.86083 0.83007 0.02944 0.0
C1069 C 0.88286 0.82156 0.04435 0.0
C1070 C 0.79511 0.77733 0.04588 0.0
C1071 C 0.86873 0.85405 0.01308 0.0
H1072 H 0.79774 0.8111 0.95977 0.0
H1073 H 0.7632 0.88242 -0.00037 0.0
H1074 H 0.85493 0.78847 0.98926 0.0
H1075 H 0.82769 0.76462 0.00231 0.0
H1076 H 0.82568 0.77 0.97382 0.0
H1077 H 0.7686 0.8808 0.03728 0.0
H1078 H 0.78624 0.84854 0.04999 0.0
H1079 H 0.80932 0.87862 0.03954 0.0
H1080 H 0.84364 0.76731 0.07156 0.0
H1081 H 0.90518 0.83201 0.04365 0.0
H1082 H 0.79191 0.76347 0.03128 0.0
H1083 H 0.77657 0.79434 0.04622 0.0
H1084 H 0.79284 0.76225 0.05999 0.0
H1085 H 0.86747 0.84417 -0.00317 0.0
H1086 H 0.89188 0.86363 0.01548 0.0
H1087 H 0.85211 0.87291 0.0138 0.0
C1088 C 0.08031 0.15295 0.71148 0.0
C1089 C 0.09674 0.16672 0.6949 0.0
C1090 C 0.09523 0.14033 0.72913 0.0
C1091 C 0.12736 0.14114 0.7301 0.0
C1092 C 0.14412 0.15448 0.71327 0.0
C1093 C 0.12861 0.16731 0.69596 0.0
C1094 C 0.07661 0.12648 0.74688 0.0
C1095 C 0.17844 0.15552 0.71368 0.0
C1096 C 0.16532 0.13586 0.78425 0.0
C1097 C 0.17344 0.10508 0.7851 0.0
C1098 C 0.1502 0.14784 0.76648 0.0
C1099 C 0.14343 0.1287 0.74898 0.0
C1100 C 0.15193 0.09775 0.74954 0.0
C1101 C 0.16666 0.08625 0.76766 0.0
C1102 C 0.14132 0.18095 0.76648 0.0
C1103 C 0.14534 0.07675 0.73106 0.0
H1104 H 0.05573 0.15194 0.71064 0.0
H1105 H 0.14151 0.17834 0.68344 0.0
H1106 H 0.08309 0.10239 0.74924 0.0
H1107 H 0.08133 0.13857 0.76205 0.0
H1108 H 0.05181 0.12751 0.74363 0.0
H1109 H 0.18811 0.16545 0.69887 0.0
H1110 H 0.18633 0.16927 0.72745 0.0
H1111 H 0.18767 0.13229 0.71576 0.0
H1112 H 0.17093 0.15071 0.79746 0.0
H1113 H 0.17243 0.06236 0.76828 0.0
H1114 H 0.11638 0.18307 0.76432 0.0
H1115 H 0.1523 0.19286 0.75292 0.0
H1116 H 0.1479 0.19267 0.78148 0.0
H1117 H 0.12046 0.07528 0.72833 0.0
H1118 H 0.15419 0.05346 0.73379 0.0
H1119 H 0.15569 0.08594 0.71627 0.0
C1120 C 0.07354 0.84302 0.21704 0.0
C1121 C 0.09174 0.82712 0.20248 0.0
C1122 C 0.08626 0.8567 0.23519 0.0
C1123 C 0.11796 0.85478 0.23871 0.0
C1124 C 0.13649 0.83904 0.22402 0.0
C1125 C 0.12314 0.8252 0.2062 0.0
C1126 C 0.06578 0.87307 0.25066 0.0
C1127 C 0.17045 0.83668 0.22718 0.0
C1128 C 0.15741 0.91168 0.27486 0.0
C1129 C 0.16227 0.89432 0.29332 0.0
C1130 C 0.14254 0.89927 0.25708 0.0
C1131 C 0.13189 0.86892 0.25787 0.0
C1132 C 0.13585 0.85157 0.27665 0.0
C1133 C 0.15119 0.86439 0.29408 0.0
C1134 C 0.13891 0.91838 0.23725 0.0
C1135 C 0.12453 0.8192 0.27815 0.0
H1136 H 0.04934 0.845 0.21416 0.0
H1137 H 0.13732 0.81249 0.1953 0.0
H1138 H 0.06781 0.86276 0.26673 0.0
H1139 H 0.07289 0.89719 0.25208 0.0
H1140 H 0.04154 0.87228 0.24569 0.0
H1141 H 0.18175 0.82442 0.21391 0.0
H1142 H 0.18062 0.85972 0.22846 0.0
H1143 H 0.17542 0.82459 0.24229 0.0
H1144 H 0.16538 0.93499 0.27426 0.0
H1145 H 0.1552 0.85062 0.30812 0.0
H1146 H 0.11462 0.91947 0.23257 0.0
H1147 H 0.15139 0.90776 0.22383 0.0
H1148 H 0.14759 0.94191 0.23945 0.0
H1149 H 0.10009 0.81801 0.27384 0.0
H1150 H 0.1275 0.80954 0.29438 0.0
H1151 H 0.13703 0.80476 0.26666 0.0
C1152 C 0.88447 0.8091 0.71725 0.0
C1153 C 0.90146 0.82567 0.70235 0.0
C1154 C 0.87047 0.82365 0.73448 0.0
C1155 C 0.87407 0.85542 0.73703 0.0
C1156 C 0.89147 0.87221 0.72211 0.0
C1157 C 0.90474 0.85713 0.70479 0.0
C1158 C 0.85162 0.80508 0.74985 0.0
C1159 C 0.89621 0.90603 0.72454 0.0
C1160 C 0.81598 0.89694 0.77069 0.0
C1161 C 0.83074 0.89825 0.79046 0.0
C1162 C 0.82991 0.8832 0.75309 0.0
C1163 C 0.85948 0.87102 0.7553 0.0
C1164 C 0.87476 0.87295 0.77513 0.0
C1165 C 0.86005 0.88631 0.79257 0.0
C1166 C 0.81272 0.88109 0.73229 0.0
C1167 C 0.90651 0.86068 0.77797 0.0
H1168 H 0.88172 0.78479 0.71519 0.0
H1169 H 0.91809 0.86984 0.6933 0.0
H1170 H 0.86118 0.80696 0.76617 0.0
H1171 H 0.82809 0.81403 0.75042 0.0
H1172 H 0.85065 0.78068 0.74537 0.0
H1173 H 0.91084 0.91563 0.71177 0.0
H1174 H 0.874 0.91784 0.72421 0.0
H1175 H 0.90688 0.91098 0.74021 0.0
H1176 H 0.79318 0.90595 0.76917 0.0
H1177 H 0.87151 0.8876 0.80785 0.0
H1178 H 0.80951 0.85688 0.72785 0.0
H1179 H 0.82598 0.892 0.71933 0.0
H1180 H 0.79007 0.89207 0.73315 0.0
H1181 H 0.9065 0.83577 0.7753 0.0
H1182 H 0.91576 0.86531 0.79414 0.0
H1183 H 0.92199 0.87092 0.76598 0.0
C1184 C 0.81656 0.11075 0.28251 0.0
C1185 C 0.83222 0.09326 0.29754 0.0
C1186 C 0.83199 0.12457 0.26554 0.0
C1187 C 0.86371 0.12022 0.26338 0.0
C1188 C 0.87955 0.10216 0.27837 0.0
C1189 C 0.86362 0.08914 0.29547 0.0
C1190 C 0.81444 0.14417 0.2501 0.0
C1191 C 0.91325 0.09652 0.2763 0.0
C1192 C 0.89538 0.13521 0.2082 0.0
C1193 C 0.90776 0.16448 0.21054 0.0
C1194 C 0.88193 0.12009 0.22548 0.0
C1195 C 0.88022 0.13483 0.24547 0.0
C1196 C 0.89305 0.16411 0.24808 0.0
C1197 C 0.90696 0.17843 0.23065 0.0
C1198 C 0.86888 0.08865 0.22219 0.0
C1199 C 0.89136 0.18066 0.26913 0.0
H1200 H 0.79229 0.11413 0.28432 0.0
H1201 H 0.8756 0.07543 0.3071 0.0
H1202 H 0.82411 0.16749 0.24993 0.0
H1203 H 0.8165 0.13496 0.23371 0.0
H1204 H 0.78993 0.14557 0.25423 0.0
H1205 H 0.922 0.0813 0.28902 0.0
H1206 H 0.91821 0.08614 0.26058 0.0
H1207 H 0.92586 0.11836 0.27705 0.0
H1208 H 0.89541 0.12435 0.19271 0.0
H1209 H 0.91701 0.20074 0.23278 0.0
H1210 H 0.84382 0.08927 0.224 0.0
H1211 H 0.8778 0.07286 0.23447 0.0
H1212 H 0.87429 0.07937 0.20618 0.0
H1213 H 0.86722 0.18426 0.27354 0.0
H1214 H 0.903 0.20309 0.26863 0.0
H1215 H 0.9018 0.16678 0.28192 0.0
loop_
_geom_bond_atom_site_label_1
_geom_bond_atom_site_label_2
_geom_bond_distance
_geom_bond_site_symmetry_2
_ccdc_geom_bond_type
Li0 N17 1.990 . S
Li0 O60 1.956 . S
Li0 O61 1.970 . S
Li0 O62 1.961 . S
Li1 N25 1.990 . S
Li1 O60 1.970 . S
Li1 O61 1.956 . S
Li1 O63 1.961 . S
Li2 N47 1.990 1_455 S
Li2 O60 1.961 . S
Li2 O62 1.956 . S
Li2 O63 1.970 . S
Li3 N53 1.990 . S
Li3 O61 1.961 . S
Li3 O62 1.970 . S
Li3 O63 1.956 . S
C4 C6 1.348 . S
C4 C7 1.356 . S
C4 O60 1.325 1_655 S
N5 C8 1.314 . S
N5 C9 1.279 . S
C6 C4 1.348 . S
C6 C8 1.353 . S
C6 H64 0.929 1_655 S
C7 C4 1.356 . S
C7 C9 1.358 . S
C7 H65 0.930 . S
C8 N5 1.314 . S
C8 C6 1.353 . S
C8 H66 0.930 . S
C9 N5 1.279 . S
C9 C7 1.358 . S
C9 H67 0.930 . S
C10 C13 1.348 . S
C10 C14 1.356 . S
C10 O61 1.325 . S
C11 N12 1.279 . S
C11 C14 1.358 . S
C11 H68 0.930 . S
N12 C11 1.279 . S
N12 C15 1.314 . S
C13 C10 1.348 . S
C13 C15 1.353 . S
C13 H69 0.929 . S
C14 C10 1.356 . S
C14 C11 1.358 . S
C14 H70 0.930 . S
C15 N12 1.314 . S
C15 C13 1.353 . S
C15 H71 0.930 . S
C16 N17 1.314 . S
C16 C21 1.353 . S
C16 H22 0.930 . S
N17 Li0 1.990 . S
N17 C16 1.314 . S
N17 C19 1.279 . S
C18 C19 1.358 . S
C18 C20 1.356 . S
C18 H72 0.930 . S
C19 N17 1.279 . S
C19 C18 1.358 . S
C19 H23 0.930 . S
C20 C18 1.356 . S
C20 C21 1.348 . S
C21 C16 1.353 . S
C21 C20 1.348 . S
C21 H73 0.929 . S
H22 C16 0.930 . S
H23 C19 0.930 . S
C24 N25 1.314 . S
C24 C26 1.353 . S
C24 H30 0.930 . S
N25 Li1 1.990 . S
N25 C24 1.314 . S
N25 C28 1.279 . S
C26 C24 1.353 . S
C26 C29 1.348 . S
C26 H74 0.929 . S
C27 C28 1.358 . S
C27 C29 1.356 . S
C27 H75 0.930 . S
C28 N25 1.279 . S
C28 C27 1.358 . S
C28 H31 0.930 . S
C29 C26 1.348 . S
C29 C27 1.356 . S
H30 C24 0.930 . S
H31 C28 0.930 . S
C32 C34 1.348 . S
C32 C35 1.356 . S
C32 O62 1.325 . S
N33 C36 1.314 . S
N33 C37 1.279 . S
C34 C32 1.348 . S
C34 C36 1.353 . S
C34 H76 0.929 . S
C35 C32 1.356 . S
C35 C37 1.358 . S
C35 H77 0.930 . S
C36 N33 1.314 . S
C36 C34 1.353 . S
C36 H78 0.930 . S
C37 N33 1.279 . S
C37 C35 1.358 . S
C37 H79 0.930 . S
C38 C39 1.348 . S
C38 C40 1.356 . S
C38 O63 1.325 . S
C39 C38 1.348 . S
C39 C41 1.353 . S
C39 H80 0.929 1_455 S
C40 C38 1.356 . S
C40 C42 1.358 . S
C40 H81 0.930 . S
C41 C39 1.353 . S
C41 N43 1.314 . S
C41 H82 0.930 1_455 S
C42 C40 1.358 . S
C42 N43 1.279 . S
C42 H83 0.930 . S
N43 C41 1.314 . S
N43 C42 1.279 . S
C44 C46 1.353 . S
C44 N47 1.314 . S
C44 H50 0.930 . S
C45 N47 1.279 . S
C45 C48 1.358 . S
C45 H51 0.930 . S
C46 C44 1.353 . S
C46 C49 1.348 . S
C46 H84 0.929 . S
N47 Li2 1.990 1_655 S
N47 C44 1.314 . S
N47 C45 1.279 . S
C48 C45 1.358 . S
C48 C49 1.356 . S
C48 H85 0.930 . S
C49 C46 1.348 . S
C49 C48 1.356 . S
H50 C44 0.930 . S
H51 C45 0.930 . S
C52 N53 1.314 . S
C52 C54 1.353 . S
C52 H58 0.930 . S
N53 Li3 1.990 . S
N53 C52 1.314 . S
N53 C56 1.279 . S
C54 C52 1.353 . S
C54 C57 1.348 . S
C54 H86 0.929 . S
C55 C56 1.358 . S
C55 C57 1.356 . S
C55 H87 0.930 . S
C56 N53 1.279 . S
C56 C55 1.358 . S
C56 H59 0.930 . S
C57 C54 1.348 . S
C57 C55 1.356 . S
H58 C52 0.930 . S
H59 C56 0.930 . S
O60 Li0 1.956 . S
O60 Li1 1.970 . S
O60 Li2 1.961 . S
O60 C4 1.325 1_455 S
O61 Li0 1.970 . S
O61 Li1 1.956 . S
O61 Li3 1.961 . S
O61 C10 1.325 . S
O62 Li0 1.961 . S
O62 Li2 1.956 . S
O62 Li3 1.970 . S
O62 C32 1.325 . S
O63 Li1 1.961 . S
O63 Li2 1.970 . S
O63 Li3 1.956 . S
O63 C38 1.325 . S
H64 C6 0.929 1_455 S
H65 C7 0.930 . S
H66 C8 0.930 . S
H67 C9 0.930 . S
H68 C11 0.930 . S
H69 C13 0.929 . S
H70 C14 0.930 . S
H71 C15 0.930 . S
H72 C18 0.930 . S
H73 C21 0.929 . S
H74 C26 0.929 . S
H75 C27 0.930 . S
H76 C34 0.929 . S
H77 C35 0.930 . S
H78 C36 0.930 . S
H79 C37 0.930 . S
H80 C39 0.929 1_655 S
H81 C40 0.930 . S
H82 C41 0.930 1_655 S
H83 C42 0.930 . S
H84 C46 0.929 . S
H85 C48 0.930 . S
H86 C54 0.929 . S
H87 C55 0.930 . S
Li88 N105 1.990 1_565 S
Li88 O148 1.956 . S
Li88 O149 1.970 . S
Li88 O150 1.961 . S
Li89 N113 1.990 . S
Li89 O148 1.970 . S
Li89 O149 1.956 . S
Li89 O151 1.961 . S
Li90 N135 1.990 . S
Li90 O148 1.961 . S
Li90 O150 1.956 . S
Li90 O151 1.970 . S
Li91 N141 1.990 . S
Li91 O149 1.961 . S
Li91 O150 1.970 . S
Li91 O151 1.956 . S
C92 C94 1.348 . S
C92 C95 1.356 . S
C92 O148 1.325 1_545 S
N93 C96 1.314 . S
N93 C97 1.279 . S
C94 C92 1.348 . S
C94 C96 1.353 . S
C94 H152 0.929 . S
C95 C92 1.356 . S
C95 C97 1.358 . S
C95 H153 0.930 . S
C96 N93 1.314 . S
C96 C94 1.353 . S
C96 H154 0.930 . S
C97 N93 1.279 . S
C97 C95 1.358 . S
C97 H155 0.930 . S
C98 C101 1.348 1_565 S
C98 C102 1.356 . S
C98 O149 1.325 . S
C99 N100 1.279 . S
C99 C102 1.358 . S
C99 H156 0.930 . S
N100 C99 1.279 . S
N100 C103 1.314 1_565 S
C101 C98 1.348 1_545 S
C101 C103 1.353 . S
C101 H157 0.929 . S
C102 C98 1.356 . S
C102 C99 1.358 . S
C102 H158 0.930 . S
C103 N100 1.314 1_545 S
C103 C101 1.353 . S
C103 H159 0.930 . S
C104 N105 1.314 . S
C104 C109 1.353 . S
C104 H110 0.930 . S
N105 Li88 1.990 1_545 S
N105 C104 1.314 . S
N105 C107 1.279 . S
C106 C107 1.358 . S
C106 C108 1.356 . S
C106 H160 0.930 . S
C107 N105 1.279 . S
C107 C106 1.358 . S
C107 H111 0.930 . S
C108 C106 1.356 . S
C108 C109 1.348 . S
C109 C104 1.353 . S
C109 C108 1.348 . S
C109 H161 0.929 . S
H110 C104 0.930 . S
H111 C107 0.930 . S
C112 N113 1.314 . S
C112 C114 1.353 . S
C112 H118 0.930 . S
N113 Li89 1.990 . S
N113 C112 1.314 . S
N113 C116 1.279 . S
C114 C112 1.353 . S
C114 C117 1.348 . S
C114 H162 0.929 . S
C115 C116 1.358 . S
C115 C117 1.356 . S
C115 H163 0.930 . S
C116 N113 1.279 . S
C116 C115 1.358 . S
C116 H119 0.930 . S
C117 C114 1.348 . S
C117 C115 1.356 . S
H118 C112 0.930 . S
H119 C116 0.930 . S
C120 C122 1.348 . S
C120 C123 1.356 . S
C120 O150 1.325 . S
N121 C124 1.314 . S
N121 C125 1.279 . S
C122 C120 1.348 . S
C122 C124 1.353 . S
C122 H164 0.929 . S
C123 C120 1.356 . S
C123 C125 1.358 . S
C123 H165 0.930 . S
C124 N121 1.314 . S
C124 C122 1.353 . S
C124 H166 0.930 . S
C125 N121 1.279 . S
C125 C123 1.358 . S
C125 H167 0.930 . S
C126 C127 1.348 . S
C126 C128 1.356 . S
C126 O151 1.325 . S
C127 C126 1.348 . S
C127 C129 1.353 . S
C127 H168 0.929 . S
C128 C126 1.356 . S
C128 C130 1.358 . S
C128 H169 0.930 . S
C129 C127 1.353 . S
C129 N131 1.314 . S
C129 H170 0.930 . S
C130 C128 1.358 . S
C130 N131 1.279 . S
C130 H171 0.930 . S
N131 C129 1.314 . S
N131 C130 1.279 . S
C132 C134 1.353 . S
C132 N135 1.314 . S
C132 H138 0.930 . S
C133 N135 1.279 . S
C133 C136 1.358 . S
C133 H139 0.930 . S
C134 C132 1.353 . S
C134 C137 1.348 . S
C134 H172 0.929 . S
N135 Li90 1.990 . S
N135 C132 1.314 . S
N135 C133 1.279 . S
C136 C133 1.358 . S
C136 C137 1.356 . S
C136 H173 0.930 . S
C137 C134 1.348 . S
C137 C136 1.356 . S
H138 C132 0.930 . S
H139 C133 0.930 . S
C140 N141 1.314 . S
C140 C142 1.353 . S
C140 H146 0.930 . S
N141 Li91 1.990 . S
N141 C140 1.314 . S
N141 C144 1.279 . S
C142 C140 1.353 . S
C142 C145 1.348 . S
C142 H174 0.929 . S
C143 C144 1.358 . S
C143 C145 1.356 . S
C143 H175 0.930 . S
C144 N141 1.279 . S
C144 C143 1.358 . S
C144 H147 0.930 . S
C145 C142 1.348 . S
C145 C143 1.356 . S
H146 C140 0.930 . S
H147 C144 0.930 . S
O148 Li88 1.956 . S
O148 Li89 1.970 . S
O148 Li90 1.961 . S
O148 C92 1.325 1_565 S
O149 Li88 1.970 . S
O149 Li89 1.956 . S
O149 Li91 1.961 . S
O149 C98 1.325 . S
O150 Li88 1.961 . S
O150 Li90 1.956 . S
O150 Li91 1.970 . S
O150 C120 1.325 . S
O151 Li89 1.961 . S
O151 Li90 1.970 . S
O151 Li91 1.956 . S
O151 C126 1.325 . S
H152 C94 0.929 . S
H153 C95 0.930 . S
H154 C96 0.930 . S
H155 C97 0.930 . S
H156 C99 0.930 . S
H157 C101 0.929 . S
H158 C102 0.930 . S
H159 C103 0.930 . S
H160 C106 0.930 . S
H161 C109 0.929 . S
H162 C114 0.929 . S
H163 C115 0.930 . S
H164 C122 0.929 . S
H165 C123 0.930 . S
H166 C124 0.930 . S
H167 C125 0.930 . S
H168 C127 0.929 . S
H169 C128 0.930 . S
H170 C129 0.930 . S
H171 C130 0.930 . S
H172 C134 0.929 . S
H173 C136 0.930 . S
H174 C142 0.929 . S
H175 C143 0.930 . S
Li176 N193 1.990 . S
Li176 O236 1.956 . S
Li176 O237 1.970 . S
Li176 O238 1.961 . S
Li177 N201 1.990 . S
Li177 O236 1.970 . S
Li177 O237 1.956 . S
Li177 O239 1.961 . S
Li178 N223 1.990 1_655 S
Li178 O236 1.961 . S
Li178 O238 1.956 . S
Li178 O239 1.970 . S
Li179 N229 1.990 . S
Li179 O237 1.961 . S
Li179 O238 1.970 . S
Li179 O239 1.956 . S
C180 C182 1.348 . S
C180 C183 1.356 . S
C180 O236 1.325 1_455 S
N181 C184 1.314 . S
N181 C185 1.279 . S
C182 C180 1.348 . S
C182 C184 1.353 . S
C182 H240 0.929 1_455 S
C183 C180 1.356 . S
C183 C185 1.358 . S
C183 H241 0.930 . S
C184 N181 1.314 . S
C184 C182 1.353 . S
C184 H242 0.930 . S
C185 N181 1.279 . S
C185 C183 1.358 . S
C185 H243 0.930 . S
C186 C189 1.348 . S
C186 C190 1.356 . S
C186 O237 1.325 . S
C187 N188 1.279 . S
C187 C190 1.358 . S
C187 H244 0.930 . S
N188 C187 1.279 . S
N188 C191 1.314 . S
C189 C186 1.348 . S
C189 C191 1.353 . S
C189 H245 0.929 . S
C190 C186 1.356 . S
C190 C187 1.358 . S
C190 H246 0.930 . S
C191 N188 1.314 . S
C191 C189 1.353 . S
C191 H247 0.930 . S
C192 N193 1.314 . S
C192 C197 1.353 . S
C192 H198 0.930 . S
N193 Li176 1.990 . S
N193 C192 1.314 . S
N193 C195 1.279 . S
C194 C195 1.358 . S
C194 C196 1.356 . S
C194 H248 0.930 . S
C195 N193 1.279 . S
C195 C194 1.358 . S
C195 H199 0.930 . S
C196 C194 1.356 . S
C196 C197 1.348 . S
C197 C192 1.353 . S
C197 C196 1.348 . S
C197 H249 0.929 . S
H198 C192 0.930 . S
H199 C195 0.930 . S
C200 N201 1.314 . S
C200 C202 1.353 . S
C200 H206 0.930 . S
N201 Li177 1.990 . S
N201 C200 1.314 . S
N201 C204 1.279 . S
C202 C200 1.353 . S
C202 C205 1.348 . S
C202 H250 0.929 . S
C203 C204 1.358 . S
C203 C205 1.356 . S
C203 H251 0.930 . S
C204 N201 1.279 . S
C204 C203 1.358 . S
C204 H207 0.930 . S
C205 C202 1.348 . S
C205 C203 1.356 . S
H206 C200 0.930 . S
H207 C204 0.930 . S
C208 C210 1.348 . S
C208 C211 1.356 . S
C208 O238 1.325 . S
N209 C212 1.314 . S
N209 C213 1.279 . S
C210 C208 1.348 . S
C210 C212 1.353 . S
C210 H252 0.929 . S
C211 C208 1.356 . S
C211 C213 1.358 . S
C211 H253 0.930 . S
C212 N209 1.314 . S
C212 C210 1.353 . S
C212 H254 0.930 . S
C213 N209 1.279 . S
C213 C211 1.358 . S
C213 H255 0.930 . S
C214 C215 1.348 . S
C214 C216 1.356 . S
C214 O239 1.325 . S
C215 C214 1.348 . S
C215 C217 1.353 . S
C215 H256 0.929 1_655 S
C216 C214 1.356 . S
C216 C218 1.358 . S
C216 H257 0.930 . S
C217 C215 1.353 . S
C217 N219 1.314 . S
C217 H258 0.930 1_655 S
C218 C216 1.358 . S
C218 N219 1.279 . S
C218 H259 0.930 . S
N219 C217 1.314 . S
N219 C218 1.279 . S
C220 C222 1.353 . S
C220 N223 1.314 . S
C220 H226 0.930 . S
C221 N223 1.279 . S
C221 C224 1.358 . S
C221 H227 0.930 . S
C222 C220 1.353 . S
C222 C225 1.348 . S
C222 H260 0.929 . S
N223 Li178 1.990 1_455 S
N223 C220 1.314 . S
N223 C221 1.279 . S
C224 C221 1.358 . S
C224 C225 1.356 . S
C224 H261 0.930 . S
C225 C222 1.348 . S
C225 C224 1.356 . S
H226 C220 0.930 . S
H227 C221 0.930 . S
C228 N229 1.314 . S
C228 C230 1.353 . S
C228 H234 0.930 . S
N229 Li179 1.990 . S
N229 C228 1.314 . S
N229 C232 1.279 . S
C230 C228 1.353 . S
C230 C233 1.348 . S
C230 H262 0.929 . S
C231 C232 1.358 . S
C231 C233 1.356 . S
C231 H263 0.930 . S
C232 N229 1.279 . S
C232 C231 1.358 . S
C232 H235 0.930 . S
C233 C230 1.348 . S
C233 C231 1.356 . S
H234 C228 0.930 . S
H235 C232 0.930 . S
O236 Li176 1.956 . S
O236 Li177 1.970 . S
O236 Li178 1.961 . S
O236 C180 1.325 1_655 S
O237 Li176 1.970 . S
O237 Li177 1.956 . S
O237 Li179 1.961 . S
O237 C186 1.325 . S
O238 Li176 1.961 . S
O238 Li178 1.956 . S
O238 Li179 1.970 . S
O238 C208 1.325 . S
O239 Li177 1.961 . S
O239 Li178 1.970 . S
O239 Li179 1.956 . S
O239 C214 1.325 . S
H240 C182 0.929 1_655 S
H241 C183 0.930 . S
H242 C184 0.930 . S
H243 C185 0.930 . S
H244 C187 0.930 . S
H245 C189 0.929 . S
H246 C190 0.930 . S
H247 C191 0.930 . S
H248 C194 0.930 . S
H249 C197 0.929 . S
H250 C202 0.929 . S
H251 C203 0.930 . S
H252 C210 0.929 . S
H253 C211 0.930 . S
H254 C212 0.930 . S
H255 C213 0.930 . S
H256 C215 0.929 1_455 S
H257 C216 0.930 . S
H258 C217 0.930 1_455 S
H259 C218 0.930 . S
H260 C222 0.929 . S
H261 C224 0.930 . S
H262 C230 0.929 . S
H263 C231 0.930 . S
Li264 N281 1.990 . S
Li264 O324 1.956 . S
Li264 O325 1.970 . S
Li264 O326 1.961 . S
Li265 N289 1.990 . S
Li265 O324 1.970 . S
Li265 O325 1.956 . S
Li265 O327 1.961 . S
Li266 N311 1.990 1_545 S
Li266 O324 1.961 . S
Li266 O326 1.956 . S
Li266 O327 1.970 . S
Li267 N317 1.990 . S
Li267 O325 1.961 . S
Li267 O326 1.970 . S
Li267 O327 1.956 . S
C268 C270 1.348 . S
C268 C271 1.356 . S
C268 O324 1.325 . S
N269 C272 1.314 . S
N269 C273 1.279 . S
C270 C268 1.348 . S
C270 C272 1.353 . S
C270 H328 0.929 . S
C271 C268 1.356 . S
C271 C273 1.358 . S
C271 H329 0.930 . S
C272 N269 1.314 . S
C272 C270 1.353 . S
C272 H330 0.930 . S
C273 N269 1.279 . S
C273 C271 1.358 . S
C273 H331 0.930 . S
C274 C277 1.348 . S
C274 C278 1.356 . S
C274 O325 1.325 . S
C275 N276 1.279 . S
C275 C278 1.358 . S
C275 H332 0.930 . S
N276 C275 1.279 . S
N276 C279 1.314 . S
C277 C274 1.348 . S
C277 C279 1.353 . S
C277 H333 0.929 . S
C278 C274 1.356 . S
C278 C275 1.358 . S
C278 H334 0.930 . S
C279 N276 1.314 . S
C279 C277 1.353 . S
C279 H335 0.930 . S
C280 N281 1.314 . S
C280 C285 1.353 . S
C280 H286 0.930 . S
N281 Li264 1.990 . S
N281 C280 1.314 . S
N281 C283 1.279 . S
C282 C283 1.358 . S
C282 C284 1.356 . S
C282 H336 0.930 . S
C283 N281 1.279 . S
C283 C282 1.358 . S
C283 H287 0.930 . S
C284 C282 1.356 . S
C284 C285 1.348 . S
C285 C280 1.353 . S
C285 C284 1.348 . S
C285 H337 0.929 . S
H286 C280 0.930 . S
H287 C283 0.930 . S
C288 N289 1.314 . S
C288 C290 1.353 . S
C288 H294 0.930 . S
N289 Li265 1.990 . S
N289 C288 1.314 . S
N289 C292 1.279 . S
C290 C288 1.353 . S
C290 C293 1.348 . S
C290 H338 0.929 . S
C291 C292 1.358 . S
C291 C293 1.356 . S
C291 H339 0.930 . S
C292 N289 1.279 . S
C292 C291 1.358 . S
C292 H295 0.930 . S
C293 C290 1.348 . S
C293 C291 1.356 . S
H294 C288 0.930 . S
H295 C292 0.930 . S
C296 C298 1.348 . S
C296 C299 1.356 . S
C296 O326 1.325 1_565 S
N297 C300 1.314 . S
N297 C301 1.279 . S
C298 C296 1.348 . S
C298 C300 1.353 . S
C298 H340 0.929 . S
C299 C296 1.356 . S
C299 C301 1.358 . S
C299 H341 0.930 . S
C300 N297 1.314 . S
C300 C298 1.353 . S
C300 H342 0.930 . S
C301 N297 1.279 . S
C301 C299 1.358 . S
C301 H343 0.930 . S
C302 C303 1.348 1_545 S
C302 C304 1.356 . S
C302 O327 1.325 . S
C303 C302 1.348 1_565 S
C303 C305 1.353 . S
C303 H344 0.929 . S
C304 C302 1.356 . S
C304 C306 1.358 . S
C304 H345 0.930 . S
C305 C303 1.353 . S
C305 N307 1.314 1_565 S
C305 H346 0.930 . S
C306 C304 1.358 . S
C306 N307 1.279 . S
C306 H347 0.930 . S
N307 C305 1.314 1_545 S
N307 C306 1.279 . S
C308 C310 1.353 . S
C308 N311 1.314 . S
C308 H314 0.930 . S
C309 N311 1.279 . S
C309 C312 1.358 . S
C309 H315 0.930 . S
C310 C308 1.353 . S
C310 C313 1.348 . S
C310 H348 0.929 . S
N311 Li266 1.990 1_565 S
N311 C308 1.314 . S
N311 C309 1.279 . S
C312 C309 1.358 . S
C312 C313 1.356 . S
C312 H349 0.930 . S
C313 C310 1.348 . S
C313 C312 1.356 . S
H314 C308 0.930 . S
H315 C309 0.930 . S
C316 N317 1.314 . S
C316 C318 1.353 . S
C316 H322 0.930 . S
N317 Li267 1.990 . S
N317 C316 1.314 . S
N317 C320 1.279 . S
C318 C316 1.353 . S
C318 C321 1.348 . S
C318 H350 0.929 . S
C319 C320 1.358 . S
C319 C321 1.356 . S
C319 H351 0.930 . S
C320 N317 1.279 . S
C320 C319 1.358 . S
C320 H323 0.930 . S
C321 C318 1.348 . S
C321 C319 1.356 . S
H322 C316 0.930 . S
H323 C320 0.930 . S
O324 Li264 1.956 . S
O324 Li265 1.970 . S
O324 Li266 1.961 . S
O324 C268 1.325 . S
O325 Li264 1.970 . S
O325 Li265 1.956 . S
O325 Li267 1.961 . S
O325 C274 1.325 . S
O326 Li264 1.961 . S
O326 Li266 1.956 . S
O326 Li267 1.970 . S
O326 C296 1.325 1_545 S
O327 Li265 1.961 . S
O327 Li266 1.970 . S
O327 Li267 1.956 . S
O327 C302 1.325 . S
H328 C270 0.929 . S
H329 C271 0.930 . S
H330 C272 0.930 . S
H331 C273 0.930 . S
H332 C275 0.930 . S
H333 C277 0.929 . S
H334 C278 0.930 . S
H335 C279 0.930 . S
H336 C282 0.930 . S
H337 C285 0.929 . S
H338 C290 0.929 . S
H339 C291 0.930 . S
H340 C298 0.929 . S
H341 C299 0.930 . S
H342 C300 0.930 . S
H343 C301 0.930 . S
H344 C303 0.929 . S
H345 C304 0.930 . S
H346 C305 0.930 . S
H347 C306 0.930 . S
H348 C310 0.929 . S
H349 C312 0.930 . S
H350 C318 0.929 . S
H351 C319 0.930 . S
Li352 N369 1.990 . S
Li352 O412 1.956 . S
Li352 O413 1.970 . S
Li352 O414 1.961 . S
Li353 N377 1.990 . S
Li353 O412 1.970 . S
Li353 O413 1.956 . S
Li353 O415 1.961 . S
Li354 N399 1.990 . S
Li354 O412 1.961 . S
Li354 O414 1.956 . S
Li354 O415 1.970 . S
Li355 N405 1.990 1_655 S
Li355 O413 1.961 . S
Li355 O414 1.970 . S
Li355 O415 1.956 . S
C356 C358 1.348 . S
C356 C359 1.356 . S
C356 O412 1.325 . S
N357 C360 1.314 . S
N357 C361 1.279 . S
C358 C356 1.348 . S
C358 C360 1.353 . S
C358 H416 0.929 . S
C359 C356 1.356 . S
C359 C361 1.358 . S
C359 H417 0.930 . S
C360 N357 1.314 . S
C360 C358 1.353 . S
C360 H418 0.930 . S
C361 N357 1.279 . S
C361 C359 1.358 . S
C361 H419 0.930 . S
C362 C365 1.348 . S
C362 C366 1.356 . S
C362 O413 1.325 . S
C363 N364 1.279 . S
C363 C366 1.358 . S
C363 H420 0.930 . S
N364 C363 1.279 . S
N364 C367 1.314 . S
C365 C362 1.348 . S
C365 C367 1.353 . S
C365 H421 0.929 . S
C366 C362 1.356 . S
C366 C363 1.358 . S
C366 H422 0.930 . S
C367 N364 1.314 . S
C367 C365 1.353 . S
C367 H423 0.930 . S
C368 N369 1.314 . S
C368 C373 1.353 . S
C368 H374 0.930 . S
N369 Li352 1.990 . S
N369 C368 1.314 . S
N369 C371 1.279 . S
C370 C371 1.358 . S
C370 C372 1.356 . S
C370 H424 0.930 . S
C371 N369 1.279 . S
C371 C370 1.358 . S
C371 H375 0.930 . S
C372 C370 1.356 . S
C372 C373 1.348 . S
C373 C368 1.353 . S
C373 C372 1.348 . S
C373 H425 0.929 . S
H374 C368 0.930 . S
H375 C371 0.930 . S
C376 N377 1.314 . S
C376 C378 1.353 . S
C376 H382 0.930 . S
N377 Li353 1.990 . S
N377 C376 1.314 . S
N377 C380 1.279 . S
C378 C376 1.353 . S
C378 C381 1.348 . S
C378 H426 0.929 . S
C379 C380 1.358 . S
C379 C381 1.356 . S
C379 H427 0.930 . S
C380 N377 1.279 . S
C380 C379 1.358 . S
C380 H383 0.930 . S
C381 C378 1.348 . S
C381 C379 1.356 . S
H382 C376 0.930 . S
H383 C380 0.930 . S
C384 C386 1.348 1_655 S
C384 C387 1.356 . S
C384 O414 1.325 . S
N385 C388 1.314 1_655 S
N385 C389 1.279 . S
C386 C384 1.348 1_455 S
C386 C388 1.353 . S
C386 H428 0.929 . S
C387 C384 1.356 . S
C387 C389 1.358 . S
C387 H429 0.930 . S
C388 N385 1.314 1_455 S
C388 C386 1.353 . S
C388 H430 0.930 . S
C389 N385 1.279 . S
C389 C387 1.358 . S
C389 H431 0.930 . S
C390 C391 1.348 . S
C390 C392 1.356 . S
C390 O415 1.325 1_455 S
C391 C390 1.348 . S
C391 C393 1.353 . S
C391 H432 0.929 . S
C392 C390 1.356 . S
C392 C394 1.358 . S
C392 H433 0.930 . S
C393 C391 1.353 . S
C393 N395 1.314 . S
C393 H434 0.930 . S
C394 C392 1.358 . S
C394 N395 1.279 . S
C394 H435 0.930 . S
N395 C393 1.314 . S
N395 C394 1.279 . S
C396 C398 1.353 . S
C396 N399 1.314 . S
C396 H402 0.930 . S
C397 N399 1.279 . S
C397 C400 1.358 . S
C397 H403 0.930 . S
C398 C396 1.353 . S
C398 C401 1.348 . S
C398 H436 0.929 . S
N399 Li354 1.990 . S
N399 C396 1.314 . S
N399 C397 1.279 . S
C400 C397 1.358 . S
C400 C401 1.356 . S
C400 H437 0.930 . S
C401 C398 1.348 . S
C401 C400 1.356 . S
H402 C396 0.930 . S
H403 C397 0.930 . S
C404 N405 1.314 . S
C404 C406 1.353 . S
C404 H410 0.930 . S
N405 Li355 1.990 1_455 S
N405 C404 1.314 . S
N405 C408 1.279 . S
C406 C404 1.353 . S
C406 C409 1.348 . S
C406 H438 0.929 . S
C407 C408 1.358 . S
C407 C409 1.356 . S
C407 H439 0.930 . S
C408 N405 1.279 . S
C408 C407 1.358 . S
C408 H411 0.930 . S
C409 C406 1.348 . S
C409 C407 1.356 . S
H410 C404 0.930 . S
H411 C408 0.930 . S
O412 Li352 1.956 . S
O412 Li353 1.970 . S
O412 Li354 1.961 . S
O412 C356 1.325 . S
O413 Li352 1.970 . S
O413 Li353 1.956 . S
O413 Li355 1.961 . S
O413 C362 1.325 . S
O414 Li352 1.961 . S
O414 Li354 1.956 . S
O414 Li355 1.970 . S
O414 C384 1.325 . S
O415 Li353 1.961 . S
O415 Li354 1.970 . S
O415 Li355 1.956 . S
O415 C390 1.325 1_655 S
H416 C358 0.929 . S
H417 C359 0.930 . S
H418 C360 0.930 . S
H419 C361 0.930 . S
H420 C363 0.930 . S
H421 C365 0.929 . S
H422 C366 0.930 . S
H423 C367 0.930 . S
H424 C370 0.930 . S
H425 C373 0.929 . S
H426 C378 0.929 . S
H427 C379 0.930 . S
H428 C386 0.929 . S
H429 C387 0.930 . S
H430 C388 0.930 . S
H431 C389 0.930 . S
H432 C391 0.929 . S
H433 C392 0.930 . S
H434 C393 0.930 . S
H435 C394 0.930 . S
H436 C398 0.929 . S
H437 C400 0.930 . S
H438 C406 0.929 . S
H439 C407 0.930 . S
Li440 N457 1.990 . S
Li440 O500 1.956 . S
Li440 O501 1.970 . S
Li440 O502 1.961 . S
Li441 N465 1.990 1_545 S
Li441 O500 1.970 . S
Li441 O501 1.956 . S
Li441 O503 1.961 . S
Li442 N487 1.990 . S
Li442 O500 1.961 . S
Li442 O502 1.956 . S
Li442 O503 1.970 . S
Li443 N493 1.990 . S
Li443 O501 1.961 . S
Li443 O502 1.970 . S
Li443 O503 1.956 . S
C444 C446 1.348 . S
C444 C447 1.356 . S
C444 O500 1.325 . S
N445 C448 1.314 . S
N445 C449 1.279 . S
C446 C444 1.348 . S
C446 C448 1.353 . S
C446 H504 0.929 1_545 S
C447 C444 1.356 . S
C447 C449 1.358 . S
C447 H505 0.930 . S
C448 N445 1.314 . S
C448 C446 1.353 . S
C448 H506 0.930 1_545 S
C449 N445 1.279 . S
C449 C447 1.358 . S
C449 H507 0.930 . S
C450 C453 1.348 . S
C450 C454 1.356 . S
C450 O501 1.325 . S
C451 N452 1.279 . S
C451 C454 1.358 . S
C451 H508 0.930 . S
N452 C451 1.279 . S
N452 C455 1.314 . S
C453 C450 1.348 . S
C453 C455 1.353 . S
C453 H509 0.929 . S
C454 C450 1.356 . S
C454 C451 1.358 . S
C454 H510 0.930 . S
C455 N452 1.314 . S
C455 C453 1.353 . S
C455 H511 0.930 . S
C456 N457 1.314 . S
C456 C461 1.353 . S
C456 H462 0.930 . S
N457 Li440 1.990 . S
N457 C456 1.314 . S
N457 C459 1.279 . S
C458 C459 1.358 . S
C458 C460 1.356 . S
C458 H512 0.930 . S
C459 N457 1.279 . S
C459 C458 1.358 . S
C459 H463 0.930 . S
C460 C458 1.356 . S
C460 C461 1.348 . S
C461 C456 1.353 . S
C461 C460 1.348 . S
C461 H513 0.929 . S
H462 C456 0.930 . S
H463 C459 0.930 . S
C464 N465 1.314 . S
C464 C466 1.353 . S
C464 H470 0.930 . S
N465 Li441 1.990 1_565 S
N465 C464 1.314 . S
N465 C468 1.279 . S
C466 C464 1.353 . S
C466 C469 1.348 . S
C466 H514 0.929 . S
C467 C468 1.358 . S
C467 C469 1.356 . S
C467 H515 0.930 . S
C468 N465 1.279 . S
C468 C467 1.358 . S
C468 H471 0.930 . S
C469 C466 1.348 . S
C469 C467 1.356 . S
H470 C464 0.930 . S
H471 C468 0.930 . S
C472 C474 1.348 . S
C472 C475 1.356 . S
C472 O502 1.325 . S
N473 C476 1.314 . S
N473 C477 1.279 . S
C474 C472 1.348 . S
C474 C476 1.353 . S
C474 H516 0.929 . S
C475 C472 1.356 . S
C475 C477 1.358 . S
C475 H517 0.930 . S
C476 N473 1.314 . S
C476 C474 1.353 . S
C476 H518 0.930 . S
C477 N473 1.279 . S
C477 C475 1.358 . S
C477 H519 0.930 . S
C478 C479 1.348 . S
C478 C480 1.356 . S
C478 O503 1.325 1_565 S
C479 C478 1.348 . S
C479 C481 1.353 . S
C479 H520 0.929 1_565 S
C480 C478 1.356 . S
C480 C482 1.358 . S
C480 H521 0.930 . S
C481 C479 1.353 . S
C481 N483 1.314 . S
C481 H522 0.930 . S
C482 C480 1.358 . S
C482 N483 1.279 . S
C482 H523 0.930 . S
N483 C481 1.314 . S
N483 C482 1.279 . S
C484 C486 1.353 . S
C484 N487 1.314 . S
C484 H490 0.930 . S
C485 N487 1.279 . S
C485 C488 1.358 . S
C485 H491 0.930 . S
C486 C484 1.353 . S
C486 C489 1.348 . S
C486 H524 0.929 . S
N487 Li442 1.990 . S
N487 C484 1.314 . S
N487 C485 1.279 . S
C488 C485 1.358 . S
C488 C489 1.356 . S
C488 H525 0.930 . S
C489 C486 1.348 . S
C489 C488 1.356 . S
H490 C484 0.930 . S
H491 C485 0.930 . S
C492 N493 1.314 . S
C492 C494 1.353 . S
C492 H498 0.930 . S
N493 Li443 1.990 . S
N493 C492 1.314 . S
N493 C496 1.279 . S
C494 C492 1.353 . S
C494 C497 1.348 . S
C494 H526 0.929 . S
C495 C496 1.358 . S
C495 C497 1.356 . S
C495 H527 0.930 . S
C496 N493 1.279 . S
C496 C495 1.358 . S
C496 H499 0.930 . S
C497 C494 1.348 . S
C497 C495 1.356 . S
H498 C492 0.930 . S
H499 C496 0.930 . S
O500 Li440 1.956 . S
O500 Li441 1.970 . S
O500 Li442 1.961 . S
O500 C444 1.325 . S
O501 Li440 1.970 . S
O501 Li441 1.956 . S
O501 Li443 1.961 . S
O501 C450 1.325 . S
O502 Li440 1.961 . S
O502 Li442 1.956 . S
O502 Li443 1.970 . S
O502 C472 1.325 . S
O503 Li441 1.961 . S
O503 Li442 1.970 . S
O503 Li443 1.956 . S
O503 C478 1.325 1_545 S
H504 C446 0.929 1_565 S
H505 C447 0.930 . S
H506 C448 0.930 1_565 S
H507 C449 0.930 . S
H508 C451 0.930 . S
H509 C453 0.929 . S
H510 C454 0.930 . S
H511 C455 0.930 . S
H512 C458 0.930 . S
H513 C461 0.929 . S
H514 C466 0.929 . S
H515 C467 0.930 . S
H516 C474 0.929 . S
H517 C475 0.930 . S
H518 C476 0.930 . S
H519 C477 0.930 . S
H520 C479 0.929 1_545 S
H521 C480 0.930 . S
H522 C481 0.930 . S
H523 C482 0.930 . S
H524 C486 0.929 . S
H525 C488 0.930 . S
H526 C494 0.929 . S
H527 C495 0.930 . S
Li528 N545 1.990 1_455 S
Li528 O588 1.956 . S
Li528 O589 1.970 . S
Li528 O590 1.961 . S
Li529 N553 1.990 . S
Li529 O588 1.970 . S
Li529 O589 1.956 . S
Li529 O591 1.961 . S
Li530 N575 1.990 . S
Li530 O588 1.961 . S
Li530 O590 1.956 . S
Li530 O591 1.970 . S
Li531 N581 1.990 . S
Li531 O589 1.961 . S
Li531 O590 1.970 . S
Li531 O591 1.956 . S
C532 C534 1.348 . S
C532 C535 1.356 . S
C532 O588 1.325 1_655 S
N533 C536 1.314 . S
N533 C537 1.279 . S
C534 C532 1.348 . S
C534 C536 1.353 . S
C534 H592 0.929 . S
C535 C532 1.356 . S
C535 C537 1.358 . S
C535 H593 0.930 . S
C536 N533 1.314 . S
C536 C534 1.353 . S
C536 H594 0.930 . S
C537 N533 1.279 . S
C537 C535 1.358 . S
C537 H595 0.930 . S
C538 C541 1.348 1_455 S
C538 C542 1.356 . S
C538 O589 1.325 . S
C539 N540 1.279 . S
C539 C542 1.358 . S
C539 H596 0.930 . S
N540 C539 1.279 . S
N540 C543 1.314 1_455 S
C541 C538 1.348 1_655 S
C541 C543 1.353 . S
C541 H597 0.929 . S
C542 C538 1.356 . S
C542 C539 1.358 . S
C542 H598 0.930 . S
C543 N540 1.314 1_655 S
C543 C541 1.353 . S
C543 H599 0.930 . S
C544 N545 1.314 . S
C544 C549 1.353 . S
C544 H550 0.930 . S
N545 Li528 1.990 1_655 S
N545 C544 1.314 . S
N545 C547 1.279 . S
C546 C547 1.358 . S
C546 C548 1.356 . S
C546 H600 0.930 . S
C547 N545 1.279 . S
C547 C546 1.358 . S
C547 H551 0.930 . S
C548 C546 1.356 . S
C548 C549 1.348 . S
C549 C544 1.353 . S
C549 C548 1.348 . S
C549 H601 0.929 . S
H550 C544 0.930 . S
H551 C547 0.930 . S
C552 N553 1.314 . S
C552 C554 1.353 . S
C552 H558 0.930 . S
N553 Li529 1.990 . S
N553 C552 1.314 . S
N553 C556 1.279 . S
C554 C552 1.353 . S
C554 C557 1.348 . S
C554 H602 0.929 . S
C555 C556 1.358 . S
C555 C557 1.356 . S
C555 H603 0.930 . S
C556 N553 1.279 . S
C556 C555 1.358 . S
C556 H559 0.930 . S
C557 C554 1.348 . S
C557 C555 1.356 . S
H558 C552 0.930 . S
H559 C556 0.930 . S
C560 C562 1.348 . S
C560 C563 1.356 . S
C560 O590 1.325 . S
N561 C564 1.314 . S
N561 C565 1.279 . S
C562 C560 1.348 . S
C562 C564 1.353 . S
C562 H604 0.929 . S
C563 C560 1.356 . S
C563 C565 1.358 . S
C563 H605 0.930 . S
C564 N561 1.314 . S
C564 C562 1.353 . S
C564 H606 0.930 . S
C565 N561 1.279 . S
C565 C563 1.358 . S
C565 H607 0.930 . S
C566 C567 1.348 . S
C566 C568 1.356 . S
C566 O591 1.325 . S
C567 C566 1.348 . S
C567 C569 1.353 . S
C567 H608 0.929 . S
C568 C566 1.356 . S
C568 C570 1.358 . S
C568 H609 0.930 . S
C569 C567 1.353 . S
C569 N571 1.314 . S
C569 H610 0.930 . S
C570 C568 1.358 . S
C570 N571 1.279 . S
C570 H611 0.930 . S
N571 C569 1.314 . S
N571 C570 1.279 . S
C572 C574 1.353 . S
C572 N575 1.314 . S
C572 H578 0.930 . S
C573 N575 1.279 . S
C573 C576 1.358 . S
C573 H579 0.930 . S
C574 C572 1.353 . S
C574 C577 1.348 . S
C574 H612 0.929 . S
N575 Li530 1.990 . S
N575 C572 1.314 . S
N575 C573 1.279 . S
C576 C573 1.358 . S
C576 C577 1.356 . S
C576 H613 0.930 . S
C577 C574 1.348 . S
C577 C576 1.356 . S
H578 C572 0.930 . S
H579 C573 0.930 . S
C580 N581 1.314 . S
C580 C582 1.353 . S
C580 H586 0.930 . S
N581 Li531 1.990 . S
N581 C580 1.314 . S
N581 C584 1.279 . S
C582 C580 1.353 . S
C582 C585 1.348 . S
C582 H614 0.929 . S
C583 C584 1.358 . S
C583 C585 1.356 . S
C583 H615 0.930 . S
C584 N581 1.279 . S
C584 C583 1.358 . S
C584 H587 0.930 . S
C585 C582 1.348 . S
C585 C583 1.356 . S
H586 C580 0.930 . S
H587 C584 0.930 . S
O588 Li528 1.956 . S
O588 Li529 1.970 . S
O588 Li530 1.961 . S
O588 C532 1.325 1_455 S
O589 Li528 1.970 . S
O589 Li529 1.956 . S
O589 Li531 1.961 . S
O589 C538 1.325 . S
O590 Li528 1.961 . S
O590 Li530 1.956 . S
O590 Li531 1.970 . S
O590 C560 1.325 . S
O591 Li529 1.961 . S
O591 Li530 1.970 . S
O591 Li531 1.956 . S
O591 C566 1.325 . S
H592 C534 0.929 . S
H593 C535 0.930 . S
H594 C536 0.930 . S
H595 C537 0.930 . S
H596 C539 0.930 . S
H597 C541 0.929 . S
H598 C542 0.930 . S
H599 C543 0.930 . S
H600 C546 0.930 . S
H601 C549 0.929 . S
H602 C554 0.929 . S
H603 C555 0.930 . S
H604 C562 0.929 . S
H605 C563 0.930 . S
H606 C564 0.930 . S
H607 C565 0.930 . S
H608 C567 0.929 . S
H609 C568 0.930 . S
H610 C569 0.930 . S
H611 C570 0.930 . S
H612 C574 0.929 . S
H613 C576 0.930 . S
H614 C582 0.929 . S
H615 C583 0.930 . S
Li616 N633 1.990 1_565 S
Li616 O676 1.956 . S
Li616 O677 1.970 . S
Li616 O678 1.961 . S
Li617 N641 1.990 . S
Li617 O676 1.970 . S
Li617 O677 1.956 . S
Li617 O679 1.961 . S
Li618 N663 1.990 . S
Li618 O676 1.961 . S
Li618 O678 1.956 . S
Li618 O679 1.970 . S
Li619 N669 1.990 . S
Li619 O677 1.961 . S
Li619 O678 1.970 . S
Li619 O679 1.956 . S
C620 C622 1.348 . S
C620 C623 1.356 . S
C620 O676 1.325 . S
N621 C624 1.314 . S
N621 C625 1.279 . S
C622 C620 1.348 . S
C622 C624 1.353 . S
C622 H680 0.929 . S
C623 C620 1.356 . S
C623 C625 1.358 . S
C623 H681 0.930 . S
C624 N621 1.314 . S
C624 C622 1.353 . S
C624 H682 0.930 . S
C625 N621 1.279 . S
C625 C623 1.358 . S
C625 H683 0.930 . S
C626 C629 1.348 . S
C626 C630 1.356 . S
C626 O677 1.325 . S
C627 N628 1.279 . S
C627 C630 1.358 . S
C627 H684 0.930 . S
N628 C627 1.279 . S
N628 C631 1.314 . S
C629 C626 1.348 . S
C629 C631 1.353 . S
C629 H685 0.929 1_565 S
C630 C626 1.356 . S
C630 C627 1.358 . S
C630 H686 0.930 . S
C631 N628 1.314 . S
C631 C629 1.353 . S
C631 H687 0.930 1_565 S
C632 N633 1.314 . S
C632 C637 1.353 . S
C632 H638 0.930 . S
N633 Li616 1.990 1_545 S
N633 C632 1.314 . S
N633 C635 1.279 . S
C634 C635 1.358 . S
C634 C636 1.356 . S
C634 H688 0.930 . S
C635 N633 1.279 . S
C635 C634 1.358 . S
C635 H639 0.930 . S
C636 C634 1.356 . S
C636 C637 1.348 . S
C637 C632 1.353 . S
C637 C636 1.348 . S
C637 H689 0.929 . S
H638 C632 0.930 . S
H639 C635 0.930 . S
C640 N641 1.314 . S
C640 C642 1.353 . S
C640 H646 0.930 . S
N641 Li617 1.990 . S
N641 C640 1.314 . S
N641 C644 1.279 . S
C642 C640 1.353 . S
C642 C645 1.348 . S
C642 H690 0.929 . S
C643 C644 1.358 . S
C643 C645 1.356 . S
C643 H691 0.930 . S
C644 N641 1.279 . S
C644 C643 1.358 . S
C644 H647 0.930 . S
C645 C642 1.348 . S
C645 C643 1.356 . S
H646 C640 0.930 . S
H647 C644 0.930 . S
C648 C650 1.348 . S
C648 C651 1.356 . S
C648 O678 1.325 1_545 S
N649 C652 1.314 . S
N649 C653 1.279 . S
C650 C648 1.348 . S
C650 C652 1.353 . S
C650 H692 0.929 1_545 S
C651 C648 1.356 . S
C651 C653 1.358 . S
C651 H693 0.930 . S
C652 N649 1.314 . S
C652 C650 1.353 . S
C652 H694 0.930 . S
C653 N649 1.279 . S
C653 C651 1.358 . S
C653 H695 0.930 . S
C654 C655 1.348 . S
C654 C656 1.356 . S
C654 O679 1.325 . S
C655 C654 1.348 . S
C655 C657 1.353 . S
C655 H696 0.929 . S
C656 C654 1.356 . S
C656 C658 1.358 . S
C656 H697 0.930 . S
C657 C655 1.353 . S
C657 N659 1.314 . S
C657 H698 0.930 . S
C658 C656 1.358 . S
C658 N659 1.279 . S
C658 H699 0.930 . S
N659 C657 1.314 . S
N659 C658 1.279 . S
C660 C662 1.353 . S
C660 N663 1.314 . S
C660 H666 0.930 . S
C661 N663 1.279 . S
C661 C664 1.358 . S
C661 H667 0.930 . S
C662 C660 1.353 . S
C662 C665 1.348 . S
C662 H700 0.929 . S
N663 Li618 1.990 . S
N663 C660 1.314 . S
N663 C661 1.279 . S
C664 C661 1.358 . S
C664 C665 1.356 . S
C664 H701 0.930 . S
C665 C662 1.348 . S
C665 C664 1.356 . S
H666 C660 0.930 . S
H667 C661 0.930 . S
C668 N669 1.314 . S
C668 C670 1.353 . S
C668 H674 0.930 . S
N669 Li619 1.990 . S
N669 C668 1.314 . S
N669 C672 1.279 . S
C670 C668 1.353 . S
C670 C673 1.348 . S
C670 H702 0.929 . S
C671 C672 1.358 . S
C671 C673 1.356 . S
C671 H703 0.930 . S
C672 N669 1.279 . S
C672 C671 1.358 . S
C672 H675 0.930 . S
C673 C670 1.348 . S
C673 C671 1.356 . S
H674 C668 0.930 . S
H675 C672 0.930 . S
O676 Li616 1.956 . S
O676 Li617 1.970 . S
O676 Li618 1.961 . S
O676 C620 1.325 . S
O677 Li616 1.970 . S
O677 Li617 1.956 . S
O677 Li619 1.961 . S
O677 C626 1.325 . S
O678 Li616 1.961 . S
O678 Li618 1.956 . S
O678 Li619 1.970 . S
O678 C648 1.325 1_565 S
O679 Li617 1.961 . S
O679 Li618 1.970 . S
O679 Li619 1.956 . S
O679 C654 1.325 . S
H680 C622 0.929 . S
H681 C623 0.930 . S
H682 C624 0.930 . S
H683 C625 0.930 . S
H684 C627 0.930 . S
H685 C629 0.929 1_545 S
H686 C630 0.930 . S
H687 C631 0.930 1_545 S
H688 C634 0.930 . S
H689 C637 0.929 . S
H690 C642 0.929 . S
H691 C643 0.930 . S
H692 C650 0.929 1_565 S
H693 C651 0.930 . S
H694 C652 0.930 . S
H695 C653 0.930 . S
H696 C655 0.929 . S
H697 C656 0.930 . S
H698 C657 0.930 . S
H699 C658 0.930 . S
H700 C662 0.929 . S
H701 C664 0.930 . S
H702 C670 0.929 . S
H703 C671 0.930 . S
C704 C705 1.430 . S
C704 C706 1.379 1_655 S
C704 H720 0.909 1_655 S
C705 C704 1.430 . S
C705 C709 1.376 . S
C706 C704 1.379 1_455 S
C706 C707 1.369 1_455 S
C706 C710 1.531 . S
C707 C706 1.369 1_655 S
C707 C708 1.410 . S
C707 C715 1.503 1_655 S
C708 C707 1.410 . S
C708 C709 1.392 . S
C708 C711 1.511 . S
C709 C705 1.376 . S
C709 C708 1.392 . S
C709 H721 0.929 . S
C710 C706 1.531 . S
C710 H722 0.960 . S
C710 H723 0.962 . S
C710 H724 0.960 . S
C711 C708 1.511 . S
C711 H725 0.961 . S
C711 H726 0.961 . S
C711 H727 0.961 . S
C712 C713 1.370 . S
C712 C714 1.363 . S
C712 H728 0.931 . S
C713 C712 1.370 . S
C713 C717 1.408 . S
C714 C712 1.363 . S
C714 C715 1.370 . S
C714 C718 1.524 . S
C715 C707 1.503 1_455 S
C715 C714 1.370 . S
C715 C716 1.403 . S
C716 C715 1.403 . S
C716 C717 1.404 . S
C716 C719 1.539 . S
C717 C713 1.408 . S
C717 C716 1.404 . S
C717 H729 0.930 . S
C718 C714 1.524 . S
C718 H730 0.956 . S
C718 H731 0.961 1_455 S
C718 H732 0.961 . S
C719 C716 1.539 . S
C719 H733 0.958 . S
C719 H734 0.961 . S
C719 H735 0.960 1_455 S
H720 C704 0.909 1_455 S
H721 C709 0.929 . S
H722 C710 0.960 . S
H723 C710 0.962 . S
H724 C710 0.960 . S
H725 C711 0.961 . S
H726 C711 0.961 . S
H727 C711 0.961 . S
H728 C712 0.931 . S
H729 C717 0.930 . S
H730 C718 0.956 . S
H731 C718 0.961 1_655 S
H732 C718 0.961 . S
H733 C719 0.958 . S
H734 C719 0.961 . S
H735 C719 0.960 1_655 S
C736 C737 1.391 . S
C736 C738 1.394 . S
C736 H752 0.931 . S
C737 C736 1.391 . S
C737 C741 1.376 . S
C738 C736 1.394 . S
C738 C739 1.369 . S
C738 C742 1.531 . S
C739 C738 1.369 . S
C739 C740 1.410 1_545 S
C739 C747 1.503 1_545 S
C740 C739 1.410 1_565 S
C740 C741 1.392 1_565 S
C740 C743 1.511 . S
C741 C737 1.376 . S
C741 C740 1.392 1_545 S
C741 H753 0.929 1_545 S
C742 C738 1.531 . S
C742 H754 0.960 . S
C742 H755 0.962 . S
C742 H756 0.960 . S
C743 C740 1.511 . S
C743 H757 0.961 . S
C743 H758 0.961 . S
C743 H759 0.961 . S
C744 C745 1.370 . S
C744 C746 1.363 . S
C744 H760 0.931 . S
C745 C744 1.370 . S
C745 C749 1.408 . S
C746 C744 1.363 . S
C746 C747 1.370 . S
C746 C750 1.524 1_565 S
C747 C739 1.503 1_565 S
C747 C746 1.370 . S
C747 C748 1.403 . S
C748 C747 1.403 . S
C748 C749 1.404 . S
C748 C751 1.539 . S
C749 C745 1.408 . S
C749 C748 1.404 . S
C749 H761 0.930 . S
C750 C746 1.524 1_545 S
C750 H762 0.956 . S
C750 H763 0.961 . S
C750 H764 0.961 . S
C751 C748 1.539 . S
C751 H765 0.958 . S
C751 H766 0.961 . S
C751 H767 0.960 . S
H752 C736 0.931 . S
H753 C741 0.929 1_565 S
H754 C742 0.960 . S
H755 C742 0.962 . S
H756 C742 0.960 . S
H757 C743 0.961 . S
H758 C743 0.961 . S
H759 C743 0.961 . S
H760 C744 0.931 . S
H761 C749 0.930 . S
H762 C750 0.956 . S
H763 C750 0.961 . S
H764 C750 0.961 . S
H765 C751 0.958 . S
H766 C751 0.961 . S
H767 C751 0.960 . S
C768 C769 1.391 . S
C768 C770 1.394 . S
C768 H784 0.931 . S
C769 C768 1.391 . S
C769 C773 1.376 . S
C770 C768 1.394 . S
C770 C771 1.369 . S
C770 C774 1.531 . S
C771 C770 1.369 . S
C771 C772 1.410 1_655 S
C771 C779 1.503 1_655 S
C772 C771 1.410 1_455 S
C772 C773 1.392 1_455 S
C772 C775 1.511 . S
C773 C769 1.376 . S
C773 C772 1.392 1_655 S
C773 H785 0.929 1_655 S
C774 C770 1.531 . S
C774 H786 0.960 . S
C774 H787 0.962 . S
C774 H788 0.960 . S
C775 C772 1.511 . S
C775 H789 0.961 . S
C775 H790 0.961 . S
C775 H791 0.961 . S
C776 C777 1.370 . S
C776 C778 1.363 . S
C776 H792 0.931 . S
C777 C776 1.370 . S
C777 C781 1.408 . S
C778 C776 1.363 . S
C778 C779 1.370 . S
C778 C782 1.524 . S
C779 C771 1.503 1_455 S
C779 C778 1.370 . S
C779 C780 1.403 . S
C780 C779 1.403 . S
C780 C781 1.404 . S
C780 C783 1.539 1_455 S
C781 C777 1.408 . S
C781 C780 1.404 . S
C781 H793 0.930 . S
C782 C778 1.524 . S
C782 H794 0.956 . S
C782 H795 0.961 . S
C782 H796 0.961 . S
C783 C780 1.539 1_655 S
C783 H797 0.958 . S
C783 H798 0.961 . S
C783 H799 0.960 . S
H784 C768 0.931 . S
H785 C773 0.929 1_455 S
H786 C774 0.960 . S
H787 C774 0.962 . S
H788 C774 0.960 . S
H789 C775 0.961 . S
H790 C775 0.961 . S
H791 C775 0.961 . S
H792 C776 0.931 . S
H793 C781 0.930 . S
H794 C782 0.956 . S
H795 C782 0.961 . S
H796 C782 0.961 . S
H797 C783 0.958 . S
H798 C783 0.961 . S
H799 C783 0.960 . S
C800 C801 1.391 . S
C800 C802 1.394 . S
C800 H816 0.931 . S
C801 C800 1.391 . S
C801 C805 1.376 . S
C802 C800 1.394 . S
C802 C803 1.369 . S
C802 C806 1.531 . S
C803 C802 1.369 . S
C803 C804 1.410 1_545 S
C803 C811 1.503 1_545 S
C804 C803 1.410 1_565 S
C804 C805 1.392 1_565 S
C804 C807 1.511 . S
C805 C801 1.376 . S
C805 C804 1.392 1_545 S
C805 H817 0.929 . S
C806 C802 1.531 . S
C806 H818 0.960 . S
C806 H819 0.962 . S
C806 H820 0.960 . S
C807 C804 1.511 . S
C807 H821 0.961 . S
C807 H822 0.961 . S
C807 H823 0.961 . S
C808 C809 1.370 . S
C808 C810 1.363 1_565 S
C808 H824 0.931 1_565 S
C809 C808 1.370 . S
C809 C813 1.408 . S
C810 C808 1.363 1_545 S
C810 C811 1.370 1_545 S
C810 C814 1.524 . S
C811 C803 1.503 1_565 S
C811 C810 1.370 1_565 S
C811 C812 1.403 . S
C812 C811 1.403 . S
C812 C813 1.404 . S
C812 C815 1.539 . S
C813 C809 1.408 . S
C813 C812 1.404 . S
C813 H825 0.930 . S
C814 C810 1.524 . S
C814 H826 0.956 . S
C814 H827 0.961 . S
C814 H828 0.961 . S
C815 C812 1.539 . S
C815 H829 0.958 . S
C815 H830 0.961 . S
C815 H831 0.960 . S
H816 C800 0.931 . S
H817 C805 0.929 . S
H818 C806 0.960 . S
H819 C806 0.962 . S
H820 C806 0.960 . S
H821 C807 0.961 . S
H822 C807 0.961 . S
H823 C807 0.961 . S
H824 C808 0.931 1_545 S
H825 C813 0.930 . S
H826 C814 0.956 . S
H827 C814 0.961 . S
H828 C814 0.961 . S
H829 C815 0.958 . S
H830 C815 0.961 . S
H831 C815 0.960 . S
C832 C833 1.391 . S
C832 C834 1.394 . S
C832 H848 0.931 . S
C833 C832 1.391 . S
C833 C837 1.376 . S
C834 C832 1.394 . S
C834 C835 1.369 . S
C834 C838 1.531 . S
C835 C834 1.369 . S
C835 C836 1.410 . S
C835 C843 1.503 . S
C836 C835 1.410 . S
C836 C837 1.392 . S
C836 C839 1.511 . S
C837 C833 1.376 . S
C837 C836 1.392 . S
C837 H849 0.929 . S
C838 C834 1.531 . S
C838 H850 0.960 . S
C838 H851 0.962 . S
C838 H852 0.960 . S
C839 C836 1.511 . S
C839 H853 0.961 . S
C839 H854 0.961 . S
C839 H855 0.961 . S
C840 C841 1.370 . S
C840 C842 1.363 . S
C840 H856 0.931 . S
C841 C840 1.370 . S
C841 C845 1.408 . S
C842 C840 1.363 . S
C842 C843 1.370 . S
C842 C846 1.524 . S
C843 C835 1.503 . S
C843 C842 1.370 . S
C843 C844 1.403 . S
C844 C843 1.403 . S
C844 C845 1.404 . S
C844 C847 1.539 . S
C845 C841 1.408 . S
C845 C844 1.404 . S
C845 H857 0.930 . S
C846 C842 1.524 . S
C846 H858 0.956 . S
C846 H859 0.961 . S
C846 H860 0.961 . S
C847 C844 1.539 . S
C847 H861 0.958 . S
C847 H862 0.961 . S
C847 H863 0.960 . S
H848 C832 0.931 . S
H849 C837 0.929 . S
H850 C838 0.960 . S
H851 C838 0.962 . S
H852 C838 0.960 . S
H853 C839 0.961 . S
H854 C839 0.961 . S
H855 C839 0.961 . S
H856 C840 0.931 . S
H857 C845 0.930 . S
H858 C846 0.956 . S
H859 C846 0.961 . S
H860 C846 0.961 . S
H861 C847 0.958 . S
H862 C847 0.961 . S
H863 C847 0.960 . S
C864 C865 1.391 . S
C864 C866 1.394 . S
C864 H880 0.931 . S
C865 C864 1.391 . S
C865 C869 1.376 . S
C866 C864 1.394 . S
C866 C867 1.369 . S
C866 C870 1.531 . S
C867 C866 1.369 . S
C867 C868 1.410 . S
C867 C875 1.503 . S
C868 C867 1.410 . S
C868 C869 1.392 . S
C868 C871 1.511 . S
C869 C865 1.376 . S
C869 C868 1.392 . S
C869 H881 0.929 . S
C870 C866 1.531 . S
C870 H882 0.960 . S
C870 H883 0.962 . S
C870 H884 0.960 . S
C871 C868 1.511 . S
C871 H885 0.961 . S
C871 H886 0.961 . S
C871 H887 0.961 . S
C872 C873 1.370 . S
C872 C874 1.363 . S
C872 H888 0.931 . S
C873 C872 1.370 . S
C873 C877 1.408 . S
C874 C872 1.363 . S
C874 C875 1.370 . S
C874 C878 1.524 . S
C875 C867 1.503 . S
C875 C874 1.370 . S
C875 C876 1.403 . S
C876 C875 1.403 . S
C876 C877 1.404 . S
C876 C879 1.539 . S
C877 C873 1.408 . S
C877 C876 1.404 . S
C877 H889 0.930 . S
C878 C874 1.524 . S
C878 H890 0.956 . S
C878 H891 0.961 . S
C878 H892 0.961 . S
C879 C876 1.539 . S
C879 H893 0.958 . S
C879 H894 0.961 . S
C879 H895 0.960 . S
H880 C864 0.931 . S
H881 C869 0.929 . S
H882 C870 0.960 . S
H883 C870 0.962 . S
H884 C870 0.960 . S
H885 C871 0.961 . S
H886 C871 0.961 . S
H887 C871 0.961 . S
H888 C872 0.931 . S
H889 C877 0.930 . S
H890 C878 0.956 . S
H891 C878 0.961 . S
H892 C878 0.961 . S
H893 C879 0.958 . S
H894 C879 0.961 . S
H895 C879 0.960 . S
C896 C897 1.391 . S
C896 C898 1.394 . S
C896 H912 0.931 . S
C897 C896 1.391 . S
C897 C901 1.376 . S
C898 C896 1.394 . S
C898 C899 1.369 . S
C898 C902 1.531 . S
C899 C898 1.369 . S
C899 C900 1.410 . S
C899 C907 1.503 . S
C900 C899 1.410 . S
C900 C901 1.392 . S
C900 C903 1.511 . S
C901 C897 1.376 . S
C901 C900 1.392 . S
C901 H913 0.929 . S
C902 C898 1.531 . S
C902 H914 0.960 . S
C902 H915 0.962 . S
C902 H916 0.960 . S
C903 C900 1.511 . S
C903 H917 0.961 . S
C903 H918 0.961 . S
C903 H919 0.961 . S
C904 C905 1.370 . S
C904 C906 1.363 . S
C904 H920 0.931 . S
C905 C904 1.370 . S
C905 C909 1.408 . S
C906 C904 1.363 . S
C906 C907 1.370 . S
C906 C910 1.524 . S
C907 C899 1.503 . S
C907 C906 1.370 . S
C907 C908 1.403 . S
C908 C907 1.403 . S
C908 C909 1.404 . S
C908 C911 1.539 . S
C909 C905 1.408 . S
C909 C908 1.404 . S
C909 H921 0.930 . S
C910 C906 1.524 . S
C910 H922 0.956 . S
C910 H923 0.961 . S
C910 H924 0.961 . S
C911 C908 1.539 . S
C911 H925 0.958 . S
C911 H926 0.961 . S
C911 H927 0.960 . S
H912 C896 0.931 . S
H913 C901 0.929 . S
H914 C902 0.960 . S
H915 C902 0.962 . S
H916 C902 0.960 . S
H917 C903 0.961 . S
H918 C903 0.961 . S
H919 C903 0.961 . S
H920 C904 0.931 . S
H921 C909 0.930 . S
H922 C910 0.956 . S
H923 C910 0.961 . S
H924 C910 0.961 . S
H925 C911 0.958 . S
H926 C911 0.961 . S
H927 C911 0.960 . S
C928 C929 1.391 . S
C928 C930 1.394 . S
C928 H944 0.931 . S
C929 C928 1.391 . S
C929 C933 1.376 . S
C930 C928 1.394 . S
C930 C931 1.369 . S
C930 C934 1.531 . S
C931 C930 1.369 . S
C931 C932 1.410 . S
C931 C939 1.503 . S
C932 C931 1.410 . S
C932 C933 1.392 . S
C932 C935 1.511 . S
C933 C929 1.376 . S
C933 C932 1.392 . S
C933 H945 0.929 . S
C934 C930 1.531 . S
C934 H946 0.960 . S
C934 H947 0.962 . S
C934 H948 0.960 . S
C935 C932 1.511 . S
C935 H949 0.961 . S
C935 H950 0.961 . S
C935 H951 0.961 . S
C936 C937 1.370 . S
C936 C938 1.363 . S
C936 H952 0.931 . S
C937 C936 1.370 . S
C937 C941 1.408 . S
C938 C936 1.363 . S
C938 C939 1.370 . S
C938 C942 1.524 . S
C939 C931 1.503 . S
C939 C938 1.370 . S
C939 C940 1.403 . S
C940 C939 1.403 . S
C940 C941 1.404 . S
C940 C943 1.539 . S
C941 C937 1.408 . S
C941 C940 1.404 . S
C941 H953 0.930 . S
C942 C938 1.524 . S
C942 H954 0.956 . S
C942 H955 0.961 . S
C942 H956 0.961 . S
C943 C940 1.539 . S
C943 H957 0.958 . S
C943 H958 0.961 . S
C943 H959 0.960 . S
H944 C928 0.931 . S
H945 C933 0.929 . S
H946 C934 0.960 . S
H947 C934 0.962 . S
H948 C934 0.960 . S
H949 C935 0.961 . S
H950 C935 0.961 . S
H951 C935 0.961 . S
H952 C936 0.931 . S
H953 C941 0.930 . S
H954 C942 0.956 . S
H955 C942 0.961 . S
H956 C942 0.961 . S
H957 C943 0.958 . S
H958 C943 0.961 . S
H959 C943 0.960 . S
C960 C961 1.391 . S
C960 C962 1.394 . S
C960 H976 0.931 . S
C961 C960 1.391 . S
C961 C965 1.376 . S
C962 C960 1.394 . S
C962 C963 1.369 . S
C962 C966 1.531 . S
C963 C962 1.369 . S
C963 C964 1.410 . S
C963 C971 1.503 . S
C964 C963 1.410 . S
C964 C965 1.392 . S
C964 C967 1.511 . S
C965 C961 1.376 . S
C965 C964 1.392 . S
C965 H977 0.929 . S
C966 C962 1.531 . S
C966 H978 0.960 . S
C966 H979 0.962 . S
C966 H980 0.960 . S
C967 C964 1.511 . S
C967 H981 0.961 . S
C967 H982 0.961 . S
C967 H983 0.961 . S
C968 C969 1.370 . S
C968 C970 1.363 . S
C968 H984 0.931 . S
C969 C968 1.370 . S
C969 C973 1.408 . S
C970 C968 1.363 . S
C970 C971 1.370 1_554 S
C970 C974 1.524 . S
C971 C963 1.503 . S
C971 C970 1.370 1_556 S
C971 C972 1.403 . S
C972 C971 1.403 . S
C972 C973 1.404 1_556 S
C972 C975 1.539 . S
C973 C969 1.408 . S
C973 C972 1.404 1_554 S
C973 H985 0.930 . S
C974 C970 1.524 . S
C974 H986 0.956 . S
C974 H987 0.961 . S
C974 H988 0.961 . S
C975 C972 1.539 . S
C975 H989 0.958 . S
C975 H990 0.961 . S
C975 H991 0.960 . S
H976 C960 0.931 . S
H977 C965 0.929 . S
H978 C966 0.960 . S
H979 C966 0.962 . S
H980 C966 0.960 . S
H981 C967 0.961 . S
H982 C967 0.961 . S
H983 C967 0.961 . S
H984 C968 0.931 . S
H985 C973 0.930 . S
H986 C974 0.956 . S
H987 C974 0.961 . S
H988 C974 0.961 . S
H989 C975 0.958 . S
H990 C975 0.961 . S
H991 C975 0.960 . S
C992 C993 1.391 . S
C992 C994 1.394 1_556 S
C992 H1008 0.931 . S
C993 C992 1.391 . S
C993 C997 1.376 . S
C994 C992 1.394 1_554 S
C994 C995 1.369 . S
C994 C998 1.531 . S
C995 C994 1.369 . S
C995 C996 1.410 1_554 S
C995 C1003 1.503 . S
C996 C995 1.410 1_556 S
C996 C997 1.392 . S
C996 C999 1.511 . S
C997 C993 1.376 . S
C997 C996 1.392 . S
C997 H1009 0.929 . S
C998 C994 1.531 . S
C998 H1010 0.960 . S
C998 H1011 0.962 . S
C998 H1012 0.960 . S
C999 C996 1.511 . S
C999 H1013 0.961 . S
C999 H1014 0.961 1_556 S
C999 H1015 0.961 1_556 S
C1000 C1001 1.370 . S
C1000 C1002 1.363 . S
C1000 H1016 0.931 . S
C1001 C1000 1.370 . S
C1001 C1005 1.408 . S
C1002 C1000 1.363 . S
C1002 C1003 1.370 . S
C1002 C1006 1.524 . S
C1003 C995 1.503 . S
C1003 C1002 1.370 . S
C1003 C1004 1.403 . S
C1004 C1003 1.403 . S
C1004 C1005 1.404 . S
C1004 C1007 1.539 . S
C1005 C1001 1.408 . S
C1005 C1004 1.404 . S
C1005 H1017 0.930 . S
C1006 C1002 1.524 . S
C1006 H1018 0.956 . S
C1006 H1019 0.961 1_554 S
C1006 H1020 0.961 . S
C1007 C1004 1.539 . S
C1007 H1021 0.958 . S
C1007 H1022 0.961 . S
C1007 H1023 0.960 . S
H1008 C992 0.931 . S
H1009 C997 0.929 . S
H1010 C998 0.960 . S
H1011 C998 0.962 . S
H1012 C998 0.960 . S
H1013 C999 0.961 . S
H1014 C999 0.961 1_554 S
H1015 C999 0.961 1_554 S
H1016 C1000 0.931 . S
H1017 C1005 0.930 . S
H1018 C1006 0.956 . S
H1019 C1006 0.961 1_556 S
H1020 C1006 0.961 . S
H1021 C1007 0.958 . S
H1022 C1007 0.961 . S
H1023 C1007 0.960 . S
C1024 C1025 1.391 . S
C1024 C1026 1.394 . S
C1024 H1040 0.931 . S
C1025 C1024 1.391 . S
C1025 C1029 1.376 . S
C1026 C1024 1.394 . S
C1026 C1027 1.369 1_554 S
C1026 C1030 1.531 . S
C1027 C1026 1.369 1_556 S
C1027 C1028 1.410 . S
C1027 C1035 1.503 . S
C1028 C1027 1.410 . S
C1028 C1029 1.392 1_556 S
C1028 C1031 1.511 . S
C1029 C1025 1.376 . S
C1029 C1028 1.392 1_554 S
C1029 H1041 0.929 . S
C1030 C1026 1.531 . S
C1030 H1042 0.960 1_554 S
C1030 H1043 0.962 . S
C1030 H1044 0.960 . S
C1031 C1028 1.511 . S
C1031 H1045 0.961 . S
C1031 H1046 0.961 . S
C1031 H1047 0.961 . S
C1032 C1033 1.370 . S
C1032 C1034 1.363 . S
C1032 H1048 0.931 . S
C1033 C1032 1.370 . S
C1033 C1037 1.408 . S
C1034 C1032 1.363 . S
C1034 C1035 1.370 . S
C1034 C1038 1.524 . S
C1035 C1027 1.503 . S
C1035 C1034 1.370 . S
C1035 C1036 1.403 . S
C1036 C1035 1.403 . S
C1036 C1037 1.404 . S
C1036 C1039 1.539 . S
C1037 C1033 1.408 . S
C1037 C1036 1.404 . S
C1037 H1049 0.930 . S
C1038 C1034 1.524 . S
C1038 H1050 0.956 . S
C1038 H1051 0.961 . S
C1038 H1052 0.961 . S
C1039 C1036 1.539 . S
C1039 H1053 0.958 . S
C1039 H1054 0.961 . S
C1039 H1055 0.960 . S
H1040 C1024 0.931 . S
H1041 C1029 0.929 . S
H1042 C1030 0.960 1_556 S
H1043 C1030 0.962 . S
H1044 C1030 0.960 . S
H1045 C1031 0.961 . S
H1046 C1031 0.961 . S
H1047 C1031 0.961 . S
H1048 C1032 0.931 . S
H1049 C1037 0.930 . S
H1050 C1038 0.956 . S
H1051 C1038 0.961 . S
H1052 C1038 0.961 . S
H1053 C1039 0.958 . S
H1054 C1039 0.961 . S
H1055 C1039 0.960 . S
C1056 C1057 1.391 . S
C1056 C1058 1.394 . S
C1056 H1072 0.931 . S
C1057 C1056 1.391 . S
C1057 C1061 1.376 . S
C1058 C1056 1.394 . S
C1058 C1059 1.369 1_556 S
C1058 C1062 1.531 . S
C1059 C1058 1.369 1_554 S
C1059 C1060 1.410 . S
C1059 C1067 1.503 . S
C1060 C1059 1.410 . S
C1060 C1061 1.392 1_554 S
C1060 C1063 1.511 . S
C1061 C1057 1.376 . S
C1061 C1060 1.392 1_556 S
C1061 H1073 0.929 . S
C1062 C1058 1.531 . S
C1062 H1074 0.941 1_556 S
C1062 H1075 0.962 1_556 S
C1062 H1076 0.960 . S
C1063 C1060 1.511 . S
C1063 H1077 0.961 . S
C1063 H1078 0.961 . S
C1063 H1079 0.961 . S
C1064 C1065 1.370 . S
C1064 C1066 1.363 . S
C1064 H1080 0.931 . S
C1065 C1064 1.370 . S
C1065 C1069 1.408 . S
C1066 C1064 1.363 . S
C1066 C1067 1.370 . S
C1066 C1070 1.524 . S
C1067 C1059 1.503 . S
C1067 C1066 1.370 . S
C1067 C1068 1.403 . S
C1068 C1067 1.403 . S
C1068 C1069 1.404 . S
C1068 C1071 1.539 . S
C1069 C1065 1.408 . S
C1069 C1068 1.404 . S
C1069 H1081 0.930 . S
C1070 C1066 1.524 . S
C1070 H1082 0.956 . S
C1070 H1083 0.961 . S
C1070 H1084 0.961 . S
C1071 C1068 1.539 . S
C1071 H1085 0.958 1_554 S
C1071 H1086 0.961 . S
C1071 H1087 0.960 1_554 S
H1072 C1056 0.931 . S
H1073 C1061 0.929 . S
H1074 C1062 0.941 1_554 S
H1075 C1062 0.962 1_554 S
H1076 C1062 0.960 . S
H1077 C1063 0.961 . S
H1078 C1063 0.961 . S
H1079 C1063 0.961 . S
H1080 C1064 0.931 . S
H1081 C1069 0.930 . S
H1082 C1070 0.956 . S
H1083 C1070 0.961 . S
H1084 C1070 0.961 . S
H1085 C1071 0.958 1_556 S
H1086 C1071 0.961 . S
H1087 C1071 0.960 1_556 S
C1088 C1089 1.391 . S
C1088 C1090 1.394 . S
C1088 H1104 0.931 . S
C1089 C1088 1.391 . S
C1089 C1093 1.376 . S
C1090 C1088 1.394 . S
C1090 C1091 1.369 . S
C1090 C1094 1.531 . S
C1091 C1090 1.369 . S
C1091 C1092 1.410 . S
C1091 C1099 1.503 . S
C1092 C1091 1.410 . S
C1092 C1093 1.392 . S
C1092 C1095 1.511 . S
C1093 C1089 1.376 . S
C1093 C1092 1.392 . S
C1093 H1105 0.929 . S
C1094 C1090 1.531 . S
C1094 H1106 0.960 . S
C1094 H1107 0.962 . S
C1094 H1108 0.960 . S
C1095 C1092 1.511 . S
C1095 H1109 0.961 . S
C1095 H1110 0.961 . S
C1095 H1111 0.961 . S
C1096 C1097 1.370 . S
C1096 C1098 1.363 . S
C1096 H1112 0.931 . S
C1097 C1096 1.370 . S
C1097 C1101 1.408 . S
C1098 C1096 1.363 . S
C1098 C1099 1.370 . S
C1098 C1102 1.524 . S
C1099 C1091 1.503 . S
C1099 C1098 1.370 . S
C1099 C1100 1.403 . S
C1100 C1099 1.403 . S
C1100 C1101 1.404 . S
C1100 C1103 1.539 . S
C1101 C1097 1.408 . S
C1101 C1100 1.404 . S
C1101 H1113 0.930 . S
C1102 C1098 1.524 . S
C1102 H1114 0.956 . S
C1102 H1115 0.961 . S
C1102 H1116 0.961 . S
C1103 C1100 1.539 . S
C1103 H1117 0.958 . S
C1103 H1118 0.961 . S
C1103 H1119 0.960 . S
H1104 C1088 0.931 . S
H1105 C1093 0.929 . S
H1106 C1094 0.960 . S
H1107 C1094 0.962 . S
H1108 C1094 0.960 . S
H1109 C1095 0.961 . S
H1110 C1095 0.961 . S
H1111 C1095 0.961 . S
H1112 C1096 0.931 . S
H1113 C1101 0.930 . S
H1114 C1102 0.956 . S
H1115 C1102 0.961 . S
H1116 C1102 0.961 . S
H1117 C1103 0.958 . S
H1118 C1103 0.961 . S
H1119 C1103 0.960 . S
C1120 C1121 1.391 . S
C1120 C1122 1.394 . S
C1120 H1136 0.931 . S
C1121 C1120 1.391 . S
C1121 C1125 1.376 . S
C1122 C1120 1.394 . S
C1122 C1123 1.369 . S
C1122 C1126 1.531 . S
C1123 C1122 1.369 . S
C1123 C1124 1.410 . S
C1123 C1131 1.503 . S
C1124 C1123 1.410 . S
C1124 C1125 1.392 . S
C1124 C1127 1.511 . S
C1125 C1121 1.376 . S
C1125 C1124 1.392 . S
C1125 H1137 0.929 . S
C1126 C1122 1.531 . S
C1126 H1138 0.960 . S
C1126 H1139 0.962 . S
C1126 H1140 0.960 . S
C1127 C1124 1.511 . S
C1127 H1141 0.961 . S
C1127 H1142 0.961 . S
C1127 H1143 0.961 . S
C1128 C1129 1.370 . S
C1128 C1130 1.363 . S
C1128 H1144 0.931 . S
C1129 C1128 1.370 . S
C1129 C1133 1.408 . S
C1130 C1128 1.363 . S
C1130 C1131 1.370 . S
C1130 C1134 1.524 . S
C1131 C1123 1.503 . S
C1131 C1130 1.370 . S
C1131 C1132 1.403 . S
C1132 C1131 1.403 . S
C1132 C1133 1.404 . S
C1132 C1135 1.539 . S
C1133 C1129 1.408 . S
C1133 C1132 1.404 . S
C1133 H1145 0.930 . S
C1134 C1130 1.524 . S
C1134 H1146 0.956 . S
C1134 H1147 0.961 . S
C1134 H1148 0.961 . S
C1135 C1132 1.539 . S
C1135 H1149 0.958 . S
C1135 H1150 0.961 . S
C1135 H1151 0.960 . S
H1136 C1120 0.931 . S
H1137 C1125 0.929 . S
H1138 C1126 0.960 . S
H1139 C1126 0.962 . S
H1140 C1126 0.960 . S
H1141 C1127 0.961 . S
H1142 C1127 0.961 . S
H1143 C1127 0.961 . S
H1144 C1128 0.931 . S
H1145 C1133 0.930 . S
H1146 C1134 0.956 . S
H1147 C1134 0.961 . S
H1148 C1134 0.961 . S
H1149 C1135 0.958 . S
H1150 C1135 0.961 . S
H1151 C1135 0.960 . S
C1152 C1153 1.391 . S
C1152 C1154 1.394 . S
C1152 H1168 0.931 . S
C1153 C1152 1.391 . S
C1153 C1157 1.376 . S
C1154 C1152 1.394 . S
C1154 C1155 1.369 . S
C1154 C1158 1.531 . S
C1155 C1154 1.369 . S
C1155 C1156 1.410 . S
C1155 C1163 1.503 . S
C1156 C1155 1.410 . S
C1156 C1157 1.392 . S
C1156 C1159 1.511 . S
C1157 C1153 1.376 . S
C1157 C1156 1.392 . S
C1157 H1169 0.929 . S
C1158 C1154 1.531 . S
C1158 H1170 0.960 . S
C1158 H1171 0.962 . S
C1158 H1172 0.960 . S
C1159 C1156 1.511 . S
C1159 H1173 0.961 . S
C1159 H1174 0.961 . S
C1159 H1175 0.961 . S
C1160 C1161 1.370 . S
C1160 C1162 1.363 . S
C1160 H1176 0.931 . S
C1161 C1160 1.370 . S
C1161 C1165 1.408 . S
C1162 C1160 1.363 . S
C1162 C1163 1.370 . S
C1162 C1166 1.524 . S
C1163 C1155 1.503 . S
C1163 C1162 1.370 . S
C1163 C1164 1.403 . S
C1164 C1163 1.403 . S
C1164 C1165 1.404 . S
C1164 C1167 1.539 . S
C1165 C1161 1.408 . S
C1165 C1164 1.404 . S
C1165 H1177 0.930 . S
C1166 C1162 1.524 . S
C1166 H1178 0.956 . S
C1166 H1179 0.961 . S
C1166 H1180 0.961 . S
C1167 C1164 1.539 . S
C1167 H1181 0.958 . S
C1167 H1182 0.961 . S
C1167 H1183 0.960 . S
H1168 C1152 0.931 . S
H1169 C1157 0.929 . S
H1170 C1158 0.960 . S
H1171 C1158 0.962 . S
H1172 C1158 0.960 . S
H1173 C1159 0.961 . S
H1174 C1159 0.961 . S
H1175 C1159 0.961 . S
H1176 C1160 0.931 . S
H1177 C1165 0.930 . S
H1178 C1166 0.956 . S
H1179 C1166 0.961 . S
H1180 C1166 0.961 . S
H1181 C1167 0.958 . S
H1182 C1167 0.961 . S
H1183 C1167 0.960 . S
C1184 C1185 1.391 . S
C1184 C1186 1.394 . S
C1184 H1200 0.931 . S
C1185 C1184 1.391 . S
C1185 C1189 1.376 . S
C1186 C1184 1.394 . S
C1186 C1187 1.369 . S
C1186 C1190 1.531 . S
C1187 C1186 1.369 . S
C1187 C1188 1.410 . S
C1187 C1195 1.503 . S
C1188 C1187 1.410 . S
C1188 C1189 1.392 . S
C1188 C1191 1.511 . S
C1189 C1185 1.376 . S
C1189 C1188 1.392 . S
C1189 H1201 0.929 . S
C1190 C1186 1.531 . S
C1190 H1202 0.960 . S
C1190 H1203 0.962 . S
C1190 H1204 0.960 . S
C1191 C1188 1.511 . S
C1191 H1205 0.961 . S
C1191 H1206 0.961 . S
C1191 H1207 0.961 . S
C1192 C1193 1.370 . S
C1192 C1194 1.363 . S
C1192 H1208 0.931 . S
C1193 C1192 1.370 . S
C1193 C1197 1.408 . S
C1194 C1192 1.363 . S
C1194 C1195 1.370 . S
C1194 C1198 1.524 . S
C1195 C1187 1.503 . S
C1195 C1194 1.370 . S
C1195 C1196 1.403 . S
C1196 C1195 1.403 . S
C1196 C1197 1.404 . S
C1196 C1199 1.539 . S
C1197 C1193 1.408 . S
C1197 C1196 1.404 . S
C1197 H1209 0.930 . S
C1198 C1194 1.524 . S
C1198 H1210 0.956 . S
C1198 H1211 0.961 . S
C1198 H1212 0.961 . S
C1199 C1196 1.539 . S
C1199 H1213 0.958 . S
C1199 H1214 0.961 . S
C1199 H1215 0.960 . S
H1200 C1184 0.931 . S
H1201 C1189 0.929 . S
H1202 C1190 0.960 . S
H1203 C1190 0.962 . S
H1204 C1190 0.960 . S
H1205 C1191 0.961 . S
H1206 C1191 0.961 . S
H1207 C1191 0.961 . S
H1208 C1192 0.931 . S
H1209 C1197 0.930 . S
H1210 C1198 0.956 . S
H1211 C1198 0.961 . S
H1212 C1198 0.961 . S
H1213 C1199 0.958 . S
H1214 C1199 0.961 . S
H1215 C1199 0.960 . S
C705 C205 1.133 . S
C713 C29 1.135 . S
C737 C321 1.110 . S
C745 C117 1.133 . S
C769 C401 1.136 . S
C777 C557 1.123 . S
C801 C489 1.110 . S
C809 C673 1.148 . S
C833 C108 0.719 . S
C841 C57 0.744 . S
C865 C145 0.767 . S
C873 C225 0.725 . S
C897 C313 0.654 . S
C905 C233 0.720 . S
C929 C293 0.705 . S
C937 C49 0.737 . S
C961 C636 0.775 . S
C969 C372 0.708 . S
C993 C460 0.750 . S
C1001 C409 0.736 . S
C1025 C585 0.763 . S
C1033 C469 0.727 . S
C1057 C645 0.695 . S
C1065 C548 0.697 . S
C1089 C20 2.095 . S
C1097 C497 2.120 . S
C1121 C577 2.127 . S
C1129 C137 2.105 . S
C1153 C196 2.129 . S
C1161 C665 2.104 . S
C1185 C284 2.088 . S
C1193 C381 2.121 . S
