# Generated by pormake.
# Topology une, (4)-cn, num edge types: 1
# Building blocks:
#     Node 0, Type 0, BuildingBlock: ICAMEG_clean_sbu_1, # of connection points: 4
#     Node 1, Type 0, BuildingBlock: ICAMEG_clean_sbu_1, # of connection points: 4
#     Node 2, Type 0, BuildingBlock: ICAMEG_clean_sbu_1, # of connection points: 4
#     Node 3, Type 0, BuildingBlock: ICAMEG_clean_sbu_1, # of connection points: 4
#     Node 4, Type 0, BuildingBlock: ICAMEG_clean_sbu_1, # of connection points: 4
#     Node 5, Type 0, BuildingBlock: ICAMEG_clean_sbu_1, # of connection points: 4
#     Node 6, Type 0, BuildingBlock: ICAMEG_clean_sbu_1, # of connection points: 4
#     Node 7, Type 0, BuildingBlock: ICAMEG_clean_sbu_1, # of connection points: 4
#     Node 8, Type 0, BuildingBlock: ICAMEG_clean_sbu_1, # of connection points: 4
#     Node 9, Type 0, BuildingBlock: ICAMEG_clean_sbu_1, # of connection points: 4
#     Node 10, Type 0, BuildingBlock: ICAMEG_clean_sbu_1, # of connection points: 4
#     Node 11, Type 0, BuildingBlock: ICAMEG_clean_sbu_1, # of connection points: 4
#     Node 12, Type 0, BuildingBlock: ICAMEG_clean_sbu_1, # of connection points: 4
#     Node 13, Type 0, BuildingBlock: ICAMEG_clean_sbu_1, # of connection points: 4
#     Node 14, Type 0, BuildingBlock: ICAMEG_clean_sbu_1, # of connection points: 4
#     Node 15, Type 0, BuildingBlock: ICAMEG_clean_sbu_1, # of connection points: 4
#     Node 16, Type 0, BuildingBlock: ICAMEG_clean_sbu_1, # of connection points: 4
#     Node 17, Type 0, BuildingBlock: ICAMEG_clean_sbu_1, # of connection points: 4
#     Edge 18, Type (0, 0), BuildingBlock: UVAHIK_clean_linker_0, # of connection points: 2
#     Edge 19, Type (0, 0), BuildingBlock: UVAHIK_clean_linker_0, # of connection points: 2
#     Edge 20, Type (0, 0), BuildingBlock: UVAHIK_clean_linker_0, # of connection points: 2
#     Edge 21, Type (0, 0), BuildingBlock: UVAHIK_clean_linker_0, # of connection points: 2
#     Edge 22, Type (0, 0), BuildingBlock: UVAHIK_clean_linker_0, # of connection points: 2
#     Edge 23, Type (0, 0), BuildingBlock: UVAHIK_clean_linker_0, # of connection points: 2
#     Edge 24, Type (0, 0), BuildingBlock: UVAHIK_clean_linker_0, # of connection points: 2
#     Edge 25, Type (0, 0), BuildingBlock: UVAHIK_clean_linker_0, # of connection points: 2
#     Edge 26, Type (0, 0), BuildingBlock: UVAHIK_clean_linker_0, # of connection points: 2
#     Edge 27, Type (0, 0), BuildingBlock: UVAHIK_clean_linker_0, # of connection points: 2
#     Edge 28, Type (0, 0), BuildingBlock: UVAHIK_clean_linker_0, # of connection points: 2
#     Edge 29, Type (0, 0), BuildingBlock: UVAHIK_clean_linker_0, # of connection points: 2
#     Edge 30, Type (0, 0), BuildingBlock: UVAHIK_clean_linker_0, # of connection points: 2
#     Edge 31, Type (0, 0), BuildingBlock: UVAHIK_clean_linker_0, # of connection points: 2
#     Edge 32, Type (0, 0), BuildingBlock: UVAHIK_clean_linker_0, # of connection points: 2
#     Edge 33, Type (0, 0), BuildingBlock: UVAHIK_clean_linker_0, # of connection points: 2
#     Edge 34, Type (0, 0), BuildingBlock: UVAHIK_clean_linker_0, # of connection points: 2
#     Edge 35, Type (0, 0), BuildingBlock: UVAHIK_clean_linker_0, # of connection points: 2
#     Edge 36, Type (0, 0), BuildingBlock: UVAHIK_clean_linker_0, # of connection points: 2
#     Edge 37, Type (0, 0), BuildingBlock: UVAHIK_clean_linker_0, # of connection points: 2
#     Edge 38, Type (0, 0), BuildingBlock: UVAHIK_clean_linker_0, # of connection points: 2
#     Edge 39, Type (0, 0), BuildingBlock: UVAHIK_clean_linker_0, # of connection points: 2
#     Edge 40, Type (0, 0), BuildingBlock: UVAHIK_clean_linker_0, # of connection points: 2
#     Edge 41, Type (0, 0), BuildingBlock: UVAHIK_clean_linker_0, # of connection points: 2
#     Edge 42, Type (0, 0), BuildingBlock: UVAHIK_clean_linker_0, # of connection points: 2
#     Edge 43, Type (0, 0), BuildingBlock: UVAHIK_clean_linker_0, # of connection points: 2
#     Edge 44, Type (0, 0), BuildingBlock: UVAHIK_clean_linker_0, # of connection points: 2
#     Edge 45, Type (0, 0), BuildingBlock: UVAHIK_clean_linker_0, # of connection points: 2
#     Edge 46, Type (0, 0), BuildingBlock: UVAHIK_clean_linker_0, # of connection points: 2
#     Edge 47, Type (0, 0), BuildingBlock: UVAHIK_clean_linker_0, # of connection points: 2
#     Edge 48, Type (0, 0), BuildingBlock: UVAHIK_clean_linker_0, # of connection points: 2
#     Edge 49, Type (0, 0), BuildingBlock: UVAHIK_clean_linker_0, # of connection points: 2
#     Edge 50, Type (0, 0), BuildingBlock: UVAHIK_clean_linker_0, # of connection points: 2
#     Edge 51, Type (0, 0), BuildingBlock: UVAHIK_clean_linker_0, # of connection points: 2
#     Edge 52, Type (0, 0), BuildingBlock: UVAHIK_clean_linker_0, # of connection points: 2
#     Edge 53, Type (0, 0), BuildingBlock: UVAHIK_clean_linker_0, # of connection points: 2
# Relax obj value: 0.321
# Max RMSD: 0.226
# Mean RMSD: 0.209
data_MOF--net-une--node1-ICAMEG_clean_sbu_1--edge1-UVAHIK_clean_linker_0
_symmetry_space_group_name_H-M    P1
_symmetry_Int_Tables_number       1
_symmetry_cell_setting            triclinic
loop_
_symmetry_equiv_pos_as_xyz
'x, y, z'
_cell_length_a     49.215979
_cell_length_b     50.718866
_cell_length_c     73.594795
_cell_angle_alpha  89.593342
_cell_angle_beta   89.251741
_cell_angle_gamma 119.3727
loop_
_atom_site_label
_atom_site_type_symbol
_atom_site_fract_x
_atom_site_fract_y
_atom_site_fract_z
_atom_type_partial_charge
Co0 Co 0.40185 0.08861 0.05754 0.0
Co1 Co 0.36858 0.03071 0.08872 0.0
O2 O 0.38284 0.07258 0.08125 0.0
C3 C 0.35347 0.10654 0.06126 0.0
O4 O 0.33351 0.07805 0.06496 0.0
C5 C 0.39496 0.0712 0.1207 0.0
O6 O 0.41829 0.09091 0.11053 0.0
O7 O 0.41138 0.03585 0.08339 0.0
O8 O 0.42203 0.06261 0.05727 0.0
H9 H 0.35702 0.92695 0.08311 0.0
H10 H 0.41097 0.13299 0.08623 0.0
O11 O 0.38182 0.11462 0.05744 0.0
H12 H 0.51668 0.15347 0.06872 0.0
H13 H 0.45491 0.1706 1.00983 0.0
H14 H 0.41065 0.0618 0.0238 0.0
H15 H 0.47055 0.113 0.05393 0.0
H16 H 0.43186 0.14993 0.04011 0.0
O17 O 0.37794 0.04438 0.11491 0.0
H18 H 0.3739 0.97939 0.07336 0.0
H19 H 0.33317 0.99299 0.12109 0.0
H20 H 0.4337 0.08155 0.9934 0.0
H21 H 0.45648 0.17404 0.10111 0.0
H22 H 0.45605 0.13632 0.98626 0.0
H23 H 0.50982 0.18442 0.09244 0.0
O24 O 0.36493 0.0558 0.04561 0.0
H25 H 0.2899 0.06002 0.11107 0.0
H26 H 0.30473 0.98269 0.07922 0.0
H27 H 0.25165 0.97503 0.08377 0.0
H28 H 0.24392 0.01376 0.09991 0.0
H29 H 0.34251 0.06709 0.10589 0.0
H30 H 0.31605 0.94075 0.13142 0.0
H31 H 0.32788 0.90729 0.11236 0.0
O32 O 0.357 0.0162 0.0632 0.0
C33 C 0.42608 0.04498 0.06802 0.0
C34 C 0.35175 0.94132 0.09155 0.0
C35 C 0.32882 0.94908 0.11868 0.0
N36 N 0.35475 0.98937 0.09667 0.0
C37 C 0.36127 0.97106 0.0861 0.0
C38 C 0.33874 0.97873 0.1128 0.0
C39 C 0.33543 0.93031 0.10797 0.0
C40 C 0.4341 0.13757 0.08222 0.0
N41 N 0.43805 0.12053 0.06925 0.0
C42 C 0.45979 0.16076 0.09077 0.0
C43 C 0.4897 0.16652 0.08593 0.0
C44 C 0.49356 0.14913 0.07264 0.0
C45 C 0.46732 0.1261 0.0644 0.0
C46 C 0.44531 0.1467 1.01279 0.0
C47 C 0.42049 0.08569 0.02083 0.0
C48 C 0.43217 0.13486 0.0299 0.0
N49 N 0.42016 0.10474 0.03376 0.0
C50 C 0.43344 0.09673 1.00358 0.0
C51 C 0.44595 0.12746 0.99957 0.0
C52 C 0.35287 0.02745 0.0486 0.0
C53 C 0.29292 0.04281 0.10419 0.0
C54 C 0.30163 0.99966 0.08628 0.0
C55 C 0.27147 0.99518 0.08882 0.0
C56 C 0.26715 0.01691 0.09788 0.0
N57 N 0.32683 0.02498 0.09268 0.0
C58 C 0.32273 0.04653 0.1014 0.0
Co59 Co 0.88898 0.28503 0.03249 0.0
Co60 Co 0.93203 0.30789 0.07145 0.0
O61 O 0.89508 0.27945 0.05809 0.0
C62 C 0.87937 0.22277 0.03396 0.0
O63 O 0.90524 0.23303 0.04309 0.0
C64 C 0.87641 0.28109 0.09749 0.0
O65 O 0.85738 0.27856 0.08448 0.0
O66 O 0.92552 0.34315 0.06401 0.0
O67 O 0.90854 0.32971 0.0355 0.0
H68 H 0.03361 0.40399 0.07928 0.0
H69 H 0.83451 0.23988 0.05417 0.0
O70 O 0.86957 0.24057 0.02879 0.0
H71 H 0.80429 0.31356 0.03184 0.0
H72 H 0.82988 0.25793 0.974 0.0
H73 H 0.92779 0.32906 1.00362 0.0
H74 H 0.85572 0.31929 0.0238 0.0
H75 H 0.83748 0.25174 1.00649 0.0
O76 O 0.90588 0.29783 0.0949 0.0
H77 H 0.9874 0.36742 0.06272 0.0
H78 H 0.9556 0.30871 0.10891 0.0
H79 H 0.92104 0.33626 0.97115 0.0
H80 H 0.78255 0.23282 0.06224 0.0
H81 H 0.8718 0.30052 0.95612 0.0
H82 H 0.76722 0.26995 0.05115 0.0
O83 O 0.93037 0.28963 0.02604 0.0
H84 H 0.90167 0.20109 0.09075 0.0
H85 H 0.98865 0.30077 0.07214 0.0
H86 H 0.99925 0.25931 0.07952 0.0
H87 H 0.95563 0.20906 0.08909 0.0
H88 H 0.89199 0.24278 0.08278 0.0
H89 H 1.0013 0.34471 0.12603 0.0
H90 H 0.0408 0.39277 0.11121 0.0
O91 O 0.95934 0.31657 0.04933 0.0
C92 C 0.92028 0.34954 0.04787 0.0
C93 C 0.01648 0.38321 0.08594 0.0
C94 C 0.99832 0.34997 0.11217 0.0
N95 N 0.9684 0.33613 0.0849 0.0
C96 C 0.99017 0.36243 0.07663 0.0
C97 C 0.97229 0.32975 0.10244 0.0
C98 C 0.0205 0.3769 0.10384 0.0
C99 C 0.82795 0.25603 0.04919 0.0
N100 N 0.84836 0.28028 0.03874 0.0
C101 C 0.79852 0.25196 0.05386 0.0
C102 C 0.78995 0.27283 0.04766 0.0
C103 C 0.81078 0.29734 0.03686 0.0
C104 C 0.84001 0.30068 0.0325 0.0
C105 C 0.85142 0.27368 0.9804 0.0
C106 C 0.90621 0.31353 0.99721 0.0
C107 C 0.85588 0.27025 0.99878 0.0
N108 N 0.88296 0.29016 1.00698 0.0
C109 C 0.90256 0.31767 0.9788 0.0
C110 C 0.87494 0.29759 0.97038 0.0
C111 C 0.95657 0.30537 0.03355 0.0
C112 C 0.92095 0.22299 0.08683 0.0
C113 C 0.96949 0.27904 0.07629 0.0
C114 C 0.97566 0.25561 0.08047 0.0
C115 C 0.9512 0.22744 0.08584 0.0
N116 N 0.93981 0.27472 0.07755 0.0
C117 C 0.91566 0.24693 0.08252 0.0
Co118 Co 0.72992 0.607 0.07152 0.0
Co119 Co 0.70999 0.64671 0.10156 0.0
O120 O 0.7351 0.62817 0.09428 0.0
C121 C 0.79666 0.65212 0.07099 0.0
O122 O 0.78816 0.67246 0.07427 0.0
C123 C 0.72532 0.62187 0.13478 0.0
O124 O 0.723 0.59874 0.1257 0.0
O125 O 0.66971 0.60729 0.09739 0.0
O126 O 0.68373 0.58982 0.07301 0.0
H127 H 0.62317 0.67126 0.09536 0.0
H128 H 0.76796 0.5991 0.09978 0.0
O129 O 0.77616 0.62439 0.06945 0.0
H130 H 0.68026 0.49678 0.08942 0.0
H131 H 0.75404 0.54715 0.02616 0.0
H132 H 0.69114 0.59655 0.03898 0.0
H133 H 0.68487 0.54073 0.07223 0.0
H134 H 0.75941 0.57336 0.0551 0.0
O135 O 0.71357 0.6374 0.12819 0.0
H136 H 0.6557 0.64891 0.08616 0.0
H137 H 0.71084 0.68419 0.13304 0.0
H138 H 0.68484 0.57037 1.00994 0.0
H139 H 0.76465 0.55572 0.117 0.0
H140 H 0.71643 0.54543 1.00337 0.0
H141 H 0.72044 0.50412 0.11195 0.0
O142 O 0.73332 0.64212 0.05754 0.0
H143 H 0.82161 0.71362 0.11993 0.0
H144 H 0.73001 0.7109 0.09178 0.0
H145 H 0.77814 0.75969 0.09476 0.0
H146 H 0.82436 0.76137 0.10908 0.0
H147 H 0.77347 0.66536 0.11621 0.0
H148 H 0.67874 0.70668 0.14283 0.0
H149 H 0.63457 0.70037 0.1239 0.0
O150 O 0.70829 0.65878 0.07584 0.0
C151 C 0.66289 0.59016 0.08338 0.0
C152 C 0.64229 0.67409 0.10376 0.0
C153 C 0.67343 0.69391 0.13041 0.0
N154 N 0.68496 0.66488 0.10913 0.0
C155 C 0.66078 0.66144 0.09863 0.0
C156 C 0.6914 0.6809 0.12486 0.0
C157 C 0.64869 0.69041 0.11977 0.0
C158 C 0.74883 0.57668 0.09735 0.0
N159 N 0.72649 0.5725 0.08509 0.0
C160 C 0.74699 0.55222 0.10722 0.0
C161 C 0.72215 0.52329 0.1044 0.0
C162 C 0.69956 0.51917 0.0918 0.0
C163 C 0.70215 0.54418 0.0822 0.0
C164 C 0.74009 0.55787 0.02888 0.0
C165 C 0.70482 0.58558 0.03628 0.0
C166 C 0.74307 0.57279 0.04523 0.0
N167 N 0.7254 0.58623 0.04879 0.0
C168 C 0.70122 0.57087 0.01978 0.0
C169 C 0.71898 0.55691 0.0161 0.0
C170 C 0.72096 0.65864 0.06062 0.0
C171 C 0.80151 0.71326 0.11387 0.0
C172 C 0.74992 0.71132 0.09804 0.0
C173 C 0.77716 0.73908 0.09969 0.0
C174 C 0.80307 0.74002 0.10773 0.0
N175 N 0.74831 0.68514 0.10433 0.0
C176 C 0.77389 0.68592 0.11195 0.0
Co177 Co 0.60695 0.86796 0.97767 0.0
Co178 Co 0.62161 0.91357 0.94025 0.0
O179 O 0.61625 0.87658 0.95189 0.0
C180 C 0.66097 0.85852 0.9716 0.0
O181 O 0.67642 0.88624 0.96502 0.0
C182 C 0.59145 0.862 0.91435 0.0
O183 O 0.57381 0.84373 0.92746 0.0
O184 O 0.57913 0.905 0.94968 0.0
O185 O 0.58056 0.88797 0.97778 0.0
H186 H 0.61864 0.0112 0.93713 0.0
H187 H 0.59633 0.81688 0.95383 0.0
O188 O 0.63322 0.84798 0.97779 0.0
H189 H 0.49381 0.78772 0.98199 0.0
H190 H 0.58223 0.8039 0.03453 0.0
H191 H 0.60332 0.9025 1.00907 0.0
H192 H 0.5399 0.83633 0.98927 0.0
H193 H 0.59284 0.81502 1.0017 0.0
O194 O 0.60528 0.89058 0.91678 0.0
H195 H 0.61308 0.96503 0.9519 0.0
H196 H 0.64114 0.94069 0.90291 0.0
H197 H 0.59255 0.89223 0.04194 0.0
H198 H 0.55102 0.76778 0.94645 0.0
H199 H 0.5819 0.84262 0.05487 0.0
H200 H 0.49923 0.75297 0.96049 0.0
O201 O 0.64393 0.9072 0.98356 0.0
H202 H 0.7024 0.88929 0.91493 0.0
H203 H 0.68377 0.96948 0.93919 0.0
H204 H 0.73688 0.98196 0.92953 0.0
H205 H 0.74648 0.94178 0.91713 0.0
H206 H 0.64993 0.87765 0.92515 0.0
H207 H 0.64677 0.98648 0.88757 0.0
H208 H 0.63558 0.02219 0.90472 0.0
O209 O 0.64022 0.93756 0.96265 0.0
C210 C 0.5697 0.89945 0.9664 0.0
C211 C 0.6235 0.99578 0.9295 0.0
C212 C 0.63923 0.98187 0.90168 0.0
N213 N 0.62642 0.94993 0.92826 0.0
C214 C 0.62034 0.96954 0.93778 0.0
C215 C 0.63578 0.95583 0.91041 0.0
C216 C 0.63299 1.00192 0.91131 0.0
C217 C 0.57397 0.8105 0.96016 0.0
N218 N 0.57076 0.8296 0.97189 0.0
C219 C 0.54835 0.78271 0.95585 0.0
C220 C 0.51929 0.77444 0.9637 0.0
C221 C 0.51622 0.79396 0.97573 0.0
C222 C 0.54236 0.82158 0.9797 0.0
C223 C 0.58677 0.82558 0.02905 0.0
C224 C 0.59852 0.88079 1.01457 0.0
C225 C 0.59286 0.83202 1.01048 0.0
N226 N 0.59842 0.85928 1.00346 0.0
C227 C 0.59252 0.87514 0.03321 0.0
C228 C 0.58658 0.84731 0.04046 0.0
C229 C 0.65179 0.93339 0.97709 0.0
C230 C 0.69848 0.9071 0.92009 0.0
C231 C 0.68764 0.95183 0.93378 0.0
C232 C 0.71782 0.95906 0.92834 0.0
C233 C 0.7232 0.93651 0.92139 0.0
N234 N 0.66335 0.923 0.93224 0.0
C235 C 0.66862 0.9007 0.92572 0.0
Co236 Co 0.11885 0.69978 0.96067 0.0
Co237 Co 0.06137 0.6827 0.92945 0.0
O238 O 0.10448 0.70653 0.93744 0.0
C239 C 0.13966 0.76507 0.96082 0.0
O240 O 0.11106 0.75809 0.95669 0.0
C241 C 0.10455 0.69972 0.89665 0.0
O242 O 0.12588 0.69807 0.9063 0.0
O243 O 0.06218 0.64337 0.93374 0.0
O244 O 0.09074 0.65523 0.95904 0.0
H245 H 0.95064 0.5977 0.93387 0.0
H246 H 0.16734 0.73771 0.93314 0.0
O247 O 0.14686 0.74433 0.96293 0.0
H248 H 0.18321 0.65043 0.94489 0.0
H249 H 0.1994 0.71857 1.00779 0.0
H250 H 0.08789 0.66058 0.993 0.0
H251 H 0.14149 0.65492 0.96101 0.0
H252 H 0.18081 0.72608 0.97826 0.0
O253 O 0.07662 0.68801 0.90302 0.0
H254 H 1.00475 0.62859 0.94391 0.0
H255 H 0.02612 0.68611 0.8975 0.0
H256 H 0.10551 0.65217 0.02261 0.0
H257 H 0.20974 0.73445 0.91697 0.0
H258 H 0.16163 0.68129 0.03017 0.0
H259 H 0.21779 0.69046 0.92272 0.0
O260 O 0.08517 0.70305 0.97375 0.0
H261 H 0.10317 0.79211 0.91108 0.0
H262 H 0.01435 0.7016 0.93875 0.0
H263 H 0.01162 0.74858 0.93564 0.0
H264 H 0.05614 0.79426 0.92157 0.0
H265 H 0.10528 0.74505 0.91487 0.0
H266 H 0.97231 0.65568 0.88688 0.0
H267 H 0.93408 0.61115 0.90514 0.0
O268 O 0.04502 0.67907 0.95495 0.0
C269 C 0.07129 0.63574 0.94823 0.0
C270 C 0.96709 0.617 0.92576 0.0
C271 C 0.97928 0.6495 0.89938 0.0
N272 N 0.01876 0.65898 0.92123 0.0
C273 C 0.99781 0.63457 0.93137 0.0
C274 C 0.00982 0.66653 0.9054 0.0
C275 C 0.95783 0.62455 0.90964 0.0
C276 C 0.17087 0.71865 0.93587 0.0
N277 N 0.15178 0.69642 0.94793 0.0
C278 C 0.19484 0.71686 0.9266 0.0
C279 C 0.1993 0.69215 0.9298 0.0
C280 C 0.17986 0.66965 0.9422 0.0
C281 C 0.15611 0.67219 0.9512 0.0
C282 C 0.17489 0.7057 1.00464 0.0
C283 C 0.11238 0.67321 0.99614 0.0
C284 C 0.16423 0.7099 0.98796 0.0
N285 N 0.13334 0.69361 0.98385 0.0
C286 C 0.1222 0.66841 1.01295 0.0
C287 C 0.15369 0.68477 0.01719 0.0
C288 C 0.05623 0.69071 0.97027 0.0
C289 C 0.08345 0.77226 0.91703 0.0
C290 C 0.03385 0.72129 0.93261 0.0
C291 C 0.03215 0.74788 0.93088 0.0
C292 C 0.05711 0.77349 0.92298 0.0
N293 N 0.05959 0.72006 0.92654 0.0
C294 C 0.08433 0.74529 0.91901 0.0
Co295 Co 0.32054 0.42809 0.96884 0.0
Co296 Co 0.30592 0.3571 0.95596 0.0
O297 O 0.32994 0.3947 0.96902 0.0
C298 C 0.39097 0.45519 0.96812 0.0
O299 O 0.3885 0.43288 0.95809 0.0
C300 C 0.30425 0.33414 0.99324 0.0
O301 O 0.2965 0.35387 0.99932 0.0
O302 O 0.26647 0.35147 0.96713 0.0
O303 O 0.27467 0.39903 0.96845 0.0
H304 H 0.21726 0.28402 0.91782 0.0
H305 H 0.3595 0.42199 0.99772 0.0
O306 O 0.36708 0.45862 0.9706 0.0
H307 H 0.27284 0.42464 0.03035 0.0
H308 H 0.33685 0.53006 0.98791 0.0
H309 H 0.27407 0.44037 0.9509 0.0
H310 H 0.27644 0.42806 0.99691 0.0
H311 H 0.3474 0.48737 0.98784 0.0
O312 O 0.3101 0.33346 0.97641 0.0
H313 H 0.24825 0.33144 0.93433 0.0
H314 H 0.31192 0.30201 0.95006 0.0
H315 H 0.26254 0.48246 0.95063 0.0
H316 H 0.35704 0.41902 0.0311 0.0
H317 H 0.29412 0.52781 0.96922 0.0
H318 H 0.31343 0.42025 0.04769 0.0
O319 O 0.3198 0.42888 0.9411 0.0
H320 H 0.41626 0.37643 0.95699 0.0
H321 H 0.3274 0.35561 0.91806 0.0
H322 H 0.37638 0.36279 0.90402 0.0
H323 H 0.42123 0.37317 0.92356 0.0
H324 H 0.367 0.36968 0.97038 0.0
H325 H 0.2814 0.25412 0.93389 0.0
H326 H 0.23377 0.24494 0.91754 0.0
O327 O 0.30026 0.37936 0.9354 0.0
C328 C 0.25682 0.37042 0.9693 0.0
C329 C 0.23801 0.28778 0.92486 0.0
C330 C 0.27399 0.27098 0.93389 0.0
N331 N 0.28199 0.31958 0.94307 0.0
C332 C 0.25571 0.31463 0.93419 0.0
C333 C 0.29113 0.29811 0.94307 0.0
C334 C 0.24727 0.26585 0.92472 0.0
C335 C 0.3408 0.42322 1.00475 0.0
N336 N 0.31859 0.42598 0.99527 0.0
C337 C 0.33937 0.42122 0.0237 0.0
C338 C 0.31486 0.42184 0.033 0.0
C339 C 0.29209 0.42429 0.02328 0.0
C340 C 0.29427 0.42624 1.00433 0.0
C341 C 0.3231 0.51055 0.97962 0.0
C342 C 0.28811 0.46009 0.95885 0.0
C343 C 0.32914 0.48637 0.9794 0.0
N344 N 0.31182 0.46157 0.96901 0.0
C345 C 0.28139 0.48384 0.95872 0.0
C346 C 0.29909 0.50925 0.96916 0.0
C347 C 0.30637 0.4059 0.93055 0.0
C348 C 0.39689 0.37192 0.94833 0.0
C349 C 0.34694 0.3606 0.92659 0.0
C350 C 0.37456 0.36441 0.9186 0.0
C351 C 0.39968 0.37015 0.92957 0.0
N352 N 0.34442 0.36251 0.94499 0.0
C353 C 0.36889 0.36794 0.95584 0.0
Co354 Co 0.06986 0.42095 0.39082 0.0
Co355 Co 0.03638 0.36573 0.42396 0.0
O356 O 0.05212 0.40719 0.4151 0.0
C357 C 0.02233 0.43989 0.39426 0.0
O358 O 1.00239 0.41172 0.39873 0.0
C359 C 0.06606 0.40873 0.45464 0.0
O360 O 0.08831 0.42812 0.44374 0.0
O361 O 0.0775 0.36762 0.41741 0.0
O362 O 0.0891 0.39425 0.39116 0.0
H363 H 0.01771 0.25915 0.42079 0.0
H364 H 0.08136 0.46816 0.41804 0.0
O365 O 0.05045 0.4475 0.39011 0.0
H366 H 0.18548 0.48504 0.39973 0.0
H367 H 0.12145 0.49877 0.34072 0.0
H368 H 0.07631 0.39099 0.35784 0.0
H369 H 0.13817 0.44382 0.38635 0.0
H370 H 0.09982 0.48081 0.37161 0.0
O371 O 0.04918 0.38141 0.44957 0.0
H372 H 0.03635 0.31121 0.40956 0.0
H373 H 1.00329 0.33196 0.45799 0.0
H374 H 0.0979 0.408 0.32687 0.0
H375 H 0.12807 0.51001 0.43149 0.0
H376 H 0.12069 0.46226 0.31813 0.0
H377 H 0.18062 0.51858 0.42242 0.0
O378 O 0.03214 0.38763 0.37986 0.0
H379 H 0.96532 0.4044 0.44653 0.0
H380 H 0.97014 0.31881 0.4185 0.0
H381 H 0.91903 0.31501 0.42459 0.0
H382 H 0.91633 0.35792 0.43886 0.0
H383 H 0.01582 0.40755 0.43977 0.0
H384 H 0.98455 0.2802 0.4698 0.0
H385 H 0.99161 0.24333 0.45113 0.0
O386 O 0.02107 0.34915 0.39926 0.0
C387 C 0.09214 0.3761 0.40199 0.0
C388 C 0.01453 0.27501 0.42907 0.0
C389 C 0.99598 0.28685 0.45659 0.0
N390 N 0.02115 0.32475 0.43314 0.0
C391 C 0.02505 0.30456 0.42278 0.0
C392 C 0.00684 0.31622 0.44987 0.0
C393 C 0.99991 0.26616 0.4461 0.0
C394 C 0.10413 0.47193 0.41385 0.0
N395 N 0.10698 0.45344 0.40146 0.0
C396 C 0.13051 0.49558 0.42159 0.0
C397 C 0.15997 0.50033 0.41653 0.0
C398 C 0.16271 0.48148 0.40383 0.0
C399 C 0.13582 0.45803 0.39639 0.0
C400 C 0.11165 0.47508 0.34437 0.0
C401 C 0.08636 0.41467 0.35419 0.0
C402 C 0.09932 0.46478 0.36183 0.0
N403 N 0.08707 0.43493 0.36657 0.0
C404 C 0.09847 0.42415 0.33661 0.0
C405 C 0.11122 0.45459 0.33171 0.0
C406 C 0.01772 0.35956 0.38411 0.0
C407 C 0.96615 0.3854 0.4405 0.0
C408 C 0.96926 0.33761 0.42469 0.0
C409 C 0.9402 0.3353 0.42813 0.0
C410 C 0.93869 0.35937 0.43614 0.0
N411 N 0.99617 0.36306 0.4292 0.0
C412 C 0.99479 0.38689 0.43684 0.0
Co413 Co 0.55821 0.62289 0.36903 0.0
Co414 Co 0.60482 0.64482 0.40633 0.0
O415 O 0.5659 0.61779 0.3943 0.0
C416 C 0.54315 0.55861 0.37015 0.0
O417 O 0.57187 0.56711 0.37488 0.0
C418 C 0.55184 0.62089 0.43403 0.0
O419 O 0.53225 0.62039 0.42197 0.0
O420 O 0.6001 0.68136 0.3994 0.0
O421 O 0.58159 0.66793 0.37113 0.0
H422 H 0.71008 0.7377 0.41124 0.0
H423 H 0.50437 0.58277 0.39302 0.0
O424 O 0.53454 0.57802 0.36679 0.0
H425 H 0.48055 0.66048 0.36989 0.0
H426 H 0.4937 0.59621 0.31261 0.0
H427 H 0.59632 0.66374 0.33875 0.0
H428 H 0.52907 0.66099 0.36054 0.0
H429 H 0.5036 0.59101 0.34485 0.0
O430 O 0.58121 0.63634 0.43063 0.0
H431 H 0.66139 0.7026 0.39612 0.0
H432 H 0.63133 0.64486 0.44277 0.0
H433 H 0.58733 0.66992 0.30649 0.0
H434 H 0.45519 0.58087 0.40241 0.0
H435 H 0.5357 0.63599 0.29322 0.0
H436 H 0.44309 0.62008 0.39093 0.0
O437 O 0.59745 0.62357 0.36136 0.0
H438 H 0.5696 0.53636 0.42418 0.0
H439 H 0.65927 0.63413 0.40528 0.0
H440 H 0.66722 0.59067 0.41141 0.0
H441 H 0.62224 0.54135 0.42111 0.0
H442 H 0.56254 0.58006 0.41755 0.0
H443 H 0.67956 0.67944 0.45846 0.0
H444 H 0.71944 0.72624 0.44267 0.0
O445 O 0.62951 0.65168 0.38329 0.0
C446 C 0.59487 0.68794 0.38329 0.0
C447 C 0.69282 0.71745 0.41831 0.0
C448 C 0.67567 0.68479 0.44481 0.0
N449 N 0.64318 0.67188 0.41861 0.0
C450 C 0.66512 0.69751 0.40982 0.0
C451 C 0.64823 0.66539 0.43589 0.0
C452 C 0.69806 0.71102 0.43593 0.0
C453 C 0.49921 0.59979 0.38785 0.0
N454 N 0.51987 0.62229 0.37645 0.0
C455 C 0.47135 0.59866 0.39328 0.0
C456 C 0.4646 0.62068 0.38686 0.0
C457 C 0.48565 0.6434 0.3751 0.0
C458 C 0.51328 0.6438 0.36999 0.0
C459 C 0.51627 0.61117 0.31824 0.0
C460 C 0.57373 0.64902 0.3331 0.0
C461 C 0.52204 0.60828 0.33648 0.0
N462 N 0.55043 0.62722 0.34371 0.0
C463 C 0.56881 0.65256 0.31481 0.0
C464 C 0.53985 0.6335 0.30737 0.0
C465 C 0.62461 0.63895 0.36788 0.0
C466 C 0.58948 0.55783 0.42019 0.0
C467 C 0.63955 0.61287 0.40956 0.0
C468 C 0.64421 0.58827 0.41299 0.0
C469 C 0.61898 0.56062 0.41842 0.0
N470 N 0.61063 0.6102 0.41163 0.0
C471 C 0.5857 0.5829 0.4166 0.0
Co472 Co 0.3973 0.93862 0.40156 0.0
Co473 Co 0.37876 0.97704 0.43313 0.0
O474 O 0.40346 0.95849 0.42491 0.0
C475 C 0.46508 0.9812 0.40115 0.0
O476 O 0.45874 1.00272 0.40537 0.0
C477 C 0.39641 0.95267 0.46578 0.0
O478 O 0.39493 0.93018 0.45636 0.0
O479 O 0.33828 0.93766 0.42926 0.0
O480 O 0.3513 0.92279 0.4034 0.0
H481 H 0.29152 1.00148 0.42956 0.0
H482 H 0.43395 0.9271 0.42903 0.0
O483 O 0.44313 0.95421 0.39913 0.0
H484 H 0.34437 0.82699 0.41634 0.0
H485 H 0.41744 0.87961 0.35362 0.0
H486 H 0.35881 0.93221 0.36948 0.0
H487 H 0.35077 0.87272 0.40051 0.0
H488 H 0.42418 0.90394 0.38337 0.0
O489 O 0.38371 0.96761 0.45956 0.0
H490 H 0.32355 0.97922 0.4192 0.0
H491 H 0.38143 0.01451 0.46504 0.0
H492 H 0.35114 0.90794 0.33965 0.0
H493 H 0.42888 0.88191 0.44493 0.0
H494 H 0.38059 0.8814 0.33156 0.0
H495 H 0.3837 0.8314 0.43871 0.0
O496 O 0.40242 0.97548 0.38885 0.0
H497 H 0.49128 0.04413 0.4498 0.0
H498 H 0.39824 0.04117 0.42357 0.0
H499 H 0.44645 0.09002 0.42609 0.0
H500 H 0.49339 0.09182 0.43945 0.0
H501 H 0.44304 0.9958 0.44656 0.0
H502 H 0.34987 0.03692 0.47597 0.0
H503 H 0.30457 0.03056 0.45816 0.0
O504 O 0.37563 0.9893 0.40768 0.0
C505 C 0.33083 0.92198 0.4146 0.0
C506 C 0.31112 0.00432 0.43748 0.0
C507 C 0.34383 0.02415 0.46354 0.0
N508 N 0.35413 0.99515 0.4416 0.0
C509 C 0.32933 0.99169 0.4317 0.0
C510 C 0.36149 0.01118 0.45735 0.0
C511 C 0.31845 0.02062 0.45353 0.0
C512 C 0.41435 0.90519 0.42614 0.0
N513 N 0.39244 0.90263 0.41401 0.0
C514 C 0.41154 0.87968 0.43524 0.0
C515 C 0.38617 0.85137 0.43177 0.0
C516 C 0.36405 0.84889 0.41926 0.0
C517 C 0.36762 0.8749 0.41044 0.0
C518 C 0.40444 0.89105 0.357 0.0
C519 C 0.37157 0.92055 0.3661 0.0
C520 C 0.4082 0.90493 0.37381 0.0
N521 N 0.39172 0.91928 0.37821 0.0
C522 C 0.36719 0.90692 0.34917 0.0
C523 C 0.38375 0.89206 0.34463 0.0
C524 C 0.3895 0.99131 0.39254 0.0
C525 C 0.47086 0.04372 0.44419 0.0
C526 C 0.41846 0.04164 0.42945 0.0
C527 C 0.44575 0.06944 0.43083 0.0
C528 C 0.47207 0.07044 0.43832 0.0
N529 N 0.4172 0.01549 0.4355 0.0
C530 C 0.44318 0.01633 0.44256 0.0
Co531 Co 0.27223 0.20093 0.3139 0.0
Co532 Co 0.28405 0.24097 0.27387 0.0
O533 O 0.28096 0.20649 0.2878 0.0
C534 C 0.32906 0.19578 0.30938 0.0
O535 O 0.34051 0.21976 0.29868 0.0
C536 C 0.25377 0.18537 0.25072 0.0
O537 O 0.23868 0.16837 0.26488 0.0
O538 O 0.24176 0.2329 0.28353 0.0
O539 O 0.24283 0.21728 0.31207 0.0
H540 H 0.27799 0.33634 0.26497 0.0
H541 H 0.26676 0.14865 0.2932 0.0
O542 O 0.3019 0.18506 0.31647 0.0
H543 H 0.1622 0.11442 0.32001 0.0
H544 H 0.25219 0.14569 0.37395 0.0
H545 H 0.26508 0.23764 0.3428 0.0
H546 H 0.20529 0.16584 0.32556 0.0
H547 H 0.26227 0.15266 0.34087 0.0
O548 O 0.26645 0.21415 0.25183 0.0
H549 H 0.27492 0.29326 0.28238 0.0
H550 H 0.30019 0.26207 0.23514 0.0
H551 H 0.25474 0.23146 0.37588 0.0
H552 H 0.22453 0.09682 0.28756 0.0
H553 H 0.24823 0.18521 0.39167 0.0
H554 H 0.17173 0.07946 0.30093 0.0
O555 O 0.30683 0.24223 0.31836 0.0
H556 H 0.36468 0.21566 0.24948 0.0
H557 H 0.34532 0.29747 0.26979 0.0
H558 H 0.39799 0.30984 0.25925 0.0
H559 H 0.40793 0.26881 0.24883 0.0
H560 H 0.3127 0.20421 0.26058 0.0
H561 H 0.3033 0.30466 0.21719 0.0
H562 H 0.29224 0.34225 0.23211 0.0
O563 O 0.30378 0.26874 0.2947 0.0
C564 C 0.23179 0.22766 0.30016 0.0
C565 C 0.28273 0.32004 0.25829 0.0
C566 C 0.29688 0.30223 0.23148 0.0
N567 N 0.28688 0.27483 0.25977 0.0
C568 C 0.28095 0.29553 0.26808 0.0
C569 C 0.29483 0.27799 0.2417 0.0
C570 C 0.29072 0.32334 0.23986 0.0
C571 C 0.24394 0.14117 0.29921 0.0
N572 N 0.23844 0.16036 0.30959 0.0
C573 C 0.22007 0.11184 0.2959 0.0
C574 C 0.19044 0.10213 0.30337 0.0
C575 C 0.18506 0.12176 0.31404 0.0
C576 C 0.20949 0.15095 0.31703 0.0
C577 C 0.25491 0.1659 0.36722 0.0
C578 C 0.26205 0.21736 0.34956 0.0
C579 C 0.26067 0.17 0.34849 0.0
N580 N 0.26397 0.19541 0.33989 0.0
C581 C 0.2563 0.21403 0.3683 0.0
C582 C 0.25269 0.18808 0.37715 0.0
C583 C 0.31429 0.26714 0.31019 0.0
C584 C 0.36058 0.2338 0.25378 0.0
C585 C 0.34936 0.27944 0.26531 0.0
C586 C 0.37928 0.28661 0.25933 0.0
C587 C 0.38485 0.26359 0.25348 0.0
N588 N 0.3255 0.25018 0.26537 0.0
C589 C 0.33097 0.22748 0.25988 0.0
Co590 Co 0.79117 0.03747 0.29189 0.0
Co591 Co 0.72927 0.01537 0.26355 0.0
O592 O 0.77287 0.04193 0.26965 0.0
C593 C 0.80718 0.10138 0.29171 0.0
O594 O 0.77748 0.09178 0.28905 0.0
C595 C 0.76912 0.03206 0.2295 0.0
O596 O 0.79039 0.02881 0.23821 0.0
O597 O 0.73418 0.97816 0.26683 0.0
O598 O 0.76499 0.99239 0.29122 0.0
H599 H 0.62197 0.92544 0.27161 0.0
H600 H 0.83487 0.07591 0.26249 0.0
O601 O 0.81707 0.0825 0.29317 0.0
H602 H 0.85846 0.99303 0.27239 0.0
H603 H 0.8791 0.06348 0.33497 0.0
H604 H 0.76638 0.99915 0.32521 0.0
H605 H 0.81737 0.99549 0.29058 0.0
H606 H 0.85543 0.06801 0.30661 0.0
O607 O 0.74186 0.02154 0.23668 0.0
H608 H 0.67666 0.95939 0.27963 0.0
H609 H 0.68894 0.01518 0.23349 0.0
H610 H 0.78911 0.99368 0.3537 0.0
H611 H 0.87655 0.07463 0.24422 0.0
H612 H 0.84588 0.02599 0.35872 0.0
H613 H 0.88848 0.03287 0.24906 0.0
O614 O 0.75791 0.03901 0.30655 0.0
H615 H 0.7593 0.12212 0.24455 0.0
H616 H 0.68092 0.03001 0.27693 0.0
H617 H 0.6734 0.07451 0.27512 0.0
H618 H 0.71264 0.12095 0.25873 0.0
H619 H 0.76629 0.07748 0.24703 0.0
H620 H 0.63444 0.98171 0.22489 0.0
H621 H 0.6005 0.93649 0.24403 0.0
O622 O 0.71581 0.01072 0.2898 0.0
C623 C 0.74523 0.97187 0.28099 0.0
C624 C 0.63654 0.94503 0.26312 0.0
C625 C 0.64356 0.97657 0.23689 0.0
N626 N 0.68616 0.98909 0.25696 0.0
C627 C 0.66758 0.96433 0.26759 0.0
C628 C 0.6745 0.99534 0.24177 0.0
C629 C 0.62452 0.95123 0.24765 0.0
C630 C 0.84016 0.05786 0.26483 0.0
N631 N 0.82362 0.03575 0.27756 0.0
C632 C 0.86368 0.05717 0.25437 0.0
C633 C 0.87031 0.0337 0.25706 0.0
C634 C 0.85344 0.0113 0.27013 0.0
C635 C 0.83005 0.01271 0.28031 0.0
C636 C 0.85435 0.04922 0.33293 0.0
C637 C 0.79113 0.01316 0.32725 0.0
C638 C 0.84081 0.05172 0.31691 0.0
N639 N 0.80961 0.03367 0.31419 0.0
C640 C 0.80385 0.01002 0.34343 0.0
C641 C 0.8357 0.02818 0.34624 0.0
C642 C 0.72853 0.02393 0.30452 0.0
C643 C 0.74186 0.10191 0.25157 0.0
C644 C 0.69813 0.05008 0.26974 0.0
C645 C 0.69372 0.07523 0.26876 0.0
C646 C 0.71573 0.10127 0.25957 0.0
N647 N 0.72366 0.05071 0.26169 0.0
C648 C 0.74551 0.07634 0.25284 0.0
Co649 Co 0.98489 0.76039 0.30324 0.0
Co650 Co 0.97191 0.69047 0.28907 0.0
O651 O 0.99503 0.7275 0.30277 0.0
C652 C 0.05542 0.78859 0.30231 0.0
O653 O 0.0533 0.76705 0.29167 0.0
C654 C 0.96988 0.6664 0.32602 0.0
O655 O 0.96175 0.68575 0.3323 0.0
O656 O 0.93185 0.68364 0.29999 0.0
O657 O 0.93916 0.73078 0.3025 0.0
H658 H 0.88519 0.61841 0.24943 0.0
H659 H 0.02423 0.75416 0.33179 0.0
O660 O 0.03124 0.79132 0.30532 0.0
H661 H 0.93609 0.7532 0.36491 0.0
H662 H 0.99937 0.86088 0.32409 0.0
H663 H 0.93782 0.77247 0.2859 0.0
H664 H 0.93998 0.75811 0.33152 0.0
H665 H 0.0108 0.81878 0.32314 0.0
O666 O 0.97596 0.66621 0.30918 0.0
H667 H 0.91498 0.66511 0.26679 0.0
H668 H 0.97916 0.63625 0.28242 0.0
H669 H 0.92542 0.81397 0.28649 0.0
H670 H 0.02147 0.74971 0.36513 0.0
H671 H 0.95638 0.85868 0.30568 0.0
H672 H 0.97711 0.74911 0.38197 0.0
O673 O 0.98446 0.76238 0.27553 0.0
H674 H 0.08287 0.7117 0.29072 0.0
H675 H 0.99473 0.69114 0.25121 0.0
H676 H 0.04445 0.69986 0.23743 0.0
H677 H 0.08895 0.71012 0.25725 0.0
H678 H 0.03288 0.70342 0.30388 0.0
H679 H 0.94984 0.58907 0.26538 0.0
H680 H 0.90257 0.57998 0.24866 0.0
O681 O 0.96641 0.71338 0.26885 0.0
C682 C 0.92166 0.70209 0.30262 0.0
C683 C 0.90579 0.62214 0.25662 0.0
C684 C 0.94206 0.60566 0.26559 0.0
N685 N 0.94891 0.65351 0.27552 0.0
C686 C 0.92281 0.64859 0.26644 0.0
C687 C 0.95851 0.63238 0.27526 0.0
C688 C 0.91554 0.60058 0.25621 0.0
C689 C 1.00518 0.75457 0.33894 0.0
N690 N 0.98269 0.75712 0.32964 0.0
C691 C 1.00359 0.75176 0.35787 0.0
C692 C 0.97866 0.75134 0.3673 0.0
C693 C 0.95564 0.75363 0.35774 0.0
C694 C 0.95799 0.75642 0.33882 0.0
C695 C 0.98589 0.84166 0.31554 0.0
C696 C 0.9516 0.79193 0.29409 0.0
C697 C 0.99243 0.81782 0.31481 0.0
N698 N 0.97546 0.79339 0.30409 0.0
C699 C 0.94439 0.81534 0.29446 0.0
C700 C 0.96174 0.84039 0.30524 0.0
C701 C 0.97193 0.73994 0.26453 0.0
C702 C 0.06366 0.70724 0.28194 0.0
C703 C 0.01411 0.69605 0.25989 0.0
C704 C 0.04214 0.70073 0.25202 0.0
C705 C 0.06707 0.70641 0.26316 0.0
N706 N 0.01098 0.69703 0.2783 0.0
C707 C 0.03525 0.70239 0.28931 0.0
Co708 Co 0.73523 0.75625 0.72252 0.0
Co709 Co 0.71038 0.70458 0.75745 0.0
O710 O 0.72103 0.74439 0.74752 0.0
C711 C 0.68518 0.77188 0.72716 0.0
O712 O 0.6666 0.7438 0.73246 0.0
C713 C 0.73885 0.75105 0.78653 0.0
O714 O 0.75944 0.77041 0.77484 0.0
O715 O 0.75309 0.71098 0.75026 0.0
O716 O 0.75756 0.73222 0.72267 0.0
H717 H 0.7044 0.60273 0.75709 0.0
H718 H 0.74699 0.80523 0.74844 0.0
O719 O 0.71312 0.78033 0.72207 0.0
H720 H 0.85086 0.8275 0.72563 0.0
H721 H 0.77567 0.82898 0.66922 0.0
H722 H 0.73995 0.72425 0.69008 0.0
H723 H 0.80346 0.78297 0.71488 0.0
H724 H 0.75885 0.81371 0.7011 0.0
O725 O 0.72344 0.72308 0.78243 0.0
H726 H 0.71664 0.6525 0.7444 0.0
H727 H 0.68189 0.67211 0.79257 0.0
H728 H 0.75681 0.73861 0.65812 0.0
H729 H 0.79372 0.85032 0.75929 0.0
H730 H 0.77484 0.79133 0.64751 0.0
H731 H 0.84616 0.86163 0.74795 0.0
O732 O 0.69728 0.72022 0.71378 0.0
H733 H 0.6313 0.73287 0.78059 0.0
H734 H 0.64639 0.65252 0.75308 0.0
H735 H 0.59315 0.6429 0.75995 0.0
H736 H 0.58531 0.68314 0.77395 0.0
H737 H 0.68396 0.74178 0.77312 0.0
H738 H 0.66951 0.62263 0.80584 0.0
H739 H 0.68068 0.58749 0.78804 0.0
O740 O 0.69501 0.68511 0.73338 0.0
C741 C 0.76492 0.7177 0.73404 0.0
C742 C 0.69948 0.61786 0.765 0.0
C743 C 0.67995 0.62905 0.79236 0.0
N744 N 0.70025 0.66537 0.76776 0.0
C745 C 0.70638 0.64611 0.75788 0.0
C746 C 0.68721 0.65715 0.78481 0.0
C747 C 0.68618 0.60933 0.78236 0.0
C748 C 0.76967 0.81014 0.74328 0.0
N749 N 0.77245 0.79136 0.73108 0.0
C750 C 0.79608 0.83564 0.74955 0.0
C751 C 0.82549 0.84194 0.74321 0.0
C752 C 0.82815 0.82276 0.73072 0.0
C753 C 0.80122 0.79745 0.72477 0.0
C754 C 0.76792 0.80597 0.67369 0.0
C755 C 0.74793 0.74727 0.68559 0.0
C756 C 0.75832 0.79717 0.69171 0.0
N757 N 0.74867 0.76818 0.69747 0.0
C758 C 0.75738 0.75525 0.66747 0.0
C759 C 0.76746 0.78483 0.66151 0.0
C760 C 0.6871 0.69276 0.71866 0.0
C761 C 0.63441 0.71501 0.7747 0.0
C762 C 0.64326 0.67017 0.75922 0.0
C763 C 0.61301 0.66457 0.76307 0.0
C764 C 0.60862 0.68715 0.77092 0.0
N765 N 0.66853 0.69742 0.7632 0.0
C766 C 0.66431 0.7198 0.77064 0.0
Co767 Co 0.22427 0.95182 0.69878 0.0
Co768 Co 0.26718 0.97425 0.73789 0.0
O769 O 0.23028 0.94611 0.72439 0.0
C770 C 0.21524 0.88986 0.70022 0.0
O771 O 0.24114 0.90042 0.70935 0.0
C772 C 0.21134 0.94759 0.76379 0.0
O773 O 0.19241 0.94488 0.75068 0.0
O774 O 0.26122 0.00983 0.73035 0.0
O775 O 0.2436 0.99645 0.70193 0.0
H776 H 0.3695 0.06947 0.74599 0.0
H777 H 0.16978 0.90631 0.72032 0.0
O778 O 0.20516 0.90741 0.695 0.0
H779 H 0.13923 0.97985 0.69816 0.0
H780 H 0.16543 0.92479 0.64021 0.0
H781 H 0.26298 0.99621 0.67004 0.0
H782 H 0.19079 0.98587 0.69016 0.0
H783 H 0.17298 0.91844 0.67268 0.0
O784 O 0.24082 0.9644 0.76126 0.0
H785 H 0.32329 0.03329 0.72927 0.0
H786 H 0.29014 0.97476 0.77549 0.0
H787 H 0.25628 1.00357 0.63759 0.0
H788 H 0.11769 0.89896 0.72835 0.0
H789 H 0.20721 0.96769 0.62246 0.0
H790 H 0.10219 0.93602 0.71735 0.0
O791 O 0.26578 0.95674 0.69231 0.0
H792 H 0.23548 0.86707 0.75711 0.0
H793 H 0.32336 0.96643 0.73886 0.0
H794 H 0.33331 0.92459 0.74633 0.0
H795 H 0.28923 0.8745 0.75571 0.0
H796 H 0.22645 0.90913 0.74907 0.0
H797 H 0.33581 0.01035 0.79277 0.0
H798 H 0.37599 0.05813 0.77802 0.0
O799 O 0.29464 0.98269 0.71589 0.0
C800 C 0.25566 0.01623 0.71429 0.0
C801 C 0.35205 0.04883 0.75262 0.0
C802 C 0.33312 0.01569 0.77888 0.0
N803 N 0.30355 1.00218 0.75147 0.0
C804 C 0.32572 0.0283 0.74323 0.0
C805 C 0.30709 0.99571 0.76906 0.0
C806 C 0.35568 0.04246 0.77058 0.0
C807 C 0.16314 0.92243 0.71538 0.0
N808 N 0.18353 0.9468 0.70501 0.0
C809 C 0.13364 0.9182 0.72002 0.0
C810 C 0.12498 0.93902 0.71387 0.0
C811 C 0.14578 0.96366 0.70315 0.0
C812 C 0.17509 0.96716 0.69881 0.0
C813 C 0.18689 0.94061 0.64666 0.0
C814 C 0.24148 0.98061 0.66358 0.0
C815 C 0.19133 0.93708 0.66503 0.0
N816 N 0.2183 0.95707 0.67328 0.0
C817 C 0.23786 0.98484 0.64519 0.0
C818 C 0.21034 0.96469 0.6367 0.0
C819 C 0.29193 0.97206 0.69996 0.0
C820 C 0.25496 0.8889 0.75329 0.0
C821 C 0.304 0.94479 0.74295 0.0
C822 C 0.30981 0.92114 0.74717 0.0
C823 C 0.28509 0.89305 0.75243 0.0
N824 N 0.27443 0.94077 0.74407 0.0
C825 C 0.25003 0.91307 0.74894 0.0
Co826 Co 0.06554 0.26924 0.73838 0.0
Co827 Co 0.04515 0.3122 0.765 0.0
O828 O 0.07083 0.29344 0.75976 0.0
C829 C 0.13236 0.31382 0.73729 0.0
O830 O 0.12399 0.33453 0.73933 0.0
C831 C 0.06035 0.29155 0.79995 0.0
O832 O 0.05562 0.26643 0.79228 0.0
O833 O 1.00539 0.27172 0.76301 0.0
O834 O 0.01929 0.25259 0.73945 0.0
H835 H 0.95673 0.33358 0.75547 0.0
H836 H 0.10295 0.26459 0.76827 0.0
O837 O 0.11172 0.28598 0.73669 0.0
H838 H 0.01432 0.16154 0.7616 0.0
H839 H 0.08885 0.20302 0.69781 0.0
H840 H 0.02705 0.25491 0.7054 0.0
H841 H 0.01969 0.20335 0.74183 0.0
H842 H 0.09442 0.23306 0.72513 0.0
O843 O 0.05054 0.30784 0.79213 0.0
H844 H 0.98957 0.3106 0.74851 0.0
H845 H 0.04661 0.35449 0.79355 0.0
H846 H 0.02053 0.2249 0.67796 0.0
H847 H 0.09882 0.22334 0.7881 0.0
H848 H 0.05157 0.19869 0.67403 0.0
H849 H 0.05415 0.17139 0.78489 0.0
O850 O 0.06956 0.30274 0.72246 0.0
H851 H 0.15618 0.38523 0.78161 0.0
H852 H 0.06365 0.37311 0.74937 0.0
H853 H 0.11112 0.42302 0.74949 0.0
H854 H 0.15778 0.42941 0.76581 0.0
H855 H 0.10863 0.33567 0.78078 0.0
H856 H 0.01425 0.37777 0.80107 0.0
H857 H 0.96896 0.36743 0.78195 0.0
O858 O 0.0415 0.31893 0.73846 0.0
C859 C 0.99843 0.25356 0.7495 0.0
C860 C 0.97633 0.33817 0.76395 0.0
C861 C 0.00858 0.36292 0.78956 0.0
N862 N 0.01976 0.33079 0.77073 0.0
C863 C 0.99499 0.32516 0.76009 0.0
C864 C 0.02669 0.34948 0.7853 0.0
C865 C 0.9832 0.35715 0.77881 0.0
C866 C 0.08364 0.24199 0.76664 0.0
N867 N 0.06152 0.23643 0.75395 0.0
C868 C 0.08133 0.21875 0.77798 0.0
C869 C 0.05623 0.18963 0.7762 0.0
C870 C 0.03384 0.1841 0.76316 0.0
C871 C 0.03689 0.20791 0.75208 0.0
C872 C 0.07514 0.21428 0.69939 0.0
C873 C 0.0405 0.24342 0.70385 0.0
C874 C 0.07824 0.23136 0.71481 0.0
N875 N 0.06088 0.2455 0.71693 0.0
C876 C 0.03677 0.22653 0.68825 0.0
C877 C 0.05422 0.21185 0.68605 0.0
C878 C 0.05517 0.31775 0.72387 0.0
C879 C 0.13588 0.38283 0.77463 0.0
C880 C 0.08379 0.37564 0.75655 0.0
C881 C 0.11064 0.404 0.75656 0.0
C882 C 0.1368 0.40758 0.76572 0.0
N883 N 0.08288 0.35148 0.7655 0.0
C884 C 0.10864 0.3548 0.77431 0.0
Co885 Co 0.94167 0.53422 0.64764 0.0
Co886 Co 0.95683 0.57775 0.60924 0.0
O887 O 0.95047 0.54094 0.62169 0.0
C888 C 0.99346 0.52105 0.6421 0.0
O889 O 0.01011 0.54811 0.63474 0.0
C890 C 0.92588 0.52516 0.58395 0.0
O891 O 0.90864 0.50725 0.5973 0.0
O892 O 0.91482 0.57078 0.61856 0.0
O893 O 0.91685 0.55582 0.64712 0.0
H894 H 0.95653 0.67651 0.60397 0.0
H895 H 0.92811 0.48098 0.62508 0.0
O896 O 0.96618 0.51253 0.64847 0.0
H897 H 0.82746 0.45752 0.65372 0.0
H898 H 0.91586 0.47375 0.70606 0.0
H899 H 0.94081 0.57187 0.67804 0.0
H900 H 0.87501 0.50557 0.65991 0.0
H901 H 0.92584 0.48236 0.67302 0.0
O902 O 0.93986 0.55382 0.58609 0.0
H903 H 0.94985 0.6306 0.61967 0.0
H904 H 0.9768 0.60302 0.57152 0.0
H905 H 0.93072 0.56415 0.7111 0.0
H906 H 0.88129 0.43238 0.61879 0.0
H907 H 0.91813 0.51479 0.72531 0.0
H908 H 0.83043 0.42044 0.63307 0.0
O909 O 0.97988 0.57301 0.6526 0.0
H910 H 0.03545 0.54948 0.58524 0.0
H911 H 0.01977 0.63263 0.60736 0.0
H912 H 0.07237 0.64327 0.59787 0.0
H913 H 0.08049 0.60158 0.58655 0.0
H914 H 0.98349 0.53971 0.59525 0.0
H915 H 0.98353 0.64852 0.55526 0.0
H916 H 0.97346 0.68573 0.57151 0.0
O917 O 0.97613 0.60269 0.63123 0.0
C918 C 0.906 0.56678 0.6354 0.0
C919 C 0.96091 0.66043 0.59672 0.0
C920 C 0.976 0.64469 0.56938 0.0
N921 N 0.96258 0.6139 0.59651 0.0
C922 C 0.95712 0.63434 0.60554 0.0
C923 C 0.97192 0.61883 0.57864 0.0
C924 C 0.97039 0.66558 0.57851 0.0
C925 C 0.90615 0.47588 0.63149 0.0
N926 N 0.90429 0.49628 0.64274 0.0
C927 C 0.87967 0.44835 0.62781 0.0
C928 C 0.85114 0.44169 0.6358 0.0
C929 C 0.84944 0.46251 0.64734 0.0
C930 C 0.87641 0.48982 0.65069 0.0
C931 C 0.92126 0.49534 0.70002 0.0
C932 C 0.93517 0.55027 0.68411 0.0
C933 C 0.927 0.50037 0.68133 0.0
N934 N 0.93365 0.52751 0.6736 0.0
C935 C 0.92956 0.54606 0.70284 0.0
C936 C 0.92253 0.51837 0.71081 0.0
C937 C 0.9881 0.59898 0.64564 0.0
C938 C 0.03217 0.56793 0.58993 0.0
C939 C 0.02298 0.61433 0.60241 0.0
C940 C 0.05289 0.62052 0.59706 0.0
C941 C 0.05743 0.59713 0.59072 0.0
N942 N 0.99816 0.5857 0.60136 0.0
C943 C 1.00261 0.56259 0.59543 0.0
Co944 Co 0.45291 0.36095 0.62499 0.0
Co945 Co 0.39566 0.34634 0.59389 0.0
O946 O 0.43871 0.3694 0.60219 0.0
C947 C 0.47298 0.42585 0.62736 0.0
O948 O 0.4448 0.41915 0.62246 0.0
C949 C 0.43932 0.36465 0.56124 0.0
O950 O 0.46023 0.36194 0.5707 0.0
O951 O 0.39575 0.30644 0.59725 0.0
O952 O 0.42518 0.31668 0.62211 0.0
H953 H 0.28425 0.2625 0.59716 0.0
H954 H 0.50149 0.40145 0.59828 0.0
O955 O 0.48044 0.40518 0.6287 0.0
H956 H 0.5184 0.31403 0.60644 0.0
H957 H 0.53299 0.37614 0.67169 0.0
H958 H 0.42172 0.31906 0.65626 0.0
H959 H 0.47626 0.31668 0.62334 0.0
H960 H 0.51467 0.38599 0.64272 0.0
O961 O 0.41133 0.35303 0.5675 0.0
H962 H 0.3383 0.29215 0.60756 0.0
H963 H 0.36127 0.35197 0.56217 0.0
H964 H 0.43907 0.30829 0.68528 0.0
H965 H 0.54433 0.40005 0.58137 0.0
H966 H 0.49508 0.33694 0.69316 0.0
H967 H 0.55289 0.356 0.58531 0.0
O968 O 0.4189 0.36282 0.63864 0.0
H969 H 0.43864 0.45674 0.5776 0.0
H970 H 0.34917 0.36545 0.60411 0.0
H971 H 0.34702 0.41285 0.60208 0.0
H972 H 0.39187 0.45892 0.58859 0.0
H973 H 0.44018 0.40925 0.58033 0.0
H974 H 0.30756 0.32282 0.55119 0.0
H975 H 0.26855 0.27775 0.56876 0.0
O976 O 0.37904 0.34146 0.61939 0.0
C977 C 0.40526 0.29792 0.61121 0.0
C978 C 0.30106 0.28202 0.58934 0.0
C979 C 0.31415 0.31583 0.56353 0.0
N980 N 0.35314 0.32356 0.58538 0.0
C981 C 0.33174 0.29888 0.59515 0.0
C982 C 0.34465 0.33213 0.56975 0.0
C983 C 0.29227 0.29058 0.57341 0.0
C984 C 0.50526 0.38235 0.60023 0.0
N985 N 0.48622 0.35905 0.6117 0.0
C986 C 0.52947 0.38162 0.59054 0.0
C987 C 0.53422 0.35687 0.59273 0.0
C988 C 0.51483 0.33328 0.60455 0.0
C989 C 0.49083 0.33478 0.61398 0.0
C990 C 0.50853 0.36347 0.6684 0.0
C991 C 0.44616 0.3315 0.65953 0.0
C992 C 0.49802 0.36899 0.65203 0.0
N993 N 0.46719 0.35295 0.64774 0.0
C994 C 0.45583 0.32536 0.67601 0.0
C995 C 0.48725 0.34147 0.68044 0.0
C996 C 0.3901 0.3514 0.63503 0.0
C997 C 0.41878 0.43673 0.5833 0.0
C998 C 0.36882 0.38532 0.59822 0.0
C999 C 0.36744 0.41214 0.5971 0.0
C1000 C 0.39259 0.43797 0.58953 0.0
N1001 N 0.39441 0.38409 0.59187 0.0
C1002 C 0.41933 0.40952 0.58467 0.0
Co1003 Co 0.65595 0.09355 0.63491 0.0
Co1004 Co 0.64038 0.02234 0.6217 0.0
O1005 O 0.66464 0.0597 0.63494 0.0
C1006 C 0.72632 0.11977 0.63423 0.0
O1007 O 0.72354 0.09728 0.62427 0.0
C1008 C 0.63712 0.9988 0.65896 0.0
O1009 O 0.62972 0.01886 0.66488 0.0
O1010 O 0.60093 0.01726 0.63251 0.0
O1011 O 0.60997 0.06504 0.63452 0.0
H1012 H 0.55214 0.95077 0.58276 0.0
H1013 H 0.69448 0.08643 0.66366 0.0
O1014 O 0.70265 0.12356 0.63667 0.0
H1015 H 0.60872 0.09038 0.69652 0.0
H1016 H 0.67411 0.19599 0.65436 0.0
H1017 H 0.6099 0.10683 0.61731 0.0
H1018 H 0.61231 0.09408 0.66309 0.0
H1019 H 0.68378 0.15276 0.65404 0.0
O1020 O 0.6435 0.99818 0.64221 0.0
H1021 H 0.58334 0.99782 0.59955 0.0
H1022 H 0.64531 0.96665 0.6159 0.0
H1023 H 0.59925 0.14947 0.61726 0.0
H1024 H 0.69202 0.08316 0.69703 0.0
H1025 H 0.63155 0.19456 0.63589 0.0
H1026 H 0.64886 0.08504 0.71375 0.0
O1027 O 0.65515 0.09456 0.60716 0.0
H1028 H 0.75001 0.03982 0.62362 0.0
H1029 H 0.66249 0.02081 0.58398 0.0
H1030 H 0.71148 0.02737 0.57033 0.0
H1031 H 0.75566 0.03684 0.59022 0.0
H1032 H 0.70077 0.03372 0.63663 0.0
H1033 H 0.61455 0.9191 0.59945 0.0
H1034 H 0.56768 0.91098 0.58265 0.0
O1035 O 0.63574 0.04514 0.60109 0.0
C1036 C 0.59172 0.03648 0.63499 0.0
C1037 C 0.57256 0.95406 0.58999 0.0
C1038 C 0.60757 0.93628 0.59938 0.0
N1039 N 0.61624 0.98507 0.60861 0.0
C1040 C 0.59038 0.9807 0.59949 0.0
C1041 C 0.62484 0.96321 0.60871 0.0
C1042 C 0.58127 0.93174 0.58995 0.0
C1043 C 0.67599 0.08795 0.67074 0.0
N1044 N 0.65403 0.09124 0.66134 0.0
C1045 C 0.67456 0.08578 0.68969 0.0
C1046 C 0.6503 0.08676 0.69906 0.0
C1047 C 0.62777 0.08976 0.68941 0.0
C1048 C 0.62996 0.09186 0.67046 0.0
C1049 C 0.66007 0.17661 0.64605 0.0
C1050 C 0.62429 0.12645 0.62523 0.0
C1051 C 0.66562 0.15212 0.64568 0.0
N1052 N 0.64792 0.12748 0.63526 0.0
C1053 C 0.61805 0.1505 0.62525 0.0
C1054 C 0.63615 0.17577 0.63571 0.0
C1055 C 0.64201 0.07179 0.59642 0.0
C1056 C 0.73093 0.0357 0.61481 0.0
C1057 C 0.68175 0.02541 0.59267 0.0
C1058 C 0.70937 0.02886 0.58489 0.0
C1059 C 0.73411 0.0341 0.59606 0.0
N1060 N 0.67886 0.02718 0.61105 0.0
C1061 C 0.70294 0.03209 0.6221 0.0
C1062 C 0.44282 0.0046 0.06706 0.0
C1063 C 0.4452 0.03177 0.06037 0.0
C1064 C 0.45586 0.98957 0.05717 0.0
C1065 C 0.48025 0.98375 1.0097 0.0
H1066 H 0.5214 0.9438 0.03202 0.0
C1067 C 0.54625 0.93451 0.96701 0.0
C1068 C 0.54838 0.9099 0.97436 0.0
C1069 C 0.53205 0.94828 0.97706 0.0
C1070 C 0.50951 0.95434 0.02546 0.0
H1071 H 0.46559 0.06532 0.03853 0.0
H1072 H 0.48815 0.03963 0.02179 0.0
H1073 H 0.50104 0.96956 0.05101 0.0
H1074 H 0.53459 0.87913 0.99761 0.0
H1075 H 0.50892 0.90175 1.01439 0.0
H1076 H 0.48834 0.96834 0.98418 0.0
C1077 C 0.4755 0.02933 0.03434 0.0
C1078 C 0.49788 0.96928 0.03646 0.0
C1079 C 0.4627 0.04429 0.04416 0.0
C1080 C 0.53384 0.89818 0.99142 0.0
C1081 C 0.51941 0.91158 1.00129 0.0
C1082 C 0.49165 0.9686 0.9987 0.0
C1083 C 0.47158 1.00131 0.04035 0.0
C1084 C 0.48324 0.98442 0.02876 0.0
C1085 C 0.5192 0.93755 0.99465 0.0
C1086 C 0.50657 0.95364 1.00636 0.0
H1087 H 0.4297 0.9942 0.07946 0.0
H1088 H 0.45246 0.96809 0.06234 0.0
H1089 H 0.46868 0.99468 1.00321 0.0
H1090 H 0.55695 0.94419 0.95394 0.0
H1091 H 0.53244 0.96817 0.97132 0.0
C1092 C 0.91656 0.38648 0.02655 0.0
C1093 C 0.93119 0.38153 0.04153 0.0
C1094 C 0.93037 0.41408 0.01692 0.0
C1095 C 0.99586 0.4948 0.01712 0.0
H1096 H 0.98386 0.48859 0.96499 0.0
C1097 C 0.07114 0.59617 0.96904 0.0
C1098 C 0.05658 0.60341 0.95495 0.0
C1099 C 0.0555 0.56882 0.97884 0.0
C1100 C 0.98726 0.49089 0.97952 0.0
H1101 H 0.9714 0.40353 0.05873 0.0
H1102 H 0.99602 0.45157 0.04173 0.0
H1103 H 0.9577 0.44336 0.98425 0.0
H1104 H 0.01417 0.58561 0.93951 0.0
H1105 H 0.98677 0.53743 0.95657 0.0
H1106 H 0.02595 0.54232 1.01225 0.0
C1107 C 0.9735 0.4339 0.03744 0.0
C1108 C 0.97209 0.46481 0.9907 0.0
C1109 C 0.95932 0.40615 0.0473 0.0
C1110 C 0.0263 0.58112 0.9502 0.0
C1111 C 0.01052 0.55344 0.96009 0.0
C1112 C 0.0112 0.52083 1.00591 0.0
C1113 C 0.95973 0.43798 0.02166 0.0
C1114 C 0.97603 0.46622 1.00975 0.0
C1115 C 0.02458 0.54733 0.97499 0.0
C1116 C 0.00729 0.51935 0.9869 0.0
H1117 H 0.89483 0.36843 0.02164 0.0
H1118 H 0.91817 0.4163 1.00539 0.0
H1119 H 0.99931 0.49728 0.03163 0.0
H1120 H 0.09447 0.61233 0.97316 0.0
H1121 H 0.06762 0.56481 0.98977 0.0
C1122 C 0.42098 0.49317 0.99271 0.0
C1123 C 0.41931 0.47217 0.97968 0.0
C1124 C 0.44565 0.50595 1.00511 0.0
C1125 C 0.50616 0.4915 0.02621 0.0
H1126 H 0.5436 0.57487 0.0415 0.0
C1127 C 0.62303 0.54874 0.06421 0.0
C1128 C 0.62995 0.57204 0.07674 0.0
C1129 C 0.5954 0.53579 0.05436 0.0
C1130 C 0.53315 0.55137 0.03766 0.0
H1131 H 0.44337 0.44899 0.96949 0.0
H1132 H 0.48616 0.47133 0.99074 0.0
H1133 H 0.50086 0.55532 0.01993 0.0
H1134 H 0.61134 0.59856 0.08919 0.0
H1135 H 0.5627 0.5757 0.07204 0.0
H1136 H 0.53815 0.48734 0.04386 0.0
C1137 C 0.46816 0.4777 0.99162 0.0
C1138 C 0.50856 0.54012 0.02516 0.0
C1139 C 0.44364 0.46506 0.9792 0.0
C1140 C 0.60712 0.58076 0.07975 0.0
C1141 C 0.57927 0.56782 0.06969 0.0
C1142 C 0.53054 0.50266 0.03872 0.0
C1143 C 0.46942 0.49801 1.00502 0.0
C1144 C 0.49494 0.51008 0.01897 0.0
C1145 C 0.57322 0.54548 0.05652 0.0
C1146 C 0.54494 0.53295 0.04448 0.0
H1147 H 0.4027 0.49914 0.99372 0.0
H1148 H 0.44547 0.5213 0.0152 0.0
H1149 H 0.49594 0.46806 0.02228 0.0
H1150 H 0.63978 0.5413 0.06128 0.0
H1151 H 0.59224 0.51905 0.04433 0.0
C1152 C 0.10609 0.33378 0.40065 0.0
C1153 C 0.11045 0.36196 0.39443 0.0
C1154 C 0.11834 0.31813 0.39067 0.0
C1155 C 0.14425 0.31362 0.3433 0.0
H1156 H 0.1803 0.26863 0.36529 0.0
C1157 C 0.20882 0.26305 0.3005 0.0
C1158 C 0.20955 0.23748 0.30745 0.0
C1159 C 0.19464 0.27683 0.31056 0.0
C1160 C 0.16981 0.28059 0.3588 0.0
H1161 H 0.13341 0.39645 0.37332 0.0
H1162 H 0.15466 0.36975 0.35643 0.0
H1163 H 0.161 0.29499 0.38455 0.0
H1164 H 0.19304 0.20495 0.32984 0.0
H1165 H 0.16733 0.2276 0.3466 0.0
H1166 H 0.15271 0.2991 0.31758 0.0
C1167 C 0.14109 0.35918 0.36869 0.0
C1168 C 0.1588 0.29588 0.36997 0.0
C1169 C 0.12906 0.37472 0.3786 0.0
C1170 C 0.19338 0.22474 0.32399 0.0
C1171 C 0.17896 0.23815 0.33386 0.0
C1172 C 0.15503 0.29815 0.33214 0.0
C1173 C 0.13521 0.33024 0.3742 0.0
C1174 C 0.14606 0.31287 0.36241 0.0
C1175 C 0.18037 0.26516 0.32775 0.0
C1176 C 0.16814 0.28139 0.33965 0.0
H1177 H 0.09198 0.32311 0.41272 0.0
H1178 H 0.11341 0.29595 0.39544 0.0
H1179 H 0.13412 0.32599 0.3369 0.0
H1180 H 0.22078 0.27356 0.28785 0.0
H1181 H 0.19628 0.2975 0.30521 0.0
C1182 C 0.63592 0.7441 0.38225 0.0
C1183 C 0.60716 0.72006 0.37671 0.0
C1184 C 0.65079 0.77171 0.37224 0.0
C1185 C 0.64993 0.80221 0.32539 0.0
H1186 H 0.70383 0.88024 0.34635 0.0
C1187 C 0.70208 0.91659 0.28355 0.0
C1188 C 0.73184 0.93995 0.28825 0.0
C1189 C 0.68716 0.88927 0.2938 0.0
C1190 C 0.68913 0.8586 0.34016 0.0
H1191 H 0.5706 0.70799 0.35705 0.0
H1192 H 0.59521 0.75555 0.34055 0.0
H1193 H 0.67742 0.83554 0.36608 0.0
H1194 H 0.77 0.95115 0.30669 0.0
H1195 H 0.74463 0.90408 0.32393 0.0
H1196 H 0.66152 0.82531 0.2995 0.0
C1197 C 0.60728 0.75295 0.35202 0.0
C1198 C 0.6739 0.8328 0.35157 0.0
C1199 C 0.59276 0.72553 0.36181 0.0
C1200 C 0.74695 0.93413 0.30265 0.0
C1201 C 0.73216 0.90705 0.3128 0.0
C1202 C 0.66505 0.82801 0.314 0.0
C1203 C 0.63713 0.77617 0.35653 0.0
C1204 C 0.6539 0.80408 0.34443 0.0
C1205 C 0.70161 0.88447 0.30899 0.0
C1206 C 0.68501 0.85669 0.32115 0.0
H1207 H 0.64785 0.74107 0.39362 0.0
H1208 H 0.67367 0.78896 0.37635 0.0
H1209 H 0.63542 0.78061 0.31913 0.0
H1210 H 0.68963 0.9199 0.27255 0.0
H1211 H 0.6637 0.87247 0.29028 0.0
C1212 C 0.08535 0.8257 0.3273 0.0
C1213 C 0.08389 0.80547 0.31378 0.0
C1214 C 0.11026 0.83836 0.33956 0.0
C1215 C 0.17203 0.82436 0.35915 0.0
H1216 H 0.20889 0.90703 0.3757 0.0
C1217 C 0.29045 0.88166 0.39515 0.0
C1218 C 0.29761 0.90408 0.40835 0.0
C1219 C 0.26235 0.86886 0.38578 0.0
C1220 C 0.1986 0.88372 0.3715 0.0
H1221 H 0.10857 0.78357 0.30255 0.0
H1222 H 0.15173 0.80569 0.32355 0.0
H1223 H 0.16545 0.88776 0.35456 0.0
H1224 H 0.27895 0.92926 0.42243 0.0
H1225 H 0.22947 0.90674 0.40602 0.0
H1226 H 0.20488 0.82011 0.37597 0.0
C1227 C 0.1334 0.81154 0.32493 0.0
C1228 C 0.17362 0.87264 0.35925 0.0
C1229 C 0.10865 0.79903 0.31266 0.0
C1230 C 0.27457 0.91214 0.41245 0.0
C1231 C 0.24623 0.89939 0.40284 0.0
C1232 C 0.19678 0.83534 0.3714 0.0
C1233 C 0.13446 0.83105 0.33881 0.0
C1234 C 0.16025 0.84289 0.35259 0.0
C1235 C 0.23989 0.87785 0.38909 0.0
C1236 C 0.211 0.86541 0.37756 0.0
H1237 H 0.06674 0.83113 0.3288 0.0
H1238 H 0.10993 0.85309 0.35003 0.0
H1239 H 0.16201 0.80111 0.35486 0.0
H1240 H 0.30729 0.87479 0.39131 0.0
H1241 H 0.259 0.85282 0.37524 0.0
C1242 C 0.88328 0.60254 0.63501 0.0
C1243 C 0.88542 0.57835 0.64305 0.0
C1244 C 0.86971 0.61731 0.64468 0.0
C1245 C 0.85021 0.62793 0.69281 0.0
H1246 H 0.80588 0.66425 0.66997 0.0
C1247 C 0.78473 0.6796 0.73406 0.0
C1248 C 0.78458 0.70507 0.72642 0.0
C1249 C 0.79787 0.66446 0.72439 0.0
C1250 C 0.8185 0.65454 0.67661 0.0
H1251 H 0.87236 0.5495 0.66718 0.0
H1252 H 0.84798 0.57391 0.68332 0.0
H1253 H 0.82524 0.63701 0.65151 0.0
H1254 H 0.80067 0.73568 0.703 0.0
H1255 H 0.82373 0.71007 0.68669 0.0
H1256 H 0.8433 0.64535 0.71793 0.0
C1257 C 0.85788 0.58256 0.66993 0.0
C1258 C 0.82968 0.63884 0.66594 0.0
C1259 C 0.87158 0.56813 0.66043 0.0
C1260 C 0.7998 0.71598 0.7094 0.0
C1261 C 0.81283 0.701 0.69983 0.0
C1262 C 0.83893 0.64352 0.70349 0.0
C1263 C 0.85763 0.60808 0.66256 0.0
C1264 C 0.84571 0.62519 0.67384 0.0
C1265 C 0.8113 0.67446 0.70685 0.0
C1266 C 0.82297 0.6572 0.69557 0.0
H1267 H 0.89348 0.61111 0.62168 0.0
H1268 H 0.86996 0.63679 0.6384 0.0
H1269 H 0.86299 0.61842 0.69949 0.0
H1270 H 0.77342 0.67047 0.74709 0.0
H1271 H 0.79631 0.64417 0.73035 0.0
C1272 C 0.35917 0.24404 0.6139 0.0
C1273 C 0.39044 0.26532 0.6174 0.0
C1274 C 0.3436 0.2165 0.62395 0.0
C1275 C 0.35782 0.16703 0.65724 0.0
H1276 H 0.27149 0.13758 0.67134 0.0
C1277 C 0.29602 0.07228 0.71276 0.0
C1278 C 0.26674 0.04824 0.70797 0.0
C1279 C 0.31025 0.09958 0.7025 0.0
C1280 C 0.2956 0.1454 0.66752 0.0
H1281 H 0.43008 0.27262 0.63356 0.0
H1282 H 0.40361 0.22591 0.65067 0.0
H1283 H 0.29758 0.18076 0.65038 0.0
H1284 H 0.2286 0.03579 0.68943 0.0
H1285 H 0.25255 0.08301 0.67223 0.0
H1286 H 0.35591 0.13195 0.67462 0.0
C1287 C 0.3907 0.2299 0.64024 0.0
C1288 C 0.3106 0.17017 0.6553 0.0
C1289 C 0.40608 0.25711 0.63029 0.0
C1290 C 0.2511 0.05351 0.69365 0.0
C1291 C 0.26497 0.0808 0.68366 0.0
C1292 C 0.34294 0.14254 0.66959 0.0
C1293 C 0.35892 0.20933 0.63769 0.0
C1294 C 0.34207 0.18156 0.64994 0.0
C1295 C 0.29527 0.1039 0.68743 0.0
C1296 C 0.31158 0.13128 0.67498 0.0
H1297 H 0.34619 0.24924 0.60412 0.0
H1298 H 0.31933 0.20113 0.62118 0.0
H1299 H 0.38176 0.17435 0.6533 0.0
H1300 H 0.30887 0.06944 0.72368 0.0
H1301 H 0.33339 0.11703 0.70609 0.0
C1302 C 0.77897 0.12934 0.64518 0.0
C1303 C 0.75475 0.13659 0.64576 0.0
C1304 C 0.80358 0.14185 0.65755 0.0
C1305 C 0.84421 0.20403 0.69127 0.0
H1306 H 0.87397 0.15111 0.7095 0.0
C1307 C 0.94254 0.24393 0.74594 0.0
C1308 C 0.96552 0.23546 0.7428 0.0
C1309 C 0.91476 0.23111 0.73582 0.0
C1310 C 0.86631 0.16646 0.70449 0.0
H1311 H 0.73841 0.16365 0.65994 0.0
H1312 H 0.78127 0.18555 0.68135 0.0
H1313 H 0.83171 0.13205 0.68796 0.0
H1314 H 0.97555 0.20498 0.72717 0.0
H1315 H 0.92809 0.18292 0.7101 0.0
H1316 H 0.87923 0.23857 0.70773 0.0
C1317 C 0.78133 0.17021 0.67121 0.0
C1318 C 0.8419 0.15544 0.692 0.0
C1319 C 0.7566 0.15759 0.65885 0.0
C1320 C 0.95873 0.21234 0.73014 0.0
C1321 C 0.93114 0.19948 0.72023 0.0
C1322 C 0.86881 0.21514 0.70376 0.0
C1323 C 0.80501 0.16215 0.67102 0.0
C1324 C 0.83061 0.17408 0.68493 0.0
C1325 C 0.90889 0.20905 0.7225 0.0
C1326 C 0.88064 0.19666 0.71042 0.0
H1327 H 0.77857 0.11328 0.63542 0.0
H1328 H 0.8215 0.13539 0.65659 0.0
H1329 H 0.83648 0.21928 0.68617 0.0
H1330 H 0.94654 0.26142 0.75557 0.0
H1331 H 0.89809 0.23882 0.73828 0.0
C1332 C 0.35717 0.06159 0.14693 0.0
C1333 C 0.3831 0.08202 0.13622 0.0
C1334 C 0.34292 0.07204 0.15948 0.0
C1335 C 0.33255 0.13857 0.16853 0.0
H1336 H 0.30306 0.1016 0.21614 0.0
C1337 C 0.28575 0.19091 0.22229 0.0
C1338 C 0.26338 0.17207 0.23541 0.0
C1339 C 0.299 0.17927 0.2099 0.0
C1340 C 0.31058 0.11197 0.20279 0.0
H1341 H 0.41459 0.12975 0.13087 0.0
H1342 H 0.38991 0.14781 0.15268 0.0
H1343 H 0.32934 0.08285 0.19601 0.0
H1344 H 0.23655 0.12558 0.24501 0.0
H1345 H 0.2585 0.10511 0.223 0.0
H1346 H 0.31338 0.16728 0.17501 0.0
C1347 C 0.38043 0.12364 0.15129 0.0
C1348 C 0.32589 0.10122 0.19124 0.0
C1349 C 0.39487 0.11322 0.1389 0.0
C1350 C 0.25364 0.14091 0.23515 0.0
C1351 C 0.26667 0.12919 0.22261 0.0
C1352 C 0.31696 0.14911 0.17999 0.0
C1353 C 0.35391 0.10324 0.16158 0.0
C1354 C 0.33733 0.11449 0.17397 0.0
C1355 C 0.29011 0.14825 0.20999 0.0
C1356 C 0.30583 0.13616 0.1974 0.0
H1357 H 0.34718 0.03743 0.14519 0.0
H1358 H 0.32248 0.0556 0.16704 0.0
H1359 H 0.34045 0.14905 0.15522 0.0
H1360 H 0.29421 0.21503 0.22207 0.0
H1361 H 0.31717 0.195 0.20069 0.0
C1362 C 0.83234 0.23802 0.11536 0.0
C1363 C 0.86448 0.25853 0.11305 0.0
C1364 C 0.82143 0.21383 0.12802 0.0
C1365 C 0.84732 0.16571 0.15256 0.0
H1366 H 0.77244 0.14002 0.18197 0.0
C1367 C 0.81058 0.0728 0.2092 0.0
C1368 C 0.7788 0.05438 0.2139 0.0
C1369 C 0.82036 0.09684 0.19657 0.0
C1370 C 0.79313 0.14639 0.17368 0.0
H1371 H 0.91008 0.26951 0.12297 0.0
H1372 H 0.89122 0.22766 0.14484 0.0
H1373 H 0.79039 0.18363 0.16147 0.0
H1374 H 0.73241 0.04676 0.20829 0.0
H1375 H 0.74919 0.0877 0.18585 0.0
H1376 H 0.8499 0.1283 0.16437 0.0
C1377 C 0.87436 0.23014 0.13675 0.0
C1378 C 0.80355 0.17169 0.16192 0.0
C1379 C 0.88521 0.25451 0.12428 0.0
C1380 C 0.75706 0.06024 0.20504 0.0
C1381 C 0.76683 0.08417 0.19228 0.0
C1382 C 0.83676 0.14025 0.16417 0.0
C1383 C 0.84232 0.20908 0.13865 0.0
C1384 C 0.83095 0.18192 0.15124 0.0
C1385 C 0.79875 0.1033 0.188 0.0
C1386 C 0.80954 0.13014 0.17506 0.0
H1387 H 0.81553 0.24005 0.10696 0.0
H1388 H 0.79663 0.19813 0.12895 0.0
H1389 H 0.86817 0.17239 0.14435 0.0
H1390 H 0.8282 0.06946 0.21584 0.0
H1391 H 0.84515 0.11101 0.19404 0.0
C1392 C 0.95335 0.72029 0.23345 0.0
C1393 C 0.95735 0.74139 0.24699 0.0
C1394 C 0.9304 0.71195 0.22026 0.0
C1395 C 0.85413 0.70955 0.21269 0.0
H1396 H 0.86026 0.67668 0.1664 0.0
C1397 C 0.754 0.66129 0.15888 0.0
C1398 C 0.74882 0.63497 0.14966 0.0
C1399 C 0.77932 0.67616 0.17067 0.0
C1400 C 0.85795 0.6855 0.17934 0.0
H1401 H 0.94208 0.77286 0.25547 0.0
H1402 H 0.9023 0.75881 0.23226 0.0
H1403 H 0.90607 0.70209 0.1852 0.0
H1404 H 0.7664 0.60354 0.14624 0.0
H1405 H 0.81008 0.62921 0.16664 0.0
H1406 H 0.80586 0.69307 0.20653 0.0
C1407 C 0.91637 0.74779 0.23233 0.0
C1408 C 0.8844 0.70018 0.19023 0.0
C1409 C 0.93962 0.75623 0.24561 0.0
C1410 C 0.76927 0.62356 0.15308 0.0
C1411 C 0.7947 0.63857 0.16468 0.0
C1412 C 0.82767 0.69509 0.20166 0.0
C1413 C 0.91053 0.72458 0.21986 0.0
C1414 C 0.88294 0.71199 0.2073 0.0
C1415 C 0.80052 0.66541 0.17344 0.0
C1416 C 0.829 0.68231 0.18495 0.0
H1417 H 0.96639 0.70825 0.2339 0.0
H1418 H 0.927 0.69398 0.21114 0.0
H1419 H 0.85162 0.71786 0.22575 0.0
H1420 H 0.73904 0.671 0.15657 0.0
H1421 H 0.78296 0.69677 0.17708 0.0
C1422 C 0.62557 0.86938 0.88661 0.0
C1423 C 0.6023 0.84973 0.89908 0.0
C1424 C 0.63989 0.85854 0.87441 0.0
C1425 C 0.63215 0.78824 0.85334 0.0
H1426 H 0.7217 0.83671 0.84641 0.0
C1427 C 0.70263 0.74221 0.81345 0.0
C1428 C 0.72723 0.76244 0.80188 0.0
C1429 C 0.68808 0.75268 0.82576 0.0
C1430 C 0.69665 0.82294 0.84795 0.0
H1431 H 0.57523 0.80275 0.90777 0.0
H1432 H 0.59978 0.78388 0.88641 0.0
H1433 H 0.6941 0.85501 0.86574 0.0
H1434 H 0.75614 0.80995 0.79477 0.0
H1435 H 0.73095 0.82809 0.81605 0.0
H1436 H 0.63461 0.75627 0.83545 0.0
C1437 C 0.60702 0.80777 0.88605 0.0
C1438 C 0.68072 0.83352 0.8591 0.0
C1439 C 0.59282 0.81865 0.89834 0.0
C1440 C 0.73757 0.79359 0.80353 0.0
C1441 C 0.72299 0.80406 0.81582 0.0
C1442 C 0.64806 0.77771 0.84212 0.0
C1443 C 0.63129 0.82763 0.87415 0.0
C1444 C 0.64819 0.81638 0.86198 0.0
C1445 C 0.69759 0.78376 0.82693 0.0
C1446 C 0.68062 0.79485 0.83922 0.0
H1447 H 0.63367 0.89345 0.88671 0.0
H1448 H 0.65803 0.87454 0.86529 0.0
H1449 H 0.6071 0.77448 0.85498 0.0
H1450 H 0.69385 0.71807 0.81261 0.0
H1451 H 0.66911 0.73626 0.83426 0.0
C1452 C 0.0927 0.72672 0.87131 0.0
C1453 C 0.11451 0.72195 0.88097 0.0
C1454 C 0.1025 0.75069 0.85856 0.0
C1455 C 0.17078 0.82609 0.84664 0.0
H1456 H 0.12788 0.81774 0.8015 0.0
C1457 C 0.21994 0.92178 0.79107 0.0
C1458 C 0.19931 0.92516 0.77942 0.0
C1459 C 0.2091 0.89766 0.80374 0.0
C1460 C 0.13996 0.82083 0.81416 0.0
H1461 H 0.16406 0.73883 0.88419 0.0
H1462 H 0.18097 0.78014 0.86205 0.0
H1463 H 0.11015 0.77434 0.82214 0.0
H1464 H 0.15051 0.90576 0.77274 0.0
H1465 H 0.13154 0.86462 0.79515 0.0
H1466 H 0.20029 0.87257 0.83893 0.0
C1467 C 0.15619 0.76552 0.86443 0.0
C1468 C 0.12976 0.79569 0.82603 0.0
C1469 C 0.14642 0.74145 0.87704 0.0
C1470 C 0.16726 0.90416 0.78141 0.0
C1471 C 0.15637 0.88014 0.79419 0.0
C1472 C 0.18082 0.85127 0.83486 0.0
C1473 C 0.13445 0.77089 0.85517 0.0
C1474 C 0.14511 0.79781 0.84244 0.0
C1475 C 0.17713 0.87605 0.80538 0.0
C1476 C 0.16573 0.84916 0.81832 0.0
H1477 H 0.06797 0.71248 0.87397 0.0
H1478 H 0.08495 0.75403 0.85185 0.0
H1479 H 0.18294 0.82897 0.85926 0.0
H1480 H 0.24476 0.93707 0.78996 0.0
H1481 H 0.22614 0.89544 0.81178 0.0
C1482 C 0.27553 0.42319 0.91089 0.0
C1483 C 0.29171 0.4069 0.91292 0.0
C1484 C 0.25249 0.4152 0.89751 0.0
C1485 C 0.21863 0.36566 0.85622 0.0
H1486 H 0.14247 0.36525 0.87078 0.0
C1487 C 0.10234 0.29168 0.81946 0.0
C1488 C 0.08393 0.30488 0.81478 0.0
C1489 C 0.12777 0.30632 0.8311 0.0
C1490 C 0.16363 0.36538 0.86641 0.0
H1491 H 0.29808 0.37137 0.90089 0.0
H1492 H 0.25903 0.35781 0.87805 0.0
H1493 H 0.18807 0.38882 0.89023 0.0
H1494 H 0.07784 0.34385 0.81941 0.0
H1495 H 0.1217 0.36895 0.84009 0.0
H1496 H 0.1939 0.3414 0.83271 0.0
C1497 C 0.26354 0.37665 0.88668 0.0
C1498 C 0.19002 0.37914 0.87756 0.0
C1499 C 0.2863 0.38456 0.89995 0.0
C1500 C 0.09116 0.33274 0.82276 0.0
C1501 C 0.11644 0.34723 0.83463 0.0
C1502 C 0.19222 0.35164 0.84524 0.0
C1503 C 0.24527 0.39096 0.88558 0.0
C1504 C 0.21794 0.37915 0.87281 0.0
C1505 C 0.1356 0.33456 0.83867 0.0
C1506 C 0.16412 0.35086 0.85024 0.0
H1507 H 0.2791 0.44077 0.92031 0.0
H1508 H 0.2397 0.42748 0.8969 0.0
H1509 H 0.23964 0.36572 0.85163 0.0
H1510 H 0.09786 0.27043 0.81359 0.0
H1511 H 0.14157 0.29554 0.83405 0.0
C1512 C 0.06677 0.4515 0.47246 0.0
C1513 C 0.05476 0.42019 0.47013 0.0
C1514 C 0.05273 0.46244 0.4848 0.0
C1515 C 0.99785 0.44073 0.52478 0.0
H1516 H 0.98813 0.50855 0.50878 0.0
C1517 C 0.92515 0.48102 0.56765 0.0
C1518 C 0.93597 0.51234 0.5686 0.0
C1519 C 0.9384 0.46939 0.55522 0.0
C1520 C 0.9909 0.48984 0.51366 0.0
H1521 H 0.01884 0.37598 0.47966 0.0
H1522 H 0.9947 0.395 0.50124 0.0
H1523 H 0.01476 0.48969 0.48909 0.0
H1524 H 0.96894 0.55576 0.55652 0.0
H1525 H 0.99213 0.53577 0.53517 0.0
H1526 H 0.97438 0.44106 0.54944 0.0
C1527 C 0.01508 0.41118 0.49353 0.0
C1528 C 0.00628 0.47896 0.50229 0.0
C1529 C 0.02901 0.40021 0.48111 0.0
C1530 C 0.95967 0.53151 0.55619 0.0
C1531 C 0.97305 0.51993 0.54384 0.0
C1532 C 0.98264 0.45172 0.53621 0.0
C1533 C 0.0263 0.44248 0.49532 0.0
C1534 C 0.01006 0.45423 0.50764 0.0
C1535 C 0.96307 0.48869 0.54333 0.0
C1536 C 0.97886 0.47651 0.53088 0.0
H1537 H 0.08639 0.46771 0.46424 0.0
H1538 H 0.06246 0.48668 0.48595 0.0
H1539 H 1.00055 0.4219 0.52954 0.0
H1540 H 0.90703 0.46542 0.57695 0.0
H1541 H 0.92943 0.44518 0.55509 0.0
C1542 C 0.56058 0.59214 0.45964 0.0
C1543 C 0.53995 0.59755 0.44918 0.0
C1544 C 0.54945 0.56715 0.47168 0.0
C1545 C 0.4779 0.50852 0.49659 0.0
H1546 H 0.52308 0.46391 0.49793 0.0
C1547 C 0.42871 0.39416 0.53693 0.0
C1548 C 0.44991 0.38775 0.546 0.0
C1549 C 0.43922 0.41887 0.52468 0.0
C1550 C 0.51025 0.47618 0.498 0.0
H1551 H 0.49096 0.58078 0.44394 0.0
H1552 H 0.47165 0.53774 0.46504 0.0
H1553 H 0.54225 0.50904 0.47871 0.0
H1554 H 0.49914 0.40262 0.54875 0.0
H1555 H 0.51733 0.44539 0.52772 0.0
H1556 H 0.44608 0.47592 0.51603 0.0
C1557 C 0.49656 0.55286 0.46394 0.0
C1558 C 0.52135 0.50226 0.48688 0.0
C1559 C 0.50771 0.57772 0.45178 0.0
C1560 C 0.48192 0.40639 0.54196 0.0
C1561 C 0.49243 0.43113 0.52978 0.0
C1562 C 0.46688 0.48252 0.50781 0.0
C1563 C 0.51725 0.54676 0.47385 0.0
C1564 C 0.50541 0.51895 0.48597 0.0
C1565 C 0.47134 0.43818 0.52109 0.0
C1566 C 0.48284 0.4658 0.50875 0.0
H1567 H 0.58551 0.6066 0.45808 0.0
H1568 H 0.56622 0.5637 0.47922 0.0
H1569 H 0.46506 0.52079 0.49652 0.0
H1570 H 0.40391 0.38054 0.53963 0.0
H1571 H 0.42201 0.42288 0.51811 0.0
C1572 C 0.62386 0.05192 0.56532 0.0
C1573 C 0.62767 0.07311 0.57875 0.0
C1574 C 0.60098 0.04337 0.55205 0.0
C1575 C 0.52458 0.04058 0.54406 0.0
H1576 H 0.53134 0.00778 0.49789 0.0
C1577 C 0.42474 0.99195 0.49005 0.0
C1578 C 0.41991 0.96586 0.48068 0.0
C1579 C 0.44998 0.00687 0.50191 0.0
C1580 C 0.52883 0.01656 0.5108 0.0
H1581 H 0.61201 0.10439 0.58701 0.0
H1582 H 0.57243 0.09002 0.56366 0.0
H1583 H 0.5769 0.03321 0.51688 0.0
H1584 H 0.43801 0.93488 0.47709 0.0
H1585 H 0.48146 0.96057 0.49762 0.0
H1586 H 0.47637 0.024 0.53771 0.0
C1587 C 0.58661 0.07912 0.56386 0.0
C1588 C 0.55515 0.03126 0.5218 0.0
C1589 C 0.60977 0.08777 0.57721 0.0
C1590 C 0.44062 0.95473 0.48402 0.0
C1591 C 0.46594 0.96977 0.4957 0.0
C1592 C 0.49824 0.02607 0.53294 0.0
C1593 C 0.58097 0.05585 0.55148 0.0
C1594 C 0.55348 0.04309 0.53882 0.0
C1595 C 0.47142 0.99639 0.50462 0.0
C1596 C 0.49978 0.01331 0.51626 0.0
H1597 H 0.63699 0.03999 0.56591 0.0
H1598 H 0.59774 0.02537 0.543 0.0
H1599 H 0.52189 0.04889 0.55709 0.0
H1600 H 0.40958 1.00145 0.48783 0.0
H1601 H 0.45333 0.02729 0.50843 0.0
C1602 C 0.31635 0.01345 0.0225 0.0
C1603 C 0.33402 0.00633 0.03439 0.0
C1604 C 0.29697 0.99225 1.00988 0.0
C1605 C 0.28424 0.92486 0.98525 0.0
H1606 H 0.19569 0.89634 0.99122 0.0
C1607 C 0.19309 0.80365 0.96997 0.0
C1608 C 0.16341 0.79685 0.96398 0.0
C1609 C 0.21507 0.83321 0.97419 0.0
C1610 C 0.22034 0.90444 0.98897 0.0
H1611 H 0.34642 0.97222 0.04193 0.0
H1612 H 0.31323 0.93564 0.01968 0.0
H1613 H 0.23318 0.9423 1.0064 0.0
H1614 H 0.13395 0.81599 0.95694 0.0
H1615 H 0.17268 0.86796 0.96415 0.0
H1616 H 0.27166 0.88684 0.96817 0.0
C1617 C 0.31412 0.9574 0.0202 0.0
C1618 C 0.24176 0.93073 0.9977 0.0
C1619 C 0.33288 0.97821 0.03302 0.0
C1620 C 0.15655 0.82049 0.96169 0.0
C1621 C 0.17869 0.85023 0.96586 0.0
C1622 C 0.26291 0.89885 0.97633 0.0
C1623 C 0.2957 0.96404 1.00869 0.0
C1624 C 0.27378 0.94043 0.99647 0.0
C1625 C 0.20807 0.85684 0.97239 0.0
C1626 C 0.23065 0.88759 0.97872 0.0
H1627 H 0.31678 0.03496 0.02335 0.0
H1628 H 0.28284 0.99775 1.00115 0.0
H1629 H 0.3089 0.93217 0.98396 0.0
H1630 H 0.19919 0.786 0.97189 0.0
H1631 H 0.23718 0.83728 0.97953 0.0
C1632 C 0.98435 0.29854 1.00657 0.0
C1633 C 0.98532 0.30996 0.02408 0.0
C1634 C 0.01144 0.30123 0.99836 0.0
C1635 C 0.08672 0.30857 1.0098 0.0
H1636 H 0.1163 0.34675 0.96241 0.0
C1637 C 0.20333 0.3286 0.97805 0.0
C1638 C 0.22319 0.35892 0.97279 0.0
C1639 C 0.17182 0.31833 0.98201 0.0
C1640 C 0.10812 0.33578 0.97558 0.0
H1641 H 0.01589 0.3342 0.04631 0.0
H1642 H 0.06256 0.3382 0.03215 0.0
H1643 H 0.06521 0.33695 0.97403 0.0
H1644 H 0.2252 0.40189 0.96692 0.0
H1645 H 0.17039 0.38389 0.97371 0.0
H1646 H 0.12985 0.30816 1.01166 0.0
C1647 C 0.04085 0.32695 0.02489 0.0
C1648 C 0.07892 0.33005 0.98215 0.0
C1649 C 0.01404 0.32471 0.03295 0.0
C1650 C 0.21066 0.37845 0.97103 0.0
C1651 C 0.17917 0.36809 0.97475 0.0
C1652 C 0.11568 0.31393 1.00315 0.0
C1653 C 0.03975 0.31497 1.00764 0.0
C1654 C 0.06842 0.31719 0.99953 0.0
C1655 C 0.15953 0.33807 0.98049 0.0
C1656 C 0.127 0.32832 0.98619 0.0
H1657 H 0.96265 0.28719 0.99932 0.0
H1658 H 0.01015 0.29197 0.98498 0.0
H1659 H 0.07894 0.29839 0.02319 0.0
H1660 H 0.21225 0.31296 0.97949 0.0
H1661 H 0.15709 0.29503 0.98639 0.0
C1662 C 0.73348 0.67937 0.02855 0.0
C1663 C 0.7223 0.67975 0.04621 0.0
C1664 C 0.73562 0.70034 0.01532 0.0
C1665 C 0.74277 0.77513 1.01038 0.0
H1666 H 0.68908 0.74529 0.96872 0.0
C1667 C 0.70832 0.85208 0.97186 0.0
C1668 C 0.67573 0.83934 0.97244 0.0
C1669 C 0.72193 0.8339 0.97494 0.0
C1670 C 0.70471 0.75404 0.98007 0.0
H1671 H 0.70398 0.70212 0.06358 0.0
H1672 H 0.70856 0.73881 0.0408 0.0
H1673 H 0.6994 0.71051 0.98679 0.0
H1674 H 0.63181 0.79739 0.97513 0.0
H1675 H 0.65543 0.76588 0.9805 0.0
H1676 H 0.74632 0.81804 1.00462 0.0
C1677 C 0.71588 0.7225 0.03724 0.0
C1678 C 0.71072 0.73421 0.99031 0.0
C1679 C 0.71315 0.70133 0.05027 0.0
C1680 C 0.65702 0.80792 0.97485 0.0
C1681 C 0.67057 0.78977 0.97768 0.0
C1682 C 0.73701 0.79498 1.00009 0.0
C1683 C 0.72725 0.72232 0.01971 0.0
C1684 C 0.72842 0.74433 1.00609 0.0
C1685 C 0.70313 0.80267 0.97834 0.0
C1686 C 0.71654 0.78424 0.98543 0.0
H1687 H 0.74054 0.6629 0.02494 0.0
H1688 H 0.7441 0.69964 1.00177 0.0
H1689 H 0.75665 0.78339 0.02247 0.0
H1690 H 0.72327 0.87623 0.9699 0.0
H1691 H 0.74711 0.84438 0.97536 0.0
C1692 C 0.69382 0.95789 1.00031 0.0
C1693 C 0.67659 0.96045 0.98594 0.0
C1694 C 0.71948 0.98372 1.00711 0.0
C1695 C 0.77729 0.06027 0.99237 0.0
H1696 H 0.78731 0.0819 0.04325 0.0
C1697 C 0.84013 0.18192 1.01498 0.0
C1698 C 0.86131 0.19055 0.02926 0.0
C1699 C 0.82218 0.15162 1.01055 0.0
C1700 C 0.78518 0.07581 0.02905 0.0
H1701 H 0.67188 0.99238 0.96819 0.0
H1702 H 0.71628 0.03688 0.97997 0.0
H1703 H 0.74572 0.03183 0.03431 0.0
H1704 H 0.88032 0.17426 0.05017 0.0
H1705 H 0.84805 0.12058 0.04252 0.0
H1706 H 0.81567 0.10447 0.98695 0.0
C1707 C 0.71036 0.01496 0.98575 0.0
C1708 C 0.76142 0.04727 0.02395 0.0
C1709 C 0.68477 0.98939 0.97908 0.0
C1710 C 0.86426 0.16818 0.03903 0.0
C1711 C 0.84579 0.13758 0.03473 0.0
C1712 C 0.8009 0.08861 0.99744 0.0
C1713 C 0.72837 0.01236 0.99953 0.0
C1714 C 0.75655 0.03982 1.00549 0.0
C1715 C 0.82471 0.12914 0.02038 0.0
C1716 C 0.80428 0.09709 0.01573 0.0
H1717 H 0.68808 0.93593 1.00593 0.0
H1718 H 0.73295 0.98122 0.01784 0.0
H1719 H 0.77441 0.05479 0.97807 0.0
H1720 H 0.83738 0.19862 1.00717 0.0
H1721 H 0.80576 0.1457 0.9996 0.0
C1722 C 0.85181 0.69223 0.06455 0.0
C1723 C 0.82977 0.66154 0.06732 0.0
C1724 C 0.88211 0.70065 0.05861 0.0
C1725 C 0.92903 0.70441 0.03006 0.0
H1726 H 0.97656 0.6653 0.04414 0.0
C1727 C 1.00327 0.68094 0.98001 0.0
C1728 C 0.03439 0.69035 0.98441 0.0
C1729 C 0.98285 0.68202 0.99285 0.0
C1730 C 0.96379 0.67675 0.04027 0.0
H1731 H 0.82281 0.61583 0.06747 0.0
H1732 H 0.87556 0.63055 0.05707 0.0
H1733 H 0.93298 0.65957 0.06352 0.0
H1734 H 0.06806 0.70715 1.00608 0.0
H1735 H 0.03163 0.70812 0.0288 0.0
H1736 H 0.95866 0.7202 1.00636 0.0
C1737 C 0.86951 0.6481 0.05948 0.0
C1738 C 0.93884 0.67337 0.05126 0.0
C1739 C 0.83918 0.63965 0.06527 0.0
C1740 C 0.04431 0.69997 1.0022 0.0
C1741 C 0.02356 0.70052 0.0152 0.0
C1742 C 0.95365 0.70747 0.01901 0.0
C1743 C 0.89096 0.67857 0.05553 0.0
C1744 C 0.92071 0.6865 0.04598 0.0
C1745 C 0.99283 0.692 1.01048 0.0
C1746 C 0.97061 0.69295 0.02375 0.0
H1747 H 0.84532 0.70964 0.06617 0.0
H1748 H 0.8983 0.72433 0.05579 0.0
H1749 H 0.91531 0.71453 0.02554 0.0
H1750 H 0.99458 0.67296 0.96657 0.0
H1751 H 0.95905 0.67479 0.98901 0.0
C1752 C 0.30287 0.28492 0.99785 0.0
C1753 C 0.30375 0.31067 1.00543 0.0
C1754 C 0.30182 0.26214 1.00894 0.0
C1755 C 0.32602 0.24841 0.05216 0.0
H1756 H 0.27464 0.16477 0.03818 0.0
C1757 C 0.36521 0.16015 0.0582 0.0
C1758 C 0.34327 0.1295 0.06123 0.0
C1759 C 0.35567 0.18181 0.05693 0.0
C1760 C 0.28868 0.18785 0.04263 0.0
H1761 H 0.30426 0.33275 0.03064 0.0
H1762 H 0.30323 0.29276 0.05025 0.0
H1763 H 0.26489 0.20363 0.02534 0.0
H1764 H 0.29428 0.09776 0.06634 0.0
H1765 H 0.27754 0.13577 0.06399 0.0
H1766 H 0.35071 0.23276 0.06887 0.0
C1767 C 0.30298 0.29034 0.03563 0.0
C1768 C 0.28324 0.21013 0.03515 0.0
C1769 C 0.30359 0.31314 0.02445 0.0
C1770 C 0.3117 0.12116 0.06378 0.0
C1771 C 0.30212 0.1429 0.06246 0.0
C1772 C 0.33152 0.22608 0.05965 0.0
C1773 C 0.30189 0.26456 0.02792 0.0
C1774 C 0.30276 0.24075 0.0392 0.0
C1775 C 0.32396 0.17337 0.05866 0.0
C1776 C 0.31378 0.19576 0.05432 0.0
H1777 H 0.30281 0.28217 0.98327 0.0
H1778 H 0.30164 0.24284 1.00261 0.0
H1779 H 0.34139 0.27185 0.05552 0.0
H1780 H 0.38977 0.16741 0.05633 0.0
H1781 H 0.37306 0.20498 0.05372 0.0
C1782 C 0.99421 0.34664 0.35307 0.0
C1783 C 0.99575 0.33776 0.37103 0.0
C1784 C 0.97304 0.32572 0.34094 0.0
C1785 C 0.89891 0.25553 0.3398 0.0
H1786 H 0.92869 0.23675 0.29536 0.0
C1787 C 0.86087 0.14446 0.29628 0.0
C1788 C 0.82872 0.1338 0.29472 0.0
C1789 C 0.88082 0.17423 0.30133 0.0
C1790 C 0.92001 0.24205 0.30761 0.0
H1791 H 0.97656 0.29975 0.39013 0.0
H1792 H 0.93936 0.26388 0.36921 0.0
H1793 H 0.96449 0.28039 0.31327 0.0
H1794 H 0.79259 0.14652 0.29605 0.0
H1795 H 0.82752 0.19852 0.30514 0.0
H1796 H 0.85492 0.21663 0.33473 0.0
C1797 C 0.9544 0.28698 0.36456 0.0
C1798 C 0.94039 0.26703 0.31776 0.0
C1799 C 0.97581 0.30759 0.37653 0.0
C1800 C 0.81721 0.15399 0.29729 0.0
C1801 C 0.83716 0.18373 0.3025 0.0
C1802 C 0.8785 0.23084 0.32958 0.0
C1803 C 0.95275 0.29584 0.34671 0.0
C1804 C 0.93021 0.27327 0.33425 0.0
C1805 C 0.86901 0.19388 0.30504 0.0
C1806 C 0.88911 0.22326 0.31371 0.0
H1807 H 0.00941 0.36965 0.34836 0.0
H1808 H 0.97223 0.33294 0.32717 0.0
H1809 H 0.89057 0.26006 0.35246 0.0
H1810 H 0.87049 0.12951 0.29423 0.0
H1811 H 0.90521 0.18133 0.30335 0.0
C1812 C 0.87487 0.70914 0.3046 0.0
C1813 C 0.88779 0.68984 0.30567 0.0
C1814 C 0.84308 0.69798 0.30778 0.0
C1815 C 0.7787 0.6406 0.33411 0.0
H1816 H 0.72949 0.66712 0.30655 0.0
C1817 C 0.68146 0.65583 0.36576 0.0
C1818 C 0.652 0.6416 0.35768 0.0
C1819 C 0.70711 0.65661 0.35709 0.0
C1820 C 0.74279 0.65914 0.31418 0.0
H1821 H 0.87719 0.64348 0.31056 0.0
H1822 H 0.82153 0.62413 0.31658 0.0
H1823 H 0.78067 0.67742 0.29473 0.0
H1824 H 0.62683 0.61817 0.33365 0.0
H1825 H 0.67253 0.62057 0.31812 0.0
H1826 H 0.74166 0.62383 0.35402 0.0
C1827 C 0.83618 0.64787 0.31312 0.0
C1828 C 0.77205 0.66517 0.30751 0.0
C1829 C 0.86801 0.65897 0.3097 0.0
C1830 C 0.64914 0.62913 0.34031 0.0
C1831 C 0.67517 0.63044 0.33143 0.0
C1832 C 0.7497 0.63494 0.34087 0.0
C1833 C 0.8235 0.66735 0.3123 0.0
C1834 C 0.79061 0.65666 0.31767 0.0
C1835 C 0.70418 0.64371 0.33996 0.0
C1836 C 0.73192 0.64491 0.3312 0.0
H1837 H 0.88932 0.73299 0.30144 0.0
H1838 H 0.83402 0.71359 0.30732 0.0
H1839 H 0.79258 0.63398 0.34228 0.0
H1840 H 0.68482 0.66612 0.37897 0.0
H1841 H 0.72942 0.66752 0.36376 0.0
C1842 C 0.36917 0.18059 0.30153 0.0
C1843 C 0.34787 0.18155 0.31406 0.0
C1844 C 0.3852 0.16502 0.30597 0.0
C1845 C 0.41176 0.13893 0.34436 0.0
H1846 H 0.38242 0.06147 0.32105 0.0
C1847 C 0.37869 0.0327 0.38371 0.0
C1848 C 0.39173 0.01432 0.37923 0.0
C1849 C 0.38318 0.05652 0.37234 0.0
C1850 C 0.3917 0.0834 0.32733 0.0
H1851 H 0.32744 0.16829 0.34114 0.0
H1852 H 0.35596 0.1421 0.34903 0.0
H1853 H 0.37406 0.10061 0.30657 0.0
H1854 H 0.41845 0.00572 0.35871 0.0
H1855 H 0.42537 0.04735 0.33834 0.0
H1856 H 0.42686 0.12091 0.36587 0.0
C1857 C 0.36008 0.15297 0.33577 0.0
C1858 C 0.38697 0.10574 0.31906 0.0
C1859 C 0.34362 0.16775 0.33121 0.0
C1860 C 0.40825 0.01958 0.3626 0.0
C1861 C 0.41234 0.04336 0.35099 0.0
C1862 C 0.41649 0.11673 0.35256 0.0
C1863 C 0.38072 0.15119 0.32317 0.0
C1864 C 0.39536 0.13291 0.32809 0.0
C1865 C 0.40041 0.06237 0.35606 0.0
C1866 C 0.40483 0.0882 0.34463 0.0
H1867 H 0.37264 0.19099 0.28817 0.0
H1868 H 0.40087 0.16363 0.29604 0.0
H1869 H 0.41843 0.15978 0.35151 0.0
H1870 H 0.36543 0.02918 0.39621 0.0
H1871 H 0.37312 0.07048 0.37629 0.0
C1872 C 0.48829 0.51709 0.37127 0.0
C1873 C 0.52001 0.52636 0.36859 0.0
C1874 C 0.46565 0.48735 0.36809 0.0
C1875 C 0.42363 0.43342 0.34649 0.0
H1876 H 0.433 0.36257 0.35383 0.0
C1877 C 0.34715 0.32345 0.30948 0.0
C1878 C 0.33673 0.29577 0.31879 0.0
C1879 C 0.36909 0.35046 0.31715 0.0
C1880 C 0.42987 0.38209 0.3519 0.0
H1881 H 0.5532 0.51166 0.36133 0.0
H1882 H 0.5134 0.45961 0.35493 0.0
H1883 H 0.47211 0.41129 0.36565 0.0
H1884 H 0.34099 0.2749 0.34367 0.0
H1885 H 0.37891 0.32241 0.35728 0.0
H1886 H 0.38124 0.40443 0.33313 0.0
C1887 C 0.50604 0.4752 0.3599 0.0
C1888 C 0.45246 0.41006 0.35847 0.0
C1889 C 0.52884 0.505 0.36346 0.0
C1890 C 0.34858 0.29582 0.3361 0.0
C1891 C 0.37047 0.323 0.34385 0.0
C1892 C 0.40104 0.40557 0.34009 0.0
C1893 C 0.47415 0.4663 0.36172 0.0
C1894 C 0.4497 0.4361 0.3557 0.0
C1895 C 0.38094 0.35061 0.33443 0.0
C1896 C 0.40409 0.37966 0.34245 0.0
H1897 H 0.48085 0.53298 0.37556 0.0
H1898 H 0.44139 0.48107 0.3702 0.0
H1899 H 0.42093 0.45302 0.34379 0.0
H1900 H 0.33862 0.32437 0.29613 0.0
H1901 H 0.37706 0.37125 0.30937 0.0
C1902 C 0.71687 0.04518 0.33224 0.0
C1903 C 0.7079 0.02146 0.31987 0.0
C1904 C 0.69604 0.04363 0.34588 0.0
C1905 C 0.62659 0.99155 0.37224 0.0
H1906 H 0.60042 0.05208 0.36842 0.0
C1907 C 0.50357 0.96539 0.3914 0.0
C1908 C 0.49757 0.98822 0.39756 0.0
C1909 C 0.53373 0.97205 0.38655 0.0
C1910 C 0.60791 0.0354 0.3701 0.0
H1911 H 0.67093 0.97705 0.31249 0.0
H1912 H 0.63496 0.97404 0.33659 0.0
H1913 H 0.64653 0.0591 0.35151 0.0
H1914 H 0.5188 0.03571 0.40433 0.0
H1915 H 0.57186 0.04733 0.39605 0.0
H1916 H 0.58782 0.96747 0.39052 0.0
C1917 C 0.65789 0.99388 0.33564 0.0
C1918 C 0.63427 0.03942 0.36036 0.0
C1919 C 0.67835 0.99571 0.32179 0.0
C1920 C 0.52266 0.01769 0.39947 0.0
C1921 C 0.55302 0.02435 0.39468 0.0
C1922 C 0.60055 0.98773 0.38219 0.0
C1923 C 0.66636 0.018 0.3476 0.0
C1924 C 0.64301 0.01694 0.36081 0.0
C1925 C 0.5588 1.00167 0.38786 0.0
C1926 C 0.59006 0.00892 0.38059 0.0
H1927 H 0.7395 0.06534 0.33096 0.0
H1928 H 0.70294 0.06251 0.35495 0.0
H1929 H 0.63318 0.97408 0.37292 0.0
H1930 H 0.48483 0.94241 0.38978 0.0
H1931 H 0.53707 0.95409 0.38102 0.0
C1932 C 0.97028 0.64547 0.35705 0.0
C1933 C 0.96982 0.64296 0.33803 0.0
C1934 C 0.97036 0.62285 0.36808 0.0
C1935 C 0.9515 0.54296 0.36749 0.0
H1936 H 0.02038 0.56655 0.40028 0.0
C1937 C 0.03422 0.49339 0.39006 0.0
C1938 C 0.01231 0.46297 0.39382 0.0
C1939 C 0.02475 0.51509 0.38854 0.0
C1940 C 1.00081 0.55961 0.39133 0.0
H1941 H 0.96838 0.61456 0.31569 0.0
H1942 H 0.96836 0.57547 0.33478 0.0
H1943 H 0.01025 0.60522 0.38709 0.0
H1944 H 0.96351 0.43169 0.39987 0.0
H1945 H 0.94691 0.46973 0.39703 0.0
H1946 H 0.94321 0.49771 0.37069 0.0
C1947 C 0.96855 0.5947 0.34123 0.0
C1948 C 0.99486 0.58169 0.38393 0.0
C1949 C 0.96892 0.61732 0.33029 0.0
C1950 C 0.98089 0.45491 0.39676 0.0
C1951 C 0.97138 0.47666 0.39516 0.0
C1952 C 0.95736 0.52091 0.37491 0.0
C1953 C 0.96934 0.59721 0.36021 0.0
C1954 C 0.97101 0.57366 0.37132 0.0
C1955 C 0.99316 0.50688 0.39072 0.0
C1956 C 0.98291 0.52917 0.38629 0.0
H1957 H 0.971 0.66502 0.36337 0.0
H1958 H 0.97114 0.62532 0.3827 0.0
H1959 H 0.93273 0.53618 0.35794 0.0
H1960 H 0.05866 0.50042 0.38787 0.0
H1961 H 0.04205 0.53806 0.38483 0.0
C1962 C 0.48909 0.48079 0.63089 0.0
C1963 C 0.49521 0.45666 0.63332 0.0
C1964 C 0.50897 0.50916 0.6382 0.0
C1965 C 0.55689 0.54058 0.6768 0.0
H1966 H 0.60586 0.61628 0.6503 0.0
C1967 C 0.66012 0.63874 0.70965 0.0
C1968 C 0.66525 0.66827 0.70688 0.0
C1969 C 0.6382 0.61494 0.69953 0.0
C1970 C 0.59191 0.59543 0.65791 0.0
H1971 H 0.52761 0.44371 0.64465 0.0
H1972 H 0.56163 0.49284 0.65763 0.0
H1973 H 0.56885 0.57088 0.63401 0.0
H1974 H 0.652 0.69616 0.69094 0.0
H1975 H 0.61297 0.6541 0.67333 0.0
H1976 H 0.57939 0.56451 0.70065 0.0
C1977 C 0.54159 0.4898 0.65005 0.0
C1978 C 0.57087 0.56956 0.64859 0.0
C1979 C 0.52211 0.46173 0.64258 0.0
C1980 C 0.64852 0.67362 0.69337 0.0
C1981 C 0.62625 0.64959 0.68327 0.0
C1982 C 0.57749 0.56632 0.6861 0.0
C1983 C 0.53487 0.51352 0.64821 0.0
C1984 C 0.55394 0.54183 0.65795 0.0
C1985 C 0.62051 0.61991 0.68651 0.0
C1986 C 0.59599 0.59381 0.6767 0.0
H1987 H 0.46863 0.47757 0.62371 0.0
H1988 H 0.50347 0.52728 0.63667 0.0
H1989 H 0.54367 0.51943 0.68429 0.0
H1990 H 0.67293 0.63387 0.71975 0.0
H1991 H 0.63504 0.59252 0.70199 0.0
C1992 C 0.53786 0.99487 0.64321 0.0
C1993 C 0.55816 0.02535 0.63848 0.0
C1994 C 0.50642 0.98489 0.6472 0.0
C1995 C 0.44367 1.00393 0.64171 0.0
H1996 H 0.4136 0.96404 0.68864 0.0
C1997 C 0.31981 0.96625 0.67267 0.0
C1998 C 0.32067 0.97674 0.69043 0.0
C1999 C 0.34688 0.9691 0.66435 0.0
C2000 C 0.42163 0.97493 0.67543 0.0
H2001 H 0.56104 0.06895 0.6336 0.0
H2002 H 0.50633 0.05146 0.64043 0.0
H2003 H 0.46442 0.9738 0.67695 0.0
H2004 H 0.35103 0.99945 0.71303 0.0
H2005 H 0.39767 1.00371 0.69867 0.0
H2006 H 0.4011 0.00578 0.64051 0.0
C2007 C 0.51471 0.03531 0.64103 0.0
C2008 C 0.45054 0.98029 0.66869 0.0
C2009 C 0.54615 0.04537 0.63729 0.0
C2010 C 0.34927 0.9907 0.69947 0.0
C2011 C 0.37605 0.99308 0.69129 0.0
C2012 C 0.41452 0.9982 0.64836 0.0
C2013 C 0.49464 0.0051 0.64625 0.0
C2014 C 0.46218 0.99555 0.652 0.0
C2015 C 0.37506 0.98204 0.67376 0.0
C2016 C 0.4037 0.98442 0.66551 0.0
H2017 H 0.54636 0.97886 0.64421 0.0
H2018 H 0.49134 0.96145 0.65116 0.0
H2019 H 0.4521 0.01558 0.62874 0.0
H2020 H 0.29821 0.95554 0.66529 0.0
H2021 H 0.34567 0.96057 0.65076 0.0
C2022 C 0.02641 0.33572 0.70465 0.0
C2023 C 0.05381 0.33459 0.70794 0.0
C2024 C 0.02558 0.35384 0.69062 0.0
C2025 C 0.07229 0.42498 0.6696 0.0
H2026 H 1.00188 0.39863 0.63765 0.0
C2027 C 0.03726 0.50911 0.63914 0.0
C2028 C 1.00568 0.49969 0.64286 0.0
C2029 C 0.04851 0.48865 0.64094 0.0
C2030 C 0.0219 0.40637 0.64633 0.0
H2031 H 0.10164 0.3508 0.69911 0.0
H2032 H 0.10053 0.38384 0.67479 0.0
H2033 H 0.01193 0.36112 0.65245 0.0
H2034 H 0.96091 0.4612 0.65054 0.0
H2035 H 0.98039 0.42604 0.65383 0.0
H2036 H 0.08057 0.47003 0.66488 0.0
C2037 C 0.07961 0.37008 0.68287 0.0
C2038 C 0.0277 0.38492 0.6547 0.0
C2039 C 0.0802 0.35125 0.69668 0.0
C2040 C 0.98542 0.46931 0.64771 0.0
C2041 C 0.99654 0.44897 0.64935 0.0
C2042 C 0.06627 0.44647 0.66138 0.0
C2043 C 0.05232 0.37164 0.67987 0.0
C2044 C 0.05199 0.394 0.66708 0.0
C2045 C 0.02825 0.45842 0.64624 0.0
C2046 C 0.03997 0.43719 0.65047 0.0
H2047 H 1.00577 0.32298 0.71315 0.0
H2048 H 1.0044 0.35502 0.68873 0.0
H2049 H 0.09107 0.43244 0.6792 0.0
H2050 H 0.05337 0.53237 0.63527 0.0
H2051 H 0.07306 0.49654 0.63844 0.0
C2052 C 0.20068 0.83551 0.70557 0.0
C2053 C 0.19746 0.85758 0.69565 0.0
C2054 C 0.18247 0.80482 0.70143 0.0
C2055 C 0.13785 0.75496 0.66443 0.0
H2056 H 0.08285 0.69879 0.70159 0.0
C2057 C 0.02189 0.65498 0.6466 0.0
C2058 C 0.01343 0.62628 0.65399 0.0
C2059 C 0.04766 0.68071 0.65297 0.0
C2060 C 0.09851 0.71405 0.69116 0.0
H2061 H 0.17333 0.86504 0.67343 0.0
H2062 H 0.14213 0.81193 0.66612 0.0
H2063 H 0.12419 0.74916 0.71023 0.0
H2064 H 0.02469 0.60237 0.67452 0.0
H2065 H 0.0699 0.64795 0.68587 0.0
H2066 H 0.11159 0.72063 0.64528 0.0
C2067 C 0.15857 0.81817 0.67707 0.0
C2068 C 0.12213 0.74277 0.69609 0.0
C2069 C 0.17628 0.84857 0.68136 0.0
C2070 C 0.03066 0.62414 0.6685 0.0
C2071 C 0.0565 0.65013 0.67499 0.0
C2072 C 0.1144 0.72642 0.65953 0.0
C2073 C 0.16136 0.79599 0.68708 0.0
C2074 C 0.14113 0.76382 0.68264 0.0
C2075 C 0.06558 0.67852 0.66695 0.0
C2076 C 0.09371 0.70618 0.67275 0.0
H2077 H 0.21675 0.84189 0.71673 0.0
H2078 H 0.18492 0.78805 0.70935 0.0
H2079 H 0.15256 0.77066 0.65385 0.0
H2080 H 0.00901 0.65765 0.63559 0.0
H2081 H 0.05369 0.70243 0.64683 0.0
C2082 C 0.1877 0.35338 0.73083 0.0
C2083 C 0.16538 0.3228 0.73372 0.0
C2084 C 0.21786 0.3614 0.72484 0.0
C2085 C 0.26413 0.36465 0.69616 0.0
H2086 H 0.3106 0.32408 0.70939 0.0
C2087 C 0.3373 0.34176 0.64504 0.0
C2088 C 0.36827 0.3504 0.64939 0.0
C2089 C 0.317 0.34251 0.6581 0.0
C2090 C 0.29812 0.33592 0.70575 0.0
H2091 H 0.15786 0.27689 0.73407 0.0
H2092 H 0.21033 0.2909 0.7235 0.0
H2093 H 0.26764 0.31887 0.72915 0.0
H2094 H 0.40174 0.36536 0.67117 0.0
H2095 H 0.36555 0.36585 0.69423 0.0
H2096 H 0.29349 0.38045 0.67236 0.0
C2097 C 0.20462 0.30868 0.72589 0.0
C2098 C 0.27351 0.33283 0.71696 0.0
C2099 C 0.17444 0.30064 0.73178 0.0
C2100 C 0.37811 0.3588 0.66734 0.0
C2101 C 0.35749 0.35907 0.68053 0.0
C2102 C 0.28842 0.36745 0.68492 0.0
C2103 C 0.22629 0.33902 0.72177 0.0
C2104 C 0.25575 0.34651 0.71199 0.0
C2105 C 0.32695 0.35142 0.67588 0.0
C2106 C 0.30498 0.35239 0.68934 0.0
H2107 H 0.18153 0.37102 0.73239 0.0
H2108 H 0.23424 0.385 0.72194 0.0
H2109 H 0.2507 0.37521 0.69186 0.0
H2110 H 0.32867 0.33473 0.63148 0.0
H2111 H 0.29334 0.33595 0.65429 0.0
C2112 C 0.64239 0.78517 0.72966 0.0
C2113 C 0.67413 0.79419 0.7271 0.0
C2114 C 0.63215 0.80644 0.72838 0.0
C2115 C 0.6182 0.85123 0.70847 0.0
H2116 H 0.66961 0.93498 0.72225 0.0
C2117 C 0.63433 0.97704 0.69022 0.0
C2118 C 0.63556 0.97491 0.67122 0.0
C2119 C 0.63272 0.95388 0.70148 0.0
C2120 C 0.65456 0.9116 0.71864 0.0
H2121 H 0.72023 0.83277 0.72226 0.0
H2122 H 0.70242 0.86949 0.71983 0.0
H2123 H 0.67879 0.8959 0.73569 0.0
H2124 H 0.63538 0.94661 0.64915 0.0
H2125 H 0.63255 0.90667 0.66861 0.0
H2126 H 0.59499 0.86711 0.69077 0.0
C2127 C 0.68539 0.84617 0.72296 0.0
C2128 C 0.65997 0.88928 0.7262 0.0
C2129 C 0.69556 0.82499 0.72411 0.0
C2130 C 0.63465 0.94911 0.66372 0.0
C2131 C 0.63262 0.92597 0.67488 0.0
C2132 C 0.61285 0.87352 0.7009 0.0
C2133 C 0.65353 0.83709 0.72472 0.0
C2134 C 0.64282 0.85911 0.72051 0.0
C2135 C 0.6317 0.92808 0.69385 0.0
C2136 C 0.63198 0.90408 0.70526 0.0
H2137 H 0.62538 0.76162 0.73215 0.0
H2138 H 0.60746 0.79883 0.72986 0.0
H2139 H 0.60462 0.82824 0.70377 0.0
H2140 H 0.63497 0.99668 0.69636 0.0
H2141 H 0.63222 0.95607 0.71609 0.0
loop_
_geom_bond_atom_site_label_1
_geom_bond_atom_site_label_2
_geom_bond_distance
_geom_bond_site_symmetry_2
_ccdc_geom_bond_type
Co0 O2 2.143 . S
Co0 O8 2.074 . S
Co0 O11 2.093 . S
Co0 O24 2.097 . S
Co0 N41 2.151 . S
Co0 N49 2.214 1_554 S
Co1 O2 2.160 . S
Co1 O7 2.058 . S
Co1 O17 2.057 . S
Co1 O32 2.037 1_545 S
Co1 N36 2.145 1_545 S
Co1 N57 2.257 . S
O2 Co0 2.143 . S
O2 Co1 2.160 . S
C3 O4 1.278 . S
C3 O11 1.224 . S
O4 C3 1.278 . S
C5 O6 1.245 . S
C5 O17 1.232 . S
O6 C5 1.245 . S
O7 Co1 2.058 . S
O7 C33 1.269 . S
O8 Co0 2.074 . S
O8 C33 1.257 . S
H9 C34 0.930 . S
H10 C40 0.930 . S
O11 Co0 2.093 . S
O11 C3 1.224 . S
H12 C44 0.929 . S
H13 C46 0.930 . S
H14 C47 0.910 1_554 S
H15 C45 0.929 . S
H16 C48 0.928 . S
O17 Co1 2.057 . S
O17 C5 1.232 . S
H18 C37 0.929 . S
H19 C38 0.929 . S
H20 C50 0.931 1_565 S
H21 C42 0.929 . S
H22 C51 0.930 . S
H23 C43 0.931 . S
O24 Co0 2.097 . S
O24 C52 1.214 1_545 S
H25 C53 0.929 . S
H26 C54 0.929 . S
H27 C55 0.930 . S
H28 C56 0.929 . S
H29 C58 0.930 . S
H30 C35 0.930 . S
H31 C39 0.930 . S
O32 Co1 2.037 1_565 S
O32 C52 1.234 . S
C33 O7 1.269 . S
C33 O8 1.257 . S
C34 H9 0.930 . S
C34 C37 1.388 . S
C34 C39 1.418 . S
C35 H30 0.930 . S
C35 C38 1.404 . S
C35 C39 1.353 . S
N36 Co1 2.145 1_565 S
N36 C37 1.397 . S
N36 C38 1.334 . S
C37 H18 0.929 . S
C37 C34 1.388 . S
C37 N36 1.397 . S
C38 H19 0.929 . S
C38 C35 1.404 . S
C38 N36 1.334 . S
C39 H31 0.930 . S
C39 C34 1.418 . S
C39 C35 1.353 . S
C40 H10 0.930 . S
C40 N41 1.330 . S
C40 C42 1.446 . S
N41 Co0 2.151 . S
N41 C40 1.330 . S
N41 C45 1.418 . S
C42 H21 0.929 . S
C42 C40 1.446 . S
C42 C43 1.332 . S
C43 H23 0.931 . S
C43 C42 1.332 . S
C43 C44 1.267 . S
C44 H12 0.929 . S
C44 C43 1.267 . S
C44 C45 1.251 . S
C45 H15 0.929 . S
C45 N41 1.418 . S
C45 C44 1.251 . S
C46 H13 0.930 . S
C46 C48 1.406 . S
C46 C51 1.261 . S
C47 H14 0.910 1_556 S
C47 N49 1.325 . S
C47 C50 1.357 . S
C48 H16 0.928 . S
C48 C46 1.406 . S
C48 N49 1.261 . S
N49 Co0 2.214 1_556 S
N49 C47 1.325 . S
N49 C48 1.261 . S
C50 H20 0.931 1_545 S
C50 C47 1.357 . S
C50 C51 1.312 . S
C51 H22 0.930 . S
C51 C46 1.261 . S
C51 C50 1.312 . S
C52 O24 1.214 1_565 S
C52 O32 1.234 . S
C53 H25 0.929 . S
C53 C56 1.391 . S
C53 C58 1.391 . S
C54 H26 0.929 . S
C54 C55 1.390 . S
C54 N57 1.391 1_565 S
C55 H27 0.930 . S
C55 C54 1.390 . S
C55 C56 1.392 1_565 S
C56 H28 0.929 . S
C56 C53 1.391 . S
C56 C55 1.392 1_545 S
N57 Co1 2.257 . S
N57 C54 1.391 1_545 S
N57 C58 1.388 . S
C58 H29 0.930 . S
C58 C53 1.391 . S
C58 N57 1.388 . S
Co59 O61 2.143 . S
Co59 O67 2.074 . S
Co59 O70 2.093 1_554 S
Co59 O83 2.097 . S
Co59 N100 2.151 . S
Co59 N108 2.214 1_554 S
Co60 O61 2.160 . S
Co60 O66 2.058 . S
Co60 O76 2.057 . S
Co60 O91 2.037 . S
Co60 N95 2.145 . S
Co60 N116 2.257 . S
O61 Co59 2.143 . S
O61 Co60 2.160 . S
C62 O63 1.278 . S
C62 O70 1.224 1_554 S
O63 C62 1.278 . S
C64 O65 1.245 . S
C64 O76 1.232 . S
O65 C64 1.245 . S
O66 Co60 2.058 . S
O66 C92 1.269 . S
O67 Co59 2.074 . S
O67 C92 1.257 . S
H68 C93 0.930 . S
H69 C99 0.930 . S
O70 Co59 2.093 1_556 S
O70 C62 1.224 1_556 S
H71 C103 0.929 . S
H72 C105 0.930 . S
H73 C106 0.930 . S
H74 C104 0.929 . S
H75 C107 0.928 . S
O76 Co60 2.057 . S
O76 C64 1.232 . S
H77 C96 0.929 . S
H78 C97 0.929 . S
H79 C109 0.931 . S
H80 C101 0.929 . S
H81 C110 0.930 . S
H82 C102 0.937 . S
O83 Co59 2.097 . S
O83 C111 1.214 . S
H84 C112 0.929 . S
H85 C113 0.929 . S
H86 C114 0.930 . S
H87 C115 0.929 . S
H88 C117 0.930 . S
H89 C94 0.929 1_655 S
H90 C98 0.930 . S
O91 Co60 2.037 . S
O91 C111 1.234 . S
C92 O66 1.269 . S
C92 O67 1.257 . S
C93 H68 0.930 . S
C93 C96 1.388 . S
C93 C98 1.418 . S
C94 H89 0.929 1_455 S
C94 C97 1.396 1_455 S
C94 C98 1.362 . S
N95 Co60 2.145 . S
N95 C96 1.397 1_655 S
N95 C97 1.334 . S
C96 H77 0.929 . S
C96 C93 1.388 . S
C96 N95 1.397 1_455 S
C97 H78 0.929 . S
C97 C94 1.396 1_655 S
C97 N95 1.334 . S
C98 H90 0.930 . S
C98 C93 1.418 . S
C98 C94 1.362 . S
C99 H69 0.930 . S
C99 N100 1.330 . S
C99 C101 1.446 . S
N100 Co59 2.151 . S
N100 C99 1.330 . S
N100 C104 1.418 1_554 S
C101 H80 0.929 . S
C101 C99 1.446 . S
C101 C102 1.319 1_554 S
C102 H82 0.937 . S
C102 C101 1.319 1_556 S
C102 C103 1.275 . S
C103 H71 0.929 . S
C103 C102 1.275 . S
C103 C104 1.251 . S
C104 H74 0.929 . S
C104 N100 1.418 1_556 S
C104 C103 1.251 . S
C105 H72 0.930 . S
C105 C107 1.406 . S
C105 C110 1.261 . S
C106 H73 0.930 . S
C106 N108 1.325 . S
C106 C109 1.357 . S
C107 H75 0.928 . S
C107 C105 1.406 . S
C107 N108 1.261 . S
N108 Co59 2.214 1_556 S
N108 C106 1.325 . S
N108 C107 1.261 . S
C109 H79 0.931 . S
C109 C106 1.357 . S
C109 C110 1.312 . S
C110 H81 0.930 . S
C110 C105 1.261 . S
C110 C109 1.312 . S
C111 O83 1.214 . S
C111 O91 1.234 . S
C112 H84 0.929 . S
C112 C115 1.391 . S
C112 C117 1.391 . S
C113 H85 0.929 . S
C113 C114 1.390 . S
C113 N116 1.391 . S
C114 H86 0.930 . S
C114 C113 1.390 . S
C114 C115 1.392 . S
C115 H87 0.929 . S
C115 C112 1.391 . S
C115 C114 1.392 . S
N116 Co60 2.257 . S
N116 C113 1.391 . S
N116 C117 1.388 . S
C117 H88 0.930 . S
C117 C112 1.391 . S
C117 N116 1.388 . S
Co118 O120 2.143 . S
Co118 O126 2.074 . S
Co118 O129 2.093 . S
Co118 O142 2.097 . S
Co118 N159 2.151 . S
Co118 N167 2.214 . S
Co119 O120 2.160 . S
Co119 O125 2.058 . S
Co119 O135 2.057 . S
Co119 O150 2.037 . S
Co119 N154 2.145 . S
Co119 N175 2.257 . S
O120 Co118 2.143 . S
O120 Co119 2.160 . S
C121 O122 1.278 . S
C121 O129 1.224 . S
O122 C121 1.278 . S
C123 O124 1.245 . S
C123 O135 1.232 . S
O124 C123 1.245 . S
O125 Co119 2.058 . S
O125 C151 1.269 . S
O126 Co118 2.074 . S
O126 C151 1.257 . S
H127 C152 0.930 . S
H128 C158 0.930 . S
O129 Co118 2.093 . S
O129 C121 1.224 . S
H130 C162 0.929 . S
H131 C164 0.930 . S
H132 C165 0.930 . S
H133 C163 0.929 . S
H134 C166 0.928 . S
O135 Co119 2.057 . S
O135 C123 1.232 . S
H136 C155 0.929 . S
H137 C156 0.929 . S
H138 C168 0.931 . S
H139 C160 0.929 . S
H140 C169 0.930 . S
H141 C161 0.931 . S
O142 Co118 2.097 . S
O142 C170 1.214 . S
H143 C171 0.929 . S
H144 C172 0.929 . S
H145 C173 0.930 . S
H146 C174 0.929 . S
H147 C176 0.930 . S
H148 C153 0.930 . S
H149 C157 0.930 . S
O150 Co119 2.037 . S
O150 C170 1.234 . S
C151 O125 1.269 . S
C151 O126 1.257 . S
C152 H127 0.930 . S
C152 C155 1.388 . S
C152 C157 1.418 . S
C153 H148 0.930 . S
C153 C156 1.404 . S
C153 C157 1.353 . S
N154 Co119 2.145 . S
N154 C155 1.397 . S
N154 C156 1.334 . S
C155 H136 0.929 . S
C155 C152 1.388 . S
C155 N154 1.397 . S
C156 H137 0.929 . S
C156 C153 1.404 . S
C156 N154 1.334 . S
C157 H149 0.930 . S
C157 C152 1.418 . S
C157 C153 1.353 . S
C158 H128 0.930 . S
C158 N159 1.330 . S
C158 C160 1.446 . S
N159 Co118 2.151 . S
N159 C158 1.330 . S
N159 C163 1.418 . S
C160 H139 0.929 . S
C160 C158 1.446 . S
C160 C161 1.332 . S
C161 H141 0.931 . S
C161 C160 1.332 . S
C161 C162 1.267 . S
C162 H130 0.929 . S
C162 C161 1.267 . S
C162 C163 1.251 . S
C163 H133 0.929 . S
C163 N159 1.418 . S
C163 C162 1.251 . S
C164 H131 0.930 . S
C164 C166 1.407 1_556 S
C164 C169 1.261 . S
C165 H132 0.930 . S
C165 N167 1.325 . S
C165 C168 1.357 1_554 S
C166 H134 0.928 . S
C166 C164 1.407 1_554 S
C166 N167 1.260 . S
N167 Co118 2.214 . S
N167 C165 1.325 . S
N167 C166 1.260 . S
C168 H138 0.931 . S
C168 C165 1.357 1_556 S
C168 C169 1.312 . S
C169 H140 0.930 . S
C169 C164 1.261 . S
C169 C168 1.312 . S
C170 O142 1.214 . S
C170 O150 1.234 . S
C171 H143 0.929 . S
C171 C174 1.391 . S
C171 C176 1.391 . S
C172 H144 0.929 . S
C172 C173 1.390 . S
C172 N175 1.391 . S
C173 H145 0.930 . S
C173 C172 1.390 . S
C173 C174 1.392 . S
C174 H146 0.929 . S
C174 C171 1.391 . S
C174 C173 1.392 . S
N175 Co119 2.257 . S
N175 C172 1.391 . S
N175 C176 1.388 . S
C176 H147 0.930 . S
C176 C171 1.391 . S
C176 N175 1.388 . S
Co177 O179 2.143 . S
Co177 O185 2.074 . S
Co177 O188 2.093 . S
Co177 O201 2.097 . S
Co177 N218 2.151 . S
Co177 N226 2.214 1_556 S
Co178 O179 2.160 . S
Co178 O184 2.058 . S
Co178 O194 2.057 . S
Co178 O209 2.037 . S
Co178 N213 2.145 . S
Co178 N234 2.257 . S
O179 Co177 2.143 . S
O179 Co178 2.160 . S
C180 O181 1.278 . S
C180 O188 1.224 . S
O181 C180 1.278 . S
C182 O183 1.245 . S
C182 O194 1.232 . S
O183 C182 1.245 . S
O184 Co178 2.058 . S
O184 C210 1.269 . S
O185 Co177 2.074 . S
O185 C210 1.257 . S
H186 C211 0.930 . S
H187 C217 0.930 . S
O188 Co177 2.093 . S
O188 C180 1.224 . S
H189 C221 0.929 . S
H190 C223 0.930 . S
H191 C224 0.930 1_556 S
H192 C222 0.929 . S
H193 C225 0.928 . S
O194 Co178 2.057 . S
O194 C182 1.232 . S
H195 C214 0.929 . S
H196 C215 0.929 . S
H197 C227 0.931 . S
H198 C219 0.929 . S
H199 C228 0.930 . S
H200 C220 0.931 . S
O201 Co177 2.097 . S
O201 C229 1.214 . S
H202 C230 0.929 . S
H203 C231 0.929 . S
H204 C232 0.930 . S
H205 C233 0.929 . S
H206 C235 0.930 . S
H207 C212 0.930 . S
H208 C216 0.930 . S
O209 Co178 2.037 . S
O209 C229 1.234 . S
C210 O184 1.269 . S
C210 O185 1.257 . S
C211 H186 0.930 . S
C211 C214 1.388 1_545 S
C211 C216 1.418 . S
C212 H207 0.930 . S
C212 C215 1.404 . S
C212 C216 1.353 1_565 S
N213 Co178 2.145 . S
N213 C214 1.397 . S
N213 C215 1.334 . S
C214 H195 0.929 . S
C214 C211 1.388 1_565 S
C214 N213 1.397 . S
C215 H196 0.929 . S
C215 C212 1.404 . S
C215 N213 1.334 . S
C216 H208 0.930 . S
C216 C211 1.418 . S
C216 C212 1.353 1_545 S
C217 H187 0.930 . S
C217 N218 1.330 . S
C217 C219 1.446 . S
N218 Co177 2.151 . S
N218 C217 1.330 . S
N218 C222 1.418 . S
C219 H198 0.929 . S
C219 C217 1.446 . S
C219 C220 1.332 . S
C220 H200 0.931 . S
C220 C219 1.332 . S
C220 C221 1.267 . S
C221 H189 0.929 . S
C221 C220 1.267 . S
C221 C222 1.251 . S
C222 H192 0.929 . S
C222 N218 1.418 . S
C222 C221 1.251 . S
C223 H190 0.930 . S
C223 C225 1.406 . S
C223 C228 1.261 . S
C224 H191 0.930 1_554 S
C224 N226 1.325 . S
C224 C227 1.357 . S
C225 H193 0.928 . S
C225 C223 1.406 . S
C225 N226 1.261 . S
N226 Co177 2.214 1_554 S
N226 C224 1.325 . S
N226 C225 1.261 . S
C227 H197 0.931 . S
C227 C224 1.357 . S
C227 C228 1.312 . S
C228 H199 0.930 . S
C228 C223 1.261 . S
C228 C227 1.312 . S
C229 O201 1.214 . S
C229 O209 1.234 . S
C230 H202 0.929 . S
C230 C233 1.391 . S
C230 C235 1.391 . S
C231 H203 0.929 . S
C231 C232 1.390 . S
C231 N234 1.391 . S
C232 H204 0.930 . S
C232 C231 1.390 . S
C232 C233 1.392 . S
C233 H205 0.929 . S
C233 C230 1.391 . S
C233 C232 1.392 . S
N234 Co178 2.257 . S
N234 C231 1.391 . S
N234 C235 1.388 . S
C235 H206 0.930 . S
C235 C230 1.391 . S
C235 N234 1.388 . S
Co236 O238 2.143 . S
Co236 O244 2.074 . S
Co236 O247 2.093 . S
Co236 O260 2.097 . S
Co236 N277 2.151 . S
Co236 N285 2.214 . S
Co237 O238 2.160 . S
Co237 O243 2.058 . S
Co237 O253 2.057 . S
Co237 O268 2.037 . S
Co237 N272 2.145 . S
Co237 N293 2.257 . S
O238 Co236 2.143 . S
O238 Co237 2.160 . S
C239 O240 1.278 . S
C239 O247 1.224 . S
O240 C239 1.278 . S
C241 O242 1.245 . S
C241 O253 1.232 . S
O242 C241 1.245 . S
O243 Co237 2.058 . S
O243 C269 1.269 . S
O244 Co236 2.074 . S
O244 C269 1.257 . S
H245 C270 0.930 . S
H246 C276 0.930 . S
O247 Co236 2.093 . S
O247 C239 1.224 . S
H248 C280 0.929 . S
H249 C282 0.930 . S
H250 C283 0.931 . S
H251 C281 0.929 . S
H252 C284 0.928 . S
O253 Co237 2.057 . S
O253 C241 1.232 . S
H254 C273 0.929 . S
H255 C274 0.929 . S
H256 C286 0.931 . S
H257 C278 0.929 . S
H258 C287 0.930 . S
H259 C279 0.931 . S
O260 Co236 2.097 . S
O260 C288 1.214 . S
H261 C289 0.929 . S
H262 C290 0.929 . S
H263 C291 0.930 . S
H264 C292 0.929 . S
H265 C294 0.930 . S
H266 C271 0.930 . S
H267 C275 0.930 . S
O268 Co237 2.037 . S
O268 C288 1.234 . S
C269 O243 1.269 . S
C269 O244 1.257 . S
C270 H245 0.930 . S
C270 C273 1.388 . S
C270 C275 1.418 . S
C271 H266 0.930 . S
C271 C274 1.404 1_655 S
C271 C275 1.353 . S
N272 Co237 2.145 . S
N272 C273 1.397 1_455 S
N272 C274 1.334 . S
C273 H254 0.929 . S
C273 C270 1.388 . S
C273 N272 1.397 1_655 S
C274 H255 0.929 . S
C274 C271 1.404 1_455 S
C274 N272 1.334 . S
C275 H267 0.930 . S
C275 C270 1.418 . S
C275 C271 1.353 . S
C276 H246 0.930 . S
C276 N277 1.330 . S
C276 C278 1.446 . S
N277 Co236 2.151 . S
N277 C276 1.330 . S
N277 C281 1.418 . S
C278 H257 0.929 . S
C278 C276 1.446 . S
C278 C279 1.332 . S
C279 H259 0.931 . S
C279 C278 1.332 . S
C279 C280 1.267 . S
C280 H248 0.929 . S
C280 C279 1.267 . S
C280 C281 1.251 . S
C281 H251 0.929 . S
C281 N277 1.418 . S
C281 C280 1.251 . S
C282 H249 0.930 . S
C282 C284 1.406 . S
C282 C287 1.261 . S
C283 H250 0.931 . S
C283 N285 1.326 . S
C283 C286 1.355 1_556 S
C284 H252 0.928 . S
C284 C282 1.406 . S
C284 N285 1.261 1_554 S
N285 Co236 2.214 . S
N285 C283 1.326 . S
N285 C284 1.261 1_556 S
C286 H256 0.931 . S
C286 C283 1.355 1_554 S
C286 C287 1.312 . S
C287 H258 0.930 . S
C287 C282 1.261 . S
C287 C286 1.312 . S
C288 O260 1.214 . S
C288 O268 1.234 . S
C289 H261 0.929 . S
C289 C292 1.391 . S
C289 C294 1.391 . S
C290 H262 0.929 . S
C290 C291 1.390 . S
C290 N293 1.391 . S
C291 H263 0.930 . S
C291 C290 1.390 . S
C291 C292 1.392 . S
C292 H264 0.929 . S
C292 C289 1.391 . S
C292 C291 1.392 . S
N293 Co237 2.257 . S
N293 C290 1.391 . S
N293 C294 1.388 . S
C294 H265 0.930 . S
C294 C289 1.391 . S
C294 N293 1.388 . S
Co295 O297 2.143 . S
Co295 O303 2.074 . S
Co295 O306 2.093 . S
Co295 O319 2.097 . S
Co295 N336 2.151 . S
Co295 N344 2.214 . S
Co296 O297 2.160 . S
Co296 O302 2.058 . S
Co296 O312 2.057 . S
Co296 O327 2.037 . S
Co296 N331 2.145 . S
Co296 N352 2.257 . S
O297 Co295 2.143 . S
O297 Co296 2.160 . S
C298 O299 1.278 . S
C298 O306 1.224 . S
O299 C298 1.278 . S
C300 O301 1.245 . S
C300 O312 1.232 . S
O301 C300 1.245 . S
O302 Co296 2.058 . S
O302 C328 1.269 . S
O303 Co295 2.074 . S
O303 C328 1.257 . S
H304 C329 0.930 . S
H305 C335 0.930 1_556 S
O306 Co295 2.093 . S
O306 C298 1.224 . S
H307 C339 0.929 . S
H308 C341 0.930 . S
H309 C342 0.930 . S
H310 C340 0.929 1_556 S
H311 C343 0.928 . S
O312 Co296 2.057 . S
O312 C300 1.232 . S
H313 C332 0.929 . S
H314 C333 0.929 . S
H315 C345 0.931 . S
H316 C337 0.929 . S
H317 C346 0.930 . S
H318 C338 0.931 . S
O319 Co295 2.097 . S
O319 C347 1.214 . S
H320 C348 0.929 . S
H321 C349 0.929 . S
H322 C350 0.930 . S
H323 C351 0.929 . S
H324 C353 0.930 . S
H325 C330 0.930 . S
H326 C334 0.930 . S
O327 Co296 2.037 . S
O327 C347 1.234 . S
C328 O302 1.269 . S
C328 O303 1.257 . S
C329 H304 0.930 . S
C329 C332 1.388 . S
C329 C334 1.418 . S
C330 H325 0.930 . S
C330 C333 1.404 . S
C330 C334 1.353 . S
N331 Co296 2.145 . S
N331 C332 1.397 . S
N331 C333 1.334 . S
C332 H313 0.929 . S
C332 C329 1.388 . S
C332 N331 1.397 . S
C333 H314 0.929 . S
C333 C330 1.404 . S
C333 N331 1.334 . S
C334 H326 0.930 . S
C334 C329 1.418 . S
C334 C330 1.353 . S
C335 H305 0.930 1_554 S
C335 N336 1.330 1_554 S
C335 C337 1.446 . S
N336 Co295 2.151 . S
N336 C335 1.330 1_556 S
N336 C340 1.418 1_556 S
C337 H316 0.929 . S
C337 C335 1.446 . S
C337 C338 1.332 . S
C338 H318 0.931 . S
C338 C337 1.332 . S
C338 C339 1.267 . S
C339 H307 0.929 . S
C339 C338 1.267 . S
C339 C340 1.251 . S
C340 H310 0.929 1_554 S
C340 N336 1.418 1_554 S
C340 C339 1.251 . S
C341 H308 0.930 . S
C341 C343 1.406 . S
C341 C346 1.261 . S
C342 H309 0.930 . S
C342 N344 1.325 . S
C342 C345 1.357 . S
C343 H311 0.928 . S
C343 C341 1.406 . S
C343 N344 1.261 . S
N344 Co295 2.214 . S
N344 C342 1.325 . S
N344 C343 1.261 . S
C345 H315 0.931 . S
C345 C342 1.357 . S
C345 C346 1.312 . S
C346 H317 0.930 . S
C346 C341 1.261 . S
C346 C345 1.312 . S
C347 O319 1.214 . S
C347 O327 1.234 . S
C348 H320 0.929 . S
C348 C351 1.391 . S
C348 C353 1.391 . S
C349 H321 0.929 . S
C349 C350 1.390 . S
C349 N352 1.391 . S
C350 H322 0.930 . S
C350 C349 1.390 . S
C350 C351 1.392 . S
C351 H323 0.929 . S
C351 C348 1.391 . S
C351 C350 1.392 . S
N352 Co296 2.257 . S
N352 C349 1.391 . S
N352 C353 1.388 . S
C353 H324 0.930 . S
C353 C348 1.391 . S
C353 N352 1.388 . S
Co354 O356 2.143 . S
Co354 O362 2.074 . S
Co354 O365 2.104 . S
Co354 O378 2.097 1_455 S
Co354 N395 2.151 . S
Co354 N403 2.214 . S
Co355 O356 2.160 1_655 S
Co355 O361 2.058 1_655 S
Co355 O371 2.057 1_655 S
Co355 O386 2.037 . S
Co355 N390 2.145 . S
Co355 N411 2.257 . S
O356 Co354 2.143 . S
O356 Co355 2.160 1_455 S
C357 O358 1.278 . S
C357 O365 1.214 1_655 S
O358 C357 1.278 . S
C359 O360 1.245 . S
C359 O371 1.232 . S
O360 C359 1.245 . S
O361 Co355 2.058 1_455 S
O361 C387 1.269 . S
O362 Co354 2.074 . S
O362 C387 1.257 . S
H363 C388 0.930 . S
H364 C394 0.930 . S
O365 Co354 2.104 . S
O365 C357 1.214 1_455 S
H366 C398 0.929 . S
H367 C400 0.930 . S
H368 C401 0.930 . S
H369 C399 0.929 . S
H370 C402 0.928 . S
O371 Co355 2.057 1_455 S
O371 C359 1.232 . S
H372 C391 0.929 . S
H373 C392 0.929 . S
H374 C404 0.931 . S
H375 C396 0.929 . S
H376 C405 0.930 . S
H377 C397 0.931 . S
O378 Co354 2.097 1_655 S
O378 C406 1.214 . S
H379 C407 0.929 . S
H380 C408 0.929 . S
H381 C409 0.930 . S
H382 C410 0.929 . S
H383 C412 0.930 . S
H384 C389 0.930 . S
H385 C393 0.930 . S
O386 Co355 2.037 . S
O386 C406 1.234 . S
C387 O361 1.269 . S
C387 O362 1.257 . S
C388 H363 0.930 . S
C388 C391 1.388 . S
C388 C393 1.418 . S
C389 H384 0.930 . S
C389 C392 1.404 . S
C389 C393 1.353 . S
N390 Co355 2.145 . S
N390 C391 1.397 . S
N390 C392 1.334 . S
C391 H372 0.929 . S
C391 C388 1.388 . S
C391 N390 1.397 . S
C392 H373 0.929 . S
C392 C389 1.404 . S
C392 N390 1.334 . S
C393 H385 0.930 . S
C393 C388 1.418 . S
C393 C389 1.353 . S
C394 H364 0.930 . S
C394 N395 1.330 . S
C394 C396 1.446 . S
N395 Co354 2.151 . S
N395 C394 1.330 . S
N395 C399 1.418 . S
C396 H375 0.929 . S
C396 C394 1.446 . S
C396 C397 1.332 . S
C397 H377 0.931 . S
C397 C396 1.332 . S
C397 C398 1.267 . S
C398 H366 0.929 . S
C398 C397 1.267 . S
C398 C399 1.251 . S
C399 H369 0.929 . S
C399 N395 1.418 . S
C399 C398 1.251 . S
C400 H367 0.930 . S
C400 C402 1.406 . S
C400 C405 1.261 . S
C401 H368 0.930 . S
C401 N403 1.325 . S
C401 C404 1.357 . S
C402 H370 0.928 . S
C402 C400 1.406 . S
C402 N403 1.261 . S
N403 Co354 2.214 . S
N403 C401 1.325 . S
N403 C402 1.261 . S
C404 H374 0.931 . S
C404 C401 1.357 . S
C404 C405 1.312 . S
C405 H376 0.930 . S
C405 C400 1.261 . S
C405 C404 1.312 . S
C406 O378 1.214 . S
C406 O386 1.234 . S
C407 H379 0.929 . S
C407 C410 1.391 . S
C407 C412 1.391 . S
C408 H380 0.929 . S
C408 C409 1.390 . S
C408 N411 1.391 . S
C409 H381 0.930 . S
C409 C408 1.390 . S
C409 C410 1.392 . S
C410 H382 0.929 . S
C410 C407 1.391 . S
C410 C409 1.392 . S
N411 Co355 2.257 . S
N411 C408 1.391 . S
N411 C412 1.388 . S
C412 H383 0.930 . S
C412 C407 1.391 . S
C412 N411 1.388 . S
Co413 O415 2.143 . S
Co413 O421 2.074 . S
Co413 O424 2.093 . S
Co413 O437 2.097 . S
Co413 N454 2.151 . S
Co413 N462 2.214 . S
Co414 O415 2.160 . S
Co414 O420 2.058 . S
Co414 O430 2.057 . S
Co414 O445 2.037 . S
Co414 N449 2.145 . S
Co414 N470 2.257 . S
O415 Co413 2.143 . S
O415 Co414 2.160 . S
C416 O417 1.278 . S
C416 O424 1.224 . S
O417 C416 1.278 . S
C418 O419 1.245 . S
C418 O430 1.232 . S
O419 C418 1.245 . S
O420 Co414 2.058 . S
O420 C446 1.269 . S
O421 Co413 2.074 . S
O421 C446 1.257 . S
H422 C447 0.930 . S
H423 C453 0.930 . S
O424 Co413 2.093 . S
O424 C416 1.224 . S
H425 C457 0.929 . S
H426 C459 0.930 . S
H427 C460 0.930 . S
H428 C458 0.929 . S
H429 C461 0.928 . S
O430 Co414 2.057 . S
O430 C418 1.232 . S
H431 C450 0.929 . S
H432 C451 0.929 . S
H433 C463 0.931 . S
H434 C455 0.929 . S
H435 C464 0.930 . S
H436 C456 0.931 . S
O437 Co413 2.097 . S
O437 C465 1.214 . S
H438 C466 0.929 . S
H439 C467 0.929 . S
H440 C468 0.930 . S
H441 C469 0.929 . S
H442 C471 0.930 . S
H443 C448 0.930 . S
H444 C452 0.930 . S
O445 Co414 2.037 . S
O445 C465 1.234 . S
C446 O420 1.269 . S
C446 O421 1.257 . S
C447 H422 0.930 . S
C447 C450 1.388 . S
C447 C452 1.418 . S
C448 H443 0.930 . S
C448 C451 1.404 . S
C448 C452 1.353 . S
N449 Co414 2.145 . S
N449 C450 1.397 . S
N449 C451 1.334 . S
C450 H431 0.929 . S
C450 C447 1.388 . S
C450 N449 1.397 . S
C451 H432 0.929 . S
C451 C448 1.404 . S
C451 N449 1.334 . S
C452 H444 0.930 . S
C452 C447 1.418 . S
C452 C448 1.353 . S
C453 H423 0.930 . S
C453 N454 1.330 . S
C453 C455 1.446 . S
N454 Co413 2.151 . S
N454 C453 1.330 . S
N454 C458 1.418 . S
C455 H434 0.929 . S
C455 C453 1.446 . S
C455 C456 1.332 . S
C456 H436 0.931 . S
C456 C455 1.332 . S
C456 C457 1.267 . S
C457 H425 0.929 . S
C457 C456 1.267 . S
C457 C458 1.251 . S
C458 H428 0.929 . S
C458 N454 1.418 . S
C458 C457 1.251 . S
C459 H426 0.930 . S
C459 C461 1.406 . S
C459 C464 1.261 . S
C460 H427 0.930 . S
C460 N462 1.325 . S
C460 C463 1.357 . S
C461 H429 0.928 . S
C461 C459 1.406 . S
C461 N462 1.261 . S
N462 Co413 2.214 . S
N462 C460 1.325 . S
N462 C461 1.261 . S
C463 H433 0.931 . S
C463 C460 1.357 . S
C463 C464 1.312 . S
C464 H435 0.930 . S
C464 C459 1.261 . S
C464 C463 1.312 . S
C465 O437 1.214 . S
C465 O445 1.234 . S
C466 H438 0.929 . S
C466 C469 1.391 . S
C466 C471 1.391 . S
C467 H439 0.929 . S
C467 C468 1.390 . S
C467 N470 1.391 . S
C468 H440 0.930 . S
C468 C467 1.390 . S
C468 C469 1.392 . S
C469 H441 0.929 . S
C469 C466 1.391 . S
C469 C468 1.392 . S
N470 Co414 2.257 . S
N470 C467 1.391 . S
N470 C471 1.388 . S
C471 H442 0.930 . S
C471 C466 1.391 . S
C471 N470 1.388 . S
Co472 O474 2.143 . S
Co472 O480 2.074 . S
Co472 O483 2.093 1_565 S
Co472 O496 2.097 1_565 S
Co472 N513 2.151 . S
Co472 N521 2.214 . S
Co473 O474 2.160 1_545 S
Co473 O479 2.058 1_545 S
Co473 O489 2.057 1_545 S
Co473 O504 2.037 . S
Co473 N508 2.145 . S
Co473 N529 2.257 . S
O474 Co472 2.143 . S
O474 Co473 2.160 1_565 S
C475 O476 1.278 . S
C475 O483 1.224 . S
O476 C475 1.278 . S
C477 O478 1.245 . S
C477 O489 1.232 . S
O478 C477 1.245 . S
O479 Co473 2.058 1_565 S
O479 C505 1.269 . S
O480 Co472 2.074 . S
O480 C505 1.257 . S
H481 C506 0.930 . S
H482 C512 0.930 . S
O483 Co472 2.093 1_545 S
O483 C475 1.224 . S
H484 C516 0.929 . S
H485 C518 0.930 . S
H486 C519 0.930 . S
H487 C517 0.929 . S
H488 C520 0.928 . S
O489 Co473 2.057 1_565 S
O489 C477 1.232 . S
H490 C509 0.929 . S
H491 C510 0.929 . S
H492 C522 0.931 . S
H493 C514 0.929 . S
H494 C523 0.930 . S
H495 C515 0.931 . S
O496 Co472 2.097 1_545 S
O496 C524 1.214 . S
H497 C525 0.929 . S
H498 C526 0.929 . S
H499 C527 0.930 . S
H500 C528 0.929 . S
H501 C530 0.930 . S
H502 C507 0.930 . S
H503 C511 0.930 . S
O504 Co473 2.037 . S
O504 C524 1.234 . S
C505 O479 1.269 . S
C505 O480 1.257 . S
C506 H481 0.930 . S
C506 C509 1.388 . S
C506 C511 1.418 . S
C507 H502 0.930 . S
C507 C510 1.404 . S
C507 C511 1.353 . S
N508 Co473 2.145 . S
N508 C509 1.397 . S
N508 C510 1.334 . S
C509 H490 0.929 . S
C509 C506 1.388 . S
C509 N508 1.397 . S
C510 H491 0.929 . S
C510 C507 1.404 . S
C510 N508 1.334 . S
C511 H503 0.930 . S
C511 C506 1.418 . S
C511 C507 1.353 . S
C512 H482 0.930 . S
C512 N513 1.330 . S
C512 C514 1.446 . S
N513 Co472 2.151 . S
N513 C512 1.330 . S
N513 C517 1.418 . S
C514 H493 0.929 . S
C514 C512 1.446 . S
C514 C515 1.332 . S
C515 H495 0.931 . S
C515 C514 1.332 . S
C515 C516 1.267 . S
C516 H484 0.929 . S
C516 C515 1.267 . S
C516 C517 1.251 . S
C517 H487 0.929 . S
C517 N513 1.418 . S
C517 C516 1.251 . S
C518 H485 0.930 . S
C518 C520 1.406 . S
C518 C523 1.261 . S
C519 H486 0.930 . S
C519 N521 1.325 . S
C519 C522 1.357 . S
C520 H488 0.928 . S
C520 C518 1.406 . S
C520 N521 1.261 . S
N521 Co472 2.214 . S
N521 C519 1.325 . S
N521 C520 1.261 . S
C522 H492 0.931 . S
C522 C519 1.357 . S
C522 C523 1.312 . S
C523 H494 0.930 . S
C523 C518 1.261 . S
C523 C522 1.312 . S
C524 O496 1.214 . S
C524 O504 1.234 . S
C525 H497 0.929 . S
C525 C528 1.391 . S
C525 C530 1.391 . S
C526 H498 0.929 . S
C526 C527 1.390 . S
C526 N529 1.391 . S
C527 H499 0.930 . S
C527 C526 1.390 . S
C527 C528 1.392 . S
C528 H500 0.929 . S
C528 C525 1.391 . S
C528 C527 1.392 . S
N529 Co473 2.257 . S
N529 C526 1.391 . S
N529 C530 1.388 . S
C530 H501 0.930 . S
C530 C525 1.391 . S
C530 N529 1.388 . S
Co531 O533 2.143 . S
Co531 O539 2.074 . S
Co531 O542 2.093 . S
Co531 O555 2.097 . S
Co531 N572 2.151 . S
Co531 N580 2.214 . S
Co532 O533 2.160 . S
Co532 O538 2.058 . S
Co532 O548 2.057 . S
Co532 O563 2.037 . S
Co532 N567 2.145 . S
Co532 N588 2.257 . S
O533 Co531 2.143 . S
O533 Co532 2.160 . S
C534 O535 1.278 . S
C534 O542 1.224 . S
O535 C534 1.278 . S
C536 O537 1.245 . S
C536 O548 1.232 . S
O537 C536 1.245 . S
O538 Co532 2.058 . S
O538 C564 1.269 . S
O539 Co531 2.074 . S
O539 C564 1.257 . S
H540 C565 0.930 . S
H541 C571 0.930 . S
O542 Co531 2.093 . S
O542 C534 1.224 . S
H543 C575 0.929 . S
H544 C577 0.930 . S
H545 C578 0.930 . S
H546 C576 0.929 . S
H547 C579 0.928 . S
O548 Co532 2.057 . S
O548 C536 1.232 . S
H549 C568 0.929 . S
H550 C569 0.929 . S
H551 C581 0.931 . S
H552 C573 0.929 . S
H553 C582 0.930 . S
H554 C574 0.931 . S
O555 Co531 2.097 . S
O555 C583 1.214 . S
H556 C584 0.929 . S
H557 C585 0.929 . S
H558 C586 0.930 . S
H559 C587 0.929 . S
H560 C589 0.930 . S
H561 C566 0.930 . S
H562 C570 0.930 . S
O563 Co532 2.037 . S
O563 C583 1.234 . S
C564 O538 1.269 . S
C564 O539 1.257 . S
C565 H540 0.930 . S
C565 C568 1.388 . S
C565 C570 1.418 . S
C566 H561 0.930 . S
C566 C569 1.404 . S
C566 C570 1.353 . S
N567 Co532 2.145 . S
N567 C568 1.397 . S
N567 C569 1.334 . S
C568 H549 0.929 . S
C568 C565 1.388 . S
C568 N567 1.397 . S
C569 H550 0.929 . S
C569 C566 1.404 . S
C569 N567 1.334 . S
C570 H562 0.930 . S
C570 C565 1.418 . S
C570 C566 1.353 . S
C571 H541 0.930 . S
C571 N572 1.330 . S
C571 C573 1.446 . S
N572 Co531 2.151 . S
N572 C571 1.330 . S
N572 C576 1.418 . S
C573 H552 0.929 . S
C573 C571 1.446 . S
C573 C574 1.332 . S
C574 H554 0.931 . S
C574 C573 1.332 . S
C574 C575 1.267 . S
C575 H543 0.929 . S
C575 C574 1.267 . S
C575 C576 1.251 . S
C576 H546 0.929 . S
C576 N572 1.418 . S
C576 C575 1.251 . S
C577 H544 0.930 . S
C577 C579 1.406 . S
C577 C582 1.261 . S
C578 H545 0.930 . S
C578 N580 1.325 . S
C578 C581 1.357 . S
C579 H547 0.928 . S
C579 C577 1.406 . S
C579 N580 1.261 . S
N580 Co531 2.214 . S
N580 C578 1.325 . S
N580 C579 1.261 . S
C581 H551 0.931 . S
C581 C578 1.357 . S
C581 C582 1.312 . S
C582 H553 0.930 . S
C582 C577 1.261 . S
C582 C581 1.312 . S
C583 O555 1.214 . S
C583 O563 1.234 . S
C584 H556 0.929 . S
C584 C587 1.391 . S
C584 C589 1.391 . S
C585 H557 0.929 . S
C585 C586 1.390 . S
C585 N588 1.391 . S
C586 H558 0.930 . S
C586 C585 1.390 . S
C586 C587 1.392 . S
C587 H559 0.929 . S
C587 C584 1.391 . S
C587 C586 1.392 . S
N588 Co532 2.257 . S
N588 C585 1.391 . S
N588 C589 1.388 . S
C589 H560 0.930 . S
C589 C584 1.391 . S
C589 N588 1.388 . S
Co590 O592 2.143 . S
Co590 O598 2.074 . S
Co590 O601 2.093 . S
Co590 O614 2.097 . S
Co590 N631 2.151 . S
Co590 N639 2.214 . S
Co591 O592 2.160 . S
Co591 O597 2.054 1_545 S
Co591 O607 2.057 . S
Co591 O622 2.037 . S
Co591 N626 2.145 . S
Co591 N647 2.257 . S
O592 Co590 2.143 . S
O592 Co591 2.160 . S
C593 O594 1.278 . S
C593 O601 1.224 . S
O594 C593 1.278 . S
C595 O596 1.245 . S
C595 O607 1.232 . S
O596 C595 1.245 . S
O597 Co591 2.054 1_565 S
O597 C623 1.272 . S
O598 Co590 2.074 . S
O598 C623 1.257 1_545 S
H599 C624 0.930 . S
H600 C630 0.930 . S
O601 Co590 2.093 . S
O601 C593 1.224 . S
H602 C634 0.929 . S
H603 C636 0.930 . S
H604 C637 0.930 . S
H605 C635 0.929 . S
H606 C638 0.928 . S
O607 Co591 2.057 . S
O607 C595 1.232 . S
H608 C627 0.929 . S
H609 C628 0.929 . S
H610 C640 0.931 . S
H611 C632 0.929 . S
H612 C641 0.930 1_565 S
H613 C633 0.931 . S
O614 Co590 2.097 . S
O614 C642 1.214 . S
H615 C643 0.929 . S
H616 C644 0.929 . S
H617 C645 0.930 . S
H618 C646 0.929 . S
H619 C648 0.930 . S
H620 C625 0.930 . S
H621 C629 0.930 . S
O622 Co591 2.037 . S
O622 C642 1.234 . S
C623 O597 1.272 . S
C623 O598 1.257 1_565 S
C624 H599 0.930 . S
C624 C627 1.388 . S
C624 C629 1.418 . S
C625 H620 0.930 . S
C625 C628 1.404 . S
C625 C629 1.353 1_545 S
N626 Co591 2.145 . S
N626 C627 1.397 1_545 S
N626 C628 1.334 . S
C627 H608 0.929 . S
C627 C624 1.388 . S
C627 N626 1.397 1_565 S
C628 H609 0.929 . S
C628 C625 1.404 . S
C628 N626 1.334 . S
C629 H621 0.930 . S
C629 C624 1.418 . S
C629 C625 1.353 1_565 S
C630 H600 0.930 . S
C630 N631 1.330 . S
C630 C632 1.446 . S
N631 Co590 2.151 . S
N631 C630 1.330 . S
N631 C635 1.418 . S
C632 H611 0.929 . S
C632 C630 1.446 . S
C632 C633 1.332 . S
C633 H613 0.931 . S
C633 C632 1.332 . S
C633 C634 1.267 . S
C634 H602 0.929 . S
C634 C633 1.267 . S
C634 C635 1.251 . S
C635 H605 0.929 . S
C635 N631 1.418 . S
C635 C634 1.251 . S
C636 H603 0.930 . S
C636 C638 1.406 . S
C636 C641 1.261 . S
C637 H604 0.930 . S
C637 N639 1.325 . S
C637 C640 1.357 1_545 S
C638 H606 0.928 . S
C638 C636 1.406 . S
C638 N639 1.261 . S
N639 Co590 2.214 . S
N639 C637 1.325 . S
N639 C638 1.261 . S
C640 H610 0.931 . S
C640 C637 1.357 1_565 S
C640 C641 1.312 1_565 S
C641 H612 0.930 1_545 S
C641 C636 1.261 . S
C641 C640 1.312 1_545 S
C642 O614 1.214 . S
C642 O622 1.234 . S
C643 H615 0.929 . S
C643 C646 1.391 . S
C643 C648 1.391 . S
C644 H616 0.929 . S
C644 C645 1.390 . S
C644 N647 1.391 . S
C645 H617 0.930 . S
C645 C644 1.390 . S
C645 C646 1.392 . S
C646 H618 0.929 . S
C646 C643 1.391 . S
C646 C645 1.392 . S
N647 Co591 2.257 . S
N647 C644 1.391 . S
N647 C648 1.388 . S
C648 H619 0.930 . S
C648 C643 1.391 . S
C648 N647 1.388 . S
Co649 O651 2.143 . S
Co649 O657 2.074 . S
Co649 O660 2.093 1_655 S
Co649 O673 2.097 . S
Co649 N690 2.151 . S
Co649 N698 2.214 . S
Co650 O651 2.160 . S
Co650 O656 2.058 . S
Co650 O666 2.057 . S
Co650 O681 2.037 . S
Co650 N685 2.145 . S
Co650 N706 2.257 . S
O651 Co649 2.143 . S
O651 Co650 2.160 . S
C652 O653 1.278 . S
C652 O660 1.224 . S
O653 C652 1.278 . S
C654 O655 1.245 . S
C654 O666 1.232 . S
O655 C654 1.245 . S
O656 Co650 2.058 . S
O656 C682 1.269 . S
O657 Co649 2.074 . S
O657 C682 1.257 . S
H658 C683 0.930 . S
H659 C689 0.930 1_455 S
O660 Co649 2.093 1_455 S
O660 C652 1.224 . S
H661 C693 0.929 . S
H662 C695 0.930 . S
H663 C696 0.930 . S
H664 C694 0.929 . S
H665 C697 0.928 . S
O666 Co650 2.057 . S
O666 C654 1.232 . S
H667 C686 0.929 . S
H668 C687 0.929 . S
H669 C699 0.931 . S
H670 C691 0.929 1_455 S
H671 C700 0.930 . S
H672 C692 0.931 . S
O673 Co649 2.097 . S
O673 C701 1.214 . S
H674 C702 0.929 . S
H675 C703 0.929 . S
H676 C704 0.935 . S
H677 C705 0.929 . S
H678 C707 0.930 . S
H679 C684 0.930 . S
H680 C688 0.930 . S
O681 Co650 2.037 . S
O681 C701 1.234 . S
C682 O656 1.269 . S
C682 O657 1.257 . S
C683 H658 0.930 . S
C683 C686 1.388 . S
C683 C688 1.418 . S
C684 H679 0.930 . S
C684 C687 1.404 . S
C684 C688 1.353 . S
N685 Co650 2.145 . S
N685 C686 1.397 . S
N685 C687 1.334 . S
C686 H667 0.929 . S
C686 C683 1.388 . S
C686 N685 1.397 . S
C687 H668 0.929 . S
C687 C684 1.404 . S
C687 N685 1.334 . S
C688 H680 0.930 . S
C688 C683 1.418 . S
C688 C684 1.353 . S
C689 H659 0.930 1_655 S
C689 N690 1.330 . S
C689 C691 1.446 . S
N690 Co649 2.151 . S
N690 C689 1.330 . S
N690 C694 1.418 . S
C691 H670 0.929 1_655 S
C691 C689 1.446 . S
C691 C692 1.332 . S
C692 H672 0.931 . S
C692 C691 1.332 . S
C692 C693 1.267 . S
C693 H661 0.929 . S
C693 C692 1.267 . S
C693 C694 1.251 . S
C694 H664 0.929 . S
C694 N690 1.418 . S
C694 C693 1.251 . S
C695 H662 0.930 . S
C695 C697 1.406 . S
C695 C700 1.261 . S
C696 H663 0.930 . S
C696 N698 1.325 . S
C696 C699 1.357 . S
C697 H665 0.928 . S
C697 C695 1.406 . S
C697 N698 1.261 . S
N698 Co649 2.214 . S
N698 C696 1.325 . S
N698 C697 1.261 . S
C699 H669 0.931 . S
C699 C696 1.357 . S
C699 C700 1.312 . S
C700 H671 0.930 . S
C700 C695 1.261 . S
C700 C699 1.312 . S
C701 O673 1.214 . S
C701 O681 1.234 . S
C702 H674 0.929 . S
C702 C705 1.391 . S
C702 C707 1.391 . S
C703 H675 0.929 . S
C703 C704 1.390 1_655 S
C703 N706 1.391 . S
C704 H676 0.935 . S
C704 C703 1.390 1_455 S
C704 C705 1.392 . S
C705 H677 0.929 . S
C705 C702 1.391 . S
C705 C704 1.392 . S
N706 Co650 2.257 . S
N706 C703 1.391 . S
N706 C707 1.388 1_655 S
C707 H678 0.930 . S
C707 C702 1.391 . S
C707 N706 1.388 1_455 S
Co708 O710 2.143 . S
Co708 O716 2.074 . S
Co708 O719 2.093 . S
Co708 O732 2.097 . S
Co708 N749 2.151 . S
Co708 N757 2.214 . S
Co709 O710 2.160 . S
Co709 O715 2.058 . S
Co709 O725 2.057 . S
Co709 O740 2.037 . S
Co709 N744 2.145 . S
Co709 N765 2.257 . S
O710 Co708 2.143 . S
O710 Co709 2.160 . S
C711 O712 1.278 . S
C711 O719 1.224 . S
O712 C711 1.278 . S
C713 O714 1.245 . S
C713 O725 1.232 . S
O714 C713 1.245 . S
O715 Co709 2.058 . S
O715 C741 1.269 . S
O716 Co708 2.074 . S
O716 C741 1.257 . S
H717 C742 0.930 . S
H718 C748 0.930 . S
O719 Co708 2.093 . S
O719 C711 1.224 . S
H720 C752 0.929 . S
H721 C754 0.930 . S
H722 C755 0.930 . S
H723 C753 0.929 . S
H724 C756 0.928 . S
O725 Co709 2.057 . S
O725 C713 1.232 . S
H726 C745 0.929 . S
H727 C746 0.929 . S
H728 C758 0.931 . S
H729 C750 0.929 . S
H730 C759 0.930 . S
H731 C751 0.931 . S
O732 Co708 2.097 . S
O732 C760 1.214 . S
H733 C761 0.929 . S
H734 C762 0.929 . S
H735 C763 0.930 . S
H736 C764 0.929 . S
H737 C766 0.930 . S
H738 C743 0.930 . S
H739 C747 0.930 . S
O740 Co709 2.037 . S
O740 C760 1.234 . S
C741 O715 1.269 . S
C741 O716 1.257 . S
C742 H717 0.930 . S
C742 C745 1.388 . S
C742 C747 1.418 . S
C743 H738 0.930 . S
C743 C746 1.404 . S
C743 C747 1.353 . S
N744 Co709 2.145 . S
N744 C745 1.397 . S
N744 C746 1.334 . S
C745 H726 0.929 . S
C745 C742 1.388 . S
C745 N744 1.397 . S
C746 H727 0.929 . S
C746 C743 1.404 . S
C746 N744 1.334 . S
C747 H739 0.930 . S
C747 C742 1.418 . S
C747 C743 1.353 . S
C748 H718 0.930 . S
C748 N749 1.330 . S
C748 C750 1.446 . S
N749 Co708 2.151 . S
N749 C748 1.330 . S
N749 C753 1.418 . S
C750 H729 0.929 . S
C750 C748 1.446 . S
C750 C751 1.332 . S
C751 H731 0.931 . S
C751 C750 1.332 . S
C751 C752 1.267 . S
C752 H720 0.929 . S
C752 C751 1.267 . S
C752 C753 1.251 . S
C753 H723 0.929 . S
C753 N749 1.418 . S
C753 C752 1.251 . S
C754 H721 0.930 . S
C754 C756 1.406 . S
C754 C759 1.261 . S
C755 H722 0.930 . S
C755 N757 1.325 . S
C755 C758 1.357 . S
C756 H724 0.928 . S
C756 C754 1.406 . S
C756 N757 1.261 . S
N757 Co708 2.214 . S
N757 C755 1.325 . S
N757 C756 1.261 . S
C758 H728 0.931 . S
C758 C755 1.357 . S
C758 C759 1.312 . S
C759 H730 0.930 . S
C759 C754 1.261 . S
C759 C758 1.312 . S
C760 O732 1.214 . S
C760 O740 1.234 . S
C761 H733 0.929 . S
C761 C764 1.391 . S
C761 C766 1.391 . S
C762 H734 0.929 . S
C762 C763 1.390 . S
C762 N765 1.391 . S
C763 H735 0.930 . S
C763 C762 1.390 . S
C763 C764 1.392 . S
C764 H736 0.929 . S
C764 C761 1.391 . S
C764 C763 1.392 . S
N765 Co709 2.257 . S
N765 C762 1.391 . S
N765 C766 1.388 . S
C766 H737 0.930 . S
C766 C761 1.391 . S
C766 N765 1.388 . S
Co767 O769 2.143 . S
Co767 O775 2.074 . S
Co767 O778 2.093 . S
Co767 O791 2.097 . S
Co767 N808 2.151 . S
Co767 N816 2.214 . S
Co768 O769 2.160 . S
Co768 O774 2.058 . S
Co768 O784 2.057 . S
Co768 O799 2.037 . S
Co768 N803 2.145 . S
Co768 N824 2.257 . S
O769 Co767 2.143 . S
O769 Co768 2.160 . S
C770 O771 1.278 . S
C770 O778 1.224 . S
O771 C770 1.278 . S
C772 O773 1.245 . S
C772 O784 1.232 . S
O773 C772 1.245 . S
O774 Co768 2.058 . S
O774 C800 1.269 . S
O775 Co767 2.074 . S
O775 C800 1.257 . S
H776 C801 0.930 . S
H777 C807 0.930 . S
O778 Co767 2.093 . S
O778 C770 1.224 . S
H779 C811 0.929 . S
H780 C813 0.930 . S
H781 C814 0.930 . S
H782 C812 0.929 . S
H783 C815 0.928 . S
O784 Co768 2.057 . S
O784 C772 1.232 . S
H785 C804 0.929 . S
H786 C805 0.929 . S
H787 C817 0.931 . S
H788 C809 0.929 . S
H789 C818 0.930 . S
H790 C810 0.931 . S
O791 Co767 2.097 . S
O791 C819 1.214 . S
H792 C820 0.929 . S
H793 C821 0.929 . S
H794 C822 0.930 . S
H795 C823 0.929 . S
H796 C825 0.930 . S
H797 C802 0.930 . S
H798 C806 0.930 1_545 S
O799 Co768 2.037 . S
O799 C819 1.234 . S
C800 O774 1.269 . S
C800 O775 1.257 . S
C801 H776 0.930 . S
C801 C804 1.388 1_545 S
C801 C806 1.418 1_545 S
C802 H797 0.930 . S
C802 C805 1.404 . S
C802 C806 1.353 . S
N803 Co768 2.145 . S
N803 C804 1.397 . S
N803 C805 1.334 . S
C804 H785 0.929 . S
C804 C801 1.388 1_565 S
C804 N803 1.397 . S
C805 H786 0.929 . S
C805 C802 1.404 . S
C805 N803 1.334 . S
C806 H798 0.930 1_565 S
C806 C801 1.418 1_565 S
C806 C802 1.353 . S
C807 H777 0.930 . S
C807 N808 1.330 . S
C807 C809 1.446 . S
N808 Co767 2.151 . S
N808 C807 1.330 . S
N808 C812 1.418 . S
C809 H788 0.929 . S
C809 C807 1.446 . S
C809 C810 1.332 . S
C810 H790 0.931 . S
C810 C809 1.332 . S
C810 C811 1.267 . S
C811 H779 0.929 . S
C811 C810 1.267 . S
C811 C812 1.251 . S
C812 H782 0.929 . S
C812 N808 1.418 . S
C812 C811 1.251 . S
C813 H780 0.930 . S
C813 C815 1.406 . S
C813 C818 1.261 . S
C814 H781 0.930 . S
C814 N816 1.325 . S
C814 C817 1.357 . S
C815 H783 0.928 . S
C815 C813 1.406 . S
C815 N816 1.261 . S
N816 Co767 2.214 . S
N816 C814 1.325 . S
N816 C815 1.261 . S
C817 H787 0.931 . S
C817 C814 1.357 . S
C817 C818 1.312 . S
C818 H789 0.930 . S
C818 C813 1.261 . S
C818 C817 1.312 . S
C819 O791 1.214 . S
C819 O799 1.234 . S
C820 H792 0.929 . S
C820 C823 1.391 . S
C820 C825 1.391 . S
C821 H793 0.929 . S
C821 C822 1.390 . S
C821 N824 1.391 . S
C822 H794 0.930 . S
C822 C821 1.390 . S
C822 C823 1.392 . S
C823 H795 0.929 . S
C823 C820 1.391 . S
C823 C822 1.392 . S
N824 Co768 2.257 . S
N824 C821 1.391 . S
N824 C825 1.388 . S
C825 H796 0.930 . S
C825 C820 1.391 . S
C825 N824 1.388 . S
Co826 O828 2.143 . S
Co826 O834 2.074 . S
Co826 O837 2.093 . S
Co826 O850 2.097 . S
Co826 N867 2.151 . S
Co826 N875 2.214 . S
Co827 O828 2.160 . S
Co827 O833 2.058 . S
Co827 O843 2.057 . S
Co827 O858 2.037 . S
Co827 N862 2.145 . S
Co827 N883 2.257 . S
O828 Co826 2.143 . S
O828 Co827 2.160 . S
C829 O830 1.278 . S
C829 O837 1.224 . S
O830 C829 1.278 . S
C831 O832 1.245 . S
C831 O843 1.232 . S
O832 C831 1.245 . S
O833 Co827 2.058 . S
O833 C859 1.269 . S
O834 Co826 2.074 . S
O834 C859 1.257 . S
H835 C860 0.930 . S
H836 C866 0.930 . S
O837 Co826 2.093 . S
O837 C829 1.224 . S
H838 C870 0.929 . S
H839 C872 0.930 . S
H840 C873 0.930 . S
H841 C871 0.929 . S
H842 C874 0.928 . S
O843 Co827 2.057 . S
O843 C831 1.232 . S
H844 C863 0.929 . S
H845 C864 0.929 . S
H846 C876 0.931 . S
H847 C868 0.929 . S
H848 C877 0.930 . S
H849 C869 0.931 . S
O850 Co826 2.097 . S
O850 C878 1.214 . S
H851 C879 0.929 . S
H852 C880 0.929 . S
H853 C881 0.930 . S
H854 C882 0.929 . S
H855 C884 0.930 . S
H856 C861 0.930 . S
H857 C865 0.930 1_655 S
O858 Co827 2.037 . S
O858 C878 1.234 . S
C859 O833 1.269 . S
C859 O834 1.257 . S
C860 H835 0.930 . S
C860 C863 1.388 1_655 S
C860 C865 1.418 1_655 S
C861 H856 0.930 . S
C861 C864 1.404 . S
C861 C865 1.353 . S
N862 Co827 2.145 . S
N862 C863 1.397 . S
N862 C864 1.334 . S
C863 H844 0.929 . S
C863 C860 1.388 1_455 S
C863 N862 1.397 . S
C864 H845 0.929 . S
C864 C861 1.404 . S
C864 N862 1.334 . S
C865 H857 0.930 1_455 S
C865 C860 1.418 1_455 S
C865 C861 1.353 . S
C866 H836 0.930 . S
C866 N867 1.330 . S
C866 C868 1.446 . S
N867 Co826 2.151 . S
N867 C866 1.330 . S
N867 C871 1.418 . S
C868 H847 0.929 . S
C868 C866 1.446 . S
C868 C869 1.332 . S
C869 H849 0.931 . S
C869 C868 1.332 . S
C869 C870 1.267 . S
C870 H838 0.929 . S
C870 C869 1.267 . S
C870 C871 1.251 . S
C871 H841 0.929 . S
C871 N867 1.418 . S
C871 C870 1.251 . S
C872 H839 0.930 . S
C872 C874 1.406 . S
C872 C877 1.261 . S
C873 H840 0.930 . S
C873 N875 1.325 . S
C873 C876 1.357 . S
C874 H842 0.928 . S
C874 C872 1.406 . S
C874 N875 1.261 . S
N875 Co826 2.214 . S
N875 C873 1.325 . S
N875 C874 1.261 . S
C876 H846 0.931 . S
C876 C873 1.357 . S
C876 C877 1.312 . S
C877 H848 0.930 . S
C877 C872 1.261 . S
C877 C876 1.312 . S
C878 O850 1.214 . S
C878 O858 1.234 . S
C879 H851 0.929 . S
C879 C882 1.391 . S
C879 C884 1.391 . S
C880 H852 0.929 . S
C880 C881 1.390 . S
C880 N883 1.391 . S
C881 H853 0.930 . S
C881 C880 1.390 . S
C881 C882 1.392 . S
C882 H854 0.929 . S
C882 C879 1.391 . S
C882 C881 1.392 . S
N883 Co827 2.257 . S
N883 C880 1.391 . S
N883 C884 1.388 . S
C884 H855 0.930 . S
C884 C879 1.391 . S
C884 N883 1.388 . S
Co885 O887 2.143 . S
Co885 O893 2.074 . S
Co885 O896 2.093 . S
Co885 O909 2.097 1_655 S
Co885 N926 2.151 . S
Co885 N934 2.214 . S
Co886 O887 2.160 . S
Co886 O892 2.058 . S
Co886 O902 2.057 . S
Co886 O917 2.037 1_655 S
Co886 N921 2.145 1_655 S
Co886 N942 2.257 1_655 S
O887 Co885 2.143 . S
O887 Co886 2.160 . S
C888 O889 1.278 . S
C888 O896 1.224 1_455 S
O889 C888 1.278 . S
C890 O891 1.245 . S
C890 O902 1.232 . S
O891 C890 1.245 . S
O892 Co886 2.058 . S
O892 C918 1.269 . S
O893 Co885 2.074 . S
O893 C918 1.257 . S
H894 C919 0.930 . S
H895 C925 0.930 . S
O896 Co885 2.093 . S
O896 C888 1.224 1_655 S
H897 C929 0.929 . S
H898 C931 0.930 . S
H899 C932 0.930 . S
H900 C930 0.929 . S
H901 C933 0.928 . S
O902 Co886 2.057 . S
O902 C890 1.232 . S
H903 C922 0.929 . S
H904 C923 0.929 . S
H905 C935 0.931 . S
H906 C927 0.929 . S
H907 C936 0.930 . S
H908 C928 0.931 . S
O909 Co885 2.097 1_455 S
O909 C937 1.214 . S
H910 C938 0.929 . S
H911 C939 0.929 . S
H912 C940 0.930 . S
H913 C941 0.929 . S
H914 C943 0.930 . S
H915 C920 0.930 . S
H916 C924 0.930 . S
O917 Co886 2.037 1_455 S
O917 C937 1.234 . S
C918 O892 1.269 . S
C918 O893 1.257 . S
C919 H894 0.930 . S
C919 C922 1.388 . S
C919 C924 1.418 . S
C920 H915 0.930 . S
C920 C923 1.404 . S
C920 C924 1.353 . S
N921 Co886 2.145 1_455 S
N921 C922 1.397 . S
N921 C923 1.334 . S
C922 H903 0.929 . S
C922 C919 1.388 . S
C922 N921 1.397 . S
C923 H904 0.929 . S
C923 C920 1.404 . S
C923 N921 1.334 . S
C924 H916 0.930 . S
C924 C919 1.418 . S
C924 C920 1.353 . S
C925 H895 0.930 . S
C925 N926 1.330 . S
C925 C927 1.446 . S
N926 Co885 2.151 . S
N926 C925 1.330 . S
N926 C930 1.418 . S
C927 H906 0.929 . S
C927 C925 1.446 . S
C927 C928 1.332 . S
C928 H908 0.931 . S
C928 C927 1.332 . S
C928 C929 1.267 . S
C929 H897 0.929 . S
C929 C928 1.267 . S
C929 C930 1.251 . S
C930 H900 0.929 . S
C930 N926 1.418 . S
C930 C929 1.251 . S
C931 H898 0.930 . S
C931 C933 1.406 . S
C931 C936 1.261 . S
C932 H899 0.930 . S
C932 N934 1.325 . S
C932 C935 1.357 . S
C933 H901 0.928 . S
C933 C931 1.406 . S
C933 N934 1.261 . S
N934 Co885 2.214 . S
N934 C932 1.325 . S
N934 C933 1.261 . S
C935 H905 0.931 . S
C935 C932 1.357 . S
C935 C936 1.312 . S
C936 H907 0.930 . S
C936 C931 1.261 . S
C936 C935 1.312 . S
C937 O909 1.214 . S
C937 O917 1.234 . S
C938 H910 0.929 . S
C938 C941 1.391 . S
C938 C943 1.391 . S
C939 H911 0.929 . S
C939 C940 1.390 . S
C939 N942 1.391 . S
C940 H912 0.930 . S
C940 C939 1.390 . S
C940 C941 1.392 . S
C941 H913 0.929 . S
C941 C938 1.391 . S
C941 C940 1.392 . S
N942 Co886 2.257 1_455 S
N942 C939 1.391 . S
N942 C943 1.388 . S
C943 H914 0.930 . S
C943 C938 1.391 . S
C943 N942 1.388 . S
Co944 O946 2.143 . S
Co944 O952 2.074 . S
Co944 O955 2.093 . S
Co944 O968 2.097 . S
Co944 N985 2.151 . S
Co944 N993 2.214 . S
Co945 O946 2.160 . S
Co945 O951 2.058 . S
Co945 O961 2.057 . S
Co945 O976 2.037 . S
Co945 N980 2.145 . S
Co945 N1001 2.257 . S
O946 Co944 2.143 . S
O946 Co945 2.160 . S
C947 O948 1.278 . S
C947 O955 1.224 . S
O948 C947 1.278 . S
C949 O950 1.245 . S
C949 O961 1.232 . S
O950 C949 1.245 . S
O951 Co945 2.058 . S
O951 C977 1.269 . S
O952 Co944 2.074 . S
O952 C977 1.257 . S
H953 C978 0.930 . S
H954 C984 0.930 . S
O955 Co944 2.093 . S
O955 C947 1.224 . S
H956 C988 0.929 . S
H957 C990 0.930 . S
H958 C991 0.930 . S
H959 C989 0.929 . S
H960 C992 0.928 . S
O961 Co945 2.057 . S
O961 C949 1.232 . S
H962 C981 0.929 . S
H963 C982 0.929 . S
H964 C994 0.931 . S
H965 C986 0.929 . S
H966 C995 0.930 . S
H967 C987 0.931 . S
O968 Co944 2.097 . S
O968 C996 1.214 . S
H969 C997 0.929 . S
H970 C998 0.929 . S
H971 C999 0.930 . S
H972 C1000 0.929 . S
H973 C1002 0.930 . S
H974 C979 0.930 . S
H975 C983 0.930 . S
O976 Co945 2.037 . S
O976 C996 1.234 . S
C977 O951 1.269 . S
C977 O952 1.257 . S
C978 H953 0.930 . S
C978 C981 1.388 . S
C978 C983 1.418 . S
C979 H974 0.930 . S
C979 C982 1.404 . S
C979 C983 1.353 . S
N980 Co945 2.145 . S
N980 C981 1.397 . S
N980 C982 1.334 . S
C981 H962 0.929 . S
C981 C978 1.388 . S
C981 N980 1.397 . S
C982 H963 0.929 . S
C982 C979 1.404 . S
C982 N980 1.334 . S
C983 H975 0.930 . S
C983 C978 1.418 . S
C983 C979 1.353 . S
C984 H954 0.930 . S
C984 N985 1.330 . S
C984 C986 1.446 . S
N985 Co944 2.151 . S
N985 C984 1.330 . S
N985 C989 1.418 . S
C986 H965 0.929 . S
C986 C984 1.446 . S
C986 C987 1.332 . S
C987 H967 0.931 . S
C987 C986 1.332 . S
C987 C988 1.267 . S
C988 H956 0.929 . S
C988 C987 1.267 . S
C988 C989 1.251 . S
C989 H959 0.929 . S
C989 N985 1.418 . S
C989 C988 1.251 . S
C990 H957 0.930 . S
C990 C992 1.406 . S
C990 C995 1.261 . S
C991 H958 0.930 . S
C991 N993 1.325 . S
C991 C994 1.357 . S
C992 H960 0.928 . S
C992 C990 1.406 . S
C992 N993 1.261 . S
N993 Co944 2.214 . S
N993 C991 1.325 . S
N993 C992 1.261 . S
C994 H964 0.931 . S
C994 C991 1.357 . S
C994 C995 1.312 . S
C995 H966 0.930 . S
C995 C990 1.261 . S
C995 C994 1.312 . S
C996 O968 1.214 . S
C996 O976 1.234 . S
C997 H969 0.929 . S
C997 C1000 1.391 . S
C997 C1002 1.391 . S
C998 H970 0.929 . S
C998 C999 1.390 . S
C998 N1001 1.391 . S
C999 H971 0.930 . S
C999 C998 1.390 . S
C999 C1000 1.392 . S
C1000 H972 0.929 . S
C1000 C997 1.391 . S
C1000 C999 1.392 . S
N1001 Co945 2.257 . S
N1001 C998 1.391 . S
N1001 C1002 1.388 . S
C1002 H973 0.930 . S
C1002 C997 1.391 . S
C1002 N1001 1.388 . S
Co1003 O1005 2.143 . S
Co1003 O1011 2.074 . S
Co1003 O1014 2.093 . S
Co1003 O1027 2.097 . S
Co1003 N1044 2.151 . S
Co1003 N1052 2.214 . S
Co1004 O1005 2.160 1_565 S
Co1004 O1010 2.058 . S
Co1004 O1020 2.057 . S
Co1004 O1035 2.037 1_565 S
Co1004 N1039 2.145 . S
Co1004 N1060 2.257 . S
O1005 Co1003 2.143 . S
O1005 Co1004 2.160 1_545 S
C1006 O1007 1.278 . S
C1006 O1014 1.224 . S
O1007 C1006 1.278 . S
C1008 O1009 1.245 . S
C1008 O1020 1.232 . S
O1009 C1008 1.245 . S
O1010 Co1004 2.058 . S
O1010 C1036 1.269 . S
O1011 Co1003 2.074 . S
O1011 C1036 1.257 1_545 S
H1012 C1037 0.930 . S
H1013 C1043 0.930 . S
O1014 Co1003 2.093 . S
O1014 C1006 1.224 . S
H1015 C1047 0.929 . S
H1016 C1049 0.930 . S
H1017 C1050 0.930 . S
H1018 C1048 0.929 . S
H1019 C1051 0.928 . S
O1020 Co1004 2.057 . S
O1020 C1008 1.232 . S
H1021 C1040 0.929 . S
H1022 C1041 0.929 . S
H1023 C1053 0.931 . S
H1024 C1045 0.929 . S
H1025 C1054 0.930 . S
H1026 C1046 0.931 . S
O1027 Co1003 2.097 . S
O1027 C1055 1.214 . S
H1028 C1056 0.929 . S
H1029 C1057 0.929 . S
H1030 C1058 0.930 . S
H1031 C1059 0.929 . S
H1032 C1061 0.930 . S
H1033 C1038 0.930 . S
H1034 C1042 0.930 . S
O1035 Co1004 2.037 1_545 S
O1035 C1055 1.234 . S
C1036 O1010 1.269 . S
C1036 O1011 1.257 1_565 S
C1037 H1012 0.930 . S
C1037 C1040 1.388 . S
C1037 C1042 1.418 . S
C1038 H1033 0.930 . S
C1038 C1041 1.404 . S
C1038 C1042 1.353 . S
N1039 Co1004 2.145 . S
N1039 C1040 1.397 . S
N1039 C1041 1.334 . S
C1040 H1021 0.929 . S
C1040 C1037 1.388 . S
C1040 N1039 1.397 . S
C1041 H1022 0.929 . S
C1041 C1038 1.404 . S
C1041 N1039 1.334 . S
C1042 H1034 0.930 . S
C1042 C1037 1.418 . S
C1042 C1038 1.353 . S
C1043 H1013 0.930 . S
C1043 N1044 1.330 . S
C1043 C1045 1.446 . S
N1044 Co1003 2.151 . S
N1044 C1043 1.330 . S
N1044 C1048 1.418 . S
C1045 H1024 0.929 . S
C1045 C1043 1.446 . S
C1045 C1046 1.332 . S
C1046 H1026 0.931 . S
C1046 C1045 1.332 . S
C1046 C1047 1.267 . S
C1047 H1015 0.929 . S
C1047 C1046 1.267 . S
C1047 C1048 1.251 . S
C1048 H1018 0.929 . S
C1048 N1044 1.418 . S
C1048 C1047 1.251 . S
C1049 H1016 0.930 . S
C1049 C1051 1.406 . S
C1049 C1054 1.261 . S
C1050 H1017 0.930 . S
C1050 N1052 1.325 . S
C1050 C1053 1.357 . S
C1051 H1019 0.928 . S
C1051 C1049 1.406 . S
C1051 N1052 1.261 . S
N1052 Co1003 2.214 . S
N1052 C1050 1.325 . S
N1052 C1051 1.261 . S
C1053 H1023 0.931 . S
C1053 C1050 1.357 . S
C1053 C1054 1.312 . S
C1054 H1025 0.930 . S
C1054 C1049 1.261 . S
C1054 C1053 1.312 . S
C1055 O1027 1.214 . S
C1055 O1035 1.234 . S
C1056 H1028 0.929 . S
C1056 C1059 1.391 . S
C1056 C1061 1.391 . S
C1057 H1029 0.929 . S
C1057 C1058 1.390 . S
C1057 N1060 1.391 . S
C1058 H1030 0.930 . S
C1058 C1057 1.390 . S
C1058 C1059 1.392 . S
C1059 H1031 0.929 . S
C1059 C1056 1.391 . S
C1059 C1058 1.392 . S
N1060 Co1004 2.257 . S
N1060 C1057 1.391 . S
N1060 C1061 1.388 . S
C1061 H1032 0.930 . S
C1061 C1056 1.391 . S
C1061 N1060 1.388 . S
C1062 C1063 1.349 1_565 S
C1062 C1064 1.327 . S
C1062 H1087 0.950 . S
C1063 C1062 1.349 1_545 S
C1063 C1079 1.349 . S
C1064 C1062 1.327 . S
C1064 C1083 1.429 . S
C1064 H1088 0.950 . S
C1065 C1082 1.574 . S
C1065 C1084 1.368 1_556 S
C1065 H1089 0.949 1_565 S
H1066 C1070 0.949 . S
C1067 C1068 1.349 . S
C1067 C1069 1.327 . S
C1067 H1090 0.950 . S
C1068 C1067 1.349 . S
C1068 C1080 1.349 . S
C1069 C1067 1.327 . S
C1069 C1085 1.429 . S
C1069 H1091 0.950 . S
C1070 H1066 0.949 . S
C1070 C1078 1.574 . S
C1070 C1086 1.368 1_554 S
H1071 C1079 0.950 . S
H1072 C1077 0.950 . S
H1073 C1078 0.949 . S
H1074 C1080 0.950 . S
H1075 C1081 0.950 . S
H1076 C1082 0.949 1_545 S
C1077 H1072 0.950 . S
C1077 C1079 1.327 . S
C1077 C1083 1.429 1_545 S
C1078 C1070 1.574 . S
C1078 H1073 0.949 . S
C1078 C1084 1.368 . S
C1079 C1063 1.349 . S
C1079 H1071 0.950 . S
C1079 C1077 1.327 . S
C1080 C1068 1.349 . S
C1080 H1074 0.950 . S
C1080 C1081 1.327 . S
C1081 H1075 0.950 . S
C1081 C1080 1.327 . S
C1081 C1085 1.429 . S
C1082 C1065 1.574 . S
C1082 H1076 0.949 1_565 S
C1082 C1086 1.368 . S
C1083 C1064 1.429 . S
C1083 C1077 1.429 1_565 S
C1083 C1084 1.523 . S
C1084 C1065 1.368 1_554 S
C1084 C1078 1.368 . S
C1084 C1083 1.523 . S
C1085 C1069 1.429 . S
C1085 C1081 1.429 . S
C1085 C1086 1.523 . S
C1086 C1070 1.368 1_556 S
C1086 C1082 1.368 . S
C1086 C1085 1.523 . S
H1087 C1062 0.950 . S
H1088 C1064 0.950 . S
H1089 C1065 0.949 1_545 S
H1090 C1067 0.950 . S
H1091 C1069 0.950 . S
C1092 C1093 1.349 . S
C1092 C1094 1.327 1_554 S
C1092 H1117 0.950 1_554 S
C1093 C1092 1.349 . S
C1093 C1109 1.349 . S
C1094 C1092 1.327 1_556 S
C1094 C1113 1.431 . S
C1094 H1118 0.950 . S
C1095 C1112 1.574 . S
C1095 C1114 1.368 1_455 S
C1095 H1119 0.949 1_556 S
H1096 C1100 0.949 . S
C1097 C1098 1.349 . S
C1097 C1099 1.327 . S
C1097 H1120 0.950 . S
C1098 C1097 1.349 . S
C1098 C1110 1.349 . S
C1099 C1097 1.327 . S
C1099 C1115 1.429 . S
C1099 H1121 0.950 . S
C1100 H1096 0.949 . S
C1100 C1108 1.574 . S
C1100 C1116 1.368 1_655 S
H1101 C1109 0.950 . S
H1102 C1107 0.950 1_455 S
H1103 C1108 0.949 . S
H1104 C1110 0.950 . S
H1105 C1111 0.950 1_655 S
H1106 C1112 0.949 . S
C1107 H1102 0.950 1_655 S
C1107 C1109 1.327 . S
C1107 C1113 1.422 1_554 S
C1108 C1100 1.574 . S
C1108 H1103 0.949 . S
C1108 C1114 1.368 . S
C1109 C1093 1.349 . S
C1109 H1101 0.950 . S
C1109 C1107 1.327 . S
C1110 C1098 1.349 . S
C1110 H1104 0.950 . S
C1110 C1111 1.327 . S
C1111 H1105 0.950 1_455 S
C1111 C1110 1.327 . S
C1111 C1115 1.429 . S
C1112 C1095 1.574 . S
C1112 H1106 0.949 . S
C1112 C1116 1.368 . S
C1113 C1094 1.431 . S
C1113 C1107 1.422 1_556 S
C1113 C1114 1.527 . S
C1114 C1095 1.368 1_655 S
C1114 C1108 1.368 . S
C1114 C1113 1.527 . S
C1115 C1099 1.429 . S
C1115 C1111 1.429 . S
C1115 C1116 1.523 . S
C1116 C1100 1.368 1_455 S
C1116 C1112 1.368 . S
C1116 C1115 1.523 . S
H1117 C1092 0.950 1_556 S
H1118 C1094 0.950 . S
H1119 C1095 0.949 1_554 S
H1120 C1097 0.950 . S
H1121 C1099 0.950 . S
C1122 C1123 1.349 . S
C1122 C1124 1.327 . S
C1122 H1147 0.950 . S
C1123 C1122 1.349 . S
C1123 C1139 1.349 . S
C1124 C1122 1.327 . S
C1124 C1143 1.429 . S
C1124 H1148 0.950 . S
C1125 C1142 1.574 . S
C1125 C1144 1.368 . S
C1125 H1149 0.949 . S
H1126 C1130 0.949 . S
C1127 C1128 1.349 . S
C1127 C1129 1.327 . S
C1127 H1150 0.950 . S
C1128 C1127 1.349 . S
C1128 C1140 1.349 . S
C1129 C1127 1.327 . S
C1129 C1145 1.429 . S
C1129 H1151 0.950 . S
C1130 H1126 0.949 . S
C1130 C1138 1.605 . S
C1130 C1146 1.368 . S
H1131 C1139 0.950 . S
H1132 C1137 0.950 1_554 S
H1133 C1138 0.914 1_556 S
H1134 C1140 0.950 . S
H1135 C1141 0.950 . S
H1136 C1142 0.949 . S
C1137 H1132 0.950 1_556 S
C1137 C1139 1.327 . S
C1137 C1143 1.429 . S
C1138 C1130 1.605 . S
C1138 H1133 0.914 1_554 S
C1138 C1144 1.379 . S
C1139 C1123 1.349 . S
C1139 H1131 0.950 . S
C1139 C1137 1.327 . S
C1140 C1128 1.349 . S
C1140 H1134 0.950 . S
C1140 C1141 1.327 . S
C1141 H1135 0.950 . S
C1141 C1140 1.327 . S
C1141 C1145 1.429 . S
C1142 C1125 1.574 . S
C1142 H1136 0.949 . S
C1142 C1146 1.368 . S
C1143 C1124 1.429 . S
C1143 C1137 1.429 . S
C1143 C1144 1.523 1_556 S
C1144 C1125 1.368 . S
C1144 C1138 1.379 . S
C1144 C1143 1.523 1_554 S
C1145 C1129 1.429 . S
C1145 C1141 1.429 . S
C1145 C1146 1.523 . S
C1146 C1130 1.368 . S
C1146 C1142 1.368 . S
C1146 C1145 1.523 . S
H1147 C1122 0.950 . S
H1148 C1124 0.950 . S
H1149 C1125 0.949 . S
H1150 C1127 0.950 . S
H1151 C1129 0.950 . S
C1152 C1153 1.349 . S
C1152 C1154 1.327 . S
C1152 H1177 0.950 . S
C1153 C1152 1.349 . S
C1153 C1169 1.349 . S
C1154 C1152 1.327 . S
C1154 C1173 1.429 . S
C1154 H1178 0.950 . S
C1155 C1172 1.574 . S
C1155 C1174 1.368 . S
C1155 H1179 0.949 . S
H1156 C1160 0.949 . S
C1157 C1158 1.349 . S
C1157 C1159 1.327 . S
C1157 H1180 0.950 . S
C1158 C1157 1.349 . S
C1158 C1170 1.349 . S
C1159 C1157 1.327 . S
C1159 C1175 1.429 . S
C1159 H1181 0.950 . S
C1160 H1156 0.949 . S
C1160 C1168 1.574 . S
C1160 C1176 1.368 . S
H1161 C1169 0.950 . S
H1162 C1167 0.950 . S
H1163 C1168 0.949 . S
H1164 C1170 0.950 . S
H1165 C1171 0.950 . S
H1166 C1172 0.949 . S
C1167 H1162 0.950 . S
C1167 C1169 1.327 . S
C1167 C1173 1.429 . S
C1168 C1160 1.574 . S
C1168 H1163 0.949 . S
C1168 C1174 1.368 . S
C1169 C1153 1.349 . S
C1169 H1161 0.950 . S
C1169 C1167 1.327 . S
C1170 C1158 1.349 . S
C1170 H1164 0.950 . S
C1170 C1171 1.327 . S
C1171 H1165 0.950 . S
C1171 C1170 1.327 . S
C1171 C1175 1.429 . S
C1172 C1155 1.574 . S
C1172 H1166 0.949 . S
C1172 C1176 1.368 . S
C1173 C1154 1.429 . S
C1173 C1167 1.429 . S
C1173 C1174 1.523 . S
C1174 C1155 1.368 . S
C1174 C1168 1.368 . S
C1174 C1173 1.523 . S
C1175 C1159 1.429 . S
C1175 C1171 1.429 . S
C1175 C1176 1.523 . S
C1176 C1160 1.368 . S
C1176 C1172 1.368 . S
C1176 C1175 1.523 . S
H1177 C1152 0.950 . S
H1178 C1154 0.950 . S
H1179 C1155 0.949 . S
H1180 C1157 0.950 . S
H1181 C1159 0.950 . S
C1182 C1183 1.349 . S
C1182 C1184 1.327 . S
C1182 H1207 0.950 . S
C1183 C1182 1.349 . S
C1183 C1199 1.349 . S
C1184 C1182 1.327 . S
C1184 C1203 1.429 . S
C1184 H1208 0.950 . S
C1185 C1202 1.574 . S
C1185 C1204 1.368 . S
C1185 H1209 0.949 . S
H1186 C1190 0.949 . S
C1187 C1188 1.349 . S
C1187 C1189 1.327 . S
C1187 H1210 0.950 . S
C1188 C1187 1.349 . S
C1188 C1200 1.349 . S
C1189 C1187 1.327 . S
C1189 C1205 1.429 . S
C1189 H1211 0.950 . S
C1190 H1186 0.949 . S
C1190 C1198 1.574 . S
C1190 C1206 1.368 . S
H1191 C1199 0.950 . S
H1192 C1197 0.950 . S
H1193 C1198 0.949 . S
H1194 C1200 0.950 . S
H1195 C1201 0.950 . S
H1196 C1202 0.949 . S
C1197 H1192 0.950 . S
C1197 C1199 1.327 . S
C1197 C1203 1.429 . S
C1198 C1190 1.574 . S
C1198 H1193 0.949 . S
C1198 C1204 1.368 . S
C1199 C1183 1.349 . S
C1199 H1191 0.950 . S
C1199 C1197 1.327 . S
C1200 C1188 1.349 . S
C1200 H1194 0.950 . S
C1200 C1201 1.327 . S
C1201 H1195 0.950 . S
C1201 C1200 1.327 . S
C1201 C1205 1.429 . S
C1202 C1185 1.574 . S
C1202 H1196 0.949 . S
C1202 C1206 1.368 . S
C1203 C1184 1.429 . S
C1203 C1197 1.429 . S
C1203 C1204 1.523 . S
C1204 C1185 1.368 . S
C1204 C1198 1.368 . S
C1204 C1203 1.523 . S
C1205 C1189 1.429 . S
C1205 C1201 1.429 . S
C1205 C1206 1.523 . S
C1206 C1190 1.368 . S
C1206 C1202 1.368 . S
C1206 C1205 1.523 . S
H1207 C1182 0.950 . S
H1208 C1184 0.950 . S
H1209 C1185 0.949 . S
H1210 C1187 0.950 . S
H1211 C1189 0.950 . S
C1212 C1213 1.349 . S
C1212 C1214 1.327 . S
C1212 H1237 0.950 . S
C1213 C1212 1.349 . S
C1213 C1229 1.349 . S
C1214 C1212 1.327 . S
C1214 C1233 1.429 . S
C1214 H1238 0.950 . S
C1215 C1232 1.574 . S
C1215 C1234 1.368 . S
C1215 H1239 0.949 . S
H1216 C1220 0.949 . S
C1217 C1218 1.349 . S
C1217 C1219 1.327 . S
C1217 H1240 0.950 . S
C1218 C1217 1.349 . S
C1218 C1230 1.349 . S
C1219 C1217 1.327 . S
C1219 C1235 1.429 . S
C1219 H1241 0.950 . S
C1220 H1216 0.949 . S
C1220 C1228 1.574 . S
C1220 C1236 1.368 . S
H1221 C1229 0.950 . S
H1222 C1227 0.950 . S
H1223 C1228 0.949 . S
H1224 C1230 0.950 . S
H1225 C1231 0.950 . S
H1226 C1232 0.949 . S
C1227 H1222 0.950 . S
C1227 C1229 1.327 . S
C1227 C1233 1.429 . S
C1228 C1220 1.574 . S
C1228 H1223 0.949 . S
C1228 C1234 1.368 . S
C1229 C1213 1.349 . S
C1229 H1221 0.950 . S
C1229 C1227 1.327 . S
C1230 C1218 1.349 . S
C1230 H1224 0.950 . S
C1230 C1231 1.327 . S
C1231 H1225 0.950 . S
C1231 C1230 1.327 . S
C1231 C1235 1.429 . S
C1232 C1215 1.574 . S
C1232 H1226 0.949 . S
C1232 C1236 1.368 . S
C1233 C1214 1.429 . S
C1233 C1227 1.429 . S
C1233 C1234 1.523 . S
C1234 C1215 1.368 . S
C1234 C1228 1.368 . S
C1234 C1233 1.523 . S
C1235 C1219 1.429 . S
C1235 C1231 1.429 . S
C1235 C1236 1.523 . S
C1236 C1220 1.368 . S
C1236 C1232 1.368 . S
C1236 C1235 1.523 . S
H1237 C1212 0.950 . S
H1238 C1214 0.950 . S
H1239 C1215 0.949 . S
H1240 C1217 0.950 . S
H1241 C1219 0.950 . S
C1242 C1243 1.349 . S
C1242 C1244 1.327 . S
C1242 H1267 0.950 . S
C1243 C1242 1.349 . S
C1243 C1259 1.349 . S
C1244 C1242 1.327 . S
C1244 C1263 1.429 . S
C1244 H1268 0.950 . S
C1245 C1262 1.574 . S
C1245 C1264 1.368 . S
C1245 H1269 0.949 . S
H1246 C1250 0.949 . S
C1247 C1248 1.349 . S
C1247 C1249 1.327 . S
C1247 H1270 0.950 . S
C1248 C1247 1.349 . S
C1248 C1260 1.349 . S
C1249 C1247 1.327 . S
C1249 C1265 1.429 . S
C1249 H1271 0.950 . S
C1250 H1246 0.949 . S
C1250 C1258 1.574 . S
C1250 C1266 1.368 . S
H1251 C1259 0.950 . S
H1252 C1257 0.950 . S
H1253 C1258 0.949 . S
H1254 C1260 0.950 . S
H1255 C1261 0.950 . S
H1256 C1262 0.949 . S
C1257 H1252 0.950 . S
C1257 C1259 1.327 . S
C1257 C1263 1.429 . S
C1258 C1250 1.574 . S
C1258 H1253 0.949 . S
C1258 C1264 1.368 . S
C1259 C1243 1.349 . S
C1259 H1251 0.950 . S
C1259 C1257 1.327 . S
C1260 C1248 1.349 . S
C1260 H1254 0.950 . S
C1260 C1261 1.327 . S
C1261 H1255 0.950 . S
C1261 C1260 1.327 . S
C1261 C1265 1.429 . S
C1262 C1245 1.574 . S
C1262 H1256 0.949 . S
C1262 C1266 1.368 . S
C1263 C1244 1.429 . S
C1263 C1257 1.429 . S
C1263 C1264 1.523 . S
C1264 C1245 1.368 . S
C1264 C1258 1.368 . S
C1264 C1263 1.523 . S
C1265 C1249 1.429 . S
C1265 C1261 1.429 . S
C1265 C1266 1.523 . S
C1266 C1250 1.368 . S
C1266 C1262 1.368 . S
C1266 C1265 1.523 . S
H1267 C1242 0.950 . S
H1268 C1244 0.950 . S
H1269 C1245 0.949 . S
H1270 C1247 0.950 . S
H1271 C1249 0.950 . S
C1272 C1273 1.349 . S
C1272 C1274 1.327 . S
C1272 H1297 0.950 . S
C1273 C1272 1.349 . S
C1273 C1289 1.349 . S
C1274 C1272 1.327 . S
C1274 C1293 1.429 . S
C1274 H1298 0.950 . S
C1275 C1292 1.574 . S
C1275 C1294 1.368 . S
C1275 H1299 0.949 . S
H1276 C1280 0.949 . S
C1277 C1278 1.349 . S
C1277 C1279 1.327 . S
C1277 H1300 0.950 . S
C1278 C1277 1.349 . S
C1278 C1290 1.349 . S
C1279 C1277 1.327 . S
C1279 C1295 1.429 . S
C1279 H1301 0.950 . S
C1280 H1276 0.949 . S
C1280 C1288 1.574 . S
C1280 C1296 1.368 . S
H1281 C1289 0.950 . S
H1282 C1287 0.950 . S
H1283 C1288 0.949 . S
H1284 C1290 0.950 . S
H1285 C1291 0.950 . S
H1286 C1292 0.949 . S
C1287 H1282 0.950 . S
C1287 C1289 1.327 . S
C1287 C1293 1.429 . S
C1288 C1280 1.574 . S
C1288 H1283 0.949 . S
C1288 C1294 1.368 . S
C1289 C1273 1.349 . S
C1289 H1281 0.950 . S
C1289 C1287 1.327 . S
C1290 C1278 1.349 . S
C1290 H1284 0.950 . S
C1290 C1291 1.327 . S
C1291 H1285 0.950 . S
C1291 C1290 1.327 . S
C1291 C1295 1.429 . S
C1292 C1275 1.574 . S
C1292 H1286 0.949 . S
C1292 C1296 1.368 . S
C1293 C1274 1.429 . S
C1293 C1287 1.429 . S
C1293 C1294 1.523 . S
C1294 C1275 1.368 . S
C1294 C1288 1.368 . S
C1294 C1293 1.523 . S
C1295 C1279 1.429 . S
C1295 C1291 1.429 . S
C1295 C1296 1.523 . S
C1296 C1280 1.368 . S
C1296 C1292 1.368 . S
C1296 C1295 1.523 . S
H1297 C1272 0.950 . S
H1298 C1274 0.950 . S
H1299 C1275 0.949 . S
H1300 C1277 0.950 . S
H1301 C1279 0.950 . S
C1302 C1303 1.349 . S
C1302 C1304 1.327 . S
C1302 H1327 0.950 . S
C1303 C1302 1.349 . S
C1303 C1319 1.349 . S
C1304 C1302 1.327 . S
C1304 C1323 1.429 . S
C1304 H1328 0.950 . S
C1305 C1322 1.574 . S
C1305 C1324 1.368 . S
C1305 H1329 0.949 . S
H1306 C1310 0.949 . S
C1307 C1308 1.349 . S
C1307 C1309 1.327 . S
C1307 H1330 0.950 . S
C1308 C1307 1.349 . S
C1308 C1320 1.349 . S
C1309 C1307 1.327 . S
C1309 C1325 1.429 . S
C1309 H1331 0.950 . S
C1310 H1306 0.949 . S
C1310 C1318 1.574 . S
C1310 C1326 1.368 . S
H1311 C1319 0.950 . S
H1312 C1317 0.950 . S
H1313 C1318 0.949 . S
H1314 C1320 0.950 . S
H1315 C1321 0.950 . S
H1316 C1322 0.949 . S
C1317 H1312 0.950 . S
C1317 C1319 1.327 . S
C1317 C1323 1.429 . S
C1318 C1310 1.574 . S
C1318 H1313 0.949 . S
C1318 C1324 1.368 . S
C1319 C1303 1.349 . S
C1319 H1311 0.950 . S
C1319 C1317 1.327 . S
C1320 C1308 1.349 . S
C1320 H1314 0.950 . S
C1320 C1321 1.327 . S
C1321 H1315 0.950 . S
C1321 C1320 1.327 . S
C1321 C1325 1.429 . S
C1322 C1305 1.574 . S
C1322 H1316 0.949 . S
C1322 C1326 1.368 . S
C1323 C1304 1.429 . S
C1323 C1317 1.429 . S
C1323 C1324 1.523 . S
C1324 C1305 1.368 . S
C1324 C1318 1.368 . S
C1324 C1323 1.523 . S
C1325 C1309 1.429 . S
C1325 C1321 1.429 . S
C1325 C1326 1.523 . S
C1326 C1310 1.368 . S
C1326 C1322 1.368 . S
C1326 C1325 1.523 . S
H1327 C1302 0.950 . S
H1328 C1304 0.950 . S
H1329 C1305 0.949 . S
H1330 C1307 0.950 . S
H1331 C1309 0.950 . S
C1332 C1333 1.349 . S
C1332 C1334 1.327 . S
C1332 H1357 0.950 . S
C1333 C1332 1.349 . S
C1333 C1349 1.349 . S
C1334 C1332 1.327 . S
C1334 C1353 1.429 . S
C1334 H1358 0.950 . S
C1335 C1352 1.574 . S
C1335 C1354 1.368 . S
C1335 H1359 0.949 . S
H1336 C1340 0.949 . S
C1337 C1338 1.349 . S
C1337 C1339 1.327 . S
C1337 H1360 0.950 . S
C1338 C1337 1.349 . S
C1338 C1350 1.349 . S
C1339 C1337 1.327 . S
C1339 C1355 1.429 . S
C1339 H1361 0.950 . S
C1340 H1336 0.949 . S
C1340 C1348 1.574 . S
C1340 C1356 1.368 . S
H1341 C1349 0.950 . S
H1342 C1347 0.950 . S
H1343 C1348 0.949 . S
H1344 C1350 0.950 . S
H1345 C1351 0.950 . S
H1346 C1352 0.949 . S
C1347 H1342 0.950 . S
C1347 C1349 1.327 . S
C1347 C1353 1.429 . S
C1348 C1340 1.574 . S
C1348 H1343 0.949 . S
C1348 C1354 1.368 . S
C1349 C1333 1.349 . S
C1349 H1341 0.950 . S
C1349 C1347 1.327 . S
C1350 C1338 1.349 . S
C1350 H1344 0.950 . S
C1350 C1351 1.327 . S
C1351 H1345 0.950 . S
C1351 C1350 1.327 . S
C1351 C1355 1.429 . S
C1352 C1335 1.574 . S
C1352 H1346 0.949 . S
C1352 C1356 1.368 . S
C1353 C1334 1.429 . S
C1353 C1347 1.429 . S
C1353 C1354 1.523 . S
C1354 C1335 1.368 . S
C1354 C1348 1.368 . S
C1354 C1353 1.523 . S
C1355 C1339 1.429 . S
C1355 C1351 1.429 . S
C1355 C1356 1.523 . S
C1356 C1340 1.368 . S
C1356 C1352 1.368 . S
C1356 C1355 1.523 . S
H1357 C1332 0.950 . S
H1358 C1334 0.950 . S
H1359 C1335 0.949 . S
H1360 C1337 0.950 . S
H1361 C1339 0.950 . S
C1362 C1363 1.349 . S
C1362 C1364 1.327 . S
C1362 H1387 0.950 . S
C1363 C1362 1.349 . S
C1363 C1379 1.349 . S
C1364 C1362 1.327 . S
C1364 C1383 1.429 . S
C1364 H1388 0.950 . S
C1365 C1382 1.574 . S
C1365 C1384 1.368 . S
C1365 H1389 0.949 . S
H1366 C1370 0.949 . S
C1367 C1368 1.349 . S
C1367 C1369 1.327 . S
C1367 H1390 0.950 . S
C1368 C1367 1.349 . S
C1368 C1380 1.349 . S
C1369 C1367 1.327 . S
C1369 C1385 1.429 . S
C1369 H1391 0.950 . S
C1370 H1366 0.949 . S
C1370 C1378 1.574 . S
C1370 C1386 1.368 . S
H1371 C1379 0.950 . S
H1372 C1377 0.950 . S
H1373 C1378 0.949 . S
H1374 C1380 0.950 . S
H1375 C1381 0.950 . S
H1376 C1382 0.949 . S
C1377 H1372 0.950 . S
C1377 C1379 1.327 . S
C1377 C1383 1.429 . S
C1378 C1370 1.574 . S
C1378 H1373 0.949 . S
C1378 C1384 1.368 . S
C1379 C1363 1.349 . S
C1379 H1371 0.950 . S
C1379 C1377 1.327 . S
C1380 C1368 1.349 . S
C1380 H1374 0.950 . S
C1380 C1381 1.327 . S
C1381 H1375 0.950 . S
C1381 C1380 1.327 . S
C1381 C1385 1.429 . S
C1382 C1365 1.574 . S
C1382 H1376 0.949 . S
C1382 C1386 1.368 . S
C1383 C1364 1.429 . S
C1383 C1377 1.429 . S
C1383 C1384 1.523 . S
C1384 C1365 1.368 . S
C1384 C1378 1.368 . S
C1384 C1383 1.523 . S
C1385 C1369 1.429 . S
C1385 C1381 1.429 . S
C1385 C1386 1.523 . S
C1386 C1370 1.368 . S
C1386 C1382 1.368 . S
C1386 C1385 1.523 . S
H1387 C1362 0.950 . S
H1388 C1364 0.950 . S
H1389 C1365 0.949 . S
H1390 C1367 0.950 . S
H1391 C1369 0.950 . S
C1392 C1393 1.349 . S
C1392 C1394 1.327 . S
C1392 H1417 0.950 . S
C1393 C1392 1.349 . S
C1393 C1409 1.349 . S
C1394 C1392 1.327 . S
C1394 C1413 1.429 . S
C1394 H1418 0.950 . S
C1395 C1412 1.574 . S
C1395 C1414 1.368 . S
C1395 H1419 0.949 . S
H1396 C1400 0.949 . S
C1397 C1398 1.349 . S
C1397 C1399 1.327 . S
C1397 H1420 0.950 . S
C1398 C1397 1.349 . S
C1398 C1410 1.349 . S
C1399 C1397 1.327 . S
C1399 C1415 1.429 . S
C1399 H1421 0.950 . S
C1400 H1396 0.949 . S
C1400 C1408 1.574 . S
C1400 C1416 1.368 . S
H1401 C1409 0.950 . S
H1402 C1407 0.950 . S
H1403 C1408 0.949 . S
H1404 C1410 0.950 . S
H1405 C1411 0.950 . S
H1406 C1412 0.949 . S
C1407 H1402 0.950 . S
C1407 C1409 1.327 . S
C1407 C1413 1.429 . S
C1408 C1400 1.574 . S
C1408 H1403 0.949 . S
C1408 C1414 1.368 . S
C1409 C1393 1.349 . S
C1409 H1401 0.950 . S
C1409 C1407 1.327 . S
C1410 C1398 1.349 . S
C1410 H1404 0.950 . S
C1410 C1411 1.327 . S
C1411 H1405 0.950 . S
C1411 C1410 1.327 . S
C1411 C1415 1.429 . S
C1412 C1395 1.574 . S
C1412 H1406 0.949 . S
C1412 C1416 1.368 . S
C1413 C1394 1.429 . S
C1413 C1407 1.429 . S
C1413 C1414 1.523 . S
C1414 C1395 1.368 . S
C1414 C1408 1.368 . S
C1414 C1413 1.523 . S
C1415 C1399 1.429 . S
C1415 C1411 1.429 . S
C1415 C1416 1.523 . S
C1416 C1400 1.368 . S
C1416 C1412 1.368 . S
C1416 C1415 1.523 . S
H1417 C1392 0.950 . S
H1418 C1394 0.950 . S
H1419 C1395 0.949 . S
H1420 C1397 0.950 . S
H1421 C1399 0.950 . S
C1422 C1423 1.349 . S
C1422 C1424 1.327 . S
C1422 H1447 0.950 . S
C1423 C1422 1.349 . S
C1423 C1439 1.349 . S
C1424 C1422 1.327 . S
C1424 C1443 1.429 . S
C1424 H1448 0.950 . S
C1425 C1442 1.574 . S
C1425 C1444 1.368 . S
C1425 H1449 0.949 . S
H1426 C1430 0.949 . S
C1427 C1428 1.349 . S
C1427 C1429 1.327 . S
C1427 H1450 0.950 . S
C1428 C1427 1.349 . S
C1428 C1440 1.349 . S
C1429 C1427 1.327 . S
C1429 C1445 1.429 . S
C1429 H1451 0.950 . S
C1430 H1426 0.949 . S
C1430 C1438 1.574 . S
C1430 C1446 1.368 . S
H1431 C1439 0.950 . S
H1432 C1437 0.950 . S
H1433 C1438 0.949 . S
H1434 C1440 0.950 . S
H1435 C1441 0.950 . S
H1436 C1442 0.949 . S
C1437 H1432 0.950 . S
C1437 C1439 1.327 . S
C1437 C1443 1.429 . S
C1438 C1430 1.574 . S
C1438 H1433 0.949 . S
C1438 C1444 1.368 . S
C1439 C1423 1.349 . S
C1439 H1431 0.950 . S
C1439 C1437 1.327 . S
C1440 C1428 1.349 . S
C1440 H1434 0.950 . S
C1440 C1441 1.327 . S
C1441 H1435 0.950 . S
C1441 C1440 1.327 . S
C1441 C1445 1.429 . S
C1442 C1425 1.574 . S
C1442 H1436 0.949 . S
C1442 C1446 1.368 . S
C1443 C1424 1.429 . S
C1443 C1437 1.429 . S
C1443 C1444 1.523 . S
C1444 C1425 1.368 . S
C1444 C1438 1.368 . S
C1444 C1443 1.523 . S
C1445 C1429 1.429 . S
C1445 C1441 1.429 . S
C1445 C1446 1.523 . S
C1446 C1430 1.368 . S
C1446 C1442 1.368 . S
C1446 C1445 1.523 . S
H1447 C1422 0.950 . S
H1448 C1424 0.950 . S
H1449 C1425 0.949 . S
H1450 C1427 0.950 . S
H1451 C1429 0.950 . S
C1452 C1453 1.349 . S
C1452 C1454 1.327 . S
C1452 H1477 0.950 . S
C1453 C1452 1.349 . S
C1453 C1469 1.349 . S
C1454 C1452 1.327 . S
C1454 C1473 1.429 . S
C1454 H1478 0.950 . S
C1455 C1472 1.574 . S
C1455 C1474 1.368 . S
C1455 H1479 0.949 . S
H1456 C1460 0.949 . S
C1457 C1458 1.349 . S
C1457 C1459 1.327 . S
C1457 H1480 0.950 . S
C1458 C1457 1.349 . S
C1458 C1470 1.349 . S
C1459 C1457 1.327 . S
C1459 C1475 1.429 . S
C1459 H1481 0.950 . S
C1460 H1456 0.949 . S
C1460 C1468 1.574 . S
C1460 C1476 1.368 . S
H1461 C1469 0.950 . S
H1462 C1467 0.950 . S
H1463 C1468 0.949 . S
H1464 C1470 0.950 . S
H1465 C1471 0.950 . S
H1466 C1472 0.949 . S
C1467 H1462 0.950 . S
C1467 C1469 1.327 . S
C1467 C1473 1.429 . S
C1468 C1460 1.574 . S
C1468 H1463 0.949 . S
C1468 C1474 1.368 . S
C1469 C1453 1.349 . S
C1469 H1461 0.950 . S
C1469 C1467 1.327 . S
C1470 C1458 1.349 . S
C1470 H1464 0.950 . S
C1470 C1471 1.327 . S
C1471 H1465 0.950 . S
C1471 C1470 1.327 . S
C1471 C1475 1.429 . S
C1472 C1455 1.574 . S
C1472 H1466 0.949 . S
C1472 C1476 1.368 . S
C1473 C1454 1.429 . S
C1473 C1467 1.429 . S
C1473 C1474 1.523 . S
C1474 C1455 1.368 . S
C1474 C1468 1.368 . S
C1474 C1473 1.523 . S
C1475 C1459 1.429 . S
C1475 C1471 1.429 . S
C1475 C1476 1.523 . S
C1476 C1460 1.368 . S
C1476 C1472 1.368 . S
C1476 C1475 1.523 . S
H1477 C1452 0.950 . S
H1478 C1454 0.950 . S
H1479 C1455 0.949 . S
H1480 C1457 0.950 . S
H1481 C1459 0.950 . S
C1482 C1483 1.349 . S
C1482 C1484 1.327 . S
C1482 H1507 0.950 . S
C1483 C1482 1.349 . S
C1483 C1499 1.349 . S
C1484 C1482 1.327 . S
C1484 C1503 1.429 . S
C1484 H1508 0.950 . S
C1485 C1502 1.574 . S
C1485 C1504 1.368 . S
C1485 H1509 0.949 . S
H1486 C1490 0.949 . S
C1487 C1488 1.349 . S
C1487 C1489 1.327 . S
C1487 H1510 0.950 . S
C1488 C1487 1.349 . S
C1488 C1500 1.349 . S
C1489 C1487 1.327 . S
C1489 C1505 1.429 . S
C1489 H1511 0.950 . S
C1490 H1486 0.949 . S
C1490 C1498 1.574 . S
C1490 C1506 1.368 . S
H1491 C1499 0.950 . S
H1492 C1497 0.950 . S
H1493 C1498 0.949 . S
H1494 C1500 0.950 . S
H1495 C1501 0.950 . S
H1496 C1502 0.949 . S
C1497 H1492 0.950 . S
C1497 C1499 1.327 . S
C1497 C1503 1.429 . S
C1498 C1490 1.574 . S
C1498 H1493 0.949 . S
C1498 C1504 1.368 . S
C1499 C1483 1.349 . S
C1499 H1491 0.950 . S
C1499 C1497 1.327 . S
C1500 C1488 1.349 . S
C1500 H1494 0.950 . S
C1500 C1501 1.327 . S
C1501 H1495 0.950 . S
C1501 C1500 1.327 . S
C1501 C1505 1.429 . S
C1502 C1485 1.574 . S
C1502 H1496 0.949 . S
C1502 C1506 1.368 . S
C1503 C1484 1.429 . S
C1503 C1497 1.429 . S
C1503 C1504 1.523 . S
C1504 C1485 1.368 . S
C1504 C1498 1.368 . S
C1504 C1503 1.523 . S
C1505 C1489 1.429 . S
C1505 C1501 1.429 . S
C1505 C1506 1.523 . S
C1506 C1490 1.368 . S
C1506 C1502 1.368 . S
C1506 C1505 1.523 . S
H1507 C1482 0.950 . S
H1508 C1484 0.950 . S
H1509 C1485 0.949 . S
H1510 C1487 0.950 . S
H1511 C1489 0.950 . S
C1512 C1513 1.349 . S
C1512 C1514 1.327 . S
C1512 H1537 0.950 . S
C1513 C1512 1.349 . S
C1513 C1529 1.349 . S
C1514 C1512 1.327 . S
C1514 C1533 1.429 . S
C1514 H1538 0.950 . S
C1515 C1532 1.574 . S
C1515 C1534 1.368 . S
C1515 H1539 0.972 . S
H1516 C1520 0.949 . S
C1517 C1518 1.349 . S
C1517 C1519 1.327 . S
C1517 H1540 0.950 . S
C1518 C1517 1.349 . S
C1518 C1530 1.349 . S
C1519 C1517 1.327 . S
C1519 C1535 1.429 . S
C1519 H1541 0.950 . S
C1520 H1516 0.949 . S
C1520 C1528 1.574 . S
C1520 C1536 1.368 . S
H1521 C1529 0.950 . S
H1522 C1527 0.950 . S
H1523 C1528 0.949 . S
H1524 C1530 0.950 . S
H1525 C1531 0.950 . S
H1526 C1532 0.949 . S
C1527 H1522 0.950 . S
C1527 C1529 1.327 . S
C1527 C1533 1.429 . S
C1528 C1520 1.574 . S
C1528 H1523 0.949 . S
C1528 C1534 1.368 . S
C1529 C1513 1.349 . S
C1529 H1521 0.950 . S
C1529 C1527 1.327 . S
C1530 C1518 1.349 . S
C1530 H1524 0.950 . S
C1530 C1531 1.327 . S
C1531 H1525 0.950 . S
C1531 C1530 1.327 . S
C1531 C1535 1.429 . S
C1532 C1515 1.574 . S
C1532 H1526 0.949 . S
C1532 C1536 1.368 . S
C1533 C1514 1.429 . S
C1533 C1527 1.429 . S
C1533 C1534 1.523 1_455 S
C1534 C1515 1.368 . S
C1534 C1528 1.368 . S
C1534 C1533 1.523 1_655 S
C1535 C1519 1.429 . S
C1535 C1531 1.429 . S
C1535 C1536 1.523 . S
C1536 C1520 1.368 . S
C1536 C1532 1.368 . S
C1536 C1535 1.523 . S
H1537 C1512 0.950 . S
H1538 C1514 0.950 . S
H1539 C1515 0.972 . S
H1540 C1517 0.950 . S
H1541 C1519 0.950 . S
C1542 C1543 1.349 . S
C1542 C1544 1.327 . S
C1542 H1567 0.950 . S
C1543 C1542 1.349 . S
C1543 C1559 1.349 . S
C1544 C1542 1.327 . S
C1544 C1563 1.429 . S
C1544 H1568 0.950 . S
C1545 C1562 1.574 . S
C1545 C1564 1.368 . S
C1545 H1569 0.949 . S
H1546 C1550 0.949 . S
C1547 C1548 1.349 . S
C1547 C1549 1.327 . S
C1547 H1570 0.950 . S
C1548 C1547 1.349 . S
C1548 C1560 1.349 . S
C1549 C1547 1.327 . S
C1549 C1565 1.429 . S
C1549 H1571 0.950 . S
C1550 H1546 0.949 . S
C1550 C1558 1.574 . S
C1550 C1566 1.368 . S
H1551 C1559 0.950 . S
H1552 C1557 0.950 . S
H1553 C1558 0.949 . S
H1554 C1560 0.950 . S
H1555 C1561 0.950 . S
H1556 C1562 0.949 . S
C1557 H1552 0.950 . S
C1557 C1559 1.327 . S
C1557 C1563 1.429 . S
C1558 C1550 1.574 . S
C1558 H1553 0.949 . S
C1558 C1564 1.368 . S
C1559 C1543 1.349 . S
C1559 H1551 0.950 . S
C1559 C1557 1.327 . S
C1560 C1548 1.349 . S
C1560 H1554 0.950 . S
C1560 C1561 1.327 . S
C1561 H1555 0.950 . S
C1561 C1560 1.327 . S
C1561 C1565 1.429 . S
C1562 C1545 1.574 . S
C1562 H1556 0.949 . S
C1562 C1566 1.368 . S
C1563 C1544 1.429 . S
C1563 C1557 1.429 . S
C1563 C1564 1.523 . S
C1564 C1545 1.368 . S
C1564 C1558 1.368 . S
C1564 C1563 1.523 . S
C1565 C1549 1.429 . S
C1565 C1561 1.429 . S
C1565 C1566 1.523 . S
C1566 C1550 1.368 . S
C1566 C1562 1.368 . S
C1566 C1565 1.523 . S
H1567 C1542 0.950 . S
H1568 C1544 0.950 . S
H1569 C1545 0.949 . S
H1570 C1547 0.950 . S
H1571 C1549 0.950 . S
C1572 C1573 1.349 . S
C1572 C1574 1.327 . S
C1572 H1597 0.950 . S
C1573 C1572 1.349 . S
C1573 C1589 1.349 . S
C1574 C1572 1.327 . S
C1574 C1593 1.429 . S
C1574 H1598 0.950 . S
C1575 C1592 1.574 . S
C1575 C1594 1.368 1_565 S
C1575 H1599 0.949 . S
H1576 C1580 0.949 . S
C1577 C1578 1.349 . S
C1577 C1579 1.327 . S
C1577 H1600 0.950 . S
C1578 C1577 1.349 . S
C1578 C1590 1.349 1_565 S
C1579 C1577 1.327 . S
C1579 C1595 1.429 . S
C1579 H1601 0.950 . S
C1580 H1576 0.949 . S
C1580 C1588 1.574 . S
C1580 C1596 1.375 . S
H1581 C1589 0.950 1_565 S
H1582 C1587 0.950 1_565 S
H1583 C1588 0.949 . S
H1584 C1590 0.950 . S
H1585 C1591 0.950 . S
H1586 C1592 0.949 . S
C1587 H1582 0.950 1_545 S
C1587 C1589 1.327 . S
C1587 C1593 1.429 . S
C1588 C1580 1.574 . S
C1588 H1583 0.949 . S
C1588 C1594 1.368 . S
C1589 C1573 1.349 . S
C1589 H1581 0.950 1_545 S
C1589 C1587 1.327 . S
C1590 C1578 1.349 1_545 S
C1590 H1584 0.950 . S
C1590 C1591 1.327 . S
C1591 H1585 0.950 . S
C1591 C1590 1.327 . S
C1591 C1595 1.429 1_545 S
C1592 C1575 1.574 . S
C1592 H1586 0.949 . S
C1592 C1596 1.360 1_565 S
C1593 C1574 1.429 . S
C1593 C1587 1.429 . S
C1593 C1594 1.523 . S
C1594 C1575 1.368 1_545 S
C1594 C1588 1.368 . S
C1594 C1593 1.523 . S
C1595 C1579 1.429 . S
C1595 C1591 1.429 1_565 S
C1595 C1596 1.525 1_565 S
C1596 C1580 1.375 . S
C1596 C1592 1.360 1_545 S
C1596 C1595 1.525 1_545 S
H1597 C1572 0.950 . S
H1598 C1574 0.950 . S
H1599 C1575 0.949 . S
H1600 C1577 0.950 . S
H1601 C1579 0.950 . S
C1602 C1603 1.349 . S
C1602 C1604 1.327 . S
C1602 H1627 0.950 . S
C1603 C1602 1.349 . S
C1603 C1619 1.349 . S
C1604 C1602 1.327 . S
C1604 C1623 1.429 . S
C1604 H1628 0.950 . S
C1605 C1622 1.574 . S
C1605 C1624 1.368 1_556 S
C1605 H1629 0.949 . S
H1606 C1610 0.949 . S
C1607 C1608 1.349 . S
C1607 C1609 1.327 . S
C1607 H1630 0.950 . S
C1608 C1607 1.349 . S
C1608 C1620 1.349 . S
C1609 C1607 1.327 . S
C1609 C1625 1.429 . S
C1609 H1631 0.950 . S
C1610 H1606 0.949 . S
C1610 C1618 1.574 . S
C1610 C1626 1.368 1_554 S
H1611 C1619 0.950 . S
H1612 C1617 0.907 1_556 S
H1613 C1618 0.949 . S
H1614 C1620 0.950 . S
H1615 C1621 0.950 . S
H1616 C1622 0.949 . S
C1617 H1612 0.907 1_554 S
C1617 C1619 1.327 . S
C1617 C1623 1.429 . S
C1618 C1610 1.574 . S
C1618 H1613 0.949 . S
C1618 C1624 1.368 . S
C1619 C1603 1.349 . S
C1619 H1611 0.950 . S
C1619 C1617 1.327 . S
C1620 C1608 1.349 . S
C1620 H1614 0.950 . S
C1620 C1621 1.327 . S
C1621 H1615 0.950 . S
C1621 C1620 1.327 . S
C1621 C1625 1.429 . S
C1622 C1605 1.574 . S
C1622 H1616 0.949 . S
C1622 C1626 1.368 . S
C1623 C1604 1.429 . S
C1623 C1617 1.429 . S
C1623 C1624 1.523 . S
C1624 C1605 1.368 1_554 S
C1624 C1618 1.368 . S
C1624 C1623 1.523 . S
C1625 C1609 1.429 . S
C1625 C1621 1.429 . S
C1625 C1626 1.523 . S
C1626 C1610 1.368 1_556 S
C1626 C1622 1.368 . S
C1626 C1625 1.523 . S
H1627 C1602 0.950 . S
H1628 C1604 0.950 . S
H1629 C1605 0.949 . S
H1630 C1607 0.950 . S
H1631 C1609 0.950 . S
C1632 C1633 1.349 1_556 S
C1632 C1634 1.327 1_655 S
C1632 H1657 0.950 . S
C1633 C1632 1.349 1_554 S
C1633 C1649 1.349 1_655 S
C1634 C1632 1.327 1_455 S
C1634 C1653 1.429 . S
C1634 H1658 0.950 . S
C1635 C1652 1.570 1_554 S
C1635 C1654 1.368 1_554 S
C1635 H1659 0.949 . S
H1636 C1640 0.949 . S
C1637 C1638 1.349 . S
C1637 C1639 1.327 . S
C1637 H1660 0.950 . S
C1638 C1637 1.349 . S
C1638 C1650 1.349 . S
C1639 C1637 1.327 . S
C1639 C1655 1.429 . S
C1639 H1661 0.936 1_556 S
C1640 H1636 0.949 . S
C1640 C1648 1.574 . S
C1640 C1656 1.368 . S
H1641 C1649 0.952 1_655 S
H1642 C1647 0.950 . S
H1643 C1648 0.949 . S
H1644 C1650 0.950 . S
H1645 C1651 0.950 . S
H1646 C1652 0.940 1_554 S
C1647 H1642 0.950 . S
C1647 C1649 1.327 . S
C1647 C1653 1.429 1_554 S
C1648 C1640 1.574 . S
C1648 H1643 0.949 . S
C1648 C1654 1.368 . S
C1649 C1633 1.349 1_455 S
C1649 H1641 0.952 1_455 S
C1649 C1647 1.327 . S
C1650 C1638 1.349 . S
C1650 H1644 0.950 . S
C1650 C1651 1.327 . S
C1651 H1645 0.950 . S
C1651 C1650 1.327 . S
C1651 C1655 1.429 . S
C1652 C1635 1.570 1_556 S
C1652 H1646 0.940 1_556 S
C1652 C1656 1.382 . S
C1653 C1634 1.429 . S
C1653 C1647 1.429 1_556 S
C1653 C1654 1.523 . S
C1654 C1635 1.368 1_556 S
C1654 C1648 1.368 . S
C1654 C1653 1.523 . S
C1655 C1639 1.429 . S
C1655 C1651 1.429 . S
C1655 C1656 1.523 . S
C1656 C1640 1.368 . S
C1656 C1652 1.382 . S
C1656 C1655 1.523 . S
H1657 C1632 0.950 . S
H1658 C1634 0.950 . S
H1659 C1635 0.949 . S
H1660 C1637 0.950 . S
H1661 C1639 0.936 1_554 S
C1662 C1663 1.349 . S
C1662 C1664 1.327 . S
C1662 H1687 0.950 . S
C1663 C1662 1.349 . S
C1663 C1679 1.349 . S
C1664 C1662 1.327 . S
C1664 C1683 1.429 . S
C1664 H1688 0.950 . S
C1665 C1682 1.574 . S
C1665 C1684 1.368 . S
C1665 H1689 0.949 . S
H1666 C1670 0.949 . S
C1667 C1668 1.349 . S
C1667 C1669 1.327 . S
C1667 H1690 0.950 . S
C1668 C1667 1.349 . S
C1668 C1680 1.349 . S
C1669 C1667 1.327 . S
C1669 C1685 1.429 . S
C1669 H1691 0.950 1_556 S
C1670 H1666 0.949 . S
C1670 C1678 1.590 . S
C1670 C1686 1.363 1_556 S
H1671 C1679 0.950 . S
H1672 C1677 0.950 . S
H1673 C1678 0.964 . S
H1674 C1680 0.950 . S
H1675 C1681 0.950 . S
H1676 C1682 0.949 . S
C1677 H1672 0.950 . S
C1677 C1679 1.327 . S
C1677 C1683 1.429 . S
C1678 C1670 1.590 . S
C1678 H1673 0.964 . S
C1678 C1684 1.337 1_556 S
C1679 C1663 1.349 . S
C1679 H1671 0.950 . S
C1679 C1677 1.327 . S
C1680 C1668 1.349 . S
C1680 H1674 0.950 . S
C1680 C1681 1.327 . S
C1681 H1675 0.950 . S
C1681 C1680 1.327 . S
C1681 C1685 1.429 . S
C1682 C1665 1.574 . S
C1682 H1676 0.949 . S
C1682 C1686 1.377 . S
C1683 C1664 1.429 . S
C1683 C1677 1.429 . S
C1683 C1684 1.523 . S
C1684 C1665 1.368 . S
C1684 C1678 1.337 1_554 S
C1684 C1683 1.523 . S
C1685 C1669 1.429 . S
C1685 C1681 1.429 . S
C1685 C1686 1.519 1_556 S
C1686 C1670 1.363 1_554 S
C1686 C1682 1.377 . S
C1686 C1685 1.519 1_554 S
H1687 C1662 0.950 . S
H1688 C1664 0.950 . S
H1689 C1665 0.949 . S
H1690 C1667 0.950 . S
H1691 C1669 0.950 1_554 S
C1692 C1693 1.349 . S
C1692 C1694 1.327 . S
C1692 H1717 0.950 . S
C1693 C1692 1.349 . S
C1693 C1709 1.349 . S
C1694 C1692 1.327 . S
C1694 C1713 1.429 1_565 S
C1694 H1718 0.930 1_556 S
C1695 C1712 1.574 . S
C1695 C1714 1.368 . S
C1695 H1719 0.949 . S
H1696 C1700 0.949 . S
C1697 C1698 1.349 1_556 S
C1697 C1699 1.327 . S
C1697 H1720 0.950 . S
C1698 C1697 1.349 1_554 S
C1698 C1710 1.349 . S
C1699 C1697 1.327 . S
C1699 C1715 1.429 . S
C1699 H1721 0.950 . S
C1700 H1696 0.949 . S
C1700 C1708 1.574 1_554 S
C1700 C1716 1.368 1_554 S
H1701 C1709 0.950 . S
H1702 C1707 0.950 . S
H1703 C1708 0.949 1_554 S
H1704 C1710 0.950 . S
H1705 C1711 0.950 . S
H1706 C1712 0.949 . S
C1707 H1702 0.950 . S
C1707 C1709 1.327 1_545 S
C1707 C1713 1.429 . S
C1708 C1700 1.574 1_556 S
C1708 H1703 0.949 1_556 S
C1708 C1714 1.368 . S
C1709 C1693 1.349 . S
C1709 H1701 0.950 . S
C1709 C1707 1.327 1_565 S
C1710 C1698 1.349 . S
C1710 H1704 0.950 . S
C1710 C1711 1.327 . S
C1711 H1705 0.950 . S
C1711 C1710 1.327 . S
C1711 C1715 1.429 1_554 S
C1712 C1695 1.574 . S
C1712 H1706 0.949 . S
C1712 C1716 1.368 . S
C1713 C1694 1.429 1_545 S
C1713 C1707 1.429 . S
C1713 C1714 1.523 . S
C1714 C1695 1.368 . S
C1714 C1708 1.368 . S
C1714 C1713 1.523 . S
C1715 C1699 1.429 . S
C1715 C1711 1.429 1_556 S
C1715 C1716 1.523 . S
C1716 C1700 1.368 1_556 S
C1716 C1712 1.368 . S
C1716 C1715 1.523 . S
H1717 C1692 0.950 . S
H1718 C1694 0.930 1_554 S
H1719 C1695 0.949 . S
H1720 C1697 0.950 . S
H1721 C1699 0.950 . S
C1722 C1723 1.349 . S
C1722 C1724 1.327 . S
C1722 H1747 0.950 . S
C1723 C1722 1.349 . S
C1723 C1739 1.349 . S
C1724 C1722 1.327 . S
C1724 C1743 1.429 . S
C1724 H1748 0.950 . S
C1725 C1742 1.574 1_554 S
C1725 C1744 1.368 . S
C1725 H1749 0.949 . S
H1726 C1730 0.949 . S
C1727 C1728 1.349 1_655 S
C1727 C1729 1.327 . S
C1727 H1750 0.950 . S
C1728 C1727 1.349 1_455 S
C1728 C1740 1.349 . S
C1729 C1727 1.327 . S
C1729 C1745 1.429 . S
C1729 H1751 0.950 . S
C1730 H1726 0.949 . S
C1730 C1738 1.574 . S
C1730 C1746 1.368 1_554 S
H1731 C1739 0.950 . S
H1732 C1737 0.950 . S
H1733 C1738 0.949 . S
H1734 C1740 0.950 . S
H1735 C1741 0.950 . S
H1736 C1742 0.949 . S
C1737 H1732 0.950 . S
C1737 C1739 1.327 . S
C1737 C1743 1.429 . S
C1738 C1730 1.574 . S
C1738 H1733 0.949 . S
C1738 C1744 1.368 . S
C1739 C1723 1.349 . S
C1739 H1731 0.950 . S
C1739 C1737 1.327 . S
C1740 C1728 1.349 . S
C1740 H1734 0.950 . S
C1740 C1741 1.327 . S
C1741 H1735 0.950 . S
C1741 C1740 1.327 . S
C1741 C1745 1.429 1_455 S
C1742 C1725 1.574 1_556 S
C1742 H1736 0.949 . S
C1742 C1746 1.368 . S
C1743 C1724 1.429 . S
C1743 C1737 1.429 . S
C1743 C1744 1.523 . S
C1744 C1725 1.368 . S
C1744 C1738 1.368 . S
C1744 C1743 1.523 . S
C1745 C1729 1.429 . S
C1745 C1741 1.429 1_655 S
C1745 C1746 1.523 . S
C1746 C1730 1.368 1_556 S
C1746 C1742 1.368 . S
C1746 C1745 1.523 . S
H1747 C1722 0.950 . S
H1748 C1724 0.950 . S
H1749 C1725 0.949 . S
H1750 C1727 0.950 . S
H1751 C1729 0.950 . S
C1752 C1753 1.349 . S
C1752 C1754 1.327 . S
C1752 H1777 0.950 . S
C1753 C1752 1.349 . S
C1753 C1769 1.349 . S
C1754 C1752 1.327 . S
C1754 C1773 1.429 . S
C1754 H1778 0.950 . S
C1755 C1772 1.574 . S
C1755 C1774 1.312 1_554 S
C1755 H1779 0.949 . S
H1756 C1760 0.949 . S
C1757 C1758 1.349 . S
C1757 C1759 1.327 . S
C1757 H1780 0.950 . S
C1758 C1757 1.349 . S
C1758 C1770 1.349 . S
C1759 C1757 1.327 . S
C1759 C1775 1.429 . S
C1759 H1781 0.950 . S
C1760 H1756 0.949 . S
C1760 C1768 1.574 . S
C1760 C1776 1.368 1_556 S
H1761 C1769 0.950 1_554 S
H1762 C1767 0.950 . S
H1763 C1768 0.949 . S
H1764 C1770 0.950 . S
H1765 C1771 0.950 1_556 S
H1766 C1772 0.949 . S
C1767 H1762 0.950 . S
C1767 C1769 1.327 1_554 S
C1767 C1773 1.429 1_554 S
C1768 C1760 1.574 . S
C1768 H1763 0.949 . S
C1768 C1774 1.412 . S
C1769 C1753 1.349 . S
C1769 H1761 0.950 1_556 S
C1769 C1767 1.327 1_556 S
C1770 C1758 1.349 . S
C1770 H1764 0.950 . S
C1770 C1771 1.327 . S
C1771 H1765 0.950 1_554 S
C1771 C1770 1.327 . S
C1771 C1775 1.429 . S
C1772 C1755 1.574 . S
C1772 H1766 0.949 . S
C1772 C1776 1.368 . S
C1773 C1754 1.429 . S
C1773 C1767 1.429 1_556 S
C1773 C1774 1.542 . S
C1774 C1755 1.312 1_556 S
C1774 C1768 1.412 . S
C1774 C1773 1.542 . S
C1775 C1759 1.429 . S
C1775 C1771 1.429 . S
C1775 C1776 1.523 . S
C1776 C1760 1.368 1_554 S
C1776 C1772 1.368 . S
C1776 C1775 1.523 . S
H1777 C1752 0.950 . S
H1778 C1754 0.950 . S
H1779 C1755 0.949 . S
H1780 C1757 0.950 . S
H1781 C1759 0.950 . S
C1782 C1783 1.349 . S
C1782 C1784 1.327 . S
C1782 H1807 0.950 . S
C1783 C1782 1.349 . S
C1783 C1799 1.349 . S
C1784 C1782 1.327 . S
C1784 C1803 1.429 . S
C1784 H1808 0.950 . S
C1785 C1802 1.574 . S
C1785 C1804 1.368 . S
C1785 H1809 0.949 . S
H1786 C1790 0.949 . S
C1787 C1788 1.349 . S
C1787 C1789 1.327 . S
C1787 H1810 0.950 . S
C1788 C1787 1.349 . S
C1788 C1800 1.349 . S
C1789 C1787 1.327 . S
C1789 C1805 1.429 . S
C1789 H1811 0.950 . S
C1790 H1786 0.949 . S
C1790 C1798 1.574 . S
C1790 C1806 1.368 . S
H1791 C1799 0.950 . S
H1792 C1797 0.950 . S
H1793 C1798 0.949 . S
H1794 C1800 0.950 . S
H1795 C1801 0.950 . S
H1796 C1802 0.949 . S
C1797 H1792 0.950 . S
C1797 C1799 1.327 . S
C1797 C1803 1.429 . S
C1798 C1790 1.574 . S
C1798 H1793 0.949 . S
C1798 C1804 1.368 . S
C1799 C1783 1.349 . S
C1799 H1791 0.950 . S
C1799 C1797 1.327 . S
C1800 C1788 1.349 . S
C1800 H1794 0.950 . S
C1800 C1801 1.327 . S
C1801 H1795 0.950 . S
C1801 C1800 1.327 . S
C1801 C1805 1.429 . S
C1802 C1785 1.574 . S
C1802 H1796 0.949 . S
C1802 C1806 1.368 . S
C1803 C1784 1.429 . S
C1803 C1797 1.429 . S
C1803 C1804 1.523 . S
C1804 C1785 1.368 . S
C1804 C1798 1.368 . S
C1804 C1803 1.523 . S
C1805 C1789 1.429 . S
C1805 C1801 1.429 . S
C1805 C1806 1.523 . S
C1806 C1790 1.368 . S
C1806 C1802 1.368 . S
C1806 C1805 1.523 . S
H1807 C1782 0.950 . S
H1808 C1784 0.950 . S
H1809 C1785 0.949 . S
H1810 C1787 0.950 . S
H1811 C1789 0.950 . S
C1812 C1813 1.349 . S
C1812 C1814 1.327 . S
C1812 H1837 0.950 . S
C1813 C1812 1.349 . S
C1813 C1829 1.349 . S
C1814 C1812 1.327 . S
C1814 C1833 1.429 . S
C1814 H1838 0.950 . S
C1815 C1832 1.574 . S
C1815 C1834 1.368 . S
C1815 H1839 0.949 . S
H1816 C1820 0.949 . S
C1817 C1818 1.349 . S
C1817 C1819 1.327 . S
C1817 H1840 0.950 . S
C1818 C1817 1.349 . S
C1818 C1830 1.349 . S
C1819 C1817 1.327 . S
C1819 C1835 1.429 . S
C1819 H1841 0.950 . S
C1820 H1816 0.949 . S
C1820 C1828 1.574 . S
C1820 C1836 1.368 . S
H1821 C1829 0.950 . S
H1822 C1827 0.950 . S
H1823 C1828 0.949 . S
H1824 C1830 0.950 . S
H1825 C1831 0.950 . S
H1826 C1832 0.949 . S
C1827 H1822 0.950 . S
C1827 C1829 1.327 . S
C1827 C1833 1.429 . S
C1828 C1820 1.574 . S
C1828 H1823 0.949 . S
C1828 C1834 1.368 . S
C1829 C1813 1.349 . S
C1829 H1821 0.950 . S
C1829 C1827 1.327 . S
C1830 C1818 1.349 . S
C1830 H1824 0.950 . S
C1830 C1831 1.327 . S
C1831 H1825 0.950 . S
C1831 C1830 1.327 . S
C1831 C1835 1.429 . S
C1832 C1815 1.574 . S
C1832 H1826 0.949 . S
C1832 C1836 1.368 . S
C1833 C1814 1.429 . S
C1833 C1827 1.429 . S
C1833 C1834 1.523 . S
C1834 C1815 1.368 . S
C1834 C1828 1.368 . S
C1834 C1833 1.523 . S
C1835 C1819 1.429 . S
C1835 C1831 1.429 . S
C1835 C1836 1.523 . S
C1836 C1820 1.368 . S
C1836 C1832 1.368 . S
C1836 C1835 1.523 . S
H1837 C1812 0.950 . S
H1838 C1814 0.950 . S
H1839 C1815 0.949 . S
H1840 C1817 0.950 . S
H1841 C1819 0.950 . S
C1842 C1843 1.349 . S
C1842 C1844 1.327 . S
C1842 H1867 0.950 . S
C1843 C1842 1.349 . S
C1843 C1859 1.349 . S
C1844 C1842 1.327 . S
C1844 C1863 1.429 . S
C1844 H1868 0.950 . S
C1845 C1862 1.574 . S
C1845 C1864 1.368 . S
C1845 H1869 0.949 . S
H1846 C1850 0.949 . S
C1847 C1848 1.349 . S
C1847 C1849 1.327 . S
C1847 H1870 0.950 . S
C1848 C1847 1.349 . S
C1848 C1860 1.349 . S
C1849 C1847 1.327 . S
C1849 C1865 1.429 . S
C1849 H1871 0.950 . S
C1850 H1846 0.949 . S
C1850 C1858 1.574 . S
C1850 C1866 1.368 . S
H1851 C1859 0.950 . S
H1852 C1857 0.950 . S
H1853 C1858 0.949 . S
H1854 C1860 0.950 . S
H1855 C1861 0.950 . S
H1856 C1862 0.949 . S
C1857 H1852 0.950 . S
C1857 C1859 1.327 . S
C1857 C1863 1.429 . S
C1858 C1850 1.574 . S
C1858 H1853 0.949 . S
C1858 C1864 1.368 . S
C1859 C1843 1.349 . S
C1859 H1851 0.950 . S
C1859 C1857 1.327 . S
C1860 C1848 1.349 . S
C1860 H1854 0.950 . S
C1860 C1861 1.327 . S
C1861 H1855 0.950 . S
C1861 C1860 1.327 . S
C1861 C1865 1.429 . S
C1862 C1845 1.574 . S
C1862 H1856 0.949 . S
C1862 C1866 1.368 . S
C1863 C1844 1.429 . S
C1863 C1857 1.429 . S
C1863 C1864 1.523 . S
C1864 C1845 1.368 . S
C1864 C1858 1.368 . S
C1864 C1863 1.523 . S
C1865 C1849 1.429 . S
C1865 C1861 1.429 . S
C1865 C1866 1.523 . S
C1866 C1850 1.368 . S
C1866 C1862 1.368 . S
C1866 C1865 1.523 . S
H1867 C1842 0.950 . S
H1868 C1844 0.950 . S
H1869 C1845 0.949 . S
H1870 C1847 0.950 . S
H1871 C1849 0.950 . S
C1872 C1873 1.349 . S
C1872 C1874 1.327 . S
C1872 H1897 0.950 . S
C1873 C1872 1.349 . S
C1873 C1889 1.349 . S
C1874 C1872 1.327 . S
C1874 C1893 1.429 . S
C1874 H1898 0.950 . S
C1875 C1892 1.574 . S
C1875 C1894 1.368 . S
C1875 H1899 0.949 . S
H1876 C1880 0.949 . S
C1877 C1878 1.349 . S
C1877 C1879 1.327 . S
C1877 H1900 0.950 . S
C1878 C1877 1.349 . S
C1878 C1890 1.349 . S
C1879 C1877 1.327 . S
C1879 C1895 1.429 . S
C1879 H1901 0.950 . S
C1880 H1876 0.949 . S
C1880 C1888 1.574 . S
C1880 C1896 1.368 . S
H1881 C1889 0.950 . S
H1882 C1887 0.950 . S
H1883 C1888 0.949 . S
H1884 C1890 0.950 . S
H1885 C1891 0.950 . S
H1886 C1892 0.949 . S
C1887 H1882 0.950 . S
C1887 C1889 1.327 . S
C1887 C1893 1.429 . S
C1888 C1880 1.574 . S
C1888 H1883 0.949 . S
C1888 C1894 1.368 . S
C1889 C1873 1.349 . S
C1889 H1881 0.950 . S
C1889 C1887 1.327 . S
C1890 C1878 1.349 . S
C1890 H1884 0.950 . S
C1890 C1891 1.327 . S
C1891 H1885 0.950 . S
C1891 C1890 1.327 . S
C1891 C1895 1.429 . S
C1892 C1875 1.574 . S
C1892 H1886 0.949 . S
C1892 C1896 1.368 . S
C1893 C1874 1.429 . S
C1893 C1887 1.429 . S
C1893 C1894 1.523 . S
C1894 C1875 1.368 . S
C1894 C1888 1.368 . S
C1894 C1893 1.523 . S
C1895 C1879 1.429 . S
C1895 C1891 1.429 . S
C1895 C1896 1.523 . S
C1896 C1880 1.368 . S
C1896 C1892 1.368 . S
C1896 C1895 1.523 . S
H1897 C1872 0.950 . S
H1898 C1874 0.950 . S
H1899 C1875 0.949 . S
H1900 C1877 0.950 . S
H1901 C1879 0.950 . S
C1902 C1903 1.349 . S
C1902 C1904 1.327 . S
C1902 H1927 0.950 . S
C1903 C1902 1.349 . S
C1903 C1919 1.349 . S
C1904 C1902 1.327 . S
C1904 C1923 1.429 . S
C1904 H1928 0.950 . S
C1905 C1922 1.574 . S
C1905 C1924 1.368 . S
C1905 H1929 0.949 . S
H1906 C1910 0.949 . S
C1907 C1908 1.349 . S
C1907 C1909 1.327 . S
C1907 H1930 0.957 . S
C1908 C1907 1.349 . S
C1908 C1920 1.349 . S
C1909 C1907 1.327 . S
C1909 C1925 1.429 . S
C1909 H1931 0.950 . S
C1910 H1906 0.949 . S
C1910 C1918 1.574 . S
C1910 C1926 1.368 . S
H1911 C1919 0.950 . S
H1912 C1917 0.950 . S
H1913 C1918 0.949 . S
H1914 C1920 0.950 . S
H1915 C1921 0.950 . S
H1916 C1922 0.949 . S
C1917 H1912 0.950 . S
C1917 C1919 1.327 . S
C1917 C1923 1.429 . S
C1918 C1910 1.574 . S
C1918 H1913 0.949 . S
C1918 C1924 1.368 . S
C1919 C1903 1.349 . S
C1919 H1911 0.950 . S
C1919 C1917 1.327 . S
C1920 C1908 1.349 . S
C1920 H1914 0.950 . S
C1920 C1921 1.327 . S
C1921 H1915 0.950 . S
C1921 C1920 1.327 . S
C1921 C1925 1.429 . S
C1922 C1905 1.574 . S
C1922 H1916 0.949 . S
C1922 C1926 1.368 . S
C1923 C1904 1.429 . S
C1923 C1917 1.429 . S
C1923 C1924 1.523 . S
C1924 C1905 1.368 . S
C1924 C1918 1.368 . S
C1924 C1923 1.523 . S
C1925 C1909 1.429 . S
C1925 C1921 1.429 . S
C1925 C1926 1.523 . S
C1926 C1910 1.368 . S
C1926 C1922 1.368 . S
C1926 C1925 1.523 . S
H1927 C1902 0.950 . S
H1928 C1904 0.950 . S
H1929 C1905 0.949 . S
H1930 C1907 0.957 . S
H1931 C1909 0.950 . S
C1932 C1933 1.349 . S
C1932 C1934 1.327 . S
C1932 H1957 0.950 . S
C1933 C1932 1.349 . S
C1933 C1949 1.349 . S
C1934 C1932 1.327 . S
C1934 C1953 1.429 . S
C1934 H1958 0.950 . S
C1935 C1952 1.574 . S
C1935 C1954 1.368 . S
C1935 H1959 0.949 1_655 S
H1936 C1940 0.949 . S
C1937 C1938 1.349 1_455 S
C1937 C1939 1.346 . S
C1937 H1960 0.950 . S
C1938 C1937 1.349 1_655 S
C1938 C1950 1.349 . S
C1939 C1937 1.346 . S
C1939 C1955 1.398 1_455 S
C1939 H1961 0.962 . S
C1940 H1936 0.949 . S
C1940 C1948 1.574 . S
C1940 C1956 1.368 . S
H1941 C1949 0.950 . S
H1942 C1947 0.950 1_455 S
H1943 C1948 0.949 . S
H1944 C1950 0.950 . S
H1945 C1951 0.950 . S
H1946 C1952 0.949 1_455 S
C1947 H1942 0.950 1_655 S
C1947 C1949 1.327 . S
C1947 C1953 1.429 . S
C1948 C1940 1.574 . S
C1948 H1943 0.949 . S
C1948 C1954 1.368 . S
C1949 C1933 1.349 . S
C1949 H1941 0.950 . S
C1949 C1947 1.327 . S
C1950 C1938 1.349 . S
C1950 H1944 0.950 . S
C1950 C1951 1.327 . S
C1951 H1945 0.950 . S
C1951 C1950 1.327 . S
C1951 C1955 1.429 . S
C1952 C1935 1.574 . S
C1952 H1946 0.949 1_655 S
C1952 C1956 1.368 . S
C1953 C1934 1.429 . S
C1953 C1947 1.429 . S
C1953 C1954 1.523 . S
C1954 C1935 1.368 . S
C1954 C1948 1.368 . S
C1954 C1953 1.523 . S
C1955 C1939 1.398 1_655 S
C1955 C1951 1.429 . S
C1955 C1956 1.523 . S
C1956 C1940 1.368 . S
C1956 C1952 1.368 . S
C1956 C1955 1.523 . S
H1957 C1932 0.950 . S
H1958 C1934 0.950 . S
H1959 C1935 0.949 1_455 S
H1960 C1937 0.950 . S
H1961 C1939 0.962 . S
C1962 C1963 1.349 . S
C1962 C1964 1.327 . S
C1962 H1987 0.950 . S
C1963 C1962 1.349 . S
C1963 C1979 1.349 . S
C1964 C1962 1.327 . S
C1964 C1983 1.429 . S
C1964 H1988 0.950 . S
C1965 C1982 1.574 . S
C1965 C1984 1.368 . S
C1965 H1989 0.949 . S
H1966 C1970 0.949 . S
C1967 C1968 1.349 . S
C1967 C1969 1.327 . S
C1967 H1990 0.950 . S
C1968 C1967 1.349 . S
C1968 C1980 1.349 . S
C1969 C1967 1.327 . S
C1969 C1985 1.429 . S
C1969 H1991 0.950 . S
C1970 H1966 0.949 . S
C1970 C1978 1.574 . S
C1970 C1986 1.368 . S
H1971 C1979 0.950 . S
H1972 C1977 0.950 . S
H1973 C1978 0.949 . S
H1974 C1980 0.950 . S
H1975 C1981 0.950 . S
H1976 C1982 0.949 . S
C1977 H1972 0.950 . S
C1977 C1979 1.327 . S
C1977 C1983 1.429 . S
C1978 C1970 1.574 . S
C1978 H1973 0.949 . S
C1978 C1984 1.368 . S
C1979 C1963 1.349 . S
C1979 H1971 0.950 . S
C1979 C1977 1.327 . S
C1980 C1968 1.349 . S
C1980 H1974 0.950 . S
C1980 C1981 1.327 . S
C1981 H1975 0.950 . S
C1981 C1980 1.327 . S
C1981 C1985 1.429 . S
C1982 C1965 1.574 . S
C1982 H1976 0.949 . S
C1982 C1986 1.368 . S
C1983 C1964 1.429 . S
C1983 C1977 1.429 . S
C1983 C1984 1.523 . S
C1984 C1965 1.368 . S
C1984 C1978 1.368 . S
C1984 C1983 1.523 . S
C1985 C1969 1.429 . S
C1985 C1981 1.429 . S
C1985 C1986 1.523 . S
C1986 C1970 1.368 . S
C1986 C1982 1.368 . S
C1986 C1985 1.523 . S
H1987 C1962 0.950 . S
H1988 C1964 0.950 . S
H1989 C1965 0.949 . S
H1990 C1967 0.950 . S
H1991 C1969 0.950 . S
C1992 C1993 1.349 1_545 S
C1992 C1994 1.327 . S
C1992 H2017 0.950 . S
C1993 C1992 1.349 1_565 S
C1993 C2009 1.349 . S
C1994 C1992 1.327 . S
C1994 C2013 1.429 1_545 S
C1994 H2018 0.950 . S
C1995 C2012 1.574 . S
C1995 C2014 1.368 . S
C1995 H2019 0.949 . S
H1996 C2000 0.949 . S
C1997 C1998 1.349 . S
C1997 C1999 1.327 . S
C1997 H2020 0.950 . S
C1998 C1997 1.349 . S
C1998 C2010 1.349 . S
C1999 C1997 1.327 . S
C1999 C2015 1.429 . S
C1999 H2021 0.950 . S
C2000 H1996 0.949 . S
C2000 C2008 1.574 . S
C2000 C2016 1.368 . S
H2001 C2009 0.950 . S
H2002 C2007 0.950 . S
H2003 C2008 0.949 1_545 S
H2004 C2010 0.950 . S
H2005 C2011 0.950 . S
H2006 C2012 0.949 . S
C2007 H2002 0.950 . S
C2007 C2009 1.327 . S
C2007 C2013 1.429 . S
C2008 C2000 1.574 . S
C2008 H2003 0.949 1_565 S
C2008 C2014 1.368 . S
C2009 C1993 1.349 . S
C2009 H2001 0.950 . S
C2009 C2007 1.327 . S
C2010 C1998 1.349 . S
C2010 H2004 0.950 . S
C2010 C2011 1.327 . S
C2011 H2005 0.950 . S
C2011 C2010 1.327 . S
C2011 C2015 1.429 . S
C2012 C1995 1.574 . S
C2012 H2006 0.949 . S
C2012 C2016 1.368 . S
C2013 C1994 1.429 1_565 S
C2013 C2007 1.429 . S
C2013 C2014 1.523 . S
C2014 C1995 1.368 . S
C2014 C2008 1.368 . S
C2014 C2013 1.523 . S
C2015 C1999 1.429 . S
C2015 C2011 1.429 . S
C2015 C2016 1.523 . S
C2016 C2000 1.368 . S
C2016 C2012 1.368 . S
C2016 C2015 1.523 . S
H2017 C1992 0.950 . S
H2018 C1994 0.950 . S
H2019 C1995 0.949 . S
H2020 C1997 0.950 . S
H2021 C1999 0.950 . S
C2022 C2023 1.349 . S
C2022 C2024 1.327 . S
C2022 H2047 0.950 . S
C2023 C2022 1.349 . S
C2023 C2039 1.349 . S
C2024 C2022 1.327 . S
C2024 C2043 1.429 . S
C2024 H2048 0.950 . S
C2025 C2042 1.574 . S
C2025 C2044 1.368 . S
C2025 H2049 0.949 . S
H2026 C2030 0.949 . S
C2027 C2028 1.349 . S
C2027 C2029 1.327 . S
C2027 H2050 0.950 . S
C2028 C2027 1.349 . S
C2028 C2040 1.344 . S
C2029 C2027 1.327 . S
C2029 C2045 1.429 . S
C2029 H2051 0.950 . S
C2030 H2026 0.949 . S
C2030 C2038 1.574 . S
C2030 C2046 1.368 . S
H2031 C2039 0.950 . S
H2032 C2037 0.950 . S
H2033 C2038 0.949 . S
H2034 C2040 0.934 1_655 S
H2035 C2041 0.955 1_655 S
H2036 C2042 0.949 . S
C2037 H2032 0.950 . S
C2037 C2039 1.327 . S
C2037 C2043 1.429 . S
C2038 C2030 1.574 . S
C2038 H2033 0.949 . S
C2038 C2044 1.368 . S
C2039 C2023 1.349 . S
C2039 H2031 0.950 . S
C2039 C2037 1.327 . S
C2040 C2028 1.344 . S
C2040 H2034 0.934 1_455 S
C2040 C2041 1.349 . S
C2041 H2035 0.955 1_455 S
C2041 C2040 1.349 . S
C2041 C2045 1.429 . S
C2042 C2025 1.574 . S
C2042 H2036 0.949 . S
C2042 C2046 1.368 . S
C2043 C2024 1.429 . S
C2043 C2037 1.429 . S
C2043 C2044 1.523 . S
C2044 C2025 1.368 . S
C2044 C2038 1.368 . S
C2044 C2043 1.523 . S
C2045 C2029 1.429 . S
C2045 C2041 1.429 . S
C2045 C2046 1.523 . S
C2046 C2030 1.368 . S
C2046 C2042 1.368 . S
C2046 C2045 1.523 . S
H2047 C2022 0.950 . S
H2048 C2024 0.950 . S
H2049 C2025 0.949 . S
H2050 C2027 0.950 . S
H2051 C2029 0.950 . S
C2052 C2053 1.349 . S
C2052 C2054 1.327 . S
C2052 H2077 0.950 . S
C2053 C2052 1.349 . S
C2053 C2069 1.349 . S
C2054 C2052 1.327 . S
C2054 C2073 1.429 . S
C2054 H2078 0.950 . S
C2055 C2072 1.574 . S
C2055 C2074 1.368 . S
C2055 H2079 0.949 . S
H2056 C2060 0.949 . S
C2057 C2058 1.349 . S
C2057 C2059 1.327 . S
C2057 H2080 0.950 . S
C2058 C2057 1.349 . S
C2058 C2070 1.349 . S
C2059 C2057 1.327 . S
C2059 C2075 1.429 . S
C2059 H2081 0.950 . S
C2060 H2056 0.949 . S
C2060 C2068 1.574 . S
C2060 C2076 1.368 . S
H2061 C2069 0.950 . S
H2062 C2067 0.950 . S
H2063 C2068 0.949 . S
H2064 C2070 0.950 . S
H2065 C2071 0.950 . S
H2066 C2072 0.949 . S
C2067 H2062 0.950 . S
C2067 C2069 1.327 . S
C2067 C2073 1.429 . S
C2068 C2060 1.574 . S
C2068 H2063 0.949 . S
C2068 C2074 1.368 . S
C2069 C2053 1.349 . S
C2069 H2061 0.950 . S
C2069 C2067 1.327 . S
C2070 C2058 1.349 . S
C2070 H2064 0.950 . S
C2070 C2071 1.327 . S
C2071 H2065 0.950 . S
C2071 C2070 1.327 . S
C2071 C2075 1.429 . S
C2072 C2055 1.574 . S
C2072 H2066 0.949 . S
C2072 C2076 1.368 . S
C2073 C2054 1.429 . S
C2073 C2067 1.429 . S
C2073 C2074 1.523 . S
C2074 C2055 1.368 . S
C2074 C2068 1.368 . S
C2074 C2073 1.523 . S
C2075 C2059 1.429 . S
C2075 C2071 1.429 . S
C2075 C2076 1.523 . S
C2076 C2060 1.368 . S
C2076 C2072 1.368 . S
C2076 C2075 1.523 . S
H2077 C2052 0.950 . S
H2078 C2054 0.950 . S
H2079 C2055 0.949 . S
H2080 C2057 0.950 . S
H2081 C2059 0.950 . S
C2082 C2083 1.349 . S
C2082 C2084 1.327 . S
C2082 H2107 0.950 . S
C2083 C2082 1.349 . S
C2083 C2099 1.349 . S
C2084 C2082 1.327 . S
C2084 C2103 1.429 . S
C2084 H2108 0.950 . S
C2085 C2102 1.574 . S
C2085 C2104 1.368 . S
C2085 H2109 0.949 . S
H2086 C2090 0.949 . S
C2087 C2088 1.349 . S
C2087 C2089 1.327 . S
C2087 H2110 0.950 . S
C2088 C2087 1.349 . S
C2088 C2100 1.349 . S
C2089 C2087 1.327 . S
C2089 C2105 1.429 . S
C2089 H2111 0.950 . S
C2090 H2086 0.949 . S
C2090 C2098 1.574 . S
C2090 C2106 1.368 . S
H2091 C2099 0.950 . S
H2092 C2097 0.950 . S
H2093 C2098 0.949 . S
H2094 C2100 0.950 . S
H2095 C2101 0.950 . S
H2096 C2102 0.949 . S
C2097 H2092 0.950 . S
C2097 C2099 1.327 . S
C2097 C2103 1.429 . S
C2098 C2090 1.574 . S
C2098 H2093 0.949 . S
C2098 C2104 1.368 . S
C2099 C2083 1.349 . S
C2099 H2091 0.950 . S
C2099 C2097 1.327 . S
C2100 C2088 1.349 . S
C2100 H2094 0.950 . S
C2100 C2101 1.327 . S
C2101 H2095 0.950 . S
C2101 C2100 1.327 . S
C2101 C2105 1.429 . S
C2102 C2085 1.574 . S
C2102 H2096 0.949 . S
C2102 C2106 1.368 . S
C2103 C2084 1.429 . S
C2103 C2097 1.429 . S
C2103 C2104 1.523 . S
C2104 C2085 1.368 . S
C2104 C2098 1.368 . S
C2104 C2103 1.523 . S
C2105 C2089 1.429 . S
C2105 C2101 1.429 . S
C2105 C2106 1.523 . S
C2106 C2090 1.368 . S
C2106 C2102 1.368 . S
C2106 C2105 1.523 . S
H2107 C2082 0.950 . S
H2108 C2084 0.950 . S
H2109 C2085 0.949 . S
H2110 C2087 0.950 . S
H2111 C2089 0.950 . S
C2112 C2113 1.349 . S
C2112 C2114 1.327 . S
C2112 H2137 0.950 . S
C2113 C2112 1.349 . S
C2113 C2129 1.349 . S
C2114 C2112 1.327 . S
C2114 C2133 1.429 . S
C2114 H2138 0.950 . S
C2115 C2132 1.574 . S
C2115 C2134 1.368 . S
C2115 H2139 0.949 . S
H2116 C2120 0.949 . S
C2117 C2118 1.349 . S
C2117 C2119 1.327 . S
C2117 H2140 0.950 . S
C2118 C2117 1.349 . S
C2118 C2130 1.349 . S
C2119 C2117 1.327 . S
C2119 C2135 1.429 . S
C2119 H2141 0.950 . S
C2120 H2116 0.949 . S
C2120 C2128 1.574 . S
C2120 C2136 1.368 . S
H2121 C2129 0.950 . S
H2122 C2127 0.950 . S
H2123 C2128 0.949 . S
H2124 C2130 0.950 . S
H2125 C2131 0.950 . S
H2126 C2132 0.949 . S
C2127 H2122 0.950 . S
C2127 C2129 1.327 . S
C2127 C2133 1.429 . S
C2128 C2120 1.574 . S
C2128 H2123 0.949 . S
C2128 C2134 1.368 . S
C2129 C2113 1.349 . S
C2129 H2121 0.950 . S
C2129 C2127 1.327 . S
C2130 C2118 1.349 . S
C2130 H2124 0.950 . S
C2130 C2131 1.327 . S
C2131 H2125 0.950 . S
C2131 C2130 1.327 . S
C2131 C2135 1.429 . S
C2132 C2115 1.574 . S
C2132 H2126 0.949 . S
C2132 C2136 1.368 . S
C2133 C2114 1.429 . S
C2133 C2127 1.429 . S
C2133 C2134 1.523 . S
C2134 C2115 1.368 . S
C2134 C2128 1.368 . S
C2134 C2133 1.523 . S
C2135 C2119 1.429 . S
C2135 C2131 1.429 . S
C2135 C2136 1.523 . S
C2136 C2120 1.368 . S
C2136 C2132 1.368 . S
C2136 C2135 1.523 . S
H2137 C2112 0.950 . S
H2138 C2114 0.950 . S
H2139 C2115 0.949 . S
H2140 C2117 0.950 . S
H2141 C2119 0.950 . S
C1063 C33 2.388 . S
C1068 C210 2.385 . S
C1093 C92 2.479 . S
C1098 C269 2.472 . S
C1123 C298 2.472 . S
C1128 C151 2.429 . S
C1153 C387 2.388 . S
C1158 C564 2.385 . S
C1183 C446 2.478 . S
C1188 C623 2.472 . S
C1213 C652 2.472 . S
C1218 C505 2.429 . S
C1243 C918 2.385 . S
C1248 C741 2.388 . S
C1273 C977 2.472 . S
C1278 C800 2.478 1_545 S
C1303 C1006 2.472 . S
C1308 C859 2.429 1_655 S
C1333 C5 1.621 . S
C1338 C536 1.626 . S
C1363 C64 1.845 . S
C1368 C595 1.854 . S
C1393 C701 1.767 . S
C1398 C123 1.773 . S
C1423 C182 1.626 . S
C1428 C713 1.621 . S
C1453 C241 1.855 . S
C1458 C772 1.845 . S
C1483 C347 1.767 . S
C1488 C831 1.773 . S
C1513 C359 1.621 . S
C1518 C890 1.626 . S
C1543 C418 1.845 . S
C1548 C949 1.854 . S
C1573 C1055 1.767 . S
C1578 C477 1.773 . S
C1603 C52 0.073 . S
C1608 C239 0.168 . S
C1633 C111 0.536 . S
C1638 C328 0.527 . S
C1663 C170 0.098 . S
C1668 C180 0.145 . S
C1693 C229 0.234 . S
C1698 C62 0.209 . S
C1723 C121 0.315 . S
C1728 C288 0.311 . S
C1753 C300 0.152 . S
C1758 C3 0.138 . S
C1783 C406 0.073 . S
C1788 C593 0.168 . S
C1813 C682 0.526 . S
C1818 C465 0.535 . S
C1843 C534 0.145 . S
C1848 C524 0.098 . S
C1873 C416 0.209 . S
C1878 C583 0.234 . S
C1903 C642 0.312 . S
C1908 C475 0.315 . S
C1933 C654 0.152 . S
C1938 C357 0.138 . S
C1963 C947 0.168 . S
C1968 C760 0.073 . S
C1993 C1036 0.527 . S
C1998 C819 0.536 . S
C2023 C878 0.098 . S
C2028 C888 0.145 . S
C2053 C770 0.209 . S
C2058 C937 0.233 . S
C2083 C829 0.315 . S
C2088 C996 0.311 . S
C2113 C711 0.138 . S
C2118 C1008 0.152 . S
