# Generated by pormake.
# Topology uog, (4)-cn, num edge types: 1
# Building blocks:
#     Node 0, Type 0, BuildingBlock: ESEHIV_clean_sbu_0, # of connection points: 4
#     Node 1, Type 0, BuildingBlock: ESEHIV_clean_sbu_0, # of connection points: 4
#     Node 2, Type 0, BuildingBlock: ESEHIV_clean_sbu_0, # of connection points: 4
#     Node 3, Type 0, BuildingBlock: ESEHIV_clean_sbu_0, # of connection points: 4
#     Node 4, Type 0, BuildingBlock: ESEHIV_clean_sbu_0, # of connection points: 4
#     Node 5, Type 0, BuildingBlock: ESEHIV_clean_sbu_0, # of connection points: 4
#     Edge 6, Type (0, 0), BuildingBlock: XUDNAN_clean_linker_2, # of connection points: 2
#     Edge 7, Type (0, 0), BuildingBlock: XUDNAN_clean_linker_2, # of connection points: 2
#     Edge 8, Type (0, 0), BuildingBlock: XUDNAN_clean_linker_2, # of connection points: 2
#     Edge 9, Type (0, 0), BuildingBlock: XUDNAN_clean_linker_2, # of connection points: 2
#     Edge 10, Type (0, 0), BuildingBlock: XUDNAN_clean_linker_2, # of connection points: 2
#     Edge 11, Type (0, 0), BuildingBlock: XUDNAN_clean_linker_2, # of connection points: 2
#     Edge 12, Type (0, 0), BuildingBlock: XUDNAN_clean_linker_2, # of connection points: 2
#     Edge 13, Type (0, 0), BuildingBlock: XUDNAN_clean_linker_2, # of connection points: 2
#     Edge 14, Type (0, 0), BuildingBlock: XUDNAN_clean_linker_2, # of connection points: 2
#     Edge 15, Type (0, 0), BuildingBlock: XUDNAN_clean_linker_2, # of connection points: 2
#     Edge 16, Type (0, 0), BuildingBlock: XUDNAN_clean_linker_2, # of connection points: 2
#     Edge 17, Type (0, 0), BuildingBlock: XUDNAN_clean_linker_2, # of connection points: 2
# Relax obj value: 0.018
# Max RMSD: 0.205
# Mean RMSD: 0.149
data_MOF--net-uog--node1-ESEHIV_clean_sbu_0--edge1-XUDNAN_clean_linker_2
_symmetry_space_group_name_H-M    P1
_symmetry_Int_Tables_number       1
_symmetry_cell_setting            triclinic
loop_
_symmetry_equiv_pos_as_xyz
'x, y, z'
_cell_length_a     28.445047
_cell_length_b     34.009005
_cell_length_c     45.145528
_cell_angle_alpha  90.502646
_cell_angle_beta   89.651736
_cell_angle_gamma 114.63301
loop_
_atom_site_label
_atom_site_type_symbol
_atom_site_fract_x
_atom_site_fract_y
_atom_site_fract_z
_atom_type_partial_charge
Cu0 Cu 0.58861 0.29241 0.17192 0.0
N1 N 0.53942 0.31481 0.16876 0.0
N2 N 0.50948 0.3658 0.17094 0.0
C3 C 0.54211 0.35076 0.18276 0.0
C4 C 0.48508 0.33818 0.14871 0.0
C5 C 0.50354 0.30656 0.14749 0.0
O6 O 0.63127 0.32009 0.20608 0.0
C7 C 0.61068 0.28104 0.11309 0.0
O8 O 0.56702 0.24644 0.11576 0.0
H9 H 0.57091 0.36786 0.19935 0.0
H10 H 0.49445 0.28139 0.13086 0.0
N11 N 0.55824 0.23237 0.17648 0.0
N12 N 0.55162 0.16447 0.1774 0.0
C13 C 0.58394 0.20695 0.17626 0.0
C14 C 0.50783 0.20535 0.17804 0.0
C15 C 0.5036 0.16343 0.17866 0.0
C16 C 0.61963 0.30273 0.2315 0.0
O17 O 0.5804 0.2648 0.23413 0.0
H18 H 0.62563 0.21973 0.17485 0.0
H19 H 0.47641 0.21538 0.17788 0.0
O20 O 0.62839 0.30621 0.13528 0.0
H21 H 0.45817 0.34205 0.13342 0.0
H22 H 0.46777 0.13453 0.17896 0.0
Cu23 Cu 0.33607 0.61934 0.50856 0.0
N24 N 0.34839 0.65121 0.47357 0.0
N25 N 0.35663 0.66763 0.42541 0.0
C26 C 0.35175 0.63739 0.44589 0.0
C27 C 0.35597 0.70156 0.44082 0.0
C28 C 0.35038 0.69119 0.47043 0.0
O29 O 0.3731 0.58216 0.50708 0.0
C30 C 0.23443 0.56319 0.53141 0.0
O31 O 0.25817 0.55104 0.55183 0.0
H32 H 0.35007 0.60565 0.4409 0.0
H33 H 0.34628 0.71088 0.48831 0.0
N34 N 0.36177 0.65683 0.54112 0.0
N35 N 0.37665 0.68211 0.58766 0.0
C36 C 0.34993 0.64787 0.56998 0.0
C37 C 0.39791 0.69795 0.5407 0.0
C38 C 0.40676 0.71376 0.56931 0.0
C39 C 0.42069 0.59946 0.49946 0.0
O40 O 0.44141 0.64044 0.49193 0.0
H41 H 0.32227 0.61702 0.57797 0.0
H42 H 0.41727 0.71509 0.52102 0.0
O43 O 0.26081 0.58927 0.51138 0.0
H44 H 0.35737 0.73112 0.43128 0.0
H45 H 0.43408 0.74568 0.57616 0.0
Cu46 Cu 0.76461 0.28207 0.85199 0.0
N47 N 0.73483 0.22184 0.84833 0.0
N48 N 0.67371 0.15403 0.84893 0.0
C49 C 0.68398 0.19651 0.85074 0.0
C50 C 0.72018 0.15277 0.84491 0.0
C51 C 0.75785 0.1947 0.84462 0.0
O52 O 0.74077 0.2981 0.88867 0.0
C53 C 0.75238 0.29248 0.79234 0.0
O54 O 0.7695 0.26211 0.79086 0.0
H55 H 0.65528 0.20927 0.85408 0.0
H56 H 0.79912 0.20467 0.84247 0.0
N57 N 0.83638 0.30483 0.85376 0.0
N58 N 0.91708 0.35565 0.85052 0.0
C59 C 0.86862 0.34083 0.83975 0.0
C60 C 0.86548 0.29637 0.87394 0.0
C61 C 0.91541 0.3279 0.87209 0.0
C62 C 0.73551 0.27466 0.91137 0.0
O63 O 0.74531 0.24028 0.90915 0.0
H64 H 0.85583 0.35806 0.82395 0.0
H65 H 0.85063 0.27105 0.89031 0.0
O66 O 0.7462 0.30639 0.81766 0.0
H67 H 0.72678 0.12371 0.84325 0.0
H68 H 0.94725 0.3316 0.88653 0.0
Cu69 Cu 0.49923 0.75872 0.17258 0.0
N70 N 0.53389 0.7231 0.1673 0.0
N71 N 0.54961 0.66409 0.16848 0.0
C72 C 0.52442 0.68573 0.18133 0.0
C73 C 0.57644 0.68893 0.14575 0.0
C74 C 0.56683 0.72541 0.14516 0.0
O75 O 0.45769 0.74145 0.20834 0.0
C76 C 0.4824 0.7737 0.11381 0.0
O77 O 0.53165 0.79996 0.11571 0.0
H78 H 0.49716 0.67327 0.19937 0.0
H79 H 0.58089 0.75078 0.12883 0.0
N80 N 0.5468 0.81598 0.17762 0.0
N81 N 0.58108 0.88819 0.17925 0.0
C82 C 0.53748 0.85159 0.17574 0.0
C83 C 0.5978 0.83039 0.18275 0.0
C84 C 0.6191 0.87494 0.1837 0.0
C85 C 0.42045 0.70456 0.21202 0.0
O86 O 0.40547 0.67705 0.18972 0.0
H87 H 0.49977 0.85062 0.17095 0.0
H88 H 0.6181 0.80989 0.18526 0.0
O89 O 0.45899 0.75324 0.13682 0.0
H90 H 0.59992 0.68061 0.13012 0.0
H91 H 0.65944 0.8959 0.18741 0.0
Cu92 Cu 0.75728 0.44771 0.51495 0.0
N93 N 0.75662 0.41991 0.47902 0.0
N94 N 0.74493 0.39805 0.43185 0.0
C95 C 0.73986 0.42543 0.45217 0.0
C96 C 0.76579 0.37473 0.44637 0.0
C97 C 0.77328 0.3885 0.47538 0.0
O98 O 0.70561 0.47148 0.51577 0.0
C99 C 0.86562 0.49901 0.50659 0.0
O100 O 0.85535 0.49273 0.47817 0.0
H101 H 0.72345 0.44832 0.44772 0.0
H102 H 0.7895 0.37633 0.49276 0.0
N103 N 0.73592 0.40584 0.54435 0.0
N104 N 0.72337 0.37581 0.5891 0.0
C105 C 0.74436 0.41292 0.57361 0.0
C106 C 0.70828 0.36291 0.54122 0.0
C107 C 0.70077 0.34422 0.56881 0.0
C108 C 0.7017 0.50123 0.50049 0.0
O109 O 0.73835 0.5231 0.48154 0.0
H110 H 0.76594 0.44461 0.58326 0.0
H111 H 0.69426 0.34639 0.52036 0.0
O112 O 0.82836 0.48651 0.52516 0.0
H113 H 0.77526 0.34974 0.4366 0.0
H114 H 0.67962 0.31018 0.57362 0.0
Cu115 Cu 0.31528 0.74948 0.8549 0.0
N116 N 0.32658 0.80784 0.85388 0.0
N117 N 0.36558 0.88018 0.85392 0.0
C118 C 0.37209 0.84303 0.85269 0.0
C119 C 0.31395 0.86777 0.85539 0.0
C120 C 0.2901 0.82329 0.85526 0.0
O121 O 0.34068 0.73737 0.89205 0.0
C122 C 0.34171 0.75049 0.79495 0.0
O123 O 0.32489 0.78104 0.79424 0.0
H124 H 0.40923 0.84147 0.85152 0.0
H125 H 0.24895 0.8036 0.85633 0.0
N126 N 0.24461 0.71469 0.85629 0.0
N127 N 0.17129 0.65481 0.85319 0.0
C128 C 0.2191 0.6769 0.84188 0.0
C129 C 0.2118 0.71651 0.8773 0.0
C130 C 0.16647 0.67963 0.87541 0.0
C131 C 0.38395 0.7594 0.90434 0.0
O132 O 0.41941 0.7917 0.89003 0.0
H133 H 0.23673 0.66421 0.82524 0.0
H134 H 0.22157 0.74146 0.89415 0.0
O135 O 0.34297 0.73312 0.81965 0.0
H136 H 0.29465 0.88925 0.8565 0.0
H137 H 0.13351 0.6707 0.89015 0.0
H138 H 0.49184 0.08052 0.1928 0.0
H139 H 0.64299 0.16496 0.15804 0.0
H140 H 0.66689 0.10352 0.15569 0.0
H141 H 0.53322 1.01396 0.23717 0.0
H142 H 0.47751 0.96461 0.22883 0.0
H143 H 0.47226 1.01558 0.22853 0.0
H144 H 0.43796 1.00067 0.17468 0.0
H145 H 0.44307 0.94963 0.17481 0.0
H146 H 0.47544 0.9888 0.1465 0.0
H147 H 0.67505 0.03311 0.15704 0.0
H148 H 0.6656 0.95786 0.16076 0.0
H149 H 0.50863 0.91835 0.19309 0.0
C150 C 0.52987 0.08627 0.18451 0.0
C151 C 0.56551 0.12812 0.17589 0.0
C152 C 0.61507 0.13376 0.1654 0.0
C153 C 0.62904 0.09886 0.16376 0.0
C154 C 0.59304 0.05827 0.17247 0.0
C155 C 0.54439 0.05169 0.1825 0.0
C156 C 0.51271 1.00456 0.19007 0.0
C157 C 0.49808 0.99939 0.22311 0.0
C158 C 0.46444 0.98476 0.17033 0.0
C159 C 0.55126 0.98576 0.18274 0.0
C160 C 0.59741 1.01737 0.17274 0.0
C161 C 0.6391 1.00806 0.16486 0.0
C162 C 0.63348 0.96525 0.16723 0.0
C163 C 0.58644 0.93216 0.17726 0.0
C164 C 0.54486 0.94277 0.18506 0.0
H165 H 0.51731 0.62316 0.47552 0.0
H166 H 0.39981 0.5219 0.52677 0.0
H167 H 0.4587 0.48554 0.53215 0.0
H168 H 0.56544 0.55282 0.43647 0.0
H169 H 0.63155 0.59265 0.437 0.0
H170 H 0.57943 0.60963 0.43647 0.0
H171 H 0.6158 0.65539 0.48393 0.0
H172 H 0.66778 0.63831 0.48476 0.0
H173 H 0.62605 0.62975 0.51653 0.0
H174 H 0.53262 0.46279 0.53441 0.0
H175 H 0.61299 0.45218 0.53058 0.0
H176 H 0.68179 0.56733 0.47645 0.0
C177 C 0.50371 0.59314 0.4877 0.0
C178 C 0.45387 0.57541 0.5008 0.0
C179 C 0.43764 0.536 0.51644 0.0
C180 C 0.47093 0.51522 0.51969 0.0
C181 C 0.5201 0.534 0.50689 0.0
C182 C 0.53619 0.5718 0.4909 0.0
C183 C 0.59094 0.58535 0.47937 0.0
C184 C 0.59187 0.58508 0.4453 0.0
C185 C 0.62727 0.62984 0.49191 0.0
C186 C 0.60359 0.54964 0.49178 0.0
C187 C 0.56221 0.52041 0.50764 0.0
C188 C 0.56505 0.48529 0.52184 0.0
C189 C 0.6111 0.47967 0.5196 0.0
C190 C 0.65394 0.50885 0.50314 0.0
C191 C 0.64984 0.54431 0.48908 0.0
H192 H 0.97392 0.41499 0.89106 0.0
H193 H 0.95022 0.39094 0.79685 0.0
H194 H 1.0165 0.46506 0.7867 0.0
H195 H 0.98416 0.52218 0.88873 0.0
H196 H 1.03201 0.54237 0.9176 0.0
H197 H 0.98694 0.48632 0.91717 0.0
H198 H 0.063 0.46317 0.91737 0.0
H199 H 0.10834 0.5192 0.91801 0.0
H200 H 0.11252 0.48362 0.8893 0.0
H201 H 0.08536 0.54242 0.78738 0.0
H202 H 0.14619 0.61817 0.79882 0.0
H203 H 0.11882 0.59226 0.89257 0.0
C204 C 0.98368 0.42513 0.86833 0.0
C205 C 0.95806 0.39729 0.84463 0.0
C206 C 0.97015 0.41193 0.81516 0.0
C207 C 1.00762 0.4538 0.80927 0.0
C208 C 1.0319 0.48073 0.83318 0.0
C209 C 1.02006 0.46704 0.86214 0.0
C210 C 0.04864 0.50311 0.88391 0.0
C211 C 1.01067 0.51413 0.90296 0.0
C212 C 0.08531 0.49158 0.90329 0.0
C213 C 0.07838 0.5393 0.86273 0.0
C214 C 0.06887 0.52569 0.83356 0.0
C215 C 0.09288 0.55345 0.81013 0.0
C216 C 0.12729 0.59625 0.81676 0.0
C217 C 0.13645 0.61092 0.84648 0.0
C218 C 0.11169 0.58197 0.86965 0.0
H219 H 0.16921 0.56585 0.48747 0.0
H220 H 0.17158 0.53239 0.57982 0.0
H221 H 0.07881 0.51665 0.58426 0.0
H222 H 0.0817 0.6166 0.49486 0.0
H223 H 0.04828 0.59486 0.46063 0.0
H224 H 0.11504 0.60407 0.46466 0.0
H225 H 0.09204 0.52394 0.45119 0.0
H226 H 1.02535 0.51465 0.44673 0.0
H227 H 1.04223 0.48167 0.47182 0.0
H228 H 0.9861 0.50686 0.57903 0.0
H229 H 0.89829 0.49491 0.56308 0.0
H230 H 0.95525 0.53172 0.47354 0.0
C231 C 0.15018 0.55509 0.50861 0.0
C232 C 0.1778 0.55051 0.53335 0.0
C233 C 0.15129 0.53598 0.56053 0.0
C234 C 0.09864 0.52724 0.56332 0.0
C235 C 0.07277 0.5327 0.53864 0.0
C236 C 0.09744 0.5456 0.51167 0.0
C237 C 0.06027 0.54727 0.48827 0.0
C238 C 0.07736 0.59345 0.47642 0.0
C239 C 0.05464 0.51495 0.46302 0.0
C240 C 1.01088 0.5335 0.50631 0.0
C241 C 1.01907 0.52574 0.5354 0.0
C242 C 0.97924 0.51269 0.55627 0.0
C243 C 0.92946 0.50625 0.54702 0.0
C244 C 0.91965 0.51238 0.51703 0.0
C245 C 0.96133 0.52685 0.49662 0.0
H246 H 0.4637 0.91033 0.83152 0.0
H247 H 0.35788 0.94923 0.88029 0.0
H248 H 0.42536 0.02363 0.88377 0.0
H249 H 0.57788 0.97581 0.87287 0.0
H250 H 0.62019 0.98922 0.84108 0.0
H251 H 0.56327 0.93886 0.84188 0.0
H252 H 0.53237 0.95845 0.79256 0.0
H253 H 0.58922 1.00885 0.79159 0.0
H254 H 0.52592 1.00883 0.7898 0.0
H255 H 0.50428 0.09322 0.8831 0.0
H256 H 0.58936 0.15422 0.87752 0.0
H257 H 0.64468 0.07128 0.82854 0.0
C258 C 0.45478 0.93443 0.84304 0.0
C259 C 0.40522 0.92382 0.85551 0.0
C260 C 0.3951 0.95655 0.87013 0.0
C261 C 0.43334 0.99892 0.87241 0.0
C262 C 0.48164 1.00822 0.85992 0.0
C263 C 0.49254 0.97702 0.84545 0.0
C264 C 0.54773 0.9958 0.83394 0.0
C265 C 0.57911 0.9736 0.84831 0.0
C266 C 0.54885 0.9928 0.79995 0.0
C267 C 0.5661 0.04234 0.84437 0.0
C268 C 0.5273 0.0487 0.8593 0.0
C269 C 0.53489 0.08876 0.87124 0.0
C270 C 0.58342 0.12337 0.86774 0.0
C271 C 0.62393 0.11792 0.85233 0.0
C272 C 0.61486 0.07663 0.84059 0.0
H273 H 0.54213 0.60153 0.12891 0.0
H274 H 0.54075 0.62863 0.22277 0.0
H275 H 0.52747 0.55346 0.23402 0.0
H276 H 0.44185 0.49325 0.13164 0.0
H277 H 0.47121 0.4726 0.10364 0.0
H278 H 0.48166 0.5286 0.1032 0.0
H279 H 0.58084 0.55215 0.10414 0.0
H280 H 0.57071 0.49625 0.10436 0.0
H281 H 0.60875 0.53252 0.13307 0.0
H282 H 0.51879 0.47626 0.23466 0.0
H283 H 0.51084 0.4019 0.22456 0.0
H284 H 0.51207 0.42457 0.13028 0.0
C285 C 0.53955 0.5917 0.15182 0.0
C286 C 0.54304 0.62081 0.17505 0.0
C287 C 0.53822 0.60663 0.20475 0.0
C288 C 0.53074 0.56413 0.21129 0.0
C289 C 0.52733 0.53615 0.18781 0.0
C290 C 0.53116 0.54928 0.15866 0.0
C291 C 0.52511 0.51278 0.13746 0.0
C292 C 0.47709 0.50113 0.11784 0.0
C293 C 0.57428 0.52411 0.11866 0.0
C294 C 0.51788 0.47711 0.15921 0.0
C295 C 0.51962 0.49126 0.18816 0.0
C296 C 0.51665 0.46466 0.21209 0.0
C297 C 0.51215 0.42264 0.20622 0.0
C298 C 0.50988 0.40753 0.17673 0.0
C299 C 0.5123 0.43504 0.15301 0.0
H300 H 0.68192 0.21876 0.95453 0.0
H301 H 0.75369 0.3553 0.93337 0.0
H302 H 0.73257 0.3729 0.98382 0.0
H303 H 0.57585 0.22322 0.99659 0.0
H304 H 0.57456 0.18272 0.02247 0.0
H305 H 0.59629 0.1819 0.98502 0.0
H306 H 0.68253 0.18377 1.00492 0.0
H307 H 0.66133 0.18514 0.04242 0.0
H308 H 0.72147 0.22681 0.02965 0.0
H309 H 0.70741 0.37477 0.03829 0.0
H310 H 0.67018 0.36042 0.08904 0.0
H311 H 0.61046 0.2225 0.07192 0.0
C312 C 0.69309 0.25239 0.96049 0.0
C313 C 0.7197 0.28575 0.94028 0.0
C314 C 0.7331 0.32931 0.94864 0.0
C315 C 0.72157 0.33957 0.97724 0.0
C316 C 0.69592 0.30578 0.99687 0.0
C317 C 0.68102 0.26304 0.98857 0.0
C318 C 0.65217 0.23248 0.01315 0.0
C319 C 0.59641 0.20338 1.00374 0.0
C320 C 0.68113 0.20547 0.02312 0.0
C321 C 0.65342 0.26461 0.03678 0.0
C322 C 0.67941 0.30678 0.02726 0.0
C323 C 0.68659 0.34186 0.04584 0.0
C324 C 0.66567 0.33347 0.07462 0.0
C325 C 0.6373 0.29041 0.08418 0.0
C326 C 0.6316 0.25575 0.06504 0.0
H327 H 0.44061 0.75467 0.26227 0.0
H328 H 0.35458 0.62326 0.23037 0.0
H329 H 0.32771 0.59931 0.28171 0.0
H330 H 0.48828 0.728 0.32743 0.0
H331 H 0.48261 0.76995 0.34983 0.0
H332 H 0.49255 0.77718 0.31048 0.0
H333 H 0.41 0.79116 0.306 0.0
H334 H 0.40004 0.78437 0.34541 0.0
H335 H 0.34947 0.75186 0.32029 0.0
H336 H 0.31514 0.58906 0.3373 0.0
H337 H 0.31269 0.59452 0.39193 0.0
H338 H 0.40632 0.73266 0.38683 0.0
C339 C 0.41555 0.72093 0.26596 0.0
C340 C 0.39966 0.69086 0.24223 0.0
C341 C 0.36704 0.64698 0.24813 0.0
C342 C 0.35172 0.63302 0.27725 0.0
C343 C 0.36903 0.66339 0.30018 0.0
C344 C 0.39975 0.70652 0.29479 0.0
C345 C 0.41392 0.73261 0.32328 0.0
C346 C 0.47283 0.75313 0.32802 0.0
C347 C 0.39204 0.76703 0.32376 0.0
C348 C 0.38678 0.69738 0.34562 0.0
C349 C 0.36124 0.65763 0.33193 0.0
C350 C 0.33472 0.6201 0.34821 0.0
C351 C 0.33387 0.62344 0.37923 0.0
C352 C 0.35913 0.66403 0.39364 0.0
C353 C 0.38598 0.70131 0.37645 0.0
H354 H 0.74448 0.25955 0.73641 0.0
H355 H 0.74019 0.368 0.78589 0.0
H356 H 0.73053 0.40103 0.73894 0.0
H357 H 0.81791 0.31905 0.6756 0.0
H358 H 0.78308 0.27836 0.64838 0.0
H359 H 0.78773 0.26283 0.68588 0.0
H360 H 0.68775 0.22406 0.68931 0.0
H361 H 0.68278 0.23932 0.65174 0.0
H362 H 0.6496 0.25368 0.68115 0.0
H363 H 0.72665 0.42395 0.68594 0.0
H364 H 0.72325 0.43258 0.6317 0.0
H365 H 0.72791 0.30797 0.61785 0.0
C366 C 0.74119 0.29014 0.73746 0.0
C367 C 0.74319 0.31129 0.76477 0.0
C368 C 0.73853 0.35117 0.76518 0.0
C369 C 0.73318 0.3702 0.73864 0.0
C370 C 0.73202 0.34866 0.71203 0.0
C371 C 0.73536 0.30927 0.71132 0.0
C372 C 0.73345 0.29272 0.67995 0.0
C373 C 0.78353 0.28798 0.672 0.0
C374 C 0.68554 0.24992 0.67527 0.0
C375 C 0.72911 0.32917 0.66299 0.0
C376 C 0.72855 0.36125 0.68181 0.0
C377 C 0.72664 0.39885 0.67104 0.0
C378 C 0.72505 0.4036 0.64024 0.0
C379 C 0.72502 0.37082 0.62065 0.0
C380 C 0.72698 0.33319 0.63231 0.0
H381 H 0.46678 0.80623 0.94004 0.0
H382 H 0.31672 0.69657 0.9406 0.0
H383 H 0.32465 0.68865 0.99439 0.0
H384 H 0.52744 0.76433 0.99455 0.0
H385 H 0.5636 0.81674 0.01107 0.0
H386 H 0.54667 0.81244 0.97243 0.0
H387 H 0.50242 0.86456 0.98106 0.0
H388 H 0.51864 0.86858 0.01979 0.0
H389 H 0.45225 0.85163 1.00869 0.0
H390 H 0.34743 0.69473 0.04889 0.0
H391 H 0.3863 0.71146 0.09892 0.0
H392 H 0.52101 0.81684 0.06224 0.0
C393 C 0.43585 0.78017 0.95135 0.0
C394 C 0.39117 0.752 0.936 0.0
C395 C 0.35143 0.71854 0.95179 0.0
C396 C 0.35546 0.71384 0.98241 0.0
C397 C 0.39951 0.74275 0.99695 0.0
C398 C 0.43921 0.77501 0.98189 0.0
C399 C 0.4822 0.80215 1.00274 0.0
C400 C 0.53297 0.79868 0.99472 0.0
C401 C 0.48926 0.84953 1.00308 0.0
C402 C 0.46045 0.78019 0.03187 0.0
C403 C 0.41264 0.7461 0.02815 0.0
C404 C 0.38497 0.72127 0.05204 0.0
C405 C 0.40722 0.73112 0.08039 0.0
C406 C 0.4567 0.7654 0.08453 0.0
C407 C 0.48317 0.79036 0.05988 0.0
H408 H 0.69921 0.32318 0.40138 0.0
H409 H 0.75725 0.46227 0.39328 0.0
H410 H 0.73534 0.45377 0.33974 0.0
H411 H 0.74184 0.30108 0.33079 0.0
H412 H 0.68458 0.25197 0.32465 0.0
H413 H 0.70621 0.26947 0.36186 0.0
H414 H 0.6166 0.26784 0.37513 0.0
H415 H 0.59456 0.24999 0.33805 0.0
H416 H 0.59074 0.29794 0.3529 0.0
H417 H 0.70922 0.42907 0.28644 0.0
H418 H 0.67193 0.39042 0.23958 0.0
H419 H 0.62716 0.26762 0.28425 0.0
C420 C 0.70751 0.3518 0.38824 0.0
C421 C 0.73027 0.39339 0.40118 0.0
C422 C 0.73967 0.43016 0.3836 0.0
C423 C 0.72769 0.42561 0.35324 0.0
C424 C 0.70571 0.384 0.34106 0.0
C425 C 0.69501 0.34775 0.35818 0.0
C426 C 0.66905 0.30656 0.34028 0.0
C427 C 0.70243 0.28077 0.33934 0.0
C428 C 0.6145 0.27897 0.3523 0.0
C429 C 0.66693 0.32518 0.3103 0.0
C430 C 0.68885 0.36989 0.311 0.0
C431 C 0.69177 0.39407 0.2857 0.0
C432 C 0.67081 0.37189 0.25917 0.0
C433 C 0.64663 0.3261 0.25838 0.0
C434 C 0.64521 0.30266 0.28425 0.0
H435 H 0.36503 0.7916 0.74168 0.0
H436 H 0.34361 0.67148 0.78433 0.0
H437 H 0.3532 0.64119 0.73574 0.0
H438 H 0.29456 0.74639 0.6773 0.0
H439 H 0.3372 0.78735 0.65268 0.0
H440 H 0.33224 0.80041 0.69095 0.0
H441 H 0.43131 0.82698 0.69712 0.0
H442 H 0.43668 0.81436 0.65875 0.0
H443 H 0.46148 0.79141 0.68724 0.0
H444 H 0.35666 0.62197 0.68142 0.0
H445 H 0.36187 0.61782 0.62675 0.0
H446 H 0.38438 0.75157 0.62048 0.0
C447 C 0.36308 0.75912 0.74089 0.0
C448 C 0.35356 0.73386 0.76677 0.0
C449 C 0.35129 0.69151 0.76481 0.0
C450 C 0.35646 0.674 0.73729 0.0
C451 C 0.36467 0.69951 0.71208 0.0
C452 C 0.36882 0.74143 0.71376 0.0
C453 C 0.37691 0.76198 0.68345 0.0
C454 C 0.33258 0.77477 0.67565 0.0
C455 C 0.42974 0.80099 0.68153 0.0
C456 C 0.37557 0.72481 0.6643 0.0
C457 C 0.36829 0.68896 0.68115 0.0
C458 C 0.36306 0.65004 0.66808 0.0
C459 C 0.3657 0.64787 0.63705 0.0
C460 C 0.37392 0.68447 0.61946 0.0
C461 C 0.37906 0.72337 0.63341 0.0
loop_
_geom_bond_atom_site_label_1
_geom_bond_atom_site_label_2
_geom_bond_distance
_geom_bond_site_symmetry_2
_ccdc_geom_bond_type
Cu0 N1 1.999 . S
Cu0 O6 1.974 . S
Cu0 N11 1.985 . S
Cu0 O20 1.959 . S
N1 Cu0 1.999 . S
N1 C3 1.263 . S
N1 C5 1.389 . S
N2 C3 1.358 . S
N2 C4 1.400 . S
C3 N1 1.263 . S
C3 N2 1.358 . S
C3 H9 0.930 . S
C4 N2 1.400 . S
C4 C5 1.351 . S
C4 H21 0.930 . S
C5 N1 1.389 . S
C5 C4 1.351 . S
C5 H10 0.930 . S
O6 Cu0 1.974 . S
O6 C16 1.282 . S
C7 O8 1.261 . S
C7 O20 1.251 . S
O8 C7 1.261 . S
H9 C3 0.930 . S
H10 C5 0.930 . S
N11 Cu0 1.985 . S
N11 C13 1.335 . S
N11 C14 1.390 . S
N12 C13 1.345 . S
N12 C15 1.336 . S
C13 N11 1.335 . S
C13 N12 1.345 . S
C13 H18 0.930 . S
C14 N11 1.390 . S
C14 C15 1.346 . S
C14 H19 0.930 . S
C15 N12 1.336 . S
C15 C14 1.346 . S
C15 H22 0.929 . S
C16 O6 1.282 . S
C16 O17 1.216 . S
O17 C16 1.216 . S
H18 C13 0.930 . S
H19 C14 0.930 . S
O20 Cu0 1.959 . S
O20 C7 1.251 . S
H21 C4 0.930 . S
H22 C15 0.929 . S
Cu23 N24 1.999 . S
Cu23 O29 1.974 . S
Cu23 N34 1.985 . S
Cu23 O43 1.959 . S
N24 Cu23 1.999 . S
N24 C26 1.263 . S
N24 C28 1.389 . S
N25 C26 1.358 . S
N25 C27 1.400 . S
C26 N24 1.263 . S
C26 N25 1.358 . S
C26 H32 0.930 . S
C27 N25 1.400 . S
C27 C28 1.351 . S
C27 H44 0.930 . S
C28 N24 1.389 . S
C28 C27 1.351 . S
C28 H33 0.930 . S
O29 Cu23 1.974 . S
O29 C39 1.282 . S
C30 O31 1.261 . S
C30 O43 1.251 . S
O31 C30 1.261 . S
H32 C26 0.930 . S
H33 C28 0.930 . S
N34 Cu23 1.985 . S
N34 C36 1.335 . S
N34 C37 1.390 . S
N35 C36 1.345 . S
N35 C38 1.336 . S
C36 N34 1.335 . S
C36 N35 1.345 . S
C36 H41 0.930 . S
C37 N34 1.390 . S
C37 C38 1.346 . S
C37 H42 0.930 . S
C38 N35 1.336 . S
C38 C37 1.346 . S
C38 H45 0.929 . S
C39 O29 1.282 . S
C39 O40 1.216 . S
O40 C39 1.216 . S
H41 C36 0.930 . S
H42 C37 0.930 . S
O43 Cu23 1.959 . S
O43 C30 1.251 . S
H44 C27 0.930 . S
H45 C38 0.929 . S
Cu46 N47 1.999 . S
Cu46 O52 1.974 . S
Cu46 N57 1.985 . S
Cu46 O66 1.959 . S
N47 Cu46 1.999 . S
N47 C49 1.263 . S
N47 C51 1.389 . S
N48 C49 1.358 . S
N48 C50 1.400 . S
C49 N47 1.263 . S
C49 N48 1.358 . S
C49 H55 0.930 . S
C50 N48 1.400 . S
C50 C51 1.351 . S
C50 H67 0.930 . S
C51 N47 1.389 . S
C51 C50 1.351 . S
C51 H56 0.930 . S
O52 Cu46 1.974 . S
O52 C62 1.282 . S
C53 O54 1.261 . S
C53 O66 1.251 . S
O54 C53 1.261 . S
H55 C49 0.930 . S
H56 C51 0.930 . S
N57 Cu46 1.985 . S
N57 C59 1.335 . S
N57 C60 1.390 . S
N58 C59 1.345 . S
N58 C61 1.336 . S
C59 N57 1.335 . S
C59 N58 1.345 . S
C59 H64 0.930 . S
C60 N57 1.390 . S
C60 C61 1.346 . S
C60 H65 0.930 . S
C61 N58 1.336 . S
C61 C60 1.346 . S
C61 H68 0.929 . S
C62 O52 1.282 . S
C62 O63 1.216 . S
O63 C62 1.216 . S
H64 C59 0.930 . S
H65 C60 0.930 . S
O66 Cu46 1.959 . S
O66 C53 1.251 . S
H67 C50 0.930 . S
H68 C61 0.929 . S
Cu69 N70 1.999 . S
Cu69 O75 1.974 . S
Cu69 N80 1.985 . S
Cu69 O89 1.959 . S
N70 Cu69 1.999 . S
N70 C72 1.263 . S
N70 C74 1.389 . S
N71 C72 1.358 . S
N71 C73 1.400 . S
C72 N70 1.263 . S
C72 N71 1.358 . S
C72 H78 0.930 . S
C73 N71 1.400 . S
C73 C74 1.351 . S
C73 H90 0.930 . S
C74 N70 1.389 . S
C74 C73 1.351 . S
C74 H79 0.930 . S
O75 Cu69 1.974 . S
O75 C85 1.282 . S
C76 O77 1.261 . S
C76 O89 1.251 . S
O77 C76 1.261 . S
H78 C72 0.930 . S
H79 C74 0.930 . S
N80 Cu69 1.985 . S
N80 C82 1.335 . S
N80 C83 1.390 . S
N81 C82 1.345 . S
N81 C84 1.336 . S
C82 N80 1.335 . S
C82 N81 1.345 . S
C82 H87 0.930 . S
C83 N80 1.390 . S
C83 C84 1.346 . S
C83 H88 0.930 . S
C84 N81 1.336 . S
C84 C83 1.346 . S
C84 H91 0.929 . S
C85 O75 1.282 . S
C85 O86 1.216 . S
O86 C85 1.216 . S
H87 C82 0.930 . S
H88 C83 0.930 . S
O89 Cu69 1.959 . S
O89 C76 1.251 . S
H90 C73 0.930 . S
H91 C84 0.929 . S
Cu92 N93 1.999 . S
Cu92 O98 1.974 . S
Cu92 N103 1.985 . S
Cu92 O112 1.959 . S
N93 Cu92 1.999 . S
N93 C95 1.263 . S
N93 C97 1.389 . S
N94 C95 1.358 . S
N94 C96 1.400 . S
C95 N93 1.263 . S
C95 N94 1.358 . S
C95 H101 0.930 . S
C96 N94 1.400 . S
C96 C97 1.351 . S
C96 H113 0.930 . S
C97 N93 1.389 . S
C97 C96 1.351 . S
C97 H102 0.930 . S
O98 Cu92 1.974 . S
O98 C108 1.282 . S
C99 O100 1.261 . S
C99 O112 1.251 . S
O100 C99 1.261 . S
H101 C95 0.930 . S
H102 C97 0.930 . S
N103 Cu92 1.985 . S
N103 C105 1.335 . S
N103 C106 1.390 . S
N104 C105 1.345 . S
N104 C107 1.336 . S
C105 N103 1.335 . S
C105 N104 1.345 . S
C105 H110 0.930 . S
C106 N103 1.390 . S
C106 C107 1.346 . S
C106 H111 0.930 . S
C107 N104 1.336 . S
C107 C106 1.346 . S
C107 H114 0.929 . S
C108 O98 1.282 . S
C108 O109 1.216 . S
O109 C108 1.216 . S
H110 C105 0.930 . S
H111 C106 0.930 . S
O112 Cu92 1.959 . S
O112 C99 1.251 . S
H113 C96 0.930 . S
H114 C107 0.929 . S
Cu115 N116 1.999 . S
Cu115 O121 1.974 . S
Cu115 N126 1.985 . S
Cu115 O135 1.959 . S
N116 Cu115 1.999 . S
N116 C118 1.263 . S
N116 C120 1.389 . S
N117 C118 1.358 . S
N117 C119 1.400 . S
C118 N116 1.263 . S
C118 N117 1.358 . S
C118 H124 0.930 . S
C119 N117 1.400 . S
C119 C120 1.351 . S
C119 H136 0.930 . S
C120 N116 1.389 . S
C120 C119 1.351 . S
C120 H125 0.930 . S
O121 Cu115 1.974 . S
O121 C131 1.282 . S
C122 O123 1.261 . S
C122 O135 1.251 . S
O123 C122 1.261 . S
H124 C118 0.930 . S
H125 C120 0.930 . S
N126 Cu115 1.985 . S
N126 C128 1.335 . S
N126 C129 1.390 . S
N127 C128 1.345 . S
N127 C130 1.336 . S
C128 N126 1.335 . S
C128 N127 1.345 . S
C128 H133 0.930 . S
C129 N126 1.390 . S
C129 C130 1.346 . S
C129 H134 0.930 . S
C130 N127 1.336 . S
C130 C129 1.346 . S
C130 H137 0.929 . S
C131 O121 1.282 . S
C131 O132 1.216 . S
O132 C131 1.216 . S
H133 C128 0.930 . S
H134 C129 0.930 . S
O135 Cu115 1.959 . S
O135 C122 1.251 . S
H136 C119 0.930 . S
H137 C130 0.929 . S
H138 C150 0.930 . S
H139 C152 0.930 . S
H140 C153 0.930 . S
H141 C157 0.959 . S
H142 C157 0.959 . S
H143 C157 0.961 1_545 S
H144 C158 0.960 . S
H145 C158 0.961 1_565 S
H146 C158 0.959 . S
H147 C161 0.929 . S
H148 C162 0.931 . S
H149 C164 0.930 . S
C150 H138 0.930 . S
C150 C151 1.399 . S
C150 C155 1.399 . S
C151 C150 1.399 . S
C151 C152 1.376 . S
C152 H139 0.930 . S
C152 C151 1.376 . S
C152 C153 1.388 . S
C153 H140 0.930 . S
C153 C152 1.388 . S
C153 C154 1.390 . S
C154 C153 1.390 . S
C154 C155 1.394 . S
C154 C160 1.465 1_545 S
C155 C150 1.399 . S
C155 C154 1.394 . S
C155 C156 1.516 1_545 S
C156 C155 1.516 1_565 S
C156 C157 1.502 . S
C156 C158 1.561 1_565 S
C156 C159 1.526 . S
C157 H141 0.959 . S
C157 H142 0.959 . S
C157 H143 0.961 1_565 S
C157 C156 1.502 . S
C158 H144 0.960 . S
C158 H145 0.961 1_545 S
C158 H146 0.959 . S
C158 C156 1.561 1_545 S
C159 C156 1.526 . S
C159 C160 1.396 . S
C159 C164 1.390 . S
C160 C154 1.465 1_565 S
C160 C159 1.396 . S
C160 C161 1.399 . S
C161 H147 0.929 . S
C161 C160 1.399 . S
C161 C162 1.385 . S
C162 H148 0.931 . S
C162 C161 1.385 . S
C162 C163 1.389 . S
C163 C162 1.389 . S
C163 C164 1.387 . S
C164 H149 0.930 . S
C164 C159 1.390 . S
C164 C163 1.387 . S
H165 C177 0.930 . S
H166 C179 0.930 . S
H167 C180 0.930 . S
H168 C184 0.959 . S
H169 C184 0.959 . S
H170 C184 0.961 . S
H171 C185 0.960 . S
H172 C185 0.961 . S
H173 C185 0.959 . S
H174 C188 0.929 . S
H175 C189 0.931 . S
H176 C191 0.930 . S
C177 H165 0.930 . S
C177 C178 1.399 . S
C177 C182 1.399 . S
C178 C177 1.399 . S
C178 C179 1.376 . S
C179 H166 0.930 . S
C179 C178 1.376 . S
C179 C180 1.388 . S
C180 H167 0.930 . S
C180 C179 1.388 . S
C180 C181 1.390 . S
C181 C180 1.390 . S
C181 C182 1.394 . S
C181 C187 1.465 . S
C182 C177 1.399 . S
C182 C181 1.394 . S
C182 C183 1.516 . S
C183 C182 1.516 . S
C183 C184 1.502 . S
C183 C185 1.561 . S
C183 C186 1.526 . S
C184 H168 0.959 . S
C184 H169 0.959 . S
C184 H170 0.961 . S
C184 C183 1.502 . S
C185 H171 0.960 . S
C185 H172 0.961 . S
C185 H173 0.959 . S
C185 C183 1.561 . S
C186 C183 1.526 . S
C186 C187 1.396 . S
C186 C191 1.390 . S
C187 C181 1.465 . S
C187 C186 1.396 . S
C187 C188 1.399 . S
C188 H174 0.929 . S
C188 C187 1.399 . S
C188 C189 1.385 . S
C189 H175 0.931 . S
C189 C188 1.385 . S
C189 C190 1.389 . S
C190 C189 1.389 . S
C190 C191 1.387 . S
C191 H176 0.930 . S
C191 C186 1.390 . S
C191 C190 1.387 . S
H192 C204 0.930 . S
H193 C206 0.930 . S
H194 C207 0.930 . S
H195 C211 0.959 . S
H196 C211 0.959 . S
H197 C211 0.961 . S
H198 C212 0.960 1_655 S
H199 C212 0.961 . S
H200 C212 0.959 . S
H201 C215 0.929 . S
H202 C216 0.931 . S
H203 C218 0.930 . S
C204 H192 0.930 . S
C204 C205 1.399 . S
C204 C209 1.399 . S
C205 C204 1.399 . S
C205 C206 1.376 . S
C206 H193 0.930 . S
C206 C205 1.376 . S
C206 C207 1.388 . S
C207 H194 0.930 . S
C207 C206 1.388 . S
C207 C208 1.390 . S
C208 C207 1.390 . S
C208 C209 1.394 . S
C208 C214 1.465 1_655 S
C209 C204 1.399 . S
C209 C208 1.394 . S
C209 C210 1.516 . S
C210 C209 1.516 . S
C210 C211 1.502 . S
C210 C212 1.561 1_655 S
C210 C213 1.526 1_655 S
C211 H195 0.959 . S
C211 H196 0.959 . S
C211 H197 0.961 . S
C211 C210 1.502 . S
C212 H198 0.960 1_455 S
C212 H199 0.961 . S
C212 H200 0.959 . S
C212 C210 1.561 1_455 S
C213 C210 1.526 1_455 S
C213 C214 1.396 . S
C213 C218 1.390 . S
C214 C208 1.465 1_455 S
C214 C213 1.396 . S
C214 C215 1.399 . S
C215 H201 0.929 . S
C215 C214 1.399 . S
C215 C216 1.385 . S
C216 H202 0.931 . S
C216 C215 1.385 . S
C216 C217 1.389 . S
C217 C216 1.389 . S
C217 C218 1.387 . S
C218 H203 0.930 . S
C218 C213 1.390 . S
C218 C217 1.387 . S
H219 C231 0.930 . S
H220 C233 0.930 . S
H221 C234 0.930 . S
H222 C238 0.959 . S
H223 C238 0.959 1_655 S
H224 C238 0.961 . S
H225 C239 0.960 . S
H226 C239 0.961 1_655 S
H227 C239 0.959 . S
H228 C242 0.929 . S
H229 C243 0.931 . S
H230 C245 0.930 . S
C231 H219 0.930 . S
C231 C232 1.399 . S
C231 C236 1.399 . S
C232 C231 1.399 . S
C232 C233 1.376 . S
C233 H220 0.930 . S
C233 C232 1.376 . S
C233 C234 1.388 . S
C234 H221 0.930 . S
C234 C233 1.388 . S
C234 C235 1.390 . S
C235 C234 1.390 . S
C235 C236 1.394 . S
C235 C241 1.465 1_455 S
C236 C231 1.399 . S
C236 C235 1.394 . S
C236 C237 1.516 . S
C237 C236 1.516 . S
C237 C238 1.502 . S
C237 C239 1.561 . S
C237 C240 1.526 1_455 S
C238 H222 0.959 . S
C238 H223 0.959 1_455 S
C238 H224 0.961 . S
C238 C237 1.502 . S
C239 H225 0.960 . S
C239 H226 0.961 1_455 S
C239 H227 0.959 . S
C239 C237 1.561 . S
C240 C237 1.526 1_655 S
C240 C241 1.396 . S
C240 C245 1.390 . S
C241 C235 1.465 1_655 S
C241 C240 1.396 . S
C241 C242 1.399 . S
C242 H228 0.929 . S
C242 C241 1.399 . S
C242 C243 1.385 . S
C243 H229 0.931 . S
C243 C242 1.385 . S
C243 C244 1.389 . S
C244 C243 1.389 . S
C244 C245 1.387 . S
C245 H230 0.930 . S
C245 C240 1.390 . S
C245 C244 1.387 . S
H246 C258 0.930 . S
H247 C260 0.930 . S
H248 C261 0.930 . S
H249 C265 0.959 . S
H250 C265 0.959 1_545 S
H251 C265 0.961 . S
H252 C266 0.960 1_565 S
H253 C266 0.961 . S
H254 C266 0.959 . S
H255 C269 0.929 . S
H256 C270 0.931 . S
H257 C272 0.930 . S
C258 H246 0.930 . S
C258 C259 1.399 . S
C258 C263 1.399 . S
C259 C258 1.399 . S
C259 C260 1.376 . S
C260 H247 0.930 . S
C260 C259 1.376 . S
C260 C261 1.388 . S
C261 H248 0.930 . S
C261 C260 1.388 . S
C261 C262 1.390 . S
C262 C261 1.390 . S
C262 C263 1.394 . S
C262 C268 1.465 1_565 S
C263 C258 1.399 . S
C263 C262 1.394 . S
C263 C264 1.516 . S
C264 C263 1.516 . S
C264 C265 1.502 . S
C264 C266 1.561 1_565 S
C264 C267 1.526 1_565 S
C265 H249 0.959 . S
C265 H250 0.959 1_565 S
C265 H251 0.961 . S
C265 C264 1.502 . S
C266 H252 0.960 1_545 S
C266 H253 0.961 . S
C266 H254 0.959 . S
C266 C264 1.561 1_545 S
C267 C264 1.526 1_545 S
C267 C268 1.396 . S
C267 C272 1.390 . S
C268 C262 1.465 1_545 S
C268 C267 1.396 . S
C268 C269 1.399 . S
C269 H255 0.929 . S
C269 C268 1.399 . S
C269 C270 1.385 . S
C270 H256 0.931 . S
C270 C269 1.385 . S
C270 C271 1.389 . S
C271 C270 1.389 . S
C271 C272 1.387 . S
C272 H257 0.930 . S
C272 C267 1.390 . S
C272 C271 1.387 . S
H273 C285 0.930 . S
H274 C287 0.930 . S
H275 C288 0.930 . S
H276 C292 0.959 . S
H277 C292 0.959 . S
H278 C292 0.961 . S
H279 C293 0.960 . S
H280 C293 0.961 . S
H281 C293 0.959 . S
H282 C296 0.929 . S
H283 C297 0.931 . S
H284 C299 0.930 . S
C285 H273 0.930 . S
C285 C286 1.399 . S
C285 C290 1.399 . S
C286 C285 1.399 . S
C286 C287 1.376 . S
C287 H274 0.930 . S
C287 C286 1.376 . S
C287 C288 1.388 . S
C288 H275 0.930 . S
C288 C287 1.388 . S
C288 C289 1.390 . S
C289 C288 1.390 . S
C289 C290 1.394 . S
C289 C295 1.465 . S
C290 C285 1.399 . S
C290 C289 1.394 . S
C290 C291 1.516 . S
C291 C290 1.516 . S
C291 C292 1.502 . S
C291 C293 1.561 . S
C291 C294 1.526 . S
C292 H276 0.959 . S
C292 H277 0.959 . S
C292 H278 0.961 . S
C292 C291 1.502 . S
C293 H279 0.960 . S
C293 H280 0.961 . S
C293 H281 0.959 . S
C293 C291 1.561 . S
C294 C291 1.526 . S
C294 C295 1.396 . S
C294 C299 1.390 . S
C295 C289 1.465 . S
C295 C294 1.396 . S
C295 C296 1.399 . S
C296 H282 0.929 . S
C296 C295 1.399 . S
C296 C297 1.385 . S
C297 H283 0.931 . S
C297 C296 1.385 . S
C297 C298 1.389 . S
C298 C297 1.389 . S
C298 C299 1.387 . S
C299 H284 0.930 . S
C299 C294 1.390 . S
C299 C298 1.387 . S
H300 C312 0.930 . S
H301 C314 0.930 . S
H302 C315 0.930 . S
H303 C319 0.959 . S
H304 C319 0.959 1_554 S
H305 C319 0.961 . S
H306 C320 0.960 . S
H307 C320 0.961 . S
H308 C320 0.959 . S
H309 C323 0.929 . S
H310 C324 0.931 . S
H311 C326 0.930 . S
C312 H300 0.930 . S
C312 C313 1.399 . S
C312 C317 1.399 . S
C313 C312 1.399 . S
C313 C314 1.376 . S
C314 H301 0.930 . S
C314 C313 1.376 . S
C314 C315 1.388 . S
C315 H302 0.930 . S
C315 C314 1.388 . S
C315 C316 1.390 . S
C316 C315 1.390 . S
C316 C317 1.394 . S
C316 C322 1.465 1_556 S
C317 C312 1.399 . S
C317 C316 1.394 . S
C317 C318 1.516 1_556 S
C318 C317 1.516 1_554 S
C318 C319 1.502 1_554 S
C318 C320 1.561 . S
C318 C321 1.526 . S
C319 H303 0.959 . S
C319 H304 0.959 1_556 S
C319 H305 0.961 . S
C319 C318 1.502 1_556 S
C320 H306 0.960 . S
C320 H307 0.961 . S
C320 H308 0.959 . S
C320 C318 1.561 . S
C321 C318 1.526 . S
C321 C322 1.396 . S
C321 C326 1.390 . S
C322 C316 1.465 1_554 S
C322 C321 1.396 . S
C322 C323 1.399 . S
C323 H309 0.929 . S
C323 C322 1.399 . S
C323 C324 1.385 . S
C324 H310 0.931 . S
C324 C323 1.385 . S
C324 C325 1.389 . S
C325 C324 1.389 . S
C325 C326 1.387 . S
C326 H311 0.930 . S
C326 C321 1.390 . S
C326 C325 1.387 . S
H327 C339 0.930 . S
H328 C341 0.930 . S
H329 C342 0.930 . S
H330 C346 0.959 . S
H331 C346 0.959 . S
H332 C346 0.961 . S
H333 C347 0.960 . S
H334 C347 0.961 . S
H335 C347 0.959 . S
H336 C350 0.929 . S
H337 C351 0.931 . S
H338 C353 0.930 . S
C339 H327 0.930 . S
C339 C340 1.399 . S
C339 C344 1.399 . S
C340 C339 1.399 . S
C340 C341 1.376 . S
C341 H328 0.930 . S
C341 C340 1.376 . S
C341 C342 1.388 . S
C342 H329 0.930 . S
C342 C341 1.388 . S
C342 C343 1.390 . S
C343 C342 1.390 . S
C343 C344 1.394 . S
C343 C349 1.465 . S
C344 C339 1.399 . S
C344 C343 1.394 . S
C344 C345 1.516 . S
C345 C344 1.516 . S
C345 C346 1.502 . S
C345 C347 1.561 . S
C345 C348 1.526 . S
C346 H330 0.959 . S
C346 H331 0.959 . S
C346 H332 0.961 . S
C346 C345 1.502 . S
C347 H333 0.960 . S
C347 H334 0.961 . S
C347 H335 0.959 . S
C347 C345 1.561 . S
C348 C345 1.526 . S
C348 C349 1.396 . S
C348 C353 1.390 . S
C349 C343 1.465 . S
C349 C348 1.396 . S
C349 C350 1.399 . S
C350 H336 0.929 . S
C350 C349 1.399 . S
C350 C351 1.385 . S
C351 H337 0.931 . S
C351 C350 1.385 . S
C351 C352 1.389 . S
C352 C351 1.389 . S
C352 C353 1.387 . S
C353 H338 0.930 . S
C353 C348 1.390 . S
C353 C352 1.387 . S
H354 C366 0.930 . S
H355 C368 0.930 . S
H356 C369 0.930 . S
H357 C373 0.959 . S
H358 C373 0.959 . S
H359 C373 0.961 . S
H360 C374 0.960 . S
H361 C374 0.961 . S
H362 C374 0.959 . S
H363 C377 0.929 . S
H364 C378 0.931 . S
H365 C380 0.930 . S
C366 H354 0.930 . S
C366 C367 1.399 . S
C366 C371 1.399 . S
C367 C366 1.399 . S
C367 C368 1.376 . S
C368 H355 0.930 . S
C368 C367 1.376 . S
C368 C369 1.388 . S
C369 H356 0.930 . S
C369 C368 1.388 . S
C369 C370 1.390 . S
C370 C369 1.390 . S
C370 C371 1.394 . S
C370 C376 1.465 . S
C371 C366 1.399 . S
C371 C370 1.394 . S
C371 C372 1.516 . S
C372 C371 1.516 . S
C372 C373 1.502 . S
C372 C374 1.561 . S
C372 C375 1.526 . S
C373 H357 0.959 . S
C373 H358 0.959 . S
C373 H359 0.961 . S
C373 C372 1.502 . S
C374 H360 0.960 . S
C374 H361 0.961 . S
C374 H362 0.959 . S
C374 C372 1.561 . S
C375 C372 1.526 . S
C375 C376 1.396 . S
C375 C380 1.390 . S
C376 C370 1.465 . S
C376 C375 1.396 . S
C376 C377 1.399 . S
C377 H363 0.929 . S
C377 C376 1.399 . S
C377 C378 1.385 . S
C378 H364 0.931 . S
C378 C377 1.385 . S
C378 C379 1.389 . S
C379 C378 1.389 . S
C379 C380 1.387 . S
C380 H365 0.930 . S
C380 C375 1.390 . S
C380 C379 1.387 . S
H381 C393 0.930 . S
H382 C395 0.930 . S
H383 C396 0.930 . S
H384 C400 0.959 . S
H385 C400 0.959 . S
H386 C400 0.961 . S
H387 C401 0.960 1_556 S
H388 C401 0.961 . S
H389 C401 0.959 . S
H390 C404 0.929 . S
H391 C405 0.931 . S
H392 C407 0.930 . S
C393 H381 0.930 . S
C393 C394 1.399 . S
C393 C398 1.399 . S
C394 C393 1.399 . S
C394 C395 1.376 . S
C395 H382 0.930 . S
C395 C394 1.376 . S
C395 C396 1.388 . S
C396 H383 0.930 . S
C396 C395 1.388 . S
C396 C397 1.390 . S
C397 C396 1.390 . S
C397 C398 1.394 . S
C397 C403 1.465 1_556 S
C398 C393 1.399 . S
C398 C397 1.394 . S
C398 C399 1.516 . S
C399 C398 1.516 . S
C399 C400 1.502 . S
C399 C401 1.561 1_556 S
C399 C402 1.526 1_556 S
C400 H384 0.959 . S
C400 H385 0.959 . S
C400 H386 0.961 . S
C400 C399 1.502 . S
C401 H387 0.960 1_554 S
C401 H388 0.961 . S
C401 H389 0.959 . S
C401 C399 1.561 1_554 S
C402 C399 1.526 1_554 S
C402 C403 1.396 . S
C402 C407 1.390 . S
C403 C397 1.465 1_554 S
C403 C402 1.396 . S
C403 C404 1.399 . S
C404 H390 0.929 . S
C404 C403 1.399 . S
C404 C405 1.385 . S
C405 H391 0.931 . S
C405 C404 1.385 . S
C405 C406 1.389 . S
C406 C405 1.389 . S
C406 C407 1.387 . S
C407 H392 0.930 . S
C407 C402 1.390 . S
C407 C406 1.387 . S
H408 C420 0.930 . S
H409 C422 0.930 . S
H410 C423 0.930 . S
H411 C427 0.959 . S
H412 C427 0.959 . S
H413 C427 0.961 . S
H414 C428 0.960 . S
H415 C428 0.961 . S
H416 C428 0.959 . S
H417 C431 0.929 . S
H418 C432 0.931 . S
H419 C434 0.930 . S
C420 H408 0.930 . S
C420 C421 1.399 . S
C420 C425 1.399 . S
C421 C420 1.399 . S
C421 C422 1.376 . S
C422 H409 0.930 . S
C422 C421 1.376 . S
C422 C423 1.388 . S
C423 H410 0.930 . S
C423 C422 1.388 . S
C423 C424 1.390 . S
C424 C423 1.390 . S
C424 C425 1.394 . S
C424 C430 1.465 . S
C425 C420 1.399 . S
C425 C424 1.394 . S
C425 C426 1.516 . S
C426 C425 1.516 . S
C426 C427 1.502 . S
C426 C428 1.561 . S
C426 C429 1.526 . S
C427 H411 0.959 . S
C427 H412 0.959 . S
C427 H413 0.961 . S
C427 C426 1.502 . S
C428 H414 0.960 . S
C428 H415 0.961 . S
C428 H416 0.959 . S
C428 C426 1.561 . S
C429 C426 1.526 . S
C429 C430 1.396 . S
C429 C434 1.390 . S
C430 C424 1.465 . S
C430 C429 1.396 . S
C430 C431 1.399 . S
C431 H417 0.929 . S
C431 C430 1.399 . S
C431 C432 1.385 . S
C432 H418 0.931 . S
C432 C431 1.385 . S
C432 C433 1.389 . S
C433 C432 1.389 . S
C433 C434 1.387 . S
C434 H419 0.930 . S
C434 C429 1.390 . S
C434 C433 1.387 . S
H435 C447 0.930 . S
H436 C449 0.930 . S
H437 C450 0.930 . S
H438 C454 0.959 . S
H439 C454 0.959 . S
H440 C454 0.961 . S
H441 C455 0.960 . S
H442 C455 0.961 . S
H443 C455 0.959 . S
H444 C458 0.929 . S
H445 C459 0.931 . S
H446 C461 0.930 . S
C447 H435 0.930 . S
C447 C448 1.399 . S
C447 C452 1.399 . S
C448 C447 1.399 . S
C448 C449 1.376 . S
C449 H436 0.930 . S
C449 C448 1.376 . S
C449 C450 1.388 . S
C450 H437 0.930 . S
C450 C449 1.388 . S
C450 C451 1.390 . S
C451 C450 1.390 . S
C451 C452 1.394 . S
C451 C457 1.465 . S
C452 C447 1.399 . S
C452 C451 1.394 . S
C452 C453 1.516 . S
C453 C452 1.516 . S
C453 C454 1.502 . S
C453 C455 1.561 . S
C453 C456 1.526 . S
C454 H438 0.959 . S
C454 H439 0.959 . S
C454 H440 0.961 . S
C454 C453 1.502 . S
C455 H441 0.960 . S
C455 H442 0.961 . S
C455 H443 0.959 . S
C455 C453 1.561 . S
C456 C453 1.526 . S
C456 C457 1.396 . S
C456 C461 1.390 . S
C457 C451 1.465 . S
C457 C456 1.396 . S
C457 C458 1.399 . S
C458 H444 0.929 . S
C458 C457 1.399 . S
C458 C459 1.385 . S
C459 H445 0.931 . S
C459 C458 1.385 . S
C459 C460 1.389 . S
C460 C459 1.389 . S
C460 C461 1.387 . S
C461 H446 0.930 . S
C461 C456 1.390 . S
C461 C460 1.387 . S
C151 N12 1.439 . S
C163 N81 1.437 . S
C178 C39 1.700 . S
C190 C108 1.671 . S
C205 N58 1.366 . S
C217 N127 1.367 . S
C232 C30 1.756 . S
C244 C99 1.794 . S
C259 N117 1.472 . S
C271 N48 1.515 . S
C286 N71 1.367 . S
C298 N2 1.397 . S
C313 C62 1.827 . S
C325 C7 1.878 . S
C340 C85 1.857 . S
C352 N25 1.799 . S
C367 C53 1.915 . S
C379 N104 1.926 . S
C394 C131 1.852 . S
C406 C76 1.867 . S
C421 N94 1.835 . S
C433 C16 1.906 . S
C448 C122 1.916 . S
C460 N35 1.929 . S
