# Generated by pormake.
# Topology wgj, (5)-cn, num edge types: 1
# Building blocks:
#     Node 0, Type 0, BuildingBlock: XOMCOT_clean_sbu_1, # of connection points: 5
#     Node 1, Type 0, BuildingBlock: XOMCOT_clean_sbu_1, # of connection points: 5
#     Node 2, Type 0, BuildingBlock: XOMCOT_clean_sbu_1, # of connection points: 5
#     Node 3, Type 0, BuildingBlock: XOMCOT_clean_sbu_1, # of connection points: 5
#     Node 4, Type 0, BuildingBlock: XOMCOT_clean_sbu_1, # of connection points: 5
#     Node 5, Type 0, BuildingBlock: XOMCOT_clean_sbu_1, # of connection points: 5
#     Node 6, Type 0, BuildingBlock: XOMCOT_clean_sbu_1, # of connection points: 5
#     Node 7, Type 0, BuildingBlock: XOMCOT_clean_sbu_1, # of connection points: 5
#     Node 8, Type 0, BuildingBlock: XOMCOT_clean_sbu_1, # of connection points: 5
#     Node 9, Type 0, BuildingBlock: XOMCOT_clean_sbu_1, # of connection points: 5
#     Node 10, Type 0, BuildingBlock: XOMCOT_clean_sbu_1, # of connection points: 5
#     Node 11, Type 0, BuildingBlock: XOMCOT_clean_sbu_1, # of connection points: 5
#     Node 12, Type 0, BuildingBlock: XOMCOT_clean_sbu_1, # of connection points: 5
#     Node 13, Type 0, BuildingBlock: XOMCOT_clean_sbu_1, # of connection points: 5
#     Node 14, Type 0, BuildingBlock: XOMCOT_clean_sbu_1, # of connection points: 5
#     Node 15, Type 0, BuildingBlock: XOMCOT_clean_sbu_1, # of connection points: 5
#     Node 16, Type 0, BuildingBlock: XOMCOT_clean_sbu_1, # of connection points: 5
#     Node 17, Type 0, BuildingBlock: XOMCOT_clean_sbu_1, # of connection points: 5
#     Node 18, Type 0, BuildingBlock: XOMCOT_clean_sbu_1, # of connection points: 5
#     Node 19, Type 0, BuildingBlock: XOMCOT_clean_sbu_1, # of connection points: 5
#     Node 20, Type 0, BuildingBlock: XOMCOT_clean_sbu_1, # of connection points: 5
#     Node 21, Type 0, BuildingBlock: XOMCOT_clean_sbu_1, # of connection points: 5
#     Node 22, Type 0, BuildingBlock: XOMCOT_clean_sbu_1, # of connection points: 5
#     Node 23, Type 0, BuildingBlock: XOMCOT_clean_sbu_1, # of connection points: 5
#     Node 24, Type 0, BuildingBlock: XOMCOT_clean_sbu_1, # of connection points: 5
#     Node 25, Type 0, BuildingBlock: XOMCOT_clean_sbu_1, # of connection points: 5
#     Node 26, Type 0, BuildingBlock: XOMCOT_clean_sbu_1, # of connection points: 5
#     Node 27, Type 0, BuildingBlock: XOMCOT_clean_sbu_1, # of connection points: 5
#     Node 28, Type 0, BuildingBlock: XOMCOT_clean_sbu_1, # of connection points: 5
#     Node 29, Type 0, BuildingBlock: XOMCOT_clean_sbu_1, # of connection points: 5
#     Node 30, Type 0, BuildingBlock: XOMCOT_clean_sbu_1, # of connection points: 5
#     Node 31, Type 0, BuildingBlock: XOMCOT_clean_sbu_1, # of connection points: 5
#     Edge 32, Type (0, 0), BuildingBlock: XUDNAN_clean_linker_2, # of connection points: 2
#     Edge 33, Type (0, 0), BuildingBlock: XUDNAN_clean_linker_2, # of connection points: 2
#     Edge 34, Type (0, 0), BuildingBlock: XUDNAN_clean_linker_2, # of connection points: 2
#     Edge 35, Type (0, 0), BuildingBlock: XUDNAN_clean_linker_2, # of connection points: 2
#     Edge 36, Type (0, 0), BuildingBlock: XUDNAN_clean_linker_2, # of connection points: 2
#     Edge 37, Type (0, 0), BuildingBlock: XUDNAN_clean_linker_2, # of connection points: 2
#     Edge 38, Type (0, 0), BuildingBlock: XUDNAN_clean_linker_2, # of connection points: 2
#     Edge 39, Type (0, 0), BuildingBlock: XUDNAN_clean_linker_2, # of connection points: 2
#     Edge 40, Type (0, 0), BuildingBlock: XUDNAN_clean_linker_2, # of connection points: 2
#     Edge 41, Type (0, 0), BuildingBlock: XUDNAN_clean_linker_2, # of connection points: 2
#     Edge 42, Type (0, 0), BuildingBlock: XUDNAN_clean_linker_2, # of connection points: 2
#     Edge 43, Type (0, 0), BuildingBlock: XUDNAN_clean_linker_2, # of connection points: 2
#     Edge 44, Type (0, 0), BuildingBlock: XUDNAN_clean_linker_2, # of connection points: 2
#     Edge 45, Type (0, 0), BuildingBlock: XUDNAN_clean_linker_2, # of connection points: 2
#     Edge 46, Type (0, 0), BuildingBlock: XUDNAN_clean_linker_2, # of connection points: 2
#     Edge 47, Type (0, 0), BuildingBlock: XUDNAN_clean_linker_2, # of connection points: 2
#     Edge 48, Type (0, 0), BuildingBlock: XUDNAN_clean_linker_2, # of connection points: 2
#     Edge 49, Type (0, 0), BuildingBlock: XUDNAN_clean_linker_2, # of connection points: 2
#     Edge 50, Type (0, 0), BuildingBlock: XUDNAN_clean_linker_2, # of connection points: 2
#     Edge 51, Type (0, 0), BuildingBlock: XUDNAN_clean_linker_2, # of connection points: 2
#     Edge 52, Type (0, 0), BuildingBlock: XUDNAN_clean_linker_2, # of connection points: 2
#     Edge 53, Type (0, 0), BuildingBlock: XUDNAN_clean_linker_2, # of connection points: 2
#     Edge 54, Type (0, 0), BuildingBlock: XUDNAN_clean_linker_2, # of connection points: 2
#     Edge 55, Type (0, 0), BuildingBlock: XUDNAN_clean_linker_2, # of connection points: 2
#     Edge 56, Type (0, 0), BuildingBlock: XUDNAN_clean_linker_2, # of connection points: 2
#     Edge 57, Type (0, 0), BuildingBlock: XUDNAN_clean_linker_2, # of connection points: 2
#     Edge 58, Type (0, 0), BuildingBlock: XUDNAN_clean_linker_2, # of connection points: 2
#     Edge 59, Type (0, 0), BuildingBlock: XUDNAN_clean_linker_2, # of connection points: 2
#     Edge 60, Type (0, 0), BuildingBlock: XUDNAN_clean_linker_2, # of connection points: 2
#     Edge 61, Type (0, 0), BuildingBlock: XUDNAN_clean_linker_2, # of connection points: 2
#     Edge 62, Type (0, 0), BuildingBlock: XUDNAN_clean_linker_2, # of connection points: 2
#     Edge 63, Type (0, 0), BuildingBlock: XUDNAN_clean_linker_2, # of connection points: 2
#     Edge 64, Type (0, 0), BuildingBlock: XUDNAN_clean_linker_2, # of connection points: 2
#     Edge 65, Type (0, 0), BuildingBlock: XUDNAN_clean_linker_2, # of connection points: 2
#     Edge 66, Type (0, 0), BuildingBlock: XUDNAN_clean_linker_2, # of connection points: 2
#     Edge 67, Type (0, 0), BuildingBlock: XUDNAN_clean_linker_2, # of connection points: 2
#     Edge 68, Type (0, 0), BuildingBlock: XUDNAN_clean_linker_2, # of connection points: 2
#     Edge 69, Type (0, 0), BuildingBlock: XUDNAN_clean_linker_2, # of connection points: 2
#     Edge 70, Type (0, 0), BuildingBlock: XUDNAN_clean_linker_2, # of connection points: 2
#     Edge 71, Type (0, 0), BuildingBlock: XUDNAN_clean_linker_2, # of connection points: 2
#     Edge 72, Type (0, 0), BuildingBlock: XUDNAN_clean_linker_2, # of connection points: 2
#     Edge 73, Type (0, 0), BuildingBlock: XUDNAN_clean_linker_2, # of connection points: 2
#     Edge 74, Type (0, 0), BuildingBlock: XUDNAN_clean_linker_2, # of connection points: 2
#     Edge 75, Type (0, 0), BuildingBlock: XUDNAN_clean_linker_2, # of connection points: 2
#     Edge 76, Type (0, 0), BuildingBlock: XUDNAN_clean_linker_2, # of connection points: 2
#     Edge 77, Type (0, 0), BuildingBlock: XUDNAN_clean_linker_2, # of connection points: 2
#     Edge 78, Type (0, 0), BuildingBlock: XUDNAN_clean_linker_2, # of connection points: 2
#     Edge 79, Type (0, 0), BuildingBlock: XUDNAN_clean_linker_2, # of connection points: 2
#     Edge 80, Type (0, 0), BuildingBlock: XUDNAN_clean_linker_2, # of connection points: 2
#     Edge 81, Type (0, 0), BuildingBlock: XUDNAN_clean_linker_2, # of connection points: 2
#     Edge 82, Type (0, 0), BuildingBlock: XUDNAN_clean_linker_2, # of connection points: 2
#     Edge 83, Type (0, 0), BuildingBlock: XUDNAN_clean_linker_2, # of connection points: 2
#     Edge 84, Type (0, 0), BuildingBlock: XUDNAN_clean_linker_2, # of connection points: 2
#     Edge 85, Type (0, 0), BuildingBlock: XUDNAN_clean_linker_2, # of connection points: 2
#     Edge 86, Type (0, 0), BuildingBlock: XUDNAN_clean_linker_2, # of connection points: 2
#     Edge 87, Type (0, 0), BuildingBlock: XUDNAN_clean_linker_2, # of connection points: 2
#     Edge 88, Type (0, 0), BuildingBlock: XUDNAN_clean_linker_2, # of connection points: 2
#     Edge 89, Type (0, 0), BuildingBlock: XUDNAN_clean_linker_2, # of connection points: 2
#     Edge 90, Type (0, 0), BuildingBlock: XUDNAN_clean_linker_2, # of connection points: 2
#     Edge 91, Type (0, 0), BuildingBlock: XUDNAN_clean_linker_2, # of connection points: 2
#     Edge 92, Type (0, 0), BuildingBlock: XUDNAN_clean_linker_2, # of connection points: 2
#     Edge 93, Type (0, 0), BuildingBlock: XUDNAN_clean_linker_2, # of connection points: 2
#     Edge 94, Type (0, 0), BuildingBlock: XUDNAN_clean_linker_2, # of connection points: 2
#     Edge 95, Type (0, 0), BuildingBlock: XUDNAN_clean_linker_2, # of connection points: 2
#     Edge 96, Type (0, 0), BuildingBlock: XUDNAN_clean_linker_2, # of connection points: 2
#     Edge 97, Type (0, 0), BuildingBlock: XUDNAN_clean_linker_2, # of connection points: 2
#     Edge 98, Type (0, 0), BuildingBlock: XUDNAN_clean_linker_2, # of connection points: 2
#     Edge 99, Type (0, 0), BuildingBlock: XUDNAN_clean_linker_2, # of connection points: 2
#     Edge 100, Type (0, 0), BuildingBlock: XUDNAN_clean_linker_2, # of connection points: 2
#     Edge 101, Type (0, 0), BuildingBlock: XUDNAN_clean_linker_2, # of connection points: 2
#     Edge 102, Type (0, 0), BuildingBlock: XUDNAN_clean_linker_2, # of connection points: 2
#     Edge 103, Type (0, 0), BuildingBlock: XUDNAN_clean_linker_2, # of connection points: 2
#     Edge 104, Type (0, 0), BuildingBlock: XUDNAN_clean_linker_2, # of connection points: 2
#     Edge 105, Type (0, 0), BuildingBlock: XUDNAN_clean_linker_2, # of connection points: 2
#     Edge 106, Type (0, 0), BuildingBlock: XUDNAN_clean_linker_2, # of connection points: 2
#     Edge 107, Type (0, 0), BuildingBlock: XUDNAN_clean_linker_2, # of connection points: 2
#     Edge 108, Type (0, 0), BuildingBlock: XUDNAN_clean_linker_2, # of connection points: 2
#     Edge 109, Type (0, 0), BuildingBlock: XUDNAN_clean_linker_2, # of connection points: 2
#     Edge 110, Type (0, 0), BuildingBlock: XUDNAN_clean_linker_2, # of connection points: 2
#     Edge 111, Type (0, 0), BuildingBlock: XUDNAN_clean_linker_2, # of connection points: 2
# Relax obj value: 0.253
# Max RMSD: 0.142
# Mean RMSD: 0.142
data_MOF--net-wgj--node1-XOMCOT_clean_sbu_1--edge1-XUDNAN_clean_linker_2
_symmetry_space_group_name_H-M    P1
_symmetry_Int_Tables_number       1
_symmetry_cell_setting            triclinic
loop_
_symmetry_equiv_pos_as_xyz
'x, y, z'
_cell_length_a     68.049699
_cell_length_b     68.033284
_cell_length_c     31.216176
_cell_angle_alpha  89.91921
_cell_angle_beta   90.076426
_cell_angle_gamma 90.002224
loop_
_atom_site_label
_atom_site_type_symbol
_atom_site_fract_x
_atom_site_fract_y
_atom_site_fract_z
_atom_type_partial_charge
C0 C 0.17742 0.19341 0.28015 0.0
C1 C 0.1889 0.20864 0.26568 0.0
N2 N 0.20322 0.21177 0.29463 0.0
N3 N 0.18456 0.18688 0.3179 0.0
C4 C 0.20052 0.19811 0.32546 0.0
H5 H 0.16385 0.1885 0.26571 0.0
Co6 Co 0.17072 0.17036 0.35422 0.0
C7 C 0.19868 0.16348 0.43023 0.0
O8 O 0.18357 0.16573 0.45594 0.0
N9 N 0.1558 0.15331 0.38922 0.0
C10 C 0.14631 0.12484 0.41742 0.0
C11 C 0.16211 0.1358 0.40404 0.0
C12 C 0.13596 0.15244 0.3934 0.0
N13 N 0.12969 0.13519 0.41042 0.0
O14 O 0.1752 0.14847 0.31356 0.0
H15 H 0.17706 0.13054 0.40175 0.0
H16 H 0.1262 0.16359 0.38111 0.0
O17 O 0.19581 0.16458 0.38923 0.0
C18 C 0.15994 0.14704 0.28938 0.0
O19 O 0.14484 0.15829 0.29864 0.0
N20 N 0.16412 0.19295 0.38778 0.0
C21 C 0.15583 0.23306 0.39952 0.0
C22 C 0.17313 0.22472 0.41587 0.0
C23 C 0.17701 0.20467 0.40979 0.0
C24 C 0.14662 0.20067 0.37433 0.0
C25 C 0.14205 0.22057 0.38042 0.0
H26 H 0.19146 0.19962 0.41824 0.0
H27 H 0.13713 0.19207 0.35393 0.0
H28 H 0.20926 0.1972 0.35433 0.0
H29 H 0.18594 0.21778 0.23799 0.0
H30 H 0.1471 0.10974 0.42815 0.0
H31 H 0.18435 0.23396 0.43006 0.0
H32 H 0.12878 0.22652 0.36622 0.0
C33 C 0.07842 0.9384 0.51977 0.0
C34 C 0.0647 0.95183 0.50629 0.0
N35 N 0.05823 0.96174 0.54072 0.0
N36 N 0.08083 0.93988 0.56261 0.0
C37 C 0.06861 0.95458 0.57419 0.0
H38 H 0.08468 0.92714 0.49971 0.0
Co39 Co 0.09268 0.92124 0.59858 0.0
C40 C 0.10267 0.9458 0.68035 0.0
O41 O 0.10037 0.93053 0.70552 0.0
N42 N 0.10439 0.90109 0.63431 0.0
C43 C 0.10554 0.87505 0.67816 0.0
C44 C 0.09613 0.89243 0.66898 0.0
C45 C 0.11922 0.88851 0.62397 0.0
N46 N 0.11991 0.87231 0.64926 0.0
O47 O 0.11694 0.9233 0.56363 0.0
H48 H 0.08303 0.89742 0.68509 0.0
H49 H 0.12885 0.8905 0.59702 0.0
O50 O 0.1007 0.94358 0.63939 0.0
C51 C 0.11567 0.91004 0.53433 0.0
O52 O 0.10077 0.89776 0.53661 0.0
N53 N 0.06786 0.91736 0.62516 0.0
C54 C 0.02858 0.9084 0.64412 0.0
C55 C 0.03875 0.92288 0.66734 0.0
C56 C 0.05834 0.92739 0.65696 0.0
C57 C 0.05823 0.903 0.60305 0.0
C58 C 0.03865 0.89838 0.61174 0.0
H59 H 0.06534 0.93936 0.67349 0.0
H60 H 0.06575 0.89538 0.57752 0.0
H61 H 0.06625 0.95898 0.60702 0.0
H62 H 0.05852 0.95278 0.47437 0.0
H63 H 0.10092 0.86447 0.70204 0.0
H64 H 0.03141 0.93111 0.69232 0.0
H65 H 0.03144 0.887 0.59327 0.0
C66 C 0.32239 0.83318 0.76745 0.0
C67 C 0.3096 0.81882 0.75418 0.0
N68 N 0.30164 0.81044 0.78917 0.0
N69 N 0.3224 0.83399 0.81063 0.0
C70 C 0.30927 0.82024 0.82286 0.0
H71 H 0.33232 0.84117 0.74685 0.0
Co72 Co 0.34147 0.84642 0.84348 0.0
C73 C 0.32221 0.85417 0.93042 0.0
O74 O 0.33975 0.85178 0.9473 0.0
N75 N 0.36171 0.85918 0.87453 0.0
C76 C 0.38039 0.88406 0.89669 0.0
C77 C 0.36138 0.87766 0.89008 0.0
C78 C 0.38108 0.85473 0.87211 0.0
N79 N 0.3929 0.8697 0.8847 0.0
O80 O 0.33703 0.87086 0.81034 0.0
H81 H 0.34829 0.88659 0.89264 0.0
H82 H 0.38638 0.84136 0.85774 0.0
O83 O 0.32047 0.85277 0.88931 0.0
C84 C 0.35102 0.87214 0.78269 0.0
O85 O 0.36489 0.85873 0.78394 0.0
N86 N 0.34795 0.82155 0.86819 0.0
C87 C 0.35601 0.78121 0.87503 0.0
C88 C 0.34378 0.79056 0.90491 0.0
C89 C 0.33981 0.81083 0.90087 0.0
C90 C 0.36047 0.81263 0.84019 0.0
C91 C 0.36474 0.79263 0.84307 0.0
H92 H 0.32891 0.81711 0.92166 0.0
H93 H 0.36615 0.82089 0.81331 0.0
H94 H 0.30644 0.81646 0.85591 0.0
H95 H 0.30781 0.81365 0.72162 0.0
H96 H 0.38454 0.89879 0.90604 0.0
H97 H 0.33627 0.78204 0.92924 0.0
H98 H 0.3739 0.78588 0.81883 0.0
C99 C 0.4453 0.08297 0.02289 0.0
C100 C 0.4602 0.07102 1.00863 0.0
N101 N 0.46444 0.058 0.03981 0.0
N102 N 0.44005 0.07743 0.06275 0.0
C103 C 0.45178 0.06199 0.07193 0.0
H104 H 0.43965 0.09575 1.00636 0.0
Co105 Co 0.42403 0.09223 0.09841 0.0
C106 C 0.41614 0.0648 0.17563 0.0
O107 O 0.41794 0.07995 0.20141 0.0
N108 N 0.40756 0.1081 0.13275 0.0
C109 C 0.37961 0.11854 0.16164 0.0
C110 C 0.38993 0.10239 0.14796 0.0
C111 C 0.40737 0.128 0.13676 0.0
N112 N 0.39046 0.13479 0.15439 0.0
O113 O 0.40182 0.08768 0.05869 0.0
H114 H 0.3842 0.08759 0.14603 0.0
H115 H 0.41882 0.13743 0.1244 0.0
O116 O 0.41787 0.0676 0.13473 0.0
C117 C 0.39998 0.10281 0.03426 0.0
O118 O 0.41138 0.11798 0.04208 0.0
N119 N 0.44685 0.09879 0.13106 0.0
C120 C 0.48708 0.10641 0.14452 0.0
C121 C 0.47771 0.09039 0.16437 0.0
C122 C 0.45776 0.08666 0.1568 0.0
C123 C 0.45535 0.11533 0.1145 0.0
C124 C 0.47534 0.11946 0.12088 0.0
H125 H 0.4521 0.07286 0.16803 0.0
H126 H 0.44714 0.1243 0.09218 0.0
H127 H 0.45178 0.05445 0.10243 0.0
H128 H 0.46827 0.07274 0.979 0.0
H129 H 0.3646 0.11832 0.17299 0.0
H130 H 0.48604 0.07995 0.18329 0.0
H131 H 0.48181 0.13186 0.1043 0.0
C132 C 0.18274 0.82112 0.26235 0.0
C133 C 0.19708 0.80985 0.281 0.0
N134 N 0.21312 0.81055 0.25587 0.0
N135 N 0.18968 0.82897 0.22571 0.0
C136 C 0.20829 0.8223 0.22256 0.0
H137 H 0.16791 0.82291 0.27406 0.0
Co138 Co 0.17393 0.84334 0.18913 0.0
C139 C 0.20012 0.85244 0.11133 0.0
O140 O 0.1848 0.84977 0.08634 0.0
N141 N 0.15673 0.85815 0.15396 0.0
C142 C 0.14128 0.88517 0.13104 0.0
C143 C 0.15911 0.8773 0.14357 0.0
C144 C 0.13736 0.85474 0.14691 0.0
N145 N 0.12765 0.8709 0.13324 0.0
O146 O 0.1768 0.86612 0.22788 0.0
H147 H 0.17256 0.88548 0.14839 0.0
H148 H 0.12991 0.84131 0.15541 0.0
O149 O 0.1978 0.85093 0.15237 0.0
C150 C 0.16236 0.86565 0.25438 0.0
O151 O 0.14821 0.85296 0.24687 0.0
N152 N 0.16934 0.81977 0.15788 0.0
C153 C 0.16185 0.78002 0.13851 0.0
C154 C 0.17865 0.78961 0.12263 0.0
C155 C 0.18235 0.80934 0.13341 0.0
C156 C 0.15301 0.81059 0.17347 0.0
C157 C 0.14882 0.791 0.16369 0.0
H158 H 0.19641 0.81541 0.12478 0.0
H159 H 0.14381 0.8181 0.19639 0.0
H160 H 0.21776 0.82515 0.19543 0.0
H161 H 0.19569 0.80149 0.31037 0.0
H162 H 0.13839 0.90037 0.1229 0.0
H163 H 0.18951 0.78159 0.10431 0.0
H164 H 0.13573 0.78434 0.17706 0.0
C165 C 0.446 0.93029 0.50163 0.0
C166 C 0.455 0.94599 0.52076 0.0
N167 N 0.44963 0.9623 0.49951 0.0
N168 N 0.43483 0.93669 0.46871 0.0
C169 C 0.43752 0.95637 0.46781 0.0
H170 H 0.44801 0.91504 0.51028 0.0
Co171 Co 0.42038 0.9192 0.43594 0.0
C172 C 0.41699 0.9416 0.35165 0.0
O173 O 0.42432 0.9258 0.33353 0.0
N174 N 0.40533 0.90006 0.40559 0.0
C175 C 0.38521 0.88192 0.36492 0.0
C176 C 0.39344 0.90033 0.3708 0.0
C177 C 0.40312 0.88157 0.42121 0.0
N178 N 0.39134 0.87016 0.39694 0.0
O179 O 0.39728 0.92447 0.47285 0.0
H180 H 0.39009 0.91312 0.35169 0.0
H181 H 0.41018 0.87642 0.45015 0.0
O182 O 0.4137 0.94126 0.39247 0.0
C183 C 0.39882 0.91375 0.50671 0.0
O184 O 0.41355 0.90133 0.50876 0.0
N185 N 0.44408 0.91248 0.40587 0.0
C186 C 0.48243 0.90142 0.38232 0.0
C187 C 0.47647 0.92113 0.38013 0.0
C188 C 0.45725 0.92636 0.39198 0.0
C189 C 0.44991 0.89331 0.40849 0.0
C190 C 0.46871 0.88744 0.39604 0.0
H191 H 0.45332 0.94174 0.39185 0.0
H192 H 0.44063 0.88244 0.42299 0.0
H193 H 0.43126 0.96608 0.44394 0.0
H194 H 0.46553 0.94542 0.54677 0.0
H195 H 0.3749 0.87775 0.34011 0.0
H196 H 0.48668 0.93246 0.37013 0.0
H197 H 0.47284 0.87214 0.39956 0.0
C198 C 0.33066 0.18755 0.76757 0.0
C199 C 0.31545 0.19695 0.78734 0.0
N200 N 0.30085 0.19912 0.7587 0.0
N201 N 0.32567 0.18344 0.72676 0.0
C202 C 0.30742 0.19097 0.72191 0.0
H203 H 0.3448 0.18457 0.78182 0.0
Co204 Co 0.34336 0.17107 0.69098 0.0
C205 C 0.32178 0.1639 0.60701 0.0
O206 O 0.33844 0.16873 0.58849 0.0
N207 N 0.36258 0.15819 0.65718 0.0
C208 C 0.3793 0.13348 0.62748 0.0
C209 C 0.36086 0.14073 0.6369 0.0
C210 C 0.38226 0.16092 0.66043 0.0
N211 N 0.39276 0.1461 0.64297 0.0
O212 O 0.34039 0.14682 0.72572 0.0
H213 H 0.34719 0.13284 0.63272 0.0
H214 H 0.38889 0.17256 0.67888 0.0
O215 O 0.32107 0.16386 0.64844 0.0
C216 C 0.35438 0.14651 0.75355 0.0
O217 O 0.36827 0.15982 0.75 0.0
N218 N 0.34812 0.19579 0.66408 0.0
C219 C 0.35708 0.23516 0.64472 0.0
C220 C 0.34078 0.22584 0.62606 0.0
C221 C 0.33616 0.20636 0.63724 0.0
C222 C 0.36368 0.20494 0.68321 0.0
C223 C 0.36849 0.22446 0.67389 0.0
H224 H 0.32244 0.20041 0.62594 0.0
H225 H 0.37186 0.19735 0.70785 0.0
H226 H 0.29928 0.19084 0.69209 0.0
H227 H 0.31548 0.20268 0.81968 0.0
H228 H 0.38253 0.11915 0.6142 0.0
H229 H 0.33116 0.23385 0.60457 0.0
H230 H 0.38092 0.23121 0.6898 0.0
C231 C 0.0738 0.08624 1.00909 0.0
C232 C 0.0626 0.07291 0.0309 0.0
N233 N 0.06285 0.05587 1.00911 0.0
N234 N 0.08132 0.0777 0.97382 0.0
C235 C 0.07425 0.05912 0.97434 0.0
H236 H 0.07585 0.10146 0.0178 0.0
Co237 Co 0.09662 0.09261 0.93739 0.0
C238 C 0.10325 0.06841 0.85778 0.0
O239 O 0.09912 0.08494 0.83786 0.0
N240 N 0.1127 0.10907 0.90279 0.0
C241 C 0.1406 0.11974 0.8739 0.0
C242 C 0.13034 0.10353 0.8874 0.0
C243 C 0.11292 0.12901 0.89921 0.0
N244 N 0.12977 0.13599 0.88153 0.0
O245 O 0.11912 0.08864 0.97673 0.0
H246 H 0.13614 0.08875 0.88901 0.0
H247 H 0.10169 0.13833 0.91247 0.0
O248 O 0.10312 0.06839 0.89931 0.0
C249 C 0.11955 0.10324 1.0029 0.0
O250 O 0.10774 0.1181 0.99507 0.0
N251 N 0.07336 0.09822 0.90542 0.0
C252 C 0.03368 0.1061 0.88599 0.0
C253 C 0.04222 0.0879 0.87593 0.0
C254 C 0.06185 0.08411 0.8867 0.0
C255 C 0.06528 0.11603 0.91514 0.0
C256 C 0.04565 0.12036 0.90529 0.0
H257 H 0.06702 0.06923 0.88324 0.0
H258 H 0.07344 0.12636 0.93435 0.0
H259 H 0.07713 0.04834 0.94966 0.0
H260 H 0.05422 0.07577 0.05969 0.0
H261 H 0.15555 0.11941 0.86233 0.0
H262 H 0.03343 0.07613 0.86257 0.0
H263 H 0.0397 0.13452 0.91435 0.0
C264 C 0.82488 0.82508 0.7641 0.0
C265 C 0.81085 0.81168 0.77612 0.0
N266 N 0.79909 0.80829 0.74224 0.0
N267 N 0.82194 0.8303 0.72288 0.0
C268 C 0.8059 0.82005 0.71068 0.0
H269 H 0.83733 0.82936 0.78336 0.0
Co270 Co 0.83996 0.84383 0.68911 0.0
C271 C 0.81563 0.8525 0.60693 0.0
O272 O 0.83086 0.8482 0.58286 0.0
N273 N 0.8591 0.85753 0.65686 0.0
C274 C 0.87571 0.88174 0.62489 0.0
C275 C 0.85729 0.87405 0.63306 0.0
C276 C 0.87872 0.85583 0.66336 0.0
N277 N 0.88914 0.87035 0.64453 0.0
O278 O 0.83683 0.86722 0.72632 0.0
H279 H 0.84352 0.88114 0.62543 0.0
H280 H 0.88524 0.84509 0.68452 0.0
O281 O 0.81759 0.85196 0.64819 0.0
C282 C 0.85019 0.86617 0.75547 0.0
O283 O 0.86316 0.85194 0.75237 0.0
N284 N 0.84513 0.81981 0.65942 0.0
C285 C 0.8539 0.78035 0.63977 0.0
C286 C 0.83815 0.79014 0.61985 0.0
C287 C 0.83378 0.8097 0.63064 0.0
C288 C 0.8605 0.81044 0.67882 0.0
C289 C 0.86522 0.79091 0.66936 0.0
H290 H 0.82047 0.81586 0.6179 0.0
H291 H 0.8685 0.81777 0.70403 0.0
H292 H 0.80008 0.82022 0.67847 0.0
H293 H 0.81048 0.80372 0.80616 0.0
H294 H 0.87881 0.89562 0.60928 0.0
H295 H 0.8286 0.78242 0.59778 0.0
H296 H 0.87744 0.78403 0.68583 0.0
C297 C 0.94203 0.08166 0.51051 0.0
C298 C 0.95054 0.06615 0.53132 0.0
N299 N 0.94894 0.05026 0.50612 0.0
N300 N 0.93477 0.07559 0.47253 0.0
C301 C 0.93939 0.05628 0.4705 0.0
H302 H 0.94203 0.09667 0.52164 0.0
Co303 Co 0.92286 0.09341 0.43577 0.0
C304 C 0.91825 0.07047 0.35267 0.0
O305 O 0.92569 0.08597 0.33347 0.0
N306 N 0.9104 0.11301 0.40146 0.0
C307 C 0.88871 0.1305 0.36321 0.0
C308 C 0.89621 0.11194 0.3711 0.0
C309 C 0.91056 0.13231 0.41231 0.0
N310 N 0.89768 0.14326 0.38965 0.0
O311 O 0.89841 0.09079 0.46974 0.0
H312 H 0.89033 0.09847 0.35807 0.0
H313 H 0.91893 0.13819 0.43875 0.0
O314 O 0.91548 0.07113 0.39367 0.0
C315 C 0.89871 0.10323 0.50074 0.0
O316 O 0.91301 0.11616 0.50159 0.0
N317 N 0.94787 0.0973 0.40865 0.0
C318 C 0.9887 0.10183 0.39817 0.0
C319 C 0.97941 0.08397 0.3885 0.0
C320 C 0.95908 0.08198 0.39406 0.0
C321 C 0.95669 0.11498 0.41658 0.0
C322 C 0.97693 0.11766 0.41077 0.0
H323 H 0.95284 0.06754 0.39007 0.0
H324 H 0.94861 0.12664 0.43153 0.0
H325 H 0.93652 0.04699 0.44308 0.0
H326 H 0.95854 0.06676 0.56131 0.0
H327 H 0.87644 0.13403 0.34247 0.0
H328 H 0.98795 0.07126 0.37903 0.0
H329 H 0.98351 0.13156 0.41977 0.0
C330 C 0.67834 0.19196 0.2504 0.0
C331 C 0.69183 0.20244 0.27343 0.0
N332 N 0.70855 0.20319 0.25065 0.0
N333 N 0.68653 0.18582 0.21347 0.0
C334 C 0.705 0.19314 0.21413 0.0
H335 H 0.66327 0.18939 0.25964 0.0
Co336 Co 0.67194 0.17111 0.17535 0.0
C337 C 0.69862 0.16528 0.09701 0.0
O338 O 0.68303 0.16839 0.07305 0.0
N339 N 0.65568 0.15573 0.1392 0.0
C340 C 0.64449 0.1287 0.10735 0.0
C341 C 0.66098 0.1391 0.11876 0.0
C342 C 0.63573 0.15471 0.14073 0.0
N343 N 0.62849 0.13827 0.12193 0.0
O344 O 0.67605 0.14788 0.21265 0.0
H345 H 0.67587 0.13374 0.11592 0.0
H346 H 0.62681 0.16457 0.15956 0.0
O347 O 0.69661 0.16558 0.13831 0.0
C348 C 0.66181 0.14663 0.23957 0.0
O349 O 0.64672 0.15841 0.2341 0.0
N350 N 0.66624 0.19484 0.14512 0.0
C351 C 0.65843 0.23515 0.13009 0.0
C352 C 0.67581 0.22617 0.11532 0.0
C353 C 0.67973 0.20637 0.12449 0.0
C354 C 0.64889 0.20299 0.15787 0.0
C355 C 0.64472 0.22293 0.15089 0.0
H356 H 0.69433 0.20113 0.11801 0.0
H357 H 0.63897 0.19452 0.17756 0.0
H358 H 0.71552 0.19133 0.18848 0.0
H359 H 0.68933 0.20965 0.30385 0.0
H360 H 0.64451 0.11443 0.09211 0.0
H361 H 0.68695 0.23448 0.09857 0.0
H362 H 0.63136 0.22881 0.16449 0.0
C363 C 0.57151 0.92783 0.99731 0.0
C364 C 0.56154 0.94198 0.01952 0.0
N365 N 0.56436 0.95926 0.99958 0.0
N366 N 0.58082 0.93613 0.96376 0.0
C367 C 0.57604 0.95541 0.96564 0.0
H368 H 0.57169 0.91231 1.00475 0.0
Co369 Co 0.59616 0.92078 0.92803 0.0
C370 C 0.59868 0.94429 0.84594 0.0
O371 O 0.59288 0.92783 0.82793 0.0
N372 N 0.61238 0.90388 0.89429 0.0
C373 C 0.63751 0.89244 0.85582 0.0
C374 C 0.62708 0.90892 0.86736 0.0
C375 C 0.61501 0.88422 0.90009 0.0
N376 N 0.62998 0.87681 0.87662 0.0
O377 O 0.619 0.92637 0.96525 0.0
H378 H 0.63104 0.92376 0.85869 0.0
H379 H 0.60731 0.8757 0.92396 0.0
O380 O 0.60124 0.94439 0.88708 0.0
C381 C 0.61902 0.91334 0.99518 0.0
O382 O 0.60625 0.89893 0.99233 0.0
N383 N 0.57266 0.91358 0.89782 0.0
C384 C 0.53415 0.90178 0.87716 0.0
C385 C 0.53975 0.92157 0.87408 0.0
C386 C 0.55905 0.92717 0.88457 0.0
C387 C 0.56719 0.89434 0.9013 0.0
C388 C 0.54831 0.88809 0.89019 0.0
H389 H 0.56261 0.94264 0.88447 0.0
H390 H 0.5768 0.88384 0.91608 0.0
H391 H 0.58085 0.96633 0.94269 0.0
H392 H 0.55234 0.9397 0.04737 0.0
H393 H 0.65019 0.89225 0.83498 0.0
H394 H 0.52919 0.93269 0.86472 0.0
H395 H 0.54446 0.87276 0.89452 0.0
C396 C 0.84382 0.19942 0.77809 0.0
C397 C 0.83117 0.21114 0.75578 0.0
N398 N 0.81309 0.20858 0.77204 0.0
N399 N 0.83388 0.18913 0.80801 0.0
C400 C 0.81505 0.19534 0.80415 0.0
H401 H 0.85956 0.19896 0.77375 0.0
Co402 Co 0.84851 0.17245 0.84269 0.0
C403 C 0.80866 0.161 0.88463 0.0
O404 O 0.80194 0.15301 0.84924 0.0
N405 N 0.86487 0.15607 0.87582 0.0
C406 C 0.88331 0.14369 0.92843 0.0
C407 C 0.86603 0.15351 0.91864 0.0
C408 C 0.88143 0.14762 0.86054 0.0
N409 N 0.89294 0.14001 0.89159 0.0
O410 O 0.84142 0.15002 0.8052 0.0
H411 H 0.8557 0.1595 0.94147 0.0
H412 H 0.88594 0.14841 0.82752 0.0
O413 O 0.82607 0.16838 0.88468 0.0
C414 C 0.85321 0.14971 0.77296 0.0
O415 O 0.86696 0.1632 0.77094 0.0
N416 N 0.85703 0.19459 0.87361 0.0
C417 C 0.87102 0.23215 0.89446 0.0
C418 C 0.85159 0.2266 0.9041 0.0
C419 C 0.84484 0.20773 0.8933 0.0
C420 C 0.8761 0.19942 0.86564 0.0
C421 C 0.88341 0.218 0.87595 0.0
H422 H 0.8295 0.20426 0.89805 0.0
H423 H 0.88537 0.18931 0.84822 0.0
H424 H 0.80314 0.19066 0.82458 0.0
H425 H 0.83508 0.22144 0.73073 0.0
H426 H 0.88867 0.14016 0.96019 0.0
H427 H 0.84149 0.23694 0.91851 0.0
H428 H 0.89834 0.22158 0.86689 0.0
C429 C 0.57884 0.07398 0.50575 0.0
C430 C 0.56368 0.06209 0.49263 0.0
N431 N 0.55554 0.05383 0.52757 0.0
N432 N 0.5804 0.07312 0.5488 0.0
C433 C 0.56622 0.06045 0.56107 0.0
H434 H 0.587 0.08382 0.48527 0.0
Co435 Co 0.59431 0.09065 0.5831 0.0
C436 C 0.60469 0.06582 0.66406 0.0
O437 O 0.60537 0.08152 0.68846 0.0
N438 N 0.60822 0.1092 0.6159 0.0
C439 C 0.63367 0.12712 0.63779 0.0
C440 C 0.62694 0.1083 0.62993 0.0
C441 C 0.60393 0.12861 0.61573 0.0
N442 N 0.61924 0.14001 0.6281 0.0
O443 O 0.61777 0.0869 0.5464 0.0
H444 H 0.63578 0.09509 0.63019 0.0
H445 H 0.59036 0.13428 0.60279 0.0
O446 O 0.60119 0.06787 0.62355 0.0
C447 C 0.61844 0.10161 0.52041 0.0
O448 O 0.60504 0.11536 0.52495 0.0
N449 N 0.57051 0.09669 0.6122 0.0
C450 C 0.53201 0.10761 0.63388 0.0
C451 C 0.54311 0.09537 0.66097 0.0
C452 C 0.56228 0.08983 0.64929 0.0
C453 C 0.55994 0.10887 0.58613 0.0
C454 C 0.54075 0.1144 0.59612 0.0
H455 H 0.56982 0.07949 0.66939 0.0
H456 H 0.56639 0.11396 0.55647 0.0
H457 H 0.56297 0.05719 0.59422 0.0
H458 H 0.55807 0.06097 0.46026 0.0
H459 H 0.64862 0.13096 0.64609 0.0
H460 H 0.53679 0.0896 0.69023 0.0
H461 H 0.53282 0.12399 0.57442 0.0
C462 C 0.69333 0.8313 0.26303 0.0
C463 C 0.70607 0.81674 0.25079 0.0
N464 N 0.71421 0.80896 0.28629 0.0
N465 N 0.69351 0.83287 0.30609 0.0
C466 C 0.70666 0.8193 0.3193 0.0
H467 H 0.68339 0.83899 0.24189 0.0
Co468 Co 0.67473 0.84614 0.33794 0.0
C469 C 0.69462 0.85668 0.42309 0.0
O470 O 0.67716 0.85541 0.44078 0.0
N471 N 0.65479 0.85968 0.36796 0.0
C472 C 0.63637 0.88509 0.3881 0.0
C473 C 0.65527 0.87859 0.38094 0.0
C474 C 0.63541 0.85513 0.36729 0.0
N475 N 0.62376 0.87039 0.37887 0.0
O476 O 0.67887 0.86981 0.30185 0.0
H477 H 0.66836 0.8876 0.38151 0.0
H478 H 0.62993 0.84138 0.35496 0.0
O479 O 0.69608 0.85362 0.38235 0.0
C480 C 0.66464 0.87044 0.27461 0.0
O481 O 0.65101 0.85682 0.27751 0.0
N482 N 0.66851 0.82198 0.3661 0.0
C483 C 0.65839 0.78283 0.38539 0.0
C484 C 0.67118 0.79354 0.41201 0.0
C485 C 0.6763 0.81299 0.40153 0.0
C486 C 0.65595 0.81176 0.34027 0.0
C487 C 0.6507 0.79232 0.34922 0.0
H488 H 0.68732 0.82007 0.42075 0.0
H489 H 0.65039 0.81864 0.31145 0.0
H490 H 0.70963 0.81618 0.35264 0.0
H491 H 0.70779 0.81115 0.21856 0.0
H492 H 0.63227 0.90004 0.39582 0.0
H493 H 0.67783 0.78668 0.4398 0.0
H494 H 0.64071 0.78477 0.32779 0.0
C495 C 0.94881 0.92719 0.02691 0.0
C496 C 0.96235 0.94049 1.01179 0.0
N497 N 0.96113 0.95684 0.03581 0.0
N498 N 0.93904 0.93514 0.06021 0.0
C499 C 0.94654 0.95342 0.06412 0.0
H500 H 0.94746 0.91208 0.0167 0.0
Co501 Co 0.92302 0.92056 0.09682 0.0
C502 C 0.92153 0.94851 0.17441 0.0
O503 O 0.92833 0.93416 0.19846 0.0
N504 N 0.90623 0.90478 0.13187 0.0
C505 C 0.88201 0.89422 0.17421 0.0
C506 C 0.89327 0.91016 0.16244 0.0
C507 C 0.90194 0.88551 0.1249 0.0
N508 N 0.88745 0.87864 0.15044 0.0
O509 O 0.90052 0.92591 0.05834 0.0
H510 H 0.89102 0.92493 0.17389 0.0
H511 H 0.90849 0.87687 0.09967 0.0
O512 O 0.9181 0.94506 0.13426 0.0
C513 C 0.90001 0.91199 0.03048 0.0
O514 O 0.91316 0.89795 0.03402 0.0
N515 N 0.94619 0.91316 0.1287 0.0
C516 C 0.9853 0.89974 0.13791 0.0
C517 C 0.98054 0.91972 0.14336 0.0
C518 C 0.96091 0.92605 0.13934 0.0
C519 C 0.95045 0.89358 0.12687 0.0
C520 C 0.96955 0.88658 0.13281 0.0
H521 H 0.95804 0.9416 0.14091 0.0
H522 H 0.93958 0.88321 0.11656 0.0
H523 H 0.94276 0.96339 0.08979 0.0
H524 H 0.97357 0.93759 0.98807 0.0
H525 H 0.87031 0.89434 0.19763 0.0
H526 H 0.99189 0.93066 0.14768 0.0
H527 H 0.97195 0.87091 0.13039 0.0
C528 C 0.67702 0.68777 0.76849 0.0
C529 C 0.69053 0.69839 0.74577 0.0
N530 N 0.7066 0.70058 0.77036 0.0
N531 N 0.68455 0.68306 0.80711 0.0
C532 C 0.70268 0.69115 0.8075 0.0
H533 H 0.6623 0.68427 0.75798 0.0
Co534 Co 0.66934 0.66948 0.8461 0.0
C535 C 0.69496 0.66405 0.92516 0.0
O536 O 0.67935 0.66949 0.9469 0.0
N537 N 0.65245 0.65506 0.88329 0.0
C538 C 0.64096 0.6289 0.91814 0.0
C539 C 0.65753 0.6387 0.90517 0.0
C540 C 0.63244 0.65439 0.88243 0.0
N541 N 0.62502 0.63844 0.903 0.0
O542 O 0.67241 0.64581 0.80992 0.0
H543 H 0.67229 0.63305 0.90819 0.0
H544 H 0.62356 0.6641 0.86302 0.0
O545 O 0.69371 0.66303 0.88378 0.0
C546 C 0.65753 0.64373 0.78486 0.0
O547 O 0.64243 0.65544 0.79069 0.0
N548 N 0.66484 0.69382 0.87536 0.0
C549 C 0.6597 0.73463 0.88677 0.0
C550 C 0.67715 0.72521 0.89924 0.0
C551 C 0.67961 0.70506 0.89237 0.0
C552 C 0.64731 0.70252 0.86547 0.0
C553 C 0.64436 0.72281 0.87119 0.0
H554 H 0.69413 0.69922 0.8971 0.0
H555 H 0.63617 0.69421 0.84885 0.0
H556 H 0.71263 0.69055 0.83454 0.0
H557 H 0.68833 0.70491 0.71447 0.0
H558 H 0.6409 0.61501 0.93498 0.0
H559 H 0.68944 0.73356 0.91169 0.0
H560 H 0.63075 0.72934 0.8602 0.0
C561 C 0.5753 0.44087 1.01368 0.0
C562 C 0.56291 0.45569 1.00092 0.0
N563 N 0.55898 0.46701 0.03513 0.0
N564 N 0.57943 0.44286 0.05578 0.0
C565 C 0.56954 0.45919 0.06764 0.0
H566 H 0.57934 0.4285 0.99404 0.0
Co567 Co 0.59035 0.42362 0.09164 0.0
C568 C 0.60006 0.44795 0.17431 0.0
O569 O 0.5966 0.43297 0.19965 0.0
N570 N 0.60099 0.40289 0.12726 0.0
C571 C 0.60031 0.37693 0.17149 0.0
C572 C 0.59216 0.39491 0.16213 0.0
C573 C 0.6149 0.38928 0.11695 0.0
N574 N 0.61452 0.37331 0.14286 0.0
O575 O 0.61497 0.42497 0.05773 0.0
H576 H 0.57947 0.40086 0.17826 0.0
H577 H 0.62417 0.39008 0.089 0.0
O578 O 0.59882 0.44553 0.13327 0.0
C579 C 0.61281 0.41268 0.02673 0.0
O580 O 0.59753 0.40087 0.02829 0.0
N581 N 0.56526 0.42052 0.11712 0.0
C582 C 0.5257 0.41242 0.13517 0.0
C583 C 0.53564 0.42778 0.15618 0.0
C584 C 0.5554 0.43176 0.14637 0.0
C585 C 0.55585 0.40544 0.097 0.0
C586 C 0.53618 0.40114 0.10547 0.0
H587 H 0.56232 0.44424 0.16126 0.0
H588 H 0.56366 0.39686 0.07339 0.0
H589 H 0.56885 0.46439 0.10028 0.0
H590 H 0.55575 0.45677 0.97002 0.0
H591 H 0.59543 0.36681 0.19607 0.0
H592 H 0.52804 0.43704 0.17897 0.0
H593 H 0.52925 0.38901 0.08883 0.0
C594 C 0.82954 0.32505 0.27096 0.0
C595 C 0.81655 0.31087 0.25772 0.0
N596 N 0.80453 0.30661 0.29067 0.0
N597 N 0.82567 0.32985 0.31197 0.0
C598 C 0.8102 0.31852 0.32299 0.0
H599 H 0.84181 0.33054 0.2526 0.0
Co600 Co 0.84209 0.34528 0.34517 0.0
C601 C 0.81946 0.35263 0.42819 0.0
O602 O 0.83634 0.35012 0.44798 0.0
N603 N 0.85976 0.36132 0.37682 0.0
C604 C 0.87184 0.38894 0.40435 0.0
C605 C 0.85503 0.37876 0.39455 0.0
C606 C 0.87975 0.36156 0.37532 0.0
N607 N 0.88751 0.37835 0.39152 0.0
O608 O 0.8364 0.3679 0.30715 0.0
H609 H 0.84026 0.3845 0.39708 0.0
H610 H 0.88837 0.35066 0.35863 0.0
O611 O 0.81911 0.35134 0.38682 0.0
C612 C 0.85071 0.36929 0.2804 0.0
O613 O 0.86553 0.3571 0.28525 0.0
N614 N 0.84968 0.32215 0.37564 0.0
C615 C 0.86107 0.28335 0.39462 0.0
C616 C 0.84458 0.29182 0.41425 0.0
C617 C 0.83886 0.31105 0.40365 0.0
C618 C 0.86597 0.31417 0.35703 0.0
C619 C 0.87192 0.29489 0.36599 0.0
H620 H 0.82497 0.31611 0.41574 0.0
H621 H 0.87368 0.32234 0.33257 0.0
H622 H 0.80382 0.31832 0.35468 0.0
H623 H 0.81689 0.30328 0.22728 0.0
H624 H 0.87233 0.40363 0.41755 0.0
H625 H 0.83546 0.28324 0.43569 0.0
H626 H 0.88465 0.28892 0.34979 0.0
C627 C 0.94849 0.58705 0.52366 0.0
C628 C 0.95787 0.5727 0.50086 0.0
N629 N 0.95311 0.55525 0.51815 0.0
N630 N 0.93765 0.57873 0.55493 0.0
C631 C 0.94091 0.5592 0.55113 0.0
H632 H 0.94991 0.6027 0.51853 0.0
Co633 Co 0.92278 0.5944 0.59098 0.0
C634 C 0.91982 0.56716 0.6696 0.0
O635 O 0.9282 0.58094 0.69272 0.0
N636 N 0.90733 0.61184 0.62475 0.0
C637 C 0.88679 0.62786 0.66841 0.0
C638 C 0.89629 0.6102 0.6606 0.0
C639 C 0.90374 0.63043 0.61111 0.0
N640 N 0.89147 0.6405 0.63685 0.0
O641 O 0.89986 0.59011 0.5529 0.0
H642 H 0.89438 0.59695 0.67913 0.0
H643 H 0.91023 0.63671 0.58269 0.0
O644 O 0.91621 0.57066 0.62952 0.0
C645 C 0.90035 0.60262 0.52196 0.0
O646 O 0.9148 0.61538 0.52133 0.0
N647 N 0.94623 0.60033 0.62266 0.0
C648 C 0.98479 0.6114 0.64471 0.0
C649 C 0.97935 0.59153 0.6434 0.0
C650 C 0.96 0.5863 0.63251 0.0
C651 C 0.95143 0.61971 0.62422 0.0
C652 C 0.97037 0.62553 0.63595 0.0
H653 H 0.95645 0.57088 0.6296 0.0
H654 H 0.94147 0.63091 0.61336 0.0
H655 H 0.93483 0.54818 0.57235 0.0
H656 H 0.96815 0.5749 0.47484 0.0
H657 H 0.87659 0.63086 0.69417 0.0
H658 H 0.99007 0.58011 0.64976 0.0
H659 H 0.97401 0.64103 0.63554 0.0
C660 C 0.6794 0.31532 0.75092 0.0
C661 C 0.69374 0.3027 0.76491 0.0
N662 N 0.70992 0.30571 0.7411 0.0
N663 N 0.6865 0.32645 0.71868 0.0
C664 C 0.70529 0.32046 0.71386 0.0
H665 H 0.66424 0.31512 0.76112 0.0
Co666 Co 0.67029 0.3421 0.68491 0.0
C667 C 0.69688 0.34646 0.60516 0.0
O668 O 0.68275 0.33917 0.58124 0.0
N669 N 0.65255 0.35813 0.65307 0.0
C670 C 0.63648 0.37955 0.61132 0.0
C671 C 0.6542 0.37007 0.61855 0.0
C672 C 0.63389 0.36122 0.66669 0.0
N673 N 0.62379 0.37399 0.64202 0.0
O674 O 0.67505 0.36444 0.72433 0.0
H675 H 0.6675 0.37261 0.60066 0.0
H676 H 0.62763 0.35419 0.69452 0.0
O677 O 0.69362 0.34917 0.64563 0.0
C678 C 0.66247 0.36348 0.75502 0.0
O679 O 0.64989 0.34888 0.75466 0.0
N680 N 0.66372 0.3192 0.65203 0.0
C681 C 0.65186 0.2811 0.62837 0.0
C682 C 0.6716 0.28682 0.62515 0.0
C683 C 0.67723 0.30593 0.637 0.0
C684 C 0.64448 0.31369 0.65508 0.0
C685 C 0.63821 0.295 0.64264 0.0
H686 H 0.69265 0.30954 0.63621 0.0
H687 H 0.63395 0.32312 0.67031 0.0
H688 H 0.71486 0.32561 0.68859 0.0
H689 H 0.69176 0.29089 0.7878 0.0
H690 H 0.63347 0.39033 0.58663 0.0
H691 H 0.68267 0.27648 0.61455 0.0
H692 H 0.6229 0.29107 0.6468 0.0
C693 C 0.93023 0.44346 0.01581 0.0
C694 C 0.93984 0.45932 0.03256 0.0
N695 N 0.94524 0.47104 0.99999 0.0
N696 N 0.92919 0.44526 0.97285 0.0
C697 C 0.9388 0.46216 0.96394 0.0
H698 H 0.92519 0.43098 0.03394 0.0
Co699 Co 0.91804 0.42622 0.93827 0.0
C700 C 0.90902 0.44676 0.85276 0.0
O701 O 0.91199 0.42983 0.83368 0.0
N702 N 0.90654 0.40593 0.90549 0.0
C703 C 0.88334 0.38667 0.87778 0.0
C704 C 0.88848 0.40573 0.88765 0.0
C705 C 0.91184 0.38675 0.90682 0.0
N706 N 0.89798 0.37458 0.89039 0.0
O707 O 0.89327 0.42862 0.97154 0.0
H708 H 0.87905 0.41847 0.88477 0.0
H709 H 0.92475 0.38169 0.92357 0.0
O710 O 0.91058 0.4476 0.89402 0.0
C711 C 0.89318 0.41465 0.99949 0.0
O712 O 0.90711 0.40134 0.99679 0.0
N713 N 0.94311 0.42187 0.91313 0.0
C714 C 0.9823 0.41215 0.89463 0.0
C715 C 0.97208 0.42598 0.86964 0.0
C716 C 0.95263 0.43103 0.88006 0.0
C717 C 0.9531 0.40878 0.93816 0.0
C718 C 0.97258 0.40369 0.92953 0.0
H719 H 0.94582 0.44274 0.8623 0.0
H720 H 0.94589 0.4024 0.96573 0.0
H721 H 0.94148 0.46757 0.93184 0.0
H722 H 0.94363 0.4615 0.06593 0.0
H723 H 0.86938 0.38213 0.86451 0.0
H724 H 0.97928 0.43327 0.84307 0.0
H725 H 0.97991 0.39306 0.94988 0.0
C726 C 0.83279 0.6917 0.25716 0.0
C727 C 0.81748 0.70017 0.27863 0.0
N728 N 0.80136 0.69862 0.25402 0.0
N729 N 0.82636 0.68456 0.21936 0.0
C730 C 0.80705 0.68918 0.21813 0.0
H731 H 0.84789 0.69164 0.26775 0.0
Co732 Co 0.84342 0.67248 0.18139 0.0
C733 C 0.8174 0.66731 0.10158 0.0
O734 O 0.83151 0.67517 0.07852 0.0
N735 N 0.86209 0.65989 0.1455 0.0
C736 C 0.87832 0.63747 0.10696 0.0
C737 C 0.86013 0.64564 0.11562 0.0
C738 C 0.88155 0.65969 0.15484 0.0
N739 N 0.89173 0.64622 0.13224 0.0
O740 O 0.84151 0.64825 0.2165 0.0
H741 H 0.8463 0.64006 0.10378 0.0
H742 H 0.88806 0.66821 0.18031 0.0
O743 O 0.82033 0.66466 0.1422 0.0
C744 C 0.85448 0.64887 0.24649 0.0
O745 O 0.86752 0.66307 0.24519 0.0
N746 N 0.84672 0.69736 0.15317 0.0
C747 C 0.85123 0.73821 0.14043 0.0
C748 C 0.83338 0.72871 0.1312 0.0
C749 C 0.83134 0.70847 0.13841 0.0
C750 C 0.86438 0.70629 0.1607 0.0
C751 C 0.86702 0.72651 0.15409 0.0
H752 H 0.81685 0.70226 0.13528 0.0
H753 H 0.87608 0.69825 0.17586 0.0
H754 H 0.79751 0.68642 0.19104 0.0
H755 H 0.81837 0.70813 0.30859 0.0
H756 H 0.88112 0.62487 0.08672 0.0
H757 H 0.82069 0.73699 0.12055 0.0
H758 H 0.88093 0.7331 0.16291 0.0
C759 C 0.57331 0.58154 0.50639 0.0
C760 C 0.5644 0.566 0.52627 0.0
N761 N 0.56622 0.55022 0.50084 0.0
N762 N 0.58101 0.57558 0.46879 0.0
C763 C 0.57627 0.55632 0.46601 0.0
H764 H 0.57341 0.59648 0.51796 0.0
Co765 Co 0.59373 0.59338 0.43339 0.0
C766 C 0.59965 0.57096 0.35028 0.0
O767 O 0.59282 0.58685 0.33146 0.0
N768 N 0.60705 0.61291 0.40032 0.0
C769 C 0.63021 0.62976 0.36508 0.0
C770 C 0.62232 0.61136 0.37282 0.0
C771 C 0.60659 0.63238 0.40981 0.0
N772 N 0.62039 0.64296 0.38889 0.0
O773 O 0.61749 0.59046 0.46965 0.0
H774 H 0.62857 0.59768 0.36182 0.0
H775 H 0.59734 0.63862 0.43428 0.0
O776 O 0.60162 0.57109 0.39154 0.0
C777 C 0.61661 0.60313 0.50017 0.0
O778 O 0.60259 0.61635 0.49855 0.0
N779 N 0.5692 0.59758 0.40424 0.0
C780 C 0.52846 0.60216 0.39157 0.0
C781 C 0.53792 0.58446 0.38137 0.0
C782 C 0.55819 0.58243 0.38808 0.0
C783 C 0.56022 0.61513 0.41268 0.0
C784 C 0.54005 0.61786 0.40579 0.0
H785 H 0.56446 0.56802 0.3839 0.0
H786 H 0.56806 0.62656 0.42909 0.0
H787 H 0.57952 0.5471 0.4387 0.0
H788 H 0.55614 0.5665 0.55587 0.0
H789 H 0.64322 0.63291 0.34635 0.0
H790 H 0.52952 0.57184 0.37074 0.0
H791 H 0.53331 0.6316 0.41532 0.0
C792 C 0.33335 0.31392 0.25021 0.0
C793 C 0.31872 0.30524 0.2735 0.0
N794 N 0.30141 0.31105 0.25707 0.0
N795 N 0.32534 0.32538 0.21953 0.0
C796 C 0.30572 0.32317 0.22412 0.0
H797 H 0.34893 0.31154 0.2545 0.0
Co798 Co 0.34131 0.33944 0.18257 0.0
C799 C 0.31391 0.34357 0.1045 0.0
O800 O 0.32766 0.33546 0.08088 0.0
N801 N 0.35893 0.35392 0.14792 0.0
C802 C 0.37467 0.37556 0.1064 0.0
C803 C 0.35693 0.36626 0.11418 0.0
C804 C 0.37781 0.35646 0.16044 0.0
N805 N 0.38772 0.36946 0.13598 0.0
O806 O 0.33827 0.36273 0.22041 0.0
H807 H 0.34332 0.36955 0.09796 0.0
H808 H 0.38414 0.34929 0.18812 0.0
O809 O 0.3175 0.34673 0.14471 0.0
C810 C 0.35014 0.36109 0.25237 0.0
O811 O 0.36245 0.34624 0.25228 0.0
N812 N 0.34594 0.31553 0.15147 0.0
C813 C 0.35297 0.27503 0.14086 0.0
C814 C 0.33398 0.28285 0.13639 0.0
C815 C 0.33077 0.30303 0.14189 0.0
C816 C 0.36469 0.3083 0.15274 0.0
C817 C 0.36855 0.2882 0.14699 0.0
H818 H 0.31576 0.30814 0.14284 0.0
H819 H 0.37666 0.31759 0.16266 0.0
H820 H 0.29486 0.32989 0.20339 0.0
H821 H 0.32059 0.29466 0.29913 0.0
H822 H 0.37736 0.3869 0.08276 0.0
H823 H 0.32147 0.27325 0.13173 0.0
H824 H 0.3834 0.28281 0.1514 0.0
C825 C 0.43605 0.58722 1.00458 0.0
C826 C 0.44709 0.57381 0.02664 0.0
N827 N 0.4505 0.55845 1.0007 0.0
N828 N 0.43222 0.58032 0.96499 0.0
C829 C 0.44139 0.5627 0.96331 0.0
H830 H 0.4316 0.60146 0.01636 0.0
Co831 Co 0.41825 0.59573 0.9268 0.0
C832 C 0.41221 0.57155 0.84642 0.0
O833 O 0.41691 0.58789 0.82639 0.0
N834 N 0.40346 0.61263 0.89045 0.0
C835 C 0.37659 0.62421 0.85835 0.0
C836 C 0.38596 0.60767 0.87315 0.0
C837 C 0.40402 0.63257 0.88682 0.0
N838 N 0.38782 0.63998 0.86726 0.0
O839 O 0.39472 0.59211 0.9632 0.0
H840 H 0.37963 0.5931 0.87421 0.0
H841 H 0.41533 0.64163 0.90087 0.0
O842 O 0.41201 0.57167 0.88795 0.0
C843 C 0.39272 0.60727 0.9874 0.0
O844 O 0.40429 0.62236 0.97997 0.0
N845 N 0.44241 0.60104 0.89778 0.0
C846 C 0.48309 0.6073 0.8867 0.0
C847 C 0.47384 0.59029 0.87097 0.0
C848 C 0.45374 0.58721 0.87775 0.0
C849 C 0.45095 0.61815 0.91121 0.0
C850 C 0.47113 0.62165 0.9057 0.0
H851 H 0.44804 0.57286 0.87038 0.0
H852 H 0.44257 0.6283 0.93046 0.0
H853 H 0.44167 0.55335 0.9353 0.0
H854 H 0.45295 0.57559 0.05868 0.0
H855 H 0.36189 0.62467 0.84509 0.0
H856 H 0.48229 0.57873 0.85589 0.0
H857 H 0.47751 0.6348 0.91944 0.0
C858 C 0.18935 0.68409 0.76576 0.0
C859 C 0.20493 0.69331 0.78483 0.0
N860 N 0.21856 0.69672 0.75466 0.0
N861 N 0.19324 0.68133 0.72384 0.0
C862 C 0.21114 0.68947 0.7178 0.0
H863 H 0.1757 0.68045 0.78134 0.0
Co864 Co 0.17531 0.66992 0.68683 0.0
C865 C 0.19925 0.6622 0.60514 0.0
O866 O 0.18405 0.66759 0.58194 0.0
N867 N 0.15607 0.65803 0.65138 0.0
C868 C 0.13825 0.63341 0.62465 0.0
C869 C 0.15704 0.64016 0.63283 0.0
C870 C 0.13655 0.6618 0.65368 0.0
N871 N 0.12525 0.64692 0.63859 0.0
O872 O 0.17702 0.64545 0.72112 0.0
H873 H 0.17036 0.63161 0.6298 0.0
H874 H 0.13067 0.67438 0.67003 0.0
O875 O 0.19759 0.66193 0.64642 0.0
C876 C 0.16288 0.6456 0.74844 0.0
O877 O 0.14934 0.65921 0.74397 0.0
N878 N 0.17188 0.69493 0.66028 0.0
C879 C 0.16498 0.7351 0.64398 0.0
C880 C 0.18092 0.72523 0.62505 0.0
C881 C 0.18436 0.70527 0.63426 0.0
C882 C 0.15667 0.7045 0.67957 0.0
C883 C 0.15273 0.72429 0.67133 0.0
H884 H 0.19774 0.69882 0.62256 0.0
H885 H 0.14812 0.69702 0.7037 0.0
H886 H 0.21836 0.69054 0.68703 0.0
H887 H 0.20569 0.69825 0.81776 0.0
H888 H 0.13456 0.61885 0.61326 0.0
H889 H 0.19127 0.73308 0.60502 0.0
H890 H 0.14035 0.73113 0.68714 0.0
C891 C 0.07149 0.43141 0.50243 0.0
C892 C 0.05672 0.44384 0.51503 0.0
N893 N 0.0527 0.45612 0.48232 0.0
N894 N 0.07691 0.43588 0.46206 0.0
C895 C 0.06537 0.45119 0.45082 0.0
H896 H 0.07694 0.41902 0.52057 0.0
Co897 Co 0.09293 0.41971 0.42956 0.0
C898 C 0.10288 0.44243 0.3484 0.0
O899 O 0.10087 0.4254 0.32904 0.0
N900 N 0.1095 0.40235 0.39883 0.0
C901 C 0.13798 0.39046 0.37569 0.0
C902 C 0.12799 0.4071 0.38735 0.0
C903 C 0.1088 0.38246 0.3947 0.0
N904 N 0.12603 0.37479 0.38046 0.0
O905 O 0.11479 0.42474 0.47011 0.0
H906 H 0.13431 0.42163 0.39025 0.0
H907 H 0.09639 0.37367 0.40459 0.0
O908 O 0.10021 0.44303 0.38944 0.0
C909 C 0.11601 0.40993 0.49567 0.0
O910 O 0.1042 0.395 0.48852 0.0
N911 N 0.07031 0.41278 0.39642 0.0
C912 C 0.03017 0.40571 0.38 0.0
C913 C 0.04035 0.42094 0.35912 0.0
C914 C 0.06019 0.42448 0.36832 0.0
C915 C 0.06107 0.39694 0.41427 0.0
C916 C 0.0411 0.39311 0.40651 0.0
H917 H 0.06637 0.43786 0.35601 0.0
H918 H 0.06865 0.38834 0.4383 0.0
H919 H 0.06555 0.45793 0.41946 0.0
H920 H 0.0486 0.44292 0.54475 0.0
H921 H 0.1534 0.38995 0.36744 0.0
H922 H 0.03274 0.431 0.33791 0.0
H923 H 0.034 0.38132 0.42397 0.0
C924 C 0.33664 0.68937 0.27054 0.0
C925 C 0.32649 0.70519 0.25514 0.0
N926 N 0.31324 0.71052 0.28478 0.0
N927 N 0.32976 0.68447 0.3096 0.0
C928 C 0.31523 0.69755 0.31736 0.0
H929 H 0.3494 0.683 0.25562 0.0
Co930 Co 0.34415 0.66743 0.34366 0.0
C931 C 0.32022 0.65867 0.42314 0.0
O932 O 0.33712 0.66011 0.4433 0.0
N933 N 0.36 0.64987 0.37555 0.0
C934 C 0.37044 0.62088 0.39929 0.0
C935 C 0.35437 0.63154 0.38642 0.0
C936 C 0.3798 0.64981 0.38134 0.0
N937 N 0.38661 0.63227 0.39592 0.0
O938 O 0.3383 0.64597 0.30268 0.0
H939 H 0.33966 0.6258 0.38233 0.0
H940 H 0.38917 0.66194 0.37241 0.0
O941 O 0.31998 0.66143 0.38207 0.0
C942 C 0.35283 0.64375 0.27679 0.0
O943 O 0.36899 0.65369 0.28464 0.0
N944 N 0.35176 0.68955 0.37742 0.0
C945 C 0.36214 0.72833 0.39891 0.0
C946 C 0.34536 0.71948 0.4164 0.0
C947 C 0.34016 0.7003 0.40453 0.0
C948 C 0.36849 0.69779 0.36131 0.0
C949 C 0.37393 0.7171 0.37149 0.0
H950 H 0.32592 0.69517 0.41434 0.0
H951 H 0.37687 0.68992 0.33745 0.0
H952 H 0.30751 0.69869 0.34752 0.0
H953 H 0.32945 0.71294 0.22552 0.0
H954 H 0.37026 0.60543 0.40743 0.0
H955 H 0.33553 0.72781 0.43675 0.0
H956 H 0.38693 0.7234 0.35692 0.0
C957 C 0.08241 0.57356 1.01282 0.0
C958 C 0.06876 0.56015 0.99889 0.0
N959 N 0.0613 0.55098 0.03336 0.0
N960 N 0.08373 0.57277 0.05601 0.0
C961 C 0.07102 0.55845 0.06731 0.0
H962 H 0.08929 0.58438 0.99255 0.0
Co963 Co 0.09501 0.59157 0.09238 0.0
C964 C 0.10419 0.56669 0.17482 0.0
O965 O 0.10232 0.58181 0.20049 0.0
N966 N 0.10617 0.61188 0.12847 0.0
C967 C 0.10637 0.63774 0.17274 0.0
C968 C 0.09776 0.61996 0.16355 0.0
C969 C 0.12028 0.62524 0.11786 0.0
N970 N 0.12038 0.64135 0.14342 0.0
O971 O 0.11973 0.58927 0.05944 0.0
H972 H 0.08498 0.6143 0.17986 0.0
H973 H 0.12975 0.62385 0.0905 0.0
O974 O 0.10232 0.56926 0.13395 0.0
C975 C 0.11886 0.6022 0.02935 0.0
O976 O 0.10396 0.61452 0.02987 0.0
N977 N 0.06982 0.59563 0.1172 0.0
C978 C 0.03034 0.60469 0.13426 0.0
C979 C 0.04036 0.59037 0.1584 0.0
C980 C 0.06006 0.58588 0.14912 0.0
C981 C 0.06037 0.60981 0.09414 0.0
C982 C 0.04071 0.61451 0.10193 0.0
H983 H 0.067 0.57415 0.16664 0.0
H984 H 0.06811 0.61727 0.06865 0.0
H985 H 0.06765 0.5547 0.10011 0.0
H986 H 0.06315 0.55889 0.96653 0.0
H987 H 0.10138 0.64792 0.197 0.0
H988 H 0.03286 0.58226 0.18339 0.0
H989 H 0.03372 0.62583 0.08283 0.0
C990 C 0.18406 0.32455 0.76806 0.0
C991 C 0.19764 0.31096 0.75488 0.0
N992 N 0.2095 0.30687 0.78819 0.0
N993 N 0.1874 0.32922 0.80943 0.0
C994 C 0.20326 0.31842 0.82057 0.0
H995 H 0.17155 0.3293 0.74953 0.0
Co996 Co 0.1696 0.343 0.84321 0.0
C997 C 0.19152 0.35116 0.92689 0.0
O998 O 0.17487 0.34744 0.94658 0.0
N999 N 0.15053 0.35718 0.87502 0.0
C1000 C 0.13457 0.38255 0.90411 0.0
C1001 C 0.15277 0.37454 0.89551 0.0
C1002 C 0.13079 0.35539 0.8705 0.0
N1003 N 0.12075 0.37057 0.88779 0.0
O1004 O 0.17355 0.36643 0.80642 0.0
H1005 H 0.16671 0.38182 0.90059 0.0
H1006 H 0.12384 0.34411 0.85152 0.0
O1007 O 0.19189 0.35032 0.88549 0.0
C1008 C 0.16001 0.3662 0.77758 0.0
O1009 O 0.14625 0.35274 0.78092 0.0
N1010 N 0.1638 0.31891 0.87254 0.0
C1011 C 0.15728 0.27852 0.88562 0.0
C1012 C 0.1729 0.28819 0.90593 0.0
C1013 C 0.17591 0.30836 0.89915 0.0
C1014 C 0.14816 0.3097 0.85379 0.0
C1015 C 0.1444 0.28968 0.86052 0.0
H1016 H 0.18916 0.31462 0.91198 0.0
H1017 H 0.13963 0.31735 0.82987 0.0
H1018 H 0.20932 0.31797 0.85256 0.0
H1019 H 0.19755 0.30325 0.72455 0.0
H1020 H 0.1318 0.39695 0.91754 0.0
H1021 H 0.18349 0.27995 0.92468 0.0
H1022 H 0.13256 0.28265 0.84309 0.0
C1023 C 0.43618 0.43847 0.51079 0.0
C1024 C 0.45068 0.45099 0.49686 0.0
N1025 N 0.45723 0.46129 0.53074 0.0
N1026 N 0.43346 0.44096 0.55325 0.0
C1027 C 0.44622 0.45528 0.56424 0.0
H1028 H 0.42939 0.42713 0.49169 0.0
Co1029 Co 0.42005 0.42354 0.58877 0.0
C1030 C 0.41137 0.44879 0.66955 0.0
O1031 O 0.41451 0.43353 0.69451 0.0
N1032 N 0.40649 0.40493 0.62275 0.0
C1033 C 0.38207 0.38858 0.6545 0.0
C1034 C 0.38951 0.40695 0.64473 0.0
C1035 C 0.40876 0.38522 0.61899 0.0
N1036 N 0.39412 0.37494 0.63774 0.0
O1037 O 0.39637 0.42654 0.55225 0.0
H1038 H 0.38199 0.42074 0.6498 0.0
H1039 H 0.41995 0.37845 0.59938 0.0
O1040 O 0.41257 0.44655 0.62843 0.0
C1041 C 0.3957 0.41196 0.52602 0.0
O1042 O 0.40936 0.39841 0.52957 0.0
N1043 N 0.44419 0.41839 0.61808 0.0
C1044 C 0.48355 0.40949 0.63806 0.0
C1045 C 0.47348 0.42453 0.65959 0.0
C1046 C 0.45395 0.42896 0.64875 0.0
C1047 C 0.45377 0.40357 0.59733 0.0
C1048 C 0.47331 0.39885 0.60679 0.0
H1049 H 0.44761 0.44183 0.66297 0.0
H1050 H 0.44649 0.39598 0.57139 0.0
H1051 H 0.44839 0.46028 0.59673 0.0
H1052 H 0.45717 0.45112 0.46521 0.0
H1053 H 0.36793 0.38554 0.66889 0.0
H1054 H 0.48096 0.43354 0.6831 0.0
H1055 H 0.4804 0.38712 0.58922 0.0
H1056 H 0.1039 0.11432 0.07826 0.0
H1057 H 0.15835 0.09315 0.02379 0.0
H1058 H 0.17522 0.0994 0.09357 0.0
H1059 H 0.12337 0.15329 0.13547 0.0
H1060 H 0.10685 0.15085 0.18025 0.0
H1061 H 0.09936 0.14261 0.12804 0.0
H1062 H 0.09222 0.10787 0.15848 0.0
H1063 H 0.09957 0.11607 0.21097 0.0
H1064 H 0.11122 0.09493 0.18727 0.0
H1065 H 0.18647 0.11223 0.1711 0.0
H1066 H 0.18976 0.12812 0.24275 0.0
H1067 H 0.12708 0.13931 0.24292 0.0
C1068 C 0.11932 0.11055 0.08113 0.0
C1069 C 0.12974 0.10308 0.0455 0.0
C1070 C 0.14994 0.09855 0.05073 0.0
C1071 C 0.15964 0.10222 0.0903 0.0
C1072 C 0.1489 0.11017 0.12457 0.0
C1073 C 0.12902 0.11394 0.12009 0.0
C1074 C 0.12054 0.12318 0.16009 0.0
C1075 C 0.11204 0.14369 0.15036 0.0
C1076 C 0.10497 0.1097 0.1804 0.0
C1077 C 0.13871 0.12453 0.18795 0.0
C1078 C 0.15505 0.11698 0.1675 0.0
C1079 C 0.17359 0.11788 0.18726 0.0
C1080 C 0.17537 0.12688 0.22818 0.0
C1081 C 0.15872 0.13496 0.24906 0.0
C1082 C 0.14021 0.13328 0.22845 0.0
H1083 H 0.12298 0.87638 0.49148 0.0
H1084 H 0.13857 0.93807 0.49132 0.0
H1085 H 0.15567 0.93343 0.42138 0.0
H1086 H 0.16736 0.8572 0.43869 0.0
H1087 H 0.15329 0.83908 0.4098 0.0
H1088 H 0.14523 0.84723 0.4618 0.0
H1089 H 0.11141 0.8567 0.42952 0.0
H1090 H 0.1194 0.84877 0.3775 0.0
H1091 H 0.11041 0.87346 0.38478 0.0
H1092 H 0.16856 0.92125 0.34472 0.0
H1093 H 0.1744 0.90392 0.2754 0.0
H1094 H 0.1486 0.8512 0.32901 0.0
C1095 C 0.13037 0.88892 0.47742 0.0
C1096 C 0.12952 0.90759 0.49735 0.0
C1097 C 0.13928 0.92354 0.47729 0.0
C1098 C 0.14892 0.92101 0.43729 0.0
C1099 C 0.14879 0.90241 0.4178 0.0
C1100 C 0.13982 0.88666 0.43788 0.0
C1101 C 0.14011 0.86845 0.4101 0.0
C1102 C 0.15222 0.85202 0.43137 0.0
C1103 C 0.11909 0.86145 0.39988 0.0
C1104 C 0.15026 0.87628 0.37052 0.0
C1105 C 0.1555 0.8958 0.37519 0.0
C1106 C 0.16457 0.90594 0.3413 0.0
C1107 C 0.16795 0.89598 0.30197 0.0
C1108 C 0.16197 0.87618 0.29655 0.0
C1109 C 0.15334 0.86635 0.33183 0.0
H1110 H 0.38337 0.88958 0.75073 0.0
H1111 H 0.32086 0.88438 0.72848 0.0
H1112 H 0.32517 0.89938 0.65625 0.0
H1113 H 0.39195 0.93596 0.6884 0.0
H1114 H 0.41533 0.927 0.66965 0.0
H1115 H 0.40631 0.91964 0.72152 0.0
H1116 H 0.41001 0.88309 0.69992 0.0
H1117 H 0.41884 0.89027 0.64803 0.0
H1118 H 0.39781 0.87428 0.65237 0.0
H1119 H 0.33829 0.91054 0.57994 0.0
H1120 H 0.35789 0.91601 0.51348 0.0
H1121 H 0.41131 0.91316 0.58853 0.0
C1122 C 0.37042 0.89238 0.73143 0.0
C1123 C 0.3517 0.88622 0.74585 0.0
C1124 C 0.33525 0.88954 0.71889 0.0
C1125 C 0.33766 0.89788 0.67751 0.0
C1126 C 0.35659 0.90301 0.66358 0.0
C1127 C 0.37262 0.90058 0.69043 0.0
C1128 C 0.39169 0.90519 0.66755 0.0
C1129 C 0.40192 0.92301 0.688 0.0
C1130 C 0.40537 0.88714 0.66693 0.0
C1131 C 0.38418 0.91006 0.62309 0.0
C1132 C 0.36391 0.90904 0.62103 0.0
C1133 C 0.35413 0.91171 0.58177 0.0
C1134 C 0.36535 0.91498 0.54407 0.0
C1135 C 0.38615 0.91534 0.54574 0.0
C1136 C 0.39542 0.91329 0.58613 0.0
H1137 H 0.36061 0.16097 0.83252 0.0
H1138 H 0.34912 0.10613 0.76714 0.0
H1139 H 0.3561 0.08795 0.83503 0.0
H1140 H 0.40074 0.14552 0.88996 0.0
H1141 H 0.39536 0.15982 0.93707 0.0
H1142 H 0.38669 0.16791 0.88559 0.0
H1143 H 0.35095 0.16872 0.91409 0.0
H1144 H 0.35955 0.16077 0.96592 0.0
H1145 H 0.34066 0.14704 0.93863 0.0
H1146 H 0.369 0.07598 0.91172 0.0
H1147 H 0.38499 0.07242 0.98325 0.0
H1148 H 0.38695 0.13581 0.99477 0.0
C1149 C 0.35893 0.14514 0.83262 0.0
C1150 C 0.35398 0.13503 0.79451 0.0
C1151 C 0.35241 0.11427 0.79605 0.0
C1152 C 0.35652 0.10385 0.83454 0.0
C1153 C 0.36199 0.11439 0.87136 0.0
C1154 C 0.36286 0.1347 0.8704 0.0
C1155 C 0.37028 0.14298 0.91241 0.0
C1156 C 0.38939 0.15474 0.90584 0.0
C1157 C 0.35441 0.15562 0.93404 0.0
C1158 C 0.374 0.12426 0.93735 0.0
C1159 C 0.36908 0.10778 0.91375 0.0
C1160 C 0.37256 0.0889 0.93036 0.0
C1161 C 0.38156 0.08696 0.97126 0.0
C1162 C 0.38715 0.10379 0.9951 0.0
C1163 C 0.3828 0.12256 0.97782 0.0
H1164 H 0.85797 0.85234 0.83448 0.0
H1165 H 0.84476 0.90664 0.76814 0.0
H1166 H 0.85242 0.9253 0.83497 0.0
H1167 H 0.83934 0.86653 0.94123 0.0
H1168 H 0.85879 0.85326 0.96777 0.0
H1169 H 0.84965 0.84488 0.91676 0.0
H1170 H 0.88496 0.84611 0.88587 0.0
H1171 H 0.89417 0.85454 0.93658 0.0
H1172 H 0.89872 0.86872 0.88878 0.0
H1173 H 0.86613 0.93788 0.91067 0.0
H1174 H 0.88325 0.94201 0.98082 0.0
H1175 H 0.88645 0.87875 0.99384 0.0
C1176 C 0.85615 0.86815 0.83411 0.0
C1177 C 0.85053 0.87797 0.796 0.0
C1178 C 0.84864 0.89871 0.79704 0.0
C1179 C 0.85311 0.90941 0.83493 0.0
C1180 C 0.85924 0.89915 0.87172 0.0
C1181 C 0.86044 0.87886 0.87129 0.0
C1182 C 0.86853 0.8709 0.91306 0.0
C1183 C 0.85316 0.85814 0.93606 0.0
C1184 C 0.88773 0.8594 0.9056 0.0
C1185 C 0.87228 0.8898 0.93721 0.0
C1186 C 0.86676 0.90609 0.9135 0.0
C1187 C 0.87016 0.9251 0.9294 0.0
C1188 C 0.87978 0.92737 0.96955 0.0
C1189 C 0.88607 0.91073 0.99329 0.0
C1190 C 0.88171 0.89183 0.9769 0.0
H1191 H 0.88444 0.12978 0.74327 0.0
H1192 H 0.82241 0.13841 0.71987 0.0
H1193 H 0.82594 0.12224 0.64875 0.0
H1194 H 0.8999 0.14305 0.6446 0.0
H1195 H 0.91998 0.12584 0.64121 0.0
H1196 H 0.91151 0.13396 0.69267 0.0
H1197 H 0.90566 0.0979 0.71598 0.0
H1198 H 0.91432 0.08958 0.66455 0.0
H1199 H 0.89043 0.08214 0.68351 0.0
H1200 H 0.83847 0.10979 0.57339 0.0
H1201 H 0.85781 0.10299 0.50724 0.0
H1202 H 0.91123 0.1032 0.58245 0.0
C1203 C 0.87138 0.12743 0.72404 0.0
C1204 C 0.85303 0.13487 0.73775 0.0
C1205 C 0.83647 0.13222 0.71084 0.0
C1206 C 0.83845 0.12322 0.67009 0.0
C1207 C 0.85706 0.11679 0.65676 0.0
C1208 C 0.87316 0.11858 0.68363 0.0
C1209 C 0.89198 0.11268 0.66117 0.0
C1210 C 0.90669 0.12991 0.65983 0.0
C1211 C 0.90113 0.09449 0.68258 0.0
C1212 C 0.88427 0.10786 0.61687 0.0
C1213 C 0.86408 0.11 0.61461 0.0
C1214 C 0.85421 0.1077 0.57539 0.0
C1215 C 0.86526 0.10366 0.53787 0.0
C1216 C 0.88601 0.10214 0.53971 0.0
C1217 C 0.89535 0.10384 0.58007 0.0
H1218 H 0.65359 0.16126 0.31754 0.0
H1219 H 0.67063 0.10711 0.25541 0.0
H1220 H 0.66506 0.08902 0.32397 0.0
H1221 H 0.67446 0.15031 0.42465 0.0
H1222 H 0.6543 0.16243 0.45112 0.0
H1223 H 0.6622 0.17067 0.39902 0.0
H1224 H 0.62677 0.16617 0.37009 0.0
H1225 H 0.61881 0.15785 0.42189 0.0
H1226 H 0.61489 0.14261 0.37547 0.0
H1227 H 0.65284 0.0766 0.40072 0.0
H1228 H 0.63674 0.07221 0.47184 0.0
H1229 H 0.62916 0.13526 0.48068 0.0
C1230 C 0.65671 0.14565 0.31855 0.0
C1231 C 0.66281 0.13566 0.28113 0.0
C1232 C 0.66638 0.11518 0.28378 0.0
C1233 C 0.66309 0.1048 0.32267 0.0
C1234 C 0.65647 0.11514 0.35881 0.0
C1235 C 0.65366 0.13526 0.35681 0.0
C1236 C 0.64541 0.1432 0.39834 0.0
C1237 C 0.65996 0.1575 0.41953 0.0
C1238 C 0.62528 0.15302 0.39099 0.0
C1239 C 0.64343 0.12445 0.42415 0.0
C1240 C 0.64993 0.10829 0.4014 0.0
C1241 C 0.64808 0.08931 0.41874 0.0
C1242 C 0.63903 0.0869 0.45944 0.0
C1243 C 0.63181 0.10336 0.48236 0.0
C1244 C 0.63463 0.1223 0.46446 0.0
H1245 H 0.63127 0.88363 0.23772 0.0
H1246 H 0.69448 0.88679 0.2243 0.0
H1247 H 0.69019 0.90266 0.15285 0.0
H1248 H 0.62151 0.86898 0.13513 0.0
H1249 H 0.59876 0.88235 0.12994 0.0
H1250 H 0.60715 0.87475 0.18196 0.0
H1251 H 0.60558 0.91076 0.2086 0.0
H1252 H 0.59705 0.9185 0.15656 0.0
H1253 H 0.61859 0.92968 0.17975 0.0
H1254 H 0.67765 0.91458 0.07613 0.0
H1255 H 0.65915 0.92006 1.00807 0.0
H1256 H 0.60477 0.90799 0.07471 0.0
C1257 C 0.64429 0.88822 0.22047 0.0
C1258 C 0.66324 0.88419 0.23715 0.0
C1259 C 0.67982 0.89013 0.2129 0.0
C1260 C 0.67745 0.89902 0.17199 0.0
C1261 C 0.65842 0.90206 0.15582 0.0
C1262 C 0.64217 0.89696 0.17999 0.0
C1263 C 0.62326 0.89987 0.15509 0.0
C1264 C 0.61203 0.88033 0.15025 0.0
C1265 C 0.61036 0.91565 0.17626 0.0
C1266 C 0.63121 0.90695 0.11249 0.0
C1267 C 0.65148 0.90844 0.11316 0.0
C1268 C 0.66178 0.9137 0.07588 0.0
C1269 C 0.65116 0.91696 0.03728 0.0
C1270 C 0.63047 0.91475 0.03606 0.0
C1271 C 0.62056 0.91009 0.0746 0.0
H1272 H 0.60168 0.60559 0.57968 0.0
H1273 H 0.65716 0.59975 0.51342 0.0
H1274 H 0.67484 0.60547 0.58239 0.0
H1275 H 0.61462 0.64464 0.64293 0.0
H1276 H 0.6007 0.63695 0.68908 0.0
H1277 H 0.59316 0.62938 0.63646 0.0
H1278 H 0.59459 0.59288 0.66006 0.0
H1279 H 0.60206 0.60036 0.713 0.0
H1280 H 0.61689 0.58323 0.68319 0.0
H1281 H 0.68598 0.61668 0.6604 0.0
H1282 H 0.68865 0.63122 0.7334 0.0
H1283 H 0.62533 0.62891 0.74539 0.0
C1284 C 0.61759 0.60489 0.57979 0.0
C1285 C 0.62802 0.60191 0.54113 0.0
C1286 C 0.64882 0.60152 0.54267 0.0
C1287 C 0.65895 0.60493 0.5818 0.0
C1288 C 0.64808 0.60848 0.61924 0.0
C1289 C 0.62776 0.60816 0.61822 0.0
C1290 C 0.61907 0.61378 0.66115 0.0
C1291 C 0.60614 0.63228 0.65714 0.0
C1292 C 0.60747 0.59653 0.68049 0.0
C1293 C 0.63755 0.61789 0.68668 0.0
C1294 C 0.65426 0.61464 0.66254 0.0
C1295 C 0.67291 0.61888 0.67948 0.0
C1296 C 0.67435 0.62701 0.72125 0.0
C1297 C 0.65724 0.63101 0.74565 0.0
C1298 C 0.63876 0.62583 0.72806 0.0
H1299 H 0.62872 0.37683 0.78886 0.0
H1300 H 0.69171 0.38107 0.80513 0.0
H1301 H 0.68657 0.39794 0.87515 0.0
H1302 H 0.61505 0.42367 0.84192 0.0
H1303 H 0.59334 0.41267 0.86471 0.0
H1304 H 0.60256 0.40414 0.81394 0.0
H1305 H 0.60409 0.36865 0.84386 0.0
H1306 H 0.59509 0.37703 0.89473 0.0
H1307 H 0.61799 0.36379 0.89192 0.0
H1308 H 0.67299 0.41109 0.95042 0.0
H1309 H 0.6535 0.41822 0.01637 0.0
H1310 H 0.60017 0.40414 0.94712 0.0
C1311 C 0.64151 0.38189 0.8064 0.0
C1312 C 0.66063 0.37789 0.79101 0.0
C1313 C 0.67691 0.38439 0.81557 0.0
C1314 C 0.67406 0.39384 0.85567 0.0
C1315 C 0.65484 0.39685 0.87065 0.0
C1316 C 0.63889 0.3912 0.846 0.0
C1317 C 0.6197 0.39434 0.86946 0.0
C1318 C 0.60691 0.40962 0.84612 0.0
C1319 C 0.60858 0.3748 0.87534 0.0
C1320 C 0.62712 0.40219 0.91183 0.0
C1321 C 0.64736 0.40386 0.91235 0.0
C1322 C 0.65712 0.41001 0.94973 0.0
C1323 C 0.64596 0.41415 0.98714 0.0
C1324 C 0.62525 0.41184 0.98712 0.0
C1325 C 0.61595 0.40615 0.94847 0.0
H1326 H 0.90764 0.40864 0.07867 0.0
H1327 H 0.85266 0.41941 1.01292 0.0
H1328 H 0.83463 0.41263 0.08103 0.0
H1329 H 0.89281 0.36899 0.13769 0.0
H1330 H 0.90715 0.37499 0.18447 0.0
H1331 H 0.91501 0.38328 0.1326 0.0
H1332 H 0.91543 0.41929 0.15957 0.0
H1333 H 0.90767 0.41108 0.21179 0.0
H1334 H 0.89367 0.42954 0.1837 0.0
H1335 H 0.82294 0.39983 0.15834 0.0
H1336 H 0.81982 0.38397 0.23013 0.0
H1337 H 0.88321 0.38337 0.24159 0.0
C1338 C 0.89181 0.41025 0.07864 0.0
C1339 C 0.88163 0.41492 0.04037 0.0
C1340 C 0.86087 0.41632 0.0419 0.0
C1341 C 0.85053 0.41233 0.08054 0.0
C1342 C 0.86117 0.40723 0.11756 0.0
C1343 C 0.88147 0.40655 0.11657 0.0
C1344 C 0.88994 0.39963 0.15883 0.0
C1345 C 0.90192 0.3806 0.15302 0.0
C1346 C 0.90241 0.41585 0.1797 0.0
C1347 C 0.87133 0.39591 0.18399 0.0
C1348 C 0.85473 0.40041 0.16028 0.0
C1349 C 0.83595 0.39666 0.17706 0.0
C1350 C 0.83425 0.38776 0.21814 0.0
C1351 C 0.85124 0.38257 0.24199 0.0
C1352 C 0.86986 0.38728 0.22465 0.0
H1353 H 0.85921 0.66251 0.32661 0.0
H1354 H 0.84985 0.60825 0.2574 0.0
H1355 H 0.85604 0.5894 0.32475 0.0
H1356 H 0.89882 0.64716 0.38542 0.0
H1357 H 0.89261 0.66079 0.43299 0.0
H1358 H 0.88434 0.66929 0.38156 0.0
H1359 H 0.84833 0.66902 0.4085 0.0
H1360 H 0.85655 0.6605 0.46021 0.0
H1361 H 0.83822 0.64681 0.43106 0.0
H1362 H 0.86826 0.57675 0.40094 0.0
H1363 H 0.88465 0.57255 0.47186 0.0
H1364 H 0.88524 0.63568 0.4879 0.0
C1365 C 0.85788 0.64665 0.32574 0.0
C1366 C 0.85381 0.63689 0.28671 0.0
C1367 C 0.85253 0.6161 0.28698 0.0
C1368 C 0.85616 0.60531 0.32518 0.0
C1369 C 0.8608 0.61551 0.36297 0.0
C1370 C 0.86137 0.63583 0.36322 0.0
C1371 C 0.86818 0.6437 0.4061 0.0
C1372 C 0.8871 0.65594 0.4012 0.0
C1373 C 0.85184 0.65572 0.42775 0.0
C1374 C 0.87201 0.62474 0.43006 0.0
C1375 C 0.86752 0.60849 0.40529 0.0
C1376 C 0.87141 0.58946 0.42059 0.0
C1377 C 0.88055 0.58714 0.4612 0.0
C1378 C 0.88589 0.60376 0.48595 0.0
C1379 C 0.88099 0.62265 0.47026 0.0
H1380 H 0.38165 0.37816 0.49288 0.0
H1381 H 0.38003 0.44106 0.47267 0.0
H1382 H 0.36407 0.43566 0.4017 0.0
H1383 H 0.39588 0.36573 0.39142 0.0
H1384 H 0.38186 0.34328 0.38875 0.0
H1385 H 0.38976 0.35257 0.43978 0.0
H1386 H 0.3538 0.35263 0.46677 0.0
H1387 H 0.34573 0.34317 0.4158 0.0
H1388 H 0.33521 0.36551 0.43659 0.0
H1389 H 0.35173 0.42175 0.32632 0.0
H1390 H 0.34529 0.40187 0.26061 0.0
H1391 H 0.35598 0.34876 0.33346 0.0
C1392 C 0.37736 0.3909 0.47424 0.0
C1393 C 0.38184 0.41007 0.48887 0.0
C1394 C 0.37633 0.42626 0.46285 0.0
C1395 C 0.3674 0.42325 0.4222 0.0
C1396 C 0.3639 0.40397 0.40808 0.0
C1397 C 0.36857 0.38813 0.43402 0.0
C1398 C 0.36509 0.36879 0.41126 0.0
C1399 C 0.38428 0.35691 0.40758 0.0
C1400 C 0.349 0.35682 0.43396 0.0
C1401 C 0.35817 0.37599 0.36787 0.0
C1402 C 0.35727 0.39628 0.36623 0.0
C1403 C 0.35218 0.40587 0.32787 0.0
C1404 C 0.34839 0.39447 0.2906 0.0
C1405 C 0.34994 0.37371 0.29175 0.0
C1406 C 0.3545 0.36459 0.33135 0.0
H1407 H 0.38329 0.63974 0.03328 0.0
H1408 H 0.37514 0.57659 0.03367 0.0
H1409 H 0.35985 0.57895 0.10601 0.0
H1410 H 0.39886 0.64337 0.13839 0.0
H1411 H 0.3875 0.66691 0.14778 0.0
H1412 H 0.39473 0.66012 0.09448 0.0
H1413 H 0.35919 0.66614 0.06757 0.0
H1414 H 0.35182 0.67294 0.12095 0.0
H1415 H 0.33901 0.65359 0.0931 0.0
H1416 H 0.34804 0.58914 0.18441 0.0
H1417 H 0.3431 0.60512 0.25551 0.0
H1418 H 0.36089 0.66078 0.20084 0.0
C1419 C 0.37793 0.62634 0.0479 0.0
C1420 C 0.38033 0.60796 0.0272 0.0
C1421 C 0.37323 0.59089 0.04825 0.0
C1422 C 0.36459 0.59214 0.08959 0.0
C1423 C 0.36307 0.61056 0.10954 0.0
C1424 C 0.36955 0.62732 0.08884 0.0
C1425 C 0.3681 0.64524 0.1174 0.0
C1426 C 0.3885 0.65443 0.12496 0.0
C1427 C 0.35367 0.66037 0.09863 0.0
C1428 C 0.36007 0.63611 0.15799 0.0
C1429 C 0.35691 0.61614 0.1532 0.0
C1430 C 0.35029 0.6048 0.18792 0.0
C1431 C 0.34733 0.614 0.22823 0.0
C1432 C 0.35121 0.6343 0.23369 0.0
C1433 C 0.35736 0.64533 0.19768 0.0
H1434 H 0.12932 0.6357 0.9894 0.0
H1435 H 0.1387 0.57285 0.98415 0.0
H1436 H 0.15499 0.57683 0.91313 0.0
H1437 H 0.11491 0.64124 0.88524 0.0
H1438 H 0.12602 0.66505 0.87776 0.0
H1439 H 0.11869 0.6573 0.93039 0.0
H1440 H 0.15404 0.66312 0.95862 0.0
H1441 H 0.16148 0.67109 0.906 0.0
H1442 H 0.17448 0.65139 0.93231 0.0
H1443 H 0.16699 0.58867 0.83563 0.0
H1444 H 0.17222 0.60618 0.76615 0.0
H1445 H 0.15309 0.66036 0.82549 0.0
C1446 C 0.13536 0.62277 0.97406 0.0
C1447 C 0.13297 0.60398 0.99282 0.0
C1448 C 0.14077 0.58746 0.97108 0.0
C1449 C 0.14989 0.58962 0.93043 0.0
C1450 C 0.15124 0.60842 0.91203 0.0
C1451 C 0.14429 0.62468 0.93386 0.0
C1452 C 0.14558 0.64311 0.90685 0.0
C1453 C 0.12509 0.65219 0.89964 0.0
C1454 C 0.15974 0.65806 0.92716 0.0
C1455 C 0.15388 0.63483 0.86574 0.0
C1456 C 0.15742 0.61488 0.86893 0.0
C1457 C 0.16441 0.60433 0.83338 0.0
C1458 C 0.16745 0.61438 0.79396 0.0
C1459 C 0.16317 0.63469 0.79019 0.0
C1460 C 0.15663 0.64486 0.82705 0.0
H1461 H 0.15377 0.35172 0.69859 0.0
H1462 H 0.16575 0.40651 0.76376 0.0
H1463 H 0.15927 0.42467 0.69562 0.0
H1464 H 0.17448 0.36527 0.59297 0.0
H1465 H 0.15559 0.35172 0.56523 0.0
H1466 H 0.1638 0.34374 0.61734 0.0
H1467 H 0.1279 0.34501 0.64487 0.0
H1468 H 0.11964 0.3531 0.5931 0.0
H1469 H 0.11414 0.36754 0.63994 0.0
H1470 H 0.14681 0.43669 0.6185 0.0
H1471 H 0.13118 0.4403 0.54657 0.0
H1472 H 0.1286 0.37692 0.53554 0.0
C1473 C 0.15563 0.36753 0.69841 0.0
C1474 C 0.16057 0.37763 0.73654 0.0
C1475 C 0.16244 0.39836 0.73486 0.0
C1476 C 0.15861 0.40878 0.69622 0.0
C1477 C 0.15317 0.39825 0.65936 0.0
C1478 C 0.15203 0.37796 0.66047 0.0
C1479 C 0.14476 0.3697 0.61832 0.0
C1480 C 0.1606 0.35685 0.59722 0.0
C1481 C 0.12547 0.35817 0.62445 0.0
C1482 C 0.1414 0.38843 0.59315 0.0
C1483 C 0.14639 0.40488 0.61674 0.0
C1484 C 0.14321 0.42378 0.59988 0.0
C1485 C 0.13442 0.42575 0.55875 0.0
C1486 C 0.12874 0.40893 0.53495 0.0
C1487 C 0.13283 0.39015 0.55247 0.0
H1488 H 0.12649 0.25837 0.42814 0.0
H1489 H 0.18129 0.25661 0.35749 0.0
H1490 H 0.17857 0.29213 0.34279 0.0
H1491 H 0.1016 0.29426 0.36227 0.0
H1492 H 0.09018 0.307 0.40626 0.0
H1493 H 0.09596 0.28125 0.41109 0.0
H1494 H 0.11637 0.28826 0.47945 0.0
H1495 H 0.11048 0.314 0.47504 0.0
H1496 H 0.13579 0.30626 0.47754 0.0
H1497 H 0.16935 0.32707 0.33227 0.0
H1498 H 0.15663 0.36073 0.33393 0.0
H1499 H 0.10887 0.34182 0.41663 0.0
C1500 C 0.13791 0.26558 0.40982 0.0
C1501 C 0.1542 0.25477 0.39412 0.0
C1502 C 0.16887 0.26465 0.37025 0.0
C1503 C 0.16736 0.2848 0.36146 0.0
C1504 C 0.15117 0.29504 0.37716 0.0
C1505 C 0.13685 0.28594 0.40146 0.0
C1506 C 0.12145 0.3008 0.41575 0.0
C1507 C 0.10109 0.29551 0.39776 0.0
C1508 C 0.121 0.30243 0.46487 0.0
C1509 C 0.12931 0.31957 0.39537 0.0
C1510 C 0.14634 0.31572 0.37286 0.0
C1511 C 0.15621 0.33035 0.35041 0.0
C1512 C 0.14887 0.34956 0.35182 0.0
C1513 C 0.13192 0.35434 0.37621 0.0
C1514 C 0.12184 0.3389 0.3977 0.0
H1515 H 0.91606 0.88374 0.58696 0.0
H1516 H 0.90814 0.86836 0.72054 0.0
H1517 H 0.94259 0.87767 0.7356 0.0
H1518 H 0.96548 0.86458 0.57876 0.0
H1519 H 0.97384 0.88364 0.54299 0.0
H1520 H 0.94835 0.87651 0.5431 0.0
H1521 H 0.93827 0.91263 0.55738 0.0
H1522 H 0.96375 0.91984 0.55753 0.0
H1523 H 0.9484 0.92536 0.60296 0.0
H1524 H 0.97779 0.8896 0.73657 0.0
H1525 H 0.01203 0.89996 0.72185 0.0
H1526 H 0.99791 0.90574 0.58694 0.0
C1527 C 0.92165 0.88239 0.61931 0.0
C1528 C 0.90947 0.87529 0.65259 0.0
C1529 C 0.91729 0.87354 0.69452 0.0
C1530 C 0.93679 0.87894 0.70342 0.0
C1531 C 0.94845 0.88587 0.66995 0.0
C1532 C 0.94126 0.88737 0.6286 0.0
C1533 C 0.95717 0.89442 0.59815 0.0
C1534 C 0.96146 0.87886 0.56372 0.0
C1535 C 0.95156 0.91424 0.57781 0.0
C1536 C 0.97437 0.89667 0.62882 0.0
C1537 C 0.96894 0.89194 0.67021 0.0
C1538 C 0.98221 0.89324 0.70423 0.0
C1539 C 1.0016 0.89923 0.69565 0.0
C1540 C 0.00765 0.90356 0.65331 0.0
C1541 C 0.99374 0.90235 0.6196 0.0
H1542 H 0.39815 0.67201 0.91638 0.0
H1543 H 0.36391 0.65434 0.80552 0.0
H1544 H 0.35111 0.68802 0.79853 0.0
H1545 H 0.36255 0.70543 0.96041 0.0
H1546 H 0.3803 0.72346 0.97754 0.0
H1547 H 0.38715 0.69792 0.97428 0.0
H1548 H 0.41596 0.70679 0.92373 0.0
H1549 H 0.40933 0.73238 0.92722 0.0
H1550 H 0.41111 0.72067 0.87561 0.0
H1551 H 0.34144 0.72317 0.80342 0.0
H1552 H 0.33737 0.75871 0.81693 0.0
H1553 H 0.37788 0.75492 0.92388 0.0
C1554 C 0.38818 0.67529 0.89031 0.0
C1555 C 0.38195 0.66033 0.86164 0.0
C1556 C 0.36869 0.66534 0.82828 0.0
C1557 C 0.36135 0.68449 0.82397 0.0
C1558 C 0.36739 0.69871 0.85316 0.0
C1559 C 0.38065 0.69449 0.88545 0.0
C1560 C 0.38477 0.71277 0.91216 0.0
C1561 C 0.37831 0.7097 0.95887 0.0
C1562 C 0.40659 0.71849 0.90951 0.0
C1563 C 0.37181 0.72785 0.88966 0.0
C1564 C 0.36185 0.71928 0.85586 0.0
C1565 C 0.34915 0.73004 0.82979 0.0
C1566 C 0.34685 0.75018 0.83778 0.0
C1567 C 0.35713 0.75945 0.8716 0.0
C1568 C 0.36963 0.74809 0.8982 0.0
H1569 H 0.51087 0.13988 0.14684 0.0
H1570 H 0.51342 0.07619 0.13787 0.0
H1571 H 0.54937 0.0778 0.13252 0.0
H1572 H 0.54929 0.14934 0.07042 0.0
H1573 H 0.55943 0.17003 0.09887 0.0
H1574 H 0.53373 0.16418 0.10409 0.0
H1575 H 0.5376 0.16218 0.18649 0.0
H1576 H 0.56332 0.16808 0.18153 0.0
H1577 H 0.55588 0.14604 0.20921 0.0
H1578 H 0.58479 0.08582 0.12622 0.0
H1579 H 0.61789 0.09968 0.12062 0.0
H1580 H 0.59376 0.1586 0.13138 0.0
C1581 C 0.51899 0.12627 0.14396 0.0
C1582 C 0.5091 0.10786 0.14363 0.0
C1583 C 0.52045 0.09045 0.13959 0.0
C1584 C 0.54096 0.0912 0.13606 0.0
C1585 C 0.55017 0.10948 0.13647 0.0
C1586 C 0.53964 0.12673 0.14041 0.0
C1587 C 0.5534 0.1444 0.13927 0.0
C1588 C 0.54868 0.15778 0.10087 0.0
C1589 C 0.55249 0.15585 0.18165 0.0
C1590 C 0.57322 0.13433 0.13379 0.0
C1591 C 0.57088 0.11418 0.13227 0.0
C1592 C 0.58681 0.10159 0.1272 0.0
C1593 C 0.60566 0.10971 0.12362 0.0
C1594 C 0.60869 0.13036 0.12495 0.0
C1595 C 0.59209 0.14279 0.1303 0.0
H1596 H 0.12519 0.67172 0.2001 0.0
H1597 H 0.13742 0.65436 0.06891 0.0
H1598 H 0.15095 0.68719 0.05445 0.0
H1599 H 0.10849 0.71949 0.17522 0.0
H1600 H 0.11901 0.73088 0.22204 0.0
H1601 H 0.11206 0.70536 0.22351 0.0
H1602 H 0.14736 0.6958 0.2467 0.0
H1603 H 0.1544 0.72133 0.24555 0.0
H1604 H 0.16795 0.70359 0.21456 0.0
H1605 H 0.16147 0.7232 0.05283 0.0
H1606 H 0.16792 0.75859 0.06478 0.0
H1607 H 0.14809 0.75252 0.1962 0.0
C1608 C 0.13078 0.67465 0.16833 0.0
C1609 C 0.13015 0.66008 0.13588 0.0
C1610 C 0.13787 0.66485 0.09485 0.0
C1611 C 0.14554 0.68364 0.08611 0.0
C1612 C 0.14547 0.6977 0.11859 0.0
C1613 C 0.13836 0.69337 0.15895 0.0
C1614 C 0.13914 0.7113 0.18778 0.0
C1615 C 0.11844 0.7171 0.20302 0.0
C1616 C 0.15304 0.70779 0.2259 0.0
C1617 C 0.14748 0.72648 0.15716 0.0
C1618 C 0.15121 0.71835 0.11748 0.0
C1619 C 0.15869 0.72966 0.0839 0.0
C1620 C 0.16238 0.74977 0.09102 0.0
C1621 C 0.15843 0.75851 0.13132 0.0
C1622 C 0.15101 0.7465 0.16476 0.0
H1623 H 0.51698 0.91751 0.41266 0.0
H1624 H 0.49426 0.87087 0.33203 0.0
H1625 H 0.52795 0.85819 0.32181 0.0
H1626 H 0.5631 0.92543 0.35404 0.0
H1627 H 0.57721 0.92959 0.40208 0.0
H1628 H 0.55147 0.93579 0.40071 0.0
H1629 H 0.54554 0.91385 0.46728 0.0
H1630 H 0.57121 0.90744 0.46865 0.0
H1631 H 0.55285 0.88838 0.46596 0.0
H1632 H 0.56384 0.84984 0.32232 0.0
H1633 H 0.59945 0.84661 0.33194 0.0
H1634 H 0.59932 0.89791 0.41484 0.0
C1635 C 0.51918 0.90488 0.39215 0.0
C1636 C 0.50299 0.89524 0.37284 0.0
C1637 C 0.50643 0.87847 0.34707 0.0
C1638 C 0.52552 0.87117 0.34108 0.0
C1639 C 0.5411 0.88074 0.36123 0.0
C1640 C 0.53819 0.89726 0.38615 0.0
C1641 C 0.55746 0.90423 0.40557 0.0
C1642 C 0.56261 0.92499 0.38964 0.0
C1643 C 0.55671 0.90342 0.45478 0.0
C1644 C 0.5716 0.889 0.38779 0.0
C1645 C 0.56183 0.87565 0.36221 0.0
C1646 C 0.57165 0.8602 0.34236 0.0
C1647 C 0.59201 0.8584 0.34844 0.0
C1648 C 0.60254 0.87191 0.37445 0.0
C1649 C 0.59197 0.88737 0.39447 0.0
H1650 H 0.38324 0.34788 0.69745 0.0
H1651 H 0.39409 0.35593 0.56193 0.0
H1652 H 0.38475 0.32131 0.54846 0.0
H1653 H 0.40342 0.29856 0.7029 0.0
H1654 H 0.38575 0.28999 0.74164 0.0
H1655 H 0.39258 0.31557 0.74027 0.0
H1656 H 0.35597 0.32526 0.73172 0.0
H1657 H 0.34905 0.2997 0.73286 0.0
H1658 H 0.3418 0.31498 0.68834 0.0
H1659 H 0.37291 0.28599 0.54955 0.0
H1660 H 0.36299 0.25175 0.56599 0.0
H1661 H 0.36223 0.26567 0.70141 0.0
C1662 C 0.38364 0.34224 0.66505 0.0
C1663 C 0.38941 0.3545 0.63068 0.0
C1664 C 0.3899 0.34669 0.58866 0.0
C1665 C 0.3845 0.32709 0.58073 0.0
C1666 C 0.37889 0.31534 0.61526 0.0
C1667 C 0.37871 0.32253 0.6567 0.0
C1668 C 0.37291 0.30653 0.68826 0.0
C1669 C 0.38966 0.30242 0.72015 0.0
C1670 C 0.35379 0.31195 0.71167 0.0
C1671 C 0.36979 0.28929 0.65814 0.0
C1672 C 0.37303 0.29476 0.61609 0.0
C1673 C 0.3705 0.28152 0.5824 0.0
C1674 C 0.36478 0.26213 0.59197 0.0
C1675 C 0.36197 0.25604 0.63489 0.0
C1676 C 0.36447 0.26988 0.66831 0.0
H1677 H 0.92469 0.1431 0.9452 0.0
H1678 H 0.90558 0.11892 0.82362 0.0
H1679 H 0.93935 0.10753 0.80916 0.0
H1680 H 0.97096 0.1608 0.90873 0.0
H1681 H 0.98416 0.15477 0.95709 0.0
H1682 H 0.95827 0.16012 0.95936 0.0
H1683 H 0.9518 0.12658 0.99608 0.0
H1684 H 0.97771 0.12121 0.99431 0.0
H1685 H 0.96034 0.10434 0.9709 0.0
H1686 H 0.97545 0.09958 0.80668 0.0
H1687 H 0.01119 0.09522 0.81691 0.0
H1688 H 0.00727 0.12453 0.94003 0.0
C1689 C 0.92755 0.13509 0.91594 0.0
C1690 C 0.91241 0.13189 0.88555 0.0
C1691 C 0.91691 0.12167 0.84723 0.0
C1692 C 0.93606 0.1151 0.83877 0.0
C1693 C 0.95071 0.11882 0.86891 0.0
C1694 C 0.94671 0.12851 0.90683 0.0
C1695 C 0.96532 0.1311 0.93318 0.0
C1696 C 0.96995 0.153 0.93998 0.0
C1697 C 0.96369 0.12015 0.97616 0.0
C1698 C 0.98038 0.12148 0.90405 0.0
C1699 C 0.97161 0.11443 0.86724 0.0
C1700 C 0.98246 0.10497 0.83549 0.0
C1701 C 1.00278 0.10252 0.84164 0.0
C1702 C 0.01217 0.10954 0.87918 0.0
C1703 C 1.00069 0.11922 0.91065 0.0
H1704 H 0.86345 0.75108 0.6977 0.0
H1705 H 0.8538 0.76147 0.56211 0.0
H1706 H 0.86127 0.72658 0.54721 0.0
H1707 H 0.90393 0.7178 0.68655 0.0
H1708 H 0.89656 0.7022 0.73039 0.0
H1709 H 0.89003 0.72785 0.73049 0.0
H1710 H 0.85333 0.71854 0.73887 0.0
H1711 H 0.85974 0.69285 0.7387 0.0
H1712 H 0.84211 0.70217 0.70063 0.0
H1713 H 0.87135 0.6909 0.54659 0.0
H1714 H 0.88216 0.65682 0.56047 0.0
H1715 H 0.88452 0.66897 0.69664 0.0
C1716 C 0.86298 0.74605 0.66482 0.0
C1717 C 0.85809 0.75913 0.63101 0.0
C1718 C 0.85735 0.75179 0.58858 0.0
C1719 C 0.86165 0.73198 0.57979 0.0
C1720 C 0.8665 0.71955 0.6138 0.0
C1721 C 0.86706 0.72626 0.65552 0.0
C1722 C 0.8727 0.70982 0.68622 0.0
C1723 C 0.89195 0.71471 0.70979 0.0
C1724 C 0.85597 0.7056 0.71798 0.0
C1725 C 0.87548 0.69287 0.65521 0.0
C1726 C 0.87186 0.69885 0.61357 0.0
C1727 C 0.87411 0.68606 0.57909 0.0
C1728 C 0.88035 0.66674 0.58726 0.0
C1729 C 0.88417 0.66021 0.62961 0.0
C1730 C 0.88147 0.67346 0.66403 0.0
H1731 H 0.01336 0.13115 0.36783 0.0
H1732 H 0.0134 0.07575 0.43692 0.0
H1733 H 0.04915 0.07869 0.44824 0.0
H1734 H 0.06072 0.1233 0.31461 0.0
H1735 H 0.06778 0.14879 0.31795 0.0
H1736 H 0.04217 0.14223 0.31464 0.0
H1737 H 0.0354 0.16167 0.38437 0.0
H1738 H 0.06102 0.16812 0.3881 0.0
H1739 H 0.04911 0.15584 0.43219 0.0
H1740 H 0.08434 0.08859 0.45648 0.0
H1741 H 0.11745 0.10272 0.45443 0.0
H1742 H 0.09569 0.15092 0.3759 0.0
C1743 C 0.02096 0.11959 0.38505 0.0
C1744 C 0.01056 0.10314 0.40126 0.0
C1745 C 0.02104 0.08831 0.4236 0.0
C1746 C 0.04135 0.08993 0.43052 0.0
C1747 C 0.05112 0.10639 0.41456 0.0
C1748 C 0.04138 0.12082 0.3917 0.0
C1749 C 0.05558 0.13679 0.37739 0.0
C1750 C 0.05662 0.13783 0.32823 0.0
C1751 C 0.04994 0.15679 0.39667 0.0
C1752 C 0.07473 0.12919 0.39633 0.0
C1753 C 0.07172 0.11172 0.41788 0.0
C1754 C 0.08695 0.1021 0.43905 0.0
C1755 C 0.10585 0.11029 0.43746 0.0
C1756 C 0.10967 0.12787 0.41428 0.0
C1757 C 0.09364 0.1375 0.3939 0.0
H1758 H 0.59825 0.33689 0.14427 0.0
H1759 H 0.65329 0.36782 0.12734 0.0
H1760 H 0.6707 0.33586 0.12043 0.0
H1761 H 0.61616 0.29643 0.20518 0.0
H1762 H 0.60071 0.27841 0.17952 0.0
H1763 H 0.59278 0.30361 0.18285 0.0
H1764 H 0.58845 0.30476 0.10042 0.0
H1765 H 0.5963 0.27952 0.09687 0.0
H1766 H 0.60881 0.29824 0.06639 0.0
H1767 H 0.68217 0.3002 0.12193 0.0
H1768 H 0.68677 0.26456 0.12454 0.0
H1769 H 0.62335 0.25672 0.13127 0.0
C1770 C 0.61397 0.33688 0.13911 0.0
C1771 C 0.62454 0.35479 0.13684 0.0
C1772 C 0.64501 0.35426 0.12924 0.0
C1773 C 0.65497 0.33619 0.1254 0.0
C1774 C 0.64414 0.31877 0.12824 0.0
C1775 C 0.62402 0.31901 0.13417 0.0
C1776 C 0.61573 0.29829 0.13503 0.0
C1777 C 0.60576 0.29394 0.17822 0.0
C1778 C 0.60148 0.29501 0.09743 0.0
C1779 C 0.63436 0.28627 0.12964 0.0
C1780 C 0.65058 0.29836 0.12613 0.0
C1781 C 0.66949 0.29063 0.12357 0.0
C1782 C 0.6719 0.27011 0.12457 0.0
C1783 C 0.65547 0.25718 0.12722 0.0
C1784 C 0.63642 0.2657 0.12944 0.0
H1785 H 0.41782 0.89756 0.9185 0.0
H1786 H 0.41678 0.84586 0.83669 0.0
H1787 H 0.45214 0.84924 0.82474 0.0
H1788 H 0.45278 0.92494 0.85476 0.0
H1789 H 0.46501 0.93564 0.90038 0.0
H1790 H 0.43938 0.92914 0.90368 0.0
H1791 H 0.44654 0.9074 0.97005 0.0
H1792 H 0.47215 0.91393 0.96711 0.0
H1793 H 0.46496 0.88842 0.96664 0.0
H1794 H 0.48794 0.85774 0.82162 0.0
H1795 H 0.5217 0.87073 0.82893 0.0
H1796 H 0.49998 0.91768 0.90992 0.0
C1797 C 0.42489 0.88695 0.89788 0.0
C1798 C 0.41407 0.87135 0.87886 0.0
C1799 C 0.42433 0.85779 0.85246 0.0
C1800 C 0.44458 0.85966 0.84504 0.0
C1801 C 0.45461 0.87523 0.86393 0.0
C1802 C 0.44516 0.88866 0.88982 0.0
C1803 C 0.45951 0.90404 0.90627 0.0
C1804 C 0.45383 0.92466 0.89031 0.0
C1805 C 0.46087 0.9034 0.95544 0.0
C1806 C 0.4785 0.89707 0.88568 0.0
C1807 C 0.4753 0.88041 0.86141 0.0
C1808 C 0.49061 0.87084 0.84037 0.0
C1809 C 0.50974 0.87832 0.8447 0.0
C1810 C 0.51348 0.89529 0.86967 0.0
C1811 C 0.49754 0.9049 0.88997 0.0
H1812 H 0.86649 0.34974 0.87747 0.0
H1813 H 0.92895 0.35009 0.9072 0.0
H1814 H 0.9282 0.31422 0.91545 0.0
H1815 H 0.85243 0.31118 0.94919 0.0
H1816 H 0.835 0.30028 0.91273 0.0
H1817 H 0.84009 0.32624 0.90992 0.0
H1818 H 0.84938 0.32288 0.82981 0.0
H1819 H 0.84408 0.29697 0.83227 0.0
H1820 H 0.86782 0.30528 0.81421 0.0
H1821 H 0.92071 0.27815 0.9222 0.0
H1822 H 0.90769 0.24435 0.92024 0.0
H1823 H 0.85064 0.26694 0.88167 0.0
C1824 C 0.88012 0.34245 0.88545 0.0
C1825 C 0.89774 0.35321 0.89235 0.0
C1826 C 0.9151 0.3426 0.90268 0.0
C1827 C 0.91487 0.32207 0.90731 0.0
C1828 C 0.89723 0.31211 0.90109 0.0
C1829 C 0.88022 0.32189 0.8898 0.0
C1830 C 0.86334 0.30754 0.8836 0.0
C1831 C 0.84674 0.31156 0.91578 0.0
C1832 C 0.85571 0.30821 0.83721 0.0
C1833 C 0.87354 0.28818 0.89322 0.0
C1834 C 0.89305 0.29119 0.90358 0.0
C1835 C 0.90549 0.27561 0.91376 0.0
C1836 C 0.89795 0.25641 0.91239 0.0
C1837 C 0.87814 0.2528 0.9005 0.0
C1838 C 0.86577 0.26906 0.89142 0.0
H1839 H 0.41794 0.12892 0.5865 0.0
H1840 H 0.41438 0.15386 0.71395 0.0
H1841 H 0.44932 0.14582 0.72634 0.0
H1842 H 0.4507 0.08889 0.6123 0.0
H1843 H 0.46449 0.09068 0.5632 0.0
H1844 H 0.43908 0.09811 0.56437 0.0
H1845 H 0.44866 0.13252 0.53552 0.0
H1846 H 0.47407 0.12515 0.534 0.0
H1847 H 0.46696 0.14676 0.56351 0.0
H1848 H 0.48455 0.13398 0.72587 0.0
H1849 H 0.51818 0.12219 0.7098 0.0
H1850 H 0.49947 0.10625 0.58164 0.0
C1851 C 0.42458 0.13269 0.61693 0.0
C1852 C 0.41345 0.14213 0.64916 0.0
C1853 C 0.42266 0.14692 0.68855 0.0
C1854 C 0.44248 0.14225 0.69602 0.0
C1855 C 0.45303 0.13291 0.66367 0.0
C1856 C 0.44448 0.12838 0.6247 0.0
C1857 C 0.45931 0.11892 0.59484 0.0
C1858 C 0.45301 0.0979 0.58299 0.0
C1859 C 0.46243 0.1316 0.55459 0.0
C1860 C 0.47747 0.11881 0.62312 0.0
C1861 C 0.47348 0.12671 0.6629 0.0
C1862 C 0.48786 0.12785 0.69473 0.0
C1863 C 0.50689 0.12102 0.68545 0.0
C1864 C 0.51147 0.1134 0.64449 0.0
C1865 C 0.49645 0.11219 0.61312 0.0
H1866 H 0.65623 0.7516 0.32907 0.0
H1867 H 0.64855 0.76665 0.46301 0.0
H1868 H 0.63847 0.73243 0.4784 0.0
H1869 H 0.61515 0.71901 0.32023 0.0
H1870 H 0.62744 0.70181 0.28552 0.0
H1871 H 0.63446 0.72733 0.28513 0.0
H1872 H 0.67049 0.7176 0.30145 0.0
H1873 H 0.6636 0.69203 0.30179 0.0
H1874 H 0.67583 0.70255 0.34759 0.0
H1875 H 0.62762 0.69693 0.47859 0.0
H1876 H 0.61877 0.66236 0.46466 0.0
H1877 H 0.63423 0.66969 0.33089 0.0
C1878 C 0.6524 0.74771 0.36165 0.0
C1879 C 0.65313 0.76191 0.39485 0.0
C1880 C 0.64826 0.75607 0.43712 0.0
C1881 C 0.64242 0.73667 0.44611 0.0
C1882 C 0.64169 0.72312 0.41261 0.0
C1883 C 0.64673 0.72833 0.37128 0.0
C1884 C 0.64483 0.71087 0.34117 0.0
C1885 C 0.62956 0.71501 0.30593 0.0
C1886 C 0.66488 0.70545 0.32187 0.0
C1887 C 0.63768 0.69509 0.3719 0.0
C1888 C 0.63589 0.70253 0.41291 0.0
C1889 C 0.62904 0.69097 0.44663 0.0
C1890 C 0.62389 0.67134 0.43831 0.0
C1891 C 0.62568 0.66328 0.39663 0.0
C1892 C 0.63282 0.67538 0.36311 0.0
H1893 H 0.02019 0.91546 0.17209 0.0
H1894 H 0.99868 0.86843 0.09008 0.0
H1895 H 0.03215 0.85622 0.08168 0.0
H1896 H 0.06386 0.92462 0.10791 0.0
H1897 H 0.07925 0.93021 0.15334 0.0
H1898 H 0.05323 0.93501 0.15565 0.0
H1899 H 0.05052 0.91367 0.22412 0.0
H1900 H 0.07653 0.90881 0.22205 0.0
H1901 H 0.05932 0.88867 0.22324 0.0
H1902 H 0.06781 0.84789 0.08334 0.0
H1903 H 0.10398 0.84587 0.09103 0.0
H1904 H 0.1038 0.89978 0.16464 0.0
C1905 C 0.0224 0.90264 0.15223 0.0
C1906 C 1.00623 0.89269 0.13311 0.0
C1907 C 0.01026 0.87599 0.10711 0.0
C1908 C 0.02944 0.86899 0.10147 0.0
C1909 C 0.04483 0.87896 0.12103 0.0
C1910 C 0.04165 0.89559 0.14541 0.0
C1911 C 0.06109 0.90389 0.1614 0.0
C1912 C 0.06456 0.92467 0.1435 0.0
C1913 C 0.06191 0.90374 0.21063 0.0
C1914 C 0.07556 0.88922 0.14244 0.0
C1915 C 0.06576 0.87486 0.11961 0.0
C1916 C 0.07569 0.85918 0.1007 0.0
C1917 C 0.09619 0.85811 0.10523 0.0
C1918 C 0.10665 0.87276 0.12779 0.0
C1919 C 0.09617 0.8886 0.14644 0.0
H1920 H 0.62784 0.75936 0.90356 0.0
H1921 H 0.68903 0.7601 0.86397 0.0
H1922 H 0.68802 0.79608 0.8593 0.0
H1923 H 0.61213 0.79843 0.83298 0.0
H1924 H 0.59509 0.80897 0.87064 0.0
H1925 H 0.60056 0.78308 0.87276 0.0
H1926 H 0.61079 0.78648 0.95232 0.0
H1927 H 0.60536 0.81239 0.95043 0.0
H1928 H 0.62937 0.80414 0.96699 0.0
H1929 H 0.68069 0.83191 0.85756 0.0
H1930 H 0.6674 0.86545 0.85835 0.0
H1931 H 0.61042 0.84265 0.89656 0.0
C1932 C 0.64103 0.76708 0.89399 0.0
C1933 C 0.65865 0.75667 0.88504 0.0
C1934 C 0.67551 0.76752 0.87241 0.0
C1935 C 0.67506 0.78807 0.86923 0.0
C1936 C 0.65759 0.79781 0.87849 0.0
C1937 C 0.64085 0.78775 0.89055 0.0
C1938 C 0.62393 0.802 0.8979 0.0
C1939 C 0.60692 0.79787 0.86671 0.0
C1940 C 0.61695 0.8012 0.9447 0.0
C1941 C 0.63381 0.82155 0.88789 0.0
C1942 C 0.65324 0.81869 0.87684 0.0
C1943 C 0.66547 0.83433 0.86601 0.0
C1944 C 0.65768 0.85342 0.86627 0.0
C1945 C 0.63775 0.85692 0.87718 0.0
C1946 C 0.62573 0.84062 0.88835 0.0
H1947 H 0.41554 0.3792 0.07684 0.0
H1948 H 0.40415 0.37674 0.21329 0.0
H1949 H 0.43768 0.38894 0.2279 0.0
H1950 H 0.4652 0.36205 0.0833 0.0
H1951 H 0.47418 0.37765 0.0409 0.0
H1952 H 0.44889 0.36985 0.04101 0.0
H1953 H 0.43761 0.4062 0.03776 0.0
H1954 H 0.46289 0.41409 0.03766 0.0
H1955 H 0.44622 0.42324 0.07778 0.0
H1956 H 0.47269 0.40123 0.22783 0.0
H1957 H 0.50717 0.41056 0.2131 0.0
H1958 H 0.49642 0.4041 0.07682 0.0
C1959 C 0.4201 0.38144 0.1097 0.0
C1960 C 0.40723 0.37702 0.14395 0.0
C1961 C 0.41381 0.37984 0.1866 0.0
C1962 C 0.4328 0.3869 0.1952 0.0
C1963 C 0.44519 0.39096 0.16081 0.0
C1964 C 0.43918 0.38822 0.11889 0.0
C1965 C 0.45576 0.3928 0.08793 0.0
C1966 C 0.46134 0.37449 0.06175 0.0
C1967 C 0.45029 0.41011 0.05855 0.0
C1968 C 0.47201 0.39842 0.11898 0.0
C1969 C 0.46554 0.39749 0.16084 0.0
C1970 C 0.47791 0.40202 0.19514 0.0
C1971 C 0.49745 0.40741 0.18648 0.0
C1972 C 0.50457 0.40802 0.14387 0.0
C1973 C 0.49152 0.40359 0.10978 0.0
H1974 H 0.88923 0.17211 0.33163 0.0
H1975 H 0.89339 0.15993 0.46762 0.0
H1976 H 0.88411 0.19424 0.48366 0.0
H1977 H 0.91008 0.22089 0.33734 0.0
H1978 H 0.89433 0.23105 0.29646 0.0
H1979 H 0.90055 0.20532 0.29548 0.0
H1980 H 0.86358 0.19626 0.29512 0.0
H1981 H 0.85725 0.22197 0.29604 0.0
H1982 H 0.84781 0.20568 0.33667 0.0
H1983 H 0.8736 0.22979 0.48516 0.0
H1984 H 0.86475 0.26456 0.4718 0.0
H1985 H 0.86906 0.2546 0.33496 0.0
C1986 C 0.88806 0.17672 0.36471 0.0
C1987 C 0.89207 0.16336 0.39841 0.0
C1988 C 0.89061 0.16995 0.44134 0.0
C1989 C 0.88523 0.1894 0.45075 0.0
C1990 C 0.88153 0.20226 0.4169 0.0
C1991 C 0.88303 0.19627 0.3747 0.0
C1992 C 0.87893 0.2133 0.34441 0.0
C1993 C 0.89705 0.21791 0.3168 0.0
C1994 C 0.86081 0.20904 0.31641 0.0
C1995 C 0.87485 0.22972 0.37614 0.0
C1996 C 0.87623 0.22297 0.41779 0.0
C1997 C 0.87261 0.23526 0.45266 0.0
C1998 C 0.86753 0.25497 0.4448 0.0
C1999 C 0.86638 0.26235 0.40244 0.0
C2000 C 0.87012 0.24947 0.36774 0.0
H2001 H 0.01884 0.59796 0.60637 0.0
H2002 H 0.99733 0.63967 0.70021 0.0
H2003 H 0.03091 0.65282 0.7091 0.0
H2004 H 0.06681 0.58875 0.65705 0.0
H2005 H 0.07968 0.58741 0.60671 0.0
H2006 H 0.05419 0.58034 0.60966 0.0
H2007 H 0.04585 0.60519 0.54946 0.0
H2008 H 0.07126 0.61246 0.54655 0.0
H2009 H 0.05251 0.63067 0.55588 0.0
H2010 H 0.06629 0.66225 0.70632 0.0
H2011 H 0.10135 0.66718 0.69369 0.0
H2012 H 0.10072 0.6203 0.59907 0.0
C2013 C 0.02132 0.60959 0.6294 0.0
C2014 C 1.00546 0.61771 0.65289 0.0
C2015 C 0.00922 0.63323 0.68196 0.0
C2016 C 0.02825 0.64079 0.68722 0.0
C2017 C 0.04347 0.63277 0.66302 0.0
C2018 C 0.04029 0.61748 0.63477 0.0
C2019 C 0.0592 0.61213 0.61155 0.0
C2020 C 0.06533 0.5909 0.62187 0.0
C2021 C 0.05707 0.61531 0.56298 0.0
C2022 C 0.07343 0.62686 0.63109 0.0
C2023 C 0.06398 0.63854 0.66076 0.0
C2024 C 0.07385 0.65322 0.68305 0.0
C2025 C 0.09393 0.65603 0.67516 0.0
C2026 C 0.10421 0.64431 0.64489 0.0
C2027 C 0.09359 0.62953 0.62255 0.0
H2028 H 0.66788 0.2465 0.65877 0.0
H2029 H 0.62073 0.2694 0.57953 0.0
H2030 H 0.60765 0.23579 0.57035 0.0
H2031 H 0.6748 0.20007 0.60062 0.0
H2032 H 0.67925 0.18605 0.6487 0.0
H2033 H 0.6857 0.21173 0.64673 0.0
H2034 H 0.66442 0.21808 0.714 0.0
H2035 H 0.65777 0.19247 0.71598 0.0
H2036 H 0.63889 0.21102 0.71372 0.0
H2037 H 0.59902 0.20008 0.57158 0.0
H2038 H 0.59546 0.16462 0.58164 0.0
H2039 H 0.64745 0.16423 0.66284 0.0
C2040 C 0.65504 0.24434 0.63877 0.0
C2041 C 0.64539 0.26057 0.61953 0.0
C2042 C 0.62835 0.25721 0.59448 0.0
C2043 C 0.62083 0.23816 0.58908 0.0
C2044 C 0.63043 0.22255 0.60913 0.0
C2045 C 0.64719 0.22537 0.63339 0.0
C2046 C 0.65414 0.20607 0.65283 0.0
C2047 C 0.67469 0.20066 0.63622 0.0
C2048 C 0.65378 0.20697 0.70205 0.0
C2049 C 0.63862 0.19202 0.63582 0.0
C2050 C 0.62516 0.20188 0.61059 0.0
C2051 C 0.60946 0.1922 0.59136 0.0
C2052 C 0.60748 0.17189 0.59772 0.0
C2053 C 0.62106 0.16122 0.62342 0.0
C2054 C 0.63681 0.17166 0.64279 0.0
H2055 H 0.09535 0.38666 0.94524 0.0
H2056 H 0.09992 0.36567 0.81467 0.0
H2057 H 0.06535 0.37513 0.80142 0.0
H2058 H 0.04566 0.36923 0.96245 0.0
H2059 H 0.03862 0.38993 0.99499 0.0
H2060 H 0.06388 0.38206 0.99373 0.0
H2061 H 0.07453 0.41713 0.97114 0.0
H2062 H 0.04927 0.42507 0.97206 0.0
H2063 H 0.06373 0.42822 0.9242 0.0
H2064 H 0.03049 0.38806 0.80158 0.0
H2065 H 0.99694 0.4001 0.81749 0.0
H2066 H 0.01413 0.41087 0.94915 0.0
C2067 C 0.089 0.38408 0.91394 0.0
C2068 C 0.10029 0.37538 0.88099 0.0
C2069 C 0.09147 0.37208 0.84049 0.0
C2070 C 0.07189 0.37755 0.83258 0.0
C2071 C 0.06116 0.38613 0.86566 0.0
C2072 C 0.0693 0.38913 0.90575 0.0
C2073 C 0.05428 0.39788 0.93621 0.0
C2074 C 0.05038 0.38394 0.97408 0.0
C2075 C 0.06085 0.41828 0.95181 0.0
C2076 C 0.03647 0.39937 0.90699 0.0
C2077 C 0.04084 0.39279 0.86626 0.0
C2078 C 0.02689 0.39314 0.83345 0.0
C2079 C 0.0079 0.4001 0.84267 0.0
C2080 C 1.00291 0.40634 0.88451 0.0
C2081 C 0.01749 0.40604 0.91694 0.0
H2082 H 0.90431 0.8439 0.12545 0.0
H2083 H 0.85014 0.86909 0.17394 0.0
H2084 H 0.83493 0.83626 0.1742 0.0
H2085 H 0.88121 0.80762 0.05561 0.0
H2086 H 0.89937 0.78896 0.06638 0.0
H2087 H 0.90603 0.81457 0.06901 0.0
H2088 H 0.9186 0.80966 0.14663 0.0
H2089 H 0.91199 0.78406 0.14425 0.0
H2090 H 0.90236 0.79937 0.18636 0.0
H2091 H 0.8256 0.80061 0.17082 0.0
H2092 H 0.82308 0.76463 0.16571 0.0
H2093 H 0.88291 0.76194 0.11772 0.0
C2094 C 0.88919 0.84257 0.13571 0.0
C2095 C 0.87851 0.85926 0.14984 0.0
C2096 C 0.85881 0.85667 0.16356 0.0
C2097 C 0.84995 0.83803 0.16353 0.0
C2098 C 0.86089 0.82195 0.14963 0.0
C2099 C 0.88009 0.82398 0.13599 0.0
C2100 C 0.88867 0.80415 0.12357 0.0
C2101 C 0.89414 0.80381 0.0758 0.0
C2102 C 0.90646 0.79901 0.1519 0.0
C2103 C 0.87137 0.79066 0.13279 0.0
C2104 C 0.85547 0.8013 0.14752 0.0
C2105 C 0.83791 0.79216 0.1589 0.0
C2106 C 0.83656 0.77163 0.15547 0.0
C2107 C 0.85267 0.76024 0.14073 0.0
C2108 C 0.87029 0.77007 0.12912 0.0
H2109 H 0.50365 0.63151 0.36139 0.0
H2110 H 0.50381 0.57557 0.42838 0.0
H2111 H 0.46795 0.57791 0.43812 0.0
H2112 H 0.46654 0.65513 0.42481 0.0
H2113 H 0.45491 0.6675 0.38041 0.0
H2114 H 0.48071 0.66164 0.37813 0.0
H2115 H 0.47524 0.64262 0.30731 0.0
H2116 H 0.44946 0.6486 0.30917 0.0
H2117 H 0.45713 0.6233 0.30537 0.0
H2118 H 0.43263 0.58702 0.44465 0.0
H2119 H 0.39918 0.60021 0.44044 0.0
H2120 H 0.42054 0.64945 0.36476 0.0
C2121 C 0.49607 0.61973 0.37786 0.0
C2122 C 0.50657 0.60327 0.39389 0.0
C2123 C 0.49611 0.58814 0.41522 0.0
C2124 C 0.47573 0.58943 0.42126 0.0
C2125 C 0.46586 0.60586 0.40545 0.0
C2126 C 0.47556 0.62062 0.38359 0.0
C2127 C 0.46117 0.63639 0.36893 0.0
C2128 C 0.46613 0.65635 0.38929 0.0
C2129 C 0.46072 0.6378 0.31977 0.0
C2130 C 0.44194 0.62825 0.38635 0.0
C2131 C 0.44513 0.61072 0.40764 0.0
C2132 C 0.4299 0.60056 0.42742 0.0
C2133 C 0.41081 0.6082 0.42457 0.0
C2134 C 0.40681 0.62575 0.40146 0.0
C2135 C 0.42282 0.63602 0.38264 0.0
H2136 H 0.40346 0.1682 0.1125 0.0
H2137 H 0.36217 0.14763 0.20867 0.0
H2138 H 0.3481 0.18074 0.21355 0.0
H2139 H 0.4118 0.21637 0.16253 0.0
H2140 H 0.41367 0.22916 0.11209 0.0
H2141 H 0.4208 0.2037 0.11582 0.0
H2142 H 0.39669 0.19515 0.0544 0.0
H2143 H 0.38936 0.22055 0.05073 0.0
H2144 H 0.37113 0.20172 0.05933 0.0
H2145 H 0.337 0.21532 0.20593 0.0
H2146 H 0.33177 0.25054 0.19172 0.0
H2147 H 0.38114 0.25056 0.10382 0.0
C2148 C 0.39166 0.17067 0.13503 0.0
C2149 C 0.38378 0.15495 0.15969 0.0
C2150 C 0.36823 0.15907 0.18858 0.0
C2151 C 0.36015 0.17795 0.1918 0.0
C2152 C 0.36786 0.19289 0.1664 0.0
C2153 C 0.38346 0.18965 0.13905 0.0
C2154 C 0.38899 0.20859 0.11589 0.0
C2155 C 0.41007 0.21482 0.12727 0.0
C2156 C 0.38638 0.20636 0.0672 0.0
C2157 C 0.37397 0.22285 0.13438 0.0
C2158 C 0.36184 0.21331 0.16314 0.0
C2159 C 0.34647 0.22299 0.18364 0.0
C2160 C 0.34351 0.243 0.17505 0.0
C2161 C 0.35591 0.25337 0.14641 0.0
C2162 C 0.37141 0.24307 0.12588 0.0
H2163 H 0.59047 0.6588 0.88924 0.0
H2164 H 0.61375 0.60021 0.91223 0.0
H2165 H 0.58053 0.58673 0.91021 0.0
H2166 H 0.54614 0.65299 0.95201 0.0
H2167 H 0.53067 0.66644 0.91535 0.0
H2168 H 0.55649 0.67209 0.9189 0.0
H2169 H 0.56016 0.66629 0.83737 0.0
H2170 H 0.53434 0.66062 0.83357 0.0
H2171 H 0.55233 0.64323 0.81467 0.0
H2172 H 0.5451 0.57897 0.90686 0.0
H2173 H 0.50919 0.57746 0.90178 0.0
H2174 H 0.50723 0.64037 0.87757 0.0
C2175 C 0.5886 0.64315 0.89375 0.0
C2176 C 0.60506 0.63077 0.90162 0.0
C2177 C 0.60171 0.61031 0.90732 0.0
C2178 C 0.58275 0.60236 0.90583 0.0
C2179 C 0.56699 0.61489 0.89832 0.0
C2180 C 0.56958 0.63483 0.89226 0.0
C2181 C 0.54983 0.64482 0.88459 0.0
C2182 C 0.54553 0.65998 0.91982 0.0
C2183 C 0.54913 0.6543 0.83988 0.0
C2184 C 0.53587 0.62734 0.8875 0.0
C2185 C 0.54622 0.61026 0.8954 0.0
C2186 C 0.53684 0.59221 0.90014 0.0
C2187 C 0.51632 0.5915 0.89671 0.0
C2188 C 0.50513 0.60869 0.88831 0.0
C2189 C 0.5152 0.6269 0.88383 0.0
H2190 H 0.12726 0.84276 0.70657 0.0
H2191 H 0.13602 0.85969 0.57376 0.0
H2192 H 0.15059 0.82731 0.55901 0.0
H2193 H 0.17172 0.81248 0.71755 0.0
H2194 H 0.1595 0.79451 0.75059 0.0
H2195 H 0.15167 0.8198 0.75167 0.0
H2196 H 0.1162 0.80896 0.73278 0.0
H2197 H 0.12394 0.78368 0.73136 0.0
H2198 H 0.11198 0.79443 0.68541 0.0
H2199 H 0.16196 0.79161 0.5573 0.0
H2200 H 0.1692 0.75639 0.5693 0.0
H2201 H 0.15274 0.76277 0.70285 0.0
C2202 C 0.13239 0.83981 0.67443 0.0
C2203 C 0.13046 0.85408 0.64154 0.0
C2204 C 0.13753 0.8494 0.59996 0.0
C2205 C 0.14576 0.83087 0.5911 0.0
C2206 C 0.14696 0.81706 0.62406 0.0
C2207 C 0.14057 0.82138 0.66498 0.0
C2208 C 0.1426 0.80368 0.69427 0.0
C2209 C 0.15725 0.80787 0.73067 0.0
C2210 C 0.12248 0.79732 0.71198 0.0
C2211 C 0.15071 0.78859 0.66325 0.0
C2212 C 0.15331 0.7966 0.62298 0.0
C2213 C 0.16014 0.78527 0.58885 0.0
C2214 C 0.1643 0.76525 0.59602 0.0
C2215 C 0.1615 0.75663 0.63696 0.0
C2216 C 0.15481 0.76869 0.67097 0.0
H2217 H 0.92173 0.3567 0.3895 0.0
H2218 H 0.89919 0.4164 0.38455 0.0
H2219 H 0.93277 0.42913 0.38008 0.0
H2220 H 0.96454 0.36748 0.45369 0.0
H2221 H 0.9806 0.35084 0.42563 0.0
H2222 H 0.95461 0.34591 0.42807 0.0
H2223 H 0.95313 0.34436 0.34528 0.0
H2224 H 0.97913 0.34928 0.34259 0.0
H2225 H 0.96206 0.36485 0.31423 0.0
H2226 H 0.96842 0.43601 0.37801 0.0
H2227 H 1.00444 0.43662 0.37785 0.0
H2228 H 1.00554 0.37275 0.3811 0.0
C2229 C 0.92388 0.37243 0.38728 0.0
C2230 C 0.90758 0.38548 0.38811 0.0
C2231 C 0.91119 0.40599 0.38516 0.0
C2232 C 0.93032 0.41344 0.38219 0.0
C2233 C 0.94596 0.40029 0.38193 0.0
C2234 C 0.94307 0.38022 0.38428 0.0
C2235 C 0.96275 0.36952 0.38369 0.0
C2236 C 0.9658 0.35774 0.42525 0.0
C2237 C 0.96436 0.35622 0.34409 0.0
C2238 C 0.97701 0.38675 0.38092 0.0
C2239 C 0.96687 0.40432 0.37984 0.0
C2240 C 0.97654 0.42233 0.37822 0.0
C2241 C 0.99713 0.42249 0.37768 0.0
C2242 C 0.00811 0.40474 0.37846 0.0
C2243 C 0.99774 0.38661 0.38024 0.0
H2244 H 0.37048 0.75741 0.34007 0.0
H2245 H 0.36319 0.74717 0.47626 0.0
H2246 H 0.3695 0.78242 0.49027 0.0
H2247 H 0.40921 0.79359 0.34736 0.0
H2248 H 0.39989 0.80842 0.30397 0.0
H2249 H 0.39525 0.78236 0.30481 0.0
H2250 H 0.35784 0.78894 0.29939 0.0
H2251 H 0.36236 0.81504 0.2987 0.0
H2252 H 0.34619 0.8046 0.33836 0.0
H2253 H 0.37742 0.81862 0.48964 0.0
H2254 H 0.3851 0.85342 0.47439 0.0
H2255 H 0.38579 0.84089 0.33831 0.0
C2256 C 0.37042 0.76258 0.37287 0.0
C2257 C 0.36653 0.74949 0.4072 0.0
C2258 C 0.36615 0.75691 0.44955 0.0
C2259 C 0.36974 0.7769 0.45778 0.0
C2260 C 0.37344 0.78941 0.42327 0.0
C2261 C 0.37368 0.78259 0.38161 0.0
C2262 C 0.37751 0.79927 0.35025 0.0
C2263 C 0.3966 0.79569 0.32512 0.0
C2264 C 0.35993 0.80213 0.31989 0.0
C2265 C 0.37963 0.81651 0.3808 0.0
C2266 C 0.37732 0.81044 0.42279 0.0
C2267 C 0.37917 0.82353 0.45688 0.0
C2268 C 0.38362 0.84327 0.44793 0.0
C2269 C 0.38601 0.84992 0.4052 0.0
C2270 C 0.38379 0.83631 0.37123 0.0
H2271 H 1.00048 0.61021 0.07552 0.0
H2272 H 0.0126 0.6105 0.21199 0.0
H2273 H 0.97827 0.62048 0.22608 0.0
H2274 H 0.9691 0.65219 0.07337 0.0
H2275 H 0.95241 0.6423 0.03404 0.0
H2276 H 0.97772 0.63456 0.03464 0.0
H2277 H 0.96675 0.59822 0.04093 0.0
H2278 H 0.94139 0.60583 0.0402 0.0
H2279 H 0.95054 0.59101 0.08378 0.0
H2280 H 0.94324 0.63241 0.22512 0.0
H2281 H 0.90935 0.64325 0.20975 0.0
H2282 H 0.91917 0.63434 0.07398 0.0
C2283 C 0.9959 0.61235 0.10839 0.0
C2284 C 0.0093 0.60961 0.14271 0.0
C2285 C 1.00261 0.61233 0.18524 0.0
C2286 C 0.98315 0.61811 0.19352 0.0
C2287 C 0.97042 0.6209 0.15897 0.0
C2288 C 0.97644 0.61791 0.11726 0.0
C2289 C 0.95976 0.62188 0.08595 0.0
C2290 C 0.96507 0.63874 0.05519 0.0
C2291 C 0.95429 0.60312 0.06126 0.0
C2292 C 0.9435 0.62788 0.11652 0.0
C2293 C 0.95003 0.62729 0.15848 0.0
C2294 C 0.93796 0.63282 0.19241 0.0
C2295 C 0.91876 0.63911 0.18333 0.0
C2296 C 0.91162 0.63974 0.14065 0.0
C2297 C 0.92418 0.63387 0.10689 0.0
H2298 H 0.12742 0.25352 0.91213 0.0
H2299 H 0.1853 0.25432 0.85428 0.0
H2300 H 0.18399 0.21827 0.84545 0.0
H2301 H 0.13531 0.20756 0.97165 0.0
H2302 H 0.11034 0.19925 0.96499 0.0
H2303 H 0.11566 0.22519 0.96649 0.0
H2304 H 0.09839 0.22961 0.89315 0.0
H2305 H 0.09317 0.20366 0.89128 0.0
H2306 H 0.10638 0.21519 0.84799 0.0
H2307 H 0.17572 0.18273 0.83874 0.0
H2308 H 0.16317 0.14917 0.84192 0.0
H2309 H 0.11134 0.16997 0.90975 0.0
C2310 C 0.13983 0.246 0.89794 0.0
C2311 C 0.15654 0.25666 0.88402 0.0
C2312 C 0.1725 0.24639 0.86556 0.0
C2313 C 0.17182 0.22594 0.86018 0.0
C2314 C 0.15516 0.21584 0.87397 0.0
C2315 C 0.13958 0.2254 0.89316 0.0
C2316 C 0.12378 0.21075 0.90637 0.0
C2317 C 0.12112 0.21069 0.95528 0.0
C2318 C 0.10427 0.21507 0.88331 0.0
C2319 C 0.1328 0.19156 0.89091 0.0
C2320 C 0.15081 0.19497 0.87203 0.0
C2321 C 0.16178 0.17982 0.85418 0.0
C2322 C 0.15444 0.1606 0.85643 0.0
C2323 C 0.13631 0.15632 0.87708 0.0
C2324 C 0.12529 0.17229 0.89404 0.0
H2325 H 0.5957 0.38222 0.58207 0.0
H2326 H 0.60684 0.38102 0.71879 0.0
H2327 H 0.57252 0.39091 0.73257 0.0
H2328 H 0.56195 0.42425 0.58227 0.0
H2329 H 0.54616 0.41392 0.54175 0.0
H2330 H 0.57194 0.40788 0.54248 0.0
H2331 H 0.56325 0.37083 0.54538 0.0
H2332 H 0.53746 0.37677 0.54486 0.0
H2333 H 0.54745 0.36184 0.58738 0.0
H2334 H 0.5367 0.40029 0.73174 0.0
H2335 H 0.50181 0.40756 0.71636 0.0
H2336 H 0.51333 0.40204 0.58021 0.0
C2337 C 0.59093 0.38433 0.61481 0.0
C2338 C 0.60397 0.38085 0.64938 0.0
C2339 C 0.59709 0.38342 0.69186 0.0
C2340 C 0.57763 0.38914 0.69999 0.0
C2341 C 0.56507 0.39215 0.66531 0.0
C2342 C 0.5714 0.38982 0.62353 0.0
C2343 C 0.55462 0.39319 0.59222 0.0
C2344 C 0.55893 0.41087 0.56295 0.0
C2345 C 0.55045 0.37455 0.56591 0.0
C2346 C 0.53789 0.39762 0.6229 0.0
C2347 C 0.54429 0.39713 0.66489 0.0
C2348 C 0.53154 0.40076 0.69894 0.0
C2349 C 0.51174 0.40495 0.6899 0.0
C2350 C 0.50473 0.40532 0.64713 0.0
C2351 C 0.51812 0.40163 0.6133 0.0
H2352 H 0.22004 0.23087 0.22788 0.0
H2353 H 0.21441 0.23127 0.36625 0.0
H2354 H 0.23527 0.26083 0.36996 0.0
H2355 H 0.26977 0.24373 0.22482 0.0
H2356 H 0.2679 0.25889 0.17759 0.0
H2357 H 0.2508 0.2391 0.18573 0.0
H2358 H 0.22186 0.26369 0.17843 0.0
H2359 H 0.23897 0.28363 0.1709 0.0
H2360 H 0.22088 0.28489 0.21294 0.0
H2361 H 0.25907 0.28792 0.35968 0.0
H2362 H 0.28636 0.30938 0.33616 0.0
H2363 H 0.27617 0.29243 0.20455 0.0
C2364 C 0.22302 0.23738 0.25883 0.0
C2365 C 0.21572 0.22876 0.29676 0.0
C2366 C 0.22014 0.23744 0.33684 0.0
C2367 C 0.23172 0.2544 0.33921 0.0
C2368 C 0.23872 0.26253 0.30122 0.0
C2369 C 0.23465 0.25428 0.26177 0.0
C2370 C 0.24543 0.26489 0.22617 0.0
C2371 C 0.2593 0.25082 0.2022 0.0
C2372 C 0.23092 0.27487 0.19529 0.0
C2373 C 0.25675 0.27996 0.25198 0.0
C2374 C 0.25236 0.27855 0.29515 0.0
C2375 C 0.26233 0.2895 0.32592 0.0
C2376 C 0.2777 0.30166 0.3124 0.0
C2377 C 0.28286 0.30277 0.26865 0.0
C2378 C 0.27187 0.29231 0.23794 0.0
H2379 H 0.04356 0.98549 0.47851 0.0
H2380 H 0.03221 0.9633 0.60655 0.0
H2381 H 1.00054 0.98078 0.60749 0.0
H2382 H 0.02322 0.03316 0.49439 0.0
H2383 H 0.0129 0.03486 0.44131 0.0
H2384 H 0.03439 0.02004 0.45058 0.0
H2385 H 0.01627 0.99003 0.41783 0.0
H2386 H 0.99458 1.00475 0.4094 0.0
H2387 H 0.99307 0.98233 0.44007 0.0
H2388 H 0.97109 1.00175 0.59634 0.0
H2389 H 0.94695 0.02729 0.57566 0.0
H2390 H 0.97629 0.03479 0.45393 0.0
C2391 C 0.03436 0.98429 0.50666 0.0
C2392 C 0.04045 0.97317 0.54255 0.0
C2393 C 0.0281 0.97206 0.579 0.0
C2394 C 0.00993 0.98169 0.5796 0.0
C2395 C 1.00426 0.99228 0.54345 0.0
C2396 C 0.01615 0.9938 0.50776 0.0
C2397 C 1.00697 1.00691 0.47396 0.0
C2398 C 0.02015 0.0248 0.46454 0.0
C2399 C 1.00246 0.99531 0.43288 0.0
C2400 C 0.98825 0.01286 0.49665 0.0
C2401 C 0.98689 1.00405 0.53651 0.0
C2402 C 0.97177 0.00846 0.56493 0.0
C2403 C 0.9581 0.02282 0.55295 0.0
C2404 C 0.95961 0.03244 0.51294 0.0
C2405 C 0.97449 0.027 0.48395 0.0
H2406 H 0.27605 0.79646 0.73006 0.0
H2407 H 0.30506 0.78208 0.84995 0.0
H2408 H 0.28947 0.74942 0.84944 0.0
H2409 H 0.23069 0.77308 0.75326 0.0
H2410 H 0.22676 0.76441 0.69938 0.0
H2411 H 0.24097 0.78632 0.70851 0.0
H2412 H 0.26998 0.77103 0.66629 0.0
H2413 H 0.25591 0.74893 0.65765 0.0
H2414 H 0.27976 0.74756 0.68269 0.0
H2415 H 0.26948 0.71929 0.83826 0.0
H2416 H 0.24457 0.6943 0.81912 0.0
H2417 H 0.22943 0.72742 0.70529 0.0
C2418 C 0.27914 0.78638 0.75606 0.0
C2419 C 0.29159 0.79187 0.79021 0.0
C2420 C 0.29522 0.77838 0.82393 0.0
C2421 C 0.28666 0.75968 0.82361 0.0
C2422 C 0.27458 0.75469 0.78929 0.0
C2423 C 0.27071 0.76765 0.75624 0.0
C2424 C 0.25643 0.75895 0.72423 0.0
C2425 C 0.2376 0.77143 0.7212 0.0
C2426 C 0.26611 0.75647 0.6801 0.0
C2427 C 0.25252 0.73923 0.74502 0.0
C2428 C 0.26333 0.737 0.78228 0.0
C2429 C 0.26116 0.7207 0.80885 0.0
C2430 C 0.24708 0.7066 0.79778 0.0
C2431 C 0.23548 0.70891 0.76051 0.0
C2432 C 0.23861 0.72511 0.7332 0.0
H2433 H 0.54298 0.98279 0.94761 0.0
H2434 H 0.56315 0.97513 0.07805 0.0
H2435 H 0.54139 1.0021 0.10181 0.0
H2436 H 0.53494 0.03765 0.95262 0.0
H2437 H 0.51306 0.03604 0.92021 0.0
H2438 H 0.53283 0.01878 0.91239 0.0
H2439 H 0.50844 0.99002 0.92386 0.0
H2440 H 0.48869 1.00712 0.93249 0.0
H2441 H 0.4943 0.98889 0.97262 0.0
H2442 H 0.5147 0.02645 0.11285 0.0
H2443 H 0.48561 0.04798 0.11023 0.0
H2444 H 0.48159 0.03926 0.97282 0.0
C2445 C 0.54334 0.98746 0.98075 0.0
C2446 C 0.55489 0.9773 1.01106 0.0
C2447 C 0.55451 0.98306 0.05454 0.0
C2448 C 0.54222 0.99829 0.06822 0.0
C2449 C 0.53037 0.00754 0.03792 0.0
C2450 C 0.53092 1.00252 0.99499 0.0
C2451 C 0.51523 0.0134 0.9699 0.0
C2452 C 0.52458 0.02729 0.93683 0.0
C2453 C 0.50082 0.99899 0.94848 0.0
C2454 C 0.50541 0.02479 1.00566 0.0
C2455 C 0.51452 0.02135 0.04452 0.0
C2456 C 0.50754 0.02941 0.08255 0.0
C2457 C 0.49084 0.04142 0.08083 0.0
C2458 C 0.48124 0.04517 0.04135 0.0
C2459 C 0.48875 0.03679 1.00334 0.0
H2460 H 0.27585 0.71576 0.31227 0.0
H2461 H 0.32569 0.74568 0.25559 0.0
H2462 H 0.30587 0.77575 0.24701 0.0
H2463 H 0.24038 0.73515 0.24363 0.0
H2464 H 0.22141 0.73781 0.28345 0.0
H2465 H 0.24009 0.71933 0.29003 0.0
H2466 H 0.24918 0.7337 0.36432 0.0
H2467 H 0.23041 0.75219 0.35808 0.0
H2468 H 0.25544 0.75936 0.36884 0.0
H2469 H 0.27998 0.80115 0.23723 0.0
H2470 H 0.24967 0.82095 0.23012 0.0
H2471 H 0.21665 0.77473 0.29328 0.0
C2472 C 0.28261 0.72882 0.29901 0.0
C2473 C 0.30216 0.72845 0.28425 0.0
C2474 C 0.31059 0.74566 0.26644 0.0
C2475 C 0.29952 0.76282 0.26174 0.0
C2476 C 0.28007 0.76257 0.27526 0.0
C2477 C 0.27169 0.74611 0.29389 0.0
C2478 C 0.25011 0.74939 0.30304 0.0
C2479 C 0.23725 0.73454 0.27857 0.0
C2480 C 0.24605 0.74862 0.35145 0.0
C2481 C 0.24762 0.77002 0.28556 0.0
C2482 C 0.2651 0.7774 0.26998 0.0
C2483 C 0.26622 0.79568 0.2499 0.0
C2484 C 0.24896 0.80674 0.24568 0.0
C2485 C 0.2309 0.79945 0.26147 0.0
C2486 C 0.23033 0.7809 0.28185 0.0
H2487 H 0.47422 0.97985 0.4446 0.0
H2488 H 0.44713 0.98508 0.56911 0.0
H2489 H 0.46952 0.01257 0.58714 0.0
H2490 H 0.52083 0.98393 0.48007 0.0
H2491 H 0.53071 0.99767 0.43564 0.0
H2492 H 0.50965 0.98214 0.42782 0.0
H2493 H 0.48956 0.01156 0.39832 0.0
H2494 H 0.51075 0.02717 0.40503 0.0
H2495 H 0.4877 0.03377 0.42947 0.0
H2496 H 0.49784 0.03534 0.59567 0.0
H2497 H 0.52942 0.05296 0.59357 0.0
H2498 H 0.53965 0.03125 0.4648 0.0
C2499 C 0.47243 0.98761 0.4746 0.0
C2500 C 0.45871 0.98103 0.50511 0.0
C2501 C 0.45729 0.99051 0.54518 0.0
C2502 C 0.46996 1.006 0.5556 0.0
C2503 C 0.48402 0.01163 0.52558 0.0
C2504 C 0.48523 1.00286 0.48568 0.0
C2505 C 0.50331 0.00969 0.46165 0.0
C2506 C 0.51692 0.99232 0.45068 0.0
C2507 C 0.49748 0.02124 0.42122 0.0
C2508 C 0.51247 0.02301 0.49493 0.0
C2509 C 0.50095 0.02419 0.53124 0.0
C2510 C 0.50689 0.03472 0.56722 0.0
C2511 C 0.52503 0.04445 0.56594 0.0
C2512 C 0.53714 0.04338 0.5291 0.0
C2513 C 0.53064 0.03254 0.49319 0.0
H2514 H 0.28467 0.22615 0.70549 0.0
H2515 H 0.27863 0.19831 0.82963 0.0
H2516 H 0.25327 0.22253 0.8498 0.0
H2517 H 0.28206 0.27385 0.74109 0.0
H2518 H 0.26795 0.28362 0.69704 0.0
H2519 H 0.28331 0.26241 0.68909 0.0
H2520 H 0.25352 0.2424 0.66133 0.0
H2521 H 0.23811 0.26372 0.66815 0.0
H2522 H 0.2316 0.24082 0.69352 0.0
H2523 H 0.23232 0.25195 0.86015 0.0
H2524 H 0.21365 0.28297 0.85703 0.0
H2525 H 0.23295 0.29204 0.72611 0.0
C2526 C 0.27738 0.22476 0.73616 0.0
C2527 C 0.28339 0.21039 0.76603 0.0
C2528 C 0.27408 0.20927 0.80646 0.0
C2529 C 0.25973 0.22294 0.81815 0.0
C2530 C 0.25481 0.23756 0.78886 0.0
C2531 C 0.26304 0.23838 0.74839 0.0
C2532 C 0.25606 0.25641 0.72422 0.0
C2533 C 0.27338 0.26986 0.71217 0.0
C2534 C 0.24411 0.25048 0.68445 0.0
C2535 C 0.24312 0.2658 0.75791 0.0
C2536 C 0.2426 0.25465 0.7949 0.0
C2537 C 0.23241 0.26072 0.83121 0.0
C2538 C 0.22208 0.27849 0.82935 0.0
C2539 C 0.22198 0.28991 0.79139 0.0
C2540 C 0.23275 0.28349 0.7554 0.0
H2541 H 0.04302 0.03177 0.95457 0.0
H2542 H 0.05629 0.04213 0.08851 0.0
H2543 H 0.03195 0.01709 0.10948 0.0
H2544 H 0.99252 0.02647 0.96609 0.0
H2545 H 0.98944 1.00693 0.92771 0.0
H2546 H 0.00952 0.02397 0.92218 0.0
H2547 H 0.03447 0.99522 0.92239 0.0
H2548 H 0.01443 0.97802 0.92706 0.0
H2549 H 0.03413 0.97767 0.96572 0.0
H2550 H 1.00393 0.99438 0.11652 0.0
H2551 H 0.97606 0.97157 0.10928 0.0
H2552 H 0.98088 0.97464 0.97089 0.0
C2553 C 0.04121 0.02824 0.98816 0.0
C2554 C 0.05145 0.03884 0.02003 0.0
C2555 C 0.04844 0.03421 0.06376 0.0
C2556 C 0.03469 0.02004 0.07594 0.0
C2557 C 0.02419 0.01047 0.04394 0.0
C2558 C 0.02749 0.01402 1.00092 0.0
C2559 C 0.01348 1.00217 0.97329 0.0
C2560 C 1.00047 0.0157 0.9457 0.0
C2561 C 0.0248 0.98739 0.94548 0.0
C2562 C 1.00155 0.99184 1.00762 0.0
C2563 C 0.00801 0.99692 0.04808 0.0
C2564 C 0.99885 0.99008 0.08503 0.0
C2565 C 0.98286 0.97734 0.0806 0.0
C2566 C 0.97624 0.97149 0.03952 0.0
C2567 C 0.98572 0.97889 1.0026 0.0
H2568 H 0.72467 0.72629 0.82362 0.0
H2569 H 0.7244 0.70379 0.69386 0.0
H2570 H 0.74861 0.72904 0.67257 0.0
H2571 H 0.72623 0.776 0.79594 0.0
H2572 H 0.74235 0.78358 0.8387 0.0
H2573 H 0.72676 0.76244 0.84559 0.0
H2574 H 0.75687 0.74071 0.86358 0.0
H2575 H 0.77262 0.76185 0.85785 0.0
H2576 H 0.77737 0.73996 0.82707 0.0
H2577 H 0.77065 0.75791 0.66415 0.0
H2578 H 0.79139 0.78742 0.67003 0.0
H2579 H 0.77682 0.79197 0.80503 0.0
C2580 C 0.73023 0.72635 0.79114 0.0
C2581 C 0.72291 0.71308 0.76032 0.0
C2582 C 0.72997 0.71388 0.71775 0.0
C2583 C 0.74366 0.72814 0.70543 0.0
C2584 C 0.75008 0.74148 0.73615 0.0
C2585 C 0.74381 0.74062 0.77824 0.0
C2586 C 0.7523 0.75736 0.80429 0.0
C2587 C 0.73593 0.77063 0.82216 0.0
C2588 C 0.76558 0.7495 0.84032 0.0
C2589 C 0.76413 0.76784 0.77011 0.0
C2590 C 0.76264 0.75841 0.7311 0.0
C2591 C 0.772 0.76542 0.69453 0.0
C2592 C 0.78356 0.78236 0.6981 0.0
C2593 C 0.78562 0.79211 0.73795 0.0
C2594 C 0.77559 0.78478 0.77423 0.0
H2595 H 0.72954 0.22745 0.19942 0.0
H2596 H 0.72498 0.2049 0.3288 0.0
H2597 H 0.75039 0.22839 0.35286 0.0
H2598 H 0.78326 0.2383 0.20199 0.0
H2599 H 0.78027 0.26049 0.17105 0.0
H2600 H 0.76371 0.24014 0.16315 0.0
H2601 H 0.73418 0.26318 0.17805 0.0
H2602 H 0.75063 0.2835 0.18675 0.0
H2603 H 0.73326 0.27666 0.22769 0.0
H2604 H 0.77356 0.25616 0.36418 0.0
H2605 H 0.79505 0.28528 0.36133 0.0
H2606 H 0.78392 0.29065 0.22484 0.0
C2607 C 0.73446 0.22708 0.2324 0.0
C2608 C 0.72558 0.21434 0.26232 0.0
C2609 C 0.73179 0.21457 0.30559 0.0
C2610 C 0.74615 0.22783 0.31946 0.0
C2611 C 0.75411 0.24074 0.28958 0.0
C2612 C 0.74868 0.24038 0.24686 0.0
C2613 C 0.75852 0.25678 0.22206 0.0
C2614 C 0.77226 0.24842 0.18752 0.0
C2615 C 0.74323 0.27086 0.2025 0.0
C2616 C 0.77002 0.26659 0.25769 0.0
C2617 C 0.76732 0.25705 0.2963 0.0
C2618 C 0.77593 0.2637 0.33408 0.0
C2619 C 0.78792 0.28041 0.33223 0.0
C2620 C 0.79112 0.2903 0.29287 0.0
C2621 C 0.78191 0.28328 0.25527 0.0
H2622 H 0.72697 0.28529 0.80582 0.0
H2623 H 0.72892 0.29506 0.6685 0.0
H2624 H 0.75396 0.2691 0.66154 0.0
H2625 H 0.77891 0.27611 0.81949 0.0
H2626 H 0.77533 0.25748 0.85984 0.0
H2627 H 0.75763 0.27696 0.85378 0.0
H2628 H 0.73008 0.251 0.8442 0.0
H2629 H 0.74779 0.23144 0.8494 0.0
H2630 H 0.73228 0.23277 0.80263 0.0
H2631 H 0.77802 0.24196 0.66891 0.0
H2632 H 0.80298 0.21772 0.69133 0.0
H2633 H 0.78572 0.22517 0.82387 0.0
C2634 C 0.73279 0.282 0.77438 0.0
C2635 C 0.72611 0.29225 0.73775 0.0
C2636 C 0.73408 0.28766 0.69709 0.0
C2637 C 0.74811 0.27276 0.69274 0.0
C2638 C 0.75401 0.26264 0.72936 0.0
C2639 C 0.74686 0.26721 0.7695 0.0
C2640 C 0.75616 0.25442 0.80378 0.0
C2641 C 0.7677 0.267 0.83612 0.0
C2642 C 0.74065 0.24165 0.82632 0.0
C2643 C 0.76976 0.24202 0.77658 0.0
C2644 C 0.76807 0.2469 0.7337 0.0
C2645 C 0.77948 0.23799 0.70235 0.0
C2646 C 0.79355 0.22426 0.71532 0.0
C2647 C 0.79614 0.21963 0.75919 0.0
C2648 C 0.78372 0.22821 0.79009 0.0
H2649 H 0.73782 0.79366 0.22483 0.0
H2650 H 0.71475 0.78272 0.35228 0.0
H2651 H 0.73185 0.75085 0.35407 0.0
H2652 H 0.7338 0.74302 0.18709 0.0
H2653 H 0.75624 0.74431 0.15659 0.0
H2654 H 0.74168 0.76613 0.16455 0.0
H2655 H 0.77182 0.78407 0.19724 0.0
H2656 H 0.78644 0.76244 0.18846 0.0
H2657 H 0.78482 0.7729 0.24135 0.0
H2658 H 0.75313 0.72135 0.34411 0.0
H2659 H 0.77866 0.6971 0.32407 0.0
H2660 H 0.78603 0.72596 0.20164 0.0
C2661 C 0.73623 0.7845 0.25297 0.0
C2662 C 0.72503 0.7908 0.28847 0.0
C2663 C 0.72354 0.77847 0.32498 0.0
C2664 C 0.73297 0.76018 0.32607 0.0
C2665 C 0.74366 0.75435 0.29028 0.0
C2666 C 0.7454 0.76615 0.25446 0.0
C2667 C 0.75845 0.75681 0.22097 0.0
C2668 C 0.74684 0.7523 0.17987 0.0
C2669 C 0.77645 0.76983 0.21149 0.0
C2670 C 0.76422 0.73812 0.24406 0.0
C2671 C 0.75537 0.7369 0.28386 0.0
C2672 C 0.75982 0.7219 0.3127 0.0
C2673 C 0.77418 0.70818 0.30111 0.0
C2674 C 0.78371 0.70951 0.26103 0.0
C2675 C 0.77828 0.72429 0.23171 0.0
H2676 H 0.54456 0.49081 0.97251 0.0
H2677 H 0.53611 0.47329 0.10502 0.0
H2678 H 0.50633 0.49366 0.10868 0.0
H2679 H 0.52763 0.54112 0.98465 0.0
H2680 H 0.51569 0.54164 0.9331 0.0
H2681 H 0.53678 0.52612 0.94147 0.0
H2682 H 0.51644 0.49605 0.91617 0.0
H2683 H 0.49518 0.51147 0.90858 0.0
H2684 H 0.4937 0.49019 0.94288 0.0
H2685 H 0.47728 0.51511 0.09812 0.0
H2686 H 0.45198 0.53899 0.07548 0.0
H2687 H 0.47838 0.54235 0.94946 0.0
C2688 C 0.53649 0.49138 1.00233 0.0
C2689 C 0.54281 0.48056 0.03855 0.0
C2690 C 0.53188 0.48173 0.0771 0.0
C2691 C 0.51477 0.49308 0.07936 0.0
C2692 C 0.50876 0.50318 0.04284 0.0
C2693 C 0.51935 0.50266 1.00517 0.0
C2694 C 0.50967 0.5151 0.97074 0.0
C2695 C 0.52325 0.532 0.95669 0.0
C2696 C 0.50338 0.50244 0.93232 0.0
C2697 C 0.49198 0.52269 0.99508 0.0
C2698 C 0.49174 0.51551 0.03654 0.0
C2699 C 0.47727 0.52081 0.06574 0.0
C2700 C 0.46297 0.5343 0.05264 0.0
C2701 C 0.46323 0.5423 1.01078 0.0
C2702 C 0.47767 0.53609 0.98133 0.0
H2703 H 0.03522 0.47546 0.54793 0.0
H2704 H 0.03234 0.4662 0.41055 0.0
H2705 H 1.00334 0.48787 0.40645 0.0
H2706 H 0.98198 0.47672 0.56616 0.0
H2707 H 0.98379 0.4956 0.60643 0.0
H2708 H 1.00371 0.47846 0.59904 0.0
H2709 H 0.02796 0.50737 0.5874 0.0
H2710 H 0.00821 0.52454 0.59533 0.0
H2711 H 0.02261 0.52556 0.54696 0.0
H2712 H 0.97647 0.51243 0.41643 0.0
H2713 H 0.95458 0.53947 0.43962 0.0
H2714 H 0.97361 0.53144 0.5707 0.0
C2715 C 0.02835 0.47781 0.51707 0.0
C2716 C 0.03613 0.46922 0.47955 0.0
C2717 C 0.0269 0.4729 0.43962 0.0
C2718 C 0.01024 0.48497 0.43706 0.0
C2719 C 1.00292 0.49311 0.47473 0.0
C2720 C 0.01169 0.48973 0.51398 0.0
C2721 C 1.00159 0.50111 0.54931 0.0
C2722 C 0.99221 0.48713 0.58217 0.0
C2723 C 0.01595 0.5155 0.571 0.0
C2724 C 0.98607 0.51186 0.52362 0.0
C2725 C 0.98697 0.50687 0.4807 0.0
C2726 C 0.97533 0.51616 0.45002 0.0
C2727 C 0.96293 0.53138 0.46337 0.0
C2728 C 0.96219 0.53701 0.5069 0.0
C2729 C 0.97346 0.52679 0.53754 0.0
H2730 H 0.97725 0.47917 0.95176 0.0
H2731 H 0.94275 0.49924 0.05964 0.0
H2732 H 0.96857 0.52332 0.07797 0.0
H2733 H 0.02193 0.47981 1.00263 0.0
H2734 H 0.03638 0.48851 0.95811 0.0
H2735 H 0.01399 0.47514 0.94846 0.0
H2736 H 1.00037 0.50386 0.90264 0.0
H2737 H 0.02294 0.51717 0.91119 0.0
H2738 H 0.99974 0.52831 0.92476 0.0
H2739 H 0.99943 0.54148 0.09056 0.0
H2740 H 0.03258 0.55595 0.09212 0.0
H2741 H 0.04766 0.52433 0.97613 0.0
C2742 C 0.97487 0.48924 0.97807 0.0
C2743 C 0.95806 0.48761 1.0042 0.0
C2744 C 0.95558 0.50048 0.03932 0.0
C2745 C 0.97013 0.51411 0.04993 0.0
C2746 C 0.98701 0.51471 0.02489 0.0
C2747 C 0.98936 0.50291 0.98922 0.0
C2748 C 0.00959 0.50555 0.96976 0.0
C2749 C 0.02114 0.4861 0.96976 0.0
C2750 C 0.00806 0.51425 0.9244 0.0
C2751 C 0.01837 0.52018 1.00089 0.0
C2752 C 1.00504 0.52528 0.03233 0.0
C2753 C 0.00995 0.5378 0.06588 0.0
C2754 C 0.0289 0.5457 0.06685 0.0
C2755 C 0.0427 0.54105 0.03446 0.0
C2756 C 0.03733 0.52809 1.00118 0.0
H2757 H 0.47272 0.48425 0.46817 0.0
H2758 H 0.48293 0.46262 0.59713 0.0
H2759 H 0.51467 0.47998 0.59916 0.0
H2760 H 0.52394 0.48145 0.43215 0.0
H2761 H 0.52242 0.50382 0.4013 0.0
H2762 H 0.50087 0.48877 0.4086 0.0
H2763 H 0.48198 0.51855 0.44008 0.0
H2764 H 0.50333 0.53369 0.43209 0.0
H2765 H 0.49244 0.53184 0.48453 0.0
H2766 H 0.54394 0.50122 0.58951 0.0
H2767 H 0.56778 0.52724 0.57041 0.0
H2768 H 0.5397 0.53432 0.44701 0.0
C2769 C 0.48174 0.4831 0.49666 0.0
C2770 C 0.47529 0.47224 0.53259 0.0
C2771 C 0.48736 0.47118 0.56955 0.0
C2772 C 0.50556 0.48075 0.57077 0.0
C2773 C 0.51153 0.49123 0.53473 0.0
C2774 C 0.49996 0.4926 0.49844 0.0
C2775 C 0.50931 0.50584 0.46513 0.0
C2776 C 0.51444 0.49427 0.42438 0.0
C2777 C 0.49597 0.52353 0.45489 0.0
C2778 C 0.5277 0.51209 0.48887 0.0
C2779 C 0.52879 0.50325 0.52874 0.0
C2780 C 0.54348 0.50794 0.55809 0.0
C2781 C 0.55698 0.5226 0.54702 0.0
C2782 C 0.55573 0.53224 0.507 0.0
C2783 C 0.5413 0.52653 0.47708 0.0
H2784 H 0.20986 0.16991 0.51473 0.0
H2785 H 0.23374 0.15299 0.39139 0.0
H2786 H 0.26667 0.1496 0.42468 0.0
H2787 H 0.25174 0.199 0.54826 0.0
H2788 H 0.24999 0.19202 0.60384 0.0
H2789 H 0.22825 0.19248 0.57084 0.0
H2790 H 0.22123 0.15622 0.59052 0.0
H2791 H 0.24302 0.15561 0.62339 0.0
H2792 H 0.23983 0.13786 0.58112 0.0
H2793 H 0.29719 0.14793 0.47159 0.0
H2794 H 0.32332 0.15037 0.52566 0.0
H2795 H 0.28075 0.16946 0.62023 0.0
C2796 C 0.22197 0.16538 0.49458 0.0
C2797 C 0.21893 0.16154 0.45004 0.0
C2798 C 0.23543 0.15595 0.42527 0.0
C2799 C 0.25425 0.15394 0.4441 0.0
C2800 C 0.25664 0.15773 0.48794 0.0
C2801 C 0.24096 0.16352 0.51284 0.0
C2802 C 0.2477 0.1674 0.55893 0.0
C2803 C 0.24421 0.18901 0.57119 0.0
C2804 C 0.23732 0.15344 0.59035 0.0
C2805 C 0.26965 0.16282 0.55627 0.0
C2806 C 0.27435 0.15716 0.51491 0.0
C2807 C 0.29358 0.15238 0.50391 0.0
C2808 C 0.30841 0.15381 0.5352 0.0
C2809 C 0.30439 0.16003 0.57778 0.0
C2810 C 0.28449 0.16434 0.58845 0.0
H2811 H 0.09546 0.02759 0.87052 0.0
H2812 H 0.11977 0.06917 0.77933 0.0
H2813 H 0.12251 0.04302 0.72559 0.0
H2814 H 0.12626 0.98515 0.83558 0.0
H2815 H 0.10677 0.96749 0.84246 0.0
H2816 H 0.10752 0.98924 0.87536 0.0
H2817 H 0.07225 0.99807 0.85119 0.0
H2818 H 0.07146 0.97646 0.81793 0.0
H2819 H 0.06688 1.00032 0.79482 0.0
H2820 H 0.1202 0.01296 0.67801 0.0
H2821 H 0.11588 0.98042 0.64365 0.0
H2822 H 0.09466 0.9569 0.76426 0.0
C2823 C 0.10182 0.03106 0.83966 0.0
C2824 C 0.10746 0.05073 0.82972 0.0
C2825 C 0.11528 0.05444 0.78825 0.0
C2826 C 0.11689 0.0396 0.75715 0.0
C2827 C 0.11075 0.02064 0.76727 0.0
C2828 C 0.10363 0.01617 0.80769 0.0
C2829 C 0.09785 0.99445 0.80938 0.0
C2830 C 0.11035 0.98343 0.84268 0.0
C2831 C 0.0758 0.9922 0.8189 0.0
C2832 C 0.1027 0.98765 0.76381 0.0
C2833 C 0.10999 1.00308 0.73999 0.0
C2834 C 0.11474 1.0007 0.69662 0.0
C2835 C 0.11219 0.98211 0.67717 0.0
C2836 C 0.10517 0.9658 0.7009 0.0
C2837 C 0.10037 0.96884 0.74499 0.0
H2838 H 0.21057 0.84772 0.02565 0.0
H2839 H 0.23561 0.86181 0.14975 0.0
H2840 H 0.26839 0.86503 0.11601 0.0
H2841 H 0.2515 0.81831 0.98861 0.0
H2842 H 0.2497 0.82637 0.93371 0.0
H2843 H 0.2281 0.82588 0.96701 0.0
H2844 H 0.22196 0.86265 0.95075 0.0
H2845 H 0.24359 0.86327 0.91748 0.0
H2846 H 0.24112 0.8803 0.96134 0.0
H2847 H 0.29869 0.86677 0.06868 0.0
H2848 H 0.32441 0.86514 1.01388 0.0
H2849 H 0.28095 0.84878 0.91844 0.0
C2850 C 0.2229 0.85164 0.04585 0.0
C2851 C 0.2202 0.85471 0.0908 0.0
C2852 C 0.23699 0.85949 0.11557 0.0
C2853 C 0.25576 0.86137 0.0965 0.0
C2854 C 0.25781 0.85829 0.05234 0.0
C2855 C 0.24185 0.85337 0.02731 0.0
C2856 C 0.24828 0.85017 0.98076 0.0
C2857 C 0.24415 0.82892 0.9667 0.0
C2858 C 0.23813 0.86498 0.95081 0.0
C2859 C 0.27038 0.85411 0.98336 0.0
C2860 C 0.27542 0.85886 0.02508 0.0
C2861 C 0.29481 0.86302 0.03607 0.0
C2862 C 0.30943 0.86203 1.00429 0.0
C2863 C 0.30507 0.85682 0.96116 0.0
C2864 C 0.28501 0.853 0.95067 0.0
H2865 H 0.42073 0.98268 0.36579 0.0
H2866 H 0.40441 0.9397 0.26963 0.0
H2867 H 0.40189 0.96589 0.21552 0.0
H2868 H 0.38874 0.02292 0.32458 0.0
H2869 H 0.40655 0.04186 0.33572 0.0
H2870 H 0.4059 0.01994 0.36818 0.0
H2871 H 0.4426 0.01372 0.35166 0.0
H2872 H 0.44332 0.03552 0.31888 0.0
H2873 H 0.45057 0.01218 0.29671 0.0
H2874 H 0.40344 0.99657 0.16894 0.0
H2875 H 0.40679 0.02958 0.13601 0.0
H2876 H 0.4213 0.05368 0.26069 0.0
C2877 C 0.41611 0.97887 0.33366 0.0
C2878 C 0.41257 0.95887 0.32251 0.0
C2879 C 0.40713 0.95472 0.27948 0.0
C2880 C 0.40569 0.96958 0.2482 0.0
C2881 C 0.40973 0.98895 0.2597 0.0
C2882 C 0.41463 0.99373 0.3015 0.0
C2883 C 0.41876 0.01578 0.30456 0.0
C2884 C 0.40411 0.02571 0.33508 0.0
C2885 C 0.44008 0.01952 0.3188 0.0
C2886 C 0.41547 0.02247 0.25822 0.0
C2887 C 0.41036 1.0067 0.23284 0.0
C2888 C 0.40724 0.00905 0.18873 0.0
C2889 C 0.40921 0.02793 0.17012 0.0
C2890 C 0.41413 0.04452 0.19534 0.0
C2891 C 0.41728 0.04151 0.24017 0.0
H2892 H 0.80486 0.84435 0.52276 0.0
H2893 H 0.78129 0.86736 0.6416 0.0
H2894 H 0.7491 0.87232 0.60596 0.0
H2895 H 0.77813 0.87632 0.44952 0.0
H2896 H 0.77387 0.85742 0.41017 0.0
H2897 H 0.79526 0.85626 0.44421 0.0
H2898 H 0.78515 0.82149 0.46944 0.0
H2899 H 0.76378 0.8225 0.43535 0.0
H2900 H 0.76104 0.81769 0.49183 0.0
H2901 H 0.71929 0.87491 0.55726 0.0
H2902 H 0.69355 0.87286 0.50234 0.0
H2903 H 0.73512 0.84691 0.41353 0.0
C2904 C 0.79299 0.85059 0.54136 0.0
C2905 C 0.79591 0.85567 0.58535 0.0
C2906 C 0.7797 0.86344 0.60817 0.0
C2907 C 0.76129 0.86634 0.588 0.0
C2908 C 0.75901 0.86124 0.54478 0.0
C2909 C 0.77438 0.85335 0.52178 0.0
C2910 C 0.76771 0.84838 0.47613 0.0
C2911 C 0.77944 0.86031 0.44305 0.0
C2912 C 0.76953 0.8262 0.46769 0.0
C2913 C 0.74617 0.85478 0.47685 0.0
C2914 C 0.74162 0.86227 0.51687 0.0
C2915 C 0.72278 0.86901 0.526 0.0
C2916 C 0.70815 0.86777 0.49421 0.0
C2917 C 0.71198 0.85975 0.45299 0.0
C2918 C 0.73153 0.85337 0.44421 0.0
H2919 H 0.9274 0.03032 0.36408 0.0
H2920 H 0.89999 0.07117 0.27575 0.0
H2921 H 0.89696 0.04485 0.22187 0.0
H2922 H 0.95593 1.00541 0.28556 0.0
H2923 H 0.95346 0.98124 0.30868 0.0
H2924 H 0.9519 1.00267 0.34233 0.0
H2925 H 0.91783 0.99143 0.36959 0.0
H2926 H 0.91937 0.96985 0.33633 0.0
H2927 H 0.8986 0.98615 0.33153 0.0
H2928 H 0.89898 0.01431 0.17423 0.0
H2929 H 0.9046 0.98204 0.13943 0.0
H2930 H 0.93076 0.96038 0.25718 0.0
C2931 C 0.92017 0.03353 0.33395 0.0
C2932 C 0.9135 0.05294 0.32483 0.0
C2933 C 0.90492 0.05651 0.28406 0.0
C2934 C 0.90322 0.04159 0.25297 0.0
C2935 C 0.91029 0.02283 0.26236 0.0
C2936 C 0.91849 0.01867 0.30201 0.0
C2937 C 0.92575 0.99742 0.30286 0.0
C2938 C 0.94808 0.99665 0.3103 0.0
C2939 C 0.91473 0.98551 0.33712 0.0
C2940 C 0.92044 0.99041 0.25773 0.0
C2941 C 0.91154 1.00532 0.23485 0.0
C2942 C 0.9058 1.0025 0.19213 0.0
C2943 C 0.90908 0.98405 0.17242 0.0
C2944 C 0.91801 0.96836 0.19514 0.0
C2945 C 0.92373 0.97184 0.23855 0.0
H2946 H 0.76849 0.1544 0.88979 0.0
H2947 H 0.81844 0.17049 0.96853 0.0
H2948 H 0.79664 0.17204 0.03214 0.0
H2949 H 0.73381 0.18661 0.94145 0.0
H2950 H 0.71353 0.16974 0.93609 0.0
H2951 H 0.73329 0.1693 0.89779 0.0
H2952 H 0.73878 0.13232 0.91337 0.0
H2953 H 0.7191 0.13267 0.95189 0.0
H2954 H 0.74319 0.12433 0.96763 0.0
H2955 H 0.76799 0.17135 0.0892 0.0
H2956 H 0.73648 0.17092 0.12955 0.0
H2957 H 0.70557 0.15655 1.01224 0.0
C2958 C 0.77496 0.15816 0.9204 0.0
C2959 C 0.79545 0.16214 0.92371 0.0
C2960 C 0.80295 0.16727 0.96468 0.0
C2961 C 0.7906 0.16816 1.00121 0.0
C2962 C 0.77051 0.16407 0.99675 0.0
C2963 C 0.76279 0.15934 0.95706 0.0
C2964 C 0.74066 0.15628 0.96005 0.0
C2965 C 0.72968 0.17138 0.9322 0.0
C2966 C 0.73511 0.13514 0.94749 0.0
C2967 C 0.73702 0.15989 1.00753 0.0
C2968 C 0.75437 0.16422 0.0285 0.0
C2969 C 0.7544 0.16798 0.07273 0.0
C2970 C 0.73637 0.1676 0.09564 0.0
C2971 C 0.71831 0.16367 0.07455 0.0
C2972 C 0.71895 0.15963 0.0298 0.0
H2973 H 0.59965 0.05613 0.75018 0.0
H2974 H 0.61147 0.02975 0.62643 0.0
H2975 H 0.61304 0.997 0.66096 0.0
H2976 H 0.63053 0.02392 0.81493 0.0
H2977 H 0.61351 0.02252 0.85903 0.0
H2978 H 0.61402 0.04407 0.82538 0.0
H2979 H 0.57693 0.03998 0.80961 0.0
H2980 H 0.57629 0.01849 0.84337 0.0
H2981 H 0.568 0.01698 0.78861 0.0
H2982 H 0.61354 0.96703 0.7086 0.0
H2983 H 0.61026 0.94149 0.76354 0.0
H2984 H 0.59656 0.98587 0.85872 0.0
C2985 C 0.60273 0.04349 0.73027 0.0
C2986 C 0.60568 0.04577 0.68517 0.0
C2987 C 0.60927 0.02864 0.6607 0.0
C2988 C 0.61023 0.0099 0.68022 0.0
C2989 C 0.60734 0.00824 0.72451 0.0
C2990 C 0.60344 0.02454 0.74927 0.0
C2991 C 0.60001 0.01842 0.79599 0.0
C2992 C 0.61544 0.0278 0.82559 0.0
C2993 C 0.57907 0.02379 0.81023 0.0
C2994 C 0.60268 0.99611 0.79376 0.0
C2995 C 0.60705 0.99074 0.75206 0.0
C2996 C 0.61005 0.97115 0.74119 0.0
C2997 C 0.60813 0.95665 0.77302 0.0
C2998 C 0.60312 0.96134 0.81605 0.0
C2999 C 0.60065 0.98159 0.82657 0.0
H3000 H 0.73437 0.67628 0.91474 0.0
H3001 H 0.6962 0.64191 0.99679 0.0
H3002 H 0.72304 0.63811 0.04925 0.0
H3003 H 0.78062 0.64886 0.93996 0.0
H3004 H 0.79552 0.67077 0.93961 0.0
H3005 H 0.77387 0.66939 0.90642 0.0
H3006 H 0.76068 0.70121 0.94125 0.0
H3007 H 0.78217 0.70258 0.97485 0.0
H3008 H 0.75806 0.70239 0.99866 0.0
H3009 H 0.75338 0.64036 0.0971 0.0
H3010 H 0.7853 0.6467 0.13296 0.0
H3011 H 0.80473 0.67907 0.02093 0.0
C3012 C 0.73191 0.66739 0.94303 0.0
C3013 C 0.71308 0.65903 0.95092 0.0
C3014 C 0.71043 0.64822 0.98943 0.0
C3015 C 0.72563 0.64605 0.01972 0.0
C3016 C 0.74378 0.65483 1.01175 0.0
C3017 C 0.74711 0.66512 0.97411 0.0
C3018 C 0.76784 0.67375 0.97463 0.0
C3019 C 0.7802 0.66518 0.93797 0.0
C3020 C 0.76714 0.69632 0.9722 0.0
C3021 C 0.77547 0.66683 0.01827 0.0
C3022 C 0.76131 0.65597 0.03924 0.0
C3023 C 0.76465 0.64866 0.08063 0.0
C3024 C 0.78288 0.65237 0.10095 0.0
C3025 C 0.79785 0.66321 0.08007 0.0
C3026 C 0.79386 0.67049 0.03798 0.0
H3027 H 0.59405 0.45908 0.25907 0.0
H3028 H 0.61174 0.48283 0.13597 0.0
H3029 H 0.61559 0.51566 0.16929 0.0
H3030 H 0.56548 0.50117 0.29169 0.0
H3031 H 0.57213 0.49938 0.34747 0.0
H3032 H 0.57167 0.47763 0.31462 0.0
H3033 H 0.60775 0.47031 0.33528 0.0
H3034 H 0.60836 0.4921 0.36802 0.0
H3035 H 0.62631 0.48876 0.32626 0.0
H3036 H 0.61704 0.54631 0.21597 0.0
H3037 H 0.61402 0.57255 0.26971 0.0
H3038 H 0.59459 0.52997 0.36408 0.0
C3039 C 0.59894 0.47111 0.23901 0.0
C3040 C 0.60283 0.46805 0.1945 0.0
C3041 C 0.6088 0.4845 0.16985 0.0
C3042 C 0.61105 0.50328 0.18869 0.0
C3043 C 0.60714 0.5057 0.23245 0.0
C3044 C 0.60105 0.49007 0.25729 0.0
C3045 C 0.59697 0.49686 0.30322 0.0
C3046 C 0.57528 0.49356 0.31494 0.0
C3047 C 0.61067 0.48638 0.33508 0.0
C3048 C 0.60175 0.51879 0.30054 0.0
C3049 C 0.60769 0.52344 0.25932 0.0
C3050 C 0.61246 0.54271 0.24823 0.0
C3051 C 0.61073 0.5576 0.27929 0.0
C3052 C 0.60429 0.55358 0.32171 0.0
C3053 C 0.6 0.53367 0.33249 0.0
H3054 H 0.70934 0.33642 0.52331 0.0
H3055 H 0.7296 0.36513 0.63925 0.0
H3056 H 0.76179 0.3713 0.60458 0.0
H3057 H 0.7552 0.31228 0.49858 0.0
H3058 H 0.75271 0.31511 0.44141 0.0
H3059 H 0.73112 0.31358 0.4746 0.0
H3060 H 0.7188 0.34665 0.44369 0.0
H3061 H 0.74041 0.34833 0.41055 0.0
H3062 H 0.73437 0.36805 0.44673 0.0
H3063 H 0.79217 0.37402 0.55729 0.0
H3064 H 0.81873 0.37162 0.50418 0.0
H3065 H 0.77976 0.3406 0.41745 0.0
C3066 C 0.72046 0.34415 0.5415 0.0
C3067 C 0.71661 0.35044 0.58437 0.0
C3068 C 0.7319 0.36022 0.60665 0.0
C3069 C 0.75029 0.36382 0.58702 0.0
C3070 C 0.75349 0.35748 0.54488 0.0
C3071 C 0.73901 0.34772 0.52243 0.0
C3072 C 0.74649 0.34185 0.47798 0.0
C3073 C 0.74637 0.31937 0.47285 0.0
C3074 C 0.73428 0.35181 0.44265 0.0
C3075 C 0.76748 0.34983 0.47872 0.0
C3076 C 0.77107 0.35886 0.5177 0.0
C3077 C 0.78939 0.36701 0.52678 0.0
C3078 C 0.80447 0.36558 0.49609 0.0
C3079 C 0.80157 0.3561 0.45602 0.0
C3080 C 0.78254 0.34833 0.44714 0.0
H3081 H 0.92253 0.48594 0.86125 0.0
H3082 H 0.88949 0.44746 0.77719 0.0
H3083 H 0.88795 0.47361 0.72264 0.0
H3084 H 0.89714 0.53223 0.82994 0.0
H3085 H 0.9193 0.54671 0.83215 0.0
H3086 H 0.91664 0.52547 0.86624 0.0
H3087 H 0.94899 0.51122 0.836 0.0
H3088 H 0.95167 0.53231 0.80156 0.0
H3089 H 0.95157 0.50795 0.77897 0.0
H3090 H 0.89177 0.50354 0.67368 0.0
H3091 H 0.89938 0.53507 0.63729 0.0
H3092 H 0.92973 0.55485 0.75168 0.0
C3093 C 0.9145 0.48322 0.83188 0.0
C3094 C 0.90587 0.46448 0.82416 0.0
C3095 C 0.8961 0.46156 0.78441 0.0
C3096 C 0.89518 0.4764 0.75293 0.0
C3097 C 0.90417 0.49444 0.76089 0.0
C3098 C 0.91352 0.49802 0.79956 0.0
C3099 C 0.92258 0.51856 0.79899 0.0
C3100 C 0.91336 0.53151 0.83391 0.0
C3101 C 0.94503 0.51744 0.80419 0.0
C3102 C 0.91694 0.52583 0.7542 0.0
C3103 C 0.90633 0.51166 0.7327 0.0
C3104 C 0.89994 0.51479 0.6905 0.0
C3105 C 0.90436 0.53281 0.66988 0.0
C3106 C 0.91506 0.54776 0.69121 0.0
C3107 C 0.92137 0.54397 0.73413 0.0
H3108 H 0.30137 0.33418 0.02233 0.0
H3109 H 0.28139 0.36257 0.13876 0.0
H3110 H 0.24927 0.36922 0.104 0.0
H3111 H 0.2767 0.36651 0.94637 0.0
H3112 H 0.27054 0.34703 0.90964 0.0
H3113 H 0.29211 0.34502 0.94293 0.0
H3114 H 0.27953 0.31188 0.97287 0.0
H3115 H 0.25798 0.31373 0.93953 0.0
H3116 H 0.25542 0.31062 0.9966 0.0
H3117 H 0.21874 0.37216 0.05657 0.0
H3118 H 0.19215 0.36996 1.0032 0.0
H3119 H 0.23116 0.3394 0.9161 0.0
C3120 C 0.29033 0.34194 0.04064 0.0
C3121 C 0.29424 0.34797 0.08367 0.0
C3122 C 0.27906 0.35785 0.10603 0.0
C3123 C 0.26069 0.36171 0.08635 0.0
C3124 C 0.25744 0.35559 0.04404 0.0
C3125 C 0.27184 0.34581 0.0215 0.0
C3126 C 0.26436 0.34023 0.97684 0.0
C3127 C 0.27667 0.3503 0.94188 0.0
C3128 C 0.26432 0.31778 0.97113 0.0
C3129 C 0.24344 0.34836 0.97759 0.0
C3130 C 0.23986 0.35722 0.01675 0.0
C3131 C 0.22153 0.36533 0.02589 0.0
C3132 C 0.20644 0.36403 0.99507 0.0
C3133 C 0.20938 0.35477 0.9548 0.0
C3134 C 0.22839 0.34703 0.9459 0.0
H3135 H 0.41974 0.53072 0.85927 0.0
H3136 H 0.39533 0.57236 0.76827 0.0
H3137 H 0.39204 0.54614 0.71478 0.0
H3138 H 0.44777 0.50326 0.78309 0.0
H3139 H 0.44324 0.47945 0.80647 0.0
H3140 H 0.44271 0.50111 0.83959 0.0
H3141 H 0.40755 0.49242 0.86459 0.0
H3142 H 0.40804 0.47063 0.83179 0.0
H3143 H 0.38857 0.48835 0.82524 0.0
H3144 H 0.39374 0.51593 0.66745 0.0
H3145 H 0.39779 0.48335 0.63317 0.0
H3146 H 0.41978 0.45993 0.75335 0.0
C3147 C 0.41324 0.53419 0.82851 0.0
C3148 C 0.4077 0.55388 0.81855 0.0
C3149 C 0.39971 0.55761 0.7772 0.0
C3150 C 0.39779 0.54272 0.74626 0.0
C3151 C 0.40382 0.52372 0.7564 0.0
C3152 C 0.41115 0.51926 0.79669 0.0
C3153 C 0.41686 0.49753 0.79838 0.0
C3154 C 0.43896 0.49521 0.80742 0.0
C3155 C 0.40452 0.48658 0.832 0.0
C3156 C 0.41173 0.49068 0.75296 0.0
C3157 C 0.40433 0.50611 0.72923 0.0
C3158 C 0.3993 0.50368 0.686 0.0
C3159 C 0.40169 0.48506 0.6666 0.0
C3160 C 0.40888 0.46878 0.69021 0.0
C3161 C 0.41395 0.47185 0.73417 0.0
H3162 H 0.28046 0.67132 0.41422 0.0
H3163 H 0.31951 0.63789 0.49668 0.0
H3164 H 0.2934 0.63486 0.55042 0.0
H3165 H 0.25663 0.69814 0.49781 0.0
H3166 H 0.23234 0.69739 0.47478 0.0
H3167 H 0.25361 0.6962 0.44058 0.0
H3168 H 0.241 0.66364 0.40797 0.0
H3169 H 0.21958 0.66482 0.44181 0.0
H3170 H 0.23509 0.64334 0.44284 0.0
H3171 H 0.26401 0.63759 0.59944 0.0
H3172 H 0.23231 0.64338 0.63625 0.0
H3173 H 0.21064 0.67359 0.52318 0.0
C3174 C 0.28333 0.66295 0.44306 0.0
C3175 C 0.30231 0.65478 0.45066 0.0
C3176 C 0.30532 0.64434 0.48962 0.0
C3177 C 0.29049 0.64254 0.52068 0.0
C3178 C 0.27227 0.65113 0.51301 0.0
C3179 C 0.26844 0.6609 0.47493 0.0
C3180 C 0.24746 0.66897 0.4757 0.0
C3181 C 0.24752 0.69151 0.47199 0.0
C3182 C 0.23505 0.65963 0.43995 0.0
C3183 C 0.24035 0.66236 0.52001 0.0
C3184 C 0.255 0.65219 0.54104 0.0
C3185 C 0.25233 0.64532 0.58296 0.0
C3186 C 0.23423 0.64872 0.60382 0.0
C3187 C 0.21869 0.65872 0.58289 0.0
C3188 C 0.22199 0.66561 0.54021 0.0
H3189 H 0.09544 0.48329 0.36201 0.0
H3190 H 0.11821 0.442 0.26849 0.0
H3191 H 0.12106 0.4685 0.21564 0.0
H3192 H 0.06706 0.51221 0.28773 0.0
H3193 H 0.0725 0.53564 0.31186 0.0
H3194 H 0.07272 0.51365 0.34408 0.0
H3195 H 0.10835 0.52113 0.36796 0.0
H3196 H 0.10818 0.54322 0.336 0.0
H3197 H 0.12706 0.52501 0.32799 0.0
H3198 H 0.11946 0.49904 0.1694 0.0
H3199 H 0.11615 0.53206 0.13655 0.0
H3200 H 0.09618 0.55504 0.25852 0.0
C3201 C 0.10137 0.47991 0.33072 0.0
C3202 C 0.10654 0.4602 0.32 0.0
C3203 C 0.11397 0.45669 0.2781 0.0
C3204 C 0.11568 0.47176 0.24745 0.0
C3205 C 0.11008 0.49076 0.25844 0.0
C3206 C 0.10331 0.49503 0.29922 0.0
C3207 C 0.09826 0.51691 0.30196 0.0
C3208 C 0.07633 0.51977 0.31201 0.0
C3209 C 0.11124 0.52717 0.33547 0.0
C3210 C 0.10314 0.52403 0.25659 0.0
C3211 C 0.10979 0.50861 0.23196 0.0
C3212 C 0.11448 0.51128 0.18864 0.0
C3213 C 0.11252 0.53015 0.17006 0.0
C3214 C 0.10615 0.54644 0.19461 0.0
C3215 C 0.1014 0.54311 0.23865 0.0
loop_
_geom_bond_atom_site_label_1
_geom_bond_atom_site_label_2
_geom_bond_distance
_geom_bond_site_symmetry_2
_ccdc_geom_bond_type
C0 C1 1.351 . S
C0 N3 1.368 . S
C0 H5 0.931 . S
C1 C0 1.351 . S
C1 N2 1.373 . S
C1 H29 0.930 . S
N2 C1 1.373 . S
N2 C4 1.340 . S
N3 C0 1.368 . S
N3 C4 1.321 . S
N3 Co6 2.135 . S
C4 N2 1.340 . S
C4 N3 1.321 . S
C4 H28 0.930 . S
H5 C0 0.931 . S
Co6 N3 2.135 . S
Co6 N9 2.121 . S
Co6 O14 2.055 . S
Co6 O17 2.039 . S
Co6 N20 2.140 . S
C7 O8 1.227 . S
C7 O17 1.265 . S
O8 C7 1.227 . S
N9 Co6 2.121 . S
N9 C11 1.375 . S
N9 C12 1.313 . S
C10 C11 1.338 . S
C10 N13 1.377 . S
C10 H30 0.930 . S
C11 N9 1.375 . S
C11 C10 1.338 . S
C11 H15 0.931 . S
C12 N9 1.313 . S
C12 N13 1.344 . S
C12 H16 0.930 . S
N13 C10 1.377 . S
N13 C12 1.344 . S
O14 Co6 2.055 . S
O14 C18 1.253 . S
H15 C11 0.931 . S
H16 C12 0.930 . S
O17 Co6 2.039 . S
O17 C7 1.265 . S
C18 O14 1.253 . S
C18 O19 1.227 . S
O19 C18 1.227 . S
N20 Co6 2.140 . S
N20 C23 1.346 . S
N20 C24 1.345 . S
C21 C22 1.387 . S
C21 C25 1.391 . S
C22 C21 1.387 . S
C22 C23 1.369 . S
C22 H31 0.929 . S
C23 N20 1.346 . S
C23 C22 1.369 . S
C23 H26 0.928 . S
C24 N20 1.345 . S
C24 C25 1.371 . S
C24 H27 0.931 . S
C25 C21 1.391 . S
C25 C24 1.371 . S
C25 H32 0.930 . S
H26 C23 0.928 . S
H27 C24 0.931 . S
H28 C4 0.930 . S
H29 C1 0.930 . S
H30 C10 0.930 . S
H31 C22 0.929 . S
H32 C25 0.930 . S
C33 C34 1.351 . S
C33 N36 1.368 . S
C33 H38 0.931 . S
C34 C33 1.351 . S
C34 N35 1.373 . S
C34 H62 0.930 . S
N35 C34 1.373 . S
N35 C37 1.340 . S
N36 C33 1.368 . S
N36 C37 1.321 . S
N36 Co39 2.135 . S
C37 N35 1.340 . S
C37 N36 1.321 . S
C37 H61 0.930 . S
H38 C33 0.931 . S
Co39 N36 2.135 . S
Co39 N42 2.121 . S
Co39 O47 2.055 . S
Co39 O50 2.039 . S
Co39 N53 2.140 . S
C40 O41 1.227 . S
C40 O50 1.265 . S
O41 C40 1.227 . S
N42 Co39 2.121 . S
N42 C44 1.375 . S
N42 C45 1.313 . S
C43 C44 1.338 . S
C43 N46 1.377 . S
C43 H63 0.930 . S
C44 N42 1.375 . S
C44 C43 1.338 . S
C44 H48 0.931 . S
C45 N42 1.313 . S
C45 N46 1.344 . S
C45 H49 0.930 . S
N46 C43 1.377 . S
N46 C45 1.344 . S
O47 Co39 2.055 . S
O47 C51 1.253 . S
H48 C44 0.931 . S
H49 C45 0.930 . S
O50 Co39 2.039 . S
O50 C40 1.265 . S
C51 O47 1.253 . S
C51 O52 1.227 . S
O52 C51 1.227 . S
N53 Co39 2.140 . S
N53 C56 1.346 . S
N53 C57 1.345 . S
C54 C55 1.387 . S
C54 C58 1.391 . S
C55 C54 1.387 . S
C55 C56 1.369 . S
C55 H64 0.929 . S
C56 N53 1.346 . S
C56 C55 1.369 . S
C56 H59 0.928 . S
C57 N53 1.345 . S
C57 C58 1.371 . S
C57 H60 0.931 . S
C58 C54 1.391 . S
C58 C57 1.371 . S
C58 H65 0.930 . S
H59 C56 0.928 . S
H60 C57 0.931 . S
H61 C37 0.930 . S
H62 C34 0.930 . S
H63 C43 0.930 . S
H64 C55 0.929 . S
H65 C58 0.930 . S
C66 C67 1.351 . S
C66 N69 1.368 . S
C66 H71 0.931 . S
C67 C66 1.351 . S
C67 N68 1.373 . S
C67 H95 0.930 . S
N68 C67 1.373 . S
N68 C70 1.340 . S
N69 C66 1.368 . S
N69 C70 1.321 . S
N69 Co72 2.135 . S
C70 N68 1.340 . S
C70 N69 1.321 . S
C70 H94 0.930 . S
H71 C66 0.931 . S
Co72 N69 2.135 . S
Co72 N75 2.121 . S
Co72 O80 2.055 . S
Co72 O83 2.039 . S
Co72 N86 2.140 . S
C73 O74 1.227 . S
C73 O83 1.265 . S
O74 C73 1.227 . S
N75 Co72 2.121 . S
N75 C77 1.375 . S
N75 C78 1.313 . S
C76 C77 1.338 . S
C76 N79 1.377 . S
C76 H96 0.930 . S
C77 N75 1.375 . S
C77 C76 1.338 . S
C77 H81 0.931 . S
C78 N75 1.313 . S
C78 N79 1.344 . S
C78 H82 0.930 . S
N79 C76 1.377 . S
N79 C78 1.344 . S
O80 Co72 2.055 . S
O80 C84 1.253 . S
H81 C77 0.931 . S
H82 C78 0.930 . S
O83 Co72 2.039 . S
O83 C73 1.265 . S
C84 O80 1.253 . S
C84 O85 1.227 . S
O85 C84 1.227 . S
N86 Co72 2.140 . S
N86 C89 1.346 . S
N86 C90 1.345 . S
C87 C88 1.387 . S
C87 C91 1.391 . S
C88 C87 1.387 . S
C88 C89 1.369 . S
C88 H97 0.929 . S
C89 N86 1.346 . S
C89 C88 1.369 . S
C89 H92 0.928 . S
C90 N86 1.345 . S
C90 C91 1.371 . S
C90 H93 0.931 . S
C91 C87 1.391 . S
C91 C90 1.371 . S
C91 H98 0.930 . S
H92 C89 0.928 . S
H93 C90 0.931 . S
H94 C70 0.930 . S
H95 C67 0.930 . S
H96 C76 0.930 . S
H97 C88 0.929 . S
H98 C91 0.930 . S
C99 C100 1.354 . S
C99 N102 1.356 1_556 S
C99 H104 0.938 . S
C100 C99 1.354 . S
C100 N101 1.373 1_556 S
C100 H128 0.930 . S
N101 C100 1.373 1_554 S
N101 C103 1.340 . S
N102 C99 1.356 1_554 S
N102 C103 1.321 . S
N102 Co105 2.135 . S
C103 N101 1.340 . S
C103 N102 1.321 . S
C103 H127 0.930 . S
H104 C99 0.938 . S
Co105 N102 2.135 . S
Co105 N108 2.121 . S
Co105 O113 2.055 . S
Co105 O116 2.039 . S
Co105 N119 2.140 . S
C106 O107 1.227 . S
C106 O116 1.265 . S
O107 C106 1.227 . S
N108 Co105 2.121 . S
N108 C110 1.375 . S
N108 C111 1.313 . S
C109 C110 1.338 . S
C109 N112 1.377 . S
C109 H129 0.930 . S
C110 N108 1.375 . S
C110 C109 1.338 . S
C110 H114 0.931 . S
C111 N108 1.313 . S
C111 N112 1.344 . S
C111 H115 0.930 . S
N112 C109 1.377 . S
N112 C111 1.344 . S
O113 Co105 2.055 . S
O113 C117 1.253 . S
H114 C110 0.931 . S
H115 C111 0.930 . S
O116 Co105 2.039 . S
O116 C106 1.265 . S
C117 O113 1.253 . S
C117 O118 1.227 . S
O118 C117 1.227 . S
N119 Co105 2.140 . S
N119 C122 1.346 . S
N119 C123 1.345 . S
C120 C121 1.387 . S
C120 C124 1.391 . S
C121 C120 1.387 . S
C121 C122 1.369 . S
C121 H130 0.929 . S
C122 N119 1.346 . S
C122 C121 1.369 . S
C122 H125 0.928 . S
C123 N119 1.345 . S
C123 C124 1.371 . S
C123 H126 0.931 . S
C124 C120 1.391 . S
C124 C123 1.371 . S
C124 H131 0.930 . S
H125 C122 0.928 . S
H126 C123 0.931 . S
H127 C103 0.930 . S
H128 C100 0.930 . S
H129 C109 0.930 . S
H130 C121 0.929 . S
H131 C124 0.930 . S
C132 C133 1.351 . S
C132 N135 1.368 . S
C132 H137 0.931 . S
C133 C132 1.351 . S
C133 N134 1.373 . S
C133 H161 0.930 . S
N134 C133 1.373 . S
N134 C136 1.340 . S
N135 C132 1.368 . S
N135 C136 1.321 . S
N135 Co138 2.135 . S
C136 N134 1.340 . S
C136 N135 1.321 . S
C136 H160 0.930 . S
H137 C132 0.931 . S
Co138 N135 2.135 . S
Co138 N141 2.121 . S
Co138 O146 2.055 . S
Co138 O149 2.039 . S
Co138 N152 2.140 . S
C139 O140 1.227 . S
C139 O149 1.265 . S
O140 C139 1.227 . S
N141 Co138 2.121 . S
N141 C143 1.375 . S
N141 C144 1.313 . S
C142 C143 1.338 . S
C142 N145 1.377 . S
C142 H162 0.930 . S
C143 N141 1.375 . S
C143 C142 1.338 . S
C143 H147 0.931 . S
C144 N141 1.313 . S
C144 N145 1.344 . S
C144 H148 0.930 . S
N145 C142 1.377 . S
N145 C144 1.344 . S
O146 Co138 2.055 . S
O146 C150 1.253 . S
H147 C143 0.931 . S
H148 C144 0.930 . S
O149 Co138 2.039 . S
O149 C139 1.265 . S
C150 O146 1.253 . S
C150 O151 1.227 . S
O151 C150 1.227 . S
N152 Co138 2.140 . S
N152 C155 1.346 . S
N152 C156 1.345 . S
C153 C154 1.387 . S
C153 C157 1.391 . S
C154 C153 1.387 . S
C154 C155 1.369 . S
C154 H163 0.929 . S
C155 N152 1.346 . S
C155 C154 1.369 . S
C155 H158 0.928 . S
C156 N152 1.345 . S
C156 C157 1.371 . S
C156 H159 0.931 . S
C157 C153 1.391 . S
C157 C156 1.371 . S
C157 H164 0.930 . S
H158 C155 0.928 . S
H159 C156 0.931 . S
H160 C136 0.930 . S
H161 C133 0.930 . S
H162 C142 0.930 . S
H163 C154 0.929 . S
H164 C157 0.930 . S
C165 C166 1.351 . S
C165 N168 1.368 . S
C165 H170 0.931 . S
C166 C165 1.351 . S
C166 N167 1.373 . S
C166 H194 0.930 . S
N167 C166 1.373 . S
N167 C169 1.340 . S
N168 C165 1.368 . S
N168 C169 1.321 . S
N168 Co171 2.135 . S
C169 N167 1.340 . S
C169 N168 1.321 . S
C169 H193 0.930 . S
H170 C165 0.931 . S
Co171 N168 2.135 . S
Co171 N174 2.121 . S
Co171 O179 2.055 . S
Co171 O182 2.039 . S
Co171 N185 2.140 . S
C172 O173 1.227 . S
C172 O182 1.265 . S
O173 C172 1.227 . S
N174 Co171 2.121 . S
N174 C176 1.375 . S
N174 C177 1.313 . S
C175 C176 1.338 . S
C175 N178 1.377 . S
C175 H195 0.930 . S
C176 N174 1.375 . S
C176 C175 1.338 . S
C176 H180 0.931 . S
C177 N174 1.313 . S
C177 N178 1.344 . S
C177 H181 0.930 . S
N178 C175 1.377 . S
N178 C177 1.344 . S
O179 Co171 2.055 . S
O179 C183 1.253 . S
H180 C176 0.931 . S
H181 C177 0.930 . S
O182 Co171 2.039 . S
O182 C172 1.265 . S
C183 O179 1.253 . S
C183 O184 1.227 . S
O184 C183 1.227 . S
N185 Co171 2.140 . S
N185 C188 1.346 . S
N185 C189 1.345 . S
C186 C187 1.387 . S
C186 C190 1.391 . S
C187 C186 1.387 . S
C187 C188 1.369 . S
C187 H196 0.929 . S
C188 N185 1.346 . S
C188 C187 1.369 . S
C188 H191 0.928 . S
C189 N185 1.345 . S
C189 C190 1.371 . S
C189 H192 0.931 . S
C190 C186 1.391 . S
C190 C189 1.371 . S
C190 H197 0.930 . S
H191 C188 0.928 . S
H192 C189 0.931 . S
H193 C169 0.930 . S
H194 C166 0.930 . S
H195 C175 0.930 . S
H196 C187 0.929 . S
H197 C190 0.930 . S
C198 C199 1.351 . S
C198 N201 1.368 . S
C198 H203 0.931 . S
C199 C198 1.351 . S
C199 N200 1.373 . S
C199 H227 0.930 . S
N200 C199 1.373 . S
N200 C202 1.340 . S
N201 C198 1.368 . S
N201 C202 1.321 . S
N201 Co204 2.135 . S
C202 N200 1.340 . S
C202 N201 1.321 . S
C202 H226 0.930 . S
H203 C198 0.931 . S
Co204 N201 2.135 . S
Co204 N207 2.121 . S
Co204 O212 2.055 . S
Co204 O215 2.039 . S
Co204 N218 2.140 . S
C205 O206 1.227 . S
C205 O215 1.265 . S
O206 C205 1.227 . S
N207 Co204 2.121 . S
N207 C209 1.375 . S
N207 C210 1.313 . S
C208 C209 1.338 . S
C208 N211 1.377 . S
C208 H228 0.930 . S
C209 N207 1.375 . S
C209 C208 1.338 . S
C209 H213 0.931 . S
C210 N207 1.313 . S
C210 N211 1.344 . S
C210 H214 0.930 . S
N211 C208 1.377 . S
N211 C210 1.344 . S
O212 Co204 2.055 . S
O212 C216 1.253 . S
H213 C209 0.931 . S
H214 C210 0.930 . S
O215 Co204 2.039 . S
O215 C205 1.265 . S
C216 O212 1.253 . S
C216 O217 1.227 . S
O217 C216 1.227 . S
N218 Co204 2.140 . S
N218 C221 1.346 . S
N218 C222 1.345 . S
C219 C220 1.387 . S
C219 C223 1.391 . S
C220 C219 1.387 . S
C220 C221 1.369 . S
C220 H229 0.929 . S
C221 N218 1.346 . S
C221 C220 1.369 . S
C221 H224 0.928 . S
C222 N218 1.345 . S
C222 C223 1.371 . S
C222 H225 0.931 . S
C223 C219 1.391 . S
C223 C222 1.371 . S
C223 H230 0.930 . S
H224 C221 0.928 . S
H225 C222 0.931 . S
H226 C202 0.930 . S
H227 C199 0.930 . S
H228 C208 0.930 . S
H229 C220 0.929 . S
H230 C223 0.930 . S
C231 C232 1.354 . S
C231 N234 1.356 1_554 S
C231 H236 0.938 . S
C232 C231 1.354 . S
C232 N233 1.373 1_554 S
C232 H260 0.930 . S
N233 C232 1.373 1_556 S
N233 C235 1.340 . S
N234 C231 1.356 1_556 S
N234 C235 1.321 . S
N234 Co237 2.135 . S
C235 N233 1.340 . S
C235 N234 1.321 . S
C235 H259 0.930 . S
H236 C231 0.938 . S
Co237 N234 2.135 . S
Co237 N240 2.121 . S
Co237 O245 2.055 . S
Co237 O248 2.039 . S
Co237 N251 2.140 . S
C238 O239 1.227 . S
C238 O248 1.265 . S
O239 C238 1.227 . S
N240 Co237 2.121 . S
N240 C242 1.375 . S
N240 C243 1.313 . S
C241 C242 1.338 . S
C241 N244 1.377 . S
C241 H261 0.930 . S
C242 N240 1.375 . S
C242 C241 1.338 . S
C242 H246 0.931 . S
C243 N240 1.313 . S
C243 N244 1.344 . S
C243 H247 0.930 . S
N244 C241 1.377 . S
N244 C243 1.344 . S
O245 Co237 2.055 . S
O245 C249 1.253 . S
H246 C242 0.931 . S
H247 C243 0.930 . S
O248 Co237 2.039 . S
O248 C238 1.265 . S
C249 O245 1.253 . S
C249 O250 1.227 . S
O250 C249 1.227 . S
N251 Co237 2.140 . S
N251 C254 1.346 . S
N251 C255 1.345 . S
C252 C253 1.387 . S
C252 C256 1.391 . S
C253 C252 1.387 . S
C253 C254 1.369 . S
C253 H262 0.929 . S
C254 N251 1.346 . S
C254 C253 1.369 . S
C254 H257 0.928 . S
C255 N251 1.345 . S
C255 C256 1.371 . S
C255 H258 0.931 . S
C256 C252 1.391 . S
C256 C255 1.371 . S
C256 H263 0.930 . S
H257 C254 0.928 . S
H258 C255 0.931 . S
H259 C235 0.930 . S
H260 C232 0.930 . S
H261 C241 0.930 . S
H262 C253 0.929 . S
H263 C256 0.930 . S
C264 C265 1.351 . S
C264 N267 1.368 . S
C264 H269 0.931 . S
C265 C264 1.351 . S
C265 N266 1.373 . S
C265 H293 0.930 . S
N266 C265 1.373 . S
N266 C268 1.340 . S
N267 C264 1.368 . S
N267 C268 1.321 . S
N267 Co270 2.135 . S
C268 N266 1.340 . S
C268 N267 1.321 . S
C268 H292 0.930 . S
H269 C264 0.931 . S
Co270 N267 2.135 . S
Co270 N273 2.121 . S
Co270 O278 2.055 . S
Co270 O281 2.039 . S
Co270 N284 2.140 . S
C271 O272 1.227 . S
C271 O281 1.265 . S
O272 C271 1.227 . S
N273 Co270 2.121 . S
N273 C275 1.375 . S
N273 C276 1.313 . S
C274 C275 1.338 . S
C274 N277 1.377 . S
C274 H294 0.930 . S
C275 N273 1.375 . S
C275 C274 1.338 . S
C275 H279 0.931 . S
C276 N273 1.313 . S
C276 N277 1.344 . S
C276 H280 0.930 . S
N277 C274 1.377 . S
N277 C276 1.344 . S
O278 Co270 2.055 . S
O278 C282 1.253 . S
H279 C275 0.931 . S
H280 C276 0.930 . S
O281 Co270 2.039 . S
O281 C271 1.265 . S
C282 O278 1.253 . S
C282 O283 1.227 . S
O283 C282 1.227 . S
N284 Co270 2.140 . S
N284 C287 1.346 . S
N284 C288 1.345 . S
C285 C286 1.387 . S
C285 C289 1.391 . S
C286 C285 1.387 . S
C286 C287 1.369 . S
C286 H295 0.929 . S
C287 N284 1.346 . S
C287 C286 1.369 . S
C287 H290 0.928 . S
C288 N284 1.345 . S
C288 C289 1.371 . S
C288 H291 0.931 . S
C289 C285 1.391 . S
C289 C288 1.371 . S
C289 H296 0.930 . S
H290 C287 0.928 . S
H291 C288 0.931 . S
H292 C268 0.930 . S
H293 C265 0.930 . S
H294 C274 0.930 . S
H295 C286 0.929 . S
H296 C289 0.930 . S
C297 C298 1.351 . S
C297 N300 1.368 . S
C297 H302 0.931 . S
C298 C297 1.351 . S
C298 N299 1.373 . S
C298 H326 0.930 . S
N299 C298 1.373 . S
N299 C301 1.340 . S
N300 C297 1.368 . S
N300 C301 1.321 . S
N300 Co303 2.135 . S
C301 N299 1.340 . S
C301 N300 1.321 . S
C301 H325 0.930 . S
H302 C297 0.931 . S
Co303 N300 2.135 . S
Co303 N306 2.121 . S
Co303 O311 2.055 . S
Co303 O314 2.039 . S
Co303 N317 2.140 . S
C304 O305 1.227 . S
C304 O314 1.265 . S
O305 C304 1.227 . S
N306 Co303 2.121 . S
N306 C308 1.375 . S
N306 C309 1.313 . S
C307 C308 1.338 . S
C307 N310 1.377 . S
C307 H327 0.930 . S
C308 N306 1.375 . S
C308 C307 1.338 . S
C308 H312 0.931 . S
C309 N306 1.313 . S
C309 N310 1.344 . S
C309 H313 0.930 . S
N310 C307 1.377 . S
N310 C309 1.344 . S
O311 Co303 2.055 . S
O311 C315 1.253 . S
H312 C308 0.931 . S
H313 C309 0.930 . S
O314 Co303 2.039 . S
O314 C304 1.265 . S
C315 O311 1.253 . S
C315 O316 1.227 . S
O316 C315 1.227 . S
N317 Co303 2.140 . S
N317 C320 1.346 . S
N317 C321 1.345 . S
C318 C319 1.387 . S
C318 C322 1.391 . S
C319 C318 1.387 . S
C319 C320 1.369 . S
C319 H328 0.929 . S
C320 N317 1.346 . S
C320 C319 1.369 . S
C320 H323 0.928 . S
C321 N317 1.345 . S
C321 C322 1.371 . S
C321 H324 0.931 . S
C322 C318 1.391 . S
C322 C321 1.371 . S
C322 H329 0.930 . S
H323 C320 0.928 . S
H324 C321 0.931 . S
H325 C301 0.930 . S
H326 C298 0.930 . S
H327 C307 0.930 . S
H328 C319 0.929 . S
H329 C322 0.930 . S
C330 C331 1.351 . S
C330 N333 1.368 . S
C330 H335 0.931 . S
C331 C330 1.351 . S
C331 N332 1.373 . S
C331 H359 0.930 . S
N332 C331 1.373 . S
N332 C334 1.340 . S
N333 C330 1.368 . S
N333 C334 1.321 . S
N333 Co336 2.135 . S
C334 N332 1.340 . S
C334 N333 1.321 . S
C334 H358 0.930 . S
H335 C330 0.931 . S
Co336 N333 2.135 . S
Co336 N339 2.121 . S
Co336 O344 2.055 . S
Co336 O347 2.039 . S
Co336 N350 2.140 . S
C337 O338 1.227 . S
C337 O347 1.265 . S
O338 C337 1.227 . S
N339 Co336 2.121 . S
N339 C341 1.375 . S
N339 C342 1.313 . S
C340 C341 1.338 . S
C340 N343 1.377 . S
C340 H360 0.930 . S
C341 N339 1.375 . S
C341 C340 1.338 . S
C341 H345 0.931 . S
C342 N339 1.313 . S
C342 N343 1.344 . S
C342 H346 0.930 . S
N343 C340 1.377 . S
N343 C342 1.344 . S
O344 Co336 2.055 . S
O344 C348 1.253 . S
H345 C341 0.931 . S
H346 C342 0.930 . S
O347 Co336 2.039 . S
O347 C337 1.265 . S
C348 O344 1.253 . S
C348 O349 1.227 . S
O349 C348 1.227 . S
N350 Co336 2.140 . S
N350 C353 1.346 . S
N350 C354 1.345 . S
C351 C352 1.387 . S
C351 C355 1.391 . S
C352 C351 1.387 . S
C352 C353 1.369 . S
C352 H361 0.929 . S
C353 N350 1.346 . S
C353 C352 1.369 . S
C353 H356 0.928 . S
C354 N350 1.345 . S
C354 C355 1.371 . S
C354 H357 0.931 . S
C355 C351 1.391 . S
C355 C354 1.371 . S
C355 H362 0.930 . S
H356 C353 0.928 . S
H357 C354 0.931 . S
H358 C334 0.930 . S
H359 C331 0.930 . S
H360 C340 0.930 . S
H361 C352 0.929 . S
H362 C355 0.930 . S
C363 C364 1.354 . S
C363 N366 1.356 1_554 S
C363 H368 0.938 . S
C364 C363 1.354 . S
C364 N365 1.373 1_554 S
C364 H392 0.930 . S
N365 C364 1.373 1_556 S
N365 C367 1.340 . S
N366 C363 1.356 1_556 S
N366 C367 1.321 . S
N366 Co369 2.135 . S
C367 N365 1.340 . S
C367 N366 1.321 . S
C367 H391 0.930 . S
H368 C363 0.938 . S
Co369 N366 2.135 . S
Co369 N372 2.121 . S
Co369 O377 2.055 . S
Co369 O380 2.039 . S
Co369 N383 2.140 . S
C370 O371 1.227 . S
C370 O380 1.265 . S
O371 C370 1.227 . S
N372 Co369 2.121 . S
N372 C374 1.375 . S
N372 C375 1.313 . S
C373 C374 1.338 . S
C373 N376 1.377 . S
C373 H393 0.930 . S
C374 N372 1.375 . S
C374 C373 1.338 . S
C374 H378 0.931 . S
C375 N372 1.313 . S
C375 N376 1.344 . S
C375 H379 0.930 . S
N376 C373 1.377 . S
N376 C375 1.344 . S
O377 Co369 2.055 . S
O377 C381 1.253 . S
H378 C374 0.931 . S
H379 C375 0.930 . S
O380 Co369 2.039 . S
O380 C370 1.265 . S
C381 O377 1.253 . S
C381 O382 1.227 . S
O382 C381 1.227 . S
N383 Co369 2.140 . S
N383 C386 1.346 . S
N383 C387 1.345 . S
C384 C385 1.387 . S
C384 C388 1.391 . S
C385 C384 1.387 . S
C385 C386 1.369 . S
C385 H394 0.929 . S
C386 N383 1.346 . S
C386 C385 1.369 . S
C386 H389 0.928 . S
C387 N383 1.345 . S
C387 C388 1.371 . S
C387 H390 0.931 . S
C388 C384 1.391 . S
C388 C387 1.371 . S
C388 H395 0.930 . S
H389 C386 0.928 . S
H390 C387 0.931 . S
H391 C367 0.930 . S
H392 C364 0.930 . S
H393 C373 0.930 . S
H394 C385 0.929 . S
H395 C388 0.930 . S
C396 C397 1.351 . S
C396 N399 1.368 . S
C396 H401 0.931 . S
C397 C396 1.351 . S
C397 N398 1.373 . S
C397 H425 0.930 . S
N398 C397 1.373 . S
N398 C400 1.340 . S
N399 C396 1.368 . S
N399 C400 1.321 . S
N399 Co402 2.135 . S
C400 N398 1.340 . S
C400 N399 1.321 . S
C400 H424 0.930 . S
H401 C396 0.931 . S
Co402 N399 2.135 . S
Co402 N405 2.121 . S
Co402 O410 2.055 . S
Co402 O413 2.039 . S
Co402 N416 2.140 . S
C403 O404 1.227 . S
C403 O413 1.265 . S
O404 C403 1.227 . S
N405 Co402 2.121 . S
N405 C407 1.375 . S
N405 C408 1.313 . S
C406 C407 1.338 . S
C406 N409 1.377 . S
C406 H426 0.930 . S
C407 N405 1.375 . S
C407 C406 1.338 . S
C407 H411 0.931 . S
C408 N405 1.313 . S
C408 N409 1.344 . S
C408 H412 0.930 . S
N409 C406 1.377 . S
N409 C408 1.344 . S
O410 Co402 2.055 . S
O410 C414 1.253 . S
H411 C407 0.931 . S
H412 C408 0.930 . S
O413 Co402 2.039 . S
O413 C403 1.265 . S
C414 O410 1.253 . S
C414 O415 1.227 . S
O415 C414 1.227 . S
N416 Co402 2.140 . S
N416 C419 1.346 . S
N416 C420 1.345 . S
C417 C418 1.387 . S
C417 C421 1.391 . S
C418 C417 1.387 . S
C418 C419 1.369 . S
C418 H427 0.929 . S
C419 N416 1.346 . S
C419 C418 1.369 . S
C419 H422 0.928 . S
C420 N416 1.345 . S
C420 C421 1.371 . S
C420 H423 0.931 . S
C421 C417 1.391 . S
C421 C420 1.371 . S
C421 H428 0.930 . S
H422 C419 0.928 . S
H423 C420 0.931 . S
H424 C400 0.930 . S
H425 C397 0.930 . S
H426 C406 0.930 . S
H427 C418 0.929 . S
H428 C421 0.930 . S
C429 C430 1.351 . S
C429 N432 1.368 . S
C429 H434 0.931 . S
C430 C429 1.351 . S
C430 N431 1.373 . S
C430 H458 0.930 . S
N431 C430 1.373 . S
N431 C433 1.340 . S
N432 C429 1.368 . S
N432 C433 1.321 . S
N432 Co435 2.135 . S
C433 N431 1.340 . S
C433 N432 1.321 . S
C433 H457 0.930 . S
H434 C429 0.931 . S
Co435 N432 2.135 . S
Co435 N438 2.121 . S
Co435 O443 2.055 . S
Co435 O446 2.039 . S
Co435 N449 2.140 . S
C436 O437 1.227 . S
C436 O446 1.265 . S
O437 C436 1.227 . S
N438 Co435 2.121 . S
N438 C440 1.375 . S
N438 C441 1.313 . S
C439 C440 1.338 . S
C439 N442 1.377 . S
C439 H459 0.930 . S
C440 N438 1.375 . S
C440 C439 1.338 . S
C440 H444 0.931 . S
C441 N438 1.313 . S
C441 N442 1.344 . S
C441 H445 0.930 . S
N442 C439 1.377 . S
N442 C441 1.344 . S
O443 Co435 2.055 . S
O443 C447 1.253 . S
H444 C440 0.931 . S
H445 C441 0.930 . S
O446 Co435 2.039 . S
O446 C436 1.265 . S
C447 O443 1.253 . S
C447 O448 1.227 . S
O448 C447 1.227 . S
N449 Co435 2.140 . S
N449 C452 1.346 . S
N449 C453 1.345 . S
C450 C451 1.387 . S
C450 C454 1.391 . S
C451 C450 1.387 . S
C451 C452 1.369 . S
C451 H460 0.929 . S
C452 N449 1.346 . S
C452 C451 1.369 . S
C452 H455 0.928 . S
C453 N449 1.345 . S
C453 C454 1.371 . S
C453 H456 0.931 . S
C454 C450 1.391 . S
C454 C453 1.371 . S
C454 H461 0.930 . S
H455 C452 0.928 . S
H456 C453 0.931 . S
H457 C433 0.930 . S
H458 C430 0.930 . S
H459 C439 0.930 . S
H460 C451 0.929 . S
H461 C454 0.930 . S
C462 C463 1.351 . S
C462 N465 1.368 . S
C462 H467 0.931 . S
C463 C462 1.351 . S
C463 N464 1.373 . S
C463 H491 0.930 . S
N464 C463 1.373 . S
N464 C466 1.340 . S
N465 C462 1.368 . S
N465 C466 1.321 . S
N465 Co468 2.135 . S
C466 N464 1.340 . S
C466 N465 1.321 . S
C466 H490 0.930 . S
H467 C462 0.931 . S
Co468 N465 2.135 . S
Co468 N471 2.121 . S
Co468 O476 2.055 . S
Co468 O479 2.039 . S
Co468 N482 2.140 . S
C469 O470 1.227 . S
C469 O479 1.265 . S
O470 C469 1.227 . S
N471 Co468 2.121 . S
N471 C473 1.375 . S
N471 C474 1.313 . S
C472 C473 1.338 . S
C472 N475 1.377 . S
C472 H492 0.930 . S
C473 N471 1.375 . S
C473 C472 1.338 . S
C473 H477 0.931 . S
C474 N471 1.313 . S
C474 N475 1.344 . S
C474 H478 0.930 . S
N475 C472 1.377 . S
N475 C474 1.344 . S
O476 Co468 2.055 . S
O476 C480 1.253 . S
H477 C473 0.931 . S
H478 C474 0.930 . S
O479 Co468 2.039 . S
O479 C469 1.265 . S
C480 O476 1.253 . S
C480 O481 1.227 . S
O481 C480 1.227 . S
N482 Co468 2.140 . S
N482 C485 1.346 . S
N482 C486 1.345 . S
C483 C484 1.387 . S
C483 C487 1.391 . S
C484 C483 1.387 . S
C484 C485 1.369 . S
C484 H493 0.929 . S
C485 N482 1.346 . S
C485 C484 1.369 . S
C485 H488 0.928 . S
C486 N482 1.345 . S
C486 C487 1.371 . S
C486 H489 0.931 . S
C487 C483 1.391 . S
C487 C486 1.371 . S
C487 H494 0.930 . S
H488 C485 0.928 . S
H489 C486 0.931 . S
H490 C466 0.930 . S
H491 C463 0.930 . S
H492 C472 0.930 . S
H493 C484 0.929 . S
H494 C487 0.930 . S
C495 C496 1.354 . S
C495 N498 1.356 1_556 S
C495 H500 0.938 . S
C496 C495 1.354 . S
C496 N497 1.373 1_556 S
C496 H524 0.930 . S
N497 C496 1.373 1_554 S
N497 C499 1.340 . S
N498 C495 1.356 1_554 S
N498 C499 1.321 . S
N498 Co501 2.135 . S
C499 N497 1.340 . S
C499 N498 1.321 . S
C499 H523 0.930 . S
H500 C495 0.938 . S
Co501 N498 2.135 . S
Co501 N504 2.121 . S
Co501 O509 2.055 . S
Co501 O512 2.039 . S
Co501 N515 2.140 . S
C502 O503 1.227 . S
C502 O512 1.265 . S
O503 C502 1.227 . S
N504 Co501 2.121 . S
N504 C506 1.375 . S
N504 C507 1.313 . S
C505 C506 1.338 . S
C505 N508 1.377 . S
C505 H525 0.930 . S
C506 N504 1.375 . S
C506 C505 1.338 . S
C506 H510 0.931 . S
C507 N504 1.313 . S
C507 N508 1.344 . S
C507 H511 0.930 . S
N508 C505 1.377 . S
N508 C507 1.344 . S
O509 Co501 2.055 . S
O509 C513 1.253 . S
H510 C506 0.931 . S
H511 C507 0.930 . S
O512 Co501 2.039 . S
O512 C502 1.265 . S
C513 O509 1.253 . S
C513 O514 1.227 . S
O514 C513 1.227 . S
N515 Co501 2.140 . S
N515 C518 1.346 . S
N515 C519 1.345 . S
C516 C517 1.387 . S
C516 C520 1.391 . S
C517 C516 1.387 . S
C517 C518 1.369 . S
C517 H526 0.929 . S
C518 N515 1.346 . S
C518 C517 1.369 . S
C518 H521 0.928 . S
C519 N515 1.345 . S
C519 C520 1.371 . S
C519 H522 0.931 . S
C520 C516 1.391 . S
C520 C519 1.371 . S
C520 H527 0.930 . S
H521 C518 0.928 . S
H522 C519 0.931 . S
H523 C499 0.930 . S
H524 C496 0.930 . S
H525 C505 0.930 . S
H526 C517 0.929 . S
H527 C520 0.930 . S
C528 C529 1.351 . S
C528 N531 1.368 . S
C528 H533 0.931 . S
C529 C528 1.351 . S
C529 N530 1.373 . S
C529 H557 0.930 . S
N530 C529 1.373 . S
N530 C532 1.340 . S
N531 C528 1.368 . S
N531 C532 1.321 . S
N531 Co534 2.135 . S
C532 N530 1.340 . S
C532 N531 1.321 . S
C532 H556 0.930 . S
H533 C528 0.931 . S
Co534 N531 2.135 . S
Co534 N537 2.121 . S
Co534 O542 2.055 . S
Co534 O545 2.039 . S
Co534 N548 2.140 . S
C535 O536 1.227 . S
C535 O545 1.265 . S
O536 C535 1.227 . S
N537 Co534 2.121 . S
N537 C539 1.375 . S
N537 C540 1.313 . S
C538 C539 1.338 . S
C538 N541 1.377 . S
C538 H558 0.930 . S
C539 N537 1.375 . S
C539 C538 1.338 . S
C539 H543 0.931 . S
C540 N537 1.313 . S
C540 N541 1.344 . S
C540 H544 0.930 . S
N541 C538 1.377 . S
N541 C540 1.344 . S
O542 Co534 2.055 . S
O542 C546 1.253 . S
H543 C539 0.931 . S
H544 C540 0.930 . S
O545 Co534 2.039 . S
O545 C535 1.265 . S
C546 O542 1.253 . S
C546 O547 1.227 . S
O547 C546 1.227 . S
N548 Co534 2.140 . S
N548 C551 1.346 . S
N548 C552 1.345 . S
C549 C550 1.387 . S
C549 C553 1.391 . S
C550 C549 1.387 . S
C550 C551 1.369 . S
C550 H559 0.929 . S
C551 N548 1.346 . S
C551 C550 1.369 . S
C551 H554 0.928 . S
C552 N548 1.345 . S
C552 C553 1.371 . S
C552 H555 0.931 . S
C553 C549 1.391 . S
C553 C552 1.371 . S
C553 H560 0.930 . S
H554 C551 0.928 . S
H555 C552 0.931 . S
H556 C532 0.930 . S
H557 C529 0.930 . S
H558 C538 0.930 . S
H559 C550 0.929 . S
H560 C553 0.930 . S
C561 C562 1.354 . S
C561 N564 1.356 1_556 S
C561 H566 0.938 . S
C562 C561 1.354 . S
C562 N563 1.373 1_556 S
C562 H590 0.930 . S
N563 C562 1.373 1_554 S
N563 C565 1.340 . S
N564 C561 1.356 1_554 S
N564 C565 1.321 . S
N564 Co567 2.135 . S
C565 N563 1.340 . S
C565 N564 1.321 . S
C565 H589 0.930 . S
H566 C561 0.938 . S
Co567 N564 2.135 . S
Co567 N570 2.121 . S
Co567 O575 2.055 . S
Co567 O578 2.039 . S
Co567 N581 2.140 . S
C568 O569 1.227 . S
C568 O578 1.265 . S
O569 C568 1.227 . S
N570 Co567 2.121 . S
N570 C572 1.375 . S
N570 C573 1.313 . S
C571 C572 1.338 . S
C571 N574 1.377 . S
C571 H591 0.930 . S
C572 N570 1.375 . S
C572 C571 1.338 . S
C572 H576 0.931 . S
C573 N570 1.313 . S
C573 N574 1.344 . S
C573 H577 0.930 . S
N574 C571 1.377 . S
N574 C573 1.344 . S
O575 Co567 2.055 . S
O575 C579 1.253 . S
H576 C572 0.931 . S
H577 C573 0.930 . S
O578 Co567 2.039 . S
O578 C568 1.265 . S
C579 O575 1.253 . S
C579 O580 1.227 . S
O580 C579 1.227 . S
N581 Co567 2.140 . S
N581 C584 1.346 . S
N581 C585 1.345 . S
C582 C583 1.387 . S
C582 C586 1.391 . S
C583 C582 1.387 . S
C583 C584 1.369 . S
C583 H592 0.929 . S
C584 N581 1.346 . S
C584 C583 1.369 . S
C584 H587 0.928 . S
C585 N581 1.345 . S
C585 C586 1.371 . S
C585 H588 0.931 . S
C586 C582 1.391 . S
C586 C585 1.371 . S
C586 H593 0.930 . S
H587 C584 0.928 . S
H588 C585 0.931 . S
H589 C565 0.930 . S
H590 C562 0.930 . S
H591 C571 0.930 . S
H592 C583 0.929 . S
H593 C586 0.930 . S
C594 C595 1.351 . S
C594 N597 1.368 . S
C594 H599 0.931 . S
C595 C594 1.351 . S
C595 N596 1.373 . S
C595 H623 0.930 . S
N596 C595 1.373 . S
N596 C598 1.340 . S
N597 C594 1.368 . S
N597 C598 1.321 . S
N597 Co600 2.135 . S
C598 N596 1.340 . S
C598 N597 1.321 . S
C598 H622 0.930 . S
H599 C594 0.931 . S
Co600 N597 2.135 . S
Co600 N603 2.121 . S
Co600 O608 2.055 . S
Co600 O611 2.039 . S
Co600 N614 2.140 . S
C601 O602 1.227 . S
C601 O611 1.265 . S
O602 C601 1.227 . S
N603 Co600 2.121 . S
N603 C605 1.375 . S
N603 C606 1.313 . S
C604 C605 1.338 . S
C604 N607 1.377 . S
C604 H624 0.930 . S
C605 N603 1.375 . S
C605 C604 1.338 . S
C605 H609 0.931 . S
C606 N603 1.313 . S
C606 N607 1.344 . S
C606 H610 0.930 . S
N607 C604 1.377 . S
N607 C606 1.344 . S
O608 Co600 2.055 . S
O608 C612 1.253 . S
H609 C605 0.931 . S
H610 C606 0.930 . S
O611 Co600 2.039 . S
O611 C601 1.265 . S
C612 O608 1.253 . S
C612 O613 1.227 . S
O613 C612 1.227 . S
N614 Co600 2.140 . S
N614 C617 1.346 . S
N614 C618 1.345 . S
C615 C616 1.387 . S
C615 C619 1.391 . S
C616 C615 1.387 . S
C616 C617 1.369 . S
C616 H625 0.929 . S
C617 N614 1.346 . S
C617 C616 1.369 . S
C617 H620 0.928 . S
C618 N614 1.345 . S
C618 C619 1.371 . S
C618 H621 0.931 . S
C619 C615 1.391 . S
C619 C618 1.371 . S
C619 H626 0.930 . S
H620 C617 0.928 . S
H621 C618 0.931 . S
H622 C598 0.930 . S
H623 C595 0.930 . S
H624 C604 0.930 . S
H625 C616 0.929 . S
H626 C619 0.930 . S
C627 C628 1.351 . S
C627 N630 1.368 . S
C627 H632 0.931 . S
C628 C627 1.351 . S
C628 N629 1.373 . S
C628 H656 0.930 . S
N629 C628 1.373 . S
N629 C631 1.340 . S
N630 C627 1.368 . S
N630 C631 1.321 . S
N630 Co633 2.135 . S
C631 N629 1.340 . S
C631 N630 1.321 . S
C631 H655 0.930 . S
H632 C627 0.931 . S
Co633 N630 2.135 . S
Co633 N636 2.121 . S
Co633 O641 2.055 . S
Co633 O644 2.039 . S
Co633 N647 2.140 . S
C634 O635 1.227 . S
C634 O644 1.265 . S
O635 C634 1.227 . S
N636 Co633 2.121 . S
N636 C638 1.375 . S
N636 C639 1.313 . S
C637 C638 1.338 . S
C637 N640 1.377 . S
C637 H657 0.930 . S
C638 N636 1.375 . S
C638 C637 1.338 . S
C638 H642 0.931 . S
C639 N636 1.313 . S
C639 N640 1.344 . S
C639 H643 0.930 . S
N640 C637 1.377 . S
N640 C639 1.344 . S
O641 Co633 2.055 . S
O641 C645 1.253 . S
H642 C638 0.931 . S
H643 C639 0.930 . S
O644 Co633 2.039 . S
O644 C634 1.265 . S
C645 O641 1.253 . S
C645 O646 1.227 . S
O646 C645 1.227 . S
N647 Co633 2.140 . S
N647 C650 1.346 . S
N647 C651 1.345 . S
C648 C649 1.387 . S
C648 C652 1.391 . S
C649 C648 1.387 . S
C649 C650 1.369 . S
C649 H658 0.929 . S
C650 N647 1.346 . S
C650 C649 1.369 . S
C650 H653 0.928 . S
C651 N647 1.345 . S
C651 C652 1.371 . S
C651 H654 0.931 . S
C652 C648 1.391 . S
C652 C651 1.371 . S
C652 H659 0.930 . S
H653 C650 0.928 . S
H654 C651 0.931 . S
H655 C631 0.930 . S
H656 C628 0.930 . S
H657 C637 0.930 . S
H658 C649 0.929 . S
H659 C652 0.930 . S
C660 C661 1.351 . S
C660 N663 1.368 . S
C660 H665 0.931 . S
C661 C660 1.351 . S
C661 N662 1.373 . S
C661 H689 0.930 . S
N662 C661 1.373 . S
N662 C664 1.340 . S
N663 C660 1.368 . S
N663 C664 1.321 . S
N663 Co666 2.135 . S
C664 N662 1.340 . S
C664 N663 1.321 . S
C664 H688 0.930 . S
H665 C660 0.931 . S
Co666 N663 2.135 . S
Co666 N669 2.121 . S
Co666 O674 2.055 . S
Co666 O677 2.039 . S
Co666 N680 2.140 . S
C667 O668 1.227 . S
C667 O677 1.265 . S
O668 C667 1.227 . S
N669 Co666 2.121 . S
N669 C671 1.375 . S
N669 C672 1.313 . S
C670 C671 1.338 . S
C670 N673 1.377 . S
C670 H690 0.930 . S
C671 N669 1.375 . S
C671 C670 1.338 . S
C671 H675 0.931 . S
C672 N669 1.313 . S
C672 N673 1.344 . S
C672 H676 0.930 . S
N673 C670 1.377 . S
N673 C672 1.344 . S
O674 Co666 2.055 . S
O674 C678 1.253 . S
H675 C671 0.931 . S
H676 C672 0.930 . S
O677 Co666 2.039 . S
O677 C667 1.265 . S
C678 O674 1.253 . S
C678 O679 1.227 . S
O679 C678 1.227 . S
N680 Co666 2.140 . S
N680 C683 1.346 . S
N680 C684 1.345 . S
C681 C682 1.387 . S
C681 C685 1.391 . S
C682 C681 1.387 . S
C682 C683 1.369 . S
C682 H691 0.929 . S
C683 N680 1.346 . S
C683 C682 1.369 . S
C683 H686 0.928 . S
C684 N680 1.345 . S
C684 C685 1.371 . S
C684 H687 0.931 . S
C685 C681 1.391 . S
C685 C684 1.371 . S
C685 H692 0.930 . S
H686 C683 0.928 . S
H687 C684 0.931 . S
H688 C664 0.930 . S
H689 C661 0.930 . S
H690 C670 0.930 . S
H691 C682 0.929 . S
H692 C685 0.930 . S
C693 C694 1.354 . S
C693 N696 1.356 1_554 S
C693 H698 0.938 . S
C694 C693 1.354 . S
C694 N695 1.373 1_554 S
C694 H722 0.930 . S
N695 C694 1.373 1_556 S
N695 C697 1.340 . S
N696 C693 1.356 1_556 S
N696 C697 1.321 . S
N696 Co699 2.135 . S
C697 N695 1.340 . S
C697 N696 1.321 . S
C697 H721 0.930 . S
H698 C693 0.938 . S
Co699 N696 2.135 . S
Co699 N702 2.121 . S
Co699 O707 2.055 . S
Co699 O710 2.039 . S
Co699 N713 2.140 . S
C700 O701 1.227 . S
C700 O710 1.265 . S
O701 C700 1.227 . S
N702 Co699 2.121 . S
N702 C704 1.375 . S
N702 C705 1.313 . S
C703 C704 1.338 . S
C703 N706 1.377 . S
C703 H723 0.930 . S
C704 N702 1.375 . S
C704 C703 1.338 . S
C704 H708 0.931 . S
C705 N702 1.313 . S
C705 N706 1.344 . S
C705 H709 0.930 . S
N706 C703 1.377 . S
N706 C705 1.344 . S
O707 Co699 2.055 . S
O707 C711 1.253 . S
H708 C704 0.931 . S
H709 C705 0.930 . S
O710 Co699 2.039 . S
O710 C700 1.265 . S
C711 O707 1.253 . S
C711 O712 1.227 . S
O712 C711 1.227 . S
N713 Co699 2.140 . S
N713 C716 1.346 . S
N713 C717 1.345 . S
C714 C715 1.387 . S
C714 C718 1.391 . S
C715 C714 1.387 . S
C715 C716 1.369 . S
C715 H724 0.929 . S
C716 N713 1.346 . S
C716 C715 1.369 . S
C716 H719 0.928 . S
C717 N713 1.345 . S
C717 C718 1.371 . S
C717 H720 0.931 . S
C718 C714 1.391 . S
C718 C717 1.371 . S
C718 H725 0.930 . S
H719 C716 0.928 . S
H720 C717 0.931 . S
H721 C697 0.930 . S
H722 C694 0.930 . S
H723 C703 0.930 . S
H724 C715 0.929 . S
H725 C718 0.930 . S
C726 C727 1.351 . S
C726 N729 1.368 . S
C726 H731 0.931 . S
C727 C726 1.351 . S
C727 N728 1.373 . S
C727 H755 0.930 . S
N728 C727 1.373 . S
N728 C730 1.340 . S
N729 C726 1.368 . S
N729 C730 1.321 . S
N729 Co732 2.135 . S
C730 N728 1.340 . S
C730 N729 1.321 . S
C730 H754 0.930 . S
H731 C726 0.931 . S
Co732 N729 2.135 . S
Co732 N735 2.121 . S
Co732 O740 2.055 . S
Co732 O743 2.039 . S
Co732 N746 2.140 . S
C733 O734 1.227 . S
C733 O743 1.265 . S
O734 C733 1.227 . S
N735 Co732 2.121 . S
N735 C737 1.375 . S
N735 C738 1.313 . S
C736 C737 1.338 . S
C736 N739 1.377 . S
C736 H756 0.930 . S
C737 N735 1.375 . S
C737 C736 1.338 . S
C737 H741 0.931 . S
C738 N735 1.313 . S
C738 N739 1.344 . S
C738 H742 0.930 . S
N739 C736 1.377 . S
N739 C738 1.344 . S
O740 Co732 2.055 . S
O740 C744 1.253 . S
H741 C737 0.931 . S
H742 C738 0.930 . S
O743 Co732 2.039 . S
O743 C733 1.265 . S
C744 O740 1.253 . S
C744 O745 1.227 . S
O745 C744 1.227 . S
N746 Co732 2.140 . S
N746 C749 1.346 . S
N746 C750 1.345 . S
C747 C748 1.387 . S
C747 C751 1.391 . S
C748 C747 1.387 . S
C748 C749 1.369 . S
C748 H757 0.929 . S
C749 N746 1.346 . S
C749 C748 1.369 . S
C749 H752 0.928 . S
C750 N746 1.345 . S
C750 C751 1.371 . S
C750 H753 0.931 . S
C751 C747 1.391 . S
C751 C750 1.371 . S
C751 H758 0.930 . S
H752 C749 0.928 . S
H753 C750 0.931 . S
H754 C730 0.930 . S
H755 C727 0.930 . S
H756 C736 0.930 . S
H757 C748 0.929 . S
H758 C751 0.930 . S
C759 C760 1.351 . S
C759 N762 1.368 . S
C759 H764 0.931 . S
C760 C759 1.351 . S
C760 N761 1.373 . S
C760 H788 0.930 . S
N761 C760 1.373 . S
N761 C763 1.340 . S
N762 C759 1.368 . S
N762 C763 1.321 . S
N762 Co765 2.135 . S
C763 N761 1.340 . S
C763 N762 1.321 . S
C763 H787 0.930 . S
H764 C759 0.931 . S
Co765 N762 2.135 . S
Co765 N768 2.121 . S
Co765 O773 2.055 . S
Co765 O776 2.039 . S
Co765 N779 2.140 . S
C766 O767 1.227 . S
C766 O776 1.265 . S
O767 C766 1.227 . S
N768 Co765 2.121 . S
N768 C770 1.375 . S
N768 C771 1.313 . S
C769 C770 1.338 . S
C769 N772 1.377 . S
C769 H789 0.930 . S
C770 N768 1.375 . S
C770 C769 1.338 . S
C770 H774 0.931 . S
C771 N768 1.313 . S
C771 N772 1.344 . S
C771 H775 0.930 . S
N772 C769 1.377 . S
N772 C771 1.344 . S
O773 Co765 2.055 . S
O773 C777 1.253 . S
H774 C770 0.931 . S
H775 C771 0.930 . S
O776 Co765 2.039 . S
O776 C766 1.265 . S
C777 O773 1.253 . S
C777 O778 1.227 . S
O778 C777 1.227 . S
N779 Co765 2.140 . S
N779 C782 1.346 . S
N779 C783 1.345 . S
C780 C781 1.387 . S
C780 C784 1.391 . S
C781 C780 1.387 . S
C781 C782 1.369 . S
C781 H790 0.929 . S
C782 N779 1.346 . S
C782 C781 1.369 . S
C782 H785 0.928 . S
C783 N779 1.345 . S
C783 C784 1.371 . S
C783 H786 0.931 . S
C784 C780 1.391 . S
C784 C783 1.371 . S
C784 H791 0.930 . S
H785 C782 0.928 . S
H786 C783 0.931 . S
H787 C763 0.930 . S
H788 C760 0.930 . S
H789 C769 0.930 . S
H790 C781 0.929 . S
H791 C784 0.930 . S
C792 C793 1.351 . S
C792 N795 1.368 . S
C792 H797 0.931 . S
C793 C792 1.351 . S
C793 N794 1.373 . S
C793 H821 0.930 . S
N794 C793 1.373 . S
N794 C796 1.340 . S
N795 C792 1.368 . S
N795 C796 1.321 . S
N795 Co798 2.135 . S
C796 N794 1.340 . S
C796 N795 1.321 . S
C796 H820 0.930 . S
H797 C792 0.931 . S
Co798 N795 2.135 . S
Co798 N801 2.121 . S
Co798 O806 2.055 . S
Co798 O809 2.039 . S
Co798 N812 2.140 . S
C799 O800 1.227 . S
C799 O809 1.265 . S
O800 C799 1.227 . S
N801 Co798 2.121 . S
N801 C803 1.375 . S
N801 C804 1.313 . S
C802 C803 1.338 . S
C802 N805 1.377 . S
C802 H822 0.930 . S
C803 N801 1.375 . S
C803 C802 1.338 . S
C803 H807 0.931 . S
C804 N801 1.313 . S
C804 N805 1.344 . S
C804 H808 0.930 . S
N805 C802 1.377 . S
N805 C804 1.344 . S
O806 Co798 2.055 . S
O806 C810 1.253 . S
H807 C803 0.931 . S
H808 C804 0.930 . S
O809 Co798 2.039 . S
O809 C799 1.265 . S
C810 O806 1.253 . S
C810 O811 1.227 . S
O811 C810 1.227 . S
N812 Co798 2.140 . S
N812 C815 1.346 . S
N812 C816 1.345 . S
C813 C814 1.387 . S
C813 C817 1.391 . S
C814 C813 1.387 . S
C814 C815 1.369 . S
C814 H823 0.929 . S
C815 N812 1.346 . S
C815 C814 1.369 . S
C815 H818 0.928 . S
C816 N812 1.345 . S
C816 C817 1.371 . S
C816 H819 0.931 . S
C817 C813 1.391 . S
C817 C816 1.371 . S
C817 H824 0.930 . S
H818 C815 0.928 . S
H819 C816 0.931 . S
H820 C796 0.930 . S
H821 C793 0.930 . S
H822 C802 0.930 . S
H823 C814 0.929 . S
H824 C817 0.930 . S
C825 C826 1.354 . S
C825 N828 1.356 1_554 S
C825 H830 0.938 . S
C826 C825 1.354 . S
C826 N827 1.373 1_554 S
C826 H854 0.930 . S
N827 C826 1.373 1_556 S
N827 C829 1.340 . S
N828 C825 1.356 1_556 S
N828 C829 1.321 . S
N828 Co831 2.135 . S
C829 N827 1.340 . S
C829 N828 1.321 . S
C829 H853 0.930 . S
H830 C825 0.938 . S
Co831 N828 2.135 . S
Co831 N834 2.121 . S
Co831 O839 2.055 . S
Co831 O842 2.039 . S
Co831 N845 2.140 . S
C832 O833 1.227 . S
C832 O842 1.265 . S
O833 C832 1.227 . S
N834 Co831 2.121 . S
N834 C836 1.375 . S
N834 C837 1.313 . S
C835 C836 1.338 . S
C835 N838 1.377 . S
C835 H855 0.930 . S
C836 N834 1.375 . S
C836 C835 1.338 . S
C836 H840 0.931 . S
C837 N834 1.313 . S
C837 N838 1.344 . S
C837 H841 0.930 . S
N838 C835 1.377 . S
N838 C837 1.344 . S
O839 Co831 2.055 . S
O839 C843 1.253 . S
H840 C836 0.931 . S
H841 C837 0.930 . S
O842 Co831 2.039 . S
O842 C832 1.265 . S
C843 O839 1.253 . S
C843 O844 1.227 . S
O844 C843 1.227 . S
N845 Co831 2.140 . S
N845 C848 1.346 . S
N845 C849 1.345 . S
C846 C847 1.387 . S
C846 C850 1.391 . S
C847 C846 1.387 . S
C847 C848 1.369 . S
C847 H856 0.929 . S
C848 N845 1.346 . S
C848 C847 1.369 . S
C848 H851 0.928 . S
C849 N845 1.345 . S
C849 C850 1.371 . S
C849 H852 0.931 . S
C850 C846 1.391 . S
C850 C849 1.371 . S
C850 H857 0.930 . S
H851 C848 0.928 . S
H852 C849 0.931 . S
H853 C829 0.930 . S
H854 C826 0.930 . S
H855 C835 0.930 . S
H856 C847 0.929 . S
H857 C850 0.930 . S
C858 C859 1.351 . S
C858 N861 1.368 . S
C858 H863 0.931 . S
C859 C858 1.351 . S
C859 N860 1.373 . S
C859 H887 0.930 . S
N860 C859 1.373 . S
N860 C862 1.340 . S
N861 C858 1.368 . S
N861 C862 1.321 . S
N861 Co864 2.135 . S
C862 N860 1.340 . S
C862 N861 1.321 . S
C862 H886 0.930 . S
H863 C858 0.931 . S
Co864 N861 2.135 . S
Co864 N867 2.121 . S
Co864 O872 2.055 . S
Co864 O875 2.039 . S
Co864 N878 2.140 . S
C865 O866 1.227 . S
C865 O875 1.265 . S
O866 C865 1.227 . S
N867 Co864 2.121 . S
N867 C869 1.375 . S
N867 C870 1.313 . S
C868 C869 1.338 . S
C868 N871 1.377 . S
C868 H888 0.930 . S
C869 N867 1.375 . S
C869 C868 1.338 . S
C869 H873 0.931 . S
C870 N867 1.313 . S
C870 N871 1.344 . S
C870 H874 0.930 . S
N871 C868 1.377 . S
N871 C870 1.344 . S
O872 Co864 2.055 . S
O872 C876 1.253 . S
H873 C869 0.931 . S
H874 C870 0.930 . S
O875 Co864 2.039 . S
O875 C865 1.265 . S
C876 O872 1.253 . S
C876 O877 1.227 . S
O877 C876 1.227 . S
N878 Co864 2.140 . S
N878 C881 1.346 . S
N878 C882 1.345 . S
C879 C880 1.387 . S
C879 C883 1.391 . S
C880 C879 1.387 . S
C880 C881 1.369 . S
C880 H889 0.929 . S
C881 N878 1.346 . S
C881 C880 1.369 . S
C881 H884 0.928 . S
C882 N878 1.345 . S
C882 C883 1.371 . S
C882 H885 0.931 . S
C883 C879 1.391 . S
C883 C882 1.371 . S
C883 H890 0.930 . S
H884 C881 0.928 . S
H885 C882 0.931 . S
H886 C862 0.930 . S
H887 C859 0.930 . S
H888 C868 0.930 . S
H889 C880 0.929 . S
H890 C883 0.930 . S
C891 C892 1.351 . S
C891 N894 1.368 . S
C891 H896 0.931 . S
C892 C891 1.351 . S
C892 N893 1.373 . S
C892 H920 0.930 . S
N893 C892 1.373 . S
N893 C895 1.340 . S
N894 C891 1.368 . S
N894 C895 1.321 . S
N894 Co897 2.135 . S
C895 N893 1.340 . S
C895 N894 1.321 . S
C895 H919 0.930 . S
H896 C891 0.931 . S
Co897 N894 2.135 . S
Co897 N900 2.121 . S
Co897 O905 2.055 . S
Co897 O908 2.039 . S
Co897 N911 2.140 . S
C898 O899 1.227 . S
C898 O908 1.265 . S
O899 C898 1.227 . S
N900 Co897 2.121 . S
N900 C902 1.375 . S
N900 C903 1.313 . S
C901 C902 1.338 . S
C901 N904 1.377 . S
C901 H921 0.930 . S
C902 N900 1.375 . S
C902 C901 1.338 . S
C902 H906 0.931 . S
C903 N900 1.313 . S
C903 N904 1.344 . S
C903 H907 0.930 . S
N904 C901 1.377 . S
N904 C903 1.344 . S
O905 Co897 2.055 . S
O905 C909 1.253 . S
H906 C902 0.931 . S
H907 C903 0.930 . S
O908 Co897 2.039 . S
O908 C898 1.265 . S
C909 O905 1.253 . S
C909 O910 1.227 . S
O910 C909 1.227 . S
N911 Co897 2.140 . S
N911 C914 1.346 . S
N911 C915 1.345 . S
C912 C913 1.387 . S
C912 C916 1.391 . S
C913 C912 1.387 . S
C913 C914 1.369 . S
C913 H922 0.929 . S
C914 N911 1.346 . S
C914 C913 1.369 . S
C914 H917 0.928 . S
C915 N911 1.345 . S
C915 C916 1.371 . S
C915 H918 0.931 . S
C916 C912 1.391 . S
C916 C915 1.371 . S
C916 H923 0.930 . S
H917 C914 0.928 . S
H918 C915 0.931 . S
H919 C895 0.930 . S
H920 C892 0.930 . S
H921 C901 0.930 . S
H922 C913 0.929 . S
H923 C916 0.930 . S
C924 C925 1.351 . S
C924 N927 1.368 . S
C924 H929 0.931 . S
C925 C924 1.351 . S
C925 N926 1.373 . S
C925 H953 0.930 . S
N926 C925 1.373 . S
N926 C928 1.340 . S
N927 C924 1.368 . S
N927 C928 1.321 . S
N927 Co930 2.135 . S
C928 N926 1.340 . S
C928 N927 1.321 . S
C928 H952 0.930 . S
H929 C924 0.931 . S
Co930 N927 2.135 . S
Co930 N933 2.121 . S
Co930 O938 2.055 . S
Co930 O941 2.039 . S
Co930 N944 2.140 . S
C931 O932 1.227 . S
C931 O941 1.265 . S
O932 C931 1.227 . S
N933 Co930 2.121 . S
N933 C935 1.375 . S
N933 C936 1.313 . S
C934 C935 1.338 . S
C934 N937 1.377 . S
C934 H954 0.930 . S
C935 N933 1.375 . S
C935 C934 1.338 . S
C935 H939 0.931 . S
C936 N933 1.313 . S
C936 N937 1.344 . S
C936 H940 0.930 . S
N937 C934 1.377 . S
N937 C936 1.344 . S
O938 Co930 2.055 . S
O938 C942 1.253 . S
H939 C935 0.931 . S
H940 C936 0.930 . S
O941 Co930 2.039 . S
O941 C931 1.265 . S
C942 O938 1.253 . S
C942 O943 1.227 . S
O943 C942 1.227 . S
N944 Co930 2.140 . S
N944 C947 1.346 . S
N944 C948 1.345 . S
C945 C946 1.387 . S
C945 C949 1.391 . S
C946 C945 1.387 . S
C946 C947 1.369 . S
C946 H955 0.929 . S
C947 N944 1.346 . S
C947 C946 1.369 . S
C947 H950 0.928 . S
C948 N944 1.345 . S
C948 C949 1.371 . S
C948 H951 0.931 . S
C949 C945 1.391 . S
C949 C948 1.371 . S
C949 H956 0.930 . S
H950 C947 0.928 . S
H951 C948 0.931 . S
H952 C928 0.930 . S
H953 C925 0.930 . S
H954 C934 0.930 . S
H955 C946 0.929 . S
H956 C949 0.930 . S
C957 C958 1.354 . S
C957 N960 1.356 1_556 S
C957 H962 0.938 . S
C958 C957 1.354 . S
C958 N959 1.373 1_556 S
C958 H986 0.930 . S
N959 C958 1.373 1_554 S
N959 C961 1.340 . S
N960 C957 1.356 1_554 S
N960 C961 1.321 . S
N960 Co963 2.135 . S
C961 N959 1.340 . S
C961 N960 1.321 . S
C961 H985 0.930 . S
H962 C957 0.938 . S
Co963 N960 2.135 . S
Co963 N966 2.121 . S
Co963 O971 2.055 . S
Co963 O974 2.039 . S
Co963 N977 2.140 . S
C964 O965 1.227 . S
C964 O974 1.265 . S
O965 C964 1.227 . S
N966 Co963 2.121 . S
N966 C968 1.375 . S
N966 C969 1.313 . S
C967 C968 1.338 . S
C967 N970 1.377 . S
C967 H987 0.930 . S
C968 N966 1.375 . S
C968 C967 1.338 . S
C968 H972 0.931 . S
C969 N966 1.313 . S
C969 N970 1.344 . S
C969 H973 0.930 . S
N970 C967 1.377 . S
N970 C969 1.344 . S
O971 Co963 2.055 . S
O971 C975 1.253 . S
H972 C968 0.931 . S
H973 C969 0.930 . S
O974 Co963 2.039 . S
O974 C964 1.265 . S
C975 O971 1.253 . S
C975 O976 1.227 . S
O976 C975 1.227 . S
N977 Co963 2.140 . S
N977 C980 1.346 . S
N977 C981 1.345 . S
C978 C979 1.387 . S
C978 C982 1.391 . S
C979 C978 1.387 . S
C979 C980 1.369 . S
C979 H988 0.929 . S
C980 N977 1.346 . S
C980 C979 1.369 . S
C980 H983 0.928 . S
C981 N977 1.345 . S
C981 C982 1.371 . S
C981 H984 0.931 . S
C982 C978 1.391 . S
C982 C981 1.371 . S
C982 H989 0.930 . S
H983 C980 0.928 . S
H984 C981 0.931 . S
H985 C961 0.930 . S
H986 C958 0.930 . S
H987 C967 0.930 . S
H988 C979 0.929 . S
H989 C982 0.930 . S
C990 C991 1.351 . S
C990 N993 1.368 . S
C990 H995 0.931 . S
C991 C990 1.351 . S
C991 N992 1.373 . S
C991 H1019 0.930 . S
N992 C991 1.373 . S
N992 C994 1.340 . S
N993 C990 1.368 . S
N993 C994 1.321 . S
N993 Co996 2.135 . S
C994 N992 1.340 . S
C994 N993 1.321 . S
C994 H1018 0.930 . S
H995 C990 0.931 . S
Co996 N993 2.135 . S
Co996 N999 2.121 . S
Co996 O1004 2.055 . S
Co996 O1007 2.039 . S
Co996 N1010 2.140 . S
C997 O998 1.227 . S
C997 O1007 1.265 . S
O998 C997 1.227 . S
N999 Co996 2.121 . S
N999 C1001 1.375 . S
N999 C1002 1.313 . S
C1000 C1001 1.338 . S
C1000 N1003 1.377 . S
C1000 H1020 0.930 . S
C1001 N999 1.375 . S
C1001 C1000 1.338 . S
C1001 H1005 0.931 . S
C1002 N999 1.313 . S
C1002 N1003 1.344 . S
C1002 H1006 0.930 . S
N1003 C1000 1.377 . S
N1003 C1002 1.344 . S
O1004 Co996 2.055 . S
O1004 C1008 1.253 . S
H1005 C1001 0.931 . S
H1006 C1002 0.930 . S
O1007 Co996 2.039 . S
O1007 C997 1.265 . S
C1008 O1004 1.253 . S
C1008 O1009 1.227 . S
O1009 C1008 1.227 . S
N1010 Co996 2.140 . S
N1010 C1013 1.346 . S
N1010 C1014 1.345 . S
C1011 C1012 1.387 . S
C1011 C1015 1.391 . S
C1012 C1011 1.387 . S
C1012 C1013 1.369 . S
C1012 H1021 0.929 . S
C1013 N1010 1.346 . S
C1013 C1012 1.369 . S
C1013 H1016 0.928 . S
C1014 N1010 1.345 . S
C1014 C1015 1.371 . S
C1014 H1017 0.931 . S
C1015 C1011 1.391 . S
C1015 C1014 1.371 . S
C1015 H1022 0.930 . S
H1016 C1013 0.928 . S
H1017 C1014 0.931 . S
H1018 C994 0.930 . S
H1019 C991 0.930 . S
H1020 C1000 0.930 . S
H1021 C1012 0.929 . S
H1022 C1015 0.930 . S
C1023 C1024 1.351 . S
C1023 N1026 1.368 . S
C1023 H1028 0.931 . S
C1024 C1023 1.351 . S
C1024 N1025 1.373 . S
C1024 H1052 0.930 . S
N1025 C1024 1.373 . S
N1025 C1027 1.340 . S
N1026 C1023 1.368 . S
N1026 C1027 1.321 . S
N1026 Co1029 2.135 . S
C1027 N1025 1.340 . S
C1027 N1026 1.321 . S
C1027 H1051 0.930 . S
H1028 C1023 0.931 . S
Co1029 N1026 2.135 . S
Co1029 N1032 2.121 . S
Co1029 O1037 2.055 . S
Co1029 O1040 2.039 . S
Co1029 N1043 2.140 . S
C1030 O1031 1.227 . S
C1030 O1040 1.265 . S
O1031 C1030 1.227 . S
N1032 Co1029 2.121 . S
N1032 C1034 1.375 . S
N1032 C1035 1.313 . S
C1033 C1034 1.338 . S
C1033 N1036 1.377 . S
C1033 H1053 0.930 . S
C1034 N1032 1.375 . S
C1034 C1033 1.338 . S
C1034 H1038 0.931 . S
C1035 N1032 1.313 . S
C1035 N1036 1.344 . S
C1035 H1039 0.930 . S
N1036 C1033 1.377 . S
N1036 C1035 1.344 . S
O1037 Co1029 2.055 . S
O1037 C1041 1.253 . S
H1038 C1034 0.931 . S
H1039 C1035 0.930 . S
O1040 Co1029 2.039 . S
O1040 C1030 1.265 . S
C1041 O1037 1.253 . S
C1041 O1042 1.227 . S
O1042 C1041 1.227 . S
N1043 Co1029 2.140 . S
N1043 C1046 1.346 . S
N1043 C1047 1.345 . S
C1044 C1045 1.387 . S
C1044 C1048 1.391 . S
C1045 C1044 1.387 . S
C1045 C1046 1.369 . S
C1045 H1054 0.929 . S
C1046 N1043 1.346 . S
C1046 C1045 1.369 . S
C1046 H1049 0.928 . S
C1047 N1043 1.345 . S
C1047 C1048 1.371 . S
C1047 H1050 0.931 . S
C1048 C1044 1.391 . S
C1048 C1047 1.371 . S
C1048 H1055 0.930 . S
H1049 C1046 0.928 . S
H1050 C1047 0.931 . S
H1051 C1027 0.930 . S
H1052 C1024 0.930 . S
H1053 C1033 0.930 . S
H1054 C1045 0.929 . S
H1055 C1048 0.930 . S
H1056 C1068 0.930 . S
H1057 C1070 0.930 1_556 S
H1058 C1071 0.930 . S
H1059 C1075 0.959 . S
H1060 C1075 0.959 . S
H1061 C1075 0.961 . S
H1062 C1076 0.960 . S
H1063 C1076 0.961 . S
H1064 C1076 0.959 . S
H1065 C1079 0.929 . S
H1066 C1080 0.931 . S
H1067 C1082 0.930 . S
C1068 H1056 0.930 . S
C1068 C1069 1.399 . S
C1068 C1073 1.399 . S
C1069 C1068 1.399 . S
C1069 C1070 1.376 . S
C1070 H1057 0.930 1_554 S
C1070 C1069 1.376 . S
C1070 C1071 1.388 . S
C1071 H1058 0.930 . S
C1071 C1070 1.388 . S
C1071 C1072 1.390 . S
C1072 C1071 1.390 . S
C1072 C1073 1.394 . S
C1072 C1078 1.465 . S
C1073 C1068 1.399 . S
C1073 C1072 1.394 . S
C1073 C1074 1.516 . S
C1074 C1073 1.516 . S
C1074 C1075 1.502 . S
C1074 C1076 1.561 . S
C1074 C1077 1.526 . S
C1075 H1059 0.959 . S
C1075 H1060 0.959 . S
C1075 H1061 0.961 . S
C1075 C1074 1.502 . S
C1076 H1062 0.960 . S
C1076 H1063 0.961 . S
C1076 H1064 0.959 . S
C1076 C1074 1.561 . S
C1077 C1074 1.526 . S
C1077 C1078 1.396 . S
C1077 C1082 1.390 . S
C1078 C1072 1.465 . S
C1078 C1077 1.396 . S
C1078 C1079 1.399 . S
C1079 H1065 0.929 . S
C1079 C1078 1.399 . S
C1079 C1080 1.385 . S
C1080 H1066 0.931 . S
C1080 C1079 1.385 . S
C1080 C1081 1.389 . S
C1081 C1080 1.389 . S
C1081 C1082 1.387 . S
C1082 H1067 0.930 . S
C1082 C1077 1.390 . S
C1082 C1081 1.387 . S
H1083 C1095 0.930 . S
H1084 C1097 0.930 . S
H1085 C1098 0.930 . S
H1086 C1102 0.959 . S
H1087 C1102 0.959 . S
H1088 C1102 0.961 . S
H1089 C1103 0.960 . S
H1090 C1103 0.961 . S
H1091 C1103 0.959 . S
H1092 C1106 0.929 . S
H1093 C1107 0.931 . S
H1094 C1109 0.930 . S
C1095 H1083 0.930 . S
C1095 C1096 1.399 . S
C1095 C1100 1.399 . S
C1096 C1095 1.399 . S
C1096 C1097 1.376 . S
C1097 H1084 0.930 . S
C1097 C1096 1.376 . S
C1097 C1098 1.388 . S
C1098 H1085 0.930 . S
C1098 C1097 1.388 . S
C1098 C1099 1.390 . S
C1099 C1098 1.390 . S
C1099 C1100 1.394 . S
C1099 C1105 1.465 . S
C1100 C1095 1.399 . S
C1100 C1099 1.394 . S
C1100 C1101 1.516 . S
C1101 C1100 1.516 . S
C1101 C1102 1.502 . S
C1101 C1103 1.561 . S
C1101 C1104 1.526 . S
C1102 H1086 0.959 . S
C1102 H1087 0.959 . S
C1102 H1088 0.961 . S
C1102 C1101 1.502 . S
C1103 H1089 0.960 . S
C1103 H1090 0.961 . S
C1103 H1091 0.959 . S
C1103 C1101 1.561 . S
C1104 C1101 1.526 . S
C1104 C1105 1.396 . S
C1104 C1109 1.390 . S
C1105 C1099 1.465 . S
C1105 C1104 1.396 . S
C1105 C1106 1.399 . S
C1106 H1092 0.929 . S
C1106 C1105 1.399 . S
C1106 C1107 1.385 . S
C1107 H1093 0.931 . S
C1107 C1106 1.385 . S
C1107 C1108 1.389 . S
C1108 C1107 1.389 . S
C1108 C1109 1.387 . S
C1109 H1094 0.930 . S
C1109 C1104 1.390 . S
C1109 C1108 1.387 . S
H1110 C1122 0.930 . S
H1111 C1124 0.930 . S
H1112 C1125 0.930 . S
H1113 C1129 0.959 . S
H1114 C1129 0.959 . S
H1115 C1129 0.961 . S
H1116 C1130 0.960 . S
H1117 C1130 0.961 . S
H1118 C1130 0.959 . S
H1119 C1133 0.929 . S
H1120 C1134 0.931 . S
H1121 C1136 0.930 . S
C1122 H1110 0.930 . S
C1122 C1123 1.399 . S
C1122 C1127 1.399 . S
C1123 C1122 1.399 . S
C1123 C1124 1.376 . S
C1124 H1111 0.930 . S
C1124 C1123 1.376 . S
C1124 C1125 1.388 . S
C1125 H1112 0.930 . S
C1125 C1124 1.388 . S
C1125 C1126 1.390 . S
C1126 C1125 1.390 . S
C1126 C1127 1.394 . S
C1126 C1132 1.465 . S
C1127 C1122 1.399 . S
C1127 C1126 1.394 . S
C1127 C1128 1.516 . S
C1128 C1127 1.516 . S
C1128 C1129 1.502 . S
C1128 C1130 1.561 . S
C1128 C1131 1.526 . S
C1129 H1113 0.959 . S
C1129 H1114 0.959 . S
C1129 H1115 0.961 . S
C1129 C1128 1.502 . S
C1130 H1116 0.960 . S
C1130 H1117 0.961 . S
C1130 H1118 0.959 . S
C1130 C1128 1.561 . S
C1131 C1128 1.526 . S
C1131 C1132 1.396 . S
C1131 C1136 1.390 . S
C1132 C1126 1.465 . S
C1132 C1131 1.396 . S
C1132 C1133 1.399 . S
C1133 H1119 0.929 . S
C1133 C1132 1.399 . S
C1133 C1134 1.385 . S
C1134 H1120 0.931 . S
C1134 C1133 1.385 . S
C1134 C1135 1.389 . S
C1135 C1134 1.389 . S
C1135 C1136 1.387 . S
C1136 H1121 0.930 . S
C1136 C1131 1.390 . S
C1136 C1135 1.387 . S
H1137 C1149 0.930 . S
H1138 C1151 0.930 . S
H1139 C1152 0.930 . S
H1140 C1156 0.959 . S
H1141 C1156 0.959 . S
H1142 C1156 0.961 . S
H1143 C1157 0.960 . S
H1144 C1157 0.961 . S
H1145 C1157 0.959 . S
H1146 C1160 0.929 . S
H1147 C1161 0.931 . S
H1148 C1163 0.930 . S
C1149 H1137 0.930 . S
C1149 C1150 1.399 . S
C1149 C1154 1.399 . S
C1150 C1149 1.399 . S
C1150 C1151 1.376 . S
C1151 H1138 0.930 . S
C1151 C1150 1.376 . S
C1151 C1152 1.388 . S
C1152 H1139 0.930 . S
C1152 C1151 1.388 . S
C1152 C1153 1.390 . S
C1153 C1152 1.390 . S
C1153 C1154 1.394 . S
C1153 C1159 1.465 . S
C1154 C1149 1.399 . S
C1154 C1153 1.394 . S
C1154 C1155 1.516 . S
C1155 C1154 1.516 . S
C1155 C1156 1.502 . S
C1155 C1157 1.561 . S
C1155 C1158 1.526 . S
C1156 H1140 0.959 . S
C1156 H1141 0.959 . S
C1156 H1142 0.961 . S
C1156 C1155 1.502 . S
C1157 H1143 0.960 . S
C1157 H1144 0.961 . S
C1157 H1145 0.959 . S
C1157 C1155 1.561 . S
C1158 C1155 1.526 . S
C1158 C1159 1.396 . S
C1158 C1163 1.390 . S
C1159 C1153 1.465 . S
C1159 C1158 1.396 . S
C1159 C1160 1.399 . S
C1160 H1146 0.929 . S
C1160 C1159 1.399 . S
C1160 C1161 1.385 . S
C1161 H1147 0.931 . S
C1161 C1160 1.385 . S
C1161 C1162 1.389 . S
C1162 C1161 1.389 . S
C1162 C1163 1.387 . S
C1163 H1148 0.930 . S
C1163 C1158 1.390 . S
C1163 C1162 1.387 . S
H1164 C1176 0.930 . S
H1165 C1178 0.930 . S
H1166 C1179 0.930 . S
H1167 C1183 0.959 . S
H1168 C1183 0.959 . S
H1169 C1183 0.961 . S
H1170 C1184 0.960 . S
H1171 C1184 0.961 . S
H1172 C1184 0.959 . S
H1173 C1187 0.929 . S
H1174 C1188 0.931 . S
H1175 C1190 0.930 . S
C1176 H1164 0.930 . S
C1176 C1177 1.399 . S
C1176 C1181 1.399 . S
C1177 C1176 1.399 . S
C1177 C1178 1.376 . S
C1178 H1165 0.930 . S
C1178 C1177 1.376 . S
C1178 C1179 1.388 . S
C1179 H1166 0.930 . S
C1179 C1178 1.388 . S
C1179 C1180 1.390 . S
C1180 C1179 1.390 . S
C1180 C1181 1.394 . S
C1180 C1186 1.465 . S
C1181 C1176 1.399 . S
C1181 C1180 1.394 . S
C1181 C1182 1.516 . S
C1182 C1181 1.516 . S
C1182 C1183 1.502 . S
C1182 C1184 1.561 . S
C1182 C1185 1.526 . S
C1183 H1167 0.959 . S
C1183 H1168 0.959 . S
C1183 H1169 0.961 . S
C1183 C1182 1.502 . S
C1184 H1170 0.960 . S
C1184 H1171 0.961 . S
C1184 H1172 0.959 . S
C1184 C1182 1.561 . S
C1185 C1182 1.526 . S
C1185 C1186 1.396 . S
C1185 C1190 1.390 . S
C1186 C1180 1.465 . S
C1186 C1185 1.396 . S
C1186 C1187 1.399 . S
C1187 H1173 0.929 . S
C1187 C1186 1.399 . S
C1187 C1188 1.385 . S
C1188 H1174 0.931 . S
C1188 C1187 1.385 . S
C1188 C1189 1.389 . S
C1189 C1188 1.389 . S
C1189 C1190 1.387 . S
C1190 H1175 0.930 . S
C1190 C1185 1.390 . S
C1190 C1189 1.387 . S
H1191 C1203 0.930 . S
H1192 C1205 0.930 . S
H1193 C1206 0.930 . S
H1194 C1210 0.959 . S
H1195 C1210 0.959 . S
H1196 C1210 0.961 . S
H1197 C1211 0.960 . S
H1198 C1211 0.961 . S
H1199 C1211 0.959 . S
H1200 C1214 0.929 . S
H1201 C1215 0.931 . S
H1202 C1217 0.930 . S
C1203 H1191 0.930 . S
C1203 C1204 1.399 . S
C1203 C1208 1.399 . S
C1204 C1203 1.399 . S
C1204 C1205 1.376 . S
C1205 H1192 0.930 . S
C1205 C1204 1.376 . S
C1205 C1206 1.388 . S
C1206 H1193 0.930 . S
C1206 C1205 1.388 . S
C1206 C1207 1.390 . S
C1207 C1206 1.390 . S
C1207 C1208 1.394 . S
C1207 C1213 1.465 . S
C1208 C1203 1.399 . S
C1208 C1207 1.394 . S
C1208 C1209 1.516 . S
C1209 C1208 1.516 . S
C1209 C1210 1.502 . S
C1209 C1211 1.561 . S
C1209 C1212 1.526 . S
C1210 H1194 0.959 . S
C1210 H1195 0.959 . S
C1210 H1196 0.961 . S
C1210 C1209 1.502 . S
C1211 H1197 0.960 . S
C1211 H1198 0.961 . S
C1211 H1199 0.959 . S
C1211 C1209 1.561 . S
C1212 C1209 1.526 . S
C1212 C1213 1.396 . S
C1212 C1217 1.390 . S
C1213 C1207 1.465 . S
C1213 C1212 1.396 . S
C1213 C1214 1.399 . S
C1214 H1200 0.929 . S
C1214 C1213 1.399 . S
C1214 C1215 1.385 . S
C1215 H1201 0.931 . S
C1215 C1214 1.385 . S
C1215 C1216 1.389 . S
C1216 C1215 1.389 . S
C1216 C1217 1.387 . S
C1217 H1202 0.930 . S
C1217 C1212 1.390 . S
C1217 C1216 1.387 . S
H1218 C1230 0.930 . S
H1219 C1232 0.930 . S
H1220 C1233 0.930 . S
H1221 C1237 0.959 . S
H1222 C1237 0.959 . S
H1223 C1237 0.961 . S
H1224 C1238 0.960 . S
H1225 C1238 0.961 . S
H1226 C1238 0.959 . S
H1227 C1241 0.929 . S
H1228 C1242 0.931 . S
H1229 C1244 0.930 . S
C1230 H1218 0.930 . S
C1230 C1231 1.399 . S
C1230 C1235 1.399 . S
C1231 C1230 1.399 . S
C1231 C1232 1.376 . S
C1232 H1219 0.930 . S
C1232 C1231 1.376 . S
C1232 C1233 1.388 . S
C1233 H1220 0.930 . S
C1233 C1232 1.388 . S
C1233 C1234 1.390 . S
C1234 C1233 1.390 . S
C1234 C1235 1.394 . S
C1234 C1240 1.465 . S
C1235 C1230 1.399 . S
C1235 C1234 1.394 . S
C1235 C1236 1.516 . S
C1236 C1235 1.516 . S
C1236 C1237 1.502 . S
C1236 C1238 1.561 . S
C1236 C1239 1.526 . S
C1237 H1221 0.959 . S
C1237 H1222 0.959 . S
C1237 H1223 0.961 . S
C1237 C1236 1.502 . S
C1238 H1224 0.960 . S
C1238 H1225 0.961 . S
C1238 H1226 0.959 . S
C1238 C1236 1.561 . S
C1239 C1236 1.526 . S
C1239 C1240 1.396 . S
C1239 C1244 1.390 . S
C1240 C1234 1.465 . S
C1240 C1239 1.396 . S
C1240 C1241 1.399 . S
C1241 H1227 0.929 . S
C1241 C1240 1.399 . S
C1241 C1242 1.385 . S
C1242 H1228 0.931 . S
C1242 C1241 1.385 . S
C1242 C1243 1.389 . S
C1243 C1242 1.389 . S
C1243 C1244 1.387 . S
C1244 H1229 0.930 . S
C1244 C1239 1.390 . S
C1244 C1243 1.387 . S
H1245 C1257 0.930 . S
H1246 C1259 0.930 . S
H1247 C1260 0.930 . S
H1248 C1264 0.959 . S
H1249 C1264 0.959 . S
H1250 C1264 0.961 . S
H1251 C1265 0.960 . S
H1252 C1265 0.961 . S
H1253 C1265 0.959 . S
H1254 C1268 0.929 . S
H1255 C1269 0.931 1_556 S
H1256 C1271 0.930 . S
C1257 H1245 0.930 . S
C1257 C1258 1.399 . S
C1257 C1262 1.399 . S
C1258 C1257 1.399 . S
C1258 C1259 1.376 . S
C1259 H1246 0.930 . S
C1259 C1258 1.376 . S
C1259 C1260 1.388 . S
C1260 H1247 0.930 . S
C1260 C1259 1.388 . S
C1260 C1261 1.390 . S
C1261 C1260 1.390 . S
C1261 C1262 1.394 . S
C1261 C1267 1.465 . S
C1262 C1257 1.399 . S
C1262 C1261 1.394 . S
C1262 C1263 1.516 . S
C1263 C1262 1.516 . S
C1263 C1264 1.502 . S
C1263 C1265 1.561 . S
C1263 C1266 1.526 . S
C1264 H1248 0.959 . S
C1264 H1249 0.959 . S
C1264 H1250 0.961 . S
C1264 C1263 1.502 . S
C1265 H1251 0.960 . S
C1265 H1252 0.961 . S
C1265 H1253 0.959 . S
C1265 C1263 1.561 . S
C1266 C1263 1.526 . S
C1266 C1267 1.396 . S
C1266 C1271 1.390 . S
C1267 C1261 1.465 . S
C1267 C1266 1.396 . S
C1267 C1268 1.399 . S
C1268 H1254 0.929 . S
C1268 C1267 1.399 . S
C1268 C1269 1.385 . S
C1269 H1255 0.931 1_554 S
C1269 C1268 1.385 . S
C1269 C1270 1.389 . S
C1270 C1269 1.389 . S
C1270 C1271 1.387 . S
C1271 H1256 0.930 . S
C1271 C1266 1.390 . S
C1271 C1270 1.387 . S
H1272 C1284 0.930 . S
H1273 C1286 0.930 . S
H1274 C1287 0.930 . S
H1275 C1291 0.959 . S
H1276 C1291 0.959 . S
H1277 C1291 0.961 . S
H1278 C1292 0.960 . S
H1279 C1292 0.961 . S
H1280 C1292 0.959 . S
H1281 C1295 0.929 . S
H1282 C1296 0.931 . S
H1283 C1298 0.930 . S
C1284 H1272 0.930 . S
C1284 C1285 1.399 . S
C1284 C1289 1.399 . S
C1285 C1284 1.399 . S
C1285 C1286 1.376 . S
C1286 H1273 0.930 . S
C1286 C1285 1.376 . S
C1286 C1287 1.388 . S
C1287 H1274 0.930 . S
C1287 C1286 1.388 . S
C1287 C1288 1.390 . S
C1288 C1287 1.390 . S
C1288 C1289 1.394 . S
C1288 C1294 1.465 . S
C1289 C1284 1.399 . S
C1289 C1288 1.394 . S
C1289 C1290 1.516 . S
C1290 C1289 1.516 . S
C1290 C1291 1.502 . S
C1290 C1292 1.561 . S
C1290 C1293 1.526 . S
C1291 H1275 0.959 . S
C1291 H1276 0.959 . S
C1291 H1277 0.961 . S
C1291 C1290 1.502 . S
C1292 H1278 0.960 . S
C1292 H1279 0.961 . S
C1292 H1280 0.959 . S
C1292 C1290 1.561 . S
C1293 C1290 1.526 . S
C1293 C1294 1.396 . S
C1293 C1298 1.390 . S
C1294 C1288 1.465 . S
C1294 C1293 1.396 . S
C1294 C1295 1.399 . S
C1295 H1281 0.929 . S
C1295 C1294 1.399 . S
C1295 C1296 1.385 . S
C1296 H1282 0.931 . S
C1296 C1295 1.385 . S
C1296 C1297 1.389 . S
C1297 C1296 1.389 . S
C1297 C1298 1.387 . S
C1298 H1283 0.930 . S
C1298 C1293 1.390 . S
C1298 C1297 1.387 . S
H1299 C1311 0.930 . S
H1300 C1313 0.930 . S
H1301 C1314 0.930 . S
H1302 C1318 0.959 . S
H1303 C1318 0.959 . S
H1304 C1318 0.961 . S
H1305 C1319 0.960 . S
H1306 C1319 0.961 . S
H1307 C1319 0.959 . S
H1308 C1322 0.929 . S
H1309 C1323 0.931 . S
H1310 C1325 0.930 . S
C1311 H1299 0.930 . S
C1311 C1312 1.399 . S
C1311 C1316 1.399 . S
C1312 C1311 1.399 . S
C1312 C1313 1.376 . S
C1313 H1300 0.930 . S
C1313 C1312 1.376 . S
C1313 C1314 1.388 . S
C1314 H1301 0.930 . S
C1314 C1313 1.388 . S
C1314 C1315 1.390 . S
C1315 C1314 1.390 . S
C1315 C1316 1.394 . S
C1315 C1321 1.465 . S
C1316 C1311 1.399 . S
C1316 C1315 1.394 . S
C1316 C1317 1.516 . S
C1317 C1316 1.516 . S
C1317 C1318 1.502 . S
C1317 C1319 1.561 . S
C1317 C1320 1.526 . S
C1318 H1302 0.959 . S
C1318 H1303 0.959 . S
C1318 H1304 0.961 . S
C1318 C1317 1.502 . S
C1319 H1305 0.960 . S
C1319 H1306 0.961 . S
C1319 H1307 0.959 . S
C1319 C1317 1.561 . S
C1320 C1317 1.526 . S
C1320 C1321 1.396 . S
C1320 C1325 1.390 . S
C1321 C1315 1.465 . S
C1321 C1320 1.396 . S
C1321 C1322 1.399 . S
C1322 H1308 0.929 . S
C1322 C1321 1.399 . S
C1322 C1323 1.385 . S
C1323 H1309 0.931 . S
C1323 C1322 1.385 . S
C1323 C1324 1.389 . S
C1324 C1323 1.389 . S
C1324 C1325 1.387 . S
C1325 H1310 0.930 . S
C1325 C1320 1.390 . S
C1325 C1324 1.387 . S
H1326 C1338 0.930 . S
H1327 C1340 0.930 . S
H1328 C1341 0.930 . S
H1329 C1345 0.959 . S
H1330 C1345 0.959 . S
H1331 C1345 0.961 . S
H1332 C1346 0.960 . S
H1333 C1346 0.961 . S
H1334 C1346 0.959 . S
H1335 C1349 0.929 . S
H1336 C1350 0.931 . S
H1337 C1352 0.930 . S
C1338 H1326 0.930 . S
C1338 C1339 1.399 . S
C1338 C1343 1.399 . S
C1339 C1338 1.399 . S
C1339 C1340 1.376 . S
C1340 H1327 0.930 . S
C1340 C1339 1.376 . S
C1340 C1341 1.388 . S
C1341 H1328 0.930 . S
C1341 C1340 1.388 . S
C1341 C1342 1.390 . S
C1342 C1341 1.390 . S
C1342 C1343 1.394 . S
C1342 C1348 1.465 . S
C1343 C1338 1.399 . S
C1343 C1342 1.394 . S
C1343 C1344 1.516 . S
C1344 C1343 1.516 . S
C1344 C1345 1.502 . S
C1344 C1346 1.561 . S
C1344 C1347 1.526 . S
C1345 H1329 0.959 . S
C1345 H1330 0.959 . S
C1345 H1331 0.961 . S
C1345 C1344 1.502 . S
C1346 H1332 0.960 . S
C1346 H1333 0.961 . S
C1346 H1334 0.959 . S
C1346 C1344 1.561 . S
C1347 C1344 1.526 . S
C1347 C1348 1.396 . S
C1347 C1352 1.390 . S
C1348 C1342 1.465 . S
C1348 C1347 1.396 . S
C1348 C1349 1.399 . S
C1349 H1335 0.929 . S
C1349 C1348 1.399 . S
C1349 C1350 1.385 . S
C1350 H1336 0.931 . S
C1350 C1349 1.385 . S
C1350 C1351 1.389 . S
C1351 C1350 1.389 . S
C1351 C1352 1.387 . S
C1352 H1337 0.930 . S
C1352 C1347 1.390 . S
C1352 C1351 1.387 . S
H1353 C1365 0.930 . S
H1354 C1367 0.930 . S
H1355 C1368 0.930 . S
H1356 C1372 0.959 . S
H1357 C1372 0.959 . S
H1358 C1372 0.961 . S
H1359 C1373 0.960 . S
H1360 C1373 0.961 . S
H1361 C1373 0.959 . S
H1362 C1376 0.929 . S
H1363 C1377 0.931 . S
H1364 C1379 0.930 . S
C1365 H1353 0.930 . S
C1365 C1366 1.399 . S
C1365 C1370 1.399 . S
C1366 C1365 1.399 . S
C1366 C1367 1.376 . S
C1367 H1354 0.930 . S
C1367 C1366 1.376 . S
C1367 C1368 1.388 . S
C1368 H1355 0.930 . S
C1368 C1367 1.388 . S
C1368 C1369 1.390 . S
C1369 C1368 1.390 . S
C1369 C1370 1.394 . S
C1369 C1375 1.465 . S
C1370 C1365 1.399 . S
C1370 C1369 1.394 . S
C1370 C1371 1.516 . S
C1371 C1370 1.516 . S
C1371 C1372 1.502 . S
C1371 C1373 1.561 . S
C1371 C1374 1.526 . S
C1372 H1356 0.959 . S
C1372 H1357 0.959 . S
C1372 H1358 0.961 . S
C1372 C1371 1.502 . S
C1373 H1359 0.960 . S
C1373 H1360 0.961 . S
C1373 H1361 0.959 . S
C1373 C1371 1.561 . S
C1374 C1371 1.526 . S
C1374 C1375 1.396 . S
C1374 C1379 1.390 . S
C1375 C1369 1.465 . S
C1375 C1374 1.396 . S
C1375 C1376 1.399 . S
C1376 H1362 0.929 . S
C1376 C1375 1.399 . S
C1376 C1377 1.385 . S
C1377 H1363 0.931 . S
C1377 C1376 1.385 . S
C1377 C1378 1.389 . S
C1378 C1377 1.389 . S
C1378 C1379 1.387 . S
C1379 H1364 0.930 . S
C1379 C1374 1.390 . S
C1379 C1378 1.387 . S
H1380 C1392 0.930 . S
H1381 C1394 0.930 . S
H1382 C1395 0.930 . S
H1383 C1399 0.959 . S
H1384 C1399 0.959 . S
H1385 C1399 0.961 . S
H1386 C1400 0.960 . S
H1387 C1400 0.961 . S
H1388 C1400 0.959 . S
H1389 C1403 0.929 . S
H1390 C1404 0.931 . S
H1391 C1406 0.930 . S
C1392 H1380 0.930 . S
C1392 C1393 1.399 . S
C1392 C1397 1.399 . S
C1393 C1392 1.399 . S
C1393 C1394 1.376 . S
C1394 H1381 0.930 . S
C1394 C1393 1.376 . S
C1394 C1395 1.388 . S
C1395 H1382 0.930 . S
C1395 C1394 1.388 . S
C1395 C1396 1.390 . S
C1396 C1395 1.390 . S
C1396 C1397 1.394 . S
C1396 C1402 1.465 . S
C1397 C1392 1.399 . S
C1397 C1396 1.394 . S
C1397 C1398 1.516 . S
C1398 C1397 1.516 . S
C1398 C1399 1.502 . S
C1398 C1400 1.561 . S
C1398 C1401 1.526 . S
C1399 H1383 0.959 . S
C1399 H1384 0.959 . S
C1399 H1385 0.961 . S
C1399 C1398 1.502 . S
C1400 H1386 0.960 . S
C1400 H1387 0.961 . S
C1400 H1388 0.959 . S
C1400 C1398 1.561 . S
C1401 C1398 1.526 . S
C1401 C1402 1.396 . S
C1401 C1406 1.390 . S
C1402 C1396 1.465 . S
C1402 C1401 1.396 . S
C1402 C1403 1.399 . S
C1403 H1389 0.929 . S
C1403 C1402 1.399 . S
C1403 C1404 1.385 . S
C1404 H1390 0.931 . S
C1404 C1403 1.385 . S
C1404 C1405 1.389 . S
C1405 C1404 1.389 . S
C1405 C1406 1.387 . S
C1406 H1391 0.930 . S
C1406 C1401 1.390 . S
C1406 C1405 1.387 . S
H1407 C1419 0.930 . S
H1408 C1421 0.930 . S
H1409 C1422 0.930 . S
H1410 C1426 0.959 . S
H1411 C1426 0.959 . S
H1412 C1426 0.961 . S
H1413 C1427 0.960 . S
H1414 C1427 0.961 . S
H1415 C1427 0.959 . S
H1416 C1430 0.929 . S
H1417 C1431 0.931 . S
H1418 C1433 0.930 . S
C1419 H1407 0.930 . S
C1419 C1420 1.399 . S
C1419 C1424 1.399 . S
C1420 C1419 1.399 . S
C1420 C1421 1.376 . S
C1421 H1408 0.930 . S
C1421 C1420 1.376 . S
C1421 C1422 1.388 . S
C1422 H1409 0.930 . S
C1422 C1421 1.388 . S
C1422 C1423 1.390 . S
C1423 C1422 1.390 . S
C1423 C1424 1.394 . S
C1423 C1429 1.465 . S
C1424 C1419 1.399 . S
C1424 C1423 1.394 . S
C1424 C1425 1.516 . S
C1425 C1424 1.516 . S
C1425 C1426 1.502 . S
C1425 C1427 1.561 . S
C1425 C1428 1.526 . S
C1426 H1410 0.959 . S
C1426 H1411 0.959 . S
C1426 H1412 0.961 . S
C1426 C1425 1.502 . S
C1427 H1413 0.960 . S
C1427 H1414 0.961 . S
C1427 H1415 0.959 . S
C1427 C1425 1.561 . S
C1428 C1425 1.526 . S
C1428 C1429 1.396 . S
C1428 C1433 1.390 . S
C1429 C1423 1.465 . S
C1429 C1428 1.396 . S
C1429 C1430 1.399 . S
C1430 H1416 0.929 . S
C1430 C1429 1.399 . S
C1430 C1431 1.385 . S
C1431 H1417 0.931 . S
C1431 C1430 1.385 . S
C1431 C1432 1.389 . S
C1432 C1431 1.389 . S
C1432 C1433 1.387 . S
C1433 H1418 0.930 . S
C1433 C1428 1.390 . S
C1433 C1432 1.387 . S
H1434 C1446 0.930 . S
H1435 C1448 0.930 . S
H1436 C1449 0.930 . S
H1437 C1453 0.959 . S
H1438 C1453 0.959 . S
H1439 C1453 0.961 . S
H1440 C1454 0.960 . S
H1441 C1454 0.961 . S
H1442 C1454 0.959 . S
H1443 C1457 0.929 . S
H1444 C1458 0.931 . S
H1445 C1460 0.930 . S
C1446 H1434 0.930 . S
C1446 C1447 1.399 . S
C1446 C1451 1.399 . S
C1447 C1446 1.399 . S
C1447 C1448 1.376 . S
C1448 H1435 0.930 . S
C1448 C1447 1.376 . S
C1448 C1449 1.388 . S
C1449 H1436 0.930 . S
C1449 C1448 1.388 . S
C1449 C1450 1.390 . S
C1450 C1449 1.390 . S
C1450 C1451 1.394 . S
C1450 C1456 1.465 . S
C1451 C1446 1.399 . S
C1451 C1450 1.394 . S
C1451 C1452 1.516 . S
C1452 C1451 1.516 . S
C1452 C1453 1.502 . S
C1452 C1454 1.561 . S
C1452 C1455 1.526 . S
C1453 H1437 0.959 . S
C1453 H1438 0.959 . S
C1453 H1439 0.961 . S
C1453 C1452 1.502 . S
C1454 H1440 0.960 . S
C1454 H1441 0.961 . S
C1454 H1442 0.959 . S
C1454 C1452 1.561 . S
C1455 C1452 1.526 . S
C1455 C1456 1.396 . S
C1455 C1460 1.390 . S
C1456 C1450 1.465 . S
C1456 C1455 1.396 . S
C1456 C1457 1.399 . S
C1457 H1443 0.929 . S
C1457 C1456 1.399 . S
C1457 C1458 1.385 . S
C1458 H1444 0.931 . S
C1458 C1457 1.385 . S
C1458 C1459 1.389 . S
C1459 C1458 1.389 . S
C1459 C1460 1.387 . S
C1460 H1445 0.930 . S
C1460 C1455 1.390 . S
C1460 C1459 1.387 . S
H1461 C1473 0.930 . S
H1462 C1475 0.930 . S
H1463 C1476 0.930 . S
H1464 C1480 0.959 . S
H1465 C1480 0.959 . S
H1466 C1480 0.961 . S
H1467 C1481 0.960 . S
H1468 C1481 0.961 . S
H1469 C1481 0.959 . S
H1470 C1484 0.929 . S
H1471 C1485 0.931 . S
H1472 C1487 0.930 . S
C1473 H1461 0.930 . S
C1473 C1474 1.399 . S
C1473 C1478 1.399 . S
C1474 C1473 1.399 . S
C1474 C1475 1.376 . S
C1475 H1462 0.930 . S
C1475 C1474 1.376 . S
C1475 C1476 1.388 . S
C1476 H1463 0.930 . S
C1476 C1475 1.388 . S
C1476 C1477 1.390 . S
C1477 C1476 1.390 . S
C1477 C1478 1.394 . S
C1477 C1483 1.465 . S
C1478 C1473 1.399 . S
C1478 C1477 1.394 . S
C1478 C1479 1.516 . S
C1479 C1478 1.516 . S
C1479 C1480 1.502 . S
C1479 C1481 1.561 . S
C1479 C1482 1.526 . S
C1480 H1464 0.959 . S
C1480 H1465 0.959 . S
C1480 H1466 0.961 . S
C1480 C1479 1.502 . S
C1481 H1467 0.960 . S
C1481 H1468 0.961 . S
C1481 H1469 0.959 . S
C1481 C1479 1.561 . S
C1482 C1479 1.526 . S
C1482 C1483 1.396 . S
C1482 C1487 1.390 . S
C1483 C1477 1.465 . S
C1483 C1482 1.396 . S
C1483 C1484 1.399 . S
C1484 H1470 0.929 . S
C1484 C1483 1.399 . S
C1484 C1485 1.385 . S
C1485 H1471 0.931 . S
C1485 C1484 1.385 . S
C1485 C1486 1.389 . S
C1486 C1485 1.389 . S
C1486 C1487 1.387 . S
C1487 H1472 0.930 . S
C1487 C1482 1.390 . S
C1487 C1486 1.387 . S
H1488 C1500 0.930 . S
H1489 C1502 0.930 . S
H1490 C1503 0.930 . S
H1491 C1507 0.959 . S
H1492 C1507 0.959 . S
H1493 C1507 0.961 . S
H1494 C1508 0.960 . S
H1495 C1508 0.961 . S
H1496 C1508 0.959 . S
H1497 C1511 0.929 . S
H1498 C1512 0.931 . S
H1499 C1514 0.930 . S
C1500 H1488 0.930 . S
C1500 C1501 1.399 . S
C1500 C1505 1.399 . S
C1501 C1500 1.399 . S
C1501 C1502 1.376 . S
C1502 H1489 0.930 . S
C1502 C1501 1.376 . S
C1502 C1503 1.388 . S
C1503 H1490 0.930 . S
C1503 C1502 1.388 . S
C1503 C1504 1.390 . S
C1504 C1503 1.390 . S
C1504 C1505 1.394 . S
C1504 C1510 1.465 . S
C1505 C1500 1.399 . S
C1505 C1504 1.394 . S
C1505 C1506 1.516 . S
C1506 C1505 1.516 . S
C1506 C1507 1.502 . S
C1506 C1508 1.561 . S
C1506 C1509 1.526 . S
C1507 H1491 0.959 . S
C1507 H1492 0.959 . S
C1507 H1493 0.961 . S
C1507 C1506 1.502 . S
C1508 H1494 0.960 . S
C1508 H1495 0.961 . S
C1508 H1496 0.959 . S
C1508 C1506 1.561 . S
C1509 C1506 1.526 . S
C1509 C1510 1.396 . S
C1509 C1514 1.390 . S
C1510 C1504 1.465 . S
C1510 C1509 1.396 . S
C1510 C1511 1.399 . S
C1511 H1497 0.929 . S
C1511 C1510 1.399 . S
C1511 C1512 1.385 . S
C1512 H1498 0.931 . S
C1512 C1511 1.385 . S
C1512 C1513 1.389 . S
C1513 C1512 1.389 . S
C1513 C1514 1.387 . S
C1514 H1499 0.930 . S
C1514 C1509 1.390 . S
C1514 C1513 1.387 . S
H1515 C1527 0.930 . S
H1516 C1529 0.930 . S
H1517 C1530 0.930 . S
H1518 C1534 0.959 . S
H1519 C1534 0.959 . S
H1520 C1534 0.961 . S
H1521 C1535 0.960 . S
H1522 C1535 0.961 . S
H1523 C1535 0.959 . S
H1524 C1538 0.929 . S
H1525 C1539 0.931 . S
H1526 C1541 0.930 . S
C1527 H1515 0.930 . S
C1527 C1528 1.399 . S
C1527 C1532 1.399 . S
C1528 C1527 1.399 . S
C1528 C1529 1.376 . S
C1529 H1516 0.930 . S
C1529 C1528 1.376 . S
C1529 C1530 1.388 . S
C1530 H1517 0.930 . S
C1530 C1529 1.388 . S
C1530 C1531 1.390 . S
C1531 C1530 1.390 . S
C1531 C1532 1.394 . S
C1531 C1537 1.465 . S
C1532 C1527 1.399 . S
C1532 C1531 1.394 . S
C1532 C1533 1.516 . S
C1533 C1532 1.516 . S
C1533 C1534 1.502 . S
C1533 C1535 1.561 . S
C1533 C1536 1.526 . S
C1534 H1518 0.959 . S
C1534 H1519 0.959 . S
C1534 H1520 0.961 . S
C1534 C1533 1.502 . S
C1535 H1521 0.960 . S
C1535 H1522 0.961 . S
C1535 H1523 0.959 . S
C1535 C1533 1.561 . S
C1536 C1533 1.526 . S
C1536 C1537 1.396 . S
C1536 C1541 1.390 . S
C1537 C1531 1.465 . S
C1537 C1536 1.396 . S
C1537 C1538 1.399 . S
C1538 H1524 0.929 . S
C1538 C1537 1.399 . S
C1538 C1539 1.385 . S
C1539 H1525 0.931 . S
C1539 C1538 1.385 . S
C1539 C1540 1.389 . S
C1540 C1539 1.389 . S
C1540 C1541 1.387 . S
C1541 H1526 0.930 . S
C1541 C1536 1.390 . S
C1541 C1540 1.387 . S
H1542 C1554 0.930 . S
H1543 C1556 0.930 . S
H1544 C1557 0.930 . S
H1545 C1561 0.959 . S
H1546 C1561 0.959 . S
H1547 C1561 0.961 . S
H1548 C1562 0.960 . S
H1549 C1562 0.961 . S
H1550 C1562 0.959 . S
H1551 C1565 0.929 . S
H1552 C1566 0.931 . S
H1553 C1568 0.930 . S
C1554 H1542 0.930 . S
C1554 C1555 1.399 . S
C1554 C1559 1.399 . S
C1555 C1554 1.399 . S
C1555 C1556 1.376 . S
C1556 H1543 0.930 . S
C1556 C1555 1.376 . S
C1556 C1557 1.388 . S
C1557 H1544 0.930 . S
C1557 C1556 1.388 . S
C1557 C1558 1.390 . S
C1558 C1557 1.390 . S
C1558 C1559 1.394 . S
C1558 C1564 1.465 . S
C1559 C1554 1.399 . S
C1559 C1558 1.394 . S
C1559 C1560 1.516 . S
C1560 C1559 1.516 . S
C1560 C1561 1.502 . S
C1560 C1562 1.561 . S
C1560 C1563 1.526 . S
C1561 H1545 0.959 . S
C1561 H1546 0.959 . S
C1561 H1547 0.961 . S
C1561 C1560 1.502 . S
C1562 H1548 0.960 . S
C1562 H1549 0.961 . S
C1562 H1550 0.959 . S
C1562 C1560 1.561 . S
C1563 C1560 1.526 . S
C1563 C1564 1.396 . S
C1563 C1568 1.390 . S
C1564 C1558 1.465 . S
C1564 C1563 1.396 . S
C1564 C1565 1.399 . S
C1565 H1551 0.929 . S
C1565 C1564 1.399 . S
C1565 C1566 1.385 . S
C1566 H1552 0.931 . S
C1566 C1565 1.385 . S
C1566 C1567 1.389 . S
C1567 C1566 1.389 . S
C1567 C1568 1.387 . S
C1568 H1553 0.930 . S
C1568 C1563 1.390 . S
C1568 C1567 1.387 . S
H1569 C1581 0.930 . S
H1570 C1583 0.930 . S
H1571 C1584 0.930 . S
H1572 C1588 0.959 . S
H1573 C1588 0.959 . S
H1574 C1588 0.961 . S
H1575 C1589 0.960 . S
H1576 C1589 0.961 . S
H1577 C1589 0.959 . S
H1578 C1592 0.929 . S
H1579 C1593 0.931 . S
H1580 C1595 0.930 . S
C1581 H1569 0.930 . S
C1581 C1582 1.399 . S
C1581 C1586 1.399 . S
C1582 C1581 1.399 . S
C1582 C1583 1.376 . S
C1583 H1570 0.930 . S
C1583 C1582 1.376 . S
C1583 C1584 1.388 . S
C1584 H1571 0.930 . S
C1584 C1583 1.388 . S
C1584 C1585 1.390 . S
C1585 C1584 1.390 . S
C1585 C1586 1.394 . S
C1585 C1591 1.465 . S
C1586 C1581 1.399 . S
C1586 C1585 1.394 . S
C1586 C1587 1.516 . S
C1587 C1586 1.516 . S
C1587 C1588 1.502 . S
C1587 C1589 1.561 . S
C1587 C1590 1.526 . S
C1588 H1572 0.959 . S
C1588 H1573 0.959 . S
C1588 H1574 0.961 . S
C1588 C1587 1.502 . S
C1589 H1575 0.960 . S
C1589 H1576 0.961 . S
C1589 H1577 0.959 . S
C1589 C1587 1.561 . S
C1590 C1587 1.526 . S
C1590 C1591 1.396 . S
C1590 C1595 1.390 . S
C1591 C1585 1.465 . S
C1591 C1590 1.396 . S
C1591 C1592 1.399 . S
C1592 H1578 0.929 . S
C1592 C1591 1.399 . S
C1592 C1593 1.385 . S
C1593 H1579 0.931 . S
C1593 C1592 1.385 . S
C1593 C1594 1.389 . S
C1594 C1593 1.389 . S
C1594 C1595 1.387 . S
C1595 H1580 0.930 . S
C1595 C1590 1.390 . S
C1595 C1594 1.387 . S
H1596 C1608 0.930 . S
H1597 C1610 0.930 . S
H1598 C1611 0.930 . S
H1599 C1615 0.959 . S
H1600 C1615 0.959 . S
H1601 C1615 0.961 . S
H1602 C1616 0.960 . S
H1603 C1616 0.961 . S
H1604 C1616 0.959 . S
H1605 C1619 0.929 . S
H1606 C1620 0.931 . S
H1607 C1622 0.930 . S
C1608 H1596 0.930 . S
C1608 C1609 1.399 . S
C1608 C1613 1.399 . S
C1609 C1608 1.399 . S
C1609 C1610 1.376 . S
C1610 H1597 0.930 . S
C1610 C1609 1.376 . S
C1610 C1611 1.388 . S
C1611 H1598 0.930 . S
C1611 C1610 1.388 . S
C1611 C1612 1.390 . S
C1612 C1611 1.390 . S
C1612 C1613 1.394 . S
C1612 C1618 1.465 . S
C1613 C1608 1.399 . S
C1613 C1612 1.394 . S
C1613 C1614 1.516 . S
C1614 C1613 1.516 . S
C1614 C1615 1.502 . S
C1614 C1616 1.561 . S
C1614 C1617 1.526 . S
C1615 H1599 0.959 . S
C1615 H1600 0.959 . S
C1615 H1601 0.961 . S
C1615 C1614 1.502 . S
C1616 H1602 0.960 . S
C1616 H1603 0.961 . S
C1616 H1604 0.959 . S
C1616 C1614 1.561 . S
C1617 C1614 1.526 . S
C1617 C1618 1.396 . S
C1617 C1622 1.390 . S
C1618 C1612 1.465 . S
C1618 C1617 1.396 . S
C1618 C1619 1.399 . S
C1619 H1605 0.929 . S
C1619 C1618 1.399 . S
C1619 C1620 1.385 . S
C1620 H1606 0.931 . S
C1620 C1619 1.385 . S
C1620 C1621 1.389 . S
C1621 C1620 1.389 . S
C1621 C1622 1.387 . S
C1622 H1607 0.930 . S
C1622 C1617 1.390 . S
C1622 C1621 1.387 . S
H1623 C1635 0.930 . S
H1624 C1637 0.930 . S
H1625 C1638 0.930 . S
H1626 C1642 0.959 . S
H1627 C1642 0.959 . S
H1628 C1642 0.961 . S
H1629 C1643 0.960 . S
H1630 C1643 0.961 . S
H1631 C1643 0.959 . S
H1632 C1646 0.929 . S
H1633 C1647 0.931 . S
H1634 C1649 0.930 . S
C1635 H1623 0.930 . S
C1635 C1636 1.399 . S
C1635 C1640 1.399 . S
C1636 C1635 1.399 . S
C1636 C1637 1.376 . S
C1637 H1624 0.930 . S
C1637 C1636 1.376 . S
C1637 C1638 1.388 . S
C1638 H1625 0.930 . S
C1638 C1637 1.388 . S
C1638 C1639 1.390 . S
C1639 C1638 1.390 . S
C1639 C1640 1.394 . S
C1639 C1645 1.465 . S
C1640 C1635 1.399 . S
C1640 C1639 1.394 . S
C1640 C1641 1.516 . S
C1641 C1640 1.516 . S
C1641 C1642 1.502 . S
C1641 C1643 1.561 . S
C1641 C1644 1.526 . S
C1642 H1626 0.959 . S
C1642 H1627 0.959 . S
C1642 H1628 0.961 . S
C1642 C1641 1.502 . S
C1643 H1629 0.960 . S
C1643 H1630 0.961 . S
C1643 H1631 0.959 . S
C1643 C1641 1.561 . S
C1644 C1641 1.526 . S
C1644 C1645 1.396 . S
C1644 C1649 1.390 . S
C1645 C1639 1.465 . S
C1645 C1644 1.396 . S
C1645 C1646 1.399 . S
C1646 H1632 0.929 . S
C1646 C1645 1.399 . S
C1646 C1647 1.385 . S
C1647 H1633 0.931 . S
C1647 C1646 1.385 . S
C1647 C1648 1.389 . S
C1648 C1647 1.389 . S
C1648 C1649 1.387 . S
C1649 H1634 0.930 . S
C1649 C1644 1.390 . S
C1649 C1648 1.387 . S
H1650 C1662 0.930 . S
H1651 C1664 0.930 . S
H1652 C1665 0.930 . S
H1653 C1669 0.959 . S
H1654 C1669 0.959 . S
H1655 C1669 0.961 . S
H1656 C1670 0.960 . S
H1657 C1670 0.961 . S
H1658 C1670 0.959 . S
H1659 C1673 0.929 . S
H1660 C1674 0.931 . S
H1661 C1676 0.930 . S
C1662 H1650 0.930 . S
C1662 C1663 1.399 . S
C1662 C1667 1.399 . S
C1663 C1662 1.399 . S
C1663 C1664 1.376 . S
C1664 H1651 0.930 . S
C1664 C1663 1.376 . S
C1664 C1665 1.388 . S
C1665 H1652 0.930 . S
C1665 C1664 1.388 . S
C1665 C1666 1.390 . S
C1666 C1665 1.390 . S
C1666 C1667 1.394 . S
C1666 C1672 1.465 . S
C1667 C1662 1.399 . S
C1667 C1666 1.394 . S
C1667 C1668 1.516 . S
C1668 C1667 1.516 . S
C1668 C1669 1.502 . S
C1668 C1670 1.561 . S
C1668 C1671 1.526 . S
C1669 H1653 0.959 . S
C1669 H1654 0.959 . S
C1669 H1655 0.961 . S
C1669 C1668 1.502 . S
C1670 H1656 0.960 . S
C1670 H1657 0.961 . S
C1670 H1658 0.959 . S
C1670 C1668 1.561 . S
C1671 C1668 1.526 . S
C1671 C1672 1.396 . S
C1671 C1676 1.390 . S
C1672 C1666 1.465 . S
C1672 C1671 1.396 . S
C1672 C1673 1.399 . S
C1673 H1659 0.929 . S
C1673 C1672 1.399 . S
C1673 C1674 1.385 . S
C1674 H1660 0.931 . S
C1674 C1673 1.385 . S
C1674 C1675 1.389 . S
C1675 C1674 1.389 . S
C1675 C1676 1.387 . S
C1676 H1661 0.930 . S
C1676 C1671 1.390 . S
C1676 C1675 1.387 . S
H1677 C1689 0.930 . S
H1678 C1691 0.930 . S
H1679 C1692 0.930 . S
H1680 C1696 0.959 . S
H1681 C1696 0.959 . S
H1682 C1696 0.961 . S
H1683 C1697 0.960 . S
H1684 C1697 0.961 . S
H1685 C1697 0.959 . S
H1686 C1700 0.929 . S
H1687 C1701 0.931 . S
H1688 C1703 0.930 . S
C1689 H1677 0.930 . S
C1689 C1690 1.399 . S
C1689 C1694 1.399 . S
C1690 C1689 1.399 . S
C1690 C1691 1.376 . S
C1691 H1678 0.930 . S
C1691 C1690 1.376 . S
C1691 C1692 1.388 . S
C1692 H1679 0.930 . S
C1692 C1691 1.388 . S
C1692 C1693 1.390 . S
C1693 C1692 1.390 . S
C1693 C1694 1.394 . S
C1693 C1699 1.465 . S
C1694 C1689 1.399 . S
C1694 C1693 1.394 . S
C1694 C1695 1.516 . S
C1695 C1694 1.516 . S
C1695 C1696 1.502 . S
C1695 C1697 1.561 . S
C1695 C1698 1.526 . S
C1696 H1680 0.959 . S
C1696 H1681 0.959 . S
C1696 H1682 0.961 . S
C1696 C1695 1.502 . S
C1697 H1683 0.960 . S
C1697 H1684 0.961 . S
C1697 H1685 0.959 . S
C1697 C1695 1.561 . S
C1698 C1695 1.526 . S
C1698 C1699 1.396 . S
C1698 C1703 1.390 . S
C1699 C1693 1.465 . S
C1699 C1698 1.396 . S
C1699 C1700 1.399 . S
C1700 H1686 0.929 . S
C1700 C1699 1.399 . S
C1700 C1701 1.385 . S
C1701 H1687 0.931 . S
C1701 C1700 1.385 . S
C1701 C1702 1.389 . S
C1702 C1701 1.389 . S
C1702 C1703 1.387 . S
C1703 H1688 0.930 . S
C1703 C1698 1.390 . S
C1703 C1702 1.387 . S
H1704 C1716 0.930 . S
H1705 C1718 0.930 . S
H1706 C1719 0.930 . S
H1707 C1723 0.959 . S
H1708 C1723 0.959 . S
H1709 C1723 0.961 . S
H1710 C1724 0.960 . S
H1711 C1724 0.961 . S
H1712 C1724 0.959 . S
H1713 C1727 0.929 . S
H1714 C1728 0.931 . S
H1715 C1730 0.930 . S
C1716 H1704 0.930 . S
C1716 C1717 1.399 . S
C1716 C1721 1.399 . S
C1717 C1716 1.399 . S
C1717 C1718 1.376 . S
C1718 H1705 0.930 . S
C1718 C1717 1.376 . S
C1718 C1719 1.388 . S
C1719 H1706 0.930 . S
C1719 C1718 1.388 . S
C1719 C1720 1.390 . S
C1720 C1719 1.390 . S
C1720 C1721 1.394 . S
C1720 C1726 1.465 . S
C1721 C1716 1.399 . S
C1721 C1720 1.394 . S
C1721 C1722 1.516 . S
C1722 C1721 1.516 . S
C1722 C1723 1.502 . S
C1722 C1724 1.561 . S
C1722 C1725 1.526 . S
C1723 H1707 0.959 . S
C1723 H1708 0.959 . S
C1723 H1709 0.961 . S
C1723 C1722 1.502 . S
C1724 H1710 0.960 . S
C1724 H1711 0.961 . S
C1724 H1712 0.959 . S
C1724 C1722 1.561 . S
C1725 C1722 1.526 . S
C1725 C1726 1.396 . S
C1725 C1730 1.390 . S
C1726 C1720 1.465 . S
C1726 C1725 1.396 . S
C1726 C1727 1.399 . S
C1727 H1713 0.929 . S
C1727 C1726 1.399 . S
C1727 C1728 1.385 . S
C1728 H1714 0.931 . S
C1728 C1727 1.385 . S
C1728 C1729 1.389 . S
C1729 C1728 1.389 . S
C1729 C1730 1.387 . S
C1730 H1715 0.930 . S
C1730 C1725 1.390 . S
C1730 C1729 1.387 . S
H1731 C1743 0.930 . S
H1732 C1745 0.930 . S
H1733 C1746 0.930 . S
H1734 C1750 0.959 . S
H1735 C1750 0.959 . S
H1736 C1750 0.961 . S
H1737 C1751 0.960 . S
H1738 C1751 0.961 . S
H1739 C1751 0.959 . S
H1740 C1754 0.929 . S
H1741 C1755 0.931 . S
H1742 C1757 0.930 . S
C1743 H1731 0.930 . S
C1743 C1744 1.399 . S
C1743 C1748 1.399 . S
C1744 C1743 1.399 . S
C1744 C1745 1.376 . S
C1745 H1732 0.930 . S
C1745 C1744 1.376 . S
C1745 C1746 1.388 . S
C1746 H1733 0.930 . S
C1746 C1745 1.388 . S
C1746 C1747 1.390 . S
C1747 C1746 1.390 . S
C1747 C1748 1.394 . S
C1747 C1753 1.465 . S
C1748 C1743 1.399 . S
C1748 C1747 1.394 . S
C1748 C1749 1.516 . S
C1749 C1748 1.516 . S
C1749 C1750 1.502 . S
C1749 C1751 1.561 . S
C1749 C1752 1.526 . S
C1750 H1734 0.959 . S
C1750 H1735 0.959 . S
C1750 H1736 0.961 . S
C1750 C1749 1.502 . S
C1751 H1737 0.960 . S
C1751 H1738 0.961 . S
C1751 H1739 0.959 . S
C1751 C1749 1.561 . S
C1752 C1749 1.526 . S
C1752 C1753 1.396 . S
C1752 C1757 1.390 . S
C1753 C1747 1.465 . S
C1753 C1752 1.396 . S
C1753 C1754 1.399 . S
C1754 H1740 0.929 . S
C1754 C1753 1.399 . S
C1754 C1755 1.385 . S
C1755 H1741 0.931 . S
C1755 C1754 1.385 . S
C1755 C1756 1.389 . S
C1756 C1755 1.389 . S
C1756 C1757 1.387 . S
C1757 H1742 0.930 . S
C1757 C1752 1.390 . S
C1757 C1756 1.387 . S
H1758 C1770 0.930 . S
H1759 C1772 0.930 . S
H1760 C1773 0.930 . S
H1761 C1777 0.959 . S
H1762 C1777 0.959 . S
H1763 C1777 0.961 . S
H1764 C1778 0.960 . S
H1765 C1778 0.961 . S
H1766 C1778 0.959 . S
H1767 C1781 0.929 . S
H1768 C1782 0.931 . S
H1769 C1784 0.930 . S
C1770 H1758 0.930 . S
C1770 C1771 1.399 . S
C1770 C1775 1.399 . S
C1771 C1770 1.399 . S
C1771 C1772 1.376 . S
C1772 H1759 0.930 . S
C1772 C1771 1.376 . S
C1772 C1773 1.388 . S
C1773 H1760 0.930 . S
C1773 C1772 1.388 . S
C1773 C1774 1.390 . S
C1774 C1773 1.390 . S
C1774 C1775 1.394 . S
C1774 C1780 1.465 . S
C1775 C1770 1.399 . S
C1775 C1774 1.394 . S
C1775 C1776 1.516 . S
C1776 C1775 1.516 . S
C1776 C1777 1.502 . S
C1776 C1778 1.561 . S
C1776 C1779 1.526 . S
C1777 H1761 0.959 . S
C1777 H1762 0.959 . S
C1777 H1763 0.961 . S
C1777 C1776 1.502 . S
C1778 H1764 0.960 . S
C1778 H1765 0.961 . S
C1778 H1766 0.959 . S
C1778 C1776 1.561 . S
C1779 C1776 1.526 . S
C1779 C1780 1.396 . S
C1779 C1784 1.390 . S
C1780 C1774 1.465 . S
C1780 C1779 1.396 . S
C1780 C1781 1.399 . S
C1781 H1767 0.929 . S
C1781 C1780 1.399 . S
C1781 C1782 1.385 . S
C1782 H1768 0.931 . S
C1782 C1781 1.385 . S
C1782 C1783 1.389 . S
C1783 C1782 1.389 . S
C1783 C1784 1.387 . S
C1784 H1769 0.930 . S
C1784 C1779 1.390 . S
C1784 C1783 1.387 . S
H1785 C1797 0.930 . S
H1786 C1799 0.930 . S
H1787 C1800 0.930 . S
H1788 C1804 0.959 . S
H1789 C1804 0.959 . S
H1790 C1804 0.961 . S
H1791 C1805 0.960 . S
H1792 C1805 0.961 . S
H1793 C1805 0.959 . S
H1794 C1808 0.929 . S
H1795 C1809 0.931 . S
H1796 C1811 0.930 . S
C1797 H1785 0.930 . S
C1797 C1798 1.399 . S
C1797 C1802 1.399 . S
C1798 C1797 1.399 . S
C1798 C1799 1.376 . S
C1799 H1786 0.930 . S
C1799 C1798 1.376 . S
C1799 C1800 1.388 . S
C1800 H1787 0.930 . S
C1800 C1799 1.388 . S
C1800 C1801 1.390 . S
C1801 C1800 1.390 . S
C1801 C1802 1.394 . S
C1801 C1807 1.465 . S
C1802 C1797 1.399 . S
C1802 C1801 1.394 . S
C1802 C1803 1.516 . S
C1803 C1802 1.516 . S
C1803 C1804 1.502 . S
C1803 C1805 1.561 . S
C1803 C1806 1.526 . S
C1804 H1788 0.959 . S
C1804 H1789 0.959 . S
C1804 H1790 0.961 . S
C1804 C1803 1.502 . S
C1805 H1791 0.960 . S
C1805 H1792 0.961 . S
C1805 H1793 0.959 . S
C1805 C1803 1.561 . S
C1806 C1803 1.526 . S
C1806 C1807 1.396 . S
C1806 C1811 1.390 . S
C1807 C1801 1.465 . S
C1807 C1806 1.396 . S
C1807 C1808 1.399 . S
C1808 H1794 0.929 . S
C1808 C1807 1.399 . S
C1808 C1809 1.385 . S
C1809 H1795 0.931 . S
C1809 C1808 1.385 . S
C1809 C1810 1.389 . S
C1810 C1809 1.389 . S
C1810 C1811 1.387 . S
C1811 H1796 0.930 . S
C1811 C1806 1.390 . S
C1811 C1810 1.387 . S
H1812 C1824 0.930 . S
H1813 C1826 0.930 . S
H1814 C1827 0.930 . S
H1815 C1831 0.959 . S
H1816 C1831 0.959 . S
H1817 C1831 0.961 . S
H1818 C1832 0.960 . S
H1819 C1832 0.961 . S
H1820 C1832 0.959 . S
H1821 C1835 0.929 . S
H1822 C1836 0.931 . S
H1823 C1838 0.930 . S
C1824 H1812 0.930 . S
C1824 C1825 1.399 . S
C1824 C1829 1.399 . S
C1825 C1824 1.399 . S
C1825 C1826 1.376 . S
C1826 H1813 0.930 . S
C1826 C1825 1.376 . S
C1826 C1827 1.388 . S
C1827 H1814 0.930 . S
C1827 C1826 1.388 . S
C1827 C1828 1.390 . S
C1828 C1827 1.390 . S
C1828 C1829 1.394 . S
C1828 C1834 1.465 . S
C1829 C1824 1.399 . S
C1829 C1828 1.394 . S
C1829 C1830 1.516 . S
C1830 C1829 1.516 . S
C1830 C1831 1.502 . S
C1830 C1832 1.561 . S
C1830 C1833 1.526 . S
C1831 H1815 0.959 . S
C1831 H1816 0.959 . S
C1831 H1817 0.961 . S
C1831 C1830 1.502 . S
C1832 H1818 0.960 . S
C1832 H1819 0.961 . S
C1832 H1820 0.959 . S
C1832 C1830 1.561 . S
C1833 C1830 1.526 . S
C1833 C1834 1.396 . S
C1833 C1838 1.390 . S
C1834 C1828 1.465 . S
C1834 C1833 1.396 . S
C1834 C1835 1.399 . S
C1835 H1821 0.929 . S
C1835 C1834 1.399 . S
C1835 C1836 1.385 . S
C1836 H1822 0.931 . S
C1836 C1835 1.385 . S
C1836 C1837 1.389 . S
C1837 C1836 1.389 . S
C1837 C1838 1.387 . S
C1838 H1823 0.930 . S
C1838 C1833 1.390 . S
C1838 C1837 1.387 . S
H1839 C1851 0.930 . S
H1840 C1853 0.930 . S
H1841 C1854 0.930 . S
H1842 C1858 0.959 . S
H1843 C1858 0.959 . S
H1844 C1858 0.961 . S
H1845 C1859 0.960 . S
H1846 C1859 0.961 . S
H1847 C1859 0.959 . S
H1848 C1862 0.929 . S
H1849 C1863 0.931 . S
H1850 C1865 0.930 . S
C1851 H1839 0.930 . S
C1851 C1852 1.399 . S
C1851 C1856 1.399 . S
C1852 C1851 1.399 . S
C1852 C1853 1.376 . S
C1853 H1840 0.930 . S
C1853 C1852 1.376 . S
C1853 C1854 1.388 . S
C1854 H1841 0.930 . S
C1854 C1853 1.388 . S
C1854 C1855 1.390 . S
C1855 C1854 1.390 . S
C1855 C1856 1.394 . S
C1855 C1861 1.465 . S
C1856 C1851 1.399 . S
C1856 C1855 1.394 . S
C1856 C1857 1.516 . S
C1857 C1856 1.516 . S
C1857 C1858 1.502 . S
C1857 C1859 1.561 . S
C1857 C1860 1.526 . S
C1858 H1842 0.959 . S
C1858 H1843 0.959 . S
C1858 H1844 0.961 . S
C1858 C1857 1.502 . S
C1859 H1845 0.960 . S
C1859 H1846 0.961 . S
C1859 H1847 0.959 . S
C1859 C1857 1.561 . S
C1860 C1857 1.526 . S
C1860 C1861 1.396 . S
C1860 C1865 1.390 . S
C1861 C1855 1.465 . S
C1861 C1860 1.396 . S
C1861 C1862 1.399 . S
C1862 H1848 0.929 . S
C1862 C1861 1.399 . S
C1862 C1863 1.385 . S
C1863 H1849 0.931 . S
C1863 C1862 1.385 . S
C1863 C1864 1.389 . S
C1864 C1863 1.389 . S
C1864 C1865 1.387 . S
C1865 H1850 0.930 . S
C1865 C1860 1.390 . S
C1865 C1864 1.387 . S
H1866 C1878 0.930 . S
H1867 C1880 0.930 . S
H1868 C1881 0.930 . S
H1869 C1885 0.959 . S
H1870 C1885 0.959 . S
H1871 C1885 0.961 . S
H1872 C1886 0.960 . S
H1873 C1886 0.961 . S
H1874 C1886 0.959 . S
H1875 C1889 0.929 . S
H1876 C1890 0.931 . S
H1877 C1892 0.930 . S
C1878 H1866 0.930 . S
C1878 C1879 1.399 . S
C1878 C1883 1.399 . S
C1879 C1878 1.399 . S
C1879 C1880 1.376 . S
C1880 H1867 0.930 . S
C1880 C1879 1.376 . S
C1880 C1881 1.388 . S
C1881 H1868 0.930 . S
C1881 C1880 1.388 . S
C1881 C1882 1.390 . S
C1882 C1881 1.390 . S
C1882 C1883 1.394 . S
C1882 C1888 1.465 . S
C1883 C1878 1.399 . S
C1883 C1882 1.394 . S
C1883 C1884 1.516 . S
C1884 C1883 1.516 . S
C1884 C1885 1.502 . S
C1884 C1886 1.561 . S
C1884 C1887 1.526 . S
C1885 H1869 0.959 . S
C1885 H1870 0.959 . S
C1885 H1871 0.961 . S
C1885 C1884 1.502 . S
C1886 H1872 0.960 . S
C1886 H1873 0.961 . S
C1886 H1874 0.959 . S
C1886 C1884 1.561 . S
C1887 C1884 1.526 . S
C1887 C1888 1.396 . S
C1887 C1892 1.390 . S
C1888 C1882 1.465 . S
C1888 C1887 1.396 . S
C1888 C1889 1.399 . S
C1889 H1875 0.929 . S
C1889 C1888 1.399 . S
C1889 C1890 1.385 . S
C1890 H1876 0.931 . S
C1890 C1889 1.385 . S
C1890 C1891 1.389 . S
C1891 C1890 1.389 . S
C1891 C1892 1.387 . S
C1892 H1877 0.930 . S
C1892 C1887 1.390 . S
C1892 C1891 1.387 . S
H1893 C1905 0.930 . S
H1894 C1907 0.930 1_655 S
H1895 C1908 0.930 . S
H1896 C1912 0.959 . S
H1897 C1912 0.959 . S
H1898 C1912 0.961 . S
H1899 C1913 0.960 . S
H1900 C1913 0.961 . S
H1901 C1913 0.959 . S
H1902 C1916 0.929 . S
H1903 C1917 0.931 . S
H1904 C1919 0.930 . S
C1905 H1893 0.930 . S
C1905 C1906 1.399 . S
C1905 C1910 1.399 . S
C1906 C1905 1.399 . S
C1906 C1907 1.376 . S
C1907 H1894 0.930 1_455 S
C1907 C1906 1.376 . S
C1907 C1908 1.388 . S
C1908 H1895 0.930 . S
C1908 C1907 1.388 . S
C1908 C1909 1.390 . S
C1909 C1908 1.390 . S
C1909 C1910 1.394 . S
C1909 C1915 1.465 . S
C1910 C1905 1.399 . S
C1910 C1909 1.394 . S
C1910 C1911 1.516 . S
C1911 C1910 1.516 . S
C1911 C1912 1.502 . S
C1911 C1913 1.561 . S
C1911 C1914 1.526 . S
C1912 H1896 0.959 . S
C1912 H1897 0.959 . S
C1912 H1898 0.961 . S
C1912 C1911 1.502 . S
C1913 H1899 0.960 . S
C1913 H1900 0.961 . S
C1913 H1901 0.959 . S
C1913 C1911 1.561 . S
C1914 C1911 1.526 . S
C1914 C1915 1.396 . S
C1914 C1919 1.390 . S
C1915 C1909 1.465 . S
C1915 C1914 1.396 . S
C1915 C1916 1.399 . S
C1916 H1902 0.929 . S
C1916 C1915 1.399 . S
C1916 C1917 1.385 . S
C1917 H1903 0.931 . S
C1917 C1916 1.385 . S
C1917 C1918 1.389 . S
C1918 C1917 1.389 . S
C1918 C1919 1.387 . S
C1919 H1904 0.930 . S
C1919 C1914 1.390 . S
C1919 C1918 1.387 . S
H1920 C1932 0.930 . S
H1921 C1934 0.930 . S
H1922 C1935 0.930 . S
H1923 C1939 0.959 . S
H1924 C1939 0.959 . S
H1925 C1939 0.961 . S
H1926 C1940 0.960 . S
H1927 C1940 0.961 . S
H1928 C1940 0.959 . S
H1929 C1943 0.929 . S
H1930 C1944 0.931 . S
H1931 C1946 0.930 . S
C1932 H1920 0.930 . S
C1932 C1933 1.399 . S
C1932 C1937 1.399 . S
C1933 C1932 1.399 . S
C1933 C1934 1.376 . S
C1934 H1921 0.930 . S
C1934 C1933 1.376 . S
C1934 C1935 1.388 . S
C1935 H1922 0.930 . S
C1935 C1934 1.388 . S
C1935 C1936 1.390 . S
C1936 C1935 1.390 . S
C1936 C1937 1.394 . S
C1936 C1942 1.465 . S
C1937 C1932 1.399 . S
C1937 C1936 1.394 . S
C1937 C1938 1.516 . S
C1938 C1937 1.516 . S
C1938 C1939 1.502 . S
C1938 C1940 1.561 . S
C1938 C1941 1.526 . S
C1939 H1923 0.959 . S
C1939 H1924 0.959 . S
C1939 H1925 0.961 . S
C1939 C1938 1.502 . S
C1940 H1926 0.960 . S
C1940 H1927 0.961 . S
C1940 H1928 0.959 . S
C1940 C1938 1.561 . S
C1941 C1938 1.526 . S
C1941 C1942 1.396 . S
C1941 C1946 1.390 . S
C1942 C1936 1.465 . S
C1942 C1941 1.396 . S
C1942 C1943 1.399 . S
C1943 H1929 0.929 . S
C1943 C1942 1.399 . S
C1943 C1944 1.385 . S
C1944 H1930 0.931 . S
C1944 C1943 1.385 . S
C1944 C1945 1.389 . S
C1945 C1944 1.389 . S
C1945 C1946 1.387 . S
C1946 H1931 0.930 . S
C1946 C1941 1.390 . S
C1946 C1945 1.387 . S
H1947 C1959 0.930 . S
H1948 C1961 0.930 . S
H1949 C1962 0.930 . S
H1950 C1966 0.959 . S
H1951 C1966 0.959 . S
H1952 C1966 0.961 . S
H1953 C1967 0.960 . S
H1954 C1967 0.961 . S
H1955 C1967 0.959 . S
H1956 C1970 0.929 . S
H1957 C1971 0.931 . S
H1958 C1973 0.930 . S
C1959 H1947 0.930 . S
C1959 C1960 1.399 . S
C1959 C1964 1.399 . S
C1960 C1959 1.399 . S
C1960 C1961 1.376 . S
C1961 H1948 0.930 . S
C1961 C1960 1.376 . S
C1961 C1962 1.388 . S
C1962 H1949 0.930 . S
C1962 C1961 1.388 . S
C1962 C1963 1.390 . S
C1963 C1962 1.390 . S
C1963 C1964 1.394 . S
C1963 C1969 1.465 . S
C1964 C1959 1.399 . S
C1964 C1963 1.394 . S
C1964 C1965 1.516 . S
C1965 C1964 1.516 . S
C1965 C1966 1.502 . S
C1965 C1967 1.561 . S
C1965 C1968 1.526 . S
C1966 H1950 0.959 . S
C1966 H1951 0.959 . S
C1966 H1952 0.961 . S
C1966 C1965 1.502 . S
C1967 H1953 0.960 . S
C1967 H1954 0.961 . S
C1967 H1955 0.959 . S
C1967 C1965 1.561 . S
C1968 C1965 1.526 . S
C1968 C1969 1.396 . S
C1968 C1973 1.390 . S
C1969 C1963 1.465 . S
C1969 C1968 1.396 . S
C1969 C1970 1.399 . S
C1970 H1956 0.929 . S
C1970 C1969 1.399 . S
C1970 C1971 1.385 . S
C1971 H1957 0.931 . S
C1971 C1970 1.385 . S
C1971 C1972 1.389 . S
C1972 C1971 1.389 . S
C1972 C1973 1.387 . S
C1973 H1958 0.930 . S
C1973 C1968 1.390 . S
C1973 C1972 1.387 . S
H1974 C1986 0.930 . S
H1975 C1988 0.930 . S
H1976 C1989 0.930 . S
H1977 C1993 0.959 . S
H1978 C1993 0.959 . S
H1979 C1993 0.961 . S
H1980 C1994 0.960 . S
H1981 C1994 0.961 . S
H1982 C1994 0.959 . S
H1983 C1997 0.929 . S
H1984 C1998 0.931 . S
H1985 C2000 0.930 . S
C1986 H1974 0.930 . S
C1986 C1987 1.399 . S
C1986 C1991 1.399 . S
C1987 C1986 1.399 . S
C1987 C1988 1.376 . S
C1988 H1975 0.930 . S
C1988 C1987 1.376 . S
C1988 C1989 1.388 . S
C1989 H1976 0.930 . S
C1989 C1988 1.388 . S
C1989 C1990 1.390 . S
C1990 C1989 1.390 . S
C1990 C1991 1.394 . S
C1990 C1996 1.465 . S
C1991 C1986 1.399 . S
C1991 C1990 1.394 . S
C1991 C1992 1.516 . S
C1992 C1991 1.516 . S
C1992 C1993 1.502 . S
C1992 C1994 1.561 . S
C1992 C1995 1.526 . S
C1993 H1977 0.959 . S
C1993 H1978 0.959 . S
C1993 H1979 0.961 . S
C1993 C1992 1.502 . S
C1994 H1980 0.960 . S
C1994 H1981 0.961 . S
C1994 H1982 0.959 . S
C1994 C1992 1.561 . S
C1995 C1992 1.526 . S
C1995 C1996 1.396 . S
C1995 C2000 1.390 . S
C1996 C1990 1.465 . S
C1996 C1995 1.396 . S
C1996 C1997 1.399 . S
C1997 H1983 0.929 . S
C1997 C1996 1.399 . S
C1997 C1998 1.385 . S
C1998 H1984 0.931 . S
C1998 C1997 1.385 . S
C1998 C1999 1.389 . S
C1999 C1998 1.389 . S
C1999 C2000 1.387 . S
C2000 H1985 0.930 . S
C2000 C1995 1.390 . S
C2000 C1999 1.387 . S
H2001 C2013 0.930 . S
H2002 C2015 0.930 1_655 S
H2003 C2016 0.930 . S
H2004 C2020 0.959 . S
H2005 C2020 0.959 . S
H2006 C2020 0.961 . S
H2007 C2021 0.960 . S
H2008 C2021 0.961 . S
H2009 C2021 0.959 . S
H2010 C2024 0.929 . S
H2011 C2025 0.931 . S
H2012 C2027 0.930 . S
C2013 H2001 0.930 . S
C2013 C2014 1.399 . S
C2013 C2018 1.399 . S
C2014 C2013 1.399 . S
C2014 C2015 1.376 . S
C2015 H2002 0.930 1_455 S
C2015 C2014 1.376 . S
C2015 C2016 1.388 . S
C2016 H2003 0.930 . S
C2016 C2015 1.388 . S
C2016 C2017 1.390 . S
C2017 C2016 1.390 . S
C2017 C2018 1.394 . S
C2017 C2023 1.465 . S
C2018 C2013 1.399 . S
C2018 C2017 1.394 . S
C2018 C2019 1.516 . S
C2019 C2018 1.516 . S
C2019 C2020 1.502 . S
C2019 C2021 1.561 . S
C2019 C2022 1.526 . S
C2020 H2004 0.959 . S
C2020 H2005 0.959 . S
C2020 H2006 0.961 . S
C2020 C2019 1.502 . S
C2021 H2007 0.960 . S
C2021 H2008 0.961 . S
C2021 H2009 0.959 . S
C2021 C2019 1.561 . S
C2022 C2019 1.526 . S
C2022 C2023 1.396 . S
C2022 C2027 1.390 . S
C2023 C2017 1.465 . S
C2023 C2022 1.396 . S
C2023 C2024 1.399 . S
C2024 H2010 0.929 . S
C2024 C2023 1.399 . S
C2024 C2025 1.385 . S
C2025 H2011 0.931 . S
C2025 C2024 1.385 . S
C2025 C2026 1.389 . S
C2026 C2025 1.389 . S
C2026 C2027 1.387 . S
C2027 H2012 0.930 . S
C2027 C2022 1.390 . S
C2027 C2026 1.387 . S
H2028 C2040 0.930 . S
H2029 C2042 0.930 . S
H2030 C2043 0.930 . S
H2031 C2047 0.959 . S
H2032 C2047 0.959 . S
H2033 C2047 0.961 . S
H2034 C2048 0.960 . S
H2035 C2048 0.961 . S
H2036 C2048 0.959 . S
H2037 C2051 0.929 . S
H2038 C2052 0.931 . S
H2039 C2054 0.930 . S
C2040 H2028 0.930 . S
C2040 C2041 1.399 . S
C2040 C2045 1.399 . S
C2041 C2040 1.399 . S
C2041 C2042 1.376 . S
C2042 H2029 0.930 . S
C2042 C2041 1.376 . S
C2042 C2043 1.388 . S
C2043 H2030 0.930 . S
C2043 C2042 1.388 . S
C2043 C2044 1.390 . S
C2044 C2043 1.390 . S
C2044 C2045 1.394 . S
C2044 C2050 1.465 . S
C2045 C2040 1.399 . S
C2045 C2044 1.394 . S
C2045 C2046 1.516 . S
C2046 C2045 1.516 . S
C2046 C2047 1.502 . S
C2046 C2048 1.561 . S
C2046 C2049 1.526 . S
C2047 H2031 0.959 . S
C2047 H2032 0.959 . S
C2047 H2033 0.961 . S
C2047 C2046 1.502 . S
C2048 H2034 0.960 . S
C2048 H2035 0.961 . S
C2048 H2036 0.959 . S
C2048 C2046 1.561 . S
C2049 C2046 1.526 . S
C2049 C2050 1.396 . S
C2049 C2054 1.390 . S
C2050 C2044 1.465 . S
C2050 C2049 1.396 . S
C2050 C2051 1.399 . S
C2051 H2037 0.929 . S
C2051 C2050 1.399 . S
C2051 C2052 1.385 . S
C2052 H2038 0.931 . S
C2052 C2051 1.385 . S
C2052 C2053 1.389 . S
C2053 C2052 1.389 . S
C2053 C2054 1.387 . S
C2054 H2039 0.930 . S
C2054 C2049 1.390 . S
C2054 C2053 1.387 . S
H2055 C2067 0.930 . S
H2056 C2069 0.930 . S
H2057 C2070 0.930 . S
H2058 C2074 0.959 . S
H2059 C2074 0.959 . S
H2060 C2074 0.961 . S
H2061 C2075 0.960 . S
H2062 C2075 0.961 . S
H2063 C2075 0.959 . S
H2064 C2078 0.929 . S
H2065 C2079 0.931 . S
H2066 C2081 0.930 . S
C2067 H2055 0.930 . S
C2067 C2068 1.399 . S
C2067 C2072 1.399 . S
C2068 C2067 1.399 . S
C2068 C2069 1.376 . S
C2069 H2056 0.930 . S
C2069 C2068 1.376 . S
C2069 C2070 1.388 . S
C2070 H2057 0.930 . S
C2070 C2069 1.388 . S
C2070 C2071 1.390 . S
C2071 C2070 1.390 . S
C2071 C2072 1.394 . S
C2071 C2077 1.465 . S
C2072 C2067 1.399 . S
C2072 C2071 1.394 . S
C2072 C2073 1.516 . S
C2073 C2072 1.516 . S
C2073 C2074 1.502 . S
C2073 C2075 1.561 . S
C2073 C2076 1.526 . S
C2074 H2058 0.959 . S
C2074 H2059 0.959 . S
C2074 H2060 0.961 . S
C2074 C2073 1.502 . S
C2075 H2061 0.960 . S
C2075 H2062 0.961 . S
C2075 H2063 0.959 . S
C2075 C2073 1.561 . S
C2076 C2073 1.526 . S
C2076 C2077 1.396 . S
C2076 C2081 1.390 . S
C2077 C2071 1.465 . S
C2077 C2076 1.396 . S
C2077 C2078 1.399 . S
C2078 H2064 0.929 . S
C2078 C2077 1.399 . S
C2078 C2079 1.385 . S
C2079 H2065 0.931 . S
C2079 C2078 1.385 . S
C2079 C2080 1.389 . S
C2080 C2079 1.389 . S
C2080 C2081 1.387 . S
C2081 H2066 0.930 . S
C2081 C2076 1.390 . S
C2081 C2080 1.387 . S
H2082 C2094 0.930 . S
H2083 C2096 0.930 . S
H2084 C2097 0.930 . S
H2085 C2101 0.959 . S
H2086 C2101 0.959 . S
H2087 C2101 0.961 . S
H2088 C2102 0.960 . S
H2089 C2102 0.961 . S
H2090 C2102 0.959 . S
H2091 C2105 0.929 . S
H2092 C2106 0.931 . S
H2093 C2108 0.930 . S
C2094 H2082 0.930 . S
C2094 C2095 1.399 . S
C2094 C2099 1.399 . S
C2095 C2094 1.399 . S
C2095 C2096 1.376 . S
C2096 H2083 0.930 . S
C2096 C2095 1.376 . S
C2096 C2097 1.388 . S
C2097 H2084 0.930 . S
C2097 C2096 1.388 . S
C2097 C2098 1.390 . S
C2098 C2097 1.390 . S
C2098 C2099 1.394 . S
C2098 C2104 1.465 . S
C2099 C2094 1.399 . S
C2099 C2098 1.394 . S
C2099 C2100 1.516 . S
C2100 C2099 1.516 . S
C2100 C2101 1.502 . S
C2100 C2102 1.561 . S
C2100 C2103 1.526 . S
C2101 H2085 0.959 . S
C2101 H2086 0.959 . S
C2101 H2087 0.961 . S
C2101 C2100 1.502 . S
C2102 H2088 0.960 . S
C2102 H2089 0.961 . S
C2102 H2090 0.959 . S
C2102 C2100 1.561 . S
C2103 C2100 1.526 . S
C2103 C2104 1.396 . S
C2103 C2108 1.390 . S
C2104 C2098 1.465 . S
C2104 C2103 1.396 . S
C2104 C2105 1.399 . S
C2105 H2091 0.929 . S
C2105 C2104 1.399 . S
C2105 C2106 1.385 . S
C2106 H2092 0.931 . S
C2106 C2105 1.385 . S
C2106 C2107 1.389 . S
C2107 C2106 1.389 . S
C2107 C2108 1.387 . S
C2108 H2093 0.930 . S
C2108 C2103 1.390 . S
C2108 C2107 1.387 . S
H2109 C2121 0.930 . S
H2110 C2123 0.930 . S
H2111 C2124 0.930 . S
H2112 C2128 0.959 . S
H2113 C2128 0.959 . S
H2114 C2128 0.961 . S
H2115 C2129 0.960 . S
H2116 C2129 0.961 . S
H2117 C2129 0.959 . S
H2118 C2132 0.929 . S
H2119 C2133 0.931 . S
H2120 C2135 0.930 . S
C2121 H2109 0.930 . S
C2121 C2122 1.399 . S
C2121 C2126 1.399 . S
C2122 C2121 1.399 . S
C2122 C2123 1.376 . S
C2123 H2110 0.930 . S
C2123 C2122 1.376 . S
C2123 C2124 1.388 . S
C2124 H2111 0.930 . S
C2124 C2123 1.388 . S
C2124 C2125 1.390 . S
C2125 C2124 1.390 . S
C2125 C2126 1.394 . S
C2125 C2131 1.465 . S
C2126 C2121 1.399 . S
C2126 C2125 1.394 . S
C2126 C2127 1.516 . S
C2127 C2126 1.516 . S
C2127 C2128 1.502 . S
C2127 C2129 1.561 . S
C2127 C2130 1.526 . S
C2128 H2112 0.959 . S
C2128 H2113 0.959 . S
C2128 H2114 0.961 . S
C2128 C2127 1.502 . S
C2129 H2115 0.960 . S
C2129 H2116 0.961 . S
C2129 H2117 0.959 . S
C2129 C2127 1.561 . S
C2130 C2127 1.526 . S
C2130 C2131 1.396 . S
C2130 C2135 1.390 . S
C2131 C2125 1.465 . S
C2131 C2130 1.396 . S
C2131 C2132 1.399 . S
C2132 H2118 0.929 . S
C2132 C2131 1.399 . S
C2132 C2133 1.385 . S
C2133 H2119 0.931 . S
C2133 C2132 1.385 . S
C2133 C2134 1.389 . S
C2134 C2133 1.389 . S
C2134 C2135 1.387 . S
C2135 H2120 0.930 . S
C2135 C2130 1.390 . S
C2135 C2134 1.387 . S
H2136 C2148 0.930 . S
H2137 C2150 0.930 . S
H2138 C2151 0.930 . S
H2139 C2155 0.959 . S
H2140 C2155 0.959 . S
H2141 C2155 0.961 . S
H2142 C2156 0.960 . S
H2143 C2156 0.961 . S
H2144 C2156 0.959 . S
H2145 C2159 0.929 . S
H2146 C2160 0.931 . S
H2147 C2162 0.930 . S
C2148 H2136 0.930 . S
C2148 C2149 1.399 . S
C2148 C2153 1.399 . S
C2149 C2148 1.399 . S
C2149 C2150 1.376 . S
C2150 H2137 0.930 . S
C2150 C2149 1.376 . S
C2150 C2151 1.388 . S
C2151 H2138 0.930 . S
C2151 C2150 1.388 . S
C2151 C2152 1.390 . S
C2152 C2151 1.390 . S
C2152 C2153 1.394 . S
C2152 C2158 1.465 . S
C2153 C2148 1.399 . S
C2153 C2152 1.394 . S
C2153 C2154 1.516 . S
C2154 C2153 1.516 . S
C2154 C2155 1.502 . S
C2154 C2156 1.561 . S
C2154 C2157 1.526 . S
C2155 H2139 0.959 . S
C2155 H2140 0.959 . S
C2155 H2141 0.961 . S
C2155 C2154 1.502 . S
C2156 H2142 0.960 . S
C2156 H2143 0.961 . S
C2156 H2144 0.959 . S
C2156 C2154 1.561 . S
C2157 C2154 1.526 . S
C2157 C2158 1.396 . S
C2157 C2162 1.390 . S
C2158 C2152 1.465 . S
C2158 C2157 1.396 . S
C2158 C2159 1.399 . S
C2159 H2145 0.929 . S
C2159 C2158 1.399 . S
C2159 C2160 1.385 . S
C2160 H2146 0.931 . S
C2160 C2159 1.385 . S
C2160 C2161 1.389 . S
C2161 C2160 1.389 . S
C2161 C2162 1.387 . S
C2162 H2147 0.930 . S
C2162 C2157 1.390 . S
C2162 C2161 1.387 . S
H2163 C2175 0.930 . S
H2164 C2177 0.930 . S
H2165 C2178 0.930 . S
H2166 C2182 0.959 . S
H2167 C2182 0.959 . S
H2168 C2182 0.961 . S
H2169 C2183 0.960 . S
H2170 C2183 0.961 . S
H2171 C2183 0.959 . S
H2172 C2186 0.929 . S
H2173 C2187 0.931 . S
H2174 C2189 0.930 . S
C2175 H2163 0.930 . S
C2175 C2176 1.399 . S
C2175 C2180 1.399 . S
C2176 C2175 1.399 . S
C2176 C2177 1.376 . S
C2177 H2164 0.930 . S
C2177 C2176 1.376 . S
C2177 C2178 1.388 . S
C2178 H2165 0.930 . S
C2178 C2177 1.388 . S
C2178 C2179 1.390 . S
C2179 C2178 1.390 . S
C2179 C2180 1.394 . S
C2179 C2185 1.465 . S
C2180 C2175 1.399 . S
C2180 C2179 1.394 . S
C2180 C2181 1.516 . S
C2181 C2180 1.516 . S
C2181 C2182 1.502 . S
C2181 C2183 1.561 . S
C2181 C2184 1.526 . S
C2182 H2166 0.959 . S
C2182 H2167 0.959 . S
C2182 H2168 0.961 . S
C2182 C2181 1.502 . S
C2183 H2169 0.960 . S
C2183 H2170 0.961 . S
C2183 H2171 0.959 . S
C2183 C2181 1.561 . S
C2184 C2181 1.526 . S
C2184 C2185 1.396 . S
C2184 C2189 1.390 . S
C2185 C2179 1.465 . S
C2185 C2184 1.396 . S
C2185 C2186 1.399 . S
C2186 H2172 0.929 . S
C2186 C2185 1.399 . S
C2186 C2187 1.385 . S
C2187 H2173 0.931 . S
C2187 C2186 1.385 . S
C2187 C2188 1.389 . S
C2188 C2187 1.389 . S
C2188 C2189 1.387 . S
C2189 H2174 0.930 . S
C2189 C2184 1.390 . S
C2189 C2188 1.387 . S
H2190 C2202 0.930 . S
H2191 C2204 0.930 . S
H2192 C2205 0.930 . S
H2193 C2209 0.959 . S
H2194 C2209 0.959 . S
H2195 C2209 0.961 . S
H2196 C2210 0.960 . S
H2197 C2210 0.961 . S
H2198 C2210 0.959 . S
H2199 C2213 0.929 . S
H2200 C2214 0.931 . S
H2201 C2216 0.930 . S
C2202 H2190 0.930 . S
C2202 C2203 1.399 . S
C2202 C2207 1.399 . S
C2203 C2202 1.399 . S
C2203 C2204 1.376 . S
C2204 H2191 0.930 . S
C2204 C2203 1.376 . S
C2204 C2205 1.388 . S
C2205 H2192 0.930 . S
C2205 C2204 1.388 . S
C2205 C2206 1.390 . S
C2206 C2205 1.390 . S
C2206 C2207 1.394 . S
C2206 C2212 1.465 . S
C2207 C2202 1.399 . S
C2207 C2206 1.394 . S
C2207 C2208 1.516 . S
C2208 C2207 1.516 . S
C2208 C2209 1.502 . S
C2208 C2210 1.561 . S
C2208 C2211 1.526 . S
C2209 H2193 0.959 . S
C2209 H2194 0.959 . S
C2209 H2195 0.961 . S
C2209 C2208 1.502 . S
C2210 H2196 0.960 . S
C2210 H2197 0.961 . S
C2210 H2198 0.959 . S
C2210 C2208 1.561 . S
C2211 C2208 1.526 . S
C2211 C2212 1.396 . S
C2211 C2216 1.390 . S
C2212 C2206 1.465 . S
C2212 C2211 1.396 . S
C2212 C2213 1.399 . S
C2213 H2199 0.929 . S
C2213 C2212 1.399 . S
C2213 C2214 1.385 . S
C2214 H2200 0.931 . S
C2214 C2213 1.385 . S
C2214 C2215 1.389 . S
C2215 C2214 1.389 . S
C2215 C2216 1.387 . S
C2216 H2201 0.930 . S
C2216 C2211 1.390 . S
C2216 C2215 1.387 . S
H2217 C2229 0.930 . S
H2218 C2231 0.930 . S
H2219 C2232 0.930 . S
H2220 C2236 0.959 . S
H2221 C2236 0.959 . S
H2222 C2236 0.961 . S
H2223 C2237 0.960 . S
H2224 C2237 0.961 . S
H2225 C2237 0.959 . S
H2226 C2240 0.929 . S
H2227 C2241 0.931 . S
H2228 C2243 0.930 . S
C2229 H2217 0.930 . S
C2229 C2230 1.399 . S
C2229 C2234 1.399 . S
C2230 C2229 1.399 . S
C2230 C2231 1.376 . S
C2231 H2218 0.930 . S
C2231 C2230 1.376 . S
C2231 C2232 1.388 . S
C2232 H2219 0.930 . S
C2232 C2231 1.388 . S
C2232 C2233 1.390 . S
C2233 C2232 1.390 . S
C2233 C2234 1.394 . S
C2233 C2239 1.465 . S
C2234 C2229 1.399 . S
C2234 C2233 1.394 . S
C2234 C2235 1.516 . S
C2235 C2234 1.516 . S
C2235 C2236 1.502 . S
C2235 C2237 1.561 . S
C2235 C2238 1.526 . S
C2236 H2220 0.959 . S
C2236 H2221 0.959 . S
C2236 H2222 0.961 . S
C2236 C2235 1.502 . S
C2237 H2223 0.960 . S
C2237 H2224 0.961 . S
C2237 H2225 0.959 . S
C2237 C2235 1.561 . S
C2238 C2235 1.526 . S
C2238 C2239 1.396 . S
C2238 C2243 1.390 . S
C2239 C2233 1.465 . S
C2239 C2238 1.396 . S
C2239 C2240 1.399 . S
C2240 H2226 0.929 . S
C2240 C2239 1.399 . S
C2240 C2241 1.385 . S
C2241 H2227 0.931 . S
C2241 C2240 1.385 . S
C2241 C2242 1.389 . S
C2242 C2241 1.389 . S
C2242 C2243 1.387 . S
C2243 H2228 0.930 . S
C2243 C2238 1.390 . S
C2243 C2242 1.387 . S
H2244 C2256 0.930 . S
H2245 C2258 0.930 . S
H2246 C2259 0.930 . S
H2247 C2263 0.959 . S
H2248 C2263 0.959 . S
H2249 C2263 0.961 . S
H2250 C2264 0.960 . S
H2251 C2264 0.961 . S
H2252 C2264 0.959 . S
H2253 C2267 0.929 . S
H2254 C2268 0.931 . S
H2255 C2270 0.930 . S
C2256 H2244 0.930 . S
C2256 C2257 1.399 . S
C2256 C2261 1.399 . S
C2257 C2256 1.399 . S
C2257 C2258 1.376 . S
C2258 H2245 0.930 . S
C2258 C2257 1.376 . S
C2258 C2259 1.388 . S
C2259 H2246 0.930 . S
C2259 C2258 1.388 . S
C2259 C2260 1.390 . S
C2260 C2259 1.390 . S
C2260 C2261 1.394 . S
C2260 C2266 1.465 . S
C2261 C2256 1.399 . S
C2261 C2260 1.394 . S
C2261 C2262 1.516 . S
C2262 C2261 1.516 . S
C2262 C2263 1.502 . S
C2262 C2264 1.561 . S
C2262 C2265 1.526 . S
C2263 H2247 0.959 . S
C2263 H2248 0.959 . S
C2263 H2249 0.961 . S
C2263 C2262 1.502 . S
C2264 H2250 0.960 . S
C2264 H2251 0.961 . S
C2264 H2252 0.959 . S
C2264 C2262 1.561 . S
C2265 C2262 1.526 . S
C2265 C2266 1.396 . S
C2265 C2270 1.390 . S
C2266 C2260 1.465 . S
C2266 C2265 1.396 . S
C2266 C2267 1.399 . S
C2267 H2253 0.929 . S
C2267 C2266 1.399 . S
C2267 C2268 1.385 . S
C2268 H2254 0.931 . S
C2268 C2267 1.385 . S
C2268 C2269 1.389 . S
C2269 C2268 1.389 . S
C2269 C2270 1.387 . S
C2270 H2255 0.930 . S
C2270 C2265 1.390 . S
C2270 C2269 1.387 . S
H2271 C2283 0.930 . S
H2272 C2285 0.930 . S
H2273 C2286 0.930 . S
H2274 C2290 0.959 . S
H2275 C2290 0.959 . S
H2276 C2290 0.961 . S
H2277 C2291 0.960 . S
H2278 C2291 0.961 . S
H2279 C2291 0.959 . S
H2280 C2294 0.929 . S
H2281 C2295 0.931 . S
H2282 C2297 0.930 . S
C2283 H2271 0.930 . S
C2283 C2284 1.399 . S
C2283 C2288 1.399 . S
C2284 C2283 1.399 . S
C2284 C2285 1.376 . S
C2285 H2272 0.930 . S
C2285 C2284 1.376 . S
C2285 C2286 1.388 . S
C2286 H2273 0.930 . S
C2286 C2285 1.388 . S
C2286 C2287 1.390 . S
C2287 C2286 1.390 . S
C2287 C2288 1.394 . S
C2287 C2293 1.465 . S
C2288 C2283 1.399 . S
C2288 C2287 1.394 . S
C2288 C2289 1.516 . S
C2289 C2288 1.516 . S
C2289 C2290 1.502 . S
C2289 C2291 1.561 . S
C2289 C2292 1.526 . S
C2290 H2274 0.959 . S
C2290 H2275 0.959 . S
C2290 H2276 0.961 . S
C2290 C2289 1.502 . S
C2291 H2277 0.960 . S
C2291 H2278 0.961 . S
C2291 H2279 0.959 . S
C2291 C2289 1.561 . S
C2292 C2289 1.526 . S
C2292 C2293 1.396 . S
C2292 C2297 1.390 . S
C2293 C2287 1.465 . S
C2293 C2292 1.396 . S
C2293 C2294 1.399 . S
C2294 H2280 0.929 . S
C2294 C2293 1.399 . S
C2294 C2295 1.385 . S
C2295 H2281 0.931 . S
C2295 C2294 1.385 . S
C2295 C2296 1.389 . S
C2296 C2295 1.389 . S
C2296 C2297 1.387 . S
C2297 H2282 0.930 . S
C2297 C2292 1.390 . S
C2297 C2296 1.387 . S
H2298 C2310 0.930 . S
H2299 C2312 0.930 . S
H2300 C2313 0.930 . S
H2301 C2317 0.959 . S
H2302 C2317 0.959 . S
H2303 C2317 0.961 . S
H2304 C2318 0.960 . S
H2305 C2318 0.961 . S
H2306 C2318 0.959 . S
H2307 C2321 0.929 . S
H2308 C2322 0.931 . S
H2309 C2324 0.930 . S
C2310 H2298 0.930 . S
C2310 C2311 1.399 . S
C2310 C2315 1.399 . S
C2311 C2310 1.399 . S
C2311 C2312 1.376 . S
C2312 H2299 0.930 . S
C2312 C2311 1.376 . S
C2312 C2313 1.388 . S
C2313 H2300 0.930 . S
C2313 C2312 1.388 . S
C2313 C2314 1.390 . S
C2314 C2313 1.390 . S
C2314 C2315 1.394 . S
C2314 C2320 1.465 . S
C2315 C2310 1.399 . S
C2315 C2314 1.394 . S
C2315 C2316 1.516 . S
C2316 C2315 1.516 . S
C2316 C2317 1.502 . S
C2316 C2318 1.561 . S
C2316 C2319 1.526 . S
C2317 H2301 0.959 . S
C2317 H2302 0.959 . S
C2317 H2303 0.961 . S
C2317 C2316 1.502 . S
C2318 H2304 0.960 . S
C2318 H2305 0.961 . S
C2318 H2306 0.959 . S
C2318 C2316 1.561 . S
C2319 C2316 1.526 . S
C2319 C2320 1.396 . S
C2319 C2324 1.390 . S
C2320 C2314 1.465 . S
C2320 C2319 1.396 . S
C2320 C2321 1.399 . S
C2321 H2307 0.929 . S
C2321 C2320 1.399 . S
C2321 C2322 1.385 . S
C2322 H2308 0.931 . S
C2322 C2321 1.385 . S
C2322 C2323 1.389 . S
C2323 C2322 1.389 . S
C2323 C2324 1.387 . S
C2324 H2309 0.930 . S
C2324 C2319 1.390 . S
C2324 C2323 1.387 . S
H2325 C2337 0.930 . S
H2326 C2339 0.930 . S
H2327 C2340 0.930 . S
H2328 C2344 0.959 . S
H2329 C2344 0.959 . S
H2330 C2344 0.961 . S
H2331 C2345 0.960 . S
H2332 C2345 0.961 . S
H2333 C2345 0.959 . S
H2334 C2348 0.929 . S
H2335 C2349 0.931 . S
H2336 C2351 0.930 . S
C2337 H2325 0.930 . S
C2337 C2338 1.399 . S
C2337 C2342 1.399 . S
C2338 C2337 1.399 . S
C2338 C2339 1.376 . S
C2339 H2326 0.930 . S
C2339 C2338 1.376 . S
C2339 C2340 1.388 . S
C2340 H2327 0.930 . S
C2340 C2339 1.388 . S
C2340 C2341 1.390 . S
C2341 C2340 1.390 . S
C2341 C2342 1.394 . S
C2341 C2347 1.465 . S
C2342 C2337 1.399 . S
C2342 C2341 1.394 . S
C2342 C2343 1.516 . S
C2343 C2342 1.516 . S
C2343 C2344 1.502 . S
C2343 C2345 1.561 . S
C2343 C2346 1.526 . S
C2344 H2328 0.959 . S
C2344 H2329 0.959 . S
C2344 H2330 0.961 . S
C2344 C2343 1.502 . S
C2345 H2331 0.960 . S
C2345 H2332 0.961 . S
C2345 H2333 0.959 . S
C2345 C2343 1.561 . S
C2346 C2343 1.526 . S
C2346 C2347 1.396 . S
C2346 C2351 1.390 . S
C2347 C2341 1.465 . S
C2347 C2346 1.396 . S
C2347 C2348 1.399 . S
C2348 H2334 0.929 . S
C2348 C2347 1.399 . S
C2348 C2349 1.385 . S
C2349 H2335 0.931 . S
C2349 C2348 1.385 . S
C2349 C2350 1.389 . S
C2350 C2349 1.389 . S
C2350 C2351 1.387 . S
C2351 H2336 0.930 . S
C2351 C2346 1.390 . S
C2351 C2350 1.387 . S
H2352 C2364 0.930 . S
H2353 C2366 0.930 . S
H2354 C2367 0.930 . S
H2355 C2371 0.959 . S
H2356 C2371 0.959 . S
H2357 C2371 0.961 . S
H2358 C2372 0.960 . S
H2359 C2372 0.961 . S
H2360 C2372 0.959 . S
H2361 C2375 0.929 . S
H2362 C2376 0.931 . S
H2363 C2378 0.930 . S
C2364 H2352 0.930 . S
C2364 C2365 1.399 . S
C2364 C2369 1.399 . S
C2365 C2364 1.399 . S
C2365 C2366 1.376 . S
C2366 H2353 0.930 . S
C2366 C2365 1.376 . S
C2366 C2367 1.388 . S
C2367 H2354 0.930 . S
C2367 C2366 1.388 . S
C2367 C2368 1.390 . S
C2368 C2367 1.390 . S
C2368 C2369 1.394 . S
C2368 C2374 1.465 . S
C2369 C2364 1.399 . S
C2369 C2368 1.394 . S
C2369 C2370 1.516 . S
C2370 C2369 1.516 . S
C2370 C2371 1.502 . S
C2370 C2372 1.561 . S
C2370 C2373 1.526 . S
C2371 H2355 0.959 . S
C2371 H2356 0.959 . S
C2371 H2357 0.961 . S
C2371 C2370 1.502 . S
C2372 H2358 0.960 . S
C2372 H2359 0.961 . S
C2372 H2360 0.959 . S
C2372 C2370 1.561 . S
C2373 C2370 1.526 . S
C2373 C2374 1.396 . S
C2373 C2378 1.390 . S
C2374 C2368 1.465 . S
C2374 C2373 1.396 . S
C2374 C2375 1.399 . S
C2375 H2361 0.929 . S
C2375 C2374 1.399 . S
C2375 C2376 1.385 . S
C2376 H2362 0.931 . S
C2376 C2375 1.385 . S
C2376 C2377 1.389 . S
C2377 C2376 1.389 . S
C2377 C2378 1.387 . S
C2378 H2363 0.930 . S
C2378 C2373 1.390 . S
C2378 C2377 1.387 . S
H2379 C2391 0.930 . S
H2380 C2393 0.930 . S
H2381 C2394 0.930 . S
H2382 C2398 0.959 . S
H2383 C2398 0.959 . S
H2384 C2398 0.961 . S
H2385 C2399 0.960 . S
H2386 C2399 0.961 1_655 S
H2387 C2399 0.959 1_655 S
H2388 C2402 0.918 1_565 S
H2389 C2403 0.931 . S
H2390 C2405 0.930 . S
C2391 H2379 0.930 . S
C2391 C2392 1.399 . S
C2391 C2396 1.399 . S
C2392 C2391 1.399 . S
C2392 C2393 1.376 . S
C2393 H2380 0.930 . S
C2393 C2392 1.376 . S
C2393 C2394 1.388 . S
C2394 H2381 0.930 . S
C2394 C2393 1.388 . S
C2394 C2395 1.390 . S
C2395 C2394 1.390 . S
C2395 C2396 1.394 . S
C2395 C2401 1.465 1_465 S
C2396 C2391 1.399 . S
C2396 C2395 1.394 . S
C2396 C2397 1.516 1_565 S
C2397 C2396 1.516 1_545 S
C2397 C2398 1.502 . S
C2397 C2399 1.561 1_545 S
C2397 C2400 1.526 1_455 S
C2398 H2382 0.959 . S
C2398 H2383 0.959 . S
C2398 H2384 0.961 . S
C2398 C2397 1.502 . S
C2399 H2385 0.960 . S
C2399 H2386 0.961 1_455 S
C2399 H2387 0.959 1_455 S
C2399 C2397 1.561 1_565 S
C2400 C2397 1.526 1_655 S
C2400 C2401 1.396 . S
C2400 C2405 1.390 . S
C2401 C2395 1.465 1_645 S
C2401 C2400 1.396 . S
C2401 C2402 1.399 . S
C2402 H2388 0.918 1_545 S
C2402 C2401 1.399 . S
C2402 C2403 1.385 . S
C2403 H2389 0.931 . S
C2403 C2402 1.385 . S
C2403 C2404 1.389 . S
C2404 C2403 1.389 . S
C2404 C2405 1.387 . S
C2405 H2390 0.930 . S
C2405 C2400 1.390 . S
C2405 C2404 1.387 . S
H2406 C2418 0.930 . S
H2407 C2420 0.930 . S
H2408 C2421 0.930 . S
H2409 C2425 0.959 . S
H2410 C2425 0.959 . S
H2411 C2425 0.961 . S
H2412 C2426 0.960 . S
H2413 C2426 0.961 . S
H2414 C2426 0.959 . S
H2415 C2429 0.929 . S
H2416 C2430 0.931 . S
H2417 C2432 0.930 . S
C2418 H2406 0.930 . S
C2418 C2419 1.399 . S
C2418 C2423 1.399 . S
C2419 C2418 1.399 . S
C2419 C2420 1.376 . S
C2420 H2407 0.930 . S
C2420 C2419 1.376 . S
C2420 C2421 1.388 . S
C2421 H2408 0.930 . S
C2421 C2420 1.388 . S
C2421 C2422 1.390 . S
C2422 C2421 1.390 . S
C2422 C2423 1.394 . S
C2422 C2428 1.465 . S
C2423 C2418 1.399 . S
C2423 C2422 1.394 . S
C2423 C2424 1.516 . S
C2424 C2423 1.516 . S
C2424 C2425 1.502 . S
C2424 C2426 1.561 . S
C2424 C2427 1.526 . S
C2425 H2409 0.959 . S
C2425 H2410 0.959 . S
C2425 H2411 0.961 . S
C2425 C2424 1.502 . S
C2426 H2412 0.960 . S
C2426 H2413 0.961 . S
C2426 H2414 0.959 . S
C2426 C2424 1.561 . S
C2427 C2424 1.526 . S
C2427 C2428 1.396 . S
C2427 C2432 1.390 . S
C2428 C2422 1.465 . S
C2428 C2427 1.396 . S
C2428 C2429 1.399 . S
C2429 H2415 0.929 . S
C2429 C2428 1.399 . S
C2429 C2430 1.385 . S
C2430 H2416 0.931 . S
C2430 C2429 1.385 . S
C2430 C2431 1.389 . S
C2431 C2430 1.389 . S
C2431 C2432 1.387 . S
C2432 H2417 0.930 . S
C2432 C2427 1.390 . S
C2432 C2431 1.387 . S
H2433 C2445 0.930 . S
H2434 C2447 0.930 . S
H2435 C2448 0.930 . S
H2436 C2452 0.959 . S
H2437 C2452 0.959 . S
H2438 C2452 0.961 . S
H2439 C2453 0.960 . S
H2440 C2453 0.961 . S
H2441 C2453 0.959 . S
H2442 C2456 0.929 . S
H2443 C2457 0.931 . S
H2444 C2459 0.930 . S
C2445 H2433 0.930 . S
C2445 C2446 1.399 . S
C2445 C2450 1.399 . S
C2446 C2445 1.399 . S
C2446 C2447 1.376 1_556 S
C2447 H2434 0.930 . S
C2447 C2446 1.376 1_554 S
C2447 C2448 1.388 . S
C2448 H2435 0.930 . S
C2448 C2447 1.388 . S
C2448 C2449 1.390 . S
C2449 C2448 1.390 . S
C2449 C2450 1.394 1_554 S
C2449 C2455 1.465 1_565 S
C2450 C2445 1.399 . S
C2450 C2449 1.394 1_556 S
C2450 C2451 1.510 1_565 S
C2451 C2450 1.510 1_545 S
C2451 C2452 1.512 . S
C2451 C2453 1.551 1_545 S
C2451 C2454 1.531 . S
C2452 H2436 0.959 . S
C2452 H2437 0.959 . S
C2452 H2438 0.961 . S
C2452 C2451 1.512 . S
C2453 H2439 0.960 . S
C2453 H2440 0.961 . S
C2453 H2441 0.959 . S
C2453 C2451 1.551 1_565 S
C2454 C2451 1.531 . S
C2454 C2455 1.396 1_556 S
C2454 C2459 1.390 . S
C2455 C2449 1.465 1_545 S
C2455 C2454 1.396 1_554 S
C2455 C2456 1.399 . S
C2456 H2442 0.929 . S
C2456 C2455 1.399 . S
C2456 C2457 1.385 . S
C2457 H2443 0.931 . S
C2457 C2456 1.385 . S
C2457 C2458 1.389 . S
C2458 C2457 1.389 . S
C2458 C2459 1.387 1_554 S
C2459 H2444 0.930 . S
C2459 C2454 1.390 . S
C2459 C2458 1.387 1_556 S
H2460 C2472 0.930 . S
H2461 C2474 0.930 . S
H2462 C2475 0.930 . S
H2463 C2479 0.959 . S
H2464 C2479 0.959 . S
H2465 C2479 0.961 . S
H2466 C2480 0.960 . S
H2467 C2480 0.961 . S
H2468 C2480 0.959 . S
H2469 C2483 0.929 . S
H2470 C2484 0.931 . S
H2471 C2486 0.930 . S
C2472 H2460 0.930 . S
C2472 C2473 1.399 . S
C2472 C2477 1.399 . S
C2473 C2472 1.399 . S
C2473 C2474 1.376 . S
C2474 H2461 0.930 . S
C2474 C2473 1.376 . S
C2474 C2475 1.388 . S
C2475 H2462 0.930 . S
C2475 C2474 1.388 . S
C2475 C2476 1.390 . S
C2476 C2475 1.390 . S
C2476 C2477 1.394 . S
C2476 C2482 1.465 . S
C2477 C2472 1.399 . S
C2477 C2476 1.394 . S
C2477 C2478 1.516 . S
C2478 C2477 1.516 . S
C2478 C2479 1.502 . S
C2478 C2480 1.561 . S
C2478 C2481 1.526 . S
C2479 H2463 0.959 . S
C2479 H2464 0.959 . S
C2479 H2465 0.961 . S
C2479 C2478 1.502 . S
C2480 H2466 0.960 . S
C2480 H2467 0.961 . S
C2480 H2468 0.959 . S
C2480 C2478 1.561 . S
C2481 C2478 1.526 . S
C2481 C2482 1.396 . S
C2481 C2486 1.390 . S
C2482 C2476 1.465 . S
C2482 C2481 1.396 . S
C2482 C2483 1.399 . S
C2483 H2469 0.929 . S
C2483 C2482 1.399 . S
C2483 C2484 1.385 . S
C2484 H2470 0.931 . S
C2484 C2483 1.385 . S
C2484 C2485 1.389 . S
C2485 C2484 1.389 . S
C2485 C2486 1.387 . S
C2486 H2471 0.930 . S
C2486 C2481 1.390 . S
C2486 C2485 1.387 . S
H2487 C2499 0.930 . S
H2488 C2501 0.930 . S
H2489 C2502 0.930 . S
H2490 C2506 0.959 1_565 S
H2491 C2506 0.959 . S
H2492 C2506 0.961 . S
H2493 C2507 0.960 . S
H2494 C2507 0.961 . S
H2495 C2507 0.959 . S
H2496 C2510 0.929 1_565 S
H2497 C2511 0.931 . S
H2498 C2513 0.930 . S
C2499 H2487 0.930 . S
C2499 C2500 1.399 . S
C2499 C2504 1.399 . S
C2500 C2499 1.399 . S
C2500 C2501 1.376 . S
C2501 H2488 0.930 . S
C2501 C2500 1.376 . S
C2501 C2502 1.388 . S
C2502 H2489 0.930 . S
C2502 C2501 1.388 . S
C2502 C2503 1.390 . S
C2503 C2502 1.390 . S
C2503 C2504 1.394 . S
C2503 C2509 1.465 1_565 S
C2504 C2499 1.399 . S
C2504 C2503 1.394 . S
C2504 C2505 1.516 1_565 S
C2505 C2504 1.516 1_545 S
C2505 C2506 1.502 . S
C2505 C2507 1.561 . S
C2505 C2508 1.526 . S
C2506 H2490 0.959 1_545 S
C2506 H2491 0.959 . S
C2506 H2492 0.961 . S
C2506 C2505 1.502 . S
C2507 H2493 0.960 . S
C2507 H2494 0.961 . S
C2507 H2495 0.959 . S
C2507 C2505 1.561 . S
C2508 C2505 1.526 . S
C2508 C2509 1.396 . S
C2508 C2513 1.390 . S
C2509 C2503 1.465 1_545 S
C2509 C2508 1.396 . S
C2509 C2510 1.399 . S
C2510 H2496 0.929 1_545 S
C2510 C2509 1.399 . S
C2510 C2511 1.385 . S
C2511 H2497 0.931 . S
C2511 C2510 1.385 . S
C2511 C2512 1.389 . S
C2512 C2511 1.389 . S
C2512 C2513 1.387 . S
C2513 H2498 0.930 . S
C2513 C2508 1.390 . S
C2513 C2512 1.387 . S
H2514 C2526 0.930 . S
H2515 C2528 0.930 . S
H2516 C2529 0.930 . S
H2517 C2533 0.959 . S
H2518 C2533 0.959 . S
H2519 C2533 0.961 . S
H2520 C2534 0.960 . S
H2521 C2534 0.961 . S
H2522 C2534 0.959 . S
H2523 C2537 0.929 . S
H2524 C2538 0.931 . S
H2525 C2540 0.930 . S
C2526 H2514 0.930 . S
C2526 C2527 1.399 . S
C2526 C2531 1.399 . S
C2527 C2526 1.399 . S
C2527 C2528 1.376 . S
C2528 H2515 0.930 . S
C2528 C2527 1.376 . S
C2528 C2529 1.388 . S
C2529 H2516 0.930 . S
C2529 C2528 1.388 . S
C2529 C2530 1.390 . S
C2530 C2529 1.390 . S
C2530 C2531 1.394 . S
C2530 C2536 1.465 . S
C2531 C2526 1.399 . S
C2531 C2530 1.394 . S
C2531 C2532 1.516 . S
C2532 C2531 1.516 . S
C2532 C2533 1.502 . S
C2532 C2534 1.561 . S
C2532 C2535 1.526 . S
C2533 H2517 0.959 . S
C2533 H2518 0.959 . S
C2533 H2519 0.961 . S
C2533 C2532 1.502 . S
C2534 H2520 0.960 . S
C2534 H2521 0.961 . S
C2534 H2522 0.959 . S
C2534 C2532 1.561 . S
C2535 C2532 1.526 . S
C2535 C2536 1.396 . S
C2535 C2540 1.390 . S
C2536 C2530 1.465 . S
C2536 C2535 1.396 . S
C2536 C2537 1.399 . S
C2537 H2523 0.929 . S
C2537 C2536 1.399 . S
C2537 C2538 1.385 . S
C2538 H2524 0.931 . S
C2538 C2537 1.385 . S
C2538 C2539 1.389 . S
C2539 C2538 1.389 . S
C2539 C2540 1.387 . S
C2540 H2525 0.930 . S
C2540 C2535 1.390 . S
C2540 C2539 1.387 . S
H2541 C2553 0.930 . S
H2542 C2555 0.930 . S
H2543 C2556 0.930 . S
H2544 C2560 0.965 . S
H2545 C2560 0.964 . S
H2546 C2560 0.954 1_455 S
H2547 C2561 0.960 . S
H2548 C2561 0.961 . S
H2549 C2561 0.959 1_554 S
H2550 C2564 0.929 . S
H2551 C2565 0.931 . S
H2552 C2567 0.930 . S
C2553 H2541 0.930 . S
C2553 C2554 1.399 . S
C2553 C2558 1.399 . S
C2554 C2553 1.399 . S
C2554 C2555 1.376 1_556 S
C2555 H2542 0.930 . S
C2555 C2554 1.376 1_554 S
C2555 C2556 1.388 . S
C2556 H2543 0.930 . S
C2556 C2555 1.388 . S
C2556 C2557 1.390 . S
C2557 C2556 1.390 . S
C2557 C2558 1.394 1_554 S
C2557 C2563 1.465 1_445 S
C2558 C2553 1.399 . S
C2558 C2557 1.394 1_556 S
C2558 C2559 1.516 1_545 S
C2559 C2558 1.516 1_565 S
C2559 C2560 1.500 1_455 S
C2559 C2561 1.561 . S
C2559 C2562 1.526 1_455 S
C2560 H2544 0.965 . S
C2560 H2545 0.964 . S
C2560 H2546 0.954 1_655 S
C2560 C2559 1.500 1_655 S
C2561 H2547 0.960 . S
C2561 H2548 0.961 . S
C2561 H2549 0.959 1_556 S
C2561 C2559 1.561 . S
C2562 C2559 1.526 1_655 S
C2562 C2563 1.397 1_556 S
C2562 C2567 1.390 . S
C2563 C2557 1.465 1_665 S
C2563 C2562 1.397 1_554 S
C2563 C2564 1.399 1_565 S
C2564 H2550 0.929 . S
C2564 C2563 1.399 1_545 S
C2564 C2565 1.385 1_545 S
C2565 H2551 0.931 . S
C2565 C2564 1.385 1_565 S
C2565 C2566 1.389 . S
C2566 C2565 1.389 . S
C2566 C2567 1.387 1_554 S
C2567 H2552 0.930 . S
C2567 C2562 1.390 . S
C2567 C2566 1.387 1_556 S
H2568 C2580 0.930 . S
H2569 C2582 0.930 . S
H2570 C2583 0.930 . S
H2571 C2587 0.959 . S
H2572 C2587 0.959 . S
H2573 C2587 0.961 . S
H2574 C2588 0.960 . S
H2575 C2588 0.961 . S
H2576 C2588 0.959 . S
H2577 C2591 0.929 . S
H2578 C2592 0.931 . S
H2579 C2594 0.930 . S
C2580 H2568 0.930 . S
C2580 C2581 1.399 . S
C2580 C2585 1.399 . S
C2581 C2580 1.399 . S
C2581 C2582 1.376 . S
C2582 H2569 0.930 . S
C2582 C2581 1.376 . S
C2582 C2583 1.388 . S
C2583 H2570 0.930 . S
C2583 C2582 1.388 . S
C2583 C2584 1.390 . S
C2584 C2583 1.390 . S
C2584 C2585 1.394 . S
C2584 C2590 1.465 . S
C2585 C2580 1.399 . S
C2585 C2584 1.394 . S
C2585 C2586 1.516 . S
C2586 C2585 1.516 . S
C2586 C2587 1.502 . S
C2586 C2588 1.561 . S
C2586 C2589 1.526 . S
C2587 H2571 0.959 . S
C2587 H2572 0.959 . S
C2587 H2573 0.961 . S
C2587 C2586 1.502 . S
C2588 H2574 0.960 . S
C2588 H2575 0.961 . S
C2588 H2576 0.959 . S
C2588 C2586 1.561 . S
C2589 C2586 1.526 . S
C2589 C2590 1.396 . S
C2589 C2594 1.390 . S
C2590 C2584 1.465 . S
C2590 C2589 1.396 . S
C2590 C2591 1.399 . S
C2591 H2577 0.929 . S
C2591 C2590 1.399 . S
C2591 C2592 1.385 . S
C2592 H2578 0.931 . S
C2592 C2591 1.385 . S
C2592 C2593 1.389 . S
C2593 C2592 1.389 . S
C2593 C2594 1.387 . S
C2594 H2579 0.930 . S
C2594 C2589 1.390 . S
C2594 C2593 1.387 . S
H2595 C2607 0.930 . S
H2596 C2609 0.930 . S
H2597 C2610 0.930 . S
H2598 C2614 0.959 . S
H2599 C2614 0.959 . S
H2600 C2614 0.961 . S
H2601 C2615 0.960 . S
H2602 C2615 0.961 . S
H2603 C2615 0.959 . S
H2604 C2618 0.929 . S
H2605 C2619 0.931 . S
H2606 C2621 0.930 . S
C2607 H2595 0.930 . S
C2607 C2608 1.399 . S
C2607 C2612 1.399 . S
C2608 C2607 1.399 . S
C2608 C2609 1.376 . S
C2609 H2596 0.930 . S
C2609 C2608 1.376 . S
C2609 C2610 1.388 . S
C2610 H2597 0.930 . S
C2610 C2609 1.388 . S
C2610 C2611 1.390 . S
C2611 C2610 1.390 . S
C2611 C2612 1.394 . S
C2611 C2617 1.465 . S
C2612 C2607 1.399 . S
C2612 C2611 1.394 . S
C2612 C2613 1.516 . S
C2613 C2612 1.516 . S
C2613 C2614 1.502 . S
C2613 C2615 1.561 . S
C2613 C2616 1.526 . S
C2614 H2598 0.959 . S
C2614 H2599 0.959 . S
C2614 H2600 0.961 . S
C2614 C2613 1.502 . S
C2615 H2601 0.960 . S
C2615 H2602 0.961 . S
C2615 H2603 0.959 . S
C2615 C2613 1.561 . S
C2616 C2613 1.526 . S
C2616 C2617 1.396 . S
C2616 C2621 1.390 . S
C2617 C2611 1.465 . S
C2617 C2616 1.396 . S
C2617 C2618 1.399 . S
C2618 H2604 0.929 . S
C2618 C2617 1.399 . S
C2618 C2619 1.385 . S
C2619 H2605 0.931 . S
C2619 C2618 1.385 . S
C2619 C2620 1.389 . S
C2620 C2619 1.389 . S
C2620 C2621 1.387 . S
C2621 H2606 0.930 . S
C2621 C2616 1.390 . S
C2621 C2620 1.387 . S
H2622 C2634 0.930 . S
H2623 C2636 0.930 . S
H2624 C2637 0.930 . S
H2625 C2641 0.959 . S
H2626 C2641 0.959 . S
H2627 C2641 0.961 . S
H2628 C2642 0.960 . S
H2629 C2642 0.961 . S
H2630 C2642 0.959 . S
H2631 C2645 0.929 . S
H2632 C2646 0.931 . S
H2633 C2648 0.930 . S
C2634 H2622 0.930 . S
C2634 C2635 1.399 . S
C2634 C2639 1.399 . S
C2635 C2634 1.399 . S
C2635 C2636 1.376 . S
C2636 H2623 0.930 . S
C2636 C2635 1.376 . S
C2636 C2637 1.388 . S
C2637 H2624 0.930 . S
C2637 C2636 1.388 . S
C2637 C2638 1.390 . S
C2638 C2637 1.390 . S
C2638 C2639 1.394 . S
C2638 C2644 1.465 . S
C2639 C2634 1.399 . S
C2639 C2638 1.394 . S
C2639 C2640 1.516 . S
C2640 C2639 1.516 . S
C2640 C2641 1.502 . S
C2640 C2642 1.561 . S
C2640 C2643 1.526 . S
C2641 H2625 0.959 . S
C2641 H2626 0.959 . S
C2641 H2627 0.961 . S
C2641 C2640 1.502 . S
C2642 H2628 0.960 . S
C2642 H2629 0.961 . S
C2642 H2630 0.959 . S
C2642 C2640 1.561 . S
C2643 C2640 1.526 . S
C2643 C2644 1.396 . S
C2643 C2648 1.390 . S
C2644 C2638 1.465 . S
C2644 C2643 1.396 . S
C2644 C2645 1.399 . S
C2645 H2631 0.929 . S
C2645 C2644 1.399 . S
C2645 C2646 1.385 . S
C2646 H2632 0.931 . S
C2646 C2645 1.385 . S
C2646 C2647 1.389 . S
C2647 C2646 1.389 . S
C2647 C2648 1.387 . S
C2648 H2633 0.930 . S
C2648 C2643 1.390 . S
C2648 C2647 1.387 . S
H2649 C2661 0.930 . S
H2650 C2663 0.930 . S
H2651 C2664 0.930 . S
H2652 C2668 0.959 . S
H2653 C2668 0.959 . S
H2654 C2668 0.961 . S
H2655 C2669 0.960 . S
H2656 C2669 0.961 . S
H2657 C2669 0.959 . S
H2658 C2672 0.929 . S
H2659 C2673 0.931 . S
H2660 C2675 0.930 . S
C2661 H2649 0.930 . S
C2661 C2662 1.399 . S
C2661 C2666 1.399 . S
C2662 C2661 1.399 . S
C2662 C2663 1.376 . S
C2663 H2650 0.930 . S
C2663 C2662 1.376 . S
C2663 C2664 1.388 . S
C2664 H2651 0.930 . S
C2664 C2663 1.388 . S
C2664 C2665 1.390 . S
C2665 C2664 1.390 . S
C2665 C2666 1.394 . S
C2665 C2671 1.465 . S
C2666 C2661 1.399 . S
C2666 C2665 1.394 . S
C2666 C2667 1.516 . S
C2667 C2666 1.516 . S
C2667 C2668 1.502 . S
C2667 C2669 1.561 . S
C2667 C2670 1.526 . S
C2668 H2652 0.959 . S
C2668 H2653 0.959 . S
C2668 H2654 0.961 . S
C2668 C2667 1.502 . S
C2669 H2655 0.960 . S
C2669 H2656 0.961 . S
C2669 H2657 0.959 . S
C2669 C2667 1.561 . S
C2670 C2667 1.526 . S
C2670 C2671 1.396 . S
C2670 C2675 1.390 . S
C2671 C2665 1.465 . S
C2671 C2670 1.396 . S
C2671 C2672 1.399 . S
C2672 H2658 0.929 . S
C2672 C2671 1.399 . S
C2672 C2673 1.385 . S
C2673 H2659 0.931 . S
C2673 C2672 1.385 . S
C2673 C2674 1.389 . S
C2674 C2673 1.389 . S
C2674 C2675 1.387 . S
C2675 H2660 0.930 . S
C2675 C2670 1.390 . S
C2675 C2674 1.387 . S
H2676 C2688 0.930 . S
H2677 C2690 0.930 . S
H2678 C2691 0.930 . S
H2679 C2695 0.959 . S
H2680 C2695 0.959 . S
H2681 C2695 0.961 . S
H2682 C2696 0.960 . S
H2683 C2696 0.961 . S
H2684 C2696 0.959 . S
H2685 C2699 0.929 . S
H2686 C2700 0.931 . S
H2687 C2702 0.930 . S
C2688 H2676 0.930 . S
C2688 C2689 1.399 1_556 S
C2688 C2693 1.399 . S
C2689 C2688 1.399 1_554 S
C2689 C2690 1.376 . S
C2690 H2677 0.930 . S
C2690 C2689 1.376 . S
C2690 C2691 1.388 . S
C2691 H2678 0.930 . S
C2691 C2690 1.388 . S
C2691 C2692 1.390 . S
C2692 C2691 1.390 . S
C2692 C2693 1.394 1_554 S
C2692 C2698 1.465 . S
C2693 C2688 1.399 . S
C2693 C2692 1.394 1_556 S
C2693 C2694 1.516 . S
C2694 C2693 1.516 . S
C2694 C2695 1.502 . S
C2694 C2696 1.561 . S
C2694 C2697 1.526 . S
C2695 H2679 0.959 . S
C2695 H2680 0.959 . S
C2695 H2681 0.961 . S
C2695 C2694 1.502 . S
C2696 H2682 0.960 . S
C2696 H2683 0.961 . S
C2696 H2684 0.959 . S
C2696 C2694 1.561 . S
C2697 C2694 1.526 . S
C2697 C2698 1.396 1_556 S
C2697 C2702 1.390 . S
C2698 C2692 1.465 . S
C2698 C2697 1.396 1_554 S
C2698 C2699 1.399 . S
C2699 H2685 0.929 . S
C2699 C2698 1.399 . S
C2699 C2700 1.385 . S
C2700 H2686 0.931 . S
C2700 C2699 1.385 . S
C2700 C2701 1.389 1_554 S
C2701 C2700 1.389 1_556 S
C2701 C2702 1.387 . S
C2702 H2687 0.930 . S
C2702 C2697 1.390 . S
C2702 C2701 1.387 . S
H2703 C2715 0.930 . S
H2704 C2717 0.930 . S
H2705 C2718 0.930 . S
H2706 C2722 0.959 . S
H2707 C2722 0.959 . S
H2708 C2722 0.961 . S
H2709 C2723 0.960 . S
H2710 C2723 0.961 . S
H2711 C2723 0.959 . S
H2712 C2726 0.929 . S
H2713 C2727 0.931 . S
H2714 C2729 0.930 . S
C2715 H2703 0.930 . S
C2715 C2716 1.399 . S
C2715 C2720 1.399 . S
C2716 C2715 1.399 . S
C2716 C2717 1.376 . S
C2717 H2704 0.930 . S
C2717 C2716 1.376 . S
C2717 C2718 1.388 . S
C2718 H2705 0.930 . S
C2718 C2717 1.388 . S
C2718 C2719 1.390 . S
C2719 C2718 1.390 . S
C2719 C2720 1.394 . S
C2719 C2725 1.465 1_455 S
C2720 C2715 1.399 . S
C2720 C2719 1.394 . S
C2720 C2721 1.516 . S
C2721 C2720 1.516 . S
C2721 C2722 1.502 . S
C2721 C2723 1.561 . S
C2721 C2724 1.526 1_455 S
C2722 H2706 0.959 . S
C2722 H2707 0.959 . S
C2722 H2708 0.961 . S
C2722 C2721 1.502 . S
C2723 H2709 0.960 . S
C2723 H2710 0.961 . S
C2723 H2711 0.959 . S
C2723 C2721 1.561 . S
C2724 C2721 1.526 1_655 S
C2724 C2725 1.396 . S
C2724 C2729 1.390 . S
C2725 C2719 1.465 1_655 S
C2725 C2724 1.396 . S
C2725 C2726 1.399 . S
C2726 H2712 0.929 . S
C2726 C2725 1.399 . S
C2726 C2727 1.385 . S
C2727 H2713 0.931 . S
C2727 C2726 1.385 . S
C2727 C2728 1.389 . S
C2728 C2727 1.389 . S
C2728 C2729 1.387 . S
C2729 H2714 0.930 . S
C2729 C2724 1.390 . S
C2729 C2728 1.387 . S
H2730 C2742 0.930 . S
H2731 C2744 0.930 . S
H2732 C2745 0.930 . S
H2733 C2749 0.959 . S
H2734 C2749 0.959 . S
H2735 C2749 0.961 . S
H2736 C2750 0.960 1_655 S
H2737 C2750 0.961 . S
H2738 C2750 0.959 1_655 S
H2739 C2753 0.929 . S
H2740 C2754 0.931 . S
H2741 C2756 0.930 . S
C2742 H2730 0.930 . S
C2742 C2743 1.399 . S
C2742 C2747 1.399 . S
C2743 C2742 1.399 . S
C2743 C2744 1.376 1_556 S
C2744 H2731 0.930 . S
C2744 C2743 1.376 1_554 S
C2744 C2745 1.388 . S
C2745 H2732 0.930 . S
C2745 C2744 1.388 . S
C2745 C2746 1.390 . S
C2746 C2745 1.390 . S
C2746 C2747 1.394 1_554 S
C2746 C2752 1.465 1_655 S
C2747 C2742 1.399 . S
C2747 C2746 1.394 1_556 S
C2747 C2748 1.516 1_655 S
C2748 C2747 1.516 1_455 S
C2748 C2749 1.502 . S
C2748 C2750 1.561 . S
C2748 C2751 1.526 . S
C2749 H2733 0.959 . S
C2749 H2734 0.959 . S
C2749 H2735 0.961 . S
C2749 C2748 1.502 . S
C2750 H2736 0.960 1_455 S
C2750 H2737 0.961 . S
C2750 H2738 0.959 1_455 S
C2750 C2748 1.561 . S
C2751 C2748 1.526 . S
C2751 C2752 1.396 1_556 S
C2751 C2756 1.390 . S
C2752 C2746 1.465 1_455 S
C2752 C2751 1.396 1_554 S
C2752 C2753 1.399 . S
C2753 H2739 0.929 . S
C2753 C2752 1.399 . S
C2753 C2754 1.385 . S
C2754 H2740 0.931 . S
C2754 C2753 1.385 . S
C2754 C2755 1.389 . S
C2755 C2754 1.389 . S
C2755 C2756 1.387 1_554 S
C2756 H2741 0.930 . S
C2756 C2751 1.390 . S
C2756 C2755 1.387 1_556 S
H2757 C2769 0.930 . S
H2758 C2771 0.930 . S
H2759 C2772 0.930 . S
H2760 C2776 0.959 . S
H2761 C2776 0.959 . S
H2762 C2776 0.961 . S
H2763 C2777 0.960 . S
H2764 C2777 0.961 . S
H2765 C2777 0.959 . S
H2766 C2780 0.929 . S
H2767 C2781 0.931 . S
H2768 C2783 0.930 . S
C2769 H2757 0.930 . S
C2769 C2770 1.399 . S
C2769 C2774 1.399 . S
C2770 C2769 1.399 . S
C2770 C2771 1.376 . S
C2771 H2758 0.930 . S
C2771 C2770 1.376 . S
C2771 C2772 1.388 . S
C2772 H2759 0.930 . S
C2772 C2771 1.388 . S
C2772 C2773 1.390 . S
C2773 C2772 1.390 . S
C2773 C2774 1.394 . S
C2773 C2779 1.465 . S
C2774 C2769 1.399 . S
C2774 C2773 1.394 . S
C2774 C2775 1.516 . S
C2775 C2774 1.516 . S
C2775 C2776 1.502 . S
C2775 C2777 1.561 . S
C2775 C2778 1.526 . S
C2776 H2760 0.959 . S
C2776 H2761 0.959 . S
C2776 H2762 0.961 . S
C2776 C2775 1.502 . S
C2777 H2763 0.960 . S
C2777 H2764 0.961 . S
C2777 H2765 0.959 . S
C2777 C2775 1.561 . S
C2778 C2775 1.526 . S
C2778 C2779 1.396 . S
C2778 C2783 1.390 . S
C2779 C2773 1.465 . S
C2779 C2778 1.396 . S
C2779 C2780 1.399 . S
C2780 H2766 0.929 . S
C2780 C2779 1.399 . S
C2780 C2781 1.385 . S
C2781 H2767 0.931 . S
C2781 C2780 1.385 . S
C2781 C2782 1.389 . S
C2782 C2781 1.389 . S
C2782 C2783 1.387 . S
C2783 H2768 0.930 . S
C2783 C2778 1.390 . S
C2783 C2782 1.387 . S
H2784 C2796 0.930 . S
H2785 C2798 0.930 . S
H2786 C2799 0.930 . S
H2787 C2803 0.959 . S
H2788 C2803 0.959 . S
H2789 C2803 0.961 . S
H2790 C2804 0.960 . S
H2791 C2804 0.961 . S
H2792 C2804 0.959 . S
H2793 C2807 0.929 . S
H2794 C2808 0.931 . S
H2795 C2810 0.930 . S
C2796 H2784 0.930 . S
C2796 C2797 1.399 . S
C2796 C2801 1.399 . S
C2797 C2796 1.399 . S
C2797 C2798 1.376 . S
C2798 H2785 0.930 . S
C2798 C2797 1.376 . S
C2798 C2799 1.388 . S
C2799 H2786 0.930 . S
C2799 C2798 1.388 . S
C2799 C2800 1.390 . S
C2800 C2799 1.390 . S
C2800 C2801 1.394 . S
C2800 C2806 1.465 . S
C2801 C2796 1.399 . S
C2801 C2800 1.394 . S
C2801 C2802 1.516 . S
C2802 C2801 1.516 . S
C2802 C2803 1.502 . S
C2802 C2804 1.561 . S
C2802 C2805 1.526 . S
C2803 H2787 0.959 . S
C2803 H2788 0.959 . S
C2803 H2789 0.961 . S
C2803 C2802 1.502 . S
C2804 H2790 0.960 . S
C2804 H2791 0.961 . S
C2804 H2792 0.959 . S
C2804 C2802 1.561 . S
C2805 C2802 1.526 . S
C2805 C2806 1.396 . S
C2805 C2810 1.390 . S
C2806 C2800 1.465 . S
C2806 C2805 1.396 . S
C2806 C2807 1.399 . S
C2807 H2793 0.929 . S
C2807 C2806 1.399 . S
C2807 C2808 1.385 . S
C2808 H2794 0.931 . S
C2808 C2807 1.385 . S
C2808 C2809 1.389 . S
C2809 C2808 1.389 . S
C2809 C2810 1.387 . S
C2810 H2795 0.930 . S
C2810 C2805 1.390 . S
C2810 C2809 1.387 . S
H2811 C2823 0.930 . S
H2812 C2825 0.930 . S
H2813 C2826 0.930 . S
H2814 C2830 0.959 . S
H2815 C2830 0.959 . S
H2816 C2830 0.961 . S
H2817 C2831 0.960 . S
H2818 C2831 0.961 . S
H2819 C2831 0.959 . S
H2820 C2834 0.929 1_545 S
H2821 C2835 0.931 . S
H2822 C2837 0.930 . S
C2823 H2811 0.930 . S
C2823 C2824 1.399 . S
C2823 C2828 1.399 . S
C2824 C2823 1.399 . S
C2824 C2825 1.376 . S
C2825 H2812 0.930 . S
C2825 C2824 1.376 . S
C2825 C2826 1.388 . S
C2826 H2813 0.930 . S
C2826 C2825 1.388 . S
C2826 C2827 1.390 . S
C2827 C2826 1.390 . S
C2827 C2828 1.394 . S
C2827 C2833 1.465 1_545 S
C2828 C2823 1.399 . S
C2828 C2827 1.394 . S
C2828 C2829 1.516 1_545 S
C2829 C2828 1.516 1_565 S
C2829 C2830 1.502 . S
C2829 C2831 1.561 . S
C2829 C2832 1.526 . S
C2830 H2814 0.959 . S
C2830 H2815 0.959 . S
C2830 H2816 0.961 . S
C2830 C2829 1.502 . S
C2831 H2817 0.960 . S
C2831 H2818 0.961 . S
C2831 H2819 0.959 . S
C2831 C2829 1.561 . S
C2832 C2829 1.526 . S
C2832 C2833 1.396 . S
C2832 C2837 1.390 . S
C2833 C2827 1.465 1_565 S
C2833 C2832 1.396 . S
C2833 C2834 1.399 . S
C2834 H2820 0.929 1_565 S
C2834 C2833 1.399 . S
C2834 C2835 1.385 . S
C2835 H2821 0.931 . S
C2835 C2834 1.385 . S
C2835 C2836 1.389 . S
C2836 C2835 1.389 . S
C2836 C2837 1.387 . S
C2837 H2822 0.930 . S
C2837 C2832 1.390 . S
C2837 C2836 1.387 . S
H2838 C2850 0.930 . S
H2839 C2852 0.930 . S
H2840 C2853 0.930 . S
H2841 C2857 0.959 . S
H2842 C2857 0.959 . S
H2843 C2857 0.961 . S
H2844 C2858 0.958 1_554 S
H2845 C2858 0.966 . S
H2846 C2858 0.954 1_554 S
H2847 C2861 0.929 1_554 S
H2848 C2862 0.931 . S
H2849 C2864 0.930 . S
C2850 H2838 0.930 . S
C2850 C2851 1.399 . S
C2850 C2855 1.399 . S
C2851 C2850 1.399 . S
C2851 C2852 1.376 . S
C2852 H2839 0.930 . S
C2852 C2851 1.376 . S
C2852 C2853 1.388 . S
C2853 H2840 0.930 . S
C2853 C2852 1.388 . S
C2853 C2854 1.390 . S
C2854 C2853 1.390 . S
C2854 C2855 1.394 . S
C2854 C2860 1.465 1_554 S
C2855 C2850 1.399 . S
C2855 C2854 1.394 . S
C2855 C2856 1.516 1_554 S
C2856 C2855 1.516 1_556 S
C2856 C2857 1.502 . S
C2856 C2858 1.564 . S
C2856 C2859 1.526 . S
C2857 H2841 0.959 . S
C2857 H2842 0.959 . S
C2857 H2843 0.961 . S
C2857 C2856 1.502 . S
C2858 H2844 0.958 1_556 S
C2858 H2845 0.966 . S
C2858 H2846 0.954 1_556 S
C2858 C2856 1.564 . S
C2859 C2856 1.526 . S
C2859 C2860 1.396 . S
C2859 C2864 1.390 . S
C2860 C2854 1.465 1_556 S
C2860 C2859 1.396 . S
C2860 C2861 1.399 . S
C2861 H2847 0.929 1_556 S
C2861 C2860 1.399 . S
C2861 C2862 1.385 . S
C2862 H2848 0.931 . S
C2862 C2861 1.385 . S
C2862 C2863 1.389 . S
C2863 C2862 1.389 . S
C2863 C2864 1.387 . S
C2864 H2849 0.930 . S
C2864 C2859 1.390 . S
C2864 C2863 1.387 . S
H2865 C2877 0.930 . S
H2866 C2879 0.930 . S
H2867 C2880 0.930 . S
H2868 C2884 0.959 . S
H2869 C2884 0.959 . S
H2870 C2884 0.961 . S
H2871 C2885 0.960 . S
H2872 C2885 0.961 . S
H2873 C2885 0.959 . S
H2874 C2888 0.929 1_565 S
H2875 C2889 0.931 . S
H2876 C2891 0.930 . S
C2877 H2865 0.930 . S
C2877 C2878 1.399 . S
C2877 C2882 1.399 . S
C2878 C2877 1.399 . S
C2878 C2879 1.376 . S
C2879 H2866 0.930 . S
C2879 C2878 1.376 . S
C2879 C2880 1.388 . S
C2880 H2867 0.930 . S
C2880 C2879 1.388 . S
C2880 C2881 1.390 . S
C2881 C2880 1.390 . S
C2881 C2882 1.394 . S
C2881 C2887 1.465 1_565 S
C2882 C2877 1.399 . S
C2882 C2881 1.394 . S
C2882 C2883 1.516 1_565 S
C2883 C2882 1.516 1_545 S
C2883 C2884 1.502 . S
C2883 C2885 1.561 . S
C2883 C2886 1.526 . S
C2884 H2868 0.959 . S
C2884 H2869 0.959 . S
C2884 H2870 0.961 . S
C2884 C2883 1.502 . S
C2885 H2871 0.960 . S
C2885 H2872 0.961 . S
C2885 H2873 0.959 . S
C2885 C2883 1.561 . S
C2886 C2883 1.526 . S
C2886 C2887 1.396 . S
C2886 C2891 1.390 . S
C2887 C2881 1.465 1_545 S
C2887 C2886 1.396 . S
C2887 C2888 1.399 . S
C2888 H2874 0.929 1_545 S
C2888 C2887 1.399 . S
C2888 C2889 1.385 . S
C2889 H2875 0.931 . S
C2889 C2888 1.385 . S
C2889 C2890 1.389 . S
C2890 C2889 1.389 . S
C2890 C2891 1.387 . S
C2891 H2876 0.930 . S
C2891 C2886 1.390 . S
C2891 C2890 1.387 . S
H2892 C2904 0.930 . S
H2893 C2906 0.930 . S
H2894 C2907 0.930 . S
H2895 C2911 0.959 . S
H2896 C2911 0.959 . S
H2897 C2911 0.961 . S
H2898 C2912 0.960 . S
H2899 C2912 0.961 . S
H2900 C2912 0.959 . S
H2901 C2915 0.929 . S
H2902 C2916 0.931 . S
H2903 C2918 0.930 . S
C2904 H2892 0.930 . S
C2904 C2905 1.399 . S
C2904 C2909 1.399 . S
C2905 C2904 1.399 . S
C2905 C2906 1.376 . S
C2906 H2893 0.930 . S
C2906 C2905 1.376 . S
C2906 C2907 1.388 . S
C2907 H2894 0.930 . S
C2907 C2906 1.388 . S
C2907 C2908 1.390 . S
C2908 C2907 1.390 . S
C2908 C2909 1.394 . S
C2908 C2914 1.465 . S
C2909 C2904 1.399 . S
C2909 C2908 1.394 . S
C2909 C2910 1.516 . S
C2910 C2909 1.516 . S
C2910 C2911 1.502 . S
C2910 C2912 1.561 . S
C2910 C2913 1.526 . S
C2911 H2895 0.959 . S
C2911 H2896 0.959 . S
C2911 H2897 0.961 . S
C2911 C2910 1.502 . S
C2912 H2898 0.960 . S
C2912 H2899 0.961 . S
C2912 H2900 0.959 . S
C2912 C2910 1.561 . S
C2913 C2910 1.526 . S
C2913 C2914 1.396 . S
C2913 C2918 1.390 . S
C2914 C2908 1.465 . S
C2914 C2913 1.396 . S
C2914 C2915 1.399 . S
C2915 H2901 0.929 . S
C2915 C2914 1.399 . S
C2915 C2916 1.385 . S
C2916 H2902 0.931 . S
C2916 C2915 1.385 . S
C2916 C2917 1.389 . S
C2917 C2916 1.389 . S
C2917 C2918 1.387 . S
C2918 H2903 0.930 . S
C2918 C2913 1.390 . S
C2918 C2917 1.387 . S
H2919 C2931 0.930 . S
H2920 C2933 0.930 . S
H2921 C2934 0.930 . S
H2922 C2938 0.959 . S
H2923 C2938 0.959 . S
H2924 C2938 0.961 . S
H2925 C2939 0.960 . S
H2926 C2939 0.961 . S
H2927 C2939 0.959 . S
H2928 C2942 0.929 1_545 S
H2929 C2943 0.931 . S
H2930 C2945 0.930 . S
C2931 H2919 0.930 . S
C2931 C2932 1.399 . S
C2931 C2936 1.399 . S
C2932 C2931 1.399 . S
C2932 C2933 1.376 . S
C2933 H2920 0.930 . S
C2933 C2932 1.376 . S
C2933 C2934 1.388 . S
C2934 H2921 0.930 . S
C2934 C2933 1.388 . S
C2934 C2935 1.390 . S
C2935 C2934 1.390 . S
C2935 C2936 1.394 . S
C2935 C2941 1.465 1_545 S
C2936 C2931 1.399 . S
C2936 C2935 1.394 . S
C2936 C2937 1.516 1_545 S
C2937 C2936 1.516 1_565 S
C2937 C2938 1.502 . S
C2937 C2939 1.561 . S
C2937 C2940 1.526 . S
C2938 H2922 0.959 . S
C2938 H2923 0.959 . S
C2938 H2924 0.961 . S
C2938 C2937 1.502 . S
C2939 H2925 0.960 . S
C2939 H2926 0.961 . S
C2939 H2927 0.959 . S
C2939 C2937 1.561 . S
C2940 C2937 1.526 . S
C2940 C2941 1.396 . S
C2940 C2945 1.390 . S
C2941 C2935 1.465 1_565 S
C2941 C2940 1.396 . S
C2941 C2942 1.399 . S
C2942 H2928 0.929 1_565 S
C2942 C2941 1.399 . S
C2942 C2943 1.385 . S
C2943 H2929 0.931 . S
C2943 C2942 1.385 . S
C2943 C2944 1.389 . S
C2944 C2943 1.389 . S
C2944 C2945 1.387 . S
C2945 H2930 0.930 . S
C2945 C2940 1.390 . S
C2945 C2944 1.387 . S
H2946 C2958 0.930 . S
H2947 C2960 0.930 . S
H2948 C2961 0.930 . S
H2949 C2965 0.959 . S
H2950 C2965 0.959 . S
H2951 C2965 0.961 . S
H2952 C2966 0.960 . S
H2953 C2966 0.961 . S
H2954 C2966 0.959 . S
H2955 C2969 0.929 . S
H2956 C2970 0.931 . S
H2957 C2972 0.930 . S
C2958 H2946 0.930 . S
C2958 C2959 1.399 . S
C2958 C2963 1.399 . S
C2959 C2958 1.399 . S
C2959 C2960 1.376 . S
C2960 H2947 0.930 . S
C2960 C2959 1.376 . S
C2960 C2961 1.388 . S
C2961 H2948 0.930 . S
C2961 C2960 1.388 . S
C2961 C2962 1.390 . S
C2962 C2961 1.390 . S
C2962 C2963 1.394 . S
C2962 C2968 1.465 1_556 S
C2963 C2958 1.399 . S
C2963 C2962 1.394 . S
C2963 C2964 1.516 1_556 S
C2964 C2963 1.516 1_554 S
C2964 C2965 1.502 1_554 S
C2964 C2966 1.561 . S
C2964 C2967 1.526 . S
C2965 H2949 0.959 . S
C2965 H2950 0.959 . S
C2965 H2951 0.961 . S
C2965 C2964 1.502 1_556 S
C2966 H2952 0.960 . S
C2966 H2953 0.961 . S
C2966 H2954 0.959 . S
C2966 C2964 1.561 . S
C2967 C2964 1.526 . S
C2967 C2968 1.396 . S
C2967 C2972 1.390 . S
C2968 C2962 1.465 1_554 S
C2968 C2967 1.396 . S
C2968 C2969 1.399 . S
C2969 H2955 0.929 . S
C2969 C2968 1.399 . S
C2969 C2970 1.385 . S
C2970 H2956 0.931 . S
C2970 C2969 1.385 . S
C2970 C2971 1.389 . S
C2971 C2970 1.389 . S
C2971 C2972 1.387 . S
C2972 H2957 0.930 . S
C2972 C2967 1.390 . S
C2972 C2971 1.387 . S
H2973 C2985 0.930 . S
H2974 C2987 0.930 . S
H2975 C2988 0.930 1_565 S
H2976 C2992 0.959 . S
H2977 C2992 0.959 . S
H2978 C2992 0.961 . S
H2979 C2993 0.960 . S
H2980 C2993 0.961 . S
H2981 C2993 0.959 . S
H2982 C2996 0.929 . S
H2983 C2997 0.931 . S
H2984 C2999 0.930 . S
C2985 H2973 0.930 . S
C2985 C2986 1.399 . S
C2985 C2990 1.399 . S
C2986 C2985 1.399 . S
C2986 C2987 1.376 . S
C2987 H2974 0.930 . S
C2987 C2986 1.376 . S
C2987 C2988 1.388 . S
C2988 H2975 0.930 1_545 S
C2988 C2987 1.388 . S
C2988 C2989 1.390 . S
C2989 C2988 1.390 . S
C2989 C2990 1.394 . S
C2989 C2995 1.465 1_545 S
C2990 C2985 1.399 . S
C2990 C2989 1.394 . S
C2990 C2991 1.516 . S
C2991 C2990 1.516 . S
C2991 C2992 1.502 . S
C2991 C2993 1.561 . S
C2991 C2994 1.526 1_545 S
C2992 H2976 0.959 . S
C2992 H2977 0.959 . S
C2992 H2978 0.961 . S
C2992 C2991 1.502 . S
C2993 H2979 0.960 . S
C2993 H2980 0.961 . S
C2993 H2981 0.959 . S
C2993 C2991 1.561 . S
C2994 C2991 1.526 1_565 S
C2994 C2995 1.396 . S
C2994 C2999 1.390 . S
C2995 C2989 1.465 1_565 S
C2995 C2994 1.396 . S
C2995 C2996 1.399 . S
C2996 H2982 0.929 . S
C2996 C2995 1.399 . S
C2996 C2997 1.385 . S
C2997 H2983 0.931 . S
C2997 C2996 1.385 . S
C2997 C2998 1.389 . S
C2998 C2997 1.389 . S
C2998 C2999 1.387 . S
C2999 H2984 0.930 . S
C2999 C2994 1.390 . S
C2999 C2998 1.387 . S
H3000 C3012 0.930 . S
H3001 C3014 0.930 . S
H3002 C3015 0.930 . S
H3003 C3019 0.959 . S
H3004 C3019 0.959 . S
H3005 C3019 0.961 . S
H3006 C3020 0.960 1_556 S
H3007 C3020 0.961 . S
H3008 C3020 0.959 . S
H3009 C3023 0.929 . S
H3010 C3024 0.931 . S
H3011 C3026 0.930 . S
C3012 H3000 0.930 . S
C3012 C3013 1.399 . S
C3012 C3017 1.399 . S
C3013 C3012 1.399 . S
C3013 C3014 1.376 . S
C3014 H3001 0.930 . S
C3014 C3013 1.376 . S
C3014 C3015 1.388 . S
C3015 H3002 0.930 . S
C3015 C3014 1.388 . S
C3015 C3016 1.390 . S
C3016 C3015 1.390 . S
C3016 C3017 1.394 . S
C3016 C3022 1.465 1_556 S
C3017 C3012 1.399 . S
C3017 C3016 1.394 . S
C3017 C3018 1.516 . S
C3018 C3017 1.516 . S
C3018 C3019 1.502 . S
C3018 C3020 1.561 1_556 S
C3018 C3021 1.526 1_556 S
C3019 H3003 0.959 . S
C3019 H3004 0.959 . S
C3019 H3005 0.961 . S
C3019 C3018 1.502 . S
C3020 H3006 0.960 1_554 S
C3020 H3007 0.961 . S
C3020 H3008 0.959 . S
C3020 C3018 1.561 1_554 S
C3021 C3018 1.526 1_554 S
C3021 C3022 1.396 . S
C3021 C3026 1.390 . S
C3022 C3016 1.465 1_554 S
C3022 C3021 1.396 . S
C3022 C3023 1.399 . S
C3023 H3009 0.929 . S
C3023 C3022 1.399 . S
C3023 C3024 1.385 . S
C3024 H3010 0.931 . S
C3024 C3023 1.385 . S
C3024 C3025 1.389 . S
C3025 C3024 1.389 . S
C3025 C3026 1.387 . S
C3026 H3011 0.930 . S
C3026 C3021 1.390 . S
C3026 C3025 1.387 . S
H3027 C3039 0.930 . S
H3028 C3041 0.930 . S
H3029 C3042 0.930 . S
H3030 C3046 0.959 . S
H3031 C3046 0.959 . S
H3032 C3046 0.961 . S
H3033 C3047 0.960 . S
H3034 C3047 0.961 . S
H3035 C3047 0.959 . S
H3036 C3050 0.929 . S
H3037 C3051 0.931 . S
H3038 C3053 0.930 . S
C3039 H3027 0.930 . S
C3039 C3040 1.399 . S
C3039 C3044 1.399 . S
C3040 C3039 1.399 . S
C3040 C3041 1.376 . S
C3041 H3028 0.930 . S
C3041 C3040 1.376 . S
C3041 C3042 1.388 . S
C3042 H3029 0.930 . S
C3042 C3041 1.388 . S
C3042 C3043 1.390 . S
C3043 C3042 1.390 . S
C3043 C3044 1.394 . S
C3043 C3049 1.465 . S
C3044 C3039 1.399 . S
C3044 C3043 1.394 . S
C3044 C3045 1.516 . S
C3045 C3044 1.516 . S
C3045 C3046 1.502 . S
C3045 C3047 1.561 . S
C3045 C3048 1.526 . S
C3046 H3030 0.959 . S
C3046 H3031 0.959 . S
C3046 H3032 0.961 . S
C3046 C3045 1.502 . S
C3047 H3033 0.960 . S
C3047 H3034 0.961 . S
C3047 H3035 0.959 . S
C3047 C3045 1.561 . S
C3048 C3045 1.526 . S
C3048 C3049 1.396 . S
C3048 C3053 1.390 . S
C3049 C3043 1.465 . S
C3049 C3048 1.396 . S
C3049 C3050 1.399 . S
C3050 H3036 0.929 . S
C3050 C3049 1.399 . S
C3050 C3051 1.385 . S
C3051 H3037 0.931 . S
C3051 C3050 1.385 . S
C3051 C3052 1.389 . S
C3052 C3051 1.389 . S
C3052 C3053 1.387 . S
C3053 H3038 0.930 . S
C3053 C3048 1.390 . S
C3053 C3052 1.387 . S
H3054 C3066 0.930 . S
H3055 C3068 0.930 . S
H3056 C3069 0.930 . S
H3057 C3073 0.959 . S
H3058 C3073 0.959 . S
H3059 C3073 0.961 . S
H3060 C3074 0.960 . S
H3061 C3074 0.961 . S
H3062 C3074 0.959 . S
H3063 C3077 0.929 . S
H3064 C3078 0.931 . S
H3065 C3080 0.930 . S
C3066 H3054 0.930 . S
C3066 C3067 1.399 . S
C3066 C3071 1.399 . S
C3067 C3066 1.399 . S
C3067 C3068 1.376 . S
C3068 H3055 0.930 . S
C3068 C3067 1.376 . S
C3068 C3069 1.388 . S
C3069 H3056 0.930 . S
C3069 C3068 1.388 . S
C3069 C3070 1.390 . S
C3070 C3069 1.390 . S
C3070 C3071 1.394 . S
C3070 C3076 1.465 . S
C3071 C3066 1.399 . S
C3071 C3070 1.394 . S
C3071 C3072 1.516 . S
C3072 C3071 1.516 . S
C3072 C3073 1.502 . S
C3072 C3074 1.561 . S
C3072 C3075 1.526 . S
C3073 H3057 0.959 . S
C3073 H3058 0.959 . S
C3073 H3059 0.961 . S
C3073 C3072 1.502 . S
C3074 H3060 0.960 . S
C3074 H3061 0.961 . S
C3074 H3062 0.959 . S
C3074 C3072 1.561 . S
C3075 C3072 1.526 . S
C3075 C3076 1.396 . S
C3075 C3080 1.390 . S
C3076 C3070 1.465 . S
C3076 C3075 1.396 . S
C3076 C3077 1.399 . S
C3077 H3063 0.929 . S
C3077 C3076 1.399 . S
C3077 C3078 1.385 . S
C3078 H3064 0.931 . S
C3078 C3077 1.385 . S
C3078 C3079 1.389 . S
C3079 C3078 1.389 . S
C3079 C3080 1.387 . S
C3080 H3065 0.930 . S
C3080 C3075 1.390 . S
C3080 C3079 1.387 . S
H3081 C3093 0.930 . S
H3082 C3095 0.930 . S
H3083 C3096 0.930 . S
H3084 C3100 0.959 . S
H3085 C3100 0.959 . S
H3086 C3100 0.961 . S
H3087 C3101 0.960 . S
H3088 C3101 0.961 . S
H3089 C3101 0.959 . S
H3090 C3104 0.929 . S
H3091 C3105 0.931 . S
H3092 C3107 0.930 . S
C3093 H3081 0.930 . S
C3093 C3094 1.399 . S
C3093 C3098 1.399 . S
C3094 C3093 1.399 . S
C3094 C3095 1.376 . S
C3095 H3082 0.930 . S
C3095 C3094 1.376 . S
C3095 C3096 1.388 . S
C3096 H3083 0.930 . S
C3096 C3095 1.388 . S
C3096 C3097 1.390 . S
C3097 C3096 1.390 . S
C3097 C3098 1.394 . S
C3097 C3103 1.465 . S
C3098 C3093 1.399 . S
C3098 C3097 1.394 . S
C3098 C3099 1.516 . S
C3099 C3098 1.516 . S
C3099 C3100 1.502 . S
C3099 C3101 1.561 . S
C3099 C3102 1.526 . S
C3100 H3084 0.959 . S
C3100 H3085 0.959 . S
C3100 H3086 0.961 . S
C3100 C3099 1.502 . S
C3101 H3087 0.960 . S
C3101 H3088 0.961 . S
C3101 H3089 0.959 . S
C3101 C3099 1.561 . S
C3102 C3099 1.526 . S
C3102 C3103 1.396 . S
C3102 C3107 1.390 . S
C3103 C3097 1.465 . S
C3103 C3102 1.396 . S
C3103 C3104 1.399 . S
C3104 H3090 0.929 . S
C3104 C3103 1.399 . S
C3104 C3105 1.385 . S
C3105 H3091 0.931 . S
C3105 C3104 1.385 . S
C3105 C3106 1.389 . S
C3106 C3105 1.389 . S
C3106 C3107 1.387 . S
C3107 H3092 0.930 . S
C3107 C3102 1.390 . S
C3107 C3106 1.387 . S
H3108 C3120 0.930 . S
H3109 C3122 0.930 . S
H3110 C3123 0.930 . S
H3111 C3127 0.959 . S
H3112 C3127 0.959 . S
H3113 C3127 0.961 . S
H3114 C3128 0.960 . S
H3115 C3128 0.961 . S
H3116 C3128 0.959 . S
H3117 C3131 0.929 . S
H3118 C3132 0.931 . S
H3119 C3134 0.930 . S
C3120 H3108 0.930 . S
C3120 C3121 1.399 . S
C3120 C3125 1.399 . S
C3121 C3120 1.399 . S
C3121 C3122 1.376 . S
C3122 H3109 0.930 . S
C3122 C3121 1.376 . S
C3122 C3123 1.388 . S
C3123 H3110 0.930 . S
C3123 C3122 1.388 . S
C3123 C3124 1.390 . S
C3124 C3123 1.390 . S
C3124 C3125 1.394 . S
C3124 C3130 1.465 . S
C3125 C3120 1.399 . S
C3125 C3124 1.394 . S
C3125 C3126 1.516 1_554 S
C3126 C3125 1.516 1_556 S
C3126 C3127 1.502 . S
C3126 C3128 1.561 . S
C3126 C3129 1.526 . S
C3127 H3111 0.959 . S
C3127 H3112 0.959 . S
C3127 H3113 0.961 . S
C3127 C3126 1.502 . S
C3128 H3114 0.960 . S
C3128 H3115 0.961 . S
C3128 H3116 0.959 . S
C3128 C3126 1.561 . S
C3129 C3126 1.526 . S
C3129 C3130 1.396 1_556 S
C3129 C3134 1.390 . S
C3130 C3124 1.465 . S
C3130 C3129 1.396 1_554 S
C3130 C3131 1.399 . S
C3131 H3117 0.929 . S
C3131 C3130 1.399 . S
C3131 C3132 1.385 1_554 S
C3132 H3118 0.931 . S
C3132 C3131 1.385 1_556 S
C3132 C3133 1.389 . S
C3133 C3132 1.389 . S
C3133 C3134 1.387 . S
C3134 H3119 0.930 . S
C3134 C3129 1.390 . S
C3134 C3133 1.387 . S
H3135 C3147 0.930 . S
H3136 C3149 0.930 . S
H3137 C3150 0.930 . S
H3138 C3154 0.959 . S
H3139 C3154 0.959 . S
H3140 C3154 0.961 . S
H3141 C3155 0.960 . S
H3142 C3155 0.961 . S
H3143 C3155 0.959 . S
H3144 C3158 0.929 . S
H3145 C3159 0.931 . S
H3146 C3161 0.930 . S
C3147 H3135 0.930 . S
C3147 C3148 1.399 . S
C3147 C3152 1.399 . S
C3148 C3147 1.399 . S
C3148 C3149 1.376 . S
C3149 H3136 0.930 . S
C3149 C3148 1.376 . S
C3149 C3150 1.388 . S
C3150 H3137 0.930 . S
C3150 C3149 1.388 . S
C3150 C3151 1.390 . S
C3151 C3150 1.390 . S
C3151 C3152 1.394 . S
C3151 C3157 1.465 . S
C3152 C3147 1.399 . S
C3152 C3151 1.394 . S
C3152 C3153 1.516 . S
C3153 C3152 1.516 . S
C3153 C3154 1.502 . S
C3153 C3155 1.561 . S
C3153 C3156 1.526 . S
C3154 H3138 0.959 . S
C3154 H3139 0.959 . S
C3154 H3140 0.961 . S
C3154 C3153 1.502 . S
C3155 H3141 0.960 . S
C3155 H3142 0.961 . S
C3155 H3143 0.959 . S
C3155 C3153 1.561 . S
C3156 C3153 1.526 . S
C3156 C3157 1.396 . S
C3156 C3161 1.390 . S
C3157 C3151 1.465 . S
C3157 C3156 1.396 . S
C3157 C3158 1.399 . S
C3158 H3144 0.929 . S
C3158 C3157 1.399 . S
C3158 C3159 1.385 . S
C3159 H3145 0.931 . S
C3159 C3158 1.385 . S
C3159 C3160 1.389 . S
C3160 C3159 1.389 . S
C3160 C3161 1.387 . S
C3161 H3146 0.930 . S
C3161 C3156 1.390 . S
C3161 C3160 1.387 . S
H3162 C3174 0.930 . S
H3163 C3176 0.930 . S
H3164 C3177 0.930 . S
H3165 C3181 0.959 . S
H3166 C3181 0.959 . S
H3167 C3181 0.961 . S
H3168 C3182 0.960 . S
H3169 C3182 0.961 . S
H3170 C3182 0.959 . S
H3171 C3185 0.929 . S
H3172 C3186 0.931 . S
H3173 C3188 0.930 . S
C3174 H3162 0.930 . S
C3174 C3175 1.399 . S
C3174 C3179 1.399 . S
C3175 C3174 1.399 . S
C3175 C3176 1.376 . S
C3176 H3163 0.930 . S
C3176 C3175 1.376 . S
C3176 C3177 1.388 . S
C3177 H3164 0.930 . S
C3177 C3176 1.388 . S
C3177 C3178 1.390 . S
C3178 C3177 1.390 . S
C3178 C3179 1.394 . S
C3178 C3184 1.465 . S
C3179 C3174 1.399 . S
C3179 C3178 1.394 . S
C3179 C3180 1.516 . S
C3180 C3179 1.516 . S
C3180 C3181 1.502 . S
C3180 C3182 1.561 . S
C3180 C3183 1.526 . S
C3181 H3165 0.959 . S
C3181 H3166 0.959 . S
C3181 H3167 0.961 . S
C3181 C3180 1.502 . S
C3182 H3168 0.960 . S
C3182 H3169 0.961 . S
C3182 H3170 0.959 . S
C3182 C3180 1.561 . S
C3183 C3180 1.526 . S
C3183 C3184 1.396 . S
C3183 C3188 1.390 . S
C3184 C3178 1.465 . S
C3184 C3183 1.396 . S
C3184 C3185 1.399 . S
C3185 H3171 0.929 . S
C3185 C3184 1.399 . S
C3185 C3186 1.385 . S
C3186 H3172 0.931 . S
C3186 C3185 1.385 . S
C3186 C3187 1.389 . S
C3187 C3186 1.389 . S
C3187 C3188 1.387 . S
C3188 H3173 0.930 . S
C3188 C3183 1.390 . S
C3188 C3187 1.387 . S
H3189 C3201 0.930 . S
H3190 C3203 0.930 . S
H3191 C3204 0.930 . S
H3192 C3208 0.959 . S
H3193 C3208 0.959 . S
H3194 C3208 0.961 . S
H3195 C3209 0.960 . S
H3196 C3209 0.961 . S
H3197 C3209 0.959 . S
H3198 C3212 0.929 . S
H3199 C3213 0.931 . S
H3200 C3215 0.930 . S
C3201 H3189 0.930 . S
C3201 C3202 1.399 . S
C3201 C3206 1.399 . S
C3202 C3201 1.399 . S
C3202 C3203 1.376 . S
C3203 H3190 0.930 . S
C3203 C3202 1.376 . S
C3203 C3204 1.388 . S
C3204 H3191 0.930 . S
C3204 C3203 1.388 . S
C3204 C3205 1.390 . S
C3205 C3204 1.390 . S
C3205 C3206 1.394 . S
C3205 C3211 1.465 . S
C3206 C3201 1.399 . S
C3206 C3205 1.394 . S
C3206 C3207 1.516 . S
C3207 C3206 1.516 . S
C3207 C3208 1.502 . S
C3207 C3209 1.561 . S
C3207 C3210 1.526 . S
C3208 H3192 0.959 . S
C3208 H3193 0.959 . S
C3208 H3194 0.961 . S
C3208 C3207 1.502 . S
C3209 H3195 0.960 . S
C3209 H3196 0.961 . S
C3209 H3197 0.959 . S
C3209 C3207 1.561 . S
C3210 C3207 1.526 . S
C3210 C3211 1.396 . S
C3210 C3215 1.390 . S
C3211 C3205 1.465 . S
C3211 C3210 1.396 . S
C3211 C3212 1.399 . S
C3212 H3198 0.929 . S
C3212 C3211 1.399 . S
C3212 C3213 1.385 . S
C3213 H3199 0.931 . S
C3213 C3212 1.385 . S
C3213 C3214 1.389 . S
C3214 C3213 1.389 . S
C3214 C3215 1.387 . S
C3215 H3200 0.930 . S
C3215 C3210 1.390 . S
C3215 C3214 1.387 . S
C1069 C249 1.662 1_554 S
C1081 C18 1.667 . S
C1096 C51 1.667 . S
C1108 C150 1.662 . S
C1123 C84 1.669 . S
C1135 C183 1.664 . S
C1150 C216 1.679 . S
C1162 C117 1.682 1_556 S
C1177 C282 1.656 . S
C1189 C513 1.670 1_556 S
C1204 C414 1.671 . S
C1216 C315 1.658 . S
C1231 C348 1.673 . S
C1243 C447 1.683 . S
C1258 C480 1.676 . S
C1270 C381 1.662 1_554 S
C1285 C777 1.661 . S
C1297 C546 1.666 . S
C1312 C678 1.653 . S
C1324 C579 1.653 1_556 S
C1339 C711 1.657 1_554 S
C1351 C612 1.662 . S
C1366 C744 1.682 . S
C1378 C645 1.683 . S
C1393 C1041 1.683 . S
C1405 C810 1.673 . S
C1420 C843 1.683 1_554 S
C1432 C942 1.681 . S
C1447 C975 1.661 1_556 S
C1459 C876 1.653 . S
C1474 C1008 1.653 . S
C1486 C909 1.664 . S
C1501 C21 1.345 . S
C1513 N904 1.364 . S
C1528 N277 1.383 . S
C1540 C54 1.348 1_655 S
C1555 N838 1.336 . S
C1567 C87 1.363 . S
C1582 C120 1.348 . S
C1594 N343 1.354 . S
C1609 N970 1.382 . S
C1621 C153 1.370 . S
C1636 C186 1.387 . S
C1648 N475 1.360 . S
C1663 N1036 1.383 . S
C1675 C219 1.369 . S
C1690 N409 1.387 . S
C1702 C252 1.354 1_655 S
C1717 C285 1.363 . S
C1729 N640 1.376 . S
C1744 C318 1.359 1_455 S
C1756 N13 1.355 . S
C1771 N574 1.368 . S
C1783 C351 1.351 . S
C1798 N79 1.347 . S
C1810 C384 1.385 . S
C1825 N706 1.337 . S
C1837 C417 1.389 . S
C1852 N211 1.354 . S
C1864 C450 1.381 . S
C1879 C483 1.368 . S
C1891 N772 1.371 . S
C1906 C516 1.386 1_455 S
C1918 N145 1.331 . S
C1933 C549 1.344 . S
C1945 N376 1.365 . S
C1960 N805 1.384 . S
C1972 C582 1.367 . S
C1987 N310 1.383 . S
C1999 C615 1.348 . S
C2014 C648 1.384 1_455 S
C2026 N871 1.334 . S
C2041 C681 1.388 . S
C2053 N442 1.354 . S
C2068 N1003 1.386 . S
C2080 C714 1.362 1_455 S
C2095 N508 1.333 . S
C2107 C747 1.368 . S
C2122 C780 1.346 . S
C2134 N937 1.380 . S
C2149 N112 1.372 . S
C2161 C813 1.348 . S
C2176 N541 1.376 . S
C2188 C846 1.347 . S
C2203 N46 1.347 . S
C2215 C879 1.385 . S
C2230 N607 1.377 . S
C2242 C912 1.346 1_655 S
C2257 C945 1.359 . S
C2269 N178 1.380 . S
C2284 C978 1.364 1_655 S
C2296 N739 1.376 . S
C2311 C1011 1.375 . S
C2323 N244 1.338 . S
C2338 N673 1.353 . S
C2350 C1044 1.382 . S
C2365 N2 0.733 . S
C2377 N794 0.763 . S
C2392 N35 0.734 . S
C2404 N299 0.762 . S
C2419 N68 0.723 . S
C2431 N860 0.773 . S
C2446 N365 0.694 . S
C2458 N101 0.804 . S
C2473 N926 0.706 . S
C2485 N134 0.824 . S
C2500 N167 0.732 . S
C2512 N431 0.807 . S
C2527 N200 0.803 . S
C2539 N992 0.739 . S
C2554 N233 0.707 . S
C2566 N497 0.824 . S
C2581 N530 0.811 . S
C2593 N266 0.729 . S
C2608 N332 0.678 . S
C2620 N596 0.825 . S
C2635 N662 0.711 . S
C2647 N398 0.785 . S
C2662 N464 0.823 . S
C2674 N728 0.711 . S
C2689 N563 0.803 . S
C2701 N827 0.697 . S
C2716 N893 0.781 . S
C2728 N629 0.764 . S
C2743 N695 0.784 . S
C2755 N959 0.761 . S
C2770 N1025 0.835 . S
C2782 N761 0.688 . S
C2797 C7 1.772 . S
C2809 C205 1.783 . S
C2824 C238 1.743 . S
C2836 C40 1.735 . S
C2851 C139 1.736 . S
C2863 C73 1.748 . S
C2878 C172 1.746 . S
C2890 C106 1.736 . S
C2905 C271 1.779 . S
C2917 C469 1.790 . S
C2932 C304 1.790 . S
C2944 C502 1.767 . S
C2959 C403 1.741 . S
C2971 C337 1.731 . S
C2986 C436 1.733 . S
C2998 C370 1.761 . S
C3013 C535 1.788 . S
C3025 C733 1.780 . S
C3040 C568 1.765 . S
C3052 C766 1.778 . S
C3067 C667 1.791 . S
C3079 C601 1.787 . S
C3094 C700 1.739 . S
C3106 C634 1.732 . S
C3121 C799 1.736 . S
C3133 C997 1.766 . S
C3148 C832 1.782 . S
C3160 C1030 1.752 . S
C3175 C931 1.752 . S
C3187 C865 1.731 . S
C3202 C898 1.790 . S
C3214 C964 1.767 . S
