# Generated by pormake.
# Topology ukd, (4)-cn, num edge types: 1
# Building blocks:
#     Node 0, Type 0, BuildingBlock: KUFVIS_clean_sbu_0, # of connection points: 4
#     Node 1, Type 0, BuildingBlock: KUFVIS_clean_sbu_0, # of connection points: 4
#     Node 2, Type 0, BuildingBlock: KUFVIS_clean_sbu_0, # of connection points: 4
#     Node 3, Type 0, BuildingBlock: KUFVIS_clean_sbu_0, # of connection points: 4
#     Node 4, Type 0, BuildingBlock: KUFVIS_clean_sbu_0, # of connection points: 4
#     Node 5, Type 0, BuildingBlock: KUFVIS_clean_sbu_0, # of connection points: 4
#     Node 6, Type 0, BuildingBlock: KUFVIS_clean_sbu_0, # of connection points: 4
#     Node 7, Type 0, BuildingBlock: KUFVIS_clean_sbu_0, # of connection points: 4
#     Node 8, Type 0, BuildingBlock: KUFVIS_clean_sbu_0, # of connection points: 4
#     Node 9, Type 0, BuildingBlock: KUFVIS_clean_sbu_0, # of connection points: 4
#     Node 10, Type 0, BuildingBlock: KUFVIS_clean_sbu_0, # of connection points: 4
#     Node 11, Type 0, BuildingBlock: KUFVIS_clean_sbu_0, # of connection points: 4
#     Node 12, Type 0, BuildingBlock: KUFVIS_clean_sbu_0, # of connection points: 4
#     Node 13, Type 0, BuildingBlock: KUFVIS_clean_sbu_0, # of connection points: 4
#     Node 14, Type 0, BuildingBlock: KUFVIS_clean_sbu_0, # of connection points: 4
#     Node 15, Type 0, BuildingBlock: KUFVIS_clean_sbu_0, # of connection points: 4
#     Node 16, Type 0, BuildingBlock: KUFVIS_clean_sbu_0, # of connection points: 4
#     Node 17, Type 0, BuildingBlock: KUFVIS_clean_sbu_0, # of connection points: 4
#     Node 18, Type 0, BuildingBlock: KUFVIS_clean_sbu_0, # of connection points: 4
#     Node 19, Type 0, BuildingBlock: KUFVIS_clean_sbu_0, # of connection points: 4
#     Node 20, Type 0, BuildingBlock: KUFVIS_clean_sbu_0, # of connection points: 4
#     Node 21, Type 0, BuildingBlock: KUFVIS_clean_sbu_0, # of connection points: 4
#     Node 22, Type 0, BuildingBlock: KUFVIS_clean_sbu_0, # of connection points: 4
#     Node 23, Type 0, BuildingBlock: KUFVIS_clean_sbu_0, # of connection points: 4
#     Node 24, Type 0, BuildingBlock: KUFVIS_clean_sbu_0, # of connection points: 4
#     Node 25, Type 0, BuildingBlock: KUFVIS_clean_sbu_0, # of connection points: 4
#     Node 26, Type 0, BuildingBlock: KUFVIS_clean_sbu_0, # of connection points: 4
#     Node 27, Type 0, BuildingBlock: KUFVIS_clean_sbu_0, # of connection points: 4
#     Node 28, Type 0, BuildingBlock: KUFVIS_clean_sbu_0, # of connection points: 4
#     Node 29, Type 0, BuildingBlock: KUFVIS_clean_sbu_0, # of connection points: 4
#     Node 30, Type 0, BuildingBlock: KUFVIS_clean_sbu_0, # of connection points: 4
#     Node 31, Type 0, BuildingBlock: KUFVIS_clean_sbu_0, # of connection points: 4
#     Edge 32, Type (0, 0), BuildingBlock: ZUJKAS_clean_linker_0, # of connection points: 2
#     Edge 33, Type (0, 0), BuildingBlock: ZUJKAS_clean_linker_0, # of connection points: 2
#     Edge 34, Type (0, 0), BuildingBlock: ZUJKAS_clean_linker_0, # of connection points: 2
#     Edge 35, Type (0, 0), BuildingBlock: ZUJKAS_clean_linker_0, # of connection points: 2
#     Edge 36, Type (0, 0), BuildingBlock: ZUJKAS_clean_linker_0, # of connection points: 2
#     Edge 37, Type (0, 0), BuildingBlock: ZUJKAS_clean_linker_0, # of connection points: 2
#     Edge 38, Type (0, 0), BuildingBlock: ZUJKAS_clean_linker_0, # of connection points: 2
#     Edge 39, Type (0, 0), BuildingBlock: ZUJKAS_clean_linker_0, # of connection points: 2
#     Edge 40, Type (0, 0), BuildingBlock: ZUJKAS_clean_linker_0, # of connection points: 2
#     Edge 41, Type (0, 0), BuildingBlock: ZUJKAS_clean_linker_0, # of connection points: 2
#     Edge 42, Type (0, 0), BuildingBlock: ZUJKAS_clean_linker_0, # of connection points: 2
#     Edge 43, Type (0, 0), BuildingBlock: ZUJKAS_clean_linker_0, # of connection points: 2
#     Edge 44, Type (0, 0), BuildingBlock: ZUJKAS_clean_linker_0, # of connection points: 2
#     Edge 45, Type (0, 0), BuildingBlock: ZUJKAS_clean_linker_0, # of connection points: 2
#     Edge 46, Type (0, 0), BuildingBlock: ZUJKAS_clean_linker_0, # of connection points: 2
#     Edge 47, Type (0, 0), BuildingBlock: ZUJKAS_clean_linker_0, # of connection points: 2
#     Edge 48, Type (0, 0), BuildingBlock: ZUJKAS_clean_linker_0, # of connection points: 2
#     Edge 49, Type (0, 0), BuildingBlock: ZUJKAS_clean_linker_0, # of connection points: 2
#     Edge 50, Type (0, 0), BuildingBlock: ZUJKAS_clean_linker_0, # of connection points: 2
#     Edge 51, Type (0, 0), BuildingBlock: ZUJKAS_clean_linker_0, # of connection points: 2
#     Edge 52, Type (0, 0), BuildingBlock: ZUJKAS_clean_linker_0, # of connection points: 2
#     Edge 53, Type (0, 0), BuildingBlock: ZUJKAS_clean_linker_0, # of connection points: 2
#     Edge 54, Type (0, 0), BuildingBlock: ZUJKAS_clean_linker_0, # of connection points: 2
#     Edge 55, Type (0, 0), BuildingBlock: ZUJKAS_clean_linker_0, # of connection points: 2
#     Edge 56, Type (0, 0), BuildingBlock: ZUJKAS_clean_linker_0, # of connection points: 2
#     Edge 57, Type (0, 0), BuildingBlock: ZUJKAS_clean_linker_0, # of connection points: 2
#     Edge 58, Type (0, 0), BuildingBlock: ZUJKAS_clean_linker_0, # of connection points: 2
#     Edge 59, Type (0, 0), BuildingBlock: ZUJKAS_clean_linker_0, # of connection points: 2
#     Edge 60, Type (0, 0), BuildingBlock: ZUJKAS_clean_linker_0, # of connection points: 2
#     Edge 61, Type (0, 0), BuildingBlock: ZUJKAS_clean_linker_0, # of connection points: 2
#     Edge 62, Type (0, 0), BuildingBlock: ZUJKAS_clean_linker_0, # of connection points: 2
#     Edge 63, Type (0, 0), BuildingBlock: ZUJKAS_clean_linker_0, # of connection points: 2
#     Edge 64, Type (0, 0), BuildingBlock: ZUJKAS_clean_linker_0, # of connection points: 2
#     Edge 65, Type (0, 0), BuildingBlock: ZUJKAS_clean_linker_0, # of connection points: 2
#     Edge 66, Type (0, 0), BuildingBlock: ZUJKAS_clean_linker_0, # of connection points: 2
#     Edge 67, Type (0, 0), BuildingBlock: ZUJKAS_clean_linker_0, # of connection points: 2
#     Edge 68, Type (0, 0), BuildingBlock: ZUJKAS_clean_linker_0, # of connection points: 2
#     Edge 69, Type (0, 0), BuildingBlock: ZUJKAS_clean_linker_0, # of connection points: 2
#     Edge 70, Type (0, 0), BuildingBlock: ZUJKAS_clean_linker_0, # of connection points: 2
#     Edge 71, Type (0, 0), BuildingBlock: ZUJKAS_clean_linker_0, # of connection points: 2
#     Edge 72, Type (0, 0), BuildingBlock: ZUJKAS_clean_linker_0, # of connection points: 2
#     Edge 73, Type (0, 0), BuildingBlock: ZUJKAS_clean_linker_0, # of connection points: 2
#     Edge 74, Type (0, 0), BuildingBlock: ZUJKAS_clean_linker_0, # of connection points: 2
#     Edge 75, Type (0, 0), BuildingBlock: ZUJKAS_clean_linker_0, # of connection points: 2
#     Edge 76, Type (0, 0), BuildingBlock: ZUJKAS_clean_linker_0, # of connection points: 2
#     Edge 77, Type (0, 0), BuildingBlock: ZUJKAS_clean_linker_0, # of connection points: 2
#     Edge 78, Type (0, 0), BuildingBlock: ZUJKAS_clean_linker_0, # of connection points: 2
#     Edge 79, Type (0, 0), BuildingBlock: ZUJKAS_clean_linker_0, # of connection points: 2
#     Edge 80, Type (0, 0), BuildingBlock: ZUJKAS_clean_linker_0, # of connection points: 2
#     Edge 81, Type (0, 0), BuildingBlock: ZUJKAS_clean_linker_0, # of connection points: 2
#     Edge 82, Type (0, 0), BuildingBlock: ZUJKAS_clean_linker_0, # of connection points: 2
#     Edge 83, Type (0, 0), BuildingBlock: ZUJKAS_clean_linker_0, # of connection points: 2
#     Edge 84, Type (0, 0), BuildingBlock: ZUJKAS_clean_linker_0, # of connection points: 2
#     Edge 85, Type (0, 0), BuildingBlock: ZUJKAS_clean_linker_0, # of connection points: 2
#     Edge 86, Type (0, 0), BuildingBlock: ZUJKAS_clean_linker_0, # of connection points: 2
#     Edge 87, Type (0, 0), BuildingBlock: ZUJKAS_clean_linker_0, # of connection points: 2
#     Edge 88, Type (0, 0), BuildingBlock: ZUJKAS_clean_linker_0, # of connection points: 2
#     Edge 89, Type (0, 0), BuildingBlock: ZUJKAS_clean_linker_0, # of connection points: 2
#     Edge 90, Type (0, 0), BuildingBlock: ZUJKAS_clean_linker_0, # of connection points: 2
#     Edge 91, Type (0, 0), BuildingBlock: ZUJKAS_clean_linker_0, # of connection points: 2
#     Edge 92, Type (0, 0), BuildingBlock: ZUJKAS_clean_linker_0, # of connection points: 2
#     Edge 93, Type (0, 0), BuildingBlock: ZUJKAS_clean_linker_0, # of connection points: 2
#     Edge 94, Type (0, 0), BuildingBlock: ZUJKAS_clean_linker_0, # of connection points: 2
#     Edge 95, Type (0, 0), BuildingBlock: ZUJKAS_clean_linker_0, # of connection points: 2
# Relax obj value: 0.061
# Max RMSD: 0.101
# Mean RMSD: 0.099
data_MOF--net-ukd--node1-KUFVIS_clean_sbu_0--edge1-ZUJKAS_clean_linker_0
_symmetry_space_group_name_H-M    P1
_symmetry_Int_Tables_number       1
_symmetry_cell_setting            triclinic
loop_
_symmetry_equiv_pos_as_xyz
'x, y, z'
_cell_length_a     57.734505
_cell_length_b     57.731049
_cell_length_c     94.553946
_cell_angle_alpha  90.004649
_cell_angle_beta   89.992356
_cell_angle_gamma 90.002405
loop_
_atom_site_label
_atom_site_type_symbol
_atom_site_fract_x
_atom_site_fract_y
_atom_site_fract_z
_atom_type_partial_charge
Mn0 Mn 0.21167 0.18067 0.34474 0.0
Mn1 Mn 0.16322 0.18397 0.32492 0.0
C2 C 0.17819 0.16281 0.35253 0.0
C3 C 0.24671 0.16239 0.34967 0.0
C4 C 0.1814 0.22364 0.34294 0.0
O5 O 0.22325 0.19249 0.32568 0.0
O6 O 0.19074 0.18877 0.31269 0.0
C7 C 0.16972 0.14196 0.30742 0.0
N8 N 0.15657 0.1546 0.31655 0.0
C9 C 0.12594 0.12636 0.31585 0.0
C10 C 0.1391 0.11308 0.30638 0.0
C11 C 0.16112 0.12088 0.30219 0.0
C12 C 0.13547 0.14716 0.32076 0.0
H13 H 0.18664 0.14795 0.30418 0.0
C14 C 0.21235 0.19333 0.31394 0.0
O15 O 0.24307 0.18377 0.35333 0.0
O16 O 0.23028 0.15193 0.34283 0.0
N17 N 0.13503 0.17975 0.33523 0.0
C18 C 0.12481 0.19435 0.34469 0.0
C19 C 0.10257 0.18922 0.34982 0.0
C20 C 0.09101 0.16928 0.34508 0.0
C21 C 0.10189 0.15447 0.3354 0.0
C22 C 0.12392 0.16065 0.3305 0.0
H23 H 0.13345 0.2099 0.3482 0.0
O24 O 0.19497 0.16709 0.36126 0.0
O25 O 0.18183 0.16837 0.33939 0.0
O26 O 0.19779 0.21254 0.34894 0.0
O27 O 0.16837 0.21486 0.3334 0.0
C28 C 0.09177 0.13381 0.33043 0.0
C29 C 0.10386 0.11968 0.32073 0.0
H30 H 0.13252 0.09682 0.30231 0.0
H31 H 0.17141 0.11069 0.29492 0.0
H32 H 0.09428 0.20072 0.35731 0.0
H33 H 0.07372 0.16558 0.3489 0.0
H34 H 0.07481 0.1285 0.33411 0.0
H35 H 0.09602 0.1037 0.31711 0.0
Mn36 Mn 0.06974 0.96773 0.59603 0.0
Mn37 Mn 0.06626 0.91686 0.57855 0.0
C38 C 0.08725 0.93516 0.60538 0.0
C39 C 0.08835 0.00306 0.59973 0.0
C40 C 0.0267 0.93718 0.59576 0.0
O41 O 0.05856 0.97718 0.57639 0.0
O42 O 0.06122 0.94283 0.56517 0.0
C43 C 0.10801 0.92151 0.5606 0.0
N44 N 0.09552 0.90937 0.5703 0.0
C45 C 0.1237 0.87866 0.57061 0.0
C46 C 0.13682 0.89077 0.56055 0.0
C47 C 0.12898 0.91232 0.55557 0.0
C48 C 0.10302 0.88874 0.57528 0.0
H49 H 0.10201 0.93806 0.55675 0.0
C50 C 0.05738 0.96468 0.56527 0.0
O51 O 0.06675 0.00013 0.60315 0.0
O52 O 0.09876 0.98576 0.59371 0.0
N53 N 0.07076 0.88994 0.59002 0.0
C54 C 0.05635 0.88079 0.59998 0.0
C55 C 0.06152 0.8591 0.60591 0.0
C56 C 0.08129 0.84697 0.60145 0.0
C57 C 0.09593 0.85679 0.59126 0.0
C58 C 0.08971 0.87829 0.58557 0.0
H59 H 0.04091 0.88983 0.60328 0.0
O60 O 0.08278 0.95287 0.61336 0.0
O61 O 0.08193 0.93724 0.59208 0.0
O62 O 0.03766 0.95466 0.6006 0.0
O63 O 0.03549 0.92278 0.587 0.0
C64 C 0.11647 0.8461 0.58653 0.0
C65 C 0.13042 0.85711 0.57628 0.0
H66 H 0.15299 0.88374 0.55663 0.0
H67 H 0.13906 0.92181 0.54785 0.0
H68 H 0.05016 0.85165 0.6138 0.0
H69 H 0.085 0.83008 0.60587 0.0
H70 H 0.12181 0.82954 0.59082 0.0
H71 H 0.14632 0.84887 0.57286 0.0
Mn72 Mn 0.28589 0.82197 0.84372 0.0
Mn73 Mn 0.33955 0.81862 0.82948 0.0
C74 C 0.3163 0.84109 0.85443 0.0
C75 C 0.24968 0.83952 0.84557 0.0
C76 C 0.31798 0.78004 0.84671 0.0
O77 O 0.27954 0.80979 0.82388 0.0
O78 O 0.31589 0.80974 0.81523 0.0
C79 C 0.33538 0.85696 0.80887 0.0
N80 N 0.34674 0.84677 0.81984 0.0
C81 C 0.37621 0.87624 0.81964 0.0
C82 C 0.3649 0.887 0.80828 0.0
C83 C 0.34435 0.87736 0.8029 0.0
C84 C 0.36645 0.85597 0.82514 0.0
H85 H 0.31961 0.84954 0.80471 0.0
C86 C 0.29409 0.80617 0.81396 0.0
O87 O 0.25284 0.81809 0.84928 0.0
O88 O 0.26728 0.85032 0.84015 0.0
N89 N 0.36454 0.82647 0.84186 0.0
C90 C 0.37253 0.81471 0.85337 0.0
C91 C 0.39271 0.82238 0.86021 0.0
C92 C 0.40464 0.84182 0.85504 0.0
C93 C 0.39619 0.85353 0.84312 0.0
C94 C 0.37605 0.84502 0.8367 0.0
H95 H 0.36354 0.79962 0.8573 0.0
O96 O 0.29771 0.83608 0.86149 0.0
O97 O 0.31655 0.83506 0.84114 0.0
O98 O 0.29898 0.79033 0.84953 0.0
O99 O 0.33408 0.78906 0.83928 0.0
C100 C 0.40662 0.87363 0.83756 0.0
C101 C 0.39659 0.88503 0.82586 0.0
H102 H 0.37173 0.90276 0.80366 0.0
H103 H 0.33547 0.88561 0.79417 0.0
H104 H 0.3991 0.8133 0.86943 0.0
H105 H 0.42016 0.84772 0.86037 0.0
H106 H 0.42213 0.88069 0.84236 0.0
H107 H 0.40456 0.90067 0.82182 0.0
Mn108 Mn 0.43348 0.0338 0.09788 0.0
Mn109 Mn 0.43643 0.08353 0.07918 0.0
C110 C 0.41553 0.06671 0.10646 0.0
C111 C 0.41544 0.99839 0.10223 0.0
C112 C 0.47609 0.06494 0.09702 0.0
O113 O 0.44505 0.02326 0.07855 0.0
O114 O 0.44209 0.05676 0.06648 0.0
C115 C 0.39498 0.07686 0.06121 0.0
N116 N 0.40714 0.08991 0.07064 0.0
C117 C 0.37837 0.12004 0.07005 0.0
C118 C 0.36559 0.107 0.06026 0.0
C119 C 0.3739 0.08528 0.05587 0.0
C120 C 0.39919 0.1107 0.07505 0.0
H121 H 0.40134 0.06017 0.05781 0.0
C122 C 0.44626 0.035 0.06714 0.0
O123 O 0.43692 0.00191 0.10573 0.0
O124 O 0.40478 0.01518 0.09585 0.0
N125 N 0.43133 0.11117 0.0899 0.0
C126 C 0.44548 0.12132 0.09963 0.0
C127 C 0.43981 0.14328 0.10499 0.0
C128 C 0.41983 0.15468 0.10017 0.0
C129 C 0.4055 0.14389 0.09019 0.0
C130 C 0.4122 0.12213 0.08509 0.0
H131 H 0.46107 0.11282 0.10321 0.0
O132 O 0.42009 0.04949 0.11482 0.0
O133 O 0.42093 0.06389 0.09321 0.0
O134 O 0.46533 0.04764 0.10225 0.0
O135 O 0.46718 0.07868 0.08791 0.0
C136 C 0.38482 0.15383 0.08512 0.0
C137 C 0.37118 0.14184 0.07513 0.0
H138 H 0.34934 0.11344 0.05611 0.0
H139 H 0.36409 0.07507 0.04837 0.0
H140 H 0.45094 0.15151 0.11271 0.0
H141 H 0.41571 0.17177 0.10416 0.0
H142 H 0.37912 0.17057 0.08896 0.0
H143 H 0.35516 0.14953 0.07144 0.0
Mn144 Mn 0.21408 0.8217 0.15599 0.0
Mn145 Mn 0.16159 0.8188 0.17179 0.0
C146 C 0.18272 0.84007 0.1458 0.0
C147 C 0.25023 0.83913 0.15325 0.0
C148 C 0.18156 0.7798 0.15419 0.0
O149 O 0.22202 0.81013 0.17575 0.0
O150 O 0.18636 0.8101 0.1853 0.0
C151 C 0.16845 0.85778 0.19169 0.0
N152 N 0.15583 0.84742 0.18129 0.0
C153 C 0.12721 0.87768 0.18199 0.0
C154 C 0.13982 0.88863 0.19276 0.0
C155 C 0.16058 0.87868 0.19759 0.0
C156 C 0.13601 0.85699 0.17645 0.0
H157 H 0.18438 0.85015 0.19544 0.0
C158 C 0.20822 0.8067 0.18607 0.0
O159 O 0.24677 0.81767 0.1497 0.0
O160 O 0.23289 0.85016 0.15881 0.0
N161 N 0.13544 0.82655 0.16031 0.0
C162 C 0.12548 0.8139 0.14977 0.0
C163 C 0.10437 0.82127 0.14393 0.0
C164 C 0.09356 0.84134 0.14912 0.0
C165 C 0.10408 0.85401 0.16 0.0
C166 C 0.12497 0.84569 0.16552 0.0
H167 H 0.13351 0.79824 0.14591 0.0
O168 O 0.20093 0.83517 0.13836 0.0
O169 O 0.18354 0.83469 0.15917 0.0
O170 O 0.20049 0.78994 0.15092 0.0
O171 O 0.16598 0.78896 0.16199 0.0
C172 C 0.09468 0.87462 0.16555 0.0
C173 C 0.10633 0.88654 0.17647 0.0
H174 H 0.13377 0.90472 0.19736 0.0
H175 H 0.17045 0.88707 0.20586 0.0
H176 H 0.09634 0.8114 0.13552 0.0
H177 H 0.07715 0.84683 0.14471 0.0
H178 H 0.07863 0.88157 0.16141 0.0
H179 H 0.09907 0.9025 0.18056 0.0
Mn180 Mn 0.42951 0.96347 0.4043 0.0
Mn181 Mn 0.43533 0.91112 0.42002 0.0
C182 C 0.41092 0.93164 0.39469 0.0
C183 C 0.41078 0.99902 0.40204 0.0
C184 C 0.47238 0.93272 0.40151 0.0
O185 O 0.44253 0.9717 0.4237 0.0
O186 O 0.44336 0.93618 0.43347 0.0
C187 C 0.39736 0.91515 0.44092 0.0
N188 N 0.40789 0.90334 0.43024 0.0
C189 C 0.38052 0.87205 0.43206 0.0
C190 C 0.36943 0.88381 0.44313 0.0
C191 C 0.37784 0.9055 0.44754 0.0
C192 C 0.39988 0.88254 0.42587 0.0
H193 H 0.40387 0.93177 0.44435 0.0
C194 C 0.44647 0.9581 0.43406 0.0
O195 O 0.43196 0.99617 0.39777 0.0
O196 O 0.40083 0.98149 0.40812 0.0
N197 N 0.42842 0.88478 0.40854 0.0
C198 C 0.44037 0.87636 0.39724 0.0
C199 C 0.43407 0.85489 0.39143 0.0
C200 C 0.41559 0.8423 0.3973 0.0
C201 C 0.40366 0.85125 0.409 0.0
C202 C 0.41097 0.87255 0.41448 0.0
H203 H 0.45471 0.88586 0.39276 0.0
O204 O 0.41485 0.94998 0.38715 0.0
O205 O 0.41755 0.9325 0.40788 0.0
O206 O 0.46122 0.95095 0.3981 0.0
O207 O 0.46433 0.91715 0.40974 0.0
C208 C 0.38454 0.84009 0.41528 0.0
C209 C 0.37292 0.85053 0.42676 0.0
H210 H 0.35434 0.87645 0.44825 0.0
H211 H 0.36932 0.91471 0.45604 0.0
H212 H 0.44345 0.84805 0.38244 0.0
H213 H 0.41062 0.82586 0.39269 0.0
H214 H 0.37842 0.82364 0.41122 0.0
H215 H 0.35801 0.84197 0.43135 0.0
Mn216 Mn 0.28912 0.18069 0.65684 0.0
Mn217 Mn 0.33975 0.18441 0.67468 0.0
C218 C 0.32178 0.16248 0.64811 0.0
C219 C 0.25357 0.16277 0.65269 0.0
C220 C 0.32159 0.2228 0.65596 0.0
O221 O 0.27881 0.19254 0.67615 0.0
O222 O 0.31351 0.19389 0.68688 0.0
C223 C 0.33034 0.14659 0.69501 0.0
N224 N 0.34415 0.15627 0.68494 0.0
C225 C 0.37261 0.12618 0.68767 0.0
C226 C 0.35875 0.11594 0.69813 0.0
C227 C 0.33746 0.12612 0.70175 0.0
C228 C 0.36446 0.1464 0.6812 0.0
H229 H 0.31404 0.15447 0.69788 0.0
C230 C 0.29157 0.19691 0.68683 0.0
O231 O 0.25716 0.18421 0.64916 0.0
O232 O 0.27037 0.15206 0.65903 0.0
N233 N 0.36714 0.17597 0.66454 0.0
C234 C 0.37839 0.18799 0.65422 0.0
C235 C 0.39992 0.18002 0.6493 0.0
C236 C 0.40993 0.16014 0.6553 0.0
C237 C 0.39829 0.14837 0.66616 0.0
C238 C 0.37681 0.15703 0.67054 0.0
H239 H 0.37095 0.20352 0.64975 0.0
O240 O 0.30442 0.1671 0.63989 0.0
O241 O 0.31937 0.16803 0.66138 0.0
O242 O 0.30295 0.21258 0.6522 0.0
O243 O 0.33661 0.21378 0.66423 0.0
C244 C 0.40715 0.12841 0.67282 0.0
C245 C 0.39421 0.11718 0.68346 0.0
H246 H 0.36427 0.10024 0.70342 0.0
H247 H 0.32664 0.11829 0.70978 0.0
H248 H 0.40885 0.18927 0.64097 0.0
H249 H 0.42656 0.15408 0.6515 0.0
H250 H 0.42386 0.12147 0.66981 0.0
H251 H 0.40108 0.10168 0.68837 0.0
Mn252 Mn 0.06855 0.03486 0.90421 0.0
Mn253 Mn 0.06335 0.0862 0.92119 0.0
C254 C 0.08678 0.06723 0.89504 0.0
C255 C 0.08704 0.99941 0.90083 0.0
C256 C 0.02572 0.06586 0.90257 0.0
O257 O 0.05609 0.02547 0.92354 0.0
O258 O 0.05579 0.06031 0.93417 0.0
C259 C 0.10202 0.08079 0.94148 0.0
N260 N 0.09115 0.09329 0.93123 0.0
C261 C 0.11867 0.12437 0.93342 0.0
C262 C 0.13011 0.1119 0.94406 0.0
C263 C 0.1218 0.08998 0.94806 0.0
C264 C 0.09907 0.11432 0.92724 0.0
H265 H 0.09559 0.06398 0.9446 0.0
C266 C 0.05267 0.03837 0.93429 0.0
O267 O 0.06565 0.00255 0.89707 0.0
O268 O 0.09733 0.01656 0.9071 0.0
N269 N 0.0699 0.11327 0.91027 0.0
C270 C 0.05751 0.12249 0.89938 0.0
C271 C 0.06362 0.14433 0.89404 0.0
C272 C 0.08238 0.15646 0.89993 0.0
C273 C 0.09475 0.14671 0.91121 0.0
C274 C 0.08759 0.12507 0.91626 0.0
H275 H 0.04296 0.11334 0.89488 0.0
O276 O 0.08257 0.04932 0.88718 0.0
O277 O 0.08068 0.06561 0.9083 0.0
O278 O 0.03674 0.04777 0.89875 0.0
O279 O 0.03397 0.08091 0.91109 0.0
C280 C 0.11412 0.15742 0.9175 0.0
C281 C 0.12614 0.14621 0.92855 0.0
H282 H 0.14539 0.11891 0.94914 0.0
H283 H 0.13059 0.08021 0.95622 0.0
H284 H 0.05388 0.1518 0.88539 0.0
H285 H 0.08721 0.17319 0.89566 0.0
H286 H 0.12013 0.17411 0.91377 0.0
H287 H 0.14122 0.15445 0.93314 0.0
Mn288 Mn 0.79281 0.81458 0.65838 0.0
Mn289 Mn 0.79772 0.86191 0.67898 0.0
C290 C 0.81734 0.84423 0.65168 0.0
C291 C 0.80417 0.77682 0.65327 0.0
C292 C 0.75648 0.85271 0.65977 0.0
O293 O 0.77875 0.80443 0.67708 0.0
O294 O 0.78703 0.83533 0.69073 0.0
C295 C 0.83623 0.84716 0.69759 0.0
N296 N 0.82722 0.86251 0.68813 0.0
C297 C 0.86139 0.8863 0.6893 0.0
C298 C 0.87097 0.87083 0.69912 0.0
C299 C 0.85835 0.85116 0.70326 0.0
C300 C 0.83923 0.88148 0.68406 0.0
H301 H 0.82661 0.83198 0.70076 0.0
C302 C 0.77954 0.81459 0.68906 0.0
O303 O 0.78416 0.78468 0.64921 0.0
O304 O 0.81737 0.7908 0.66036 0.0
N305 N 0.80828 0.88868 0.66892 0.0
C306 C 0.79715 0.90113 0.65873 0.0
C307 C 0.80766 0.92111 0.65322 0.0
C308 C 0.82942 0.92814 0.65827 0.0
C309 C 0.84058 0.91502 0.66873 0.0
C310 C 0.82914 0.8954 0.67394 0.0
H311 H 0.7804 0.89588 0.65482 0.0
O312 O 0.81009 0.82926 0.64244 0.0
O313 O 0.81038 0.84104 0.66461 0.0
O314 O 0.76438 0.83443 0.65393 0.0
O315 O 0.76701 0.86337 0.66973 0.0
C316 C 0.86271 0.92045 0.67405 0.0
C317 C 0.87314 0.90607 0.68429 0.0
H318 H 0.88809 0.87378 0.70346 0.0
H319 H 0.86568 0.83908 0.71078 0.0
H320 H 0.79898 0.9311 0.64511 0.0
H321 H 0.83741 0.9436 0.65401 0.0
H322 H 0.872 0.93549 0.6702 0.0
H323 H 0.89031 0.91024 0.68815 0.0
Mn324 Mn 0.93465 0.04057 0.40863 0.0
Mn325 Mn 0.88821 0.04628 0.42995 0.0
C326 C 0.90473 0.06485 0.4022 0.0
C327 C 0.97212 0.05189 0.40269 0.0
C328 C 0.89619 0.00459 0.4109 0.0
O329 O 0.94567 0.02705 0.42729 0.0
O330 O 0.91516 0.03532 0.44126 0.0
C331 C 0.90479 0.08485 0.44794 0.0
N332 N 0.88875 0.076 0.43886 0.0
C333 C 0.8662 0.11103 0.43988 0.0
C334 C 0.88239 0.12045 0.44932 0.0
C335 C 0.90178 0.10731 0.45335 0.0
C336 C 0.87005 0.08851 0.4349 0.0
H337 H 0.9198 0.07489 0.451 0.0
C338 C 0.93586 0.02789 0.43938 0.0
O339 O 0.96418 0.03169 0.39905 0.0
O340 O 0.95842 0.06523 0.40989 0.0
N341 N 0.86111 0.05721 0.42037 0.0
C342 C 0.84767 0.04603 0.41068 0.0
C343 C 0.82785 0.05704 0.40531 0.0
C344 C 0.82196 0.07936 0.41001 0.0
C345 C 0.83589 0.09041 0.42011 0.0
C346 C 0.85533 0.0785 0.42517 0.0
H347 H 0.8521 0.0289 0.40699 0.0
O348 O 0.91922 0.05738 0.39276 0.0
O349 O 0.90855 0.05828 0.41513 0.0
O350 O 0.91453 0.01207 0.40491 0.0
O351 O 0.8858 0.01548 0.42083 0.0
C352 C 0.83145 0.11292 0.42518 0.0
C353 C 0.84663 0.12326 0.43502 0.0
H354 H 0.8802 0.13781 0.45345 0.0
H355 H 0.91441 0.11451 0.46057 0.0
H356 H 0.81719 0.04839 0.39752 0.0
H357 H 0.80678 0.08788 0.40575 0.0
H358 H 0.81656 0.12256 0.42144 0.0
H359 H 0.84322 0.14071 0.43867 0.0
Mn360 Mn 0.7117 0.1873 0.16068 0.0
Mn361 Mn 0.70183 0.13931 0.18012 0.0
C362 C 0.68539 0.16019 0.15286 0.0
C363 C 0.70385 0.22607 0.15593 0.0
C364 C 0.74443 0.14578 0.16169 0.0
O365 O 0.7252 0.19541 0.17981 0.0
O366 O 0.71524 0.1639 0.1925 0.0
C367 C 0.66482 0.15729 0.19881 0.0
N368 N 0.67225 0.14153 0.1891 0.0
C369 C 0.63539 0.12206 0.18933 0.0
C370 C 0.62741 0.13797 0.19942 0.0
C371 C 0.64219 0.15568 0.20417 0.0
C372 C 0.65818 0.1244 0.18447 0.0
H373 H 0.67607 0.17102 0.20242 0.0
C374 C 0.72396 0.18427 0.19143 0.0
O375 O 0.72348 0.21674 0.15235 0.0
O376 O 0.68903 0.21295 0.16241 0.0
N377 N 0.68857 0.11435 0.16952 0.0
C378 C 0.69848 0.10119 0.15918 0.0
C379 C 0.68571 0.08315 0.15298 0.0
C380 C 0.66296 0.07874 0.15751 0.0
C381 C 0.65323 0.09232 0.16827 0.0
C382 C 0.66687 0.10993 0.17415 0.0
H383 H 0.71591 0.10455 0.1556 0.0
O384 O 0.69447 0.17488 0.14408 0.0
O385 O 0.69168 0.16211 0.16603 0.0
O386 O 0.73873 0.16539 0.15654 0.0
O387 O 0.73233 0.13509 0.17094 0.0
C388 C 0.63037 0.08942 0.17316 0.0
C389 C 0.62145 0.10427 0.18368 0.0
H390 H 0.60991 0.1369 0.2035 0.0
H391 H 0.63611 0.16811 0.21189 0.0
H392 H 0.69333 0.07276 0.14467 0.0
H393 H 0.65307 0.06498 0.15258 0.0
H394 H 0.61938 0.07602 0.16876 0.0
H395 H 0.60374 0.10207 0.18722 0.0
Mn396 Mn 0.56164 0.95636 0.90906 0.0
Mn397 Mn 0.60888 0.94622 0.92909 0.0
C398 C 0.59056 0.93245 0.90073 0.0
C399 C 0.52391 0.947 0.90285 0.0
C400 C 0.6013 0.99084 0.91269 0.0
O401 O 0.55164 0.96675 0.92862 0.0
O402 O 0.58296 0.95678 0.94147 0.0
C403 C 0.59171 0.90614 0.94558 0.0
N404 N 0.60759 0.91549 0.93658 0.0
C405 C 0.62869 0.87958 0.93543 0.0
C406 C 0.61266 0.86963 0.94477 0.0
C407 C 0.59409 0.88297 0.94985 0.0
C408 C 0.62557 0.90283 0.93166 0.0
H409 H 0.5773 0.91626 0.94942 0.0
C410 C 0.56223 0.96461 0.94039 0.0
O411 O 0.53195 0.96772 0.90073 0.0
O412 O 0.53751 0.93201 0.90876 0.0
N413 N 0.63497 0.9355 0.91842 0.0
C414 C 0.64805 0.94722 0.90879 0.0
C415 C 0.66688 0.93606 0.90231 0.0
C416 C 0.6721 0.913 0.90582 0.0
C417 C 0.65852 0.90135 0.91584 0.0
C418 C 0.64011 0.91345 0.92207 0.0
H419 H 0.64405 0.9649 0.90598 0.0
O420 O 0.57616 0.9421 0.89198 0.0
O421 O 0.58744 0.93701 0.91405 0.0
O422 O 0.58219 0.985 0.90694 0.0
O423 O 0.61216 0.97799 0.92148 0.0
C424 C 0.6622 0.87806 0.91966 0.0
C425 C 0.6473 0.86718 0.92945 0.0
H426 H 0.61431 0.8517 0.948 0.0
H427 H 0.58157 0.87537 0.95699 0.0
H428 H 0.67725 0.94515 0.89456 0.0
H429 H 0.68645 0.90435 0.90067 0.0
H430 H 0.67622 0.86824 0.91497 0.0
H431 H 0.65011 0.84916 0.93215 0.0
Mn432 Mn 0.78971 0.18473 0.8429 0.0
Mn433 Mn 0.79179 0.1372 0.82224 0.0
C434 C 0.81463 0.15492 0.84857 0.0
C435 C 0.80172 0.22245 0.84744 0.0
C436 C 0.75304 0.1468 0.84319 0.0
O437 O 0.77387 0.19497 0.8248 0.0
O438 O 0.77981 0.16375 0.81094 0.0
C439 C 0.828 0.15167 0.8019 0.0
N440 N 0.8201 0.13642 0.81177 0.0
C441 C 0.854 0.11254 0.80917 0.0
C442 C 0.86243 0.1279 0.7989 0.0
C443 C 0.84939 0.14757 0.79528 0.0
C444 C 0.83251 0.11744 0.81535 0.0
H445 H 0.81808 0.16686 0.79912 0.0
C446 C 0.77302 0.18466 0.81288 0.0
O447 O 0.78219 0.21466 0.85233 0.0
O448 O 0.81415 0.20837 0.83991 0.0
N449 N 0.80344 0.11045 0.83186 0.0
C450 C 0.79355 0.09813 0.84257 0.0
C451 C 0.80468 0.07821 0.8477 0.0
C452 C 0.82578 0.07111 0.84173 0.0
C453 C 0.83566 0.08407 0.83073 0.0
C454 C 0.82364 0.10363 0.82595 0.0
H455 H 0.77732 0.10345 0.8472 0.0
O456 O 0.80854 0.16994 0.85809 0.0
O457 O 0.80628 0.15812 0.83595 0.0
O458 O 0.76166 0.16515 0.84853 0.0
O459 O 0.76232 0.13593 0.83287 0.0
C460 C 0.85711 0.07856 0.82447 0.0
C461 C 0.8663 0.09281 0.81373 0.0
H462 H 0.87898 0.12489 0.79383 0.0
H463 H 0.85584 0.15958 0.78742 0.0
H464 H 0.797 0.06834 0.85622 0.0
H465 H 0.83428 0.05571 0.84571 0.0
H466 H 0.86683 0.06357 0.82797 0.0
H467 H 0.88297 0.08858 0.80914 0.0
Mn468 Mn 0.56585 0.04395 0.59081 0.0
Mn469 Mn 0.61238 0.04745 0.56934 0.0
C470 C 0.59597 0.06853 0.59648 0.0
C471 C 0.52842 0.05551 0.59672 0.0
C472 C 0.60395 0.00735 0.58949 0.0
O473 O 0.5545 0.02961 0.57249 0.0
O474 O 0.5854 0.03563 0.55836 0.0
C475 C 0.59644 0.0844 0.54994 0.0
N476 N 0.61229 0.07624 0.55937 0.0
C477 C 0.63567 0.11051 0.55688 0.0
C478 C 0.61968 0.11922 0.54706 0.0
C479 C 0.59996 0.10612 0.5436 0.0
C480 C 0.63132 0.08869 0.56277 0.0
H481 H 0.58121 0.07444 0.54729 0.0
C482 C 0.56447 0.029 0.56046 0.0
O483 O 0.53653 0.03554 0.60064 0.0
O484 O 0.542 0.06864 0.58928 0.0
N485 N 0.63948 0.05897 0.57863 0.0
C486 C 0.65243 0.04877 0.58895 0.0
C487 C 0.67247 0.0599 0.59388 0.0
C488 C 0.67905 0.08134 0.58814 0.0
C489 C 0.66543 0.09154 0.57756 0.0
C490 C 0.64578 0.0795 0.57294 0.0
H491 H 0.64749 0.03229 0.59342 0.0
O492 O 0.58164 0.0616 0.60618 0.0
O493 O 0.59203 0.06106 0.58373 0.0
O494 O 0.58561 0.01541 0.59516 0.0
O495 O 0.61458 0.0175 0.57939 0.0
C496 C 0.67038 0.11333 0.57157 0.0
C497 C 0.65548 0.12283 0.56126 0.0
H498 H 0.62225 0.13603 0.54222 0.0
H499 H 0.58748 0.11278 0.5361 0.0
H500 H 0.68284 0.05197 0.6021 0.0
H501 H 0.69454 0.08984 0.59198 0.0
H502 H 0.68542 0.12307 0.57496 0.0
H503 H 0.65929 0.13975 0.55689 0.0
Mn504 Mn 0.70787 0.81246 0.33909 0.0
Mn505 Mn 0.7017 0.86073 0.31941 0.0
C506 C 0.68182 0.84057 0.34596 0.0
C507 C 0.69779 0.77406 0.34333 0.0
C508 C 0.74244 0.85227 0.33916 0.0
O509 O 0.72316 0.804 0.32046 0.0
O510 O 0.71418 0.83532 0.30733 0.0
C511 C 0.66484 0.84512 0.29984 0.0
N512 N 0.67262 0.86038 0.30974 0.0
C513 C 0.6371 0.88212 0.30868 0.0
C514 C 0.6288 0.86677 0.29837 0.0
C515 C 0.64273 0.84817 0.29395 0.0
C516 C 0.65938 0.87835 0.31407 0.0
H517 H 0.67539 0.83068 0.29649 0.0
C518 C 0.72245 0.81482 0.3087 0.0
O519 O 0.71735 0.78244 0.34781 0.0
O520 O 0.6844 0.78786 0.33625 0.0
N521 N 0.68931 0.88636 0.32982 0.0
C522 C 0.69922 0.89868 0.34053 0.0
C523 C 0.68714 0.91736 0.34654 0.0
C524 C 0.66505 0.92324 0.34146 0.0
C525 C 0.65529 0.91045 0.33035 0.0
C526 C 0.66824 0.89216 0.32467 0.0
H527 H 0.71613 0.8942 0.34454 0.0
O528 O 0.68932 0.82546 0.35503 0.0
O529 O 0.68946 0.83844 0.3331 0.0
O530 O 0.73519 0.83322 0.34437 0.0
O531 O 0.73185 0.86313 0.3293 0.0
C532 C 0.63299 0.91481 0.32491 0.0
C533 C 0.62391 0.90066 0.31409 0.0
H534 H 0.61167 0.86894 0.29389 0.0
H535 H 0.63637 0.83615 0.28607 0.0
H536 H 0.69478 0.92711 0.35512 0.0
H537 H 0.65567 0.93747 0.34624 0.0
H538 H 0.62254 0.92877 0.32914 0.0
H539 H 0.60661 0.90397 0.31014 0.0
Mn540 Mn 0.93779 0.95636 0.09131 0.0
Mn541 Mn 0.88881 0.94835 0.07256 0.0
C542 C 0.91035 0.93047 0.09926 0.0
C543 C 0.9765 0.94708 0.09506 0.0
C544 C 0.89746 0.99036 0.09124 0.0
O545 O 0.94525 0.97051 0.07221 0.0
O546 O 0.91347 0.96053 0.0598 0.0
C547 C 0.90418 0.91063 0.05353 0.0
N548 N 0.88926 0.91871 0.06354 0.0
C549 C 0.86818 0.88275 0.06367 0.0
C550 C 0.88321 0.87411 0.05328 0.0
C551 C 0.9013 0.88811 0.04821 0.0
C552 C 0.87177 0.90541 0.06848 0.0
H553 H 0.9182 0.92126 0.04967 0.0
C554 C 0.93395 0.96905 0.06065 0.0
O555 O 0.96806 0.96677 0.09928 0.0
O556 O 0.96256 0.93306 0.08857 0.0
N557 N 0.86382 0.93618 0.08363 0.0
C558 C 0.85169 0.94659 0.09425 0.0
C559 C 0.83347 0.93458 0.10081 0.0
C560 C 0.82784 0.91206 0.09636 0.0
C561 C 0.8404 0.9018 0.08533 0.0
C562 C 0.85824 0.91469 0.07909 0.0
H563 H 0.85598 0.96385 0.09777 0.0
O564 O 0.92577 0.93871 0.10788 0.0
O565 O 0.91182 0.93727 0.08618 0.0
O566 O 0.91685 0.98373 0.0963 0.0
O567 O 0.88634 0.97902 0.08181 0.0
C568 C 0.83625 0.87909 0.08049 0.0
C569 C 0.85013 0.86957 0.06967 0.0
H570 H 0.88117 0.85667 0.04923 0.0
H571 H 0.91305 0.88151 0.04025 0.0
H572 H 0.82388 0.94262 0.10933 0.0
H573 H 0.81396 0.90275 0.10157 0.0
H574 H 0.82266 0.86867 0.08517 0.0
H575 H 0.84698 0.85198 0.06618 0.0
Mn576 Mn 0.71235 0.67893 0.84449 0.0
Mn577 Mn 0.66107 0.68413 0.8275 0.0
C578 C 0.67969 0.66194 0.85418 0.0
C579 C 0.74749 0.65978 0.84783 0.0
C580 C 0.68268 0.72265 0.84493 0.0
O581 O 0.72166 0.69021 0.82487 0.0
O582 O 0.68692 0.68961 0.8141 0.0
C583 C 0.66464 0.64358 0.80848 0.0
N584 N 0.65279 0.65575 0.81847 0.0
C585 C 0.62072 0.62919 0.81743 0.0
C586 C 0.63252 0.61641 0.80707 0.0
C587 C 0.65462 0.62359 0.80262 0.0
C588 C 0.63158 0.64895 0.82287 0.0
H589 H 0.68158 0.64913 0.80501 0.0
C590 C 0.70888 0.69266 0.81396 0.0
O591 O 0.7449 0.68137 0.85133 0.0
O592 O 0.72992 0.6496 0.84194 0.0
N593 N 0.63409 0.67948 0.83886 0.0
C594 C 0.62571 0.69294 0.84953 0.0
C595 C 0.60391 0.68794 0.85535 0.0
C596 C 0.59092 0.66922 0.85011 0.0
C597 C 0.59986 0.65569 0.83908 0.0
C598 C 0.62154 0.66171 0.83356 0.0
H599 H 0.63552 0.70747 0.85351 0.0
O600 O 0.69781 0.66608 0.86187 0.0
O601 O 0.68132 0.6673 0.84079 0.0
O602 O 0.70018 0.71132 0.8494 0.0
O603 O 0.6676 0.71423 0.8365 0.0
C604 C 0.58832 0.6362 0.83352 0.0
C605 C 0.59879 0.6229 0.82275 0.0
H606 H 0.62487 0.60096 0.80255 0.0
H607 H 0.66386 0.61377 0.79467 0.0
H608 H 0.59711 0.69849 0.86385 0.0
H609 H 0.57419 0.66529 0.85471 0.0
H610 H 0.57158 0.63105 0.83762 0.0
H611 H 0.58993 0.60773 0.81872 0.0
Mn612 Mn 0.57374 0.45808 0.09292 0.0
Mn613 Mn 0.56832 0.41073 0.07223 0.0
C614 C 0.5916 0.42376 0.09944 0.0
C615 C 0.59235 0.49277 0.09841 0.0
C616 C 0.53081 0.42711 0.09238 0.0
O617 O 0.56093 0.47139 0.07454 0.0
O618 O 0.56086 0.43902 0.06132 0.0
C619 C 0.60712 0.42067 0.05269 0.0
N620 N 0.59633 0.40609 0.06189 0.0
C621 C 0.62371 0.37573 0.0571 0.0
C622 C 0.63508 0.39035 0.0475 0.0
C623 C 0.62685 0.41299 0.04538 0.0
C624 C 0.60447 0.38453 0.06431 0.0
H625 H 0.60067 0.43799 0.05092 0.0
C626 C 0.55774 0.46079 0.06288 0.0
O627 O 0.57114 0.48886 0.1023 0.0
O628 O 0.60254 0.47672 0.09108 0.0
N629 N 0.57498 0.38169 0.08101 0.0
C630 C 0.56226 0.36997 0.09082 0.0
C631 C 0.56821 0.34706 0.09422 0.0
C632 C 0.58672 0.33624 0.0872 0.0
C633 C 0.59944 0.34859 0.07705 0.0
C634 C 0.59293 0.37147 0.07428 0.0
H635 H 0.54759 0.37799 0.09594 0.0
O636 O 0.58797 0.44002 0.10864 0.0
O637 O 0.58552 0.42837 0.08649 0.0
O638 O 0.54201 0.44423 0.09749 0.0
O639 O 0.53883 0.41388 0.08271 0.0
C640 C 0.61818 0.33902 0.06947 0.0
C641 C 0.63056 0.3527 0.05969 0.0
H642 H 0.65012 0.38437 0.0417 0.0
H643 H 0.63556 0.4244 0.03801 0.0
H644 H 0.5583 0.33763 0.10204 0.0
H645 H 0.59104 0.31845 0.08971 0.0
H646 H 0.62339 0.32123 0.0712 0.0
H647 H 0.64519 0.34527 0.05413 0.0
Mn648 Mn 0.78252 0.31947 0.34844 0.0
Mn649 Mn 0.83681 0.31636 0.33508 0.0
C650 C 0.81188 0.34083 0.35867 0.0
C651 C 0.74573 0.33591 0.34913 0.0
C652 C 0.81625 0.27942 0.35397 0.0
O653 O 0.77711 0.30504 0.32913 0.0
O654 O 0.81389 0.30415 0.32124 0.0
C655 C 0.8312 0.35104 0.31228 0.0
N656 N 0.84288 0.34314 0.32382 0.0
C657 C 0.87118 0.37356 0.32184 0.0
C658 C 0.85953 0.38197 0.30988 0.0
C659 C 0.83941 0.37071 0.30511 0.0
C660 C 0.86216 0.35393 0.32855 0.0
H661 H 0.81577 0.34237 0.30858 0.0
C662 C 0.7922 0.30018 0.31974 0.0
O663 O 0.74948 0.31516 0.3539 0.0
O664 O 0.76311 0.34666 0.34342 0.0
N665 N 0.86125 0.32728 0.347 0.0
C666 C 0.86961 0.3178 0.35917 0.0
C667 C 0.88949 0.32727 0.36548 0.0
C668 C 0.90075 0.34616 0.35912 0.0
C669 C 0.89191 0.35553 0.34656 0.0
C670 C 0.87211 0.34529 0.34071 0.0
H671 H 0.86113 0.30317 0.36404 0.0
O672 O 0.79328 0.33585 0.36571 0.0
O673 O 0.81283 0.33341 0.34564 0.0
O674 O 0.79643 0.28886 0.35559 0.0
O675 O 0.8325 0.28839 0.34664 0.0
C676 C 0.90161 0.375 0.33979 0.0
C677 C 0.89119 0.38407 0.32748 0.0
H678 H 0.86579 0.39714 0.30432 0.0
H679 H 0.83028 0.37714 0.29592 0.0
H680 H 0.89615 0.32001 0.37522 0.0
H681 H 0.91602 0.35347 0.36405 0.0
H682 H 0.91683 0.38337 0.34411 0.0
H683 H 0.89859 0.39926 0.3225 0.0
Mn684 Mn 0.93247 0.53649 0.59538 0.0
Mn685 Mn 0.93737 0.5838 0.57451 0.0
C686 C 0.91587 0.57104 0.60254 0.0
C687 C 0.91334 0.50236 0.6014 0.0
C688 C 0.97583 0.56681 0.59381 0.0
O689 O 0.94389 0.52298 0.57672 0.0
O690 O 0.94378 0.55531 0.56349 0.0
C691 C 0.89708 0.5742 0.55606 0.0
N692 N 0.90872 0.58876 0.56488 0.0
C693 C 0.88035 0.61878 0.56156 0.0
C694 C 0.86812 0.60417 0.55236 0.0
C695 C 0.87648 0.58174 0.54965 0.0
C696 C 0.90068 0.61024 0.56771 0.0
H697 H 0.90347 0.55696 0.55395 0.0
C698 C 0.94669 0.5335 0.565 0.0
O699 O 0.93487 0.5057 0.60481 0.0
O700 O 0.90321 0.5185 0.59413 0.0
N701 N 0.93176 0.61308 0.58329 0.0
C702 C 0.94553 0.6249 0.5925 0.0
C703 C 0.9399 0.6478 0.5961 0.0
C704 C 0.92024 0.65834 0.59015 0.0
C705 C 0.9064 0.64589 0.58065 0.0
C706 C 0.91314 0.62328 0.57725 0.0
H707 H 0.96083 0.617 0.59695 0.0
O708 O 0.91972 0.55451 0.61151 0.0
O709 O 0.92087 0.56656 0.58936 0.0
O710 O 0.96473 0.54984 0.59919 0.0
O711 O 0.96741 0.58017 0.58431 0.0
C712 C 0.88619 0.65501 0.57443 0.0
C713 C 0.87308 0.6414 0.56497 0.0
H714 H 0.85225 0.60995 0.54737 0.0
H715 H 0.86709 0.57033 0.5426 0.0
H716 H 0.95072 0.65734 0.6034 0.0
H717 H 0.91591 0.676 0.59298 0.0
H718 H 0.88048 0.67241 0.57694 0.0
H719 H 0.85744 0.64851 0.56036 0.0
Mn720 Mn 0.71388 0.3215 0.65628 0.0
Mn721 Mn 0.66061 0.31564 0.67081 0.0
C722 C 0.6828 0.34068 0.64622 0.0
C723 C 0.74971 0.3399 0.65494 0.0
C724 C 0.68282 0.27907 0.65224 0.0
O725 O 0.72092 0.30778 0.67567 0.0
O726 O 0.68483 0.30677 0.68462 0.0
C727 C 0.66398 0.35275 0.69232 0.0
N728 N 0.65261 0.34277 0.68127 0.0
C729 C 0.62156 0.37044 0.68289 0.0
C730 C 0.63287 0.38096 0.69434 0.0
C731 C 0.65422 0.37213 0.69903 0.0
C732 C 0.63215 0.3512 0.67662 0.0
H733 H 0.68034 0.34592 0.69596 0.0
C734 C 0.70668 0.3035 0.68565 0.0
O735 O 0.74688 0.31888 0.65039 0.0
O736 O 0.73198 0.34986 0.66079 0.0
N737 N 0.63494 0.32329 0.65895 0.0
C738 C 0.62687 0.31176 0.64738 0.0
C739 C 0.60573 0.31845 0.64132 0.0
C740 C 0.5931 0.33692 0.64718 0.0
C741 C 0.60164 0.34838 0.65916 0.0
C742 C 0.62261 0.34065 0.6649 0.0
H743 H 0.6364 0.29743 0.64291 0.0
O744 O 0.70153 0.33679 0.63904 0.0
O745 O 0.68281 0.33365 0.65935 0.0
O746 O 0.70141 0.29012 0.64946 0.0
O747 O 0.66684 0.287 0.66021 0.0
C748 C 0.59038 0.36738 0.6655 0.0
C749 C 0.6004 0.37848 0.67732 0.0
H750 H 0.62542 0.39593 0.69954 0.0
H751 H 0.66309 0.38021 0.70782 0.0
H752 H 0.59916 0.30938 0.63214 0.0
H753 H 0.57693 0.34221 0.64235 0.0
H754 H 0.5742 0.37382 0.66124 0.0
H755 H 0.59176 0.3933 0.68196 0.0
Mn756 Mn 0.92827 0.46245 0.90641 0.0
Mn757 Mn 0.93266 0.41287 0.92527 0.0
C758 C 0.91221 0.42871 0.89756 0.0
C759 C 0.90921 0.49715 0.90148 0.0
C760 C 0.97175 0.43211 0.90735 0.0
O761 O 0.93864 0.4739 0.92578 0.0
O762 O 0.93886 0.44004 0.93747 0.0
C763 C 0.89189 0.42048 0.94368 0.0
N764 N 0.90376 0.4069 0.9344 0.0
C765 C 0.87542 0.37652 0.93631 0.0
C766 C 0.86293 0.39012 0.94596 0.0
C767 C 0.87116 0.41224 0.94961 0.0
C768 C 0.89587 0.38573 0.93069 0.0
H769 H 0.89821 0.43746 0.94653 0.0
C770 C 0.94151 0.46201 0.937 0.0
O771 O 0.93096 0.4943 0.89843 0.0
O772 O 0.8988 0.4801 0.90777 0.0
N773 N 0.9273 0.3846 0.91529 0.0
C774 C 0.94135 0.37378 0.90579 0.0
C775 C 0.93593 0.35126 0.9013 0.0
C776 C 0.91614 0.34008 0.90663 0.0
C777 C 0.90202 0.3515 0.91645 0.0
C778 C 0.90858 0.37374 0.92077 0.0
H779 H 0.95675 0.38216 0.9018 0.0
O780 O 0.91646 0.44617 0.88934 0.0
O781 O 0.9166 0.43173 0.91097 0.0
O782 O 0.96085 0.44977 0.90266 0.0
O783 O 0.96294 0.4175 0.91597 0.0
C784 C 0.88169 0.3417 0.92213 0.0
C785 C 0.86831 0.35428 0.93198 0.0
H786 H 0.84696 0.3838 0.95057 0.0
H787 H 0.86158 0.42287 0.957 0.0
H788 H 0.947 0.3425 0.89377 0.0
H789 H 0.91194 0.32274 0.90308 0.0
H790 H 0.8761 0.32458 0.91891 0.0
H791 H 0.85258 0.34667 0.93617 0.0
Mn792 Mn 0.78775 0.67678 0.1539 0.0
Mn793 Mn 0.8378 0.68094 0.17219 0.0
C794 C 0.82081 0.6595 0.14508 0.0
C795 C 0.75262 0.65794 0.15001 0.0
C796 C 0.81791 0.72007 0.15443 0.0
O797 O 0.77747 0.68842 0.17325 0.0
O798 O 0.81122 0.68618 0.18511 0.0
C799 C 0.83242 0.63949 0.1903 0.0
N800 N 0.84499 0.65185 0.18074 0.0
C801 C 0.87576 0.62376 0.18115 0.0
C802 C 0.86321 0.61077 0.19107 0.0
C803 C 0.84141 0.61863 0.19562 0.0
C804 C 0.86585 0.64433 0.17617 0.0
H805 H 0.81568 0.64552 0.19383 0.0
C806 C 0.78941 0.69005 0.18456 0.0
O807 O 0.75558 0.67944 0.14638 0.0
O808 O 0.76982 0.64771 0.15624 0.0
N809 N 0.86531 0.67639 0.16126 0.0
C810 C 0.87495 0.69072 0.15144 0.0
C811 C 0.89694 0.68553 0.14594 0.0
C812 C 0.90887 0.66583 0.1507 0.0
C813 C 0.89859 0.6513 0.16078 0.0
C814 C 0.87678 0.65753 0.16602 0.0
H815 H 0.86604 0.70611 0.14791 0.0
O816 O 0.80328 0.66355 0.13688 0.0
O817 O 0.81821 0.66495 0.15834 0.0
O818 O 0.80079 0.70888 0.1493 0.0
O819 O 0.83204 0.71151 0.16344 0.0
C820 C 0.90909 0.63088 0.16581 0.0
C821 C 0.89761 0.61703 0.17592 0.0
H822 H 0.8701 0.59469 0.19522 0.0
H823 H 0.83159 0.60865 0.20324 0.0
H824 H 0.90476 0.69681 0.13814 0.0
H825 H 0.92597 0.66207 0.14661 0.0
H826 H 0.92588 0.62554 0.16187 0.0
H827 H 0.90573 0.60121 0.17959 0.0
Mn828 Mn 0.56759 0.53767 0.4034 0.0
Mn829 Mn 0.565 0.58904 0.42053 0.0
C830 C 0.58645 0.56952 0.39414 0.0
C831 C 0.58473 0.50169 0.39969 0.0
C832 C 0.52602 0.57068 0.40228 0.0
O833 O 0.55561 0.52844 0.42285 0.0
O834 O 0.55579 0.56343 0.43332 0.0
C835 C 0.60358 0.58037 0.44045 0.0
N836 N 0.59354 0.59379 0.43032 0.0
C837 C 0.62424 0.62187 0.43181 0.0
C838 C 0.63485 0.60841 0.44232 0.0
C839 C 0.62452 0.58753 0.44662 0.0
C840 C 0.60347 0.61376 0.42599 0.0
H841 H 0.59565 0.56433 0.44379 0.0
C842 C 0.55212 0.54157 0.43349 0.0
O843 O 0.56339 0.5056 0.39607 0.0
O844 O 0.59578 0.51839 0.40593 0.0
N845 N 0.57324 0.61586 0.40977 0.0
C846 C 0.56089 0.62666 0.39941 0.0
C847 C 0.5687 0.64797 0.39406 0.0
C848 C 0.58891 0.65809 0.39956 0.0
C849 C 0.60124 0.64673 0.41027 0.0
C850 C 0.59249 0.62566 0.41529 0.0
H851 H 0.54514 0.61914 0.39531 0.0
O852 O 0.58147 0.55191 0.38621 0.0
O853 O 0.58086 0.56782 0.40746 0.0
O854 O 0.53604 0.55193 0.39855 0.0
O855 O 0.53525 0.58565 0.41049 0.0
C856 C 0.62194 0.65542 0.41612 0.0
C857 C 0.63352 0.64291 0.42681 0.0
H858 H 0.65098 0.6139 0.44713 0.0
H859 H 0.63264 0.57701 0.45469 0.0
H860 H 0.55909 0.65666 0.3858 0.0
H861 H 0.59477 0.67463 0.39552 0.0
H862 H 0.62922 0.67159 0.41237 0.0
H863 H 0.64955 0.64964 0.43113 0.0
Mn864 Mn 0.29469 0.31254 0.1584 0.0
Mn865 Mn 0.30118 0.36079 0.178 0.0
C866 C 0.31975 0.3412 0.15091 0.0
C867 C 0.30527 0.27433 0.15399 0.0
C868 C 0.25928 0.3515 0.15932 0.0
O869 O 0.28079 0.30376 0.1774 0.0
O870 O 0.29033 0.33506 0.19039 0.0
C871 C 0.33989 0.34624 0.19651 0.0
N872 N 0.33094 0.36125 0.18683 0.0
C873 C 0.36568 0.38428 0.18713 0.0
C874 C 0.3752 0.36917 0.19718 0.0
C875 C 0.36226 0.35004 0.20186 0.0
C876 C 0.34325 0.37969 0.18224 0.0
H877 H 0.33006 0.33144 0.20009 0.0
C878 C 0.28226 0.31445 0.18918 0.0
O879 O 0.28529 0.28229 0.14994 0.0
O880 O 0.31882 0.28846 0.1607 0.0
N881 N 0.31205 0.38673 0.16727 0.0
C882 C 0.30097 0.39878 0.15688 0.0
C883 C 0.31182 0.41811 0.15078 0.0
C884 C 0.33389 0.4249 0.15544 0.0
C885 C 0.34498 0.4122 0.16611 0.0
C886 C 0.33321 0.39324 0.17191 0.0
H887 H 0.28399 0.3937 0.15325 0.0
O888 O 0.31194 0.32594 0.14204 0.0
O889 O 0.31299 0.33888 0.16395 0.0
O890 O 0.26663 0.33275 0.15378 0.0
O891 O 0.27025 0.36241 0.169 0.0
C892 C 0.36739 0.41742 0.17108 0.0
C893 C 0.37776 0.40343 0.18155 0.0
H894 H 0.3925 0.37195 0.20126 0.0
H895 H 0.36954 0.33822 0.20955 0.0
H896 H 0.30319 0.42776 0.1425 0.0
H897 H 0.34217 0.43982 0.1507 0.0
H898 H 0.37693 0.43197 0.16679 0.0
H899 H 0.39513 0.40741 0.18513 0.0
Mn900 Mn 0.43282 0.54378 0.90928 0.0
Mn901 Mn 0.38499 0.54879 0.92951 0.0
C902 C 0.40268 0.56719 0.90199 0.0
C903 C 0.47011 0.55566 0.90363 0.0
C904 C 0.39525 0.50677 0.9112 0.0
O905 O 0.44325 0.53166 0.92838 0.0
O906 O 0.41145 0.53867 0.94155 0.0
C907 C 0.39915 0.58793 0.94781 0.0
N908 N 0.38405 0.57856 0.93834 0.0
C909 C 0.36008 0.61265 0.93894 0.0
C910 C 0.37529 0.6226 0.94878 0.0
C911 C 0.39493 0.6102 0.9532 0.0
C912 C 0.36508 0.59033 0.93401 0.0
H913 H 0.41434 0.57852 0.95119 0.0
C914 C 0.43258 0.53215 0.9402 0.0
O915 O 0.46303 0.5349 0.90059 0.0
O916 O 0.45579 0.56928 0.91013 0.0
N917 N 0.35836 0.55891 0.91915 0.0
C918 C 0.34634 0.54754 0.90887 0.0
C919 C 0.32659 0.55791 0.90296 0.0
C920 C 0.31937 0.5798 0.9077 0.0
C921 C 0.33204 0.59119 0.91827 0.0
C922 C 0.35145 0.5799 0.92387 0.0
H923 H 0.35179 0.53072 0.90516 0.0
O924 O 0.41758 0.55937 0.89287 0.0
O925 O 0.40599 0.56109 0.91507 0.0
O926 O 0.41389 0.51445 0.90572 0.0
O927 O 0.38379 0.5178 0.9206 0.0
C928 C 0.32642 0.61347 0.92328 0.0
C929 C 0.34045 0.62421 0.93359 0.0
H930 H 0.37219 0.63984 0.95288 0.0
H931 H 0.40682 0.61782 0.96073 0.0
H932 H 0.31696 0.54905 0.89476 0.0
H933 H 0.30415 0.58774 0.90309 0.0
H934 H 0.31153 0.62265 0.91914 0.0
H935 H 0.33615 0.64149 0.9372 0.0
Mn936 Mn 0.21019 0.69031 0.65618 0.0
Mn937 Mn 0.20476 0.64206 0.67598 0.0
C938 C 0.18502 0.6616 0.64917 0.0
C939 C 0.19938 0.72846 0.65192 0.0
C940 C 0.24547 0.651 0.65633 0.0
O941 O 0.22474 0.69933 0.67487 0.0
O942 O 0.21728 0.6676 0.688 0.0
C943 C 0.16794 0.65762 0.69559 0.0
N944 N 0.17571 0.64237 0.68568 0.0
C945 C 0.14017 0.62065 0.68673 0.0
C946 C 0.13186 0.63603 0.69703 0.0
C947 C 0.1458 0.6546 0.70146 0.0
C948 C 0.16246 0.6244 0.68136 0.0
H949 H 0.17852 0.67203 0.69895 0.0
C950 C 0.22475 0.68841 0.68659 0.0
O951 O 0.21918 0.72052 0.64752 0.0
O952 O 0.18611 0.7143 0.65882 0.0
N953 N 0.19248 0.61625 0.6657 0.0
C954 C 0.20249 0.6038 0.65508 0.0
C955 C 0.19045 0.58506 0.64911 0.0
C956 C 0.16831 0.57925 0.65415 0.0
C957 C 0.15847 0.59215 0.66517 0.0
C958 C 0.17138 0.61051 0.67081 0.0
H959 H 0.21944 0.60823 0.6511 0.0
O960 O 0.19242 0.67682 0.64014 0.0
O961 O 0.19224 0.66399 0.66213 0.0
O962 O 0.23815 0.67008 0.65119 0.0
O963 O 0.23481 0.63984 0.66604 0.0
C964 C 0.13614 0.58785 0.67058 0.0
C965 C 0.127 0.60208 0.68135 0.0
H966 H 0.11472 0.63388 0.7015 0.0
H967 H 0.13945 0.66663 0.70934 0.0
H968 H 0.19816 0.5752 0.64059 0.0
H969 H 0.15896 0.56496 0.64939 0.0
H970 H 0.12571 0.57384 0.66638 0.0
H971 H 0.10968 0.59879 0.68528 0.0
Mn972 Mn 0.05871 0.45722 0.40714 0.0
Mn973 Mn 0.10742 0.44626 0.42562 0.0
C974 C 0.08693 0.43365 0.39761 0.0
C975 C 0.02052 0.44806 0.40196 0.0
C976 C 0.09856 0.49157 0.41017 0.0
O977 O 0.05028 0.46677 0.42715 0.0
O978 O 0.08243 0.45596 0.43894 0.0
C979 C 0.09173 0.40522 0.44178 0.0
N980 N 0.10685 0.41514 0.43253 0.0
C981 C 0.12801 0.37944 0.43008 0.0
C982 C 0.11277 0.36891 0.43967 0.0
C983 C 0.09454 0.38186 0.44553 0.0
C984 C 0.12449 0.40285 0.42685 0.0
H985 H 0.07757 0.41504 0.44623 0.0
C986 C 0.06166 0.46386 0.43857 0.0
O987 O 0.02837 0.46887 0.3999 0.0
O988 O 0.0346 0.43286 0.40722 0.0
N989 N 0.1327 0.43624 0.414 0.0
C990 C 0.14499 0.44854 0.40425 0.0
C991 C 0.16336 0.43784 0.39703 0.0
C992 C 0.16896 0.41465 0.39994 0.0
C993 C 0.1562 0.4024 0.4101 0.0
C994 C 0.13822 0.41404 0.41706 0.0
H995 H 0.14071 0.46633 0.40189 0.0
O996 O 0.07185 0.44362 0.38944 0.0
O997 O 0.08485 0.43771 0.41107 0.0
O998 O 0.07909 0.48591 0.40482 0.0
O999 O 0.10999 0.47844 0.41853 0.0
C1000 C 0.16029 0.37894 0.41336 0.0
C1001 C 0.14621 0.36747 0.42335 0.0
H1002 H 0.11475 0.35083 0.4425 0.0
H1003 H 0.08261 0.37381 0.45287 0.0
H1004 H 0.1731 0.44739 0.38919 0.0
H1005 H 0.18296 0.40637 0.39424 0.0
H1006 H 0.174 0.36946 0.4081 0.0
H1007 H 0.14931 0.34934 0.42562 0.0
Mn1008 Mn 0.2873 0.68619 0.34336 0.0
Mn1009 Mn 0.29152 0.63917 0.32237 0.0
C1010 C 0.31088 0.6558 0.34991 0.0
C1011 C 0.29932 0.72326 0.34933 0.0
C1012 C 0.25032 0.64849 0.34149 0.0
O1013 O 0.27483 0.6975 0.32457 0.0
O1014 O 0.28047 0.66599 0.3109 0.0
C1015 C 0.32956 0.65451 0.30356 0.0
N1016 N 0.32086 0.63895 0.313 0.0
C1017 C 0.35534 0.61563 0.31158 0.0
C1018 C 0.36459 0.63132 0.30177 0.0
C1019 C 0.35166 0.65086 0.29777 0.0
C1020 C 0.33314 0.62006 0.3169 0.0
H1021 H 0.31974 0.66962 0.30051 0.0
C1022 C 0.27446 0.6872 0.31264 0.0
O1023 O 0.27868 0.71606 0.35255 0.0
O1024 O 0.31279 0.70913 0.34255 0.0
N1025 N 0.30246 0.61226 0.33214 0.0
C1026 C 0.29173 0.59968 0.34244 0.0
C1027 C 0.3027 0.57995 0.34794 0.0
C1028 C 0.32454 0.57332 0.3428 0.0
C1029 C 0.33525 0.58653 0.33222 0.0
C1030 C 0.32338 0.60589 0.32703 0.0
H1031 H 0.27498 0.6047 0.34647 0.0
O1032 O 0.30329 0.67029 0.35934 0.0
O1033 O 0.3044 0.65963 0.33695 0.0
O1034 O 0.25804 0.66712 0.34697 0.0
O1035 O 0.26106 0.63729 0.33185 0.0
C1036 C 0.35743 0.58151 0.32682 0.0
C1037 C 0.36748 0.59605 0.31652 0.0
H1038 H 0.38171 0.62867 0.29736 0.0
H1039 H 0.35874 0.66312 0.29027 0.0
H1040 H 0.29436 0.56989 0.35615 0.0
H1041 H 0.33296 0.55812 0.34712 0.0
H1042 H 0.36705 0.56667 0.33065 0.0
H1043 H 0.38468 0.5922 0.31259 0.0
Mn1044 Mn 0.06774 0.54245 0.09096 0.0
Mn1045 Mn 0.11525 0.54797 0.07058 0.0
C1046 C 0.09698 0.5673 0.0978 0.0
C1047 C 0.02984 0.55342 0.09597 0.0
C1048 C 0.10619 0.50648 0.08962 0.0
O1049 O 0.05792 0.52855 0.07217 0.0
O1050 O 0.08892 0.53714 0.05867 0.0
C1051 C 0.10047 0.58639 0.05191 0.0
N1052 N 0.1157 0.57753 0.06148 0.0
C1053 C 0.13904 0.61204 0.06061 0.0
C1054 C 0.12369 0.62147 0.05067 0.0
C1055 C 0.1043 0.6086 0.04632 0.0
C1056 C 0.13443 0.58975 0.06573 0.0
H1057 H 0.08549 0.5766 0.04858 0.0
C1058 C 0.06818 0.52958 0.06023 0.0
O1059 O 0.03782 0.53342 0.09996 0.0
O1060 O 0.04379 0.56682 0.089 0.0
N1061 N 0.14169 0.5588 0.08086 0.0
C1062 C 0.15392 0.54788 0.09123 0.0
C1063 C 0.17346 0.55875 0.09706 0.0
C1064 C 0.18028 0.58066 0.09215 0.0
C1065 C 0.16741 0.59158 0.08149 0.0
C1066 C 0.14823 0.57981 0.07597 0.0
H1067 H 0.14879 0.53105 0.09507 0.0
O1068 O 0.0821 0.55974 0.107 0.0
O1069 O 0.09401 0.56033 0.08485 0.0
O1070 O 0.08776 0.51416 0.09538 0.0
O1071 O 0.11691 0.5172 0.07977 0.0
C1072 C 0.17264 0.61385 0.07629 0.0
C1073 C 0.15844 0.62409 0.06588 0.0
H1074 H 0.12648 0.63867 0.04641 0.0
H1075 H 0.0923 0.61581 0.03871 0.0
H1076 H 0.18325 0.55025 0.10533 0.0
H1077 H 0.19535 0.58898 0.0967 0.0
H1078 H 0.18735 0.62339 0.08037 0.0
H1079 H 0.16243 0.64136 0.06212 0.0
Mn1080 Mn 0.20659 0.31488 0.84375 0.0
Mn1081 Mn 0.20076 0.36219 0.82314 0.0
C1082 C 0.18374 0.34528 0.8512 0.0
C1083 C 0.19501 0.27777 0.84992 0.0
C1084 C 0.24348 0.35255 0.84089 0.0
O1085 O 0.21747 0.30377 0.82454 0.0
O1086 O 0.21098 0.33553 0.81124 0.0
C1087 C 0.16126 0.34694 0.80547 0.0
N1088 N 0.17071 0.36245 0.81467 0.0
C1089 C 0.13617 0.38579 0.81433 0.0
C1090 C 0.12614 0.37015 0.80478 0.0
C1091 C 0.13873 0.35063 0.80036 0.0
C1092 C 0.15875 0.38131 0.81899 0.0
H1093 H 0.17082 0.33185 0.8021 0.0
C1094 C 0.21709 0.31429 0.81268 0.0
O1095 O 0.21592 0.28489 0.85251 0.0
O1096 O 0.18101 0.292 0.84365 0.0
N1097 N 0.19061 0.38901 0.83331 0.0
C1098 C 0.2022 0.40157 0.84325 0.0
C1099 C 0.19175 0.42134 0.84908 0.0
C1100 C 0.16955 0.42803 0.8446 0.0
C1101 C 0.15794 0.41481 0.83437 0.0
C1102 C 0.16933 0.39542 0.82883 0.0
H1103 H 0.21926 0.39652 0.84676 0.0
O1104 O 0.19205 0.33063 0.8603 0.0
O1105 O 0.18905 0.34159 0.83802 0.0
O1106 O 0.23619 0.33383 0.84649 0.0
O1107 O 0.23194 0.36396 0.8317 0.0
C1108 C 0.13537 0.4199 0.82964 0.0
C1109 C 0.12448 0.40538 0.81965 0.0
H1110 H 0.1087 0.37284 0.80089 0.0
H1111 H 0.13105 0.33841 0.79305 0.0
H1112 H 0.20077 0.4314 0.85701 0.0
H1113 H 0.16155 0.44328 0.84914 0.0
H1114 H 0.12611 0.43476 0.83375 0.0
H1115 H 0.10699 0.40928 0.81624 0.0
Mn1116 Mn 0.4375 0.45893 0.59176 0.0
Mn1117 Mn 0.39025 0.4502 0.57149 0.0
C1118 C 0.40814 0.43528 0.59972 0.0
C1119 C 0.47499 0.44881 0.59809 0.0
C1120 C 0.39831 0.49413 0.58841 0.0
O1121 O 0.44803 0.46924 0.57234 0.0
O1122 O 0.41626 0.46128 0.55933 0.0
C1123 C 0.40723 0.41086 0.55428 0.0
N1124 N 0.3914 0.41984 0.56345 0.0
C1125 C 0.37022 0.38394 0.56401 0.0
C1126 C 0.3862 0.37438 0.55449 0.0
C1127 C 0.40479 0.3879 0.54961 0.0
C1128 C 0.37339 0.40701 0.56816 0.0
H1129 H 0.42165 0.42112 0.55058 0.0
C1130 C 0.4373 0.46816 0.56057 0.0
O1131 O 0.46726 0.46963 0.6003 0.0
O1132 O 0.46118 0.43416 0.59204 0.0
N1133 N 0.36409 0.4391 0.58194 0.0
C1134 C 0.35115 0.45038 0.59184 0.0
C1135 C 0.33238 0.43893 0.5982 0.0
C1136 C 0.32709 0.41605 0.5943 0.0
C1137 C 0.34055 0.40486 0.58403 0.0
C1138 C 0.3589 0.41722 0.57794 0.0
H1139 H 0.35523 0.46789 0.59496 0.0
O1140 O 0.42245 0.44465 0.60863 0.0
O1141 O 0.41149 0.44012 0.58644 0.0
O1142 O 0.41747 0.48796 0.59397 0.0
O1143 O 0.38712 0.48158 0.57962 0.0
C1144 C 0.33682 0.38174 0.57983 0.0
C1145 C 0.35163 0.3713 0.56982 0.0
H1146 H 0.38451 0.3566 0.55097 0.0
H1147 H 0.41727 0.3806 0.54233 0.0
H1148 H 0.32211 0.44766 0.60615 0.0
H1149 H 0.31278 0.40719 0.59936 0.0
H1150 H 0.32283 0.37173 0.5844 0.0
H1151 H 0.34879 0.35341 0.56684 0.0
H1152 H 0.11605 0.43293 0.37493 0.0
H1153 H 0.13582 0.39882 0.36496 0.0
H1154 H 0.10647 0.35616 0.39786 0.0
H1155 H 0.08645 0.38997 0.40758 0.0
H1156 H 0.16771 0.36599 0.37763 0.0
H1157 H 0.08487 0.32588 0.36066 0.0
H1158 H 0.08706 0.35593 0.36575 0.0
H1159 H 0.08571 0.3337 0.37904 0.0
C1160 C 0.1141 0.41625 0.38004 0.0
C1161 C 0.10037 0.414 0.3922 0.0
C1162 C 0.12538 0.39688 0.3744 0.0
C1163 C 0.1225 0.37501 0.38066 0.0
C1164 C 0.10878 0.37286 0.39283 0.0
H1165 H 0.19438 0.24494 0.36762 0.0
H1166 H 0.18225 0.28308 0.37614 0.0
C1167 C 0.09757 0.39216 0.39845 0.0
C1168 C 0.13282 0.35416 0.37415 0.0
H1169 H 0.11838 0.30222 0.35945 0.0
C1170 C 0.15701 0.35207 0.37354 0.0
C1171 C 0.11874 0.33623 0.3687 0.0
C1172 C 0.09266 0.33806 0.36842 0.0
C1173 C 0.16753 0.33218 0.36785 0.0
C1174 C 0.1534 0.31384 0.36289 0.0
C1175 C 0.12921 0.31622 0.3633 0.0
C1176 C 0.16303 0.2919 0.35723 0.0
C1177 C 0.1936 0.33113 0.36704 0.0
C1178 C 0.15615 0.28408 0.34382 0.0
C1179 C 0.16268 0.26218 0.33905 0.0
C1180 C 0.17637 0.24763 0.34755 0.0
C1181 C 0.18398 0.2558 0.36078 0.0
C1182 C 0.17719 0.27767 0.36563 0.0
H1183 H 0.20139 0.34873 0.36723 0.0
H1184 H 0.20029 0.32147 0.37632 0.0
H1185 H 0.1994 0.32209 0.3573 0.0
H1186 H 0.1452 0.29475 0.33718 0.0
H1187 H 0.15665 0.2565 0.32877 0.0
H1188 H 0.00507 0.9562 0.61887 0.0
H1189 H 0.96816 0.94427 0.62934 0.0
H1190 H 0.95799 0.8954 0.59542 0.0
H1191 H 0.99495 0.90679 0.58503 0.0
H1192 H 0.92256 0.94297 0.61972 0.0
H1193 H 0.95568 0.85462 0.63056 0.0
H1194 H 0.97438 0.87815 0.62534 0.0
H1195 H 0.95784 0.86264 0.61228 0.0
C1196 C 0.99487 0.94309 0.61354 0.0
C1197 C 0.00314 0.93224 0.6012 0.0
C1198 C 0.97379 0.93629 0.61955 0.0
C1199 C 0.96063 0.91859 0.61332 0.0
C1200 C 0.96818 0.90868 0.60059 0.0
H1201 H 0.82029 0.87327 0.62917 0.0
H1202 H 0.85486 0.89397 0.62093 0.0
C1203 C 0.98929 0.91531 0.59464 0.0
C1204 C 0.93949 0.90976 0.62038 0.0
H1205 H 0.91523 0.86041 0.63356 0.0
C1206 C 0.92094 0.92495 0.62283 0.0
C1207 C 0.93764 0.88637 0.6247 0.0
C1208 C 0.95753 0.86954 0.62323 0.0
C1209 C 0.9003 0.91718 0.62912 0.0
C1210 C 0.89805 0.89352 0.6328 0.0
C1211 C 0.91686 0.87852 0.63066 0.0
C1212 C 0.87632 0.88361 0.63862 0.0
C1213 C 0.88129 0.93443 0.632 0.0
C1214 C 0.87692 0.87063 0.65118 0.0
C1215 C 0.85735 0.85852 0.65571 0.0
C1216 C 0.83668 0.85962 0.64797 0.0
C1217 C 0.83591 0.87278 0.63551 0.0
C1218 C 0.85558 0.88474 0.63088 0.0
H1219 H 0.88803 0.95244 0.6324 0.0
H1220 H 0.86822 0.93351 0.62342 0.0
H1221 H 0.87257 0.93051 0.64216 0.0
H1222 H 0.89279 0.86923 0.65724 0.0
H1223 H 0.8586 0.84765 0.66502 0.0
H1224 H 0.40021 0.60812 0.91559 0.0
H1225 H 0.37938 0.6429 0.90826 0.0
H1226 H 0.35476 0.607 0.87113 0.0
H1227 H 0.37447 0.57162 0.87906 0.0
H1228 H 0.38915 0.66633 0.88584 0.0
H1229 H 0.29692 0.64094 0.88207 0.0
H1230 H 0.31818 0.62365 0.89122 0.0
H1231 H 0.31548 0.62182 0.8723 0.0
C1232 C 0.38949 0.60741 0.9062 0.0
C1233 C 0.38806 0.58704 0.89818 0.0
C1234 C 0.37782 0.62734 0.90192 0.0
C1235 C 0.3651 0.62751 0.88927 0.0
C1236 C 0.36376 0.60712 0.88117 0.0
H1237 H 0.34904 0.74808 0.83734 0.0
H1238 H 0.35847 0.71078 0.84791 0.0
C1239 C 0.37519 0.58701 0.8856 0.0
C1240 C 0.35587 0.64974 0.88376 0.0
H1241 H 0.30781 0.67594 0.87001 0.0
C1242 C 0.37127 0.66845 0.88255 0.0
C1243 C 0.3325 0.65265 0.87958 0.0
C1244 C 0.31475 0.63376 0.88148 0.0
C1245 C 0.36417 0.68975 0.87699 0.0
C1246 C 0.34119 0.69224 0.87204 0.0
C1247 C 0.32552 0.67384 0.87362 0.0
C1248 C 0.33352 0.71372 0.8649 0.0
C1249 C 0.38139 0.70944 0.87655 0.0
C1250 C 0.31552 0.72721 0.87054 0.0
C1251 C 0.30983 0.74852 0.86439 0.0
C1252 C 0.32217 0.75665 0.85255 0.0
C1253 C 0.33947 0.74254 0.8466 0.0
C1254 C 0.34493 0.72122 0.85264 0.0
H1255 H 0.3954 0.70705 0.88447 0.0
H1256 H 0.38956 0.71006 0.86593 0.0
H1257 H 0.37281 0.72634 0.87855 0.0
H1258 H 0.3064 0.7216 0.87995 0.0
H1259 H 0.29637 0.75896 0.86918 0.0
H1260 H 0.50832 0.09311 0.08475 0.0
H1261 H 0.5456 0.10507 0.0944 0.0
H1262 H 0.53421 0.06203 0.13104 0.0
H1263 H 0.49707 0.04943 0.12126 0.0
H1264 H 0.55135 0.12879 0.1183 0.0
H1265 H 0.60074 0.04659 0.1218 0.0
H1266 H 0.57433 0.04919 0.1117 0.0
H1267 H 0.5732 0.04556 0.13058 0.0
C1268 C 0.51387 0.08587 0.09476 0.0
C1269 C 0.49967 0.07032 0.10224 0.0
C1270 C 0.53521 0.09274 0.10026 0.0
C1271 C 0.54282 0.08431 0.11339 0.0
C1272 C 0.52897 0.06836 0.12075 0.0
H1273 H 0.64274 0.1598 0.16468 0.0
H1274 H 0.60816 0.13968 0.15599 0.0
C1275 C 0.50766 0.06127 0.11517 0.0
C1276 C 0.56423 0.09386 0.11982 0.0
H1277 H 0.61712 0.07937 0.13344 0.0
C1278 C 0.56575 0.11796 0.12155 0.0
C1279 C 0.58307 0.07973 0.124 0.0
C1280 C 0.58292 0.05385 0.12181 0.0
C1281 C 0.58554 0.12836 0.1273 0.0
C1282 C 0.60412 0.11422 0.13183 0.0
C1283 C 0.60271 0.09012 0.13009 0.0
C1284 C 0.62543 0.12437 0.13794 0.0
C1285 C 0.58656 0.15446 0.12818 0.0
C1286 C 0.64671 0.12181 0.13092 0.0
C1287 C 0.66649 0.13301 0.13601 0.0
C1288 C 0.66534 0.14643 0.14835 0.0
C1289 C 0.64412 0.14888 0.1554 0.0
C1290 C 0.62437 0.13766 0.15035 0.0
H1291 H 0.57372 0.16277 0.12104 0.0
H1292 H 0.5826 0.15998 0.13915 0.0
H1293 H 0.60409 0.16095 0.12539 0.0
H1294 H 0.64785 0.11172 0.12128 0.0
H1295 H 0.68265 0.13136 0.13026 0.0
H1296 H 0.20299 0.75846 0.13179 0.0
H1297 H 0.19242 0.7215 0.1208 0.0
H1298 H 0.13943 0.71142 0.15236 0.0
H1299 H 0.14938 0.74845 0.16315 0.0
H1300 H 0.19071 0.67649 0.13024 0.0
H1301 H 0.10294 0.70715 0.1159 0.0
H1302 H 0.12528 0.7265 0.12209 0.0
H1303 H 0.10857 0.70972 0.13449 0.0
C1304 C 0.18917 0.7483 0.13644 0.0
C1305 C 0.17682 0.75656 0.14823 0.0
C1306 C 0.18317 0.7272 0.13015 0.0
C1307 C 0.1648 0.714 0.13558 0.0
C1308 C 0.15324 0.72165 0.14776 0.0
H1309 H 0.12528 0.57193 0.12058 0.0
H1310 H 0.14453 0.60745 0.12859 0.0
C1311 C 0.15903 0.7428 0.15395 0.0
C1312 C 0.15718 0.69254 0.12835 0.0
H1313 H 0.10956 0.66651 0.11415 0.0
C1314 C 0.17303 0.67432 0.1266 0.0
C1315 C 0.13425 0.68995 0.12332 0.0
C1316 C 0.11685 0.70946 0.1239 0.0
C1317 C 0.1663 0.65325 0.12038 0.0
C1318 C 0.143 0.65021 0.11612 0.0
C1319 C 0.12739 0.66873 0.1175 0.0
C1320 C 0.13402 0.62795 0.1105 0.0
C1321 C 0.18428 0.63463 0.11828 0.0
C1322 C 0.12138 0.62768 0.09781 0.0
C1323 C 0.11 0.6076 0.09345 0.0
C1324 C 0.1116 0.58723 0.10145 0.0
C1325 C 0.12444 0.58731 0.11404 0.0
C1326 C 0.13559 0.60752 0.11853 0.0
H1327 H 0.18368 0.62241 0.12732 0.0
H1328 H 0.18098 0.62478 0.10842 0.0
H1329 H 0.20203 0.64203 0.11778 0.0
H1330 H 0.11964 0.64327 0.09152 0.0
H1331 H 0.0993 0.60821 0.08404 0.0
H1332 H 0.50639 0.90544 0.41228 0.0
H1333 H 0.54316 0.89514 0.40137 0.0
H1334 H 0.52769 0.93949 0.36589 0.0
H1335 H 0.49083 0.95042 0.37699 0.0
H1336 H 0.54637 0.87271 0.37641 0.0
H1337 H 0.59528 0.95555 0.37403 0.0
H1338 H 0.56996 0.9518 0.38501 0.0
H1339 H 0.56684 0.95631 0.36631 0.0
C1340 C 0.5109 0.91329 0.40224 0.0
C1341 C 0.49563 0.92865 0.39544 0.0
C1342 C 0.53196 0.90741 0.39603 0.0
C1343 C 0.53823 0.9166 0.38285 0.0
C1344 C 0.5234 0.93251 0.37619 0.0
H1345 H 0.64074 0.84229 0.33234 0.0
H1346 H 0.60582 0.86328 0.3396 0.0
C1347 C 0.50231 0.93865 0.38251 0.0
C1348 C 0.55927 0.90769 0.37571 0.0
H1349 H 0.61253 0.92294 0.36298 0.0
C1350 C 0.56081 0.88372 0.37345 0.0
C1351 C 0.57809 0.92209 0.3719 0.0
C1352 C 0.57766 0.94785 0.37452 0.0
C1353 C 0.58081 0.87363 0.36778 0.0
C1354 C 0.59959 0.888 0.36387 0.0
C1355 C 0.598 0.91204 0.36591 0.0
C1356 C 0.62141 0.87803 0.35838 0.0
C1357 C 0.58193 0.84757 0.36652 0.0
C1358 C 0.64192 0.88006 0.36626 0.0
C1359 C 0.66193 0.86838 0.36198 0.0
C1360 C 0.66179 0.85498 0.34962 0.0
C1361 C 0.64138 0.85319 0.34166 0.0
C1362 C 0.62142 0.86493 0.34588 0.0
H1363 H 0.56851 0.83893 0.37309 0.0
H1364 H 0.57896 0.84252 0.35535 0.0
H1365 H 0.59919 0.84097 0.36977 0.0
H1366 H 0.64219 0.88997 0.37599 0.0
H1367 H 0.67743 0.86955 0.36841 0.0
H1368 H 0.34991 0.25547 0.66742 0.0
H1369 H 0.35988 0.2933 0.65774 0.0
H1370 H 0.31515 0.28078 0.622 0.0
H1371 H 0.30441 0.24308 0.63192 0.0
H1372 H 0.3819 0.30089 0.63394 0.0
H1373 H 0.29733 0.34622 0.63171 0.0
H1374 H 0.30143 0.31962 0.64142 0.0
H1375 H 0.2973 0.31898 0.62257 0.0
C1376 C 0.34196 0.26085 0.65757 0.0
C1377 C 0.32641 0.24625 0.65041 0.0
C1378 C 0.34765 0.28252 0.65207 0.0
C1379 C 0.33809 0.29002 0.63921 0.0
C1380 C 0.3223 0.27564 0.6321 0.0
H1381 H 0.40857 0.3927 0.58803 0.0
H1382 H 0.38913 0.35782 0.59665 0.0
C1383 C 0.31631 0.25402 0.63773 0.0
C1384 C 0.34633 0.312 0.63281 0.0
H1385 H 0.32887 0.36434 0.61969 0.0
C1386 C 0.37027 0.31479 0.6309 0.0
C1387 C 0.33117 0.3302 0.62892 0.0
C1388 C 0.3054 0.32876 0.63138 0.0
C1389 C 0.37953 0.3352 0.62525 0.0
C1390 C 0.36436 0.35309 0.62094 0.0
C1391 C 0.3404 0.35046 0.62288 0.0
C1392 C 0.37332 0.37478 0.61465 0.0
C1393 C 0.40553 0.33757 0.62427 0.0
C1394 C 0.37004 0.39606 0.62156 0.0
C1395 C 0.38075 0.41612 0.61644 0.0
C1396 C 0.39444 0.41517 0.60421 0.0
C1397 C 0.39741 0.39396 0.59721 0.0
C1398 C 0.38659 0.37401 0.60223 0.0
H1399 H 0.41454 0.32534 0.63149 0.0
H1400 H 0.41116 0.3336 0.61332 0.0
H1401 H 0.41116 0.35546 0.62689 0.0
H1402 H 0.35992 0.39697 0.6312 0.0
H1403 H 0.37866 0.43227 0.62214 0.0
H1404 H 0.00539 0.04506 0.87957 0.0
H1405 H 0.96873 0.05579 0.86824 0.0
H1406 H 0.95703 0.10735 0.90046 0.0
H1407 H 0.99362 0.09716 0.91167 0.0
H1408 H 0.92275 0.05729 0.87769 0.0
H1409 H 0.95481 0.14483 0.8639 0.0
H1410 H 0.97378 0.122 0.86987 0.0
H1411 H 0.95734 0.13869 0.88244 0.0
C1412 C 0.99492 0.05856 0.88431 0.0
C1413 C 0.0026 0.07046 0.89642 0.0
C1414 C 0.974 0.06466 0.87781 0.0
C1415 C 0.96047 0.0827 0.88335 0.0
C1416 C 0.96752 0.09377 0.89582 0.0
H1417 H 0.82001 0.12595 0.87093 0.0
H1418 H 0.85537 0.10521 0.8777 0.0
C1419 C 0.98843 0.08784 0.90224 0.0
C1420 C 0.93931 0.09059 0.87596 0.0
H1421 H 0.91398 0.13892 0.86219 0.0
C1422 C 0.92085 0.07506 0.87415 0.0
C1423 C 0.93711 0.11363 0.87106 0.0
C1424 C 0.9569 0.13069 0.87177 0.0
C1425 C 0.8998 0.0823 0.86813 0.0
C1426 C 0.8971 0.10575 0.8641 0.0
C1427 C 0.91594 0.12097 0.86539 0.0
C1428 C 0.87475 0.11537 0.85907 0.0
C1429 C 0.88078 0.06476 0.86604 0.0
C1430 C 0.87394 0.12824 0.84648 0.0
C1431 C 0.85395 0.14041 0.8428 0.0
C1432 C 0.83424 0.13945 0.85144 0.0
C1433 C 0.83485 0.12634 0.86392 0.0
C1434 C 0.85495 0.11433 0.8677 0.0
H1435 H 0.88776 0.04684 0.86552 0.0
H1436 H 0.86857 0.06562 0.87509 0.0
H1437 H 0.87103 0.06836 0.85619 0.0
H1438 H 0.88908 0.12958 0.83976 0.0
H1439 H 0.85416 0.15124 0.83345 0.0
H1440 H 0.87768 0.59233 0.59163 0.0
H1441 H 0.85809 0.62692 0.60083 0.0
H1442 H 0.90624 0.62896 0.63574 0.0
H1443 H 0.92691 0.59578 0.62579 0.0
H1444 H 0.83567 0.63428 0.62393 0.0
H1445 H 0.91039 0.69397 0.62414 0.0
H1446 H 0.91351 0.66444 0.61851 0.0
H1447 H 0.91463 0.67153 0.63697 0.0
C1448 C 0.88456 0.60085 0.60092 0.0
C1449 C 0.90457 0.59239 0.60754 0.0
C1450 C 0.87316 0.62032 0.60634 0.0
C1451 C 0.88111 0.63114 0.61877 0.0
C1452 C 0.90033 0.62169 0.62582 0.0
H1453 H 0.8372 0.75149 0.66664 0.0
H1454 H 0.85342 0.71433 0.6593 0.0
C1455 C 0.91206 0.60265 0.62019 0.0
C1456 C 0.86871 0.65165 0.62462 0.0
H1457 H 0.87642 0.70704 0.63636 0.0
C1458 C 0.84459 0.65024 0.62656 0.0
C1459 C 0.88031 0.67244 0.62836 0.0
C1460 C 0.9061 0.6757 0.62676 0.0
C1461 C 0.83184 0.66884 0.63217 0.0
C1462 C 0.84342 0.68971 0.63559 0.0
C1463 C 0.86749 0.69107 0.63373 0.0
C1464 C 0.83121 0.71057 0.64099 0.0
C1465 C 0.80624 0.66567 0.63474 0.0
C1466 C 0.81297 0.72069 0.63331 0.0
C1467 C 0.80334 0.74177 0.63768 0.0
C1468 C 0.81223 0.75335 0.64956 0.0
C1469 C 0.83011 0.74299 0.65739 0.0
C1470 C 0.83938 0.72175 0.6532 0.0
H1471 H 0.80173 0.64709 0.63609 0.0
H1472 H 0.80043 0.67529 0.64426 0.0
H1473 H 0.7965 0.67226 0.62546 0.0
H1474 H 0.80677 0.7128 0.62364 0.0
H1475 H 0.78971 0.7495 0.63138 0.0
H1476 H 0.15006 0.17377 0.37438 0.0
H1477 H 0.11677 0.15165 0.38318 0.0
H1478 H 0.1282 0.10001 0.35092 0.0
H1479 H 0.16187 0.12193 0.34235 0.0
H1480 H 0.07742 0.14106 0.36858 0.0
H1481 H 0.12097 0.06046 0.3863 0.0
H1482 H 0.13669 0.08675 0.38243 0.0
H1483 H 0.12692 0.06838 0.36829 0.0
C1484 C 0.1454 0.15767 0.36922 0.0
C1485 C 0.15785 0.14983 0.35744 0.0
C1486 C 0.12649 0.14504 0.37425 0.0
C1487 C 0.12011 0.12408 0.36779 0.0
C1488 C 0.13302 0.11592 0.35623 0.0
H1489 H 0.00111 0.03317 0.38275 0.0
H1490 H 0.03764 0.04963 0.37403 0.0
C1491 C 0.15195 0.1286 0.35119 0.0
C1492 C 0.09916 0.1116 0.37271 0.0
H1493 H 0.07987 0.06056 0.38673 0.0
C1494 C 0.07796 0.1234 0.37239 0.0
C1495 C 0.09991 0.08858 0.37784 0.0
C1496 C 0.12236 0.07532 0.37888 0.0
C1497 C 0.0574 0.11282 0.37685 0.0
C1498 C 0.05819 0.09004 0.38235 0.0
C1499 C 0.07934 0.07805 0.38254 0.0
C1500 C 0.03727 0.07887 0.38835 0.0
C1501 C 0.035 0.12611 0.37545 0.0
C1502 C 0.02544 0.08941 0.3996 0.0
C1503 C 0.00457 0.08023 0.40447 0.0
C1504 C 0.99531 0.06007 0.39836 0.0
C1505 C 0.0078 0.04877 0.38763 0.0
C1506 C 0.02865 0.05814 0.38264 0.0
H1507 H 0.03626 0.13978 0.36721 0.0
H1508 H 0.02037 0.11444 0.37273 0.0
H1509 H 0.03101 0.13475 0.38565 0.0
H1510 H 0.03212 0.10507 0.40442 0.0
H1511 H 0.99551 0.08916 0.4129 0.0
H1512 H 0.63163 0.40748 0.08796 0.0
H1513 H 0.65666 0.377 0.0976 0.0
H1514 H 0.60642 0.36373 0.13043 0.0
H1515 H 0.58207 0.39499 0.12119 0.0
H1516 H 0.64839 0.36682 0.1414 0.0
H1517 H 0.65365 0.30833 0.09472 0.0
H1518 H 0.66057 0.33815 0.09132 0.0
H1519 H 0.63176 0.33022 0.09673 0.0
C1520 C 0.62578 0.3976 0.09703 0.0
C1521 C 0.60474 0.40306 0.10366 0.0
C1522 C 0.64005 0.38016 0.10253 0.0
C1523 C 0.63331 0.3677 0.11463 0.0
C1524 C 0.61204 0.37303 0.12109 0.0
H1525 H 0.66579 0.2506 0.16398 0.0
H1526 H 0.65315 0.2882 0.1551 0.0
C1527 C 0.59805 0.39074 0.11576 0.0
C1528 C 0.64865 0.34983 0.12108 0.0
H1529 H 0.67467 0.29773 0.1147 0.0
C1530 C 0.65423 0.35178 0.13552 0.0
C1531 C 0.65666 0.33032 0.11343 0.0
C1532 C 0.65034 0.32642 0.09819 0.0
C1533 C 0.66673 0.33439 0.14256 0.0
C1534 C 0.6738 0.31452 0.13498 0.0
C1535 C 0.66933 0.3131 0.12045 0.0
C1536 C 0.68346 0.29379 0.14207 0.0
C1537 C 0.672 0.33727 0.15808 0.0
C1538 C 0.70474 0.28444 0.1377 0.0
C1539 C 0.71199 0.26283 0.14273 0.0
C1540 C 0.69789 0.25012 0.15204 0.0
C1541 C 0.67703 0.25996 0.1568 0.0
C1542 C 0.66987 0.28157 0.15184 0.0
H1543 H 0.67222 0.35584 0.16117 0.0
H1544 H 0.65833 0.32852 0.16437 0.0
H1545 H 0.68894 0.32937 0.16085 0.0
H1546 H 0.71536 0.29352 0.13005 0.0
H1547 H 0.72814 0.25569 0.13886 0.0
H1548 H 0.48231 0.9661 0.91005 0.0
H1549 H 0.44369 0.95103 0.90399 0.0
H1550 H 0.47549 0.89834 0.87802 0.0
H1551 H 0.5138 0.91223 0.88499 0.0
H1552 H 0.41885 0.94575 0.88181 0.0
H1553 H 0.43706 0.85804 0.90182 0.0
H1554 H 0.45691 0.88169 0.90453 0.0
H1555 H 0.45759 0.86512 0.88833 0.0
C1556 C 0.48086 0.9513 0.90306 0.0
C1557 C 0.50078 0.94003 0.8981 0.0
C1558 C 0.45888 0.9427 0.8996 0.0
C1559 C 0.45664 0.92302 0.89092 0.0
C1560 C 0.4767 0.91285 0.88523 0.0
H1561 H 0.33662 0.8797 0.84365 0.0
H1562 H 0.36857 0.90174 0.85392 0.0
C1563 C 0.49857 0.92093 0.88907 0.0
C1564 C 0.43352 0.91287 0.88784 0.0
H1565 H 0.40525 0.86123 0.8856 0.0
C1566 C 0.41573 0.9273 0.88282 0.0
C1567 C 0.42904 0.88892 0.8896 0.0
C1568 C 0.44611 0.87266 0.89653 0.0
C1569 C 0.39402 0.91829 0.87893 0.0
C1570 C 0.39039 0.894 0.87937 0.0
C1571 C 0.4079 0.87979 0.88497 0.0
C1572 C 0.3692 0.88258 0.87368 0.0
C1573 C 0.37524 0.93507 0.87468 0.0
C1574 C 0.35884 0.8642 0.88114 0.0
C1575 C 0.34152 0.85081 0.87488 0.0
C1576 C 0.33419 0.85556 0.86106 0.0
C1577 C 0.34296 0.87505 0.85405 0.0
C1578 C 0.36075 0.88809 0.86013 0.0
H1579 H 0.37716 0.95178 0.88041 0.0
H1580 H 0.37677 0.93888 0.86322 0.0
H1581 H 0.3577 0.92808 0.87688 0.0
H1582 H 0.36463 0.85974 0.89169 0.0
H1583 H 0.33432 0.83631 0.88068 0.0
H1584 H 0.87393 0.40654 0.90753 0.0
H1585 H 0.85469 0.37262 0.89728 0.0
H1586 H 0.90245 0.37429 0.86215 0.0
H1587 H 0.92297 0.40668 0.87319 0.0
H1588 H 0.83212 0.36614 0.87443 0.0
H1589 H 0.90871 0.30877 0.87152 0.0
H1590 H 0.9112 0.33798 0.8778 0.0
H1591 H 0.91119 0.33219 0.85917 0.0
C1592 C 0.88082 0.39896 0.89794 0.0
C1593 C 0.90077 0.4081 0.89162 0.0
C1594 C 0.86958 0.37989 0.89191 0.0
C1595 C 0.87759 0.37022 0.87915 0.0
C1596 C 0.89655 0.3806 0.87232 0.0
H1597 H 0.83341 0.24759 0.83272 0.0
H1598 H 0.84946 0.28541 0.8389 0.0
C1599 C 0.90818 0.39919 0.87858 0.0
C1600 C 0.8656 0.34978 0.87291 0.0
H1601 H 0.87419 0.2948 0.86065 0.0
C1602 C 0.84136 0.35051 0.87147 0.0
C1603 C 0.87759 0.32947 0.86865 0.0
C1604 C 0.90357 0.32702 0.86948 0.0
C1605 C 0.82882 0.33159 0.86612 0.0
C1606 C 0.84076 0.31105 0.86246 0.0
C1607 C 0.86498 0.31049 0.86355 0.0
C1608 C 0.82872 0.28961 0.85782 0.0
C1609 C 0.80299 0.33403 0.86421 0.0
C1610 C 0.81143 0.27945 0.86626 0.0
C1611 C 0.80191 0.25801 0.86257 0.0
C1612 C 0.80997 0.24607 0.85061 0.0
C1613 C 0.82697 0.25637 0.84205 0.0
C1614 C 0.83613 0.27799 0.84557 0.0
H1615 H 0.79797 0.35244 0.86266 0.0
H1616 H 0.79671 0.32382 0.85503 0.0
H1617 H 0.79408 0.32773 0.87387 0.0
H1618 H 0.80589 0.28767 0.87598 0.0
H1619 H 0.78896 0.25034 0.86942 0.0
H1620 H 0.34771 0.17268 0.62513 0.0
H1621 H 0.38026 0.1505 0.61551 0.0
H1622 H 0.37108 0.09908 0.64819 0.0
H1623 H 0.33898 0.12182 0.65808 0.0
H1624 H 0.41483 0.1101 0.64585 0.0
H1625 H 0.38198 0.09322 0.59205 0.0
H1626 H 0.38204 0.12363 0.59582 0.0
H1627 H 0.36372 0.10451 0.60592 0.0
C1628 C 0.35272 0.15662 0.6302 0.0
C1629 C 0.34147 0.1492 0.64254 0.0
C1630 C 0.37108 0.1438 0.62461 0.0
C1631 C 0.37788 0.12285 0.63094 0.0
C1632 C 0.36611 0.11512 0.64308 0.0
H1633 H 0.49723 0.03313 0.61369 0.0
H1634 H 0.45945 0.04738 0.62167 0.0
C1635 C 0.34795 0.12815 0.64879 0.0
C1636 C 0.39829 0.10995 0.62549 0.0
H1637 H 0.42311 0.0885 0.5954 0.0
C1638 C 0.41653 0.10524 0.63486 0.0
C1639 C 0.40041 0.10325 0.61114 0.0
C1640 C 0.38087 0.10619 0.6007 0.0
C1641 C 0.43725 0.09518 0.6302 0.0
C1642 C 0.43966 0.08922 0.61579 0.0
C1643 C 0.42122 0.09324 0.60644 0.0
C1644 C 0.4616 0.0797 0.61017 0.0
C1645 C 0.45674 0.09179 0.64064 0.0
C1646 C 0.47497 0.0929 0.60077 0.0
C1647 C 0.49652 0.08484 0.5962 0.0
C1648 C 0.50501 0.06334 0.60089 0.0
C1649 C 0.49122 0.04981 0.60995 0.0
C1650 C 0.46968 0.05794 0.61455 0.0
H1651 H 0.45375 0.10146 0.65064 0.0
H1652 H 0.45825 0.07311 0.64325 0.0
H1653 H 0.47348 0.09751 0.63603 0.0
H1654 H 0.46898 0.10974 0.59726 0.0
H1655 H 0.50668 0.09562 0.58917 0.0
H1656 H 0.66411 0.74906 0.33029 0.0
H1657 H 0.64832 0.71167 0.33754 0.0
H1658 H 0.69776 0.70833 0.37168 0.0
H1659 H 0.71424 0.74551 0.36414 0.0
H1660 H 0.69072 0.66578 0.35921 0.0
H1661 H 0.60657 0.70721 0.37165 0.0
H1662 H 0.61509 0.71144 0.35359 0.0
H1663 H 0.63218 0.72382 0.36762 0.0
C1664 C 0.67179 0.74025 0.33925 0.0
C1665 C 0.6902 0.75031 0.34678 0.0
C1666 C 0.66267 0.71895 0.34343 0.0
C1667 C 0.67143 0.70755 0.35539 0.0
C1668 C 0.69062 0.71695 0.36249 0.0
H1669 H 0.62695 0.58735 0.40401 0.0
H1670 H 0.64911 0.61972 0.394 0.0
C1671 C 0.70001 0.73817 0.35818 0.0
C1672 C 0.6598 0.68647 0.36084 0.0
H1673 H 0.60736 0.66615 0.37179 0.0
C1674 C 0.67256 0.66587 0.36214 0.0
C1675 C 0.6361 0.68665 0.36466 0.0
C1676 C 0.62174 0.70852 0.36445 0.0
C1677 C 0.66209 0.64531 0.36692 0.0
C1678 C 0.63833 0.6455 0.37059 0.0
C1679 C 0.62562 0.66606 0.36916 0.0
C1680 C 0.62612 0.6248 0.37615 0.0
C1681 C 0.67642 0.62348 0.36757 0.0
C1682 C 0.60571 0.6171 0.36959 0.0
C1683 C 0.59284 0.59905 0.37548 0.0
C1684 C 0.59992 0.58875 0.38819 0.0
C1685 C 0.6208 0.5957 0.39446 0.0
C1686 C 0.63368 0.61383 0.38859 0.0
H1687 H 0.69172 0.62449 0.36047 0.0
H1688 H 0.68285 0.62104 0.37853 0.0
H1689 H 0.666 0.60805 0.36462 0.0
H1690 H 0.59957 0.62527 0.35998 0.0
H1691 H 0.57706 0.59348 0.3703 0.0
H1692 H 0.16054 0.83036 0.12134 0.0
H1693 H 0.12897 0.85229 0.11032 0.0
H1694 H 0.1316 0.90189 0.14446 0.0
H1695 H 0.16378 0.88037 0.15514 0.0
H1696 H 0.08757 0.85878 0.12115 0.0
H1697 H 0.1267 0.94467 0.11121 0.0
H1698 H 0.14383 0.91952 0.11561 0.0
H1699 H 0.12968 0.93592 0.12931 0.0
C1700 C 0.15441 0.84607 0.12638 0.0
C1701 C 0.1638 0.85332 0.13931 0.0
C1702 C 0.13649 0.8586 0.12009 0.0
C1703 C 0.12799 0.87885 0.1265 0.0
C1704 C 0.13812 0.88662 0.13915 0.0
H1705 H 0.00526 0.96373 0.11568 0.0
H1706 H 0.0431 0.94803 0.12259 0.0
C1707 C 0.15614 0.87409 0.14541 0.0
C1708 C 0.10717 0.89048 0.12065 0.0
H1709 H 0.08531 0.94264 0.11 0.0
C1710 C 0.08709 0.87714 0.11882 0.0
C1711 C 0.10663 0.91438 0.11732 0.0
C1712 C 0.12794 0.9294 0.11832 0.0
C1713 C 0.0662 0.88713 0.11444 0.0
C1714 C 0.06561 0.91101 0.11105 0.0
C1715 C 0.08579 0.92436 0.11261 0.0
C1716 C 0.0441 0.92228 0.10595 0.0
C1717 C 0.04482 0.87207 0.11398 0.0
C1718 C 0.03258 0.91364 0.09399 0.0
C1719 C 0.01088 0.92225 0.09021 0.0
C1720 C 0.00057 0.94011 0.09809 0.0
C1721 C 0.01281 0.94991 0.10945 0.0
C1722 C 0.0344 0.94097 0.1134 0.0
H1723 H 0.04663 0.85663 0.12091 0.0
H1724 H 0.02919 0.88183 0.11733 0.0
H1725 H 0.04211 0.86581 0.10301 0.0
H1726 H 0.04008 0.89972 0.08782 0.0
H1727 H 0.00197 0.91463 0.08126 0.0
H1728 H 0.65848 0.75684 0.83183 0.0
H1729 H 0.64811 0.79474 0.84125 0.0
H1730 H 0.68662 0.78011 0.87932 0.0
H1731 H 0.69772 0.74226 0.86971 0.0
H1732 H 0.6222 0.80054 0.86407 0.0
H1733 H 0.70568 0.84638 0.87183 0.0
H1734 H 0.70322 0.82044 0.86126 0.0
H1735 H 0.70452 0.81853 0.88023 0.0
C1736 C 0.66509 0.76182 0.84211 0.0
C1737 C 0.67882 0.74653 0.85007 0.0
C1738 C 0.65918 0.78352 0.84747 0.0
C1739 C 0.66669 0.79036 0.86095 0.0
C1740 C 0.68104 0.77544 0.86876 0.0
H1741 H 0.58986 0.88917 0.9114 0.0
H1742 H 0.61035 0.85505 0.90248 0.0
C1743 C 0.68726 0.75376 0.8633 0.0
C1744 C 0.65735 0.81195 0.86727 0.0
H1745 H 0.67223 0.86373 0.88228 0.0
C1746 C 0.63319 0.81439 0.86797 0.0
C1747 C 0.67168 0.83006 0.87231 0.0
C1748 C 0.69771 0.82888 0.87127 0.0
C1749 C 0.62292 0.83436 0.87355 0.0
C1750 C 0.6372 0.85217 0.87896 0.0
C1751 C 0.66137 0.84991 0.87822 0.0
C1752 C 0.62708 0.87329 0.88529 0.0
C1753 C 0.59684 0.83635 0.87338 0.0
C1754 C 0.63028 0.89495 0.87882 0.0
C1755 C 0.6188 0.91451 0.88403 0.0
C1756 C 0.60448 0.91268 0.89595 0.0
C1757 C 0.60144 0.89106 0.90246 0.0
C1758 C 0.61292 0.87158 0.89729 0.0
H1759 H 0.58888 0.82421 0.86566 0.0
H1760 H 0.58997 0.83206 0.88402 0.0
H1761 H 0.59132 0.85425 0.8707 0.0
H1762 H 0.64105 0.89655 0.86948 0.0
H1763 H 0.62095 0.931 0.87872 0.0
H1764 H 0.5099 0.44624 0.11569 0.0
H1765 H 0.47316 0.43484 0.12651 0.0
H1766 H 0.46243 0.3846 0.0934 0.0
H1767 H 0.49929 0.39546 0.08266 0.0
H1768 H 0.428 0.43437 0.11673 0.0
H1769 H 0.45814 0.34547 0.12908 0.0
H1770 H 0.47763 0.36813 0.12352 0.0
H1771 H 0.46062 0.35265 0.11068 0.0
C1772 C 0.4997 0.43283 0.11065 0.0
C1773 C 0.50772 0.4216 0.09837 0.0
C1774 C 0.47869 0.42636 0.11685 0.0
C1775 C 0.46532 0.40857 0.11091 0.0
C1776 C 0.47277 0.39799 0.09835 0.0
H1777 H 0.32341 0.36885 0.12779 0.0
H1778 H 0.35861 0.38776 0.11896 0.0
C1779 C 0.49382 0.40432 0.09219 0.0
C1780 C 0.44384 0.40066 0.11799 0.0
H1781 H 0.41793 0.3528 0.13201 0.0
C1782 C 0.4258 0.41657 0.12015 0.0
C1783 C 0.44121 0.37755 0.12269 0.0
C1784 C 0.46051 0.36001 0.12152 0.0
C1785 C 0.40491 0.40981 0.12657 0.0
C1786 C 0.4019 0.38644 0.13068 0.0
C1787 C 0.42017 0.3707 0.12879 0.0
C1788 C 0.37991 0.3776 0.13677 0.0
C1789 C 0.38647 0.42782 0.1291 0.0
C1790 C 0.38021 0.36535 0.1496 0.0
C1791 C 0.36027 0.35426 0.15448 0.0
C1792 C 0.33955 0.3557 0.1468 0.0
C1793 C 0.33909 0.36814 0.13407 0.0
C1794 C 0.35912 0.37907 0.1291 0.0
H1795 H 0.39385 0.4456 0.12926 0.0
H1796 H 0.3735 0.42701 0.12046 0.0
H1797 H 0.37747 0.42464 0.13927 0.0
H1798 H 0.3961 0.36373 0.15562 0.0
H1799 H 0.36125 0.3439 0.16401 0.0
H1800 H 0.87139 0.06607 0.38191 0.0
H1801 H 0.84845 0.0999 0.37462 0.0
H1802 H 0.88241 0.1412 0.40653 0.0
H1803 H 0.90463 0.10727 0.41408 0.0
H1804 H 0.83669 0.15208 0.40441 0.0
H1805 H 0.87797 0.1502 0.35127 0.0
H1806 H 0.86199 0.12458 0.35576 0.0
H1807 H 0.88762 0.13199 0.36557 0.0
C1808 C 0.87356 0.08234 0.38746 0.0
C1809 C 0.88927 0.08415 0.3987 0.0
C1810 C 0.86061 0.10163 0.38327 0.0
C1811 C 0.86396 0.12314 0.38991 0.0
C1812 C 0.87946 0.12476 0.4013 0.0
H1813 H 0.85827 0.2594 0.35848 0.0
H1814 H 0.86635 0.22097 0.36774 0.0
C1815 C 0.89211 0.10543 0.40561 0.0
C1816 C 0.85285 0.14446 0.38442 0.0
H1817 H 0.85184 0.18036 0.35577 0.0
C1818 C 0.83974 0.15818 0.39373 0.0
C1819 C 0.85713 0.15248 0.37052 0.0
C1820 C 0.8721 0.13919 0.36022 0.0
C1821 C 0.8314 0.18004 0.38964 0.0
C1822 C 0.83599 0.18814 0.37582 0.0
C1823 C 0.84832 0.17403 0.36636 0.0
C1824 C 0.83042 0.21205 0.37127 0.0
C1825 C 0.81879 0.19475 0.40035 0.0
C1826 C 0.80746 0.21997 0.37038 0.0
C1827 C 0.80273 0.2422 0.36517 0.0
C1828 C 0.82089 0.25666 0.36061 0.0
C1829 C 0.84383 0.24872 0.3618 0.0
C1830 C 0.84851 0.22671 0.36709 0.0
H1831 H 0.82052 0.18778 0.41125 0.0
H1832 H 0.82544 0.2128 0.4002 0.0
H1833 H 0.8001 0.19527 0.39764 0.0
H1834 H 0.79322 0.20878 0.37334 0.0
H1835 H 0.78487 0.24776 0.36431 0.0
H1836 H 0.18195 0.63276 0.62661 0.0
H1837 H 0.14718 0.61244 0.61822 0.0
H1838 H 0.10899 0.63805 0.6542 0.0
H1839 H 0.1435 0.65894 0.6623 0.0
H1840 H 0.11692 0.57914 0.63033 0.0
H1841 H 0.07337 0.66331 0.62012 0.0
H1842 H 0.1039 0.66117 0.62394 0.0
H1843 H 0.08303 0.65945 0.63801 0.0
C1844 C 0.16618 0.63366 0.6328 0.0
C1845 C 0.1654 0.64678 0.64527 0.0
C1846 C 0.14641 0.62206 0.62805 0.0
C1847 C 0.12551 0.62389 0.63555 0.0
C1848 C 0.12491 0.63659 0.6482 0.0
H1849 H 0.99649 0.55048 0.61796 0.0
H1850 H 0.03361 0.56251 0.62801 0.0
C1851 C 0.14463 0.64825 0.65291 0.0
C1852 C 0.10398 0.61409 0.62954 0.0
H1853 H 0.05106 0.62956 0.61662 0.0
C1854 C 0.10247 0.5901 0.62731 0.0
C1855 C 0.08537 0.62853 0.62545 0.0
C1856 C 0.08648 0.65456 0.62686 0.0
C1857 C 0.0827 0.58013 0.62112 0.0
C1858 C 0.06387 0.59455 0.61733 0.0
C1859 C 0.06547 0.61852 0.61957 0.0
C1860 C 0.04242 0.58546 0.61073 0.0
C1861 C 0.08239 0.55439 0.6184 0.0
C1862 C 0.03493 0.5945 0.59773 0.0
C1863 C 0.0136 0.58795 0.59206 0.0
C1864 C 0.9993 0.57213 0.59926 0.0
C1865 C 0.00715 0.56256 0.61208 0.0
C1866 C 0.02844 0.56931 0.61782 0.0
H1867 H 0.10016 0.547 0.61828 0.0
H1868 H 0.07253 0.54567 0.62695 0.0
H1869 H 0.07386 0.55037 0.60816 0.0
H1870 H 0.04542 0.60702 0.59209 0.0
H1871 H 0.00818 0.5956 0.58214 0.0
H1872 H 0.59823 0.10863 0.58185 0.0
H1873 H 0.61981 0.14362 0.58808 0.0
H1874 H 0.64632 0.1093 0.62526 0.0
H1875 H 0.62577 0.07382 0.6185 0.0
H1876 H 0.61142 0.16811 0.61042 0.0
H1877 H 0.70369 0.14263 0.61275 0.0
H1878 H 0.68202 0.12554 0.60379 0.0
H1879 H 0.68558 0.12327 0.62266 0.0
C1880 C 0.60951 0.10831 0.591 0.0
C1881 C 0.61116 0.08837 0.5994 0.0
C1882 C 0.62163 0.12834 0.59464 0.0
C1883 C 0.63511 0.12901 0.607 0.0
C1884 C 0.63675 0.10901 0.61542 0.0
H1885 H 0.6523 0.24594 0.66069 0.0
H1886 H 0.64284 0.20973 0.64884 0.0
C1887 C 0.62484 0.08884 0.61165 0.0
C1888 C 0.64471 0.15139 0.61204 0.0
H1889 H 0.69321 0.17719 0.6255 0.0
C1890 C 0.6294 0.17013 0.6135 0.0
C1891 C 0.66823 0.15424 0.6159 0.0
C1892 C 0.6859 0.13541 0.61357 0.0
C1893 C 0.63669 0.19126 0.61924 0.0
C1894 C 0.65977 0.19354 0.62406 0.0
C1895 C 0.67541 0.17524 0.62202 0.0
C1896 C 0.66743 0.21445 0.63182 0.0
C1897 C 0.61951 0.21092 0.62016 0.0
C1898 C 0.68525 0.22856 0.62655 0.0
C1899 C 0.69095 0.2493 0.63342 0.0
C1900 C 0.67882 0.25617 0.64563 0.0
C1901 C 0.66172 0.24139 0.65118 0.0
C1902 C 0.65623 0.22069 0.6444 0.0
H1903 H 0.60544 0.20898 0.61223 0.0
H1904 H 0.61143 0.21094 0.63081 0.0
H1905 H 0.62808 0.22793 0.61849 0.0
H1906 H 0.69422 0.22391 0.61689 0.0
H1907 H 0.70424 0.26028 0.62891 0.0
H1908 H 0.14189 0.34741 0.8386 0.0
H1909 H 0.10744 0.36793 0.84686 0.0
H1910 H 0.1459 0.39366 0.88271 0.0
H1911 H 0.18082 0.37408 0.87393 0.0
H1912 H 0.08624 0.35818 0.87072 0.0
H1913 H 0.11043 0.45109 0.87165 0.0
H1914 H 0.12662 0.42964 0.86191 0.0
H1915 H 0.13082 0.43281 0.88065 0.0
C1916 C 0.1432 0.35829 0.8479 0.0
C1917 C 0.16413 0.36001 0.85535 0.0
C1918 C 0.12347 0.36978 0.85271 0.0
C1919 C 0.12414 0.38269 0.86529 0.0
C1920 C 0.14512 0.38444 0.87275 0.0
H1921 H 0.00386 0.40241 0.91836 0.0
H1922 H 0.04146 0.39207 0.90843 0.0
C1923 C 0.16498 0.37312 0.86782 0.0
C1924 C 0.10228 0.39187 0.87135 0.0
H1925 H 0.07611 0.44058 0.88423 0.0
C1926 C 0.084 0.37625 0.87357 0.0
C1927 C 0.09927 0.41546 0.87497 0.0
C1928 C 0.11774 0.4333 0.87206 0.0
C1929 C 0.06293 0.38346 0.87944 0.0
C1930 C 0.06027 0.40682 0.88363 0.0
C1931 C 0.07834 0.4226 0.88119 0.0
C1932 C 0.03869 0.41507 0.89044 0.0
C1933 C 0.0436 0.36599 0.88087 0.0
C1934 C 0.02518 0.4323 0.884 0.0
C1935 C 0.00374 0.4385 0.88976 0.0
C1936 C 0.99544 0.4275 0.90203 0.0
C1937 C 0.00955 0.411 0.90879 0.0
C1938 C 0.03103 0.405 0.9031 0.0
H1939 H 0.04604 0.35105 0.87361 0.0
H1940 H 0.04334 0.3592 0.89184 0.0
H1941 H 0.0265 0.374 0.87862 0.0
H1942 H 0.03087 0.44038 0.87426 0.0
H1943 H 0.99334 0.45131 0.8843 0.0
H1944 H 0.88214 0.92746 0.12215 0.0
H1945 H 0.86229 0.89261 0.13092 0.0
H1946 H 0.8885 0.85377 0.09536 0.0
H1947 H 0.90878 0.88836 0.08685 0.0
H1948 H 0.82916 0.86182 0.11846 0.0
H1949 H 0.91325 0.8191 0.13011 0.0
H1950 H 0.91099 0.84958 0.12615 0.0
H1951 H 0.91002 0.82857 0.11213 0.0
C1952 C 0.88332 0.91149 0.11617 0.0
C1953 C 0.89633 0.91056 0.10366 0.0
C1954 C 0.87199 0.8917 0.12113 0.0
C1955 C 0.87404 0.87064 0.11381 0.0
C1956 C 0.88684 0.86983 0.10121 0.0
H1957 H 0.80167 0.74075 0.13026 0.0
H1958 H 0.81322 0.77832 0.12055 0.0
C1959 C 0.89818 0.88958 0.09628 0.0
C1960 C 0.86417 0.8492 0.11987 0.0
H1961 H 0.87954 0.79647 0.13309 0.0
C1962 C 0.8401 0.8475 0.1217 0.0
C1963 C 0.87859 0.83074 0.12423 0.0
C1964 C 0.90466 0.83208 0.12319 0.0
C1965 C 0.83003 0.82764 0.12773 0.0
C1966 C 0.84445 0.80896 0.13178 0.0
C1967 C 0.86851 0.81078 0.12995 0.0
C1968 C 0.8353 0.7874 0.13821 0.0
C1969 C 0.80418 0.82707 0.12999 0.0
C1970 C 0.84392 0.77997 0.15132 0.0
C1971 C 0.83767 0.75841 0.15677 0.0
C1972 C 0.82255 0.74382 0.14925 0.0
C1973 C 0.81322 0.75164 0.13636 0.0
C1974 C 0.8197 0.77318 0.13083 0.0
H1975 H 0.79661 0.84477 0.12997 0.0
H1976 H 0.79599 0.81712 0.12129 0.0
H1977 H 0.79976 0.81849 0.14014 0.0
H1978 H 0.85599 0.79066 0.15719 0.0
H1979 H 0.84507 0.75301 0.16677 0.0
H1980 H 0.50414 0.55051 0.37964 0.0
H1981 H 0.46665 0.56127 0.36943 0.0
H1982 H 0.45738 0.6125 0.40214 0.0
H1983 H 0.49493 0.60236 0.41218 0.0
H1984 H 0.42203 0.56191 0.37974 0.0
H1985 H 0.45103 0.65071 0.36647 0.0
H1986 H 0.47091 0.62831 0.37189 0.0
H1987 H 0.45456 0.6442 0.38489 0.0
C1988 C 0.49408 0.564 0.38469 0.0
C1989 C 0.50268 0.5758 0.39661 0.0
C1990 C 0.47266 0.57011 0.37885 0.0
C1991 C 0.4595 0.58802 0.38486 0.0
C1992 C 0.46756 0.59905 0.39712 0.0
H1993 H 0.3163 0.62691 0.37243 0.0
H1994 H 0.35221 0.60766 0.37986 0.0
C1995 C 0.48901 0.59317 0.40287 0.0
C1996 C 0.43762 0.59571 0.37816 0.0
H1997 H 0.41043 0.64366 0.36526 0.0
C1998 C 0.4195 0.57973 0.37645 0.0
C1999 C 0.43454 0.61884 0.37361 0.0
C2000 C 0.45388 0.63644 0.37416 0.0
C2001 C 0.39808 0.5865 0.37072 0.0
C2002 C 0.39461 0.60995 0.36692 0.0
C2003 C 0.41299 0.62571 0.36828 0.0
C2004 C 0.3721 0.61888 0.36166 0.0
C2005 C 0.37954 0.56843 0.36862 0.0
C2006 C 0.3714 0.63186 0.34912 0.0
C2007 C 0.35114 0.64322 0.3451 0.0
C2008 C 0.331 0.64125 0.3533 0.0
C2009 C 0.3315 0.62805 0.36574 0.0
C2010 C 0.35192 0.61691 0.3699 0.0
H2011 H 0.38706 0.55076 0.36784 0.0
H2012 H 0.36758 0.56866 0.3778 0.0
H2013 H 0.36936 0.57195 0.35891 0.0
H2014 H 0.38679 0.63389 0.34268 0.0
H2015 H 0.35144 0.65419 0.3358 0.0
H2016 H 0.42591 0.09312 0.1292 0.0
H2017 H 0.40378 0.12598 0.13858 0.0
H2018 H 0.35304 0.11705 0.10549 0.0
H2019 H 0.37486 0.08371 0.09643 0.0
H2020 H 0.39503 0.16579 0.12531 0.0
H2021 H 0.31178 0.12427 0.13963 0.0
H2022 H 0.33757 0.10779 0.13572 0.0
H2023 H 0.32008 0.11921 0.1216 0.0
C2024 C 0.40996 0.0982 0.12402 0.0
C2025 C 0.40239 0.08661 0.11185 0.0
C2026 C 0.39732 0.11686 0.12937 0.0
C2027 C 0.37664 0.12387 0.12282 0.0
C2028 C 0.36869 0.11172 0.1109 0.0
H2029 H 0.28782 0.24478 0.13398 0.0
H2030 H 0.30419 0.20744 0.12661 0.0
C2031 C 0.38134 0.093 0.10556 0.0
C2032 C 0.36445 0.14493 0.12786 0.0
H2033 H 0.31254 0.16555 0.13982 0.0
C2034 C 0.37695 0.16573 0.12833 0.0
C2035 C 0.34091 0.14479 0.13205 0.0
C2036 C 0.32684 0.12278 0.13237 0.0
C2037 C 0.3665 0.18654 0.13245 0.0
C2038 C 0.34308 0.1864 0.13687 0.0
C2039 C 0.33049 0.1656 0.13645 0.0
C2040 C 0.33168 0.2077 0.14218 0.0
C2041 C 0.3806 0.20854 0.1317 0.0
C2042 C 0.34117 0.21974 0.15369 0.0
C2043 C 0.3321 0.2411 0.15776 0.0
C2044 C 0.31302 0.25061 0.1506 0.0
C2045 C 0.30258 0.23788 0.13965 0.0
C2046 C 0.3119 0.21657 0.13544 0.0
H2047 H 0.39521 0.20689 0.12411 0.0
H2048 H 0.36975 0.22351 0.12845 0.0
H2049 H 0.38804 0.21227 0.14227 0.0
H2050 H 0.35601 0.21287 0.1593 0.0
H2051 H 0.34029 0.25037 0.16638 0.0
H2052 H 0.47915 0.59541 0.88982 0.0
H2053 H 0.51674 0.61016 0.88219 0.0
H2054 H 0.55022 0.55082 0.90111 0.0
H2055 H 0.51217 0.53507 0.90757 0.0
H2056 H 0.5503 0.62467 0.89584 0.0
H2057 H 0.58392 0.55013 0.86532 0.0
H2058 H 0.55455 0.55113 0.87169 0.0
H2059 H 0.5778 0.54252 0.8833 0.0
C2060 C 0.49458 0.58542 0.89214 0.0
C2061 C 0.49294 0.56411 0.89915 0.0
C2062 C 0.51607 0.59385 0.88783 0.0
C2063 C 0.5365 0.58151 0.89085 0.0
C2064 C 0.53482 0.56033 0.89816 0.0
H2065 H 0.66215 0.66677 0.88061 0.0
H2066 H 0.63062 0.64489 0.89144 0.0
C2067 C 0.51313 0.55144 0.902 0.0
C2068 C 0.55932 0.59164 0.88684 0.0
H2069 H 0.61052 0.58033 0.87023 0.0
C2070 C 0.56334 0.61504 0.89003 0.0
C2071 C 0.57647 0.57913 0.87934 0.0
C2072 C 0.57289 0.55442 0.87459 0.0
C2073 C 0.58333 0.62662 0.88545 0.0
C2074 C 0.60088 0.61401 0.87823 0.0
C2075 C 0.59724 0.59026 0.8756 0.0
C2076 C 0.62238 0.62516 0.87255 0.0
C2077 C 0.58448 0.6524 0.88807 0.0
C2078 C 0.63047 0.6195 0.85892 0.0
C2079 C 0.64962 0.63089 0.85314 0.0
C2080 C 0.6601 0.64918 0.86043 0.0
C2081 C 0.65334 0.65367 0.87441 0.0
C2082 C 0.63505 0.64137 0.88054 0.0
H2083 H 0.56689 0.66016 0.88865 0.0
H2084 H 0.59303 0.65561 0.8984 0.0
H2085 H 0.59418 0.66157 0.8797 0.0
H2086 H 0.62174 0.60661 0.85253 0.0
H2087 H 0.65596 0.62569 0.84285 0.0
H2088 H 0.16544 0.75249 0.6653 0.0
H2089 H 0.14949 0.79015 0.65878 0.0
H2090 H 0.19899 0.79556 0.62475 0.0
H2091 H 0.21563 0.75804 0.63156 0.0
H2092 H 0.1917 0.83744 0.63835 0.0
H2093 H 0.10797 0.7963 0.62459 0.0
H2094 H 0.11637 0.79084 0.64254 0.0
H2095 H 0.13368 0.77962 0.62825 0.0
C2096 C 0.17308 0.76179 0.6565 0.0
C2097 C 0.19156 0.75223 0.6488 0.0
C2098 C 0.16389 0.78325 0.65276 0.0
C2099 C 0.17264 0.79532 0.64104 0.0
C2100 C 0.19186 0.78639 0.63376 0.0
H2101 H 0.12779 0.91807 0.59535 0.0
H2102 H 0.14997 0.88524 0.60468 0.0
C2103 C 0.20133 0.76499 0.63764 0.0
C2104 C 0.16095 0.81666 0.63607 0.0
H2105 H 0.10843 0.83735 0.62565 0.0
C2106 C 0.17356 0.83742 0.63537 0.0
C2107 C 0.13728 0.81657 0.63221 0.0
C2108 C 0.12309 0.79459 0.63179 0.0
C2109 C 0.16295 0.85823 0.63116 0.0
C2110 C 0.13919 0.85812 0.62746 0.0
C2111 C 0.12666 0.83738 0.62829 0.0
C2112 C 0.12689 0.87906 0.62236 0.0
C2113 C 0.17709 0.8802 0.63113 0.0
C2114 C 0.10637 0.88626 0.62903 0.0
C2115 C 0.09348 0.90463 0.62351 0.0
C2116 C 0.10067 0.91571 0.61108 0.0
C2117 C 0.1216 0.90917 0.6047 0.0
C2118 C 0.13448 0.89075 0.61019 0.0
H2119 H 0.19234 0.87882 0.63825 0.0
H2120 H 0.1836 0.88346 0.62027 0.0
H2121 H 0.16652 0.89532 0.63445 0.0
H2122 H 0.10018 0.87748 0.63842 0.0
H2123 H 0.07762 0.90984 0.62875 0.0
H2124 H 0.97989 0.47014 0.40815 0.0
H2125 H 0.9405 0.45584 0.40335 0.0
H2126 H 0.96937 0.3975 0.38084 0.0
H2127 H 0.00838 0.41075 0.38663 0.0
H2128 H 0.91487 0.44777 0.38183 0.0
H2129 H 0.92972 0.3634 0.4073 0.0
H2130 H 0.95062 0.38648 0.4084 0.0
H2131 H 0.95043 0.36705 0.39342 0.0
C2132 C 0.97763 0.45426 0.4022 0.0
C2133 C 0.99693 0.44127 0.39793 0.0
C2134 C 0.95522 0.4461 0.39946 0.0
C2135 C 0.95192 0.42512 0.39215 0.0
C2136 C 0.97138 0.41311 0.38706 0.0
H2137 H 0.83224 0.37842 0.34656 0.0
H2138 H 0.86364 0.40179 0.35633 0.0
C2139 C 0.99365 0.4208 0.39023 0.0
C2140 C 0.92833 0.41551 0.38984 0.0
H2141 H 0.89836 0.36477 0.39056 0.0
C2142 C 0.91108 0.4297 0.38394 0.0
C2143 C 0.92295 0.39218 0.39308 0.0
C2144 C 0.93937 0.37655 0.40106 0.0
C2145 C 0.8891 0.42086 0.3805 0.0
C2146 C 0.88465 0.39688 0.38232 0.0
C2147 C 0.90158 0.38307 0.38889 0.0
C2148 C 0.86336 0.38518 0.37694 0.0
C2149 C 0.87094 0.43752 0.37521 0.0
C2150 C 0.85254 0.36787 0.38508 0.0
C2151 C 0.83563 0.3536 0.37913 0.0
C2152 C 0.82909 0.35648 0.36497 0.0
C2153 C 0.83806 0.37514 0.35726 0.0
C2154 C 0.85551 0.389 0.36304 0.0
H2155 H 0.87317 0.45485 0.38014 0.0
H2156 H 0.87296 0.4398 0.36362 0.0
H2157 H 0.85313 0.43132 0.3775 0.0
H2158 H 0.8578 0.36476 0.39591 0.0
H2159 H 0.82822 0.33982 0.38546 0.0
H2160 H 0.34014 0.73296 0.36176 0.0
H2161 H 0.35514 0.77087 0.36857 0.0
H2162 H 0.29341 0.80326 0.35193 0.0
H2163 H 0.27758 0.7649 0.34626 0.0
H2164 H 0.36741 0.80422 0.35363 0.0
H2165 H 0.29674 0.83776 0.3875 0.0
H2166 H 0.2973 0.80824 0.38137 0.0
H2167 H 0.28706 0.83108 0.36997 0.0
C2168 C 0.32967 0.74821 0.35979 0.0
C2169 C 0.30772 0.74619 0.35362 0.0
C2170 C 0.33824 0.76988 0.36363 0.0
C2171 C 0.32534 0.79008 0.36096 0.0
C2172 C 0.30342 0.78802 0.35458 0.0
H2173 H 0.412 0.91547 0.36776 0.0
H2174 H 0.38821 0.88485 0.35745 0.0
C2175 C 0.29446 0.76615 0.35121 0.0
C2176 C 0.33568 0.81308 0.36427 0.0
H2177 H 0.32626 0.8643 0.38127 0.0
C2178 C 0.35852 0.81724 0.35988 0.0
C2179 C 0.32405 0.83022 0.37228 0.0
C2180 C 0.30003 0.82653 0.37816 0.0
C2181 C 0.37054 0.83731 0.36383 0.0
C2182 C 0.35886 0.85477 0.37169 0.0
C2183 C 0.33552 0.85106 0.37543 0.0
C2184 C 0.37073 0.87608 0.37706 0.0
C2185 C 0.39586 0.83862 0.35986 0.0
C2186 C 0.36681 0.88373 0.39101 0.0
C2187 C 0.37923 0.9024 0.39655 0.0
C2188 C 0.39687 0.91279 0.38865 0.0
C2189 C 0.39948 0.90664 0.37438 0.0
C2190 C 0.38609 0.88887 0.36854 0.0
H2191 H 0.40357 0.82109 0.3587 0.0
H2192 H 0.39757 0.84748 0.3495 0.0
H2193 H 0.40615 0.84812 0.36781 0.0
H2194 H 0.3546 0.87493 0.39784 0.0
H2195 H 0.37543 0.90837 0.40715 0.0
H2196 H 0.00565 0.58868 0.08396 0.0
H2197 H 0.96809 0.60402 0.09123 0.0
H2198 H 0.96341 0.55183 0.12375 0.0
H2199 H 0.00078 0.53583 0.11617 0.0
H2200 H 0.92162 0.55939 0.11078 0.0
H2201 H 0.96111 0.64308 0.12626 0.0
H2202 H 0.96641 0.63607 0.10807 0.0
H2203 H 0.97831 0.61805 0.12182 0.0
C2204 C 0.99656 0.58036 0.0926 0.0
C2205 C 0.00625 0.56124 0.09963 0.0
C2206 C 0.97515 0.58922 0.09679 0.0
C2207 C 0.96327 0.57948 0.10829 0.0
C2208 C 0.97241 0.55974 0.11493 0.0
H2209 H 0.83923 0.61931 0.1549 0.0
H2210 H 0.87295 0.59849 0.14549 0.0
C2211 C 0.99373 0.55062 0.1106 0.0
C2212 C 0.94176 0.59044 0.11362 0.0
H2213 H 0.92002 0.64188 0.12527 0.0
C2214 C 0.92128 0.57735 0.11415 0.0
C2215 C 0.94138 0.61387 0.11802 0.0
C2216 C 0.96303 0.62852 0.11866 0.0
C2217 C 0.90029 0.58724 0.11868 0.0
C2218 C 0.89991 0.61076 0.12289 0.0
C2219 C 0.92037 0.6238 0.12226 0.0
C2220 C 0.87867 0.62235 0.12815 0.0
C2221 C 0.87864 0.57261 0.1185 0.0
C2222 C 0.87092 0.64285 0.12169 0.0
C2223 C 0.85204 0.65493 0.12724 0.0
C2224 C 0.84096 0.64698 0.1395 0.0
C2225 C 0.84811 0.6261 0.14569 0.0
C2226 C 0.86704 0.614 0.14017 0.0
H2227 H 0.88037 0.55764 0.11118 0.0
H2228 H 0.87547 0.56568 0.12927 0.0
H2229 H 0.86332 0.58298 0.11529 0.0
H2230 H 0.87962 0.6496 0.11242 0.0
H2231 H 0.84637 0.67074 0.12213 0.0
H2232 H 0.15515 0.26782 0.86342 0.0
H2233 H 0.14067 0.22978 0.87038 0.0
H2234 H 0.20119 0.19775 0.85192 0.0
H2235 H 0.21658 0.23621 0.84607 0.0
H2236 H 0.12738 0.19685 0.85545 0.0
H2237 H 0.20012 0.16233 0.88721 0.0
H2238 H 0.19922 0.19202 0.88139 0.0
H2239 H 0.20873 0.16947 0.86954 0.0
C2240 C 0.16549 0.25262 0.86108 0.0
C2241 C 0.18697 0.25477 0.85433 0.0
C2242 C 0.15721 0.23088 0.86501 0.0
C2243 C 0.16992 0.21073 0.86186 0.0
C2244 C 0.19138 0.21293 0.85493 0.0
H2245 H 0.08421 0.08483 0.86851 0.0
H2246 H 0.10724 0.11615 0.85836 0.0
C2247 C 0.20008 0.23486 0.85146 0.0
C2248 C 0.15977 0.18766 0.8652 0.0
H2249 H 0.1703 0.13587 0.8813 0.0
C2250 C 0.13667 0.18363 0.86132 0.0
C2251 C 0.1719 0.17028 0.87271 0.0
C2252 C 0.19628 0.17381 0.87807 0.0
C2253 C 0.12494 0.16339 0.86526 0.0
C2254 C 0.13714 0.14565 0.87258 0.0
C2255 C 0.16066 0.14931 0.87586 0.0
C2256 C 0.12568 0.12402 0.87778 0.0
C2257 C 0.09939 0.16218 0.8619 0.0
C2258 C 0.13035 0.11569 0.8915 0.0
C2259 C 0.11833 0.09665 0.89691 0.0
C2260 C 0.10038 0.08653 0.88914 0.0
C2261 C 0.097 0.09341 0.87506 0.0
C2262 C 0.10996 0.11157 0.86932 0.0
H2263 H 0.09157 0.17974 0.86126 0.0
H2264 H 0.09703 0.15386 0.85142 0.0
H2265 H 0.08966 0.15224 0.8699 0.0
H2266 H 0.14287 0.12422 0.89825 0.0
H2267 H 0.12271 0.09016 0.90731 0.0
H2268 H 0.48573 0.40873 0.61101 0.0
H2269 H 0.5239 0.39506 0.61822 0.0
H2270 H 0.55471 0.45764 0.60166 0.0
H2271 H 0.516 0.47213 0.59548 0.0
H2272 H 0.55771 0.38397 0.60297 0.0
H2273 H 0.58878 0.45485 0.63762 0.0
H2274 H 0.55934 0.4535 0.63137 0.0
H2275 H 0.58199 0.46441 0.62007 0.0
C2276 C 0.50066 0.41969 0.60913 0.0
C2277 C 0.49808 0.44145 0.60278 0.0
C2278 C 0.52248 0.41188 0.61321 0.0
C2279 C 0.54232 0.42536 0.61063 0.0
C2280 C 0.53972 0.44718 0.60418 0.0
H2281 H 0.66853 0.34043 0.6189 0.0
H2282 H 0.63859 0.36445 0.60808 0.0
C2283 C 0.51766 0.45537 0.60054 0.0
C2284 C 0.56551 0.41559 0.61402 0.0
H2285 H 0.61582 0.42558 0.6319 0.0
C2286 C 0.57031 0.39297 0.60948 0.0
C2287 C 0.58212 0.4274 0.62233 0.0
C2288 C 0.57774 0.45129 0.62824 0.0
C2289 C 0.59043 0.38123 0.61363 0.0
C2290 C 0.60729 0.39303 0.62191 0.0
C2291 C 0.60301 0.41623 0.62576 0.0
C2292 C 0.62844 0.38133 0.62763 0.0
C2293 C 0.59239 0.35605 0.60945 0.0
C2294 C 0.63516 0.38493 0.64179 0.0
C2295 C 0.65348 0.37238 0.64767 0.0
C2296 C 0.66439 0.35495 0.63986 0.0
C2297 C 0.65925 0.35276 0.62542 0.0
C2298 C 0.64187 0.36628 0.61928 0.0
H2299 H 0.57507 0.34808 0.60783 0.0
H2300 H 0.60187 0.35477 0.59927 0.0
H2301 H 0.60159 0.3457 0.6175 0.0
H2302 H 0.62587 0.39694 0.64851 0.0
H2303 H 0.65872 0.37591 0.65844 0.0
H2304 H 0.29059 0.32715 0.21662 0.0
H2305 H 0.28251 0.30494 0.23803 0.0
H2306 H 0.25087 0.25119 0.21292 0.0
H2307 H 0.25939 0.27297 0.1914 0.0
H2308 H 0.2423 0.2907 0.24935 0.0
H2309 H 0.29601 0.21408 0.23631 0.0
H2310 H 0.29778 0.24081 0.22648 0.0
H2311 H 0.27493 0.2204 0.22293 0.0
C2312 C 0.28185 0.31063 0.21562 0.0
C2313 C 0.27575 0.30181 0.20225 0.0
C2314 C 0.27732 0.29792 0.22789 0.0
C2315 C 0.26658 0.27615 0.22706 0.0
C2316 C 0.25981 0.26762 0.21379 0.0
H2317 H 0.19978 0.18704 0.2864 0.0
H2318 H 0.21588 0.20632 0.26559 0.0
C2319 C 0.2645 0.28022 0.20149 0.0
C2320 C 0.26185 0.26273 0.24013 0.0
H2321 H 0.26971 0.20988 0.25575 0.0
C2322 C 0.24854 0.27314 0.25081 0.0
C2323 C 0.27012 0.23983 0.24206 0.0
C2324 C 0.2857 0.2282 0.2314 0.0
C2325 C 0.24264 0.26101 0.26315 0.0
C2326 C 0.25026 0.23794 0.26484 0.0
C2327 C 0.26391 0.22761 0.25434 0.0
C2328 C 0.24291 0.224 0.27713 0.0
C2329 C 0.22774 0.27264 0.27417 0.0
C2330 C 0.25333 0.22708 0.2904 0.0
C2331 C 0.24428 0.21596 0.30234 0.0
C2332 C 0.22451 0.20183 0.30116 0.0
C2333 C 0.2149 0.19795 0.28769 0.0
C2334 C 0.22408 0.20888 0.27578 0.0
H2335 H 0.22211 0.29023 0.27088 0.0
H2336 H 0.21215 0.26194 0.27633 0.0
H2337 H 0.23759 0.27413 0.28422 0.0
H2338 H 0.26792 0.23873 0.29158 0.0
H2339 H 0.25203 0.21938 0.31256 0.0
H2340 H 0.06612 0.94925 0.53861 0.0
H2341 H 0.04871 0.9628 0.51661 0.0
H2342 H 0.01282 0.01661 0.53947 0.0
H2343 H 0.03073 0.00349 0.56154 0.0
H2344 H 0.00314 0.9618 0.51157 0.0
H2345 H 0.0351 0.05178 0.50515 0.0
H2346 H 0.04815 0.03157 0.51735 0.0
H2347 H 0.02194 0.04658 0.52205 0.0
C2348 C 0.05489 0.96428 0.53892 0.0
C2349 C 0.04971 0.97525 0.55182 0.0
C2350 C 0.04495 0.97199 0.52634 0.0
C2351 C 0.02954 0.99077 0.52636 0.0
C2352 C 0.02503 0.00238 0.53913 0.0
H2353 H 0.92357 0.0324 0.46723 0.0
H2354 H 0.94694 0.02339 0.48806 0.0
C2355 C 0.03522 0.99482 0.55175 0.0
C2356 C 0.01654 0.99655 0.5133 0.0
H2357 H 0.00341 0.04042 0.49039 0.0
C2358 C 0.00339 0.97895 0.50689 0.0
C2359 C 0.01685 0.01894 0.5072 0.0
C2360 C 0.03144 0.03825 0.51321 0.0
C2361 C 0.9903 0.98322 0.49468 0.0
C2362 C 0.9903 0.00564 0.48878 0.0
C2363 C 0.00348 0.02325 0.49506 0.0
C2364 C 0.97637 0.01104 0.47613 0.0
C2365 C 0.9763 0.9639 0.48819 0.0
C2366 C 0.98526 0.00686 0.46258 0.0
C2367 C 0.97197 0.01194 0.45061 0.0
C2368 C 0.94953 0.02123 0.45202 0.0
C2369 C 0.94069 0.02515 0.4657 0.0
C2370 C 0.95403 0.02015 0.47764 0.0
H2371 H 0.97771 0.9475 0.49427 0.0
H2372 H 0.95779 0.96903 0.48762 0.0
H2373 H 0.98232 0.96074 0.4772 0.0
H2374 H 0.00249 0.99974 0.46128 0.0
H2375 H 0.97937 0.00872 0.44027 0.0
H2376 H 0.22678 0.73518 0.69043 0.0
H2377 H 0.23737 0.75616 0.71185 0.0
H2378 H 0.25106 0.69144 0.73309 0.0
H2379 H 0.23948 0.67022 0.71181 0.0
H2380 H 0.22755 0.71942 0.74978 0.0
H2381 H 0.30054 0.7689 0.72678 0.0
H2382 H 0.27397 0.77395 0.71748 0.0
H2383 H 0.28668 0.74545 0.71747 0.0
C2384 C 0.23229 0.72538 0.6996 0.0
C2385 C 0.23252 0.70101 0.69937 0.0
C2386 C 0.23844 0.73743 0.71184 0.0
C2387 C 0.24552 0.72543 0.724 0.0
C2388 C 0.24576 0.70109 0.72381 0.0
H2389 H 0.32007 0.78428 0.794 0.0
H2390 H 0.30693 0.76524 0.77253 0.0
C2391 C 0.23921 0.68898 0.71163 0.0
C2392 C 0.25209 0.73823 0.73703 0.0
H2393 H 0.28763 0.78079 0.74954 0.0
C2394 C 0.24078 0.73277 0.74975 0.0
C2395 C 0.2695 0.7555 0.73702 0.0
C2396 C 0.28353 0.76113 0.72399 0.0
C2397 C 0.2464 0.74404 0.76246 0.0
C2398 C 0.26327 0.76185 0.76235 0.0
C2399 C 0.2745 0.76735 0.74961 0.0
C2400 C 0.27077 0.77393 0.77545 0.0
C2401 C 0.23477 0.73616 0.77592 0.0
C2402 C 0.25487 0.7855 0.78422 0.0
C2403 C 0.26232 0.79619 0.79673 0.0
C2404 C 0.28589 0.79595 0.80049 0.0
C2405 C 0.3018 0.78495 0.79143 0.0
C2406 C 0.29431 0.774 0.77912 0.0
H2407 H 0.22738 0.71847 0.77484 0.0
H2408 H 0.2471 0.73616 0.78493 0.0
H2409 H 0.22033 0.74814 0.77847 0.0
H2410 H 0.2367 0.78627 0.78142 0.0
H2411 H 0.24966 0.80468 0.80341 0.0
H2412 H 0.43835 0.04883 0.04004 0.0
H2413 H 0.45588 0.03353 0.01851 0.0
H2414 H 0.49082 0.98096 0.04292 0.0
H2415 H 0.47278 0.99583 0.06454 0.0
H2416 H 0.50146 0.03333 0.01345 0.0
H2417 H 0.46792 0.94348 0.0097 0.0
H2418 H 0.45527 0.96484 0.0213 0.0
H2419 H 0.48132 0.94991 0.02637 0.0
C2420 C 0.44942 0.03373 0.04081 0.0
C2421 C 0.45425 0.02358 0.05401 0.0
C2422 C 0.45944 0.02501 0.02849 0.0
C2423 C 0.47458 0.00603 0.02907 0.0
C2424 C 0.47882 0.99532 0.04216 0.0
H2425 H 0.57502 0.95572 0.96779 0.0
H2426 H 0.55366 0.96525 0.98939 0.0
C2427 C 0.46856 0.00389 0.05452 0.0
C2428 C 0.48744 0.99901 0.01618 0.0
H2429 H 0.49894 0.95345 0.99417 0.0
C2430 C 0.50077 0.01589 0.00921 0.0
C2431 C 0.48661 0.97622 0.01067 0.0
C2432 C 0.47184 0.95761 0.01731 0.0
C2433 C 0.51333 0.01059 0.99694 0.0
C2434 C 0.51259 0.98785 0.99152 0.0
C2435 C 0.49945 0.97087 0.99846 0.0
C2436 C 0.52516 0.98163 0.97847 0.0
C2437 C 0.52745 0.02925 0.98984 0.0
C2438 C 0.51608 0.98773 0.96524 0.0
C2439 C 0.52816 0.98231 0.95287 0.0
C2440 C 0.54964 0.97079 0.95353 0.0
C2441 C 0.55864 0.96473 0.96687 0.0
C2442 C 0.54643 0.97003 0.97923 0.0
H2443 H 0.52809 0.04545 0.99617 0.0
H2444 H 0.54542 0.02305 0.98802 0.0
H2445 H 0.51979 0.03327 0.97935 0.0
H2446 H 0.49965 0.99672 0.9645 0.0
H2447 H 0.52068 0.98723 0.9428 0.0
H2448 H 0.25898 0.67145 0.28701 0.0
H2449 H 0.25059 0.69438 0.26588 0.0
H2450 H 0.26902 0.75681 0.28831 0.0
H2451 H 0.2764 0.73416 0.30962 0.0
H2452 H 0.23214 0.76429 0.27376 0.0
H2453 H 0.29509 0.72147 0.23838 0.0
H2454 H 0.27507 0.70087 0.24554 0.0
H2455 H 0.29451 0.71617 0.25717 0.0
C2456 C 0.26118 0.69007 0.28744 0.0
C2457 C 0.26833 0.70098 0.29999 0.0
C2458 C 0.25664 0.70315 0.2753 0.0
C2459 C 0.25978 0.72729 0.27536 0.0
C2460 C 0.26662 0.73821 0.28795 0.0
H2461 H 0.2536 0.80401 0.19495 0.0
H2462 H 0.26798 0.78734 0.21717 0.0
C2463 C 0.27075 0.72522 0.30015 0.0
C2464 C 0.25505 0.74128 0.26249 0.0
H2465 H 0.26568 0.74439 0.22701 0.0
C2466 C 0.23972 0.76008 0.26358 0.0
C2467 C 0.26537 0.73626 0.24925 0.0
C2468 C 0.28363 0.71776 0.24754 0.0
C2469 C 0.23365 0.77332 0.25171 0.0
C2470 C 0.24247 0.76707 0.23827 0.0
C2471 C 0.25862 0.74896 0.23727 0.0
C2472 C 0.23401 0.77808 0.22506 0.0
C2473 C 0.2179 0.79391 0.25376 0.0
C2474 C 0.21024 0.77818 0.22205 0.0
C2475 C 0.202 0.78789 0.20954 0.0
C2476 C 0.21739 0.79733 0.19954 0.0
C2477 C 0.24129 0.79696 0.20245 0.0
C2478 C 0.24952 0.78744 0.21512 0.0
H2479 H 0.21978 0.80129 0.26455 0.0
H2480 H 0.22153 0.80777 0.24592 0.0
H2481 H 0.19963 0.7883 0.25254 0.0
H2482 H 0.19798 0.77037 0.2293 0.0
H2483 H 0.18352 0.78751 0.2076 0.0
H2484 H 0.44695 0.00336 0.44335 0.0
H2485 H 0.46391 0.01811 0.4654 0.0
H2486 H 0.48565 0.94891 0.47641 0.0
H2487 H 0.46818 0.93405 0.4549 0.0
H2488 H 0.46762 0.96972 0.49856 0.0
H2489 H 0.53151 0.02848 0.47319 0.0
H2490 H 0.50189 0.03467 0.46884 0.0
H2491 H 0.51473 0.00781 0.46322 0.0
C2492 C 0.45533 0.99134 0.45051 0.0
C2493 C 0.45621 0.96754 0.44735 0.0
C2494 C 0.46514 0.9998 0.46305 0.0
C2495 C 0.47639 0.98466 0.47246 0.0
C2496 C 0.47706 0.96093 0.46934 0.0
H2497 H 0.58045 0.0127 0.53514 0.0
H2498 H 0.5577 0.0024 0.51426 0.0
C2499 C 0.46703 0.95246 0.45699 0.0
C2500 C 0.48757 0.99308 0.48563 0.0
H2501 H 0.5306 0.02809 0.49813 0.0
C2502 C 0.48134 0.98256 0.49848 0.0
C2503 C 0.50565 0.00963 0.48548 0.0
C2504 C 0.51403 0.02067 0.47194 0.0
C2505 C 0.49306 0.98762 0.5111 0.0
C2506 C 0.51097 0.00436 0.51099 0.0
C2507 C 0.51683 0.01531 0.4982 0.0
C2508 C 0.52452 0.01012 0.52386 0.0
C2509 C 0.48677 0.97419 0.52425 0.0
C2510 C 0.51347 0.01785 0.53621 0.0
C2511 C 0.52641 0.02327 0.54825 0.0
C2512 C 0.55071 0.0216 0.54806 0.0
C2513 C 0.56176 0.0141 0.53563 0.0
C2514 C 0.54878 0.0083 0.52368 0.0
H2515 H 0.47782 0.95769 0.52165 0.0
H2516 H 0.50236 0.97011 0.53065 0.0
H2517 H 0.4748 0.98471 0.53081 0.0
H2518 H 0.49485 0.02004 0.53649 0.0
H2519 H 0.5174 0.02941 0.55758 0.0
H2520 H 0.21535 0.26742 0.8091 0.0
H2521 H 0.22415 0.24536 0.78773 0.0
H2522 H 0.24152 0.30868 0.76593 0.0
H2523 H 0.23175 0.33098 0.78711 0.0
H2524 H 0.2168 0.28111 0.7493 0.0
H2525 H 0.28734 0.22963 0.77372 0.0
H2526 H 0.26011 0.22614 0.78257 0.0
H2527 H 0.27421 0.25397 0.78255 0.0
C2528 C 0.22119 0.27665 0.79978 0.0
C2529 C 0.22312 0.30094 0.79984 0.0
C2530 C 0.22629 0.26399 0.78758 0.0
C2531 C 0.234 0.27529 0.77531 0.0
C2532 C 0.23569 0.29957 0.77529 0.0
H2533 H 0.31394 0.21996 0.7078 0.0
H2534 H 0.29761 0.23777 0.72878 0.0
C2535 C 0.23019 0.31229 0.78742 0.0
C2536 C 0.24039 0.26189 0.76248 0.0
H2537 H 0.27627 0.2192 0.75052 0.0
C2538 C 0.22981 0.26757 0.74955 0.0
C2539 C 0.25747 0.24431 0.76281 0.0
C2540 C 0.27061 0.23829 0.77612 0.0
C2541 C 0.23616 0.25647 0.7369 0.0
C2542 C 0.25305 0.23871 0.73727 0.0
C2543 C 0.26319 0.23268 0.75026 0.0
C2544 C 0.26227 0.22771 0.72424 0.0
C2545 C 0.22544 0.26459 0.72321 0.0
C2546 C 0.24785 0.21598 0.71463 0.0
C2547 C 0.25717 0.20594 0.70237 0.0
C2548 C 0.28113 0.20708 0.69972 0.0
C2549 C 0.29545 0.21854 0.70951 0.0
C2550 C 0.28613 0.22879 0.72156 0.0
H2551 H 0.21715 0.28186 0.72435 0.0
H2552 H 0.23862 0.2656 0.71468 0.0
H2553 H 0.21189 0.25209 0.71991 0.0
H2554 H 0.22945 0.21445 0.71663 0.0
H2555 H 0.24572 0.1971 0.69508 0.0
H2556 H 0.0344 0.99478 0.93825 0.0
H2557 H 0.01427 0.98036 0.95936 0.0
H2558 H 0.02917 0.04432 0.98105 0.0
H2559 H 0.04921 0.05886 0.9602 0.0
H2560 H 0.02951 0.97642 0.98915 0.0
H2561 H 0.9569 0.03812 0.98112 0.0
H2562 H 0.97729 0.03095 0.9673 0.0
H2563 H 0.98519 0.05111 0.98095 0.0
C2564 C 0.03367 0.00564 0.94758 0.0
C2565 C 0.04316 0.02811 0.94744 0.0
C2566 C 0.02213 0.9974 0.9596 0.0
C2567 C 0.01988 0.0115 0.97161 0.0
C2568 C 0.03036 0.03337 0.97177 0.0
H2569 H 0.97808 0.98585 0.05753 0.0
H2570 H 0.99832 0.99482 0.03554 0.0
C2571 C 0.04186 0.04161 0.95982 0.0
C2572 C 0.0059 0.00394 0.98388 0.0
H2573 H 0.95807 0.01841 0.00318 0.0
C2574 C 0.01379 0.98544 0.99218 0.0
C2575 C 0.98525 0.01559 0.98767 0.0
C2576 C 0.97547 0.03492 0.97874 0.0
C2577 C 0.00195 0.97879 0.00451 0.0
C2578 C 0.9819 0.99117 0.00865 0.0
C2579 C 0.97358 0.00912 6e-05 0.0
C2580 C 0.96946 0.986 0.02198 0.0
C2581 C 0.01095 0.95856 0.01298 0.0
C2582 C 0.94625 0.97884 0.02166 0.0
C2583 C 0.93451 0.97384 0.03423 0.0
C2584 C 0.94575 0.97608 0.04738 0.0
C2585 C 0.96886 0.98386 0.04763 0.0
C2586 C 0.98056 0.9888 0.03506 0.0
H2587 H 0.02249 0.9473 0.00656 0.0
H2588 H 0.02109 0.96516 0.0221 0.0
H2589 H 0.99647 0.94791 0.01717 0.0
H2590 H 0.93732 0.97679 0.01166 0.0
H2591 H 0.91675 0.9679 0.0336 0.0
H2592 H 0.77888 0.82958 0.71656 0.0
H2593 H 0.76946 0.80718 0.73769 0.0
H2594 H 0.75516 0.74733 0.71186 0.0
H2595 H 0.76475 0.76945 0.69062 0.0
H2596 H 0.72802 0.78506 0.74443 0.0
H2597 H 0.8008 0.72237 0.74165 0.0
H2598 H 0.80034 0.74893 0.73156 0.0
H2599 H 0.78382 0.72432 0.72577 0.0
C2600 C 0.77371 0.81166 0.71532 0.0
C2601 C 0.77262 0.80135 0.70184 0.0
C2602 C 0.76838 0.79888 0.72744 0.0
C2603 C 0.76202 0.7755 0.72636 0.0
C2604 C 0.76053 0.76522 0.71295 0.0
H2605 H 0.68896 0.69353 0.78779 0.0
H2606 H 0.70341 0.71268 0.76658 0.0
C2607 C 0.76582 0.77799 0.7008 0.0
C2608 C 0.75619 0.76215 0.73926 0.0
H2609 H 0.7714 0.71459 0.75868 0.0
C2610 C 0.73756 0.76971 0.74758 0.0
C2611 C 0.76886 0.7423 0.74342 0.0
C2612 C 0.78972 0.73406 0.73522 0.0
C2613 C 0.7309 0.75765 0.75979 0.0
C2614 C 0.74303 0.73733 0.76367 0.0
C2615 C 0.76202 0.73005 0.75557 0.0
C2616 C 0.73579 0.72337 0.77602 0.0
C2617 C 0.71097 0.76678 0.76849 0.0
C2618 C 0.74973 0.72216 0.78816 0.0
C2619 C 0.74154 0.71114 0.80038 0.0
C2620 C 0.71929 0.70117 0.80059 0.0
C2621 C 0.70603 0.7013 0.78809 0.0
C2622 C 0.71423 0.71226 0.77594 0.0
H2623 H 0.70708 0.78518 0.76599 0.0
H2624 H 0.69524 0.75639 0.76621 0.0
H2625 H 0.71475 0.7653 0.77997 0.0
H2626 H 0.76651 0.73054 0.78836 0.0
H2627 H 0.75221 0.71132 0.80979 0.0
H2628 H 0.72968 0.23067 0.19569 0.0
H2629 H 0.74089 0.25029 0.21748 0.0
H2630 H 0.74779 0.18429 0.23845 0.0
H2631 H 0.73565 0.16451 0.21679 0.0
H2632 H 0.72572 0.2139 0.25485 0.0
H2633 H 0.80406 0.25721 0.23392 0.0
H2634 H 0.77868 0.26465 0.224 0.0
H2635 H 0.78885 0.23515 0.22414 0.0
C2636 C 0.73381 0.22028 0.20489 0.0
C2637 C 0.73198 0.19599 0.20447 0.0
C2638 C 0.74033 0.23155 0.21734 0.0
C2639 C 0.74569 0.21877 0.22954 0.0
C2640 C 0.74386 0.19451 0.22915 0.0
H2641 H 0.81866 0.27475 0.30165 0.0
H2642 H 0.80647 0.25474 0.28023 0.0
C2643 C 0.73697 0.18323 0.21676 0.0
C2644 C 0.75254 0.23074 0.2428 0.0
H2645 H 0.79043 0.27033 0.25633 0.0
C2646 C 0.73998 0.22613 0.25521 0.0
C2647 C 0.77132 0.24648 0.2433 0.0
C2648 C 0.78665 0.25099 0.23066 0.0
C2649 C 0.74554 0.23695 0.26807 0.0
C2650 C 0.76369 0.25344 0.26843 0.0
C2651 C 0.77633 0.25791 0.25603 0.0
C2652 C 0.77063 0.26554 0.28164 0.0
C2653 C 0.73232 0.23008 0.28119 0.0
C2654 C 0.75459 0.27848 0.28956 0.0
C2655 C 0.76146 0.28969 0.302 0.0
C2656 C 0.78463 0.28862 0.30655 0.0
C2657 C 0.80071 0.27605 0.29842 0.0
C2658 C 0.79376 0.26456 0.28616 0.0
H2659 H 0.7241 0.21278 0.27998 0.0
H2660 H 0.74379 0.22967 0.29061 0.0
H2661 H 0.71832 0.24286 0.28312 0.0
H2662 H 0.7368 0.28006 0.28608 0.0
H2663 H 0.74873 0.29943 0.30795 0.0
H2664 H 0.77238 0.23169 0.80982 0.0
H2665 H 0.76306 0.2538 0.78857 0.0
H2666 H 0.7471 0.19039 0.76647 0.0
H2667 H 0.75731 0.16806 0.78754 0.0
H2668 H 0.77301 0.21777 0.75053 0.0
H2669 H 0.70094 0.26962 0.77284 0.0
H2670 H 0.72747 0.27316 0.78245 0.0
H2671 H 0.71338 0.24533 0.7821 0.0
C2672 C 0.76658 0.22245 0.8005 0.0
C2673 C 0.76538 0.19811 0.8004 0.0
C2674 C 0.7612 0.23514 0.78836 0.0
C2675 C 0.75398 0.22381 0.77599 0.0
C2676 C 0.75258 0.19952 0.77591 0.0
H2677 H 0.68132 0.28103 0.70561 0.0
H2678 H 0.6948 0.26281 0.72723 0.0
C2679 C 0.75832 0.18678 0.78797 0.0
C2680 C 0.7485 0.23714 0.76299 0.0
H2681 H 0.71415 0.28029 0.75002 0.0
C2682 C 0.7601 0.23142 0.7504 0.0
C2683 C 0.73158 0.25487 0.76282 0.0
C2684 C 0.71746 0.26097 0.77574 0.0
C2685 C 0.755 0.24266 0.7376 0.0
C2686 C 0.73836 0.26066 0.7375 0.0
C2687 C 0.72707 0.26665 0.75014 0.0
C2688 C 0.73078 0.27213 0.72423 0.0
C2689 C 0.76683 0.23451 0.72427 0.0
C2690 C 0.74651 0.28365 0.71531 0.0
C2691 C 0.73886 0.2939 0.70271 0.0
C2692 C 0.71527 0.29319 0.699 0.0
C2693 C 0.69959 0.28206 0.70814 0.0
C2694 C 0.70727 0.2716 0.72055 0.0
H2695 H 0.77452 0.21699 0.72557 0.0
H2696 H 0.7545 0.23399 0.71526 0.0
H2697 H 0.78103 0.24667 0.72156 0.0
H2698 H 0.76466 0.28478 0.71811 0.0
H2699 H 0.75133 0.30251 0.69596 0.0
H2700 H 0.74682 0.77415 0.30698 0.0
H2701 H 0.75667 0.75232 0.28567 0.0
H2702 H 0.7239 0.80459 0.25996 0.0
H2703 H 0.71458 0.82687 0.28111 0.0
H2704 H 0.72801 0.73332 0.26632 0.0
H2705 H 0.78505 0.79759 0.24009 0.0
H2706 H 0.7762 0.80038 0.25831 0.0
H2707 H 0.75697 0.80898 0.24428 0.0
C2708 C 0.74197 0.78119 0.29679 0.0
C2709 C 0.73004 0.80238 0.29578 0.0
C2710 C 0.74755 0.76863 0.28461 0.0
C2711 C 0.74128 0.77695 0.2712 0.0
C2712 C 0.72942 0.7981 0.27015 0.0
H2713 H 0.75014 0.71644 0.18683 0.0
H2714 H 0.7359 0.7362 0.2081 0.0
C2715 C 0.72404 0.81079 0.2823 0.0
C2716 C 0.74643 0.76309 0.25837 0.0
H2717 H 0.77364 0.76507 0.22631 0.0
C2718 C 0.73804 0.74026 0.2576 0.0
C2719 C 0.75956 0.77214 0.24699 0.0
C2720 C 0.77016 0.79603 0.24748 0.0
C2721 C 0.74236 0.72631 0.24572 0.0
C2722 C 0.75523 0.73549 0.23435 0.0
C2723 C 0.7635 0.75828 0.23504 0.0
C2724 C 0.76163 0.72127 0.22199 0.0
C2725 C 0.73323 0.70185 0.24531 0.0
C2726 C 0.78048 0.70609 0.22291 0.0
C2727 C 0.78875 0.69495 0.21082 0.0
C2728 C 0.77822 0.69875 0.1976 0.0
C2729 C 0.75853 0.71305 0.19686 0.0
C2730 C 0.75043 0.72441 0.20897 0.0
H2731 H 0.72143 0.69809 0.25431 0.0
H2732 H 0.72384 0.69877 0.23524 0.0
H2733 H 0.74799 0.68954 0.24571 0.0
H2734 H 0.78936 0.70358 0.23289 0.0
H2735 H 0.80389 0.68396 0.21175 0.0
H2736 H 0.56542 0.451 0.03523 0.0
H2737 H 0.54567 0.46737 0.01477 0.0
H2738 H 0.50884 0.51469 0.04201 0.0
H2739 H 0.52919 0.49874 0.0626 0.0
H2740 H 0.49951 0.46419 0.01143 0.0
H2741 H 0.52619 0.55657 0.00921 0.0
H2742 H 0.54155 0.53532 0.01962 0.0
H2743 H 0.51489 0.54753 0.02602 0.0
C2744 C 0.55351 0.46527 0.03684 0.0
C2745 C 0.54876 0.47355 0.05051 0.0
C2746 C 0.54222 0.47458 0.02514 0.0
C2747 C 0.5258 0.49226 0.02684 0.0
C2748 C 0.52175 0.50134 0.04041 0.0
H2749 H 0.41929 0.53808 0.9678 0.0
H2750 H 0.4416 0.5291 0.98912 0.0
C2751 C 0.53334 0.49219 0.05217 0.0
C2752 C 0.51139 0.49923 0.01458 0.0
H2753 H 0.49582 0.54499 0.99372 0.0
C2754 C 0.49879 0.48186 0.00755 0.0
C2755 C 0.51035 0.5223 0.00958 0.0
C2756 C 0.52411 0.5415 0.0164 0.0
C2757 C 0.48533 0.4869 0.99562 0.0
C2758 C 0.48441 0.50988 0.99061 0.0
C2759 C 0.49664 0.52738 0.99769 0.0
C2760 C 0.47121 0.51576 0.97775 0.0
C2761 C 0.47219 0.46769 0.98837 0.0
C2762 C 0.48057 0.5111 0.96439 0.0
C2763 C 0.46794 0.51617 0.95218 0.0
C2764 C 0.44564 0.52591 0.95315 0.0
C2765 C 0.43632 0.53045 0.96664 0.0
C2766 C 0.44906 0.52549 0.97884 0.0
H2767 H 0.47284 0.45121 0.99442 0.0
H2768 H 0.4538 0.47278 0.98689 0.0
H2769 H 0.47971 0.46465 0.97772 0.0
H2770 H 0.49766 0.50351 0.96341 0.0
H2771 H 0.47568 0.51247 0.94199 0.0
H2772 H 0.07567 0.4519 0.4653 0.0
H2773 H 0.05499 0.45818 0.48753 0.0
H2774 H 0.00052 0.49356 0.465 0.0
H2775 H 0.02071 0.48687 0.4427 0.0
H2776 H 0.04284 0.49746 0.50061 0.0
H2777 H 0.96351 0.44792 0.48789 0.0
H2778 H 0.98943 0.4461 0.47727 0.0
H2779 H 0.96946 0.46976 0.47491 0.0
C2780 C 0.05928 0.46103 0.46505 0.0
C2781 C 0.04982 0.46878 0.45217 0.0
C2782 C 0.04745 0.46453 0.47778 0.0
C2783 C 0.02594 0.47585 0.4779 0.0
C2784 C 0.01674 0.48413 0.46512 0.0
H2785 H 0.9414 0.54511 0.5373 0.0
H2786 H 0.96015 0.52737 0.51685 0.0
C2787 C 0.02844 0.48048 0.45238 0.0
C2788 C 0.01356 0.47989 0.49144 0.0
H2789 H 0.96089 0.47418 0.50761 0.0
C2790 C 0.02506 0.49202 0.50223 0.0
C2791 C 0.99037 0.47263 0.4936 0.0
C2792 C 0.97756 0.45817 0.48285 0.0
C2793 C 0.01367 0.49804 0.51481 0.0
C2794 C 0.99022 0.49173 0.51665 0.0
C2795 C 0.97889 0.47898 0.50611 0.0
C2796 C 0.97675 0.50021 0.52888 0.0
C2797 C 0.02639 0.51193 0.52587 0.0
C2798 C 0.97939 0.49031 0.54233 0.0
C2799 C 0.96852 0.50032 0.55409 0.0
C2800 C 0.95513 0.52052 0.55252 0.0
C2801 C 0.95175 0.52967 0.53889 0.0
C2802 C 0.96238 0.51955 0.52718 0.0
H2803 H 0.04427 0.51646 0.52252 0.0
H2804 H 0.01677 0.52816 0.52817 0.0
H2805 H 0.02735 0.50185 0.53585 0.0
H2806 H 0.99044 0.47534 0.54379 0.0
H2807 H 0.97152 0.49294 0.56446 0.0
H2808 H 0.08299 0.53012 0.03267 0.0
H2809 H 0.06019 0.52229 0.01144 0.0
H2810 H 0.00055 0.50698 0.03723 0.0
H2811 H 0.02304 0.51495 0.05855 0.0
H2812 H 0.03731 0.48164 0.00378 0.0
H2813 H 0.97571 0.55497 0.00884 0.0
H2814 H 0.00246 0.55349 0.0187 0.0
H2815 H 0.97767 0.53708 0.02433 0.0
C2816 C 0.06504 0.52502 0.03387 0.0
C2817 C 0.05488 0.52322 0.04737 0.0
C2818 C 0.05203 0.52063 0.02171 0.0
C2819 C 0.02858 0.51452 0.02277 0.0
C2820 C 0.01848 0.51221 0.03618 0.0
H2821 H 0.94126 0.44466 0.9638 0.0
H2822 H 0.96169 0.45979 0.98437 0.0
C2823 C 0.03147 0.51655 0.04837 0.0
C2824 C 0.0149 0.50975 0.00984 0.0
H2825 H 0.96649 0.52616 0.99159 0.0
C2826 C 0.02194 0.49149 0.00106 0.0
C2827 C 0.99501 0.52281 0.00624 0.0
C2828 C 0.98733 0.54333 0.01494 0.0
C2829 C 0.00916 0.48543 0.98901 0.0
C2830 C 0.98875 0.49785 0.98574 0.0
C2831 C 0.98207 0.5166 0.99423 0.0
C2832 C 0.97378 0.49074 0.97384 0.0
C2833 C 0.01745 0.46564 0.97989 0.0
C2834 C 0.97303 0.50371 0.9613 0.0
C2835 C 0.96132 0.4951 0.94943 0.0
C2836 C 0.95025 0.47339 0.94999 0.0
C2837 C 0.94985 0.46128 0.96291 0.0
C2838 C 0.96151 0.46988 0.9747 0.0
H2839 H 0.03577 0.46103 0.98214 0.0
H2840 H 0.00656 0.45016 0.98197 0.0
H2841 H 0.01579 0.47004 0.9685 0.0
H2842 H 0.98238 0.51993 0.9605 0.0
H2843 H 0.96195 0.50486 0.93965 0.0
H2844 H 0.55156 0.49601 0.44216 0.0
H2845 H 0.53441 0.48046 0.46395 0.0
H2846 H 0.51229 0.54921 0.47572 0.0
H2847 H 0.53001 0.56485 0.45449 0.0
H2848 H 0.53038 0.52814 0.49755 0.0
H2849 H 0.46714 0.46907 0.47192 0.0
H2850 H 0.49677 0.46321 0.46744 0.0
H2851 H 0.48367 0.49007 0.46206 0.0
C2852 C 0.54304 0.50775 0.44943 0.0
C2853 C 0.54218 0.53165 0.44659 0.0
C2854 C 0.5331 0.49884 0.46181 0.0
C2855 C 0.52172 0.51362 0.47138 0.0
C2856 C 0.52098 0.53745 0.46854 0.0
H2857 H 0.41968 0.48247 0.53517 0.0
H2858 H 0.44128 0.49265 0.51378 0.0
C2859 C 0.53117 0.54637 0.45636 0.0
C2860 C 0.5107 0.50475 0.48449 0.0
H2861 H 0.46861 0.46849 0.4969 0.0
C2862 C 0.5169 0.51505 0.49741 0.0
C2863 C 0.49293 0.48786 0.48428 0.0
C2864 C 0.48454 0.47704 0.47068 0.0
C2865 C 0.5055 0.50941 0.51004 0.0
C2866 C 0.48801 0.49222 0.50988 0.0
C2867 C 0.4821 0.48157 0.49702 0.0
C2868 C 0.47503 0.48569 0.52284 0.0
C2869 C 0.5117 0.52269 0.52327 0.0
C2870 C 0.48676 0.47815 0.535 0.0
C2871 C 0.4745 0.47284 0.54731 0.0
C2872 C 0.45019 0.47435 0.54759 0.0
C2873 C 0.4384 0.48122 0.53529 0.0
C2874 C 0.45073 0.48697 0.52305 0.0
H2875 H 0.52004 0.53953 0.52075 0.0
H2876 H 0.49616 0.5261 0.52986 0.0
H2877 H 0.52418 0.5124 0.5296 0.0
H2878 H 0.50542 0.47631 0.53497 0.0
H2879 H 0.48406 0.46715 0.55654 0.0
H2880 H 0.2754 0.17199 0.37186 0.0
H2881 H 0.30659 0.14757 0.38106 0.0
H2882 H 0.29691 0.10009 0.3463 0.0
H2883 H 0.26498 0.12383 0.33751 0.0
H2884 H 0.29718 0.07743 0.36967 0.0
H2885 H 0.37248 0.13667 0.37086 0.0
H2886 H 0.3484 0.148 0.38063 0.0
H2887 H 0.34596 0.14389 0.3618 0.0
C2888 C 0.28027 0.15657 0.36605 0.0
C2889 C 0.26777 0.14975 0.354 0.0
C2890 C 0.29821 0.14268 0.37127 0.0
C2891 C 0.30436 0.12207 0.36431 0.0
C2892 C 0.29251 0.11587 0.35189 0.0
H2893 H 0.4208 0.03158 0.38205 0.0
H2894 H 0.3955 0.06272 0.37372 0.0
C2895 C 0.27429 0.12946 0.34685 0.0
C2896 C 0.32145 0.10576 0.3706 0.0
H2897 H 0.37631 0.10132 0.38391 0.0
C2898 C 0.31454 0.08268 0.37268 0.0
C2899 C 0.34418 0.11247 0.37445 0.0
C2900 C 0.35328 0.13655 0.37169 0.0
C2901 C 0.32961 0.06617 0.37845 0.0
C2902 C 0.35199 0.07308 0.38289 0.0
C2903 C 0.35902 0.09612 0.38074 0.0
C2904 C 0.36858 0.0563 0.38917 0.0
C2905 C 0.32152 0.04132 0.37929 0.0
C2906 C 0.36235 0.043 0.40102 0.0
C2907 C 0.37658 0.02492 0.40562 0.0
C2908 C 0.3976 0.02026 0.39871 0.0
C2909 C 0.40468 0.03476 0.38758 0.0
C2910 C 0.39023 0.05256 0.3828 0.0
H2911 H 0.30716 0.03783 0.37177 0.0
H2912 H 0.33586 0.02908 0.37697 0.0
H2913 H 0.31498 0.03775 0.39011 0.0
H2914 H 0.34609 0.04607 0.40641 0.0
H2915 H 0.37082 0.01421 0.41435 0.0
H2916 H 0.13389 0.01236 0.59484 0.0
H2917 H 0.15655 0.04482 0.60383 0.0
H2918 H 0.09502 0.07439 0.62236 0.0
H2919 H 0.07217 0.04155 0.61362 0.0
H2920 H 0.1541 0.09208 0.60015 0.0
H2921 H 0.13824 0.06792 0.65629 0.0
H2922 H 0.13092 0.049 0.64178 0.0
H2923 H 0.11283 0.07343 0.64585 0.0
C2924 C 0.12508 0.02586 0.60071 0.0
C2925 C 0.10126 0.02426 0.60364 0.0
C2926 C 0.13808 0.04443 0.60583 0.0
C2927 C 0.12757 0.06181 0.61398 0.0
C2928 C 0.10357 0.06091 0.61634 0.0
H2929 H 0.21558 0.18013 0.63888 0.0
H2930 H 0.18206 0.15837 0.63011 0.0
C2931 C 0.09052 0.04222 0.61126 0.0
C2932 C 0.14218 0.08012 0.62043 0.0
H2933 H 0.16283 0.0996 0.65214 0.0
C2934 C 0.15583 0.09396 0.61152 0.0
C2935 C 0.14454 0.08234 0.63528 0.0
C2936 C 0.13103 0.0673 0.6454 0.0
C2937 C 0.17232 0.10942 0.61701 0.0
C2938 C 0.17488 0.11142 0.63185 0.0
C2939 C 0.1607 0.09814 0.64077 0.0
C2940 C 0.19374 0.12535 0.63827 0.0
C2941 C 0.18767 0.12254 0.60687 0.0
C2942 C 0.21088 0.11422 0.6463 0.0
C2943 C 0.22986 0.12661 0.65145 0.0
C2944 C 0.23211 0.15041 0.64865 0.0
C2945 C 0.21442 0.16177 0.64113 0.0
C2946 C 0.19534 0.14934 0.63603 0.0
H2947 H 0.18668 0.11547 0.59595 0.0
H2948 H 0.18213 0.14093 0.60652 0.0
H2949 H 0.20601 0.12201 0.61039 0.0
H2950 H 0.20996 0.09574 0.64821 0.0
H2951 H 0.24313 0.11734 0.65724 0.0
H2952 H 0.23981 0.88503 0.84078 0.0
H2953 H 0.20698 0.90707 0.84991 0.0
H2954 H 0.17758 0.84453 0.86724 0.0
H2955 H 0.21071 0.82233 0.85835 0.0
H2956 H 0.1594 0.90465 0.84648 0.0
H2957 H 0.18504 0.88593 0.90203 0.0
H2958 H 0.20364 0.87958 0.8872 0.0
H2959 H 0.17952 0.86102 0.89116 0.0
C2960 C 0.22622 0.87586 0.84635 0.0
C2961 C 0.22799 0.85197 0.84898 0.0
C2962 C 0.20745 0.8885 0.85157 0.0
C2963 C 0.1901 0.87752 0.85951 0.0
C2964 C 0.19106 0.85342 0.8614 0.0
H2965 H 0.07056 0.9612 0.88693 0.0
H2966 H 0.09318 0.92874 0.87755 0.0
C2967 C 0.20991 0.84074 0.85623 0.0
C2968 C 0.17189 0.89169 0.86639 0.0
H2969 H 0.15275 0.91011 0.89869 0.0
C2970 C 0.15772 0.90568 0.85789 0.0
C2971 C 0.16999 0.89316 0.8813 0.0
C2972 C 0.18544 0.8793 0.891 0.0
C2973 C 0.14209 0.92154 0.86387 0.0
C2974 C 0.1403 0.92311 0.87877 0.0
C2975 C 0.15404 0.9087 0.88727 0.0
C2976 C 0.12593 0.94112 0.88571 0.0
C2977 C 0.12849 0.93725 0.85418 0.0
C2978 C 0.13666 0.9582 0.894 0.0
C2979 C 0.12378 0.97659 0.89949 0.0
C2980 C 0.09989 0.97825 0.8968 0.0
C2981 C 0.08896 0.96049 0.88911 0.0
C2982 C 0.10187 0.94202 0.88365 0.0
H2983 H 0.13541 0.93713 0.84322 0.0
H2984 H 0.11021 0.93133 0.85379 0.0
H2985 H 0.12866 0.95535 0.85816 0.0
H2986 H 0.15519 0.95777 0.89578 0.0
H2987 H 0.13272 0.98995 0.9054 0.0
H2988 H 0.28869 0.8214 0.14019 0.0
H2989 H 0.32319 0.84267 0.1325 0.0
H2990 H 0.29547 0.90531 0.15071 0.0
H2991 H 0.26127 0.88418 0.15862 0.0
H2992 H 0.32352 0.87829 0.11388 0.0
H2993 H 0.36178 0.90758 0.16435 0.0
H2994 H 0.34028 0.8849 0.16349 0.0
H2995 H 0.33164 0.91488 0.1633 0.0
C2996 C 0.29018 0.8396 0.14281 0.0
C2997 C 0.27225 0.85111 0.15003 0.0
C2998 C 0.30988 0.85173 0.13838 0.0
C2999 C 0.31207 0.87552 0.14119 0.0
C3000 C 0.29445 0.88686 0.14872 0.0
H3001 H 0.37074 0.98703 0.0962 0.0
H3002 H 0.34877 0.95394 0.10493 0.0
C3003 C 0.2748 0.87477 0.15316 0.0
C3004 C 0.33154 0.88906 0.13515 0.0
H3005 H 0.37197 0.92991 0.14361 0.0
C3006 C 0.33442 0.88926 0.1204 0.0
C3007 C 0.34605 0.90307 0.14365 0.0
C3008 C 0.34496 0.90242 0.15958 0.0
C3009 C 0.35038 0.90416 0.11389 0.0
C3010 C 0.36349 0.91957 0.12233 0.0
C3011 C 0.36169 0.91831 0.13712 0.0
C3012 C 0.37763 0.9384 0.11604 0.0
C3013 C 0.35275 0.90353 0.098 0.0
C3014 C 0.40116 0.94084 0.1195 0.0
C3015 C 0.4138 0.95991 0.11457 0.0
C3016 C 0.40302 0.97695 0.10622 0.0
C3017 C 0.3796 0.97416 0.10255 0.0
C3018 C 0.36703 0.95514 0.10746 0.0
H3019 H 0.34801 0.88625 0.09372 0.0
H3020 H 0.34081 0.91645 0.09327 0.0
H3021 H 0.37069 0.90775 0.09463 0.0
H3022 H 0.40963 0.9282 0.1262 0.0
H3023 H 0.43179 0.96163 0.11763 0.0
H3024 H 0.73134 0.88837 0.67104 0.0
H3025 H 0.70019 0.9101 0.65978 0.0
H3026 H 0.70276 0.86425 0.62381 0.0
H3027 H 0.73374 0.84209 0.6351 0.0
H3028 H 0.70663 0.93298 0.63498 0.0
H3029 H 0.63311 0.87171 0.62979 0.0
H3030 H 0.65711 0.86666 0.64165 0.0
H3031 H 0.66006 0.8607 0.62308 0.0
C3032 C 0.725 0.88255 0.66087 0.0
C3033 C 0.7352 0.86352 0.65395 0.0
C3034 C 0.70715 0.89501 0.65445 0.0
C3035 C 0.69904 0.88874 0.64099 0.0
C3036 C 0.70841 0.86915 0.63432 0.0
H3037 H 0.64218 0.984 0.57998 0.0
H3038 H 0.66348 0.95342 0.59213 0.0
C3039 C 0.72624 0.85656 0.64077 0.0
C3040 C 0.6829 0.90431 0.63334 0.0
H3041 H 0.63059 0.90684 0.61646 0.0
C3042 C 0.68994 0.92727 0.63102 0.0
C3043 C 0.66109 0.89688 0.62823 0.0
C3044 C 0.65224 0.8727 0.63091 0.0
C3045 C 0.67598 0.94291 0.62357 0.0
C3046 C 0.65453 0.9353 0.61805 0.0
C3047 C 0.64719 0.91249 0.62057 0.0
C3048 C 0.63966 0.9511 0.60971 0.0
C3049 C 0.68423 0.96755 0.62174 0.0
C3050 C 0.61865 0.95917 0.61529 0.0
C3051 C 0.60631 0.97668 0.60835 0.0
C3052 C 0.61482 0.98638 0.59571 0.0
C3053 C 0.63517 0.97715 0.58975 0.0
C3054 C 0.64743 0.95967 0.59668 0.0
H3055 H 0.69834 0.97194 0.62927 0.0
H3056 H 0.69099 0.96983 0.61084 0.0
H3057 H 0.66976 0.97997 0.62328 0.0
H3058 H 0.61236 0.9527 0.62534 0.0
H3059 H 0.59068 0.98328 0.61323 0.0
H3060 H 0.85956 0.9806 0.42203 0.0
H3061 H 0.83746 0.94961 0.41083 0.0
H3062 H 0.88438 0.95028 0.37534 0.0
H3063 H 0.90691 0.98097 0.38657 0.0
H3064 H 0.81519 0.95533 0.38606 0.0
H3065 H 0.87576 0.88124 0.38157 0.0
H3066 H 0.8811 0.90554 0.39316 0.0
H3067 H 0.88732 0.90772 0.37456 0.0
C3068 C 0.86553 0.97384 0.41199 0.0
C3069 C 0.88499 0.98342 0.40519 0.0
C3070 C 0.85285 0.9561 0.4056 0.0
C3071 C 0.85934 0.9475 0.39229 0.0
C3072 C 0.87931 0.95628 0.38574 0.0
H3073 H 0.76447 0.89185 0.33056 0.0
H3074 H 0.79437 0.91339 0.34319 0.0
C3075 C 0.89211 0.97396 0.39217 0.0
C3076 C 0.84373 0.93141 0.3846 0.0
H3077 H 0.84127 0.87928 0.36752 0.0
C3078 C 0.82087 0.93863 0.38211 0.0
C3079 C 0.8511 0.90956 0.37952 0.0
C3080 C 0.8751 0.90042 0.38245 0.0
C3081 C 0.80532 0.92484 0.37446 0.0
C3082 C 0.81294 0.90342 0.36889 0.0
C3083 C 0.83561 0.89587 0.37164 0.0
C3084 C 0.79733 0.88872 0.3603 0.0
C3085 C 0.78076 0.93325 0.37251 0.0
C3086 C 0.7899 0.86716 0.36541 0.0
C3087 C 0.77283 0.85467 0.35818 0.0
C3088 C 0.76293 0.86356 0.34569 0.0
C3089 C 0.77149 0.88455 0.3402 0.0
C3090 C 0.78855 0.89695 0.34742 0.0
H3091 H 0.77618 0.94695 0.38028 0.0
H3092 H 0.77886 0.94067 0.36175 0.0
H3093 H 0.76823 0.91877 0.3736 0.0
H3094 H 0.79656 0.86048 0.37531 0.0
H3095 H 0.76676 0.83854 0.3627 0.0
H3096 H 0.76587 0.10707 0.17204 0.0
H3097 H 0.79651 0.08448 0.16084 0.0
H3098 H 0.79971 0.13384 0.12667 0.0
H3099 H 0.7694 0.15688 0.13794 0.0
H3100 H 0.79207 0.06398 0.13558 0.0
H3101 H 0.86787 0.12283 0.13428 0.0
H3102 H 0.84289 0.12821 0.14531 0.0
H3103 H 0.84223 0.13543 0.1268 0.0
C3104 C 0.77337 0.11341 0.16228 0.0
C3105 C 0.76508 0.13379 0.15588 0.0
C3106 C 0.79091 0.10045 0.15589 0.0
C3107 C 0.80056 0.10754 0.14297 0.0
C3108 C 0.79291 0.12828 0.13678 0.0
H3109 H 0.85874 0.01284 0.08173 0.0
H3110 H 0.83674 0.04293 0.09389 0.0
C3111 C 0.77545 0.14138 0.14322 0.0
C3112 C 0.81673 0.09198 0.13531 0.0
H3113 H 0.87006 0.089 0.1197 0.0
C3114 C 0.80918 0.06944 0.1322 0.0
C3115 C 0.83912 0.09904 0.13099 0.0
C3116 C 0.84863 0.12262 0.13463 0.0
C3117 C 0.8232 0.05387 0.12472 0.0
C3118 C 0.84521 0.0612 0.1199 0.0
C3119 C 0.85303 0.08357 0.12323 0.0
C3120 C 0.86032 0.04554 0.11159 0.0
C3121 C 0.8144 0.02958 0.1222 0.0
C3122 C 0.88151 0.03793 0.11715 0.0
C3123 C 0.89431 0.02082 0.11016 0.0
C3124 C 0.88607 0.01101 0.09748 0.0
C3125 C 0.8655 0.01977 0.09154 0.0
C3126 C 0.85283 0.03693 0.09849 0.0
H3127 H 0.80016 0.02499 0.12959 0.0
H3128 H 0.80758 0.02828 0.11126 0.0
H3129 H 0.82854 0.01668 0.12342 0.0
H3130 H 0.88764 0.04448 0.12722 0.0
H3131 H 0.91008 0.01456 0.11504 0.0
H3132 H 0.63969 0.01173 0.92394 0.0
H3133 H 0.66173 0.04391 0.914 0.0
H3134 H 0.61159 0.05069 0.88045 0.0
H3135 H 0.58914 0.01886 0.89047 0.0
H3136 H 0.68151 0.0418 0.8884 0.0
H3137 H 0.62328 0.11796 0.89032 0.0
H3138 H 0.61801 0.09206 0.90053 0.0
H3139 H 0.61007 0.09321 0.88215 0.0
C3140 C 0.63303 0.02038 0.91463 0.0
C3141 C 0.61267 0.01257 0.90798 0.0
C3142 C 0.64567 0.0388 0.90896 0.0
C3143 C 0.63824 0.04985 0.89654 0.0
C3144 C 0.61741 0.04279 0.89021 0.0
H3145 H 0.72739 0.11004 0.8338 0.0
H3146 H 0.69801 0.08851 0.84686 0.0
C3147 C 0.60465 0.02445 0.89592 0.0
C3148 C 0.65369 0.06663 0.88929 0.0
H3149 H 0.65615 0.12085 0.87483 0.0
C3150 C 0.67601 0.05916 0.88557 0.0
C3151 C 0.64657 0.08933 0.88567 0.0
C3152 C 0.62325 0.09872 0.88999 0.0
C3153 C 0.69119 0.0735 0.87803 0.0
C3154 C 0.68371 0.09579 0.87384 0.0
C3155 C 0.66167 0.10361 0.87789 0.0
C3156 C 0.69875 0.11094 0.86517 0.0
C3157 C 0.71517 0.06467 0.87463 0.0
C3158 C 0.70804 0.13135 0.87088 0.0
C3159 C 0.72483 0.14385 0.8634 0.0
C3160 C 0.73258 0.13609 0.85009 0.0
C3161 C 0.72206 0.11642 0.84407 0.0
C3162 C 0.70528 0.10403 0.85153 0.0
H3163 H 0.72013 0.04987 0.88151 0.0
H3164 H 0.71563 0.05865 0.86349 0.0
H3165 H 0.72828 0.0786 0.87587 0.0
H3166 H 0.70311 0.137 0.88138 0.0
H3167 H 0.73249 0.15893 0.86835 0.0
H3168 H 0.78596 0.67559 0.86175 0.0
H3169 H 0.81902 0.65272 0.87005 0.0
H3170 H 0.78959 0.59156 0.85099 0.0
H3171 H 0.75677 0.61428 0.84251 0.0
H3172 H 0.81665 0.61651 0.88849 0.0
H3173 H 0.85662 0.58719 0.83845 0.0
H3174 H 0.83603 0.61072 0.83916 0.0
H3175 H 0.82615 0.58114 0.83899 0.0
C3176 C 0.78676 0.65736 0.85909 0.0
C3177 C 0.76875 0.64674 0.85146 0.0
C3178 C 0.80564 0.64432 0.86387 0.0
C3179 C 0.80693 0.62049 0.861 0.0
C3180 C 0.78925 0.61001 0.85306 0.0
H3181 H 0.86378 0.50718 0.90642 0.0
H3182 H 0.84149 0.53982 0.89728 0.0
C3183 C 0.77041 0.62301 0.84829 0.0
C3184 C 0.82557 0.6061 0.86729 0.0
H3185 H 0.8658 0.56482 0.85923 0.0
C3186 C 0.82766 0.60548 0.88208 0.0
C3187 C 0.84018 0.59196 0.85894 0.0
C3188 C 0.83983 0.59294 0.843 0.0
C3189 C 0.84309 0.5902 0.88876 0.0
C3190 C 0.85648 0.57487 0.88043 0.0
C3191 C 0.85532 0.57638 0.86562 0.0
C3192 C 0.87059 0.55612 0.88683 0.0
C3193 C 0.8447 0.59044 0.90468 0.0
C3194 C 0.89435 0.55427 0.88387 0.0
C3195 C 0.90716 0.5355 0.88903 0.0
C3196 C 0.89636 0.51816 0.89714 0.0
C3197 C 0.87266 0.5203 0.90028 0.0
C3198 C 0.8599 0.53904 0.89513 0.0
H3199 H 0.83947 0.60751 0.90907 0.0
H3200 H 0.83281 0.57716 0.90907 0.0
H3201 H 0.86256 0.58643 0.90831 0.0
H3202 H 0.9029 0.56719 0.8774 0.0
H3203 H 0.92537 0.53429 0.88638 0.0
H3204 H 0.71451 0.67368 0.13562 0.0
H3205 H 0.68117 0.65086 0.12762 0.0
H3206 H 0.70992 0.59011 0.14754 0.0
H3207 H 0.74289 0.61276 0.15576 0.0
H3208 H 0.6825 0.61423 0.10977 0.0
H3209 H 0.64328 0.58661 0.1603 0.0
H3210 H 0.66417 0.60983 0.15926 0.0
H3211 H 0.67364 0.58011 0.15982 0.0
C3212 C 0.71348 0.65556 0.13852 0.0
C3213 C 0.73132 0.64503 0.14634 0.0
C3214 C 0.69445 0.64254 0.13392 0.0
C3215 C 0.69287 0.61885 0.13715 0.0
C3216 C 0.71044 0.60847 0.14521 0.0
H3217 H 0.63732 0.50405 0.09293 0.0
H3218 H 0.65891 0.53744 0.10164 0.0
C3219 C 0.7294 0.62144 0.14982 0.0
C3220 C 0.67405 0.60438 0.13114 0.0
H3221 H 0.63454 0.56283 0.13993 0.0
C3222 C 0.67172 0.60329 0.11637 0.0
C3223 C 0.65968 0.59039 0.13974 0.0
C3224 C 0.66013 0.59197 0.15566 0.0
C3225 C 0.6564 0.58758 0.10997 0.0
C3226 C 0.64345 0.57225 0.11856 0.0
C3227 C 0.64473 0.57434 0.13333 0.0
C3228 C 0.62973 0.55293 0.11248 0.0
C3229 C 0.65449 0.58739 0.09406 0.0
C3230 C 0.6062 0.55027 0.11586 0.0
C3231 C 0.59382 0.53101 0.11099 0.0
C3232 C 0.60482 0.51401 0.10272 0.0
C3233 C 0.62829 0.5169 0.09919 0.0
C3234 C 0.64064 0.53609 0.10409 0.0
H3235 H 0.65895 0.60456 0.08951 0.0
H3236 H 0.66686 0.57453 0.08969 0.0
H3237 H 0.63676 0.58259 0.09058 0.0
H3238 H 0.59749 0.56297 0.12242 0.0
H3239 H 0.57577 0.52924 0.11392 0.0
H3240 H 0.71388 0.32686 0.36964 0.0
H3241 H 0.68175 0.35166 0.37688 0.0
H3242 H 0.69532 0.39697 0.34152 0.0
H3243 H 0.7283 0.37284 0.33473 0.0
H3244 H 0.69386 0.4209 0.36415 0.0
H3245 H 0.61706 0.36393 0.36519 0.0
H3246 H 0.63996 0.35208 0.37573 0.0
H3247 H 0.64386 0.3553 0.35691 0.0
C3248 C 0.70962 0.34178 0.36321 0.0
C3249 C 0.72361 0.348 0.35166 0.0
C3250 C 0.69111 0.3559 0.3673 0.0
C3251 C 0.68587 0.37613 0.35968 0.0
C3252 C 0.699 0.38149 0.34759 0.0
H3253 H 0.57226 0.47081 0.37919 0.0
H3254 H 0.59586 0.43921 0.36964 0.0
C3255 C 0.71781 0.36768 0.34369 0.0
C3256 C 0.66888 0.39319 0.36529 0.0
H3257 H 0.61431 0.39918 0.37883 0.0
C3258 C 0.67637 0.41613 0.36717 0.0
C3259 C 0.64596 0.38715 0.36916 0.0
C3260 C 0.63618 0.36332 0.36649 0.0
C3261 C 0.66185 0.43305 0.37301 0.0
C3262 C 0.63945 0.42669 0.37771 0.0
C3263 C 0.63166 0.40392 0.37551 0.0
C3264 C 0.62384 0.44371 0.38463 0.0
C3265 C 0.67062 0.45766 0.37384 0.0
C3266 C 0.63125 0.45603 0.39661 0.0
C3267 C 0.61801 0.47432 0.40192 0.0
C3268 C 0.59682 0.48019 0.39557 0.0
C3269 C 0.58855 0.46667 0.38428 0.0
C3270 C 0.60202 0.44862 0.37881 0.0
H3271 H 0.68461 0.46089 0.36601 0.0
H3272 H 0.65648 0.47032 0.37193 0.0
H3273 H 0.67791 0.46085 0.38452 0.0
H3274 H 0.64768 0.45204 0.40156 0.0
H3275 H 0.62467 0.48426 0.41074 0.0
H3276 H 0.87275 0.48532 0.59105 0.0
H3277 H 0.84869 0.45476 0.60126 0.0
H3278 H 0.89953 0.44389 0.63404 0.0
H3279 H 0.92417 0.4738 0.62347 0.0
H3280 H 0.88125 0.4036 0.62602 0.0
H3281 H 0.81033 0.46596 0.63582 0.0
H3282 H 0.8176 0.4645 0.61742 0.0
H3283 H 0.83862 0.47501 0.62997 0.0
C3284 C 0.87892 0.47622 0.60034 0.0
C3285 C 0.90021 0.48209 0.60656 0.0
C3286 C 0.86507 0.45889 0.60623 0.0
C3287 C 0.87194 0.44754 0.61869 0.0
C3288 C 0.89375 0.45257 0.62451 0.0
H3289 H 0.7651 0.37883 0.66831 0.0
H3290 H 0.79771 0.4034 0.66141 0.0
C3291 C 0.90783 0.46964 0.61846 0.0
C3292 C 0.85602 0.43109 0.62586 0.0
H3293 H 0.80083 0.42601 0.63835 0.0
C3294 C 0.86371 0.40853 0.62884 0.0
C3295 C 0.83334 0.43768 0.62991 0.0
C3296 C 0.82457 0.46218 0.62826 0.0
C3297 C 0.84909 0.39216 0.63529 0.0
C3298 C 0.8259 0.39833 0.63845 0.0
C3299 C 0.8185 0.42111 0.63585 0.0
C3300 C 0.80863 0.38151 0.64403 0.0
C3301 C 0.85881 0.36861 0.63883 0.0
C3302 C 0.8042 0.36067 0.63683 0.0
C3303 C 0.7859 0.34635 0.64099 0.0
C3304 C 0.77127 0.35291 0.65217 0.0
C3305 C 0.77609 0.37336 0.65964 0.0
C3306 C 0.79469 0.38743 0.65568 0.0
H3307 H 0.87781 0.36947 0.64063 0.0
H3308 H 0.8505 0.36119 0.6484 0.0
H3309 H 0.85577 0.35671 0.62981 0.0
H3310 H 0.81417 0.35597 0.62757 0.0
H3311 H 0.78241 0.33082 0.63493 0.0
H3312 H 0.14241 0.48185 0.07858 0.0
H3313 H 0.16389 0.45046 0.0898 0.0
H3314 H 0.11696 0.45203 0.12527 0.0
H3315 H 0.09505 0.48321 0.11402 0.0
H3316 H 0.18613 0.45592 0.11477 0.0
H3317 H 0.12433 0.38266 0.11873 0.0
H3318 H 0.11961 0.40707 0.10713 0.0
H3319 H 0.1133 0.40942 0.12569 0.0
C3320 C 0.13632 0.47524 0.08864 0.0
C3321 C 0.11704 0.48519 0.09542 0.0
C3322 C 0.14864 0.45726 0.09503 0.0
C3323 C 0.14197 0.44878 0.10833 0.0
C3324 C 0.12217 0.45796 0.11488 0.0
H3325 H 0.23649 0.38984 0.16916 0.0
H3326 H 0.20611 0.41174 0.15721 0.0
C3327 C 0.10972 0.4759 0.10845 0.0
C3328 C 0.15727 0.43236 0.11597 0.0
H3329 H 0.15907 0.37963 0.1324 0.0
C3330 C 0.18022 0.43918 0.11854 0.0
C3331 C 0.14958 0.41048 0.12083 0.0
C3332 C 0.12542 0.40182 0.11785 0.0
C3333 C 0.1956 0.42493 0.12598 0.0
C3334 C 0.18772 0.40341 0.13126 0.0
C3335 C 0.16492 0.39629 0.12849 0.0
C3336 C 0.20327 0.38816 0.13953 0.0
C3337 C 0.22028 0.43294 0.12802 0.0
C3338 C 0.2109 0.36704 0.13387 0.0
C3339 C 0.22826 0.35434 0.1407 0.0
C3340 C 0.23826 0.3626 0.15332 0.0
C3341 C 0.2294 0.38304 0.1594 0.0
C3342 C 0.21205 0.39564 0.15257 0.0
H3343 H 0.22495 0.44707 0.12056 0.0
H3344 H 0.22239 0.43963 0.13895 0.0
H3345 H 0.23262 0.41839 0.12654 0.0
H3346 H 0.20424 0.36095 0.12382 0.0
H3347 H 0.23457 0.33866 0.13574 0.0
H3348 H 0.40947 0.48183 0.88804 0.0
H3349 H 0.38811 0.45105 0.87596 0.0
H3350 H 0.3362 0.45234 0.90871 0.0
H3351 H 0.35717 0.48324 0.92081 0.0
H3352 H 0.36995 0.40591 0.88389 0.0
H3353 H 0.30161 0.47075 0.87194 0.0
H3354 H 0.3299 0.47882 0.87838 0.0
H3355 H 0.30839 0.46789 0.8904 0.0
C3356 C 0.39375 0.47529 0.89285 0.0
C3357 C 0.38487 0.48532 0.9053 0.0
C3358 C 0.38159 0.45767 0.88592 0.0
C3359 C 0.36039 0.44978 0.89132 0.0
C3360 C 0.35236 0.4585 0.90426 0.0
H3361 H 0.26787 0.34054 0.86468 0.0
H3362 H 0.29904 0.36246 0.87587 0.0
C3363 C 0.36443 0.47615 0.91117 0.0
C3364 C 0.34561 0.4341 0.88283 0.0
H3365 H 0.29354 0.43187 0.86586 0.0
C3366 C 0.35327 0.41153 0.87989 0.0
C3367 C 0.32408 0.44169 0.87741 0.0
C3368 C 0.31554 0.46617 0.87955 0.0
C3369 C 0.33959 0.39611 0.87194 0.0
C3370 C 0.31767 0.40347 0.86698 0.0
C3371 C 0.31032 0.42621 0.8697 0.0
C3372 C 0.30162 0.38799 0.85918 0.0
C3373 C 0.34883 0.37222 0.8688 0.0
C3374 C 0.29281 0.39488 0.846 0.0
C3375 C 0.2748 0.38255 0.83964 0.0
C3376 C 0.26517 0.36304 0.84634 0.0
C3377 C 0.27493 0.35539 0.85917 0.0
C3378 C 0.29288 0.36786 0.86557 0.0
H3379 H 0.36802 0.37163 0.86964 0.0
H3380 H 0.34162 0.35979 0.87659 0.0
H3381 H 0.3437 0.36644 0.85805 0.0
H3382 H 0.29929 0.41038 0.84088 0.0
H3383 H 0.26781 0.38889 0.82974 0.0
H3384 H 0.36126 0.51661 0.57672 0.0
H3385 H 0.33945 0.54884 0.58679 0.0
H3386 H 0.38759 0.55252 0.62159 0.0
H3387 H 0.40985 0.52062 0.61144 0.0
H3388 H 0.31801 0.54583 0.61181 0.0
H3389 H 0.37816 0.62057 0.61287 0.0
H3390 H 0.38348 0.59509 0.60227 0.0
H3391 H 0.39013 0.59504 0.62086 0.0
C3392 C 0.36754 0.52458 0.58636 0.0
C3393 C 0.38727 0.51591 0.59331 0.0
C3394 C 0.35504 0.54303 0.59209 0.0
C3395 C 0.36195 0.55322 0.6049 0.0
C3396 C 0.38219 0.5453 0.61155 0.0
H3397 H 0.26911 0.61305 0.6659 0.0
H3398 H 0.29903 0.59123 0.65348 0.0
C3399 C 0.39484 0.52693 0.60576 0.0
C3400 C 0.34645 0.56999 0.6121 0.0
H3401 H 0.34416 0.62363 0.62737 0.0
C3402 C 0.3237 0.56292 0.61508 0.0
C3403 C 0.35382 0.59234 0.61631 0.0
C3404 C 0.37766 0.60133 0.61279 0.0
C3405 C 0.3083 0.57732 0.6224 0.0
C3406 C 0.31596 0.59924 0.62716 0.0
C3407 C 0.33848 0.60666 0.62388 0.0
C3408 C 0.30058 0.61445 0.63556 0.0
C3409 C 0.28386 0.56895 0.62494 0.0
C3410 C 0.2924 0.63536 0.6299 0.0
C3411 C 0.27531 0.64802 0.63702 0.0
C3412 C 0.26615 0.63993 0.64991 0.0
C3413 C 0.27553 0.6197 0.65593 0.0
C3414 C 0.29263 0.60715 0.64884 0.0
H3415 H 0.27911 0.55459 0.61768 0.0
H3416 H 0.28238 0.56245 0.63595 0.0
H3417 H 0.27121 0.58326 0.62356 0.0
H3418 H 0.29843 0.64131 0.61968 0.0
H3419 H 0.26855 0.66354 0.63208 0.0
H3420 H 0.13727 0.51255 0.42095 0.0
H3421 H 0.15897 0.54468 0.41066 0.0
H3422 H 0.10768 0.55131 0.37776 0.0
H3423 H 0.08555 0.51958 0.38814 0.0
H3424 H 0.178 0.54255 0.38499 0.0
H3425 H 0.11958 0.61855 0.38715 0.0
H3426 H 0.11454 0.59267 0.39743 0.0
H3427 H 0.10628 0.59375 0.3791 0.0
C3428 C 0.13028 0.52117 0.41172 0.0
C3429 C 0.10968 0.51336 0.40535 0.0
C3430 C 0.14273 0.53956 0.40584 0.0
C3431 C 0.1349 0.55054 0.39349 0.0
C3432 C 0.11383 0.54348 0.38746 0.0
H3433 H 0.22579 0.61145 0.33135 0.0
H3434 H 0.19586 0.58947 0.34369 0.0
C3435 C 0.10125 0.5252 0.39339 0.0
C3436 C 0.15011 0.56728 0.38602 0.0
H3437 H 0.15219 0.62149 0.37151 0.0
C3438 C 0.17238 0.55987 0.38216 0.0
C3439 C 0.14285 0.58994 0.38239 0.0
C3440 C 0.11959 0.59931 0.38685 0.0
C3441 C 0.18745 0.57427 0.37457 0.0
C3442 C 0.17985 0.59654 0.3704 0.0
C3443 C 0.1578 0.60425 0.37452 0.0
C3444 C 0.19495 0.61201 0.36195 0.0
C3445 C 0.21149 0.56556 0.37121 0.0
C3446 C 0.20337 0.63269 0.36779 0.0
C3447 C 0.22039 0.64547 0.3607 0.0
C3448 C 0.22929 0.6377 0.34767 0.0
C3449 C 0.21957 0.61782 0.34143 0.0
C3450 C 0.2025 0.60517 0.34849 0.0
H3451 H 0.21655 0.55088 0.37815 0.0
H3452 H 0.21197 0.55937 0.3601 0.0
H3453 H 0.22453 0.57957 0.37238 0.0
H3454 H 0.19764 0.63832 0.37815 0.0
H3455 H 0.22741 0.66072 0.36581 0.0
loop_
_geom_bond_atom_site_label_1
_geom_bond_atom_site_label_2
_geom_bond_distance
_geom_bond_site_symmetry_2
_ccdc_geom_bond_type
Mn0 O5 2.095 . S
Mn0 O15 2.162 . S
Mn0 O16 2.297 . S
Mn0 O24 2.385 . S
Mn0 O25 2.209 . S
Mn0 O26 2.094 . S
Mn1 O6 2.121 . S
Mn1 N8 2.257 . S
Mn1 N17 2.282 . S
Mn1 O25 2.215 . S
Mn1 O27 2.117 . S
C2 O24 1.234 . S
C2 O25 1.283 . S
C3 O15 1.281 . S
C3 O16 1.236 . S
C4 O26 1.240 . S
C4 O27 1.264 . S
O5 Mn0 2.095 . S
O5 C14 1.250 . S
O6 Mn1 2.121 . S
O6 C14 1.258 . S
C7 N8 1.326 . S
C7 C11 1.460 . S
C7 H13 0.929 . S
N8 Mn1 2.257 . S
N8 C7 1.326 . S
N8 C12 1.362 . S
C9 C10 1.258 . S
C9 C12 1.431 . S
C9 C29 1.449 . S
C10 C9 1.258 . S
C10 C11 1.477 . S
C10 H30 0.931 . S
C11 C7 1.460 . S
C11 C10 1.477 . S
C11 H31 0.930 . S
C12 N8 1.362 . S
C12 C9 1.431 . S
C12 C22 1.476 . S
H13 C7 0.929 . S
C14 O5 1.250 . S
C14 O6 1.258 . S
O15 Mn0 2.162 . S
O15 C3 1.281 . S
O16 Mn0 2.297 . S
O16 C3 1.236 . S
N17 Mn1 2.282 . S
N17 C18 1.328 . S
N17 C22 1.318 . S
C18 N17 1.328 . S
C18 C19 1.457 . S
C18 H23 0.929 . S
C19 C18 1.457 . S
C19 C20 1.291 . S
C19 H32 0.931 . S
C20 C19 1.291 . S
C20 C21 1.373 . S
C20 H33 0.929 . S
C21 C20 1.373 . S
C21 C22 1.396 . S
C21 C28 1.403 . S
C22 C12 1.476 . S
C22 N17 1.318 . S
C22 C21 1.396 . S
H23 C18 0.929 . S
O24 Mn0 2.385 . S
O24 C2 1.234 . S
O25 Mn0 2.209 . S
O25 Mn1 2.215 . S
O25 C2 1.283 . S
O26 Mn0 2.094 . S
O26 C4 1.240 . S
O27 Mn1 2.117 . S
O27 C4 1.264 . S
C28 C21 1.403 . S
C28 C29 1.399 . S
C28 H34 0.929 . S
C29 C9 1.449 . S
C29 C28 1.399 . S
C29 H35 0.930 . S
H30 C10 0.931 . S
H31 C11 0.930 . S
H32 C19 0.931 . S
H33 C20 0.929 . S
H34 C28 0.929 . S
H35 C29 0.930 . S
Mn36 O41 2.095 . S
Mn36 O51 2.162 1_565 S
Mn36 O52 2.297 . S
Mn36 O60 2.385 . S
Mn36 O61 2.209 . S
Mn36 O62 2.094 . S
Mn37 O42 2.121 . S
Mn37 N44 2.257 . S
Mn37 N53 2.282 . S
Mn37 O61 2.215 . S
Mn37 O63 2.117 . S
C38 O60 1.234 . S
C38 O61 1.283 . S
C39 O51 1.281 . S
C39 O52 1.236 1_545 S
C40 O62 1.240 . S
C40 O63 1.264 . S
O41 Mn36 2.095 . S
O41 C50 1.250 . S
O42 Mn37 2.121 . S
O42 C50 1.258 . S
C43 N44 1.326 . S
C43 C47 1.460 . S
C43 H49 0.929 . S
N44 Mn37 2.257 . S
N44 C43 1.326 . S
N44 C48 1.362 . S
C45 C46 1.258 . S
C45 C48 1.431 . S
C45 C65 1.449 . S
C46 C45 1.258 . S
C46 C47 1.477 . S
C46 H66 0.931 . S
C47 C43 1.460 . S
C47 C46 1.477 . S
C47 H67 0.930 . S
C48 N44 1.362 . S
C48 C45 1.431 . S
C48 C58 1.476 . S
H49 C43 0.929 . S
C50 O41 1.250 . S
C50 O42 1.258 . S
O51 Mn36 2.162 1_545 S
O51 C39 1.281 . S
O52 Mn36 2.297 . S
O52 C39 1.236 1_565 S
N53 Mn37 2.282 . S
N53 C54 1.328 . S
N53 C58 1.318 . S
C54 N53 1.328 . S
C54 C55 1.457 . S
C54 H59 0.929 . S
C55 C54 1.457 . S
C55 C56 1.291 . S
C55 H68 0.931 . S
C56 C55 1.291 . S
C56 C57 1.373 . S
C56 H69 0.929 . S
C57 C56 1.373 . S
C57 C58 1.396 . S
C57 C64 1.403 . S
C58 C48 1.476 . S
C58 N53 1.318 . S
C58 C57 1.396 . S
H59 C54 0.929 . S
O60 Mn36 2.385 . S
O60 C38 1.234 . S
O61 Mn36 2.209 . S
O61 Mn37 2.215 . S
O61 C38 1.283 . S
O62 Mn36 2.094 . S
O62 C40 1.240 . S
O63 Mn37 2.117 . S
O63 C40 1.264 . S
C64 C57 1.403 . S
C64 C65 1.399 . S
C64 H70 0.929 . S
C65 C45 1.449 . S
C65 C64 1.399 . S
C65 H71 0.930 . S
H66 C46 0.931 . S
H67 C47 0.930 . S
H68 C55 0.931 . S
H69 C56 0.929 . S
H70 C64 0.929 . S
H71 C65 0.930 . S
Mn72 O77 2.095 . S
Mn72 O87 2.162 . S
Mn72 O88 2.297 . S
Mn72 O96 2.385 . S
Mn72 O97 2.209 . S
Mn72 O98 2.094 . S
Mn73 O78 2.121 . S
Mn73 N80 2.257 . S
Mn73 N89 2.282 . S
Mn73 O97 2.215 . S
Mn73 O99 2.117 . S
C74 O96 1.234 . S
C74 O97 1.283 . S
C75 O87 1.281 . S
C75 O88 1.236 . S
C76 O98 1.240 . S
C76 O99 1.264 . S
O77 Mn72 2.095 . S
O77 C86 1.250 . S
O78 Mn73 2.121 . S
O78 C86 1.258 . S
C79 N80 1.326 . S
C79 C83 1.460 . S
C79 H85 0.929 . S
N80 Mn73 2.257 . S
N80 C79 1.326 . S
N80 C84 1.362 . S
C81 C82 1.258 . S
C81 C84 1.431 . S
C81 C101 1.449 . S
C82 C81 1.258 . S
C82 C83 1.477 . S
C82 H102 0.931 . S
C83 C79 1.460 . S
C83 C82 1.477 . S
C83 H103 0.930 . S
C84 N80 1.362 . S
C84 C81 1.431 . S
C84 C94 1.476 . S
H85 C79 0.929 . S
C86 O77 1.250 . S
C86 O78 1.258 . S
O87 Mn72 2.162 . S
O87 C75 1.281 . S
O88 Mn72 2.297 . S
O88 C75 1.236 . S
N89 Mn73 2.282 . S
N89 C90 1.328 . S
N89 C94 1.318 . S
C90 N89 1.328 . S
C90 C91 1.457 . S
C90 H95 0.929 . S
C91 C90 1.457 . S
C91 C92 1.291 . S
C91 H104 0.931 . S
C92 C91 1.291 . S
C92 C93 1.373 . S
C92 H105 0.929 . S
C93 C92 1.373 . S
C93 C94 1.396 . S
C93 C100 1.403 . S
C94 C84 1.476 . S
C94 N89 1.318 . S
C94 C93 1.396 . S
H95 C90 0.929 . S
O96 Mn72 2.385 . S
O96 C74 1.234 . S
O97 Mn72 2.209 . S
O97 Mn73 2.215 . S
O97 C74 1.283 . S
O98 Mn72 2.094 . S
O98 C76 1.240 . S
O99 Mn73 2.117 . S
O99 C76 1.264 . S
C100 C93 1.403 . S
C100 C101 1.399 . S
C100 H106 0.929 . S
C101 C81 1.449 . S
C101 C100 1.399 . S
C101 H107 0.930 . S
H102 C82 0.931 . S
H103 C83 0.930 . S
H104 C91 0.931 . S
H105 C92 0.929 . S
H106 C100 0.929 . S
H107 C101 0.930 . S
Mn108 O113 2.095 . S
Mn108 O123 2.162 1_545 S
Mn108 O124 2.297 . S
Mn108 O132 2.385 . S
Mn108 O133 2.209 . S
Mn108 O134 2.094 . S
Mn109 O114 2.121 . S
Mn109 N116 2.257 . S
Mn109 N125 2.282 . S
Mn109 O133 2.215 . S
Mn109 O135 2.117 . S
C110 O132 1.234 . S
C110 O133 1.283 . S
C111 O123 1.281 . S
C111 O124 1.236 1_565 S
C112 O134 1.240 . S
C112 O135 1.264 . S
O113 Mn108 2.095 . S
O113 C122 1.250 . S
O114 Mn109 2.121 . S
O114 C122 1.258 . S
C115 N116 1.326 . S
C115 C119 1.460 . S
C115 H121 0.929 . S
N116 Mn109 2.257 . S
N116 C115 1.326 . S
N116 C120 1.362 . S
C117 C118 1.258 . S
C117 C120 1.431 . S
C117 C137 1.449 . S
C118 C117 1.258 . S
C118 C119 1.477 . S
C118 H138 0.931 . S
C119 C115 1.460 . S
C119 C118 1.477 . S
C119 H139 0.930 . S
C120 N116 1.362 . S
C120 C117 1.431 . S
C120 C130 1.476 . S
H121 C115 0.929 . S
C122 O113 1.250 . S
C122 O114 1.258 . S
O123 Mn108 2.162 1_565 S
O123 C111 1.281 . S
O124 Mn108 2.297 . S
O124 C111 1.236 1_545 S
N125 Mn109 2.282 . S
N125 C126 1.328 . S
N125 C130 1.318 . S
C126 N125 1.328 . S
C126 C127 1.457 . S
C126 H131 0.929 . S
C127 C126 1.457 . S
C127 C128 1.291 . S
C127 H140 0.931 . S
C128 C127 1.291 . S
C128 C129 1.373 . S
C128 H141 0.929 . S
C129 C128 1.373 . S
C129 C130 1.396 . S
C129 C136 1.403 . S
C130 C120 1.476 . S
C130 N125 1.318 . S
C130 C129 1.396 . S
H131 C126 0.929 . S
O132 Mn108 2.385 . S
O132 C110 1.234 . S
O133 Mn108 2.209 . S
O133 Mn109 2.215 . S
O133 C110 1.283 . S
O134 Mn108 2.094 . S
O134 C112 1.240 . S
O135 Mn109 2.117 . S
O135 C112 1.264 . S
C136 C129 1.403 . S
C136 C137 1.399 . S
C136 H142 0.929 . S
C137 C117 1.449 . S
C137 C136 1.399 . S
C137 H143 0.930 . S
H138 C118 0.931 . S
H139 C119 0.930 . S
H140 C127 0.931 . S
H141 C128 0.929 . S
H142 C136 0.929 . S
H143 C137 0.930 . S
Mn144 O149 2.095 . S
Mn144 O159 2.162 . S
Mn144 O160 2.297 . S
Mn144 O168 2.385 . S
Mn144 O169 2.209 . S
Mn144 O170 2.094 . S
Mn145 O150 2.121 . S
Mn145 N152 2.257 . S
Mn145 N161 2.282 . S
Mn145 O169 2.215 . S
Mn145 O171 2.117 . S
C146 O168 1.234 . S
C146 O169 1.283 . S
C147 O159 1.281 . S
C147 O160 1.236 . S
C148 O170 1.240 . S
C148 O171 1.264 . S
O149 Mn144 2.095 . S
O149 C158 1.250 . S
O150 Mn145 2.121 . S
O150 C158 1.258 . S
C151 N152 1.326 . S
C151 C155 1.460 . S
C151 H157 0.929 . S
N152 Mn145 2.257 . S
N152 C151 1.326 . S
N152 C156 1.362 . S
C153 C154 1.258 . S
C153 C156 1.431 . S
C153 C173 1.449 . S
C154 C153 1.258 . S
C154 C155 1.477 . S
C154 H174 0.931 . S
C155 C151 1.460 . S
C155 C154 1.477 . S
C155 H175 0.930 . S
C156 N152 1.362 . S
C156 C153 1.431 . S
C156 C166 1.476 . S
H157 C151 0.929 . S
C158 O149 1.250 . S
C158 O150 1.258 . S
O159 Mn144 2.162 . S
O159 C147 1.281 . S
O160 Mn144 2.297 . S
O160 C147 1.236 . S
N161 Mn145 2.282 . S
N161 C162 1.328 . S
N161 C166 1.318 . S
C162 N161 1.328 . S
C162 C163 1.457 . S
C162 H167 0.929 . S
C163 C162 1.457 . S
C163 C164 1.291 . S
C163 H176 0.931 . S
C164 C163 1.291 . S
C164 C165 1.373 . S
C164 H177 0.929 . S
C165 C164 1.373 . S
C165 C166 1.396 . S
C165 C172 1.403 . S
C166 C156 1.476 . S
C166 N161 1.318 . S
C166 C165 1.396 . S
H167 C162 0.929 . S
O168 Mn144 2.385 . S
O168 C146 1.234 . S
O169 Mn144 2.209 . S
O169 Mn145 2.215 . S
O169 C146 1.283 . S
O170 Mn144 2.094 . S
O170 C148 1.240 . S
O171 Mn145 2.117 . S
O171 C148 1.264 . S
C172 C165 1.403 . S
C172 C173 1.399 . S
C172 H178 0.929 . S
C173 C153 1.449 . S
C173 C172 1.399 . S
C173 H179 0.930 . S
H174 C154 0.931 . S
H175 C155 0.930 . S
H176 C163 0.931 . S
H177 C164 0.929 . S
H178 C172 0.929 . S
H179 C173 0.930 . S
Mn180 O185 2.095 . S
Mn180 O195 2.162 1_565 S
Mn180 O196 2.297 . S
Mn180 O204 2.385 . S
Mn180 O205 2.209 . S
Mn180 O206 2.094 . S
Mn181 O186 2.121 . S
Mn181 N188 2.257 . S
Mn181 N197 2.282 . S
Mn181 O205 2.215 . S
Mn181 O207 2.117 . S
C182 O204 1.234 . S
C182 O205 1.283 . S
C183 O195 1.281 . S
C183 O196 1.236 1_545 S
C184 O206 1.240 . S
C184 O207 1.264 . S
O185 Mn180 2.095 . S
O185 C194 1.250 . S
O186 Mn181 2.121 . S
O186 C194 1.258 . S
C187 N188 1.326 . S
C187 C191 1.460 . S
C187 H193 0.929 . S
N188 Mn181 2.257 . S
N188 C187 1.326 . S
N188 C192 1.362 . S
C189 C190 1.258 . S
C189 C192 1.431 . S
C189 C209 1.449 . S
C190 C189 1.258 . S
C190 C191 1.477 . S
C190 H210 0.931 . S
C191 C187 1.460 . S
C191 C190 1.477 . S
C191 H211 0.930 . S
C192 N188 1.362 . S
C192 C189 1.431 . S
C192 C202 1.476 . S
H193 C187 0.929 . S
C194 O185 1.250 . S
C194 O186 1.258 . S
O195 Mn180 2.162 1_545 S
O195 C183 1.281 . S
O196 Mn180 2.297 . S
O196 C183 1.236 1_565 S
N197 Mn181 2.282 . S
N197 C198 1.328 . S
N197 C202 1.318 . S
C198 N197 1.328 . S
C198 C199 1.457 . S
C198 H203 0.929 . S
C199 C198 1.457 . S
C199 C200 1.291 . S
C199 H212 0.931 . S
C200 C199 1.291 . S
C200 C201 1.373 . S
C200 H213 0.929 . S
C201 C200 1.373 . S
C201 C202 1.396 . S
C201 C208 1.403 . S
C202 C192 1.476 . S
C202 N197 1.318 . S
C202 C201 1.396 . S
H203 C198 0.929 . S
O204 Mn180 2.385 . S
O204 C182 1.234 . S
O205 Mn180 2.209 . S
O205 Mn181 2.215 . S
O205 C182 1.283 . S
O206 Mn180 2.094 . S
O206 C184 1.240 . S
O207 Mn181 2.117 . S
O207 C184 1.264 . S
C208 C201 1.403 . S
C208 C209 1.399 . S
C208 H214 0.929 . S
C209 C189 1.449 . S
C209 C208 1.399 . S
C209 H215 0.930 . S
H210 C190 0.931 . S
H211 C191 0.930 . S
H212 C199 0.931 . S
H213 C200 0.929 . S
H214 C208 0.929 . S
H215 C209 0.930 . S
Mn216 O221 2.095 . S
Mn216 O231 2.162 . S
Mn216 O232 2.297 . S
Mn216 O240 2.385 . S
Mn216 O241 2.209 . S
Mn216 O242 2.094 . S
Mn217 O222 2.121 . S
Mn217 N224 2.257 . S
Mn217 N233 2.282 . S
Mn217 O241 2.215 . S
Mn217 O243 2.117 . S
C218 O240 1.234 . S
C218 O241 1.283 . S
C219 O231 1.281 . S
C219 O232 1.236 . S
C220 O242 1.240 . S
C220 O243 1.264 . S
O221 Mn216 2.095 . S
O221 C230 1.250 . S
O222 Mn217 2.121 . S
O222 C230 1.258 . S
C223 N224 1.326 . S
C223 C227 1.460 . S
C223 H229 0.929 . S
N224 Mn217 2.257 . S
N224 C223 1.326 . S
N224 C228 1.362 . S
C225 C226 1.258 . S
C225 C228 1.431 . S
C225 C245 1.449 . S
C226 C225 1.258 . S
C226 C227 1.477 . S
C226 H246 0.931 . S
C227 C223 1.460 . S
C227 C226 1.477 . S
C227 H247 0.930 . S
C228 N224 1.362 . S
C228 C225 1.431 . S
C228 C238 1.476 . S
H229 C223 0.929 . S
C230 O221 1.250 . S
C230 O222 1.258 . S
O231 Mn216 2.162 . S
O231 C219 1.281 . S
O232 Mn216 2.297 . S
O232 C219 1.236 . S
N233 Mn217 2.282 . S
N233 C234 1.328 . S
N233 C238 1.318 . S
C234 N233 1.328 . S
C234 C235 1.457 . S
C234 H239 0.929 . S
C235 C234 1.457 . S
C235 C236 1.291 . S
C235 H248 0.931 . S
C236 C235 1.291 . S
C236 C237 1.373 . S
C236 H249 0.929 . S
C237 C236 1.373 . S
C237 C238 1.396 . S
C237 C244 1.403 . S
C238 C228 1.476 . S
C238 N233 1.318 . S
C238 C237 1.396 . S
H239 C234 0.929 . S
O240 Mn216 2.385 . S
O240 C218 1.234 . S
O241 Mn216 2.209 . S
O241 Mn217 2.215 . S
O241 C218 1.283 . S
O242 Mn216 2.094 . S
O242 C220 1.240 . S
O243 Mn217 2.117 . S
O243 C220 1.264 . S
C244 C237 1.403 . S
C244 C245 1.399 . S
C244 H250 0.929 . S
C245 C225 1.449 . S
C245 C244 1.399 . S
C245 H251 0.930 . S
H246 C226 0.931 . S
H247 C227 0.930 . S
H248 C235 0.931 . S
H249 C236 0.929 . S
H250 C244 0.929 . S
H251 C245 0.930 . S
Mn252 O257 2.095 . S
Mn252 O267 2.162 1_545 S
Mn252 O268 2.297 . S
Mn252 O276 2.385 . S
Mn252 O277 2.209 . S
Mn252 O278 2.094 . S
Mn253 O258 2.121 . S
Mn253 N260 2.257 . S
Mn253 N269 2.282 . S
Mn253 O277 2.215 . S
Mn253 O279 2.117 . S
C254 O276 1.234 . S
C254 O277 1.283 . S
C255 O267 1.281 . S
C255 O268 1.236 1_565 S
C256 O278 1.240 . S
C256 O279 1.264 . S
O257 Mn252 2.095 . S
O257 C266 1.250 . S
O258 Mn253 2.121 . S
O258 C266 1.258 . S
C259 N260 1.326 . S
C259 C263 1.460 . S
C259 H265 0.929 . S
N260 Mn253 2.257 . S
N260 C259 1.326 . S
N260 C264 1.362 . S
C261 C262 1.258 . S
C261 C264 1.431 . S
C261 C281 1.449 . S
C262 C261 1.258 . S
C262 C263 1.477 . S
C262 H282 0.931 . S
C263 C259 1.460 . S
C263 C262 1.477 . S
C263 H283 0.930 . S
C264 N260 1.362 . S
C264 C261 1.431 . S
C264 C274 1.476 . S
H265 C259 0.929 . S
C266 O257 1.250 . S
C266 O258 1.258 . S
O267 Mn252 2.162 1_565 S
O267 C255 1.281 . S
O268 Mn252 2.297 . S
O268 C255 1.236 1_545 S
N269 Mn253 2.282 . S
N269 C270 1.328 . S
N269 C274 1.318 . S
C270 N269 1.328 . S
C270 C271 1.457 . S
C270 H275 0.929 . S
C271 C270 1.457 . S
C271 C272 1.291 . S
C271 H284 0.931 . S
C272 C271 1.291 . S
C272 C273 1.373 . S
C272 H285 0.929 . S
C273 C272 1.373 . S
C273 C274 1.396 . S
C273 C280 1.403 . S
C274 C264 1.476 . S
C274 N269 1.318 . S
C274 C273 1.396 . S
H275 C270 0.929 . S
O276 Mn252 2.385 . S
O276 C254 1.234 . S
O277 Mn252 2.209 . S
O277 Mn253 2.215 . S
O277 C254 1.283 . S
O278 Mn252 2.094 . S
O278 C256 1.240 . S
O279 Mn253 2.117 . S
O279 C256 1.264 . S
C280 C273 1.403 . S
C280 C281 1.399 . S
C280 H286 0.929 . S
C281 C261 1.449 . S
C281 C280 1.399 . S
C281 H287 0.930 . S
H282 C262 0.931 . S
H283 C263 0.930 . S
H284 C271 0.931 . S
H285 C272 0.929 . S
H286 C280 0.929 . S
H287 C281 0.930 . S
Mn288 O293 2.095 . S
Mn288 O303 2.162 . S
Mn288 O304 2.297 . S
Mn288 O312 2.385 . S
Mn288 O313 2.209 . S
Mn288 O314 2.094 . S
Mn289 O294 2.121 . S
Mn289 N296 2.257 . S
Mn289 N305 2.282 . S
Mn289 O313 2.215 . S
Mn289 O315 2.117 . S
C290 O312 1.234 . S
C290 O313 1.283 . S
C291 O303 1.281 . S
C291 O304 1.236 . S
C292 O314 1.240 . S
C292 O315 1.264 . S
O293 Mn288 2.095 . S
O293 C302 1.250 . S
O294 Mn289 2.121 . S
O294 C302 1.258 . S
C295 N296 1.326 . S
C295 C299 1.460 . S
C295 H301 0.929 . S
N296 Mn289 2.257 . S
N296 C295 1.326 . S
N296 C300 1.362 . S
C297 C298 1.258 . S
C297 C300 1.431 . S
C297 C317 1.449 . S
C298 C297 1.258 . S
C298 C299 1.477 . S
C298 H318 0.931 . S
C299 C295 1.460 . S
C299 C298 1.477 . S
C299 H319 0.930 . S
C300 N296 1.362 . S
C300 C297 1.431 . S
C300 C310 1.476 . S
H301 C295 0.929 . S
C302 O293 1.250 . S
C302 O294 1.258 . S
O303 Mn288 2.162 . S
O303 C291 1.281 . S
O304 Mn288 2.297 . S
O304 C291 1.236 . S
N305 Mn289 2.282 . S
N305 C306 1.328 . S
N305 C310 1.318 . S
C306 N305 1.328 . S
C306 C307 1.457 . S
C306 H311 0.929 . S
C307 C306 1.457 . S
C307 C308 1.291 . S
C307 H320 0.931 . S
C308 C307 1.291 . S
C308 C309 1.373 . S
C308 H321 0.929 . S
C309 C308 1.373 . S
C309 C310 1.396 . S
C309 C316 1.403 . S
C310 C300 1.476 . S
C310 N305 1.318 . S
C310 C309 1.396 . S
H311 C306 0.929 . S
O312 Mn288 2.385 . S
O312 C290 1.234 . S
O313 Mn288 2.209 . S
O313 Mn289 2.215 . S
O313 C290 1.283 . S
O314 Mn288 2.094 . S
O314 C292 1.240 . S
O315 Mn289 2.117 . S
O315 C292 1.264 . S
C316 C309 1.403 . S
C316 C317 1.399 . S
C316 H322 0.929 . S
C317 C297 1.449 . S
C317 C316 1.399 . S
C317 H323 0.930 . S
H318 C298 0.931 . S
H319 C299 0.930 . S
H320 C307 0.931 . S
H321 C308 0.929 . S
H322 C316 0.929 . S
H323 C317 0.930 . S
Mn324 O329 2.095 . S
Mn324 O339 2.162 . S
Mn324 O340 2.297 . S
Mn324 O348 2.385 . S
Mn324 O349 2.209 . S
Mn324 O350 2.094 1_545 S
Mn325 O330 2.121 . S
Mn325 N332 2.257 . S
Mn325 N341 2.282 . S
Mn325 O349 2.215 . S
Mn325 O351 2.117 . S
C326 O348 1.234 . S
C326 O349 1.283 . S
C327 O339 1.281 . S
C327 O340 1.236 . S
C328 O350 1.240 . S
C328 O351 1.264 1_565 S
O329 Mn324 2.095 . S
O329 C338 1.250 . S
O330 Mn325 2.121 . S
O330 C338 1.258 . S
C331 N332 1.326 . S
C331 C335 1.460 . S
C331 H337 0.929 . S
N332 Mn325 2.257 . S
N332 C331 1.326 . S
N332 C336 1.362 . S
C333 C334 1.258 . S
C333 C336 1.431 . S
C333 C353 1.449 . S
C334 C333 1.258 . S
C334 C335 1.477 . S
C334 H354 0.931 . S
C335 C331 1.460 . S
C335 C334 1.477 . S
C335 H355 0.930 . S
C336 N332 1.362 . S
C336 C333 1.431 . S
C336 C346 1.476 . S
H337 C331 0.929 . S
C338 O329 1.250 . S
C338 O330 1.258 . S
O339 Mn324 2.162 . S
O339 C327 1.281 . S
O340 Mn324 2.297 . S
O340 C327 1.236 . S
N341 Mn325 2.282 . S
N341 C342 1.328 . S
N341 C346 1.318 . S
C342 N341 1.328 . S
C342 C343 1.457 . S
C342 H347 0.929 . S
C343 C342 1.457 . S
C343 C344 1.291 . S
C343 H356 0.931 . S
C344 C343 1.291 . S
C344 C345 1.373 . S
C344 H357 0.929 . S
C345 C344 1.373 . S
C345 C346 1.396 . S
C345 C352 1.403 . S
C346 C336 1.476 . S
C346 N341 1.318 . S
C346 C345 1.396 . S
H347 C342 0.929 . S
O348 Mn324 2.385 . S
O348 C326 1.234 . S
O349 Mn324 2.209 . S
O349 Mn325 2.215 . S
O349 C326 1.283 . S
O350 Mn324 2.094 1_565 S
O350 C328 1.240 . S
O351 Mn325 2.117 . S
O351 C328 1.264 1_545 S
C352 C345 1.403 . S
C352 C353 1.399 . S
C352 H358 0.929 . S
C353 C333 1.449 . S
C353 C352 1.399 . S
C353 H359 0.930 . S
H354 C334 0.931 . S
H355 C335 0.930 . S
H356 C343 0.931 . S
H357 C344 0.929 . S
H358 C352 0.929 . S
H359 C353 0.930 . S
Mn360 O365 2.095 . S
Mn360 O375 2.162 . S
Mn360 O376 2.297 . S
Mn360 O384 2.385 . S
Mn360 O385 2.209 . S
Mn360 O386 2.094 . S
Mn361 O366 2.121 . S
Mn361 N368 2.257 . S
Mn361 N377 2.282 . S
Mn361 O385 2.215 . S
Mn361 O387 2.117 . S
C362 O384 1.234 . S
C362 O385 1.283 . S
C363 O375 1.281 . S
C363 O376 1.236 . S
C364 O386 1.240 . S
C364 O387 1.264 . S
O365 Mn360 2.095 . S
O365 C374 1.250 . S
O366 Mn361 2.121 . S
O366 C374 1.258 . S
C367 N368 1.326 . S
C367 C371 1.460 . S
C367 H373 0.929 . S
N368 Mn361 2.257 . S
N368 C367 1.326 . S
N368 C372 1.362 . S
C369 C370 1.258 . S
C369 C372 1.431 . S
C369 C389 1.449 . S
C370 C369 1.258 . S
C370 C371 1.477 . S
C370 H390 0.931 . S
C371 C367 1.460 . S
C371 C370 1.477 . S
C371 H391 0.930 . S
C372 N368 1.362 . S
C372 C369 1.431 . S
C372 C382 1.476 . S
H373 C367 0.929 . S
C374 O365 1.250 . S
C374 O366 1.258 . S
O375 Mn360 2.162 . S
O375 C363 1.281 . S
O376 Mn360 2.297 . S
O376 C363 1.236 . S
N377 Mn361 2.282 . S
N377 C378 1.328 . S
N377 C382 1.318 . S
C378 N377 1.328 . S
C378 C379 1.457 . S
C378 H383 0.929 . S
C379 C378 1.457 . S
C379 C380 1.291 . S
C379 H392 0.931 . S
C380 C379 1.291 . S
C380 C381 1.373 . S
C380 H393 0.929 . S
C381 C380 1.373 . S
C381 C382 1.396 . S
C381 C388 1.403 . S
C382 C372 1.476 . S
C382 N377 1.318 . S
C382 C381 1.396 . S
H383 C378 0.929 . S
O384 Mn360 2.385 . S
O384 C362 1.234 . S
O385 Mn360 2.209 . S
O385 Mn361 2.215 . S
O385 C362 1.283 . S
O386 Mn360 2.094 . S
O386 C364 1.240 . S
O387 Mn361 2.117 . S
O387 C364 1.264 . S
C388 C381 1.403 . S
C388 C389 1.399 . S
C388 H394 0.929 . S
C389 C369 1.449 . S
C389 C388 1.399 . S
C389 H395 0.930 . S
H390 C370 0.931 . S
H391 C371 0.930 . S
H392 C379 0.931 . S
H393 C380 0.929 . S
H394 C388 0.929 . S
H395 C389 0.930 . S
Mn396 O401 2.095 . S
Mn396 O411 2.162 . S
Mn396 O412 2.297 . S
Mn396 O420 2.385 . S
Mn396 O421 2.209 . S
Mn396 O422 2.094 1_565 S
Mn397 O402 2.121 . S
Mn397 N404 2.257 . S
Mn397 N413 2.282 . S
Mn397 O421 2.215 . S
Mn397 O423 2.117 . S
C398 O420 1.234 . S
C398 O421 1.283 . S
C399 O411 1.281 . S
C399 O412 1.236 . S
C400 O422 1.240 . S
C400 O423 1.264 1_545 S
O401 Mn396 2.095 . S
O401 C410 1.250 . S
O402 Mn397 2.121 . S
O402 C410 1.258 . S
C403 N404 1.326 . S
C403 C407 1.460 . S
C403 H409 0.929 . S
N404 Mn397 2.257 . S
N404 C403 1.326 . S
N404 C408 1.362 . S
C405 C406 1.258 . S
C405 C408 1.431 . S
C405 C425 1.449 . S
C406 C405 1.258 . S
C406 C407 1.477 . S
C406 H426 0.931 . S
C407 C403 1.460 . S
C407 C406 1.477 . S
C407 H427 0.930 . S
C408 N404 1.362 . S
C408 C405 1.431 . S
C408 C418 1.476 . S
H409 C403 0.929 . S
C410 O401 1.250 . S
C410 O402 1.258 . S
O411 Mn396 2.162 . S
O411 C399 1.281 . S
O412 Mn396 2.297 . S
O412 C399 1.236 . S
N413 Mn397 2.282 . S
N413 C414 1.328 . S
N413 C418 1.318 . S
C414 N413 1.328 . S
C414 C415 1.457 . S
C414 H419 0.929 . S
C415 C414 1.457 . S
C415 C416 1.291 . S
C415 H428 0.931 . S
C416 C415 1.291 . S
C416 C417 1.373 . S
C416 H429 0.929 . S
C417 C416 1.373 . S
C417 C418 1.396 . S
C417 C424 1.403 . S
C418 C408 1.476 . S
C418 N413 1.318 . S
C418 C417 1.396 . S
H419 C414 0.929 . S
O420 Mn396 2.385 . S
O420 C398 1.234 . S
O421 Mn396 2.209 . S
O421 Mn397 2.215 . S
O421 C398 1.283 . S
O422 Mn396 2.094 1_545 S
O422 C400 1.240 . S
O423 Mn397 2.117 . S
O423 C400 1.264 1_565 S
C424 C417 1.403 . S
C424 C425 1.399 . S
C424 H430 0.929 . S
C425 C405 1.449 . S
C425 C424 1.399 . S
C425 H431 0.930 . S
H426 C406 0.931 . S
H427 C407 0.930 . S
H428 C415 0.931 . S
H429 C416 0.929 . S
H430 C424 0.929 . S
H431 C425 0.930 . S
Mn432 O437 2.095 . S
Mn432 O447 2.162 . S
Mn432 O448 2.297 . S
Mn432 O456 2.385 . S
Mn432 O457 2.209 . S
Mn432 O458 2.094 . S
Mn433 O438 2.121 . S
Mn433 N440 2.257 . S
Mn433 N449 2.282 . S
Mn433 O457 2.215 . S
Mn433 O459 2.117 . S
C434 O456 1.234 . S
C434 O457 1.283 . S
C435 O447 1.281 . S
C435 O448 1.236 . S
C436 O458 1.240 . S
C436 O459 1.264 . S
O437 Mn432 2.095 . S
O437 C446 1.250 . S
O438 Mn433 2.121 . S
O438 C446 1.258 . S
C439 N440 1.326 . S
C439 C443 1.460 . S
C439 H445 0.929 . S
N440 Mn433 2.257 . S
N440 C439 1.326 . S
N440 C444 1.362 . S
C441 C442 1.258 . S
C441 C444 1.431 . S
C441 C461 1.449 . S
C442 C441 1.258 . S
C442 C443 1.477 . S
C442 H462 0.931 . S
C443 C439 1.460 . S
C443 C442 1.477 . S
C443 H463 0.930 . S
C444 N440 1.362 . S
C444 C441 1.431 . S
C444 C454 1.476 . S
H445 C439 0.929 . S
C446 O437 1.250 . S
C446 O438 1.258 . S
O447 Mn432 2.162 . S
O447 C435 1.281 . S
O448 Mn432 2.297 . S
O448 C435 1.236 . S
N449 Mn433 2.282 . S
N449 C450 1.328 . S
N449 C454 1.318 . S
C450 N449 1.328 . S
C450 C451 1.457 . S
C450 H455 0.929 . S
C451 C450 1.457 . S
C451 C452 1.291 . S
C451 H464 0.931 . S
C452 C451 1.291 . S
C452 C453 1.373 . S
C452 H465 0.929 . S
C453 C452 1.373 . S
C453 C454 1.396 . S
C453 C460 1.403 . S
C454 C444 1.476 . S
C454 N449 1.318 . S
C454 C453 1.396 . S
H455 C450 0.929 . S
O456 Mn432 2.385 . S
O456 C434 1.234 . S
O457 Mn432 2.209 . S
O457 Mn433 2.215 . S
O457 C434 1.283 . S
O458 Mn432 2.094 . S
O458 C436 1.240 . S
O459 Mn433 2.117 . S
O459 C436 1.264 . S
C460 C453 1.403 . S
C460 C461 1.399 . S
C460 H466 0.929 . S
C461 C441 1.449 . S
C461 C460 1.399 . S
C461 H467 0.930 . S
H462 C442 0.931 . S
H463 C443 0.930 . S
H464 C451 0.931 . S
H465 C452 0.929 . S
H466 C460 0.929 . S
H467 C461 0.930 . S
Mn468 O473 2.095 . S
Mn468 O483 2.162 . S
Mn468 O484 2.297 . S
Mn468 O492 2.385 . S
Mn468 O493 2.209 . S
Mn468 O494 2.094 1_545 S
Mn469 O474 2.121 . S
Mn469 N476 2.257 . S
Mn469 N485 2.282 . S
Mn469 O493 2.215 . S
Mn469 O495 2.117 . S
C470 O492 1.234 . S
C470 O493 1.283 . S
C471 O483 1.281 . S
C471 O484 1.236 . S
C472 O494 1.240 . S
C472 O495 1.264 1_565 S
O473 Mn468 2.095 . S
O473 C482 1.250 . S
O474 Mn469 2.121 . S
O474 C482 1.258 . S
C475 N476 1.326 . S
C475 C479 1.460 . S
C475 H481 0.929 . S
N476 Mn469 2.257 . S
N476 C475 1.326 . S
N476 C480 1.362 . S
C477 C478 1.258 . S
C477 C480 1.431 . S
C477 C497 1.449 . S
C478 C477 1.258 . S
C478 C479 1.477 . S
C478 H498 0.931 . S
C479 C475 1.460 . S
C479 C478 1.477 . S
C479 H499 0.930 . S
C480 N476 1.362 . S
C480 C477 1.431 . S
C480 C490 1.476 . S
H481 C475 0.929 . S
C482 O473 1.250 . S
C482 O474 1.258 . S
O483 Mn468 2.162 . S
O483 C471 1.281 . S
O484 Mn468 2.297 . S
O484 C471 1.236 . S
N485 Mn469 2.282 . S
N485 C486 1.328 . S
N485 C490 1.318 . S
C486 N485 1.328 . S
C486 C487 1.457 . S
C486 H491 0.929 . S
C487 C486 1.457 . S
C487 C488 1.291 . S
C487 H500 0.931 . S
C488 C487 1.291 . S
C488 C489 1.373 . S
C488 H501 0.929 . S
C489 C488 1.373 . S
C489 C490 1.396 . S
C489 C496 1.403 . S
C490 C480 1.476 . S
C490 N485 1.318 . S
C490 C489 1.396 . S
H491 C486 0.929 . S
O492 Mn468 2.385 . S
O492 C470 1.234 . S
O493 Mn468 2.209 . S
O493 Mn469 2.215 . S
O493 C470 1.283 . S
O494 Mn468 2.094 1_565 S
O494 C472 1.240 . S
O495 Mn469 2.117 . S
O495 C472 1.264 1_545 S
C496 C489 1.403 . S
C496 C497 1.399 . S
C496 H502 0.929 . S
C497 C477 1.449 . S
C497 C496 1.399 . S
C497 H503 0.930 . S
H498 C478 0.931 . S
H499 C479 0.930 . S
H500 C487 0.931 . S
H501 C488 0.929 . S
H502 C496 0.929 . S
H503 C497 0.930 . S
Mn504 O509 2.095 . S
Mn504 O519 2.162 . S
Mn504 O520 2.297 . S
Mn504 O528 2.385 . S
Mn504 O529 2.209 . S
Mn504 O530 2.094 . S
Mn505 O510 2.121 . S
Mn505 N512 2.257 . S
Mn505 N521 2.282 . S
Mn505 O529 2.215 . S
Mn505 O531 2.117 . S
C506 O528 1.234 . S
C506 O529 1.283 . S
C507 O519 1.281 . S
C507 O520 1.236 . S
C508 O530 1.240 . S
C508 O531 1.264 . S
O509 Mn504 2.095 . S
O509 C518 1.250 . S
O510 Mn505 2.121 . S
O510 C518 1.258 . S
C511 N512 1.326 . S
C511 C515 1.460 . S
C511 H517 0.929 . S
N512 Mn505 2.257 . S
N512 C511 1.326 . S
N512 C516 1.362 . S
C513 C514 1.258 . S
C513 C516 1.431 . S
C513 C533 1.449 . S
C514 C513 1.258 . S
C514 C515 1.477 . S
C514 H534 0.931 . S
C515 C511 1.460 . S
C515 C514 1.477 . S
C515 H535 0.930 . S
C516 N512 1.362 . S
C516 C513 1.431 . S
C516 C526 1.476 . S
H517 C511 0.929 . S
C518 O509 1.250 . S
C518 O510 1.258 . S
O519 Mn504 2.162 . S
O519 C507 1.281 . S
O520 Mn504 2.297 . S
O520 C507 1.236 . S
N521 Mn505 2.282 . S
N521 C522 1.328 . S
N521 C526 1.318 . S
C522 N521 1.328 . S
C522 C523 1.457 . S
C522 H527 0.929 . S
C523 C522 1.457 . S
C523 C524 1.291 . S
C523 H536 0.931 . S
C524 C523 1.291 . S
C524 C525 1.373 . S
C524 H537 0.929 . S
C525 C524 1.373 . S
C525 C526 1.396 . S
C525 C532 1.403 . S
C526 C516 1.476 . S
C526 N521 1.318 . S
C526 C525 1.396 . S
H527 C522 0.929 . S
O528 Mn504 2.385 . S
O528 C506 1.234 . S
O529 Mn504 2.209 . S
O529 Mn505 2.215 . S
O529 C506 1.283 . S
O530 Mn504 2.094 . S
O530 C508 1.240 . S
O531 Mn505 2.117 . S
O531 C508 1.264 . S
C532 C525 1.403 . S
C532 C533 1.399 . S
C532 H538 0.929 . S
C533 C513 1.449 . S
C533 C532 1.399 . S
C533 H539 0.930 . S
H534 C514 0.931 . S
H535 C515 0.930 . S
H536 C523 0.931 . S
H537 C524 0.929 . S
H538 C532 0.929 . S
H539 C533 0.930 . S
Mn540 O545 2.095 . S
Mn540 O555 2.162 . S
Mn540 O556 2.297 . S
Mn540 O564 2.385 . S
Mn540 O565 2.209 . S
Mn540 O566 2.094 1_565 S
Mn541 O546 2.121 . S
Mn541 N548 2.257 . S
Mn541 N557 2.282 . S
Mn541 O565 2.215 . S
Mn541 O567 2.117 . S
C542 O564 1.234 . S
C542 O565 1.283 . S
C543 O555 1.281 . S
C543 O556 1.236 . S
C544 O566 1.240 . S
C544 O567 1.264 1_545 S
O545 Mn540 2.095 . S
O545 C554 1.250 . S
O546 Mn541 2.121 . S
O546 C554 1.258 . S
C547 N548 1.326 . S
C547 C551 1.460 . S
C547 H553 0.929 . S
N548 Mn541 2.257 . S
N548 C547 1.326 . S
N548 C552 1.362 . S
C549 C550 1.258 . S
C549 C552 1.431 . S
C549 C569 1.449 . S
C550 C549 1.258 . S
C550 C551 1.477 . S
C550 H570 0.931 . S
C551 C547 1.460 . S
C551 C550 1.477 . S
C551 H571 0.930 . S
C552 N548 1.362 . S
C552 C549 1.431 . S
C552 C562 1.476 . S
H553 C547 0.929 . S
C554 O545 1.250 . S
C554 O546 1.258 . S
O555 Mn540 2.162 . S
O555 C543 1.281 . S
O556 Mn540 2.297 . S
O556 C543 1.236 . S
N557 Mn541 2.282 . S
N557 C558 1.328 . S
N557 C562 1.318 . S
C558 N557 1.328 . S
C558 C559 1.457 . S
C558 H563 0.929 . S
C559 C558 1.457 . S
C559 C560 1.291 . S
C559 H572 0.931 . S
C560 C559 1.291 . S
C560 C561 1.373 . S
C560 H573 0.929 . S
C561 C560 1.373 . S
C561 C562 1.396 . S
C561 C568 1.403 . S
C562 C552 1.476 . S
C562 N557 1.318 . S
C562 C561 1.396 . S
H563 C558 0.929 . S
O564 Mn540 2.385 . S
O564 C542 1.234 . S
O565 Mn540 2.209 . S
O565 Mn541 2.215 . S
O565 C542 1.283 . S
O566 Mn540 2.094 1_545 S
O566 C544 1.240 . S
O567 Mn541 2.117 . S
O567 C544 1.264 1_565 S
C568 C561 1.403 . S
C568 C569 1.399 . S
C568 H574 0.929 . S
C569 C549 1.449 . S
C569 C568 1.399 . S
C569 H575 0.930 . S
H570 C550 0.931 . S
H571 C551 0.930 . S
H572 C559 0.931 . S
H573 C560 0.929 . S
H574 C568 0.929 . S
H575 C569 0.930 . S
Mn576 O581 2.095 . S
Mn576 O591 2.162 . S
Mn576 O592 2.297 . S
Mn576 O600 2.385 . S
Mn576 O601 2.209 . S
Mn576 O602 2.094 . S
Mn577 O582 2.121 . S
Mn577 N584 2.257 . S
Mn577 N593 2.282 . S
Mn577 O601 2.215 . S
Mn577 O603 2.117 . S
C578 O600 1.234 . S
C578 O601 1.283 . S
C579 O591 1.281 . S
C579 O592 1.236 . S
C580 O602 1.240 . S
C580 O603 1.264 . S
O581 Mn576 2.095 . S
O581 C590 1.250 . S
O582 Mn577 2.121 . S
O582 C590 1.258 . S
C583 N584 1.326 . S
C583 C587 1.460 . S
C583 H589 0.929 . S
N584 Mn577 2.257 . S
N584 C583 1.326 . S
N584 C588 1.362 . S
C585 C586 1.258 . S
C585 C588 1.431 . S
C585 C605 1.449 . S
C586 C585 1.258 . S
C586 C587 1.477 . S
C586 H606 0.931 . S
C587 C583 1.460 . S
C587 C586 1.477 . S
C587 H607 0.930 . S
C588 N584 1.362 . S
C588 C585 1.431 . S
C588 C598 1.476 . S
H589 C583 0.929 . S
C590 O581 1.250 . S
C590 O582 1.258 . S
O591 Mn576 2.162 . S
O591 C579 1.281 . S
O592 Mn576 2.297 . S
O592 C579 1.236 . S
N593 Mn577 2.282 . S
N593 C594 1.328 . S
N593 C598 1.318 . S
C594 N593 1.328 . S
C594 C595 1.457 . S
C594 H599 0.929 . S
C595 C594 1.457 . S
C595 C596 1.291 . S
C595 H608 0.931 . S
C596 C595 1.291 . S
C596 C597 1.373 . S
C596 H609 0.929 . S
C597 C596 1.373 . S
C597 C598 1.396 . S
C597 C604 1.403 . S
C598 C588 1.476 . S
C598 N593 1.318 . S
C598 C597 1.396 . S
H599 C594 0.929 . S
O600 Mn576 2.385 . S
O600 C578 1.234 . S
O601 Mn576 2.209 . S
O601 Mn577 2.215 . S
O601 C578 1.283 . S
O602 Mn576 2.094 . S
O602 C580 1.240 . S
O603 Mn577 2.117 . S
O603 C580 1.264 . S
C604 C597 1.403 . S
C604 C605 1.399 . S
C604 H610 0.929 . S
C605 C585 1.449 . S
C605 C604 1.399 . S
C605 H611 0.930 . S
H606 C586 0.931 . S
H607 C587 0.930 . S
H608 C595 0.931 . S
H609 C596 0.929 . S
H610 C604 0.929 . S
H611 C605 0.930 . S
Mn612 O617 2.095 . S
Mn612 O627 2.162 . S
Mn612 O628 2.297 . S
Mn612 O636 2.385 . S
Mn612 O637 2.209 . S
Mn612 O638 2.094 . S
Mn613 O618 2.121 . S
Mn613 N620 2.257 . S
Mn613 N629 2.282 . S
Mn613 O637 2.215 . S
Mn613 O639 2.117 . S
C614 O636 1.234 . S
C614 O637 1.283 . S
C615 O627 1.281 . S
C615 O628 1.236 . S
C616 O638 1.240 . S
C616 O639 1.264 . S
O617 Mn612 2.095 . S
O617 C626 1.250 . S
O618 Mn613 2.121 . S
O618 C626 1.258 . S
C619 N620 1.326 . S
C619 C623 1.460 . S
C619 H625 0.929 . S
N620 Mn613 2.257 . S
N620 C619 1.326 . S
N620 C624 1.362 . S
C621 C622 1.258 . S
C621 C624 1.431 . S
C621 C641 1.449 . S
C622 C621 1.258 . S
C622 C623 1.477 . S
C622 H642 0.931 . S
C623 C619 1.460 . S
C623 C622 1.477 . S
C623 H643 0.930 . S
C624 N620 1.362 . S
C624 C621 1.431 . S
C624 C634 1.476 . S
H625 C619 0.929 . S
C626 O617 1.250 . S
C626 O618 1.258 . S
O627 Mn612 2.162 . S
O627 C615 1.281 . S
O628 Mn612 2.297 . S
O628 C615 1.236 . S
N629 Mn613 2.282 . S
N629 C630 1.328 . S
N629 C634 1.318 . S
C630 N629 1.328 . S
C630 C631 1.457 . S
C630 H635 0.929 . S
C631 C630 1.457 . S
C631 C632 1.291 . S
C631 H644 0.931 . S
C632 C631 1.291 . S
C632 C633 1.373 . S
C632 H645 0.929 . S
C633 C632 1.373 . S
C633 C634 1.396 . S
C633 C640 1.403 . S
C634 C624 1.476 . S
C634 N629 1.318 . S
C634 C633 1.396 . S
H635 C630 0.929 . S
O636 Mn612 2.385 . S
O636 C614 1.234 . S
O637 Mn612 2.209 . S
O637 Mn613 2.215 . S
O637 C614 1.283 . S
O638 Mn612 2.094 . S
O638 C616 1.240 . S
O639 Mn613 2.117 . S
O639 C616 1.264 . S
C640 C633 1.403 . S
C640 C641 1.399 . S
C640 H646 0.929 . S
C641 C621 1.449 . S
C641 C640 1.399 . S
C641 H647 0.930 . S
H642 C622 0.931 . S
H643 C623 0.930 . S
H644 C631 0.931 . S
H645 C632 0.929 . S
H646 C640 0.929 . S
H647 C641 0.930 . S
Mn648 O653 2.095 . S
Mn648 O663 2.162 . S
Mn648 O664 2.297 . S
Mn648 O672 2.385 . S
Mn648 O673 2.209 . S
Mn648 O674 2.094 . S
Mn649 O654 2.121 . S
Mn649 N656 2.257 . S
Mn649 N665 2.282 . S
Mn649 O673 2.215 . S
Mn649 O675 2.117 . S
C650 O672 1.234 . S
C650 O673 1.283 . S
C651 O663 1.281 . S
C651 O664 1.236 . S
C652 O674 1.240 . S
C652 O675 1.264 . S
O653 Mn648 2.095 . S
O653 C662 1.250 . S
O654 Mn649 2.121 . S
O654 C662 1.258 . S
C655 N656 1.326 . S
C655 C659 1.460 . S
C655 H661 0.929 . S
N656 Mn649 2.257 . S
N656 C655 1.326 . S
N656 C660 1.362 . S
C657 C658 1.258 . S
C657 C660 1.431 . S
C657 C677 1.449 . S
C658 C657 1.258 . S
C658 C659 1.477 . S
C658 H678 0.931 . S
C659 C655 1.460 . S
C659 C658 1.477 . S
C659 H679 0.930 . S
C660 N656 1.362 . S
C660 C657 1.431 . S
C660 C670 1.476 . S
H661 C655 0.929 . S
C662 O653 1.250 . S
C662 O654 1.258 . S
O663 Mn648 2.162 . S
O663 C651 1.281 . S
O664 Mn648 2.297 . S
O664 C651 1.236 . S
N665 Mn649 2.282 . S
N665 C666 1.328 . S
N665 C670 1.318 . S
C666 N665 1.328 . S
C666 C667 1.457 . S
C666 H671 0.929 . S
C667 C666 1.457 . S
C667 C668 1.291 . S
C667 H680 0.931 . S
C668 C667 1.291 . S
C668 C669 1.373 . S
C668 H681 0.929 . S
C669 C668 1.373 . S
C669 C670 1.396 . S
C669 C676 1.403 . S
C670 C660 1.476 . S
C670 N665 1.318 . S
C670 C669 1.396 . S
H671 C666 0.929 . S
O672 Mn648 2.385 . S
O672 C650 1.234 . S
O673 Mn648 2.209 . S
O673 Mn649 2.215 . S
O673 C650 1.283 . S
O674 Mn648 2.094 . S
O674 C652 1.240 . S
O675 Mn649 2.117 . S
O675 C652 1.264 . S
C676 C669 1.403 . S
C676 C677 1.399 . S
C676 H682 0.929 . S
C677 C657 1.449 . S
C677 C676 1.399 . S
C677 H683 0.930 . S
H678 C658 0.931 . S
H679 C659 0.930 . S
H680 C667 0.931 . S
H681 C668 0.929 . S
H682 C676 0.929 . S
H683 C677 0.930 . S
Mn684 O689 2.095 . S
Mn684 O699 2.162 . S
Mn684 O700 2.297 . S
Mn684 O708 2.385 . S
Mn684 O709 2.209 . S
Mn684 O710 2.094 . S
Mn685 O690 2.121 . S
Mn685 N692 2.257 . S
Mn685 N701 2.282 . S
Mn685 O709 2.215 . S
Mn685 O711 2.117 . S
C686 O708 1.234 . S
C686 O709 1.283 . S
C687 O699 1.281 . S
C687 O700 1.236 . S
C688 O710 1.240 . S
C688 O711 1.264 . S
O689 Mn684 2.095 . S
O689 C698 1.250 . S
O690 Mn685 2.121 . S
O690 C698 1.258 . S
C691 N692 1.326 . S
C691 C695 1.460 . S
C691 H697 0.929 . S
N692 Mn685 2.257 . S
N692 C691 1.326 . S
N692 C696 1.362 . S
C693 C694 1.258 . S
C693 C696 1.431 . S
C693 C713 1.449 . S
C694 C693 1.258 . S
C694 C695 1.477 . S
C694 H714 0.931 . S
C695 C691 1.460 . S
C695 C694 1.477 . S
C695 H715 0.930 . S
C696 N692 1.362 . S
C696 C693 1.431 . S
C696 C706 1.476 . S
H697 C691 0.929 . S
C698 O689 1.250 . S
C698 O690 1.258 . S
O699 Mn684 2.162 . S
O699 C687 1.281 . S
O700 Mn684 2.297 . S
O700 C687 1.236 . S
N701 Mn685 2.282 . S
N701 C702 1.328 . S
N701 C706 1.318 . S
C702 N701 1.328 . S
C702 C703 1.457 . S
C702 H707 0.929 . S
C703 C702 1.457 . S
C703 C704 1.291 . S
C703 H716 0.931 . S
C704 C703 1.291 . S
C704 C705 1.373 . S
C704 H717 0.929 . S
C705 C704 1.373 . S
C705 C706 1.396 . S
C705 C712 1.403 . S
C706 C696 1.476 . S
C706 N701 1.318 . S
C706 C705 1.396 . S
H707 C702 0.929 . S
O708 Mn684 2.385 . S
O708 C686 1.234 . S
O709 Mn684 2.209 . S
O709 Mn685 2.215 . S
O709 C686 1.283 . S
O710 Mn684 2.094 . S
O710 C688 1.240 . S
O711 Mn685 2.117 . S
O711 C688 1.264 . S
C712 C705 1.403 . S
C712 C713 1.399 . S
C712 H718 0.929 . S
C713 C693 1.449 . S
C713 C712 1.399 . S
C713 H719 0.930 . S
H714 C694 0.931 . S
H715 C695 0.930 . S
H716 C703 0.931 . S
H717 C704 0.929 . S
H718 C712 0.929 . S
H719 C713 0.930 . S
Mn720 O725 2.095 . S
Mn720 O735 2.162 . S
Mn720 O736 2.297 . S
Mn720 O744 2.385 . S
Mn720 O745 2.209 . S
Mn720 O746 2.094 . S
Mn721 O726 2.121 . S
Mn721 N728 2.257 . S
Mn721 N737 2.282 . S
Mn721 O745 2.215 . S
Mn721 O747 2.117 . S
C722 O744 1.234 . S
C722 O745 1.283 . S
C723 O735 1.281 . S
C723 O736 1.236 . S
C724 O746 1.240 . S
C724 O747 1.264 . S
O725 Mn720 2.095 . S
O725 C734 1.250 . S
O726 Mn721 2.121 . S
O726 C734 1.258 . S
C727 N728 1.326 . S
C727 C731 1.460 . S
C727 H733 0.929 . S
N728 Mn721 2.257 . S
N728 C727 1.326 . S
N728 C732 1.362 . S
C729 C730 1.258 . S
C729 C732 1.431 . S
C729 C749 1.449 . S
C730 C729 1.258 . S
C730 C731 1.477 . S
C730 H750 0.931 . S
C731 C727 1.460 . S
C731 C730 1.477 . S
C731 H751 0.930 . S
C732 N728 1.362 . S
C732 C729 1.431 . S
C732 C742 1.476 . S
H733 C727 0.929 . S
C734 O725 1.250 . S
C734 O726 1.258 . S
O735 Mn720 2.162 . S
O735 C723 1.281 . S
O736 Mn720 2.297 . S
O736 C723 1.236 . S
N737 Mn721 2.282 . S
N737 C738 1.328 . S
N737 C742 1.318 . S
C738 N737 1.328 . S
C738 C739 1.457 . S
C738 H743 0.929 . S
C739 C738 1.457 . S
C739 C740 1.291 . S
C739 H752 0.931 . S
C740 C739 1.291 . S
C740 C741 1.373 . S
C740 H753 0.929 . S
C741 C740 1.373 . S
C741 C742 1.396 . S
C741 C748 1.403 . S
C742 C732 1.476 . S
C742 N737 1.318 . S
C742 C741 1.396 . S
H743 C738 0.929 . S
O744 Mn720 2.385 . S
O744 C722 1.234 . S
O745 Mn720 2.209 . S
O745 Mn721 2.215 . S
O745 C722 1.283 . S
O746 Mn720 2.094 . S
O746 C724 1.240 . S
O747 Mn721 2.117 . S
O747 C724 1.264 . S
C748 C741 1.403 . S
C748 C749 1.399 . S
C748 H754 0.929 . S
C749 C729 1.449 . S
C749 C748 1.399 . S
C749 H755 0.930 . S
H750 C730 0.931 . S
H751 C731 0.930 . S
H752 C739 0.931 . S
H753 C740 0.929 . S
H754 C748 0.929 . S
H755 C749 0.930 . S
Mn756 O761 2.095 . S
Mn756 O771 2.162 . S
Mn756 O772 2.297 . S
Mn756 O780 2.385 . S
Mn756 O781 2.209 . S
Mn756 O782 2.094 . S
Mn757 O762 2.121 . S
Mn757 N764 2.257 . S
Mn757 N773 2.282 . S
Mn757 O781 2.215 . S
Mn757 O783 2.117 . S
C758 O780 1.234 . S
C758 O781 1.283 . S
C759 O771 1.281 . S
C759 O772 1.236 . S
C760 O782 1.240 . S
C760 O783 1.264 . S
O761 Mn756 2.095 . S
O761 C770 1.250 . S
O762 Mn757 2.121 . S
O762 C770 1.258 . S
C763 N764 1.326 . S
C763 C767 1.460 . S
C763 H769 0.929 . S
N764 Mn757 2.257 . S
N764 C763 1.326 . S
N764 C768 1.362 . S
C765 C766 1.258 . S
C765 C768 1.431 . S
C765 C785 1.449 . S
C766 C765 1.258 . S
C766 C767 1.477 . S
C766 H786 0.931 . S
C767 C763 1.460 . S
C767 C766 1.477 . S
C767 H787 0.930 . S
C768 N764 1.362 . S
C768 C765 1.431 . S
C768 C778 1.476 . S
H769 C763 0.929 . S
C770 O761 1.250 . S
C770 O762 1.258 . S
O771 Mn756 2.162 . S
O771 C759 1.281 . S
O772 Mn756 2.297 . S
O772 C759 1.236 . S
N773 Mn757 2.282 . S
N773 C774 1.328 . S
N773 C778 1.318 . S
C774 N773 1.328 . S
C774 C775 1.457 . S
C774 H779 0.929 . S
C775 C774 1.457 . S
C775 C776 1.291 . S
C775 H788 0.931 . S
C776 C775 1.291 . S
C776 C777 1.373 . S
C776 H789 0.929 . S
C777 C776 1.373 . S
C777 C778 1.396 . S
C777 C784 1.403 . S
C778 C768 1.476 . S
C778 N773 1.318 . S
C778 C777 1.396 . S
H779 C774 0.929 . S
O780 Mn756 2.385 . S
O780 C758 1.234 . S
O781 Mn756 2.209 . S
O781 Mn757 2.215 . S
O781 C758 1.283 . S
O782 Mn756 2.094 . S
O782 C760 1.240 . S
O783 Mn757 2.117 . S
O783 C760 1.264 . S
C784 C777 1.403 . S
C784 C785 1.399 . S
C784 H790 0.929 . S
C785 C765 1.449 . S
C785 C784 1.399 . S
C785 H791 0.930 . S
H786 C766 0.931 . S
H787 C767 0.930 . S
H788 C775 0.931 . S
H789 C776 0.929 . S
H790 C784 0.929 . S
H791 C785 0.930 . S
Mn792 O797 2.095 . S
Mn792 O807 2.162 . S
Mn792 O808 2.297 . S
Mn792 O816 2.385 . S
Mn792 O817 2.209 . S
Mn792 O818 2.094 . S
Mn793 O798 2.121 . S
Mn793 N800 2.257 . S
Mn793 N809 2.282 . S
Mn793 O817 2.215 . S
Mn793 O819 2.117 . S
C794 O816 1.234 . S
C794 O817 1.283 . S
C795 O807 1.281 . S
C795 O808 1.236 . S
C796 O818 1.240 . S
C796 O819 1.264 . S
O797 Mn792 2.095 . S
O797 C806 1.250 . S
O798 Mn793 2.121 . S
O798 C806 1.258 . S
C799 N800 1.326 . S
C799 C803 1.460 . S
C799 H805 0.929 . S
N800 Mn793 2.257 . S
N800 C799 1.326 . S
N800 C804 1.362 . S
C801 C802 1.258 . S
C801 C804 1.431 . S
C801 C821 1.449 . S
C802 C801 1.258 . S
C802 C803 1.477 . S
C802 H822 0.931 . S
C803 C799 1.460 . S
C803 C802 1.477 . S
C803 H823 0.930 . S
C804 N800 1.362 . S
C804 C801 1.431 . S
C804 C814 1.476 . S
H805 C799 0.929 . S
C806 O797 1.250 . S
C806 O798 1.258 . S
O807 Mn792 2.162 . S
O807 C795 1.281 . S
O808 Mn792 2.297 . S
O808 C795 1.236 . S
N809 Mn793 2.282 . S
N809 C810 1.328 . S
N809 C814 1.318 . S
C810 N809 1.328 . S
C810 C811 1.457 . S
C810 H815 0.929 . S
C811 C810 1.457 . S
C811 C812 1.291 . S
C811 H824 0.931 . S
C812 C811 1.291 . S
C812 C813 1.373 . S
C812 H825 0.929 . S
C813 C812 1.373 . S
C813 C814 1.396 . S
C813 C820 1.403 . S
C814 C804 1.476 . S
C814 N809 1.318 . S
C814 C813 1.396 . S
H815 C810 0.929 . S
O816 Mn792 2.385 . S
O816 C794 1.234 . S
O817 Mn792 2.209 . S
O817 Mn793 2.215 . S
O817 C794 1.283 . S
O818 Mn792 2.094 . S
O818 C796 1.240 . S
O819 Mn793 2.117 . S
O819 C796 1.264 . S
C820 C813 1.403 . S
C820 C821 1.399 . S
C820 H826 0.929 . S
C821 C801 1.449 . S
C821 C820 1.399 . S
C821 H827 0.930 . S
H822 C802 0.931 . S
H823 C803 0.930 . S
H824 C811 0.931 . S
H825 C812 0.929 . S
H826 C820 0.929 . S
H827 C821 0.930 . S
Mn828 O833 2.095 . S
Mn828 O843 2.162 . S
Mn828 O844 2.297 . S
Mn828 O852 2.385 . S
Mn828 O853 2.209 . S
Mn828 O854 2.094 . S
Mn829 O834 2.121 . S
Mn829 N836 2.257 . S
Mn829 N845 2.282 . S
Mn829 O853 2.215 . S
Mn829 O855 2.117 . S
C830 O852 1.234 . S
C830 O853 1.283 . S
C831 O843 1.281 . S
C831 O844 1.236 . S
C832 O854 1.240 . S
C832 O855 1.264 . S
O833 Mn828 2.095 . S
O833 C842 1.250 . S
O834 Mn829 2.121 . S
O834 C842 1.258 . S
C835 N836 1.326 . S
C835 C839 1.460 . S
C835 H841 0.929 . S
N836 Mn829 2.257 . S
N836 C835 1.326 . S
N836 C840 1.362 . S
C837 C838 1.258 . S
C837 C840 1.431 . S
C837 C857 1.449 . S
C838 C837 1.258 . S
C838 C839 1.477 . S
C838 H858 0.931 . S
C839 C835 1.460 . S
C839 C838 1.477 . S
C839 H859 0.930 . S
C840 N836 1.362 . S
C840 C837 1.431 . S
C840 C850 1.476 . S
H841 C835 0.929 . S
C842 O833 1.250 . S
C842 O834 1.258 . S
O843 Mn828 2.162 . S
O843 C831 1.281 . S
O844 Mn828 2.297 . S
O844 C831 1.236 . S
N845 Mn829 2.282 . S
N845 C846 1.328 . S
N845 C850 1.318 . S
C846 N845 1.328 . S
C846 C847 1.457 . S
C846 H851 0.929 . S
C847 C846 1.457 . S
C847 C848 1.291 . S
C847 H860 0.931 . S
C848 C847 1.291 . S
C848 C849 1.373 . S
C848 H861 0.929 . S
C849 C848 1.373 . S
C849 C850 1.396 . S
C849 C856 1.403 . S
C850 C840 1.476 . S
C850 N845 1.318 . S
C850 C849 1.396 . S
H851 C846 0.929 . S
O852 Mn828 2.385 . S
O852 C830 1.234 . S
O853 Mn828 2.209 . S
O853 Mn829 2.215 . S
O853 C830 1.283 . S
O854 Mn828 2.094 . S
O854 C832 1.240 . S
O855 Mn829 2.117 . S
O855 C832 1.264 . S
C856 C849 1.403 . S
C856 C857 1.399 . S
C856 H862 0.929 . S
C857 C837 1.449 . S
C857 C856 1.399 . S
C857 H863 0.930 . S
H858 C838 0.931 . S
H859 C839 0.930 . S
H860 C847 0.931 . S
H861 C848 0.929 . S
H862 C856 0.929 . S
H863 C857 0.930 . S
Mn864 O869 2.095 . S
Mn864 O879 2.162 . S
Mn864 O880 2.297 . S
Mn864 O888 2.385 . S
Mn864 O889 2.209 . S
Mn864 O890 2.094 . S
Mn865 O870 2.121 . S
Mn865 N872 2.257 . S
Mn865 N881 2.282 . S
Mn865 O889 2.215 . S
Mn865 O891 2.117 . S
C866 O888 1.234 . S
C866 O889 1.283 . S
C867 O879 1.281 . S
C867 O880 1.236 . S
C868 O890 1.240 . S
C868 O891 1.264 . S
O869 Mn864 2.095 . S
O869 C878 1.250 . S
O870 Mn865 2.121 . S
O870 C878 1.258 . S
C871 N872 1.326 . S
C871 C875 1.460 . S
C871 H877 0.929 . S
N872 Mn865 2.257 . S
N872 C871 1.326 . S
N872 C876 1.362 . S
C873 C874 1.258 . S
C873 C876 1.431 . S
C873 C893 1.449 . S
C874 C873 1.258 . S
C874 C875 1.477 . S
C874 H894 0.931 . S
C875 C871 1.460 . S
C875 C874 1.477 . S
C875 H895 0.930 . S
C876 N872 1.362 . S
C876 C873 1.431 . S
C876 C886 1.476 . S
H877 C871 0.929 . S
C878 O869 1.250 . S
C878 O870 1.258 . S
O879 Mn864 2.162 . S
O879 C867 1.281 . S
O880 Mn864 2.297 . S
O880 C867 1.236 . S
N881 Mn865 2.282 . S
N881 C882 1.328 . S
N881 C886 1.318 . S
C882 N881 1.328 . S
C882 C883 1.457 . S
C882 H887 0.929 . S
C883 C882 1.457 . S
C883 C884 1.291 . S
C883 H896 0.931 . S
C884 C883 1.291 . S
C884 C885 1.373 . S
C884 H897 0.929 . S
C885 C884 1.373 . S
C885 C886 1.396 . S
C885 C892 1.403 . S
C886 C876 1.476 . S
C886 N881 1.318 . S
C886 C885 1.396 . S
H887 C882 0.929 . S
O888 Mn864 2.385 . S
O888 C866 1.234 . S
O889 Mn864 2.209 . S
O889 Mn865 2.215 . S
O889 C866 1.283 . S
O890 Mn864 2.094 . S
O890 C868 1.240 . S
O891 Mn865 2.117 . S
O891 C868 1.264 . S
C892 C885 1.403 . S
C892 C893 1.399 . S
C892 H898 0.929 . S
C893 C873 1.449 . S
C893 C892 1.399 . S
C893 H899 0.930 . S
H894 C874 0.931 . S
H895 C875 0.930 . S
H896 C883 0.931 . S
H897 C884 0.929 . S
H898 C892 0.929 . S
H899 C893 0.930 . S
Mn900 O905 2.095 . S
Mn900 O915 2.162 . S
Mn900 O916 2.297 . S
Mn900 O924 2.385 . S
Mn900 O925 2.209 . S
Mn900 O926 2.094 . S
Mn901 O906 2.121 . S
Mn901 N908 2.257 . S
Mn901 N917 2.282 . S
Mn901 O925 2.215 . S
Mn901 O927 2.117 . S
C902 O924 1.234 . S
C902 O925 1.283 . S
C903 O915 1.281 . S
C903 O916 1.236 . S
C904 O926 1.240 . S
C904 O927 1.264 . S
O905 Mn900 2.095 . S
O905 C914 1.250 . S
O906 Mn901 2.121 . S
O906 C914 1.258 . S
C907 N908 1.326 . S
C907 C911 1.460 . S
C907 H913 0.929 . S
N908 Mn901 2.257 . S
N908 C907 1.326 . S
N908 C912 1.362 . S
C909 C910 1.258 . S
C909 C912 1.431 . S
C909 C929 1.449 . S
C910 C909 1.258 . S
C910 C911 1.477 . S
C910 H930 0.931 . S
C911 C907 1.460 . S
C911 C910 1.477 . S
C911 H931 0.930 . S
C912 N908 1.362 . S
C912 C909 1.431 . S
C912 C922 1.476 . S
H913 C907 0.929 . S
C914 O905 1.250 . S
C914 O906 1.258 . S
O915 Mn900 2.162 . S
O915 C903 1.281 . S
O916 Mn900 2.297 . S
O916 C903 1.236 . S
N917 Mn901 2.282 . S
N917 C918 1.328 . S
N917 C922 1.318 . S
C918 N917 1.328 . S
C918 C919 1.457 . S
C918 H923 0.929 . S
C919 C918 1.457 . S
C919 C920 1.291 . S
C919 H932 0.931 . S
C920 C919 1.291 . S
C920 C921 1.373 . S
C920 H933 0.929 . S
C921 C920 1.373 . S
C921 C922 1.396 . S
C921 C928 1.403 . S
C922 C912 1.476 . S
C922 N917 1.318 . S
C922 C921 1.396 . S
H923 C918 0.929 . S
O924 Mn900 2.385 . S
O924 C902 1.234 . S
O925 Mn900 2.209 . S
O925 Mn901 2.215 . S
O925 C902 1.283 . S
O926 Mn900 2.094 . S
O926 C904 1.240 . S
O927 Mn901 2.117 . S
O927 C904 1.264 . S
C928 C921 1.403 . S
C928 C929 1.399 . S
C928 H934 0.929 . S
C929 C909 1.449 . S
C929 C928 1.399 . S
C929 H935 0.930 . S
H930 C910 0.931 . S
H931 C911 0.930 . S
H932 C919 0.931 . S
H933 C920 0.929 . S
H934 C928 0.929 . S
H935 C929 0.930 . S
Mn936 O941 2.095 . S
Mn936 O951 2.162 . S
Mn936 O952 2.297 . S
Mn936 O960 2.385 . S
Mn936 O961 2.209 . S
Mn936 O962 2.094 . S
Mn937 O942 2.121 . S
Mn937 N944 2.257 . S
Mn937 N953 2.282 . S
Mn937 O961 2.215 . S
Mn937 O963 2.117 . S
C938 O960 1.234 . S
C938 O961 1.283 . S
C939 O951 1.281 . S
C939 O952 1.236 . S
C940 O962 1.240 . S
C940 O963 1.264 . S
O941 Mn936 2.095 . S
O941 C950 1.250 . S
O942 Mn937 2.121 . S
O942 C950 1.258 . S
C943 N944 1.326 . S
C943 C947 1.460 . S
C943 H949 0.929 . S
N944 Mn937 2.257 . S
N944 C943 1.326 . S
N944 C948 1.362 . S
C945 C946 1.258 . S
C945 C948 1.431 . S
C945 C965 1.449 . S
C946 C945 1.258 . S
C946 C947 1.477 . S
C946 H966 0.931 . S
C947 C943 1.460 . S
C947 C946 1.477 . S
C947 H967 0.930 . S
C948 N944 1.362 . S
C948 C945 1.431 . S
C948 C958 1.476 . S
H949 C943 0.929 . S
C950 O941 1.250 . S
C950 O942 1.258 . S
O951 Mn936 2.162 . S
O951 C939 1.281 . S
O952 Mn936 2.297 . S
O952 C939 1.236 . S
N953 Mn937 2.282 . S
N953 C954 1.328 . S
N953 C958 1.318 . S
C954 N953 1.328 . S
C954 C955 1.457 . S
C954 H959 0.929 . S
C955 C954 1.457 . S
C955 C956 1.291 . S
C955 H968 0.931 . S
C956 C955 1.291 . S
C956 C957 1.373 . S
C956 H969 0.929 . S
C957 C956 1.373 . S
C957 C958 1.396 . S
C957 C964 1.403 . S
C958 C948 1.476 . S
C958 N953 1.318 . S
C958 C957 1.396 . S
H959 C954 0.929 . S
O960 Mn936 2.385 . S
O960 C938 1.234 . S
O961 Mn936 2.209 . S
O961 Mn937 2.215 . S
O961 C938 1.283 . S
O962 Mn936 2.094 . S
O962 C940 1.240 . S
O963 Mn937 2.117 . S
O963 C940 1.264 . S
C964 C957 1.403 . S
C964 C965 1.399 . S
C964 H970 0.929 . S
C965 C945 1.449 . S
C965 C964 1.399 . S
C965 H971 0.930 . S
H966 C946 0.931 . S
H967 C947 0.930 . S
H968 C955 0.931 . S
H969 C956 0.929 . S
H970 C964 0.929 . S
H971 C965 0.930 . S
Mn972 O977 2.095 . S
Mn972 O987 2.162 . S
Mn972 O988 2.297 . S
Mn972 O996 2.385 . S
Mn972 O997 2.209 . S
Mn972 O998 2.094 . S
Mn973 O978 2.121 . S
Mn973 N980 2.257 . S
Mn973 N989 2.282 . S
Mn973 O997 2.215 . S
Mn973 O999 2.117 . S
C974 O996 1.234 . S
C974 O997 1.283 . S
C975 O987 1.281 . S
C975 O988 1.236 . S
C976 O998 1.240 . S
C976 O999 1.264 . S
O977 Mn972 2.095 . S
O977 C986 1.250 . S
O978 Mn973 2.121 . S
O978 C986 1.258 . S
C979 N980 1.326 . S
C979 C983 1.460 . S
C979 H985 0.929 . S
N980 Mn973 2.257 . S
N980 C979 1.326 . S
N980 C984 1.362 . S
C981 C982 1.258 . S
C981 C984 1.431 . S
C981 C1001 1.449 . S
C982 C981 1.258 . S
C982 C983 1.477 . S
C982 H1002 0.931 . S
C983 C979 1.460 . S
C983 C982 1.477 . S
C983 H1003 0.930 . S
C984 N980 1.362 . S
C984 C981 1.431 . S
C984 C994 1.476 . S
H985 C979 0.929 . S
C986 O977 1.250 . S
C986 O978 1.258 . S
O987 Mn972 2.162 . S
O987 C975 1.281 . S
O988 Mn972 2.297 . S
O988 C975 1.236 . S
N989 Mn973 2.282 . S
N989 C990 1.328 . S
N989 C994 1.318 . S
C990 N989 1.328 . S
C990 C991 1.457 . S
C990 H995 0.929 . S
C991 C990 1.457 . S
C991 C992 1.291 . S
C991 H1004 0.931 . S
C992 C991 1.291 . S
C992 C993 1.373 . S
C992 H1005 0.929 . S
C993 C992 1.373 . S
C993 C994 1.396 . S
C993 C1000 1.403 . S
C994 C984 1.476 . S
C994 N989 1.318 . S
C994 C993 1.396 . S
H995 C990 0.929 . S
O996 Mn972 2.385 . S
O996 C974 1.234 . S
O997 Mn972 2.209 . S
O997 Mn973 2.215 . S
O997 C974 1.283 . S
O998 Mn972 2.094 . S
O998 C976 1.240 . S
O999 Mn973 2.117 . S
O999 C976 1.264 . S
C1000 C993 1.403 . S
C1000 C1001 1.399 . S
C1000 H1006 0.929 . S
C1001 C981 1.449 . S
C1001 C1000 1.399 . S
C1001 H1007 0.930 . S
H1002 C982 0.931 . S
H1003 C983 0.930 . S
H1004 C991 0.931 . S
H1005 C992 0.929 . S
H1006 C1000 0.929 . S
H1007 C1001 0.930 . S
Mn1008 O1013 2.095 . S
Mn1008 O1023 2.162 . S
Mn1008 O1024 2.297 . S
Mn1008 O1032 2.385 . S
Mn1008 O1033 2.209 . S
Mn1008 O1034 2.094 . S
Mn1009 O1014 2.121 . S
Mn1009 N1016 2.257 . S
Mn1009 N1025 2.282 . S
Mn1009 O1033 2.215 . S
Mn1009 O1035 2.117 . S
C1010 O1032 1.234 . S
C1010 O1033 1.283 . S
C1011 O1023 1.281 . S
C1011 O1024 1.236 . S
C1012 O1034 1.240 . S
C1012 O1035 1.264 . S
O1013 Mn1008 2.095 . S
O1013 C1022 1.250 . S
O1014 Mn1009 2.121 . S
O1014 C1022 1.258 . S
C1015 N1016 1.326 . S
C1015 C1019 1.460 . S
C1015 H1021 0.929 . S
N1016 Mn1009 2.257 . S
N1016 C1015 1.326 . S
N1016 C1020 1.362 . S
C1017 C1018 1.258 . S
C1017 C1020 1.431 . S
C1017 C1037 1.449 . S
C1018 C1017 1.258 . S
C1018 C1019 1.477 . S
C1018 H1038 0.931 . S
C1019 C1015 1.460 . S
C1019 C1018 1.477 . S
C1019 H1039 0.930 . S
C1020 N1016 1.362 . S
C1020 C1017 1.431 . S
C1020 C1030 1.476 . S
H1021 C1015 0.929 . S
C1022 O1013 1.250 . S
C1022 O1014 1.258 . S
O1023 Mn1008 2.162 . S
O1023 C1011 1.281 . S
O1024 Mn1008 2.297 . S
O1024 C1011 1.236 . S
N1025 Mn1009 2.282 . S
N1025 C1026 1.328 . S
N1025 C1030 1.318 . S
C1026 N1025 1.328 . S
C1026 C1027 1.457 . S
C1026 H1031 0.929 . S
C1027 C1026 1.457 . S
C1027 C1028 1.291 . S
C1027 H1040 0.931 . S
C1028 C1027 1.291 . S
C1028 C1029 1.373 . S
C1028 H1041 0.929 . S
C1029 C1028 1.373 . S
C1029 C1030 1.396 . S
C1029 C1036 1.403 . S
C1030 C1020 1.476 . S
C1030 N1025 1.318 . S
C1030 C1029 1.396 . S
H1031 C1026 0.929 . S
O1032 Mn1008 2.385 . S
O1032 C1010 1.234 . S
O1033 Mn1008 2.209 . S
O1033 Mn1009 2.215 . S
O1033 C1010 1.283 . S
O1034 Mn1008 2.094 . S
O1034 C1012 1.240 . S
O1035 Mn1009 2.117 . S
O1035 C1012 1.264 . S
C1036 C1029 1.403 . S
C1036 C1037 1.399 . S
C1036 H1042 0.929 . S
C1037 C1017 1.449 . S
C1037 C1036 1.399 . S
C1037 H1043 0.930 . S
H1038 C1018 0.931 . S
H1039 C1019 0.930 . S
H1040 C1027 0.931 . S
H1041 C1028 0.929 . S
H1042 C1036 0.929 . S
H1043 C1037 0.930 . S
Mn1044 O1049 2.095 . S
Mn1044 O1059 2.162 . S
Mn1044 O1060 2.297 . S
Mn1044 O1068 2.385 . S
Mn1044 O1069 2.209 . S
Mn1044 O1070 2.094 . S
Mn1045 O1050 2.121 . S
Mn1045 N1052 2.257 . S
Mn1045 N1061 2.282 . S
Mn1045 O1069 2.215 . S
Mn1045 O1071 2.117 . S
C1046 O1068 1.234 . S
C1046 O1069 1.283 . S
C1047 O1059 1.281 . S
C1047 O1060 1.236 . S
C1048 O1070 1.240 . S
C1048 O1071 1.264 . S
O1049 Mn1044 2.095 . S
O1049 C1058 1.250 . S
O1050 Mn1045 2.121 . S
O1050 C1058 1.258 . S
C1051 N1052 1.326 . S
C1051 C1055 1.460 . S
C1051 H1057 0.929 . S
N1052 Mn1045 2.257 . S
N1052 C1051 1.326 . S
N1052 C1056 1.362 . S
C1053 C1054 1.258 . S
C1053 C1056 1.431 . S
C1053 C1073 1.449 . S
C1054 C1053 1.258 . S
C1054 C1055 1.477 . S
C1054 H1074 0.931 . S
C1055 C1051 1.460 . S
C1055 C1054 1.477 . S
C1055 H1075 0.930 . S
C1056 N1052 1.362 . S
C1056 C1053 1.431 . S
C1056 C1066 1.476 . S
H1057 C1051 0.929 . S
C1058 O1049 1.250 . S
C1058 O1050 1.258 . S
O1059 Mn1044 2.162 . S
O1059 C1047 1.281 . S
O1060 Mn1044 2.297 . S
O1060 C1047 1.236 . S
N1061 Mn1045 2.282 . S
N1061 C1062 1.328 . S
N1061 C1066 1.318 . S
C1062 N1061 1.328 . S
C1062 C1063 1.457 . S
C1062 H1067 0.929 . S
C1063 C1062 1.457 . S
C1063 C1064 1.291 . S
C1063 H1076 0.931 . S
C1064 C1063 1.291 . S
C1064 C1065 1.373 . S
C1064 H1077 0.929 . S
C1065 C1064 1.373 . S
C1065 C1066 1.396 . S
C1065 C1072 1.403 . S
C1066 C1056 1.476 . S
C1066 N1061 1.318 . S
C1066 C1065 1.396 . S
H1067 C1062 0.929 . S
O1068 Mn1044 2.385 . S
O1068 C1046 1.234 . S
O1069 Mn1044 2.209 . S
O1069 Mn1045 2.215 . S
O1069 C1046 1.283 . S
O1070 Mn1044 2.094 . S
O1070 C1048 1.240 . S
O1071 Mn1045 2.117 . S
O1071 C1048 1.264 . S
C1072 C1065 1.403 . S
C1072 C1073 1.399 . S
C1072 H1078 0.929 . S
C1073 C1053 1.449 . S
C1073 C1072 1.399 . S
C1073 H1079 0.930 . S
H1074 C1054 0.931 . S
H1075 C1055 0.930 . S
H1076 C1063 0.931 . S
H1077 C1064 0.929 . S
H1078 C1072 0.929 . S
H1079 C1073 0.930 . S
Mn1080 O1085 2.095 . S
Mn1080 O1095 2.162 . S
Mn1080 O1096 2.297 . S
Mn1080 O1104 2.385 . S
Mn1080 O1105 2.209 . S
Mn1080 O1106 2.094 . S
Mn1081 O1086 2.121 . S
Mn1081 N1088 2.257 . S
Mn1081 N1097 2.282 . S
Mn1081 O1105 2.215 . S
Mn1081 O1107 2.117 . S
C1082 O1104 1.234 . S
C1082 O1105 1.283 . S
C1083 O1095 1.281 . S
C1083 O1096 1.236 . S
C1084 O1106 1.240 . S
C1084 O1107 1.264 . S
O1085 Mn1080 2.095 . S
O1085 C1094 1.250 . S
O1086 Mn1081 2.121 . S
O1086 C1094 1.258 . S
C1087 N1088 1.326 . S
C1087 C1091 1.460 . S
C1087 H1093 0.929 . S
N1088 Mn1081 2.257 . S
N1088 C1087 1.326 . S
N1088 C1092 1.362 . S
C1089 C1090 1.258 . S
C1089 C1092 1.431 . S
C1089 C1109 1.449 . S
C1090 C1089 1.258 . S
C1090 C1091 1.477 . S
C1090 H1110 0.931 . S
C1091 C1087 1.460 . S
C1091 C1090 1.477 . S
C1091 H1111 0.930 . S
C1092 N1088 1.362 . S
C1092 C1089 1.431 . S
C1092 C1102 1.476 . S
H1093 C1087 0.929 . S
C1094 O1085 1.250 . S
C1094 O1086 1.258 . S
O1095 Mn1080 2.162 . S
O1095 C1083 1.281 . S
O1096 Mn1080 2.297 . S
O1096 C1083 1.236 . S
N1097 Mn1081 2.282 . S
N1097 C1098 1.328 . S
N1097 C1102 1.318 . S
C1098 N1097 1.328 . S
C1098 C1099 1.457 . S
C1098 H1103 0.929 . S
C1099 C1098 1.457 . S
C1099 C1100 1.291 . S
C1099 H1112 0.931 . S
C1100 C1099 1.291 . S
C1100 C1101 1.373 . S
C1100 H1113 0.929 . S
C1101 C1100 1.373 . S
C1101 C1102 1.396 . S
C1101 C1108 1.403 . S
C1102 C1092 1.476 . S
C1102 N1097 1.318 . S
C1102 C1101 1.396 . S
H1103 C1098 0.929 . S
O1104 Mn1080 2.385 . S
O1104 C1082 1.234 . S
O1105 Mn1080 2.209 . S
O1105 Mn1081 2.215 . S
O1105 C1082 1.283 . S
O1106 Mn1080 2.094 . S
O1106 C1084 1.240 . S
O1107 Mn1081 2.117 . S
O1107 C1084 1.264 . S
C1108 C1101 1.403 . S
C1108 C1109 1.399 . S
C1108 H1114 0.929 . S
C1109 C1089 1.449 . S
C1109 C1108 1.399 . S
C1109 H1115 0.930 . S
H1110 C1090 0.931 . S
H1111 C1091 0.930 . S
H1112 C1099 0.931 . S
H1113 C1100 0.929 . S
H1114 C1108 0.929 . S
H1115 C1109 0.930 . S
Mn1116 O1121 2.095 . S
Mn1116 O1131 2.162 . S
Mn1116 O1132 2.297 . S
Mn1116 O1140 2.385 . S
Mn1116 O1141 2.209 . S
Mn1116 O1142 2.094 . S
Mn1117 O1122 2.121 . S
Mn1117 N1124 2.257 . S
Mn1117 N1133 2.282 . S
Mn1117 O1141 2.215 . S
Mn1117 O1143 2.117 . S
C1118 O1140 1.234 . S
C1118 O1141 1.283 . S
C1119 O1131 1.281 . S
C1119 O1132 1.236 . S
C1120 O1142 1.240 . S
C1120 O1143 1.264 . S
O1121 Mn1116 2.095 . S
O1121 C1130 1.250 . S
O1122 Mn1117 2.121 . S
O1122 C1130 1.258 . S
C1123 N1124 1.326 . S
C1123 C1127 1.460 . S
C1123 H1129 0.929 . S
N1124 Mn1117 2.257 . S
N1124 C1123 1.326 . S
N1124 C1128 1.362 . S
C1125 C1126 1.258 . S
C1125 C1128 1.431 . S
C1125 C1145 1.449 . S
C1126 C1125 1.258 . S
C1126 C1127 1.477 . S
C1126 H1146 0.931 . S
C1127 C1123 1.460 . S
C1127 C1126 1.477 . S
C1127 H1147 0.930 . S
C1128 N1124 1.362 . S
C1128 C1125 1.431 . S
C1128 C1138 1.476 . S
H1129 C1123 0.929 . S
C1130 O1121 1.250 . S
C1130 O1122 1.258 . S
O1131 Mn1116 2.162 . S
O1131 C1119 1.281 . S
O1132 Mn1116 2.297 . S
O1132 C1119 1.236 . S
N1133 Mn1117 2.282 . S
N1133 C1134 1.328 . S
N1133 C1138 1.318 . S
C1134 N1133 1.328 . S
C1134 C1135 1.457 . S
C1134 H1139 0.929 . S
C1135 C1134 1.457 . S
C1135 C1136 1.291 . S
C1135 H1148 0.931 . S
C1136 C1135 1.291 . S
C1136 C1137 1.373 . S
C1136 H1149 0.929 . S
C1137 C1136 1.373 . S
C1137 C1138 1.396 . S
C1137 C1144 1.403 . S
C1138 C1128 1.476 . S
C1138 N1133 1.318 . S
C1138 C1137 1.396 . S
H1139 C1134 0.929 . S
O1140 Mn1116 2.385 . S
O1140 C1118 1.234 . S
O1141 Mn1116 2.209 . S
O1141 Mn1117 2.215 . S
O1141 C1118 1.283 . S
O1142 Mn1116 2.094 . S
O1142 C1120 1.240 . S
O1143 Mn1117 2.117 . S
O1143 C1120 1.264 . S
C1144 C1137 1.403 . S
C1144 C1145 1.399 . S
C1144 H1150 0.929 . S
C1145 C1125 1.449 . S
C1145 C1144 1.399 . S
C1145 H1151 0.930 . S
H1146 C1126 0.931 . S
H1147 C1127 0.930 . S
H1148 C1135 0.931 . S
H1149 C1136 0.929 . S
H1150 C1144 0.929 . S
H1151 C1145 0.930 . S
H1152 C1160 0.929 . S
H1153 C1162 0.930 . S
H1154 C1164 0.930 . S
H1155 C1167 0.929 . S
H1156 C1170 0.930 . S
H1157 C1172 0.960 . S
H1158 C1172 0.960 . S
H1159 C1172 0.960 . S
C1160 H1152 0.929 . S
C1160 C1161 1.377 . S
C1160 C1162 1.384 . S
C1161 C1160 1.377 . S
C1161 C1167 1.390 . S
C1162 H1153 0.930 . S
C1162 C1160 1.384 . S
C1162 C1163 1.372 . S
C1163 C1162 1.372 . S
C1163 C1164 1.400 . S
C1163 C1168 1.490 . S
C1164 H1154 0.930 . S
C1164 C1163 1.400 . S
C1164 C1167 1.386 . S
H1165 C1181 0.930 . S
H1166 C1182 0.931 . S
C1167 H1155 0.929 . S
C1167 C1161 1.390 . S
C1167 C1164 1.386 . S
C1168 C1163 1.490 . S
C1168 C1170 1.395 . S
C1168 C1171 1.403 . S
H1169 C1175 0.930 . S
C1170 H1156 0.930 . S
C1170 C1168 1.395 . S
C1170 C1173 1.403 . S
C1171 C1168 1.403 . S
C1171 C1172 1.524 . S
C1171 C1175 1.400 . S
C1172 H1157 0.960 . S
C1172 H1158 0.960 . S
C1172 H1159 0.960 . S
C1172 C1171 1.524 . S
C1173 C1170 1.403 . S
C1173 C1174 1.392 . S
C1173 C1177 1.495 . S
C1174 C1173 1.392 . S
C1174 C1175 1.385 . S
C1174 C1176 1.478 . S
C1175 H1169 0.930 . S
C1175 C1171 1.400 . S
C1175 C1174 1.385 . S
C1176 C1174 1.478 . S
C1176 C1178 1.381 . S
C1176 C1182 1.383 . S
C1177 C1173 1.495 . S
C1177 H1183 0.959 . S
C1177 H1184 0.961 . S
C1177 H1185 0.960 . S
C1178 C1176 1.381 . S
C1178 C1179 1.394 . S
C1178 H1186 0.930 . S
C1179 C1178 1.394 . S
C1179 C1180 1.383 . S
C1179 H1187 0.929 . S
C1180 C1179 1.383 . S
C1180 C1181 1.377 . S
C1181 H1165 0.930 . S
C1181 C1180 1.377 . S
C1181 C1182 1.379 . S
C1182 H1166 0.931 . S
C1182 C1176 1.383 . S
C1182 C1181 1.379 . S
H1183 C1177 0.959 . S
H1184 C1177 0.961 . S
H1185 C1177 0.960 . S
H1186 C1178 0.930 . S
H1187 C1179 0.929 . S
H1188 C1196 0.929 . S
H1189 C1198 0.930 . S
H1190 C1200 0.930 . S
H1191 C1203 0.929 . S
H1192 C1206 0.930 . S
H1193 C1208 0.960 . S
H1194 C1208 0.960 . S
H1195 C1208 0.960 . S
C1196 H1188 0.929 . S
C1196 C1197 1.377 . S
C1196 C1198 1.384 . S
C1197 C1196 1.377 . S
C1197 C1203 1.390 . S
C1198 H1189 0.930 . S
C1198 C1196 1.384 . S
C1198 C1199 1.372 . S
C1199 C1198 1.372 . S
C1199 C1200 1.400 . S
C1199 C1204 1.490 . S
C1200 H1190 0.930 . S
C1200 C1199 1.400 . S
C1200 C1203 1.386 . S
H1201 C1217 0.930 . S
H1202 C1218 0.931 . S
C1203 H1191 0.929 . S
C1203 C1197 1.390 . S
C1203 C1200 1.386 . S
C1204 C1199 1.490 . S
C1204 C1206 1.395 . S
C1204 C1207 1.403 . S
H1205 C1211 0.930 . S
C1206 H1192 0.930 . S
C1206 C1204 1.395 . S
C1206 C1209 1.403 . S
C1207 C1204 1.403 . S
C1207 C1208 1.524 . S
C1207 C1211 1.400 . S
C1208 H1193 0.960 . S
C1208 H1194 0.960 . S
C1208 H1195 0.960 . S
C1208 C1207 1.524 . S
C1209 C1206 1.403 . S
C1209 C1210 1.392 . S
C1209 C1213 1.495 . S
C1210 C1209 1.392 . S
C1210 C1211 1.385 . S
C1210 C1212 1.478 . S
C1211 H1205 0.930 . S
C1211 C1207 1.400 . S
C1211 C1210 1.385 . S
C1212 C1210 1.478 . S
C1212 C1214 1.381 . S
C1212 C1218 1.383 . S
C1213 C1209 1.495 . S
C1213 H1219 0.959 . S
C1213 H1220 0.961 . S
C1213 H1221 0.960 . S
C1214 C1212 1.381 . S
C1214 C1215 1.394 . S
C1214 H1222 0.930 . S
C1215 C1214 1.394 . S
C1215 C1216 1.383 . S
C1215 H1223 0.929 . S
C1216 C1215 1.383 . S
C1216 C1217 1.377 . S
C1217 H1201 0.930 . S
C1217 C1216 1.377 . S
C1217 C1218 1.379 . S
C1218 H1202 0.931 . S
C1218 C1212 1.383 . S
C1218 C1217 1.379 . S
H1219 C1213 0.959 . S
H1220 C1213 0.961 . S
H1221 C1213 0.960 . S
H1222 C1214 0.930 . S
H1223 C1215 0.929 . S
H1224 C1232 0.929 . S
H1225 C1234 0.930 . S
H1226 C1236 0.930 . S
H1227 C1239 0.929 . S
H1228 C1242 0.930 . S
H1229 C1244 0.960 . S
H1230 C1244 0.960 . S
H1231 C1244 0.960 . S
C1232 H1224 0.929 . S
C1232 C1233 1.377 . S
C1232 C1234 1.384 . S
C1233 C1232 1.377 . S
C1233 C1239 1.390 . S
C1234 H1225 0.930 . S
C1234 C1232 1.384 . S
C1234 C1235 1.372 . S
C1235 C1234 1.372 . S
C1235 C1236 1.400 . S
C1235 C1240 1.490 . S
C1236 H1226 0.930 . S
C1236 C1235 1.400 . S
C1236 C1239 1.386 . S
H1237 C1253 0.930 . S
H1238 C1254 0.931 . S
C1239 H1227 0.929 . S
C1239 C1233 1.390 . S
C1239 C1236 1.386 . S
C1240 C1235 1.490 . S
C1240 C1242 1.395 . S
C1240 C1243 1.403 . S
H1241 C1247 0.930 . S
C1242 H1228 0.930 . S
C1242 C1240 1.395 . S
C1242 C1245 1.403 . S
C1243 C1240 1.403 . S
C1243 C1244 1.524 . S
C1243 C1247 1.400 . S
C1244 H1229 0.960 . S
C1244 H1230 0.960 . S
C1244 H1231 0.960 . S
C1244 C1243 1.524 . S
C1245 C1242 1.403 . S
C1245 C1246 1.392 . S
C1245 C1249 1.495 . S
C1246 C1245 1.392 . S
C1246 C1247 1.385 . S
C1246 C1248 1.478 . S
C1247 H1241 0.930 . S
C1247 C1243 1.400 . S
C1247 C1246 1.385 . S
C1248 C1246 1.478 . S
C1248 C1250 1.381 . S
C1248 C1254 1.383 . S
C1249 C1245 1.495 . S
C1249 H1255 0.959 . S
C1249 H1256 0.961 . S
C1249 H1257 0.960 . S
C1250 C1248 1.381 . S
C1250 C1251 1.394 . S
C1250 H1258 0.930 . S
C1251 C1250 1.394 . S
C1251 C1252 1.383 . S
C1251 H1259 0.929 . S
C1252 C1251 1.383 . S
C1252 C1253 1.377 . S
C1253 H1237 0.930 . S
C1253 C1252 1.377 . S
C1253 C1254 1.379 . S
C1254 H1238 0.931 . S
C1254 C1248 1.383 . S
C1254 C1253 1.379 . S
H1255 C1249 0.959 . S
H1256 C1249 0.961 . S
H1257 C1249 0.960 . S
H1258 C1250 0.930 . S
H1259 C1251 0.929 . S
H1260 C1268 0.929 . S
H1261 C1270 0.930 . S
H1262 C1272 0.930 . S
H1263 C1275 0.929 . S
H1264 C1278 0.930 . S
H1265 C1280 0.960 . S
H1266 C1280 0.960 . S
H1267 C1280 0.960 . S
C1268 H1260 0.929 . S
C1268 C1269 1.377 . S
C1268 C1270 1.384 . S
C1269 C1268 1.377 . S
C1269 C1275 1.390 . S
C1270 H1261 0.930 . S
C1270 C1268 1.384 . S
C1270 C1271 1.372 . S
C1271 C1270 1.372 . S
C1271 C1272 1.400 . S
C1271 C1276 1.490 . S
C1272 H1262 0.930 . S
C1272 C1271 1.400 . S
C1272 C1275 1.386 . S
H1273 C1289 0.930 . S
H1274 C1290 0.931 . S
C1275 H1263 0.929 . S
C1275 C1269 1.390 . S
C1275 C1272 1.386 . S
C1276 C1271 1.490 . S
C1276 C1278 1.395 . S
C1276 C1279 1.403 . S
H1277 C1283 0.930 . S
C1278 H1264 0.930 . S
C1278 C1276 1.395 . S
C1278 C1281 1.403 . S
C1279 C1276 1.403 . S
C1279 C1280 1.524 . S
C1279 C1283 1.400 . S
C1280 H1265 0.960 . S
C1280 H1266 0.960 . S
C1280 H1267 0.960 . S
C1280 C1279 1.524 . S
C1281 C1278 1.403 . S
C1281 C1282 1.392 . S
C1281 C1285 1.495 . S
C1282 C1281 1.392 . S
C1282 C1283 1.385 . S
C1282 C1284 1.478 . S
C1283 H1277 0.930 . S
C1283 C1279 1.400 . S
C1283 C1282 1.385 . S
C1284 C1282 1.478 . S
C1284 C1286 1.381 . S
C1284 C1290 1.383 . S
C1285 C1281 1.495 . S
C1285 H1291 0.959 . S
C1285 H1292 0.961 . S
C1285 H1293 0.960 . S
C1286 C1284 1.381 . S
C1286 C1287 1.394 . S
C1286 H1294 0.930 . S
C1287 C1286 1.394 . S
C1287 C1288 1.383 . S
C1287 H1295 0.929 . S
C1288 C1287 1.383 . S
C1288 C1289 1.377 . S
C1289 H1273 0.930 . S
C1289 C1288 1.377 . S
C1289 C1290 1.379 . S
C1290 H1274 0.931 . S
C1290 C1284 1.383 . S
C1290 C1289 1.379 . S
H1291 C1285 0.959 . S
H1292 C1285 0.961 . S
H1293 C1285 0.960 . S
H1294 C1286 0.930 . S
H1295 C1287 0.929 . S
H1296 C1304 0.929 . S
H1297 C1306 0.930 . S
H1298 C1308 0.930 . S
H1299 C1311 0.929 . S
H1300 C1314 0.930 . S
H1301 C1316 0.960 . S
H1302 C1316 0.960 . S
H1303 C1316 0.960 . S
C1304 H1296 0.929 . S
C1304 C1305 1.377 . S
C1304 C1306 1.384 . S
C1305 C1304 1.377 . S
C1305 C1311 1.390 . S
C1306 H1297 0.930 . S
C1306 C1304 1.384 . S
C1306 C1307 1.372 . S
C1307 C1306 1.372 . S
C1307 C1308 1.400 . S
C1307 C1312 1.490 . S
C1308 H1298 0.930 . S
C1308 C1307 1.400 . S
C1308 C1311 1.386 . S
H1309 C1325 0.930 . S
H1310 C1326 0.931 . S
C1311 H1299 0.929 . S
C1311 C1305 1.390 . S
C1311 C1308 1.386 . S
C1312 C1307 1.490 . S
C1312 C1314 1.395 . S
C1312 C1315 1.403 . S
H1313 C1319 0.930 . S
C1314 H1300 0.930 . S
C1314 C1312 1.395 . S
C1314 C1317 1.403 . S
C1315 C1312 1.403 . S
C1315 C1316 1.524 . S
C1315 C1319 1.400 . S
C1316 H1301 0.960 . S
C1316 H1302 0.960 . S
C1316 H1303 0.960 . S
C1316 C1315 1.524 . S
C1317 C1314 1.403 . S
C1317 C1318 1.392 . S
C1317 C1321 1.495 . S
C1318 C1317 1.392 . S
C1318 C1319 1.385 . S
C1318 C1320 1.478 . S
C1319 H1313 0.930 . S
C1319 C1315 1.400 . S
C1319 C1318 1.385 . S
C1320 C1318 1.478 . S
C1320 C1322 1.381 . S
C1320 C1326 1.383 . S
C1321 C1317 1.495 . S
C1321 H1327 0.959 . S
C1321 H1328 0.961 . S
C1321 H1329 0.960 . S
C1322 C1320 1.381 . S
C1322 C1323 1.394 . S
C1322 H1330 0.930 . S
C1323 C1322 1.394 . S
C1323 C1324 1.383 . S
C1323 H1331 0.929 . S
C1324 C1323 1.383 . S
C1324 C1325 1.377 . S
C1325 H1309 0.930 . S
C1325 C1324 1.377 . S
C1325 C1326 1.379 . S
C1326 H1310 0.931 . S
C1326 C1320 1.383 . S
C1326 C1325 1.379 . S
H1327 C1321 0.959 . S
H1328 C1321 0.961 . S
H1329 C1321 0.960 . S
H1330 C1322 0.930 . S
H1331 C1323 0.929 . S
H1332 C1340 0.929 . S
H1333 C1342 0.930 . S
H1334 C1344 0.930 . S
H1335 C1347 0.929 . S
H1336 C1350 0.930 . S
H1337 C1352 0.960 . S
H1338 C1352 0.960 . S
H1339 C1352 0.960 . S
C1340 H1332 0.929 . S
C1340 C1341 1.377 . S
C1340 C1342 1.384 . S
C1341 C1340 1.377 . S
C1341 C1347 1.390 . S
C1342 H1333 0.930 . S
C1342 C1340 1.384 . S
C1342 C1343 1.372 . S
C1343 C1342 1.372 . S
C1343 C1344 1.400 . S
C1343 C1348 1.490 . S
C1344 H1334 0.930 . S
C1344 C1343 1.400 . S
C1344 C1347 1.386 . S
H1345 C1361 0.930 . S
H1346 C1362 0.931 . S
C1347 H1335 0.929 . S
C1347 C1341 1.390 . S
C1347 C1344 1.386 . S
C1348 C1343 1.490 . S
C1348 C1350 1.395 . S
C1348 C1351 1.403 . S
H1349 C1355 0.930 . S
C1350 H1336 0.930 . S
C1350 C1348 1.395 . S
C1350 C1353 1.403 . S
C1351 C1348 1.403 . S
C1351 C1352 1.524 . S
C1351 C1355 1.400 . S
C1352 H1337 0.960 . S
C1352 H1338 0.960 . S
C1352 H1339 0.960 . S
C1352 C1351 1.524 . S
C1353 C1350 1.403 . S
C1353 C1354 1.392 . S
C1353 C1357 1.495 . S
C1354 C1353 1.392 . S
C1354 C1355 1.385 . S
C1354 C1356 1.478 . S
C1355 H1349 0.930 . S
C1355 C1351 1.400 . S
C1355 C1354 1.385 . S
C1356 C1354 1.478 . S
C1356 C1358 1.381 . S
C1356 C1362 1.383 . S
C1357 C1353 1.495 . S
C1357 H1363 0.959 . S
C1357 H1364 0.961 . S
C1357 H1365 0.960 . S
C1358 C1356 1.381 . S
C1358 C1359 1.394 . S
C1358 H1366 0.930 . S
C1359 C1358 1.394 . S
C1359 C1360 1.383 . S
C1359 H1367 0.929 . S
C1360 C1359 1.383 . S
C1360 C1361 1.377 . S
C1361 H1345 0.930 . S
C1361 C1360 1.377 . S
C1361 C1362 1.379 . S
C1362 H1346 0.931 . S
C1362 C1356 1.383 . S
C1362 C1361 1.379 . S
H1363 C1357 0.959 . S
H1364 C1357 0.961 . S
H1365 C1357 0.960 . S
H1366 C1358 0.930 . S
H1367 C1359 0.929 . S
H1368 C1376 0.929 . S
H1369 C1378 0.930 . S
H1370 C1380 0.930 . S
H1371 C1383 0.929 . S
H1372 C1386 0.930 . S
H1373 C1388 0.960 . S
H1374 C1388 0.960 . S
H1375 C1388 0.960 . S
C1376 H1368 0.929 . S
C1376 C1377 1.377 . S
C1376 C1378 1.384 . S
C1377 C1376 1.377 . S
C1377 C1383 1.390 . S
C1378 H1369 0.930 . S
C1378 C1376 1.384 . S
C1378 C1379 1.372 . S
C1379 C1378 1.372 . S
C1379 C1380 1.400 . S
C1379 C1384 1.490 . S
C1380 H1370 0.930 . S
C1380 C1379 1.400 . S
C1380 C1383 1.386 . S
H1381 C1397 0.930 . S
H1382 C1398 0.931 . S
C1383 H1371 0.929 . S
C1383 C1377 1.390 . S
C1383 C1380 1.386 . S
C1384 C1379 1.490 . S
C1384 C1386 1.395 . S
C1384 C1387 1.403 . S
H1385 C1391 0.930 . S
C1386 H1372 0.930 . S
C1386 C1384 1.395 . S
C1386 C1389 1.403 . S
C1387 C1384 1.403 . S
C1387 C1388 1.524 . S
C1387 C1391 1.400 . S
C1388 H1373 0.960 . S
C1388 H1374 0.960 . S
C1388 H1375 0.960 . S
C1388 C1387 1.524 . S
C1389 C1386 1.403 . S
C1389 C1390 1.392 . S
C1389 C1393 1.495 . S
C1390 C1389 1.392 . S
C1390 C1391 1.385 . S
C1390 C1392 1.478 . S
C1391 H1385 0.930 . S
C1391 C1387 1.400 . S
C1391 C1390 1.385 . S
C1392 C1390 1.478 . S
C1392 C1394 1.381 . S
C1392 C1398 1.383 . S
C1393 C1389 1.495 . S
C1393 H1399 0.959 . S
C1393 H1400 0.961 . S
C1393 H1401 0.960 . S
C1394 C1392 1.381 . S
C1394 C1395 1.394 . S
C1394 H1402 0.930 . S
C1395 C1394 1.394 . S
C1395 C1396 1.383 . S
C1395 H1403 0.929 . S
C1396 C1395 1.383 . S
C1396 C1397 1.377 . S
C1397 H1381 0.930 . S
C1397 C1396 1.377 . S
C1397 C1398 1.379 . S
C1398 H1382 0.931 . S
C1398 C1392 1.383 . S
C1398 C1397 1.379 . S
H1399 C1393 0.959 . S
H1400 C1393 0.961 . S
H1401 C1393 0.960 . S
H1402 C1394 0.930 . S
H1403 C1395 0.929 . S
H1404 C1412 0.929 . S
H1405 C1414 0.930 . S
H1406 C1416 0.930 . S
H1407 C1419 0.929 . S
H1408 C1422 0.930 . S
H1409 C1424 0.960 . S
H1410 C1424 0.960 . S
H1411 C1424 0.960 . S
C1412 H1404 0.929 . S
C1412 C1413 1.377 . S
C1412 C1414 1.384 . S
C1413 C1412 1.377 . S
C1413 C1419 1.390 . S
C1414 H1405 0.930 . S
C1414 C1412 1.384 . S
C1414 C1415 1.372 . S
C1415 C1414 1.372 . S
C1415 C1416 1.400 . S
C1415 C1420 1.490 . S
C1416 H1406 0.930 . S
C1416 C1415 1.400 . S
C1416 C1419 1.386 . S
H1417 C1433 0.930 . S
H1418 C1434 0.931 . S
C1419 H1407 0.929 . S
C1419 C1413 1.390 . S
C1419 C1416 1.386 . S
C1420 C1415 1.490 . S
C1420 C1422 1.395 . S
C1420 C1423 1.403 . S
H1421 C1427 0.930 . S
C1422 H1408 0.930 . S
C1422 C1420 1.395 . S
C1422 C1425 1.403 . S
C1423 C1420 1.403 . S
C1423 C1424 1.524 . S
C1423 C1427 1.400 . S
C1424 H1409 0.960 . S
C1424 H1410 0.960 . S
C1424 H1411 0.960 . S
C1424 C1423 1.524 . S
C1425 C1422 1.403 . S
C1425 C1426 1.392 . S
C1425 C1429 1.495 . S
C1426 C1425 1.392 . S
C1426 C1427 1.385 . S
C1426 C1428 1.478 . S
C1427 H1421 0.930 . S
C1427 C1423 1.400 . S
C1427 C1426 1.385 . S
C1428 C1426 1.478 . S
C1428 C1430 1.381 . S
C1428 C1434 1.383 . S
C1429 C1425 1.495 . S
C1429 H1435 0.959 . S
C1429 H1436 0.961 . S
C1429 H1437 0.960 . S
C1430 C1428 1.381 . S
C1430 C1431 1.394 . S
C1430 H1438 0.930 . S
C1431 C1430 1.394 . S
C1431 C1432 1.383 . S
C1431 H1439 0.929 . S
C1432 C1431 1.383 . S
C1432 C1433 1.377 . S
C1433 H1417 0.930 . S
C1433 C1432 1.377 . S
C1433 C1434 1.379 . S
C1434 H1418 0.931 . S
C1434 C1428 1.383 . S
C1434 C1433 1.379 . S
H1435 C1429 0.959 . S
H1436 C1429 0.961 . S
H1437 C1429 0.960 . S
H1438 C1430 0.930 . S
H1439 C1431 0.929 . S
H1440 C1448 0.929 . S
H1441 C1450 0.930 . S
H1442 C1452 0.930 . S
H1443 C1455 0.929 . S
H1444 C1458 0.930 . S
H1445 C1460 0.960 . S
H1446 C1460 0.960 . S
H1447 C1460 0.960 . S
C1448 H1440 0.929 . S
C1448 C1449 1.377 . S
C1448 C1450 1.384 . S
C1449 C1448 1.377 . S
C1449 C1455 1.390 . S
C1450 H1441 0.930 . S
C1450 C1448 1.384 . S
C1450 C1451 1.372 . S
C1451 C1450 1.372 . S
C1451 C1452 1.400 . S
C1451 C1456 1.490 . S
C1452 H1442 0.930 . S
C1452 C1451 1.400 . S
C1452 C1455 1.386 . S
H1453 C1469 0.930 . S
H1454 C1470 0.931 . S
C1455 H1443 0.929 . S
C1455 C1449 1.390 . S
C1455 C1452 1.386 . S
C1456 C1451 1.490 . S
C1456 C1458 1.395 . S
C1456 C1459 1.403 . S
H1457 C1463 0.930 . S
C1458 H1444 0.930 . S
C1458 C1456 1.395 . S
C1458 C1461 1.403 . S
C1459 C1456 1.403 . S
C1459 C1460 1.524 . S
C1459 C1463 1.400 . S
C1460 H1445 0.960 . S
C1460 H1446 0.960 . S
C1460 H1447 0.960 . S
C1460 C1459 1.524 . S
C1461 C1458 1.403 . S
C1461 C1462 1.392 . S
C1461 C1465 1.495 . S
C1462 C1461 1.392 . S
C1462 C1463 1.385 . S
C1462 C1464 1.478 . S
C1463 H1457 0.930 . S
C1463 C1459 1.400 . S
C1463 C1462 1.385 . S
C1464 C1462 1.478 . S
C1464 C1466 1.381 . S
C1464 C1470 1.383 . S
C1465 C1461 1.495 . S
C1465 H1471 0.959 . S
C1465 H1472 0.961 . S
C1465 H1473 0.960 . S
C1466 C1464 1.381 . S
C1466 C1467 1.394 . S
C1466 H1474 0.930 . S
C1467 C1466 1.394 . S
C1467 C1468 1.383 . S
C1467 H1475 0.929 . S
C1468 C1467 1.383 . S
C1468 C1469 1.377 . S
C1469 H1453 0.930 . S
C1469 C1468 1.377 . S
C1469 C1470 1.379 . S
C1470 H1454 0.931 . S
C1470 C1464 1.383 . S
C1470 C1469 1.379 . S
H1471 C1465 0.959 . S
H1472 C1465 0.961 . S
H1473 C1465 0.960 . S
H1474 C1466 0.930 . S
H1475 C1467 0.929 . S
H1476 C1484 0.929 . S
H1477 C1486 0.930 . S
H1478 C1488 0.930 . S
H1479 C1491 0.929 . S
H1480 C1494 0.930 . S
H1481 C1496 0.960 . S
H1482 C1496 0.960 . S
H1483 C1496 0.960 . S
C1484 H1476 0.929 . S
C1484 C1485 1.377 . S
C1484 C1486 1.384 . S
C1485 C1484 1.377 . S
C1485 C1491 1.390 . S
C1486 H1477 0.930 . S
C1486 C1484 1.384 . S
C1486 C1487 1.372 . S
C1487 C1486 1.372 . S
C1487 C1488 1.400 . S
C1487 C1492 1.490 . S
C1488 H1478 0.930 . S
C1488 C1487 1.400 . S
C1488 C1491 1.386 . S
H1489 C1505 0.930 . S
H1490 C1506 0.931 . S
C1491 H1479 0.929 . S
C1491 C1485 1.390 . S
C1491 C1488 1.386 . S
C1492 C1487 1.490 . S
C1492 C1494 1.395 . S
C1492 C1495 1.403 . S
H1493 C1499 0.930 . S
C1494 H1480 0.930 . S
C1494 C1492 1.395 . S
C1494 C1497 1.403 . S
C1495 C1492 1.403 . S
C1495 C1496 1.524 . S
C1495 C1499 1.400 . S
C1496 H1481 0.960 . S
C1496 H1482 0.960 . S
C1496 H1483 0.960 . S
C1496 C1495 1.524 . S
C1497 C1494 1.403 . S
C1497 C1498 1.392 . S
C1497 C1501 1.495 . S
C1498 C1497 1.392 . S
C1498 C1499 1.385 . S
C1498 C1500 1.478 . S
C1499 H1493 0.930 . S
C1499 C1495 1.400 . S
C1499 C1498 1.385 . S
C1500 C1498 1.478 . S
C1500 C1502 1.381 . S
C1500 C1506 1.383 . S
C1501 C1497 1.495 . S
C1501 H1507 0.959 . S
C1501 H1508 0.961 . S
C1501 H1509 0.960 . S
C1502 C1500 1.381 . S
C1502 C1503 1.394 . S
C1502 H1510 0.930 . S
C1503 C1502 1.394 . S
C1503 C1504 1.383 . S
C1503 H1511 0.929 . S
C1504 C1503 1.383 . S
C1504 C1505 1.377 . S
C1505 H1489 0.930 . S
C1505 C1504 1.377 . S
C1505 C1506 1.379 . S
C1506 H1490 0.931 . S
C1506 C1500 1.383 . S
C1506 C1505 1.379 . S
H1507 C1501 0.959 . S
H1508 C1501 0.961 . S
H1509 C1501 0.960 . S
H1510 C1502 0.930 . S
H1511 C1503 0.929 . S
H1512 C1520 0.929 . S
H1513 C1522 0.930 . S
H1514 C1524 0.930 . S
H1515 C1527 0.929 . S
H1516 C1530 0.930 . S
H1517 C1532 0.960 . S
H1518 C1532 0.960 . S
H1519 C1532 0.960 . S
C1520 H1512 0.929 . S
C1520 C1521 1.377 . S
C1520 C1522 1.384 . S
C1521 C1520 1.377 . S
C1521 C1527 1.390 . S
C1522 H1513 0.930 . S
C1522 C1520 1.384 . S
C1522 C1523 1.372 . S
C1523 C1522 1.372 . S
C1523 C1524 1.400 . S
C1523 C1528 1.490 . S
C1524 H1514 0.930 . S
C1524 C1523 1.400 . S
C1524 C1527 1.386 . S
H1525 C1541 0.930 . S
H1526 C1542 0.931 . S
C1527 H1515 0.929 . S
C1527 C1521 1.390 . S
C1527 C1524 1.386 . S
C1528 C1523 1.490 . S
C1528 C1530 1.395 . S
C1528 C1531 1.403 . S
H1529 C1535 0.930 . S
C1530 H1516 0.930 . S
C1530 C1528 1.395 . S
C1530 C1533 1.403 . S
C1531 C1528 1.403 . S
C1531 C1532 1.524 . S
C1531 C1535 1.400 . S
C1532 H1517 0.960 . S
C1532 H1518 0.960 . S
C1532 H1519 0.960 . S
C1532 C1531 1.524 . S
C1533 C1530 1.403 . S
C1533 C1534 1.392 . S
C1533 C1537 1.495 . S
C1534 C1533 1.392 . S
C1534 C1535 1.385 . S
C1534 C1536 1.478 . S
C1535 H1529 0.930 . S
C1535 C1531 1.400 . S
C1535 C1534 1.385 . S
C1536 C1534 1.478 . S
C1536 C1538 1.381 . S
C1536 C1542 1.383 . S
C1537 C1533 1.495 . S
C1537 H1543 0.959 . S
C1537 H1544 0.961 . S
C1537 H1545 0.960 . S
C1538 C1536 1.381 . S
C1538 C1539 1.394 . S
C1538 H1546 0.930 . S
C1539 C1538 1.394 . S
C1539 C1540 1.383 . S
C1539 H1547 0.929 . S
C1540 C1539 1.383 . S
C1540 C1541 1.377 . S
C1541 H1525 0.930 . S
C1541 C1540 1.377 . S
C1541 C1542 1.379 . S
C1542 H1526 0.931 . S
C1542 C1536 1.383 . S
C1542 C1541 1.379 . S
H1543 C1537 0.959 . S
H1544 C1537 0.961 . S
H1545 C1537 0.960 . S
H1546 C1538 0.930 . S
H1547 C1539 0.929 . S
H1548 C1556 0.929 . S
H1549 C1558 0.930 . S
H1550 C1560 0.930 . S
H1551 C1563 0.929 . S
H1552 C1566 0.930 . S
H1553 C1568 0.960 . S
H1554 C1568 0.960 . S
H1555 C1568 0.960 . S
C1556 H1548 0.929 . S
C1556 C1557 1.377 . S
C1556 C1558 1.384 . S
C1557 C1556 1.377 . S
C1557 C1563 1.390 . S
C1558 H1549 0.930 . S
C1558 C1556 1.384 . S
C1558 C1559 1.372 . S
C1559 C1558 1.372 . S
C1559 C1560 1.400 . S
C1559 C1564 1.490 . S
C1560 H1550 0.930 . S
C1560 C1559 1.400 . S
C1560 C1563 1.386 . S
H1561 C1577 0.930 . S
H1562 C1578 0.931 . S
C1563 H1551 0.929 . S
C1563 C1557 1.390 . S
C1563 C1560 1.386 . S
C1564 C1559 1.490 . S
C1564 C1566 1.395 . S
C1564 C1567 1.403 . S
H1565 C1571 0.930 . S
C1566 H1552 0.930 . S
C1566 C1564 1.395 . S
C1566 C1569 1.403 . S
C1567 C1564 1.403 . S
C1567 C1568 1.524 . S
C1567 C1571 1.400 . S
C1568 H1553 0.960 . S
C1568 H1554 0.960 . S
C1568 H1555 0.960 . S
C1568 C1567 1.524 . S
C1569 C1566 1.403 . S
C1569 C1570 1.392 . S
C1569 C1573 1.495 . S
C1570 C1569 1.392 . S
C1570 C1571 1.385 . S
C1570 C1572 1.478 . S
C1571 H1565 0.930 . S
C1571 C1567 1.400 . S
C1571 C1570 1.385 . S
C1572 C1570 1.478 . S
C1572 C1574 1.381 . S
C1572 C1578 1.383 . S
C1573 C1569 1.495 . S
C1573 H1579 0.959 . S
C1573 H1580 0.961 . S
C1573 H1581 0.960 . S
C1574 C1572 1.381 . S
C1574 C1575 1.394 . S
C1574 H1582 0.930 . S
C1575 C1574 1.394 . S
C1575 C1576 1.383 . S
C1575 H1583 0.929 . S
C1576 C1575 1.383 . S
C1576 C1577 1.377 . S
C1577 H1561 0.930 . S
C1577 C1576 1.377 . S
C1577 C1578 1.379 . S
C1578 H1562 0.931 . S
C1578 C1572 1.383 . S
C1578 C1577 1.379 . S
H1579 C1573 0.959 . S
H1580 C1573 0.961 . S
H1581 C1573 0.960 . S
H1582 C1574 0.930 . S
H1583 C1575 0.929 . S
H1584 C1592 0.929 . S
H1585 C1594 0.930 . S
H1586 C1596 0.930 . S
H1587 C1599 0.929 . S
H1588 C1602 0.930 . S
H1589 C1604 0.960 . S
H1590 C1604 0.960 . S
H1591 C1604 0.960 . S
C1592 H1584 0.929 . S
C1592 C1593 1.377 . S
C1592 C1594 1.384 . S
C1593 C1592 1.377 . S
C1593 C1599 1.390 . S
C1594 H1585 0.930 . S
C1594 C1592 1.384 . S
C1594 C1595 1.372 . S
C1595 C1594 1.372 . S
C1595 C1596 1.400 . S
C1595 C1600 1.490 . S
C1596 H1586 0.930 . S
C1596 C1595 1.400 . S
C1596 C1599 1.386 . S
H1597 C1613 0.930 . S
H1598 C1614 0.931 . S
C1599 H1587 0.929 . S
C1599 C1593 1.390 . S
C1599 C1596 1.386 . S
C1600 C1595 1.490 . S
C1600 C1602 1.395 . S
C1600 C1603 1.403 . S
H1601 C1607 0.930 . S
C1602 H1588 0.930 . S
C1602 C1600 1.395 . S
C1602 C1605 1.403 . S
C1603 C1600 1.403 . S
C1603 C1604 1.524 . S
C1603 C1607 1.400 . S
C1604 H1589 0.960 . S
C1604 H1590 0.960 . S
C1604 H1591 0.960 . S
C1604 C1603 1.524 . S
C1605 C1602 1.403 . S
C1605 C1606 1.392 . S
C1605 C1609 1.495 . S
C1606 C1605 1.392 . S
C1606 C1607 1.385 . S
C1606 C1608 1.478 . S
C1607 H1601 0.930 . S
C1607 C1603 1.400 . S
C1607 C1606 1.385 . S
C1608 C1606 1.478 . S
C1608 C1610 1.381 . S
C1608 C1614 1.383 . S
C1609 C1605 1.495 . S
C1609 H1615 0.959 . S
C1609 H1616 0.961 . S
C1609 H1617 0.960 . S
C1610 C1608 1.381 . S
C1610 C1611 1.394 . S
C1610 H1618 0.930 . S
C1611 C1610 1.394 . S
C1611 C1612 1.383 . S
C1611 H1619 0.929 . S
C1612 C1611 1.383 . S
C1612 C1613 1.377 . S
C1613 H1597 0.930 . S
C1613 C1612 1.377 . S
C1613 C1614 1.379 . S
C1614 H1598 0.931 . S
C1614 C1608 1.383 . S
C1614 C1613 1.379 . S
H1615 C1609 0.959 . S
H1616 C1609 0.961 . S
H1617 C1609 0.960 . S
H1618 C1610 0.930 . S
H1619 C1611 0.929 . S
H1620 C1628 0.929 . S
H1621 C1630 0.930 . S
H1622 C1632 0.930 . S
H1623 C1635 0.929 . S
H1624 C1638 0.930 . S
H1625 C1640 0.960 . S
H1626 C1640 0.960 . S
H1627 C1640 0.960 . S
C1628 H1620 0.929 . S
C1628 C1629 1.377 . S
C1628 C1630 1.384 . S
C1629 C1628 1.377 . S
C1629 C1635 1.390 . S
C1630 H1621 0.930 . S
C1630 C1628 1.384 . S
C1630 C1631 1.372 . S
C1631 C1630 1.372 . S
C1631 C1632 1.400 . S
C1631 C1636 1.490 . S
C1632 H1622 0.930 . S
C1632 C1631 1.400 . S
C1632 C1635 1.386 . S
H1633 C1649 0.930 . S
H1634 C1650 0.931 . S
C1635 H1623 0.929 . S
C1635 C1629 1.390 . S
C1635 C1632 1.386 . S
C1636 C1631 1.490 . S
C1636 C1638 1.395 . S
C1636 C1639 1.403 . S
H1637 C1643 0.930 . S
C1638 H1624 0.930 . S
C1638 C1636 1.395 . S
C1638 C1641 1.403 . S
C1639 C1636 1.403 . S
C1639 C1640 1.524 . S
C1639 C1643 1.400 . S
C1640 H1625 0.960 . S
C1640 H1626 0.960 . S
C1640 H1627 0.960 . S
C1640 C1639 1.524 . S
C1641 C1638 1.403 . S
C1641 C1642 1.392 . S
C1641 C1645 1.495 . S
C1642 C1641 1.392 . S
C1642 C1643 1.385 . S
C1642 C1644 1.478 . S
C1643 H1637 0.930 . S
C1643 C1639 1.400 . S
C1643 C1642 1.385 . S
C1644 C1642 1.478 . S
C1644 C1646 1.381 . S
C1644 C1650 1.383 . S
C1645 C1641 1.495 . S
C1645 H1651 0.959 . S
C1645 H1652 0.961 . S
C1645 H1653 0.960 . S
C1646 C1644 1.381 . S
C1646 C1647 1.394 . S
C1646 H1654 0.930 . S
C1647 C1646 1.394 . S
C1647 C1648 1.383 . S
C1647 H1655 0.929 . S
C1648 C1647 1.383 . S
C1648 C1649 1.377 . S
C1649 H1633 0.930 . S
C1649 C1648 1.377 . S
C1649 C1650 1.379 . S
C1650 H1634 0.931 . S
C1650 C1644 1.383 . S
C1650 C1649 1.379 . S
H1651 C1645 0.959 . S
H1652 C1645 0.961 . S
H1653 C1645 0.960 . S
H1654 C1646 0.930 . S
H1655 C1647 0.929 . S
H1656 C1664 0.929 . S
H1657 C1666 0.930 . S
H1658 C1668 0.930 . S
H1659 C1671 0.929 . S
H1660 C1674 0.930 . S
H1661 C1676 0.960 . S
H1662 C1676 0.960 . S
H1663 C1676 0.960 . S
C1664 H1656 0.929 . S
C1664 C1665 1.377 . S
C1664 C1666 1.384 . S
C1665 C1664 1.377 . S
C1665 C1671 1.390 . S
C1666 H1657 0.930 . S
C1666 C1664 1.384 . S
C1666 C1667 1.372 . S
C1667 C1666 1.372 . S
C1667 C1668 1.400 . S
C1667 C1672 1.490 . S
C1668 H1658 0.930 . S
C1668 C1667 1.400 . S
C1668 C1671 1.386 . S
H1669 C1685 0.930 . S
H1670 C1686 0.931 . S
C1671 H1659 0.929 . S
C1671 C1665 1.390 . S
C1671 C1668 1.386 . S
C1672 C1667 1.490 . S
C1672 C1674 1.395 . S
C1672 C1675 1.403 . S
H1673 C1679 0.930 . S
C1674 H1660 0.930 . S
C1674 C1672 1.395 . S
C1674 C1677 1.403 . S
C1675 C1672 1.403 . S
C1675 C1676 1.524 . S
C1675 C1679 1.400 . S
C1676 H1661 0.960 . S
C1676 H1662 0.960 . S
C1676 H1663 0.960 . S
C1676 C1675 1.524 . S
C1677 C1674 1.403 . S
C1677 C1678 1.392 . S
C1677 C1681 1.495 . S
C1678 C1677 1.392 . S
C1678 C1679 1.385 . S
C1678 C1680 1.478 . S
C1679 H1673 0.930 . S
C1679 C1675 1.400 . S
C1679 C1678 1.385 . S
C1680 C1678 1.478 . S
C1680 C1682 1.381 . S
C1680 C1686 1.383 . S
C1681 C1677 1.495 . S
C1681 H1687 0.959 . S
C1681 H1688 0.961 . S
C1681 H1689 0.960 . S
C1682 C1680 1.381 . S
C1682 C1683 1.394 . S
C1682 H1690 0.930 . S
C1683 C1682 1.394 . S
C1683 C1684 1.383 . S
C1683 H1691 0.929 . S
C1684 C1683 1.383 . S
C1684 C1685 1.377 . S
C1685 H1669 0.930 . S
C1685 C1684 1.377 . S
C1685 C1686 1.379 . S
C1686 H1670 0.931 . S
C1686 C1680 1.383 . S
C1686 C1685 1.379 . S
H1687 C1681 0.959 . S
H1688 C1681 0.961 . S
H1689 C1681 0.960 . S
H1690 C1682 0.930 . S
H1691 C1683 0.929 . S
H1692 C1700 0.929 . S
H1693 C1702 0.930 . S
H1694 C1704 0.930 . S
H1695 C1707 0.929 . S
H1696 C1710 0.930 . S
H1697 C1712 0.960 . S
H1698 C1712 0.960 . S
H1699 C1712 0.960 . S
C1700 H1692 0.929 . S
C1700 C1701 1.377 . S
C1700 C1702 1.384 . S
C1701 C1700 1.377 . S
C1701 C1707 1.390 . S
C1702 H1693 0.930 . S
C1702 C1700 1.384 . S
C1702 C1703 1.372 . S
C1703 C1702 1.372 . S
C1703 C1704 1.400 . S
C1703 C1708 1.490 . S
C1704 H1694 0.930 . S
C1704 C1703 1.400 . S
C1704 C1707 1.386 . S
H1705 C1721 0.930 . S
H1706 C1722 0.931 . S
C1707 H1695 0.929 . S
C1707 C1701 1.390 . S
C1707 C1704 1.386 . S
C1708 C1703 1.490 . S
C1708 C1710 1.395 . S
C1708 C1711 1.403 . S
H1709 C1715 0.930 . S
C1710 H1696 0.930 . S
C1710 C1708 1.395 . S
C1710 C1713 1.403 . S
C1711 C1708 1.403 . S
C1711 C1712 1.524 . S
C1711 C1715 1.400 . S
C1712 H1697 0.960 . S
C1712 H1698 0.960 . S
C1712 H1699 0.960 . S
C1712 C1711 1.524 . S
C1713 C1710 1.403 . S
C1713 C1714 1.392 . S
C1713 C1717 1.495 . S
C1714 C1713 1.392 . S
C1714 C1715 1.385 . S
C1714 C1716 1.478 . S
C1715 H1709 0.930 . S
C1715 C1711 1.400 . S
C1715 C1714 1.385 . S
C1716 C1714 1.478 . S
C1716 C1718 1.381 . S
C1716 C1722 1.383 . S
C1717 C1713 1.495 . S
C1717 H1723 0.959 . S
C1717 H1724 0.961 . S
C1717 H1725 0.960 . S
C1718 C1716 1.381 . S
C1718 C1719 1.394 . S
C1718 H1726 0.930 . S
C1719 C1718 1.394 . S
C1719 C1720 1.383 . S
C1719 H1727 0.929 . S
C1720 C1719 1.383 . S
C1720 C1721 1.377 . S
C1721 H1705 0.930 . S
C1721 C1720 1.377 . S
C1721 C1722 1.379 . S
C1722 H1706 0.931 . S
C1722 C1716 1.383 . S
C1722 C1721 1.379 . S
H1723 C1717 0.959 . S
H1724 C1717 0.961 . S
H1725 C1717 0.960 . S
H1726 C1718 0.930 . S
H1727 C1719 0.929 . S
H1728 C1736 0.929 . S
H1729 C1738 0.930 . S
H1730 C1740 0.930 . S
H1731 C1743 0.929 . S
H1732 C1746 0.930 . S
H1733 C1748 0.960 . S
H1734 C1748 0.960 . S
H1735 C1748 0.960 . S
C1736 H1728 0.929 . S
C1736 C1737 1.377 . S
C1736 C1738 1.384 . S
C1737 C1736 1.377 . S
C1737 C1743 1.390 . S
C1738 H1729 0.930 . S
C1738 C1736 1.384 . S
C1738 C1739 1.372 . S
C1739 C1738 1.372 . S
C1739 C1740 1.400 . S
C1739 C1744 1.490 . S
C1740 H1730 0.930 . S
C1740 C1739 1.400 . S
C1740 C1743 1.386 . S
H1741 C1757 0.930 . S
H1742 C1758 0.931 . S
C1743 H1731 0.929 . S
C1743 C1737 1.390 . S
C1743 C1740 1.386 . S
C1744 C1739 1.490 . S
C1744 C1746 1.395 . S
C1744 C1747 1.403 . S
H1745 C1751 0.930 . S
C1746 H1732 0.930 . S
C1746 C1744 1.395 . S
C1746 C1749 1.403 . S
C1747 C1744 1.403 . S
C1747 C1748 1.524 . S
C1747 C1751 1.400 . S
C1748 H1733 0.960 . S
C1748 H1734 0.960 . S
C1748 H1735 0.960 . S
C1748 C1747 1.524 . S
C1749 C1746 1.403 . S
C1749 C1750 1.392 . S
C1749 C1753 1.495 . S
C1750 C1749 1.392 . S
C1750 C1751 1.385 . S
C1750 C1752 1.478 . S
C1751 H1745 0.930 . S
C1751 C1747 1.400 . S
C1751 C1750 1.385 . S
C1752 C1750 1.478 . S
C1752 C1754 1.381 . S
C1752 C1758 1.383 . S
C1753 C1749 1.495 . S
C1753 H1759 0.959 . S
C1753 H1760 0.961 . S
C1753 H1761 0.960 . S
C1754 C1752 1.381 . S
C1754 C1755 1.394 . S
C1754 H1762 0.930 . S
C1755 C1754 1.394 . S
C1755 C1756 1.383 . S
C1755 H1763 0.929 . S
C1756 C1755 1.383 . S
C1756 C1757 1.377 . S
C1757 H1741 0.930 . S
C1757 C1756 1.377 . S
C1757 C1758 1.379 . S
C1758 H1742 0.931 . S
C1758 C1752 1.383 . S
C1758 C1757 1.379 . S
H1759 C1753 0.959 . S
H1760 C1753 0.961 . S
H1761 C1753 0.960 . S
H1762 C1754 0.930 . S
H1763 C1755 0.929 . S
H1764 C1772 0.929 . S
H1765 C1774 0.930 . S
H1766 C1776 0.930 . S
H1767 C1779 0.929 . S
H1768 C1782 0.930 . S
H1769 C1784 0.960 . S
H1770 C1784 0.960 . S
H1771 C1784 0.960 . S
C1772 H1764 0.929 . S
C1772 C1773 1.377 . S
C1772 C1774 1.384 . S
C1773 C1772 1.377 . S
C1773 C1779 1.390 . S
C1774 H1765 0.930 . S
C1774 C1772 1.384 . S
C1774 C1775 1.372 . S
C1775 C1774 1.372 . S
C1775 C1776 1.400 . S
C1775 C1780 1.490 . S
C1776 H1766 0.930 . S
C1776 C1775 1.400 . S
C1776 C1779 1.386 . S
H1777 C1793 0.930 . S
H1778 C1794 0.931 . S
C1779 H1767 0.929 . S
C1779 C1773 1.390 . S
C1779 C1776 1.386 . S
C1780 C1775 1.490 . S
C1780 C1782 1.395 . S
C1780 C1783 1.403 . S
H1781 C1787 0.930 . S
C1782 H1768 0.930 . S
C1782 C1780 1.395 . S
C1782 C1785 1.403 . S
C1783 C1780 1.403 . S
C1783 C1784 1.524 . S
C1783 C1787 1.400 . S
C1784 H1769 0.960 . S
C1784 H1770 0.960 . S
C1784 H1771 0.960 . S
C1784 C1783 1.524 . S
C1785 C1782 1.403 . S
C1785 C1786 1.392 . S
C1785 C1789 1.495 . S
C1786 C1785 1.392 . S
C1786 C1787 1.385 . S
C1786 C1788 1.478 . S
C1787 H1781 0.930 . S
C1787 C1783 1.400 . S
C1787 C1786 1.385 . S
C1788 C1786 1.478 . S
C1788 C1790 1.381 . S
C1788 C1794 1.383 . S
C1789 C1785 1.495 . S
C1789 H1795 0.959 . S
C1789 H1796 0.961 . S
C1789 H1797 0.960 . S
C1790 C1788 1.381 . S
C1790 C1791 1.394 . S
C1790 H1798 0.930 . S
C1791 C1790 1.394 . S
C1791 C1792 1.383 . S
C1791 H1799 0.929 . S
C1792 C1791 1.383 . S
C1792 C1793 1.377 . S
C1793 H1777 0.930 . S
C1793 C1792 1.377 . S
C1793 C1794 1.379 . S
C1794 H1778 0.931 . S
C1794 C1788 1.383 . S
C1794 C1793 1.379 . S
H1795 C1789 0.959 . S
H1796 C1789 0.961 . S
H1797 C1789 0.960 . S
H1798 C1790 0.930 . S
H1799 C1791 0.929 . S
H1800 C1808 0.929 . S
H1801 C1810 0.930 . S
H1802 C1812 0.930 . S
H1803 C1815 0.929 . S
H1804 C1818 0.930 . S
H1805 C1820 0.960 . S
H1806 C1820 0.960 . S
H1807 C1820 0.960 . S
C1808 H1800 0.929 . S
C1808 C1809 1.377 . S
C1808 C1810 1.384 . S
C1809 C1808 1.377 . S
C1809 C1815 1.390 . S
C1810 H1801 0.930 . S
C1810 C1808 1.384 . S
C1810 C1811 1.372 . S
C1811 C1810 1.372 . S
C1811 C1812 1.400 . S
C1811 C1816 1.490 . S
C1812 H1802 0.930 . S
C1812 C1811 1.400 . S
C1812 C1815 1.386 . S
H1813 C1829 0.930 . S
H1814 C1830 0.931 . S
C1815 H1803 0.929 . S
C1815 C1809 1.390 . S
C1815 C1812 1.386 . S
C1816 C1811 1.490 . S
C1816 C1818 1.395 . S
C1816 C1819 1.403 . S
H1817 C1823 0.930 . S
C1818 H1804 0.930 . S
C1818 C1816 1.395 . S
C1818 C1821 1.403 . S
C1819 C1816 1.403 . S
C1819 C1820 1.524 . S
C1819 C1823 1.400 . S
C1820 H1805 0.960 . S
C1820 H1806 0.960 . S
C1820 H1807 0.960 . S
C1820 C1819 1.524 . S
C1821 C1818 1.403 . S
C1821 C1822 1.392 . S
C1821 C1825 1.495 . S
C1822 C1821 1.392 . S
C1822 C1823 1.385 . S
C1822 C1824 1.478 . S
C1823 H1817 0.930 . S
C1823 C1819 1.400 . S
C1823 C1822 1.385 . S
C1824 C1822 1.478 . S
C1824 C1826 1.381 . S
C1824 C1830 1.383 . S
C1825 C1821 1.495 . S
C1825 H1831 0.959 . S
C1825 H1832 0.961 . S
C1825 H1833 0.960 . S
C1826 C1824 1.381 . S
C1826 C1827 1.394 . S
C1826 H1834 0.930 . S
C1827 C1826 1.394 . S
C1827 C1828 1.383 . S
C1827 H1835 0.929 . S
C1828 C1827 1.383 . S
C1828 C1829 1.377 . S
C1829 H1813 0.930 . S
C1829 C1828 1.377 . S
C1829 C1830 1.379 . S
C1830 H1814 0.931 . S
C1830 C1824 1.383 . S
C1830 C1829 1.379 . S
H1831 C1825 0.959 . S
H1832 C1825 0.961 . S
H1833 C1825 0.960 . S
H1834 C1826 0.930 . S
H1835 C1827 0.929 . S
H1836 C1844 0.929 . S
H1837 C1846 0.930 . S
H1838 C1848 0.930 . S
H1839 C1851 0.929 . S
H1840 C1854 0.930 . S
H1841 C1856 0.960 . S
H1842 C1856 0.960 . S
H1843 C1856 0.960 . S
C1844 H1836 0.929 . S
C1844 C1845 1.377 . S
C1844 C1846 1.384 . S
C1845 C1844 1.377 . S
C1845 C1851 1.390 . S
C1846 H1837 0.930 . S
C1846 C1844 1.384 . S
C1846 C1847 1.372 . S
C1847 C1846 1.372 . S
C1847 C1848 1.400 . S
C1847 C1852 1.490 . S
C1848 H1838 0.930 . S
C1848 C1847 1.400 . S
C1848 C1851 1.386 . S
H1849 C1865 0.930 . S
H1850 C1866 0.931 . S
C1851 H1839 0.929 . S
C1851 C1845 1.390 . S
C1851 C1848 1.386 . S
C1852 C1847 1.490 . S
C1852 C1854 1.395 . S
C1852 C1855 1.403 . S
H1853 C1859 0.930 . S
C1854 H1840 0.930 . S
C1854 C1852 1.395 . S
C1854 C1857 1.403 . S
C1855 C1852 1.403 . S
C1855 C1856 1.524 . S
C1855 C1859 1.400 . S
C1856 H1841 0.960 . S
C1856 H1842 0.960 . S
C1856 H1843 0.960 . S
C1856 C1855 1.524 . S
C1857 C1854 1.403 . S
C1857 C1858 1.392 . S
C1857 C1861 1.495 . S
C1858 C1857 1.392 . S
C1858 C1859 1.385 . S
C1858 C1860 1.478 . S
C1859 H1853 0.930 . S
C1859 C1855 1.400 . S
C1859 C1858 1.385 . S
C1860 C1858 1.478 . S
C1860 C1862 1.381 . S
C1860 C1866 1.383 . S
C1861 C1857 1.495 . S
C1861 H1867 0.959 . S
C1861 H1868 0.961 . S
C1861 H1869 0.960 . S
C1862 C1860 1.381 . S
C1862 C1863 1.394 . S
C1862 H1870 0.930 . S
C1863 C1862 1.394 . S
C1863 C1864 1.383 . S
C1863 H1871 0.929 . S
C1864 C1863 1.383 . S
C1864 C1865 1.377 . S
C1865 H1849 0.930 . S
C1865 C1864 1.377 . S
C1865 C1866 1.379 . S
C1866 H1850 0.931 . S
C1866 C1860 1.383 . S
C1866 C1865 1.379 . S
H1867 C1861 0.959 . S
H1868 C1861 0.961 . S
H1869 C1861 0.960 . S
H1870 C1862 0.930 . S
H1871 C1863 0.929 . S
H1872 C1880 0.929 . S
H1873 C1882 0.930 . S
H1874 C1884 0.930 . S
H1875 C1887 0.929 . S
H1876 C1890 0.930 . S
H1877 C1892 0.960 . S
H1878 C1892 0.960 . S
H1879 C1892 0.960 . S
C1880 H1872 0.929 . S
C1880 C1881 1.377 . S
C1880 C1882 1.384 . S
C1881 C1880 1.377 . S
C1881 C1887 1.390 . S
C1882 H1873 0.930 . S
C1882 C1880 1.384 . S
C1882 C1883 1.372 . S
C1883 C1882 1.372 . S
C1883 C1884 1.400 . S
C1883 C1888 1.490 . S
C1884 H1874 0.930 . S
C1884 C1883 1.400 . S
C1884 C1887 1.386 . S
H1885 C1901 0.930 . S
H1886 C1902 0.931 . S
C1887 H1875 0.929 . S
C1887 C1881 1.390 . S
C1887 C1884 1.386 . S
C1888 C1883 1.490 . S
C1888 C1890 1.395 . S
C1888 C1891 1.403 . S
H1889 C1895 0.930 . S
C1890 H1876 0.930 . S
C1890 C1888 1.395 . S
C1890 C1893 1.403 . S
C1891 C1888 1.403 . S
C1891 C1892 1.524 . S
C1891 C1895 1.400 . S
C1892 H1877 0.960 . S
C1892 H1878 0.960 . S
C1892 H1879 0.960 . S
C1892 C1891 1.524 . S
C1893 C1890 1.403 . S
C1893 C1894 1.392 . S
C1893 C1897 1.495 . S
C1894 C1893 1.392 . S
C1894 C1895 1.385 . S
C1894 C1896 1.478 . S
C1895 H1889 0.930 . S
C1895 C1891 1.400 . S
C1895 C1894 1.385 . S
C1896 C1894 1.478 . S
C1896 C1898 1.381 . S
C1896 C1902 1.383 . S
C1897 C1893 1.495 . S
C1897 H1903 0.959 . S
C1897 H1904 0.961 . S
C1897 H1905 0.960 . S
C1898 C1896 1.381 . S
C1898 C1899 1.394 . S
C1898 H1906 0.930 . S
C1899 C1898 1.394 . S
C1899 C1900 1.383 . S
C1899 H1907 0.929 . S
C1900 C1899 1.383 . S
C1900 C1901 1.377 . S
C1901 H1885 0.930 . S
C1901 C1900 1.377 . S
C1901 C1902 1.379 . S
C1902 H1886 0.931 . S
C1902 C1896 1.383 . S
C1902 C1901 1.379 . S
H1903 C1897 0.959 . S
H1904 C1897 0.961 . S
H1905 C1897 0.960 . S
H1906 C1898 0.930 . S
H1907 C1899 0.929 . S
H1908 C1916 0.929 . S
H1909 C1918 0.930 . S
H1910 C1920 0.930 . S
H1911 C1923 0.929 . S
H1912 C1926 0.930 . S
H1913 C1928 0.960 . S
H1914 C1928 0.960 . S
H1915 C1928 0.960 . S
C1916 H1908 0.929 . S
C1916 C1917 1.377 . S
C1916 C1918 1.384 . S
C1917 C1916 1.377 . S
C1917 C1923 1.390 . S
C1918 H1909 0.930 . S
C1918 C1916 1.384 . S
C1918 C1919 1.372 . S
C1919 C1918 1.372 . S
C1919 C1920 1.400 . S
C1919 C1924 1.490 . S
C1920 H1910 0.930 . S
C1920 C1919 1.400 . S
C1920 C1923 1.386 . S
H1921 C1937 0.930 . S
H1922 C1938 0.931 . S
C1923 H1911 0.929 . S
C1923 C1917 1.390 . S
C1923 C1920 1.386 . S
C1924 C1919 1.490 . S
C1924 C1926 1.395 . S
C1924 C1927 1.403 . S
H1925 C1931 0.930 . S
C1926 H1912 0.930 . S
C1926 C1924 1.395 . S
C1926 C1929 1.403 . S
C1927 C1924 1.403 . S
C1927 C1928 1.524 . S
C1927 C1931 1.400 . S
C1928 H1913 0.960 . S
C1928 H1914 0.960 . S
C1928 H1915 0.960 . S
C1928 C1927 1.524 . S
C1929 C1926 1.403 . S
C1929 C1930 1.392 . S
C1929 C1933 1.495 . S
C1930 C1929 1.392 . S
C1930 C1931 1.385 . S
C1930 C1932 1.478 . S
C1931 H1925 0.930 . S
C1931 C1927 1.400 . S
C1931 C1930 1.385 . S
C1932 C1930 1.478 . S
C1932 C1934 1.381 . S
C1932 C1938 1.383 . S
C1933 C1929 1.495 . S
C1933 H1939 0.959 . S
C1933 H1940 0.961 . S
C1933 H1941 0.960 . S
C1934 C1932 1.381 . S
C1934 C1935 1.394 . S
C1934 H1942 0.930 . S
C1935 C1934 1.394 . S
C1935 C1936 1.383 . S
C1935 H1943 0.929 1_455 S
C1936 C1935 1.383 . S
C1936 C1937 1.377 . S
C1937 H1921 0.930 . S
C1937 C1936 1.377 . S
C1937 C1938 1.379 . S
C1938 H1922 0.931 . S
C1938 C1932 1.383 . S
C1938 C1937 1.379 . S
H1939 C1933 0.959 . S
H1940 C1933 0.961 . S
H1941 C1933 0.960 . S
H1942 C1934 0.930 . S
H1943 C1935 0.929 1_655 S
H1944 C1952 0.929 . S
H1945 C1954 0.930 . S
H1946 C1956 0.930 . S
H1947 C1959 0.929 . S
H1948 C1962 0.930 . S
H1949 C1964 0.960 . S
H1950 C1964 0.960 . S
H1951 C1964 0.960 . S
C1952 H1944 0.929 . S
C1952 C1953 1.377 . S
C1952 C1954 1.384 . S
C1953 C1952 1.377 . S
C1953 C1959 1.390 . S
C1954 H1945 0.930 . S
C1954 C1952 1.384 . S
C1954 C1955 1.372 . S
C1955 C1954 1.372 . S
C1955 C1956 1.400 . S
C1955 C1960 1.490 . S
C1956 H1946 0.930 . S
C1956 C1955 1.400 . S
C1956 C1959 1.386 . S
H1957 C1973 0.930 . S
H1958 C1974 0.931 . S
C1959 H1947 0.929 . S
C1959 C1953 1.390 . S
C1959 C1956 1.386 . S
C1960 C1955 1.490 . S
C1960 C1962 1.395 . S
C1960 C1963 1.403 . S
H1961 C1967 0.930 . S
C1962 H1948 0.930 . S
C1962 C1960 1.395 . S
C1962 C1965 1.403 . S
C1963 C1960 1.403 . S
C1963 C1964 1.524 . S
C1963 C1967 1.400 . S
C1964 H1949 0.960 . S
C1964 H1950 0.960 . S
C1964 H1951 0.960 . S
C1964 C1963 1.524 . S
C1965 C1962 1.403 . S
C1965 C1966 1.392 . S
C1965 C1969 1.495 . S
C1966 C1965 1.392 . S
C1966 C1967 1.385 . S
C1966 C1968 1.478 . S
C1967 H1961 0.930 . S
C1967 C1963 1.400 . S
C1967 C1966 1.385 . S
C1968 C1966 1.478 . S
C1968 C1970 1.381 . S
C1968 C1974 1.383 . S
C1969 C1965 1.495 . S
C1969 H1975 0.959 . S
C1969 H1976 0.961 . S
C1969 H1977 0.960 . S
C1970 C1968 1.381 . S
C1970 C1971 1.394 . S
C1970 H1978 0.930 . S
C1971 C1970 1.394 . S
C1971 C1972 1.383 . S
C1971 H1979 0.929 . S
C1972 C1971 1.383 . S
C1972 C1973 1.377 . S
C1973 H1957 0.930 . S
C1973 C1972 1.377 . S
C1973 C1974 1.379 . S
C1974 H1958 0.931 . S
C1974 C1968 1.383 . S
C1974 C1973 1.379 . S
H1975 C1969 0.959 . S
H1976 C1969 0.961 . S
H1977 C1969 0.960 . S
H1978 C1970 0.930 . S
H1979 C1971 0.929 . S
H1980 C1988 0.929 . S
H1981 C1990 0.930 . S
H1982 C1992 0.930 . S
H1983 C1995 0.929 . S
H1984 C1998 0.930 . S
H1985 C2000 0.960 . S
H1986 C2000 0.960 . S
H1987 C2000 0.960 . S
C1988 H1980 0.929 . S
C1988 C1989 1.377 . S
C1988 C1990 1.384 . S
C1989 C1988 1.377 . S
C1989 C1995 1.390 . S
C1990 H1981 0.930 . S
C1990 C1988 1.384 . S
C1990 C1991 1.372 . S
C1991 C1990 1.372 . S
C1991 C1992 1.400 . S
C1991 C1996 1.490 . S
C1992 H1982 0.930 . S
C1992 C1991 1.400 . S
C1992 C1995 1.386 . S
H1993 C2009 0.930 . S
H1994 C2010 0.931 . S
C1995 H1983 0.929 . S
C1995 C1989 1.390 . S
C1995 C1992 1.386 . S
C1996 C1991 1.490 . S
C1996 C1998 1.395 . S
C1996 C1999 1.403 . S
H1997 C2003 0.930 . S
C1998 H1984 0.930 . S
C1998 C1996 1.395 . S
C1998 C2001 1.403 . S
C1999 C1996 1.403 . S
C1999 C2000 1.524 . S
C1999 C2003 1.400 . S
C2000 H1985 0.960 . S
C2000 H1986 0.960 . S
C2000 H1987 0.960 . S
C2000 C1999 1.524 . S
C2001 C1998 1.403 . S
C2001 C2002 1.392 . S
C2001 C2005 1.495 . S
C2002 C2001 1.392 . S
C2002 C2003 1.385 . S
C2002 C2004 1.478 . S
C2003 H1997 0.930 . S
C2003 C1999 1.400 . S
C2003 C2002 1.385 . S
C2004 C2002 1.478 . S
C2004 C2006 1.381 . S
C2004 C2010 1.383 . S
C2005 C2001 1.495 . S
C2005 H2011 0.959 . S
C2005 H2012 0.961 . S
C2005 H2013 0.960 . S
C2006 C2004 1.381 . S
C2006 C2007 1.394 . S
C2006 H2014 0.930 . S
C2007 C2006 1.394 . S
C2007 C2008 1.383 . S
C2007 H2015 0.929 . S
C2008 C2007 1.383 . S
C2008 C2009 1.377 . S
C2009 H1993 0.930 . S
C2009 C2008 1.377 . S
C2009 C2010 1.379 . S
C2010 H1994 0.931 . S
C2010 C2004 1.383 . S
C2010 C2009 1.379 . S
H2011 C2005 0.959 . S
H2012 C2005 0.961 . S
H2013 C2005 0.960 . S
H2014 C2006 0.930 . S
H2015 C2007 0.929 . S
H2016 C2024 0.929 . S
H2017 C2026 0.930 . S
H2018 C2028 0.930 . S
H2019 C2031 0.929 . S
H2020 C2034 0.930 . S
H2021 C2036 0.960 . S
H2022 C2036 0.960 . S
H2023 C2036 0.960 . S
C2024 H2016 0.929 . S
C2024 C2025 1.377 . S
C2024 C2026 1.384 . S
C2025 C2024 1.377 . S
C2025 C2031 1.390 . S
C2026 H2017 0.930 . S
C2026 C2024 1.384 . S
C2026 C2027 1.372 . S
C2027 C2026 1.372 . S
C2027 C2028 1.400 . S
C2027 C2032 1.490 . S
C2028 H2018 0.930 . S
C2028 C2027 1.400 . S
C2028 C2031 1.386 . S
H2029 C2045 0.930 . S
H2030 C2046 0.931 . S
C2031 H2019 0.929 . S
C2031 C2025 1.390 . S
C2031 C2028 1.386 . S
C2032 C2027 1.490 . S
C2032 C2034 1.395 . S
C2032 C2035 1.403 . S
H2033 C2039 0.930 . S
C2034 H2020 0.930 . S
C2034 C2032 1.395 . S
C2034 C2037 1.403 . S
C2035 C2032 1.403 . S
C2035 C2036 1.524 . S
C2035 C2039 1.400 . S
C2036 H2021 0.960 . S
C2036 H2022 0.960 . S
C2036 H2023 0.960 . S
C2036 C2035 1.524 . S
C2037 C2034 1.403 . S
C2037 C2038 1.392 . S
C2037 C2041 1.495 . S
C2038 C2037 1.392 . S
C2038 C2039 1.385 . S
C2038 C2040 1.478 . S
C2039 H2033 0.930 . S
C2039 C2035 1.400 . S
C2039 C2038 1.385 . S
C2040 C2038 1.478 . S
C2040 C2042 1.381 . S
C2040 C2046 1.383 . S
C2041 C2037 1.495 . S
C2041 H2047 0.959 . S
C2041 H2048 0.961 . S
C2041 H2049 0.960 . S
C2042 C2040 1.381 . S
C2042 C2043 1.394 . S
C2042 H2050 0.930 . S
C2043 C2042 1.394 . S
C2043 C2044 1.383 . S
C2043 H2051 0.929 . S
C2044 C2043 1.383 . S
C2044 C2045 1.377 . S
C2045 H2029 0.930 . S
C2045 C2044 1.377 . S
C2045 C2046 1.379 . S
C2046 H2030 0.931 . S
C2046 C2040 1.383 . S
C2046 C2045 1.379 . S
H2047 C2041 0.959 . S
H2048 C2041 0.961 . S
H2049 C2041 0.960 . S
H2050 C2042 0.930 . S
H2051 C2043 0.929 . S
H2052 C2060 0.929 . S
H2053 C2062 0.930 . S
H2054 C2064 0.930 . S
H2055 C2067 0.929 . S
H2056 C2070 0.930 . S
H2057 C2072 0.960 . S
H2058 C2072 0.960 . S
H2059 C2072 0.960 . S
C2060 H2052 0.929 . S
C2060 C2061 1.377 . S
C2060 C2062 1.384 . S
C2061 C2060 1.377 . S
C2061 C2067 1.390 . S
C2062 H2053 0.930 . S
C2062 C2060 1.384 . S
C2062 C2063 1.372 . S
C2063 C2062 1.372 . S
C2063 C2064 1.400 . S
C2063 C2068 1.490 . S
C2064 H2054 0.930 . S
C2064 C2063 1.400 . S
C2064 C2067 1.386 . S
H2065 C2081 0.930 . S
H2066 C2082 0.931 . S
C2067 H2055 0.929 . S
C2067 C2061 1.390 . S
C2067 C2064 1.386 . S
C2068 C2063 1.490 . S
C2068 C2070 1.395 . S
C2068 C2071 1.403 . S
H2069 C2075 0.930 . S
C2070 H2056 0.930 . S
C2070 C2068 1.395 . S
C2070 C2073 1.403 . S
C2071 C2068 1.403 . S
C2071 C2072 1.524 . S
C2071 C2075 1.400 . S
C2072 H2057 0.960 . S
C2072 H2058 0.960 . S
C2072 H2059 0.960 . S
C2072 C2071 1.524 . S
C2073 C2070 1.403 . S
C2073 C2074 1.392 . S
C2073 C2077 1.495 . S
C2074 C2073 1.392 . S
C2074 C2075 1.385 . S
C2074 C2076 1.478 . S
C2075 H2069 0.930 . S
C2075 C2071 1.400 . S
C2075 C2074 1.385 . S
C2076 C2074 1.478 . S
C2076 C2078 1.381 . S
C2076 C2082 1.383 . S
C2077 C2073 1.495 . S
C2077 H2083 0.959 . S
C2077 H2084 0.961 . S
C2077 H2085 0.960 . S
C2078 C2076 1.381 . S
C2078 C2079 1.394 . S
C2078 H2086 0.930 . S
C2079 C2078 1.394 . S
C2079 C2080 1.383 . S
C2079 H2087 0.929 . S
C2080 C2079 1.383 . S
C2080 C2081 1.377 . S
C2081 H2065 0.930 . S
C2081 C2080 1.377 . S
C2081 C2082 1.379 . S
C2082 H2066 0.931 . S
C2082 C2076 1.383 . S
C2082 C2081 1.379 . S
H2083 C2077 0.959 . S
H2084 C2077 0.961 . S
H2085 C2077 0.960 . S
H2086 C2078 0.930 . S
H2087 C2079 0.929 . S
H2088 C2096 0.929 . S
H2089 C2098 0.930 . S
H2090 C2100 0.930 . S
H2091 C2103 0.929 . S
H2092 C2106 0.930 . S
H2093 C2108 0.960 . S
H2094 C2108 0.960 . S
H2095 C2108 0.960 . S
C2096 H2088 0.929 . S
C2096 C2097 1.377 . S
C2096 C2098 1.384 . S
C2097 C2096 1.377 . S
C2097 C2103 1.390 . S
C2098 H2089 0.930 . S
C2098 C2096 1.384 . S
C2098 C2099 1.372 . S
C2099 C2098 1.372 . S
C2099 C2100 1.400 . S
C2099 C2104 1.490 . S
C2100 H2090 0.930 . S
C2100 C2099 1.400 . S
C2100 C2103 1.386 . S
H2101 C2117 0.930 . S
H2102 C2118 0.931 . S
C2103 H2091 0.929 . S
C2103 C2097 1.390 . S
C2103 C2100 1.386 . S
C2104 C2099 1.490 . S
C2104 C2106 1.395 . S
C2104 C2107 1.403 . S
H2105 C2111 0.930 . S
C2106 H2092 0.930 . S
C2106 C2104 1.395 . S
C2106 C2109 1.403 . S
C2107 C2104 1.403 . S
C2107 C2108 1.524 . S
C2107 C2111 1.400 . S
C2108 H2093 0.960 . S
C2108 H2094 0.960 . S
C2108 H2095 0.960 . S
C2108 C2107 1.524 . S
C2109 C2106 1.403 . S
C2109 C2110 1.392 . S
C2109 C2113 1.495 . S
C2110 C2109 1.392 . S
C2110 C2111 1.385 . S
C2110 C2112 1.478 . S
C2111 H2105 0.930 . S
C2111 C2107 1.400 . S
C2111 C2110 1.385 . S
C2112 C2110 1.478 . S
C2112 C2114 1.381 . S
C2112 C2118 1.383 . S
C2113 C2109 1.495 . S
C2113 H2119 0.959 . S
C2113 H2120 0.961 . S
C2113 H2121 0.960 . S
C2114 C2112 1.381 . S
C2114 C2115 1.394 . S
C2114 H2122 0.930 . S
C2115 C2114 1.394 . S
C2115 C2116 1.383 . S
C2115 H2123 0.929 . S
C2116 C2115 1.383 . S
C2116 C2117 1.377 . S
C2117 H2101 0.930 . S
C2117 C2116 1.377 . S
C2117 C2118 1.379 . S
C2118 H2102 0.931 . S
C2118 C2112 1.383 . S
C2118 C2117 1.379 . S
H2119 C2113 0.959 . S
H2120 C2113 0.961 . S
H2121 C2113 0.960 . S
H2122 C2114 0.930 . S
H2123 C2115 0.929 . S
H2124 C2132 0.929 . S
H2125 C2134 0.930 . S
H2126 C2136 0.930 . S
H2127 C2139 0.929 1_455 S
H2128 C2142 0.930 . S
H2129 C2144 0.960 . S
H2130 C2144 0.960 . S
H2131 C2144 0.960 . S
C2132 H2124 0.929 . S
C2132 C2133 1.377 . S
C2132 C2134 1.384 . S
C2133 C2132 1.377 . S
C2133 C2139 1.390 . S
C2134 H2125 0.930 . S
C2134 C2132 1.384 . S
C2134 C2135 1.372 . S
C2135 C2134 1.372 . S
C2135 C2136 1.400 . S
C2135 C2140 1.490 . S
C2136 H2126 0.930 . S
C2136 C2135 1.400 . S
C2136 C2139 1.386 . S
H2137 C2153 0.930 . S
H2138 C2154 0.931 . S
C2139 H2127 0.929 1_655 S
C2139 C2133 1.390 . S
C2139 C2136 1.386 . S
C2140 C2135 1.490 . S
C2140 C2142 1.395 . S
C2140 C2143 1.403 . S
H2141 C2147 0.930 . S
C2142 H2128 0.930 . S
C2142 C2140 1.395 . S
C2142 C2145 1.403 . S
C2143 C2140 1.403 . S
C2143 C2144 1.524 . S
C2143 C2147 1.400 . S
C2144 H2129 0.960 . S
C2144 H2130 0.960 . S
C2144 H2131 0.960 . S
C2144 C2143 1.524 . S
C2145 C2142 1.403 . S
C2145 C2146 1.392 . S
C2145 C2149 1.495 . S
C2146 C2145 1.392 . S
C2146 C2147 1.385 . S
C2146 C2148 1.478 . S
C2147 H2141 0.930 . S
C2147 C2143 1.400 . S
C2147 C2146 1.385 . S
C2148 C2146 1.478 . S
C2148 C2150 1.381 . S
C2148 C2154 1.383 . S
C2149 C2145 1.495 . S
C2149 H2155 0.959 . S
C2149 H2156 0.961 . S
C2149 H2157 0.960 . S
C2150 C2148 1.381 . S
C2150 C2151 1.394 . S
C2150 H2158 0.930 . S
C2151 C2150 1.394 . S
C2151 C2152 1.383 . S
C2151 H2159 0.929 . S
C2152 C2151 1.383 . S
C2152 C2153 1.377 . S
C2153 H2137 0.930 . S
C2153 C2152 1.377 . S
C2153 C2154 1.379 . S
C2154 H2138 0.931 . S
C2154 C2148 1.383 . S
C2154 C2153 1.379 . S
H2155 C2149 0.959 . S
H2156 C2149 0.961 . S
H2157 C2149 0.960 . S
H2158 C2150 0.930 . S
H2159 C2151 0.929 . S
H2160 C2168 0.929 . S
H2161 C2170 0.930 . S
H2162 C2172 0.930 . S
H2163 C2175 0.929 . S
H2164 C2178 0.930 . S
H2165 C2180 0.960 . S
H2166 C2180 0.960 . S
H2167 C2180 0.960 . S
C2168 H2160 0.929 . S
C2168 C2169 1.377 . S
C2168 C2170 1.384 . S
C2169 C2168 1.377 . S
C2169 C2175 1.390 . S
C2170 H2161 0.930 . S
C2170 C2168 1.384 . S
C2170 C2171 1.372 . S
C2171 C2170 1.372 . S
C2171 C2172 1.400 . S
C2171 C2176 1.490 . S
C2172 H2162 0.930 . S
C2172 C2171 1.400 . S
C2172 C2175 1.386 . S
H2173 C2189 0.930 . S
H2174 C2190 0.931 . S
C2175 H2163 0.929 . S
C2175 C2169 1.390 . S
C2175 C2172 1.386 . S
C2176 C2171 1.490 . S
C2176 C2178 1.395 . S
C2176 C2179 1.403 . S
H2177 C2183 0.930 . S
C2178 H2164 0.930 . S
C2178 C2176 1.395 . S
C2178 C2181 1.403 . S
C2179 C2176 1.403 . S
C2179 C2180 1.524 . S
C2179 C2183 1.400 . S
C2180 H2165 0.960 . S
C2180 H2166 0.960 . S
C2180 H2167 0.960 . S
C2180 C2179 1.524 . S
C2181 C2178 1.403 . S
C2181 C2182 1.392 . S
C2181 C2185 1.495 . S
C2182 C2181 1.392 . S
C2182 C2183 1.385 . S
C2182 C2184 1.478 . S
C2183 H2177 0.930 . S
C2183 C2179 1.400 . S
C2183 C2182 1.385 . S
C2184 C2182 1.478 . S
C2184 C2186 1.381 . S
C2184 C2190 1.383 . S
C2185 C2181 1.495 . S
C2185 H2191 0.959 . S
C2185 H2192 0.961 . S
C2185 H2193 0.960 . S
C2186 C2184 1.381 . S
C2186 C2187 1.394 . S
C2186 H2194 0.930 . S
C2187 C2186 1.394 . S
C2187 C2188 1.383 . S
C2187 H2195 0.929 . S
C2188 C2187 1.383 . S
C2188 C2189 1.377 . S
C2189 H2173 0.930 . S
C2189 C2188 1.377 . S
C2189 C2190 1.379 . S
C2190 H2174 0.931 . S
C2190 C2184 1.383 . S
C2190 C2189 1.379 . S
H2191 C2185 0.959 . S
H2192 C2185 0.961 . S
H2193 C2185 0.960 . S
H2194 C2186 0.930 . S
H2195 C2187 0.929 . S
H2196 C2204 0.929 . S
H2197 C2206 0.930 . S
H2198 C2208 0.930 . S
H2199 C2211 0.929 . S
H2200 C2214 0.930 . S
H2201 C2216 0.960 . S
H2202 C2216 0.960 . S
H2203 C2216 0.960 . S
C2204 H2196 0.929 . S
C2204 C2205 1.377 . S
C2204 C2206 1.384 . S
C2205 C2204 1.377 . S
C2205 C2211 1.390 . S
C2206 H2197 0.930 . S
C2206 C2204 1.384 . S
C2206 C2207 1.372 . S
C2207 C2206 1.372 . S
C2207 C2208 1.400 . S
C2207 C2212 1.490 . S
C2208 H2198 0.930 . S
C2208 C2207 1.400 . S
C2208 C2211 1.386 . S
H2209 C2225 0.930 . S
H2210 C2226 0.931 . S
C2211 H2199 0.929 . S
C2211 C2205 1.390 . S
C2211 C2208 1.386 . S
C2212 C2207 1.490 . S
C2212 C2214 1.395 . S
C2212 C2215 1.403 . S
H2213 C2219 0.930 . S
C2214 H2200 0.930 . S
C2214 C2212 1.395 . S
C2214 C2217 1.403 . S
C2215 C2212 1.403 . S
C2215 C2216 1.524 . S
C2215 C2219 1.400 . S
C2216 H2201 0.960 . S
C2216 H2202 0.960 . S
C2216 H2203 0.960 . S
C2216 C2215 1.524 . S
C2217 C2214 1.403 . S
C2217 C2218 1.392 . S
C2217 C2221 1.495 . S
C2218 C2217 1.392 . S
C2218 C2219 1.385 . S
C2218 C2220 1.478 . S
C2219 H2213 0.930 . S
C2219 C2215 1.400 . S
C2219 C2218 1.385 . S
C2220 C2218 1.478 . S
C2220 C2222 1.381 . S
C2220 C2226 1.383 . S
C2221 C2217 1.495 . S
C2221 H2227 0.959 . S
C2221 H2228 0.961 . S
C2221 H2229 0.960 . S
C2222 C2220 1.381 . S
C2222 C2223 1.394 . S
C2222 H2230 0.930 . S
C2223 C2222 1.394 . S
C2223 C2224 1.383 . S
C2223 H2231 0.929 . S
C2224 C2223 1.383 . S
C2224 C2225 1.377 . S
C2225 H2209 0.930 . S
C2225 C2224 1.377 . S
C2225 C2226 1.379 . S
C2226 H2210 0.931 . S
C2226 C2220 1.383 . S
C2226 C2225 1.379 . S
H2227 C2221 0.959 . S
H2228 C2221 0.961 . S
H2229 C2221 0.960 . S
H2230 C2222 0.930 . S
H2231 C2223 0.929 . S
H2232 C2240 0.929 . S
H2233 C2242 0.930 . S
H2234 C2244 0.930 . S
H2235 C2247 0.929 . S
H2236 C2250 0.930 . S
H2237 C2252 0.960 . S
H2238 C2252 0.960 . S
H2239 C2252 0.960 . S
C2240 H2232 0.929 . S
C2240 C2241 1.377 . S
C2240 C2242 1.384 . S
C2241 C2240 1.377 . S
C2241 C2247 1.390 . S
C2242 H2233 0.930 . S
C2242 C2240 1.384 . S
C2242 C2243 1.372 . S
C2243 C2242 1.372 . S
C2243 C2244 1.400 . S
C2243 C2248 1.490 . S
C2244 H2234 0.930 . S
C2244 C2243 1.400 . S
C2244 C2247 1.386 . S
H2245 C2261 0.930 . S
H2246 C2262 0.931 . S
C2247 H2235 0.929 . S
C2247 C2241 1.390 . S
C2247 C2244 1.386 . S
C2248 C2243 1.490 . S
C2248 C2250 1.395 . S
C2248 C2251 1.403 . S
H2249 C2255 0.930 . S
C2250 H2236 0.930 . S
C2250 C2248 1.395 . S
C2250 C2253 1.403 . S
C2251 C2248 1.403 . S
C2251 C2252 1.524 . S
C2251 C2255 1.400 . S
C2252 H2237 0.960 . S
C2252 H2238 0.960 . S
C2252 H2239 0.960 . S
C2252 C2251 1.524 . S
C2253 C2250 1.403 . S
C2253 C2254 1.392 . S
C2253 C2257 1.495 . S
C2254 C2253 1.392 . S
C2254 C2255 1.385 . S
C2254 C2256 1.478 . S
C2255 H2249 0.930 . S
C2255 C2251 1.400 . S
C2255 C2254 1.385 . S
C2256 C2254 1.478 . S
C2256 C2258 1.381 . S
C2256 C2262 1.383 . S
C2257 C2253 1.495 . S
C2257 H2263 0.959 . S
C2257 H2264 0.961 . S
C2257 H2265 0.960 . S
C2258 C2256 1.381 . S
C2258 C2259 1.394 . S
C2258 H2266 0.930 . S
C2259 C2258 1.394 . S
C2259 C2260 1.383 . S
C2259 H2267 0.929 . S
C2260 C2259 1.383 . S
C2260 C2261 1.377 . S
C2261 H2245 0.930 . S
C2261 C2260 1.377 . S
C2261 C2262 1.379 . S
C2262 H2246 0.931 . S
C2262 C2256 1.383 . S
C2262 C2261 1.379 . S
H2263 C2257 0.959 . S
H2264 C2257 0.961 . S
H2265 C2257 0.960 . S
H2266 C2258 0.930 . S
H2267 C2259 0.929 . S
H2268 C2276 0.929 . S
H2269 C2278 0.930 . S
H2270 C2280 0.930 . S
H2271 C2283 0.929 . S
H2272 C2286 0.930 . S
H2273 C2288 0.960 . S
H2274 C2288 0.960 . S
H2275 C2288 0.960 . S
C2276 H2268 0.929 . S
C2276 C2277 1.377 . S
C2276 C2278 1.384 . S
C2277 C2276 1.377 . S
C2277 C2283 1.390 . S
C2278 H2269 0.930 . S
C2278 C2276 1.384 . S
C2278 C2279 1.372 . S
C2279 C2278 1.372 . S
C2279 C2280 1.400 . S
C2279 C2284 1.490 . S
C2280 H2270 0.930 . S
C2280 C2279 1.400 . S
C2280 C2283 1.386 . S
H2281 C2297 0.930 . S
H2282 C2298 0.931 . S
C2283 H2271 0.929 . S
C2283 C2277 1.390 . S
C2283 C2280 1.386 . S
C2284 C2279 1.490 . S
C2284 C2286 1.395 . S
C2284 C2287 1.403 . S
H2285 C2291 0.930 . S
C2286 H2272 0.930 . S
C2286 C2284 1.395 . S
C2286 C2289 1.403 . S
C2287 C2284 1.403 . S
C2287 C2288 1.524 . S
C2287 C2291 1.400 . S
C2288 H2273 0.960 . S
C2288 H2274 0.960 . S
C2288 H2275 0.960 . S
C2288 C2287 1.524 . S
C2289 C2286 1.403 . S
C2289 C2290 1.392 . S
C2289 C2293 1.495 . S
C2290 C2289 1.392 . S
C2290 C2291 1.385 . S
C2290 C2292 1.478 . S
C2291 H2285 0.930 . S
C2291 C2287 1.400 . S
C2291 C2290 1.385 . S
C2292 C2290 1.478 . S
C2292 C2294 1.381 . S
C2292 C2298 1.383 . S
C2293 C2289 1.495 . S
C2293 H2299 0.959 . S
C2293 H2300 0.961 . S
C2293 H2301 0.960 . S
C2294 C2292 1.381 . S
C2294 C2295 1.394 . S
C2294 H2302 0.930 . S
C2295 C2294 1.394 . S
C2295 C2296 1.383 . S
C2295 H2303 0.929 . S
C2296 C2295 1.383 . S
C2296 C2297 1.377 . S
C2297 H2281 0.930 . S
C2297 C2296 1.377 . S
C2297 C2298 1.379 . S
C2298 H2282 0.931 . S
C2298 C2292 1.383 . S
C2298 C2297 1.379 . S
H2299 C2293 0.959 . S
H2300 C2293 0.961 . S
H2301 C2293 0.960 . S
H2302 C2294 0.930 . S
H2303 C2295 0.929 . S
H2304 C2312 0.929 . S
H2305 C2314 0.930 . S
H2306 C2316 0.930 . S
H2307 C2319 0.929 . S
H2308 C2322 0.930 . S
H2309 C2324 0.960 . S
H2310 C2324 0.960 . S
H2311 C2324 0.960 . S
C2312 H2304 0.929 . S
C2312 C2313 1.377 . S
C2312 C2314 1.384 . S
C2313 C2312 1.377 . S
C2313 C2319 1.390 . S
C2314 H2305 0.930 . S
C2314 C2312 1.384 . S
C2314 C2315 1.372 . S
C2315 C2314 1.372 . S
C2315 C2316 1.400 . S
C2315 C2320 1.490 . S
C2316 H2306 0.930 . S
C2316 C2315 1.400 . S
C2316 C2319 1.386 . S
H2317 C2333 0.930 . S
H2318 C2334 0.931 . S
C2319 H2307 0.929 . S
C2319 C2313 1.390 . S
C2319 C2316 1.386 . S
C2320 C2315 1.490 . S
C2320 C2322 1.395 . S
C2320 C2323 1.403 . S
H2321 C2327 0.930 . S
C2322 H2308 0.930 . S
C2322 C2320 1.395 . S
C2322 C2325 1.403 . S
C2323 C2320 1.403 . S
C2323 C2324 1.524 . S
C2323 C2327 1.400 . S
C2324 H2309 0.960 . S
C2324 H2310 0.960 . S
C2324 H2311 0.960 . S
C2324 C2323 1.524 . S
C2325 C2322 1.403 . S
C2325 C2326 1.392 . S
C2325 C2329 1.495 . S
C2326 C2325 1.392 . S
C2326 C2327 1.385 . S
C2326 C2328 1.478 . S
C2327 H2321 0.930 . S
C2327 C2323 1.400 . S
C2327 C2326 1.385 . S
C2328 C2326 1.478 . S
C2328 C2330 1.381 . S
C2328 C2334 1.383 . S
C2329 C2325 1.495 . S
C2329 H2335 0.959 . S
C2329 H2336 0.961 . S
C2329 H2337 0.960 . S
C2330 C2328 1.381 . S
C2330 C2331 1.394 . S
C2330 H2338 0.930 . S
C2331 C2330 1.394 . S
C2331 C2332 1.383 . S
C2331 H2339 0.929 . S
C2332 C2331 1.383 . S
C2332 C2333 1.377 . S
C2333 H2317 0.930 . S
C2333 C2332 1.377 . S
C2333 C2334 1.379 . S
C2334 H2318 0.931 . S
C2334 C2328 1.383 . S
C2334 C2333 1.379 . S
H2335 C2329 0.959 . S
H2336 C2329 0.961 . S
H2337 C2329 0.960 . S
H2338 C2330 0.930 . S
H2339 C2331 0.929 . S
H2340 C2348 0.929 . S
H2341 C2350 0.930 . S
H2342 C2352 0.931 1_655 S
H2343 C2355 0.929 1_655 S
H2344 C2358 0.930 . S
H2345 C2360 0.960 . S
H2346 C2360 0.960 1_455 S
H2347 C2360 0.960 . S
C2348 H2340 0.929 . S
C2348 C2349 1.377 . S
C2348 C2350 1.384 . S
C2349 C2348 1.377 . S
C2349 C2355 1.390 . S
C2350 H2341 0.930 . S
C2350 C2348 1.384 . S
C2350 C2351 1.372 . S
C2351 C2350 1.372 . S
C2351 C2352 1.399 . S
C2351 C2356 1.490 . S
C2352 H2342 0.931 1_455 S
C2352 C2351 1.399 . S
C2352 C2355 1.385 . S
H2353 C2369 0.930 . S
H2354 C2370 0.931 1_565 S
C2355 H2343 0.929 1_455 S
C2355 C2349 1.390 . S
C2355 C2352 1.385 . S
C2356 C2351 1.490 . S
C2356 C2358 1.395 . S
C2356 C2359 1.403 1_465 S
H2357 C2363 0.930 . S
C2358 H2344 0.930 . S
C2358 C2356 1.395 . S
C2358 C2361 1.403 . S
C2359 C2356 1.403 1_645 S
C2359 C2360 1.524 . S
C2359 C2363 1.400 . S
C2360 H2345 0.960 . S
C2360 H2346 0.960 1_655 S
C2360 H2347 0.960 . S
C2360 C2359 1.524 . S
C2361 C2358 1.403 . S
C2361 C2362 1.392 1_455 S
C2361 C2365 1.495 . S
C2362 C2361 1.392 1_655 S
C2362 C2363 1.385 1_565 S
C2362 C2364 1.478 1_565 S
C2363 H2357 0.930 . S
C2363 C2359 1.400 . S
C2363 C2362 1.385 1_545 S
C2364 C2362 1.478 1_545 S
C2364 C2366 1.381 1_655 S
C2364 C2370 1.383 . S
C2365 C2361 1.495 . S
C2365 H2371 0.959 . S
C2365 H2372 0.961 . S
C2365 H2373 0.960 . S
C2366 C2364 1.381 1_455 S
C2366 C2367 1.394 1_455 S
C2366 H2374 0.930 . S
C2367 C2366 1.394 1_655 S
C2367 C2368 1.383 . S
C2367 H2375 0.929 1_655 S
C2368 C2367 1.383 . S
C2368 C2369 1.377 . S
C2369 H2353 0.930 . S
C2369 C2368 1.377 . S
C2369 C2370 1.379 . S
C2370 H2354 0.931 1_545 S
C2370 C2364 1.383 . S
C2370 C2369 1.379 . S
H2371 C2365 0.959 . S
H2372 C2365 0.961 . S
H2373 C2365 0.960 . S
H2374 C2366 0.930 . S
H2375 C2367 0.929 1_455 S
H2376 C2384 0.929 . S
H2377 C2386 0.930 . S
H2378 C2388 0.930 . S
H2379 C2391 0.929 . S
H2380 C2394 0.930 . S
H2381 C2396 0.960 . S
H2382 C2396 0.960 . S
H2383 C2396 0.960 . S
C2384 H2376 0.929 . S
C2384 C2385 1.377 . S
C2384 C2386 1.384 . S
C2385 C2384 1.377 . S
C2385 C2391 1.390 . S
C2386 H2377 0.930 . S
C2386 C2384 1.384 . S
C2386 C2387 1.372 . S
C2387 C2386 1.372 . S
C2387 C2388 1.400 . S
C2387 C2392 1.490 . S
C2388 H2378 0.930 . S
C2388 C2387 1.400 . S
C2388 C2391 1.386 . S
H2389 C2405 0.930 . S
H2390 C2406 0.931 . S
C2391 H2379 0.929 . S
C2391 C2385 1.390 . S
C2391 C2388 1.386 . S
C2392 C2387 1.490 . S
C2392 C2394 1.395 . S
C2392 C2395 1.403 . S
H2393 C2399 0.930 . S
C2394 H2380 0.930 . S
C2394 C2392 1.395 . S
C2394 C2397 1.403 . S
C2395 C2392 1.403 . S
C2395 C2396 1.524 . S
C2395 C2399 1.400 . S
C2396 H2381 0.960 . S
C2396 H2382 0.960 . S
C2396 H2383 0.960 . S
C2396 C2395 1.524 . S
C2397 C2394 1.403 . S
C2397 C2398 1.392 . S
C2397 C2401 1.495 . S
C2398 C2397 1.392 . S
C2398 C2399 1.385 . S
C2398 C2400 1.478 . S
C2399 H2393 0.930 . S
C2399 C2395 1.400 . S
C2399 C2398 1.385 . S
C2400 C2398 1.478 . S
C2400 C2402 1.381 . S
C2400 C2406 1.383 . S
C2401 C2397 1.495 . S
C2401 H2407 0.959 . S
C2401 H2408 0.961 . S
C2401 H2409 0.960 . S
C2402 C2400 1.381 . S
C2402 C2403 1.394 . S
C2402 H2410 0.930 . S
C2403 C2402 1.394 . S
C2403 C2404 1.383 . S
C2403 H2411 0.929 . S
C2404 C2403 1.383 . S
C2404 C2405 1.377 . S
C2405 H2389 0.930 . S
C2405 C2404 1.377 . S
C2405 C2406 1.379 . S
C2406 H2390 0.931 . S
C2406 C2400 1.383 . S
C2406 C2405 1.379 . S
H2407 C2401 0.959 . S
H2408 C2401 0.961 . S
H2409 C2401 0.960 . S
H2410 C2402 0.930 . S
H2411 C2403 0.929 . S
H2412 C2420 0.929 . S
H2413 C2422 0.930 . S
H2414 C2424 0.930 1_565 S
H2415 C2427 0.929 . S
H2416 C2430 0.930 . S
H2417 C2432 0.960 . S
H2418 C2432 0.960 . S
H2419 C2432 0.960 . S
C2420 H2412 0.929 . S
C2420 C2421 1.377 . S
C2420 C2422 1.384 . S
C2421 C2420 1.377 . S
C2421 C2427 1.390 . S
C2422 H2413 0.930 . S
C2422 C2420 1.384 . S
C2422 C2423 1.372 . S
C2423 C2422 1.372 . S
C2423 C2424 1.400 . S
C2423 C2428 1.490 . S
C2424 H2414 0.930 1_545 S
C2424 C2423 1.400 . S
C2424 C2427 1.386 . S
H2425 C2441 0.930 . S
H2426 C2442 0.931 . S
C2427 H2415 0.929 . S
C2427 C2421 1.390 . S
C2427 C2424 1.386 . S
C2428 C2423 1.490 . S
C2428 C2430 1.395 . S
C2428 C2431 1.403 1_545 S
H2429 C2435 0.930 . S
C2430 H2416 0.930 . S
C2430 C2428 1.395 . S
C2430 C2433 1.403 1_554 S
C2431 C2428 1.403 1_565 S
C2431 C2432 1.524 . S
C2431 C2435 1.400 1_554 S
C2432 H2417 0.960 . S
C2432 H2418 0.960 . S
C2432 H2419 0.960 . S
C2432 C2431 1.524 . S
C2433 C2430 1.403 1_556 S
C2433 C2434 1.392 . S
C2433 C2437 1.495 . S
C2434 C2433 1.392 . S
C2434 C2435 1.385 1_545 S
C2434 C2436 1.478 1_545 S
C2435 H2429 0.930 . S
C2435 C2431 1.400 1_556 S
C2435 C2434 1.385 1_565 S
C2436 C2434 1.478 1_565 S
C2436 C2438 1.380 1_565 S
C2436 C2442 1.383 . S
C2437 C2433 1.495 . S
C2437 H2443 0.959 . S
C2437 H2444 0.961 . S
C2437 H2445 0.960 . S
C2438 C2436 1.380 1_545 S
C2438 C2439 1.390 1_545 S
C2438 H2446 0.937 . S
C2439 C2438 1.390 1_565 S
C2439 C2440 1.383 . S
C2439 H2447 0.929 . S
C2440 C2439 1.383 . S
C2440 C2441 1.377 . S
C2441 H2425 0.930 . S
C2441 C2440 1.377 . S
C2441 C2442 1.379 . S
C2442 H2426 0.931 . S
C2442 C2436 1.383 . S
C2442 C2441 1.379 . S
H2443 C2437 0.959 . S
H2444 C2437 0.961 . S
H2445 C2437 0.960 . S
H2446 C2438 0.937 . S
H2447 C2439 0.929 . S
H2448 C2456 0.929 . S
H2449 C2458 0.930 . S
H2450 C2460 0.930 . S
H2451 C2463 0.929 . S
H2452 C2466 0.930 . S
H2453 C2468 0.960 . S
H2454 C2468 0.960 . S
H2455 C2468 0.960 . S
C2456 H2448 0.929 . S
C2456 C2457 1.377 . S
C2456 C2458 1.384 . S
C2457 C2456 1.377 . S
C2457 C2463 1.390 . S
C2458 H2449 0.930 . S
C2458 C2456 1.384 . S
C2458 C2459 1.372 . S
C2459 C2458 1.372 . S
C2459 C2460 1.400 . S
C2459 C2464 1.490 . S
C2460 H2450 0.930 . S
C2460 C2459 1.400 . S
C2460 C2463 1.386 . S
H2461 C2477 0.930 . S
H2462 C2478 0.931 . S
C2463 H2451 0.929 . S
C2463 C2457 1.390 . S
C2463 C2460 1.386 . S
C2464 C2459 1.490 . S
C2464 C2466 1.395 . S
C2464 C2467 1.403 . S
H2465 C2471 0.930 . S
C2466 H2452 0.930 . S
C2466 C2464 1.395 . S
C2466 C2469 1.403 . S
C2467 C2464 1.403 . S
C2467 C2468 1.524 . S
C2467 C2471 1.400 . S
C2468 H2453 0.960 . S
C2468 H2454 0.960 . S
C2468 H2455 0.960 . S
C2468 C2467 1.524 . S
C2469 C2466 1.403 . S
C2469 C2470 1.392 . S
C2469 C2473 1.495 . S
C2470 C2469 1.392 . S
C2470 C2471 1.385 . S
C2470 C2472 1.478 . S
C2471 H2465 0.930 . S
C2471 C2467 1.400 . S
C2471 C2470 1.385 . S
C2472 C2470 1.478 . S
C2472 C2474 1.381 . S
C2472 C2478 1.383 . S
C2473 C2469 1.495 . S
C2473 H2479 0.959 . S
C2473 H2480 0.961 . S
C2473 H2481 0.960 . S
C2474 C2472 1.381 . S
C2474 C2475 1.394 . S
C2474 H2482 0.930 . S
C2475 C2474 1.394 . S
C2475 C2476 1.383 . S
C2475 H2483 0.929 . S
C2476 C2475 1.383 . S
C2476 C2477 1.377 . S
C2477 H2461 0.930 . S
C2477 C2476 1.377 . S
C2477 C2478 1.379 . S
C2478 H2462 0.931 . S
C2478 C2472 1.383 . S
C2478 C2477 1.379 . S
H2479 C2473 0.959 . S
H2480 C2473 0.961 . S
H2481 C2473 0.960 . S
H2482 C2474 0.930 . S
H2483 C2475 0.929 . S
H2484 C2492 0.929 1_545 S
H2485 C2494 0.930 . S
H2486 C2496 0.930 . S
H2487 C2499 0.929 . S
H2488 C2502 0.930 . S
H2489 C2504 0.960 . S
H2490 C2504 0.960 . S
H2491 C2504 0.998 . S
C2492 H2484 0.929 1_565 S
C2492 C2493 1.377 . S
C2492 C2494 1.384 1_565 S
C2493 C2492 1.377 . S
C2493 C2499 1.390 . S
C2494 H2485 0.930 . S
C2494 C2492 1.384 1_545 S
C2494 C2495 1.372 1_545 S
C2495 C2494 1.372 1_565 S
C2495 C2496 1.400 . S
C2495 C2500 1.490 . S
C2496 H2486 0.930 . S
C2496 C2495 1.400 . S
C2496 C2499 1.386 . S
H2497 C2513 0.930 . S
H2498 C2514 0.931 . S
C2499 H2487 0.929 . S
C2499 C2493 1.390 . S
C2499 C2496 1.386 . S
C2500 C2495 1.490 . S
C2500 C2502 1.395 . S
C2500 C2503 1.403 1_565 S
H2501 C2507 0.930 . S
C2502 H2488 0.930 . S
C2502 C2500 1.395 . S
C2502 C2505 1.403 . S
C2503 C2500 1.403 1_545 S
C2503 C2504 1.524 . S
C2503 C2507 1.400 . S
C2504 H2489 0.960 . S
C2504 H2490 0.960 . S
C2504 H2491 0.998 . S
C2504 C2503 1.524 . S
C2505 C2502 1.403 . S
C2505 C2506 1.380 1_565 S
C2505 C2509 1.495 . S
C2506 C2505 1.380 1_545 S
C2506 C2507 1.395 . S
C2506 C2508 1.482 . S
C2507 H2501 0.930 . S
C2507 C2503 1.400 . S
C2507 C2506 1.395 . S
C2508 C2506 1.482 . S
C2508 C2510 1.381 . S
C2508 C2514 1.383 1_545 S
C2509 C2505 1.495 . S
C2509 H2515 0.959 . S
C2509 H2516 0.961 . S
C2509 H2517 0.960 . S
C2510 C2508 1.381 . S
C2510 C2511 1.394 . S
C2510 H2518 0.930 . S
C2511 C2510 1.394 . S
C2511 C2512 1.383 . S
C2511 H2519 0.929 . S
C2512 C2511 1.383 . S
C2512 C2513 1.377 1_545 S
C2513 H2497 0.930 . S
C2513 C2512 1.377 1_565 S
C2513 C2514 1.379 . S
C2514 H2498 0.931 . S
C2514 C2508 1.383 1_565 S
C2514 C2513 1.379 . S
H2515 C2509 0.959 . S
H2516 C2509 0.961 . S
H2517 C2509 0.960 . S
H2518 C2510 0.930 . S
H2519 C2511 0.929 . S
H2520 C2528 0.929 . S
H2521 C2530 0.930 . S
H2522 C2532 0.930 . S
H2523 C2535 0.929 . S
H2524 C2538 0.930 . S
H2525 C2540 0.960 . S
H2526 C2540 0.960 . S
H2527 C2540 0.960 . S
C2528 H2520 0.929 . S
C2528 C2529 1.377 . S
C2528 C2530 1.384 . S
C2529 C2528 1.377 . S
C2529 C2535 1.390 . S
C2530 H2521 0.930 . S
C2530 C2528 1.384 . S
C2530 C2531 1.372 . S
C2531 C2530 1.372 . S
C2531 C2532 1.400 . S
C2531 C2536 1.490 . S
C2532 H2522 0.930 . S
C2532 C2531 1.400 . S
C2532 C2535 1.386 . S
H2533 C2549 0.930 . S
H2534 C2550 0.931 . S
C2535 H2523 0.929 . S
C2535 C2529 1.390 . S
C2535 C2532 1.386 . S
C2536 C2531 1.490 . S
C2536 C2538 1.395 . S
C2536 C2539 1.403 . S
H2537 C2543 0.930 . S
C2538 H2524 0.930 . S
C2538 C2536 1.395 . S
C2538 C2541 1.403 . S
C2539 C2536 1.403 . S
C2539 C2540 1.524 . S
C2539 C2543 1.400 . S
C2540 H2525 0.960 . S
C2540 H2526 0.960 . S
C2540 H2527 0.960 . S
C2540 C2539 1.524 . S
C2541 C2538 1.403 . S
C2541 C2542 1.392 . S
C2541 C2545 1.495 . S
C2542 C2541 1.392 . S
C2542 C2543 1.385 . S
C2542 C2544 1.478 . S
C2543 H2537 0.930 . S
C2543 C2539 1.400 . S
C2543 C2542 1.385 . S
C2544 C2542 1.478 . S
C2544 C2546 1.381 . S
C2544 C2550 1.383 . S
C2545 C2541 1.495 . S
C2545 H2551 0.959 . S
C2545 H2552 0.961 . S
C2545 H2553 0.960 . S
C2546 C2544 1.381 . S
C2546 C2547 1.394 . S
C2546 H2554 0.930 . S
C2547 C2546 1.394 . S
C2547 C2548 1.383 . S
C2547 H2555 0.929 . S
C2548 C2547 1.383 . S
C2548 C2549 1.377 . S
C2549 H2533 0.930 . S
C2549 C2548 1.377 . S
C2549 C2550 1.379 . S
C2550 H2534 0.931 . S
C2550 C2544 1.383 . S
C2550 C2549 1.379 . S
H2551 C2545 0.959 . S
H2552 C2545 0.961 . S
H2553 C2545 0.960 . S
H2554 C2546 0.930 . S
H2555 C2547 0.929 . S
H2556 C2564 0.929 1_655 S
H2557 C2566 0.912 1_665 S
H2558 C2568 0.930 . S
H2559 C2571 0.929 . S
H2560 C2574 0.930 . S
H2561 C2576 0.960 1_554 S
H2562 C2576 0.960 1_655 S
H2563 C2576 0.960 . S
C2564 H2556 0.929 1_455 S
C2564 C2565 1.377 . S
C2564 C2566 1.390 . S
C2565 C2564 1.377 . S
C2565 C2571 1.390 . S
C2566 H2557 0.912 1_445 S
C2566 C2564 1.390 . S
C2566 C2567 1.383 . S
C2567 C2566 1.383 . S
C2567 C2568 1.400 . S
C2567 C2572 1.490 . S
C2568 H2558 0.930 . S
C2568 C2567 1.400 . S
C2568 C2571 1.386 . S
H2569 C2585 0.930 1_455 S
H2570 C2586 0.946 . S
C2571 H2559 0.929 . S
C2571 C2565 1.390 . S
C2571 C2568 1.386 . S
C2572 C2567 1.490 . S
C2572 C2574 1.395 1_545 S
C2572 C2575 1.403 . S
H2573 C2579 0.930 . S
C2574 H2560 0.930 . S
C2574 C2572 1.395 1_565 S
C2574 C2577 1.403 1_456 S
C2575 C2572 1.403 . S
C2575 C2576 1.524 . S
C2575 C2579 1.400 1_456 S
C2576 H2561 0.960 1_556 S
C2576 H2562 0.960 1_455 S
C2576 H2563 0.960 . S
C2576 C2575 1.524 . S
C2577 C2574 1.403 1_654 S
C2577 C2578 1.392 . S
C2577 C2581 1.495 . S
C2578 C2577 1.392 . S
C2578 C2579 1.385 1_565 S
C2578 C2580 1.478 . S
C2579 H2573 0.930 . S
C2579 C2575 1.400 1_654 S
C2579 C2578 1.385 1_545 S
C2580 C2578 1.478 . S
C2580 C2582 1.381 . S
C2580 C2586 1.372 1_655 S
C2581 C2577 1.495 . S
C2581 H2587 1.027 . S
C2581 H2588 0.971 . S
C2581 H2589 0.960 . S
C2582 C2580 1.381 . S
C2582 C2583 1.394 . S
C2582 H2590 0.930 . S
C2583 C2582 1.394 . S
C2583 C2584 1.383 . S
C2583 H2591 0.929 . S
C2584 C2583 1.383 . S
C2584 C2585 1.377 . S
C2585 H2569 0.930 1_655 S
C2585 C2584 1.377 . S
C2585 C2586 1.375 1_655 S
C2586 H2570 0.946 . S
C2586 C2580 1.372 1_455 S
C2586 C2585 1.375 1_455 S
H2587 C2581 1.027 . S
H2588 C2581 0.971 . S
H2589 C2581 0.960 . S
H2590 C2582 0.930 . S
H2591 C2583 0.929 . S
H2592 C2600 0.929 . S
H2593 C2602 0.930 . S
H2594 C2604 0.930 . S
H2595 C2607 0.929 . S
H2596 C2610 0.930 . S
H2597 C2612 0.960 . S
H2598 C2612 0.960 . S
H2599 C2612 0.960 . S
C2600 H2592 0.929 . S
C2600 C2601 1.377 . S
C2600 C2602 1.384 . S
C2601 C2600 1.377 . S
C2601 C2607 1.390 . S
C2602 H2593 0.930 . S
C2602 C2600 1.384 . S
C2602 C2603 1.372 . S
C2603 C2602 1.372 . S
C2603 C2604 1.400 . S
C2603 C2608 1.490 . S
C2604 H2594 0.930 . S
C2604 C2603 1.400 . S
C2604 C2607 1.386 . S
H2605 C2621 0.930 . S
H2606 C2622 0.931 . S
C2607 H2595 0.929 . S
C2607 C2601 1.390 . S
C2607 C2604 1.386 . S
C2608 C2603 1.490 . S
C2608 C2610 1.395 . S
C2608 C2611 1.403 . S
H2609 C2615 0.930 . S
C2610 H2596 0.930 . S
C2610 C2608 1.395 . S
C2610 C2613 1.403 . S
C2611 C2608 1.403 . S
C2611 C2612 1.524 . S
C2611 C2615 1.400 . S
C2612 H2597 0.960 . S
C2612 H2598 0.960 . S
C2612 H2599 0.960 . S
C2612 C2611 1.524 . S
C2613 C2610 1.403 . S
C2613 C2614 1.392 . S
C2613 C2617 1.495 . S
C2614 C2613 1.392 . S
C2614 C2615 1.385 . S
C2614 C2616 1.478 . S
C2615 H2609 0.930 . S
C2615 C2611 1.400 . S
C2615 C2614 1.385 . S
C2616 C2614 1.478 . S
C2616 C2618 1.381 . S
C2616 C2622 1.383 . S
C2617 C2613 1.495 . S
C2617 H2623 0.959 . S
C2617 H2624 0.961 . S
C2617 H2625 0.960 . S
C2618 C2616 1.381 . S
C2618 C2619 1.394 . S
C2618 H2626 0.930 . S
C2619 C2618 1.394 . S
C2619 C2620 1.383 . S
C2619 H2627 0.929 . S
C2620 C2619 1.383 . S
C2620 C2621 1.377 . S
C2621 H2605 0.930 . S
C2621 C2620 1.377 . S
C2621 C2622 1.379 . S
C2622 H2606 0.931 . S
C2622 C2616 1.383 . S
C2622 C2621 1.379 . S
H2623 C2617 0.959 . S
H2624 C2617 0.961 . S
H2625 C2617 0.960 . S
H2626 C2618 0.930 . S
H2627 C2619 0.929 . S
H2628 C2636 0.929 . S
H2629 C2638 0.930 . S
H2630 C2640 0.930 . S
H2631 C2643 0.929 . S
H2632 C2646 0.930 . S
H2633 C2648 0.960 . S
H2634 C2648 0.960 . S
H2635 C2648 0.960 . S
C2636 H2628 0.929 . S
C2636 C2637 1.377 . S
C2636 C2638 1.384 . S
C2637 C2636 1.377 . S
C2637 C2643 1.390 . S
C2638 H2629 0.930 . S
C2638 C2636 1.384 . S
C2638 C2639 1.372 . S
C2639 C2638 1.372 . S
C2639 C2640 1.400 . S
C2639 C2644 1.490 . S
C2640 H2630 0.930 . S
C2640 C2639 1.400 . S
C2640 C2643 1.386 . S
H2641 C2657 0.930 . S
H2642 C2658 0.931 . S
C2643 H2631 0.929 . S
C2643 C2637 1.390 . S
C2643 C2640 1.386 . S
C2644 C2639 1.490 . S
C2644 C2646 1.395 . S
C2644 C2647 1.403 . S
H2645 C2651 0.930 . S
C2646 H2632 0.930 . S
C2646 C2644 1.395 . S
C2646 C2649 1.403 . S
C2647 C2644 1.403 . S
C2647 C2648 1.524 . S
C2647 C2651 1.400 . S
C2648 H2633 0.960 . S
C2648 H2634 0.960 . S
C2648 H2635 0.960 . S
C2648 C2647 1.524 . S
C2649 C2646 1.403 . S
C2649 C2650 1.392 . S
C2649 C2653 1.495 . S
C2650 C2649 1.392 . S
C2650 C2651 1.385 . S
C2650 C2652 1.478 . S
C2651 H2645 0.930 . S
C2651 C2647 1.400 . S
C2651 C2650 1.385 . S
C2652 C2650 1.478 . S
C2652 C2654 1.381 . S
C2652 C2658 1.383 . S
C2653 C2649 1.495 . S
C2653 H2659 0.959 . S
C2653 H2660 0.961 . S
C2653 H2661 0.960 . S
C2654 C2652 1.381 . S
C2654 C2655 1.394 . S
C2654 H2662 0.930 . S
C2655 C2654 1.394 . S
C2655 C2656 1.383 . S
C2655 H2663 0.929 . S
C2656 C2655 1.383 . S
C2656 C2657 1.377 . S
C2657 H2641 0.930 . S
C2657 C2656 1.377 . S
C2657 C2658 1.379 . S
C2658 H2642 0.931 . S
C2658 C2652 1.383 . S
C2658 C2657 1.379 . S
H2659 C2653 0.959 . S
H2660 C2653 0.961 . S
H2661 C2653 0.960 . S
H2662 C2654 0.930 . S
H2663 C2655 0.929 . S
H2664 C2672 0.929 . S
H2665 C2674 0.930 . S
H2666 C2676 0.930 . S
H2667 C2679 0.929 . S
H2668 C2682 0.930 . S
H2669 C2684 0.960 . S
H2670 C2684 0.960 . S
H2671 C2684 0.960 . S
C2672 H2664 0.929 . S
C2672 C2673 1.377 . S
C2672 C2674 1.384 . S
C2673 C2672 1.377 . S
C2673 C2679 1.390 . S
C2674 H2665 0.930 . S
C2674 C2672 1.384 . S
C2674 C2675 1.372 . S
C2675 C2674 1.372 . S
C2675 C2676 1.400 . S
C2675 C2680 1.490 . S
C2676 H2666 0.930 . S
C2676 C2675 1.400 . S
C2676 C2679 1.386 . S
H2677 C2693 0.930 . S
H2678 C2694 0.931 . S
C2679 H2667 0.929 . S
C2679 C2673 1.390 . S
C2679 C2676 1.386 . S
C2680 C2675 1.490 . S
C2680 C2682 1.395 . S
C2680 C2683 1.403 . S
H2681 C2687 0.930 . S
C2682 H2668 0.930 . S
C2682 C2680 1.395 . S
C2682 C2685 1.403 . S
C2683 C2680 1.403 . S
C2683 C2684 1.524 . S
C2683 C2687 1.400 . S
C2684 H2669 0.960 . S
C2684 H2670 0.960 . S
C2684 H2671 0.960 . S
C2684 C2683 1.524 . S
C2685 C2682 1.403 . S
C2685 C2686 1.392 . S
C2685 C2689 1.495 . S
C2686 C2685 1.392 . S
C2686 C2687 1.385 . S
C2686 C2688 1.478 . S
C2687 H2681 0.930 . S
C2687 C2683 1.400 . S
C2687 C2686 1.385 . S
C2688 C2686 1.478 . S
C2688 C2690 1.381 . S
C2688 C2694 1.383 . S
C2689 C2685 1.495 . S
C2689 H2695 0.959 . S
C2689 H2696 0.961 . S
C2689 H2697 0.960 . S
C2690 C2688 1.381 . S
C2690 C2691 1.394 . S
C2690 H2698 0.930 . S
C2691 C2690 1.394 . S
C2691 C2692 1.383 . S
C2691 H2699 0.929 . S
C2692 C2691 1.383 . S
C2692 C2693 1.377 . S
C2693 H2677 0.930 . S
C2693 C2692 1.377 . S
C2693 C2694 1.379 . S
C2694 H2678 0.931 . S
C2694 C2688 1.383 . S
C2694 C2693 1.379 . S
H2695 C2689 0.959 . S
H2696 C2689 0.961 . S
H2697 C2689 0.960 . S
H2698 C2690 0.930 . S
H2699 C2691 0.929 . S
H2700 C2708 0.929 . S
H2701 C2710 0.930 . S
H2702 C2712 0.930 . S
H2703 C2715 0.929 . S
H2704 C2718 0.930 . S
H2705 C2720 0.960 . S
H2706 C2720 0.960 . S
H2707 C2720 0.960 . S
C2708 H2700 0.929 . S
C2708 C2709 1.377 . S
C2708 C2710 1.384 . S
C2709 C2708 1.377 . S
C2709 C2715 1.390 . S
C2710 H2701 0.930 . S
C2710 C2708 1.384 . S
C2710 C2711 1.372 . S
C2711 C2710 1.372 . S
C2711 C2712 1.400 . S
C2711 C2716 1.490 . S
C2712 H2702 0.930 . S
C2712 C2711 1.400 . S
C2712 C2715 1.386 . S
H2713 C2729 0.930 . S
H2714 C2730 0.931 . S
C2715 H2703 0.929 . S
C2715 C2709 1.390 . S
C2715 C2712 1.386 . S
C2716 C2711 1.490 . S
C2716 C2718 1.395 . S
C2716 C2719 1.403 . S
H2717 C2723 0.930 . S
C2718 H2704 0.930 . S
C2718 C2716 1.395 . S
C2718 C2721 1.403 . S
C2719 C2716 1.403 . S
C2719 C2720 1.524 . S
C2719 C2723 1.400 . S
C2720 H2705 0.960 . S
C2720 H2706 0.960 . S
C2720 H2707 0.960 . S
C2720 C2719 1.524 . S
C2721 C2718 1.403 . S
C2721 C2722 1.392 . S
C2721 C2725 1.495 . S
C2722 C2721 1.392 . S
C2722 C2723 1.385 . S
C2722 C2724 1.478 . S
C2723 H2717 0.930 . S
C2723 C2719 1.400 . S
C2723 C2722 1.385 . S
C2724 C2722 1.478 . S
C2724 C2726 1.381 . S
C2724 C2730 1.383 . S
C2725 C2721 1.495 . S
C2725 H2731 0.959 . S
C2725 H2732 0.961 . S
C2725 H2733 0.960 . S
C2726 C2724 1.381 . S
C2726 C2727 1.394 . S
C2726 H2734 0.930 . S
C2727 C2726 1.394 . S
C2727 C2728 1.383 . S
C2727 H2735 0.929 . S
C2728 C2727 1.383 . S
C2728 C2729 1.377 . S
C2729 H2713 0.930 . S
C2729 C2728 1.377 . S
C2729 C2730 1.379 . S
C2730 H2714 0.931 . S
C2730 C2724 1.383 . S
C2730 C2729 1.379 . S
H2731 C2725 0.959 . S
H2732 C2725 0.961 . S
H2733 C2725 0.960 . S
H2734 C2726 0.930 . S
H2735 C2727 0.929 . S
H2736 C2744 0.929 . S
H2737 C2746 0.930 . S
H2738 C2748 0.930 . S
H2739 C2751 0.929 . S
H2740 C2754 0.930 . S
H2741 C2756 0.960 . S
H2742 C2756 0.960 . S
H2743 C2756 0.960 . S
C2744 H2736 0.929 . S
C2744 C2745 1.377 . S
C2744 C2746 1.384 . S
C2745 C2744 1.377 . S
C2745 C2751 1.390 . S
C2746 H2737 0.930 . S
C2746 C2744 1.384 . S
C2746 C2747 1.372 . S
C2747 C2746 1.372 . S
C2747 C2748 1.400 . S
C2747 C2752 1.490 . S
C2748 H2738 0.930 . S
C2748 C2747 1.400 . S
C2748 C2751 1.386 . S
H2749 C2765 0.930 . S
H2750 C2766 0.931 . S
C2751 H2739 0.929 . S
C2751 C2745 1.390 . S
C2751 C2748 1.386 . S
C2752 C2747 1.490 . S
C2752 C2754 1.395 . S
C2752 C2755 1.403 . S
H2753 C2759 0.930 . S
C2754 H2740 0.930 . S
C2754 C2752 1.395 . S
C2754 C2757 1.403 1_554 S
C2755 C2752 1.403 . S
C2755 C2756 1.524 . S
C2755 C2759 1.400 1_554 S
C2756 H2741 0.960 . S
C2756 H2742 0.960 . S
C2756 H2743 0.960 . S
C2756 C2755 1.524 . S
C2757 C2754 1.403 1_556 S
C2757 C2758 1.392 . S
C2757 C2761 1.495 . S
C2758 C2757 1.392 . S
C2758 C2759 1.385 . S
C2758 C2760 1.478 . S
C2759 H2753 0.930 . S
C2759 C2755 1.400 1_556 S
C2759 C2758 1.385 . S
C2760 C2758 1.478 . S
C2760 C2762 1.381 . S
C2760 C2766 1.383 . S
C2761 C2757 1.495 . S
C2761 H2767 0.959 . S
C2761 H2768 0.961 . S
C2761 H2769 0.960 . S
C2762 C2760 1.381 . S
C2762 C2763 1.394 . S
C2762 H2770 0.930 . S
C2763 C2762 1.394 . S
C2763 C2764 1.383 . S
C2763 H2771 0.929 . S
C2764 C2763 1.383 . S
C2764 C2765 1.377 . S
C2765 H2749 0.930 . S
C2765 C2764 1.377 . S
C2765 C2766 1.379 . S
C2766 H2750 0.931 . S
C2766 C2760 1.383 . S
C2766 C2765 1.379 . S
H2767 C2761 0.959 . S
H2768 C2761 0.961 . S
H2769 C2761 0.960 . S
H2770 C2762 0.930 . S
H2771 C2763 0.929 . S
H2772 C2780 0.929 . S
H2773 C2782 0.930 . S
H2774 C2784 0.930 1_655 S
H2775 C2787 0.933 . S
H2776 C2790 0.930 . S
H2777 C2792 0.960 . S
H2778 C2792 0.960 . S
H2779 C2792 0.960 . S
C2780 H2772 0.929 . S
C2780 C2781 1.377 . S
C2780 C2782 1.384 . S
C2781 C2780 1.377 . S
C2781 C2787 1.390 . S
C2782 H2773 0.930 . S
C2782 C2780 1.384 . S
C2782 C2783 1.372 . S
C2783 C2782 1.372 . S
C2783 C2784 1.400 . S
C2783 C2788 1.490 . S
C2784 H2774 0.930 1_455 S
C2784 C2783 1.400 . S
C2784 C2787 1.386 . S
H2785 C2801 0.930 . S
H2786 C2802 0.931 . S
C2787 H2775 0.933 . S
C2787 C2781 1.390 . S
C2787 C2784 1.386 . S
C2788 C2783 1.490 . S
C2788 C2790 1.395 . S
C2788 C2791 1.403 1_455 S
H2789 C2795 0.930 . S
C2790 H2776 0.930 . S
C2790 C2788 1.395 . S
C2790 C2793 1.403 . S
C2791 C2788 1.403 1_655 S
C2791 C2792 1.524 . S
C2791 C2795 1.400 . S
C2792 H2777 0.960 . S
C2792 H2778 0.960 . S
C2792 H2779 0.960 . S
C2792 C2791 1.524 . S
C2793 C2790 1.403 . S
C2793 C2794 1.392 1_455 S
C2793 C2797 1.495 . S
C2794 C2793 1.392 1_655 S
C2794 C2795 1.385 . S
C2794 C2796 1.478 . S
C2795 H2789 0.930 . S
C2795 C2791 1.400 . S
C2795 C2794 1.385 . S
C2796 C2794 1.478 . S
C2796 C2798 1.400 . S
C2796 C2802 1.383 . S
C2797 C2793 1.495 . S
C2797 H2803 0.959 . S
C2797 H2804 0.961 . S
C2797 H2805 0.960 . S
C2798 C2796 1.400 . S
C2798 C2799 1.410 . S
C2798 H2806 0.897 1_655 S
C2799 C2798 1.410 . S
C2799 C2800 1.383 . S
C2799 H2807 0.929 . S
C2800 C2799 1.383 . S
C2800 C2801 1.377 . S
C2801 H2785 0.930 . S
C2801 C2800 1.377 . S
C2801 C2802 1.379 . S
C2802 H2786 0.931 . S
C2802 C2796 1.383 . S
C2802 C2801 1.379 . S
H2803 C2797 0.959 . S
H2804 C2797 0.961 . S
H2805 C2797 0.960 . S
H2806 C2798 0.897 1_455 S
H2807 C2799 0.929 . S
H2808 C2816 0.929 . S
H2809 C2818 0.930 . S
H2810 C2820 0.930 1_655 S
H2811 C2823 0.934 . S
H2812 C2826 0.930 . S
H2813 C2828 0.960 . S
H2814 C2828 0.960 . S
H2815 C2828 0.960 . S
C2816 H2808 0.929 . S
C2816 C2817 1.377 . S
C2816 C2818 1.384 . S
C2817 C2816 1.377 . S
C2817 C2823 1.390 . S
C2818 H2809 0.930 . S
C2818 C2816 1.384 . S
C2818 C2819 1.372 . S
C2819 C2818 1.372 . S
C2819 C2820 1.400 . S
C2819 C2824 1.490 . S
C2820 H2810 0.930 1_455 S
C2820 C2819 1.400 . S
C2820 C2823 1.386 . S
H2821 C2837 0.930 . S
H2822 C2838 0.931 . S
C2823 H2811 0.934 . S
C2823 C2817 1.390 . S
C2823 C2820 1.386 . S
C2824 C2819 1.490 . S
C2824 C2826 1.395 . S
C2824 C2827 1.403 1_455 S
H2825 C2831 0.930 . S
C2826 H2812 0.930 . S
C2826 C2824 1.395 . S
C2826 C2829 1.403 1_554 S
C2827 C2824 1.403 1_655 S
C2827 C2828 1.524 . S
C2827 C2831 1.400 1_554 S
C2828 H2813 0.960 . S
C2828 H2814 0.960 . S
C2828 H2815 0.960 . S
C2828 C2827 1.524 . S
C2829 C2826 1.403 1_556 S
C2829 C2830 1.392 1_455 S
C2829 C2833 1.495 . S
C2830 C2829 1.392 1_655 S
C2830 C2831 1.385 . S
C2830 C2832 1.478 . S
C2831 H2825 0.930 . S
C2831 C2827 1.400 1_556 S
C2831 C2830 1.385 . S
C2832 C2830 1.478 . S
C2832 C2834 1.400 . S
C2832 C2838 1.383 . S
C2833 C2829 1.495 . S
C2833 H2839 0.959 . S
C2833 H2840 0.961 . S
C2833 H2841 0.960 . S
C2834 C2832 1.400 . S
C2834 C2835 1.410 . S
C2834 H2842 0.896 1_655 S
C2835 C2834 1.410 . S
C2835 C2836 1.383 . S
C2835 H2843 0.929 . S
C2836 C2835 1.383 . S
C2836 C2837 1.377 . S
C2837 H2821 0.930 . S
C2837 C2836 1.377 . S
C2837 C2838 1.379 . S
C2838 H2822 0.931 . S
C2838 C2832 1.383 . S
C2838 C2837 1.379 . S
H2839 C2833 0.959 . S
H2840 C2833 0.961 . S
H2841 C2833 0.960 . S
H2842 C2834 0.896 1_455 S
H2843 C2835 0.929 . S
H2844 C2852 0.929 . S
H2845 C2854 0.930 . S
H2846 C2856 0.930 . S
H2847 C2859 0.929 . S
H2848 C2862 0.930 . S
H2849 C2864 0.960 . S
H2850 C2864 0.960 . S
H2851 C2864 0.960 . S
C2852 H2844 0.929 . S
C2852 C2853 1.377 . S
C2852 C2854 1.384 . S
C2853 C2852 1.377 . S
C2853 C2859 1.390 . S
C2854 H2845 0.930 . S
C2854 C2852 1.384 . S
C2854 C2855 1.372 . S
C2855 C2854 1.372 . S
C2855 C2856 1.400 . S
C2855 C2860 1.490 . S
C2856 H2846 0.930 . S
C2856 C2855 1.400 . S
C2856 C2859 1.386 . S
H2857 C2873 0.930 . S
H2858 C2874 0.931 . S
C2859 H2847 0.929 . S
C2859 C2853 1.390 . S
C2859 C2856 1.386 . S
C2860 C2855 1.490 . S
C2860 C2862 1.395 . S
C2860 C2863 1.403 . S
H2861 C2867 0.930 . S
C2862 H2848 0.930 . S
C2862 C2860 1.395 . S
C2862 C2865 1.403 . S
C2863 C2860 1.403 . S
C2863 C2864 1.524 . S
C2863 C2867 1.400 . S
C2864 H2849 0.960 . S
C2864 H2850 0.960 . S
C2864 H2851 0.960 . S
C2864 C2863 1.524 . S
C2865 C2862 1.403 . S
C2865 C2866 1.392 . S
C2865 C2869 1.495 . S
C2866 C2865 1.392 . S
C2866 C2867 1.385 . S
C2866 C2868 1.478 . S
C2867 H2861 0.930 . S
C2867 C2863 1.400 . S
C2867 C2866 1.385 . S
C2868 C2866 1.478 . S
C2868 C2870 1.381 . S
C2868 C2874 1.383 . S
C2869 C2865 1.495 . S
C2869 H2875 0.959 . S
C2869 H2876 0.961 . S
C2869 H2877 0.960 . S
C2870 C2868 1.381 . S
C2870 C2871 1.394 . S
C2870 H2878 0.930 . S
C2871 C2870 1.394 . S
C2871 C2872 1.383 . S
C2871 H2879 0.929 . S
C2872 C2871 1.383 . S
C2872 C2873 1.377 . S
C2873 H2857 0.930 . S
C2873 C2872 1.377 . S
C2873 C2874 1.379 . S
C2874 H2858 0.931 . S
C2874 C2868 1.383 . S
C2874 C2873 1.379 . S
H2875 C2869 0.959 . S
H2876 C2869 0.961 . S
H2877 C2869 0.960 . S
H2878 C2870 0.930 . S
H2879 C2871 0.929 . S
H2880 C2888 0.929 . S
H2881 C2890 0.930 . S
H2882 C2892 0.930 . S
H2883 C2895 0.929 . S
H2884 C2898 0.930 . S
H2885 C2900 0.960 . S
H2886 C2900 0.960 . S
H2887 C2900 0.960 . S
C2888 H2880 0.929 . S
C2888 C2889 1.377 . S
C2888 C2890 1.384 . S
C2889 C2888 1.377 . S
C2889 C2895 1.390 . S
C2890 H2881 0.930 . S
C2890 C2888 1.384 . S
C2890 C2891 1.372 . S
C2891 C2890 1.372 . S
C2891 C2892 1.400 . S
C2891 C2896 1.490 . S
C2892 H2882 0.930 . S
C2892 C2891 1.400 . S
C2892 C2895 1.386 . S
H2893 C2909 0.930 . S
H2894 C2910 0.931 . S
C2895 H2883 0.929 . S
C2895 C2889 1.390 . S
C2895 C2892 1.386 . S
C2896 C2891 1.490 . S
C2896 C2898 1.395 . S
C2896 C2899 1.403 . S
H2897 C2903 0.930 . S
C2898 H2884 0.930 . S
C2898 C2896 1.395 . S
C2898 C2901 1.403 . S
C2899 C2896 1.403 . S
C2899 C2900 1.524 . S
C2899 C2903 1.400 . S
C2900 H2885 0.960 . S
C2900 H2886 0.960 . S
C2900 H2887 0.960 . S
C2900 C2899 1.524 . S
C2901 C2898 1.403 . S
C2901 C2902 1.392 . S
C2901 C2905 1.495 . S
C2902 C2901 1.392 . S
C2902 C2903 1.385 . S
C2902 C2904 1.478 . S
C2903 H2897 0.930 . S
C2903 C2899 1.400 . S
C2903 C2902 1.385 . S
C2904 C2902 1.478 . S
C2904 C2906 1.381 . S
C2904 C2910 1.383 . S
C2905 C2901 1.495 . S
C2905 H2911 0.959 . S
C2905 H2912 0.961 . S
C2905 H2913 0.960 . S
C2906 C2904 1.381 . S
C2906 C2907 1.394 . S
C2906 H2914 0.930 . S
C2907 C2906 1.394 . S
C2907 C2908 1.383 . S
C2907 H2915 0.929 . S
C2908 C2907 1.383 . S
C2908 C2909 1.377 . S
C2909 H2893 0.930 . S
C2909 C2908 1.377 . S
C2909 C2910 1.379 . S
C2910 H2894 0.931 . S
C2910 C2904 1.383 . S
C2910 C2909 1.379 . S
H2911 C2905 0.959 . S
H2912 C2905 0.961 . S
H2913 C2905 0.960 . S
H2914 C2906 0.930 . S
H2915 C2907 0.929 . S
H2916 C2924 0.929 . S
H2917 C2926 0.930 . S
H2918 C2928 0.930 . S
H2919 C2931 0.929 . S
H2920 C2934 0.930 . S
H2921 C2936 0.960 . S
H2922 C2936 0.960 . S
H2923 C2936 0.960 . S
C2924 H2916 0.929 . S
C2924 C2925 1.377 . S
C2924 C2926 1.384 . S
C2925 C2924 1.377 . S
C2925 C2931 1.390 . S
C2926 H2917 0.930 . S
C2926 C2924 1.384 . S
C2926 C2927 1.372 . S
C2927 C2926 1.372 . S
C2927 C2928 1.400 . S
C2927 C2932 1.490 . S
C2928 H2918 0.930 . S
C2928 C2927 1.400 . S
C2928 C2931 1.386 . S
H2929 C2945 0.930 . S
H2930 C2946 0.931 . S
C2931 H2919 0.929 . S
C2931 C2925 1.390 . S
C2931 C2928 1.386 . S
C2932 C2927 1.490 . S
C2932 C2934 1.395 . S
C2932 C2935 1.403 . S
H2933 C2939 0.930 . S
C2934 H2920 0.930 . S
C2934 C2932 1.395 . S
C2934 C2937 1.403 . S
C2935 C2932 1.403 . S
C2935 C2936 1.524 . S
C2935 C2939 1.400 . S
C2936 H2921 0.960 . S
C2936 H2922 0.960 . S
C2936 H2923 0.960 . S
C2936 C2935 1.524 . S
C2937 C2934 1.403 . S
C2937 C2938 1.392 . S
C2937 C2941 1.495 . S
C2938 C2937 1.392 . S
C2938 C2939 1.385 . S
C2938 C2940 1.478 . S
C2939 H2933 0.930 . S
C2939 C2935 1.400 . S
C2939 C2938 1.385 . S
C2940 C2938 1.478 . S
C2940 C2942 1.381 . S
C2940 C2946 1.383 . S
C2941 C2937 1.495 . S
C2941 H2947 0.959 . S
C2941 H2948 0.961 . S
C2941 H2949 0.960 . S
C2942 C2940 1.381 . S
C2942 C2943 1.394 . S
C2942 H2950 0.930 . S
C2943 C2942 1.394 . S
C2943 C2944 1.383 . S
C2943 H2951 0.929 . S
C2944 C2943 1.383 . S
C2944 C2945 1.377 . S
C2945 H2929 0.930 . S
C2945 C2944 1.377 . S
C2945 C2946 1.379 . S
C2946 H2930 0.931 . S
C2946 C2940 1.383 . S
C2946 C2945 1.379 . S
H2947 C2941 0.959 . S
H2948 C2941 0.961 . S
H2949 C2941 0.960 . S
H2950 C2942 0.930 . S
H2951 C2943 0.929 . S
H2952 C2960 0.929 . S
H2953 C2962 0.930 . S
H2954 C2964 0.930 . S
H2955 C2967 0.929 . S
H2956 C2970 0.930 . S
H2957 C2972 0.960 . S
H2958 C2972 0.960 . S
H2959 C2972 0.960 . S
C2960 H2952 0.929 . S
C2960 C2961 1.377 . S
C2960 C2962 1.384 . S
C2961 C2960 1.377 . S
C2961 C2967 1.390 . S
C2962 H2953 0.930 . S
C2962 C2960 1.384 . S
C2962 C2963 1.372 . S
C2963 C2962 1.372 . S
C2963 C2964 1.400 . S
C2963 C2968 1.490 . S
C2964 H2954 0.930 . S
C2964 C2963 1.400 . S
C2964 C2967 1.386 . S
H2965 C2981 0.930 . S
H2966 C2982 0.931 . S
C2967 H2955 0.929 . S
C2967 C2961 1.390 . S
C2967 C2964 1.386 . S
C2968 C2963 1.490 . S
C2968 C2970 1.395 . S
C2968 C2971 1.403 . S
H2969 C2975 0.930 . S
C2970 H2956 0.930 . S
C2970 C2968 1.395 . S
C2970 C2973 1.403 . S
C2971 C2968 1.403 . S
C2971 C2972 1.524 . S
C2971 C2975 1.400 . S
C2972 H2957 0.960 . S
C2972 H2958 0.960 . S
C2972 H2959 0.960 . S
C2972 C2971 1.524 . S
C2973 C2970 1.403 . S
C2973 C2974 1.392 . S
C2973 C2977 1.495 . S
C2974 C2973 1.392 . S
C2974 C2975 1.385 . S
C2974 C2976 1.478 . S
C2975 H2969 0.930 . S
C2975 C2971 1.400 . S
C2975 C2974 1.385 . S
C2976 C2974 1.478 . S
C2976 C2978 1.381 . S
C2976 C2982 1.383 . S
C2977 C2973 1.495 . S
C2977 H2983 0.959 . S
C2977 H2984 0.961 . S
C2977 H2985 0.960 . S
C2978 C2976 1.381 . S
C2978 C2979 1.394 . S
C2978 H2986 0.930 . S
C2979 C2978 1.394 . S
C2979 C2980 1.383 . S
C2979 H2987 0.929 . S
C2980 C2979 1.383 . S
C2980 C2981 1.377 . S
C2981 H2965 0.930 . S
C2981 C2980 1.377 . S
C2981 C2982 1.379 . S
C2982 H2966 0.931 . S
C2982 C2976 1.383 . S
C2982 C2981 1.379 . S
H2983 C2977 0.959 . S
H2984 C2977 0.961 . S
H2985 C2977 0.960 . S
H2986 C2978 0.930 . S
H2987 C2979 0.929 . S
H2988 C2996 0.929 . S
H2989 C2998 0.930 . S
H2990 C3000 0.930 . S
H2991 C3003 0.929 . S
H2992 C3006 0.930 . S
H2993 C3008 0.960 . S
H2994 C3008 0.960 . S
H2995 C3008 0.960 . S
C2996 H2988 0.929 . S
C2996 C2997 1.377 . S
C2996 C2998 1.384 . S
C2997 C2996 1.377 . S
C2997 C3003 1.390 . S
C2998 H2989 0.930 . S
C2998 C2996 1.384 . S
C2998 C2999 1.372 . S
C2999 C2998 1.372 . S
C2999 C3000 1.400 . S
C2999 C3004 1.490 . S
C3000 H2990 0.930 . S
C3000 C2999 1.400 . S
C3000 C3003 1.386 . S
H3001 C3017 0.930 . S
H3002 C3018 0.931 . S
C3003 H2991 0.929 . S
C3003 C2997 1.390 . S
C3003 C3000 1.386 . S
C3004 C2999 1.490 . S
C3004 C3006 1.395 . S
C3004 C3007 1.403 . S
H3005 C3011 0.930 . S
C3006 H2992 0.930 . S
C3006 C3004 1.395 . S
C3006 C3009 1.403 . S
C3007 C3004 1.403 . S
C3007 C3008 1.524 . S
C3007 C3011 1.400 . S
C3008 H2993 0.960 . S
C3008 H2994 0.960 . S
C3008 H2995 0.960 . S
C3008 C3007 1.524 . S
C3009 C3006 1.403 . S
C3009 C3010 1.392 . S
C3009 C3013 1.495 . S
C3010 C3009 1.392 . S
C3010 C3011 1.385 . S
C3010 C3012 1.478 . S
C3011 H3005 0.930 . S
C3011 C3007 1.400 . S
C3011 C3010 1.385 . S
C3012 C3010 1.478 . S
C3012 C3014 1.381 . S
C3012 C3018 1.383 . S
C3013 C3009 1.495 . S
C3013 H3019 0.959 . S
C3013 H3020 0.961 . S
C3013 H3021 0.960 . S
C3014 C3012 1.381 . S
C3014 C3015 1.394 . S
C3014 H3022 0.930 . S
C3015 C3014 1.394 . S
C3015 C3016 1.383 . S
C3015 H3023 0.929 . S
C3016 C3015 1.383 . S
C3016 C3017 1.377 . S
C3017 H3001 0.930 . S
C3017 C3016 1.377 . S
C3017 C3018 1.379 . S
C3018 H3002 0.931 . S
C3018 C3012 1.383 . S
C3018 C3017 1.379 . S
H3019 C3013 0.959 . S
H3020 C3013 0.961 . S
H3021 C3013 0.960 . S
H3022 C3014 0.930 . S
H3023 C3015 0.929 . S
H3024 C3032 0.929 . S
H3025 C3034 0.930 . S
H3026 C3036 0.930 . S
H3027 C3039 0.929 . S
H3028 C3042 0.930 . S
H3029 C3044 0.960 . S
H3030 C3044 0.960 . S
H3031 C3044 0.960 . S
C3032 H3024 0.929 . S
C3032 C3033 1.377 . S
C3032 C3034 1.384 . S
C3033 C3032 1.377 . S
C3033 C3039 1.390 . S
C3034 H3025 0.930 . S
C3034 C3032 1.384 . S
C3034 C3035 1.372 . S
C3035 C3034 1.372 . S
C3035 C3036 1.400 . S
C3035 C3040 1.490 . S
C3036 H3026 0.930 . S
C3036 C3035 1.400 . S
C3036 C3039 1.386 . S
H3037 C3053 0.930 . S
H3038 C3054 0.931 . S
C3039 H3027 0.929 . S
C3039 C3033 1.390 . S
C3039 C3036 1.386 . S
C3040 C3035 1.490 . S
C3040 C3042 1.395 . S
C3040 C3043 1.403 . S
H3041 C3047 0.930 . S
C3042 H3028 0.930 . S
C3042 C3040 1.395 . S
C3042 C3045 1.403 . S
C3043 C3040 1.403 . S
C3043 C3044 1.524 . S
C3043 C3047 1.400 . S
C3044 H3029 0.960 . S
C3044 H3030 0.960 . S
C3044 H3031 0.960 . S
C3044 C3043 1.524 . S
C3045 C3042 1.403 . S
C3045 C3046 1.392 . S
C3045 C3049 1.495 . S
C3046 C3045 1.392 . S
C3046 C3047 1.385 . S
C3046 C3048 1.478 . S
C3047 H3041 0.930 . S
C3047 C3043 1.400 . S
C3047 C3046 1.385 . S
C3048 C3046 1.478 . S
C3048 C3050 1.381 . S
C3048 C3054 1.383 . S
C3049 C3045 1.495 . S
C3049 H3055 0.959 . S
C3049 H3056 0.961 . S
C3049 H3057 0.960 . S
C3050 C3048 1.381 . S
C3050 C3051 1.394 . S
C3050 H3058 0.930 . S
C3051 C3050 1.394 . S
C3051 C3052 1.383 . S
C3051 H3059 0.929 . S
C3052 C3051 1.383 . S
C3052 C3053 1.377 . S
C3053 H3037 0.930 . S
C3053 C3052 1.377 . S
C3053 C3054 1.379 . S
C3054 H3038 0.931 . S
C3054 C3048 1.383 . S
C3054 C3053 1.379 . S
H3055 C3049 0.959 . S
H3056 C3049 0.961 . S
H3057 C3049 0.960 . S
H3058 C3050 0.930 . S
H3059 C3051 0.929 . S
H3060 C3068 0.929 . S
H3061 C3070 0.930 . S
H3062 C3072 0.930 . S
H3063 C3075 0.929 . S
H3064 C3078 0.930 . S
H3065 C3080 0.960 . S
H3066 C3080 0.960 . S
H3067 C3080 0.960 . S
C3068 H3060 0.929 . S
C3068 C3069 1.377 . S
C3068 C3070 1.384 . S
C3069 C3068 1.377 . S
C3069 C3075 1.390 . S
C3070 H3061 0.930 . S
C3070 C3068 1.384 . S
C3070 C3071 1.372 . S
C3071 C3070 1.372 . S
C3071 C3072 1.400 . S
C3071 C3076 1.490 . S
C3072 H3062 0.930 . S
C3072 C3071 1.400 . S
C3072 C3075 1.386 . S
H3073 C3089 0.930 . S
H3074 C3090 0.931 . S
C3075 H3063 0.929 . S
C3075 C3069 1.390 . S
C3075 C3072 1.386 . S
C3076 C3071 1.490 . S
C3076 C3078 1.395 . S
C3076 C3079 1.403 . S
H3077 C3083 0.930 . S
C3078 H3064 0.930 . S
C3078 C3076 1.395 . S
C3078 C3081 1.403 . S
C3079 C3076 1.403 . S
C3079 C3080 1.524 . S
C3079 C3083 1.400 . S
C3080 H3065 0.960 . S
C3080 H3066 0.960 . S
C3080 H3067 0.960 . S
C3080 C3079 1.524 . S
C3081 C3078 1.403 . S
C3081 C3082 1.392 . S
C3081 C3085 1.495 . S
C3082 C3081 1.392 . S
C3082 C3083 1.385 . S
C3082 C3084 1.478 . S
C3083 H3077 0.930 . S
C3083 C3079 1.400 . S
C3083 C3082 1.385 . S
C3084 C3082 1.478 . S
C3084 C3086 1.381 . S
C3084 C3090 1.383 . S
C3085 C3081 1.495 . S
C3085 H3091 0.959 . S
C3085 H3092 0.961 . S
C3085 H3093 0.960 . S
C3086 C3084 1.381 . S
C3086 C3087 1.394 . S
C3086 H3094 0.930 . S
C3087 C3086 1.394 . S
C3087 C3088 1.383 . S
C3087 H3095 0.929 . S
C3088 C3087 1.383 . S
C3088 C3089 1.377 . S
C3089 H3073 0.930 . S
C3089 C3088 1.377 . S
C3089 C3090 1.379 . S
C3090 H3074 0.931 . S
C3090 C3084 1.383 . S
C3090 C3089 1.379 . S
H3091 C3085 0.959 . S
H3092 C3085 0.961 . S
H3093 C3085 0.960 . S
H3094 C3086 0.930 . S
H3095 C3087 0.929 . S
H3096 C3104 0.929 . S
H3097 C3106 0.930 . S
H3098 C3108 0.930 . S
H3099 C3111 0.929 . S
H3100 C3114 0.930 . S
H3101 C3116 0.960 . S
H3102 C3116 0.960 . S
H3103 C3116 0.960 . S
C3104 H3096 0.929 . S
C3104 C3105 1.377 . S
C3104 C3106 1.384 . S
C3105 C3104 1.377 . S
C3105 C3111 1.390 . S
C3106 H3097 0.930 . S
C3106 C3104 1.384 . S
C3106 C3107 1.372 . S
C3107 C3106 1.372 . S
C3107 C3108 1.400 . S
C3107 C3112 1.490 . S
C3108 H3098 0.930 . S
C3108 C3107 1.400 . S
C3108 C3111 1.386 . S
H3109 C3125 0.930 . S
H3110 C3126 0.931 . S
C3111 H3099 0.929 . S
C3111 C3105 1.390 . S
C3111 C3108 1.386 . S
C3112 C3107 1.490 . S
C3112 C3114 1.395 . S
C3112 C3115 1.403 . S
H3113 C3119 0.930 . S
C3114 H3100 0.930 . S
C3114 C3112 1.395 . S
C3114 C3117 1.403 . S
C3115 C3112 1.403 . S
C3115 C3116 1.524 . S
C3115 C3119 1.400 . S
C3116 H3101 0.960 . S
C3116 H3102 0.960 . S
C3116 H3103 0.960 . S
C3116 C3115 1.524 . S
C3117 C3114 1.403 . S
C3117 C3118 1.392 . S
C3117 C3121 1.495 . S
C3118 C3117 1.392 . S
C3118 C3119 1.385 . S
C3118 C3120 1.478 . S
C3119 H3113 0.930 . S
C3119 C3115 1.400 . S
C3119 C3118 1.385 . S
C3120 C3118 1.478 . S
C3120 C3122 1.381 . S
C3120 C3126 1.383 . S
C3121 C3117 1.495 . S
C3121 H3127 0.959 . S
C3121 H3128 0.961 . S
C3121 H3129 0.960 . S
C3122 C3120 1.381 . S
C3122 C3123 1.394 . S
C3122 H3130 0.930 . S
C3123 C3122 1.394 . S
C3123 C3124 1.383 . S
C3123 H3131 0.929 . S
C3124 C3123 1.383 . S
C3124 C3125 1.377 . S
C3125 H3109 0.930 . S
C3125 C3124 1.377 . S
C3125 C3126 1.379 . S
C3126 H3110 0.931 . S
C3126 C3120 1.383 . S
C3126 C3125 1.379 . S
H3127 C3121 0.959 . S
H3128 C3121 0.961 . S
H3129 C3121 0.960 . S
H3130 C3122 0.930 . S
H3131 C3123 0.929 . S
H3132 C3140 0.929 . S
H3133 C3142 0.930 . S
H3134 C3144 0.930 . S
H3135 C3147 0.929 . S
H3136 C3150 0.930 . S
H3137 C3152 0.960 . S
H3138 C3152 0.960 . S
H3139 C3152 0.960 . S
C3140 H3132 0.929 . S
C3140 C3141 1.377 . S
C3140 C3142 1.384 . S
C3141 C3140 1.377 . S
C3141 C3147 1.390 . S
C3142 H3133 0.930 . S
C3142 C3140 1.384 . S
C3142 C3143 1.372 . S
C3143 C3142 1.372 . S
C3143 C3144 1.400 . S
C3143 C3148 1.490 . S
C3144 H3134 0.930 . S
C3144 C3143 1.400 . S
C3144 C3147 1.386 . S
H3145 C3161 0.930 . S
H3146 C3162 0.931 . S
C3147 H3135 0.929 . S
C3147 C3141 1.390 . S
C3147 C3144 1.386 . S
C3148 C3143 1.490 . S
C3148 C3150 1.395 . S
C3148 C3151 1.403 . S
H3149 C3155 0.930 . S
C3150 H3136 0.930 . S
C3150 C3148 1.395 . S
C3150 C3153 1.403 . S
C3151 C3148 1.403 . S
C3151 C3152 1.524 . S
C3151 C3155 1.400 . S
C3152 H3137 0.960 . S
C3152 H3138 0.960 . S
C3152 H3139 0.960 . S
C3152 C3151 1.524 . S
C3153 C3150 1.403 . S
C3153 C3154 1.392 . S
C3153 C3157 1.495 . S
C3154 C3153 1.392 . S
C3154 C3155 1.385 . S
C3154 C3156 1.478 . S
C3155 H3149 0.930 . S
C3155 C3151 1.400 . S
C3155 C3154 1.385 . S
C3156 C3154 1.478 . S
C3156 C3158 1.381 . S
C3156 C3162 1.383 . S
C3157 C3153 1.495 . S
C3157 H3163 0.959 . S
C3157 H3164 0.961 . S
C3157 H3165 0.960 . S
C3158 C3156 1.381 . S
C3158 C3159 1.394 . S
C3158 H3166 0.930 . S
C3159 C3158 1.394 . S
C3159 C3160 1.383 . S
C3159 H3167 0.929 . S
C3160 C3159 1.383 . S
C3160 C3161 1.377 . S
C3161 H3145 0.930 . S
C3161 C3160 1.377 . S
C3161 C3162 1.379 . S
C3162 H3146 0.931 . S
C3162 C3156 1.383 . S
C3162 C3161 1.379 . S
H3163 C3157 0.959 . S
H3164 C3157 0.961 . S
H3165 C3157 0.960 . S
H3166 C3158 0.930 . S
H3167 C3159 0.929 . S
H3168 C3176 0.929 . S
H3169 C3178 0.930 . S
H3170 C3180 0.930 . S
H3171 C3183 0.929 . S
H3172 C3186 0.930 . S
H3173 C3188 0.960 . S
H3174 C3188 0.960 . S
H3175 C3188 0.960 . S
C3176 H3168 0.929 . S
C3176 C3177 1.377 . S
C3176 C3178 1.384 . S
C3177 C3176 1.377 . S
C3177 C3183 1.390 . S
C3178 H3169 0.930 . S
C3178 C3176 1.384 . S
C3178 C3179 1.372 . S
C3179 C3178 1.372 . S
C3179 C3180 1.400 . S
C3179 C3184 1.490 . S
C3180 H3170 0.930 . S
C3180 C3179 1.400 . S
C3180 C3183 1.386 . S
H3181 C3197 0.930 . S
H3182 C3198 0.931 . S
C3183 H3171 0.929 . S
C3183 C3177 1.390 . S
C3183 C3180 1.386 . S
C3184 C3179 1.490 . S
C3184 C3186 1.395 . S
C3184 C3187 1.403 . S
H3185 C3191 0.930 . S
C3186 H3172 0.930 . S
C3186 C3184 1.395 . S
C3186 C3189 1.403 . S
C3187 C3184 1.403 . S
C3187 C3188 1.524 . S
C3187 C3191 1.400 . S
C3188 H3173 0.960 . S
C3188 H3174 0.960 . S
C3188 H3175 0.960 . S
C3188 C3187 1.524 . S
C3189 C3186 1.403 . S
C3189 C3190 1.392 . S
C3189 C3193 1.495 . S
C3190 C3189 1.392 . S
C3190 C3191 1.385 . S
C3190 C3192 1.478 . S
C3191 H3185 0.930 . S
C3191 C3187 1.400 . S
C3191 C3190 1.385 . S
C3192 C3190 1.478 . S
C3192 C3194 1.381 . S
C3192 C3198 1.383 . S
C3193 C3189 1.495 . S
C3193 H3199 0.959 . S
C3193 H3200 0.961 . S
C3193 H3201 0.960 . S
C3194 C3192 1.381 . S
C3194 C3195 1.394 . S
C3194 H3202 0.930 . S
C3195 C3194 1.394 . S
C3195 C3196 1.383 . S
C3195 H3203 0.929 . S
C3196 C3195 1.383 . S
C3196 C3197 1.377 . S
C3197 H3181 0.930 . S
C3197 C3196 1.377 . S
C3197 C3198 1.379 . S
C3198 H3182 0.931 . S
C3198 C3192 1.383 . S
C3198 C3197 1.379 . S
H3199 C3193 0.959 . S
H3200 C3193 0.961 . S
H3201 C3193 0.960 . S
H3202 C3194 0.930 . S
H3203 C3195 0.929 . S
H3204 C3212 0.929 . S
H3205 C3214 0.930 . S
H3206 C3216 0.930 . S
H3207 C3219 0.929 . S
H3208 C3222 0.930 . S
H3209 C3224 0.960 . S
H3210 C3224 0.960 . S
H3211 C3224 0.960 . S
C3212 H3204 0.929 . S
C3212 C3213 1.377 . S
C3212 C3214 1.384 . S
C3213 C3212 1.377 . S
C3213 C3219 1.390 . S
C3214 H3205 0.930 . S
C3214 C3212 1.384 . S
C3214 C3215 1.372 . S
C3215 C3214 1.372 . S
C3215 C3216 1.400 . S
C3215 C3220 1.490 . S
C3216 H3206 0.930 . S
C3216 C3215 1.400 . S
C3216 C3219 1.386 . S
H3217 C3233 0.930 . S
H3218 C3234 0.931 . S
C3219 H3207 0.929 . S
C3219 C3213 1.390 . S
C3219 C3216 1.386 . S
C3220 C3215 1.490 . S
C3220 C3222 1.395 . S
C3220 C3223 1.403 . S
H3221 C3227 0.930 . S
C3222 H3208 0.930 . S
C3222 C3220 1.395 . S
C3222 C3225 1.403 . S
C3223 C3220 1.403 . S
C3223 C3224 1.524 . S
C3223 C3227 1.400 . S
C3224 H3209 0.960 . S
C3224 H3210 0.960 . S
C3224 H3211 0.960 . S
C3224 C3223 1.524 . S
C3225 C3222 1.403 . S
C3225 C3226 1.392 . S
C3225 C3229 1.495 . S
C3226 C3225 1.392 . S
C3226 C3227 1.385 . S
C3226 C3228 1.478 . S
C3227 H3221 0.930 . S
C3227 C3223 1.400 . S
C3227 C3226 1.385 . S
C3228 C3226 1.478 . S
C3228 C3230 1.381 . S
C3228 C3234 1.383 . S
C3229 C3225 1.495 . S
C3229 H3235 0.959 . S
C3229 H3236 0.961 . S
C3229 H3237 0.960 . S
C3230 C3228 1.381 . S
C3230 C3231 1.394 . S
C3230 H3238 0.930 . S
C3231 C3230 1.394 . S
C3231 C3232 1.383 . S
C3231 H3239 0.929 . S
C3232 C3231 1.383 . S
C3232 C3233 1.377 . S
C3233 H3217 0.930 . S
C3233 C3232 1.377 . S
C3233 C3234 1.379 . S
C3234 H3218 0.931 . S
C3234 C3228 1.383 . S
C3234 C3233 1.379 . S
H3235 C3229 0.959 . S
H3236 C3229 0.961 . S
H3237 C3229 0.960 . S
H3238 C3230 0.930 . S
H3239 C3231 0.929 . S
H3240 C3248 0.929 . S
H3241 C3250 0.930 . S
H3242 C3252 0.930 . S
H3243 C3255 0.929 . S
H3244 C3258 0.930 . S
H3245 C3260 0.960 . S
H3246 C3260 0.960 . S
H3247 C3260 0.960 . S
C3248 H3240 0.929 . S
C3248 C3249 1.377 . S
C3248 C3250 1.384 . S
C3249 C3248 1.377 . S
C3249 C3255 1.390 . S
C3250 H3241 0.930 . S
C3250 C3248 1.384 . S
C3250 C3251 1.372 . S
C3251 C3250 1.372 . S
C3251 C3252 1.400 . S
C3251 C3256 1.490 . S
C3252 H3242 0.930 . S
C3252 C3251 1.400 . S
C3252 C3255 1.386 . S
H3253 C3269 0.930 . S
H3254 C3270 0.931 . S
C3255 H3243 0.929 . S
C3255 C3249 1.390 . S
C3255 C3252 1.386 . S
C3256 C3251 1.490 . S
C3256 C3258 1.395 . S
C3256 C3259 1.403 . S
H3257 C3263 0.930 . S
C3258 H3244 0.930 . S
C3258 C3256 1.395 . S
C3258 C3261 1.403 . S
C3259 C3256 1.403 . S
C3259 C3260 1.524 . S
C3259 C3263 1.400 . S
C3260 H3245 0.960 . S
C3260 H3246 0.960 . S
C3260 H3247 0.960 . S
C3260 C3259 1.524 . S
C3261 C3258 1.403 . S
C3261 C3262 1.392 . S
C3261 C3265 1.495 . S
C3262 C3261 1.392 . S
C3262 C3263 1.385 . S
C3262 C3264 1.478 . S
C3263 H3257 0.930 . S
C3263 C3259 1.400 . S
C3263 C3262 1.385 . S
C3264 C3262 1.478 . S
C3264 C3266 1.381 . S
C3264 C3270 1.383 . S
C3265 C3261 1.495 . S
C3265 H3271 0.959 . S
C3265 H3272 0.961 . S
C3265 H3273 0.960 . S
C3266 C3264 1.381 . S
C3266 C3267 1.394 . S
C3266 H3274 0.930 . S
C3267 C3266 1.394 . S
C3267 C3268 1.383 . S
C3267 H3275 0.929 . S
C3268 C3267 1.383 . S
C3268 C3269 1.377 . S
C3269 H3253 0.930 . S
C3269 C3268 1.377 . S
C3269 C3270 1.379 . S
C3270 H3254 0.931 . S
C3270 C3264 1.383 . S
C3270 C3269 1.379 . S
H3271 C3265 0.959 . S
H3272 C3265 0.961 . S
H3273 C3265 0.960 . S
H3274 C3266 0.930 . S
H3275 C3267 0.929 . S
H3276 C3284 0.929 . S
H3277 C3286 0.930 . S
H3278 C3288 0.930 . S
H3279 C3291 0.929 . S
H3280 C3294 0.930 . S
H3281 C3296 0.960 . S
H3282 C3296 0.960 . S
H3283 C3296 0.960 . S
C3284 H3276 0.929 . S
C3284 C3285 1.377 . S
C3284 C3286 1.384 . S
C3285 C3284 1.377 . S
C3285 C3291 1.390 . S
C3286 H3277 0.930 . S
C3286 C3284 1.384 . S
C3286 C3287 1.372 . S
C3287 C3286 1.372 . S
C3287 C3288 1.400 . S
C3287 C3292 1.490 . S
C3288 H3278 0.930 . S
C3288 C3287 1.400 . S
C3288 C3291 1.386 . S
H3289 C3305 0.930 . S
H3290 C3306 0.931 . S
C3291 H3279 0.929 . S
C3291 C3285 1.390 . S
C3291 C3288 1.386 . S
C3292 C3287 1.490 . S
C3292 C3294 1.395 . S
C3292 C3295 1.403 . S
H3293 C3299 0.930 . S
C3294 H3280 0.930 . S
C3294 C3292 1.395 . S
C3294 C3297 1.403 . S
C3295 C3292 1.403 . S
C3295 C3296 1.524 . S
C3295 C3299 1.400 . S
C3296 H3281 0.960 . S
C3296 H3282 0.960 . S
C3296 H3283 0.960 . S
C3296 C3295 1.524 . S
C3297 C3294 1.403 . S
C3297 C3298 1.392 . S
C3297 C3301 1.495 . S
C3298 C3297 1.392 . S
C3298 C3299 1.385 . S
C3298 C3300 1.478 . S
C3299 H3293 0.930 . S
C3299 C3295 1.400 . S
C3299 C3298 1.385 . S
C3300 C3298 1.478 . S
C3300 C3302 1.381 . S
C3300 C3306 1.383 . S
C3301 C3297 1.495 . S
C3301 H3307 0.959 . S
C3301 H3308 0.961 . S
C3301 H3309 0.960 . S
C3302 C3300 1.381 . S
C3302 C3303 1.394 . S
C3302 H3310 0.930 . S
C3303 C3302 1.394 . S
C3303 C3304 1.383 . S
C3303 H3311 0.929 . S
C3304 C3303 1.383 . S
C3304 C3305 1.377 . S
C3305 H3289 0.930 . S
C3305 C3304 1.377 . S
C3305 C3306 1.379 . S
C3306 H3290 0.931 . S
C3306 C3300 1.383 . S
C3306 C3305 1.379 . S
H3307 C3301 0.959 . S
H3308 C3301 0.961 . S
H3309 C3301 0.960 . S
H3310 C3302 0.930 . S
H3311 C3303 0.929 . S
H3312 C3320 0.929 . S
H3313 C3322 0.930 . S
H3314 C3324 0.930 . S
H3315 C3327 0.929 . S
H3316 C3330 0.930 . S
H3317 C3332 0.960 . S
H3318 C3332 0.960 . S
H3319 C3332 0.960 . S
C3320 H3312 0.929 . S
C3320 C3321 1.377 . S
C3320 C3322 1.384 . S
C3321 C3320 1.377 . S
C3321 C3327 1.390 . S
C3322 H3313 0.930 . S
C3322 C3320 1.384 . S
C3322 C3323 1.372 . S
C3323 C3322 1.372 . S
C3323 C3324 1.400 . S
C3323 C3328 1.490 . S
C3324 H3314 0.930 . S
C3324 C3323 1.400 . S
C3324 C3327 1.386 . S
H3325 C3341 0.930 . S
H3326 C3342 0.931 . S
C3327 H3315 0.929 . S
C3327 C3321 1.390 . S
C3327 C3324 1.386 . S
C3328 C3323 1.490 . S
C3328 C3330 1.395 . S
C3328 C3331 1.403 . S
H3329 C3335 0.930 . S
C3330 H3316 0.930 . S
C3330 C3328 1.395 . S
C3330 C3333 1.403 . S
C3331 C3328 1.403 . S
C3331 C3332 1.524 . S
C3331 C3335 1.400 . S
C3332 H3317 0.960 . S
C3332 H3318 0.960 . S
C3332 H3319 0.960 . S
C3332 C3331 1.524 . S
C3333 C3330 1.403 . S
C3333 C3334 1.392 . S
C3333 C3337 1.495 . S
C3334 C3333 1.392 . S
C3334 C3335 1.385 . S
C3334 C3336 1.478 . S
C3335 H3329 0.930 . S
C3335 C3331 1.400 . S
C3335 C3334 1.385 . S
C3336 C3334 1.478 . S
C3336 C3338 1.381 . S
C3336 C3342 1.383 . S
C3337 C3333 1.495 . S
C3337 H3343 0.959 . S
C3337 H3344 0.961 . S
C3337 H3345 0.960 . S
C3338 C3336 1.381 . S
C3338 C3339 1.394 . S
C3338 H3346 0.930 . S
C3339 C3338 1.394 . S
C3339 C3340 1.383 . S
C3339 H3347 0.929 . S
C3340 C3339 1.383 . S
C3340 C3341 1.377 . S
C3341 H3325 0.930 . S
C3341 C3340 1.377 . S
C3341 C3342 1.379 . S
C3342 H3326 0.931 . S
C3342 C3336 1.383 . S
C3342 C3341 1.379 . S
H3343 C3337 0.959 . S
H3344 C3337 0.961 . S
H3345 C3337 0.960 . S
H3346 C3338 0.930 . S
H3347 C3339 0.929 . S
H3348 C3356 0.929 . S
H3349 C3358 0.930 . S
H3350 C3360 0.930 . S
H3351 C3363 0.929 . S
H3352 C3366 0.930 . S
H3353 C3368 0.960 . S
H3354 C3368 0.960 . S
H3355 C3368 0.960 . S
C3356 H3348 0.929 . S
C3356 C3357 1.377 . S
C3356 C3358 1.384 . S
C3357 C3356 1.377 . S
C3357 C3363 1.390 . S
C3358 H3349 0.930 . S
C3358 C3356 1.384 . S
C3358 C3359 1.372 . S
C3359 C3358 1.372 . S
C3359 C3360 1.400 . S
C3359 C3364 1.490 . S
C3360 H3350 0.930 . S
C3360 C3359 1.400 . S
C3360 C3363 1.386 . S
H3361 C3377 0.930 . S
H3362 C3378 0.931 . S
C3363 H3351 0.929 . S
C3363 C3357 1.390 . S
C3363 C3360 1.386 . S
C3364 C3359 1.490 . S
C3364 C3366 1.395 . S
C3364 C3367 1.403 . S
H3365 C3371 0.930 . S
C3366 H3352 0.930 . S
C3366 C3364 1.395 . S
C3366 C3369 1.403 . S
C3367 C3364 1.403 . S
C3367 C3368 1.524 . S
C3367 C3371 1.400 . S
C3368 H3353 0.960 . S
C3368 H3354 0.960 . S
C3368 H3355 0.960 . S
C3368 C3367 1.524 . S
C3369 C3366 1.403 . S
C3369 C3370 1.392 . S
C3369 C3373 1.495 . S
C3370 C3369 1.392 . S
C3370 C3371 1.385 . S
C3370 C3372 1.478 . S
C3371 H3365 0.930 . S
C3371 C3367 1.400 . S
C3371 C3370 1.385 . S
C3372 C3370 1.478 . S
C3372 C3374 1.381 . S
C3372 C3378 1.383 . S
C3373 C3369 1.495 . S
C3373 H3379 0.959 . S
C3373 H3380 0.961 . S
C3373 H3381 0.960 . S
C3374 C3372 1.381 . S
C3374 C3375 1.394 . S
C3374 H3382 0.930 . S
C3375 C3374 1.394 . S
C3375 C3376 1.383 . S
C3375 H3383 0.929 . S
C3376 C3375 1.383 . S
C3376 C3377 1.377 . S
C3377 H3361 0.930 . S
C3377 C3376 1.377 . S
C3377 C3378 1.379 . S
C3378 H3362 0.931 . S
C3378 C3372 1.383 . S
C3378 C3377 1.379 . S
H3379 C3373 0.959 . S
H3380 C3373 0.961 . S
H3381 C3373 0.960 . S
H3382 C3374 0.930 . S
H3383 C3375 0.929 . S
H3384 C3392 0.929 . S
H3385 C3394 0.930 . S
H3386 C3396 0.930 . S
H3387 C3399 0.929 . S
H3388 C3402 0.930 . S
H3389 C3404 0.960 . S
H3390 C3404 0.960 . S
H3391 C3404 0.960 . S
C3392 H3384 0.929 . S
C3392 C3393 1.377 . S
C3392 C3394 1.384 . S
C3393 C3392 1.377 . S
C3393 C3399 1.390 . S
C3394 H3385 0.930 . S
C3394 C3392 1.384 . S
C3394 C3395 1.372 . S
C3395 C3394 1.372 . S
C3395 C3396 1.400 . S
C3395 C3400 1.490 . S
C3396 H3386 0.930 . S
C3396 C3395 1.400 . S
C3396 C3399 1.386 . S
H3397 C3413 0.930 . S
H3398 C3414 0.931 . S
C3399 H3387 0.929 . S
C3399 C3393 1.390 . S
C3399 C3396 1.386 . S
C3400 C3395 1.490 . S
C3400 C3402 1.395 . S
C3400 C3403 1.403 . S
H3401 C3407 0.930 . S
C3402 H3388 0.930 . S
C3402 C3400 1.395 . S
C3402 C3405 1.403 . S
C3403 C3400 1.403 . S
C3403 C3404 1.524 . S
C3403 C3407 1.400 . S
C3404 H3389 0.960 . S
C3404 H3390 0.960 . S
C3404 H3391 0.960 . S
C3404 C3403 1.524 . S
C3405 C3402 1.403 . S
C3405 C3406 1.392 . S
C3405 C3409 1.495 . S
C3406 C3405 1.392 . S
C3406 C3407 1.385 . S
C3406 C3408 1.478 . S
C3407 H3401 0.930 . S
C3407 C3403 1.400 . S
C3407 C3406 1.385 . S
C3408 C3406 1.478 . S
C3408 C3410 1.381 . S
C3408 C3414 1.383 . S
C3409 C3405 1.495 . S
C3409 H3415 0.959 . S
C3409 H3416 0.961 . S
C3409 H3417 0.960 . S
C3410 C3408 1.381 . S
C3410 C3411 1.394 . S
C3410 H3418 0.930 . S
C3411 C3410 1.394 . S
C3411 C3412 1.383 . S
C3411 H3419 0.929 . S
C3412 C3411 1.383 . S
C3412 C3413 1.377 . S
C3413 H3397 0.930 . S
C3413 C3412 1.377 . S
C3413 C3414 1.379 . S
C3414 H3398 0.931 . S
C3414 C3408 1.383 . S
C3414 C3413 1.379 . S
H3415 C3409 0.959 . S
H3416 C3409 0.961 . S
H3417 C3409 0.960 . S
H3418 C3410 0.930 . S
H3419 C3411 0.929 . S
H3420 C3428 0.929 . S
H3421 C3430 0.930 . S
H3422 C3432 0.930 . S
H3423 C3435 0.929 . S
H3424 C3438 0.930 . S
H3425 C3440 0.960 . S
H3426 C3440 0.960 . S
H3427 C3440 0.960 . S
C3428 H3420 0.929 . S
C3428 C3429 1.377 . S
C3428 C3430 1.384 . S
C3429 C3428 1.377 . S
C3429 C3435 1.390 . S
C3430 H3421 0.930 . S
C3430 C3428 1.384 . S
C3430 C3431 1.372 . S
C3431 C3430 1.372 . S
C3431 C3432 1.400 . S
C3431 C3436 1.490 . S
C3432 H3422 0.930 . S
C3432 C3431 1.400 . S
C3432 C3435 1.386 . S
H3433 C3449 0.930 . S
H3434 C3450 0.931 . S
C3435 H3423 0.929 . S
C3435 C3429 1.390 . S
C3435 C3432 1.386 . S
C3436 C3431 1.490 . S
C3436 C3438 1.395 . S
C3436 C3439 1.403 . S
H3437 C3443 0.930 . S
C3438 H3424 0.930 . S
C3438 C3436 1.395 . S
C3438 C3441 1.403 . S
C3439 C3436 1.403 . S
C3439 C3440 1.524 . S
C3439 C3443 1.400 . S
C3440 H3425 0.960 . S
C3440 H3426 0.960 . S
C3440 H3427 0.960 . S
C3440 C3439 1.524 . S
C3441 C3438 1.403 . S
C3441 C3442 1.392 . S
C3441 C3445 1.495 . S
C3442 C3441 1.392 . S
C3442 C3443 1.385 . S
C3442 C3444 1.478 . S
C3443 H3437 0.930 . S
C3443 C3439 1.400 . S
C3443 C3442 1.385 . S
C3444 C3442 1.478 . S
C3444 C3446 1.381 . S
C3444 C3450 1.383 . S
C3445 C3441 1.495 . S
C3445 H3451 0.959 . S
C3445 H3452 0.961 . S
C3445 H3453 0.960 . S
C3446 C3444 1.381 . S
C3446 C3447 1.394 . S
C3446 H3454 0.930 . S
C3447 C3446 1.394 . S
C3447 C3448 1.383 . S
C3447 H3455 0.929 . S
C3448 C3447 1.383 . S
C3448 C3449 1.377 . S
C3449 H3433 0.930 . S
C3449 C3448 1.377 . S
C3449 C3450 1.379 . S
C3450 H3434 0.931 . S
C3450 C3444 1.383 . S
C3450 C3449 1.379 . S
H3451 C3445 0.959 . S
H3452 C3445 0.961 . S
H3453 C3445 0.960 . S
H3454 C3446 0.930 . S
H3455 C3447 0.929 . S
C1161 C974 1.257 . S
C1180 C4 1.263 . S
C1197 C40 1.234 1_655 S
C1216 C290 1.269 . S
C1233 C902 1.263 . S
C1252 C76 1.210 . S
C1269 C112 1.241 . S
C1288 C362 1.251 . S
C1305 C148 1.237 . S
C1324 C1046 1.262 . S
C1341 C184 1.236 . S
C1360 C506 1.265 . S
C1377 C220 1.239 . S
C1396 C1118 1.256 . S
C1413 C256 1.239 1_655 S
C1432 C434 1.257 . S
C1449 C686 1.181 . S
C1468 C291 1.191 . S
C1485 C2 1.175 . S
C1504 C327 1.172 1_455 S
C1521 C614 1.182 . S
C1540 C363 1.178 . S
C1557 C399 1.180 . S
C1576 C74 1.185 . S
C1593 C758 1.180 . S
C1612 C435 1.192 . S
C1629 C218 1.175 . S
C1648 C471 1.184 . S
C1665 C507 1.179 . S
C1684 C830 1.172 . S
C1701 C146 1.176 . S
C1720 C543 1.167 1_455 S
C1737 C580 1.244 . S
C1756 C398 1.244 . S
C1773 C616 1.240 . S
C1792 C866 1.255 . S
C1809 C326 1.258 . S
C1828 C652 1.256 . S
C1845 C938 1.259 . S
C1864 C688 1.248 1_455 S
C1881 C470 1.263 . S
C1900 C724 1.212 . S
C1917 C1082 1.263 . S
C1936 C760 1.213 1_455 S
C1953 C542 1.257 . S
C1972 C796 1.263 . S
C1989 C832 1.238 . S
C2008 C1010 1.259 . S
C2025 C110 1.176 . S
C2044 C867 1.168 . S
C2061 C903 1.184 . S
C2080 C578 1.169 . S
C2097 C939 1.179 . S
C2116 C38 1.174 . S
C2133 C975 1.180 1_655 S
C2152 C650 1.188 . S
C2169 C1011 1.183 . S
C2188 C182 1.162 . S
C2205 C1047 1.179 1_655 S
C2224 C794 1.178 . S
C2241 C1083 1.183 . S
C2260 C254 1.162 . S
C2277 C1119 1.183 . S
C2296 C722 1.162 . S
C2313 C878 1.490 . S
C2332 C14 1.436 . S
C2349 C50 1.454 . S
C2368 C338 1.493 . S
C2385 C950 1.492 . S
C2404 C86 1.463 . S
C2421 C122 1.453 . S
C2440 C410 1.485 . S
C2457 C1022 1.483 . S
C2476 C158 1.442 . S
C2493 C194 1.453 . S
C2512 C482 1.502 . S
C2529 C1094 1.491 . S
C2548 C230 1.467 . S
C2565 C266 1.442 . S
C2584 C554 1.484 . S
C2601 C302 1.484 . S
C2620 C590 1.414 . S
C2637 C374 1.491 . S
C2656 C662 1.455 . S
C2673 C446 1.491 . S
C2692 C734 1.466 . S
C2709 C518 1.485 . S
C2728 C806 1.456 . S
C2745 C626 1.451 . S
C2764 C914 1.475 . S
C2781 C986 1.487 . S
C2800 C698 1.418 . S
C2817 C1058 1.487 . S
C2836 C770 1.418 . S
C2853 C842 1.451 . S
C2872 C1130 1.505 . S
C2889 C3 1.482 . S
C2908 C183 1.474 . S
C2925 C39 1.482 . S
C2944 C219 1.480 . S
C2961 C75 1.482 . S
C2980 C255 1.479 . S
C2997 C147 1.482 . S
C3016 C111 1.475 . S
C3033 C292 1.317 . S
C3052 C472 1.317 . S
C3069 C328 1.314 . S
C3088 C508 1.293 . S
C3105 C364 1.312 . S
C3124 C544 1.290 . S
C3141 C400 1.313 . S
C3160 C436 1.293 . S
C3177 C579 1.481 . S
C3196 C759 1.481 . S
C3213 C795 1.481 . S
C3232 C615 1.478 . S
C3249 C651 1.482 . S
C3268 C831 1.475 . S
C3285 C687 1.480 . S
C3304 C723 1.482 . S
C3321 C1048 1.316 . S
C3340 C868 1.301 . S
C3357 C904 1.313 . S
C3376 C1084 1.328 . S
C3393 C1120 1.314 . S
C3412 C940 1.295 . S
C3429 C976 1.313 . S
C3448 C1012 1.293 . S
