# Generated by pormake.
# Topology atn, (4)-cn, num edge types: 1
# Building blocks:
#     Node 0, Type 0, BuildingBlock: GALJAG_clean_sbu_0, # of connection points: 4
#     Node 1, Type 0, BuildingBlock: GALJAG_clean_sbu_0, # of connection points: 4
#     Node 2, Type 0, BuildingBlock: GALJAG_clean_sbu_0, # of connection points: 4
#     Node 3, Type 0, BuildingBlock: GALJAG_clean_sbu_0, # of connection points: 4
#     Node 4, Type 0, BuildingBlock: GALJAG_clean_sbu_0, # of connection points: 4
#     Node 5, Type 0, BuildingBlock: GALJAG_clean_sbu_0, # of connection points: 4
#     Node 6, Type 0, BuildingBlock: GALJAG_clean_sbu_0, # of connection points: 4
#     Node 7, Type 0, BuildingBlock: GALJAG_clean_sbu_0, # of connection points: 4
#     Node 8, Type 0, BuildingBlock: GALJAG_clean_sbu_0, # of connection points: 4
#     Node 9, Type 0, BuildingBlock: GALJAG_clean_sbu_0, # of connection points: 4
#     Node 10, Type 0, BuildingBlock: GALJAG_clean_sbu_0, # of connection points: 4
#     Node 11, Type 0, BuildingBlock: GALJAG_clean_sbu_0, # of connection points: 4
#     Node 12, Type 0, BuildingBlock: GALJAG_clean_sbu_0, # of connection points: 4
#     Node 13, Type 0, BuildingBlock: GALJAG_clean_sbu_0, # of connection points: 4
#     Node 14, Type 0, BuildingBlock: GALJAG_clean_sbu_0, # of connection points: 4
#     Node 15, Type 0, BuildingBlock: GALJAG_clean_sbu_0, # of connection points: 4
#     Edge 16, Type (0, 0), BuildingBlock: KIFKEQ_clean_linker_1, # of connection points: 2
#     Edge 17, Type (0, 0), BuildingBlock: KIFKEQ_clean_linker_1, # of connection points: 2
#     Edge 18, Type (0, 0), BuildingBlock: KIFKEQ_clean_linker_1, # of connection points: 2
#     Edge 19, Type (0, 0), BuildingBlock: KIFKEQ_clean_linker_1, # of connection points: 2
#     Edge 20, Type (0, 0), BuildingBlock: KIFKEQ_clean_linker_1, # of connection points: 2
#     Edge 21, Type (0, 0), BuildingBlock: KIFKEQ_clean_linker_1, # of connection points: 2
#     Edge 22, Type (0, 0), BuildingBlock: KIFKEQ_clean_linker_1, # of connection points: 2
#     Edge 23, Type (0, 0), BuildingBlock: KIFKEQ_clean_linker_1, # of connection points: 2
#     Edge 24, Type (0, 0), BuildingBlock: KIFKEQ_clean_linker_1, # of connection points: 2
#     Edge 25, Type (0, 0), BuildingBlock: KIFKEQ_clean_linker_1, # of connection points: 2
#     Edge 26, Type (0, 0), BuildingBlock: KIFKEQ_clean_linker_1, # of connection points: 2
#     Edge 27, Type (0, 0), BuildingBlock: KIFKEQ_clean_linker_1, # of connection points: 2
#     Edge 28, Type (0, 0), BuildingBlock: KIFKEQ_clean_linker_1, # of connection points: 2
#     Edge 29, Type (0, 0), BuildingBlock: KIFKEQ_clean_linker_1, # of connection points: 2
#     Edge 30, Type (0, 0), BuildingBlock: KIFKEQ_clean_linker_1, # of connection points: 2
#     Edge 31, Type (0, 0), BuildingBlock: KIFKEQ_clean_linker_1, # of connection points: 2
#     Edge 32, Type (0, 0), BuildingBlock: KIFKEQ_clean_linker_1, # of connection points: 2
#     Edge 33, Type (0, 0), BuildingBlock: KIFKEQ_clean_linker_1, # of connection points: 2
#     Edge 34, Type (0, 0), BuildingBlock: KIFKEQ_clean_linker_1, # of connection points: 2
#     Edge 35, Type (0, 0), BuildingBlock: KIFKEQ_clean_linker_1, # of connection points: 2
#     Edge 36, Type (0, 0), BuildingBlock: KIFKEQ_clean_linker_1, # of connection points: 2
#     Edge 37, Type (0, 0), BuildingBlock: KIFKEQ_clean_linker_1, # of connection points: 2
#     Edge 38, Type (0, 0), BuildingBlock: KIFKEQ_clean_linker_1, # of connection points: 2
#     Edge 39, Type (0, 0), BuildingBlock: KIFKEQ_clean_linker_1, # of connection points: 2
#     Edge 40, Type (0, 0), BuildingBlock: KIFKEQ_clean_linker_1, # of connection points: 2
#     Edge 41, Type (0, 0), BuildingBlock: KIFKEQ_clean_linker_1, # of connection points: 2
#     Edge 42, Type (0, 0), BuildingBlock: KIFKEQ_clean_linker_1, # of connection points: 2
#     Edge 43, Type (0, 0), BuildingBlock: KIFKEQ_clean_linker_1, # of connection points: 2
#     Edge 44, Type (0, 0), BuildingBlock: KIFKEQ_clean_linker_1, # of connection points: 2
#     Edge 45, Type (0, 0), BuildingBlock: KIFKEQ_clean_linker_1, # of connection points: 2
#     Edge 46, Type (0, 0), BuildingBlock: KIFKEQ_clean_linker_1, # of connection points: 2
#     Edge 47, Type (0, 0), BuildingBlock: KIFKEQ_clean_linker_1, # of connection points: 2
# Relax obj value: 0.083
# Max RMSD: 0.111
# Mean RMSD: 0.111
data_MOF--net-atn--node1-GALJAG_clean_sbu_0--edge1-KIFKEQ_clean_linker_1
_symmetry_space_group_name_H-M    P1
_symmetry_Int_Tables_number       1
_symmetry_cell_setting            triclinic
loop_
_symmetry_equiv_pos_as_xyz
'x, y, z'
_cell_length_a     60.037837
_cell_length_b     60.02562
_cell_length_c     28.94749
_cell_angle_alpha  90.027631
_cell_angle_beta   90.006294
_cell_angle_gamma 89.971602
loop_
_atom_site_label
_atom_site_type_symbol
_atom_site_fract_x
_atom_site_fract_y
_atom_site_fract_z
_atom_type_partial_charge
In0 In 0.18124 0.36271 0.00702 0.0
O1 O 0.15397 0.35113 0.05739 0.0
O2 O 0.18374 0.36518 0.08473 0.0
C3 C 0.16556 0.35584 0.92093 0.0
C4 C 0.18313 0.40729 0.00676 0.0
C5 C 0.21408 0.33235 0.00631 0.0
O6 O 0.15394 0.35151 0.95633 0.0
O7 O 0.1847 0.36344 0.92941 0.0
O8 O 0.21781 0.35294 0.00169 0.0
O9 O 0.19386 0.32719 0.01153 0.0
C10 C 0.16495 0.35669 0.09294 0.0
O11 O 0.20027 0.39537 0.01246 0.0
O12 O 0.16517 0.39668 0.00133 0.0
In13 In 0.61963 0.18177 0.00328 0.0
O14 O 0.63123 0.15427 0.05337 0.0
O15 O 0.61994 0.18511 0.08096 0.0
C16 C 0.6245 0.16564 0.91702 0.0
C17 C 0.5751 0.18386 0.00616 0.0
C18 C 0.65012 0.2144 0.99946 0.0
O19 O 0.63044 0.15459 0.95222 0.0
O20 O 0.61616 0.18447 0.92572 0.0
O21 O 0.62959 0.21837 0.0044 0.0
O22 O 0.65517 0.19403 0.99652 0.0
C23 C 0.62741 0.16589 0.08901 0.0
O24 O 0.58711 0.20114 0.00679 0.0
O25 O 0.58561 0.16567 0.00392 0.0
In26 In 0.80149 0.61969 0.00706 0.0
O27 O 0.78252 0.58699 0.01237 0.0
O28 O 0.81758 0.58577 0.00072 0.0
C29 C 0.76865 0.65004 0.00846 0.0
C30 C 0.81828 0.62492 0.09277 0.0
C31 C 0.81668 0.62717 0.92078 0.0
O32 O 0.76491 0.62953 0.00237 0.0
O33 O 0.78888 0.65511 0.01383 0.0
O34 O 0.82811 0.63216 0.95608 0.0
O35 O 0.79797 0.61861 0.92942 0.0
C36 C 0.79966 0.57512 0.00634 0.0
O37 O 0.82941 0.63 0.05712 0.0
O38 O 0.79909 0.61733 0.08474 0.0
In39 In 0.36273 0.80178 0.00477 0.0
O40 O 0.35125 0.82853 0.0562 0.0
O41 O 0.36508 0.79836 0.08236 0.0
C42 C 0.35599 0.81838 0.91921 0.0
C43 C 0.4073 0.79993 0.00485 0.0
C44 C 0.33235 0.76899 0.006 0.0
O45 O 0.35149 0.82959 0.95506 0.0
O46 O 0.36368 0.79922 0.92696 0.0
O47 O 0.35298 0.76512 0.00269 0.0
O48 O 0.32716 0.78933 0.00857 0.0
C49 C 0.3567 0.81715 0.0913 0.0
O50 O 0.3954 0.78264 0.00144 0.0
O51 O 0.39667 0.81801 0.00816 0.0
In52 In 0.18151 0.61944 0.00908 0.0
O53 O 0.15393 0.63007 0.95857 0.0
O54 O 0.1839 0.61632 0.93148 0.0
C55 C 0.16607 0.62727 0.09503 0.0
C56 C 0.18341 0.57487 0.01085 0.0
C57 C 0.21421 0.64991 0.00701 0.0
O58 O 0.15448 0.63154 0.05954 0.0
O59 O 0.18507 0.61929 0.08672 0.0
O60 O 0.21806 0.62945 0.01344 0.0
O61 O 0.19394 0.65488 0.0017 0.0
C62 C 0.16495 0.62441 0.92313 0.0
O63 O 0.20057 0.58673 0.00497 0.0
O64 O 0.16545 0.58554 0.0158 0.0
In65 In 0.3633 0.18149 0.00717 0.0
O66 O 0.39577 0.20102 0.00379 0.0
O67 O 0.39726 0.16654 0.02097 0.0
C68 C 0.33309 0.21417 0.99979 0.0
C69 C 0.35932 0.1635 0.92209 0.0
C70 C 0.3532 0.16821 0.09365 0.0
O71 O 0.35345 0.21803 0.00763 0.0
O72 O 0.32808 0.19383 0.99534 0.0
O73 O 0.35407 0.15447 0.06046 0.0
O74 O 0.35721 0.18813 0.0828 0.0
C75 C 0.40774 0.18444 0.01408 0.0
O76 O 0.3523 0.15346 0.95772 0.0
O77 O 0.36832 0.18208 0.92991 0.0
In78 In 0.80182 0.36302 0.00338 0.0
O79 O 0.82961 0.35161 0.95379 0.0
O80 O 0.80016 0.36587 0.92565 0.0
C81 C 0.81655 0.35604 0.09006 0.0
C82 C 0.79985 0.40756 0.00663 0.0
C83 C 0.76916 0.33252 0.00115 0.0
O84 O 0.82854 0.3518 0.05512 0.0
O85 O 0.79746 0.36364 0.08089 0.0
O86 O 0.76526 0.35317 0.99869 0.0
O87 O 0.78948 0.32737 0.00467 0.0
C88 C 0.81899 0.35738 0.91795 0.0
O89 O 0.78261 0.39568 0.00221 0.0
O90 O 0.81795 0.39692 0.00929 0.0
In91 In 0.61939 0.8013 0.00418 0.0
O92 O 0.63133 0.82805 0.95325 0.0
O93 O 0.6179 0.7978 0.92655 0.0
C94 C 0.6252 0.81785 0.09008 0.0
C95 C 0.57484 0.7995 0.00203 0.0
C96 C 0.64991 0.76861 0.00436 0.0
O97 O 0.63005 0.82909 0.05448 0.0
O98 O 0.61761 0.79869 0.08192 0.0
O99 O 0.62926 0.76467 0.00674 0.0
O100 O 0.65504 0.78897 0.00197 0.0
C101 C 0.6263 0.81661 0.91795 0.0
O102 O 0.58669 0.7822 0.00603 0.0
O103 O 0.58551 0.81757 0.99919 0.0
In104 In 0.68122 0.86294 0.50341 0.0
O105 O 0.65433 0.85153 0.55454 0.0
O106 O 0.68531 0.86325 0.58098 0.0
C107 C 0.66425 0.85767 0.41773 0.0
C108 C 0.6832 0.90747 0.50722 0.0
C109 C 0.71388 0.83241 0.50136 0.0
O110 O 0.65353 0.85182 0.45337 0.0
O111 O 0.68309 0.86604 0.42574 0.0
O112 O 0.71782 0.85307 0.49984 0.0
O113 O 0.69353 0.82726 0.50384 0.0
C114 C 0.66619 0.85563 0.58973 0.0
O115 O 0.70042 0.89559 0.50208 0.0
O116 O 0.66513 0.89684 0.51034 0.0
In117 In 0.11984 0.68148 0.51003 0.0
O118 O 0.08718 0.70067 0.51168 0.0
O119 O 0.08593 0.66526 0.50602 0.0
C120 C 0.1503 0.71419 0.51072 0.0
C121 C 0.12596 0.6647 0.59561 0.0
C122 C 0.1264 0.66637 0.42345 0.0
O123 O 0.12967 0.71808 0.51369 0.0
O124 O 0.15546 0.69386 0.50748 0.0
O125 O 0.13124 0.65471 0.45853 0.0
O126 O 0.11838 0.68531 0.43243 0.0
C127 C 0.07529 0.68337 0.50842 0.0
O128 O 0.13107 0.65371 0.5598 0.0
O129 O 0.11796 0.68372 0.58781 0.0
In130 In 0.30232 0.11989 0.50965 0.0
O131 O 0.28247 0.08756 0.51149 0.0
O132 O 0.31666 0.08603 0.49222 0.0
C133 C 0.2691 0.14939 0.51911 0.0
C134 C 0.32077 0.12318 0.59451 0.0
C135 C 0.31626 0.1315 0.42434 0.0
O136 O 0.26564 0.1292 0.5089 0.0
O137 O 0.28931 0.15458 0.52485 0.0
O138 O 0.32992 0.12821 0.45696 0.0
O139 O 0.29608 0.12922 0.43519 0.0
C140 C 0.29875 0.07561 0.49925 0.0
O141 O 0.32999 0.13157 0.55924 0.0
O142 O 0.3028 0.11307 0.58645 0.0
In143 In 0.86323 0.3009 0.50443 0.0
O144 O 0.85309 0.32865 0.55502 0.0
O145 O 0.86597 0.29829 0.58207 0.0
C146 C 0.85545 0.31646 0.41858 0.0
C147 C 0.90778 0.29882 0.5025 0.0
C148 C 0.83277 0.26819 0.50566 0.0
O149 O 0.85082 0.32786 0.45414 0.0
O150 O 0.86377 0.29759 0.42676 0.0
O151 O 0.85325 0.26436 0.49953 0.0
O152 O 0.82777 0.28844 0.51121 0.0
C153 C 0.85834 0.31744 0.59046 0.0
O154 O 0.89587 0.28173 0.5087 0.0
O155 O 0.89717 0.31682 0.49742 0.0
In156 In 0.68105 0.11958 0.50369 0.0
O157 O 0.70016 0.0869 0.50706 0.0
O158 O 0.66476 0.08564 0.5014 0.0
C159 C 0.71385 0.14993 0.5022 0.0
C160 C 0.6656 0.12539 0.41717 0.0
C161 C 0.66464 0.1266 0.5893 0.0
O162 O 0.7177 0.1293 0.50564 0.0
O163 O 0.69352 0.15514 0.49954 0.0
O164 O 0.65334 0.13097 0.5535 0.0
O165 O 0.68379 0.1189 0.58145 0.0
C166 C 0.68285 0.07501 0.50443 0.0
O167 O 0.65428 0.13097 0.45227 0.0
O168 O 0.68437 0.11698 0.4261 0.0
In169 In 0.86324 0.68135 0.50547 0.0
O170 O 0.85233 0.65351 0.45573 0.0
O171 O 0.86736 0.6827 0.42798 0.0
C172 C 0.85503 0.66661 0.59181 0.0
C173 C 0.90777 0.68345 0.50862 0.0
C174 C 0.83287 0.71411 0.50113 0.0
O175 O 0.85154 0.65449 0.55671 0.0
O176 O 0.86237 0.68581 0.58293 0.0
O177 O 0.85326 0.71794 0.50847 0.0
O178 O 0.82791 0.69383 0.49607 0.0
C179 C 0.85872 0.66394 0.42008 0.0
O180 O 0.89589 0.70044 0.50106 0.0
O181 O 0.89714 0.66553 0.51449 0.0
In182 In 0.30102 0.86374 0.50546 0.0
O183 O 0.32839 0.85202 0.45519 0.0
O184 O 0.29749 0.86325 0.42782 0.0
C185 C 0.31728 0.85901 0.59165 0.0
C186 C 0.29894 0.90828 0.50208 0.0
C187 C 0.2684 0.83326 0.50966 0.0
O188 O 0.32828 0.85301 0.55642 0.0
O189 O 0.29846 0.86737 0.58302 0.0
O190 O 0.26442 0.85379 0.50463 0.0
O191 O 0.28877 0.82822 0.5125 0.0
C192 C 0.31669 0.85576 0.41963 0.0
O193 O 0.28165 0.89628 0.50214 0.0
O194 O 0.31714 0.89776 0.50392 0.0
In195 In 0.11986 0.30035 0.50696 0.0
O196 O 0.0872 0.28133 0.5012 0.0
O197 O 0.08593 0.31652 0.51108 0.0
C198 C 0.15029 0.2676 0.50985 0.0
C199 C 0.1262 0.31623 0.42081 0.0
C200 C 0.12621 0.3165 0.59283 0.0
O201 O 0.12966 0.26381 0.51331 0.0
O202 O 0.15544 0.28783 0.50462 0.0
O203 O 0.1316 0.32757 0.5573 0.0
O204 O 0.11778 0.29768 0.58461 0.0
C205 C 0.0753 0.29855 0.50599 0.0
O206 O 0.13074 0.32774 0.45625 0.0
O207 O 0.11864 0.29706 0.42923 0.0
H208 H 0.15017 0.54668 0.03578 0.0
H209 H 0.21818 0.54786 0.98714 0.0
H210 H 0.15079 0.50618 0.03563 0.0
H211 H 0.21859 0.50719 0.98525 0.0
H212 H 0.21785 0.4341 0.03156 0.0
H213 H 0.2184 0.47476 0.03372 0.0
H214 H 0.15083 0.47618 0.98205 0.0
H215 H 0.15006 0.43568 0.98164 0.0
C216 C 0.16523 0.53824 0.02481 0.0
C217 C 0.18411 0.55036 0.01136 0.0
C218 C 0.16554 0.51503 0.02441 0.0
C219 C 0.18468 0.50343 0.01005 0.0
C220 C 0.20367 0.51561 0.99699 0.0
C221 C 0.20341 0.53888 0.99782 0.0
C222 C 0.20315 0.44317 0.02069 0.0
C223 C 0.18387 0.4318 0.00669 0.0
C224 C 0.2035 0.46643 0.02167 0.0
C225 C 0.18462 0.47873 0.00829 0.0
C226 C 0.16549 0.46724 0.99352 0.0
C227 C 0.16509 0.44403 0.99299 0.0
H228 H 0.43469 0.21797 0.9838 0.0
H229 H 0.43584 0.15336 0.04939 0.0
H230 H 0.47534 0.21839 0.9826 0.0
H231 H 0.47635 0.1541 0.04994 0.0
H232 H 0.54628 0.14966 0.99241 0.0
H233 H 0.50585 0.15069 0.99571 0.0
H234 H 0.5082 0.22084 0.02946 0.0
H235 H 0.54879 0.21992 0.02438 0.0
C236 C 0.44367 0.20401 0.99851 0.0
C237 C 0.43219 0.18556 0.01634 0.0
C238 C 0.46693 0.20429 0.99806 0.0
C239 C 0.4791 0.18619 0.01584 0.0
C240 C 0.46751 0.16808 0.03501 0.0
C241 C 0.4443 0.16771 0.03499 0.0
C242 C 0.53815 0.1653 0.00049 0.0
C243 C 0.55063 0.18471 0.00816 0.0
C244 C 0.51498 0.16587 0.00273 0.0
C245 C 0.50377 0.18582 0.01321 0.0
C246 C 0.5163 0.20527 0.02081 0.0
C247 C 0.53953 0.20473 0.01812 0.0
H248 H 0.76477 0.43462 0.98549 0.0
H249 H 0.83322 0.43563 0.0314 0.0
H250 H 0.76423 0.47528 0.98499 0.0
H251 H 0.83248 0.47613 0.03277 0.0
H252 H 0.83265 0.54687 0.9802 0.0
H253 H 0.83199 0.50638 0.98019 0.0
H254 H 0.76475 0.50752 0.03375 0.0
H255 H 0.76519 0.54819 0.03194 0.0
C256 C 0.77961 0.44356 0.99591 0.0
C257 C 0.79908 0.43204 0.00817 0.0
C258 C 0.77928 0.46683 0.99589 0.0
C259 C 0.79836 0.47897 0.00857 0.0
C260 C 0.81765 0.46732 0.02182 0.0
C261 C 0.81804 0.44411 0.02133 0.0
C262 C 0.81772 0.53846 0.99188 0.0
C263 C 0.79899 0.55061 0.00615 0.0
C264 C 0.81738 0.51525 0.99219 0.0
C265 C 0.79838 0.50368 0.00733 0.0
C266 C 0.77956 0.5159 0.02139 0.0
C267 C 0.77984 0.53917 0.0206 0.0
H268 H 0.54778 0.76476 0.02527 0.0
H269 H 0.54678 0.83277 0.97665 0.0
H270 H 0.50713 0.76442 0.02673 0.0
H271 H 0.50629 0.8322 0.97608 0.0
H272 H 0.43563 0.83325 0.02851 0.0
H273 H 0.47611 0.83247 0.02829 0.0
H274 H 0.47475 0.76442 0.97913 0.0
H275 H 0.43411 0.76499 0.98137 0.0
C276 C 0.53883 0.77954 0.01445 0.0
C277 C 0.55035 0.79883 0.00114 0.0
C278 C 0.51557 0.77933 0.01502 0.0
C279 C 0.50342 0.79833 0.00177 0.0
C280 C 0.51508 0.81744 0.98751 0.0
C281 C 0.53829 0.81774 0.98752 0.0
C282 C 0.444 0.81812 0.01775 0.0
C283 C 0.43179 0.7992 0.00486 0.0
C284 C 0.4672 0.8177 0.01731 0.0
C285 C 0.47872 0.79844 0.00332 0.0
C286 C 0.46643 0.77944 0.99063 0.0
C287 C 0.44317 0.77979 0.99164 0.0
H288 H 0.71803 0.04829 0.52668 0.0
H289 H 0.64921 0.04657 0.48337 0.0
H290 H 0.71864 0.00765 0.52958 0.0
H291 H 0.65 0.00609 0.48428 0.0
H292 H 0.6504 0.93545 0.53544 0.0
H293 H 0.65101 0.97595 0.53663 0.0
H294 H 0.71807 0.97523 0.48199 0.0
H295 H 0.7177 0.93457 0.48282 0.0
C296 C 0.70311 0.03918 0.51741 0.0
C297 C 0.68355 0.05051 0.505 0.0
C298 C 0.70347 0.01592 0.51882 0.0
C299 C 0.68434 0.00359 0.50736 0.0
C300 C 0.66489 0.01504 0.4943 0.0
C301 C 0.66447 0.03825 0.49344 0.0
C302 C 0.66529 0.94397 0.52386 0.0
C303 C 0.68397 0.93194 0.50886 0.0
C304 C 0.66561 0.96718 0.52424 0.0
C305 C 0.68451 0.97888 0.50896 0.0
C306 C 0.70333 0.96677 0.49449 0.0
C307 C 0.7031 0.9435 0.49469 0.0
H308 H 0.9348 0.71758 0.48158 0.0
H309 H 0.93586 0.65111 0.53867 0.0
H310 H 0.97546 0.71804 0.48075 0.0
H311 H 0.97635 0.65184 0.53964 0.0
H312 H 0.04706 0.64955 0.48736 0.0
H313 H 0.00658 0.65029 0.487 0.0
H314 H 0.0077 0.71937 0.52945 0.0
H315 H 0.04836 0.71879 0.52798 0.0
C316 C 0.94376 0.70317 0.49437 0.0
C317 C 0.93225 0.68426 0.50991 0.0
C318 C 0.96702 0.70347 0.49414 0.0
C319 C 0.97917 0.68492 0.50987 0.0
C320 C 0.96754 0.66622 0.52633 0.0
C321 C 0.94434 0.66584 0.52608 0.0
C322 C 0.03865 0.6649 0.49651 0.0
C323 C 0.0508 0.6841 0.50781 0.0
C324 C 0.01544 0.6653 0.49662 0.0
C325 C 0.00387 0.68484 0.50859 0.0
C326 C 0.01609 0.70412 0.51957 0.0
C327 C 0.03935 0.70377 0.51898 0.0
H328 H 0.2655 0.04846 0.53005 0.0
H329 H 0.3289 0.04785 0.45957 0.0
H330 H 0.26489 0.00781 0.52911 0.0
H331 H 0.32794 0.00734 0.45691 0.0
H332 H 0.33337 0.93708 0.51315 0.0
H333 H 0.33231 0.97752 0.51016 0.0
H334 H 0.26166 0.97524 0.4814 0.0
H335 H 0.26265 0.93462 0.48612 0.0
C336 C 0.27913 0.03961 0.51376 0.0
C337 C 0.29734 0.05122 0.49528 0.0
C338 C 0.27874 0.01635 0.51299 0.0
C339 C 0.29647 0.00432 0.49331 0.0
C340 C 0.31427 0.01607 0.47329 0.0
C341 C 0.31476 0.03928 0.47453 0.0
C342 C 0.31762 0.94522 0.50619 0.0
C343 C 0.29809 0.93276 0.4999 0.0
C344 C 0.31702 0.9684 0.50411 0.0
C345 C 0.29692 0.97963 0.49519 0.0
C346 C 0.27736 0.96711 0.48882 0.0
C347 C 0.27794 0.94387 0.49131 0.0
H348 H 0.04844 0.2637 0.48206 0.0
H349 H 0.04698 0.33195 0.52939 0.0
H350 H 0.00778 0.26324 0.4797 0.0
H351 H 0.0065 0.33129 0.52879 0.0
H352 H 0.936 0.33171 0.47587 0.0
H353 H 0.97649 0.33093 0.47539 0.0
H354 H 0.97537 0.26357 0.52828 0.0
H355 H 0.93471 0.26413 0.527 0.0
C356 C 0.0394 0.27853 0.49228 0.0
C357 C 0.0508 0.29789 0.50566 0.0
C358 C 0.01614 0.27824 0.49119 0.0
C359 C 0.00388 0.29727 0.50383 0.0
C360 C 0.0154 0.3165 0.51789 0.0
C361 C 0.0386 0.31684 0.51853 0.0
C362 C 0.94442 0.31672 0.48727 0.0
C363 C 0.93227 0.29801 0.50163 0.0
C364 C 0.96762 0.31631 0.48728 0.0
C365 C 0.97919 0.29725 0.50219 0.0
C366 C 0.96698 0.27842 0.51611 0.0
C367 C 0.94372 0.27877 0.51564 0.0
H368 H 0.21066 0.2884 0.02776 0.0
H369 H 0.25758 0.33821 0.98184 0.0
H370 H 0.23981 0.26027 0.02521 0.0
H371 H 0.28668 0.30987 0.97752 0.0
H372 H 0.33817 0.25785 0.02343 0.0
H373 H 0.30959 0.28671 0.02486 0.0
H374 H 0.26155 0.23954 0.97175 0.0
H375 H 0.28994 0.21056 0.97207 0.0
C376 C 0.22721 0.29329 0.01683 0.0
C377 C 0.23189 0.31546 0.00502 0.0
C378 C 0.24389 0.27713 0.01502 0.0
C379 C 0.26558 0.28276 0.00086 0.0
C380 C 0.27024 0.30501 0.98912 0.0
C381 C 0.25356 0.32123 0.99137 0.0
C382 C 0.32151 0.25372 0.0119 0.0
C383 C 0.31622 0.23197 0.99786 0.0
C384 C 0.30515 0.27027 0.01248 0.0
C385 C 0.28322 0.26543 0.99865 0.0
C386 C 0.27814 0.24375 0.98354 0.0
C387 C 0.29444 0.22717 0.98339 0.0
H388 H 0.72545 0.33831 0.97816 0.0
H389 H 0.77293 0.28859 0.02217 0.0
H390 H 0.69634 0.30997 0.97542 0.0
H391 H 0.74379 0.26048 0.02148 0.0
H392 H 0.69325 0.21051 0.97223 0.0
H393 H 0.7216 0.23943 0.97049 0.0
H394 H 0.67377 0.28701 0.02306 0.0
H395 H 0.64515 0.25817 0.02273 0.0
C396 C 0.72959 0.32134 0.98758 0.0
C397 C 0.75142 0.3156 1.00022 0.0
C398 C 0.71291 0.30512 0.98629 0.0
C399 C 0.7177 0.28289 0.99811 0.0
C400 C 0.73957 0.2773 0.01121 0.0
C401 C 0.75626 0.29344 0.01194 0.0
C402 C 0.6888 0.22718 0.98323 0.0
C403 C 0.66706 0.23211 0.99774 0.0
C404 C 0.70508 0.24374 0.98255 0.0
C405 C 0.70005 0.26555 0.99701 0.0
C406 C 0.67817 0.27049 0.01112 0.0
C407 C 0.6618 0.25395 0.01122 0.0
H408 H 0.72532 0.64493 0.98191 0.0
H409 H 0.77186 0.69319 0.03598 0.0
H410 H 0.69631 0.67341 0.98002 0.0
H411 H 0.74277 0.72139 0.03603 0.0
H412 H 0.69386 0.77265 0.98382 0.0
H413 H 0.72212 0.74362 0.98415 0.0
H414 H 0.67264 0.6956 0.02738 0.0
H415 H 0.64417 0.72462 0.02505 0.0
C416 C 0.72926 0.66159 0.99381 0.0
C417 C 0.75083 0.66692 0.00886 0.0
C418 C 0.71262 0.67788 0.993 0.0
C419 C 0.7172 0.69975 0.00769 0.0
C420 C 0.73875 0.70487 0.02353 0.0
C421 C 0.75541 0.68867 0.02381 0.0
C422 C 0.68904 0.75588 0.9933 0.0
C423 C 0.66686 0.75087 0.00448 0.0
C424 C 0.70526 0.73924 0.99381 0.0
C425 C 0.69972 0.71727 0.00613 0.0
C426 C 0.67745 0.71227 0.01715 0.0
C427 C 0.66115 0.7289 0.0161 0.0
H428 H 0.21061 0.69297 0.97917 0.0
H429 H 0.25771 0.64508 0.03265 0.0
H430 H 0.23955 0.72129 0.97802 0.0
H431 H 0.28659 0.67369 0.0334 0.0
H432 H 0.33814 0.72495 0.98572 0.0
H433 H 0.30981 0.6958 0.98484 0.0
H434 H 0.26044 0.74377 0.02912 0.0
H435 H 0.28855 0.77292 0.02806 0.0
C436 C 0.22715 0.68856 0.99098 0.0
C437 C 0.23193 0.66687 0.00607 0.0
C438 C 0.24372 0.70483 0.99064 0.0
C439 C 0.26539 0.69984 0.00596 0.0
C440 C 0.27017 0.67804 0.02082 0.0
C441 C 0.25362 0.66168 0.02066 0.0
C442 C 0.32121 0.72919 0.99522 0.0
C443 C 0.31549 0.75118 0.00672 0.0
C444 C 0.305 0.71249 0.995 0.0
C445 C 0.2828 0.71743 0.00673 0.0
C446 C 0.27725 0.73943 0.01894 0.0
C447 C 0.29338 0.75613 0.01864 0.0
H448 H 0.79025 0.71071 0.47037 0.0
H449 H 0.83743 0.75754 0.52741 0.0
H450 H 0.76194 0.7397 0.4683 0.0
H451 H 0.80883 0.78643 0.52729 0.0
H452 H 0.75792 0.8384 0.48146 0.0
H453 H 0.78705 0.81005 0.47909 0.0
H454 H 0.73894 0.76007 0.51922 0.0
H455 H 0.7098 0.78821 0.51961 0.0
C456 C 0.79451 0.72721 0.48272 0.0
C457 C 0.81598 0.73189 0.49918 0.0
C458 C 0.77825 0.74381 0.48183 0.0
C459 C 0.78302 0.76539 0.49799 0.0
C460 C 0.80464 0.77009 0.51403 0.0
C461 C 0.821 0.75352 0.51438 0.0
C462 C 0.75364 0.82132 0.48966 0.0
C463 C 0.73163 0.81546 0.50056 0.0
C464 C 0.77033 0.8051 0.48857 0.0
C465 C 0.76536 0.78273 0.49885 0.0
C466 C 0.74331 0.77701 0.51018 0.0
C467 C 0.72662 0.79317 0.51073 0.0
H468 H 0.27236 0.79013 0.53685 0.0
H469 H 0.22459 0.83822 0.48686 0.0
H470 H 0.24345 0.76178 0.53899 0.0
H471 H 0.19574 0.80961 0.48695 0.0
H472 H 0.14461 0.75798 0.53326 0.0
H473 H 0.17295 0.7871 0.53511 0.0
H474 H 0.2222 0.73955 0.48838 0.0
H475 H 0.1941 0.7104 0.48857 0.0
C476 C 0.25566 0.79458 0.52603 0.0
C477 C 0.2507 0.81632 0.51157 0.0
C478 C 0.23911 0.7783 0.52695 0.0
C479 C 0.21726 0.78333 0.51277 0.0
C480 C 0.21229 0.8052 0.49867 0.0
C481 C 0.22883 0.82157 0.49833 0.0
C482 C 0.16152 0.75382 0.52348 0.0
C483 C 0.16721 0.73196 0.51095 0.0
C484 C 0.17774 0.77051 0.52426 0.0
C485 C 0.19991 0.76569 0.51203 0.0
C486 C 0.20543 0.7438 0.49897 0.0
C487 C 0.1893 0.7271 0.49874 0.0
H488 H 0.22575 0.14421 0.49316 0.0
H489 H 0.27181 0.192 0.55073 0.0
H490 H 0.19665 0.17256 0.49196 0.0
H491 H 0.24257 0.22013 0.55119 0.0
H492 H 0.19462 0.27135 0.49251 0.0
H493 H 0.22281 0.24231 0.49672 0.0
H494 H 0.17254 0.19492 0.53884 0.0
H495 H 0.14417 0.22393 0.53296 0.0
C496 C 0.22954 0.1607 0.50615 0.0
C497 C 0.25105 0.16597 0.52175 0.0
C498 C 0.21285 0.17692 0.50569 0.0
C499 C 0.21731 0.19868 0.52118 0.0
C500 C 0.23869 0.20368 0.5381 0.0
C501 C 0.25541 0.18753 0.53815 0.0
C502 C 0.1896 0.25472 0.50261 0.0
C503 C 0.16722 0.24987 0.51235 0.0
C504 C 0.20578 0.2381 0.50539 0.0
C505 C 0.19998 0.21629 0.51842 0.0
C506 C 0.17754 0.21147 0.52818 0.0
C507 C 0.1613 0.22809 0.52501 0.0
H508 H 0.83782 0.22479 0.47946 0.0
H509 H 0.78952 0.27166 0.53232 0.0
H510 H 0.80926 0.19588 0.47733 0.0
H511 H 0.76123 0.24268 0.53208 0.0
H512 H 0.71001 0.19375 0.48008 0.0
H513 H 0.73914 0.2219 0.47997 0.0
H514 H 0.78689 0.17249 0.52499 0.0
H515 H 0.75779 0.14412 0.52318 0.0
C516 C 0.82113 0.22883 0.49102 0.0
C517 C 0.81582 0.25045 0.50585 0.0
C518 C 0.8048 0.21225 0.49007 0.0
C519 C 0.78289 0.21696 0.50436 0.0
C520 C 0.77778 0.23857 0.5199 0.0
C521 C 0.79403 0.25516 0.52036 0.0
C522 C 0.72675 0.18891 0.48983 0.0
C523 C 0.73166 0.16679 0.50173 0.0
C524 C 0.74343 0.20507 0.49008 0.0
C525 C 0.76535 0.19952 0.50283 0.0
C526 C 0.77026 0.1773 0.51445 0.0
C527 C 0.75359 0.16106 0.51368 0.0
H528 H 0.11815 0.29333 0.34152 0.0
H529 H 0.1423 0.35664 0.39177 0.0
H530 H 0.12562 0.30486 0.26256 0.0
H531 H 0.14932 0.36849 0.31223 0.0
H532 H 0.18641 0.36765 0.17242 0.0
H533 H 0.17526 0.35957 0.25134 0.0
H534 H 0.11443 0.32965 0.20116 0.0
H535 H 0.12594 0.33733 0.12166 0.0
C536 C 0.12486 0.30984 0.33564 0.0
C537 C 0.12978 0.32404 0.37291 0.0
C538 C 0.12896 0.31653 0.29026 0.0
C539 C 0.13807 0.33761 0.28093 0.0
C540 C 0.14255 0.35202 0.31822 0.0
C541 C 0.13846 0.34529 0.36376 0.0
C542 C 0.17058 0.35946 0.17817 0.0
C543 C 0.15711 0.35298 0.14078 0.0
C544 C 0.1641 0.35499 0.22354 0.0
C545 C 0.14396 0.34393 0.23271 0.0
C546 C 0.13019 0.33794 0.19529 0.0
C547 C 0.13671 0.34242 0.14977 0.0
H548 H 0.68759 0.11436 0.33826 0.0
H549 H 0.62672 0.14454 0.3874 0.0
H550 H 0.67683 0.12237 0.25895 0.0
H551 H 0.61565 0.15217 0.30767 0.0
H552 H 0.62001 0.18884 0.16836 0.0
H553 H 0.62755 0.17722 0.24717 0.0
H554 H 0.65092 0.11351 0.19722 0.0
H555 H 0.64374 0.12544 0.11768 0.0
C556 C 0.67177 0.1225 0.33207 0.0
C557 C 0.65807 0.12899 0.3691 0.0
C558 C 0.66552 0.12693 0.28652 0.0
C559 C 0.64541 0.13797 0.27688 0.0
C560 C 0.6314 0.14391 0.31393 0.0
C561 C 0.63767 0.13946 0.35959 0.0
C562 C 0.62667 0.1723 0.1741 0.0
C563 C 0.63139 0.15808 0.13677 0.0
C564 C 0.63082 0.16556 0.21941 0.0
C565 C 0.63977 0.1444 0.22862 0.0
C566 C 0.64421 0.13001 0.19127 0.0
C567 C 0.64004 0.13678 0.14576 0.0
H568 H 0.8706 0.68467 0.34039 0.0
H569 H 0.83958 0.62472 0.39189 0.0
H570 H 0.86283 0.67313 0.26159 0.0
H571 H 0.83229 0.61275 0.31251 0.0
H572 H 0.79588 0.61642 0.17235 0.0
H573 H 0.80776 0.62364 0.25113 0.0
H574 H 0.87122 0.64733 0.20068 0.0
H575 H 0.85897 0.64062 0.12125 0.0
C576 C 0.86237 0.66883 0.33483 0.0
C577 C 0.85553 0.65567 0.37239 0.0
C578 C 0.85808 0.66212 0.28952 0.0
C579 C 0.84688 0.64203 0.28056 0.0
C580 C 0.84067 0.62849 0.31818 0.0
C581 C 0.84493 0.63526 0.36364 0.0
C582 C 0.81244 0.62304 0.17801 0.0
C583 C 0.82644 0.62811 0.14055 0.0
C584 C 0.81933 0.62701 0.22331 0.0
C585 C 0.84046 0.63608 0.2324 0.0
C586 C 0.85472 0.6406 0.19491 0.0
C587 C 0.84777 0.63668 0.14942 0.0
H588 H 0.35702 0.83924 0.39068 0.0
H589 H 0.2936 0.86311 0.34046 0.0
H590 H 0.36876 0.83189 0.31108 0.0
H591 H 0.30504 0.85542 0.26158 0.0
H592 H 0.33763 0.85608 0.1211 0.0
H593 H 0.33007 0.8672 0.20085 0.0
H594 H 0.35965 0.80591 0.24952 0.0
H595 H 0.36759 0.79509 0.1702 0.0
C596 C 0.34563 0.84293 0.36269 0.0
C597 C 0.32438 0.85167 0.37183 0.0
C598 C 0.35229 0.83867 0.31714 0.0
C599 C 0.33784 0.8431 0.2799 0.0
C600 C 0.31674 0.85214 0.28925 0.0
C601 C 0.31011 0.85638 0.3346 0.0
C602 C 0.34267 0.84511 0.1489 0.0
C603 C 0.35307 0.82467 0.13938 0.0
C604 C 0.33826 0.85141 0.19457 0.0
C605 C 0.34417 0.83739 0.23162 0.0
C606 C 0.35511 0.81723 0.22196 0.0
C607 C 0.35951 0.81095 0.1764 0.0
H608 H 0.11627 0.68646 0.67537 0.0
H609 H 0.14348 0.62467 0.62371 0.0
H610 H 0.12372 0.67466 0.75408 0.0
H611 H 0.15049 0.61248 0.70308 0.0
H612 H 0.18696 0.61428 0.84382 0.0
H613 H 0.17565 0.62198 0.76483 0.0
H614 H 0.11346 0.64922 0.81457 0.0
H615 H 0.12514 0.64199 0.89413 0.0
C616 C 0.12364 0.6702 0.68088 0.0
C617 C 0.12944 0.65655 0.64329 0.0
C618 C 0.12773 0.66334 0.72614 0.0
C619 C 0.1377 0.64261 0.73505 0.0
C620 C 0.14303 0.62868 0.69743 0.0
C621 C 0.13895 0.63559 0.65198 0.0
C622 C 0.17079 0.62177 0.83795 0.0
C623 C 0.157 0.62769 0.87524 0.0
C624 C 0.16422 0.62602 0.79254 0.0
C625 C 0.14366 0.63627 0.78322 0.0
C626 C 0.12955 0.64159 0.82054 0.0
C627 C 0.13617 0.63737 0.8661 0.0
H628 H 0.30057 0.1103 0.6741 0.0
H629 H 0.35985 0.14259 0.62278 0.0
H630 H 0.31205 0.1179 0.7529 0.0
H631 H 0.37196 0.14948 0.70215 0.0
H632 H 0.36909 0.18519 0.84239 0.0
H633 H 0.36206 0.17323 0.76373 0.0
H634 H 0.33674 0.11042 0.81452 0.0
H635 H 0.34303 0.12294 0.89389 0.0
C636 C 0.31629 0.11872 0.67971 0.0
C637 C 0.32922 0.12604 0.64218 0.0
C638 C 0.323 0.12292 0.72507 0.0
C639 C 0.34292 0.1344 0.73417 0.0
C640 C 0.3563 0.14095 0.69652 0.0
C641 C 0.34947 0.1369 0.651 0.0
C642 C 0.36215 0.16875 0.83684 0.0
C643 C 0.35645 0.15507 0.8744 0.0
C644 C 0.35829 0.16179 0.79154 0.0
C645 C 0.3488 0.14083 0.78247 0.0
C646 C 0.34374 0.12682 0.82013 0.0
C647 C 0.34744 0.13391 0.86564 0.0
H648 H 0.79809 0.36868 0.83813 0.0
H649 H 0.85833 0.33831 0.89 0.0
H650 H 0.80975 0.36096 0.75943 0.0
H651 H 0.87041 0.33103 0.81065 0.0
H652 H 0.86717 0.29488 0.66974 0.0
H653 H 0.85986 0.30648 0.74872 0.0
H654 H 0.83565 0.36993 0.69906 0.0
H655 H 0.84246 0.35796 0.61951 0.0
C656 C 0.814 0.36058 0.83267 0.0
C657 C 0.82723 0.35395 0.87031 0.0
C658 C 0.82078 0.35632 0.78742 0.0
C659 C 0.84102 0.34535 0.77856 0.0
C660 C 0.85458 0.33926 0.81624 0.0
C661 C 0.84774 0.3435 0.86168 0.0
C662 C 0.86042 0.31138 0.67563 0.0
C663 C 0.85522 0.32546 0.63836 0.0
C664 C 0.8564 0.31811 0.72104 0.0
C665 C 0.84713 0.33913 0.73038 0.0
C666 C 0.84252 0.35349 0.69308 0.0
C667 C 0.8465 0.3467 0.64752 0.0
H668 H 0.6455 0.85558 0.88875 0.0
H669 H 0.61609 0.7945 0.83876 0.0
H670 H 0.6533 0.86682 0.80915 0.0
H671 H 0.62424 0.80544 0.75968 0.0
H672 H 0.62612 0.83898 0.61926 0.0
H673 H 0.61469 0.83153 0.6989 0.0
H674 H 0.67834 0.85549 0.74775 0.0
H675 H 0.68949 0.86332 0.66866 0.0
C676 C 0.64065 0.84461 0.86079 0.0
C677 C 0.63028 0.82413 0.87001 0.0
C678 C 0.6452 0.85098 0.81522 0.0
C679 C 0.63944 0.837 0.778 0.0
C680 C 0.62864 0.81674 0.78738 0.0
C681 C 0.62412 0.81039 0.83281 0.0
C682 C 0.63757 0.84276 0.6471 0.0
C683 C 0.65872 0.85165 0.6377 0.0
C684 C 0.63108 0.83842 0.69268 0.0
C685 C 0.64561 0.8429 0.72975 0.0
C686 C 0.6666 0.85215 0.72019 0.0
C687 C 0.67307 0.85647 0.67475 0.0
H688 H 0.86194 0.69043 0.67035 0.0
H689 H 0.83898 0.62635 0.62194 0.0
H690 H 0.85431 0.67943 0.7496 0.0
H691 H 0.8317 0.6151 0.7018 0.0
H692 H 0.79471 0.61636 0.84182 0.0
H693 H 0.80543 0.62442 0.76259 0.0
H694 H 0.86628 0.65481 0.81135 0.0
H695 H 0.85526 0.64707 0.89115 0.0
C696 C 0.85541 0.67389 0.67669 0.0
C697 C 0.85094 0.65929 0.63986 0.0
C698 C 0.85121 0.66752 0.72223 0.0
C699 C 0.84243 0.64637 0.73214 0.0
C700 C 0.83825 0.63161 0.6953 0.0
C701 C 0.84248 0.638 0.6496 0.0
C702 C 0.81044 0.62467 0.83569 0.0
C703 C 0.82409 0.63121 0.87277 0.0
C704 C 0.81667 0.62913 0.79017 0.0
C705 C 0.8367 0.64027 0.78053 0.0
C706 C 0.8506 0.64643 0.81762 0.0
C707 C 0.84436 0.64193 0.8633 0.0
H708 H 0.35658 0.84052 0.62087 0.0
H709 H 0.29559 0.87013 0.67089 0.0
H710 H 0.36806 0.83314 0.70045 0.0
H711 H 0.30672 0.8623 0.75002 0.0
H712 H 0.33938 0.85882 0.89117 0.0
H713 H 0.33233 0.87107 0.81181 0.0
H714 H 0.35687 0.80799 0.76081 0.0
H715 H 0.36434 0.79609 0.83945 0.0
C716 C 0.34569 0.84554 0.64885 0.0
C717 C 0.32514 0.85576 0.63962 0.0
C718 C 0.3522 0.84122 0.69442 0.0
C719 C 0.33825 0.84701 0.73169 0.0
C720 C 0.318 0.85785 0.72232 0.0
C721 C 0.31154 0.86219 0.67685 0.0
C722 C 0.34339 0.8477 0.86289 0.0
C723 C 0.35232 0.82648 0.87155 0.0
C724 C 0.33929 0.85465 0.81747 0.0
C725 C 0.34404 0.84051 0.77986 0.0
C726 C 0.35335 0.81947 0.78875 0.0
C727 C 0.35745 0.81256 0.83397 0.0
H728 H 0.14523 0.35567 0.62168 0.0
H729 H 0.11536 0.29493 0.67218 0.0
H730 H 0.15259 0.3673 0.70126 0.0
H731 H 0.1231 0.30622 0.75118 0.0
H732 H 0.1253 0.33949 0.89152 0.0
H733 H 0.11371 0.33227 0.81183 0.0
H734 H 0.17736 0.35619 0.7629 0.0
H735 H 0.18863 0.36381 0.84195 0.0
C736 C 0.14018 0.34486 0.64974 0.0
C737 C 0.12984 0.32435 0.64068 0.0
C738 C 0.14447 0.35145 0.69531 0.0
C739 C 0.13849 0.33766 0.73266 0.0
C740 C 0.12766 0.3174 0.7234 0.0
C741 C 0.12339 0.31084 0.678 0.0
C742 C 0.1367 0.34332 0.86364 0.0
C743 C 0.15789 0.35211 0.873 0.0
C744 C 0.13012 0.33913 0.81803 0.0
C745 C 0.14462 0.34364 0.78092 0.0
C746 C 0.16563 0.35284 0.79046 0.0
C747 C 0.17217 0.35703 0.8359 0.0
H748 H 0.64299 0.12635 0.88771 0.0
H749 H 0.61339 0.18737 0.83786 0.0
H750 H 0.65029 0.11486 0.8081 0.0
H751 H 0.62113 0.17622 0.75868 0.0
H752 H 0.62427 0.1433 0.61759 0.0
H753 H 0.61219 0.1505 0.69702 0.0
H754 H 0.67539 0.12609 0.74757 0.0
H755 H 0.68712 0.11848 0.66888 0.0
C756 C 0.63796 0.13724 0.85976 0.0
C757 C 0.62776 0.15781 0.86904 0.0
C758 C 0.64223 0.13073 0.81417 0.0
C759 C 0.63641 0.14468 0.77694 0.0
C760 C 0.6256 0.16494 0.78636 0.0
C761 C 0.62132 0.17141 0.83185 0.0
C762 C 0.63546 0.13935 0.64578 0.0
C763 C 0.65665 0.13041 0.63699 0.0
C764 C 0.6286 0.14354 0.69125 0.0
C765 C 0.64282 0.13886 0.72874 0.0
C766 C 0.66385 0.12956 0.71972 0.0
C767 C 0.67066 0.12537 0.67447 0.0
H768 H 0.8655 0.29451 0.3392 0.0
H769 H 0.83617 0.35555 0.38981 0.0
H770 H 0.85754 0.30572 0.26025 0.0
H771 H 0.82853 0.36706 0.31023 0.0
H772 H 0.79294 0.36393 0.16857 0.0
H773 H 0.80374 0.35607 0.2479 0.0
H774 H 0.86758 0.33199 0.20026 0.0
H775 H 0.85651 0.33946 0.12042 0.0
C776 C 0.8575 0.31045 0.33342 0.0
C777 C 0.85134 0.32411 0.37076 0.0
C778 C 0.85311 0.31696 0.28805 0.0
C779 C 0.84243 0.3373 0.27882 0.0
C780 C 0.83658 0.35117 0.31618 0.0
C781 C 0.84102 0.34464 0.36173 0.0
C782 C 0.80934 0.35705 0.17499 0.0
C783 C 0.82384 0.35217 0.13821 0.0
C784 C 0.8156 0.35272 0.22057 0.0
C785 C 0.83652 0.34339 0.23052 0.0
C786 C 0.85122 0.33893 0.19374 0.0
C787 C 0.84494 0.34328 0.14803 0.0
H788 H 0.61654 0.79536 0.16943 0.0
H789 H 0.64131 0.85833 0.11889 0.0
H790 H 0.62382 0.80703 0.24833 0.0
H791 H 0.64813 0.87037 0.19844 0.0
H792 H 0.6854 0.869 0.33821 0.0
H793 H 0.67391 0.86138 0.25932 0.0
H794 H 0.61299 0.83177 0.30976 0.0
H795 H 0.62487 0.83894 0.38925 0.0
C796 C 0.62332 0.81184 0.17523 0.0
C797 C 0.62852 0.82588 0.1379 0.0
C798 C 0.62732 0.81862 0.2206 0.0
C799 C 0.63656 0.83965 0.22986 0.0
C800 C 0.64125 0.85394 0.1925 0.0
C801 C 0.63728 0.84711 0.14696 0.0
C802 C 0.66947 0.86099 0.33253 0.0
C803 C 0.65611 0.85439 0.36998 0.0
C804 C 0.66279 0.85679 0.28717 0.0
C805 C 0.64254 0.84592 0.27807 0.0
C806 C 0.62884 0.83991 0.31556 0.0
C807 C 0.63557 0.84409 0.36108 0.0
H808 H 0.1172 0.68924 0.34464 0.0
H809 H 0.14413 0.62682 0.39352 0.0
H810 H 0.12511 0.67835 0.26537 0.0
H811 H 0.15165 0.61564 0.31377 0.0
H812 H 0.18859 0.61838 0.1743 0.0
H813 H 0.17734 0.6263 0.25325 0.0
H814 H 0.11491 0.65298 0.20357 0.0
H815 H 0.12646 0.6454 0.12399 0.0
C816 C 0.12462 0.67307 0.3384 0.0
C817 C 0.13019 0.65894 0.37536 0.0
C818 C 0.12899 0.66675 0.29286 0.0
C819 C 0.13904 0.64613 0.28313 0.0
C820 C 0.14416 0.63177 0.32011 0.0
C821 C 0.13977 0.63811 0.36577 0.0
C822 C 0.1724 0.62586 0.18015 0.0
C823 C 0.15845 0.63139 0.14288 0.0
C824 C 0.16587 0.63023 0.22552 0.0
C825 C 0.1452 0.64024 0.23484 0.0
C826 C 0.13105 0.64546 0.19755 0.0
C827 C 0.13761 0.64105 0.152 0.0
H828 H 0.35627 0.12359 0.38134 0.0
H829 H 0.29087 0.15166 0.35942 0.0
H830 H 0.36573 0.13132 0.30015 0.0
H831 H 0.30048 0.15974 0.27929 0.0
H832 H 0.33902 0.19563 0.16181 0.0
H833 H 0.33114 0.18637 0.24216 0.0
H834 H 0.34853 0.11777 0.21587 0.0
H835 H 0.35607 0.12696 0.13447 0.0
C836 C 0.34405 0.13157 0.35933 0.0
C837 C 0.32288 0.1371 0.37661 0.0
C838 C 0.34937 0.13579 0.31296 0.0
C839 C 0.33378 0.14606 0.28366 0.0
C840 C 0.31279 0.15185 0.30124 0.0
C841 C 0.30732 0.14723 0.34706 0.0
C842 C 0.34113 0.17854 0.17303 0.0
C843 C 0.34806 0.16198 0.14186 0.0
C844 C 0.33662 0.17328 0.21899 0.0
C845 C 0.33931 0.15141 0.23508 0.0
C846 C 0.34649 0.1348 0.20421 0.0
C847 C 0.35061 0.14 0.15774 0.0
loop_
_geom_bond_atom_site_label_1
_geom_bond_atom_site_label_2
_geom_bond_distance
_geom_bond_site_symmetry_2
_ccdc_geom_bond_type
In0 O1 2.294 . S
In0 O2 2.326 . S
In0 O6 2.266 1_554 S
In0 O7 2.326 1_554 S
In0 O8 2.266 1_554 S
In0 O9 2.327 . S
In0 O11 2.294 . S
In0 O12 2.326 . S
O1 In0 2.294 . S
O1 C10 1.240 . S
O2 In0 2.326 . S
O2 C10 1.252 . S
C3 O6 1.252 . S
C3 O7 1.260 . S
C4 O11 1.240 . S
C4 O12 1.252 . S
C5 O8 1.252 . S
C5 O9 1.258 1_556 S
O6 In0 2.266 1_556 S
O6 C3 1.252 . S
O7 In0 2.326 1_556 S
O7 C3 1.260 . S
O8 In0 2.266 1_556 S
O8 C5 1.252 . S
O9 In0 2.327 . S
O9 C5 1.258 1_554 S
C10 O1 1.240 . S
C10 O2 1.252 . S
O11 In0 2.294 . S
O11 C4 1.240 . S
O12 In0 2.326 . S
O12 C4 1.252 . S
In13 O14 2.294 . S
In13 O15 2.326 . S
In13 O19 2.266 1_554 S
In13 O20 2.326 1_554 S
In13 O21 2.266 1_554 S
In13 O22 2.327 . S
In13 O24 2.294 . S
In13 O25 2.326 . S
O14 In13 2.294 . S
O14 C23 1.240 . S
O15 In13 2.326 . S
O15 C23 1.252 . S
C16 O19 1.252 . S
C16 O20 1.260 . S
C17 O24 1.240 . S
C17 O25 1.252 . S
C18 O21 1.252 . S
C18 O22 1.258 1_556 S
O19 In13 2.266 1_556 S
O19 C16 1.252 . S
O20 In13 2.326 1_556 S
O20 C16 1.260 . S
O21 In13 2.266 1_556 S
O21 C18 1.252 . S
O22 In13 2.327 . S
O22 C18 1.258 1_554 S
C23 O14 1.240 . S
C23 O15 1.252 . S
O24 In13 2.294 . S
O24 C17 1.240 . S
O25 In13 2.326 . S
O25 C17 1.252 . S
In26 O27 2.294 . S
In26 O28 2.326 . S
In26 O32 2.266 1_554 S
In26 O33 2.327 . S
In26 O34 2.266 1_554 S
In26 O35 2.326 1_554 S
In26 O37 2.294 . S
In26 O38 2.326 . S
O27 In26 2.294 . S
O27 C36 1.240 . S
O28 In26 2.326 . S
O28 C36 1.252 . S
C29 O32 1.252 . S
C29 O33 1.258 1_556 S
C30 O37 1.240 . S
C30 O38 1.252 . S
C31 O34 1.252 . S
C31 O35 1.260 . S
O32 In26 2.266 1_556 S
O32 C29 1.252 . S
O33 In26 2.327 . S
O33 C29 1.258 1_554 S
O34 In26 2.266 1_556 S
O34 C31 1.252 . S
O35 In26 2.326 1_556 S
O35 C31 1.260 . S
C36 O27 1.240 . S
C36 O28 1.252 . S
O37 In26 2.294 . S
O37 C30 1.240 . S
O38 In26 2.326 . S
O38 C30 1.252 . S
In39 O40 2.294 . S
In39 O41 2.326 . S
In39 O45 2.266 1_554 S
In39 O46 2.326 1_554 S
In39 O47 2.266 1_554 S
In39 O48 2.327 . S
In39 O50 2.294 . S
In39 O51 2.326 . S
O40 In39 2.294 . S
O40 C49 1.240 . S
O41 In39 2.326 . S
O41 C49 1.252 . S
C42 O45 1.252 . S
C42 O46 1.260 . S
C43 O50 1.240 . S
C43 O51 1.252 . S
C44 O47 1.252 . S
C44 O48 1.258 1_556 S
O45 In39 2.266 1_556 S
O45 C42 1.252 . S
O46 In39 2.326 1_556 S
O46 C42 1.260 . S
O47 In39 2.266 1_556 S
O47 C44 1.252 . S
O48 In39 2.327 . S
O48 C44 1.258 1_554 S
C49 O40 1.240 . S
C49 O41 1.252 . S
O50 In39 2.294 . S
O50 C43 1.240 . S
O51 In39 2.326 . S
O51 C43 1.252 . S
In52 O53 2.294 1_554 S
In52 O54 2.326 1_554 S
In52 O58 2.266 . S
In52 O59 2.326 . S
In52 O60 2.266 . S
In52 O61 2.326 . S
In52 O63 2.294 1_554 S
In52 O64 2.326 1_554 S
O53 In52 2.294 1_556 S
O53 C62 1.240 . S
O54 In52 2.326 1_556 S
O54 C62 1.252 . S
C55 O58 1.252 . S
C55 O59 1.260 . S
C56 O63 1.240 . S
C56 O64 1.252 . S
C57 O60 1.252 . S
C57 O61 1.260 . S
O58 In52 2.266 . S
O58 C55 1.252 . S
O59 In52 2.326 . S
O59 C55 1.260 . S
O60 In52 2.266 . S
O60 C57 1.252 . S
O61 In52 2.326 . S
O61 C57 1.260 . S
C62 O53 1.240 . S
C62 O54 1.252 . S
O63 In52 2.294 1_556 S
O63 C56 1.240 . S
O64 In52 2.326 1_556 S
O64 C56 1.252 . S
In65 O66 2.294 1_554 S
In65 O67 2.326 1_554 S
In65 O71 2.266 . S
In65 O72 2.326 . S
In65 O73 2.266 . S
In65 O74 2.326 . S
In65 O76 2.294 1_554 S
In65 O77 2.326 1_554 S
O66 In65 2.294 1_556 S
O66 C75 1.240 . S
O67 In65 2.326 1_556 S
O67 C75 1.252 . S
C68 O71 1.252 . S
C68 O72 1.260 . S
C69 O76 1.240 . S
C69 O77 1.252 . S
C70 O73 1.252 . S
C70 O74 1.260 . S
O71 In65 2.266 . S
O71 C68 1.252 . S
O72 In65 2.326 . S
O72 C68 1.260 . S
O73 In65 2.266 . S
O73 C70 1.252 . S
O74 In65 2.326 . S
O74 C70 1.260 . S
C75 O66 1.240 . S
C75 O67 1.252 . S
O76 In65 2.294 1_556 S
O76 C69 1.240 . S
O77 In65 2.326 1_556 S
O77 C69 1.252 . S
In78 O79 2.294 1_554 S
In78 O80 2.326 1_554 S
In78 O84 2.266 . S
In78 O85 2.326 . S
In78 O86 2.266 . S
In78 O87 2.326 . S
In78 O89 2.294 1_554 S
In78 O90 2.326 1_554 S
O79 In78 2.294 1_556 S
O79 C88 1.240 . S
O80 In78 2.326 1_556 S
O80 C88 1.252 . S
C81 O84 1.252 . S
C81 O85 1.260 . S
C82 O89 1.240 . S
C82 O90 1.252 . S
C83 O86 1.252 . S
C83 O87 1.260 . S
O84 In78 2.266 . S
O84 C81 1.252 . S
O85 In78 2.326 . S
O85 C81 1.260 . S
O86 In78 2.266 . S
O86 C83 1.252 . S
O87 In78 2.326 . S
O87 C83 1.260 . S
C88 O79 1.240 . S
C88 O80 1.252 . S
O89 In78 2.294 1_556 S
O89 C82 1.240 . S
O90 In78 2.326 1_556 S
O90 C82 1.252 . S
In91 O92 2.294 1_554 S
In91 O93 2.326 1_554 S
In91 O97 2.266 . S
In91 O98 2.326 . S
In91 O99 2.266 . S
In91 O100 2.326 . S
In91 O102 2.294 1_554 S
In91 O103 2.326 1_554 S
O92 In91 2.294 1_556 S
O92 C101 1.240 . S
O93 In91 2.326 1_556 S
O93 C101 1.252 . S
C94 O97 1.252 . S
C94 O98 1.260 . S
C95 O102 1.240 . S
C95 O103 1.252 . S
C96 O99 1.252 . S
C96 O100 1.260 . S
O97 In91 2.266 . S
O97 C94 1.252 . S
O98 In91 2.326 . S
O98 C94 1.260 . S
O99 In91 2.266 . S
O99 C96 1.252 . S
O100 In91 2.326 . S
O100 C96 1.260 . S
C101 O92 1.240 . S
C101 O93 1.252 . S
O102 In91 2.294 1_556 S
O102 C95 1.240 . S
O103 In91 2.326 1_556 S
O103 C95 1.252 . S
In104 O105 2.294 . S
In104 O106 2.326 . S
In104 O110 2.266 . S
In104 O111 2.326 . S
In104 O112 2.266 . S
In104 O113 2.326 . S
In104 O115 2.294 . S
In104 O116 2.326 . S
O105 In104 2.294 . S
O105 C114 1.240 . S
O106 In104 2.326 . S
O106 C114 1.252 . S
C107 O110 1.252 . S
C107 O111 1.260 . S
C108 O115 1.240 . S
C108 O116 1.252 . S
C109 O112 1.252 . S
C109 O113 1.260 . S
O110 In104 2.266 . S
O110 C107 1.252 . S
O111 In104 2.326 . S
O111 C107 1.260 . S
O112 In104 2.266 . S
O112 C109 1.252 . S
O113 In104 2.326 . S
O113 C109 1.260 . S
C114 O105 1.240 . S
C114 O106 1.252 . S
O115 In104 2.294 . S
O115 C108 1.240 . S
O116 In104 2.326 . S
O116 C108 1.252 . S
In117 O118 2.294 . S
In117 O119 2.326 . S
In117 O123 2.266 . S
In117 O124 2.326 . S
In117 O125 2.266 . S
In117 O126 2.326 . S
In117 O128 2.294 . S
In117 O129 2.326 . S
O118 In117 2.294 . S
O118 C127 1.240 . S
O119 In117 2.326 . S
O119 C127 1.252 . S
C120 O123 1.252 . S
C120 O124 1.260 . S
C121 O128 1.240 . S
C121 O129 1.252 . S
C122 O125 1.252 . S
C122 O126 1.260 . S
O123 In117 2.266 . S
O123 C120 1.252 . S
O124 In117 2.326 . S
O124 C120 1.260 . S
O125 In117 2.266 . S
O125 C122 1.252 . S
O126 In117 2.326 . S
O126 C122 1.260 . S
C127 O118 1.240 . S
C127 O119 1.252 . S
O128 In117 2.294 . S
O128 C121 1.240 . S
O129 In117 2.326 . S
O129 C121 1.252 . S
In130 O131 2.294 . S
In130 O132 2.326 . S
In130 O136 2.266 . S
In130 O137 2.326 . S
In130 O138 2.266 . S
In130 O139 2.326 . S
In130 O141 2.294 . S
In130 O142 2.326 . S
O131 In130 2.294 . S
O131 C140 1.240 . S
O132 In130 2.326 . S
O132 C140 1.252 . S
C133 O136 1.252 . S
C133 O137 1.260 . S
C134 O141 1.240 . S
C134 O142 1.252 . S
C135 O138 1.252 . S
C135 O139 1.260 . S
O136 In130 2.266 . S
O136 C133 1.252 . S
O137 In130 2.326 . S
O137 C133 1.260 . S
O138 In130 2.266 . S
O138 C135 1.252 . S
O139 In130 2.326 . S
O139 C135 1.260 . S
C140 O131 1.240 . S
C140 O132 1.252 . S
O141 In130 2.294 . S
O141 C134 1.240 . S
O142 In130 2.326 . S
O142 C134 1.252 . S
In143 O144 2.294 . S
In143 O145 2.326 . S
In143 O149 2.266 . S
In143 O150 2.326 . S
In143 O151 2.266 . S
In143 O152 2.326 . S
In143 O154 2.294 . S
In143 O155 2.326 . S
O144 In143 2.294 . S
O144 C153 1.240 . S
O145 In143 2.326 . S
O145 C153 1.252 . S
C146 O149 1.252 . S
C146 O150 1.260 . S
C147 O154 1.240 . S
C147 O155 1.252 . S
C148 O151 1.252 . S
C148 O152 1.260 . S
O149 In143 2.266 . S
O149 C146 1.252 . S
O150 In143 2.326 . S
O150 C146 1.260 . S
O151 In143 2.266 . S
O151 C148 1.252 . S
O152 In143 2.326 . S
O152 C148 1.260 . S
C153 O144 1.240 . S
C153 O145 1.252 . S
O154 In143 2.294 . S
O154 C147 1.240 . S
O155 In143 2.326 . S
O155 C147 1.252 . S
In156 O157 2.294 . S
In156 O158 2.326 . S
In156 O162 2.266 . S
In156 O163 2.326 . S
In156 O164 2.266 . S
In156 O165 2.326 . S
In156 O167 2.294 . S
In156 O168 2.326 . S
O157 In156 2.294 . S
O157 C166 1.240 . S
O158 In156 2.326 . S
O158 C166 1.252 . S
C159 O162 1.252 . S
C159 O163 1.260 . S
C160 O167 1.240 . S
C160 O168 1.252 . S
C161 O164 1.252 . S
C161 O165 1.260 . S
O162 In156 2.266 . S
O162 C159 1.252 . S
O163 In156 2.326 . S
O163 C159 1.260 . S
O164 In156 2.266 . S
O164 C161 1.252 . S
O165 In156 2.326 . S
O165 C161 1.260 . S
C166 O157 1.240 . S
C166 O158 1.252 . S
O167 In156 2.294 . S
O167 C160 1.240 . S
O168 In156 2.326 . S
O168 C160 1.252 . S
In169 O170 2.294 . S
In169 O171 2.326 . S
In169 O175 2.266 . S
In169 O176 2.326 . S
In169 O177 2.266 . S
In169 O178 2.326 . S
In169 O180 2.294 . S
In169 O181 2.326 . S
O170 In169 2.294 . S
O170 C179 1.240 . S
O171 In169 2.326 . S
O171 C179 1.252 . S
C172 O175 1.252 . S
C172 O176 1.260 . S
C173 O180 1.240 . S
C173 O181 1.252 . S
C174 O177 1.252 . S
C174 O178 1.260 . S
O175 In169 2.266 . S
O175 C172 1.252 . S
O176 In169 2.326 . S
O176 C172 1.260 . S
O177 In169 2.266 . S
O177 C174 1.252 . S
O178 In169 2.326 . S
O178 C174 1.260 . S
C179 O170 1.240 . S
C179 O171 1.252 . S
O180 In169 2.294 . S
O180 C173 1.240 . S
O181 In169 2.326 . S
O181 C173 1.252 . S
In182 O183 2.294 . S
In182 O184 2.326 . S
In182 O188 2.266 . S
In182 O189 2.326 . S
In182 O190 2.266 . S
In182 O191 2.326 . S
In182 O193 2.294 . S
In182 O194 2.326 . S
O183 In182 2.294 . S
O183 C192 1.240 . S
O184 In182 2.326 . S
O184 C192 1.252 . S
C185 O188 1.252 . S
C185 O189 1.260 . S
C186 O193 1.240 . S
C186 O194 1.252 . S
C187 O190 1.252 . S
C187 O191 1.260 . S
O188 In182 2.266 . S
O188 C185 1.252 . S
O189 In182 2.326 . S
O189 C185 1.260 . S
O190 In182 2.266 . S
O190 C187 1.252 . S
O191 In182 2.326 . S
O191 C187 1.260 . S
C192 O183 1.240 . S
C192 O184 1.252 . S
O193 In182 2.294 . S
O193 C186 1.240 . S
O194 In182 2.326 . S
O194 C186 1.252 . S
In195 O196 2.294 . S
In195 O197 2.326 . S
In195 O201 2.266 . S
In195 O202 2.326 . S
In195 O203 2.266 . S
In195 O204 2.326 . S
In195 O206 2.294 . S
In195 O207 2.326 . S
O196 In195 2.294 . S
O196 C205 1.240 . S
O197 In195 2.326 . S
O197 C205 1.252 . S
C198 O201 1.252 . S
C198 O202 1.260 . S
C199 O206 1.240 . S
C199 O207 1.252 . S
C200 O203 1.252 . S
C200 O204 1.260 . S
O201 In195 2.266 . S
O201 C198 1.252 . S
O202 In195 2.326 . S
O202 C198 1.260 . S
O203 In195 2.266 . S
O203 C200 1.252 . S
O204 In195 2.326 . S
O204 C200 1.260 . S
C205 O196 1.240 . S
C205 O197 1.252 . S
O206 In195 2.294 . S
O206 C199 1.240 . S
O207 In195 2.326 . S
O207 C199 1.252 . S
H208 C216 0.950 . S
H209 C221 0.950 . S
H210 C218 0.950 . S
H211 C220 0.950 . S
H212 C222 0.950 . S
H213 C224 0.950 . S
H214 C226 0.950 . S
H215 C227 0.950 . S
C216 H208 0.950 . S
C216 C217 1.386 . S
C216 C218 1.391 1_556 S
C217 C216 1.386 . S
C217 C221 1.393 . S
C218 H210 0.950 . S
C218 C216 1.391 1_554 S
C218 C219 1.400 . S
C219 C218 1.400 . S
C219 C220 1.398 1_554 S
C219 C225 1.491 . S
C220 H211 0.950 . S
C220 C219 1.398 1_556 S
C220 C221 1.391 . S
C221 H209 0.950 . S
C221 C217 1.393 . S
C221 C220 1.391 . S
C222 H212 0.950 . S
C222 C223 1.386 . S
C222 C224 1.391 . S
C223 C222 1.386 . S
C223 C227 1.393 . S
C224 H213 0.950 . S
C224 C222 1.391 . S
C224 C225 1.400 . S
C225 C219 1.491 . S
C225 C224 1.400 . S
C225 C226 1.398 . S
C226 H214 0.950 . S
C226 C225 1.398 . S
C226 C227 1.391 . S
C227 H215 0.950 . S
C227 C223 1.393 . S
C227 C226 1.391 . S
H228 C236 0.950 . S
H229 C241 0.950 . S
H230 C238 0.950 . S
H231 C240 0.950 . S
H232 C242 0.950 . S
H233 C244 0.950 . S
H234 C246 0.950 . S
H235 C247 0.950 . S
C236 H228 0.950 . S
C236 C237 1.386 . S
C236 C238 1.391 . S
C237 C236 1.386 . S
C237 C241 1.393 1_556 S
C238 H230 0.950 . S
C238 C236 1.391 . S
C238 C239 1.400 1_556 S
C239 C238 1.400 1_554 S
C239 C240 1.398 . S
C239 C245 1.491 . S
C240 H231 0.950 . S
C240 C239 1.398 . S
C240 C241 1.391 . S
C241 H229 0.950 . S
C241 C237 1.393 1_554 S
C241 C240 1.391 . S
C242 H232 0.950 . S
C242 C243 1.386 . S
C242 C244 1.391 . S
C243 C242 1.386 . S
C243 C247 1.393 1_554 S
C244 H233 0.950 . S
C244 C242 1.391 . S
C244 C245 1.400 . S
C245 C239 1.491 . S
C245 C244 1.400 . S
C245 C246 1.398 1_554 S
C246 H234 0.950 . S
C246 C245 1.398 1_556 S
C246 C247 1.391 . S
C247 H235 0.950 . S
C247 C243 1.393 1_556 S
C247 C246 1.391 . S
H248 C256 0.950 . S
H249 C261 0.950 . S
H250 C258 0.950 . S
H251 C260 0.950 . S
H252 C262 0.950 . S
H253 C264 0.950 . S
H254 C266 0.950 . S
H255 C267 0.950 1_556 S
C256 H248 0.950 . S
C256 C257 1.386 . S
C256 C258 1.391 . S
C257 C256 1.386 . S
C257 C261 1.393 1_556 S
C258 H250 0.950 . S
C258 C256 1.391 . S
C258 C259 1.400 1_556 S
C259 C258 1.400 1_554 S
C259 C260 1.398 . S
C259 C265 1.491 . S
C260 H251 0.950 . S
C260 C259 1.398 . S
C260 C261 1.391 . S
C261 H249 0.950 . S
C261 C257 1.393 1_554 S
C261 C260 1.391 . S
C262 H252 0.950 . S
C262 C263 1.386 . S
C262 C264 1.391 . S
C263 C262 1.386 . S
C263 C267 1.393 . S
C264 H253 0.950 . S
C264 C262 1.391 . S
C264 C265 1.400 . S
C265 C259 1.491 . S
C265 C264 1.400 . S
C265 C266 1.398 1_554 S
C266 H254 0.950 . S
C266 C265 1.398 1_556 S
C266 C267 1.391 1_556 S
C267 H255 0.950 1_554 S
C267 C263 1.393 . S
C267 C266 1.391 1_554 S
H268 C276 0.950 . S
H269 C281 0.950 . S
H270 C278 0.950 . S
H271 C280 0.950 . S
H272 C282 0.950 . S
H273 C284 0.950 . S
H274 C286 0.950 . S
H275 C287 0.950 . S
C276 H268 0.950 . S
C276 C277 1.386 . S
C276 C278 1.391 . S
C277 C276 1.386 . S
C277 C281 1.393 1_556 S
C278 H270 0.950 . S
C278 C276 1.391 . S
C278 C279 1.400 1_556 S
C279 C278 1.400 1_554 S
C279 C280 1.398 . S
C279 C285 1.491 . S
C280 H271 0.950 . S
C280 C279 1.398 . S
C280 C281 1.391 . S
C281 H269 0.950 . S
C281 C277 1.393 1_554 S
C281 C280 1.391 . S
C282 H272 0.950 . S
C282 C283 1.386 . S
C282 C284 1.391 . S
C283 C282 1.386 . S
C283 C287 1.393 1_554 S
C284 H273 0.950 . S
C284 C282 1.391 . S
C284 C285 1.400 . S
C285 C279 1.491 . S
C285 C284 1.400 . S
C285 C286 1.398 1_554 S
C286 H274 0.950 . S
C286 C285 1.398 1_556 S
C286 C287 1.391 . S
C287 H275 0.950 . S
C287 C283 1.393 1_556 S
C287 C286 1.391 . S
H288 C296 0.950 . S
H289 C301 0.950 . S
H290 C298 0.950 . S
H291 C300 0.950 . S
H292 C302 0.950 . S
H293 C304 0.950 . S
H294 C306 0.950 . S
H295 C307 0.950 . S
C296 H288 0.950 . S
C296 C297 1.386 . S
C296 C298 1.391 . S
C297 C296 1.386 . S
C297 C301 1.393 . S
C298 H290 0.950 . S
C298 C296 1.391 . S
C298 C299 1.400 . S
C299 C298 1.400 . S
C299 C300 1.398 . S
C299 C305 1.491 1_545 S
C300 H291 0.950 . S
C300 C299 1.398 . S
C300 C301 1.391 . S
C301 H289 0.950 . S
C301 C297 1.393 . S
C301 C300 1.391 . S
C302 H292 0.950 . S
C302 C303 1.386 . S
C302 C304 1.391 . S
C303 C302 1.386 . S
C303 C307 1.393 . S
C304 H293 0.950 . S
C304 C302 1.391 . S
C304 C305 1.400 . S
C305 C299 1.491 1_565 S
C305 C304 1.400 . S
C305 C306 1.398 . S
C306 H294 0.950 . S
C306 C305 1.398 . S
C306 C307 1.391 . S
C307 H295 0.950 . S
C307 C303 1.393 . S
C307 C306 1.391 . S
H308 C316 0.950 . S
H309 C321 0.950 . S
H310 C318 0.950 . S
H311 C320 0.950 . S
H312 C322 0.950 . S
H313 C324 0.950 . S
H314 C326 0.950 . S
H315 C327 0.950 . S
C316 H308 0.950 . S
C316 C317 1.386 . S
C316 C318 1.391 . S
C317 C316 1.386 . S
C317 C321 1.393 . S
C318 H310 0.950 . S
C318 C316 1.391 . S
C318 C319 1.400 . S
C319 C318 1.400 . S
C319 C320 1.398 . S
C319 C325 1.491 1_655 S
C320 H311 0.950 . S
C320 C319 1.398 . S
C320 C321 1.391 . S
C321 H309 0.950 . S
C321 C317 1.393 . S
C321 C320 1.391 . S
C322 H312 0.950 . S
C322 C323 1.386 . S
C322 C324 1.391 . S
C323 C322 1.386 . S
C323 C327 1.393 . S
C324 H313 0.950 . S
C324 C322 1.391 . S
C324 C325 1.400 . S
C325 C319 1.491 1_455 S
C325 C324 1.400 . S
C325 C326 1.398 . S
C326 H314 0.950 . S
C326 C325 1.398 . S
C326 C327 1.391 . S
C327 H315 0.950 . S
C327 C323 1.393 . S
C327 C326 1.391 . S
H328 C336 0.950 . S
H329 C341 0.950 . S
H330 C338 0.950 . S
H331 C340 0.950 . S
H332 C342 0.950 . S
H333 C344 0.950 . S
H334 C346 0.950 . S
H335 C347 0.950 . S
C336 H328 0.950 . S
C336 C337 1.386 . S
C336 C338 1.391 . S
C337 C336 1.386 . S
C337 C341 1.393 . S
C338 H330 0.950 . S
C338 C336 1.391 . S
C338 C339 1.400 . S
C339 C338 1.400 . S
C339 C340 1.398 . S
C339 C345 1.491 1_545 S
C340 H331 0.950 . S
C340 C339 1.398 . S
C340 C341 1.391 . S
C341 H329 0.950 . S
C341 C337 1.393 . S
C341 C340 1.391 . S
C342 H332 0.950 . S
C342 C343 1.386 . S
C342 C344 1.391 . S
C343 C342 1.386 . S
C343 C347 1.393 . S
C344 H333 0.950 . S
C344 C342 1.391 . S
C344 C345 1.400 . S
C345 C339 1.491 1_565 S
C345 C344 1.400 . S
C345 C346 1.398 . S
C346 H334 0.950 . S
C346 C345 1.398 . S
C346 C347 1.391 . S
C347 H335 0.950 . S
C347 C343 1.393 . S
C347 C346 1.391 . S
H348 C356 0.950 . S
H349 C361 0.950 . S
H350 C358 0.950 . S
H351 C360 0.950 . S
H352 C362 0.950 . S
H353 C364 0.950 . S
H354 C366 0.950 . S
H355 C367 0.950 . S
C356 H348 0.950 . S
C356 C357 1.386 . S
C356 C358 1.391 . S
C357 C356 1.386 . S
C357 C361 1.393 . S
C358 H350 0.950 . S
C358 C356 1.391 . S
C358 C359 1.400 . S
C359 C358 1.400 . S
C359 C360 1.398 . S
C359 C365 1.491 1_455 S
C360 H351 0.950 . S
C360 C359 1.398 . S
C360 C361 1.391 . S
C361 H349 0.950 . S
C361 C357 1.393 . S
C361 C360 1.391 . S
C362 H352 0.950 . S
C362 C363 1.386 . S
C362 C364 1.391 . S
C363 C362 1.386 . S
C363 C367 1.393 . S
C364 H353 0.950 . S
C364 C362 1.391 . S
C364 C365 1.400 . S
C365 C359 1.491 1_655 S
C365 C364 1.400 . S
C365 C366 1.398 . S
C366 H354 0.950 . S
C366 C365 1.398 . S
C366 C367 1.391 . S
C367 H355 0.950 . S
C367 C363 1.393 . S
C367 C366 1.391 . S
H368 C376 0.950 . S
H369 C381 0.950 . S
H370 C378 0.950 . S
H371 C380 0.950 . S
H372 C382 0.950 . S
H373 C384 0.950 . S
H374 C386 0.950 . S
H375 C387 0.950 . S
C376 H368 0.950 . S
C376 C377 1.386 . S
C376 C378 1.391 . S
C377 C376 1.386 . S
C377 C381 1.393 1_556 S
C378 H370 0.950 . S
C378 C376 1.391 . S
C378 C379 1.400 1_556 S
C379 C378 1.400 1_554 S
C379 C380 1.398 . S
C379 C385 1.491 . S
C380 H371 0.950 . S
C380 C379 1.398 . S
C380 C381 1.391 . S
C381 H369 0.950 . S
C381 C377 1.393 1_554 S
C381 C380 1.391 . S
C382 H372 0.950 . S
C382 C383 1.386 . S
C382 C384 1.391 . S
C383 C382 1.386 . S
C383 C387 1.393 . S
C384 H373 0.950 . S
C384 C382 1.391 . S
C384 C385 1.400 . S
C385 C379 1.491 . S
C385 C384 1.400 . S
C385 C386 1.398 . S
C386 H374 0.950 . S
C386 C385 1.398 . S
C386 C387 1.391 . S
C387 H375 0.950 . S
C387 C383 1.393 . S
C387 C386 1.391 . S
H388 C396 0.950 . S
H389 C401 0.950 . S
H390 C398 0.950 . S
H391 C400 0.950 . S
H392 C402 0.950 . S
H393 C404 0.950 . S
H394 C406 0.950 . S
H395 C407 0.950 . S
C396 H388 0.950 . S
C396 C397 1.386 . S
C396 C398 1.391 . S
C397 C396 1.386 . S
C397 C401 1.393 1_554 S
C398 H390 0.950 . S
C398 C396 1.391 . S
C398 C399 1.400 . S
C399 C398 1.400 . S
C399 C400 1.398 1_554 S
C399 C405 1.491 . S
C400 H391 0.950 . S
C400 C399 1.398 1_556 S
C400 C401 1.391 . S
C401 H389 0.950 . S
C401 C397 1.393 1_556 S
C401 C400 1.391 . S
C402 H392 0.950 . S
C402 C403 1.386 . S
C402 C404 1.391 . S
C403 C402 1.386 . S
C403 C407 1.393 1_556 S
C404 H393 0.950 . S
C404 C402 1.391 . S
C404 C405 1.400 1_556 S
C405 C399 1.491 . S
C405 C404 1.400 1_554 S
C405 C406 1.398 . S
C406 H394 0.950 . S
C406 C405 1.398 . S
C406 C407 1.391 . S
C407 H395 0.950 . S
C407 C403 1.393 1_554 S
C407 C406 1.391 . S
H408 C416 0.950 . S
H409 C421 0.950 . S
H410 C418 0.950 . S
H411 C420 0.950 . S
H412 C422 0.950 . S
H413 C424 0.950 . S
H414 C426 0.950 . S
H415 C427 0.950 . S
C416 H408 0.950 . S
C416 C417 1.386 1_554 S
C416 C418 1.391 . S
C417 C416 1.386 1_556 S
C417 C421 1.393 . S
C418 H410 0.950 . S
C418 C416 1.391 . S
C418 C419 1.400 . S
C419 C418 1.400 . S
C419 C420 1.398 1_554 S
C419 C425 1.491 . S
C420 H411 0.950 . S
C420 C419 1.398 1_556 S
C420 C421 1.391 . S
C421 H409 0.950 . S
C421 C417 1.393 . S
C421 C420 1.391 . S
C422 H412 0.950 . S
C422 C423 1.386 1_556 S
C422 C424 1.391 . S
C423 C422 1.386 1_554 S
C423 C427 1.393 . S
C424 H413 0.950 . S
C424 C422 1.391 . S
C424 C425 1.400 1_556 S
C425 C419 1.491 . S
C425 C424 1.400 1_554 S
C425 C426 1.398 . S
C426 H414 0.950 . S
C426 C425 1.398 . S
C426 C427 1.391 . S
C427 H415 0.950 . S
C427 C423 1.393 . S
C427 C426 1.391 . S
H428 C436 0.950 . S
H429 C441 0.950 . S
H430 C438 0.950 . S
H431 C440 0.950 . S
H432 C442 0.950 . S
H433 C444 0.950 . S
H434 C446 0.950 . S
H435 C447 0.950 . S
C436 H428 0.950 . S
C436 C437 1.386 . S
C436 C438 1.391 . S
C437 C436 1.386 . S
C437 C441 1.393 1_554 S
C438 H430 0.950 . S
C438 C436 1.391 . S
C438 C439 1.400 . S
C439 C438 1.400 . S
C439 C440 1.398 1_554 S
C439 C445 1.491 . S
C440 H431 0.950 . S
C440 C439 1.398 1_556 S
C440 C441 1.391 . S
C441 H429 0.950 . S
C441 C437 1.393 1_556 S
C441 C440 1.391 . S
C442 H432 0.950 . S
C442 C443 1.386 . S
C442 C444 1.391 . S
C443 C442 1.386 . S
C443 C447 1.393 1_556 S
C444 H433 0.950 . S
C444 C442 1.391 . S
C444 C445 1.400 1_556 S
C445 C439 1.491 . S
C445 C444 1.400 1_554 S
C445 C446 1.398 . S
C446 H434 0.950 . S
C446 C445 1.398 . S
C446 C447 1.391 . S
C447 H435 0.950 . S
C447 C443 1.393 1_554 S
C447 C446 1.391 . S
H448 C456 0.950 . S
H449 C461 0.950 . S
H450 C458 0.950 . S
H451 C460 0.950 . S
H452 C462 0.950 . S
H453 C464 0.950 . S
H454 C466 0.950 . S
H455 C467 0.950 . S
C456 H448 0.950 . S
C456 C457 1.386 . S
C456 C458 1.391 . S
C457 C456 1.386 . S
C457 C461 1.393 . S
C458 H450 0.950 . S
C458 C456 1.391 . S
C458 C459 1.400 . S
C459 C458 1.400 . S
C459 C460 1.398 . S
C459 C465 1.491 . S
C460 H451 0.950 . S
C460 C459 1.398 . S
C460 C461 1.391 . S
C461 H449 0.950 . S
C461 C457 1.393 . S
C461 C460 1.391 . S
C462 H452 0.950 . S
C462 C463 1.386 . S
C462 C464 1.391 . S
C463 C462 1.386 . S
C463 C467 1.393 . S
C464 H453 0.950 . S
C464 C462 1.391 . S
C464 C465 1.400 . S
C465 C459 1.491 . S
C465 C464 1.400 . S
C465 C466 1.398 . S
C466 H454 0.950 . S
C466 C465 1.398 . S
C466 C467 1.391 . S
C467 H455 0.950 . S
C467 C463 1.393 . S
C467 C466 1.391 . S
H468 C476 0.950 . S
H469 C481 0.950 . S
H470 C478 0.950 . S
H471 C480 0.950 . S
H472 C482 0.950 . S
H473 C484 0.950 . S
H474 C486 0.950 . S
H475 C487 0.950 . S
C476 H468 0.950 . S
C476 C477 1.386 . S
C476 C478 1.391 . S
C477 C476 1.386 . S
C477 C481 1.393 . S
C478 H470 0.950 . S
C478 C476 1.391 . S
C478 C479 1.400 . S
C479 C478 1.400 . S
C479 C480 1.398 . S
C479 C485 1.491 . S
C480 H471 0.950 . S
C480 C479 1.398 . S
C480 C481 1.391 . S
C481 H469 0.950 . S
C481 C477 1.393 . S
C481 C480 1.391 . S
C482 H472 0.950 . S
C482 C483 1.386 . S
C482 C484 1.391 . S
C483 C482 1.386 . S
C483 C487 1.393 . S
C484 H473 0.950 . S
C484 C482 1.391 . S
C484 C485 1.400 . S
C485 C479 1.491 . S
C485 C484 1.400 . S
C485 C486 1.398 . S
C486 H474 0.950 . S
C486 C485 1.398 . S
C486 C487 1.391 . S
C487 H475 0.950 . S
C487 C483 1.393 . S
C487 C486 1.391 . S
H488 C496 0.950 . S
H489 C501 0.950 . S
H490 C498 0.950 . S
H491 C500 0.950 . S
H492 C502 0.950 . S
H493 C504 0.950 . S
H494 C506 0.950 . S
H495 C507 0.950 . S
C496 H488 0.950 . S
C496 C497 1.386 . S
C496 C498 1.391 . S
C497 C496 1.386 . S
C497 C501 1.393 . S
C498 H490 0.950 . S
C498 C496 1.391 . S
C498 C499 1.400 . S
C499 C498 1.400 . S
C499 C500 1.398 . S
C499 C505 1.491 . S
C500 H491 0.950 . S
C500 C499 1.398 . S
C500 C501 1.391 . S
C501 H489 0.950 . S
C501 C497 1.393 . S
C501 C500 1.391 . S
C502 H492 0.950 . S
C502 C503 1.386 . S
C502 C504 1.391 . S
C503 C502 1.386 . S
C503 C507 1.393 . S
C504 H493 0.950 . S
C504 C502 1.391 . S
C504 C505 1.400 . S
C505 C499 1.491 . S
C505 C504 1.400 . S
C505 C506 1.398 . S
C506 H494 0.950 . S
C506 C505 1.398 . S
C506 C507 1.391 . S
C507 H495 0.950 . S
C507 C503 1.393 . S
C507 C506 1.391 . S
H508 C516 0.950 . S
H509 C521 0.950 . S
H510 C518 0.950 . S
H511 C520 0.950 . S
H512 C522 0.950 . S
H513 C524 0.950 . S
H514 C526 0.950 . S
H515 C527 0.950 . S
C516 H508 0.950 . S
C516 C517 1.386 . S
C516 C518 1.391 . S
C517 C516 1.386 . S
C517 C521 1.393 . S
C518 H510 0.950 . S
C518 C516 1.391 . S
C518 C519 1.400 . S
C519 C518 1.400 . S
C519 C520 1.398 . S
C519 C525 1.491 . S
C520 H511 0.950 . S
C520 C519 1.398 . S
C520 C521 1.391 . S
C521 H509 0.950 . S
C521 C517 1.393 . S
C521 C520 1.391 . S
C522 H512 0.950 . S
C522 C523 1.386 . S
C522 C524 1.391 . S
C523 C522 1.386 . S
C523 C527 1.393 . S
C524 H513 0.950 . S
C524 C522 1.391 . S
C524 C525 1.400 . S
C525 C519 1.491 . S
C525 C524 1.400 . S
C525 C526 1.398 . S
C526 H514 0.950 . S
C526 C525 1.398 . S
C526 C527 1.391 . S
C527 H515 0.950 . S
C527 C523 1.393 . S
C527 C526 1.391 . S
H528 C536 0.950 . S
H529 C541 0.950 . S
H530 C538 0.950 . S
H531 C540 0.950 . S
H532 C542 0.950 . S
H533 C544 0.950 . S
H534 C546 0.950 . S
H535 C547 0.950 . S
C536 H528 0.950 . S
C536 C537 1.386 . S
C536 C538 1.391 . S
C537 C536 1.386 . S
C537 C541 1.393 . S
C538 H530 0.950 . S
C538 C536 1.391 . S
C538 C539 1.400 . S
C539 C538 1.400 . S
C539 C540 1.398 . S
C539 C545 1.491 . S
C540 H531 0.950 . S
C540 C539 1.398 . S
C540 C541 1.391 . S
C541 H529 0.950 . S
C541 C537 1.393 . S
C541 C540 1.391 . S
C542 H532 0.950 . S
C542 C543 1.386 . S
C542 C544 1.391 . S
C543 C542 1.386 . S
C543 C547 1.393 . S
C544 H533 0.950 . S
C544 C542 1.391 . S
C544 C545 1.400 . S
C545 C539 1.491 . S
C545 C544 1.400 . S
C545 C546 1.398 . S
C546 H534 0.950 . S
C546 C545 1.398 . S
C546 C547 1.391 . S
C547 H535 0.950 . S
C547 C543 1.393 . S
C547 C546 1.391 . S
H548 C556 0.950 . S
H549 C561 0.950 . S
H550 C558 0.950 . S
H551 C560 0.950 . S
H552 C562 0.950 . S
H553 C564 0.950 . S
H554 C566 0.950 . S
H555 C567 0.950 . S
C556 H548 0.950 . S
C556 C557 1.386 . S
C556 C558 1.391 . S
C557 C556 1.386 . S
C557 C561 1.393 . S
C558 H550 0.950 . S
C558 C556 1.391 . S
C558 C559 1.400 . S
C559 C558 1.400 . S
C559 C560 1.398 . S
C559 C565 1.491 . S
C560 H551 0.950 . S
C560 C559 1.398 . S
C560 C561 1.391 . S
C561 H549 0.950 . S
C561 C557 1.393 . S
C561 C560 1.391 . S
C562 H552 0.950 . S
C562 C563 1.386 . S
C562 C564 1.391 . S
C563 C562 1.386 . S
C563 C567 1.393 . S
C564 H553 0.950 . S
C564 C562 1.391 . S
C564 C565 1.400 . S
C565 C559 1.491 . S
C565 C564 1.400 . S
C565 C566 1.398 . S
C566 H554 0.950 . S
C566 C565 1.398 . S
C566 C567 1.391 . S
C567 H555 0.950 . S
C567 C563 1.393 . S
C567 C566 1.391 . S
H568 C576 0.950 . S
H569 C581 0.950 . S
H570 C578 0.950 . S
H571 C580 0.950 . S
H572 C582 0.950 . S
H573 C584 0.950 . S
H574 C586 0.950 . S
H575 C587 0.950 . S
C576 H568 0.950 . S
C576 C577 1.386 . S
C576 C578 1.391 . S
C577 C576 1.386 . S
C577 C581 1.393 . S
C578 H570 0.950 . S
C578 C576 1.391 . S
C578 C579 1.400 . S
C579 C578 1.400 . S
C579 C580 1.398 . S
C579 C585 1.491 . S
C580 H571 0.950 . S
C580 C579 1.398 . S
C580 C581 1.391 . S
C581 H569 0.950 . S
C581 C577 1.393 . S
C581 C580 1.391 . S
C582 H572 0.950 . S
C582 C583 1.386 . S
C582 C584 1.391 . S
C583 C582 1.386 . S
C583 C587 1.393 . S
C584 H573 0.950 . S
C584 C582 1.391 . S
C584 C585 1.400 . S
C585 C579 1.491 . S
C585 C584 1.400 . S
C585 C586 1.398 . S
C586 H574 0.950 . S
C586 C585 1.398 . S
C586 C587 1.391 . S
C587 H575 0.950 . S
C587 C583 1.393 . S
C587 C586 1.391 . S
H588 C596 0.950 . S
H589 C601 0.950 . S
H590 C598 0.950 . S
H591 C600 0.950 . S
H592 C602 0.950 . S
H593 C604 0.950 . S
H594 C606 0.950 . S
H595 C607 0.950 . S
C596 H588 0.950 . S
C596 C597 1.386 . S
C596 C598 1.391 . S
C597 C596 1.386 . S
C597 C601 1.393 . S
C598 H590 0.950 . S
C598 C596 1.391 . S
C598 C599 1.400 . S
C599 C598 1.400 . S
C599 C600 1.398 . S
C599 C605 1.491 . S
C600 H591 0.950 . S
C600 C599 1.398 . S
C600 C601 1.391 . S
C601 H589 0.950 . S
C601 C597 1.393 . S
C601 C600 1.391 . S
C602 H592 0.950 . S
C602 C603 1.386 . S
C602 C604 1.391 . S
C603 C602 1.386 . S
C603 C607 1.393 . S
C604 H593 0.950 . S
C604 C602 1.391 . S
C604 C605 1.400 . S
C605 C599 1.491 . S
C605 C604 1.400 . S
C605 C606 1.398 . S
C606 H594 0.950 . S
C606 C605 1.398 . S
C606 C607 1.391 . S
C607 H595 0.950 . S
C607 C603 1.393 . S
C607 C606 1.391 . S
H608 C616 0.950 . S
H609 C621 0.950 . S
H610 C618 0.950 . S
H611 C620 0.950 . S
H612 C622 0.950 . S
H613 C624 0.950 . S
H614 C626 0.950 . S
H615 C627 0.950 . S
C616 H608 0.950 . S
C616 C617 1.386 . S
C616 C618 1.391 . S
C617 C616 1.386 . S
C617 C621 1.393 . S
C618 H610 0.950 . S
C618 C616 1.391 . S
C618 C619 1.400 . S
C619 C618 1.400 . S
C619 C620 1.398 . S
C619 C625 1.491 . S
C620 H611 0.950 . S
C620 C619 1.398 . S
C620 C621 1.391 . S
C621 H609 0.950 . S
C621 C617 1.393 . S
C621 C620 1.391 . S
C622 H612 0.950 . S
C622 C623 1.386 . S
C622 C624 1.391 . S
C623 C622 1.386 . S
C623 C627 1.393 . S
C624 H613 0.950 . S
C624 C622 1.391 . S
C624 C625 1.400 . S
C625 C619 1.491 . S
C625 C624 1.400 . S
C625 C626 1.398 . S
C626 H614 0.950 . S
C626 C625 1.398 . S
C626 C627 1.391 . S
C627 H615 0.950 . S
C627 C623 1.393 . S
C627 C626 1.391 . S
H628 C636 0.950 . S
H629 C641 0.950 . S
H630 C638 0.950 . S
H631 C640 0.950 . S
H632 C642 0.950 . S
H633 C644 0.950 . S
H634 C646 0.950 . S
H635 C647 0.950 . S
C636 H628 0.950 . S
C636 C637 1.386 . S
C636 C638 1.391 . S
C637 C636 1.386 . S
C637 C641 1.393 . S
C638 H630 0.950 . S
C638 C636 1.391 . S
C638 C639 1.400 . S
C639 C638 1.400 . S
C639 C640 1.398 . S
C639 C645 1.491 . S
C640 H631 0.950 . S
C640 C639 1.398 . S
C640 C641 1.391 . S
C641 H629 0.950 . S
C641 C637 1.393 . S
C641 C640 1.391 . S
C642 H632 0.950 . S
C642 C643 1.386 . S
C642 C644 1.391 . S
C643 C642 1.386 . S
C643 C647 1.393 . S
C644 H633 0.950 . S
C644 C642 1.391 . S
C644 C645 1.400 . S
C645 C639 1.491 . S
C645 C644 1.400 . S
C645 C646 1.398 . S
C646 H634 0.950 . S
C646 C645 1.398 . S
C646 C647 1.391 . S
C647 H635 0.950 . S
C647 C643 1.393 . S
C647 C646 1.391 . S
H648 C656 0.950 . S
H649 C661 0.950 . S
H650 C658 0.950 . S
H651 C660 0.950 . S
H652 C662 0.950 . S
H653 C664 0.950 . S
H654 C666 0.950 . S
H655 C667 0.950 . S
C656 H648 0.950 . S
C656 C657 1.386 . S
C656 C658 1.391 . S
C657 C656 1.386 . S
C657 C661 1.393 . S
C658 H650 0.950 . S
C658 C656 1.391 . S
C658 C659 1.400 . S
C659 C658 1.400 . S
C659 C660 1.398 . S
C659 C665 1.491 . S
C660 H651 0.950 . S
C660 C659 1.398 . S
C660 C661 1.391 . S
C661 H649 0.950 . S
C661 C657 1.393 . S
C661 C660 1.391 . S
C662 H652 0.950 . S
C662 C663 1.386 . S
C662 C664 1.391 . S
C663 C662 1.386 . S
C663 C667 1.393 . S
C664 H653 0.950 . S
C664 C662 1.391 . S
C664 C665 1.400 . S
C665 C659 1.491 . S
C665 C664 1.400 . S
C665 C666 1.398 . S
C666 H654 0.950 . S
C666 C665 1.398 . S
C666 C667 1.391 . S
C667 H655 0.950 . S
C667 C663 1.393 . S
C667 C666 1.391 . S
H668 C676 0.950 . S
H669 C681 0.950 . S
H670 C678 0.950 . S
H671 C680 0.950 . S
H672 C682 0.950 . S
H673 C684 0.950 . S
H674 C686 0.950 . S
H675 C687 0.950 . S
C676 H668 0.950 . S
C676 C677 1.386 . S
C676 C678 1.391 . S
C677 C676 1.386 . S
C677 C681 1.393 . S
C678 H670 0.950 . S
C678 C676 1.391 . S
C678 C679 1.400 . S
C679 C678 1.400 . S
C679 C680 1.398 . S
C679 C685 1.491 . S
C680 H671 0.950 . S
C680 C679 1.398 . S
C680 C681 1.391 . S
C681 H669 0.950 . S
C681 C677 1.393 . S
C681 C680 1.391 . S
C682 H672 0.950 . S
C682 C683 1.386 . S
C682 C684 1.391 . S
C683 C682 1.386 . S
C683 C687 1.393 . S
C684 H673 0.950 . S
C684 C682 1.391 . S
C684 C685 1.400 . S
C685 C679 1.491 . S
C685 C684 1.400 . S
C685 C686 1.398 . S
C686 H674 0.950 . S
C686 C685 1.398 . S
C686 C687 1.391 . S
C687 H675 0.950 . S
C687 C683 1.393 . S
C687 C686 1.391 . S
H688 C696 0.950 . S
H689 C701 0.950 . S
H690 C698 0.950 . S
H691 C700 0.950 . S
H692 C702 0.950 . S
H693 C704 0.950 . S
H694 C706 0.950 . S
H695 C707 0.950 . S
C696 H688 0.950 . S
C696 C697 1.386 . S
C696 C698 1.391 . S
C697 C696 1.386 . S
C697 C701 1.393 . S
C698 H690 0.950 . S
C698 C696 1.391 . S
C698 C699 1.400 . S
C699 C698 1.400 . S
C699 C700 1.398 . S
C699 C705 1.491 . S
C700 H691 0.950 . S
C700 C699 1.398 . S
C700 C701 1.391 . S
C701 H689 0.950 . S
C701 C697 1.393 . S
C701 C700 1.391 . S
C702 H692 0.950 . S
C702 C703 1.386 . S
C702 C704 1.391 . S
C703 C702 1.386 . S
C703 C707 1.393 . S
C704 H693 0.950 . S
C704 C702 1.391 . S
C704 C705 1.400 . S
C705 C699 1.491 . S
C705 C704 1.400 . S
C705 C706 1.398 . S
C706 H694 0.950 . S
C706 C705 1.398 . S
C706 C707 1.391 . S
C707 H695 0.950 . S
C707 C703 1.393 . S
C707 C706 1.391 . S
H708 C716 0.950 . S
H709 C721 0.950 . S
H710 C718 0.950 . S
H711 C720 0.950 . S
H712 C722 0.950 . S
H713 C724 0.950 . S
H714 C726 0.950 . S
H715 C727 0.950 . S
C716 H708 0.950 . S
C716 C717 1.386 . S
C716 C718 1.391 . S
C717 C716 1.386 . S
C717 C721 1.393 . S
C718 H710 0.950 . S
C718 C716 1.391 . S
C718 C719 1.400 . S
C719 C718 1.400 . S
C719 C720 1.398 . S
C719 C725 1.491 . S
C720 H711 0.950 . S
C720 C719 1.398 . S
C720 C721 1.391 . S
C721 H709 0.950 . S
C721 C717 1.393 . S
C721 C720 1.391 . S
C722 H712 0.950 . S
C722 C723 1.386 . S
C722 C724 1.391 . S
C723 C722 1.386 . S
C723 C727 1.393 . S
C724 H713 0.950 . S
C724 C722 1.391 . S
C724 C725 1.400 . S
C725 C719 1.491 . S
C725 C724 1.400 . S
C725 C726 1.398 . S
C726 H714 0.950 . S
C726 C725 1.398 . S
C726 C727 1.391 . S
C727 H715 0.950 . S
C727 C723 1.393 . S
C727 C726 1.391 . S
H728 C736 0.950 . S
H729 C741 0.950 . S
H730 C738 0.950 . S
H731 C740 0.950 . S
H732 C742 0.950 . S
H733 C744 0.950 . S
H734 C746 0.950 . S
H735 C747 0.950 . S
C736 H728 0.950 . S
C736 C737 1.386 . S
C736 C738 1.391 . S
C737 C736 1.386 . S
C737 C741 1.393 . S
C738 H730 0.950 . S
C738 C736 1.391 . S
C738 C739 1.400 . S
C739 C738 1.400 . S
C739 C740 1.398 . S
C739 C745 1.491 . S
C740 H731 0.950 . S
C740 C739 1.398 . S
C740 C741 1.391 . S
C741 H729 0.950 . S
C741 C737 1.393 . S
C741 C740 1.391 . S
C742 H732 0.950 . S
C742 C743 1.386 . S
C742 C744 1.391 . S
C743 C742 1.386 . S
C743 C747 1.393 . S
C744 H733 0.950 . S
C744 C742 1.391 . S
C744 C745 1.400 . S
C745 C739 1.491 . S
C745 C744 1.400 . S
C745 C746 1.398 . S
C746 H734 0.950 . S
C746 C745 1.398 . S
C746 C747 1.391 . S
C747 H735 0.950 . S
C747 C743 1.393 . S
C747 C746 1.391 . S
H748 C756 0.950 . S
H749 C761 0.950 . S
H750 C758 0.950 . S
H751 C760 0.950 . S
H752 C762 0.950 . S
H753 C764 0.950 . S
H754 C766 0.950 . S
H755 C767 0.950 . S
C756 H748 0.950 . S
C756 C757 1.386 . S
C756 C758 1.391 . S
C757 C756 1.386 . S
C757 C761 1.393 . S
C758 H750 0.950 . S
C758 C756 1.391 . S
C758 C759 1.400 . S
C759 C758 1.400 . S
C759 C760 1.398 . S
C759 C765 1.491 . S
C760 H751 0.950 . S
C760 C759 1.398 . S
C760 C761 1.391 . S
C761 H749 0.950 . S
C761 C757 1.393 . S
C761 C760 1.391 . S
C762 H752 0.950 . S
C762 C763 1.386 . S
C762 C764 1.391 . S
C763 C762 1.386 . S
C763 C767 1.393 . S
C764 H753 0.950 . S
C764 C762 1.391 . S
C764 C765 1.400 . S
C765 C759 1.491 . S
C765 C764 1.400 . S
C765 C766 1.398 . S
C766 H754 0.950 . S
C766 C765 1.398 . S
C766 C767 1.391 . S
C767 H755 0.950 . S
C767 C763 1.393 . S
C767 C766 1.391 . S
H768 C776 0.950 . S
H769 C781 0.950 . S
H770 C778 0.950 . S
H771 C780 0.950 . S
H772 C782 0.950 . S
H773 C784 0.950 . S
H774 C786 0.950 . S
H775 C787 0.950 . S
C776 H768 0.950 . S
C776 C777 1.386 . S
C776 C778 1.391 . S
C777 C776 1.386 . S
C777 C781 1.393 . S
C778 H770 0.950 . S
C778 C776 1.391 . S
C778 C779 1.400 . S
C779 C778 1.400 . S
C779 C780 1.398 . S
C779 C785 1.491 . S
C780 H771 0.950 . S
C780 C779 1.398 . S
C780 C781 1.391 . S
C781 H769 0.950 . S
C781 C777 1.393 . S
C781 C780 1.391 . S
C782 H772 0.950 . S
C782 C783 1.386 . S
C782 C784 1.391 . S
C783 C782 1.386 . S
C783 C787 1.393 . S
C784 H773 0.950 . S
C784 C782 1.391 . S
C784 C785 1.400 . S
C785 C779 1.491 . S
C785 C784 1.400 . S
C785 C786 1.398 . S
C786 H774 0.950 . S
C786 C785 1.398 . S
C786 C787 1.391 . S
C787 H775 0.950 . S
C787 C783 1.393 . S
C787 C786 1.391 . S
H788 C796 0.950 . S
H789 C801 0.950 . S
H790 C798 0.950 . S
H791 C800 0.950 . S
H792 C802 0.950 . S
H793 C804 0.950 . S
H794 C806 0.950 . S
H795 C807 0.950 . S
C796 H788 0.950 . S
C796 C797 1.386 . S
C796 C798 1.391 . S
C797 C796 1.386 . S
C797 C801 1.393 . S
C798 H790 0.950 . S
C798 C796 1.391 . S
C798 C799 1.400 . S
C799 C798 1.400 . S
C799 C800 1.398 . S
C799 C805 1.491 . S
C800 H791 0.950 . S
C800 C799 1.398 . S
C800 C801 1.391 . S
C801 H789 0.950 . S
C801 C797 1.393 . S
C801 C800 1.391 . S
C802 H792 0.950 . S
C802 C803 1.386 . S
C802 C804 1.391 . S
C803 C802 1.386 . S
C803 C807 1.393 . S
C804 H793 0.950 . S
C804 C802 1.391 . S
C804 C805 1.400 . S
C805 C799 1.491 . S
C805 C804 1.400 . S
C805 C806 1.398 . S
C806 H794 0.950 . S
C806 C805 1.398 . S
C806 C807 1.391 . S
C807 H795 0.950 . S
C807 C803 1.393 . S
C807 C806 1.391 . S
H808 C816 0.950 . S
H809 C821 0.950 . S
H810 C818 0.950 . S
H811 C820 0.950 . S
H812 C822 0.950 . S
H813 C824 0.950 . S
H814 C826 0.950 . S
H815 C827 0.950 . S
C816 H808 0.950 . S
C816 C817 1.386 . S
C816 C818 1.391 . S
C817 C816 1.386 . S
C817 C821 1.393 . S
C818 H810 0.950 . S
C818 C816 1.391 . S
C818 C819 1.400 . S
C819 C818 1.400 . S
C819 C820 1.398 . S
C819 C825 1.491 . S
C820 H811 0.950 . S
C820 C819 1.398 . S
C820 C821 1.391 . S
C821 H809 0.950 . S
C821 C817 1.393 . S
C821 C820 1.391 . S
C822 H812 0.950 . S
C822 C823 1.386 . S
C822 C824 1.391 . S
C823 C822 1.386 . S
C823 C827 1.393 . S
C824 H813 0.950 . S
C824 C822 1.391 . S
C824 C825 1.400 . S
C825 C819 1.491 . S
C825 C824 1.400 . S
C825 C826 1.398 . S
C826 H814 0.950 . S
C826 C825 1.398 . S
C826 C827 1.391 . S
C827 H815 0.950 . S
C827 C823 1.393 . S
C827 C826 1.391 . S
H828 C836 0.950 . S
H829 C841 0.950 . S
H830 C838 0.950 . S
H831 C840 0.950 . S
H832 C842 0.950 . S
H833 C844 0.950 . S
H834 C846 0.950 . S
H835 C847 0.950 . S
C836 H828 0.950 . S
C836 C837 1.386 . S
C836 C838 1.391 . S
C837 C836 1.386 . S
C837 C841 1.393 . S
C838 H830 0.950 . S
C838 C836 1.391 . S
C838 C839 1.400 . S
C839 C838 1.400 . S
C839 C840 1.398 . S
C839 C845 1.491 . S
C840 H831 0.950 . S
C840 C839 1.398 . S
C840 C841 1.391 . S
C841 H829 0.950 . S
C841 C837 1.393 . S
C841 C840 1.391 . S
C842 H832 0.950 . S
C842 C843 1.386 . S
C842 C844 1.391 . S
C843 C842 1.386 . S
C843 C847 1.393 . S
C844 H833 0.950 . S
C844 C842 1.391 . S
C844 C845 1.400 . S
C845 C839 1.491 . S
C845 C844 1.400 . S
C845 C846 1.398 . S
C846 H834 0.950 . S
C846 C845 1.398 . S
C846 C847 1.391 . S
C847 H835 0.950 . S
C847 C843 1.393 . S
C847 C846 1.391 . S
C217 C56 1.500 . S
C223 C4 1.500 . S
C237 C75 1.495 . S
C243 C17 1.496 . S
C257 C82 1.495 . S
C263 C36 1.495 . S
C277 C95 1.495 . S
C283 C43 1.496 . S
C297 C166 1.495 . S
C303 C108 1.496 . S
C317 C173 1.495 . S
C323 C127 1.495 . S
C337 C140 1.495 . S
C343 C186 1.495 . S
C357 C205 1.495 . S
C363 C147 1.495 . S
C377 C5 1.548 . S
C383 C68 1.547 . S
C397 C83 1.544 . S
C403 C18 1.541 . S
C417 C29 1.540 . S
C423 C96 1.543 . S
C437 C57 1.547 . S
C443 C44 1.544 . S
C457 C174 1.548 . S
C463 C109 1.545 . S
C477 C187 1.548 . S
C483 C120 1.546 . S
C497 C133 1.541 . S
C503 C198 1.540 . S
C517 C148 1.540 . S
C523 C159 1.542 . S
C537 C199 1.423 . S
C543 C10 1.415 . S
C557 C160 1.425 . S
C563 C23 1.418 . S
C577 C179 1.425 . S
C583 C30 1.417 . S
C597 C192 1.418 . S
C603 C49 1.425 . S
C617 C121 1.423 . S
C623 C62 1.415 . S
C637 C134 1.425 . S
C643 C69 1.419 . S
C657 C88 1.425 . S
C663 C153 1.420 . S
C677 C101 1.416 . S
C683 C114 1.421 . S
C697 C172 1.390 . S
C703 C31 1.392 . S
C717 C185 1.393 . S
C723 C42 1.390 . S
C737 C200 1.393 . S
C743 C3 1.390 . S
C757 C16 1.390 . S
C763 C161 1.386 . S
C777 C146 1.386 . S
C783 C81 1.390 . S
C797 C94 1.385 . S
C803 C107 1.389 . S
C817 C122 1.387 . S
C823 C55 1.391 . S
C837 C135 1.382 . S
C843 C70 1.382 . S
