# Generated by pormake.
# Topology whm, (6)-cn, num edge types: 1
# Building blocks:
#     Node 0, Type 0, BuildingBlock: IZENUY_clean_sbu_0, # of connection points: 6
#     Node 1, Type 0, BuildingBlock: IZENUY_clean_sbu_0, # of connection points: 6
#     Node 2, Type 0, BuildingBlock: IZENUY_clean_sbu_0, # of connection points: 6
#     Node 3, Type 0, BuildingBlock: IZENUY_clean_sbu_0, # of connection points: 6
#     Node 4, Type 0, BuildingBlock: IZENUY_clean_sbu_0, # of connection points: 6
#     Node 5, Type 0, BuildingBlock: IZENUY_clean_sbu_0, # of connection points: 6
#     Node 6, Type 0, BuildingBlock: IZENUY_clean_sbu_0, # of connection points: 6
#     Node 7, Type 0, BuildingBlock: IZENUY_clean_sbu_0, # of connection points: 6
#     Node 8, Type 0, BuildingBlock: IZENUY_clean_sbu_0, # of connection points: 6
#     Node 9, Type 0, BuildingBlock: IZENUY_clean_sbu_0, # of connection points: 6
#     Node 10, Type 0, BuildingBlock: IZENUY_clean_sbu_0, # of connection points: 6
#     Node 11, Type 0, BuildingBlock: IZENUY_clean_sbu_0, # of connection points: 6
#     Node 12, Type 0, BuildingBlock: IZENUY_clean_sbu_0, # of connection points: 6
#     Node 13, Type 0, BuildingBlock: IZENUY_clean_sbu_0, # of connection points: 6
#     Node 14, Type 0, BuildingBlock: IZENUY_clean_sbu_0, # of connection points: 6
#     Node 15, Type 0, BuildingBlock: IZENUY_clean_sbu_0, # of connection points: 6
#     Edge 16, Type (0, 0), BuildingBlock: ZUJKAS_clean_linker_0, # of connection points: 2
#     Edge 17, Type (0, 0), BuildingBlock: ZUJKAS_clean_linker_0, # of connection points: 2
#     Edge 18, Type (0, 0), BuildingBlock: ZUJKAS_clean_linker_0, # of connection points: 2
#     Edge 19, Type (0, 0), BuildingBlock: ZUJKAS_clean_linker_0, # of connection points: 2
#     Edge 20, Type (0, 0), BuildingBlock: ZUJKAS_clean_linker_0, # of connection points: 2
#     Edge 21, Type (0, 0), BuildingBlock: ZUJKAS_clean_linker_0, # of connection points: 2
#     Edge 22, Type (0, 0), BuildingBlock: ZUJKAS_clean_linker_0, # of connection points: 2
#     Edge 23, Type (0, 0), BuildingBlock: ZUJKAS_clean_linker_0, # of connection points: 2
#     Edge 24, Type (0, 0), BuildingBlock: ZUJKAS_clean_linker_0, # of connection points: 2
#     Edge 25, Type (0, 0), BuildingBlock: ZUJKAS_clean_linker_0, # of connection points: 2
#     Edge 26, Type (0, 0), BuildingBlock: ZUJKAS_clean_linker_0, # of connection points: 2
#     Edge 27, Type (0, 0), BuildingBlock: ZUJKAS_clean_linker_0, # of connection points: 2
#     Edge 28, Type (0, 0), BuildingBlock: ZUJKAS_clean_linker_0, # of connection points: 2
#     Edge 29, Type (0, 0), BuildingBlock: ZUJKAS_clean_linker_0, # of connection points: 2
#     Edge 30, Type (0, 0), BuildingBlock: ZUJKAS_clean_linker_0, # of connection points: 2
#     Edge 31, Type (0, 0), BuildingBlock: ZUJKAS_clean_linker_0, # of connection points: 2
#     Edge 32, Type (0, 0), BuildingBlock: ZUJKAS_clean_linker_0, # of connection points: 2
#     Edge 33, Type (0, 0), BuildingBlock: ZUJKAS_clean_linker_0, # of connection points: 2
#     Edge 34, Type (0, 0), BuildingBlock: ZUJKAS_clean_linker_0, # of connection points: 2
#     Edge 35, Type (0, 0), BuildingBlock: ZUJKAS_clean_linker_0, # of connection points: 2
#     Edge 36, Type (0, 0), BuildingBlock: ZUJKAS_clean_linker_0, # of connection points: 2
#     Edge 37, Type (0, 0), BuildingBlock: ZUJKAS_clean_linker_0, # of connection points: 2
#     Edge 38, Type (0, 0), BuildingBlock: ZUJKAS_clean_linker_0, # of connection points: 2
#     Edge 39, Type (0, 0), BuildingBlock: ZUJKAS_clean_linker_0, # of connection points: 2
#     Edge 40, Type (0, 0), BuildingBlock: ZUJKAS_clean_linker_0, # of connection points: 2
#     Edge 41, Type (0, 0), BuildingBlock: ZUJKAS_clean_linker_0, # of connection points: 2
#     Edge 42, Type (0, 0), BuildingBlock: ZUJKAS_clean_linker_0, # of connection points: 2
#     Edge 43, Type (0, 0), BuildingBlock: ZUJKAS_clean_linker_0, # of connection points: 2
#     Edge 44, Type (0, 0), BuildingBlock: ZUJKAS_clean_linker_0, # of connection points: 2
#     Edge 45, Type (0, 0), BuildingBlock: ZUJKAS_clean_linker_0, # of connection points: 2
#     Edge 46, Type (0, 0), BuildingBlock: ZUJKAS_clean_linker_0, # of connection points: 2
#     Edge 47, Type (0, 0), BuildingBlock: ZUJKAS_clean_linker_0, # of connection points: 2
#     Edge 48, Type (0, 0), BuildingBlock: ZUJKAS_clean_linker_0, # of connection points: 2
#     Edge 49, Type (0, 0), BuildingBlock: ZUJKAS_clean_linker_0, # of connection points: 2
#     Edge 50, Type (0, 0), BuildingBlock: ZUJKAS_clean_linker_0, # of connection points: 2
#     Edge 51, Type (0, 0), BuildingBlock: ZUJKAS_clean_linker_0, # of connection points: 2
#     Edge 52, Type (0, 0), BuildingBlock: ZUJKAS_clean_linker_0, # of connection points: 2
#     Edge 53, Type (0, 0), BuildingBlock: ZUJKAS_clean_linker_0, # of connection points: 2
#     Edge 54, Type (0, 0), BuildingBlock: ZUJKAS_clean_linker_0, # of connection points: 2
#     Edge 55, Type (0, 0), BuildingBlock: ZUJKAS_clean_linker_0, # of connection points: 2
#     Edge 56, Type (0, 0), BuildingBlock: ZUJKAS_clean_linker_0, # of connection points: 2
#     Edge 57, Type (0, 0), BuildingBlock: ZUJKAS_clean_linker_0, # of connection points: 2
#     Edge 58, Type (0, 0), BuildingBlock: ZUJKAS_clean_linker_0, # of connection points: 2
#     Edge 59, Type (0, 0), BuildingBlock: ZUJKAS_clean_linker_0, # of connection points: 2
#     Edge 60, Type (0, 0), BuildingBlock: ZUJKAS_clean_linker_0, # of connection points: 2
#     Edge 61, Type (0, 0), BuildingBlock: ZUJKAS_clean_linker_0, # of connection points: 2
#     Edge 62, Type (0, 0), BuildingBlock: ZUJKAS_clean_linker_0, # of connection points: 2
#     Edge 63, Type (0, 0), BuildingBlock: ZUJKAS_clean_linker_0, # of connection points: 2
# Relax obj value: 0.316
# Max RMSD: 0.231
# Mean RMSD: 0.231
data_MOF--net-whm--node1-IZENUY_clean_sbu_0--edge1-ZUJKAS_clean_linker_0
_symmetry_space_group_name_H-M    P1
_symmetry_Int_Tables_number       1
_symmetry_cell_setting            triclinic
loop_
_symmetry_equiv_pos_as_xyz
'x, y, z'
_cell_length_a     65.168253
_cell_length_b     65.172369
_cell_length_c     35.976537
_cell_angle_alpha  89.980266
_cell_angle_beta   89.983076
_cell_angle_gamma 90.036454
loop_
_atom_site_label
_atom_site_type_symbol
_atom_site_fract_x
_atom_site_fract_y
_atom_site_fract_z
_atom_type_partial_charge
Fe0 Fe 0.54268 0.16411 0.20788 0.0
Fe1 Fe 0.56201 0.12222 0.19037 0.0
O2 O 0.56112 0.14914 0.1838 0.0
Fe3 Fe 0.57877 0.16121 0.15359 0.0
O4 O 0.58882 0.17703 0.19074 0.0
O5 O 0.55883 0.18722 0.21118 0.0
O6 O 0.55325 0.15626 0.25245 0.0
C7 C 0.55503 0.13778 0.26255 0.0
C8 C 0.54127 0.18162 0.13893 0.0
O9 O 0.55395 0.12328 0.2392 0.0
C10 C 0.57046 0.12693 0.1131 0.0
O11 O 0.5231 0.14372 0.20946 0.0
O12 O 0.53574 0.11921 0.17452 0.0
O13 O 0.56071 0.18108 0.13863 0.0
O14 O 0.53119 0.17291 0.16452 0.0
C15 C 0.6031 0.13111 0.18949 0.0
O16 O 0.57047 0.11639 0.14271 0.0
O17 O 0.57008 0.14624 0.1144 0.0
C18 C 0.52067 0.12739 0.19081 0.0
O19 O 0.58829 0.1233 0.20709 0.0
O20 O 0.59994 0.14342 0.1629 0.0
C21 C 0.57815 0.18929 0.20964 0.0
Fe22 Fe 0.33278 0.53895 0.70532 0.0
Fe23 Fe 0.37415 0.5603 0.69124 0.0
O24 O 0.34733 0.55865 0.68359 0.0
Fe25 Fe 0.33507 0.57665 0.6543 0.0
O26 O 0.31812 0.58503 0.69116 0.0
O27 O 0.30912 0.55417 0.70945 0.0
O28 O 0.3399 0.54824 0.75133 0.0
C29 C 0.35829 0.54991 0.76201 0.0
C30 C 0.31623 0.53895 0.63534 0.0
O31 O 0.37291 0.55059 0.73891 0.0
C32 C 0.37026 0.57045 0.61486 0.0
O33 O 0.35381 0.52011 0.70546 0.0
O34 O 0.37825 0.53471 0.67283 0.0
O35 O 0.31617 0.55836 0.63659 0.0
O36 O 0.32476 0.5285 0.6606 0.0
C37 C 0.36382 0.60098 0.69403 0.0
O38 O 0.38033 0.57044 0.64492 0.0
O39 O 0.35097 0.56957 0.6152 0.0
C40 C 0.37047 0.51888 0.68736 0.0
O41 O 0.37194 0.58595 0.71051 0.0
O42 O 0.3519 0.59818 0.66669 0.0
C43 C 0.30602 0.57335 0.70847 0.0
Fe44 Fe 0.93945 0.37969 0.19244 0.0
Fe45 Fe 0.92171 0.34027 0.15883 0.0
O46 O 0.94023 0.3527 0.18674 0.0
Fe47 Fe 0.95958 0.33806 0.20915 0.0
O48 O 0.95059 0.34627 0.25469 0.0
O49 O 0.94914 0.37911 0.24024 0.0
O50 O 0.9138 0.37883 0.21192 0.0
C51 C 0.89847 0.37069 0.19642 0.0
C52 C 0.98071 0.37483 0.18887 0.0
O53 O 0.90073 0.35793 0.17023 0.0
C54 C 0.95885 0.32006 0.14053 0.0
O55 O 0.92942 0.38509 0.14574 0.0
O56 O 0.92892 0.35502 0.1183 0.0
O57 O 0.97902 0.35858 0.20805 0.0
O58 O 0.96511 0.38257 0.17359 0.0
C59 C 0.92444 0.31244 0.21505 0.0
O60 O 0.93942 0.32044 0.1423 0.0
O61 O 0.96963 0.32904 0.1648 0.0
C62 C 0.9286 0.37432 0.1165 0.0
O63 O 0.91306 0.32461 0.19737 0.0
O64 O 0.94375 0.31481 0.21479 0.0
C65 C 0.94935 0.3649 0.26425 0.0
Fe66 Fe 0.12769 0.94036 0.69404 0.0
Fe67 Fe 0.16662 0.9239 0.65674 0.0
O68 O 0.15445 0.94202 0.68586 0.0
Fe69 Fe 0.16914 0.96185 0.70683 0.0
O70 O 0.16247 0.95281 0.75326 0.0
O71 O 0.1294 0.9498 0.74176 0.0
O72 O 0.12992 0.91466 0.71312 0.0
C73 C 0.13805 0.89962 0.69674 0.0
C74 C 0.13132 0.98186 0.69031 0.0
O75 O 0.14985 0.9024 0.66927 0.0
C76 C 0.18516 0.96146 0.6365 0.0
O77 O 0.1213 0.93044 0.6477 0.0
O78 O 0.15064 0.93086 0.61766 0.0
O79 O 0.14815 0.9806 0.70772 0.0
O80 O 0.12337 0.96607 0.67597 0.0
C81 C 0.19592 0.92753 0.71019 0.0
O82 O 0.18551 0.94208 0.63875 0.0
O83 O 0.17662 0.9721 0.66152 0.0
C84 C 0.13132 0.93036 0.61756 0.0
O85 O 0.18359 0.91569 0.69378 0.0
O86 O 0.19288 0.94673 0.7103 0.0
C87 C 0.1442 0.95052 0.7645 0.0
Fe88 Fe 0.57747 0.3384 0.84406 0.0
Fe89 Fe 0.54071 0.33594 0.79087 0.0
O90 O 0.56005 0.35055 0.81338 0.0
Fe91 Fe 0.56202 0.37728 0.80517 0.0
O92 O 0.58805 0.3748 0.78789 0.0
O93 O 0.59925 0.35531 0.83329 0.0
O94 O 0.58665 0.32141 0.80785 0.0
C95 C 0.57526 0.30922 0.79008 0.0
C96 C 0.57033 0.37378 0.88238 0.0
O97 O 0.55609 0.31232 0.78789 0.0
C98 C 0.52043 0.37376 0.80662 0.0
O99 O 0.55899 0.31925 0.86036 0.0
O100 O 0.52952 0.3281 0.83521 0.0
O101 O 0.57103 0.38364 0.85209 0.0
O102 O 0.56946 0.35446 0.88249 0.0
C103 C 0.55336 0.36092 0.73416 0.0
O104 O 0.52189 0.35691 0.78928 0.0
O105 O 0.53605 0.38177 0.82145 0.0
C106 C 0.53958 0.31868 0.85992 0.0
O107 O 0.55063 0.34272 0.74521 0.0
O108 O 0.55356 0.37573 0.75685 0.0
C109 C 0.6027 0.36697 0.80583 0.0
Fe110 Fe 0.16269 0.54764 0.28743 0.0
Fe111 Fe 0.12135 0.569 0.30112 0.0
O112 O 0.14799 0.56688 0.31005 0.0
Fe113 Fe 0.15995 0.5841 0.34126 0.0
O114 O 0.17735 0.59324 0.3057 0.0
O115 O 0.18647 0.56285 0.28531 0.0
O116 O 0.15628 0.558 0.24187 0.0
C117 C 0.13813 0.56059 0.23046 0.0
C118 C 0.17846 0.54585 0.3579 0.0
O119 O 0.12321 0.56038 0.25293 0.0
C120 C 0.12413 0.57783 0.37835 0.0
O121 O 0.14156 0.52894 0.28518 0.0
O122 O 0.11664 0.54305 0.31743 0.0
O123 O 0.17851 0.56529 0.35839 0.0
O124 O 0.1701 0.53611 0.33157 0.0
C125 C 0.13216 0.60957 0.30184 0.0
O126 O 0.11462 0.57828 0.3477 0.0
O127 O 0.14339 0.57629 0.37912 0.0
C128 C 0.1247 0.52743 0.30261 0.0
O129 O 0.12422 0.595 0.28378 0.0
O130 O 0.14346 0.60604 0.32974 0.0
C131 C 0.18943 0.58203 0.28742 0.0
Fe132 Fe 0.94097 0.12533 0.80482 0.0
Fe133 Fe 0.92436 0.16422 0.84186 0.0
O134 O 0.94187 0.15223 0.81126 0.0
Fe135 Fe 0.96015 0.16728 0.7869 0.0
O136 O 0.94978 0.15926 0.74227 0.0
O137 O 0.94858 0.12636 0.75598 0.0
O138 O 0.91459 0.12638 0.78869 0.0
C139 C 0.8999 0.13421 0.80653 0.0
C140 C 0.98231 0.13058 0.80327 0.0
O141 O 0.90329 0.14615 0.83352 0.0
C142 C 0.96152 0.18573 0.85479 0.0
O143 O 0.93297 0.11959 0.8526 0.0
O144 O 0.93366 0.14943 0.881 0.0
O145 O 0.97977 0.14708 0.78522 0.0
O146 O 0.9674 0.12232 0.81998 0.0
C147 C 0.92433 0.19204 0.78544 0.0
O148 O 0.94214 0.18457 0.85579 0.0
O149 O 0.97166 0.17627 0.83022 0.0
C150 C 0.93363 0.13008 0.8822 0.0
O151 O 0.91385 0.17973 0.80468 0.0
O152 O 0.94367 0.19016 0.7835 0.0
C153 C 0.9477 0.14076 0.73245 0.0
Fe154 Fe 0.38297 0.92974 0.31097 0.0
Fe155 Fe 0.34293 0.91887 0.35062 0.0
O156 O 0.3564 0.9341 0.31786 0.0
Fe157 Fe 0.34326 0.95332 0.29205 0.0
O158 O 0.35832 0.94946 0.24919 0.0
O159 O 0.37895 0.92374 0.26267 0.0
O160 O 0.38167 0.90206 0.31989 0.0
C161 C 0.36675 0.88966 0.31781 0.0
C162 C 0.37969 0.97321 0.30432 0.0
O163 O 0.34876 0.89543 0.32546 0.0
C164 C 0.32677 0.95666 0.36544 0.0
O165 O 0.38893 0.93533 0.35923 0.0
O166 O 0.36483 0.91537 0.38175 0.0
O167 O 0.36043 0.97352 0.30792 0.0
O168 O 0.38917 0.95645 0.30006 0.0
C169 C 0.31408 0.92292 0.29247 0.0
O170 O 0.33636 0.94125 0.37757 0.0
O171 O 0.32591 0.96039 0.33076 0.0
C172 C 0.38115 0.92559 0.38605 0.0
O173 O 0.31836 0.91944 0.3261 0.0
O174 O 0.32506 0.93484 0.27336 0.0
C175 C 0.37014 0.93502 0.23914 0.0
Fe176 Fe 0.44116 0.87387 0.80325 0.0
Fe177 Fe 0.46388 0.83313 0.7903 0.0
O178 O 0.44341 0.8471 0.8108 0.0
Fe179 Fe 0.42519 0.83415 0.83866 0.0
O180 O 0.40348 0.85042 0.82556 0.0
O181 O 0.4158 0.87112 0.78288 0.0
O182 O 0.45144 0.87292 0.75594 0.0
C183 C 0.45305 0.85832 0.73293 0.0
C184 C 0.42983 0.86926 0.87915 0.0
O185 O 0.45521 0.83997 0.74372 0.0
C186 C 0.46298 0.81642 0.86007 0.0
O187 O 0.46641 0.8787 0.82267 0.0
O188 O 0.48212 0.85469 0.79088 0.0
O189 O 0.43103 0.84997 0.87853 0.0
O190 O 0.43036 0.87956 0.84931 0.0
C191 C 0.43034 0.80542 0.78464 0.0
O192 O 0.47372 0.82552 0.83581 0.0
O193 O 0.44364 0.81563 0.85703 0.0
C194 C 0.48262 0.87148 0.80863 0.0
O195 O 0.44946 0.80896 0.78549 0.0
O196 O 0.418 0.81735 0.80074 0.0
C197 C 0.40076 0.86244 0.7984 0.0
Fe198 Fe 0.62294 0.42932 0.3072 0.0
Fe199 Fe 0.66099 0.45641 0.29363 0.0
O200 O 0.64889 0.43547 0.31664 0.0
Fe201 Fe 0.66263 0.42028 0.34888 0.0
O202 O 0.65883 0.39717 0.32139 0.0
O203 O 0.62572 0.40166 0.31518 0.0
O204 O 0.629 0.42438 0.25929 0.0
C205 C 0.63738 0.43687 0.23729 0.0
C206 C 0.62329 0.42406 0.38189 0.0
O207 O 0.64712 0.45243 0.24929 0.0
C208 C 0.67607 0.45857 0.36825 0.0
O209 O 0.61508 0.45568 0.29681 0.0
O210 O 0.64192 0.47461 0.31011 0.0
O211 O 0.64029 0.41487 0.3782 0.0
O212 O 0.61538 0.43368 0.35505 0.0
C213 C 0.69251 0.42848 0.29358 0.0
O214 O 0.67693 0.46372 0.33416 0.0
O215 O 0.66731 0.4422 0.37814 0.0
C216 C 0.62293 0.47296 0.30407 0.0
O217 O 0.68113 0.44018 0.27482 0.0
O218 O 0.68752 0.42304 0.32603 0.0
C219 C 0.64135 0.39023 0.31314 0.0
Fe220 Fe 0.07546 0.66486 0.84051 0.0
Fe221 Fe 0.06053 0.62634 0.8 0.0
O222 O 0.0581 0.65288 0.80966 0.0
Fe223 Fe 0.0384 0.66743 0.78802 0.0
O224 O 0.05307 0.69151 0.78636 0.0
O225 O 0.0839 0.68283 0.80515 0.0
O226 O 0.09754 0.64881 0.82787 0.0
C227 C 0.10094 0.63766 0.79973 0.0
C228 C 0.03709 0.68256 0.8589 0.0
O229 O 0.08632 0.62973 0.78183 0.0
C230 C 0.01894 0.62899 0.80278 0.0
O231 O 0.06832 0.6479 0.87813 0.0
O232 O 0.07038 0.61935 0.84613 0.0
O233 O 0.02711 0.67438 0.83265 0.0
O234 O 0.05651 0.68284 0.85884 0.0
C235 C 0.05129 0.64355 0.73009 0.0
O236 O 0.03481 0.62115 0.8171 0.0
O237 O 0.02006 0.64597 0.78561 0.0
C238 C 0.07003 0.62868 0.87697 0.0
O239 O 0.05138 0.62844 0.75215 0.0
O240 O 0.04858 0.66157 0.74205 0.0
C241 C 0.07215 0.69504 0.78828 0.0
Fe242 Fe 0.83776 0.07959 0.34839 0.0
Fe243 Fe 0.87782 0.07066 0.30779 0.0
O244 O 0.85158 0.065 0.3154 0.0
Fe245 Fe 0.83927 0.04517 0.28981 0.0
O246 O 0.82002 0.06265 0.27158 0.0
O247 O 0.81309 0.078 0.32432 0.0
O248 O 0.84252 0.10338 0.32309 0.0
C249 C 0.86031 0.10998 0.31598 0.0
C250 C 0.82318 0.04112 0.36342 0.0
O251 O 0.8756 0.0981 0.3181 0.0
C252 C 0.87666 0.02719 0.30097 0.0
O253 O 0.85979 0.08367 0.37909 0.0
O254 O 0.88448 0.06476 0.3555 0.0
O255 O 0.82246 0.03724 0.32878 0.0
O256 O 0.83219 0.05693 0.37537 0.0
C257 C 0.86435 0.06549 0.23658 0.0
O258 O 0.8851 0.0444 0.29551 0.0
O259 O 0.85751 0.0259 0.30551 0.0
C260 C 0.87647 0.07392 0.38274 0.0
O261 O 0.8727 0.0771 0.2601 0.0
O262 O 0.85399 0.04992 0.24665 0.0
C263 C 0.80848 0.07383 0.29108 0.0
Fe264 Fe 0.43111 0.61982 0.18488 0.0
Fe265 Fe 0.4574 0.65771 0.20366 0.0
O266 O 0.4373 0.64598 0.17798 0.0
Fe267 Fe 0.42294 0.6605 0.14561 0.0
O268 O 0.3993 0.65629 0.17133 0.0
O269 O 0.40356 0.62298 0.17595 0.0
O270 O 0.42531 0.62442 0.23309 0.0
C271 C 0.43716 0.6325 0.25654 0.0
C272 C 0.42699 0.62201 0.10995 0.0
O273 O 0.45279 0.64267 0.24635 0.0
C274 C 0.46154 0.67429 0.13041 0.0
O275 O 0.45739 0.61192 0.19589 0.0
O276 O 0.47633 0.63939 0.18705 0.0
O277 O 0.41777 0.63889 0.11459 0.0
O278 O 0.43631 0.61355 0.1366 0.0
C279 C 0.42904 0.6887 0.20398 0.0
O280 O 0.46534 0.67486 0.16511 0.0
O281 O 0.44563 0.6655 0.11834 0.0
C282 C 0.47477 0.62021 0.19113 0.0
O283 O 0.44005 0.67678 0.22295 0.0
O284 O 0.42546 0.68496 0.17018 0.0
C285 C 0.39229 0.63872 0.17895 0.0
Fe286 Fe 0.87635 0.43196 0.68786 0.0
Fe287 Fe 0.83758 0.45753 0.70394 0.0
O288 O 0.85016 0.43744 0.67951 0.0
Fe289 Fe 0.83662 0.42235 0.64682 0.0
O290 O 0.84112 0.39903 0.67341 0.0
O291 O 0.87419 0.40437 0.67866 0.0
O292 O 0.871 0.42611 0.73577 0.0
C293 C 0.86221 0.43784 0.75862 0.0
C294 C 0.87546 0.42779 0.61294 0.0
O295 O 0.8518 0.45319 0.74773 0.0
C296 C 0.82216 0.46052 0.62958 0.0
O297 O 0.88355 0.45835 0.69931 0.0
O298 O 0.85599 0.47669 0.68834 0.0
O299 O 0.85892 0.41781 0.61691 0.0
O300 O 0.88322 0.43736 0.63997 0.0
C301 C 0.80683 0.42871 0.70292 0.0
O302 O 0.82122 0.46501 0.66399 0.0
O303 O 0.83133 0.44458 0.61869 0.0
C304 C 0.8751 0.4755 0.69351 0.0
O305 O 0.81813 0.44022 0.72221 0.0
O306 O 0.81171 0.42422 0.66996 0.0
C307 C 0.85884 0.39256 0.68122 0.0
Fe308 Fe 0.04676 0.84568 0.20357 0.0
Fe309 Fe 0.08058 0.84509 0.14407 0.0
O310 O 0.06624 0.85851 0.17794 0.0
Fe311 Fe 0.07175 0.88469 0.18635 0.0
O312 O 0.07819 0.87926 0.234 0.0
O313 O 0.05129 0.86012 0.24697 0.0
O314 O 0.06476 0.8267 0.22104 0.0
C315 C 0.0757 0.81534 0.20078 0.0
C316 C 0.02819 0.88285 0.19364 0.0
O317 O 0.07913 0.82011 0.16729 0.0
C318 C 0.0752 0.88429 0.11128 0.0
O319 O 0.03902 0.82894 0.16447 0.0
O320 O 0.05763 0.83999 0.11739 0.0
O321 O 0.04534 0.89156 0.19871 0.0
O322 O 0.02717 0.86372 0.18853 0.0
C323 C 0.1111 0.86722 0.17713 0.0
O324 O 0.08467 0.86743 0.1142 0.0
O325 O 0.06593 0.89191 0.13878 0.0
C326 C 0.04217 0.83054 0.12973 0.0
O327 O 0.10449 0.84955 0.16903 0.0
O328 O 0.09924 0.88258 0.17611 0.0
C329 C 0.06664 0.87065 0.25734 0.0
Fe330 Fe 0.62593 0.06318 0.69309 0.0
Fe331 Fe 0.66662 0.04064 0.70692 0.0
O332 O 0.65273 0.06094 0.68586 0.0
Fe333 Fe 0.66582 0.07904 0.65798 0.0
O334 O 0.6494 0.10085 0.67026 0.0
O335 O 0.62865 0.08866 0.71299 0.0
O336 O 0.6268 0.05329 0.74074 0.0
C337 C 0.64145 0.05243 0.76379 0.0
C338 C 0.63097 0.07407 0.61695 0.0
O339 O 0.65976 0.04987 0.7531 0.0
C340 C 0.68345 0.0411 0.63733 0.0
O341 O 0.62114 0.03777 0.67427 0.0
O342 O 0.64508 0.02243 0.70679 0.0
O343 O 0.65025 0.07296 0.61801 0.0
O344 O 0.62043 0.07362 0.64657 0.0
C345 C 0.69425 0.07411 0.71253 0.0
O346 O 0.67425 0.03048 0.66166 0.0
O347 O 0.68443 0.06045 0.6403 0.0
C348 C 0.62842 0.02169 0.68868 0.0
O349 O 0.69077 0.05501 0.71146 0.0
O350 O 0.68243 0.08645 0.69614 0.0
C351 C 0.63728 0.10363 0.69723 0.0
H352 H 0.61901 0.19944 0.2102 0.0
H353 H 0.63464 0.23113 0.2333 0.0
H354 H 0.5751 0.25288 0.26763 0.0
H355 H 0.55941 0.22123 0.24531 0.0
H356 H 0.62697 0.27006 0.20915 0.0
H357 H 0.60926 0.26448 0.35911 0.0
H358 H 0.60729 0.24276 0.32816 0.0
H359 H 0.58676 0.26118 0.33105 0.0
C360 C 0.60926 0.21085 0.2231 0.0
C361 C 0.58793 0.20778 0.22588 0.0
C362 C 0.61824 0.22895 0.23627 0.0
C363 C 0.60609 0.24424 0.25269 0.0
C364 C 0.58485 0.2411 0.2559 0.0
H365 H 0.60517 0.36979 0.30497 0.0
H366 H 0.59992 0.33355 0.29157 0.0
C367 C 0.57588 0.22302 0.24286 0.0
C368 C 0.61525 0.26411 0.26411 0.0
H369 H 0.61692 0.29836 0.33584 0.0
C370 C 0.62517 0.27609 0.23705 0.0
C371 C 0.61298 0.27192 0.30057 0.0
C372 C 0.60368 0.25931 0.33147 0.0
C373 C 0.63175 0.29616 0.24493 0.0
C374 C 0.62841 0.30432 0.28078 0.0
C375 C 0.61937 0.29203 0.3083 0.0
C376 C 0.63223 0.3262 0.28918 0.0
C377 C 0.64123 0.30892 0.21443 0.0
C378 C 0.65222 0.33404 0.29237 0.0
C379 C 0.65534 0.35488 0.30021 0.0
C380 C 0.63849 0.36814 0.30484 0.0
C381 C 0.61852 0.36009 0.30155 0.0
C382 C 0.61545 0.33935 0.29398 0.0
H383 H 0.64107 0.30091 0.18717 0.0
H384 H 0.63289 0.32369 0.21161 0.0
H385 H 0.65738 0.31252 0.22172 0.0
H386 H 0.66535 0.32404 0.28893 0.0
H387 H 0.6709 0.36059 0.30254 0.0
H388 H 0.28739 0.60942 0.68931 0.0
H389 H 0.25319 0.6211 0.70699 0.0
H390 H 0.2459 0.56794 0.77729 0.0
H391 H 0.27982 0.5557 0.75845 0.0
H392 H 0.21323 0.57284 0.73643 0.0
H393 H 0.23223 0.64807 0.79855 0.0
H394 H 0.24163 0.64607 0.75188 0.0
H395 H 0.25164 0.62935 0.78741 0.0
C396 C 0.27865 0.60036 0.70899 0.0
C397 C 0.28633 0.58163 0.72252 0.0
C398 C 0.2591 0.60713 0.71925 0.0
C399 C 0.24703 0.59559 0.74397 0.0
C400 C 0.25491 0.57714 0.75823 0.0
H401 H 0.13449 0.64012 0.84479 0.0
H402 H 0.16956 0.62947 0.83102 0.0
C403 C 0.27433 0.57018 0.74752 0.0
C404 C 0.22572 0.60204 0.75305 0.0
H405 H 0.19691 0.64243 0.78348 0.0
C406 C 0.20969 0.58801 0.74702 0.0
C407 C 0.22107 0.62175 0.76728 0.0
C408 C 0.23758 0.63708 0.77703 0.0
C409 C 0.18918 0.59317 0.75441 0.0
C410 C 0.18443 0.61321 0.7669 0.0
C411 C 0.20049 0.62717 0.77338 0.0
C412 C 0.16302 0.61983 0.77467 0.0
C413 C 0.17293 0.57687 0.74961 0.0
C414 C 0.14764 0.61826 0.74742 0.0
C415 C 0.12743 0.62404 0.75544 0.0
C416 C 0.12234 0.63197 0.79058 0.0
C417 C 0.1379 0.63411 0.8174 0.0
C418 C 0.15798 0.62802 0.80957 0.0
H419 H 0.17958 0.5612 0.75119 0.0
H420 H 0.16077 0.57823 0.7711 0.0
H421 H 0.16573 0.57858 0.72184 0.0
H422 H 0.15124 0.6126 0.7199 0.0
H423 H 0.11583 0.62244 0.73406 0.0
H424 H 0.83194 0.14083 0.30485 0.0
H425 H 0.83904 0.1768 0.28839 0.0
H426 H 0.90401 0.16463 0.29257 0.0
H427 H 0.89723 0.12903 0.30842 0.0
H428 H 0.86294 0.20751 0.3264 0.0
H429 H 0.89558 0.18883 0.18837 0.0
H430 H 0.88034 0.17079 0.21468 0.0
H431 H 0.90711 0.17432 0.22525 0.0
C432 C 0.84772 0.14587 0.30232 0.0
C433 C 0.86399 0.13198 0.30768 0.0
C434 C 0.85174 0.16639 0.29294 0.0
C435 C 0.87205 0.17325 0.2886 0.0
C436 C 0.88823 0.15956 0.29497 0.0
H437 H 0.94469 0.27917 0.24349 0.0
H438 H 0.92992 0.2464 0.26298 0.0
C439 C 0.88427 0.13918 0.3042 0.0
C440 C 0.87673 0.19463 0.27729 0.0
H441 H 0.90346 0.22215 0.2126 0.0
C442 C 0.87151 0.21081 0.30125 0.0
C443 C 0.88784 0.19887 0.24437 0.0
C444 C 0.89287 0.18231 0.21649 0.0
C445 C 0.87804 0.23101 0.294 0.0
C446 C 0.88996 0.23501 0.26197 0.0
C447 C 0.89451 0.21896 0.23738 0.0
C448 C 0.89846 0.25559 0.25374 0.0
C449 C 0.87289 0.24781 0.32125 0.0
C450 C 0.8856 0.27168 0.24249 0.0
C451 C 0.89399 0.29044 0.23114 0.0
C452 C 0.91541 0.29342 0.23083 0.0
C453 C 0.92816 0.27745 0.24337 0.0
C454 C 0.91976 0.25869 0.25448 0.0
H455 H 0.86606 0.24169 0.3473 0.0
H456 H 0.88687 0.25675 0.3283 0.0
H457 H 0.86173 0.25851 0.30835 0.0
H458 H 0.86914 0.2695 0.24134 0.0
H459 H 0.88371 0.30242 0.22172 0.0
H460 H 0.36523 0.84569 0.82471 0.0
H461 H 0.3301 0.85534 0.80938 0.0
H462 H 0.35264 0.90103 0.73283 0.0
H463 H 0.38801 0.89129 0.74762 0.0
H464 H 0.31211 0.8932 0.81948 0.0
H465 H 0.30985 0.87022 0.67096 0.0
H466 H 0.32975 0.86177 0.70232 0.0
H467 H 0.33064 0.88712 0.68269 0.0
C468 C 0.36279 0.85771 0.80437 0.0
C469 C 0.37949 0.86774 0.78743 0.0
C470 C 0.34266 0.8632 0.79568 0.0
C471 C 0.33875 0.87876 0.76976 0.0
C472 C 0.35532 0.88872 0.75245 0.0
H473 H 0.22707 0.94881 0.74344 0.0
H474 H 0.2612 0.93626 0.75959 0.0
C475 C 0.37553 0.8832 0.76108 0.0
C476 C 0.3173 0.88509 0.76221 0.0
H477 H 0.28144 0.88939 0.6935 0.0
C478 C 0.30537 0.89231 0.79196 0.0
C479 C 0.30848 0.88365 0.7264 0.0
C480 C 0.32025 0.87509 0.69378 0.0
C481 C 0.28494 0.89846 0.78675 0.0
C482 C 0.27633 0.89766 0.75072 0.0
C483 C 0.28813 0.8901 0.72107 0.0
C484 C 0.25521 0.90491 0.74299 0.0
C485 C 0.27268 0.90554 0.81994 0.0
C486 C 0.24052 0.89147 0.72814 0.0
C487 C 0.22097 0.89861 0.71873 0.0
C488 C 0.21581 0.91939 0.7237 0.0
C489 C 0.23047 0.93271 0.73933 0.0
C490 C 0.24999 0.92555 0.74874 0.0
H491 H 0.27946 0.90002 0.84645 0.0
H492 H 0.27253 0.92256 0.82064 0.0
H493 H 0.25655 0.9001 0.81823 0.0
H494 H 0.24428 0.87549 0.72344 0.0
H495 H 0.21009 0.88793 0.70673 0.0
H496 H 0.55896 0.28294 0.73888 0.0
H497 H 0.57083 0.2484 0.72332 0.0
H498 H 0.62159 0.25533 0.79925 0.0
H499 H 0.61032 0.29018 0.81371 0.0
H500 H 0.63387 0.23624 0.73932 0.0
H501 H 0.56224 0.19922 0.78759 0.0
H502 H 0.55745 0.21746 0.75133 0.0
H503 H 0.56751 0.22604 0.79532 0.0
C504 C 0.57276 0.27716 0.752 0.0
C505 C 0.58361 0.28923 0.77771 0.0
C506 C 0.57941 0.25733 0.74337 0.0
C507 C 0.59674 0.24899 0.76098 0.0
C508 C 0.60807 0.26134 0.78555 0.0
H509 H 0.62061 0.11689 0.76292 0.0
H510 H 0.61202 0.15221 0.78036 0.0
C511 C 0.60163 0.28129 0.79372 0.0
C512 C 0.60305 0.22742 0.75396 0.0
H513 H 0.58535 0.17807 0.75325 0.0
C514 C 0.62329 0.22351 0.7426 0.0
C515 C 0.58942 0.2107 0.75913 0.0
C516 C 0.56803 0.21352 0.77441 0.0
C517 C 0.63012 0.20347 0.73536 0.0
C518 C 0.61611 0.18691 0.73824 0.0
C519 C 0.59603 0.19076 0.75052 0.0
C520 C 0.62183 0.16554 0.72811 0.0
C521 C 0.6524 0.2003 0.72542 0.0
C522 C 0.62996 0.16121 0.69285 0.0
C523 C 0.63517 0.14114 0.6831 0.0
C524 C 0.63187 0.12486 0.70807 0.0
C525 C 0.62332 0.12911 0.74309 0.0
C526 C 0.61842 0.14929 0.75307 0.0
H527 H 0.66217 0.21278 0.73681 0.0
H528 H 0.6582 0.1854 0.73605 0.0
H529 H 0.65409 0.20051 0.69474 0.0
H530 H 0.63208 0.17332 0.6726 0.0
H531 H 0.64146 0.13835 0.65569 0.0
H532 H 0.36076 0.66659 0.17284 0.0
H533 H 0.32457 0.6613 0.18963 0.0
H534 H 0.33845 0.59967 0.22505 0.0
H535 H 0.37438 0.60466 0.20826 0.0
H536 H 0.29768 0.62483 0.16174 0.0
H537 H 0.30803 0.63091 0.3148 0.0
H538 H 0.3255 0.64263 0.28201 0.0
H539 H 0.32653 0.6155 0.29029 0.0
C540 C 0.35609 0.65193 0.18423 0.0
C541 C 0.37043 0.63602 0.18907 0.0
C542 C 0.33544 0.64894 0.19372 0.0
C543 C 0.32897 0.63014 0.2087 0.0
C544 C 0.34323 0.61432 0.2137 0.0
H545 H 0.21802 0.56341 0.2431 0.0
H546 H 0.25071 0.57753 0.22164 0.0
C547 C 0.36374 0.61719 0.20393 0.0
C548 C 0.30727 0.62668 0.21888 0.0
H549 H 0.27629 0.61738 0.29347 0.0
C550 C 0.29288 0.62346 0.1905 0.0
C551 C 0.30114 0.62501 0.25642 0.0
C552 C 0.31602 0.62882 0.28778 0.0
C553 C 0.27258 0.61779 0.19879 0.0
C554 C 0.26669 0.6152 0.23633 0.0
C555 C 0.2809 0.61928 0.2647 0.0
C556 C 0.24619 0.60731 0.24686 0.0
C557 C 0.25765 0.61437 0.16737 0.0
C558 C 0.23287 0.61937 0.26829 0.0
C559 C 0.21415 0.61136 0.2806 0.0
C560 C 0.20855 0.59102 0.27214 0.0
C561 C 0.22184 0.57911 0.25016 0.0
C562 C 0.24048 0.58719 0.23767 0.0
H563 H 0.26289 0.62187 0.1413 0.0
H564 H 0.25624 0.59766 0.16202 0.0
H565 H 0.2422 0.62033 0.17465 0.0
H566 H 0.23708 0.6349 0.27584 0.0
H567 H 0.20431 0.62098 0.29748 0.0
H568 H 0.83012 0.36211 0.69246 0.0
H569 H 0.83666 0.32631 0.71048 0.0
H570 H 0.90178 0.33798 0.7087 0.0
H571 H 0.89553 0.37347 0.69132 0.0
H572 H 0.86065 0.29526 0.6742 0.0
H573 H 0.89177 0.31459 0.81304 0.0
H574 H 0.87704 0.33258 0.78575 0.0
H575 H 0.90391 0.32881 0.77642 0.0
C576 C 0.84582 0.35701 0.69588 0.0
C577 C 0.86228 0.37071 0.69069 0.0
C578 C 0.84951 0.33659 0.70615 0.0
C579 C 0.86969 0.32966 0.71156 0.0
C580 C 0.88609 0.34315 0.70546 0.0
H581 H 0.94289 0.22509 0.75289 0.0
H582 H 0.92693 0.25732 0.73383 0.0
C583 C 0.88245 0.36345 0.69534 0.0
C584 C 0.874 0.30836 0.72354 0.0
H585 H 0.90014 0.28118 0.78934 0.0
C586 C 0.86894 0.29207 0.69968 0.0
C587 C 0.88472 0.30428 0.75693 0.0
C588 C 0.88949 0.32097 0.7847 0.0
C589 C 0.87539 0.27193 0.70743 0.0
C590 C 0.88709 0.26815 0.73974 0.0
C591 C 0.89134 0.28425 0.76436 0.0
C592 C 0.89608 0.24783 0.74776 0.0
C593 C 0.8705 0.25495 0.6804 0.0
C594 C 0.88391 0.2318 0.76149 0.0
C595 C 0.89298 0.21334 0.77263 0.0
C596 C 0.91439 0.21068 0.77022 0.0
C597 C 0.92639 0.22659 0.75519 0.0
C598 C 0.91732 0.24503 0.74428 0.0
H599 H 0.86251 0.26069 0.65518 0.0
H600 H 0.88484 0.24706 0.67184 0.0
H601 H 0.86055 0.2434 0.69418 0.0
H602 H 0.86749 0.23379 0.76461 0.0
H603 H 0.88328 0.20137 0.78396 0.0
H604 H 0.14192 0.83852 0.18446 0.0
H605 H 0.17785 0.84488 0.20187 0.0
H606 H 0.16582 0.90986 0.20621 0.0
H607 H 0.13019 0.90379 0.18928 0.0
H608 H 0.20891 0.87099 0.16729 0.0
H609 H 0.18884 0.89564 0.31031 0.0
H610 H 0.17124 0.88165 0.28099 0.0
H611 H 0.17477 0.90879 0.27462 0.0
C612 C 0.14697 0.85416 0.18897 0.0
C613 C 0.13311 0.87062 0.18573 0.0
C614 C 0.16748 0.85775 0.19886 0.0
C615 C 0.17436 0.87781 0.20582 0.0
C616 C 0.16072 0.89424 0.20155 0.0
H617 H 0.29491 0.9327 0.22666 0.0
H618 H 0.26183 0.91985 0.20409 0.0
C619 C 0.14033 0.89071 0.19176 0.0
C620 C 0.19563 0.88183 0.21843 0.0
H621 H 0.22277 0.90303 0.28982 0.0
C622 C 0.21203 0.87781 0.1942 0.0
C623 C 0.19963 0.89052 0.2537 0.0
C624 C 0.18273 0.89424 0.28159 0.0
C625 C 0.23232 0.88288 0.20393 0.0
C626 C 0.23617 0.89245 0.23855 0.0
C627 C 0.2198 0.89587 0.26314 0.0
C628 C 0.25701 0.89906 0.25023 0.0
C629 C 0.24942 0.87782 0.17722 0.0
C630 C 0.26521 0.89182 0.2838 0.0
C631 C 0.28391 0.8993 0.29697 0.0
C632 C 0.29487 0.91426 0.27688 0.0
C633 C 0.28689 0.92115 0.24276 0.0
C634 C 0.26806 0.91371 0.22968 0.0
H635 H 0.24482 0.8656 0.15735 0.0
H636 H 0.25335 0.89173 0.16091 0.0
H637 H 0.26339 0.87274 0.19229 0.0
H638 H 0.25695 0.88055 0.30017 0.0
H639 H 0.28964 0.89352 0.32321 0.0
H640 H 0.39126 0.61345 0.74744 0.0
H641 H 0.40189 0.64861 0.76181 0.0
H642 H 0.36049 0.67171 0.67825 0.0
H643 H 0.34996 0.63674 0.66333 0.0
H644 H 0.39947 0.68855 0.67338 0.0
H645 H 0.36964 0.6928 0.81774 0.0
H646 H 0.38631 0.67139 0.80909 0.0
H647 H 0.36201 0.67292 0.78565 0.0
C648 C 0.38432 0.62601 0.73226 0.0
C649 C 0.36976 0.62223 0.7042 0.0
C650 C 0.39035 0.6461 0.74065 0.0
C651 C 0.38182 0.66278 0.72136 0.0
C652 C 0.36724 0.65907 0.69351 0.0
H653 H 0.39067 0.79145 0.78256 0.0
H654 H 0.37874 0.75726 0.76481 0.0
C655 C 0.36122 0.63903 0.68508 0.0
C656 C 0.38849 0.6841 0.72927 0.0
H657 H 0.39057 0.72046 0.79748 0.0
C658 C 0.39749 0.69556 0.70048 0.0
C659 C 0.38565 0.69329 0.76451 0.0
C660 C 0.37521 0.68207 0.79597 0.0
C661 C 0.40399 0.71587 0.70613 0.0
C662 C 0.40169 0.72485 0.74166 0.0
C663 C 0.39243 0.71349 0.77031 0.0
C664 C 0.40884 0.74598 0.74987 0.0
C665 C 0.41297 0.72764 0.67385 0.0
C666 C 0.42972 0.75105 0.74705 0.0
C667 C 0.4366 0.7706 0.75705 0.0
C668 C 0.42276 0.78544 0.77039 0.0
C669 C 0.40177 0.78043 0.77242 0.0
C670 C 0.39491 0.76087 0.76238 0.0
H671 H 0.40865 0.72069 0.64676 0.0
H672 H 0.40782 0.74388 0.67417 0.0
H673 H 0.42995 0.72745 0.67595 0.0
H674 H 0.44079 0.73969 0.73807 0.0
H675 H 0.45287 0.77388 0.75528 0.0
H676 H 0.71608 0.39645 0.31628 0.0
H677 H 0.75109 0.38827 0.29745 0.0
H678 H 0.75083 0.43947 0.22141 0.0
H679 H 0.71538 0.44738 0.23933 0.0
H680 H 0.76912 0.40672 0.19101 0.0
H681 H 0.80099 0.41911 0.33164 0.0
H682 H 0.781 0.40021 0.33197 0.0
H683 H 0.77514 0.42633 0.31946 0.0
C684 C 0.72343 0.40594 0.29543 0.0
C685 C 0.71305 0.4227 0.27958 0.0
C686 C 0.74351 0.40134 0.28491 0.0
C687 C 0.75381 0.41363 0.25888 0.0
C688 C 0.74324 0.42991 0.24188 0.0
H689 H 0.88715 0.40527 0.23463 0.0
H690 H 0.85228 0.41713 0.24792 0.0
C691 C 0.72299 0.43438 0.25206 0.0
C692 C 0.77559 0.40937 0.24951 0.0
H693 H 0.82266 0.40137 0.28855 0.0
C694 C 0.78088 0.40573 0.21228 0.0
C695 C 0.79104 0.40856 0.27714 0.0
C696 C 0.78681 0.41399 0.31721 0.0
C697 C 0.80103 0.40054 0.20211 0.0
C698 C 0.81615 0.39834 0.23011 0.0
C699 C 0.81101 0.40273 0.26715 0.0
C700 C 0.83731 0.39122 0.22174 0.0
C701 C 0.8059 0.39773 0.16142 0.0
C702 C 0.84053 0.37251 0.20332 0.0
C703 C 0.8604 0.36583 0.19534 0.0
C704 C 0.87751 0.37751 0.2063 0.0
C705 C 0.8743 0.39593 0.2258 0.0
C706 C 0.85437 0.40274 0.23334 0.0
H707 H 0.79504 0.40644 0.14358 0.0
H708 H 0.82176 0.40279 0.15487 0.0
H709 H 0.80441 0.38126 0.15413 0.0
H710 H 0.82766 0.36299 0.19523 0.0
H711 H 0.86236 0.35143 0.18074 0.0
H712 H 0.11004 0.88708 0.74918 0.0
H713 H 0.10011 0.85184 0.76449 0.0
H714 H 0.14353 0.82886 0.6842 0.0
H715 H 0.15333 0.86391 0.66831 0.0
H716 H 0.10563 0.81094 0.67743 0.0
H717 H 0.13173 0.80901 0.82419 0.0
H718 H 0.11464 0.82983 0.81375 0.0
H719 H 0.1395 0.82887 0.79214 0.0
C720 C 0.11757 0.87453 0.73494 0.0
C721 C 0.13246 0.87836 0.70746 0.0
C722 C 0.11196 0.85439 0.74388 0.0
C723 C 0.12126 0.83771 0.72579 0.0
C724 C 0.13619 0.84149 0.69856 0.0
H725 H 0.11174 0.70934 0.79171 0.0
H726 H 0.12421 0.7435 0.77458 0.0
C727 C 0.14177 0.86157 0.68954 0.0
C728 C 0.11492 0.81632 0.73405 0.0
H729 H 0.11152 0.78082 0.80361 0.0
C730 C 0.10699 0.80432 0.70499 0.0
C731 C 0.11697 0.80763 0.76989 0.0
C732 C 0.12635 0.81941 0.80174 0.0
C733 C 0.10071 0.78397 0.71093 0.0
C734 C 0.10207 0.77552 0.74706 0.0
C735 C 0.11035 0.78738 0.77598 0.0
C736 C 0.0947 0.7545 0.7556 0.0
C737 C 0.09292 0.77164 0.67836 0.0
C738 C 0.07399 0.74934 0.75051 0.0
C739 C 0.06682 0.72984 0.7601 0.0
C740 C 0.0802 0.71512 0.77534 0.0
C741 C 0.10102 0.72027 0.78 0.0
C742 C 0.10817 0.7398 0.77033 0.0
H743 H 0.09822 0.77815 0.65147 0.0
H744 H 0.09802 0.75542 0.68018 0.0
H745 H 0.07589 0.77187 0.6784 0.0
H746 H 0.06324 0.76057 0.73985 0.0
H747 H 0.05068 0.72648 0.7563 0.0
H748 H 0.63789 0.1409 0.15102 0.0
H749 H 0.67304 0.13042 0.16433 0.0
H750 H 0.65211 0.09684 0.26047 0.0
H751 H 0.6167 0.10695 0.24698 0.0
H752 H 0.69611 0.13848 0.22534 0.0
H753 H 0.68732 0.05443 0.20736 0.0
H754 H 0.66816 0.07252 0.19193 0.0
H755 H 0.66958 0.06526 0.2401 0.0
C756 C 0.64068 0.13119 0.17493 0.0
C757 C 0.62442 0.12468 0.19784 0.0
C758 C 0.66082 0.12521 0.18246 0.0
C759 C 0.66518 0.11259 0.21302 0.0
C760 C 0.64904 0.10619 0.23621 0.0
H761 H 0.78011 0.09763 0.32632 0.0
H762 H 0.74605 0.10721 0.30469 0.0
C763 C 0.62883 0.11209 0.2286 0.0
C764 C 0.68672 0.10686 0.22132 0.0
H765 H 0.71863 0.06596 0.23467 0.0
C766 C 0.70106 0.12262 0.22715 0.0
C767 C 0.69324 0.08617 0.22305 0.0
C768 C 0.67883 0.06861 0.21492 0.0
C769 C 0.7216 0.11826 0.23568 0.0
C770 C 0.72789 0.09758 0.23914 0.0
C771 C 0.71372 0.0818 0.23227 0.0
C772 C 0.74887 0.09204 0.25147 0.0
C773 C 0.73641 0.13585 0.24072 0.0
C774 C 0.76169 0.07998 0.22896 0.0
C775 C 0.78127 0.07432 0.24135 0.0
C776 C 0.78825 0.0805 0.27663 0.0
C777 C 0.77532 0.09264 0.29895 0.0
C778 C 0.75583 0.09826 0.28656 0.0
H779 H 0.73092 0.14996 0.22652 0.0
H780 H 0.73787 0.13935 0.27079 0.0
H781 H 0.75186 0.13193 0.22983 0.0
H782 H 0.75654 0.07494 0.20183 0.0
H783 H 0.79079 0.06492 0.22351 0.0
H784 H 0.40045 0.87427 0.28342 0.0
H785 H 0.40831 0.83853 0.26978 0.0
H786 H 0.35119 0.81986 0.32027 0.0
H787 H 0.34285 0.85589 0.33291 0.0
H788 H 0.41409 0.80703 0.31563 0.0
H789 H 0.34821 0.79024 0.22243 0.0
H790 H 0.35452 0.81594 0.23706 0.0
H791 H 0.34112 0.79889 0.26802 0.0
C792 C 0.38949 0.86259 0.29153 0.0
C793 C 0.37101 0.8679 0.30922 0.0
C794 C 0.39403 0.84214 0.28375 0.0
C795 C 0.38028 0.8265 0.29368 0.0
C796 C 0.36184 0.8317 0.31162 0.0
H797 H 0.42528 0.69891 0.27767 0.0
H798 H 0.41204 0.7311 0.30356 0.0
C799 C 0.35713 0.85227 0.31898 0.0
C800 C 0.38566 0.80485 0.28538 0.0
H801 H 0.37076 0.76291 0.23539 0.0
C802 C 0.40457 0.79732 0.29823 0.0
C803 C 0.37326 0.79226 0.26253 0.0
C804 C 0.35324 0.79975 0.2464 0.0
C805 C 0.41178 0.77787 0.28784 0.0
C806 C 0.39941 0.76529 0.26491 0.0
C807 C 0.38018 0.77254 0.25311 0.0
C808 C 0.40683 0.74539 0.25002 0.0
C809 C 0.433 0.77145 0.30001 0.0
C810 C 0.40772 0.74248 0.21142 0.0
C811 C 0.4149 0.72406 0.19665 0.0
C812 C 0.42153 0.70816 0.22016 0.0
C813 C 0.42054 0.711 0.25887 0.0
C814 C 0.41305 0.7294 0.27368 0.0
H815 H 0.44229 0.78473 0.30958 0.0
H816 H 0.43169 0.7605 0.32351 0.0
H817 H 0.44135 0.76373 0.27703 0.0
H818 H 0.40303 0.75459 0.19261 0.0
H819 H 0.41546 0.7224 0.16671 0.0
H820 H 0.63765 0.3566 0.84355 0.0
H821 H 0.67279 0.36742 0.83039 0.0
H822 H 0.65164 0.40151 0.73508 0.0
H823 H 0.61633 0.39106 0.74834 0.0
H824 H 0.69646 0.36063 0.76915 0.0
H825 H 0.68558 0.44416 0.79033 0.0
H826 H 0.66684 0.4254 0.80495 0.0
H827 H 0.66809 0.43337 0.75712 0.0
C828 C 0.64041 0.36645 0.81981 0.0
C829 C 0.6241 0.37308 0.79715 0.0
C830 C 0.66054 0.37262 0.81236 0.0
C831 C 0.66481 0.38558 0.78218 0.0
C832 C 0.64864 0.39192 0.75908 0.0
H833 H 0.77872 0.40455 0.66766 0.0
H834 H 0.74508 0.39386 0.68985 0.0
C835 C 0.62848 0.38581 0.76656 0.0
C836 C 0.68625 0.39193 0.77429 0.0
H837 H 0.71699 0.43384 0.76175 0.0
C838 C 0.70098 0.37664 0.7678 0.0
C839 C 0.69223 0.4128 0.77318 0.0
C840 C 0.67742 0.42989 0.78213 0.0
C841 C 0.72137 0.38166 0.75903 0.0
C842 C 0.72708 0.40255 0.75603 0.0
C843 C 0.71254 0.41784 0.76374 0.0
C844 C 0.74781 0.40882 0.74329 0.0
C845 C 0.73661 0.36454 0.75318 0.0
C846 C 0.76042 0.42119 0.76568 0.0
C847 C 0.77975 0.42749 0.75294 0.0
C848 C 0.7867 0.42167 0.71745 0.0
C849 C 0.77396 0.40928 0.6952 0.0
C850 C 0.75472 0.40302 0.70792 0.0
H851 H 0.73163 0.35019 0.76723 0.0
H852 H 0.7379 0.36128 0.723 0.0
H853 H 0.75204 0.36884 0.76371 0.0
H854 H 0.75531 0.42594 0.793 0.0
H855 H 0.78913 0.43705 0.77076 0.0
H856 H 0.06887 0.79786 0.26927 0.0
H857 H 0.07945 0.76367 0.29027 0.0
H858 H 0.10843 0.75274 0.18437 0.0
H859 H 0.09827 0.78678 0.16335 0.0
H860 H 0.06913 0.72594 0.25901 0.0
H861 H 0.15341 0.73721 0.25796 0.0
H862 H 0.13555 0.75835 0.25624 0.0
H863 H 0.14144 0.74408 0.2148 0.0
C864 C 0.07767 0.78826 0.25058 0.0
C865 C 0.08274 0.79511 0.21464 0.0
C866 C 0.08366 0.76872 0.26261 0.0
C867 C 0.09496 0.75579 0.23905 0.0
C868 C 0.1001 0.76262 0.20328 0.0
H869 H 0.10803 0.62354 0.24464 0.0
H870 H 0.09877 0.65911 0.23072 0.0
C871 C 0.09415 0.78208 0.19126 0.0
C872 C 0.10067 0.73479 0.25101 0.0
H873 H 0.14156 0.70256 0.26133 0.0
C874 C 0.08497 0.72086 0.25984 0.0
C875 C 0.12135 0.72825 0.25244 0.0
C876 C 0.13893 0.7428 0.24522 0.0
C877 C 0.08937 0.70038 0.26904 0.0
C878 C 0.11 0.69362 0.26878 0.0
C879 C 0.12573 0.70771 0.26101 0.0
C880 C 0.11564 0.67205 0.27694 0.0
C881 C 0.07192 0.68624 0.27928 0.0
C882 C 0.12867 0.66757 0.30687 0.0
C883 C 0.13412 0.64731 0.31473 0.0
C884 C 0.1267 0.63107 0.29271 0.0
C885 C 0.11389 0.63564 0.26235 0.0
C886 C 0.10847 0.65595 0.25448 0.0
H887 H 0.05803 0.69494 0.28778 0.0
H888 H 0.06783 0.67673 0.2548 0.0
H889 H 0.07637 0.67579 0.30229 0.0
H890 H 0.13448 0.67978 0.3244 0.0
H891 H 0.14407 0.6444 0.33826 0.0
H892 H 0.88625 0.10709 0.75357 0.0
H893 H 0.85065 0.09791 0.73946 0.0
H894 H 0.82949 0.13939 0.82457 0.0
H895 H 0.86489 0.14842 0.83929 0.0
H896 H 0.81051 0.10176 0.82795 0.0
H897 H 0.80844 0.13285 0.68438 0.0
H898 H 0.82885 0.11488 0.69242 0.0
H899 H 0.82869 0.13897 0.71677 0.0
C900 C 0.87402 0.11428 0.76926 0.0
C901 C 0.87845 0.12849 0.79757 0.0
C902 C 0.85368 0.10911 0.76099 0.0
C903 C 0.83742 0.11819 0.78063 0.0
C904 C 0.8418 0.13226 0.809 0.0
H905 H 0.70885 0.11362 0.71426 0.0
H906 H 0.74299 0.12508 0.73363 0.0
C907 C 0.86208 0.1374 0.81735 0.0
C908 C 0.81582 0.11274 0.7723 0.0
H909 H 0.77985 0.11273 0.70334 0.0
C910 C 0.80377 0.10422 0.80075 0.0
C911 C 0.80697 0.11629 0.73698 0.0
C912 C 0.81882 0.12643 0.70595 0.0
C913 C 0.78321 0.09874 0.79462 0.0
C914 C 0.77461 0.10155 0.75889 0.0
C915 C 0.78652 0.11047 0.73066 0.0
C916 C 0.75344 0.09487 0.74985 0.0
C917 C 0.77085 0.09022 0.82656 0.0
C918 C 0.74795 0.07412 0.7528 0.0
C919 C 0.72846 0.06753 0.74194 0.0
C920 C 0.7141 0.08155 0.72749 0.0
C921 C 0.71951 0.10242 0.72526 0.0
C922 C 0.73903 0.10899 0.73622 0.0
H923 H 0.77753 0.09463 0.85382 0.0
H924 H 0.75471 0.09563 0.82546 0.0
H925 H 0.7708 0.07322 0.82494 0.0
H926 H 0.75895 0.06289 0.76255 0.0
H927 H 0.72488 0.05134 0.74393 0.0
H928 H 0.57321 0.08572 0.09837 0.0
H929 H 0.58495 0.06959 0.04074 0.0
H930 H 0.59065 0.1292 0.98959 0.0
H931 H 0.57837 0.14537 0.04639 0.0
H932 H 0.57412 0.10221 0.94296 0.0
H933 H 0.64406 0.06864 0.00654 0.0
H934 H 0.6206 0.06054 0.02821 0.0
H935 H 0.62816 0.08706 0.03044 0.0
C936 C 0.57675 0.09538 0.07471 0.0
C937 C 0.57501 0.11686 0.07714 0.0
C938 C 0.58367 0.08614 0.04193 0.0
C939 C 0.58922 0.09823 0.01123 0.0
C940 C 0.58664 0.11958 0.01307 0.0
H941 H 0.66399 0.07099 0.81835 0.0
H942 H 0.65176 0.08032 0.88073 0.0
C943 C 0.57956 0.1288 0.04561 0.0
C944 C 0.59775 0.08885 0.97702 0.0
H945 H 0.63745 0.05997 0.94362 0.0
C946 C 0.58794 0.09294 0.94313 0.0
C947 C 0.61601 0.07707 0.97724 0.0
C948 C 0.62796 0.07321 0.01248 0.0
C949 C 0.59584 0.08561 0.90945 0.0
C950 C 0.6137 0.07325 0.90976 0.0
C951 C 0.62361 0.0692 0.94358 0.0
C952 C 0.62248 0.06492 0.87492 0.0
C953 C 0.58529 0.09173 0.87375 0.0
C954 C 0.61051 0.05234 0.85194 0.0
C955 C 0.61731 0.04727 0.81639 0.0
C956 C 0.63643 0.05429 0.80355 0.0
C957 C 0.64922 0.06536 0.82772 0.0
C958 C 0.64222 0.07073 0.86321 0.0
H959 H 0.57554 0.10556 0.87753 0.0
H960 H 0.59664 0.09493 0.85144 0.0
H961 H 0.57523 0.07901 0.86439 0.0
H962 H 0.59548 0.04721 0.86086 0.0
H963 H 0.60728 0.03848 0.7984 0.0
H964 H 0.35362 0.57128 0.54523 0.0
H965 H 0.36995 0.58296 0.48797 0.0
H966 H 0.42686 0.59225 0.54672 0.0
H967 H 0.41073 0.5804 0.60431 0.0
H968 H 0.38774 0.62305 0.48088 0.0
H969 H 0.44375 0.56057 0.45119 0.0
H970 H 0.42198 0.55689 0.48159 0.0
H971 H 0.4438 0.57127 0.49729 0.0
C972 C 0.36969 0.57551 0.54597 0.0
C973 C 0.38084 0.57502 0.57942 0.0
C974 C 0.37898 0.5822 0.51322 0.0
C975 C 0.39959 0.58841 0.51319 0.0
C976 C 0.411 0.58728 0.54614 0.0
H977 H 0.46371 0.63703 0.3154 0.0
H978 H 0.45693 0.62866 0.38095 0.0
C979 C 0.40173 0.58055 0.57901 0.0
C980 C 0.40849 0.59735 0.47907 0.0
H981 H 0.44233 0.58803 0.40866 0.0
C982 C 0.39983 0.61551 0.46526 0.0
C983 C 0.42442 0.58759 0.45913 0.0
C984 C 0.43403 0.56793 0.47277 0.0
C985 C 0.40612 0.62377 0.43119 0.0
C986 C 0.42127 0.61345 0.4103 0.0
C987 C 0.43072 0.59587 0.42493 0.0
C988 C 0.42555 0.61921 0.3714 0.0
C989 C 0.39614 0.6432 0.41729 0.0
C990 C 0.41017 0.61652 0.34467 0.0
C991 C 0.41397 0.62112 0.30753 0.0
C992 C 0.43328 0.62853 0.29633 0.0
C993 C 0.44867 0.63144 0.32325 0.0
C994 C 0.44486 0.62663 0.36058 0.0
H995 H 0.3893 0.65219 0.44041 0.0
H996 H 0.40738 0.653 0.40232 0.0
H997 H 0.38365 0.63915 0.39763 0.0
H998 H 0.39525 0.61057 0.3525 0.0
H999 H 0.40175 0.61878 0.28755 0.0
H1000 H 0.92048 0.41495 0.10331 0.0
H1001 H 0.90726 0.43013 0.04584 0.0
H1002 H 0.91181 0.37141 0.99132 0.0
H1003 H 0.92486 0.35603 0.04846 0.0
H1004 H 0.92339 0.4314 0.97138 0.0
H1005 H 0.85059 0.38766 0.98098 0.0
H1006 H 0.86795 0.39045 0.01978 0.0
H1007 H 0.87305 0.3718 0.98412 0.0
C1008 C 0.9189 0.4053 0.07898 0.0
C1009 C 0.92347 0.3842 0.08064 0.0
C1010 C 0.91131 0.41401 0.04623 0.0
C1011 C 0.90813 0.40176 0.01475 0.0
C1012 C 0.91374 0.38099 0.01567 0.0
H1013 H 0.87537 0.40262 0.79089 0.0
H1014 H 0.88443 0.39699 0.85574 0.0
C1015 C 0.9213 0.37227 0.04831 0.0
C1016 C 0.89846 0.41038 0.98103 0.0
H1017 H 0.85809 0.40314 0.92213 0.0
C1018 C 0.90893 0.42554 0.96085 0.0
C1019 C 0.87948 0.40283 0.96775 0.0
C1020 C 0.86699 0.38744 0.98945 0.0
C1021 C 0.90154 0.43237 0.92633 0.0
C1022 C 0.88317 0.42391 0.9121 0.0
C1023 C 0.87219 0.40955 0.93321 0.0
C1024 C 0.87656 0.42769 0.87347 0.0
C1025 C 0.91392 0.44769 0.90428 0.0
C1026 C 0.86873 0.44676 0.86222 0.0
C1027 C 0.86339 0.45006 0.82496 0.0
C1028 C 0.86601 0.43433 0.7986 0.0
C1029 C 0.87336 0.41512 0.81041 0.0
C1030 C 0.87851 0.41184 0.84746 0.0
H1031 H 0.92873 0.45149 0.91795 0.0
H1032 H 0.91711 0.44158 0.87605 0.0
H1033 H 0.90496 0.46205 0.90097 0.0
H1034 H 0.86696 0.4591 0.88213 0.0
H1035 H 0.85777 0.465 0.81664 0.0
H1036 H 0.10092 0.88686 0.28864 0.0
H1037 H 0.10602 0.89711 0.35301 0.0
H1038 H 0.04539 0.87538 0.38076 0.0
H1039 H 0.04014 0.86478 0.31593 0.0
H1040 H 0.08118 0.92594 0.39135 0.0
H1041 H 0.08298 0.8496 0.46123 0.0
H1042 H 0.08657 0.8524 0.41171 0.0
H1043 H 0.06145 0.85506 0.43152 0.0
C1044 C 0.08867 0.88408 0.30839 0.0
C1045 C 0.07007 0.87509 0.29714 0.0
C1046 C 0.09163 0.88997 0.34517 0.0
C1047 C 0.0761 0.88699 0.37155 0.0
C1048 C 0.05764 0.8776 0.3608 0.0
H1049 H 0.0913 0.91879 0.60742 0.0
H1050 H 0.07449 0.90987 0.54872 0.0
C1051 C 0.05467 0.87158 0.32382 0.0
C1052 C 0.07934 0.89454 0.40982 0.0
H1053 H 0.08926 0.87861 0.49835 0.0
C1054 C 0.08269 0.91563 0.41488 0.0
C1055 C 0.08113 0.88105 0.4404 0.0
C1056 C 0.07798 0.85823 0.43618 0.0
C1057 C 0.08864 0.92351 0.44945 0.0
C1058 C 0.09151 0.90989 0.47953 0.0
C1059 C 0.08707 0.88896 0.47507 0.0
C1060 C 0.10097 0.91674 0.51469 0.0
C1061 C 0.09228 0.94627 0.45334 0.0
C1062 C 0.12137 0.9236 0.51478 0.0
C1063 C 0.13105 0.9286 0.54814 0.0
C1064 C 0.12048 0.92682 0.58206 0.0
C1065 C 0.09984 0.92041 0.58176 0.0
C1066 C 0.09022 0.91525 0.54832 0.0
H1067 H 0.08398 0.9551 0.43161 0.0
H1068 H 0.08735 0.95183 0.48113 0.0
H1069 H 0.10892 0.94947 0.45025 0.0
H1070 H 0.12999 0.92455 0.48909 0.0
H1071 H 0.14693 0.9335 0.54739 0.0
H1072 H 0.56926 0.35816 0.95293 0.0
H1073 H 0.57924 0.37545 0.01033 0.0
H1074 H 0.59015 0.43142 0.94948 0.0
H1075 H 0.58027 0.41427 0.89174 0.0
H1076 H 0.62318 0.41884 0.9954 0.0
H1077 H 0.5496 0.41945 0.07242 0.0
H1078 H 0.55576 0.39469 0.05363 0.0
H1079 H 0.55097 0.41584 0.02268 0.0
C1080 C 0.57348 0.37423 0.95176 0.0
C1081 C 0.57402 0.3848 0.91771 0.0
C1082 C 0.57908 0.38412 0.98463 0.0
C1083 C 0.58524 0.40475 0.98411 0.0
C1084 C 0.58534 0.41551 0.9504 0.0
H1085 H 0.63885 0.46597 0.1818 0.0
H1086 H 0.62696 0.46178 0.11731 0.0
C1087 C 0.57963 0.40567 0.91749 0.0
C1088 C 0.59298 0.41445 0.01848 0.0
H1089 H 0.58029 0.42293 0.10907 0.0
C1090 C 0.61374 0.42019 0.02012 0.0
C1091 C 0.58056 0.41631 0.05046 0.0
C1092 C 0.55793 0.41144 0.0497 0.0
C1093 C 0.62276 0.42635 0.05377 0.0
C1094 C 0.61059 0.4269 0.08622 0.0
C1095 C 0.58958 0.42237 0.08405 0.0
C1096 C 0.61969 0.42955 0.12347 0.0
C1097 C 0.64542 0.431 0.05502 0.0
C1098 C 0.61982 0.41276 0.14774 0.0
C1099 C 0.6265 0.41508 0.1842 0.0
C1100 C 0.63315 0.4343 0.19724 0.0
C1101 C 0.63389 0.45098 0.17244 0.0
C1102 C 0.62709 0.44862 0.13571 0.0
H1103 H 0.65302 0.42838 0.02778 0.0
H1104 H 0.64774 0.44727 0.06311 0.0
H1105 H 0.653 0.42129 0.07634 0.0
H1106 H 0.61428 0.3979 0.13865 0.0
H1107 H 0.62594 0.40188 0.20249 0.0
H1108 H 0.08545 0.59362 0.38453 0.0
H1109 H 0.06939 0.60796 0.44003 0.0
H1110 H 0.12157 0.58934 0.5056 0.0
H1111 H 0.13807 0.57548 0.44998 0.0
H1112 H 0.05742 0.59243 0.50493 0.0
H1113 H 0.11855 0.64971 0.52947 0.0
H1114 H 0.11694 0.63498 0.4871 0.0
H1115 H 0.12866 0.62414 0.52798 0.0
C1116 C 0.09346 0.59238 0.41081 0.0
C1117 C 0.11316 0.58361 0.41278 0.0
C1118 C 0.08427 0.60067 0.44248 0.0
C1119 C 0.09455 0.60026 0.4767 0.0
C1120 C 0.11368 0.59044 0.47919 0.0
H1121 H 0.05304 0.60623 0.69667 0.0
H1122 H 0.06048 0.59861 0.6322 0.0
C1123 C 0.12299 0.58233 0.44747 0.0
C1124 C 0.08529 0.61005 0.50983 0.0
H1125 H 0.09571 0.64324 0.58067 0.0
C1126 C 0.06568 0.60374 0.52123 0.0
C1127 C 0.09576 0.62531 0.53045 0.0
C1128 C 0.11603 0.63411 0.51788 0.0
C1129 C 0.05683 0.61133 0.55398 0.0
C1130 C 0.06813 0.62516 0.57634 0.0
C1131 C 0.08716 0.63245 0.56374 0.0
C1132 C 0.06168 0.63035 0.61466 0.0
C1133 C 0.03557 0.6042 0.56453 0.0
C1134 C 0.06025 0.65084 0.62657 0.0
C1135 C 0.0562 0.65535 0.66396 0.0
C1136 C 0.05372 0.6394 0.6899 0.0
C1137 C 0.05479 0.61895 0.67753 0.0
C1138 C 0.05885 0.6145 0.64045 0.0
H1139 H 0.02636 0.60048 0.53944 0.0
H1140 H 0.03677 0.59001 0.58145 0.0
H1141 H 0.02729 0.61599 0.58099 0.0
H1142 H 0.06263 0.6633 0.60711 0.0
H1143 H 0.05558 0.67125 0.67267 0.0
H1144 H 0.93364 0.14726 0.9516 0.0
H1145 H 0.92381 0.13081 0.00995 0.0
H1146 H 0.91625 0.07308 0.95307 0.0
H1147 H 0.92599 0.08935 0.89444 0.0
H1148 H 0.88188 0.08558 0.9958 0.0
H1149 H 0.95396 0.08942 0.07715 0.0
H1150 H 0.94707 0.11343 0.05608 0.0
H1151 H 0.95341 0.09185 0.02712 0.0
C1152 C 0.93024 0.13099 0.95154 0.0
C1153 C 0.93051 0.11966 0.9183 0.0
C1154 C 0.92472 0.1216 0.98495 0.0
C1155 C 0.91946 0.10072 0.98576 0.0
C1156 C 0.92034 0.0892 0.95294 0.0
H1157 H 0.86343 0.03786 0.1788 0.0
H1158 H 0.87629 0.04351 0.11535 0.0
C1159 C 0.92596 0.09854 0.91952 0.0
C1160 C 0.91144 0.09149 0.02034 0.0
H1161 H 0.92292 0.08448 0.11185 0.0
C1162 C 0.89091 0.08495 0.0211 0.0
C1163 C 0.92334 0.09064 0.05308 0.0
C1164 C 0.94573 0.09652 0.05335 0.0
C1165 C 0.88156 0.07879 0.05445 0.0
C1166 C 0.8932 0.07897 0.08755 0.0
C1167 C 0.91402 0.0845 0.08636 0.0
C1168 C 0.88376 0.0755 0.12435 0.0
C1169 C 0.85908 0.07324 0.05449 0.0
C1170 C 0.88351 0.09165 0.15 0.0
C1171 C 0.87634 0.08848 0.18595 0.0
C1172 C 0.86925 0.06904 0.19706 0.0
C1173 C 0.86868 0.05302 0.17091 0.0
C1174 C 0.87602 0.05621 0.13475 0.0
H1175 H 0.85158 0.07678 0.02751 0.0
H1176 H 0.85739 0.05657 0.05994 0.0
H1177 H 0.85091 0.08161 0.07693 0.0
H1178 H 0.8893 0.10667 0.14238 0.0
H1179 H 0.87679 0.10118 0.20536 0.0
H1180 H 0.43708 0.83662 0.67453 0.0
H1181 H 0.4318 0.84946 0.61109 0.0
H1182 H 0.46479 0.90483 0.63874 0.0
H1183 H 0.46954 0.89236 0.70208 0.0
H1184 H 0.42737 0.91304 0.61327 0.0
H1185 H 0.46538 0.85847 0.51757 0.0
H1186 H 0.44862 0.84593 0.55002 0.0
H1187 H 0.47097 0.85926 0.56673 0.0
C1188 C 0.44368 0.85124 0.66662 0.0
C1189 C 0.45351 0.8636 0.69313 0.0
C1190 C 0.44075 0.85854 0.63037 0.0
C1191 C 0.44798 0.87809 0.62013 0.0
C1192 C 0.45906 0.88974 0.64603 0.0
H1193 H 0.42257 0.93003 0.39824 0.0
H1194 H 0.4414 0.92086 0.45511 0.0
C1195 C 0.46172 0.88261 0.6822 0.0
C1196 C 0.44156 0.88767 0.58463 0.0
H1197 H 0.43957 0.88044 0.49072 0.0
C1198 C 0.43036 0.90606 0.58644 0.0
C1199 C 0.44561 0.87871 0.5496 0.0
C1200 C 0.45849 0.85961 0.54575 0.0
C1201 C 0.42231 0.91521 0.5544 0.0
C1202 C 0.42526 0.90557 0.51969 0.0
C1203 C 0.43727 0.88773 0.5175 0.0
C1204 C 0.4142 0.91258 0.48618 0.0
C1205 C 0.41031 0.9349 0.55805 0.0
C1206 C 0.39276 0.91113 0.48518 0.0
C1207 C 0.38206 0.91628 0.45302 0.0
C1208 C 0.39258 0.92297 0.42114 0.0
C1209 C 0.41405 0.92508 0.4225 0.0
C1210 C 0.42482 0.91973 0.45478 0.0
H1211 H 0.41443 0.94331 0.58386 0.0
H1212 H 0.413 0.94512 0.53381 0.0
H1213 H 0.39368 0.93127 0.55927 0.0
H1214 H 0.38432 0.90544 0.509 0.0
H1215 H 0.36552 0.91452 0.45283 0.0
H1216 H 0.42207 0.85141 0.94647 0.0
H1217 H 0.41043 0.86817 0.00331 0.0
H1218 H 0.41401 0.92713 0.9494 0.0
H1219 H 0.42564 0.91052 0.89201 0.0
H1220 H 0.43196 0.92385 0.02497 0.0
H1221 H 0.35194 0.89517 0.01469 0.0
H1222 H 0.37131 0.87586 0.00834 0.0
H1223 H 0.36905 0.89636 0.9752 0.0
C1224 C 0.42052 0.86796 0.94661 0.0
C1225 C 0.42465 0.87961 0.91454 0.0
C1226 C 0.41374 0.87747 0.97908 0.0
C1227 C 0.41103 0.89879 0.98019 0.0
C1228 C 0.41584 0.91062 0.94883 0.0
H1229 H 0.3522 0.95312 0.17817 0.0
H1230 H 0.3614 0.94802 0.11254 0.0
C1231 C 0.42251 0.90109 0.91615 0.0
C1232 C 0.40326 0.90855 0.01444 0.0
H1233 H 0.36249 0.90805 0.07397 0.0
C1234 C 0.41666 0.92073 0.03545 0.0
C1235 C 0.38319 0.90466 0.02764 0.0
C1236 C 0.36793 0.89245 0.00518 0.0
C1237 C 0.41092 0.92803 0.07062 0.0
C1238 C 0.39138 0.92289 0.08496 0.0
C1239 C 0.37751 0.91185 0.06291 0.0
C1240 C 0.38602 0.92673 0.12421 0.0
C1241 C 0.42601 0.94065 0.09271 0.0
C1242 C 0.39661 0.91617 0.15213 0.0
C1243 C 0.39132 0.91885 0.18931 0.0
C1244 C 0.37532 0.93222 0.19941 0.0
C1245 C 0.36465 0.94279 0.1713 0.0
C1246 C 0.36988 0.93993 0.13389 0.0
H1247 H 0.43769 0.94793 0.07446 0.0
H1248 H 0.41802 0.9528 0.1088 0.0
H1249 H 0.43413 0.93052 0.11267 0.0
H1250 H 0.40887 0.90563 0.1451 0.0
H1251 H 0.39987 0.91042 0.21013 0.0
H1252 H 0.58152 0.42088 0.3891 0.0
H1253 H 0.56277 0.40824 0.44374 0.0
H1254 H 0.61953 0.40546 0.50531 0.0
H1255 H 0.63828 0.41738 0.45075 0.0
H1256 H 0.59814 0.36964 0.50838 0.0
H1257 H 0.54719 0.43576 0.54106 0.0
H1258 H 0.54555 0.42569 0.49466 0.0
H1259 H 0.56874 0.438 0.50981 0.0
C1260 C 0.58986 0.41798 0.41461 0.0
C1261 C 0.61132 0.42005 0.41582 0.0
C1262 C 0.57916 0.41075 0.44574 0.0
C1263 C 0.58978 0.40591 0.47856 0.0
C1264 C 0.61107 0.40894 0.48016 0.0
H1265 H 0.56742 0.3963 0.70402 0.0
H1266 H 0.57217 0.40456 0.63884 0.0
C1267 C 0.62175 0.41584 0.44908 0.0
C1268 C 0.57927 0.3967 0.511 0.0
H1269 H 0.54574 0.40735 0.58114 0.0
C1270 C 0.58649 0.37774 0.52414 0.0
C1271 C 0.56398 0.40727 0.53118 0.0
C1272 C 0.55595 0.42787 0.51874 0.0
C1273 C 0.57993 0.36972 0.5583 0.0
C1274 C 0.56525 0.38071 0.57929 0.0
C1275 C 0.55697 0.39897 0.56488 0.0
C1276 C 0.56083 0.37543 0.61851 0.0
C1277 C 0.58987 0.35037 0.57271 0.0
C1278 C 0.55274 0.35626 0.62887 0.0
C1279 C 0.55027 0.3513 0.66653 0.0
C1280 C 0.55553 0.36562 0.69418 0.0
C1281 C 0.56312 0.38493 0.68348 0.0
C1282 C 0.56579 0.38974 0.64614 0.0
H1283 H 0.60348 0.34587 0.556 0.0
H1284 H 0.59474 0.35232 0.60207 0.0
H1285 H 0.57863 0.33759 0.57156 0.0
H1286 H 0.54849 0.34511 0.60793 0.0
H1287 H 0.54422 0.33637 0.67396 0.0
H1288 H 0.08638 0.59016 0.88296 0.0
H1289 H 0.10056 0.57413 0.93873 0.0
H1290 H 0.08124 0.6261 0.00414 0.0
H1291 H 0.06741 0.64247 0.94845 0.0
H1292 H 0.12184 0.61602 0.01485 0.0
H1293 H 0.07218 0.54689 0.0266 0.0
H1294 H 0.08478 0.55017 0.98257 0.0
H1295 H 0.06571 0.56835 0.99717 0.0
C1296 C 0.0848 0.59803 0.90933 0.0
C1297 C 0.07579 0.61762 0.91128 0.0
C1298 C 0.09291 0.58881 0.94117 0.0
C1299 C 0.09187 0.5989 0.97554 0.0
C1300 C 0.08224 0.61811 0.97779 0.0
H1301 H 0.10067 0.5658 0.19885 0.0
H1302 H 0.09268 0.57251 0.13422 0.0
C1303 C 0.07428 0.6274 0.94599 0.0
C1304 C 0.10165 0.59006 0.00902 0.0
H1305 H 0.09878 0.55032 0.0705 0.0
C1306 C 0.11694 0.60157 0.02694 0.0
C1307 C 0.09525 0.57117 0.02447 0.0
C1308 C 0.07847 0.55846 0.00696 0.0
C1309 C 0.12538 0.59517 0.06086 0.0
C1310 C 0.11864 0.5765 0.07677 0.0
C1311 C 0.10401 0.56454 0.05799 0.0
C1312 C 0.12413 0.57073 0.11528 0.0
C1313 C 0.14053 0.609 0.08035 0.0
C1314 C 0.14454 0.56716 0.1261 0.0
C1315 C 0.14929 0.56346 0.16351 0.0
C1316 C 0.13362 0.56311 0.19042 0.0
C1317 C 0.11318 0.566 0.17902 0.0
C1318 C 0.10852 0.56977 0.14195 0.0
H1319 H 0.14141 0.62443 0.06727 0.0
H1320 H 0.13631 0.61092 0.11005 0.0
H1321 H 0.15602 0.60198 0.07915 0.0
H1322 H 0.15679 0.56753 0.10576 0.0
H1323 H 0.16516 0.56119 0.17139 0.0
H1324 H 0.91809 0.07763 0.39022 0.0
H1325 H 0.93645 0.09009 0.44531 0.0
H1326 H 0.87968 0.09022 0.50713 0.0
H1327 H 0.86127 0.07851 0.45202 0.0
H1328 H 0.89936 0.12683 0.51025 0.0
H1329 H 0.95354 0.06329 0.54232 0.0
H1330 H 0.95475 0.07335 0.49586 0.0
H1331 H 0.93209 0.06009 0.51114 0.0
C1332 C 0.90969 0.07982 0.4159 0.0
C1333 C 0.88829 0.07717 0.41703 0.0
C1334 C 0.92017 0.08695 0.44729 0.0
C1335 C 0.90941 0.09107 0.48028 0.0
C1336 C 0.88824 0.08727 0.48186 0.0
H1337 H 0.93492 0.10422 0.70517 0.0
H1338 H 0.92931 0.09468 0.64079 0.0
C1339 C 0.87776 0.08049 0.45048 0.0
C1340 C 0.91957 0.10074 0.5126 0.0
H1341 H 0.95457 0.09226 0.5813 0.0
C1342 C 0.91158 0.11939 0.52568 0.0
C1343 C 0.93559 0.09103 0.53233 0.0
C1344 C 0.94445 0.07076 0.51997 0.0
C1345 C 0.91823 0.12798 0.55926 0.0
C1346 C 0.9338 0.11794 0.57969 0.0
C1347 C 0.94268 0.09994 0.56543 0.0
C1348 C 0.93879 0.12399 0.61827 0.0
C1349 C 0.90757 0.14695 0.57368 0.0
C1350 C 0.94615 0.14367 0.62706 0.0
C1351 C 0.9491 0.14935 0.66424 0.0
C1352 C 0.94508 0.13527 0.69293 0.0
C1353 C 0.93826 0.11543 0.68377 0.0
C1354 C 0.93511 0.1099 0.64691 0.0
H1355 H 0.89337 0.15048 0.55784 0.0
H1356 H 0.90346 0.14511 0.60345 0.0
H1357 H 0.91804 0.1603 0.57117 0.0
H1358 H 0.94942 0.15467 0.60528 0.0
H1359 H 0.95455 0.16468 0.67047 0.0
H1360 H 0.33675 0.56725 0.81927 0.0
H1361 H 0.34968 0.5736 0.88244 0.0
H1362 H 0.40445 0.5392 0.85712 0.0
H1363 H 0.39192 0.53328 0.79408 0.0
H1364 H 0.36535 0.54915 0.9432 0.0
H1365 H 0.42501 0.59799 0.87677 0.0
H1366 H 0.40293 0.58862 0.85178 0.0
H1367 H 0.4243 0.57191 0.86072 0.0
C1368 C 0.3513 0.56066 0.82759 0.0
C1369 C 0.36353 0.55012 0.80179 0.0
C1370 C 0.35867 0.56429 0.86356 0.0
C1371 C 0.37821 0.55723 0.87401 0.0
C1372 C 0.38954 0.54512 0.84927 0.0
H1373 H 0.43181 0.58076 0.0956 0.0
H1374 H 0.4217 0.56253 0.03864 0.0
C1375 C 0.38235 0.54175 0.81334 0.0
C1376 C 0.38774 0.56439 0.90896 0.0
H1377 H 0.42651 0.59458 0.94177 0.0
C1378 C 0.37881 0.55895 0.94304 0.0
C1379 C 0.40519 0.57733 0.90842 0.0
C1380 C 0.41486 0.58449 0.87251 0.0
C1381 C 0.38675 0.5664 0.97675 0.0
C1382 C 0.40418 0.57935 0.97613 0.0
C1383 C 0.41331 0.58443 0.94207 0.0
C1384 C 0.41166 0.58991 0.00985 0.0
C1385 C 0.37597 0.56109 0.01261 0.0
C1386 C 0.41009 0.61132 0.01179 0.0
C1387 C 0.41594 0.62169 0.04386 0.0
C1388 C 0.42354 0.61089 0.07474 0.0
C1389 C 0.42599 0.58949 0.07225 0.0
C1390 C 0.42004 0.57905 0.03995 0.0
H1391 H 0.3609 0.55358 0.00772 0.0
H1392 H 0.3857 0.55043 0.02896 0.0
H1393 H 0.3735 0.5751 0.02959 0.0
H1394 H 0.40381 0.61998 0.98873 0.0
H1395 H 0.41404 0.6382 0.04474 0.0
H1396 H 0.96327 0.40044 0.29421 0.0
H1397 H 0.95822 0.41277 0.35753 0.0
H1398 H 0.92903 0.35552 0.38664 0.0
H1399 H 0.93457 0.34284 0.32326 0.0
H1400 H 0.92093 0.41878 0.38517 0.0
H1401 H 0.96347 0.36624 0.47822 0.0
H1402 H 0.9682 0.36745 0.42879 0.0
H1403 H 0.947 0.35271 0.44666 0.0
C1404 C 0.95615 0.3903 0.31432 0.0
C1405 C 0.94912 0.37075 0.30382 0.0
C1406 C 0.95334 0.39736 0.3505 0.0
C1407 C 0.94335 0.38506 0.37687 0.0
C1408 C 0.93718 0.36512 0.36698 0.0
H1409 H 0.86037 0.41536 0.54649 0.0
H1410 H 0.87946 0.40756 0.49003 0.0
C1411 C 0.94024 0.35792 0.33074 0.0
C1412 C 0.93693 0.39414 0.41277 0.0
H1413 H 0.93638 0.38614 0.50653 0.0
C1414 C 0.92464 0.41183 0.41174 0.0
C1415 C 0.94195 0.38523 0.44744 0.0
C1416 C 0.95606 0.36698 0.45044 0.0
C1417 C 0.91636 0.42022 0.44425 0.0
C1418 C 0.92021 0.41049 0.4786 0.0
C1419 C 0.93337 0.39347 0.48001 0.0
C1420 C 0.90894 0.41644 0.51251 0.0
C1421 C 0.90314 0.43916 0.44148 0.0
C1422 C 0.91926 0.42401 0.54387 0.0
C1423 C 0.90834 0.42858 0.57636 0.0
C1424 C 0.88702 0.42528 0.57795 0.0
C1425 C 0.87678 0.41801 0.54619 0.0
C1426 C 0.88764 0.41362 0.51384 0.0
H1427 H 0.90657 0.44806 0.41586 0.0
H1428 H 0.88676 0.4345 0.44044 0.0
H1429 H 0.90532 0.44928 0.46599 0.0
H1430 H 0.93574 0.42618 0.54329 0.0
H1431 H 0.91664 0.43404 0.60049 0.0
H1432 H 0.10703 0.94299 0.79552 0.0
H1433 H 0.0983 0.94054 0.86067 0.0
H1434 H 0.1609 0.9543 0.89066 0.0
H1435 H 0.17008 0.95635 0.82443 0.0
H1436 H 0.14724 0.92203 0.9275 0.0
H1437 H 0.08844 0.98201 0.94016 0.0
H1438 H 0.08216 0.96602 0.90133 0.0
H1439 H 0.10562 0.98076 0.90081 0.0
C1440 C 0.11901 0.9458 0.81577 0.0
C1441 C 0.13929 0.94996 0.80466 0.0
C1442 C 0.11387 0.94463 0.85319 0.0
C1443 C 0.12876 0.94787 0.88064 0.0
C1444 C 0.14908 0.9521 0.86987 0.0
H1445 H 0.07989 0.92602 0.10665 0.0
H1446 H 0.09455 0.94499 0.05385 0.0
C1447 C 0.15432 0.95318 0.8321 0.0
C1448 C 0.12319 0.94434 0.92006 0.0
H1449 H 0.08371 0.95192 0.98095 0.0
C1450 C 0.13368 0.92898 0.93962 0.0
C1451 C 0.10579 0.95372 0.93645 0.0
C1452 C 0.09505 0.97171 0.91866 0.0
C1453 C 0.12608 0.92139 0.97337 0.0
C1454 C 0.10722 0.92896 0.98725 0.0
C1455 C 0.09784 0.9457 0.96967 0.0
C1456 C 0.09629 0.91844 0.01786 0.0
C1457 C 0.138 0.90482 0.99315 0.0
C1458 C 0.09134 0.89759 0.01422 0.0
C1459 C 0.0831 0.88681 0.04411 0.0
C1460 C 0.07927 0.89676 0.07798 0.0
C1461 C 0.08261 0.91802 0.08072 0.0
C1462 C 0.09113 0.92882 0.05076 0.0
H1463 H 0.15467 0.90596 0.98691 0.0
H1464 H 0.13583 0.90566 0.02373 0.0
H1465 H 0.13265 0.88958 0.98338 0.0
H1466 H 0.09453 0.88947 0.9886 0.0
H1467 H 0.08049 0.87046 0.04123 0.0
H1468 H 0.64957 0.08332 0.55107 0.0
H1469 H 0.63341 0.09437 0.49349 0.0
H1470 H 0.57364 0.08662 0.54314 0.0
H1471 H 0.58976 0.07612 0.60162 0.0
H1472 H 0.60805 0.07524 0.44748 0.0
H1473 H 0.56969 0.14457 0.50395 0.0
H1474 H 0.58861 0.13033 0.5299 0.0
H1475 H 0.5626 0.1212 0.52708 0.0
C1476 C 0.63297 0.0839 0.54987 0.0
C1477 C 0.62095 0.07899 0.58112 0.0
C1478 C 0.62376 0.09026 0.51687 0.0
C1479 C 0.60234 0.09174 0.51423 0.0
C1480 C 0.59022 0.08615 0.54489 0.0
H1481 H 0.54447 0.10232 0.29742 0.0
H1482 H 0.55372 0.09162 0.36026 0.0
C1483 C 0.59945 0.07996 0.57816 0.0
C1484 C 0.59293 0.09888 0.47902 0.0
H1485 H 0.56236 0.13601 0.44125 0.0
C1486 C 0.59803 0.08851 0.44614 0.0
C1487 C 0.58012 0.1164 0.47728 0.0
C1488 C 0.57506 0.12891 0.51136 0.0
C1489 C 0.5908 0.09519 0.41153 0.0
C1490 C 0.57749 0.11232 0.40987 0.0
C1491 C 0.57236 0.12273 0.44271 0.0
C1492 C 0.56933 0.11993 0.37401 0.0
C1493 C 0.59808 0.0842 0.37699 0.0
C1494 C 0.57389 0.1399 0.36181 0.0
C1495 C 0.56825 0.14623 0.32607 0.0
C1496 C 0.55813 0.13258 0.30204 0.0
C1497 C 0.55256 0.11304 0.31516 0.0
C1498 C 0.55791 0.10687 0.35097 0.0
H1499 H 0.61239 0.0754 0.38219 0.0
H1500 H 0.58612 0.07316 0.3679 0.0
H1501 H 0.60094 0.09517 0.35394 0.0
H1502 H 0.58257 0.15027 0.37932 0.0
H1503 H 0.57273 0.16137 0.31662 0.0
H1504 H 0.3646 0.01159 0.28759 0.0
H1505 H 0.3845 0.04189 0.26888 0.0
H1506 H 0.44071 0.00873 0.28832 0.0
H1507 H 0.4211 0.97859 0.30721 0.0
H1508 H 0.44107 0.04985 0.31465 0.0
H1509 H 0.41529 0.04381 0.16753 0.0
H1510 H 0.39553 0.04521 0.20237 0.0
H1511 H 0.41198 0.02317 0.20047 0.0
C1512 C 0.38119 0.01088 0.28851 0.0
C1513 C 0.39125 0.9926 0.29863 0.0
C1514 C 0.39253 0.02814 0.27748 0.0
C1515 C 0.41407 0.02741 0.27657 0.0
C1516 C 0.4241 0.00958 0.28858 0.0
H1517 H 0.51173 0.08889 0.16423 0.0
H1518 H 0.48345 0.06663 0.18361 0.0
C1519 C 0.41284 0.99235 0.29937 0.0
C1520 C 0.42642 0.04478 0.26189 0.0
H1521 H 0.43924 0.06973 0.18152 0.0
C1522 C 0.4405 0.05441 0.28567 0.0
C1523 C 0.42582 0.05045 0.22391 0.0
C1524 C 0.41148 0.04008 0.19687 0.0
C1525 C 0.45425 0.06931 0.27241 0.0
C1526 C 0.45374 0.07492 0.23439 0.0
C1527 C 0.43945 0.06552 0.21069 0.0
C1528 C 0.46896 0.08944 0.21848 0.0
C1529 C 0.46981 0.07833 0.29888 0.0
C1530 C 0.46966 0.10993 0.23033 0.0
C1531 C 0.48579 0.12273 0.21928 0.0
C1532 C 0.50155 0.11527 0.19613 0.0
C1533 C 0.49996 0.09515 0.18221 0.0
C1534 C 0.4838 0.08237 0.19329 0.0
H1535 H 0.47075 0.06953 0.32528 0.0
H1536 H 0.48527 0.07872 0.28592 0.0
H1537 H 0.46537 0.09432 0.30569 0.0
H1538 H 0.45814 0.11579 0.24926 0.0
H1539 H 0.48638 0.13817 0.23033 0.0
H1540 H 0.48396 0.36195 0.77561 0.0
H1541 H 0.45581 0.38415 0.75579 0.0
H1542 H 0.48639 0.43636 0.80423 0.0
H1543 H 0.51451 0.41427 0.82468 0.0
H1544 H 0.44389 0.43669 0.81493 0.0
H1545 H 0.46395 0.42282 0.66696 0.0
H1546 H 0.45858 0.40004 0.69333 0.0
H1547 H 0.48056 0.41545 0.70479 0.0
C1548 C 0.48457 0.37809 0.78266 0.0
C1549 C 0.50167 0.38635 0.80133 0.0
C1550 C 0.46852 0.39078 0.77102 0.0
C1551 C 0.46929 0.41198 0.77763 0.0
C1552 C 0.4856 0.42006 0.7985 0.0
H1553 H 0.41066 0.51339 0.66669 0.0
H1554 H 0.43365 0.48597 0.68699 0.0
C1555 C 0.50165 0.40737 0.81028 0.0
C1556 C 0.45369 0.42589 0.76129 0.0
H1557 H 0.43462 0.44319 0.6785 0.0
C1558 C 0.44178 0.43805 0.78513 0.0
C1559 C 0.45122 0.42788 0.72233 0.0
C1560 C 0.46436 0.41602 0.69527 0.0
C1561 C 0.42739 0.45211 0.77108 0.0
C1562 C 0.42461 0.45377 0.73215 0.0
C1563 C 0.43659 0.44167 0.70831 0.0
C1564 C 0.41009 0.46878 0.71576 0.0
C1565 C 0.41574 0.4655 0.79803 0.0
C1566 C 0.38903 0.46766 0.72361 0.0
C1567 C 0.37582 0.4833 0.71203 0.0
C1568 C 0.38341 0.50033 0.69223 0.0
C1569 C 0.40426 0.50058 0.68199 0.0
C1570 C 0.41747 0.48494 0.69368 0.0
H1571 H 0.42302 0.46571 0.82595 0.0
H1572 H 0.41472 0.48151 0.7876 0.0
H1573 H 0.39991 0.45949 0.8012 0.0
H1574 H 0.38294 0.45505 0.73983 0.0
H1575 H 0.35983 0.48248 0.72012 0.0
H1576 H 0.01649 0.36471 0.22438 0.0
H1577 H 0.04395 0.38806 0.24322 0.0
H1578 H 0.01453 0.43749 0.18413 0.0
H1579 H 0.98715 0.41425 0.16462 0.0
H1580 H 0.0571 0.43816 0.17773 0.0
H1581 H 0.03281 0.43035 0.3251 0.0
H1582 H 0.03934 0.40662 0.30267 0.0
H1583 H 0.01748 0.421 0.28692 0.0
C1584 C 0.01603 0.38045 0.21473 0.0
C1585 C 0.99941 0.38764 0.19338 0.0
C1586 C 0.03167 0.39382 0.22583 0.0
C1587 C 0.03096 0.41463 0.21597 0.0
C1588 C 0.01525 0.42152 0.1924 0.0
H1589 H 0.08401 0.52153 0.31944 0.0
H1590 H 0.0623 0.49287 0.29998 0.0
C1591 C 0.99962 0.40817 0.18117 0.0
C1592 C 0.04588 0.4295 0.23174 0.0
H1593 H 0.06197 0.45094 0.31344 0.0
C1594 C 0.05827 0.44089 0.2074 0.0
C1595 C 0.04709 0.43328 0.27046 0.0
C1596 C 0.03336 0.42233 0.29786 0.0
C1597 C 0.07186 0.45594 0.22069 0.0
C1598 C 0.07338 0.45942 0.25946 0.0
C1599 C 0.06096 0.44806 0.2838 0.0
C1600 C 0.08703 0.47553 0.27503 0.0
C1601 C 0.08398 0.46843 0.19297 0.0
C1602 C 0.10829 0.47487 0.26899 0.0
C1603 C 0.12075 0.49124 0.28003 0.0
C1604 C 0.11222 0.50856 0.29759 0.0
C1605 C 0.09112 0.5085 0.30592 0.0
C1606 C 0.07865 0.49214 0.2947 0.0
H1607 H 0.07742 0.46734 0.16453 0.0
H1608 H 0.08447 0.48484 0.20121 0.0
H1609 H 0.09996 0.46262 0.19191 0.0
H1610 H 0.11516 0.46195 0.25474 0.0
H1611 H 0.13697 0.49065 0.2735 0.0
H1612 H 0.09577 0.99266 0.65399 0.0
H1613 H 0.07255 0.02091 0.66984 0.0
H1614 H 0.11404 0.04014 0.75655 0.0
H1615 H 0.1376 0.01288 0.73974 0.0
H1616 H 0.05225 0.02589 0.73053 0.0
H1617 H 0.10106 0.09449 0.71486 0.0
H1618 H 0.1088 0.06971 0.69758 0.0
H1619 H 0.11298 0.07649 0.74561 0.0
C1620 C 0.10018 0.00328 0.67573 0.0
C1621 C 0.11861 1.00054 0.6954 0.0
C1622 C 0.08685 0.01937 0.68491 0.0
C1623 C 0.09161 0.03291 0.71414 0.0
C1624 C 0.11023 0.03042 0.73316 0.0
H1625 H 0.99593 0.09621 0.84015 0.0
H1626 H 0.02357 0.07309 0.8207 0.0
C1627 C 0.12369 0.01464 0.72357 0.0
C1628 C 0.0764 0.0484 0.72705 0.0
H1629 H 0.07126 0.09843 0.7538 0.0
C1630 C 0.05637 0.04181 0.73517 0.0
C1631 C 0.08161 0.06927 0.73284 0.0
C1632 C 0.10223 0.07792 0.72185 0.0
C1633 C 0.04154 0.05534 0.74937 0.0
C1634 C 0.04712 0.0759 0.7573 0.0
C1635 C 0.06706 0.08258 0.74856 0.0
C1636 C 0.03217 0.09103 0.77241 0.0
C1637 C 0.01994 0.04749 0.75469 0.0
C1638 C 0.02883 0.10957 0.75353 0.0
C1639 C 0.01354 0.12309 0.76529 0.0
C1640 C 1.00102 0.11826 0.79598 0.0
C1641 C 0.00515 0.10027 0.8162 0.0
C1642 C 0.02078 0.08692 0.8048 0.0
H1643 H 0.01687 0.03379 0.73716 0.0
H1644 H 0.01778 0.04289 0.78413 0.0
H1645 H 0.00843 0.05945 0.74776 0.0
H1646 H 0.03749 0.11324 0.72869 0.0
H1647 H 0.01084 0.13679 0.74897 0.0
H1648 H 0.58762 0.01753 0.67069 0.0
H1649 H 0.5644 0.99019 0.69097 0.0
H1650 H 0.61544 0.95728 0.73833 0.0
H1651 H 0.63876 0.98452 0.71852 0.0
H1652 H 0.5628 0.94702 0.67992 0.0
H1653 H 0.57689 0.96741 0.82762 0.0
H1654 H 0.58447 0.9838 0.78956 0.0
H1655 H 0.59962 0.9617 0.80132 0.0
C1656 C 0.59401 0.00429 0.68473 0.0
C1657 C 0.61506 0.00339 0.69339 0.0
C1658 C 0.58068 0.98871 0.69644 0.0
C1659 C 0.58814 0.97199 0.717 0.0
C1660 C 0.6093 0.97031 0.72329 0.0
H1661 H 0.51939 0.86216 0.77602 0.0
H1662 H 0.54588 0.88622 0.75574 0.0
C1663 C 0.62263 0.98585 0.71166 0.0
C1664 C 0.57371 0.95687 0.73345 0.0
H1665 H 0.55639 0.93802 0.81646 0.0
C1666 C 0.56142 0.945 0.70974 0.0
C1667 C 0.57168 0.95454 0.77244 0.0
C1668 C 0.5837 0.96765 0.79931 0.0
C1669 C 0.54736 0.93063 0.72396 0.0
C1670 C 0.54578 0.92787 0.76292 0.0
C1671 C 0.55784 0.93997 0.78663 0.0
C1672 C 0.53119 0.91293 0.77942 0.0
C1673 C 0.534 0.91884 0.69718 0.0
C1674 C 0.51477 0.91979 0.8014 0.0
C1675 C 0.49963 0.90604 0.81337 0.0
C1676 C 0.50067 0.88515 0.80358 0.0
C1677 C 0.51796 0.87815 0.78383 0.0
C1678 C 0.53307 0.8919 0.77192 0.0
H1679 H 0.53363 0.92611 0.66925 0.0
H1680 H 0.54016 0.90307 0.69398 0.0
H1681 H 0.51803 0.91763 0.70778 0.0
H1682 H 0.51316 0.93595 0.80784 0.0
H1683 H 0.48659 0.912 0.82858 0.0
H1684 H 0.58133 0.47482 0.29811 0.0
H1685 H 0.56038 0.5043 0.28105 0.0
H1686 H 0.61415 0.54287 0.28085 0.0
H1687 H 0.63546 0.51322 0.2976 0.0
H1688 H 0.55444 0.54253 0.31566 0.0
H1689 H 0.59 0.55069 0.17557 0.0
H1690 H 0.59356 0.52807 0.2038 0.0
H1691 H 0.60701 0.55132 0.21491 0.0
C1692 C 0.58875 0.48958 0.29479 0.0
C1693 C 0.61013 0.49158 0.29892 0.0
C1694 C 0.57672 0.50644 0.28504 0.0
C1695 C 0.58574 0.5257 0.27901 0.0
C1696 C 0.60694 0.52805 0.28469 0.0
H1697 H 0.51476 0.63311 0.20049 0.0
H1698 H 0.54393 0.61222 0.22151 0.0
C1699 C 0.61905 0.51113 0.2946 0.0
C1700 C 0.57273 0.54292 0.26583 0.0
H1701 H 0.56187 0.57202 0.18915 0.0
C1702 C 0.55625 0.54918 0.28821 0.0
C1703 C 0.57511 0.5516 0.22997 0.0
C1704 C 0.59227 0.54506 0.20442 0.0
C1705 C 0.54171 0.56335 0.27527 0.0
C1706 C 0.54355 0.57129 0.23884 0.0
C1707 C 0.56053 0.56583 0.21703 0.0
C1708 C 0.52692 0.58373 0.22213 0.0
C1709 C 0.52411 0.56934 0.30027 0.0
C1710 C 0.50803 0.57444 0.21419 0.0
C1711 C 0.49146 0.58621 0.20207 0.0
C1712 C 0.49339 0.60758 0.19764 0.0
C1713 C 0.51272 0.6167 0.20361 0.0
C1714 C 0.52938 0.60483 0.21573 0.0
H1715 H 0.5274 0.56581 0.32989 0.0
H1716 H 0.52067 0.58596 0.29761 0.0
H1717 H 0.51019 0.56066 0.29196 0.0
H1718 H 0.50593 0.55812 0.21849 0.0
H1719 H 0.47689 0.5786 0.19746 0.0
H1720 H 0.91671 0.47884 0.69203 0.0
H1721 H 0.93757 0.5082 0.71064 0.0
H1722 H 0.88284 0.54409 0.72766 0.0
H1723 H 0.86168 0.51462 0.70907 0.0
H1724 H 0.9393 0.5496 0.68234 0.0
H1725 H 0.91379 0.54502 0.82986 0.0
H1726 H 0.9101 0.52418 0.79748 0.0
H1727 H 0.89406 0.5465 0.79497 0.0
C1728 C 0.90906 0.49304 0.69929 0.0
C1729 C 0.8875 0.49433 0.69929 0.0
C1730 C 0.92103 0.50981 0.70993 0.0
C1731 C 0.91175 0.52819 0.72111 0.0
C1732 C 0.89028 0.52991 0.71963 0.0
H1733 H 0.98357 0.63893 0.76589 0.0
H1734 H 0.95573 0.61584 0.74803 0.0
C1735 C 0.87823 0.51313 0.70868 0.0
C1736 C 0.92474 0.54515 0.7354 0.0
H1737 H 0.93844 0.57023 0.81513 0.0
C1738 C 0.93896 0.5543 0.71125 0.0
C1739 C 0.92445 0.55099 0.77329 0.0
C1740 C 0.90991 0.54113 0.80063 0.0
C1741 C 0.95303 0.56903 0.72403 0.0
C1742 C 0.95278 0.57484 0.76193 0.0
C1743 C 0.93846 0.56583 0.78606 0.0
C1744 C 0.96802 0.58954 0.77706 0.0
C1745 C 0.96854 0.57779 0.69719 0.0
C1746 C 0.98368 0.58262 0.80071 0.0
C1747 C 0.99969 0.59578 0.81105 0.0
C1748 C 1.00026 0.61614 0.79799 0.0
C1749 C 0.98376 0.62333 0.7763 0.0
C1750 C 0.96783 0.61014 0.7659 0.0
H1751 H 0.969 0.56912 0.67061 0.0
H1752 H 0.96448 0.59395 0.69086 0.0
H1753 H 0.98412 0.5777 0.70968 0.0
H1754 H 0.98403 0.56677 0.80977 0.0
H1755 H 0.01206 0.58972 0.82788 0.0
H1756 H 0.9183 0.02458 0.29965 0.0
H1757 H 0.9393 0.99501 0.28351 0.0
H1758 H 0.88498 0.95753 0.2746 0.0
H1759 H 0.86361 0.98733 0.2904 0.0
H1760 H 0.9432 0.95614 0.31681 0.0
H1761 H 0.91304 0.95097 0.17215 0.0
H1762 H 0.90877 0.97321 0.20104 0.0
H1763 H 0.89464 0.95003 0.20939 0.0
C1764 C 0.91074 0.01004 0.29457 0.0
C1765 C 0.88923 0.0084 0.296 0.0
C1766 C 0.9228 0.99312 0.28537 0.0
C1767 C 0.9137 0.97416 0.27724 0.0
C1768 C 0.89229 0.97213 0.28014 0.0
H1769 H 0.98831 0.86891 0.19904 0.0
H1770 H 0.95814 0.88864 0.21915 0.0
C1771 C 0.88013 0.98913 0.28949 0.0
C1772 C 0.92692 0.95694 0.26477 0.0
H1773 H 0.94077 0.92957 0.18761 0.0
C1774 C 0.94245 0.95008 0.28876 0.0
C1775 C 0.92592 0.94904 0.22813 0.0
C1776 C 0.90981 0.9562 0.20095 0.0
C1777 C 0.95747 0.93619 0.27667 0.0
C1778 C 0.95709 0.92914 0.23953 0.0
C1779 C 0.94098 0.93508 0.21605 0.0
C1780 C 0.97451 0.91738 0.2239 0.0
C1781 C 0.9741 0.92966 0.30333 0.0
C1782 C 0.99343 0.92721 0.21873 0.0
C1783 C 0.01056 0.91611 0.20712 0.0
C1784 C 0.00919 0.89487 0.20048 0.0
C1785 C 0.98993 0.88522 0.20394 0.0
C1786 C 0.97269 0.89643 0.21551 0.0
H1787 H 0.96964 0.93246 0.33271 0.0
H1788 H 0.97773 0.91313 0.29981 0.0
H1789 H 0.98825 0.93857 0.29747 0.0
H1790 H 0.99505 0.94343 0.22462 0.0
H1791 H 0.02506 0.92412 0.2045 0.0
H1792 H 0.55642 0.19202 0.07161 0.0
H1793 H 0.54157 0.21486 0.02549 0.0
H1794 H 0.48786 0.22272 0.09404 0.0
H1795 H 0.50281 0.19954 0.14104 0.0
H1796 H 0.50103 0.21242 0.98744 0.0
H1797 H 0.51281 0.2822 0.07476 0.0
H1798 H 0.52679 0.25891 0.08449 0.0
H1799 H 0.49976 0.26007 0.09347 0.0
C1800 C 0.54139 0.19848 0.07698 0.0
C1801 C 0.53089 0.19415 0.1102 0.0
C1802 C 0.53287 0.21146 0.05044 0.0
C1803 C 0.5137 0.22057 0.05645 0.0
C1804 C 0.50275 0.21589 0.08904 0.0
H1805 H 0.50168 0.32204 0.89371 0.0
H1806 H 0.48712 0.29852 0.9408 0.0
C1807 C 0.51126 0.20263 0.11572 0.0
C1808 C 0.5063 0.23571 0.02881 0.0
H1809 H 0.51007 0.28693 0.01022 0.0
C1810 C 0.50222 0.22878 0.99263 0.0
C1811 C 0.50775 0.25703 0.03567 0.0
C1812 C 0.51202 0.26518 0.07413 0.0
C1813 C 0.5016 0.24249 0.96258 0.0
C1814 C 0.50539 0.26355 0.96889 0.0
C1815 C 0.50719 0.27075 0.0055 0.0
C1816 C 0.51242 0.27706 0.93831 0.0
C1817 C 0.49855 0.23414 0.9239 0.0
C1818 C 0.53136 0.27277 0.92165 0.0
C1819 C 0.53974 0.28615 0.89563 0.0
C1820 C 0.5293 0.30413 0.88535 0.0
C1821 C 0.50996 0.30821 0.90106 0.0
C1822 C 0.50168 0.29486 0.92788 0.0
H1823 H 0.4894 0.21976 0.92437 0.0
H1824 H 0.49074 0.24553 0.90579 0.0
H1825 H 0.51374 0.23057 0.91154 0.0
H1826 H 0.54005 0.25931 0.9297 0.0
H1827 H 0.5546 0.28252 0.88382 0.0
H1828 H 0.19566 0.50716 0.35586 0.0
H1829 H 0.21792 0.49153 0.4034 0.0
H1830 H 0.20971 0.54474 0.47307 0.0
H1831 H 0.18768 0.56021 0.42641 0.0
H1832 H 0.25456 0.50809 0.42783 0.0
H1833 H 0.20291 0.49858 0.54765 0.0
H1834 H 0.19342 0.50151 0.50073 0.0
H1835 H 0.19982 0.52372 0.52827 0.0
C1836 C 0.19832 0.51527 0.38168 0.0
C1837 C 0.19004 0.53496 0.38731 0.0
C1838 C 0.21101 0.50635 0.40876 0.0
C1839 C 0.21519 0.5168 0.4421 0.0
C1840 C 0.20633 0.53613 0.44806 0.0
H1841 H 0.30902 0.55451 0.56712 0.0
H1842 H 0.28636 0.54122 0.51928 0.0
C1843 C 0.1939 0.54507 0.42108 0.0
C1844 C 0.23061 0.50917 0.46912 0.0
H1845 H 0.23875 0.50732 0.56272 0.0
C1846 C 0.25103 0.50721 0.45726 0.0
C1847 C 0.22607 0.50749 0.50747 0.0
C1848 C 0.2043 0.5077 0.52167 0.0
C1849 C 0.26718 0.5061 0.48303 0.0
C1850 C 0.26275 0.50734 0.52148 0.0
C1851 C 0.24222 0.50676 0.53325 0.0
C1852 C 0.27867 0.51333 0.54891 0.0
C1853 C 0.2889 0.50489 0.46877 0.0
C1854 C 0.28189 0.50215 0.58185 0.0
C1855 C 0.29496 0.50982 0.60962 0.0
C1856 C 0.30457 0.52899 0.60504 0.0
C1857 C 0.30174 0.53975 0.57159 0.0
C1858 C 0.28896 0.53204 0.54394 0.0
H1859 H 0.28958 0.49609 0.44236 0.0
H1860 H 0.29459 0.52062 0.46293 0.0
H1861 H 0.29927 0.49757 0.48936 0.0
H1862 H 0.27388 0.4878 0.58645 0.0
H1863 H 0.2968 0.50127 0.63521 0.0
H1864 H 0.94093 0.30697 0.07692 0.0
H1865 H 0.95533 0.28513 0.02877 0.0
H1866 H 0.01289 0.2828 0.08762 0.0
H1867 H 0.99848 0.30501 0.13662 0.0
H1868 H 0.99574 0.29253 0.98551 0.0
H1869 H 0.99064 0.22065 0.0692 0.0
H1870 H 0.97428 0.24215 0.08027 0.0
H1871 H 0.00134 0.24385 0.08864 0.0
C1872 C 0.95668 0.3019 0.07981 0.0
C1873 C 0.96849 0.30759 0.11084 0.0
C1874 C 0.96491 0.28948 0.05211 0.0
C1875 C 0.98511 0.28232 0.05474 0.0
C1876 C 0.99722 0.28818 0.08523 0.0
H1877 H 0.99956 0.18351 0.8882 0.0
H1878 H 0.01343 0.20733 0.93537 0.0
C1879 C 0.98899 0.30086 0.11308 0.0
C1880 C 0.99264 0.26819 0.02558 0.0
H1881 H 0.99154 0.21722 0.00401 0.0
C1882 C 0.9956 0.27604 0.98968 0.0
C1883 C 0.99257 0.24672 0.03115 0.0
C1884 C 0.98958 0.23766 0.06934 0.0
C1885 C 0.99655 0.26297 0.95875 0.0
C1886 C 0.99411 0.2416 0.96389 0.0
C1887 C 0.99336 0.23363 0.00012 0.0
C1888 C 0.98763 0.22818 0.93278 0.0
C1889 C 0.99864 0.27224 0.92053 0.0
C1890 C 0.96863 0.23203 0.91592 0.0
C1891 C 0.96067 0.21848 0.88978 0.0
C1892 C 0.97155 0.20074 0.87962 0.0
C1893 C 0.99096 0.19715 0.89541 0.0
C1894 C 0.99884 0.21068 0.92229 0.0
H1895 H 0.00736 0.28688 0.92157 0.0
H1896 H 0.00645 0.26154 0.90112 0.0
H1897 H 0.98314 0.27566 0.90937 0.0
H1898 H 0.95953 0.2452 0.92407 0.0
H1899 H 0.94572 0.22171 0.87797 0.0
H1900 H 0.30026 0.98868 0.35099 0.0
H1901 H 0.27595 0.0045 0.39444 0.0
H1902 H 0.2991 0.96604 0.48258 0.0
H1903 H 0.32369 0.95094 0.44027 0.0
H1904 H 0.24562 0.98679 0.42633 0.0
H1905 H 0.29251 0.01707 0.54 0.0
H1906 H 0.3037 0.01023 0.49577 0.0
H1907 H 0.3007 0.99126 0.53202 0.0
C1908 C 0.30051 0.98401 0.37988 0.0
C1909 C 0.31388 0.96843 0.39201 0.0
C1910 C 0.2866 0.99308 0.40471 0.0
C1911 C 0.28585 0.98679 0.4421 0.0
C1912 C 0.29972 0.97176 0.45435 0.0
H1913 H 0.19622 0.94326 0.57217 0.0
H1914 H 0.21791 0.95661 0.52326 0.0
C1915 C 0.31367 0.96288 0.4298 0.0
C1916 C 0.26893 0.99338 0.46723 0.0
H1917 H 0.25925 0.00135 0.55935 0.0
C1918 C 0.24862 0.99066 0.45514 0.0
C1919 C 0.2725 0.99915 0.50465 0.0
C1920 C 0.29357 0.00483 0.51859 0.0
C1921 C 0.23218 0.99104 0.48033 0.0
C1922 C 0.23623 0.99354 0.51872 0.0
C1923 C 0.25614 0.99884 0.53009 0.0
C1924 C 0.22121 0.98687 0.54738 0.0
C1925 C 0.21075 0.98761 0.46575 0.0
C1926 C 0.21603 0.99927 0.578 0.0
C1927 C 0.20361 0.99149 0.60671 0.0
C1928 C 0.19656 0.97109 0.6054 0.0
C1929 C 0.20146 0.959 0.57428 0.0
C1930 C 0.21369 0.96673 0.54587 0.0
H1931 H 0.20893 0.9947 0.43786 0.0
H1932 H 0.20799 0.97089 0.46262 0.0
H1933 H 0.19897 0.99407 0.48472 0.0
H1934 H 0.22189 0.01479 0.57998 0.0
H1935 H 0.20014 1.00114 0.63039 0.0
H1936 H 0.45723 0.67615 0.05518 0.0
H1937 H 0.47176 0.70121 0.01305 0.0
H1938 H 0.50786 0.72663 0.10242 0.0
H1939 H 0.49259 0.70181 0.1456 0.0
H1940 H 0.48848 0.75579 0.07002 0.0
H1941 H 0.52288 0.7111 0.95727 0.0
H1942 H 0.49754 0.7013 0.96438 0.0
H1943 H 0.51629 0.69944 0.00124 0.0
C1944 C 0.46858 0.68675 0.06594 0.0
C1945 C 0.47354 0.68706 0.10399 0.0
C1946 C 0.47715 0.70098 0.04152 0.0
C1947 C 0.49125 0.71569 0.0542 0.0
C1948 C 0.49714 0.71536 0.09182 0.0
H1949 H 0.50328 0.80359 0.86815 0.0
H1950 H 0.51719 0.78202 0.91853 0.0
C1951 C 0.4884 0.70113 0.1165 0.0
C1952 C 0.49703 0.73303 0.02931 0.0
H1953 H 0.50543 0.74338 0.93752 0.0
C1954 C 0.49287 0.7531 0.04135 0.0
C1955 C 0.50341 0.72989 0.99208 0.0
C1956 C 0.51051 0.70924 0.97826 0.0
C1957 C 0.49247 0.76956 0.01623 0.0
C1958 C 0.49572 0.76577 0.97795 0.0
C1959 C 0.50237 0.74626 0.9667 0.0
C1960 C 0.48861 0.78047 0.94913 0.0
C1961 C 0.48744 0.79069 0.03072 0.0
C1962 C 0.468 0.78662 0.94948 0.0
C1963 C 0.46012 0.79874 0.92106 0.0
C1964 C 0.47254 0.8049 0.8911 0.0
C1965 C 0.49335 0.79913 0.89091 0.0
C1966 C 0.50129 0.78682 0.91961 0.0
H1967 H 0.49381 0.79287 0.0591 0.0
H1968 H 0.49357 0.80291 0.01227 0.0
H1969 H 0.47053 0.7924 0.03269 0.0
H1970 H 0.45773 0.78147 0.97125 0.0
H1971 H 0.44405 0.80295 0.92232 0.0
H1972 H 0.81723 0.45126 0.5564 0.0
H1973 H 0.7928 0.46551 0.51323 0.0
H1974 H 0.77418 0.51022 0.59502 0.0
H1975 H 0.79817 0.49502 0.63986 0.0
H1976 H 0.74214 0.49495 0.56816 0.0
H1977 H 0.78865 0.51221 0.446 0.0
H1978 H 0.79486 0.48638 0.45828 0.0
H1979 H 0.80044 0.507 0.49041 0.0
C1980 C 0.80828 0.46437 0.56529 0.0
C1981 C 0.80963 0.47186 0.60188 0.0
C1982 C 0.79441 0.47277 0.54012 0.0
C1983 C 0.78186 0.48934 0.55026 0.0
C1984 C 0.78378 0.49754 0.5863 0.0
H1985 H 0.69765 0.49485 0.36074 0.0
H1986 H 0.72077 0.51051 0.40659 0.0
C1987 C 0.79753 0.48886 0.61193 0.0
C1988 C 0.76501 0.49576 0.52475 0.0
H1989 H 0.75406 0.49715 0.43211 0.0
C1990 C 0.74483 0.4961 0.53849 0.0
C1991 C 0.76819 0.49827 0.48604 0.0
C1992 C 0.78928 0.50121 0.46958 0.0
C1993 C 0.72791 0.49623 0.51433 0.0
C1994 C 0.73125 0.49495 0.47547 0.0
C1995 C 0.75132 0.49732 0.46184 0.0
C1996 C 0.71493 0.48786 0.44943 0.0
C1997 C 0.70667 0.49698 0.53094 0.0
C1998 C 0.70375 0.47008 0.45813 0.0
C1999 C 0.69036 0.4614 0.43242 0.0
C2000 C 0.68817 0.46985 0.39666 0.0
C2001 C 0.69897 0.48795 0.38802 0.0
C2002 C 0.71221 0.49689 0.41422 0.0
H2003 H 0.70642 0.50733 0.55547 0.0
H2004 H 0.69507 0.5024 0.5106 0.0
H2005 H 0.70232 0.48145 0.54087 0.0
H2006 H 0.70606 0.46221 0.48429 0.0
H2007 H 0.68246 0.4474 0.44017 0.0
H2008 H 0.04631 0.68267 0.93174 0.0
H2009 H 0.03609 0.70827 0.97771 0.0
H2010 H 0.99544 0.73606 0.89775 0.0
H2011 H 0.00545 0.71005 0.85143 0.0
H2012 H 0.04214 0.75381 0.94459 0.0
H2013 H 0.96868 0.73408 0.01528 0.0
H2014 H 0.98613 0.71408 0.00086 0.0
H2015 H 0.97261 0.72863 0.96649 0.0
C2016 C 0.03463 0.69378 0.92438 0.0
C2017 C 0.02668 0.69448 0.88813 0.0
C2018 C 0.02878 0.70834 0.95066 0.0
C2019 C 0.015 0.72396 0.94109 0.0
C2020 C 0.00589 0.72391 0.90571 0.0
H2021 H 0.03138 0.83992 0.05875 0.0
H2022 H 0.01941 0.816 0.01096 0.0
C2023 C 0.01158 0.70907 0.87936 0.0
C2024 C 0.01359 0.74209 0.96561 0.0
H2025 H 0.98732 0.76241 0.03898 0.0
C2026 C 0.02999 0.75597 0.96485 0.0
C2027 C 0.99786 0.74452 0.99217 0.0
C2028 C 0.98022 0.72961 0.99405 0.0
C2029 C 0.0316 0.77183 0.99095 0.0
C2030 C 0.01593 0.7743 0.01795 0.0
C2031 C 0.99917 0.76068 0.01805 0.0
C2032 C 0.01785 0.78984 0.04797 0.0
C2033 C 0.05073 0.78494 0.9906 0.0
C2034 C 0.0192 0.78352 0.08524 0.0
C2035 C 0.02541 0.79734 0.1128 0.0
C2036 C 0.03064 0.8176 0.10333 0.0
C2037 C 0.02764 0.82432 0.06664 0.0
C2038 C 0.02093 0.81063 0.03932 0.0
H2039 H 0.0633 0.77776 0.97428 0.0
H2040 H 0.0472 0.79997 0.97762 0.0
H2041 H 0.05641 0.78773 0.01925 0.0
H2042 H 0.01679 0.76758 0.09262 0.0
H2043 H 0.02769 0.79175 0.14087 0.0
H2044 H 0.82211 0.04519 0.43873 0.0
H2045 H 0.79735 0.03076 0.48153 0.0
H2046 H 0.7707 0.99518 0.39265 0.0
H2047 H 0.79522 0.01037 0.34881 0.0
H2048 H 0.74207 0.0148 0.42609 0.0
H2049 H 0.78739 0.97962 0.53721 0.0
H2050 H 0.79744 0.00485 0.52999 0.0
H2051 H 0.79871 0.98617 0.49294 0.0
C2052 C 0.8113 0.03398 0.42821 0.0
C2053 C 0.81055 0.02915 0.39012 0.0
C2054 C 0.79724 0.02546 0.45301 0.0
C2055 C 0.78228 0.01153 0.44066 0.0
C2056 C 0.78218 0.00577 0.40298 0.0
H2057 H 0.69558 1.00059 0.62894 0.0
H2058 H 0.71663 0.98636 0.57813 0.0
C2059 C 0.79623 0.01445 0.37793 0.0
C2060 C 0.76511 0.00588 0.46603 0.0
H2061 H 0.75553 0.99752 0.55812 0.0
C2062 C 0.74498 0.01033 0.45465 0.0
C2063 C 0.76852 0.99941 0.50313 0.0
C2064 C 0.7892 0.99201 0.51626 0.0
C2065 C 0.72877 0.01093 0.4803 0.0
C2066 C 0.7329 0.0076 0.51844 0.0
C2067 C 0.75242 1.00065 0.52904 0.0
C2068 C 0.71862 0.01496 0.54772 0.0
C2069 C 0.70759 0.01632 0.46653 0.0
C2070 C 0.71293 0.0357 0.54764 0.0
C2071 C 0.70112 0.04377 0.5763 0.0
C2072 C 0.69481 0.0314 0.60624 0.0
C2073 C 0.70017 0.01048 0.60622 0.0
C2074 C 0.71217 0.00236 0.57727 0.0
H2075 H 0.70503 0.01008 0.43817 0.0
H2076 H 0.69546 0.01032 0.48532 0.0
H2077 H 0.7061 0.03325 0.4648 0.0
H2078 H 0.71816 0.04591 0.52583 0.0
H2079 H 0.69723 0.05992 0.5752 0.0
loop_
_geom_bond_atom_site_label_1
_geom_bond_atom_site_label_2
_geom_bond_distance
_geom_bond_site_symmetry_2
_ccdc_geom_bond_type
Fe0 O2 1.918 . S
Fe0 O5 1.997 . S
Fe0 O6 2.002 . S
Fe0 O11 1.976 . S
Fe0 O14 1.996 . S
Fe1 O2 1.918 . S
Fe1 O9 1.997 . S
Fe1 O12 1.996 . S
Fe1 O16 1.976 . S
Fe1 O19 2.002 . S
O2 Fe0 1.918 . S
O2 Fe1 1.918 . S
O2 Fe3 1.918 . S
Fe3 O2 1.918 . S
Fe3 O4 2.002 . S
Fe3 O13 1.976 . S
Fe3 O17 1.996 . S
Fe3 O20 1.997 . S
O4 Fe3 2.002 . S
O4 C21 1.295 . S
O5 Fe0 1.997 . S
O5 C21 1.235 . S
O6 Fe0 2.002 . S
O6 C7 1.295 . S
C7 O6 1.295 . S
C7 O9 1.235 . S
C8 O13 1.287 . S
C8 O14 1.255 . S
O9 Fe1 1.997 . S
O9 C7 1.235 . S
C10 O16 1.287 . S
C10 O17 1.255 . S
O11 Fe0 1.976 . S
O11 C18 1.287 . S
O12 Fe1 1.996 . S
O12 C18 1.255 . S
O13 Fe3 1.976 . S
O13 C8 1.287 . S
O14 Fe0 1.996 . S
O14 C8 1.255 . S
C15 O19 1.295 . S
C15 O20 1.235 . S
O16 Fe1 1.976 . S
O16 C10 1.287 . S
O17 Fe3 1.996 . S
O17 C10 1.255 . S
C18 O11 1.287 . S
C18 O12 1.255 . S
O19 Fe1 2.002 . S
O19 C15 1.295 . S
O20 Fe3 1.997 . S
O20 C15 1.235 . S
C21 O4 1.295 . S
C21 O5 1.235 . S
Fe22 O24 1.918 . S
Fe22 O27 1.997 . S
Fe22 O28 2.002 . S
Fe22 O33 1.976 . S
Fe22 O36 1.996 . S
Fe23 O24 1.918 . S
Fe23 O31 1.997 . S
Fe23 O34 1.996 . S
Fe23 O38 1.976 . S
Fe23 O41 2.002 . S
O24 Fe22 1.918 . S
O24 Fe23 1.918 . S
O24 Fe25 1.918 . S
Fe25 O24 1.918 . S
Fe25 O26 2.002 . S
Fe25 O35 1.976 . S
Fe25 O39 1.996 . S
Fe25 O42 1.997 . S
O26 Fe25 2.002 . S
O26 C43 1.295 . S
O27 Fe22 1.997 . S
O27 C43 1.235 . S
O28 Fe22 2.002 . S
O28 C29 1.295 . S
C29 O28 1.295 . S
C29 O31 1.235 . S
C30 O35 1.287 . S
C30 O36 1.255 . S
O31 Fe23 1.997 . S
O31 C29 1.235 . S
C32 O38 1.287 . S
C32 O39 1.255 . S
O33 Fe22 1.976 . S
O33 C40 1.287 . S
O34 Fe23 1.996 . S
O34 C40 1.255 . S
O35 Fe25 1.976 . S
O35 C30 1.287 . S
O36 Fe22 1.996 . S
O36 C30 1.255 . S
C37 O41 1.295 . S
C37 O42 1.235 . S
O38 Fe23 1.976 . S
O38 C32 1.287 . S
O39 Fe25 1.996 . S
O39 C32 1.255 . S
C40 O33 1.287 . S
C40 O34 1.255 . S
O41 Fe23 2.002 . S
O41 C37 1.295 . S
O42 Fe25 1.997 . S
O42 C37 1.235 . S
C43 O26 1.295 . S
C43 O27 1.235 . S
Fe44 O46 1.918 . S
Fe44 O49 1.997 . S
Fe44 O50 2.002 . S
Fe44 O55 1.976 . S
Fe44 O58 1.996 . S
Fe45 O46 1.918 . S
Fe45 O53 1.997 . S
Fe45 O56 1.996 . S
Fe45 O60 1.976 . S
Fe45 O63 2.002 . S
O46 Fe44 1.918 . S
O46 Fe45 1.918 . S
O46 Fe47 1.918 . S
Fe47 O46 1.918 . S
Fe47 O48 2.002 . S
Fe47 O57 1.976 . S
Fe47 O61 1.996 . S
Fe47 O64 1.997 . S
O48 Fe47 2.002 . S
O48 C65 1.295 . S
O49 Fe44 1.997 . S
O49 C65 1.235 . S
O50 Fe44 2.002 . S
O50 C51 1.295 . S
C51 O50 1.295 . S
C51 O53 1.235 . S
C52 O57 1.287 . S
C52 O58 1.255 . S
O53 Fe45 1.997 . S
O53 C51 1.235 . S
C54 O60 1.287 . S
C54 O61 1.255 . S
O55 Fe44 1.976 . S
O55 C62 1.287 . S
O56 Fe45 1.996 . S
O56 C62 1.255 . S
O57 Fe47 1.976 . S
O57 C52 1.287 . S
O58 Fe44 1.996 . S
O58 C52 1.255 . S
C59 O63 1.295 . S
C59 O64 1.235 . S
O60 Fe45 1.976 . S
O60 C54 1.287 . S
O61 Fe47 1.996 . S
O61 C54 1.255 . S
C62 O55 1.287 . S
C62 O56 1.255 . S
O63 Fe45 2.002 . S
O63 C59 1.295 . S
O64 Fe47 1.997 . S
O64 C59 1.235 . S
C65 O48 1.295 . S
C65 O49 1.235 . S
Fe66 O68 1.918 . S
Fe66 O71 1.997 . S
Fe66 O72 2.002 . S
Fe66 O77 1.976 . S
Fe66 O80 1.996 . S
Fe67 O68 1.918 . S
Fe67 O75 1.997 . S
Fe67 O78 1.996 . S
Fe67 O82 1.976 . S
Fe67 O85 2.002 . S
O68 Fe66 1.918 . S
O68 Fe67 1.918 . S
O68 Fe69 1.918 . S
Fe69 O68 1.918 . S
Fe69 O70 2.002 . S
Fe69 O79 1.976 . S
Fe69 O83 1.996 . S
Fe69 O86 1.997 . S
O70 Fe69 2.002 . S
O70 C87 1.295 . S
O71 Fe66 1.997 . S
O71 C87 1.235 . S
O72 Fe66 2.002 . S
O72 C73 1.295 . S
C73 O72 1.295 . S
C73 O75 1.235 . S
C74 O79 1.287 . S
C74 O80 1.255 . S
O75 Fe67 1.997 . S
O75 C73 1.235 . S
C76 O82 1.287 . S
C76 O83 1.255 . S
O77 Fe66 1.976 . S
O77 C84 1.287 . S
O78 Fe67 1.996 . S
O78 C84 1.255 . S
O79 Fe69 1.976 . S
O79 C74 1.287 . S
O80 Fe66 1.996 . S
O80 C74 1.255 . S
C81 O85 1.295 . S
C81 O86 1.235 . S
O82 Fe67 1.976 . S
O82 C76 1.287 . S
O83 Fe69 1.996 . S
O83 C76 1.255 . S
C84 O77 1.287 . S
C84 O78 1.255 . S
O85 Fe67 2.002 . S
O85 C81 1.295 . S
O86 Fe69 1.997 . S
O86 C81 1.235 . S
C87 O70 1.295 . S
C87 O71 1.235 . S
Fe88 O90 1.918 . S
Fe88 O93 1.997 . S
Fe88 O94 2.002 . S
Fe88 O99 1.976 . S
Fe88 O102 1.996 . S
Fe89 O90 1.918 . S
Fe89 O97 1.997 . S
Fe89 O100 1.996 . S
Fe89 O104 1.976 . S
Fe89 O107 2.002 . S
O90 Fe88 1.918 . S
O90 Fe89 1.918 . S
O90 Fe91 1.918 . S
Fe91 O90 1.918 . S
Fe91 O92 2.002 . S
Fe91 O101 1.976 . S
Fe91 O105 1.996 . S
Fe91 O108 1.997 . S
O92 Fe91 2.002 . S
O92 C109 1.295 . S
O93 Fe88 1.997 . S
O93 C109 1.235 . S
O94 Fe88 2.002 . S
O94 C95 1.295 . S
C95 O94 1.295 . S
C95 O97 1.235 . S
C96 O101 1.287 . S
C96 O102 1.255 . S
O97 Fe89 1.997 . S
O97 C95 1.235 . S
C98 O104 1.287 . S
C98 O105 1.255 . S
O99 Fe88 1.976 . S
O99 C106 1.287 . S
O100 Fe89 1.996 . S
O100 C106 1.255 . S
O101 Fe91 1.976 . S
O101 C96 1.287 . S
O102 Fe88 1.996 . S
O102 C96 1.255 . S
C103 O107 1.295 . S
C103 O108 1.235 . S
O104 Fe89 1.976 . S
O104 C98 1.287 . S
O105 Fe91 1.996 . S
O105 C98 1.255 . S
C106 O99 1.287 . S
C106 O100 1.255 . S
O107 Fe89 2.002 . S
O107 C103 1.295 . S
O108 Fe91 1.997 . S
O108 C103 1.235 . S
C109 O92 1.295 . S
C109 O93 1.235 . S
Fe110 O112 1.918 . S
Fe110 O115 1.997 . S
Fe110 O116 2.002 . S
Fe110 O121 1.976 . S
Fe110 O124 1.996 . S
Fe111 O112 1.918 . S
Fe111 O119 1.997 . S
Fe111 O122 1.996 . S
Fe111 O126 1.976 . S
Fe111 O129 2.002 . S
O112 Fe110 1.918 . S
O112 Fe111 1.918 . S
O112 Fe113 1.918 . S
Fe113 O112 1.918 . S
Fe113 O114 2.002 . S
Fe113 O123 1.976 . S
Fe113 O127 1.996 . S
Fe113 O130 1.997 . S
O114 Fe113 2.002 . S
O114 C131 1.295 . S
O115 Fe110 1.997 . S
O115 C131 1.235 . S
O116 Fe110 2.002 . S
O116 C117 1.295 . S
C117 O116 1.295 . S
C117 O119 1.235 . S
C118 O123 1.287 . S
C118 O124 1.255 . S
O119 Fe111 1.997 . S
O119 C117 1.235 . S
C120 O126 1.287 . S
C120 O127 1.255 . S
O121 Fe110 1.976 . S
O121 C128 1.287 . S
O122 Fe111 1.996 . S
O122 C128 1.255 . S
O123 Fe113 1.976 . S
O123 C118 1.287 . S
O124 Fe110 1.996 . S
O124 C118 1.255 . S
C125 O129 1.295 . S
C125 O130 1.235 . S
O126 Fe111 1.976 . S
O126 C120 1.287 . S
O127 Fe113 1.996 . S
O127 C120 1.255 . S
C128 O121 1.287 . S
C128 O122 1.255 . S
O129 Fe111 2.002 . S
O129 C125 1.295 . S
O130 Fe113 1.997 . S
O130 C125 1.235 . S
C131 O114 1.295 . S
C131 O115 1.235 . S
Fe132 O134 1.918 . S
Fe132 O137 1.997 . S
Fe132 O138 2.002 . S
Fe132 O143 1.976 . S
Fe132 O146 1.996 . S
Fe133 O134 1.918 . S
Fe133 O141 1.997 . S
Fe133 O144 1.996 . S
Fe133 O148 1.976 . S
Fe133 O151 2.002 . S
O134 Fe132 1.918 . S
O134 Fe133 1.918 . S
O134 Fe135 1.918 . S
Fe135 O134 1.918 . S
Fe135 O136 2.002 . S
Fe135 O145 1.976 . S
Fe135 O149 1.996 . S
Fe135 O152 1.997 . S
O136 Fe135 2.002 . S
O136 C153 1.295 . S
O137 Fe132 1.997 . S
O137 C153 1.235 . S
O138 Fe132 2.002 . S
O138 C139 1.295 . S
C139 O138 1.295 . S
C139 O141 1.235 . S
C140 O145 1.287 . S
C140 O146 1.255 . S
O141 Fe133 1.997 . S
O141 C139 1.235 . S
C142 O148 1.287 . S
C142 O149 1.255 . S
O143 Fe132 1.976 . S
O143 C150 1.287 . S
O144 Fe133 1.996 . S
O144 C150 1.255 . S
O145 Fe135 1.976 . S
O145 C140 1.287 . S
O146 Fe132 1.996 . S
O146 C140 1.255 . S
C147 O151 1.295 . S
C147 O152 1.235 . S
O148 Fe133 1.976 . S
O148 C142 1.287 . S
O149 Fe135 1.996 . S
O149 C142 1.255 . S
C150 O143 1.287 . S
C150 O144 1.255 . S
O151 Fe133 2.002 . S
O151 C147 1.295 . S
O152 Fe135 1.997 . S
O152 C147 1.235 . S
C153 O136 1.295 . S
C153 O137 1.235 . S
Fe154 O156 1.918 . S
Fe154 O159 1.997 . S
Fe154 O160 2.002 . S
Fe154 O165 1.976 . S
Fe154 O168 1.996 . S
Fe155 O156 1.918 . S
Fe155 O163 1.997 . S
Fe155 O166 1.996 . S
Fe155 O170 1.976 . S
Fe155 O173 2.002 . S
O156 Fe154 1.918 . S
O156 Fe155 1.918 . S
O156 Fe157 1.918 . S
Fe157 O156 1.918 . S
Fe157 O158 2.002 . S
Fe157 O167 1.976 . S
Fe157 O171 1.996 . S
Fe157 O174 1.997 . S
O158 Fe157 2.002 . S
O158 C175 1.295 . S
O159 Fe154 1.997 . S
O159 C175 1.235 . S
O160 Fe154 2.002 . S
O160 C161 1.295 . S
C161 O160 1.295 . S
C161 O163 1.235 . S
C162 O167 1.287 . S
C162 O168 1.255 . S
O163 Fe155 1.997 . S
O163 C161 1.235 . S
C164 O170 1.287 . S
C164 O171 1.255 . S
O165 Fe154 1.976 . S
O165 C172 1.287 . S
O166 Fe155 1.996 . S
O166 C172 1.255 . S
O167 Fe157 1.976 . S
O167 C162 1.287 . S
O168 Fe154 1.996 . S
O168 C162 1.255 . S
C169 O173 1.295 . S
C169 O174 1.235 . S
O170 Fe155 1.976 . S
O170 C164 1.287 . S
O171 Fe157 1.996 . S
O171 C164 1.255 . S
C172 O165 1.287 . S
C172 O166 1.255 . S
O173 Fe155 2.002 . S
O173 C169 1.295 . S
O174 Fe157 1.997 . S
O174 C169 1.235 . S
C175 O158 1.295 . S
C175 O159 1.235 . S
Fe176 O178 1.918 . S
Fe176 O181 1.997 . S
Fe176 O182 2.002 . S
Fe176 O187 1.976 . S
Fe176 O190 1.996 . S
Fe177 O178 1.918 . S
Fe177 O185 1.997 . S
Fe177 O188 1.996 . S
Fe177 O192 1.976 . S
Fe177 O195 2.002 . S
O178 Fe176 1.918 . S
O178 Fe177 1.918 . S
O178 Fe179 1.918 . S
Fe179 O178 1.918 . S
Fe179 O180 2.002 . S
Fe179 O189 1.976 . S
Fe179 O193 1.996 . S
Fe179 O196 1.997 . S
O180 Fe179 2.002 . S
O180 C197 1.295 . S
O181 Fe176 1.997 . S
O181 C197 1.235 . S
O182 Fe176 2.002 . S
O182 C183 1.295 . S
C183 O182 1.295 . S
C183 O185 1.235 . S
C184 O189 1.287 . S
C184 O190 1.255 . S
O185 Fe177 1.997 . S
O185 C183 1.235 . S
C186 O192 1.287 . S
C186 O193 1.255 . S
O187 Fe176 1.976 . S
O187 C194 1.287 . S
O188 Fe177 1.996 . S
O188 C194 1.255 . S
O189 Fe179 1.976 . S
O189 C184 1.287 . S
O190 Fe176 1.996 . S
O190 C184 1.255 . S
C191 O195 1.295 . S
C191 O196 1.235 . S
O192 Fe177 1.976 . S
O192 C186 1.287 . S
O193 Fe179 1.996 . S
O193 C186 1.255 . S
C194 O187 1.287 . S
C194 O188 1.255 . S
O195 Fe177 2.002 . S
O195 C191 1.295 . S
O196 Fe179 1.997 . S
O196 C191 1.235 . S
C197 O180 1.295 . S
C197 O181 1.235 . S
Fe198 O200 1.918 . S
Fe198 O203 1.997 . S
Fe198 O204 2.002 . S
Fe198 O209 1.976 . S
Fe198 O212 1.996 . S
Fe199 O200 1.918 . S
Fe199 O207 1.997 . S
Fe199 O210 1.996 . S
Fe199 O214 1.976 . S
Fe199 O217 2.002 . S
O200 Fe198 1.918 . S
O200 Fe199 1.918 . S
O200 Fe201 1.918 . S
Fe201 O200 1.918 . S
Fe201 O202 2.002 . S
Fe201 O211 1.976 . S
Fe201 O215 1.996 . S
Fe201 O218 1.997 . S
O202 Fe201 2.002 . S
O202 C219 1.295 . S
O203 Fe198 1.997 . S
O203 C219 1.235 . S
O204 Fe198 2.002 . S
O204 C205 1.295 . S
C205 O204 1.295 . S
C205 O207 1.235 . S
C206 O211 1.287 . S
C206 O212 1.255 . S
O207 Fe199 1.997 . S
O207 C205 1.235 . S
C208 O214 1.287 . S
C208 O215 1.255 . S
O209 Fe198 1.976 . S
O209 C216 1.287 . S
O210 Fe199 1.996 . S
O210 C216 1.255 . S
O211 Fe201 1.976 . S
O211 C206 1.287 . S
O212 Fe198 1.996 . S
O212 C206 1.255 . S
C213 O217 1.295 . S
C213 O218 1.235 . S
O214 Fe199 1.976 . S
O214 C208 1.287 . S
O215 Fe201 1.996 . S
O215 C208 1.255 . S
C216 O209 1.287 . S
C216 O210 1.255 . S
O217 Fe199 2.002 . S
O217 C213 1.295 . S
O218 Fe201 1.997 . S
O218 C213 1.235 . S
C219 O202 1.295 . S
C219 O203 1.235 . S
Fe220 O222 1.918 . S
Fe220 O225 1.997 . S
Fe220 O226 2.002 . S
Fe220 O231 1.976 . S
Fe220 O234 1.996 . S
Fe221 O222 1.918 . S
Fe221 O229 1.997 . S
Fe221 O232 1.996 . S
Fe221 O236 1.976 . S
Fe221 O239 2.002 . S
O222 Fe220 1.918 . S
O222 Fe221 1.918 . S
O222 Fe223 1.918 . S
Fe223 O222 1.918 . S
Fe223 O224 2.002 . S
Fe223 O233 1.976 . S
Fe223 O237 1.996 . S
Fe223 O240 1.997 . S
O224 Fe223 2.002 . S
O224 C241 1.295 . S
O225 Fe220 1.997 . S
O225 C241 1.235 . S
O226 Fe220 2.002 . S
O226 C227 1.295 . S
C227 O226 1.295 . S
C227 O229 1.235 . S
C228 O233 1.287 . S
C228 O234 1.255 . S
O229 Fe221 1.997 . S
O229 C227 1.235 . S
C230 O236 1.287 . S
C230 O237 1.255 . S
O231 Fe220 1.976 . S
O231 C238 1.287 . S
O232 Fe221 1.996 . S
O232 C238 1.255 . S
O233 Fe223 1.976 . S
O233 C228 1.287 . S
O234 Fe220 1.996 . S
O234 C228 1.255 . S
C235 O239 1.295 . S
C235 O240 1.235 . S
O236 Fe221 1.976 . S
O236 C230 1.287 . S
O237 Fe223 1.996 . S
O237 C230 1.255 . S
C238 O231 1.287 . S
C238 O232 1.255 . S
O239 Fe221 2.002 . S
O239 C235 1.295 . S
O240 Fe223 1.997 . S
O240 C235 1.235 . S
C241 O224 1.295 . S
C241 O225 1.235 . S
Fe242 O244 1.918 . S
Fe242 O247 1.997 . S
Fe242 O248 2.002 . S
Fe242 O253 1.976 . S
Fe242 O256 1.996 . S
Fe243 O244 1.918 . S
Fe243 O251 1.997 . S
Fe243 O254 1.996 . S
Fe243 O258 1.976 . S
Fe243 O261 2.002 . S
O244 Fe242 1.918 . S
O244 Fe243 1.918 . S
O244 Fe245 1.918 . S
Fe245 O244 1.918 . S
Fe245 O246 2.002 . S
Fe245 O255 1.976 . S
Fe245 O259 1.996 . S
Fe245 O262 1.997 . S
O246 Fe245 2.002 . S
O246 C263 1.295 . S
O247 Fe242 1.997 . S
O247 C263 1.235 . S
O248 Fe242 2.002 . S
O248 C249 1.295 . S
C249 O248 1.295 . S
C249 O251 1.235 . S
C250 O255 1.287 . S
C250 O256 1.255 . S
O251 Fe243 1.997 . S
O251 C249 1.235 . S
C252 O258 1.287 . S
C252 O259 1.255 . S
O253 Fe242 1.976 . S
O253 C260 1.287 . S
O254 Fe243 1.996 . S
O254 C260 1.255 . S
O255 Fe245 1.976 . S
O255 C250 1.287 . S
O256 Fe242 1.996 . S
O256 C250 1.255 . S
C257 O261 1.295 . S
C257 O262 1.235 . S
O258 Fe243 1.976 . S
O258 C252 1.287 . S
O259 Fe245 1.996 . S
O259 C252 1.255 . S
C260 O253 1.287 . S
C260 O254 1.255 . S
O261 Fe243 2.002 . S
O261 C257 1.295 . S
O262 Fe245 1.997 . S
O262 C257 1.235 . S
C263 O246 1.295 . S
C263 O247 1.235 . S
Fe264 O266 1.918 . S
Fe264 O269 1.997 . S
Fe264 O270 2.002 . S
Fe264 O275 1.976 . S
Fe264 O278 1.996 . S
Fe265 O266 1.918 . S
Fe265 O273 1.997 . S
Fe265 O276 1.996 . S
Fe265 O280 1.976 . S
Fe265 O283 2.002 . S
O266 Fe264 1.918 . S
O266 Fe265 1.918 . S
O266 Fe267 1.918 . S
Fe267 O266 1.918 . S
Fe267 O268 2.002 . S
Fe267 O277 1.976 . S
Fe267 O281 1.996 . S
Fe267 O284 1.997 . S
O268 Fe267 2.002 . S
O268 C285 1.295 . S
O269 Fe264 1.997 . S
O269 C285 1.235 . S
O270 Fe264 2.002 . S
O270 C271 1.295 . S
C271 O270 1.295 . S
C271 O273 1.235 . S
C272 O277 1.287 . S
C272 O278 1.255 . S
O273 Fe265 1.997 . S
O273 C271 1.235 . S
C274 O280 1.287 . S
C274 O281 1.255 . S
O275 Fe264 1.976 . S
O275 C282 1.287 . S
O276 Fe265 1.996 . S
O276 C282 1.255 . S
O277 Fe267 1.976 . S
O277 C272 1.287 . S
O278 Fe264 1.996 . S
O278 C272 1.255 . S
C279 O283 1.295 . S
C279 O284 1.235 . S
O280 Fe265 1.976 . S
O280 C274 1.287 . S
O281 Fe267 1.996 . S
O281 C274 1.255 . S
C282 O275 1.287 . S
C282 O276 1.255 . S
O283 Fe265 2.002 . S
O283 C279 1.295 . S
O284 Fe267 1.997 . S
O284 C279 1.235 . S
C285 O268 1.295 . S
C285 O269 1.235 . S
Fe286 O288 1.918 . S
Fe286 O291 1.997 . S
Fe286 O292 2.002 . S
Fe286 O297 1.976 . S
Fe286 O300 1.996 . S
Fe287 O288 1.918 . S
Fe287 O295 1.997 . S
Fe287 O298 1.996 . S
Fe287 O302 1.976 . S
Fe287 O305 2.002 . S
O288 Fe286 1.918 . S
O288 Fe287 1.918 . S
O288 Fe289 1.918 . S
Fe289 O288 1.918 . S
Fe289 O290 2.002 . S
Fe289 O299 1.976 . S
Fe289 O303 1.996 . S
Fe289 O306 1.997 . S
O290 Fe289 2.002 . S
O290 C307 1.295 . S
O291 Fe286 1.997 . S
O291 C307 1.235 . S
O292 Fe286 2.002 . S
O292 C293 1.295 . S
C293 O292 1.295 . S
C293 O295 1.235 . S
C294 O299 1.287 . S
C294 O300 1.255 . S
O295 Fe287 1.997 . S
O295 C293 1.235 . S
C296 O302 1.287 . S
C296 O303 1.255 . S
O297 Fe286 1.976 . S
O297 C304 1.287 . S
O298 Fe287 1.996 . S
O298 C304 1.255 . S
O299 Fe289 1.976 . S
O299 C294 1.287 . S
O300 Fe286 1.996 . S
O300 C294 1.255 . S
C301 O305 1.295 . S
C301 O306 1.235 . S
O302 Fe287 1.976 . S
O302 C296 1.287 . S
O303 Fe289 1.996 . S
O303 C296 1.255 . S
C304 O297 1.287 . S
C304 O298 1.255 . S
O305 Fe287 2.002 . S
O305 C301 1.295 . S
O306 Fe289 1.997 . S
O306 C301 1.235 . S
C307 O290 1.295 . S
C307 O291 1.235 . S
Fe308 O310 1.918 . S
Fe308 O313 1.997 . S
Fe308 O314 2.002 . S
Fe308 O319 1.976 . S
Fe308 O322 1.996 . S
Fe309 O310 1.918 . S
Fe309 O317 1.997 . S
Fe309 O320 1.996 . S
Fe309 O324 1.976 . S
Fe309 O327 2.002 . S
O310 Fe308 1.918 . S
O310 Fe309 1.918 . S
O310 Fe311 1.918 . S
Fe311 O310 1.918 . S
Fe311 O312 2.002 . S
Fe311 O321 1.976 . S
Fe311 O325 1.996 . S
Fe311 O328 1.997 . S
O312 Fe311 2.002 . S
O312 C329 1.295 . S
O313 Fe308 1.997 . S
O313 C329 1.235 . S
O314 Fe308 2.002 . S
O314 C315 1.295 . S
C315 O314 1.295 . S
C315 O317 1.235 . S
C316 O321 1.287 . S
C316 O322 1.255 . S
O317 Fe309 1.997 . S
O317 C315 1.235 . S
C318 O324 1.287 . S
C318 O325 1.255 . S
O319 Fe308 1.976 . S
O319 C326 1.287 . S
O320 Fe309 1.996 . S
O320 C326 1.255 . S
O321 Fe311 1.976 . S
O321 C316 1.287 . S
O322 Fe308 1.996 . S
O322 C316 1.255 . S
C323 O327 1.295 . S
C323 O328 1.235 . S
O324 Fe309 1.976 . S
O324 C318 1.287 . S
O325 Fe311 1.996 . S
O325 C318 1.255 . S
C326 O319 1.287 . S
C326 O320 1.255 . S
O327 Fe309 2.002 . S
O327 C323 1.295 . S
O328 Fe311 1.997 . S
O328 C323 1.235 . S
C329 O312 1.295 . S
C329 O313 1.235 . S
Fe330 O332 1.918 . S
Fe330 O335 1.997 . S
Fe330 O336 2.002 . S
Fe330 O341 1.976 . S
Fe330 O344 1.996 . S
Fe331 O332 1.918 . S
Fe331 O339 1.997 . S
Fe331 O342 1.996 . S
Fe331 O346 1.976 . S
Fe331 O349 2.002 . S
O332 Fe330 1.918 . S
O332 Fe331 1.918 . S
O332 Fe333 1.918 . S
Fe333 O332 1.918 . S
Fe333 O334 2.002 . S
Fe333 O343 1.976 . S
Fe333 O347 1.996 . S
Fe333 O350 1.997 . S
O334 Fe333 2.002 . S
O334 C351 1.295 . S
O335 Fe330 1.997 . S
O335 C351 1.235 . S
O336 Fe330 2.002 . S
O336 C337 1.295 . S
C337 O336 1.295 . S
C337 O339 1.235 . S
C338 O343 1.287 . S
C338 O344 1.255 . S
O339 Fe331 1.997 . S
O339 C337 1.235 . S
C340 O346 1.287 . S
C340 O347 1.255 . S
O341 Fe330 1.976 . S
O341 C348 1.287 . S
O342 Fe331 1.996 . S
O342 C348 1.255 . S
O343 Fe333 1.976 . S
O343 C338 1.287 . S
O344 Fe330 1.996 . S
O344 C338 1.255 . S
C345 O349 1.295 . S
C345 O350 1.235 . S
O346 Fe331 1.976 . S
O346 C340 1.287 . S
O347 Fe333 1.996 . S
O347 C340 1.255 . S
C348 O341 1.287 . S
C348 O342 1.255 . S
O349 Fe331 2.002 . S
O349 C345 1.295 . S
O350 Fe333 1.997 . S
O350 C345 1.235 . S
C351 O334 1.295 . S
C351 O335 1.235 . S
H352 C360 0.929 . S
H353 C362 0.930 . S
H354 C364 0.930 . S
H355 C367 0.929 . S
H356 C370 0.930 . S
H357 C372 0.960 . S
H358 C372 0.960 . S
H359 C372 0.960 . S
C360 H352 0.929 . S
C360 C361 1.377 . S
C360 C362 1.384 . S
C361 C360 1.377 . S
C361 C367 1.390 . S
C362 H353 0.930 . S
C362 C360 1.384 . S
C362 C363 1.372 . S
C363 C362 1.372 . S
C363 C364 1.400 . S
C363 C368 1.490 . S
C364 H354 0.930 . S
C364 C363 1.400 . S
C364 C367 1.386 . S
H365 C381 0.930 . S
H366 C382 0.931 . S
C367 H355 0.929 . S
C367 C361 1.390 . S
C367 C364 1.386 . S
C368 C363 1.490 . S
C368 C370 1.395 . S
C368 C371 1.403 . S
H369 C375 0.930 . S
C370 H356 0.930 . S
C370 C368 1.395 . S
C370 C373 1.403 . S
C371 C368 1.403 . S
C371 C372 1.524 . S
C371 C375 1.400 . S
C372 H357 0.960 . S
C372 H358 0.960 . S
C372 H359 0.960 . S
C372 C371 1.524 . S
C373 C370 1.403 . S
C373 C374 1.392 . S
C373 C377 1.495 . S
C374 C373 1.392 . S
C374 C375 1.385 . S
C374 C376 1.478 . S
C375 H369 0.930 . S
C375 C371 1.400 . S
C375 C374 1.385 . S
C376 C374 1.478 . S
C376 C378 1.381 . S
C376 C382 1.383 . S
C377 C373 1.495 . S
C377 H383 0.959 . S
C377 H384 0.961 . S
C377 H385 0.960 . S
C378 C376 1.381 . S
C378 C379 1.394 . S
C378 H386 0.930 . S
C379 C378 1.394 . S
C379 C380 1.383 . S
C379 H387 0.929 . S
C380 C379 1.383 . S
C380 C381 1.377 . S
C381 H365 0.930 . S
C381 C380 1.377 . S
C381 C382 1.379 . S
C382 H366 0.931 . S
C382 C376 1.383 . S
C382 C381 1.379 . S
H383 C377 0.959 . S
H384 C377 0.961 . S
H385 C377 0.960 . S
H386 C378 0.930 . S
H387 C379 0.929 . S
H388 C396 0.929 . S
H389 C398 0.930 . S
H390 C400 0.930 . S
H391 C403 0.929 . S
H392 C406 0.930 . S
H393 C408 0.960 . S
H394 C408 0.960 . S
H395 C408 0.960 . S
C396 H388 0.929 . S
C396 C397 1.377 . S
C396 C398 1.384 . S
C397 C396 1.377 . S
C397 C403 1.390 . S
C398 H389 0.930 . S
C398 C396 1.384 . S
C398 C399 1.372 . S
C399 C398 1.372 . S
C399 C400 1.400 . S
C399 C404 1.490 . S
C400 H390 0.930 . S
C400 C399 1.400 . S
C400 C403 1.386 . S
H401 C417 0.930 . S
H402 C418 0.931 . S
C403 H391 0.929 . S
C403 C397 1.390 . S
C403 C400 1.386 . S
C404 C399 1.490 . S
C404 C406 1.395 . S
C404 C407 1.403 . S
H405 C411 0.930 . S
C406 H392 0.930 . S
C406 C404 1.395 . S
C406 C409 1.403 . S
C407 C404 1.403 . S
C407 C408 1.524 . S
C407 C411 1.400 . S
C408 H393 0.960 . S
C408 H394 0.960 . S
C408 H395 0.960 . S
C408 C407 1.524 . S
C409 C406 1.403 . S
C409 C410 1.392 . S
C409 C413 1.495 . S
C410 C409 1.392 . S
C410 C411 1.385 . S
C410 C412 1.478 . S
C411 H405 0.930 . S
C411 C407 1.400 . S
C411 C410 1.385 . S
C412 C410 1.478 . S
C412 C414 1.381 . S
C412 C418 1.383 . S
C413 C409 1.495 . S
C413 H419 0.959 . S
C413 H420 0.961 . S
C413 H421 0.960 . S
C414 C412 1.381 . S
C414 C415 1.394 . S
C414 H422 0.930 . S
C415 C414 1.394 . S
C415 C416 1.383 . S
C415 H423 0.929 . S
C416 C415 1.383 . S
C416 C417 1.377 . S
C417 H401 0.930 . S
C417 C416 1.377 . S
C417 C418 1.379 . S
C418 H402 0.931 . S
C418 C412 1.383 . S
C418 C417 1.379 . S
H419 C413 0.959 . S
H420 C413 0.961 . S
H421 C413 0.960 . S
H422 C414 0.930 . S
H423 C415 0.929 . S
H424 C432 0.929 . S
H425 C434 0.930 . S
H426 C436 0.930 . S
H427 C439 0.929 . S
H428 C442 0.930 . S
H429 C444 0.960 . S
H430 C444 0.960 . S
H431 C444 0.960 . S
C432 H424 0.929 . S
C432 C433 1.377 . S
C432 C434 1.384 . S
C433 C432 1.377 . S
C433 C439 1.390 . S
C434 H425 0.930 . S
C434 C432 1.384 . S
C434 C435 1.372 . S
C435 C434 1.372 . S
C435 C436 1.400 . S
C435 C440 1.490 . S
C436 H426 0.930 . S
C436 C435 1.400 . S
C436 C439 1.386 . S
H437 C453 0.930 . S
H438 C454 0.931 . S
C439 H427 0.929 . S
C439 C433 1.390 . S
C439 C436 1.386 . S
C440 C435 1.490 . S
C440 C442 1.395 . S
C440 C443 1.403 . S
H441 C447 0.930 . S
C442 H428 0.930 . S
C442 C440 1.395 . S
C442 C445 1.403 . S
C443 C440 1.403 . S
C443 C444 1.524 . S
C443 C447 1.400 . S
C444 H429 0.960 . S
C444 H430 0.960 . S
C444 H431 0.960 . S
C444 C443 1.524 . S
C445 C442 1.403 . S
C445 C446 1.392 . S
C445 C449 1.495 . S
C446 C445 1.392 . S
C446 C447 1.385 . S
C446 C448 1.478 . S
C447 H441 0.930 . S
C447 C443 1.400 . S
C447 C446 1.385 . S
C448 C446 1.478 . S
C448 C450 1.381 . S
C448 C454 1.383 . S
C449 C445 1.495 . S
C449 H455 0.959 . S
C449 H456 0.961 . S
C449 H457 0.960 . S
C450 C448 1.381 . S
C450 C451 1.394 . S
C450 H458 0.930 . S
C451 C450 1.394 . S
C451 C452 1.383 . S
C451 H459 0.929 . S
C452 C451 1.383 . S
C452 C453 1.377 . S
C453 H437 0.930 . S
C453 C452 1.377 . S
C453 C454 1.379 . S
C454 H438 0.931 . S
C454 C448 1.383 . S
C454 C453 1.379 . S
H455 C449 0.959 . S
H456 C449 0.961 . S
H457 C449 0.960 . S
H458 C450 0.930 . S
H459 C451 0.929 . S
H460 C468 0.929 . S
H461 C470 0.930 . S
H462 C472 0.930 . S
H463 C475 0.929 . S
H464 C478 0.930 . S
H465 C480 0.960 . S
H466 C480 0.960 . S
H467 C480 0.960 . S
C468 H460 0.929 . S
C468 C469 1.377 . S
C468 C470 1.384 . S
C469 C468 1.377 . S
C469 C475 1.390 . S
C470 H461 0.930 . S
C470 C468 1.384 . S
C470 C471 1.372 . S
C471 C470 1.372 . S
C471 C472 1.400 . S
C471 C476 1.490 . S
C472 H462 0.930 . S
C472 C471 1.400 . S
C472 C475 1.386 . S
H473 C489 0.930 . S
H474 C490 0.931 . S
C475 H463 0.929 . S
C475 C469 1.390 . S
C475 C472 1.386 . S
C476 C471 1.490 . S
C476 C478 1.395 . S
C476 C479 1.403 . S
H477 C483 0.930 . S
C478 H464 0.930 . S
C478 C476 1.395 . S
C478 C481 1.403 . S
C479 C476 1.403 . S
C479 C480 1.524 . S
C479 C483 1.400 . S
C480 H465 0.960 . S
C480 H466 0.960 . S
C480 H467 0.960 . S
C480 C479 1.524 . S
C481 C478 1.403 . S
C481 C482 1.392 . S
C481 C485 1.495 . S
C482 C481 1.392 . S
C482 C483 1.385 . S
C482 C484 1.478 . S
C483 H477 0.930 . S
C483 C479 1.400 . S
C483 C482 1.385 . S
C484 C482 1.478 . S
C484 C486 1.381 . S
C484 C490 1.383 . S
C485 C481 1.495 . S
C485 H491 0.959 . S
C485 H492 0.961 . S
C485 H493 0.960 . S
C486 C484 1.381 . S
C486 C487 1.394 . S
C486 H494 0.930 . S
C487 C486 1.394 . S
C487 C488 1.383 . S
C487 H495 0.929 . S
C488 C487 1.383 . S
C488 C489 1.377 . S
C489 H473 0.930 . S
C489 C488 1.377 . S
C489 C490 1.379 . S
C490 H474 0.931 . S
C490 C484 1.383 . S
C490 C489 1.379 . S
H491 C485 0.959 . S
H492 C485 0.961 . S
H493 C485 0.960 . S
H494 C486 0.930 . S
H495 C487 0.929 . S
H496 C504 0.929 . S
H497 C506 0.930 . S
H498 C508 0.930 . S
H499 C511 0.929 . S
H500 C514 0.930 . S
H501 C516 0.960 . S
H502 C516 0.960 . S
H503 C516 0.960 . S
C504 H496 0.929 . S
C504 C505 1.377 . S
C504 C506 1.384 . S
C505 C504 1.377 . S
C505 C511 1.390 . S
C506 H497 0.930 . S
C506 C504 1.384 . S
C506 C507 1.372 . S
C507 C506 1.372 . S
C507 C508 1.400 . S
C507 C512 1.490 . S
C508 H498 0.930 . S
C508 C507 1.400 . S
C508 C511 1.386 . S
H509 C525 0.930 . S
H510 C526 0.931 . S
C511 H499 0.929 . S
C511 C505 1.390 . S
C511 C508 1.386 . S
C512 C507 1.490 . S
C512 C514 1.395 . S
C512 C515 1.403 . S
H513 C519 0.930 . S
C514 H500 0.930 . S
C514 C512 1.395 . S
C514 C517 1.403 . S
C515 C512 1.403 . S
C515 C516 1.524 . S
C515 C519 1.400 . S
C516 H501 0.960 . S
C516 H502 0.960 . S
C516 H503 0.960 . S
C516 C515 1.524 . S
C517 C514 1.403 . S
C517 C518 1.392 . S
C517 C521 1.495 . S
C518 C517 1.392 . S
C518 C519 1.385 . S
C518 C520 1.478 . S
C519 H513 0.930 . S
C519 C515 1.400 . S
C519 C518 1.385 . S
C520 C518 1.478 . S
C520 C522 1.381 . S
C520 C526 1.383 . S
C521 C517 1.495 . S
C521 H527 0.959 . S
C521 H528 0.961 . S
C521 H529 0.960 . S
C522 C520 1.381 . S
C522 C523 1.394 . S
C522 H530 0.930 . S
C523 C522 1.394 . S
C523 C524 1.383 . S
C523 H531 0.929 . S
C524 C523 1.383 . S
C524 C525 1.377 . S
C525 H509 0.930 . S
C525 C524 1.377 . S
C525 C526 1.379 . S
C526 H510 0.931 . S
C526 C520 1.383 . S
C526 C525 1.379 . S
H527 C521 0.959 . S
H528 C521 0.961 . S
H529 C521 0.960 . S
H530 C522 0.930 . S
H531 C523 0.929 . S
H532 C540 0.929 . S
H533 C542 0.930 . S
H534 C544 0.930 . S
H535 C547 0.929 . S
H536 C550 0.930 . S
H537 C552 0.960 . S
H538 C552 0.960 . S
H539 C552 0.960 . S
C540 H532 0.929 . S
C540 C541 1.377 . S
C540 C542 1.384 . S
C541 C540 1.377 . S
C541 C547 1.390 . S
C542 H533 0.930 . S
C542 C540 1.384 . S
C542 C543 1.372 . S
C543 C542 1.372 . S
C543 C544 1.400 . S
C543 C548 1.490 . S
C544 H534 0.930 . S
C544 C543 1.400 . S
C544 C547 1.386 . S
H545 C561 0.930 . S
H546 C562 0.931 . S
C547 H535 0.929 . S
C547 C541 1.390 . S
C547 C544 1.386 . S
C548 C543 1.490 . S
C548 C550 1.395 . S
C548 C551 1.403 . S
H549 C555 0.930 . S
C550 H536 0.930 . S
C550 C548 1.395 . S
C550 C553 1.403 . S
C551 C548 1.403 . S
C551 C552 1.524 . S
C551 C555 1.400 . S
C552 H537 0.960 . S
C552 H538 0.960 . S
C552 H539 0.960 . S
C552 C551 1.524 . S
C553 C550 1.403 . S
C553 C554 1.392 . S
C553 C557 1.495 . S
C554 C553 1.392 . S
C554 C555 1.385 . S
C554 C556 1.478 . S
C555 H549 0.930 . S
C555 C551 1.400 . S
C555 C554 1.385 . S
C556 C554 1.478 . S
C556 C558 1.381 . S
C556 C562 1.383 . S
C557 C553 1.495 . S
C557 H563 0.959 . S
C557 H564 0.961 . S
C557 H565 0.960 . S
C558 C556 1.381 . S
C558 C559 1.394 . S
C558 H566 0.930 . S
C559 C558 1.394 . S
C559 C560 1.383 . S
C559 H567 0.929 . S
C560 C559 1.383 . S
C560 C561 1.377 . S
C561 H545 0.930 . S
C561 C560 1.377 . S
C561 C562 1.379 . S
C562 H546 0.931 . S
C562 C556 1.383 . S
C562 C561 1.379 . S
H563 C557 0.959 . S
H564 C557 0.961 . S
H565 C557 0.960 . S
H566 C558 0.930 . S
H567 C559 0.929 . S
H568 C576 0.929 . S
H569 C578 0.930 . S
H570 C580 0.930 . S
H571 C583 0.929 . S
H572 C586 0.930 . S
H573 C588 0.960 . S
H574 C588 0.960 . S
H575 C588 0.960 . S
C576 H568 0.929 . S
C576 C577 1.377 . S
C576 C578 1.384 . S
C577 C576 1.377 . S
C577 C583 1.390 . S
C578 H569 0.930 . S
C578 C576 1.384 . S
C578 C579 1.372 . S
C579 C578 1.372 . S
C579 C580 1.400 . S
C579 C584 1.490 . S
C580 H570 0.930 . S
C580 C579 1.400 . S
C580 C583 1.386 . S
H581 C597 0.930 . S
H582 C598 0.931 . S
C583 H571 0.929 . S
C583 C577 1.390 . S
C583 C580 1.386 . S
C584 C579 1.490 . S
C584 C586 1.395 . S
C584 C587 1.403 . S
H585 C591 0.930 . S
C586 H572 0.930 . S
C586 C584 1.395 . S
C586 C589 1.403 . S
C587 C584 1.403 . S
C587 C588 1.524 . S
C587 C591 1.400 . S
C588 H573 0.960 . S
C588 H574 0.960 . S
C588 H575 0.960 . S
C588 C587 1.524 . S
C589 C586 1.403 . S
C589 C590 1.392 . S
C589 C593 1.495 . S
C590 C589 1.392 . S
C590 C591 1.385 . S
C590 C592 1.478 . S
C591 H585 0.930 . S
C591 C587 1.400 . S
C591 C590 1.385 . S
C592 C590 1.478 . S
C592 C594 1.381 . S
C592 C598 1.383 . S
C593 C589 1.495 . S
C593 H599 0.959 . S
C593 H600 0.961 . S
C593 H601 0.960 . S
C594 C592 1.381 . S
C594 C595 1.394 . S
C594 H602 0.930 . S
C595 C594 1.394 . S
C595 C596 1.383 . S
C595 H603 0.929 . S
C596 C595 1.383 . S
C596 C597 1.377 . S
C597 H581 0.930 . S
C597 C596 1.377 . S
C597 C598 1.379 . S
C598 H582 0.931 . S
C598 C592 1.383 . S
C598 C597 1.379 . S
H599 C593 0.959 . S
H600 C593 0.961 . S
H601 C593 0.960 . S
H602 C594 0.930 . S
H603 C595 0.929 . S
H604 C612 0.929 . S
H605 C614 0.930 . S
H606 C616 0.930 . S
H607 C619 0.929 . S
H608 C622 0.930 . S
H609 C624 0.960 . S
H610 C624 0.960 . S
H611 C624 0.960 . S
C612 H604 0.929 . S
C612 C613 1.377 . S
C612 C614 1.384 . S
C613 C612 1.377 . S
C613 C619 1.390 . S
C614 H605 0.930 . S
C614 C612 1.384 . S
C614 C615 1.372 . S
C615 C614 1.372 . S
C615 C616 1.400 . S
C615 C620 1.490 . S
C616 H606 0.930 . S
C616 C615 1.400 . S
C616 C619 1.386 . S
H617 C633 0.930 . S
H618 C634 0.931 . S
C619 H607 0.929 . S
C619 C613 1.390 . S
C619 C616 1.386 . S
C620 C615 1.490 . S
C620 C622 1.395 . S
C620 C623 1.403 . S
H621 C627 0.930 . S
C622 H608 0.930 . S
C622 C620 1.395 . S
C622 C625 1.403 . S
C623 C620 1.403 . S
C623 C624 1.524 . S
C623 C627 1.400 . S
C624 H609 0.960 . S
C624 H610 0.960 . S
C624 H611 0.960 . S
C624 C623 1.524 . S
C625 C622 1.403 . S
C625 C626 1.392 . S
C625 C629 1.495 . S
C626 C625 1.392 . S
C626 C627 1.385 . S
C626 C628 1.478 . S
C627 H621 0.930 . S
C627 C623 1.400 . S
C627 C626 1.385 . S
C628 C626 1.478 . S
C628 C630 1.381 . S
C628 C634 1.383 . S
C629 C625 1.495 . S
C629 H635 0.959 . S
C629 H636 0.961 . S
C629 H637 0.960 . S
C630 C628 1.381 . S
C630 C631 1.394 . S
C630 H638 0.930 . S
C631 C630 1.394 . S
C631 C632 1.383 . S
C631 H639 0.929 . S
C632 C631 1.383 . S
C632 C633 1.377 . S
C633 H617 0.930 . S
C633 C632 1.377 . S
C633 C634 1.379 . S
C634 H618 0.931 . S
C634 C628 1.383 . S
C634 C633 1.379 . S
H635 C629 0.959 . S
H636 C629 0.961 . S
H637 C629 0.960 . S
H638 C630 0.930 . S
H639 C631 0.929 . S
H640 C648 0.929 . S
H641 C650 0.930 . S
H642 C652 0.930 . S
H643 C655 0.929 . S
H644 C658 0.930 . S
H645 C660 0.960 . S
H646 C660 0.960 . S
H647 C660 0.960 . S
C648 H640 0.929 . S
C648 C649 1.377 . S
C648 C650 1.384 . S
C649 C648 1.377 . S
C649 C655 1.390 . S
C650 H641 0.930 . S
C650 C648 1.384 . S
C650 C651 1.372 . S
C651 C650 1.372 . S
C651 C652 1.400 . S
C651 C656 1.490 . S
C652 H642 0.930 . S
C652 C651 1.400 . S
C652 C655 1.386 . S
H653 C669 0.930 . S
H654 C670 0.931 . S
C655 H643 0.929 . S
C655 C649 1.390 . S
C655 C652 1.386 . S
C656 C651 1.490 . S
C656 C658 1.395 . S
C656 C659 1.403 . S
H657 C663 0.930 . S
C658 H644 0.930 . S
C658 C656 1.395 . S
C658 C661 1.403 . S
C659 C656 1.403 . S
C659 C660 1.524 . S
C659 C663 1.400 . S
C660 H645 0.960 . S
C660 H646 0.960 . S
C660 H647 0.960 . S
C660 C659 1.524 . S
C661 C658 1.403 . S
C661 C662 1.392 . S
C661 C665 1.495 . S
C662 C661 1.392 . S
C662 C663 1.385 . S
C662 C664 1.478 . S
C663 H657 0.930 . S
C663 C659 1.400 . S
C663 C662 1.385 . S
C664 C662 1.478 . S
C664 C666 1.381 . S
C664 C670 1.383 . S
C665 C661 1.495 . S
C665 H671 0.959 . S
C665 H672 0.961 . S
C665 H673 0.960 . S
C666 C664 1.381 . S
C666 C667 1.394 . S
C666 H674 0.930 . S
C667 C666 1.394 . S
C667 C668 1.383 . S
C667 H675 0.929 . S
C668 C667 1.383 . S
C668 C669 1.377 . S
C669 H653 0.930 . S
C669 C668 1.377 . S
C669 C670 1.379 . S
C670 H654 0.931 . S
C670 C664 1.383 . S
C670 C669 1.379 . S
H671 C665 0.959 . S
H672 C665 0.961 . S
H673 C665 0.960 . S
H674 C666 0.930 . S
H675 C667 0.929 . S
H676 C684 0.929 . S
H677 C686 0.930 . S
H678 C688 0.930 . S
H679 C691 0.929 . S
H680 C694 0.930 . S
H681 C696 0.960 . S
H682 C696 0.960 . S
H683 C696 0.960 . S
C684 H676 0.929 . S
C684 C685 1.377 . S
C684 C686 1.384 . S
C685 C684 1.377 . S
C685 C691 1.390 . S
C686 H677 0.930 . S
C686 C684 1.384 . S
C686 C687 1.372 . S
C687 C686 1.372 . S
C687 C688 1.400 . S
C687 C692 1.490 . S
C688 H678 0.930 . S
C688 C687 1.400 . S
C688 C691 1.386 . S
H689 C705 0.930 . S
H690 C706 0.931 . S
C691 H679 0.929 . S
C691 C685 1.390 . S
C691 C688 1.386 . S
C692 C687 1.490 . S
C692 C694 1.395 . S
C692 C695 1.403 . S
H693 C699 0.930 . S
C694 H680 0.930 . S
C694 C692 1.395 . S
C694 C697 1.403 . S
C695 C692 1.403 . S
C695 C696 1.524 . S
C695 C699 1.400 . S
C696 H681 0.960 . S
C696 H682 0.960 . S
C696 H683 0.960 . S
C696 C695 1.524 . S
C697 C694 1.403 . S
C697 C698 1.392 . S
C697 C701 1.495 . S
C698 C697 1.392 . S
C698 C699 1.385 . S
C698 C700 1.478 . S
C699 H693 0.930 . S
C699 C695 1.400 . S
C699 C698 1.385 . S
C700 C698 1.478 . S
C700 C702 1.381 . S
C700 C706 1.383 . S
C701 C697 1.495 . S
C701 H707 0.959 . S
C701 H708 0.961 . S
C701 H709 0.960 . S
C702 C700 1.381 . S
C702 C703 1.394 . S
C702 H710 0.930 . S
C703 C702 1.394 . S
C703 C704 1.383 . S
C703 H711 0.929 . S
C704 C703 1.383 . S
C704 C705 1.377 . S
C705 H689 0.930 . S
C705 C704 1.377 . S
C705 C706 1.379 . S
C706 H690 0.931 . S
C706 C700 1.383 . S
C706 C705 1.379 . S
H707 C701 0.959 . S
H708 C701 0.961 . S
H709 C701 0.960 . S
H710 C702 0.930 . S
H711 C703 0.929 . S
H712 C720 0.929 . S
H713 C722 0.930 . S
H714 C724 0.930 . S
H715 C727 0.929 . S
H716 C730 0.930 . S
H717 C732 0.960 . S
H718 C732 0.960 . S
H719 C732 0.960 . S
C720 H712 0.929 . S
C720 C721 1.377 . S
C720 C722 1.384 . S
C721 C720 1.377 . S
C721 C727 1.390 . S
C722 H713 0.930 . S
C722 C720 1.384 . S
C722 C723 1.372 . S
C723 C722 1.372 . S
C723 C724 1.400 . S
C723 C728 1.490 . S
C724 H714 0.930 . S
C724 C723 1.400 . S
C724 C727 1.386 . S
H725 C741 0.930 . S
H726 C742 0.931 . S
C727 H715 0.929 . S
C727 C721 1.390 . S
C727 C724 1.386 . S
C728 C723 1.490 . S
C728 C730 1.395 . S
C728 C731 1.403 . S
H729 C735 0.930 . S
C730 H716 0.930 . S
C730 C728 1.395 . S
C730 C733 1.403 . S
C731 C728 1.403 . S
C731 C732 1.524 . S
C731 C735 1.400 . S
C732 H717 0.960 . S
C732 H718 0.960 . S
C732 H719 0.960 . S
C732 C731 1.524 . S
C733 C730 1.403 . S
C733 C734 1.392 . S
C733 C737 1.495 . S
C734 C733 1.392 . S
C734 C735 1.385 . S
C734 C736 1.478 . S
C735 H729 0.930 . S
C735 C731 1.400 . S
C735 C734 1.385 . S
C736 C734 1.478 . S
C736 C738 1.381 . S
C736 C742 1.383 . S
C737 C733 1.495 . S
C737 H743 0.959 . S
C737 H744 0.961 . S
C737 H745 0.960 . S
C738 C736 1.381 . S
C738 C739 1.394 . S
C738 H746 0.930 . S
C739 C738 1.394 . S
C739 C740 1.383 . S
C739 H747 0.929 . S
C740 C739 1.383 . S
C740 C741 1.377 . S
C741 H725 0.930 . S
C741 C740 1.377 . S
C741 C742 1.379 . S
C742 H726 0.931 . S
C742 C736 1.383 . S
C742 C741 1.379 . S
H743 C737 0.959 . S
H744 C737 0.961 . S
H745 C737 0.960 . S
H746 C738 0.930 . S
H747 C739 0.929 . S
H748 C756 0.929 . S
H749 C758 0.930 . S
H750 C760 0.930 . S
H751 C763 0.929 . S
H752 C766 0.930 . S
H753 C768 0.960 . S
H754 C768 0.960 . S
H755 C768 0.960 . S
C756 H748 0.929 . S
C756 C757 1.377 . S
C756 C758 1.384 . S
C757 C756 1.377 . S
C757 C763 1.390 . S
C758 H749 0.930 . S
C758 C756 1.384 . S
C758 C759 1.372 . S
C759 C758 1.372 . S
C759 C760 1.400 . S
C759 C764 1.490 . S
C760 H750 0.930 . S
C760 C759 1.400 . S
C760 C763 1.386 . S
H761 C777 0.930 . S
H762 C778 0.931 . S
C763 H751 0.929 . S
C763 C757 1.390 . S
C763 C760 1.386 . S
C764 C759 1.490 . S
C764 C766 1.395 . S
C764 C767 1.403 . S
H765 C771 0.930 . S
C766 H752 0.930 . S
C766 C764 1.395 . S
C766 C769 1.403 . S
C767 C764 1.403 . S
C767 C768 1.524 . S
C767 C771 1.400 . S
C768 H753 0.960 . S
C768 H754 0.960 . S
C768 H755 0.960 . S
C768 C767 1.524 . S
C769 C766 1.403 . S
C769 C770 1.392 . S
C769 C773 1.495 . S
C770 C769 1.392 . S
C770 C771 1.385 . S
C770 C772 1.478 . S
C771 H765 0.930 . S
C771 C767 1.400 . S
C771 C770 1.385 . S
C772 C770 1.478 . S
C772 C774 1.381 . S
C772 C778 1.383 . S
C773 C769 1.495 . S
C773 H779 0.959 . S
C773 H780 0.961 . S
C773 H781 0.960 . S
C774 C772 1.381 . S
C774 C775 1.394 . S
C774 H782 0.930 . S
C775 C774 1.394 . S
C775 C776 1.383 . S
C775 H783 0.929 . S
C776 C775 1.383 . S
C776 C777 1.377 . S
C777 H761 0.930 . S
C777 C776 1.377 . S
C777 C778 1.379 . S
C778 H762 0.931 . S
C778 C772 1.383 . S
C778 C777 1.379 . S
H779 C773 0.959 . S
H780 C773 0.961 . S
H781 C773 0.960 . S
H782 C774 0.930 . S
H783 C775 0.929 . S
H784 C792 0.929 . S
H785 C794 0.930 . S
H786 C796 0.930 . S
H787 C799 0.929 . S
H788 C802 0.930 . S
H789 C804 0.960 . S
H790 C804 0.960 . S
H791 C804 0.960 . S
C792 H784 0.929 . S
C792 C793 1.377 . S
C792 C794 1.384 . S
C793 C792 1.377 . S
C793 C799 1.390 . S
C794 H785 0.930 . S
C794 C792 1.384 . S
C794 C795 1.372 . S
C795 C794 1.372 . S
C795 C796 1.400 . S
C795 C800 1.490 . S
C796 H786 0.930 . S
C796 C795 1.400 . S
C796 C799 1.386 . S
H797 C813 0.930 . S
H798 C814 0.931 . S
C799 H787 0.929 . S
C799 C793 1.390 . S
C799 C796 1.386 . S
C800 C795 1.490 . S
C800 C802 1.395 . S
C800 C803 1.403 . S
H801 C807 0.930 . S
C802 H788 0.930 . S
C802 C800 1.395 . S
C802 C805 1.403 . S
C803 C800 1.403 . S
C803 C804 1.524 . S
C803 C807 1.400 . S
C804 H789 0.960 . S
C804 H790 0.960 . S
C804 H791 0.960 . S
C804 C803 1.524 . S
C805 C802 1.403 . S
C805 C806 1.392 . S
C805 C809 1.495 . S
C806 C805 1.392 . S
C806 C807 1.385 . S
C806 C808 1.478 . S
C807 H801 0.930 . S
C807 C803 1.400 . S
C807 C806 1.385 . S
C808 C806 1.478 . S
C808 C810 1.381 . S
C808 C814 1.383 . S
C809 C805 1.495 . S
C809 H815 0.959 . S
C809 H816 0.961 . S
C809 H817 0.960 . S
C810 C808 1.381 . S
C810 C811 1.394 . S
C810 H818 0.930 . S
C811 C810 1.394 . S
C811 C812 1.383 . S
C811 H819 0.929 . S
C812 C811 1.383 . S
C812 C813 1.377 . S
C813 H797 0.930 . S
C813 C812 1.377 . S
C813 C814 1.379 . S
C814 H798 0.931 . S
C814 C808 1.383 . S
C814 C813 1.379 . S
H815 C809 0.959 . S
H816 C809 0.961 . S
H817 C809 0.960 . S
H818 C810 0.930 . S
H819 C811 0.929 . S
H820 C828 0.929 . S
H821 C830 0.930 . S
H822 C832 0.930 . S
H823 C835 0.929 . S
H824 C838 0.930 . S
H825 C840 0.960 . S
H826 C840 0.960 . S
H827 C840 0.960 . S
C828 H820 0.929 . S
C828 C829 1.377 . S
C828 C830 1.384 . S
C829 C828 1.377 . S
C829 C835 1.390 . S
C830 H821 0.930 . S
C830 C828 1.384 . S
C830 C831 1.372 . S
C831 C830 1.372 . S
C831 C832 1.400 . S
C831 C836 1.490 . S
C832 H822 0.930 . S
C832 C831 1.400 . S
C832 C835 1.386 . S
H833 C849 0.930 . S
H834 C850 0.931 . S
C835 H823 0.929 . S
C835 C829 1.390 . S
C835 C832 1.386 . S
C836 C831 1.490 . S
C836 C838 1.395 . S
C836 C839 1.403 . S
H837 C843 0.930 . S
C838 H824 0.930 . S
C838 C836 1.395 . S
C838 C841 1.403 . S
C839 C836 1.403 . S
C839 C840 1.524 . S
C839 C843 1.400 . S
C840 H825 0.960 . S
C840 H826 0.960 . S
C840 H827 0.960 . S
C840 C839 1.524 . S
C841 C838 1.403 . S
C841 C842 1.392 . S
C841 C845 1.495 . S
C842 C841 1.392 . S
C842 C843 1.385 . S
C842 C844 1.478 . S
C843 H837 0.930 . S
C843 C839 1.400 . S
C843 C842 1.385 . S
C844 C842 1.478 . S
C844 C846 1.381 . S
C844 C850 1.383 . S
C845 C841 1.495 . S
C845 H851 0.959 . S
C845 H852 0.961 . S
C845 H853 0.960 . S
C846 C844 1.381 . S
C846 C847 1.394 . S
C846 H854 0.930 . S
C847 C846 1.394 . S
C847 C848 1.383 . S
C847 H855 0.929 . S
C848 C847 1.383 . S
C848 C849 1.377 . S
C849 H833 0.930 . S
C849 C848 1.377 . S
C849 C850 1.379 . S
C850 H834 0.931 . S
C850 C844 1.383 . S
C850 C849 1.379 . S
H851 C845 0.959 . S
H852 C845 0.961 . S
H853 C845 0.960 . S
H854 C846 0.930 . S
H855 C847 0.929 . S
H856 C864 0.929 . S
H857 C866 0.930 . S
H858 C868 0.930 . S
H859 C871 0.929 . S
H860 C874 0.930 . S
H861 C876 0.960 . S
H862 C876 0.960 . S
H863 C876 0.960 . S
C864 H856 0.929 . S
C864 C865 1.377 . S
C864 C866 1.384 . S
C865 C864 1.377 . S
C865 C871 1.390 . S
C866 H857 0.930 . S
C866 C864 1.384 . S
C866 C867 1.372 . S
C867 C866 1.372 . S
C867 C868 1.400 . S
C867 C872 1.490 . S
C868 H858 0.930 . S
C868 C867 1.400 . S
C868 C871 1.386 . S
H869 C885 0.930 . S
H870 C886 0.931 . S
C871 H859 0.929 . S
C871 C865 1.390 . S
C871 C868 1.386 . S
C872 C867 1.490 . S
C872 C874 1.395 . S
C872 C875 1.403 . S
H873 C879 0.930 . S
C874 H860 0.930 . S
C874 C872 1.395 . S
C874 C877 1.403 . S
C875 C872 1.403 . S
C875 C876 1.524 . S
C875 C879 1.400 . S
C876 H861 0.960 . S
C876 H862 0.960 . S
C876 H863 0.960 . S
C876 C875 1.524 . S
C877 C874 1.403 . S
C877 C878 1.392 . S
C877 C881 1.495 . S
C878 C877 1.392 . S
C878 C879 1.385 . S
C878 C880 1.478 . S
C879 H873 0.930 . S
C879 C875 1.400 . S
C879 C878 1.385 . S
C880 C878 1.478 . S
C880 C882 1.381 . S
C880 C886 1.383 . S
C881 C877 1.495 . S
C881 H887 0.959 . S
C881 H888 0.961 . S
C881 H889 0.960 . S
C882 C880 1.381 . S
C882 C883 1.394 . S
C882 H890 0.930 . S
C883 C882 1.394 . S
C883 C884 1.383 . S
C883 H891 0.929 . S
C884 C883 1.383 . S
C884 C885 1.377 . S
C885 H869 0.930 . S
C885 C884 1.377 . S
C885 C886 1.379 . S
C886 H870 0.931 . S
C886 C880 1.383 . S
C886 C885 1.379 . S
H887 C881 0.959 . S
H888 C881 0.961 . S
H889 C881 0.960 . S
H890 C882 0.930 . S
H891 C883 0.929 . S
H892 C900 0.929 . S
H893 C902 0.930 . S
H894 C904 0.930 . S
H895 C907 0.929 . S
H896 C910 0.930 . S
H897 C912 0.960 . S
H898 C912 0.960 . S
H899 C912 0.960 . S
C900 H892 0.929 . S
C900 C901 1.377 . S
C900 C902 1.384 . S
C901 C900 1.377 . S
C901 C907 1.390 . S
C902 H893 0.930 . S
C902 C900 1.384 . S
C902 C903 1.372 . S
C903 C902 1.372 . S
C903 C904 1.400 . S
C903 C908 1.490 . S
C904 H894 0.930 . S
C904 C903 1.400 . S
C904 C907 1.386 . S
H905 C921 0.930 . S
H906 C922 0.931 . S
C907 H895 0.929 . S
C907 C901 1.390 . S
C907 C904 1.386 . S
C908 C903 1.490 . S
C908 C910 1.395 . S
C908 C911 1.403 . S
H909 C915 0.930 . S
C910 H896 0.930 . S
C910 C908 1.395 . S
C910 C913 1.403 . S
C911 C908 1.403 . S
C911 C912 1.524 . S
C911 C915 1.400 . S
C912 H897 0.960 . S
C912 H898 0.960 . S
C912 H899 0.960 . S
C912 C911 1.524 . S
C913 C910 1.403 . S
C913 C914 1.392 . S
C913 C917 1.495 . S
C914 C913 1.392 . S
C914 C915 1.385 . S
C914 C916 1.478 . S
C915 H909 0.930 . S
C915 C911 1.400 . S
C915 C914 1.385 . S
C916 C914 1.478 . S
C916 C918 1.381 . S
C916 C922 1.383 . S
C917 C913 1.495 . S
C917 H923 0.959 . S
C917 H924 0.961 . S
C917 H925 0.960 . S
C918 C916 1.381 . S
C918 C919 1.394 . S
C918 H926 0.930 . S
C919 C918 1.394 . S
C919 C920 1.383 . S
C919 H927 0.929 . S
C920 C919 1.383 . S
C920 C921 1.377 . S
C921 H905 0.930 . S
C921 C920 1.377 . S
C921 C922 1.379 . S
C922 H906 0.931 . S
C922 C916 1.383 . S
C922 C921 1.379 . S
H923 C917 0.959 . S
H924 C917 0.961 . S
H925 C917 0.960 . S
H926 C918 0.930 . S
H927 C919 0.929 . S
H928 C936 0.929 . S
H929 C938 0.930 . S
H930 C940 0.930 . S
H931 C943 0.929 . S
H932 C946 0.930 . S
H933 C948 0.960 . S
H934 C948 0.960 . S
H935 C948 0.960 . S
C936 H928 0.929 . S
C936 C937 1.377 . S
C936 C938 1.384 . S
C937 C936 1.377 . S
C937 C943 1.390 . S
C938 H929 0.930 . S
C938 C936 1.384 . S
C938 C939 1.372 . S
C939 C938 1.372 . S
C939 C940 1.400 . S
C939 C944 1.490 1_554 S
C940 H930 0.930 . S
C940 C939 1.400 . S
C940 C943 1.386 . S
H941 C957 0.930 . S
H942 C958 0.931 . S
C943 H931 0.929 . S
C943 C937 1.390 . S
C943 C940 1.386 . S
C944 C939 1.490 1_556 S
C944 C946 1.395 . S
C944 C947 1.403 . S
H945 C951 0.930 . S
C946 H932 0.930 . S
C946 C944 1.395 . S
C946 C949 1.403 . S
C947 C944 1.403 . S
C947 C948 1.524 1_556 S
C947 C951 1.400 . S
C948 H933 0.960 . S
C948 H934 0.960 . S
C948 H935 0.960 . S
C948 C947 1.524 1_554 S
C949 C946 1.403 . S
C949 C950 1.392 . S
C949 C953 1.495 . S
C950 C949 1.392 . S
C950 C951 1.385 . S
C950 C952 1.478 . S
C951 H945 0.930 . S
C951 C947 1.400 . S
C951 C950 1.385 . S
C952 C950 1.478 . S
C952 C954 1.381 . S
C952 C958 1.383 . S
C953 C949 1.495 . S
C953 H959 0.959 . S
C953 H960 0.961 . S
C953 H961 0.960 . S
C954 C952 1.381 . S
C954 C955 1.394 . S
C954 H962 0.930 . S
C955 C954 1.394 . S
C955 C956 1.383 . S
C955 H963 0.929 . S
C956 C955 1.383 . S
C956 C957 1.377 . S
C957 H941 0.930 . S
C957 C956 1.377 . S
C957 C958 1.379 . S
C958 H942 0.931 . S
C958 C952 1.383 . S
C958 C957 1.379 . S
H959 C953 0.959 . S
H960 C953 0.961 . S
H961 C953 0.960 . S
H962 C954 0.930 . S
H963 C955 0.929 . S
H964 C972 0.929 . S
H965 C974 0.930 . S
H966 C976 0.930 . S
H967 C979 0.929 . S
H968 C982 0.930 . S
H969 C984 0.960 . S
H970 C984 0.960 . S
H971 C984 0.960 . S
C972 H964 0.929 . S
C972 C973 1.377 . S
C972 C974 1.384 . S
C973 C972 1.377 . S
C973 C979 1.390 . S
C974 H965 0.930 . S
C974 C972 1.384 . S
C974 C975 1.372 . S
C975 C974 1.372 . S
C975 C976 1.400 . S
C975 C980 1.490 . S
C976 H966 0.930 . S
C976 C975 1.400 . S
C976 C979 1.386 . S
H977 C993 0.930 . S
H978 C994 0.931 . S
C979 H967 0.929 . S
C979 C973 1.390 . S
C979 C976 1.386 . S
C980 C975 1.490 . S
C980 C982 1.395 . S
C980 C983 1.403 . S
H981 C987 0.930 . S
C982 H968 0.930 . S
C982 C980 1.395 . S
C982 C985 1.403 . S
C983 C980 1.403 . S
C983 C984 1.524 . S
C983 C987 1.400 . S
C984 H969 0.960 . S
C984 H970 0.960 . S
C984 H971 0.960 . S
C984 C983 1.524 . S
C985 C982 1.403 . S
C985 C986 1.392 . S
C985 C989 1.495 . S
C986 C985 1.392 . S
C986 C987 1.385 . S
C986 C988 1.478 . S
C987 H981 0.930 . S
C987 C983 1.400 . S
C987 C986 1.385 . S
C988 C986 1.478 . S
C988 C990 1.381 . S
C988 C994 1.383 . S
C989 C985 1.495 . S
C989 H995 0.959 . S
C989 H996 0.961 . S
C989 H997 0.960 . S
C990 C988 1.381 . S
C990 C991 1.394 . S
C990 H998 0.930 . S
C991 C990 1.394 . S
C991 C992 1.383 . S
C991 H999 0.929 . S
C992 C991 1.383 . S
C992 C993 1.377 . S
C993 H977 0.930 . S
C993 C992 1.377 . S
C993 C994 1.379 . S
C994 H978 0.931 . S
C994 C988 1.383 . S
C994 C993 1.379 . S
H995 C989 0.959 . S
H996 C989 0.961 . S
H997 C989 0.960 . S
H998 C990 0.930 . S
H999 C991 0.929 . S
H1000 C1008 0.929 . S
H1001 C1010 0.930 . S
H1002 C1012 0.930 . S
H1003 C1015 0.929 . S
H1004 C1018 0.930 . S
H1005 C1020 0.960 1_556 S
H1006 C1020 0.960 . S
H1007 C1020 0.960 . S
C1008 H1000 0.929 . S
C1008 C1009 1.377 . S
C1008 C1010 1.384 . S
C1009 C1008 1.377 . S
C1009 C1015 1.390 . S
C1010 H1001 0.930 . S
C1010 C1008 1.384 . S
C1010 C1011 1.372 . S
C1011 C1010 1.372 . S
C1011 C1012 1.400 . S
C1011 C1016 1.490 1_554 S
C1012 H1002 0.930 . S
C1012 C1011 1.400 . S
C1012 C1015 1.386 . S
H1013 C1029 0.930 . S
H1014 C1030 0.931 . S
C1015 H1003 0.929 . S
C1015 C1009 1.390 . S
C1015 C1012 1.386 . S
C1016 C1011 1.490 1_556 S
C1016 C1018 1.395 . S
C1016 C1019 1.403 . S
H1017 C1023 0.930 . S
C1018 H1004 0.930 . S
C1018 C1016 1.395 . S
C1018 C1021 1.403 . S
C1019 C1016 1.403 . S
C1019 C1020 1.524 1_556 S
C1019 C1023 1.400 . S
C1020 H1005 0.960 1_554 S
C1020 H1006 0.960 . S
C1020 H1007 0.960 . S
C1020 C1019 1.524 1_554 S
C1021 C1018 1.403 . S
C1021 C1022 1.392 . S
C1021 C1025 1.495 . S
C1022 C1021 1.392 . S
C1022 C1023 1.385 . S
C1022 C1024 1.478 . S
C1023 H1017 0.930 . S
C1023 C1019 1.400 . S
C1023 C1022 1.385 . S
C1024 C1022 1.478 . S
C1024 C1026 1.381 . S
C1024 C1030 1.383 . S
C1025 C1021 1.495 . S
C1025 H1031 0.959 . S
C1025 H1032 0.961 . S
C1025 H1033 0.960 . S
C1026 C1024 1.381 . S
C1026 C1027 1.394 . S
C1026 H1034 0.930 . S
C1027 C1026 1.394 . S
C1027 C1028 1.383 . S
C1027 H1035 0.929 . S
C1028 C1027 1.383 . S
C1028 C1029 1.377 . S
C1029 H1013 0.930 . S
C1029 C1028 1.377 . S
C1029 C1030 1.379 . S
C1030 H1014 0.931 . S
C1030 C1024 1.383 . S
C1030 C1029 1.379 . S
H1031 C1025 0.959 . S
H1032 C1025 0.961 . S
H1033 C1025 0.960 . S
H1034 C1026 0.930 . S
H1035 C1027 0.929 . S
H1036 C1044 0.929 . S
H1037 C1046 0.930 . S
H1038 C1048 0.930 . S
H1039 C1051 0.929 . S
H1040 C1054 0.930 . S
H1041 C1056 0.960 . S
H1042 C1056 0.960 . S
H1043 C1056 0.960 . S
C1044 H1036 0.929 . S
C1044 C1045 1.377 . S
C1044 C1046 1.384 . S
C1045 C1044 1.377 . S
C1045 C1051 1.390 . S
C1046 H1037 0.930 . S
C1046 C1044 1.384 . S
C1046 C1047 1.372 . S
C1047 C1046 1.372 . S
C1047 C1048 1.400 . S
C1047 C1052 1.490 . S
C1048 H1038 0.930 . S
C1048 C1047 1.400 . S
C1048 C1051 1.386 . S
H1049 C1065 0.930 . S
H1050 C1066 0.931 . S
C1051 H1039 0.929 . S
C1051 C1045 1.390 . S
C1051 C1048 1.386 . S
C1052 C1047 1.490 . S
C1052 C1054 1.395 . S
C1052 C1055 1.403 . S
H1053 C1059 0.930 . S
C1054 H1040 0.930 . S
C1054 C1052 1.395 . S
C1054 C1057 1.403 . S
C1055 C1052 1.403 . S
C1055 C1056 1.524 . S
C1055 C1059 1.400 . S
C1056 H1041 0.960 . S
C1056 H1042 0.960 . S
C1056 H1043 0.960 . S
C1056 C1055 1.524 . S
C1057 C1054 1.403 . S
C1057 C1058 1.392 . S
C1057 C1061 1.495 . S
C1058 C1057 1.392 . S
C1058 C1059 1.385 . S
C1058 C1060 1.478 . S
C1059 H1053 0.930 . S
C1059 C1055 1.400 . S
C1059 C1058 1.385 . S
C1060 C1058 1.478 . S
C1060 C1062 1.381 . S
C1060 C1066 1.383 . S
C1061 C1057 1.495 . S
C1061 H1067 0.959 . S
C1061 H1068 0.961 . S
C1061 H1069 0.960 . S
C1062 C1060 1.381 . S
C1062 C1063 1.394 . S
C1062 H1070 0.930 . S
C1063 C1062 1.394 . S
C1063 C1064 1.383 . S
C1063 H1071 0.929 . S
C1064 C1063 1.383 . S
C1064 C1065 1.377 . S
C1065 H1049 0.930 . S
C1065 C1064 1.377 . S
C1065 C1066 1.379 . S
C1066 H1050 0.931 . S
C1066 C1060 1.383 . S
C1066 C1065 1.379 . S
H1067 C1061 0.959 . S
H1068 C1061 0.961 . S
H1069 C1061 0.960 . S
H1070 C1062 0.930 . S
H1071 C1063 0.929 . S
H1072 C1080 0.929 . S
H1073 C1082 0.930 . S
H1074 C1084 0.930 . S
H1075 C1087 0.929 . S
H1076 C1090 0.930 1_556 S
H1077 C1092 0.960 . S
H1078 C1092 0.960 . S
H1079 C1092 0.960 . S
C1080 H1072 0.929 . S
C1080 C1081 1.377 . S
C1080 C1082 1.384 . S
C1081 C1080 1.377 . S
C1081 C1087 1.390 . S
C1082 H1073 0.930 . S
C1082 C1080 1.384 . S
C1082 C1083 1.372 . S
C1083 C1082 1.372 . S
C1083 C1084 1.400 . S
C1083 C1088 1.490 1_556 S
C1084 H1074 0.930 . S
C1084 C1083 1.400 . S
C1084 C1087 1.386 . S
H1085 C1101 0.930 . S
H1086 C1102 0.931 . S
C1087 H1075 0.929 . S
C1087 C1081 1.390 . S
C1087 C1084 1.386 . S
C1088 C1083 1.490 1_554 S
C1088 C1090 1.395 . S
C1088 C1091 1.403 . S
H1089 C1095 0.930 . S
C1090 H1076 0.930 1_554 S
C1090 C1088 1.395 . S
C1090 C1093 1.403 . S
C1091 C1088 1.403 . S
C1091 C1092 1.524 . S
C1091 C1095 1.400 . S
C1092 H1077 0.960 . S
C1092 H1078 0.960 . S
C1092 H1079 0.960 . S
C1092 C1091 1.524 . S
C1093 C1090 1.403 . S
C1093 C1094 1.392 . S
C1093 C1097 1.495 . S
C1094 C1093 1.392 . S
C1094 C1095 1.385 . S
C1094 C1096 1.478 . S
C1095 H1089 0.930 . S
C1095 C1091 1.400 . S
C1095 C1094 1.385 . S
C1096 C1094 1.478 . S
C1096 C1098 1.381 . S
C1096 C1102 1.383 . S
C1097 C1093 1.495 . S
C1097 H1103 0.959 . S
C1097 H1104 0.961 . S
C1097 H1105 0.960 . S
C1098 C1096 1.381 . S
C1098 C1099 1.394 . S
C1098 H1106 0.930 . S
C1099 C1098 1.394 . S
C1099 C1100 1.383 . S
C1099 H1107 0.929 . S
C1100 C1099 1.383 . S
C1100 C1101 1.377 . S
C1101 H1085 0.930 . S
C1101 C1100 1.377 . S
C1101 C1102 1.379 . S
C1102 H1086 0.931 . S
C1102 C1096 1.383 . S
C1102 C1101 1.379 . S
H1103 C1097 0.959 . S
H1104 C1097 0.961 . S
H1105 C1097 0.960 . S
H1106 C1098 0.930 . S
H1107 C1099 0.929 . S
H1108 C1116 0.929 . S
H1109 C1118 0.930 . S
H1110 C1120 0.930 . S
H1111 C1123 0.929 . S
H1112 C1126 0.930 . S
H1113 C1128 0.960 . S
H1114 C1128 0.960 . S
H1115 C1128 0.960 . S
C1116 H1108 0.929 . S
C1116 C1117 1.377 . S
C1116 C1118 1.384 . S
C1117 C1116 1.377 . S
C1117 C1123 1.390 . S
C1118 H1109 0.930 . S
C1118 C1116 1.384 . S
C1118 C1119 1.372 . S
C1119 C1118 1.372 . S
C1119 C1120 1.400 . S
C1119 C1124 1.490 . S
C1120 H1110 0.930 . S
C1120 C1119 1.400 . S
C1120 C1123 1.386 . S
H1121 C1137 0.930 . S
H1122 C1138 0.931 . S
C1123 H1111 0.929 . S
C1123 C1117 1.390 . S
C1123 C1120 1.386 . S
C1124 C1119 1.490 . S
C1124 C1126 1.395 . S
C1124 C1127 1.403 . S
H1125 C1131 0.930 . S
C1126 H1112 0.930 . S
C1126 C1124 1.395 . S
C1126 C1129 1.403 . S
C1127 C1124 1.403 . S
C1127 C1128 1.524 . S
C1127 C1131 1.400 . S
C1128 H1113 0.960 . S
C1128 H1114 0.960 . S
C1128 H1115 0.960 . S
C1128 C1127 1.524 . S
C1129 C1126 1.403 . S
C1129 C1130 1.392 . S
C1129 C1133 1.495 . S
C1130 C1129 1.392 . S
C1130 C1131 1.385 . S
C1130 C1132 1.478 . S
C1131 H1125 0.930 . S
C1131 C1127 1.400 . S
C1131 C1130 1.385 . S
C1132 C1130 1.478 . S
C1132 C1134 1.381 . S
C1132 C1138 1.383 . S
C1133 C1129 1.495 . S
C1133 H1139 0.959 . S
C1133 H1140 0.961 . S
C1133 H1141 0.960 . S
C1134 C1132 1.381 . S
C1134 C1135 1.394 . S
C1134 H1142 0.930 . S
C1135 C1134 1.394 . S
C1135 C1136 1.383 . S
C1135 H1143 0.929 . S
C1136 C1135 1.383 . S
C1136 C1137 1.377 . S
C1137 H1121 0.930 . S
C1137 C1136 1.377 . S
C1137 C1138 1.379 . S
C1138 H1122 0.931 . S
C1138 C1132 1.383 . S
C1138 C1137 1.379 . S
H1139 C1133 0.959 . S
H1140 C1133 0.961 . S
H1141 C1133 0.960 . S
H1142 C1134 0.930 . S
H1143 C1135 0.929 . S
H1144 C1152 0.929 . S
H1145 C1154 0.930 . S
H1146 C1156 0.930 . S
H1147 C1159 0.929 . S
H1148 C1162 0.930 1_556 S
H1149 C1164 0.960 . S
H1150 C1164 0.960 . S
H1151 C1164 0.960 . S
C1152 H1144 0.929 . S
C1152 C1153 1.377 . S
C1152 C1154 1.384 . S
C1153 C1152 1.377 . S
C1153 C1159 1.390 . S
C1154 H1145 0.930 . S
C1154 C1152 1.384 . S
C1154 C1155 1.372 . S
C1155 C1154 1.372 . S
C1155 C1156 1.400 . S
C1155 C1160 1.490 1_556 S
C1156 H1146 0.930 . S
C1156 C1155 1.400 . S
C1156 C1159 1.386 . S
H1157 C1173 0.930 . S
H1158 C1174 0.931 . S
C1159 H1147 0.929 . S
C1159 C1153 1.390 . S
C1159 C1156 1.386 . S
C1160 C1155 1.490 1_554 S
C1160 C1162 1.395 . S
C1160 C1163 1.403 . S
H1161 C1167 0.930 . S
C1162 H1148 0.930 1_554 S
C1162 C1160 1.395 . S
C1162 C1165 1.403 . S
C1163 C1160 1.403 . S
C1163 C1164 1.524 . S
C1163 C1167 1.400 . S
C1164 H1149 0.960 . S
C1164 H1150 0.960 . S
C1164 H1151 0.960 . S
C1164 C1163 1.524 . S
C1165 C1162 1.403 . S
C1165 C1166 1.392 . S
C1165 C1169 1.495 . S
C1166 C1165 1.392 . S
C1166 C1167 1.385 . S
C1166 C1168 1.478 . S
C1167 H1161 0.930 . S
C1167 C1163 1.400 . S
C1167 C1166 1.385 . S
C1168 C1166 1.478 . S
C1168 C1170 1.381 . S
C1168 C1174 1.383 . S
C1169 C1165 1.495 . S
C1169 H1175 0.959 . S
C1169 H1176 0.961 . S
C1169 H1177 0.960 . S
C1170 C1168 1.381 . S
C1170 C1171 1.394 . S
C1170 H1178 0.930 . S
C1171 C1170 1.394 . S
C1171 C1172 1.383 . S
C1171 H1179 0.929 . S
C1172 C1171 1.383 . S
C1172 C1173 1.377 . S
C1173 H1157 0.930 . S
C1173 C1172 1.377 . S
C1173 C1174 1.379 . S
C1174 H1158 0.931 . S
C1174 C1168 1.383 . S
C1174 C1173 1.379 . S
H1175 C1169 0.959 . S
H1176 C1169 0.961 . S
H1177 C1169 0.960 . S
H1178 C1170 0.930 . S
H1179 C1171 0.929 . S
H1180 C1188 0.929 . S
H1181 C1190 0.930 . S
H1182 C1192 0.930 . S
H1183 C1195 0.929 . S
H1184 C1198 0.930 . S
H1185 C1200 0.960 . S
H1186 C1200 0.960 . S
H1187 C1200 0.960 . S
C1188 H1180 0.929 . S
C1188 C1189 1.377 . S
C1188 C1190 1.384 . S
C1189 C1188 1.377 . S
C1189 C1195 1.390 . S
C1190 H1181 0.930 . S
C1190 C1188 1.384 . S
C1190 C1191 1.372 . S
C1191 C1190 1.372 . S
C1191 C1192 1.400 . S
C1191 C1196 1.490 . S
C1192 H1182 0.930 . S
C1192 C1191 1.400 . S
C1192 C1195 1.386 . S
H1193 C1209 0.930 . S
H1194 C1210 0.931 . S
C1195 H1183 0.929 . S
C1195 C1189 1.390 . S
C1195 C1192 1.386 . S
C1196 C1191 1.490 . S
C1196 C1198 1.395 . S
C1196 C1199 1.403 . S
H1197 C1203 0.930 . S
C1198 H1184 0.930 . S
C1198 C1196 1.395 . S
C1198 C1201 1.403 . S
C1199 C1196 1.403 . S
C1199 C1200 1.524 . S
C1199 C1203 1.400 . S
C1200 H1185 0.960 . S
C1200 H1186 0.960 . S
C1200 H1187 0.960 . S
C1200 C1199 1.524 . S
C1201 C1198 1.403 . S
C1201 C1202 1.392 . S
C1201 C1205 1.495 . S
C1202 C1201 1.392 . S
C1202 C1203 1.385 . S
C1202 C1204 1.478 . S
C1203 H1197 0.930 . S
C1203 C1199 1.400 . S
C1203 C1202 1.385 . S
C1204 C1202 1.478 . S
C1204 C1206 1.381 . S
C1204 C1210 1.383 . S
C1205 C1201 1.495 . S
C1205 H1211 0.959 . S
C1205 H1212 0.961 . S
C1205 H1213 0.960 . S
C1206 C1204 1.381 . S
C1206 C1207 1.394 . S
C1206 H1214 0.930 . S
C1207 C1206 1.394 . S
C1207 C1208 1.383 . S
C1207 H1215 0.929 . S
C1208 C1207 1.383 . S
C1208 C1209 1.377 . S
C1209 H1193 0.930 . S
C1209 C1208 1.377 . S
C1209 C1210 1.379 . S
C1210 H1194 0.931 . S
C1210 C1204 1.383 . S
C1210 C1209 1.379 . S
H1211 C1205 0.959 . S
H1212 C1205 0.961 . S
H1213 C1205 0.960 . S
H1214 C1206 0.930 . S
H1215 C1207 0.929 . S
H1216 C1224 0.929 . S
H1217 C1226 0.930 . S
H1218 C1228 0.930 . S
H1219 C1231 0.929 . S
H1220 C1234 0.930 . S
H1221 C1236 0.960 . S
H1222 C1236 0.960 . S
H1223 C1236 0.960 1_556 S
C1224 H1216 0.929 . S
C1224 C1225 1.377 . S
C1224 C1226 1.384 . S
C1225 C1224 1.377 . S
C1225 C1231 1.390 . S
C1226 H1217 0.930 . S
C1226 C1224 1.384 . S
C1226 C1227 1.372 . S
C1227 C1226 1.372 . S
C1227 C1228 1.400 . S
C1227 C1232 1.490 1_556 S
C1228 H1218 0.930 . S
C1228 C1227 1.400 . S
C1228 C1231 1.386 . S
H1229 C1245 0.930 . S
H1230 C1246 0.931 . S
C1231 H1219 0.929 . S
C1231 C1225 1.390 . S
C1231 C1228 1.386 . S
C1232 C1227 1.490 1_554 S
C1232 C1234 1.395 . S
C1232 C1235 1.403 . S
H1233 C1239 0.930 . S
C1234 H1220 0.930 . S
C1234 C1232 1.395 . S
C1234 C1237 1.403 . S
C1235 C1232 1.403 . S
C1235 C1236 1.524 . S
C1235 C1239 1.400 . S
C1236 H1221 0.960 . S
C1236 H1222 0.960 . S
C1236 H1223 0.960 1_554 S
C1236 C1235 1.524 . S
C1237 C1234 1.403 . S
C1237 C1238 1.392 . S
C1237 C1241 1.495 . S
C1238 C1237 1.392 . S
C1238 C1239 1.385 . S
C1238 C1240 1.478 . S
C1239 H1233 0.930 . S
C1239 C1235 1.400 . S
C1239 C1238 1.385 . S
C1240 C1238 1.478 . S
C1240 C1242 1.381 . S
C1240 C1246 1.383 . S
C1241 C1237 1.495 . S
C1241 H1247 0.959 . S
C1241 H1248 0.961 . S
C1241 H1249 0.960 . S
C1242 C1240 1.381 . S
C1242 C1243 1.394 . S
C1242 H1250 0.930 . S
C1243 C1242 1.394 . S
C1243 C1244 1.383 . S
C1243 H1251 0.929 . S
C1244 C1243 1.383 . S
C1244 C1245 1.377 . S
C1245 H1229 0.930 . S
C1245 C1244 1.377 . S
C1245 C1246 1.379 . S
C1246 H1230 0.931 . S
C1246 C1240 1.383 . S
C1246 C1245 1.379 . S
H1247 C1241 0.959 . S
H1248 C1241 0.961 . S
H1249 C1241 0.960 . S
H1250 C1242 0.930 . S
H1251 C1243 0.929 . S
H1252 C1260 0.929 . S
H1253 C1262 0.930 . S
H1254 C1264 0.930 . S
H1255 C1267 0.929 . S
H1256 C1270 0.930 . S
H1257 C1272 0.960 . S
H1258 C1272 0.960 . S
H1259 C1272 0.960 . S
C1260 H1252 0.929 . S
C1260 C1261 1.377 . S
C1260 C1262 1.384 . S
C1261 C1260 1.377 . S
C1261 C1267 1.390 . S
C1262 H1253 0.930 . S
C1262 C1260 1.384 . S
C1262 C1263 1.372 . S
C1263 C1262 1.372 . S
C1263 C1264 1.400 . S
C1263 C1268 1.490 . S
C1264 H1254 0.930 . S
C1264 C1263 1.400 . S
C1264 C1267 1.386 . S
H1265 C1281 0.930 . S
H1266 C1282 0.931 . S
C1267 H1255 0.929 . S
C1267 C1261 1.390 . S
C1267 C1264 1.386 . S
C1268 C1263 1.490 . S
C1268 C1270 1.395 . S
C1268 C1271 1.403 . S
H1269 C1275 0.930 . S
C1270 H1256 0.930 . S
C1270 C1268 1.395 . S
C1270 C1273 1.403 . S
C1271 C1268 1.403 . S
C1271 C1272 1.524 . S
C1271 C1275 1.400 . S
C1272 H1257 0.960 . S
C1272 H1258 0.960 . S
C1272 H1259 0.960 . S
C1272 C1271 1.524 . S
C1273 C1270 1.403 . S
C1273 C1274 1.392 . S
C1273 C1277 1.495 . S
C1274 C1273 1.392 . S
C1274 C1275 1.385 . S
C1274 C1276 1.478 . S
C1275 H1269 0.930 . S
C1275 C1271 1.400 . S
C1275 C1274 1.385 . S
C1276 C1274 1.478 . S
C1276 C1278 1.381 . S
C1276 C1282 1.383 . S
C1277 C1273 1.495 . S
C1277 H1283 0.959 . S
C1277 H1284 0.961 . S
C1277 H1285 0.960 . S
C1278 C1276 1.381 . S
C1278 C1279 1.394 . S
C1278 H1286 0.930 . S
C1279 C1278 1.394 . S
C1279 C1280 1.383 . S
C1279 H1287 0.929 . S
C1280 C1279 1.383 . S
C1280 C1281 1.377 . S
C1281 H1265 0.930 . S
C1281 C1280 1.377 . S
C1281 C1282 1.379 . S
C1282 H1266 0.931 . S
C1282 C1276 1.383 . S
C1282 C1281 1.379 . S
H1283 C1277 0.959 . S
H1284 C1277 0.961 . S
H1285 C1277 0.960 . S
H1286 C1278 0.930 . S
H1287 C1279 0.929 . S
H1288 C1296 0.929 . S
H1289 C1298 0.930 . S
H1290 C1300 0.930 . S
H1291 C1303 0.929 . S
H1292 C1306 0.930 1_556 S
H1293 C1308 0.960 . S
H1294 C1308 0.960 . S
H1295 C1308 0.960 . S
C1296 H1288 0.929 . S
C1296 C1297 1.377 . S
C1296 C1298 1.384 . S
C1297 C1296 1.377 . S
C1297 C1303 1.390 . S
C1298 H1289 0.930 . S
C1298 C1296 1.384 . S
C1298 C1299 1.372 . S
C1299 C1298 1.372 . S
C1299 C1300 1.400 . S
C1299 C1304 1.490 1_556 S
C1300 H1290 0.930 . S
C1300 C1299 1.400 . S
C1300 C1303 1.386 . S
H1301 C1317 0.930 . S
H1302 C1318 0.931 . S
C1303 H1291 0.929 . S
C1303 C1297 1.390 . S
C1303 C1300 1.386 . S
C1304 C1299 1.490 1_554 S
C1304 C1306 1.395 . S
C1304 C1307 1.403 . S
H1305 C1311 0.930 . S
C1306 H1292 0.930 1_554 S
C1306 C1304 1.395 . S
C1306 C1309 1.403 . S
C1307 C1304 1.403 . S
C1307 C1308 1.524 . S
C1307 C1311 1.400 . S
C1308 H1293 0.960 . S
C1308 H1294 0.960 . S
C1308 H1295 0.960 . S
C1308 C1307 1.524 . S
C1309 C1306 1.403 . S
C1309 C1310 1.392 . S
C1309 C1313 1.495 . S
C1310 C1309 1.392 . S
C1310 C1311 1.385 . S
C1310 C1312 1.478 . S
C1311 H1305 0.930 . S
C1311 C1307 1.400 . S
C1311 C1310 1.385 . S
C1312 C1310 1.478 . S
C1312 C1314 1.381 . S
C1312 C1318 1.383 . S
C1313 C1309 1.495 . S
C1313 H1319 0.959 . S
C1313 H1320 0.961 . S
C1313 H1321 0.960 . S
C1314 C1312 1.381 . S
C1314 C1315 1.394 . S
C1314 H1322 0.930 . S
C1315 C1314 1.394 . S
C1315 C1316 1.383 . S
C1315 H1323 0.929 . S
C1316 C1315 1.383 . S
C1316 C1317 1.377 . S
C1317 H1301 0.930 . S
C1317 C1316 1.377 . S
C1317 C1318 1.379 . S
C1318 H1302 0.931 . S
C1318 C1312 1.383 . S
C1318 C1317 1.379 . S
H1319 C1313 0.959 . S
H1320 C1313 0.961 . S
H1321 C1313 0.960 . S
H1322 C1314 0.930 . S
H1323 C1315 0.929 . S
H1324 C1332 0.929 . S
H1325 C1334 0.930 . S
H1326 C1336 0.930 . S
H1327 C1339 0.929 . S
H1328 C1342 0.930 . S
H1329 C1344 0.960 . S
H1330 C1344 0.960 . S
H1331 C1344 0.960 . S
C1332 H1324 0.929 . S
C1332 C1333 1.377 . S
C1332 C1334 1.384 . S
C1333 C1332 1.377 . S
C1333 C1339 1.390 . S
C1334 H1325 0.930 . S
C1334 C1332 1.384 . S
C1334 C1335 1.372 . S
C1335 C1334 1.372 . S
C1335 C1336 1.400 . S
C1335 C1340 1.490 . S
C1336 H1326 0.930 . S
C1336 C1335 1.400 . S
C1336 C1339 1.386 . S
H1337 C1353 0.930 . S
H1338 C1354 0.931 . S
C1339 H1327 0.929 . S
C1339 C1333 1.390 . S
C1339 C1336 1.386 . S
C1340 C1335 1.490 . S
C1340 C1342 1.395 . S
C1340 C1343 1.403 . S
H1341 C1347 0.930 . S
C1342 H1328 0.930 . S
C1342 C1340 1.395 . S
C1342 C1345 1.403 . S
C1343 C1340 1.403 . S
C1343 C1344 1.524 . S
C1343 C1347 1.400 . S
C1344 H1329 0.960 . S
C1344 H1330 0.960 . S
C1344 H1331 0.960 . S
C1344 C1343 1.524 . S
C1345 C1342 1.403 . S
C1345 C1346 1.392 . S
C1345 C1349 1.495 . S
C1346 C1345 1.392 . S
C1346 C1347 1.385 . S
C1346 C1348 1.478 . S
C1347 H1341 0.930 . S
C1347 C1343 1.400 . S
C1347 C1346 1.385 . S
C1348 C1346 1.478 . S
C1348 C1350 1.381 . S
C1348 C1354 1.383 . S
C1349 C1345 1.495 . S
C1349 H1355 0.959 . S
C1349 H1356 0.961 . S
C1349 H1357 0.960 . S
C1350 C1348 1.381 . S
C1350 C1351 1.394 . S
C1350 H1358 0.930 . S
C1351 C1350 1.394 . S
C1351 C1352 1.383 . S
C1351 H1359 0.929 . S
C1352 C1351 1.383 . S
C1352 C1353 1.377 . S
C1353 H1337 0.930 . S
C1353 C1352 1.377 . S
C1353 C1354 1.379 . S
C1354 H1338 0.931 . S
C1354 C1348 1.383 . S
C1354 C1353 1.379 . S
H1355 C1349 0.959 . S
H1356 C1349 0.961 . S
H1357 C1349 0.960 . S
H1358 C1350 0.930 . S
H1359 C1351 0.929 . S
H1360 C1368 0.929 . S
H1361 C1370 0.930 . S
H1362 C1372 0.930 . S
H1363 C1375 0.929 . S
H1364 C1378 0.930 . S
H1365 C1380 0.960 . S
H1366 C1380 0.960 . S
H1367 C1380 0.960 . S
C1368 H1360 0.929 . S
C1368 C1369 1.377 . S
C1368 C1370 1.384 . S
C1369 C1368 1.377 . S
C1369 C1375 1.390 . S
C1370 H1361 0.930 . S
C1370 C1368 1.384 . S
C1370 C1371 1.372 . S
C1371 C1370 1.372 . S
C1371 C1372 1.400 . S
C1371 C1376 1.490 . S
C1372 H1362 0.930 . S
C1372 C1371 1.400 . S
C1372 C1375 1.386 . S
H1373 C1389 0.930 . S
H1374 C1390 0.931 . S
C1375 H1363 0.929 . S
C1375 C1369 1.390 . S
C1375 C1372 1.386 . S
C1376 C1371 1.490 . S
C1376 C1378 1.395 . S
C1376 C1379 1.403 . S
H1377 C1383 0.930 . S
C1378 H1364 0.930 . S
C1378 C1376 1.395 . S
C1378 C1381 1.403 . S
C1379 C1376 1.403 . S
C1379 C1380 1.524 . S
C1379 C1383 1.400 . S
C1380 H1365 0.960 . S
C1380 H1366 0.960 . S
C1380 H1367 0.960 . S
C1380 C1379 1.524 . S
C1381 C1378 1.403 . S
C1381 C1382 1.392 . S
C1381 C1385 1.495 1_556 S
C1382 C1381 1.392 . S
C1382 C1383 1.385 . S
C1382 C1384 1.478 1_556 S
C1383 H1377 0.930 . S
C1383 C1379 1.400 . S
C1383 C1382 1.385 . S
C1384 C1382 1.478 1_554 S
C1384 C1386 1.381 . S
C1384 C1390 1.383 . S
C1385 C1381 1.495 1_554 S
C1385 H1391 0.959 . S
C1385 H1392 0.961 . S
C1385 H1393 0.960 . S
C1386 C1384 1.381 . S
C1386 C1387 1.394 . S
C1386 H1394 0.930 . S
C1387 C1386 1.394 . S
C1387 C1388 1.383 . S
C1387 H1395 0.929 . S
C1388 C1387 1.383 . S
C1388 C1389 1.377 . S
C1389 H1373 0.930 . S
C1389 C1388 1.377 . S
C1389 C1390 1.379 . S
C1390 H1374 0.931 . S
C1390 C1384 1.383 . S
C1390 C1389 1.379 . S
H1391 C1385 0.959 . S
H1392 C1385 0.961 . S
H1393 C1385 0.960 . S
H1394 C1386 0.930 . S
H1395 C1387 0.929 . S
H1396 C1404 0.929 . S
H1397 C1406 0.930 . S
H1398 C1408 0.930 . S
H1399 C1411 0.929 . S
H1400 C1414 0.930 . S
H1401 C1416 0.960 . S
H1402 C1416 0.960 . S
H1403 C1416 0.960 . S
C1404 H1396 0.929 . S
C1404 C1405 1.377 . S
C1404 C1406 1.384 . S
C1405 C1404 1.377 . S
C1405 C1411 1.390 . S
C1406 H1397 0.930 . S
C1406 C1404 1.384 . S
C1406 C1407 1.372 . S
C1407 C1406 1.372 . S
C1407 C1408 1.400 . S
C1407 C1412 1.490 . S
C1408 H1398 0.930 . S
C1408 C1407 1.400 . S
C1408 C1411 1.386 . S
H1409 C1425 0.930 . S
H1410 C1426 0.931 . S
C1411 H1399 0.929 . S
C1411 C1405 1.390 . S
C1411 C1408 1.386 . S
C1412 C1407 1.490 . S
C1412 C1414 1.395 . S
C1412 C1415 1.403 . S
H1413 C1419 0.930 . S
C1414 H1400 0.930 . S
C1414 C1412 1.395 . S
C1414 C1417 1.403 . S
C1415 C1412 1.403 . S
C1415 C1416 1.524 . S
C1415 C1419 1.400 . S
C1416 H1401 0.960 . S
C1416 H1402 0.960 . S
C1416 H1403 0.960 . S
C1416 C1415 1.524 . S
C1417 C1414 1.403 . S
C1417 C1418 1.392 . S
C1417 C1421 1.495 . S
C1418 C1417 1.392 . S
C1418 C1419 1.385 . S
C1418 C1420 1.478 . S
C1419 H1413 0.930 . S
C1419 C1415 1.400 . S
C1419 C1418 1.385 . S
C1420 C1418 1.478 . S
C1420 C1422 1.381 . S
C1420 C1426 1.383 . S
C1421 C1417 1.495 . S
C1421 H1427 0.959 . S
C1421 H1428 0.961 . S
C1421 H1429 0.960 . S
C1422 C1420 1.381 . S
C1422 C1423 1.394 . S
C1422 H1430 0.930 . S
C1423 C1422 1.394 . S
C1423 C1424 1.383 . S
C1423 H1431 0.929 . S
C1424 C1423 1.383 . S
C1424 C1425 1.377 . S
C1425 H1409 0.930 . S
C1425 C1424 1.377 . S
C1425 C1426 1.379 . S
C1426 H1410 0.931 . S
C1426 C1420 1.383 . S
C1426 C1425 1.379 . S
H1427 C1421 0.959 . S
H1428 C1421 0.961 . S
H1429 C1421 0.960 . S
H1430 C1422 0.930 . S
H1431 C1423 0.929 . S
H1432 C1440 0.929 . S
H1433 C1442 0.930 . S
H1434 C1444 0.930 . S
H1435 C1447 0.929 . S
H1436 C1450 0.930 . S
H1437 C1452 0.960 . S
H1438 C1452 0.960 . S
H1439 C1452 0.960 . S
C1440 H1432 0.929 . S
C1440 C1441 1.377 . S
C1440 C1442 1.384 . S
C1441 C1440 1.377 . S
C1441 C1447 1.390 . S
C1442 H1433 0.930 . S
C1442 C1440 1.384 . S
C1442 C1443 1.372 . S
C1443 C1442 1.372 . S
C1443 C1444 1.400 . S
C1443 C1448 1.490 . S
C1444 H1434 0.930 . S
C1444 C1443 1.400 . S
C1444 C1447 1.386 . S
H1445 C1461 0.930 . S
H1446 C1462 0.931 . S
C1447 H1435 0.929 . S
C1447 C1441 1.390 . S
C1447 C1444 1.386 . S
C1448 C1443 1.490 . S
C1448 C1450 1.395 . S
C1448 C1451 1.403 . S
H1449 C1455 0.930 . S
C1450 H1436 0.930 . S
C1450 C1448 1.395 . S
C1450 C1453 1.403 . S
C1451 C1448 1.403 . S
C1451 C1452 1.524 . S
C1451 C1455 1.400 . S
C1452 H1437 0.960 . S
C1452 H1438 0.960 . S
C1452 H1439 0.960 . S
C1452 C1451 1.524 . S
C1453 C1450 1.403 . S
C1453 C1454 1.392 . S
C1453 C1457 1.495 . S
C1454 C1453 1.392 . S
C1454 C1455 1.385 . S
C1454 C1456 1.478 1_556 S
C1455 H1449 0.930 . S
C1455 C1451 1.400 . S
C1455 C1454 1.385 . S
C1456 C1454 1.478 1_554 S
C1456 C1458 1.381 . S
C1456 C1462 1.383 . S
C1457 C1453 1.495 . S
C1457 H1463 0.959 . S
C1457 H1464 0.961 1_556 S
C1457 H1465 0.960 . S
C1458 C1456 1.381 . S
C1458 C1459 1.394 . S
C1458 H1466 0.930 . S
C1459 C1458 1.394 . S
C1459 C1460 1.383 . S
C1459 H1467 0.929 . S
C1460 C1459 1.383 . S
C1460 C1461 1.377 . S
C1461 H1445 0.930 . S
C1461 C1460 1.377 . S
C1461 C1462 1.379 . S
C1462 H1446 0.931 . S
C1462 C1456 1.383 . S
C1462 C1461 1.379 . S
H1463 C1457 0.959 . S
H1464 C1457 0.961 1_554 S
H1465 C1457 0.960 . S
H1466 C1458 0.930 . S
H1467 C1459 0.929 . S
H1468 C1476 0.929 . S
H1469 C1478 0.930 . S
H1470 C1480 0.930 . S
H1471 C1483 0.929 . S
H1472 C1486 0.930 . S
H1473 C1488 0.960 . S
H1474 C1488 0.960 . S
H1475 C1488 0.960 . S
C1476 H1468 0.929 . S
C1476 C1477 1.377 . S
C1476 C1478 1.384 . S
C1477 C1476 1.377 . S
C1477 C1483 1.390 . S
C1478 H1469 0.930 . S
C1478 C1476 1.384 . S
C1478 C1479 1.372 . S
C1479 C1478 1.372 . S
C1479 C1480 1.400 . S
C1479 C1484 1.490 . S
C1480 H1470 0.930 . S
C1480 C1479 1.400 . S
C1480 C1483 1.386 . S
H1481 C1497 0.930 . S
H1482 C1498 0.931 . S
C1483 H1471 0.929 . S
C1483 C1477 1.390 . S
C1483 C1480 1.386 . S
C1484 C1479 1.490 . S
C1484 C1486 1.395 . S
C1484 C1487 1.403 . S
H1485 C1491 0.930 . S
C1486 H1472 0.930 . S
C1486 C1484 1.395 . S
C1486 C1489 1.403 . S
C1487 C1484 1.403 . S
C1487 C1488 1.524 . S
C1487 C1491 1.400 . S
C1488 H1473 0.960 . S
C1488 H1474 0.960 . S
C1488 H1475 0.960 . S
C1488 C1487 1.524 . S
C1489 C1486 1.403 . S
C1489 C1490 1.392 . S
C1489 C1493 1.495 . S
C1490 C1489 1.392 . S
C1490 C1491 1.385 . S
C1490 C1492 1.478 . S
C1491 H1485 0.930 . S
C1491 C1487 1.400 . S
C1491 C1490 1.385 . S
C1492 C1490 1.478 . S
C1492 C1494 1.381 . S
C1492 C1498 1.383 . S
C1493 C1489 1.495 . S
C1493 H1499 0.959 . S
C1493 H1500 0.961 . S
C1493 H1501 0.960 . S
C1494 C1492 1.381 . S
C1494 C1495 1.394 . S
C1494 H1502 0.930 . S
C1495 C1494 1.394 . S
C1495 C1496 1.383 . S
C1495 H1503 0.929 . S
C1496 C1495 1.383 . S
C1496 C1497 1.377 . S
C1497 H1481 0.930 . S
C1497 C1496 1.377 . S
C1497 C1498 1.379 . S
C1498 H1482 0.931 . S
C1498 C1492 1.383 . S
C1498 C1497 1.379 . S
H1499 C1493 0.959 . S
H1500 C1493 0.961 . S
H1501 C1493 0.960 . S
H1502 C1494 0.930 . S
H1503 C1495 0.929 . S
H1504 C1512 0.929 . S
H1505 C1514 0.930 . S
H1506 C1516 0.930 . S
H1507 C1519 0.929 . S
H1508 C1522 0.930 . S
H1509 C1524 0.960 . S
H1510 C1524 0.960 . S
H1511 C1524 0.960 . S
C1512 H1504 0.929 . S
C1512 C1513 1.377 1_545 S
C1512 C1514 1.384 . S
C1513 C1512 1.377 1_565 S
C1513 C1519 1.390 . S
C1514 H1505 0.930 . S
C1514 C1512 1.384 . S
C1514 C1515 1.372 . S
C1515 C1514 1.372 . S
C1515 C1516 1.400 . S
C1515 C1520 1.490 . S
C1516 H1506 0.930 . S
C1516 C1515 1.400 . S
C1516 C1519 1.386 1_545 S
H1517 C1533 0.930 . S
H1518 C1534 0.931 . S
C1519 H1507 0.929 . S
C1519 C1513 1.390 . S
C1519 C1516 1.386 1_565 S
C1520 C1515 1.490 . S
C1520 C1522 1.395 . S
C1520 C1523 1.403 . S
H1521 C1527 0.930 . S
C1522 H1508 0.930 . S
C1522 C1520 1.395 . S
C1522 C1525 1.403 . S
C1523 C1520 1.403 . S
C1523 C1524 1.524 . S
C1523 C1527 1.400 . S
C1524 H1509 0.960 . S
C1524 H1510 0.960 . S
C1524 H1511 0.960 . S
C1524 C1523 1.524 . S
C1525 C1522 1.403 . S
C1525 C1526 1.392 . S
C1525 C1529 1.495 . S
C1526 C1525 1.392 . S
C1526 C1527 1.385 . S
C1526 C1528 1.478 . S
C1527 H1521 0.930 . S
C1527 C1523 1.400 . S
C1527 C1526 1.385 . S
C1528 C1526 1.478 . S
C1528 C1530 1.381 . S
C1528 C1534 1.383 . S
C1529 C1525 1.495 . S
C1529 H1535 0.959 . S
C1529 H1536 0.961 . S
C1529 H1537 0.960 . S
C1530 C1528 1.381 . S
C1530 C1531 1.394 . S
C1530 H1538 0.930 . S
C1531 C1530 1.394 . S
C1531 C1532 1.383 . S
C1531 H1539 0.929 . S
C1532 C1531 1.383 . S
C1532 C1533 1.377 . S
C1533 H1517 0.930 . S
C1533 C1532 1.377 . S
C1533 C1534 1.379 . S
C1534 H1518 0.931 . S
C1534 C1528 1.383 . S
C1534 C1533 1.379 . S
H1535 C1529 0.959 . S
H1536 C1529 0.961 . S
H1537 C1529 0.960 . S
H1538 C1530 0.930 . S
H1539 C1531 0.929 . S
H1540 C1548 0.929 . S
H1541 C1550 0.930 . S
H1542 C1552 0.930 . S
H1543 C1555 0.929 . S
H1544 C1558 0.930 . S
H1545 C1560 0.960 . S
H1546 C1560 0.960 . S
H1547 C1560 0.960 . S
C1548 H1540 0.929 . S
C1548 C1549 1.377 . S
C1548 C1550 1.384 . S
C1549 C1548 1.377 . S
C1549 C1555 1.390 . S
C1550 H1541 0.930 . S
C1550 C1548 1.384 . S
C1550 C1551 1.372 . S
C1551 C1550 1.372 . S
C1551 C1552 1.400 . S
C1551 C1556 1.490 . S
C1552 H1542 0.930 . S
C1552 C1551 1.400 . S
C1552 C1555 1.386 . S
H1553 C1569 0.930 . S
H1554 C1570 0.931 . S
C1555 H1543 0.929 . S
C1555 C1549 1.390 . S
C1555 C1552 1.386 . S
C1556 C1551 1.490 . S
C1556 C1558 1.395 . S
C1556 C1559 1.403 . S
H1557 C1563 0.930 . S
C1558 H1544 0.930 . S
C1558 C1556 1.395 . S
C1558 C1561 1.403 . S
C1559 C1556 1.403 . S
C1559 C1560 1.524 . S
C1559 C1563 1.400 . S
C1560 H1545 0.960 . S
C1560 H1546 0.960 . S
C1560 H1547 0.960 . S
C1560 C1559 1.524 . S
C1561 C1558 1.403 . S
C1561 C1562 1.392 . S
C1561 C1565 1.495 . S
C1562 C1561 1.392 . S
C1562 C1563 1.385 . S
C1562 C1564 1.478 . S
C1563 H1557 0.930 . S
C1563 C1559 1.400 . S
C1563 C1562 1.385 . S
C1564 C1562 1.478 . S
C1564 C1566 1.381 . S
C1564 C1570 1.383 . S
C1565 C1561 1.495 . S
C1565 H1571 0.959 . S
C1565 H1572 0.961 . S
C1565 H1573 0.960 . S
C1566 C1564 1.381 . S
C1566 C1567 1.394 . S
C1566 H1574 0.930 . S
C1567 C1566 1.394 . S
C1567 C1568 1.383 . S
C1567 H1575 0.929 . S
C1568 C1567 1.383 . S
C1568 C1569 1.377 . S
C1569 H1553 0.930 . S
C1569 C1568 1.377 . S
C1569 C1570 1.379 . S
C1570 H1554 0.931 . S
C1570 C1564 1.383 . S
C1570 C1569 1.379 . S
H1571 C1565 0.959 . S
H1572 C1565 0.961 . S
H1573 C1565 0.960 . S
H1574 C1566 0.930 . S
H1575 C1567 0.929 . S
H1576 C1584 0.929 . S
H1577 C1586 0.930 . S
H1578 C1588 0.930 . S
H1579 C1591 0.929 . S
H1580 C1594 0.930 . S
H1581 C1596 0.960 . S
H1582 C1596 0.960 . S
H1583 C1596 0.960 . S
C1584 H1576 0.929 . S
C1584 C1585 1.377 1_455 S
C1584 C1586 1.384 . S
C1585 C1584 1.377 1_655 S
C1585 C1591 1.390 . S
C1586 H1577 0.930 . S
C1586 C1584 1.384 . S
C1586 C1587 1.372 . S
C1587 C1586 1.372 . S
C1587 C1588 1.400 . S
C1587 C1592 1.490 . S
C1588 H1578 0.930 . S
C1588 C1587 1.400 . S
C1588 C1591 1.386 1_455 S
H1589 C1605 0.930 . S
H1590 C1606 0.931 . S
C1591 H1579 0.929 . S
C1591 C1585 1.390 . S
C1591 C1588 1.386 1_655 S
C1592 C1587 1.490 . S
C1592 C1594 1.395 . S
C1592 C1595 1.403 . S
H1593 C1599 0.930 . S
C1594 H1580 0.930 . S
C1594 C1592 1.395 . S
C1594 C1597 1.403 . S
C1595 C1592 1.403 . S
C1595 C1596 1.524 . S
C1595 C1599 1.400 . S
C1596 H1581 0.960 . S
C1596 H1582 0.960 . S
C1596 H1583 0.960 . S
C1596 C1595 1.524 . S
C1597 C1594 1.403 . S
C1597 C1598 1.392 . S
C1597 C1601 1.495 . S
C1598 C1597 1.392 . S
C1598 C1599 1.385 . S
C1598 C1600 1.478 . S
C1599 H1593 0.930 . S
C1599 C1595 1.400 . S
C1599 C1598 1.385 . S
C1600 C1598 1.478 . S
C1600 C1602 1.381 . S
C1600 C1606 1.383 . S
C1601 C1597 1.495 . S
C1601 H1607 0.959 . S
C1601 H1608 0.961 . S
C1601 H1609 0.960 . S
C1602 C1600 1.381 . S
C1602 C1603 1.394 . S
C1602 H1610 0.930 . S
C1603 C1602 1.394 . S
C1603 C1604 1.383 . S
C1603 H1611 0.929 . S
C1604 C1603 1.383 . S
C1604 C1605 1.377 . S
C1605 H1589 0.930 . S
C1605 C1604 1.377 . S
C1605 C1606 1.379 . S
C1606 H1590 0.931 . S
C1606 C1600 1.383 . S
C1606 C1605 1.379 . S
H1607 C1601 0.959 . S
H1608 C1601 0.961 . S
H1609 C1601 0.960 . S
H1610 C1602 0.930 . S
H1611 C1603 0.929 . S
H1612 C1620 0.929 . S
H1613 C1622 0.930 . S
H1614 C1624 0.930 . S
H1615 C1627 0.929 1_565 S
H1616 C1630 0.930 . S
H1617 C1632 0.960 . S
H1618 C1632 0.960 . S
H1619 C1632 0.960 . S
C1620 H1612 0.929 . S
C1620 C1621 1.377 1_545 S
C1620 C1622 1.384 . S
C1621 C1620 1.377 1_565 S
C1621 C1627 1.390 1_565 S
C1622 H1613 0.930 . S
C1622 C1620 1.384 . S
C1622 C1623 1.372 . S
C1623 C1622 1.372 . S
C1623 C1624 1.400 . S
C1623 C1628 1.490 . S
C1624 H1614 0.930 . S
C1624 C1623 1.400 . S
C1624 C1627 1.386 . S
H1625 C1641 0.930 . S
H1626 C1642 0.931 . S
C1627 H1615 0.929 1_545 S
C1627 C1621 1.390 1_545 S
C1627 C1624 1.386 . S
C1628 C1623 1.490 . S
C1628 C1630 1.395 . S
C1628 C1631 1.403 . S
H1629 C1635 0.930 . S
C1630 H1616 0.930 . S
C1630 C1628 1.395 . S
C1630 C1633 1.403 . S
C1631 C1628 1.403 . S
C1631 C1632 1.524 . S
C1631 C1635 1.400 . S
C1632 H1617 0.960 . S
C1632 H1618 0.960 . S
C1632 H1619 0.960 . S
C1632 C1631 1.524 . S
C1633 C1630 1.403 . S
C1633 C1634 1.392 . S
C1633 C1637 1.495 . S
C1634 C1633 1.392 . S
C1634 C1635 1.385 . S
C1634 C1636 1.478 . S
C1635 H1629 0.930 . S
C1635 C1631 1.400 . S
C1635 C1634 1.385 . S
C1636 C1634 1.478 . S
C1636 C1638 1.381 . S
C1636 C1642 1.383 . S
C1637 C1633 1.495 . S
C1637 H1643 0.959 . S
C1637 H1644 0.961 . S
C1637 H1645 0.960 . S
C1638 C1636 1.381 . S
C1638 C1639 1.394 1_455 S
C1638 H1646 0.930 . S
C1639 C1638 1.394 1_655 S
C1639 C1640 1.383 . S
C1639 H1647 0.929 . S
C1640 C1639 1.383 . S
C1640 C1641 1.377 1_655 S
C1641 H1625 0.930 . S
C1641 C1640 1.377 1_455 S
C1641 C1642 1.379 . S
C1642 H1626 0.931 . S
C1642 C1636 1.383 . S
C1642 C1641 1.379 . S
H1643 C1637 0.959 . S
H1644 C1637 0.961 . S
H1645 C1637 0.960 . S
H1646 C1638 0.930 . S
H1647 C1639 0.929 . S
H1648 C1656 0.929 . S
H1649 C1658 0.936 . S
H1650 C1660 0.930 . S
H1651 C1663 0.929 . S
H1652 C1666 0.930 . S
H1653 C1668 0.960 . S
H1654 C1668 0.960 . S
H1655 C1668 0.960 . S
C1656 H1648 0.929 . S
C1656 C1657 1.377 . S
C1656 C1658 1.384 1_545 S
C1657 C1656 1.377 . S
C1657 C1663 1.390 1_545 S
C1658 H1649 0.936 . S
C1658 C1656 1.384 1_565 S
C1658 C1659 1.372 . S
C1659 C1658 1.372 . S
C1659 C1660 1.400 . S
C1659 C1664 1.490 . S
C1660 H1650 0.930 . S
C1660 C1659 1.400 . S
C1660 C1663 1.386 . S
H1661 C1677 0.930 . S
H1662 C1678 0.931 . S
C1663 H1651 0.929 . S
C1663 C1657 1.390 1_565 S
C1663 C1660 1.386 . S
C1664 C1659 1.490 . S
C1664 C1666 1.395 . S
C1664 C1667 1.403 . S
H1665 C1671 0.930 . S
C1666 H1652 0.930 . S
C1666 C1664 1.395 . S
C1666 C1669 1.403 . S
C1667 C1664 1.403 . S
C1667 C1668 1.524 . S
C1667 C1671 1.400 . S
C1668 H1653 0.960 . S
C1668 H1654 0.960 . S
C1668 H1655 0.960 . S
C1668 C1667 1.524 . S
C1669 C1666 1.403 . S
C1669 C1670 1.392 . S
C1669 C1673 1.495 . S
C1670 C1669 1.392 . S
C1670 C1671 1.385 . S
C1670 C1672 1.478 . S
C1671 H1665 0.930 . S
C1671 C1667 1.400 . S
C1671 C1670 1.385 . S
C1672 C1670 1.478 . S
C1672 C1674 1.381 . S
C1672 C1678 1.383 . S
C1673 C1669 1.495 . S
C1673 H1679 0.959 . S
C1673 H1680 0.961 . S
C1673 H1681 0.960 . S
C1674 C1672 1.381 . S
C1674 C1675 1.394 . S
C1674 H1682 0.930 . S
C1675 C1674 1.394 . S
C1675 C1676 1.383 . S
C1675 H1683 0.929 . S
C1676 C1675 1.383 . S
C1676 C1677 1.377 . S
C1677 H1661 0.930 . S
C1677 C1676 1.377 . S
C1677 C1678 1.379 . S
C1678 H1662 0.931 . S
C1678 C1672 1.383 . S
C1678 C1677 1.379 . S
H1679 C1673 0.959 . S
H1680 C1673 0.961 . S
H1681 C1673 0.960 . S
H1682 C1674 0.930 . S
H1683 C1675 0.929 . S
H1684 C1692 0.929 . S
H1685 C1694 0.930 . S
H1686 C1696 0.930 . S
H1687 C1699 0.929 . S
H1688 C1702 0.930 . S
H1689 C1704 0.960 . S
H1690 C1704 0.960 . S
H1691 C1704 0.960 . S
C1692 H1684 0.929 . S
C1692 C1693 1.377 . S
C1692 C1694 1.384 . S
C1693 C1692 1.377 . S
C1693 C1699 1.390 . S
C1694 H1685 0.930 . S
C1694 C1692 1.384 . S
C1694 C1695 1.372 . S
C1695 C1694 1.372 . S
C1695 C1696 1.400 . S
C1695 C1700 1.490 . S
C1696 H1686 0.930 . S
C1696 C1695 1.400 . S
C1696 C1699 1.386 . S
H1697 C1713 0.930 . S
H1698 C1714 0.931 . S
C1699 H1687 0.929 . S
C1699 C1693 1.390 . S
C1699 C1696 1.386 . S
C1700 C1695 1.490 . S
C1700 C1702 1.395 . S
C1700 C1703 1.403 . S
H1701 C1707 0.930 . S
C1702 H1688 0.930 . S
C1702 C1700 1.395 . S
C1702 C1705 1.403 . S
C1703 C1700 1.403 . S
C1703 C1704 1.524 . S
C1703 C1707 1.400 . S
C1704 H1689 0.960 . S
C1704 H1690 0.960 . S
C1704 H1691 0.960 . S
C1704 C1703 1.524 . S
C1705 C1702 1.403 . S
C1705 C1706 1.392 . S
C1705 C1709 1.495 . S
C1706 C1705 1.392 . S
C1706 C1707 1.385 . S
C1706 C1708 1.478 . S
C1707 H1701 0.930 . S
C1707 C1703 1.400 . S
C1707 C1706 1.385 . S
C1708 C1706 1.478 . S
C1708 C1710 1.381 . S
C1708 C1714 1.383 . S
C1709 C1705 1.495 . S
C1709 H1715 0.959 . S
C1709 H1716 0.961 . S
C1709 H1717 0.960 . S
C1710 C1708 1.381 . S
C1710 C1711 1.394 . S
C1710 H1718 0.930 . S
C1711 C1710 1.394 . S
C1711 C1712 1.383 . S
C1711 H1719 0.929 . S
C1712 C1711 1.383 . S
C1712 C1713 1.377 . S
C1713 H1697 0.930 . S
C1713 C1712 1.377 . S
C1713 C1714 1.379 . S
C1714 H1698 0.931 . S
C1714 C1708 1.383 . S
C1714 C1713 1.379 . S
H1715 C1709 0.959 . S
H1716 C1709 0.961 . S
H1717 C1709 0.960 . S
H1718 C1710 0.930 . S
H1719 C1711 0.929 . S
H1720 C1728 0.929 . S
H1721 C1730 0.930 . S
H1722 C1732 0.930 . S
H1723 C1735 0.929 . S
H1724 C1738 0.930 . S
H1725 C1740 0.960 . S
H1726 C1740 0.960 . S
H1727 C1740 0.960 . S
C1728 H1720 0.929 . S
C1728 C1729 1.377 . S
C1728 C1730 1.384 . S
C1729 C1728 1.377 . S
C1729 C1735 1.390 . S
C1730 H1721 0.930 . S
C1730 C1728 1.384 . S
C1730 C1731 1.372 . S
C1731 C1730 1.372 . S
C1731 C1732 1.400 . S
C1731 C1736 1.490 . S
C1732 H1722 0.930 . S
C1732 C1731 1.400 . S
C1732 C1735 1.386 . S
H1733 C1749 0.930 . S
H1734 C1750 0.931 . S
C1735 H1723 0.929 . S
C1735 C1729 1.390 . S
C1735 C1732 1.386 . S
C1736 C1731 1.490 . S
C1736 C1738 1.395 . S
C1736 C1739 1.403 . S
H1737 C1743 0.930 . S
C1738 H1724 0.930 . S
C1738 C1736 1.395 . S
C1738 C1741 1.403 . S
C1739 C1736 1.403 . S
C1739 C1740 1.524 . S
C1739 C1743 1.400 . S
C1740 H1725 0.960 . S
C1740 H1726 0.960 . S
C1740 H1727 0.960 . S
C1740 C1739 1.524 . S
C1741 C1738 1.403 . S
C1741 C1742 1.392 . S
C1741 C1745 1.495 . S
C1742 C1741 1.392 . S
C1742 C1743 1.385 . S
C1742 C1744 1.478 . S
C1743 H1737 0.930 . S
C1743 C1739 1.400 . S
C1743 C1742 1.385 . S
C1744 C1742 1.478 . S
C1744 C1746 1.381 . S
C1744 C1750 1.383 . S
C1745 C1741 1.495 . S
C1745 H1751 0.959 . S
C1745 H1752 0.961 . S
C1745 H1753 0.960 . S
C1746 C1744 1.381 . S
C1746 C1747 1.394 1_655 S
C1746 H1754 0.930 . S
C1747 C1746 1.394 1_455 S
C1747 C1748 1.383 . S
C1747 H1755 0.929 . S
C1748 C1747 1.383 . S
C1748 C1749 1.377 1_455 S
C1749 H1733 0.930 . S
C1749 C1748 1.377 1_655 S
C1749 C1750 1.379 . S
C1750 H1734 0.931 . S
C1750 C1744 1.383 . S
C1750 C1749 1.379 . S
H1751 C1745 0.959 . S
H1752 C1745 0.961 . S
H1753 C1745 0.960 . S
H1754 C1746 0.930 . S
H1755 C1747 0.929 . S
H1756 C1764 0.929 . S
H1757 C1766 0.930 . S
H1758 C1768 0.930 . S
H1759 C1771 0.929 . S
H1760 C1774 0.930 . S
H1761 C1776 0.960 . S
H1762 C1776 0.960 . S
H1763 C1776 0.960 . S
C1764 H1756 0.929 . S
C1764 C1765 1.377 . S
C1764 C1766 1.384 1_545 S
C1765 C1764 1.377 . S
C1765 C1771 1.390 1_545 S
C1766 H1757 0.930 . S
C1766 C1764 1.384 1_565 S
C1766 C1767 1.372 . S
C1767 C1766 1.372 . S
C1767 C1768 1.400 . S
C1767 C1772 1.490 . S
C1768 H1758 0.930 . S
C1768 C1767 1.400 . S
C1768 C1771 1.386 . S
H1769 C1785 0.930 . S
H1770 C1786 0.931 . S
C1771 H1759 0.929 . S
C1771 C1765 1.390 1_565 S
C1771 C1768 1.386 . S
C1772 C1767 1.490 . S
C1772 C1774 1.395 . S
C1772 C1775 1.403 . S
H1773 C1779 0.930 . S
C1774 H1760 0.930 . S
C1774 C1772 1.395 . S
C1774 C1777 1.403 . S
C1775 C1772 1.403 . S
C1775 C1776 1.524 . S
C1775 C1779 1.400 . S
C1776 H1761 0.960 . S
C1776 H1762 0.960 . S
C1776 H1763 0.960 . S
C1776 C1775 1.524 . S
C1777 C1774 1.403 . S
C1777 C1778 1.392 . S
C1777 C1781 1.495 . S
C1778 C1777 1.392 . S
C1778 C1779 1.385 . S
C1778 C1780 1.478 . S
C1779 H1773 0.930 . S
C1779 C1775 1.400 . S
C1779 C1778 1.385 . S
C1780 C1778 1.478 . S
C1780 C1782 1.381 . S
C1780 C1786 1.383 . S
C1781 C1777 1.495 . S
C1781 H1787 0.959 . S
C1781 H1788 0.961 . S
C1781 H1789 0.960 . S
C1782 C1780 1.381 . S
C1782 C1783 1.394 1_655 S
C1782 H1790 0.930 . S
C1783 C1782 1.394 1_455 S
C1783 C1784 1.383 . S
C1783 H1791 0.929 . S
C1784 C1783 1.383 . S
C1784 C1785 1.377 1_455 S
C1785 H1769 0.930 . S
C1785 C1784 1.377 1_655 S
C1785 C1786 1.379 . S
C1786 H1770 0.931 . S
C1786 C1780 1.383 . S
C1786 C1785 1.379 . S
H1787 C1781 0.959 . S
H1788 C1781 0.961 . S
H1789 C1781 0.960 . S
H1790 C1782 0.930 . S
H1791 C1783 0.929 . S
H1792 C1800 0.929 . S
H1793 C1802 0.930 . S
H1794 C1804 0.930 . S
H1795 C1807 0.929 . S
H1796 C1810 0.930 . S
H1797 C1812 0.960 . S
H1798 C1812 0.960 . S
H1799 C1812 0.960 . S
C1800 H1792 0.929 . S
C1800 C1801 1.377 . S
C1800 C1802 1.384 . S
C1801 C1800 1.377 . S
C1801 C1807 1.390 . S
C1802 H1793 0.930 . S
C1802 C1800 1.384 . S
C1802 C1803 1.372 . S
C1803 C1802 1.372 . S
C1803 C1804 1.400 . S
C1803 C1808 1.490 . S
C1804 H1794 0.930 . S
C1804 C1803 1.400 . S
C1804 C1807 1.386 . S
H1805 C1821 0.930 . S
H1806 C1822 0.931 . S
C1807 H1795 0.929 . S
C1807 C1801 1.390 . S
C1807 C1804 1.386 . S
C1808 C1803 1.490 . S
C1808 C1810 1.395 . S
C1808 C1811 1.403 . S
H1809 C1815 0.930 . S
C1810 H1796 0.930 . S
C1810 C1808 1.395 . S
C1810 C1813 1.403 1_554 S
C1811 C1808 1.403 . S
C1811 C1812 1.524 . S
C1811 C1815 1.400 1_554 S
C1812 H1797 0.960 . S
C1812 H1798 0.960 . S
C1812 H1799 0.960 . S
C1812 C1811 1.524 . S
C1813 C1810 1.403 1_556 S
C1813 C1814 1.392 . S
C1813 C1817 1.495 . S
C1814 C1813 1.392 . S
C1814 C1815 1.385 . S
C1814 C1816 1.478 . S
C1815 H1809 0.930 . S
C1815 C1811 1.400 1_556 S
C1815 C1814 1.385 . S
C1816 C1814 1.478 . S
C1816 C1818 1.381 . S
C1816 C1822 1.383 . S
C1817 C1813 1.495 . S
C1817 H1823 0.959 . S
C1817 H1824 0.961 . S
C1817 H1825 0.960 . S
C1818 C1816 1.381 . S
C1818 C1819 1.394 . S
C1818 H1826 0.930 . S
C1819 C1818 1.394 . S
C1819 C1820 1.383 . S
C1819 H1827 0.929 . S
C1820 C1819 1.383 . S
C1820 C1821 1.377 . S
C1821 H1805 0.930 . S
C1821 C1820 1.377 . S
C1821 C1822 1.379 . S
C1822 H1806 0.931 . S
C1822 C1816 1.383 . S
C1822 C1821 1.379 . S
H1823 C1817 0.959 . S
H1824 C1817 0.961 . S
H1825 C1817 0.960 . S
H1826 C1818 0.930 . S
H1827 C1819 0.929 . S
H1828 C1836 0.929 . S
H1829 C1838 0.930 . S
H1830 C1840 0.930 . S
H1831 C1843 0.929 . S
H1832 C1846 0.930 . S
H1833 C1848 0.960 . S
H1834 C1848 0.960 . S
H1835 C1848 0.960 . S
C1836 H1828 0.929 . S
C1836 C1837 1.377 . S
C1836 C1838 1.384 . S
C1837 C1836 1.377 . S
C1837 C1843 1.390 . S
C1838 H1829 0.930 . S
C1838 C1836 1.384 . S
C1838 C1839 1.372 . S
C1839 C1838 1.372 . S
C1839 C1840 1.400 . S
C1839 C1844 1.490 . S
C1840 H1830 0.930 . S
C1840 C1839 1.400 . S
C1840 C1843 1.386 . S
H1841 C1857 0.930 . S
H1842 C1858 0.931 . S
C1843 H1831 0.929 . S
C1843 C1837 1.390 . S
C1843 C1840 1.386 . S
C1844 C1839 1.490 . S
C1844 C1846 1.395 . S
C1844 C1847 1.403 . S
H1845 C1851 0.930 . S
C1846 H1832 0.930 . S
C1846 C1844 1.395 . S
C1846 C1849 1.403 . S
C1847 C1844 1.403 . S
C1847 C1848 1.524 . S
C1847 C1851 1.400 . S
C1848 H1833 0.960 . S
C1848 H1834 0.960 . S
C1848 H1835 0.960 . S
C1848 C1847 1.524 . S
C1849 C1846 1.403 . S
C1849 C1850 1.392 . S
C1849 C1853 1.495 . S
C1850 C1849 1.392 . S
C1850 C1851 1.385 . S
C1850 C1852 1.478 . S
C1851 H1845 0.930 . S
C1851 C1847 1.400 . S
C1851 C1850 1.385 . S
C1852 C1850 1.478 . S
C1852 C1854 1.381 . S
C1852 C1858 1.383 . S
C1853 C1849 1.495 . S
C1853 H1859 0.959 . S
C1853 H1860 0.961 . S
C1853 H1861 0.960 . S
C1854 C1852 1.381 . S
C1854 C1855 1.394 . S
C1854 H1862 0.930 . S
C1855 C1854 1.394 . S
C1855 C1856 1.383 . S
C1855 H1863 0.929 . S
C1856 C1855 1.383 . S
C1856 C1857 1.377 . S
C1857 H1841 0.930 . S
C1857 C1856 1.377 . S
C1857 C1858 1.379 . S
C1858 H1842 0.931 . S
C1858 C1852 1.383 . S
C1858 C1857 1.379 . S
H1859 C1853 0.959 . S
H1860 C1853 0.961 . S
H1861 C1853 0.960 . S
H1862 C1854 0.930 . S
H1863 C1855 0.929 . S
H1864 C1872 0.929 . S
H1865 C1874 0.930 . S
H1866 C1876 0.930 . S
H1867 C1879 0.929 . S
H1868 C1882 0.930 . S
H1869 C1884 0.960 . S
H1870 C1884 0.960 . S
H1871 C1884 0.960 . S
C1872 H1864 0.929 . S
C1872 C1873 1.377 . S
C1872 C1874 1.384 . S
C1873 C1872 1.377 . S
C1873 C1879 1.390 . S
C1874 H1865 0.930 . S
C1874 C1872 1.384 . S
C1874 C1875 1.372 . S
C1875 C1874 1.372 . S
C1875 C1876 1.400 . S
C1875 C1880 1.490 . S
C1876 H1866 0.930 . S
C1876 C1875 1.400 . S
C1876 C1879 1.386 . S
H1877 C1893 0.970 . S
H1878 C1894 0.931 . S
C1879 H1867 0.929 . S
C1879 C1873 1.390 . S
C1879 C1876 1.386 . S
C1880 C1875 1.490 . S
C1880 C1882 1.395 1_554 S
C1880 C1883 1.403 . S
H1881 C1887 0.931 . S
C1882 H1868 0.930 . S
C1882 C1880 1.395 1_556 S
C1882 C1885 1.403 . S
C1883 C1880 1.403 . S
C1883 C1884 1.524 . S
C1883 C1887 1.407 . S
C1884 H1869 0.960 . S
C1884 H1870 0.960 . S
C1884 H1871 0.960 . S
C1884 C1883 1.524 . S
C1885 C1882 1.403 . S
C1885 C1886 1.392 . S
C1885 C1889 1.495 . S
C1886 C1885 1.392 . S
C1886 C1887 1.377 1_556 S
C1886 C1888 1.478 . S
C1887 H1881 0.931 . S
C1887 C1883 1.407 . S
C1887 C1886 1.377 1_554 S
C1888 C1886 1.478 . S
C1888 C1890 1.381 . S
C1888 C1894 1.383 . S
C1889 C1885 1.495 . S
C1889 H1895 0.959 . S
C1889 H1896 0.961 . S
C1889 H1897 0.960 . S
C1890 C1888 1.381 . S
C1890 C1891 1.394 . S
C1890 H1898 0.930 . S
C1891 C1890 1.394 . S
C1891 C1892 1.383 . S
C1891 H1899 0.929 . S
C1892 C1891 1.383 . S
C1892 C1893 1.377 . S
C1893 H1877 0.970 . S
C1893 C1892 1.377 . S
C1893 C1894 1.379 . S
C1894 H1878 0.931 . S
C1894 C1888 1.383 . S
C1894 C1893 1.379 . S
H1895 C1889 0.959 . S
H1896 C1889 0.961 . S
H1897 C1889 0.960 . S
H1898 C1890 0.930 . S
H1899 C1891 0.929 . S
H1900 C1908 0.929 1_545 S
H1901 C1910 0.930 1_545 S
H1902 C1912 0.930 . S
H1903 C1915 0.929 . S
H1904 C1918 0.930 . S
H1905 C1920 0.960 . S
H1906 C1920 0.960 . S
H1907 C1920 0.960 . S
C1908 H1900 0.929 1_565 S
C1908 C1909 1.377 . S
C1908 C1910 1.384 . S
C1909 C1908 1.377 . S
C1909 C1915 1.390 . S
C1910 H1901 0.930 1_565 S
C1910 C1908 1.384 . S
C1910 C1911 1.372 . S
C1911 C1910 1.372 . S
C1911 C1912 1.400 . S
C1911 C1916 1.490 . S
C1912 H1902 0.930 . S
C1912 C1911 1.400 . S
C1912 C1915 1.386 . S
H1913 C1929 0.930 . S
H1914 C1930 0.931 . S
C1915 H1903 0.929 . S
C1915 C1909 1.390 . S
C1915 C1912 1.386 . S
C1916 C1911 1.490 . S
C1916 C1918 1.395 . S
C1916 C1919 1.403 . S
H1917 C1923 0.930 . S
C1918 H1904 0.930 . S
C1918 C1916 1.395 . S
C1918 C1921 1.403 . S
C1919 C1916 1.403 . S
C1919 C1920 1.524 . S
C1919 C1923 1.400 . S
C1920 H1905 0.960 . S
C1920 H1906 0.960 . S
C1920 H1907 0.960 . S
C1920 C1919 1.524 . S
C1921 C1918 1.403 . S
C1921 C1922 1.392 . S
C1921 C1925 1.495 . S
C1922 C1921 1.392 . S
C1922 C1923 1.385 . S
C1922 C1924 1.478 . S
C1923 H1917 0.930 . S
C1923 C1919 1.400 . S
C1923 C1922 1.385 . S
C1924 C1922 1.478 . S
C1924 C1926 1.381 . S
C1924 C1930 1.383 . S
C1925 C1921 1.495 . S
C1925 H1931 0.959 . S
C1925 H1932 0.961 . S
C1925 H1933 0.960 1_565 S
C1926 C1924 1.381 . S
C1926 C1927 1.394 . S
C1926 H1934 0.930 1_565 S
C1927 C1926 1.394 . S
C1927 C1928 1.383 . S
C1927 H1935 0.929 1_565 S
C1928 C1927 1.383 . S
C1928 C1929 1.377 . S
C1929 H1913 0.930 . S
C1929 C1928 1.377 . S
C1929 C1930 1.379 . S
C1930 H1914 0.931 . S
C1930 C1924 1.383 . S
C1930 C1929 1.379 . S
H1931 C1925 0.959 . S
H1932 C1925 0.961 . S
H1933 C1925 0.960 1_545 S
H1934 C1926 0.930 1_545 S
H1935 C1927 0.929 1_545 S
H1936 C1944 0.929 . S
H1937 C1946 0.930 . S
H1938 C1948 0.930 . S
H1939 C1951 0.929 . S
H1940 C1954 0.930 . S
H1941 C1956 0.960 . S
H1942 C1956 0.960 . S
H1943 C1956 0.960 . S
C1944 H1936 0.929 . S
C1944 C1945 1.377 . S
C1944 C1946 1.384 . S
C1945 C1944 1.377 . S
C1945 C1951 1.390 . S
C1946 H1937 0.930 . S
C1946 C1944 1.384 . S
C1946 C1947 1.372 . S
C1947 C1946 1.372 . S
C1947 C1948 1.400 . S
C1947 C1952 1.490 . S
C1948 H1938 0.930 . S
C1948 C1947 1.400 . S
C1948 C1951 1.386 . S
H1949 C1965 0.930 . S
H1950 C1966 0.931 . S
C1951 H1939 0.929 . S
C1951 C1945 1.390 . S
C1951 C1948 1.386 . S
C1952 C1947 1.490 . S
C1952 C1954 1.395 . S
C1952 C1955 1.403 1_554 S
H1953 C1959 0.930 . S
C1954 H1940 0.930 . S
C1954 C1952 1.395 . S
C1954 C1957 1.403 . S
C1955 C1952 1.403 1_556 S
C1955 C1956 1.524 . S
C1955 C1959 1.400 . S
C1956 H1941 0.960 . S
C1956 H1942 0.960 . S
C1956 H1943 0.960 . S
C1956 C1955 1.524 . S
C1957 C1954 1.403 . S
C1957 C1958 1.392 1_554 S
C1957 C1961 1.495 . S
C1958 C1957 1.392 1_556 S
C1958 C1959 1.385 . S
C1958 C1960 1.478 . S
C1959 H1953 0.930 . S
C1959 C1955 1.400 . S
C1959 C1958 1.385 . S
C1960 C1958 1.478 . S
C1960 C1962 1.381 . S
C1960 C1966 1.383 . S
C1961 C1957 1.495 . S
C1961 H1967 0.959 . S
C1961 H1968 0.961 . S
C1961 H1969 0.960 . S
C1962 C1960 1.381 . S
C1962 C1963 1.394 . S
C1962 H1970 0.930 . S
C1963 C1962 1.394 . S
C1963 C1964 1.383 . S
C1963 H1971 0.929 . S
C1964 C1963 1.383 . S
C1964 C1965 1.377 . S
C1965 H1949 0.930 . S
C1965 C1964 1.377 . S
C1965 C1966 1.379 . S
C1966 H1950 0.931 . S
C1966 C1960 1.383 . S
C1966 C1965 1.379 . S
H1967 C1961 0.959 . S
H1968 C1961 0.961 . S
H1969 C1961 0.960 . S
H1970 C1962 0.930 . S
H1971 C1963 0.929 . S
H1972 C1980 0.929 . S
H1973 C1982 0.930 . S
H1974 C1984 0.930 . S
H1975 C1987 0.929 . S
H1976 C1990 0.930 . S
H1977 C1992 0.960 . S
H1978 C1992 0.960 . S
H1979 C1992 0.960 . S
C1980 H1972 0.929 . S
C1980 C1981 1.377 . S
C1980 C1982 1.384 . S
C1981 C1980 1.377 . S
C1981 C1987 1.390 . S
C1982 H1973 0.930 . S
C1982 C1980 1.384 . S
C1982 C1983 1.372 . S
C1983 C1982 1.372 . S
C1983 C1984 1.400 . S
C1983 C1988 1.490 . S
C1984 H1974 0.930 . S
C1984 C1983 1.400 . S
C1984 C1987 1.386 . S
H1985 C2001 0.930 . S
H1986 C2002 0.931 . S
C1987 H1975 0.929 . S
C1987 C1981 1.390 . S
C1987 C1984 1.386 . S
C1988 C1983 1.490 . S
C1988 C1990 1.395 . S
C1988 C1991 1.403 . S
H1989 C1995 0.930 . S
C1990 H1976 0.930 . S
C1990 C1988 1.395 . S
C1990 C1993 1.403 . S
C1991 C1988 1.403 . S
C1991 C1992 1.524 . S
C1991 C1995 1.400 . S
C1992 H1977 0.960 . S
C1992 H1978 0.960 . S
C1992 H1979 0.960 . S
C1992 C1991 1.524 . S
C1993 C1990 1.403 . S
C1993 C1994 1.392 . S
C1993 C1997 1.495 . S
C1994 C1993 1.392 . S
C1994 C1995 1.385 . S
C1994 C1996 1.478 . S
C1995 H1989 0.930 . S
C1995 C1991 1.400 . S
C1995 C1994 1.385 . S
C1996 C1994 1.478 . S
C1996 C1998 1.381 . S
C1996 C2002 1.383 . S
C1997 C1993 1.495 . S
C1997 H2003 0.959 . S
C1997 H2004 0.961 . S
C1997 H2005 0.960 . S
C1998 C1996 1.381 . S
C1998 C1999 1.394 . S
C1998 H2006 0.930 . S
C1999 C1998 1.394 . S
C1999 C2000 1.383 . S
C1999 H2007 0.929 . S
C2000 C1999 1.383 . S
C2000 C2001 1.377 . S
C2001 H1985 0.930 . S
C2001 C2000 1.377 . S
C2001 C2002 1.379 . S
C2002 H1986 0.931 . S
C2002 C1996 1.383 . S
C2002 C2001 1.379 . S
H2003 C1997 0.959 . S
H2004 C1997 0.961 . S
H2005 C1997 0.960 . S
H2006 C1998 0.930 . S
H2007 C1999 0.929 . S
H2008 C2016 0.929 . S
H2009 C2018 0.930 . S
H2010 C2020 0.930 . S
H2011 C2023 0.973 . S
H2012 C2026 0.930 . S
H2013 C2028 0.960 1_655 S
H2014 C2028 0.960 . S
H2015 C2028 0.960 1_656 S
C2016 H2008 0.929 . S
C2016 C2017 1.377 . S
C2016 C2018 1.384 . S
C2017 C2016 1.377 . S
C2017 C2023 1.390 . S
C2018 H2009 0.930 . S
C2018 C2016 1.384 . S
C2018 C2019 1.372 . S
C2019 C2018 1.372 . S
C2019 C2020 1.400 . S
C2019 C2024 1.490 . S
C2020 H2010 0.930 . S
C2020 C2019 1.400 . S
C2020 C2023 1.386 . S
H2021 C2037 0.930 . S
H2022 C2038 0.931 . S
C2023 H2011 0.973 . S
C2023 C2017 1.390 . S
C2023 C2020 1.386 . S
C2024 C2019 1.490 . S
C2024 C2026 1.395 . S
C2024 C2027 1.383 1_556 S
H2025 C2031 0.930 . S
C2026 H2012 0.930 . S
C2026 C2024 1.395 . S
C2026 C2029 1.403 . S
C2027 C2024 1.383 1_554 S
C2027 C2028 1.527 . S
C2027 C2031 1.418 . S
C2028 H2013 0.960 1_455 S
C2028 H2014 0.960 . S
C2028 H2015 0.960 1_454 S
C2028 C2027 1.527 . S
C2029 C2026 1.403 . S
C2029 C2030 1.392 1_556 S
C2029 C2033 1.495 . S
C2030 C2029 1.392 1_554 S
C2030 C2031 1.385 . S
C2030 C2032 1.478 . S
C2031 H2025 0.930 . S
C2031 C2027 1.418 . S
C2031 C2030 1.385 . S
C2032 C2030 1.478 . S
C2032 C2034 1.381 . S
C2032 C2038 1.383 . S
C2033 C2029 1.495 . S
C2033 H2039 0.959 . S
C2033 H2040 0.961 . S
C2033 H2041 0.960 1_556 S
C2034 C2032 1.381 . S
C2034 C2035 1.394 . S
C2034 H2042 0.930 . S
C2035 C2034 1.394 . S
C2035 C2036 1.383 . S
C2035 H2043 0.929 . S
C2036 C2035 1.383 . S
C2036 C2037 1.377 . S
C2037 H2021 0.930 . S
C2037 C2036 1.377 . S
C2037 C2038 1.379 . S
C2038 H2022 0.931 . S
C2038 C2032 1.383 . S
C2038 C2037 1.379 . S
H2039 C2033 0.959 . S
H2040 C2033 0.961 . S
H2041 C2033 0.960 1_554 S
H2042 C2034 0.930 . S
H2043 C2035 0.929 . S
H2044 C2052 0.929 . S
H2045 C2054 0.930 . S
H2046 C2056 0.930 . S
H2047 C2059 0.929 . S
H2048 C2062 0.930 . S
H2049 C2064 0.960 . S
H2050 C2064 0.960 . S
H2051 C2064 0.960 . S
C2052 H2044 0.929 . S
C2052 C2053 1.377 . S
C2052 C2054 1.384 . S
C2053 C2052 1.377 . S
C2053 C2059 1.390 . S
C2054 H2045 0.930 . S
C2054 C2052 1.384 . S
C2054 C2055 1.372 . S
C2055 C2054 1.372 . S
C2055 C2056 1.400 . S
C2055 C2060 1.490 . S
C2056 H2046 0.930 . S
C2056 C2055 1.400 . S
C2056 C2059 1.386 . S
H2057 C2073 0.930 . S
H2058 C2074 0.931 . S
C2059 H2047 0.929 . S
C2059 C2053 1.390 . S
C2059 C2056 1.386 . S
C2060 C2055 1.490 . S
C2060 C2062 1.395 . S
C2060 C2063 1.403 . S
H2061 C2067 0.930 . S
C2062 H2048 0.930 . S
C2062 C2060 1.395 . S
C2062 C2065 1.403 . S
C2063 C2060 1.403 . S
C2063 C2064 1.524 . S
C2063 C2067 1.400 . S
C2064 H2049 0.960 . S
C2064 H2050 0.960 . S
C2064 H2051 0.960 . S
C2064 C2063 1.524 . S
C2065 C2062 1.403 . S
C2065 C2066 1.392 . S
C2065 C2069 1.495 . S
C2066 C2065 1.392 . S
C2066 C2067 1.385 . S
C2066 C2068 1.478 . S
C2067 H2061 0.930 . S
C2067 C2063 1.400 . S
C2067 C2066 1.385 . S
C2068 C2066 1.478 . S
C2068 C2070 1.381 . S
C2068 C2074 1.383 . S
C2069 C2065 1.495 . S
C2069 H2075 0.959 . S
C2069 H2076 0.961 . S
C2069 H2077 0.960 . S
C2070 C2068 1.381 . S
C2070 C2071 1.394 . S
C2070 H2078 0.930 . S
C2071 C2070 1.394 . S
C2071 C2072 1.383 . S
C2071 H2079 0.929 . S
C2072 C2071 1.383 . S
C2072 C2073 1.377 . S
C2073 H2057 0.930 . S
C2073 C2072 1.377 . S
C2073 C2074 1.379 . S
C2074 H2058 0.931 . S
C2074 C2068 1.383 . S
C2074 C2073 1.379 . S
H2075 C2069 0.959 . S
H2076 C2069 0.961 . S
H2077 C2069 0.960 . S
H2078 C2070 0.930 . S
H2079 C2071 0.929 . S
C361 C21 1.297 . S
C380 C219 1.317 . S
C397 C43 1.293 . S
C416 C227 1.307 . S
C433 C249 1.309 . S
C452 C59 1.303 . S
C469 C197 1.310 . S
C488 C81 1.310 . S
C505 C95 1.293 . S
C524 C351 1.307 . S
C541 C285 1.310 . S
C560 C131 1.308 . S
C577 C307 1.307 . S
C596 C147 1.288 . S
C613 C323 1.310 . S
C632 C169 1.311 . S
C649 C37 1.300 . S
C668 C191 1.283 . S
C685 C213 1.285 . S
C704 C51 1.294 . S
C721 C73 1.300 . S
C740 C241 1.277 . S
C757 C15 1.295 . S
C776 C263 1.292 . S
C793 C161 1.300 . S
C812 C279 1.283 . S
C829 C109 1.295 . S
C848 C301 1.291 . S
C865 C315 1.289 . S
C884 C125 1.283 . S
C901 C139 1.300 . S
C920 C345 1.276 . S
C937 C10 1.239 . S
C956 C337 1.208 . S
C973 C32 1.236 . S
C992 C271 1.241 . S
C1009 C62 1.237 . S
C1028 C293 1.214 . S
C1045 C329 1.229 . S
C1064 C84 1.250 . S
C1081 C96 1.233 . S
C1100 C205 1.249 . S
C1117 C120 1.232 . S
C1136 C235 1.244 . S
C1153 C150 1.233 . S
C1172 C257 1.250 . S
C1189 C183 1.232 . S
C1208 C172 1.239 . S
C1225 C184 1.247 . S
C1244 C175 1.240 . S
C1261 C206 1.252 . S
C1280 C103 1.255 . S
C1297 C238 1.252 . S
C1316 C117 1.256 . S
C1333 C260 1.251 . S
C1352 C153 1.249 . S
C1369 C29 1.244 . S
C1388 C272 1.244 . S
C1405 C65 1.249 . S
C1424 C294 1.255 . S
C1441 C87 1.243 . S
C1460 C318 1.232 . S
C1477 C338 1.246 . S
C1496 C7 1.227 . S
C1513 C162 1.130 . S
C1532 C18 1.095 . S
C1549 C98 1.124 . S
C1568 C40 1.111 . S
C1585 C52 1.120 . S
C1604 C128 1.135 . S
C1621 C74 1.131 . S
C1640 C140 1.098 . S
C1657 C348 1.132 . S
C1676 C194 1.110 . S
C1693 C216 1.133 . S
C1712 C282 1.110 . S
C1729 C304 1.134 . S
C1748 C230 1.115 . S
C1765 C252 1.134 . S
C1784 C316 1.115 . S
C1801 C8 1.118 . S
C1820 C106 1.153 . S
C1837 C118 1.131 . S
C1856 C30 1.104 . S
C1873 C54 1.118 . S
C1892 C142 1.125 . S
C1909 C164 1.128 . S
C1928 C76 1.136 . S
C1945 C274 1.090 . S
C1964 C186 1.097 . S
C1981 C296 1.092 . S
C2000 C208 1.083 . S
C2017 C228 1.095 . S
C2036 C326 1.068 . S
C2053 C250 1.090 . S
C2072 C340 1.098 . S
