# Generated by pormake.
# Topology lcy-a, (4)-cn, num edge types: 1
# Building blocks:
#     Node 0, Type 0, BuildingBlock: QUQFOY_clean_sbu_1, # of connection points: 4
#     Node 1, Type 0, BuildingBlock: QUQFOY_clean_sbu_1, # of connection points: 4
#     Node 2, Type 0, BuildingBlock: QUQFOY_clean_sbu_1, # of connection points: 4
#     Node 3, Type 0, BuildingBlock: QUQFOY_clean_sbu_1, # of connection points: 4
#     Node 4, Type 0, BuildingBlock: QUQFOY_clean_sbu_1, # of connection points: 4
#     Node 5, Type 0, BuildingBlock: QUQFOY_clean_sbu_1, # of connection points: 4
#     Node 6, Type 0, BuildingBlock: QUQFOY_clean_sbu_1, # of connection points: 4
#     Node 7, Type 0, BuildingBlock: QUQFOY_clean_sbu_1, # of connection points: 4
#     Node 8, Type 0, BuildingBlock: QUQFOY_clean_sbu_1, # of connection points: 4
#     Node 9, Type 0, BuildingBlock: QUQFOY_clean_sbu_1, # of connection points: 4
#     Node 10, Type 0, BuildingBlock: QUQFOY_clean_sbu_1, # of connection points: 4
#     Node 11, Type 0, BuildingBlock: QUQFOY_clean_sbu_1, # of connection points: 4
#     Node 12, Type 0, BuildingBlock: QUQFOY_clean_sbu_1, # of connection points: 4
#     Node 13, Type 0, BuildingBlock: QUQFOY_clean_sbu_1, # of connection points: 4
#     Node 14, Type 0, BuildingBlock: QUQFOY_clean_sbu_1, # of connection points: 4
#     Node 15, Type 0, BuildingBlock: QUQFOY_clean_sbu_1, # of connection points: 4
#     Node 16, Type 0, BuildingBlock: QUQFOY_clean_sbu_1, # of connection points: 4
#     Node 17, Type 0, BuildingBlock: QUQFOY_clean_sbu_1, # of connection points: 4
#     Node 18, Type 0, BuildingBlock: QUQFOY_clean_sbu_1, # of connection points: 4
#     Node 19, Type 0, BuildingBlock: QUQFOY_clean_sbu_1, # of connection points: 4
#     Node 20, Type 0, BuildingBlock: QUQFOY_clean_sbu_1, # of connection points: 4
#     Node 21, Type 0, BuildingBlock: QUQFOY_clean_sbu_1, # of connection points: 4
#     Node 22, Type 0, BuildingBlock: QUQFOY_clean_sbu_1, # of connection points: 4
#     Node 23, Type 0, BuildingBlock: QUQFOY_clean_sbu_1, # of connection points: 4
#     Edge 24, Type (0, 0), BuildingBlock: XIVTED_clean_linker_0, # of connection points: 2
#     Edge 25, Type (0, 0), BuildingBlock: XIVTED_clean_linker_0, # of connection points: 2
#     Edge 26, Type (0, 0), BuildingBlock: XIVTED_clean_linker_0, # of connection points: 2
#     Edge 27, Type (0, 0), BuildingBlock: XIVTED_clean_linker_0, # of connection points: 2
#     Edge 28, Type (0, 0), BuildingBlock: XIVTED_clean_linker_0, # of connection points: 2
#     Edge 29, Type (0, 0), BuildingBlock: XIVTED_clean_linker_0, # of connection points: 2
#     Edge 30, Type (0, 0), BuildingBlock: XIVTED_clean_linker_0, # of connection points: 2
#     Edge 31, Type (0, 0), BuildingBlock: XIVTED_clean_linker_0, # of connection points: 2
#     Edge 32, Type (0, 0), BuildingBlock: XIVTED_clean_linker_0, # of connection points: 2
#     Edge 33, Type (0, 0), BuildingBlock: XIVTED_clean_linker_0, # of connection points: 2
#     Edge 34, Type (0, 0), BuildingBlock: XIVTED_clean_linker_0, # of connection points: 2
#     Edge 35, Type (0, 0), BuildingBlock: XIVTED_clean_linker_0, # of connection points: 2
#     Edge 36, Type (0, 0), BuildingBlock: XIVTED_clean_linker_0, # of connection points: 2
#     Edge 37, Type (0, 0), BuildingBlock: XIVTED_clean_linker_0, # of connection points: 2
#     Edge 38, Type (0, 0), BuildingBlock: XIVTED_clean_linker_0, # of connection points: 2
#     Edge 39, Type (0, 0), BuildingBlock: XIVTED_clean_linker_0, # of connection points: 2
#     Edge 40, Type (0, 0), BuildingBlock: XIVTED_clean_linker_0, # of connection points: 2
#     Edge 41, Type (0, 0), BuildingBlock: XIVTED_clean_linker_0, # of connection points: 2
#     Edge 42, Type (0, 0), BuildingBlock: XIVTED_clean_linker_0, # of connection points: 2
#     Edge 43, Type (0, 0), BuildingBlock: XIVTED_clean_linker_0, # of connection points: 2
#     Edge 44, Type (0, 0), BuildingBlock: XIVTED_clean_linker_0, # of connection points: 2
#     Edge 45, Type (0, 0), BuildingBlock: XIVTED_clean_linker_0, # of connection points: 2
#     Edge 46, Type (0, 0), BuildingBlock: XIVTED_clean_linker_0, # of connection points: 2
#     Edge 47, Type (0, 0), BuildingBlock: XIVTED_clean_linker_0, # of connection points: 2
#     Edge 48, Type (0, 0), BuildingBlock: XIVTED_clean_linker_0, # of connection points: 2
#     Edge 49, Type (0, 0), BuildingBlock: XIVTED_clean_linker_0, # of connection points: 2
#     Edge 50, Type (0, 0), BuildingBlock: XIVTED_clean_linker_0, # of connection points: 2
#     Edge 51, Type (0, 0), BuildingBlock: XIVTED_clean_linker_0, # of connection points: 2
#     Edge 52, Type (0, 0), BuildingBlock: XIVTED_clean_linker_0, # of connection points: 2
#     Edge 53, Type (0, 0), BuildingBlock: XIVTED_clean_linker_0, # of connection points: 2
#     Edge 54, Type (0, 0), BuildingBlock: XIVTED_clean_linker_0, # of connection points: 2
#     Edge 55, Type (0, 0), BuildingBlock: XIVTED_clean_linker_0, # of connection points: 2
#     Edge 56, Type (0, 0), BuildingBlock: XIVTED_clean_linker_0, # of connection points: 2
#     Edge 57, Type (0, 0), BuildingBlock: XIVTED_clean_linker_0, # of connection points: 2
#     Edge 58, Type (0, 0), BuildingBlock: XIVTED_clean_linker_0, # of connection points: 2
#     Edge 59, Type (0, 0), BuildingBlock: XIVTED_clean_linker_0, # of connection points: 2
#     Edge 60, Type (0, 0), BuildingBlock: XIVTED_clean_linker_0, # of connection points: 2
#     Edge 61, Type (0, 0), BuildingBlock: XIVTED_clean_linker_0, # of connection points: 2
#     Edge 62, Type (0, 0), BuildingBlock: XIVTED_clean_linker_0, # of connection points: 2
#     Edge 63, Type (0, 0), BuildingBlock: XIVTED_clean_linker_0, # of connection points: 2
#     Edge 64, Type (0, 0), BuildingBlock: XIVTED_clean_linker_0, # of connection points: 2
#     Edge 65, Type (0, 0), BuildingBlock: XIVTED_clean_linker_0, # of connection points: 2
#     Edge 66, Type (0, 0), BuildingBlock: XIVTED_clean_linker_0, # of connection points: 2
#     Edge 67, Type (0, 0), BuildingBlock: XIVTED_clean_linker_0, # of connection points: 2
#     Edge 68, Type (0, 0), BuildingBlock: XIVTED_clean_linker_0, # of connection points: 2
#     Edge 69, Type (0, 0), BuildingBlock: XIVTED_clean_linker_0, # of connection points: 2
#     Edge 70, Type (0, 0), BuildingBlock: XIVTED_clean_linker_0, # of connection points: 2
#     Edge 71, Type (0, 0), BuildingBlock: XIVTED_clean_linker_0, # of connection points: 2
# Relax obj value: 0.381
# Max RMSD: 0.177
# Mean RMSD: 0.177
data_MOF--net-lcy-a--node1-QUQFOY_clean_sbu_1--edge1-XIVTED_clean_linker_0
_symmetry_space_group_name_H-M    P1
_symmetry_Int_Tables_number       1
_symmetry_cell_setting            triclinic
loop_
_symmetry_equiv_pos_as_xyz
'x, y, z'
_cell_length_a     59.709758
_cell_length_b     59.700781
_cell_length_c     59.677702
_cell_angle_alpha  89.97151
_cell_angle_beta   89.976609
_cell_angle_gamma 90.005016
loop_
_atom_site_label
_atom_site_type_symbol
_atom_site_fract_x
_atom_site_fract_y
_atom_site_fract_z
_atom_type_partial_charge
O0 O 0.2008 0.24902 0.36077 0.0
Cd1 Cd 0.17607 0.27103 0.3695 0.0
Cd2 Cd 0.20921 0.29664 0.38782 0.0
O3 O 0.22522 0.26626 0.38232 0.0
O4 O 0.14947 0.25334 0.37757 0.0
O5 O 0.16931 0.27317 0.40213 0.0
C6 C 0.1534 0.25901 0.39811 0.0
C7 C 0.22849 0.3184 0.41442 0.0
C8 C 0.21993 0.24978 0.36991 0.0
C9 C 0.1823 0.31339 0.34673 0.0
O10 O 0.19815 0.31562 0.3608 0.0
O11 O 0.16961 0.29637 0.34743 0.0
O12 O 0.23646 0.31421 0.3949 0.0
O13 O 0.20904 0.31033 0.41922 0.0
O14 O 0.99097 0.9569 0.62123 0.0
Cd15 Cd 0.97136 0.92942 0.62711 0.0
Cd16 Cd 0.94158 0.95908 0.64558 0.0
O17 O 0.96994 0.97888 0.64208 0.0
O18 O 0.99169 0.9043 0.63334 0.0
O19 O 0.96913 0.91937 0.6589 0.0
C20 C 0.98503 0.9055 0.65392 0.0
C21 C 0.91536 0.97442 0.67056 0.0
C22 C 0.98761 0.97564 0.63065 0.0
C23 C 0.92972 0.93223 0.60269 0.0
O24 O 0.9253 0.94688 0.61748 0.0
O25 O 0.94807 0.92157 0.60329 0.0
O26 O 0.9199 0.9834 0.65157 0.0
O27 O 0.92618 0.95655 0.67604 0.0
O28 O 0.2933 0.74283 0.8687 0.0
Cd29 Cd 0.31762 0.72 0.87673 0.0
Cd30 Cd 0.28464 0.69687 0.89778 0.0
O31 O 0.27015 0.72809 0.8933 0.0
O32 O 0.34549 0.73666 0.88233 0.0
O33 O 0.32628 0.71895 0.90894 0.0
C34 C 0.34255 0.73215 0.90332 0.0
C35 C 0.26593 0.6762 0.92557 0.0
C36 C 0.27511 0.74365 0.87963 0.0
C37 C 0.30745 0.67777 0.8554 0.0
O38 O 0.29209 0.67716 0.87016 0.0
O39 O 0.32164 0.69358 0.85535 0.0
O40 O 0.25681 0.6813 0.9068 0.0
O41 O 0.28621 0.68281 0.92896 0.0
O42 O 0.49848 0.04203 0.12544 0.0
Cd43 Cd 0.52337 0.06458 0.13275 0.0
Cd44 Cd 0.54556 0.02985 0.15108 0.0
O45 O 0.51384 0.01625 0.147 0.0
O46 O 0.51141 0.09375 0.14355 0.0
O47 O 0.52825 0.06862 0.16527 0.0
C48 C 0.51766 0.08736 0.1633 0.0
C49 C 0.56578 0.01877 0.18279 0.0
C50 C 0.49767 0.02294 0.13482 0.0
C51 C 0.56431 0.05173 0.10887 0.0
O52 O 0.56488 0.03563 0.12285 0.0
O53 O 0.54935 0.06678 0.11035 0.0
O54 O 0.56128 0.00495 0.16689 0.0
O55 O 0.55868 0.03907 0.18098 0.0
O56 O 0.70289 0.24346 0.63034 0.0
Cd57 Cd 0.67646 0.22295 0.62317 0.0
Cd58 Cd 0.70773 0.19377 0.60665 0.0
O59 O 0.72655 0.22271 0.61111 0.0
O60 O 0.6512 0.24255 0.61531 0.0
O61 O 0.6683 0.22021 0.59087 0.0
C62 C 0.65382 0.23584 0.59489 0.0
C63 C 0.72443 0.16874 0.58121 0.0
C64 C 0.72219 0.24047 0.62203 0.0
C65 C 0.67908 0.1815 0.64823 0.0
O66 O 0.69455 0.17713 0.63424 0.0
O67 O 0.66812 0.19963 0.64683 0.0
O68 O 0.73267 0.17269 0.60066 0.0
O69 O 0.70637 0.17922 0.57569 0.0
O70 O 0.00384 0.44989 0.88064 0.0
Cd71 Cd 0.02569 0.42433 0.87396 0.0
Cd72 Cd 0.05192 0.45561 0.85325 0.0
O73 O 0.02169 0.47216 0.85732 0.0
O74 O 0.00803 0.39717 0.86808 0.0
O75 O 0.0277 0.41509 0.84196 0.0
C76 C 0.01364 0.39946 0.84727 0.0
C77 C 0.07354 0.47409 0.82601 0.0
C78 C 0.00501 0.4682 0.86994 0.0
C79 C 0.06817 0.43175 0.8963 0.0
O80 O 0.07068 0.44646 0.88108 0.0
O81 O 0.05099 0.41926 0.89643 0.0
O82 O 0.06926 0.48266 0.84523 0.0
O83 O 0.06592 0.45429 0.82198 0.0
O84 O 0.79274 0.75107 0.12834 0.0
Cd85 Cd 0.819 0.7721 0.12167 0.0
Cd86 Cd 0.78842 0.79869 0.09972 0.0
O87 O 0.77161 0.76853 0.10371 0.0
O88 O 0.84552 0.75364 0.1153 0.0
O89 O 0.82789 0.7741 0.08958 0.0
C90 C 0.8431 0.75948 0.09456 0.0
C91 C 0.76979 0.82124 0.0734 0.0
C92 C 0.77489 0.75215 0.1169 0.0
C93 C 0.81283 0.81526 0.14261 0.0
O94 O 0.79837 0.81758 0.12714 0.0
O95 O 0.82473 0.7977 0.14362 0.0
O96 O 0.76148 0.81654 0.09264 0.0
O97 O 0.78926 0.81317 0.06867 0.0
O98 O 0.49338 0.54051 0.37395 0.0
Cd99 Cd 0.47206 0.56655 0.3674 0.0
Cd100 Cd 0.44524 0.53509 0.34766 0.0
O101 O 0.47502 0.51767 0.35158 0.0
O102 O 0.49043 0.59306 0.36066 0.0
O103 O 0.46945 0.5755 0.33534 0.0
C104 C 0.48418 0.5907 0.34005 0.0
C105 C 0.42095 0.51763 0.3221 0.0
C106 C 0.49186 0.52185 0.36392 0.0
C107 C 0.43011 0.56026 0.39057 0.0
O108 O 0.42743 0.54535 0.37561 0.0
O109 O 0.44741 0.57258 0.39042 0.0
O110 O 0.4261 0.5089 0.34104 0.0
O111 O 0.43002 0.53657 0.31702 0.0
O112 O 0.37469 0.2056 0.24363 0.0
Cd113 Cd 0.38146 0.18123 0.26697 0.0
Cd114 Cd 0.39666 0.21447 0.2937 0.0
O115 O 0.39329 0.23078 0.26324 0.0
O116 O 0.39465 0.15398 0.25349 0.0
O117 O 0.41379 0.17834 0.27428 0.0
C118 C 0.41348 0.16054 0.26197 0.0
C119 C 0.42194 0.23135 0.31858 0.0
C120 C 0.38286 0.22515 0.24553 0.0
C121 C 0.35466 0.18764 0.30703 0.0
O122 O 0.36829 0.20364 0.31032 0.0
O123 O 0.35704 0.17483 0.29026 0.0
O124 O 0.40326 0.2405 0.31312 0.0
O125 O 0.42693 0.21245 0.30939 0.0
O126 O 0.0398 0.12133 0.50121 0.0
Cd127 Cd 0.06508 0.12878 0.52324 0.0
Cd128 Cd 0.0343 0.15144 0.54695 0.0
O129 O 0.01819 0.14684 0.5166 0.0
O130 O 0.0928 0.13336 0.50596 0.0
O131 O 0.07481 0.16067 0.52384 0.0
C132 C 0.0907 0.15445 0.51046 0.0
C133 C 0.01873 0.18178 0.56634 0.0
C134 C 0.02194 0.13281 0.50106 0.0
C135 C 0.05512 0.1085 0.56628 0.0
O136 O 0.04044 0.1239 0.56724 0.0
O137 O 0.06883 0.10778 0.55004 0.0
O138 O 0.00782 0.16367 0.56261 0.0
O139 O 0.03919 0.18288 0.55952 0.0
O140 O 0.12476 0.78938 0.75274 0.0
Cd141 Cd 0.11832 0.81493 0.77464 0.0
Cd142 Cd 0.10054 0.78241 0.8019 0.0
O143 O 0.10445 0.76525 0.77189 0.0
O144 O 0.11286 0.84185 0.75648 0.0
O145 O 0.08653 0.82503 0.77676 0.0
C146 C 0.0921 0.84029 0.76239 0.0
C147 C 0.07514 0.76483 0.82636 0.0
C148 C 0.11577 0.77023 0.75453 0.0
C149 C 0.1429 0.80881 0.81604 0.0
O150 O 0.12852 0.79344 0.81929 0.0
O151 O 0.14184 0.82103 0.7987 0.0
O152 O 0.09417 0.75625 0.82129 0.0
O153 O 0.06992 0.78367 0.81717 0.0
O154 O 0.45204 0.88284 0.99768 0.0
Cd155 Cd 0.42577 0.8755 0.01845 0.0
Cd156 Cd 0.45664 0.85554 0.04572 0.0
O157 O 0.47449 0.86021 0.01622 0.0
O158 O 0.39977 0.86786 -0.0003 0.0
O159 O 0.41796 0.84315 0.0209 0.0
C160 C 0.40279 0.84734 0.00598 0.0
C161 C 0.47389 0.82908 0.06924 0.0
C162 C 0.47064 0.87276 -0.00056 0.0
C163 C 0.43051 0.89777 0.06114 0.0
O164 O 0.44545 0.88288 0.06406 0.0
O165 O 0.41885 0.89792 0.04338 0.0
O166 O 0.48242 0.84839 0.06525 0.0
O167 O 0.45516 0.82426 0.05962 0.0
O168 O 0.87323 0.28557 0.74342 0.0
Cd169 Cd 0.87955 0.3129 0.72367 0.0
Cd170 Cd 0.89913 0.28355 0.69558 0.0
O171 O 0.89524 0.26353 0.72369 0.0
O172 O 0.8854 0.33829 0.7438 0.0
O173 O 0.91137 0.32283 0.72199 0.0
C174 C 0.90611 0.33689 0.73763 0.0
C175 C 0.92627 0.27069 0.67027 0.0
C176 C 0.88294 0.26687 0.74076 0.0
C177 C 0.85582 0.30843 0.68188 0.0
O178 O 0.87082 0.29376 0.67836 0.0
O179 O 0.85625 0.32011 0.69961 0.0
O180 O 0.90786 0.26019 0.67381 0.0
O181 O 0.93004 0.28857 0.68177 0.0
O182 O 0.9548 0.6157 -0.00183 0.0
Cd183 Cd 0.93081 0.62397 0.97509 0.0
Cd184 Cd 0.96437 0.64316 0.95121 0.0
O185 O 0.97911 0.63843 0.98233 0.0
O186 O 0.90297 0.63044 0.99147 0.0
O187 O 0.92274 0.6563 0.9733 0.0
C188 C 0.90621 0.65125 0.9864 0.0
C189 C 0.98328 0.67057 0.93017 0.0
C190 C 0.97357 0.6256 -0.00159 0.0
C191 C 0.93989 0.60133 0.93319 0.0
O192 O 0.9557 0.61557 0.93191 0.0
O193 O 0.92604 0.60208 0.94928 0.0
O194 O 0.99212 0.65161 0.93509 0.0
O195 O 0.96317 0.67433 0.9371 0.0
O196 O 0.6224 0.7061 0.23629 0.0
Cd197 Cd 0.61504 0.68017 0.2151 0.0
Cd198 Cd 0.59652 0.71199 0.1877 0.0
O199 O 0.60099 0.72936 0.21738 0.0
O200 O 0.61012 0.65364 0.23401 0.0
O201 O 0.58318 0.67014 0.21428 0.0
C202 C 0.58916 0.65519 0.22882 0.0
C203 C 0.57051 0.73093 0.16495 0.0
C204 C 0.61305 0.72506 0.23437 0.0
C205 C 0.63894 0.68618 0.17311 0.0
O206 O 0.62449 0.70151 0.16991 0.0
O207 O 0.63783 0.67383 0.19037 0.0
O208 O 0.59 0.73879 0.16933 0.0
O209 O 0.56548 0.71159 0.17314 0.0
O210 O 0.54247 0.37491 0.49343 0.0
Cd211 Cd 0.56727 0.36754 0.47088 0.0
Cd212 Cd 0.53488 0.34672 0.44636 0.0
O213 O 0.51951 0.35111 0.4772 0.0
O214 O 0.59504 0.36207 0.48774 0.0
O215 O 0.57646 0.33549 0.46941 0.0
C216 C 0.59259 0.34113 0.48274 0.0
C217 C 0.51614 0.31944 0.42509 0.0
C218 C 0.52412 0.36423 0.49331 0.0
C219 C 0.55827 0.3893 0.42844 0.0
O220 O 0.54317 0.37435 0.42696 0.0
O221 O 0.57164 0.38944 0.44493 0.0
O222 O 0.50726 0.33833 0.43014 0.0
O223 O 0.53623 0.31565 0.43203 0.0
O224 O 0.24711 0.37343 0.19741 0.0
Cd225 Cd 0.27209 0.38128 0.17503 0.0
Cd226 Cd 0.296 0.39742 0.21047 0.0
O227 O 0.26447 0.39231 0.22398 0.0
O228 O 0.26058 0.39533 0.14717 0.0
O229 O 0.27885 0.41383 0.17387 0.0
C230 C 0.26796 0.41407 0.15518 0.0
C231 C 0.31681 0.42438 0.22997 0.0
C232 C 0.24746 0.3815 0.21709 0.0
C233 C 0.31329 0.3566 0.18421 0.0
O234 O 0.31509 0.37034 0.20039 0.0
O235 O 0.29701 0.35802 0.17062 0.0
O236 O 0.31191 0.40523 0.23848 0.0
O237 O 0.30992 0.42857 0.20993 0.0
O238 O 0.74474 0.1215 0.79597 0.0
Cd239 Cd 0.77073 0.11266 0.81679 0.0
Cd240 Cd 0.79081 0.09452 0.78014 0.0
O241 O 0.75852 0.10038 0.76897 0.0
O242 O 0.76045 0.09978 0.84573 0.0
O243 O 0.77582 0.07985 0.81824 0.0
C244 C 0.76627 0.08053 0.83765 0.0
C245 C 0.8093 0.06565 0.76108 0.0
C246 C 0.7429 0.11262 0.77672 0.0
C247 C 0.81208 0.13509 0.8035 0.0
O248 O 0.81159 0.12123 0.78734 0.0
O249 O 0.79727 0.1344 0.81875 0.0
O250 O 0.80417 0.08425 0.75155 0.0
O251 O 0.80383 0.06307 0.78183 0.0
O252 O 0.1258 0.49799 0.0462 0.0
Cd253 Cd 0.13203 0.52168 0.0703 0.0
Cd254 Cd 0.1473 0.54866 0.03666 0.0
O255 O 0.14365 0.51801 0.02075 0.0
O256 O 0.1458 0.50878 0.09761 0.0
O257 O 0.16422 0.52975 0.07284 0.0
C258 C 0.1644 0.51753 0.09072 0.0
C259 C 0.1722 0.57309 0.01855 0.0
C260 C 0.13376 0.50005 0.02657 0.0
C261 C 0.10548 0.56199 0.06397 0.0
O262 O 0.11943 0.56561 0.0483 0.0
O263 O 0.10729 0.54473 0.07624 0.0
O264 O 0.15316 0.5677 0.01014 0.0
O265 O 0.1777 0.56419 0.03746 0.0
O266 O 0.74175 0.87821 0.28498 0.0
Cd267 Cd 0.71809 0.88485 0.30904 0.0
Cd268 Cd 0.6962 0.90447 0.27664 0.0
O269 O 0.72714 0.9022 0.26116 0.0
O270 O 0.73416 0.88919 0.33756 0.0
O271 O 0.71624 0.91642 0.31956 0.0
C272 C 0.72916 0.91019 0.3358 0.0
C273 C 0.67465 0.93621 0.26948 0.0
C274 C 0.74285 0.88893 0.26665 0.0
C275 C 0.67779 0.86109 0.29612 0.0
O276 O 0.67763 0.87538 0.2803 0.0
O277 O 0.69215 0.86259 0.31172 0.0
O278 O 0.67874 0.92168 0.25412 0.0
O279 O 0.6831 0.93314 0.28912 0.0
O280 O 0.37289 0.49025 0.53798 0.0
Cd281 Cd 0.36574 0.46821 0.56322 0.0
Cd282 Cd 0.34797 0.44163 0.53007 0.0
O283 O 0.35205 0.47203 0.51362 0.0
O284 O 0.36032 0.48632 0.5902 0.0
O285 O 0.33381 0.46664 0.57299 0.0
C286 C 0.33946 0.48086 0.58835 0.0
C287 C 0.32248 0.41791 0.51161 0.0
C288 C 0.36375 0.48904 0.51885 0.0
C289 C 0.39001 0.42672 0.5566 0.0
O290 O 0.37586 0.42393 0.54093 0.0
O291 O 0.38881 0.4437 0.56928 0.0
O292 O 0.34166 0.42299 0.50335 0.0
O293 O 0.31724 0.42653 0.53072 0.0
O294 O 0.24097 0.62218 0.70541 0.0
Cd295 Cd 0.22003 0.61593 0.679 0.0
Cd296 Cd 0.19256 0.59599 0.70977 0.0
O297 O 0.22184 0.60016 0.72799 0.0
O298 O 0.23888 0.60995 0.65266 0.0
O299 O 0.21779 0.58408 0.66929 0.0
C300 C 0.23272 0.58925 0.65443 0.0
C301 C 0.16843 0.56989 0.72671 0.0
C302 C 0.23891 0.61228 0.7241 0.0
C303 C 0.17789 0.63905 0.68469 0.0
O304 O 0.17471 0.62386 0.69928 0.0
O305 O 0.19555 0.63907 0.67289 0.0
O306 O 0.17275 0.58905 0.73539 0.0
O307 O 0.17813 0.56494 0.70805 0.0
O308 O 0.62546 0.99657 0.95498 0.0
Cd309 Cd 0.63185 0.97391 0.92991 0.0
Cd310 Cd 0.64816 0.94593 0.96203 0.0
O311 O 0.64408 0.97578 0.97917 0.0
O312 O 0.64458 0.98796 0.90268 0.0
O313 O 0.66414 0.96666 0.92627 0.0
C314 C 0.66352 0.97933 0.90872 0.0
C315 C 0.67343 0.92171 0.9799 0.0
C316 C 0.63371 0.99375 0.97438 0.0
C317 C 0.6059 0.93299 0.93545 0.0
O318 O 0.62022 0.92896 0.95066 0.0
O319 O 0.60743 0.95061 0.92366 0.0
O320 O 0.65422 0.92657 0.9882 0.0
O321 O 0.67881 0.93081 0.96105 0.0
O322 O 0.87311 0.00112 0.45508 0.0
Cd323 Cd 0.86467 0.02458 0.43156 0.0
Cd324 Cd 0.84675 0.04838 0.4661 0.0
O325 O 0.85162 0.01707 0.48042 0.0
O326 O 0.85829 0.00827 0.40368 0.0
O327 O 0.83235 0.02635 0.42339 0.0
C328 C 0.83747 0.01327 0.40688 0.0
C329 C 0.81971 0.06924 0.48573 0.0
C330 C 0.86389 0.00082 0.4742 0.0
C331 C 0.88806 0.06619 0.44053 0.0
O332 O 0.87424 0.06756 0.4567 0.0
O333 O 0.8868 0.05017 0.42664 0.0
O334 O 0.83889 0.06438 0.49411 0.0
O335 O 0.81555 0.06242 0.46565 0.0
H336 H 0.11926 0.14659 0.47588 0.0
H337 H 0.15296 0.26929 0.44313 0.0
H338 H 0.09178 0.20024 0.51593 0.0
H339 H 0.12912 0.22076 0.39507 0.0
H340 H 0.13933 0.24488 0.4736 0.0
H341 H 0.13444 0.17427 0.44999 0.0
C342 C 0.11682 0.16419 0.47954 0.0
C343 C 0.10395 0.17112 0.49793 0.0
C344 C 0.13696 0.23989 0.45632 0.0
C345 C 0.12131 0.20273 0.46833 0.0
C346 C 0.1446 0.25374 0.43899 0.0
C347 C 0.14218 0.247 0.41656 0.0
C348 C 0.12755 0.21905 0.45099 0.0
C349 C 0.13132 0.22667 0.41208 0.0
C350 C 0.12534 0.17992 0.46465 0.0
C351 C 0.10144 0.19422 0.50181 0.0
N352 N 0.12475 0.21324 0.42915 0.0
N353 N 0.10995 0.20933 0.48698 0.0
H354 H 0.97462 0.90119 0.69874 0.0
H355 H 0.09892 0.87028 0.72883 0.0
H356 H 0.02448 0.88348 0.64936 0.0
H357 H 0.04632 0.84008 0.76837 0.0
H358 H 0.0707 0.88583 0.70388 0.0
H359 H -0.00039 0.88667 0.72827 0.0
C360 C 0.9906 0.89398 0.69409 0.0
C361 C -0.00245 0.89362 0.67158 0.0
C362 C 0.06537 0.87601 0.7182 0.0
C363 C 0.0261 0.87794 0.70502 0.0
C364 C 0.08142 0.86726 0.73256 0.0
C365 C 0.07497 0.85355 0.75052 0.0
C366 C 0.0427 0.87132 0.72194 0.0
C367 C 0.05198 0.8504 0.75457 0.0
C368 C 0.00478 0.88583 0.71089 0.0
C369 C 0.01842 0.88416 0.66644 0.0
N370 N 0.03654 0.85912 0.74022 0.0
N371 N 0.03209 0.87704 0.68307 0.0
H372 H 0.34187 0.72679 0.94919 0.0
H373 H 0.37846 0.85051 0.96771 0.0
H374 H 0.37116 0.76685 0.89646 0.0
H375 H 0.40182 0.80239 0.01649 0.0
H376 H 0.36565 0.81979 0.94415 0.0
H377 H 0.35649 0.75367 0.97688 0.0
C378 C 0.35173 0.74091 0.94347 0.0
C379 C 0.35512 0.74473 0.92047 0.0
C380 C 0.3734 0.81602 0.96013 0.0
C381 C 0.37101 0.77548 0.95175 0.0
C382 C 0.38052 0.8335 0.9737 0.0
C383 C 0.3914 0.82899 0.99402 0.0
C384 C 0.37679 0.79386 0.96705 0.0
C385 C 0.39361 0.80655 0.00086 0.0
C386 C 0.35994 0.75618 0.95924 0.0
C387 C 0.36798 0.76328 0.91397 0.0
N388 N 0.38635 0.78967 0.98733 0.0
N389 N 0.37505 0.77822 0.9295 0.0
H390 H 0.51001 0.07014 0.20477 0.0
H391 H 0.45359 0.18033 0.25368 0.0
H392 H 0.50749 0.13187 0.16718 0.0
H393 H 0.42048 0.11612 0.25418 0.0
H394 H 0.48559 0.16318 0.23426 0.0
H395 H 0.48948 0.08837 0.2353 0.0
C396 C 0.50578 0.08772 0.20324 0.0
C397 C 0.51014 0.09952 0.18336 0.0
C398 C 0.47155 0.15283 0.23926 0.0
C399 C 0.48721 0.12031 0.21821 0.0
C400 C 0.45341 0.16249 0.25038 0.0
C401 C 0.43442 0.14955 0.25528 0.0
C402 C 0.4708 0.13005 0.23371 0.0
C403 C 0.43481 0.12661 0.25047 0.0
C404 C 0.49404 0.098 0.2206 0.0
C405 C 0.50418 0.12219 0.18217 0.0
N406 N 0.45273 0.11754 0.23982 0.0
N407 N 0.49283 0.13187 0.19935 0.0
H408 H 0.65093 0.22424 0.55024 0.0
H409 H 0.62375 0.34809 0.5152 0.0
H410 H 0.6327 0.27591 0.59749 0.0
H411 H 0.59101 0.29524 0.47815 0.0
H412 H 0.6388 0.32017 0.54086 0.0
H413 H 0.63785 0.24862 0.5195 0.0
C414 C 0.64392 0.2405 0.55417 0.0
C415 C 0.64291 0.2481 0.57643 0.0
C416 C 0.62858 0.31472 0.52689 0.0
C417 C 0.62894 0.27596 0.54166 0.0
C418 C 0.6201 0.33058 0.51213 0.0
C419 C 0.60577 0.32401 0.49472 0.0
C420 C 0.62299 0.29212 0.52407 0.0
C421 C 0.60181 0.30101 0.49153 0.0
C422 C 0.6366 0.25433 0.53668 0.0
C423 C 0.63378 0.26932 0.58063 0.0
N424 N 0.61025 0.28577 0.50626 0.0
N425 N 0.62749 0.28264 0.56338 0.0
H426 H 0.95113 0.34081 0.72815 0.0
H427 H 0.9791 0.37042 0.85328 0.0
H428 H 0.9009 0.35901 0.77698 0.0
H429 H 0.02035 0.39993 0.8016 0.0
H430 H 0.95426 0.35578 0.82447 0.0
H431 H 0.98025 0.35483 0.75385 0.0
C432 C 0.94621 0.34804 0.74405 0.0
C433 C 0.92358 0.34866 0.75051 0.0
C434 C 0.96891 0.36525 0.81948 0.0
C435 C 0.95655 0.36377 0.77987 0.0
C436 C 0.98323 0.37346 0.83586 0.0
C437 C 0.00167 0.38669 0.82984 0.0
C438 C 0.97321 0.37 0.7969 0.0
C439 C 0.00618 0.38995 0.80694 0.0
C440 C 0.96279 0.3559 0.75864 0.0
C441 C 0.91809 0.35814 0.77129 0.0
N442 N 0.9919 0.38174 0.79116 0.0
N443 N 0.93449 0.36496 0.78537 0.0
H444 H 0.8461 0.76951 0.04958 0.0
H445 H 0.87542 0.64555 0.01945 0.0
H446 H 0.86652 0.72084 0.09911 0.0
H447 H 0.90829 0.69698 0.98049 0.0
H448 H 0.86069 0.67435 0.04428 0.0
H449 H 0.86036 0.74446 0.01998 0.0
C450 C 0.85388 0.7538 0.05424 0.0
C451 C 0.85507 0.74718 0.07682 0.0
C452 C 0.87089 0.67929 0.03008 0.0
C453 C 0.87041 0.71854 0.04333 0.0
C454 C 0.87917 0.66292 0.01579 0.0
C455 C 0.8934 0.66886 -0.00194 0.0
C456 C 0.87654 0.70175 0.02645 0.0
C457 C 0.89754 0.69171 0.99413 0.0
C458 C 0.86188 0.73959 0.0374 0.0
C459 C 0.86524 0.72665 0.08197 0.0
N460 N 0.88923 0.70747 0.00838 0.0
N461 N 0.87213 0.71288 0.06532 0.0
H462 H 0.59675 0.62767 0.26426 0.0
H463 H 0.47391 0.59291 0.29508 0.0
H464 H 0.54337 0.65398 0.22309 0.0
H465 H 0.52215 0.61533 0.34412 0.0
H466 H 0.49837 0.60763 0.2652 0.0
H467 H 0.56895 0.61273 0.29009 0.0
C468 C 0.57918 0.62996 0.26039 0.0
C469 C 0.57237 0.64236 0.24163 0.0
C470 C 0.50328 0.60948 0.28257 0.0
C471 C 0.54057 0.6253 0.27121 0.0
C472 C 0.4894 0.60122 0.29958 0.0
C473 C 0.49608 0.60281 0.3221 0.0
C474 C 0.52407 0.61875 0.28829 0.0
C475 C 0.51631 0.61367 0.32703 0.0
C476 C 0.56337 0.62158 0.27525 0.0
C477 C 0.5493 0.64466 0.23747 0.0
N478 N 0.52976 0.62087 0.31024 0.0
N479 N 0.53409 0.63627 0.25228 0.0
H480 H 0.26096 0.45382 0.17624 0.0
H481 H 0.2046 0.51162 0.0702 0.0
H482 H 0.25887 0.42254 0.11111 0.0
H483 H 0.17215 0.50761 0.13468 0.0
H484 H 0.23701 0.49168 0.08578 0.0
H485 H 0.24099 0.48625 0.1608 0.0
C486 C 0.25699 0.45412 0.15852 0.0
C487 C 0.26126 0.43544 0.14491 0.0
C488 C 0.22304 0.49584 0.0966 0.0
C489 C 0.23896 0.47239 0.12731 0.0
C490 C 0.20464 0.50726 0.08782 0.0
C491 C 0.18567 0.51097 0.1012 0.0
C492 C 0.22256 0.48872 0.11897 0.0
C493 C 0.18642 0.50482 0.12383 0.0
C494 C 0.24557 0.47254 0.14982 0.0
C495 C 0.25563 0.43656 0.12215 0.0
N496 N 0.20456 0.49381 0.13202 0.0
N497 N 0.24457 0.45471 0.11404 0.0
H498 H 0.70431 0.98614 0.92772 0.0
H499 H 0.75735 0.04038 0.81811 0.0
H500 H 0.66951 0.98893 0.86445 0.0
H501 H 0.75851 0.07365 0.88229 0.0
H502 H 0.73724 0.00895 0.8353 0.0
H503 H 0.73613 0.0058 0.91053 0.0
C504 C 0.7037 0.99022 0.91004 0.0
C505 C 0.68429 0.98618 0.89745 0.0
C506 C 0.74253 0.02288 0.84565 0.0
C507 C 0.72048 0.00806 0.87786 0.0
C508 C 0.75404 0.04074 0.83596 0.0
C509 C 0.75928 0.0597 0.84882 0.0
C510 C 0.73679 0.02386 0.86839 0.0
C511 C 0.75449 0.05941 0.87181 0.0
C512 C 0.72175 0.00147 0.90035 0.0
C513 C 0.68416 0.99197 0.8747 0.0
N514 N 0.74332 0.04178 0.88089 0.0
N515 N 0.70199 0.00276 0.8656 0.0
H516 H 0.72103 0.95546 0.33912 0.0
H517 H 0.84315 0.97864 0.37799 0.0
H518 H 0.76442 0.90297 0.36358 0.0
H519 H 0.79193 0.02087 0.40683 0.0
H520 H 0.81405 0.95473 0.36237 0.0
H521 H 0.74605 0.98336 0.35641 0.0
C522 C 0.73551 0.94979 0.34846 0.0
C523 C 0.74078 0.92688 0.34978 0.0
C524 C 0.80925 0.96939 0.37194 0.0
C525 C 0.76943 0.95845 0.36867 0.0
C526 C 0.82579 0.98317 0.38069 0.0
C527 C 0.81994 0.00166 0.39394 0.0
C528 C 0.7867 0.9743 0.37608 0.0
C529 C 0.79711 0.00666 0.39682 0.0
C530 C 0.74971 0.96568 0.35821 0.0
C531 C 0.75973 0.92042 0.36204 0.0
N532 N 0.78117 0.99296 0.38796 0.0
N533 N 0.77362 0.93616 0.37062 0.0
H534 H 0.2229 0.54426 0.65113 0.0
H535 H 0.34637 0.51554 0.61696 0.0
H536 H 0.27087 0.59426 0.63025 0.0
H537 H 0.29372 0.47458 0.5889 0.0
H538 H 0.31813 0.54063 0.63226 0.0
H539 H 0.24778 0.51499 0.63598 0.0
C540 C 0.23842 0.5491 0.64307 0.0
C541 C 0.24491 0.57171 0.64204 0.0
C542 C 0.3128 0.52599 0.62295 0.0
C543 C 0.27337 0.53857 0.62561 0.0
C544 C 0.32886 0.51154 0.61436 0.0
C545 C 0.32239 0.49309 0.60136 0.0
C546 C 0.2901 0.52183 0.61885 0.0
C547 C 0.2994 0.48875 0.59869 0.0
C548 C 0.25254 0.53244 0.63455 0.0
C549 C 0.26519 0.57709 0.63147 0.0
N550 N 0.28394 0.50316 0.60729 0.0
N551 N 0.27887 0.56061 0.62403 0.0
H552 H 0.27902 0.40483 0.52158 0.0
H553 H 0.27169 0.33115 0.40974 0.0
H554 H 0.33205 0.39588 0.47319 0.0
H555 H 0.21573 0.33651 0.45527 0.0
H556 H 0.29377 0.35429 0.43445 0.0
H557 H 0.25524 0.37951 0.4992 0.0
C558 C 0.28566 0.39755 0.50635 0.0
C559 C 0.30752 0.40257 0.49919 0.0
C560 C 0.27668 0.3505 0.43922 0.0
C561 C 0.28062 0.37376 0.47374 0.0
C562 C 0.26399 0.33723 0.42501 0.0
C563 C 0.24174 0.33197 0.43034 0.0
C564 C 0.26719 0.35886 0.45905 0.0
C565 C 0.23283 0.34022 0.45052 0.0
C566 C 0.27211 0.38313 0.49362 0.0
C567 C 0.31531 0.39266 0.47937 0.0
N568 N 0.24559 0.35341 0.46417 0.0
N569 N 0.30191 0.37885 0.46744 0.0
H570 H 0.90607 0.96649 0.71535 0.0
H571 H 0.81183 0.06184 0.71605 0.0
H572 H 0.88479 0.00537 0.65819 0.0
H573 H 0.83493 0.03061 0.77703 0.0
H574 H 0.83536 0.03675 0.69453 0.0
H575 H 0.87761 0.9858 0.73828 0.0
C576 C 0.89536 0.97893 0.70763 0.0
C577 C 0.89794 0.98452 0.68491 0.0
C578 C 0.83532 0.03519 0.71261 0.0
C579 C 0.86551 0.00633 0.71075 0.0
C580 C 0.82182 0.04955 0.72492 0.0
C581 C 0.82166 0.04848 0.74836 0.0
C582 C 0.84909 0.0197 0.72373 0.0
C583 C 0.83469 0.032 0.75895 0.0
C584 C 0.87919 0.98991 0.72068 0.0
C585 C 0.88363 0.00068 0.67568 0.0
N586 N 0.84817 0.01836 0.74654 0.0
N587 N 0.86816 0.01098 0.68861 0.0
H588 H 0.28109 0.65399 0.96342 0.0
H589 H 0.16075 0.59851 0.98286 0.0
H590 H 0.22141 0.66825 0.92518 0.0
H591 H 0.21621 0.58492 0.02724 0.0
H592 H 0.18371 0.62488 0.96252 0.0
H593 H 0.25865 0.62968 0.9882 0.0
C594 C 0.26331 0.65218 0.96037 0.0
C595 C 0.25313 0.66295 0.94209 0.0
C596 C 0.19102 0.61626 0.9767 0.0
C597 C 0.22759 0.63538 0.9701 0.0
C598 C 0.17786 0.60106 0.98834 0.0
C599 C 0.18661 0.58936 0.00671 0.0
C600 C 0.21331 0.61985 0.98325 0.0
C601 C 0.20886 0.59358 0.0131 0.0
C602 C 0.25055 0.6383 0.97445 0.0
C603 C 0.23007 0.66008 0.93887 0.0
N604 N 0.22157 0.60845 0.00126 0.0
N605 N 0.21819 0.64656 0.95262 0.0
H606 H 0.60082 0.04093 0.20198 0.0
H607 H 0.63204 0.94031 0.28417 0.0
H608 H 0.56238 0.97994 0.20611 0.0
H609 H 0.6817 0.97233 0.24272 0.0
H610 H 0.6033 0.96511 0.26812 0.0
H611 H 0.62752 0.02533 0.22937 0.0
C612 C 0.59771 0.02454 0.20914 0.0
C613 C 0.57959 0.01154 0.20182 0.0
C614 C 0.62063 0.96713 0.26313 0.0
C615 C 0.60942 0.99407 0.23316 0.0
C616 C 0.63697 0.95318 0.27234 0.0
C617 C 0.6591 0.95455 0.26475 0.0
C618 C 0.62669 0.98266 0.24655 0.0
C619 C 0.66474 0.97102 0.24902 0.0
C620 C 0.61291 0.01569 0.22461 0.0
C621 C 0.5763 0.99034 0.21131 0.0
N622 N 0.64856 0.98446 0.24029 0.0
N623 N 0.59111 0.98221 0.22652 0.0
H624 H 0.71655 0.16002 0.53627 0.0
H625 H 0.82132 0.07662 0.53036 0.0
H626 H 0.75834 0.14072 0.59205 0.0
H627 H 0.78113 0.09111 0.47202 0.0
H628 H 0.79639 0.09915 0.55292 0.0
H629 H 0.73792 0.13416 0.51214 0.0
C630 C 0.73007 0.15029 0.54345 0.0
C631 C 0.7358 0.15267 0.56616 0.0
C632 C 0.79283 0.09747 0.53521 0.0
C633 C 0.7601 0.12325 0.53886 0.0
C634 C 0.80716 0.08457 0.52225 0.0
C635 C 0.80342 0.08211 0.49921 0.0
C636 C 0.77455 0.10832 0.52517 0.0
C637 C 0.78461 0.09264 0.48975 0.0
C638 C 0.74224 0.13559 0.5297 0.0
C639 C 0.75342 0.13967 0.57463 0.0
N640 N 0.7709 0.1055 0.50277 0.0
N641 N 0.76489 0.12566 0.56101 0.0
H642 H 0.16094 0.52456 0.71966 0.0
H643 H 0.0829 0.51823 0.8282 0.0
H644 H 0.14016 0.58067 0.76026 0.0
H645 H 0.093 0.46033 0.78607 0.0
H646 H 0.10425 0.54063 0.80227 0.0
H647 H 0.13633 0.50005 0.74217 0.0
C648 C 0.15111 0.53172 0.73313 0.0
C649 C 0.1528 0.55462 0.7383 0.0
C650 C 0.10186 0.52306 0.79847 0.0
C651 C 0.12489 0.52695 0.76386 0.0
C652 C 0.08967 0.51016 0.81342 0.0
C653 C 0.08626 0.4873 0.80939 0.0
C654 C 0.11105 0.51316 0.77923 0.0
C655 C 0.09531 0.47792 0.78978 0.0
C656 C 0.13714 0.51777 0.74593 0.0
C657 C 0.1397 0.5631 0.75583 0.0
N658 N 0.10749 0.4909 0.7754 0.0
N659 N 0.12647 0.54929 0.76794 0.0
H660 H 0.66337 0.89831 0.01734 0.0
H661 H 0.7825 0.83872 0.03222 0.0
H662 H 0.71716 0.9094 0.97022 0.0
H663 H 0.72738 0.8359 0.07902 0.0
H664 H 0.75955 0.86284 0.00768 0.0
H665 H 0.68714 0.87338 0.03839 0.0
C666 C 0.68028 0.89552 0.01138 0.0
C667 C 0.68831 0.90611 0.99203 0.0
C668 C 0.75261 0.85685 0.02333 0.0
C669 C 0.716 0.87729 0.01638 0.0
C670 C 0.76564 0.8431 0.03729 0.0
C671 C 0.75687 0.83535 0.05772 0.0
C672 C 0.73076 0.86263 0.02995 0.0
C673 C 0.73497 0.8415 0.06352 0.0
C674 C 0.69394 0.88119 0.02348 0.0
C675 C 0.71036 0.9016 0.98512 0.0
N676 N 0.72278 0.8547 0.04976 0.0
N677 N 0.72356 0.88752 0.99738 0.0
H678 H 0.32526 0.42264 0.27442 0.0
H679 H 0.40818 0.52797 0.27863 0.0
H680 H 0.33867 0.46269 0.21567 0.0
H681 H 0.39667 0.48082 0.33232 0.0
H682 H 0.38111 0.50709 0.2554 0.0
H683 H 0.34915 0.44698 0.29621 0.0
C684 C 0.33325 0.43665 0.26607 0.0
C685 C 0.33015 0.44049 0.24313 0.0
C686 C 0.38457 0.50146 0.2723 0.0
C687 C 0.35795 0.4686 0.26814 0.0
C688 C 0.39997 0.51332 0.28552 0.0
C689 C 0.40478 0.50605 0.30739 0.0
C690 C 0.37394 0.4824 0.2812 0.0
C691 C 0.39368 0.48703 0.31554 0.0
C692 C 0.34696 0.4506 0.27857 0.0
C693 C 0.34072 0.45912 0.23334 0.0
N694 N 0.37887 0.47596 0.30248 0.0
N695 N 0.35437 0.47246 0.24589 0.0
H696 H 0.53123 0.28249 0.4014 0.0
H697 H 0.41078 0.26599 0.34546 0.0
H698 H 0.47152 0.3197 0.41802 0.0
H699 H 0.46578 0.22159 0.33023 0.0
H700 H 0.4338 0.28484 0.37282 0.0
H701 H 0.50862 0.25866 0.37631 0.0
C702 C 0.5134 0.28548 0.39995 0.0
C703 C 0.50326 0.30326 0.41157 0.0
C704 C 0.441 0.27097 0.36362 0.0
C705 C 0.47754 0.27635 0.38313 0.0
C706 C 0.42781 0.2602 0.34784 0.0
C707 C 0.43641 0.24228 0.33539 0.0
C708 C 0.4632 0.26401 0.36703 0.0
C709 C 0.45856 0.23541 0.33947 0.0
C710 C 0.50056 0.27196 0.38564 0.0
C711 C 0.48014 0.30643 0.40917 0.0
N712 N 0.47132 0.24643 0.3549 0.0
N713 N 0.46818 0.29323 0.3952 0.0
H714 H 0.9757 0.19365 0.56134 0.0
H715 H 0.9721 0.27687 0.66627 0.0
H716 H 0.03569 0.21188 0.59716 0.0
H717 H 0.91517 0.2458 0.6344 0.0
H718 H 0.99668 0.25952 0.63781 0.0
H719 H 0.95448 0.21998 0.58383 0.0
C720 C 0.98443 0.20344 0.5739 0.0
C721 C 0.00734 0.20043 0.57768 0.0
C722 C 0.97877 0.25676 0.63704 0.0
C723 C 0.98301 0.2303 0.60407 0.0
C724 C 0.9648 0.26664 0.65319 0.0
C725 C 0.94166 0.26245 0.65281 0.0
C726 C 0.96931 0.24304 0.62039 0.0
C727 C 0.93296 0.24917 0.63556 0.0
C728 C 0.9723 0.21846 0.5868 0.0
C729 C 0.01795 0.21375 0.59388 0.0
N730 N 0.94676 0.23995 0.62017 0.0
N731 N 0.00558 0.22792 0.60687 0.0
H732 H 0.02786 0.66997 0.92257 0.0
H733 H 0.03132 0.77445 0.83845 0.0
H734 H 0.96845 0.70835 0.9076 0.0
H735 H 0.08571 0.72857 0.85136 0.0
H736 H 0.00806 0.75338 0.86541 0.0
H737 H 0.04951 0.69457 0.89881 0.0
C738 C 0.01933 0.68366 0.91426 0.0
C739 C 0.99625 0.68694 0.91689 0.0
C740 C 0.02511 0.74807 0.86228 0.0
C741 C 0.02113 0.71539 0.88921 0.0
C742 C 0.03836 0.76005 0.84695 0.0
C743 C 0.06044 0.75318 0.84256 0.0
C744 C 0.0342 0.72931 0.87327 0.0
C745 C 0.06877 0.73446 0.85402 0.0
C746 C 0.03175 0.69778 0.90062 0.0
C747 C 0.98623 0.70521 0.90592 0.0
N748 N 0.05568 0.72327 0.86875 0.0
N749 N -0.00127 0.71872 0.89234 0.0
H750 H 0.57575 0.7741 0.15256 0.0
H751 H 0.465 0.78431 0.07811 0.0
H752 H 0.52946 0.71883 0.14675 0.0
H753 H 0.50983 0.83847 0.09503 0.0
H754 H 0.48721 0.75923 0.10239 0.0
H755 H 0.55096 0.79702 0.13045 0.0
C756 C 0.5603 0.76671 0.14657 0.0
C757 C 0.55475 0.74444 0.15147 0.0
C758 C 0.49199 0.77665 0.10078 0.0
C759 C 0.52588 0.77093 0.12583 0.0
C760 C 0.47936 0.79093 0.08698 0.0
C761 C 0.4857 0.81346 0.08438 0.0
C762 C 0.51095 0.78511 0.11191 0.0
C763 C 0.50439 0.82122 0.09626 0.0
C764 C 0.54602 0.77991 0.13393 0.0
C765 C 0.53436 0.73595 0.14332 0.0
N766 N 0.51629 0.8071 0.10935 0.0
N767 N 0.52061 0.74922 0.13074 0.0
H768 H 0.19633 0.35678 0.34525 0.0
H769 H 0.21479 0.34906 0.21468 0.0
H770 H 0.16708 0.30497 0.30429 0.0
H771 H 0.23877 0.40302 0.25637 0.0
H772 H 0.19025 0.337 0.24531 0.0
H773 H 0.20435 0.3784 0.31157 0.0
C774 C 0.19112 0.35021 0.32915 0.0
C775 C 0.1814 0.3289 0.3275 0.0
C776 C 0.20054 0.35175 0.24757 0.0
C777 C 0.19116 0.35322 0.28874 0.0
C778 C 0.21453 0.35867 0.23007 0.0
C779 C 0.22924 0.37673 0.23319 0.0
C780 C 0.20139 0.36299 0.26827 0.0
C781 C 0.22809 0.38866 0.25341 0.0
C782 C 0.19576 0.36252 0.30988 0.0
C783 C 0.17477 0.32127 0.30627 0.0
N784 N 0.21472 0.38137 0.27027 0.0
N785 N 0.18028 0.33318 0.28762 0.0
H786 H 0.89593 0.96795 0.47098 0.0
H787 H 0.88524 0.94195 0.6005 0.0
H788 H 0.84291 0.99197 0.5139 0.0
H789 H 0.94088 0.92032 0.55978 0.0
H790 H 0.86435 0.95085 0.5666 0.0
H791 H 0.90754 0.9421 0.50062 0.0
C792 C 0.88648 0.96752 0.48647 0.0
C793 C 0.86876 0.98253 0.49018 0.0
C794 C 0.88094 0.94372 0.56499 0.0
C795 C 0.88194 0.95304 0.5241 0.0
C796 C 0.89284 0.93853 0.58437 0.0
C797 C 0.91499 0.93087 0.58291 0.0
C798 C 0.89144 0.94166 0.54403 0.0
C799 C 0.92391 0.92644 0.56162 0.0
C800 C 0.89311 0.95275 0.50338 0.0
C801 C 0.85698 0.98106 0.51047 0.0
N802 N 0.91231 0.93245 0.54296 0.0
N803 N 0.86397 0.96684 0.52676 0.0
H804 H 0.24117 0.59164 0.76495 0.0
H805 H 0.32584 0.68223 0.8135 0.0
H806 H 0.27432 0.64164 0.72449 0.0
H807 H 0.28556 0.63772 0.85382 0.0
H808 H 0.31508 0.66101 0.78011 0.0
H809 H 0.26486 0.60199 0.79651 0.0
C810 C 0.25361 0.60463 0.7626 0.0
C811 C 0.25542 0.61613 0.74217 0.0
C812 C 0.30898 0.65562 0.79634 0.0
C813 C 0.28256 0.62817 0.77836 0.0
C814 C 0.31525 0.66763 0.81542 0.0
C815 C 0.30618 0.662 0.83639 0.0
C816 C 0.29363 0.63789 0.79833 0.0
C817 C 0.29258 0.6429 0.83791 0.0
C818 C 0.26718 0.61052 0.78065 0.0
C819 C 0.27212 0.63256 0.74004 0.0
N820 N 0.28644 0.63175 0.81909 0.0
N821 N 0.28482 0.63834 0.75804 0.0
H822 H 0.5591 0.07229 0.06809 0.0
H823 H 0.6553 0.99708 0.01444 0.0
H824 H 0.60413 0.0297 0.10529 0.0
H825 H 0.60209 0.02723 0.97588 0.0
H826 H 0.64313 0.0182 0.04714 0.0
H827 H 0.58087 0.06484 0.03406 0.0
C828 C 0.57386 0.06181 0.06921 0.0
C829 C 0.57962 0.05126 0.08944 0.0
C830 C 0.6343 0.02048 0.03146 0.0
C831 C 0.60446 0.04269 0.05071 0.0
C832 C 0.64124 0.00843 0.01275 0.0
C833 C 0.62936 0.01001 0.99253 0.0
C834 C 0.61517 0.03406 0.03006 0.0
C835 C 0.61156 0.02531 0.99123 0.0
C836 C 0.5862 0.05749 0.04977 0.0
C837 C 0.59889 0.03786 0.08996 0.0
N838 N 0.60471 0.03646 0.00989 0.0
N839 N 0.61046 0.03377 0.07083 0.0
H840 H 0.68736 0.13676 0.65104 0.0
H841 H 0.71367 0.14812 0.77971 0.0
H842 H 0.66662 0.19343 0.69072 0.0
H843 H 0.72909 0.09 0.7396 0.0
H844 H 0.68851 0.16127 0.75007 0.0
H845 H 0.69409 0.11565 0.68533 0.0
C846 C 0.68369 0.14456 0.66702 0.0
C847 C 0.67682 0.16697 0.6681 0.0
C848 C 0.69702 0.14538 0.74798 0.0
C849 C 0.68522 0.14321 0.7075 0.0
C850 C 0.71134 0.13785 0.76493 0.0
C851 C 0.72392 0.11823 0.76185 0.0
C852 C 0.69537 0.1332 0.72788 0.0
C853 C 0.72014 0.10551 0.74245 0.0
C854 C 0.68761 0.13254 0.68664 0.0
C855 C 0.67209 0.17621 0.68919 0.0
N856 N 0.70652 0.1134 0.72607 0.0
N857 N 0.67695 0.16448 0.70813 0.0
H858 H 0.15561 0.49474 0.98682 0.0
H859 H 0.06094 0.41503 0.93854 0.0
H860 H 0.10334 0.46548 0.02733 0.0
H861 H 0.11007 0.44984 0.89849 0.0
H862 H 0.08207 0.42489 0.97225 0.0
H863 H 0.14498 0.47028 0.95598 0.0
C864 C 0.14206 0.48294 0.98933 0.0
C865 C 0.13001 0.4825 0.00951 0.0
C866 C 0.08848 0.42994 0.95604 0.0
C867 C 0.11754 0.45457 0.97409 0.0
C868 C 0.0765 0.42419 0.93676 0.0
C869 C 0.08351 0.43207 0.91572 0.0
C870 C 0.10756 0.44359 0.95417 0.0
C871 C 0.10382 0.44381 0.91442 0.0
C872 C 0.136 0.46893 0.9717 0.0
C873 C 0.1129 0.46656 0.01195 0.0
N874 N 0.11492 0.44952 0.9334 0.0
N875 N 0.10687 0.4535 0.99427 0.0
H876 H 0.7513 0.90974 0.22663 0.0
H877 H 0.82811 0.80944 0.18558 0.0
H878 H 0.77594 0.85721 0.26985 0.0
H879 H 0.79705 0.8581 0.14206 0.0
H880 H 0.81838 0.83277 0.21785 0.0
H881 H 0.7768 0.89706 0.19735 0.0
C882 C 0.76232 0.89575 0.23011 0.0
C883 C 0.76107 0.88417 0.25054 0.0
C884 C 0.81415 0.83858 0.20119 0.0
C885 C 0.79019 0.86943 0.21697 0.0
C886 C 0.81983 0.82533 0.18274 0.0
C887 C 0.81288 0.8316 0.16117 0.0
C888 C 0.80148 0.85816 0.19795 0.0
C889 C 0.80228 0.8524 0.15847 0.0
C890 C 0.7769 0.88852 0.21336 0.0
C891 C 0.77604 0.8664 0.25421 0.0
N892 N 0.79656 0.86474 0.17667 0.0
N893 N 0.78969 0.8593 0.23742 0.0
H894 H 0.34266 0.4949 0.47863 0.0
H895 H 0.43819 0.57515 0.43331 0.0
H896 H 0.39441 0.52327 0.5204 0.0
H897 H 0.3874 0.54436 0.39214 0.0
H898 H 0.41694 0.56443 0.46672 0.0
H899 H 0.3535 0.52033 0.44859 0.0
C900 C 0.35616 0.50665 0.48158 0.0
C901 C 0.36798 0.5066 0.50189 0.0
C902 C 0.41019 0.56049 0.45036 0.0
C903 C 0.38064 0.5357 0.46743 0.0
C904 C 0.42223 0.56677 0.43126 0.0
C905 C 0.41478 0.56017 0.40997 0.0
C906 C 0.39065 0.54755 0.44802 0.0
C907 C 0.39398 0.54936 0.40829 0.0
C908 C 0.36232 0.52124 0.46442 0.0
C909 C 0.38505 0.52251 0.50489 0.0
N910 N 0.38286 0.54303 0.42707 0.0
N911 N 0.39114 0.53615 0.48769 0.0
H912 H 0.21865 0.21725 0.33744 0.0
H913 H 0.31465 0.16681 0.29773 0.0
H914 H 0.26006 0.24305 0.39076 0.0
H915 H 0.34813 0.20632 0.34812 0.0
H916 H 0.27907 0.17375 0.31652 0.0
H917 H 0.24947 0.19357 0.3254 0.0
C918 C 0.23412 0.21757 0.3469 0.0
C919 C 0.23694 0.23254 0.36481 0.0
C920 C 0.2941 0.18088 0.32362 0.0
C921 C 0.27254 0.20521 0.35128 0.0
C922 C 0.31455 0.1766 0.31301 0.0
C923 C 0.33428 0.18654 0.32102 0.0
C924 C 0.29349 0.19536 0.34223 0.0
C925 C 0.33324 0.1988 0.34102 0.0
C926 C 0.25184 0.2039 0.34005 0.0
C927 C 0.25727 0.23212 0.37656 0.0
N928 N 0.31317 0.20316 0.35069 0.0
N929 N 0.27433 0.21896 0.36939 0.0
H930 H 0.98702 0.01707 0.65021 0.0
H931 H 0.07424 0.06684 0.56272 0.0
H932 H 0.0244 0.97689 0.60308 0.0
H933 H 0.03191 0.10674 0.60568 0.0
H934 H 0.06336 0.03346 0.58383 0.0
H935 H 0.01006 0.04931 0.64034 0.0
C936 C 0.00023 0.01495 0.63795 0.0
C937 C 0.00345 0.99435 0.6271 0.0
C938 C 0.05681 0.04959 0.58891 0.0
C939 C 0.02986 0.03129 0.61564 0.0
C940 C 0.06312 0.06869 0.57695 0.0
C941 C 0.05355 0.08954 0.58213 0.0
C942 C 0.04085 0.05141 0.60612 0.0
C943 C 0.03934 0.09094 0.60081 0.0
C944 C 0.01342 0.03338 0.63235 0.0
C945 C 0.02109 0.99253 0.61163 0.0
N946 N 0.03313 0.07208 0.61189 0.0
N947 N 0.03341 0.01086 0.6061 0.0
H948 H 0.27586 0.77571 0.84656 0.0
H949 H 0.14592 0.79515 0.85949 0.0
H950 H 0.23633 0.75212 0.90238 0.0
H951 H 0.18511 0.82353 0.80578 0.0
H952 H 0.18032 0.78688 0.87979 0.0
H953 H 0.24488 0.80015 0.83556 0.0
C954 C 0.26084 0.77596 0.85674 0.0
C955 C 0.25847 0.76143 0.87509 0.0
C956 C 0.18147 0.79533 0.86378 0.0
C957 C 0.22296 0.78925 0.86255 0.0
C958 C 0.16179 0.80012 0.85221 0.0
C959 C 0.16272 0.80962 0.83075 0.0
C960 C 0.20225 0.79962 0.85358 0.0
C961 C 0.18368 0.81598 0.82222 0.0
C962 C 0.24315 0.78993 0.85045 0.0
C963 C 0.23873 0.76266 0.88781 0.0
N964 N 0.20269 0.81036 0.83342 0.0
N965 N 0.22163 0.77602 0.88109 0.0
H966 H 0.48735 0.98392 0.1564 0.0
H967 H 0.41551 0.94053 0.05344 0.0
H968 H 0.46609 0.02592 0.10149 0.0
H969 H 0.44423 0.89838 0.10466 0.0
H970 H 0.4242 0.97345 0.07632 0.0
H971 H 0.46219 0.95461 0.14325 0.0
C972 C 0.47712 0.98713 0.14176 0.0
C973 C 0.47924 0.0072 0.12971 0.0
C974 C 0.42811 0.95695 0.08277 0.0
C975 C 0.45056 0.97354 0.11437 0.0
C976 C 0.42301 0.93814 0.06979 0.0
C977 C 0.42962 0.91675 0.07697 0.0
C978 C 0.43981 0.95424 0.10303 0.0
C979 C 0.43926 0.91462 0.0983 0.0
C980 C 0.46273 0.97036 0.13425 0.0
C981 C 0.46523 0.01057 0.11111 0.0
N982 N 0.4444 0.93315 0.1104 0.0
N983 N 0.45181 0.99371 0.10373 0.0
H984 H 0.72148 0.27691 0.65008 0.0
H985 H 0.85299 0.29347 0.63885 0.0
H986 H 0.76377 0.24202 0.6029 0.0
H987 H 0.81329 0.32279 0.69167 0.0
H988 H 0.81871 0.28317 0.61926 0.0
H989 H 0.75302 0.30126 0.65963 0.0
C990 C 0.7373 0.27455 0.6415 0.0
C991 C 0.74012 0.25709 0.62599 0.0
C992 C 0.81745 0.29225 0.63492 0.0
C993 C 0.77619 0.28494 0.63678 0.0
C994 C 0.83703 0.29824 0.64606 0.0
C995 C 0.83596 0.30854 0.66716 0.0
C996 C 0.79664 0.2963 0.6451 0.0
C997 C 0.81486 0.31463 0.67555 0.0
C998 C 0.75528 0.28848 0.64695 0.0
C999 C 0.76092 0.25498 0.61526 0.0
N1000 N 0.79597 0.30794 0.66473 0.0
N1001 N 0.7782 0.26856 0.62104 0.0
H1002 H 0.00043 0.50737 0.84674 0.0
H1003 H 0.92058 0.56012 0.93933 0.0
H1004 H 0.97111 0.46963 0.90109 0.0
H1005 H 0.9604 0.59817 0.89246 0.0
H1006 H 0.92979 0.52592 0.91869 0.0
H1007 H 0.97693 0.5392 0.85666 0.0
C1008 C 0.98883 0.50565 0.8606 0.0
C1009 C 0.98813 0.48597 0.87346 0.0
C1010 C 0.93609 0.54183 0.91266 0.0
C1011 C 0.96124 0.52248 0.88497 0.0
C1012 C 0.93072 0.56138 0.92434 0.0
C1013 C 0.94015 0.58194 0.91786 0.0
C1014 C 0.95087 0.54296 0.89437 0.0
C1015 C 0.95314 0.5826 0.89828 0.0
C1016 C 0.97539 0.52386 0.86623 0.0
C1017 C 0.97245 0.48461 0.89094 0.0
N1018 N 0.95839 0.56334 0.88743 0.0
N1019 N 0.95988 0.50278 0.89644 0.0
H1020 H 0.68001 0.66798 0.18265 0.0
H1021 H 0.73688 0.74711 0.09196 0.0
H1022 H 0.64425 0.70452 0.13152 0.0
H1023 H 0.77193 0.71877 0.14853 0.0
H1024 H 0.70489 0.72322 0.10031 0.0
H1025 H 0.71529 0.67752 0.16411 0.0
C1026 C 0.67951 0.67742 0.16715 0.0
C1027 C 0.65919 0.68591 0.15888 0.0
C1028 C 0.71968 0.72198 0.11074 0.0
C1029 C 0.69945 0.6971 0.13783 0.0
C1030 C 0.73797 0.73567 0.10601 0.0
C1031 C 0.75695 0.73532 0.11988 0.0
C1032 C 0.72022 0.70794 0.1296 0.0
C1033 C 0.75752 0.71983 0.13759 0.0
C1034 C 0.69968 0.68301 0.15668 0.0
C1035 C 0.65956 0.698 0.13872 0.0
N1036 N 0.73925 0.70701 0.14218 0.0
N1037 N 0.67939 0.70356 0.1291 0.0
H1038 H 0.52752 0.52243 0.39299 0.0
H1039 H 0.5393 0.39064 0.3869 0.0
H1040 H 0.49446 0.48067 0.34407 0.0
H1041 H 0.57493 0.43164 0.43456 0.0
H1042 H 0.52954 0.42421 0.36583 0.0
H1043 H 0.5511 0.49064 0.40349 0.0
C1044 C 0.52544 0.50669 0.38421 0.0
C1045 C 0.50863 0.50408 0.36798 0.0
C1046 C 0.53986 0.4259 0.38066 0.0
C1047 C 0.53551 0.46764 0.37995 0.0
C1048 C 0.54549 0.40669 0.39266 0.0
C1049 C 0.55754 0.40841 0.41275 0.0
C1050 C 0.54598 0.44702 0.38902 0.0
C1051 C 0.5654 0.42959 0.41927 0.0
C1052 C 0.53894 0.48855 0.3902 0.0
C1053 C 0.5069 0.48337 0.35698 0.0
N1054 N 0.55904 0.44815 0.40771 0.0
N1055 N 0.51992 0.46589 0.3634 0.0
H1056 H 0.4047 0.26481 0.23967 0.0
H1057 H 0.30593 0.31502 0.16605 0.0
H1058 H 0.35088 0.225 0.21242 0.0
H1059 H 0.35545 0.35406 0.20134 0.0
H1060 H 0.32784 0.28115 0.17374 0.0
H1061 H 0.39267 0.29625 0.21662 0.0
C1062 C 0.39053 0.26257 0.22856 0.0
C1063 C 0.37845 0.24242 0.22834 0.0
C1064 C 0.33414 0.29721 0.17935 0.0
C1065 C 0.36436 0.27852 0.2021 0.0
C1066 C 0.32173 0.31656 0.17484 0.0
C1067 C 0.3287 0.33728 0.18347 0.0
C1068 C 0.35364 0.29873 0.19245 0.0
C1069 C 0.34926 0.33833 0.19475 0.0
C1070 C 0.38366 0.28055 0.21538 0.0
C1071 C 0.3605 0.24035 0.2133 0.0
N1072 N 0.36083 0.3193 0.19918 0.0
N1073 N 0.35369 0.25835 0.20109 0.0
H1074 H 0.80939 0.17629 0.8237 0.0
H1075 H 0.902 0.22519 0.74111 0.0
H1076 H 0.85154 0.13634 0.78065 0.0
H1077 H 0.85365 0.26598 0.77621 0.0
H1078 H 0.89017 0.19294 0.7632 0.0
H1079 H 0.83199 0.20926 0.81438 0.0
C1080 C 0.82374 0.17433 0.81276 0.0
C1081 C 0.82835 0.15367 0.80256 0.0
C1082 C 0.88234 0.209 0.76629 0.0
C1083 C 0.85405 0.19122 0.79171 0.0
C1084 C 0.88908 0.22745 0.75366 0.0
C1085 C 0.87845 0.24822 0.75645 0.0
C1086 C 0.86472 0.21127 0.78172 0.0
C1087 C 0.86207 0.2502 0.77324 0.0
C1088 C 0.83654 0.19317 0.80734 0.0
C1089 C 0.84715 0.15206 0.78854 0.0
N1090 N 0.85545 0.23185 0.785 0.0
N1091 N 0.85911 0.17065 0.78329 0.0
H1092 H 0.97225 0.59253 0.03047 0.0
H1093 H 0.10206 0.60593 0.0525 0.0
H1094 H 0.0126 0.6478 0.00701 0.0
H1095 H 0.06313 0.5503 0.07719 0.0
H1096 H 0.06754 0.62602 0.0442 0.0
H1097 H 0.00295 0.58121 0.05517 0.0
C1098 C 0.98739 0.60253 0.03081 0.0
C1099 C 0.99008 0.62083 0.01626 0.0
C1100 C 0.06645 0.60961 0.05186 0.0
C1101 C 0.02522 0.60795 0.0444 0.0
C1102 C 0.08619 0.59818 0.05668 0.0
C1103 C 0.0854 0.57629 0.06515 0.0
C1104 C 0.04576 0.59886 0.05504 0.0
C1105 C 0.06444 0.56711 0.0705 0.0
C1106 C 0.00491 0.59605 0.04491 0.0
C1107 C 0.00996 0.63328 0.01757 0.0
N1108 N 0.04538 0.57823 0.06483 0.0
N1109 N 0.02686 0.62642 0.03112 0.0
H1110 H 0.67968 0.82213 0.32063 0.0
H1111 H 0.64359 0.72507 0.26877 0.0
H1112 H 0.64232 0.85478 0.26801 0.0
H1113 H 0.59354 0.76636 0.23683 0.0
H1114 H 0.65569 0.75731 0.29057 0.0
H1115 H 0.65976 0.78733 0.31261 0.0
C1116 C 0.6671 0.82205 0.30756 0.0
C1117 C 0.66306 0.84126 0.29459 0.0
C1118 C 0.64161 0.75928 0.27937 0.0
C1119 C 0.64071 0.80132 0.2848 0.0
C1120 C 0.63477 0.7408 0.26675 0.0
C1121 C 0.6178 0.7431 0.25065 0.0
C1122 C 0.63133 0.78019 0.27584 0.0
C1123 C 0.60696 0.76387 0.24878 0.0
C1124 C 0.65592 0.80205 0.30277 0.0
C1125 C 0.64635 0.84027 0.27811 0.0
N1126 N 0.61415 0.78166 0.26093 0.0
N1127 N 0.63601 0.82057 0.27353 0.0
H1128 H 0.39336 0.38379 0.54148 0.0
H1129 H 0.52396 0.39657 0.52611 0.0
H1130 H 0.43191 0.43639 0.57257 0.0
H1131 H 0.48495 0.34158 0.49999 0.0
H1132 H 0.49223 0.40719 0.54978 0.0
H1133 H 0.42793 0.36368 0.53341 0.0
C1134 C 0.40911 0.39086 0.54707 0.0
C1135 C 0.40982 0.41196 0.55731 0.0
C1136 C 0.49077 0.39255 0.53917 0.0
C1137 C 0.44957 0.38937 0.54757 0.0
C1138 C 0.5089 0.38648 0.52565 0.0
C1139 C 0.50692 0.36848 0.51065 0.0
C1140 C 0.47056 0.38059 0.53758 0.0
C1141 C 0.48708 0.35588 0.51093 0.0
C1142 C 0.42889 0.3794 0.5424 0.0
C1143 C 0.43064 0.42023 0.56445 0.0
N1144 N 0.46958 0.36238 0.52389 0.0
N1145 N 0.44977 0.40916 0.55895 0.0
H1146 H 0.1348 0.64093 0.69966 0.0
H1147 H 0.14442 0.77204 0.71855 0.0
H1148 H 0.18685 0.68188 0.67069 0.0
H1149 H 0.09606 0.72904 0.7509 0.0
H1150 H 0.15446 0.74119 0.69355 0.0
H1151 H 0.11446 0.67475 0.71006 0.0
C1152 C 0.14168 0.65706 0.69499 0.0
C1153 C 0.16278 0.65863 0.68475 0.0
C1154 C 0.14141 0.73863 0.70589 0.0
C1155 C 0.13987 0.69744 0.69713 0.0
C1156 C 0.13567 0.75624 0.72019 0.0
C1157 C 0.11971 0.75297 0.73719 0.0
C1158 C 0.13112 0.71764 0.70862 0.0
C1159 C 0.10877 0.73221 0.73835 0.0
C1160 C 0.13011 0.67639 0.70103 0.0
C1161 C 0.17075 0.67993 0.6788 0.0
N1162 N 0.11487 0.71528 0.72447 0.0
N1163 N 0.15953 0.69857 0.68556 0.0
H1164 H 0.50961 0.84935 0.99444 0.0
H1165 H 0.56443 0.94403 0.91901 0.0
H1166 H 0.47264 0.90488 0.96652 0.0
H1167 H 0.60092 0.89022 0.9506 0.0
H1168 H 0.52933 0.92478 0.9279 0.0
H1169 H 0.54137 0.8591 0.97077 0.0
C1170 C 0.50808 0.86348 0.98315 0.0
C1171 C 0.48861 0.87662 0.98283 0.0
C1172 C 0.54505 0.91695 0.93242 0.0
C1173 C 0.52507 0.88802 0.95574 0.0
C1174 C 0.5651 0.92784 0.9272 0.0
C1175 C 0.58558 0.91893 0.93455 0.0
C1176 C 0.54558 0.89707 0.94504 0.0
C1177 C 0.58547 0.89791 0.94505 0.0
C1178 C 0.52623 0.86901 0.96957 0.0
C1179 C 0.48745 0.89447 0.96754 0.0
N1180 N 0.56577 0.88789 0.95033 0.0
N1181 N 0.5056 0.8999 0.95487 0.0
H1182 H 0.92896 0.05942 0.42081 0.0
H1183 H 0.98322 0.15628 0.49458 0.0
H1184 H 0.89172 0.1073 0.46013 0.0
H1185 H 0.02007 0.09934 0.46946 0.0
H1186 H 0.9511 0.14492 0.47215 0.0
H1187 H 0.96333 0.0804 0.42864 0.0
C1188 C 0.9279 0.07468 0.43056 0.0
C1189 C 0.90754 0.08142 0.44021 0.0
C1190 C 0.96632 0.13509 0.47127 0.0
C1191 C 0.94669 0.10532 0.44928 0.0
C1192 C 0.9847 0.14156 0.48408 0.0
C1193 C 0.00421 0.12843 0.48432 0.0
C1194 C 0.96736 0.11529 0.45867 0.0
C1195 C 0.00525 0.10977 0.47005 0.0
C1196 C 0.94754 0.08656 0.43513 0.0
C1197 C 0.90714 0.10131 0.45269 0.0
N1198 N 0.98691 0.10352 0.45807 0.0
N1199 N 0.92647 0.11239 0.45711 0.0
loop_
_geom_bond_atom_site_label_1
_geom_bond_atom_site_label_2
_geom_bond_distance
_geom_bond_site_symmetry_2
_ccdc_geom_bond_type
O0 Cd1 2.223 . S
O0 C8 1.315 . S
Cd1 O0 2.223 . S
Cd1 O4 2.297 . S
Cd1 O5 2.439 . S
Cd1 O11 2.240 . S
Cd2 O3 2.240 . S
Cd2 O10 2.223 . S
Cd2 O12 2.297 . S
Cd2 O13 2.439 . S
O3 Cd2 2.240 . S
O3 C8 1.279 . S
O4 Cd1 2.297 . S
O4 C6 1.247 . S
O5 Cd1 2.439 . S
O5 C6 1.208 . S
C6 O4 1.247 . S
C6 O5 1.208 . S
C7 O12 1.247 . S
C7 O13 1.208 . S
C8 O0 1.315 . S
C8 O3 1.279 . S
C9 O10 1.315 . S
C9 O11 1.279 . S
O10 Cd2 2.223 . S
O10 C9 1.315 . S
O11 Cd1 2.240 . S
O11 C9 1.279 . S
O12 Cd2 2.297 . S
O12 C7 1.247 . S
O13 Cd2 2.439 . S
O13 C7 1.208 . S
O14 Cd15 2.223 . S
O14 C22 1.315 . S
Cd15 O14 2.223 . S
Cd15 O18 2.297 . S
Cd15 O19 2.439 . S
Cd15 O25 2.240 . S
Cd16 O17 2.240 . S
Cd16 O24 2.223 . S
Cd16 O26 2.297 . S
Cd16 O27 2.439 . S
O17 Cd16 2.240 . S
O17 C22 1.279 . S
O18 Cd15 2.297 . S
O18 C20 1.247 . S
O19 Cd15 2.439 . S
O19 C20 1.208 . S
C20 O18 1.247 . S
C20 O19 1.208 . S
C21 O26 1.247 . S
C21 O27 1.208 . S
C22 O14 1.315 . S
C22 O17 1.279 . S
C23 O24 1.315 . S
C23 O25 1.279 . S
O24 Cd16 2.223 . S
O24 C23 1.315 . S
O25 Cd15 2.240 . S
O25 C23 1.279 . S
O26 Cd16 2.297 . S
O26 C21 1.247 . S
O27 Cd16 2.439 . S
O27 C21 1.208 . S
O28 Cd29 2.223 . S
O28 C36 1.315 . S
Cd29 O28 2.223 . S
Cd29 O32 2.297 . S
Cd29 O33 2.439 . S
Cd29 O39 2.240 . S
Cd30 O31 2.240 . S
Cd30 O38 2.223 . S
Cd30 O40 2.297 . S
Cd30 O41 2.439 . S
O31 Cd30 2.240 . S
O31 C36 1.279 . S
O32 Cd29 2.297 . S
O32 C34 1.247 . S
O33 Cd29 2.439 . S
O33 C34 1.208 . S
C34 O32 1.247 . S
C34 O33 1.208 . S
C35 O40 1.247 . S
C35 O41 1.208 . S
C36 O28 1.315 . S
C36 O31 1.279 . S
C37 O38 1.315 . S
C37 O39 1.279 . S
O38 Cd30 2.223 . S
O38 C37 1.315 . S
O39 Cd29 2.240 . S
O39 C37 1.279 . S
O40 Cd30 2.297 . S
O40 C35 1.247 . S
O41 Cd30 2.439 . S
O41 C35 1.208 . S
O42 Cd43 2.223 . S
O42 C50 1.315 . S
Cd43 O42 2.223 . S
Cd43 O46 2.297 . S
Cd43 O47 2.439 . S
Cd43 O53 2.240 . S
Cd44 O45 2.240 . S
Cd44 O52 2.223 . S
Cd44 O54 2.297 . S
Cd44 O55 2.439 . S
O45 Cd44 2.240 . S
O45 C50 1.279 . S
O46 Cd43 2.297 . S
O46 C48 1.247 . S
O47 Cd43 2.439 . S
O47 C48 1.208 . S
C48 O46 1.247 . S
C48 O47 1.208 . S
C49 O54 1.247 . S
C49 O55 1.208 . S
C50 O42 1.315 . S
C50 O45 1.279 . S
C51 O52 1.315 . S
C51 O53 1.279 . S
O52 Cd44 2.223 . S
O52 C51 1.315 . S
O53 Cd43 2.240 . S
O53 C51 1.279 . S
O54 Cd44 2.297 . S
O54 C49 1.247 . S
O55 Cd44 2.439 . S
O55 C49 1.208 . S
O56 Cd57 2.223 . S
O56 C64 1.315 . S
Cd57 O56 2.223 . S
Cd57 O60 2.297 . S
Cd57 O61 2.439 . S
Cd57 O67 2.240 . S
Cd58 O59 2.240 . S
Cd58 O66 2.223 . S
Cd58 O68 2.297 . S
Cd58 O69 2.439 . S
O59 Cd58 2.240 . S
O59 C64 1.279 . S
O60 Cd57 2.297 . S
O60 C62 1.247 . S
O61 Cd57 2.439 . S
O61 C62 1.208 . S
C62 O60 1.247 . S
C62 O61 1.208 . S
C63 O68 1.247 . S
C63 O69 1.208 . S
C64 O56 1.315 . S
C64 O59 1.279 . S
C65 O66 1.315 . S
C65 O67 1.279 . S
O66 Cd58 2.223 . S
O66 C65 1.315 . S
O67 Cd57 2.240 . S
O67 C65 1.279 . S
O68 Cd58 2.297 . S
O68 C63 1.247 . S
O69 Cd58 2.439 . S
O69 C63 1.208 . S
O70 Cd71 2.223 . S
O70 C78 1.315 . S
Cd71 O70 2.223 . S
Cd71 O74 2.297 . S
Cd71 O75 2.439 . S
Cd71 O81 2.240 . S
Cd72 O73 2.240 . S
Cd72 O80 2.223 . S
Cd72 O82 2.297 . S
Cd72 O83 2.439 . S
O73 Cd72 2.240 . S
O73 C78 1.279 . S
O74 Cd71 2.297 . S
O74 C76 1.247 . S
O75 Cd71 2.439 . S
O75 C76 1.208 . S
C76 O74 1.247 . S
C76 O75 1.208 . S
C77 O82 1.247 . S
C77 O83 1.208 . S
C78 O70 1.315 . S
C78 O73 1.279 . S
C79 O80 1.315 . S
C79 O81 1.279 . S
O80 Cd72 2.223 . S
O80 C79 1.315 . S
O81 Cd71 2.240 . S
O81 C79 1.279 . S
O82 Cd72 2.297 . S
O82 C77 1.247 . S
O83 Cd72 2.439 . S
O83 C77 1.208 . S
O84 Cd85 2.223 . S
O84 C92 1.315 . S
Cd85 O84 2.223 . S
Cd85 O88 2.297 . S
Cd85 O89 2.439 . S
Cd85 O95 2.240 . S
Cd86 O87 2.240 . S
Cd86 O94 2.223 . S
Cd86 O96 2.297 . S
Cd86 O97 2.439 . S
O87 Cd86 2.240 . S
O87 C92 1.279 . S
O88 Cd85 2.297 . S
O88 C90 1.247 . S
O89 Cd85 2.439 . S
O89 C90 1.208 . S
C90 O88 1.247 . S
C90 O89 1.208 . S
C91 O96 1.247 . S
C91 O97 1.208 . S
C92 O84 1.315 . S
C92 O87 1.279 . S
C93 O94 1.315 . S
C93 O95 1.279 . S
O94 Cd86 2.223 . S
O94 C93 1.315 . S
O95 Cd85 2.240 . S
O95 C93 1.279 . S
O96 Cd86 2.297 . S
O96 C91 1.247 . S
O97 Cd86 2.439 . S
O97 C91 1.208 . S
O98 Cd99 2.223 . S
O98 C106 1.315 . S
Cd99 O98 2.223 . S
Cd99 O102 2.297 . S
Cd99 O103 2.439 . S
Cd99 O109 2.240 . S
Cd100 O101 2.240 . S
Cd100 O108 2.223 . S
Cd100 O110 2.297 . S
Cd100 O111 2.439 . S
O101 Cd100 2.240 . S
O101 C106 1.279 . S
O102 Cd99 2.297 . S
O102 C104 1.247 . S
O103 Cd99 2.439 . S
O103 C104 1.208 . S
C104 O102 1.247 . S
C104 O103 1.208 . S
C105 O110 1.247 . S
C105 O111 1.208 . S
C106 O98 1.315 . S
C106 O101 1.279 . S
C107 O108 1.315 . S
C107 O109 1.279 . S
O108 Cd100 2.223 . S
O108 C107 1.315 . S
O109 Cd99 2.240 . S
O109 C107 1.279 . S
O110 Cd100 2.297 . S
O110 C105 1.247 . S
O111 Cd100 2.439 . S
O111 C105 1.208 . S
O112 Cd113 2.223 . S
O112 C120 1.315 . S
Cd113 O112 2.223 . S
Cd113 O116 2.297 . S
Cd113 O117 2.439 . S
Cd113 O123 2.240 . S
Cd114 O115 2.240 . S
Cd114 O122 2.223 . S
Cd114 O124 2.297 . S
Cd114 O125 2.439 . S
O115 Cd114 2.240 . S
O115 C120 1.279 . S
O116 Cd113 2.297 . S
O116 C118 1.247 . S
O117 Cd113 2.439 . S
O117 C118 1.208 . S
C118 O116 1.247 . S
C118 O117 1.208 . S
C119 O124 1.247 . S
C119 O125 1.208 . S
C120 O112 1.315 . S
C120 O115 1.279 . S
C121 O122 1.315 . S
C121 O123 1.279 . S
O122 Cd114 2.223 . S
O122 C121 1.315 . S
O123 Cd113 2.240 . S
O123 C121 1.279 . S
O124 Cd114 2.297 . S
O124 C119 1.247 . S
O125 Cd114 2.439 . S
O125 C119 1.208 . S
O126 Cd127 2.223 . S
O126 C134 1.315 . S
Cd127 O126 2.223 . S
Cd127 O130 2.297 . S
Cd127 O131 2.439 . S
Cd127 O137 2.240 . S
Cd128 O129 2.240 . S
Cd128 O136 2.223 . S
Cd128 O138 2.297 . S
Cd128 O139 2.439 . S
O129 Cd128 2.240 . S
O129 C134 1.279 . S
O130 Cd127 2.297 . S
O130 C132 1.247 . S
O131 Cd127 2.439 . S
O131 C132 1.208 . S
C132 O130 1.247 . S
C132 O131 1.208 . S
C133 O138 1.247 . S
C133 O139 1.208 . S
C134 O126 1.315 . S
C134 O129 1.279 . S
C135 O136 1.315 . S
C135 O137 1.279 . S
O136 Cd128 2.223 . S
O136 C135 1.315 . S
O137 Cd127 2.240 . S
O137 C135 1.279 . S
O138 Cd128 2.297 . S
O138 C133 1.247 . S
O139 Cd128 2.439 . S
O139 C133 1.208 . S
O140 Cd141 2.223 . S
O140 C148 1.315 . S
Cd141 O140 2.223 . S
Cd141 O144 2.297 . S
Cd141 O145 2.439 . S
Cd141 O151 2.240 . S
Cd142 O143 2.240 . S
Cd142 O150 2.223 . S
Cd142 O152 2.297 . S
Cd142 O153 2.439 . S
O143 Cd142 2.240 . S
O143 C148 1.279 . S
O144 Cd141 2.297 . S
O144 C146 1.247 . S
O145 Cd141 2.439 . S
O145 C146 1.208 . S
C146 O144 1.247 . S
C146 O145 1.208 . S
C147 O152 1.247 . S
C147 O153 1.208 . S
C148 O140 1.315 . S
C148 O143 1.279 . S
C149 O150 1.315 . S
C149 O151 1.279 . S
O150 Cd142 2.223 . S
O150 C149 1.315 . S
O151 Cd141 2.240 . S
O151 C149 1.279 . S
O152 Cd142 2.297 . S
O152 C147 1.247 . S
O153 Cd142 2.439 . S
O153 C147 1.208 . S
O154 Cd155 2.223 . S
O154 C162 1.315 . S
Cd155 O154 2.223 . S
Cd155 O158 2.297 . S
Cd155 O159 2.439 . S
Cd155 O165 2.240 . S
Cd156 O157 2.240 . S
Cd156 O164 2.223 . S
Cd156 O166 2.297 . S
Cd156 O167 2.439 . S
O157 Cd156 2.240 . S
O157 C162 1.279 . S
O158 Cd155 2.297 . S
O158 C160 1.247 . S
O159 Cd155 2.439 . S
O159 C160 1.208 . S
C160 O158 1.247 . S
C160 O159 1.208 . S
C161 O166 1.247 . S
C161 O167 1.208 . S
C162 O154 1.315 . S
C162 O157 1.279 . S
C163 O164 1.315 . S
C163 O165 1.279 . S
O164 Cd156 2.223 . S
O164 C163 1.315 . S
O165 Cd155 2.240 . S
O165 C163 1.279 . S
O166 Cd156 2.297 . S
O166 C161 1.247 . S
O167 Cd156 2.439 . S
O167 C161 1.208 . S
O168 Cd169 2.223 . S
O168 C176 1.315 . S
Cd169 O168 2.223 . S
Cd169 O172 2.297 . S
Cd169 O173 2.439 . S
Cd169 O179 2.240 . S
Cd170 O171 2.240 . S
Cd170 O178 2.223 . S
Cd170 O180 2.297 . S
Cd170 O181 2.439 . S
O171 Cd170 2.240 . S
O171 C176 1.279 . S
O172 Cd169 2.297 . S
O172 C174 1.247 . S
O173 Cd169 2.439 . S
O173 C174 1.208 . S
C174 O172 1.247 . S
C174 O173 1.208 . S
C175 O180 1.247 . S
C175 O181 1.208 . S
C176 O168 1.315 . S
C176 O171 1.279 . S
C177 O178 1.315 . S
C177 O179 1.279 . S
O178 Cd170 2.223 . S
O178 C177 1.315 . S
O179 Cd169 2.240 . S
O179 C177 1.279 . S
O180 Cd170 2.297 . S
O180 C175 1.247 . S
O181 Cd170 2.439 . S
O181 C175 1.208 . S
O182 Cd183 2.223 . S
O182 C190 1.315 . S
Cd183 O182 2.223 . S
Cd183 O186 2.297 . S
Cd183 O187 2.439 . S
Cd183 O193 2.240 . S
Cd184 O185 2.240 . S
Cd184 O192 2.223 . S
Cd184 O194 2.297 . S
Cd184 O195 2.439 . S
O185 Cd184 2.240 . S
O185 C190 1.279 . S
O186 Cd183 2.297 . S
O186 C188 1.247 . S
O187 Cd183 2.439 . S
O187 C188 1.208 . S
C188 O186 1.247 . S
C188 O187 1.208 . S
C189 O194 1.247 . S
C189 O195 1.208 . S
C190 O182 1.315 . S
C190 O185 1.279 . S
C191 O192 1.315 . S
C191 O193 1.279 . S
O192 Cd184 2.223 . S
O192 C191 1.315 . S
O193 Cd183 2.240 . S
O193 C191 1.279 . S
O194 Cd184 2.297 . S
O194 C189 1.247 . S
O195 Cd184 2.439 . S
O195 C189 1.208 . S
O196 Cd197 2.223 . S
O196 C204 1.315 . S
Cd197 O196 2.223 . S
Cd197 O200 2.297 . S
Cd197 O201 2.439 . S
Cd197 O207 2.240 . S
Cd198 O199 2.240 . S
Cd198 O206 2.223 . S
Cd198 O208 2.297 . S
Cd198 O209 2.439 . S
O199 Cd198 2.240 . S
O199 C204 1.279 . S
O200 Cd197 2.297 . S
O200 C202 1.247 . S
O201 Cd197 2.439 . S
O201 C202 1.208 . S
C202 O200 1.247 . S
C202 O201 1.208 . S
C203 O208 1.247 . S
C203 O209 1.208 . S
C204 O196 1.315 . S
C204 O199 1.279 . S
C205 O206 1.315 . S
C205 O207 1.279 . S
O206 Cd198 2.223 . S
O206 C205 1.315 . S
O207 Cd197 2.240 . S
O207 C205 1.279 . S
O208 Cd198 2.297 . S
O208 C203 1.247 . S
O209 Cd198 2.439 . S
O209 C203 1.208 . S
O210 Cd211 2.223 . S
O210 C218 1.315 . S
Cd211 O210 2.223 . S
Cd211 O214 2.297 . S
Cd211 O215 2.439 . S
Cd211 O221 2.240 . S
Cd212 O213 2.240 . S
Cd212 O220 2.223 . S
Cd212 O222 2.297 . S
Cd212 O223 2.439 . S
O213 Cd212 2.240 . S
O213 C218 1.279 . S
O214 Cd211 2.297 . S
O214 C216 1.247 . S
O215 Cd211 2.439 . S
O215 C216 1.208 . S
C216 O214 1.247 . S
C216 O215 1.208 . S
C217 O222 1.247 . S
C217 O223 1.208 . S
C218 O210 1.315 . S
C218 O213 1.279 . S
C219 O220 1.315 . S
C219 O221 1.279 . S
O220 Cd212 2.223 . S
O220 C219 1.315 . S
O221 Cd211 2.240 . S
O221 C219 1.279 . S
O222 Cd212 2.297 . S
O222 C217 1.247 . S
O223 Cd212 2.439 . S
O223 C217 1.208 . S
O224 Cd225 2.223 . S
O224 C232 1.315 . S
Cd225 O224 2.223 . S
Cd225 O228 2.297 . S
Cd225 O229 2.439 . S
Cd225 O235 2.240 . S
Cd226 O227 2.240 . S
Cd226 O234 2.223 . S
Cd226 O236 2.297 . S
Cd226 O237 2.439 . S
O227 Cd226 2.240 . S
O227 C232 1.279 . S
O228 Cd225 2.297 . S
O228 C230 1.247 . S
O229 Cd225 2.439 . S
O229 C230 1.208 . S
C230 O228 1.247 . S
C230 O229 1.208 . S
C231 O236 1.247 . S
C231 O237 1.208 . S
C232 O224 1.315 . S
C232 O227 1.279 . S
C233 O234 1.315 . S
C233 O235 1.279 . S
O234 Cd226 2.223 . S
O234 C233 1.315 . S
O235 Cd225 2.240 . S
O235 C233 1.279 . S
O236 Cd226 2.297 . S
O236 C231 1.247 . S
O237 Cd226 2.439 . S
O237 C231 1.208 . S
O238 Cd239 2.223 . S
O238 C246 1.315 . S
Cd239 O238 2.223 . S
Cd239 O242 2.297 . S
Cd239 O243 2.439 . S
Cd239 O249 2.240 . S
Cd240 O241 2.240 . S
Cd240 O248 2.223 . S
Cd240 O250 2.297 . S
Cd240 O251 2.439 . S
O241 Cd240 2.240 . S
O241 C246 1.279 . S
O242 Cd239 2.297 . S
O242 C244 1.247 . S
O243 Cd239 2.439 . S
O243 C244 1.208 . S
C244 O242 1.247 . S
C244 O243 1.208 . S
C245 O250 1.247 . S
C245 O251 1.208 . S
C246 O238 1.315 . S
C246 O241 1.279 . S
C247 O248 1.315 . S
C247 O249 1.279 . S
O248 Cd240 2.223 . S
O248 C247 1.315 . S
O249 Cd239 2.240 . S
O249 C247 1.279 . S
O250 Cd240 2.297 . S
O250 C245 1.247 . S
O251 Cd240 2.439 . S
O251 C245 1.208 . S
O252 Cd253 2.223 . S
O252 C260 1.315 . S
Cd253 O252 2.223 . S
Cd253 O256 2.297 . S
Cd253 O257 2.439 . S
Cd253 O263 2.240 . S
Cd254 O255 2.240 . S
Cd254 O262 2.223 . S
Cd254 O264 2.297 . S
Cd254 O265 2.439 . S
O255 Cd254 2.240 . S
O255 C260 1.279 . S
O256 Cd253 2.297 . S
O256 C258 1.247 . S
O257 Cd253 2.439 . S
O257 C258 1.208 . S
C258 O256 1.247 . S
C258 O257 1.208 . S
C259 O264 1.247 . S
C259 O265 1.208 . S
C260 O252 1.315 . S
C260 O255 1.279 . S
C261 O262 1.315 . S
C261 O263 1.279 . S
O262 Cd254 2.223 . S
O262 C261 1.315 . S
O263 Cd253 2.240 . S
O263 C261 1.279 . S
O264 Cd254 2.297 . S
O264 C259 1.247 . S
O265 Cd254 2.439 . S
O265 C259 1.208 . S
O266 Cd267 2.223 . S
O266 C274 1.315 . S
Cd267 O266 2.223 . S
Cd267 O270 2.297 . S
Cd267 O271 2.439 . S
Cd267 O277 2.240 . S
Cd268 O269 2.240 . S
Cd268 O276 2.223 . S
Cd268 O278 2.297 . S
Cd268 O279 2.439 . S
O269 Cd268 2.240 . S
O269 C274 1.279 . S
O270 Cd267 2.297 . S
O270 C272 1.247 . S
O271 Cd267 2.439 . S
O271 C272 1.208 . S
C272 O270 1.247 . S
C272 O271 1.208 . S
C273 O278 1.247 . S
C273 O279 1.208 . S
C274 O266 1.315 . S
C274 O269 1.279 . S
C275 O276 1.315 . S
C275 O277 1.279 . S
O276 Cd268 2.223 . S
O276 C275 1.315 . S
O277 Cd267 2.240 . S
O277 C275 1.279 . S
O278 Cd268 2.297 . S
O278 C273 1.247 . S
O279 Cd268 2.439 . S
O279 C273 1.208 . S
O280 Cd281 2.223 . S
O280 C288 1.315 . S
Cd281 O280 2.223 . S
Cd281 O284 2.297 . S
Cd281 O285 2.439 . S
Cd281 O291 2.240 . S
Cd282 O283 2.240 . S
Cd282 O290 2.223 . S
Cd282 O292 2.297 . S
Cd282 O293 2.439 . S
O283 Cd282 2.240 . S
O283 C288 1.279 . S
O284 Cd281 2.297 . S
O284 C286 1.247 . S
O285 Cd281 2.439 . S
O285 C286 1.208 . S
C286 O284 1.247 . S
C286 O285 1.208 . S
C287 O292 1.247 . S
C287 O293 1.208 . S
C288 O280 1.315 . S
C288 O283 1.279 . S
C289 O290 1.315 . S
C289 O291 1.279 . S
O290 Cd282 2.223 . S
O290 C289 1.315 . S
O291 Cd281 2.240 . S
O291 C289 1.279 . S
O292 Cd282 2.297 . S
O292 C287 1.247 . S
O293 Cd282 2.439 . S
O293 C287 1.208 . S
O294 Cd295 2.223 . S
O294 C302 1.315 . S
Cd295 O294 2.223 . S
Cd295 O298 2.297 . S
Cd295 O299 2.439 . S
Cd295 O305 2.240 . S
Cd296 O297 2.240 . S
Cd296 O304 2.223 . S
Cd296 O306 2.297 . S
Cd296 O307 2.439 . S
O297 Cd296 2.240 . S
O297 C302 1.279 . S
O298 Cd295 2.297 . S
O298 C300 1.247 . S
O299 Cd295 2.439 . S
O299 C300 1.208 . S
C300 O298 1.247 . S
C300 O299 1.208 . S
C301 O306 1.247 . S
C301 O307 1.208 . S
C302 O294 1.315 . S
C302 O297 1.279 . S
C303 O304 1.315 . S
C303 O305 1.279 . S
O304 Cd296 2.223 . S
O304 C303 1.315 . S
O305 Cd295 2.240 . S
O305 C303 1.279 . S
O306 Cd296 2.297 . S
O306 C301 1.247 . S
O307 Cd296 2.439 . S
O307 C301 1.208 . S
O308 Cd309 2.223 . S
O308 C316 1.315 . S
Cd309 O308 2.223 . S
Cd309 O312 2.297 . S
Cd309 O313 2.439 . S
Cd309 O319 2.240 . S
Cd310 O311 2.240 . S
Cd310 O318 2.223 . S
Cd310 O320 2.297 . S
Cd310 O321 2.439 . S
O311 Cd310 2.240 . S
O311 C316 1.279 . S
O312 Cd309 2.297 . S
O312 C314 1.247 . S
O313 Cd309 2.439 . S
O313 C314 1.208 . S
C314 O312 1.247 . S
C314 O313 1.208 . S
C315 O320 1.247 . S
C315 O321 1.208 . S
C316 O308 1.315 . S
C316 O311 1.279 . S
C317 O318 1.315 . S
C317 O319 1.279 . S
O318 Cd310 2.223 . S
O318 C317 1.315 . S
O319 Cd309 2.240 . S
O319 C317 1.279 . S
O320 Cd310 2.297 . S
O320 C315 1.247 . S
O321 Cd310 2.439 . S
O321 C315 1.208 . S
O322 Cd323 2.223 . S
O322 C330 1.315 . S
Cd323 O322 2.223 . S
Cd323 O326 2.297 . S
Cd323 O327 2.439 . S
Cd323 O333 2.240 . S
Cd324 O325 2.240 . S
Cd324 O332 2.223 . S
Cd324 O334 2.297 . S
Cd324 O335 2.439 . S
O325 Cd324 2.240 . S
O325 C330 1.279 . S
O326 Cd323 2.297 . S
O326 C328 1.247 . S
O327 Cd323 2.439 . S
O327 C328 1.208 . S
C328 O326 1.247 . S
C328 O327 1.208 . S
C329 O334 1.247 . S
C329 O335 1.208 . S
C330 O322 1.315 . S
C330 O325 1.279 . S
C331 O332 1.315 . S
C331 O333 1.279 . S
O332 Cd324 2.223 . S
O332 C331 1.315 . S
O333 Cd323 2.240 . S
O333 C331 1.279 . S
O334 Cd324 2.297 . S
O334 C329 1.247 . S
O335 Cd324 2.439 . S
O335 C329 1.208 . S
H336 C342 0.930 . S
H337 C346 0.930 . S
H338 C351 0.929 . S
H339 C349 0.929 . S
H340 C344 0.929 . S
H341 C350 0.929 . S
C342 H336 0.930 . S
C342 C343 1.367 . S
C342 C350 1.378 . S
C343 C342 1.367 . S
C343 C351 1.433 . S
C344 H340 0.929 . S
C344 C346 1.378 . S
C344 C348 1.350 . S
C345 C348 1.463 . S
C345 C350 1.350 . S
C345 N353 1.427 . S
C346 H337 0.930 . S
C346 C344 1.378 . S
C346 C347 1.367 . S
C347 C346 1.367 . S
C347 C349 1.433 . S
C348 C344 1.350 . S
C348 C345 1.463 . S
C348 N352 1.427 . S
C349 H339 0.929 . S
C349 C347 1.433 . S
C349 N352 1.384 . S
C350 H341 0.929 . S
C350 C342 1.378 . S
C350 C345 1.350 . S
C351 H338 0.929 . S
C351 C343 1.433 . S
C351 N353 1.384 . S
N352 C348 1.427 . S
N352 C349 1.384 . S
N353 C345 1.427 . S
N353 C351 1.384 . S
H354 C360 0.930 . S
H355 C364 0.930 . S
H356 C369 0.929 . S
H357 C367 0.929 . S
H358 C362 0.929 . S
H359 C368 0.929 . S
C360 H354 0.930 . S
C360 C361 1.367 1_655 S
C360 C368 1.378 1_655 S
C361 C360 1.367 1_455 S
C361 C369 1.433 . S
C362 H358 0.929 . S
C362 C364 1.378 . S
C362 C366 1.350 . S
C363 C366 1.463 . S
C363 C368 1.350 . S
C363 N371 1.427 . S
C364 H355 0.930 . S
C364 C362 1.378 . S
C364 C365 1.367 . S
C365 C364 1.367 . S
C365 C367 1.433 . S
C366 C362 1.350 . S
C366 C363 1.463 . S
C366 N370 1.427 . S
C367 H357 0.929 . S
C367 C365 1.433 . S
C367 N370 1.384 . S
C368 H359 0.929 . S
C368 C360 1.378 1_455 S
C368 C363 1.350 . S
C369 H356 0.929 . S
C369 C361 1.433 . S
C369 N371 1.384 . S
N370 C366 1.427 . S
N370 C367 1.384 . S
N371 C363 1.427 . S
N371 C369 1.384 . S
H372 C378 0.930 . S
H373 C382 0.930 . S
H374 C387 0.929 . S
H375 C385 0.913 1_554 S
H376 C380 0.929 . S
H377 C386 0.929 . S
C378 H372 0.930 . S
C378 C379 1.367 . S
C378 C386 1.378 . S
C379 C378 1.367 . S
C379 C387 1.433 . S
C380 H376 0.929 . S
C380 C382 1.378 . S
C380 C384 1.350 . S
C381 C384 1.463 . S
C381 C386 1.350 . S
C381 N389 1.427 . S
C382 H373 0.930 . S
C382 C380 1.378 . S
C382 C383 1.367 . S
C383 C382 1.367 . S
C383 C385 1.437 . S
C384 C380 1.350 . S
C384 C381 1.463 . S
C384 N388 1.427 . S
C385 H375 0.913 1_556 S
C385 C383 1.437 . S
C385 N388 1.397 . S
C386 H377 0.929 . S
C386 C378 1.378 . S
C386 C381 1.350 . S
C387 H374 0.929 . S
C387 C379 1.433 . S
C387 N389 1.384 . S
N388 C384 1.427 . S
N388 C385 1.397 . S
N389 C381 1.427 . S
N389 C387 1.384 . S
H390 C396 0.930 . S
H391 C400 0.930 . S
H392 C405 0.929 . S
H393 C403 0.929 . S
H394 C398 0.929 . S
H395 C404 0.929 . S
C396 H390 0.930 . S
C396 C397 1.367 . S
C396 C404 1.378 . S
C397 C396 1.367 . S
C397 C405 1.433 . S
C398 H394 0.929 . S
C398 C400 1.378 . S
C398 C402 1.350 . S
C399 C402 1.463 . S
C399 C404 1.350 . S
C399 N407 1.427 . S
C400 H391 0.930 . S
C400 C398 1.378 . S
C400 C401 1.367 . S
C401 C400 1.367 . S
C401 C403 1.433 . S
C402 C398 1.350 . S
C402 C399 1.463 . S
C402 N406 1.427 . S
C403 H393 0.929 . S
C403 C401 1.433 . S
C403 N406 1.384 . S
C404 H395 0.929 . S
C404 C396 1.378 . S
C404 C399 1.350 . S
C405 H392 0.929 . S
C405 C397 1.433 . S
C405 N407 1.384 . S
N406 C402 1.427 . S
N406 C403 1.384 . S
N407 C399 1.427 . S
N407 C405 1.384 . S
H408 C414 0.930 . S
H409 C418 0.930 . S
H410 C423 0.929 . S
H411 C421 0.929 . S
H412 C416 0.929 . S
H413 C422 0.929 . S
C414 H408 0.930 . S
C414 C415 1.367 . S
C414 C422 1.378 . S
C415 C414 1.367 . S
C415 C423 1.433 . S
C416 H412 0.929 . S
C416 C418 1.378 . S
C416 C420 1.350 . S
C417 C420 1.463 . S
C417 C422 1.350 . S
C417 N425 1.427 . S
C418 H409 0.930 . S
C418 C416 1.378 . S
C418 C419 1.367 . S
C419 C418 1.367 . S
C419 C421 1.433 . S
C420 C416 1.350 . S
C420 C417 1.463 . S
C420 N424 1.427 . S
C421 H411 0.929 . S
C421 C419 1.433 . S
C421 N424 1.384 . S
C422 H413 0.929 . S
C422 C414 1.378 . S
C422 C417 1.350 . S
C423 H410 0.929 . S
C423 C415 1.433 . S
C423 N425 1.384 . S
N424 C420 1.427 . S
N424 C421 1.384 . S
N425 C417 1.427 . S
N425 C423 1.384 . S
H426 C432 0.930 . S
H427 C436 0.930 . S
H428 C441 0.929 . S
H429 C439 0.929 . S
H430 C434 0.929 . S
H431 C440 0.929 . S
C432 H426 0.930 . S
C432 C433 1.367 . S
C432 C440 1.378 . S
C433 C432 1.367 . S
C433 C441 1.433 . S
C434 H430 0.929 . S
C434 C436 1.378 . S
C434 C438 1.350 . S
C435 C438 1.463 . S
C435 C440 1.350 . S
C435 N443 1.427 . S
C436 H427 0.930 . S
C436 C434 1.378 . S
C436 C437 1.367 . S
C437 C436 1.367 . S
C437 C439 1.433 1_655 S
C438 C434 1.350 . S
C438 C435 1.463 . S
C438 N442 1.427 . S
C439 H429 0.929 . S
C439 C437 1.433 1_455 S
C439 N442 1.384 1_455 S
C440 H431 0.929 . S
C440 C432 1.378 . S
C440 C435 1.350 . S
C441 H428 0.929 . S
C441 C433 1.433 . S
C441 N443 1.384 . S
N442 C438 1.427 . S
N442 C439 1.384 1_655 S
N443 C435 1.427 . S
N443 C441 1.384 . S
H444 C450 0.930 . S
H445 C454 0.930 . S
H446 C459 0.929 . S
H447 C457 0.929 . S
H448 C452 0.929 . S
H449 C458 0.929 . S
C450 H444 0.930 . S
C450 C451 1.367 . S
C450 C458 1.378 . S
C451 C450 1.367 . S
C451 C459 1.433 . S
C452 H448 0.929 . S
C452 C454 1.378 . S
C452 C456 1.350 . S
C453 C456 1.463 . S
C453 C458 1.350 . S
C453 N461 1.427 . S
C454 H445 0.930 . S
C454 C452 1.378 . S
C454 C455 1.367 . S
C455 C454 1.367 . S
C455 C457 1.433 1_554 S
C456 C452 1.350 . S
C456 C453 1.463 . S
C456 N460 1.427 . S
C457 H447 0.929 . S
C457 C455 1.433 1_556 S
C457 N460 1.383 1_556 S
C458 H449 0.929 . S
C458 C450 1.378 . S
C458 C453 1.350 . S
C459 H446 0.929 . S
C459 C451 1.433 . S
C459 N461 1.384 . S
N460 C456 1.427 . S
N460 C457 1.383 1_554 S
N461 C453 1.427 . S
N461 C459 1.384 . S
H462 C468 0.930 . S
H463 C472 0.930 . S
H464 C477 0.929 . S
H465 C475 0.929 . S
H466 C470 0.929 . S
H467 C476 0.929 . S
C468 H462 0.930 . S
C468 C469 1.367 . S
C468 C476 1.378 . S
C469 C468 1.367 . S
C469 C477 1.433 . S
C470 H466 0.929 . S
C470 C472 1.378 . S
C470 C474 1.350 . S
C471 C474 1.463 . S
C471 C476 1.350 . S
C471 N479 1.427 . S
C472 H463 0.930 . S
C472 C470 1.378 . S
C472 C473 1.367 . S
C473 C472 1.367 . S
C473 C475 1.433 . S
C474 C470 1.350 . S
C474 C471 1.463 . S
C474 N478 1.427 . S
C475 H465 0.929 . S
C475 C473 1.433 . S
C475 N478 1.384 . S
C476 H467 0.929 . S
C476 C468 1.378 . S
C476 C471 1.350 . S
C477 H464 0.929 . S
C477 C469 1.433 . S
C477 N479 1.384 . S
N478 C474 1.427 . S
N478 C475 1.384 . S
N479 C471 1.427 . S
N479 C477 1.384 . S
H480 C486 0.930 . S
H481 C490 0.930 . S
H482 C495 0.929 . S
H483 C493 0.929 . S
H484 C488 0.929 . S
H485 C494 0.929 . S
C486 H480 0.930 . S
C486 C487 1.367 . S
C486 C494 1.378 . S
C487 C486 1.367 . S
C487 C495 1.433 . S
C488 H484 0.929 . S
C488 C490 1.378 . S
C488 C492 1.350 . S
C489 C492 1.463 . S
C489 C494 1.350 . S
C489 N497 1.427 . S
C490 H481 0.930 . S
C490 C488 1.378 . S
C490 C491 1.367 . S
C491 C490 1.367 . S
C491 C493 1.433 . S
C492 C488 1.350 . S
C492 C489 1.463 . S
C492 N496 1.427 . S
C493 H483 0.929 . S
C493 C491 1.433 . S
C493 N496 1.384 . S
C494 H485 0.929 . S
C494 C486 1.378 . S
C494 C489 1.350 . S
C495 H482 0.929 . S
C495 C487 1.433 . S
C495 N497 1.384 . S
N496 C492 1.427 . S
N496 C493 1.384 . S
N497 C489 1.427 . S
N497 C495 1.384 . S
H498 C504 0.930 . S
H499 C508 0.930 . S
H500 C513 0.929 1_565 S
H501 C511 0.929 . S
H502 C506 0.929 . S
H503 C512 0.929 . S
C504 H498 0.930 . S
C504 C505 1.367 . S
C504 C512 1.378 . S
C505 C504 1.367 . S
C505 C513 1.433 . S
C506 H502 0.929 . S
C506 C508 1.378 . S
C506 C510 1.350 . S
C507 C510 1.463 . S
C507 C512 1.350 . S
C507 N515 1.427 . S
C508 H499 0.930 . S
C508 C506 1.378 . S
C508 C509 1.367 . S
C509 C508 1.367 . S
C509 C511 1.433 . S
C510 C506 1.350 . S
C510 C507 1.463 . S
C510 N514 1.427 . S
C511 H501 0.929 . S
C511 C509 1.433 . S
C511 N514 1.384 . S
C512 H503 0.929 . S
C512 C504 1.378 . S
C512 C507 1.350 . S
C513 H500 0.929 1_545 S
C513 C505 1.433 . S
C513 N515 1.384 . S
N514 C510 1.427 . S
N514 C511 1.384 . S
N515 C507 1.427 . S
N515 C513 1.384 . S
H516 C522 0.930 . S
H517 C526 0.930 . S
H518 C531 0.929 . S
H519 C529 0.929 . S
H520 C524 0.929 . S
H521 C530 0.929 . S
C522 H516 0.930 . S
C522 C523 1.367 . S
C522 C530 1.378 . S
C523 C522 1.367 . S
C523 C531 1.433 . S
C524 H520 0.929 . S
C524 C526 1.378 . S
C524 C528 1.350 . S
C525 C528 1.463 . S
C525 C530 1.350 . S
C525 N533 1.427 . S
C526 H517 0.930 . S
C526 C524 1.378 . S
C526 C527 1.367 . S
C527 C526 1.367 . S
C527 C529 1.433 1_565 S
C528 C524 1.350 . S
C528 C525 1.463 . S
C528 N532 1.427 . S
C529 H519 0.929 . S
C529 C527 1.433 1_545 S
C529 N532 1.384 1_545 S
C530 H521 0.929 . S
C530 C522 1.378 . S
C530 C525 1.350 . S
C531 H518 0.929 . S
C531 C523 1.433 . S
C531 N533 1.384 . S
N532 C528 1.427 . S
N532 C529 1.384 1_565 S
N533 C525 1.427 . S
N533 C531 1.384 . S
H534 C540 0.930 . S
H535 C544 0.930 . S
H536 C549 0.929 . S
H537 C547 0.929 . S
H538 C542 0.929 . S
H539 C548 0.929 . S
C540 H534 0.930 . S
C540 C541 1.367 . S
C540 C548 1.378 . S
C541 C540 1.367 . S
C541 C549 1.433 . S
C542 H538 0.929 . S
C542 C544 1.378 . S
C542 C546 1.350 . S
C543 C546 1.463 . S
C543 C548 1.350 . S
C543 N551 1.427 . S
C544 H535 0.930 . S
C544 C542 1.378 . S
C544 C545 1.367 . S
C545 C544 1.367 . S
C545 C547 1.433 . S
C546 C542 1.350 . S
C546 C543 1.463 . S
C546 N550 1.427 . S
C547 H537 0.929 . S
C547 C545 1.433 . S
C547 N550 1.384 . S
C548 H539 0.929 . S
C548 C540 1.378 . S
C548 C543 1.350 . S
C549 H536 0.929 . S
C549 C541 1.433 . S
C549 N551 1.384 . S
N550 C546 1.427 . S
N550 C547 1.384 . S
N551 C543 1.427 . S
N551 C549 1.384 . S
H552 C558 0.930 . S
H553 C562 0.930 . S
H554 C567 0.929 . S
H555 C565 0.929 . S
H556 C560 0.929 . S
H557 C566 0.929 . S
C558 H552 0.930 . S
C558 C559 1.367 . S
C558 C566 1.378 . S
C559 C558 1.367 . S
C559 C567 1.433 . S
C560 H556 0.929 . S
C560 C562 1.378 . S
C560 C564 1.350 . S
C561 C564 1.463 . S
C561 C566 1.350 . S
C561 N569 1.427 . S
C562 H553 0.930 . S
C562 C560 1.378 . S
C562 C563 1.367 . S
C563 C562 1.367 . S
C563 C565 1.433 . S
C564 C560 1.350 . S
C564 C561 1.463 . S
C564 N568 1.427 . S
C565 H555 0.929 . S
C565 C563 1.433 . S
C565 N568 1.384 . S
C566 H557 0.929 . S
C566 C558 1.378 . S
C566 C561 1.350 . S
C567 H554 0.929 . S
C567 C559 1.433 . S
C567 N569 1.384 . S
N568 C564 1.427 . S
N568 C565 1.384 . S
N569 C561 1.427 . S
N569 C567 1.384 . S
H570 C576 0.930 . S
H571 C580 0.930 . S
H572 C585 0.929 . S
H573 C583 0.929 . S
H574 C578 0.929 . S
H575 C584 0.929 . S
C576 H570 0.930 . S
C576 C577 1.367 . S
C576 C584 1.378 . S
C577 C576 1.367 . S
C577 C585 1.433 1_565 S
C578 H574 0.929 . S
C578 C580 1.378 . S
C578 C582 1.350 . S
C579 C582 1.463 . S
C579 C584 1.350 1_545 S
C579 N587 1.427 . S
C580 H571 0.930 . S
C580 C578 1.378 . S
C580 C581 1.367 . S
C581 C580 1.367 . S
C581 C583 1.433 . S
C582 C578 1.350 . S
C582 C579 1.463 . S
C582 N586 1.427 . S
C583 H573 0.929 . S
C583 C581 1.433 . S
C583 N586 1.384 . S
C584 H575 0.929 . S
C584 C576 1.378 . S
C584 C579 1.350 1_565 S
C585 H572 0.929 . S
C585 C577 1.433 1_545 S
C585 N587 1.384 . S
N586 C582 1.427 . S
N586 C583 1.384 . S
N587 C579 1.427 . S
N587 C585 1.384 . S
H588 C594 0.930 . S
H589 C598 0.930 . S
H590 C603 0.929 . S
H591 C601 0.929 . S
H592 C596 0.929 . S
H593 C602 0.929 . S
C594 H588 0.930 . S
C594 C595 1.367 . S
C594 C602 1.378 . S
C595 C594 1.367 . S
C595 C603 1.433 . S
C596 H592 0.929 . S
C596 C598 1.378 1_556 S
C596 C600 1.350 . S
C597 C600 1.463 . S
C597 C602 1.350 . S
C597 N605 1.427 . S
C598 H589 0.930 . S
C598 C596 1.378 1_554 S
C598 C599 1.367 . S
C599 C598 1.367 . S
C599 C601 1.433 . S
C600 C596 1.350 . S
C600 C597 1.463 . S
C600 N604 1.410 1_556 S
C601 H591 0.929 . S
C601 C599 1.433 . S
C601 N604 1.405 . S
C602 H593 0.929 . S
C602 C594 1.378 . S
C602 C597 1.350 . S
C603 H590 0.929 . S
C603 C595 1.433 . S
C603 N605 1.384 . S
N604 C600 1.410 1_554 S
N604 C601 1.405 . S
N605 C597 1.427 . S
N605 C603 1.384 . S
H606 C612 0.930 . S
H607 C616 0.930 . S
H608 C621 0.929 . S
H609 C619 0.929 . S
H610 C614 0.929 . S
H611 C620 0.928 1_565 S
C612 H606 0.930 . S
C612 C613 1.367 . S
C612 C620 1.383 . S
C613 C612 1.367 . S
C613 C621 1.433 . S
C614 H610 0.929 . S
C614 C616 1.378 . S
C614 C618 1.350 . S
C615 C618 1.463 . S
C615 C620 1.346 1_565 S
C615 N623 1.427 . S
C616 H607 0.930 . S
C616 C614 1.378 . S
C616 C617 1.367 . S
C617 C616 1.367 . S
C617 C619 1.433 . S
C618 C614 1.350 . S
C618 C615 1.463 . S
C618 N622 1.427 . S
C619 H609 0.929 . S
C619 C617 1.433 . S
C619 N622 1.384 . S
C620 H611 0.928 1_545 S
C620 C612 1.383 . S
C620 C615 1.346 1_545 S
C621 H608 0.929 . S
C621 C613 1.433 . S
C621 N623 1.384 1_545 S
N622 C618 1.427 . S
N622 C619 1.384 . S
N623 C615 1.427 . S
N623 C621 1.384 1_565 S
H624 C630 0.930 . S
H625 C634 0.930 . S
H626 C639 0.929 . S
H627 C637 0.929 . S
H628 C632 0.929 . S
H629 C638 0.929 . S
C630 H624 0.930 . S
C630 C631 1.367 . S
C630 C638 1.378 . S
C631 C630 1.367 . S
C631 C639 1.433 . S
C632 H628 0.929 . S
C632 C634 1.378 . S
C632 C636 1.350 . S
C633 C636 1.463 . S
C633 C638 1.350 . S
C633 N641 1.427 . S
C634 H625 0.930 . S
C634 C632 1.378 . S
C634 C635 1.367 . S
C635 C634 1.367 . S
C635 C637 1.433 . S
C636 C632 1.350 . S
C636 C633 1.463 . S
C636 N640 1.427 . S
C637 H627 0.929 . S
C637 C635 1.433 . S
C637 N640 1.384 . S
C638 H629 0.929 . S
C638 C630 1.378 . S
C638 C633 1.350 . S
C639 H626 0.929 . S
C639 C631 1.433 . S
C639 N641 1.384 . S
N640 C636 1.427 . S
N640 C637 1.384 . S
N641 C633 1.427 . S
N641 C639 1.384 . S
H642 C648 0.930 . S
H643 C652 0.930 . S
H644 C657 0.929 . S
H645 C655 0.929 . S
H646 C650 0.929 . S
H647 C656 0.929 . S
C648 H642 0.930 . S
C648 C649 1.367 . S
C648 C656 1.378 . S
C649 C648 1.367 . S
C649 C657 1.433 . S
C650 H646 0.929 . S
C650 C652 1.378 . S
C650 C654 1.350 . S
C651 C654 1.463 . S
C651 C656 1.350 . S
C651 N659 1.427 . S
C652 H643 0.930 . S
C652 C650 1.378 . S
C652 C653 1.367 . S
C653 C652 1.367 . S
C653 C655 1.433 . S
C654 C650 1.350 . S
C654 C651 1.463 . S
C654 N658 1.427 . S
C655 H645 0.929 . S
C655 C653 1.433 . S
C655 N658 1.384 . S
C656 H647 0.929 . S
C656 C648 1.378 . S
C656 C651 1.350 . S
C657 H644 0.929 . S
C657 C649 1.433 . S
C657 N659 1.384 . S
N658 C654 1.427 . S
N658 C655 1.384 . S
N659 C651 1.427 . S
N659 C657 1.384 . S
H660 C666 0.930 . S
H661 C670 0.930 . S
H662 C675 0.929 . S
H663 C673 0.929 . S
H664 C668 0.929 . S
H665 C674 0.929 . S
C666 H660 0.930 . S
C666 C667 1.367 . S
C666 C674 1.378 1_556 S
C667 C666 1.367 . S
C667 C675 1.433 . S
C668 H664 0.929 . S
C668 C670 1.378 . S
C668 C672 1.350 . S
C669 C672 1.463 . S
C669 C674 1.350 . S
C669 N677 1.427 . S
C670 H661 0.930 . S
C670 C668 1.378 . S
C670 C671 1.367 . S
C671 C670 1.367 . S
C671 C673 1.433 . S
C672 C668 1.350 . S
C672 C669 1.463 . S
C672 N676 1.427 . S
C673 H663 0.929 . S
C673 C671 1.433 . S
C673 N676 1.384 . S
C674 H665 0.929 . S
C674 C666 1.378 1_554 S
C674 C669 1.350 . S
C675 H662 0.929 . S
C675 C667 1.433 . S
C675 N677 1.384 1_556 S
N676 C672 1.427 . S
N676 C673 1.384 . S
N677 C669 1.427 . S
N677 C675 1.384 1_554 S
H678 C684 0.930 . S
H679 C688 0.930 . S
H680 C693 0.929 . S
H681 C691 0.929 . S
H682 C686 0.929 . S
H683 C692 0.929 . S
C684 H678 0.930 . S
C684 C685 1.367 . S
C684 C692 1.378 . S
C685 C684 1.367 . S
C685 C693 1.433 . S
C686 H682 0.929 . S
C686 C688 1.378 . S
C686 C690 1.350 . S
C687 C690 1.463 . S
C687 C692 1.350 . S
C687 N695 1.427 . S
C688 H679 0.930 . S
C688 C686 1.378 . S
C688 C689 1.367 . S
C689 C688 1.367 . S
C689 C691 1.433 . S
C690 C686 1.350 . S
C690 C687 1.463 . S
C690 N694 1.427 . S
C691 H681 0.929 . S
C691 C689 1.433 . S
C691 N694 1.384 . S
C692 H683 0.929 . S
C692 C684 1.378 . S
C692 C687 1.350 . S
C693 H680 0.929 . S
C693 C685 1.433 . S
C693 N695 1.384 . S
N694 C690 1.427 . S
N694 C691 1.384 . S
N695 C687 1.427 . S
N695 C693 1.384 . S
H696 C702 0.930 . S
H697 C706 0.930 . S
H698 C711 0.929 . S
H699 C709 0.929 . S
H700 C704 0.929 . S
H701 C710 0.929 . S
C702 H696 0.930 . S
C702 C703 1.367 . S
C702 C710 1.378 . S
C703 C702 1.367 . S
C703 C711 1.433 . S
C704 H700 0.929 . S
C704 C706 1.378 . S
C704 C708 1.350 . S
C705 C708 1.463 . S
C705 C710 1.350 . S
C705 N713 1.427 . S
C706 H697 0.930 . S
C706 C704 1.378 . S
C706 C707 1.367 . S
C707 C706 1.367 . S
C707 C709 1.433 . S
C708 C704 1.350 . S
C708 C705 1.463 . S
C708 N712 1.427 . S
C709 H699 0.929 . S
C709 C707 1.433 . S
C709 N712 1.384 . S
C710 H701 0.929 . S
C710 C702 1.378 . S
C710 C705 1.350 . S
C711 H698 0.929 . S
C711 C703 1.433 . S
C711 N713 1.384 . S
N712 C708 1.427 . S
N712 C709 1.384 . S
N713 C705 1.427 . S
N713 C711 1.384 . S
H714 C720 0.930 . S
H715 C724 0.930 . S
H716 C729 0.929 . S
H717 C727 0.929 . S
H718 C722 0.929 . S
H719 C728 0.929 . S
C720 H714 0.930 . S
C720 C721 1.367 . S
C720 C728 1.378 1_455 S
C721 C720 1.367 . S
C721 C729 1.433 . S
C722 H718 0.929 . S
C722 C724 1.378 . S
C722 C726 1.350 . S
C723 C726 1.463 . S
C723 C728 1.350 . S
C723 N731 1.427 1_655 S
C724 H715 0.930 . S
C724 C722 1.378 . S
C724 C725 1.367 . S
C725 C724 1.367 . S
C725 C727 1.433 . S
C726 C722 1.350 . S
C726 C723 1.463 . S
C726 N730 1.427 . S
C727 H717 0.929 . S
C727 C725 1.433 . S
C727 N730 1.384 . S
C728 H719 0.929 . S
C728 C720 1.378 1_655 S
C728 C723 1.350 . S
C729 H716 0.929 . S
C729 C721 1.433 . S
C729 N731 1.384 . S
N730 C726 1.427 . S
N730 C727 1.384 . S
N731 C723 1.427 1_455 S
N731 C729 1.384 . S
H732 C738 0.930 . S
H733 C742 0.930 . S
H734 C747 0.929 . S
H735 C745 0.929 . S
H736 C740 0.929 . S
H737 C746 0.929 . S
C738 H732 0.930 . S
C738 C739 1.367 . S
C738 C746 1.378 1_655 S
C739 C738 1.367 . S
C739 C747 1.433 . S
C740 H736 0.929 . S
C740 C742 1.378 . S
C740 C744 1.350 . S
C741 C744 1.463 . S
C741 C746 1.350 . S
C741 N749 1.427 1_455 S
C742 H733 0.930 . S
C742 C740 1.378 . S
C742 C743 1.367 . S
C743 C742 1.367 . S
C743 C745 1.433 . S
C744 C740 1.350 . S
C744 C741 1.463 . S
C744 N748 1.427 . S
C745 H735 0.929 . S
C745 C743 1.433 . S
C745 N748 1.384 . S
C746 H737 0.929 . S
C746 C738 1.378 1_455 S
C746 C741 1.350 . S
C747 H734 0.929 . S
C747 C739 1.433 . S
C747 N749 1.384 . S
N748 C744 1.427 . S
N748 C745 1.384 . S
N749 C741 1.427 1_655 S
N749 C747 1.384 . S
H750 C756 0.930 . S
H751 C760 0.930 . S
H752 C765 0.929 . S
H753 C763 0.929 . S
H754 C758 0.929 . S
H755 C764 0.929 . S
C756 H750 0.930 . S
C756 C757 1.367 . S
C756 C764 1.378 . S
C757 C756 1.367 . S
C757 C765 1.433 . S
C758 H754 0.929 . S
C758 C760 1.378 . S
C758 C762 1.350 . S
C759 C762 1.463 . S
C759 C764 1.350 . S
C759 N767 1.427 . S
C760 H751 0.930 . S
C760 C758 1.378 . S
C760 C761 1.367 . S
C761 C760 1.367 . S
C761 C763 1.433 . S
C762 C758 1.350 . S
C762 C759 1.463 . S
C762 N766 1.427 . S
C763 H753 0.929 . S
C763 C761 1.433 . S
C763 N766 1.384 . S
C764 H755 0.929 . S
C764 C756 1.378 . S
C764 C759 1.350 . S
C765 H752 0.929 . S
C765 C757 1.433 . S
C765 N767 1.384 . S
N766 C762 1.427 . S
N766 C763 1.384 . S
N767 C759 1.427 . S
N767 C765 1.384 . S
H768 C774 0.930 . S
H769 C778 0.930 . S
H770 C783 0.929 . S
H771 C781 0.929 . S
H772 C776 0.929 . S
H773 C782 0.929 . S
C774 H768 0.930 . S
C774 C775 1.367 . S
C774 C782 1.378 . S
C775 C774 1.367 . S
C775 C783 1.433 . S
C776 H772 0.929 . S
C776 C778 1.378 . S
C776 C780 1.350 . S
C777 C780 1.463 . S
C777 C782 1.350 . S
C777 N785 1.427 . S
C778 H769 0.930 . S
C778 C776 1.378 . S
C778 C779 1.367 . S
C779 C778 1.367 . S
C779 C781 1.433 . S
C780 C776 1.350 . S
C780 C777 1.463 . S
C780 N784 1.427 . S
C781 H771 0.929 . S
C781 C779 1.433 . S
C781 N784 1.384 . S
C782 H773 0.929 . S
C782 C774 1.378 . S
C782 C777 1.350 . S
C783 H770 0.929 . S
C783 C775 1.433 . S
C783 N785 1.384 . S
N784 C780 1.427 . S
N784 C781 1.384 . S
N785 C777 1.427 . S
N785 C783 1.384 . S
H786 C792 0.930 . S
H787 C796 0.930 . S
H788 C801 0.929 . S
H789 C799 0.929 . S
H790 C794 0.929 1_545 S
H791 C800 0.929 . S
C792 H786 0.930 . S
C792 C793 1.317 1_565 S
C792 C800 1.378 . S
C793 C792 1.317 1_545 S
C793 C801 1.465 . S
C794 H790 0.929 1_565 S
C794 C796 1.378 . S
C794 C798 1.350 . S
C795 C798 1.463 . S
C795 C800 1.350 . S
C795 N803 1.427 1_565 S
C796 H787 0.930 . S
C796 C794 1.378 . S
C796 C797 1.367 . S
C797 C796 1.367 . S
C797 C799 1.433 . S
C798 C794 1.350 . S
C798 C795 1.463 . S
C798 N802 1.427 . S
C799 H789 0.929 . S
C799 C797 1.433 . S
C799 N802 1.384 . S
C800 H791 0.929 . S
C800 C792 1.378 . S
C800 C795 1.350 . S
C801 H788 0.929 . S
C801 C793 1.465 . S
C801 N803 1.384 . S
N802 C798 1.427 . S
N802 C799 1.384 . S
N803 C795 1.427 1_545 S
N803 C801 1.384 . S
H804 C810 0.930 . S
H805 C814 0.930 . S
H806 C819 0.929 . S
H807 C817 0.929 . S
H808 C812 0.929 . S
H809 C818 0.929 . S
C810 H804 0.930 . S
C810 C811 1.367 . S
C810 C818 1.378 . S
C811 C810 1.367 . S
C811 C819 1.433 . S
C812 H808 0.929 . S
C812 C814 1.378 . S
C812 C816 1.350 . S
C813 C816 1.463 . S
C813 C818 1.350 . S
C813 N821 1.427 . S
C814 H805 0.930 . S
C814 C812 1.378 . S
C814 C815 1.367 . S
C815 C814 1.367 . S
C815 C817 1.433 . S
C816 C812 1.350 . S
C816 C813 1.463 . S
C816 N820 1.427 . S
C817 H807 0.929 . S
C817 C815 1.433 . S
C817 N820 1.384 . S
C818 H809 0.929 . S
C818 C810 1.378 . S
C818 C813 1.350 . S
C819 H806 0.929 . S
C819 C811 1.433 . S
C819 N821 1.384 . S
N820 C816 1.427 . S
N820 C817 1.384 . S
N821 C813 1.427 . S
N821 C819 1.384 . S
H822 C828 0.930 . S
H823 C832 0.930 . S
H824 C837 0.929 . S
H825 C835 0.929 . S
H826 C830 0.929 . S
H827 C836 0.929 . S
C828 H822 0.930 . S
C828 C829 1.367 . S
C828 C836 1.378 . S
C829 C828 1.367 . S
C829 C837 1.433 . S
C830 H826 0.929 . S
C830 C832 1.378 1_554 S
C830 C834 1.350 . S
C831 C834 1.463 . S
C831 C836 1.350 . S
C831 N839 1.427 . S
C832 H823 0.930 . S
C832 C830 1.378 1_556 S
C832 C833 1.367 1_545 S
C833 C832 1.367 1_565 S
C833 C835 1.433 . S
C834 C830 1.350 . S
C834 C831 1.463 . S
C834 N838 1.427 . S
C835 H825 0.929 . S
C835 C833 1.433 . S
C835 N838 1.384 1_566 S
C836 H827 0.929 . S
C836 C828 1.378 . S
C836 C831 1.350 . S
C837 H824 0.929 . S
C837 C829 1.433 . S
C837 N839 1.384 . S
N838 C834 1.427 . S
N838 C835 1.384 1_544 S
N839 C831 1.427 . S
N839 C837 1.384 . S
H840 C846 0.930 . S
H841 C850 0.930 . S
H842 C855 0.929 . S
H843 C853 0.929 . S
H844 C848 0.929 . S
H845 C854 0.929 . S
C846 H840 0.930 . S
C846 C847 1.367 . S
C846 C854 1.378 . S
C847 C846 1.367 . S
C847 C855 1.433 . S
C848 H844 0.929 . S
C848 C850 1.378 . S
C848 C852 1.350 . S
C849 C852 1.463 . S
C849 C854 1.350 . S
C849 N857 1.427 . S
C850 H841 0.930 . S
C850 C848 1.378 . S
C850 C851 1.367 . S
C851 C850 1.367 . S
C851 C853 1.433 . S
C852 C848 1.350 . S
C852 C849 1.463 . S
C852 N856 1.427 . S
C853 H843 0.929 . S
C853 C851 1.433 . S
C853 N856 1.384 . S
C854 H845 0.929 . S
C854 C846 1.378 . S
C854 C849 1.350 . S
C855 H842 0.929 . S
C855 C847 1.433 . S
C855 N857 1.384 . S
N856 C852 1.427 . S
N856 C853 1.384 . S
N857 C849 1.427 . S
N857 C855 1.384 . S
H858 C864 0.930 . S
H859 C868 0.930 . S
H860 C873 0.929 . S
H861 C871 0.929 . S
H862 C866 0.929 . S
H863 C872 0.929 . S
C864 H858 0.930 . S
C864 C865 1.372 . S
C864 C872 1.372 1_554 S
C865 C864 1.372 . S
C865 C873 1.433 . S
C866 H862 0.929 . S
C866 C868 1.378 . S
C866 C870 1.350 . S
C867 C870 1.463 . S
C867 C872 1.350 . S
C867 N875 1.471 . S
C868 H859 0.930 . S
C868 C866 1.378 . S
C868 C869 1.367 . S
C869 C868 1.367 . S
C869 C871 1.433 . S
C870 C866 1.350 . S
C870 C867 1.463 . S
C870 N874 1.427 . S
C871 H861 0.929 . S
C871 C869 1.433 . S
C871 N874 1.384 . S
C872 H863 0.929 . S
C872 C864 1.372 1_556 S
C872 C867 1.350 . S
C873 H860 0.929 . S
C873 C865 1.433 . S
C873 N875 1.337 1_554 S
N874 C870 1.427 . S
N874 C871 1.384 . S
N875 C867 1.471 . S
N875 C873 1.337 1_556 S
H876 C882 0.930 . S
H877 C886 0.930 . S
H878 C891 0.929 . S
H879 C889 0.929 . S
H880 C884 0.929 . S
H881 C890 0.929 . S
C882 H876 0.930 . S
C882 C883 1.367 . S
C882 C890 1.378 . S
C883 C882 1.367 . S
C883 C891 1.433 . S
C884 H880 0.929 . S
C884 C886 1.378 . S
C884 C888 1.350 . S
C885 C888 1.463 . S
C885 C890 1.350 . S
C885 N893 1.427 . S
C886 H877 0.930 . S
C886 C884 1.378 . S
C886 C887 1.367 . S
C887 C886 1.367 . S
C887 C889 1.433 . S
C888 C884 1.350 . S
C888 C885 1.463 . S
C888 N892 1.427 . S
C889 H879 0.929 . S
C889 C887 1.433 . S
C889 N892 1.384 . S
C890 H881 0.929 . S
C890 C882 1.378 . S
C890 C885 1.350 . S
C891 H878 0.929 . S
C891 C883 1.433 . S
C891 N893 1.384 . S
N892 C888 1.427 . S
N892 C889 1.384 . S
N893 C885 1.427 . S
N893 C891 1.384 . S
H894 C900 0.930 . S
H895 C904 0.930 . S
H896 C909 0.929 . S
H897 C907 0.929 . S
H898 C902 0.929 . S
H899 C908 0.929 . S
C900 H894 0.930 . S
C900 C901 1.367 . S
C900 C908 1.378 . S
C901 C900 1.367 . S
C901 C909 1.433 . S
C902 H898 0.929 . S
C902 C904 1.378 . S
C902 C906 1.350 . S
C903 C906 1.463 . S
C903 C908 1.350 . S
C903 N911 1.427 . S
C904 H895 0.930 . S
C904 C902 1.378 . S
C904 C905 1.367 . S
C905 C904 1.367 . S
C905 C907 1.433 . S
C906 C902 1.350 . S
C906 C903 1.463 . S
C906 N910 1.427 . S
C907 H897 0.929 . S
C907 C905 1.433 . S
C907 N910 1.384 . S
C908 H899 0.929 . S
C908 C900 1.378 . S
C908 C903 1.350 . S
C909 H896 0.929 . S
C909 C901 1.433 . S
C909 N911 1.384 . S
N910 C906 1.427 . S
N910 C907 1.384 . S
N911 C903 1.427 . S
N911 C909 1.384 . S
H912 C918 0.930 . S
H913 C922 0.930 . S
H914 C927 0.929 . S
H915 C925 0.929 . S
H916 C920 0.929 . S
H917 C926 0.929 . S
C918 H912 0.930 . S
C918 C919 1.367 . S
C918 C926 1.378 . S
C919 C918 1.367 . S
C919 C927 1.433 . S
C920 H916 0.929 . S
C920 C922 1.378 . S
C920 C924 1.350 . S
C921 C924 1.463 . S
C921 C926 1.350 . S
C921 N929 1.427 . S
C922 H913 0.930 . S
C922 C920 1.378 . S
C922 C923 1.367 . S
C923 C922 1.367 . S
C923 C925 1.433 . S
C924 C920 1.350 . S
C924 C921 1.463 . S
C924 N928 1.427 . S
C925 H915 0.929 . S
C925 C923 1.433 . S
C925 N928 1.384 . S
C926 H917 0.929 . S
C926 C918 1.378 . S
C926 C921 1.350 . S
C927 H914 0.929 . S
C927 C919 1.433 . S
C927 N929 1.384 . S
N928 C924 1.427 . S
N928 C925 1.384 . S
N929 C921 1.427 . S
N929 C927 1.384 . S
H930 C936 0.930 . S
H931 C940 0.930 . S
H932 C945 0.929 . S
H933 C943 0.929 . S
H934 C938 0.929 . S
H935 C944 0.929 . S
C936 H930 0.930 . S
C936 C937 1.367 1_455 S
C936 C944 1.378 1_565 S
C937 C936 1.367 1_655 S
C937 C945 1.433 . S
C938 H934 0.929 . S
C938 C940 1.378 . S
C938 C942 1.350 . S
C939 C942 1.463 . S
C939 C944 1.350 . S
C939 N947 1.427 . S
C940 H931 0.930 . S
C940 C938 1.378 . S
C940 C941 1.367 . S
C941 C940 1.367 . S
C941 C943 1.433 . S
C942 C938 1.350 . S
C942 C939 1.463 . S
C942 N946 1.427 . S
C943 H933 0.929 . S
C943 C941 1.433 . S
C943 N946 1.384 . S
C944 H935 0.929 . S
C944 C936 1.378 1_545 S
C944 C939 1.350 . S
C945 H932 0.929 . S
C945 C937 1.433 . S
C945 N947 1.384 1_665 S
N946 C942 1.427 . S
N946 C943 1.384 . S
N947 C939 1.427 . S
N947 C945 1.384 1_445 S
H948 C954 0.930 . S
H949 C958 0.930 . S
H950 C963 0.929 . S
H951 C961 0.929 . S
H952 C956 0.929 . S
H953 C962 0.929 . S
C954 H948 0.930 . S
C954 C955 1.367 . S
C954 C962 1.378 . S
C955 C954 1.367 . S
C955 C963 1.433 . S
C956 H952 0.929 . S
C956 C958 1.378 . S
C956 C960 1.350 . S
C957 C960 1.463 . S
C957 C962 1.350 . S
C957 N965 1.427 . S
C958 H949 0.930 . S
C958 C956 1.378 . S
C958 C959 1.367 . S
C959 C958 1.367 . S
C959 C961 1.433 . S
C960 C956 1.350 . S
C960 C957 1.463 . S
C960 N964 1.427 . S
C961 H951 0.929 . S
C961 C959 1.433 . S
C961 N964 1.384 . S
C962 H953 0.929 . S
C962 C954 1.378 . S
C962 C957 1.350 . S
C963 H950 0.929 . S
C963 C955 1.433 . S
C963 N965 1.384 . S
N964 C960 1.427 . S
N964 C961 1.384 . S
N965 C957 1.427 . S
N965 C963 1.384 . S
H966 C972 0.930 . S
H967 C976 0.930 . S
H968 C981 0.929 . S
H969 C979 0.929 . S
H970 C974 0.929 . S
H971 C980 0.929 . S
C972 H966 0.930 . S
C972 C973 1.367 . S
C972 C980 1.378 1_545 S
C973 C972 1.367 . S
C973 C981 1.433 . S
C974 H970 0.929 . S
C974 C976 1.378 . S
C974 C978 1.350 . S
C975 C978 1.463 . S
C975 C980 1.350 . S
C975 N983 1.427 . S
C976 H967 0.930 . S
C976 C974 1.378 . S
C976 C977 1.367 . S
C977 C976 1.367 . S
C977 C979 1.433 . S
C978 C974 1.350 . S
C978 C975 1.463 . S
C978 N982 1.427 . S
C979 H969 0.929 . S
C979 C977 1.433 . S
C979 N982 1.384 . S
C980 H971 0.929 . S
C980 C972 1.378 1_565 S
C980 C975 1.350 . S
C981 H968 0.929 . S
C981 C973 1.433 . S
C981 N983 1.384 1_545 S
N982 C978 1.427 . S
N982 C979 1.384 . S
N983 C975 1.427 . S
N983 C981 1.384 1_565 S
H984 C990 0.930 . S
H985 C994 0.930 . S
H986 C999 0.929 . S
H987 C997 0.929 . S
H988 C992 0.929 . S
H989 C998 0.929 . S
C990 H984 0.930 . S
C990 C991 1.367 . S
C990 C998 1.378 . S
C991 C990 1.367 . S
C991 C999 1.433 . S
C992 H988 0.929 . S
C992 C994 1.378 . S
C992 C996 1.350 . S
C993 C996 1.463 . S
C993 C998 1.350 . S
C993 N1001 1.427 . S
C994 H985 0.930 . S
C994 C992 1.378 . S
C994 C995 1.367 . S
C995 C994 1.367 . S
C995 C997 1.433 . S
C996 C992 1.350 . S
C996 C993 1.463 . S
C996 N1000 1.427 . S
C997 H987 0.929 . S
C997 C995 1.433 . S
C997 N1000 1.384 . S
C998 H989 0.929 . S
C998 C990 1.378 . S
C998 C993 1.350 . S
C999 H986 0.929 . S
C999 C991 1.433 . S
C999 N1001 1.384 . S
N1000 C996 1.427 . S
N1000 C997 1.384 . S
N1001 C993 1.427 . S
N1001 C999 1.384 . S
H1002 C1008 0.930 . S
H1003 C1012 0.930 . S
H1004 C1017 0.929 . S
H1005 C1015 0.929 . S
H1006 C1010 0.929 . S
H1007 C1016 0.929 . S
C1008 H1002 0.930 . S
C1008 C1009 1.367 1_655 S
C1008 C1016 1.378 . S
C1009 C1008 1.367 1_455 S
C1009 C1017 1.433 . S
C1010 H1006 0.929 . S
C1010 C1012 1.378 . S
C1010 C1014 1.350 . S
C1011 C1014 1.463 . S
C1011 C1016 1.350 . S
C1011 N1019 1.441 . S
C1012 H1003 0.930 . S
C1012 C1010 1.378 . S
C1012 C1013 1.367 . S
C1013 C1012 1.367 . S
C1013 C1015 1.433 . S
C1014 C1010 1.350 . S
C1014 C1011 1.463 . S
C1014 N1018 1.427 . S
C1015 H1005 0.929 . S
C1015 C1013 1.433 . S
C1015 N1018 1.384 . S
C1016 H1007 0.929 . S
C1016 C1008 1.378 . S
C1016 C1011 1.350 . S
C1017 H1004 0.929 . S
C1017 C1009 1.433 . S
C1017 N1019 1.376 1_455 S
N1018 C1014 1.427 . S
N1018 C1015 1.384 . S
N1019 C1011 1.441 . S
N1019 C1017 1.376 1_655 S
H1020 C1026 0.930 . S
H1021 C1030 0.930 . S
H1022 C1035 0.929 . S
H1023 C1033 0.929 . S
H1024 C1028 0.929 . S
H1025 C1034 0.929 . S
C1026 H1020 0.930 . S
C1026 C1027 1.367 . S
C1026 C1034 1.378 . S
C1027 C1026 1.367 . S
C1027 C1035 1.433 . S
C1028 H1024 0.929 . S
C1028 C1030 1.378 . S
C1028 C1032 1.350 . S
C1029 C1032 1.463 . S
C1029 C1034 1.350 . S
C1029 N1037 1.427 . S
C1030 H1021 0.930 . S
C1030 C1028 1.378 . S
C1030 C1031 1.367 . S
C1031 C1030 1.367 . S
C1031 C1033 1.433 . S
C1032 C1028 1.350 . S
C1032 C1029 1.463 . S
C1032 N1036 1.427 . S
C1033 H1023 0.929 . S
C1033 C1031 1.433 . S
C1033 N1036 1.384 . S
C1034 H1025 0.929 . S
C1034 C1026 1.378 . S
C1034 C1029 1.350 . S
C1035 H1022 0.929 . S
C1035 C1027 1.433 . S
C1035 N1037 1.384 . S
N1036 C1032 1.427 . S
N1036 C1033 1.384 . S
N1037 C1029 1.427 . S
N1037 C1035 1.384 . S
H1038 C1044 0.930 . S
H1039 C1048 0.930 . S
H1040 C1053 0.929 . S
H1041 C1051 0.929 . S
H1042 C1046 0.929 . S
H1043 C1052 0.929 . S
C1044 H1038 0.930 . S
C1044 C1045 1.367 . S
C1044 C1052 1.378 . S
C1045 C1044 1.367 . S
C1045 C1053 1.433 . S
C1046 H1042 0.929 . S
C1046 C1048 1.378 . S
C1046 C1050 1.350 . S
C1047 C1050 1.463 . S
C1047 C1052 1.350 . S
C1047 N1055 1.427 . S
C1048 H1039 0.930 . S
C1048 C1046 1.378 . S
C1048 C1049 1.367 . S
C1049 C1048 1.367 . S
C1049 C1051 1.433 . S
C1050 C1046 1.350 . S
C1050 C1047 1.463 . S
C1050 N1054 1.427 . S
C1051 H1041 0.929 . S
C1051 C1049 1.433 . S
C1051 N1054 1.384 . S
C1052 H1043 0.929 . S
C1052 C1044 1.378 . S
C1052 C1047 1.350 . S
C1053 H1040 0.929 . S
C1053 C1045 1.433 . S
C1053 N1055 1.384 . S
N1054 C1050 1.427 . S
N1054 C1051 1.384 . S
N1055 C1047 1.427 . S
N1055 C1053 1.384 . S
H1056 C1062 0.930 . S
H1057 C1066 0.930 . S
H1058 C1071 0.929 . S
H1059 C1069 0.929 . S
H1060 C1064 0.929 . S
H1061 C1070 0.929 . S
C1062 H1056 0.930 . S
C1062 C1063 1.367 . S
C1062 C1070 1.378 . S
C1063 C1062 1.367 . S
C1063 C1071 1.433 . S
C1064 H1060 0.929 . S
C1064 C1066 1.378 . S
C1064 C1068 1.350 . S
C1065 C1068 1.463 . S
C1065 C1070 1.350 . S
C1065 N1073 1.427 . S
C1066 H1057 0.930 . S
C1066 C1064 1.378 . S
C1066 C1067 1.367 . S
C1067 C1066 1.367 . S
C1067 C1069 1.433 . S
C1068 C1064 1.350 . S
C1068 C1065 1.463 . S
C1068 N1072 1.427 . S
C1069 H1059 0.929 . S
C1069 C1067 1.433 . S
C1069 N1072 1.384 . S
C1070 H1061 0.929 . S
C1070 C1062 1.378 . S
C1070 C1065 1.350 . S
C1071 H1058 0.929 . S
C1071 C1063 1.433 . S
C1071 N1073 1.384 . S
N1072 C1068 1.427 . S
N1072 C1069 1.384 . S
N1073 C1065 1.427 . S
N1073 C1071 1.384 . S
H1074 C1080 0.930 . S
H1075 C1084 0.930 . S
H1076 C1089 0.929 . S
H1077 C1087 0.929 . S
H1078 C1082 0.929 . S
H1079 C1088 0.929 . S
C1080 H1074 0.930 . S
C1080 C1081 1.367 . S
C1080 C1088 1.378 . S
C1081 C1080 1.367 . S
C1081 C1089 1.433 . S
C1082 H1078 0.929 . S
C1082 C1084 1.378 . S
C1082 C1086 1.350 . S
C1083 C1086 1.463 . S
C1083 C1088 1.350 . S
C1083 N1091 1.427 . S
C1084 H1075 0.930 . S
C1084 C1082 1.378 . S
C1084 C1085 1.367 . S
C1085 C1084 1.367 . S
C1085 C1087 1.433 . S
C1086 C1082 1.350 . S
C1086 C1083 1.463 . S
C1086 N1090 1.427 . S
C1087 H1077 0.929 . S
C1087 C1085 1.433 . S
C1087 N1090 1.384 . S
C1088 H1079 0.929 . S
C1088 C1080 1.378 . S
C1088 C1083 1.350 . S
C1089 H1076 0.929 . S
C1089 C1081 1.433 . S
C1089 N1091 1.384 . S
N1090 C1086 1.427 . S
N1090 C1087 1.384 . S
N1091 C1083 1.427 . S
N1091 C1089 1.384 . S
H1092 C1098 0.930 . S
H1093 C1102 0.930 . S
H1094 C1107 0.929 . S
H1095 C1105 0.929 . S
H1096 C1100 0.929 . S
H1097 C1106 0.942 . S
C1098 H1092 0.930 . S
C1098 C1099 1.367 . S
C1098 C1106 1.393 1_655 S
C1099 C1098 1.367 . S
C1099 C1107 1.433 1_556 S
C1100 H1096 0.929 . S
C1100 C1102 1.378 . S
C1100 C1104 1.350 . S
C1101 C1104 1.463 . S
C1101 C1106 1.322 1_554 S
C1101 N1109 1.427 . S
C1102 H1093 0.930 . S
C1102 C1100 1.378 . S
C1102 C1103 1.367 . S
C1103 C1102 1.367 . S
C1103 C1105 1.433 . S
C1104 C1100 1.350 . S
C1104 C1101 1.463 . S
C1104 N1108 1.427 . S
C1105 H1095 0.929 . S
C1105 C1103 1.433 . S
C1105 N1108 1.384 . S
C1106 H1097 0.942 . S
C1106 C1098 1.393 1_455 S
C1106 C1101 1.322 1_556 S
C1107 H1094 0.929 . S
C1107 C1099 1.433 1_554 S
C1107 N1109 1.384 1_655 S
N1108 C1104 1.427 . S
N1108 C1105 1.384 . S
N1109 C1101 1.427 . S
N1109 C1107 1.384 1_455 S
H1110 C1116 0.930 . S
H1111 C1120 0.930 . S
H1112 C1125 0.929 . S
H1113 C1123 0.929 . S
H1114 C1118 0.929 . S
H1115 C1124 0.929 . S
C1116 H1110 0.930 . S
C1116 C1117 1.367 . S
C1116 C1124 1.378 . S
C1117 C1116 1.367 . S
C1117 C1125 1.433 . S
C1118 H1114 0.929 . S
C1118 C1120 1.378 . S
C1118 C1122 1.350 . S
C1119 C1122 1.463 . S
C1119 C1124 1.350 . S
C1119 N1127 1.427 . S
C1120 H1111 0.930 . S
C1120 C1118 1.378 . S
C1120 C1121 1.367 . S
C1121 C1120 1.367 . S
C1121 C1123 1.433 . S
C1122 C1118 1.350 . S
C1122 C1119 1.463 . S
C1122 N1126 1.427 . S
C1123 H1113 0.929 . S
C1123 C1121 1.433 . S
C1123 N1126 1.384 . S
C1124 H1115 0.929 . S
C1124 C1116 1.378 . S
C1124 C1119 1.350 . S
C1125 H1112 0.929 . S
C1125 C1117 1.433 . S
C1125 N1127 1.384 . S
N1126 C1122 1.427 . S
N1126 C1123 1.384 . S
N1127 C1119 1.427 . S
N1127 C1125 1.384 . S
H1128 C1134 0.930 . S
H1129 C1138 0.930 . S
H1130 C1143 0.929 . S
H1131 C1141 0.929 . S
H1132 C1136 0.929 . S
H1133 C1142 0.929 . S
C1134 H1128 0.930 . S
C1134 C1135 1.367 . S
C1134 C1142 1.378 . S
C1135 C1134 1.367 . S
C1135 C1143 1.433 . S
C1136 H1132 0.929 . S
C1136 C1138 1.378 . S
C1136 C1140 1.350 . S
C1137 C1140 1.463 . S
C1137 C1142 1.350 . S
C1137 N1145 1.427 . S
C1138 H1129 0.930 . S
C1138 C1136 1.378 . S
C1138 C1139 1.367 . S
C1139 C1138 1.367 . S
C1139 C1141 1.433 . S
C1140 C1136 1.350 . S
C1140 C1137 1.463 . S
C1140 N1144 1.427 . S
C1141 H1131 0.929 . S
C1141 C1139 1.433 . S
C1141 N1144 1.384 . S
C1142 H1133 0.929 . S
C1142 C1134 1.378 . S
C1142 C1137 1.350 . S
C1143 H1130 0.929 . S
C1143 C1135 1.433 . S
C1143 N1145 1.384 . S
N1144 C1140 1.427 . S
N1144 C1141 1.384 . S
N1145 C1137 1.427 . S
N1145 C1143 1.384 . S
H1146 C1152 0.930 . S
H1147 C1156 0.930 . S
H1148 C1161 0.929 . S
H1149 C1159 0.929 . S
H1150 C1154 0.929 . S
H1151 C1160 0.929 . S
C1152 H1146 0.930 . S
C1152 C1153 1.367 . S
C1152 C1160 1.378 . S
C1153 C1152 1.367 . S
C1153 C1161 1.433 . S
C1154 H1150 0.929 . S
C1154 C1156 1.378 . S
C1154 C1158 1.350 . S
C1155 C1158 1.463 . S
C1155 C1160 1.350 . S
C1155 N1163 1.427 . S
C1156 H1147 0.930 . S
C1156 C1154 1.378 . S
C1156 C1157 1.367 . S
C1157 C1156 1.367 . S
C1157 C1159 1.433 . S
C1158 C1154 1.350 . S
C1158 C1155 1.463 . S
C1158 N1162 1.427 . S
C1159 H1149 0.929 . S
C1159 C1157 1.433 . S
C1159 N1162 1.384 . S
C1160 H1151 0.929 . S
C1160 C1152 1.378 . S
C1160 C1155 1.350 . S
C1161 H1148 0.929 . S
C1161 C1153 1.433 . S
C1161 N1163 1.384 . S
N1162 C1158 1.427 . S
N1162 C1159 1.384 . S
N1163 C1155 1.427 . S
N1163 C1161 1.384 . S
H1164 C1170 0.930 . S
H1165 C1174 0.930 . S
H1166 C1179 0.929 . S
H1167 C1177 0.929 . S
H1168 C1172 0.929 . S
H1169 C1178 0.929 . S
C1170 H1164 0.930 . S
C1170 C1171 1.367 . S
C1170 C1178 1.378 1_554 S
C1171 C1170 1.367 . S
C1171 C1179 1.433 1_554 S
C1172 H1168 0.929 . S
C1172 C1174 1.378 . S
C1172 C1176 1.350 . S
C1173 C1176 1.463 . S
C1173 C1178 1.350 . S
C1173 N1181 1.427 . S
C1174 H1165 0.930 . S
C1174 C1172 1.378 . S
C1174 C1175 1.367 . S
C1175 C1174 1.367 . S
C1175 C1177 1.433 . S
C1176 C1172 1.350 . S
C1176 C1173 1.463 . S
C1176 N1180 1.427 . S
C1177 H1167 0.929 . S
C1177 C1175 1.433 . S
C1177 N1180 1.384 . S
C1178 H1169 0.929 . S
C1178 C1170 1.378 1_556 S
C1178 C1173 1.350 . S
C1179 H1166 0.929 . S
C1179 C1171 1.433 1_556 S
C1179 N1181 1.384 . S
N1180 C1176 1.427 . S
N1180 C1177 1.384 . S
N1181 C1173 1.427 . S
N1181 C1179 1.384 . S
H1182 C1188 0.930 . S
H1183 C1192 0.934 . S
H1184 C1197 0.929 . S
H1185 C1195 0.929 . S
H1186 C1190 0.929 . S
H1187 C1196 0.929 . S
C1188 H1182 0.930 . S
C1188 C1189 1.367 . S
C1188 C1196 1.378 . S
C1189 C1188 1.367 . S
C1189 C1197 1.433 . S
C1190 H1186 0.929 . S
C1190 C1192 1.343 1_655 S
C1190 C1194 1.350 . S
C1191 C1194 1.463 . S
C1191 C1196 1.350 . S
C1191 N1199 1.427 . S
C1192 H1183 0.934 . S
C1192 C1190 1.343 1_455 S
C1192 C1193 1.400 . S
C1193 C1192 1.400 . S
C1193 C1195 1.433 . S
C1194 C1190 1.350 . S
C1194 C1191 1.463 . S
C1194 N1198 1.427 . S
C1195 H1185 0.929 . S
C1195 C1193 1.433 . S
C1195 N1198 1.384 1_455 S
C1196 H1187 0.929 . S
C1196 C1188 1.378 . S
C1196 C1191 1.350 . S
C1197 H1184 0.929 . S
C1197 C1189 1.433 . S
C1197 N1199 1.384 . S
N1198 C1194 1.427 . S
N1198 C1195 1.384 1_655 S
N1199 C1191 1.427 . S
N1199 C1197 1.384 . S
C343 C132 1.262 . S
C347 C6 1.266 . S
C361 C20 1.267 1_455 S
C365 C146 1.263 . S
C379 C34 1.267 . S
C383 C160 1.263 1_556 S
C397 C48 1.265 . S
C401 C118 1.263 . S
C415 C62 1.267 . S
C419 C216 1.263 . S
C433 C174 1.267 . S
C437 C76 1.262 1_655 S
C451 C90 1.267 . S
C455 C188 1.263 1_554 S
C469 C202 1.263 . S
C473 C104 1.267 . S
C487 C230 1.264 . S
C491 C258 1.263 . S
C505 C314 1.263 1_545 S
C509 C244 1.263 . S
C523 C272 1.265 . S
C527 C328 1.262 1_565 S
C541 C300 1.267 . S
C545 C286 1.262 . S
C559 C287 1.844 . S
C563 C7 1.840 . S
C577 C21 1.852 . S
C581 C245 1.840 . S
C595 C35 1.857 . S
C599 C259 1.848 . S
C613 C49 1.854 . S
C617 C273 1.854 . S
C631 C63 1.845 . S
C635 C329 1.840 . S
C649 C301 1.854 . S
C653 C77 1.841 . S
C667 C315 1.851 . S
C671 C91 1.856 . S
C685 C231 1.840 . S
C689 C105 1.852 . S
C703 C217 1.854 . S
C707 C119 1.854 . S
C721 C133 1.841 . S
C725 C175 1.843 . S
C739 C189 1.841 . S
C743 C147 1.844 . S
C757 C203 1.839 . S
C761 C161 1.847 . S
C775 C9 1.151 . S
C779 C232 1.212 . S
C793 C330 1.238 . S
C797 C23 1.142 . S
C811 C302 1.204 . S
C815 C37 1.163 . S
C829 C51 1.145 . S
C833 C316 1.207 . S
C847 C65 1.151 . S
C851 C246 1.212 . S
C865 C260 1.204 . S
C869 C79 1.160 . S
C883 C274 1.207 . S
C887 C93 1.147 . S
C901 C288 1.204 . S
C905 C107 1.160 . S
C919 C8 1.206 . S
C923 C121 1.164 . S
C937 C22 1.207 . S
C941 C135 1.146 . S
C955 C36 1.212 . S
C959 C149 1.148 . S
C973 C50 1.206 . S
C977 C163 1.148 . S
C991 C64 1.212 . S
C995 C177 1.153 . S
C1009 C78 1.208 . S
C1013 C191 1.145 . S
C1027 C205 1.157 . S
C1031 C92 1.204 . S
C1045 C106 1.210 . S
C1049 C219 1.159 . S
C1063 C120 1.205 . S
C1067 C233 1.164 . S
C1081 C247 1.159 . S
C1085 C176 1.204 . S
C1099 C190 1.208 . S
C1103 C261 1.162 . S
C1117 C275 1.164 . S
C1121 C204 1.206 . S
C1135 C289 1.144 . S
C1139 C218 1.212 . S
C1153 C303 1.163 . S
C1157 C148 1.208 . S
C1171 C162 1.204 . S
C1175 C317 1.155 . S
C1189 C331 1.158 . S
C1193 C134 1.204 . S
