# Generated by pormake.
# Topology wji, (4)-cn, num edge types: 1
# Building blocks:
#     Node 0, Type 0, BuildingBlock: CEKHIL_clean_sbu_0, # of connection points: 4
#     Node 1, Type 0, BuildingBlock: CEKHIL_clean_sbu_0, # of connection points: 4
#     Node 2, Type 0, BuildingBlock: CEKHIL_clean_sbu_0, # of connection points: 4
#     Node 3, Type 0, BuildingBlock: CEKHIL_clean_sbu_0, # of connection points: 4
#     Node 4, Type 0, BuildingBlock: CEKHIL_clean_sbu_0, # of connection points: 4
#     Node 5, Type 0, BuildingBlock: CEKHIL_clean_sbu_0, # of connection points: 4
#     Node 6, Type 0, BuildingBlock: CEKHIL_clean_sbu_0, # of connection points: 4
#     Node 7, Type 0, BuildingBlock: CEKHIL_clean_sbu_0, # of connection points: 4
#     Node 8, Type 0, BuildingBlock: CEKHIL_clean_sbu_0, # of connection points: 4
#     Node 9, Type 0, BuildingBlock: CEKHIL_clean_sbu_0, # of connection points: 4
#     Node 10, Type 0, BuildingBlock: CEKHIL_clean_sbu_0, # of connection points: 4
#     Node 11, Type 0, BuildingBlock: CEKHIL_clean_sbu_0, # of connection points: 4
#     Edge 12, Type (0, 0), BuildingBlock: CIFDUS_clean_linker_0, # of connection points: 2
#     Edge 13, Type (0, 0), BuildingBlock: CIFDUS_clean_linker_0, # of connection points: 2
#     Edge 14, Type (0, 0), BuildingBlock: CIFDUS_clean_linker_0, # of connection points: 2
#     Edge 15, Type (0, 0), BuildingBlock: CIFDUS_clean_linker_0, # of connection points: 2
#     Edge 16, Type (0, 0), BuildingBlock: CIFDUS_clean_linker_0, # of connection points: 2
#     Edge 17, Type (0, 0), BuildingBlock: CIFDUS_clean_linker_0, # of connection points: 2
#     Edge 18, Type (0, 0), BuildingBlock: CIFDUS_clean_linker_0, # of connection points: 2
#     Edge 19, Type (0, 0), BuildingBlock: CIFDUS_clean_linker_0, # of connection points: 2
#     Edge 20, Type (0, 0), BuildingBlock: CIFDUS_clean_linker_0, # of connection points: 2
#     Edge 21, Type (0, 0), BuildingBlock: CIFDUS_clean_linker_0, # of connection points: 2
#     Edge 22, Type (0, 0), BuildingBlock: CIFDUS_clean_linker_0, # of connection points: 2
#     Edge 23, Type (0, 0), BuildingBlock: CIFDUS_clean_linker_0, # of connection points: 2
#     Edge 24, Type (0, 0), BuildingBlock: CIFDUS_clean_linker_0, # of connection points: 2
#     Edge 25, Type (0, 0), BuildingBlock: CIFDUS_clean_linker_0, # of connection points: 2
#     Edge 26, Type (0, 0), BuildingBlock: CIFDUS_clean_linker_0, # of connection points: 2
#     Edge 27, Type (0, 0), BuildingBlock: CIFDUS_clean_linker_0, # of connection points: 2
#     Edge 28, Type (0, 0), BuildingBlock: CIFDUS_clean_linker_0, # of connection points: 2
#     Edge 29, Type (0, 0), BuildingBlock: CIFDUS_clean_linker_0, # of connection points: 2
#     Edge 30, Type (0, 0), BuildingBlock: CIFDUS_clean_linker_0, # of connection points: 2
#     Edge 31, Type (0, 0), BuildingBlock: CIFDUS_clean_linker_0, # of connection points: 2
#     Edge 32, Type (0, 0), BuildingBlock: CIFDUS_clean_linker_0, # of connection points: 2
#     Edge 33, Type (0, 0), BuildingBlock: CIFDUS_clean_linker_0, # of connection points: 2
#     Edge 34, Type (0, 0), BuildingBlock: CIFDUS_clean_linker_0, # of connection points: 2
#     Edge 35, Type (0, 0), BuildingBlock: CIFDUS_clean_linker_0, # of connection points: 2
# Relax obj value: 0.216
# Max RMSD: 0.137
# Mean RMSD: 0.137
data_MOF--net-wji--node1-CEKHIL_clean_sbu_0--edge1-CIFDUS_clean_linker_0
_symmetry_space_group_name_H-M    P1
_symmetry_Int_Tables_number       1
_symmetry_cell_setting            triclinic
loop_
_symmetry_equiv_pos_as_xyz
'x, y, z'
_cell_length_a     49.484769
_cell_length_b     49.505216
_cell_length_c     20.078704
_cell_angle_alpha  89.985881
_cell_angle_beta   90.135643
_cell_angle_gamma 120.13032
loop_
_atom_site_label
_atom_site_type_symbol
_atom_site_fract_x
_atom_site_fract_y
_atom_site_fract_z
_atom_type_partial_charge
Co0 Co 0.43365 0.32447 0.42779 0.0
O1 O 0.44535 0.30554 0.49781 0.0
O2 O 0.4172 0.28024 0.40961 0.0
C3 C 0.48168 0.36748 0.4165 0.0
O4 O 0.4172 0.3368 0.34526 0.0
Co5 Co 0.43823 0.38885 0.45286 0.0
O6 O 0.42343 0.38479 0.36048 0.0
C7 C 0.38658 0.33121 0.51136 0.0
C8 C 0.4299 0.27937 0.46589 0.0
C9 C 0.41444 0.36025 0.32562 0.0
O10 O 0.39487 0.31413 0.47943 0.0
O11 O 0.40192 0.36109 0.51071 0.0
O12 O 0.47491 0.34154 0.38658 0.0
O13 O 0.46033 0.36591 0.45574 0.0
Co14 Co 0.11234 0.43575 0.60541 0.0
O15 O 0.14011 0.44922 0.68094 0.0
O16 O 0.14151 0.42 0.59949 0.0
C17 C 0.11701 0.48305 0.58562 0.0
O18 O 0.08619 0.41754 0.51945 0.0
Co19 Co 0.0512 0.43937 0.61768 0.0
O20 O 0.04328 0.42251 0.52664 0.0
C21 C 0.05588 0.38856 0.6837 0.0
C22 C 0.15242 0.43367 0.65674 0.0
C23 C 0.05996 0.41358 0.49615 0.0
O24 O 0.08249 0.39744 0.65671 0.0
O25 O 0.04086 0.40325 0.67781 0.0
O26 O 0.13755 0.4765 0.56232 0.0
O27 O 0.0962 0.46207 0.62397 0.0
Co28 Co 0.68001 0.09858 0.79413 0.0
O29 O 0.69437 0.12358 0.8739 0.0
O30 O 0.72402 0.13092 0.78607 0.0
C31 C 0.63464 0.09917 0.78455 0.0
O32 O 0.67185 0.07622 0.7032 0.0
Co33 Co 0.61764 0.03391 0.80396 0.0
O34 O 0.62518 0.03141 0.70888 0.0
C35 C 0.67728 0.04037 0.85167 0.0
C36 C 0.72161 0.13914 0.84648 0.0
C37 C 0.64987 0.05039 0.67764 0.0
O38 O 0.69265 0.06908 0.83344 0.0
O39 O 0.64754 0.02339 0.84737 0.0
O40 O 0.66053 0.12242 0.76235 0.0
O41 O 0.63759 0.07836 0.81706 0.0
Co42 Co 0.58402 0.68568 0.95038 0.0
O43 O 0.57195 0.70072 0.02661 0.0
O44 O 0.6003 0.73071 0.94354 0.0
C45 C 0.53625 0.64332 0.93252 0.0
O46 O 0.60043 0.6769 0.86311 0.0
Co47 Co 0.57944 0.62046 0.9624 0.0
O48 O 0.5936 0.62822 0.86942 0.0
C49 C 0.63144 0.67585 0.02679 0.0
C50 C 0.58734 0.72844 0.00133 0.0
C51 C 0.60264 0.65383 0.83866 0.0
O52 O 0.62283 0.69383 0.99983 0.0
O53 O 0.61618 0.64607 0.02146 0.0
O54 O 0.54287 0.67048 0.90941 0.0
O55 O 0.55742 0.6433 0.97001 0.0
Co56 Co 0.90687 0.58181 0.12099 0.0
O57 O 0.87889 0.57286 0.19539 0.0
O58 O 0.87994 0.59948 0.10623 0.0
C59 C 0.89855 0.53252 0.11128 0.0
O60 O 0.93245 0.59514 0.03394 0.0
Co61 Co 0.96509 0.57334 0.13624 0.0
O62 O 0.97271 0.58604 0.04223 0.0
C63 C 0.96709 0.63054 0.18729 0.0
C64 C 0.86749 0.58775 0.16381 0.0
C65 C 0.95708 0.59578 0.01015 0.0
O66 O 0.93924 0.62144 0.16631 0.0
O67 O 0.98038 0.61413 0.18288 0.0
O68 O 0.87933 0.54002 0.08443 0.0
O69 O 0.92048 0.55401 0.14709 0.0
Co70 Co 0.32877 0.90224 0.27493 0.0
O71 O 0.30912 0.87338 0.34799 0.0
O72 O 0.28416 0.87551 0.25864 0.0
C73 C 0.3702 0.89471 0.26461 0.0
O74 O 0.34155 0.92879 0.18914 0.0
Co75 Co 0.39557 0.96068 0.29358 0.0
O76 O 0.39087 0.96926 0.19997 0.0
C77 C 0.33991 0.96105 0.34648 0.0
C78 C 0.28294 0.86257 0.31587 0.0
C79 C 0.3657 0.95377 0.16682 0.0
O80 O 0.32118 0.9339 0.32206 0.0
O81 O 0.3697 0.97431 0.3436 0.0
O82 O 0.34356 0.87537 0.23719 0.0
O83 O 0.37013 0.91595 0.30156 0.0
Co84 Co 0.68142 0.58145 0.40209 0.0
O85 O 0.69945 0.56843 0.33259 0.0
O86 O 0.72488 0.595 0.42231 0.0
C87 C 0.63623 0.53527 0.41159 0.0
O88 O 0.67021 0.59882 0.48456 0.0
Co89 Co 0.61932 0.58199 0.37534 0.0
O90 O 0.62407 0.59677 0.46785 0.0
C91 C 0.67898 0.63058 0.31714 0.0
C92 C 0.72542 0.58229 0.36593 0.0
C93 C 0.64794 0.6036 0.50359 0.0
O94 O 0.6947 0.62117 0.35103 0.0
O95 O 0.64911 0.61672 0.3165 0.0
O96 O 0.6613 0.53954 0.44194 0.0
O97 O 0.63986 0.55758 0.37282 0.0
Co98 Co 0.09922 0.68024 0.55797 0.0
O99 O 0.12755 0.69904 0.48378 0.0
O100 O 0.12942 0.72387 0.57655 0.0
C101 C 0.10192 0.63586 0.56163 0.0
O102 O 0.07397 0.66809 0.64559 0.0
Co103 Co 0.03667 0.61664 0.53839 0.0
O104 O 0.03046 0.62082 0.63361 0.0
C105 C 0.04201 0.67589 0.49123 0.0
C106 C 0.14098 0.72477 0.51784 0.0
C107 C 0.04818 0.64493 0.66806 0.0
O108 O 0.06964 0.69233 0.51581 0.0
O109 O 0.02652 0.64602 0.49178 0.0
O110 O 0.12347 0.66121 0.58988 0.0
O111 O 0.08141 0.63884 0.52786 0.0
Co112 Co 0.43069 0.1007 0.72181 0.0
O113 O 0.4402 0.12861 0.64698 0.0
O114 O 0.41224 0.12707 0.734 0.0
C115 C 0.47998 0.10952 0.7357 0.0
O116 O 0.41654 0.07498 0.80865 0.0
Co117 Co 0.44029 0.04302 0.70849 0.0
O118 O 0.42617 0.03501 0.80155 0.0
C119 C 0.38363 0.0406 0.65259 0.0
C120 C 0.4245 0.13954 0.67676 0.0
C121 C 0.41587 0.05037 0.8327 0.0
O122 O 0.39188 0.06809 0.6744 0.0
O123 O 0.40038 0.02771 0.65812 0.0
O124 O 0.47191 0.12861 0.7608 0.0
O125 O 0.45917 0.08762 0.69874 0.0
Co126 Co 0.3388 0.4299 0.8763 0.0
O127 O 0.32573 0.44323 0.79869 0.0
O128 O 0.29466 0.41768 0.8828 0.0
C129 C 0.38399 0.47544 0.89232 0.0
O130 O 0.34562 0.41275 0.96493 0.0
Co131 Co 0.40077 0.42739 0.86518 0.0
O132 O 0.39204 0.41427 0.95872 0.0
C133 C 0.3427 0.37861 0.802 0.0
C134 C 0.29798 0.43018 0.82401 0.0
C135 C 0.36716 0.40806 0.98971 0.0
O136 O 0.32672 0.38948 0.82933 0.0
O137 O 0.37245 0.39163 0.80645 0.0
O138 O 0.35784 0.47205 0.91467 0.0
O139 O 0.38148 0.45275 0.85635 0.0
Co140 Co 0.90918 0.33255 0.05738 0.0
O141 O 0.88074 0.31894 0.98289 0.0
O142 O 0.87803 0.28812 0.06516 0.0
C143 C 0.90849 0.37728 0.07669 0.0
O144 O 0.9356 0.33989 0.14274 0.0
Co145 Co 0.97288 0.39548 0.0414 0.0
O146 O 0.98015 0.38657 0.13296 0.0
C147 C 0.96288 0.33794 0.975 0.0
C148 C 0.86724 0.29111 0.00798 0.0
C149 C 0.96248 0.36161 0.16494 0.0
O150 O 0.93686 0.32135 0.0053 0.0
O151 O 0.97916 0.36772 0.97906 0.0
O152 O 0.88647 0.35097 0.10049 0.0
O153 O 0.92794 0.37513 0.03773 0.0
Co154 Co 0.58669 0.91722 0.21391 0.0
O155 O 0.57673 0.89247 0.13396 0.0
O156 O 0.60027 0.88643 0.22146 0.0
C157 C 0.53955 0.91416 0.22376 0.0
O158 O 0.60064 0.93955 0.30487 0.0
Co159 Co 0.58595 0.98025 0.20554 0.0
O160 O 0.59724 0.98342 0.30016 0.0
C161 C 0.6409 0.97704 0.15799 0.0
C162 C 0.58957 0.87794 0.16108 0.0
C163 C 0.60403 0.96507 0.33074 0.0
O164 O 0.62838 0.9482 0.17482 0.0
O165 O 0.62713 0.99299 0.16309 0.0
O166 O 0.54349 0.89169 0.24576 0.0
O167 O 0.56287 0.93577 0.1915 0.0
H168 H 0.38057 0.36373 0.02483 0.0
H169 H 0.34906 0.42379 0.10571 0.0
H170 H 0.35833 0.41143 0.21902 0.0
H171 H 0.38229 0.38938 0.29279 0.0
H172 H 0.41447 0.32986 0.21124 0.0
H173 H 0.39779 0.33596 0.09989 0.0
C174 C 0.37504 0.37354 0.06744 0.0
C175 C 0.36437 0.39484 0.05715 0.0
C176 C 0.38104 0.3668 0.13187 0.0
C177 C 0.35706 0.40722 0.11246 0.0
C178 C 0.36274 0.40042 0.17708 0.0
C179 C 0.38538 0.37745 0.25073 0.0
C180 C 0.40022 0.35966 0.26002 0.0
C181 C 0.37584 0.3812 0.18707 0.0
C182 C 0.40335 0.3438 0.20539 0.0
C183 C 0.39391 0.3474 0.14176 0.0
H184 H 0.99936 0.37446 0.46619 0.0
H185 H 0.09164 0.41778 0.38069 0.0
H186 H 0.06857 0.40061 0.26943 0.0
H187 H 0.02236 0.38045 0.19638 0.0
H188 H 0.93014 0.33852 0.28178 0.0
H189 H 0.95297 0.34742 0.39392 0.0
C190 C 0.01446 0.37969 0.42325 0.0
C191 C 0.04721 0.39784 0.43137 0.0
C192 C 1.00099 0.37015 0.35976 0.0
C193 C 0.06647 0.40393 0.3757 0.0
C194 C 0.05323 0.39431 0.31215 0.0
C195 C 1.00719 0.37265 0.2396 0.0
C196 C 0.97458 0.3592 0.23098 0.0
C197 C 0.02056 0.37846 0.30352 0.0
C198 C 0.9552 0.34882 0.28712 0.0
C199 C 0.96832 0.35422 0.35114 0.0
H200 H 0.6417 0.02433 0.37105 0.0
H201 H 0.59625 0.92923 0.44167 0.0
H202 H 0.6109 0.94825 0.55646 0.0
H203 H 0.63022 0.99173 0.63631 0.0
H204 H 0.67416 0.08677 0.56582 0.0
H205 H 0.66699 0.06796 0.45037 0.0
C206 C 0.63529 0.00772 0.41155 0.0
C207 C 0.61733 0.97537 0.39827 0.0
C208 C 0.64341 0.01886 0.47696 0.0
C209 C 0.60988 0.95414 0.45075 0.0
C210 C 0.61811 0.96507 0.51625 0.0
C211 C 0.63867 0.00839 0.59562 0.0
C212 C 0.65224 0.04062 0.60929 0.0
C213 C 0.63389 0.99733 0.52991 0.0
C214 C 0.66365 0.06196 0.55647 0.0
C215 C 0.65928 0.05113 0.49062 0.0
H216 H 0.62408 0.64054 0.53602 0.0
H217 H 0.67415 0.59796 0.61957 0.0
H218 H 0.66802 0.61408 0.73136 0.0
H219 H 0.64254 0.63416 0.80548 0.0
H220 H 0.59221 0.67645 0.72241 0.0
H221 H 0.60484 0.66711 0.60957 0.0
C222 C 0.63399 0.63509 0.57865 0.0
C223 C 0.64908 0.61753 0.56972 0.0
C224 C 0.63025 0.64434 0.64252 0.0
C225 C 0.66236 0.61127 0.62514 0.0
C226 C 0.65871 0.62037 0.689 0.0
C227 C 0.63491 0.64194 0.76257 0.0
C228 C 0.61622 0.65573 0.77201 0.0
C229 C 0.64187 0.63604 0.69833 0.0
C230 C 0.60672 0.66598 0.71633 0.0
C231 C 0.61368 0.66031 0.65195 0.0
H232 H 0.98903 0.62522 0.70634 0.0
H233 H 0.08281 0.6647 0.78309 0.0
H234 H 0.06247 0.65514 0.89734 0.0
H235 H 0.01756 0.63 0.97371 0.0
H236 H 0.92383 0.59123 0.89698 0.0
H237 H 0.94462 0.60639 0.78374 0.0
C238 C 1.00506 0.63219 0.74821 0.0
C239 C 0.03737 0.6453 0.73654 0.0
C240 C 0.99315 0.62648 0.81331 0.0
C241 C 0.05793 0.65466 0.79093 0.0
C242 C 0.04625 0.64894 0.85609 0.0
C243 C 1.00169 0.62517 0.93221 0.0
C244 C 0.96913 0.60902 0.94335 0.0
C245 C 0.01385 0.634 0.86765 0.0
C246 C 0.94889 0.60351 0.88955 0.0
C247 C 0.9608 0.61204 0.82491 0.0
H248 H 0.37763 0.99002 0.86442 0.0
H249 H 0.42364 0.08264 0.94883 0.0
H250 H 0.40893 0.06025 0.06105 0.0
H251 H 0.38879 0.01426 0.1346 0.0
H252 H 0.34208 0.92165 0.05008 0.0
H253 H 0.35086 0.94406 0.93773 0.0
C254 C 0.38396 1.0053 0.90744 0.0
C255 C 0.40204 0.03793 0.89875 0.0
C256 C 0.37549 0.99222 0.97136 0.0
C257 C 0.40973 0.05752 0.95444 0.0
C258 C 0.40151 0.04468 0.01847 0.0
C259 C 0.38008 0.99899 0.0915 0.0
C260 C 0.36518 0.96634 0.10027 0.0
C261 C 0.38528 0.01208 0.02748 0.0
C262 C 0.35357 0.94677 0.04443 0.0
C263 C 0.3588 0.95962 0.98033 0.0
H264 H 0.62271 0.47553 0.39438 0.0
H265 H 0.58119 0.53146 0.4426 0.0
H266 H 0.52954 0.48439 0.44958 0.0
H267 H 0.49609 0.42727 0.44029 0.0
H268 H 0.53677 0.37179 0.38074 0.0
H269 H 0.58869 0.41855 0.37888 0.0
C270 C 0.6023 0.47722 0.40702 0.0
C271 C 0.6056 0.50667 0.41914 0.0
C272 C 0.57254 0.45017 0.40808 0.0
C273 C 0.57907 0.50889 0.43372 0.0
C274 C 0.54959 0.48203 0.43748 0.0
C275 C 0.51633 0.42547 0.42673 0.0
C276 C 0.51265 0.39612 0.41094 0.0
C277 C 0.546 0.45255 0.42439 0.0
C278 C 0.539 0.39415 0.39279 0.0
C279 C 0.56872 0.42085 0.39208 0.0
H280 H 0.07027 0.4963 0.59487 0.0
H281 H 0.16876 0.53844 0.55421 0.0
H282 H 0.17334 0.58996 0.54703 0.0
H283 H 0.14925 0.62326 0.5541 0.0
H284 H 0.04991 0.58002 0.58441 0.0
H285 H 0.04569 0.52884 0.59458 0.0
C286 C 0.09269 0.51676 0.58412 0.0
C287 C 0.11916 0.51364 0.57539 0.0
C288 C 0.095 0.54616 0.57884 0.0
C289 C 0.14801 0.54026 0.5608 0.0
C290 C 0.15068 0.56974 0.5571 0.0
C291 C 0.12679 0.60257 0.56332 0.0
C292 C 0.09998 0.60532 0.56938 0.0
C293 C 0.12437 0.57302 0.56655 0.0
C294 C 0.07085 0.57841 0.57984 0.0
C295 C 0.06843 0.54916 0.58556 0.0
H296 H 0.49489 0.06382 0.73274 0.0
H297 H 0.53447 0.16265 0.76544 0.0
H298 H 0.58637 0.16864 0.77979 0.0
H299 H 0.62058 0.14555 0.78272 0.0
H300 H 0.5797 0.04596 0.76074 0.0
H301 H 0.52832 0.0404 0.74208 0.0
C302 C 0.51489 0.08664 0.74305 0.0
C303 C 0.51096 0.11279 0.74761 0.0
C304 C 0.54444 0.08974 0.75286 0.0
C305 C 0.53696 0.14217 0.76189 0.0
C306 C 0.56663 0.14562 0.76982 0.0
C307 C 0.60038 0.12271 0.7735 0.0
C308 C 0.60386 0.09623 0.77239 0.0
C309 C 0.57068 0.11957 0.76521 0.0
C310 C 0.57753 0.06666 0.76171 0.0
C311 C 0.54816 0.06347 0.75104 0.0
H312 H 0.52306 0.58317 0.93846 0.0
H313 H 0.48098 0.63979 0.9017 0.0
H314 H 0.42962 0.59276 0.89038 0.0
H315 H 0.39655 0.53531 0.89146 0.0
H316 H 0.43951 0.47884 0.91732 0.0
H317 H 0.49058 0.52587 0.93307 0.0
C318 C 0.50263 0.58515 0.92781 0.0
C319 C 0.50571 0.61484 0.92125 0.0
C320 C 0.47332 0.55802 0.91995 0.0
C321 C 0.47917 0.61715 0.90668 0.0
C322 C 0.44979 0.59029 0.90057 0.0
C323 C 0.41713 0.53343 0.90107 0.0
C324 C 0.4144 0.50381 0.90419 0.0
C325 C 0.44655 0.56059 0.90742 0.0
C326 C 0.44118 0.50149 0.91508 0.0
C327 C 0.47033 0.52833 0.92395 0.0
H328 H 0.86229 0.39143 0.07181 0.0
H329 H 0.96068 0.43112 0.11075 0.0
H330 H 0.96621 0.48265 0.12727 0.0
H331 H 0.94332 0.5167 0.12726 0.0
H332 H 0.84604 0.47826 0.07704 0.0
H333 H 0.83975 0.4261 0.06754 0.0
C334 C 0.88479 0.41138 0.08469 0.0
C335 C 0.91098 0.40761 0.09108 0.0
C336 C 0.88802 0.44118 0.09124 0.0
C337 C 0.94022 0.4336 0.10606 0.0
C338 C 0.94339 0.46302 0.1153 0.0
C339 C 0.92075 0.49689 0.11428 0.0
C340 C 0.89516 0.50127 0.10311 0.0
C341 C 0.91751 0.46715 0.10738 0.0
C342 C 0.86613 0.47547 0.08562 0.0
C343 C 0.86249 0.44563 0.08047 0.0
H344 H 0.43011 0.94218 0.27173 0.0
H345 H 0.37448 0.84334 0.23346 0.0
H346 H 0.42207 0.84011 0.2213 0.0
H347 H 0.47981 0.86569 0.22178 0.0
H348 H 0.5348 0.96537 0.2494 0.0
H349 H 0.48729 0.96807 0.26597 0.0
C350 C 0.4284 0.91994 0.26071 0.0
C351 C 0.39887 0.89299 0.25395 0.0
C352 C 0.4558 0.91845 0.25219 0.0
C353 C 0.397 0.86441 0.23872 0.0
C354 C 0.42418 0.86255 0.23205 0.0
C355 C 0.48126 0.88791 0.23183 0.0
C356 C 0.51067 0.91526 0.23511 0.0
C357 C 0.45374 0.88942 0.23889 0.0
C358 C 0.51238 0.94403 0.24679 0.0
C359 C 0.48524 0.94558 0.25624 0.0
H360 H 0.3482 0.32731 0.79046 0.0
H361 H 0.30467 0.37517 0.70156 0.0
H362 H 0.30531 0.35358 0.59283 0.0
H363 H 0.33648 0.33864 0.52287 0.0
H364 H 0.38221 0.29294 0.61165 0.0
H365 H 0.3615 0.29483 0.72062 0.0
C366 C 0.33722 0.33142 0.74784 0.0
C367 C 0.32751 0.35354 0.75272 0.0
C368 C 0.33879 0.31986 0.68523 0.0
C369 C 0.31271 0.35848 0.69825 0.0
C370 C 0.31349 0.34649 0.63587 0.0
C371 C 0.34024 0.32743 0.56552 0.0
C372 C 0.36151 0.31667 0.56053 0.0
C373 C 0.32922 0.32973 0.6282 0.0
C374 C 0.36611 0.30171 0.61507 0.0
C375 C 0.35464 0.30322 0.67756 0.0
H376 H 0.01899 0.34224 0.96133 0.0
H377 H 0.92785 0.30305 0.87159 0.0
H378 H 0.95037 0.30731 0.76148 0.0
H379 H 0.99703 0.34015 0.69396 0.0
H380 H 0.08831 0.3816 0.78417 0.0
H381 H 0.06498 0.35768 0.89078 0.0
C382 C 1.00398 0.33289 0.9179 0.0
C383 C 0.9722 0.32343 0.9234 0.0
C384 C 0.01732 0.33671 0.85477 0.0
C385 C 0.95254 0.31081 0.86783 0.0
C386 C 0.9655 0.31374 0.80476 0.0
C387 C 0.01175 0.34247 0.73625 0.0
C388 C 0.04403 0.36328 0.73267 0.0
C389 C 0.99808 0.32944 0.79762 0.0
C390 C 0.06327 0.36592 0.78661 0.0
C391 C 0.04991 0.35253 0.84772 0.0
H392 H 0.65615 0.95077 0.05901 0.0
H393 H 0.69024 0.03604 0.17066 0.0
H394 H 0.72027 0.0664 0.07485 0.0
H395 H 0.71626 0.06841 0.95404 0.0
H396 H 0.67189 0.98302 0.84096 0.0
H397 H 0.66806 0.95309 0.94041 0.0
C398 C 0.67164 0.97582 0.06327 0.0
C399 C 0.67015 0.99146 0.12008 0.0
C400 C 0.68642 0.9932 0.00613 0.0
C401 C 0.69054 0.02378 0.12621 0.0
C402 C 0.70742 0.04114 0.07115 0.0
C403 C 0.70758 0.04349 0.95068 0.0
C404 C 0.69303 0.02758 0.8918 0.0
C405 C 0.70257 0.02628 0.0093 0.0
C406 C 0.68242 0.99548 0.88681 0.0
C407 C 0.67977 0.97833 0.94396 0.0
H408 H 0.67902 0.66422 0.03721 0.0
H409 H 0.63969 0.71576 0.12702 0.0
H410 H 0.66309 0.71545 0.23391 0.0
H411 H 0.67709 0.68373 0.30461 0.0
H412 H 0.71417 0.63016 0.21527 0.0
H413 H 0.71081 0.64914 0.10516 0.0
C414 C 0.6771 0.67682 0.07947 0.0
C415 C 0.65696 0.68903 0.07559 0.0
C416 C 0.6898 0.67565 0.14106 0.0
C417 C 0.65485 0.70585 0.12958 0.0
C418 C 0.66792 0.70534 0.19089 0.0
C419 C 0.68628 0.67791 0.26135 0.0
C420 C 0.69484 0.65495 0.26695 0.0
C421 C 0.68293 0.68785 0.19815 0.0
C422 C 0.70715 0.64763 0.21149 0.0
C423 C 0.70469 0.65805 0.14839 0.0
H424 H 0.0671 0.70947 0.38094 0.0
H425 H 0.986 0.67267 0.50649 0.0
H426 H 0.95272 0.66426 0.40992 0.0
H427 H 0.94584 0.64802 0.29263 0.0
H428 H 0.02681 0.67679 0.16933 0.0
H429 H 0.06092 0.70834 0.26003 0.0
C430 C 0.04245 0.70157 0.38727 0.0
C431 C 0.02869 0.69069 0.44975 0.0
C432 C 0.02322 0.69414 0.33083 0.0
C433 C 0.99687 0.68072 0.45822 0.0
C434 C 0.97776 0.67532 0.40276 0.0
C435 C 0.9708 0.66266 0.28476 0.0
C436 C 0.98405 0.65962 0.22564 0.0
C437 C 0.99035 0.67888 0.33875 0.0
C438 C 0.01634 0.67855 0.21527 0.0
C439 C 0.03584 0.69634 0.26735 0.0
H440 H 0.30716 0.93914 0.45903 0.0
H441 H 0.34828 0.01899 0.32925 0.0
H442 H 0.35622 0.05355 0.42299 0.0
H443 H 0.36932 0.06132 0.54191 0.0
H444 H 0.33626 0.98146 0.67076 0.0
H445 H 0.30643 0.94671 0.57928 0.0
C446 C 0.31604 0.96388 0.45103 0.0
C447 C 0.32777 0.97678 0.3883 0.0
C448 C 0.32292 0.98375 0.50606 0.0
C449 C 0.33937 0.00877 0.37771 0.0
C450 C 0.34437 0.02857 0.43153 0.0
C451 C 0.3541 0.03649 0.55051 0.0
C452 C 0.35532 0.02368 0.61191 0.0
C453 C 0.33901 0.01655 0.4964 0.0
C454 C 0.33577 0.99158 0.62321 0.0
C455 C 0.31903 0.97171 0.57071 0.0
H456 H 0.42502 0.26333 0.59611 0.0
H457 H 0.42666 0.22969 0.39908 0.0
H458 H 0.42468 0.18311 0.44693 0.0
H459 H 0.42481 0.15313 0.54545 0.0
H460 H 0.41869 0.18473 0.74193 0.0
H461 H 0.41982 0.2308 0.69388 0.0
C462 C 0.42485 0.24572 0.5637 0.0
C463 C 0.42644 0.2501 0.49416 0.0
C464 C 0.42289 0.21868 0.59158 0.0
C465 C 0.42556 0.22686 0.45268 0.0
C466 C 0.4245 0.20029 0.48008 0.0
C467 C 0.42351 0.17002 0.57766 0.0
C468 C 0.42197 0.1657 0.64726 0.0
C469 C 0.42352 0.19612 0.54951 0.0
C470 C 0.41984 0.18751 0.68831 0.0
C471 C 0.42064 0.21392 0.66083 0.0
H472 H 0.24457 0.42805 0.86873 0.0
H473 H 0.29254 0.42817 0.68974 0.0
H474 H 0.25104 0.42692 0.62153 0.0
H475 H 0.20172 0.42797 0.61195 0.0
H476 H 0.15616 0.43242 0.79089 0.0
H477 H 0.19553 0.42958 0.85917 0.0
C478 C 0.24575 0.42759 0.81485 0.0
C479 C 0.27163 0.42823 0.78449 0.0
C480 C 0.22213 0.4278 0.77557 0.0
C481 C 0.27299 0.42793 0.71447 0.0
C482 C 0.2492 0.42715 0.67528 0.0
C483 C 0.20036 0.42807 0.66584 0.0
C484 C 0.17605 0.4304 0.69619 0.0
C485 C 0.22375 0.4274 0.70513 0.0
C486 C 0.17478 0.43085 0.76619 0.0
C487 C 0.19728 0.42918 0.80542 0.0
H488 H 0.82024 0.23454 0.05396 0.0
H489 H 0.8592 0.28762 0.87419 0.0
H490 H 0.81941 0.24495 0.80755 0.0
H491 H 0.77211 0.19274 0.79969 0.0
H492 H 0.73058 0.14136 0.97991 0.0
H493 H 0.77239 0.18257 0.04622 0.0
C494 C 0.82002 0.23666 0.00023 0.0
C495 C 0.84267 0.26432 0.96932 0.0
C496 C 0.79643 0.21216 0.96191 0.0
C497 C 0.84191 0.26674 0.89953 0.0
C498 C 0.81917 0.24225 0.86115 0.0
C499 C 0.77243 0.19053 0.85339 0.0
C500 C 0.74831 0.16398 0.8847 0.0
C501 C 0.79613 0.21489 0.89169 0.0
C502 C 0.74881 0.16163 0.95451 0.0
C503 C 0.77275 0.18521 0.99259 0.0
H504 H 0.59193 0.82721 0.2084 0.0
H505 H 0.59322 0.87443 0.02701 0.0
H506 H 0.59512 0.834 0.96101 0.0
H507 H 0.59381 0.78344 0.95403 0.0
H508 H 0.58814 0.73422 0.13532 0.0
H509 H 0.5907 0.77679 0.20146 0.0
C510 C 0.5929 0.82872 0.15449 0.0
C511 C 0.59243 0.8538 0.1228 0.0
C512 C 0.59306 0.8048 0.11649 0.0
C513 C 0.59336 0.85526 0.05275 0.0
C514 C 0.59449 0.83214 0.01484 0.0
C515 C 0.59343 0.78225 0.00798 0.0
C516 C 0.59078 0.75569 0.03959 0.0
C517 C 0.59396 0.80653 0.04601 0.0
C518 C 0.58996 0.75432 0.10964 0.0
C519 C 0.59146 0.7787 0.14765 0.0
H520 H 0.74351 0.58871 0.23672 0.0
H521 H 0.77236 0.58112 0.4352 0.0
H522 H 0.81902 0.58235 0.39027 0.0
H523 H 0.85083 0.58411 0.29393 0.0
H524 H 0.82421 0.59611 0.09631 0.0
H525 H 0.77769 0.59501 0.14132 0.0
C526 C 0.76006 0.58733 0.27005 0.0
C527 C 0.75433 0.58439 0.33914 0.0
C528 C 0.78726 0.58897 0.24394 0.0
C529 C 0.77624 0.58329 0.3819 0.0
C530 C 0.80287 0.58395 0.35617 0.0
C531 C 0.83492 0.58665 0.26077 0.0
C532 C 0.84084 0.58991 0.19171 0.0
C533 C 0.80853 0.58658 0.28723 0.0
C534 C 0.82023 0.5936 0.14955 0.0
C535 C 0.79354 0.59282 0.17528 0.0
H536 H 0.15469 0.7414 0.38779 0.0
H537 H 0.18865 0.7724 0.58715 0.0
H538 H 0.23555 0.8177 0.54241 0.0
H539 H 0.26782 0.84762 0.44619 0.0
H540 H 0.23187 0.81892 0.24716 0.0
H541 H 0.18485 0.77378 0.29193 0.0
C542 C 0.17233 0.75816 0.42141 0.0
C543 C 0.16834 0.75337 0.49076 0.0
C544 C 0.19891 0.78455 0.39528 0.0
C545 C 0.19115 0.77553 0.53367 0.0
C546 C 0.21803 0.80139 0.50806 0.0
C547 C 0.24961 0.83152 0.41266 0.0
C548 C 0.25348 0.83645 0.34332 0.0
C549 C 0.2223 0.806 0.43893 0.0
C550 C 0.22949 0.81567 0.30062 0.0
C551 C 0.20264 0.78979 0.32624 0.0
loop_
_geom_bond_atom_site_label_1
_geom_bond_atom_site_label_2
_geom_bond_distance
_geom_bond_site_symmetry_2
_ccdc_geom_bond_type
Co0 O1 2.216 . S
Co0 O2 2.091 . S
Co0 O4 2.004 . S
Co0 O10 2.021 . S
Co0 O12 2.137 . S
Co0 O13 2.244 . S
O1 Co0 2.216 . S
O1 C8 1.247 . S
O2 Co0 2.091 . S
O2 C8 1.261 . S
C3 O12 1.247 . S
C3 O13 1.272 . S
O4 Co0 2.004 . S
O4 C9 1.259 . S
Co5 O6 2.061 . S
Co5 O11 2.052 . S
Co5 O13 2.135 . S
O6 Co5 2.061 . S
O6 C9 1.235 . S
C7 O10 1.238 . S
C7 O11 1.241 . S
C8 O1 1.247 . S
C8 O2 1.261 . S
C9 O4 1.259 . S
C9 O6 1.235 . S
O10 Co0 2.021 . S
O10 C7 1.238 . S
O11 Co5 2.052 . S
O11 C7 1.241 . S
O12 Co0 2.137 . S
O12 C3 1.247 . S
O13 Co0 2.244 . S
O13 C3 1.272 . S
O13 Co5 2.135 . S
Co14 O15 2.216 . S
Co14 O16 2.091 . S
Co14 O18 2.004 . S
Co14 O24 2.021 . S
Co14 O26 2.137 . S
Co14 O27 2.244 . S
O15 Co14 2.216 . S
O15 C22 1.247 . S
O16 Co14 2.091 . S
O16 C22 1.261 . S
C17 O26 1.247 . S
C17 O27 1.272 . S
O18 Co14 2.004 . S
O18 C23 1.259 . S
Co19 O20 2.061 . S
Co19 O25 2.052 . S
Co19 O27 2.135 . S
O20 Co19 2.061 . S
O20 C23 1.235 . S
C21 O24 1.238 . S
C21 O25 1.241 . S
C22 O15 1.247 . S
C22 O16 1.261 . S
C23 O18 1.259 . S
C23 O20 1.235 . S
O24 Co14 2.021 . S
O24 C21 1.238 . S
O25 Co19 2.052 . S
O25 C21 1.241 . S
O26 Co14 2.137 . S
O26 C17 1.247 . S
O27 Co14 2.244 . S
O27 C17 1.272 . S
O27 Co19 2.135 . S
Co28 O29 2.216 . S
Co28 O30 2.091 . S
Co28 O32 2.004 . S
Co28 O38 2.021 . S
Co28 O40 2.137 . S
Co28 O41 2.244 . S
O29 Co28 2.216 . S
O29 C36 1.247 . S
O30 Co28 2.091 . S
O30 C36 1.261 . S
C31 O40 1.247 . S
C31 O41 1.272 . S
O32 Co28 2.004 . S
O32 C37 1.259 . S
Co33 O34 2.061 . S
Co33 O39 2.052 . S
Co33 O41 2.135 . S
O34 Co33 2.061 . S
O34 C37 1.235 . S
C35 O38 1.238 . S
C35 O39 1.241 . S
C36 O29 1.247 . S
C36 O30 1.261 . S
C37 O32 1.259 . S
C37 O34 1.235 . S
O38 Co28 2.021 . S
O38 C35 1.238 . S
O39 Co33 2.052 . S
O39 C35 1.241 . S
O40 Co28 2.137 . S
O40 C31 1.247 . S
O41 Co28 2.244 . S
O41 C31 1.272 . S
O41 Co33 2.135 . S
Co42 O43 2.216 1_556 S
Co42 O44 2.091 . S
Co42 O46 2.004 . S
Co42 O52 2.021 . S
Co42 O54 2.137 . S
Co42 O55 2.244 . S
O43 Co42 2.216 1_554 S
O43 C50 1.247 1_554 S
O44 Co42 2.091 . S
O44 C50 1.261 . S
C45 O54 1.247 . S
C45 O55 1.272 . S
O46 Co42 2.004 . S
O46 C51 1.259 . S
Co47 O48 2.061 . S
Co47 O53 2.052 1_556 S
Co47 O55 2.135 . S
O48 Co47 2.061 . S
O48 C51 1.235 . S
C49 O52 1.238 1_554 S
C49 O53 1.241 . S
C50 O43 1.247 1_556 S
C50 O44 1.261 . S
C51 O46 1.259 . S
C51 O48 1.235 . S
O52 Co42 2.021 . S
O52 C49 1.238 1_556 S
O53 Co47 2.052 1_554 S
O53 C49 1.241 . S
O54 Co42 2.137 . S
O54 C45 1.247 . S
O55 Co42 2.244 . S
O55 C45 1.272 . S
O55 Co47 2.135 . S
Co56 O57 2.216 . S
Co56 O58 2.091 . S
Co56 O60 2.004 . S
Co56 O66 2.021 . S
Co56 O68 2.137 . S
Co56 O69 2.244 . S
O57 Co56 2.216 . S
O57 C64 1.247 . S
O58 Co56 2.091 . S
O58 C64 1.261 . S
C59 O68 1.247 . S
C59 O69 1.272 . S
O60 Co56 2.004 . S
O60 C65 1.259 1_554 S
Co61 O62 2.061 . S
Co61 O67 2.052 . S
Co61 O69 2.135 . S
O62 Co61 2.061 . S
O62 C65 1.235 1_554 S
C63 O66 1.238 . S
C63 O67 1.241 . S
C64 O57 1.247 . S
C64 O58 1.261 . S
C65 O60 1.259 1_556 S
C65 O62 1.235 1_556 S
O66 Co56 2.021 . S
O66 C63 1.238 . S
O67 Co61 2.052 . S
O67 C63 1.241 . S
O68 Co56 2.137 . S
O68 C59 1.247 . S
O69 Co56 2.244 . S
O69 C59 1.272 . S
O69 Co61 2.135 . S
Co70 O71 2.216 . S
Co70 O72 2.091 . S
Co70 O74 2.004 . S
Co70 O80 2.021 . S
Co70 O82 2.137 . S
Co70 O83 2.244 . S
O71 Co70 2.216 . S
O71 C78 1.247 . S
O72 Co70 2.091 . S
O72 C78 1.261 . S
C73 O82 1.247 . S
C73 O83 1.272 . S
O74 Co70 2.004 . S
O74 C79 1.259 . S
Co75 O76 2.061 . S
Co75 O81 2.052 . S
Co75 O83 2.135 . S
O76 Co75 2.061 . S
O76 C79 1.235 . S
C77 O80 1.238 . S
C77 O81 1.241 . S
C78 O71 1.247 . S
C78 O72 1.261 . S
C79 O74 1.259 . S
C79 O76 1.235 . S
O80 Co70 2.021 . S
O80 C77 1.238 . S
O81 Co75 2.052 . S
O81 C77 1.241 . S
O82 Co70 2.137 . S
O82 C73 1.247 . S
O83 Co70 2.244 . S
O83 C73 1.272 . S
O83 Co75 2.135 . S
Co84 O85 2.216 . S
Co84 O86 2.091 . S
Co84 O88 2.004 . S
Co84 O94 2.021 . S
Co84 O96 2.137 . S
Co84 O97 2.244 . S
O85 Co84 2.216 . S
O85 C92 1.247 . S
O86 Co84 2.091 . S
O86 C92 1.261 . S
C87 O96 1.247 . S
C87 O97 1.272 . S
O88 Co84 2.004 . S
O88 C93 1.259 . S
Co89 O90 2.061 . S
Co89 O95 2.052 . S
Co89 O97 2.135 . S
O90 Co89 2.061 . S
O90 C93 1.235 . S
C91 O94 1.238 . S
C91 O95 1.241 . S
C92 O85 1.247 . S
C92 O86 1.261 . S
C93 O88 1.259 . S
C93 O90 1.235 . S
O94 Co84 2.021 . S
O94 C91 1.238 . S
O95 Co89 2.052 . S
O95 C91 1.241 . S
O96 Co84 2.137 . S
O96 C87 1.247 . S
O97 Co84 2.244 . S
O97 C87 1.272 . S
O97 Co89 2.135 . S
Co98 O99 2.216 . S
Co98 O100 2.091 . S
Co98 O102 2.004 . S
Co98 O108 2.021 . S
Co98 O110 2.137 . S
Co98 O111 2.244 . S
O99 Co98 2.216 . S
O99 C106 1.247 . S
O100 Co98 2.091 . S
O100 C106 1.261 . S
C101 O110 1.247 . S
C101 O111 1.272 . S
O102 Co98 2.004 . S
O102 C107 1.259 . S
Co103 O104 2.061 . S
Co103 O109 2.052 . S
Co103 O111 2.135 . S
O104 Co103 2.061 . S
O104 C107 1.235 . S
C105 O108 1.238 . S
C105 O109 1.241 . S
C106 O99 1.247 . S
C106 O100 1.261 . S
C107 O102 1.259 . S
C107 O104 1.235 . S
O108 Co98 2.021 . S
O108 C105 1.238 . S
O109 Co103 2.052 . S
O109 C105 1.241 . S
O110 Co98 2.137 . S
O110 C101 1.247 . S
O111 Co98 2.244 . S
O111 C101 1.272 . S
O111 Co103 2.135 . S
Co112 O113 2.216 . S
Co112 O114 2.091 . S
Co112 O116 2.004 . S
Co112 O122 2.021 . S
Co112 O124 2.137 . S
Co112 O125 2.244 . S
O113 Co112 2.216 . S
O113 C120 1.247 . S
O114 Co112 2.091 . S
O114 C120 1.261 . S
C115 O124 1.247 . S
C115 O125 1.272 . S
O116 Co112 2.004 . S
O116 C121 1.259 . S
Co117 O118 2.061 . S
Co117 O123 2.052 . S
Co117 O125 2.135 . S
O118 Co117 2.061 . S
O118 C121 1.235 . S
C119 O122 1.238 . S
C119 O123 1.241 . S
C120 O113 1.247 . S
C120 O114 1.261 . S
C121 O116 1.259 . S
C121 O118 1.235 . S
O122 Co112 2.021 . S
O122 C119 1.238 . S
O123 Co117 2.052 . S
O123 C119 1.241 . S
O124 Co112 2.137 . S
O124 C115 1.247 . S
O125 Co112 2.244 . S
O125 C115 1.272 . S
O125 Co117 2.135 . S
Co126 O127 2.216 . S
Co126 O128 2.091 . S
Co126 O130 2.004 . S
Co126 O136 2.021 . S
Co126 O138 2.137 . S
Co126 O139 2.244 . S
O127 Co126 2.216 . S
O127 C134 1.247 . S
O128 Co126 2.091 . S
O128 C134 1.261 . S
C129 O138 1.247 . S
C129 O139 1.272 . S
O130 Co126 2.004 . S
O130 C135 1.259 1_556 S
Co131 O132 2.061 . S
Co131 O137 2.052 . S
Co131 O139 2.135 . S
O132 Co131 2.061 . S
O132 C135 1.235 1_556 S
C133 O136 1.238 . S
C133 O137 1.241 . S
C134 O127 1.247 . S
C134 O128 1.261 . S
C135 O130 1.259 1_554 S
C135 O132 1.235 1_554 S
O136 Co126 2.021 . S
O136 C133 1.238 . S
O137 Co131 2.052 . S
O137 C133 1.241 . S
O138 Co126 2.137 . S
O138 C129 1.247 . S
O139 Co126 2.244 . S
O139 C129 1.272 . S
O139 Co131 2.135 . S
Co140 O141 2.216 1_554 S
Co140 O142 2.091 . S
Co140 O144 2.004 . S
Co140 O150 2.021 . S
Co140 O152 2.137 . S
Co140 O153 2.244 . S
O141 Co140 2.216 1_556 S
O141 C148 1.247 1_556 S
O142 Co140 2.091 . S
O142 C148 1.261 . S
C143 O152 1.247 . S
C143 O153 1.272 . S
O144 Co140 2.004 . S
O144 C149 1.259 . S
Co145 O146 2.061 . S
Co145 O151 2.052 1_554 S
Co145 O153 2.135 . S
O146 Co145 2.061 . S
O146 C149 1.235 . S
C147 O150 1.238 1_556 S
C147 O151 1.241 . S
C148 O141 1.247 1_554 S
C148 O142 1.261 . S
C149 O144 1.259 . S
C149 O146 1.235 . S
O150 Co140 2.021 . S
O150 C147 1.238 1_554 S
O151 Co145 2.052 1_556 S
O151 C147 1.241 . S
O152 Co140 2.137 . S
O152 C143 1.247 . S
O153 Co140 2.244 . S
O153 C143 1.272 . S
O153 Co145 2.135 . S
Co154 O155 2.216 . S
Co154 O156 2.091 . S
Co154 O158 2.004 . S
Co154 O164 2.021 . S
Co154 O166 2.137 . S
Co154 O167 2.244 . S
O155 Co154 2.216 . S
O155 C162 1.247 . S
O156 Co154 2.091 . S
O156 C162 1.261 . S
C157 O166 1.247 . S
C157 O167 1.272 . S
O158 Co154 2.004 . S
O158 C163 1.259 . S
Co159 O160 2.061 . S
Co159 O165 2.052 . S
Co159 O167 2.135 . S
O160 Co159 2.061 . S
O160 C163 1.235 . S
C161 O164 1.238 . S
C161 O165 1.241 . S
C162 O155 1.247 . S
C162 O156 1.261 . S
C163 O158 1.259 . S
C163 O160 1.235 . S
O164 Co154 2.021 . S
O164 C161 1.238 . S
O165 Co159 2.052 . S
O165 C161 1.241 . S
O166 Co154 2.137 . S
O166 C157 1.247 . S
O167 Co154 2.244 . S
O167 C157 1.272 . S
O167 Co159 2.135 . S
H168 C174 0.930 . S
H169 C177 0.930 . S
H170 C178 0.930 . S
H171 C179 0.930 . S
H172 C182 0.930 . S
H173 C183 0.930 . S
C174 H168 0.930 . S
C174 C175 1.355 . S
C174 C176 1.415 . S
C175 C174 1.355 . S
C175 C177 1.419 . S
C176 C174 1.415 . S
C176 C181 1.425 . S
C176 C183 1.409 . S
C177 H169 0.930 . S
C177 C175 1.419 . S
C177 C178 1.362 . S
C178 H170 0.930 . S
C178 C177 1.362 . S
C178 C181 1.409 . S
C179 H171 0.930 . S
C179 C180 1.355 . S
C179 C181 1.415 . S
C180 C179 1.355 . S
C180 C182 1.419 . S
C181 C176 1.425 . S
C181 C178 1.409 . S
C181 C179 1.415 . S
C182 H172 0.930 . S
C182 C180 1.419 . S
C182 C183 1.362 . S
C183 H173 0.930 . S
C183 C176 1.409 . S
C183 C182 1.362 . S
H184 C190 0.930 . S
H185 C193 0.930 . S
H186 C194 0.930 . S
H187 C195 0.930 . S
H188 C198 0.930 . S
H189 C199 0.930 . S
C190 H184 0.930 . S
C190 C191 1.355 . S
C190 C192 1.415 1_455 S
C191 C190 1.355 . S
C191 C193 1.419 . S
C192 C190 1.415 1_655 S
C192 C197 1.425 1_655 S
C192 C199 1.409 . S
C193 H185 0.930 . S
C193 C191 1.419 . S
C193 C194 1.362 . S
C194 H186 0.930 . S
C194 C193 1.362 . S
C194 C197 1.409 . S
C195 H187 0.930 . S
C195 C196 1.355 . S
C195 C197 1.415 1_655 S
C196 C195 1.355 . S
C196 C198 1.419 . S
C197 C192 1.425 1_455 S
C197 C194 1.409 . S
C197 C195 1.415 1_455 S
C198 H188 0.930 . S
C198 C196 1.419 . S
C198 C199 1.362 . S
C199 H189 0.930 . S
C199 C192 1.409 . S
C199 C198 1.362 . S
H200 C206 0.930 . S
H201 C209 0.930 . S
H202 C210 0.930 . S
H203 C211 0.930 . S
H204 C214 0.930 . S
H205 C215 0.930 . S
C206 H200 0.930 . S
C206 C207 1.355 . S
C206 C208 1.415 1_565 S
C207 C206 1.355 . S
C207 C209 1.419 . S
C208 C206 1.415 1_545 S
C208 C213 1.425 1_545 S
C208 C215 1.409 . S
C209 H201 0.930 . S
C209 C207 1.419 . S
C209 C210 1.362 . S
C210 H202 0.930 . S
C210 C209 1.362 . S
C210 C213 1.409 . S
C211 H203 0.930 . S
C211 C212 1.355 . S
C211 C213 1.415 1_545 S
C212 C211 1.355 . S
C212 C214 1.419 . S
C213 C208 1.425 1_565 S
C213 C210 1.409 . S
C213 C211 1.415 1_565 S
C214 H204 0.930 . S
C214 C212 1.419 . S
C214 C215 1.362 . S
C215 H205 0.930 . S
C215 C208 1.409 . S
C215 C214 1.362 . S
H216 C222 0.930 . S
H217 C225 0.930 . S
H218 C226 0.930 . S
H219 C227 0.930 . S
H220 C230 0.930 . S
H221 C231 0.930 . S
C222 H216 0.930 . S
C222 C223 1.355 . S
C222 C224 1.415 . S
C223 C222 1.355 . S
C223 C225 1.419 . S
C224 C222 1.415 . S
C224 C229 1.425 . S
C224 C231 1.409 . S
C225 H217 0.930 . S
C225 C223 1.419 . S
C225 C226 1.362 . S
C226 H218 0.930 . S
C226 C225 1.362 . S
C226 C229 1.409 . S
C227 H219 0.930 . S
C227 C228 1.355 . S
C227 C229 1.415 . S
C228 C227 1.355 . S
C228 C230 1.419 . S
C229 C224 1.425 . S
C229 C226 1.409 . S
C229 C227 1.415 . S
C230 H220 0.930 . S
C230 C228 1.419 . S
C230 C231 1.362 . S
C231 H221 0.930 . S
C231 C224 1.409 . S
C231 C230 1.362 . S
H232 C238 0.930 . S
H233 C241 0.930 . S
H234 C242 0.930 . S
H235 C243 0.930 . S
H236 C246 0.930 . S
H237 C247 0.930 . S
C238 H232 0.930 . S
C238 C239 1.355 . S
C238 C240 1.415 . S
C239 C238 1.355 . S
C239 C241 1.419 . S
C240 C238 1.415 . S
C240 C245 1.425 1_455 S
C240 C247 1.409 1_455 S
C241 H233 0.930 . S
C241 C239 1.419 . S
C241 C242 1.362 . S
C242 H234 0.930 . S
C242 C241 1.362 . S
C242 C245 1.409 1_455 S
C243 H235 0.930 . S
C243 C244 1.355 . S
C243 C245 1.415 . S
C244 C243 1.355 . S
C244 C246 1.419 . S
C245 C240 1.425 1_655 S
C245 C242 1.409 1_655 S
C245 C243 1.415 . S
C246 H236 0.930 . S
C246 C244 1.419 . S
C246 C247 1.362 . S
C247 H237 0.930 . S
C247 C240 1.409 1_655 S
C247 C246 1.362 . S
H248 C254 0.930 . S
H249 C257 0.930 . S
H250 C258 0.932 1_565 S
H251 C259 0.930 . S
H252 C262 0.930 . S
H253 C263 0.932 1_545 S
C254 H248 0.930 . S
C254 C255 1.355 . S
C254 C256 1.415 . S
C255 C254 1.355 . S
C255 C257 1.419 . S
C256 C254 1.415 . S
C256 C261 1.425 1_546 S
C256 C263 1.409 1_546 S
C257 H249 0.930 . S
C257 C255 1.419 . S
C257 C258 1.362 . S
C258 H250 0.932 1_545 S
C258 C257 1.362 . S
C258 C261 1.409 1_546 S
C259 H251 0.930 . S
C259 C260 1.355 . S
C259 C261 1.415 . S
C260 C259 1.355 . S
C260 C262 1.419 . S
C261 C256 1.425 1_564 S
C261 C258 1.409 1_564 S
C261 C259 1.415 . S
C262 H252 0.930 . S
C262 C260 1.419 . S
C262 C263 1.362 . S
C263 H253 0.932 1_565 S
C263 C256 1.409 1_564 S
C263 C262 1.362 . S
H264 C270 0.930 . S
H265 C273 0.930 . S
H266 C274 0.930 . S
H267 C275 0.930 . S
H268 C278 0.930 . S
H269 C279 0.930 . S
C270 H264 0.930 . S
C270 C271 1.355 . S
C270 C272 1.415 . S
C271 C270 1.355 . S
C271 C273 1.419 . S
C272 C270 1.415 . S
C272 C277 1.425 . S
C272 C279 1.409 . S
C273 H265 0.930 . S
C273 C271 1.419 . S
C273 C274 1.362 . S
C274 H266 0.930 . S
C274 C273 1.362 . S
C274 C277 1.409 . S
C275 H267 0.930 . S
C275 C276 1.355 . S
C275 C277 1.415 . S
C276 C275 1.355 . S
C276 C278 1.419 . S
C277 C272 1.425 . S
C277 C274 1.409 . S
C277 C275 1.415 . S
C278 H268 0.930 . S
C278 C276 1.419 . S
C278 C279 1.362 . S
C279 H269 0.930 . S
C279 C272 1.409 . S
C279 C278 1.362 . S
H280 C286 0.930 . S
H281 C289 0.930 . S
H282 C290 0.930 . S
H283 C291 0.930 . S
H284 C294 0.930 . S
H285 C295 0.930 . S
C286 H280 0.930 . S
C286 C287 1.355 . S
C286 C288 1.415 . S
C287 C286 1.355 . S
C287 C289 1.419 . S
C288 C286 1.415 . S
C288 C293 1.425 . S
C288 C295 1.409 . S
C289 H281 0.930 . S
C289 C287 1.419 . S
C289 C290 1.362 . S
C290 H282 0.930 . S
C290 C289 1.362 . S
C290 C293 1.409 . S
C291 H283 0.930 . S
C291 C292 1.355 . S
C291 C293 1.415 . S
C292 C291 1.355 . S
C292 C294 1.419 . S
C293 C288 1.425 . S
C293 C290 1.409 . S
C293 C291 1.415 . S
C294 H284 0.930 . S
C294 C292 1.419 . S
C294 C295 1.362 . S
C295 H285 0.930 . S
C295 C288 1.409 . S
C295 C294 1.362 . S
H296 C302 0.930 . S
H297 C305 0.930 . S
H298 C306 0.930 . S
H299 C307 0.930 . S
H300 C310 0.930 . S
H301 C311 0.930 . S
C302 H296 0.930 . S
C302 C303 1.355 . S
C302 C304 1.415 . S
C303 C302 1.355 . S
C303 C305 1.419 . S
C304 C302 1.415 . S
C304 C309 1.425 . S
C304 C311 1.409 . S
C305 H297 0.930 . S
C305 C303 1.419 . S
C305 C306 1.362 . S
C306 H298 0.930 . S
C306 C305 1.362 . S
C306 C309 1.409 . S
C307 H299 0.930 . S
C307 C308 1.355 . S
C307 C309 1.415 . S
C308 C307 1.355 . S
C308 C310 1.419 . S
C309 C304 1.425 . S
C309 C306 1.409 . S
C309 C307 1.415 . S
C310 H300 0.930 . S
C310 C308 1.419 . S
C310 C311 1.362 . S
C311 H301 0.930 . S
C311 C304 1.409 . S
C311 C310 1.362 . S
H312 C318 0.930 . S
H313 C321 0.930 . S
H314 C322 0.930 . S
H315 C323 0.930 . S
H316 C326 0.930 . S
H317 C327 0.930 . S
C318 H312 0.930 . S
C318 C319 1.355 . S
C318 C320 1.415 . S
C319 C318 1.355 . S
C319 C321 1.419 . S
C320 C318 1.415 . S
C320 C325 1.425 . S
C320 C327 1.409 . S
C321 H313 0.930 . S
C321 C319 1.419 . S
C321 C322 1.362 . S
C322 H314 0.930 . S
C322 C321 1.362 . S
C322 C325 1.409 . S
C323 H315 0.930 . S
C323 C324 1.355 . S
C323 C325 1.415 . S
C324 C323 1.355 . S
C324 C326 1.419 . S
C325 C320 1.425 . S
C325 C322 1.409 . S
C325 C323 1.415 . S
C326 H316 0.930 . S
C326 C324 1.419 . S
C326 C327 1.362 . S
C327 H317 0.930 . S
C327 C320 1.409 . S
C327 C326 1.362 . S
H328 C334 0.930 . S
H329 C337 0.930 . S
H330 C338 0.930 . S
H331 C339 0.930 . S
H332 C342 0.930 . S
H333 C343 0.930 . S
C334 H328 0.930 . S
C334 C335 1.355 . S
C334 C336 1.415 . S
C335 C334 1.355 . S
C335 C337 1.419 . S
C336 C334 1.415 . S
C336 C341 1.425 . S
C336 C343 1.409 . S
C337 H329 0.930 . S
C337 C335 1.419 . S
C337 C338 1.362 . S
C338 H330 0.930 . S
C338 C337 1.362 . S
C338 C341 1.409 . S
C339 H331 0.930 . S
C339 C340 1.355 . S
C339 C341 1.415 . S
C340 C339 1.355 . S
C340 C342 1.419 . S
C341 C336 1.425 . S
C341 C338 1.409 . S
C341 C339 1.415 . S
C342 H332 0.930 . S
C342 C340 1.419 . S
C342 C343 1.362 . S
C343 H333 0.930 . S
C343 C336 1.409 . S
C343 C342 1.362 . S
H344 C350 0.930 . S
H345 C353 0.930 . S
H346 C354 0.930 . S
H347 C355 0.930 . S
H348 C358 0.930 . S
H349 C359 0.930 . S
C350 H344 0.930 . S
C350 C351 1.355 . S
C350 C352 1.415 . S
C351 C350 1.355 . S
C351 C353 1.419 . S
C352 C350 1.415 . S
C352 C357 1.425 . S
C352 C359 1.409 . S
C353 H345 0.930 . S
C353 C351 1.419 . S
C353 C354 1.362 . S
C354 H346 0.930 . S
C354 C353 1.362 . S
C354 C357 1.409 . S
C355 H347 0.930 . S
C355 C356 1.355 . S
C355 C357 1.415 . S
C356 C355 1.355 . S
C356 C358 1.419 . S
C357 C352 1.425 . S
C357 C354 1.409 . S
C357 C355 1.415 . S
C358 H348 0.930 . S
C358 C356 1.419 . S
C358 C359 1.362 . S
C359 H349 0.930 . S
C359 C352 1.409 . S
C359 C358 1.362 . S
H360 C366 0.930 . S
H361 C369 0.930 . S
H362 C370 0.930 . S
H363 C371 0.930 . S
H364 C374 0.930 . S
H365 C375 0.930 . S
C366 H360 0.930 . S
C366 C367 1.355 . S
C366 C368 1.415 . S
C367 C366 1.355 . S
C367 C369 1.419 . S
C368 C366 1.415 . S
C368 C373 1.425 . S
C368 C375 1.409 . S
C369 H361 0.930 . S
C369 C367 1.419 . S
C369 C370 1.362 . S
C370 H362 0.930 . S
C370 C369 1.362 . S
C370 C373 1.409 . S
C371 H363 0.930 . S
C371 C372 1.355 . S
C371 C373 1.415 . S
C372 C371 1.355 . S
C372 C374 1.419 . S
C373 C368 1.425 . S
C373 C370 1.409 . S
C373 C371 1.415 . S
C374 H364 0.930 . S
C374 C372 1.419 . S
C374 C375 1.362 . S
C375 H365 0.930 . S
C375 C368 1.409 . S
C375 C374 1.362 . S
H376 C382 0.918 1_455 S
H377 C385 0.930 . S
H378 C386 0.930 . S
H379 C387 0.918 1_655 S
H380 C390 0.930 . S
H381 C391 0.930 . S
C382 H376 0.918 1_655 S
C382 C383 1.355 . S
C382 C384 1.415 1_655 S
C383 C382 1.355 . S
C383 C385 1.419 . S
C384 C382 1.415 1_455 S
C384 C389 1.425 1_455 S
C384 C391 1.409 . S
C385 H377 0.930 . S
C385 C383 1.419 . S
C385 C386 1.362 . S
C386 H378 0.930 . S
C386 C385 1.362 . S
C386 C389 1.409 . S
C387 H379 0.918 1_455 S
C387 C388 1.355 . S
C387 C389 1.415 1_455 S
C388 C387 1.355 . S
C388 C390 1.419 . S
C389 C384 1.425 1_655 S
C389 C386 1.409 . S
C389 C387 1.415 1_655 S
C390 H380 0.930 . S
C390 C388 1.419 . S
C390 C391 1.362 . S
C391 H381 0.930 . S
C391 C384 1.409 . S
C391 C390 1.362 . S
H392 C398 0.930 . S
H393 C401 0.930 . S
H394 C402 0.930 . S
H395 C403 0.930 . S
H396 C406 0.930 . S
H397 C407 0.930 . S
C398 H392 0.930 . S
C398 C399 1.355 . S
C398 C400 1.415 1_554 S
C399 C398 1.355 . S
C399 C401 1.419 . S
C400 C398 1.415 1_556 S
C400 C405 1.425 1_566 S
C400 C407 1.409 . S
C401 H393 0.930 . S
C401 C399 1.419 . S
C401 C402 1.362 1_565 S
C402 H394 0.930 . S
C402 C401 1.362 1_545 S
C402 C405 1.409 . S
C403 H395 0.930 . S
C403 C404 1.355 . S
C403 C405 1.415 1_556 S
C404 C403 1.355 . S
C404 C406 1.419 . S
C405 C400 1.425 1_544 S
C405 C402 1.409 . S
C405 C403 1.415 1_554 S
C406 H396 0.930 . S
C406 C404 1.419 . S
C406 C407 1.362 1_545 S
C407 H397 0.930 . S
C407 C400 1.409 . S
C407 C406 1.362 1_565 S
H408 C414 0.930 . S
H409 C417 0.930 . S
H410 C418 0.930 . S
H411 C419 0.930 . S
H412 C422 0.930 . S
H413 C423 0.930 . S
C414 H408 0.930 . S
C414 C415 1.355 . S
C414 C416 1.415 . S
C415 C414 1.355 . S
C415 C417 1.419 . S
C416 C414 1.415 . S
C416 C421 1.425 . S
C416 C423 1.409 . S
C417 H409 0.930 . S
C417 C415 1.419 . S
C417 C418 1.362 . S
C418 H410 0.930 . S
C418 C417 1.362 . S
C418 C421 1.409 . S
C419 H411 0.930 . S
C419 C420 1.355 . S
C419 C421 1.415 . S
C420 C419 1.355 . S
C420 C422 1.419 . S
C421 C416 1.425 . S
C421 C418 1.409 . S
C421 C419 1.415 . S
C422 H412 0.930 . S
C422 C420 1.419 . S
C422 C423 1.362 . S
C423 H413 0.930 . S
C423 C416 1.409 . S
C423 C422 1.362 . S
H424 C430 0.930 . S
H425 C433 0.930 . S
H426 C434 0.930 . S
H427 C435 0.930 . S
H428 C438 0.930 . S
H429 C439 0.930 . S
C430 H424 0.930 . S
C430 C431 1.355 . S
C430 C432 1.415 . S
C431 C430 1.355 . S
C431 C433 1.419 . S
C432 C430 1.415 . S
C432 C437 1.425 1_455 S
C432 C439 1.409 . S
C433 H425 0.930 . S
C433 C431 1.419 . S
C433 C434 1.362 1_455 S
C434 H426 0.930 . S
C434 C433 1.362 1_655 S
C434 C437 1.409 . S
C435 H427 0.930 . S
C435 C436 1.355 . S
C435 C437 1.415 . S
C436 C435 1.355 . S
C436 C438 1.419 . S
C437 C432 1.425 1_655 S
C437 C434 1.409 . S
C437 C435 1.415 . S
C438 H428 0.930 . S
C438 C436 1.419 . S
C438 C439 1.362 1_655 S
C439 H429 0.930 . S
C439 C432 1.409 . S
C439 C438 1.362 1_455 S
H440 C446 0.930 . S
H441 C449 0.930 . S
H442 C450 0.930 . S
H443 C451 0.930 . S
H444 C454 0.930 . S
H445 C455 0.930 . S
C446 H440 0.930 . S
C446 C447 1.355 . S
C446 C448 1.415 . S
C447 C446 1.355 . S
C447 C449 1.419 . S
C448 C446 1.415 . S
C448 C453 1.425 1_565 S
C448 C455 1.409 . S
C449 H441 0.930 . S
C449 C447 1.419 . S
C449 C450 1.362 1_565 S
C450 H442 0.930 . S
C450 C449 1.362 1_545 S
C450 C453 1.409 . S
C451 H443 0.930 . S
C451 C452 1.355 . S
C451 C453 1.415 . S
C452 C451 1.355 . S
C452 C454 1.419 . S
C453 C448 1.425 1_545 S
C453 C450 1.409 . S
C453 C451 1.415 . S
C454 H444 0.930 . S
C454 C452 1.419 . S
C454 C455 1.362 1_545 S
C455 H445 0.930 . S
C455 C448 1.409 . S
C455 C454 1.362 1_565 S
H456 C462 0.930 . S
H457 C465 0.930 . S
H458 C466 0.930 . S
H459 C467 0.930 . S
H460 C470 0.930 . S
H461 C471 0.930 . S
C462 H456 0.930 . S
C462 C463 1.355 . S
C462 C464 1.415 . S
C463 C462 1.355 . S
C463 C465 1.419 . S
C464 C462 1.415 . S
C464 C469 1.425 . S
C464 C471 1.409 . S
C465 H457 0.930 . S
C465 C463 1.419 . S
C465 C466 1.362 . S
C466 H458 0.930 . S
C466 C465 1.362 . S
C466 C469 1.409 . S
C467 H459 0.930 . S
C467 C468 1.355 . S
C467 C469 1.415 . S
C468 C467 1.355 . S
C468 C470 1.419 . S
C469 C464 1.425 . S
C469 C466 1.409 . S
C469 C467 1.415 . S
C470 H460 0.930 . S
C470 C468 1.419 . S
C470 C471 1.362 . S
C471 H461 0.930 . S
C471 C464 1.409 . S
C471 C470 1.362 . S
H472 C478 0.930 . S
H473 C481 0.930 . S
H474 C482 0.930 . S
H475 C483 0.930 . S
H476 C486 0.930 . S
H477 C487 0.930 . S
C478 H472 0.930 . S
C478 C479 1.355 . S
C478 C480 1.415 . S
C479 C478 1.355 . S
C479 C481 1.419 . S
C480 C478 1.415 . S
C480 C485 1.425 . S
C480 C487 1.409 . S
C481 H473 0.930 . S
C481 C479 1.419 . S
C481 C482 1.362 . S
C482 H474 0.930 . S
C482 C481 1.362 . S
C482 C485 1.409 . S
C483 H475 0.930 . S
C483 C484 1.355 . S
C483 C485 1.415 . S
C484 C483 1.355 . S
C484 C486 1.419 . S
C485 C480 1.425 . S
C485 C482 1.409 . S
C485 C483 1.415 . S
C486 H476 0.930 . S
C486 C484 1.419 . S
C486 C487 1.362 . S
C487 H477 0.930 . S
C487 C480 1.409 . S
C487 C486 1.362 . S
H488 C494 0.930 1_554 S
H489 C497 0.930 . S
H490 C498 0.930 . S
H491 C499 0.930 . S
H492 C502 0.930 . S
H493 C503 0.930 1_554 S
C494 H488 0.930 1_556 S
C494 C495 1.355 . S
C494 C496 1.415 . S
C495 C494 1.355 . S
C495 C497 1.419 . S
C496 C494 1.415 . S
C496 C501 1.425 . S
C496 C503 1.409 . S
C497 H489 0.930 . S
C497 C495 1.419 . S
C497 C498 1.362 . S
C498 H490 0.930 . S
C498 C497 1.362 . S
C498 C501 1.409 . S
C499 H491 0.930 . S
C499 C500 1.355 . S
C499 C501 1.415 . S
C500 C499 1.355 . S
C500 C502 1.419 . S
C501 C496 1.425 . S
C501 C498 1.409 . S
C501 C499 1.415 . S
C502 H492 0.930 . S
C502 C500 1.419 . S
C502 C503 1.362 . S
C503 H493 0.930 1_556 S
C503 C496 1.409 . S
C503 C502 1.362 . S
H504 C510 0.930 . S
H505 C513 0.930 . S
H506 C514 0.930 1_556 S
H507 C515 0.928 1_556 S
H508 C518 0.930 . S
H509 C519 0.930 . S
C510 H504 0.930 . S
C510 C511 1.355 . S
C510 C512 1.415 . S
C511 C510 1.355 . S
C511 C513 1.419 . S
C512 C510 1.415 . S
C512 C517 1.425 . S
C512 C519 1.409 . S
C513 H505 0.930 . S
C513 C511 1.419 . S
C513 C514 1.362 . S
C514 H506 0.930 1_554 S
C514 C513 1.362 . S
C514 C517 1.409 . S
C515 H507 0.928 1_554 S
C515 C516 1.355 . S
C515 C517 1.416 . S
C516 C515 1.355 . S
C516 C518 1.419 . S
C517 C512 1.425 . S
C517 C514 1.409 . S
C517 C515 1.416 . S
C518 H508 0.930 . S
C518 C516 1.419 . S
C518 C519 1.362 . S
C519 H509 0.930 . S
C519 C512 1.409 . S
C519 C518 1.362 . S
H520 C526 0.930 . S
H521 C529 0.930 . S
H522 C530 0.930 . S
H523 C531 0.930 . S
H524 C534 0.930 . S
H525 C535 0.930 . S
C526 H520 0.930 . S
C526 C527 1.355 . S
C526 C528 1.415 . S
C527 C526 1.355 . S
C527 C529 1.419 . S
C528 C526 1.415 . S
C528 C533 1.425 . S
C528 C535 1.409 . S
C529 H521 0.930 . S
C529 C527 1.419 . S
C529 C530 1.362 . S
C530 H522 0.930 . S
C530 C529 1.362 . S
C530 C533 1.409 . S
C531 H523 0.930 . S
C531 C532 1.355 . S
C531 C533 1.415 . S
C532 C531 1.355 . S
C532 C534 1.419 . S
C533 C528 1.425 . S
C533 C530 1.409 . S
C533 C531 1.415 . S
C534 H524 0.930 . S
C534 C532 1.419 . S
C534 C535 1.362 . S
C535 H525 0.930 . S
C535 C528 1.409 . S
C535 C534 1.362 . S
H536 C542 0.930 . S
H537 C545 0.930 . S
H538 C546 0.930 . S
H539 C547 0.930 . S
H540 C550 0.930 . S
H541 C551 0.930 . S
C542 H536 0.930 . S
C542 C543 1.355 . S
C542 C544 1.415 . S
C543 C542 1.355 . S
C543 C545 1.419 . S
C544 C542 1.415 . S
C544 C549 1.425 . S
C544 C551 1.409 . S
C545 H537 0.930 . S
C545 C543 1.419 . S
C545 C546 1.362 . S
C546 H538 0.930 . S
C546 C545 1.362 . S
C546 C549 1.409 . S
C547 H539 0.930 . S
C547 C548 1.355 . S
C547 C549 1.415 . S
C548 C547 1.355 . S
C548 C550 1.419 . S
C549 C544 1.425 . S
C549 C546 1.409 . S
C549 C547 1.415 . S
C550 H540 0.930 . S
C550 C548 1.419 . S
C550 C551 1.362 . S
C551 H541 0.930 . S
C551 C544 1.409 . S
C551 C550 1.362 . S
C175 C135 1.504 . S
C180 C9 1.550 . S
C191 C23 1.539 . S
C196 C149 1.562 . S
C207 C163 1.543 . S
C212 C37 1.559 . S
C223 C93 1.565 . S
C228 C51 1.526 . S
C239 C107 1.514 . S
C244 C65 1.562 . S
C255 C121 1.548 . S
C260 C79 1.504 . S
C271 C87 1.522 . S
C276 C3 1.547 . S
C287 C17 1.556 . S
C292 C101 1.527 . S
C303 C115 1.561 . S
C308 C31 1.533 . S
C319 C45 1.558 . S
C324 C129 1.529 . S
C335 C143 1.532 . S
C340 C59 1.561 . S
C351 C73 1.541 . S
C356 C157 1.521 . S
C367 C133 1.359 . S
C372 C7 1.372 . S
C383 C147 1.335 . S
C388 C21 1.387 . S
C399 C161 1.357 . S
C404 C35 1.311 . S
C415 C49 1.391 . S
C420 C91 1.314 . S
C431 C105 1.319 . S
C436 C63 1.344 . S
C447 C77 1.313 . S
C452 C119 1.353 . S
C463 C8 1.238 . S
C468 C120 1.241 . S
C479 C134 1.226 . S
C484 C22 1.228 . S
C495 C148 1.226 1_556 S
C500 C36 1.226 . S
C511 C162 1.226 . S
C516 C50 1.226 1_554 S
C527 C92 1.228 . S
C532 C64 1.227 . S
C543 C106 1.257 . S
C548 C78 1.257 . S
