# Generated by pormake.
# Topology sod-h, (3)-cn, num edge types: 1
# Building blocks:
#     Node 0, Type 0, BuildingBlock: OLANEW_clean_sbu_2, # of connection points: 3
#     Node 1, Type 0, BuildingBlock: OLANEW_clean_sbu_2, # of connection points: 3
#     Node 2, Type 0, BuildingBlock: OLANEW_clean_sbu_2, # of connection points: 3
#     Node 3, Type 0, BuildingBlock: OLANEW_clean_sbu_2, # of connection points: 3
#     Node 4, Type 0, BuildingBlock: OLANEW_clean_sbu_2, # of connection points: 3
#     Node 5, Type 0, BuildingBlock: OLANEW_clean_sbu_2, # of connection points: 3
#     Node 6, Type 0, BuildingBlock: OLANEW_clean_sbu_2, # of connection points: 3
#     Node 7, Type 0, BuildingBlock: OLANEW_clean_sbu_2, # of connection points: 3
#     Node 8, Type 0, BuildingBlock: OLANEW_clean_sbu_2, # of connection points: 3
#     Node 9, Type 0, BuildingBlock: OLANEW_clean_sbu_2, # of connection points: 3
#     Node 10, Type 0, BuildingBlock: OLANEW_clean_sbu_2, # of connection points: 3
#     Node 11, Type 0, BuildingBlock: OLANEW_clean_sbu_2, # of connection points: 3
#     Node 12, Type 0, BuildingBlock: OLANEW_clean_sbu_2, # of connection points: 3
#     Node 13, Type 0, BuildingBlock: OLANEW_clean_sbu_2, # of connection points: 3
#     Node 14, Type 0, BuildingBlock: OLANEW_clean_sbu_2, # of connection points: 3
#     Node 15, Type 0, BuildingBlock: OLANEW_clean_sbu_2, # of connection points: 3
#     Node 16, Type 0, BuildingBlock: OLANEW_clean_sbu_2, # of connection points: 3
#     Node 17, Type 0, BuildingBlock: OLANEW_clean_sbu_2, # of connection points: 3
#     Node 18, Type 0, BuildingBlock: OLANEW_clean_sbu_2, # of connection points: 3
#     Node 19, Type 0, BuildingBlock: OLANEW_clean_sbu_2, # of connection points: 3
#     Node 20, Type 0, BuildingBlock: OLANEW_clean_sbu_2, # of connection points: 3
#     Node 21, Type 0, BuildingBlock: OLANEW_clean_sbu_2, # of connection points: 3
#     Node 22, Type 0, BuildingBlock: OLANEW_clean_sbu_2, # of connection points: 3
#     Node 23, Type 0, BuildingBlock: OLANEW_clean_sbu_2, # of connection points: 3
#     Node 24, Type 0, BuildingBlock: OLANEW_clean_sbu_2, # of connection points: 3
#     Node 25, Type 0, BuildingBlock: OLANEW_clean_sbu_2, # of connection points: 3
#     Node 26, Type 0, BuildingBlock: OLANEW_clean_sbu_2, # of connection points: 3
#     Node 27, Type 0, BuildingBlock: OLANEW_clean_sbu_2, # of connection points: 3
#     Node 28, Type 0, BuildingBlock: OLANEW_clean_sbu_2, # of connection points: 3
#     Node 29, Type 0, BuildingBlock: OLANEW_clean_sbu_2, # of connection points: 3
#     Node 30, Type 0, BuildingBlock: OLANEW_clean_sbu_2, # of connection points: 3
#     Node 31, Type 0, BuildingBlock: OLANEW_clean_sbu_2, # of connection points: 3
#     Node 32, Type 0, BuildingBlock: OLANEW_clean_sbu_2, # of connection points: 3
#     Node 33, Type 0, BuildingBlock: OLANEW_clean_sbu_2, # of connection points: 3
#     Node 34, Type 0, BuildingBlock: OLANEW_clean_sbu_2, # of connection points: 3
#     Node 35, Type 0, BuildingBlock: OLANEW_clean_sbu_2, # of connection points: 3
#     Node 36, Type 0, BuildingBlock: OLANEW_clean_sbu_2, # of connection points: 3
#     Node 37, Type 0, BuildingBlock: OLANEW_clean_sbu_2, # of connection points: 3
#     Node 38, Type 0, BuildingBlock: OLANEW_clean_sbu_2, # of connection points: 3
#     Node 39, Type 0, BuildingBlock: OLANEW_clean_sbu_2, # of connection points: 3
#     Node 40, Type 0, BuildingBlock: OLANEW_clean_sbu_2, # of connection points: 3
#     Node 41, Type 0, BuildingBlock: OLANEW_clean_sbu_2, # of connection points: 3
#     Node 42, Type 0, BuildingBlock: OLANEW_clean_sbu_2, # of connection points: 3
#     Node 43, Type 0, BuildingBlock: OLANEW_clean_sbu_2, # of connection points: 3
#     Node 44, Type 0, BuildingBlock: OLANEW_clean_sbu_2, # of connection points: 3
#     Node 45, Type 0, BuildingBlock: OLANEW_clean_sbu_2, # of connection points: 3
#     Node 46, Type 0, BuildingBlock: OLANEW_clean_sbu_2, # of connection points: 3
#     Node 47, Type 0, BuildingBlock: OLANEW_clean_sbu_2, # of connection points: 3
#     Edge 48, Type (0, 0), BuildingBlock: OJICUG_clean_linker_0, # of connection points: 2
#     Edge 49, Type (0, 0), BuildingBlock: OJICUG_clean_linker_0, # of connection points: 2
#     Edge 50, Type (0, 0), BuildingBlock: OJICUG_clean_linker_0, # of connection points: 2
#     Edge 51, Type (0, 0), BuildingBlock: OJICUG_clean_linker_0, # of connection points: 2
#     Edge 52, Type (0, 0), BuildingBlock: OJICUG_clean_linker_0, # of connection points: 2
#     Edge 53, Type (0, 0), BuildingBlock: OJICUG_clean_linker_0, # of connection points: 2
#     Edge 54, Type (0, 0), BuildingBlock: OJICUG_clean_linker_0, # of connection points: 2
#     Edge 55, Type (0, 0), BuildingBlock: OJICUG_clean_linker_0, # of connection points: 2
#     Edge 56, Type (0, 0), BuildingBlock: OJICUG_clean_linker_0, # of connection points: 2
#     Edge 57, Type (0, 0), BuildingBlock: OJICUG_clean_linker_0, # of connection points: 2
#     Edge 58, Type (0, 0), BuildingBlock: OJICUG_clean_linker_0, # of connection points: 2
#     Edge 59, Type (0, 0), BuildingBlock: OJICUG_clean_linker_0, # of connection points: 2
#     Edge 60, Type (0, 0), BuildingBlock: OJICUG_clean_linker_0, # of connection points: 2
#     Edge 61, Type (0, 0), BuildingBlock: OJICUG_clean_linker_0, # of connection points: 2
#     Edge 62, Type (0, 0), BuildingBlock: OJICUG_clean_linker_0, # of connection points: 2
#     Edge 63, Type (0, 0), BuildingBlock: OJICUG_clean_linker_0, # of connection points: 2
#     Edge 64, Type (0, 0), BuildingBlock: OJICUG_clean_linker_0, # of connection points: 2
#     Edge 65, Type (0, 0), BuildingBlock: OJICUG_clean_linker_0, # of connection points: 2
#     Edge 66, Type (0, 0), BuildingBlock: OJICUG_clean_linker_0, # of connection points: 2
#     Edge 67, Type (0, 0), BuildingBlock: OJICUG_clean_linker_0, # of connection points: 2
#     Edge 68, Type (0, 0), BuildingBlock: OJICUG_clean_linker_0, # of connection points: 2
#     Edge 69, Type (0, 0), BuildingBlock: OJICUG_clean_linker_0, # of connection points: 2
#     Edge 70, Type (0, 0), BuildingBlock: OJICUG_clean_linker_0, # of connection points: 2
#     Edge 71, Type (0, 0), BuildingBlock: OJICUG_clean_linker_0, # of connection points: 2
#     Edge 72, Type (0, 0), BuildingBlock: OJICUG_clean_linker_0, # of connection points: 2
#     Edge 73, Type (0, 0), BuildingBlock: OJICUG_clean_linker_0, # of connection points: 2
#     Edge 74, Type (0, 0), BuildingBlock: OJICUG_clean_linker_0, # of connection points: 2
#     Edge 75, Type (0, 0), BuildingBlock: OJICUG_clean_linker_0, # of connection points: 2
#     Edge 76, Type (0, 0), BuildingBlock: OJICUG_clean_linker_0, # of connection points: 2
#     Edge 77, Type (0, 0), BuildingBlock: OJICUG_clean_linker_0, # of connection points: 2
#     Edge 78, Type (0, 0), BuildingBlock: OJICUG_clean_linker_0, # of connection points: 2
#     Edge 79, Type (0, 0), BuildingBlock: OJICUG_clean_linker_0, # of connection points: 2
#     Edge 80, Type (0, 0), BuildingBlock: OJICUG_clean_linker_0, # of connection points: 2
#     Edge 81, Type (0, 0), BuildingBlock: OJICUG_clean_linker_0, # of connection points: 2
#     Edge 82, Type (0, 0), BuildingBlock: OJICUG_clean_linker_0, # of connection points: 2
#     Edge 83, Type (0, 0), BuildingBlock: OJICUG_clean_linker_0, # of connection points: 2
#     Edge 84, Type (0, 0), BuildingBlock: OJICUG_clean_linker_0, # of connection points: 2
#     Edge 85, Type (0, 0), BuildingBlock: OJICUG_clean_linker_0, # of connection points: 2
#     Edge 86, Type (0, 0), BuildingBlock: OJICUG_clean_linker_0, # of connection points: 2
#     Edge 87, Type (0, 0), BuildingBlock: OJICUG_clean_linker_0, # of connection points: 2
#     Edge 88, Type (0, 0), BuildingBlock: OJICUG_clean_linker_0, # of connection points: 2
#     Edge 89, Type (0, 0), BuildingBlock: OJICUG_clean_linker_0, # of connection points: 2
#     Edge 90, Type (0, 0), BuildingBlock: OJICUG_clean_linker_0, # of connection points: 2
#     Edge 91, Type (0, 0), BuildingBlock: OJICUG_clean_linker_0, # of connection points: 2
#     Edge 92, Type (0, 0), BuildingBlock: OJICUG_clean_linker_0, # of connection points: 2
#     Edge 93, Type (0, 0), BuildingBlock: OJICUG_clean_linker_0, # of connection points: 2
#     Edge 94, Type (0, 0), BuildingBlock: OJICUG_clean_linker_0, # of connection points: 2
#     Edge 95, Type (0, 0), BuildingBlock: OJICUG_clean_linker_0, # of connection points: 2
#     Edge 96, Type (0, 0), BuildingBlock: OJICUG_clean_linker_0, # of connection points: 2
#     Edge 97, Type (0, 0), BuildingBlock: OJICUG_clean_linker_0, # of connection points: 2
#     Edge 98, Type (0, 0), BuildingBlock: OJICUG_clean_linker_0, # of connection points: 2
#     Edge 99, Type (0, 0), BuildingBlock: OJICUG_clean_linker_0, # of connection points: 2
#     Edge 100, Type (0, 0), BuildingBlock: OJICUG_clean_linker_0, # of connection points: 2
#     Edge 101, Type (0, 0), BuildingBlock: OJICUG_clean_linker_0, # of connection points: 2
#     Edge 102, Type (0, 0), BuildingBlock: OJICUG_clean_linker_0, # of connection points: 2
#     Edge 103, Type (0, 0), BuildingBlock: OJICUG_clean_linker_0, # of connection points: 2
#     Edge 104, Type (0, 0), BuildingBlock: OJICUG_clean_linker_0, # of connection points: 2
#     Edge 105, Type (0, 0), BuildingBlock: OJICUG_clean_linker_0, # of connection points: 2
#     Edge 106, Type (0, 0), BuildingBlock: OJICUG_clean_linker_0, # of connection points: 2
#     Edge 107, Type (0, 0), BuildingBlock: OJICUG_clean_linker_0, # of connection points: 2
#     Edge 108, Type (0, 0), BuildingBlock: OJICUG_clean_linker_0, # of connection points: 2
#     Edge 109, Type (0, 0), BuildingBlock: OJICUG_clean_linker_0, # of connection points: 2
#     Edge 110, Type (0, 0), BuildingBlock: OJICUG_clean_linker_0, # of connection points: 2
#     Edge 111, Type (0, 0), BuildingBlock: OJICUG_clean_linker_0, # of connection points: 2
#     Edge 112, Type (0, 0), BuildingBlock: OJICUG_clean_linker_0, # of connection points: 2
#     Edge 113, Type (0, 0), BuildingBlock: OJICUG_clean_linker_0, # of connection points: 2
#     Edge 114, Type (0, 0), BuildingBlock: OJICUG_clean_linker_0, # of connection points: 2
#     Edge 115, Type (0, 0), BuildingBlock: OJICUG_clean_linker_0, # of connection points: 2
#     Edge 116, Type (0, 0), BuildingBlock: OJICUG_clean_linker_0, # of connection points: 2
#     Edge 117, Type (0, 0), BuildingBlock: OJICUG_clean_linker_0, # of connection points: 2
#     Edge 118, Type (0, 0), BuildingBlock: OJICUG_clean_linker_0, # of connection points: 2
#     Edge 119, Type (0, 0), BuildingBlock: OJICUG_clean_linker_0, # of connection points: 2
# Relax obj value: 0.008
# Max RMSD: 0.022
# Mean RMSD: 0.022
data_MOF--net-sod-h--node1-OLANEW_clean_sbu_2--edge1-OJICUG_clean_linker_0
_symmetry_space_group_name_H-M    P1
_symmetry_Int_Tables_number       1
_symmetry_cell_setting            triclinic
loop_
_symmetry_equiv_pos_as_xyz
'x, y, z'
_cell_length_a     78.008608
_cell_length_b     78.003836
_cell_length_c     77.999437
_cell_angle_alpha  90.001188
_cell_angle_beta   90.000591
_cell_angle_gamma 89.999671
loop_
_atom_site_label
_atom_site_type_symbol
_atom_site_fract_x
_atom_site_fract_y
_atom_site_fract_z
_atom_type_partial_charge
O0 O 0.12632 0.22686 0.71384 0.0
Cd1 Cd 0.12489 0.21042 0.68722 0.0
O2 O 0.0984 0.22455 0.71482 0.0
Cd3 Cd 0.07232 0.22924 0.7241 0.0
O4 O 0.04466 0.23052 0.72825 0.0
C5 C 0.03525 0.23117 0.71497 0.0
O6 O 0.04262 0.23142 0.69982 0.0
C7 C 0.11228 0.22986 0.72154 0.0
C8 C 0.13928 0.17797 0.69126 0.0
O9 O 0.14815 0.19046 0.68531 0.0
O10 O 0.12359 0.18083 0.69522 0.0
O11 O 0.77429 0.62635 0.21481 0.0
Cd12 Cd 0.79158 0.62429 0.18876 0.0
O13 O 0.77705 0.59852 0.2168 0.0
Cd14 Cd 0.77278 0.5727 0.22702 0.0
O15 O 0.77317 0.54599 0.23538 0.0
C16 C 0.76289 0.53513 0.22892 0.0
O17 O 0.75156 0.54034 0.21759 0.0
C18 C 0.7713 0.61253 0.22289 0.0
C19 C 0.82458 0.63696 0.19404 0.0
O20 O 0.81276 0.64652 0.1878 0.0
O21 O 0.8208 0.6214 0.19772 0.0
O22 O 0.37414 0.27354 0.71482 0.0
Cd23 Cd 0.37617 0.29088 0.68881 0.0
O24 O 0.40194 0.27642 0.71698 0.0
Cd25 Cd 0.4277 0.27225 0.72741 0.0
O26 O 0.45424 0.27275 0.73628 0.0
C27 C 0.46529 0.26256 0.73001 0.0
O28 O 0.4604 0.25125 0.71853 0.0
C29 C 0.38792 0.2706 0.72298 0.0
C30 C 0.36311 0.32374 0.69405 0.0
O31 O 0.35372 0.31182 0.68775 0.0
O32 O 0.3787 0.32013 0.69779 0.0
O33 O 0.72806 0.87317 0.21231 0.0
Cd34 Cd 0.71127 0.87386 0.18587 0.0
O35 O 0.72338 0.90076 0.21366 0.0
Cd36 Cd 0.7258 0.92699 0.22335 0.0
O37 O 0.7241 0.9538 0.23108 0.0
C38 C 0.73607 0.96431 0.22772 0.0
O39 O 0.74992 0.95874 0.21992 0.0
C40 C 0.72995 0.88731 0.22016 0.0
C41 C 0.6784 0.86079 0.1909 0.0
O42 O 0.69049 0.85126 0.18515 0.0
O43 O 0.68185 0.87651 0.19421 0.0
O44 O 0.12723 0.27233 0.79168 0.0
Cd45 Cd 0.12627 0.28935 0.81796 0.0
O46 O 0.09923 0.27164 0.79292 0.0
Cd47 Cd 0.07324 0.26683 0.7835 0.0
O48 O 0.04579 0.2669 0.77802 0.0
C49 C 0.03772 0.28045 0.78208 0.0
O50 O 0.04629 0.29323 0.78892 0.0
C51 C 0.11304 0.26753 0.78529 0.0
C52 C 0.14067 0.32169 0.81309 0.0
O53 O 0.14961 0.30929 0.81912 0.0
O54 O 0.12492 0.31881 0.80942 0.0
O55 O 0.72609 0.62761 0.29152 0.0
Cd56 Cd 0.7076 0.62599 0.31675 0.0
O57 O 0.72495 0.59956 0.29096 0.0
Cd58 Cd 0.72926 0.57444 0.27922 0.0
O59 O 0.72936 0.54817 0.26955 0.0
C60 C 0.73994 0.53727 0.27541 0.0
O61 O 0.75123 0.5422 0.2869 0.0
C62 C 0.73038 0.61353 0.28455 0.0
C63 C 0.67509 0.63917 0.31001 0.0
O64 O 0.68676 0.64854 0.31678 0.0
O65 O 0.67878 0.62355 0.30648 0.0
O66 O 0.37245 0.22562 0.79164 0.0
Cd67 Cd 0.37376 0.20747 0.81714 0.0
O68 O 0.40051 0.22463 0.79142 0.0
Cd69 Cd 0.42574 0.22895 0.77992 0.0
O70 O 0.45208 0.22893 0.77045 0.0
C71 C 0.46302 0.2394 0.77645 0.0
O72 O 0.45809 0.25066 0.78797 0.0
C73 C 0.38659 0.22991 0.78479 0.0
C74 C 0.36078 0.17479 0.81078 0.0
O75 O 0.35125 0.18658 0.81711 0.0
O76 O 0.37646 0.17845 0.80749 0.0
O77 O 0.77472 0.87619 0.28966 0.0
Cd78 Cd 0.79247 0.87862 0.31534 0.0
O79 O 0.77364 0.90423 0.28937 0.0
Cd80 Cd 0.76796 0.92938 0.27823 0.0
O81 O 0.7676 0.95636 0.2707 0.0
C82 C 0.75495 0.96601 0.27421 0.0
O83 O 0.74151 0.95942 0.28193 0.0
C84 C 0.76952 0.88995 0.28268 0.0
C85 C 0.82422 0.86288 0.31076 0.0
O86 O 0.81169 0.85478 0.31765 0.0
O87 O 0.82174 0.87844 0.3061 0.0
O88 O 0.71331 0.128 0.22753 0.0
Cd89 Cd 0.68637 0.12678 0.21158 0.0
O90 O 0.71476 0.10025 0.22379 0.0
Cd91 Cd 0.72503 0.0744 0.22745 0.0
O92 O 0.73299 0.04761 0.22815 0.0
C93 C 0.72377 0.03683 0.23614 0.0
O94 O 0.71003 0.04226 0.24422 0.0
C95 C 0.72129 0.11398 0.22972 0.0
C96 C 0.68987 0.1401 0.1786 0.0
O97 O 0.68456 0.1495 0.19099 0.0
O98 O 0.69349 0.1244 0.18181 0.0
O99 O 0.87295 0.20814 0.72811 0.0
Cd100 Cd 0.87383 0.1818 0.7112 0.0
O101 O 0.90096 0.20699 0.729 0.0
Cd102 Cd 0.9269 0.21656 0.73385 0.0
O103 O 0.95421 0.22272 0.73422 0.0
C104 C 0.96155 0.22483 0.71983 0.0
O105 O 0.95233 0.22363 0.70578 0.0
C106 C 0.88709 0.21462 0.73293 0.0
C107 C 0.86008 0.18706 0.67864 0.0
O108 O 0.85081 0.18117 0.69087 0.0
O109 O 0.87586 0.19035 0.68179 0.0
O110 O 0.79053 0.37255 0.22434 0.0
Cd111 Cd 0.81613 0.37388 0.20633 0.0
O112 O 0.79044 0.40062 0.22358 0.0
Cd113 Cd 0.77905 0.42587 0.22808 0.0
O114 O 0.7697 0.45225 0.22839 0.0
C115 C 0.77548 0.46294 0.23924 0.0
O116 O 0.78669 0.45772 0.25067 0.0
C117 C 0.78373 0.38668 0.22872 0.0
C118 C 0.8104 0.35957 0.17409 0.0
O119 O 0.81687 0.35064 0.18627 0.0
O120 O 0.80667 0.37528 0.17716 0.0
O121 O 0.62786 0.29072 0.72931 0.0
Cd122 Cd 0.62674 0.31659 0.71169 0.0
O123 O 0.59981 0.29052 0.72821 0.0
Cd124 Cd 0.57454 0.27892 0.73206 0.0
O125 O 0.54818 0.26953 0.73162 0.0
C126 C 0.53718 0.27531 0.74216 0.0
O127 O 0.54207 0.28655 0.75372 0.0
C128 C 0.61372 0.28376 0.73337 0.0
C129 C 0.64031 0.31085 0.67913 0.0
O130 O 0.64962 0.31701 0.6912 0.0
O131 O 0.62458 0.30746 0.68246 0.0
O132 O 0.71345 0.37421 0.27184 0.0
Cd133 Cd 0.68737 0.37633 0.28906 0.0
O134 O 0.71578 0.40196 0.27504 0.0
Cd135 Cd 0.72635 0.42771 0.27121 0.0
O136 O 0.73503 0.45431 0.27206 0.0
C137 C 0.7289 0.46537 0.26179 0.0
O138 O 0.71771 0.46044 0.2502 0.0
C139 C 0.72172 0.38797 0.2691 0.0
C140 C 0.6922 0.36266 0.32172 0.0
O141 O 0.68579 0.35357 0.30962 0.0
O142 O 0.69625 0.37823 0.31838 0.0
O143 O 0.62604 0.21226 0.77446 0.0
Cd144 Cd 0.62428 0.18526 0.79028 0.0
O145 O 0.5982 0.21422 0.77716 0.0
Cd146 Cd 0.57248 0.2248 0.77316 0.0
O147 O 0.54595 0.2337 0.77383 0.0
C148 C 0.53493 0.22777 0.7634 0.0
O149 O 0.53986 0.21663 0.75176 0.0
C150 C 0.61226 0.22051 0.77177 0.0
C151 C 0.64209 0.18684 0.82124 0.0
O152 O 0.64934 0.18128 0.80757 0.0
O153 O 0.6264 0.19162 0.82025 0.0
O154 O 0.79067 0.12633 0.27438 0.0
Cd155 Cd 0.81625 0.12417 0.29231 0.0
O156 O 0.7918 0.09841 0.2718 0.0
Cd157 Cd 0.78235 0.07289 0.26486 0.0
O158 O 0.77668 0.04557 0.26244 0.0
C159 C 0.76249 0.03942 0.26756 0.0
O160 O 0.75081 0.04984 0.27378 0.0
C161 C 0.78439 0.11254 0.2684 0.0
C162 C 0.81025 0.13767 0.32485 0.0
O163 O 0.81703 0.14684 0.31302 0.0
O164 O 0.80642 0.12208 0.32132 0.0
O165 O 0.87336 0.28685 0.77211 0.0
Cd166 Cd 0.87473 0.31398 0.7877 0.0
O167 O 0.90128 0.28605 0.77439 0.0
Cd168 Cd 0.92738 0.27674 0.76995 0.0
O169 O 0.95511 0.27294 0.76966 0.0
C170 C 0.96403 0.28536 0.77528 0.0
O171 O 0.95612 0.29928 0.78052 0.0
C172 C 0.88742 0.27913 0.7693 0.0
C173 C 0.85882 0.31163 0.81961 0.0
O174 O 0.85066 0.31721 0.80649 0.0
O175 O 0.87452 0.3072 0.81764 0.0
O176 O 0.22665 0.71257 0.12528 0.0
Cd177 Cd 0.21055 0.6858 0.12297 0.0
O178 O 0.22377 0.71485 0.09748 0.0
Cd179 Cd 0.22758 0.72567 0.07184 0.0
O180 O 0.22686 0.73463 0.04533 0.0
C181 C 0.23731 0.72874 0.03431 0.0
O182 O 0.24897 0.71763 0.03923 0.0
C183 C 0.22926 0.72098 0.11157 0.0
C184 C 0.17817 0.68883 0.13778 0.0
O185 O 0.19085 0.68283 0.14635 0.0
O186 O 0.1808 0.69332 0.1222 0.0
O187 O 0.22432 0.7901 0.37153 0.0
Cd188 Cd 0.20607 0.8155 0.37304 0.0
O189 O 0.2237 0.78987 0.3996 0.0
Cd190 Cd 0.22829 0.77827 0.42474 0.0
O191 O 0.22869 0.76855 0.45098 0.0
C192 C 0.23936 0.77442 0.4618 0.0
O193 O 0.25054 0.78598 0.4568 0.0
C194 C 0.22878 0.78323 0.3856 0.0
C195 C 0.1734 0.80871 0.36029 0.0
O196 O 0.18502 0.81524 0.35069 0.0
O197 O 0.17721 0.80547 0.37595 0.0
O198 O 0.20976 0.72673 0.87167 0.0
Cd199 Cd 0.18434 0.70846 0.87282 0.0
O200 O 0.20972 0.72583 0.89973 0.0
Cd201 Cd 0.22103 0.73012 0.92506 0.0
O202 O 0.2304 0.73005 0.95143 0.0
C203 C 0.22429 0.74044 0.96239 0.0
O204 O 0.21272 0.75164 0.95747 0.0
C205 C 0.21648 0.73107 0.88586 0.0
C206 C 0.19119 0.67565 0.8604 0.0
O207 O 0.18485 0.68724 0.85062 0.0
O208 O 0.19424 0.67958 0.87607 0.0
O209 O 0.27115 0.71259 0.37268 0.0
Cd210 Cd 0.28799 0.68625 0.3745 0.0
O211 O 0.27454 0.71482 0.40042 0.0
Cd212 Cd 0.271 0.72537 0.42623 0.0
O213 O 0.27212 0.73407 0.45281 0.0
C214 C 0.26221 0.72768 0.46405 0.0
O215 O 0.25083 0.7162 0.45931 0.0
C216 C 0.2686 0.72087 0.38648 0.0
C217 C 0.32065 0.69081 0.36075 0.0
O218 O 0.30842 0.68474 0.35161 0.0
O219 O 0.31745 0.69464 0.3764 0.0
O220 O 0.28721 0.77365 0.87416 0.0
Cd221 Cd 0.31388 0.78997 0.87626 0.0
O222 O 0.28481 0.77648 0.90195 0.0
Cd223 Cd 0.27401 0.77244 0.92758 0.0
O224 O 0.26496 0.77308 0.95407 0.0
C225 C 0.27124 0.76299 0.96521 0.0
O226 O 0.2828 0.75171 0.96043 0.0
C227 C 0.27882 0.77089 0.88784 0.0
C228 C 0.31211 0.82078 0.85822 0.0
O229 O 0.31803 0.80717 0.85116 0.0
O230 O 0.30704 0.81981 0.87382 0.0
O231 O 0.27128 0.7913 0.1278 0.0
Cd232 Cd 0.28875 0.81728 0.12688 0.0
O233 O 0.27244 0.79131 0.09974 0.0
Cd234 Cd 0.2687 0.77982 0.07441 0.0
O235 O 0.26926 0.77037 0.04806 0.0
C236 C 0.25875 0.77606 0.037 0.0
O237 O 0.24711 0.78726 0.04179 0.0
C238 C 0.26731 0.78442 0.11359 0.0
C239 C 0.32134 0.81146 0.14032 0.0
O240 O 0.30929 0.81754 0.14971 0.0
O241 O 0.31797 0.80822 0.12456 0.0
O242 O 0.21437 0.77014 0.62507 0.0
Cd243 Cd 0.18754 0.78618 0.62309 0.0
O244 O 0.21628 0.77325 0.59727 0.0
Cd245 Cd 0.22675 0.76969 0.57145 0.0
O246 O 0.23522 0.77073 0.54479 0.0
C247 C 0.22904 0.76047 0.53375 0.0
O248 O 0.21796 0.74881 0.53873 0.0
C249 C 0.22261 0.76767 0.61124 0.0
C250 C 0.19045 0.81833 0.6384 0.0
O251 O 0.18442 0.80552 0.64674 0.0
O252 O 0.19504 0.81594 0.6228 0.0
O253 O 0.29333 0.72579 0.62611 0.0
Cd254 Cd 0.31937 0.70846 0.62464 0.0
O255 O 0.29292 0.72486 0.59805 0.0
Cd256 Cd 0.28101 0.72879 0.57294 0.0
O257 O 0.27109 0.72854 0.54676 0.0
C258 C 0.27659 0.7392 0.53574 0.0
O259 O 0.28789 0.75076 0.54049 0.0
C260 C 0.28621 0.72985 0.61204 0.0
C261 C 0.31445 0.67631 0.63941 0.0
O262 O 0.3208 0.68871 0.64811 0.0
O263 O 0.31049 0.6791 0.62371 0.0
O264 O 0.91632 0.78849 0.2743 0.0
Cd265 Cd 0.92046 0.81284 0.29356 0.0
O266 O 0.92416 0.76996 0.29404 0.0
Cd267 Cd 0.93573 0.78977 0.31011 0.0
O268 O 0.96047 0.80181 0.31542 0.0
C269 C 0.96622 0.81285 0.30489 0.0
O270 O 0.95635 0.81783 0.29218 0.0
C271 C 0.9182 0.77305 0.27918 0.0
C272 C 0.88951 0.82957 0.2997 0.0
O273 O 0.89966 0.83468 0.28783 0.0
O274 O 0.89407 0.81662 0.30873 0.0
O275 O 0.21106 0.41565 0.77476 0.0
Cd276 Cd 0.18694 0.41952 0.79436 0.0
O277 O 0.22977 0.42347 0.79433 0.0
Cd278 Cd 0.21013 0.43508 0.81057 0.0
O279 O 0.19817 0.45983 0.81601 0.0
C280 C 0.18717 0.46565 0.80549 0.0
O281 O 0.18219 0.45586 0.79273 0.0
C282 C 0.22655 0.41753 0.77948 0.0
C283 C 0.1713 0.38814 0.80119 0.0
O284 O 0.16558 0.39802 0.78937 0.0
O285 O 0.1843 0.39318 0.80988 0.0
O286 O 0.58189 0.70674 0.26638 0.0
Cd287 Cd 0.57715 0.68211 0.28516 0.0
O288 O 0.58279 0.72493 0.28791 0.0
Cd289 Cd 0.57184 0.706 0.30537 0.0
O290 O 0.54712 0.69471 0.31207 0.0
C291 C 0.53743 0.70284 0.32233 0.0
O292 O 0.54341 0.71668 0.32986 0.0
C293 C 0.58436 0.72187 0.27196 0.0
C294 C 0.60844 0.66739 0.2941 0.0
O295 O 0.59967 0.66157 0.28148 0.0
O296 O 0.6023 0.68003 0.30261 0.0
O297 O 0.29566 0.07996 0.7668 0.0
Cd298 Cd 0.31885 0.07601 0.78746 0.0
O299 O 0.27618 0.08022 0.78717 0.0
Cd300 Cd 0.29349 0.06879 0.806 0.0
O301 O 0.30022 0.04368 0.81647 0.0
C302 C 0.31005 0.03399 0.80782 0.0
O303 O 0.31717 0.04009 0.79382 0.0
C304 C 0.28018 0.0821 0.77147 0.0
C305 C 0.33315 0.10763 0.79592 0.0
O306 O 0.33971 0.09829 0.7841 0.0
O307 O 0.31997 0.10191 0.80388 0.0
O308 O 0.92024 0.70266 0.23502 0.0
Cd309 Cd 0.92394 0.67862 0.21525 0.0
O310 O 0.91672 0.72139 0.21424 0.0
Cd311 Cd 0.92693 0.70323 0.19554 0.0
O312 O 0.95146 0.69185 0.18832 0.0
C313 C 0.96142 0.70038 0.17865 0.0
O314 O 0.95581 0.71478 0.17194 0.0
C315 C 0.91673 0.71784 0.23016 0.0
C316 C 0.89217 0.66429 0.20739 0.0
O317 O 0.90148 0.65808 0.21942 0.0
O318 O 0.89798 0.67713 0.19895 0.0
O319 O 0.29659 0.4192 0.73476 0.0
Cd320 Cd 0.32052 0.42282 0.71484 0.0
O321 O 0.2777 0.41566 0.71413 0.0
Cd322 Cd 0.29577 0.42577 0.6953 0.0
O323 O 0.307 0.45042 0.68824 0.0
C324 C 0.29831 0.46043 0.67877 0.0
O325 O 0.28388 0.45481 0.67214 0.0
C326 C 0.28136 0.41572 0.73003 0.0
C327 C 0.33507 0.39109 0.70718 0.0
O328 O 0.34124 0.40056 0.71912 0.0
O329 O 0.32214 0.39672 0.69875 0.0
O330 O 0.58319 0.79334 0.22974 0.0
Cd331 Cd 0.57928 0.81807 0.21091 0.0
O332 O 0.58319 0.77511 0.20824 0.0
Cd333 Cd 0.57246 0.79432 0.19094 0.0
O334 O 0.54751 0.80545 0.18486 0.0
C335 C 0.53766 0.79725 0.17481 0.0
O336 O 0.54359 0.78348 0.16712 0.0
C337 C 0.58507 0.77813 0.22416 0.0
C338 C 0.61096 0.83277 0.20345 0.0
O339 O 0.60162 0.8386 0.21564 0.0
O340 O 0.60522 0.82014 0.19465 0.0
O341 O 0.21028 0.08326 0.72668 0.0
Cd342 Cd 0.18555 0.07977 0.70774 0.0
O343 O 0.2291 0.08004 0.70593 0.0
Cd344 Cd 0.20916 0.07012 0.68899 0.0
O345 O 0.19285 0.04753 0.68624 0.0
C346 C 0.19833 0.0347 0.67782 0.0
O347 O 0.21289 0.03611 0.66947 0.0
C348 C 0.22577 0.08338 0.72155 0.0
C349 C 0.16992 0.1113 0.70166 0.0
O350 O 0.16448 0.10133 0.71353 0.0
O351 O 0.18266 0.10628 0.69258 0.0
O352 O 0.28065 0.91117 0.78023 0.0
Cd353 Cd 0.30377 0.91429 0.80112 0.0
O354 O 0.26069 0.92017 0.79797 0.0
Cd355 Cd 0.27939 0.93047 0.81608 0.0
O356 O 0.29108 0.95493 0.82308 0.0
C357 C 0.30263 0.96102 0.81334 0.0
O358 O 0.30826 0.95158 0.80057 0.0
C359 C 0.26492 0.91392 0.78352 0.0
C360 C 0.30727 0.88428 0.8202 0.0
O361 O 0.29778 0.8966 0.82551 0.0
O362 O 0.31523 0.88625 0.80597 0.0
O363 O 0.07921 0.76312 0.29498 0.0
Cd364 Cd 0.07502 0.78324 0.31866 0.0
O365 O 0.08338 0.78355 0.27601 0.0
Cd366 Cd 0.07323 0.80268 0.29372 0.0
O367 O 0.04879 0.81022 0.30507 0.0
C368 C 0.03891 0.81994 0.2965 0.0
O369 O 0.04457 0.82654 0.28207 0.0
C370 C 0.08309 0.76769 0.27981 0.0
C371 C 0.10651 0.79234 0.33288 0.0
O372 O 0.09757 0.78014 0.3393 0.0
O373 O 0.10047 0.80035 0.31987 0.0
O374 O 0.23594 0.58003 0.79645 0.0
Cd375 Cd 0.21588 0.57643 0.82027 0.0
O376 O 0.21536 0.5832 0.77745 0.0
Cd377 Cd 0.19651 0.573 0.79543 0.0
O378 O 0.18928 0.54832 0.80651 0.0
C379 C 0.17973 0.53843 0.79777 0.0
O380 O 0.17313 0.54419 0.78337 0.0
C381 C 0.23124 0.58334 0.78118 0.0
C382 C 0.20709 0.60826 0.83395 0.0
O383 O 0.21921 0.5993 0.84051 0.0
O384 O 0.19902 0.60207 0.82105 0.0
O385 O 0.41662 0.72917 0.29282 0.0
Cd386 Cd 0.41953 0.70886 0.31648 0.0
O387 O 0.42213 0.70933 0.27357 0.0
Cd388 Cd 0.43353 0.69228 0.29266 0.0
O389 O 0.45842 0.68613 0.30403 0.0
C390 C 0.46451 0.69607 0.31541 0.0
O391 O 0.45494 0.70869 0.32113 0.0
C392 C 0.41752 0.72454 0.2772 0.0
C393 C 0.38775 0.70228 0.33141 0.0
O394 O 0.39774 0.7138 0.33755 0.0
O395 O 0.39287 0.69379 0.31831 0.0
O396 O 0.27602 0.58319 0.71093 0.0
Cd397 Cd 0.29556 0.57907 0.68681 0.0
O398 O 0.29552 0.57523 0.72967 0.0
Cd399 Cd 0.31166 0.56348 0.71003 0.0
O400 O 0.31695 0.53878 0.69789 0.0
C401 C 0.30641 0.5331 0.68683 0.0
O402 O 0.2937 0.543 0.68192 0.0
C403 C 0.28073 0.5813 0.72643 0.0
C404 C 0.30241 0.61026 0.67082 0.0
O405 O 0.29053 0.60036 0.66527 0.0
O406 O 0.31115 0.60532 0.68382 0.0
O407 O 0.41682 0.76961 0.20698 0.0
Cd408 Cd 0.42004 0.78989 0.18334 0.0
O409 O 0.42283 0.78932 0.22621 0.0
Cd410 Cd 0.43432 0.80629 0.20709 0.0
O411 O 0.45892 0.81274 0.19528 0.0
C412 C 0.46485 0.80304 0.1836 0.0
O413 O 0.45526 0.79043 0.17789 0.0
C414 C 0.4179 0.7742 0.22259 0.0
C415 C 0.38831 0.79755 0.16886 0.0
O416 O 0.39786 0.78578 0.16252 0.0
O417 O 0.39384 0.80578 0.18196 0.0
O418 O 0.22122 0.91198 0.7129 0.0
Cd419 Cd 0.20311 0.91569 0.68759 0.0
O420 O 0.20135 0.92129 0.73059 0.0
Cd421 Cd 0.1864 0.93192 0.70944 0.0
O422 O 0.18527 0.9546 0.69308 0.0
C423 C 0.17636 0.96742 0.69774 0.0
O424 O 0.16662 0.96599 0.71141 0.0
C425 C 0.21608 0.91474 0.72814 0.0
C426 C 0.1983 0.88444 0.67098 0.0
O427 O 0.21014 0.89479 0.66622 0.0
O428 O 0.18865 0.88895 0.68349 0.0
O429 O 0.08397 0.7224 0.2099 0.0
Cd430 Cd 0.0804 0.70271 0.18581 0.0
O431 O 0.07602 0.70292 0.22867 0.0
Cd432 Cd 0.0646 0.6866 0.20898 0.0
O433 O 0.03982 0.68131 0.19701 0.0
C434 C 0.03411 0.69183 0.18595 0.0
O435 O 0.04403 0.70448 0.18092 0.0
C436 C 0.08196 0.71776 0.22541 0.0
C437 C 0.11172 0.69733 0.1695 0.0
O438 O 0.10125 0.70878 0.16409 0.0
O439 O 0.10729 0.68831 0.1825 0.0
O440 O 0.78377 0.28124 0.91286 0.0
Cd441 Cd 0.80793 0.30088 0.91634 0.0
O442 O 0.76546 0.29956 0.92397 0.0
Cd443 Cd 0.7858 0.31525 0.93512 0.0
O444 O 0.7995 0.3187 0.95932 0.0
C445 C 0.81077 0.30768 0.96348 0.0
O446 O 0.81492 0.29573 0.95235 0.0
C447 C 0.76842 0.28538 0.91649 0.0
C448 C 0.82508 0.30512 0.88529 0.0
O449 O 0.83014 0.294 0.89628 0.0
O450 O 0.81201 0.31433 0.88907 0.0
O451 O 0.79249 0.22817 0.58339 0.0
Cd452 Cd 0.81592 0.20763 0.58019 0.0
O453 O 0.77305 0.20865 0.57739 0.0
Cd454 Cd 0.79201 0.19161 0.56578 0.0
O455 O 0.80361 0.18573 0.54093 0.0
C456 C 0.81489 0.19588 0.53499 0.0
O457 O 0.82032 0.20853 0.54469 0.0
C458 C 0.77683 0.22373 0.58232 0.0
C459 C 0.83076 0.20027 0.61184 0.0
O460 O 0.83706 0.21187 0.60205 0.0
O461 O 0.81752 0.19208 0.6066 0.0
O462 O 0.76942 0.29021 0.08066 0.0
Cd463 Cd 0.7896 0.3138 0.07644 0.0
O464 O 0.78957 0.2705 0.08051 0.0
Cd465 Cd 0.80799 0.28875 0.06999 0.0
O466 O 0.81383 0.30171 0.04587 0.0
C467 C 0.82268 0.29379 0.03472 0.0
O468 O 0.82948 0.27894 0.03884 0.0
C469 C 0.77391 0.27463 0.08248 0.0
C470 C 0.79714 0.32929 0.10774 0.0
O471 O 0.78532 0.33525 0.09799 0.0
O472 O 0.80551 0.31612 0.10258 0.0
O473 O 0.70704 0.26945 0.58344 0.0
Cd474 Cd 0.68358 0.28997 0.58035 0.0
O475 O 0.72647 0.28901 0.57753 0.0
Cd476 Cd 0.70751 0.30616 0.56606 0.0
O477 O 0.69588 0.31256 0.54135 0.0
C478 C 0.68434 0.30275 0.53534 0.0
O479 O 0.67868 0.29008 0.54489 0.0
C480 C 0.7227 0.2739 0.58238 0.0
C481 C 0.66904 0.29737 0.61213 0.0
O482 O 0.66266 0.28574 0.60243 0.0
O483 O 0.6822 0.30559 0.60673 0.0
O484 O 0.72627 0.20634 0.08178 0.0
Cd485 Cd 0.70509 0.18346 0.07887 0.0
O486 O 0.70652 0.22639 0.08032 0.0
Cd487 Cd 0.68755 0.2089 0.06945 0.0
O488 O 0.67792 0.20123 0.04428 0.0
C489 C 0.68706 0.19125 0.03521 0.0
O490 O 0.70094 0.18457 0.04203 0.0
C491 C 0.72203 0.22205 0.08284 0.0
C492 C 0.69904 0.16857 0.11077 0.0
O493 O 0.71001 0.16211 0.10038 0.0
O494 O 0.69077 0.18193 0.10596 0.0
O495 O 0.7188 0.2189 0.91235 0.0
Cd496 Cd 0.69858 0.19515 0.91512 0.0
O497 O 0.70015 0.23826 0.92085 0.0
Cd498 Cd 0.68231 0.2191 0.93076 0.0
O499 O 0.67454 0.20783 0.95518 0.0
C500 C 0.68419 0.19655 0.96192 0.0
O501 O 0.69737 0.19088 0.9531 0.0
C502 C 0.71489 0.23451 0.91496 0.0
C503 C 0.67967 0.19155 0.885 0.0
O504 O 0.67407 0.20071 0.89745 0.0
O505 O 0.69411 0.18395 0.8869 0.0
O506 O 0.76743 0.20669 0.41741 0.0
Cd507 Cd 0.78624 0.18211 0.42234 0.0
O508 O 0.7889 0.22494 0.41643 0.0
Cd509 Cd 0.80636 0.20608 0.42749 0.0
O510 O 0.81276 0.19479 0.45229 0.0
C511 C 0.82273 0.20304 0.46218 0.0
O512 O 0.83015 0.217 0.45637 0.0
C513 C 0.77296 0.22183 0.41486 0.0
C514 C 0.79498 0.16689 0.39123 0.0
O515 O 0.7824 0.16123 0.40016 0.0
O516 O 0.80354 0.17962 0.39712 0.0
O517 O 0.73065 0.29325 0.41591 0.0
Cd518 Cd 0.71183 0.31796 0.42008 0.0
O519 O 0.70923 0.27494 0.41667 0.0
Cd520 Cd 0.69209 0.29415 0.42764 0.0
O521 O 0.68599 0.30519 0.45263 0.0
C522 C 0.67596 0.29692 0.46246 0.0
O523 O 0.66832 0.28315 0.45648 0.0
C524 C 0.72508 0.27799 0.41434 0.0
C525 C 0.70453 0.33325 0.38863 0.0
O526 O 0.71677 0.33881 0.39809 0.0
O527 O 0.69563 0.32059 0.39415 0.0
C528 C 0.09995 0.24563 0.76581 0.0
C529 C 0.11274 0.25788 0.76901 0.0
H530 H 0.0901 0.22675 0.74855 0.0
C531 C 0.12555 0.26059 0.75666 0.0
H532 H 0.0904 0.24267 0.77542 0.0
C533 C 0.12533 0.25152 0.7412 0.0
C534 C 0.11229 0.23956 0.73782 0.0
H535 H 0.13566 0.26985 0.75886 0.0
H536 H 0.13528 0.25398 0.73184 0.0
C537 C 0.09975 0.23653 0.75037 0.0
C538 C 0.75353 0.60072 0.26654 0.0
C539 C 0.74107 0.61346 0.26896 0.0
H540 H 0.77347 0.59096 0.25054 0.0
C541 C 0.73905 0.62626 0.25648 0.0
H542 H 0.75585 0.59115 0.27632 0.0
C543 C 0.7489 0.62594 0.2415 0.0
C544 C 0.76104 0.61289 0.23883 0.0
H545 H 0.72962 0.63633 0.25815 0.0
H546 H 0.74687 0.63579 0.23193 0.0
C547 C 0.76352 0.60052 0.25168 0.0
C548 C 0.37411 0.23835 0.75653 0.0
C549 C 0.38677 0.24049 0.76913 0.0
H550 H 0.36476 0.24603 0.73187 0.0
C551 C 0.39947 0.25301 0.76677 0.0
H552 H 0.36407 0.22888 0.75815 0.0
C553 C 0.39975 0.26295 0.75188 0.0
C554 C 0.38751 0.26036 0.73893 0.0
H555 H 0.40894 0.25544 0.77663 0.0
H556 H 0.40926 0.27296 0.75079 0.0
C557 C 0.37451 0.24815 0.74153 0.0
C558 C 0.75283 0.87581 0.23942 0.0
C559 C 0.73993 0.88799 0.23626 0.0
H560 H 0.77235 0.86695 0.25663 0.0
C561 C 0.73646 0.90045 0.2488 0.0
H562 H 0.75566 0.86591 0.2301 0.0
C563 C 0.74615 0.90117 0.26385 0.0
C564 C 0.7593 0.88926 0.26679 0.0
H565 H 0.72594 0.90933 0.24728 0.0
H566 H 0.74302 0.91076 0.27339 0.0
C567 C 0.76238 0.8764 0.25458 0.0
C568 C 0.7559 0.1255 0.26169 0.0
C569 C 0.76841 0.113 0.25828 0.0
H570 H 0.73107 0.13544 0.25543 0.0
C571 C 0.7656 0.10122 0.24498 0.0
H572 H 0.75782 0.13486 0.27178 0.0
C573 C 0.75037 0.10161 0.23557 0.0
C574 C 0.73758 0.1137 0.23939 0.0
H575 H 0.77535 0.09197 0.24153 0.0
H576 H 0.74884 0.09275 0.22503 0.0
C577 C 0.74062 0.12583 0.25235 0.0
C578 C 0.87449 0.25891 0.7481 0.0
C579 C 0.88748 0.26262 0.76001 0.0
H580 H 0.86431 0.24084 0.73009 0.0
C581 C 0.90008 0.2502 0.76333 0.0
H582 H 0.86449 0.26817 0.74541 0.0
C583 C 0.89999 0.23458 0.75455 0.0
C584 C 0.88726 0.23106 0.74232 0.0
H585 H 0.90971 0.25228 0.77308 0.0
H586 H 0.90959 0.22508 0.75772 0.0
C587 C 0.87438 0.24328 0.73934 0.0
C588 C 0.76566 0.39945 0.25184 0.0
C589 C 0.76802 0.38685 0.23922 0.0
H590 H 0.74962 0.40915 0.27179 0.0
C591 C 0.75537 0.37427 0.2369 0.0
H592 H 0.77555 0.40885 0.2544 0.0
C593 C 0.74032 0.37466 0.24663 0.0
C594 C 0.73772 0.38757 0.25894 0.0
H595 H 0.75698 0.36431 0.22735 0.0
H596 H 0.73062 0.36497 0.24437 0.0
C597 C 0.75072 0.39972 0.2617 0.0
C598 C 0.60043 0.24968 0.76517 0.0
C599 C 0.61273 0.23686 0.7622 0.0
H600 H 0.59121 0.27466 0.75847 0.0
C601 C 0.62581 0.23995 0.7502 0.0
H602 H 0.59084 0.24819 0.77505 0.0
C603 C 0.62624 0.25529 0.74095 0.0
C604 C 0.61351 0.26777 0.74344 0.0
H605 H 0.63561 0.2304 0.74779 0.0
H606 H 0.63633 0.25727 0.73161 0.0
C607 C 0.60074 0.26492 0.75578 0.0
C608 C 0.24501 0.76558 0.10046 0.0
C609 C 0.25735 0.76836 0.11324 0.0
H610 H 0.22581 0.74884 0.09044 0.0
C611 C 0.25996 0.75577 0.12583 0.0
H612 H 0.24223 0.77539 0.09104 0.0
C613 C 0.2508 0.74037 0.12526 0.0
C614 C 0.23879 0.73736 0.11217 0.0
H615 H 0.2693 0.7577 0.13592 0.0
H616 H 0.25329 0.73074 0.13495 0.0
C617 C 0.23571 0.75028 0.10002 0.0
C618 C 0.24628 0.73974 0.37332 0.0
C619 C 0.25862 0.73698 0.38616 0.0
H620 H 0.22711 0.75661 0.36312 0.0
C621 C 0.26158 0.74992 0.39834 0.0
H622 H 0.24388 0.7301 0.36362 0.0
C623 C 0.25186 0.76496 0.39816 0.0
C624 C 0.2392 0.76747 0.38564 0.0
H625 H 0.27169 0.74869 0.40772 0.0
H626 H 0.25455 0.77479 0.40759 0.0
C627 C 0.2367 0.75489 0.37302 0.0
C628 C 0.24488 0.73926 0.87358 0.0
C629 C 0.23221 0.74153 0.88615 0.0
H630 H 0.26973 0.7466 0.86447 0.0
C631 C 0.23462 0.754 0.89889 0.0
H632 H 0.24323 0.72982 0.86352 0.0
C633 C 0.24965 0.76373 0.89933 0.0
C634 C 0.26268 0.76098 0.8872 0.0
H635 H 0.22472 0.75653 0.90829 0.0
H636 H 0.25081 0.77368 0.90889 0.0
C637 C 0.26001 0.74885 0.87414 0.0
C638 C 0.26711 0.7522 0.59939 0.0
C639 C 0.27012 0.73976 0.61202 0.0
H640 H 0.25017 0.77142 0.58976 0.0
C641 C 0.25772 0.737 0.62476 0.0
H642 H 0.27678 0.7551 0.58986 0.0
C643 C 0.24228 0.7461 0.62449 0.0
C644 C 0.23904 0.75821 0.61154 0.0
H645 H 0.25983 0.72758 0.63475 0.0
H646 H 0.23279 0.7435 0.63429 0.0
C647 C 0.25178 0.76144 0.59923 0.0
C648 C 0.91722 0.74165 0.27244 0.0
C649 C 0.91513 0.75873 0.26707 0.0
H650 H 0.91915 0.71533 0.26504 0.0
C651 C 0.91163 0.76201 0.24969 0.0
H652 H 0.9198 0.73865 0.28575 0.0
C653 C 0.91131 0.74862 0.23778 0.0
C654 C 0.91441 0.73165 0.24301 0.0
H655 H 0.90987 0.77501 0.24513 0.0
H656 H 0.90928 0.75167 0.22439 0.0
C657 C 0.91683 0.72826 0.26055 0.0
C658 C 0.23731 0.4109 0.74991 0.0
C659 C 0.24075 0.41443 0.76725 0.0
H660 H 0.24745 0.40844 0.72453 0.0
C661 C 0.25788 0.41646 0.77248 0.0
H662 H 0.22427 0.40919 0.74546 0.0
C663 C 0.27118 0.41597 0.76049 0.0
C664 C 0.26764 0.41351 0.74298 0.0
H665 H 0.261 0.41905 0.78576 0.0
H666 H 0.28415 0.41824 0.76488 0.0
C667 C 0.25062 0.41048 0.7379 0.0
C668 C 0.5879 0.74673 0.23042 0.0
C669 C 0.58766 0.76376 0.23632 0.0
H670 H 0.58719 0.72013 0.23703 0.0
C671 C 0.58834 0.76682 0.25407 0.0
H672 H 0.5875 0.7439 0.21683 0.0
C673 C 0.58817 0.75316 0.26567 0.0
C674 C 0.58731 0.73615 0.25978 0.0
H675 H 0.58829 0.77978 0.25906 0.0
H676 H 0.58799 0.756 0.27927 0.0
C677 C 0.58772 0.73308 0.24202 0.0
C678 C 0.24945 0.08725 0.76372 0.0
C679 C 0.26658 0.08509 0.75856 0.0
H680 H 0.22316 0.08862 0.7561 0.0
C681 C 0.27031 0.08428 0.74094 0.0
H682 H 0.24613 0.08806 0.77718 0.0
C683 C 0.2571 0.08456 0.72881 0.0
C684 C 0.23989 0.08571 0.73406 0.0
H685 H 0.28337 0.0827 0.7365 0.0
H686 H 0.26035 0.08321 0.71538 0.0
C687 C 0.23626 0.08759 0.75161 0.0
C688 C 0.24471 0.90626 0.74005 0.0
C689 C 0.22783 0.91195 0.74281 0.0
H690 H 0.26964 0.90227 0.75076 0.0
C691 C 0.22279 0.91642 0.75953 0.0
H692 H 0.24899 0.90262 0.72736 0.0
C693 C 0.23464 0.91621 0.77297 0.0
C694 C 0.2518 0.91154 0.76999 0.0
H695 H 0.20986 0.92075 0.76215 0.0
H696 H 0.2305 0.92039 0.78555 0.0
C697 C 0.25656 0.90606 0.75349 0.0
C698 C 0.08255 0.72503 0.2567 0.0
C699 C 0.0849 0.73009 0.23956 0.0
H700 H 0.08034 0.73288 0.28287 0.0
C701 C 0.08859 0.74738 0.23603 0.0
H702 H 0.07982 0.71179 0.25989 0.0
C703 C 0.08885 0.75951 0.24923 0.0
C704 C 0.08548 0.75459 0.26625 0.0
H705 H 0.09056 0.75171 0.22299 0.0
H706 H 0.09102 0.77283 0.24599 0.0
C707 C 0.08287 0.73713 0.26989 0.0
C708 C 0.26171 0.58306 0.77105 0.0
C709 C 0.24422 0.58554 0.76749 0.0
H710 H 0.28698 0.57988 0.7609 0.0
C711 C 0.23916 0.58855 0.75045 0.0
H712 H 0.26608 0.5808 0.78403 0.0
C713 C 0.25119 0.58808 0.73716 0.0
C714 C 0.26851 0.58451 0.74062 0.0
H715 H 0.22581 0.59062 0.74726 0.0
H716 H 0.24675 0.58977 0.72411 0.0
C717 C 0.27372 0.58251 0.75776 0.0
C718 C 0.41456 0.75484 0.26698 0.0
C719 C 0.41493 0.73721 0.26329 0.0
H720 H 0.41518 0.78039 0.25699 0.0
C721 C 0.41438 0.7319 0.24608 0.0
H722 H 0.41492 0.75937 0.2801 0.0
C723 C 0.41438 0.74396 0.23282 0.0
C724 C 0.41513 0.76159 0.23651 0.0
H725 H 0.41453 0.7184 0.24281 0.0
H726 H 0.41461 0.73942 0.2197 0.0
C727 C 0.41475 0.76691 0.25372 0.0
C728 C 0.75766 0.25636 0.90775 0.0
C729 C 0.75424 0.27307 0.91358 0.0
H730 H 0.74789 0.23108 0.90349 0.0
C731 C 0.73733 0.27743 0.91804 0.0
H732 H 0.77052 0.25259 0.90413 0.0
C733 C 0.72435 0.2651 0.91764 0.0
C734 C 0.72798 0.24812 0.91282 0.0
H735 H 0.73422 0.29022 0.92246 0.0
H736 H 0.71161 0.26875 0.92179 0.0
C737 C 0.74467 0.24401 0.90739 0.0
C738 C 0.73264 0.24353 0.58563 0.0
C739 C 0.73649 0.26113 0.58508 0.0
H740 H 0.74238 0.21788 0.58521 0.0
C741 C 0.75375 0.26628 0.58554 0.0
H742 H 0.71948 0.23912 0.58533 0.0
C743 C 0.76689 0.2541 0.58563 0.0
C744 C 0.76304 0.2365 0.58505 0.0
H745 H 0.75715 0.27975 0.58526 0.0
H746 H 0.78005 0.2585 0.58534 0.0
C747 C 0.74578 0.23135 0.58552 0.0
C748 C 0.76537 0.24378 0.08568 0.0
C749 C 0.76076 0.2612 0.08519 0.0
H750 H 0.75678 0.21773 0.08547 0.0
C751 C 0.74328 0.26558 0.08582 0.0
H752 H 0.77872 0.23996 0.08531 0.0
C753 C 0.7307 0.25283 0.08589 0.0
C754 C 0.7353 0.23541 0.08536 0.0
H755 H 0.73926 0.27886 0.08558 0.0
H756 H 0.71736 0.25667 0.08571 0.0
C757 C 0.75278 0.23102 0.08577 0.0
C758 C 0.73136 0.24659 0.41156 0.0
C759 C 0.73723 0.26364 0.41163 0.0
H760 H 0.73802 0.22001 0.41235 0.0
C761 C 0.75496 0.26672 0.41072 0.0
H762 H 0.71778 0.24375 0.41213 0.0
C763 C 0.76659 0.25308 0.41085 0.0
C764 C 0.76073 0.23606 0.41189 0.0
H765 H 0.75993 0.27968 0.41064 0.0
H766 H 0.78018 0.25594 0.41086 0.0
C767 C 0.74298 0.23296 0.41168 0.0
C768 C 0.00617 0.23007 0.70152 0.0
C769 C 0.01633 0.23064 0.71639 0.0
H770 H 0.981 0.22784 0.69096 0.0
C771 C 0.00824 0.23011 0.7325 0.0
H772 H 0.01197 0.2305 0.68891 0.0
C773 C 0.9904 0.22859 0.73367 0.0
C774 C 0.98031 0.22755 0.71877 0.0
H775 H 0.01569 0.23062 0.74421 0.0
H776 H 0.98456 0.22796 0.74626 0.0
C777 C 0.98838 0.22854 0.7027 0.0
C778 C 0.7767 0.5111 0.24518 0.0
C779 C 0.76484 0.51666 0.23279 0.0
H780 H 0.7892 0.4898 0.25709 0.0
C781 C 0.75557 0.50434 0.22348 0.0
H782 H 0.78392 0.52027 0.25271 0.0
C783 C 0.75864 0.48686 0.22595 0.0
C784 C 0.77099 0.48132 0.23785 0.0
H785 H 0.74624 0.50817 0.21394 0.0
H786 H 0.75156 0.4777 0.21828 0.0
C787 C 0.7797 0.49362 0.24771 0.0
C788 C 0.51364 0.25849 0.72817 0.0
C789 C 0.51885 0.2708 0.74027 0.0
H790 H 0.49267 0.24609 0.71558 0.0
C791 C 0.50628 0.27943 0.74986 0.0
H792 H 0.52301 0.25148 0.72069 0.0
C793 C 0.48888 0.27639 0.74689 0.0
C794 C 0.48367 0.26457 0.73432 0.0
H795 H 0.50985 0.2889 0.75938 0.0
H796 H 0.47951 0.28354 0.75423 0.0
C797 C 0.49624 0.25538 0.72526 0.0
C798 C 0.71909 0.98868 0.23989 0.0
C799 C 0.73371 0.98282 0.23115 0.0
H800 H 0.70456 0.01029 0.24845 0.0
C801 C 0.7456 0.99488 0.22499 0.0
H802 H 0.70976 0.97972 0.24494 0.0
C803 C 0.74257 0.01243 0.22693 0.0
C804 C 0.72766 0.01829 0.23518 0.0
H805 H 0.75706 0.99079 0.2183 0.0
H806 H 0.75182 0.02141 0.22177 0.0
C807 C 0.71611 0.00621 0.24191 0.0
C808 C 0.99165 0.26932 0.77091 0.0
C809 C 0.98293 0.28411 0.77642 0.0
H810 H 0.01584 0.25654 0.76832 0.0
C811 C 0.99243 0.29775 0.78336 0.0
H812 H 0.98471 0.25861 0.76545 0.0
C813 C 0.0102 0.29657 0.78499 0.0
C814 C 0.01893 0.28172 0.77973 0.0
H815 H 0.98614 0.30934 0.7877 0.0
H816 H 0.01706 0.30729 0.79055 0.0
C817 C 0.00949 0.26814 0.77255 0.0
C818 C 0.724 0.49632 0.25473 0.0
C819 C 0.73298 0.48377 0.26403 0.0
H820 H 0.71922 0.52306 0.25095 0.0
C821 C 0.74522 0.48902 0.27617 0.0
H822 H 0.71457 0.49272 0.24519 0.0
C823 C 0.74793 0.50642 0.27942 0.0
C824 C 0.73839 0.51896 0.27068 0.0
H825 H 0.7525 0.47967 0.28341 0.0
H826 H 0.75718 0.51002 0.28913 0.0
C827 C 0.72664 0.51372 0.25805 0.0
C828 C 0.48659 0.22599 0.75922 0.0
C829 C 0.48136 0.23771 0.77186 0.0
H830 H 0.5076 0.21379 0.74648 0.0
C831 C 0.4939 0.24709 0.78077 0.0
H832 H 0.47725 0.21869 0.75199 0.0
C833 C 0.51131 0.24424 0.77765 0.0
C834 C 0.51655 0.23201 0.76549 0.0
H835 H 0.49031 0.25632 0.7905 0.0
H836 H 0.52066 0.25139 0.78502 0.0
C837 C 0.504 0.2232 0.75603 0.0
C838 C 0.77238 0.00948 0.26136 0.0
C839 C 0.75982 0.02062 0.26793 0.0
H840 H 0.78062 0.98355 0.25803 0.0
C841 C 0.74509 0.01358 0.27556 0.0
H842 H 0.78381 0.01447 0.25527 0.0
C843 C 0.74325 0.99582 0.27713 0.0
C844 C 0.7561 0.98471 0.27113 0.0
H845 H 0.73511 0.02179 0.28063 0.0
H846 H 0.73191 0.99083 0.28339 0.0
C847 C 0.77054 0.99174 0.26295 0.0
C848 C 0.2447 0.72423 0.00338 0.0
C849 C 0.2352 0.73299 0.01593 0.0
H850 H 0.2488 0.71978 0.97662 0.0
C851 C 0.223 0.74517 0.01069 0.0
H852 H 0.2543 0.71486 0.00697 0.0
C853 C 0.21989 0.74804 0.99328 0.0
C854 C 0.22885 0.73872 0.98074 0.0
H855 H 0.21559 0.75228 0.02005 0.0
H856 H 0.21013 0.75724 0.98969 0.0
C857 C 0.24153 0.72704 0.98597 0.0
C858 C 0.22637 0.75691 0.4854 0.0
C859 C 0.238 0.76962 0.48011 0.0
H860 H 0.21456 0.74391 0.50647 0.0
C861 C 0.2476 0.77837 0.49259 0.0
H862 H 0.2189 0.7498 0.4761 0.0
C863 C 0.24507 0.77503 0.51001 0.0
C864 C 0.23294 0.76281 0.51532 0.0
H865 H 0.25677 0.78814 0.48895 0.0
H866 H 0.25239 0.78228 0.51931 0.0
C867 C 0.2239 0.75351 0.50282 0.0
C868 C 0.27657 0.74436 0.48746 0.0
C869 C 0.26465 0.73183 0.48241 0.0
H870 H 0.28955 0.75666 0.50826 0.0
C871 C 0.25575 0.72265 0.49511 0.0
H872 H 0.28351 0.75178 0.478 0.0
C873 C 0.25925 0.72541 0.51246 0.0
C874 C 0.27167 0.73747 0.51749 0.0
H875 H 0.24638 0.713 0.49166 0.0
H876 H 0.25246 0.71785 0.52192 0.0
C877 C 0.28001 0.74718 0.50482 0.0
C878 C 0.25422 0.77689 0.98866 0.0
C879 C 0.26685 0.76509 0.98356 0.0
H880 H 0.24161 0.78947 0.00952 0.0
C881 C 0.27588 0.75599 0.99622 0.0
H882 H 0.2469 0.78398 0.97923 0.0
C883 C 0.27288 0.75917 0.01359 0.0
C884 C 0.26072 0.77147 0.01869 0.0
H885 H 0.28559 0.7467 0.99273 0.0
H886 H 0.28033 0.75223 0.02302 0.0
C887 C 0.25116 0.78001 0.00604 0.0
C888 C 0.99599 0.80968 0.31661 0.0
C889 C 0.98465 0.81744 0.30495 0.0
H890 H 0.02212 0.80454 0.32323 0.0
C891 C 0.99137 0.8281 0.29207 0.0
H892 H 0.99124 0.80151 0.32678 0.0
C893 C 0.00908 0.82984 0.29003 0.0
C894 C 0.02045 0.82096 0.30083 0.0
H895 H 0.98299 0.83441 0.28298 0.0
H896 H 0.01383 0.83744 0.27942 0.0
C897 C 0.01372 0.81143 0.31458 0.0
C898 C 0.18843 0.5131 0.81557 0.0
C899 C 0.17886 0.51991 0.80189 0.0
H900 H 0.19844 0.49055 0.82758 0.0
C901 C 0.17006 0.5086 0.79097 0.0
H902 H 0.19526 0.52145 0.82431 0.0
C903 C 0.17188 0.49087 0.79284 0.0
C904 C 0.18255 0.48408 0.80568 0.0
H905 H 0.16243 0.51341 0.78041 0.0
H906 H 0.1656 0.48255 0.78367 0.0
C907 C 0.19026 0.49536 0.81745 0.0
C908 C 0.50778 0.70923 0.33279 0.0
C909 C 0.51889 0.6988 0.32318 0.0
H910 H 0.48185 0.71641 0.33803 0.0
C911 C 0.51186 0.68579 0.31287 0.0
H912 H 0.51277 0.71927 0.34099 0.0
C913 C 0.49408 0.68414 0.31118 0.0
C914 C 0.483 0.69548 0.31975 0.0
H915 H 0.52006 0.67743 0.30541 0.0
H916 H 0.48909 0.67456 0.30246 0.0
C917 C 0.49003 0.70759 0.33109 0.0
C918 C 0.31839 0.98661 0.80209 0.0
C919 C 0.30717 0.97945 0.81424 0.0
H920 H 0.32827 0.00949 0.79067 0.0
C921 C 0.29886 0.99039 0.82591 0.0
H922 H 0.32513 0.97855 0.79301 0.0
C923 C 0.30067 0.00818 0.82456 0.0
C924 C 0.31082 0.01538 0.81151 0.0
H925 H 0.29024 0.98529 0.83552 0.0
H926 H 0.29339 0.01628 0.83318 0.0
C927 C 0.32019 0.00438 0.80074 0.0
C928 C 0.98656 0.68232 0.18738 0.0
C929 C 0.97989 0.69603 0.17775 0.0
H930 H 0.00899 0.6701 0.1974 0.0
C931 C 0.9913 0.70676 0.16885 0.0
H932 H 0.97812 0.67372 0.19428 0.0
C933 C 0.00901 0.70468 0.17064 0.0
C934 C 0.01568 0.69183 0.18136 0.0
H935 H 0.9866 0.71733 0.16117 0.0
H936 H 0.01742 0.71371 0.16428 0.0
C937 C 0.00428 0.68024 0.18917 0.0
C938 C 0.29365 0.50808 0.67132 0.0
C939 C 0.30651 0.51471 0.68206 0.0
H940 H 0.28111 0.48569 0.66166 0.0
C941 C 0.31821 0.50331 0.68968 0.0
H942 H 0.28453 0.5165 0.6651 0.0
C943 C 0.31624 0.4856 0.6877 0.0
C944 C 0.30254 0.47894 0.67806 0.0
H945 H 0.32836 0.508 0.69791 0.0
H946 H 0.32493 0.47715 0.69447 0.0
C947 C 0.29169 0.49038 0.66934 0.0
C948 C 0.51212 0.81389 0.18508 0.0
C949 C 0.51905 0.80107 0.17446 0.0
H950 H 0.48948 0.82472 0.19618 0.0
C951 C 0.50783 0.79059 0.16503 0.0
H952 H 0.52039 0.82227 0.19243 0.0
C953 C 0.49011 0.79199 0.16719 0.0
C954 C 0.48321 0.8039 0.17883 0.0
H955 H 0.51273 0.7807 0.1566 0.0
H956 H 0.48187 0.78314 0.16035 0.0
C957 C 0.49437 0.81529 0.18723 0.0
C958 C 0.17663 0.01552 0.69175 0.0
C959 C 0.19033 0.01764 0.68023 0.0
H960 H 0.16131 0.99794 0.7062 0.0
C961 C 0.19762 0.00303 0.67262 0.0
H962 H 0.17061 0.02651 0.69774 0.0
C963 C 0.19226 0.98662 0.67746 0.0
C964 C 0.17953 0.9845 0.69004 0.0
H965 H 0.20808 0.0042 0.66357 0.0
H966 H 0.19877 0.97563 0.672 0.0
C967 C 0.17129 0.99912 0.69662 0.0
C968 C 0.83038 0.28945 0.00387 0.0
C969 C 0.82246 0.29946 0.01659 0.0
H970 H 0.83307 0.28434 0.97707 0.0
C971 C 0.81269 0.31375 0.01157 0.0
H972 H 0.83814 0.27845 0.00728 0.0
C973 C 0.80978 0.31714 0.99421 0.0
C974 C 0.81658 0.30629 0.98152 0.0
H975 H 0.80652 0.32182 0.02105 0.0
H976 H 0.80145 0.32772 0.9908 0.0
C977 C 0.82747 0.29284 0.98652 0.0
C978 C 0.83266 0.20946 0.49201 0.0
C979 C 0.82334 0.19895 0.48072 0.0
H980 H 0.83746 0.21658 0.51804 0.0
C981 C 0.81308 0.18579 0.48756 0.0
H982 H 0.84081 0.21961 0.48718 0.0
C983 C 0.81116 0.18405 0.50531 0.0
C984 C 0.81945 0.19544 0.51656 0.0
H985 H 0.80583 0.17738 0.47923 0.0
H986 H 0.80249 0.17435 0.51014 0.0
C987 C 0.83073 0.20772 0.50973 0.0
C988 C 0.68811 0.31499 0.50582 0.0
C989 C 0.67969 0.30356 0.51694 0.0
H990 H 0.6934 0.322 0.47982 0.0
C991 C 0.66815 0.29159 0.50998 0.0
H992 H 0.69698 0.32446 0.51076 0.0
C993 C 0.6661 0.29019 0.49224 0.0
C994 C 0.67553 0.30071 0.48107 0.0
H995 H 0.66132 0.28271 0.51818 0.0
H996 H 0.65774 0.28026 0.48729 0.0
C997 C 0.68605 0.31358 0.48806 0.0
C998 C 0.67113 0.19957 0.00854 0.0
C999 C 0.68407 0.18987 0.01651 0.0
H1000 H 0.66087 0.20916 0.98497 0.0
C1001 C 0.6954 0.18039 0.00619 0.0
H1002 H 0.66209 0.20691 0.0161 0.0
C1003 C 0.6947 0.18168 0.98834 0.0
C1004 C 0.68265 0.19247 0.98041 0.0
H1005 H 0.70541 0.17264 0.0119 0.0
H1006 H 0.70419 0.17488 0.98081 0.0
C1007 C 0.67043 0.20086 0.99067 0.0
C1008 C 0.13857 0.14834 0.70358 0.0
C1009 C 0.14696 0.16081 0.69364 0.0
H1010 H 0.13932 0.12297 0.71404 0.0
C1011 C 0.16284 0.15677 0.68615 0.0
H1012 H 0.12634 0.15108 0.70955 0.0
C1013 C 0.17018 0.1406 0.68856 0.0
C1014 C 0.16191 0.12822 0.6987 0.0
H1015 H 0.16959 0.16609 0.67838 0.0
H1016 H 0.18245 0.13789 0.68265 0.0
C1017 C 0.14603 0.13226 0.70619 0.0
C1018 C 0.87006 0.64121 0.21054 0.0
C1019 C 0.87506 0.65705 0.20358 0.0
H1020 H 0.85025 0.62235 0.21284 0.0
C1021 C 0.86342 0.6661 0.19321 0.0
H1022 H 0.87875 0.63392 0.21855 0.0
C1023 C 0.84703 0.65957 0.1901 0.0
C1024 C 0.84201 0.64375 0.1971 0.0
H1025 H 0.86688 0.67837 0.1877 0.0
H1026 H 0.83829 0.66692 0.18219 0.0
C1027 C 0.85375 0.63457 0.20724 0.0
C1028 C 0.33354 0.36226 0.69314 0.0
C1029 C 0.34246 0.37403 0.70346 0.0
H1030 H 0.33299 0.3371 0.68219 0.0
C1031 C 0.35836 0.36922 0.71043 0.0
H1032 H 0.32124 0.36557 0.68761 0.0
C1033 C 0.36518 0.35297 0.70718 0.0
C1034 C 0.35613 0.34111 0.69708 0.0
H1035 H 0.36556 0.37802 0.71841 0.0
H1036 H 0.37743 0.34962 0.71279 0.0
C1037 C 0.34025 0.34593 0.69007 0.0
C1038 C 0.6328 0.85605 0.20691 0.0
C1039 C 0.62804 0.84017 0.19986 0.0
H1040 H 0.65239 0.87512 0.20944 0.0
C1041 C 0.63988 0.83126 0.18962 0.0
H1042 H 0.62394 0.86324 0.21482 0.0
C1043 C 0.65625 0.83795 0.18672 0.0
C1044 C 0.66101 0.85382 0.19378 0.0
H1045 H 0.63661 0.81896 0.18405 0.0
H1046 H 0.66515 0.8307 0.1789 0.0
C1047 C 0.64908 0.86287 0.20379 0.0
C1048 C 0.14725 0.3672 0.79742 0.0
C1049 C 0.16329 0.37128 0.80453 0.0
H1050 H 0.12744 0.34839 0.7947 0.0
C1051 C 0.17173 0.359 0.81465 0.0
H1052 H 0.1404 0.37641 0.78959 0.0
C1053 C 0.1644 0.34289 0.81741 0.0
C1054 C 0.14836 0.3388 0.81031 0.0
H1055 H 0.18413 0.36175 0.82027 0.0
H1056 H 0.17129 0.33365 0.82517 0.0
C1057 C 0.1398 0.35117 0.80038 0.0
C1058 C 0.65274 0.66199 0.31323 0.0
C1059 C 0.6579 0.64621 0.30623 0.0
H1060 H 0.63298 0.68095 0.31505 0.0
C1061 C 0.64654 0.6373 0.29545 0.0
H1062 H 0.66119 0.66913 0.32163 0.0
C1063 C 0.63045 0.64417 0.29153 0.0
C1064 C 0.62531 0.65995 0.29851 0.0
H1065 H 0.65016 0.62513 0.28983 0.0
H1066 H 0.62205 0.63708 0.28304 0.0
C1067 C 0.63656 0.66873 0.30951 0.0
C1068 C 0.3378 0.15256 0.81376 0.0
C1069 C 0.35386 0.15749 0.80725 0.0
H1070 H 0.31876 0.13288 0.81544 0.0
C1071 C 0.36319 0.14578 0.79722 0.0
H1072 H 0.33033 0.16128 0.82157 0.0
C1073 C 0.35648 0.12957 0.79357 0.0
C1074 C 0.34041 0.12465 0.80006 0.0
H1075 H 0.37559 0.14921 0.792 0.0
H1076 H 0.36391 0.12089 0.78568 0.0
C1077 C 0.3312 0.13627 0.81029 0.0
C1078 C 0.84464 0.83864 0.31592 0.0
C1079 C 0.84102 0.85448 0.30814 0.0
H1080 H 0.86286 0.81843 0.31949 0.0
C1081 C 0.85355 0.86216 0.29772 0.0
H1082 H 0.83526 0.83242 0.32406 0.0
C1083 C 0.8693 0.85407 0.29497 0.0
C1084 C 0.87292 0.83823 0.30276 0.0
H1085 H 0.85113 0.87435 0.29152 0.0
H1086 H 0.87865 0.86025 0.28677 0.0
C1087 C 0.86047 0.83065 0.31334 0.0
C1088 C 0.68502 0.16333 0.15698 0.0
C1089 C 0.69188 0.14721 0.16114 0.0
H1090 H 0.68172 0.18264 0.13775 0.0
C1091 C 0.70084 0.13801 0.14849 0.0
H1092 H 0.678 0.17071 0.16642 0.0
C1093 C 0.70311 0.14491 0.13211 0.0
C1094 C 0.69628 0.16106 0.12797 0.0
H1095 H 0.70631 0.12556 0.15131 0.0
H1096 H 0.71022 0.13759 0.1227 0.0
C1097 C 0.6871 0.17014 0.14053 0.0
C1098 C 0.82949 0.18668 0.6409 0.0
C1099 C 0.83842 0.1966 0.6288 0.0
H1100 H 0.82927 0.176 0.66619 0.0
C1101 C 0.85462 0.20316 0.63314 0.0
H1102 H 0.81696 0.18147 0.63796 0.0
C1103 C 0.86175 0.19987 0.64924 0.0
C1104 C 0.85272 0.19015 0.66143 0.0
H1105 H 0.86183 0.21082 0.62407 0.0
H1106 H 0.87425 0.20514 0.65222 0.0
C1107 C 0.83652 0.18358 0.65709 0.0
C1108 C 0.79713 0.36061 0.14487 0.0
C1109 C 0.80724 0.35195 0.15701 0.0
H1110 H 0.78591 0.36018 0.11982 0.0
C1111 C 0.8142 0.3359 0.15273 0.0
H1112 H 0.79157 0.37299 0.1478 0.0
C1113 C 0.81111 0.32865 0.13663 0.0
C1114 C 0.80082 0.3372 0.12457 0.0
H1115 H 0.82209 0.32893 0.16179 0.0
H1116 H 0.81662 0.31623 0.13374 0.0
C1117 C 0.79387 0.35326 0.12885 0.0
C1118 C 0.63846 0.29775 0.64988 0.0
C1119 C 0.64754 0.30762 0.6619 0.0
H1120 H 0.63819 0.28665 0.62477 0.0
C1121 C 0.66365 0.31427 0.65735 0.0
H1122 H 0.62603 0.29242 0.65301 0.0
C1123 C 0.67054 0.31112 0.64111 0.0
C1124 C 0.66155 0.30107 0.62916 0.0
H1125 H 0.67095 0.32197 0.66632 0.0
H1126 H 0.683 0.3164 0.638 0.0
C1127 C 0.64544 0.29441 0.63371 0.0
C1128 C 0.70844 0.35676 0.36711 0.0
C1129 C 0.701 0.34101 0.37169 0.0
H1130 H 0.71135 0.37605 0.3478 0.0
C1131 C 0.69041 0.33257 0.35981 0.0
H1132 H 0.71663 0.36359 0.37601 0.0
C1133 C 0.68754 0.3396 0.34358 0.0
C1134 C 0.69502 0.35534 0.33898 0.0
H1135 H 0.68452 0.32039 0.36295 0.0
H1136 H 0.67945 0.33272 0.33464 0.0
C1137 C 0.70538 0.36391 0.35097 0.0
C1138 C 0.64425 0.19582 0.85201 0.0
C1139 C 0.65157 0.18779 0.83764 0.0
H1140 H 0.64738 0.20337 0.87822 0.0
C1141 C 0.66811 0.18078 0.83906 0.0
H1142 H 0.63153 0.20136 0.85134 0.0
C1143 C 0.67715 0.18183 0.85449 0.0
C1144 C 0.6699 0.19003 0.86881 0.0
H1145 H 0.67411 0.17448 0.82823 0.0
H1146 H 0.6899 0.17636 0.85514 0.0
C1147 C 0.65334 0.19699 0.86741 0.0
C1148 C 0.81389 0.1607 0.34692 0.0
C1149 C 0.80673 0.14492 0.34201 0.0
H1150 H 0.81596 0.17992 0.36641 0.0
C1151 C 0.79595 0.13625 0.35356 0.0
H1152 H 0.82228 0.16766 0.33833 0.0
C1153 C 0.79217 0.14336 0.36957 0.0
C1154 C 0.79929 0.15916 0.37446 0.0
H1155 H 0.79021 0.12407 0.35013 0.0
H1156 H 0.78368 0.13645 0.37811 0.0
C1157 C 0.8103 0.16769 0.36303 0.0
C1158 C 0.84987 0.29929 0.86573 0.0
C1159 C 0.83389 0.30708 0.86861 0.0
H1160 H 0.87037 0.29476 0.84804 0.0
C1161 C 0.82626 0.31654 0.85531 0.0
H1162 H 0.85609 0.29194 0.87574 0.0
C1163 C 0.83435 0.318 0.83939 0.0
C1164 C 0.85033 0.31021 0.83651 0.0
H1165 H 0.81393 0.32266 0.85712 0.0
H1166 H 0.82809 0.32528 0.82936 0.0
C1167 C 0.85807 0.30094 0.84988 0.0
C1168 C 0.14132 0.68492 0.16918 0.0
C1169 C 0.12857 0.6948 0.16117 0.0
H1170 H 0.16705 0.6754 0.16815 0.0
C1171 C 0.13217 0.70249 0.14528 0.0
H1172 H 0.13896 0.67886 0.18145 0.0
C1173 C 0.14821 0.70037 0.13758 0.0
C1174 C 0.16105 0.69069 0.14571 0.0
H1175 H 0.12259 0.71015 0.13877 0.0
H1176 H 0.15061 0.7065 0.12535 0.0
C1177 C 0.15743 0.68297 0.16158 0.0
C1178 C 0.13474 0.80749 0.33092 0.0
C1179 C 0.12345 0.79687 0.3401 0.0
H1180 H 0.15944 0.81943 0.33003 0.0
C1181 C 0.12861 0.79039 0.3561 0.0
H1182 H 0.13115 0.81264 0.31853 0.0
C1183 C 0.14475 0.79443 0.36277 0.0
C1184 C 0.15614 0.80484 0.35346 0.0
H1185 H 0.12018 0.78221 0.3635 0.0
H1186 H 0.14838 0.7892 0.37511 0.0
C1187 C 0.15097 0.81133 0.33748 0.0
C1188 C 0.20918 0.63067 0.85686 0.0
C1189 C 0.20273 0.62535 0.8409 0.0
H1190 H 0.21044 0.65067 0.87562 0.0
C1191 C 0.19228 0.63663 0.8315 0.0
H1192 H 0.21723 0.62225 0.86442 0.0
C1193 C 0.18856 0.65298 0.83782 0.0
C1194 C 0.19501 0.6583 0.85378 0.0
H1195 H 0.18716 0.63292 0.81913 0.0
H1196 H 0.18058 0.66143 0.83022 0.0
C1197 C 0.20525 0.64693 0.86329 0.0
C1198 C 0.3585 0.68909 0.33035 0.0
C1199 C 0.37072 0.69905 0.33909 0.0
H1200 H 0.33306 0.6788 0.33027 0.0
C1201 C 0.36641 0.70608 0.3551 0.0
H1202 H 0.36142 0.68353 0.31796 0.0
C1203 C 0.35022 0.70322 0.36224 0.0
C1204 C 0.33793 0.69346 0.35339 0.0
H1205 H 0.37556 0.71377 0.36217 0.0
H1206 H 0.34728 0.70885 0.37459 0.0
C1207 C 0.34224 0.68642 0.33738 0.0
C1208 C 0.30146 0.86672 0.84648 0.0
C1209 C 0.30879 0.86815 0.83008 0.0
H1210 H 0.29684 0.85068 0.86827 0.0
C1211 C 0.31737 0.85393 0.82309 0.0
H1212 H 0.29478 0.87745 0.85223 0.0
C1213 C 0.31845 0.83856 0.83223 0.0
C1214 C 0.31109 0.83711 0.84861 0.0
H1215 H 0.32312 0.8546 0.81047 0.0
H1216 H 0.32507 0.82781 0.82644 0.0
C1217 C 0.30266 0.85138 0.85568 0.0
C1218 C 0.35052 0.79823 0.13835 0.0
C1219 C 0.33857 0.80815 0.14749 0.0
H1220 H 0.37555 0.78698 0.13801 0.0
C1221 C 0.3432 0.81475 0.1636 0.0
H1222 H 0.34732 0.79294 0.12592 0.0
C1223 C 0.35944 0.81149 0.17044 0.0
C1224 C 0.3713 0.80138 0.16141 0.0
H1225 H 0.33429 0.82248 0.17093 0.0
H1226 H 0.36261 0.81672 0.18291 0.0
C1227 C 0.36667 0.79478 0.1453 0.0
C1228 C 0.18404 0.83885 0.66225 0.0
C1229 C 0.1922 0.83535 0.64657 0.0
H1230 H 0.17941 0.85717 0.68215 0.0
C1231 C 0.20218 0.84821 0.63886 0.0
H1232 H 0.17622 0.82921 0.66848 0.0
C1233 C 0.20417 0.86416 0.64678 0.0
C1234 C 0.19601 0.86766 0.66246 0.0
H1235 H 0.20866 0.84589 0.62679 0.0
H1236 H 0.21206 0.87377 0.64059 0.0
C1237 C 0.18583 0.85488 0.67005 0.0
C1238 C 0.31611 0.63929 0.67081 0.0
C1239 C 0.30578 0.62701 0.66261 0.0
H1240 H 0.32682 0.66454 0.66998 0.0
C1241 C 0.2985 0.631 0.64662 0.0
H1242 H 0.32186 0.63662 0.68316 0.0
C1243 C 0.30149 0.64694 0.63899 0.0
C1244 C 0.31163 0.6593 0.64729 0.0
H1245 H 0.29051 0.62179 0.63996 0.0
H1246 H 0.29567 0.64964 0.62667 0.0
C1247 C 0.31891 0.65531 0.66328 0.0
loop_
_geom_bond_atom_site_label_1
_geom_bond_atom_site_label_2
_geom_bond_distance
_geom_bond_site_symmetry_2
_ccdc_geom_bond_type
O0 Cd1 2.300 . S
O0 C7 1.275 . S
Cd1 O0 2.300 . S
Cd1 O9 2.381 . S
Cd1 O10 2.378 . S
O2 Cd3 2.385 . S
O2 C7 1.255 . S
Cd3 O2 2.385 . S
Cd3 O4 2.317 . S
O4 Cd3 2.317 . S
O4 C5 1.232 . S
C5 O4 1.232 . S
C5 O6 1.218 . S
O6 C5 1.218 . S
C7 O0 1.275 . S
C7 O2 1.255 . S
C8 O9 1.258 . S
C8 O10 1.256 . S
O9 Cd1 2.381 . S
O9 C8 1.258 . S
O10 Cd1 2.378 . S
O10 C8 1.256 . S
O11 Cd12 2.300 . S
O11 C18 1.275 . S
Cd12 O11 2.300 . S
Cd12 O20 2.381 . S
Cd12 O21 2.378 . S
O13 Cd14 2.385 . S
O13 C18 1.255 . S
Cd14 O13 2.385 . S
Cd14 O15 2.317 . S
O15 Cd14 2.317 . S
O15 C16 1.232 . S
C16 O15 1.232 . S
C16 O17 1.218 . S
O17 C16 1.218 . S
C18 O11 1.275 . S
C18 O13 1.255 . S
C19 O20 1.258 . S
C19 O21 1.256 . S
O20 Cd12 2.381 . S
O20 C19 1.258 . S
O21 Cd12 2.378 . S
O21 C19 1.256 . S
O22 Cd23 2.300 . S
O22 C29 1.275 . S
Cd23 O22 2.300 . S
Cd23 O31 2.381 . S
Cd23 O32 2.378 . S
O24 Cd25 2.385 . S
O24 C29 1.255 . S
Cd25 O24 2.385 . S
Cd25 O26 2.317 . S
O26 Cd25 2.317 . S
O26 C27 1.232 . S
C27 O26 1.232 . S
C27 O28 1.218 . S
O28 C27 1.218 . S
C29 O22 1.275 . S
C29 O24 1.255 . S
C30 O31 1.258 . S
C30 O32 1.256 . S
O31 Cd23 2.381 . S
O31 C30 1.258 . S
O32 Cd23 2.378 . S
O32 C30 1.256 . S
O33 Cd34 2.300 . S
O33 C40 1.275 . S
Cd34 O33 2.300 . S
Cd34 O42 2.381 . S
Cd34 O43 2.378 . S
O35 Cd36 2.385 . S
O35 C40 1.255 . S
Cd36 O35 2.385 . S
Cd36 O37 2.317 . S
O37 Cd36 2.317 . S
O37 C38 1.232 . S
C38 O37 1.232 . S
C38 O39 1.218 . S
O39 C38 1.218 . S
C40 O33 1.275 . S
C40 O35 1.255 . S
C41 O42 1.258 . S
C41 O43 1.256 . S
O42 Cd34 2.381 . S
O42 C41 1.258 . S
O43 Cd34 2.378 . S
O43 C41 1.256 . S
O44 Cd45 2.300 . S
O44 C51 1.275 . S
Cd45 O44 2.300 . S
Cd45 O53 2.381 . S
Cd45 O54 2.378 . S
O46 Cd47 2.385 . S
O46 C51 1.255 . S
Cd47 O46 2.385 . S
Cd47 O48 2.317 . S
O48 Cd47 2.317 . S
O48 C49 1.232 . S
C49 O48 1.232 . S
C49 O50 1.218 . S
O50 C49 1.218 . S
C51 O44 1.275 . S
C51 O46 1.255 . S
C52 O53 1.258 . S
C52 O54 1.256 . S
O53 Cd45 2.381 . S
O53 C52 1.258 . S
O54 Cd45 2.378 . S
O54 C52 1.256 . S
O55 Cd56 2.300 . S
O55 C62 1.275 . S
Cd56 O55 2.300 . S
Cd56 O64 2.381 . S
Cd56 O65 2.378 . S
O57 Cd58 2.385 . S
O57 C62 1.255 . S
Cd58 O57 2.385 . S
Cd58 O59 2.317 . S
O59 Cd58 2.317 . S
O59 C60 1.232 . S
C60 O59 1.232 . S
C60 O61 1.218 . S
O61 C60 1.218 . S
C62 O55 1.275 . S
C62 O57 1.255 . S
C63 O64 1.258 . S
C63 O65 1.256 . S
O64 Cd56 2.381 . S
O64 C63 1.258 . S
O65 Cd56 2.378 . S
O65 C63 1.256 . S
O66 Cd67 2.300 . S
O66 C73 1.275 . S
Cd67 O66 2.300 . S
Cd67 O75 2.381 . S
Cd67 O76 2.378 . S
O68 Cd69 2.385 . S
O68 C73 1.255 . S
Cd69 O68 2.385 . S
Cd69 O70 2.317 . S
O70 Cd69 2.317 . S
O70 C71 1.232 . S
C71 O70 1.232 . S
C71 O72 1.218 . S
O72 C71 1.218 . S
C73 O66 1.275 . S
C73 O68 1.255 . S
C74 O75 1.258 . S
C74 O76 1.256 . S
O75 Cd67 2.381 . S
O75 C74 1.258 . S
O76 Cd67 2.378 . S
O76 C74 1.256 . S
O77 Cd78 2.300 . S
O77 C84 1.275 . S
Cd78 O77 2.300 . S
Cd78 O86 2.381 . S
Cd78 O87 2.378 . S
O79 Cd80 2.385 . S
O79 C84 1.255 . S
Cd80 O79 2.385 . S
Cd80 O81 2.317 . S
O81 Cd80 2.317 . S
O81 C82 1.232 . S
C82 O81 1.232 . S
C82 O83 1.218 . S
O83 C82 1.218 . S
C84 O77 1.275 . S
C84 O79 1.255 . S
C85 O86 1.258 . S
C85 O87 1.256 . S
O86 Cd78 2.381 . S
O86 C85 1.258 . S
O87 Cd78 2.378 . S
O87 C85 1.256 . S
O88 Cd89 2.300 . S
O88 C95 1.275 . S
Cd89 O88 2.300 . S
Cd89 O97 2.381 . S
Cd89 O98 2.378 . S
O90 Cd91 2.385 . S
O90 C95 1.255 . S
Cd91 O90 2.385 . S
Cd91 O92 2.317 . S
O92 Cd91 2.317 . S
O92 C93 1.232 . S
C93 O92 1.232 . S
C93 O94 1.218 . S
O94 C93 1.218 . S
C95 O88 1.275 . S
C95 O90 1.255 . S
C96 O97 1.258 . S
C96 O98 1.256 . S
O97 Cd89 2.381 . S
O97 C96 1.258 . S
O98 Cd89 2.378 . S
O98 C96 1.256 . S
O99 Cd100 2.300 . S
O99 C106 1.275 . S
Cd100 O99 2.300 . S
Cd100 O108 2.381 . S
Cd100 O109 2.378 . S
O101 Cd102 2.385 . S
O101 C106 1.255 . S
Cd102 O101 2.385 . S
Cd102 O103 2.317 . S
O103 Cd102 2.317 . S
O103 C104 1.232 . S
C104 O103 1.232 . S
C104 O105 1.218 . S
O105 C104 1.218 . S
C106 O99 1.275 . S
C106 O101 1.255 . S
C107 O108 1.258 . S
C107 O109 1.256 . S
O108 Cd100 2.381 . S
O108 C107 1.258 . S
O109 Cd100 2.378 . S
O109 C107 1.256 . S
O110 Cd111 2.300 . S
O110 C117 1.275 . S
Cd111 O110 2.300 . S
Cd111 O119 2.381 . S
Cd111 O120 2.378 . S
O112 Cd113 2.385 . S
O112 C117 1.255 . S
Cd113 O112 2.385 . S
Cd113 O114 2.317 . S
O114 Cd113 2.317 . S
O114 C115 1.232 . S
C115 O114 1.232 . S
C115 O116 1.218 . S
O116 C115 1.218 . S
C117 O110 1.275 . S
C117 O112 1.255 . S
C118 O119 1.258 . S
C118 O120 1.256 . S
O119 Cd111 2.381 . S
O119 C118 1.258 . S
O120 Cd111 2.378 . S
O120 C118 1.256 . S
O121 Cd122 2.300 . S
O121 C128 1.275 . S
Cd122 O121 2.300 . S
Cd122 O130 2.381 . S
Cd122 O131 2.378 . S
O123 Cd124 2.385 . S
O123 C128 1.255 . S
Cd124 O123 2.385 . S
Cd124 O125 2.317 . S
O125 Cd124 2.317 . S
O125 C126 1.232 . S
C126 O125 1.232 . S
C126 O127 1.218 . S
O127 C126 1.218 . S
C128 O121 1.275 . S
C128 O123 1.255 . S
C129 O130 1.258 . S
C129 O131 1.256 . S
O130 Cd122 2.381 . S
O130 C129 1.258 . S
O131 Cd122 2.378 . S
O131 C129 1.256 . S
O132 Cd133 2.300 . S
O132 C139 1.275 . S
Cd133 O132 2.300 . S
Cd133 O141 2.381 . S
Cd133 O142 2.378 . S
O134 Cd135 2.385 . S
O134 C139 1.255 . S
Cd135 O134 2.385 . S
Cd135 O136 2.317 . S
O136 Cd135 2.317 . S
O136 C137 1.232 . S
C137 O136 1.232 . S
C137 O138 1.218 . S
O138 C137 1.218 . S
C139 O132 1.275 . S
C139 O134 1.255 . S
C140 O141 1.258 . S
C140 O142 1.256 . S
O141 Cd133 2.381 . S
O141 C140 1.258 . S
O142 Cd133 2.378 . S
O142 C140 1.256 . S
O143 Cd144 2.300 . S
O143 C150 1.275 . S
Cd144 O143 2.300 . S
Cd144 O152 2.381 . S
Cd144 O153 2.378 . S
O145 Cd146 2.385 . S
O145 C150 1.255 . S
Cd146 O145 2.385 . S
Cd146 O147 2.317 . S
O147 Cd146 2.317 . S
O147 C148 1.232 . S
C148 O147 1.232 . S
C148 O149 1.218 . S
O149 C148 1.218 . S
C150 O143 1.275 . S
C150 O145 1.255 . S
C151 O152 1.258 . S
C151 O153 1.256 . S
O152 Cd144 2.381 . S
O152 C151 1.258 . S
O153 Cd144 2.378 . S
O153 C151 1.256 . S
O154 Cd155 2.300 . S
O154 C161 1.275 . S
Cd155 O154 2.300 . S
Cd155 O163 2.381 . S
Cd155 O164 2.378 . S
O156 Cd157 2.385 . S
O156 C161 1.255 . S
Cd157 O156 2.385 . S
Cd157 O158 2.317 . S
O158 Cd157 2.317 . S
O158 C159 1.232 . S
C159 O158 1.232 . S
C159 O160 1.218 . S
O160 C159 1.218 . S
C161 O154 1.275 . S
C161 O156 1.255 . S
C162 O163 1.258 . S
C162 O164 1.256 . S
O163 Cd155 2.381 . S
O163 C162 1.258 . S
O164 Cd155 2.378 . S
O164 C162 1.256 . S
O165 Cd166 2.300 . S
O165 C172 1.275 . S
Cd166 O165 2.300 . S
Cd166 O174 2.381 . S
Cd166 O175 2.378 . S
O167 Cd168 2.385 . S
O167 C172 1.255 . S
Cd168 O167 2.385 . S
Cd168 O169 2.317 . S
O169 Cd168 2.317 . S
O169 C170 1.232 . S
C170 O169 1.232 . S
C170 O171 1.218 . S
O171 C170 1.218 . S
C172 O165 1.275 . S
C172 O167 1.255 . S
C173 O174 1.258 . S
C173 O175 1.256 . S
O174 Cd166 2.381 . S
O174 C173 1.258 . S
O175 Cd166 2.378 . S
O175 C173 1.256 . S
O176 Cd177 2.300 . S
O176 C183 1.275 . S
Cd177 O176 2.300 . S
Cd177 O185 2.381 . S
Cd177 O186 2.378 . S
O178 Cd179 2.385 . S
O178 C183 1.255 . S
Cd179 O178 2.385 . S
Cd179 O180 2.317 . S
O180 Cd179 2.317 . S
O180 C181 1.232 . S
C181 O180 1.232 . S
C181 O182 1.218 . S
O182 C181 1.218 . S
C183 O176 1.275 . S
C183 O178 1.255 . S
C184 O185 1.258 . S
C184 O186 1.256 . S
O185 Cd177 2.381 . S
O185 C184 1.258 . S
O186 Cd177 2.378 . S
O186 C184 1.256 . S
O187 Cd188 2.300 . S
O187 C194 1.275 . S
Cd188 O187 2.300 . S
Cd188 O196 2.381 . S
Cd188 O197 2.378 . S
O189 Cd190 2.385 . S
O189 C194 1.255 . S
Cd190 O189 2.385 . S
Cd190 O191 2.317 . S
O191 Cd190 2.317 . S
O191 C192 1.232 . S
C192 O191 1.232 . S
C192 O193 1.218 . S
O193 C192 1.218 . S
C194 O187 1.275 . S
C194 O189 1.255 . S
C195 O196 1.258 . S
C195 O197 1.256 . S
O196 Cd188 2.381 . S
O196 C195 1.258 . S
O197 Cd188 2.378 . S
O197 C195 1.256 . S
O198 Cd199 2.300 . S
O198 C205 1.275 . S
Cd199 O198 2.300 . S
Cd199 O207 2.381 . S
Cd199 O208 2.378 . S
O200 Cd201 2.385 . S
O200 C205 1.255 . S
Cd201 O200 2.385 . S
Cd201 O202 2.317 . S
O202 Cd201 2.317 . S
O202 C203 1.232 . S
C203 O202 1.232 . S
C203 O204 1.218 . S
O204 C203 1.218 . S
C205 O198 1.275 . S
C205 O200 1.255 . S
C206 O207 1.258 . S
C206 O208 1.256 . S
O207 Cd199 2.381 . S
O207 C206 1.258 . S
O208 Cd199 2.378 . S
O208 C206 1.256 . S
O209 Cd210 2.300 . S
O209 C216 1.275 . S
Cd210 O209 2.300 . S
Cd210 O218 2.381 . S
Cd210 O219 2.378 . S
O211 Cd212 2.385 . S
O211 C216 1.255 . S
Cd212 O211 2.385 . S
Cd212 O213 2.317 . S
O213 Cd212 2.317 . S
O213 C214 1.232 . S
C214 O213 1.232 . S
C214 O215 1.218 . S
O215 C214 1.218 . S
C216 O209 1.275 . S
C216 O211 1.255 . S
C217 O218 1.258 . S
C217 O219 1.256 . S
O218 Cd210 2.381 . S
O218 C217 1.258 . S
O219 Cd210 2.378 . S
O219 C217 1.256 . S
O220 Cd221 2.300 . S
O220 C227 1.275 . S
Cd221 O220 2.300 . S
Cd221 O229 2.381 . S
Cd221 O230 2.378 . S
O222 Cd223 2.385 . S
O222 C227 1.255 . S
Cd223 O222 2.385 . S
Cd223 O224 2.317 . S
O224 Cd223 2.317 . S
O224 C225 1.232 . S
C225 O224 1.232 . S
C225 O226 1.218 . S
O226 C225 1.218 . S
C227 O220 1.275 . S
C227 O222 1.255 . S
C228 O229 1.258 . S
C228 O230 1.256 . S
O229 Cd221 2.381 . S
O229 C228 1.258 . S
O230 Cd221 2.378 . S
O230 C228 1.256 . S
O231 Cd232 2.300 . S
O231 C238 1.275 . S
Cd232 O231 2.300 . S
Cd232 O240 2.381 . S
Cd232 O241 2.378 . S
O233 Cd234 2.385 . S
O233 C238 1.255 . S
Cd234 O233 2.385 . S
Cd234 O235 2.317 . S
O235 Cd234 2.317 . S
O235 C236 1.232 . S
C236 O235 1.232 . S
C236 O237 1.218 . S
O237 C236 1.218 . S
C238 O231 1.275 . S
C238 O233 1.255 . S
C239 O240 1.258 . S
C239 O241 1.256 . S
O240 Cd232 2.381 . S
O240 C239 1.258 . S
O241 Cd232 2.378 . S
O241 C239 1.256 . S
O242 Cd243 2.300 . S
O242 C249 1.275 . S
Cd243 O242 2.300 . S
Cd243 O251 2.381 . S
Cd243 O252 2.378 . S
O244 Cd245 2.385 . S
O244 C249 1.255 . S
Cd245 O244 2.385 . S
Cd245 O246 2.317 . S
O246 Cd245 2.317 . S
O246 C247 1.232 . S
C247 O246 1.232 . S
C247 O248 1.218 . S
O248 C247 1.218 . S
C249 O242 1.275 . S
C249 O244 1.255 . S
C250 O251 1.258 . S
C250 O252 1.256 . S
O251 Cd243 2.381 . S
O251 C250 1.258 . S
O252 Cd243 2.378 . S
O252 C250 1.256 . S
O253 Cd254 2.300 . S
O253 C260 1.275 . S
Cd254 O253 2.300 . S
Cd254 O262 2.381 . S
Cd254 O263 2.378 . S
O255 Cd256 2.385 . S
O255 C260 1.255 . S
Cd256 O255 2.385 . S
Cd256 O257 2.317 . S
O257 Cd256 2.317 . S
O257 C258 1.232 . S
C258 O257 1.232 . S
C258 O259 1.218 . S
O259 C258 1.218 . S
C260 O253 1.275 . S
C260 O255 1.255 . S
C261 O262 1.258 . S
C261 O263 1.256 . S
O262 Cd254 2.381 . S
O262 C261 1.258 . S
O263 Cd254 2.378 . S
O263 C261 1.256 . S
O264 Cd265 2.300 . S
O264 C271 1.275 . S
Cd265 O264 2.300 . S
Cd265 O273 2.381 . S
Cd265 O274 2.378 . S
O266 Cd267 2.385 . S
O266 C271 1.255 . S
Cd267 O266 2.385 . S
Cd267 O268 2.317 . S
O268 Cd267 2.317 . S
O268 C269 1.232 . S
C269 O268 1.232 . S
C269 O270 1.218 . S
O270 C269 1.218 . S
C271 O264 1.275 . S
C271 O266 1.255 . S
C272 O273 1.258 . S
C272 O274 1.256 . S
O273 Cd265 2.381 . S
O273 C272 1.258 . S
O274 Cd265 2.378 . S
O274 C272 1.256 . S
O275 Cd276 2.300 . S
O275 C282 1.275 . S
Cd276 O275 2.300 . S
Cd276 O284 2.381 . S
Cd276 O285 2.378 . S
O277 Cd278 2.385 . S
O277 C282 1.255 . S
Cd278 O277 2.385 . S
Cd278 O279 2.317 . S
O279 Cd278 2.317 . S
O279 C280 1.232 . S
C280 O279 1.232 . S
C280 O281 1.218 . S
O281 C280 1.218 . S
C282 O275 1.275 . S
C282 O277 1.255 . S
C283 O284 1.258 . S
C283 O285 1.256 . S
O284 Cd276 2.381 . S
O284 C283 1.258 . S
O285 Cd276 2.378 . S
O285 C283 1.256 . S
O286 Cd287 2.300 . S
O286 C293 1.275 . S
Cd287 O286 2.300 . S
Cd287 O295 2.381 . S
Cd287 O296 2.378 . S
O288 Cd289 2.385 . S
O288 C293 1.255 . S
Cd289 O288 2.385 . S
Cd289 O290 2.317 . S
O290 Cd289 2.317 . S
O290 C291 1.232 . S
C291 O290 1.232 . S
C291 O292 1.218 . S
O292 C291 1.218 . S
C293 O286 1.275 . S
C293 O288 1.255 . S
C294 O295 1.258 . S
C294 O296 1.256 . S
O295 Cd287 2.381 . S
O295 C294 1.258 . S
O296 Cd287 2.378 . S
O296 C294 1.256 . S
O297 Cd298 2.300 . S
O297 C304 1.275 . S
Cd298 O297 2.300 . S
Cd298 O306 2.381 . S
Cd298 O307 2.378 . S
O299 Cd300 2.385 . S
O299 C304 1.255 . S
Cd300 O299 2.385 . S
Cd300 O301 2.317 . S
O301 Cd300 2.317 . S
O301 C302 1.232 . S
C302 O301 1.232 . S
C302 O303 1.218 . S
O303 C302 1.218 . S
C304 O297 1.275 . S
C304 O299 1.255 . S
C305 O306 1.258 . S
C305 O307 1.256 . S
O306 Cd298 2.381 . S
O306 C305 1.258 . S
O307 Cd298 2.378 . S
O307 C305 1.256 . S
O308 Cd309 2.300 . S
O308 C315 1.275 . S
Cd309 O308 2.300 . S
Cd309 O317 2.381 . S
Cd309 O318 2.378 . S
O310 Cd311 2.385 . S
O310 C315 1.255 . S
Cd311 O310 2.385 . S
Cd311 O312 2.317 . S
O312 Cd311 2.317 . S
O312 C313 1.232 . S
C313 O312 1.232 . S
C313 O314 1.218 . S
O314 C313 1.218 . S
C315 O308 1.275 . S
C315 O310 1.255 . S
C316 O317 1.258 . S
C316 O318 1.256 . S
O317 Cd309 2.381 . S
O317 C316 1.258 . S
O318 Cd309 2.378 . S
O318 C316 1.256 . S
O319 Cd320 2.300 . S
O319 C326 1.275 . S
Cd320 O319 2.300 . S
Cd320 O328 2.381 . S
Cd320 O329 2.378 . S
O321 Cd322 2.385 . S
O321 C326 1.255 . S
Cd322 O321 2.385 . S
Cd322 O323 2.317 . S
O323 Cd322 2.317 . S
O323 C324 1.232 . S
C324 O323 1.232 . S
C324 O325 1.218 . S
O325 C324 1.218 . S
C326 O319 1.275 . S
C326 O321 1.255 . S
C327 O328 1.258 . S
C327 O329 1.256 . S
O328 Cd320 2.381 . S
O328 C327 1.258 . S
O329 Cd320 2.378 . S
O329 C327 1.256 . S
O330 Cd331 2.300 . S
O330 C337 1.275 . S
Cd331 O330 2.300 . S
Cd331 O339 2.381 . S
Cd331 O340 2.378 . S
O332 Cd333 2.385 . S
O332 C337 1.255 . S
Cd333 O332 2.385 . S
Cd333 O334 2.317 . S
O334 Cd333 2.317 . S
O334 C335 1.232 . S
C335 O334 1.232 . S
C335 O336 1.218 . S
O336 C335 1.218 . S
C337 O330 1.275 . S
C337 O332 1.255 . S
C338 O339 1.258 . S
C338 O340 1.256 . S
O339 Cd331 2.381 . S
O339 C338 1.258 . S
O340 Cd331 2.378 . S
O340 C338 1.256 . S
O341 Cd342 2.300 . S
O341 C348 1.275 . S
Cd342 O341 2.300 . S
Cd342 O350 2.381 . S
Cd342 O351 2.378 . S
O343 Cd344 2.385 . S
O343 C348 1.255 . S
Cd344 O343 2.385 . S
Cd344 O345 2.317 . S
O345 Cd344 2.317 . S
O345 C346 1.232 . S
C346 O345 1.232 . S
C346 O347 1.218 . S
O347 C346 1.218 . S
C348 O341 1.275 . S
C348 O343 1.255 . S
C349 O350 1.258 . S
C349 O351 1.256 . S
O350 Cd342 2.381 . S
O350 C349 1.258 . S
O351 Cd342 2.378 . S
O351 C349 1.256 . S
O352 Cd353 2.300 . S
O352 C359 1.275 . S
Cd353 O352 2.300 . S
Cd353 O361 2.381 . S
Cd353 O362 2.378 . S
O354 Cd355 2.385 . S
O354 C359 1.255 . S
Cd355 O354 2.385 . S
Cd355 O356 2.317 . S
O356 Cd355 2.317 . S
O356 C357 1.232 . S
C357 O356 1.232 . S
C357 O358 1.218 . S
O358 C357 1.218 . S
C359 O352 1.275 . S
C359 O354 1.255 . S
C360 O361 1.258 . S
C360 O362 1.256 . S
O361 Cd353 2.381 . S
O361 C360 1.258 . S
O362 Cd353 2.378 . S
O362 C360 1.256 . S
O363 Cd364 2.300 . S
O363 C370 1.275 . S
Cd364 O363 2.300 . S
Cd364 O372 2.381 . S
Cd364 O373 2.378 . S
O365 Cd366 2.385 . S
O365 C370 1.255 . S
Cd366 O365 2.385 . S
Cd366 O367 2.317 . S
O367 Cd366 2.317 . S
O367 C368 1.232 . S
C368 O367 1.232 . S
C368 O369 1.218 . S
O369 C368 1.218 . S
C370 O363 1.275 . S
C370 O365 1.255 . S
C371 O372 1.258 . S
C371 O373 1.256 . S
O372 Cd364 2.381 . S
O372 C371 1.258 . S
O373 Cd364 2.378 . S
O373 C371 1.256 . S
O374 Cd375 2.300 . S
O374 C381 1.275 . S
Cd375 O374 2.300 . S
Cd375 O383 2.381 . S
Cd375 O384 2.378 . S
O376 Cd377 2.385 . S
O376 C381 1.255 . S
Cd377 O376 2.385 . S
Cd377 O378 2.317 . S
O378 Cd377 2.317 . S
O378 C379 1.232 . S
C379 O378 1.232 . S
C379 O380 1.218 . S
O380 C379 1.218 . S
C381 O374 1.275 . S
C381 O376 1.255 . S
C382 O383 1.258 . S
C382 O384 1.256 . S
O383 Cd375 2.381 . S
O383 C382 1.258 . S
O384 Cd375 2.378 . S
O384 C382 1.256 . S
O385 Cd386 2.300 . S
O385 C392 1.275 . S
Cd386 O385 2.300 . S
Cd386 O394 2.381 . S
Cd386 O395 2.378 . S
O387 Cd388 2.385 . S
O387 C392 1.255 . S
Cd388 O387 2.385 . S
Cd388 O389 2.317 . S
O389 Cd388 2.317 . S
O389 C390 1.232 . S
C390 O389 1.232 . S
C390 O391 1.218 . S
O391 C390 1.218 . S
C392 O385 1.275 . S
C392 O387 1.255 . S
C393 O394 1.258 . S
C393 O395 1.256 . S
O394 Cd386 2.381 . S
O394 C393 1.258 . S
O395 Cd386 2.378 . S
O395 C393 1.256 . S
O396 Cd397 2.300 . S
O396 C403 1.275 . S
Cd397 O396 2.300 . S
Cd397 O405 2.381 . S
Cd397 O406 2.378 . S
O398 Cd399 2.385 . S
O398 C403 1.255 . S
Cd399 O398 2.385 . S
Cd399 O400 2.317 . S
O400 Cd399 2.317 . S
O400 C401 1.232 . S
C401 O400 1.232 . S
C401 O402 1.218 . S
O402 C401 1.218 . S
C403 O396 1.275 . S
C403 O398 1.255 . S
C404 O405 1.258 . S
C404 O406 1.256 . S
O405 Cd397 2.381 . S
O405 C404 1.258 . S
O406 Cd397 2.378 . S
O406 C404 1.256 . S
O407 Cd408 2.300 . S
O407 C414 1.275 . S
Cd408 O407 2.300 . S
Cd408 O416 2.381 . S
Cd408 O417 2.378 . S
O409 Cd410 2.385 . S
O409 C414 1.255 . S
Cd410 O409 2.385 . S
Cd410 O411 2.317 . S
O411 Cd410 2.317 . S
O411 C412 1.232 . S
C412 O411 1.232 . S
C412 O413 1.218 . S
O413 C412 1.218 . S
C414 O407 1.275 . S
C414 O409 1.255 . S
C415 O416 1.258 . S
C415 O417 1.256 . S
O416 Cd408 2.381 . S
O416 C415 1.258 . S
O417 Cd408 2.378 . S
O417 C415 1.256 . S
O418 Cd419 2.300 . S
O418 C425 1.275 . S
Cd419 O418 2.300 . S
Cd419 O427 2.381 . S
Cd419 O428 2.378 . S
O420 Cd421 2.385 . S
O420 C425 1.255 . S
Cd421 O420 2.385 . S
Cd421 O422 2.317 . S
O422 Cd421 2.317 . S
O422 C423 1.232 . S
C423 O422 1.232 . S
C423 O424 1.218 . S
O424 C423 1.218 . S
C425 O418 1.275 . S
C425 O420 1.255 . S
C426 O427 1.258 . S
C426 O428 1.256 . S
O427 Cd419 2.381 . S
O427 C426 1.258 . S
O428 Cd419 2.378 . S
O428 C426 1.256 . S
O429 Cd430 2.300 . S
O429 C436 1.275 . S
Cd430 O429 2.300 . S
Cd430 O438 2.381 . S
Cd430 O439 2.378 . S
O431 Cd432 2.385 . S
O431 C436 1.255 . S
Cd432 O431 2.385 . S
Cd432 O433 2.317 . S
O433 Cd432 2.317 . S
O433 C434 1.232 . S
C434 O433 1.232 . S
C434 O435 1.218 . S
O435 C434 1.218 . S
C436 O429 1.275 . S
C436 O431 1.255 . S
C437 O438 1.258 . S
C437 O439 1.256 . S
O438 Cd430 2.381 . S
O438 C437 1.258 . S
O439 Cd430 2.378 . S
O439 C437 1.256 . S
O440 Cd441 2.300 . S
O440 C447 1.275 . S
Cd441 O440 2.300 . S
Cd441 O449 2.381 . S
Cd441 O450 2.378 . S
O442 Cd443 2.385 . S
O442 C447 1.255 . S
Cd443 O442 2.385 . S
Cd443 O444 2.317 . S
O444 Cd443 2.317 . S
O444 C445 1.232 . S
C445 O444 1.232 . S
C445 O446 1.218 . S
O446 C445 1.218 . S
C447 O440 1.275 . S
C447 O442 1.255 . S
C448 O449 1.258 . S
C448 O450 1.256 . S
O449 Cd441 2.381 . S
O449 C448 1.258 . S
O450 Cd441 2.378 . S
O450 C448 1.256 . S
O451 Cd452 2.300 . S
O451 C458 1.275 . S
Cd452 O451 2.300 . S
Cd452 O460 2.381 . S
Cd452 O461 2.378 . S
O453 Cd454 2.385 . S
O453 C458 1.255 . S
Cd454 O453 2.385 . S
Cd454 O455 2.317 . S
O455 Cd454 2.317 . S
O455 C456 1.232 . S
C456 O455 1.232 . S
C456 O457 1.218 . S
O457 C456 1.218 . S
C458 O451 1.275 . S
C458 O453 1.255 . S
C459 O460 1.258 . S
C459 O461 1.256 . S
O460 Cd452 2.381 . S
O460 C459 1.258 . S
O461 Cd452 2.378 . S
O461 C459 1.256 . S
O462 Cd463 2.300 . S
O462 C469 1.275 . S
Cd463 O462 2.300 . S
Cd463 O471 2.381 . S
Cd463 O472 2.378 . S
O464 Cd465 2.385 . S
O464 C469 1.255 . S
Cd465 O464 2.385 . S
Cd465 O466 2.317 . S
O466 Cd465 2.317 . S
O466 C467 1.232 . S
C467 O466 1.232 . S
C467 O468 1.218 . S
O468 C467 1.218 . S
C469 O462 1.275 . S
C469 O464 1.255 . S
C470 O471 1.258 . S
C470 O472 1.256 . S
O471 Cd463 2.381 . S
O471 C470 1.258 . S
O472 Cd463 2.378 . S
O472 C470 1.256 . S
O473 Cd474 2.300 . S
O473 C480 1.275 . S
Cd474 O473 2.300 . S
Cd474 O482 2.381 . S
Cd474 O483 2.378 . S
O475 Cd476 2.385 . S
O475 C480 1.255 . S
Cd476 O475 2.385 . S
Cd476 O477 2.317 . S
O477 Cd476 2.317 . S
O477 C478 1.232 . S
C478 O477 1.232 . S
C478 O479 1.218 . S
O479 C478 1.218 . S
C480 O473 1.275 . S
C480 O475 1.255 . S
C481 O482 1.258 . S
C481 O483 1.256 . S
O482 Cd474 2.381 . S
O482 C481 1.258 . S
O483 Cd474 2.378 . S
O483 C481 1.256 . S
O484 Cd485 2.300 . S
O484 C491 1.275 . S
Cd485 O484 2.300 . S
Cd485 O493 2.381 . S
Cd485 O494 2.378 . S
O486 Cd487 2.385 . S
O486 C491 1.255 . S
Cd487 O486 2.385 . S
Cd487 O488 2.317 . S
O488 Cd487 2.317 . S
O488 C489 1.232 . S
C489 O488 1.232 . S
C489 O490 1.218 . S
O490 C489 1.218 . S
C491 O484 1.275 . S
C491 O486 1.255 . S
C492 O493 1.258 . S
C492 O494 1.256 . S
O493 Cd485 2.381 . S
O493 C492 1.258 . S
O494 Cd485 2.378 . S
O494 C492 1.256 . S
O495 Cd496 2.300 . S
O495 C502 1.275 . S
Cd496 O495 2.300 . S
Cd496 O504 2.381 . S
Cd496 O505 2.378 . S
O497 Cd498 2.385 . S
O497 C502 1.255 . S
Cd498 O497 2.385 . S
Cd498 O499 2.317 . S
O499 Cd498 2.317 . S
O499 C500 1.232 . S
C500 O499 1.232 . S
C500 O501 1.218 . S
O501 C500 1.218 . S
C502 O495 1.275 . S
C502 O497 1.255 . S
C503 O504 1.258 . S
C503 O505 1.256 . S
O504 Cd496 2.381 . S
O504 C503 1.258 . S
O505 Cd496 2.378 . S
O505 C503 1.256 . S
O506 Cd507 2.300 . S
O506 C513 1.275 . S
Cd507 O506 2.300 . S
Cd507 O515 2.381 . S
Cd507 O516 2.378 . S
O508 Cd509 2.385 . S
O508 C513 1.255 . S
Cd509 O508 2.385 . S
Cd509 O510 2.317 . S
O510 Cd509 2.317 . S
O510 C511 1.232 . S
C511 O510 1.232 . S
C511 O512 1.218 . S
O512 C511 1.218 . S
C513 O506 1.275 . S
C513 O508 1.255 . S
C514 O515 1.258 . S
C514 O516 1.256 . S
O515 Cd507 2.381 . S
O515 C514 1.258 . S
O516 Cd507 2.378 . S
O516 C514 1.256 . S
O517 Cd518 2.300 . S
O517 C524 1.275 . S
Cd518 O517 2.300 . S
Cd518 O526 2.381 . S
Cd518 O527 2.378 . S
O519 Cd520 2.385 . S
O519 C524 1.255 . S
Cd520 O519 2.385 . S
Cd520 O521 2.317 . S
O521 Cd520 2.317 . S
O521 C522 1.232 . S
C522 O521 1.232 . S
C522 O523 1.218 . S
O523 C522 1.218 . S
C524 O517 1.275 . S
C524 O519 1.255 . S
C525 O526 1.258 . S
C525 O527 1.256 . S
O526 Cd518 2.381 . S
O526 C525 1.258 . S
O527 Cd518 2.378 . S
O527 C525 1.256 . S
C528 C529 1.387 . S
C528 H532 0.950 . S
C528 C537 1.390 . S
C529 C528 1.387 . S
C529 C531 1.387 . S
H530 C537 0.950 . S
C531 C529 1.387 . S
C531 C533 1.390 . S
C531 H535 0.950 . S
H532 C528 0.950 . S
C533 C531 1.390 . S
C533 C534 1.387 . S
C533 H536 0.950 . S
C534 C533 1.387 . S
C534 C537 1.387 . S
H535 C531 0.950 . S
H536 C533 0.950 . S
C537 C528 1.390 . S
C537 H530 0.950 . S
C537 C534 1.387 . S
C538 C539 1.387 . S
C538 H542 0.950 . S
C538 C547 1.390 . S
C539 C538 1.387 . S
C539 C541 1.387 . S
H540 C547 0.950 . S
C541 C539 1.387 . S
C541 C543 1.390 . S
C541 H545 0.950 . S
H542 C538 0.950 . S
C543 C541 1.390 . S
C543 C544 1.387 . S
C543 H546 0.950 . S
C544 C543 1.387 . S
C544 C547 1.387 . S
H545 C541 0.950 . S
H546 C543 0.950 . S
C547 C538 1.390 . S
C547 H540 0.950 . S
C547 C544 1.387 . S
C548 C549 1.387 . S
C548 H552 0.950 . S
C548 C557 1.390 . S
C549 C548 1.387 . S
C549 C551 1.387 . S
H550 C557 0.950 . S
C551 C549 1.387 . S
C551 C553 1.390 . S
C551 H555 0.950 . S
H552 C548 0.950 . S
C553 C551 1.390 . S
C553 C554 1.387 . S
C553 H556 0.950 . S
C554 C553 1.387 . S
C554 C557 1.387 . S
H555 C551 0.950 . S
H556 C553 0.950 . S
C557 C548 1.390 . S
C557 H550 0.950 . S
C557 C554 1.387 . S
C558 C559 1.387 . S
C558 H562 0.950 . S
C558 C567 1.390 . S
C559 C558 1.387 . S
C559 C561 1.387 . S
H560 C567 0.950 . S
C561 C559 1.387 . S
C561 C563 1.390 . S
C561 H565 0.950 . S
H562 C558 0.950 . S
C563 C561 1.390 . S
C563 C564 1.387 . S
C563 H566 0.950 . S
C564 C563 1.387 . S
C564 C567 1.387 . S
H565 C561 0.950 . S
H566 C563 0.950 . S
C567 C558 1.390 . S
C567 H560 0.950 . S
C567 C564 1.387 . S
C568 C569 1.387 . S
C568 H572 0.950 . S
C568 C577 1.390 . S
C569 C568 1.387 . S
C569 C571 1.387 . S
H570 C577 0.950 . S
C571 C569 1.387 . S
C571 C573 1.390 . S
C571 H575 0.950 . S
H572 C568 0.950 . S
C573 C571 1.390 . S
C573 C574 1.387 . S
C573 H576 0.950 . S
C574 C573 1.387 . S
C574 C577 1.387 . S
H575 C571 0.950 . S
H576 C573 0.950 . S
C577 C568 1.390 . S
C577 H570 0.950 . S
C577 C574 1.387 . S
C578 C579 1.387 . S
C578 H582 0.950 . S
C578 C587 1.390 . S
C579 C578 1.387 . S
C579 C581 1.387 . S
H580 C587 0.950 . S
C581 C579 1.387 . S
C581 C583 1.390 . S
C581 H585 0.950 . S
H582 C578 0.950 . S
C583 C581 1.390 . S
C583 C584 1.387 . S
C583 H586 0.950 . S
C584 C583 1.387 . S
C584 C587 1.387 . S
H585 C581 0.950 . S
H586 C583 0.950 . S
C587 C578 1.390 . S
C587 H580 0.950 . S
C587 C584 1.387 . S
C588 C589 1.387 . S
C588 H592 0.950 . S
C588 C597 1.390 . S
C589 C588 1.387 . S
C589 C591 1.387 . S
H590 C597 0.950 . S
C591 C589 1.387 . S
C591 C593 1.390 . S
C591 H595 0.950 . S
H592 C588 0.950 . S
C593 C591 1.390 . S
C593 C594 1.387 . S
C593 H596 0.950 . S
C594 C593 1.387 . S
C594 C597 1.387 . S
H595 C591 0.950 . S
H596 C593 0.950 . S
C597 C588 1.390 . S
C597 H590 0.950 . S
C597 C594 1.387 . S
C598 C599 1.387 . S
C598 H602 0.950 . S
C598 C607 1.390 . S
C599 C598 1.387 . S
C599 C601 1.387 . S
H600 C607 0.950 . S
C601 C599 1.387 . S
C601 C603 1.390 . S
C601 H605 0.950 . S
H602 C598 0.950 . S
C603 C601 1.390 . S
C603 C604 1.387 . S
C603 H606 0.950 . S
C604 C603 1.387 . S
C604 C607 1.387 . S
H605 C601 0.950 . S
H606 C603 0.950 . S
C607 C598 1.390 . S
C607 H600 0.950 . S
C607 C604 1.387 . S
C608 C609 1.387 . S
C608 H612 0.950 . S
C608 C617 1.390 . S
C609 C608 1.387 . S
C609 C611 1.387 . S
H610 C617 0.950 . S
C611 C609 1.387 . S
C611 C613 1.390 . S
C611 H615 0.950 . S
H612 C608 0.950 . S
C613 C611 1.390 . S
C613 C614 1.387 . S
C613 H616 0.950 . S
C614 C613 1.387 . S
C614 C617 1.387 . S
H615 C611 0.950 . S
H616 C613 0.950 . S
C617 C608 1.390 . S
C617 H610 0.950 . S
C617 C614 1.387 . S
C618 C619 1.387 . S
C618 H622 0.950 . S
C618 C627 1.390 . S
C619 C618 1.387 . S
C619 C621 1.387 . S
H620 C627 0.950 . S
C621 C619 1.387 . S
C621 C623 1.390 . S
C621 H625 0.950 . S
H622 C618 0.950 . S
C623 C621 1.390 . S
C623 C624 1.387 . S
C623 H626 0.950 . S
C624 C623 1.387 . S
C624 C627 1.387 . S
H625 C621 0.950 . S
H626 C623 0.950 . S
C627 C618 1.390 . S
C627 H620 0.950 . S
C627 C624 1.387 . S
C628 C629 1.387 . S
C628 H632 0.950 . S
C628 C637 1.390 . S
C629 C628 1.387 . S
C629 C631 1.387 . S
H630 C637 0.950 . S
C631 C629 1.387 . S
C631 C633 1.390 . S
C631 H635 0.950 . S
H632 C628 0.950 . S
C633 C631 1.390 . S
C633 C634 1.387 . S
C633 H636 0.950 . S
C634 C633 1.387 . S
C634 C637 1.387 . S
H635 C631 0.950 . S
H636 C633 0.950 . S
C637 C628 1.390 . S
C637 H630 0.950 . S
C637 C634 1.387 . S
C638 C639 1.387 . S
C638 H642 0.950 . S
C638 C647 1.390 . S
C639 C638 1.387 . S
C639 C641 1.387 . S
H640 C647 0.950 . S
C641 C639 1.387 . S
C641 C643 1.390 . S
C641 H645 0.950 . S
H642 C638 0.950 . S
C643 C641 1.390 . S
C643 C644 1.387 . S
C643 H646 0.950 . S
C644 C643 1.387 . S
C644 C647 1.387 . S
H645 C641 0.950 . S
H646 C643 0.950 . S
C647 C638 1.390 . S
C647 H640 0.950 . S
C647 C644 1.387 . S
C648 C649 1.387 . S
C648 H652 0.950 . S
C648 C657 1.390 . S
C649 C648 1.387 . S
C649 C651 1.387 . S
H650 C657 0.950 . S
C651 C649 1.387 . S
C651 C653 1.390 . S
C651 H655 0.950 . S
H652 C648 0.950 . S
C653 C651 1.390 . S
C653 C654 1.387 . S
C653 H656 0.950 . S
C654 C653 1.387 . S
C654 C657 1.387 . S
H655 C651 0.950 . S
H656 C653 0.950 . S
C657 C648 1.390 . S
C657 H650 0.950 . S
C657 C654 1.387 . S
C658 C659 1.387 . S
C658 H662 0.950 . S
C658 C667 1.390 . S
C659 C658 1.387 . S
C659 C661 1.387 . S
H660 C667 0.950 . S
C661 C659 1.387 . S
C661 C663 1.390 . S
C661 H665 0.950 . S
H662 C658 0.950 . S
C663 C661 1.390 . S
C663 C664 1.387 . S
C663 H666 0.950 . S
C664 C663 1.387 . S
C664 C667 1.387 . S
H665 C661 0.950 . S
H666 C663 0.950 . S
C667 C658 1.390 . S
C667 H660 0.950 . S
C667 C664 1.387 . S
C668 C669 1.387 . S
C668 H672 0.950 . S
C668 C677 1.390 . S
C669 C668 1.387 . S
C669 C671 1.387 . S
H670 C677 0.950 . S
C671 C669 1.387 . S
C671 C673 1.390 . S
C671 H675 0.950 . S
H672 C668 0.950 . S
C673 C671 1.390 . S
C673 C674 1.387 . S
C673 H676 0.950 . S
C674 C673 1.387 . S
C674 C677 1.387 . S
H675 C671 0.950 . S
H676 C673 0.950 . S
C677 C668 1.390 . S
C677 H670 0.950 . S
C677 C674 1.387 . S
C678 C679 1.387 . S
C678 H682 0.950 . S
C678 C687 1.390 . S
C679 C678 1.387 . S
C679 C681 1.387 . S
H680 C687 0.950 . S
C681 C679 1.387 . S
C681 C683 1.390 . S
C681 H685 0.950 . S
H682 C678 0.950 . S
C683 C681 1.390 . S
C683 C684 1.387 . S
C683 H686 0.950 . S
C684 C683 1.387 . S
C684 C687 1.387 . S
H685 C681 0.950 . S
H686 C683 0.950 . S
C687 C678 1.390 . S
C687 H680 0.950 . S
C687 C684 1.387 . S
C688 C689 1.387 . S
C688 H692 0.950 . S
C688 C697 1.390 . S
C689 C688 1.387 . S
C689 C691 1.387 . S
H690 C697 0.950 . S
C691 C689 1.387 . S
C691 C693 1.390 . S
C691 H695 0.950 . S
H692 C688 0.950 . S
C693 C691 1.390 . S
C693 C694 1.387 . S
C693 H696 0.950 . S
C694 C693 1.387 . S
C694 C697 1.387 . S
H695 C691 0.950 . S
H696 C693 0.950 . S
C697 C688 1.390 . S
C697 H690 0.950 . S
C697 C694 1.387 . S
C698 C699 1.387 . S
C698 H702 0.950 . S
C698 C707 1.390 . S
C699 C698 1.387 . S
C699 C701 1.387 . S
H700 C707 0.950 . S
C701 C699 1.387 . S
C701 C703 1.390 . S
C701 H705 0.950 . S
H702 C698 0.950 . S
C703 C701 1.390 . S
C703 C704 1.387 . S
C703 H706 0.950 . S
C704 C703 1.387 . S
C704 C707 1.387 . S
H705 C701 0.950 . S
H706 C703 0.950 . S
C707 C698 1.390 . S
C707 H700 0.950 . S
C707 C704 1.387 . S
C708 C709 1.387 . S
C708 H712 0.950 . S
C708 C717 1.390 . S
C709 C708 1.387 . S
C709 C711 1.387 . S
H710 C717 0.950 . S
C711 C709 1.387 . S
C711 C713 1.390 . S
C711 H715 0.950 . S
H712 C708 0.950 . S
C713 C711 1.390 . S
C713 C714 1.387 . S
C713 H716 0.950 . S
C714 C713 1.387 . S
C714 C717 1.387 . S
H715 C711 0.950 . S
H716 C713 0.950 . S
C717 C708 1.390 . S
C717 H710 0.950 . S
C717 C714 1.387 . S
C718 C719 1.387 . S
C718 H722 0.950 . S
C718 C727 1.390 . S
C719 C718 1.387 . S
C719 C721 1.387 . S
H720 C727 0.950 . S
C721 C719 1.387 . S
C721 C723 1.390 . S
C721 H725 0.950 . S
H722 C718 0.950 . S
C723 C721 1.390 . S
C723 C724 1.387 . S
C723 H726 0.950 . S
C724 C723 1.387 . S
C724 C727 1.387 . S
H725 C721 0.950 . S
H726 C723 0.950 . S
C727 C718 1.390 . S
C727 H720 0.950 . S
C727 C724 1.387 . S
C728 C729 1.387 . S
C728 H732 0.950 . S
C728 C737 1.390 . S
C729 C728 1.387 . S
C729 C731 1.387 . S
H730 C737 0.950 . S
C731 C729 1.387 . S
C731 C733 1.390 . S
C731 H735 0.950 . S
H732 C728 0.950 . S
C733 C731 1.390 . S
C733 C734 1.387 . S
C733 H736 0.950 . S
C734 C733 1.387 . S
C734 C737 1.387 . S
H735 C731 0.950 . S
H736 C733 0.950 . S
C737 C728 1.390 . S
C737 H730 0.950 . S
C737 C734 1.387 . S
C738 C739 1.387 . S
C738 H742 0.950 . S
C738 C747 1.390 . S
C739 C738 1.387 . S
C739 C741 1.387 . S
H740 C747 0.950 . S
C741 C739 1.387 . S
C741 C743 1.390 . S
C741 H745 0.950 . S
H742 C738 0.950 . S
C743 C741 1.390 . S
C743 C744 1.387 . S
C743 H746 0.950 . S
C744 C743 1.387 . S
C744 C747 1.387 . S
H745 C741 0.950 . S
H746 C743 0.950 . S
C747 C738 1.390 . S
C747 H740 0.950 . S
C747 C744 1.387 . S
C748 C749 1.387 . S
C748 H752 0.950 . S
C748 C757 1.390 . S
C749 C748 1.387 . S
C749 C751 1.387 . S
H750 C757 0.950 . S
C751 C749 1.387 . S
C751 C753 1.390 . S
C751 H755 0.950 . S
H752 C748 0.950 . S
C753 C751 1.390 . S
C753 C754 1.387 . S
C753 H756 0.950 . S
C754 C753 1.387 . S
C754 C757 1.387 . S
H755 C751 0.950 . S
H756 C753 0.950 . S
C757 C748 1.390 . S
C757 H750 0.950 . S
C757 C754 1.387 . S
C758 C759 1.387 . S
C758 H762 0.950 . S
C758 C767 1.390 . S
C759 C758 1.387 . S
C759 C761 1.387 . S
H760 C767 0.950 . S
C761 C759 1.387 . S
C761 C763 1.390 . S
C761 H765 0.950 . S
H762 C758 0.950 . S
C763 C761 1.390 . S
C763 C764 1.387 . S
C763 H766 0.950 . S
C764 C763 1.387 . S
C764 C767 1.387 . S
H765 C761 0.950 . S
H766 C763 0.950 . S
C767 C758 1.390 . S
C767 H760 0.950 . S
C767 C764 1.387 . S
C768 C769 1.387 . S
C768 H772 0.950 . S
C768 C777 1.390 1_455 S
C769 C768 1.387 . S
C769 C771 1.387 . S
H770 C777 0.950 . S
C771 C769 1.387 . S
C771 C773 1.390 1_455 S
C771 H775 0.950 . S
H772 C768 0.950 . S
C773 C771 1.390 1_655 S
C773 C774 1.387 . S
C773 H776 0.950 . S
C774 C773 1.387 . S
C774 C777 1.387 . S
H775 C771 0.950 . S
H776 C773 0.950 . S
C777 C768 1.390 1_655 S
C777 H770 0.950 . S
C777 C774 1.387 . S
C778 C779 1.387 . S
C778 H782 0.950 . S
C778 C787 1.390 . S
C779 C778 1.387 . S
C779 C781 1.387 . S
H780 C787 0.950 . S
C781 C779 1.387 . S
C781 C783 1.390 . S
C781 H785 0.950 . S
H782 C778 0.950 . S
C783 C781 1.390 . S
C783 C784 1.387 . S
C783 H786 0.950 . S
C784 C783 1.387 . S
C784 C787 1.387 . S
H785 C781 0.950 . S
H786 C783 0.950 . S
C787 C778 1.390 . S
C787 H780 0.950 . S
C787 C784 1.387 . S
C788 C789 1.387 . S
C788 H792 0.950 . S
C788 C797 1.390 . S
C789 C788 1.387 . S
C789 C791 1.387 . S
H790 C797 0.950 . S
C791 C789 1.387 . S
C791 C793 1.390 . S
C791 H795 0.950 . S
H792 C788 0.950 . S
C793 C791 1.390 . S
C793 C794 1.387 . S
C793 H796 0.950 . S
C794 C793 1.387 . S
C794 C797 1.387 . S
H795 C791 0.950 . S
H796 C793 0.950 . S
C797 C788 1.390 . S
C797 H790 0.950 . S
C797 C794 1.387 . S
C798 C799 1.387 . S
C798 H802 0.950 . S
C798 C807 1.390 1_565 S
C799 C798 1.387 . S
C799 C801 1.387 . S
H800 C807 0.950 . S
C801 C799 1.387 . S
C801 C803 1.390 1_565 S
C801 H805 0.950 . S
H802 C798 0.950 . S
C803 C801 1.390 1_545 S
C803 C804 1.387 . S
C803 H806 0.950 . S
C804 C803 1.387 . S
C804 C807 1.387 . S
H805 C801 0.950 . S
H806 C803 0.950 . S
C807 C798 1.390 1_545 S
C807 H800 0.950 . S
C807 C804 1.387 . S
C808 C809 1.387 . S
C808 H812 0.950 . S
C808 C817 1.390 1_655 S
C809 C808 1.387 . S
C809 C811 1.387 . S
H810 C817 0.950 . S
C811 C809 1.387 . S
C811 C813 1.390 1_655 S
C811 H815 0.950 . S
H812 C808 0.950 . S
C813 C811 1.390 1_455 S
C813 C814 1.387 . S
C813 H816 0.950 . S
C814 C813 1.387 . S
C814 C817 1.387 . S
H815 C811 0.950 . S
H816 C813 0.950 . S
C817 C808 1.390 1_455 S
C817 H810 0.950 . S
C817 C814 1.387 . S
C818 C819 1.387 . S
C818 H822 0.950 . S
C818 C827 1.390 . S
C819 C818 1.387 . S
C819 C821 1.387 . S
H820 C827 0.950 . S
C821 C819 1.387 . S
C821 C823 1.390 . S
C821 H825 0.950 . S
H822 C818 0.950 . S
C823 C821 1.390 . S
C823 C824 1.387 . S
C823 H826 0.950 . S
C824 C823 1.387 . S
C824 C827 1.387 . S
H825 C821 0.950 . S
H826 C823 0.950 . S
C827 C818 1.390 . S
C827 H820 0.950 . S
C827 C824 1.387 . S
C828 C829 1.387 . S
C828 H832 0.950 . S
C828 C837 1.390 . S
C829 C828 1.387 . S
C829 C831 1.387 . S
H830 C837 0.950 . S
C831 C829 1.387 . S
C831 C833 1.390 . S
C831 H835 0.950 . S
H832 C828 0.950 . S
C833 C831 1.390 . S
C833 C834 1.387 . S
C833 H836 0.950 . S
C834 C833 1.387 . S
C834 C837 1.387 . S
H835 C831 0.950 . S
H836 C833 0.950 . S
C837 C828 1.390 . S
C837 H830 0.950 . S
C837 C834 1.387 . S
C838 C839 1.387 . S
C838 H842 0.950 . S
C838 C847 1.390 1_545 S
C839 C838 1.387 . S
C839 C841 1.387 . S
H840 C847 0.950 . S
C841 C839 1.387 . S
C841 C843 1.390 1_545 S
C841 H845 0.950 . S
H842 C838 0.950 . S
C843 C841 1.390 1_565 S
C843 C844 1.387 . S
C843 H846 0.950 . S
C844 C843 1.387 . S
C844 C847 1.387 . S
H845 C841 0.950 . S
H846 C843 0.950 . S
C847 C838 1.390 1_565 S
C847 H840 0.950 . S
C847 C844 1.387 . S
C848 C849 1.387 . S
C848 H852 0.950 . S
C848 C857 1.390 1_554 S
C849 C848 1.387 . S
C849 C851 1.387 . S
H850 C857 0.950 . S
C851 C849 1.387 . S
C851 C853 1.390 1_554 S
C851 H855 0.950 . S
H852 C848 0.950 . S
C853 C851 1.390 1_556 S
C853 C854 1.387 . S
C853 H856 0.950 . S
C854 C853 1.387 . S
C854 C857 1.387 . S
H855 C851 0.950 . S
H856 C853 0.950 . S
C857 C848 1.390 1_556 S
C857 H850 0.950 . S
C857 C854 1.387 . S
C858 C859 1.387 . S
C858 H862 0.950 . S
C858 C867 1.390 . S
C859 C858 1.387 . S
C859 C861 1.387 . S
H860 C867 0.950 . S
C861 C859 1.387 . S
C861 C863 1.390 . S
C861 H865 0.950 . S
H862 C858 0.950 . S
C863 C861 1.390 . S
C863 C864 1.387 . S
C863 H866 0.950 . S
C864 C863 1.387 . S
C864 C867 1.387 . S
H865 C861 0.950 . S
H866 C863 0.950 . S
C867 C858 1.390 . S
C867 H860 0.950 . S
C867 C864 1.387 . S
C868 C869 1.387 . S
C868 H872 0.950 . S
C868 C877 1.390 . S
C869 C868 1.387 . S
C869 C871 1.387 . S
H870 C877 0.950 . S
C871 C869 1.387 . S
C871 C873 1.390 . S
C871 H875 0.950 . S
H872 C868 0.950 . S
C873 C871 1.390 . S
C873 C874 1.387 . S
C873 H876 0.950 . S
C874 C873 1.387 . S
C874 C877 1.387 . S
H875 C871 0.950 . S
H876 C873 0.950 . S
C877 C868 1.390 . S
C877 H870 0.950 . S
C877 C874 1.387 . S
C878 C879 1.387 . S
C878 H882 0.950 . S
C878 C887 1.390 1_556 S
C879 C878 1.387 . S
C879 C881 1.387 . S
H880 C887 0.950 . S
C881 C879 1.387 . S
C881 C883 1.390 1_556 S
C881 H885 0.950 . S
H882 C878 0.950 . S
C883 C881 1.390 1_554 S
C883 C884 1.387 . S
C883 H886 0.950 . S
C884 C883 1.387 . S
C884 C887 1.387 . S
H885 C881 0.950 . S
H886 C883 0.950 . S
C887 C878 1.390 1_554 S
C887 H880 0.950 . S
C887 C884 1.387 . S
C888 C889 1.387 . S
C888 H892 0.950 . S
C888 C897 1.390 1_655 S
C889 C888 1.387 . S
C889 C891 1.387 . S
H890 C897 0.950 . S
C891 C889 1.387 . S
C891 C893 1.390 1_655 S
C891 H895 0.950 . S
H892 C888 0.950 . S
C893 C891 1.390 1_455 S
C893 C894 1.387 . S
C893 H896 0.950 . S
C894 C893 1.387 . S
C894 C897 1.387 . S
H895 C891 0.950 . S
H896 C893 0.950 . S
C897 C888 1.390 1_455 S
C897 H890 0.950 . S
C897 C894 1.387 . S
C898 C899 1.387 . S
C898 H902 0.950 . S
C898 C907 1.390 . S
C899 C898 1.387 . S
C899 C901 1.387 . S
H900 C907 0.950 . S
C901 C899 1.387 . S
C901 C903 1.390 . S
C901 H905 0.950 . S
H902 C898 0.950 . S
C903 C901 1.390 . S
C903 C904 1.387 . S
C903 H906 0.950 . S
C904 C903 1.387 . S
C904 C907 1.387 . S
H905 C901 0.950 . S
H906 C903 0.950 . S
C907 C898 1.390 . S
C907 H900 0.950 . S
C907 C904 1.387 . S
C908 C909 1.387 . S
C908 H912 0.950 . S
C908 C917 1.390 . S
C909 C908 1.387 . S
C909 C911 1.387 . S
H910 C917 0.950 . S
C911 C909 1.387 . S
C911 C913 1.390 . S
C911 H915 0.950 . S
H912 C908 0.950 . S
C913 C911 1.390 . S
C913 C914 1.387 . S
C913 H916 0.950 . S
C914 C913 1.387 . S
C914 C917 1.387 . S
H915 C911 0.950 . S
H916 C913 0.950 . S
C917 C908 1.390 . S
C917 H910 0.950 . S
C917 C914 1.387 . S
C918 C919 1.387 . S
C918 H922 0.950 . S
C918 C927 1.390 1_565 S
C919 C918 1.387 . S
C919 C921 1.387 . S
H920 C927 0.950 . S
C921 C919 1.387 . S
C921 C923 1.390 1_565 S
C921 H925 0.950 . S
H922 C918 0.950 . S
C923 C921 1.390 1_545 S
C923 C924 1.387 . S
C923 H926 0.950 . S
C924 C923 1.387 . S
C924 C927 1.387 . S
H925 C921 0.950 . S
H926 C923 0.950 . S
C927 C918 1.390 1_545 S
C927 H920 0.950 . S
C927 C924 1.387 . S
C928 C929 1.387 . S
C928 H932 0.950 . S
C928 C937 1.390 1_655 S
C929 C928 1.387 . S
C929 C931 1.387 . S
H930 C937 0.950 . S
C931 C929 1.387 . S
C931 C933 1.390 1_655 S
C931 H935 0.950 . S
H932 C928 0.950 . S
C933 C931 1.390 1_455 S
C933 C934 1.387 . S
C933 H936 0.950 . S
C934 C933 1.387 . S
C934 C937 1.387 . S
H935 C931 0.950 . S
H936 C933 0.950 . S
C937 C928 1.390 1_455 S
C937 H930 0.950 . S
C937 C934 1.387 . S
C938 C939 1.387 . S
C938 H942 0.950 . S
C938 C947 1.390 . S
C939 C938 1.387 . S
C939 C941 1.387 . S
H940 C947 0.950 . S
C941 C939 1.387 . S
C941 C943 1.390 . S
C941 H945 0.950 . S
H942 C938 0.950 . S
C943 C941 1.390 . S
C943 C944 1.387 . S
C943 H946 0.950 . S
C944 C943 1.387 . S
C944 C947 1.387 . S
H945 C941 0.950 . S
H946 C943 0.950 . S
C947 C938 1.390 . S
C947 H940 0.950 . S
C947 C944 1.387 . S
C948 C949 1.387 . S
C948 H952 0.950 . S
C948 C957 1.390 . S
C949 C948 1.387 . S
C949 C951 1.387 . S
H950 C957 0.950 . S
C951 C949 1.387 . S
C951 C953 1.390 . S
C951 H955 0.950 . S
H952 C948 0.950 . S
C953 C951 1.390 . S
C953 C954 1.387 . S
C953 H956 0.950 . S
C954 C953 1.387 . S
C954 C957 1.387 . S
H955 C951 0.950 . S
H956 C953 0.950 . S
C957 C948 1.390 . S
C957 H950 0.950 . S
C957 C954 1.387 . S
C958 C959 1.387 . S
C958 H962 0.950 . S
C958 C967 1.390 1_545 S
C959 C958 1.387 . S
C959 C961 1.387 . S
H960 C967 0.950 . S
C961 C959 1.387 . S
C961 C963 1.390 1_545 S
C961 H965 0.950 . S
H962 C958 0.950 . S
C963 C961 1.390 1_565 S
C963 C964 1.387 . S
C963 H966 0.950 . S
C964 C963 1.387 . S
C964 C967 1.387 . S
H965 C961 0.950 . S
H966 C963 0.950 . S
C967 C958 1.390 1_565 S
C967 H960 0.950 . S
C967 C964 1.387 . S
C968 C969 1.387 . S
C968 H972 0.950 . S
C968 C977 1.390 1_554 S
C969 C968 1.387 . S
C969 C971 1.387 . S
H970 C977 0.950 . S
C971 C969 1.387 . S
C971 C973 1.390 1_554 S
C971 H975 0.950 . S
H972 C968 0.950 . S
C973 C971 1.390 1_556 S
C973 C974 1.387 . S
C973 H976 0.950 . S
C974 C973 1.387 . S
C974 C977 1.387 . S
H975 C971 0.950 . S
H976 C973 0.950 . S
C977 C968 1.390 1_556 S
C977 H970 0.950 . S
C977 C974 1.387 . S
C978 C979 1.387 . S
C978 H982 0.950 . S
C978 C987 1.390 . S
C979 C978 1.387 . S
C979 C981 1.387 . S
H980 C987 0.950 . S
C981 C979 1.387 . S
C981 C983 1.390 . S
C981 H985 0.950 . S
H982 C978 0.950 . S
C983 C981 1.390 . S
C983 C984 1.387 . S
C983 H986 0.950 . S
C984 C983 1.387 . S
C984 C987 1.387 . S
H985 C981 0.950 . S
H986 C983 0.950 . S
C987 C978 1.390 . S
C987 H980 0.950 . S
C987 C984 1.387 . S
C988 C989 1.387 . S
C988 H992 0.950 . S
C988 C997 1.390 . S
C989 C988 1.387 . S
C989 C991 1.387 . S
H990 C997 0.950 . S
C991 C989 1.387 . S
C991 C993 1.390 . S
C991 H995 0.950 . S
H992 C988 0.950 . S
C993 C991 1.390 . S
C993 C994 1.387 . S
C993 H996 0.950 . S
C994 C993 1.387 . S
C994 C997 1.387 . S
H995 C991 0.950 . S
H996 C993 0.950 . S
C997 C988 1.390 . S
C997 H990 0.950 . S
C997 C994 1.387 . S
C998 C999 1.387 . S
C998 H1002 0.950 . S
C998 C1007 1.390 1_554 S
C999 C998 1.387 . S
C999 C1001 1.387 . S
H1000 C1007 0.950 . S
C1001 C999 1.387 . S
C1001 C1003 1.390 1_554 S
C1001 H1005 0.950 . S
H1002 C998 0.950 . S
C1003 C1001 1.390 1_556 S
C1003 C1004 1.387 . S
C1003 H1006 0.950 . S
C1004 C1003 1.387 . S
C1004 C1007 1.387 . S
H1005 C1001 0.950 . S
H1006 C1003 0.950 . S
C1007 C998 1.390 1_556 S
C1007 H1000 0.950 . S
C1007 C1004 1.387 . S
C1008 C1009 1.387 . S
C1008 H1012 0.950 . S
C1008 C1017 1.390 . S
C1009 C1008 1.387 . S
C1009 C1011 1.387 . S
H1010 C1017 0.950 . S
C1011 C1009 1.387 . S
C1011 C1013 1.390 . S
C1011 H1015 0.950 . S
H1012 C1008 0.950 . S
C1013 C1011 1.390 . S
C1013 C1014 1.387 . S
C1013 H1016 0.950 . S
C1014 C1013 1.387 . S
C1014 C1017 1.387 . S
H1015 C1011 0.950 . S
H1016 C1013 0.950 . S
C1017 C1008 1.390 . S
C1017 H1010 0.950 . S
C1017 C1014 1.387 . S
C1018 C1019 1.387 . S
C1018 H1022 0.950 . S
C1018 C1027 1.390 . S
C1019 C1018 1.387 . S
C1019 C1021 1.387 . S
H1020 C1027 0.950 . S
C1021 C1019 1.387 . S
C1021 C1023 1.390 . S
C1021 H1025 0.950 . S
H1022 C1018 0.950 . S
C1023 C1021 1.390 . S
C1023 C1024 1.387 . S
C1023 H1026 0.950 . S
C1024 C1023 1.387 . S
C1024 C1027 1.387 . S
H1025 C1021 0.950 . S
H1026 C1023 0.950 . S
C1027 C1018 1.390 . S
C1027 H1020 0.950 . S
C1027 C1024 1.387 . S
C1028 C1029 1.387 . S
C1028 H1032 0.950 . S
C1028 C1037 1.390 . S
C1029 C1028 1.387 . S
C1029 C1031 1.387 . S
H1030 C1037 0.950 . S
C1031 C1029 1.387 . S
C1031 C1033 1.390 . S
C1031 H1035 0.950 . S
H1032 C1028 0.950 . S
C1033 C1031 1.390 . S
C1033 C1034 1.387 . S
C1033 H1036 0.950 . S
C1034 C1033 1.387 . S
C1034 C1037 1.387 . S
H1035 C1031 0.950 . S
H1036 C1033 0.950 . S
C1037 C1028 1.390 . S
C1037 H1030 0.950 . S
C1037 C1034 1.387 . S
C1038 C1039 1.387 . S
C1038 H1042 0.950 . S
C1038 C1047 1.390 . S
C1039 C1038 1.387 . S
C1039 C1041 1.387 . S
H1040 C1047 0.950 . S
C1041 C1039 1.387 . S
C1041 C1043 1.390 . S
C1041 H1045 0.950 . S
H1042 C1038 0.950 . S
C1043 C1041 1.390 . S
C1043 C1044 1.387 . S
C1043 H1046 0.950 . S
C1044 C1043 1.387 . S
C1044 C1047 1.387 . S
H1045 C1041 0.950 . S
H1046 C1043 0.950 . S
C1047 C1038 1.390 . S
C1047 H1040 0.950 . S
C1047 C1044 1.387 . S
C1048 C1049 1.387 . S
C1048 H1052 0.950 . S
C1048 C1057 1.390 . S
C1049 C1048 1.387 . S
C1049 C1051 1.387 . S
H1050 C1057 0.950 . S
C1051 C1049 1.387 . S
C1051 C1053 1.390 . S
C1051 H1055 0.950 . S
H1052 C1048 0.950 . S
C1053 C1051 1.390 . S
C1053 C1054 1.387 . S
C1053 H1056 0.950 . S
C1054 C1053 1.387 . S
C1054 C1057 1.387 . S
H1055 C1051 0.950 . S
H1056 C1053 0.950 . S
C1057 C1048 1.390 . S
C1057 H1050 0.950 . S
C1057 C1054 1.387 . S
C1058 C1059 1.387 . S
C1058 H1062 0.950 . S
C1058 C1067 1.390 . S
C1059 C1058 1.387 . S
C1059 C1061 1.387 . S
H1060 C1067 0.950 . S
C1061 C1059 1.387 . S
C1061 C1063 1.390 . S
C1061 H1065 0.950 . S
H1062 C1058 0.950 . S
C1063 C1061 1.390 . S
C1063 C1064 1.387 . S
C1063 H1066 0.950 . S
C1064 C1063 1.387 . S
C1064 C1067 1.387 . S
H1065 C1061 0.950 . S
H1066 C1063 0.950 . S
C1067 C1058 1.390 . S
C1067 H1060 0.950 . S
C1067 C1064 1.387 . S
C1068 C1069 1.387 . S
C1068 H1072 0.950 . S
C1068 C1077 1.390 . S
C1069 C1068 1.387 . S
C1069 C1071 1.387 . S
H1070 C1077 0.950 . S
C1071 C1069 1.387 . S
C1071 C1073 1.390 . S
C1071 H1075 0.950 . S
H1072 C1068 0.950 . S
C1073 C1071 1.390 . S
C1073 C1074 1.387 . S
C1073 H1076 0.950 . S
C1074 C1073 1.387 . S
C1074 C1077 1.387 . S
H1075 C1071 0.950 . S
H1076 C1073 0.950 . S
C1077 C1068 1.390 . S
C1077 H1070 0.950 . S
C1077 C1074 1.387 . S
C1078 C1079 1.387 . S
C1078 H1082 0.950 . S
C1078 C1087 1.390 . S
C1079 C1078 1.387 . S
C1079 C1081 1.387 . S
H1080 C1087 0.950 . S
C1081 C1079 1.387 . S
C1081 C1083 1.390 . S
C1081 H1085 0.950 . S
H1082 C1078 0.950 . S
C1083 C1081 1.390 . S
C1083 C1084 1.387 . S
C1083 H1086 0.950 . S
C1084 C1083 1.387 . S
C1084 C1087 1.387 . S
H1085 C1081 0.950 . S
H1086 C1083 0.950 . S
C1087 C1078 1.390 . S
C1087 H1080 0.950 . S
C1087 C1084 1.387 . S
C1088 C1089 1.387 . S
C1088 H1092 0.950 . S
C1088 C1097 1.390 . S
C1089 C1088 1.387 . S
C1089 C1091 1.387 . S
H1090 C1097 0.950 . S
C1091 C1089 1.387 . S
C1091 C1093 1.390 . S
C1091 H1095 0.950 . S
H1092 C1088 0.950 . S
C1093 C1091 1.390 . S
C1093 C1094 1.387 . S
C1093 H1096 0.950 . S
C1094 C1093 1.387 . S
C1094 C1097 1.387 . S
H1095 C1091 0.950 . S
H1096 C1093 0.950 . S
C1097 C1088 1.390 . S
C1097 H1090 0.950 . S
C1097 C1094 1.387 . S
C1098 C1099 1.387 . S
C1098 H1102 0.950 . S
C1098 C1107 1.390 . S
C1099 C1098 1.387 . S
C1099 C1101 1.387 . S
H1100 C1107 0.950 . S
C1101 C1099 1.387 . S
C1101 C1103 1.390 . S
C1101 H1105 0.950 . S
H1102 C1098 0.950 . S
C1103 C1101 1.390 . S
C1103 C1104 1.387 . S
C1103 H1106 0.950 . S
C1104 C1103 1.387 . S
C1104 C1107 1.387 . S
H1105 C1101 0.950 . S
H1106 C1103 0.950 . S
C1107 C1098 1.390 . S
C1107 H1100 0.950 . S
C1107 C1104 1.387 . S
C1108 C1109 1.387 . S
C1108 H1112 0.950 . S
C1108 C1117 1.390 . S
C1109 C1108 1.387 . S
C1109 C1111 1.387 . S
H1110 C1117 0.950 . S
C1111 C1109 1.387 . S
C1111 C1113 1.390 . S
C1111 H1115 0.950 . S
H1112 C1108 0.950 . S
C1113 C1111 1.390 . S
C1113 C1114 1.387 . S
C1113 H1116 0.950 . S
C1114 C1113 1.387 . S
C1114 C1117 1.387 . S
H1115 C1111 0.950 . S
H1116 C1113 0.950 . S
C1117 C1108 1.390 . S
C1117 H1110 0.950 . S
C1117 C1114 1.387 . S
C1118 C1119 1.387 . S
C1118 H1122 0.950 . S
C1118 C1127 1.390 . S
C1119 C1118 1.387 . S
C1119 C1121 1.387 . S
H1120 C1127 0.950 . S
C1121 C1119 1.387 . S
C1121 C1123 1.390 . S
C1121 H1125 0.950 . S
H1122 C1118 0.950 . S
C1123 C1121 1.390 . S
C1123 C1124 1.387 . S
C1123 H1126 0.950 . S
C1124 C1123 1.387 . S
C1124 C1127 1.387 . S
H1125 C1121 0.950 . S
H1126 C1123 0.950 . S
C1127 C1118 1.390 . S
C1127 H1120 0.950 . S
C1127 C1124 1.387 . S
C1128 C1129 1.387 . S
C1128 H1132 0.950 . S
C1128 C1137 1.390 . S
C1129 C1128 1.387 . S
C1129 C1131 1.387 . S
H1130 C1137 0.950 . S
C1131 C1129 1.387 . S
C1131 C1133 1.390 . S
C1131 H1135 0.950 . S
H1132 C1128 0.950 . S
C1133 C1131 1.390 . S
C1133 C1134 1.387 . S
C1133 H1136 0.950 . S
C1134 C1133 1.387 . S
C1134 C1137 1.387 . S
H1135 C1131 0.950 . S
H1136 C1133 0.950 . S
C1137 C1128 1.390 . S
C1137 H1130 0.950 . S
C1137 C1134 1.387 . S
C1138 C1139 1.387 . S
C1138 H1142 0.950 . S
C1138 C1147 1.390 . S
C1139 C1138 1.387 . S
C1139 C1141 1.387 . S
H1140 C1147 0.950 . S
C1141 C1139 1.387 . S
C1141 C1143 1.390 . S
C1141 H1145 0.950 . S
H1142 C1138 0.950 . S
C1143 C1141 1.390 . S
C1143 C1144 1.387 . S
C1143 H1146 0.950 . S
C1144 C1143 1.387 . S
C1144 C1147 1.387 . S
H1145 C1141 0.950 . S
H1146 C1143 0.950 . S
C1147 C1138 1.390 . S
C1147 H1140 0.950 . S
C1147 C1144 1.387 . S
C1148 C1149 1.387 . S
C1148 H1152 0.950 . S
C1148 C1157 1.390 . S
C1149 C1148 1.387 . S
C1149 C1151 1.387 . S
H1150 C1157 0.950 . S
C1151 C1149 1.387 . S
C1151 C1153 1.390 . S
C1151 H1155 0.950 . S
H1152 C1148 0.950 . S
C1153 C1151 1.390 . S
C1153 C1154 1.387 . S
C1153 H1156 0.950 . S
C1154 C1153 1.387 . S
C1154 C1157 1.387 . S
H1155 C1151 0.950 . S
H1156 C1153 0.950 . S
C1157 C1148 1.390 . S
C1157 H1150 0.950 . S
C1157 C1154 1.387 . S
C1158 C1159 1.387 . S
C1158 H1162 0.950 . S
C1158 C1167 1.390 . S
C1159 C1158 1.387 . S
C1159 C1161 1.387 . S
H1160 C1167 0.950 . S
C1161 C1159 1.387 . S
C1161 C1163 1.390 . S
C1161 H1165 0.950 . S
H1162 C1158 0.950 . S
C1163 C1161 1.390 . S
C1163 C1164 1.387 . S
C1163 H1166 0.950 . S
C1164 C1163 1.387 . S
C1164 C1167 1.387 . S
H1165 C1161 0.950 . S
H1166 C1163 0.950 . S
C1167 C1158 1.390 . S
C1167 H1160 0.950 . S
C1167 C1164 1.387 . S
C1168 C1169 1.387 . S
C1168 H1172 0.950 . S
C1168 C1177 1.390 . S
C1169 C1168 1.387 . S
C1169 C1171 1.387 . S
H1170 C1177 0.950 . S
C1171 C1169 1.387 . S
C1171 C1173 1.390 . S
C1171 H1175 0.950 . S
H1172 C1168 0.950 . S
C1173 C1171 1.390 . S
C1173 C1174 1.387 . S
C1173 H1176 0.950 . S
C1174 C1173 1.387 . S
C1174 C1177 1.387 . S
H1175 C1171 0.950 . S
H1176 C1173 0.950 . S
C1177 C1168 1.390 . S
C1177 H1170 0.950 . S
C1177 C1174 1.387 . S
C1178 C1179 1.387 . S
C1178 H1182 0.950 . S
C1178 C1187 1.390 . S
C1179 C1178 1.387 . S
C1179 C1181 1.387 . S
H1180 C1187 0.950 . S
C1181 C1179 1.387 . S
C1181 C1183 1.390 . S
C1181 H1185 0.950 . S
H1182 C1178 0.950 . S
C1183 C1181 1.390 . S
C1183 C1184 1.387 . S
C1183 H1186 0.950 . S
C1184 C1183 1.387 . S
C1184 C1187 1.387 . S
H1185 C1181 0.950 . S
H1186 C1183 0.950 . S
C1187 C1178 1.390 . S
C1187 H1180 0.950 . S
C1187 C1184 1.387 . S
C1188 C1189 1.387 . S
C1188 H1192 0.950 . S
C1188 C1197 1.390 . S
C1189 C1188 1.387 . S
C1189 C1191 1.387 . S
H1190 C1197 0.950 . S
C1191 C1189 1.387 . S
C1191 C1193 1.390 . S
C1191 H1195 0.950 . S
H1192 C1188 0.950 . S
C1193 C1191 1.390 . S
C1193 C1194 1.387 . S
C1193 H1196 0.950 . S
C1194 C1193 1.387 . S
C1194 C1197 1.387 . S
H1195 C1191 0.950 . S
H1196 C1193 0.950 . S
C1197 C1188 1.390 . S
C1197 H1190 0.950 . S
C1197 C1194 1.387 . S
C1198 C1199 1.387 . S
C1198 H1202 0.950 . S
C1198 C1207 1.390 . S
C1199 C1198 1.387 . S
C1199 C1201 1.387 . S
H1200 C1207 0.950 . S
C1201 C1199 1.387 . S
C1201 C1203 1.390 . S
C1201 H1205 0.950 . S
H1202 C1198 0.950 . S
C1203 C1201 1.390 . S
C1203 C1204 1.387 . S
C1203 H1206 0.950 . S
C1204 C1203 1.387 . S
C1204 C1207 1.387 . S
H1205 C1201 0.950 . S
H1206 C1203 0.950 . S
C1207 C1198 1.390 . S
C1207 H1200 0.950 . S
C1207 C1204 1.387 . S
C1208 C1209 1.387 . S
C1208 H1212 0.950 . S
C1208 C1217 1.390 . S
C1209 C1208 1.387 . S
C1209 C1211 1.387 . S
H1210 C1217 0.950 . S
C1211 C1209 1.387 . S
C1211 C1213 1.390 . S
C1211 H1215 0.950 . S
H1212 C1208 0.950 . S
C1213 C1211 1.390 . S
C1213 C1214 1.387 . S
C1213 H1216 0.950 . S
C1214 C1213 1.387 . S
C1214 C1217 1.387 . S
H1215 C1211 0.950 . S
H1216 C1213 0.950 . S
C1217 C1208 1.390 . S
C1217 H1210 0.950 . S
C1217 C1214 1.387 . S
C1218 C1219 1.387 . S
C1218 H1222 0.950 . S
C1218 C1227 1.390 . S
C1219 C1218 1.387 . S
C1219 C1221 1.387 . S
H1220 C1227 0.950 . S
C1221 C1219 1.387 . S
C1221 C1223 1.390 . S
C1221 H1225 0.950 . S
H1222 C1218 0.950 . S
C1223 C1221 1.390 . S
C1223 C1224 1.387 . S
C1223 H1226 0.950 . S
C1224 C1223 1.387 . S
C1224 C1227 1.387 . S
H1225 C1221 0.950 . S
H1226 C1223 0.950 . S
C1227 C1218 1.390 . S
C1227 H1220 0.950 . S
C1227 C1224 1.387 . S
C1228 C1229 1.387 . S
C1228 H1232 0.950 . S
C1228 C1237 1.390 . S
C1229 C1228 1.387 . S
C1229 C1231 1.387 . S
H1230 C1237 0.950 . S
C1231 C1229 1.387 . S
C1231 C1233 1.390 . S
C1231 H1235 0.950 . S
H1232 C1228 0.950 . S
C1233 C1231 1.390 . S
C1233 C1234 1.387 . S
C1233 H1236 0.950 . S
C1234 C1233 1.387 . S
C1234 C1237 1.387 . S
H1235 C1231 0.950 . S
H1236 C1233 0.950 . S
C1237 C1228 1.390 . S
C1237 H1230 0.950 . S
C1237 C1234 1.387 . S
C1238 C1239 1.387 . S
C1238 H1242 0.950 . S
C1238 C1247 1.390 . S
C1239 C1238 1.387 . S
C1239 C1241 1.387 . S
H1240 C1247 0.950 . S
C1241 C1239 1.387 . S
C1241 C1243 1.390 . S
C1241 H1245 0.950 . S
H1242 C1238 0.950 . S
C1243 C1241 1.390 . S
C1243 C1244 1.387 . S
C1243 H1246 0.950 . S
C1244 C1243 1.387 . S
C1244 C1247 1.387 . S
H1245 C1241 0.950 . S
H1246 C1243 0.950 . S
C1247 C1238 1.390 . S
C1247 H1240 0.950 . S
C1247 C1244 1.387 . S
C529 C51 1.482 . S
C534 C7 1.482 . S
C539 C62 1.482 . S
C544 C18 1.482 . S
C549 C73 1.477 . S
C554 C29 1.477 . S
C559 C40 1.477 . S
C564 C84 1.477 . S
C569 C161 1.477 . S
C574 C95 1.477 . S
C579 C172 1.477 . S
C584 C106 1.477 . S
C589 C117 1.482 . S
C594 C139 1.482 . S
C599 C150 1.482 . S
C604 C128 1.482 . S
C609 C238 1.482 . S
C614 C183 1.482 . S
C619 C216 1.477 . S
C624 C194 1.477 . S
C629 C205 1.477 . S
C634 C227 1.477 . S
C639 C260 1.482 . S
C644 C249 1.482 . S
C649 C271 1.603 . S
C654 C315 1.603 . S
C659 C282 1.602 . S
C664 C326 1.602 . S
C669 C337 1.602 . S
C674 C293 1.602 . S
C679 C304 1.603 . S
C684 C348 1.603 . S
C689 C425 1.603 . S
C694 C359 1.603 . S
C699 C436 1.603 . S
C704 C370 1.603 . S
C709 C381 1.603 . S
C714 C403 1.603 . S
C719 C392 1.603 . S
C724 C414 1.603 . S
C729 C447 1.603 . S
C734 C502 1.603 . S
C739 C480 1.602 . S
C744 C458 1.602 . S
C749 C469 1.602 . S
C754 C491 1.602 . S
C759 C524 1.602 . S
C764 C513 1.602 . S
C769 C5 1.281 . S
C774 C104 1.282 . S
C779 C16 1.279 . S
C784 C115 1.275 . S
C789 C126 1.282 . S
C794 C27 1.281 . S
C799 C38 1.279 . S
C804 C93 1.276 . S
C809 C170 1.276 . S
C814 C49 1.276 . S
C819 C137 1.277 . S
C824 C60 1.281 . S
C829 C71 1.276 . S
C834 C148 1.275 . S
C839 C159 1.276 . S
C844 C82 1.276 . S
C849 C181 1.280 . S
C854 C203 1.282 . S
C859 C192 1.277 . S
C864 C247 1.275 . S
C869 C214 1.280 . S
C874 C258 1.276 . S
C879 C225 1.282 . S
C884 C236 1.279 . S
C889 C269 1.619 . S
C894 C368 1.619 . S
C899 C379 1.619 . S
C904 C280 1.619 . S
C909 C291 1.617 . S
C914 C390 1.617 . S
C919 C357 1.617 . S
C924 C302 1.616 . S
C929 C313 1.619 . S
C934 C434 1.619 . S
C939 C401 1.617 . S
C944 C324 1.617 . S
C949 C335 1.619 . S
C954 C412 1.619 . S
C959 C346 1.617 . S
C964 C423 1.617 . S
C969 C467 1.616 . S
C974 C445 1.616 . S
C979 C511 1.616 . S
C984 C456 1.616 . S
C989 C478 1.620 . S
C994 C522 1.620 . S
C999 C489 1.619 . S
C1004 C500 1.618 . S
C1009 C8 1.562 . S
C1014 C349 1.588 . S
C1019 C316 1.588 . S
C1024 C19 1.562 . S
C1029 C327 1.588 . S
C1034 C30 1.561 . S
C1039 C338 1.588 . S
C1044 C41 1.562 . S
C1049 C283 1.588 . S
C1054 C52 1.562 . S
C1059 C63 1.561 . S
C1064 C294 1.588 . S
C1069 C74 1.561 . S
C1074 C305 1.588 . S
C1079 C85 1.561 . S
C1084 C272 1.588 . S
C1089 C96 1.561 . S
C1094 C492 1.588 . S
C1099 C459 1.588 . S
C1104 C107 1.561 . S
C1109 C118 1.562 . S
C1114 C470 1.588 . S
C1119 C129 1.562 . S
C1124 C481 1.589 . S
C1129 C525 1.589 . S
C1134 C140 1.562 . S
C1139 C151 1.562 . S
C1144 C503 1.588 . S
C1149 C162 1.561 . S
C1154 C514 1.588 . S
C1159 C448 1.588 . S
C1164 C173 1.562 . S
C1169 C437 1.588 . S
C1174 C184 1.561 . S
C1179 C371 1.588 . S
C1184 C195 1.561 . S
C1189 C382 1.588 . S
C1194 C206 1.562 . S
C1199 C393 1.588 . S
C1204 C217 1.561 . S
C1209 C360 1.588 . S
C1214 C228 1.562 . S
C1219 C239 1.562 . S
C1224 C415 1.588 . S
C1229 C250 1.561 . S
C1234 C426 1.588 . S
C1239 C404 1.588 . S
C1244 C261 1.561 . S
