# Generated by pormake.
# Topology ukb, (4)-cn, num edge types: 1
# Building blocks:
#     Node 0, Type 0, BuildingBlock: CEKHIL_clean_sbu_0, # of connection points: 4
#     Node 1, Type 0, BuildingBlock: CEKHIL_clean_sbu_0, # of connection points: 4
#     Node 2, Type 0, BuildingBlock: CEKHIL_clean_sbu_0, # of connection points: 4
#     Node 3, Type 0, BuildingBlock: CEKHIL_clean_sbu_0, # of connection points: 4
#     Node 4, Type 0, BuildingBlock: CEKHIL_clean_sbu_0, # of connection points: 4
#     Node 5, Type 0, BuildingBlock: CEKHIL_clean_sbu_0, # of connection points: 4
#     Node 6, Type 0, BuildingBlock: CEKHIL_clean_sbu_0, # of connection points: 4
#     Node 7, Type 0, BuildingBlock: CEKHIL_clean_sbu_0, # of connection points: 4
#     Node 8, Type 0, BuildingBlock: CEKHIL_clean_sbu_0, # of connection points: 4
#     Node 9, Type 0, BuildingBlock: CEKHIL_clean_sbu_0, # of connection points: 4
#     Node 10, Type 0, BuildingBlock: CEKHIL_clean_sbu_0, # of connection points: 4
#     Node 11, Type 0, BuildingBlock: CEKHIL_clean_sbu_0, # of connection points: 4
#     Node 12, Type 0, BuildingBlock: CEKHIL_clean_sbu_0, # of connection points: 4
#     Node 13, Type 0, BuildingBlock: CEKHIL_clean_sbu_0, # of connection points: 4
#     Node 14, Type 0, BuildingBlock: CEKHIL_clean_sbu_0, # of connection points: 4
#     Node 15, Type 0, BuildingBlock: CEKHIL_clean_sbu_0, # of connection points: 4
#     Edge 16, Type (0, 0), BuildingBlock: EYOCIG_clean_linker_4, # of connection points: 2
#     Edge 17, Type (0, 0), BuildingBlock: EYOCIG_clean_linker_4, # of connection points: 2
#     Edge 18, Type (0, 0), BuildingBlock: EYOCIG_clean_linker_4, # of connection points: 2
#     Edge 19, Type (0, 0), BuildingBlock: EYOCIG_clean_linker_4, # of connection points: 2
#     Edge 20, Type (0, 0), BuildingBlock: EYOCIG_clean_linker_4, # of connection points: 2
#     Edge 21, Type (0, 0), BuildingBlock: EYOCIG_clean_linker_4, # of connection points: 2
#     Edge 22, Type (0, 0), BuildingBlock: EYOCIG_clean_linker_4, # of connection points: 2
#     Edge 23, Type (0, 0), BuildingBlock: EYOCIG_clean_linker_4, # of connection points: 2
#     Edge 24, Type (0, 0), BuildingBlock: EYOCIG_clean_linker_4, # of connection points: 2
#     Edge 25, Type (0, 0), BuildingBlock: EYOCIG_clean_linker_4, # of connection points: 2
#     Edge 26, Type (0, 0), BuildingBlock: EYOCIG_clean_linker_4, # of connection points: 2
#     Edge 27, Type (0, 0), BuildingBlock: EYOCIG_clean_linker_4, # of connection points: 2
#     Edge 28, Type (0, 0), BuildingBlock: EYOCIG_clean_linker_4, # of connection points: 2
#     Edge 29, Type (0, 0), BuildingBlock: EYOCIG_clean_linker_4, # of connection points: 2
#     Edge 30, Type (0, 0), BuildingBlock: EYOCIG_clean_linker_4, # of connection points: 2
#     Edge 31, Type (0, 0), BuildingBlock: EYOCIG_clean_linker_4, # of connection points: 2
#     Edge 32, Type (0, 0), BuildingBlock: EYOCIG_clean_linker_4, # of connection points: 2
#     Edge 33, Type (0, 0), BuildingBlock: EYOCIG_clean_linker_4, # of connection points: 2
#     Edge 34, Type (0, 0), BuildingBlock: EYOCIG_clean_linker_4, # of connection points: 2
#     Edge 35, Type (0, 0), BuildingBlock: EYOCIG_clean_linker_4, # of connection points: 2
#     Edge 36, Type (0, 0), BuildingBlock: EYOCIG_clean_linker_4, # of connection points: 2
#     Edge 37, Type (0, 0), BuildingBlock: EYOCIG_clean_linker_4, # of connection points: 2
#     Edge 38, Type (0, 0), BuildingBlock: EYOCIG_clean_linker_4, # of connection points: 2
#     Edge 39, Type (0, 0), BuildingBlock: EYOCIG_clean_linker_4, # of connection points: 2
#     Edge 40, Type (0, 0), BuildingBlock: EYOCIG_clean_linker_4, # of connection points: 2
#     Edge 41, Type (0, 0), BuildingBlock: EYOCIG_clean_linker_4, # of connection points: 2
#     Edge 42, Type (0, 0), BuildingBlock: EYOCIG_clean_linker_4, # of connection points: 2
#     Edge 43, Type (0, 0), BuildingBlock: EYOCIG_clean_linker_4, # of connection points: 2
#     Edge 44, Type (0, 0), BuildingBlock: EYOCIG_clean_linker_4, # of connection points: 2
#     Edge 45, Type (0, 0), BuildingBlock: EYOCIG_clean_linker_4, # of connection points: 2
#     Edge 46, Type (0, 0), BuildingBlock: EYOCIG_clean_linker_4, # of connection points: 2
#     Edge 47, Type (0, 0), BuildingBlock: EYOCIG_clean_linker_4, # of connection points: 2
# Relax obj value: 0.092
# Max RMSD: 0.050
# Mean RMSD: 0.050
data_MOF--net-ukb--node1-CEKHIL_clean_sbu_0--edge1-EYOCIG_clean_linker_4
_symmetry_space_group_name_H-M    P1
_symmetry_Int_Tables_number       1
_symmetry_cell_setting            triclinic
loop_
_symmetry_equiv_pos_as_xyz
'x, y, z'
_cell_length_a     34.494331
_cell_length_b     34.502746
_cell_length_c     29.003721
_cell_angle_alpha  89.995904
_cell_angle_beta   89.996567
_cell_angle_gamma 90.002468
loop_
_atom_site_label
_atom_site_type_symbol
_atom_site_fract_x
_atom_site_fract_y
_atom_site_fract_z
_atom_type_partial_charge
Co0 Co 0.52225 0.19327 0.18582 0.0
O1 O 0.49155 0.14723 0.17867 0.0
O2 O 0.48976 0.18651 0.23943 0.0
C3 C 0.51117 0.21625 0.1148 0.0
O4 O 0.54828 0.24384 0.20475 0.0
Co5 Co 0.59482 0.20805 0.12499 0.0
O6 O 0.59425 0.26042 0.15328 0.0
C7 C 0.59932 0.15278 0.20247 0.0
C8 C 0.4769 0.15578 0.21853 0.0
C9 C 0.57374 0.26749 0.18875 0.0
O10 O 0.56504 0.16224 0.21563 0.0
O11 O 0.61537 0.1656 0.16575 0.0
O12 O 0.48602 0.22217 0.14731 0.0
O13 O 0.54035 0.19447 0.12489 0.0
Co14 Co 0.31168 0.52241 0.68581 0.0
O15 O 0.35769 0.49169 0.67863 0.0
O16 O 0.31836 0.48985 0.73935 0.0
C17 C 0.28873 0.51146 0.61474 0.0
O18 O 0.2611 0.54846 0.70474 0.0
Co19 Co 0.29702 0.59507 0.6251 0.0
O20 O 0.24461 0.5945 0.65334 0.0
C21 C 0.35223 0.59941 0.70266 0.0
C22 C 0.3491 0.47699 0.71845 0.0
C23 C 0.23748 0.57395 0.68877 0.0
O24 O 0.34273 0.56512 0.71574 0.0
O25 O 0.33945 0.61552 0.66596 0.0
O26 O 0.28276 0.48628 0.6472 0.0
O27 O 0.31054 0.5406 0.62491 0.0
Co28 Co 0.98249 0.31194 0.18583 0.0
O29 O 0.01318 0.35797 0.17865 0.0
O30 O 0.0151 0.3186 0.23933 0.0
C31 C 0.99338 0.28903 0.11473 0.0
O32 O 0.95648 0.26134 0.20474 0.0
Co33 Co 0.90976 0.29728 0.1252 0.0
O34 O 0.91042 0.24486 0.15335 0.0
C35 C 0.90544 0.3524 0.20285 0.0
C36 C 0.02793 0.34936 0.21845 0.0
C37 C 0.931 0.23772 0.18876 0.0
O38 O 0.93978 0.34293 0.21585 0.0
O39 O 0.88931 0.33964 0.16616 0.0
O40 O 0.01862 0.28308 0.14715 0.0
O41 O 0.96425 0.31082 0.12495 0.0
Co42 Co 0.193 0.9826 0.68585 0.0
O43 O 0.147 0.01333 0.67863 0.0
O44 O 0.1863 0.01517 0.73937 0.0
C45 C 0.21602 0.99352 0.6148 0.0
O46 O 0.24356 0.95654 0.70482 0.0
Co47 Co 0.20766 0.90992 0.62517 0.0
O48 O 0.26006 0.91049 0.65343 0.0
C49 C 0.15242 0.9056 0.70271 0.0
C50 C 0.15557 0.02803 0.71846 0.0
C51 C 0.26718 0.93104 0.68886 0.0
O52 O 0.16192 0.9399 0.71577 0.0
O53 O 0.16522 0.88949 0.66603 0.0
O54 O 0.22196 0.01872 0.64724 0.0
O55 O 0.19418 0.9644 0.62496 0.0
Co56 Co 0.5221 0.31178 0.83118 0.0
O57 O 0.4914 0.35779 0.83836 0.0
O58 O 0.48958 0.3185 0.77762 0.0
C59 C 0.51108 0.2888 0.90222 0.0
O60 O 0.54814 0.26121 0.81224 0.0
Co61 Co 0.59473 0.29704 0.89195 0.0
O62 O 0.59415 0.24466 0.86367 0.0
C63 C 0.59916 0.35229 0.81443 0.0
C64 C 0.47672 0.34923 0.79852 0.0
C65 C 0.57363 0.23758 0.82821 0.0
O66 O 0.56486 0.34281 0.80131 0.0
O67 O 0.61523 0.33948 0.85114 0.0
O68 O 0.48591 0.28287 0.86974 0.0
O69 O 0.54025 0.3106 0.8921 0.0
Co70 Co 0.1932 0.52236 0.33109 0.0
O71 O 0.14716 0.49167 0.3383 0.0
O72 O 0.18647 0.4898 0.27756 0.0
C73 C 0.21618 0.5114 0.40215 0.0
O74 O 0.24379 0.54837 0.31212 0.0
Co75 Co 0.20795 0.59501 0.39177 0.0
O76 O 0.26034 0.5944 0.36349 0.0
C77 C 0.1527 0.59939 0.31425 0.0
C78 C 0.15573 0.47696 0.29848 0.0
C79 C 0.26743 0.57385 0.32806 0.0
O80 O 0.16217 0.56508 0.30117 0.0
O81 O 0.16551 0.61548 0.35094 0.0
O82 O 0.22211 0.4862 0.36969 0.0
O83 O 0.19438 0.54055 0.39199 0.0
Co84 Co 0.98243 0.19309 0.83126 0.0
O85 O 0.01315 0.14707 0.83843 0.0
O86 O 0.01502 0.18642 0.77773 0.0
C87 C 0.99336 0.21604 0.90233 0.0
O88 O 0.9564 0.24367 0.81234 0.0
Co89 Co 0.90973 0.20774 0.89194 0.0
O90 O 0.91036 0.26016 0.86375 0.0
C91 C 0.90539 0.15259 0.81433 0.0
C92 C 0.02786 0.15567 0.79861 0.0
C93 C 0.93091 0.26729 0.82833 0.0
O94 O 0.93971 0.16207 0.80129 0.0
O95 O 0.88927 0.16536 0.85102 0.0
O96 O 0.01857 0.22198 0.86989 0.0
O97 O 0.96422 0.19423 0.89215 0.0
Co98 Co 0.31199 0.98247 0.33131 0.0
O99 O 0.35802 0.01317 0.3385 0.0
O100 O 0.31866 0.01507 0.2778 0.0
C101 C 0.28904 0.99337 0.4024 0.0
O102 O 0.2614 0.95645 0.31238 0.0
Co103 Co 0.29732 0.90976 0.39195 0.0
O104 O 0.2449 0.91039 0.36376 0.0
C105 C 0.35248 0.90545 0.31433 0.0
C106 C 0.34941 0.02791 0.2987 0.0
C107 C 0.23777 0.93096 0.32835 0.0
O108 O 0.34301 0.93977 0.30131 0.0
O109 O 0.3397 0.88932 0.35101 0.0
O110 O 0.28309 0.01858 0.36996 0.0
O111 O 0.31085 0.96424 0.3922 0.0
Co112 Co 0.48255 0.81183 0.83105 0.0
O113 O 0.51331 0.85782 0.83819 0.0
O114 O 0.51507 0.81851 0.77746 0.0
C115 C 0.49356 0.78885 0.9021 0.0
O116 O 0.45645 0.76128 0.81215 0.0
Co117 Co 0.40993 0.79719 0.89187 0.0
O118 O 0.41045 0.7448 0.86362 0.0
C119 C 0.40553 0.8524 0.81432 0.0
C120 C 0.52796 0.84923 0.79834 0.0
C121 C 0.43096 0.73767 0.82816 0.0
O122 O 0.43982 0.84289 0.80119 0.0
O123 O 0.38945 0.83962 0.85104 0.0
O124 O 0.51872 0.78289 0.8696 0.0
O125 O 0.46443 0.81068 0.89198 0.0
Co126 Co 0.69302 0.48259 0.33139 0.0
O127 O 0.64704 0.51339 0.33851 0.0
O128 O 0.68644 0.51516 0.27784 0.0
C129 C 0.71594 0.4935 0.40248 0.0
O130 O 0.74357 0.45647 0.31252 0.0
Co131 Co 0.70752 0.4099 0.3921 0.0
O132 O 0.75995 0.41039 0.36393 0.0
C133 C 0.65237 0.40565 0.31448 0.0
C134 C 0.65569 0.52807 0.2987 0.0
C135 C 0.76713 0.43093 0.32851 0.0
O136 O 0.66193 0.43993 0.30142 0.0
O137 O 0.66509 0.38952 0.35119 0.0
O138 O 0.72196 0.51868 0.37003 0.0
O139 O 0.69408 0.4644 0.3923 0.0
Co140 Co 0.02223 0.69316 0.8313 0.0
O141 O 0.99149 0.64717 0.83853 0.0
O142 O 0.98962 0.68648 0.7778 0.0
C143 C 0.01135 0.71614 0.90237 0.0
O144 O 0.0483 0.74371 0.81232 0.0
Co145 Co 0.09497 0.70779 0.89192 0.0
O146 O 0.09439 0.76019 0.86368 0.0
C147 C 0.09923 0.65258 0.81436 0.0
C148 C 0.97676 0.65575 0.79872 0.0
C149 C 0.07382 0.76731 0.82827 0.0
O150 O 0.06491 0.66209 0.80133 0.0
O151 O 0.11537 0.66536 0.85104 0.0
O152 O 0.98613 0.72209 0.86994 0.0
O153 O 0.04047 0.6943 0.89218 0.0
Co154 Co 0.81178 0.02239 0.331 0.0
O155 O 0.85775 0.99162 0.33827 0.0
O156 O 0.81848 0.98979 0.2775 0.0
C157 C 0.78873 0.01151 0.40204 0.0
O158 O 0.76125 0.04848 0.31198 0.0
Co159 Co 0.79714 0.0951 0.39164 0.0
O160 O 0.74477 0.09457 0.36333 0.0
C161 C 0.85242 0.09934 0.31413 0.0
C162 C 0.84919 0.97691 0.29845 0.0
C163 C 0.73765 0.07402 0.3279 0.0
O164 O 0.8429 0.06505 0.30107 0.0
O165 O 0.83963 0.11548 0.3508 0.0
O166 O 0.78278 0.9863 0.3696 0.0
O167 O 0.8106 0.04061 0.39188 0.0
Co168 Co 0.48269 0.69311 0.18565 0.0
O169 O 0.51347 0.64714 0.1785 0.0
O170 O 0.51524 0.68647 0.23922 0.0
C171 C 0.49365 0.71609 0.1146 0.0
O172 O 0.45658 0.74365 0.20457 0.0
Co173 Co 0.41002 0.70771 0.12492 0.0
O174 O 0.41052 0.7601 0.15316 0.0
C175 C 0.4057 0.65249 0.20247 0.0
C176 C 0.52814 0.65575 0.21833 0.0
C177 C 0.43105 0.76724 0.1886 0.0
O178 O 0.43999 0.66202 0.21556 0.0
O179 O 0.38959 0.66526 0.16576 0.0
O180 O 0.51882 0.72207 0.14707 0.0
O181 O 0.46453 0.69424 0.12474 0.0
Co182 Co 0.81169 0.4826 0.68605 0.0
O183 O 0.85767 0.51337 0.67887 0.0
O184 O 0.81835 0.51516 0.73959 0.0
C185 C 0.7887 0.49352 0.615 0.0
O186 O 0.76114 0.45649 0.705 0.0
Co187 Co 0.7971 0.40992 0.62535 0.0
O188 O 0.74469 0.41044 0.65359 0.0
C189 C 0.85232 0.40563 0.7029 0.0
C190 C 0.84907 0.52805 0.71869 0.0
C191 C 0.73755 0.43098 0.68902 0.0
O192 O 0.84279 0.43992 0.71598 0.0
O193 O 0.83955 0.38952 0.6662 0.0
O194 O 0.78273 0.51871 0.64745 0.0
O195 O 0.81056 0.46442 0.62515 0.0
Co196 Co 0.02243 0.81188 0.18592 0.0
O197 O 0.99166 0.85786 0.17875 0.0
O198 O 0.98984 0.81852 0.23946 0.0
C199 C 0.0115 0.78893 0.11485 0.0
O200 O 0.04851 0.76133 0.20484 0.0
Co201 Co 0.09512 0.79729 0.12521 0.0
O202 O 0.09457 0.74489 0.15342 0.0
C203 C 0.09942 0.85246 0.2028 0.0
C204 C 0.97696 0.84925 0.21856 0.0
C205 C 0.07403 0.73774 0.18885 0.0
O206 O 0.06512 0.84295 0.21587 0.0
O207 O 0.11555 0.83971 0.1661 0.0
O208 O 0.9863 0.78295 0.14731 0.0
O209 O 0.04062 0.81076 0.12502 0.0
Co210 Co 0.69294 0.02248 0.68561 0.0
O211 O 0.64695 0.99172 0.6784 0.0
O212 O 0.68628 0.98988 0.73912 0.0
C213 C 0.71593 0.0116 0.61454 0.0
O214 O 0.74349 0.04856 0.70458 0.0
Co215 Co 0.70756 0.0952 0.62499 0.0
O216 O 0.75997 0.09465 0.65323 0.0
C217 C 0.65233 0.09944 0.70254 0.0
C218 C 0.65555 0.977 0.7182 0.0
C219 C 0.7671 0.07409 0.68864 0.0
O220 O 0.66185 0.06514 0.71558 0.0
O221 O 0.66511 0.11558 0.66586 0.0
O222 O 0.7219 0.9864 0.64698 0.0
O223 O 0.69408 0.04071 0.62473 0.0
C224 C 0.42259 0.11 0.25153 0.0
C225 C 0.44727 0.13192 0.23816 0.0
C226 C 0.39506 0.08238 0.26581 0.0
C227 C 0.3732 0.05763 0.27915 0.0
C228 C 0.39477 0.42255 0.75134 0.0
C229 C 0.37289 0.44729 0.73801 0.0
C230 C 0.42233 0.39495 0.7656 0.0
C231 C 0.44704 0.37306 0.77894 0.0
C232 C 0.08238 0.39502 0.25133 0.0
C233 C 0.05764 0.37316 0.238 0.0
C234 C 0.10998 0.42258 0.26559 0.0
C235 C 0.13188 0.44729 0.27892 0.0
C236 C 0.10987 0.08243 0.75138 0.0
C237 C 0.13175 0.05771 0.73803 0.0
C238 C 0.08228 0.11 0.76567 0.0
C239 C 0.05756 0.13187 0.77903 0.0
C240 C 0.58235 0.89492 0.76535 0.0
C241 C 0.55763 0.87304 0.77872 0.0
C242 C 0.60991 0.92253 0.75108 0.0
C243 C 0.63176 0.94728 0.73775 0.0
C244 C 0.58255 0.61009 0.25135 0.0
C245 C 0.55782 0.63195 0.23796 0.0
C246 C 0.6101 0.58252 0.26568 0.0
C247 C 0.63194 0.55777 0.27907 0.0
C248 C 0.92231 0.61008 0.76586 0.0
C249 C 0.94705 0.63195 0.77917 0.0
C250 C 0.89473 0.5825 0.75161 0.0
C251 C 0.87286 0.55776 0.73827 0.0
C252 C 0.89488 0.92246 0.26564 0.0
C253 C 0.87299 0.9472 0.27892 0.0
C254 C 0.92248 0.89488 0.25144 0.0
C255 C 0.94723 0.87302 0.23813 0.0
C256 C 0.59251 0.33026 0.23577 0.0
C257 C 0.58309 0.30136 0.21524 0.0
C258 C 0.60961 0.36044 0.26161 0.0
C259 C 0.62891 0.38249 0.28428 0.0
C260 C 0.17467 0.59272 0.73574 0.0
C261 C 0.20359 0.5833 0.71524 0.0
C262 C 0.14447 0.60982 0.76154 0.0
C263 C 0.1224 0.62911 0.78419 0.0
C264 C 0.89522 0.1446 0.26137 0.0
C265 C 0.87592 0.12251 0.28397 0.0
C266 C 0.91231 0.17485 0.23562 0.0
C267 C 0.92171 0.20379 0.21517 0.0
C268 C 0.32999 0.91227 0.73581 0.0
C269 C 0.30107 0.9217 0.71532 0.0
C270 C 0.36021 0.89516 0.76159 0.0
C271 C 0.38231 0.87587 0.78419 0.0
C272 C 0.59242 0.17482 0.78119 0.0
C273 C 0.58298 0.20371 0.80172 0.0
C274 C 0.60953 0.14464 0.75537 0.0
C275 C 0.62884 0.12259 0.73271 0.0
C276 C 0.36044 0.60971 0.25525 0.0
C277 C 0.38251 0.62901 0.23262 0.0
C278 C 0.33023 0.5926 0.28105 0.0
C279 C 0.30132 0.58318 0.30157 0.0
C280 C 0.89509 0.36036 0.75567 0.0
C281 C 0.87579 0.38245 0.73306 0.0
C282 C 0.91219 0.33013 0.78143 0.0
C283 C 0.9216 0.3012 0.80189 0.0
C284 C 0.1447 0.89518 0.25562 0.0
C285 C 0.12261 0.87591 0.23298 0.0
C286 C 0.17493 0.91225 0.28142 0.0
C287 C 0.20386 0.92165 0.3019 0.0
C288 C 0.395 0.64468 0.75544 0.0
C289 C 0.3757 0.62261 0.73281 0.0
C290 C 0.41212 0.67489 0.78122 0.0
C291 C 0.42157 0.70379 0.80171 0.0
C292 C 0.86017 0.39505 0.25576 0.0
C293 C 0.88225 0.37581 0.23307 0.0
C294 C 0.82995 0.41212 0.28158 0.0
C295 C 0.80104 0.42155 0.30208 0.0
C296 C 0.09257 0.83012 0.7813 0.0
C297 C 0.08315 0.80121 0.8018 0.0
C298 C 0.10966 0.86033 0.75551 0.0
C299 C 0.12895 0.88242 0.73288 0.0
C300 C 0.64468 0.10999 0.25513 0.0
C301 C 0.62258 0.1293 0.23254 0.0
C302 C 0.67489 0.09285 0.2809 0.0
C303 C 0.70378 0.08339 0.3014 0.0
C304 C 0.41224 0.83001 0.23559 0.0
C305 C 0.42167 0.80112 0.21506 0.0
C306 C 0.39517 0.8602 0.26143 0.0
C307 C 0.37591 0.88227 0.28412 0.0
C308 C 0.67473 0.41216 0.73596 0.0
C309 C 0.70365 0.42161 0.71548 0.0
C310 C 0.64451 0.39504 0.76172 0.0
C311 C 0.6224 0.37575 0.78432 0.0
C312 C 0.10994 0.64469 0.26151 0.0
C313 C 0.12923 0.6226 0.28412 0.0
C314 C 0.09283 0.67492 0.23575 0.0
C315 C 0.08339 0.70384 0.21529 0.0
C316 C 0.8601 0.10992 0.76147 0.0
C317 C 0.88219 0.12917 0.78414 0.0
C318 C 0.82989 0.09285 0.73564 0.0
C319 C 0.80099 0.08343 0.71512 0.0
C320 C 0.50498 0.24535 0.03123 0.0
C321 C 0.50681 0.23259 0.06977 0.0
C322 C 0.50497 0.2597 0.9858 0.0
C323 C 0.50677 0.27247 0.94726 0.0
C324 C 0.2453 0.50536 0.48572 0.0
C325 C 0.23252 0.50713 0.44719 0.0
C326 C 0.25966 0.50538 0.53115 0.0
C327 C 0.27242 0.50718 0.56968 0.0
C328 C 0.99933 0.25979 0.03121 0.0
C329 C 0.99758 0.27263 0.06971 0.0
C330 C 0.99933 0.24531 0.98583 0.0
C331 C 0.99757 0.23245 0.94734 0.0
C332 C 0.25983 0.99939 0.48593 0.0
C333 C 0.27267 0.99759 0.44743 0.0
C334 C 0.24534 0.99944 0.53131 0.0
C335 C 0.23247 0.99771 0.5698 0.0
C336 C 0.49966 0.75967 0.98564 0.0
C337 C 0.49785 0.77248 0.94712 0.0
C338 C 0.49967 0.74526 0.03105 0.0
C339 C 0.4979 0.73246 0.06956 0.0
C340 C 0.75949 0.49951 0.53146 0.0
C341 C 0.77232 0.49775 0.56997 0.0
C342 C 0.74508 0.49949 0.48605 0.0
C343 C 0.73228 0.49772 0.44753 0.0
C344 C 0.00546 0.75977 0.0313 0.0
C345 C 0.00725 0.77258 0.06981 0.0
C346 C 0.00542 0.74534 0.9859 0.0
C347 C 0.00715 0.73252 0.94739 0.0
C348 C 0.74508 0.00559 0.53098 0.0
C349 C 0.73227 0.00737 0.5695 0.0
C350 C 0.7595 0.00555 0.48558 0.0
C351 C 0.77233 0.00729 0.44707 0.0
loop_
_geom_bond_atom_site_label_1
_geom_bond_atom_site_label_2
_geom_bond_distance
_geom_bond_site_symmetry_2
_ccdc_geom_bond_type
Co0 O1 2.216 . S
Co0 O2 2.091 . S
Co0 O4 2.004 . S
Co0 O10 2.021 . S
Co0 O12 2.137 . S
Co0 O13 2.244 . S
O1 Co0 2.216 . S
O1 C8 1.247 . S
O2 Co0 2.091 . S
O2 C8 1.261 . S
C3 O12 1.247 . S
C3 O13 1.272 . S
O4 Co0 2.004 . S
O4 C9 1.259 . S
Co5 O6 2.061 . S
Co5 O11 2.052 . S
Co5 O13 2.135 . S
O6 Co5 2.061 . S
O6 C9 1.235 . S
C7 O10 1.238 . S
C7 O11 1.241 . S
C8 O1 1.247 . S
C8 O2 1.261 . S
C9 O4 1.259 . S
C9 O6 1.235 . S
O10 Co0 2.021 . S
O10 C7 1.238 . S
O11 Co5 2.052 . S
O11 C7 1.241 . S
O12 Co0 2.137 . S
O12 C3 1.247 . S
O13 Co0 2.244 . S
O13 C3 1.272 . S
O13 Co5 2.135 . S
Co14 O15 2.216 . S
Co14 O16 2.091 . S
Co14 O18 2.004 . S
Co14 O24 2.021 . S
Co14 O26 2.137 . S
Co14 O27 2.244 . S
O15 Co14 2.216 . S
O15 C22 1.247 . S
O16 Co14 2.091 . S
O16 C22 1.261 . S
C17 O26 1.247 . S
C17 O27 1.272 . S
O18 Co14 2.004 . S
O18 C23 1.259 . S
Co19 O20 2.061 . S
Co19 O25 2.052 . S
Co19 O27 2.135 . S
O20 Co19 2.061 . S
O20 C23 1.235 . S
C21 O24 1.238 . S
C21 O25 1.241 . S
C22 O15 1.247 . S
C22 O16 1.261 . S
C23 O18 1.259 . S
C23 O20 1.235 . S
O24 Co14 2.021 . S
O24 C21 1.238 . S
O25 Co19 2.052 . S
O25 C21 1.241 . S
O26 Co14 2.137 . S
O26 C17 1.247 . S
O27 Co14 2.244 . S
O27 C17 1.272 . S
O27 Co19 2.135 . S
Co28 O29 2.216 1_655 S
Co28 O30 2.091 1_655 S
Co28 O32 2.004 . S
Co28 O38 2.021 . S
Co28 O40 2.137 1_655 S
Co28 O41 2.244 . S
O29 Co28 2.216 1_455 S
O29 C36 1.247 . S
O30 Co28 2.091 1_455 S
O30 C36 1.261 . S
C31 O40 1.247 1_655 S
C31 O41 1.272 . S
O32 Co28 2.004 . S
O32 C37 1.259 . S
Co33 O34 2.061 . S
Co33 O39 2.052 . S
Co33 O41 2.135 . S
O34 Co33 2.061 . S
O34 C37 1.235 . S
C35 O38 1.238 . S
C35 O39 1.241 . S
C36 O29 1.247 . S
C36 O30 1.261 . S
C37 O32 1.259 . S
C37 O34 1.235 . S
O38 Co28 2.021 . S
O38 C35 1.238 . S
O39 Co33 2.052 . S
O39 C35 1.241 . S
O40 Co28 2.137 1_455 S
O40 C31 1.247 1_455 S
O41 Co28 2.244 . S
O41 C31 1.272 . S
O41 Co33 2.135 . S
Co42 O43 2.216 1_565 S
Co42 O44 2.091 1_565 S
Co42 O46 2.004 . S
Co42 O52 2.021 . S
Co42 O54 2.137 1_565 S
Co42 O55 2.244 . S
O43 Co42 2.216 1_545 S
O43 C50 1.247 . S
O44 Co42 2.091 1_545 S
O44 C50 1.261 . S
C45 O54 1.247 1_565 S
C45 O55 1.272 . S
O46 Co42 2.004 . S
O46 C51 1.259 . S
Co47 O48 2.061 . S
Co47 O53 2.052 . S
Co47 O55 2.135 . S
O48 Co47 2.061 . S
O48 C51 1.235 . S
C49 O52 1.238 . S
C49 O53 1.241 . S
C50 O43 1.247 . S
C50 O44 1.261 . S
C51 O46 1.259 . S
C51 O48 1.235 . S
O52 Co42 2.021 . S
O52 C49 1.238 . S
O53 Co47 2.052 . S
O53 C49 1.241 . S
O54 Co42 2.137 1_545 S
O54 C45 1.247 1_545 S
O55 Co42 2.244 . S
O55 C45 1.272 . S
O55 Co47 2.135 . S
Co56 O57 2.216 . S
Co56 O58 2.091 . S
Co56 O60 2.004 . S
Co56 O66 2.021 . S
Co56 O68 2.137 . S
Co56 O69 2.244 . S
O57 Co56 2.216 . S
O57 C64 1.247 . S
O58 Co56 2.091 . S
O58 C64 1.261 . S
C59 O68 1.247 . S
C59 O69 1.272 . S
O60 Co56 2.004 . S
O60 C65 1.259 . S
Co61 O62 2.061 . S
Co61 O67 2.052 . S
Co61 O69 2.135 . S
O62 Co61 2.061 . S
O62 C65 1.235 . S
C63 O66 1.238 . S
C63 O67 1.241 . S
C64 O57 1.247 . S
C64 O58 1.261 . S
C65 O60 1.259 . S
C65 O62 1.235 . S
O66 Co56 2.021 . S
O66 C63 1.238 . S
O67 Co61 2.052 . S
O67 C63 1.241 . S
O68 Co56 2.137 . S
O68 C59 1.247 . S
O69 Co56 2.244 . S
O69 C59 1.272 . S
O69 Co61 2.135 . S
Co70 O71 2.216 . S
Co70 O72 2.091 . S
Co70 O74 2.004 . S
Co70 O80 2.021 . S
Co70 O82 2.137 . S
Co70 O83 2.244 . S
O71 Co70 2.216 . S
O71 C78 1.247 . S
O72 Co70 2.091 . S
O72 C78 1.261 . S
C73 O82 1.247 . S
C73 O83 1.272 . S
O74 Co70 2.004 . S
O74 C79 1.259 . S
Co75 O76 2.061 . S
Co75 O81 2.052 . S
Co75 O83 2.135 . S
O76 Co75 2.061 . S
O76 C79 1.235 . S
C77 O80 1.238 . S
C77 O81 1.241 . S
C78 O71 1.247 . S
C78 O72 1.261 . S
C79 O74 1.259 . S
C79 O76 1.235 . S
O80 Co70 2.021 . S
O80 C77 1.238 . S
O81 Co75 2.052 . S
O81 C77 1.241 . S
O82 Co70 2.137 . S
O82 C73 1.247 . S
O83 Co70 2.244 . S
O83 C73 1.272 . S
O83 Co75 2.135 . S
Co84 O85 2.216 1_655 S
Co84 O86 2.091 1_655 S
Co84 O88 2.004 . S
Co84 O94 2.021 . S
Co84 O96 2.137 1_655 S
Co84 O97 2.244 . S
O85 Co84 2.216 1_455 S
O85 C92 1.247 . S
O86 Co84 2.091 1_455 S
O86 C92 1.261 . S
C87 O96 1.247 1_655 S
C87 O97 1.272 . S
O88 Co84 2.004 . S
O88 C93 1.259 . S
Co89 O90 2.061 . S
Co89 O95 2.052 . S
Co89 O97 2.135 . S
O90 Co89 2.061 . S
O90 C93 1.235 . S
C91 O94 1.238 . S
C91 O95 1.241 . S
C92 O85 1.247 . S
C92 O86 1.261 . S
C93 O88 1.259 . S
C93 O90 1.235 . S
O94 Co84 2.021 . S
O94 C91 1.238 . S
O95 Co89 2.052 . S
O95 C91 1.241 . S
O96 Co84 2.137 1_455 S
O96 C87 1.247 1_455 S
O97 Co84 2.244 . S
O97 C87 1.272 . S
O97 Co89 2.135 . S
Co98 O99 2.216 1_565 S
Co98 O100 2.091 1_565 S
Co98 O102 2.004 . S
Co98 O108 2.021 . S
Co98 O110 2.137 1_565 S
Co98 O111 2.244 . S
O99 Co98 2.216 1_545 S
O99 C106 1.247 . S
O100 Co98 2.091 1_545 S
O100 C106 1.261 . S
C101 O110 1.247 1_565 S
C101 O111 1.272 . S
O102 Co98 2.004 . S
O102 C107 1.259 . S
Co103 O104 2.061 . S
Co103 O109 2.052 . S
Co103 O111 2.135 . S
O104 Co103 2.061 . S
O104 C107 1.235 . S
C105 O108 1.238 . S
C105 O109 1.241 . S
C106 O99 1.247 . S
C106 O100 1.261 . S
C107 O102 1.259 . S
C107 O104 1.235 . S
O108 Co98 2.021 . S
O108 C105 1.238 . S
O109 Co103 2.052 . S
O109 C105 1.241 . S
O110 Co98 2.137 1_545 S
O110 C101 1.247 1_545 S
O111 Co98 2.244 . S
O111 C101 1.272 . S
O111 Co103 2.135 . S
Co112 O113 2.216 . S
Co112 O114 2.091 . S
Co112 O116 2.004 . S
Co112 O122 2.021 . S
Co112 O124 2.137 . S
Co112 O125 2.244 . S
O113 Co112 2.216 . S
O113 C120 1.247 . S
O114 Co112 2.091 . S
O114 C120 1.261 . S
C115 O124 1.247 . S
C115 O125 1.272 . S
O116 Co112 2.004 . S
O116 C121 1.259 . S
Co117 O118 2.061 . S
Co117 O123 2.052 . S
Co117 O125 2.135 . S
O118 Co117 2.061 . S
O118 C121 1.235 . S
C119 O122 1.238 . S
C119 O123 1.241 . S
C120 O113 1.247 . S
C120 O114 1.261 . S
C121 O116 1.259 . S
C121 O118 1.235 . S
O122 Co112 2.021 . S
O122 C119 1.238 . S
O123 Co117 2.052 . S
O123 C119 1.241 . S
O124 Co112 2.137 . S
O124 C115 1.247 . S
O125 Co112 2.244 . S
O125 C115 1.272 . S
O125 Co117 2.135 . S
Co126 O127 2.216 . S
Co126 O128 2.091 . S
Co126 O130 2.004 . S
Co126 O136 2.021 . S
Co126 O138 2.137 . S
Co126 O139 2.244 . S
O127 Co126 2.216 . S
O127 C134 1.247 . S
O128 Co126 2.091 . S
O128 C134 1.261 . S
C129 O138 1.247 . S
C129 O139 1.272 . S
O130 Co126 2.004 . S
O130 C135 1.259 . S
Co131 O132 2.061 . S
Co131 O137 2.052 . S
Co131 O139 2.135 . S
O132 Co131 2.061 . S
O132 C135 1.235 . S
C133 O136 1.238 . S
C133 O137 1.241 . S
C134 O127 1.247 . S
C134 O128 1.261 . S
C135 O130 1.259 . S
C135 O132 1.235 . S
O136 Co126 2.021 . S
O136 C133 1.238 . S
O137 Co131 2.052 . S
O137 C133 1.241 . S
O138 Co126 2.137 . S
O138 C129 1.247 . S
O139 Co126 2.244 . S
O139 C129 1.272 . S
O139 Co131 2.135 . S
Co140 O141 2.216 1_455 S
Co140 O142 2.091 1_455 S
Co140 O144 2.004 . S
Co140 O150 2.021 . S
Co140 O152 2.137 1_455 S
Co140 O153 2.244 . S
O141 Co140 2.216 1_655 S
O141 C148 1.247 . S
O142 Co140 2.091 1_655 S
O142 C148 1.261 . S
C143 O152 1.247 1_455 S
C143 O153 1.272 . S
O144 Co140 2.004 . S
O144 C149 1.259 . S
Co145 O146 2.061 . S
Co145 O151 2.052 . S
Co145 O153 2.135 . S
O146 Co145 2.061 . S
O146 C149 1.235 . S
C147 O150 1.238 . S
C147 O151 1.241 . S
C148 O141 1.247 . S
C148 O142 1.261 . S
C149 O144 1.259 . S
C149 O146 1.235 . S
O150 Co140 2.021 . S
O150 C147 1.238 . S
O151 Co145 2.052 . S
O151 C147 1.241 . S
O152 Co140 2.137 1_655 S
O152 C143 1.247 1_655 S
O153 Co140 2.244 . S
O153 C143 1.272 . S
O153 Co145 2.135 . S
Co154 O155 2.216 1_545 S
Co154 O156 2.091 1_545 S
Co154 O158 2.004 . S
Co154 O164 2.021 . S
Co154 O166 2.137 1_545 S
Co154 O167 2.244 . S
O155 Co154 2.216 1_565 S
O155 C162 1.247 . S
O156 Co154 2.091 1_565 S
O156 C162 1.261 . S
C157 O166 1.247 1_545 S
C157 O167 1.272 . S
O158 Co154 2.004 . S
O158 C163 1.259 . S
Co159 O160 2.061 . S
Co159 O165 2.052 . S
Co159 O167 2.135 . S
O160 Co159 2.061 . S
O160 C163 1.235 . S
C161 O164 1.238 . S
C161 O165 1.241 . S
C162 O155 1.247 . S
C162 O156 1.261 . S
C163 O158 1.259 . S
C163 O160 1.235 . S
O164 Co154 2.021 . S
O164 C161 1.238 . S
O165 Co159 2.052 . S
O165 C161 1.241 . S
O166 Co154 2.137 1_565 S
O166 C157 1.247 1_565 S
O167 Co154 2.244 . S
O167 C157 1.272 . S
O167 Co159 2.135 . S
Co168 O169 2.216 . S
Co168 O170 2.091 . S
Co168 O172 2.004 . S
Co168 O178 2.021 . S
Co168 O180 2.137 . S
Co168 O181 2.244 . S
O169 Co168 2.216 . S
O169 C176 1.247 . S
O170 Co168 2.091 . S
O170 C176 1.261 . S
C171 O180 1.247 . S
C171 O181 1.272 . S
O172 Co168 2.004 . S
O172 C177 1.259 . S
Co173 O174 2.061 . S
Co173 O179 2.052 . S
Co173 O181 2.135 . S
O174 Co173 2.061 . S
O174 C177 1.235 . S
C175 O178 1.238 . S
C175 O179 1.241 . S
C176 O169 1.247 . S
C176 O170 1.261 . S
C177 O172 1.259 . S
C177 O174 1.235 . S
O178 Co168 2.021 . S
O178 C175 1.238 . S
O179 Co173 2.052 . S
O179 C175 1.241 . S
O180 Co168 2.137 . S
O180 C171 1.247 . S
O181 Co168 2.244 . S
O181 C171 1.272 . S
O181 Co173 2.135 . S
Co182 O183 2.216 . S
Co182 O184 2.091 . S
Co182 O186 2.004 . S
Co182 O192 2.021 . S
Co182 O194 2.137 . S
Co182 O195 2.244 . S
O183 Co182 2.216 . S
O183 C190 1.247 . S
O184 Co182 2.091 . S
O184 C190 1.261 . S
C185 O194 1.247 . S
C185 O195 1.272 . S
O186 Co182 2.004 . S
O186 C191 1.259 . S
Co187 O188 2.061 . S
Co187 O193 2.052 . S
Co187 O195 2.135 . S
O188 Co187 2.061 . S
O188 C191 1.235 . S
C189 O192 1.238 . S
C189 O193 1.241 . S
C190 O183 1.247 . S
C190 O184 1.261 . S
C191 O186 1.259 . S
C191 O188 1.235 . S
O192 Co182 2.021 . S
O192 C189 1.238 . S
O193 Co187 2.052 . S
O193 C189 1.241 . S
O194 Co182 2.137 . S
O194 C185 1.247 . S
O195 Co182 2.244 . S
O195 C185 1.272 . S
O195 Co187 2.135 . S
Co196 O197 2.216 1_455 S
Co196 O198 2.091 1_455 S
Co196 O200 2.004 . S
Co196 O206 2.021 . S
Co196 O208 2.137 1_455 S
Co196 O209 2.244 . S
O197 Co196 2.216 1_655 S
O197 C204 1.247 . S
O198 Co196 2.091 1_655 S
O198 C204 1.261 . S
C199 O208 1.247 1_455 S
C199 O209 1.272 . S
O200 Co196 2.004 . S
O200 C205 1.259 . S
Co201 O202 2.061 . S
Co201 O207 2.052 . S
Co201 O209 2.135 . S
O202 Co201 2.061 . S
O202 C205 1.235 . S
C203 O206 1.238 . S
C203 O207 1.241 . S
C204 O197 1.247 . S
C204 O198 1.261 . S
C205 O200 1.259 . S
C205 O202 1.235 . S
O206 Co196 2.021 . S
O206 C203 1.238 . S
O207 Co201 2.052 . S
O207 C203 1.241 . S
O208 Co196 2.137 1_655 S
O208 C199 1.247 1_655 S
O209 Co196 2.244 . S
O209 C199 1.272 . S
O209 Co201 2.135 . S
Co210 O211 2.216 1_545 S
Co210 O212 2.091 1_545 S
Co210 O214 2.004 . S
Co210 O220 2.021 . S
Co210 O222 2.137 1_545 S
Co210 O223 2.244 . S
O211 Co210 2.216 1_565 S
O211 C218 1.247 . S
O212 Co210 2.091 1_565 S
O212 C218 1.261 . S
C213 O222 1.247 1_545 S
C213 O223 1.272 . S
O214 Co210 2.004 . S
O214 C219 1.259 . S
Co215 O216 2.061 . S
Co215 O221 2.052 . S
Co215 O223 2.135 . S
O216 Co215 2.061 . S
O216 C219 1.235 . S
C217 O220 1.238 . S
C217 O221 1.241 . S
C218 O211 1.247 . S
C218 O212 1.261 . S
C219 O214 1.259 . S
C219 O216 1.235 . S
O220 Co210 2.021 . S
O220 C217 1.238 . S
O221 Co215 2.052 . S
O221 C217 1.241 . S
O222 Co210 2.137 1_565 S
O222 C213 1.247 1_565 S
O223 Co210 2.244 . S
O223 C213 1.272 . S
O223 Co215 2.135 . S
C224 C225 1.170 . S
C224 C226 1.380 . S
C225 C224 1.170 . S
C226 C224 1.380 . S
C226 C227 1.170 . S
C227 C226 1.170 . S
C228 C229 1.170 . S
C228 C230 1.380 . S
C229 C228 1.170 . S
C230 C228 1.380 . S
C230 C231 1.170 . S
C231 C230 1.170 . S
C232 C233 1.170 . S
C232 C234 1.380 . S
C233 C232 1.170 . S
C234 C232 1.380 . S
C234 C235 1.170 . S
C235 C234 1.170 . S
C236 C237 1.170 . S
C236 C238 1.380 . S
C237 C236 1.170 . S
C238 C236 1.380 . S
C238 C239 1.170 . S
C239 C238 1.170 . S
C240 C241 1.170 . S
C240 C242 1.380 . S
C241 C240 1.170 . S
C242 C240 1.380 . S
C242 C243 1.170 . S
C243 C242 1.170 . S
C244 C245 1.170 . S
C244 C246 1.380 . S
C245 C244 1.170 . S
C246 C244 1.380 . S
C246 C247 1.170 . S
C247 C246 1.170 . S
C248 C249 1.170 . S
C248 C250 1.380 . S
C249 C248 1.170 . S
C250 C248 1.380 . S
C250 C251 1.170 . S
C251 C250 1.170 . S
C252 C253 1.170 . S
C252 C254 1.380 . S
C253 C252 1.170 . S
C254 C252 1.380 . S
C254 C255 1.170 . S
C255 C254 1.170 . S
C256 C257 1.170 . S
C256 C258 1.380 . S
C257 C256 1.170 . S
C258 C256 1.380 . S
C258 C259 1.170 . S
C259 C258 1.170 . S
C260 C261 1.170 . S
C260 C262 1.380 . S
C261 C260 1.170 . S
C262 C260 1.380 . S
C262 C263 1.170 . S
C263 C262 1.170 . S
C264 C265 1.170 . S
C264 C266 1.380 . S
C265 C264 1.170 . S
C266 C264 1.380 . S
C266 C267 1.170 . S
C267 C266 1.170 . S
C268 C269 1.170 . S
C268 C270 1.380 . S
C269 C268 1.170 . S
C270 C268 1.380 . S
C270 C271 1.170 . S
C271 C270 1.170 . S
C272 C273 1.170 . S
C272 C274 1.380 . S
C273 C272 1.170 . S
C274 C272 1.380 . S
C274 C275 1.170 . S
C275 C274 1.170 . S
C276 C277 1.170 . S
C276 C278 1.380 . S
C277 C276 1.170 . S
C278 C276 1.380 . S
C278 C279 1.170 . S
C279 C278 1.170 . S
C280 C281 1.170 . S
C280 C282 1.380 . S
C281 C280 1.170 . S
C282 C280 1.380 . S
C282 C283 1.170 . S
C283 C282 1.170 . S
C284 C285 1.170 . S
C284 C286 1.380 . S
C285 C284 1.170 . S
C286 C284 1.380 . S
C286 C287 1.170 . S
C287 C286 1.170 . S
C288 C289 1.170 . S
C288 C290 1.380 . S
C289 C288 1.170 . S
C290 C288 1.380 . S
C290 C291 1.170 . S
C291 C290 1.170 . S
C292 C293 1.170 . S
C292 C294 1.380 . S
C293 C292 1.170 . S
C294 C292 1.380 . S
C294 C295 1.170 . S
C295 C294 1.170 . S
C296 C297 1.170 . S
C296 C298 1.380 . S
C297 C296 1.170 . S
C298 C296 1.380 . S
C298 C299 1.170 . S
C299 C298 1.170 . S
C300 C301 1.170 . S
C300 C302 1.380 . S
C301 C300 1.170 . S
C302 C300 1.380 . S
C302 C303 1.170 . S
C303 C302 1.170 . S
C304 C305 1.170 . S
C304 C306 1.380 . S
C305 C304 1.170 . S
C306 C304 1.380 . S
C306 C307 1.170 . S
C307 C306 1.170 . S
C308 C309 1.170 . S
C308 C310 1.380 . S
C309 C308 1.170 . S
C310 C308 1.380 . S
C310 C311 1.170 . S
C311 C310 1.170 . S
C312 C313 1.170 . S
C312 C314 1.380 . S
C313 C312 1.170 . S
C314 C312 1.380 . S
C314 C315 1.170 . S
C315 C314 1.170 . S
C316 C317 1.170 . S
C316 C318 1.380 . S
C317 C316 1.170 . S
C318 C316 1.380 . S
C318 C319 1.170 . S
C319 C318 1.170 . S
C320 C321 1.170 . S
C320 C322 1.380 1_554 S
C321 C320 1.170 . S
C322 C320 1.380 1_556 S
C322 C323 1.170 . S
C323 C322 1.170 . S
C324 C325 1.170 . S
C324 C326 1.380 . S
C325 C324 1.170 . S
C326 C324 1.380 . S
C326 C327 1.170 . S
C327 C326 1.170 . S
C328 C329 1.170 . S
C328 C330 1.380 1_554 S
C329 C328 1.170 . S
C330 C328 1.380 1_556 S
C330 C331 1.170 . S
C331 C330 1.170 . S
C332 C333 1.170 . S
C332 C334 1.380 . S
C333 C332 1.170 . S
C334 C332 1.380 . S
C334 C335 1.170 . S
C335 C334 1.170 . S
C336 C337 1.170 . S
C336 C338 1.380 1_556 S
C337 C336 1.170 . S
C338 C336 1.380 1_554 S
C338 C339 1.170 . S
C339 C338 1.170 . S
C340 C341 1.170 . S
C340 C342 1.380 . S
C341 C340 1.170 . S
C342 C340 1.380 . S
C342 C343 1.170 . S
C343 C342 1.170 . S
C344 C345 1.170 . S
C344 C346 1.380 1_554 S
C345 C344 1.170 . S
C346 C344 1.380 1_556 S
C346 C347 1.170 . S
C347 C346 1.170 . S
C348 C349 1.170 . S
C348 C350 1.380 . S
C349 C348 1.170 . S
C350 C348 1.380 . S
C350 C351 1.170 . S
C351 C350 1.170 . S
C225 C8 1.365 . S
C227 C106 1.366 . S
C229 C22 1.370 . S
C231 C64 1.369 . S
C233 C36 1.365 . S
C235 C78 1.366 . S
C237 C50 1.366 . S
C239 C92 1.367 . S
C241 C120 1.364 . S
C243 C218 1.368 . S
C245 C176 1.371 . S
C247 C134 1.373 . S
C249 C148 1.374 . S
C251 C190 1.370 . S
C253 C162 1.372 . S
C255 C204 1.372 . S
C257 C9 1.446 . S
C259 C133 1.481 . S
C261 C23 1.453 . S
C263 C147 1.463 . S
C265 C161 1.468 . S
C267 C37 1.423 . S
C269 C51 1.421 . S
C271 C119 1.466 . S
C273 C65 1.438 . S
C275 C217 1.451 . S
C277 C175 1.474 . S
C279 C79 1.460 . S
C281 C189 1.481 . S
C283 C93 1.446 . S
C285 C203 1.448 . S
C287 C107 1.422 . S
C289 C21 1.458 . S
C291 C121 1.424 . S
C293 C35 1.457 . S
C295 C135 1.426 . S
C297 C149 1.443 . S
C299 C49 1.477 . S
C301 C7 1.462 . S
C303 C163 1.421 . S
C305 C177 1.427 . S
C307 C105 1.482 . S
C309 C191 1.441 . S
C311 C63 1.449 . S
C313 C77 1.450 . S
C315 C205 1.436 . S
C317 C91 1.466 . S
C319 C219 1.418 . S
C321 C3 1.602 . S
C323 C59 1.602 . S
C325 C73 1.599 . S
C327 C17 1.598 . S
C329 C31 1.595 . S
C331 C87 1.595 . S
C333 C101 1.601 . S
C335 C45 1.602 . S
C337 C115 1.602 . S
C339 C171 1.598 . S
C341 C185 1.602 . S
C343 C129 1.599 . S
C345 C199 1.596 . S
C347 C143 1.601 . S
C349 C213 1.595 . S
C351 C157 1.598 . S
