# Generated by pormake.
# Topology zfw, (5)-cn, num edge types: 1
# Building blocks:
#     Node 0, Type 0, BuildingBlock: XOMCOT_clean_sbu_1, # of connection points: 5
#     Node 1, Type 0, BuildingBlock: XOMCOT_clean_sbu_1, # of connection points: 5
#     Node 2, Type 0, BuildingBlock: XOMCOT_clean_sbu_1, # of connection points: 5
#     Node 3, Type 0, BuildingBlock: XOMCOT_clean_sbu_1, # of connection points: 5
#     Node 4, Type 0, BuildingBlock: XOMCOT_clean_sbu_1, # of connection points: 5
#     Node 5, Type 0, BuildingBlock: XOMCOT_clean_sbu_1, # of connection points: 5
#     Node 6, Type 0, BuildingBlock: XOMCOT_clean_sbu_1, # of connection points: 5
#     Node 7, Type 0, BuildingBlock: XOMCOT_clean_sbu_1, # of connection points: 5
#     Node 8, Type 0, BuildingBlock: XOMCOT_clean_sbu_1, # of connection points: 5
#     Node 9, Type 0, BuildingBlock: XOMCOT_clean_sbu_1, # of connection points: 5
#     Node 10, Type 0, BuildingBlock: XOMCOT_clean_sbu_1, # of connection points: 5
#     Node 11, Type 0, BuildingBlock: XOMCOT_clean_sbu_1, # of connection points: 5
#     Node 12, Type 0, BuildingBlock: XOMCOT_clean_sbu_1, # of connection points: 5
#     Node 13, Type 0, BuildingBlock: XOMCOT_clean_sbu_1, # of connection points: 5
#     Node 14, Type 0, BuildingBlock: XOMCOT_clean_sbu_1, # of connection points: 5
#     Node 15, Type 0, BuildingBlock: XOMCOT_clean_sbu_1, # of connection points: 5
#     Edge 16, Type (0, 0), BuildingBlock: KIFKEQ_clean_linker_1, # of connection points: 2
#     Edge 17, Type (0, 0), BuildingBlock: KIFKEQ_clean_linker_1, # of connection points: 2
#     Edge 18, Type (0, 0), BuildingBlock: KIFKEQ_clean_linker_1, # of connection points: 2
#     Edge 19, Type (0, 0), BuildingBlock: KIFKEQ_clean_linker_1, # of connection points: 2
#     Edge 20, Type (0, 0), BuildingBlock: KIFKEQ_clean_linker_1, # of connection points: 2
#     Edge 21, Type (0, 0), BuildingBlock: KIFKEQ_clean_linker_1, # of connection points: 2
#     Edge 22, Type (0, 0), BuildingBlock: KIFKEQ_clean_linker_1, # of connection points: 2
#     Edge 23, Type (0, 0), BuildingBlock: KIFKEQ_clean_linker_1, # of connection points: 2
#     Edge 24, Type (0, 0), BuildingBlock: KIFKEQ_clean_linker_1, # of connection points: 2
#     Edge 25, Type (0, 0), BuildingBlock: KIFKEQ_clean_linker_1, # of connection points: 2
#     Edge 26, Type (0, 0), BuildingBlock: KIFKEQ_clean_linker_1, # of connection points: 2
#     Edge 27, Type (0, 0), BuildingBlock: KIFKEQ_clean_linker_1, # of connection points: 2
#     Edge 28, Type (0, 0), BuildingBlock: KIFKEQ_clean_linker_1, # of connection points: 2
#     Edge 29, Type (0, 0), BuildingBlock: KIFKEQ_clean_linker_1, # of connection points: 2
#     Edge 30, Type (0, 0), BuildingBlock: KIFKEQ_clean_linker_1, # of connection points: 2
#     Edge 31, Type (0, 0), BuildingBlock: KIFKEQ_clean_linker_1, # of connection points: 2
#     Edge 32, Type (0, 0), BuildingBlock: KIFKEQ_clean_linker_1, # of connection points: 2
#     Edge 33, Type (0, 0), BuildingBlock: KIFKEQ_clean_linker_1, # of connection points: 2
#     Edge 34, Type (0, 0), BuildingBlock: KIFKEQ_clean_linker_1, # of connection points: 2
#     Edge 35, Type (0, 0), BuildingBlock: KIFKEQ_clean_linker_1, # of connection points: 2
#     Edge 36, Type (0, 0), BuildingBlock: KIFKEQ_clean_linker_1, # of connection points: 2
#     Edge 37, Type (0, 0), BuildingBlock: KIFKEQ_clean_linker_1, # of connection points: 2
#     Edge 38, Type (0, 0), BuildingBlock: KIFKEQ_clean_linker_1, # of connection points: 2
#     Edge 39, Type (0, 0), BuildingBlock: KIFKEQ_clean_linker_1, # of connection points: 2
#     Edge 40, Type (0, 0), BuildingBlock: KIFKEQ_clean_linker_1, # of connection points: 2
#     Edge 41, Type (0, 0), BuildingBlock: KIFKEQ_clean_linker_1, # of connection points: 2
#     Edge 42, Type (0, 0), BuildingBlock: KIFKEQ_clean_linker_1, # of connection points: 2
#     Edge 43, Type (0, 0), BuildingBlock: KIFKEQ_clean_linker_1, # of connection points: 2
#     Edge 44, Type (0, 0), BuildingBlock: KIFKEQ_clean_linker_1, # of connection points: 2
#     Edge 45, Type (0, 0), BuildingBlock: KIFKEQ_clean_linker_1, # of connection points: 2
#     Edge 46, Type (0, 0), BuildingBlock: KIFKEQ_clean_linker_1, # of connection points: 2
#     Edge 47, Type (0, 0), BuildingBlock: KIFKEQ_clean_linker_1, # of connection points: 2
#     Edge 48, Type (0, 0), BuildingBlock: KIFKEQ_clean_linker_1, # of connection points: 2
#     Edge 49, Type (0, 0), BuildingBlock: KIFKEQ_clean_linker_1, # of connection points: 2
#     Edge 50, Type (0, 0), BuildingBlock: KIFKEQ_clean_linker_1, # of connection points: 2
#     Edge 51, Type (0, 0), BuildingBlock: KIFKEQ_clean_linker_1, # of connection points: 2
#     Edge 52, Type (0, 0), BuildingBlock: KIFKEQ_clean_linker_1, # of connection points: 2
#     Edge 53, Type (0, 0), BuildingBlock: KIFKEQ_clean_linker_1, # of connection points: 2
#     Edge 54, Type (0, 0), BuildingBlock: KIFKEQ_clean_linker_1, # of connection points: 2
#     Edge 55, Type (0, 0), BuildingBlock: KIFKEQ_clean_linker_1, # of connection points: 2
# Relax obj value: 0.245
# Max RMSD: 0.199
# Mean RMSD: 0.187
data_MOF--net-zfw--node1-XOMCOT_clean_sbu_1--edge1-KIFKEQ_clean_linker_1
_symmetry_space_group_name_H-M    P1
_symmetry_Int_Tables_number       1
_symmetry_cell_setting            triclinic
loop_
_symmetry_equiv_pos_as_xyz
'x, y, z'
_cell_length_a     71.741188
_cell_length_b     71.136304
_cell_length_c     17.275141
_cell_angle_alpha  89.928269
_cell_angle_beta   90.009059
_cell_angle_gamma 89.995835
loop_
_atom_site_label
_atom_site_type_symbol
_atom_site_fract_x
_atom_site_fract_y
_atom_site_fract_z
_atom_type_partial_charge
C0 C 0.08247 0.07397 0.29128 0.0
C1 C 0.08058 0.06902 0.36777 0.0
N2 N 0.09688 0.0725 0.40393 0.0
N3 N 0.09984 0.08054 0.27938 0.0
C4 C 0.10836 0.07929 0.34865 0.0
H5 H 0.07176 0.07326 0.2473 0.0
Co6 Co 0.10856 0.0899 0.18627 0.0
C7 C 0.13199 0.12183 0.23314 0.0
O8 O 0.12317 0.13193 0.18089 0.0
N9 N 0.11734 0.09804 0.09033 0.0
C10 C 0.13679 0.1025 0.99162 0.0
C11 C 0.13476 0.1035 0.0704 0.0
C12 C 0.10949 0.09283 0.02271 0.0
N13 N 0.12089 0.09564 0.96167 0.0
O14 O 0.12481 0.06871 0.17521 0.0
H15 H 0.14608 0.10607 0.11015 0.0
H16 H 0.09625 0.08565 0.0193 0.0
O17 O 0.12821 0.10431 0.24054 0.0
C18 C 0.11683 0.05321 0.15923 0.0
O19 O 0.09855 0.05247 0.15881 0.0
N20 N 0.09146 0.11043 0.19588 0.0
C21 C 0.06515 0.1392 0.21422 0.0
C22 C 0.07765 0.13479 0.27373 0.0
C23 C 0.0904 0.12021 0.26402 0.0
C24 C 0.07881 0.11402 0.13864 0.0
C25 C 0.06568 0.12845 0.14627 0.0
H26 H 0.09949 0.11682 0.31188 0.0
H27 H 0.07844 0.10551 0.08731 0.0
H28 H 0.12241 0.08417 0.35907 0.0
H29 H 0.06806 0.06365 0.39475 0.0
H30 H 0.14956 0.10498 0.95985 0.0
H31 H 0.07731 0.14224 0.32834 0.0
H32 H 0.056 0.13114 0.09939 0.0
C33 C 0.27315 0.74168 0.61008 0.0
C34 C 0.27744 0.7405 0.6873 0.0
N35 N 0.27278 0.7569 0.721 0.0
N36 N 0.26584 0.75875 0.59498 0.0
C37 C 0.26614 0.76788 0.66349 0.0
H38 H 0.27394 0.73031 0.5687 0.0
Co39 Co 0.25423 0.76453 0.50151 0.0
C40 C 0.22591 0.7916 0.56878 0.0
O41 O 0.21195 0.7798 0.56307 0.0
N42 N 0.24312 0.77016 0.40597 0.0
C43 C 0.22399 0.77666 0.30805 0.0
C44 C 0.22537 0.77458 0.38696 0.0
C45 C 0.25218 0.76958 0.33751 0.0
N46 N 0.24093 0.77358 0.2773 0.0
O47 O 0.2753 0.77984 0.4723 0.0
H48 H 0.21385 0.77546 0.42652 0.0
H49 H 0.26661 0.7655 0.33138 0.0
O50 O 0.24233 0.78704 0.54681 0.0
C51 C 0.28985 0.7704 0.45562 0.0
O52 O 0.28922 0.752 0.46102 0.0
N53 N 0.23439 0.74792 0.52826 0.0
C54 C 0.20833 0.7198 0.56301 0.0
C55 C 0.2139 0.73278 0.61943 0.0
C56 C 0.22715 0.74647 0.60136 0.0
C57 C 0.22979 0.73479 0.47391 0.0
C58 C 0.21659 0.72086 0.48955 0.0
H59 H 0.23126 0.75617 0.64618 0.0
H60 H 0.23664 0.73482 0.41818 0.0
H61 H 0.25975 0.78146 0.67291 0.0
H62 H 0.28231 0.72807 0.71735 0.0
H63 H 0.21146 0.77986 0.27573 0.0
H64 H 0.20797 0.73251 0.67707 0.0
H65 H 0.21325 0.71071 0.44497 0.0
C66 C 0.58315 0.92954 0.81844 0.0
C67 C 0.58522 0.93226 0.89685 0.0
N68 N 0.56933 0.92685 0.93184 0.0
N69 N 0.5661 0.92232 0.80443 0.0
C70 C 0.55796 0.92107 0.87461 0.0
H71 H 0.5939 0.93125 0.77517 0.0
Co72 Co 0.55929 0.91135 0.71144 0.0
C73 C 0.51927 0.9021 0.73102 0.0
O74 O 0.51514 0.90859 0.66188 0.0
N75 N 0.55312 0.90018 0.61701 0.0
C76 C 0.54554 0.87983 0.52428 0.0
C77 C 0.54719 0.88246 0.6031 0.0
C78 C 0.555 0.90794 0.5462 0.0
N79 N 0.55034 0.896 0.48911 0.0
O80 O 0.54768 0.93445 0.67985 0.0
H81 H 0.54447 0.87204 0.64735 0.0
H82 H 0.56035 0.92187 0.53566 0.0
O83 O 0.536 0.90275 0.75563 0.0
C84 C 0.55878 0.9462 0.64875 0.0
O85 O 0.57645 0.94164 0.64137 0.0
N86 N 0.57162 0.88941 0.74231 0.0
C87 C 0.59503 0.86081 0.79464 0.0
C88 C 0.57699 0.8628 0.82479 0.0
C89 C 0.56552 0.87731 0.79836 0.0
C90 C 0.58887 0.88736 0.71063 0.0
C91 C 0.60084 0.87316 0.73602 0.0
H92 H 0.5521 0.87913 0.82554 0.0
H93 H 0.59357 0.89726 0.66722 0.0
H94 H 0.54471 0.91439 0.88491 0.0
H95 H 0.59777 0.93677 0.92622 0.0
H96 H 0.54118 0.8671 0.49516 0.0
H97 H 0.57208 0.85375 0.87098 0.0
H98 H 0.61464 0.87204 0.71096 0.0
C99 C 0.39853 0.25606 0.10587 0.0
C100 C 0.39528 0.25781 0.18383 0.0
N101 N 0.39933 0.24127 0.21789 0.0
N102 N 0.4046 0.23851 0.09077 0.0
C103 C 0.40464 0.22972 0.16007 0.0
H104 H 0.39799 0.2673 0.06367 0.0
Co105 Co 0.4158 0.23213 -0.00247 0.0
C106 C 0.42975 0.19338 0.02477 0.0
O107 O 0.42313 0.18728 0.95847 0.0
N108 N 0.42691 0.22639 0.90373 0.0
C109 C 0.4467 0.21964 0.80893 0.0
C110 C 0.44468 0.22146 0.88788 0.0
C111 C 0.41847 0.22756 0.83428 0.0
N112 N 0.43013 0.22339 0.77566 0.0
O113 O 0.3945 0.21725 0.96813 0.0
H114 H 0.4555 0.21961 0.93085 0.0
H115 H 0.40417 0.23203 0.82666 0.0
O116 O 0.42739 0.21046 0.04464 0.0
C117 C 0.37884 0.22524 0.95686 0.0
O118 O 0.37713 0.24324 0.97175 0.0
N119 N 0.43622 0.24726 0.02454 0.0
C120 C 0.46414 0.27276 0.06444 0.0
C121 C 0.46087 0.25676 0.1099 0.0
C122 C 0.44683 0.24417 0.089 0.0
C123 C 0.43913 0.26277 0.97974 0.0
C124 C 0.45318 0.27562 -0.00182 0.0
H125 H 0.44424 0.23223 0.12608 0.0
H126 H 0.43032 0.26529 0.92998 0.0
H127 H 0.4102 0.21579 0.16939 0.0
H128 H 0.39152 0.27061 0.21382 0.0
H129 H 0.45935 0.21593 0.77839 0.0
H130 H 0.46905 0.25401 0.16138 0.0
H131 H 0.45509 0.28794 0.96215 0.0
C132 C 0.08922 0.93177 0.66456 0.0
C133 C 0.09016 0.93705 0.58807 0.0
N134 N 0.10716 0.93243 0.56106 0.0
N135 N 0.10557 0.92391 0.68544 0.0
C136 C 0.11634 0.92484 0.62162 0.0
H137 H 0.07707 0.93257 0.70145 0.0
Co138 Co 0.11005 0.91214 0.77953 0.0
C139 C 0.13581 0.88224 0.71537 0.0
O140 O 0.12368 0.86862 0.7244 0.0
N141 N 0.11451 0.9012 0.87576 0.0
C142 C 0.12509 0.88539 0.97777 0.0
C143 C 0.12306 0.88519 0.89869 0.0
C144 C 0.11116 0.91062 0.94196 0.0
N145 N 0.11766 0.90146 0.00453 0.0
O146 O 0.12608 0.93256 0.80993 0.0
H147 H 0.12816 0.87424 0.86157 0.0
H148 H 0.10491 0.92446 0.94375 0.0
O149 O 0.13202 0.89906 0.73624 0.0
C150 C 0.11869 0.9486 0.82135 0.0
O151 O 0.10084 0.95088 0.80737 0.0
N152 N 0.09308 0.89264 0.75158 0.0
C153 C 0.06636 0.86538 0.7151 0.0
C154 C 0.0791 0.87161 0.65928 0.0
C155 C 0.09204 0.88551 0.6781 0.0
C156 C 0.08005 0.88747 0.80525 0.0
C157 C 0.06669 0.87375 0.78847 0.0
H158 H 0.10171 0.88999 0.63393 0.0
H159 H 0.07983 0.89406 0.86154 0.0
H160 H 0.13021 0.91896 0.6179 0.0
H161 H 0.07874 0.94237 0.55343 0.0
H162 H 0.13181 0.87472 0.01273 0.0
H163 H 0.07898 0.86587 0.60122 0.0
H164 H 0.05685 0.86958 0.83284 0.0
C165 C 0.39562 0.76331 0.88015 0.0
C166 C 0.39277 0.76675 0.80273 0.0
N167 N 0.40641 0.77827 0.77722 0.0
N168 N 0.41094 0.77263 0.90352 0.0
C169 C 0.41706 0.78178 0.84003 0.0
H170 H 0.3877 0.7537 0.91576 0.0
Co171 Co 0.4227 0.76968 -0.0022 0.0
C172 C 0.44979 0.80123 0.01078 0.0
O173 O 0.4607 0.79092 0.05474 0.0
N174 N 0.4342 0.7663 0.09505 0.0
C175 C 0.44736 0.75419 0.20056 0.0
C176 C 0.44459 0.7519 0.12244 0.0
C177 C 0.43108 0.7772 0.15783 0.0
N178 N 0.43866 0.77005 0.22287 0.0
O179 O 0.40178 0.78114 0.04866 0.0
H180 H 0.44919 0.73989 0.0897 0.0
H181 H 0.42287 0.78995 0.15624 0.0
O182 O 0.43452 0.79434 0.9852 0.0
C183 C 0.3914 0.76857 0.07872 0.0
O184 O 0.39565 0.75086 0.06617 0.0
N185 N 0.44219 0.7569 0.94696 0.0
C186 C 0.46785 0.73266 0.87663 0.0
C187 C 0.47 0.75228 0.87184 0.0
C188 C 0.45697 0.76416 0.90697 0.0
C189 C 0.43913 0.73801 0.94716 0.0
C190 C 0.45195 0.72564 0.91428 0.0
H191 H 0.45873 0.77908 0.89987 0.0
H192 H 0.42692 0.73248 0.97601 0.0
H193 H 0.42967 0.79007 0.83918 0.0
H194 H 0.38227 0.76011 0.76711 0.0
H195 H 0.45419 0.74426 0.23868 0.0
H196 H 0.48153 0.75848 0.8405 0.0
H197 H 0.44953 0.7107 0.92028 0.0
C198 C 0.58678 0.08842 0.27649 0.0
C199 C 0.58929 0.08436 0.19931 0.0
N200 N 0.57411 0.0903 0.16036 0.0
N201 N 0.57019 0.097 0.2857 0.0
C202 C 0.56268 0.09767 0.21429 0.0
H203 H 0.59671 0.08606 0.32257 0.0
Co204 Co 0.56209 0.10741 0.37741 0.0
C205 C 0.5336 0.13512 0.33205 0.0
O206 O 0.54201 0.14705 0.37851 0.0
N207 N 0.55397 0.11698 0.47327 0.0
C208 C 0.53527 0.12051 0.57519 0.0
C209 C 0.53603 0.11882 0.49628 0.0
C210 C 0.56372 0.11686 0.54024 0.0
N211 N 0.5527 0.119 0.6029 0.0
O212 O 0.54868 0.08477 0.39984 0.0
H213 H 0.52398 0.11687 0.45964 0.0
H214 H 0.57826 0.11313 0.54407 0.0
O215 O 0.53991 0.11832 0.32579 0.0
C216 C 0.55751 0.07429 0.44713 0.0
O217 O 0.57402 0.07966 0.47145 0.0
N218 N 0.57679 0.12908 0.35514 0.0
C219 C 0.60228 0.15741 0.31608 0.0
C220 C 0.58696 0.15356 0.26847 0.0
C221 C 0.5747 0.13911 0.28793 0.0
C222 C 0.59206 0.13217 0.40042 0.0
C223 C 0.60482 0.14643 0.38271 0.0
H224 H 0.56386 0.13569 0.24709 0.0
H225 H 0.59508 0.12297 0.44823 0.0
H226 H 0.54967 0.10464 0.201 0.0
H227 H 0.60159 0.07813 0.17363 0.0
H228 H 0.5227 0.12062 0.60988 0.0
H229 H 0.58492 0.1611 0.2146 0.0
H230 H 0.61676 0.14855 0.42003 0.0
C231 C 0.27368 0.2333 0.38563 0.0
C232 C 0.27533 0.22857 0.30895 0.0
N233 N 0.25989 0.2191 0.28769 0.0
N234 N 0.25734 0.22677 0.41299 0.0
C235 C 0.24931 0.21805 0.35218 0.0
H236 H 0.2833 0.242 0.41764 0.0
Co237 Co 0.24746 0.23236 0.5092 0.0
C238 C 0.21571 0.20591 0.53289 0.0
O239 O 0.20703 0.21841 0.57563 0.0
N240 N 0.23809 0.23834 0.60794 0.0
C241 C 0.22815 0.25289 0.71407 0.0
C242 C 0.23141 0.25472 0.6361 0.0
C243 C 0.23885 0.22688 0.67043 0.0
N244 N 0.2329 0.23535 0.73576 0.0
O245 O 0.26663 0.21769 0.55764 0.0
H246 H 0.22963 0.26756 0.60392 0.0
H247 H 0.24382 0.21255 0.66782 0.0
O248 O 0.23159 0.20992 0.50346 0.0
C249 C 0.281 0.22695 0.57784 0.0
O250 O 0.28166 0.24505 0.56297 0.0
N251 N 0.22954 0.24784 0.46003 0.0
C252 C 0.20608 0.27469 0.3918 0.0
C253 C 0.20178 0.25543 0.38859 0.0
C254 C 0.21369 0.24225 0.42267 0.0
C255 C 0.2348 0.26623 0.45749 0.0
C256 C 0.2231 0.27993 0.42584 0.0
H257 H 0.21015 0.22763 0.41683 0.0
H258 H 0.24791 0.27038 0.48329 0.0
H259 H 0.23557 0.21186 0.3541 0.0
H260 H 0.28638 0.23307 0.27052 0.0
H261 H 0.22359 0.26401 0.75233 0.0
H262 H 0.18939 0.25044 0.35937 0.0
H263 H 0.22727 0.29451 0.43 0.0
C264 C 0.89842 0.28025 0.37128 0.0
C265 C 0.89816 0.28473 0.29392 0.0
N266 N 0.91575 0.28843 0.27151 0.0
N267 N 0.91611 0.28121 0.39757 0.0
C268 C 0.92626 0.28655 0.33563 0.0
H269 H 0.88657 0.27542 0.40425 0.0
Co270 Co 0.92551 0.27361 0.49288 0.0
C271 C 0.95207 0.30532 0.53742 0.0
O272 O 0.95737 0.29767 0.6029 0.0
N273 N 0.93461 0.26561 0.58925 0.0
C274 C 0.94766 0.2494 0.68531 0.0
C275 C 0.94464 0.25009 0.60672 0.0
C276 C 0.93112 0.27365 0.65847 0.0
N277 N 0.93924 0.26438 0.71754 0.0
O278 O 0.90487 0.28563 0.54366 0.0
H279 H 0.94938 0.23973 0.56547 0.0
H280 H 0.92295 0.28631 0.66532 0.0
O281 O 0.94016 0.29696 0.4944 0.0
C282 C 0.89241 0.27326 0.55662 0.0
O283 O 0.89557 0.25594 0.5335 0.0
N284 N 0.9447 0.26045 0.44214 0.0
C285 C 0.96999 0.23622 0.37038 0.0
C286 C 0.97621 0.25233 0.40961 0.0
C287 C 0.96335 0.26428 0.44527 0.0
C288 C 0.93838 0.24505 0.40334 0.0
C289 C 0.95074 0.23285 0.36658 0.0
H290 H 0.96855 0.27607 0.47763 0.0
H291 H 0.92359 0.24211 0.40199 0.0
H292 H 0.94129 0.28784 0.3364 0.0
H293 H 0.88623 0.28371 0.25577 0.0
H294 H 0.95555 0.23879 0.716 0.0
H295 H 0.99095 0.25533 0.41538 0.0
H296 H 0.94524 0.22076 0.33616 0.0
C297 C 0.75682 0.75027 0.01836 0.0
C298 C 0.75965 0.75257 0.94001 0.0
N299 N 0.74885 0.74004 0.90284 0.0
N300 N 0.74415 0.73651 0.02979 0.0
C301 C 0.73962 0.73058 0.95819 0.0
H302 H 0.76286 0.75876 0.06369 0.0
Co303 Co 0.73293 0.72993 0.12258 0.0
C304 C 0.72437 0.69014 0.07739 0.0
O305 O 0.73626 0.68266 0.12634 0.0
N306 N 0.72174 0.72373 0.21582 0.0
C307 C 0.70464 0.71221 0.31188 0.0
C308 C 0.70762 0.71192 0.23319 0.0
C309 C 0.7268 0.73122 0.28406 0.0
N310 N 0.71685 0.72434 0.34398 0.0
O311 O 0.75491 0.71618 0.15118 0.0
H312 H 0.69994 0.70358 0.19186 0.0
H313 H 0.73783 0.74139 0.28951 0.0
O314 O 0.72241 0.70793 0.07399 0.0
C315 C 0.76724 0.72558 0.18738 0.0
O316 O 0.76426 0.74345 0.20163 0.0
N317 N 0.71209 0.74437 0.09548 0.0
C318 C 0.68453 0.7689 0.04216 0.0
C319 C 0.6811 0.7495 0.04766 0.0
C320 C 0.69506 0.73746 0.07467 0.0
C321 C 0.71533 0.76323 0.09478 0.0
C322 C 0.70184 0.77573 0.0676 0.0
H323 H 0.69212 0.72261 0.0779 0.0
H324 H 0.72875 0.76854 0.11303 0.0
H325 H 0.72884 0.72039 0.94594 0.0
H326 H 0.76849 0.76294 0.91247 0.0
H327 H 0.69431 0.70403 0.34257 0.0
H328 H 0.66778 0.74362 0.03086 0.0
H329 H 0.70524 0.79054 0.06425 0.0
C330 C 0.77507 0.27498 0.07494 0.0
C331 C 0.77679 0.27784 0.15353 0.0
N332 N 0.76054 0.28478 0.17997 0.0
N333 N 0.75782 0.28022 0.05239 0.0
C334 C 0.74949 0.28637 0.11743 0.0
H335 H 0.78532 0.26838 0.03814 0.0
Co336 Co 0.74574 0.27648 0.95865 0.0
C337 C 0.73239 0.31663 0.93465 0.0
O338 O 0.73921 0.31928 0.86503 0.0
N339 N 0.7335 0.2725 0.86371 0.0
C340 C 0.71657 0.26 0.76883 0.0
C341 C 0.72046 0.25943 0.84661 0.0
C342 C 0.73745 0.28057 0.79485 0.0
N343 N 0.7274 0.27327 0.73619 0.0
O344 O 0.76698 0.28651 0.9053 0.0
H345 H 0.7146 0.24944 0.887 0.0
H346 H 0.74842 0.29077 0.78673 0.0
O347 O 0.73467 0.30102 0.96964 0.0
C348 C 0.77727 0.27303 0.88248 0.0
O349 O 0.77198 0.25577 0.89869 0.0
N350 N 0.72566 0.26544 0.01176 0.0
C351 C 0.69816 0.24566 0.09169 0.0
C352 C 0.6941 0.26303 0.05686 0.0
C353 C 0.70809 0.27277 0.01713 0.0
C354 C 0.72979 0.24854 0.04471 0.0
C355 C 0.7163 0.23849 0.08548 0.0
H356 H 0.70464 0.28593 0.98937 0.0
H357 H 0.7437 0.24283 0.03893 0.0
H358 H 0.73506 0.29071 0.11976 0.0
H359 H 0.78851 0.27371 0.18921 0.0
H360 H 0.70696 0.25088 0.7386 0.0
H361 H 0.68026 0.26904 0.06027 0.0
H362 H 0.71994 0.22498 0.11028 0.0
C363 C 0.8976 0.72796 0.54585 0.0
C364 C 0.8944 0.72527 0.62356 0.0
N365 N 0.91064 0.72042 0.6575 0.0
N366 N 0.91576 0.72478 0.53082 0.0
C367 C 0.9233 0.72005 0.59975 0.0
H368 H 0.8875 0.73268 0.50366 0.0
Co369 Co 0.92772 0.72882 0.43713 0.0
C370 C 0.94148 0.68902 0.42749 0.0
O371 O 0.92961 0.68367 0.37401 0.0
N372 N 0.93965 0.73317 0.34173 0.0
C373 C 0.95203 0.74924 0.24403 0.0
C374 C 0.94852 0.74922 0.32198 0.0
C375 C 0.93801 0.72363 0.27433 0.0
N376 N 0.94509 0.73329 0.2137 0.0
O377 O 0.90768 0.71587 0.38582 0.0
H378 H 0.95106 0.76093 0.36035 0.0
H379 H 0.93004 0.71082 0.26828 0.0
O380 O 0.94135 0.70586 0.4524 0.0
C381 C 0.89702 0.72568 0.34279 0.0
O382 O 0.90084 0.74357 0.33213 0.0
N383 N 0.94655 0.74239 0.4883 0.0
C384 C 0.97298 0.76643 0.55315 0.0
C385 C 0.97842 0.74939 0.51912 0.0
C386 C 0.96497 0.73751 0.48709 0.0
C387 C 0.94097 0.75873 0.52226 0.0
C388 C 0.95395 0.77089 0.55573 0.0
H389 H 0.96951 0.72485 0.4582 0.0
H390 H 0.92639 0.76258 0.52148 0.0
H391 H 0.93806 0.71766 0.60819 0.0
H392 H 0.88127 0.72739 0.65311 0.0
H393 H 0.95802 0.76075 0.21143 0.0
H394 H 0.99298 0.74543 0.51605 0.0
H395 H 0.9492 0.78403 0.5805 0.0
C396 C 0.58209 0.5737 0.79698 0.0
C397 C 0.57998 0.56878 0.87342 0.0
N398 N 0.59641 0.57146 0.9097 0.0
N399 N 0.59974 0.57948 0.78516 0.0
C400 C 0.60819 0.57773 0.85443 0.0
H401 H 0.57133 0.57362 0.75309 0.0
Co402 Co 0.60875 0.58889 0.69237 0.0
C403 C 0.63438 0.61901 0.7404 0.0
O404 O 0.62602 0.63005 0.69012 0.0
N405 N 0.61775 0.597 0.59645 0.0
C406 C 0.6372 0.6007 0.49714 0.0
C407 C 0.63535 0.60173 0.57598 0.0
C408 C 0.6096 0.59214 0.52894 0.0
N409 N 0.621 0.5945 0.46756 0.0
O410 O 0.62387 0.567 0.6785 0.0
H411 H 0.64688 0.60367 0.61525 0.0
H412 H 0.59608 0.58548 0.52585 0.0
O413 O 0.62923 0.60185 0.74716 0.0
C414 C 0.61539 0.55186 0.66113 0.0
O415 O 0.5971 0.5515 0.6639 0.0
N416 N 0.59282 0.61026 0.70433 0.0
C417 C 0.56646 0.6386 0.72876 0.0
C418 C 0.57888 0.63352 0.78743 0.0
C419 C 0.59195 0.61938 0.7741 0.0
C420 C 0.5805 0.61492 0.64709 0.0
C421 C 0.56746 0.62933 0.65754 0.0
H422 H 0.60112 0.61546 0.82101 0.0
H423 H 0.5801 0.60713 0.59391 0.0
H424 H 0.62244 0.58195 0.86495 0.0
H425 H 0.56719 0.56404 0.9003 0.0
H426 H 0.65003 0.60261 0.46507 0.0
H427 H 0.57833 0.64027 0.84356 0.0
H428 H 0.55772 0.63264 0.61157 0.0
C429 C 0.08747 0.43891 0.30399 0.0
C430 C 0.0883 0.44438 0.38018 0.0
N431 N 0.07257 0.43866 0.41596 0.0
N432 N 0.07129 0.42983 0.29144 0.0
C433 C 0.06239 0.43013 0.36024 0.0
H434 H 0.09825 0.44084 0.26093 0.0
Co435 Co 0.06476 0.41825 0.19869 0.0
C436 C 0.04419 0.38504 0.25701 0.0
O437 O 0.05533 0.37412 0.21667 0.0
N438 N 0.05803 0.4079 0.10315 0.0
C439 C 0.04102 0.39851 0.00266 0.0
C440 C 0.0429 0.39783 0.08165 0.0
C441 C 0.06461 0.41508 0.03609 0.0
N442 N 0.05461 0.40952 0.97398 0.0
O443 O 0.0467 0.43745 0.17839 0.0
H444 H 0.03251 0.39206 0.1199 0.0
H445 H 0.07586 0.42519 0.0339 0.0
O446 O 0.04586 0.40293 0.25281 0.0
C447 C 0.05321 0.45339 0.1584 0.0
O448 O 0.07124 0.45629 0.1635 0.0
N449 N 0.08366 0.3997 0.21625 0.0
C450 C 0.11232 0.37377 0.24217 0.0
C451 C 0.10045 0.3791 0.30239 0.0
C452 C 0.08623 0.39203 0.28832 0.0
C453 C 0.09573 0.3952 0.1579 0.0
C454 C 0.10988 0.38193 0.16915 0.0
H455 H 0.07704 0.39558 0.33555 0.0
H456 H 0.0947 0.40195 0.10229 0.0
H457 H 0.04923 0.42316 0.3703 0.0
H458 H 0.09991 0.4515 0.40725 0.0
H459 H 0.02953 0.3927 0.96986 0.0
H460 H 0.10198 0.37308 0.3597 0.0
H461 H 0.11909 0.37838 0.12167 0.0
C462 C 0.58045 0.43358 0.1427 0.0
C463 C 0.57949 0.43855 0.06589 0.0
N464 N 0.59648 0.43606 0.03409 0.0
N465 N 0.59792 0.42789 0.15902 0.0
C466 C 0.60746 0.42995 0.09245 0.0
H467 H 0.56895 0.43316 0.18318 0.0
Co468 Co 0.60548 0.41737 0.25191 0.0
C469 C 0.6294 0.38597 0.20075 0.0
O470 O 0.61952 0.37487 0.24575 0.0
N471 N 0.6131 0.40805 0.34791 0.0
C472 C 0.63171 0.40244 0.44845 0.0
C473 C 0.62987 0.40109 0.36976 0.0
C474 C 0.6054 0.41417 0.41461 0.0
N475 N 0.6164 0.41091 0.47647 0.0
O476 O 0.62172 0.4382 0.27077 0.0
H477 H 0.6412 0.39744 0.3317 0.0
H478 H 0.59295 0.42276 0.41647 0.0
O479 O 0.62573 0.40359 0.19862 0.0
C480 C 0.61405 0.45384 0.28693 0.0
O481 O 0.59591 0.45552 0.2794 0.0
N482 N 0.58847 0.39712 0.23524 0.0
C483 C 0.56188 0.36904 0.20723 0.0
C484 C 0.57452 0.37447 0.14956 0.0
C485 C 0.58753 0.38855 0.16441 0.0
C486 C 0.57585 0.39248 0.29123 0.0
C487 C 0.56262 0.37833 0.27884 0.0
H488 H 0.5969 0.39257 0.11834 0.0
H489 H 0.57567 0.39989 0.34554 0.0
H490 H 0.622 0.42627 0.08633 0.0
H491 H 0.56695 0.44244 0.03499 0.0
H492 H 0.644 0.39878 0.48159 0.0
H493 H 0.57415 0.3682 0.09249 0.0
H494 H 0.55306 0.37475 0.32506 0.0
C495 C 0.087 0.55761 0.60267 0.0
C496 C 0.08738 0.55239 0.52615 0.0
N497 N 0.07061 0.55627 0.49466 0.0
N498 N 0.07012 0.56485 0.61917 0.0
C499 C 0.06033 0.56354 0.55289 0.0
H500 H 0.09852 0.55698 0.64301 0.0
Co501 Co 0.06351 0.57561 0.71272 0.0
C502 C 0.0429 0.60945 0.66281 0.0
O503 O 0.05381 0.6193 0.70859 0.0
N504 N 0.05672 0.58516 0.80926 0.0
C505 C 0.03859 0.59202 0.90988 0.0
C506 C 0.04071 0.59369 0.83138 0.0
C507 C 0.06365 0.57787 0.8755 0.0
N508 N 0.05291 0.58184 0.93739 0.0
O509 O 0.04548 0.55625 0.73044 0.0
H510 H 0.02991 0.59878 0.79341 0.0
H511 H 0.07519 0.56807 0.87683 0.0
O512 O 0.0446 0.59152 0.66027 0.0
C513 C 0.05195 0.54005 0.74672 0.0
O514 O 0.06986 0.53695 0.73774 0.0
N515 N 0.08232 0.59425 0.69755 0.0
C516 C 0.11042 0.62102 0.67452 0.0
C517 C 0.09785 0.61663 0.61522 0.0
C518 C 0.08413 0.60308 0.62744 0.0
C519 C 0.09506 0.59765 0.75458 0.0
C520 C 0.1091 0.61111 0.74459 0.0
H521 H 0.0747 0.59994 0.58047 0.0
H522 H 0.09458 0.58989 0.80811 0.0
H523 H 0.04612 0.56842 0.54702 0.0
H524 H 0.09945 0.5472 0.49526 0.0
H525 H 0.02669 0.59674 0.94313 0.0
H526 H 0.09869 0.62347 0.55928 0.0
H527 H 0.1187 0.61386 0.79163 0.0
H528 H 0.18059 0.19525 0.5738 0.0
H529 H 0.2269 0.17907 0.42814 0.0
H530 H 0.16104 0.17191 0.51054 0.0
H531 H 0.20713 0.15547 0.36543 0.0
H532 H 0.16228 0.10717 0.3106 0.0
H533 H 0.1841 0.12447 0.39497 0.0
H534 H 0.15199 0.1751 0.3606 0.0
H535 H 0.13072 0.15822 0.27607 0.0
C536 C 0.18675 0.18646 0.52952 0.0
C537 C 0.20523 0.18929 0.50506 0.0
C538 C 0.17553 0.17307 0.49349 0.0
C539 C 0.18258 0.16205 0.4329 0.0
C540 C 0.20144 0.16376 0.41237 0.0
C541 C 0.21269 0.17733 0.44803 0.0
C542 C 0.15995 0.12198 0.32154 0.0
C543 C 0.14493 0.13141 0.28647 0.0
C544 C 0.17239 0.13183 0.36941 0.0
C545 C 0.16959 0.15104 0.38438 0.0
C546 C 0.15435 0.16026 0.3505 0.0
C547 C 0.14226 0.15061 0.30169 0.0
H548 H 0.21543 0.802 0.71217 0.0
H549 H 0.22515 0.8234 0.48225 0.0
H550 H 0.19869 0.83074 0.74577 0.0
H551 H 0.20805 0.8522 0.51507 0.0
H552 H 0.14416 0.86819 0.57508 0.0
H553 H 0.17272 0.85171 0.53922 0.0
H554 H 0.19731 0.86681 0.75875 0.0
H555 H 0.16864 0.88371 0.7937 0.0
C556 C 0.21467 0.81328 0.67007 0.0
C557 C 0.22165 0.8107 0.59509 0.0
C558 C 0.20511 0.82974 0.68917 0.0
C559 C 0.20199 0.84368 0.63287 0.0
C560 C 0.21028 0.84169 0.55953 0.0
C561 C 0.22015 0.82532 0.5409 0.0
C562 C 0.15599 0.86863 0.61408 0.0
C563 C 0.15439 0.87722 0.68669 0.0
C564 C 0.17236 0.85927 0.59361 0.0
C565 C 0.18724 0.85794 0.64631 0.0
C566 C 0.18607 0.86766 0.71704 0.0
C567 C 0.16976 0.87739 0.73685 0.0
H568 H 0.51722 0.89837 0.88767 0.0
H569 H 0.49012 0.88125 0.67627 0.0
H570 H 0.49763 0.87705 0.96121 0.0
H571 H 0.47092 0.85913 0.74938 0.0
H572 H 0.43323 0.82493 0.90521 0.0
H573 H 0.44718 0.85233 0.84228 0.0
H574 H 0.49725 0.8444 0.97779 0.0
H575 H 0.48316 0.81775 0.04208 0.0
C576 C 0.50699 0.89011 0.85692 0.0
C577 C 0.50538 0.89133 0.77611 0.0
C578 C 0.49579 0.87776 0.89905 0.0
C579 C 0.48292 0.86601 0.86126 0.0
C580 C 0.48057 0.86802 0.7807 0.0
C581 C 0.49161 0.88066 0.73862 0.0
C582 C 0.44709 0.82929 0.92241 0.0
C583 C 0.4571 0.81909 0.97853 0.0
C584 C 0.45515 0.8449 0.88589 0.0
C585 C 0.47339 0.85062 0.90462 0.0
C586 C 0.48307 0.84072 0.9626 0.0
C587 C 0.47501 0.82526 -0.00074 0.0
H588 H 0.52024 0.17067 0.32332 0.0
H589 H 0.51039 0.11457 0.23667 0.0
H590 H 0.49393 0.18222 0.25031 0.0
H591 H 0.48329 0.12623 0.16417 0.0
H592 H 0.45024 0.16268 0.97958 0.0
H593 H 0.47446 0.14659 0.05461 0.0
H594 H 0.46086 0.18085 0.25314 0.0
H595 H 0.43749 0.19729 0.17782 0.0
C596 C 0.51233 0.16071 0.2892 0.0
C597 C 0.51735 0.14164 0.28647 0.0
C598 C 0.49708 0.16735 0.2476 0.0
C599 C 0.48623 0.15511 0.20242 0.0
C600 C 0.49135 0.13603 0.19848 0.0
C601 C 0.50681 0.12934 0.24019 0.0
C602 C 0.45228 0.16653 0.03963 0.0
C603 C 0.44213 0.18143 0.07248 0.0
C604 C 0.46611 0.15728 0.08267 0.0
C605 C 0.46988 0.1627 0.15944 0.0
C606 C 0.45874 0.17669 0.1935 0.0
C607 C 0.4452 0.18605 0.15041 0.0
H608 H 0.00471 0.77763 0.47987 0.0
H609 H 0.97299 0.7862 0.68911 0.0
H610 H 0.02716 0.80114 0.52164 0.0
H611 H 0.9958 0.80938 0.73265 0.0
H612 H 0.02887 0.86463 0.74428 0.0
H613 H 0.00653 0.8403 0.708 0.0
H614 H 0.05132 0.80737 0.60973 0.0
H615 H 0.07341 0.83202 0.64373 0.0
C616 C 0.00274 0.78433 0.53556 0.0
C617 C 0.98713 0.78003 0.58133 0.0
C618 C 0.01564 0.7978 0.55973 0.0
C619 C 0.01339 0.8072 0.63078 0.0
C620 C 0.99786 0.80269 0.67705 0.0
C621 C 0.98482 0.78934 0.65238 0.0
C622 C 0.03389 0.85212 0.71532 0.0
C623 C 0.05284 0.85027 0.69632 0.0
C624 C 0.02112 0.83812 0.69475 0.0
C625 C 0.02705 0.82183 0.65549 0.0
C626 C 0.04613 0.81986 0.63827 0.0
C627 C 0.05883 0.83395 0.658 0.0
H628 H 0.96781 0.19782 0.37255 0.0
H629 H 0.0029 0.24344 0.2945 0.0
H630 H 0.99046 0.17523 0.32473 0.0
H631 H 0.02575 0.2207 0.24745 0.0
H632 H 0.07081 0.17401 0.27638 0.0
H633 H 0.04751 0.1979 0.30602 0.0
H634 H 0.00473 0.16287 0.20543 0.0
H635 H 0.02801 0.13874 0.17751 0.0
C636 C 0.9802 0.20306 0.34401 0.0
C637 C 0.98349 0.2225 0.33741 0.0
C638 C 0.99322 0.19007 0.31661 0.0
C639 C 0.00991 0.19616 0.28225 0.0
C640 C 0.01311 0.21557 0.27447 0.0
C641 C 1.00004 0.2286 0.30159 0.0
C642 C 0.05644 0.17144 0.26039 0.0
C643 C 0.05123 0.15443 0.22514 0.0
C644 C 0.04312 0.18521 0.27666 0.0
C645 C 0.02426 0.18226 0.25836 0.0
C646 C 0.01913 0.16548 0.22097 0.0
C647 C 0.03248 0.15173 0.2043 0.0
H648 H 0.64029 0.15467 0.31921 0.0
H649 H 0.59562 0.19263 0.25881 0.0
H650 H 0.66298 0.17724 0.27064 0.0
H651 H 0.61832 0.21541 0.21119 0.0
H652 H 0.66248 0.23912 0.04336 0.0
H653 H 0.63915 0.21899 0.10377 0.0
H654 H 0.67728 0.20724 0.29147 0.0
H655 H 0.70071 0.22715 0.23007 0.0
C656 C 0.63534 0.16801 0.29697 0.0
C657 C 0.61615 0.17185 0.29273 0.0
C658 C 0.64836 0.18098 0.2691 0.0
C659 C 0.64251 0.19816 0.23667 0.0
C660 C 0.62332 0.2022 0.23448 0.0
C661 C 0.6103 0.18917 0.26198 0.0
C662 C 0.66576 0.23245 0.09809 0.0
C663 C 0.68345 0.23464 0.13176 0.0
C664 C 0.65238 0.22092 0.13287 0.0
C665 C 0.65633 0.2114 0.20244 0.0
C666 C 0.67387 0.21406 0.2372 0.0
C667 C 0.68728 0.2255 0.20216 0.0
H668 H 0.58806 0.8239 0.82932 0.0
H669 H 0.63133 0.86607 0.83607 0.0
H670 H 0.6092 0.8013 0.89047 0.0
H671 H 0.65246 0.84348 0.89631 0.0
H672 H 0.6761 0.805 0.08625 0.0
H673 H 0.6545 0.82682 0.02461 0.0
H674 H 0.63912 0.78405 0.85954 0.0
H675 H 0.66109 0.7623 0.9196 0.0
C676 C 0.6021 0.8283 0.84365 0.0
C677 C 0.60806 0.84673 0.82777 0.0
C678 C 0.61421 0.81536 0.87819 0.0
C679 C 0.63244 0.82066 0.89845 0.0
C680 C 0.63842 0.83905 0.88205 0.0
C681 C 0.6264 0.85192 0.84679 0.0
C682 C 0.66825 0.80025 0.03645 0.0
C683 C 0.67045 0.78187 0.00782 0.0
C684 C 0.65584 0.81276 0.00125 0.0
C685 C 0.64519 0.80716 0.93705 0.0
C686 C 0.64702 0.78869 0.9094 0.0
C687 C 0.65957 0.77622 0.94413 0.0
H688 H 0.72244 0.65144 0.07151 0.0
H689 H 0.69924 0.70179 0.96948 0.0
H690 H 0.70238 0.63229 0.98798 0.0
H691 H 0.67904 0.68295 0.88935 0.0
H692 H 0.65725 0.64764 0.70092 0.0
H693 H 0.68069 0.66294 0.78013 0.0
H694 H 0.66963 0.62371 0.96582 0.0
H695 H 0.64648 0.60783 0.88436 0.0
C696 C 0.71308 0.65843 0.03157 0.0
C697 C 0.71249 0.67817 0.02732 0.0
C698 C 0.70152 0.64746 0.98408 0.0
C699 C 0.6892 0.65606 0.93137 0.0
C700 C 0.68862 0.67579 0.92785 0.0
C701 C 0.70014 0.68666 0.97469 0.0
C702 C 0.65993 0.64215 0.7584 0.0
C703 C 0.64988 0.6267 0.78688 0.0
C704 C 0.67331 0.65098 0.80404 0.0
C705 C 0.67677 0.64484 0.88008 0.0
C706 C 0.66735 0.62878 0.90746 0.0
C707 C 0.65406 0.61972 0.861 0.0
H708 H 0.64299 0.35053 0.21247 0.0
H709 H 0.65204 0.40308 0.0922 0.0
H710 H 0.66936 0.33682 0.14614 0.0
H711 H 0.67893 0.38909 0.02521 0.0
H712 H 0.72728 0.32224 0.08814 0.0
H713 H 0.70363 0.34142 0.15031 0.0
H714 H 0.68615 0.36246 0.92725 0.0
H715 H 0.71019 0.34316 0.86447 0.0
C716 C 0.65063 0.35922 0.17189 0.0
C717 C 0.64546 0.37798 0.15813 0.0
C718 C 0.66587 0.35135 0.13417 0.0
C719 C 0.6764 0.36196 0.08135 0.0
C720 C 0.67108 0.38062 0.06587 0.0
C721 C 0.65577 0.38863 0.10438 0.0
C722 C 0.71854 0.33107 0.05228 0.0
C723 C 0.72031 0.33089 0.97139 0.0
C724 C 0.70499 0.34208 0.0879 0.0
C725 C 0.69278 0.35313 0.0435 0.0
C726 C 0.69538 0.35406 0.96287 0.0
C727 C 0.7091 0.34302 0.927 0.0
H728 H 0.04642 0.35145 0.32919 0.0
H729 H 0.0095 0.39867 0.29453 0.0
H730 H 0.02245 0.33551 0.40471 0.0
H731 H 0.9851 0.38228 0.36909 0.0
H732 H 0.94623 0.3249 0.40219 0.0
H733 H 0.96751 0.34744 0.34114 0.0
H734 H 0.00418 0.34375 0.5384 0.0
H735 H 0.98297 0.32163 0.60026 0.0
C736 C 0.03316 0.35843 0.33791 0.0
C737 C 0.02977 0.37625 0.30596 0.0
C738 C 0.0195 0.34935 0.38139 0.0
C739 C 0.00201 0.35771 0.39262 0.0
C740 C 0.99853 0.37559 0.36107 0.0
C741 C 0.01245 0.38495 0.31889 0.0
C742 C 0.9586 0.32924 0.43336 0.0
C743 C 0.96299 0.32126 0.50573 0.0
C744 C 0.97071 0.34218 0.39852 0.0
C745 C 0.98747 0.34717 0.43509 0.0
C746 C 0.99134 0.34004 0.50908 0.0
C747 C 0.97917 0.32736 0.54435 0.0
H748 H 0.96312 0.69409 0.55476 0.0
H749 H 0.95125 0.65385 0.3741 0.0
H750 H 0.98701 0.67354 0.60601 0.0
H751 H 0.9758 0.63323 0.42508 0.0
H752 H 0.04237 0.64638 0.62638 0.0
H753 H 0.01766 0.66417 0.56497 0.0
H754 H 0.98534 0.61335 0.53791 0.0
H755 H 0.01065 0.59523 0.59839 0.0
C756 C 0.96565 0.68086 0.52563 0.0
C757 C 0.95539 0.67573 0.45967 0.0
C758 C 0.97946 0.66908 0.55492 0.0
C759 C 0.98358 0.65188 0.51881 0.0
C760 C 0.97295 0.64639 0.45421 0.0
C761 C 0.95895 0.65822 0.42489 0.0
C762 C 0.03006 0.63891 0.60713 0.0
C763 C 0.02832 0.61945 0.61843 0.0
C764 C 0.01582 0.64915 0.57215 0.0
C765 C 0.99932 0.64027 0.54817 0.0
C766 C 0.99788 0.62061 0.55594 0.0
C767 C 0.01231 0.61025 0.59068 0.0
H768 H 0.49011 0.28965 0.97179 0.0
H769 H 0.47081 0.28716 0.20836 0.0
H770 H 0.51383 0.31257 0.00925 0.0
H771 H 0.49467 0.30992 0.24598 0.0
H772 H 0.52531 0.36769 0.25438 0.0
H773 H 0.50192 0.34405 0.22222 0.0
H774 H 0.54289 0.31334 0.09014 0.0
H775 H 0.56642 0.33665 0.12363 0.0
C776 C 0.49093 0.29404 0.03172 0.0
C777 C 0.47863 0.2866 0.08714 0.0
C778 C 0.5046 0.30702 0.0533 0.0
C779 C 0.50613 0.313 0.1306 0.0
C780 C 0.49375 0.30566 0.18593 0.0
C781 C 0.48021 0.29252 0.1645 0.0
C782 C 0.52945 0.35575 0.2196 0.0
C783 C 0.54777 0.35417 0.19129 0.0
C784 C 0.51601 0.34224 0.20096 0.0
C785 C 0.52054 0.32693 0.15317 0.0
C786 C 0.5389 0.32516 0.12598 0.0
C787 C 0.55237 0.33856 0.14511 0.0
H788 H 0.46261 0.69758 0.81247 0.0
H789 H 0.50585 0.73788 0.86736 0.0
H790 H 0.48637 0.67505 0.77304 0.0
H791 H 0.52936 0.71559 0.82284 0.0
H792 H 0.56107 0.6723 0.65644 0.0
H793 H 0.537 0.69594 0.68561 0.0
H794 H 0.51455 0.65962 0.86281 0.0
H795 H 0.53888 0.63635 0.83537 0.0
C796 C 0.4771 0.70174 0.81611 0.0
C797 C 0.4822 0.71959 0.84442 0.0
C798 C 0.49067 0.68885 0.79272 0.0
C799 C 0.50961 0.69365 0.79515 0.0
C800 C 0.51478 0.71167 0.81997 0.0
C801 C 0.50125 0.72445 0.84503 0.0
C802 C 0.55094 0.66946 0.70146 0.0
C803 C 0.55174 0.65264 0.74393 0.0
C804 C 0.53728 0.68292 0.71819 0.0
C805 C 0.52397 0.67948 0.77617 0.0
C806 C 0.52461 0.6625 0.81754 0.0
C807 C 0.53851 0.64927 0.80213 0.0
H808 H 0.20446 0.69915 0.69634 0.0
H809 H 0.18009 0.70727 0.47 0.0
H810 H 0.1807 0.67572 0.72628 0.0
H811 H 0.15685 0.68331 0.49872 0.0
H812 H 0.10605 0.65518 0.6048 0.0
H813 H 0.12971 0.67895 0.57965 0.0
H814 H 0.17105 0.64405 0.69136 0.0
H815 H 0.14727 0.62026 0.71693 0.0
C816 C 0.19403 0.69596 0.65298 0.0
C817 C 0.19415 0.70516 0.58082 0.0
C818 C 0.18054 0.68236 0.66984 0.0
C819 C 0.16684 0.67765 0.61499 0.0
C820 C 0.16704 0.68677 0.5427 0.0
C821 C 0.18052 0.70035 0.52585 0.0
C822 C 0.12021 0.65253 0.62367 0.0
C823 C 0.1248 0.63577 0.66243 0.0
C824 C 0.13379 0.66615 0.60915 0.0
C825 C 0.15232 0.66335 0.63291 0.0
C826 C 0.15687 0.64674 0.67296 0.0
C827 C 0.14325 0.6331 0.68763 0.0
H828 H 0.21396 0.30937 0.32697 0.0
H829 H 0.16773 0.27311 0.38783 0.0
H830 H 0.19195 0.33365 0.28689 0.0
H831 H 0.14603 0.297 0.34245 0.0
H832 H 0.11668 0.33982 0.17205 0.0
H833 H 0.13994 0.31552 0.20242 0.0
H834 H 0.1646 0.3521 0.37315 0.0
H835 H 0.14101 0.37613 0.34451 0.0
C836 C 0.19921 0.30645 0.33191 0.0
C837 C 0.19278 0.28914 0.36144 0.0
C838 C 0.18664 0.32035 0.30816 0.0
C839 C 0.16738 0.3171 0.31148 0.0
C840 C 0.16086 0.29972 0.33861 0.0
C841 C 0.17338 0.28599 0.36409 0.0
C842 C 0.12719 0.34265 0.21554 0.0
C843 C 0.12714 0.35974 0.25608 0.0
C844 C 0.14039 0.3288 0.23302 0.0
C845 C 0.15401 0.33204 0.28989 0.0
C846 C 0.15429 0.34936 0.32872 0.0
C847 C 0.14082 0.36302 0.3126 0.0
H848 H 0.11263 0.01631 0.19183 0.0
H849 H 0.1429 0.05473 0.04508 0.0
H850 H 0.12183 0.99012 0.10912 0.0
H851 H 0.15176 0.02852 0.96057 0.0
H852 H 0.13994 0.9449 0.95125 0.0
H853 H 0.1478 0.97025 0.04182 0.0
H854 H 0.12657 0.01107 0.87896 0.0
H855 H 0.11829 0.9858 0.79009 0.0
C856 C 0.12191 0.01898 0.14357 0.0
C857 C 0.12714 0.03743 0.12483 0.0
C858 C 0.12723 0.00401 0.09627 0.0
C859 C 0.13745 0.00731 0.02822 0.0
C860 C 0.14393 0.0256 0.01284 0.0
C861 C 0.13897 0.04056 0.06136 0.0
C862 C 0.1377 0.95936 0.93374 0.0
C863 C 0.12854 0.96349 0.86392 0.0
C864 C 0.14211 0.97383 0.98561 0.0
C865 C 0.13779 0.99261 0.96739 0.0
C866 C 0.13029 0.99677 0.8942 0.0
C867 C 0.12548 0.98232 0.8434 0.0
H868 H 0.37841 0.80351 0.12482 0.0
H869 H 0.37085 0.74386 0.16162 0.0
H870 H 0.35489 0.80991 0.2257 0.0
H871 H 0.34805 0.75027 0.2612 0.0
H872 H 0.32576 0.76272 0.48641 0.0
H873 H 0.35188 0.76714 0.39801 0.0
H874 H 0.31684 0.79989 0.24611 0.0
H875 H 0.29062 0.79582 0.33637 0.0
C876 C 0.37173 0.79183 0.15393 0.0
C877 C 0.37654 0.77317 0.13523 0.0
C878 C 0.35835 0.7955 0.21152 0.0
C879 C 0.34995 0.78057 0.25187 0.0
C880 C 0.35457 0.76205 0.23195 0.0
C881 C 0.36759 0.75839 0.17436 0.0
C882 C 0.32387 0.77159 0.43594 0.0
C883 C 0.30622 0.77883 0.41773 0.0
C884 C 0.33877 0.77405 0.38526 0.0
C885 C 0.33624 0.78356 0.31477 0.0
C886 C 0.31914 0.79257 0.3003 0.0
C887 C 0.30417 0.79027 0.35189 0.0
H888 H 0.55784 0.06199 0.5946 0.0
H889 H 0.54084 0.04623 0.36411 0.0
H890 H 0.55167 0.0301 0.64025 0.0
H891 H 0.53509 0.01394 0.40949 0.0
H892 H 0.56921 0.96056 0.51086 0.0
H893 H 0.56206 0.99158 0.45842 0.0
H894 H 0.52667 0.00289 0.65504 0.0
H895 H 0.53349 0.97135 0.70673 0.0
C896 C 0.5523 0.05175 0.55425 0.0
C897 C 0.54986 0.05642 0.47594 0.0
C898 C 0.54866 0.03356 0.58044 0.0
C899 C 0.54294 0.01957 0.52836 0.0
C900 C 0.53945 0.02452 0.45076 0.0
C901 C 0.54266 0.04293 0.42488 0.0
C902 C 0.55957 0.96952 0.54198 0.0
C903 C 0.55203 0.96374 0.61308 0.0
C904 C 0.55534 0.98718 0.51161 0.0
C905 C 0.5438 0.9996 0.55264 0.0
C906 C 0.53555 0.99351 0.62222 0.0
C907 C 0.53943 0.97555 0.65172 0.0
H908 H 0.34156 0.229 0.97556 0.0
H909 H 0.38294 0.20175 0.83333 0.0
H910 H 0.31758 0.2216 0.87979 0.0
H911 H 0.35904 0.19519 0.73537 0.0
H912 H 0.27761 0.20071 0.69274 0.0
H913 H 0.30135 0.1929 0.79039 0.0
H914 H 0.34173 0.22598 0.6649 0.0
H915 H 0.31787 0.23459 0.5704 0.0
C916 C 0.34537 0.22086 0.92499 0.0
C917 C 0.36405 0.21602 0.91147 0.0
C918 C 0.33166 0.21659 0.87035 0.0
C919 C 0.33653 0.20788 0.80034 0.0
C920 C 0.35497 0.2018 0.78925 0.0
C921 C 0.3686 0.20555 0.84521 0.0
C922 C 0.29167 0.20592 0.6854 0.0
C923 C 0.29591 0.21844 0.62498 0.0
C924 C 0.30521 0.20142 0.74091 0.0
C925 C 0.32333 0.20879 0.7347 0.0
C926 C 0.32792 0.21995 0.67042 0.0
C927 C 0.31426 0.22495 0.61667 0.0
H928 H 0.7909 0.30597 0.81849 0.0
H929 H 0.80288 0.24675 0.84462 0.0
H930 H 0.81868 0.30931 0.73554 0.0
H931 H 0.83014 0.25012 0.76336 0.0
H932 H 0.86009 0.25442 0.54127 0.0
H933 H 0.83208 0.25736 0.61899 0.0
H934 H 0.85624 0.30435 0.7409 0.0
H935 H 0.88465 0.30152 0.66135 0.0
C936 C 0.7995 0.29377 0.80721 0.0
C937 C 0.79456 0.27605 0.83731 0.0
C938 C 0.81537 0.2957 0.76004 0.0
C939 C 0.82635 0.27991 0.74215 0.0
C940 C 0.82172 0.26246 0.77488 0.0
C941 C 0.80607 0.26055 0.82166 0.0
C942 C 0.85941 0.26556 0.58387 0.0
C943 C 0.87466 0.27754 0.59619 0.0
C944 C 0.84335 0.26724 0.62838 0.0
C945 C 0.84215 0.28084 0.68691 0.0
C946 C 0.85686 0.29373 0.6961 0.0
C947 C 0.87307 0.2921 0.6508 0.0
H948 H 0.78295 0.72748 0.32868 0.0
H949 H 0.792 0.70617 0.09814 0.0
H950 H 0.81529 0.72043 0.36223 0.0
H951 H 0.82475 0.69964 0.1309 0.0
H952 H 0.88096 0.73422 0.20533 0.0
H953 H 0.84915 0.72696 0.16463 0.0
H954 H 0.84128 0.69363 0.37097 0.0
H955 H 0.87343 0.70049 0.41078 0.0
C956 C 0.79179 0.72076 0.286 0.0
C957 C 0.78511 0.71729 0.21108 0.0
C958 C 0.81024 0.71666 0.3052 0.0
C959 C 0.82249 0.7095 0.24912 0.0
C960 C 0.81553 0.70507 0.17519 0.0
C961 C 0.79685 0.70872 0.15658 0.0
C962 C 0.87261 0.72485 0.24071 0.0
C963 C 0.87953 0.71799 0.31128 0.0
C964 C 0.85448 0.7206 0.2172 0.0
C965 C 0.84279 0.70976 0.26475 0.0
C966 C 0.85007 0.70196 0.33322 0.0
C967 C 0.86842 0.70585 0.35584 0.0
H968 H 0.61071 0.5144 0.68027 0.0
H969 H 0.64012 0.55548 0.54289 0.0
H970 H 0.61869 0.49001 0.58655 0.0
H971 H 0.64762 0.53115 0.44741 0.0
H972 H 0.63678 0.44824 0.41079 0.0
H973 H 0.64489 0.47183 0.50856 0.0
H974 H 0.62088 0.5152 0.36472 0.0
H975 H 0.61225 0.49158 0.26868 0.0
C976 C 0.61953 0.518 0.63152 0.0
C977 C 0.62492 0.53671 0.61889 0.0
C978 C 0.62412 0.50407 0.57792 0.0
C979 C 0.63373 0.50872 0.50966 0.0
C980 C 0.64028 0.5272 0.49978 0.0
C981 C 0.6361 0.54106 0.55457 0.0
C982 C 0.63398 0.46292 0.39879 0.0
C983 C 0.62399 0.46819 0.33224 0.0
C984 C 0.63852 0.47638 0.45486 0.0
C985 C 0.63354 0.49532 0.44406 0.0
C986 C 0.62511 0.50075 0.37408 0.0
C987 C 0.62014 0.48726 0.31915 0.0
H988 H 0.02837 0.5485 0.86536 0.0
H989 H 0.05305 0.50204 0.74203 0.0
H990 H 0.01997 0.5273 0.97153 0.0
H991 H 0.04438 0.48082 0.84682 0.0
H992 H 0.0538 0.49138 0.16352 0.0
H993 H 0.04446 0.51254 0.05941 0.0
H994 H 0.02032 0.46576 0.93571 0.0
H995 H 0.02938 0.44463 0.04127 0.0
C996 C 0.03114 0.5336 0.85921 0.0
C997 C 0.04136 0.52685 0.79567 0.0
C998 C 0.02646 0.5215 0.9202 0.0
C999 C 0.0316 0.50242 0.91769 0.0
C1000 C 0.04004 0.49538 0.85022 0.0
C1001 C 0.04505 0.50753 0.79018 0.0
C1002 C 0.0457 0.48581 0.1158 0.0
C1003 C 0.04225 0.46645 0.11037 0.0
C1004 C 0.04032 0.49791 0.05614 0.0
C1005 C 0.03177 0.49077 0.98908 0.0
C1006 C 0.02688 0.47162 0.98673 0.0
C1007 C 0.03193 0.45957 0.04736 0.0
H1008 H 0.13748 0.11031 0.83497 0.0
H1009 H 0.09742 0.06852 0.90828 0.0
H1010 H 0.13235 0.10139 0.7007 0.0
H1011 H 0.09201 0.05995 0.7736 0.0
H1012 H 0.07148 0.07369 0.52039 0.0
H1013 H 0.07793 0.07673 0.65788 0.0
H1014 H 0.13699 0.07346 0.61194 0.0
H1015 H 0.13061 0.06997 0.47415 0.0
C1016 C 0.12771 0.09912 0.8226 0.0
C1017 C 0.1178 0.09024 0.88246 0.0
C1018 C 0.1248 0.09399 0.74574 0.0
C1019 C 0.11183 0.07995 0.72705 0.0
C1020 C 0.10199 0.07093 0.78663 0.0
C1021 C 0.105 0.07596 0.86369 0.0
C1022 C 0.08583 0.07313 0.5394 0.0
C1023 C 0.10054 0.07185 0.48584 0.0
C1024 C 0.08951 0.07491 0.61832 0.0
C1025 C 0.10795 0.07554 0.64516 0.0
C1026 C 0.12264 0.07333 0.59236 0.0
C1027 C 0.11897 0.0714 0.51351 0.0
H1028 H 0.21919 0.76155 0.16009 0.0
H1029 H 0.2736 0.7841 0.21256 0.0
H1030 H 0.22802 0.75857 0.02406 0.0
H1031 H 0.28242 0.78121 0.07582 0.0
H1032 H 0.27742 0.78945 0.79939 0.0
H1033 H 0.27015 0.795 0.93676 0.0
H1034 H 0.25414 0.73683 0.96165 0.0
H1035 H 0.26145 0.7313 0.82592 0.0
C1036 C 0.23293 0.76612 0.14225 0.0
C1037 C 0.24575 0.77299 0.19666 0.0
C1038 C 0.23801 0.76431 0.06473 0.0
C1039 C 0.25589 0.76961 0.04003 0.0
C1040 C 0.26854 0.77709 0.09373 0.0
C1041 C 0.26355 0.77861 0.1717 0.0
C1042 C 0.27255 0.77789 0.8348 0.0
C1043 C 0.27015 0.75994 0.80245 0.0
C1044 C 0.26845 0.78103 0.91295 0.0
C1045 C 0.26151 0.76634 0.95906 0.0
C1046 C 0.25937 0.74838 0.92694 0.0
C1047 C 0.26375 0.74518 0.84958 0.0
H1048 H 0.53745 0.93207 0.01117 0.0
H1049 H 0.59447 0.91369 0.03472 0.0
H1050 H 0.5317 0.92414 0.14739 0.0
H1051 H 0.58871 0.90553 0.17035 0.0
H1052 H 0.56231 0.87262 0.37649 0.0
H1053 H 0.56668 0.88052 0.23928 0.0
H1054 H 0.54505 0.9362 0.28158 0.0
H1055 H 0.54093 0.92836 0.41853 0.0
C1056 C 0.54874 0.92646 0.04582 0.0
C1057 C 0.56642 0.92365 0.01302 0.0
C1058 C 0.54547 0.92193 0.12335 0.0
C1059 C 0.55974 0.91413 0.16879 0.0
C1060 C 0.57745 0.91139 0.13613 0.0
C1061 C 0.58081 0.91626 0.05906 0.0
C1062 C 0.5583 0.88643 0.35598 0.0
C1063 C 0.55134 0.89991 0.40767 0.0
C1064 C 0.56092 0.891 0.27799 0.0
C1065 C 0.55626 0.90898 0.25037 0.0
C1066 C 0.54869 0.92223 0.30156 0.0
C1067 C 0.54642 0.91779 0.37967 0.0
H1068 H 0.41314 0.26617 0.32048 0.0
H1069 H 0.3932 0.2092 0.29789 0.0
H1070 H 0.42072 0.26037 0.45601 0.0
H1071 H 0.40073 0.20338 0.43473 0.0
H1072 H 0.39758 0.21387 0.70758 0.0
H1073 H 0.38954 0.21721 0.57044 0.0
H1074 H 0.4449 0.2381 0.52347 0.0
H1075 H 0.45294 0.23468 0.66042 0.0
C1076 C 0.41009 0.2525 0.34496 0.0
C1077 C 0.40242 0.23816 0.29908 0.0
C1078 C 0.41464 0.24912 0.42215 0.0
C1079 C 0.41139 0.23142 0.45534 0.0
C1080 C 0.40332 0.21716 0.41023 0.0
C1081 C 0.39905 0.22045 0.33234 0.0
C1082 C 0.40802 0.21908 0.66776 0.0
C1083 C 0.42585 0.2241 0.69445 0.0
C1084 C 0.40347 0.22085 0.58946 0.0
C1085 C 0.41659 0.22799 0.53686 0.0
C1086 C 0.43452 0.23267 0.56321 0.0
C1087 C 0.43916 0.2306 0.64124 0.0
H1088 H 0.09843 0.95666 0.44623 0.0
H1089 H 0.12684 0.90449 0.49472 0.0
H1090 H 0.10341 0.95182 0.30756 0.0
H1091 H 0.13129 0.89926 0.35756 0.0
H1092 H 0.14548 0.89712 0.1077 0.0
H1093 H 0.14596 0.90795 0.24148 0.0
H1094 H 0.09092 0.93174 0.21116 0.0
H1095 H 0.09097 0.9215 0.07648 0.0
C1096 C 0.10591 0.94429 0.42707 0.0
C1097 C 0.11228 0.931 0.48097 0.0
C1098 C 0.10867 0.94144 0.34789 0.0
C1099 C 0.11763 0.92508 0.32126 0.0
C1100 C 0.12464 0.91219 0.37573 0.0
C1101 C 0.12209 0.91517 0.45464 0.0
C1102 C 0.13354 0.90468 0.12997 0.0
C1103 C 0.11807 0.90827 0.08257 0.0
C1104 C 0.13379 0.91091 0.20644 0.0
C1105 C 0.11841 0.92058 0.23745 0.0
C1106 C 0.10313 0.92459 0.18905 0.0
C1107 C 0.10305 0.91861 0.11215 0.0
H1108 H 0.3829 0.77725 0.65405 0.0
H1109 H 0.44003 0.78903 0.71792 0.0
H1110 H 0.39147 0.77894 0.51835 0.0
H1111 H 0.44824 0.79189 0.58266 0.0
H1112 H 0.46032 0.76336 0.348 0.0
H1113 H 0.45245 0.76939 0.48246 0.0
H1114 H 0.40167 0.79706 0.41023 0.0
H1115 H 0.40904 0.79007 0.27609 0.0
C1116 C 0.39721 0.78048 0.63947 0.0
C1117 C 0.41079 0.78255 0.69755 0.0
C1118 C 0.40208 0.78173 0.56141 0.0
C1119 C 0.42063 0.7853 0.53954 0.0
C1120 C 0.43392 0.78871 0.59752 0.0
C1121 C 0.42909 0.78729 0.67552 0.0
C1122 C 0.44753 0.7708 0.3608 0.0
C1123 C 0.43528 0.77604 0.30121 0.0
C1124 C 0.44311 0.7745 0.43791 0.0
C1125 C 0.42637 0.78366 0.45726 0.0
C1126 C 0.41455 0.78976 0.39741 0.0
C1127 C 0.41893 0.78595 0.32026 0.0
H1128 H 0.57947 0.09539 0.6569 0.0
H1129 H 0.5364 0.13404 0.7287 0.0
H1130 H 0.58526 0.08707 0.79167 0.0
H1131 H 0.54213 0.12566 0.86366 0.0
H1132 H 0.5416 0.09047 0.08171 0.0
H1133 H 0.53728 0.09738 0.94471 0.0
H1134 H 0.59697 0.1007 0.91496 0.0
H1135 H 0.60129 0.09388 0.0522 0.0
C1136 C 0.57151 0.10242 0.70151 0.0
C1137 C 0.5575 0.11545 0.68236 0.0
C1138 C 0.57476 0.09755 0.77866 0.0
C1139 C 0.56402 0.10557 0.83798 0.0
C1140 C 0.55037 0.11897 0.81894 0.0
C1141 C 0.54715 0.12385 0.74192 0.0
C1142 C 0.55379 0.09261 0.04586 0.0
C1143 C 0.57176 0.09182 0.07792 0.0
C1144 C 0.55132 0.09662 0.96756 0.0
C1145 C 0.56678 0.09987 0.91956 0.0
C1146 C 0.5848 0.09819 0.95063 0.0
C1147 C 0.58727 0.09421 0.02915 0.0
H1148 H 0.21343 0.24769 0.86026 0.0
H1149 H 0.25419 0.20643 0.78934 0.0
H1150 H 0.21834 0.2389 0.99442 0.0
H1151 H 0.25841 0.19699 0.92314 0.0
H1152 H 0.28249 0.21198 0.16603 0.0
H1153 H 0.27363 0.21174 0.03035 0.0
H1154 H 0.2156 0.21595 0.09544 0.0
H1155 H 0.22456 0.21721 0.231 0.0
C1156 C 0.22327 0.23658 0.87299 0.0
C1157 C 0.23372 0.22812 0.81373 0.0
C1158 C 0.22587 0.23131 0.95003 0.0
C1159 C 0.23891 0.21733 0.96966 0.0
C1160 C 0.24848 0.20802 0.91007 0.0
C1161 C 0.24593 0.21336 0.83302 0.0
C1162 C 0.26784 0.21268 0.15142 0.0
C1163 C 0.25431 0.21502 0.20939 0.0
C1164 C 0.26271 0.2123 0.07357 0.0
C1165 C 0.2439 0.21409 0.05197 0.0
C1166 C 0.23024 0.2149 0.11018 0.0
C1167 C 0.23539 0.2154 0.1881 0.0
H1168 H 0.94764 0.27324 0.2165 0.0
H1169 H 0.89837 0.30406 0.14901 0.0
H1170 H 0.95618 0.2695 0.08092 0.0
H1171 H 0.90677 0.30004 0.01286 0.0
H1172 H 0.9344 0.29937 0.77631 0.0
H1173 H 0.93123 0.30786 0.91214 0.0
H1174 H 0.94055 0.25 0.97741 0.0
H1175 H 0.9433 0.24136 0.84151 0.0
C1176 C 0.93889 0.27965 0.17278 0.0
C1177 C 0.92229 0.28893 0.19307 0.0
C1178 C 0.94368 0.27732 0.09523 0.0
C1179 C 0.93204 0.28433 0.03671 0.0
C1180 C 0.91603 0.29458 0.05701 0.0
C1181 C 0.91116 0.29679 0.13462 0.0
C1182 C 0.93566 0.28841 0.81944 0.0
C1183 C 0.93881 0.2696 0.79792 0.0
C1184 C 0.93397 0.29333 0.89718 0.0
C1185 C 0.93561 0.27959 0.95496 0.0
C1186 C 0.93946 0.26092 0.93386 0.0
C1187 C 0.94101 0.25596 0.85604 0.0
H1188 H 0.74466 0.70803 0.82306 0.0
H1189 H 0.74512 0.76837 0.80026 0.0
H1190 H 0.73634 0.70493 0.68691 0.0
H1191 H 0.73588 0.76554 0.66471 0.0
H1192 H 0.73724 0.75285 0.40725 0.0
H1193 H 0.74581 0.7566 0.54124 0.0
H1194 H 0.71107 0.70921 0.60248 0.0
H1195 H 0.70366 0.70442 0.46724 0.0
C1196 C 0.74295 0.72061 0.7884 0.0
C1197 C 0.74559 0.73841 0.82137 0.0
C1198 C 0.73798 0.7189 0.71079 0.0
C1199 C 0.73519 0.73499 0.66486 0.0
C1200 C 0.73813 0.75283 0.69794 0.0
C1201 C 0.74344 0.7545 0.7754 0.0
C1202 C 0.73154 0.743 0.44857 0.0
C1203 C 0.72002 0.72801 0.42514 0.0
C1204 C 0.73627 0.74538 0.52617 0.0
C1205 C 0.72934 0.73308 0.58282 0.0
C1206 C 0.71709 0.71867 0.56015 0.0
C1207 C 0.71259 0.71608 0.48229 0.0
H1208 H 0.74195 0.30479 0.67084 0.0
H1209 H 0.71881 0.25024 0.61608 0.0
H1210 H 0.74934 0.30961 0.53449 0.0
H1211 H 0.72573 0.25538 0.48026 0.0
H1212 H 0.72616 0.27717 0.2358 0.0
H1213 H 0.71657 0.27679 0.37061 0.0
H1214 H 0.77194 0.29369 0.43974 0.0
H1215 H 0.78154 0.29446 0.30355 0.0
C1216 C 0.73839 0.29384 0.63004 0.0
C1217 C 0.72995 0.27702 0.6549 0.0
C1218 C 0.74259 0.29666 0.55201 0.0
C1219 C 0.73816 0.28284 0.49723 0.0
C1220 C 0.72912 0.26636 0.52138 0.0
C1221 C 0.72509 0.26344 0.59937 0.0
C1222 C 0.73621 0.28126 0.2794 0.0
C1223 C 0.75462 0.28595 0.25922 0.0
C1224 C 0.73074 0.28083 0.35664 0.0
C1225 C 0.74353 0.28514 0.41532 0.0
C1226 C 0.76178 0.29044 0.39532 0.0
C1227 C 0.76731 0.29074 0.31778 0.0
H1228 H 0.93843 0.75945 0.10368 0.0
H1229 H 0.94254 0.69955 0.14122 0.0
H1230 H 0.92975 0.75408 0.96985 0.0
H1231 H 0.93356 0.69414 0.00559 0.0
H1232 H 0.93787 0.70027 0.72838 0.0
H1233 H 0.94657 0.70166 0.86557 0.0
H1234 H 0.90078 0.7396 0.90834 0.0
H1235 H 0.89228 0.73848 0.77221 0.0
C1236 C 0.93779 0.74511 0.08308 0.0
C1237 C 0.94131 0.72991 0.13302 0.0
C1238 C 0.93256 0.74204 0.00656 0.0
C1239 C 0.93081 0.7237 0.97775 0.0
C1240 C 0.93482 0.70842 0.02662 0.0
C1241 C 0.93988 0.7115 0.10397 0.0
C1242 C 0.9296 0.70877 0.76734 0.0
C1243 C 0.91446 0.71936 0.73927 0.0
C1244 C 0.93449 0.70945 0.84576 0.0
C1245 C 0.92444 0.72089 0.8971 0.0
C1246 C 0.90887 0.73082 0.86968 0.0
C1247 C 0.9039 0.73003 0.79176 0.0
H1248 H 0.63791 0.60857 0.34048 0.0
H1249 H 0.5966 0.56815 0.41473 0.0
H1250 H 0.63249 0.59966 0.20639 0.0
H1251 H 0.5909 0.55959 0.28014 0.0
H1252 H 0.57096 0.57352 0.02598 0.0
H1253 H 0.57739 0.57655 0.16347 0.0
H1254 H 0.63636 0.57149 0.11843 0.0
H1255 H 0.63 0.56799 0.98067 0.0
C1256 C 0.6278 0.59768 0.32834 0.0
C1257 C 0.61764 0.58918 0.38843 0.0
C1258 C 0.62472 0.59256 0.25156 0.0
C1259 C 0.61133 0.5789 0.23313 0.0
C1260 C 0.60121 0.57028 0.29294 0.0
C1261 C 0.60439 0.5753 0.36994 0.0
C1262 C 0.58528 0.57256 0.04514 0.0
C1263 C 0.59998 0.57078 0.99175 0.0
C1264 C 0.58894 0.57434 0.12411 0.0
C1265 C 0.60737 0.57447 0.15124 0.0
C1266 C 0.62203 0.57175 0.09866 0.0
C1267 C 0.61837 0.56982 0.01977 0.0
H1268 H 0.07052 0.44199 0.9223 0.0
H1269 H 0.04262 0.39145 0.84578 0.0
H1270 H 0.07373 0.45213 0.78787 0.0
H1271 H 0.0454 0.40188 0.71212 0.0
H1272 H 0.09747 0.44373 0.53342 0.0
H1273 H 0.09185 0.4393 0.67073 0.0
H1274 H 0.03374 0.42844 0.62459 0.0
H1275 H 0.03907 0.43343 0.48694 0.0
C1276 C 0.06516 0.43298 0.87709 0.0
C1277 C 0.05644 0.41578 0.89496 0.0
C1278 C 0.06688 0.43888 0.80019 0.0
C1279 C 0.05972 0.42783 0.73984 0.0
C1280 C 0.05076 0.41083 0.75768 0.0
C1281 C 0.04921 0.40484 0.83428 0.0
C1282 C 0.08337 0.44088 0.55204 0.0
C1283 C 0.0688 0.43861 0.49813 0.0
C1284 C 0.08018 0.43832 0.63109 0.0
C1285 C 0.06243 0.4333 0.65798 0.0
C1286 C 0.04765 0.43201 0.60503 0.0
C1287 C 0.05076 0.43478 0.52606 0.0
H1288 H 0.64327 0.42274 0.57485 0.0
H1289 H 0.58377 0.41543 0.5521 0.0
H1290 H 0.63922 0.43247 0.70881 0.0
H1291 H 0.57967 0.42526 0.68672 0.0
H1292 H 0.57848 0.4551 0.91989 0.0
H1293 H 0.58363 0.45203 0.78069 0.0
H1294 H 0.62966 0.41439 0.82476 0.0
H1295 H 0.62442 0.41707 0.96245 0.0
C1296 C 0.62932 0.42314 0.59862 0.0
C1297 C 0.61384 0.4179 0.55371 0.0
C1298 C 0.62701 0.42884 0.6751 0.0
C1299 C 0.60916 0.42945 0.70825 0.0
C1300 C 0.59358 0.42507 0.66236 0.0
C1301 C 0.59591 0.41936 0.58562 0.0
C1302 C 0.58974 0.44624 0.89988 0.0
C1303 C 0.60093 0.43626 0.95275 0.0
C1304 C 0.59269 0.44452 0.82025 0.0
C1305 C 0.607 0.43295 0.79209 0.0
C1306 C 0.61868 0.42363 0.84483 0.0
C1307 C 0.61567 0.42523 0.92414 0.0
H1308 H 0.08649 0.53485 0.38243 0.0
H1309 H 0.04423 0.57715 0.42167 0.0
H1310 H 0.08136 0.53752 0.24305 0.0
H1311 H 0.03898 0.57946 0.28374 0.0
H1312 H 0.02492 0.57218 0.03447 0.0
H1313 H 0.02787 0.56195 0.16851 0.0
H1314 H 0.08786 0.56353 0.14771 0.0
H1315 H 0.08486 0.57385 0.01317 0.0
C1316 C 0.07603 0.54457 0.36166 0.0
C1317 C 0.06592 0.5559 0.41356 0.0
C1318 C 0.07308 0.54605 0.28193 0.0
C1319 C 0.05983 0.55873 0.25273 0.0
C1320 C 0.04911 0.56936 0.30464 0.0
C1321 C 0.05214 0.568 0.38406 0.0
C1322 C 0.03873 0.5704 0.05855 0.0
C1323 C 0.05469 0.57427 0.01415 0.0
C1324 C 0.04041 0.56441 0.13503 0.0
C1325 C 0.05808 0.56215 0.16862 0.0
C1326 C 0.07405 0.56502 0.12303 0.0
C1327 C 0.07236 0.57101 0.04632 0.0
loop_
_geom_bond_atom_site_label_1
_geom_bond_atom_site_label_2
_geom_bond_distance
_geom_bond_site_symmetry_2
_ccdc_geom_bond_type
C0 C1 1.351 . S
C0 N3 1.368 . S
C0 H5 0.931 . S
C1 C0 1.351 . S
C1 N2 1.373 . S
C1 H29 0.930 . S
N2 C1 1.373 . S
N2 C4 1.340 . S
N3 C0 1.368 . S
N3 C4 1.321 . S
N3 Co6 2.135 . S
C4 N2 1.340 . S
C4 N3 1.321 . S
C4 H28 0.930 . S
H5 C0 0.931 . S
Co6 N3 2.135 . S
Co6 N9 2.121 . S
Co6 O14 2.055 . S
Co6 O17 2.039 . S
Co6 N20 2.140 . S
C7 O8 1.227 . S
C7 O17 1.265 . S
O8 C7 1.227 . S
N9 Co6 2.121 . S
N9 C11 1.375 . S
N9 C12 1.313 . S
C10 C11 1.338 . S
C10 N13 1.377 . S
C10 H30 0.930 . S
C11 N9 1.375 . S
C11 C10 1.338 . S
C11 H15 0.931 . S
C12 N9 1.313 . S
C12 N13 1.344 . S
C12 H16 0.930 . S
N13 C10 1.377 . S
N13 C12 1.344 . S
O14 Co6 2.055 . S
O14 C18 1.253 . S
H15 C11 0.931 . S
H16 C12 0.930 . S
O17 Co6 2.039 . S
O17 C7 1.265 . S
C18 O14 1.253 . S
C18 O19 1.227 . S
O19 C18 1.227 . S
N20 Co6 2.140 . S
N20 C23 1.346 . S
N20 C24 1.345 . S
C21 C22 1.387 . S
C21 C25 1.391 . S
C22 C21 1.387 . S
C22 C23 1.369 . S
C22 H31 0.929 . S
C23 N20 1.346 . S
C23 C22 1.369 . S
C23 H26 0.928 . S
C24 N20 1.345 . S
C24 C25 1.371 . S
C24 H27 0.931 . S
C25 C21 1.391 . S
C25 C24 1.371 . S
C25 H32 0.930 . S
H26 C23 0.928 . S
H27 C24 0.931 . S
H28 C4 0.930 . S
H29 C1 0.930 . S
H30 C10 0.930 . S
H31 C22 0.929 . S
H32 C25 0.930 . S
C33 C34 1.351 . S
C33 N36 1.368 . S
C33 H38 0.931 . S
C34 C33 1.351 . S
C34 N35 1.373 . S
C34 H62 0.930 . S
N35 C34 1.373 . S
N35 C37 1.340 . S
N36 C33 1.368 . S
N36 C37 1.321 . S
N36 Co39 2.135 . S
C37 N35 1.340 . S
C37 N36 1.321 . S
C37 H61 0.930 . S
H38 C33 0.931 . S
Co39 N36 2.135 . S
Co39 N42 2.121 . S
Co39 O47 2.055 . S
Co39 O50 2.039 . S
Co39 N53 2.140 . S
C40 O41 1.227 . S
C40 O50 1.265 . S
O41 C40 1.227 . S
N42 Co39 2.121 . S
N42 C44 1.375 . S
N42 C45 1.313 . S
C43 C44 1.338 . S
C43 N46 1.377 . S
C43 H63 0.930 . S
C44 N42 1.375 . S
C44 C43 1.338 . S
C44 H48 0.931 . S
C45 N42 1.313 . S
C45 N46 1.344 . S
C45 H49 0.930 . S
N46 C43 1.377 . S
N46 C45 1.344 . S
O47 Co39 2.055 . S
O47 C51 1.253 . S
H48 C44 0.931 . S
H49 C45 0.930 . S
O50 Co39 2.039 . S
O50 C40 1.265 . S
C51 O47 1.253 . S
C51 O52 1.227 . S
O52 C51 1.227 . S
N53 Co39 2.140 . S
N53 C56 1.346 . S
N53 C57 1.345 . S
C54 C55 1.387 . S
C54 C58 1.391 . S
C55 C54 1.387 . S
C55 C56 1.369 . S
C55 H64 0.929 . S
C56 N53 1.346 . S
C56 C55 1.369 . S
C56 H59 0.928 . S
C57 N53 1.345 . S
C57 C58 1.371 . S
C57 H60 0.931 . S
C58 C54 1.391 . S
C58 C57 1.371 . S
C58 H65 0.930 . S
H59 C56 0.928 . S
H60 C57 0.931 . S
H61 C37 0.930 . S
H62 C34 0.930 . S
H63 C43 0.930 . S
H64 C55 0.929 . S
H65 C58 0.930 . S
C66 C67 1.351 1_556 S
C66 N69 1.368 . S
C66 H71 0.931 . S
C67 C66 1.351 1_554 S
C67 N68 1.373 . S
C67 H95 0.930 . S
N68 C67 1.373 . S
N68 C70 1.340 1_554 S
N69 C66 1.368 . S
N69 C70 1.321 . S
N69 Co72 2.135 . S
C70 N68 1.340 1_556 S
C70 N69 1.321 . S
C70 H94 0.930 . S
H71 C66 0.931 . S
Co72 N69 2.135 . S
Co72 N75 2.121 . S
Co72 O80 2.055 . S
Co72 O83 2.039 . S
Co72 N86 2.140 . S
C73 O74 1.227 . S
C73 O83 1.265 . S
O74 C73 1.227 . S
N75 Co72 2.121 . S
N75 C77 1.375 . S
N75 C78 1.313 . S
C76 C77 1.338 . S
C76 N79 1.377 . S
C76 H96 0.930 . S
C77 N75 1.375 . S
C77 C76 1.338 . S
C77 H81 0.931 . S
C78 N75 1.313 . S
C78 N79 1.344 . S
C78 H82 0.930 . S
N79 C76 1.377 . S
N79 C78 1.344 . S
O80 Co72 2.055 . S
O80 C84 1.253 . S
H81 C77 0.931 . S
H82 C78 0.930 . S
O83 Co72 2.039 . S
O83 C73 1.265 . S
C84 O80 1.253 . S
C84 O85 1.227 . S
O85 C84 1.227 . S
N86 Co72 2.140 . S
N86 C89 1.346 . S
N86 C90 1.345 . S
C87 C88 1.387 . S
C87 C91 1.391 . S
C88 C87 1.387 . S
C88 C89 1.369 . S
C88 H97 0.929 . S
C89 N86 1.346 . S
C89 C88 1.369 . S
C89 H92 0.928 . S
C90 N86 1.345 . S
C90 C91 1.371 . S
C90 H93 0.931 . S
C91 C87 1.391 . S
C91 C90 1.371 . S
C91 H98 0.930 . S
H92 C89 0.928 . S
H93 C90 0.931 . S
H94 C70 0.930 . S
H95 C67 0.930 . S
H96 C76 0.930 . S
H97 C88 0.929 . S
H98 C91 0.930 . S
C99 C100 1.351 . S
C99 N102 1.368 . S
C99 H104 0.931 . S
C100 C99 1.351 . S
C100 N101 1.373 . S
C100 H128 0.930 . S
N101 C100 1.373 . S
N101 C103 1.340 . S
N102 C99 1.368 . S
N102 C103 1.321 . S
N102 Co105 2.135 1_554 S
C103 N101 1.340 . S
C103 N102 1.321 . S
C103 H127 0.930 . S
H104 C99 0.931 . S
Co105 N102 2.135 1_556 S
Co105 N108 2.121 . S
Co105 O113 2.055 . S
Co105 O116 2.039 1_556 S
Co105 N119 2.140 1_556 S
C106 O107 1.227 . S
C106 O116 1.265 . S
O107 C106 1.227 . S
N108 Co105 2.121 . S
N108 C110 1.375 . S
N108 C111 1.313 . S
C109 C110 1.338 . S
C109 N112 1.377 . S
C109 H129 0.930 . S
C110 N108 1.375 . S
C110 C109 1.338 . S
C110 H114 0.931 . S
C111 N108 1.313 . S
C111 N112 1.344 . S
C111 H115 0.930 . S
N112 C109 1.377 . S
N112 C111 1.344 . S
O113 Co105 2.055 . S
O113 C117 1.253 . S
H114 C110 0.931 . S
H115 C111 0.930 . S
O116 Co105 2.039 1_554 S
O116 C106 1.265 . S
C117 O113 1.253 . S
C117 O118 1.227 . S
O118 C117 1.227 . S
N119 Co105 2.140 1_554 S
N119 C122 1.346 . S
N119 C123 1.345 1_554 S
C120 C121 1.387 . S
C120 C124 1.391 1_554 S
C121 C120 1.387 . S
C121 C122 1.369 . S
C121 H130 0.929 . S
C122 N119 1.346 . S
C122 C121 1.369 . S
C122 H125 0.928 . S
C123 N119 1.345 1_556 S
C123 C124 1.371 . S
C123 H126 0.931 . S
C124 C120 1.391 1_556 S
C124 C123 1.371 . S
C124 H131 0.930 . S
H125 C122 0.928 . S
H126 C123 0.931 . S
H127 C103 0.930 . S
H128 C100 0.930 . S
H129 C109 0.930 . S
H130 C121 0.929 . S
H131 C124 0.930 . S
C132 C133 1.351 . S
C132 N135 1.368 . S
C132 H137 0.931 . S
C133 C132 1.351 . S
C133 N134 1.373 . S
C133 H161 0.930 . S
N134 C133 1.373 . S
N134 C136 1.340 . S
N135 C132 1.368 . S
N135 C136 1.321 . S
N135 Co138 2.135 . S
C136 N134 1.340 . S
C136 N135 1.321 . S
C136 H160 0.930 . S
H137 C132 0.931 . S
Co138 N135 2.135 . S
Co138 N141 2.121 . S
Co138 O146 2.055 . S
Co138 O149 2.039 . S
Co138 N152 2.140 . S
C139 O140 1.227 . S
C139 O149 1.265 . S
O140 C139 1.227 . S
N141 Co138 2.121 . S
N141 C143 1.375 . S
N141 C144 1.313 . S
C142 C143 1.338 . S
C142 N145 1.377 . S
C142 H162 0.930 . S
C143 N141 1.375 . S
C143 C142 1.338 . S
C143 H147 0.931 . S
C144 N141 1.313 . S
C144 N145 1.344 . S
C144 H148 0.930 . S
N145 C142 1.377 . S
N145 C144 1.344 . S
O146 Co138 2.055 . S
O146 C150 1.253 . S
H147 C143 0.931 . S
H148 C144 0.930 . S
O149 Co138 2.039 . S
O149 C139 1.265 . S
C150 O146 1.253 . S
C150 O151 1.227 . S
O151 C150 1.227 . S
N152 Co138 2.140 . S
N152 C155 1.346 . S
N152 C156 1.345 . S
C153 C154 1.387 . S
C153 C157 1.391 . S
C154 C153 1.387 . S
C154 C155 1.369 . S
C154 H163 0.929 . S
C155 N152 1.346 . S
C155 C154 1.369 . S
C155 H158 0.928 . S
C156 N152 1.345 . S
C156 C157 1.371 . S
C156 H159 0.931 . S
C157 C153 1.391 . S
C157 C156 1.371 . S
C157 H164 0.930 . S
H158 C155 0.928 . S
H159 C156 0.931 . S
H160 C136 0.930 . S
H161 C133 0.930 . S
H162 C142 0.930 . S
H163 C154 0.929 . S
H164 C157 0.930 . S
C165 C166 1.351 . S
C165 N168 1.368 . S
C165 H170 0.931 . S
C166 C165 1.351 . S
C166 N167 1.373 . S
C166 H194 0.930 . S
N167 C166 1.373 . S
N167 C169 1.340 . S
N168 C165 1.368 . S
N168 C169 1.321 . S
N168 Co171 2.135 1_556 S
C169 N167 1.340 . S
C169 N168 1.321 . S
C169 H193 0.930 . S
H170 C165 0.931 . S
Co171 N168 2.135 1_554 S
Co171 N174 2.121 . S
Co171 O179 2.055 . S
Co171 O182 2.039 1_554 S
Co171 N185 2.140 1_554 S
C172 O173 1.227 . S
C172 O182 1.265 . S
O173 C172 1.227 . S
N174 Co171 2.121 . S
N174 C176 1.375 . S
N174 C177 1.313 . S
C175 C176 1.338 . S
C175 N178 1.377 . S
C175 H195 0.930 . S
C176 N174 1.375 . S
C176 C175 1.338 . S
C176 H180 0.931 . S
C177 N174 1.313 . S
C177 N178 1.344 . S
C177 H181 0.930 . S
N178 C175 1.377 . S
N178 C177 1.344 . S
O179 Co171 2.055 . S
O179 C183 1.253 . S
H180 C176 0.931 . S
H181 C177 0.930 . S
O182 Co171 2.039 1_556 S
O182 C172 1.265 . S
C183 O179 1.253 . S
C183 O184 1.227 . S
O184 C183 1.227 . S
N185 Co171 2.140 1_556 S
N185 C188 1.346 . S
N185 C189 1.345 1_556 S
C186 C187 1.387 . S
C186 C190 1.391 1_556 S
C187 C186 1.387 . S
C187 C188 1.369 . S
C187 H196 0.929 . S
C188 N185 1.346 . S
C188 C187 1.369 . S
C188 H191 0.928 . S
C189 N185 1.345 1_554 S
C189 C190 1.371 . S
C189 H192 0.931 . S
C190 C186 1.391 1_554 S
C190 C189 1.371 . S
C190 H197 0.930 . S
H191 C188 0.928 . S
H192 C189 0.931 . S
H193 C169 0.930 . S
H194 C166 0.930 . S
H195 C175 0.930 . S
H196 C187 0.929 . S
H197 C190 0.930 . S
C198 C199 1.351 1_554 S
C198 N201 1.368 . S
C198 H203 0.931 . S
C199 C198 1.351 1_556 S
C199 N200 1.373 . S
C199 H227 0.930 . S
N200 C199 1.373 . S
N200 C202 1.340 1_556 S
N201 C198 1.368 . S
N201 C202 1.321 . S
N201 Co204 2.135 . S
C202 N200 1.340 1_554 S
C202 N201 1.321 . S
C202 H226 0.930 . S
H203 C198 0.931 . S
Co204 N201 2.135 . S
Co204 N207 2.121 . S
Co204 O212 2.055 . S
Co204 O215 2.039 . S
Co204 N218 2.140 . S
C205 O206 1.227 . S
C205 O215 1.265 . S
O206 C205 1.227 . S
N207 Co204 2.121 . S
N207 C209 1.375 . S
N207 C210 1.313 . S
C208 C209 1.338 . S
C208 N211 1.377 . S
C208 H228 0.930 . S
C209 N207 1.375 . S
C209 C208 1.338 . S
C209 H213 0.931 . S
C210 N207 1.313 . S
C210 N211 1.344 . S
C210 H214 0.930 . S
N211 C208 1.377 . S
N211 C210 1.344 . S
O212 Co204 2.055 . S
O212 C216 1.253 . S
H213 C209 0.931 . S
H214 C210 0.930 . S
O215 Co204 2.039 . S
O215 C205 1.265 . S
C216 O212 1.253 . S
C216 O217 1.227 . S
O217 C216 1.227 . S
N218 Co204 2.140 . S
N218 C221 1.346 . S
N218 C222 1.345 . S
C219 C220 1.387 . S
C219 C223 1.391 . S
C220 C219 1.387 . S
C220 C221 1.369 . S
C220 H229 0.929 . S
C221 N218 1.346 . S
C221 C220 1.369 . S
C221 H224 0.928 . S
C222 N218 1.345 . S
C222 C223 1.371 . S
C222 H225 0.931 . S
C223 C219 1.391 . S
C223 C222 1.371 . S
C223 H230 0.930 . S
H224 C221 0.928 . S
H225 C222 0.931 . S
H226 C202 0.930 . S
H227 C199 0.930 . S
H228 C208 0.930 . S
H229 C220 0.929 . S
H230 C223 0.930 . S
C231 C232 1.351 . S
C231 N234 1.368 . S
C231 H236 0.931 . S
C232 C231 1.351 . S
C232 N233 1.373 . S
C232 H260 0.930 . S
N233 C232 1.373 . S
N233 C235 1.340 . S
N234 C231 1.368 . S
N234 C235 1.321 . S
N234 Co237 2.135 . S
C235 N233 1.340 . S
C235 N234 1.321 . S
C235 H259 0.930 . S
H236 C231 0.931 . S
Co237 N234 2.135 . S
Co237 N240 2.121 . S
Co237 O245 2.055 . S
Co237 O248 2.039 . S
Co237 N251 2.140 . S
C238 O239 1.227 . S
C238 O248 1.265 . S
O239 C238 1.227 . S
N240 Co237 2.121 . S
N240 C242 1.375 . S
N240 C243 1.313 . S
C241 C242 1.338 . S
C241 N244 1.377 . S
C241 H261 0.930 . S
C242 N240 1.375 . S
C242 C241 1.338 . S
C242 H246 0.931 . S
C243 N240 1.313 . S
C243 N244 1.344 . S
C243 H247 0.930 . S
N244 C241 1.377 . S
N244 C243 1.344 . S
O245 Co237 2.055 . S
O245 C249 1.253 . S
H246 C242 0.931 . S
H247 C243 0.930 . S
O248 Co237 2.039 . S
O248 C238 1.265 . S
C249 O245 1.253 . S
C249 O250 1.227 . S
O250 C249 1.227 . S
N251 Co237 2.140 . S
N251 C254 1.346 . S
N251 C255 1.345 . S
C252 C253 1.387 . S
C252 C256 1.391 . S
C253 C252 1.387 . S
C253 C254 1.369 . S
C253 H262 0.929 . S
C254 N251 1.346 . S
C254 C253 1.369 . S
C254 H257 0.928 . S
C255 N251 1.345 . S
C255 C256 1.371 . S
C255 H258 0.931 . S
C256 C252 1.391 . S
C256 C255 1.371 . S
C256 H263 0.930 . S
H257 C254 0.928 . S
H258 C255 0.931 . S
H259 C235 0.930 . S
H260 C232 0.930 . S
H261 C241 0.930 . S
H262 C253 0.929 . S
H263 C256 0.930 . S
C264 C265 1.351 . S
C264 N267 1.368 . S
C264 H269 0.931 . S
C265 C264 1.351 . S
C265 N266 1.373 . S
C265 H293 0.930 . S
N266 C265 1.373 . S
N266 C268 1.340 . S
N267 C264 1.368 . S
N267 C268 1.321 . S
N267 Co270 2.135 . S
C268 N266 1.340 . S
C268 N267 1.321 . S
C268 H292 0.930 . S
H269 C264 0.931 . S
Co270 N267 2.135 . S
Co270 N273 2.121 . S
Co270 O278 2.055 . S
Co270 O281 2.039 . S
Co270 N284 2.140 . S
C271 O272 1.227 . S
C271 O281 1.265 . S
O272 C271 1.227 . S
N273 Co270 2.121 . S
N273 C275 1.375 . S
N273 C276 1.313 . S
C274 C275 1.338 . S
C274 N277 1.377 . S
C274 H294 0.930 . S
C275 N273 1.375 . S
C275 C274 1.338 . S
C275 H279 0.931 . S
C276 N273 1.313 . S
C276 N277 1.344 . S
C276 H280 0.930 . S
N277 C274 1.377 . S
N277 C276 1.344 . S
O278 Co270 2.055 . S
O278 C282 1.253 . S
H279 C275 0.931 . S
H280 C276 0.930 . S
O281 Co270 2.039 . S
O281 C271 1.265 . S
C282 O278 1.253 . S
C282 O283 1.227 . S
O283 C282 1.227 . S
N284 Co270 2.140 . S
N284 C287 1.346 . S
N284 C288 1.345 . S
C285 C286 1.387 . S
C285 C289 1.391 . S
C286 C285 1.387 . S
C286 C287 1.369 . S
C286 H295 0.929 . S
C287 N284 1.346 . S
C287 C286 1.369 . S
C287 H290 0.928 . S
C288 N284 1.345 . S
C288 C289 1.371 . S
C288 H291 0.931 . S
C289 C285 1.391 . S
C289 C288 1.371 . S
C289 H296 0.930 . S
H290 C287 0.928 . S
H291 C288 0.931 . S
H292 C268 0.930 . S
H293 C265 0.930 . S
H294 C274 0.930 . S
H295 C286 0.929 . S
H296 C289 0.930 . S
C297 C298 1.351 . S
C297 N300 1.368 . S
C297 H302 0.931 . S
C298 C297 1.351 . S
C298 N299 1.373 . S
C298 H326 0.930 . S
N299 C298 1.373 . S
N299 C301 1.340 . S
N300 C297 1.368 . S
N300 C301 1.321 . S
N300 Co303 2.135 1_556 S
C301 N299 1.340 . S
C301 N300 1.321 . S
C301 H325 0.930 . S
H302 C297 0.931 . S
Co303 N300 2.135 1_554 S
Co303 N306 2.121 . S
Co303 O311 2.055 . S
Co303 O314 2.039 1_554 S
Co303 N317 2.140 1_554 S
C304 O305 1.227 . S
C304 O314 1.265 . S
O305 C304 1.227 . S
N306 Co303 2.121 . S
N306 C308 1.375 . S
N306 C309 1.313 . S
C307 C308 1.338 . S
C307 N310 1.377 . S
C307 H327 0.930 . S
C308 N306 1.375 . S
C308 C307 1.338 . S
C308 H312 0.931 . S
C309 N306 1.313 . S
C309 N310 1.344 . S
C309 H313 0.930 . S
N310 C307 1.377 . S
N310 C309 1.344 . S
O311 Co303 2.055 . S
O311 C315 1.253 . S
H312 C308 0.931 . S
H313 C309 0.930 . S
O314 Co303 2.039 1_556 S
O314 C304 1.265 . S
C315 O311 1.253 . S
C315 O316 1.227 . S
O316 C315 1.227 . S
N317 Co303 2.140 1_556 S
N317 C320 1.346 . S
N317 C321 1.345 1_556 S
C318 C319 1.387 . S
C318 C322 1.391 1_556 S
C319 C318 1.387 . S
C319 C320 1.369 . S
C319 H328 0.929 . S
C320 N317 1.346 . S
C320 C319 1.369 . S
C320 H323 0.928 . S
C321 N317 1.345 1_554 S
C321 C322 1.371 . S
C321 H324 0.931 . S
C322 C318 1.391 1_554 S
C322 C321 1.371 . S
C322 H329 0.930 . S
H323 C320 0.928 . S
H324 C321 0.931 . S
H325 C301 0.930 . S
H326 C298 0.930 . S
H327 C307 0.930 . S
H328 C319 0.929 . S
H329 C322 0.930 . S
C330 C331 1.351 . S
C330 N333 1.368 . S
C330 H335 0.931 . S
C331 C330 1.351 . S
C331 N332 1.373 . S
C331 H359 0.930 . S
N332 C331 1.373 . S
N332 C334 1.340 . S
N333 C330 1.368 . S
N333 C334 1.321 . S
N333 Co336 2.135 1_554 S
C334 N332 1.340 . S
C334 N333 1.321 . S
C334 H358 0.930 . S
H335 C330 0.931 . S
Co336 N333 2.135 1_556 S
Co336 N339 2.121 . S
Co336 O344 2.055 . S
Co336 O347 2.039 1_556 S
Co336 N350 2.140 1_556 S
C337 O338 1.227 . S
C337 O347 1.265 . S
O338 C337 1.227 . S
N339 Co336 2.121 . S
N339 C341 1.375 . S
N339 C342 1.313 . S
C340 C341 1.338 . S
C340 N343 1.377 . S
C340 H360 0.930 . S
C341 N339 1.375 . S
C341 C340 1.338 . S
C341 H345 0.931 . S
C342 N339 1.313 . S
C342 N343 1.344 . S
C342 H346 0.930 . S
N343 C340 1.377 . S
N343 C342 1.344 . S
O344 Co336 2.055 . S
O344 C348 1.253 . S
H345 C341 0.931 . S
H346 C342 0.930 . S
O347 Co336 2.039 1_554 S
O347 C337 1.265 . S
C348 O344 1.253 . S
C348 O349 1.227 . S
O349 C348 1.227 . S
N350 Co336 2.140 1_554 S
N350 C353 1.346 . S
N350 C354 1.345 1_554 S
C351 C352 1.387 . S
C351 C355 1.391 1_554 S
C352 C351 1.387 . S
C352 C353 1.369 . S
C352 H361 0.929 . S
C353 N350 1.346 . S
C353 C352 1.369 . S
C353 H356 0.928 . S
C354 N350 1.345 1_556 S
C354 C355 1.371 . S
C354 H357 0.931 . S
C355 C351 1.391 1_556 S
C355 C354 1.371 . S
C355 H362 0.930 . S
H356 C353 0.928 . S
H357 C354 0.931 . S
H358 C334 0.930 . S
H359 C331 0.930 . S
H360 C340 0.930 . S
H361 C352 0.929 . S
H362 C355 0.930 . S
C363 C364 1.351 . S
C363 N366 1.368 . S
C363 H368 0.931 . S
C364 C363 1.351 . S
C364 N365 1.373 . S
C364 H392 0.930 . S
N365 C364 1.373 . S
N365 C367 1.340 . S
N366 C363 1.368 . S
N366 C367 1.321 . S
N366 Co369 2.135 . S
C367 N365 1.340 . S
C367 N366 1.321 . S
C367 H391 0.930 . S
H368 C363 0.931 . S
Co369 N366 2.135 . S
Co369 N372 2.121 . S
Co369 O377 2.055 . S
Co369 O380 2.039 . S
Co369 N383 2.140 . S
C370 O371 1.227 . S
C370 O380 1.265 . S
O371 C370 1.227 . S
N372 Co369 2.121 . S
N372 C374 1.375 . S
N372 C375 1.313 . S
C373 C374 1.338 . S
C373 N376 1.377 . S
C373 H393 0.930 . S
C374 N372 1.375 . S
C374 C373 1.338 . S
C374 H378 0.931 . S
C375 N372 1.313 . S
C375 N376 1.344 . S
C375 H379 0.930 . S
N376 C373 1.377 . S
N376 C375 1.344 . S
O377 Co369 2.055 . S
O377 C381 1.253 . S
H378 C374 0.931 . S
H379 C375 0.930 . S
O380 Co369 2.039 . S
O380 C370 1.265 . S
C381 O377 1.253 . S
C381 O382 1.227 . S
O382 C381 1.227 . S
N383 Co369 2.140 . S
N383 C386 1.346 . S
N383 C387 1.345 . S
C384 C385 1.387 . S
C384 C388 1.391 . S
C385 C384 1.387 . S
C385 C386 1.369 . S
C385 H394 0.929 . S
C386 N383 1.346 . S
C386 C385 1.369 . S
C386 H389 0.928 . S
C387 N383 1.345 . S
C387 C388 1.371 . S
C387 H390 0.931 . S
C388 C384 1.391 . S
C388 C387 1.371 . S
C388 H395 0.930 . S
H389 C386 0.928 . S
H390 C387 0.931 . S
H391 C367 0.930 . S
H392 C364 0.930 . S
H393 C373 0.930 . S
H394 C385 0.929 . S
H395 C388 0.930 . S
C396 C397 1.351 1_556 S
C396 N399 1.368 . S
C396 H401 0.931 . S
C397 C396 1.351 1_554 S
C397 N398 1.373 . S
C397 H425 0.930 . S
N398 C397 1.373 . S
N398 C400 1.340 1_554 S
N399 C396 1.368 . S
N399 C400 1.321 . S
N399 Co402 2.135 . S
C400 N398 1.340 1_556 S
C400 N399 1.321 . S
C400 H424 0.930 . S
H401 C396 0.931 . S
Co402 N399 2.135 . S
Co402 N405 2.121 . S
Co402 O410 2.055 . S
Co402 O413 2.039 . S
Co402 N416 2.140 . S
C403 O404 1.227 . S
C403 O413 1.265 . S
O404 C403 1.227 . S
N405 Co402 2.121 . S
N405 C407 1.375 . S
N405 C408 1.313 . S
C406 C407 1.338 . S
C406 N409 1.377 . S
C406 H426 0.930 . S
C407 N405 1.375 . S
C407 C406 1.338 . S
C407 H411 0.931 . S
C408 N405 1.313 . S
C408 N409 1.344 . S
C408 H412 0.930 . S
N409 C406 1.377 . S
N409 C408 1.344 . S
O410 Co402 2.055 . S
O410 C414 1.253 . S
H411 C407 0.931 . S
H412 C408 0.930 . S
O413 Co402 2.039 . S
O413 C403 1.265 . S
C414 O410 1.253 . S
C414 O415 1.227 . S
O415 C414 1.227 . S
N416 Co402 2.140 . S
N416 C419 1.346 . S
N416 C420 1.345 . S
C417 C418 1.387 . S
C417 C421 1.391 . S
C418 C417 1.387 . S
C418 C419 1.369 . S
C418 H427 0.929 . S
C419 N416 1.346 . S
C419 C418 1.369 . S
C419 H422 0.928 . S
C420 N416 1.345 . S
C420 C421 1.371 . S
C420 H423 0.931 . S
C421 C417 1.391 . S
C421 C420 1.371 . S
C421 H428 0.930 . S
H422 C419 0.928 . S
H423 C420 0.931 . S
H424 C400 0.930 . S
H425 C397 0.930 . S
H426 C406 0.930 . S
H427 C418 0.929 . S
H428 C421 0.930 . S
C429 C430 1.351 . S
C429 N432 1.368 . S
C429 H434 0.931 . S
C430 C429 1.351 . S
C430 N431 1.373 . S
C430 H458 0.930 . S
N431 C430 1.373 . S
N431 C433 1.340 . S
N432 C429 1.368 . S
N432 C433 1.321 . S
N432 Co435 2.135 . S
C433 N431 1.340 . S
C433 N432 1.321 . S
C433 H457 0.930 . S
H434 C429 0.931 . S
Co435 N432 2.135 . S
Co435 N438 2.121 . S
Co435 O443 2.055 . S
Co435 O446 2.039 . S
Co435 N449 2.140 . S
C436 O437 1.227 . S
C436 O446 1.265 . S
O437 C436 1.227 . S
N438 Co435 2.121 . S
N438 C440 1.375 . S
N438 C441 1.313 . S
C439 C440 1.338 . S
C439 N442 1.377 . S
C439 H459 0.930 . S
C440 N438 1.375 . S
C440 C439 1.338 . S
C440 H444 0.931 . S
C441 N438 1.313 . S
C441 N442 1.344 . S
C441 H445 0.930 . S
N442 C439 1.377 . S
N442 C441 1.344 . S
O443 Co435 2.055 . S
O443 C447 1.253 . S
H444 C440 0.931 . S
H445 C441 0.930 . S
O446 Co435 2.039 . S
O446 C436 1.265 . S
C447 O443 1.253 . S
C447 O448 1.227 . S
O448 C447 1.227 . S
N449 Co435 2.140 . S
N449 C452 1.346 . S
N449 C453 1.345 . S
C450 C451 1.387 . S
C450 C454 1.391 . S
C451 C450 1.387 . S
C451 C452 1.369 . S
C451 H460 0.929 . S
C452 N449 1.346 . S
C452 C451 1.369 . S
C452 H455 0.928 . S
C453 N449 1.345 . S
C453 C454 1.371 . S
C453 H456 0.931 . S
C454 C450 1.391 . S
C454 C453 1.371 . S
C454 H461 0.930 . S
H455 C452 0.928 . S
H456 C453 0.931 . S
H457 C433 0.930 . S
H458 C430 0.930 . S
H459 C439 0.930 . S
H460 C451 0.929 . S
H461 C454 0.930 . S
C462 C463 1.351 1_554 S
C462 N465 1.368 . S
C462 H467 0.931 . S
C463 C462 1.351 1_556 S
C463 N464 1.373 . S
C463 H491 0.930 . S
N464 C463 1.373 . S
N464 C466 1.340 1_556 S
N465 C462 1.368 . S
N465 C466 1.321 . S
N465 Co468 2.135 . S
C466 N464 1.340 1_554 S
C466 N465 1.321 . S
C466 H490 0.930 . S
H467 C462 0.931 . S
Co468 N465 2.135 . S
Co468 N471 2.121 . S
Co468 O476 2.055 . S
Co468 O479 2.039 . S
Co468 N482 2.140 . S
C469 O470 1.227 . S
C469 O479 1.265 . S
O470 C469 1.227 . S
N471 Co468 2.121 . S
N471 C473 1.375 . S
N471 C474 1.313 . S
C472 C473 1.338 . S
C472 N475 1.377 . S
C472 H492 0.930 . S
C473 N471 1.375 . S
C473 C472 1.338 . S
C473 H477 0.931 . S
C474 N471 1.313 . S
C474 N475 1.344 . S
C474 H478 0.930 . S
N475 C472 1.377 . S
N475 C474 1.344 . S
O476 Co468 2.055 . S
O476 C480 1.253 . S
H477 C473 0.931 . S
H478 C474 0.930 . S
O479 Co468 2.039 . S
O479 C469 1.265 . S
C480 O476 1.253 . S
C480 O481 1.227 . S
O481 C480 1.227 . S
N482 Co468 2.140 . S
N482 C485 1.346 . S
N482 C486 1.345 . S
C483 C484 1.387 . S
C483 C487 1.391 . S
C484 C483 1.387 . S
C484 C485 1.369 . S
C484 H493 0.929 . S
C485 N482 1.346 . S
C485 C484 1.369 . S
C485 H488 0.928 . S
C486 N482 1.345 . S
C486 C487 1.371 . S
C486 H489 0.931 . S
C487 C483 1.391 . S
C487 C486 1.371 . S
C487 H494 0.930 . S
H488 C485 0.928 . S
H489 C486 0.931 . S
H490 C466 0.930 . S
H491 C463 0.930 . S
H492 C472 0.930 . S
H493 C484 0.929 . S
H494 C487 0.930 . S
C495 C496 1.351 . S
C495 N498 1.368 . S
C495 H500 0.931 . S
C496 C495 1.351 . S
C496 N497 1.373 . S
C496 H524 0.930 . S
N497 C496 1.373 . S
N497 C499 1.340 . S
N498 C495 1.368 . S
N498 C499 1.321 . S
N498 Co501 2.135 . S
C499 N497 1.340 . S
C499 N498 1.321 . S
C499 H523 0.930 . S
H500 C495 0.931 . S
Co501 N498 2.135 . S
Co501 N504 2.121 . S
Co501 O509 2.055 . S
Co501 O512 2.039 . S
Co501 N515 2.140 . S
C502 O503 1.227 . S
C502 O512 1.265 . S
O503 C502 1.227 . S
N504 Co501 2.121 . S
N504 C506 1.375 . S
N504 C507 1.313 . S
C505 C506 1.338 . S
C505 N508 1.377 . S
C505 H525 0.930 . S
C506 N504 1.375 . S
C506 C505 1.338 . S
C506 H510 0.931 . S
C507 N504 1.313 . S
C507 N508 1.344 . S
C507 H511 0.930 . S
N508 C505 1.377 . S
N508 C507 1.344 . S
O509 Co501 2.055 . S
O509 C513 1.253 . S
H510 C506 0.931 . S
H511 C507 0.930 . S
O512 Co501 2.039 . S
O512 C502 1.265 . S
C513 O509 1.253 . S
C513 O514 1.227 . S
O514 C513 1.227 . S
N515 Co501 2.140 . S
N515 C518 1.346 . S
N515 C519 1.345 . S
C516 C517 1.387 . S
C516 C520 1.391 . S
C517 C516 1.387 . S
C517 C518 1.369 . S
C517 H526 0.929 . S
C518 N515 1.346 . S
C518 C517 1.369 . S
C518 H521 0.928 . S
C519 N515 1.345 . S
C519 C520 1.371 . S
C519 H522 0.931 . S
C520 C516 1.391 . S
C520 C519 1.371 . S
C520 H527 0.930 . S
H521 C518 0.928 . S
H522 C519 0.931 . S
H523 C499 0.930 . S
H524 C496 0.930 . S
H525 C505 0.930 . S
H526 C517 0.929 . S
H527 C520 0.930 . S
H528 C536 0.950 . S
H529 C541 0.950 . S
H530 C538 0.950 . S
H531 C540 0.950 . S
H532 C542 0.950 . S
H533 C544 0.950 . S
H534 C546 0.950 . S
H535 C547 0.950 . S
C536 H528 0.950 . S
C536 C537 1.386 . S
C536 C538 1.391 . S
C537 C536 1.386 . S
C537 C541 1.393 . S
C538 H530 0.950 . S
C538 C536 1.391 . S
C538 C539 1.400 . S
C539 C538 1.400 . S
C539 C540 1.398 . S
C539 C545 1.491 . S
C540 H531 0.950 . S
C540 C539 1.398 . S
C540 C541 1.391 . S
C541 H529 0.950 . S
C541 C537 1.393 . S
C541 C540 1.391 . S
C542 H532 0.950 . S
C542 C543 1.386 . S
C542 C544 1.391 . S
C543 C542 1.386 . S
C543 C547 1.393 . S
C544 H533 0.950 . S
C544 C542 1.391 . S
C544 C545 1.400 . S
C545 C539 1.491 . S
C545 C544 1.400 . S
C545 C546 1.398 . S
C546 H534 0.950 . S
C546 C545 1.398 . S
C546 C547 1.391 . S
C547 H535 0.950 . S
C547 C543 1.393 . S
C547 C546 1.391 . S
H548 C556 0.950 . S
H549 C561 0.950 . S
H550 C558 0.950 . S
H551 C560 0.950 . S
H552 C562 0.950 . S
H553 C564 0.950 . S
H554 C566 0.950 . S
H555 C567 0.950 . S
C556 H548 0.950 . S
C556 C557 1.386 . S
C556 C558 1.391 . S
C557 C556 1.386 . S
C557 C561 1.393 . S
C558 H550 0.950 . S
C558 C556 1.391 . S
C558 C559 1.400 . S
C559 C558 1.400 . S
C559 C560 1.398 . S
C559 C565 1.491 . S
C560 H551 0.950 . S
C560 C559 1.398 . S
C560 C561 1.391 . S
C561 H549 0.950 . S
C561 C557 1.393 . S
C561 C560 1.391 . S
C562 H552 0.950 . S
C562 C563 1.386 . S
C562 C564 1.391 . S
C563 C562 1.386 . S
C563 C567 1.393 . S
C564 H553 0.950 . S
C564 C562 1.391 . S
C564 C565 1.400 . S
C565 C559 1.491 . S
C565 C564 1.400 . S
C565 C566 1.398 . S
C566 H554 0.950 . S
C566 C565 1.398 . S
C566 C567 1.391 . S
C567 H555 0.950 . S
C567 C563 1.393 . S
C567 C566 1.391 . S
H568 C576 0.950 . S
H569 C581 0.950 . S
H570 C578 0.950 . S
H571 C580 0.950 . S
H572 C582 0.950 . S
H573 C584 0.950 . S
H574 C586 0.946 1_554 S
H575 C587 0.950 1_554 S
C576 H568 0.950 . S
C576 C577 1.386 . S
C576 C578 1.391 . S
C577 C576 1.386 . S
C577 C581 1.393 . S
C578 H570 0.950 . S
C578 C576 1.391 . S
C578 C579 1.400 . S
C579 C578 1.400 . S
C579 C580 1.398 . S
C579 C585 1.491 . S
C580 H571 0.950 . S
C580 C579 1.398 . S
C580 C581 1.391 . S
C581 H569 0.950 . S
C581 C577 1.393 . S
C581 C580 1.391 . S
C582 H572 0.950 . S
C582 C583 1.386 . S
C582 C584 1.391 . S
C583 C582 1.386 . S
C583 C587 1.393 . S
C584 H573 0.950 . S
C584 C582 1.391 . S
C584 C585 1.400 . S
C585 C579 1.491 . S
C585 C584 1.400 . S
C585 C586 1.398 . S
C586 H574 0.946 1_556 S
C586 C585 1.398 . S
C586 C587 1.391 . S
C587 H575 0.950 1_556 S
C587 C583 1.393 . S
C587 C586 1.391 . S
H588 C596 0.950 . S
H589 C601 0.950 . S
H590 C598 0.950 . S
H591 C600 0.950 . S
H592 C602 0.950 1_556 S
H593 C604 0.950 . S
H594 C606 0.950 . S
H595 C607 0.950 . S
C596 H588 0.950 . S
C596 C597 1.386 . S
C596 C598 1.391 . S
C597 C596 1.386 . S
C597 C601 1.393 . S
C598 H590 0.950 . S
C598 C596 1.391 . S
C598 C599 1.400 . S
C599 C598 1.400 . S
C599 C600 1.398 . S
C599 C605 1.491 . S
C600 H591 0.950 . S
C600 C599 1.398 . S
C600 C601 1.391 . S
C601 H589 0.950 . S
C601 C597 1.393 . S
C601 C600 1.391 . S
C602 H592 0.950 1_554 S
C602 C603 1.386 . S
C602 C604 1.391 . S
C603 C602 1.386 . S
C603 C607 1.393 . S
C604 H593 0.950 . S
C604 C602 1.391 . S
C604 C605 1.400 . S
C605 C599 1.491 . S
C605 C604 1.400 . S
C605 C606 1.398 . S
C606 H594 0.950 . S
C606 C605 1.398 . S
C606 C607 1.391 . S
C607 H595 0.950 . S
C607 C603 1.393 . S
C607 C606 1.391 . S
H608 C616 0.950 . S
H609 C621 0.950 . S
H610 C618 0.950 1_455 S
H611 C620 0.950 . S
H612 C622 0.950 . S
H613 C624 0.986 . S
H614 C626 0.950 . S
H615 C627 0.950 . S
C616 H608 0.950 . S
C616 C617 1.386 . S
C616 C618 1.391 . S
C617 C616 1.386 . S
C617 C621 1.393 . S
C618 H610 0.950 1_655 S
C618 C616 1.391 . S
C618 C619 1.400 . S
C619 C618 1.400 . S
C619 C620 1.398 . S
C619 C625 1.491 1_655 S
C620 H611 0.950 . S
C620 C619 1.398 . S
C620 C621 1.391 . S
C621 H609 0.950 . S
C621 C617 1.393 . S
C621 C620 1.391 . S
C622 H612 0.950 . S
C622 C623 1.386 . S
C622 C624 1.365 1_455 S
C623 C622 1.386 . S
C623 C627 1.393 . S
C624 H613 0.986 . S
C624 C622 1.365 1_655 S
C624 C625 1.392 1_655 S
C625 C619 1.491 1_455 S
C625 C624 1.392 1_455 S
C625 C626 1.398 . S
C626 H614 0.950 . S
C626 C625 1.398 . S
C626 C627 1.391 . S
C627 H615 0.950 . S
C627 C623 1.393 . S
C627 C626 1.391 . S
H628 C636 0.950 . S
H629 C641 0.950 . S
H630 C638 0.950 . S
H631 C640 0.950 . S
H632 C642 0.950 . S
H633 C644 0.974 . S
H634 C646 0.950 . S
H635 C647 0.950 . S
C636 H628 0.950 . S
C636 C637 1.386 . S
C636 C638 1.391 . S
C637 C636 1.386 . S
C637 C641 1.393 . S
C638 H630 0.950 . S
C638 C636 1.391 . S
C638 C639 1.400 . S
C639 C638 1.400 . S
C639 C640 1.398 . S
C639 C645 1.491 1_655 S
C640 H631 0.950 . S
C640 C639 1.398 . S
C640 C641 1.391 . S
C641 H629 0.950 . S
C641 C637 1.393 . S
C641 C640 1.391 . S
C642 H632 0.950 . S
C642 C643 1.386 . S
C642 C644 1.391 . S
C643 C642 1.386 . S
C643 C647 1.393 . S
C644 H633 0.974 . S
C644 C642 1.391 . S
C644 C645 1.400 . S
C645 C639 1.491 1_455 S
C645 C644 1.400 . S
C645 C646 1.398 . S
C646 H634 0.950 . S
C646 C645 1.398 . S
C646 C647 1.391 . S
C647 H635 0.950 . S
C647 C643 1.393 . S
C647 C646 1.391 . S
H648 C656 0.950 . S
H649 C661 0.950 . S
H650 C658 0.950 . S
H651 C660 0.950 . S
H652 C662 0.950 . S
H653 C664 0.950 . S
H654 C666 0.950 . S
H655 C667 0.950 1_556 S
C656 H648 0.950 . S
C656 C657 1.386 . S
C656 C658 1.391 . S
C657 C656 1.386 . S
C657 C661 1.393 . S
C658 H650 0.950 . S
C658 C656 1.391 . S
C658 C659 1.400 . S
C659 C658 1.400 . S
C659 C660 1.398 . S
C659 C665 1.491 . S
C660 H651 0.950 . S
C660 C659 1.398 . S
C660 C661 1.391 . S
C661 H649 0.950 . S
C661 C657 1.393 . S
C661 C660 1.391 . S
C662 H652 0.950 . S
C662 C663 1.386 . S
C662 C664 1.391 . S
C663 C662 1.386 . S
C663 C667 1.393 . S
C664 H653 0.950 . S
C664 C662 1.391 . S
C664 C665 1.400 . S
C665 C659 1.491 . S
C665 C664 1.400 . S
C665 C666 1.398 . S
C666 H654 0.950 . S
C666 C665 1.398 . S
C666 C667 1.391 . S
C667 H655 0.950 1_554 S
C667 C663 1.393 . S
C667 C666 1.391 . S
H668 C676 0.950 . S
H669 C681 0.950 . S
H670 C678 0.950 . S
H671 C680 0.950 . S
H672 C682 0.950 . S
H673 C684 0.950 1_554 S
H674 C686 0.950 . S
H675 C687 0.950 . S
C676 H668 0.950 . S
C676 C677 1.386 . S
C676 C678 1.391 . S
C677 C676 1.386 . S
C677 C681 1.393 . S
C678 H670 0.950 . S
C678 C676 1.391 . S
C678 C679 1.400 . S
C679 C678 1.400 . S
C679 C680 1.398 . S
C679 C685 1.491 . S
C680 H671 0.950 . S
C680 C679 1.398 . S
C680 C681 1.391 . S
C681 H669 0.950 . S
C681 C677 1.393 . S
C681 C680 1.391 . S
C682 H672 0.950 . S
C682 C683 1.386 1_554 S
C682 C684 1.391 1_554 S
C683 C682 1.386 1_556 S
C683 C687 1.393 . S
C684 H673 0.950 1_556 S
C684 C682 1.391 1_556 S
C684 C685 1.400 . S
C685 C679 1.491 . S
C685 C684 1.400 . S
C685 C686 1.398 . S
C686 H674 0.950 . S
C686 C685 1.398 . S
C686 C687 1.391 . S
C687 H675 0.950 . S
C687 C683 1.393 . S
C687 C686 1.391 . S
H688 C696 0.939 1_554 S
H689 C701 0.950 . S
H690 C698 0.950 1_554 S
H691 C700 0.950 . S
H692 C702 0.950 . S
H693 C704 0.950 . S
H694 C706 0.950 . S
H695 C707 0.950 . S
C696 H688 0.939 1_556 S
C696 C697 1.394 . S
C696 C698 1.394 . S
C697 C696 1.394 . S
C697 C701 1.393 . S
C698 H690 0.950 1_556 S
C698 C696 1.394 . S
C698 C699 1.400 . S
C699 C698 1.400 . S
C699 C700 1.398 . S
C699 C705 1.491 . S
C700 H691 0.950 . S
C700 C699 1.398 . S
C700 C701 1.391 . S
C701 H689 0.950 . S
C701 C697 1.393 . S
C701 C700 1.391 . S
C702 H692 0.950 . S
C702 C703 1.386 . S
C702 C704 1.391 . S
C703 C702 1.386 . S
C703 C707 1.393 . S
C704 H693 0.950 . S
C704 C702 1.391 . S
C704 C705 1.400 . S
C705 C699 1.491 . S
C705 C704 1.400 . S
C705 C706 1.398 . S
C706 H694 0.950 . S
C706 C705 1.398 . S
C706 C707 1.391 . S
C707 H695 0.950 . S
C707 C703 1.393 . S
C707 C706 1.391 . S
H708 C716 0.950 . S
H709 C721 0.950 . S
H710 C718 0.950 . S
H711 C720 0.950 . S
H712 C722 0.950 . S
H713 C724 0.950 . S
H714 C726 0.950 . S
H715 C727 0.950 . S
C716 H708 0.950 . S
C716 C717 1.386 . S
C716 C718 1.391 . S
C717 C716 1.386 . S
C717 C721 1.393 . S
C718 H710 0.950 . S
C718 C716 1.391 . S
C718 C719 1.400 . S
C719 C718 1.400 . S
C719 C720 1.398 . S
C719 C725 1.491 . S
C720 H711 0.950 . S
C720 C719 1.398 . S
C720 C721 1.391 . S
C721 H709 0.950 . S
C721 C717 1.393 . S
C721 C720 1.391 . S
C722 H712 0.950 . S
C722 C723 1.386 . S
C722 C724 1.391 . S
C723 C722 1.386 . S
C723 C727 1.393 . S
C724 H713 0.950 . S
C724 C722 1.391 . S
C724 C725 1.400 . S
C725 C719 1.491 . S
C725 C724 1.400 . S
C725 C726 1.398 . S
C726 H714 0.950 . S
C726 C725 1.398 . S
C726 C727 1.391 . S
C727 H715 0.950 . S
C727 C723 1.393 . S
C727 C726 1.391 . S
H728 C736 0.950 . S
H729 C741 0.950 1_655 S
H730 C738 0.950 . S
H731 C740 0.950 . S
H732 C742 0.950 . S
H733 C744 0.950 . S
H734 C746 0.950 . S
H735 C747 0.950 . S
C736 H728 0.950 . S
C736 C737 1.386 . S
C736 C738 1.391 . S
C737 C736 1.386 . S
C737 C741 1.393 . S
C738 H730 0.950 . S
C738 C736 1.391 . S
C738 C739 1.400 1_455 S
C739 C738 1.400 1_655 S
C739 C740 1.398 . S
C739 C745 1.491 . S
C740 H731 0.950 . S
C740 C739 1.398 . S
C740 C741 1.391 1_655 S
C741 H729 0.950 1_455 S
C741 C737 1.393 . S
C741 C740 1.391 1_455 S
C742 H732 0.950 . S
C742 C743 1.386 . S
C742 C744 1.391 . S
C743 C742 1.386 . S
C743 C747 1.393 . S
C744 H733 0.950 . S
C744 C742 1.391 . S
C744 C745 1.400 . S
C745 C739 1.491 . S
C745 C744 1.400 . S
C745 C746 1.398 . S
C746 H734 0.950 . S
C746 C745 1.398 . S
C746 C747 1.391 . S
C747 H735 0.950 . S
C747 C743 1.393 . S
C747 C746 1.391 . S
H748 C756 0.950 . S
H749 C761 0.950 . S
H750 C758 0.950 . S
H751 C760 0.950 . S
H752 C762 0.950 . S
H753 C764 0.950 . S
H754 C766 0.950 . S
H755 C767 0.950 1_655 S
C756 H748 0.950 . S
C756 C757 1.386 . S
C756 C758 1.391 . S
C757 C756 1.386 . S
C757 C761 1.393 . S
C758 H750 0.950 . S
C758 C756 1.391 . S
C758 C759 1.400 . S
C759 C758 1.400 . S
C759 C760 1.398 . S
C759 C765 1.491 . S
C760 H751 0.950 . S
C760 C759 1.398 . S
C760 C761 1.391 . S
C761 H749 0.950 . S
C761 C757 1.393 . S
C761 C760 1.391 . S
C762 H752 0.950 . S
C762 C763 1.386 . S
C762 C764 1.391 . S
C763 C762 1.386 . S
C763 C767 1.393 . S
C764 H753 0.950 . S
C764 C762 1.391 . S
C764 C765 1.400 1_455 S
C765 C759 1.491 . S
C765 C764 1.400 1_655 S
C765 C766 1.398 . S
C766 H754 0.950 . S
C766 C765 1.398 . S
C766 C767 1.391 1_655 S
C767 H755 0.950 1_455 S
C767 C763 1.393 . S
C767 C766 1.391 1_455 S
H768 C776 0.950 1_556 S
H769 C781 0.950 . S
H770 C778 0.950 . S
H771 C780 0.950 . S
H772 C782 0.950 . S
H773 C784 0.950 . S
H774 C786 0.950 . S
H775 C787 0.950 . S
C776 H768 0.950 1_554 S
C776 C777 1.386 . S
C776 C778 1.391 . S
C777 C776 1.386 . S
C777 C781 1.393 . S
C778 H770 0.950 . S
C778 C776 1.391 . S
C778 C779 1.400 . S
C779 C778 1.400 . S
C779 C780 1.398 . S
C779 C785 1.491 . S
C780 H771 0.950 . S
C780 C779 1.398 . S
C780 C781 1.391 . S
C781 H769 0.950 . S
C781 C777 1.393 . S
C781 C780 1.391 . S
C782 H772 0.950 . S
C782 C783 1.386 . S
C782 C784 1.391 . S
C783 C782 1.386 . S
C783 C787 1.393 . S
C784 H773 0.950 . S
C784 C782 1.391 . S
C784 C785 1.400 . S
C785 C779 1.491 . S
C785 C784 1.400 . S
C785 C786 1.398 . S
C786 H774 0.950 . S
C786 C785 1.398 . S
C786 C787 1.391 . S
C787 H775 0.950 . S
C787 C783 1.393 . S
C787 C786 1.391 . S
H788 C796 0.950 . S
H789 C801 0.950 . S
H790 C798 0.950 . S
H791 C800 0.950 . S
H792 C802 0.950 . S
H793 C804 0.950 . S
H794 C806 0.950 . S
H795 C807 0.950 . S
C796 H788 0.950 . S
C796 C797 1.386 . S
C796 C798 1.391 . S
C797 C796 1.386 . S
C797 C801 1.393 . S
C798 H790 0.950 . S
C798 C796 1.391 . S
C798 C799 1.400 . S
C799 C798 1.400 . S
C799 C800 1.398 . S
C799 C805 1.491 . S
C800 H791 0.950 . S
C800 C799 1.398 . S
C800 C801 1.391 . S
C801 H789 0.950 . S
C801 C797 1.393 . S
C801 C800 1.391 . S
C802 H792 0.950 . S
C802 C803 1.386 . S
C802 C804 1.391 . S
C803 C802 1.386 . S
C803 C807 1.393 . S
C804 H793 0.950 . S
C804 C802 1.391 . S
C804 C805 1.400 . S
C805 C799 1.491 . S
C805 C804 1.400 . S
C805 C806 1.398 . S
C806 H794 0.950 . S
C806 C805 1.398 . S
C806 C807 1.391 . S
C807 H795 0.950 . S
C807 C803 1.393 . S
C807 C806 1.391 . S
H808 C816 0.950 . S
H809 C821 0.950 . S
H810 C818 0.950 . S
H811 C820 0.950 . S
H812 C822 0.950 . S
H813 C824 0.950 . S
H814 C826 0.950 . S
H815 C827 0.950 . S
C816 H808 0.950 . S
C816 C817 1.386 . S
C816 C818 1.391 . S
C817 C816 1.386 . S
C817 C821 1.393 . S
C818 H810 0.950 . S
C818 C816 1.391 . S
C818 C819 1.400 . S
C819 C818 1.400 . S
C819 C820 1.398 . S
C819 C825 1.491 . S
C820 H811 0.950 . S
C820 C819 1.398 . S
C820 C821 1.391 . S
C821 H809 0.950 . S
C821 C817 1.393 . S
C821 C820 1.391 . S
C822 H812 0.950 . S
C822 C823 1.386 . S
C822 C824 1.391 . S
C823 C822 1.386 . S
C823 C827 1.393 . S
C824 H813 0.950 . S
C824 C822 1.391 . S
C824 C825 1.400 . S
C825 C819 1.491 . S
C825 C824 1.400 . S
C825 C826 1.398 . S
C826 H814 0.950 . S
C826 C825 1.398 . S
C826 C827 1.391 . S
C827 H815 0.950 . S
C827 C823 1.393 . S
C827 C826 1.391 . S
H828 C836 0.950 . S
H829 C841 0.950 . S
H830 C838 0.950 . S
H831 C840 0.950 . S
H832 C842 0.950 . S
H833 C844 0.950 . S
H834 C846 0.950 . S
H835 C847 0.950 . S
C836 H828 0.950 . S
C836 C837 1.386 . S
C836 C838 1.391 . S
C837 C836 1.386 . S
C837 C841 1.393 . S
C838 H830 0.950 . S
C838 C836 1.391 . S
C838 C839 1.400 . S
C839 C838 1.400 . S
C839 C840 1.398 . S
C839 C845 1.491 . S
C840 H831 0.950 . S
C840 C839 1.398 . S
C840 C841 1.391 . S
C841 H829 0.950 . S
C841 C837 1.393 . S
C841 C840 1.391 . S
C842 H832 0.950 . S
C842 C843 1.386 . S
C842 C844 1.391 . S
C843 C842 1.386 . S
C843 C847 1.393 . S
C844 H833 0.950 . S
C844 C842 1.391 . S
C844 C845 1.400 . S
C845 C839 1.491 . S
C845 C844 1.400 . S
C845 C846 1.398 . S
C846 H834 0.950 . S
C846 C845 1.398 . S
C846 C847 1.391 . S
C847 H835 0.950 . S
C847 C843 1.393 . S
C847 C846 1.391 . S
H848 C856 0.950 . S
H849 C861 0.950 . S
H850 C858 0.923 1_565 S
H851 C860 0.950 . S
H852 C862 0.950 . S
H853 C864 0.923 1_545 S
H854 C866 0.950 . S
H855 C867 0.950 . S
C856 H848 0.950 . S
C856 C857 1.386 . S
C856 C858 1.391 . S
C857 C856 1.386 . S
C857 C861 1.393 . S
C858 H850 0.923 1_545 S
C858 C856 1.391 . S
C858 C859 1.400 . S
C859 C858 1.400 . S
C859 C860 1.398 . S
C859 C865 1.491 1_544 S
C860 H851 0.950 . S
C860 C859 1.398 . S
C860 C861 1.391 . S
C861 H849 0.950 . S
C861 C857 1.393 . S
C861 C860 1.391 . S
C862 H852 0.950 . S
C862 C863 1.386 . S
C862 C864 1.391 . S
C863 C862 1.386 . S
C863 C867 1.393 . S
C864 H853 0.923 1_565 S
C864 C862 1.391 . S
C864 C865 1.400 . S
C865 C859 1.491 1_566 S
C865 C864 1.400 . S
C865 C866 1.398 . S
C866 H854 0.950 . S
C866 C865 1.398 . S
C866 C867 1.391 . S
C867 H855 0.950 . S
C867 C863 1.393 . S
C867 C866 1.391 . S
H868 C876 0.950 . S
H869 C881 0.950 . S
H870 C878 0.950 . S
H871 C880 0.950 . S
H872 C882 0.950 . S
H873 C884 0.950 . S
H874 C886 0.950 . S
H875 C887 0.950 . S
C876 H868 0.950 . S
C876 C877 1.386 . S
C876 C878 1.391 . S
C877 C876 1.386 . S
C877 C881 1.393 . S
C878 H870 0.950 . S
C878 C876 1.391 . S
C878 C879 1.400 . S
C879 C878 1.400 . S
C879 C880 1.398 . S
C879 C885 1.491 . S
C880 H871 0.950 . S
C880 C879 1.398 . S
C880 C881 1.391 . S
C881 H869 0.950 . S
C881 C877 1.393 . S
C881 C880 1.391 . S
C882 H872 0.950 . S
C882 C883 1.386 . S
C882 C884 1.391 . S
C883 C882 1.386 . S
C883 C887 1.393 . S
C884 H873 0.950 . S
C884 C882 1.391 . S
C884 C885 1.400 . S
C885 C879 1.491 . S
C885 C884 1.400 . S
C885 C886 1.398 . S
C886 H874 0.950 . S
C886 C885 1.398 . S
C886 C887 1.391 . S
C887 H875 0.950 . S
C887 C883 1.393 . S
C887 C886 1.391 . S
H888 C896 0.950 . S
H889 C901 0.973 . S
H890 C898 0.950 . S
H891 C900 0.950 . S
H892 C902 0.950 . S
H893 C904 0.950 . S
H894 C906 0.950 . S
H895 C907 0.973 . S
C896 H888 0.950 . S
C896 C897 1.386 . S
C896 C898 1.391 . S
C897 C896 1.386 . S
C897 C901 1.393 . S
C898 H890 0.950 . S
C898 C896 1.391 . S
C898 C899 1.400 . S
C899 C898 1.400 . S
C899 C900 1.398 1_545 S
C899 C905 1.491 1_545 S
C900 H891 0.950 . S
C900 C899 1.398 1_565 S
C900 C901 1.391 1_565 S
C901 H889 0.973 . S
C901 C897 1.393 . S
C901 C900 1.391 1_545 S
C902 H892 0.950 . S
C902 C903 1.386 . S
C902 C904 1.391 . S
C903 C902 1.386 . S
C903 C907 1.393 . S
C904 H893 0.950 . S
C904 C902 1.391 . S
C904 C905 1.400 . S
C905 C899 1.491 1_565 S
C905 C904 1.400 . S
C905 C906 1.398 1_565 S
C906 H894 0.950 . S
C906 C905 1.398 1_545 S
C906 C907 1.391 1_545 S
C907 H895 0.973 . S
C907 C903 1.393 . S
C907 C906 1.391 1_565 S
H908 C916 0.950 . S
H909 C921 0.950 . S
H910 C918 0.950 . S
H911 C920 0.950 . S
H912 C922 0.950 . S
H913 C924 0.950 . S
H914 C926 0.950 . S
H915 C927 0.950 . S
C916 H908 0.950 . S
C916 C917 1.386 . S
C916 C918 1.391 . S
C917 C916 1.386 . S
C917 C921 1.393 . S
C918 H910 0.950 . S
C918 C916 1.391 . S
C918 C919 1.400 . S
C919 C918 1.400 . S
C919 C920 1.398 . S
C919 C925 1.491 . S
C920 H911 0.950 . S
C920 C919 1.398 . S
C920 C921 1.391 . S
C921 H909 0.950 . S
C921 C917 1.393 . S
C921 C920 1.391 . S
C922 H912 0.950 . S
C922 C923 1.386 . S
C922 C924 1.391 . S
C923 C922 1.386 . S
C923 C927 1.393 . S
C924 H913 0.950 . S
C924 C922 1.391 . S
C924 C925 1.400 . S
C925 C919 1.491 . S
C925 C924 1.400 . S
C925 C926 1.398 . S
C926 H914 0.950 . S
C926 C925 1.398 . S
C926 C927 1.391 . S
C927 H915 0.950 . S
C927 C923 1.393 . S
C927 C926 1.391 . S
H928 C936 0.950 . S
H929 C941 0.950 . S
H930 C938 0.950 . S
H931 C940 0.950 . S
H932 C942 0.950 . S
H933 C944 0.950 . S
H934 C946 0.950 . S
H935 C947 0.950 . S
C936 H928 0.950 . S
C936 C937 1.386 . S
C936 C938 1.391 . S
C937 C936 1.386 . S
C937 C941 1.393 . S
C938 H930 0.950 . S
C938 C936 1.391 . S
C938 C939 1.400 . S
C939 C938 1.400 . S
C939 C940 1.398 . S
C939 C945 1.491 . S
C940 H931 0.950 . S
C940 C939 1.398 . S
C940 C941 1.391 . S
C941 H929 0.950 . S
C941 C937 1.393 . S
C941 C940 1.391 . S
C942 H932 0.950 . S
C942 C943 1.386 . S
C942 C944 1.391 . S
C943 C942 1.386 . S
C943 C947 1.393 . S
C944 H933 0.950 . S
C944 C942 1.391 . S
C944 C945 1.400 . S
C945 C939 1.491 . S
C945 C944 1.400 . S
C945 C946 1.398 . S
C946 H934 0.950 . S
C946 C945 1.398 . S
C946 C947 1.391 . S
C947 H935 0.950 . S
C947 C943 1.393 . S
C947 C946 1.391 . S
H948 C956 0.950 . S
H949 C961 0.950 . S
H950 C958 0.950 . S
H951 C960 0.950 . S
H952 C962 0.950 . S
H953 C964 0.950 . S
H954 C966 0.950 . S
H955 C967 0.950 . S
C956 H948 0.950 . S
C956 C957 1.386 . S
C956 C958 1.391 . S
C957 C956 1.386 . S
C957 C961 1.393 . S
C958 H950 0.950 . S
C958 C956 1.391 . S
C958 C959 1.400 . S
C959 C958 1.400 . S
C959 C960 1.398 . S
C959 C965 1.491 . S
C960 H951 0.950 . S
C960 C959 1.398 . S
C960 C961 1.391 . S
C961 H949 0.950 . S
C961 C957 1.393 . S
C961 C960 1.391 . S
C962 H952 0.950 . S
C962 C963 1.386 . S
C962 C964 1.391 . S
C963 C962 1.386 . S
C963 C967 1.393 . S
C964 H953 0.950 . S
C964 C962 1.391 . S
C964 C965 1.400 . S
C965 C959 1.491 . S
C965 C964 1.400 . S
C965 C966 1.398 . S
C966 H954 0.950 . S
C966 C965 1.398 . S
C966 C967 1.391 . S
C967 H955 0.950 . S
C967 C963 1.393 . S
C967 C966 1.391 . S
H968 C976 0.950 . S
H969 C981 0.950 . S
H970 C978 0.950 . S
H971 C980 0.950 . S
H972 C982 0.950 . S
H973 C984 0.950 . S
H974 C986 0.950 . S
H975 C987 0.950 . S
C976 H968 0.950 . S
C976 C977 1.386 . S
C976 C978 1.391 . S
C977 C976 1.386 . S
C977 C981 1.393 . S
C978 H970 0.950 . S
C978 C976 1.391 . S
C978 C979 1.400 . S
C979 C978 1.400 . S
C979 C980 1.398 . S
C979 C985 1.491 . S
C980 H971 0.950 . S
C980 C979 1.398 . S
C980 C981 1.391 . S
C981 H969 0.950 . S
C981 C977 1.393 . S
C981 C980 1.391 . S
C982 H972 0.950 . S
C982 C983 1.386 . S
C982 C984 1.391 . S
C983 C982 1.386 . S
C983 C987 1.393 . S
C984 H973 0.950 . S
C984 C982 1.391 . S
C984 C985 1.400 . S
C985 C979 1.491 . S
C985 C984 1.400 . S
C985 C986 1.398 . S
C986 H974 0.950 . S
C986 C985 1.398 . S
C986 C987 1.391 . S
C987 H975 0.950 . S
C987 C983 1.393 . S
C987 C986 1.391 . S
H988 C996 0.950 . S
H989 C1001 0.950 . S
H990 C998 0.950 . S
H991 C1000 0.950 . S
H992 C1002 0.950 . S
H993 C1004 0.950 . S
H994 C1006 0.950 . S
H995 C1007 0.950 . S
C996 H988 0.950 . S
C996 C997 1.386 . S
C996 C998 1.391 . S
C997 C996 1.386 . S
C997 C1001 1.393 . S
C998 H990 0.950 . S
C998 C996 1.391 . S
C998 C999 1.400 . S
C999 C998 1.400 . S
C999 C1000 1.398 . S
C999 C1005 1.491 1_556 S
C1000 H991 0.950 . S
C1000 C999 1.398 . S
C1000 C1001 1.391 . S
C1001 H989 0.950 . S
C1001 C997 1.393 . S
C1001 C1000 1.391 . S
C1002 H992 0.950 . S
C1002 C1003 1.386 . S
C1002 C1004 1.391 . S
C1003 C1002 1.386 . S
C1003 C1007 1.393 . S
C1004 H993 0.950 . S
C1004 C1002 1.391 . S
C1004 C1005 1.400 . S
C1005 C999 1.491 1_554 S
C1005 C1004 1.400 . S
C1005 C1006 1.398 . S
C1006 H994 0.950 . S
C1006 C1005 1.398 . S
C1006 C1007 1.391 . S
C1007 H995 0.950 . S
C1007 C1003 1.393 . S
C1007 C1006 1.391 . S
H1008 C1016 0.950 . S
H1009 C1021 0.950 . S
H1010 C1018 0.950 . S
H1011 C1020 0.950 . S
H1012 C1022 0.950 . S
H1013 C1024 0.950 . S
H1014 C1026 0.950 . S
H1015 C1027 0.950 . S
C1016 H1008 0.950 . S
C1016 C1017 1.386 . S
C1016 C1018 1.391 . S
C1017 C1016 1.386 . S
C1017 C1021 1.393 . S
C1018 H1010 0.950 . S
C1018 C1016 1.391 . S
C1018 C1019 1.400 . S
C1019 C1018 1.400 . S
C1019 C1020 1.398 . S
C1019 C1025 1.491 . S
C1020 H1011 0.950 . S
C1020 C1019 1.398 . S
C1020 C1021 1.391 . S
C1021 H1009 0.950 . S
C1021 C1017 1.393 . S
C1021 C1020 1.391 . S
C1022 H1012 0.950 . S
C1022 C1023 1.386 . S
C1022 C1024 1.391 . S
C1023 C1022 1.386 . S
C1023 C1027 1.393 . S
C1024 H1013 0.950 . S
C1024 C1022 1.391 . S
C1024 C1025 1.400 . S
C1025 C1019 1.491 . S
C1025 C1024 1.400 . S
C1025 C1026 1.398 . S
C1026 H1014 0.950 . S
C1026 C1025 1.398 . S
C1026 C1027 1.391 . S
C1027 H1015 0.950 . S
C1027 C1023 1.393 . S
C1027 C1026 1.391 . S
H1028 C1036 0.950 . S
H1029 C1041 0.950 . S
H1030 C1038 0.950 . S
H1031 C1040 0.950 . S
H1032 C1042 0.950 . S
H1033 C1044 0.950 . S
H1034 C1046 0.950 . S
H1035 C1047 0.950 . S
C1036 H1028 0.950 . S
C1036 C1037 1.386 . S
C1036 C1038 1.391 . S
C1037 C1036 1.386 . S
C1037 C1041 1.393 . S
C1038 H1030 0.950 . S
C1038 C1036 1.391 . S
C1038 C1039 1.400 . S
C1039 C1038 1.400 . S
C1039 C1040 1.398 . S
C1039 C1045 1.491 1_554 S
C1040 H1031 0.950 . S
C1040 C1039 1.398 . S
C1040 C1041 1.391 . S
C1041 H1029 0.950 . S
C1041 C1037 1.393 . S
C1041 C1040 1.391 . S
C1042 H1032 0.950 . S
C1042 C1043 1.386 . S
C1042 C1044 1.391 . S
C1043 C1042 1.386 . S
C1043 C1047 1.393 . S
C1044 H1033 0.950 . S
C1044 C1042 1.391 . S
C1044 C1045 1.400 . S
C1045 C1039 1.491 1_556 S
C1045 C1044 1.400 . S
C1045 C1046 1.398 . S
C1046 H1034 0.950 . S
C1046 C1045 1.398 . S
C1046 C1047 1.391 . S
C1047 H1035 0.950 . S
C1047 C1043 1.393 . S
C1047 C1046 1.391 . S
H1048 C1056 0.950 . S
H1049 C1061 0.950 . S
H1050 C1058 0.950 . S
H1051 C1060 0.950 . S
H1052 C1062 0.950 . S
H1053 C1064 0.950 . S
H1054 C1066 0.950 . S
H1055 C1067 0.950 . S
C1056 H1048 0.950 . S
C1056 C1057 1.386 . S
C1056 C1058 1.391 . S
C1057 C1056 1.386 . S
C1057 C1061 1.393 . S
C1058 H1050 0.950 . S
C1058 C1056 1.391 . S
C1058 C1059 1.400 . S
C1059 C1058 1.400 . S
C1059 C1060 1.398 . S
C1059 C1065 1.491 . S
C1060 H1051 0.950 . S
C1060 C1059 1.398 . S
C1060 C1061 1.391 . S
C1061 H1049 0.950 . S
C1061 C1057 1.393 . S
C1061 C1060 1.391 . S
C1062 H1052 0.950 . S
C1062 C1063 1.386 . S
C1062 C1064 1.391 . S
C1063 C1062 1.386 . S
C1063 C1067 1.393 . S
C1064 H1053 0.950 . S
C1064 C1062 1.391 . S
C1064 C1065 1.400 . S
C1065 C1059 1.491 . S
C1065 C1064 1.400 . S
C1065 C1066 1.398 . S
C1066 H1054 0.950 . S
C1066 C1065 1.398 . S
C1066 C1067 1.391 . S
C1067 H1055 0.950 . S
C1067 C1063 1.393 . S
C1067 C1066 1.391 . S
H1068 C1076 0.950 . S
H1069 C1081 0.950 . S
H1070 C1078 0.950 . S
H1071 C1080 0.950 . S
H1072 C1082 0.950 . S
H1073 C1084 0.950 . S
H1074 C1086 0.950 . S
H1075 C1087 0.950 . S
C1076 H1068 0.950 . S
C1076 C1077 1.386 . S
C1076 C1078 1.391 . S
C1077 C1076 1.386 . S
C1077 C1081 1.393 . S
C1078 H1070 0.950 . S
C1078 C1076 1.391 . S
C1078 C1079 1.400 . S
C1079 C1078 1.400 . S
C1079 C1080 1.398 . S
C1079 C1085 1.491 . S
C1080 H1071 0.950 . S
C1080 C1079 1.398 . S
C1080 C1081 1.391 . S
C1081 H1069 0.950 . S
C1081 C1077 1.393 . S
C1081 C1080 1.391 . S
C1082 H1072 0.950 . S
C1082 C1083 1.386 . S
C1082 C1084 1.391 . S
C1083 C1082 1.386 . S
C1083 C1087 1.393 . S
C1084 H1073 0.950 . S
C1084 C1082 1.391 . S
C1084 C1085 1.400 . S
C1085 C1079 1.491 . S
C1085 C1084 1.400 . S
C1085 C1086 1.398 . S
C1086 H1074 0.950 . S
C1086 C1085 1.398 . S
C1086 C1087 1.391 . S
C1087 H1075 0.950 . S
C1087 C1083 1.393 . S
C1087 C1086 1.391 . S
H1088 C1096 0.950 . S
H1089 C1101 0.950 . S
H1090 C1098 0.950 . S
H1091 C1100 0.950 . S
H1092 C1102 0.950 . S
H1093 C1104 0.950 . S
H1094 C1106 0.950 . S
H1095 C1107 0.950 . S
C1096 H1088 0.950 . S
C1096 C1097 1.386 . S
C1096 C1098 1.391 . S
C1097 C1096 1.386 . S
C1097 C1101 1.393 . S
C1098 H1090 0.950 . S
C1098 C1096 1.391 . S
C1098 C1099 1.400 . S
C1099 C1098 1.400 . S
C1099 C1100 1.398 . S
C1099 C1105 1.491 . S
C1100 H1091 0.950 . S
C1100 C1099 1.398 . S
C1100 C1101 1.391 . S
C1101 H1089 0.950 . S
C1101 C1097 1.393 . S
C1101 C1100 1.391 . S
C1102 H1092 0.950 . S
C1102 C1103 1.386 . S
C1102 C1104 1.391 . S
C1103 C1102 1.386 . S
C1103 C1107 1.393 . S
C1104 H1093 0.950 . S
C1104 C1102 1.391 . S
C1104 C1105 1.400 . S
C1105 C1099 1.491 . S
C1105 C1104 1.400 . S
C1105 C1106 1.398 . S
C1106 H1094 0.950 . S
C1106 C1105 1.398 . S
C1106 C1107 1.391 . S
C1107 H1095 0.950 . S
C1107 C1103 1.393 . S
C1107 C1106 1.391 . S
H1108 C1116 0.950 . S
H1109 C1121 0.950 . S
H1110 C1118 0.950 . S
H1111 C1120 0.950 . S
H1112 C1122 0.950 . S
H1113 C1124 0.950 . S
H1114 C1126 0.950 . S
H1115 C1127 0.950 . S
C1116 H1108 0.950 . S
C1116 C1117 1.386 . S
C1116 C1118 1.391 . S
C1117 C1116 1.386 . S
C1117 C1121 1.393 . S
C1118 H1110 0.950 . S
C1118 C1116 1.391 . S
C1118 C1119 1.400 . S
C1119 C1118 1.400 . S
C1119 C1120 1.398 . S
C1119 C1125 1.491 . S
C1120 H1111 0.950 . S
C1120 C1119 1.398 . S
C1120 C1121 1.391 . S
C1121 H1109 0.950 . S
C1121 C1117 1.393 . S
C1121 C1120 1.391 . S
C1122 H1112 0.950 . S
C1122 C1123 1.386 . S
C1122 C1124 1.391 . S
C1123 C1122 1.386 . S
C1123 C1127 1.393 . S
C1124 H1113 0.950 . S
C1124 C1122 1.391 . S
C1124 C1125 1.400 . S
C1125 C1119 1.491 . S
C1125 C1124 1.400 . S
C1125 C1126 1.398 . S
C1126 H1114 0.950 . S
C1126 C1125 1.398 . S
C1126 C1127 1.391 . S
C1127 H1115 0.950 . S
C1127 C1123 1.393 . S
C1127 C1126 1.391 . S
H1128 C1136 0.950 . S
H1129 C1141 0.950 . S
H1130 C1138 0.950 . S
H1131 C1140 0.950 . S
H1132 C1142 0.950 . S
H1133 C1144 0.950 . S
H1134 C1146 0.950 . S
H1135 C1147 0.950 . S
C1136 H1128 0.950 . S
C1136 C1137 1.386 . S
C1136 C1138 1.391 . S
C1137 C1136 1.386 . S
C1137 C1141 1.393 . S
C1138 H1130 0.950 . S
C1138 C1136 1.391 . S
C1138 C1139 1.400 . S
C1139 C1138 1.400 . S
C1139 C1140 1.398 . S
C1139 C1145 1.491 . S
C1140 H1131 0.950 . S
C1140 C1139 1.398 . S
C1140 C1141 1.391 . S
C1141 H1129 0.950 . S
C1141 C1137 1.393 . S
C1141 C1140 1.391 . S
C1142 H1132 0.950 . S
C1142 C1143 1.386 . S
C1142 C1144 1.391 . S
C1143 C1142 1.386 . S
C1143 C1147 1.393 . S
C1144 H1133 0.950 . S
C1144 C1142 1.391 . S
C1144 C1145 1.400 . S
C1145 C1139 1.491 . S
C1145 C1144 1.400 . S
C1145 C1146 1.398 . S
C1146 H1134 0.950 . S
C1146 C1145 1.398 . S
C1146 C1147 1.391 . S
C1147 H1135 0.950 . S
C1147 C1143 1.393 . S
C1147 C1146 1.391 . S
H1148 C1156 0.950 . S
H1149 C1161 0.950 . S
H1150 C1158 0.950 . S
H1151 C1160 0.950 . S
H1152 C1162 0.950 . S
H1153 C1164 0.950 . S
H1154 C1166 0.950 . S
H1155 C1167 0.950 . S
C1156 H1148 0.950 . S
C1156 C1157 1.386 . S
C1156 C1158 1.391 . S
C1157 C1156 1.386 . S
C1157 C1161 1.393 . S
C1158 H1150 0.950 . S
C1158 C1156 1.391 . S
C1158 C1159 1.400 . S
C1159 C1158 1.400 . S
C1159 C1160 1.398 . S
C1159 C1165 1.491 1_556 S
C1160 H1151 0.950 . S
C1160 C1159 1.398 . S
C1160 C1161 1.391 . S
C1161 H1149 0.950 . S
C1161 C1157 1.393 . S
C1161 C1160 1.391 . S
C1162 H1152 0.950 . S
C1162 C1163 1.386 . S
C1162 C1164 1.391 . S
C1163 C1162 1.386 . S
C1163 C1167 1.393 . S
C1164 H1153 0.950 . S
C1164 C1162 1.391 . S
C1164 C1165 1.400 . S
C1165 C1159 1.491 1_554 S
C1165 C1164 1.400 . S
C1165 C1166 1.398 . S
C1166 H1154 0.950 . S
C1166 C1165 1.398 . S
C1166 C1167 1.391 . S
C1167 H1155 0.950 . S
C1167 C1163 1.393 . S
C1167 C1166 1.391 . S
H1168 C1176 0.950 . S
H1169 C1181 0.950 . S
H1170 C1178 0.950 . S
H1171 C1180 0.950 . S
H1172 C1182 0.950 . S
H1173 C1184 0.950 . S
H1174 C1186 0.950 . S
H1175 C1187 0.950 . S
C1176 H1168 0.950 . S
C1176 C1177 1.386 . S
C1176 C1178 1.391 . S
C1177 C1176 1.386 . S
C1177 C1181 1.393 . S
C1178 H1170 0.950 . S
C1178 C1176 1.391 . S
C1178 C1179 1.400 . S
C1179 C1178 1.400 . S
C1179 C1180 1.398 . S
C1179 C1185 1.491 1_554 S
C1180 H1171 0.950 . S
C1180 C1179 1.398 . S
C1180 C1181 1.391 . S
C1181 H1169 0.950 . S
C1181 C1177 1.393 . S
C1181 C1180 1.391 . S
C1182 H1172 0.950 . S
C1182 C1183 1.386 . S
C1182 C1184 1.391 . S
C1183 C1182 1.386 . S
C1183 C1187 1.393 . S
C1184 H1173 0.950 . S
C1184 C1182 1.391 . S
C1184 C1185 1.400 . S
C1185 C1179 1.491 1_556 S
C1185 C1184 1.400 . S
C1185 C1186 1.398 . S
C1186 H1174 0.950 . S
C1186 C1185 1.398 . S
C1186 C1187 1.391 . S
C1187 H1175 0.950 . S
C1187 C1183 1.393 . S
C1187 C1186 1.391 . S
H1188 C1196 0.950 . S
H1189 C1201 0.950 . S
H1190 C1198 0.950 . S
H1191 C1200 0.950 . S
H1192 C1202 0.950 . S
H1193 C1204 0.950 . S
H1194 C1206 0.950 . S
H1195 C1207 0.950 . S
C1196 H1188 0.950 . S
C1196 C1197 1.386 . S
C1196 C1198 1.391 . S
C1197 C1196 1.386 . S
C1197 C1201 1.393 . S
C1198 H1190 0.950 . S
C1198 C1196 1.391 . S
C1198 C1199 1.400 . S
C1199 C1198 1.400 . S
C1199 C1200 1.398 . S
C1199 C1205 1.491 . S
C1200 H1191 0.950 . S
C1200 C1199 1.398 . S
C1200 C1201 1.391 . S
C1201 H1189 0.950 . S
C1201 C1197 1.393 . S
C1201 C1200 1.391 . S
C1202 H1192 0.950 . S
C1202 C1203 1.386 . S
C1202 C1204 1.391 . S
C1203 C1202 1.386 . S
C1203 C1207 1.393 . S
C1204 H1193 0.950 . S
C1204 C1202 1.391 . S
C1204 C1205 1.400 . S
C1205 C1199 1.491 . S
C1205 C1204 1.400 . S
C1205 C1206 1.398 . S
C1206 H1194 0.950 . S
C1206 C1205 1.398 . S
C1206 C1207 1.391 . S
C1207 H1195 0.950 . S
C1207 C1203 1.393 . S
C1207 C1206 1.391 . S
H1208 C1216 0.950 . S
H1209 C1221 0.950 . S
H1210 C1218 0.950 . S
H1211 C1220 0.950 . S
H1212 C1222 0.950 . S
H1213 C1224 0.950 . S
H1214 C1226 0.950 . S
H1215 C1227 0.950 . S
C1216 H1208 0.950 . S
C1216 C1217 1.386 . S
C1216 C1218 1.391 . S
C1217 C1216 1.386 . S
C1217 C1221 1.393 . S
C1218 H1210 0.950 . S
C1218 C1216 1.391 . S
C1218 C1219 1.400 . S
C1219 C1218 1.400 . S
C1219 C1220 1.398 . S
C1219 C1225 1.491 . S
C1220 H1211 0.950 . S
C1220 C1219 1.398 . S
C1220 C1221 1.391 . S
C1221 H1209 0.950 . S
C1221 C1217 1.393 . S
C1221 C1220 1.391 . S
C1222 H1212 0.950 . S
C1222 C1223 1.386 . S
C1222 C1224 1.391 . S
C1223 C1222 1.386 . S
C1223 C1227 1.393 . S
C1224 H1213 0.950 . S
C1224 C1222 1.391 . S
C1224 C1225 1.400 . S
C1225 C1219 1.491 . S
C1225 C1224 1.400 . S
C1225 C1226 1.398 . S
C1226 H1214 0.950 . S
C1226 C1225 1.398 . S
C1226 C1227 1.391 . S
C1227 H1215 0.950 . S
C1227 C1223 1.393 . S
C1227 C1226 1.391 . S
H1228 C1236 0.950 . S
H1229 C1241 0.950 . S
H1230 C1238 0.950 . S
H1231 C1240 0.950 . S
H1232 C1242 0.950 . S
H1233 C1244 0.950 . S
H1234 C1246 0.950 . S
H1235 C1247 0.950 . S
C1236 H1228 0.950 . S
C1236 C1237 1.386 . S
C1236 C1238 1.391 . S
C1237 C1236 1.386 . S
C1237 C1241 1.393 . S
C1238 H1230 0.950 . S
C1238 C1236 1.391 . S
C1238 C1239 1.400 . S
C1239 C1238 1.400 . S
C1239 C1240 1.398 . S
C1239 C1245 1.491 1_554 S
C1240 H1231 0.950 . S
C1240 C1239 1.398 . S
C1240 C1241 1.391 . S
C1241 H1229 0.950 . S
C1241 C1237 1.393 . S
C1241 C1240 1.391 . S
C1242 H1232 0.950 . S
C1242 C1243 1.386 . S
C1242 C1244 1.391 . S
C1243 C1242 1.386 . S
C1243 C1247 1.393 . S
C1244 H1233 0.950 . S
C1244 C1242 1.391 . S
C1244 C1245 1.400 . S
C1245 C1239 1.491 1_556 S
C1245 C1244 1.400 . S
C1245 C1246 1.398 . S
C1246 H1234 0.950 . S
C1246 C1245 1.398 . S
C1246 C1247 1.391 . S
C1247 H1235 0.950 . S
C1247 C1243 1.393 . S
C1247 C1246 1.391 . S
H1248 C1256 0.950 . S
H1249 C1261 0.950 . S
H1250 C1258 0.950 . S
H1251 C1260 0.950 . S
H1252 C1262 0.950 . S
H1253 C1264 0.950 . S
H1254 C1266 0.950 . S
H1255 C1267 0.950 . S
C1256 H1248 0.950 . S
C1256 C1257 1.386 . S
C1256 C1258 1.391 . S
C1257 C1256 1.386 . S
C1257 C1261 1.393 . S
C1258 H1250 0.950 . S
C1258 C1256 1.391 . S
C1258 C1259 1.400 . S
C1259 C1258 1.400 . S
C1259 C1260 1.398 . S
C1259 C1265 1.491 . S
C1260 H1251 0.950 . S
C1260 C1259 1.398 . S
C1260 C1261 1.391 . S
C1261 H1249 0.950 . S
C1261 C1257 1.393 . S
C1261 C1260 1.391 . S
C1262 H1252 0.950 . S
C1262 C1263 1.386 . S
C1262 C1264 1.391 . S
C1263 C1262 1.386 . S
C1263 C1267 1.393 . S
C1264 H1253 0.950 . S
C1264 C1262 1.391 . S
C1264 C1265 1.400 . S
C1265 C1259 1.491 . S
C1265 C1264 1.400 . S
C1265 C1266 1.398 . S
C1266 H1254 0.950 . S
C1266 C1265 1.398 . S
C1266 C1267 1.391 . S
C1267 H1255 0.950 . S
C1267 C1263 1.393 . S
C1267 C1266 1.391 . S
H1268 C1276 0.950 . S
H1269 C1281 0.950 . S
H1270 C1278 0.950 . S
H1271 C1280 0.950 . S
H1272 C1282 0.950 . S
H1273 C1284 0.950 . S
H1274 C1286 0.950 . S
H1275 C1287 0.950 . S
C1276 H1268 0.950 . S
C1276 C1277 1.386 . S
C1276 C1278 1.391 . S
C1277 C1276 1.386 . S
C1277 C1281 1.393 . S
C1278 H1270 0.950 . S
C1278 C1276 1.391 . S
C1278 C1279 1.400 . S
C1279 C1278 1.400 . S
C1279 C1280 1.398 . S
C1279 C1285 1.491 . S
C1280 H1271 0.950 . S
C1280 C1279 1.398 . S
C1280 C1281 1.391 . S
C1281 H1269 0.950 . S
C1281 C1277 1.393 . S
C1281 C1280 1.391 . S
C1282 H1272 0.950 . S
C1282 C1283 1.386 . S
C1282 C1284 1.391 . S
C1283 C1282 1.386 . S
C1283 C1287 1.393 . S
C1284 H1273 0.950 . S
C1284 C1282 1.391 . S
C1284 C1285 1.400 . S
C1285 C1279 1.491 . S
C1285 C1284 1.400 . S
C1285 C1286 1.398 . S
C1286 H1274 0.950 . S
C1286 C1285 1.398 . S
C1286 C1287 1.391 . S
C1287 H1275 0.950 . S
C1287 C1283 1.393 . S
C1287 C1286 1.391 . S
H1288 C1296 0.950 . S
H1289 C1301 0.950 . S
H1290 C1298 0.950 . S
H1291 C1300 0.950 . S
H1292 C1302 0.950 . S
H1293 C1304 0.950 . S
H1294 C1306 0.950 . S
H1295 C1307 0.950 . S
C1296 H1288 0.950 . S
C1296 C1297 1.386 . S
C1296 C1298 1.391 . S
C1297 C1296 1.386 . S
C1297 C1301 1.393 . S
C1298 H1290 0.950 . S
C1298 C1296 1.391 . S
C1298 C1299 1.400 . S
C1299 C1298 1.400 . S
C1299 C1300 1.398 . S
C1299 C1305 1.491 . S
C1300 H1291 0.950 . S
C1300 C1299 1.398 . S
C1300 C1301 1.391 . S
C1301 H1289 0.950 . S
C1301 C1297 1.393 . S
C1301 C1300 1.391 . S
C1302 H1292 0.950 . S
C1302 C1303 1.386 . S
C1302 C1304 1.391 . S
C1303 C1302 1.386 . S
C1303 C1307 1.393 . S
C1304 H1293 0.950 . S
C1304 C1302 1.391 . S
C1304 C1305 1.400 . S
C1305 C1299 1.491 . S
C1305 C1304 1.400 . S
C1305 C1306 1.398 . S
C1306 H1294 0.950 . S
C1306 C1305 1.398 . S
C1306 C1307 1.391 . S
C1307 H1295 0.950 . S
C1307 C1303 1.393 . S
C1307 C1306 1.391 . S
H1308 C1316 0.950 . S
H1309 C1321 0.950 . S
H1310 C1318 0.950 . S
H1311 C1320 0.950 . S
H1312 C1322 0.950 . S
H1313 C1324 0.950 . S
H1314 C1326 0.950 . S
H1315 C1327 0.950 . S
C1316 H1308 0.950 . S
C1316 C1317 1.386 . S
C1316 C1318 1.391 . S
C1317 C1316 1.386 . S
C1317 C1321 1.393 . S
C1318 H1310 0.950 . S
C1318 C1316 1.391 . S
C1318 C1319 1.400 . S
C1319 C1318 1.400 . S
C1319 C1320 1.398 . S
C1319 C1325 1.491 . S
C1320 H1311 0.950 . S
C1320 C1319 1.398 . S
C1320 C1321 1.391 . S
C1321 H1309 0.950 . S
C1321 C1317 1.393 . S
C1321 C1320 1.391 . S
C1322 H1312 0.950 . S
C1322 C1323 1.386 . S
C1322 C1324 1.391 . S
C1323 C1322 1.386 . S
C1323 C1327 1.393 . S
C1324 H1313 0.950 . S
C1324 C1322 1.391 . S
C1324 C1325 1.400 . S
C1325 C1319 1.491 . S
C1325 C1324 1.400 . S
C1325 C1326 1.398 . S
C1326 H1314 0.950 . S
C1326 C1325 1.398 . S
C1326 C1327 1.391 . S
C1327 H1315 0.950 . S
C1327 C1323 1.393 . S
C1327 C1326 1.391 . S
C537 C238 1.464 . S
C543 C7 1.466 . S
C557 C40 1.466 . S
C563 C139 1.464 . S
C577 C73 1.513 . S
C583 C172 1.502 . S
C597 C205 1.499 . S
C603 C106 1.512 . S
C617 C384 1.522 . S
C623 C153 1.517 . S
C637 C285 1.522 . S
C643 C21 1.512 . S
C657 C219 1.544 . S
C663 C351 1.555 . S
C677 C87 1.557 . S
C683 C318 1.549 . S
C697 C304 1.505 . S
C703 C403 1.517 . S
C717 C469 1.501 . S
C723 C337 1.509 . S
C737 C436 1.469 . S
C743 C271 1.461 . S
C757 C370 1.473 . S
C763 C502 1.474 . S
C777 C120 1.559 . S
C783 C483 1.550 . S
C797 C186 1.550 . S
C803 C417 1.548 . S
C817 C54 1.510 . S
C823 C516 1.520 . S
C837 C252 1.512 . S
C843 C450 1.516 . S
C857 C18 1.349 . S
C863 C150 1.349 . S
C877 C183 1.380 . S
C883 C51 1.377 . S
C897 C216 1.524 . S
C903 C84 1.525 . S
C917 C117 1.364 . S
C923 C249 1.361 . S
C937 C348 1.380 . S
C943 C282 1.379 . S
C957 C315 1.380 . S
C963 C381 1.378 . S
C977 C414 1.505 . S
C983 C480 1.505 . S
C997 C513 1.379 . S
C1003 C447 1.378 . S
C1017 N13 0.899 1_556 S
C1023 N2 0.899 . S
C1037 N46 0.886 . S
C1043 N35 0.885 . S
C1057 N68 0.931 . S
C1063 N79 0.931 . S
C1077 N101 0.898 . S
C1083 N112 0.899 . S
C1097 N134 0.907 . S
C1103 N145 0.907 1_554 S
C1117 N167 0.910 . S
C1123 N178 0.910 . S
C1137 N211 0.922 . S
C1143 N200 0.921 . S
C1157 N244 0.886 . S
C1163 N233 0.886 . S
C1177 N266 0.885 . S
C1183 N277 0.886 . S
C1197 N299 0.904 . S
C1203 N310 0.903 . S
C1217 N343 0.900 . S
C1223 N332 0.899 . S
C1237 N376 0.889 . S
C1243 N365 0.888 . S
C1257 N409 0.924 . S
C1263 N398 0.925 . S
C1277 N442 0.908 1_556 S
C1283 N431 0.908 . S
C1297 N475 0.922 . S
C1303 N464 0.922 . S
C1317 N497 0.904 . S
C1323 N508 0.905 1_554 S
