# Generated by pormake.
# Topology wkj, (6)-cn, num edge types: 1
# Building blocks:
#     Node 0, Type 0, BuildingBlock: BETDAH_clean_sbu_0, # of connection points: 6
#     Node 1, Type 0, BuildingBlock: BETDAH_clean_sbu_0, # of connection points: 6
#     Node 2, Type 0, BuildingBlock: BETDAH_clean_sbu_0, # of connection points: 6
#     Node 3, Type 0, BuildingBlock: BETDAH_clean_sbu_0, # of connection points: 6
#     Node 4, Type 0, BuildingBlock: BETDAH_clean_sbu_0, # of connection points: 6
#     Node 5, Type 0, BuildingBlock: BETDAH_clean_sbu_0, # of connection points: 6
#     Node 6, Type 0, BuildingBlock: BETDAH_clean_sbu_0, # of connection points: 6
#     Node 7, Type 0, BuildingBlock: BETDAH_clean_sbu_0, # of connection points: 6
#     Node 8, Type 0, BuildingBlock: BETDAH_clean_sbu_0, # of connection points: 6
#     Node 9, Type 0, BuildingBlock: BETDAH_clean_sbu_0, # of connection points: 6
#     Node 10, Type 0, BuildingBlock: BETDAH_clean_sbu_0, # of connection points: 6
#     Node 11, Type 0, BuildingBlock: BETDAH_clean_sbu_0, # of connection points: 6
#     Edge 12, Type (0, 0), BuildingBlock: MIFKUJ_clean_linker_0, # of connection points: 2
#     Edge 13, Type (0, 0), BuildingBlock: MIFKUJ_clean_linker_0, # of connection points: 2
#     Edge 14, Type (0, 0), BuildingBlock: MIFKUJ_clean_linker_0, # of connection points: 2
#     Edge 15, Type (0, 0), BuildingBlock: MIFKUJ_clean_linker_0, # of connection points: 2
#     Edge 16, Type (0, 0), BuildingBlock: MIFKUJ_clean_linker_0, # of connection points: 2
#     Edge 17, Type (0, 0), BuildingBlock: MIFKUJ_clean_linker_0, # of connection points: 2
#     Edge 18, Type (0, 0), BuildingBlock: MIFKUJ_clean_linker_0, # of connection points: 2
#     Edge 19, Type (0, 0), BuildingBlock: MIFKUJ_clean_linker_0, # of connection points: 2
#     Edge 20, Type (0, 0), BuildingBlock: MIFKUJ_clean_linker_0, # of connection points: 2
#     Edge 21, Type (0, 0), BuildingBlock: MIFKUJ_clean_linker_0, # of connection points: 2
#     Edge 22, Type (0, 0), BuildingBlock: MIFKUJ_clean_linker_0, # of connection points: 2
#     Edge 23, Type (0, 0), BuildingBlock: MIFKUJ_clean_linker_0, # of connection points: 2
#     Edge 24, Type (0, 0), BuildingBlock: MIFKUJ_clean_linker_0, # of connection points: 2
#     Edge 25, Type (0, 0), BuildingBlock: MIFKUJ_clean_linker_0, # of connection points: 2
#     Edge 26, Type (0, 0), BuildingBlock: MIFKUJ_clean_linker_0, # of connection points: 2
#     Edge 27, Type (0, 0), BuildingBlock: MIFKUJ_clean_linker_0, # of connection points: 2
#     Edge 28, Type (0, 0), BuildingBlock: MIFKUJ_clean_linker_0, # of connection points: 2
#     Edge 29, Type (0, 0), BuildingBlock: MIFKUJ_clean_linker_0, # of connection points: 2
#     Edge 30, Type (0, 0), BuildingBlock: MIFKUJ_clean_linker_0, # of connection points: 2
#     Edge 31, Type (0, 0), BuildingBlock: MIFKUJ_clean_linker_0, # of connection points: 2
#     Edge 32, Type (0, 0), BuildingBlock: MIFKUJ_clean_linker_0, # of connection points: 2
#     Edge 33, Type (0, 0), BuildingBlock: MIFKUJ_clean_linker_0, # of connection points: 2
#     Edge 34, Type (0, 0), BuildingBlock: MIFKUJ_clean_linker_0, # of connection points: 2
#     Edge 35, Type (0, 0), BuildingBlock: MIFKUJ_clean_linker_0, # of connection points: 2
#     Edge 36, Type (0, 0), BuildingBlock: MIFKUJ_clean_linker_0, # of connection points: 2
#     Edge 37, Type (0, 0), BuildingBlock: MIFKUJ_clean_linker_0, # of connection points: 2
#     Edge 38, Type (0, 0), BuildingBlock: MIFKUJ_clean_linker_0, # of connection points: 2
#     Edge 39, Type (0, 0), BuildingBlock: MIFKUJ_clean_linker_0, # of connection points: 2
#     Edge 40, Type (0, 0), BuildingBlock: MIFKUJ_clean_linker_0, # of connection points: 2
#     Edge 41, Type (0, 0), BuildingBlock: MIFKUJ_clean_linker_0, # of connection points: 2
#     Edge 42, Type (0, 0), BuildingBlock: MIFKUJ_clean_linker_0, # of connection points: 2
#     Edge 43, Type (0, 0), BuildingBlock: MIFKUJ_clean_linker_0, # of connection points: 2
#     Edge 44, Type (0, 0), BuildingBlock: MIFKUJ_clean_linker_0, # of connection points: 2
#     Edge 45, Type (0, 0), BuildingBlock: MIFKUJ_clean_linker_0, # of connection points: 2
#     Edge 46, Type (0, 0), BuildingBlock: MIFKUJ_clean_linker_0, # of connection points: 2
#     Edge 47, Type (0, 0), BuildingBlock: MIFKUJ_clean_linker_0, # of connection points: 2
# Relax obj value: 0.563
# Max RMSD: 0.172
# Mean RMSD: 0.172
data_MOF--net-wkj--node1-BETDAH_clean_sbu_0--edge1-MIFKUJ_clean_linker_0
_symmetry_space_group_name_H-M    P1
_symmetry_Int_Tables_number       1
_symmetry_cell_setting            triclinic
loop_
_symmetry_equiv_pos_as_xyz
'x, y, z'
_cell_length_a     62.172244
_cell_length_b     62.608662
_cell_length_c     39.777775
_cell_angle_alpha  89.891506
_cell_angle_beta   89.958082
_cell_angle_gamma 119.93237
loop_
_atom_site_label
_atom_site_type_symbol
_atom_site_fract_x
_atom_site_fract_y
_atom_site_fract_z
_atom_type_partial_charge
Ho0 Ho 0.48143 0.08695 0.31775 0.0
Ho1 Ho 0.53349 0.11048 0.30257 0.0
C2 C 0.51993 0.10732 0.38463 0.0
C3 C 0.43578 0.06613 0.33819 0.0
C4 C 0.42334 0.06206 0.37062 0.0
C5 C 0.43553 0.06232 0.40032 0.0
C6 C 0.42481 0.06162 0.43133 0.0
C7 C 0.40168 0.06051 0.43305 0.0
C8 C 0.38927 0.05969 0.40319 0.0
C9 C 0.40013 0.06061 0.37213 0.0
C10 C 0.49924 0.13211 0.28511 0.0
C11 C 0.49373 0.07127 0.24391 0.0
C12 C 0.57605 0.14403 0.27977 0.0
C13 C 0.5829 0.1649 0.25665 0.0
C14 C 0.59689 0.18917 0.26872 0.0
C15 C 0.59999 0.2091 0.24914 0.0
C16 C 0.58911 0.20501 0.2172 0.0
C17 C 0.57621 0.18083 0.20453 0.0
C18 C 0.57304 0.16097 0.22407 0.0
C19 C 0.52005 0.06819 0.33498 0.0
O20 O 0.4965 0.09526 0.3733 0.0
O21 O 0.53805 0.11658 0.36132 0.0
O22 O 0.44878 0.0892 0.3295 0.0
O23 O 0.44744 0.05401 0.33235 0.0
O24 O 0.4792 0.11185 0.27777 0.0
O25 O 0.50943 0.127 0.30912 0.0
O26 O 0.51664 0.09029 0.25046 0.0
O27 O 0.47673 0.06518 0.26818 0.0
O28 O 0.56392 0.12176 0.26726 0.0
O29 O 0.56667 0.1458 0.30823 0.0
O30 O 0.54283 0.08588 0.3315 0.0
O31 O 0.50653 0.07194 0.31454 0.0
H32 H 0.45345 0.06345 0.39957 0.0
H33 H 0.43458 0.0618 0.45395 0.0
H34 H 0.37141 0.05878 0.4039 0.0
H35 H 0.39068 0.0607 0.3493 0.0
H36 H 0.60459 0.19263 0.29386 0.0
H37 H 0.61017 0.22755 0.25937 0.0
H38 H 0.56824 0.1772 0.17955 0.0
H39 H 0.56213 0.14254 0.21402 0.0
Ho40 Ho 0.39515 0.48722 0.65391 0.0
Ho41 Ho 0.42266 0.53765 0.6376 0.0
C42 C 0.41389 0.52517 0.72011 0.0
C43 C 0.36951 0.4416 0.67277 0.0
C44 C 0.36347 0.42501 0.70143 0.0
C45 C 0.37686 0.43281 0.73146 0.0
C46 C 0.36992 0.41665 0.75874 0.0
C47 C 0.3495 0.39253 0.75637 0.0
C48 C 0.33623 0.38493 0.72608 0.0
C49 C 0.34319 0.40108 0.69884 0.0
C50 C 0.36656 0.50389 0.62128 0.0
C51 C 0.42202 0.49752 0.57954 0.0
C52 C 0.43457 0.58111 0.61496 0.0
C53 C 0.42208 0.5921 0.59662 0.0
C54 C 0.39785 0.57732 0.5847 0.0
C55 C 0.38583 0.58802 0.56798 0.0
C56 C 0.39802 0.61365 0.56262 0.0
C57 C 0.42215 0.62842 0.57522 0.0
C58 C 0.43404 0.6177 0.59229 0.0
C59 C 0.45294 0.52603 0.67023 0.0
O60 O 0.40406 0.50191 0.70935 0.0
O61 O 0.42065 0.54262 0.69626 0.0
O62 O 0.36146 0.4572 0.67444 0.0
O63 O 0.39197 0.45142 0.66054 0.0
O64 O 0.36822 0.48479 0.6133 0.0
O65 O 0.38192 0.51457 0.64497 0.0
O66 O 0.42626 0.52049 0.58578 0.0
O67 O 0.41122 0.4811 0.60426 0.0
O68 O 0.43875 0.56552 0.59849 0.0
O69 O 0.42581 0.57321 0.64493 0.0
O70 O 0.45715 0.54825 0.66585 0.0
O71 O 0.4356 0.51164 0.65059 0.0
H72 H 0.39254 0.45132 0.7338 0.0
H73 H 0.3807 0.423 0.78154 0.0
H74 H 0.32027 0.36663 0.72356 0.0
H75 H 0.33257 0.39495 0.67576 0.0
H76 H 0.38845 0.55751 0.58788 0.0
H77 H 0.36745 0.57611 0.55792 0.0
H78 H 0.43197 0.64818 0.57127 0.0
H79 H 0.45267 0.62936 0.60175 0.0
Ho80 Ho 0.90323 0.39352 0.985 0.0
Ho81 Ho 0.87638 0.41771 0.96655 0.0
C82 C 0.88186 0.41247 1.04984 0.0
C83 C 0.9265 0.37211 1.00865 0.0
C84 C 0.92986 0.36463 1.0421 0.0
C85 C 0.92887 0.37716 1.07063 0.0
C86 C 0.92812 0.36765 0.10251 0.0
C87 C 0.92882 0.34567 0.10641 0.0
C88 C 0.93052 0.33353 0.07773 0.0
C89 C 0.93089 0.3429 1.04575 0.0
C90 C 0.85809 0.36271 0.95406 0.0
C91 C 0.91634 0.41631 0.90877 0.0
C92 C 0.84126 0.42376 0.94193 0.0
C93 C 0.82232 0.41152 0.91583 0.0
C94 C 0.79897 0.40951 0.91976 0.0
C95 C 0.7802 0.39661 0.89621 0.0
C96 C 0.78451 0.38551 0.86825 0.0
C97 C 0.80802 0.38756 0.8646 0.0
C98 C 0.82667 0.40026 0.88828 0.0
C99 C 0.91842 0.45011 0.99684 0.0
O100 O 0.89499 0.40197 1.0397 0.0
O101 O 0.87109 0.41891 1.02551 0.0
O102 O 0.90368 0.36033 0.99806 0.0
O103 O 0.93729 0.39574 1.00254 0.0
O104 O 0.87925 0.36499 0.94579 0.0
O105 O 0.86224 0.37822 0.97724 0.0
O106 O 0.89612 0.41862 0.9144 0.0
O107 O 0.92436 0.40866 0.93469 0.0
O108 O 0.86439 0.43649 0.93202 0.0
O109 O 0.8385 0.41003 0.9681 0.0
O110 O 0.89905 0.45268 0.99393 0.0
O111 O 0.91597 0.4328 0.97761 0.0
H112 H 0.92813 0.39401 1.06827 0.0
H113 H 0.92703 0.37757 0.12405 0.0
H114 H 0.93095 0.3165 0.07998 0.0
H115 H 0.9313 0.33284 1.02385 0.0
H116 H 0.79519 0.41773 0.94126 0.0
H117 H 0.76229 0.3952 0.90003 0.0
H118 H 0.81227 0.37974 0.84308 0.0
H119 H 0.84446 0.40126 0.88507 0.0
Ho120 Ho 0.51187 0.90501 0.31791 0.0
Ho121 Ho 0.46175 0.88576 0.3058 0.0
C122 C 0.47472 0.88899 0.38694 0.0
C123 C 0.55705 0.92279 0.33888 0.0
C124 C 0.56749 0.9205 0.37086 0.0
C125 C 0.55668 0.92115 0.4015 0.0
C126 C 0.56568 0.91742 0.4316 0.0
C127 C 0.58568 0.91288 0.43173 0.0
C128 C 0.5965 0.91219 0.40103 0.0
C129 C 0.58738 0.91589 0.37077 0.0
C130 C 0.49082 0.85877 0.28836 0.0
C131 C 0.50066 0.92235 0.2444 0.0
C132 C 0.41734 0.85481 0.28556 0.0
C133 C 0.40756 0.83129 0.26791 0.0
C134 C 0.38294 0.81265 0.27305 0.0
C135 C 0.37408 0.78958 0.25807 0.0
C136 C 0.38978 0.78484 0.23777 0.0
C137 C 0.41468 0.80352 0.23355 0.0
C138 C 0.42349 0.82645 0.24859 0.0
C139 C 0.47906 0.93008 0.33316 0.0
O140 O 0.49748 0.89659 0.37441 0.0
O141 O 0.45666 0.88271 0.36436 0.0
O142 O 0.54522 0.90246 0.32188 0.0
O143 O 0.54523 0.93512 0.33938 0.0
O144 O 0.51026 0.87843 0.27757 0.0
O145 O 0.48227 0.86522 0.31304 0.0
O146 O 0.47735 0.90478 0.25248 0.0
O147 O 0.51791 0.92725 0.26792 0.0
O148 O 0.43253 0.87465 0.26873 0.0
O149 O 0.42547 0.8546 0.31559 0.0
O150 O 0.45611 0.91273 0.33484 0.0
O151 O 0.49113 0.92455 0.3127 0.0
H152 H 0.5413 0.92463 0.40234 0.0
H153 H 0.55738 0.91878 0.45487 0.0
H154 H 0.612 0.90885 0.40045 0.0
H155 H 0.59576 0.91504 0.34728 0.0
H156 H 0.37061 0.81594 0.28868 0.0
H157 H 0.35487 0.77558 0.26196 0.0
H158 H 0.42722 0.80083 0.21752 0.0
H159 H 0.44272 0.84049 0.24496 0.0
Ho160 Ho 0.59645 0.5032 0.65227 0.0
Ho161 Ho 0.56961 0.45239 0.63304 0.0
C162 C 0.57851 0.46615 0.71758 0.0
C163 C 0.61886 0.55028 0.66166 0.0
C164 C 0.63706 0.56659 0.68632 0.0
C165 C 0.64014 0.55679 0.71641 0.0
C166 C 0.65389 0.57241 0.74253 0.0
C167 C 0.665 0.59814 0.73886 0.0
C168 C 0.66373 0.60786 0.70744 0.0
C169 C 0.64966 0.59214 0.68139 0.0
C170 C 0.62692 0.48323 0.64039 0.0
C171 C 0.56976 0.49124 0.57508 0.0
C172 C 0.5606 0.4092 0.61436 0.0
C173 C 0.5681 0.39688 0.58952 0.0
C174 C 0.56412 0.37329 0.59691 0.0
C175 C 0.57161 0.36119 0.57435 0.0
C176 C 0.58321 0.3725 0.5439 0.0
C177 C 0.58739 0.39636 0.53676 0.0
C178 C 0.57997 0.4085 0.55947 0.0
C179 C 0.5393 0.46383 0.66616 0.0
O180 O 0.58718 0.48932 0.70737 0.0
O181 O 0.57309 0.44916 0.69305 0.0
O182 O 0.6266 0.5398 0.64027 0.0
O183 O 0.59704 0.53492 0.67414 0.0
O184 O 0.62759 0.49561 0.66679 0.0
O185 O 0.60883 0.48068 0.62263 0.0
O186 O 0.56335 0.46771 0.58181 0.0
O187 O 0.58222 0.50786 0.59923 0.0
O188 O 0.54784 0.41939 0.60365 0.0
O189 O 0.5776 0.42272 0.63638 0.0
O190 O 0.53579 0.44173 0.66351 0.0
O191 O 0.55655 0.47797 0.64623 0.0
H192 H 0.63063 0.53704 0.72049 0.0
H193 H 0.65403 0.56414 0.76641 0.0
H194 H 0.67237 0.62758 0.70365 0.0
H195 H 0.64762 0.59992 0.65808 0.0
H196 H 0.55526 0.36422 0.62027 0.0
H197 H 0.56839 0.34302 0.58086 0.0
H198 H 0.59592 0.40547 0.51331 0.0
H199 H 0.5834 0.42684 0.55355 0.0
Ho200 Ho 0.09039 0.59646 0.98362 0.0
Ho201 Ho 0.11356 0.56887 0.96761 0.0
C202 C 0.10774 0.5753 1.05018 0.0
C203 C 0.06949 0.6213 1.00249 0.0
C204 C 0.05988 0.62755 1.03193 0.0
C205 C 0.0638 0.62142 1.06432 0.0
C206 C 0.05635 0.62958 0.09218 0.0
C207 C 0.04476 0.64382 0.08792 0.0
C208 C 0.04067 0.64963 1.05531 0.0
C209 C 0.04825 0.64157 1.0275 0.0
C210 C 0.13616 0.62503 0.95254 0.0
C211 C 0.07628 0.5724 0.90785 0.0
C212 C 0.14591 0.55792 0.94469 0.0
C213 C 0.16757 0.56975 0.922 0.0
C214 C 0.18798 0.59306 0.92935 0.0
C215 C 0.20733 0.60494 0.90628 0.0
C216 C 0.20666 0.59378 0.87541 0.0
C217 C 0.18692 0.56989 0.86893 0.0
C218 C 0.16758 0.55798 0.89207 0.0
C219 C 0.07035 0.53888 0.9978 0.0
O220 O 0.0955 0.58654 1.03916 0.0
O221 O 0.11835 0.56822 1.02654 0.0
O222 O 0.09342 0.63007 1.00221 0.0
O223 O 0.05705 0.59861 0.99178 0.0
O224 O 0.11549 0.62367 0.94398 0.0
O225 O 0.13112 0.60936 0.97598 0.0
O226 O 0.09413 0.56684 0.9151 0.0
O227 O 0.07036 0.58316 0.9322 0.0
O228 O 0.12413 0.55002 0.93102 0.0
O229 O 0.14803 0.56891 0.97331 0.0
O230 O 0.08862 0.53459 0.99537 0.0
O231 O 0.07429 0.55651 0.97813 0.0
H232 H 0.07288 0.61067 1.06801 0.0
H233 H 0.05948 0.62457 0.117 0.0
H234 H 0.03193 0.66068 1.05133 0.0
H235 H 0.04538 0.64662 1.00251 0.0
H236 H 0.18873 0.60251 0.95245 0.0
H237 H 0.22234 0.62329 0.91201 0.0
H238 H 0.18562 0.56095 0.84512 0.0
H239 H 0.15216 0.53993 0.88599 0.0
Ho240 Ho 0.90611 0.51792 0.49958 0.0
Ho241 Ho 0.89652 0.47109 0.50931 0.0
C242 C 0.89069 0.48017 0.4303 0.0
C243 C 0.91669 0.56209 0.48205 0.0
C244 C 0.92035 0.57594 0.451 0.0
C245 C 0.91682 0.56439 0.4198 0.0
C246 C 0.92146 0.57797 0.39031 0.0
C247 C 0.92952 0.60331 0.39157 0.0
C248 C 0.93228 0.61467 0.42295 0.0
C249 C 0.92773 0.60101 0.45253 0.0
C250 C 0.86215 0.49256 0.53455 0.0
C251 C 0.93023 0.50993 0.57059 0.0
C252 C 0.87596 0.42629 0.53219 0.0
C253 C 0.85073 0.40996 0.54469 0.0
C254 C 0.83615 0.42005 0.55505 0.0
C255 C 0.81244 0.40495 0.568 0.0
C256 C 0.80284 0.37939 0.57103 0.0
C257 C 0.81719 0.36919 0.55944 0.0
C258 C 0.84098 0.38441 0.54625 0.0
C259 C 0.9412 0.49835 0.47833 0.0
O260 O 0.89851 0.5029 0.44275 0.0
O261 O 0.88594 0.46286 0.4531 0.0
O262 O 0.89425 0.54404 0.48722 0.0
O263 O 0.93338 0.5559 0.48875 0.0
O264 O 0.88133 0.51306 0.54335 0.0
O265 O 0.86853 0.48442 0.50903 0.0
O266 O 0.91832 0.4866 0.55987 0.0
O267 O 0.92878 0.5264 0.5504 0.0
O268 O 0.88947 0.44572 0.55044 0.0
O269 O 0.87752 0.43172 0.50043 0.0
O270 O 0.92665 0.47498 0.4739 0.0
O271 O 0.93273 0.50548 0.50163 0.0
H272 H 0.91097 0.54503 0.4182 0.0
H273 H 0.91972 0.56878 0.36658 0.0
H274 H 0.93842 0.63414 0.42462 0.0
H275 H 0.93034 0.6101 0.47657 0.0
H276 H 0.84345 0.43976 0.55401 0.0
H277 H 0.80219 0.41354 0.57729 0.0
H278 H 0.81027 0.34957 0.56141 0.0
H279 H 0.85193 0.37632 0.53796 0.0
Ho280 Ho 0.39491 0.90309 0.83745 0.0
Ho281 Ho 0.42461 0.88272 0.85168 0.0
C282 C 0.41701 0.8877 0.76965 0.0
C283 C 0.3673 0.92138 0.8197 0.0
C284 C 0.36088 0.93117 0.79057 0.0
C285 C 0.3717 0.93274 0.75913 0.0
C286 C 0.36516 0.94217 0.73168 0.0
C287 C 0.34772 0.9501 0.73545 0.0
C288 C 0.33678 0.94823 0.76699 0.0
C289 C 0.34332 0.93876 0.79438 0.0
C290 C 0.36855 0.85792 0.86996 0.0
C291 C 0.42147 0.91928 0.91177 0.0
C292 C 0.43902 0.85253 0.87209 0.0
C293 C 0.42957 0.8313 0.89471 0.0
C294 C 0.43814 0.81453 0.89134 0.0
C295 C 0.42799 0.79318 0.91101 0.0
C296 C 0.40904 0.78829 0.93427 0.0
C297 C 0.40048 0.80523 0.93737 0.0
C298 C 0.41056 0.82648 0.91761 0.0
C299 C 0.45289 0.9263 0.82246 0.0
O300 O 0.4042 0.89815 0.7813 0.0
O301 O 0.42567 0.87841 0.79291 0.0
O302 O 0.36011 0.89797 0.81865 0.0
O303 O 0.38977 0.93461 0.83136 0.0
O304 O 0.36958 0.87821 0.87896 0.0
O305 O 0.38354 0.86313 0.84547 0.0
O306 O 0.42649 0.90114 0.90483 0.0
O307 O 0.41043 0.9249 0.88733 0.0
O308 O 0.44648 0.87408 0.88572 0.0
O309 O 0.42535 0.84893 0.84559 0.0
O310 O 0.45737 0.90826 0.82151 0.0
O311 O 0.43533 0.92176 0.84258 0.0
H312 H 0.3853 0.9269 0.7559 0.0
H313 H 0.37424 0.94389 0.70776 0.0
H314 H 0.32329 0.95418 0.77047 0.0
H315 H 0.33474 0.93747 0.8186 0.0
H316 H 0.45254 0.81786 0.87326 0.0
H317 H 0.43492 0.78049 0.90799 0.0
H318 H 0.38637 0.80241 0.95561 0.0
H319 H 0.40349 0.83911 0.92013 0.0
Ho320 Ho 0.48251 0.39411 0.16856 0.0
Ho321 Ho 0.53305 0.41924 0.18413 0.0
C322 C 0.52107 0.4124 0.10161 0.0
C323 C 0.43704 0.37357 0.14734 0.0
C324 C 0.42367 0.35979 0.11751 0.0
C325 C 0.43563 0.35334 0.09303 0.0
C326 C 0.42318 0.34163 1.0636 0.0
C327 C 0.3986 0.3362 1.05834 0.0
C328 C 0.38641 0.34187 0.08359 0.0
C329 C 0.39892 0.35363 0.11298 0.0
C330 C 0.49772 0.36305 0.19647 0.0
C331 C 0.49415 0.42008 0.24364 0.0
C332 C 0.57553 0.42716 0.20682 0.0
C333 C 0.58359 0.41117 0.2226 0.0
C334 C 0.60885 0.41848 0.22393 0.0
C335 C 0.61647 0.40301 0.23852 0.0
C336 C 0.59887 0.37991 0.25165 0.0
C337 C 0.57349 0.37237 0.24911 0.0
C338 C 0.56595 0.38793 0.23489 0.0
C339 C 0.52173 0.45162 0.15896 0.0
O340 O 0.49768 0.39925 0.11292 0.0
O341 O 0.53884 0.4218 0.12518 0.0
O342 O 0.44541 0.36264 0.16677 0.0
O343 O 0.45335 0.3967 0.14243 0.0
O344 O 0.47869 0.36474 0.20566 0.0
O345 O 0.50888 0.37923 0.17369 0.0
O346 O 0.51679 0.42305 0.23692 0.0
O347 O 0.47761 0.41061 0.21874 0.0
O348 O 0.56026 0.43142 0.22419 0.0
O349 O 0.56858 0.42177 0.17571 0.0
O350 O 0.54378 0.4544 0.15823 0.0
O351 O 0.50734 0.43354 0.17745 0.0
H352 H 0.45471 0.3578 0.09638 0.0
H353 H 0.43294 0.33735 1.04461 0.0
H354 H 0.36763 0.33827 0.07997 0.0
H355 H 0.38948 0.35851 0.13177 0.0
H356 H 0.62266 0.43625 0.21405 0.0
H357 H 0.63613 0.40929 0.24015 0.0
H358 H 0.55946 0.3549 0.25949 0.0
H359 H 0.54636 0.38202 0.23392 0.0
Ho360 Ho 0.08729 0.46962 0.49841 0.0
Ho361 Ho 0.09289 0.51505 0.50934 0.0
C362 C 0.09653 0.50345 0.42792 0.0
C363 C 0.0722 0.42294 0.49381 0.0
C364 C 0.05639 0.40315 0.47027 0.0
C365 C 0.06434 0.40278 0.43732 0.0
C366 C 0.04802 0.38571 0.41418 0.0
C367 C 0.02348 0.36883 0.42355 0.0
C368 C 0.01593 0.36831 0.45692 0.0
C369 C 0.03234 0.38523 0.48018 0.0
C370 C 0.13563 0.50077 0.51717 0.0
C371 C 0.06444 0.47971 0.57216 0.0
C372 C 0.116 0.56263 0.51327 0.0
C373 C 0.13707 0.57954 0.53393 0.0
C374 C 0.14633 0.56981 0.55787 0.0
C375 C 0.16834 0.58517 0.57462 0.0
C376 C 0.1816 0.61061 0.56769 0.0
C377 C 0.17208 0.62041 0.54397 0.0
C378 C 0.14999 0.60488 0.52696 0.0
C379 C 0.04661 0.48164 0.48697 0.0
O380 O 0.08857 0.48058 0.44032 0.0
O381 O 0.10094 0.52056 0.45114 0.0
O382 O 0.09365 0.44016 0.48267 0.0
O383 O 0.06089 0.43191 0.5115 0.0
O384 O 0.12836 0.4861 0.4918 0.0
O385 O 0.11634 0.49951 0.53092 0.0
O386 O 0.07651 0.50313 0.5625 0.0
O387 O 0.06567 0.46355 0.55087 0.0
O388 O 0.09513 0.54845 0.529 0.0
O389 O 0.12162 0.55044 0.49188 0.0
O390 O 0.05065 0.49931 0.50763 0.0
O391 O 0.06697 0.48504 0.47706 0.0
H392 H 0.08282 0.41625 0.42894 0.0
H393 H 0.05416 0.38669 0.38844 0.0
H394 H -0.0029 0.35538 0.46468 0.0
H395 H 0.02588 0.38496 0.50557 0.0
H396 H 0.13674 0.55019 0.56312 0.0
H397 H 0.17477 0.57712 0.59344 0.0
H398 H 0.18183 0.63996 0.53838 0.0
H399 H 0.14325 0.61254 0.50801 0.0
Ho400 Ho 0.59769 0.08752 0.83285 0.0
Ho401 Ho 0.56731 0.10802 0.84759 0.0
C402 C 0.57773 0.10591 0.76574 0.0
C403 C 0.62189 0.06663 0.81108 0.0
C404 C 0.62048 0.05088 0.78283 0.0
C405 C 0.62029 0.05786 0.74931 0.0
C406 C 0.61991 0.04291 0.72307 0.0
C407 C 0.61951 0.02064 0.72988 0.0
C408 C 0.619 0.01345 0.76349 0.0
C409 C 0.61962 0.02851 0.78968 0.0
C410 C 0.62452 0.13265 0.86546 0.0
C411 C 0.57088 0.07141 0.9076 0.0
C412 C 0.54995 0.13595 0.86738 0.0
C413 C 0.55441 0.15527 0.89169 0.0
C414 C 0.57777 0.1695 0.90651 0.0
C415 C 0.5824 0.18951 0.9268 0.0
C416 C 0.56378 0.19562 0.93254 0.0
C417 C 0.54024 0.18097 0.9182 0.0
C418 C 0.53564 0.16099 0.8978 0.0
C419 C 0.54083 0.06519 0.8139 0.0
O420 O 0.58871 0.09353 0.7771 0.0
O421 O 0.56949 0.11549 0.78919 0.0
O422 O 0.62815 0.08942 0.80423 0.0
O423 O 0.60395 0.05652 0.83303 0.0
O424 O 0.6248 0.11264 0.87233 0.0
O425 O 0.60876 0.12747 0.84195 0.0
O426 O 0.566 0.08967 0.90072 0.0
O427 O 0.58174 0.06566 0.88298 0.0
O428 O 0.54184 0.11364 0.87885 0.0
O429 O 0.567 0.14214 0.84434 0.0
O430 O 0.5356 0.08274 0.81481 0.0
O431 O 0.55742 0.06978 0.83567 0.0
H432 H 0.62072 0.07495 0.74331 0.0
H433 H 0.6205 0.04911 0.69747 0.0
H434 H 0.6181 -0.00384 0.7696 0.0
H435 H 0.61955 0.02271 0.81539 0.0
H436 H 0.5925 0.16536 0.902 0.0
H437 H 0.60046 0.20001 0.93838 0.0
H438 H 0.52554 0.18519 0.92236 0.0
H439 H 0.51756 0.15026 0.88625 0.0
Ho440 Ho 0.51076 0.60182 0.16776 0.0
Ho441 Ho 0.45971 0.57089 0.18093 0.0
C442 C 0.47274 0.58302 0.1 0.0
C443 C 0.55596 0.62704 0.14608 0.0
C444 C 0.56892 0.62719 0.11518 0.0
C445 C 0.55717 0.62296 0.08384 0.0
C446 C 0.5697 0.62331 1.05464 0.0
C447 C 0.59427 0.62805 1.05623 0.0
C448 C 0.60583 0.63173 0.0877 0.0
C449 C 0.59321 0.63131 0.117 0.0
C450 C 0.49081 0.627 0.20156 0.0
C451 C 0.4995 0.57261 0.2406 0.0
C452 C 0.41479 0.55455 0.2021 0.0
C453 C 0.4021 0.56191 0.22678 0.0
C454 C 0.40487 0.58562 0.22616 0.0
C455 C 0.39264 0.59224 0.24973 0.0
C456 C 0.37778 0.57544 0.27469 0.0
C457 C 0.37456 0.55155 0.27473 0.0
C458 C 0.38657 0.54483 0.25091 0.0
C459 C 0.47711 0.54574 0.14604 0.0
O460 O 0.49607 0.59388 0.11172 0.0
O461 O 0.45463 0.57417 0.12307 0.0
O462 O 0.53967 0.63429 0.1432 0.0
O463 O 0.54803 0.60744 0.16486 0.0
O464 O 0.51113 0.6272 0.20909 0.0
O465 O 0.48118 0.61212 0.17706 0.0
O466 O 0.47619 0.56743 0.2334 0.0
O467 O 0.51662 0.58492 0.21697 0.0
O468 O 0.42924 0.54672 0.21389 0.0
O469 O 0.42443 0.56913 0.17625 0.0
O470 O 0.45407 0.54013 0.14689 0.0
O471 O 0.48868 0.56171 0.16854 0.0
H472 H 0.53839 0.61957 0.08182 0.0
H473 H 0.56014 0.61988 1.03079 0.0
H474 H 0.62479 0.6355 0.08961 0.0
H475 H 0.60249 0.63445 0.14104 0.0
H476 H 0.41668 0.5992 0.20772 0.0
H477 H 0.39549 0.61075 0.249 0.0
H478 H 0.36294 0.53811 0.29343 0.0
H479 H 0.38394 0.52637 0.25155 0.0
H480 H 0.53943 0.17458 0.25861 0.0
H481 H 0.54164 0.21325 0.24152 0.0
H482 H 0.46753 0.18641 0.27969 0.0
H483 H 0.46479 0.14709 0.29363 0.0
H484 H 0.46738 0.20959 0.23321 0.0
H485 H 0.53526 0.23979 0.31356 0.0
H486 H 0.57507 0.24676 0.33674 0.0
H487 H 0.61185 0.28097 0.2442 0.0
H488 H 0.57225 0.27409 0.22044 0.0
H489 H 0.46824 0.32376 0.23739 0.0
H490 H 0.47075 0.28707 0.25111 0.0
H491 H 0.5362 0.31364 0.18957 0.0
H492 H 0.53356 0.35073 0.17546 0.0
H493 H 0.54246 0.29179 0.24377 0.0
H494 H 0.47561 0.26399 0.16528 0.0
H495 H 0.43631 0.25846 0.14234 0.0
H496 H 0.39791 0.21985 0.23193 0.0
H497 H 0.43706 0.22542 0.25559 0.0
C498 C 0.52367 0.17698 0.26352 0.0
C499 C 0.502 0.15738 0.27785 0.0
C500 C 0.52496 0.19955 0.25394 0.0
C501 C 0.50496 0.20405 0.25948 0.0
C502 C 0.48347 0.18434 0.27441 0.0
C503 C 0.48192 0.16157 0.28287 0.0
C504 C 0.50563 0.22835 0.24908 0.0
C505 C 0.48389 0.22743 0.23642 0.0
C506 C 0.52708 0.25242 0.25113 0.0
C507 C 0.55079 0.25631 0.26522 0.0
C508 C 0.55184 0.24871 0.29815 0.0
C509 C 0.57436 0.25264 0.31137 0.0
C510 C 0.59595 0.26421 0.2919 0.0
C511 C 0.59509 0.27194 0.2592 0.0
C512 C 0.57263 0.26808 0.24587 0.0
C513 C 0.48323 0.32197 0.2265 0.0
C514 C 0.50054 0.34063 0.20491 0.0
C515 C 0.48459 0.30059 0.23435 0.0
C516 C 0.50343 0.29662 0.22119 0.0
C517 C 0.52124 0.31558 0.20024 0.0
C518 C 0.51969 0.33699 0.19199 0.0
C519 C 0.50413 0.2728 0.22919 0.0
C520 C 0.52605 0.27385 0.24103 0.0
C521 C 0.48287 0.24883 0.22656 0.0
C522 C 0.4593 0.2453 0.21231 0.0
C523 C 0.45881 0.25445 0.18016 0.0
C524 C 0.43656 0.25129 0.16702 0.0
C525 C 0.41464 0.23886 0.18569 0.0
C526 C 0.41491 0.2295 0.21751 0.0
C527 C 0.43711 0.23262 0.23078 0.0
H528 H 0.39743 0.23645 0.17548 0.0
H529 H 0.61337 0.26724 0.30218 0.0
H530 H 0.35608 0.5418 0.63565 0.0
H531 H 0.31934 0.54469 0.62012 0.0
H532 H 0.28725 0.47313 0.57361 0.0
H533 H 0.32453 0.47124 0.58683 0.0
H534 H 0.27236 0.49347 0.53782 0.0
H535 H 0.26946 0.49196 0.65844 0.0
H536 H 0.28442 0.50579 0.71614 0.0
H537 H 0.29132 0.57622 0.69478 0.0
H538 H 0.27667 0.56289 0.63684 0.0
H539 H 0.14721 0.49345 0.58319 0.0
H540 H 0.18618 0.49612 0.60286 0.0
H541 H 0.2197 0.52531 0.50644 0.0
H542 H 0.18078 0.52146 0.4866 0.0
H543 H 0.23271 0.52549 0.61533 0.0
H544 H 0.26133 0.51197 0.48219 0.0
H545 H 0.24098 0.49176 0.42896 0.0
H546 H 0.17587 0.43996 0.48308 0.0
H547 H 0.19569 0.45984 0.53661 0.0
C548 C 0.34127 0.52672 0.62194 0.0
C549 C 0.3438 0.5063 0.6126 0.0
C550 C 0.31977 0.52819 0.6133 0.0
C551 C 0.29936 0.50892 0.59591 0.0
C552 C 0.30211 0.48858 0.58673 0.0
C553 C 0.32374 0.4874 0.59461 0.0
C554 C 0.2755 0.50967 0.58666 0.0
C555 C 0.26401 0.5006 0.55513 0.0
C556 C 0.26331 0.51842 0.60854 0.0
C557 C 0.27224 0.52652 0.64323 0.0
C558 C 0.27433 0.51045 0.66601 0.0
C559 C 0.28273 0.51819 0.69875 0.0
C560 C 0.28888 0.54189 0.70909 0.0
C561 C 0.28659 0.55789 0.68672 0.0
C562 C 0.27824 0.55025 0.65394 0.0
C563 C 0.16305 0.50093 0.56641 0.0
C564 C 0.16054 0.50745 0.53317 0.0
C565 C 0.18554 0.50232 0.57765 0.0
C566 C 0.20642 0.51027 0.55615 0.0
C567 C 0.20417 0.5182 0.5237 0.0
C568 C 0.18175 0.51641 0.51239 0.0
C569 C 0.22999 0.5095 0.56662 0.0
C570 C 0.2413 0.51851 0.5982 0.0
C571 C 0.24162 0.49991 0.54534 0.0
C572 C 0.22994 0.48749 0.51333 0.0
C573 C 0.24274 0.49618 0.48273 0.0
C574 C 0.23129 0.48482 0.45252 0.0
C575 C 0.20722 0.4646 0.45264 0.0
C576 C 0.1945 0.45565 0.483 0.0
C577 C 0.2058 0.46698 0.51327 0.0
H578 H 0.19841 0.45587 0.42921 0.0
H579 H 0.29537 0.54785 0.73445 0.0
H580 H 0.81009 0.34757 0.97799 0.0
H581 H 0.77075 0.31045 0.96287 0.0
H582 H 0.80968 0.29081 0.89084 0.0
H583 H 0.84877 0.32723 0.90657 0.0
H584 H 0.74094 0.29147 0.91343 0.0
H585 H 0.78157 0.22969 0.87509 0.0
H586 H 0.81697 0.2239 0.88925 0.0
H587 H 0.82174 0.25501 0.98695 0.0
H588 H 0.78619 0.26071 0.97352 0.0
H589 H 0.64039 0.17983 0.83759 0.0
H590 H 0.67805 0.21917 0.85106 0.0
H591 H 0.69639 0.18263 0.92836 0.0
H592 H 0.65956 0.14365 0.91427 0.0
H593 H 0.73667 0.21061 0.90384 0.0
H594 H 0.67433 0.229 0.93931 0.0
H595 H 0.63958 0.23722 0.93861 0.0
H596 H 0.6763 0.29246 0.86244 0.0
H597 H 0.71115 0.28423 0.86216 0.0
C598 C 0.81032 0.33534 0.95895 0.0
C599 C 0.83309 0.34067 0.94393 0.0
C600 C 0.78758 0.31391 0.95013 0.0
C601 C 0.78657 0.2968 0.92595 0.0
C602 C 0.8093 0.30271 0.91025 0.0
C603 C 0.83194 0.32395 0.91917 0.0
C604 C 0.76214 0.27304 0.91725 0.0
C605 C 0.7402 0.27386 0.91116 0.0
C606 C 0.76017 0.2494 0.91473 0.0
C607 C 0.7814 0.24586 0.92314 0.0
C608 C 0.79014 0.23522 0.89962 0.0
C609 C 0.81023 0.23197 0.90751 0.0
C610 C 0.82165 0.23916 0.93893 0.0
C611 C 0.81294 0.24953 0.96258 0.0
C612 C 0.79284 0.2528 0.95483 0.0
C613 C 0.65232 0.18019 0.85766 0.0
C614 C 0.64646 0.15804 0.87466 0.0
C615 C 0.6741 0.20299 0.86561 0.0
C616 C 0.69088 0.20475 0.89117 0.0
C617 C 0.68457 0.18258 0.90835 0.0
C618 C 0.66307 0.15995 0.90031 0.0
C619 C 0.7152 0.22888 0.89964 0.0
C620 C 0.73727 0.22817 0.90568 0.0
C621 C 0.71711 0.2525 0.90283 0.0
C622 C 0.69512 0.25565 0.90029 0.0
C623 C 0.6747 0.24245 0.92178 0.0
C624 C 0.65497 0.24713 0.92154 0.0
C625 C 0.65545 0.26501 0.89996 0.0
C626 C 0.67572 0.27828 0.87863 0.0
C627 C 0.69546 0.27361 0.87865 0.0
H628 H 0.64031 0.26885 0.90001 0.0
H629 H 0.83722 0.23665 0.94498 0.0
H630 H 0.50459 0.65466 0.25968 0.0
H631 H 0.50089 0.69073 0.27488 0.0
H632 H 0.46486 0.68563 0.18054 0.0
H633 H 0.46774 0.64884 0.16577 0.0
H634 H 0.5032 0.73487 0.19455 0.0
H635 H 0.43185 0.67201 0.25364 0.0
H636 H 0.40775 0.63856 0.29418 0.0
H637 H 0.45299 0.6838 0.37502 0.0
H638 H 0.4775 0.71759 0.33511 0.0
H639 H 0.48324 0.83602 0.22675 0.0
H640 H 0.47908 0.79618 0.21243 0.0
H641 H 0.48714 0.7835 0.31707 0.0
H642 H 0.48883 0.82249 0.33147 0.0
H643 H 0.46199 0.742 0.29707 0.0
H644 H 0.53597 0.80288 0.2423 0.0
H645 H 0.56181 0.83823 0.20525 0.0
H646 H 0.5169 0.7986 0.12053 0.0
H647 H 0.49064 0.7631 0.15716 0.0
C648 C 0.4955 0.66088 0.24222 0.0
C649 C 0.48638 0.64826 0.2114 0.0
C650 C 0.49336 0.68177 0.25106 0.0
C651 C 0.48251 0.69154 0.22918 0.0
C652 C 0.47333 0.67893 0.19831 0.0
C653 C 0.47489 0.65759 0.18982 0.0
C654 C 0.48177 0.71524 0.23787 0.0
C655 C 0.49384 0.73617 0.21681 0.0
C656 C 0.47054 0.71807 0.26757 0.0
C657 C 0.45675 0.69725 0.29126 0.0
C658 C 0.43695 0.67472 0.27997 0.0
C659 C 0.42313 0.65572 0.30285 0.0
C660 C 0.42891 0.65896 0.33705 0.0
C661 C 0.44858 0.68125 0.3485 0.0
C662 C 0.46242 0.70036 0.32577 0.0
C663 C 0.4838 0.82463 0.24686 0.0
C664 C 0.48624 0.83286 0.28042 0.0
C665 C 0.48191 0.80167 0.23853 0.0
C666 C 0.48379 0.78623 0.26313 0.0
C667 C 0.48572 0.79436 0.2969 0.0
C668 C 0.48669 0.81698 0.30535 0.0
C669 C 0.48369 0.76201 0.25391 0.0
C670 C 0.47149 0.74092 0.27485 0.0
C671 C 0.49546 0.75922 0.22461 0.0
C672 C 0.51121 0.78046 0.20252 0.0
C673 C 0.53154 0.80177 0.2158 0.0
C674 C 0.54626 0.82182 0.19487 0.0
C675 C 0.54095 0.82069 0.16058 0.0
C676 C 0.52096 0.79946 0.14711 0.0
C677 C 0.50617 0.77936 0.16793 0.0
H678 H 0.55236 0.83623 0.14442 0.0
H679 H 0.41805 0.64425 0.35469 0.0
H680 H 0.66202 0.47983 0.67875 0.0
H681 H 0.69842 0.4774 0.66126 0.0
H682 H 0.68031 0.48037 0.55741 0.0
H683 H 0.6426 0.48075 0.57521 0.0
H684 H 0.70105 0.456 0.55447 0.0
H685 H 0.73182 0.53279 0.61247 0.0
H686 H 0.73651 0.56046 0.65946 0.0
H687 H 0.76222 0.52244 0.72325 0.0
H688 H 0.75741 0.49436 0.67672 0.0
H689 H 0.85021 0.52577 0.56037 0.0
H690 H 0.81052 0.52151 0.57522 0.0
H691 H 0.77404 0.44485 0.547 0.0
H692 H 0.81416 0.44999 0.52862 0.0
H693 H 0.77977 0.5048 0.61641 0.0
H694 H 0.71027 0.41824 0.54504 0.0
H695 H 0.70658 0.39569 0.49281 0.0
H696 H 0.76149 0.46268 0.44557 0.0
H697 H 0.76525 0.48574 0.49759 0.0
C698 C 0.66561 0.4798 0.65211 0.0
C699 C 0.64899 0.48062 0.62864 0.0
C700 C 0.68698 0.47879 0.6419 0.0
C701 C 0.69357 0.47964 0.60758 0.0
C702 C 0.67652 0.47985 0.58405 0.0
C703 C 0.65468 0.48014 0.59431 0.0
C704 C 0.7179 0.48041 0.59644 0.0
C705 C 0.7182 0.46686 0.56816 0.0
C706 C 0.7411 0.49453 0.61326 0.0
C707 C 0.74401 0.51134 0.64124 0.0
C708 C 0.73834 0.53026 0.63658 0.0
C709 C 0.74103 0.54601 0.66312 0.0
C710 C 0.74959 0.54316 0.69435 0.0
C711 C 0.75555 0.52459 0.69907 0.0
C712 C 0.75286 0.50877 0.67263 0.0
C713 C 0.83383 0.5079 0.55679 0.0
C714 C 0.83612 0.48828 0.54308 0.0
C715 C 0.81065 0.50538 0.56576 0.0
C716 C 0.78813 0.48285 0.5625 0.0
C717 C 0.79033 0.4629 0.54918 0.0
C718 C 0.8137 0.4657 0.53903 0.0
C719 C 0.76324 0.48088 0.57381 0.0
C720 C 0.76275 0.49409 0.6024 0.0
C721 C 0.74016 0.46716 0.55654 0.0
C722 C 0.73822 0.45361 0.52526 0.0
C723 C 0.72153 0.42815 0.52347 0.0
C724 C 0.71942 0.41528 0.49389 0.0
C725 C 0.73386 0.42769 0.46585 0.0
C726 C 0.75038 0.45306 0.46733 0.0
C727 C 0.75251 0.46605 0.49687 0.0
H728 H 0.7322 0.41768 0.44295 0.0
H729 H 0.75165 0.55537 0.71486 0.0
H730 H 0.33405 0.84654 0.92015 0.0
H731 H 0.29724 0.80724 0.93423 0.0
H732 H 0.31529 0.77169 0.85548 0.0
H733 H 0.35237 0.8114 0.84113 0.0
H734 H 0.26662 0.75407 0.85394 0.0
H735 H 0.32152 0.76322 0.94497 0.0
H736 H 0.34941 0.78462 0.99249 0.0
H737 H 0.29071 0.78868 1.04353 0.0
H738 H 0.26246 0.76744 0.99618 0.0
H739 H 0.18432 0.63778 0.97386 0.0
H740 H 0.22406 0.67511 0.96012 0.0
H741 H 0.18483 0.70236 0.90092 0.0
H742 H 0.14574 0.66496 0.91323 0.0
H743 H 0.24618 0.72231 0.97071 0.0
H744 H 0.22114 0.74368 0.83957 0.0
H745 H 0.19291 0.72134 0.79264 0.0
H746 H 0.19276 0.65514 0.82168 0.0
H747 H 0.22155 0.67736 0.86793 0.0
C748 C 0.33046 0.83039 0.90585 0.0
C749 C 0.34668 0.83262 0.87939 0.0
C750 C 0.30916 0.80759 0.91414 0.0
C751 C 0.30293 0.78571 0.89645 0.0
C752 C 0.31917 0.78786 0.86993 0.0
C753 C 0.34067 0.81076 0.86173 0.0
C754 C 0.27939 0.76109 0.90507 0.0
C755 C 0.26231 0.74731 0.87957 0.0
C756 C 0.27306 0.75139 0.93837 0.0
C757 C 0.28995 0.76393 0.96693 0.0
C758 C 0.3146 0.76879 0.96626 0.0
C759 C 0.33047 0.78088 0.99318 0.0
C760 C 0.32189 0.7881 1.02096 0.0
C761 C 0.29735 0.78311 1.02198 0.0
C762 C 0.28139 0.77101 0.99514 0.0
C763 C 0.18417 0.65155 0.95753 0.0
C764 C 0.16137 0.64773 0.94446 0.0
C765 C 0.2071 0.67324 0.94978 0.0
C766 C 0.20828 0.69212 0.92869 0.0
C767 C 0.18533 0.68836 0.91634 0.0
C768 C 0.1626 0.66669 0.9237 0.0
C769 C 0.23306 0.71551 0.91967 0.0
C770 C 0.25041 0.72907 0.94507 0.0
C771 C 0.23959 0.7251 0.88626 0.0
C772 C 0.22329 0.71204 0.85738 0.0
C773 C 0.21529 0.72442 0.83565 0.0
C774 C 0.19919 0.7118 0.80913 0.0
C775 C 0.19099 0.68682 0.8041 0.0
C776 C 0.19911 0.67448 0.82537 0.0
C777 C 0.21537 0.68708 0.85167 0.0
H778 H 0.17832 0.67706 0.78378 0.0
H779 H 0.3342 0.79756 1.04174 0.0
H780 H 0.53479 0.19601 0.98373 0.0
H781 H 0.54738 0.22641 1.02841 0.0
H782 H 0.61685 0.27246 0.97734 0.0
H783 H 0.6038 0.24206 0.93197 0.0
H784 H 0.62344 0.2565 1.03569 0.0
H785 H 0.58359 0.29946 1.00404 0.0
H786 H 0.55131 0.30723 0.98115 0.0
H787 H 0.50176 0.26446 1.06083 0.0
H788 H 0.5335 0.25602 0.08393 0.0
H789 H 0.63031 0.25027 0.20567 0.0
H790 H 0.63538 0.2786 0.1598 0.0
H791 H 0.55763 0.23363 0.13575 0.0
H792 H 0.55234 0.20631 0.18215 0.0
H793 H 0.57367 0.27804 0.11113 0.0
H794 H 0.60392 0.21686 0.10975 0.0
H795 H 0.63207 0.2026 0.1305 0.0
H796 H 0.69495 0.27409 0.11077 0.0
H797 H 0.66706 0.28876 0.09017 0.0
C798 C 0.5523 0.21307 0.98131 0.0
C799 C 0.56875 0.21642 0.95501 0.0
C800 C 0.55943 0.23062 1.00676 0.0
C801 C 0.58313 0.25178 1.00632 0.0
C802 C 0.5985 0.25631 0.97822 0.0
C803 C 0.59126 0.23879 0.95267 0.0
C804 C 0.59368 0.2647 1.03846 0.0
C805 C 0.61324 0.26233 1.05184 0.0
C806 C 0.58051 0.27237 1.05956 0.0
C807 C 0.56109 0.2772 1.04583 0.0
C808 C 0.56578 0.29158 1.01662 0.0
C809 C 0.54755 0.29612 1.0036 0.0
C810 C 0.52452 0.28638 1.01955 0.0
C811 C 0.51965 0.27206 1.04856 0.0
C812 C 0.5378 0.26745 1.06169 0.0
C813 C 0.61414 0.24709 0.19143 0.0
C814 C 0.59114 0.22557 0.19643 0.0
C815 C 0.61704 0.2633 0.16525 0.0
C816 C 0.59712 0.25771 0.14346 0.0
C817 C 0.57343 0.23824 0.15178 0.0
C818 C 0.57047 0.22232 0.17804 0.0
C819 C 0.60128 0.26696 0.10833 0.0
C820 C 0.58482 0.27381 0.09442 0.0
C821 C 0.61674 0.26264 0.08654 0.0
C822 C 0.63349 0.25394 0.09887 0.0
C823 C 0.62376 0.2295 0.10994 0.0
C824 C 0.63964 0.22137 0.12169 0.0
C825 C 0.66528 0.23745 0.12204 0.0
C826 C 0.67509 0.26168 0.11058 0.0
C827 C 0.65927 0.26993 0.09891 0.0
H828 H 0.67756 0.23113 0.13112 0.0
H829 H 0.51044 0.28992 1.00943 0.0
H830 H 0.37868 0.56647 0.34103 0.0
H831 H 0.36442 0.58114 0.38756 0.0
H832 H 0.34047 0.61828 0.31844 0.0
H833 H 0.35479 0.60331 0.27102 0.0
H834 H 0.36719 0.64776 0.37119 0.0
H835 H 0.29543 0.57173 0.36166 0.0
H836 H 0.27075 0.52736 0.34912 0.0
H837 H 0.302 0.51092 0.43473 0.0
H838 H 0.32727 0.55514 0.44744 0.0
H839 H 0.35055 0.60612 0.56273 0.0
H840 H 0.33004 0.61355 0.5153 0.0
H841 H 0.40017 0.65017 0.46236 0.0
H842 H 0.42046 0.64401 0.50984 0.0
H843 H 0.32351 0.58991 0.46508 0.0
H844 H 0.40531 0.67707 0.39529 0.0
H845 H 0.43099 0.72147 0.40623 0.0
H846 H 0.37842 0.71715 0.47983 0.0
H847 H 0.35206 0.67272 0.46895 0.0
C848 C 0.36982 0.57721 0.33553 0.0
C849 C 0.3675 0.5834 0.30237 0.0
C850 C 0.36167 0.58563 0.36218 0.0
C851 C 0.35078 0.60026 0.35638 0.0
C852 C 0.34848 0.60669 0.32333 0.0
C853 C 0.3567 0.59819 0.29641 0.0
C854 C 0.34386 0.60994 0.38581 0.0
C855 C 0.35733 0.63536 0.39183 0.0
C856 C 0.32935 0.59377 0.41186 0.0
C857 C 0.31319 0.56689 0.4056 0.0
C858 C 0.29704 0.55867 0.37786 0.0
C859 C 0.28301 0.53353 0.37063 0.0
C860 C 0.28493 0.51636 0.391 0.0
C861 C 0.30061 0.52426 0.41892 0.0
C862 C 0.31472 0.54939 0.42623 0.0
C863 C 0.36163 0.61673 0.54144 0.0
C864 C 0.38698 0.62412 0.5396 0.0
C865 C 0.34994 0.62107 0.51437 0.0
C866 C 0.36332 0.63223 0.48478 0.0
C867 C 0.38921 0.64203 0.48479 0.0
C868 C 0.40093 0.63821 0.51204 0.0
C869 C 0.35038 0.62747 0.45181 0.0
C870 C 0.33261 0.60286 0.4447 0.0
C871 C 0.36068 0.64449 0.42484 0.0
C872 C 0.37649 0.67142 0.43107 0.0
C873 C 0.39894 0.68555 0.41346 0.0
C874 C 0.41373 0.71077 0.41978 0.0
C875 C 0.40632 0.72214 0.44366 0.0
C876 C 0.38413 0.70832 0.46133 0.0
C877 C 0.36927 0.68309 0.45512 0.0
H878 H 0.41781 0.74167 0.44853 0.0
H879 H 0.27416 0.49691 0.38524 0.0
H880 H 0.75137 0.39871 0.84392 0.0
H881 H 0.72642 0.38355 0.79309 0.0
H882 H 0.75094 0.33052 0.7805 0.0
H883 H 0.77393 0.34404 0.83256 0.0
H884 H 0.74713 0.39218 0.73846 0.0
H885 H 0.72589 0.28981 0.72915 0.0
H886 H 0.70302 0.25117 0.76152 0.0
H887 H 0.65803 0.27772 0.80645 0.0
H888 H 0.68105 0.31677 0.77508 0.0
H889 H 0.79495 0.34516 0.61892 0.0
H890 H 0.76477 0.33217 0.66408 0.0
H891 H 0.72883 0.36744 0.61494 0.0
H892 H 0.75925 0.38064 0.56924 0.0
H893 H 0.71529 0.311 0.68324 0.0
H894 H 0.72452 0.40346 0.6717 0.0
H895 H 0.74753 0.44294 0.64089 0.0
H896 H 0.81274 0.43579 0.64029 0.0
H897 H 0.7901 0.39637 0.6712 0.0
C898 C 0.75052 0.38304 0.83119 0.0
C899 C 0.76528 0.37307 0.84183 0.0
C900 C 0.73625 0.37441 0.80195 0.0
C901 C 0.73677 0.35594 0.78251 0.0
C902 C 0.74964 0.34445 0.79497 0.0
C903 C 0.76344 0.35269 0.8245 0.0
C904 C 0.72945 0.35282 0.74642 0.0
C905 C 0.73903 0.37424 0.72657 0.0
C906 C 0.71875 0.32958 0.73034 0.0
C907 C 0.70521 0.30624 0.74971 0.0
C908 C 0.71111 0.28741 0.74592 0.0
C909 C 0.69825 0.26551 0.76431 0.0
C910 C 0.6792 0.26206 0.78623 0.0
C911 C 0.67301 0.28054 0.78983 0.0
C912 C 0.68608 0.30264 0.77194 0.0
C913 C 0.77996 0.34916 0.61673 0.0
C914 C 0.77992 0.36455 0.59102 0.0
C915 C 0.76258 0.34163 0.64266 0.0
C916 C 0.74497 0.34942 0.64332 0.0
C917 C 0.74255 0.3616 0.61516 0.0
C918 C 0.76004 0.36926 0.5892 0.0
C919 C 0.73447 0.35034 0.67635 0.0
C920 C 0.72171 0.32864 0.69542 0.0
C921 C 0.74181 0.37331 0.69183 0.0
C922 C 0.7556 0.39699 0.67346 0.0
C923 C 0.74377 0.41038 0.66499 0.0
C924 C 0.75673 0.43271 0.64752 0.0
C925 C 0.78158 0.44185 0.63865 0.0
C926 C 0.79351 0.42869 0.64719 0.0
C927 C 0.78063 0.40637 0.66467 0.0
H928 H 0.79163 0.45918 0.62531 0.0
H929 H 0.66919 0.24506 0.80034 0.0
H930 H 0.36122 0.75803 0.95516 0.0
H931 H 0.34916 0.73421 1.00723 0.0
H932 H 0.42309 0.74549 1.01743 0.0
H933 H 0.43571 0.77037 0.96638 0.0
H934 H 0.36918 0.69734 1.0551 0.0
H935 H 0.43513 0.78735 1.05123 0.0
H936 H 0.45277 0.82812 1.02383 0.0
H937 H 0.38202 0.82436 1.03004 0.0
H938 H 0.36395 0.78332 1.05708 0.0
H939 H 0.41188 0.75746 0.22208 0.0
H940 H 0.40367 0.73339 0.17065 0.0
H941 H 0.33682 0.73666 0.15509 0.0
H942 H 0.34518 0.76133 0.20542 0.0
H943 H 0.3862 0.77198 0.11962 0.0
H944 H 0.32707 0.68679 0.14382 0.0
H945 H 0.31257 0.64704 0.17271 0.0
H946 H 0.37389 0.64217 0.13173 0.0
H947 H 0.38898 0.6821 0.10296 0.0
C948 C 0.37471 0.75478 0.96791 0.0
C949 C 0.39967 0.76697 0.95756 0.0
C950 C 0.36762 0.74067 0.99724 0.0
C951 C 0.38535 0.73839 1.01622 0.0
C952 C 0.40915 0.74695 1.0029 0.0
C953 C 0.41638 0.7614 0.97378 0.0
C954 C 0.38214 0.7363 1.05293 0.0
C955 C 0.37301 0.71356 1.06947 0.0
C956 C 0.38729 0.75755 1.0714 0.0
C957 C 0.39812 0.78222 1.05553 0.0
C958 C 0.42333 0.79518 1.04648 0.0
C959 C 0.4334 0.8183 1.03106 0.0
C960 C 0.41849 0.82877 1.02504 0.0
C961 C 0.39351 0.81617 1.03459 0.0
C962 C 0.38334 0.79298 1.04988 0.0
C963 C 0.39486 0.75216 0.20846 0.0
C964 C 0.37977 0.76224 0.21694 0.0
C965 C 0.38997 0.73799 0.1794 0.0
C966 C 0.36987 0.73365 0.15893 0.0
C967 C 0.3524 0.7398 0.17073 0.0
C968 C 0.35735 0.75412 0.19954 0.0
C969 C 0.37274 0.73289 0.12232 0.0
C970 C 0.38219 0.75553 0.1056 0.0
C971 C 0.36844 0.71165 0.10441 0.0
C972 C 0.3593 0.68758 0.1215 0.0
C973 C 0.33762 0.67738 0.14124 0.0
C974 C 0.32925 0.65477 0.15752 0.0
C975 C 0.34234 0.64212 0.15413 0.0
C976 C 0.36378 0.65201 0.13435 0.0
C977 C 0.37222 0.67461 0.11801 0.0
H978 H 0.33584 0.62463 0.16677 0.0
H979 H 0.4263 0.84666 1.01309 0.0
H980 H 0.58006 0.32981 0.252 0.0
H981 H 0.58278 0.30611 0.29926 0.0
H982 H 0.63755 0.3737 0.34589 0.0
H983 H 0.6349 0.39717 0.29926 0.0
H984 H 0.64168 0.33501 0.36938 0.0
H985 H 0.5691 0.35179 0.34928 0.0
H986 H 0.53238 0.3429 0.31506 0.0
H987 H 0.50643 0.26531 0.32195 0.0
H988 H 0.54287 0.27384 0.35656 0.0
H989 H 0.62468 0.39093 0.50405 0.0
H990 H 0.63161 0.37085 0.45635 0.0
H991 H 0.56436 0.30317 0.4802 0.0
H992 H 0.55667 0.32358 0.52702 0.0
H993 H 0.561 0.31436 0.42106 0.0
H994 H 0.62139 0.30518 0.47357 0.0
H995 H 0.65707 0.31185 0.50804 0.0
H996 H 0.70663 0.36919 0.44097 0.0
H997 H 0.6713 0.36381 0.40693 0.0
C998 C 0.59331 0.33942 0.27183 0.0
C999 C 0.60663 0.36534 0.27258 0.0
C1000 C 0.59502 0.32585 0.29863 0.0
C1001 C 0.60979 0.33814 0.32659 0.0
C1002 C 0.62586 0.36374 0.32475 0.0
C1003 C 0.62428 0.37724 0.29799 0.0
C1004 C 0.60422 0.32661 0.36042 0.0
C1005 C 0.62404 0.33013 0.38102 0.0
C1006 C 0.58066 0.31842 0.37521 0.0
C1007 C 0.55864 0.3134 0.35514 0.0
C1008 C 0.55547 0.33286 0.34355 0.0
C1009 C 0.53476 0.32789 0.32412 0.0
C1010 C 0.51711 0.30356 0.31636 0.0
C1011 C 0.52011 0.28414 0.32803 0.0
C1012 C 0.54074 0.28901 0.34756 0.0
C1013 C 0.6115 0.37169 0.49941 0.0
C1014 C 0.58983 0.35907 0.5189 0.0
C1015 C 0.61576 0.36 0.47247 0.0
C1016 C 0.59855 0.33536 0.4646 0.0
C1017 C 0.57794 0.32215 0.48575 0.0
C1018 C 0.57359 0.33388 0.51259 0.0
C1019 C 0.59942 0.32573 0.43079 0.0
C1020 C 0.57851 0.31796 0.41018 0.0
C1021 C 0.62194 0.32965 0.4163 0.0
C1022 C 0.64348 0.33398 0.43749 0.0
C1023 C 0.63983 0.31949 0.46636 0.0
C1024 C 0.66005 0.32307 0.48589 0.0
C1025 C 0.6841 0.34094 0.47671 0.0
C1026 C 0.68798 0.35535 0.44805 0.0
C1027 C 0.66782 0.35208 0.42866 0.0
H1028 H 0.69974 0.34363 0.49179 0.0
H1029 H 0.50105 0.29974 0.30148 0.0
H1030 H 0.22097 0.64077 0.85798 0.0
H1031 H 0.23695 0.65983 0.80343 0.0
H1032 H 0.2461 0.59846 0.77493 0.0
H1033 H 0.23019 0.57927 0.82991 0.0
H1034 H 0.27968 0.64834 0.74004 0.0
H1035 H 0.19542 0.58623 0.76513 0.0
H1036 H 0.15619 0.56672 0.79697 0.0
H1037 H 0.14701 0.62913 0.77731 0.0
H1038 H 0.18682 0.64948 0.74644 0.0
H1039 H 0.21988 0.60293 0.58404 0.0
H1040 H 0.24546 0.61909 0.63408 0.0
H1041 H 0.21971 0.67104 0.647 0.0
H1042 H 0.19326 0.65422 0.59772 0.0
H1043 H 0.20005 0.63369 0.6912 0.0
H1044 H 0.28199 0.6902 0.65266 0.0
H1045 H 0.31918 0.7044 0.61709 0.0
H1046 H 0.32906 0.64539 0.65403 0.0
H1047 H 0.29176 0.63061 0.68952 0.0
C1048 C 0.22759 0.63195 0.84086 0.0
C1049 C 0.2238 0.60832 0.84785 0.0
C1050 C 0.23675 0.64288 0.80968 0.0
C1051 C 0.2422 0.63028 0.78512 0.0
C1052 C 0.24193 0.60841 0.79368 0.0
C1053 C 0.23254 0.59733 0.8249 0.0
C1054 C 0.24114 0.63607 0.74947 0.0
C1055 C 0.26238 0.64526 0.72913 0.0
C1056 C 0.21845 0.63194 0.73556 0.0
C1057 C 0.19467 0.61986 0.75464 0.0
C1058 C 0.18546 0.59615 0.76844 0.0
C1059 C 0.16303 0.58486 0.78617 0.0
C1060 C 0.1493 0.59684 0.78961 0.0
C1061 C 0.15783 0.62 0.77499 0.0
C1062 C 0.18039 0.63147 0.75751 0.0
C1063 C 0.22044 0.61848 0.5968 0.0
C1064 C 0.20384 0.62665 0.58795 0.0
C1065 C 0.23542 0.62799 0.62515 0.0
C1066 C 0.23408 0.64593 0.64465 0.0
C1067 C 0.22085 0.65707 0.63233 0.0
C1068 C 0.20566 0.64738 0.60417 0.0
C1069 C 0.2387 0.64645 0.68117 0.0
C1070 C 0.21776 0.63782 0.70196 0.0
C1071 C 0.26139 0.65032 0.69482 0.0
C1072 C 0.28398 0.65925 0.67371 0.0
C1073 C 0.29199 0.68014 0.65306 0.0
C1074 C 0.31313 0.68832 0.63294 0.0
C1075 C 0.32647 0.6758 0.63329 0.0
C1076 C 0.31873 0.65509 0.65382 0.0
C1077 C 0.29762 0.64685 0.67402 0.0
H1078 H 0.34281 0.68214 0.61766 0.0
H1079 H 0.13188 0.58803 0.80322 0.0
H1080 H 0.4239 0.96434 0.92909 0.0
H1081 H 0.43483 0.98791 0.98144 0.0
H1082 H 0.44497 0.93225 1.02982 0.0
H1083 H 0.43488 0.90897 0.97675 0.0
H1084 H 0.43592 0.94923 0.07974 0.0
H1085 H 0.49314 -0.0 0.99805 0.0
H1086 H 0.50744 0.02212 0.94415 0.0
H1087 H 0.47757 0.06851 0.97112 0.0
H1088 H 0.46171 0.04567 1.02437 0.0
H1089 H 0.45078 0.02644 0.22538 0.0
H1090 H 0.43938 0.00246 0.17331 0.0
H1091 H 0.508 0.05636 0.12815 0.0
H1092 H 0.51971 0.08026 0.18078 0.0
H1093 H 0.48284 0.04039 0.07673 0.0
H1094 H 0.40836 0.94507 0.13116 0.0
H1095 H 0.39976 0.92151 0.18404 0.0
H1096 H 0.47626 0.96519 0.2126 0.0
H1097 H 0.48554 0.98833 0.15935 0.0
C1098 C 0.42887 0.95697 0.95046 0.0
C1099 C 0.42862 0.93416 0.94655 0.0
C1100 C 0.4356 0.97104 0.98137 0.0
C1101 C 0.4428 0.96373 1.01152 0.0
C1102 C 0.44126 0.94022 1.00805 0.0
C1103 C 0.43502 0.92632 0.97684 0.0
C1104 C 0.45147 0.98003 1.04557 0.0
C1105 C 0.44584 0.96917 0.07835 0.0
C1106 C 0.46588 0.00662 1.04667 0.0
C1107 C 0.47592 0.02086 1.0151 0.0
C1108 C 0.48934 0.01472 0.99237 0.0
C1109 C 0.49759 0.02729 0.96181 0.0
C1110 C 0.49345 0.04674 0.95422 0.0
C1111 C 0.48076 0.05344 0.97703 0.0
C1112 C 0.47195 0.04054 1.0073 0.0
C1113 C 0.46392 0.03342 0.20477 0.0
C1114 C 0.48672 0.05601 0.20939 0.0
C1115 C 0.45729 0.0191 0.17404 0.0
C1116 C 0.47284 0.02593 0.14481 0.0
C1117 C 0.49528 0.04902 0.14908 0.0
C1118 C 0.50211 0.06322 0.18006 0.0
C1119 C 0.46577 0.00961 0.11083 0.0
C1120 C 0.47224 0.02046 0.07808 0.0
C1121 C 0.45284 0.98301 0.10977 0.0
C1122 C 0.44755 0.9687 0.14143 0.0
C1123 C 0.42339 0.94953 0.14859 0.0
C1124 C 0.41841 0.9362 0.17861 0.0
C1125 C 0.43744 0.94189 0.20171 0.0
C1126 C 0.46152 0.96083 0.19474 0.0
C1127 C 0.46667 0.97398 0.16457 0.0
H1128 H 0.43355 0.9316 0.22497 0.0
H1129 H 0.50013 0.05664 0.93071 0.0
H1130 H 0.45037 0.42035 0.26357 0.0
H1131 H 0.43844 0.43191 0.31609 0.0
H1132 H 0.50901 0.4504 0.35904 0.0
H1133 H 0.52073 0.43817 0.30624 0.0
H1134 H 0.48182 0.43646 0.41098 0.0
H1135 H 0.47676 0.49553 0.33022 0.0
H1136 H 0.45993 0.50416 0.27906 0.0
H1137 H 0.38582 0.45526 0.31404 0.0
H1138 H 0.40249 0.44591 0.3648 0.0
H1139 H 0.4209 0.45316 0.56079 0.0
H1140 H 0.43188 0.44031 0.50841 0.0
H1141 H 0.45164 0.51027 0.46373 0.0
H1142 H 0.44033 0.52305 0.51639 0.0
H1143 H 0.43496 0.48115 0.41299 0.0
H1144 H 0.45122 0.40496 0.45811 0.0
H1145 H 0.46171 0.38951 0.509 0.0
H1146 H 0.50272 0.4632 0.54752 0.0
H1147 H 0.49314 0.47899 0.49642 0.0
C1148 C 0.46374 0.42695 0.28384 0.0
C1149 C 0.487 0.42798 0.27856 0.0
C1150 C 0.45682 0.43415 0.31488 0.0
C1151 C 0.47254 0.4433 0.3438 0.0
C1152 C 0.49567 0.44385 0.33873 0.0
C1153 C 0.50265 0.4367 0.30754 0.0
C1154 C 0.46506 0.45154 0.37851 0.0
C1155 C 0.47158 0.44629 0.4107 0.0
C1156 C 0.45091 0.46408 0.38122 0.0
C1157 C 0.44099 0.46973 0.35083 0.0
C1158 C 0.45699 0.48637 0.3266 0.0
C1159 C 0.44745 0.49144 0.29779 0.0
C1160 C 0.4218 0.48021 0.29325 0.0
C1161 C 0.40569 0.4639 0.31752 0.0
C1162 C 0.4152 0.4587 0.34628 0.0
C1163 C 0.42769 0.4662 0.54015 0.0
C1164 C 0.42946 0.48968 0.54488 0.0
C1165 C 0.43445 0.4587 0.50926 0.0
C1166 C 0.44377 0.47399 0.47997 0.0
C1167 C 0.44496 0.49729 0.48444 0.0
C1168 C 0.43837 0.50489 0.51552 0.0
C1169 C 0.45159 0.46596 0.44547 0.0
C1170 C 0.44528 0.47141 0.41331 0.0
C1171 C 0.46469 0.45235 0.44293 0.0
C1172 C 0.47115 0.44323 0.47357 0.0
C1173 C 0.4626 0.4179 0.47736 0.0
C1174 C 0.46842 0.40904 0.50622 0.0
C1175 C 0.48282 0.42535 0.53155 0.0
C1176 C 0.4915 0.45054 0.52796 0.0
C1177 C 0.48589 0.45947 0.49899 0.0
H1178 H 0.48729 0.41848 0.55391 0.0
H1179 H 0.41443 0.48421 0.27098 0.0
H1180 H 0.03697 0.43302 0.60646 0.0
H1181 H 0.01255 0.42186 0.65881 0.0
H1182 H 0.03032 0.49708 0.67081 0.0
H1183 H 0.05455 0.50814 0.61861 0.0
H1184 H 0.98852 0.4756 0.69852 0.0
H1185 H 0.9873 0.38558 0.73128 0.0
H1186 H 0.01293 0.36593 0.72415 0.0
H1187 H 0.07841 0.43712 0.7155 0.0
H1188 H 0.05317 0.45714 0.72288 0.0
H1189 H 0.90403 0.42636 0.84307 0.0
H1190 H 0.92604 0.43447 0.78921 0.0
H1191 H 0.98508 0.42932 0.83757 0.0
H1192 H 0.96233 0.41988 0.89105 0.0
H1193 H 0.98939 0.41646 0.78034 0.0
H1194 H 0.98513 0.49059 0.79739 0.0
H1195 H 0.96077 0.51046 0.81266 0.0
H1196 H 0.91244 0.47582 0.72862 0.0
H1197 H 0.93664 0.4559 0.71277 0.0
C1198 C 0.03607 0.4475 0.62009 0.0
C1199 C 0.04884 0.47193 0.60658 0.0
C1200 C 0.02181 0.44099 0.65117 0.0
C1201 C 0.01897 0.4583 0.67164 0.0
C1202 C 0.0314 0.48258 0.65762 0.0
C1203 C 0.04578 0.48911 0.62679 0.0
C1204 C 0.00348 0.45151 0.70646 0.0
C1205 C 0.98888 0.46241 0.71579 0.0
C1206 C 0.00303 0.43469 0.73168 0.0
C1207 C 0.01832 0.42284 0.72729 0.0
C1208 C 0.00717 0.39703 0.72793 0.0
C1209 C 0.02163 0.38582 0.72383 0.0
C1210 C 0.04727 0.40027 0.71927 0.0
C1211 C 0.05853 0.42595 0.71892 0.0
C1212 C 0.04416 0.43723 0.72304 0.0
C1213 C 0.92175 0.42699 0.84278 0.0
C1214 C 0.93065 0.42231 0.87341 0.0
C1215 C 0.93501 0.43213 0.81101 0.0
C1216 C 0.95873 0.43371 0.80698 0.0
C1217 C 0.96738 0.42872 0.83767 0.0
C1218 C 0.95399 0.42325 0.8693 0.0
C1219 C 0.97411 0.4402 0.77201 0.0
C1220 C 0.98877 0.42937 0.76277 0.0
C1221 C 0.97511 0.45747 0.74719 0.0
C1222 C 0.96249 0.47164 0.75411 0.0
C1223 C 0.96941 0.48741 0.78204 0.0
C1224 C 0.95557 0.49856 0.79089 0.0
C1225 C 0.93493 0.49421 0.77181 0.0
C1226 C 0.92837 0.47907 0.74347 0.0
C1227 C 0.94224 0.468 0.73437 0.0
H1228 H 0.92413 0.50273 0.77883 0.0
H1229 H 0.05842 0.39156 0.71607 0.0
H1230 H 0.47352 0.91396 0.18254 0.0
H1231 H 0.48453 0.9374 0.12944 0.0
H1232 H 0.55532 0.98976 0.1707 0.0
H1233 H 0.54426 0.96632 0.2237 0.0
H1234 H 0.54831 0.01743 0.13176 0.0
H1235 H 0.53813 0.94005 0.10302 0.0
H1236 H 0.51799 0.89503 0.09588 0.0
H1237 H 0.46462 0.89652 1.02891 0.0
H1238 H 0.48459 0.94162 1.03587 0.0
H1239 H 0.56889 0.02651 0.92633 0.0
H1240 H 0.5581 0.00334 0.97948 0.0
H1241 H 0.54542 0.05819 1.02523 0.0
H1242 H 0.55635 0.08141 0.97197 0.0
H1243 H 0.52583 0.97692 1.02064 0.0
H1244 H 0.54249 0.05391 0.11664 0.0
H1245 H 0.56954 0.09881 0.12339 0.0
H1246 H 0.6225 0.0976 1.05519 0.0
H1247 H 0.59575 0.05272 1.04828 0.0
C1248 C 0.49162 0.93034 0.18075 0.0
C1249 C 0.50764 0.93728 0.20936 0.0
C1250 C 0.49823 0.94413 0.14929 0.0
C1251 C 0.52146 0.96626 0.14344 0.0
C1252 C 0.53727 0.9733 0.1723 0.0
C1253 C 0.53078 0.95938 0.20357 0.0
C1254 C 0.52915 0.98174 0.10852 0.0
C1255 C 0.54284 0.00809 0.10776 0.0
C1256 C 0.52385 0.97119 1.07522 0.0
C1257 C 0.5122 0.94411 1.0709 0.0
C1258 C 0.52187 0.93076 0.08718 0.0
C1259 C 0.51059 0.90522 0.08305 0.0
C1260 C 0.48985 0.89286 1.06226 0.0
C1261 C 0.48051 0.90605 1.04531 0.0
C1262 C 0.49174 0.93156 1.04943 0.0
C1263 C 0.56398 0.03407 0.9475 0.0
C1264 C 0.56401 0.05676 0.94286 0.0
C1265 C 0.5575 0.02031 0.97889 0.0
C1266 C 0.55083 0.02809 1.00903 0.0
C1267 C 0.55087 0.05087 1.00437 0.0
C1268 C 0.55712 0.06452 0.9728 0.0
C1269 C 0.54384 0.01258 1.04393 0.0
C1270 C 0.53067 0.98623 1.04468 0.0
C1271 C 0.55036 0.0231 0.07718 0.0
C1272 C 0.5667 0.05006 0.08125 0.0
C1273 C 0.55977 0.0633 0.10289 0.0
C1274 C 0.57511 0.08872 0.10683 0.0
C1275 C 0.59764 0.1011 0.08949 0.0
C1276 C 0.60495 0.08803 1.0684 0.0
C1277 C 0.58965 0.06259 1.06443 0.0
H1278 H 0.60951 0.12079 0.09256 0.0
H1279 H 0.48115 0.8731 1.05908 0.0
H1280 H 0.57342 0.53677 0.55551 0.0
H1281 H 0.56299 0.55016 0.5032 0.0
H1282 H 0.5388 0.47891 0.46002 0.0
H1283 H 0.54966 0.4656 0.51262 0.0
H1284 H 0.5549 0.50632 0.40801 0.0
H1285 H 0.49747 0.51535 0.4886 0.0
H1286 H 0.49056 0.53287 0.54029 0.0
H1287 H 0.5446 0.60554 0.50719 0.0
H1288 H 0.5522 0.58809 0.45591 0.0
H1289 H 0.54327 0.57176 0.25953 0.0
H1290 H 0.55496 0.55916 0.31168 0.0
H1291 H 0.48492 0.54166 0.35568 0.0
H1292 H 0.47317 0.55423 0.30316 0.0
H1293 H 0.5149 0.5576 0.40693 0.0
H1294 H 0.58756 0.53596 0.3606 0.0
H1295 H 0.60157 0.52428 0.30937 0.0
H1296 H 0.52695 0.48703 0.27176 0.0
H1297 H 0.51257 0.49788 0.32315 0.0
C1298 C 0.56577 0.52355 0.53523 0.0
C1299 C 0.56266 0.49955 0.54041 0.0
C1300 C 0.55926 0.53137 0.50433 0.0
C1301 C 0.54895 0.51596 0.4754 0.0
C1302 C 0.54637 0.49209 0.48034 0.0
C1303 C 0.5527 0.48418 0.51143 0.0
C1304 C 0.54153 0.52444 0.44081 0.0
C1305 C 0.54612 0.51753 0.4085 0.0
C1306 C 0.53039 0.53986 0.43836 0.0
C1307 C 0.52569 0.55027 0.46894 0.0
C1308 C 0.50811 0.53491 0.49277 0.0
C1309 C 0.50401 0.54486 0.52186 0.0
C1310 C 0.51719 0.57031 0.52709 0.0
C1311 C 0.53445 0.58582 0.50318 0.0
C1312 C 0.53866 0.57588 0.47414 0.0
C1313 C 0.52998 0.56515 0.27997 0.0
C1314 C 0.50679 0.56436 0.2751 0.0
C1315 C 0.53679 0.55746 0.31072 0.0
C1316 C 0.5211 0.54832 0.33975 0.0
C1317 C 0.49814 0.54814 0.33516 0.0
C1318 C 0.49116 0.5555 0.30416 0.0
C1319 C 0.5284 0.5396 0.37413 0.0
C1320 C 0.52361 0.54632 0.4064 0.0
C1321 C 0.54067 0.52519 0.3764 0.0
C1322 C 0.54894 0.51806 0.34557 0.0
C1323 C 0.57411 0.52518 0.34146 0.0
C1324 C 0.58215 0.51866 0.31241 0.0
C1325 C 0.56517 0.50498 0.28725 0.0
C1326 C 0.54012 0.49771 0.29118 0.0
C1327 C 0.53201 0.50405 0.3203 0.0
H1328 H 0.57142 0.49997 0.26476 0.0
H1329 H 0.51396 0.57802 0.54958 0.0
H1330 H 0.07063 0.53863 0.85532 0.0
H1331 H 0.04724 0.52831 0.80278 0.0
H1332 H 0.02651 0.58307 0.82327 0.0
H1333 H 0.04827 0.59178 0.87724 0.0
H1334 H -0.00573 0.56108 0.78566 0.0
H1335 H 0.07159 0.57938 0.74018 0.0
H1336 H 0.11143 0.5799 0.73577 0.0
H1337 H 0.07263 0.50084 0.73252 0.0
H1338 H 0.03262 0.49999 0.73711 0.0
H1339 H 0.95415 0.55524 0.60783 0.0
H1340 H 0.97795 0.56604 0.66074 0.0
H1341 H 0.96734 0.49293 0.6666 0.0
H1342 H 0.94337 0.48205 0.61403 0.0
H1343 H 0.01568 0.5254 0.68939 0.0
H1344 H 0.93702 0.52171 0.7124 0.0
H1345 H 0.90607 0.53507 0.71027 0.0
H1346 H 0.9597 0.60617 0.74812 0.0
H1347 H 0.99116 0.59328 0.75037 0.0
C1348 C 0.06132 0.54879 0.84893 0.0
C1349 C 0.06233 0.56651 0.87232 0.0
C1350 C 0.04776 0.54303 0.81744 0.0
C1351 C 0.03465 0.55507 0.80563 0.0
C1352 C 0.03573 0.57279 0.82931 0.0
C1353 C 0.04874 0.57809 0.86118 0.0
C1354 C 0.01978 0.5491 0.77029 0.0
C1355 C -0.00038 0.5536 0.76486 0.0
C1356 C 0.02537 0.53946 0.74074 0.0
C1357 C 0.04914 0.53957 0.73871 0.0
C1358 C 0.0716 0.56211 0.73857 0.0
C1359 C 0.09421 0.56248 0.73611 0.0
C1360 C 0.09458 0.5404 0.73392 0.0
C1361 C 0.07231 0.51791 0.73408 0.0
C1362 C 0.04964 0.51747 0.73639 0.0
C1363 C 0.95663 0.54116 0.62007 0.0
C1364 C 0.94588 0.51735 0.60487 0.0
C1365 C 0.97059 0.54749 0.65128 0.0
C1366 C 0.97523 0.53064 0.67002 0.0
C1367 C 0.96486 0.50701 0.65443 0.0
C1368 C 0.95065 0.50059 0.62351 0.0
C1369 C 0.99015 0.53717 0.70507 0.0
C1370 C 0.01033 0.53276 0.71036 0.0
C1371 C 0.98568 0.54869 0.73354 0.0
C1372 C 0.96657 0.55636 0.73175 0.0
C1373 C 0.94233 0.54014 0.72042 0.0
C1374 C 0.92464 0.54768 0.7191 0.0
C1375 C 0.93088 0.57144 0.72911 0.0
C1376 C 0.95485 0.58773 0.74043 0.0
C1377 C 0.97261 0.58027 0.74178 0.0
H1378 H 0.91716 0.57725 0.72805 0.0
H1379 H 0.1121 0.54071 0.73212 0.0
H1380 H 0.55021 0.07317 0.38646 0.0
H1381 H 0.53979 0.06112 0.44359 0.0
H1382 H 0.4616 0.02315 0.41744 0.0
H1383 H 0.47274 0.03721 0.3598 0.0
H1384 H 0.53018 0.03854 0.49062 0.0
H1385 H 0.46919 0.04141 0.51085 0.0
H1386 H 0.43321 0.04553 0.52591 0.0
H1387 H 0.38548 0.9804 0.46969 0.0
H1388 H 0.42099 0.97593 0.4536 0.0
H1389 H 0.51523 0.94087 0.38057 0.0
H1390 H 0.51585 0.9587 0.43536 0.0
H1391 H 0.46685 0.98319 0.39615 0.0
H1392 H 0.46351 0.96217 0.34382 0.0
H1393 H 0.45125 0.96743 0.45692 0.0
H1394 H 0.54277 0.01645 0.41161 0.0
H1395 H 0.58448 0.02106 0.4064 0.0
H1396 H 0.58144 -0.00034 0.5097 0.0
H1397 H 0.53946 -0.00564 0.51518 0.0
C1398 C 0.5307 0.06204 0.39271 0.0
C1399 C 0.51225 0.05601 0.36828 0.0
C1400 C 0.52458 0.05519 0.42608 0.0
C1401 C 0.49967 0.04025 0.43626 0.0
C1402 C 0.48108 0.03439 0.41154 0.0
C1403 C 0.48734 0.04207 0.378 0.0
C1404 C 0.49398 0.0271 0.46993 0.0
C1405 C 0.51306 0.02311 0.4814 0.0
C1406 C 0.47037 0.00585 0.47279 0.0
C1407 C 0.44819 0.00806 0.4815 0.0
C1408 C 0.4511 0.02784 0.50164 0.0
C1409 C 0.43066 0.03025 0.51041 0.0
C1410 C 0.40702 0.01307 0.49905 0.0
C1411 C 0.40381 -0.00644 0.47874 0.0
C1412 C 0.42419 0.991 0.46994 0.0
C1413 C 0.50472 0.95013 0.38381 0.0
C1414 C 0.48898 0.94979 0.35823 0.0
C1415 C 0.50509 0.9604 0.41524 0.0
C1416 C 0.49099 0.97197 0.42061 0.0
C1417 C 0.47732 0.97372 0.39354 0.0
C1418 C 0.47598 0.96239 0.36303 0.0
C1419 C 0.49109 0.98397 0.45291 0.0
C1420 C 0.46892 0.98362 0.46224 0.0
C1421 C 0.51347 0.00271 0.46748 0.0
C1422 C 0.5378 0.00428 0.46349 0.0
C1423 C 0.55088 0.01232 0.43299 0.0
C1424 C 0.57455 0.01508 0.43002 0.0
C1425 C 0.5855 0.01039 0.45762 0.0
C1426 C 0.57282 0.00299 0.48825 0.0
C1427 C 0.54903 -5e-05 0.49124 0.0
H1428 H 0.60388 0.01267 0.45535 0.0
H1429 H 0.39118 0.0149 0.50586 0.0
H1430 H 0.47579 0.55713 0.72168 0.0
H1431 H 0.48483 0.54826 0.77692 0.0
H1432 H 0.45583 0.47208 0.74841 0.0
H1433 H 0.44394 0.48062 0.69373 0.0
H1434 H 0.51539 0.5438 0.80036 0.0
H1435 H 0.44612 0.49313 0.84118 0.0
H1436 H 0.40479 0.4641 0.86422 0.0
H1437 H 0.40891 0.40343 0.8215 0.0
H1438 H 0.45 0.43181 0.79804 0.0
H1439 H 0.51622 0.43472 0.71975 0.0
H1440 H 0.5123 0.44711 0.77559 0.0
H1441 H 0.54207 0.52212 0.7397 0.0
H1442 H 0.54828 0.50974 0.68463 0.0
H1443 H 0.49068 0.45628 0.81171 0.0
H1444 H 0.5539 0.56583 0.77925 0.0
H1445 H 0.59867 0.59454 0.78369 0.0
H1446 H 0.60855 0.53905 0.833 0.0
H1447 H 0.56364 0.51003 0.82997 0.0
C1448 C 0.47111 0.53833 0.72712 0.0
C1449 C 0.45965 0.51959 0.70287 0.0
C1450 C 0.4762 0.53327 0.75919 0.0
C1451 C 0.47161 0.50963 0.76754 0.0
C1452 C 0.45942 0.49057 0.74352 0.0
C1453 C 0.45318 0.49547 0.71165 0.0
C1454 C 0.48468 0.50634 0.79689 0.0
C1455 C 0.50979 0.5245 0.80162 0.0
C1456 C 0.47758 0.48229 0.80797 0.0
C1457 C 0.45162 0.46479 0.81847 0.0
C1458 C 0.43817 0.47361 0.83646 0.0
C1459 C 0.41479 0.45722 0.84975 0.0
C1460 C 0.40452 0.43192 0.84499 0.0
C1461 C 0.4172 0.42298 0.82597 0.0
C1462 C 0.44062 0.43926 0.81271 0.0
C1463 C 0.52202 0.45394 0.72387 0.0
C1464 C 0.53281 0.4714 0.69786 0.0
C1465 C 0.51997 0.46113 0.75622 0.0
C1466 C 0.52723 0.48579 0.7632 0.0
C1467 C 0.53724 0.50311 0.7365 0.0
C1468 C 0.54021 0.49601 0.70435 0.0
C1469 C 0.51964 0.49228 0.79561 0.0
C1470 C 0.4958 0.4753 0.80752 0.0
C1471 C 0.52791 0.51733 0.80218 0.0
C1472 C 0.55501 0.5355 0.80451 0.0
C1473 C 0.56532 0.55967 0.79167 0.0
C1474 C 0.59087 0.57607 0.79377 0.0
C1475 C 0.60642 0.56862 0.80859 0.0
C1476 C 0.59648 0.54479 0.82146 0.0
C1477 C 0.57097 0.52834 0.8195 0.0
H1478 H 0.62617 0.5813 0.81011 0.0
H1479 H 0.38667 0.41928 0.8559 0.0
H1480 H 0.91167 0.47454 1.04787 0.0
H1481 H 0.92866 0.4817 0.10361 0.0
H1482 H 0.97465 0.45088 1.07433 0.0
H1483 H 0.95556 0.44162 1.01901 0.0
H1484 H 0.96179 0.50827 0.1333 0.0
H1485 H 0.94841 0.44162 0.17737 0.0
H1486 H 0.93826 0.40094 0.20002 0.0
H1487 H -0.0051 0.40093 0.13827 0.0
H1488 H 0.00521 0.44139 0.11492 0.0
H1489 H 0.03554 0.55111 1.0192 0.0
H1490 H 0.01513 0.54194 1.07384 0.0
H1491 H 0.05719 0.5071 0.10459 0.0
H1492 H 0.07456 0.51333 1.04937 0.0
H1493 H 0.02457 0.4824 0.13485 0.0
H1494 H 0.98044 0.54922 0.11529 0.0
H1495 H 0.99292 0.59079 0.13623 0.0
H1496 H 0.05234 0.59174 0.19229 0.0
H1497 H 0.03998 0.54999 0.17235 0.0
C1498 C 0.92541 0.46919 1.05326 0.0
C1499 C 0.93235 0.4575 1.02884 0.0
C1500 C 0.93506 0.47317 0.08563 0.0
C1501 C 0.9532 0.46705 0.09421 0.0
C1502 C 0.96024 0.45537 1.06954 0.0
C1503 C 0.9498 0.45052 1.03732 0.0
C1504 C 0.96855 0.47788 0.12509 0.0
C1505 C 0.97552 0.50253 0.13226 0.0
C1506 C 0.98569 0.47043 0.13445 0.0
C1507 C 0.97759 0.44466 0.14442 0.0
C1508 C 0.95836 0.43273 0.16807 0.0
C1509 C 0.95276 0.40981 0.18132 0.0
C1510 C 0.9662 0.39857 0.17094 0.0
C1511 C 0.98475 0.40984 0.1466 0.0
C1512 C 0.9905 0.4328 0.1334 0.0
C1513 C 0.03985 0.54103 1.03758 0.0
C1514 C 0.05609 0.53241 1.02956 0.0
C1515 C 0.02877 0.53634 1.06948 0.0
C1516 C 0.03422 0.52347 0.09435 0.0
C1517 C 0.05165 0.51625 0.0864 0.0
C1518 C 0.06162 0.51978 1.05429 0.0
C1519 C 0.01793 0.51267 0.12459 0.0
C1520 C 0.01094 0.48821 0.1331 0.0
C1521 C 0.00082 0.52037 0.13296 0.0
C1522 C 0.00928 0.54633 0.14223 0.0
C1523 C -0.00387 0.55818 0.13213 0.0
C1524 C 0.00317 0.58182 0.14388 0.0
C1525 C 0.02326 0.59377 0.16578 0.0
C1526 C 0.03675 0.58242 0.17537 0.0
C1527 C 0.02983 0.55884 0.16367 0.0
H1528 H 0.02841 0.61183 0.17533 0.0
H1529 H 0.9622 0.38108 0.18162 0.0
H1530 H -4e-05 0.47607 0.49396 0.0
H1531 H 0.96853 0.46149 0.44983 0.0
H1532 H 0.01208 0.43958 0.38984 0.0
H1533 H 0.04183 0.4514 0.43527 0.0
H1534 H 0.01372 0.4757 0.3583 0.0
H1535 H 0.94895 0.40516 0.38828 0.0
H1536 H 0.91574 0.36809 0.41545 0.0
H1537 H 0.87983 0.40829 0.44576 0.0
H1538 H 0.91339 0.44597 0.42032 0.0
H1539 H 0.93956 0.52921 0.42863 0.0
H1540 H 0.95023 0.52275 0.37171 0.0
H1541 H 0.00325 0.50527 0.41407 0.0
H1542 H 0.98795 0.50576 0.47019 0.0
H1543 H 0.93156 0.46805 0.3737 0.0
H1544 H 0.01721 0.48317 0.29976 0.0
H1545 H 0.03919 0.50923 0.25129 0.0
H1546 H 0.01886 0.5624 0.2822 0.0
H1547 H -0.00315 0.53701 0.33106 0.0
C1548 C 0.00225 0.46725 0.47193 0.0
C1549 C 0.02412 0.46658 0.46688 0.0
C1550 C 0.98428 0.45877 0.44661 0.0
C1551 C 0.98886 0.45103 0.4154 0.0
C1552 C 0.00858 0.44639 0.413 0.0
C1553 C 0.02585 0.45368 0.43891 0.0
C1554 C 0.97846 0.45573 0.38452 0.0
C1555 C -0.00457 0.47346 0.3617 0.0
C1556 C 0.95376 0.45104 0.3845 0.0
C1557 C 0.93368 0.42862 0.40152 0.0
C1558 C 0.93418 0.40635 0.40103 0.0
C1559 C 0.91526 0.38513 0.41627 0.0
C1560 C 0.89564 0.38582 0.43226 0.0
C1561 C 0.89503 0.40779 0.4333 0.0
C1562 C 0.914 0.42911 0.41831 0.0
C1563 C 0.95277 0.52306 0.42562 0.0
C1564 C 0.96007 0.51408 0.45317 0.0
C1565 C 0.9596 0.52036 0.39302 0.0
C1566 C 0.9755 0.5108 0.3885 0.0
C1567 C 0.98919 0.51052 0.41664 0.0
C1568 C 0.98069 0.51104 0.44902 0.0
C1569 C 0.96992 0.49221 0.36154 0.0
C1570 C 0.94942 0.46931 0.37059 0.0
C1571 C 0.99024 0.49113 0.34786 0.0
C1572 C 0.0055 0.50804 0.32008 0.0
C1573 C 0.01772 0.50061 0.29694 0.0
C1574 C 0.02999 0.5152 0.26893 0.0
C1575 C 0.03038 0.53743 0.26362 0.0
C1576 C 0.01855 0.54516 0.28635 0.0
C1577 C 0.00611 0.53059 0.3143 0.0
H1578 H 0.03997 0.54873 0.24199 0.0
H1579 H 0.88093 0.36934 0.44392 0.0
H1580 H 0.43055 0.94268 0.77743 0.0
H1581 H 0.44784 0.95806 0.72173 0.0
H1582 H 0.51982 0.97344 0.75821 0.0
H1583 H 0.50138 0.9542 0.81101 0.0
H1584 H 0.4702 0.98595 0.68131 0.0
H1585 H 0.56347 0.98294 0.71837 0.0
H1586 H 0.5738 0.94994 0.72315 0.0
H1587 H 0.50193 0.89757 0.68504 0.0
H1588 H 0.49128 0.93041 0.6792 0.0
H1589 H 0.51268 0.06346 0.76146 0.0
H1590 H 0.51249 0.04943 0.70532 0.0
H1591 H 0.56211 0.0232 0.73677 0.0
H1592 H 0.56272 0.03839 0.79315 0.0
H1593 H 0.55791 0.00778 0.67931 0.0
H1594 H 0.5369 0.03406 0.61394 0.0
H1595 H 0.52703 0.05183 0.56515 0.0
H1596 H 0.46002 0.03957 0.61335 0.0
H1597 H 0.46939 0.0216 0.66252 0.0
C1598 C 0.44997 0.94905 0.77306 0.0
C1599 C 0.46443 0.94624 0.7978 0.0
C1600 C 0.45995 0.9578 0.74104 0.0
C1601 C 0.48497 0.96526 0.73411 0.0
C1602 C 0.50003 0.96578 0.76098 0.0
C1603 C 0.48976 0.95586 0.79207 0.0
C1604 C 0.49666 0.97583 0.7009 0.0
C1605 C 0.48945 0.9908 0.68322 0.0
C1606 C 0.52057 0.97926 0.69302 0.0
C1607 C 0.52669 0.95933 0.69781 0.0
C1608 C 0.54996 0.96451 0.71044 0.0
C1609 C 0.55583 0.94577 0.71355 0.0
C1610 C 0.53854 0.92167 0.70431 0.0
C1611 C 0.51527 0.91625 0.69219 0.0
C1612 C 0.50929 0.93493 0.68905 0.0
C1613 C 0.52324 0.0543 0.75656 0.0
C1614 C 0.5374 0.05167 0.78201 0.0
C1615 C 0.5234 0.04643 0.72393 0.0
C1616 C 0.53683 0.03449 0.71565 0.0
C1617 C 0.55119 0.03197 0.74146 0.0
C1618 C 0.55124 0.04023 0.77424 0.0
C1619 C 0.53235 0.0214 0.68222 0.0
C1620 C 0.53869 0.00285 0.68172 0.0
C1621 C 0.50834 0.01291 0.66925 0.0
C1622 C 0.50369 0.02614 0.64185 0.0
C1623 C 0.52018 0.03539 0.61441 0.0
C1624 C 0.51463 0.04538 0.58657 0.0
C1625 C 0.4929 0.04674 0.58612 0.0
C1626 C 0.47677 0.03832 0.61365 0.0
C1627 C 0.4821 0.02804 0.64143 0.0
H1628 H 0.48866 0.05443 0.56448 0.0
H1629 H 0.54315 0.90719 0.70663 0.0
H1630 H 0.45194 0.51998 0.09129 0.0
H1631 H 0.46766 0.51983 1.03614 0.0
H1632 H 0.5427 0.56702 1.07229 0.0
H1633 H 0.5263 0.56727 0.12753 0.0
H1634 H 0.55618 0.56166 1.01729 0.0
H1635 H 0.45542 0.4718 0.99022 0.0
H1636 H 0.42868 0.46479 0.94153 0.0
H1637 H 0.47813 0.53798 0.90577 0.0
H1638 H 0.50517 0.54587 0.95455 0.0
H1639 H 0.54216 0.50037 0.15182 0.0
H1640 H 0.54483 0.52125 0.09945 0.0
H1641 H 0.49311 0.45131 1.05408 0.0
H1642 H 0.48737 0.43162 0.10844 0.0
H1643 H 0.48831 0.47552 1.01666 0.0
H1644 H 0.56383 0.49311 1.02727 0.0
H1645 H 0.60536 0.50093 1.04322 0.0
H1646 H 0.62536 0.574 1.07501 0.0
H1647 H 0.5839 0.56663 1.05983 0.0
C1648 C 0.47186 0.53001 0.08759 0.0
C1649 C 0.48794 0.54315 0.11412 0.0
C1650 C 0.481 0.53023 1.05552 0.0
C1651 C 0.50674 0.54277 1.04896 0.0
C1652 C 0.52278 0.55664 1.07565 0.0
C1653 C 0.5135 0.55654 0.10781 0.0
C1654 C 0.51651 0.53743 1.01701 0.0
C1655 C 0.54124 0.54275 1.01916 0.0
C1656 C 0.50082 0.51365 1.00372 0.0
C1657 C 0.48292 0.50938 0.97616 0.0
C1658 C 0.46099 0.48648 0.97204 0.0
C1659 C 0.44554 0.48236 0.94438 0.0
C1660 C 0.45168 0.50095 0.92063 0.0
C1661 C 0.47325 0.5237 0.92442 0.0
C1662 C 0.48858 0.52806 0.95222 0.0
C1663 C 0.53053 0.48975 0.13097 0.0
C1664 C 0.5149 0.4643 0.13397 0.0
C1665 C 0.53293 0.50146 0.10035 0.0
C1666 C 0.52077 0.48775 1.07142 0.0
C1667 C 0.50349 0.46251 1.07527 0.0
C1668 C 0.50006 0.45111 0.1066 0.0
C1669 C 0.52393 0.50077 1.03886 0.0
C1670 C 0.5029 0.49445 1.0189 0.0
C1671 C 0.54528 0.52421 1.03278 0.0
C1672 C 0.57061 0.52931 1.04197 0.0
C1673 C 0.57702 0.51086 1.0377 0.0
C1674 C 0.60061 0.51523 1.04663 0.0
C1675 C 0.61804 0.538 1.05995 0.0
C1676 C 0.61189 0.55644 1.06441 0.0
C1677 C 0.58833 0.5522 1.05546 0.0
H1678 H 0.63628 0.54134 1.06692 0.0
H1679 H 0.43952 0.4979 0.8996 0.0
H1680 H 0.33809 0.93447 0.67047 0.0
H1681 H 0.33898 0.95885 0.62184 0.0
H1682 H 0.3468 0.01693 0.68772 0.0
H1683 H 0.346 0.99272 0.73649 0.0
H1684 H 0.31909 0.01088 0.6239 0.0
H1685 H 0.39625 0.01877 0.66849 0.0
H1686 H 0.42094 -2e-05 0.68702 0.0
H1687 H 0.41539 0.96975 0.58851 0.0
H1688 H 0.38998 0.98767 0.5697 0.0
H1689 H 0.42363 0.08815 0.48875 0.0
H1690 H 0.4075 0.07866 0.54617 0.0
H1691 H 0.33804 0.0195 0.50918 0.0
H1692 H 0.35394 0.02894 0.45179 0.0
H1693 H 0.39845 0.03387 0.56595 0.0
H1694 H 0.29327 0.0033 0.57021 0.0
H1695 H 0.26544 0.01773 0.54906 0.0
H1696 H 0.32659 0.09191 0.54438 0.0
H1697 H 0.35475 0.07802 0.56597 0.0
C1698 C 0.33936 0.95216 0.67457 0.0
C1699 C 0.34252 0.96199 0.70705 0.0
C1700 C 0.3396 0.96591 0.64689 0.0
C1701 C 0.34329 0.98972 0.65143 0.0
C1702 C 0.34387 -0.00147 0.68392 0.0
C1703 C 0.34352 0.98473 0.71167 0.0
C1704 C 0.35156 0.00693 0.62287 0.0
C1705 C 0.3364 0.016 0.61104 0.0
C1706 C 0.37446 0.01391 0.6069 0.0
C1707 C 0.39092 0.00431 0.61783 0.0
C1708 C 0.40013 0.00797 0.65086 0.0
C1709 C 0.41418 -0.0026 0.66144 0.0
C1710 C 0.41953 0.9835 0.63904 0.0
C1711 C 0.41108 0.98038 0.6059 0.0
C1712 C 0.39683 0.99071 0.59528 0.0
C1713 C 0.40466 0.07361 0.49285 0.0
C1714 C 0.39017 0.05889 0.46606 0.0
C1715 C 0.39543 0.06838 0.52554 0.0
C1716 C 0.3717 0.04833 0.53184 0.0
C1717 C 0.35629 0.03528 0.50479 0.0
C1718 C 0.36546 0.04057 0.47202 0.0
C1719 C 0.36558 0.03723 0.56566 0.0
C1720 C 0.38126 0.0292 0.57876 0.0
C1721 C 0.34304 0.03097 0.58219 0.0
C1722 C 0.32617 0.03956 0.56956 0.0
C1723 C 0.30078 0.02272 0.56488 0.0
C1724 C 0.28494 0.0308 0.55276 0.0
C1725 C 0.29425 0.05571 0.54532 0.0
C1726 C 0.31942 0.07261 0.55005 0.0
C1727 C 0.33533 0.06463 0.56217 0.0
H1728 H 0.28196 0.06193 0.53593 0.0
H1729 H 0.43038 0.9753 0.64729 0.0
H1730 H 0.41949 0.35333 0.99724 0.0
H1731 H 0.39855 0.34501 0.94341 0.0
H1732 H 0.32976 0.2915 0.99014 0.0
H1733 H 0.35078 0.30011 1.04477 0.0
H1734 H 0.3733 0.30889 0.90136 0.0
H1735 H 0.28401 0.29916 0.95378 0.0
H1736 H 0.26724 0.3069 1.00579 0.0
H1737 H 0.33914 0.3681 1.02908 0.0
H1738 H 0.35619 0.36085 0.97705 0.0
H1739 H 0.33415 0.3431 0.75547 0.0
H1740 H 0.327 0.31622 0.80382 0.0
H1741 H 0.34329 0.37675 0.87057 0.0
H1742 H 0.34814 0.40287 0.82253 0.0
H1743 H 0.31173 0.33729 0.89983 0.0
H1744 H 0.39116 0.36255 0.84147 0.0
H1745 H 0.41551 0.36464 0.79114 0.0
H1746 H 0.37423 0.2857 0.78325 0.0
H1747 H 0.34957 0.28337 0.83333 0.0
C1748 C 0.4001 0.33921 0.99599 0.0
C1749 C 0.38671 0.32749 1.02521 0.0
C1750 C 0.38812 0.33443 0.96513 0.0
C1751 C 0.36254 0.31779 0.9628 0.0
C1752 C 0.34945 0.30461 0.99149 0.0
C1753 C 0.36144 0.30958 1.0226 0.0
C1754 C 0.34966 0.31733 0.93134 0.0
C1755 C 0.3593 0.31442 0.90092 0.0
C1756 C 0.33145 0.3246 0.93076 0.0
C1757 C 0.32138 0.32923 0.96189 0.0
C1758 C 0.29618 0.31426 0.97004 0.0
C1759 C 0.28664 0.31857 0.99948 0.0
C1760 C 0.30214 0.33791 1.02079 0.0
C1761 C 0.32718 0.35307 1.01262 0.0
C1762 C 0.33678 0.34887 0.98318 0.0
C1763 C 0.33548 0.35046 0.78048 0.0
C1764 C 0.34243 0.37535 0.78527 0.0
C1765 C 0.3316 0.33511 0.8081 0.0
C1766 C 0.33526 0.3446 0.84086 0.0
C1767 C 0.34047 0.36895 0.84558 0.0
C1768 C 0.34375 0.38407 0.81808 0.0
C1769 C 0.33686 0.33073 0.8701 0.0
C1770 C 0.32474 0.3305 0.9 0.0
C1771 C 0.35366 0.32165 0.87044 0.0
C1772 C 0.3684 0.32286 0.8406 0.0
C1773 C 0.38726 0.34574 0.82873 0.0
C1774 C 0.40109 0.34695 0.80035 0.0
C1775 C 0.39634 0.32531 0.78391 0.0
C1776 C 0.37782 0.30244 0.79593 0.0
C1777 C 0.36392 0.30117 0.8243 0.0
H1778 H 0.40706 0.32625 0.76193 0.0
H1779 H 0.29473 0.34119 1.04359 0.0
H1780 H 0.9573 0.32684 0.12946 0.0
H1781 H 0.96247 0.31814 0.18782 0.0
H1782 H 0.9064 0.33539 0.21881 0.0
H1783 H 0.90047 0.34336 0.16032 0.0
H1784 H 0.95626 0.36641 0.24359 0.0
H1785 H 0.89466 0.28046 0.23373 0.0
H1786 H 0.87557 0.2394 0.20742 0.0
H1787 H 0.94206 0.23621 0.22489 0.0
H1788 H 0.96169 0.27741 0.25087 0.0
H1789 H 0.97892 0.36568 0.41326 0.0
H1790 H 0.95338 0.35053 0.3628 0.0
H1791 H 0.00166 0.32542 0.32369 0.0
H1792 H 0.02741 0.34063 0.3743 0.0
H1793 H 0.95135 0.295 0.30492 0.0
H1794 H 0.01552 0.37795 0.30482 0.0
H1795 H 0.04186 0.42115 0.32206 0.0
H1796 H 0.97998 0.4332 0.31269 0.0
H1797 H 0.95287 0.38962 0.2968 0.0
C1798 C 0.94539 0.32786 0.14849 0.0
C1799 C 0.92875 0.33614 0.14045 0.0
C1800 C 0.94834 0.32284 0.18179 0.0
C1801 C 0.93476 0.32609 0.20739 0.0
C1802 C 0.91691 0.33267 0.19921 0.0
C1803 C 0.91376 0.33745 0.16591 0.0
C1804 C 0.94259 0.32735 0.24253 0.0
C1805 C 0.95454 0.35068 0.25747 0.0
C1806 C 0.94157 0.307 0.25944 0.0
C1807 C 0.92971 0.28212 0.24407 0.0
C1808 C 0.90529 0.2711 0.23173 0.0
C1809 C 0.89436 0.24777 0.21692 0.0
C1810 C 0.90761 0.23522 0.21443 0.0
C1811 C 0.93181 0.24595 0.22683 0.0
C1812 C 0.94283 0.26927 0.24165 0.0
C1813 C 0.98355 0.35609 0.3945 0.0
C1814 C 0.00519 0.35444 0.3974 0.0
C1815 C 0.96901 0.34754 0.36569 0.0
C1816 C 0.97589 0.33717 0.33954 0.0
C1817 C -0.00387 0.33337 0.34373 0.0
C1818 C 0.01086 0.34217 0.37243 0.0
C1819 C 0.96449 0.334 0.30617 0.0
C1820 C 0.95235 0.31055 0.29143 0.0
C1821 C 0.9662 0.35447 0.28862 0.0
C1822 C 0.98197 0.38028 0.30041 0.0
C1823 C 0.0073 0.38956 0.30734 0.0
C1824 C 0.0224 0.41416 0.31675 0.0
C1825 C 0.01254 0.42985 0.31869 0.0
C1826 C 0.98749 0.42092 0.31154 0.0
C1827 C 0.97221 0.39624 0.30249 0.0
H1828 H 0.0244 0.44896 0.32551 0.0
H1829 H 0.89911 0.21717 0.20295 0.0
H1830 H 0.64467 -0.00494 0.72729 0.0
H1831 H 0.6465 0.97075 0.68049 0.0
H1832 H 0.59724 0.98666 0.62321 0.0
H1833 H 0.59584 0.01141 0.66928 0.0
H1834 H 0.61203 0.93031 0.64637 0.0
H1835 H 0.6149 -0.00297 0.5436 0.0
H1836 H 0.62913 0.04121 0.53607 0.0
H1837 H 0.68362 0.05932 0.61348 0.0
H1838 H 0.67001 0.01524 0.62105 0.0
H1839 H 0.56112 0.88793 0.48841 0.0
H1840 H 0.57731 0.89827 0.54518 0.0
H1841 H 0.65104 0.94494 0.50568 0.0
H1842 H 0.63471 0.9354 0.44866 0.0
H1843 H 0.6363 0.97133 0.53499 0.0
H1844 H 0.63789 0.89978 0.56908 0.0
H1845 H 0.62313 0.8554 0.57535 0.0
H1846 H 0.56089 0.84637 0.63346 0.0
H1847 H 0.57504 0.8906 0.62719 0.0
C1848 C 0.63399 0.99316 0.70488 0.0
C1849 C 0.62003 0.00517 0.70206 0.0
C1850 C 0.6351 0.97928 0.67819 0.0
C1851 C 0.6223 0.97723 0.64832 0.0
C1852 C 0.60767 0.98844 0.64587 0.0
C1853 C 0.60685 0.00257 0.67226 0.0
C1854 C 0.62488 0.96426 0.61901 0.0
C1855 C 0.61755 0.9392 0.62196 0.0
C1856 C 0.63274 0.97617 0.58752 0.0
C1857 C 0.64136 0.00281 0.58295 0.0
C1858 C 0.63003 0.01045 0.55885 0.0
C1859 C 0.63798 0.03547 0.55459 0.0
C1860 C 0.65727 0.05306 0.57429 0.0
C1861 C 0.66866 0.04566 0.59827 0.0
C1862 C 0.66084 0.02065 0.60256 0.0
C1863 C 0.58093 0.89975 0.49184 0.0
C1864 C 0.59651 0.91162 0.46424 0.0
C1865 C 0.59027 0.90541 0.52441 0.0
C1866 C 0.61532 0.9229 0.52976 0.0
C1867 C 0.63157 0.93165 0.5021 0.0
C1868 C 0.6222 0.92614 0.46947 0.0
C1869 C 0.62247 0.93686 0.56169 0.0
C1870 C 0.6315 0.96233 0.55938 0.0
C1871 C 0.61615 0.92523 0.59356 0.0
C1872 C 0.60756 0.89858 0.5976 0.0
C1873 C 0.62097 0.88832 0.58304 0.0
C1874 C 0.61272 0.86318 0.58663 0.0
C1875 C 0.59109 0.84808 0.60479 0.0
C1876 C 0.57767 0.8581 0.61944 0.0
C1877 C 0.58584 0.88323 0.61596 0.0
H1878 H 0.58472 0.82862 0.60751 0.0
H1879 H 0.66341 0.07242 0.57093 0.0
H1880 H 0.5952 0.65197 0.9987 0.0
H1881 H 0.61573 0.65338 0.94582 0.0
H1882 H 0.64487 0.61005 0.98997 0.0
H1883 H 0.62444 0.60876 1.04333 0.0
H1884 H 0.67937 0.64782 0.94954 0.0
H1885 H 0.59534 0.58146 0.94099 0.0
H1886 H 0.54973 0.56095 0.94401 0.0
H1887 H 0.55002 0.6123 0.87206 0.0
H1888 H 0.59564 0.63303 0.86846 0.0
H1889 H 0.68999 0.59488 0.79396 0.0
H1890 H 0.6881 0.60935 0.85023 0.0
H1891 H 0.65694 0.65176 0.80912 0.0
H1892 H 0.65743 0.63645 0.7534 0.0
H1893 H 0.6252 0.61536 0.84931 0.0
H1894 H 0.7104 0.67924 0.85476 0.0
H1895 H 0.75574 0.69712 0.85066 0.0
H1896 H 0.75334 0.64791 0.9278 0.0
H1897 H 0.70791 0.62947 0.93205 0.0
C1898 C 0.60591 0.64267 0.99714 0.0
C1899 C 0.60787 0.62986 1.0249 0.0
C1900 C 0.61771 0.64359 0.967 0.0
C1901 C 0.63148 0.63153 0.96395 0.0
C1902 C 0.63428 0.61946 0.99192 0.0
C1903 C 0.62256 0.61866 1.02226 0.0
C1904 C 0.64186 0.63065 0.93095 0.0
C1905 C 0.66759 0.64048 0.92759 0.0
C1906 C 0.62641 0.62132 0.90243 0.0
C1907 C 0.59893 0.60895 0.90471 0.0
C1908 C 0.58568 0.58847 0.92596 0.0
C1909 C 0.55979 0.57673 0.92766 0.0
C1910 C 0.54693 0.58531 0.90819 0.0
C1911 C 0.55995 0.60559 0.88696 0.0
C1912 C 0.58583 0.61731 0.88503 0.0
C1913 C 0.68345 0.6079 0.79677 0.0
C1914 C 0.67316 0.61388 0.76931 0.0
C1915 C 0.68265 0.61638 0.82894 0.0
C1916 C 0.67202 0.63131 0.83381 0.0
C1917 C 0.66507 0.6401 0.80581 0.0
C1918 C 0.66556 0.63141 0.7738 0.0
C1919 C 0.66288 0.63298 0.86744 0.0
C1920 C 0.63717 0.62293 0.87105 0.0
C1921 C 0.67836 0.64176 0.89603 0.0
C1922 C 0.70569 0.65281 0.89351 0.0
C1923 C 0.71949 0.67206 0.87064 0.0
C1924 C 0.74523 0.68234 0.86834 0.0
C1925 C 0.7574 0.67362 0.8889 0.0
C1926 C 0.74388 0.65464 0.91187 0.0
C1927 C 0.71813 0.64429 0.91427 0.0
H1928 H 0.77733 0.68161 0.88708 0.0
H1929 H 0.52689 0.57627 0.90947 0.0
H1930 H 0.00047 0.64236 0.09532 0.0
H1931 H 0.98317 0.64847 0.14717 0.0
H1932 H 0.05117 0.66754 0.19927 0.0
H1933 H 0.06908 0.66241 0.14716 0.0
H1934 H 0.0005 0.61976 0.21564 0.0
H1935 H 0.04376 0.70832 0.2046 0.0
H1936 H 0.05592 0.74741 0.17514 0.0
H1937 H 0.97962 0.72921 0.17082 0.0
H1938 H 0.96696 0.68979 0.19981 0.0
H1939 H 0.97113 0.64801 0.38217 0.0
H1940 H 0.99051 0.66595 0.32825 0.0
H1941 H 0.92671 0.60922 0.27638 0.0
H1942 H 0.90677 0.5915 0.33024 0.0
H1943 H 0.97772 0.67961 0.26121 0.0
H1944 H 0.95343 0.58133 0.22839 0.0
H1945 H 0.94087 0.54128 0.25549 0.0
H1946 H 0.97971 0.57839 0.34528 0.0
H1947 H 0.99288 0.61867 0.3185 0.0
C1948 C 0.01211 0.6488 0.11746 0.0
C1949 C 0.03598 0.65156 0.11743 0.0
C1950 C 0.00221 0.65233 0.14697 0.0
C1951 C 0.01603 0.65855 0.17669 0.0
C1952 C 0.04045 0.66298 0.17628 0.0
C1953 C 0.05048 0.65975 0.1467 0.0
C1954 C 0.00329 0.65519 0.20891 0.0
C1955 C -0.00436 0.6329 0.22575 0.0
C1956 C -0.00317 0.6723 0.22147 0.0
C1957 C 0.00439 0.69597 0.20404 0.0
C1958 C 0.02954 0.71251 0.19703 0.0
C1959 C 0.03653 0.73477 0.1805 0.0
C1960 C 0.01855 0.74076 0.17102 0.0
C1961 C 0.99353 0.72453 0.17814 0.0
C1962 C 0.98644 0.70224 0.19465 0.0
C1963 C 0.96069 0.64002 0.35937 0.0
C1964 C 0.9377 0.61802 0.36031 0.0
C1965 C 0.97181 0.65032 0.3286 0.0
C1966 C 0.96013 0.63857 0.29865 0.0
C1967 C 0.93598 0.61834 0.29945 0.0
C1968 C 0.92476 0.60815 0.33016 0.0
C1969 C 0.97491 0.64414 0.26776 0.0
C1970 C 0.98273 0.6666 0.25111 0.0
C1971 C 0.98152 0.6271 0.25507 0.0
C1972 C 0.9738 0.60301 0.2716 0.0
C1973 C 0.9593 0.58094 0.25391 0.0
C1974 C 0.95211 0.55821 0.26919 0.0
C1975 C 0.95941 0.5573 0.30212 0.0
C1976 C 0.97398 0.57913 0.31982 0.0
C1977 C 0.98127 0.60192 0.30462 0.0
H1978 H 0.95386 0.53969 0.31384 0.0
H1979 H 0.024 0.758 0.15824 0.0
H1980 H 0.48765 0.08816 0.44144 0.0
H1981 H 0.49619 0.0872 0.50141 0.0
H1982 H 0.57451 0.12715 0.481 0.0
H1983 H 0.56584 0.12746 0.42065 0.0
H1984 H 0.5735 0.10206 0.53075 0.0
H1985 H 0.52987 0.14699 0.52561 0.0
H1986 H 0.49487 0.15356 0.51216 0.0
H1987 H 0.44699 0.09302 0.57635 0.0
H1988 H 0.48153 0.08605 0.59 0.0
H1989 H 0.58536 0.08226 0.70967 0.0
H1990 H 0.57437 0.0805 0.65051 0.0
H1991 H 0.54811 0.13126 0.66903 0.0
H1992 H 0.55686 0.13087 0.72927 0.0
H1993 H 0.52398 0.11276 0.61956 0.0
H1994 H 0.57423 0.06487 0.56958 0.0
H1995 H 0.60997 0.05947 0.58292 0.0
H1996 H 0.64754 0.1312 0.6283 0.0
H1997 H 0.61191 0.13695 0.6153 0.0
C1998 C 0.50686 0.09715 0.44923 0.0
C1999 C 0.52575 0.1083 0.42407 0.0
C2000 C 0.51194 0.09668 0.48473 0.0
C2001 C 0.53643 0.10761 0.49859 0.0
C2002 C 0.55529 0.11849 0.47329 0.0
C2003 C 0.55021 0.11888 0.43772 0.0
C2004 C 0.54237 0.10761 0.53814 0.0
C2005 C 0.56234 0.10445 0.54968 0.0
C2006 C 0.52886 0.1108 0.5654 0.0
C2007 C 0.50821 0.11554 0.5581 0.0
C2008 C 0.51182 0.13495 0.53664 0.0
C2009 C 0.49204 0.13878 0.52901 0.0
C2010 C 0.46863 0.12355 0.54309 0.0
C2011 C 0.46503 0.10465 0.56513 0.0
C2012 C 0.48473 0.10073 0.5728 0.0
C2013 C 0.57735 0.09331 0.70162 0.0
C2014 C 0.57254 0.10686 0.72641 0.0
C2015 C 0.57126 0.09269 0.66633 0.0
C2016 C 0.56091 0.1066 0.65191 0.0
C2017 C 0.55608 0.12016 0.67691 0.0
C2018 C 0.56146 0.12015 0.71248 0.0
C2019 C 0.55499 0.10693 0.61228 0.0
C2020 C 0.53512 0.11033 0.60067 0.0
C2021 C 0.56862 0.1041 0.58487 0.0
C2022 C 0.59039 0.10124 0.59173 0.0
C2023 C 0.59018 0.07953 0.58224 0.0
C2024 C 0.61038 0.07638 0.58982 0.0
C2025 C 0.63101 0.09497 0.60649 0.0
C2026 C 0.63153 0.1168 0.61545 0.0
C2027 C 0.61134 0.12001 0.60803 0.0
H2028 H 0.64658 0.09246 0.61249 0.0
H2029 H 0.45333 0.1265 0.5371 0.0
H2030 H 0.43807 0.57141 0.75455 0.0
H2031 H 0.44739 0.58131 0.81432 0.0
H2032 H 0.4124 0.50411 0.83766 0.0
H2033 H 0.40304 0.49423 0.77779 0.0
H2034 H 0.40505 0.51834 0.89095 0.0
H2035 H 0.48587 0.55767 0.84217 0.0
H2036 H 0.52009 0.58516 0.8041 0.0
H2037 H 0.51528 0.64737 0.83934 0.0
H2038 H 0.48108 0.62034 0.87759 0.0
H2039 H 0.42704 0.56324 1.06434 0.0
H2040 H 0.4175 0.55519 1.00434 0.0
H2041 H 0.49469 0.58231 0.98318 0.0
H2042 H 0.50434 0.5917 1.04314 0.0
H2043 H 0.48219 0.59181 0.92889 0.0
H2044 H 0.37637 0.51897 0.93653 0.0
H2045 H 0.34692 0.48635 0.97469 0.0
H2046 H 0.40726 0.4836 1.02296 0.0
H2047 H 0.43697 0.51607 0.98515 0.0
C2048 C 0.4322 0.55627 0.77205 0.0
C2049 C 0.41932 0.5317 0.75923 0.0
C2050 C 0.43801 0.56207 0.80736 0.0
C2051 C 0.43163 0.54386 0.83319 0.0
C2052 C 0.41836 0.5193 0.82027 0.0
C2053 C 0.41272 0.51349 0.78495 0.0
C2054 C 0.43811 0.55005 0.87254 0.0
C2055 C 0.42189 0.53475 0.89862 0.0
C2056 C 0.46043 0.57077 0.88548 0.0
C2057 C 0.4807 0.58696 0.86232 0.0
C2058 C 0.49198 0.57719 0.84156 0.0
C2059 C 0.51135 0.59266 0.81999 0.0
C2060 C 0.51965 0.6179 0.81908 0.0
C2061 C 0.50873 0.62778 0.83994 0.0
C2062 C 0.4894 0.61242 0.86161 0.0
C2063 C 0.44228 0.56779 1.04727 0.0
C2064 C 0.46677 0.57849 1.06069 0.0
C2065 C 0.43665 0.56272 1.01185 0.0
C2066 C 0.45488 0.5672 0.98661 0.0
C2067 C 0.47946 0.57821 1.00008 0.0
C2068 C 0.48514 0.5837 1.03546 0.0
C2069 C 0.4486 0.56067 0.94735 0.0
C2070 C 0.46498 0.57577 0.92129 0.0
C2071 C 0.42674 0.53932 0.93452 0.0
C2072 C 0.40897 0.52007 0.95792 0.0
C2073 C 0.38337 0.51137 0.95521 0.0
C2074 C 0.3666 0.49291 0.97684 0.0
C2075 C 0.3752 0.48291 1.00125 0.0
C2076 C 0.40058 0.49134 1.00407 0.0
C2077 C 0.41739 0.50978 0.98251 0.0
H2078 H 0.36219 0.46862 1.01796 0.0
H2079 H 0.53466 0.62983 0.8024 0.0
H2080 H 0.86106 0.4386 0.08377 0.0
H2081 H 0.86198 0.44979 0.14312 0.0
H2082 H 0.90349 0.41381 0.16725 0.0
H2083 H 0.90228 0.40246 0.10806 0.0
H2084 H 0.88498 0.40945 0.22127 0.0
H2085 H 0.92328 0.48758 0.16859 0.0
H2086 H 0.92912 0.52095 0.12981 0.0
H2087 H 0.86319 0.51787 0.16865 0.0
H2088 H 0.85692 0.48444 0.20751 0.0
H2089 H 0.86965 0.43417 0.39623 0.0
H2090 H 0.86773 0.42358 0.33695 0.0
H2091 H 0.90581 0.50053 0.31097 0.0
H2092 H 0.90643 0.51097 0.37077 0.0
H2093 H 0.88744 0.48618 0.25719 0.0
H2094 H 0.85442 0.38402 0.27899 0.0
H2095 H 0.86297 0.35618 0.3134 0.0
H2096 H 0.93714 0.41515 0.33102 0.0
H2097 H 0.92868 0.44353 0.29825 0.0
C2098 C 0.87045 0.43283 0.10138 0.0
C2099 C 0.8814 0.41904 0.08886 0.0
C2100 C 0.87136 0.43979 0.13648 0.0
C2101 C 0.88349 0.43379 0.1625 0.0
C2102 C 0.89405 0.41962 0.14987 0.0
C2103 C 0.89324 0.41278 0.11481 0.0
C2104 C 0.88476 0.44139 0.20176 0.0
C2105 C 0.88521 0.42626 0.22833 0.0
C2106 C 0.88621 0.46373 0.21429 0.0
C2107 C 0.88946 0.48332 0.19054 0.0
C2108 C 0.90993 0.49391 0.16859 0.0
C2109 C 0.91336 0.51285 0.1467 0.0
C2110 C 0.89648 0.52143 0.14667 0.0
C2111 C 0.8762 0.51115 0.16863 0.0
C2112 C 0.87272 0.49222 0.19061 0.0
C2113 C 0.87783 0.44919 0.37832 0.0
C2114 C 0.88861 0.47384 0.39074 0.0
C2115 C 0.87709 0.44294 0.34304 0.0
C2116 C 0.88734 0.46071 0.31635 0.0
C2117 C 0.89761 0.48545 0.32878 0.0
C2118 C 0.89809 0.49169 0.36419 0.0
C2119 C 0.88674 0.45374 0.27682 0.0
C2120 C 0.88663 0.4691 0.25015 0.0
C2121 C 0.88665 0.4321 0.26402 0.0
C2122 C 0.89078 0.41591 0.28675 0.0
C2123 C 0.87238 0.39109 0.29085 0.0
C2124 C 0.8772 0.37527 0.31017 0.0
C2125 C 0.90052 0.38397 0.32481 0.0
C2126 C 0.91895 0.40856 0.32038 0.0
C2127 C 0.91409 0.42459 0.30176 0.0
H2128 H 0.90439 0.37163 0.33929 0.0
H2129 H 0.89916 0.53611 0.12972 0.0
H2130 H 0.43711 0.89294 0.42271 0.0
H2131 H 0.42957 0.8941 0.48302 0.0
H2132 H 0.49148 0.88368 0.50489 0.0
H2133 H 0.50021 0.88487 0.44465 0.0
H2134 H 0.41504 0.87637 0.53578 0.0
H2135 H 0.50421 0.8839 0.5948 0.0
H2136 H 0.54923 0.90343 0.58476 0.0
H2137 H 0.54589 0.95478 0.51649 0.0
H2138 H 0.5011 0.93658 0.52753 0.0
H2139 H 0.44677 0.87183 0.73434 0.0
H2140 H 0.45626 0.87247 0.67403 0.0
H2141 H 0.41174 0.90554 0.65206 0.0
H2142 H 0.40203 0.90462 0.71217 0.0
H2143 H 0.47993 0.90241 0.62293 0.0
H2144 H 0.39498 0.90125 0.56784 0.0
H2145 H 0.35113 0.88677 0.58178 0.0
H2146 H 0.34848 0.82871 0.64249 0.0
H2147 H 0.39225 0.84273 0.62867 0.0
C2148 C 0.44948 0.89109 0.44009 0.0
C2149 C 0.46955 0.8888 0.42657 0.0
C2150 C 0.445 0.89169 0.47586 0.0
C2151 C 0.45987 0.8896 0.50183 0.0
C2152 C 0.47961 0.88664 0.48803 0.0
C2153 C 0.48456 0.88684 0.45223 0.0
C2154 C 0.45426 0.88999 0.54174 0.0
C2155 C 0.42984 0.88256 0.55406 0.0
C2156 C 0.47224 0.89751 0.56877 0.0
C2157 C 0.49911 0.90849 0.56149 0.0
C2158 C 0.51307 0.89943 0.5777 0.0
C2159 C 0.53861 0.9104 0.57201 0.0
C2160 C 0.55042 0.93034 0.54991 0.0
C2161 C 0.53674 0.93946 0.5337 0.0
C2162 C 0.51128 0.9289 0.5398 0.0
C2163 C 0.43862 0.87913 0.71701 0.0
C2164 C 0.42293 0.88776 0.73028 0.0
C2165 C 0.44436 0.87967 0.68146 0.0
C2166 C 0.43486 0.88873 0.65577 0.0
C2167 C 0.41943 0.89768 0.66918 0.0
C2168 C 0.41377 0.89724 0.70472 0.0
C2169 C 0.44102 0.88884 0.61624 0.0
C2170 C 0.4654 0.8963 0.6042 0.0
C2171 C 0.42326 0.88199 0.58941 0.0
C2172 C 0.3969 0.87316 0.59742 0.0
C2173 C 0.38499 0.88533 0.58404 0.0
C2174 C 0.36017 0.87723 0.59196 0.0
C2175 C 0.34704 0.85687 0.61307 0.0
C2176 C 0.35869 0.84452 0.62622 0.0
C2177 C 0.3835 0.85255 0.61838 0.0
H2178 H 0.32784 0.85064 0.6192 0.0
H2179 H 0.57019 0.93879 0.54543 0.0
H2180 H 0.59681 0.4968 0.77541 0.0
H2181 H 0.58816 0.48812 0.83577 0.0
H2182 H 0.5374 0.41214 0.81362 0.0
H2183 H 0.54713 0.42056 0.75307 0.0
H2184 H 0.51619 0.42712 0.86699 0.0
H2185 H 0.59717 0.4342 0.85471 0.0
H2186 H 0.64139 0.45586 0.83847 0.0
H2187 H 0.6551 0.5162 0.90314 0.0
H2188 H 0.6109 0.495 0.91949 0.0
H2189 H 0.49189 0.38821 1.04362 0.0
H2190 H 0.50068 0.39546 0.98347 0.0
H2191 H 0.5726 0.45725 1.00559 0.0
H2192 H 0.56423 0.44874 1.066 0.0
H2193 H 0.58301 0.45055 0.95073 0.0
H2194 H 0.50721 0.45042 0.96183 0.0
H2195 H 0.46354 0.43599 0.97663 0.0
H2196 H 0.43997 0.37236 0.91402 0.0
H2197 H 0.48353 0.38619 0.89927 0.0
C2198 C 0.58402 0.47797 0.78282 0.0
C2199 C 0.57335 0.45963 0.75707 0.0
C2200 C 0.57881 0.47289 0.81847 0.0
C2201 C 0.5617 0.44912 0.83189 0.0
C2202 C 0.55067 0.43081 0.80614 0.0
C2203 C 0.55654 0.43572 0.77046 0.0
C2204 C 0.55571 0.44362 0.87161 0.0
C2205 C 0.53106 0.43199 0.88487 0.0
C2206 C 0.57416 0.45054 0.89755 0.0
C2207 C 0.60072 0.46309 0.88814 0.0
C2208 C 0.60961 0.45214 0.86534 0.0
C2209 C 0.63466 0.46433 0.85613 0.0
C2210 C 0.65103 0.48741 0.86972 0.0
C2211 C 0.6424 0.49832 0.89263 0.0
C2212 C 0.61736 0.48621 0.90191 0.0
C2213 C 0.50976 0.40343 1.0362 0.0
C2214 C 0.52707 0.41743 1.06201 0.0
C2215 C 0.51488 0.40809 1.00042 0.0
C2216 C 0.53749 0.42786 0.98669 0.0
C2217 C 0.55482 0.44181 1.01275 0.0
C2218 C 0.54989 0.43681 1.04857 0.0
C2219 C 0.54322 0.43356 0.94667 0.0
C2220 C 0.56791 0.44538 0.93319 0.0
C2221 C 0.52482 0.42777 0.92065 0.0
C2222 C 0.49866 0.41916 0.92981 0.0
C2223 C 0.49272 0.43325 0.95143 0.0
C2224 C 0.46798 0.42519 0.9598 0.0
C2225 C 0.44899 0.40322 0.9464 0.0
C2226 C 0.45469 0.3893 0.92452 0.0
C2227 C 0.47941 0.39723 0.91616 0.0
H2228 H 0.42984 0.39701 0.95289 0.0
H2229 H 0.67042 0.49683 0.86253 0.0
H2230 H 0.12228 0.5493 0.39422 0.0
H2231 H 0.12464 0.5606 0.33487 0.0
H2232 H 0.07479 0.48474 0.30986 0.0
H2233 H 0.07372 0.47328 0.36949 0.0
H2234 H 0.09702 0.49863 0.25596 0.0
H2235 H 0.06731 0.54408 0.31479 0.0
H2236 H 0.06481 0.57339 0.3533 0.0
H2237 H 0.12965 0.63304 0.30766 0.0
H2238 H 0.1325 0.60403 0.26864 0.0
H2239 H 0.12709 0.54831 0.08461 0.0
H2240 H 0.12526 0.53672 0.14392 0.0
H2241 H 0.0849 0.574 0.16721 0.0
H2242 H 0.08691 0.58572 0.10778 0.0
H2243 H 0.10376 0.57776 0.22192 0.0
H2244 H 0.12738 0.5 0.20561 0.0
H2245 H 0.11999 0.46691 0.16561 0.0
H2246 H 0.05527 0.46701 0.12824 0.0
H2247 H 0.06231 0.5001 0.16819 0.0
C2248 C 0.11173 0.53469 0.37644 0.0
C2249 C 0.09788 0.51 0.38875 0.0
C2250 C 0.11281 0.5414 0.34136 0.0
C2251 C 0.09941 0.52417 0.3152 0.0
C2252 C 0.08565 0.49933 0.32753 0.0
C2253 C 0.08498 0.49253 0.36268 0.0
C2254 C 0.09992 0.5318 0.27622 0.0
C2255 C 0.09882 0.51624 0.24928 0.0
C2256 C 0.10131 0.55433 0.26442 0.0
C2257 C 0.10007 0.57176 0.28858 0.0
C2258 C 0.081 0.56341 0.31277 0.0
C2259 C 0.07955 0.58 0.3348 0.0
C2260 C 0.09706 0.60508 0.33294 0.0
C2261 C 0.11607 0.6136 0.30905 0.0
C2262 C 0.11758 0.59707 0.28692 0.0
C2263 C 0.11774 0.55426 0.102 0.0
C2264 C 0.10739 0.56853 0.08923 0.0
C2265 C 0.11628 0.54708 0.13704 0.0
C2266 C 0.10416 0.5533 0.16274 0.0
C2267 C 0.09423 0.56799 0.14994 0.0
C2268 C 0.09556 0.57506 0.11485 0.0
C2269 C 0.10223 0.54519 0.20183 0.0
C2270 C 0.10264 0.56048 0.22875 0.0
C2271 C 0.09957 0.5222 0.2137 0.0
C2272 C 0.09554 0.50268 0.18947 0.0
C2273 C 0.1116 0.49297 0.18881 0.0
C2274 C 0.10749 0.47424 0.16617 0.0
C2275 C 0.08723 0.46496 0.14429 0.0
C2276 C 0.07102 0.47434 0.14507 0.0
C2277 C 0.07509 0.49309 0.16762 0.0
H2278 H 0.08406 0.45045 0.12681 0.0
H2279 H 0.09591 0.61792 0.35002 0.0
loop_
_geom_bond_atom_site_label_1
_geom_bond_atom_site_label_2
_geom_bond_distance
_geom_bond_site_symmetry_2
_ccdc_geom_bond_type
Ho0 C3 2.811 . S
Ho0 O20 2.322 . S
Ho0 O22 2.378 . S
Ho0 O23 2.524 . S
Ho0 O24 2.381 . S
Ho0 O25 2.669 . S
Ho0 O27 2.346 . S
Ho0 O31 2.305 . S
Ho1 C12 2.811 . S
Ho1 O21 2.346 . S
Ho1 O25 2.305 . S
Ho1 O26 2.322 . S
Ho1 O28 2.378 . S
Ho1 O29 2.524 . S
Ho1 O30 2.381 . S
Ho1 O31 2.669 . S
C2 O20 1.259 . S
C2 O21 1.268 . S
C3 Ho0 2.811 . S
C3 C4 1.488 . S
C3 O22 1.215 . S
C3 O23 1.289 . S
C4 C3 1.488 . S
C4 C5 1.348 . S
C4 C9 1.413 . S
C5 C4 1.348 . S
C5 C6 1.442 . S
C5 H32 0.930 . S
C6 C5 1.442 . S
C6 C7 1.381 . S
C6 H33 0.931 . S
C7 C6 1.381 . S
C7 C8 1.321 . S
C8 C7 1.321 . S
C8 C9 1.403 . S
C8 H34 0.934 . S
C9 C4 1.413 . S
C9 C8 1.403 . S
C9 H35 0.930 . S
C10 O24 1.275 . S
C10 O25 1.256 . S
C11 O26 1.259 . S
C11 O27 1.268 . S
C12 Ho1 2.811 . S
C12 C13 1.488 . S
C12 O28 1.215 . S
C12 O29 1.289 . S
C13 C12 1.488 . S
C13 C14 1.348 . S
C13 C18 1.413 . S
C14 C13 1.348 . S
C14 C15 1.442 . S
C14 H36 0.930 . S
C15 C14 1.442 . S
C15 C16 1.381 . S
C15 H37 0.931 . S
C16 C15 1.381 . S
C16 C17 1.321 . S
C17 C16 1.321 . S
C17 C18 1.403 . S
C17 H38 0.934 . S
C18 C13 1.413 . S
C18 C17 1.403 . S
C18 H39 0.930 . S
C19 O30 1.275 . S
C19 O31 1.256 . S
O20 Ho0 2.322 . S
O20 C2 1.259 . S
O21 Ho1 2.346 . S
O21 C2 1.268 . S
O22 Ho0 2.378 . S
O22 C3 1.215 . S
O23 Ho0 2.524 . S
O23 C3 1.289 . S
O24 Ho0 2.381 . S
O24 C10 1.275 . S
O25 Ho0 2.669 . S
O25 Ho1 2.305 . S
O25 C10 1.256 . S
O26 Ho1 2.322 . S
O26 C11 1.259 . S
O27 Ho0 2.346 . S
O27 C11 1.268 . S
O28 Ho1 2.378 . S
O28 C12 1.215 . S
O29 Ho1 2.524 . S
O29 C12 1.289 . S
O30 Ho1 2.381 . S
O30 C19 1.275 . S
O31 Ho0 2.305 . S
O31 Ho1 2.669 . S
O31 C19 1.256 . S
H32 C5 0.930 . S
H33 C6 0.931 . S
H34 C8 0.934 . S
H35 C9 0.930 . S
H36 C14 0.930 . S
H37 C15 0.931 . S
H38 C17 0.934 . S
H39 C18 0.930 . S
Ho40 C43 2.811 . S
Ho40 O60 2.322 . S
Ho40 O62 2.378 . S
Ho40 O63 2.524 . S
Ho40 O64 2.381 . S
Ho40 O65 2.669 . S
Ho40 O67 2.346 . S
Ho40 O71 2.305 . S
Ho41 C52 2.811 . S
Ho41 O61 2.346 . S
Ho41 O65 2.305 . S
Ho41 O66 2.322 . S
Ho41 O68 2.378 . S
Ho41 O69 2.524 . S
Ho41 O70 2.381 . S
Ho41 O71 2.669 . S
C42 O60 1.259 . S
C42 O61 1.268 . S
C43 Ho40 2.811 . S
C43 C44 1.488 . S
C43 O62 1.215 . S
C43 O63 1.289 . S
C44 C43 1.488 . S
C44 C45 1.348 . S
C44 C49 1.413 . S
C45 C44 1.348 . S
C45 C46 1.442 . S
C45 H72 0.930 . S
C46 C45 1.442 . S
C46 C47 1.381 . S
C46 H73 0.931 . S
C47 C46 1.381 . S
C47 C48 1.321 . S
C48 C47 1.321 . S
C48 C49 1.403 . S
C48 H74 0.934 . S
C49 C44 1.413 . S
C49 C48 1.403 . S
C49 H75 0.930 . S
C50 O64 1.275 . S
C50 O65 1.256 . S
C51 O66 1.259 . S
C51 O67 1.268 . S
C52 Ho41 2.811 . S
C52 C53 1.488 . S
C52 O68 1.215 . S
C52 O69 1.289 . S
C53 C52 1.488 . S
C53 C54 1.348 . S
C53 C58 1.413 . S
C54 C53 1.348 . S
C54 C55 1.442 . S
C54 H76 0.930 . S
C55 C54 1.442 . S
C55 C56 1.381 . S
C55 H77 0.931 . S
C56 C55 1.381 . S
C56 C57 1.321 . S
C57 C56 1.321 . S
C57 C58 1.403 . S
C57 H78 0.934 . S
C58 C53 1.413 . S
C58 C57 1.403 . S
C58 H79 0.930 . S
C59 O70 1.275 . S
C59 O71 1.256 . S
O60 Ho40 2.322 . S
O60 C42 1.259 . S
O61 Ho41 2.346 . S
O61 C42 1.268 . S
O62 Ho40 2.378 . S
O62 C43 1.215 . S
O63 Ho40 2.524 . S
O63 C43 1.289 . S
O64 Ho40 2.381 . S
O64 C50 1.275 . S
O65 Ho40 2.669 . S
O65 Ho41 2.305 . S
O65 C50 1.256 . S
O66 Ho41 2.322 . S
O66 C51 1.259 . S
O67 Ho40 2.346 . S
O67 C51 1.268 . S
O68 Ho41 2.378 . S
O68 C52 1.215 . S
O69 Ho41 2.524 . S
O69 C52 1.289 . S
O70 Ho41 2.381 . S
O70 C59 1.275 . S
O71 Ho40 2.305 . S
O71 Ho41 2.669 . S
O71 C59 1.256 . S
H72 C45 0.930 . S
H73 C46 0.931 . S
H74 C48 0.934 . S
H75 C49 0.930 . S
H76 C54 0.930 . S
H77 C55 0.931 . S
H78 C57 0.934 . S
H79 C58 0.930 . S
Ho80 C83 2.811 . S
Ho80 O100 2.322 . S
Ho80 O102 2.378 . S
Ho80 O103 2.524 . S
Ho80 O104 2.381 . S
Ho80 O105 2.669 . S
Ho80 O107 2.346 . S
Ho80 O111 2.305 . S
Ho81 C92 2.811 . S
Ho81 O101 2.346 . S
Ho81 O105 2.305 . S
Ho81 O106 2.322 . S
Ho81 O108 2.378 . S
Ho81 O109 2.524 . S
Ho81 O110 2.381 . S
Ho81 O111 2.669 . S
C82 O100 1.259 . S
C82 O101 1.268 . S
C83 Ho80 2.811 . S
C83 C84 1.488 1_556 S
C83 O102 1.215 . S
C83 O103 1.289 . S
C84 C83 1.488 1_554 S
C84 C85 1.348 . S
C84 C89 1.413 . S
C85 C84 1.348 . S
C85 C86 1.442 . S
C85 H112 0.930 . S
C86 C85 1.442 . S
C86 C87 1.381 . S
C86 H113 0.931 . S
C87 C86 1.381 . S
C87 C88 1.321 . S
C88 C87 1.321 . S
C88 C89 1.403 . S
C88 H114 0.934 . S
C89 C84 1.413 . S
C89 C88 1.403 . S
C89 H115 0.930 . S
C90 O104 1.275 . S
C90 O105 1.256 . S
C91 O106 1.259 . S
C91 O107 1.268 . S
C92 Ho81 2.811 . S
C92 C93 1.488 . S
C92 O108 1.215 . S
C92 O109 1.289 . S
C93 C92 1.488 . S
C93 C94 1.348 . S
C93 C98 1.413 . S
C94 C93 1.348 . S
C94 C95 1.442 . S
C94 H116 0.930 . S
C95 C94 1.442 . S
C95 C96 1.381 . S
C95 H117 0.931 . S
C96 C95 1.381 . S
C96 C97 1.321 . S
C97 C96 1.321 . S
C97 C98 1.403 . S
C97 H118 0.934 . S
C98 C93 1.413 . S
C98 C97 1.403 . S
C98 H119 0.930 . S
C99 O110 1.275 . S
C99 O111 1.256 . S
O100 Ho80 2.322 . S
O100 C82 1.259 . S
O101 Ho81 2.346 . S
O101 C82 1.268 . S
O102 Ho80 2.378 . S
O102 C83 1.215 . S
O103 Ho80 2.524 . S
O103 C83 1.289 . S
O104 Ho80 2.381 . S
O104 C90 1.275 . S
O105 Ho80 2.669 . S
O105 Ho81 2.305 . S
O105 C90 1.256 . S
O106 Ho81 2.322 . S
O106 C91 1.259 . S
O107 Ho80 2.346 . S
O107 C91 1.268 . S
O108 Ho81 2.378 . S
O108 C92 1.215 . S
O109 Ho81 2.524 . S
O109 C92 1.289 . S
O110 Ho81 2.381 . S
O110 C99 1.275 . S
O111 Ho80 2.305 . S
O111 Ho81 2.669 . S
O111 C99 1.256 . S
H112 C85 0.930 . S
H113 C86 0.931 . S
H114 C88 0.934 . S
H115 C89 0.930 . S
H116 C94 0.930 . S
H117 C95 0.931 . S
H118 C97 0.934 . S
H119 C98 0.930 . S
Ho120 C123 2.811 . S
Ho120 O140 2.322 . S
Ho120 O142 2.378 . S
Ho120 O143 2.524 . S
Ho120 O144 2.381 . S
Ho120 O145 2.669 . S
Ho120 O147 2.346 . S
Ho120 O151 2.305 . S
Ho121 C132 2.811 . S
Ho121 O141 2.346 . S
Ho121 O145 2.305 . S
Ho121 O146 2.322 . S
Ho121 O148 2.378 . S
Ho121 O149 2.524 . S
Ho121 O150 2.381 . S
Ho121 O151 2.669 . S
C122 O140 1.259 . S
C122 O141 1.268 . S
C123 Ho120 2.811 . S
C123 C124 1.488 . S
C123 O142 1.215 . S
C123 O143 1.289 . S
C124 C123 1.488 . S
C124 C125 1.348 . S
C124 C129 1.413 . S
C125 C124 1.348 . S
C125 C126 1.442 . S
C125 H152 0.930 . S
C126 C125 1.442 . S
C126 C127 1.381 . S
C126 H153 0.931 . S
C127 C126 1.381 . S
C127 C128 1.321 . S
C128 C127 1.321 . S
C128 C129 1.403 . S
C128 H154 0.934 . S
C129 C124 1.413 . S
C129 C128 1.403 . S
C129 H155 0.930 . S
C130 O144 1.275 . S
C130 O145 1.256 . S
C131 O146 1.259 . S
C131 O147 1.268 . S
C132 Ho121 2.811 . S
C132 C133 1.488 . S
C132 O148 1.215 . S
C132 O149 1.289 . S
C133 C132 1.488 . S
C133 C134 1.348 . S
C133 C138 1.413 . S
C134 C133 1.348 . S
C134 C135 1.442 . S
C134 H156 0.930 . S
C135 C134 1.442 . S
C135 C136 1.381 . S
C135 H157 0.931 . S
C136 C135 1.381 . S
C136 C137 1.321 . S
C137 C136 1.321 . S
C137 C138 1.403 . S
C137 H158 0.934 . S
C138 C133 1.413 . S
C138 C137 1.403 . S
C138 H159 0.930 . S
C139 O150 1.275 . S
C139 O151 1.256 . S
O140 Ho120 2.322 . S
O140 C122 1.259 . S
O141 Ho121 2.346 . S
O141 C122 1.268 . S
O142 Ho120 2.378 . S
O142 C123 1.215 . S
O143 Ho120 2.524 . S
O143 C123 1.289 . S
O144 Ho120 2.381 . S
O144 C130 1.275 . S
O145 Ho120 2.669 . S
O145 Ho121 2.305 . S
O145 C130 1.256 . S
O146 Ho121 2.322 . S
O146 C131 1.259 . S
O147 Ho120 2.346 . S
O147 C131 1.268 . S
O148 Ho121 2.378 . S
O148 C132 1.215 . S
O149 Ho121 2.524 . S
O149 C132 1.289 . S
O150 Ho121 2.381 . S
O150 C139 1.275 . S
O151 Ho120 2.305 . S
O151 Ho121 2.669 . S
O151 C139 1.256 . S
H152 C125 0.930 . S
H153 C126 0.931 . S
H154 C128 0.934 . S
H155 C129 0.930 . S
H156 C134 0.930 . S
H157 C135 0.931 . S
H158 C137 0.934 . S
H159 C138 0.930 . S
Ho160 C163 2.811 . S
Ho160 O180 2.322 . S
Ho160 O182 2.378 . S
Ho160 O183 2.524 . S
Ho160 O184 2.381 . S
Ho160 O185 2.669 . S
Ho160 O187 2.346 . S
Ho160 O191 2.305 . S
Ho161 C172 2.811 . S
Ho161 O181 2.346 . S
Ho161 O185 2.305 . S
Ho161 O186 2.322 . S
Ho161 O188 2.378 . S
Ho161 O189 2.524 . S
Ho161 O190 2.381 . S
Ho161 O191 2.669 . S
C162 O180 1.259 . S
C162 O181 1.268 . S
C163 Ho160 2.811 . S
C163 C164 1.488 . S
C163 O182 1.215 . S
C163 O183 1.289 . S
C164 C163 1.488 . S
C164 C165 1.348 . S
C164 C169 1.413 . S
C165 C164 1.348 . S
C165 C166 1.442 . S
C165 H192 0.930 . S
C166 C165 1.442 . S
C166 C167 1.381 . S
C166 H193 0.931 . S
C167 C166 1.381 . S
C167 C168 1.321 . S
C168 C167 1.321 . S
C168 C169 1.403 . S
C168 H194 0.934 . S
C169 C164 1.413 . S
C169 C168 1.403 . S
C169 H195 0.930 . S
C170 O184 1.275 . S
C170 O185 1.256 . S
C171 O186 1.259 . S
C171 O187 1.268 . S
C172 Ho161 2.811 . S
C172 C173 1.488 . S
C172 O188 1.215 . S
C172 O189 1.289 . S
C173 C172 1.488 . S
C173 C174 1.348 . S
C173 C178 1.413 . S
C174 C173 1.348 . S
C174 C175 1.442 . S
C174 H196 0.930 . S
C175 C174 1.442 . S
C175 C176 1.381 . S
C175 H197 0.931 . S
C176 C175 1.381 . S
C176 C177 1.321 . S
C177 C176 1.321 . S
C177 C178 1.403 . S
C177 H198 0.934 . S
C178 C173 1.413 . S
C178 C177 1.403 . S
C178 H199 0.930 . S
C179 O190 1.275 . S
C179 O191 1.256 . S
O180 Ho160 2.322 . S
O180 C162 1.259 . S
O181 Ho161 2.346 . S
O181 C162 1.268 . S
O182 Ho160 2.378 . S
O182 C163 1.215 . S
O183 Ho160 2.524 . S
O183 C163 1.289 . S
O184 Ho160 2.381 . S
O184 C170 1.275 . S
O185 Ho160 2.669 . S
O185 Ho161 2.305 . S
O185 C170 1.256 . S
O186 Ho161 2.322 . S
O186 C171 1.259 . S
O187 Ho160 2.346 . S
O187 C171 1.268 . S
O188 Ho161 2.378 . S
O188 C172 1.215 . S
O189 Ho161 2.524 . S
O189 C172 1.289 . S
O190 Ho161 2.381 . S
O190 C179 1.275 . S
O191 Ho160 2.305 . S
O191 Ho161 2.669 . S
O191 C179 1.256 . S
H192 C165 0.930 . S
H193 C166 0.931 . S
H194 C168 0.934 . S
H195 C169 0.930 . S
H196 C174 0.930 . S
H197 C175 0.931 . S
H198 C177 0.934 . S
H199 C178 0.930 . S
Ho200 C203 2.811 . S
Ho200 O220 2.322 . S
Ho200 O222 2.378 . S
Ho200 O223 2.524 . S
Ho200 O224 2.381 . S
Ho200 O225 2.669 . S
Ho200 O227 2.346 . S
Ho200 O231 2.305 . S
Ho201 C212 2.811 . S
Ho201 O221 2.346 . S
Ho201 O225 2.305 . S
Ho201 O226 2.322 . S
Ho201 O228 2.378 . S
Ho201 O229 2.524 . S
Ho201 O230 2.381 . S
Ho201 O231 2.669 . S
C202 O220 1.259 . S
C202 O221 1.268 . S
C203 Ho200 2.811 . S
C203 C204 1.488 1_556 S
C203 O222 1.215 . S
C203 O223 1.289 . S
C204 C203 1.488 1_554 S
C204 C205 1.348 . S
C204 C209 1.413 . S
C205 C204 1.348 . S
C205 C206 1.442 . S
C205 H232 0.930 . S
C206 C205 1.442 . S
C206 C207 1.381 . S
C206 H233 0.931 . S
C207 C206 1.381 . S
C207 C208 1.321 . S
C208 C207 1.321 . S
C208 C209 1.403 . S
C208 H234 0.934 . S
C209 C204 1.413 . S
C209 C208 1.403 . S
C209 H235 0.930 . S
C210 O224 1.275 . S
C210 O225 1.256 . S
C211 O226 1.259 . S
C211 O227 1.268 . S
C212 Ho201 2.811 . S
C212 C213 1.488 . S
C212 O228 1.215 . S
C212 O229 1.289 . S
C213 C212 1.488 . S
C213 C214 1.348 . S
C213 C218 1.413 . S
C214 C213 1.348 . S
C214 C215 1.442 . S
C214 H236 0.930 . S
C215 C214 1.442 . S
C215 C216 1.381 . S
C215 H237 0.931 . S
C216 C215 1.381 . S
C216 C217 1.321 . S
C217 C216 1.321 . S
C217 C218 1.403 . S
C217 H238 0.934 . S
C218 C213 1.413 . S
C218 C217 1.403 . S
C218 H239 0.930 . S
C219 O230 1.275 . S
C219 O231 1.256 . S
O220 Ho200 2.322 . S
O220 C202 1.259 . S
O221 Ho201 2.346 . S
O221 C202 1.268 . S
O222 Ho200 2.378 . S
O222 C203 1.215 . S
O223 Ho200 2.524 . S
O223 C203 1.289 . S
O224 Ho200 2.381 . S
O224 C210 1.275 . S
O225 Ho200 2.669 . S
O225 Ho201 2.305 . S
O225 C210 1.256 . S
O226 Ho201 2.322 . S
O226 C211 1.259 . S
O227 Ho200 2.346 . S
O227 C211 1.268 . S
O228 Ho201 2.378 . S
O228 C212 1.215 . S
O229 Ho201 2.524 . S
O229 C212 1.289 . S
O230 Ho201 2.381 . S
O230 C219 1.275 . S
O231 Ho200 2.305 . S
O231 Ho201 2.669 . S
O231 C219 1.256 . S
H232 C205 0.930 . S
H233 C206 0.931 . S
H234 C208 0.934 . S
H235 C209 0.930 . S
H236 C214 0.930 . S
H237 C215 0.931 . S
H238 C217 0.934 . S
H239 C218 0.930 . S
Ho240 C243 2.811 . S
Ho240 O260 2.322 . S
Ho240 O262 2.378 . S
Ho240 O263 2.524 . S
Ho240 O264 2.381 . S
Ho240 O265 2.669 . S
Ho240 O267 2.346 . S
Ho240 O271 2.305 . S
Ho241 C252 2.811 . S
Ho241 O261 2.346 . S
Ho241 O265 2.305 . S
Ho241 O266 2.322 . S
Ho241 O268 2.378 . S
Ho241 O269 2.524 . S
Ho241 O270 2.381 . S
Ho241 O271 2.669 . S
C242 O260 1.259 . S
C242 O261 1.268 . S
C243 Ho240 2.811 . S
C243 C244 1.488 . S
C243 O262 1.215 . S
C243 O263 1.289 . S
C244 C243 1.488 . S
C244 C245 1.348 . S
C244 C249 1.413 . S
C245 C244 1.348 . S
C245 C246 1.442 . S
C245 H272 0.930 . S
C246 C245 1.442 . S
C246 C247 1.381 . S
C246 H273 0.931 . S
C247 C246 1.381 . S
C247 C248 1.321 . S
C248 C247 1.321 . S
C248 C249 1.403 . S
C248 H274 0.934 . S
C249 C244 1.413 . S
C249 C248 1.403 . S
C249 H275 0.930 . S
C250 O264 1.275 . S
C250 O265 1.256 . S
C251 O266 1.259 . S
C251 O267 1.268 . S
C252 Ho241 2.811 . S
C252 C253 1.488 . S
C252 O268 1.215 . S
C252 O269 1.289 . S
C253 C252 1.488 . S
C253 C254 1.348 . S
C253 C258 1.413 . S
C254 C253 1.348 . S
C254 C255 1.442 . S
C254 H276 0.930 . S
C255 C254 1.442 . S
C255 C256 1.381 . S
C255 H277 0.931 . S
C256 C255 1.381 . S
C256 C257 1.321 . S
C257 C256 1.321 . S
C257 C258 1.403 . S
C257 H278 0.934 . S
C258 C253 1.413 . S
C258 C257 1.403 . S
C258 H279 0.930 . S
C259 O270 1.275 . S
C259 O271 1.256 . S
O260 Ho240 2.322 . S
O260 C242 1.259 . S
O261 Ho241 2.346 . S
O261 C242 1.268 . S
O262 Ho240 2.378 . S
O262 C243 1.215 . S
O263 Ho240 2.524 . S
O263 C243 1.289 . S
O264 Ho240 2.381 . S
O264 C250 1.275 . S
O265 Ho240 2.669 . S
O265 Ho241 2.305 . S
O265 C250 1.256 . S
O266 Ho241 2.322 . S
O266 C251 1.259 . S
O267 Ho240 2.346 . S
O267 C251 1.268 . S
O268 Ho241 2.378 . S
O268 C252 1.215 . S
O269 Ho241 2.524 . S
O269 C252 1.289 . S
O270 Ho241 2.381 . S
O270 C259 1.275 . S
O271 Ho240 2.305 . S
O271 Ho241 2.669 . S
O271 C259 1.256 . S
H272 C245 0.930 . S
H273 C246 0.931 . S
H274 C248 0.934 . S
H275 C249 0.930 . S
H276 C254 0.930 . S
H277 C255 0.931 . S
H278 C257 0.934 . S
H279 C258 0.930 . S
Ho280 C283 2.811 . S
Ho280 O300 2.322 . S
Ho280 O302 2.378 . S
Ho280 O303 2.524 . S
Ho280 O304 2.381 . S
Ho280 O305 2.669 . S
Ho280 O307 2.346 . S
Ho280 O311 2.305 . S
Ho281 C292 2.811 . S
Ho281 O301 2.346 . S
Ho281 O305 2.305 . S
Ho281 O306 2.322 . S
Ho281 O308 2.378 . S
Ho281 O309 2.524 . S
Ho281 O310 2.381 . S
Ho281 O311 2.669 . S
C282 O300 1.259 . S
C282 O301 1.268 . S
C283 Ho280 2.811 . S
C283 C284 1.488 . S
C283 O302 1.215 . S
C283 O303 1.289 . S
C284 C283 1.488 . S
C284 C285 1.348 . S
C284 C289 1.413 . S
C285 C284 1.348 . S
C285 C286 1.442 . S
C285 H312 0.930 . S
C286 C285 1.442 . S
C286 C287 1.381 . S
C286 H313 0.931 . S
C287 C286 1.381 . S
C287 C288 1.321 . S
C288 C287 1.321 . S
C288 C289 1.403 . S
C288 H314 0.934 . S
C289 C284 1.413 . S
C289 C288 1.403 . S
C289 H315 0.930 . S
C290 O304 1.275 . S
C290 O305 1.256 . S
C291 O306 1.259 . S
C291 O307 1.268 . S
C292 Ho281 2.811 . S
C292 C293 1.488 . S
C292 O308 1.215 . S
C292 O309 1.289 . S
C293 C292 1.488 . S
C293 C294 1.348 . S
C293 C298 1.413 . S
C294 C293 1.348 . S
C294 C295 1.442 . S
C294 H316 0.930 . S
C295 C294 1.442 . S
C295 C296 1.381 . S
C295 H317 0.931 . S
C296 C295 1.381 . S
C296 C297 1.321 . S
C297 C296 1.321 . S
C297 C298 1.403 . S
C297 H318 0.934 . S
C298 C293 1.413 . S
C298 C297 1.403 . S
C298 H319 0.930 . S
C299 O310 1.275 . S
C299 O311 1.256 . S
O300 Ho280 2.322 . S
O300 C282 1.259 . S
O301 Ho281 2.346 . S
O301 C282 1.268 . S
O302 Ho280 2.378 . S
O302 C283 1.215 . S
O303 Ho280 2.524 . S
O303 C283 1.289 . S
O304 Ho280 2.381 . S
O304 C290 1.275 . S
O305 Ho280 2.669 . S
O305 Ho281 2.305 . S
O305 C290 1.256 . S
O306 Ho281 2.322 . S
O306 C291 1.259 . S
O307 Ho280 2.346 . S
O307 C291 1.268 . S
O308 Ho281 2.378 . S
O308 C292 1.215 . S
O309 Ho281 2.524 . S
O309 C292 1.289 . S
O310 Ho281 2.381 . S
O310 C299 1.275 . S
O311 Ho280 2.305 . S
O311 Ho281 2.669 . S
O311 C299 1.256 . S
H312 C285 0.930 . S
H313 C286 0.931 . S
H314 C288 0.934 . S
H315 C289 0.930 . S
H316 C294 0.930 . S
H317 C295 0.931 . S
H318 C297 0.934 . S
H319 C298 0.930 . S
Ho320 C323 2.811 . S
Ho320 O340 2.322 . S
Ho320 O342 2.378 . S
Ho320 O343 2.524 . S
Ho320 O344 2.381 . S
Ho320 O345 2.669 . S
Ho320 O347 2.346 . S
Ho320 O351 2.305 . S
Ho321 C332 2.811 . S
Ho321 O341 2.346 . S
Ho321 O345 2.305 . S
Ho321 O346 2.322 . S
Ho321 O348 2.378 . S
Ho321 O349 2.524 . S
Ho321 O350 2.381 . S
Ho321 O351 2.669 . S
C322 O340 1.259 . S
C322 O341 1.268 . S
C323 Ho320 2.811 . S
C323 C324 1.488 1_554 S
C323 O342 1.215 . S
C323 O343 1.289 . S
C324 C323 1.488 1_556 S
C324 C325 1.348 . S
C324 C329 1.413 . S
C325 C324 1.348 . S
C325 C326 1.442 . S
C325 H352 0.930 . S
C326 C325 1.442 . S
C326 C327 1.381 . S
C326 H353 0.931 . S
C327 C326 1.381 . S
C327 C328 1.321 . S
C328 C327 1.321 . S
C328 C329 1.403 . S
C328 H354 0.934 . S
C329 C324 1.413 . S
C329 C328 1.403 . S
C329 H355 0.930 . S
C330 O344 1.275 . S
C330 O345 1.256 . S
C331 O346 1.259 . S
C331 O347 1.268 . S
C332 Ho321 2.811 . S
C332 C333 1.488 . S
C332 O348 1.215 . S
C332 O349 1.289 . S
C333 C332 1.488 . S
C333 C334 1.348 . S
C333 C338 1.413 . S
C334 C333 1.348 . S
C334 C335 1.442 . S
C334 H356 0.930 . S
C335 C334 1.442 . S
C335 C336 1.381 . S
C335 H357 0.931 . S
C336 C335 1.381 . S
C336 C337 1.321 . S
C337 C336 1.321 . S
C337 C338 1.403 . S
C337 H358 0.934 . S
C338 C333 1.413 . S
C338 C337 1.403 . S
C338 H359 0.930 . S
C339 O350 1.275 . S
C339 O351 1.256 . S
O340 Ho320 2.322 . S
O340 C322 1.259 . S
O341 Ho321 2.346 . S
O341 C322 1.268 . S
O342 Ho320 2.378 . S
O342 C323 1.215 . S
O343 Ho320 2.524 . S
O343 C323 1.289 . S
O344 Ho320 2.381 . S
O344 C330 1.275 . S
O345 Ho320 2.669 . S
O345 Ho321 2.305 . S
O345 C330 1.256 . S
O346 Ho321 2.322 . S
O346 C331 1.259 . S
O347 Ho320 2.346 . S
O347 C331 1.268 . S
O348 Ho321 2.378 . S
O348 C332 1.215 . S
O349 Ho321 2.524 . S
O349 C332 1.289 . S
O350 Ho321 2.381 . S
O350 C339 1.275 . S
O351 Ho320 2.305 . S
O351 Ho321 2.669 . S
O351 C339 1.256 . S
H352 C325 0.930 . S
H353 C326 0.931 . S
H354 C328 0.934 . S
H355 C329 0.930 . S
H356 C334 0.930 . S
H357 C335 0.931 . S
H358 C337 0.934 . S
H359 C338 0.930 . S
Ho360 C363 2.811 . S
Ho360 O380 2.322 . S
Ho360 O382 2.378 . S
Ho360 O383 2.524 . S
Ho360 O384 2.381 . S
Ho360 O385 2.669 . S
Ho360 O387 2.346 . S
Ho360 O391 2.305 . S
Ho361 C372 2.811 . S
Ho361 O381 2.346 . S
Ho361 O385 2.305 . S
Ho361 O386 2.322 . S
Ho361 O388 2.378 . S
Ho361 O389 2.524 . S
Ho361 O390 2.381 . S
Ho361 O391 2.669 . S
C362 O380 1.259 . S
C362 O381 1.268 . S
C363 Ho360 2.811 . S
C363 C364 1.488 . S
C363 O382 1.215 . S
C363 O383 1.289 . S
C364 C363 1.488 . S
C364 C365 1.348 . S
C364 C369 1.413 . S
C365 C364 1.348 . S
C365 C366 1.442 . S
C365 H392 0.930 . S
C366 C365 1.442 . S
C366 C367 1.381 . S
C366 H393 0.931 . S
C367 C366 1.381 . S
C367 C368 1.321 . S
C368 C367 1.321 . S
C368 C369 1.403 . S
C368 H394 0.934 . S
C369 C364 1.413 . S
C369 C368 1.403 . S
C369 H395 0.930 . S
C370 O384 1.275 . S
C370 O385 1.256 . S
C371 O386 1.259 . S
C371 O387 1.268 . S
C372 Ho361 2.811 . S
C372 C373 1.488 . S
C372 O388 1.215 . S
C372 O389 1.289 . S
C373 C372 1.488 . S
C373 C374 1.348 . S
C373 C378 1.413 . S
C374 C373 1.348 . S
C374 C375 1.442 . S
C374 H396 0.930 . S
C375 C374 1.442 . S
C375 C376 1.381 . S
C375 H397 0.931 . S
C376 C375 1.381 . S
C376 C377 1.321 . S
C377 C376 1.321 . S
C377 C378 1.403 . S
C377 H398 0.934 . S
C378 C373 1.413 . S
C378 C377 1.403 . S
C378 H399 0.930 . S
C379 O390 1.275 . S
C379 O391 1.256 . S
O380 Ho360 2.322 . S
O380 C362 1.259 . S
O381 Ho361 2.346 . S
O381 C362 1.268 . S
O382 Ho360 2.378 . S
O382 C363 1.215 . S
O383 Ho360 2.524 . S
O383 C363 1.289 . S
O384 Ho360 2.381 . S
O384 C370 1.275 . S
O385 Ho360 2.669 . S
O385 Ho361 2.305 . S
O385 C370 1.256 . S
O386 Ho361 2.322 . S
O386 C371 1.259 . S
O387 Ho360 2.346 . S
O387 C371 1.268 . S
O388 Ho361 2.378 . S
O388 C372 1.215 . S
O389 Ho361 2.524 . S
O389 C372 1.289 . S
O390 Ho361 2.381 . S
O390 C379 1.275 . S
O391 Ho360 2.305 . S
O391 Ho361 2.669 . S
O391 C379 1.256 . S
H392 C365 0.930 . S
H393 C366 0.931 . S
H394 C368 0.934 . S
H395 C369 0.930 . S
H396 C374 0.930 . S
H397 C375 0.931 . S
H398 C377 0.934 . S
H399 C378 0.930 . S
Ho400 C403 2.811 . S
Ho400 O420 2.322 . S
Ho400 O422 2.378 . S
Ho400 O423 2.524 . S
Ho400 O424 2.381 . S
Ho400 O425 2.669 . S
Ho400 O427 2.346 . S
Ho400 O431 2.305 . S
Ho401 C412 2.811 . S
Ho401 O421 2.346 . S
Ho401 O425 2.305 . S
Ho401 O426 2.322 . S
Ho401 O428 2.378 . S
Ho401 O429 2.524 . S
Ho401 O430 2.381 . S
Ho401 O431 2.669 . S
C402 O420 1.259 . S
C402 O421 1.268 . S
C403 Ho400 2.811 . S
C403 C404 1.488 . S
C403 O422 1.215 . S
C403 O423 1.289 . S
C404 C403 1.488 . S
C404 C405 1.348 . S
C404 C409 1.413 . S
C405 C404 1.348 . S
C405 C406 1.442 . S
C405 H432 0.930 . S
C406 C405 1.442 . S
C406 C407 1.381 . S
C406 H433 0.931 . S
C407 C406 1.381 . S
C407 C408 1.321 . S
C408 C407 1.321 . S
C408 C409 1.403 . S
C408 H434 0.934 . S
C409 C404 1.413 . S
C409 C408 1.403 . S
C409 H435 0.930 . S
C410 O424 1.275 . S
C410 O425 1.256 . S
C411 O426 1.259 . S
C411 O427 1.268 . S
C412 Ho401 2.811 . S
C412 C413 1.488 . S
C412 O428 1.215 . S
C412 O429 1.289 . S
C413 C412 1.488 . S
C413 C414 1.348 . S
C413 C418 1.413 . S
C414 C413 1.348 . S
C414 C415 1.442 . S
C414 H436 0.930 . S
C415 C414 1.442 . S
C415 C416 1.381 . S
C415 H437 0.931 . S
C416 C415 1.381 . S
C416 C417 1.321 . S
C417 C416 1.321 . S
C417 C418 1.403 . S
C417 H438 0.934 . S
C418 C413 1.413 . S
C418 C417 1.403 . S
C418 H439 0.930 . S
C419 O430 1.275 . S
C419 O431 1.256 . S
O420 Ho400 2.322 . S
O420 C402 1.259 . S
O421 Ho401 2.346 . S
O421 C402 1.268 . S
O422 Ho400 2.378 . S
O422 C403 1.215 . S
O423 Ho400 2.524 . S
O423 C403 1.289 . S
O424 Ho400 2.381 . S
O424 C410 1.275 . S
O425 Ho400 2.669 . S
O425 Ho401 2.305 . S
O425 C410 1.256 . S
O426 Ho401 2.322 . S
O426 C411 1.259 . S
O427 Ho400 2.346 . S
O427 C411 1.268 . S
O428 Ho401 2.378 . S
O428 C412 1.215 . S
O429 Ho401 2.524 . S
O429 C412 1.289 . S
O430 Ho401 2.381 . S
O430 C419 1.275 . S
O431 Ho400 2.305 . S
O431 Ho401 2.669 . S
O431 C419 1.256 . S
H432 C405 0.930 . S
H433 C406 0.931 . S
H434 C408 0.934 . S
H435 C409 0.930 . S
H436 C414 0.930 . S
H437 C415 0.931 . S
H438 C417 0.934 . S
H439 C418 0.930 . S
Ho440 C443 2.811 . S
Ho440 O460 2.322 . S
Ho440 O462 2.378 . S
Ho440 O463 2.524 . S
Ho440 O464 2.381 . S
Ho440 O465 2.669 . S
Ho440 O467 2.346 . S
Ho440 O471 2.305 . S
Ho441 C452 2.811 . S
Ho441 O461 2.346 . S
Ho441 O465 2.305 . S
Ho441 O466 2.322 . S
Ho441 O468 2.378 . S
Ho441 O469 2.524 . S
Ho441 O470 2.381 . S
Ho441 O471 2.669 . S
C442 O460 1.259 . S
C442 O461 1.268 . S
C443 Ho440 2.811 . S
C443 C444 1.488 1_554 S
C443 O462 1.215 . S
C443 O463 1.289 . S
C444 C443 1.488 1_556 S
C444 C445 1.348 . S
C444 C449 1.413 . S
C445 C444 1.348 . S
C445 C446 1.442 . S
C445 H472 0.930 . S
C446 C445 1.442 . S
C446 C447 1.381 . S
C446 H473 0.931 . S
C447 C446 1.381 . S
C447 C448 1.321 . S
C448 C447 1.321 . S
C448 C449 1.403 . S
C448 H474 0.934 . S
C449 C444 1.413 . S
C449 C448 1.403 . S
C449 H475 0.930 . S
C450 O464 1.275 . S
C450 O465 1.256 . S
C451 O466 1.259 . S
C451 O467 1.268 . S
C452 Ho441 2.811 . S
C452 C453 1.488 . S
C452 O468 1.215 . S
C452 O469 1.289 . S
C453 C452 1.488 . S
C453 C454 1.348 . S
C453 C458 1.413 . S
C454 C453 1.348 . S
C454 C455 1.442 . S
C454 H476 0.930 . S
C455 C454 1.442 . S
C455 C456 1.381 . S
C455 H477 0.931 . S
C456 C455 1.381 . S
C456 C457 1.321 . S
C457 C456 1.321 . S
C457 C458 1.403 . S
C457 H478 0.934 . S
C458 C453 1.413 . S
C458 C457 1.403 . S
C458 H479 0.930 . S
C459 O470 1.275 . S
C459 O471 1.256 . S
O460 Ho440 2.322 . S
O460 C442 1.259 . S
O461 Ho441 2.346 . S
O461 C442 1.268 . S
O462 Ho440 2.378 . S
O462 C443 1.215 . S
O463 Ho440 2.524 . S
O463 C443 1.289 . S
O464 Ho440 2.381 . S
O464 C450 1.275 . S
O465 Ho440 2.669 . S
O465 Ho441 2.305 . S
O465 C450 1.256 . S
O466 Ho441 2.322 . S
O466 C451 1.259 . S
O467 Ho440 2.346 . S
O467 C451 1.268 . S
O468 Ho441 2.378 . S
O468 C452 1.215 . S
O469 Ho441 2.524 . S
O469 C452 1.289 . S
O470 Ho441 2.381 . S
O470 C459 1.275 . S
O471 Ho440 2.305 . S
O471 Ho441 2.669 . S
O471 C459 1.256 . S
H472 C445 0.930 . S
H473 C446 0.931 . S
H474 C448 0.934 . S
H475 C449 0.930 . S
H476 C454 0.930 . S
H477 C455 0.931 . S
H478 C457 0.934 . S
H479 C458 0.930 . S
H480 C498 0.951 . S
H481 C500 0.951 . S
H482 C502 0.950 . S
H483 C503 0.950 . S
H484 C505 0.950 . S
H485 C508 0.950 . S
H486 C509 0.950 . S
H487 C511 0.950 . S
H488 C512 0.950 . S
H489 C513 0.951 . S
H490 C515 0.951 . S
H491 C517 0.950 . S
H492 C518 0.950 . S
H493 C520 0.950 . S
H494 C523 0.950 . S
H495 C524 0.950 . S
H496 C526 0.950 . S
H497 C527 0.950 . S
C498 H480 0.951 . S
C498 C499 1.366 . S
C498 C500 1.388 . S
C499 C498 1.366 . S
C499 C503 1.385 . S
C500 H481 0.951 . S
C500 C498 1.388 . S
C500 C501 1.366 . S
C501 C500 1.366 . S
C501 C502 1.414 . S
C501 C504 1.499 . S
C502 H482 0.950 . S
C502 C501 1.414 . S
C502 C503 1.374 . S
C503 H483 0.950 . S
C503 C499 1.385 . S
C503 C502 1.374 . S
C504 C501 1.499 . S
C504 C505 1.373 . S
C504 C506 1.389 . S
C505 H484 0.950 . S
C505 C504 1.373 . S
C505 C521 1.377 . S
C506 C504 1.389 . S
C506 C507 1.524 . S
C506 C520 1.377 . S
C507 C506 1.524 . S
C507 C508 1.397 . S
C507 C512 1.363 . S
C508 H485 0.950 . S
C508 C507 1.397 . S
C508 C509 1.334 . S
C509 H486 0.950 . S
C509 C508 1.334 . S
C509 C510 1.287 . S
C510 C509 1.287 . S
C510 C511 1.524 . S
C510 H529 0.913 . S
C511 H487 0.950 . S
C511 C510 1.524 . S
C511 C512 1.415 . S
C512 H488 0.950 . S
C512 C507 1.363 . S
C512 C511 1.415 . S
C513 H489 0.951 . S
C513 C514 1.366 . S
C513 C515 1.388 . S
C514 C513 1.366 . S
C514 C518 1.385 . S
C515 H490 0.951 . S
C515 C513 1.388 . S
C515 C516 1.366 . S
C516 C515 1.366 . S
C516 C517 1.414 . S
C516 C519 1.499 . S
C517 H491 0.950 . S
C517 C516 1.414 . S
C517 C518 1.374 . S
C518 H492 0.950 . S
C518 C514 1.385 . S
C518 C517 1.374 . S
C519 C516 1.499 . S
C519 C520 1.373 . S
C519 C521 1.389 . S
C520 H493 0.950 . S
C520 C506 1.377 . S
C520 C519 1.373 . S
C521 C505 1.377 . S
C521 C519 1.389 . S
C521 C522 1.524 . S
C522 C521 1.524 . S
C522 C523 1.397 . S
C522 C527 1.363 . S
C523 H494 0.950 . S
C523 C522 1.397 . S
C523 C524 1.334 . S
C524 H495 0.950 . S
C524 C523 1.334 . S
C524 C525 1.287 . S
C525 C524 1.287 . S
C525 C526 1.524 . S
C525 H528 0.999 . S
C526 H496 0.950 . S
C526 C525 1.524 . S
C526 C527 1.415 . S
C527 H497 0.950 . S
C527 C522 1.363 . S
C527 C526 1.415 . S
H528 C525 0.999 . S
H529 C510 0.913 . S
H530 C548 0.951 . S
H531 C550 0.951 . S
H532 C552 0.950 . S
H533 C553 0.950 . S
H534 C555 0.950 . S
H535 C558 0.950 . S
H536 C559 0.950 . S
H537 C561 0.950 . S
H538 C562 0.950 . S
H539 C563 0.951 . S
H540 C565 0.951 . S
H541 C567 0.950 . S
H542 C568 0.950 . S
H543 C570 0.950 . S
H544 C573 0.950 . S
H545 C574 0.950 . S
H546 C576 0.950 . S
H547 C577 0.950 . S
C548 H530 0.951 . S
C548 C549 1.366 . S
C548 C550 1.388 . S
C549 C548 1.366 . S
C549 C553 1.385 . S
C550 H531 0.951 . S
C550 C548 1.388 . S
C550 C551 1.366 . S
C551 C550 1.366 . S
C551 C552 1.414 . S
C551 C554 1.499 . S
C552 H532 0.950 . S
C552 C551 1.414 . S
C552 C553 1.374 . S
C553 H533 0.950 . S
C553 C549 1.385 . S
C553 C552 1.374 . S
C554 C551 1.499 . S
C554 C555 1.373 . S
C554 C556 1.389 . S
C555 H534 0.950 . S
C555 C554 1.373 . S
C555 C571 1.377 . S
C556 C554 1.389 . S
C556 C557 1.524 . S
C556 C570 1.377 . S
C557 C556 1.524 . S
C557 C558 1.397 . S
C557 C562 1.363 . S
C558 H535 0.950 . S
C558 C557 1.397 . S
C558 C559 1.334 . S
C559 H536 0.950 . S
C559 C558 1.334 . S
C559 C560 1.287 . S
C560 C559 1.287 . S
C560 C561 1.524 . S
C560 H579 0.913 . S
C561 H537 0.950 . S
C561 C560 1.524 . S
C561 C562 1.415 . S
C562 H538 0.950 . S
C562 C557 1.363 . S
C562 C561 1.415 . S
C563 H539 0.951 . S
C563 C564 1.366 . S
C563 C565 1.388 . S
C564 C563 1.366 . S
C564 C568 1.385 . S
C565 H540 0.951 . S
C565 C563 1.388 . S
C565 C566 1.366 . S
C566 C565 1.366 . S
C566 C567 1.414 . S
C566 C569 1.499 . S
C567 H541 0.950 . S
C567 C566 1.414 . S
C567 C568 1.374 . S
C568 H542 0.950 . S
C568 C564 1.385 . S
C568 C567 1.374 . S
C569 C566 1.499 . S
C569 C570 1.373 . S
C569 C571 1.389 . S
C570 H543 0.950 . S
C570 C556 1.377 . S
C570 C569 1.373 . S
C571 C555 1.377 . S
C571 C569 1.389 . S
C571 C572 1.524 . S
C572 C571 1.524 . S
C572 C573 1.397 . S
C572 C577 1.363 . S
C573 H544 0.950 . S
C573 C572 1.397 . S
C573 C574 1.334 . S
C574 H545 0.950 . S
C574 C573 1.334 . S
C574 C575 1.287 . S
C575 C574 1.287 . S
C575 C576 1.524 . S
C575 H578 0.999 . S
C576 H546 0.950 . S
C576 C575 1.524 . S
C576 C577 1.415 . S
C577 H547 0.950 . S
C577 C572 1.363 . S
C577 C576 1.415 . S
H578 C575 0.999 . S
H579 C560 0.913 . S
H580 C598 0.951 . S
H581 C600 0.951 . S
H582 C602 0.950 . S
H583 C603 0.950 . S
H584 C605 0.950 . S
H585 C608 0.950 . S
H586 C609 0.950 . S
H587 C611 0.950 . S
H588 C612 0.950 . S
H589 C613 0.951 . S
H590 C615 0.951 . S
H591 C617 0.950 . S
H592 C618 0.950 . S
H593 C620 0.950 . S
H594 C623 0.950 . S
H595 C624 0.950 . S
H596 C626 0.950 . S
H597 C627 0.950 . S
C598 H580 0.951 . S
C598 C599 1.366 . S
C598 C600 1.388 . S
C599 C598 1.366 . S
C599 C603 1.385 . S
C600 H581 0.951 . S
C600 C598 1.388 . S
C600 C601 1.366 . S
C601 C600 1.366 . S
C601 C602 1.414 . S
C601 C604 1.499 . S
C602 H582 0.950 . S
C602 C601 1.414 . S
C602 C603 1.374 . S
C603 H583 0.950 . S
C603 C599 1.385 . S
C603 C602 1.374 . S
C604 C601 1.499 . S
C604 C605 1.373 . S
C604 C606 1.389 . S
C605 H584 0.950 . S
C605 C604 1.373 . S
C605 C621 1.377 . S
C606 C604 1.389 . S
C606 C607 1.524 . S
C606 C620 1.377 . S
C607 C606 1.524 . S
C607 C608 1.397 . S
C607 C612 1.363 . S
C608 H585 0.950 . S
C608 C607 1.397 . S
C608 C609 1.334 . S
C609 H586 0.950 . S
C609 C608 1.334 . S
C609 C610 1.287 . S
C610 C609 1.287 . S
C610 C611 1.524 . S
C610 H629 0.913 . S
C611 H587 0.950 . S
C611 C610 1.524 . S
C611 C612 1.415 . S
C612 H588 0.950 . S
C612 C607 1.363 . S
C612 C611 1.415 . S
C613 H589 0.951 . S
C613 C614 1.366 . S
C613 C615 1.388 . S
C614 C613 1.366 . S
C614 C618 1.385 . S
C615 H590 0.951 . S
C615 C613 1.388 . S
C615 C616 1.366 . S
C616 C615 1.366 . S
C616 C617 1.414 . S
C616 C619 1.499 . S
C617 H591 0.950 . S
C617 C616 1.414 . S
C617 C618 1.374 . S
C618 H592 0.950 . S
C618 C614 1.385 . S
C618 C617 1.374 . S
C619 C616 1.499 . S
C619 C620 1.373 . S
C619 C621 1.389 . S
C620 H593 0.950 . S
C620 C606 1.377 . S
C620 C619 1.373 . S
C621 C605 1.377 . S
C621 C619 1.389 . S
C621 C622 1.524 . S
C622 C621 1.524 . S
C622 C623 1.397 . S
C622 C627 1.363 . S
C623 H594 0.950 . S
C623 C622 1.397 . S
C623 C624 1.334 . S
C624 H595 0.950 . S
C624 C623 1.334 . S
C624 C625 1.287 . S
C625 C624 1.287 . S
C625 C626 1.524 . S
C625 H628 0.999 . S
C626 H596 0.950 . S
C626 C625 1.524 . S
C626 C627 1.415 . S
C627 H597 0.950 . S
C627 C622 1.363 . S
C627 C626 1.415 . S
H628 C625 0.999 . S
H629 C610 0.913 . S
H630 C648 0.951 . S
H631 C650 0.951 . S
H632 C652 0.950 . S
H633 C653 0.950 . S
H634 C655 0.950 . S
H635 C658 0.950 . S
H636 C659 0.950 . S
H637 C661 0.950 . S
H638 C662 0.950 . S
H639 C663 0.951 . S
H640 C665 0.951 . S
H641 C667 0.950 . S
H642 C668 0.950 . S
H643 C670 0.950 . S
H644 C673 0.950 . S
H645 C674 0.950 . S
H646 C676 0.950 . S
H647 C677 0.950 . S
C648 H630 0.951 . S
C648 C649 1.366 . S
C648 C650 1.388 . S
C649 C648 1.366 . S
C649 C653 1.385 . S
C650 H631 0.951 . S
C650 C648 1.388 . S
C650 C651 1.366 . S
C651 C650 1.366 . S
C651 C652 1.414 . S
C651 C654 1.499 . S
C652 H632 0.950 . S
C652 C651 1.414 . S
C652 C653 1.374 . S
C653 H633 0.950 . S
C653 C649 1.385 . S
C653 C652 1.374 . S
C654 C651 1.499 . S
C654 C655 1.373 . S
C654 C656 1.389 . S
C655 H634 0.950 . S
C655 C654 1.373 . S
C655 C671 1.377 . S
C656 C654 1.389 . S
C656 C657 1.524 . S
C656 C670 1.377 . S
C657 C656 1.524 . S
C657 C658 1.397 . S
C657 C662 1.363 . S
C658 H635 0.950 . S
C658 C657 1.397 . S
C658 C659 1.334 . S
C659 H636 0.950 . S
C659 C658 1.334 . S
C659 C660 1.287 . S
C660 C659 1.287 . S
C660 C661 1.524 . S
C660 H679 0.913 . S
C661 H637 0.950 . S
C661 C660 1.524 . S
C661 C662 1.415 . S
C662 H638 0.950 . S
C662 C657 1.363 . S
C662 C661 1.415 . S
C663 H639 0.951 . S
C663 C664 1.366 . S
C663 C665 1.388 . S
C664 C663 1.366 . S
C664 C668 1.385 . S
C665 H640 0.951 . S
C665 C663 1.388 . S
C665 C666 1.366 . S
C666 C665 1.366 . S
C666 C667 1.414 . S
C666 C669 1.499 . S
C667 H641 0.950 . S
C667 C666 1.414 . S
C667 C668 1.374 . S
C668 H642 0.950 . S
C668 C664 1.385 . S
C668 C667 1.374 . S
C669 C666 1.499 . S
C669 C670 1.373 . S
C669 C671 1.389 . S
C670 H643 0.950 . S
C670 C656 1.377 . S
C670 C669 1.373 . S
C671 C655 1.377 . S
C671 C669 1.389 . S
C671 C672 1.524 . S
C672 C671 1.524 . S
C672 C673 1.397 . S
C672 C677 1.363 . S
C673 H644 0.950 . S
C673 C672 1.397 . S
C673 C674 1.334 . S
C674 H645 0.950 . S
C674 C673 1.334 . S
C674 C675 1.287 . S
C675 C674 1.287 . S
C675 C676 1.524 . S
C675 H678 0.999 . S
C676 H646 0.950 . S
C676 C675 1.524 . S
C676 C677 1.415 . S
C677 H647 0.950 . S
C677 C672 1.363 . S
C677 C676 1.415 . S
H678 C675 0.999 . S
H679 C660 0.913 . S
H680 C698 0.951 . S
H681 C700 0.951 . S
H682 C702 0.950 . S
H683 C703 0.950 . S
H684 C705 0.950 . S
H685 C708 0.950 . S
H686 C709 0.950 . S
H687 C711 0.950 . S
H688 C712 0.950 . S
H689 C713 0.951 . S
H690 C715 0.951 . S
H691 C717 0.950 . S
H692 C718 0.950 . S
H693 C720 0.950 . S
H694 C723 0.950 . S
H695 C724 0.950 . S
H696 C726 0.950 . S
H697 C727 0.950 . S
C698 H680 0.951 . S
C698 C699 1.366 . S
C698 C700 1.388 . S
C699 C698 1.366 . S
C699 C703 1.385 . S
C700 H681 0.951 . S
C700 C698 1.388 . S
C700 C701 1.366 . S
C701 C700 1.366 . S
C701 C702 1.414 . S
C701 C704 1.499 . S
C702 H682 0.950 . S
C702 C701 1.414 . S
C702 C703 1.374 . S
C703 H683 0.950 . S
C703 C699 1.385 . S
C703 C702 1.374 . S
C704 C701 1.499 . S
C704 C705 1.373 . S
C704 C706 1.389 . S
C705 H684 0.950 . S
C705 C704 1.373 . S
C705 C721 1.377 . S
C706 C704 1.389 . S
C706 C707 1.524 . S
C706 C720 1.377 . S
C707 C706 1.524 . S
C707 C708 1.397 . S
C707 C712 1.363 . S
C708 H685 0.950 . S
C708 C707 1.397 . S
C708 C709 1.334 . S
C709 H686 0.950 . S
C709 C708 1.334 . S
C709 C710 1.287 . S
C710 C709 1.287 . S
C710 C711 1.524 . S
C710 H729 0.913 . S
C711 H687 0.950 . S
C711 C710 1.524 . S
C711 C712 1.415 . S
C712 H688 0.950 . S
C712 C707 1.363 . S
C712 C711 1.415 . S
C713 H689 0.951 . S
C713 C714 1.366 . S
C713 C715 1.388 . S
C714 C713 1.366 . S
C714 C718 1.385 . S
C715 H690 0.951 . S
C715 C713 1.388 . S
C715 C716 1.366 . S
C716 C715 1.366 . S
C716 C717 1.414 . S
C716 C719 1.499 . S
C717 H691 0.950 . S
C717 C716 1.414 . S
C717 C718 1.374 . S
C718 H692 0.950 . S
C718 C714 1.385 . S
C718 C717 1.374 . S
C719 C716 1.499 . S
C719 C720 1.373 . S
C719 C721 1.389 . S
C720 H693 0.950 . S
C720 C706 1.377 . S
C720 C719 1.373 . S
C721 C705 1.377 . S
C721 C719 1.389 . S
C721 C722 1.524 . S
C722 C721 1.524 . S
C722 C723 1.397 . S
C722 C727 1.363 . S
C723 H694 0.950 . S
C723 C722 1.397 . S
C723 C724 1.334 . S
C724 H695 0.950 . S
C724 C723 1.334 . S
C724 C725 1.287 . S
C725 C724 1.287 . S
C725 C726 1.524 . S
C725 H728 0.999 . S
C726 H696 0.950 . S
C726 C725 1.524 . S
C726 C727 1.415 . S
C727 H697 0.950 . S
C727 C722 1.363 . S
C727 C726 1.415 . S
H728 C725 0.999 . S
H729 C710 0.913 . S
H730 C748 0.951 . S
H731 C750 0.951 . S
H732 C752 0.950 . S
H733 C753 0.950 . S
H734 C755 0.950 . S
H735 C758 0.950 . S
H736 C759 0.950 . S
H737 C761 0.950 . S
H738 C762 0.950 . S
H739 C763 0.951 . S
H740 C765 0.951 . S
H741 C767 0.950 . S
H742 C768 0.950 . S
H743 C770 0.950 . S
H744 C773 0.950 . S
H745 C774 0.950 . S
H746 C776 0.950 . S
H747 C777 0.950 . S
C748 H730 0.951 . S
C748 C749 1.366 . S
C748 C750 1.388 . S
C749 C748 1.366 . S
C749 C753 1.385 . S
C750 H731 0.951 . S
C750 C748 1.388 . S
C750 C751 1.366 . S
C751 C750 1.366 . S
C751 C752 1.414 . S
C751 C754 1.499 . S
C752 H732 0.950 . S
C752 C751 1.414 . S
C752 C753 1.374 . S
C753 H733 0.950 . S
C753 C749 1.385 . S
C753 C752 1.374 . S
C754 C751 1.499 . S
C754 C755 1.373 . S
C754 C756 1.389 . S
C755 H734 0.950 . S
C755 C754 1.373 . S
C755 C771 1.377 . S
C756 C754 1.389 . S
C756 C757 1.524 . S
C756 C770 1.377 . S
C757 C756 1.524 . S
C757 C758 1.397 . S
C757 C762 1.363 . S
C758 H735 0.950 . S
C758 C757 1.397 . S
C758 C759 1.334 . S
C759 H736 0.950 . S
C759 C758 1.334 . S
C759 C760 1.287 . S
C760 C759 1.287 . S
C760 C761 1.524 . S
C760 H779 0.913 . S
C761 H737 0.950 . S
C761 C760 1.524 . S
C761 C762 1.415 . S
C762 H738 0.950 . S
C762 C757 1.363 . S
C762 C761 1.415 . S
C763 H739 0.951 . S
C763 C764 1.366 . S
C763 C765 1.388 . S
C764 C763 1.366 . S
C764 C768 1.385 . S
C765 H740 0.951 . S
C765 C763 1.388 . S
C765 C766 1.366 . S
C766 C765 1.366 . S
C766 C767 1.414 . S
C766 C769 1.499 . S
C767 H741 0.950 . S
C767 C766 1.414 . S
C767 C768 1.374 . S
C768 H742 0.950 . S
C768 C764 1.385 . S
C768 C767 1.374 . S
C769 C766 1.499 . S
C769 C770 1.373 . S
C769 C771 1.389 . S
C770 H743 0.950 . S
C770 C756 1.377 . S
C770 C769 1.373 . S
C771 C755 1.377 . S
C771 C769 1.389 . S
C771 C772 1.524 . S
C772 C771 1.524 . S
C772 C773 1.397 . S
C772 C777 1.363 . S
C773 H744 0.950 . S
C773 C772 1.397 . S
C773 C774 1.334 . S
C774 H745 0.950 . S
C774 C773 1.334 . S
C774 C775 1.287 . S
C775 C774 1.287 . S
C775 C776 1.524 . S
C775 H778 0.999 . S
C776 H746 0.950 . S
C776 C775 1.524 . S
C776 C777 1.415 . S
C777 H747 0.950 . S
C777 C772 1.363 . S
C777 C776 1.415 . S
H778 C775 0.999 . S
H779 C760 0.913 . S
H780 C798 0.951 . S
H781 C800 0.951 . S
H782 C802 0.950 . S
H783 C803 0.950 . S
H784 C805 0.950 . S
H785 C808 0.950 . S
H786 C809 0.950 . S
H787 C811 0.950 . S
H788 C812 0.950 . S
H789 C813 0.951 . S
H790 C815 0.951 . S
H791 C817 0.950 . S
H792 C818 0.950 . S
H793 C820 0.950 . S
H794 C823 0.950 . S
H795 C824 0.950 . S
H796 C826 0.950 . S
H797 C827 0.950 . S
C798 H780 0.951 . S
C798 C799 1.366 . S
C798 C800 1.388 . S
C799 C798 1.366 . S
C799 C803 1.385 . S
C800 H781 0.951 . S
C800 C798 1.388 . S
C800 C801 1.366 . S
C801 C800 1.366 . S
C801 C802 1.414 . S
C801 C804 1.499 . S
C802 H782 0.950 . S
C802 C801 1.414 . S
C802 C803 1.374 . S
C803 H783 0.950 . S
C803 C799 1.385 . S
C803 C802 1.374 . S
C804 C801 1.499 . S
C804 C805 1.367 1_556 S
C804 C806 1.389 . S
C805 H784 0.950 . S
C805 C804 1.367 1_554 S
C805 C821 1.382 . S
C806 C804 1.389 . S
C806 C807 1.524 . S
C806 C820 1.382 . S
C807 C806 1.524 . S
C807 C808 1.397 . S
C807 C812 1.363 . S
C808 H785 0.950 . S
C808 C807 1.397 . S
C808 C809 1.334 . S
C809 H786 0.950 . S
C809 C808 1.334 . S
C809 C810 1.287 . S
C810 C809 1.287 . S
C810 C811 1.524 . S
C810 H829 0.913 . S
C811 H787 0.950 . S
C811 C810 1.524 . S
C811 C812 1.415 . S
C812 H788 0.950 . S
C812 C807 1.363 . S
C812 C811 1.415 . S
C813 H789 0.951 . S
C813 C814 1.366 . S
C813 C815 1.388 . S
C814 C813 1.366 . S
C814 C818 1.385 . S
C815 H790 0.951 . S
C815 C813 1.388 . S
C815 C816 1.366 . S
C816 C815 1.366 . S
C816 C817 1.414 . S
C816 C819 1.499 . S
C817 H791 0.950 . S
C817 C816 1.414 . S
C817 C818 1.374 . S
C818 H792 0.950 . S
C818 C814 1.385 . S
C818 C817 1.374 . S
C819 C816 1.499 . S
C819 C820 1.368 1_554 S
C819 C821 1.389 . S
C820 H793 0.950 . S
C820 C806 1.382 . S
C820 C819 1.368 1_556 S
C821 C805 1.382 . S
C821 C819 1.389 . S
C821 C822 1.524 . S
C822 C821 1.524 . S
C822 C823 1.397 . S
C822 C827 1.363 . S
C823 H794 0.950 . S
C823 C822 1.397 . S
C823 C824 1.334 . S
C824 H795 0.950 . S
C824 C823 1.334 . S
C824 C825 1.287 . S
C825 C824 1.287 . S
C825 C826 1.524 . S
C825 H828 0.999 . S
C826 H796 0.950 . S
C826 C825 1.524 . S
C826 C827 1.415 . S
C827 H797 0.950 . S
C827 C822 1.363 . S
C827 C826 1.415 . S
H828 C825 0.999 . S
H829 C810 0.913 . S
H830 C848 0.951 . S
H831 C850 0.951 . S
H832 C852 0.950 . S
H833 C853 0.950 . S
H834 C855 0.950 . S
H835 C858 0.950 . S
H836 C859 0.950 . S
H837 C861 0.950 . S
H838 C862 0.950 . S
H839 C863 0.951 . S
H840 C865 0.951 . S
H841 C867 0.950 . S
H842 C868 0.950 . S
H843 C870 0.950 . S
H844 C873 0.950 . S
H845 C874 0.950 . S
H846 C876 0.950 . S
H847 C877 0.950 . S
C848 H830 0.951 . S
C848 C849 1.366 . S
C848 C850 1.388 . S
C849 C848 1.366 . S
C849 C853 1.385 . S
C850 H831 0.951 . S
C850 C848 1.388 . S
C850 C851 1.366 . S
C851 C850 1.366 . S
C851 C852 1.414 . S
C851 C854 1.499 . S
C852 H832 0.950 . S
C852 C851 1.414 . S
C852 C853 1.374 . S
C853 H833 0.950 . S
C853 C849 1.385 . S
C853 C852 1.374 . S
C854 C851 1.499 . S
C854 C855 1.373 . S
C854 C856 1.389 . S
C855 H834 0.950 . S
C855 C854 1.373 . S
C855 C871 1.377 . S
C856 C854 1.389 . S
C856 C857 1.524 . S
C856 C870 1.377 . S
C857 C856 1.524 . S
C857 C858 1.397 . S
C857 C862 1.363 . S
C858 H835 0.950 . S
C858 C857 1.397 . S
C858 C859 1.334 . S
C859 H836 0.950 . S
C859 C858 1.334 . S
C859 C860 1.287 . S
C860 C859 1.287 . S
C860 C861 1.524 . S
C860 H879 0.913 . S
C861 H837 0.950 . S
C861 C860 1.524 . S
C861 C862 1.415 . S
C862 H838 0.950 . S
C862 C857 1.363 . S
C862 C861 1.415 . S
C863 H839 0.951 . S
C863 C864 1.366 . S
C863 C865 1.388 . S
C864 C863 1.366 . S
C864 C868 1.385 . S
C865 H840 0.951 . S
C865 C863 1.388 . S
C865 C866 1.366 . S
C866 C865 1.366 . S
C866 C867 1.414 . S
C866 C869 1.499 . S
C867 H841 0.950 . S
C867 C866 1.414 . S
C867 C868 1.374 . S
C868 H842 0.950 . S
C868 C864 1.385 . S
C868 C867 1.374 . S
C869 C866 1.499 . S
C869 C870 1.373 . S
C869 C871 1.389 . S
C870 H843 0.950 . S
C870 C856 1.377 . S
C870 C869 1.373 . S
C871 C855 1.377 . S
C871 C869 1.389 . S
C871 C872 1.524 . S
C872 C871 1.524 . S
C872 C873 1.397 . S
C872 C877 1.363 . S
C873 H844 0.950 . S
C873 C872 1.397 . S
C873 C874 1.334 . S
C874 H845 0.950 . S
C874 C873 1.334 . S
C874 C875 1.287 . S
C875 C874 1.287 . S
C875 C876 1.524 . S
C875 H878 0.999 . S
C876 H846 0.950 . S
C876 C875 1.524 . S
C876 C877 1.415 . S
C877 H847 0.950 . S
C877 C872 1.363 . S
C877 C876 1.415 . S
H878 C875 0.999 . S
H879 C860 0.913 . S
H880 C898 0.951 . S
H881 C900 0.951 . S
H882 C902 0.950 . S
H883 C903 0.950 . S
H884 C905 0.950 . S
H885 C908 0.950 . S
H886 C909 0.950 . S
H887 C911 0.950 . S
H888 C912 0.950 . S
H889 C913 0.951 . S
H890 C915 0.951 . S
H891 C917 0.950 . S
H892 C918 0.950 . S
H893 C920 0.950 . S
H894 C923 0.950 . S
H895 C924 0.950 . S
H896 C926 0.950 . S
H897 C927 0.950 . S
C898 H880 0.951 . S
C898 C899 1.366 . S
C898 C900 1.388 . S
C899 C898 1.366 . S
C899 C903 1.385 . S
C900 H881 0.951 . S
C900 C898 1.388 . S
C900 C901 1.366 . S
C901 C900 1.366 . S
C901 C902 1.414 . S
C901 C904 1.499 . S
C902 H882 0.950 . S
C902 C901 1.414 . S
C902 C903 1.374 . S
C903 H883 0.950 . S
C903 C899 1.385 . S
C903 C902 1.374 . S
C904 C901 1.499 . S
C904 C905 1.373 . S
C904 C906 1.389 . S
C905 H884 0.950 . S
C905 C904 1.373 . S
C905 C921 1.377 . S
C906 C904 1.389 . S
C906 C907 1.524 . S
C906 C920 1.377 . S
C907 C906 1.524 . S
C907 C908 1.397 . S
C907 C912 1.363 . S
C908 H885 0.950 . S
C908 C907 1.397 . S
C908 C909 1.334 . S
C909 H886 0.950 . S
C909 C908 1.334 . S
C909 C910 1.287 . S
C910 C909 1.287 . S
C910 C911 1.524 . S
C910 H929 0.913 . S
C911 H887 0.950 . S
C911 C910 1.524 . S
C911 C912 1.415 . S
C912 H888 0.950 . S
C912 C907 1.363 . S
C912 C911 1.415 . S
C913 H889 0.951 . S
C913 C914 1.366 . S
C913 C915 1.388 . S
C914 C913 1.366 . S
C914 C918 1.385 . S
C915 H890 0.951 . S
C915 C913 1.388 . S
C915 C916 1.366 . S
C916 C915 1.366 . S
C916 C917 1.414 . S
C916 C919 1.499 . S
C917 H891 0.950 . S
C917 C916 1.414 . S
C917 C918 1.374 . S
C918 H892 0.950 . S
C918 C914 1.385 . S
C918 C917 1.374 . S
C919 C916 1.499 . S
C919 C920 1.373 . S
C919 C921 1.389 . S
C920 H893 0.950 . S
C920 C906 1.377 . S
C920 C919 1.373 . S
C921 C905 1.377 . S
C921 C919 1.389 . S
C921 C922 1.524 . S
C922 C921 1.524 . S
C922 C923 1.397 . S
C922 C927 1.363 . S
C923 H894 0.950 . S
C923 C922 1.397 . S
C923 C924 1.334 . S
C924 H895 0.950 . S
C924 C923 1.334 . S
C924 C925 1.287 . S
C925 C924 1.287 . S
C925 C926 1.524 . S
C925 H928 0.999 . S
C926 H896 0.950 . S
C926 C925 1.524 . S
C926 C927 1.415 . S
C927 H897 0.950 . S
C927 C922 1.363 . S
C927 C926 1.415 . S
H928 C925 0.999 . S
H929 C910 0.913 . S
H930 C948 0.951 . S
H931 C950 0.951 . S
H932 C952 0.950 . S
H933 C953 0.950 . S
H934 C955 0.950 . S
H935 C958 0.950 . S
H936 C959 0.950 . S
H937 C961 0.950 . S
H938 C962 0.950 . S
H939 C963 0.951 . S
H940 C965 0.951 . S
H941 C967 0.950 . S
H942 C968 0.950 . S
H943 C970 0.950 . S
H944 C973 0.950 . S
H945 C974 0.950 . S
H946 C976 0.950 . S
H947 C977 0.950 . S
C948 H930 0.951 . S
C948 C949 1.366 . S
C948 C950 1.388 . S
C949 C948 1.366 . S
C949 C953 1.385 . S
C950 H931 0.951 . S
C950 C948 1.388 . S
C950 C951 1.366 . S
C951 C950 1.366 . S
C951 C952 1.414 . S
C951 C954 1.499 . S
C952 H932 0.950 . S
C952 C951 1.414 . S
C952 C953 1.374 . S
C953 H933 0.950 . S
C953 C949 1.385 . S
C953 C952 1.374 . S
C954 C951 1.499 . S
C954 C955 1.373 . S
C954 C956 1.389 . S
C955 H934 0.950 . S
C955 C954 1.373 . S
C955 C971 1.377 1_556 S
C956 C954 1.389 . S
C956 C957 1.524 . S
C956 C970 1.377 1_556 S
C957 C956 1.524 . S
C957 C958 1.397 . S
C957 C962 1.363 1_556 S
C958 H935 0.950 . S
C958 C957 1.397 . S
C958 C959 1.334 . S
C959 H936 0.950 . S
C959 C958 1.334 . S
C959 C960 1.287 . S
C960 C959 1.287 . S
C960 C961 1.524 1_556 S
C960 H979 0.913 . S
C961 H937 0.950 . S
C961 C960 1.524 1_554 S
C961 C962 1.415 . S
C962 H938 0.950 . S
C962 C957 1.363 1_554 S
C962 C961 1.415 . S
C963 H939 0.951 . S
C963 C964 1.366 . S
C963 C965 1.388 . S
C964 C963 1.366 . S
C964 C968 1.385 . S
C965 H940 0.951 . S
C965 C963 1.388 . S
C965 C966 1.366 . S
C966 C965 1.366 . S
C966 C967 1.414 . S
C966 C969 1.499 . S
C967 H941 0.950 . S
C967 C966 1.414 . S
C967 C968 1.374 . S
C968 H942 0.950 . S
C968 C964 1.385 . S
C968 C967 1.374 . S
C969 C966 1.499 . S
C969 C970 1.373 . S
C969 C971 1.389 . S
C970 H943 0.950 . S
C970 C956 1.377 1_554 S
C970 C969 1.373 . S
C971 C955 1.377 1_554 S
C971 C969 1.389 . S
C971 C972 1.524 . S
C972 C971 1.524 . S
C972 C973 1.397 . S
C972 C977 1.363 1_554 S
C973 H944 0.950 . S
C973 C972 1.397 . S
C973 C974 1.334 . S
C974 H945 0.950 . S
C974 C973 1.334 . S
C974 C975 1.287 . S
C975 C974 1.287 . S
C975 C976 1.524 1_554 S
C975 H978 0.999 . S
C976 H946 0.950 . S
C976 C975 1.524 1_556 S
C976 C977 1.415 . S
C977 H947 0.950 . S
C977 C972 1.363 1_556 S
C977 C976 1.415 . S
H978 C975 0.999 . S
H979 C960 0.913 . S
H980 C998 0.951 . S
H981 C1000 0.951 . S
H982 C1002 0.950 . S
H983 C1003 0.950 . S
H984 C1005 0.950 . S
H985 C1008 0.950 . S
H986 C1009 0.950 . S
H987 C1011 0.950 . S
H988 C1012 0.950 . S
H989 C1013 0.951 . S
H990 C1015 0.951 . S
H991 C1017 0.950 . S
H992 C1018 0.950 . S
H993 C1020 0.950 . S
H994 C1023 0.950 . S
H995 C1024 0.950 . S
H996 C1026 0.950 . S
H997 C1027 0.950 . S
C998 H980 0.951 . S
C998 C999 1.366 . S
C998 C1000 1.388 . S
C999 C998 1.366 . S
C999 C1003 1.385 . S
C1000 H981 0.951 . S
C1000 C998 1.388 . S
C1000 C1001 1.366 . S
C1001 C1000 1.366 . S
C1001 C1002 1.414 . S
C1001 C1004 1.499 . S
C1002 H982 0.950 . S
C1002 C1001 1.414 . S
C1002 C1003 1.374 . S
C1003 H983 0.950 . S
C1003 C999 1.385 . S
C1003 C1002 1.374 . S
C1004 C1001 1.499 . S
C1004 C1005 1.373 . S
C1004 C1006 1.389 . S
C1005 H984 0.950 . S
C1005 C1004 1.373 . S
C1005 C1021 1.377 . S
C1006 C1004 1.389 . S
C1006 C1007 1.524 . S
C1006 C1020 1.377 . S
C1007 C1006 1.524 . S
C1007 C1008 1.397 . S
C1007 C1012 1.363 . S
C1008 H985 0.950 . S
C1008 C1007 1.397 . S
C1008 C1009 1.334 . S
C1009 H986 0.950 . S
C1009 C1008 1.334 . S
C1009 C1010 1.287 . S
C1010 C1009 1.287 . S
C1010 C1011 1.524 . S
C1010 H1029 0.913 . S
C1011 H987 0.950 . S
C1011 C1010 1.524 . S
C1011 C1012 1.415 . S
C1012 H988 0.950 . S
C1012 C1007 1.363 . S
C1012 C1011 1.415 . S
C1013 H989 0.951 . S
C1013 C1014 1.366 . S
C1013 C1015 1.388 . S
C1014 C1013 1.366 . S
C1014 C1018 1.385 . S
C1015 H990 0.951 . S
C1015 C1013 1.388 . S
C1015 C1016 1.366 . S
C1016 C1015 1.366 . S
C1016 C1017 1.414 . S
C1016 C1019 1.499 . S
C1017 H991 0.950 . S
C1017 C1016 1.414 . S
C1017 C1018 1.374 . S
C1018 H992 0.950 . S
C1018 C1014 1.385 . S
C1018 C1017 1.374 . S
C1019 C1016 1.499 . S
C1019 C1020 1.373 . S
C1019 C1021 1.389 . S
C1020 H993 0.950 . S
C1020 C1006 1.377 . S
C1020 C1019 1.373 . S
C1021 C1005 1.377 . S
C1021 C1019 1.389 . S
C1021 C1022 1.524 . S
C1022 C1021 1.524 . S
C1022 C1023 1.397 . S
C1022 C1027 1.363 . S
C1023 H994 0.950 . S
C1023 C1022 1.397 . S
C1023 C1024 1.334 . S
C1024 H995 0.950 . S
C1024 C1023 1.334 . S
C1024 C1025 1.287 . S
C1025 C1024 1.287 . S
C1025 C1026 1.524 . S
C1025 H1028 0.999 . S
C1026 H996 0.950 . S
C1026 C1025 1.524 . S
C1026 C1027 1.415 . S
C1027 H997 0.950 . S
C1027 C1022 1.363 . S
C1027 C1026 1.415 . S
H1028 C1025 0.999 . S
H1029 C1010 0.913 . S
H1030 C1048 0.951 . S
H1031 C1050 0.951 . S
H1032 C1052 0.950 . S
H1033 C1053 0.950 . S
H1034 C1055 0.950 . S
H1035 C1058 0.950 . S
H1036 C1059 0.950 . S
H1037 C1061 0.950 . S
H1038 C1062 0.950 . S
H1039 C1063 0.951 . S
H1040 C1065 0.951 . S
H1041 C1067 0.950 . S
H1042 C1068 0.950 . S
H1043 C1070 0.950 . S
H1044 C1073 0.950 . S
H1045 C1074 0.950 . S
H1046 C1076 0.950 . S
H1047 C1077 0.950 . S
C1048 H1030 0.951 . S
C1048 C1049 1.366 . S
C1048 C1050 1.388 . S
C1049 C1048 1.366 . S
C1049 C1053 1.385 . S
C1050 H1031 0.951 . S
C1050 C1048 1.388 . S
C1050 C1051 1.366 . S
C1051 C1050 1.366 . S
C1051 C1052 1.414 . S
C1051 C1054 1.499 . S
C1052 H1032 0.950 . S
C1052 C1051 1.414 . S
C1052 C1053 1.374 . S
C1053 H1033 0.950 . S
C1053 C1049 1.385 . S
C1053 C1052 1.374 . S
C1054 C1051 1.499 . S
C1054 C1055 1.373 . S
C1054 C1056 1.389 . S
C1055 H1034 0.950 . S
C1055 C1054 1.373 . S
C1055 C1071 1.377 . S
C1056 C1054 1.389 . S
C1056 C1057 1.524 . S
C1056 C1070 1.377 . S
C1057 C1056 1.524 . S
C1057 C1058 1.397 . S
C1057 C1062 1.363 . S
C1058 H1035 0.950 . S
C1058 C1057 1.397 . S
C1058 C1059 1.334 . S
C1059 H1036 0.950 . S
C1059 C1058 1.334 . S
C1059 C1060 1.287 . S
C1060 C1059 1.287 . S
C1060 C1061 1.524 . S
C1060 H1079 0.913 . S
C1061 H1037 0.950 . S
C1061 C1060 1.524 . S
C1061 C1062 1.415 . S
C1062 H1038 0.950 . S
C1062 C1057 1.363 . S
C1062 C1061 1.415 . S
C1063 H1039 0.951 . S
C1063 C1064 1.366 . S
C1063 C1065 1.388 . S
C1064 C1063 1.366 . S
C1064 C1068 1.385 . S
C1065 H1040 0.951 . S
C1065 C1063 1.388 . S
C1065 C1066 1.366 . S
C1066 C1065 1.366 . S
C1066 C1067 1.414 . S
C1066 C1069 1.499 . S
C1067 H1041 0.950 . S
C1067 C1066 1.414 . S
C1067 C1068 1.374 . S
C1068 H1042 0.950 . S
C1068 C1064 1.385 . S
C1068 C1067 1.374 . S
C1069 C1066 1.499 . S
C1069 C1070 1.373 . S
C1069 C1071 1.389 . S
C1070 H1043 0.950 . S
C1070 C1056 1.377 . S
C1070 C1069 1.373 . S
C1071 C1055 1.377 . S
C1071 C1069 1.389 . S
C1071 C1072 1.524 . S
C1072 C1071 1.524 . S
C1072 C1073 1.397 . S
C1072 C1077 1.363 . S
C1073 H1044 0.950 . S
C1073 C1072 1.397 . S
C1073 C1074 1.334 . S
C1074 H1045 0.950 . S
C1074 C1073 1.334 . S
C1074 C1075 1.287 . S
C1075 C1074 1.287 . S
C1075 C1076 1.524 . S
C1075 H1078 0.999 . S
C1076 H1046 0.950 . S
C1076 C1075 1.524 . S
C1076 C1077 1.415 . S
C1077 H1047 0.950 . S
C1077 C1072 1.363 . S
C1077 C1076 1.415 . S
H1078 C1075 0.999 . S
H1079 C1060 0.913 . S
H1080 C1098 0.951 . S
H1081 C1100 0.951 1_545 S
H1082 C1102 0.950 . S
H1083 C1103 0.950 . S
H1084 C1105 0.950 . S
H1085 C1108 0.950 . S
H1086 C1109 0.950 . S
H1087 C1111 0.950 . S
H1088 C1112 0.950 . S
H1089 C1113 0.951 . S
H1090 C1115 0.951 1_565 S
H1091 C1117 0.950 . S
H1092 C1118 0.950 . S
H1093 C1120 0.950 . S
H1094 C1123 0.950 . S
H1095 C1124 0.950 . S
H1096 C1126 0.950 . S
H1097 C1127 0.950 . S
C1098 H1080 0.951 . S
C1098 C1099 1.366 . S
C1098 C1100 1.388 . S
C1099 C1098 1.366 . S
C1099 C1103 1.385 . S
C1100 H1081 0.951 1_565 S
C1100 C1098 1.388 . S
C1100 C1101 1.366 . S
C1101 C1100 1.366 . S
C1101 C1102 1.414 . S
C1101 C1104 1.499 . S
C1102 H1082 0.950 . S
C1102 C1101 1.414 . S
C1102 C1103 1.374 . S
C1103 H1083 0.950 . S
C1103 C1099 1.385 . S
C1103 C1102 1.374 . S
C1104 C1101 1.499 . S
C1104 C1105 1.373 . S
C1104 C1106 1.389 1_565 S
C1105 H1084 0.950 . S
C1105 C1104 1.373 . S
C1105 C1121 1.377 1_556 S
C1106 C1104 1.389 1_545 S
C1106 C1107 1.524 . S
C1106 C1120 1.377 1_556 S
C1107 C1106 1.524 . S
C1107 C1108 1.397 . S
C1107 C1112 1.363 . S
C1108 H1085 0.950 . S
C1108 C1107 1.397 . S
C1108 C1109 1.334 . S
C1109 H1086 0.950 . S
C1109 C1108 1.334 . S
C1109 C1110 1.287 . S
C1110 C1109 1.287 . S
C1110 C1111 1.524 . S
C1110 H1129 0.913 . S
C1111 H1087 0.950 . S
C1111 C1110 1.524 . S
C1111 C1112 1.415 . S
C1112 H1088 0.950 . S
C1112 C1107 1.363 . S
C1112 C1111 1.415 . S
C1113 H1089 0.951 . S
C1113 C1114 1.366 . S
C1113 C1115 1.388 . S
C1114 C1113 1.366 . S
C1114 C1118 1.385 . S
C1115 H1090 0.951 1_545 S
C1115 C1113 1.388 . S
C1115 C1116 1.366 . S
C1116 C1115 1.366 . S
C1116 C1117 1.414 . S
C1116 C1119 1.499 . S
C1117 H1091 0.950 . S
C1117 C1116 1.414 . S
C1117 C1118 1.374 . S
C1118 H1092 0.950 . S
C1118 C1114 1.385 . S
C1118 C1117 1.374 . S
C1119 C1116 1.499 . S
C1119 C1120 1.373 . S
C1119 C1121 1.389 1_545 S
C1120 H1093 0.950 . S
C1120 C1106 1.377 1_554 S
C1120 C1119 1.373 . S
C1121 C1105 1.377 1_554 S
C1121 C1119 1.389 1_565 S
C1121 C1122 1.524 . S
C1122 C1121 1.524 . S
C1122 C1123 1.397 . S
C1122 C1127 1.363 . S
C1123 H1094 0.950 . S
C1123 C1122 1.397 . S
C1123 C1124 1.334 . S
C1124 H1095 0.950 . S
C1124 C1123 1.334 . S
C1124 C1125 1.287 . S
C1125 C1124 1.287 . S
C1125 C1126 1.524 . S
C1125 H1128 0.999 . S
C1126 H1096 0.950 . S
C1126 C1125 1.524 . S
C1126 C1127 1.415 . S
C1127 H1097 0.950 . S
C1127 C1122 1.363 . S
C1127 C1126 1.415 . S
H1128 C1125 0.999 . S
H1129 C1110 0.913 . S
H1130 C1148 0.951 . S
H1131 C1150 0.951 . S
H1132 C1152 0.950 . S
H1133 C1153 0.950 . S
H1134 C1155 0.950 . S
H1135 C1158 0.950 . S
H1136 C1159 0.950 . S
H1137 C1161 0.950 . S
H1138 C1162 0.950 . S
H1139 C1163 0.951 . S
H1140 C1165 0.951 . S
H1141 C1167 0.950 . S
H1142 C1168 0.950 . S
H1143 C1170 0.950 . S
H1144 C1173 0.950 . S
H1145 C1174 0.950 . S
H1146 C1176 0.950 . S
H1147 C1177 0.950 . S
C1148 H1130 0.951 . S
C1148 C1149 1.366 . S
C1148 C1150 1.388 . S
C1149 C1148 1.366 . S
C1149 C1153 1.385 . S
C1150 H1131 0.951 . S
C1150 C1148 1.388 . S
C1150 C1151 1.366 . S
C1151 C1150 1.366 . S
C1151 C1152 1.414 . S
C1151 C1154 1.499 . S
C1152 H1132 0.950 . S
C1152 C1151 1.414 . S
C1152 C1153 1.374 . S
C1153 H1133 0.950 . S
C1153 C1149 1.385 . S
C1153 C1152 1.374 . S
C1154 C1151 1.499 . S
C1154 C1155 1.373 . S
C1154 C1156 1.389 . S
C1155 H1134 0.950 . S
C1155 C1154 1.373 . S
C1155 C1171 1.377 . S
C1156 C1154 1.389 . S
C1156 C1157 1.524 . S
C1156 C1170 1.377 . S
C1157 C1156 1.524 . S
C1157 C1158 1.397 . S
C1157 C1162 1.363 . S
C1158 H1135 0.950 . S
C1158 C1157 1.397 . S
C1158 C1159 1.334 . S
C1159 H1136 0.950 . S
C1159 C1158 1.334 . S
C1159 C1160 1.287 . S
C1160 C1159 1.287 . S
C1160 C1161 1.524 . S
C1160 H1179 0.913 . S
C1161 H1137 0.950 . S
C1161 C1160 1.524 . S
C1161 C1162 1.415 . S
C1162 H1138 0.950 . S
C1162 C1157 1.363 . S
C1162 C1161 1.415 . S
C1163 H1139 0.951 . S
C1163 C1164 1.366 . S
C1163 C1165 1.388 . S
C1164 C1163 1.366 . S
C1164 C1168 1.385 . S
C1165 H1140 0.951 . S
C1165 C1163 1.388 . S
C1165 C1166 1.366 . S
C1166 C1165 1.366 . S
C1166 C1167 1.414 . S
C1166 C1169 1.499 . S
C1167 H1141 0.950 . S
C1167 C1166 1.414 . S
C1167 C1168 1.374 . S
C1168 H1142 0.950 . S
C1168 C1164 1.385 . S
C1168 C1167 1.374 . S
C1169 C1166 1.499 . S
C1169 C1170 1.373 . S
C1169 C1171 1.389 . S
C1170 H1143 0.950 . S
C1170 C1156 1.377 . S
C1170 C1169 1.373 . S
C1171 C1155 1.377 . S
C1171 C1169 1.389 . S
C1171 C1172 1.524 . S
C1172 C1171 1.524 . S
C1172 C1173 1.397 . S
C1172 C1177 1.363 . S
C1173 H1144 0.950 . S
C1173 C1172 1.397 . S
C1173 C1174 1.334 . S
C1174 H1145 0.950 . S
C1174 C1173 1.334 . S
C1174 C1175 1.287 . S
C1175 C1174 1.287 . S
C1175 C1176 1.524 . S
C1175 H1178 0.999 . S
C1176 H1146 0.950 . S
C1176 C1175 1.524 . S
C1176 C1177 1.415 . S
C1177 H1147 0.950 . S
C1177 C1172 1.363 . S
C1177 C1176 1.415 . S
H1178 C1175 0.999 . S
H1179 C1160 0.913 . S
H1180 C1198 0.951 . S
H1181 C1200 0.951 . S
H1182 C1202 0.950 . S
H1183 C1203 0.950 . S
H1184 C1205 0.950 . S
H1185 C1208 0.950 . S
H1186 C1209 0.950 . S
H1187 C1211 0.950 . S
H1188 C1212 0.950 . S
H1189 C1213 0.951 . S
H1190 C1215 0.951 . S
H1191 C1217 0.950 . S
H1192 C1218 0.950 . S
H1193 C1220 0.950 . S
H1194 C1223 0.950 . S
H1195 C1224 0.950 . S
H1196 C1226 0.950 . S
H1197 C1227 0.950 . S
C1198 H1180 0.951 . S
C1198 C1199 1.366 . S
C1198 C1200 1.388 . S
C1199 C1198 1.366 . S
C1199 C1203 1.385 . S
C1200 H1181 0.951 . S
C1200 C1198 1.388 . S
C1200 C1201 1.366 . S
C1201 C1200 1.366 . S
C1201 C1202 1.414 . S
C1201 C1204 1.499 . S
C1202 H1182 0.950 . S
C1202 C1201 1.414 . S
C1202 C1203 1.374 . S
C1203 H1183 0.950 . S
C1203 C1199 1.385 . S
C1203 C1202 1.374 . S
C1204 C1201 1.499 . S
C1204 C1205 1.373 . S
C1204 C1206 1.389 . S
C1205 H1184 0.950 . S
C1205 C1204 1.373 . S
C1205 C1221 1.377 1_455 S
C1206 C1204 1.389 . S
C1206 C1207 1.524 . S
C1206 C1220 1.377 1_455 S
C1207 C1206 1.524 . S
C1207 C1208 1.397 1_455 S
C1207 C1212 1.363 . S
C1208 H1185 0.950 . S
C1208 C1207 1.397 1_655 S
C1208 C1209 1.334 . S
C1209 H1186 0.950 . S
C1209 C1208 1.334 . S
C1209 C1210 1.287 1_655 S
C1210 C1209 1.287 1_455 S
C1210 C1211 1.524 . S
C1210 H1229 0.913 . S
C1211 H1187 0.950 . S
C1211 C1210 1.524 . S
C1211 C1212 1.415 . S
C1212 H1188 0.950 . S
C1212 C1207 1.363 . S
C1212 C1211 1.415 . S
C1213 H1189 0.951 . S
C1213 C1214 1.366 . S
C1213 C1215 1.388 . S
C1214 C1213 1.366 . S
C1214 C1218 1.385 . S
C1215 H1190 0.951 . S
C1215 C1213 1.388 . S
C1215 C1216 1.366 . S
C1216 C1215 1.366 . S
C1216 C1217 1.414 . S
C1216 C1219 1.499 . S
C1217 H1191 0.950 . S
C1217 C1216 1.414 . S
C1217 C1218 1.374 . S
C1218 H1192 0.950 . S
C1218 C1214 1.385 . S
C1218 C1217 1.374 . S
C1219 C1216 1.499 . S
C1219 C1220 1.373 . S
C1219 C1221 1.389 . S
C1220 H1193 0.950 . S
C1220 C1206 1.377 1_655 S
C1220 C1219 1.373 . S
C1221 C1205 1.377 1_655 S
C1221 C1219 1.389 . S
C1221 C1222 1.524 . S
C1222 C1221 1.524 . S
C1222 C1223 1.397 1_655 S
C1222 C1227 1.363 . S
C1223 H1194 0.950 . S
C1223 C1222 1.397 1_455 S
C1223 C1224 1.334 . S
C1224 H1195 0.950 . S
C1224 C1223 1.334 . S
C1224 C1225 1.287 1_455 S
C1225 C1224 1.287 1_655 S
C1225 C1226 1.524 . S
C1225 H1228 0.999 . S
C1226 H1196 0.950 . S
C1226 C1225 1.524 . S
C1226 C1227 1.415 . S
C1227 H1197 0.950 . S
C1227 C1222 1.363 . S
C1227 C1226 1.415 . S
H1228 C1225 0.999 . S
H1229 C1210 0.913 . S
H1230 C1248 0.951 . S
H1231 C1250 0.951 . S
H1232 C1252 0.950 . S
H1233 C1253 0.950 . S
H1234 C1255 0.950 . S
H1235 C1258 0.950 . S
H1236 C1259 0.950 . S
H1237 C1261 0.950 . S
H1238 C1262 0.950 . S
H1239 C1263 0.951 . S
H1240 C1265 0.951 . S
H1241 C1267 0.950 . S
H1242 C1268 0.950 . S
H1243 C1270 0.950 . S
H1244 C1273 0.950 . S
H1245 C1274 0.950 . S
H1246 C1276 0.950 . S
H1247 C1277 0.950 . S
C1248 H1230 0.951 . S
C1248 C1249 1.366 . S
C1248 C1250 1.388 . S
C1249 C1248 1.366 . S
C1249 C1253 1.385 . S
C1250 H1231 0.951 . S
C1250 C1248 1.388 . S
C1250 C1251 1.366 . S
C1251 C1250 1.366 . S
C1251 C1252 1.414 . S
C1251 C1254 1.499 . S
C1252 H1232 0.950 . S
C1252 C1251 1.414 . S
C1252 C1253 1.374 . S
C1253 H1233 0.950 . S
C1253 C1249 1.385 . S
C1253 C1252 1.374 . S
C1254 C1251 1.499 . S
C1254 C1255 1.373 1_565 S
C1254 C1256 1.389 . S
C1255 H1234 0.950 . S
C1255 C1254 1.373 1_545 S
C1255 C1271 1.377 1_554 S
C1256 C1254 1.389 . S
C1256 C1257 1.524 . S
C1256 C1270 1.377 1_554 S
C1257 C1256 1.524 . S
C1257 C1258 1.397 . S
C1257 C1262 1.363 1_554 S
C1258 H1235 0.950 . S
C1258 C1257 1.397 . S
C1258 C1259 1.334 . S
C1259 H1236 0.950 . S
C1259 C1258 1.334 . S
C1259 C1260 1.287 . S
C1260 C1259 1.287 . S
C1260 C1261 1.524 1_554 S
C1260 H1279 0.913 . S
C1261 H1237 0.950 . S
C1261 C1260 1.524 1_556 S
C1261 C1262 1.415 . S
C1262 H1238 0.950 . S
C1262 C1257 1.363 1_556 S
C1262 C1261 1.415 . S
C1263 H1239 0.951 . S
C1263 C1264 1.366 . S
C1263 C1265 1.388 . S
C1264 C1263 1.366 . S
C1264 C1268 1.385 . S
C1265 H1240 0.951 . S
C1265 C1263 1.388 . S
C1265 C1266 1.366 . S
C1266 C1265 1.366 . S
C1266 C1267 1.414 . S
C1266 C1269 1.499 . S
C1267 H1241 0.950 . S
C1267 C1266 1.414 . S
C1267 C1268 1.374 . S
C1268 H1242 0.950 . S
C1268 C1264 1.385 . S
C1268 C1267 1.374 . S
C1269 C1266 1.499 . S
C1269 C1270 1.373 1_545 S
C1269 C1271 1.389 . S
C1270 H1243 0.950 . S
C1270 C1256 1.377 1_556 S
C1270 C1269 1.373 1_565 S
C1271 C1255 1.377 1_556 S
C1271 C1269 1.389 . S
C1271 C1272 1.524 . S
C1272 C1271 1.524 . S
C1272 C1273 1.397 . S
C1272 C1277 1.363 1_556 S
C1273 H1244 0.950 . S
C1273 C1272 1.397 . S
C1273 C1274 1.334 . S
C1274 H1245 0.950 . S
C1274 C1273 1.334 . S
C1274 C1275 1.287 . S
C1275 C1274 1.287 . S
C1275 C1276 1.524 1_556 S
C1275 H1278 1.000 . S
C1276 H1246 0.950 . S
C1276 C1275 1.524 1_554 S
C1276 C1277 1.415 . S
C1277 H1247 0.950 . S
C1277 C1272 1.363 1_554 S
C1277 C1276 1.415 . S
H1278 C1275 1.000 . S
H1279 C1260 0.913 . S
H1280 C1298 0.951 . S
H1281 C1300 0.951 . S
H1282 C1302 0.950 . S
H1283 C1303 0.950 . S
H1284 C1305 0.950 . S
H1285 C1308 0.950 . S
H1286 C1309 0.950 . S
H1287 C1311 0.950 . S
H1288 C1312 0.950 . S
H1289 C1313 0.951 . S
H1290 C1315 0.951 . S
H1291 C1317 0.950 . S
H1292 C1318 0.950 . S
H1293 C1320 0.950 . S
H1294 C1323 0.950 . S
H1295 C1324 0.950 . S
H1296 C1326 0.950 . S
H1297 C1327 0.950 . S
C1298 H1280 0.951 . S
C1298 C1299 1.366 . S
C1298 C1300 1.388 . S
C1299 C1298 1.366 . S
C1299 C1303 1.385 . S
C1300 H1281 0.951 . S
C1300 C1298 1.388 . S
C1300 C1301 1.366 . S
C1301 C1300 1.366 . S
C1301 C1302 1.414 . S
C1301 C1304 1.499 . S
C1302 H1282 0.950 . S
C1302 C1301 1.414 . S
C1302 C1303 1.374 . S
C1303 H1283 0.950 . S
C1303 C1299 1.385 . S
C1303 C1302 1.374 . S
C1304 C1301 1.499 . S
C1304 C1305 1.373 . S
C1304 C1306 1.389 . S
C1305 H1284 0.950 . S
C1305 C1304 1.373 . S
C1305 C1321 1.377 . S
C1306 C1304 1.389 . S
C1306 C1307 1.524 . S
C1306 C1320 1.377 . S
C1307 C1306 1.524 . S
C1307 C1308 1.397 . S
C1307 C1312 1.363 . S
C1308 H1285 0.950 . S
C1308 C1307 1.397 . S
C1308 C1309 1.334 . S
C1309 H1286 0.950 . S
C1309 C1308 1.334 . S
C1309 C1310 1.287 . S
C1310 C1309 1.287 . S
C1310 C1311 1.524 . S
C1310 H1329 0.913 . S
C1311 H1287 0.950 . S
C1311 C1310 1.524 . S
C1311 C1312 1.415 . S
C1312 H1288 0.950 . S
C1312 C1307 1.363 . S
C1312 C1311 1.415 . S
C1313 H1289 0.951 . S
C1313 C1314 1.366 . S
C1313 C1315 1.388 . S
C1314 C1313 1.366 . S
C1314 C1318 1.385 . S
C1315 H1290 0.951 . S
C1315 C1313 1.388 . S
C1315 C1316 1.366 . S
C1316 C1315 1.366 . S
C1316 C1317 1.414 . S
C1316 C1319 1.499 . S
C1317 H1291 0.950 . S
C1317 C1316 1.414 . S
C1317 C1318 1.374 . S
C1318 H1292 0.950 . S
C1318 C1314 1.385 . S
C1318 C1317 1.374 . S
C1319 C1316 1.499 . S
C1319 C1320 1.373 . S
C1319 C1321 1.389 . S
C1320 H1293 0.950 . S
C1320 C1306 1.377 . S
C1320 C1319 1.373 . S
C1321 C1305 1.377 . S
C1321 C1319 1.389 . S
C1321 C1322 1.524 . S
C1322 C1321 1.524 . S
C1322 C1323 1.397 . S
C1322 C1327 1.363 . S
C1323 H1294 0.950 . S
C1323 C1322 1.397 . S
C1323 C1324 1.334 . S
C1324 H1295 0.950 . S
C1324 C1323 1.334 . S
C1324 C1325 1.287 . S
C1325 C1324 1.287 . S
C1325 C1326 1.524 . S
C1325 H1328 0.999 . S
C1326 H1296 0.950 . S
C1326 C1325 1.524 . S
C1326 C1327 1.415 . S
C1327 H1297 0.950 . S
C1327 C1322 1.363 . S
C1327 C1326 1.415 . S
H1328 C1325 0.999 . S
H1329 C1310 0.913 . S
H1330 C1348 0.951 . S
H1331 C1350 0.951 . S
H1332 C1352 0.950 . S
H1333 C1353 0.950 . S
H1334 C1355 0.954 . S
H1335 C1358 0.950 . S
H1336 C1359 0.950 . S
H1337 C1361 0.950 . S
H1338 C1362 0.995 . S
H1339 C1363 0.951 . S
H1340 C1365 0.951 . S
H1341 C1367 0.950 . S
H1342 C1368 0.950 . S
H1343 C1370 0.954 . S
H1344 C1373 0.950 . S
H1345 C1374 0.950 . S
H1346 C1376 0.950 . S
H1347 C1377 0.994 . S
C1348 H1330 0.951 . S
C1348 C1349 1.366 . S
C1348 C1350 1.388 . S
C1349 C1348 1.366 . S
C1349 C1353 1.385 . S
C1350 H1331 0.951 . S
C1350 C1348 1.388 . S
C1350 C1351 1.366 . S
C1351 C1350 1.366 . S
C1351 C1352 1.414 . S
C1351 C1354 1.499 . S
C1352 H1332 0.950 . S
C1352 C1351 1.414 . S
C1352 C1353 1.374 . S
C1353 H1333 0.950 . S
C1353 C1349 1.385 . S
C1353 C1352 1.374 . S
C1354 C1351 1.499 . S
C1354 C1355 1.388 . S
C1354 C1356 1.389 . S
C1355 H1334 0.954 . S
C1355 C1354 1.388 . S
C1355 C1371 1.369 1_455 S
C1356 C1354 1.389 . S
C1356 C1357 1.524 . S
C1356 C1370 1.369 1_455 S
C1357 C1356 1.524 . S
C1357 C1358 1.397 . S
C1357 C1362 1.363 . S
C1358 H1335 0.950 . S
C1358 C1357 1.397 . S
C1358 C1359 1.334 . S
C1359 H1336 0.950 . S
C1359 C1358 1.334 . S
C1359 C1360 1.287 . S
C1360 C1359 1.287 . S
C1360 C1361 1.524 . S
C1360 H1379 0.913 . S
C1361 H1337 0.950 . S
C1361 C1360 1.524 . S
C1361 C1362 1.415 . S
C1362 H1338 0.995 . S
C1362 C1357 1.363 . S
C1362 C1361 1.415 . S
C1363 H1339 0.951 . S
C1363 C1364 1.366 . S
C1363 C1365 1.388 . S
C1364 C1363 1.366 . S
C1364 C1368 1.385 . S
C1365 H1340 0.951 . S
C1365 C1363 1.388 . S
C1365 C1366 1.366 . S
C1366 C1365 1.366 . S
C1366 C1367 1.414 . S
C1366 C1369 1.499 . S
C1367 H1341 0.950 . S
C1367 C1366 1.414 . S
C1367 C1368 1.374 . S
C1368 H1342 0.950 . S
C1368 C1364 1.385 . S
C1368 C1367 1.374 . S
C1369 C1366 1.499 . S
C1369 C1370 1.387 . S
C1369 C1371 1.389 . S
C1370 H1343 0.954 . S
C1370 C1356 1.369 1_655 S
C1370 C1369 1.387 . S
C1371 C1355 1.369 1_655 S
C1371 C1369 1.389 . S
C1371 C1372 1.524 . S
C1372 C1371 1.524 . S
C1372 C1373 1.397 . S
C1372 C1377 1.363 . S
C1373 H1344 0.950 . S
C1373 C1372 1.397 . S
C1373 C1374 1.334 . S
C1374 H1345 0.950 . S
C1374 C1373 1.334 . S
C1374 C1375 1.287 . S
C1375 C1374 1.287 . S
C1375 C1376 1.524 . S
C1375 H1378 0.999 . S
C1376 H1346 0.950 . S
C1376 C1375 1.524 . S
C1376 C1377 1.415 . S
C1377 H1347 0.994 . S
C1377 C1372 1.363 . S
C1377 C1376 1.415 . S
H1378 C1375 0.999 . S
H1379 C1360 0.913 . S
H1380 C1398 0.951 . S
H1381 C1400 0.951 . S
H1382 C1402 0.950 . S
H1383 C1403 0.950 . S
H1384 C1405 0.950 . S
H1385 C1408 0.950 . S
H1386 C1409 0.950 . S
H1387 C1411 0.950 . S
H1388 C1412 0.950 . S
H1389 C1413 0.951 . S
H1390 C1415 0.951 . S
H1391 C1417 0.950 . S
H1392 C1418 0.950 . S
H1393 C1420 0.950 . S
H1394 C1423 0.950 . S
H1395 C1424 0.950 . S
H1396 C1426 0.950 . S
H1397 C1427 0.950 . S
C1398 H1380 0.951 . S
C1398 C1399 1.366 . S
C1398 C1400 1.388 . S
C1399 C1398 1.366 . S
C1399 C1403 1.385 . S
C1400 H1381 0.951 . S
C1400 C1398 1.388 . S
C1400 C1401 1.366 . S
C1401 C1400 1.366 . S
C1401 C1402 1.414 . S
C1401 C1404 1.499 . S
C1402 H1382 0.950 . S
C1402 C1401 1.414 . S
C1402 C1403 1.374 . S
C1403 H1383 0.950 . S
C1403 C1399 1.385 . S
C1403 C1402 1.374 . S
C1404 C1401 1.499 . S
C1404 C1405 1.373 1_545 S
C1404 C1406 1.389 . S
C1405 H1384 0.950 . S
C1405 C1404 1.373 1_565 S
C1405 C1421 1.377 . S
C1406 C1404 1.389 . S
C1406 C1407 1.524 . S
C1406 C1420 1.377 . S
C1407 C1406 1.524 . S
C1407 C1408 1.397 . S
C1407 C1412 1.363 . S
C1408 H1385 0.950 . S
C1408 C1407 1.397 . S
C1408 C1409 1.334 . S
C1409 H1386 0.950 . S
C1409 C1408 1.334 . S
C1409 C1410 1.287 . S
C1410 C1409 1.287 . S
C1410 C1411 1.524 . S
C1410 H1429 0.913 . S
C1411 H1387 0.950 . S
C1411 C1410 1.524 . S
C1411 C1412 1.415 . S
C1412 H1388 0.950 . S
C1412 C1407 1.363 . S
C1412 C1411 1.415 . S
C1413 H1389 0.951 . S
C1413 C1414 1.366 . S
C1413 C1415 1.388 . S
C1414 C1413 1.366 . S
C1414 C1418 1.385 . S
C1415 H1390 0.951 . S
C1415 C1413 1.388 . S
C1415 C1416 1.366 . S
C1416 C1415 1.366 . S
C1416 C1417 1.414 . S
C1416 C1419 1.499 . S
C1417 H1391 0.950 . S
C1417 C1416 1.414 . S
C1417 C1418 1.374 . S
C1418 H1392 0.950 . S
C1418 C1414 1.385 . S
C1418 C1417 1.374 . S
C1419 C1416 1.499 . S
C1419 C1420 1.373 1_565 S
C1419 C1421 1.389 . S
C1420 H1393 0.950 . S
C1420 C1406 1.377 . S
C1420 C1419 1.373 1_545 S
C1421 C1405 1.377 . S
C1421 C1419 1.389 . S
C1421 C1422 1.524 . S
C1422 C1421 1.524 . S
C1422 C1423 1.397 . S
C1422 C1427 1.363 . S
C1423 H1394 0.950 . S
C1423 C1422 1.397 . S
C1423 C1424 1.334 . S
C1424 H1395 0.950 . S
C1424 C1423 1.334 . S
C1424 C1425 1.287 . S
C1425 C1424 1.287 . S
C1425 C1426 1.524 . S
C1425 H1428 0.999 . S
C1426 H1396 0.950 . S
C1426 C1425 1.524 . S
C1426 C1427 1.415 . S
C1427 H1397 0.950 . S
C1427 C1422 1.363 . S
C1427 C1426 1.415 . S
H1428 C1425 0.999 . S
H1429 C1410 0.913 . S
H1430 C1448 0.951 . S
H1431 C1450 0.951 . S
H1432 C1452 0.950 . S
H1433 C1453 0.950 . S
H1434 C1455 0.950 . S
H1435 C1458 0.950 . S
H1436 C1459 0.950 . S
H1437 C1461 0.950 . S
H1438 C1462 0.950 . S
H1439 C1463 0.951 . S
H1440 C1465 0.951 . S
H1441 C1467 0.950 . S
H1442 C1468 0.950 . S
H1443 C1470 0.950 . S
H1444 C1473 0.950 . S
H1445 C1474 0.950 . S
H1446 C1476 0.950 . S
H1447 C1477 0.950 . S
C1448 H1430 0.951 . S
C1448 C1449 1.366 . S
C1448 C1450 1.388 . S
C1449 C1448 1.366 . S
C1449 C1453 1.385 . S
C1450 H1431 0.951 . S
C1450 C1448 1.388 . S
C1450 C1451 1.366 . S
C1451 C1450 1.366 . S
C1451 C1452 1.414 . S
C1451 C1454 1.499 . S
C1452 H1432 0.950 . S
C1452 C1451 1.414 . S
C1452 C1453 1.374 . S
C1453 H1433 0.950 . S
C1453 C1449 1.385 . S
C1453 C1452 1.374 . S
C1454 C1451 1.499 . S
C1454 C1455 1.373 . S
C1454 C1456 1.389 . S
C1455 H1434 0.950 . S
C1455 C1454 1.373 . S
C1455 C1471 1.377 . S
C1456 C1454 1.389 . S
C1456 C1457 1.524 . S
C1456 C1470 1.377 . S
C1457 C1456 1.524 . S
C1457 C1458 1.397 . S
C1457 C1462 1.363 . S
C1458 H1435 0.950 . S
C1458 C1457 1.397 . S
C1458 C1459 1.334 . S
C1459 H1436 0.950 . S
C1459 C1458 1.334 . S
C1459 C1460 1.287 . S
C1460 C1459 1.287 . S
C1460 C1461 1.524 . S
C1460 H1479 0.913 . S
C1461 H1437 0.950 . S
C1461 C1460 1.524 . S
C1461 C1462 1.415 . S
C1462 H1438 0.950 . S
C1462 C1457 1.363 . S
C1462 C1461 1.415 . S
C1463 H1439 0.951 . S
C1463 C1464 1.366 . S
C1463 C1465 1.388 . S
C1464 C1463 1.366 . S
C1464 C1468 1.385 . S
C1465 H1440 0.951 . S
C1465 C1463 1.388 . S
C1465 C1466 1.366 . S
C1466 C1465 1.366 . S
C1466 C1467 1.414 . S
C1466 C1469 1.499 . S
C1467 H1441 0.950 . S
C1467 C1466 1.414 . S
C1467 C1468 1.374 . S
C1468 H1442 0.950 . S
C1468 C1464 1.385 . S
C1468 C1467 1.374 . S
C1469 C1466 1.499 . S
C1469 C1470 1.373 . S
C1469 C1471 1.389 . S
C1470 H1443 0.950 . S
C1470 C1456 1.377 . S
C1470 C1469 1.373 . S
C1471 C1455 1.377 . S
C1471 C1469 1.389 . S
C1471 C1472 1.524 . S
C1472 C1471 1.524 . S
C1472 C1473 1.397 . S
C1472 C1477 1.363 . S
C1473 H1444 0.950 . S
C1473 C1472 1.397 . S
C1473 C1474 1.334 . S
C1474 H1445 0.950 . S
C1474 C1473 1.334 . S
C1474 C1475 1.287 . S
C1475 C1474 1.287 . S
C1475 C1476 1.524 . S
C1475 H1478 0.999 . S
C1476 H1446 0.950 . S
C1476 C1475 1.524 . S
C1476 C1477 1.415 . S
C1477 H1447 0.950 . S
C1477 C1472 1.363 . S
C1477 C1476 1.415 . S
H1478 C1475 0.999 . S
H1479 C1460 0.913 . S
H1480 C1498 0.951 . S
H1481 C1500 0.951 . S
H1482 C1502 0.950 . S
H1483 C1503 0.950 . S
H1484 C1505 0.950 . S
H1485 C1508 0.950 . S
H1486 C1509 0.950 . S
H1487 C1511 0.950 . S
H1488 C1512 0.950 . S
H1489 C1513 0.951 . S
H1490 C1515 0.951 . S
H1491 C1517 0.950 . S
H1492 C1518 0.950 . S
H1493 C1520 0.950 . S
H1494 C1523 0.950 . S
H1495 C1524 0.950 . S
H1496 C1526 0.950 . S
H1497 C1527 0.950 . S
C1498 H1480 0.951 . S
C1498 C1499 1.366 . S
C1498 C1500 1.388 . S
C1499 C1498 1.366 . S
C1499 C1503 1.385 . S
C1500 H1481 0.951 . S
C1500 C1498 1.388 . S
C1500 C1501 1.366 . S
C1501 C1500 1.366 . S
C1501 C1502 1.414 . S
C1501 C1504 1.499 . S
C1502 H1482 0.950 . S
C1502 C1501 1.414 . S
C1502 C1503 1.374 . S
C1503 H1483 0.950 . S
C1503 C1499 1.385 . S
C1503 C1502 1.374 . S
C1504 C1501 1.499 . S
C1504 C1505 1.373 1_655 S
C1504 C1506 1.389 . S
C1505 H1484 0.950 . S
C1505 C1504 1.373 1_455 S
C1505 C1521 1.377 . S
C1506 C1504 1.389 . S
C1506 C1507 1.524 . S
C1506 C1520 1.377 . S
C1507 C1506 1.524 . S
C1507 C1508 1.397 . S
C1507 C1512 1.363 . S
C1508 H1485 0.950 . S
C1508 C1507 1.397 . S
C1508 C1509 1.334 . S
C1509 H1486 0.950 . S
C1509 C1508 1.334 . S
C1509 C1510 1.287 . S
C1510 C1509 1.287 . S
C1510 C1511 1.524 . S
C1510 H1529 0.913 . S
C1511 H1487 0.950 . S
C1511 C1510 1.524 . S
C1511 C1512 1.415 . S
C1512 H1488 0.950 . S
C1512 C1507 1.363 . S
C1512 C1511 1.415 . S
C1513 H1489 0.951 . S
C1513 C1514 1.366 . S
C1513 C1515 1.388 . S
C1514 C1513 1.366 . S
C1514 C1518 1.385 . S
C1515 H1490 0.951 . S
C1515 C1513 1.388 . S
C1515 C1516 1.366 . S
C1516 C1515 1.366 . S
C1516 C1517 1.414 . S
C1516 C1519 1.499 . S
C1517 H1491 0.950 . S
C1517 C1516 1.414 . S
C1517 C1518 1.374 . S
C1518 H1492 0.950 . S
C1518 C1514 1.385 . S
C1518 C1517 1.374 . S
C1519 C1516 1.499 . S
C1519 C1520 1.373 1_455 S
C1519 C1521 1.389 . S
C1520 H1493 0.950 . S
C1520 C1506 1.377 . S
C1520 C1519 1.373 1_655 S
C1521 C1505 1.377 . S
C1521 C1519 1.389 . S
C1521 C1522 1.524 . S
C1522 C1521 1.524 . S
C1522 C1523 1.397 . S
C1522 C1527 1.363 . S
C1523 H1494 0.950 . S
C1523 C1522 1.397 . S
C1523 C1524 1.334 1_556 S
C1524 H1495 0.950 . S
C1524 C1523 1.334 1_554 S
C1524 C1525 1.287 . S
C1525 C1524 1.287 . S
C1525 C1526 1.524 1_554 S
C1525 H1528 0.999 . S
C1526 H1496 0.950 . S
C1526 C1525 1.524 1_556 S
C1526 C1527 1.415 . S
C1527 H1497 0.950 . S
C1527 C1522 1.363 . S
C1527 C1526 1.415 . S
H1528 C1525 0.999 . S
H1529 C1510 0.913 . S
H1530 C1548 0.951 . S
H1531 C1550 0.951 . S
H1532 C1552 0.950 . S
H1533 C1553 0.950 . S
H1534 C1555 0.950 . S
H1535 C1558 0.950 . S
H1536 C1559 0.950 . S
H1537 C1561 0.950 . S
H1538 C1562 0.950 . S
H1539 C1563 0.951 . S
H1540 C1565 0.951 . S
H1541 C1567 0.950 . S
H1542 C1568 0.950 . S
H1543 C1570 0.950 . S
H1544 C1573 0.950 . S
H1545 C1574 0.950 . S
H1546 C1576 0.950 . S
H1547 C1577 0.950 . S
C1548 H1530 0.951 . S
C1548 C1549 1.366 . S
C1548 C1550 1.388 . S
C1549 C1548 1.366 . S
C1549 C1553 1.385 . S
C1550 H1531 0.951 . S
C1550 C1548 1.388 . S
C1550 C1551 1.366 . S
C1551 C1550 1.366 . S
C1551 C1552 1.414 . S
C1551 C1554 1.499 . S
C1552 H1532 0.950 . S
C1552 C1551 1.414 . S
C1552 C1553 1.374 . S
C1553 H1533 0.950 . S
C1553 C1549 1.385 . S
C1553 C1552 1.374 . S
C1554 C1551 1.499 . S
C1554 C1555 1.373 . S
C1554 C1556 1.389 . S
C1555 H1534 0.950 . S
C1555 C1554 1.373 . S
C1555 C1571 1.377 1_455 S
C1556 C1554 1.389 . S
C1556 C1557 1.524 . S
C1556 C1570 1.377 1_455 S
C1557 C1556 1.524 . S
C1557 C1558 1.397 1_455 S
C1557 C1562 1.363 . S
C1558 H1535 0.950 . S
C1558 C1557 1.397 1_655 S
C1558 C1559 1.334 . S
C1559 H1536 0.950 . S
C1559 C1558 1.334 . S
C1559 C1560 1.289 1_655 S
C1560 C1559 1.289 1_455 S
C1560 C1561 1.519 . S
C1560 H1579 0.908 . S
C1561 H1537 0.950 . S
C1561 C1560 1.519 . S
C1561 C1562 1.415 . S
C1562 H1538 0.950 . S
C1562 C1557 1.363 . S
C1562 C1561 1.415 . S
C1563 H1539 0.951 . S
C1563 C1564 1.366 . S
C1563 C1565 1.388 . S
C1564 C1563 1.366 . S
C1564 C1568 1.385 . S
C1565 H1540 0.951 . S
C1565 C1563 1.388 . S
C1565 C1566 1.366 . S
C1566 C1565 1.366 . S
C1566 C1567 1.414 . S
C1566 C1569 1.499 . S
C1567 H1541 0.950 . S
C1567 C1566 1.414 . S
C1567 C1568 1.374 . S
C1568 H1542 0.950 . S
C1568 C1564 1.385 . S
C1568 C1567 1.374 . S
C1569 C1566 1.499 . S
C1569 C1570 1.373 . S
C1569 C1571 1.389 . S
C1570 H1543 0.950 . S
C1570 C1556 1.377 1_655 S
C1570 C1569 1.373 . S
C1571 C1555 1.377 1_655 S
C1571 C1569 1.389 . S
C1571 C1572 1.524 . S
C1572 C1571 1.524 . S
C1572 C1573 1.397 1_655 S
C1572 C1577 1.363 . S
C1573 H1544 0.950 . S
C1573 C1572 1.397 1_455 S
C1573 C1574 1.334 . S
C1574 H1545 0.950 . S
C1574 C1573 1.334 . S
C1574 C1575 1.289 1_455 S
C1575 C1574 1.289 1_655 S
C1575 C1576 1.519 . S
C1575 H1578 0.998 . S
C1576 H1546 0.950 . S
C1576 C1575 1.519 . S
C1576 C1577 1.415 . S
C1577 H1547 0.950 . S
C1577 C1572 1.363 . S
C1577 C1576 1.415 . S
H1578 C1575 0.998 . S
H1579 C1560 0.908 . S
H1580 C1598 0.951 . S
H1581 C1600 0.951 . S
H1582 C1602 0.950 . S
H1583 C1603 0.950 . S
H1584 C1605 0.950 . S
H1585 C1608 0.950 . S
H1586 C1609 0.950 . S
H1587 C1611 0.950 . S
H1588 C1612 0.950 . S
H1589 C1613 0.951 . S
H1590 C1615 0.951 . S
H1591 C1617 0.950 . S
H1592 C1618 0.950 . S
H1593 C1620 0.950 . S
H1594 C1623 0.950 . S
H1595 C1624 0.950 . S
H1596 C1626 0.950 . S
H1597 C1627 0.950 . S
C1598 H1580 0.951 . S
C1598 C1599 1.366 . S
C1598 C1600 1.388 . S
C1599 C1598 1.366 . S
C1599 C1603 1.385 . S
C1600 H1581 0.951 . S
C1600 C1598 1.388 . S
C1600 C1601 1.366 . S
C1601 C1600 1.366 . S
C1601 C1602 1.414 . S
C1601 C1604 1.499 . S
C1602 H1582 0.950 . S
C1602 C1601 1.414 . S
C1602 C1603 1.374 . S
C1603 H1583 0.950 . S
C1603 C1599 1.385 . S
C1603 C1602 1.374 . S
C1604 C1601 1.499 . S
C1604 C1605 1.373 . S
C1604 C1606 1.389 . S
C1605 H1584 0.950 . S
C1605 C1604 1.373 . S
C1605 C1621 1.377 1_565 S
C1606 C1604 1.389 . S
C1606 C1607 1.524 . S
C1606 C1620 1.377 1_565 S
C1607 C1606 1.524 . S
C1607 C1608 1.397 . S
C1607 C1612 1.363 . S
C1608 H1585 0.950 . S
C1608 C1607 1.397 . S
C1608 C1609 1.334 . S
C1609 H1586 0.950 . S
C1609 C1608 1.334 . S
C1609 C1610 1.287 . S
C1610 C1609 1.287 . S
C1610 C1611 1.524 . S
C1610 H1629 0.913 . S
C1611 H1587 0.950 . S
C1611 C1610 1.524 . S
C1611 C1612 1.415 . S
C1612 H1588 0.950 . S
C1612 C1607 1.363 . S
C1612 C1611 1.415 . S
C1613 H1589 0.951 . S
C1613 C1614 1.366 . S
C1613 C1615 1.388 . S
C1614 C1613 1.366 . S
C1614 C1618 1.385 . S
C1615 H1590 0.951 . S
C1615 C1613 1.388 . S
C1615 C1616 1.366 . S
C1616 C1615 1.366 . S
C1616 C1617 1.414 . S
C1616 C1619 1.499 . S
C1617 H1591 0.950 . S
C1617 C1616 1.414 . S
C1617 C1618 1.374 . S
C1618 H1592 0.950 . S
C1618 C1614 1.385 . S
C1618 C1617 1.374 . S
C1619 C1616 1.499 . S
C1619 C1620 1.373 . S
C1619 C1621 1.389 . S
C1620 H1593 0.950 . S
C1620 C1606 1.377 1_545 S
C1620 C1619 1.373 . S
C1621 C1605 1.377 1_545 S
C1621 C1619 1.389 . S
C1621 C1622 1.524 . S
C1622 C1621 1.524 . S
C1622 C1623 1.397 . S
C1622 C1627 1.363 . S
C1623 H1594 0.950 . S
C1623 C1622 1.397 . S
C1623 C1624 1.334 . S
C1624 H1595 0.950 . S
C1624 C1623 1.334 . S
C1624 C1625 1.287 . S
C1625 C1624 1.287 . S
C1625 C1626 1.524 . S
C1625 H1628 0.999 . S
C1626 H1596 0.950 . S
C1626 C1625 1.524 . S
C1626 C1627 1.415 . S
C1627 H1597 0.950 . S
C1627 C1622 1.363 . S
C1627 C1626 1.415 . S
H1628 C1625 0.999 . S
H1629 C1610 0.913 . S
H1630 C1648 0.951 . S
H1631 C1650 0.951 . S
H1632 C1652 0.950 . S
H1633 C1653 0.950 . S
H1634 C1655 0.950 . S
H1635 C1658 0.950 . S
H1636 C1659 0.950 . S
H1637 C1661 0.950 . S
H1638 C1662 0.950 . S
H1639 C1663 0.951 . S
H1640 C1665 0.951 . S
H1641 C1667 0.950 . S
H1642 C1668 0.950 . S
H1643 C1670 0.950 . S
H1644 C1673 0.950 . S
H1645 C1674 0.950 . S
H1646 C1676 0.950 . S
H1647 C1677 0.950 . S
C1648 H1630 0.951 . S
C1648 C1649 1.366 . S
C1648 C1650 1.388 . S
C1649 C1648 1.366 . S
C1649 C1653 1.385 . S
C1650 H1631 0.951 . S
C1650 C1648 1.388 . S
C1650 C1651 1.366 . S
C1651 C1650 1.366 . S
C1651 C1652 1.414 . S
C1651 C1654 1.499 . S
C1652 H1632 0.950 . S
C1652 C1651 1.414 . S
C1652 C1653 1.374 . S
C1653 H1633 0.950 . S
C1653 C1649 1.385 . S
C1653 C1652 1.374 . S
C1654 C1651 1.499 . S
C1654 C1655 1.373 . S
C1654 C1656 1.389 . S
C1655 H1634 0.950 . S
C1655 C1654 1.373 . S
C1655 C1671 1.377 . S
C1656 C1654 1.389 . S
C1656 C1657 1.524 . S
C1656 C1670 1.377 . S
C1657 C1656 1.524 . S
C1657 C1658 1.397 . S
C1657 C1662 1.366 1_554 S
C1658 H1635 0.950 . S
C1658 C1657 1.397 . S
C1658 C1659 1.334 . S
C1659 H1636 0.950 . S
C1659 C1658 1.334 . S
C1659 C1660 1.287 1_554 S
C1660 C1659 1.287 1_556 S
C1660 C1661 1.524 . S
C1660 H1679 0.913 . S
C1661 H1637 0.950 . S
C1661 C1660 1.524 . S
C1661 C1662 1.412 . S
C1662 H1638 0.950 . S
C1662 C1657 1.366 1_556 S
C1662 C1661 1.412 . S
C1663 H1639 0.951 . S
C1663 C1664 1.366 . S
C1663 C1665 1.388 . S
C1664 C1663 1.366 . S
C1664 C1668 1.385 . S
C1665 H1640 0.951 . S
C1665 C1663 1.388 . S
C1665 C1666 1.366 . S
C1666 C1665 1.366 . S
C1666 C1667 1.414 . S
C1666 C1669 1.499 . S
C1667 H1641 0.950 . S
C1667 C1666 1.414 . S
C1667 C1668 1.374 . S
C1668 H1642 0.950 . S
C1668 C1664 1.385 . S
C1668 C1667 1.374 . S
C1669 C1666 1.499 . S
C1669 C1670 1.373 . S
C1669 C1671 1.389 . S
C1670 H1643 0.950 . S
C1670 C1656 1.377 . S
C1670 C1669 1.373 . S
C1671 C1655 1.377 . S
C1671 C1669 1.389 . S
C1671 C1672 1.524 . S
C1672 C1671 1.524 . S
C1672 C1673 1.397 . S
C1672 C1677 1.363 . S
C1673 H1644 0.950 . S
C1673 C1672 1.397 . S
C1673 C1674 1.334 . S
C1674 H1645 0.950 . S
C1674 C1673 1.334 . S
C1674 C1675 1.287 . S
C1675 C1674 1.287 . S
C1675 C1676 1.524 . S
C1675 H1678 0.999 . S
C1676 H1646 0.950 . S
C1676 C1675 1.524 . S
C1676 C1677 1.415 . S
C1677 H1647 0.950 . S
C1677 C1672 1.363 . S
C1677 C1676 1.415 . S
H1678 C1675 0.999 . S
H1679 C1660 0.913 . S
H1680 C1698 0.951 . S
H1681 C1700 0.951 . S
H1682 C1702 0.950 . S
H1683 C1703 0.950 . S
H1684 C1705 0.950 . S
H1685 C1708 0.950 . S
H1686 C1709 0.950 . S
H1687 C1711 0.950 . S
H1688 C1712 0.950 . S
H1689 C1713 0.951 . S
H1690 C1715 0.951 . S
H1691 C1717 0.950 . S
H1692 C1718 0.950 . S
H1693 C1720 0.950 . S
H1694 C1723 0.950 . S
H1695 C1724 0.950 . S
H1696 C1726 0.950 . S
H1697 C1727 0.950 . S
C1698 H1680 0.951 . S
C1698 C1699 1.366 . S
C1698 C1700 1.388 . S
C1699 C1698 1.366 . S
C1699 C1703 1.385 . S
C1700 H1681 0.951 . S
C1700 C1698 1.388 . S
C1700 C1701 1.366 . S
C1701 C1700 1.366 . S
C1701 C1702 1.414 . S
C1701 C1704 1.499 . S
C1702 H1682 0.950 . S
C1702 C1701 1.414 . S
C1702 C1703 1.374 . S
C1703 H1683 0.950 . S
C1703 C1699 1.385 . S
C1703 C1702 1.374 . S
C1704 C1701 1.499 . S
C1704 C1705 1.373 1_565 S
C1704 C1706 1.389 . S
C1705 H1684 0.950 . S
C1705 C1704 1.373 1_545 S
C1705 C1721 1.377 . S
C1706 C1704 1.389 . S
C1706 C1707 1.524 . S
C1706 C1720 1.377 . S
C1707 C1706 1.524 . S
C1707 C1708 1.397 . S
C1707 C1712 1.363 . S
C1708 H1685 0.950 . S
C1708 C1707 1.397 . S
C1708 C1709 1.334 . S
C1709 H1686 0.950 . S
C1709 C1708 1.334 . S
C1709 C1710 1.287 . S
C1710 C1709 1.287 . S
C1710 C1711 1.524 . S
C1710 H1729 0.913 . S
C1711 H1687 0.950 . S
C1711 C1710 1.524 . S
C1711 C1712 1.415 . S
C1712 H1688 0.950 . S
C1712 C1707 1.363 . S
C1712 C1711 1.415 . S
C1713 H1689 0.951 . S
C1713 C1714 1.366 . S
C1713 C1715 1.388 . S
C1714 C1713 1.366 . S
C1714 C1718 1.385 . S
C1715 H1690 0.951 . S
C1715 C1713 1.388 . S
C1715 C1716 1.366 . S
C1716 C1715 1.366 . S
C1716 C1717 1.414 . S
C1716 C1719 1.499 . S
C1717 H1691 0.950 . S
C1717 C1716 1.414 . S
C1717 C1718 1.374 . S
C1718 H1692 0.950 . S
C1718 C1714 1.385 . S
C1718 C1717 1.374 . S
C1719 C1716 1.499 . S
C1719 C1720 1.373 1_545 S
C1719 C1721 1.389 . S
C1720 H1693 0.950 . S
C1720 C1706 1.377 . S
C1720 C1719 1.373 1_565 S
C1721 C1705 1.377 . S
C1721 C1719 1.389 . S
C1721 C1722 1.524 . S
C1722 C1721 1.524 . S
C1722 C1723 1.397 . S
C1722 C1727 1.363 . S
C1723 H1694 0.950 . S
C1723 C1722 1.397 . S
C1723 C1724 1.334 . S
C1724 H1695 0.950 . S
C1724 C1723 1.334 . S
C1724 C1725 1.287 . S
C1725 C1724 1.287 . S
C1725 C1726 1.524 . S
C1725 H1728 0.999 . S
C1726 H1696 0.950 . S
C1726 C1725 1.524 . S
C1726 C1727 1.415 . S
C1727 H1697 0.950 . S
C1727 C1722 1.363 . S
C1727 C1726 1.415 . S
H1728 C1725 0.999 . S
H1729 C1710 0.913 . S
H1730 C1748 0.951 . S
H1731 C1750 0.951 . S
H1732 C1752 0.950 . S
H1733 C1753 0.950 . S
H1734 C1755 0.950 . S
H1735 C1758 0.950 . S
H1736 C1759 0.950 . S
H1737 C1761 0.950 . S
H1738 C1762 0.950 . S
H1739 C1763 0.951 . S
H1740 C1765 0.951 . S
H1741 C1767 0.950 . S
H1742 C1768 0.950 . S
H1743 C1770 0.950 . S
H1744 C1773 0.950 . S
H1745 C1774 0.950 . S
H1746 C1776 0.950 . S
H1747 C1777 0.950 . S
C1748 H1730 0.951 . S
C1748 C1749 1.366 . S
C1748 C1750 1.388 . S
C1749 C1748 1.366 . S
C1749 C1753 1.385 . S
C1750 H1731 0.951 . S
C1750 C1748 1.388 . S
C1750 C1751 1.366 . S
C1751 C1750 1.366 . S
C1751 C1752 1.414 . S
C1751 C1754 1.499 . S
C1752 H1732 0.950 . S
C1752 C1751 1.414 . S
C1752 C1753 1.374 . S
C1753 H1733 0.950 . S
C1753 C1749 1.385 . S
C1753 C1752 1.374 . S
C1754 C1751 1.499 . S
C1754 C1755 1.373 . S
C1754 C1756 1.389 . S
C1755 H1734 0.950 . S
C1755 C1754 1.373 . S
C1755 C1771 1.377 . S
C1756 C1754 1.389 . S
C1756 C1757 1.524 . S
C1756 C1770 1.377 . S
C1757 C1756 1.524 . S
C1757 C1758 1.397 . S
C1757 C1762 1.363 . S
C1758 H1735 0.950 . S
C1758 C1757 1.397 . S
C1758 C1759 1.334 . S
C1759 H1736 0.950 . S
C1759 C1758 1.334 . S
C1759 C1760 1.287 . S
C1760 C1759 1.287 . S
C1760 C1761 1.524 . S
C1760 H1779 0.913 . S
C1761 H1737 0.950 . S
C1761 C1760 1.524 . S
C1761 C1762 1.415 . S
C1762 H1738 0.950 . S
C1762 C1757 1.363 . S
C1762 C1761 1.415 . S
C1763 H1739 0.951 . S
C1763 C1764 1.366 . S
C1763 C1765 1.388 . S
C1764 C1763 1.366 . S
C1764 C1768 1.385 . S
C1765 H1740 0.951 . S
C1765 C1763 1.388 . S
C1765 C1766 1.366 . S
C1766 C1765 1.366 . S
C1766 C1767 1.414 . S
C1766 C1769 1.499 . S
C1767 H1741 0.950 . S
C1767 C1766 1.414 . S
C1767 C1768 1.374 . S
C1768 H1742 0.950 . S
C1768 C1764 1.385 . S
C1768 C1767 1.374 . S
C1769 C1766 1.499 . S
C1769 C1770 1.373 . S
C1769 C1771 1.389 . S
C1770 H1743 0.950 . S
C1770 C1756 1.377 . S
C1770 C1769 1.373 . S
C1771 C1755 1.377 . S
C1771 C1769 1.389 . S
C1771 C1772 1.524 . S
C1772 C1771 1.524 . S
C1772 C1773 1.397 . S
C1772 C1777 1.363 . S
C1773 H1744 0.950 . S
C1773 C1772 1.397 . S
C1773 C1774 1.334 . S
C1774 H1745 0.950 . S
C1774 C1773 1.334 . S
C1774 C1775 1.287 . S
C1775 C1774 1.287 . S
C1775 C1776 1.524 . S
C1775 H1778 0.999 . S
C1776 H1746 0.950 . S
C1776 C1775 1.524 . S
C1776 C1777 1.415 . S
C1777 H1747 0.950 . S
C1777 C1772 1.363 . S
C1777 C1776 1.415 . S
H1778 C1775 0.999 . S
H1779 C1760 0.913 . S
H1780 C1798 0.951 . S
H1781 C1800 0.951 . S
H1782 C1802 0.950 . S
H1783 C1803 0.950 . S
H1784 C1805 0.950 . S
H1785 C1808 0.950 . S
H1786 C1809 0.950 1_655 S
H1787 C1811 0.950 . S
H1788 C1812 0.950 . S
H1789 C1813 0.951 . S
H1790 C1815 0.951 . S
H1791 C1817 0.950 . S
H1792 C1818 0.950 . S
H1793 C1820 0.950 . S
H1794 C1823 0.950 . S
H1795 C1824 0.950 1_455 S
H1796 C1826 0.950 . S
H1797 C1827 0.950 . S
C1798 H1780 0.951 . S
C1798 C1799 1.366 . S
C1798 C1800 1.388 . S
C1799 C1798 1.366 . S
C1799 C1803 1.385 . S
C1800 H1781 0.951 . S
C1800 C1798 1.388 . S
C1800 C1801 1.366 . S
C1801 C1800 1.366 . S
C1801 C1802 1.414 . S
C1801 C1804 1.499 . S
C1802 H1782 0.950 . S
C1802 C1801 1.414 . S
C1802 C1803 1.374 . S
C1803 H1783 0.950 . S
C1803 C1799 1.385 . S
C1803 C1802 1.374 . S
C1804 C1801 1.499 . S
C1804 C1805 1.373 . S
C1804 C1806 1.389 1_655 S
C1805 H1784 0.950 . S
C1805 C1804 1.373 . S
C1805 C1821 1.377 . S
C1806 C1804 1.389 1_455 S
C1806 C1807 1.524 . S
C1806 C1820 1.377 . S
C1807 C1806 1.524 . S
C1807 C1808 1.397 1_455 S
C1807 C1812 1.363 . S
C1808 H1785 0.950 . S
C1808 C1807 1.397 1_655 S
C1808 C1809 1.334 1_655 S
C1809 H1786 0.950 1_455 S
C1809 C1808 1.334 1_455 S
C1809 C1810 1.287 . S
C1810 C1809 1.287 . S
C1810 C1811 1.524 . S
C1810 H1829 0.913 . S
C1811 H1787 0.950 . S
C1811 C1810 1.524 . S
C1811 C1812 1.415 . S
C1812 H1788 0.950 . S
C1812 C1807 1.363 . S
C1812 C1811 1.415 . S
C1813 H1789 0.951 . S
C1813 C1814 1.366 . S
C1813 C1815 1.388 . S
C1814 C1813 1.366 . S
C1814 C1818 1.385 . S
C1815 H1790 0.951 . S
C1815 C1813 1.388 . S
C1815 C1816 1.366 . S
C1816 C1815 1.366 . S
C1816 C1817 1.414 . S
C1816 C1819 1.499 . S
C1817 H1791 0.950 . S
C1817 C1816 1.414 . S
C1817 C1818 1.374 . S
C1818 H1792 0.950 . S
C1818 C1814 1.385 . S
C1818 C1817 1.374 . S
C1819 C1816 1.499 . S
C1819 C1820 1.373 . S
C1819 C1821 1.389 1_455 S
C1820 H1793 0.950 . S
C1820 C1806 1.377 . S
C1820 C1819 1.373 . S
C1821 C1805 1.377 . S
C1821 C1819 1.389 1_655 S
C1821 C1822 1.524 . S
C1822 C1821 1.524 . S
C1822 C1823 1.397 1_655 S
C1822 C1827 1.363 . S
C1823 H1794 0.950 . S
C1823 C1822 1.397 1_455 S
C1823 C1824 1.334 1_455 S
C1824 H1795 0.950 1_655 S
C1824 C1823 1.334 1_655 S
C1824 C1825 1.287 . S
C1825 C1824 1.287 . S
C1825 C1826 1.524 . S
C1825 H1828 0.999 . S
C1826 H1796 0.950 . S
C1826 C1825 1.524 . S
C1826 C1827 1.415 . S
C1827 H1797 0.950 . S
C1827 C1822 1.363 . S
C1827 C1826 1.415 . S
H1828 C1825 0.999 . S
H1829 C1810 0.913 . S
H1830 C1848 0.951 . S
H1831 C1850 0.951 . S
H1832 C1852 0.950 . S
H1833 C1853 0.950 . S
H1834 C1855 0.950 . S
H1835 C1858 0.950 . S
H1836 C1859 0.950 . S
H1837 C1861 0.950 . S
H1838 C1862 0.950 . S
H1839 C1863 0.951 . S
H1840 C1865 0.951 . S
H1841 C1867 0.950 . S
H1842 C1868 0.950 . S
H1843 C1870 0.950 . S
H1844 C1873 0.950 . S
H1845 C1874 0.950 . S
H1846 C1876 0.950 . S
H1847 C1877 0.950 . S
C1848 H1830 0.951 . S
C1848 C1849 1.366 . S
C1848 C1850 1.388 . S
C1849 C1848 1.366 . S
C1849 C1853 1.385 . S
C1850 H1831 0.951 . S
C1850 C1848 1.388 . S
C1850 C1851 1.366 . S
C1851 C1850 1.366 . S
C1851 C1852 1.414 . S
C1851 C1854 1.499 . S
C1852 H1832 0.950 . S
C1852 C1851 1.414 . S
C1852 C1853 1.374 . S
C1853 H1833 0.950 . S
C1853 C1849 1.385 . S
C1853 C1852 1.374 . S
C1854 C1851 1.499 . S
C1854 C1855 1.373 1_545 S
C1854 C1856 1.389 . S
C1855 H1834 0.950 . S
C1855 C1854 1.373 1_565 S
C1855 C1871 1.377 . S
C1856 C1854 1.389 . S
C1856 C1857 1.524 . S
C1856 C1870 1.377 . S
C1857 C1856 1.524 . S
C1857 C1858 1.397 . S
C1857 C1862 1.363 . S
C1858 H1835 0.950 . S
C1858 C1857 1.397 . S
C1858 C1859 1.334 . S
C1859 H1836 0.950 . S
C1859 C1858 1.334 . S
C1859 C1860 1.287 . S
C1860 C1859 1.287 . S
C1860 C1861 1.524 . S
C1860 H1879 0.913 . S
C1861 H1837 0.950 . S
C1861 C1860 1.524 . S
C1861 C1862 1.415 . S
C1862 H1838 0.950 . S
C1862 C1857 1.363 . S
C1862 C1861 1.415 . S
C1863 H1839 0.951 . S
C1863 C1864 1.366 . S
C1863 C1865 1.388 . S
C1864 C1863 1.366 . S
C1864 C1868 1.385 . S
C1865 H1840 0.951 . S
C1865 C1863 1.388 . S
C1865 C1866 1.366 . S
C1866 C1865 1.366 . S
C1866 C1867 1.414 . S
C1866 C1869 1.499 . S
C1867 H1841 0.950 . S
C1867 C1866 1.414 . S
C1867 C1868 1.374 . S
C1868 H1842 0.950 . S
C1868 C1864 1.385 . S
C1868 C1867 1.374 . S
C1869 C1866 1.499 . S
C1869 C1870 1.373 1_565 S
C1869 C1871 1.389 . S
C1870 H1843 0.950 . S
C1870 C1856 1.377 . S
C1870 C1869 1.373 1_545 S
C1871 C1855 1.377 . S
C1871 C1869 1.389 . S
C1871 C1872 1.524 . S
C1872 C1871 1.524 . S
C1872 C1873 1.397 . S
C1872 C1877 1.363 . S
C1873 H1844 0.950 . S
C1873 C1872 1.397 . S
C1873 C1874 1.334 . S
C1874 H1845 0.950 . S
C1874 C1873 1.334 . S
C1874 C1875 1.287 . S
C1875 C1874 1.287 . S
C1875 C1876 1.524 . S
C1875 H1878 0.999 . S
C1876 H1846 0.950 . S
C1876 C1875 1.524 . S
C1876 C1877 1.415 . S
C1877 H1847 0.950 . S
C1877 C1872 1.363 . S
C1877 C1876 1.415 . S
H1878 C1875 0.999 . S
H1879 C1860 0.913 . S
H1880 C1898 0.951 . S
H1881 C1900 0.951 . S
H1882 C1902 0.950 . S
H1883 C1903 0.950 . S
H1884 C1905 0.950 . S
H1885 C1908 0.950 . S
H1886 C1909 0.950 . S
H1887 C1911 0.950 . S
H1888 C1912 0.950 . S
H1889 C1913 0.951 . S
H1890 C1915 0.951 . S
H1891 C1917 0.950 . S
H1892 C1918 0.950 . S
H1893 C1920 0.950 . S
H1894 C1923 0.950 . S
H1895 C1924 0.950 . S
H1896 C1926 0.950 . S
H1897 C1927 0.950 . S
C1898 H1880 0.951 . S
C1898 C1899 1.366 . S
C1898 C1900 1.388 . S
C1899 C1898 1.366 . S
C1899 C1903 1.385 . S
C1900 H1881 0.951 . S
C1900 C1898 1.388 . S
C1900 C1901 1.366 . S
C1901 C1900 1.366 . S
C1901 C1902 1.414 . S
C1901 C1904 1.499 . S
C1902 H1882 0.950 . S
C1902 C1901 1.414 . S
C1902 C1903 1.374 . S
C1903 H1883 0.950 . S
C1903 C1899 1.385 . S
C1903 C1902 1.374 . S
C1904 C1901 1.499 . S
C1904 C1905 1.373 . S
C1904 C1906 1.389 . S
C1905 H1884 0.950 . S
C1905 C1904 1.373 . S
C1905 C1921 1.377 . S
C1906 C1904 1.389 . S
C1906 C1907 1.524 . S
C1906 C1920 1.377 . S
C1907 C1906 1.524 . S
C1907 C1908 1.397 . S
C1907 C1912 1.363 . S
C1908 H1885 0.950 . S
C1908 C1907 1.397 . S
C1908 C1909 1.334 . S
C1909 H1886 0.950 . S
C1909 C1908 1.334 . S
C1909 C1910 1.287 . S
C1910 C1909 1.287 . S
C1910 C1911 1.524 . S
C1910 H1929 0.913 . S
C1911 H1887 0.950 . S
C1911 C1910 1.524 . S
C1911 C1912 1.415 . S
C1912 H1888 0.950 . S
C1912 C1907 1.363 . S
C1912 C1911 1.415 . S
C1913 H1889 0.951 . S
C1913 C1914 1.366 . S
C1913 C1915 1.388 . S
C1914 C1913 1.366 . S
C1914 C1918 1.385 . S
C1915 H1890 0.951 . S
C1915 C1913 1.388 . S
C1915 C1916 1.366 . S
C1916 C1915 1.366 . S
C1916 C1917 1.414 . S
C1916 C1919 1.499 . S
C1917 H1891 0.950 . S
C1917 C1916 1.414 . S
C1917 C1918 1.374 . S
C1918 H1892 0.950 . S
C1918 C1914 1.385 . S
C1918 C1917 1.374 . S
C1919 C1916 1.499 . S
C1919 C1920 1.373 . S
C1919 C1921 1.389 . S
C1920 H1893 0.950 . S
C1920 C1906 1.377 . S
C1920 C1919 1.373 . S
C1921 C1905 1.377 . S
C1921 C1919 1.389 . S
C1921 C1922 1.524 . S
C1922 C1921 1.524 . S
C1922 C1923 1.397 . S
C1922 C1927 1.363 . S
C1923 H1894 0.950 . S
C1923 C1922 1.397 . S
C1923 C1924 1.334 . S
C1924 H1895 0.950 . S
C1924 C1923 1.334 . S
C1924 C1925 1.287 . S
C1925 C1924 1.287 . S
C1925 C1926 1.524 . S
C1925 H1928 0.999 . S
C1926 H1896 0.950 . S
C1926 C1925 1.524 . S
C1926 C1927 1.415 . S
C1927 H1897 0.950 . S
C1927 C1922 1.363 . S
C1927 C1926 1.415 . S
H1928 C1925 0.999 . S
H1929 C1910 0.913 . S
H1930 C1948 0.951 . S
H1931 C1950 0.951 . S
H1932 C1952 0.950 . S
H1933 C1953 0.950 . S
H1934 C1955 0.950 . S
H1935 C1958 0.950 . S
H1936 C1959 0.950 . S
H1937 C1961 0.950 . S
H1938 C1962 0.950 . S
H1939 C1963 0.951 . S
H1940 C1965 0.951 . S
H1941 C1967 0.950 . S
H1942 C1968 0.950 . S
H1943 C1970 0.950 . S
H1944 C1973 0.950 . S
H1945 C1974 0.950 . S
H1946 C1976 0.950 . S
H1947 C1977 0.950 . S
C1948 H1930 0.951 . S
C1948 C1949 1.366 . S
C1948 C1950 1.388 . S
C1949 C1948 1.366 . S
C1949 C1953 1.385 . S
C1950 H1931 0.951 . S
C1950 C1948 1.388 . S
C1950 C1951 1.366 . S
C1951 C1950 1.366 . S
C1951 C1952 1.414 . S
C1951 C1954 1.499 . S
C1952 H1932 0.950 . S
C1952 C1951 1.414 . S
C1952 C1953 1.374 . S
C1953 H1933 0.950 . S
C1953 C1949 1.385 . S
C1953 C1952 1.374 . S
C1954 C1951 1.499 . S
C1954 C1955 1.373 . S
C1954 C1956 1.389 . S
C1955 H1934 0.950 . S
C1955 C1954 1.373 . S
C1955 C1971 1.377 1_455 S
C1956 C1954 1.389 . S
C1956 C1957 1.524 . S
C1956 C1970 1.377 1_455 S
C1957 C1956 1.524 . S
C1957 C1958 1.397 . S
C1957 C1962 1.363 1_455 S
C1958 H1935 0.950 . S
C1958 C1957 1.397 . S
C1958 C1959 1.334 . S
C1959 H1936 0.950 . S
C1959 C1958 1.334 . S
C1959 C1960 1.287 . S
C1960 C1959 1.287 . S
C1960 C1961 1.524 1_455 S
C1960 H1979 0.913 . S
C1961 H1937 0.950 . S
C1961 C1960 1.524 1_655 S
C1961 C1962 1.415 . S
C1962 H1938 0.950 . S
C1962 C1957 1.363 1_655 S
C1962 C1961 1.415 . S
C1963 H1939 0.951 . S
C1963 C1964 1.366 . S
C1963 C1965 1.388 . S
C1964 C1963 1.366 . S
C1964 C1968 1.385 . S
C1965 H1940 0.951 . S
C1965 C1963 1.388 . S
C1965 C1966 1.366 . S
C1966 C1965 1.366 . S
C1966 C1967 1.414 . S
C1966 C1969 1.499 . S
C1967 H1941 0.950 . S
C1967 C1966 1.414 . S
C1967 C1968 1.374 . S
C1968 H1942 0.950 . S
C1968 C1964 1.385 . S
C1968 C1967 1.374 . S
C1969 C1966 1.499 . S
C1969 C1970 1.373 . S
C1969 C1971 1.389 . S
C1970 H1943 0.950 . S
C1970 C1956 1.377 1_655 S
C1970 C1969 1.373 . S
C1971 C1955 1.377 1_655 S
C1971 C1969 1.389 . S
C1971 C1972 1.524 . S
C1972 C1971 1.524 . S
C1972 C1973 1.397 . S
C1972 C1977 1.363 1_655 S
C1973 H1944 0.950 . S
C1973 C1972 1.397 . S
C1973 C1974 1.334 . S
C1974 H1945 0.950 . S
C1974 C1973 1.334 . S
C1974 C1975 1.287 . S
C1975 C1974 1.287 . S
C1975 C1976 1.524 1_655 S
C1975 H1978 0.999 . S
C1976 H1946 0.950 . S
C1976 C1975 1.524 1_455 S
C1976 C1977 1.415 . S
C1977 H1947 0.950 . S
C1977 C1972 1.363 1_455 S
C1977 C1976 1.415 . S
H1978 C1975 0.999 . S
H1979 C1960 0.913 . S
H1980 C1998 0.951 . S
H1981 C2000 0.951 . S
H1982 C2002 0.950 . S
H1983 C2003 0.950 . S
H1984 C2005 0.950 . S
H1985 C2008 0.950 . S
H1986 C2009 0.950 . S
H1987 C2011 0.950 . S
H1988 C2012 0.950 . S
H1989 C2013 0.951 . S
H1990 C2015 0.951 . S
H1991 C2017 0.950 . S
H1992 C2018 0.950 . S
H1993 C2020 0.950 . S
H1994 C2023 0.950 . S
H1995 C2024 0.950 . S
H1996 C2026 0.950 . S
H1997 C2027 0.950 . S
C1998 H1980 0.951 . S
C1998 C1999 1.366 . S
C1998 C2000 1.388 . S
C1999 C1998 1.366 . S
C1999 C2003 1.385 . S
C2000 H1981 0.951 . S
C2000 C1998 1.388 . S
C2000 C2001 1.366 . S
C2001 C2000 1.366 . S
C2001 C2002 1.414 . S
C2001 C2004 1.499 . S
C2002 H1982 0.950 . S
C2002 C2001 1.414 . S
C2002 C2003 1.374 . S
C2003 H1983 0.950 . S
C2003 C1999 1.385 . S
C2003 C2002 1.374 . S
C2004 C2001 1.499 . S
C2004 C2005 1.373 . S
C2004 C2006 1.389 . S
C2005 H1984 0.950 . S
C2005 C2004 1.373 . S
C2005 C2021 1.377 . S
C2006 C2004 1.389 . S
C2006 C2007 1.524 . S
C2006 C2020 1.377 . S
C2007 C2006 1.524 . S
C2007 C2008 1.397 . S
C2007 C2012 1.363 . S
C2008 H1985 0.950 . S
C2008 C2007 1.397 . S
C2008 C2009 1.334 . S
C2009 H1986 0.950 . S
C2009 C2008 1.334 . S
C2009 C2010 1.287 . S
C2010 C2009 1.287 . S
C2010 C2011 1.524 . S
C2010 H2029 0.913 . S
C2011 H1987 0.950 . S
C2011 C2010 1.524 . S
C2011 C2012 1.415 . S
C2012 H1988 0.950 . S
C2012 C2007 1.363 . S
C2012 C2011 1.415 . S
C2013 H1989 0.951 . S
C2013 C2014 1.366 . S
C2013 C2015 1.388 . S
C2014 C2013 1.366 . S
C2014 C2018 1.385 . S
C2015 H1990 0.951 . S
C2015 C2013 1.388 . S
C2015 C2016 1.366 . S
C2016 C2015 1.366 . S
C2016 C2017 1.414 . S
C2016 C2019 1.499 . S
C2017 H1991 0.950 . S
C2017 C2016 1.414 . S
C2017 C2018 1.374 . S
C2018 H1992 0.950 . S
C2018 C2014 1.385 . S
C2018 C2017 1.374 . S
C2019 C2016 1.499 . S
C2019 C2020 1.373 . S
C2019 C2021 1.389 . S
C2020 H1993 0.950 . S
C2020 C2006 1.377 . S
C2020 C2019 1.373 . S
C2021 C2005 1.377 . S
C2021 C2019 1.389 . S
C2021 C2022 1.524 . S
C2022 C2021 1.524 . S
C2022 C2023 1.397 . S
C2022 C2027 1.363 . S
C2023 H1994 0.950 . S
C2023 C2022 1.397 . S
C2023 C2024 1.334 . S
C2024 H1995 0.950 . S
C2024 C2023 1.334 . S
C2024 C2025 1.287 . S
C2025 C2024 1.287 . S
C2025 C2026 1.524 . S
C2025 H2028 0.999 . S
C2026 H1996 0.950 . S
C2026 C2025 1.524 . S
C2026 C2027 1.415 . S
C2027 H1997 0.950 . S
C2027 C2022 1.363 . S
C2027 C2026 1.415 . S
H2028 C2025 0.999 . S
H2029 C2010 0.913 . S
H2030 C2048 0.951 . S
H2031 C2050 0.951 . S
H2032 C2052 0.950 . S
H2033 C2053 0.950 . S
H2034 C2055 0.950 . S
H2035 C2058 0.950 . S
H2036 C2059 0.950 . S
H2037 C2061 0.950 . S
H2038 C2062 0.950 . S
H2039 C2063 0.951 . S
H2040 C2065 0.951 . S
H2041 C2067 0.950 . S
H2042 C2068 0.950 . S
H2043 C2070 0.950 . S
H2044 C2073 0.950 . S
H2045 C2074 0.950 . S
H2046 C2076 0.950 . S
H2047 C2077 0.950 . S
C2048 H2030 0.951 . S
C2048 C2049 1.366 . S
C2048 C2050 1.388 . S
C2049 C2048 1.366 . S
C2049 C2053 1.385 . S
C2050 H2031 0.951 . S
C2050 C2048 1.388 . S
C2050 C2051 1.366 . S
C2051 C2050 1.366 . S
C2051 C2052 1.414 . S
C2051 C2054 1.499 . S
C2052 H2032 0.950 . S
C2052 C2051 1.414 . S
C2052 C2053 1.374 . S
C2053 H2033 0.950 . S
C2053 C2049 1.385 . S
C2053 C2052 1.374 . S
C2054 C2051 1.499 . S
C2054 C2055 1.373 . S
C2054 C2056 1.389 . S
C2055 H2034 0.950 . S
C2055 C2054 1.373 . S
C2055 C2071 1.377 . S
C2056 C2054 1.389 . S
C2056 C2057 1.524 . S
C2056 C2070 1.377 . S
C2057 C2056 1.524 . S
C2057 C2058 1.397 . S
C2057 C2062 1.363 . S
C2058 H2035 0.950 . S
C2058 C2057 1.397 . S
C2058 C2059 1.334 . S
C2059 H2036 0.950 . S
C2059 C2058 1.334 . S
C2059 C2060 1.287 . S
C2060 C2059 1.287 . S
C2060 C2061 1.524 . S
C2060 H2079 0.913 . S
C2061 H2037 0.950 . S
C2061 C2060 1.524 . S
C2061 C2062 1.415 . S
C2062 H2038 0.950 . S
C2062 C2057 1.363 . S
C2062 C2061 1.415 . S
C2063 H2039 0.951 . S
C2063 C2064 1.366 . S
C2063 C2065 1.388 . S
C2064 C2063 1.366 . S
C2064 C2068 1.385 . S
C2065 H2040 0.951 . S
C2065 C2063 1.388 . S
C2065 C2066 1.366 . S
C2066 C2065 1.366 . S
C2066 C2067 1.414 . S
C2066 C2069 1.499 . S
C2067 H2041 0.950 . S
C2067 C2066 1.414 . S
C2067 C2068 1.374 . S
C2068 H2042 0.950 . S
C2068 C2064 1.385 . S
C2068 C2067 1.374 . S
C2069 C2066 1.499 . S
C2069 C2070 1.373 . S
C2069 C2071 1.389 . S
C2070 H2043 0.950 . S
C2070 C2056 1.377 . S
C2070 C2069 1.373 . S
C2071 C2055 1.377 . S
C2071 C2069 1.389 . S
C2071 C2072 1.524 . S
C2072 C2071 1.524 . S
C2072 C2073 1.397 . S
C2072 C2077 1.363 . S
C2073 H2044 0.950 . S
C2073 C2072 1.397 . S
C2073 C2074 1.334 . S
C2074 H2045 0.950 . S
C2074 C2073 1.334 . S
C2074 C2075 1.287 . S
C2075 C2074 1.287 . S
C2075 C2076 1.524 . S
C2075 H2078 0.999 . S
C2076 H2046 0.950 . S
C2076 C2075 1.524 . S
C2076 C2077 1.415 . S
C2077 H2047 0.950 . S
C2077 C2072 1.363 . S
C2077 C2076 1.415 . S
H2078 C2075 0.999 . S
H2079 C2060 0.913 . S
H2080 C2098 0.951 . S
H2081 C2100 0.951 . S
H2082 C2102 0.950 . S
H2083 C2103 0.950 . S
H2084 C2105 0.950 . S
H2085 C2108 0.950 . S
H2086 C2109 0.950 . S
H2087 C2111 0.950 . S
H2088 C2112 0.950 . S
H2089 C2113 0.951 . S
H2090 C2115 0.951 . S
H2091 C2117 0.950 . S
H2092 C2118 0.950 . S
H2093 C2120 0.950 . S
H2094 C2123 0.950 . S
H2095 C2124 0.950 . S
H2096 C2126 0.950 . S
H2097 C2127 0.950 . S
C2098 H2080 0.951 . S
C2098 C2099 1.366 . S
C2098 C2100 1.388 . S
C2099 C2098 1.366 . S
C2099 C2103 1.385 . S
C2100 H2081 0.951 . S
C2100 C2098 1.388 . S
C2100 C2101 1.366 . S
C2101 C2100 1.366 . S
C2101 C2102 1.414 . S
C2101 C2104 1.499 . S
C2102 H2082 0.950 . S
C2102 C2101 1.414 . S
C2102 C2103 1.374 . S
C2103 H2083 0.950 . S
C2103 C2099 1.385 . S
C2103 C2102 1.374 . S
C2104 C2101 1.499 . S
C2104 C2105 1.373 . S
C2104 C2106 1.389 . S
C2105 H2084 0.950 . S
C2105 C2104 1.373 . S
C2105 C2121 1.377 . S
C2106 C2104 1.389 . S
C2106 C2107 1.524 . S
C2106 C2120 1.377 . S
C2107 C2106 1.524 . S
C2107 C2108 1.397 . S
C2107 C2112 1.363 . S
C2108 H2085 0.950 . S
C2108 C2107 1.397 . S
C2108 C2109 1.334 . S
C2109 H2086 0.950 . S
C2109 C2108 1.334 . S
C2109 C2110 1.287 . S
C2110 C2109 1.287 . S
C2110 C2111 1.524 . S
C2110 H2129 0.913 . S
C2111 H2087 0.950 . S
C2111 C2110 1.524 . S
C2111 C2112 1.415 . S
C2112 H2088 0.950 . S
C2112 C2107 1.363 . S
C2112 C2111 1.415 . S
C2113 H2089 0.951 . S
C2113 C2114 1.366 . S
C2113 C2115 1.388 . S
C2114 C2113 1.366 . S
C2114 C2118 1.385 . S
C2115 H2090 0.951 . S
C2115 C2113 1.388 . S
C2115 C2116 1.366 . S
C2116 C2115 1.366 . S
C2116 C2117 1.414 . S
C2116 C2119 1.499 . S
C2117 H2091 0.950 . S
C2117 C2116 1.414 . S
C2117 C2118 1.374 . S
C2118 H2092 0.950 . S
C2118 C2114 1.385 . S
C2118 C2117 1.374 . S
C2119 C2116 1.499 . S
C2119 C2120 1.373 . S
C2119 C2121 1.389 . S
C2120 H2093 0.950 . S
C2120 C2106 1.377 . S
C2120 C2119 1.373 . S
C2121 C2105 1.377 . S
C2121 C2119 1.389 . S
C2121 C2122 1.524 . S
C2122 C2121 1.524 . S
C2122 C2123 1.397 . S
C2122 C2127 1.363 . S
C2123 H2094 0.950 . S
C2123 C2122 1.397 . S
C2123 C2124 1.334 . S
C2124 H2095 0.950 . S
C2124 C2123 1.334 . S
C2124 C2125 1.287 . S
C2125 C2124 1.287 . S
C2125 C2126 1.524 . S
C2125 H2128 0.999 . S
C2126 H2096 0.950 . S
C2126 C2125 1.524 . S
C2126 C2127 1.415 . S
C2127 H2097 0.950 . S
C2127 C2122 1.363 . S
C2127 C2126 1.415 . S
H2128 C2125 0.999 . S
H2129 C2110 0.913 . S
H2130 C2148 0.951 . S
H2131 C2150 0.951 . S
H2132 C2152 0.950 . S
H2133 C2153 0.950 . S
H2134 C2155 0.950 . S
H2135 C2158 0.950 . S
H2136 C2159 0.950 . S
H2137 C2161 0.950 . S
H2138 C2162 0.950 . S
H2139 C2163 0.951 . S
H2140 C2165 0.951 . S
H2141 C2167 0.950 . S
H2142 C2168 0.950 . S
H2143 C2170 0.950 . S
H2144 C2173 0.950 . S
H2145 C2174 0.950 . S
H2146 C2176 0.950 . S
H2147 C2177 0.950 . S
C2148 H2130 0.951 . S
C2148 C2149 1.366 . S
C2148 C2150 1.388 . S
C2149 C2148 1.366 . S
C2149 C2153 1.385 . S
C2150 H2131 0.951 . S
C2150 C2148 1.388 . S
C2150 C2151 1.366 . S
C2151 C2150 1.366 . S
C2151 C2152 1.414 . S
C2151 C2154 1.499 . S
C2152 H2132 0.950 . S
C2152 C2151 1.414 . S
C2152 C2153 1.374 . S
C2153 H2133 0.950 . S
C2153 C2149 1.385 . S
C2153 C2152 1.374 . S
C2154 C2151 1.499 . S
C2154 C2155 1.373 . S
C2154 C2156 1.389 . S
C2155 H2134 0.950 . S
C2155 C2154 1.373 . S
C2155 C2171 1.377 . S
C2156 C2154 1.389 . S
C2156 C2157 1.524 . S
C2156 C2170 1.377 . S
C2157 C2156 1.524 . S
C2157 C2158 1.397 . S
C2157 C2162 1.363 . S
C2158 H2135 0.950 . S
C2158 C2157 1.397 . S
C2158 C2159 1.334 . S
C2159 H2136 0.950 . S
C2159 C2158 1.334 . S
C2159 C2160 1.287 . S
C2160 C2159 1.287 . S
C2160 C2161 1.524 . S
C2160 H2179 0.913 . S
C2161 H2137 0.950 . S
C2161 C2160 1.524 . S
C2161 C2162 1.415 . S
C2162 H2138 0.950 . S
C2162 C2157 1.363 . S
C2162 C2161 1.415 . S
C2163 H2139 0.951 . S
C2163 C2164 1.366 . S
C2163 C2165 1.388 . S
C2164 C2163 1.366 . S
C2164 C2168 1.385 . S
C2165 H2140 0.951 . S
C2165 C2163 1.388 . S
C2165 C2166 1.366 . S
C2166 C2165 1.366 . S
C2166 C2167 1.414 . S
C2166 C2169 1.499 . S
C2167 H2141 0.950 . S
C2167 C2166 1.414 . S
C2167 C2168 1.374 . S
C2168 H2142 0.950 . S
C2168 C2164 1.385 . S
C2168 C2167 1.374 . S
C2169 C2166 1.499 . S
C2169 C2170 1.373 . S
C2169 C2171 1.389 . S
C2170 H2143 0.950 . S
C2170 C2156 1.377 . S
C2170 C2169 1.373 . S
C2171 C2155 1.377 . S
C2171 C2169 1.389 . S
C2171 C2172 1.524 . S
C2172 C2171 1.524 . S
C2172 C2173 1.397 . S
C2172 C2177 1.363 . S
C2173 H2144 0.950 . S
C2173 C2172 1.397 . S
C2173 C2174 1.334 . S
C2174 H2145 0.950 . S
C2174 C2173 1.334 . S
C2174 C2175 1.287 . S
C2175 C2174 1.287 . S
C2175 C2176 1.524 . S
C2175 H2178 0.999 . S
C2176 H2146 0.950 . S
C2176 C2175 1.524 . S
C2176 C2177 1.415 . S
C2177 H2147 0.950 . S
C2177 C2172 1.363 . S
C2177 C2176 1.415 . S
H2178 C2175 0.999 . S
H2179 C2160 0.913 . S
H2180 C2198 0.951 . S
H2181 C2200 0.951 . S
H2182 C2202 0.950 . S
H2183 C2203 0.950 . S
H2184 C2205 0.950 . S
H2185 C2208 0.950 . S
H2186 C2209 0.950 . S
H2187 C2211 0.950 . S
H2188 C2212 0.950 . S
H2189 C2213 0.951 . S
H2190 C2215 0.951 . S
H2191 C2217 0.950 . S
H2192 C2218 0.950 . S
H2193 C2220 0.950 . S
H2194 C2223 0.950 . S
H2195 C2224 0.950 . S
H2196 C2226 0.950 . S
H2197 C2227 0.950 . S
C2198 H2180 0.951 . S
C2198 C2199 1.366 . S
C2198 C2200 1.388 . S
C2199 C2198 1.366 . S
C2199 C2203 1.385 . S
C2200 H2181 0.951 . S
C2200 C2198 1.388 . S
C2200 C2201 1.366 . S
C2201 C2200 1.366 . S
C2201 C2202 1.414 . S
C2201 C2204 1.499 . S
C2202 H2182 0.950 . S
C2202 C2201 1.414 . S
C2202 C2203 1.374 . S
C2203 H2183 0.950 . S
C2203 C2199 1.385 . S
C2203 C2202 1.374 . S
C2204 C2201 1.499 . S
C2204 C2205 1.373 . S
C2204 C2206 1.389 . S
C2205 H2184 0.950 . S
C2205 C2204 1.373 . S
C2205 C2221 1.377 . S
C2206 C2204 1.389 . S
C2206 C2207 1.524 . S
C2206 C2220 1.377 . S
C2207 C2206 1.524 . S
C2207 C2208 1.397 . S
C2207 C2212 1.363 . S
C2208 H2185 0.950 . S
C2208 C2207 1.397 . S
C2208 C2209 1.334 . S
C2209 H2186 0.950 . S
C2209 C2208 1.334 . S
C2209 C2210 1.287 . S
C2210 C2209 1.287 . S
C2210 C2211 1.524 . S
C2210 H2229 0.913 . S
C2211 H2187 0.950 . S
C2211 C2210 1.524 . S
C2211 C2212 1.415 . S
C2212 H2188 0.950 . S
C2212 C2207 1.363 . S
C2212 C2211 1.415 . S
C2213 H2189 0.951 . S
C2213 C2214 1.366 . S
C2213 C2215 1.388 . S
C2214 C2213 1.366 . S
C2214 C2218 1.385 . S
C2215 H2190 0.951 . S
C2215 C2213 1.388 . S
C2215 C2216 1.366 . S
C2216 C2215 1.366 . S
C2216 C2217 1.414 . S
C2216 C2219 1.499 . S
C2217 H2191 0.950 . S
C2217 C2216 1.414 . S
C2217 C2218 1.374 . S
C2218 H2192 0.950 . S
C2218 C2214 1.385 . S
C2218 C2217 1.374 . S
C2219 C2216 1.499 . S
C2219 C2220 1.373 . S
C2219 C2221 1.389 . S
C2220 H2193 0.950 . S
C2220 C2206 1.377 . S
C2220 C2219 1.373 . S
C2221 C2205 1.377 . S
C2221 C2219 1.389 . S
C2221 C2222 1.524 . S
C2222 C2221 1.524 . S
C2222 C2223 1.397 . S
C2222 C2227 1.363 . S
C2223 H2194 0.950 . S
C2223 C2222 1.397 . S
C2223 C2224 1.334 . S
C2224 H2195 0.950 . S
C2224 C2223 1.334 . S
C2224 C2225 1.287 . S
C2225 C2224 1.287 . S
C2225 C2226 1.524 . S
C2225 H2228 0.999 . S
C2226 H2196 0.950 . S
C2226 C2225 1.524 . S
C2226 C2227 1.415 . S
C2227 H2197 0.950 . S
C2227 C2222 1.363 . S
C2227 C2226 1.415 . S
H2228 C2225 0.999 . S
H2229 C2210 0.913 . S
H2230 C2248 0.951 . S
H2231 C2250 0.951 . S
H2232 C2252 0.950 . S
H2233 C2253 0.950 . S
H2234 C2255 0.950 . S
H2235 C2258 0.950 . S
H2236 C2259 0.950 . S
H2237 C2261 0.950 . S
H2238 C2262 0.950 . S
H2239 C2263 0.951 . S
H2240 C2265 0.951 . S
H2241 C2267 0.950 . S
H2242 C2268 0.950 . S
H2243 C2270 0.950 . S
H2244 C2273 0.950 . S
H2245 C2274 0.950 . S
H2246 C2276 0.950 . S
H2247 C2277 0.950 . S
C2248 H2230 0.951 . S
C2248 C2249 1.366 . S
C2248 C2250 1.388 . S
C2249 C2248 1.366 . S
C2249 C2253 1.385 . S
C2250 H2231 0.951 . S
C2250 C2248 1.388 . S
C2250 C2251 1.366 . S
C2251 C2250 1.366 . S
C2251 C2252 1.414 . S
C2251 C2254 1.499 . S
C2252 H2232 0.950 . S
C2252 C2251 1.414 . S
C2252 C2253 1.374 . S
C2253 H2233 0.950 . S
C2253 C2249 1.385 . S
C2253 C2252 1.374 . S
C2254 C2251 1.499 . S
C2254 C2255 1.373 . S
C2254 C2256 1.389 . S
C2255 H2234 0.950 . S
C2255 C2254 1.373 . S
C2255 C2271 1.377 . S
C2256 C2254 1.389 . S
C2256 C2257 1.524 . S
C2256 C2270 1.377 . S
C2257 C2256 1.524 . S
C2257 C2258 1.397 . S
C2257 C2262 1.363 . S
C2258 H2235 0.950 . S
C2258 C2257 1.397 . S
C2258 C2259 1.334 . S
C2259 H2236 0.950 . S
C2259 C2258 1.334 . S
C2259 C2260 1.287 . S
C2260 C2259 1.287 . S
C2260 C2261 1.524 . S
C2260 H2279 0.913 . S
C2261 H2237 0.950 . S
C2261 C2260 1.524 . S
C2261 C2262 1.415 . S
C2262 H2238 0.950 . S
C2262 C2257 1.363 . S
C2262 C2261 1.415 . S
C2263 H2239 0.951 . S
C2263 C2264 1.366 . S
C2263 C2265 1.388 . S
C2264 C2263 1.366 . S
C2264 C2268 1.385 . S
C2265 H2240 0.951 . S
C2265 C2263 1.388 . S
C2265 C2266 1.366 . S
C2266 C2265 1.366 . S
C2266 C2267 1.414 . S
C2266 C2269 1.499 . S
C2267 H2241 0.950 . S
C2267 C2266 1.414 . S
C2267 C2268 1.374 . S
C2268 H2242 0.950 . S
C2268 C2264 1.385 . S
C2268 C2267 1.374 . S
C2269 C2266 1.499 . S
C2269 C2270 1.373 . S
C2269 C2271 1.389 . S
C2270 H2243 0.950 . S
C2270 C2256 1.377 . S
C2270 C2269 1.373 . S
C2271 C2255 1.377 . S
C2271 C2269 1.389 . S
C2271 C2272 1.524 . S
C2272 C2271 1.524 . S
C2272 C2273 1.397 . S
C2272 C2277 1.363 . S
C2273 H2244 0.950 . S
C2273 C2272 1.397 . S
C2273 C2274 1.334 . S
C2274 H2245 0.950 . S
C2274 C2273 1.334 . S
C2274 C2275 1.287 . S
C2275 C2274 1.287 . S
C2275 C2276 1.524 . S
C2275 H2278 0.999 . S
C2276 H2246 0.950 . S
C2276 C2275 1.524 . S
C2276 C2277 1.415 . S
C2277 H2247 0.950 . S
C2277 C2272 1.363 . S
C2277 C2276 1.415 . S
H2278 C2275 0.999 . S
H2279 C2260 0.913 . S
C499 C10 0.987 . S
C514 C330 0.987 . S
C549 C50 0.986 . S
C564 C370 0.987 . S
C599 C90 0.987 . S
C614 C410 0.986 . S
C649 C450 0.987 . S
C664 C130 0.987 . S
C699 C170 0.987 . S
C714 C250 0.987 . S
C749 C290 0.987 . S
C764 C210 0.987 . S
C799 C416 1.544 . S
C814 C16 1.544 . S
C849 C456 1.544 . S
C864 C56 1.544 . S
C899 C96 1.544 . S
C914 C256 1.544 . S
C949 C296 1.545 . S
C964 C136 1.544 . S
C999 C336 1.544 . S
C1014 C176 1.544 . S
C1049 C216 1.545 . S
C1064 C376 1.544 . S
C1099 C291 4.180 . S
C1114 C11 4.180 . S
C1149 C331 4.180 . S
C1164 C51 4.180 . S
C1199 C371 4.180 . S
C1214 C91 4.180 . S
C1249 C131 4.180 . S
C1264 C411 4.180 . S
C1299 C171 4.180 . S
C1314 C451 4.180 . S
C1349 C211 4.180 . S
C1364 C251 4.179 . S
C1399 C19 0.841 . S
C1414 C139 0.840 . S
C1449 C59 0.841 . S
C1464 C179 0.840 . S
C1499 C99 0.841 . S
C1514 C219 0.839 . S
C1549 C379 0.840 . S
C1564 C259 0.839 . S
C1599 C299 0.840 . S
C1614 C419 0.839 . S
C1649 C459 0.840 . S
C1664 C339 0.841 . S
C1699 C287 0.742 . S
C1714 C7 0.740 . S
C1749 C327 0.742 . S
C1764 C47 0.743 . S
C1799 C87 0.741 . S
C1814 C367 0.742 . S
C1849 C407 0.741 . S
C1864 C127 0.740 . S
C1899 C447 0.743 . S
C1914 C167 0.741 . S
C1949 C207 0.740 . S
C1964 C247 0.742 . S
C1999 C2 4.706 . S
C2014 C402 4.706 . S
C2049 C42 4.706 . S
C2064 C442 4.706 1_556 S
C2099 C82 4.706 1_554 S
C2114 C242 4.706 . S
C2149 C122 4.706 . S
C2164 C282 4.706 . S
C2199 C162 4.706 . S
C2214 C322 4.706 1_556 S
C2249 C362 4.706 . S
C2264 C202 4.706 1_554 S
