# Generated by pormake.
# Topology rkf, (6)-cn, num edge types: 1
# Building blocks:
#     Node 0, Type 0, BuildingBlock: GEDQOX_clean_sbu_0, # of connection points: 6
#     Node 1, Type 0, BuildingBlock: GEDQOX_clean_sbu_0, # of connection points: 6
#     Node 2, Type 0, BuildingBlock: GEDQOX_clean_sbu_0, # of connection points: 6
#     Node 3, Type 0, BuildingBlock: GEDQOX_clean_sbu_0, # of connection points: 6
#     Node 4, Type 0, BuildingBlock: GEDQOX_clean_sbu_0, # of connection points: 6
#     Node 5, Type 0, BuildingBlock: GEDQOX_clean_sbu_0, # of connection points: 6
#     Edge 6, Type (0, 0), BuildingBlock: XUDNAN_clean_linker_2, # of connection points: 2
#     Edge 7, Type (0, 0), BuildingBlock: XUDNAN_clean_linker_2, # of connection points: 2
#     Edge 8, Type (0, 0), BuildingBlock: XUDNAN_clean_linker_2, # of connection points: 2
#     Edge 9, Type (0, 0), BuildingBlock: XUDNAN_clean_linker_2, # of connection points: 2
#     Edge 10, Type (0, 0), BuildingBlock: XUDNAN_clean_linker_2, # of connection points: 2
#     Edge 11, Type (0, 0), BuildingBlock: XUDNAN_clean_linker_2, # of connection points: 2
#     Edge 12, Type (0, 0), BuildingBlock: XUDNAN_clean_linker_2, # of connection points: 2
#     Edge 13, Type (0, 0), BuildingBlock: XUDNAN_clean_linker_2, # of connection points: 2
#     Edge 14, Type (0, 0), BuildingBlock: XUDNAN_clean_linker_2, # of connection points: 2
#     Edge 15, Type (0, 0), BuildingBlock: XUDNAN_clean_linker_2, # of connection points: 2
#     Edge 16, Type (0, 0), BuildingBlock: XUDNAN_clean_linker_2, # of connection points: 2
#     Edge 17, Type (0, 0), BuildingBlock: XUDNAN_clean_linker_2, # of connection points: 2
#     Edge 18, Type (0, 0), BuildingBlock: XUDNAN_clean_linker_2, # of connection points: 2
#     Edge 19, Type (0, 0), BuildingBlock: XUDNAN_clean_linker_2, # of connection points: 2
#     Edge 20, Type (0, 0), BuildingBlock: XUDNAN_clean_linker_2, # of connection points: 2
#     Edge 21, Type (0, 0), BuildingBlock: XUDNAN_clean_linker_2, # of connection points: 2
#     Edge 22, Type (0, 0), BuildingBlock: XUDNAN_clean_linker_2, # of connection points: 2
#     Edge 23, Type (0, 0), BuildingBlock: XUDNAN_clean_linker_2, # of connection points: 2
# Relax obj value: 0.760
# Max RMSD: 0.308
# Mean RMSD: 0.277
data_MOF--net-rkf--node1-GEDQOX_clean_sbu_0--edge1-XUDNAN_clean_linker_2
_symmetry_space_group_name_H-M    P1
_symmetry_Int_Tables_number       1
_symmetry_cell_setting            triclinic
loop_
_symmetry_equiv_pos_as_xyz
'x, y, z'
_cell_length_a     23.811825
_cell_length_b     23.380209
_cell_length_c     43.448965
_cell_angle_alpha  90.207954
_cell_angle_beta   89.211711
_cell_angle_gamma 124.58024
loop_
_atom_site_label
_atom_site_type_symbol
_atom_site_fract_x
_atom_site_fract_y
_atom_site_fract_z
_atom_type_partial_charge
Nd0 Nd 0.23606 0.98607 0.18721 0.0
Nd1 Nd 0.25908 0.09741 0.2035 0.0
C2 C 0.2637 0.8913 0.18272 0.0
C3 C 0.30343 0.87366 1.16366 0.0
C4 C 0.37449 0.91938 1.15964 0.0
C5 C 0.40877 0.90417 1.13828 0.0
C6 C 0.37241 0.84336 1.12039 0.0
C7 C 0.30215 0.79556 1.12641 0.0
C8 C 0.26831 0.81046 1.14788 0.0
C9 C 0.10823 0.93822 0.19476 0.0
C10 C 0.20486 0.06621 1.13508 0.0
C11 C 0.29971 0.22858 0.20802 0.0
C12 C 0.3682 0.29295 0.21075 0.0
C13 C 0.3781 0.34569 0.23019 0.0
C14 C 0.44378 0.39817 0.23952 0.0
C15 C 0.50045 0.39825 0.22966 0.0
C16 C 0.49083 0.3496 0.20749 0.0
C17 C 0.42514 0.29701 0.19828 0.0
C18 C 0.38045 0.10506 0.19207 0.0
C19 C 0.2091 0.0098 0.26436 0.0
O20 O 0.29691 0.9454 0.2007 0.0
O21 O 0.21227 0.88609 1.16926 0.0
O22 O 0.12983 0.92338 1.17046 0.0
O23 O 0.15449 -0.01012 0.21067 0.0
O24 O 0.23104 0.02873 1.13708 0.0
O25 O 0.1954 0.08641 1.16165 0.0
O26 O 0.27953 0.18661 0.2316 0.0
O27 O 0.28599 0.19598 0.18186 0.0
O28 O 0.36127 0.11127 0.21914 0.0
O29 O 0.33228 0.08602 1.17412 0.0
O30 O 0.22483 0.06915 0.25342 0.0
O31 O 0.21211 0.96832 0.24368 0.0
H32 H 0.40316 0.96793 1.17205 0.0
H33 H 0.46307 0.94165 1.13472 0.0
H34 H 0.27173 0.74871 1.11298 0.0
H35 H 0.21365 0.77398 1.15096 0.0
H36 H 0.33474 0.34316 0.24014 0.0
H37 H 0.44909 0.43422 0.25689 0.0
H38 H 0.53347 0.34853 0.1994 0.0
H39 H 0.41865 0.25665 0.18324 0.0
Nd40 Nd 0.28871 0.241 0.49711 0.0
Nd41 Nd 0.18196 0.21691 0.51491 0.0
C42 C 0.42181 0.29485 0.49247 0.0
C43 C 0.47403 0.32216 0.46799 0.0
C44 C 0.45665 0.29509 0.43816 0.0
C45 C 0.50491 0.32563 0.41439 0.0
C46 C 0.57107 0.38445 0.41989 0.0
C47 C 0.58905 0.41038 0.44992 0.0
C48 C 0.54091 0.3787 0.47393 0.0
C49 C 0.21694 0.11192 0.47969 0.0
C50 C 0.17704 0.20734 0.44227 0.0
C51 C 0.07115 0.21597 0.52321 0.0
C52 C 0.06153 0.27019 0.53236 0.0
C53 C 0.00446 0.25252 0.55025 0.0
C54 C 0.00561 0.30348 0.56765 0.0
C55 C 0.0644 0.372 0.56759 0.0
C56 C 0.11656 0.39123 0.54593 0.0
C57 C 0.11547 0.34035 0.52858 0.0
C58 C 0.29538 0.35911 0.5241 0.0
C59 C 0.21543 0.15774 0.56782 0.0
O60 O 0.39738 0.3312 0.49854 0.0
O61 O 0.37425 0.22872 0.4919 0.0
O62 O 0.25558 0.162 0.46047 0.0
O63 O 0.20347 0.13167 0.50487 0.0
O64 O 0.24456 0.2466 0.44716 0.0
O65 O 0.14015 0.17686 0.46694 0.0
O66 O 0.09626 0.19762 0.54455 0.0
O67 O 0.10009 0.22435 0.49634 0.0
O68 O 0.25962 0.31441 0.54582 0.0
O69 O 0.275 0.32603 0.4994 0.0
O70 O 0.16032 0.14275 0.5544 0.0
O71 O 0.27385 0.20387 0.55219 0.0
H72 H 0.40519 0.25176 0.43302 0.0
H73 H 0.4893 0.30548 0.3913 0.0
H74 H 0.63948 0.45607 0.45459 0.0
H75 H 0.55505 0.39996 0.49692 0.0
H76 H 0.96232 0.1986 0.55325 0.0
H77 H 0.9649 0.2876 0.58429 0.0
H78 H 0.1626 0.44352 0.54563 0.0
H79 H 0.16 0.35495 0.51475 0.0
Nd80 Nd 0.14739 0.31599 0.8663 0.0
Nd81 Nd 0.05738 0.20328 0.87015 0.0
C82 C 0.2179 0.45166 0.8531 0.0
C83 C 0.2491 0.49724 0.82607 0.0
C84 C 0.22782 0.54031 0.81836 0.0
C85 C 0.23754 0.56618 0.78845 0.0
C86 C 0.26896 0.54925 0.76617 0.0
C87 C 0.3004 0.51632 0.77544 0.0
C88 C 0.28959 0.48936 0.80515 0.0
C89 C 0.22684 0.27385 0.87161 0.0
C90 C 0.08447 0.20615 0.80219 0.0
C91 C 0.93829 0.09178 0.88744 0.0
C92 C 0.87581 0.08759 0.89573 0.0
C93 C 0.84241 0.05668 0.92376 0.0
C94 C 0.79948 0.07288 0.93732 0.0
C95 C 0.78979 0.12064 0.92311 0.0
C96 C 0.81704 0.14509 0.89343 0.0
C97 C 0.85972 0.12873 0.87985 0.0
C98 C 0.02202 0.30215 0.87131 0.0
C99 C 0.13419 0.2356 0.9314 0.0
O100 O 0.24545 0.42079 0.86318 0.0
O101 O 0.15191 0.40985 0.85245 0.0
O102 O 0.23743 0.32762 0.88582 0.0
O103 O 0.16957 0.23631 0.85713 0.0
O104 O 0.12157 0.27255 0.81232 0.0
O105 O 0.05398 0.15938 0.82353 0.0
O106 O -0.01154 0.129 0.90638 0.0
O107 O 0.95834 0.10532 0.85862 0.0
O108 O 0.01882 0.26812 0.84701 0.0
O109 O 0.05454 0.29243 0.89047 0.0
O110 O 0.10672 0.18588 0.9112 0.0
O111 O 0.14564 0.29533 0.92117 0.0
H112 H 0.19743 0.54772 0.83451 0.0
H113 H 0.21291 0.59148 0.78191 0.0
H114 H 0.32554 0.50342 0.75862 0.0
H115 H 0.30735 0.45706 0.81067 0.0
H116 H 0.85453 0.02538 0.93654 0.0
H117 H 0.77986 0.0537 0.96035 0.0
H118 H 0.81021 0.18172 0.8819 0.0
H119 H 0.88483 0.15345 0.8582 0.0
Nd120 Nd 0.94878 0.15478 1.16297 0.0
Nd121 Nd 0.83819 0.01337 1.17391 0.0
C122 C 0.01278 0.28576 1.14546 0.0
C123 C -0.01401 0.31968 1.12821 0.0
C124 C 0.93303 0.32313 1.14073 0.0
C125 C 0.89468 0.33642 1.12181 0.0
C126 C 0.90831 0.34619 1.09002 0.0
C127 C 0.96653 0.35105 1.07836 0.0
C128 C 0.00501 0.33809 1.0973 0.0
C129 C -0.01269 0.06612 0.17565 0.0
C130 C 0.90349 0.0421 1.1034 0.0
C131 C 0.74425 0.88871 0.19619 0.0
C132 C 0.68736 0.8679 0.21774 0.0
C133 C 0.68668 0.84057 0.24653 0.0
C134 C 0.65216 0.84572 0.27146 0.0
C135 C 0.61733 0.8777 0.26777 0.0
C136 C 0.60965 0.89518 0.23796 0.0
C137 C 0.64496 0.89102 0.21314 0.0
C138 C 0.78819 0.09242 1.16006 0.0
C139 C 0.93902 0.11454 0.2348 0.0
O140 O -0.01294 0.26379 1.17304 0.0
O141 O 0.01796 0.24047 1.13024 0.0
O142 O 0.02155 0.12973 0.18575 0.0
O143 O 0.943 0.05828 1.1581 0.0
O144 O 0.93024 0.10826 1.11155 0.0
O145 O 0.87032 -0.00634 1.12519 0.0
O146 O 0.80432 0.92986 0.20826 0.0
O147 O 0.74096 0.9092 1.16875 0.0
O148 O 0.76805 0.03349 1.14788 0.0
O149 O 0.83741 0.11087 0.17813 0.0
O150 O 0.884 0.05422 0.22483 0.0
O151 O 0.97508 0.16547 0.21475 0.0
H152 H 0.91756 0.31033 1.16466 0.0
H153 H 0.85101 0.33342 1.13162 0.0
H154 H 0.97873 0.35785 1.05398 0.0
H155 H 0.04591 0.3365 1.08713 0.0
H156 H 0.71899 0.82249 0.25057 0.0
H157 H 0.65925 0.83172 0.2941 0.0
H158 H 0.58164 0.91822 0.23435 0.0
H159 H 0.64406 0.91211 0.19114 0.0
Nd160 Nd 0.91833 0.94441 0.52232 0.0
Nd161 Nd 0.89641 0.82511 0.53978 0.0
C162 C 0.90996 0.0509 0.51173 0.0
C163 C 0.8606 0.05894 0.4958 0.0
C164 C 0.88176 0.10233 0.46988 0.0
C165 C 0.83361 0.1007 0.45121 0.0
C166 C 0.76351 0.05578 0.45829 0.0
C167 C 0.74303 0.01701 0.48572 0.0
C168 C 0.79108 0.01836 0.50428 0.0
C169 C 0.03917 0.94701 0.52458 0.0
C170 C 0.92727 0.86998 0.46422 0.0
C171 C 0.88907 0.71307 0.55725 0.0
C172 C 0.91109 0.678 0.57635 0.0
C173 C 0.97991 0.70808 0.5832 0.0
C174 C -0.00184 0.67151 0.60112 0.0
C175 C 0.94778 0.60463 0.61246 0.0
C176 C 0.87942 0.57423 0.6042 0.0
C177 C 0.86148 0.6105 0.58634 0.0
C178 C 0.77123 0.79248 0.51931 0.0
C179 C 0.94342 0.9524 0.59477 0.0
O180 O 0.88861 0.01445 0.53713 0.0
O181 O 0.94536 0.03637 0.49432 0.0
O182 O 0.02383 0.97283 0.50257 0.0
O183 O -0.0066 0.92532 0.54458 0.0
O184 O 0.90063 0.90395 0.47251 0.0
O185 O 0.93522 0.83714 0.48707 0.0
O186 O 0.93164 0.7563 0.53621 0.0
O187 O 0.85087 0.73112 0.56961 0.0
O188 O 0.80351 0.76778 0.5081 0.0
O189 O 0.81192 0.84324 0.53693 0.0
O190 O 0.91949 0.88498 0.58995 0.0
O191 O 0.95213 -0.01066 0.57038 0.0
H192 H 0.93512 0.1343 0.46303 0.0
H193 H 0.85104 0.13061 0.43002 0.0
H194 H 0.68945 0.98246 0.49186 0.0
H195 H 0.77314 0.98468 0.52432 0.0
H196 H 0.01921 0.75996 0.57517 0.0
H197 H 0.05121 0.69648 0.60701 0.0
H198 H 0.83865 0.52384 0.61302 0.0
H199 H 0.80827 0.58617 0.58081 0.0
Nd200 Nd 0.96997 0.82473 0.83475 0.0
Nd201 Nd 0.10287 0.86696 0.84916 0.0
C202 C 0.84057 0.74307 0.82007 0.0
C203 C 0.80629 0.66794 0.81504 0.0
C204 C 0.82361 0.63143 0.83398 0.0
C205 C 0.82235 0.57508 0.82236 0.0
C206 C 0.80312 0.55436 0.7919 0.0
C207 C 0.77372 0.58224 0.77519 0.0
C208 C 0.77578 0.63935 0.78665 0.0
C209 C 0.06493 0.96732 0.84275 0.0
C210 C 0.0748 0.89336 0.77378 0.0
C211 C 0.23142 0.90958 0.85525 0.0
C212 C 0.2728 0.89814 0.87607 0.0
C213 C 0.29913 0.93746 0.90303 0.0
C214 C 0.33526 0.92485 0.92359 0.0
C215 C 0.34725 0.8734 0.91754 0.0
C216 C 0.32303 0.83565 0.89 0.0
C217 C 0.28629 0.84805 0.8694 0.0
C218 C 0.01286 0.72579 0.8617 0.0
C219 C 0.00791 0.87168 0.90707 0.0
O220 O 0.86022 0.76429 0.84815 0.0
O221 O 0.88833 0.78267 0.79981 0.0
O222 O 0.00395 0.93517 0.85478 0.0
O223 O 0.06752 0.92427 0.82789 0.0
O224 O 0.01059 0.86477 0.78341 0.0
O225 O 0.11855 0.89945 0.79501 0.0
O226 O 0.20599 0.94215 0.86691 0.0
O227 O 0.18865 0.85817 0.83729 0.0
O228 O 0.05381 0.77266 0.88107 0.0
O229 O 0.01267 0.75574 0.83716 0.0
O230 O 0.07143 0.89757 0.89654 0.0
O231 O 0.95723 0.83198 0.88803 0.0
H232 H 0.84714 0.65189 0.8561 0.0
H233 H 0.84559 0.55455 0.83549 0.0
H234 H 0.7592 0.56723 0.75147 0.0
H235 H 0.76223 0.66653 0.77165 0.0
H236 H 0.29053 0.9771 0.90871 0.0
H237 H 0.35149 0.95395 0.94485 0.0
H238 H 0.33176 0.79604 0.88455 0.0
H239 H 0.2676 0.81769 0.84852 0.0
H240 H 0.91295 0.9362 1.15605 0.0
H241 H 0.01657 0.05814 0.23625 0.0
H242 H 0.96466 0.95169 0.26688 0.0
H243 H 0.7869 0.75012 0.21807 0.0
H244 H 0.78694 0.70067 0.18631 0.0
H245 H 0.76296 0.76047 0.18067 0.0
H246 H 0.84469 0.81296 1.137 0.0
H247 H 0.87723 0.76059 1.14245 0.0
H248 H 0.93428 0.85391 1.14121 0.0
H249 H 0.96553 0.84873 0.27875 0.0
H250 H 0.07898 0.91226 0.25625 0.0
H251 H -0.00378 0.82791 1.16789 0.0
C252 C 0.92232 0.93956 0.18046 0.0
C253 C 0.96786 0.00483 0.194 0.0
C254 C 0.98146 0.00863 0.22545 0.0
C255 C 0.94982 0.94787 0.24312 0.0
C256 C 0.90984 0.88268 0.22853 0.0
C257 C 0.89203 0.87858 0.19778 0.0
C258 C 0.87331 0.81038 0.18473 0.0
C259 C 0.79832 0.75211 0.19304 0.0
C260 C 0.88335 0.80964 1.14934 0.0
C261 C 0.92194 0.80456 0.20426 0.0
C262 C 0.91954 0.82662 0.23435 0.0
C263 C 0.97131 0.84216 0.25456 0.0
C264 C 0.03661 0.8796 0.24172 0.0
C265 C 0.0446 0.8818 0.20962 0.0
C266 C -0.01163 0.8319 0.19215 0.0
H267 H 0.11856 0.93158 0.56494 0.0
H268 H 0.0465 0.88444 0.47204 0.0
H269 H 0.1088 0.8358 0.46254 0.0
H270 H 0.2293 0.03023 0.56673 0.0
H271 H 0.31255 0.04813 0.57008 0.0
H272 H 0.24219 0.97604 0.59046 0.0
H273 H 0.33786 0.96307 0.5497 0.0
H274 H 0.27651 0.8883 0.52788 0.0
H275 H 0.2623 0.89117 0.56829 0.0
H276 H 0.21517 0.9287 0.43825 0.0
H277 H 0.20517 0.02708 0.43296 0.0
H278 H 0.28045 0.09212 0.5243 0.0
C279 C 0.11841 0.91328 0.54221 0.0
C280 C 0.07677 0.91374 0.51947 0.0
C281 C 0.07314 0.88283 0.49107 0.0
C282 C 0.11126 0.8559 0.48537 0.0
C283 C 0.17104 0.88581 0.50205 0.0
C284 C 0.17082 0.90476 0.53292 0.0
C285 C 0.24449 0.95829 0.54099 0.0
C286 C 0.25736 0.00581 0.56868 0.0
C287 C 0.28237 0.9231 0.54692 0.0
C288 C 0.26537 -0.00497 0.51019 0.0
C289 C 0.23439 0.94433 0.48717 0.0
C290 C 0.23065 0.96469 0.45719 0.0
C291 C 0.22244 0.01907 0.45444 0.0
C292 C 0.23171 0.05907 0.48045 0.0
C293 C 0.2646 0.05457 0.50605 0.0
H294 H 0.18321 0.03168 0.81311 0.0
H295 H 0.09851 0.02549 0.90203 0.0
H296 H 0.21263 0.09477 0.92295 0.0
H297 H 0.38518 0.12711 0.85035 0.0
H298 H 0.41708 0.18171 0.81662 0.0
H299 H 0.35464 0.08936 0.81316 0.0
H300 H 0.28529 0.11399 0.78156 0.0
H301 H 0.33829 0.20662 0.78665 0.0
H302 H 0.24865 0.15733 0.79662 0.0
H303 H 0.33348 0.20465 0.9303 0.0
H304 H 0.28633 0.27322 0.92358 0.0
H305 H 0.29155 0.25346 0.8255 0.0
C306 C 0.18856 0.04654 0.83684 0.0
C307 C 0.13075 0.02365 0.85561 0.0
C308 C 0.1406 0.04192 0.88681 0.0
C309 C 0.20627 0.08005 0.89901 0.0
C310 C 0.26329 0.1073 0.87925 0.0
C311 C 0.25404 0.08991 0.84821 0.0
C312 C 0.31295 0.14708 0.82973 0.0
C313 C 0.37083 0.13571 0.82744 0.0
C314 C 0.29511 0.15699 0.79679 0.0
C315 C 0.33098 0.20461 0.85214 0.0
C316 C 0.32432 0.17871 0.88219 0.0
C317 C 0.32796 0.2181 0.90727 0.0
C318 C 0.29956 0.25556 0.90342 0.0
C319 C 0.27845 0.25943 0.87394 0.0
C320 C 0.30365 0.24439 0.84807 0.0
H321 H 0.22418 0.05454 1.06871 0.0
H322 H 0.14756 0.13885 1.13284 0.0
H323 H 0.12619 0.19128 1.09018 0.0
H324 H 0.30617 0.20311 1.01561 0.0
H325 H 0.2833 0.15284 0.98081 0.0
H326 H 0.29296 0.11912 1.01608 0.0
H327 H 0.16721 0.00691 1.01216 0.0
H328 H 0.16567 0.04197 0.97551 0.0
H329 H 0.10093 0.01965 1.0038 0.0
H330 H 0.11819 0.24444 1.04017 0.0
H331 H 0.11183 0.27872 0.98704 0.0
H332 H 0.182 0.15613 0.95164 0.0
C333 C 0.20227 0.08333 1.07387 0.0
C334 C 0.18852 0.0916 1.10544 0.0
C335 C 0.15983 0.13068 1.10987 0.0
C336 C 0.14719 0.16146 1.08538 0.0
C337 C 0.16224 0.1537 1.05515 0.0
C338 C 0.18803 0.11449 1.04902 0.0
C339 C 0.19899 0.1151 1.0138 0.0
C340 C 0.27489 0.1496 1.00613 0.0
C341 C 0.15574 0.04141 1.0006 0.0
C342 C 0.17449 0.15935 1.00158 0.0
C343 C 0.15485 0.18218 1.02605 0.0
C344 C 0.13299 0.22599 1.02093 0.0
C345 C 0.12986 0.24587 0.9904 0.0
C346 C 0.14651 0.22107 0.9644 0.0
C347 C 0.16898 0.17668 0.97059 0.0
H348 H 0.21772 0.25285 0.37722 0.0
H349 H 0.03971 0.12463 0.43653 0.0
H350 H 0.96574 0.08792 0.39245 0.0
H351 H 0.13134 0.30919 0.32833 0.0
H352 H 0.17067 0.30918 0.29259 0.0
H353 H 0.21458 0.3245 0.32835 0.0
H354 H 0.22492 0.22067 0.31762 0.0
H355 H 0.18482 0.21048 0.28118 0.0
H356 H 0.14889 0.13801 0.30727 0.0
H357 H 0.90536 0.05571 0.34108 0.0
H358 H 0.86566 0.0453 0.28771 0.0
H359 H 0.07346 0.20128 0.2583 0.0
C360 C 0.16335 0.21689 0.38102 0.0
C361 C 0.13689 0.19128 0.41168 0.0
C362 C 0.06415 0.14543 0.41434 0.0
C363 C 0.02031 0.12343 0.38896 0.0
C364 C 0.04737 0.14813 0.35961 0.0
C365 C 0.11712 0.19496 0.35531 0.0
C366 C 0.1305 0.21606 0.32089 0.0
C367 C 0.16378 0.29441 0.31733 0.0
C368 C 0.17508 0.19517 0.30588 0.0
C369 C 0.0581 0.17367 0.30707 0.0
C370 C 0.01128 0.13387 0.32999 0.0
C371 C 0.94183 0.08762 0.3231 0.0
C372 C 0.91936 0.08189 0.29241 0.0
C373 C 0.96504 0.12304 0.26809 0.0
C374 C 0.03596 0.16981 0.27602 0.0
H375 H 0.98306 0.07603 0.77778 0.0
H376 H 0.15964 0.27626 0.74828 0.0
H377 H 0.14331 0.23111 0.69488 0.0
H378 H 0.00544 0.96561 0.72655 0.0
H379 H 0.91581 0.90565 0.71974 0.0
H380 H 0.94436 0.95353 0.75531 0.0
H381 H 0.86955 -0.00072 0.74394 0.0
H382 H 0.84345 0.95276 0.70803 0.0
H383 H 0.88269 0.04515 0.7084 0.0
H384 H 0.10641 0.1632 0.64314 0.0
H385 H 0.05597 0.08338 0.59956 0.0
H386 H 0.89703 0.92406 0.6596 0.0
C387 C 0.01855 0.11102 0.76016 0.0
C388 C 0.07341 0.18099 0.76824 0.0
C389 C 0.11736 0.22341 0.74367 0.0
C390 C 0.10825 0.19774 0.71294 0.0
C391 C 0.05398 0.12911 0.70606 0.0
C392 C 0.00936 0.08641 0.72906 0.0
C393 C 0.95373 0.01526 0.71525 0.0
C394 C 0.95483 0.95649 0.73016 0.0
C395 C 0.88315 0.00233 0.71914 0.0
C396 C 0.97453 0.02352 0.68094 0.0
C397 C 0.03264 0.09002 0.6764 0.0
C398 C 0.06151 0.11114 0.64695 0.0
C399 C 0.03186 0.06442 0.62195 0.0
C400 C 0.97268 -0.00503 0.62507 0.0
C401 C 0.94305 0.97522 0.65559 0.0
H402 H 0.91111 0.9293 1.08484 0.0
H403 H 0.93405 0.11414 1.04863 0.0
H404 H 0.9598 0.0885 0.9971 0.0
H405 H 0.0477 0.94599 1.04435 0.0
H406 H 0.01159 0.85764 1.03258 0.0
H407 H 0.98173 0.87559 1.0672 0.0
H408 H 0.85901 0.80979 1.05152 0.0
H409 H 0.8812 0.78067 1.01793 0.0
H410 H 0.83706 0.82226 1.01378 0.0
H411 H 0.96842 0.03417 0.94739 0.0
H412 H -0.01444 0.9742 0.9059 0.0
H413 H 0.98379 0.83566 0.97241 0.0
C414 C 0.92096 0.96422 1.06603 0.0
C415 C 0.91881 0.02385 1.07147 0.0
C416 C 0.93408 0.06813 1.0458 0.0
C417 C 0.94879 0.05366 1.01612 0.0
C418 C 0.94995 -0.00515 1.0116 0.0
C419 C 0.93766 0.95129 1.03597 0.0
C420 C 0.94547 0.89329 1.0246 0.0
C421 C -8e-05 0.89317 1.04317 0.0
C422 C 0.8766 0.82229 1.02712 0.0
C423 C 0.96664 0.91261 0.99034 0.0
C424 C 0.96534 0.9696 0.98341 0.0
C425 C 0.97294 -0.00805 0.95297 0.0
C426 C 0.98385 0.95751 0.92924 0.0
C427 C -0.00662 0.90367 0.93508 0.0
C428 C 0.98214 0.87963 0.96659 0.0
H429 H 0.9481 0.79648 0.41525 0.0
H430 H 0.01381 0.00277 0.44513 0.0
H431 H 0.09749 0.05359 0.40263 0.0
H432 H 0.11722 0.84558 0.38469 0.0
H433 H 0.08415 0.79115 0.35109 0.0
H434 H 0.0322 0.76713 0.38556 0.0
H435 H -0.01102 0.78633 0.31976 0.0
H436 H 0.95619 0.83528 0.33337 0.0
H437 H 0.93802 0.76046 0.35458 0.0
H438 H 0.17469 0.08752 0.35754 0.0
H439 H 0.23278 0.10187 0.30856 0.0
H440 H 0.11673 0.8776 0.29855 0.0
C441 C 0.97935 0.8524 0.41266 0.0
C442 C 0.97252 0.89492 0.43453 0.0
C443 C 0.0158 0.96789 0.42944 0.0
C444 C 0.06413 -0.00209 0.40508 0.0
C445 C 0.06891 0.95563 0.38408 0.0
C446 C 0.0272 0.88428 0.38702 0.0
C447 C 0.04236 0.85251 0.35941 0.0
C448 C 0.07063 0.81162 0.37087 0.0
C449 C 0.97755 0.80584 0.34062 0.0
C450 C 0.09759 0.91717 0.34048 0.0
C451 C 0.11261 0.97566 0.35615 0.0
C452 C 0.16233 0.04183 0.34492 0.0
C453 C 0.19558 0.04937 0.31658 0.0
C454 C 0.17985 -0.00815 0.29799 0.0
C455 C 0.13086 0.92385 0.31116 0.0
H456 H 0.06561 0.86258 0.70847 0.0
H457 H 0.14117 0.03479 0.77104 0.0
H458 H 0.19381 0.11711 0.72798 0.0
H459 H 0.21159 0.95879 0.64749 0.0
H460 H 0.14731 0.90788 0.61881 0.0
H461 H 0.13672 0.87416 0.65697 0.0
H462 H 0.02142 0.85286 0.64975 0.0
H463 H 0.03812 0.91061 0.61823 0.0
H464 H 0.01237 0.92238 0.65582 0.0
H465 H 0.24878 0.18541 0.67612 0.0
H466 H 0.2728 0.22931 0.6223 0.0
H467 H 0.13557 0.01902 0.59044 0.0
C468 C 0.09429 0.91764 0.71326 0.0
C469 C 0.10298 0.94098 0.74465 0.0
C470 C 0.13841 0.0141 0.74856 0.0
C471 C 0.16774 0.06206 0.72365 0.0
C472 C 0.16067 0.03797 0.69348 0.0
C473 C 0.1231 0.96715 0.68806 0.0
C474 C 0.11797 0.95538 0.65296 0.0
C475 C 0.15592 0.92239 0.64349 0.0
C476 C 0.04311 0.90778 0.64346 0.0
C477 C 0.1548 0.03037 0.63969 0.0
C478 C 0.18293 0.07705 0.66364 0.0
C479 C 0.22602 0.14886 0.65735 0.0
C480 C 0.24009 0.1738 0.62632 0.0
C481 C 0.20914 0.12844 0.60087 0.0
C482 C 0.16401 0.05543 0.60847 0.0
H483 H 0.47595 0.104 0.22889 0.0
H484 H 0.43345 0.12329 1.13425 0.0
H485 H 0.53788 0.13308 1.11714 0.0
H486 H 0.66319 0.21886 0.22519 0.0
H487 H 0.67438 0.16241 0.24847 0.0
H488 H 0.5995 0.16305 0.2537 0.0
H489 H 0.52369 0.03078 0.24495 0.0
H490 H 0.5976 0.02937 0.23841 0.0
H491 H 0.53274 -0.00458 0.20971 0.0
H492 H 0.64503 0.13625 1.10954 0.0
H493 H 0.74192 0.12494 1.11161 0.0
H494 H 0.71741 0.09984 0.21064 0.0
C495 C 0.48942 0.11169 0.20465 0.0
C496 C 0.44641 0.11399 0.18299 0.0
C497 C 0.46528 0.12193 1.15139 0.0
C498 C 0.52492 0.12776 1.14141 0.0
C499 C 0.56602 0.12513 1.16316 0.0
C500 C 0.54891 0.11676 0.19412 0.0
C501 C 0.59885 0.1091 0.21223 0.0
C502 C 0.63619 0.1668 0.23633 0.0
C503 C 0.56083 0.03682 0.22723 0.0
C504 C 0.64792 0.11655 0.18686 0.0
C505 C 0.62755 0.12567 1.15871 0.0
C506 C 0.66187 0.13019 1.13154 0.0
C507 C 0.71744 0.12421 1.13295 0.0
C508 C 0.73962 0.11427 1.16128 0.0
C509 C 0.70417 0.11072 0.18872 0.0
H510 H 0.3989 0.44493 0.48085 0.0
H511 H 0.34391 0.43775 0.57689 0.0
H512 H 0.45319 0.55181 0.58501 0.0
H513 H 0.57639 0.5174 0.49363 0.0
H514 H 0.60582 0.56956 0.4591 0.0
H515 H 0.52119 0.49085 0.46082 0.0
H516 H 0.4721 0.56132 0.44623 0.0
H517 H 0.55682 0.64029 0.44529 0.0
H518 H 0.49166 0.6342 0.4696 0.0
H519 H 0.5738 0.66993 0.58288 0.0
H520 H 0.69321 0.7687 0.57196 0.0
H521 H 0.6749 0.69584 0.47848 0.0
C522 C 0.40938 0.46747 0.50353 0.0
C523 C 0.36131 0.43123 0.52819 0.0
C524 C 0.37871 0.46352 0.55749 0.0
C525 C 0.44111 0.52883 0.56237 0.0
C526 C 0.48752 0.56255 0.53779 0.0
C527 C 0.47249 0.5324 0.50896 0.0
C528 C 0.53283 0.57724 0.48684 0.0
C529 C 0.56068 0.53628 0.47435 0.0
C530 C 0.5121 0.60489 0.46042 0.0
C531 C 0.5846 0.63649 0.50772 0.0
C532 C 0.55697 0.628 0.5369 0.0
C533 C 0.59535 0.67652 0.56002 0.0
C534 C 0.6635 0.73337 0.55354 0.0
C535 C 0.69442 0.74178 0.52421 0.0
C536 C 0.65324 0.6923 0.50105 0.0
H537 H 0.00544 0.37626 0.82447 0.0
H538 H 0.02571 0.36814 0.92283 0.0
H539 H 0.01128 0.46396 0.92997 0.0
H540 H 0.10921 0.56682 0.82291 0.0
H541 H 0.06279 0.57282 0.79237 0.0
H542 H 0.06714 0.49848 0.79472 0.0
H543 H 0.93473 0.41656 0.79551 0.0
H544 H 0.9318 0.49141 0.79262 0.0
H545 H 0.8873 0.43056 0.82368 0.0
H546 H -0.00958 0.55724 0.92736 0.0
H547 H -0.00846 0.66036 0.91542 0.0
H548 H 0.00256 0.62742 0.81779 0.0
C549 C 0.00518 0.39366 0.84755 0.0
C550 C 0.01233 0.36092 0.87351 0.0
C551 C 0.01599 0.38883 0.90293 0.0
C552 C 0.00851 0.44396 0.90714 0.0
C553 C -0.0003 0.47371 0.88149 0.0
C554 C 0.00042 0.45137 0.85213 0.0
C555 C -0.00174 0.4989 0.82859 0.0
C556 C 0.06321 0.53634 0.80842 0.0
C557 C 0.93413 0.45674 0.80895 0.0
C558 C -0.00466 0.55072 0.8493 0.0
C559 C -0.00522 0.53343 0.87976 0.0
C560 C -0.00833 0.57161 0.90358 0.0
C561 C -0.00802 0.63039 0.89645 0.0
C562 C -0.00329 0.65315 0.86566 0.0
C563 C -0.00267 0.61146 0.84158 0.0
H564 H 0.56566 0.34439 0.25234 0.0
H565 H 0.57133 0.53247 0.2514 0.0
H566 H 0.63994 0.57165 0.29836 0.0
H567 H 0.51676 0.30076 0.31812 0.0
H568 H 0.56412 0.26639 0.33051 0.0
H569 H 0.5512 0.27005 0.29051 0.0
H570 H 0.68111 0.3426 0.2801 0.0
H571 H 0.69487 0.33847 0.32053 0.0
H572 H 0.73689 0.42142 0.30127 0.0
H573 H 0.66132 0.5676 0.35233 0.0
H574 H 0.62929 0.51991 0.40489 0.0
H575 H 0.60795 0.33268 0.37422 0.0
C576 C 0.58563 0.39603 0.26083 0.0
C577 C 0.5632 0.43531 0.24836 0.0
C578 C 0.58808 0.50159 0.26061 0.0
C579 C 0.62748 0.52434 0.28728 0.0
C580 C 0.64186 0.4804 0.30133 0.0
C581 C 0.62309 0.41802 0.28797 0.0
C582 C 0.62777 0.37189 0.31072 0.0
C583 C 0.56097 0.29814 0.31258 0.0
C584 C 0.68882 0.36845 0.30267 0.0
C585 C 0.64066 0.41265 0.34 0.0
C586 C 0.65343 0.47725 0.33385 0.0
C587 C 0.65397 0.51847 0.35739 0.0
C588 C 0.6358 0.49106 0.38731 0.0
C589 C 0.61634 0.42273 0.39324 0.0
C590 C 0.62383 0.38549 0.36992 0.0
H591 H 0.0703 0.32614 0.62238 0.0
H592 H 0.10992 0.50961 0.57612 0.0
H593 H 0.16679 0.57921 0.62318 0.0
H594 H 0.04714 0.36327 0.70111 0.0
H595 H 0.09329 0.32979 0.71615 0.0
H596 H 0.04594 0.29476 0.68121 0.0
H597 H 0.155 0.32143 0.65346 0.0
H598 H 0.2047 0.35987 0.68759 0.0
H599 H 0.23014 0.4093 0.65233 0.0
H600 H 0.22424 0.6277 0.6765 0.0
H601 H 0.27685 0.64899 0.72817 0.0
H602 H 0.20823 0.4333 0.73279 0.0
C603 C 0.08797 0.38029 0.62258 0.0
C604 C 0.08343 0.4122 0.59627 0.0
C605 C 0.11116 0.48413 0.5966 0.0
C606 C 0.14386 0.52386 0.62306 0.0
C607 C 0.14963 0.49076 0.64834 0.0
C608 C 0.12237 0.42043 0.648 0.0
C609 C 0.14182 0.39758 0.6758 0.0
C610 C 0.07827 0.34318 0.69468 0.0
C611 C 0.18547 0.37045 0.66672 0.0
C612 C 0.18349 0.46566 0.69236 0.0
C613 C 0.18741 0.51913 0.67665 0.0
C614 C 0.22202 0.58622 0.68875 0.0
C615 C 0.2521 0.59805 0.71787 0.0
C616 C 0.24846 0.54331 0.73384 0.0
C617 C 0.21422 0.47687 0.72061 0.0
H618 H 0.85334 0.25901 0.92837 0.0
H619 H 0.67921 0.06351 0.96262 0.0
H620 H 0.66662 0.12525 1.00556 0.0
H621 H 0.9279 0.30611 0.99482 0.0
H622 H 0.96913 0.39814 0.9886 0.0
H623 H 0.94248 0.34074 0.95668 0.0
H624 H 0.87373 0.39247 0.93869 0.0
H625 H 0.8982 0.44391 0.97323 0.0
H626 H 0.80925 0.38431 0.96421 0.0
H627 H 0.69594 0.19242 1.05166 0.0
H628 H 0.7703 0.25119 1.09541 0.0
H629 H 0.9261 0.41032 1.03481 0.0
C630 C 0.80982 0.22991 0.94383 0.0
C631 C 0.76668 0.15681 0.94201 0.0
C632 C 0.71216 0.1197 0.96337 0.0
C633 C 0.70438 0.15443 0.98769 0.0
C634 C 0.7515 0.22609 0.99048 0.0
C635 C 0.80316 0.26364 0.96885 0.0
C636 C 0.85817 0.33461 0.98104 0.0
C637 C 0.92852 0.34556 0.98031 0.0
C638 C 0.85992 0.39225 0.96324 0.0
C639 C 0.83301 0.32886 1.01379 0.0
C640 C 0.76978 0.26691 1.01846 0.0
C641 C 0.74428 0.24185 1.04807 0.0
C642 C 0.78714 0.27601 1.07308 0.0
C643 C 0.85496 0.33431 1.06827 0.0
C644 C 0.8746 0.36538 1.03887 0.0
H645 H 0.56502 0.81699 0.32431 0.0
H646 H 0.65137 0.00894 0.27362 0.0
H647 H 0.6601 0.06952 0.32099 0.0
H648 H 0.49089 0.86344 0.39457 0.0
H649 H 0.51851 0.82407 0.42034 0.0
H650 H 0.48834 0.78813 0.38255 0.0
H651 H 0.60112 0.79886 0.37131 0.0
H652 H 0.63128 0.83457 0.4087 0.0
H653 H 0.68121 0.88237 0.37506 0.0
H654 H 0.69658 0.11747 0.3719 0.0
H655 H 0.75868 0.14708 0.42068 0.0
H656 H 0.65807 0.9281 0.44066 0.0
C657 C 0.58218 0.87087 0.32321 0.0
C658 C 0.60445 0.90738 0.295 0.0
C659 C 0.62942 0.9786 0.29445 0.0
C660 C 0.63554 0.01388 0.32156 0.0
C661 C 0.61756 0.97769 0.34933 0.0
C662 C 0.59059 0.90729 0.35039 0.0
C663 C 0.59088 0.88429 0.3829 0.0
C664 C 0.5178 0.83721 0.39585 0.0
C665 C 0.62843 0.84805 0.38455 0.0
C666 C 0.62956 0.95389 0.39903 0.0
C667 C 0.64147 0.00664 0.37967 0.0
C668 C 0.68569 0.0765 0.38764 0.0
C669 C 0.72119 0.09299 0.4153 0.0
C670 C 0.71273 0.03983 0.43446 0.0
C671 C 0.66374 0.96966 0.42692 0.0
H672 H 0.03293 0.67051 0.66022 0.0
H673 H 0.8923 0.46574 0.62279 0.0
H674 H 0.86465 0.41635 0.6749 0.0
H675 H 0.06621 0.59709 0.73831 0.0
H676 H 0.07257 0.66744 0.75921 0.0
H677 H 0.10923 0.68202 0.72104 0.0
H678 H 0.04154 0.7302 0.70319 0.0
H679 H 0.00462 0.71713 0.74054 0.0
H680 H 0.94981 0.67796 0.70776 0.0
H681 H 0.80809 0.40421 0.7237 0.0
H682 H 0.75148 0.4265 0.76555 0.0
H683 H 0.93309 0.63353 0.77583 0.0
C684 C 0.00041 0.61469 0.66287 0.0
C685 C 0.96219 0.57244 0.63784 0.0
C686 C 0.92035 0.49949 0.64194 0.0
C687 C 0.90457 0.47086 0.67159 0.0
C688 C 0.93372 0.51564 0.6966 0.0
C689 C 0.98446 0.58584 0.69249 0.0
C690 C -0.00195 0.6254 0.72224 0.0
C691 C 0.06547 0.64402 0.73606 0.0
C692 C -0.00175 0.69128 0.71813 0.0
C693 C 0.93785 0.57014 0.7414 0.0
C694 C 0.90299 0.50613 0.72691 0.0
C695 C 0.83678 0.45249 0.73629 0.0
C696 C 0.80457 0.46538 0.75993 0.0
C697 C 0.83934 0.53084 0.7742 0.0
C698 C 0.90745 0.58216 0.76588 0.0
H699 H 0.45191 0.96289 0.95522 0.0
H700 H 0.31187 0.74395 0.93511 0.0
H701 H 0.34171 0.71459 0.98371 0.0
H702 H 0.57231 0.9463 1.01037 0.0
H703 H 0.57837 0.01347 1.03373 0.0
H704 H 0.57083 0.01464 0.9924 0.0
H705 H 0.4671 0.02218 1.00103 0.0
H706 H 0.47328 0.01779 1.04172 0.0
H707 H 0.39462 0.95437 1.02291 0.0
H708 H 0.35805 0.70771 1.03909 0.0
H709 H 0.34662 0.72273 1.09433 0.0
H710 H 0.46419 0.94584 1.08097 0.0
C711 C 0.4294 0.90879 0.9606 0.0
C712 C 0.37925 0.85588 0.94149 0.0
C713 C 0.35123 0.78565 0.94909 0.0
C714 C 0.36803 0.76846 0.97679 0.0
C715 C 0.41298 0.82198 0.99661 0.0
C716 C 0.44371 0.89101 0.98865 0.0
C717 C 0.47626 0.93802 1.01618 0.0
C718 C 0.55418 0.98067 1.01305 0.0
C719 C 0.45117 0.98568 1.02072 0.0
C720 C 0.45133 0.88439 1.04153 0.0
C721 C 0.41908 0.81805 1.02962 0.0
C722 C 0.38414 0.75947 1.04859 0.0
C723 C 0.37736 0.76853 1.08 0.0
C724 C 0.40291 0.83549 1.09189 0.0
C725 C 0.44472 0.8941 1.0728 0.0
loop_
_geom_bond_atom_site_label_1
_geom_bond_atom_site_label_2
_geom_bond_distance
_geom_bond_site_symmetry_2
_ccdc_geom_bond_type
Nd0 C2 2.836 . S
Nd0 O20 2.500 . S
Nd0 O21 2.492 1_545 S
Nd0 O22 2.487 . S
Nd0 O23 2.682 1_556 S
Nd0 O24 2.410 . S
Nd0 O29 2.414 1_556 S
Nd0 O31 2.424 1_556 S
Nd1 C11 2.836 . S
Nd1 O23 2.414 . S
Nd1 O25 2.424 1_554 S
Nd1 O26 2.500 . S
Nd1 O27 2.492 . S
Nd1 O28 2.487 . S
Nd1 O29 2.682 . S
Nd1 O30 2.410 . S
C2 Nd0 2.836 . S
C2 C3 1.498 1_545 S
C2 O20 1.258 . S
C2 O21 1.239 1_545 S
C3 C2 1.498 1_565 S
C3 C4 1.366 . S
C3 C8 1.407 . S
C4 C3 1.366 . S
C4 C5 1.392 . S
C4 H32 0.930 1_565 S
C5 C4 1.392 . S
C5 C6 1.398 . S
C5 H33 0.929 . S
C6 C5 1.398 . S
C6 C7 1.352 . S
C7 C6 1.352 . S
C7 C8 1.384 . S
C7 H34 0.930 . S
C8 C3 1.407 . S
C8 C7 1.384 . S
C8 H35 0.929 . S
C9 O22 1.241 1_554 S
C9 O23 1.273 . S
C10 O24 1.251 . S
C10 O25 1.268 . S
C11 Nd1 2.836 . S
C11 C12 1.498 . S
C11 O26 1.258 . S
C11 O27 1.239 . S
C12 C11 1.498 . S
C12 C13 1.366 . S
C12 C17 1.407 . S
C13 C12 1.366 . S
C13 C14 1.392 . S
C13 H36 0.930 . S
C14 C13 1.392 . S
C14 C15 1.398 . S
C14 H37 0.929 . S
C15 C14 1.398 . S
C15 C16 1.352 . S
C16 C15 1.352 . S
C16 C17 1.384 . S
C16 H38 0.930 . S
C17 C12 1.407 . S
C17 C16 1.384 . S
C17 H39 0.929 . S
C18 O28 1.241 . S
C18 O29 1.273 . S
C19 O30 1.251 . S
C19 O31 1.268 . S
O20 Nd0 2.500 . S
O20 C2 1.258 . S
O21 Nd0 2.492 1_565 S
O21 C2 1.239 1_565 S
O22 Nd0 2.487 . S
O22 C9 1.241 1_556 S
O23 Nd0 2.682 1_554 S
O23 Nd1 2.414 . S
O23 C9 1.273 . S
O24 Nd0 2.410 . S
O24 C10 1.251 . S
O25 Nd1 2.424 1_556 S
O25 C10 1.268 . S
O26 Nd1 2.500 . S
O26 C11 1.258 . S
O27 Nd1 2.492 . S
O27 C11 1.239 . S
O28 Nd1 2.487 . S
O28 C18 1.241 . S
O29 Nd0 2.414 1_554 S
O29 Nd1 2.682 . S
O29 C18 1.273 . S
O30 Nd1 2.410 . S
O30 C19 1.251 . S
O31 Nd0 2.424 1_554 S
O31 C19 1.268 . S
H32 C4 0.930 1_545 S
H33 C5 0.929 . S
H34 C7 0.930 . S
H35 C8 0.929 . S
H36 C13 0.930 . S
H37 C14 0.929 . S
H38 C16 0.930 . S
H39 C17 0.929 . S
Nd40 C42 2.836 . S
Nd40 O60 2.500 . S
Nd40 O61 2.492 . S
Nd40 O62 2.487 . S
Nd40 O63 2.682 . S
Nd40 O64 2.410 . S
Nd40 O69 2.414 . S
Nd40 O71 2.424 . S
Nd41 C51 2.836 . S
Nd41 O63 2.414 . S
Nd41 O65 2.424 . S
Nd41 O66 2.500 . S
Nd41 O67 2.492 . S
Nd41 O68 2.487 . S
Nd41 O69 2.682 . S
Nd41 O70 2.410 . S
C42 Nd40 2.836 . S
C42 C43 1.498 . S
C42 O60 1.258 . S
C42 O61 1.239 . S
C43 C42 1.498 . S
C43 C44 1.366 . S
C43 C48 1.407 . S
C44 C43 1.366 . S
C44 C45 1.392 . S
C44 H72 0.930 . S
C45 C44 1.392 . S
C45 C46 1.398 . S
C45 H73 0.929 . S
C46 C45 1.398 . S
C46 C47 1.352 . S
C47 C46 1.352 . S
C47 C48 1.384 . S
C47 H74 0.930 . S
C48 C43 1.407 . S
C48 C47 1.384 . S
C48 H75 0.929 . S
C49 O62 1.241 . S
C49 O63 1.273 . S
C50 O64 1.251 . S
C50 O65 1.268 . S
C51 Nd41 2.836 . S
C51 C52 1.498 . S
C51 O66 1.258 . S
C51 O67 1.239 . S
C52 C51 1.498 . S
C52 C53 1.366 . S
C52 C57 1.407 . S
C53 C52 1.366 . S
C53 C54 1.392 . S
C53 H76 0.930 . S
C54 C53 1.392 . S
C54 C55 1.398 . S
C54 H77 0.929 . S
C55 C54 1.398 . S
C55 C56 1.352 . S
C56 C55 1.352 . S
C56 C57 1.384 . S
C56 H78 0.930 . S
C57 C52 1.407 . S
C57 C56 1.384 . S
C57 H79 0.929 . S
C58 O68 1.241 . S
C58 O69 1.273 . S
C59 O70 1.251 . S
C59 O71 1.268 . S
O60 Nd40 2.500 . S
O60 C42 1.258 . S
O61 Nd40 2.492 . S
O61 C42 1.239 . S
O62 Nd40 2.487 . S
O62 C49 1.241 . S
O63 Nd40 2.682 . S
O63 Nd41 2.414 . S
O63 C49 1.273 . S
O64 Nd40 2.410 . S
O64 C50 1.251 . S
O65 Nd41 2.424 . S
O65 C50 1.268 . S
O66 Nd41 2.500 . S
O66 C51 1.258 . S
O67 Nd41 2.492 . S
O67 C51 1.239 . S
O68 Nd41 2.487 . S
O68 C58 1.241 . S
O69 Nd40 2.414 . S
O69 Nd41 2.682 . S
O69 C58 1.273 . S
O70 Nd41 2.410 . S
O70 C59 1.251 . S
O71 Nd40 2.424 . S
O71 C59 1.268 . S
H72 C44 0.930 . S
H73 C45 0.929 . S
H74 C47 0.930 . S
H75 C48 0.929 . S
H76 C53 0.930 . S
H77 C54 0.929 . S
H78 C56 0.930 . S
H79 C57 0.929 . S
Nd80 C82 2.836 . S
Nd80 O100 2.500 . S
Nd80 O101 2.492 . S
Nd80 O102 2.487 . S
Nd80 O103 2.682 . S
Nd80 O104 2.410 . S
Nd80 O109 2.414 . S
Nd80 O111 2.424 . S
Nd81 C91 2.836 . S
Nd81 O103 2.414 . S
Nd81 O105 2.424 . S
Nd81 O106 2.500 . S
Nd81 O107 2.492 . S
Nd81 O108 2.487 . S
Nd81 O109 2.682 . S
Nd81 O110 2.410 . S
C82 Nd80 2.836 . S
C82 C83 1.498 . S
C82 O100 1.258 . S
C82 O101 1.239 . S
C83 C82 1.498 . S
C83 C84 1.366 . S
C83 C88 1.407 . S
C84 C83 1.366 . S
C84 C85 1.392 . S
C84 H112 0.930 . S
C85 C84 1.392 . S
C85 C86 1.398 . S
C85 H113 0.929 . S
C86 C85 1.398 . S
C86 C87 1.352 . S
C87 C86 1.352 . S
C87 C88 1.384 . S
C87 H114 0.930 . S
C88 C83 1.407 . S
C88 C87 1.384 . S
C88 H115 0.929 . S
C89 O102 1.241 . S
C89 O103 1.273 . S
C90 O104 1.251 . S
C90 O105 1.268 . S
C91 Nd81 2.836 . S
C91 C92 1.498 . S
C91 O106 1.258 . S
C91 O107 1.239 . S
C92 C91 1.498 . S
C92 C93 1.366 . S
C92 C97 1.407 1_455 S
C93 C92 1.366 . S
C93 C94 1.392 . S
C93 H116 0.930 . S
C94 C93 1.392 . S
C94 C95 1.398 1_455 S
C94 H117 0.929 . S
C95 C94 1.398 1_655 S
C95 C96 1.352 . S
C96 C95 1.352 . S
C96 C97 1.384 . S
C96 H118 0.930 . S
C97 C92 1.407 1_655 S
C97 C96 1.384 . S
C97 H119 0.929 . S
C98 O108 1.241 . S
C98 O109 1.273 . S
C99 O110 1.251 . S
C99 O111 1.268 . S
O100 Nd80 2.500 . S
O100 C82 1.258 . S
O101 Nd80 2.492 . S
O101 C82 1.239 . S
O102 Nd80 2.487 . S
O102 C89 1.241 . S
O103 Nd80 2.682 . S
O103 Nd81 2.414 . S
O103 C89 1.273 . S
O104 Nd80 2.410 . S
O104 C90 1.251 . S
O105 Nd81 2.424 . S
O105 C90 1.268 . S
O106 Nd81 2.500 . S
O106 C91 1.258 . S
O107 Nd81 2.492 . S
O107 C91 1.239 . S
O108 Nd81 2.487 . S
O108 C98 1.241 . S
O109 Nd80 2.414 . S
O109 Nd81 2.682 . S
O109 C98 1.273 . S
O110 Nd81 2.410 . S
O110 C99 1.251 . S
O111 Nd80 2.424 . S
O111 C99 1.268 . S
H112 C84 0.930 . S
H113 C85 0.929 . S
H114 C87 0.930 . S
H115 C88 0.929 . S
H116 C93 0.930 . S
H117 C94 0.929 . S
H118 C96 0.930 . S
H119 C97 0.929 . S
Nd120 C122 2.836 . S
Nd120 O140 2.500 . S
Nd120 O141 2.492 . S
Nd120 O142 2.487 1_655 S
Nd120 O143 2.682 1_546 S
Nd120 O144 2.410 1_545 S
Nd120 O149 2.414 1_556 S
Nd120 O151 2.424 1_556 S
Nd121 C131 2.836 . S
Nd121 O143 2.414 . S
Nd121 O145 2.424 1_554 S
Nd121 O146 2.500 . S
Nd121 O147 2.492 . S
Nd121 O148 2.487 . S
Nd121 O149 2.682 1_565 S
Nd121 O150 2.410 1_565 S
C122 Nd120 2.836 . S
C122 C123 1.498 . S
C122 O140 1.258 . S
C122 O141 1.239 . S
C123 C122 1.498 . S
C123 C124 1.366 . S
C123 C128 1.407 . S
C124 C123 1.366 . S
C124 C125 1.392 . S
C124 H152 0.930 . S
C125 C124 1.392 . S
C125 C126 1.398 . S
C125 H153 0.929 . S
C126 C125 1.398 . S
C126 C127 1.352 1_655 S
C127 C126 1.352 1_455 S
C127 C128 1.384 1_455 S
C127 H154 0.930 . S
C128 C123 1.407 . S
C128 C127 1.384 1_655 S
C128 H155 0.929 1_655 S
C129 O142 1.241 1_654 S
C129 O143 1.273 1_545 S
C130 O144 1.251 . S
C130 O145 1.268 . S
C131 Nd121 2.836 . S
C131 C132 1.498 . S
C131 O146 1.258 . S
C131 O147 1.239 . S
C132 C131 1.498 . S
C132 C133 1.366 . S
C132 C137 1.407 . S
C133 C132 1.366 . S
C133 C134 1.392 . S
C133 H156 0.930 . S
C134 C133 1.392 . S
C134 C135 1.398 . S
C134 H157 0.929 . S
C135 C134 1.398 . S
C135 C136 1.352 . S
C136 C135 1.352 . S
C136 C137 1.384 . S
C136 H158 0.930 . S
C137 C132 1.407 . S
C137 C136 1.384 . S
C137 H159 0.929 . S
C138 O148 1.241 . S
C138 O149 1.273 1_565 S
C139 O150 1.251 . S
C139 O151 1.268 . S
O140 Nd120 2.500 . S
O140 C122 1.258 . S
O141 Nd120 2.492 . S
O141 C122 1.239 . S
O142 Nd120 2.487 1_455 S
O142 C129 1.241 1_456 S
O143 Nd120 2.682 1_564 S
O143 Nd121 2.414 . S
O143 C129 1.273 1_565 S
O144 Nd120 2.410 1_565 S
O144 C130 1.251 . S
O145 Nd121 2.424 1_556 S
O145 C130 1.268 . S
O146 Nd121 2.500 . S
O146 C131 1.258 . S
O147 Nd121 2.492 . S
O147 C131 1.239 . S
O148 Nd121 2.487 . S
O148 C138 1.241 . S
O149 Nd120 2.414 1_554 S
O149 Nd121 2.682 1_545 S
O149 C138 1.273 1_545 S
O150 Nd121 2.410 1_545 S
O150 C139 1.251 . S
O151 Nd120 2.424 1_554 S
O151 C139 1.268 . S
H152 C124 0.930 . S
H153 C125 0.929 . S
H154 C127 0.930 . S
H155 C128 0.929 1_455 S
H156 C133 0.930 . S
H157 C134 0.929 . S
H158 C136 0.930 . S
H159 C137 0.929 . S
Nd160 C162 2.836 . S
Nd160 O180 2.500 . S
Nd160 O181 2.492 . S
Nd160 O182 2.487 1_665 S
Nd160 O183 2.682 1_655 S
Nd160 O184 2.410 . S
Nd160 O189 2.414 . S
Nd160 O191 2.424 . S
Nd161 C171 2.839 . S
Nd161 O183 2.411 . S
Nd161 O185 2.426 . S
Nd161 O186 2.504 . S
Nd161 O187 2.494 1_455 S
Nd161 O188 2.480 1_455 S
Nd161 O189 2.673 1_455 S
Nd161 O190 2.401 1_455 S
C162 Nd160 2.836 . S
C162 C163 1.498 . S
C162 O180 1.258 . S
C162 O181 1.239 . S
C163 C162 1.498 . S
C163 C164 1.366 . S
C163 C168 1.407 . S
C164 C163 1.366 . S
C164 C165 1.392 . S
C164 H192 0.930 . S
C165 C164 1.392 . S
C165 C166 1.398 . S
C165 H193 0.929 . S
C166 C165 1.398 . S
C166 C167 1.352 . S
C167 C166 1.352 . S
C167 C168 1.384 . S
C167 H194 0.930 1_565 S
C168 C163 1.407 . S
C168 C167 1.384 . S
C168 H195 0.929 1_565 S
C169 O182 1.241 1_565 S
C169 O183 1.273 . S
C170 O184 1.255 . S
C170 O185 1.265 1_655 S
C171 Nd161 2.839 . S
C171 C172 1.498 . S
C171 O186 1.258 . S
C171 O187 1.239 1_455 S
C172 C171 1.498 . S
C172 C173 1.366 . S
C172 C177 1.407 . S
C173 C172 1.366 . S
C173 C174 1.392 . S
C173 H196 0.930 . S
C174 C173 1.392 . S
C174 C175 1.398 . S
C174 H197 0.929 . S
C175 C174 1.398 . S
C175 C176 1.352 . S
C176 C175 1.352 . S
C176 C177 1.384 . S
C176 H198 0.930 . S
C177 C172 1.407 . S
C177 C176 1.384 . S
C177 H199 0.929 1_455 S
C178 O188 1.241 . S
C178 O189 1.273 . S
C179 O190 1.251 . S
C179 O191 1.268 . S
O180 Nd160 2.500 . S
O180 C162 1.258 . S
O181 Nd160 2.492 . S
O181 C162 1.239 . S
O182 Nd160 2.487 1_445 S
O182 C169 1.241 1_545 S
O183 Nd160 2.682 1_455 S
O183 Nd161 2.411 . S
O183 C169 1.273 . S
O184 Nd160 2.410 . S
O184 C170 1.255 . S
O185 Nd161 2.426 . S
O185 C170 1.265 1_455 S
O186 Nd161 2.504 . S
O186 C171 1.258 . S
O187 Nd161 2.494 1_655 S
O187 C171 1.239 1_655 S
O188 Nd161 2.480 1_655 S
O188 C178 1.241 . S
O189 Nd160 2.414 . S
O189 Nd161 2.673 1_655 S
O189 C178 1.273 . S
O190 Nd161 2.401 1_655 S
O190 C179 1.251 . S
O191 Nd160 2.424 . S
O191 C179 1.268 . S
H192 C164 0.930 . S
H193 C165 0.929 . S
H194 C167 0.930 1_545 S
H195 C168 0.929 1_545 S
H196 C173 0.930 . S
H197 C174 0.929 . S
H198 C176 0.930 . S
H199 C177 0.929 1_655 S
Nd200 C202 2.836 . S
Nd200 O220 2.500 . S
Nd200 O221 2.492 . S
Nd200 O222 2.487 . S
Nd200 O223 2.682 1_655 S
Nd200 O224 2.410 1_655 S
Nd200 O229 2.414 1_655 S
Nd200 O231 2.424 . S
Nd201 C211 2.836 . S
Nd201 O223 2.414 . S
Nd201 O225 2.424 . S
Nd201 O226 2.500 . S
Nd201 O227 2.492 . S
Nd201 O228 2.487 . S
Nd201 O229 2.682 . S
Nd201 O230 2.410 . S
C202 Nd200 2.836 . S
C202 C203 1.498 . S
C202 O220 1.258 . S
C202 O221 1.239 . S
C203 C202 1.498 . S
C203 C204 1.366 . S
C203 C208 1.407 . S
C204 C203 1.366 . S
C204 C205 1.392 . S
C204 H232 0.930 . S
C205 C204 1.392 . S
C205 C206 1.398 . S
C205 H233 0.929 . S
C206 C205 1.398 . S
C206 C207 1.352 . S
C207 C206 1.352 . S
C207 C208 1.384 . S
C207 H234 0.930 . S
C208 C203 1.407 . S
C208 C207 1.384 . S
C208 H235 0.929 . S
C209 O222 1.241 . S
C209 O223 1.273 1_655 S
C210 O224 1.251 . S
C210 O225 1.268 . S
C211 Nd201 2.836 . S
C211 C212 1.498 . S
C211 O226 1.258 . S
C211 O227 1.239 . S
C212 C211 1.498 . S
C212 C213 1.366 . S
C212 C217 1.407 . S
C213 C212 1.366 . S
C213 C214 1.392 . S
C213 H236 0.930 . S
C214 C213 1.392 . S
C214 C215 1.398 . S
C214 H237 0.929 1_565 S
C215 C214 1.398 . S
C215 C216 1.352 . S
C216 C215 1.352 . S
C216 C217 1.384 . S
C216 H238 0.930 . S
C217 C212 1.407 . S
C217 C216 1.384 . S
C217 H239 0.929 . S
C218 O228 1.241 . S
C218 O229 1.273 . S
C219 O230 1.251 1_655 S
C219 O231 1.268 . S
O220 Nd200 2.500 . S
O220 C202 1.258 . S
O221 Nd200 2.492 . S
O221 C202 1.239 . S
O222 Nd200 2.487 . S
O222 C209 1.241 . S
O223 Nd200 2.682 1_455 S
O223 Nd201 2.414 . S
O223 C209 1.273 1_455 S
O224 Nd200 2.410 1_455 S
O224 C210 1.251 . S
O225 Nd201 2.424 . S
O225 C210 1.268 . S
O226 Nd201 2.500 . S
O226 C211 1.258 . S
O227 Nd201 2.492 . S
O227 C211 1.239 . S
O228 Nd201 2.487 . S
O228 C218 1.241 . S
O229 Nd200 2.414 1_455 S
O229 Nd201 2.682 . S
O229 C218 1.273 . S
O230 Nd201 2.410 . S
O230 C219 1.251 1_455 S
O231 Nd200 2.424 . S
O231 C219 1.268 . S
H232 C204 0.930 . S
H233 C205 0.929 . S
H234 C207 0.930 . S
H235 C208 0.929 . S
H236 C213 0.930 . S
H237 C214 0.929 1_545 S
H238 C216 0.930 . S
H239 C217 0.929 . S
H240 C252 0.921 1_556 S
H241 C254 0.930 . S
H242 C255 0.930 . S
H243 C259 0.959 1_554 S
H244 C259 0.959 . S
H245 C259 0.961 . S
H246 C260 0.960 . S
H247 C260 0.961 . S
H248 C260 0.959 . S
H249 C263 0.929 . S
H250 C264 0.931 . S
H251 C266 0.912 1_556 S
C252 H240 0.921 1_554 S
C252 C253 1.407 . S
C252 C257 1.401 1_665 S
C253 C252 1.407 . S
C253 C254 1.376 1_565 S
C254 H241 0.930 . S
C254 C253 1.376 1_545 S
C254 C255 1.388 1_655 S
C255 H242 0.930 . S
C255 C254 1.388 1_455 S
C255 C256 1.390 . S
C256 C255 1.390 . S
C256 C257 1.394 . S
C256 C262 1.465 . S
C257 C252 1.401 1_445 S
C257 C256 1.394 . S
C257 C258 1.516 1_554 S
C258 C257 1.516 1_556 S
C258 C259 1.502 1_545 S
C258 C260 1.561 . S
C258 C261 1.526 1_556 S
C259 H243 0.959 1_556 S
C259 H244 0.959 . S
C259 H245 0.961 . S
C259 C258 1.502 1_565 S
C260 H246 0.960 . S
C260 H247 0.961 . S
C260 H248 0.959 . S
C260 C258 1.561 . S
C261 C258 1.526 1_554 S
C261 C262 1.396 . S
C261 C266 1.393 . S
C262 C256 1.465 . S
C262 C261 1.396 . S
C262 C263 1.399 . S
C263 H249 0.929 . S
C263 C262 1.399 . S
C263 C264 1.385 . S
C264 H250 0.931 . S
C264 C263 1.385 . S
C264 C265 1.389 . S
C265 C264 1.389 . S
C265 C266 1.402 . S
C266 H251 0.912 1_554 S
C266 C261 1.393 . S
C266 C265 1.402 . S
H267 C279 0.930 . S
H268 C281 0.930 . S
H269 C282 0.930 . S
H270 C286 0.959 1_665 S
H271 C286 0.959 . S
H272 C286 0.961 1_565 S
H273 C287 0.960 . S
H274 C287 0.961 . S
H275 C287 0.959 . S
H276 C290 0.929 . S
H277 C291 0.931 . S
H278 C293 0.930 . S
C279 H267 0.930 . S
C279 C280 1.399 . S
C279 C284 1.399 1_565 S
C280 C279 1.399 . S
C280 C281 1.376 . S
C281 H268 0.930 . S
C281 C280 1.376 . S
C281 C282 1.388 1_565 S
C282 H269 0.930 . S
C282 C281 1.388 1_545 S
C282 C283 1.390 . S
C283 C282 1.390 . S
C283 C284 1.394 . S
C283 C289 1.465 . S
C284 C279 1.399 1_545 S
C284 C283 1.394 . S
C284 C285 1.516 . S
C285 C284 1.516 . S
C285 C286 1.502 . S
C285 C287 1.561 . S
C285 C288 1.526 . S
C286 H270 0.959 1_445 S
C286 H271 0.959 . S
C286 H272 0.961 1_545 S
C286 C285 1.502 . S
C287 H273 0.960 . S
C287 H274 0.961 . S
C287 H275 0.959 . S
C287 C285 1.561 . S
C288 C285 1.526 . S
C288 C289 1.396 . S
C288 C293 1.390 . S
C289 C283 1.465 . S
C289 C288 1.396 . S
C289 C290 1.399 . S
C290 H276 0.929 . S
C290 C289 1.399 . S
C290 C291 1.385 . S
C291 H277 0.931 . S
C291 C290 1.385 . S
C291 C292 1.389 . S
C292 C291 1.389 . S
C292 C293 1.387 . S
C293 H278 0.930 . S
C293 C288 1.390 . S
C293 C292 1.387 . S
H294 C306 0.930 . S
H295 C308 0.930 . S
H296 C309 0.930 . S
H297 C313 0.959 . S
H298 C313 0.959 . S
H299 C313 0.961 . S
H300 C314 0.960 . S
H301 C314 0.961 . S
H302 C314 0.959 . S
H303 C317 0.929 . S
H304 C318 0.931 . S
H305 C320 0.930 . S
C306 H294 0.930 . S
C306 C307 1.399 . S
C306 C311 1.399 1_665 S
C307 C306 1.399 . S
C307 C308 1.376 . S
C308 H295 0.930 . S
C308 C307 1.376 . S
C308 C309 1.388 1_665 S
C309 H296 0.930 . S
C309 C308 1.388 1_445 S
C309 C310 1.390 . S
C310 C309 1.390 . S
C310 C311 1.394 . S
C310 C316 1.465 . S
C311 C306 1.399 1_445 S
C311 C310 1.394 . S
C311 C312 1.516 . S
C312 C311 1.516 . S
C312 C313 1.502 . S
C312 C314 1.561 . S
C312 C315 1.526 . S
C313 H297 0.959 . S
C313 H298 0.959 . S
C313 H299 0.961 . S
C313 C312 1.502 . S
C314 H300 0.960 . S
C314 H301 0.961 . S
C314 H302 0.959 . S
C314 C312 1.561 . S
C315 C312 1.526 . S
C315 C316 1.396 . S
C315 C320 1.390 . S
C316 C310 1.465 . S
C316 C315 1.396 . S
C316 C317 1.399 . S
C317 H303 0.929 . S
C317 C316 1.399 . S
C317 C318 1.385 . S
C318 H304 0.931 . S
C318 C317 1.385 . S
C318 C319 1.389 . S
C319 C318 1.389 . S
C319 C320 1.387 . S
C320 H305 0.930 . S
C320 C315 1.390 . S
C320 C319 1.387 . S
H321 C333 0.930 . S
H322 C335 0.930 . S
H323 C336 0.930 . S
H324 C340 0.959 . S
H325 C340 0.959 . S
H326 C340 0.961 . S
H327 C341 0.960 . S
H328 C341 0.961 . S
H329 C341 0.959 . S
H330 C344 0.929 . S
H331 C345 0.931 . S
H332 C347 0.930 . S
C333 H321 0.930 . S
C333 C334 1.399 . S
C333 C338 1.399 . S
C334 C333 1.399 . S
C334 C335 1.376 . S
C335 H322 0.930 . S
C335 C334 1.376 . S
C335 C336 1.388 . S
C336 H323 0.930 . S
C336 C335 1.388 . S
C336 C337 1.390 . S
C337 C336 1.390 . S
C337 C338 1.394 . S
C337 C343 1.465 . S
C338 C333 1.399 . S
C338 C337 1.394 . S
C338 C339 1.516 . S
C339 C338 1.516 . S
C339 C340 1.502 . S
C339 C341 1.561 . S
C339 C342 1.526 . S
C340 H324 0.959 . S
C340 H325 0.959 . S
C340 H326 0.961 . S
C340 C339 1.502 . S
C341 H327 0.960 . S
C341 H328 0.961 . S
C341 H329 0.959 . S
C341 C339 1.561 . S
C342 C339 1.526 . S
C342 C343 1.396 . S
C342 C347 1.390 . S
C343 C337 1.465 . S
C343 C342 1.396 . S
C343 C344 1.399 . S
C344 H330 0.929 . S
C344 C343 1.399 . S
C344 C345 1.385 . S
C345 H331 0.931 . S
C345 C344 1.385 . S
C345 C346 1.389 . S
C346 C345 1.389 . S
C346 C347 1.387 . S
C347 H332 0.930 . S
C347 C342 1.390 . S
C347 C346 1.387 . S
H348 C360 0.930 . S
H349 C362 0.930 . S
H350 C363 0.930 . S
H351 C367 0.959 . S
H352 C367 0.959 . S
H353 C367 0.961 . S
H354 C368 0.960 . S
H355 C368 0.961 . S
H356 C368 0.959 . S
H357 C371 0.929 . S
H358 C372 0.931 1_655 S
H359 C374 0.930 . S
C360 H348 0.930 . S
C360 C361 1.399 . S
C360 C365 1.399 . S
C361 C360 1.399 . S
C361 C362 1.376 . S
C362 H349 0.930 . S
C362 C361 1.376 . S
C362 C363 1.388 . S
C363 H350 0.930 . S
C363 C362 1.388 . S
C363 C364 1.390 . S
C364 C363 1.390 . S
C364 C365 1.394 . S
C364 C370 1.465 . S
C365 C360 1.399 . S
C365 C364 1.394 . S
C365 C366 1.516 . S
C366 C365 1.516 . S
C366 C367 1.502 1_455 S
C366 C368 1.561 . S
C366 C369 1.526 . S
C367 H351 0.959 . S
C367 H352 0.959 . S
C367 H353 0.961 . S
C367 C366 1.502 1_655 S
C368 H354 0.960 . S
C368 H355 0.961 . S
C368 H356 0.959 . S
C368 C366 1.561 . S
C369 C366 1.526 . S
C369 C370 1.396 . S
C369 C374 1.390 1_455 S
C370 C364 1.465 . S
C370 C369 1.396 . S
C370 C371 1.399 . S
C371 H357 0.929 . S
C371 C370 1.399 . S
C371 C372 1.385 . S
C372 H358 0.931 1_455 S
C372 C371 1.385 . S
C372 C373 1.389 1_455 S
C373 C372 1.389 1_655 S
C373 C374 1.387 . S
C374 H359 0.930 . S
C374 C369 1.390 1_655 S
C374 C373 1.387 . S
H375 C387 0.930 1_655 S
H376 C389 0.930 . S
H377 C390 0.930 . S
H378 C394 0.959 1_455 S
H379 C394 0.959 . S
H380 C394 0.961 . S
H381 C395 0.960 . S
H382 C395 0.961 . S
H383 C395 0.959 1_545 S
H384 C398 0.929 . S
H385 C399 0.931 . S
H386 C401 0.930 . S
C387 H375 0.930 1_455 S
C387 C388 1.399 . S
C387 C392 1.399 . S
C388 C387 1.399 . S
C388 C389 1.376 . S
C389 H376 0.930 . S
C389 C388 1.376 . S
C389 C390 1.388 . S
C390 H377 0.930 . S
C390 C389 1.388 . S
C390 C391 1.390 . S
C391 C390 1.390 . S
C391 C392 1.394 . S
C391 C397 1.465 . S
C392 C387 1.399 . S
C392 C391 1.394 . S
C392 C393 1.516 1_455 S
C393 C392 1.516 1_655 S
C393 C394 1.502 1_545 S
C393 C395 1.561 1_545 S
C393 C396 1.526 . S
C394 H378 0.959 1_655 S
C394 H379 0.959 . S
C394 H380 0.961 . S
C394 C393 1.502 1_565 S
C395 H381 0.960 . S
C395 H382 0.961 . S
C395 H383 0.959 1_565 S
C395 C393 1.561 1_565 S
C396 C393 1.526 . S
C396 C397 1.396 1_655 S
C396 C401 1.390 1_545 S
C397 C391 1.465 . S
C397 C396 1.396 1_455 S
C397 C398 1.399 . S
C398 H384 0.929 . S
C398 C397 1.399 . S
C398 C399 1.385 . S
C399 H385 0.931 . S
C399 C398 1.385 . S
C399 C400 1.389 1_455 S
C400 C399 1.389 1_655 S
C400 C401 1.387 1_545 S
C401 H386 0.930 . S
C401 C396 1.390 1_565 S
C401 C400 1.387 1_565 S
H402 C414 0.930 . S
H403 C416 0.930 . S
H404 C417 0.930 . S
H405 C421 0.959 . S
H406 C421 0.959 . S
H407 C421 0.961 . S
H408 C422 0.960 . S
H409 C422 0.961 . S
H410 C422 0.959 . S
H411 C425 0.929 . S
H412 C426 0.931 . S
H413 C428 0.930 . S
C414 H402 0.930 . S
C414 C415 1.399 . S
C414 C419 1.399 . S
C415 C414 1.399 . S
C415 C416 1.376 . S
C416 H403 0.930 . S
C416 C415 1.376 . S
C416 C417 1.388 . S
C417 H404 0.930 . S
C417 C416 1.388 . S
C417 C418 1.390 . S
C418 C417 1.390 . S
C418 C419 1.394 . S
C418 C424 1.465 . S
C419 C414 1.399 . S
C419 C418 1.394 . S
C419 C420 1.516 . S
C420 C419 1.516 . S
C420 C421 1.502 . S
C420 C422 1.561 . S
C420 C423 1.526 . S
C421 H405 0.959 . S
C421 H406 0.959 . S
C421 H407 0.961 . S
C421 C420 1.502 . S
C422 H408 0.960 . S
C422 H409 0.961 . S
C422 H410 0.959 . S
C422 C420 1.561 . S
C423 C420 1.526 . S
C423 C424 1.396 . S
C423 C428 1.390 . S
C424 C418 1.465 . S
C424 C423 1.396 . S
C424 C425 1.399 . S
C425 H411 0.929 . S
C425 C424 1.399 . S
C425 C426 1.385 . S
C426 H412 0.931 . S
C426 C425 1.385 . S
C426 C427 1.389 . S
C427 C426 1.389 . S
C427 C428 1.387 . S
C428 H413 0.930 . S
C428 C423 1.390 . S
C428 C427 1.387 . S
H429 C441 0.930 . S
H430 C443 0.930 . S
H431 C444 0.930 1_545 S
H432 C448 0.959 . S
H433 C448 0.959 . S
H434 C448 0.961 . S
H435 C449 0.960 . S
H436 C449 0.961 . S
H437 C449 0.959 . S
H438 C452 0.929 . S
H439 C453 0.931 . S
H440 C455 0.930 . S
C441 H429 0.930 . S
C441 C442 1.399 . S
C441 C446 1.399 . S
C442 C441 1.399 . S
C442 C443 1.376 . S
C443 H430 0.930 . S
C443 C442 1.376 . S
C443 C444 1.388 . S
C444 H431 0.930 1_565 S
C444 C443 1.388 . S
C444 C445 1.390 . S
C445 C444 1.390 . S
C445 C446 1.394 . S
C445 C451 1.465 . S
C446 C441 1.399 . S
C446 C445 1.394 . S
C446 C447 1.516 . S
C447 C446 1.516 . S
C447 C448 1.502 . S
C447 C449 1.561 . S
C447 C450 1.526 . S
C448 H432 0.959 . S
C448 H433 0.959 . S
C448 H434 0.961 . S
C448 C447 1.502 . S
C449 H435 0.960 . S
C449 H436 0.961 . S
C449 H437 0.959 . S
C449 C447 1.561 . S
C450 C447 1.526 . S
C450 C451 1.396 . S
C450 C455 1.390 . S
C451 C445 1.465 . S
C451 C450 1.396 . S
C451 C452 1.399 1_565 S
C452 H438 0.929 . S
C452 C451 1.399 1_545 S
C452 C453 1.385 . S
C453 H439 0.931 . S
C453 C452 1.385 . S
C453 C454 1.389 1_545 S
C454 C453 1.389 1_565 S
C454 C455 1.387 . S
C455 H440 0.930 . S
C455 C450 1.390 . S
C455 C454 1.387 . S
H456 C468 0.930 . S
H457 C470 0.930 . S
H458 C471 0.930 . S
H459 C475 0.959 . S
H460 C475 0.959 . S
H461 C475 0.961 . S
H462 C476 0.960 . S
H463 C476 0.961 . S
H464 C476 0.959 . S
H465 C479 0.929 . S
H466 C480 0.931 . S
H467 C482 0.930 . S
C468 H456 0.930 . S
C468 C469 1.399 . S
C468 C473 1.399 1_565 S
C469 C468 1.399 . S
C469 C470 1.376 . S
C470 H457 0.930 . S
C470 C469 1.376 . S
C470 C471 1.388 1_565 S
C471 H458 0.930 . S
C471 C470 1.388 1_545 S
C471 C472 1.390 . S
C472 C471 1.390 . S
C472 C473 1.394 . S
C472 C478 1.465 . S
C473 C468 1.399 1_545 S
C473 C472 1.394 . S
C473 C474 1.516 . S
C474 C473 1.516 . S
C474 C475 1.502 . S
C474 C476 1.561 1_545 S
C474 C477 1.526 . S
C475 H459 0.959 . S
C475 H460 0.959 . S
C475 H461 0.961 . S
C475 C474 1.502 . S
C476 H462 0.960 . S
C476 H463 0.961 . S
C476 H464 0.959 . S
C476 C474 1.561 1_565 S
C477 C474 1.526 . S
C477 C478 1.396 . S
C477 C482 1.390 . S
C478 C472 1.465 . S
C478 C477 1.396 . S
C478 C479 1.399 . S
C479 H465 0.929 . S
C479 C478 1.399 . S
C479 C480 1.385 . S
C480 H466 0.931 . S
C480 C479 1.385 . S
C480 C481 1.389 . S
C481 C480 1.389 . S
C481 C482 1.387 . S
C482 H467 0.930 . S
C482 C477 1.390 . S
C482 C481 1.387 . S
H483 C495 0.930 . S
H484 C497 0.930 . S
H485 C498 0.930 . S
H486 C502 0.959 . S
H487 C502 0.959 . S
H488 C502 0.961 . S
H489 C503 0.960 . S
H490 C503 0.961 . S
H491 C503 0.959 1_565 S
H492 C506 0.929 . S
H493 C507 0.931 . S
H494 C509 0.930 . S
C495 H483 0.930 . S
C495 C496 1.399 . S
C495 C500 1.399 . S
C496 C495 1.399 . S
C496 C497 1.376 1_554 S
C497 H484 0.930 . S
C497 C496 1.376 1_556 S
C497 C498 1.388 . S
C498 H485 0.930 . S
C498 C497 1.388 . S
C498 C499 1.390 . S
C499 C498 1.390 . S
C499 C500 1.394 1_556 S
C499 C505 1.465 . S
C500 C495 1.399 . S
C500 C499 1.394 1_554 S
C500 C501 1.516 . S
C501 C500 1.516 . S
C501 C502 1.502 . S
C501 C503 1.561 . S
C501 C504 1.526 . S
C502 H486 0.959 . S
C502 H487 0.959 . S
C502 H488 0.961 . S
C502 C501 1.502 . S
C503 H489 0.960 . S
C503 H490 0.961 . S
C503 H491 0.959 1_545 S
C503 C501 1.561 . S
C504 C501 1.526 . S
C504 C505 1.396 1_554 S
C504 C509 1.390 . S
C505 C499 1.465 . S
C505 C504 1.396 1_556 S
C505 C506 1.399 . S
C506 H492 0.929 . S
C506 C505 1.399 . S
C506 C507 1.385 1_545 S
C507 H493 0.931 . S
C507 C506 1.385 1_565 S
C507 C508 1.389 1_566 S
C508 C507 1.389 1_544 S
C508 C509 1.387 . S
C509 H494 0.930 . S
C509 C504 1.390 . S
C509 C508 1.387 . S
H510 C522 0.930 . S
H511 C524 0.930 . S
H512 C525 0.930 . S
H513 C529 0.959 . S
H514 C529 0.959 . S
H515 C529 0.961 . S
H516 C530 0.960 . S
H517 C530 0.961 . S
H518 C530 0.959 . S
H519 C533 0.929 . S
H520 C534 0.931 . S
H521 C536 0.930 . S
C522 H510 0.930 . S
C522 C523 1.399 . S
C522 C527 1.399 . S
C523 C522 1.399 . S
C523 C524 1.376 . S
C524 H511 0.930 . S
C524 C523 1.376 . S
C524 C525 1.388 . S
C525 H512 0.930 . S
C525 C524 1.388 . S
C525 C526 1.390 . S
C526 C525 1.390 . S
C526 C527 1.394 . S
C526 C532 1.465 . S
C527 C522 1.399 . S
C527 C526 1.394 . S
C527 C528 1.516 . S
C528 C527 1.516 . S
C528 C529 1.502 . S
C528 C530 1.561 . S
C528 C531 1.526 . S
C529 H513 0.959 . S
C529 H514 0.959 . S
C529 H515 0.961 . S
C529 C528 1.502 . S
C530 H516 0.960 . S
C530 H517 0.961 . S
C530 H518 0.959 . S
C530 C528 1.561 . S
C531 C528 1.526 . S
C531 C532 1.396 . S
C531 C536 1.390 . S
C532 C526 1.465 . S
C532 C531 1.396 . S
C532 C533 1.399 . S
C533 H519 0.929 . S
C533 C532 1.399 . S
C533 C534 1.385 . S
C534 H520 0.931 . S
C534 C533 1.385 . S
C534 C535 1.389 . S
C535 C534 1.389 . S
C535 C536 1.387 . S
C536 H521 0.930 . S
C536 C531 1.390 . S
C536 C535 1.387 . S
H537 C549 0.930 . S
H538 C551 0.930 . S
H539 C552 0.930 . S
H540 C556 0.959 . S
H541 C556 0.959 . S
H542 C556 0.961 . S
H543 C557 0.960 . S
H544 C557 0.961 . S
H545 C557 0.959 1_455 S
H546 C560 0.929 . S
H547 C561 0.931 . S
H548 C563 0.930 1_655 S
C549 H537 0.930 . S
C549 C550 1.399 . S
C549 C554 1.399 . S
C550 C549 1.399 . S
C550 C551 1.376 . S
C551 H538 0.930 . S
C551 C550 1.376 . S
C551 C552 1.388 . S
C552 H539 0.930 . S
C552 C551 1.388 . S
C552 C553 1.390 . S
C553 C552 1.390 . S
C553 C554 1.394 . S
C553 C559 1.465 . S
C554 C549 1.399 . S
C554 C553 1.394 . S
C554 C555 1.516 . S
C555 C554 1.516 . S
C555 C556 1.502 1_455 S
C555 C557 1.561 1_455 S
C555 C558 1.526 . S
C556 H540 0.959 . S
C556 H541 0.959 . S
C556 H542 0.961 . S
C556 C555 1.502 1_655 S
C557 H543 0.960 . S
C557 H544 0.961 . S
C557 H545 0.959 1_655 S
C557 C555 1.561 1_655 S
C558 C555 1.526 . S
C558 C559 1.396 . S
C558 C563 1.390 . S
C559 C553 1.465 . S
C559 C558 1.396 . S
C559 C560 1.399 . S
C560 H546 0.929 . S
C560 C559 1.399 . S
C560 C561 1.385 . S
C561 H547 0.931 . S
C561 C560 1.385 . S
C561 C562 1.389 . S
C562 C561 1.389 . S
C562 C563 1.387 . S
C563 H548 0.930 1_455 S
C563 C558 1.390 . S
C563 C562 1.387 . S
H564 C576 0.930 . S
H565 C578 0.930 . S
H566 C579 0.930 . S
H567 C583 0.959 . S
H568 C583 0.959 . S
H569 C583 0.961 . S
H570 C584 0.960 . S
H571 C584 0.961 . S
H572 C584 0.959 . S
H573 C587 0.929 . S
H574 C588 0.931 . S
H575 C590 0.930 . S
C576 H564 0.930 . S
C576 C577 1.399 . S
C576 C581 1.399 . S
C577 C576 1.399 . S
C577 C578 1.376 . S
C578 H565 0.930 . S
C578 C577 1.376 . S
C578 C579 1.388 . S
C579 H566 0.930 . S
C579 C578 1.388 . S
C579 C580 1.390 . S
C580 C579 1.390 . S
C580 C581 1.394 . S
C580 C586 1.465 . S
C581 C576 1.399 . S
C581 C580 1.394 . S
C581 C582 1.516 . S
C582 C581 1.516 . S
C582 C583 1.502 . S
C582 C584 1.561 . S
C582 C585 1.526 . S
C583 H567 0.959 . S
C583 H568 0.959 . S
C583 H569 0.961 . S
C583 C582 1.502 . S
C584 H570 0.960 . S
C584 H571 0.961 . S
C584 H572 0.959 . S
C584 C582 1.561 . S
C585 C582 1.526 . S
C585 C586 1.396 . S
C585 C590 1.390 . S
C586 C580 1.465 . S
C586 C585 1.396 . S
C586 C587 1.399 . S
C587 H573 0.929 . S
C587 C586 1.399 . S
C587 C588 1.385 . S
C588 H574 0.931 . S
C588 C587 1.385 . S
C588 C589 1.389 . S
C589 C588 1.389 . S
C589 C590 1.387 . S
C590 H575 0.930 . S
C590 C585 1.390 . S
C590 C589 1.387 . S
H591 C603 0.930 . S
H592 C605 0.930 . S
H593 C606 0.930 . S
H594 C610 0.959 . S
H595 C610 0.959 . S
H596 C610 0.961 . S
H597 C611 0.960 . S
H598 C611 0.961 . S
H599 C611 0.959 . S
H600 C614 0.929 . S
H601 C615 0.931 . S
H602 C617 0.930 . S
C603 H591 0.930 . S
C603 C604 1.399 . S
C603 C608 1.399 . S
C604 C603 1.399 . S
C604 C605 1.376 . S
C605 H592 0.930 . S
C605 C604 1.376 . S
C605 C606 1.388 . S
C606 H593 0.930 . S
C606 C605 1.388 . S
C606 C607 1.390 . S
C607 C606 1.390 . S
C607 C608 1.394 . S
C607 C613 1.465 . S
C608 C603 1.399 . S
C608 C607 1.394 . S
C608 C609 1.516 . S
C609 C608 1.516 . S
C609 C610 1.502 . S
C609 C611 1.561 . S
C609 C612 1.526 . S
C610 H594 0.959 . S
C610 H595 0.959 . S
C610 H596 0.961 . S
C610 C609 1.502 . S
C611 H597 0.960 . S
C611 H598 0.961 . S
C611 H599 0.959 . S
C611 C609 1.561 . S
C612 C609 1.526 . S
C612 C613 1.396 . S
C612 C617 1.390 . S
C613 C607 1.465 . S
C613 C612 1.396 . S
C613 C614 1.399 . S
C614 H600 0.929 . S
C614 C613 1.399 . S
C614 C615 1.385 . S
C615 H601 0.931 . S
C615 C614 1.385 . S
C615 C616 1.389 . S
C616 C615 1.389 . S
C616 C617 1.387 . S
C617 H602 0.930 . S
C617 C612 1.390 . S
C617 C616 1.387 . S
H618 C630 0.930 1_455 S
H619 C632 0.930 . S
H620 C633 0.930 . S
H621 C637 0.959 . S
H622 C637 0.959 . S
H623 C637 0.961 . S
H624 C638 0.960 . S
H625 C638 0.961 . S
H626 C638 0.959 . S
H627 C641 0.929 . S
H628 C642 0.931 . S
H629 C644 0.930 . S
C630 H618 0.930 1_655 S
C630 C631 1.399 . S
C630 C635 1.399 . S
C631 C630 1.399 . S
C631 C632 1.376 . S
C632 H619 0.930 . S
C632 C631 1.376 . S
C632 C633 1.388 . S
C633 H620 0.930 . S
C633 C632 1.388 . S
C633 C634 1.390 . S
C634 C633 1.390 . S
C634 C635 1.394 . S
C634 C640 1.465 . S
C635 C630 1.399 . S
C635 C634 1.394 . S
C635 C636 1.511 . S
C636 C635 1.511 . S
C636 C637 1.488 1_655 S
C636 C638 1.578 . S
C636 C639 1.531 . S
C637 H621 0.959 . S
C637 H622 0.959 . S
C637 H623 0.961 . S
C637 C636 1.488 1_455 S
C638 H624 0.960 . S
C638 H625 0.961 . S
C638 H626 0.959 . S
C638 C636 1.578 . S
C639 C636 1.531 . S
C639 C640 1.396 . S
C639 C644 1.390 . S
C640 C634 1.465 . S
C640 C639 1.396 . S
C640 C641 1.399 . S
C641 H627 0.929 . S
C641 C640 1.399 . S
C641 C642 1.385 . S
C642 H628 0.931 . S
C642 C641 1.385 . S
C642 C643 1.389 . S
C643 C642 1.389 . S
C643 C644 1.387 . S
C644 H629 0.930 . S
C644 C639 1.390 . S
C644 C643 1.387 . S
H645 C657 0.930 . S
H646 C659 0.930 . S
H647 C660 0.930 . S
H648 C664 0.959 . S
H649 C664 0.959 . S
H650 C664 0.961 . S
H651 C665 0.960 . S
H652 C665 0.961 . S
H653 C665 0.959 . S
H654 C668 0.929 1_545 S
H655 C669 0.931 . S
H656 C671 0.930 . S
C657 H645 0.930 . S
C657 C658 1.399 . S
C657 C662 1.399 . S
C658 C657 1.399 . S
C658 C659 1.376 . S
C659 H646 0.930 . S
C659 C658 1.376 . S
C659 C660 1.388 . S
C660 H647 0.930 . S
C660 C659 1.388 . S
C660 C661 1.390 . S
C661 C660 1.390 . S
C661 C662 1.394 . S
C661 C667 1.465 . S
C662 C657 1.399 . S
C662 C661 1.394 . S
C662 C663 1.516 . S
C663 C662 1.516 . S
C663 C664 1.502 . S
C663 C665 1.561 . S
C663 C666 1.526 . S
C664 H648 0.959 . S
C664 H649 0.959 . S
C664 H650 0.961 . S
C664 C663 1.502 . S
C665 H651 0.960 . S
C665 H652 0.961 . S
C665 H653 0.959 . S
C665 C663 1.561 . S
C666 C663 1.526 . S
C666 C667 1.396 . S
C666 C671 1.390 . S
C667 C661 1.465 . S
C667 C666 1.396 . S
C667 C668 1.399 . S
C668 H654 0.929 1_565 S
C668 C667 1.399 . S
C668 C669 1.385 1_565 S
C669 H655 0.931 . S
C669 C668 1.385 1_545 S
C669 C670 1.389 1_545 S
C670 C669 1.389 1_565 S
C670 C671 1.387 . S
C671 H656 0.930 . S
C671 C666 1.390 . S
C671 C670 1.387 . S
H672 C684 0.930 . S
H673 C686 0.930 . S
H674 C687 0.930 . S
H675 C691 0.959 . S
H676 C691 0.959 1_655 S
H677 C691 0.961 . S
H678 C692 0.954 1_455 S
H679 C692 0.961 . S
H680 C692 0.959 . S
H681 C695 0.929 . S
H682 C696 0.931 . S
H683 C698 0.930 . S
C684 H672 0.930 . S
C684 C685 1.399 . S
C684 C689 1.399 . S
C685 C684 1.399 . S
C685 C686 1.376 . S
C686 H673 0.930 . S
C686 C685 1.376 . S
C686 C687 1.388 1_455 S
C687 H674 0.930 . S
C687 C686 1.388 1_655 S
C687 C688 1.390 . S
C688 C687 1.390 . S
C688 C689 1.394 1_655 S
C688 C694 1.465 . S
C689 C684 1.399 . S
C689 C688 1.394 1_455 S
C689 C690 1.516 1_455 S
C690 C689 1.516 1_655 S
C690 C691 1.502 1_655 S
C690 C692 1.561 . S
C690 C693 1.526 . S
C691 H675 0.959 . S
C691 H676 0.959 1_455 S
C691 H677 0.961 . S
C691 C690 1.502 1_455 S
C692 H678 0.954 1_655 S
C692 H679 0.961 . S
C692 H680 0.959 . S
C692 C690 1.561 . S
C693 C690 1.526 . S
C693 C694 1.396 . S
C693 C698 1.390 . S
C694 C688 1.465 . S
C694 C693 1.396 . S
C694 C695 1.399 . S
C695 H681 0.929 . S
C695 C694 1.399 . S
C695 C696 1.385 . S
C696 H682 0.931 . S
C696 C695 1.385 . S
C696 C697 1.389 . S
C697 C696 1.389 . S
C697 C698 1.387 . S
C698 H683 0.930 . S
C698 C693 1.390 . S
C698 C697 1.387 . S
H699 C711 0.930 . S
H700 C713 0.930 . S
H701 C714 0.930 . S
H702 C718 0.959 1_565 S
H703 C718 0.959 . S
H704 C718 0.961 . S
H705 C719 0.960 . S
H706 C719 0.961 . S
H707 C719 0.959 . S
H708 C722 0.929 . S
H709 C723 0.931 . S
H710 C725 0.930 . S
C711 H699 0.930 . S
C711 C712 1.399 . S
C711 C716 1.399 1_545 S
C712 C711 1.399 . S
C712 C713 1.376 1_545 S
C713 H700 0.930 . S
C713 C712 1.376 1_565 S
C713 C714 1.388 . S
C714 H701 0.930 . S
C714 C713 1.388 . S
C714 C715 1.390 . S
C715 C714 1.390 . S
C715 C716 1.394 . S
C715 C721 1.465 . S
C716 C711 1.399 1_565 S
C716 C715 1.394 . S
C716 C717 1.516 1_565 S
C717 C716 1.516 1_545 S
C717 C718 1.502 . S
C717 C719 1.561 . S
C717 C720 1.526 1_545 S
C718 H702 0.959 1_545 S
C718 H703 0.959 . S
C718 H704 0.961 . S
C718 C717 1.502 . S
C719 H705 0.960 . S
C719 H706 0.961 . S
C719 H707 0.959 . S
C719 C717 1.561 . S
C720 C717 1.526 1_565 S
C720 C721 1.396 . S
C720 C725 1.390 . S
C721 C715 1.465 . S
C721 C720 1.396 . S
C721 C722 1.399 . S
C722 H708 0.929 . S
C722 C721 1.399 . S
C722 C723 1.385 . S
C723 H709 0.931 . S
C723 C722 1.385 . S
C723 C724 1.389 . S
C724 C723 1.389 . S
C724 C725 1.387 . S
C725 H710 0.930 . S
C725 C720 1.390 . S
C725 C724 1.387 . S
C253 C129 1.176 1_565 S
C265 C9 1.297 . S
C280 C169 1.889 . S
C292 C49 1.827 . S
C307 C209 1.084 . S
C319 C89 1.036 . S
C334 C10 4.353 . S
C346 C99 4.453 . S
C361 C50 4.467 . S
C373 C139 4.622 . S
C388 C90 4.763 . S
C400 C179 4.880 1_545 S
C415 C130 4.366 . S
C427 C219 4.448 . S
C442 C170 4.461 1_455 S
C454 C19 4.622 1_565 S
C469 C210 4.743 . S
C481 C59 4.880 . S
C496 C18 1.244 . S
C508 C138 1.247 1_545 S
C523 C58 1.602 . S
C535 C178 1.615 . S
C550 C98 1.411 . S
C562 C218 1.314 . S
C577 C15 1.404 . S
C589 C46 1.117 . S
C604 C55 0.628 . S
C616 C86 0.875 . S
C631 C95 1.392 . S
C643 C126 1.455 . S
C658 C135 1.281 . S
C670 C166 1.233 . S
C685 C175 0.718 . S
C697 C206 0.808 . S
C712 C215 1.339 1_545 S
C724 C6 1.507 . S
